
#######################################################################
#
#                 Cambridge Crystallographic Data Centre
#                                CCDC 
#
#######################################################################
#
# If this CIF has been generated from an entry in the Cambridge 
# Structural Database, then it will include bibliographic, chemical, 
# crystal, experimental, refinement or atomic coordinate data resulting 
# from the CCDC's data processing and validation procedures.
#
#######################################################################

data_BEHLOR01
_symmetry_cell_setting           monoclinic
_symmetry_space_group_name_H-M   'P 21/n'
_symmetry_Int_Tables_number      14
_space_group_name_Hall           '-P 2yn'
loop_
_symmetry_equiv_pos_site_id
_symmetry_equiv_pos_as_xyz
1 x,y,z
2 1/2-x,1/2+y,1/2-z
3 -x,-y,-z
4 1/2+x,1/2-y,1/2+z
_cell_length_a                   13.5624(5)
_cell_length_b                   15.3087(5)
_cell_length_c                   13.8451(4)
_cell_angle_alpha                90
_cell_angle_beta                 101.587(4)
_cell_angle_gamma                90
_cell_volume                     2815.98
loop_
_atom_site_label
_atom_site_type_symbol
_atom_site_fract_x
_atom_site_fract_y
_atom_site_fract_z
O1 O -0.27224(16) 0.15736(14) -0.02298(14)
O2 O -0.13783(18) 0.29319(14) -0.03017(15)
O3 O -0.37687(19) 0.28091(14) 0.06453(16)
O4 O -0.06901(17) 0.14951(15) 0.06459(17)
O5 O -0.2643(2) 0.16760(17) 0.17995(16)
O6 O -0.12586(19) 0.14980(16) -0.13242(17)
O7 O -0.43116(18) 0.11487(16) 0.06446(19)
C1 C 0.1456(3) 0.0018(2) -0.3067(2)
H1 H 0.1958 -0.0447 -0.2904
H2 H 0.1643 0.0404 -0.3565
H3 H 0.0794 -0.0241 -0.3325
C2 C 0.1315(3) 0.2346(2) -0.0443(2)
H4 H 0.0625 0.2569 -0.0549
H5 H 0.1752 0.2783 -0.0661
H6 H 0.1556 0.2224 0.0260
Ag1 Ag 0.108150(19) 0.045520(15) 0.083760(16)
Ag2 Ag -0.612800(18) 0.049620(15) -0.004060(15)
Cr1 Cr -0.33781(4) 0.18212(3) 0.07476(3)
Cr2 Cr -0.14680(4) 0.18923(3) -0.03027(3)
N1 N 0.12419(19) 0.07421(17) -0.06084(17)
N2 N -0.5994(2) 0.08085(18) -0.14861(17)
C3 C -0.6055(3) 0.1879(2) 0.1949(3)
H7 H -0.5390 0.1936 0.1779
H8 H -0.6073 0.2221 0.2544
H9 H -0.6571 0.2095 0.1403
N3 N 0.1012(2) -0.04006(15) 0.28274(17)
H10 H 0.0916 -0.0910 0.2529
C4 C -0.6307(2) 0.05262(19) 0.3018(2)
H11 H -0.6242 0.0790 0.3649
C5 C 0.1413(2) 0.0531(2) -0.2163(2)
N4 N -0.65239(19) -0.04200(15) 0.18176(17)
H12 H -0.6631 -0.0916 0.1493
C6 C -0.6077(2) 0.0574(2) -0.3095(2)
N5 N 0.13003(19) 0.01479(17) -0.13222(17)
H13 H 0.1268 -0.0421 -0.1242
N6 N -0.6388(2) 0.03592(16) 0.13995(18)
C7 C 0.1336(2) 0.1523(2) -0.1020(2)
C8 C 0.1238(2) 0.05905(19) 0.3983(2)
H14 H 0.1327 0.0880 0.4601
N7 N -0.6044(2) 0.01980(18) -0.22140(17)
H15 H -0.6052 -0.0370 -0.2117
C9 C -0.5993(2) 0.1578(2) -0.1931(2)
C10 C 0.1440(2) 0.1414(2) -0.1996(2)
H16 H 0.1515 0.1861 -0.2452
C11 C -0.6251(2) 0.09423(19) 0.2135(2)
C12 C -0.6579(3) -0.1104(2) 0.3424(2)
H17 H -0.7097 -0.1497 0.3067
H18 H -0.6773 -0.0906 0.4033
H19 H -0.5935 -0.1415 0.3587
C13 C 0.1014(3) -0.1040(2) 0.4471(2)
H20 H 0.1605 -0.1419 0.4518
H21 H 0.0404 -0.1374 0.4201
H22 H 0.0976 -0.0824 0.5129
C14 C -0.5984(3) 0.2407(2) -0.1354(2)
H23 H -0.6668 0.2540 -0.1270
H24 H -0.5735 0.2886 -0.1710
H25 H -0.5542 0.2337 -0.0706
C15 C 0.1219(2) 0.0973(2) 0.3059(2)
N8 N 0.1086(2) 0.03589(16) 0.23628(18)
C16 C -0.6475(2) -0.03365(19) 0.2795(2)
C17 C -0.6171(3) 0.0057(2) -0.4025(2)
H26 H -0.6258 -0.0562 -0.3883
H27 H -0.5560 0.0132 -0.4293
H28 H -0.6755 0.0263 -0.4507
C18 C 0.1345(3) 0.1904(2) 0.2813(2)
H29 H 0.1991 0.1982 0.2609
H30 H 0.1331 0.2267 0.3393
H31 H 0.0796 0.2079 0.2274
C19 C -0.6040(2) 0.1460(2) -0.2941(2)
H32 H -0.6045 0.1903 -0.3422
C20 C 0.1101(2) -0.02879(19) 0.3811(2)
O6B O 0.12586(19) -0.14980(16) 0.13242(17)
O7B O -0.56884(18) -0.11487(16) -0.06446(19)
Ag1B Ag -0.108150(19) -0.045520(15) -0.083760(16)
Ag2B Ag -0.387200(18) -0.049620(15) 0.004060(15)
loop_
_geom_bond_atom_site_label_1
_geom_bond_atom_site_label_2
_geom_bond_site_symmetry_1
_geom_bond_site_symmetry_2
O1 Cr1 1_555 1_555
O2 Cr2 1_555 1_555
O3 Cr1 1_555 1_555
O4 Ag1 1_555 1_555
O5 Cr1 1_555 1_555
O6 Cr2 1_555 1_555
O7 Ag2 1_555 1_555
C1 H1 1_555 1_555
H2 C1 1_555 1_555
H3 C1 1_555 1_555
C2 H4 1_555 1_555
H5 C2 1_555 1_555
H6 C2 1_555 1_555
Ag1 N1 1_555 1_555
Ag2 N2 1_555 1_555
Cr1 O7 1_555 1_555
Cr2 O1 1_555 1_555
N1 N5 1_555 1_555
N2 N7 1_555 1_555
C3 H7 1_555 1_555
H8 C3 1_555 1_555
H9 C3 1_555 1_555
N3 H10 1_555 1_555
C4 H11 1_555 1_555
C5 C1 1_555 1_555
N4 H12 1_555 1_555
C6 N7 1_555 1_555
N5 C5 1_555 1_555
H13 N5 1_555 1_555
N6 Ag2 1_555 1_555
C7 C2 1_555 1_555
C8 H14 1_555 1_555
N7 H15 1_555 1_555
C9 N2 1_555 1_555
C10 C5 1_555 1_555
H16 C10 1_555 1_555
C11 C3 1_555 1_555
C12 H17 1_555 1_555
H18 C12 1_555 1_555
H19 C12 1_555 1_555
C13 H20 1_555 1_555
H21 C13 1_555 1_555
H22 C13 1_555 1_555
C14 C9 1_555 1_555
H23 C14 1_555 1_555
H24 C14 1_555 1_555
H25 C14 1_555 1_555
C15 C8 1_555 1_555
N8 Ag1 1_555 1_555
C16 C4 1_555 1_555
C17 C6 1_555 1_555
H26 C17 1_555 1_555
H27 C17 1_555 1_555
H28 C17 1_555 1_555
C18 C15 1_555 1_555
H29 C18 1_555 1_555
H30 C18 1_555 1_555
H31 C18 1_555 1_555
C19 C6 1_555 1_555
H32 C19 1_555 1_555
C20 N3 1_555 1_555
O6B Ag1 1_555 1_555
O7B Ag2 1_555 1_555
Ag1B O6 1_555 1_555
Ag2B O7 1_555 1_555
O4 Cr2 1_555 1_555
N1 C7 1_555 1_555
N3 N8 1_555 1_555
C4 C11 1_555 1_555
N4 N6 1_555 1_555
N4 C16 1_555 1_555
N6 C11 1_555 1_555
C7 C10 1_555 1_555
C8 C20 1_555 1_555
C9 C19 1_555 1_555
C12 C16 1_555 1_555
C13 C20 1_555 1_555
C15 N8 1_555 1_555
O7B Ag2B 1_555 1_555

#END
