
#######################################################################
#
#                 Cambridge Crystallographic Data Centre
#                                CCDC 
#
#######################################################################
#
# If this CIF has been generated from an entry in the Cambridge 
# Structural Database, then it will include bibliographic, chemical, 
# crystal, experimental, refinement or atomic coordinate data resulting 
# from the CCDC's data processing and validation procedures.
#
#######################################################################

data_BEHLOR
_symmetry_cell_setting           monoclinic
_symmetry_space_group_name_H-M   'C 2/c'
_symmetry_Int_Tables_number      15
_space_group_name_Hall           '-C 2yn'
loop_
_symmetry_equiv_pos_site_id
_symmetry_equiv_pos_as_xyz
1 x,y,z
2 -x,y,1/2-z
3 1/2+x,1/2+y,z
4 1/2-x,1/2+y,1/2-z
5 -x,-y,-z
6 x,-y,1/2+z
7 1/2-x,1/2-y,-z
8 1/2+x,1/2-y,1/2+z
_cell_length_a                   19.9694(8)
_cell_length_b                   8.7060(3)
_cell_length_c                   17.4856(7)
_cell_angle_alpha                90
_cell_angle_beta                 109.925(4)
_cell_angle_gamma                90
_cell_volume                     2857.96
loop_
_atom_site_label
_atom_site_type_symbol
_atom_site_fract_x
_atom_site_fract_y
_atom_site_fract_z
C1 C 0.43255(15) 0.3256(3) 0.63989(16)
H1 H 0.3955 0.2720 0.5963
H2 H 0.4129 0.4206 0.6536
H3 H 0.4492 0.2594 0.6880
C2 C 0.27251(15) -0.0249(3) 0.47775(16)
H4 H 0.2918 -0.0951 0.5238
H5 H 0.2204 -0.0247 0.4605
H6 H 0.2905 0.0791 0.4942
C3 C 0.65511(14) 0.5483(3) 0.59850(17)
H7 H 0.6970 0.4836 0.6240
H8 H 0.6587 0.6421 0.6307
H9 H 0.6529 0.5755 0.5433
C4 C 0.29481(14) -0.2728(3) 0.22145(15)
H10 H 0.3036 -0.2051 0.1811
H11 H 0.2465 -0.3149 0.1993
H12 H 0.3294 -0.3571 0.2345
Ag1 Ag 0.438027(10) 0.11675(2) 0.474954(11)
Cr1 Cr 0.55745(2) 0.15433(4) 0.33756(2)
C5 C 0.29518(13) -0.0766(3) 0.40876(15)
N1 N 0.56087(11) 0.3538(2) 0.53889(12)
H13 H 0.5781 0.3266 0.5008
O1 O 0.5000 0.2522(3) 0.2500
O2 O 0.60255(10) 0.2823(2) 0.40212(11)
N2 N 0.50190(10) 0.2907(2) 0.54847(12)
O3 O 0.50948(10) 0.0521(2) 0.37683(11)
C6 C 0.30230(13) -0.1836(3) 0.29672(14)
O4 O 0.61032(10) 0.0450(2) 0.31011(11)
C7 C 0.54749(13) 0.4716(3) 0.64304(14)
H14 H 0.5540 0.5379 0.6882
N3 N 0.35825(11) -0.0899(2) 0.33130(12)
H15 H 0.3928 -0.0739 0.3117
N4 N 0.35483(10) -0.0233(2) 0.39995(12)
C8 C 0.49335(13) 0.3631(3) 0.61209(14)
C9 C 0.26090(13) -0.1771(3) 0.34537(15)
H16 H 0.2176 -0.2305 0.3374
C10 C 0.58950(13) 0.4627(3) 0.59476(14)
C1D C 0.56745(15) -0.3256(3) 0.36011(16)
H1D H 0.6045 -0.2720 0.4037
H2D H 0.5871 -0.4206 0.3464
H3D H 0.5508 -0.2594 0.3120
C2D C 0.72749(15) 0.0249(3) 0.52225(16)
H4D H 0.7082 0.0951 0.4762
H5D H 0.7796 0.0247 0.5395
H6D H 0.7095 -0.0791 0.5058
C3D C 0.34489(14) -0.5483(3) 0.40150(17)
H7D H 0.3030 -0.4836 0.3760
H8D H 0.3413 -0.6421 0.3693
H9D H 0.3471 -0.5755 0.4567
C4D C 0.70519(14) 0.2728(3) 0.77855(15)
H10D H 0.6964 0.2051 0.8189
H11D H 0.7535 0.3149 0.8007
H12D H 0.6706 0.3571 0.7655
Ag1D Ag 0.561973(10) -0.11675(2) 0.525046(11)
Ag1A Ag 0.561973(10) 0.11675(2) 0.025046(11)
Ag1E Ag 0.438027(10) -0.11675(2) -0.025046(11)
Cr1A Cr 0.44255(2) 0.15433(4) 0.16244(2)
C5D C 0.70482(13) 0.0766(3) 0.59124(15)
N1D N 0.43913(11) -0.3538(2) 0.46111(12)
H13D H 0.4219 -0.3266 0.4992
O2A O 0.39745(10) 0.2823(2) 0.09788(11)
N2D N 0.49810(10) -0.2907(2) 0.45153(12)
O3D O 0.49052(10) -0.0521(2) 0.62317(11)
O3A O 0.49052(10) 0.0521(2) 0.12317(11)
C6D C 0.69770(13) 0.1836(3) 0.70328(14)
O4A O 0.38968(10) 0.0450(2) 0.18989(11)
C7D C 0.45251(13) -0.4716(3) 0.35696(14)
H14D H 0.4460 -0.5379 0.3118
N3D N 0.64175(11) 0.0899(2) 0.66870(12)
H15D H 0.6072 0.0739 0.6883
N4D N 0.64517(10) 0.0233(2) 0.60005(12)
C8D C 0.50665(13) -0.3631(3) 0.38791(14)
C9D C 0.73910(13) 0.1771(3) 0.65463(15)
H16D H 0.7824 0.2305 0.6626
C10D C 0.41050(13) -0.4627(3) 0.40524(14)
loop_
_geom_bond_atom_site_label_1
_geom_bond_atom_site_label_2
_geom_bond_site_symmetry_1
_geom_bond_site_symmetry_2
C1 H1 1_555 1_555
H2 C1 1_555 1_555
H3 C1 1_555 1_555
C2 H4 1_555 1_555
H5 C2 1_555 1_555
H6 C2 1_555 1_555
C3 H7 1_555 1_555
H8 C3 1_555 1_555
H9 C3 1_555 1_555
C4 H10 1_555 1_555
H11 C4 1_555 1_555
H12 C4 1_555 1_555
Ag1 N2 1_555 1_555
Cr1 O1 1_555 1_555
C5 C2 1_555 1_555
N1 H13 1_555 1_555
O1 Cr1A 1_555 1_555
O2 Cr1 1_555 1_555
N2 N1 1_555 1_555
O3 Ag1 1_555 1_555
C6 C4 1_555 1_555
O4 Cr1 1_555 1_555
C7 H14 1_555 1_555
N3 C6 1_555 1_555
H15 N3 1_555 1_555
N4 Ag1 1_555 1_555
C8 C1 1_555 1_555
C9 C5 1_555 1_555
H16 C9 1_555 1_555
C10 C3 1_555 1_555
C1D H1D 1_555 1_555
H2D C1D 1_555 1_555
H3D C1D 1_555 1_555
C2D H4D 1_555 1_555
H5D C2D 1_555 1_555
H6D C2D 1_555 1_555
C3D H7D 1_555 1_555
H8D C3D 1_555 1_555
H9D C3D 1_555 1_555
C4D H10D 1_555 1_555
H11D C4D 1_555 1_555
H12D C4D 1_555 1_555
Ag1D O3 1_555 1_555
Ag1A O3A 1_555 1_555
Ag1E O3A 1_555 1_555
Cr1A O2A 1_555 1_555
C5D C2D 1_555 1_555
N1D H13D 1_555 1_555
N2D Ag1D 1_555 1_555
O3D Ag1 1_555 1_555
O3A Cr1A 1_555 1_555
C6D C4D 1_555 1_555
O4A Cr1A 1_555 1_555
C7D H14D 1_555 1_555
N3D C6D 1_555 1_555
H15D N3D 1_555 1_555
N4D Ag1D 1_555 1_555
C8D C1D 1_555 1_555
C9D C5D 1_555 1_555
H16D C9D 1_555 1_555
C10D C3D 1_555 1_555
Cr1 O3 1_555 1_555
C5 N4 1_555 1_555
N1 C10 1_555 1_555
N2 C8 1_555 1_555
C6 C9 1_555 1_555
C7 C8 1_555 1_555
C7 C10 1_555 1_555
N3 N4 1_555 1_555
Ag1D O3D 1_555 1_555
C5D N4D 1_555 1_555
N1D N2D 1_555 1_555
N1D C10D 1_555 1_555
N2D C8D 1_555 1_555
C6D C9D 1_555 1_555
C7D C8D 1_555 1_555
C7D C10D 1_555 1_555
N3D N4D 1_555 1_555

#END
