
#######################################################################
#
#                 Cambridge Crystallographic Data Centre
#                                CCDC 
#
#######################################################################
#
# If this CIF has been generated from an entry in the Cambridge 
# Structural Database, then it will include bibliographic, chemical, 
# crystal, experimental, refinement or atomic coordinate data resulting 
# from the CCDC's data processing and validation procedures.
#
#######################################################################

data_BEHMAD01
_symmetry_cell_setting           triclinic
_symmetry_space_group_name_H-M   'P -1'
_symmetry_Int_Tables_number      2
_space_group_name_Hall           '-P 1'
loop_
_symmetry_equiv_pos_site_id
_symmetry_equiv_pos_as_xyz
1 x,y,z
2 -x,-y,-z
_cell_length_a                   9.4080(19)
_cell_length_b                   13.606(3)
_cell_length_c                   19.507(4)
_cell_angle_alpha                84.74(3)
_cell_angle_beta                 81.35(3)
_cell_angle_gamma                80.18(3)
_cell_volume                     2426.83
loop_
_atom_site_label
_atom_site_type_symbol
_atom_site_fract_x
_atom_site_fract_y
_atom_site_fract_z
Ge1 Ge 0.78786(7) 0.40615(5) 0.08890(3)
Ge2 Ge 0.38091(6) 0.45673(5) 0.17495(3)
Ge3 Ge 0.53917(6) 0.48421(4) 0.05940(3)
Ge4 Ge 0.63308(7) 0.36607(4) 0.20963(3)
Ge5 Ge 0.51204(6) 0.53792(4) 0.25557(3)
Ge6 Ge 0.79905(6) 0.50343(5) 0.19306(3)
Ge7 Ge 0.43036(6) 0.64045(4) 0.12954(3)
Ge8 Ge 0.72121(6) 0.60498(4) 0.06794(3)
Ge9 Ge 0.63867(7) 0.67906(5) 0.18785(3)
K1 K 1.10440(15) 0.55587(13) 0.08275(8)
K2 K 1.5177(3) 0.75855(13) -0.06099(11)
N1 N 1.0019(8) 0.7550(6) 0.1224(4)
H1 H 0.9213 0.7522 0.1534
H2 H 1.0694 0.7710 0.1457
N2 N 1.2196(12) 0.8117(10) 0.0076(6)
H3 H 1.1746 0.7814 -0.0202
H4 H 1.2256 0.7685 0.0453
N3 N 1.3965(16) 0.8939(6) -0.1655(5)
H5 H 1.3123 0.9233 -0.1423
H6 H 1.3700 0.8525 -0.1931
N4 N 1.3732(7) 1.0908(5) -0.3124(3)
H7 H 1.4482 1.1173 -0.3088
H8 H 1.3187 1.1144 -0.3436
C1 C 0.9657(12) 0.8412(7) 0.0725(7)
H9 H 0.9078 0.8963 0.0973
H10 H 0.9087 0.8227 0.0397
C2 C 1.1068(19) 0.8743(9) 0.0330(8)
H11 H 1.0781 0.9198 -0.0056
H12 H 1.1417 0.9137 0.0640
C3 C 1.4411(13) 0.9775(7) -0.2169(7)
H13 H 1.5368 0.9554 -0.2419
H14 H 1.4472 1.0347 -0.1918
C4 C 1.3388(15) 1.0074(7) -0.2660(5)
H15 H 1.2420 1.0248 -0.2408
H16 H 1.3376 0.9512 -0.2931
N5 N 1.8214(13) 0.7420(9) -0.1230(6)
H17 H 1.8382 0.6810 -0.1399
H18 H 1.8681 0.7343 -0.0854
N6 N 1.809(5) 0.917(3) -0.150(2)
H19 H 1.7513 0.8798 -0.1601
H20 H 1.7748 0.9772 -0.1383
C5 C 1.911(2) 0.7947(14) -0.1712(9)
H21 H 2.0012 0.7499 -0.1843
H22 H 1.8640 0.8118 -0.2126
C6 C 1.948(3) 0.8829(17) -0.1508(12)
H23 H 2.0108 0.9164 -0.1858
H24 H 1.9814 0.8763 -0.1058
K1A K 0.89560(15) 0.44413(13) -0.08275(8)
K1_2 K 0.10440(15) 0.55587(13) 0.08275(8)
K2A K 0.4823(3) 0.24145(13) 0.06099(11)
Ge3A Ge 0.46083(6) 0.51579(4) -0.05940(3)
K2_2 K 0.5177(3) 0.75855(13) -0.06099(11)
Ge1A Ge 1.21214(7) 0.59385(5) -0.08890(3)
Ge2_2 Ge 1.38091(6) 0.45673(5) 0.17495(3)
Ge7_2 Ge 1.43036(6) 0.64045(4) 0.12954(3)
Ge8A Ge 1.27879(6) 0.39502(4) -0.06794(3)
Ge2A Ge 1.61909(6) 0.54327(5) -0.17495(3)
Ge3A_2 Ge 1.46083(6) 0.51579(4) -0.05940(3)
Ge8_2 Ge 1.72121(6) 0.60498(4) 0.06794(3)
K3 K 1.02166(12) 0.24462(8) 0.52159(6)
O1 O 0.7094(4) 0.2436(3) 0.5375(2)
O2 O 0.8616(4) 0.3170(3) 0.4148(2)
O3 O 1.2393(5) 0.3709(3) 0.5038(2)
O4 O 1.0430(4) 0.3608(3) 0.6293(2)
O5 O 1.1047(5) 0.0607(3) 0.5972(2)
O6 O 1.2219(5) 0.0849(3) 0.4546(2)
N7 N 0.8597(5) 0.2005(4) 0.6608(3)
N8 N 1.1856(6) 0.2850(4) 0.3808(2)
C7 C 0.7144(7) 0.1789(6) 0.6556(3)
H25 H 0.6579 0.1801 0.7015
H26 H 0.7244 0.1118 0.6406
C8 C 0.6309(7) 0.2506(5) 0.6062(3)
H27 H 0.5345 0.2337 0.6072
H28 H 0.6203 0.3184 0.6202
C9 C 0.6376(6) 0.3159(4) 0.4911(3)
H29 H 0.6390 0.3827 0.5044
H30 H 0.5368 0.3069 0.4938
C10 C 0.7133(6) 0.3043(4) 0.4174(3)
H31 H 0.7087 0.2386 0.4032
H32 H 0.6654 0.3540 0.3859
C11 C 0.9360(7) 0.3060(5) 0.3454(3)
H33 H 0.8763 0.3436 0.3124
H34 H 0.9528 0.2362 0.3353
C12 C 1.0798(7) 0.3440(5) 0.3384(3)
H35 H 1.1227 0.3442 0.2900
H36 H 1.0614 0.4125 0.3515
C13 C 1.3043(7) 0.3433(5) 0.3835(3)
H37 H 1.3279 0.3767 0.3381
H38 H 1.3906 0.2978 0.3941
C14 C 1.2646(7) 0.4199(4) 0.4367(3)
H39 H 1.3431 0.4584 0.4349
H40 H 1.1777 0.4655 0.4270
C15 C 1.2253(7) 0.4389(4) 0.5570(3)
H41 H 1.1517 0.4961 0.5485
H42 H 1.3170 0.4626 0.5565
C16 C 1.1834(7) 0.3876(5) 0.6259(3)
H43 H 1.2540 0.3280 0.6330
H44 H 1.1832 0.4316 0.6623
C17 C 0.9879(7) 0.3295(5) 0.6987(3)
H45 H 0.9722 0.3854 0.7279
H46 H 1.0586 0.2773 0.7171
C18 C 0.8465(7) 0.2909(5) 0.6998(3)
H47 H 0.8071 0.2757 0.7477
H48 H 0.7775 0.3434 0.6804
C19 C 0.9397(7) 0.1141(5) 0.6973(3)
H49 H 0.8752 0.0904 0.7366
H50 H 1.0198 0.1351 0.7152
C20 C 0.9988(8) 0.0297(5) 0.6510(3)
H51 H 1.0427 -0.0278 0.6781
H52 H 0.9202 0.0104 0.6310
C21 C 1.1765(9) -0.0194(4) 0.5574(4)
H53 H 1.1065 -0.0454 0.5351
H54 H 1.2210 -0.0728 0.5876
C22 C 1.2913(8) 0.0156(5) 0.5033(4)
H55 H 1.3561 0.0474 0.5250
H56 H 1.3484 -0.0409 0.4798
C23 C 1.3258(7) 0.1149(5) 0.3997(4)
H57 H 1.3760 0.0571 0.3754
H58 H 1.3974 0.1443 0.4184
C24 C 1.2498(7) 0.1910(5) 0.3492(3)
H59 H 1.3196 0.2047 0.3090
H60 H 1.1737 0.1626 0.3332
loop_
_geom_bond_atom_site_label_1
_geom_bond_atom_site_label_2
_geom_bond_site_symmetry_1
_geom_bond_site_symmetry_2
Ge1 Ge3 1_555 1_555
Ge2 Ge3 1_555 1_555
Ge3 Ge4 1_555 1_555
Ge4 Ge1 1_555 1_555
Ge5 Ge2 1_555 1_555
Ge6 Ge1 1_555 1_555
Ge7 Ge2 1_555 1_555
Ge8 Ge1 1_555 1_555
Ge9 Ge5 1_555 1_555
K1 Ge1 1_555 1_555
K2 N2 1_555 1_555
N1 K1 1_555 1_555
H1 N1 1_555 1_555
H2 N1 1_555 1_555
N2 H3 1_555 1_555
H4 N2 1_555 1_555
N3 K2 1_555 1_555
H5 N3 1_555 1_555
H6 N3 1_555 1_555
N4 H7 1_555 1_555
H8 N4 1_555 1_555
C1 N1 1_555 1_555
H9 C1 1_555 1_555
H10 C1 1_555 1_555
C2 N2 1_555 1_555
H11 C2 1_555 1_555
H12 C2 1_555 1_555
C3 N3 1_555 1_555
H13 C3 1_555 1_555
H14 C3 1_555 1_555
C4 N4 1_555 1_555
H15 C4 1_555 1_555
H16 C4 1_555 1_555
N5 K2 1_555 1_555
H17 N5 1_555 1_555
H18 N5 1_555 1_555
N6 H19 1_555 1_555
H20 N6 1_555 1_555
C5 N5 1_555 1_555
H21 C5 1_555 1_555
H22 C5 1_555 1_555
C6 N6 1_555 1_555
H23 C6 1_555 1_555
H24 C6 1_555 1_555
K3 O1 1_555 1_555
O1 C8 1_555 1_555
O2 K3 1_555 1_555
O3 K3 1_555 1_555
O4 K3 1_555 1_555
O5 K3 1_555 1_555
O6 K3 1_555 1_555
N7 K3 1_555 1_555
N8 K3 1_555 1_555
C7 N7 1_555 1_555
H25 C7 1_555 1_555
H26 C7 1_555 1_555
C8 C7 1_555 1_555
H27 C8 1_555 1_555
H28 C8 1_555 1_555
C9 O1 1_555 1_555
H29 C9 1_555 1_555
H30 C9 1_555 1_555
C10 O2 1_555 1_555
H31 C10 1_555 1_555
H32 C10 1_555 1_555
C11 O2 1_555 1_555
H33 C11 1_555 1_555
H34 C11 1_555 1_555
C12 N8 1_555 1_555
H35 C12 1_555 1_555
H36 C12 1_555 1_555
C13 N8 1_555 1_555
H37 C13 1_555 1_555
H38 C13 1_555 1_555
C14 O3 1_555 1_555
H39 C14 1_555 1_555
H40 C14 1_555 1_555
C15 O3 1_555 1_555
H41 C15 1_555 1_555
H42 C15 1_555 1_555
C16 O4 1_555 1_555
H43 C16 1_555 1_555
H44 C16 1_555 1_555
C17 O4 1_555 1_555
H45 C17 1_555 1_555
H46 C17 1_555 1_555
C18 N7 1_555 1_555
H47 C18 1_555 1_555
H48 C18 1_555 1_555
C19 N7 1_555 1_555
H49 C19 1_555 1_555
H50 C19 1_555 1_555
C20 O5 1_555 1_555
H51 C20 1_555 1_555
H52 C20 1_555 1_555
C21 O5 1_555 1_555
H53 C21 1_555 1_555
H54 C21 1_555 1_555
C22 O6 1_555 1_555
H55 C22 1_555 1_555
H56 C22 1_555 1_555
C23 O6 1_555 1_555
H57 C23 1_555 1_555
H58 C23 1_555 1_555
C24 N8 1_555 1_555
H59 C24 1_555 1_555
H60 C24 1_555 1_555
K1A Ge1 1_555 1_555
K1_2 Ge2 1_555 1_555
K2A Ge2 1_555 1_555
Ge3A Ge3 1_555 1_555
K2_2 Ge7 1_555 1_555
Ge1A K1 1_555 1_555
Ge2_2 K1 1_555 1_555
Ge7_2 K1 1_555 1_555
Ge8A K1 1_555 1_555
Ge2A K2 1_555 1_555
Ge3A_2 K2 1_555 1_555
Ge8_2 K2 1_555 1_555
Ge2 Ge4 1_555 1_555
Ge3 Ge7 1_555 1_555
Ge3 Ge8 1_555 1_555
Ge3 K2A 1_555 1_555
Ge4 Ge5 1_555 1_555
Ge4 Ge6 1_555 1_555
Ge5 Ge6 1_555 1_555
Ge5 Ge7 1_555 1_555
Ge6 Ge8 1_555 1_555
Ge6 Ge9 1_555 1_555
Ge6 K1 1_555 1_555
Ge7 Ge8 1_555 1_555
Ge7 Ge9 1_555 1_555
Ge7 K1_2 1_555 1_555
Ge8 Ge9 1_555 1_555
Ge8 K1 1_555 1_555
Ge8 K1A 1_555 1_555
Ge8 K2_2 1_555 1_555
K1 K1A 1_555 1_555
K2 Ge7_2 1_555 1_555
C1 C2 1_555 1_555
C3 C4 1_555 1_555
C5 C6 1_555 1_555
C9 C10 1_555 1_555
C11 C12 1_555 1_555
C13 C14 1_555 1_555
C15 C16 1_555 1_555
C17 C18 1_555 1_555
C19 C20 1_555 1_555
C21 C22 1_555 1_555
C23 C24 1_555 1_555
K1A Ge1A 1_555 1_555
K1A Ge8A 1_555 1_555
Ge3A K2_2 1_555 1_555
Ge1A Ge8A 1_555 1_555
Ge1A Ge3A_2 1_555 1_555
Ge2_2 Ge7_2 1_555 1_555
Ge7_2 Ge8_2 1_555 1_555
Ge8A Ge3A_2 1_555 1_555
Ge2A Ge3A_2 1_555 1_555

#END
