
#######################################################################
#
#                 Cambridge Crystallographic Data Centre
#                                CCDC 
#
#######################################################################
#
# If this CIF has been generated from an entry in the Cambridge 
# Structural Database, then it will include bibliographic, chemical, 
# crystal, experimental, refinement or atomic coordinate data resulting 
# from the CCDC's data processing and validation procedures.
#
#######################################################################

data_BEHMEI
_symmetry_cell_setting           monoclinic
_symmetry_space_group_name_H-M   'C 2/c'
_symmetry_Int_Tables_number      15
_space_group_name_Hall           '-C 2yn'
loop_
_symmetry_equiv_pos_site_id
_symmetry_equiv_pos_as_xyz
1 x,y,z
2 -x,y,1/2-z
3 1/2+x,1/2+y,z
4 1/2-x,1/2+y,1/2-z
5 -x,-y,-z
6 x,-y,1/2+z
7 1/2-x,1/2-y,-z
8 1/2+x,1/2-y,1/2+z
_cell_length_a                   22.256(3)
_cell_length_b                   7.9245(6)
_cell_length_c                   19.196(2)
_cell_angle_alpha                90
_cell_angle_beta                 121.38(2)
_cell_angle_gamma                90
_cell_volume                     2890.36
loop_
_atom_site_label
_atom_site_type_symbol
_atom_site_fract_x
_atom_site_fract_y
_atom_site_fract_z
Ag1 Ag 0.41716(3) 0.19240(6) 0.03817(3)
S1 S 0.36626(10) 0.1341(3) -0.10841(11)
C1 C 0.5000 0.2398(11) 0.2500
H1 H 0.5055 0.1661 0.2946
N1 N 0.4378(3) 0.4582(6) 0.1039(3)
N2 N 0.3707(3) 0.2392(7) 0.1763(3)
N3 N 0.4290(3) 0.4846(6) 0.1676(3)
N4 N 0.3549(3) 0.1587(6) 0.1065(3)
N5 N 0.4776(3) -0.0452(7) -0.1028(3)
C2 C 0.4333(3) 0.3452(8) 0.2184(4)
H2 H 0.4345 0.3942 0.2671
C3 C 0.3193(4) 0.2163(9) 0.1940(4)
C4 C 0.2931(3) 0.0851(8) 0.0785(4)
C5 C 0.4323(4) 0.0298(8) -0.1042(4)
C6 C 0.2578(4) -0.0094(8) 0.0016(5)
H3 H 0.2177 0.0560 -0.0400
H4 H 0.2411 -0.1176 0.0098
H5 H 0.2910 -0.0298 -0.0165
C7 C 0.4140(4) 0.7298(9) 0.1115(5)
H6 H 0.4064 0.8469 0.0995
C8 C 0.4284(3) 0.6102(9) 0.0694(4)
C9 C 0.2706(4) 0.1185(9) 0.1334(5)
H7 H 0.2283 0.0789 0.1286
C10 C 0.3218(4) 0.2931(10) 0.2663(5)
H8 H 0.3119 0.4142 0.2569
H9 H 0.3687 0.2764 0.3147
H10 H 0.2865 0.2392 0.2748
C11 C 0.4129(4) 0.6481(8) 0.1728(4)
C12 C 0.4310(5) 0.6353(10) -0.0054(5)
H11 H 0.4768 0.6824 0.0093
H12 H 0.3936 0.7136 -0.0419
H13 H 0.4242 0.5268 -0.0330
C13 C 0.3973(5) 0.7110(9) 0.2350(5)
H14 H 0.3529 0.6622 0.2244
H15 H 0.3934 0.8343 0.2318
H16 H 0.4354 0.6778 0.2895
Ag1D Ag 0.58284(3) -0.19240(6) -0.03817(3)
Ag1A Ag 0.58284(3) 0.19240(6) 0.46183(3)
S1D S 0.63374(10) -0.1341(3) 0.10841(11)
H1A H 0.4945 0.1661 0.2054
N1A N 0.5622(3) 0.4582(6) 0.3961(3)
N1D N 0.5622(3) -0.4582(6) -0.1039(3)
N2A N 0.6293(3) 0.2392(7) 0.3237(3)
N3A N 0.5710(3) 0.4846(6) 0.3324(3)
N4A N 0.6451(3) 0.1587(6) 0.3935(3)
N4D N 0.6451(3) -0.1587(6) -0.1065(3)
N5D N 0.5224(3) 0.0452(7) 0.1028(3)
C2A C 0.5667(3) 0.3452(8) 0.2816(4)
H2A H 0.5655 0.3942 0.2329
C3A C 0.6807(4) 0.2163(9) 0.3060(4)
C4A C 0.7069(3) 0.0851(8) 0.4215(4)
C5D C 0.5677(4) -0.0298(8) 0.1042(4)
C6A C 0.7422(4) -0.0094(8) 0.4984(5)
H3A H 0.7823 0.0560 0.5400
H4A H 0.7589 -0.1176 0.4902
H5A H 0.7090 -0.0298 0.5165
C7A C 0.5860(4) 0.7298(9) 0.3885(5)
H6A H 0.5936 0.8469 0.4005
C8A C 0.5716(3) 0.6102(9) 0.4306(4)
C9A C 0.7294(4) 0.1185(9) 0.3666(5)
H7A H 0.7717 0.0789 0.3714
C10A C 0.6782(4) 0.2931(10) 0.2337(5)
H8A H 0.6881 0.4142 0.2431
H9A H 0.6313 0.2764 0.1853
H10A H 0.7135 0.2392 0.2252
C11A C 0.5871(4) 0.6481(8) 0.3272(4)
C12A C 0.5690(5) 0.6353(10) 0.5054(5)
H11A H 0.5232 0.6824 0.4907
H12A H 0.6064 0.7136 0.5419
H13A H 0.5758 0.5268 0.5330
C13A C 0.6027(5) 0.7110(9) 0.2650(5)
H14A H 0.6471 0.6622 0.2756
H15A H 0.6066 0.8343 0.2682
H16A H 0.5646 0.6778 0.2105
loop_
_geom_bond_atom_site_label_1
_geom_bond_atom_site_label_2
_geom_bond_site_symmetry_1
_geom_bond_site_symmetry_2
Ag1 S1 1_555 1_555
S1 C5 1_555 1_555
C1 H1 1_555 1_555
N1 Ag1 1_555 1_555
N2 N4 1_555 1_555
N3 N1 1_555 1_555
N4 Ag1 1_555 1_555
N5 C5 1_555 1_555
C2 C1 1_555 1_555
H2 C2 1_555 1_555
C3 N2 1_555 1_555
C4 N4 1_555 1_555
C6 C4 1_555 1_555
H3 C6 1_555 1_555
H4 C6 1_555 1_555
H5 C6 1_555 1_555
C7 H6 1_555 1_555
C8 N1 1_555 1_555
C9 C3 1_555 1_555
H7 C9 1_555 1_555
C10 C3 1_555 1_555
H8 C10 1_555 1_555
H9 C10 1_555 1_555
H10 C10 1_555 1_555
C11 N3 1_555 1_555
C12 C8 1_555 1_555
H11 C12 1_555 1_555
H12 C12 1_555 1_555
H13 C12 1_555 1_555
C13 C11 1_555 1_555
H14 C13 1_555 1_555
H15 C13 1_555 1_555
H16 C13 1_555 1_555
Ag1D N5 1_555 1_555
Ag1A N1A 1_555 1_555
S1D Ag1D 1_555 1_555
H1A C1 1_555 1_555
N1A N3A 1_555 1_555
N1D Ag1D 1_555 1_555
N2A N4A 1_555 1_555
N3A C2A 1_555 1_555
N4A Ag1A 1_555 1_555
N4D Ag1D 1_555 1_555
N5D Ag1 1_555 1_555
C2A C1 1_555 1_555
H2A C2A 1_555 1_555
C3A N2A 1_555 1_555
C4A N4A 1_555 1_555
C5D S1D 1_555 1_555
C6A C4A 1_555 1_555
H3A C6A 1_555 1_555
H4A C6A 1_555 1_555
H5A C6A 1_555 1_555
C7A H6A 1_555 1_555
C8A N1A 1_555 1_555
C9A C3A 1_555 1_555
H7A C9A 1_555 1_555
C10A C3A 1_555 1_555
H8A C10A 1_555 1_555
H9A C10A 1_555 1_555
H10A C10A 1_555 1_555
C11A N3A 1_555 1_555
C12A C8A 1_555 1_555
H11A C12A 1_555 1_555
H12A C12A 1_555 1_555
H13A C12A 1_555 1_555
C13A C11A 1_555 1_555
H14A C13A 1_555 1_555
H15A C13A 1_555 1_555
H16A C13A 1_555 1_555
N2 C2 1_555 1_555
N3 C2 1_555 1_555
C4 C9 1_555 1_555
C7 C8 1_555 1_555
C7 C11 1_555 1_555
N2A C2A 1_555 1_555
N5D C5D 1_555 1_555
C4A C9A 1_555 1_555
C7A C8A 1_555 1_555
C7A C11A 1_555 1_555

#END
