
#######################################################################
#
#                 Cambridge Crystallographic Data Centre
#                                CCDC 
#
#######################################################################
#
# If this CIF has been generated from an entry in the Cambridge 
# Structural Database, then it will include bibliographic, chemical, 
# crystal, experimental, refinement or atomic coordinate data resulting 
# from the CCDC's data processing and validation procedures.
#
#######################################################################

data_BEHMAE
_symmetry_cell_setting           monoclinic
_symmetry_space_group_name_H-M   'P 21/c'
_symmetry_Int_Tables_number      14
_space_group_name_Hall           '-P 2ybc'
loop_
_symmetry_equiv_pos_site_id
_symmetry_equiv_pos_as_xyz
1 x,y,z
2 -x,1/2+y,1/2-z
3 -x,-y,-z
4 x,1/2-y,1/2+z
_cell_length_a                   11.7314(12)
_cell_length_b                   19.0187(15)
_cell_length_c                   15.2179(15)
_cell_angle_alpha                90
_cell_angle_beta                 95.864(9)
_cell_angle_gamma                90
_cell_volume                     3377.59
loop_
_atom_site_label
_atom_site_type_symbol
_atom_site_fract_x
_atom_site_fract_y
_atom_site_fract_z
I1 I 0.47378(10) 0.08007(5) 0.37506(6)
I2 I 1.05999(9) -0.01239(6) 0.85161(7)
Ag1 Ag 0.89065(9) 0.02010(5) 0.96269(7)
Ag2 Ag 0.57197(10) 0.04997(5) 0.54565(7)
N1 N 0.6381(10) 0.1777(5) 0.6854(7)
N2 N 0.6179(11) 0.0218(6) 0.8814(7)
N3 N 0.6969(11) 0.1390(5) 0.8998(8)
N4 N 0.7048(11) -0.0188(6) 0.9213(7)
N5 N 0.8113(11) 0.1345(6) 0.9262(8)
N6 N 0.8099(9) 0.1230(5) 0.6425(7)
N7 N 0.5463(11) 0.1417(6) 0.6487(7)
C1 C 0.6451(13) 0.0874(6) 0.8377(9)
H1 H 0.5709 0.1077 0.8109
N8 N 0.7624(11) 0.0864(6) 0.5687(7)
C2 C 0.8470(14) 0.0766(8) 0.5189(10)
C3 C 0.7289(11) -0.1323(7) 0.9939(10)
H2 H 0.8021 -0.1339 0.9682
H3 H 0.6903 -0.1779 0.9858
H4 H 0.7428 -0.1218 1.0572
C4 C 0.6522(13) 0.1979(6) 0.9345(9)
C5 C 0.8353(13) 0.1907(7) 0.9771(9)
C6 C 0.5352(12) -0.0731(6) 0.9225(9)
H5 H 0.4801 -0.1084 0.9316
C7 C 0.7438(13) 0.1395(7) 0.7159(9)
H6 H 0.7915 0.1699 0.7587
C8 C 0.7167(11) 0.0722(6) 0.7623(8)
H7 H 0.7889 0.0488 0.7857
H8 H 0.6743 0.0398 0.7197
C9 C 0.5152(12) -0.0099(7) 0.8814(8)
C10 C 0.8292(14) 0.0427(8) 0.4322(11)
H9 H 0.7547 0.0190 0.4260
H10 H 0.8900 0.0080 0.4269
H11 H 0.8312 0.0782 0.3858
C11 C 0.7389(15) 0.2305(7) 0.9821(8)
H12 H 0.7343 0.2733 1.0137
C12 C 0.6136(14) 0.2470(6) 0.6973(9)
C13 C 0.4986(14) 0.2545(7) 0.6697(10)
H13 H 0.4548 0.2965 0.6700
C14 C 0.6992(15) 0.2993(7) 0.7323(10)
H14 H 0.7443 0.2800 0.7846
H15 H 0.6601 0.3421 0.7486
H16 H 0.7501 0.3103 0.6870
C15 C 0.6538(12) -0.0757(6) 0.9487(9)
C16 C 0.9231(13) 0.1341(7) 0.6396(10)
C17 C 0.9465(13) 0.1064(8) 0.5611(10)
H17 H 1.0190 0.1073 0.5385
C18 C 0.4070(13) 0.0181(8) 0.8367(10)
H18 H 0.4045 0.0692 0.8450
H19 H 0.3420 -0.0036 0.8620
H20 H 0.4026 0.0074 0.7735
C19 C 0.9541(16) 0.2003(8) 1.0190(11)
H21 H 0.9635 0.1752 1.0755
H22 H 0.9690 0.2505 1.0293
H23 H 1.0083 0.1817 0.9800
C20 C 0.5291(14) 0.2147(7) 0.9143(9)
H24 H 0.5141 0.2288 0.8523
H25 H 0.5085 0.2533 0.9524
H26 H 0.4831 0.1731 0.9250
C21 C 0.3398(15) 0.1651(8) 0.6044(11)
H27 H 0.3232 0.1834 0.5443
H28 H 0.2843 0.1842 0.6421
H29 H 0.3344 0.1137 0.6034
C22 C 0.9981(14) 0.1720(9) 0.7131(11)
H30 H 0.9588 0.2146 0.7303
H31 H 1.0712 0.1849 0.6917
H32 H 1.0122 0.1408 0.7643
C23 C 0.4584(15) 0.1866(7) 0.6404(10)
I1B I 0.52622(10) -0.08007(5) 0.62494(6)
I2B I 0.94001(9) 0.01239(6) 1.14839(7)
Ag1B Ag 1.10935(9) -0.02010(5) 1.03731(7)
Ag2B Ag 0.42803(10) -0.04997(5) 0.45435(7)
N9 N 0.8309(13) -0.1579(9) 0.6834(9)
O1 O 0.7898(15) -0.2068(7) 0.8071(12)
C24 C 0.8104(19) -0.1548(10) 0.7709(13)
H33 H 0.8130 -0.1111 0.8014
C25 C 0.858(2) -0.0894(12) 0.6436(13)
H34 H 0.7898 -0.0713 0.6084
H35 H 0.9198 -0.0959 0.6055
H36 H 0.8828 -0.0559 0.6906
C26 C 0.811(3) -0.2204(12) 0.6364(17)
H37 H 0.7834 -0.2563 0.6753
H38 H 0.8821 -0.2363 0.6145
H39 H 0.7527 -0.2123 0.5864
loop_
_geom_bond_atom_site_label_1
_geom_bond_atom_site_label_2
_geom_bond_site_symmetry_1
_geom_bond_site_symmetry_2
I1 Ag2 1_555 1_555
I2 Ag1 1_555 1_555
Ag1 N4 1_555 1_555
Ag2 N7 1_555 1_555
N1 N7 1_555 1_555
N2 N4 1_555 1_555
N3 N5 1_555 1_555
N4 C15 1_555 1_555
N5 Ag1 1_555 1_555
N6 N8 1_555 1_555
N7 C23 1_555 1_555
C1 N2 1_555 1_555
H1 C1 1_555 1_555
N8 Ag2 1_555 1_555
C2 N8 1_555 1_555
C3 H2 1_555 1_555
H3 C3 1_555 1_555
H4 C3 1_555 1_555
C4 N3 1_555 1_555
C5 N5 1_555 1_555
C6 H5 1_555 1_555
C7 N1 1_555 1_555
H6 C7 1_555 1_555
C8 C1 1_555 1_555
H7 C8 1_555 1_555
H8 C8 1_555 1_555
C9 N2 1_555 1_555
C10 C2 1_555 1_555
H9 C10 1_555 1_555
H10 C10 1_555 1_555
H11 C10 1_555 1_555
C11 C4 1_555 1_555
H12 C11 1_555 1_555
C12 N1 1_555 1_555
C13 C12 1_555 1_555
H13 C13 1_555 1_555
C14 C12 1_555 1_555
H14 C14 1_555 1_555
H15 C14 1_555 1_555
H16 C14 1_555 1_555
C15 C3 1_555 1_555
C16 N6 1_555 1_555
N9 C24 1_555 1_555
C17 C2 1_555 1_555
H17 C17 1_555 1_555
C18 C9 1_555 1_555
H18 C18 1_555 1_555
H19 C18 1_555 1_555
H20 C18 1_555 1_555
C19 C5 1_555 1_555
H21 C19 1_555 1_555
H22 C19 1_555 1_555
H23 C19 1_555 1_555
C20 C4 1_555 1_555
H24 C20 1_555 1_555
H25 C20 1_555 1_555
H26 C20 1_555 1_555
C21 H27 1_555 1_555
H28 C21 1_555 1_555
H29 C21 1_555 1_555
O1 C24 1_555 1_555
C22 C16 1_555 1_555
H30 C22 1_555 1_555
H31 C22 1_555 1_555
H32 C22 1_555 1_555
C23 C13 1_555 1_555
C24 H33 1_555 1_555
C25 N9 1_555 1_555
H34 C25 1_555 1_555
H35 C25 1_555 1_555
H36 C25 1_555 1_555
C26 N9 1_555 1_555
H37 C26 1_555 1_555
H38 C26 1_555 1_555
H39 C26 1_555 1_555
I1B Ag2 1_555 1_555
I2B Ag1 1_555 1_555
Ag1B I2 1_555 1_555
Ag2B I1 1_555 1_555
N3 C1 1_555 1_555
N6 C7 1_555 1_555
C5 C11 1_555 1_555
C6 C9 1_555 1_555
C6 C15 1_555 1_555
C7 C8 1_555 1_555
C16 C17 1_555 1_555
C21 C23 1_555 1_555
I1B Ag2B 1_555 1_555
I2B Ag1B 1_555 1_555

#END
