
#######################################################################
#
#                 Cambridge Crystallographic Data Centre
#                                CCDC 
#
#######################################################################
#
# If this CIF has been generated from an entry in the Cambridge 
# Structural Database, then it will include bibliographic, chemical, 
# crystal, experimental, refinement or atomic coordinate data resulting 
# from the CCDC's data processing and validation procedures.
#
#######################################################################

data_BEHNIN
_symmetry_cell_setting           monoclinic
_symmetry_space_group_name_H-M   'P 21/n'
_symmetry_Int_Tables_number      14
_space_group_name_Hall           '-P 2yn'
loop_
_symmetry_equiv_pos_site_id
_symmetry_equiv_pos_as_xyz
1 x,y,z
2 1/2-x,1/2+y,1/2-z
3 -x,-y,-z
4 1/2+x,1/2-y,1/2+z
_cell_length_a                   8.4930(3)
_cell_length_b                   38.8893(12)
_cell_length_c                   11.2222(3)
_cell_angle_alpha                90
_cell_angle_beta                 99.7620(10)
_cell_angle_gamma                90
_cell_volume                     3652.88
loop_
_atom_site_label
_atom_site_type_symbol
_atom_site_fract_x
_atom_site_fract_y
_atom_site_fract_z
Cu1 Cu 0.64069(8) 0.167783(17) 0.80945(6)
Cu2 Cu 0.0000 0.0000 0.5000
O1 O 0.7516(5) 0.20893(11) 0.7541(4)
H1 H 0.698(8) 0.2254(17) 0.715(6)
H2 H 0.802(11) 0.220(2) 0.810(8)
O2 O 0.8563(5) 0.14640(13) 0.8670(4)
H3 H 0.890(7) 0.1315(15) 0.828(5)
H4 H 0.924(10) 0.158(2) 0.893(8)
O3 O -0.0517(5) 0.04296(12) 0.4084(4)
H5 H -0.124(9) 0.0421(18) 0.347(7)
H6 H -0.051(8) 0.065(2) 0.435(6)
O4 O -0.0643(5) 0.02484(13) 0.6866(4)
H7 H -0.039(7) 0.0464(17) 0.708(6)
H8 H -0.022(9) 0.014(2) 0.742(7)
N1 N 0.5408(5) 0.12359(11) 0.8391(4)
N2 N 0.5903(5) 0.09584(12) 0.7903(4)
N3 N 0.5073(5) 0.06911(11) 0.8239(4)
N4 N 0.4378(5) 0.03021(12) 0.6605(4)
N5 N 0.2938(5) 0.01511(12) 0.6529(4)
N6 N 0.2233(5) 0.01724(12) 0.5401(4)
C1 C 0.4215(6) 0.11487(14) 0.9044(5)
C2 C 0.3282(6) 0.13515(15) 0.9712(5)
H9 H 0.3402 0.1594 0.9774
C3 C 0.2196(7) 0.11774(15) 1.0263(5)
H10 H 0.1553 0.1302 1.0726
C4 C 0.2012(7) 0.08158(16) 1.0158(5)
H11 H 0.1244 0.0707 1.0556
C5 C 0.2887(6) 0.06174(15) 0.9510(5)
H12 H 0.2753 0.0375 0.9441
C6 C 0.4003(6) 0.07963(14) 0.8953(5)
C7 C 0.4590(7) 0.04320(14) 0.5524(5)
C8 C 0.5830(7) 0.06185(15) 0.5155(5)
H13 H 0.6767 0.0679 0.5705
C9 C 0.5357(6) 0.03518(14) 0.7782(5)
H14 H 0.6499 0.0327 0.7716
H15 H 0.5095 0.0174 0.8350
C10 C 0.5625(7) 0.07096(16) 0.3963(5)
H16 H 0.6430 0.0841 0.3681
C11 C 0.4255(7) 0.06142(16) 0.3140(5)
H17 H 0.4179 0.0677 0.2314
C12 C 0.3023(7) 0.04328(15) 0.3496(5)
H18 H 0.2094 0.0370 0.2940
C13 C 0.3217(7) 0.03447(14) 0.4733(5)
N7 N 0.4510(5) 0.18160(12) 0.6902(4)
N8 N 0.3421(5) 0.20151(11) 0.7244(4)
N9 N 0.2382(5) 0.21007(12) 0.6244(4)
N10 N 0.1320(5) 0.26711(11) 0.6064(4)
N11 N 0.0979(5) 0.27703(12) 0.4898(4)
N12 N 0.1395(5) 0.30932(12) 0.4837(4)
C14 C 0.4182(6) 0.17720(14) 0.5664(5)
C15 C 0.4955(7) 0.15788(15) 0.4882(5)
H19 H 0.5883 0.1447 0.5172
C16 C 0.4308(7) 0.15890(16) 0.3677(5)
H20 H 0.4800 0.1461 0.3119
C17 C 0.2916(7) 0.17866(15) 0.3241(5)
H21 H 0.2516 0.1788 0.2397
C18 C 0.2128(6) 0.19763(14) 0.3998(5)
H22 H 0.1199 0.2108 0.3711
C19 C 0.2812(6) 0.19586(14) 0.5227(5)
C20 C 0.2011(6) 0.29342(14) 0.6783(5)
C21 C 0.2625(7) 0.29577(16) 0.8026(5)
H23 H 0.2598 0.2770 0.8564
C22 C 0.1041(6) 0.23185(14) 0.6372(5)
H24 H 0.0072 0.2232 0.5840
H25 H 0.0850 0.2308 0.7217
C23 C 0.3267(6) 0.32719(15) 0.8409(5)
H26 H 0.3718 0.3301 0.9237
C24 C 0.3278(7) 0.35542(15) 0.7606(5)
H27 H 0.3715 0.3767 0.7918
C25 C 0.2678(7) 0.35291(15) 0.6396(5)
H28 H 0.2693 0.3718 0.5860
C26 C 0.2040(6) 0.32088(14) 0.5997(5)
Cu1B Cu -0.64069(8) -0.167783(17) 0.19055(6)
Cu1C Cu 0.14069(8) 0.332217(17) 0.30945(6)
Cu1C_2 Cu 1.14069(8) 0.332217(17) 1.30945(6)
O1B O -0.7516(5) -0.20893(11) 0.2459(4)
H1B H -0.698(8) -0.2254(17) 0.285(6)
H2B H -0.802(11) -0.220(2) 0.190(8)
O2B O -0.8563(5) -0.14640(13) 0.1330(4)
H3B H -0.890(7) -0.1315(15) 0.172(5)
H4B H -0.924(10) -0.158(2) 0.107(8)
O3B O 0.0517(5) -0.04296(12) 0.5916(4)
H5B H 0.124(9) -0.0421(18) 0.653(7)
H6B H 0.051(8) -0.065(2) 0.565(6)
O4B O 0.0643(5) -0.02484(13) 0.3134(4)
H7B H 0.039(7) -0.0464(17) 0.292(6)
H8B H 0.022(9) -0.014(2) 0.258(7)
N1B N -0.5408(5) -0.12359(11) 0.1609(4)
N2B N -0.5903(5) -0.09584(12) 0.2097(4)
N3B N -0.5073(5) -0.06911(11) 0.1761(4)
N4B N -0.4378(5) -0.03021(12) 0.3395(4)
N5B N -0.2938(5) -0.01511(12) 0.3471(4)
N6B N -0.2233(5) -0.01724(12) 0.4599(4)
C1B C -0.4215(6) -0.11487(14) 0.0956(5)
C2B C -0.3282(6) -0.13515(15) 0.0288(5)
H9B H -0.3402 -0.1594 0.0226
C3B C -0.2196(7) -0.11774(15) -0.0263(5)
H10B H -0.1553 -0.1302 -0.0726
C4B C -0.2012(7) -0.08158(16) -0.0158(5)
H11B H -0.1244 -0.0707 -0.0556
C5B C -0.2887(6) -0.06174(15) 0.0490(5)
H12B H -0.2753 -0.0375 0.0559
C6B C -0.4003(6) -0.07963(14) 0.1047(5)
C7B C -0.4590(7) -0.04320(14) 0.4476(5)
C8B C -0.5830(7) -0.06185(15) 0.4845(5)
H13B H -0.6767 -0.0679 0.4295
C9B C -0.5357(6) -0.03518(14) 0.2218(5)
H14B H -0.6499 -0.0327 0.2284
H15B H -0.5095 -0.0174 0.1650
C10B C -0.5625(7) -0.07096(16) 0.6037(5)
H16B H -0.6430 -0.0841 0.6319
C11B C -0.4255(7) -0.06142(16) 0.6860(5)
H17B H -0.4179 -0.0677 0.7686
C12B C -0.3023(7) -0.04328(15) 0.6504(5)
H18B H -0.2094 -0.0370 0.7060
C13B C -0.3217(7) -0.03447(14) 0.5267(5)
N7C N 0.9510(5) 0.31840(12) 1.1902(4)
N7B N -0.4510(5) -0.18160(12) 0.3098(4)
N8C N 0.8421(5) 0.29849(11) 1.2244(4)
N9C N 0.7382(5) 0.28993(12) 1.1244(4)
N10C N 0.6320(5) 0.23289(11) 1.1064(4)
N11C N 0.5979(5) 0.22297(12) 0.9898(4)
N12C N 0.6395(5) 0.19068(12) 0.9837(4)
N12A N -0.6395(5) -0.19068(12) 0.0163(4)
C14C C 0.9182(6) 0.32280(14) 1.0664(5)
C15C C 0.9955(7) 0.34212(15) 0.9882(5)
H19C H 1.0883 0.3553 1.0172
C16C C 0.9308(7) 0.34110(16) 0.8677(5)
H20C H 0.9800 0.3539 0.8119
C17C C 0.7916(7) 0.32134(15) 0.8241(5)
H21C H 0.7516 0.3212 0.7397
C18C C 0.7128(6) 0.30237(14) 0.8998(5)
H22C H 0.6199 0.2892 0.8711
C19C C 0.7812(6) 0.30414(14) 1.0227(5)
C20C C 0.7011(6) 0.20658(14) 1.1783(5)
C21C C 0.7625(7) 0.20423(16) 1.3026(5)
H23C H 0.7598 0.2230 1.3564
C22C C 0.6041(6) 0.26815(14) 1.1372(5)
H24C H 0.5072 0.2768 1.0840
H25C H 0.5850 0.2692 1.2217
C23C C 0.8267(6) 0.17281(15) 1.3409(5)
H26C H 0.8718 0.1699 1.4237
C24C C 0.8278(7) 0.14458(15) 1.2606(5)
H27C H 0.8715 0.1233 1.2918
C25C C 0.7678(7) 0.14709(15) 1.1396(5)
H28C H 0.7693 0.1282 1.0860
C26C C 0.7040(6) 0.17912(14) 1.0997(5)
Cl1 Cl 1.08705(15) 0.22743(3) 1.02327(12)
O5 O 1.2533(5) 0.23410(11) 1.0268(4)
O6 O 1.0352(5) 0.24305(10) 1.1276(3)
O7 O 1.0572(5) 0.19113(10) 1.0249(4)
O8 O 0.9953(5) 0.24223(10) 0.9145(3)
Cl2 Cl -0.21198(16) 0.04229(4) 0.08881(12)
O9 O -0.3528(5) 0.02214(11) 0.0510(4)
O10 O -0.1874(5) 0.06537(11) -0.0055(4)
O11 O -0.2339(6) 0.06203(11) 0.1934(4)
O12 O -0.0756(5) 0.01988(11) 0.1196(4)
Cl3 Cl 0.05188(17) 0.11436(4) 0.63001(13)
O13 O 0.2092(5) 0.10192(14) 0.6288(4)
O14 O -0.0123(5) 0.09767(11) 0.7277(4)
O15 O -0.0503(6) 0.10549(11) 0.5176(4)
O16 O 0.0491(6) 0.15059(11) 0.6467(4)
loop_
_geom_bond_atom_site_label_1
_geom_bond_atom_site_label_2
_geom_bond_site_symmetry_1
_geom_bond_site_symmetry_2
Cu1 O1 1_555 1_555
Cu2 O3 1_555 1_555
O1 H1 1_555 1_555
H2 O1 1_555 1_555
O2 Cu1 1_555 1_555
H3 O2 1_555 1_555
H4 O2 1_555 1_555
O3 H5 1_555 1_555
H6 O3 1_555 1_555
O4 Cu2 1_555 1_555
H7 O4 1_555 1_555
H8 O4 1_555 1_555
N1 Cu1 1_555 1_555
N2 N1 1_555 1_555
N3 N2 1_555 1_555
N4 N5 1_555 1_555
N5 N6 1_555 1_555
N6 Cu2 1_555 1_555
C1 N1 1_555 1_555
C2 C1 1_555 1_555
H9 C2 1_555 1_555
C3 C2 1_555 1_555
H10 C3 1_555 1_555
C4 C3 1_555 1_555
H11 C4 1_555 1_555
C5 C4 1_555 1_555
H12 C5 1_555 1_555
C6 N3 1_555 1_555
C7 N4 1_555 1_555
C8 C7 1_555 1_555
H13 C8 1_555 1_555
C9 N3 1_555 1_555
H14 C9 1_555 1_555
H15 C9 1_555 1_555
C10 C8 1_555 1_555
H16 C10 1_555 1_555
C11 C10 1_555 1_555
H17 C11 1_555 1_555
C12 C11 1_555 1_555
H18 C12 1_555 1_555
C13 N6 1_555 1_555
N7 Cu1 1_555 1_555
N8 N7 1_555 1_555
N9 N8 1_555 1_555
N10 N11 1_555 1_555
N11 N12 1_555 1_555
N12 C26 1_555 1_555
C14 N7 1_555 1_555
C15 C14 1_555 1_555
H19 C15 1_555 1_555
C16 C15 1_555 1_555
H20 C16 1_555 1_555
C17 C16 1_555 1_555
H21 C17 1_555 1_555
C18 C17 1_555 1_555
H22 C18 1_555 1_555
C19 N9 1_555 1_555
C20 N10 1_555 1_555
C21 C20 1_555 1_555
H23 C21 1_555 1_555
C22 N9 1_555 1_555
H24 C22 1_555 1_555
H25 C22 1_555 1_555
C23 C21 1_555 1_555
H26 C23 1_555 1_555
C24 C23 1_555 1_555
H27 C24 1_555 1_555
C25 C24 1_555 1_555
H28 C25 1_555 1_555
C26 C20 1_555 1_555
Cl1 O5 1_555 1_555
Cl2 O9 1_555 1_555
Cl3 O13 1_555 1_555
O6 Cl1 1_555 1_555
O7 Cl1 1_555 1_555
O8 Cl1 1_555 1_555
O10 Cl2 1_555 1_555
O11 Cl2 1_555 1_555
O12 Cl2 1_555 1_555
O14 Cl3 1_555 1_555
O15 Cl3 1_555 1_555
O16 Cl3 1_555 1_555
Cu1B O1B 1_555 1_555
Cu1C N12 1_555 1_555
Cu1C_2 N7C 1_555 1_555
O1B H1B 1_555 1_555
H2B O1B 1_555 1_555
O2B Cu1B 1_555 1_555
H3B O2B 1_555 1_555
H4B O2B 1_555 1_555
O3B Cu2 1_555 1_555
H5B O3B 1_555 1_555
H6B O3B 1_555 1_555
O4B Cu2 1_555 1_555
H7B O4B 1_555 1_555
H8B O4B 1_555 1_555
N1B Cu1B 1_555 1_555
N2B N1B 1_555 1_555
N3B N2B 1_555 1_555
N4B N5B 1_555 1_555
N5B N6B 1_555 1_555
N6B Cu2 1_555 1_555
C1B N1B 1_555 1_555
C2B C1B 1_555 1_555
H9B C2B 1_555 1_555
C3B C2B 1_555 1_555
H10B C3B 1_555 1_555
C4B C3B 1_555 1_555
H11B C4B 1_555 1_555
C5B C4B 1_555 1_555
H12B C5B 1_555 1_555
C6B N3B 1_555 1_555
C7B N4B 1_555 1_555
C8B C7B 1_555 1_555
H13B C8B 1_555 1_555
C9B N3B 1_555 1_555
H14B C9B 1_555 1_555
H15B C9B 1_555 1_555
C10B C8B 1_555 1_555
H16B C10B 1_555 1_555
C11B C10B 1_555 1_555
H17B C11B 1_555 1_555
C12B C11B 1_555 1_555
H18B C12B 1_555 1_555
C13B N6B 1_555 1_555
N7C N8C 1_555 1_555
N7B Cu1B 1_555 1_555
N8C N9C 1_555 1_555
N9C C19C 1_555 1_555
N10C N11C 1_555 1_555
N11C N12C 1_555 1_555
N12C Cu1 1_555 1_555
N12A Cu1B 1_555 1_555
C14C N7C 1_555 1_555
C15C C14C 1_555 1_555
H19C C15C 1_555 1_555
C16C C15C 1_555 1_555
H20C C16C 1_555 1_555
C17C C16C 1_555 1_555
H21C C17C 1_555 1_555
C18C C17C 1_555 1_555
H22C C18C 1_555 1_555
C19C C14C 1_555 1_555
C20C N10C 1_555 1_555
C21C C20C 1_555 1_555
H23C C21C 1_555 1_555
C22C N9C 1_555 1_555
H24C C22C 1_555 1_555
H25C C22C 1_555 1_555
C23C C21C 1_555 1_555
H26C C23C 1_555 1_555
C24C C23C 1_555 1_555
H27C C24C 1_555 1_555
C25C C24C 1_555 1_555
H28C C25C 1_555 1_555
C26C N12C 1_555 1_555
N4 C9 1_555 1_555
C1 C6 1_555 1_555
C5 C6 1_555 1_555
C7 C13 1_555 1_555
C12 C13 1_555 1_555
N10 C22 1_555 1_555
C14 C19 1_555 1_555
C18 C19 1_555 1_555
C25 C26 1_555 1_555
N4B C9B 1_555 1_555
C1B C6B 1_555 1_555
C5B C6B 1_555 1_555
C7B C13B 1_555 1_555
C12B C13B 1_555 1_555
N10C C22C 1_555 1_555
C18C C19C 1_555 1_555
C20C C26C 1_555 1_555
C25C C26C 1_555 1_555

#END
