
#######################################################################
#
#                 Cambridge Crystallographic Data Centre
#                                CCDC 
#
#######################################################################
#
# If this CIF has been generated from an entry in the Cambridge 
# Structural Database, then it will include bibliographic, chemical, 
# crystal, experimental, refinement or atomic coordinate data resulting 
# from the CCDC's data processing and validation procedures.
#
#######################################################################

data_BEHNAF
_symmetry_cell_setting           orthorhombic
_symmetry_space_group_name_H-M   'P n a 21'
_symmetry_Int_Tables_number      33
_space_group_name_Hall           'P 2c -2n'
loop_
_symmetry_equiv_pos_site_id
_symmetry_equiv_pos_as_xyz
1 x,y,z
2 -x,-y,1/2+z
3 1/2-x,1/2+y,1/2+z
4 1/2+x,1/2-y,z
_cell_length_a                   9.2086(4)
_cell_length_b                   15.2089(7)
_cell_length_c                   11.3472(5)
_cell_angle_alpha                90
_cell_angle_beta                 90
_cell_angle_gamma                90
_cell_volume                     1589.21
loop_
_atom_site_label
_atom_site_type_symbol
_atom_site_fract_x
_atom_site_fract_y
_atom_site_fract_z
Cu1 Cu 0.27581(4) 0.25365(3) 0.24999(7)
N1 N 0.2090(4) 0.1347(2) 0.1993(3)
N2 N 0.1173(4) 0.1286(2) 0.1118(3)
N3 N 0.0946(3) 0.0428(2) 0.0918(3)
N4 N 0.0808(4) -0.0184(2) -0.1018(3)
N5 N 0.0893(4) -0.1059(2) -0.1150(3)
N6 N 0.1774(3) -0.1218(2) -0.2028(3)
C1 C -0.0008(4) 0.0167(3) -0.0036(5)
H1 H -0.0566 0.0672 -0.0297
H2 H -0.0684 -0.0275 0.0246
C2 C 0.2473(4) 0.0523(3) 0.2365(5)
C3 C 0.3423(5) 0.0255(3) 0.3263(4)
H3 H 0.3902 0.0656 0.3744
C4 C 0.3603(6) -0.0640(3) 0.3387(4)
H4 H 0.4223 -0.0852 0.3968
C5 C 0.2868(5) -0.1243(3) 0.2653(6)
H5 H 0.3028 -0.1840 0.2766
C6 C 0.1928(5) -0.0985(3) 0.1780(5)
H6 H 0.1443 -0.1387 0.1304
C7 C 0.1753(4) -0.0085(3) 0.1660(4)
C8 C 0.2289(4) -0.0435(2) -0.2463(6)
C9 C 0.3268(5) -0.0262(3) -0.3378(4)
H7 H 0.3692 -0.0710 -0.3816
C10 C 0.3565(5) 0.0607(3) -0.3589(4)
H8 H 0.4219 0.0752 -0.4183
C11 C 0.2914(6) 0.1282(3) -0.2942(5)
H9 H 0.3138 0.1862 -0.3127
C12 C 0.1964(5) 0.1118(3) -0.2048(5)
H10 H 0.1536 0.1568 -0.1616
C13 C 0.1677(4) 0.0246(3) -0.1825(4)
N7 N 0.4061(4) 0.2419(2) 0.0260(3)
N8 N 0.0884(4) 0.2624(2) 0.4276(4)
O1 O 0.4591(4) 0.1776(3) 0.0717(4)
O2 O 0.4298(4) 0.2652(2) -0.0753(3)
O3 O 0.3174(3) 0.29046(19) 0.0887(3)
O4 O 0.0345(4) 0.2658(3) 0.5245(4)
O5 O 0.0277(3) 0.2902(2) 0.3349(3)
O6 O 0.2146(3) 0.22739(19) 0.4148(3)
Cu1B Cu 0.22419(4) -0.24635(3) -0.25001(7)
Cu1C Cu -0.22419(4) 0.24635(3) 0.24999(7)
N6B N 0.3226(3) 0.3782(2) 0.2972(3)
O5C O 0.5277(3) 0.2098(2) 0.3349(3)
loop_
_geom_bond_atom_site_label_1
_geom_bond_atom_site_label_2
_geom_bond_site_symmetry_1
_geom_bond_site_symmetry_2
Cu1 N1 1_555 1_555
N1 N2 1_555 1_555
N2 N3 1_555 1_555
N3 C1 1_555 1_555
N4 N5 1_555 1_555
N5 N6 1_555 1_555
N6 C8 1_555 1_555
C1 N4 1_555 1_555
H1 C1 1_555 1_555
H2 C1 1_555 1_555
C2 N1 1_555 1_555
C3 C2 1_555 1_555
H3 C3 1_555 1_555
C4 C3 1_555 1_555
H4 C4 1_555 1_555
C5 C4 1_555 1_555
H5 C5 1_555 1_555
C6 C5 1_555 1_555
H6 C6 1_555 1_555
C7 N3 1_555 1_555
C8 C9 1_555 1_555
C9 H7 1_555 1_555
C10 C9 1_555 1_555
H8 C10 1_555 1_555
C11 C10 1_555 1_555
H9 C11 1_555 1_555
C12 C11 1_555 1_555
H10 C12 1_555 1_555
C13 N4 1_555 1_555
N7 O1 1_555 1_555
N8 O4 1_555 1_555
O2 N7 1_555 1_555
O3 Cu1 1_555 1_555
O5 Cu1 1_555 1_555
O6 Cu1 1_555 1_555
Cu1B N6 1_555 1_555
Cu1C O5 1_555 1_555
N6B Cu1 1_555 1_555
O5C Cu1 1_555 1_555
C2 C7 1_555 1_555
C6 C7 1_555 1_555
C8 C13 1_555 1_555
C12 C13 1_555 1_555
N7 O3 1_555 1_555
N8 O5 1_555 1_555
N8 O6 1_555 1_555

#END
