
#######################################################################
#
#                 Cambridge Crystallographic Data Centre
#                                CCDC 
#
#######################################################################
#
# If this CIF has been generated from an entry in the Cambridge 
# Structural Database, then it will include bibliographic, chemical, 
# crystal, experimental, refinement or atomic coordinate data resulting 
# from the CCDC's data processing and validation procedures.
#
#######################################################################

data_BEHPOU
_symmetry_cell_setting           triclinic
_symmetry_space_group_name_H-M   'P -1'
_symmetry_Int_Tables_number      2
_space_group_name_Hall           '-P 1'
loop_
_symmetry_equiv_pos_site_id
_symmetry_equiv_pos_as_xyz
1 x,y,z
2 -x,-y,-z
_cell_length_a                   8.148(3)
_cell_length_b                   13.607(4)
_cell_length_c                   15.390(5)
_cell_angle_alpha                108.439(5)
_cell_angle_beta                 94.268(6)
_cell_angle_gamma                94.948(6)
_cell_volume                     1603.29
loop_
_atom_site_label
_atom_site_type_symbol
_atom_site_fract_x
_atom_site_fract_y
_atom_site_fract_z
Sb1 Sb 0.5000 0.5000 0.5000
F1 F 0.7006(10) 0.5276(7) 0.5599(8)
F2 F 0.4777(13) 0.3647(6) 0.5035(7)
F3 F 0.5798(17) 0.4509(10) 0.3903(6)
F1A F 0.2994(10) 0.4724(7) 0.4401(8)
F2A F 0.5223(13) 0.6353(6) 0.4965(7)
F3A F 0.4202(17) 0.5491(10) 0.6097(6)
Ag1 Ag 1.5000 1.0000 0.5000
N1 N 1.2123(10) 1.0616(6) 0.5364(5)
N2 N 0.5103(10) 0.9289(6) -0.3905(5)
O1 O 0.8214(8) 1.1694(4) 0.1647(3)
O2 O 0.7783(8) 1.0694(4) 0.0001(3)
H1 H 0.7888 1.1063 0.0543
C1 C 0.8232(10) 1.1071(7) 0.2096(5)
C2 C 0.7679(10) 0.9985(6) 0.1698(5)
C3 C 0.7259(9) 0.9295(6) 0.2170(5)
H2 H 0.7385 0.9463 0.2807
C4 C 0.6613(9) 0.8305(6) 0.1546(5)
C5 C 0.6669(9) 0.8363(6) 0.0675(5)
H3 H 0.6341 0.7812 0.0134
C6 C 0.7301(9) 0.9388(6) 0.0717(5)
C7 C 0.7447(10) 0.9718(7) -0.0052(5)
C8 C 0.8816(10) 1.1549(6) 0.3087(5)
C9 C 0.9774(9) 1.1043(6) 0.3571(5)
H4 H 0.9978 1.0360 0.3283
C10 C 1.0410(10) 1.1552(7) 0.4468(5)
C11 C 1.0185(12) 1.2589(7) 0.4901(6)
H5 H 1.0665 1.2942 0.5499
C12 C 0.9249(13) 1.3075(7) 0.4431(6)
H6 H 0.9053 1.3760 0.4719
C13 C 0.8595(11) 1.2569(7) 0.3541(6)
H7 H 0.7980 1.2925 0.3231
C14 C 1.1390(11) 1.1032(7) 0.4964(5)
C15 C 0.7254(10) 0.8995(7) -0.1009(5)
C16 C 0.6485(9) 0.9315(6) -0.1691(5)
H8 H 0.6077 0.9959 -0.1537
C17 C 0.6326(10) 0.8678(6) -0.2598(5)
C18 C 0.6933(11) 0.7709(7) -0.2837(5)
H9 H 0.6805 0.7274 -0.3446
C19 C 0.7726(12) 0.7408(7) -0.2154(6)
H10 H 0.8159 0.6772 -0.2306
C20 C 0.7879(11) 0.8041(7) -0.1254(6)
H11 H 0.8410 0.7827 -0.0800
C21 C 0.5606(11) 0.9020(6) -0.3328(6)
C22 C 0.5976(10) 0.7372(6) 0.1818(5)
C23 C 0.4498(10) 0.7693(6) 0.2364(5)
C24 C 0.3208(11) 0.8041(6) 0.1958(6)
H12 H 0.3263 0.8078 0.1368
C25 C 0.1834(12) 0.8337(7) 0.2405(8)
H13 H 0.0974 0.8566 0.2115
C26 C 0.1744(14) 0.8294(8) 0.3262(9)
H14 H 0.0814 0.8486 0.3562
C27 C 0.3018(17) 0.7969(9) 0.3692(7)
H15 H 0.2971 0.7968 0.4294
C28 C 0.4373(12) 0.7642(7) 0.3238(6)
H16 H 0.5204 0.7385 0.3522
C29 C 0.7365(11) 0.7109(7) 0.2401(6)
H17 H 0.6971 0.6520 0.2575
H18 H 0.7707 0.7697 0.2945
H19 H 0.8289 0.6944 0.2050
C30 C 0.5417(11) 0.6407(6) 0.0971(5)
H20 H 0.5025 0.5834 0.1167
H21 H 0.6336 0.6226 0.0619
H22 H 0.4542 0.6557 0.0596
N1A N 1.7877(10) 0.9384(6) 0.4636(5)
N2A N 2.4897(10) 1.0711(6) 1.3905(5)
O1A O 2.1786(8) 0.8306(4) 0.8353(3)
O2A O 2.2217(8) 0.9306(4) 0.9999(3)
H1A H 2.2112 0.8937 0.9457
C1A C 2.1768(10) 0.8929(7) 0.7904(5)
C2A C 2.2321(10) 1.0015(6) 0.8302(5)
C3A C 2.2741(9) 1.0705(6) 0.7830(5)
H2A H 2.2615 1.0537 0.7193
C4A C 2.3387(9) 1.1695(6) 0.8454(5)
C5A C 2.3331(9) 1.1637(6) 0.9325(5)
H3A H 2.3659 1.2188 0.9866
C6A C 2.2699(9) 1.0612(6) 0.9283(5)
C7A C 2.2553(10) 1.0282(7) 1.0052(5)
C8A C 2.1184(10) 0.8451(6) 0.6913(5)
C9A C 2.0226(9) 0.8957(6) 0.6429(5)
H4A H 2.0022 0.9640 0.6717
C10A C 1.9590(10) 0.8448(7) 0.5532(5)
C11A C 1.9815(12) 0.7411(7) 0.5099(6)
H5A H 1.9335 0.7058 0.4501
C12A C 2.0751(13) 0.6925(7) 0.5569(6)
H6A H 2.0947 0.6240 0.5281
C13A C 2.1405(11) 0.7431(7) 0.6459(6)
H7A H 2.2020 0.7075 0.6769
C14A C 1.8610(11) 0.8968(7) 0.5036(5)
C15A C 2.2746(10) 1.1005(7) 1.1009(5)
C16A C 2.3515(9) 1.0685(6) 1.1691(5)
H8A H 2.3923 1.0041 1.1537
C17A C 2.3674(10) 1.1322(6) 1.2598(5)
C18A C 2.3067(11) 1.2291(7) 1.2837(5)
H9A H 2.3195 1.2726 1.3446
C19A C 2.2274(12) 1.2592(7) 1.2154(6)
H10A H 2.1841 1.3228 1.2306
C20A C 2.2121(11) 1.1959(7) 1.1254(6)
H11A H 2.1590 1.2173 1.0800
C21A C 2.4394(11) 1.0980(6) 1.3328(6)
C22A C 2.4024(10) 1.2628(6) 0.8182(5)
C23A C 2.5502(10) 1.2307(6) 0.7636(5)
C24A C 2.6792(11) 1.1959(6) 0.8042(6)
H12A H 2.6737 1.1922 0.8632
C25A C 2.8166(12) 1.1663(7) 0.7595(8)
H13A H 2.9026 1.1434 0.7885
C26A C 2.8256(14) 1.1706(8) 0.6738(9)
H14A H 2.9186 1.1514 0.6438
C27A C 2.6982(17) 1.2031(9) 0.6308(7)
H15A H 2.7029 1.2032 0.5706
C28A C 2.5627(12) 1.2358(7) 0.6762(6)
H16A H 2.4796 1.2615 0.6478
C29A C 2.2635(11) 1.2891(7) 0.7599(6)
H17A H 2.3029 1.3480 0.7425
H18A H 2.2293 1.2303 0.7055
H19A H 2.1711 1.3056 0.7950
C30A C 2.4583(11) 1.3593(6) 0.9029(5)
H20A H 2.4975 1.4166 0.8833
H21A H 2.3664 1.3774 0.9381
H22A H 2.5458 1.3443 0.9404
N2_2 N 1.5103(10) 0.9289(6) 0.6095(5)
N2A_2 N 1.4897(10) 1.0711(6) 0.3905(5)
Ag1_2 Ag 0.5000 1.0000 -0.5000
Ag1_3 Ag 2.5000 1.0000 1.5000
C31 C 0.167(2) 0.5805(16) 0.835(2)
C32 C 0.084(4) 0.594(2) 0.9123(18)
H23 H 0.1408 0.6352 0.9684
C33 C -0.073(4) 0.553(4) 0.9145(18)
H24 H -0.1258 0.5638 0.9679
C34 C -0.145(3) 0.495(2) 0.828(2)
H25 H -0.2532 0.4632 0.8217
C35 C -0.067(3) 0.4797(11) 0.7509(15)
H26 H -0.1254 0.4387 0.6951
C36 C 0.083(3) 0.5185(14) 0.7494(13)
H27 H 0.1330 0.5060 0.6950
C37 C 0.313(4) 0.6111(18) 0.8361(17)
H28 H 0.3451 0.5873 0.7748
H29 H 0.3797 0.5840 0.8753
H30 H 0.3290 0.6859 0.8592
loop_
_geom_bond_atom_site_label_1
_geom_bond_atom_site_label_2
_geom_bond_site_symmetry_1
_geom_bond_site_symmetry_2
Sb1 F1 1_555 1_555
Ag1 N1 1_555 1_555
F2 Sb1 1_555 1_555
F3 Sb1 1_555 1_555
N1 C14 1_555 1_555
N2 C21 1_555 1_555
O1 C1 1_555 1_555
O2 H1 1_555 1_555
C1 C2 1_555 1_555
C2 C3 1_555 1_555
C3 H2 1_555 1_555
C4 C3 1_555 1_555
C5 C4 1_555 1_555
H3 C5 1_555 1_555
C6 C2 1_555 1_555
C7 O2 1_555 1_555
C8 C1 1_555 1_555
C9 C8 1_555 1_555
H4 C9 1_555 1_555
C10 C9 1_555 1_555
C11 C10 1_555 1_555
H5 C11 1_555 1_555
C12 C11 1_555 1_555
H6 C12 1_555 1_555
C13 C8 1_555 1_555
H7 C13 1_555 1_555
C14 C10 1_555 1_555
C15 C7 1_555 1_555
C16 C15 1_555 1_555
H8 C16 1_555 1_555
C17 C16 1_555 1_555
C18 C17 1_555 1_555
H9 C18 1_555 1_555
C19 C18 1_555 1_555
H10 C19 1_555 1_555
C20 C15 1_555 1_555
H11 C20 1_555 1_555
C21 C17 1_555 1_555
C22 C4 1_555 1_555
C23 C22 1_555 1_555
C24 C23 1_555 1_555
H12 C24 1_555 1_555
C25 C24 1_555 1_555
H13 C25 1_555 1_555
C26 C25 1_555 1_555
H14 C26 1_555 1_555
C27 C26 1_555 1_555
H15 C27 1_555 1_555
C28 C23 1_555 1_555
H16 C28 1_555 1_555
C29 C22 1_555 1_555
H17 C29 1_555 1_555
H18 C29 1_555 1_555
H19 C29 1_555 1_555
C30 C22 1_555 1_555
H20 C30 1_555 1_555
H21 C30 1_555 1_555
H22 C30 1_555 1_555
C31 C32 1_555 1_555
C32 H23 1_555 1_555
C33 C32 1_555 1_555
H24 C33 1_555 1_555
C34 C33 1_555 1_555
H25 C34 1_555 1_555
C35 C34 1_555 1_555
H26 C35 1_555 1_555
C36 C31 1_555 1_555
H27 C36 1_555 1_555
C37 C31 1_555 1_555
H28 C37 1_555 1_555
H29 C37 1_555 1_555
H30 C37 1_555 1_555
F1A Sb1 1_555 1_555
F2A Sb1 1_555 1_555
F3A Sb1 1_555 1_555
N1A Ag1 1_555 1_555
N2A C21A 1_555 1_555
O1A C1A 1_555 1_555
O2A H1A 1_555 1_555
C1A C2A 1_555 1_555
C2A C3A 1_555 1_555
C3A H2A 1_555 1_555
C4A C3A 1_555 1_555
C5A C4A 1_555 1_555
H3A C5A 1_555 1_555
C6A C2A 1_555 1_555
C7A O2A 1_555 1_555
C8A C1A 1_555 1_555
C9A C8A 1_555 1_555
H4A C9A 1_555 1_555
C10A C9A 1_555 1_555
C11A C10A 1_555 1_555
H5A C11A 1_555 1_555
C12A C11A 1_555 1_555
H6A C12A 1_555 1_555
C13A C8A 1_555 1_555
H7A C13A 1_555 1_555
C14A N1A 1_555 1_555
C15A C7A 1_555 1_555
C16A C15A 1_555 1_555
H8A C16A 1_555 1_555
C17A C16A 1_555 1_555
C18A C17A 1_555 1_555
H9A C18A 1_555 1_555
C19A C18A 1_555 1_555
H10A C19A 1_555 1_555
C20A C15A 1_555 1_555
H11A C20A 1_555 1_555
C21A C17A 1_555 1_555
C22A C4A 1_555 1_555
C23A C22A 1_555 1_555
C24A C23A 1_555 1_555
H12A C24A 1_555 1_555
C25A C24A 1_555 1_555
H13A C25A 1_555 1_555
C26A C25A 1_555 1_555
H14A C26A 1_555 1_555
C27A C26A 1_555 1_555
H15A C27A 1_555 1_555
C28A C23A 1_555 1_555
H16A C28A 1_555 1_555
C29A C22A 1_555 1_555
H17A C29A 1_555 1_555
H18A C29A 1_555 1_555
H19A C29A 1_555 1_555
C30A C22A 1_555 1_555
H20A C30A 1_555 1_555
H21A C30A 1_555 1_555
H22A C30A 1_555 1_555
N2_2 Ag1 1_555 1_555
N2A_2 Ag1 1_555 1_555
Ag1_2 N2 1_555 1_555
Ag1_3 N2A 1_555 1_555
C5 C6 1_555 1_555
C6 C7 1_555 1_555
C12 C13 1_555 1_555
C19 C20 1_555 1_555
C27 C28 1_555 1_555
C35 C36 1_555 1_555
C5A C6A 1_555 1_555
C6A C7A 1_555 1_555
C10A C14A 1_555 1_555
C12A C13A 1_555 1_555
C19A C20A 1_555 1_555
C27A C28A 1_555 1_555

#END
