
#######################################################################
#
#                 Cambridge Crystallographic Data Centre
#                                CCDC 
#
#######################################################################
#
# If this CIF has been generated from an entry in the Cambridge 
# Structural Database, then it will include bibliographic, chemical, 
# crystal, experimental, refinement or atomic coordinate data resulting 
# from the CCDC's data processing and validation procedures.
#
#######################################################################

data_BEHWIU
_symmetry_cell_setting           monoclinic
_symmetry_space_group_name_H-M   'P 21'
_symmetry_Int_Tables_number      4
_space_group_name_Hall           'P 2yb'
loop_
_symmetry_equiv_pos_site_id
_symmetry_equiv_pos_as_xyz
1 x,y,z
2 -x,1/2+y,-z
_cell_length_a                   8.77(3)
_cell_length_b                   6.20(3)
_cell_length_c                   21.40(3)
_cell_angle_alpha                90
_cell_angle_beta                 99.5(1)
_cell_angle_gamma                90
_cell_volume                     1147.65
loop_
_atom_site_label
_atom_site_type_symbol
_atom_site_fract_x
_atom_site_fract_y
_atom_site_fract_z
S1 S 0.26140 0.00000 0.14920
C1 C 0.28420 -0.30490 0.15800
C2 C 0.20040 -0.39920 0.09600
N1 N 0.06700 -0.25550 0.07330
C3 C 0.09580 -0.01430 0.08600
C4 C -0.07120 0.01000 0.10320
C5 C -0.07120 -0.25920 0.10090
O1 O -0.15140 -0.39480 0.11460
C6 C 0.20970 -0.38470 0.21370
C7 C 0.46220 -0.35470 0.16950
C8 C 0.30780 -0.41570 0.04370
O2 O 0.33250 -0.60480 0.02630
O3 O 0.34400 -0.24100 0.02040
N2 N -0.07990 0.07710 0.16630
C9 C -0.21330 0.14810 0.18220
O4 O -0.33980 0.14190 0.14540
C10 C -0.21410 0.24610 0.24780
C11 C -0.31410 0.11420 0.28480
C12 C -0.26050 -0.08780 0.30730
C13 C -0.34910 -0.21410 0.34160
C14 C -0.49130 -0.13830 0.35360
C15 C -0.54480 0.06380 0.33110
C16 C -0.45620 0.19000 0.29680
C17 C -0.05750 0.27830 0.29080
O5 O 0.05650 0.16800 0.29300
O6 O -0.06540 0.44720 0.33220
C18 C 0.04410 0.47210 0.38400
C19 C 0.12190 0.66860 0.39360
C20 C 0.22530 0.70480 0.44950
C21 C 0.25090 0.54450 0.49580
C22 C 0.17300 0.34800 0.48620
C23 C 0.06960 0.31180 0.43030
Na1 Na 0.48710 -0.91190 0.04570
H1 H 0.16640 -0.56180 0.10550
H2 H 0.12480 0.10670 0.05360
H3 H -0.16160 0.10970 0.07770
H4 H 0.26660 -0.31430 0.25760
H5 H 0.22510 -0.55760 0.21550
H6 H 0.08780 -0.34740 0.20710
H7 H 0.51640 -0.29250 0.13150
H8 H 0.47330 -0.52820 0.17130
H9 H 0.51780 -0.28660 0.21390
H10 H 0.03860 0.06230 0.18960
H11 H -0.25520 0.40650 0.23450
H12 H -0.15040 -0.14650 0.29800
H13 H -0.30760 -0.37050 0.35900
H14 H -0.55990 -0.23600 0.38020
H15 H -0.65490 0.12240 0.34040
H16 H -0.49770 0.34640 0.27940
H17 H 0.10210 0.79270 0.35780
H18 H 0.28550 0.85690 0.45700
H19 H 0.33090 0.57250 0.53910
H20 H 0.19280 0.22390 0.52200
H21 H 0.00940 0.15970 0.42280
Na1_2 Na -0.51290 0.08810 0.04570
Na1_3 Na 0.48710 0.08810 0.04570
O3_2 O 0.34400 -1.24100 0.02040
O4_2 O 0.66020 -0.85810 0.14540
loop_
_geom_bond_atom_site_label_1
_geom_bond_atom_site_label_2
_geom_bond_site_symmetry_1
_geom_bond_site_symmetry_2
S1 C1 1_555 1_555
C1 C2 1_555 1_555
C2 N1 1_555 1_555
N1 C3 1_555 1_555
C3 S1 1_555 1_555
C4 C3 1_555 1_555
C5 N1 1_555 1_555
O1 C5 1_555 1_555
C6 C1 1_555 1_555
C7 C1 1_555 1_555
C8 C2 1_555 1_555
O2 C8 1_555 1_555
O3 C8 1_555 1_555
N2 C4 1_555 1_555
C9 N2 1_555 1_555
O4 C9 1_555 1_555
C10 C9 1_555 1_555
C11 C10 1_555 1_555
C12 C11 1_555 1_555
C13 C12 1_555 1_555
C14 C13 1_555 1_555
C15 C14 1_555 1_555
C16 C11 1_555 1_555
C17 C10 1_555 1_555
O5 C17 1_555 1_555
O6 C17 1_555 1_555
C18 O6 1_555 1_555
C19 C18 1_555 1_555
C20 C19 1_555 1_555
C21 C20 1_555 1_555
C22 C21 1_555 1_555
C23 C18 1_555 1_555
Na1 O2 1_555 1_555
H1 C2 1_555 1_555
H2 C3 1_555 1_555
H3 C4 1_555 1_555
H4 C6 1_555 1_555
H5 C6 1_555 1_555
H6 C6 1_555 1_555
H7 C7 1_555 1_555
H8 C7 1_555 1_555
H9 C7 1_555 1_555
H10 N2 1_555 1_555
H11 C10 1_555 1_555
H12 C12 1_555 1_555
H13 C13 1_555 1_555
H14 C14 1_555 1_555
H15 C15 1_555 1_555
H16 C16 1_555 1_555
H17 C19 1_555 1_555
H18 C20 1_555 1_555
H19 C21 1_555 1_555
H20 C22 1_555 1_555
H21 C23 1_555 1_555
Na1_2 O4 1_555 1_555
Na1_3 O3 1_555 1_555
O3_2 Na1 1_555 1_555
O4_2 Na1 1_555 1_555
C4 C5 1_555 1_555
C15 C16 1_555 1_555
C22 C23 1_555 1_555

#END
