
#######################################################################
#
#                 Cambridge Crystallographic Data Centre
#                                CCDC 
#
#######################################################################
#
# If this CIF has been generated from an entry in the Cambridge 
# Structural Database, then it will include bibliographic, chemical, 
# crystal, experimental, refinement or atomic coordinate data resulting 
# from the CCDC's data processing and validation procedures.
#
#######################################################################

data_BEJCID
_symmetry_cell_setting           monoclinic
_symmetry_space_group_name_H-M   'C 2/c'
_symmetry_Int_Tables_number      15
_space_group_name_Hall           '-C 2yn'
loop_
_symmetry_equiv_pos_site_id
_symmetry_equiv_pos_as_xyz
1 x,y,z
2 -x,y,1/2-z
3 1/2+x,1/2+y,z
4 1/2-x,1/2+y,1/2-z
5 -x,-y,-z
6 x,-y,1/2+z
7 1/2-x,1/2-y,-z
8 1/2+x,1/2-y,1/2+z
_cell_length_a                   12.455(3)
_cell_length_b                   6.202(1)
_cell_length_c                   16.555(3)
_cell_angle_alpha                90
_cell_angle_beta                 106.776(3)
_cell_angle_gamma                90
_cell_volume                     1224.38
loop_
_atom_site_label
_atom_site_type_symbol
_atom_site_fract_x
_atom_site_fract_y
_atom_site_fract_z
Cu1 Cu 0.5000 0.2806(2) 0.7500
O1 O 0.3359(3) 0.2531(7) 0.7418(2)
O2 O 0.0283(3) 0.2228(7) 0.3718(2)
O3 O 0.0634(4) 0.5771(8) 0.3848(3)
O4 O 0.5000 0.6501(12) 0.7500
N1 N 0.2615(4) 0.2924(9) 0.6660(3)
C1 C 0.1976(5) 0.1297(11) 0.6250(4)
C2 C 0.1317(5) 0.1593(11) 0.5440(4)
C3 C 0.1241(5) 0.3590(10) 0.5059(3)
C4 C 0.1847(5) 0.5265(11) 0.5532(4)
C5 C 0.2526(5) 0.4935(10) 0.6331(4)
C6 C 0.0643(5) 0.3950(10) 0.4126(4)
O1A O 0.6641(3) 0.2531(7) 0.7582(2)
O2A O 0.9717(3) 0.2228(7) 1.1282(2)
O3A O 0.9366(4) 0.5771(8) 1.1152(3)
N1A N 0.7385(4) 0.2924(9) 0.8340(3)
C1A C 0.8024(5) 0.1297(11) 0.8750(4)
C2A C 0.8683(5) 0.1593(11) 0.9560(4)
C3A C 0.8759(5) 0.3590(10) 0.9941(3)
C4A C 0.8153(5) 0.5265(11) 0.9468(4)
C5A C 0.7474(5) 0.4935(10) 0.8669(4)
C6A C 0.9357(5) 0.3950(10) 1.0874(4)
O2F O 0.4717(3) 0.2772(7) 0.6282(2)
O2G O 0.5283(3) 0.2772(7) 0.8718(2)
Cu1F Cu 0.0000 0.2194(2) 0.2500
Cu1F_2 Cu 1.0000 0.2194(2) 1.2500
loop_
_geom_bond_atom_site_label_1
_geom_bond_atom_site_label_2
_geom_bond_site_symmetry_1
_geom_bond_site_symmetry_2
Cu1 O1 1_555 1_555
O1 N1 1_555 1_555
O2 C6 1_555 1_555
O3 C6 1_555 1_555
O4 Cu1 1_555 1_555
N1 C1 1_555 1_555
C1 C2 1_555 1_555
C2 C3 1_555 1_555
C3 C4 1_555 1_555
C4 C5 1_555 1_555
C5 N1 1_555 1_555
C6 C3 1_555 1_555
O1A Cu1 1_555 1_555
O2A C6A 1_555 1_555
O3A C6A 1_555 1_555
N1A O1A 1_555 1_555
C1A N1A 1_555 1_555
C2A C1A 1_555 1_555
C3A C2A 1_555 1_555
C4A C3A 1_555 1_555
C5A N1A 1_555 1_555
C6A C3A 1_555 1_555
O2F Cu1 1_555 1_555
O2G Cu1 1_555 1_555
Cu1F O2 1_555 1_555
Cu1F_2 O2A 1_555 1_555
C4A C5A 1_555 1_555

#END
