
#######################################################################
#
#                 Cambridge Crystallographic Data Centre
#                                CCDC 
#
#######################################################################
#
# If this CIF has been generated from an entry in the Cambridge 
# Structural Database, then it will include bibliographic, chemical, 
# crystal, experimental, refinement or atomic coordinate data resulting 
# from the CCDC's data processing and validation procedures.
#
#######################################################################

data_BEJNOV
_symmetry_cell_setting           orthorhombic
_symmetry_space_group_name_H-M   'P n m a'
_symmetry_Int_Tables_number      62
_space_group_name_Hall           '-P 2ac 2n'
loop_
_symmetry_equiv_pos_site_id
_symmetry_equiv_pos_as_xyz
1 x,y,z
2 1/2-x,-y,1/2+z
3 -x,1/2+y,-z
4 1/2+x,1/2-y,1/2-z
5 -x,-y,-z
6 1/2+x,y,1/2-z
7 x,1/2-y,z
8 1/2-x,1/2+y,1/2+z
_cell_length_a                   8.5743(10)
_cell_length_b                   14.2503(17)
_cell_length_c                   13.7914(16)
_cell_angle_alpha                90
_cell_angle_beta                 90
_cell_angle_gamma                90
_cell_volume                     1685.12
loop_
_atom_site_label
_atom_site_type_symbol
_atom_site_fract_x
_atom_site_fract_y
_atom_site_fract_z
Na1 Na -0.0695(3) 0.2500 -0.71244(17)
Ir1 Ir 0.26863(2) 0.2500 -0.542520(15)
Cl1 Cl 0.17395(14) 0.36391(7) -0.65150(8)
Cl2 Cl 0.04208(16) 0.2500 -0.44977(13)
N1 N 0.3683(3) 0.3507(2) -0.4570(2)
N2 N 0.5197(3) 0.3332(2) -0.4294(2)
C1 C 0.3311(5) 0.4337(3) -0.4182(3)
C2 C 0.4605(4) 0.4683(3) -0.3673(3)
H1 H 0.4660 0.5266 -0.3341
C3 C 0.5770(4) 0.4037(3) -0.3739(3)
C4 C 0.5962(6) 0.2500 -0.4650(4)
H2 H 0.7058 0.2500 -0.4402
C5 C 0.6024(7) 0.2500 -0.5768(4)
O1 O 0.7309(5) 0.2500 -0.6152(4)
O2 O 0.4722(5) 0.2500 -0.6218(3)
C6 C 0.1757(5) 0.4783(3) -0.4291(3)
H3 H 0.1296 0.4594 -0.4912
H4 H 0.1871 0.5467 -0.4274
H5 H 0.1076 0.4581 -0.3759
C7 C 0.7331(4) 0.3974(3) -0.3302(4)
H6 H 0.7603 0.4578 -0.3007
H7 H 0.8097 0.3818 -0.3804
H8 H 0.7334 0.3485 -0.2802
Na1C Na 0.4305(3) 0.2500 -0.78756(17)
Na1_2 Na 0.9305(3) 0.2500 -0.71244(17)
Cl1C Cl -0.32605(14) 0.13609(7) -0.84850(8)
Cl1E Cl -0.32605(14) 0.36391(7) -0.84850(8)
Cl1F Cl 0.17395(14) 0.13609(7) -0.65150(8)
N1F N 0.3683(3) 0.1493(2) -0.4570(2)
N2F N 0.5197(3) 0.1668(2) -0.4294(2)
C1F C 0.3311(5) 0.0663(3) -0.4182(3)
C2F C 0.4605(4) 0.0317(3) -0.3673(3)
H1F H 0.4660 -0.0266 -0.3341
C3F C 0.5770(4) 0.0963(3) -0.3739(3)
O1_2 O -0.2691(5) 0.2500 -0.6152(4)
O2C O -0.0278(5) 0.2500 -0.8782(3)
C6F C 0.1757(5) 0.0217(3) -0.4291(3)
H3F H 0.1296 0.0406 -0.4912
H4F H 0.1871 -0.0467 -0.4274
H5F H 0.1076 0.0419 -0.3759
C7F C 0.7331(4) 0.1026(3) -0.3302(4)
H6F H 0.7603 0.0422 -0.3007
H7F H 0.8097 0.1182 -0.3804
H8F H 0.7334 0.1515 -0.2802
loop_
_geom_bond_atom_site_label_1
_geom_bond_atom_site_label_2
_geom_bond_site_symmetry_1
_geom_bond_site_symmetry_2
Na1 Cl1 1_555 1_555
Ir1 Cl1 1_555 1_555
Cl1 Na1C 1_555 1_555
Cl2 Ir1 1_555 1_555
N1 Ir1 1_555 1_555
N2 N1 1_555 1_555
C1 N1 1_555 1_555
C2 C1 1_555 1_555
H1 C2 1_555 1_555
C3 N2 1_555 1_555
C4 N2 1_555 1_555
H2 C4 1_555 1_555
C5 C4 1_555 1_555
O1 C5 1_555 1_555
O2 Ir1 1_555 1_555
C6 C1 1_555 1_555
H3 C6 1_555 1_555
H4 C6 1_555 1_555
H5 C6 1_555 1_555
C7 C3 1_555 1_555
H6 C7 1_555 1_555
H7 C7 1_555 1_555
H8 C7 1_555 1_555
Na1C O2 1_555 1_555
Na1_2 O1 1_555 1_555
Cl1C Na1 1_555 1_555
Cl1E Na1 1_555 1_555
Cl1F Na1 1_555 1_555
N1F Ir1 1_555 1_555
N2F C4 1_555 1_555
C1F N1F 1_555 1_555
C2F C1F 1_555 1_555
H1F C2F 1_555 1_555
C3F N2F 1_555 1_555
O1_2 Na1 1_555 1_555
O2C Na1 1_555 1_555
C6F C1F 1_555 1_555
H3F C6F 1_555 1_555
H4F C6F 1_555 1_555
H5F C6F 1_555 1_555
C7F C3F 1_555 1_555
H6F C7F 1_555 1_555
H7F C7F 1_555 1_555
H8F C7F 1_555 1_555
Ir1 Cl1F 1_555 1_555
C2 C3 1_555 1_555
C5 O2 1_555 1_555
Na1C Cl1F 1_555 1_555
N1F N2F 1_555 1_555
C2F C3F 1_555 1_555

#END
