
#######################################################################
#
#                 Cambridge Crystallographic Data Centre
#                                CCDC 
#
#######################################################################
#
# If this CIF has been generated from an entry in the Cambridge 
# Structural Database, then it will include bibliographic, chemical, 
# crystal, experimental, refinement or atomic coordinate data resulting 
# from the CCDC's data processing and validation procedures.
#
#######################################################################

data_BEJZOF
_symmetry_cell_setting           monoclinic
_symmetry_space_group_name_H-M   'I a'
_symmetry_Int_Tables_number      9
_space_group_name_Hall           'I -2ya'
loop_
_symmetry_equiv_pos_site_id
_symmetry_equiv_pos_as_xyz
1 x,y,z
2 1/2+x,-y,z
3 1/2+x,1/2+y,1/2+z
4 x,1/2-y,1/2+z
_cell_length_a                   7.248(5)
_cell_length_b                   17.862(5)
_cell_length_c                   8.534(5)
_cell_angle_alpha                90
_cell_angle_beta                 110.91(3)
_cell_angle_gamma                90
_cell_volume                     1032.08
loop_
_atom_site_label
_atom_site_type_symbol
_atom_site_fract_x
_atom_site_fract_y
_atom_site_fract_z
Cu1 Cu 0.83991(11) 0.04808(6) 0.67408(10)
Cl1 Cl 0.6042(3) -0.03564(13) 0.5228(3)
Cl2 Cl 0.6776(4) 0.14538(14) 0.5154(3)
N1 N 0.9976(10) 0.1146(4) 0.8700(9)
N2 N 0.9832(12) -0.0307(4) 0.8459(10)
C1 C 0.9996(15) 0.1896(6) 0.8740(13)
H1 H 0.9250(15) 0.2153(6) 0.7773(13)
C2 C 1.1045(18) 0.2301(6) 1.0113(14)
H2 H 1.1008(18) 0.2821(6) 1.0089(14)
C3 C 1.2187(17) 0.1917(6) 1.1569(14)
H3 H 1.2938(17) 0.2178(6) 1.2526(14)
C4 C 1.2180(15) 0.1154(6) 1.1559(13)
H4 H 1.2941(15) 0.0890(6) 1.2510(13)
C5 C 1.1039(14) 0.0772(5) 1.0133(11)
C6 C 1.0916(13) -0.0044(5) 0.9983(10)
C7 C 1.1934(16) -0.0520(5) 1.1297(11)
H5 H 1.2695(16) -0.0327(5) 1.2340(11)
C8 C 1.1802(16) -0.1275(6) 1.1033(12)
H6 H 1.2432(16) -0.1604(6) 1.1906(12)
C9 C 1.0703(17) -0.1549(5) 0.9431(13)
H7 H 1.0623(17) -0.2060(5) 0.9209(13)
C10 C 0.9753(15) -0.1046(5) 0.8208(12)
H8 H 0.9015(15) -0.1226(5) 0.7146(12)
Cl1A Cl 1.1042(3) 0.03564(13) 0.5228(3)
Cu1A Cu 0.33991(11) -0.04808(6) 0.67408(10)
loop_
_geom_bond_atom_site_label_1
_geom_bond_atom_site_label_2
_geom_bond_site_symmetry_1
_geom_bond_site_symmetry_2
Cu1 Cl1 1_555 1_555
Cl1 Cu1A 1_555 1_555
Cl2 Cu1 1_555 1_555
N1 Cu1 1_555 1_555
N2 Cu1 1_555 1_555
C1 N1 1_555 1_555
H1 C1 1_555 1_555
C2 C1 1_555 1_555
H2 C2 1_555 1_555
C3 C2 1_555 1_555
H3 C3 1_555 1_555
C4 C3 1_555 1_555
H4 C4 1_555 1_555
C5 N1 1_555 1_555
C6 N2 1_555 1_555
C7 C6 1_555 1_555
H5 C7 1_555 1_555
C8 C7 1_555 1_555
H6 C8 1_555 1_555
C9 C8 1_555 1_555
H7 C9 1_555 1_555
C10 N2 1_555 1_555
H8 C10 1_555 1_555
Cl1A Cu1 1_555 1_555
C4 C5 1_555 1_555
C5 C6 1_555 1_555
C9 C10 1_555 1_555

#END
