
#######################################################################
#
#                 Cambridge Crystallographic Data Centre
#                                CCDC 
#
#######################################################################
#
# If this CIF has been generated from an entry in the Cambridge 
# Structural Database, then it will include bibliographic, chemical, 
# crystal, experimental, refinement or atomic coordinate data resulting 
# from the CCDC's data processing and validation procedures.
#
#######################################################################

data_BEJZIA
_symmetry_cell_setting           monoclinic
_symmetry_space_group_name_H-M   'P 21/c'
_symmetry_Int_Tables_number      14
_space_group_name_Hall           '-P 2ybc'
loop_
_symmetry_equiv_pos_site_id
_symmetry_equiv_pos_as_xyz
1 x,y,z
2 -x,1/2+y,1/2-z
3 -x,-y,-z
4 x,1/2-y,1/2+z
_cell_length_a                   15.780(3)
_cell_length_b                   10.338(2)
_cell_length_c                   19.887(4)
_cell_angle_alpha                90
_cell_angle_beta                 112.79(3)
_cell_angle_gamma                90
_cell_volume                     2990.96
loop_
_atom_site_label
_atom_site_type_symbol
_atom_site_fract_x
_atom_site_fract_y
_atom_site_fract_z
Mn1 Mn 0.6179(1) 0.8334(1) 0.8598(1)
O1 O 0.5859(3) 0.7518(5) 0.7403(3)
O2 O 0.7135(3) 0.6812(6) 0.8250(3)
O3 O 0.4566(4) 0.4750(5) 0.6010(3)
O4 O 0.5584(4) 0.4243(5) 0.7091(3)
N1 N 0.5424(4) 0.6624(6) 0.8784(3)
N2 N 0.4700(4) 0.4712(6) 0.8527(3)
N3 N 0.7288(4) 0.8053(6) 0.9695(3)
N4 N 0.8369(4) 0.6991(6) 1.0591(3)
N5 N 0.6756(4) 1.0114(7) 0.8235(3)
N6 N 0.6590(4) 1.2083(6) 0.7742(3)
C1 C 0.6580(6) 0.6891(8) 0.7588(4)
C2 C 0.6828(5) 0.6133(8) 0.7035(4)
C3 C 0.6010(5) 0.5739(8) 0.6354(4)
C4 C 0.5358(6) 0.4834(8) 0.6514(5)
C5 C 0.5318(5) 0.5529(8) 0.8430(4)
C6 C 0.4826(5) 0.6511(8) 0.9148(4)
C7 C 0.4373(5) 0.5350(8) 0.8986(4)
C8 C 0.3731(6) 0.4979(10) 0.9272(5)
C9 C 0.3586(6) 0.5856(11) 0.9729(6)
C10 C 0.4034(7) 0.7036(9) 0.9898(5)
C11 C 0.4677(6) 0.7389(8) 0.9619(4)
C12 C 0.7696(5) 0.6955(8) 0.9919(4)
C13 C 0.8402(5) 0.8235(9) 1.0820(4)
C14 C 0.7724(5) 0.8920(8) 1.0265(4)
C15 C 0.7607(6) 1.0213(9) 1.0324(5)
C16 C 0.8177(7) 1.0848(10) 1.0936(6)
C17 C 0.8851(7) 1.0176(11) 1.1490(5)
C18 C 0.8989(5) 0.8895(11) 1.1446(5)
C19 C 0.6306(6) 1.1231(8) 0.8111(4)
C20 C 0.7388(5) 1.0274(8) 0.7910(4)
C21 C 0.7295(5) 1.1495(9) 0.7605(4)
C22 C 0.7807(6) 1.1928(9) 0.7227(4)
C23 C 0.8446(6) 1.1115(11) 0.7163(5)
C24 C 0.8569(6) 0.9888(11) 0.7476(5)
C25 C 0.8060(6) 0.9451(9) 0.7859(5)
O3A O 0.5434(4) 0.9750(5) 0.8990(3)
Mn1A Mn 0.3821(1) 0.3334(1) 0.6402(1)
N7 N 0.9679(5) 0.4961(7) 1.0955(4)
N8 N 1.0986(4) 0.3871(7) 1.1216(4)
C26 C 1.0573(7) 0.4898(9) 1.1372(5)
C27 C 0.9526(5) 0.3896(8) 1.0500(5)
C28 C 1.0331(5) 0.3198(9) 1.0663(4)
C29 C 1.0379(6) 0.2092(8) 1.0290(5)
C30 C 0.9567(7) 0.1726(9) 0.9724(5)
C31 C 0.8746(6) 0.2414(10) 0.9552(5)
C32 C 0.8727(5) 0.3477(10) 0.9932(5)
loop_
_geom_bond_atom_site_label_1
_geom_bond_atom_site_label_2
_geom_bond_site_symmetry_1
_geom_bond_site_symmetry_2
Mn1 O1 1_555 1_555
O1 C1 1_555 1_555
O2 Mn1 1_555 1_555
O3 C4 1_555 1_555
O4 C4 1_555 1_555
N1 Mn1 1_555 1_555
N2 C5 1_555 1_555
N3 Mn1 1_555 1_555
N4 C12 1_555 1_555
N5 Mn1 1_555 1_555
N6 C19 1_555 1_555
N7 C26 1_555 1_555
N8 C26 1_555 1_555
C1 O2 1_555 1_555
C2 C1 1_555 1_555
C3 C2 1_555 1_555
C4 C3 1_555 1_555
C5 N1 1_555 1_555
C6 N1 1_555 1_555
C7 N2 1_555 1_555
C8 C7 1_555 1_555
C9 C8 1_555 1_555
C10 C9 1_555 1_555
C11 C6 1_555 1_555
C12 N3 1_555 1_555
C13 N4 1_555 1_555
C14 N3 1_555 1_555
C15 C14 1_555 1_555
C16 C15 1_555 1_555
C17 C16 1_555 1_555
C18 C13 1_555 1_555
C19 N5 1_555 1_555
C20 N5 1_555 1_555
C21 N6 1_555 1_555
C22 C21 1_555 1_555
C23 C22 1_555 1_555
C24 C23 1_555 1_555
C25 C20 1_555 1_555
C27 N7 1_555 1_555
C28 N8 1_555 1_555
C29 C28 1_555 1_555
C30 C29 1_555 1_555
C31 C30 1_555 1_555
C32 C27 1_555 1_555
O3A Mn1 1_555 1_555
Mn1A O3 1_555 1_555
C6 C7 1_555 1_555
C10 C11 1_555 1_555
C13 C14 1_555 1_555
C17 C18 1_555 1_555
C20 C21 1_555 1_555
C24 C25 1_555 1_555
C27 C28 1_555 1_555
C31 C32 1_555 1_555

#END
