
#######################################################################
#
#                 Cambridge Crystallographic Data Centre
#                                CCDC 
#
#######################################################################
#
# If this CIF has been generated from an entry in the Cambridge 
# Structural Database, then it will include bibliographic, chemical, 
# crystal, experimental, refinement or atomic coordinate data resulting 
# from the CCDC's data processing and validation procedures.
#
#######################################################################

data_BEKDUR01
_symmetry_cell_setting           monoclinic
_symmetry_space_group_name_H-M   'P 21/c'
_symmetry_Int_Tables_number      14
_space_group_name_Hall           '-P 2ybc'
loop_
_symmetry_equiv_pos_site_id
_symmetry_equiv_pos_as_xyz
1 x,y,z
2 x,1/2-y,1/2+z
3 -x,-y,-z
4 -x,1/2+y,1/2-z
_cell_length_a                   5.536(4)
_cell_length_b                   16.555(8)
_cell_length_c                   16.677(8)
_cell_angle_alpha                90
_cell_angle_beta                 95.475(13)
_cell_angle_gamma                90
_cell_volume                     1521.45
loop_
_atom_site_label
_atom_site_type_symbol
_atom_site_fract_x
_atom_site_fract_y
_atom_site_fract_z
Ag1 Ag -0.53769(9) 0.64971(3) 0.26457(3)
N1 N -0.2485(8) 0.6586(3) 0.1865(2)
N2 N 0.3269(8) 0.8293(3) 0.0671(2)
N3 N 0.3416(8) 0.9135(3) 0.0625(2)
N4 N -0.1748(8) 1.1211(3) 0.1615(2)
O1 O 0.0209(6) 0.8818(2) 0.12450(19)
C1 C -0.1552(10) 0.7289(3) 0.1672(3)
H1 H -0.2247 0.7759 0.1851
C2 C 0.0411(9) 0.7358(3) 0.1218(3)
C3 C 0.1392(11) 0.6660(3) 0.0950(3)
H2 H 0.2708 0.6680 0.0643
C4 C 0.0416(12) 0.5936(4) 0.1138(4)
H3 H 0.1060 0.5456 0.0961
C5 C -0.1525(12) 0.5922(3) 0.1591(3)
H4 H -0.2191 0.5425 0.1711
C6 C 0.1399(9) 0.8142(3) 0.1042(3)
C7 C 0.1591(9) 0.9414(3) 0.0973(3)
C8 C -0.1037(9) 1.0445(3) 0.1511(3)
H5 H -0.1873 1.0031 0.1741
C9 C 0.0880(9) 1.0247(3) 0.1077(3)
C10 C 0.2137(10) 1.0862(3) 0.0736(3)
H6 H 0.3434 1.0748 0.0438
C11 C 0.1424(10) 1.1641(3) 0.0847(3)
H7 H 0.2239 1.2066 0.0627
C12 C -0.0499(10) 1.1794(3) 0.1286(3)
H8 H -0.0954 1.2328 0.1358
N4C N -0.8252(8) 0.6211(3) 0.3385(2)
Ag1C Ag -0.46231(9) 1.14971(3) 0.23543(3)
S1 S 0.5448(3) 0.87916(9) 0.30250(9)
O2 O 0.4055(8) 0.8103(2) 0.2767(2)
O3 O 0.7983(8) 0.8671(3) 0.3094(3)
O4 O 0.4650(9) 0.9524(3) 0.2657(2)
C13 C 0.4812(13) 0.8914(4) 0.4061(4)
F1 F 0.5364(9) 0.8272(3) 0.4496(2)
F2 F 0.2499(7) 0.9050(2) 0.4138(2)
F3 F 0.5951(9) 0.9522(3) 0.4407(2)
loop_
_geom_bond_atom_site_label_1
_geom_bond_atom_site_label_2
_geom_bond_site_symmetry_1
_geom_bond_site_symmetry_2
Ag1 N1 1_555 1_555
N1 C1 1_555 1_555
N2 N3 1_555 1_555
N3 C7 1_555 1_555
N4 C8 1_555 1_555
O1 C6 1_555 1_555
C1 H1 1_555 1_555
C2 C1 1_555 1_555
C3 C2 1_555 1_555
H2 C3 1_555 1_555
C4 C3 1_555 1_555
H3 C4 1_555 1_555
C5 N1 1_555 1_555
H4 C5 1_555 1_555
C6 N2 1_555 1_555
C7 O1 1_555 1_555
C8 H5 1_555 1_555
C9 C7 1_555 1_555
C10 C9 1_555 1_555
H6 C10 1_555 1_555
C11 C10 1_555 1_555
H7 C11 1_555 1_555
C12 N4 1_555 1_555
H8 C12 1_555 1_555
S1 O2 1_555 1_555
O3 S1 1_555 1_555
O4 S1 1_555 1_555
C13 S1 1_555 1_555
F1 C13 1_555 1_555
F2 C13 1_555 1_555
F3 C13 1_555 1_555
N4C Ag1 1_555 1_555
Ag1C N4 1_555 1_555
C2 C6 1_555 1_555
C4 C5 1_555 1_555
C8 C9 1_555 1_555
C11 C12 1_555 1_555

#END
