
#######################################################################
#
#                 Cambridge Crystallographic Data Centre
#                                CCDC 
#
#######################################################################
#
# If this CIF has been generated from an entry in the Cambridge 
# Structural Database, then it will include bibliographic, chemical, 
# crystal, experimental, refinement or atomic coordinate data resulting 
# from the CCDC's data processing and validation procedures.
#
#######################################################################

data_BEKQIS
_symmetry_cell_setting           monoclinic
_symmetry_space_group_name_H-M   'C c'
_symmetry_Int_Tables_number      9
_space_group_name_Hall           'C -2yc'
loop_
_symmetry_equiv_pos_site_id
_symmetry_equiv_pos_as_xyz
1 x,y,z
2 x,-y,1/2+z
3 1/2+x,1/2+y,z
4 1/2+x,1/2-y,1/2+z
_cell_length_a                   20.5629(9)
_cell_length_b                   14.1736(6)
_cell_length_c                   9.7736(4)
_cell_angle_alpha                90
_cell_angle_beta                 91.9980(10)
_cell_angle_gamma                90
_cell_volume                     2846.79
loop_
_atom_site_label
_atom_site_type_symbol
_atom_site_fract_x
_atom_site_fract_y
_atom_site_fract_z
Eu1 Eu 0.35631(7) 0.49211(3) 0.26409(11)
C1 C 0.2002(8) 0.8866(11) 0.5318(19)
H1 H 0.1794 0.9379 0.5704
C2 C 0.2094(8) 0.8793(14) 0.3940(18)
H2 H 0.1916 0.9213 0.3299
C3 C 0.2493(6) 0.8001(8) 0.3579(12)
H3 H 0.2636 0.7848 0.2714
C4 C 0.2631(6) 0.7480(9) 0.4876(11)
C5 C 0.3013(5) 0.6605(7) 0.5018(11)
C6 C 0.0712(9) 0.3752(19) 0.494(3)
H4 H 0.0302 0.3600 0.4571
C7 C 0.0838(10) 0.3853(15) 0.639(2)
H5 H 0.0510 0.3819 0.7025
C8 C 0.1500(5) 0.4011(7) 0.6786(11)
H6 H 0.1690 0.4060 0.7661
C9 C 0.1829(7) 0.4080(12) 0.5379(15)
C10 C 0.2505(7) 0.4290(11) 0.5164(13)
C11 C 0.3695(7) 0.0047(7) 0.4367(14)
H7 H 0.3745 -0.0600 0.4484
C12 C 0.3314(13) 0.055(2) 0.512(3)
H8 H 0.3060 0.0269 0.5774
C13 C 0.3305(4) 0.1528(7) 0.4886(8)
H9 H 0.3072 0.1994 0.5327
C14 C 0.3789(7) 0.1629(10) 0.3690(15)
C15 C 0.3959(7) 0.2542(9) 0.3075(13)
C16 C 0.6422(12) 0.3544(17) 0.034(2)
H10 H 0.6798 0.3270 0.0720
C17 C 0.6385(11) 0.3809(17) -0.082(2)
H11 H 0.6729 0.3708 -0.1397
C18 C 0.5737(3) 0.4340(6) -0.1382(7)
H12 H 0.5620 0.4622 -0.2214
C19 C 0.5359(7) 0.4199(12) 0.0055(15)
C20 C 0.4663(7) 0.4514(12) 0.0260(14)
C21 C 0.5636(9) 0.8620(12) 0.0334(19)
H13 H 0.5876 0.9148 0.0097
C22 C 0.5734(7) 0.7799(12) -0.0203(17)
H14 H 0.6044 0.7710 -0.0862
C23 C 0.5324(6) 0.7002(8) 0.0287(12)
H15 H 0.5334 0.6366 0.0055
C24 C 0.4889(6) 0.7513(8) 0.1264(12)
C25 C 0.4392(6) 0.7033(9) 0.2029(12)
O1 O 0.3337(4) 0.6343(6) 0.4017(8)
O2 O 0.3004(5) 0.6188(6) 0.6173(8)
O3 O 0.2672(5) 0.4538(8) 0.3991(10)
O4 O 0.2899(5) 0.4210(7) 0.6150(10)
O5 O 0.3741(5) 0.3282(6) 0.3515(9)
O6 O 0.4334(6) 0.2469(8) 0.2043(13)
H16 H 0.4408 0.1910 0.1896
O7 O 0.4407(5) 0.4239(7) 0.1346(10)
O8 O 0.4411(5) 0.5000(6) -0.0668(11)
O9 O 0.4283(4) 0.6204(6) 0.1912(9)
O10 O 0.4083(6) 0.7574(8) 0.2898(14)
H17 H 0.3715 0.7369 0.2995
S1 S 0.2292(3) 0.7968(4) 0.6245(5)
S2 S 0.1297(2) 0.3910(4) 0.4038(5)
S3 S 0.4076(4) 0.0631(5) 0.3211(9)
S4 S 0.5769(5) 0.3694(8) 0.1221(12)
S5 S 0.5067(3) 0.8673(5) 0.1451(6)
O2A O 0.3004(5) 0.3812(6) 0.1173(8)
O4A O 0.2899(5) 0.5790(7) 0.1150(10)
O8A O 0.4411(5) 0.5000(6) 0.4332(11)
Eu1A Eu 0.35631(7) 0.50789(3) 0.76409(11)
Eu1A_2 Eu 0.35631(7) 0.50789(3) -0.23591(11)
loop_
_geom_bond_atom_site_label_1
_geom_bond_atom_site_label_2
_geom_bond_site_symmetry_1
_geom_bond_site_symmetry_2
Eu1 O1 1_555 1_555
C1 H1 1_555 1_555
C2 C1 1_555 1_555
H2 C2 1_555 1_555
C3 C2 1_555 1_555
H3 C3 1_555 1_555
C4 C3 1_555 1_555
C5 C4 1_555 1_555
C6 H4 1_555 1_555
C7 C6 1_555 1_555
H5 C7 1_555 1_555
C8 C7 1_555 1_555
H6 C8 1_555 1_555
C9 C8 1_555 1_555
C10 C9 1_555 1_555
C11 H7 1_555 1_555
C12 C11 1_555 1_555
H8 C12 1_555 1_555
C13 C12 1_555 1_555
H9 C13 1_555 1_555
C14 C13 1_555 1_555
C15 C14 1_555 1_555
C16 H10 1_555 1_555
C17 C16 1_555 1_555
H11 C17 1_555 1_555
C18 C17 1_555 1_555
H12 C18 1_555 1_555
C19 C18 1_555 1_555
C20 C19 1_555 1_555
C21 H13 1_555 1_555
C22 C21 1_555 1_555
H14 C22 1_555 1_555
C23 C22 1_555 1_555
H15 C23 1_555 1_555
C24 C23 1_555 1_555
C25 C24 1_555 1_555
O1 C5 1_555 1_555
O2 C5 1_555 1_555
O3 Eu1 1_555 1_555
O4 C10 1_555 1_555
O5 Eu1 1_555 1_555
O6 C15 1_555 1_555
H16 O6 1_555 1_555
O7 Eu1 1_555 1_555
O8 C20 1_555 1_555
O9 Eu1 1_555 1_555
O10 C25 1_555 1_555
H17 O10 1_555 1_555
S1 C1 1_555 1_555
S2 C6 1_555 1_555
S3 C11 1_555 1_555
S4 C16 1_555 1_555
S5 C21 1_555 1_555
O2A Eu1 1_555 1_555
O4A Eu1 1_555 1_555
O8A Eu1 1_555 1_555
Eu1A O2 1_555 1_555
Eu1A_2 O8 1_555 1_555
C4 S1 1_555 1_555
C9 S2 1_555 1_555
C10 O3 1_555 1_555
C14 S3 1_555 1_555
C15 O5 1_555 1_555
C19 S4 1_555 1_555
C20 O7 1_555 1_555
C24 S5 1_555 1_555
C25 O9 1_555 1_555
O4 Eu1A 1_555 1_555

#END
