
#######################################################################
#
#                 Cambridge Crystallographic Data Centre
#                                CCDC 
#
#######################################################################
#
# If this CIF has been generated from an entry in the Cambridge 
# Structural Database, then it will include bibliographic, chemical, 
# crystal, experimental, refinement or atomic coordinate data resulting 
# from the CCDC's data processing and validation procedures.
#
#######################################################################

data_BEKROZ
_symmetry_cell_setting           orthorhombic
_symmetry_space_group_name_H-M   'P b c m'
_symmetry_Int_Tables_number      57
_space_group_name_Hall           '-P 2c 2b'
loop_
_symmetry_equiv_pos_site_id
_symmetry_equiv_pos_as_xyz
1 x,y,z
2 -x,1/2+y,z
3 x,1/2-y,1/2+z
4 x,y,1/2-z
5 -x,-y,-z
6 x,1/2-y,-z
7 -x,1/2+y,1/2-z
8 -x,-y,1/2+z
_cell_length_a                   6.7796(1)
_cell_length_b                   17.2821(4)
_cell_length_c                   24.6754(6)
_cell_angle_alpha                90
_cell_angle_beta                 90
_cell_angle_gamma                90
_cell_volume                     2891.11
loop_
_atom_site_label
_atom_site_type_symbol
_atom_site_fract_x
_atom_site_fract_y
_atom_site_fract_z
U1 U 0.08796(4) 0.716751(17) 0.33042(1)
U2 U -0.08929(7) 0.7500 0.5000
P1 P -0.4089(3) 0.68682(12) 0.38783(7)
F1 F -0.094(1) 0.7353(4) 0.2500
F2 F 0.2789(11) 0.7382(4) 0.2500
F3 F 0.0443(7) 0.7001(3) 0.42115(17)
O1 O 0.0609(9) 0.8181(3) 0.3392(2)
O2 O 0.1131(9) 0.6161(4) 0.3171(2)
O3 O -0.2473(9) 0.6935(4) 0.3442(2)
O4 O -0.083(1) 0.6549(4) 0.5257(2)
O5 O 0.2766(14) 0.7500 0.5000
O6 O -0.6014(9) 0.7205(3) 0.3649(2)
O7 O -0.3558(8) 0.7267(3) 0.4409(2)
C1 C -0.4428(13) 0.5861(5) 0.4032(3)
C2 C -0.6211(14) 0.5599(5) 0.4264(4)
C3 C -0.2912(15) 0.5329(6) 0.3969(4)
C5 C -0.492(2) 0.4327(6) 0.4342(4)
C7 C -0.6443(16) 0.4846(6) 0.4419(4)
C8 C -0.3165(19) 0.4559(7) 0.4126(4)
H1 H 0.3574 0.7656 0.5249
H4 H -0.7323 0.5974 0.4317
H5 H -0.1628 0.5495 0.3809
H6 H -0.5108 0.3773 0.4445
H7 H -0.7711 0.4671 0.4586
H8 H -0.2077 0.4184 0.4083
H1E H 0.3574 0.7344 0.4751
F3E F 0.0443(7) 0.7999(3) 0.57885(17)
O4E O -0.083(1) 0.8451(4) 0.4743(2)
P1E P -0.4089(3) 0.81318(12) 0.61217(7)
O3E O -0.2473(9) 0.8065(4) 0.6558(2)
O6E O -0.6014(9) 0.7795(3) 0.6351(2)
O7E O -0.3558(8) 0.7733(3) 0.5591(2)
C1E C -0.4428(13) 0.9139(5) 0.5968(3)
C2E C -0.6211(14) 0.9401(5) 0.5736(4)
C3E C -0.2912(15) 0.9671(6) 0.6031(4)
C5E C -0.492(2) 1.0673(6) 0.5658(4)
C7E C -0.6443(16) 1.0154(6) 0.5581(4)
C8E C -0.3165(19) 1.0441(7) 0.5874(4)
H4E H -0.7323 0.9026 0.5683
H5E H -0.1628 0.9505 0.6191
H6E H -0.5108 1.1227 0.5555
H7E H -0.7711 1.0329 0.5414
H8E H -0.2077 1.0816 0.5917
U1E U 0.08796(4) 0.783249(17) 0.66958(1)
O1E O 0.0609(9) 0.6819(3) 0.6608(2)
O2E O 0.1131(9) 0.8839(4) 0.6829(2)
O6_2 O 0.3986(9) 0.7205(3) 0.3649(2)
U1C U 0.08796(4) 0.716751(17) 0.16958(1)
U1_2 U -0.91204(4) 0.716751(17) 0.33042(1)
U1E_2 U -0.91204(4) 0.783249(17) 0.66958(1)
F1B F -0.094(1) 0.7647(4) 0.7500
F2B F 0.2789(11) 0.7618(4) 0.7500
O6E_2 O 0.3986(9) 0.7795(3) 0.6351(2)
O8 O 0.6335(15) 0.5985(7) 0.2500
O9 O 0.142(3) 0.9751(13) 0.2500
N1 N -0.2983(16) 0.9950(6) 0.2500
N2 N -0.4117(16) 0.8347(6) 0.2500
C4 C -0.431(2) 0.8823(6) 0.2002(4)
C6 C -0.284(2) 0.9464(6) 0.1996(4)
H2 H -0.2038 1.0433 0.2500
H3 H -0.4194 1.0151 0.2500
H9 H -0.5005 0.8070 0.2500
H10 H -0.3070 0.8125 0.2500
H11 H -0.5676 0.9048 0.1987
H12 H -0.4104 0.8487 0.1676
H13 H -0.3082 0.9800 0.1673
H14 H -0.1486 0.9237 0.1974
C4C C -0.431(2) 0.8823(6) 0.2998(4)
C6C C -0.284(2) 0.9464(6) 0.3004(4)
H13C H -0.3082 0.9800 0.3327
H14C H -0.1486 0.9237 0.3026
H11C H -0.5676 0.9048 0.3013
H12C H -0.4104 0.8487 0.3324
loop_
_geom_bond_atom_site_label_1
_geom_bond_atom_site_label_2
_geom_bond_site_symmetry_1
_geom_bond_site_symmetry_2
U1 F1 1_555 1_555
U2 F3 1_555 1_555
P1 O3 1_555 1_555
F1 U1C 1_555 1_555
F2 U1 1_555 1_555
F3 U1 1_555 1_555
O1 U1 1_555 1_555
O2 U1 1_555 1_555
O3 U1 1_555 1_555
O4 U2 1_555 1_555
O5 U2 1_555 1_555
O6 P1 1_555 1_555
O7 U2 1_555 1_555
N1 C6 1_555 1_555
N2 C4 1_555 1_555
C1 P1 1_555 1_555
C2 C1 1_555 1_555
C3 C1 1_555 1_555
C4 C6 1_555 1_555
C5 C7 1_555 1_555
C6 H13 1_555 1_555
C7 C2 1_555 1_555
C8 C3 1_555 1_555
H1 O5 1_555 1_555
H2 N1 1_555 1_555
H3 N1 1_555 1_555
H4 C2 1_555 1_555
H5 C3 1_555 1_555
H6 C5 1_555 1_555
H7 C7 1_555 1_555
H8 C8 1_555 1_555
H9 N2 1_555 1_555
H10 N2 1_555 1_555
H11 C4 1_555 1_555
H12 C4 1_555 1_555
H14 C6 1_555 1_555
H1E O5 1_555 1_555
C4C N2 1_555 1_555
C6C N1 1_555 1_555
H13C C6C 1_555 1_555
H14C C6C 1_555 1_555
H11C C4C 1_555 1_555
H12C C4C 1_555 1_555
F3E U2 1_555 1_555
O4E U2 1_555 1_555
P1E O3E 1_555 1_555
O3E U1E 1_555 1_555
O6E P1E 1_555 1_555
O7E U2 1_555 1_555
C1E P1E 1_555 1_555
C2E C1E 1_555 1_555
C3E C1E 1_555 1_555
C5E C7E 1_555 1_555
C7E C2E 1_555 1_555
C8E C3E 1_555 1_555
H4E C2E 1_555 1_555
H5E C3E 1_555 1_555
H6E C5E 1_555 1_555
H7E C7E 1_555 1_555
H8E C8E 1_555 1_555
U1E F3E 1_555 1_555
O1E U1E 1_555 1_555
O2E U1E 1_555 1_555
O6_2 U1 1_555 1_555
U1C F2 1_555 1_555
U1_2 O6 1_555 1_555
U1E_2 O6E 1_555 1_555
F1B U1E 1_555 1_555
F2B U1E 1_555 1_555
O6E_2 U1E 1_555 1_555
P1 O7 1_555 1_555
C5 C8 1_555 1_555
C4C C6C 1_555 1_555
P1E O7E 1_555 1_555
C5E C8E 1_555 1_555

#END
