
#######################################################################
#
#                 Cambridge Crystallographic Data Centre
#                                CCDC 
#
#######################################################################
#
# If this CIF has been generated from an entry in the Cambridge 
# Structural Database, then it will include bibliographic, chemical, 
# crystal, experimental, refinement or atomic coordinate data resulting 
# from the CCDC's data processing and validation procedures.
#
#######################################################################

data_BELBIE
_symmetry_cell_setting           orthorhombic
_symmetry_space_group_name_H-M   'P b c a'
_symmetry_Int_Tables_number      61
_space_group_name_Hall           '-P 2ac 2ab'
loop_
_symmetry_equiv_pos_site_id
_symmetry_equiv_pos_as_xyz
1 x,y,z
2 1/2+x,y,1/2-z
3 x,1/2-y,1/2+z
4 1/2-x,1/2+y,z
5 -x,-y,-z
6 1/2-x,-y,1/2+z
7 -x,1/2+y,1/2-z
8 1/2+x,1/2-y,-z
_cell_length_a                   16.556(13)
_cell_length_b                   14.932(13)
_cell_length_c                   19.359(16)
_cell_angle_alpha                90
_cell_angle_beta                 90
_cell_angle_gamma                90
_cell_volume                     4785.82
loop_
_atom_site_label
_atom_site_type_symbol
_atom_site_fract_x
_atom_site_fract_y
_atom_site_fract_z
Sn1 Sn 0.99779(3) 0.12205(3) 0.308563(17)
F1 F 1.0984(3) -0.0814(3) 0.3590(3)
F2 F 0.8128(3) 0.2210(4) 0.4021(3)
F3 F 1.1823(4) 0.3247(5) 0.3112(5)
N1 N 1.0042(3) 0.2699(3) 0.3708(2)
O1 O 1.0075(2) 0.4995(3) 0.25063(19)
O2 O 1.0070(3) 0.5848(3) 0.3452(2)
C1 C 1.0082(4) 0.5115(4) 0.3164(3)
C2 C 1.0131(3) 0.4294(4) 0.3596(3)
C3 C 1.0022(4) 0.3456(4) 0.3332(3)
H1 H 0.9926 0.3404 0.2860
C4 C 1.0190(4) 0.2800(4) 0.4379(3)
H2 H 1.0208 0.2291 0.4655
C5 C 1.0317(5) 0.3615(5) 0.4682(3)
H3 H 1.0419 0.3654 0.5154
C6 C 1.0292(4) 0.4361(4) 0.4290(3)
H4 H 1.0383 0.4918 0.4489
C7 C 0.9969(4) 0.0550(4) 0.4074(3)
H5 H 1.0503 0.0593 0.4276
H6 H 0.9597 0.0860 0.4378
C8 C 0.9731(4) -0.0421(4) 0.4040(3)
C9 C 1.0229(4) -0.1082(5) 0.3796(3)
C10 C 1.0025(5) -0.1961(4) 0.3721(3)
H7 H 1.0392 -0.2374 0.3545
C11 C 0.9262(5) -0.2217(5) 0.3913(4)
H8 H 0.9100 -0.2810 0.3862
C12 C 0.8742(4) -0.1598(5) 0.4178(4)
H9 H 0.8228 -0.1778 0.4314
C13 C 0.8961(4) -0.0711(5) 0.4251(3)
H10 H 0.8599 -0.0303 0.4439
C14 C 0.8787(4) 0.1621(4) 0.2756(3)
H11 H 0.8716 0.2258 0.2833
H12 H 0.8724 0.1504 0.2267
C15 C 0.8162(4) 0.1110(5) 0.3155(4)
C16 C 0.7841(5) 0.1415(7) 0.3775(5)
C17 C 0.7270(6) 0.0964(9) 0.4153(5)
H13 H 0.7082 0.1200 0.4568
C18 C 0.6985(6) 0.0180(10) 0.3920(7)
H14 H 0.6596 -0.0130 0.4170
C19 C 0.7274(5) -0.0166(7) 0.3305(6)
H15 H 0.7075 -0.0709 0.3142
C20 C 0.7861(4) 0.0291(6) 0.2925(4)
H16 H 0.8053 0.0047 0.2515
C21 C 1.1151(4) 0.1602(5) 0.2718(3)
H17 H 1.1346 0.1140 0.2407
H18 H 1.1098 0.2150 0.2453
C22 C 1.1774(4) 0.1747(7) 0.3276(4)
C23 C 1.2076(7) 0.2540(9) 0.3446(7)
C24 C 1.2663(9) 0.2744(13) 0.3978(10)
H19 H 1.2851 0.3314 0.4085
C25 C 1.2885(14) 0.2022(16) 0.4276(11)
H20 H 1.3260 0.2089 0.4630
C26 C 1.2652(7) 0.1194(13) 0.4149(6)
H21 H 1.2883 0.0723 0.4394
C27 C 1.2066(4) 0.1015(8) 0.3655(4)
H22 H 1.1876 0.0437 0.3578
O1F O 0.9925(2) -0.0005(3) 0.24937(19)
Sn1F Sn 1.00221(3) 0.62205(3) 0.191437(17)
loop_
_geom_bond_atom_site_label_1
_geom_bond_atom_site_label_2
_geom_bond_site_symmetry_1
_geom_bond_site_symmetry_2
Sn1 N1 1_555 1_555
F1 C9 1_555 1_555
F2 C16 1_555 1_555
F3 C23 1_555 1_555
N1 C3 1_555 1_555
O1 C1 1_555 1_555
O2 C1 1_555 1_555
C1 C2 1_555 1_555
C2 C3 1_555 1_555
C3 H1 1_555 1_555
C4 N1 1_555 1_555
H2 C4 1_555 1_555
C5 C4 1_555 1_555
H3 C5 1_555 1_555
C6 C2 1_555 1_555
H4 C6 1_555 1_555
C7 Sn1 1_555 1_555
H5 C7 1_555 1_555
H6 C7 1_555 1_555
C8 C7 1_555 1_555
C9 C8 1_555 1_555
C10 C9 1_555 1_555
H7 C10 1_555 1_555
C11 C10 1_555 1_555
H8 C11 1_555 1_555
C12 C11 1_555 1_555
H9 C12 1_555 1_555
C13 C8 1_555 1_555
H10 C13 1_555 1_555
C14 Sn1 1_555 1_555
H11 C14 1_555 1_555
H12 C14 1_555 1_555
C15 C14 1_555 1_555
C16 C15 1_555 1_555
C17 C16 1_555 1_555
H13 C17 1_555 1_555
C18 C17 1_555 1_555
H14 C18 1_555 1_555
C19 C18 1_555 1_555
H15 C19 1_555 1_555
C20 C15 1_555 1_555
H16 C20 1_555 1_555
C21 Sn1 1_555 1_555
H17 C21 1_555 1_555
H18 C21 1_555 1_555
C22 C21 1_555 1_555
C23 C22 1_555 1_555
C24 C23 1_555 1_555
H19 C24 1_555 1_555
C25 C24 1_555 1_555
H20 C25 1_555 1_555
C26 C25 1_555 1_555
H21 C26 1_555 1_555
C27 C22 1_555 1_555
H22 C27 1_555 1_555
O1F Sn1 1_555 1_555
Sn1F O1 1_555 1_555
C5 C6 1_555 1_555
C12 C13 1_555 1_555
C19 C20 1_555 1_555
C26 C27 1_555 1_555

#END
