
#######################################################################
#
#                 Cambridge Crystallographic Data Centre
#                                CCDC 
#
#######################################################################
#
# If this CIF has been generated from an entry in the Cambridge 
# Structural Database, then it will include bibliographic, chemical, 
# crystal, experimental, refinement or atomic coordinate data resulting 
# from the CCDC's data processing and validation procedures.
#
#######################################################################

data_BELBEA
_symmetry_cell_setting           monoclinic
_symmetry_space_group_name_H-M   'C 2/c'
_symmetry_Int_Tables_number      15
_space_group_name_Hall           '-C 2yn'
loop_
_symmetry_equiv_pos_site_id
_symmetry_equiv_pos_as_xyz
1 x,y,z
2 1/2+x,1/2+y,z
3 x,-y,1/2+z
4 1/2+x,1/2-y,1/2+z
5 -x,-y,-z
6 1/2-x,1/2-y,-z
7 -x,y,1/2-z
8 1/2-x,1/2+y,1/2-z
_cell_length_a                   27.93(9)
_cell_length_b                   9.67(3)
_cell_length_c                   21.78(7)
_cell_angle_alpha                90
_cell_angle_beta                 117.60(5)
_cell_angle_gamma                90
_cell_volume                     5213.01
loop_
_atom_site_label
_atom_site_type_symbol
_atom_site_fract_x
_atom_site_fract_y
_atom_site_fract_z
Sn1 Sn 0.349555(19) 0.68478(6) 0.90995(3)
F1 F 0.2891(2) 0.6028(8) 1.0173(3)
F2 F 0.4957(3) 0.7780(8) 1.0036(4)
F3 F 0.4572(2) 0.4983(8) 0.9017(4)
N1 N 0.3431(2) 0.4315(7) 0.9034(4)
O1 O 0.35576(18) -0.0882(5) 0.9182(3)
O2 O 0.2908(2) -0.0528(6) 0.8092(3)
C1 C 0.3248(3) -0.0125(9) 0.8672(5)
C2 C 0.3314(3) 0.1418(8) 0.8812(4)
C3 C 0.3686(3) 0.1960(9) 0.9434(4)
H1 H 0.3904 0.1373 0.9795
C4 C 0.3736(3) 0.3391(9) 0.9526(4)
H2 H 0.3995 0.3729 0.9950
C5 C 0.3070(3) 0.3765(9) 0.8440(5)
H3 H 0.2851 0.4371 0.8091
C6 C 0.2993(3) 0.2354(9) 0.8298(4)
H4 H 0.2732 0.2042 0.7869
C7 C 0.2657(3) 0.7010(9) 0.8878(4)
H5 H 0.2634 0.7761 0.9158
H6 H 0.2453 0.7293 0.8398
C8 C 0.2367(3) 0.5784(9) 0.8981(5)
C9 C 0.2481(4) 0.5383(12) 0.9616(6)
C10 C 0.2234(5) 0.4248(16) 0.9754(8)
H7 H 0.2349 0.3946 1.0206
C11 C 0.1824(6) 0.3599(14) 0.9218(11)
H8 H 0.1627 0.2911 0.9299
C12 C 0.1702(5) 0.3964(15) 0.8559(8)
H9 H 0.1445 0.3460 0.8189
C13 C 0.1955(3) 0.5073(12) 0.8431(5)
H10 H 0.1851 0.5347 0.7977
C14 C 0.4111(3) 0.6583(8) 1.0152(4)
H11 H 0.3949 0.6137 1.0409
H12 H 0.4382 0.5955 1.0151
C15 C 0.4395(3) 0.7881(10) 1.0538(5)
C16 C 0.4844(4) 0.8417(12) 1.0496(5)
C17 C 0.5146(4) 0.9528(12) 1.0862(6)
H13 H 0.5447 0.9822 1.0822
C18 C 0.4986(4) 1.0172(12) 1.1281(6)
H14 H 0.5177 1.0941 1.1531
C19 C 0.4555(4) 0.9732(12) 1.1348(5)
H15 H 0.4458 1.0194 1.1648
C20 C 0.4252(4) 0.8593(11) 1.0975(5)
H16 H 0.3952 0.8315 1.1022
C21 C 0.3764(3) 0.6934(11) 0.8319(4)
H17 H 0.3512 0.7521 0.7949
H18 H 0.4110 0.7405 0.8523
C22 C 0.3828(4) 0.5655(10) 0.7996(5)
C23 C 0.4225(4) 0.4700(14) 0.8338(6)
C24 C 0.4293(6) 0.3524(15) 0.8061(8)
H19 H 0.4566 0.2902 0.8321
C25 C 0.3948(7) 0.3281(15) 0.7391(9)
H20 H 0.3988 0.2475 0.7186
C26 C 0.3549(5) 0.417(2) 0.7008(7)
H21 H 0.3323 0.3984 0.6542
C27 C 0.3479(4) 0.5323(14) 0.7308(6)
H22 H 0.3192 0.5910 0.7049
O1_2 O 0.35576(18) 0.9118(5) 0.9182(3)
Sn1_2 Sn 0.349555(19) -0.31522(6) 0.90995(3)
Cl1 Cl 0.5360(3) 0.6587(10) 0.8177(6)
C28 C 0.5000 0.555(3) 0.7500
H23 H 0.4761 0.4969 0.7598
H24 H 0.5239 0.4969 0.7402
Cl1F Cl 0.4640(3) 0.6587(10) 0.6823(6)
loop_
_geom_bond_atom_site_label_1
_geom_bond_atom_site_label_2
_geom_bond_site_symmetry_1
_geom_bond_site_symmetry_2
Sn1 N1 1_555 1_555
Cl1 C28 1_555 1_555
F1 C9 1_555 1_555
F2 C16 1_555 1_555
F3 C23 1_555 1_555
N1 C4 1_555 1_555
O1 C1 1_555 1_555
O2 C1 1_555 1_555
C1 C2 1_555 1_555
C2 C3 1_555 1_555
C3 H1 1_555 1_555
C4 C3 1_555 1_555
H2 C4 1_555 1_555
C5 N1 1_555 1_555
H3 C5 1_555 1_555
C6 C2 1_555 1_555
H4 C6 1_555 1_555
C7 Sn1 1_555 1_555
H5 C7 1_555 1_555
H6 C7 1_555 1_555
C8 C7 1_555 1_555
C9 C8 1_555 1_555
C10 C9 1_555 1_555
H7 C10 1_555 1_555
C11 C10 1_555 1_555
H8 C11 1_555 1_555
C12 C11 1_555 1_555
H9 C12 1_555 1_555
C13 C8 1_555 1_555
H10 C13 1_555 1_555
C14 Sn1 1_555 1_555
H11 C14 1_555 1_555
H12 C14 1_555 1_555
C15 C14 1_555 1_555
C16 C15 1_555 1_555
C17 C16 1_555 1_555
H13 C17 1_555 1_555
C18 C17 1_555 1_555
H14 C18 1_555 1_555
C19 C18 1_555 1_555
H15 C19 1_555 1_555
C20 C15 1_555 1_555
H16 C20 1_555 1_555
C21 Sn1 1_555 1_555
H17 C21 1_555 1_555
H18 C21 1_555 1_555
C22 C21 1_555 1_555
C23 C22 1_555 1_555
C24 C23 1_555 1_555
H19 C24 1_555 1_555
C25 C24 1_555 1_555
H20 C25 1_555 1_555
C26 C25 1_555 1_555
H21 C26 1_555 1_555
C27 C22 1_555 1_555
H22 C27 1_555 1_555
C28 H23 1_555 1_555
H24 C28 1_555 1_555
Cl1F C28 1_555 1_555
O1_2 Sn1 1_555 1_555
Sn1_2 O1 1_555 1_555
C5 C6 1_555 1_555
C12 C13 1_555 1_555
C19 C20 1_555 1_555
C26 C27 1_555 1_555

#END
