
#######################################################################
#
#                 Cambridge Crystallographic Data Centre
#                                CCDC 
#
#######################################################################
#
# If this CIF has been generated from an entry in the Cambridge 
# Structural Database, then it will include bibliographic, chemical, 
# crystal, experimental, refinement or atomic coordinate data resulting 
# from the CCDC's data processing and validation procedures.
#
#######################################################################

data_BELFIH
_symmetry_cell_setting           monoclinic
_symmetry_space_group_name_H-M   'C 2/c'
_symmetry_Int_Tables_number      15
_space_group_name_Hall           '-C 2yn'
loop_
_symmetry_equiv_pos_site_id
_symmetry_equiv_pos_as_xyz
1 x,y,z
2 1/2+x,1/2+y,z
3 -x,y,1/2-z
4 1/2-x,1/2+y,1/2-z
5 -x,-y,-z
6 1/2-x,1/2-y,-z
7 x,-y,1/2+z
8 1/2+x,1/2-y,1/2+z
_cell_length_a                   10.551(6)
_cell_length_b                   21.23(1)
_cell_length_c                   8.633(5)
_cell_angle_alpha                90
_cell_angle_beta                 112.0(2)
_cell_angle_gamma                90
_cell_volume                     1792.96
loop_
_atom_site_label
_atom_site_type_symbol
_atom_site_fract_x
_atom_site_fract_y
_atom_site_fract_z
S1 S 0.50000 0.09250 0.25000
Cu1 Cu 0.00000 0.11760 0.25000
O1 O 0.14370 0.04900 0.25320
O2 O 0.24870 0.13630 0.23040
N1 N -0.08030 0.13560 0.00040
N2 N 0.00000 0.21000 0.25000
C1 C -0.11730 0.09190 -0.12150
C2 C -0.17350 0.10840 -0.28970
C3 C -0.19130 0.17120 -0.33250
C4 C -0.15240 0.21640 -0.20840
C5 C -0.09630 0.19720 -0.04220
C6 C -0.04860 0.24050 0.10310
C7 C -0.05010 0.30630 0.09820
C8 C 0.00000 0.33830 0.25000
C9 C 0.24380 0.07840 0.24320
C10 C 0.36630 0.03900 0.24600
H1 H -0.10400 0.04700 -0.09000
H2 H -0.20100 0.07500 -0.37700
H3 H -0.23200 0.18400 -0.45100
H4 H -0.16400 0.26200 -0.23700
H5 H -0.08600 0.32900 -0.00900
H6 H 0.00000 0.38500 0.25000
H7 H 0.39900 0.01100 0.34800
H8 H 0.33900 0.01200 0.14400
C10B C 0.63370 0.03900 0.25400
O1B O -0.14370 0.04900 0.24680
N1B N 0.08030 0.13560 0.49960
C6B C 0.04860 0.24050 0.39690
C7B C 0.05010 0.30630 0.40180
C9B C 0.75620 0.07840 0.25680
H7B H 0.60100 0.01100 0.15200
H8B H 0.66100 0.01200 0.35600
C1B C 0.11730 0.09190 0.62150
C5B C 0.09630 0.19720 0.54220
H5B H 0.08600 0.32900 0.50900
O1B_2 O 0.85630 0.04900 0.24680
O2B O 0.75130 0.13630 0.26960
C2B C 0.17350 0.10840 0.78970
H1B H 0.10400 0.04700 0.59000
C4B C 0.15240 0.21640 0.70840
C3B C 0.19130 0.17120 0.83250
H2B H 0.20100 0.07500 0.87700
H4B H 0.16400 0.26200 0.73700
H3B H 0.23200 0.18400 0.95100
Cu1_2 Cu 1.00000 0.11760 0.25000
loop_
_geom_bond_atom_site_label_1
_geom_bond_atom_site_label_2
_geom_bond_site_symmetry_1
_geom_bond_site_symmetry_2
S1 C10 1_555 1_555
Cu1 O1 1_555 1_555
O1 C9 1_555 1_555
O2 C9 1_555 1_555
N1 Cu1 1_555 1_555
N2 Cu1 1_555 1_555
C1 N1 1_555 1_555
C2 C1 1_555 1_555
C3 C2 1_555 1_555
C4 C3 1_555 1_555
C5 N1 1_555 1_555
C6 N2 1_555 1_555
C7 C6 1_555 1_555
C8 C7 1_555 1_555
C9 C10 1_555 1_555
C10 H7 1_555 1_555
H1 C1 1_555 1_555
H2 C2 1_555 1_555
H3 C3 1_555 1_555
H4 C4 1_555 1_555
H5 C7 1_555 1_555
H6 C8 1_555 1_555
H8 C10 1_555 1_555
C10B S1 1_555 1_555
O1B Cu1 1_555 1_555
N1B Cu1 1_555 1_555
C6B N2 1_555 1_555
C7B C8 1_555 1_555
C9B C10B 1_555 1_555
H7B C10B 1_555 1_555
H8B C10B 1_555 1_555
C1B N1B 1_555 1_555
C5B N1B 1_555 1_555
H5B C7B 1_555 1_555
O1B_2 C9B 1_555 1_555
O2B C9B 1_555 1_555
C2B C1B 1_555 1_555
H1B C1B 1_555 1_555
C4B C5B 1_555 1_555
C3B C2B 1_555 1_555
H2B C2B 1_555 1_555
H4B C4B 1_555 1_555
H3B C3B 1_555 1_555
Cu1_2 O1B_2 1_555 1_555
C4 C5 1_555 1_555
C5 C6 1_555 1_555
C6B C5B 1_555 1_555
C6B C7B 1_555 1_555
C4B C3B 1_555 1_555

#END
