
#######################################################################
#
#                 Cambridge Crystallographic Data Centre
#                                CCDC 
#
#######################################################################
#
# If this CIF has been generated from an entry in the Cambridge 
# Structural Database, then it will include bibliographic, chemical, 
# crystal, experimental, refinement or atomic coordinate data resulting 
# from the CCDC's data processing and validation procedures.
#
#######################################################################

data_BELHOR
_symmetry_cell_setting           monoclinic
_symmetry_space_group_name_H-M   'C 2/c'
_symmetry_Int_Tables_number      15
_space_group_name_Hall           '-C 2yn'
loop_
_symmetry_equiv_pos_site_id
_symmetry_equiv_pos_as_xyz
1 x,y,z
2 -x,y,1/2-z
3 1/2+x,1/2+y,z
4 1/2-x,1/2+y,1/2-z
5 -x,-y,-z
6 x,-y,1/2+z
7 1/2-x,1/2-y,-z
8 1/2+x,1/2-y,1/2+z
_cell_length_a                   24.172(5)
_cell_length_b                   16.431(3)
_cell_length_c                   7.5330(15)
_cell_angle_alpha                90
_cell_angle_beta                 99.96(3)
_cell_angle_gamma                90
_cell_volume                     2946.79
loop_
_atom_site_label
_atom_site_type_symbol
_atom_site_fract_x
_atom_site_fract_y
_atom_site_fract_z
Sn1 Sn 0.249727(7) 0.149932(11) 0.93592(2)
O1 O 0.32710(8) 0.06230(13) 0.9977(3)
N1 N 0.12343(9) 0.06544(15) 0.8565(3)
O2 O 0.16726(8) 0.08916(13) 0.7829(3)
N2 N 0.37301(9) 0.06370(16) 0.9205(3)
C1 C 0.44861(12) 0.13514(19) 0.8318(4)
H1 H 0.4661 0.1845 0.8176
C2 C 0.06643(11) -0.04131(19) 0.9329(4)
H2 H 0.0603 -0.0968 0.9439
C3 C 0.03896(12) 0.09676(19) 0.9592(4)
H3 H 0.0144 0.1357 0.9905
C4 C 0.47300(11) 0.06335(18) 0.7847(4)
C5 C 0.44397(12) -0.00862(19) 0.8063(4)
H4 H 0.4584 -0.0580 0.7750
C6 C 0.02670(11) 0.01391(18) 0.9728(4)
C7 C 0.11443(12) -0.01476(19) 0.8774(4)
H5 H 0.1410 -0.0524 0.8540
C8 C 0.39916(13) 0.13460(19) 0.8987(4)
H6 H 0.3837 0.1834 0.9291
C9 C 0.08708(12) 0.12090(19) 0.8999(4)
H7 H 0.0946 0.1761 0.8896
C10 C 0.39433(12) -0.00755(18) 0.8732(4)
H8 H 0.3755 -0.0560 0.8858
O3 O 0.30301(8) 0.24465(13) 1.0609(3)
C11 C 0.26425(13) 0.15654(19) 0.6682(4)
H9 H 0.2739 0.1035 0.6294
H10 H 0.2946 0.1936 0.6621
H11 H 0.2309 0.1755 0.5912
C12 C 0.23216(12) 0.0967(2) 1.1745(4)
H12 H 0.2192 0.0419 1.1502
H13 H 0.2036 0.1277 1.2180
H14 H 0.2656 0.0962 1.2641
H15 H 0.3171(12) 0.236(2) 1.159(3)
Sn1A Sn 0.750273(7) 0.149932(11) 0.56408(2)
Sn1F Sn 0.250273(7) 0.350068(11) 1.06408(2)
Sn1D Sn -0.249727(7) -0.149932(11) 1.06408(2)
O1A O 0.67290(8) 0.06230(13) 0.5023(3)
N1D N -0.12343(9) -0.06544(15) 1.1435(3)
O2D O -0.16726(8) -0.08916(13) 1.2171(3)
O2A O 0.83274(8) 0.08916(13) 0.7171(3)
N2A N 0.62699(9) 0.06370(16) 0.5795(3)
C1A C 0.55139(12) 0.13514(19) 0.6682(4)
H1A H 0.5339 0.1845 0.6824
C2D C -0.06643(11) 0.04131(19) 1.0671(4)
H2D H -0.0603 0.0968 1.0561
C3D C -0.03896(12) -0.09676(19) 1.0408(4)
H3D H -0.0144 -0.1357 1.0095
C4A C 0.52700(11) 0.06335(18) 0.7153(4)
C5A C 0.55603(12) -0.00862(19) 0.6937(4)
H4A H 0.5416 -0.0580 0.7250
C6D C -0.02670(11) -0.01391(18) 1.0272(4)
C7D C -0.11443(12) 0.01476(19) 1.1226(4)
H5D H -0.1410 0.0524 1.1460
C8A C 0.60084(13) 0.13460(19) 0.6013(4)
H6A H 0.6163 0.1834 0.5709
C9D C -0.08708(12) -0.12090(19) 1.1001(4)
H7D H -0.0946 -0.1761 1.1104
C10A C 0.60567(12) -0.00755(18) 0.6268(4)
H8A H 0.6245 -0.0560 0.6142
O3F O 0.19699(8) 0.25535(13) 0.9391(3)
O3A O 0.69699(8) 0.24465(13) 0.4391(3)
O3G O 0.80301(8) 0.25535(13) 0.5609(3)
C11A C 0.73575(13) 0.15654(19) 0.8318(4)
H9A H 0.7261 0.1035 0.8706
H10A H 0.7054 0.1936 0.8379
H11A H 0.7691 0.1755 0.9088
C12A C 0.76784(12) 0.0967(2) 0.3255(4)
H12A H 0.7808 0.0419 0.3498
H13A H 0.7964 0.1277 0.2820
H14A H 0.7344 0.0962 0.2359
H15F H 0.1829(12) 0.264(2) 0.841(3)
H15A H 0.6829(12) 0.236(2) 0.341(3)
H15G H 0.8171(12) 0.264(2) 0.659(3)
O4 O 0.05357(9) 0.23397(14) 0.5026(3)
O5 O 0.12751(9) 0.21302(15) 0.3842(3)
N3 N 0.10506(11) 0.24798(16) 0.4991(3)
O6 O 0.13169(10) 0.29693(14) 0.6087(3)
O7 O 1.0000 0.3153(3) 0.7500
H16 H 0.9779(19) 0.280(3) 0.819(6)
H16A H 1.0221(19) 0.280(3) 0.681(6)
loop_
_geom_bond_atom_site_label_1
_geom_bond_atom_site_label_2
_geom_bond_site_symmetry_1
_geom_bond_site_symmetry_2
Sn1 O1 1_555 1_555
O1 N2 1_555 1_555
N1 O2 1_555 1_555
O2 Sn1 1_555 1_555
N2 C8 1_555 1_555
C1 H1 1_555 1_555
C2 H2 1_555 1_555
C3 H3 1_555 1_555
C4 C1 1_555 1_555
C5 C4 1_555 1_555
H4 C5 1_555 1_555
C6 C2 1_555 1_555
C7 N1 1_555 1_555
H5 C7 1_555 1_555
C8 C1 1_555 1_555
H6 C8 1_555 1_555
C9 N1 1_555 1_555
H7 C9 1_555 1_555
C10 N2 1_555 1_555
H8 C10 1_555 1_555
O3 Sn1 1_555 1_555
C11 Sn1 1_555 1_555
H9 C11 1_555 1_555
H10 C11 1_555 1_555
H11 C11 1_555 1_555
C12 Sn1 1_555 1_555
H12 C12 1_555 1_555
H13 C12 1_555 1_555
H14 C12 1_555 1_555
H15 O3 1_555 1_555
O4 N3 1_555 1_555
O5 N3 1_555 1_555
N3 O6 1_555 1_555
O7 H16 1_555 1_555
Sn1A O1A 1_555 1_555
Sn1F O3 1_555 1_555
Sn1D O2D 1_555 1_555
O1A N2A 1_555 1_555
N1D O2D 1_555 1_555
O2A Sn1A 1_555 1_555
N2A C8A 1_555 1_555
C1A H1A 1_555 1_555
C2D H2D 1_555 1_555
C3D H3D 1_555 1_555
C4A C4 1_555 1_555
C5A C4A 1_555 1_555
H4A C5A 1_555 1_555
C6D C6 1_555 1_555
C7D N1D 1_555 1_555
H5D C7D 1_555 1_555
C8A C1A 1_555 1_555
H6A C8A 1_555 1_555
C9D N1D 1_555 1_555
H7D C9D 1_555 1_555
C10A N2A 1_555 1_555
H8A C10A 1_555 1_555
O3F Sn1 1_555 1_555
O3A Sn1A 1_555 1_555
O3G Sn1A 1_555 1_555
C11A Sn1A 1_555 1_555
H9A C11A 1_555 1_555
H10A C11A 1_555 1_555
H11A C11A 1_555 1_555
C12A Sn1A 1_555 1_555
H12A C12A 1_555 1_555
H13A C12A 1_555 1_555
H14A C12A 1_555 1_555
H15F O3F 1_555 1_555
H15A O3A 1_555 1_555
H15G O3G 1_555 1_555
H16A O7 1_555 1_555
C2 C7 1_555 1_555
C3 C6 1_555 1_555
C3 C9 1_555 1_555
C5 C10 1_555 1_555
Sn1F O3F 1_555 1_555
C1A C4A 1_555 1_555
C2D C6D 1_555 1_555
C2D C7D 1_555 1_555
C3D C6D 1_555 1_555
C3D C9D 1_555 1_555
C5A C10A 1_555 1_555

#END
