
#######################################################################
#
#                 Cambridge Crystallographic Data Centre
#                                CCDC 
#
#######################################################################
#
# If this CIF has been generated from an entry in the Cambridge 
# Structural Database, then it will include bibliographic, chemical, 
# crystal, experimental, refinement or atomic coordinate data resulting 
# from the CCDC's data processing and validation procedures.
#
#######################################################################

data_BELHIL
_symmetry_cell_setting           triclinic
_symmetry_space_group_name_H-M   'P -1'
_symmetry_Int_Tables_number      2
_space_group_name_Hall           '-P 1'
loop_
_symmetry_equiv_pos_site_id
_symmetry_equiv_pos_as_xyz
1 x,y,z
2 -x,-y,-z
_cell_length_a                   7.9259(6)
_cell_length_b                   8.3389(7)
_cell_length_c                   8.6118(7)
_cell_angle_alpha                100.4040(10)
_cell_angle_beta                 99.5650(10)
_cell_angle_gamma                112.9120(10)
_cell_volume                     497.78
loop_
_atom_site_label
_atom_site_type_symbol
_atom_site_fract_x
_atom_site_fract_y
_atom_site_fract_z
Sn1 Sn 0.0000 0.0000 1.0000
O1 O 0.0585(3) 0.1010(3) 0.7871(3)
O2 O 0.1594(4) 0.2734(4) 1.1666(4)
H1 H 0.245(7) 0.305(6) 1.216(5)
H2 H 0.123(7) 0.344(7) 1.170(6)
N1 N 0.1826(4) 0.0702(4) 0.7117(3)
C1 C 0.2441(4) -0.0461(5) 1.0448(4)
H3 H 0.2542 -0.1100 0.9420
H4 H 0.2351 -0.1198 1.1225
H5 H 0.3566 0.0699 1.0907
C2 C 0.1252(5) -0.0869(5) 0.5993(4)
H6 H -0.0008 -0.1776 0.5772
C3 C 0.2487(4) -0.1176(4) 0.5155(4)
H7 H 0.2072 -0.2298 0.4364
C4 C 0.4327(4) 0.0139(4) 0.5457(3)
C5 C 0.4866(4) 0.1751(4) 0.6654(4)
H8 H 0.6119 0.2679 0.6901
C6 C 0.3611(5) 0.2012(4) 0.7478(4)
H9 H 0.3998 0.3107 0.8297
Sn1_2 Sn 1.0000 0.0000 0.0000
O1A O 0.9415(3) -0.1010(3) 0.2129(3)
O1A_2 O -0.0585(3) -0.1010(3) 1.2129(3)
O2A O -0.1594(4) -0.2734(4) 0.8334(4)
H1A H -0.245(7) -0.305(6) 0.784(5)
H2A H -0.123(7) -0.344(7) 0.830(6)
N1A N 0.8174(4) -0.0702(4) 0.2883(3)
C1A C -0.2441(4) 0.0461(5) 0.9552(4)
H3A H -0.2542 0.1100 1.0580
H4A H -0.2351 0.1198 0.8775
H5A H -0.3566 -0.0699 0.9093
C2A C 0.8748(5) 0.0869(5) 0.4007(4)
H6A H 1.0008 0.1776 0.4228
C3A C 0.7513(4) 0.1176(4) 0.4845(4)
H7A H 0.7928 0.2298 0.5636
C4A C 0.5673(4) -0.0139(4) 0.4543(3)
C5A C 0.5134(4) -0.1751(4) 0.3346(4)
H8A H 0.3881 -0.2679 0.3099
C6A C 0.6389(5) -0.2012(4) 0.2522(4)
H9A H 0.6002 -0.3107 0.1703
N2 N 0.6548(7) 0.4271(7) 0.2907(6)
O3 O 0.5163(9) 0.3746(7) 0.3536(7)
O4 O 0.8204(10) 0.5191(10) 0.3819(10)
O5 O 0.6288(8) 0.3868(7) 0.1390(6)
O6 O 1.0678(10) 0.5304(8) 0.1702(7)
H10 H 1.033(11) 0.539(11) 0.089(5)
H11 H 1.017(11) 0.510(11) 0.234(8)
H12? H 0.504(12) 0.314(9) 0.363(10)
H13? H 0.486(11) 0.460(7) 0.339(9)
N3? N 0.8442(7) 0.4935(7) 0.2036(6)
O7? O 1.0019(9) 0.5220(8) 0.1701(7)
O8? O 0.8354(9) 0.5314(9) 0.3467(8)
O9? O 0.6978(8) 0.4324(7) 0.0904(6)
O10? O 0.4627(9) 0.3819(8) 0.3749(7)
loop_
_geom_bond_atom_site_label_1
_geom_bond_atom_site_label_2
_geom_bond_site_symmetry_1
_geom_bond_site_symmetry_2
Sn1 O1 1_555 1_555
O1 N1 1_555 1_555
O2 Sn1 1_555 1_555
H1 O2 1_555 1_555
H2 O2 1_555 1_555
N1 C2 1_555 1_555
C1 Sn1 1_555 1_555
H3 C1 1_555 1_555
H4 C1 1_555 1_555
H5 C1 1_555 1_555
C2 H6 1_555 1_555
C3 C2 1_555 1_555
H7 C3 1_555 1_555
C4 C3 1_555 1_555
C5 C4 1_555 1_555
H8 C5 1_555 1_555
C6 N1 1_555 1_555
H9 C6 1_555 1_555
N2 O3 1_555 1_555
O4 N2 1_555 1_555
O5 N2 1_555 1_555
O6 H10 1_555 1_555
H11 O6 1_555 1_555
Sn1_2 O1A 1_555 1_555
O1A N1A 1_555 1_555
O1A_2 Sn1 1_555 1_555
O2A Sn1 1_555 1_555
H1A O2A 1_555 1_555
H2A O2A 1_555 1_555
N1A C2A 1_555 1_555
C1A Sn1 1_555 1_555
H3A C1A 1_555 1_555
H4A C1A 1_555 1_555
H5A C1A 1_555 1_555
C2A H6A 1_555 1_555
C3A C2A 1_555 1_555
H7A C3A 1_555 1_555
C4A C4 1_555 1_555
C5A C4A 1_555 1_555
H8A C5A 1_555 1_555
C6A N1A 1_555 1_555
H9A C6A 1_555 1_555
C5 C6 1_555 1_555
C3A C4A 1_555 1_555
C5A C6A 1_555 1_555

#END
