
#######################################################################
#
#                 Cambridge Crystallographic Data Centre
#                                CCDC 
#
#######################################################################
#
# If this CIF has been generated from an entry in the Cambridge 
# Structural Database, then it will include bibliographic, chemical, 
# crystal, experimental, refinement or atomic coordinate data resulting 
# from the CCDC's data processing and validation procedures.
#
#######################################################################

data_BELXOG
_symmetry_cell_setting           monoclinic
_symmetry_space_group_name_H-M   'C 2/c'
_symmetry_Int_Tables_number      15
_space_group_name_Hall           '-C 2yn'
loop_
_symmetry_equiv_pos_site_id
_symmetry_equiv_pos_as_xyz
1 x,y,z
2 1/2+x,1/2+y,z
3 x,-y,1/2+z
4 1/2+x,1/2-y,1/2+z
5 -x,-y,-z
6 1/2-x,1/2-y,-z
7 -x,y,1/2-z
8 1/2-x,1/2+y,1/2-z
_cell_length_a                   19.648(7)
_cell_length_b                   10.480(3)
_cell_length_c                   17.598(6)
_cell_angle_alpha                90
_cell_angle_beta                 107.502(6)
_cell_angle_gamma                90
_cell_volume                     3455.87
loop_
_atom_site_label
_atom_site_type_symbol
_atom_site_fract_x
_atom_site_fract_y
_atom_site_fract_z
C9 C 0.0272(8) 0.8029(10) 0.9227(7)
O11 O 0.0601(5) 0.8784(8) 0.9713(5)
O12 O -0.0025(7) 0.8316(12) 0.8469(7)
C10 C 0.0133(10) 0.6698(10) 0.9522(8)
C11 C 0.0201(11) 0.6632(13) 1.0330(8)
C12 C 0.0089(18) 0.5480(19) 1.0666(7)
C13 C 0.009(2) 0.5604(16) 0.9807(10)
C15 C -0.0048(9) 0.5614(13) 0.9049(6)
C16 C 0.0223(13) 0.5367(19) 1.1571(8)
O13 O -0.0002(13) 0.584(2) 0.8452(15)
O14 O 0.0242(11) 0.6333(17) 1.1947(11)
O15 O 0.0406(14) 0.6632(16) 1.1072(12)
C13D C -0.009(2) 0.4396(16) 1.0193(10)
C15D C 0.0048(9) 0.4386(13) 1.0951(6)
C12D C -0.0089(18) 0.4520(19) 0.9334(7)
C16D C -0.0223(13) 0.4633(19) 0.8429(8)
O13D O 0.0002(13) 0.416(2) 1.1548(15)
O16 O 0.9453(9) 0.1011(14) 0.7831(9)
Er1 Er 0.727659(17) 1.20688(2) 0.815302(15)
C1 C 0.6807(4) 1.0045(6) 0.8928(3)
C2 C 0.6653(4) 0.8902(6) 0.9350(3)
C3 C 0.6393(4) 0.7773(6) 0.8930(4)
H1 H 0.6300 0.7743 0.8380
C4 C 0.6277(4) 0.6716(6) 0.9337(4)
C5 C 0.6430(4) 0.6737(6) 1.0157(4)
H2 H 0.6357 0.6008 1.0423
C6 C 0.6691(3) 0.7835(5) 1.0584(3)
C7 C 0.6788(4) 0.8936(6) 1.0178(3)
H3 H 0.6943 0.9688 1.0458
C8 C 0.6880(3) 0.7870(6) 1.1468(3)
O1 O 0.6849(3) 0.9946(4) 0.8231(2)
O2 O 0.6917(3) 1.1119(4) 0.9262(2)
O3 O 0.7115(3) 1.1123(4) 0.6851(2)
O4 O 0.6811(3) 1.3116(4) 0.6848(3)
O5 O 0.6022(3) 0.5623(4) 0.8907(3)
H4 H 0.5677 0.5355 0.9029
O6 O 0.8253(3) 1.0657(4) 0.8358(3)
O7 O 0.8171(3) 1.2569(4) 0.9404(3)
O8 O 0.8212(3) 1.3221(4) 0.7888(3)
O9 O 0.7065(3) 1.4181(4) 0.8474(3)
O10 O 0.6012(3) 1.2272(5) 0.7811(4)
O3B O 0.7115(3) 0.8877(4) 1.1851(2)
O4B O 0.6811(3) 0.6884(4) 1.1848(3)
C8B C 0.6880(3) 1.2130(6) 0.6468(3)
C14? C -0.0161(18) 0.4463(12) 0.9385(10)
loop_
_geom_bond_atom_site_label_1
_geom_bond_atom_site_label_2
_geom_bond_site_symmetry_1
_geom_bond_site_symmetry_2
Er1 O1 1_555 1_555
C1 C2 1_555 1_555
C2 C3 1_555 1_555
C3 H1 1_555 1_555
C4 C3 1_555 1_555
C5 C4 1_555 1_555
H2 C5 1_555 1_555
C6 C5 1_555 1_555
C7 C2 1_555 1_555
H3 C7 1_555 1_555
C8 C6 1_555 1_555
O1 C1 1_555 1_555
O2 Er1 1_555 1_555
O3 Er1 1_555 1_555
O4 Er1 1_555 1_555
O5 C4 1_555 1_555
H4 O5 1_555 1_555
O6 Er1 1_555 1_555
O7 Er1 1_555 1_555
O8 Er1 1_555 1_555
O9 Er1 1_555 1_555
O10 Er1 1_555 1_555
C9 O11 1_555 1_555
O12 C9 1_555 1_555
C10 C9 1_555 1_555
C11 C10 1_555 1_555
C12 C11 1_555 1_555
C13 C10 1_555 1_555
C15 C10 1_555 1_555
C16 C12 1_555 1_555
O13 C15 1_555 1_555
O14 C16 1_555 1_555
O15 C11 1_555 1_555
O3B C8 1_555 1_555
O4B C8 1_555 1_555
C8B O3 1_555 1_555
C13D C12 1_555 1_555
C15D C12 1_555 1_555
C12D C13 1_555 1_555
C16D C15 1_555 1_555
O13D C16 1_555 1_555
C1 O2 1_555 1_555
C6 C7 1_555 1_555
O4 C8B 1_555 1_555
C11 C13 1_555 1_555
C12 C13 1_555 1_555
C12 O15 1_555 1_555
C13 C13D 1_555 1_555
C13 C15 1_555 1_555
C15 C12D 1_555 1_555
C16 O15 1_555 1_555
C16 C15D 1_555 1_555
O13 C16D 1_555 1_555
O14 O15 1_555 1_555
C13D C15D 1_555 1_555
C13D C12D 1_555 1_555
C15D O13D 1_555 1_555
C12D C16D 1_555 1_555

#END
