
#######################################################################
#
#                 Cambridge Crystallographic Data Centre
#                                CCDC 
#
#######################################################################
#
# If this CIF has been generated from an entry in the Cambridge 
# Structural Database, then it will include bibliographic, chemical, 
# crystal, experimental, refinement or atomic coordinate data resulting 
# from the CCDC's data processing and validation procedures.
#
#######################################################################

data_BELXUN
_symmetry_cell_setting           orthorhombic
_symmetry_space_group_name_H-M   'C c c 2'
_symmetry_Int_Tables_number      37
_space_group_name_Hall           'C 2 -2c'
loop_
_symmetry_equiv_pos_site_id
_symmetry_equiv_pos_as_xyz
1 x,y,z
2 -x,-y,z
3 -x,y,1/2+z
4 x,-y,1/2+z
5 1/2+x,1/2+y,z
6 1/2-x,1/2-y,z
7 1/2-x,1/2+y,1/2+z
8 1/2+x,1/2-y,1/2+z
_cell_length_a                   12.132(2)
_cell_length_b                   13.111(2)
_cell_length_c                   11.875(2)
_cell_angle_alpha                90
_cell_angle_beta                 90
_cell_angle_gamma                90
_cell_volume                     1888.87
loop_
_atom_site_label
_atom_site_type_symbol
_atom_site_fract_x
_atom_site_fract_y
_atom_site_fract_z
C1 C 0.0679(4) 0.2659(4) 0.5471(5)
H1 H 0.0597 0.3354 0.5605
C2 C -0.0316(4) -0.2161(4) 0.4575(5)
H2 H -0.0071 0.2457 0.3983
C3 C -0.1122(3) -0.1085(3) 0.5638(3)
C4 C 0.1582(3) 0.0140(3) 0.6102(4)
C5 C 0.2680(4) -0.1174(4) 0.6326(5)
H3 H 0.3240 -0.1649 0.6221
C6 C 0.1937(4) -0.1170(3) 0.7160(4)
H4 H 0.1891 -0.1651 0.7734
C7 C 0.3054(4) -0.0119(4) 0.4638(4)
H5 H 0.3840 -0.0117 0.4789
H6 H 0.2848 0.0555 0.4376
C8 C 0.2797(4) -0.0898(3) 0.3735(4)
Cd1 Cd 0.2500 -0.2500 0.23403(4)
Cd2 Cd 0.0000 0.0000 0.84079(3)
N1 N 0.1201(3) 0.1974(3) 0.6172(3)
N2 N -0.0590(3) -0.1147(3) 0.4641(3)
N3 N 0.2463(3) -0.0351(3) 0.5659(3)
N4 N 0.1249(3) -0.0339(3) 0.7032(3)
O1 O 0.1892(3) -0.1331(3) 0.3763(3)
O2 O 0.3515(3) -0.1096(3) 0.3023(3)
C1A C -0.0679(4) -0.2659(4) 0.5471(5)
H1A H -0.0597 -0.3354 0.5605
C2A C 0.0316(4) 0.2161(4) 0.4575(5)
H2A H 0.0071 -0.2457 0.3983
C3A C 0.1122(3) 0.1085(3) 0.5638(3)
C4A C -0.1582(3) -0.0140(3) 0.6102(4)
C5A C -0.2680(4) 0.1174(4) 0.6326(5)
H3A H -0.3240 0.1649 0.6221
C6A C -0.1937(4) 0.1170(3) 0.7160(4)
H4A H -0.1891 0.1651 0.7734
C7A C -0.3054(4) 0.0119(4) 0.4638(4)
H5A H -0.3840 0.0117 0.4789
H6A H -0.2848 -0.0555 0.4376
C8A C -0.2797(4) 0.0898(3) 0.3735(4)
Cd1B Cd -0.2500 -0.2500 0.73403(4)
Cd1C Cd 0.2500 0.2500 0.73403(4)
Cd1A Cd -0.2500 0.2500 0.23403(4)
Cd2B Cd 0.0000 0.0000 0.34079(3)
N1C N 0.1201(3) -0.1974(3) 0.1172(3)
N1A N -0.1201(3) -0.1974(3) 0.6172(3)
N1F N 0.3799(3) -0.3026(3) 0.1172(3)
N2A N 0.0590(3) 0.1147(3) 0.4641(3)
N2C N -0.0590(3) 0.1147(3) 0.9641(3)
N2B N 0.0590(3) -0.1147(3) 0.9641(3)
N3A N -0.2463(3) 0.0351(3) 0.5659(3)
N4A N -0.1249(3) 0.0339(3) 0.7032(3)
O1E O 0.3108(3) -0.3669(3) 0.3763(3)
O1A O -0.1892(3) 0.1331(3) 0.3763(3)
O2E O 0.1485(3) -0.3904(3) 0.3023(3)
O2A O -0.3515(3) 0.1096(3) 0.3023(3)
O3 O 0.5000 0.0000 -0.8349(5)
H7 H 0.5261 0.0378 -0.7832
H7A H 0.4739 -0.0378 -0.7832
loop_
_geom_bond_atom_site_label_1
_geom_bond_atom_site_label_2
_geom_bond_site_symmetry_1
_geom_bond_site_symmetry_2
C1 H1 1_555 1_555
C2 N2 1_555 1_555
H2 C2A 1_555 1_555
C3 N2 1_555 1_555
C4 N3 1_555 1_555
C5 H3 1_555 1_555
C6 C5 1_555 1_555
H4 C6 1_555 1_555
C7 H5 1_555 1_555
H6 C7 1_555 1_555
C8 C7 1_555 1_555
Cd1 O1 1_555 1_555
Cd2 N4 1_555 1_555
N1 C1 1_555 1_555
N2 Cd2B 1_555 1_555
N3 C5 1_555 1_555
N4 C4 1_555 1_555
O1 C8 1_555 1_555
O2 C8 1_555 1_555
O3 H7 1_555 1_555
C1A C2 1_555 1_555
H1A C1A 1_555 1_555
C2A C1 1_555 1_555
H2A C2 1_555 1_555
C3A C4 1_555 1_555
C4A C3 1_555 1_555
C5A H3A 1_555 1_555
C6A C5A 1_555 1_555
H4A C6A 1_555 1_555
C7A H5A 1_555 1_555
H6A C7A 1_555 1_555
C8A C7A 1_555 1_555
Cd1B N1A 1_555 1_555
Cd1C N1 1_555 1_555
Cd1A O1A 1_555 1_555
Cd2B N2A 1_555 1_555
N1C Cd1 1_555 1_555
N1A C3 1_555 1_555
N1F Cd1 1_555 1_555
N2A C2A 1_555 1_555
N2C Cd2 1_555 1_555
N2B Cd2 1_555 1_555
N3A C4A 1_555 1_555
N4A Cd2 1_555 1_555
O1E Cd1 1_555 1_555
O1A C8A 1_555 1_555
O2E Cd1 1_555 1_555
O2A C8A 1_555 1_555
H7A O3 1_555 1_555
C6 N4 1_555 1_555
C7 N3 1_555 1_555
Cd1 O2 1_555 1_555
N1 C3A 1_555 1_555
C1A N1A 1_555 1_555
C3A N2A 1_555 1_555
C4A N4A 1_555 1_555
C5A N3A 1_555 1_555
C6A N4A 1_555 1_555
C7A N3A 1_555 1_555
Cd1A O2A 1_555 1_555

#END
