
#######################################################################
#
#                 Cambridge Crystallographic Data Centre
#                                CCDC 
#
#######################################################################
#
# If this CIF has been generated from an entry in the Cambridge 
# Structural Database, then it will include bibliographic, chemical, 
# crystal, experimental, refinement or atomic coordinate data resulting 
# from the CCDC's data processing and validation procedures.
#
#######################################################################

data_BELYIB
_symmetry_cell_setting           monoclinic
_symmetry_space_group_name_H-M   'C 2/c'
_symmetry_Int_Tables_number      15
_space_group_name_Hall           '-C 2yn'
loop_
_symmetry_equiv_pos_site_id
_symmetry_equiv_pos_as_xyz
1 x,y,z
2 1/2+x,1/2+y,z
3 x,-y,1/2+z
4 1/2+x,1/2-y,1/2+z
5 -x,-y,-z
6 1/2-x,1/2-y,-z
7 -x,y,1/2-z
8 1/2-x,1/2+y,1/2-z
_cell_length_a                   19.632(2)
_cell_length_b                   10.492(2)
_cell_length_c                   17.617(3)
_cell_angle_alpha                90.00
_cell_angle_beta                 107.470(12)
_cell_angle_gamma                90.00
_cell_volume                     3461.35
loop_
_atom_site_label
_atom_site_type_symbol
_atom_site_fract_x
_atom_site_fract_y
_atom_site_fract_z
C9 C 0.0256(6) 0.8039(9) 0.9216(6)
O11 O 0.0586(5) 0.8785(7) 0.9707(5)
O12 O -0.0016(7) 0.8334(12) 0.8456(6)
C10 C 0.0100(8) 0.6737(10) 0.9532(8)
C11 C 0.0163(9) 0.6633(13) 1.0337(7)
C12 C 0.0088(14) 0.5451(16) 1.0660(7)
C13 C 0.0050(17) 0.5626(12) 0.9822(10)
C15 C -0.0038(8) 0.5661(13) 0.9050(6)
C16 C 0.0148(13) 0.5445(19) 1.1550(8)
O13 O -0.0021(13) 0.5805(19) 0.8502(15)
O14 O 0.0202(10) 0.6388(16) 1.1954(10)
O15 O 0.0337(19) 0.6563(19) 1.1132(14)
C13D C -0.0050(17) 0.4374(12) 1.0178(10)
C15D C 0.0038(8) 0.4339(13) 1.0950(6)
C12D C -0.0088(14) 0.4549(16) 0.9340(7)
C16D C -0.0148(13) 0.4555(19) 0.8450(8)
O13D O 0.0021(13) 0.4195(19) 1.1498(15)
C10D C -0.0100(8) 0.3263(10) 1.0468(8)
C11D C -0.0163(9) 0.3367(13) 0.9663(7)
O15D O -0.0337(19) 0.3437(19) 0.8868(14)
O14D O -0.0202(10) 0.3612(16) 0.8046(10)
C9D C -0.0256(6) 0.1961(9) 1.0784(6)
O11D O -0.0586(5) 0.1215(7) 1.0293(5)
O12D O 0.0016(7) 0.1666(12) 1.1544(6)
O16 O 0.9456(7) 0.0971(13) 0.7824(8)
Dy1 Dy 0.727514(14) 1.20719(2) 0.815546(13)
C1 C 0.6802(3) 1.0036(5) 0.8930(3)
C2 C 0.6652(3) 0.8890(5) 0.9354(3)
C3 C 0.6398(3) 0.7764(5) 0.8940(3)
H1 H 0.6309 0.7731 0.8391
C4 C 0.6280(3) 0.6704(5) 0.9343(3)
C5 C 0.6419(3) 0.6732(5) 1.0155(3)
H2 H 0.6337 0.6010 1.0421
C6 C 0.6684(3) 0.7838(5) 1.0582(3)
C7 C 0.6785(3) 0.8925(5) 1.0173(3)
H3 H 0.6941 0.9677 1.0451
C8 C 0.6874(3) 0.7866(5) 1.1460(3)
O1 O 0.6841(3) 0.9928(4) 0.8233(2)
O2 O 0.6917(3) 1.1107(4) 0.9267(2)
O3 O 0.7117(2) 1.1134(4) 0.6838(2)
O4 O 0.6815(3) 1.3120(4) 0.6843(2)
O5 O 0.6014(3) 0.5627(4) 0.8908(3)
H4 H 0.5817 0.5176 0.9160
O6 O 0.8258(3) 1.0654(4) 0.8351(3)
O7 O 0.8175(3) 1.2567(5) 0.9413(2)
O8 O 0.8223(2) 1.3229(4) 0.7888(2)
O9 O 0.7062(2) 1.4202(4) 0.8467(3)
O10 O 0.6005(3) 1.2277(5) 0.7809(4)
O3B O 0.7117(2) 0.8866(4) 1.1838(2)
O4B O 0.6815(3) 0.6880(4) 1.1843(2)
C8B C 0.6874(3) 1.2134(5) 0.6460(3)
Dy1B Dy 0.727514(14) 0.79281(2) 1.315546(13)
C6B C 0.6684(3) 1.2162(5) 0.5582(3)
C5B C 0.6419(3) 1.3268(5) 0.5155(3)
C7B C 0.6785(3) 1.1075(5) 0.5173(3)
C4B C 0.6280(3) 1.3296(5) 0.4343(3)
H2B H 0.6337 1.3990 0.5421
C2B C 0.6652(3) 1.1110(5) 0.4354(3)
H3B H 0.6941 1.0323 0.5451
C3B C 0.6398(3) 1.2236(5) 0.3940(3)
O5B O 0.6014(3) 1.4373(4) 0.3908(3)
C1B C 0.6802(3) 0.9964(5) 0.3930(3)
H1B H 0.6309 1.2269 0.3391
H4B H 0.5817 1.4824 0.4160
O1B O 0.6841(3) 1.0072(4) 0.3233(2)
O2B O 0.6917(3) 0.8893(4) 0.4267(2)
Dy1B_2 Dy 0.727514(14) 0.79281(2) 0.315546(13)
O3B_2 O 0.7117(2) 0.8866(4) 0.1838(2)
O4B_2 O 0.6815(3) 0.6880(4) 0.1843(2)
O6B O 0.8258(3) 0.9346(4) 0.3351(3)
O7B O 0.8175(3) 0.7433(5) 0.4413(2)
O8B O 0.8223(2) 0.6771(4) 0.2888(2)
O9B O 0.7062(2) 0.5798(4) 0.3467(3)
O10B O 0.6005(3) 0.7723(5) 0.2809(4)
C14? C -0.0113(14) 0.4479(10) 0.9373(9)
loop_
_geom_bond_atom_site_label_1
_geom_bond_atom_site_label_2
_geom_bond_site_symmetry_1
_geom_bond_site_symmetry_2
Dy1 O1 1_555 1_555
C1 C2 1_555 1_555
C2 C3 1_555 1_555
C3 H1 1_555 1_555
C4 C3 1_555 1_555
C5 C4 1_555 1_555
H2 C5 1_555 1_555
C6 C5 1_555 1_555
C7 C2 1_555 1_555
H3 C7 1_555 1_555
C8 C6 1_555 1_555
O1 C1 1_555 1_555
O2 Dy1 1_555 1_555
O3 Dy1 1_555 1_555
O4 Dy1 1_555 1_555
O5 C4 1_555 1_555
H4 O5 1_555 1_555
O6 Dy1 1_555 1_555
O7 Dy1 1_555 1_555
O8 Dy1 1_555 1_555
O9 Dy1 1_555 1_555
O10 Dy1 1_555 1_555
C9 O11 1_555 1_555
O12 C9 1_555 1_555
C10 C9 1_555 1_555
C11 C10 1_555 1_555
C12 C11 1_555 1_555
C13 C10 1_555 1_555
C15 C10 1_555 1_555
C16 C12 1_555 1_555
O13 C15 1_555 1_555
O14 C16 1_555 1_555
O15 C11 1_555 1_555
O3B C8 1_555 1_555
O4B C8 1_555 1_555
C8B O3 1_555 1_555
C13D C12 1_555 1_555
C15D C12 1_555 1_555
C12D C13 1_555 1_555
C16D C15 1_555 1_555
O13D C16 1_555 1_555
Dy1B O3B 1_555 1_555
C6B C8B 1_555 1_555
C10D C13D 1_555 1_555
C11D C13D 1_555 1_555
O15D C12D 1_555 1_555
O14D C16D 1_555 1_555
C5B C6B 1_555 1_555
C7B C6B 1_555 1_555
C9D C10D 1_555 1_555
C4B C5B 1_555 1_555
H2B C5B 1_555 1_555
C2B C7B 1_555 1_555
H3B C7B 1_555 1_555
O11D C9D 1_555 1_555
O12D C9D 1_555 1_555
C3B C4B 1_555 1_555
O5B C4B 1_555 1_555
C1B C2B 1_555 1_555
H1B C3B 1_555 1_555
H4B O5B 1_555 1_555
O1B C1B 1_555 1_555
O2B C1B 1_555 1_555
Dy1B_2 O1B 1_555 1_555
O3B_2 Dy1B_2 1_555 1_555
O4B_2 Dy1B_2 1_555 1_555
O6B Dy1B_2 1_555 1_555
O7B Dy1B_2 1_555 1_555
O8B Dy1B_2 1_555 1_555
O9B Dy1B_2 1_555 1_555
O10B Dy1B_2 1_555 1_555
C1 O2 1_555 1_555
C6 C7 1_555 1_555
O4 C8B 1_555 1_555
C11 C13 1_555 1_555
C12 C13 1_555 1_555
C12 O15 1_555 1_555
C13 C13D 1_555 1_555
C13 C15 1_555 1_555
C15 C12D 1_555 1_555
C16 O15 1_555 1_555
C16 C15D 1_555 1_555
O13 C16D 1_555 1_555
O14 O15 1_555 1_555
O4B Dy1B 1_555 1_555
C13D C15D 1_555 1_555
C13D C12D 1_555 1_555
C15D O13D 1_555 1_555
C15D C10D 1_555 1_555
C12D C16D 1_555 1_555
C12D C11D 1_555 1_555
C16D O15D 1_555 1_555
C10D C11D 1_555 1_555
C11D O15D 1_555 1_555
O15D O14D 1_555 1_555
C2B C3B 1_555 1_555
O2B Dy1B_2 1_555 1_555

#END
