
#######################################################################
#
#                 Cambridge Crystallographic Data Centre
#                                CCDC 
#
#######################################################################
#
# If this CIF has been generated from an entry in the Cambridge 
# Structural Database, then it will include bibliographic, chemical, 
# crystal, experimental, refinement or atomic coordinate data resulting 
# from the CCDC's data processing and validation procedures.
#
#######################################################################

data_BELYEX
_symmetry_cell_setting           monoclinic
_symmetry_space_group_name_H-M   'C 2/c'
_symmetry_Int_Tables_number      15
_space_group_name_Hall           '-C 2yn'
loop_
_symmetry_equiv_pos_site_id
_symmetry_equiv_pos_as_xyz
1 x,y,z
2 1/2+x,1/2+y,z
3 x,-y,1/2+z
4 1/2+x,1/2-y,1/2+z
5 -x,-y,-z
6 1/2-x,1/2-y,-z
7 -x,y,1/2-z
8 1/2-x,1/2+y,1/2-z
_cell_length_a                   19.770(4)
_cell_length_b                   10.519(2)
_cell_length_c                   17.698(4)
_cell_angle_alpha                90
_cell_angle_beta                 107.52(3)
_cell_angle_gamma                90
_cell_volume                     3509.76
loop_
_atom_site_label
_atom_site_type_symbol
_atom_site_fract_x
_atom_site_fract_y
_atom_site_fract_z
O11 O 0.4389(5) 1.1249(7) 0.0299(4)
O12 O 0.5026(6) 1.1677(12) 0.1535(6)
O13 O 0.4775(8) 1.3638(17) -0.1930(11)
O14 O 0.4950(8) 1.414(3) 0.1624(19)
O15 O 0.4726(14) 1.360(3) -0.0956(16)
C9 C 0.4913(11) 1.452(2) -0.0556(11)
C10 C 0.4834(13) 1.348(2) -0.0318(15)
C11 C 0.4896(13) 1.333(2) 0.0547(13)
C12 C 0.5041(11) 1.441(2) 0.1000(11)
C13 C 0.4867(15) 1.459(3) -0.1497(15)
C14 C 0.4735(9) 1.1973(15) 0.0772(8)
C15 C 0.494(2) 1.442(4) 0.015(2)
O14D O 0.5050(8) 1.586(3) -0.1624(19)
C12D C 0.4959(11) 1.559(2) -0.1000(11)
C9D C 0.5087(11) 1.548(2) 0.0556(11)
O15D O 0.5274(14) 1.640(3) 0.0956(16)
O13D O 0.5225(8) 1.6362(17) 0.1930(11)
C13D C 0.5133(15) 1.541(3) 0.1497(15)
C10D C 0.5166(13) 1.652(2) 0.0318(15)
C15D C 0.506(2) 1.558(4) -0.015(2)
C11D C 0.5104(13) 1.667(2) -0.0547(13)
C14D C 0.5265(9) 1.8027(15) -0.0772(8)
O11D O 0.5611(5) 1.8751(7) -0.0299(4)
O12D O 0.4974(6) 1.8323(12) -0.1535(6)
O16 O 0.0577(7) 0.4042(15) 0.2149(5)
Tb1 Tb 0.272958(16) 0.29324(3) 0.184352(13)
O1 O 0.3156(3) 0.5080(4) 0.1760(2)
O2 O 0.3074(3) 0.3905(4) 0.0727(2)
O3 O 0.3196(3) 0.1887(4) 0.3162(2)
O4 O 0.2888(2) 0.3880(4) 0.31595(19)
O5 O 0.3974(3) 0.9382(4) 0.1079(2)
O6 O 0.1827(3) 0.2432(4) 0.0587(2)
O7 O 0.2947(2) 0.0783(4) 0.1538(2)
O8 O 0.1784(2) 0.1763(4) 0.2117(2)
O9 O 0.1739(3) 0.4357(4) 0.1645(2)
O10 O 0.4007(3) 0.2732(5) 0.2188(3)
C1 C 0.3343(3) 0.6112(6) 0.0638(3)
C2 C 0.3589(3) 0.7249(6) 0.1045(3)
H1 H 0.3669 0.7288 0.1590
C3 C 0.3709(3) 0.8289(6) 0.0653(3)
C4 C 0.3574(3) 0.8259(6) -0.0159(3)
H2 H 0.3657 0.8978 -0.0424
C5 C 0.3315(3) 0.7158(5) -0.0581(3)
C6 C 0.3214(3) 0.6076(6) -0.0175(3)
H3 H 0.3059 0.5326 -0.0452
C7 C 0.3190(3) 0.4973(6) 0.1052(3)
C8 C 0.3134(3) 0.2875(5) 0.3537(3)
C5B C 0.3315(3) 0.2842(5) 0.4419(3)
C4B C 0.3574(3) 0.1741(6) 0.4841(3)
C3B C 0.3709(3) 0.1711(6) 0.5653(3)
O5B O 0.3974(3) 0.0618(4) 0.6079(2)
C2B C 0.3589(3) 0.2751(6) 0.6045(3)
C1B C 0.3343(3) 0.3888(6) 0.5638(3)
C6B C 0.3214(3) 0.3924(6) 0.4825(3)
H3B H 0.3059 0.4674 0.4548
C7B C 0.3190(3) 0.5027(6) 0.6052(3)
O1B O 0.3156(3) 0.4920(4) 0.6760(2)
Tb1B Tb 0.272958(16) 0.70676(3) 0.684352(13)
O2B O 0.3074(3) 0.6095(4) 0.5727(2)
O3B O 0.3196(3) 0.8113(4) 0.8162(2)
O4B O 0.2888(2) 0.6120(4) 0.81595(19)
O6B O 0.1827(3) 0.7568(4) 0.5587(2)
O7B O 0.2947(2) 0.9217(4) 0.6538(2)
O8B O 0.1784(2) 0.8237(4) 0.7117(2)
O9B O 0.1739(3) 0.5643(4) 0.6645(2)
O10B O 0.4007(3) 0.7268(5) 0.7188(3)
H1B H 0.3669 0.2712 0.6590
H2B H 0.3657 0.1022 0.4576
C8B C 0.3134(3) 0.7125(5) -0.1463(3)
O3B_2 O 0.3196(3) 0.8113(4) -0.1838(2)
O4B_2 O 0.2888(2) 0.6120(4) -0.18405(19)
Tb1B_2 Tb 0.272958(16) 0.70676(3) -0.315648(13)
loop_
_geom_bond_atom_site_label_1
_geom_bond_atom_site_label_2
_geom_bond_site_symmetry_1
_geom_bond_site_symmetry_2
Tb1 O1 1_555 1_555
O1 C7 1_555 1_555
O2 Tb1 1_555 1_555
O3 Tb1 1_555 1_555
O4 Tb1 1_555 1_555
O5 C3 1_555 1_555
O6 Tb1 1_555 1_555
O7 Tb1 1_555 1_555
O8 Tb1 1_555 1_555
O9 Tb1 1_555 1_555
O10 Tb1 1_555 1_555
O11 C14 1_555 1_555
O12 C14 1_555 1_555
O13 O15 1_555 1_555
O14 C12 1_555 1_555
O15 C9 1_555 1_555
C1 C2 1_555 1_555
C2 H1 1_555 1_555
C3 C2 1_555 1_555
C4 C3 1_555 1_555
H2 C4 1_555 1_555
C5 C4 1_555 1_555
C6 C1 1_555 1_555
H3 C6 1_555 1_555
C7 O2 1_555 1_555
C8 O3 1_555 1_555
C9 C10 1_555 1_555
C10 O15 1_555 1_555
C11 C10 1_555 1_555
C12 C11 1_555 1_555
C13 O13 1_555 1_555
C14 C11 1_555 1_555
C15 C9 1_555 1_555
C5B C8 1_555 1_555
C4B C5B 1_555 1_555
C3B C4B 1_555 1_555
O5B C3B 1_555 1_555
C2B C3B 1_555 1_555
C1B C2B 1_555 1_555
C6B C5B 1_555 1_555
H3B C6B 1_555 1_555
C7B C1B 1_555 1_555
O1B C7B 1_555 1_555
Tb1B O1B 1_555 1_555
O2B C7B 1_555 1_555
O3B Tb1B 1_555 1_555
O4B Tb1B 1_555 1_555
O6B Tb1B 1_555 1_555
O7B Tb1B 1_555 1_555
O8B Tb1B 1_555 1_555
O9B Tb1B 1_555 1_555
O10B Tb1B 1_555 1_555
H1B C2B 1_555 1_555
H2B C4B 1_555 1_555
O14D C13 1_555 1_555
C12D C9 1_555 1_555
C9D C12 1_555 1_555
O15D C9D 1_555 1_555
O13D O15D 1_555 1_555
C13D O14 1_555 1_555
C10D C9D 1_555 1_555
C15D C9 1_555 1_555
C11D C12D 1_555 1_555
C14D C11D 1_555 1_555
O11D C14D 1_555 1_555
O12D C14D 1_555 1_555
C8B C5 1_555 1_555
O3B_2 C8B 1_555 1_555
O4B_2 C8B 1_555 1_555
Tb1B_2 O3B_2 1_555 1_555
O4 C8 1_555 1_555
O15 C13 1_555 1_555
C1 C7 1_555 1_555
C5 C6 1_555 1_555
C9 C13 1_555 1_555
C10 C15 1_555 1_555
C11 C15 1_555 1_555
C12 C13D 1_555 1_555
C12 C15 1_555 1_555
C13 C12D 1_555 1_555
C15 C9D 1_555 1_555
C15 C15D 1_555 1_555
C1B C6B 1_555 1_555
Tb1B O2B 1_555 1_555
O14D C12D 1_555 1_555
C12D C15D 1_555 1_555
C9D C15D 1_555 1_555
C9D C13D 1_555 1_555
O15D C10D 1_555 1_555
O15D C13D 1_555 1_555
O13D C13D 1_555 1_555
C10D C11D 1_555 1_555
C10D C15D 1_555 1_555
C15D C11D 1_555 1_555
O4B_2 Tb1B_2 1_555 1_555

#END
