
#######################################################################
#
#                 Cambridge Crystallographic Data Centre
#                                CCDC 
#
#######################################################################
#
# If this CIF has been generated from an entry in the Cambridge 
# Structural Database, then it will include bibliographic, chemical, 
# crystal, experimental, refinement or atomic coordinate data resulting 
# from the CCDC's data processing and validation procedures.
#
#######################################################################

data_BEMFUW
_symmetry_cell_setting           triclinic
_symmetry_space_group_name_H-M   'P -1'
_symmetry_Int_Tables_number      2
_space_group_name_Hall           '-P 1'
loop_
_symmetry_equiv_pos_site_id
_symmetry_equiv_pos_as_xyz
1 x,y,z
2 -x,-y,-z
_cell_length_a                   9.8575(7)
_cell_length_b                   13.2841(9)
_cell_length_c                   13.6252(9)
_cell_angle_alpha                85.0310(10)
_cell_angle_beta                 70.0980(10)
_cell_angle_gamma                85.6230(10)
_cell_volume                     1669.24
loop_
_atom_site_label
_atom_site_type_symbol
_atom_site_fract_x
_atom_site_fract_y
_atom_site_fract_z
Cu1 Cu 0.85820(3) 0.19113(2) 0.02714(2)
O1 O 1.2802(2) 0.11207(16) -0.49628(15)
O2 O 0.9071(2) 0.34624(17) -0.49236(16)
O3 O 0.3939(2) 0.35440(19) 0.51571(16)
O4 O 0.7422(2) 0.12052(16) 0.56218(16)
O5 O 0.77275(18) 0.06152(13) 0.02802(13)
O6 O 0.5869(2) 0.16558(13) 0.02397(15)
O7 O 0.92177(19) 0.32716(13) 0.02225(13)
O8 O 1.1525(2) 0.29577(14) 0.01103(15)
O9 O 1.05711(19) 0.10853(13) 0.05122(14)
H1 H 1.0850 0.0584 0.0134
H2 H 1.1204 0.1499 0.0479
N1 N 0.9275(2) 0.20311(16) -0.13183(16)
N2 N 1.1918(2) 0.17119(17) -0.52631(17)
N3 N 1.0205(2) 0.28841(18) -0.52490(17)
N4 N 0.7560(2) 0.20105(16) 0.18262(16)
N5 N 0.4723(3) 0.29837(19) 0.55837(17)
N6 N 0.6317(2) 0.18183(18) 0.58108(17)
C1 C 1.0274(3) 0.2198(2) -0.35038(19)
C2 C 0.9622(3) 0.3031(2) -0.2930(2)
H3 H 0.9513 0.3654 -0.3270
C3 C 0.9140(3) 0.29188(19) -0.1846(2)
H4 H 0.8707 0.3477 -0.1469
C4 C 0.9892(3) 0.1229(2) -0.1878(2)
H5 H 0.9970 0.0611 -0.1519
C5 C 1.0415(3) 0.1279(2) -0.2958(2)
H6 H 1.0854 0.0711 -0.3316
C6 C 1.0792(3) 0.2274(2) -0.4648(2)
C7 C 1.1925(3) 0.1812(2) -0.6376(2)
C8 C 1.1058(3) 0.0940(2) -0.6474(2)
H7 H 1.1490 0.0309 -0.6300
H8 H 1.1059 0.0949 -0.7180
H9 H 1.0082 0.1016 -0.6005
C9 C 1.3466(3) 0.1733(3) -0.7138(2)
H10 H 1.4025 0.2230 -0.7002
H11 H 1.3457 0.1850 -0.7841
H12 H 1.3886 0.1070 -0.7052
C10 C 1.1135(3) 0.2870(2) -0.6390(2)
C11 C 1.0211(3) 0.2982(3) -0.7091(2)
H13 H 0.9493 0.2484 -0.6866
H14 H 1.0812 0.2887 -0.7800
H15 H 0.9745 0.3646 -0.7048
C12 C 1.2118(3) 0.3754(2) -0.6597(2)
H16 H 1.1541 0.4366 -0.6392
H17 H 1.2672 0.3823 -0.7329
H18 H 1.2760 0.3630 -0.6200
C13 C 0.6368(3) 0.2210(2) 0.3975(2)
C14 C 0.6385(3) 0.3038(2) 0.3269(2)
H19 H 0.5996 0.3667 0.3508
C15 C 0.6988(3) 0.29108(19) 0.2213(2)
H20 H 0.7002 0.3467 0.1746
C16 C 0.7502(3) 0.1210(2) 0.2510(2)
H21 H 0.7865 0.0584 0.2249
C17 C 0.6933(3) 0.1269(2) 0.3580(2)
H22 H 0.6924 0.0699 0.4029
C18 C 0.5811(3) 0.2333(2) 0.5097(2)
C19 C 0.5324(3) 0.2014(2) 0.6903(2)
C20 C 0.4258(4) 0.1163(3) 0.7207(2)
H23 H 0.3738 0.1193 0.6723
H24 H 0.3590 0.1244 0.7901
H25 H 0.4780 0.0521 0.7187
C21 C 0.6179(3) 0.1981(3) 0.7646(2)
H26 H 0.6602 0.1312 0.7696
H27 H 0.5547 0.2157 0.8325
H28 H 0.6930 0.2454 0.7386
C22 C 0.4642(3) 0.3063(2) 0.6704(2)
C23 C 0.5563(4) 0.3947(2) 0.6673(3)
H29 H 0.6549 0.3790 0.6259
H30 H 0.5509 0.4063 0.7371
H31 H 0.5210 0.4544 0.6368
C24 C 0.3086(3) 0.3244(3) 0.7409(2)
H32 H 0.2742 0.3913 0.7250
H33 H 0.3038 0.3177 0.8127
H34 H 0.2495 0.2756 0.7294
C25 C 0.6463(3) 0.08019(19) 0.01845(18)
C26 C 0.5784(3) -0.01000(19) -0.0031(2)
H35 H 0.5834 -0.0655 0.0469
H36 H 0.6344 -0.0311 -0.0723
C27 C 1.0467(3) 0.35489(19) 0.01179(18)
C28 C 1.0670(3) 0.4676(2) -0.0016(2)
H37 H 1.1005 0.4864 0.0532
H38 H 1.1420 0.4825 -0.0680
Cu1A Cu 0.14180(3) -0.19113(2) -0.02714(2)
Cu1A_2 Cu 1.14180(3) 0.80887(2) -0.02714(2)
O1A O -0.2802(2) -0.11207(16) 0.49628(15)
O2A O 0.0929(2) -0.34624(17) 0.49236(16)
O3A O 0.6061(2) -0.35440(19) -0.51571(16)
O4A O 0.2578(2) -0.12052(16) -0.56218(16)
O5A O 0.22725(18) -0.06152(13) -0.02802(13)
O6A O 0.4131(2) -0.16558(13) -0.02397(15)
O7A O 1.07823(19) 0.67284(13) -0.02225(13)
O7A_2 O 0.07823(19) -0.32716(13) -0.02225(13)
O8A O 0.8475(2) 0.70423(14) -0.01103(15)
O9A O -0.05711(19) -0.10853(13) -0.05122(14)
H1A H -0.0850 -0.0584 -0.0134
H2A H -0.1204 -0.1499 -0.0479
N1A N 0.0725(2) -0.20311(16) 0.13183(16)
N2A N -0.1918(2) -0.17119(17) 0.52631(17)
N3A N -0.0205(2) -0.28841(18) 0.52490(17)
N4A N 0.2440(2) -0.20105(16) -0.18262(16)
N5A N 0.5277(3) -0.29837(19) -0.55837(17)
N6A N 0.3683(2) -0.18183(18) -0.58108(17)
C1A C -0.0274(3) -0.2198(2) 0.35038(19)
C2A C 0.0378(3) -0.3031(2) 0.2930(2)
H3A H 0.0487 -0.3654 0.3270
C3A C 0.0860(3) -0.29188(19) 0.1846(2)
H4A H 0.1293 -0.3477 0.1469
C4A C 0.0108(3) -0.1229(2) 0.1878(2)
H5A H 0.0030 -0.0611 0.1519
C5A C -0.0415(3) -0.1279(2) 0.2958(2)
H6A H -0.0854 -0.0711 0.3316
C6A C -0.0792(3) -0.2274(2) 0.4648(2)
C7A C -0.1925(3) -0.1812(2) 0.6376(2)
C8A C -0.1058(3) -0.0940(2) 0.6474(2)
H7A H -0.1490 -0.0309 0.6300
H8A H -0.1059 -0.0949 0.7180
H9A H -0.0082 -0.1016 0.6005
C9A C -0.3466(3) -0.1733(3) 0.7138(2)
H10A H -0.4025 -0.2230 0.7002
H11A H -0.3457 -0.1850 0.7841
H12A H -0.3886 -0.1070 0.7052
C10A C -0.1135(3) -0.2870(2) 0.6390(2)
C11A C -0.0211(3) -0.2982(3) 0.7091(2)
H13A H 0.0507 -0.2484 0.6866
H14A H -0.0812 -0.2887 0.7800
H15A H 0.0255 -0.3646 0.7048
C12A C -0.2118(3) -0.3754(2) 0.6597(2)
H16A H -0.1541 -0.4366 0.6392
H17A H -0.2672 -0.3823 0.7329
H18A H -0.2760 -0.3630 0.6200
C13A C 0.3632(3) -0.2210(2) -0.3975(2)
C14A C 0.3615(3) -0.3038(2) -0.3269(2)
H19A H 0.4004 -0.3667 -0.3508
C15A C 0.3012(3) -0.29108(19) -0.2213(2)
H20A H 0.2998 -0.3467 -0.1746
C16A C 0.2498(3) -0.1210(2) -0.2510(2)
H21A H 0.2135 -0.0584 -0.2249
C17A C 0.3067(3) -0.1269(2) -0.3580(2)
H22A H 0.3076 -0.0699 -0.4029
C18A C 0.4189(3) -0.2333(2) -0.5097(2)
C19A C 0.4676(3) -0.2014(2) -0.6903(2)
C20A C 0.5742(4) -0.1163(3) -0.7207(2)
H23A H 0.6262 -0.1193 -0.6723
H24A H 0.6410 -0.1244 -0.7901
H25A H 0.5220 -0.0521 -0.7187
C21A C 0.3821(3) -0.1981(3) -0.7646(2)
H26A H 0.3398 -0.1312 -0.7696
H27A H 0.4453 -0.2157 -0.8325
H28A H 0.3070 -0.2454 -0.7386
C22A C 0.5358(3) -0.3063(2) -0.6704(2)
C23A C 0.4437(4) -0.3947(2) -0.6673(3)
H29A H 0.3451 -0.3790 -0.6259
H30A H 0.4491 -0.4063 -0.7371
H31A H 0.4790 -0.4544 -0.6368
C24A C 0.6914(3) -0.3244(3) -0.7409(2)
H32A H 0.7258 -0.3913 -0.7250
H33A H 0.6962 -0.3177 -0.8127
H34A H 0.7505 -0.2756 -0.7294
C25A C 0.3537(3) -0.08019(19) -0.01845(18)
C26A C 0.4216(3) 0.01000(19) 0.0031(2)
H35A H 0.4166 0.0655 -0.0469
H36A H 0.3656 0.0311 0.0723
C27A C 0.9533(3) 0.64511(19) -0.01179(18)
C28A C 0.9330(3) 0.5324(2) 0.0016(2)
H37A H 0.8995 0.5136 -0.0532
H38A H 0.8580 0.5175 0.0680
O10 O 0.3544(3) 0.5366(2) 0.1131(2)
O11 O 0.5853(2) 0.65750(15) 0.97752(19)
H39 H 0.5353 0.7115 0.9725
H40 H 0.6661 0.6640 0.9854
O12 O 0.8167(5) 0.4986(3) 0.3862(3)
H41 H 0.7564 0.5420 0.4222
H42 H 0.8484 0.4510 0.4197
O13? O 0.532(2) 0.4741(14) 0.1185(15)
loop_
_geom_bond_atom_site_label_1
_geom_bond_atom_site_label_2
_geom_bond_site_symmetry_1
_geom_bond_site_symmetry_2
Cu1 O5 1_555 1_555
O1 N2 1_555 1_555
O2 N3 1_555 1_555
O3 N5 1_555 1_555
O4 N6 1_555 1_555
O5 C25 1_555 1_555
O6 C25 1_555 1_555
O7 Cu1 1_555 1_555
O8 C27 1_555 1_555
O9 Cu1 1_555 1_555
H1 O9 1_555 1_555
H2 O9 1_555 1_555
N1 Cu1 1_555 1_555
N2 C6 1_555 1_555
N3 C6 1_555 1_555
N4 Cu1 1_555 1_555
N5 C18 1_555 1_555
N6 C18 1_555 1_555
C1 C2 1_555 1_555
C2 H3 1_555 1_555
C3 N1 1_555 1_555
H4 C3 1_555 1_555
C4 N1 1_555 1_555
H5 C4 1_555 1_555
C5 C1 1_555 1_555
H6 C5 1_555 1_555
C6 C1 1_555 1_555
C7 N2 1_555 1_555
C8 C7 1_555 1_555
H7 C8 1_555 1_555
H8 C8 1_555 1_555
H9 C8 1_555 1_555
C9 C7 1_555 1_555
H10 C9 1_555 1_555
H11 C9 1_555 1_555
H12 C9 1_555 1_555
C10 N3 1_555 1_555
C11 C10 1_555 1_555
H13 C11 1_555 1_555
H14 C11 1_555 1_555
H15 C11 1_555 1_555
C12 C10 1_555 1_555
H16 C12 1_555 1_555
H17 C12 1_555 1_555
H18 C12 1_555 1_555
C13 C14 1_555 1_555
C14 H19 1_555 1_555
C15 N4 1_555 1_555
H20 C15 1_555 1_555
C16 N4 1_555 1_555
H21 C16 1_555 1_555
C17 C13 1_555 1_555
H22 C17 1_555 1_555
C18 C13 1_555 1_555
C19 N6 1_555 1_555
C20 C19 1_555 1_555
H23 C20 1_555 1_555
H24 C20 1_555 1_555
H25 C20 1_555 1_555
C21 C19 1_555 1_555
H26 C21 1_555 1_555
H27 C21 1_555 1_555
H28 C21 1_555 1_555
C22 N5 1_555 1_555
C23 C22 1_555 1_555
H29 C23 1_555 1_555
H30 C23 1_555 1_555
H31 C23 1_555 1_555
C24 C22 1_555 1_555
H32 C24 1_555 1_555
H33 C24 1_555 1_555
H34 C24 1_555 1_555
C25 C26 1_555 1_555
C26 H35 1_555 1_555
H36 C26 1_555 1_555
C27 O7 1_555 1_555
C28 C27 1_555 1_555
H37 C28 1_555 1_555
H38 C28 1_555 1_555
O11 H39 1_555 1_555
H40 O11 1_555 1_555
O12 H41 1_555 1_555
H42 O12 1_555 1_555
Cu1A O5A 1_555 1_555
Cu1A_2 O7A 1_555 1_555
O1A N2A 1_555 1_555
O2A N3A 1_555 1_555
O3A N5A 1_555 1_555
O4A N6A 1_555 1_555
O5A C25A 1_555 1_555
O6A C25A 1_555 1_555
O7A C27A 1_555 1_555
O7A_2 Cu1A 1_555 1_555
O8A C27A 1_555 1_555
O9A Cu1A 1_555 1_555
H1A O9A 1_555 1_555
H2A O9A 1_555 1_555
N1A Cu1A 1_555 1_555
N2A C6A 1_555 1_555
N3A C6A 1_555 1_555
N4A Cu1A 1_555 1_555
N5A C18A 1_555 1_555
N6A C18A 1_555 1_555
C1A C2A 1_555 1_555
C2A H3A 1_555 1_555
C3A N1A 1_555 1_555
H4A C3A 1_555 1_555
C4A N1A 1_555 1_555
H5A C4A 1_555 1_555
C5A C1A 1_555 1_555
H6A C5A 1_555 1_555
C6A C1A 1_555 1_555
C7A N2A 1_555 1_555
C8A C7A 1_555 1_555
H7A C8A 1_555 1_555
H8A C8A 1_555 1_555
H9A C8A 1_555 1_555
C9A C7A 1_555 1_555
H10A C9A 1_555 1_555
H11A C9A 1_555 1_555
H12A C9A 1_555 1_555
C10A N3A 1_555 1_555
C11A C10A 1_555 1_555
H13A C11A 1_555 1_555
H14A C11A 1_555 1_555
H15A C11A 1_555 1_555
C12A C10A 1_555 1_555
H16A C12A 1_555 1_555
H17A C12A 1_555 1_555
H18A C12A 1_555 1_555
C13A C14A 1_555 1_555
C14A H19A 1_555 1_555
C15A N4A 1_555 1_555
H20A C15A 1_555 1_555
C16A N4A 1_555 1_555
H21A C16A 1_555 1_555
C17A C13A 1_555 1_555
H22A C17A 1_555 1_555
C18A C13A 1_555 1_555
C19A N6A 1_555 1_555
C20A C19A 1_555 1_555
H23A C20A 1_555 1_555
H24A C20A 1_555 1_555
H25A C20A 1_555 1_555
C21A C19A 1_555 1_555
H26A C21A 1_555 1_555
H27A C21A 1_555 1_555
H28A C21A 1_555 1_555
C22A N5A 1_555 1_555
C23A C22A 1_555 1_555
H29A C23A 1_555 1_555
H30A C23A 1_555 1_555
H31A C23A 1_555 1_555
C24A C22A 1_555 1_555
H32A C24A 1_555 1_555
H33A C24A 1_555 1_555
H34A C24A 1_555 1_555
C25A C26A 1_555 1_555
C26A C26 1_555 1_555
H35A C26A 1_555 1_555
H36A C26A 1_555 1_555
C27A C28A 1_555 1_555
C28A C28 1_555 1_555
H37A C28A 1_555 1_555
H38A C28A 1_555 1_555
C2 C3 1_555 1_555
C4 C5 1_555 1_555
C7 C10 1_555 1_555
C14 C15 1_555 1_555
C16 C17 1_555 1_555
C19 C22 1_555 1_555
C2A C3A 1_555 1_555
C4A C5A 1_555 1_555
C7A C10A 1_555 1_555
C14A C15A 1_555 1_555
C16A C17A 1_555 1_555
C19A C22A 1_555 1_555

#END
