
#######################################################################
#
#                 Cambridge Crystallographic Data Centre
#                                CCDC 
#
#######################################################################
#
# If this CIF has been generated from an entry in the Cambridge 
# Structural Database, then it will include bibliographic, chemical, 
# crystal, experimental, refinement or atomic coordinate data resulting 
# from the CCDC's data processing and validation procedures.
#
#######################################################################

data_BEMFOQ
_symmetry_cell_setting           monoclinic
_symmetry_space_group_name_H-M   'P 21/c'
_symmetry_Int_Tables_number      14
_space_group_name_Hall           '-P 2ybc'
loop_
_symmetry_equiv_pos_site_id
_symmetry_equiv_pos_as_xyz
1 x,y,z
2 -x,1/2+y,1/2-z
3 -x,-y,-z
4 x,1/2-y,1/2+z
_cell_length_a                   14.1355(10)
_cell_length_b                   17.9491(12)
_cell_length_c                   27.4374(16)
_cell_angle_alpha                90
_cell_angle_beta                 110.559(3)
_cell_angle_gamma                90
_cell_volume                     6518.04
loop_
_atom_site_label
_atom_site_type_symbol
_atom_site_fract_x
_atom_site_fract_y
_atom_site_fract_z
Cd1 Cd 0.090512(11) 0.608507(7) 0.746208(6)
O1 O 0.56888(12) 0.59719(9) 0.97101(7)
O2 O 0.31209(11) 0.67334(10) 1.02715(7)
O3 O -0.34539(11) 0.58096(9) 0.50225(6)
O4 O -0.07321(11) 0.66962(10) 0.46384(6)
O5 O 0.10601(10) 0.47203(8) 0.73938(6)
O6 O -0.01793(11) 0.51881(8) 0.76078(6)
O7 O 0.04448(11) 0.18889(8) 0.73867(6)
O8 O -0.08773(10) 0.24098(8) 0.74841(6)
O9 O 0.22218(10) 0.62830(8) 0.71408(6)
H1 H 0.2331 0.6750 0.7161
H2 H 0.2733 0.5999 0.7258
N1 N 0.20882(14) 0.60862(9) 0.83088(7)
N2 N 0.52058(14) 0.61825(10) 1.00006(7)
N3 N 0.39777(13) 0.65068(10) 1.02725(7)
N4 N -0.00837(14) 0.60757(9) 0.65735(7)
N5 N -0.29208(13) 0.60919(10) 0.47770(7)
N6 N -0.16059(13) 0.64532(10) 0.45900(7)
C1 C 0.34790(16) 0.62305(11) 0.93249(9)
C2 C 0.37753(16) 0.63139(12) 0.88955(9)
H13 H 0.4446 0.6415 0.8941
C3 C 0.30678(16) 0.62457(12) 0.84025(9)
H14 H 0.3277 0.6313 0.8120
C4 C 0.18116(16) 0.59878(11) 0.87259(9)
H15 H 0.1142 0.5865 0.8668
C5 C 0.24608(17) 0.60579(11) 0.92341(9)
H16 H 0.2231 0.5993 0.9510
C6 C 0.42014(16) 0.63067(12) 0.98528(8)
C7 C 0.57403(16) 0.63868(12) 1.05614(8)
C8 C 0.65717(17) 0.58209(13) 1.08094(10)
H17 H 0.6287 0.5329 1.0765
H18 H 0.6883 0.5927 1.1174
H19 H 0.7070 0.5850 1.0646
C9 C 0.61900(16) 0.71611(12) 1.05614(9)
H20 H 0.6675 0.7140 1.0389
H21 H 0.6517 0.7326 1.0914
H22 H 0.5661 0.7503 1.0381
C10 C 0.48511(15) 0.63759(12) 1.07687(8)
C11 C 0.48773(16) 0.69829(12) 1.11567(9)
H23 H 0.4914 0.7461 1.1007
H24 H 0.5459 0.6915 1.1466
H25 H 0.4276 0.6957 1.1243
C12 C 0.46659(17) 0.56152(12) 1.09728(9)
H26 H 0.4046 0.5630 1.1042
H27 H 0.5215 0.5500 1.1288
H28 H 0.4620 0.5240 1.0716
C13 C -0.12874(16) 0.61743(11) 0.55226(9)
C14 C -0.02489(16) 0.60361(11) 0.56713(9)
H29 H 0.0055 0.5975 0.5423
C15 C 0.03133(16) 0.59926(11) 0.61994(9)
H30 H 0.1003 0.5901 0.6299
C16 C -0.10831(16) 0.62006(11) 0.64274(9)
H31 H -0.1369 0.6254 0.6683
C17 C -0.16996(15) 0.62532(11) 0.59121(8)
H32 H -0.2388 0.6341 0.5825
C18 C -0.19184(16) 0.62359(12) 0.49768(9)
C19 C -0.33678(15) 0.63571(12) 0.42215(8)
C20 C -0.37492(16) 0.71467(12) 0.42462(9)
H33 H -0.4270 0.7134 0.4396
H34 H -0.4017 0.7351 0.3901
H35 H -0.3200 0.7452 0.4457
C21 C -0.42296(16) 0.58469(13) 0.39213(9)
H36 H -0.3985 0.5345 0.3940
H37 H -0.4499 0.6003 0.3564
H38 H -0.4750 0.5870 0.4070
C22 C -0.24105(15) 0.63279(12) 0.40656(8)
C23 C -0.22087(17) 0.55591(12) 0.38837(9)
H39 H -0.1543 0.5549 0.3865
H40 H -0.2699 0.5457 0.3546
H41 H -0.2257 0.5188 0.4126
C24 C -0.23417(17) 0.69263(13) 0.36918(9)
H42 H -0.2416 0.7407 0.3828
H43 H -0.2869 0.6855 0.3361
H44 H -0.1697 0.6897 0.3650
C25 C 0.02688(15) 0.46391(11) 0.74995(8)
C26 C -0.01912(16) 0.38747(11) 0.74882(9)
H45 H -0.0833 0.3860 0.7202
H46 H -0.0331 0.3809 0.7807
C27 C 0.04410(15) 0.32212(11) 0.74312(9)
H47 H 0.1089 0.3239 0.7713
H48 H 0.0566 0.3277 0.7107
C28 C -0.00300(15) 0.24610(11) 0.74339(8)
Cd1A Cd -0.090512(11) 0.108507(7) 0.753792(6)
O7A O -0.04448(11) 0.68889(8) 0.76133(6)
O8A O 0.08773(10) 0.74098(8) 0.75159(6)
Cd2 Cd 0.662069(10) 0.597871(8) 0.742228(6)
O10 O 0.17592(11) 0.58372(10) 0.51776(6)
O11 O 0.42703(11) 0.67941(9) 0.46442(6)
O12 O 1.09042(11) 0.58013(9) 0.99057(6)
O13 O 0.81527(11) 0.67817(9) 1.02194(6)
O14 O 0.66541(12) 0.40639(8) 0.74519(8)
O15 O 0.57320(11) 0.50095(8) 0.75587(6)
O16 O 0.43991(11) 0.18189(8) 0.73912(6)
O17 O 0.36308(11) 0.28036(8) 0.75807(6)
O18 O 0.77240(10) 0.51608(8) 0.72477(6)
H3 H 0.8311 0.5316 0.7427
H4 H 0.7559 0.4731 0.7322
O19 O 0.75145(11) 0.68613(8) 0.71497(6)
H5 H 0.8127 0.6793 0.7342
H6 H 0.7249 0.7275 0.7181
N7 N 0.53932(14) 0.60260(9) 0.65728(8)
N8 N 0.22219(14) 0.61144(10) 0.48973(7)
N9 N 0.34339(13) 0.65187(10) 0.46387(7)
N10 N 0.76161(14) 0.60331(9) 0.83110(7)
N11 N 1.03559(14) 0.61064(10) 1.01340(7)
N12 N 0.90249(13) 0.65109(10) 1.02888(7)
C29 C 0.39531(16) 0.61785(11) 0.55752(9)
C30 C 0.36850(16) 0.62407(12) 0.60161(8)
H49 H 0.3018 0.6333 0.5983
C31 C 0.44168(16) 0.61636(11) 0.65003(9)
H50 H 0.4229 0.6209 0.6792
C32 C 0.56433(16) 0.59529(11) 0.61499(9)
H51 H 0.6314 0.5848 0.6196
C33 C 0.49643(16) 0.60236(11) 0.56464(9)
H52 H 0.5174 0.5970 0.5363
C34 C 0.32192(15) 0.62739(12) 0.50510(8)
C35 C 0.16863(15) 0.63610(11) 0.43423(8)
C36 C 0.08379(16) 0.58191(12) 0.40741(9)
H53 H 0.1109 0.5325 0.4094
H54 H 0.0521 0.5960 0.3716
H55 H 0.0348 0.5830 0.4243
C37 C 0.12703(16) 0.71380(12) 0.43708(9)
H56 H 0.0806 0.7114 0.4555
H57 H 0.0926 0.7321 0.4025
H58 H 0.1817 0.7467 0.4550
C38 C 0.25788(15) 0.63576(11) 0.41390(8)
C39 C 0.28087(17) 0.55924(12) 0.39661(9)
H59 H 0.3442 0.5609 0.3911
H60 H 0.2282 0.5454 0.3648
H61 H 0.2847 0.5232 0.4231
C40 C 0.25373(17) 0.69465(12) 0.37356(9)
H62 H 0.2499 0.7431 0.3875
H63 H 0.1952 0.6866 0.3430
H64 H 0.3134 0.6915 0.3646
C41 C 0.87537(16) 0.61904(11) 0.93642(9)
C42 C 0.92001(16) 0.62506(12) 0.89896(9)
H65 H 0.9889 0.6345 0.9087
C43 C 0.86156(16) 0.61694(12) 0.84719(9)
H66 H 0.8923 0.6210 0.8224
C44 C 0.71883(16) 0.59786(11) 0.86744(9)
H67 H 0.6498 0.5886 0.8566
C45 C 0.77128(17) 0.60525(11) 0.91990(9)
H68 H 0.7385 0.6012 0.9438
C46 C 0.93599(16) 0.62680(12) 0.99164(9)
C47 C 1.07783(15) 0.63840(12) 1.06874(8)
C48 C 1.12001(16) 0.71614(12) 1.06657(9)
H69 H 1.1720 0.7131 1.0517
H70 H 1.1477 0.7362 1.1011
H71 H 1.0668 0.7480 1.0455
C49 C 1.16043(17) 0.58636(13) 1.10118(9)
H72 H 1.1343 0.5366 1.0986
H73 H 1.1836 0.6021 1.1369
H74 H 1.2157 0.5874 1.0886
C50 C 0.97978(15) 0.63899(11) 1.08200(8)
C51 C 0.97331(16) 0.70131(12) 1.11814(9)
H75 H 0.9751 0.7485 1.1021
H76 H 1.0295 0.6979 1.1503
H77 H 0.9113 0.6969 1.1249
C52 C 0.95471(17) 0.56360(12) 1.10060(9)
H78 H 0.8883 0.5655 1.1026
H79 H 1.0032 0.5526 1.1344
H80 H 0.9569 0.5255 1.0765
C53 C 0.58931(15) 0.43241(11) 0.75198(8)
C54 C 0.50754(15) 0.38051(11) 0.75538(9)
H81 H 0.4436 0.3967 0.7301
H82 H 0.5028 0.3860 0.7896
C55 C 0.52063(15) 0.29854(11) 0.74635(9)
H83 H 0.5280 0.2926 0.7127
H84 H 0.5825 0.2811 0.7727
C56 C 0.43388(15) 0.25028(11) 0.74781(8)
Cd2A Cd 0.337931(10) 0.097871(8) 0.757772(6)
O16A O 0.56009(11) 0.68189(8) 0.76088(6)
O20 O 0.38093(12) 0.53962(9) 0.75378(8)
H7 H 0.3564 0.5015 0.7633
H8 H 0.4414 0.5364 0.7544
O21 O 0.22753(11) 0.78049(8) 0.71082(7)
H9 H 0.2675 0.8173 0.7208
H10 H 0.1816 0.7762 0.7240
O22 O 0.30003(11) 0.41671(9) 0.78420(7)
H11 H 0.2394 0.4301 0.7680
H12 H 0.3174 0.3739 0.7770
loop_
_geom_bond_atom_site_label_1
_geom_bond_atom_site_label_2
_geom_bond_site_symmetry_1
_geom_bond_site_symmetry_2
Cd1 O5 1_555 1_555
Cd2 O15 1_555 1_555
O1 N2 1_555 1_555
O2 N3 1_555 1_555
O3 N5 1_555 1_555
O4 N6 1_555 1_555
O5 C25 1_555 1_555
O6 Cd1 1_555 1_555
O7 C28 1_555 1_555
O8 C28 1_555 1_555
O9 Cd1 1_555 1_555
H1 O9 1_555 1_555
H2 O9 1_555 1_555
O10 N8 1_555 1_555
O11 N9 1_555 1_555
O12 N11 1_555 1_555
O13 N12 1_555 1_555
O14 C53 1_555 1_555
O15 C53 1_555 1_555
O16 C56 1_555 1_555
O17 C56 1_555 1_555
O18 Cd2 1_555 1_555
H3 O18 1_555 1_555
H4 O18 1_555 1_555
O19 Cd2 1_555 1_555
H5 O19 1_555 1_555
H6 O19 1_555 1_555
O20 H7 1_555 1_555
H8 O20 1_555 1_555
O21 H9 1_555 1_555
H10 O21 1_555 1_555
O22 H11 1_555 1_555
H12 O22 1_555 1_555
N1 Cd1 1_555 1_555
N2 C6 1_555 1_555
N3 C6 1_555 1_555
N4 Cd1 1_555 1_555
N5 C18 1_555 1_555
N6 C18 1_555 1_555
N7 Cd2 1_555 1_555
N8 C34 1_555 1_555
N9 C34 1_555 1_555
N10 Cd2 1_555 1_555
N11 C46 1_555 1_555
N12 C46 1_555 1_555
C1 C2 1_555 1_555
C2 H13 1_555 1_555
C3 N1 1_555 1_555
H14 C3 1_555 1_555
C4 N1 1_555 1_555
H15 C4 1_555 1_555
C5 C1 1_555 1_555
H16 C5 1_555 1_555
C6 C1 1_555 1_555
C7 N2 1_555 1_555
C8 C7 1_555 1_555
H17 C8 1_555 1_555
H18 C8 1_555 1_555
H19 C8 1_555 1_555
C9 C7 1_555 1_555
H20 C9 1_555 1_555
H21 C9 1_555 1_555
H22 C9 1_555 1_555
C10 N3 1_555 1_555
C11 C10 1_555 1_555
H23 C11 1_555 1_555
H24 C11 1_555 1_555
H25 C11 1_555 1_555
C12 C10 1_555 1_555
H26 C12 1_555 1_555
H27 C12 1_555 1_555
H28 C12 1_555 1_555
C13 C14 1_555 1_555
C14 H29 1_555 1_555
C15 N4 1_555 1_555
H30 C15 1_555 1_555
C16 N4 1_555 1_555
H31 C16 1_555 1_555
C17 C13 1_555 1_555
H32 C17 1_555 1_555
C18 C13 1_555 1_555
C19 N5 1_555 1_555
C20 C19 1_555 1_555
H33 C20 1_555 1_555
H34 C20 1_555 1_555
H35 C20 1_555 1_555
C21 C19 1_555 1_555
H36 C21 1_555 1_555
H37 C21 1_555 1_555
H38 C21 1_555 1_555
C22 N6 1_555 1_555
C23 C22 1_555 1_555
H39 C23 1_555 1_555
H40 C23 1_555 1_555
H41 C23 1_555 1_555
C24 C22 1_555 1_555
H42 C24 1_555 1_555
H43 C24 1_555 1_555
H44 C24 1_555 1_555
C25 O6 1_555 1_555
C26 C25 1_555 1_555
H45 C26 1_555 1_555
H46 C26 1_555 1_555
C27 C26 1_555 1_555
H47 C27 1_555 1_555
H48 C27 1_555 1_555
C28 C27 1_555 1_555
C29 C30 1_555 1_555
C30 H49 1_555 1_555
C31 N7 1_555 1_555
H50 C31 1_555 1_555
C32 N7 1_555 1_555
H51 C32 1_555 1_555
C33 C29 1_555 1_555
H52 C33 1_555 1_555
C34 C29 1_555 1_555
C35 N8 1_555 1_555
C36 C35 1_555 1_555
H53 C36 1_555 1_555
H54 C36 1_555 1_555
H55 C36 1_555 1_555
C37 C35 1_555 1_555
H56 C37 1_555 1_555
H57 C37 1_555 1_555
H58 C37 1_555 1_555
C38 N9 1_555 1_555
C39 C38 1_555 1_555
H59 C39 1_555 1_555
H60 C39 1_555 1_555
H61 C39 1_555 1_555
C40 C38 1_555 1_555
H62 C40 1_555 1_555
H63 C40 1_555 1_555
H64 C40 1_555 1_555
C41 C42 1_555 1_555
C42 H65 1_555 1_555
C43 N10 1_555 1_555
H66 C43 1_555 1_555
C44 N10 1_555 1_555
H67 C44 1_555 1_555
C45 C41 1_555 1_555
H68 C45 1_555 1_555
C46 C41 1_555 1_555
C47 N11 1_555 1_555
C48 C47 1_555 1_555
H69 C48 1_555 1_555
H70 C48 1_555 1_555
H71 C48 1_555 1_555
C49 C47 1_555 1_555
H72 C49 1_555 1_555
H73 C49 1_555 1_555
H74 C49 1_555 1_555
C50 N12 1_555 1_555
C51 C50 1_555 1_555
H75 C51 1_555 1_555
H76 C51 1_555 1_555
H77 C51 1_555 1_555
C52 C50 1_555 1_555
H78 C52 1_555 1_555
H79 C52 1_555 1_555
H80 C52 1_555 1_555
C53 C54 1_555 1_555
C54 H81 1_555 1_555
H82 C54 1_555 1_555
C55 C54 1_555 1_555
H83 C55 1_555 1_555
H84 C55 1_555 1_555
C56 C55 1_555 1_555
Cd1A O7 1_555 1_555
Cd2A O16 1_555 1_555
O7A Cd1 1_555 1_555
O8A Cd1 1_555 1_555
O16A Cd2 1_555 1_555
O8 Cd1A 1_555 1_555
C2 C3 1_555 1_555
C4 C5 1_555 1_555
C7 C10 1_555 1_555
C14 C15 1_555 1_555
C16 C17 1_555 1_555
C19 C22 1_555 1_555
C30 C31 1_555 1_555
C32 C33 1_555 1_555
C35 C38 1_555 1_555
C42 C43 1_555 1_555
C44 C45 1_555 1_555
C47 C50 1_555 1_555

#END
