
#######################################################################
#
#                 Cambridge Crystallographic Data Centre
#                                CCDC 
#
#######################################################################
#
# If this CIF has been generated from an entry in the Cambridge 
# Structural Database, then it will include bibliographic, chemical, 
# crystal, experimental, refinement or atomic coordinate data resulting 
# from the CCDC's data processing and validation procedures.
#
#######################################################################

data_BEMFIK
_symmetry_cell_setting           triclinic
_symmetry_space_group_name_H-M   'P -1'
_symmetry_Int_Tables_number      2
_space_group_name_Hall           '-P 1'
loop_
_symmetry_equiv_pos_site_id
_symmetry_equiv_pos_as_xyz
1 x,y,z
2 -x,-y,-z
_cell_length_a                   7.0865(7)
_cell_length_b                   9.3436(9)
_cell_length_c                   16.2976(17)
_cell_angle_alpha                81.464(2)
_cell_angle_beta                 87.436(2)
_cell_angle_gamma                69.6750(10)
_cell_volume                     1000.69
loop_
_atom_site_label
_atom_site_type_symbol
_atom_site_fract_x
_atom_site_fract_y
_atom_site_fract_z
Zn1 Zn -0.01348(3) 0.28362(2) 0.128175(13)
O1 O 0.6036(2) 0.1885(2) 0.47366(9)
O2 O -0.0579(2) 0.3445(2) 0.55823(10)
O3 O -0.3891(2) 0.41483(18) 0.18342(10)
O4 O -0.2176(2) 0.47568(16) 0.07657(9)
O5 O -0.7339(2) 0.97887(17) 0.14919(10)
O6 O -1.0530(2) 1.09366(15) 0.11125(9)
O7 O 0.2133(2) 0.31866(19) 0.06089(10)
H1 H 0.2102 0.3795 0.0163
H2 H 0.3314 0.2522 0.0635
N1 N 0.0723(2) 0.27778(17) 0.24695(9)
N2 N 0.4467(2) 0.22877(19) 0.51828(10)
N3 N 0.1333(2) 0.29156(19) 0.55960(10)
C1 C 0.1903(3) 0.2726(2) 0.40861(11)
C2 C 0.0149(3) 0.2446(2) 0.39328(12)
H3 H -0.0651 0.2237 0.4369
C3 C -0.0377(3) 0.2485(2) 0.31244(12)
H4 H -0.1549 0.2301 0.3026
C4 C 0.2421(3) 0.3034(2) 0.26212(12)
H5 H 0.3206 0.3223 0.2174
C5 C 0.3045(3) 0.3028(2) 0.34075(12)
H6 H 0.4219 0.3224 0.3487
C6 C 0.2548(3) 0.2663(2) 0.49309(12)
C7 C 0.4571(3) 0.2494(2) 0.60790(11)
C8 C 0.4682(3) 0.4100(2) 0.60678(13)
H7 H 0.5879 0.4153 0.5785
H8 H 0.4716 0.4300 0.6627
H9 H 0.3522 0.4856 0.5785
C9 C 0.6419(3) 0.1266(3) 0.64897(14)
H10 H 0.6430 0.0268 0.6405
H11 H 0.6395 0.1323 0.7074
H12 H 0.7604 0.1428 0.6251
C10 C 0.2528(3) 0.2371(2) 0.63929(11)
C11 C 0.1509(3) 0.3391(3) 0.70418(13)
H13 H 0.1338 0.4444 0.6831
H14 H 0.2327 0.3075 0.7535
H15 H 0.0217 0.3299 0.7170
C12 C 0.2583(4) 0.0721(2) 0.66717(15)
H16 H 0.1235 0.0720 0.6759
H17 H 0.3339 0.0313 0.7180
H18 H 0.3209 0.0093 0.6251
C13 C -0.3793(3) 0.5027(2) 0.12102(12)
C14 C -0.5510(3) 0.6484(2) 0.09072(13)
H19 H -0.5826 0.6450 0.0339
H20 H -0.5063 0.7356 0.0903
C15 C -0.7419(3) 0.6761(2) 0.14127(13)
H21 H -0.7116 0.6809 0.1980
H22 H -0.7873 0.5893 0.1419
C16 C -0.9123(3) 0.8241(2) 0.10830(13)
H23 H -0.9230 0.8282 0.0488
H24 H -1.0373 0.8183 0.1326
C17 C -0.8915(3) 0.9727(2) 0.12479(11)
Zn1_2 Zn -1.01348(3) 1.28362(2) 0.128175(13)
O6_2 O -0.0530(2) 0.09366(15) 0.11125(9)
O8 O 0.5636(3) 0.0928(3) 0.08081(18)
H25 H 0.6818 0.0764 0.0980
H26 H 0.5337 0.0156 0.1035
loop_
_geom_bond_atom_site_label_1
_geom_bond_atom_site_label_2
_geom_bond_site_symmetry_1
_geom_bond_site_symmetry_2
Zn1 O4 1_555 1_555
O1 N2 1_555 1_555
O2 N3 1_555 1_555
O3 C13 1_555 1_555
O4 C13 1_555 1_555
O5 C17 1_555 1_555
O6 C17 1_555 1_555
O7 Zn1 1_555 1_555
H1 O7 1_555 1_555
H2 O7 1_555 1_555
N1 Zn1 1_555 1_555
N2 C6 1_555 1_555
N3 C6 1_555 1_555
C1 C2 1_555 1_555
C2 H3 1_555 1_555
C3 N1 1_555 1_555
H4 C3 1_555 1_555
C4 N1 1_555 1_555
H5 C4 1_555 1_555
C5 C1 1_555 1_555
H6 C5 1_555 1_555
C6 C1 1_555 1_555
C7 N2 1_555 1_555
C8 C7 1_555 1_555
H7 C8 1_555 1_555
H8 C8 1_555 1_555
H9 C8 1_555 1_555
C9 C7 1_555 1_555
H10 C9 1_555 1_555
H11 C9 1_555 1_555
H12 C9 1_555 1_555
C10 N3 1_555 1_555
C11 C10 1_555 1_555
H13 C11 1_555 1_555
H14 C11 1_555 1_555
H15 C11 1_555 1_555
C12 C10 1_555 1_555
H16 C12 1_555 1_555
H17 C12 1_555 1_555
H18 C12 1_555 1_555
C13 C14 1_555 1_555
C14 H19 1_555 1_555
H20 C14 1_555 1_555
C15 C14 1_555 1_555
H21 C15 1_555 1_555
H22 C15 1_555 1_555
C16 C15 1_555 1_555
H23 C16 1_555 1_555
H24 C16 1_555 1_555
C17 C16 1_555 1_555
O8 H25 1_555 1_555
H26 O8 1_555 1_555
Zn1_2 O6 1_555 1_555
O6_2 Zn1 1_555 1_555
C2 C3 1_555 1_555
C4 C5 1_555 1_555
C7 C10 1_555 1_555

#END
