
#######################################################################
#
#                 Cambridge Crystallographic Data Centre
#                                CCDC 
#
#######################################################################
#
# If this CIF has been generated from an entry in the Cambridge 
# Structural Database, then it will include bibliographic, chemical, 
# crystal, experimental, refinement or atomic coordinate data resulting 
# from the CCDC's data processing and validation procedures.
#
#######################################################################

data_BEMHIL
_symmetry_cell_setting           monoclinic
_symmetry_space_group_name_H-M   'P 21/c'
_symmetry_Int_Tables_number      14
_space_group_name_Hall           '-P 2ybc'
loop_
_symmetry_equiv_pos_site_id
_symmetry_equiv_pos_as_xyz
1 x,y,z
2 x,1/2-y,1/2+z
3 -x,-y,-z
4 -x,1/2+y,1/2-z
_cell_length_a                   19.504(4)
_cell_length_b                   16.407(3)
_cell_length_c                   24.360(5)
_cell_angle_alpha                90
_cell_angle_beta                 92.68(3)
_cell_angle_gamma                90
_cell_volume                     7786.73
loop_
_atom_site_label
_atom_site_type_symbol
_atom_site_fract_x
_atom_site_fract_y
_atom_site_fract_z
Re1 Re -0.31935(4) -0.15224(5) -0.10903(3)
Re2 Re -0.20328(4) -0.17074(5) -0.10984(4)
P1 P -0.3307(3) -0.2295(3) -0.0254(2)
P2 P -0.1907(3) -0.2908(4) -0.0534(2)
O1 O -0.3131(7) -0.0632(8) -0.1732(6)
P3 P -0.3578(3) -0.2592(3) -0.1702(2)
P4 P -0.2077(3) -0.2451(4) -0.1950(3)
O2 O -0.3001(7) -0.0453(8) -0.0620(6)
Re3 Re -0.02879(8) -0.06766(10) -0.10587(8)
O3 O -0.1996(7) -0.0587(8) -0.1541(6)
C1 C -0.3064(10) -0.1757(11) 0.0378(8)
O4 O -0.0912(10) -0.1455(12) -0.1084(8)
C2 C -0.2752(10) -0.3198(12) -0.0276(9)
H1 H -0.2971 -0.3615 -0.0520
H2 H -0.2689 -0.3434 0.0097
O5 O -0.4257(7) -0.1023(8) -0.1097(6)
C3 C -0.4090(12) -0.2306(13) -0.2320(9)
C4 C -0.2837(10) -0.3119(12) -0.1997(8)
H3 H -0.2739 -0.3631 -0.1793
H4 H -0.2948 -0.3259 -0.2386
Ag1 Ag -0.22314(11) 0.24501(14) 0.14519(10)
C5 C -0.2381(12) -0.1584(13) 0.1216(9)
H5 H -0.1993 -0.1746 0.1441
C6 C -0.2560(11) -0.2053(13) 0.0750(9)
H6 H -0.2342 -0.2561 0.0690
O6 O -0.1919(7) -0.0860(8) -0.0436(6)
N1 N -0.2261(9) 0.1538(12) 0.0832(9)
C7 C -0.4814(11) -0.3173(14) -0.1372(9)
H7 H -0.4955 -0.2627 -0.1442
C8 C -0.4138(10) -0.3409(12) -0.1451(8)
C9 C -0.3955(12) -0.4229(13) -0.1393(9)
H8 H -0.3507 -0.4400 -0.1479
C10 C -0.1805(12) 0.0377(14) 0.0393(10)
H9 H -0.1429 0.0014 0.0366
C11 C -0.1766(13) 0.0925(14) 0.0788(10)
H10 H -0.1391 0.0904 0.1051
C12 C -0.4269(13) -0.2899(17) -0.2719(11)
H11 H -0.4143 -0.3451 -0.2652
C13 C -0.3396(11) -0.1008(12) 0.0511(8)
H12 H -0.3730 -0.0785 0.0257
C14 C -0.4285(11) -0.3508(12) 0.0025(8)
H13 H -0.3929 -0.3902 0.0014
C15 C -0.2333(12) 0.0292(14) 0.0027(10)
C16 C -0.2415(10) -0.0367(11) -0.0363(8)
C17 C -0.2848(11) 0.0905(12) 0.0070(9)
H14 H -0.3243 0.0889 -0.0173
C18 C -0.4150(10) -0.2679(12) -0.0084(8)
C19 C -0.4930(11) -0.3733(14) 0.0144(9)
H15 H -0.5031 -0.4293 0.0197
N2 N -0.2348(11) 0.1643(12) -0.2935(9)
C20 C -0.2787(12) 0.1506(14) 0.0447(10)
H16 H -0.3126 0.1922 0.0443
C21 C -0.1849(14) 0.1477(16) -0.2542(11)
H17 H -0.1457 0.1821 -0.2517
C22 C -0.1321(12) -0.2804(14) 0.0062(10)
C23 C -0.0994(12) -0.2063(15) 0.0202(10)
H18 H -0.1062 -0.1596 -0.0025
C24 C -0.4695(11) -0.2117(13) -0.0061(9)
H19 H -0.4621 -0.1558 -0.0142
C25 C -0.2550(11) -0.0346(13) -0.1777(9)
C26 C -0.5348(12) -0.2385(14) 0.0080(9)
H20 H -0.5719 -0.2013 0.0096
C27 C -0.3240(11) -0.0594(13) 0.1007(9)
H21 H -0.3478 -0.0110 0.1095
C28 C -0.2735(12) -0.0906(14) 0.1363(10)
H22 H -0.2635 -0.0651 0.1708
C29 C -0.1882(12) 0.0817(13) -0.2166(10)
H23 H -0.1495 0.0678 -0.1933
C30 C -0.4410(12) -0.4784(14) -0.1216(9)
H24 H -0.4280 -0.5336 -0.1156
C31 C -0.2475(12) 0.0388(14) -0.2146(10)
C32 C -0.1383(12) -0.3127(14) -0.2153(10)
C33 C -0.075(2) -0.288(3) -0.2105(16)
H25 H -0.0664 -0.2379 -0.1924
Re4 Re -0.47666(5) -0.01341(6) -0.10617(4)
O7 O -0.5148(9) 0.0039(10) -0.1689(7)
O8 O -0.5394(10) -0.0298(11) -0.0600(8)
O9 O -0.4281(10) 0.0693(12) -0.0861(8)
C34 C -0.3026(12) 0.0602(14) -0.2517(10)
H26 H -0.3448 0.0313 -0.2520
C35 C -0.0563(15) -0.2019(19) 0.0684(12)
H27 H -0.0353 -0.1519 0.0794
C36 C -0.4242(12) -0.1507(14) -0.2442(9)
H28 H -0.4105 -0.1090 -0.2189
C37 C -0.0452(17) -0.272(2) 0.0996(14)
H29 H -0.0137 -0.2701 0.1305
C38 C -0.4614(16) -0.271(2) -0.3194(13)
H30 H -0.4766 -0.3130 -0.3438
C39 C -0.1197(16) -0.3488(19) 0.0403(13)
H31 H -0.1408 -0.3993 0.0306
C40 C -0.1984(13) -0.4583(14) -0.0905(10)
H32 H -0.2454 -0.4603 -0.0821
C41 C -0.1568(18) -0.125(2) -0.2597(14)
H33 H -0.1196 -0.1268 -0.2331
C42 C -0.5282(13) -0.3749(15) -0.1188(10)
H34 H -0.5736 -0.3587 -0.1112
C43 C -0.5095(13) -0.4512(15) -0.1120(10)
H35 H -0.5423 -0.4896 -0.1005
C44 C -0.2118(17) -0.1775(19) -0.2553(13)
C45 C -0.2638(14) -0.1776(16) -0.2941(11)
H36 H -0.3002 -0.2157 -0.2915
C46 C -0.0995(14) -0.4287(16) -0.2660(11)
H37 H -0.1101 -0.4776 -0.2854
C47 C -0.1666(14) -0.5273(16) -0.1109(10)
H38 H -0.1942 -0.5741 -0.1185
C48 C -0.1494(15) -0.3840(17) -0.2428(11)
H39 H -0.1951 -0.4040 -0.2460
C49 C -0.1606(13) -0.3850(15) -0.0823(10)
C50 C -0.2935(15) 0.1243(17) -0.2876(12)
H40 H -0.3322 0.1410 -0.3099
O10 O -0.0645(12) 0.0313(12) -0.1078(10)
O11 O -0.0011(13) -0.0667(15) -0.0372(8)
C51 C -0.5435(13) -0.3164(14) 0.0191(10)
H41 H -0.5869 -0.3337 0.0309
O12 O 0.0189(13) -0.0852(15) -0.1603(9)
C52 C -0.4596(13) -0.1299(16) -0.2935(11)
H42 H -0.4732 -0.0751 -0.3003
C53 C -0.4747(15) -0.1903(17) -0.3329(13)
H43 H -0.4939 -0.1762 -0.3683
C54 C -0.0771(16) -0.344(2) 0.0879(13)
H44 H -0.0707 -0.3897 0.1115
C55 C -0.208(2) -0.067(2) -0.3383(17)
H45 H -0.2078 -0.0257 -0.3657
C56 C -0.016(4) -0.333(4) -0.231(3)
H46 H 0.0303 -0.3159 -0.2239
C57 C -0.0334(19) -0.400(2) -0.2602(15)
H47 H 0.0017 -0.4295 -0.2776
C58 C -0.0626(18) -0.461(2) -0.1201(14)
H48 H -0.0182 -0.4602 -0.1347
C59 C -0.2650(17) -0.1203(19) -0.3396(13)
H49 H -0.3007 -0.1187 -0.3675
C60 C -0.0907(16) -0.386(2) -0.0976(13)
H50 H -0.0629 -0.3387 -0.0931
C61 C -0.1004(16) -0.5320(19) -0.1203(13)
H51 H -0.0794 -0.5830 -0.1270
C62 C -0.156(2) -0.068(2) -0.3042(16)
H52 H -0.1179 -0.0328 -0.3083
N2A N -0.2348(11) 0.3357(12) 0.2065(9)
Ag1A Ag -0.22314(11) 0.25499(14) -0.35481(10)
Cl1 Cl -0.3759(4) 0.1719(5) 0.1562(3)
C63 C -0.3771(18) 0.170(2) 0.2294(14)
H54 H -0.3386 0.2028 0.2452
H55 H -0.4204 0.1941 0.2412
C65 C -0.372(2) 0.092(3) 0.249(2)
H59 H -0.3982 0.0550 0.2240
H60 H -0.3913 0.0893 0.2856
Cl2 Cl -0.2838(6) 0.0598(9) 0.2541(5)
O13 O 0.1108(12) -0.1804(14) -0.2082(10)
H53 H 0.0775 -0.1686 -0.1890
C64 C 0.095(2) -0.159(3) -0.2625(18)
H56 H 0.0778 -0.1028 -0.2639
H57 H 0.0606 -0.1959 -0.2784
H58 H 0.1371 -0.1622 -0.2834
Cl3 Cl 0.1361(6) -0.2377(6) 0.1036(5)
C66 C 0.115(3) -0.224(3) 0.032(2)
H61 H 0.0779 -0.1828 0.0279
H62 H 0.1554 -0.2018 0.0142
Cl4 Cl 0.0764(6) -0.2774(9) -0.0759(8)
C67 C 0.088(3) -0.310(3) -0.0048(11)
H63 H 0.0441 -0.3313 0.0088
H64 H 0.1228 -0.3541 -0.0013
O14 O -0.3248(17) 0.3193(17) -0.1286(13)
H65 H -0.2993 0.3283 -0.1005
C68 C -0.338(2) 0.224(2) -0.1343(17)
H66 H -0.2973 0.1976 -0.1480
H67 H -0.3774 0.2145 -0.1600
H68 H -0.3479 0.2014 -0.0982
O15 O 0.1910(11) -0.4423(19) -0.0521(13)
O16 O 0.3022(16) -0.3500(17) -0.0839(10)
O17 O 0.2636(16) -0.3452(16) 0.0258(10)
O18 O 0.3264(14) -0.4871(15) -0.0185(13)
Re6 Re 0.27161(12) -0.40706(14) -0.02974(9)
Re5? Re 0.2940(2) -0.4412(3) -0.03033(19)
O19? O 0.2116(14) -0.479(3) -0.035(2)
O20? O 0.322(3) -0.435(3) 0.0369(11)
O21? O 0.296(3) -0.3466(18) -0.061(2)
O22? O 0.346(2) -0.506(3) -0.0658(19)
loop_
_geom_bond_atom_site_label_1
_geom_bond_atom_site_label_2
_geom_bond_site_symmetry_1
_geom_bond_site_symmetry_2
Re1 Re2 1_555 1_555
Re2 P2 1_555 1_555
P1 Re1 1_555 1_555
P2 C2 1_555 1_555
O1 Re1 1_555 1_555
P3 Re1 1_555 1_555
P4 Re2 1_555 1_555
O2 Re1 1_555 1_555
Re3 O4 1_555 1_555
O3 Re2 1_555 1_555
C1 P1 1_555 1_555
O4 Re2 1_555 1_555
C2 P1 1_555 1_555
H1 C2 1_555 1_555
H2 C2 1_555 1_555
O5 Re1 1_555 1_555
C3 P3 1_555 1_555
C4 P3 1_555 1_555
H3 C4 1_555 1_555
H4 C4 1_555 1_555
Ag1 N1 1_555 1_555
C5 H5 1_555 1_555
C6 C1 1_555 1_555
H6 C6 1_555 1_555
O6 Re2 1_555 1_555
N1 C11 1_555 1_555
C7 H7 1_555 1_555
C8 P3 1_555 1_555
C9 C8 1_555 1_555
H8 C9 1_555 1_555
C10 H9 1_555 1_555
C11 C10 1_555 1_555
H10 C11 1_555 1_555
C12 C3 1_555 1_555
H11 C12 1_555 1_555
C13 C1 1_555 1_555
H12 C13 1_555 1_555
C14 H13 1_555 1_555
C15 C10 1_555 1_555
C16 O2 1_555 1_555
C17 C15 1_555 1_555
H14 C17 1_555 1_555
C18 P1 1_555 1_555
C19 C14 1_555 1_555
H15 C19 1_555 1_555
N2 C21 1_555 1_555
C20 N1 1_555 1_555
H16 C20 1_555 1_555
C21 H17 1_555 1_555
C22 P2 1_555 1_555
C23 C22 1_555 1_555
H18 C23 1_555 1_555
C24 C18 1_555 1_555
H19 C24 1_555 1_555
C25 O1 1_555 1_555
C26 C24 1_555 1_555
H20 C26 1_555 1_555
C27 C13 1_555 1_555
H21 C27 1_555 1_555
C28 C5 1_555 1_555
H22 C28 1_555 1_555
C29 C21 1_555 1_555
H23 C29 1_555 1_555
C30 C9 1_555 1_555
H24 C30 1_555 1_555
C31 C25 1_555 1_555
C32 P4 1_555 1_555
C33 C32 1_555 1_555
H25 C33 1_555 1_555
Re4 O5 1_555 1_555
O7 Re4 1_555 1_555
O8 Re4 1_555 1_555
O9 Re4 1_555 1_555
C34 C31 1_555 1_555
H26 C34 1_555 1_555
C35 C23 1_555 1_555
H27 C35 1_555 1_555
C36 C3 1_555 1_555
H28 C36 1_555 1_555
C37 C35 1_555 1_555
H29 C37 1_555 1_555
C38 C12 1_555 1_555
H30 C38 1_555 1_555
C39 C22 1_555 1_555
H31 C39 1_555 1_555
C40 H32 1_555 1_555
C41 H33 1_555 1_555
C42 C7 1_555 1_555
H34 C42 1_555 1_555
C43 C30 1_555 1_555
H35 C43 1_555 1_555
C44 P4 1_555 1_555
C45 C44 1_555 1_555
H36 C45 1_555 1_555
C46 H37 1_555 1_555
C47 C40 1_555 1_555
H38 C47 1_555 1_555
C48 C32 1_555 1_555
H39 C48 1_555 1_555
C49 P2 1_555 1_555
C50 N2 1_555 1_555
H40 C50 1_555 1_555
O10 Re3 1_555 1_555
O11 Re3 1_555 1_555
C51 C19 1_555 1_555
H41 C51 1_555 1_555
O12 Re3 1_555 1_555
C52 C36 1_555 1_555
H42 C52 1_555 1_555
C53 C38 1_555 1_555
H43 C53 1_555 1_555
C54 C37 1_555 1_555
H44 C54 1_555 1_555
C55 H45 1_555 1_555
C56 C33 1_555 1_555
H46 C56 1_555 1_555
C57 C46 1_555 1_555
H47 C57 1_555 1_555
C58 H48 1_555 1_555
C59 C45 1_555 1_555
H49 C59 1_555 1_555
C60 C49 1_555 1_555
H50 C60 1_555 1_555
C61 C47 1_555 1_555
H51 C61 1_555 1_555
C62 C41 1_555 1_555
H52 C62 1_555 1_555
Cl1 C63 1_555 1_555
O13 H53 1_555 1_555
C63 H54 1_555 1_555
H55 C63 1_555 1_555
C64 O13 1_555 1_555
H56 C64 1_555 1_555
H57 C64 1_555 1_555
H58 C64 1_555 1_555
C65 C63 1_555 1_555
H59 C65 1_555 1_555
H60 C65 1_555 1_555
Cl2 C65 1_555 1_555
Cl3 C66 1_555 1_555
C66 H61 1_555 1_555
H62 C66 1_555 1_555
Cl4 C67 1_555 1_555
C67 C66 1_555 1_555
H63 C67 1_555 1_555
H64 C67 1_555 1_555
O14 H65 1_555 1_555
O15 Re6 1_555 1_555
O16 Re6 1_555 1_555
O17 Re6 1_555 1_555
C68 O14 1_555 1_555
H66 C68 1_555 1_555
H67 C68 1_555 1_555
H68 C68 1_555 1_555
O18 Re6 1_555 1_555
N2A Ag1 1_555 1_555
Ag1A N2 1_555 1_555
P4 C4 1_555 1_555
O3 C25 1_555 1_555
C5 C6 1_555 1_555
O6 C16 1_555 1_555
C7 C8 1_555 1_555
C14 C18 1_555 1_555
C15 C16 1_555 1_555
C17 C20 1_555 1_555
C26 C51 1_555 1_555
C27 C28 1_555 1_555
C29 C31 1_555 1_555
C34 C50 1_555 1_555
C39 C54 1_555 1_555
C40 C49 1_555 1_555
C41 C44 1_555 1_555
C42 C43 1_555 1_555
C46 C48 1_555 1_555
C52 C53 1_555 1_555
C55 C62 1_555 1_555
C55 C59 1_555 1_555
C56 C57 1_555 1_555
C58 C61 1_555 1_555
C58 C60 1_555 1_555

#END
