
#######################################################################
#
#                 Cambridge Crystallographic Data Centre
#                                CCDC 
#
#######################################################################
#
# If this CIF has been generated from an entry in the Cambridge 
# Structural Database, then it will include bibliographic, chemical, 
# crystal, experimental, refinement or atomic coordinate data resulting 
# from the CCDC's data processing and validation procedures.
#
#######################################################################

data_BEMHUX
_symmetry_cell_setting           monoclinic
_symmetry_space_group_name_H-M   'P 21/n'
_symmetry_Int_Tables_number      14
_space_group_name_Hall           '-P 2yn'
loop_
_symmetry_equiv_pos_site_id
_symmetry_equiv_pos_as_xyz
1 x,y,z
2 1/2+x,1/2-y,1/2+z
3 -x,-y,-z
4 1/2-x,1/2+y,1/2-z
_cell_length_a                   16.209(3)
_cell_length_b                   38.889(8)
_cell_length_c                   17.363(4)
_cell_angle_alpha                90
_cell_angle_beta                 90.42(3)
_cell_angle_gamma                90
_cell_volume                     10944.5
loop_
_atom_site_label
_atom_site_type_symbol
_atom_site_fract_x
_atom_site_fract_y
_atom_site_fract_z
Re1 Re 0.29469(6) 0.21082(3) -0.71484(6)
Rh1 Rh 0.4874(2) 0.01820(7) -0.94491(18)
Cl1 Cl 0.5070(4) 0.19080(18) -0.5199(3)
P1 P 0.2276(4) 0.26354(18) -0.6784(4)
O1 O 0.3630(19) 0.0158(6) -0.977(2)
Re2 Re 0.39956(6) 0.20703(3) -0.62169(6)
Rh2 Rh 0.04118(18) 0.02529(6) -0.5075(3)
Cl2 Cl 0.1833(4) 0.2000(2) -0.8146(4)
P2 P 0.3279(4) 0.24566(15) -0.5341(4)
O2 O 0.4696(19) -0.0250(7) -0.8822(16)
C2 C 0.342(3) 0.0031(13) -1.040(3)
P3 P 0.3823(4) 0.23661(19) -0.8124(4)
O3 O 0.389(2) -0.0171(7) -1.092(4)
C3 C 0.260(4) 0.0066(14) -1.068(3)
H4 H 0.2215 0.0082 -1.0251
H5 H 0.2454 -0.0135 -1.0999
H6 H 0.2554 0.0274 -1.0999
P4 P 0.4918(4) 0.25026(18) -0.6704(3)
O4 O 0.497(2) -0.0599(5) -0.9872(19)
C4 C 0.477(3) -0.0534(12) -0.915(3)
O5 O 0.070(2) 0.0203(6) -0.395(2)
C5 C 0.478(4) -0.0882(14) -0.869(3)
H7 H 0.4217 -0.0946 -0.8547
H8 H 0.5023 -0.1064 -0.9004
H9 H 0.5114 -0.0852 -0.8217
O6 O -0.0066(15) -0.0259(7) -0.3765(18)
C6 C 0.035(3) -0.0044(13) -0.351(3)
O7 O 0.1377(16) -0.0064(6) -0.532(2)
C7 C 0.051(4) -0.0039(16) -0.272(4)
H10 H 0.1089 0.0024 -0.2633
H11 H 0.0403 -0.0267 -0.2507
H12 H 0.0151 0.0131 -0.2479
O8 O 0.0598(14) -0.0555(5) -0.5213(19)
C8 C 0.128(3) -0.0403(11) -0.534(3)
O9 O 0.3330(10) 0.1592(4) -0.7504(9)
C9 C 0.207(3) -0.0634(12) -0.556(3)
H13 H 0.1888 -0.0865 -0.5708
H14 H 0.2441 -0.0651 -0.5110
H15 H 0.2366 -0.0528 -0.5987
O10 O 0.2183(12) 0.1797(5) -0.6406(10)
O11 O 0.4524(12) 0.1634(5) -0.6828(9)
O12 O 0.3338(11) 0.1622(4) -0.5736(10)
N1 N 0.4613(12) 0.0551(7) -0.847(2)
C10 C 0.525(2) 0.0752(7) -0.8133(15)
H16 H 0.5810 0.0680 -0.8186
C11 C 0.5079(17) 0.1055(6) -0.7724(15)
H17 H 0.5512 0.1189 -0.7507
C12 C 0.4252(15) 0.1156(7) -0.7642(17)
C13 C 0.360(2) 0.0967(8) -0.798(2)
H18 H 0.3047 0.1042 -0.7924
C14 C 0.379(2) 0.0666(10) -0.839(2)
H19 H 0.3353 0.0536 -0.8613
C15 C 0.4027(18) 0.1481(7) -0.7319(16)
N2 N 0.1158(10) 0.0731(5) -0.5169(16)
C16 C 0.1966(19) 0.0716(7) -0.5234(19)
H20 H 0.2225 0.0501 -0.5139
C17 C 0.2471(16) 0.0994(6) -0.543(2)
H21 H 0.3055 0.0975 -0.5423
C18 C 0.2084(13) 0.1302(6) -0.5649(14)
C19 C 0.1224(13) 0.1322(6) -0.5584(15)
H22 H 0.0936 0.1528 -0.5701
C20 C 0.0804(16) 0.1027(6) -0.5339(15)
H23 H 0.0221 0.1041 -0.5292
C21 C 0.2569(17) 0.1593(6) -0.5962(15)
C22 C 0.2761(18) 0.2803(6) -0.5909(16)
H24 H 0.2336 0.2915 -0.5587
H25 H 0.3172 0.2980 -0.6050
C23 C 0.4537(15) 0.2659(5) -0.7639(13)
H26 H 0.4257 0.2882 -0.7561
H27 H 0.5015 0.2699 -0.7979
C25 C 0.1138(10) 0.2612(4) -0.6545(13)
C26 C 0.0712(10) 0.2305(4) -0.6547(11)
H31 H 0.0979 0.2100 -0.6708
C27 C -0.0099(10) 0.2296(4) -0.6316(12)
H32 H -0.0392 0.2084 -0.6319
C28 C -0.0486(11) 0.2593(4) -0.6080(15)
H33 H -0.1047 0.2587 -0.5927
C29 C -0.0057(12) 0.2899(4) -0.6068(17)
H34 H -0.0318 0.3103 -0.5893
C30 C 0.0752(12) 0.2909(4) -0.6308(15)
H35 H 0.1043 0.3121 -0.6311
C31 C 0.2225(14) 0.3021(4) -0.7424(11)
C32 C 0.1765(12) 0.2979(4) -0.8098(10)
H36 H 0.1547 0.2760 -0.8228
C33 C 0.1623(14) 0.3259(4) -0.8582(11)
H37 H 0.1289 0.3233 -0.9030
C34 C 0.1973(16) 0.3578(5) -0.8408(12)
H38 H 0.1927 0.3763 -0.8763
C35 C 0.2390(16) 0.3624(4) -0.7710(12)
H39 H 0.2565 0.3847 -0.7558
C36 C 0.2550(16) 0.3342(4) -0.7237(12)
H40 H 0.2881 0.3369 -0.6787
C37 C 0.2502(10) 0.2238(4) -0.4768(10)
C38 C 0.1662(10) 0.2338(4) -0.4781(11)
H41 H 0.1492 0.2532 -0.5076
C39 C 0.1073(11) 0.2150(5) -0.4351(13)
H42 H 0.0510 0.2217 -0.4359
C40 C 0.1326(11) 0.1861(5) -0.3912(14)
H43 H 0.0929 0.1730 -0.3637
C41 C 0.2170(11) 0.1767(5) -0.3880(13)
H44 H 0.2344 0.1583 -0.3557
C42 C 0.2756(10) 0.1946(5) -0.4331(12)
H45 H 0.3314 0.1872 -0.4340
C43 C 0.3803(11) 0.2702(3) -0.4532(9)
C44 C 0.3702(10) 0.3057(3) -0.4450(8)
H46 H 0.3363 0.3180 -0.4804
C45 C 0.4100(12) 0.3232(3) -0.3849(9)
H47 H 0.4035 0.3474 -0.3797
C46 C 0.4594(14) 0.3051(3) -0.3323(10)
H48 H 0.4857 0.3169 -0.2910
C47 C 0.4699(10) 0.2695(3) -0.3409(8)
H49 H 0.5025 0.2570 -0.3048
C48 C 0.4322(10) 0.2525(3) -0.4029(8)
H50 H 0.4419 0.2287 -0.4104
C49 C 0.3403(13) 0.2634(4) -0.8950(11)
C50 C 0.2851(11) 0.2489(4) -0.9464(10)
H51 H 0.2653 0.2262 -0.9381
C51 C 0.2588(13) 0.2673(4) -1.0099(11)
H52 H 0.2207 0.2574 -1.0452
C52 C 0.2879(15) 0.3002(5) -1.0221(12)
H53 H 0.2714 0.3126 -1.0668
C53 C 0.3410(15) 0.3151(4) -0.9694(12)
H54 H 0.3581 0.3383 -0.9758
C54 C 0.3693(14) 0.2963(5) -0.9072(11)
H55 H 0.4088 0.3059 -0.8728
C55 C 0.4480(11) 0.2049(4) -0.8650(12)
C56 C 0.4054(10) 0.1773(5) -0.8993(12)
H56 H 0.3471 0.1757 -0.8947
C57 C 0.4489(11) 0.1521(5) -0.9403(13)
H57 H 0.4202 0.1333 -0.9627
C58 C 0.5349(12) 0.1548(6) -0.9481(16)
H58 H 0.5640 0.1385 -0.9782
C59 C 0.5778(11) 0.1816(5) -0.9113(14)
H59 H 0.6363 0.1825 -0.9133
C60 C 0.5341(12) 0.2072(5) -0.8716(14)
H60 H 0.5629 0.2260 -0.8491
C61 C 0.5126(14) 0.2898(4) -0.6151(11)
C62 C 0.5572(12) 0.2855(4) -0.5455(10)
H61 H 0.5728 0.2631 -0.5290
C63 C 0.5784(14) 0.3144(4) -0.5002(11)
H62 H 0.6074 0.3115 -0.4530
C64 C 0.5564(16) 0.3478(4) -0.5254(12)
H63 H 0.5719 0.3673 -0.4957
C65 C 0.5114(17) 0.3521(4) -0.5948(12)
H64 H 0.4966 0.3745 -0.6117
C66 C 0.4886(16) 0.3231(4) -0.6391(12)
H65 H 0.4571 0.3259 -0.6850
C67 C 0.5972(8) 0.2387(3) -0.6903(9)
C68 C 0.6200(9) 0.2021(3) -0.6895(10)
H66 H 0.5829 0.1856 -0.6692
C69 C 0.7002(9) 0.1912(3) -0.7200(10)
H67 H 0.7142 0.1675 -0.7237
C70 C 0.7599(10) 0.2171(3) -0.7458(15)
H68 H 0.8136 0.2102 -0.7612
C71 C 0.7365(9) 0.2536(3) -0.7478(14)
H69 H 0.7743 0.2703 -0.7662
C72 C 0.6544(10) 0.2641(3) -0.7212(14)
H70 H 0.6385 0.2876 -0.7242
Rh1B Rh 0.5126(2) -0.01820(7) -1.05509(18)
O3B O 0.611(2) 0.0171(7) -0.908(4)
O4B O 0.503(2) 0.0599(5) -1.0128(19)
Rh2B Rh -0.04118(18) -0.02529(6) -0.4925(3)
O6B O 0.0066(15) 0.0259(7) -0.6235(18)
O8B O -0.0598(14) 0.0555(5) -0.4787(19)
C1 C -0.4868(16) -0.0888(9) -0.453(2)
H1 H -0.4499 -0.0836 -0.4960
H2 H -0.4672 -0.1094 -0.4261
H3 H -0.4874 -0.0693 -0.4172
C24 C -0.632(2) -0.1139(9) -0.4311(18)
H28 H -0.6889 -0.1073 -0.4435
H29 H -0.6196 -0.1080 -0.3774
H30 H -0.6255 -0.1388 -0.4384
C73 C -0.5733(14) -0.0950(9) -0.4837(15)
O14 O -0.5949(16) -0.0848(7) -0.5471(13)
Cl3 Cl 0.2963(16) 0.4229(7) -1.200(2)
Cl5 Cl 0.3909(8) 0.3642(3) -1.1487(8)
C78 C 0.385(4) 0.4035(14) -1.193(4)
H79 H 0.4232 0.4192 -1.1653
H80 H 0.4066 0.4007 -1.2457
Cl4 Cl 0.4508(7) 0.1656(3) -0.2790(7)
Cl6 Cl 0.3786(9) 0.1045(3) -0.3495(10)
C77 C 0.460(3) 0.1324(12) -0.353(3)
H77 H 0.4612 0.1433 -0.4043
H78 H 0.5117 0.1195 -0.3451
O13 O -0.122(3) -0.1020(15) -1.247(3)
C74 C -0.011(2) -0.0922(14) -1.158(3)
H71 H 0.0237 -0.1068 -1.1904
H72 H -0.0032 -0.0982 -1.1041
H73 H 0.0030 -0.0680 -1.1665
C75 C -0.162(3) -0.0900(15) -1.118(3)
H74 H -0.1349 -0.0917 -1.0675
H75 H -0.2077 -0.1065 -1.1206
H76 H -0.1837 -0.0667 -1.1251
C76 C -0.1007(19) -0.098(2) -1.180(3)
O15 O -0.0412(10) 0.1260(4) -0.3303(9)
loop_
_geom_bond_atom_site_label_1
_geom_bond_atom_site_label_2
_geom_bond_site_symmetry_1
_geom_bond_site_symmetry_2
Re1 P1 1_555 1_555
Rh1 O1 1_555 1_555
Cl1 Re2 1_555 1_555
P1 C22 1_555 1_555
O1 C2 1_555 1_555
C1 H1 1_555 1_555
H2 C1 1_555 1_555
H3 C1 1_555 1_555
Re2 Re1 1_555 1_555
Rh2 O5 1_555 1_555
Cl2 Re1 1_555 1_555
P2 Re2 1_555 1_555
O2 Rh1 1_555 1_555
C2 O3 1_555 1_555
P3 Re1 1_555 1_555
O3 Rh1B 1_555 1_555
C3 C2 1_555 1_555
H4 C3 1_555 1_555
H5 C3 1_555 1_555
H6 C3 1_555 1_555
P4 Re2 1_555 1_555
O4 C4 1_555 1_555
C4 O2 1_555 1_555
O5 C6 1_555 1_555
C5 C4 1_555 1_555
H7 C5 1_555 1_555
H8 C5 1_555 1_555
H9 C5 1_555 1_555
O6 C6 1_555 1_555
C6 C7 1_555 1_555
O7 Rh2 1_555 1_555
C7 H10 1_555 1_555
H11 C7 1_555 1_555
H12 C7 1_555 1_555
O8 C8 1_555 1_555
C8 O7 1_555 1_555
O9 Re1 1_555 1_555
C9 C8 1_555 1_555
H13 C9 1_555 1_555
H14 C9 1_555 1_555
H15 C9 1_555 1_555
Cl3 C78 1_555 1_555
O10 Re1 1_555 1_555
O11 Re2 1_555 1_555
O12 Re2 1_555 1_555
N1 Rh1 1_555 1_555
C10 N1 1_555 1_555
H16 C10 1_555 1_555
C11 C10 1_555 1_555
H17 C11 1_555 1_555
C12 C11 1_555 1_555
C13 C12 1_555 1_555
H18 C13 1_555 1_555
C14 N1 1_555 1_555
H19 C14 1_555 1_555
C15 O9 1_555 1_555
N2 Rh2 1_555 1_555
C16 N2 1_555 1_555
H20 C16 1_555 1_555
C17 C16 1_555 1_555
H21 C17 1_555 1_555
Cl4 C77 1_555 1_555
C18 C17 1_555 1_555
C19 C18 1_555 1_555
H22 C19 1_555 1_555
C20 N2 1_555 1_555
H23 C20 1_555 1_555
Cl5 C78 1_555 1_555
Cl6 C77 1_555 1_555
C21 O10 1_555 1_555
C22 P2 1_555 1_555
H24 C22 1_555 1_555
H25 C22 1_555 1_555
C23 P3 1_555 1_555
H26 C23 1_555 1_555
H27 C23 1_555 1_555
C24 H28 1_555 1_555
H29 C24 1_555 1_555
H30 C24 1_555 1_555
O13 C76 1_555 1_555
C25 P1 1_555 1_555
C26 C25 1_555 1_555
H31 C26 1_555 1_555
C27 C26 1_555 1_555
H32 C27 1_555 1_555
C28 C27 1_555 1_555
H33 C28 1_555 1_555
C29 C28 1_555 1_555
H34 C29 1_555 1_555
C30 C25 1_555 1_555
H35 C30 1_555 1_555
C31 P1 1_555 1_555
C32 C31 1_555 1_555
H36 C32 1_555 1_555
C33 C32 1_555 1_555
H37 C33 1_555 1_555
C34 C33 1_555 1_555
H38 C34 1_555 1_555
C35 C34 1_555 1_555
H39 C35 1_555 1_555
C36 C31 1_555 1_555
H40 C36 1_555 1_555
C37 P2 1_555 1_555
C38 C37 1_555 1_555
H41 C38 1_555 1_555
C39 C38 1_555 1_555
H42 C39 1_555 1_555
C40 C39 1_555 1_555
H43 C40 1_555 1_555
C41 C40 1_555 1_555
H44 C41 1_555 1_555
C42 C37 1_555 1_555
H45 C42 1_555 1_555
C43 P2 1_555 1_555
C44 C43 1_555 1_555
H46 C44 1_555 1_555
C45 C44 1_555 1_555
H47 C45 1_555 1_555
C46 C45 1_555 1_555
H48 C46 1_555 1_555
C47 C46 1_555 1_555
H49 C47 1_555 1_555
C48 C43 1_555 1_555
H50 C48 1_555 1_555
C49 P3 1_555 1_555
C50 C49 1_555 1_555
H51 C50 1_555 1_555
C51 C50 1_555 1_555
H52 C51 1_555 1_555
C52 C51 1_555 1_555
H53 C52 1_555 1_555
C53 C52 1_555 1_555
H54 C53 1_555 1_555
C54 C49 1_555 1_555
H55 C54 1_555 1_555
C55 P3 1_555 1_555
C56 C55 1_555 1_555
H56 C56 1_555 1_555
C57 C56 1_555 1_555
H57 C57 1_555 1_555
C58 C57 1_555 1_555
H58 C58 1_555 1_555
C59 C58 1_555 1_555
H59 C59 1_555 1_555
C60 C55 1_555 1_555
H60 C60 1_555 1_555
C61 P4 1_555 1_555
C62 C61 1_555 1_555
H61 C62 1_555 1_555
C63 C62 1_555 1_555
H62 C63 1_555 1_555
C64 C63 1_555 1_555
H63 C64 1_555 1_555
C65 C64 1_555 1_555
H64 C65 1_555 1_555
C66 C61 1_555 1_555
H65 C66 1_555 1_555
C67 P4 1_555 1_555
C68 C67 1_555 1_555
H66 C68 1_555 1_555
C69 C68 1_555 1_555
H67 C69 1_555 1_555
C70 C69 1_555 1_555
H68 C70 1_555 1_555
C71 C70 1_555 1_555
H69 C71 1_555 1_555
C72 C67 1_555 1_555
H70 C72 1_555 1_555
C73 C1 1_555 1_555
O14 C73 1_555 1_555
C74 H71 1_555 1_555
H72 C74 1_555 1_555
H73 C74 1_555 1_555
C75 H74 1_555 1_555
H75 C75 1_555 1_555
H76 C75 1_555 1_555
C76 C74 1_555 1_555
C77 H77 1_555 1_555
H78 C77 1_555 1_555
C78 H79 1_555 1_555
H80 C78 1_555 1_555
Rh1B Rh1 1_555 1_555
O3B Rh1 1_555 1_555
O4B Rh1 1_555 1_555
Rh2B Rh2 1_555 1_555
O6B Rh2 1_555 1_555
O8B Rh2 1_555 1_555
P4 C23 1_555 1_555
O4 Rh1B 1_555 1_555
O6 Rh2B 1_555 1_555
O8 Rh2B 1_555 1_555
O11 C15 1_555 1_555
O12 C21 1_555 1_555
C12 C15 1_555 1_555
C13 C14 1_555 1_555
C18 C21 1_555 1_555
C19 C20 1_555 1_555
C24 C73 1_555 1_555
C29 C30 1_555 1_555
C35 C36 1_555 1_555
C41 C42 1_555 1_555
C47 C48 1_555 1_555
C53 C54 1_555 1_555
C59 C60 1_555 1_555
C65 C66 1_555 1_555
C71 C72 1_555 1_555
C75 C76 1_555 1_555

#END
