
#######################################################################
#
#                 Cambridge Crystallographic Data Centre
#                                CCDC 
#
#######################################################################
#
# If this CIF has been generated from an entry in the Cambridge 
# Structural Database, then it will include bibliographic, chemical, 
# crystal, experimental, refinement or atomic coordinate data resulting 
# from the CCDC's data processing and validation procedures.
#
#######################################################################

data_BEMJEK
_symmetry_cell_setting           monoclinic
_symmetry_space_group_name_H-M   'C 2/c'
_symmetry_Int_Tables_number      15
_space_group_name_Hall           '-C 2yn'
loop_
_symmetry_equiv_pos_site_id
_symmetry_equiv_pos_as_xyz
1 x,y,z
2 -x,y,1/2-z
3 1/2+x,1/2+y,z
4 1/2-x,1/2+y,1/2-z
5 -x,-y,-z
6 x,-y,1/2+z
7 1/2-x,1/2-y,-z
8 1/2+x,1/2-y,1/2+z
_cell_length_a                   13.995(2)
_cell_length_b                   17.202(3)
_cell_length_c                   12.635(2)
_cell_angle_alpha                90
_cell_angle_beta                 114.748(2)
_cell_angle_gamma                90
_cell_volume                     2762.41
loop_
_atom_site_label
_atom_site_type_symbol
_atom_site_fract_x
_atom_site_fract_y
_atom_site_fract_z
Cu1 Cu 0.23115(2) 0.462091(16) 0.79180(2)
Cu2 Cu 0.0000 0.84548(2) 1.2500
C1 C 0.11738(17) 0.66966(12) 0.87483(18)
C2 C 0.06151(17) 0.68470(12) 0.94089(18)
H1 H 0.0312 0.6427 0.9649
C3 C 0.04917(17) 0.75981(12) 0.97241(19)
C4 C 0.08850(18) 0.82081(13) 0.93124(19)
H2 H 0.0799 0.8726 0.9517
C5 C 0.14020(17) 0.80737(12) 0.86069(19)
C6 C 0.15593(17) 0.73130(12) 0.83341(19)
H3 H 0.1929 0.7217 0.7866
C7 C 0.13961(17) 0.58643(13) 0.8566(2)
C8 C 0.00447(19) 0.77248(14) 1.0610(2)
C9 C 0.18158(17) 0.87459(13) 0.8167(2)
O1 O 0.19843(13) 0.57384(9) 0.80440(15)
O2 O 0.10121(15) 0.53452(9) 0.89560(18)
O3 O -0.00167(14) 0.84275(9) 1.09022(14)
O4 O -0.01692(17) 0.71548(11) 1.10684(17)
O5 O 0.17621(15) 0.94191(9) 0.85287(18)
O6 O 0.22100(14) 0.86036(10) 0.74538(16)
O7 O 0.0000 0.97490(19) 1.2500
H4 H -0.051(3) 1.001(2) 1.220(3)
N1 N 0.0963(2) 0.44818(15) 0.6563(2)
H5 H 0.072(2) 0.4058(10) 0.656(3)
H6 H 0.050(3) 0.476(2) 0.650(3)
H7 H 0.104(3) 0.4570(18) 0.599(3)
N2 N 0.3647(2) 0.47734(15) 0.9312(2)
H8 H 0.350(3) 0.4985(19) 0.979(2)
H9 H 0.395(3) 0.439(2) 0.960(3)
H10 H 0.404(3) 0.504(2) 0.916(3)
N3 N 0.1566(2) 0.83307(18) 1.3145(2)
H11 H 0.179(2) 0.8550(16) 1.274(2)
H12 H 0.169(3) 0.779(2) 1.308(3)
H13 H 0.185(3) 0.850(2) 1.379(4)
N4 N 0.1863(2) 0.38798(15) 0.9422(3)
H14 H 0.177(2) 0.3902(17) 0.9975(16)
H15 H 0.1428(18) 0.3560(13) 0.927(3)
H16 H 0.158(2) 0.4274(11) 0.937(3)
Cu1A Cu -0.23115(2) 0.462091(16) 1.70820(2)
Cu1C Cu 0.26885(2) 0.962091(16) 0.70820(2)
Cu1B Cu -0.26885(2) 0.962091(16) 1.79180(2)
C1A C -0.11738(17) 0.66966(12) 1.62517(18)
C2A C -0.06151(17) 0.68470(12) 1.55911(18)
H1A H -0.0312 0.6427 1.5351
C3A C -0.04917(17) 0.75981(12) 1.52759(19)
C4A C -0.08850(18) 0.82081(13) 1.56876(19)
H2A H -0.0799 0.8726 1.5483
C5A C -0.14020(17) 0.80737(12) 1.63931(19)
C6A C -0.15593(17) 0.73130(12) 1.66659(19)
H3A H -0.1929 0.7217 1.7134
C7A C -0.13961(17) 0.58643(13) 1.6434(2)
C8A C -0.00447(19) 0.77248(14) 1.4390(2)
C9A C -0.18158(17) 0.87459(13) 1.6833(2)
O1A O -0.19843(13) 0.57384(9) 1.69560(15)
O2A O -0.10121(15) 0.53452(9) 1.60440(18)
O3A O 0.00167(14) 0.84275(9) 1.40978(14)
O4A O 0.01692(17) 0.71548(11) 1.39316(17)
O5A O -0.17621(15) 0.94191(9) 1.64713(18)
O6A O -0.22100(14) 0.86036(10) 1.75462(16)
O6C O 0.27900(14) 0.36036(10) 0.75462(16)
O6B O -0.27900(14) 0.36036(10) 1.74538(16)
H4A H 0.051(3) 1.001(2) 1.280(3)
N1A N -0.0963(2) 0.44818(15) 1.8437(2)
H5A H -0.072(2) 0.4058(10) 1.844(3)
H6A H -0.050(3) 0.476(2) 1.850(3)
H7A H -0.104(3) 0.4570(18) 1.901(3)
N2A N -0.3647(2) 0.47734(15) 1.5688(2)
H8A H -0.350(3) 0.4985(19) 1.521(2)
H9A H -0.395(3) 0.439(2) 1.540(3)
H10A H -0.404(3) 0.504(2) 1.584(3)
N3A N -0.1566(2) 0.83307(18) 1.1855(2)
H11A H -0.179(2) 0.8550(16) 1.226(2)
H12A H -0.169(3) 0.779(2) 1.192(3)
H13A H -0.185(3) 0.850(2) 1.121(4)
N4A N -0.1863(2) 0.38798(15) 1.5578(3)
H14A H -0.177(2) 0.3902(17) 1.5025(16)
H15A H -0.1428(18) 0.3560(13) 1.573(3)
H16A H -0.158(2) 0.4274(11) 1.563(3)
loop_
_geom_bond_atom_site_label_1
_geom_bond_atom_site_label_2
_geom_bond_site_symmetry_1
_geom_bond_site_symmetry_2
Cu1 O1 1_555 1_555
Cu2 O3 1_555 1_555
C1 C2 1_555 1_555
C2 H1 1_555 1_555
C3 C2 1_555 1_555
C4 C3 1_555 1_555
H2 C4 1_555 1_555
C5 C4 1_555 1_555
C6 C1 1_555 1_555
H3 C6 1_555 1_555
C7 C1 1_555 1_555
C8 C3 1_555 1_555
C9 C5 1_555 1_555
O1 C7 1_555 1_555
O2 C7 1_555 1_555
O3 C8 1_555 1_555
O4 C8 1_555 1_555
O5 C9 1_555 1_555
O6 C9 1_555 1_555
O7 Cu2 1_555 1_555
H4 O7 1_555 1_555
N1 Cu1 1_555 1_555
H5 N1 1_555 1_555
H6 N1 1_555 1_555
H7 N1 1_555 1_555
N2 Cu1 1_555 1_555
H8 N2 1_555 1_555
H9 N2 1_555 1_555
H10 N2 1_555 1_555
N3 Cu2 1_555 1_555
H11 N3 1_555 1_555
H12 N3 1_555 1_555
H13 N3 1_555 1_555
N4 Cu1 1_555 1_555
H14 N4 1_555 1_555
H15 N4 1_555 1_555
H16 N4 1_555 1_555
Cu1A O1A 1_555 1_555
Cu1C O6 1_555 1_555
Cu1B O6A 1_555 1_555
C1A C2A 1_555 1_555
C2A H1A 1_555 1_555
C3A C2A 1_555 1_555
C4A C3A 1_555 1_555
H2A C4A 1_555 1_555
C5A C4A 1_555 1_555
C6A C1A 1_555 1_555
H3A C6A 1_555 1_555
C7A C1A 1_555 1_555
C8A C3A 1_555 1_555
C9A C5A 1_555 1_555
O1A C7A 1_555 1_555
O2A C7A 1_555 1_555
O3A Cu2 1_555 1_555
O4A C8A 1_555 1_555
O5A C9A 1_555 1_555
O6A C9A 1_555 1_555
O6C Cu1 1_555 1_555
O6B Cu1A 1_555 1_555
H4A O7 1_555 1_555
N1A Cu1A 1_555 1_555
H5A N1A 1_555 1_555
H6A N1A 1_555 1_555
H7A N1A 1_555 1_555
N2A Cu1A 1_555 1_555
H8A N2A 1_555 1_555
H9A N2A 1_555 1_555
H10A N2A 1_555 1_555
N3A Cu2 1_555 1_555
H11A N3A 1_555 1_555
H12A N3A 1_555 1_555
H13A N3A 1_555 1_555
N4A Cu1A 1_555 1_555
H14A N4A 1_555 1_555
H15A N4A 1_555 1_555
H16A N4A 1_555 1_555
C5 C6 1_555 1_555
C5A C6A 1_555 1_555
C8A O3A 1_555 1_555

#END
