
#######################################################################
#
#                 Cambridge Crystallographic Data Centre
#                                CCDC 
#
#######################################################################
#
# If this CIF has been generated from an entry in the Cambridge 
# Structural Database, then it will include bibliographic, chemical, 
# crystal, experimental, refinement or atomic coordinate data resulting 
# from the CCDC's data processing and validation procedures.
#
#######################################################################

data_BEMLEM
_symmetry_cell_setting           monoclinic
_symmetry_space_group_name_H-M   'P 21/c'
_symmetry_Int_Tables_number      14
_space_group_name_Hall           '-P 2ybc'
loop_
_symmetry_equiv_pos_site_id
_symmetry_equiv_pos_as_xyz
1 x,y,z
2 -x,1/2+y,1/2-z
3 -x,-y,-z
4 x,1/2-y,1/2+z
_cell_length_a                   14.479(2)
_cell_length_b                   7.223(1)
_cell_length_c                   14.104(2)
_cell_angle_alpha                90
_cell_angle_beta                 90.07(2)
_cell_angle_gamma                90
_cell_volume                     1475.02
loop_
_atom_site_label
_atom_site_type_symbol
_atom_site_fract_x
_atom_site_fract_y
_atom_site_fract_z
C1 C 0.4913(3) 0.7859(6) 0.3153(3)
C2 C 0.5834(3) 0.7513(6) 0.2704(3)
C3 C 0.6059(3) 0.8014(6) 0.1778(3)
C4 C 0.6927(3) 0.7893(7) 0.1398(3)
H1 H 0.7049 0.8280 0.0782
C5 C 0.7608(3) 0.7180(7) 0.1961(3)
C6 C 0.7461(3) 0.6550(6) 0.2876(3)
H2 H 0.7930 0.6025 0.3238
C7 C 0.6569(3) 0.6753(6) 0.3216(3)
C8 C 0.2062(3) 0.7769(6) -0.1963(3)
C9 C 0.1136(3) 0.7429(6) -0.1505(3)
C10 C 0.0913(3) 0.7923(6) -0.0585(3)
C11 C 0.0077(3) 0.7614(7) -0.0157(3)
H3 H -0.0043 0.8008 0.0458
C12 C -0.0568(3) 0.6698(7) -0.0681(3)
C13 C -0.0423(3) 0.6130(6) -0.1616(3)
H4 H -0.0877 0.5516 -0.1961
C14 C 0.0432(3) 0.6532(6) -0.2000(3)
Cs1 Cs 0.350570(19) 0.63884(4) 0.058639(17)
F1 F 0.5382(2) 0.8741(4) 0.1229(2)
F2 F 0.8482(2) 0.7093(6) 0.1633(3)
F3 F 0.6408(2) 0.6141(5) 0.4110(2)
F4 F 0.1569(2) 0.8826(5) -0.0067(2)
F5 F -0.1410(2) 0.6332(5) -0.0306(3)
F6 F 0.0580(2) 0.5968(5) -0.2889(2)
O1 O 0.4886(3) 0.8613(5) 0.3929(3)
O2 O 0.4216(2) 0.7320(5) 0.2662(2)
O3 O 0.2756(2) 0.7305(5) -0.1444(2)
O4 O 0.2107(3) 0.8390(5) -0.2764(3)
H5 H 0.375(6) 0.751(18) 0.299(8)
Cs1B Cs 0.649430(19) 0.36116(4) -0.058639(17)
Cs1A Cs 0.649430(19) 0.13884(4) 0.441361(17)
Cs1A_2 Cs 0.649430(19) 1.13884(4) 0.441361(17)
Cs1C Cs 0.350570(19) 0.86116(4) 0.558639(17)
Cs1C_2 Cs 0.350570(19) 0.86116(4) -0.441361(17)
F3A F 0.3592(2) 1.1141(5) 0.0890(2)
O1A O 0.5114(3) 0.3613(5) 0.1071(3)
O1C O 0.4886(3) 0.6387(5) -0.1071(3)
O4C O 0.2107(3) 0.6610(5) 0.2236(3)
loop_
_geom_bond_atom_site_label_1
_geom_bond_atom_site_label_2
_geom_bond_site_symmetry_1
_geom_bond_site_symmetry_2
C1 C2 1_555 1_555
C2 C3 1_555 1_555
C3 C4 1_555 1_555
C4 H1 1_555 1_555
C5 C4 1_555 1_555
C6 C5 1_555 1_555
H2 C6 1_555 1_555
C7 C2 1_555 1_555
C8 C9 1_555 1_555
C9 C10 1_555 1_555
C10 C11 1_555 1_555
C11 H3 1_555 1_555
C12 C11 1_555 1_555
C13 C12 1_555 1_555
H4 C13 1_555 1_555
C14 C9 1_555 1_555
Cs1 F1 1_555 1_555
F1 C3 1_555 1_555
F2 C5 1_555 1_555
F3 C7 1_555 1_555
F4 C10 1_555 1_555
F5 C12 1_555 1_555
F6 C14 1_555 1_555
O1 C1 1_555 1_555
O2 C1 1_555 1_555
O3 C8 1_555 1_555
O4 C8 1_555 1_555
H5 O2 1_555 1_555
Cs1B O1A 1_555 1_555
Cs1A F3 1_555 1_555
Cs1A_2 O1 1_555 1_555
Cs1C O1 1_555 1_555
Cs1C_2 O4 1_555 1_555
F3A Cs1 1_555 1_555
O1A Cs1 1_555 1_555
O1C Cs1 1_555 1_555
O4C Cs1 1_555 1_555
C6 C7 1_555 1_555
C13 C14 1_555 1_555
Cs1 F4 1_555 1_555
Cs1 O2 1_555 1_555
Cs1 O3 1_555 1_555
Cs1B O1C 1_555 1_555

#END
