
#######################################################################
#
#                 Cambridge Crystallographic Data Centre
#                                CCDC 
#
#######################################################################
#
# If this CIF has been generated from an entry in the Cambridge 
# Structural Database, then it will include bibliographic, chemical, 
# crystal, experimental, refinement or atomic coordinate data resulting 
# from the CCDC's data processing and validation procedures.
#
#######################################################################

data_BEMLAI
_symmetry_cell_setting           monoclinic
_symmetry_space_group_name_H-M   'P 21'
_symmetry_Int_Tables_number      4
_space_group_name_Hall           'P 2yb'
loop_
_symmetry_equiv_pos_site_id
_symmetry_equiv_pos_as_xyz
1 x,y,z
2 -x,1/2+y,-z
_cell_length_a                   5.4113(11)
_cell_length_b                   4.9795(9)
_cell_length_c                   14.775(3)
_cell_angle_alpha                90
_cell_angle_beta                 90.51(2)
_cell_angle_gamma                90
_cell_volume                     398.105
loop_
_atom_site_label
_atom_site_type_symbol
_atom_site_fract_x
_atom_site_fract_y
_atom_site_fract_z
F1 F 1.25259(19) 0.1268(3) 0.28586(6)
F2 F 0.5348(2) -0.3845(3) 0.23887(8)
F3 F 0.8057(3) 0.2020(4) 0.01554(8)
O1 O 0.9850(2) -0.1060(3) 0.42675(8)
O2 O 0.8919(2) -0.5041(2) 0.36854(9)
O3 O 1.4418(2) 0.3293(3) 0.45351(9)
H1 H 1.4787 0.4740 0.4877
H2 H 1.5419 0.3630 0.4149
C1 C 0.8947(3) -0.1339(4) 0.26899(10)
C2 C 0.6681(4) -0.0942(5) 0.12606(14)
H3 H 0.5358 -0.1442 0.0892
C3 C 0.8359(4) 0.0908(6) 0.09895(11)
C4 C 1.0557(3) 0.0570(4) 0.23498(11)
C5 C 0.7028(3) -0.2050(4) 0.21108(12)
C6 C 0.9270(3) -0.2585(4) 0.36188(11)
C7 C 1.0329(4) 0.1736(5) 0.15074(12)
H4 H 1.1448 0.3012 0.1302
Li1 Li 1.0823(5) 0.2618(7) 0.44642(19)
O1A O 1.0150(2) 0.3940(3) 0.57325(8)
O2_2 O 0.8919(2) 0.4959(2) 0.36854(9)
Li1_2 Li 1.0823(5) -0.7382(7) 0.44642(19)
Li1A Li 0.9177(5) -0.2382(7) 0.55358(19)
loop_
_geom_bond_atom_site_label_1
_geom_bond_atom_site_label_2
_geom_bond_site_symmetry_1
_geom_bond_site_symmetry_2
F1 C4 1_555 1_555
F2 C5 1_555 1_555
F3 C3 1_555 1_555
O1 C6 1_555 1_555
O2 C6 1_555 1_555
O3 H1 1_555 1_555
H2 O3 1_555 1_555
C1 C4 1_555 1_555
C2 H3 1_555 1_555
C3 C2 1_555 1_555
C4 C7 1_555 1_555
C5 C1 1_555 1_555
C6 C1 1_555 1_555
C7 C3 1_555 1_555
H4 C7 1_555 1_555
Li1 O1 1_555 1_555
O1A Li1 1_555 1_555
O2_2 Li1 1_555 1_555
Li1_2 O2 1_555 1_555
Li1A O1 1_555 1_555
O3 Li1 1_555 1_555
C2 C5 1_555 1_555

#END
