
#######################################################################
#
#                 Cambridge Crystallographic Data Centre
#                                CCDC 
#
#######################################################################
#
# If this CIF has been generated from an entry in the Cambridge 
# Structural Database, then it will include bibliographic, chemical, 
# crystal, experimental, refinement or atomic coordinate data resulting 
# from the CCDC's data processing and validation procedures.
#
#######################################################################

data_BEMNUE
_symmetry_cell_setting           monoclinic
_symmetry_space_group_name_H-M   'P c'
_symmetry_Int_Tables_number      7
_space_group_name_Hall           'P -2yc'
loop_
_symmetry_equiv_pos_site_id
_symmetry_equiv_pos_as_xyz
1 x,y,z
2 x,-y,1/2+z
_cell_length_a                   10.7754(8)
_cell_length_b                   10.5505(7)
_cell_length_c                   13.7523(7)
_cell_angle_alpha                90
_cell_angle_beta                 127.607(4)
_cell_angle_gamma                90
_cell_volume                     1238.58
loop_
_atom_site_label
_atom_site_type_symbol
_atom_site_fract_x
_atom_site_fract_y
_atom_site_fract_z
Cu1 Cu 0.22820(5) -0.45137(5) 0.77706(5)
O1 O 0.3930(5) -0.5965(4) 0.6841(4)
O2 O 0.5405(7) -0.8858(5) 0.9904(5)
O3 O 0.0993(6) -0.6069(4) 0.4084(4)
O4 O 0.8926(6) -1.0167(4) 1.6055(4)
O5 O 0.1980(5) -0.6182(3) 0.6990(3)
O6 O 0.2450(4) -0.7007(4) 0.3650(3)
O7 O 0.3459(6) -0.3507(4) 0.6971(5)
N1 N 0.6407(11) -0.8853(7) 1.1873(6)
N2 N 0.7982(11) -1.0115(6) 1.4064(6)
N3 N 0.4271(6) -0.5141(4) 0.9392(4)
N4 N 1.0173(5) -1.3943(4) 1.6249(4)
C1 C 0.7844(13) -0.8685(8) 1.4003(7)
H1 H 0.7820 -0.8377 1.4656
H2 H 0.8743 -0.8313 1.4109
C2 C 0.6974(9) -0.6040(8) 1.1562(6)
H3 H 0.7885 -0.6339 1.2289
C3 C 0.6794(9) -0.4773(8) 1.1275(7)
H4 H 0.7591 -0.4207 1.1810
C4 C 0.5416(9) -0.4330(7) 1.0180(6)
H5 H 0.5296 -0.3469 0.9999
C5 C 0.6504(13) -0.8342(9) 1.2893(8)
H6 H 0.6452 -0.7424 1.2834
H7 H 0.5610 -0.8634 1.2838
C6 C 0.5842(10) -0.8293(8) 1.0804(8)
C7 C 0.6471(11) -1.0383(8) 1.2030(13)
H8 H 0.5796 -1.0665 1.2232
H9 H 0.6172 -1.0811 1.1291
C8 C 0.2556(7) -1.0141(6) 0.6406(6)
H10 H 0.2686 -1.0839 0.6873
C9 C 0.5775(7) -0.6858(6) 1.0750(5)
C10 C 0.2009(8) -0.9289(6) 0.4576(7)
H11 H 0.1785 -0.9418 0.3815
C11 C 0.7392(7) -1.2931(6) 1.4218(5)
H12 H 0.6455 -1.2594 1.3542
C12 C 0.8483(9) -1.0722(6) 1.5104(5)
C13 C 0.4448(8) -0.6353(6) 0.9678(6)
H13 H 0.3637 -0.6903 0.9130
C14 C 0.2210(8) -1.0313(5) 0.5280(7)
H14 H 0.2109 -1.1130 0.4985
C15 C 0.2712(7) -0.8928(5) 0.6850(5)
H15 H 0.2961 -0.8812 0.7621
C16 C 0.2137(6) -0.8065(5) 0.4996(5)
C17 C 0.2498(6) -0.7886(5) 0.6150(5)
C18 C 0.7963(18) -1.0577(12) 1.2951(12)
H16 H 0.8649 -1.0069 1.2873
H17 H 0.8246 -1.1464 1.3027
C19 C 0.9036(9) -1.4684(6) 1.5354(7)
H18 H 0.9208 -1.5554 1.5419
C20 C 0.2834(6) -0.6569(5) 0.6689(5)
C21 C 0.7621(8) -1.4231(7) 1.4339(6)
H19 H 0.6844 -1.4782 1.3753
C22 C 0.1821(6) -0.6938(5) 0.4194(5)
C23 C 0.9924(7) -1.2668(5) 1.6111(5)
C24 C 0.8562(8) -1.2142(5) 1.5106(5)
Cu1_2 Cu 1.22820(5) -1.45137(5) 1.77706(5)
Cu1A Cu 0.22820(5) -0.54863(5) 0.27706(5)
O6A O 0.2450(4) -0.2993(4) 0.8650(3)
N4_2 N 0.0173(5) -0.3943(4) 0.6249(4)
O8 O 0.9886(7) -0.7713(5) 1.7117(5)
H21 H 0.9782 -0.8447 1.6832
H23 H 1.0578 -0.7481 1.7025
O9 O 0.1018(7) -0.3443(5) 0.4373(5)
H20 H 0.0975 -0.4244 0.4295
H22 H 0.0682 -0.3197 0.3662
loop_
_geom_bond_atom_site_label_1
_geom_bond_atom_site_label_2
_geom_bond_site_symmetry_1
_geom_bond_site_symmetry_2
Cu1 O5 1_555 1_555
O1 C20 1_555 1_555
O2 C6 1_555 1_555
O3 C22 1_555 1_555
O4 C12 1_555 1_555
O5 C20 1_555 1_555
O6 C22 1_555 1_555
O7 Cu1 1_555 1_555
N1 C5 1_555 1_555
N2 C1 1_555 1_555
N3 Cu1 1_555 1_555
N4 C19 1_555 1_555
C1 H1 1_555 1_555
H2 C1 1_555 1_555
C2 H3 1_555 1_555
C3 C2 1_555 1_555
H4 C3 1_555 1_555
C4 N3 1_555 1_555
H5 C4 1_555 1_555
C5 C1 1_555 1_555
H6 C5 1_555 1_555
H7 C5 1_555 1_555
C6 N1 1_555 1_555
C7 N1 1_555 1_555
H8 C7 1_555 1_555
H9 C7 1_555 1_555
C8 H10 1_555 1_555
C9 C2 1_555 1_555
C10 H11 1_555 1_555
C11 H12 1_555 1_555
C12 N2 1_555 1_555
C13 N3 1_555 1_555
H13 C13 1_555 1_555
C14 C8 1_555 1_555
H14 C14 1_555 1_555
C15 C8 1_555 1_555
H15 C15 1_555 1_555
C16 C10 1_555 1_555
C17 C15 1_555 1_555
C18 N2 1_555 1_555
H16 C18 1_555 1_555
H17 C18 1_555 1_555
C19 H18 1_555 1_555
C20 C17 1_555 1_555
C21 C11 1_555 1_555
H19 C21 1_555 1_555
C22 C16 1_555 1_555
C23 N4 1_555 1_555
C24 C11 1_555 1_555
O8 H21 1_555 1_555
O9 H20 1_555 1_555
H22 O9 1_555 1_555
H23 O8 1_555 1_555
Cu1_2 N4 1_555 1_555
Cu1A O6 1_555 1_555
O6A Cu1 1_555 1_555
N4_2 Cu1 1_555 1_555
C3 C4 1_555 1_555
C6 C9 1_555 1_555
C7 C18 1_555 1_555
C9 C13 1_555 1_555
C10 C14 1_555 1_555
C12 C24 1_555 1_555
C16 C17 1_555 1_555
C19 C21 1_555 1_555
C23 C24 1_555 1_555

#END
