
#######################################################################
#
#                 Cambridge Crystallographic Data Centre
#                                CCDC 
#
#######################################################################
#
# If this CIF has been generated from an entry in the Cambridge 
# Structural Database, then it will include bibliographic, chemical, 
# crystal, experimental, refinement or atomic coordinate data resulting 
# from the CCDC's data processing and validation procedures.
#
#######################################################################

data_BEMPIT
_symmetry_cell_setting           monoclinic
_symmetry_space_group_name_H-M   'P 2/c'
_symmetry_Int_Tables_number      13
_space_group_name_Hall           '-P 2yc'
loop_
_symmetry_equiv_pos_site_id
_symmetry_equiv_pos_as_xyz
1 x,y,z
2 x,-y,1/2+z
3 -x,-y,-z
4 -x,y,1/2-z
_cell_length_a                   8.521(5)
_cell_length_b                   6.885(5)
_cell_length_c                   14.691(5)
_cell_angle_alpha                90
_cell_angle_beta                 93.811(5)
_cell_angle_gamma                90
_cell_volume                     859.972
loop_
_atom_site_label
_atom_site_type_symbol
_atom_site_fract_x
_atom_site_fract_y
_atom_site_fract_z
Fe1 Fe 1.23639(6) 0.59707(8) -0.11312(4)
K1 K 0.75031(10) 0.05512(12) 0.50268(6)
K2 K 1.0000 0.79139(18) 0.2500
K3 K 0.5000 0.75682(18) 0.2500
O1 O 0.7366(3) 0.3755(4) 0.38982(18)
O2 O 1.0806(3) 0.7270(4) -0.02032(18)
O3 O 0.7583(3) 0.4908(4) 0.24909(18)
O4 O 0.7437(4) 0.0028(4) 0.3183(2)
O5 O 1.4127(3) 0.7262(4) -0.02171(19)
O6 O 0.9224(3) 0.6337(4) 0.08712(18)
O7 O 1.5964(3) 0.6378(4) 0.08599(18)
O8 O 0.7821(4) 0.1358(4) 0.18304(19)
C1 C 0.7506(4) 0.3542(6) 0.3077(3)
C2 C 0.7594(5) 0.1445(6) 0.2674(3)
C3 C 1.0014(4) 0.6046(5) 0.0191(3)
C4 C 1.5017(4) 0.6047(5) 0.0183(3)
C3B C 0.9986(4) 0.3954(5) -0.0191(3)
O2B O 0.9194(3) 0.2730(4) 0.02032(18)
O6B O 1.0776(3) 0.3663(4) -0.08712(18)
C4B C 1.4983(4) 0.3953(5) -0.0183(3)
O5B O 1.5873(3) 0.2738(4) 0.02171(19)
O7B O 1.4036(3) 0.3622(4) -0.08599(18)
O1C O 1.2634(3) 0.3755(4) 0.11018(18)
O3C O 1.2417(3) 0.4908(4) 0.25091(18)
O4C O 1.2563(4) 0.0028(4) 0.1817(2)
O8C O 1.2179(4) 0.1358(4) 0.31696(19)
C1C C 1.2494(4) 0.3542(6) 0.1923(3)
C2C C 1.2406(5) 0.1445(6) 0.2326(3)
Fe1B Fe 0.76361(6) 0.40293(8) 0.11312(4)
K1C K 1.24969(10) 0.05512(12) -0.00268(6)
O3B O 1.2417(3) 0.5092(4) -0.24909(18)
O8B O 1.2179(4) 0.8642(4) -0.18304(19)
K2A K 1.0000 0.20861(18) 0.7500
O2A O 1.0806(3) 0.2730(4) 0.47968(18)
O2C O 0.9194(3) -0.2730(4) 0.52032(18)
O5A O 0.4127(3) 0.2738(4) 0.47829(19)
O5C O 0.5873(3) -0.2738(4) 0.52171(19)
O6A O 0.9224(3) 0.3663(4) 0.58712(18)
O7A O 0.5964(3) 0.3622(4) 0.58599(18)
O8A O 0.7821(4) -0.1358(4) 0.68304(19)
K1A K 0.75031(10) 0.94488(12) 0.00268(6)
K1B K 1.24969(10) 0.94488(12) 0.49732(6)
K3_2 K 1.5000 0.75682(18) 0.2500
O4_2 O 0.7437(4) 1.0028(4) 0.3183(2)
O4C_2 O 1.2563(4) 1.0028(4) 0.1817(2)
O6C O 1.0776(3) 0.6337(4) 0.41288(18)
O8_2 O 0.7821(4) 1.1358(4) 0.18304(19)
O8C_2 O 1.2179(4) 1.1358(4) 0.31696(19)
K2_2 K 0.0000 0.79139(18) 0.2500
O3C_2 O 0.2417(3) 0.4908(4) 0.25091(18)
O4C_3 O 0.2563(4) 1.0028(4) 0.1817(2)
O7_2 O 0.5964(3) 0.6378(4) 0.08599(18)
O7C O 0.4036(3) 0.6378(4) 0.41401(18)
K1C_2 K 1.24969(10) 1.05512(12) -0.00268(6)
K2_3 K 1.0000 -0.20861(18) 0.2500
K3_3 K 0.5000 -0.24318(18) 0.2500
K1A_2 K 1.75031(10) 0.94488(12) 0.00268(6)
Fe1B_2 Fe 1.76361(6) 0.40293(8) 0.11312(4)
K1A_3 K 0.75031(10) -0.05512(12) 0.00268(6)
K2A_2 K 1.0000 0.20861(18) -0.2500
K1A_4 K 1.75031(10) -0.05512(12) 0.00268(6)
K3A K 1.5000 0.24318(18) -0.2500
Fe1A Fe 1.23639(6) 0.40293(8) 0.38688(4)
K3_4 K 1.5000 -0.24318(18) 0.2500
K1B_2 K 1.24969(10) -0.05512(12) 0.49732(6)
O5B_2 O 0.5873(3) 0.2738(4) 0.02171(19)
O2_2 O 1.0806(3) -0.2730(4) -0.02032(18)
O5_2 O 1.4127(3) -0.2738(4) -0.02171(19)
O8B_2 O 1.2179(4) -0.1358(4) -0.18304(19)
loop_
_geom_bond_atom_site_label_1
_geom_bond_atom_site_label_2
_geom_bond_site_symmetry_1
_geom_bond_site_symmetry_2
Fe1 O2 1_555 1_555
K1 O1 1_555 1_555
K2 O3 1_555 1_555
K3 O3 1_555 1_555
O1 C1 1_555 1_555
O2 C3 1_555 1_555
O3 C1 1_555 1_555
O4 K1 1_555 1_555
O5 Fe1 1_555 1_555
O6 K2 1_555 1_555
O7 C4 1_555 1_555
O8 C2 1_555 1_555
C1 C2 1_555 1_555
C2 O4 1_555 1_555
C3 O6 1_555 1_555
C4 O5 1_555 1_555
C3B C3 1_555 1_555
O2B C3B 1_555 1_555
O6B Fe1 1_555 1_555
C4B C4 1_555 1_555
O5B C4B 1_555 1_555
O7B Fe1 1_555 1_555
O1C C1C 1_555 1_555
O3C K2 1_555 1_555
O4C C2C 1_555 1_555
O8C C2C 1_555 1_555
C1C O3C 1_555 1_555
C2C C1C 1_555 1_555
Fe1B O3 1_555 1_555
K1C O2B 1_555 1_555
O3B Fe1 1_555 1_555
O8B Fe1 1_555 1_555
K2A O6A 1_555 1_555
O2A K1 1_555 1_555
O2C K1 1_555 1_555
O5A K1 1_555 1_555
O5C K1 1_555 1_555
O6A K1 1_555 1_555
O7A K1 1_555 1_555
O8A K1 1_555 1_555
K1A O2 1_555 1_555
K1B O6C 1_555 1_555
K3_2 O7 1_555 1_555
O4_2 K2 1_555 1_555
O4C_2 K2 1_555 1_555
O6C K2 1_555 1_555
O8_2 K2 1_555 1_555
O8C_2 K2 1_555 1_555
K2_2 O3C_2 1_555 1_555
O3C_2 K3 1_555 1_555
O4C_3 K3 1_555 1_555
O7_2 K3 1_555 1_555
O7C K3 1_555 1_555
K1C_2 O2 1_555 1_555
K2_3 O4 1_555 1_555
K3_3 O4 1_555 1_555
K1A_2 O5 1_555 1_555
Fe1B_2 O7 1_555 1_555
K1A_3 O8 1_555 1_555
K2A_2 O6B 1_555 1_555
K1A_4 O5B 1_555 1_555
K3A O7B 1_555 1_555
Fe1A O3C 1_555 1_555
K3_4 O4C 1_555 1_555
K1B_2 O8C 1_555 1_555
O5B_2 Fe1B 1_555 1_555
O2_2 K1C 1_555 1_555
O5_2 K1C 1_555 1_555
O8B_2 K1C 1_555 1_555
K3 O4_2 1_555 1_555
O5 K1C_2 1_555 1_555
O6 Fe1B 1_555 1_555
O6 K1A 1_555 1_555
O7 K1A_2 1_555 1_555
O8 Fe1B 1_555 1_555
O8 K2_3 1_555 1_555
C3B O6B 1_555 1_555
O2B Fe1B 1_555 1_555
O2B K1A_3 1_555 1_555
O6B K1C 1_555 1_555
C4B O7B 1_555 1_555
O5B K1C 1_555 1_555
O5B Fe1B_2 1_555 1_555
O7B K1C 1_555 1_555
O1C K1C 1_555 1_555
O3C K3_2 1_555 1_555
O4C K1C 1_555 1_555
O4C K2_3 1_555 1_555
O8C Fe1A 1_555 1_555
O8C K2_3 1_555 1_555
Fe1B O7_2 1_555 1_555
O3B K2A_2 1_555 1_555
O3B K3A 1_555 1_555
O8B K1C_2 1_555 1_555
K2A O8A 1_555 1_555
O2A Fe1A 1_555 1_555
O2A K1B_2 1_555 1_555
O2C K1B_2 1_555 1_555
K1A O7_2 1_555 1_555
K1A O8_2 1_555 1_555
K1B O8C_2 1_555 1_555
K3_2 O4C_2 1_555 1_555
O4C_2 K1C_2 1_555 1_555
O6C Fe1A 1_555 1_555
K2_2 O4C_3 1_555 1_555
K1A_3 O2_2 1_555 1_555
K1A_3 O5B_2 1_555 1_555
K2A_2 O8B_2 1_555 1_555
K1A_4 O5_2 1_555 1_555

#END
