
#######################################################################
#
#                 Cambridge Crystallographic Data Centre
#                                CCDC 
#
#######################################################################
#
# If this CIF has been generated from an entry in the Cambridge 
# Structural Database, then it will include bibliographic, chemical, 
# crystal, experimental, refinement or atomic coordinate data resulting 
# from the CCDC's data processing and validation procedures.
#
#######################################################################

data_BEMPIU
_symmetry_cell_setting           triclinic
_symmetry_space_group_name_H-M   'P -1'
_symmetry_Int_Tables_number      2
_space_group_name_Hall           '-P 1'
loop_
_symmetry_equiv_pos_site_id
_symmetry_equiv_pos_as_xyz
1 x,y,z
2 -x,-y,-z
_cell_length_a                   10.9490(6)
_cell_length_b                   12.2930(7)
_cell_length_c                   12.5190(7)
_cell_angle_alpha                76.9870(7)
_cell_angle_beta                 73.2930(6)
_cell_angle_gamma                80.0990(7)
_cell_volume                     1562.02
loop_
_atom_site_label
_atom_site_type_symbol
_atom_site_fract_x
_atom_site_fract_y
_atom_site_fract_z
Zn1 Zn 0.08237(2) 0.115325(18) 0.153689(17)
Zn2 Zn 0.170970(19) 0.012548(16) 0.382866(15)
Zn3 Zn -0.02285(2) -0.130736(18) 0.305140(17)
O1 O 0.02546(13) 0.01676(11) 0.30743(11)
H1 H -0.030(2) 0.044(2) 0.336(2)
O2 O 0.15211(13) 0.24426(11) 0.17043(11)
O3 O 0.16608(14) 0.18541(11) 0.34904(11)
O4 O 0.2369(2) 0.44461(15) -0.03291(15)
O5 O 0.12784(13) -0.13671(10) 0.49600(10)
O6 O 0.07711(16) -0.24210(11) 0.39463(12)
O7 O 0.15573(13) -0.18050(12) 0.75036(11)
O8 O 0.79922(14) -0.16035(14) 0.37708(13)
O9 O 0.77353(13) -0.03299(11) 0.48333(11)
N1 N -0.00436(15) 0.16361(14) -0.15387(13)
N2 N 0.01964(16) 0.16002(14) 0.01729(12)
C1 C 0.18420(17) 0.25359(15) 0.25627(15)
C2 C 0.24882(17) 0.35475(15) 0.24501(15)
C3 C 0.2582(2) 0.38844(17) 0.34077(18)
H2 H 0.2248 0.3473 0.4125
C4 C 0.3167(2) 0.4827(2) 0.3301(2)
H3 H 0.3242 0.5042 0.3944
C5 C 0.3645(3) 0.5451(2) 0.2233(3)
H4 H 0.4028 0.6092 0.2160
C6 C 0.3554(2) 0.51246(18) 0.1283(2)
H5 H 0.3873 0.5550 0.0570
C7 C 0.29907(19) 0.41665(15) 0.13709(17)
C8 C 0.2987(2) 0.38468(17) 0.02830(17)
C9 C -0.0718(3) 0.2466(2) -0.00557(19)
H6 H -0.1166 0.2961 0.0425
C10 C -0.0859(2) 0.2481(2) -0.10913(19)
H7 H -0.1424 0.2988 -0.1444
C11 C 0.05770(18) 0.11410(16) -0.07519(15)
H8 H 0.1212 0.0535 -0.0840
C12 C 0.10956(17) -0.22859(15) 0.47930(15)
C13 C 0.12691(17) -0.33182(15) 0.56633(15)
C14 C 0.0855(2) -0.43028(17) 0.56025(19)
H9 H 0.0536 -0.4320 0.4994
C15 C 0.0904(3) -0.52588(19) 0.6426(2)
H10 H 0.0614 -0.5908 0.6375
C16 C 0.1386(3) -0.5242(2) 0.7318(2)
H11 H 0.1412 -0.5879 0.7881
C17 C 0.1832(2) -0.42859(19) 0.73852(19)
H12 H 0.2174 -0.4287 0.7985
C18 C 0.17784(17) -0.33188(15) 0.65673(15)
C19 C 0.22397(17) -0.23251(15) 0.67775(14)
C20 C 0.35791(17) -0.20647(15) 0.62157(15)
C21 C 0.43255(19) -0.25097(17) 0.52820(17)
H13 H 0.4005 -0.3014 0.5007
C22 C 0.55510(19) -0.22047(18) 0.47559(17)
H14 H 0.6048 -0.2503 0.4127
C23 C 0.60369(17) -0.14568(15) 0.51646(15)
C24 C 0.52959(18) -0.10241(17) 0.61159(16)
H15 H 0.5620 -0.0530 0.6400
C25 C 0.40766(18) -0.13324(17) 0.66370(16)
H16 H 0.3585 -0.1047 0.7275
C26 C 0.73423(18) -0.11058(16) 0.45672(15)
C27 C 0.38852(18) 0.28566(16) -0.01000(15)
C28 C 0.3821(2) 0.2513(2) -0.10668(18)
H17 H 0.3154 0.2827 -0.1401
C29 C 0.4852(2) 0.23361(17) 0.04181(16)
H18 H 0.4884 0.2532 0.1084
C30 C 0.4739(2) 0.17102(19) -0.15340(18)
H19 H 0.4689 0.1492 -0.2183
C31 C 0.57347(18) 0.12289(16) -0.10423(15)
C32 C 0.68103(18) 0.04406(16) -0.16150(15)
C33 C 0.5767(2) 0.15287(17) -0.00469(16)
H20 H 0.6408 0.1184 0.0310
O10 O 0.76078(14) -0.00579(12) -0.10751(12)
O11 O 0.68406(13) 0.03680(13) -0.26137(11)
Zn1A Zn 0.91763(2) -0.115325(18) -0.153689(17)
Zn2A Zn 0.829030(19) -0.012548(16) 0.617134(15)
Zn2A_2 Zn 0.829030(19) -0.012548(16) -0.382866(15)
Zn3_2 Zn 0.97715(2) -0.130736(18) 0.305140(17)
Zn3A Zn 0.02285(2) 0.130736(18) -0.305140(17)
O8_2 O -0.20078(14) -0.16035(14) 0.37708(13)
O9A O 0.22647(13) 0.03299(11) 0.51667(11)
N1A N 0.00436(15) -0.16361(14) 0.15387(13)
O10A O 0.23922(14) 0.00579(12) 0.10751(12)
O11A O 0.31594(13) -0.03680(13) 0.26137(11)
loop_
_geom_bond_atom_site_label_1
_geom_bond_atom_site_label_2
_geom_bond_site_symmetry_1
_geom_bond_site_symmetry_2
Zn1 O1 1_555 1_555
Zn2 O1 1_555 1_555
Zn3 O1 1_555 1_555
O1 H1 1_555 1_555
O2 Zn1 1_555 1_555
O3 Zn2 1_555 1_555
O4 C8 1_555 1_555
O5 Zn2 1_555 1_555
O6 Zn3 1_555 1_555
O7 C19 1_555 1_555
O8 C26 1_555 1_555
O9 C26 1_555 1_555
N1 C10 1_555 1_555
N2 Zn1 1_555 1_555
C1 O2 1_555 1_555
C2 C1 1_555 1_555
C3 C2 1_555 1_555
H2 C3 1_555 1_555
C4 C3 1_555 1_555
H3 C4 1_555 1_555
C5 C4 1_555 1_555
H4 C5 1_555 1_555
C6 C5 1_555 1_555
H5 C6 1_555 1_555
C7 C2 1_555 1_555
C8 C7 1_555 1_555
C9 N2 1_555 1_555
H6 C9 1_555 1_555
C10 C9 1_555 1_555
H7 C10 1_555 1_555
C11 N1 1_555 1_555
H8 C11 1_555 1_555
C12 O5 1_555 1_555
C13 C12 1_555 1_555
C14 C13 1_555 1_555
H9 C14 1_555 1_555
C15 C14 1_555 1_555
H10 C15 1_555 1_555
C16 C15 1_555 1_555
H11 C16 1_555 1_555
C17 C16 1_555 1_555
H12 C17 1_555 1_555
C18 C13 1_555 1_555
C19 C18 1_555 1_555
C20 C19 1_555 1_555
C21 C20 1_555 1_555
H13 C21 1_555 1_555
C22 C21 1_555 1_555
H14 C22 1_555 1_555
C23 C22 1_555 1_555
C24 C23 1_555 1_555
H15 C24 1_555 1_555
C25 C20 1_555 1_555
H16 C25 1_555 1_555
C26 C23 1_555 1_555
C27 C8 1_555 1_555
C28 C27 1_555 1_555
H17 C28 1_555 1_555
C29 C27 1_555 1_555
H18 C29 1_555 1_555
C30 C28 1_555 1_555
H19 C30 1_555 1_555
C31 C30 1_555 1_555
C32 C31 1_555 1_555
C33 C29 1_555 1_555
H20 C33 1_555 1_555
O10 C32 1_555 1_555
O11 C32 1_555 1_555
Zn1A O10 1_555 1_555
Zn2A O9 1_555 1_555
Zn2A_2 O11 1_555 1_555
Zn3_2 O8 1_555 1_555
Zn3A N1 1_555 1_555
O8_2 Zn3 1_555 1_555
O9A Zn2 1_555 1_555
N1A Zn3 1_555 1_555
O10A Zn1 1_555 1_555
O11A Zn2 1_555 1_555
O3 C1 1_555 1_555
O6 C12 1_555 1_555
N2 C11 1_555 1_555
C6 C7 1_555 1_555
C17 C18 1_555 1_555
C24 C25 1_555 1_555
C31 C33 1_555 1_555

#END
