
#######################################################################
#
#                 Cambridge Crystallographic Data Centre
#                                CCDC 
#
#######################################################################
#
# If this CIF has been generated from an entry in the Cambridge 
# Structural Database, then it will include bibliographic, chemical, 
# crystal, experimental, refinement or atomic coordinate data resulting 
# from the CCDC's data processing and validation procedures.
#
#######################################################################

data_BEMPUG
_symmetry_cell_setting           monoclinic
_symmetry_space_group_name_H-M   'C 2/c'
_symmetry_Int_Tables_number      15
_space_group_name_Hall           '-C 2yn'
loop_
_symmetry_equiv_pos_site_id
_symmetry_equiv_pos_as_xyz
1 x,y,z
2 -x,y,1/2-z
3 1/2+x,1/2+y,z
4 1/2-x,1/2+y,1/2-z
5 -x,-y,-z
6 x,-y,1/2+z
7 1/2-x,1/2-y,-z
8 1/2+x,1/2-y,1/2+z
_cell_length_a                   21.887(10)
_cell_length_b                   9.997(5)
_cell_length_c                   23.855(11)
_cell_angle_alpha                90
_cell_angle_beta                 101.547(5)
_cell_angle_gamma                90
_cell_volume                     5113.94
loop_
_atom_site_label
_atom_site_type_symbol
_atom_site_fract_x
_atom_site_fract_y
_atom_site_fract_z
Ni1 Ni 0.449422(11) 0.22242(2) 0.182027(9)
O1 O 0.40814(7) 0.09931(14) 0.23313(6)
O2 O 0.43210(7) -0.56571(16) 0.31540(6)
O3 O 0.5000 0.33198(17) 0.2500
O4 O 0.50980(7) -0.66742(15) 0.37477(6)
N1 N 0.37693(7) 0.36131(16) 0.17364(7)
O5 O 0.48114(8) 0.08855(15) 0.31356(6)
C1 C 0.36263(9) -0.32419(19) 0.33138(8)
C2 C 0.27753(9) 0.5441(2) 0.15355(8)
C3 C 0.43434(10) -0.1400(2) 0.34936(9)
H1 H 0.4678 -0.0978 0.3729
C4 C 0.33418(10) -0.2641(2) 0.28055(8)
H2 H 0.3002 -0.3055 0.2573
O6 O 0.28819(8) -0.49831(19) 0.32377(8)
N2 N 0.09861(8) 0.38433(16) -0.11054(7)
C5 C 0.45838(9) -0.60755(18) 0.36345(8)
C6 C 0.35565(10) -0.1432(2) 0.26385(8)
H3 H 0.3358 -0.1035 0.2298
C7 C 0.36968(10) -0.51454(19) 0.40504(9)
C8 C 0.33732(9) -0.4530(2) 0.34953(9)
C9 C 0.16411(10) 0.5246(2) -0.01533(9)
C10 C 0.42634(9) -0.58334(19) 0.41296(8)
C11 C 0.40657(9) -0.08106(19) 0.29771(8)
C12 C 0.22296(11) 0.6391(2) 0.14162(9)
H4 H 0.2379 0.7284 0.1358
H5 H 0.2032 0.6417 0.1745
C13 C 0.41282(10) -0.2606(2) 0.36600(9)
H6 H 0.4320 -0.2994 0.4005
C14 C 0.43382(9) 0.04754(19) 0.27979(8)
C15 C 0.33856(10) 0.5839(2) 0.15712(8)
H7 H 0.3476 0.6737 0.1529
C16 C 0.38594(9) 0.49174(19) 0.16685(8)
H8 H 0.4265 0.5218 0.1688
C17 C 0.45282(11) -0.6317(2) 0.46695(9)
H9 H 0.4900 -0.6793 0.4721
C18 C 0.26832(11) 0.4089(2) 0.16051(11)
H10 H 0.2281 0.3762 0.1581
C19 C 0.17479(10) 0.5972(2) 0.08864(10)
H11 H 0.1596 0.5082 0.0945
H12 H 0.1396 0.6581 0.0835
C20 C 0.14330(13) 0.5846(2) -0.06712(10)
H13 H 0.1508 0.6752 -0.0714
C21 C 0.15091(14) 0.3892(3) -0.01271(10)
H14 H 0.1638 0.3428 0.0214
C22 C 0.11159(13) 0.5131(2) -0.11278(9)
H15 H 0.0985 0.5576 -0.1473
C23 C 0.20200(12) 0.5977(3) 0.03538(9)
H16 H 0.2432 0.5577 0.0445
H17 H 0.2070 0.6898 0.0244
C24 C 0.42461(12) -0.6102(3) 0.51308(10)
H18 H 0.4433 -0.6412 0.5492
C25 C 0.36928(13) -0.5432(3) 0.50528(11)
H19 H 0.3502 -0.5292 0.5363
C26 C 0.31818(11) 0.3221(2) 0.17107(11)
H20 H 0.3105 0.2321 0.1767
C27 C 0.11900(13) 0.3235(2) -0.06014(10)
H21 H 0.1112 0.2326 -0.0572
C28 C 0.34132(12) -0.4960(3) 0.45205(11)
H22 H 0.3033 -0.4516 0.4474
Ni1A Ni 0.550578(11) 1.22242(2) 0.317973(9)
Ni1A_2 Ni 0.550578(11) 0.22242(2) 0.317973(9)
Ni1A_3 Ni 0.550578(11) -0.77758(2) 0.317973(9)
Ni1F Ni 0.050578(11) 0.27758(2) -0.182027(9)
Ni1_2 Ni 0.449422(11) 1.22242(2) 0.182027(9)
O1A O 0.59186(7) 1.09931(14) 0.26687(6)
O2A O 0.56790(7) 0.43429(16) 0.18460(6)
O3_2 O 0.5000 1.33198(17) 0.2500
O4A O 0.49020(7) 0.33258(15) 0.12523(6)
O4_2 O 0.50980(7) 1.33258(15) 0.37477(6)
N1F N 0.12307(7) 0.13869(16) -0.17364(7)
N1A N 0.62307(7) 1.36131(16) 0.32636(7)
O5A O 0.51886(8) 1.08855(15) 0.18644(6)
O5A_2 O 0.51886(8) 0.08855(15) 0.18644(6)
O5_2 O 0.48114(8) 1.08855(15) 0.31356(6)
C1A C 0.63737(9) 0.67581(19) 0.16862(8)
C2F C 0.22247(9) -0.0441(2) -0.15355(8)
C3A C 0.56566(10) 0.8600(2) 0.15064(9)
H1A H 0.5322 0.9022 0.1271
C4A C 0.66582(10) 0.7359(2) 0.21945(8)
H2A H 0.6998 0.6945 0.2427
O6A O 0.71181(8) 0.50169(19) 0.17623(8)
N2F N 0.40139(8) 0.11567(16) 0.11054(7)
N2G N 0.59861(8) 1.11567(16) 0.38946(7)
C5A C 0.54162(9) 0.39245(18) 0.13655(8)
C6A C 0.64435(10) 0.8568(2) 0.23615(8)
H3A H 0.6642 0.8965 0.2702
C7A C 0.63032(10) 0.48546(19) 0.09496(9)
C8A C 0.66268(9) 0.5470(2) 0.15047(9)
C9F C 0.33589(10) -0.0246(2) 0.01533(9)
C10A C 0.57366(9) 0.41666(19) 0.08704(8)
C11A C 0.59343(9) 0.91894(19) 0.20229(8)
C12F C 0.27704(11) -0.1391(2) -0.14162(9)
H4F H 0.2621 -0.2284 -0.1358
H5F H 0.2968 -0.1417 -0.1745
C13A C 0.58718(10) 0.7394(2) 0.13400(9)
H6A H 0.5680 0.7006 0.0995
C14A C 0.56618(9) 1.04754(19) 0.22021(8)
C15F C 0.16144(10) -0.0839(2) -0.15712(8)
H7F H 0.1524 -0.1737 -0.1529
C16F C 0.11406(9) 0.00826(19) -0.16685(8)
H8F H 0.0735 -0.0218 -0.1688
C17A C 0.54718(11) 0.3683(2) 0.03305(9)
H9A H 0.5100 0.3207 0.0279
C18F C 0.23168(11) 0.0911(2) -0.16051(11)
H10F H 0.2719 0.1238 -0.1581
C19F C 0.32521(10) -0.0972(2) -0.08864(10)
H11F H 0.3404 -0.0082 -0.0945
H12F H 0.3604 -0.1581 -0.0835
C20F C 0.35670(13) -0.0846(2) 0.06712(10)
H13F H 0.3492 -0.1752 0.0714
C21F C 0.34909(14) 0.1108(3) 0.01271(10)
H14F H 0.3362 0.1572 -0.0214
C22F C 0.38841(13) -0.0131(2) 0.11278(9)
H15F H 0.4015 -0.0576 0.1473
C23F C 0.29800(12) -0.0977(3) -0.03538(9)
H16F H 0.2568 -0.0577 -0.0445
H17F H 0.2930 -0.1898 -0.0244
C24A C 0.57539(12) 0.3898(3) -0.01308(10)
H18A H 0.5567 0.3588 -0.0492
C25A C 0.63072(13) 0.4568(3) -0.00528(11)
H19A H 0.6498 0.4708 -0.0363
C26F C 0.18182(11) 0.1779(2) -0.17107(11)
H20F H 0.1895 0.2679 -0.1767
C27F C 0.38100(13) 0.1765(2) 0.06014(10)
H21F H 0.3888 0.2674 0.0572
C28A C 0.65868(12) 0.5040(3) 0.04795(11)
H22A H 0.6967 0.5484 0.0526
loop_
_geom_bond_atom_site_label_1
_geom_bond_atom_site_label_2
_geom_bond_site_symmetry_1
_geom_bond_site_symmetry_2
Ni1 O1 1_555 1_555
O1 C14 1_555 1_555
O2 C5 1_555 1_555
O3 Ni1 1_555 1_555
O4 C5 1_555 1_555
N1 Ni1 1_555 1_555
O5 C14 1_555 1_555
C1 C4 1_555 1_555
C2 C12 1_555 1_555
C3 H1 1_555 1_555
C4 H2 1_555 1_555
O6 C8 1_555 1_555
N2 C22 1_555 1_555
C5 C10 1_555 1_555
C6 C4 1_555 1_555
H3 C6 1_555 1_555
C7 C8 1_555 1_555
C8 C1 1_555 1_555
C9 C20 1_555 1_555
C10 C7 1_555 1_555
C11 C3 1_555 1_555
C12 H4 1_555 1_555
H5 C12 1_555 1_555
C13 C1 1_555 1_555
H6 C13 1_555 1_555
C14 C11 1_555 1_555
C15 C2 1_555 1_555
H7 C15 1_555 1_555
C16 N1 1_555 1_555
H8 C16 1_555 1_555
C17 C10 1_555 1_555
H9 C17 1_555 1_555
C18 C2 1_555 1_555
H10 C18 1_555 1_555
C19 C12 1_555 1_555
H11 C19 1_555 1_555
H12 C19 1_555 1_555
C20 H13 1_555 1_555
C21 C9 1_555 1_555
H14 C21 1_555 1_555
C22 C20 1_555 1_555
H15 C22 1_555 1_555
C23 C9 1_555 1_555
H16 C23 1_555 1_555
H17 C23 1_555 1_555
C24 C17 1_555 1_555
H18 C24 1_555 1_555
C25 C24 1_555 1_555
H19 C25 1_555 1_555
C26 N1 1_555 1_555
H20 C26 1_555 1_555
C27 N2 1_555 1_555
H21 C27 1_555 1_555
C28 C7 1_555 1_555
H22 C28 1_555 1_555
Ni1A O1A 1_555 1_555
Ni1A_2 O3 1_555 1_555
Ni1A_3 O4 1_555 1_555
Ni1F N2 1_555 1_555
Ni1_2 O3_2 1_555 1_555
O1A C14A 1_555 1_555
O2A C5A 1_555 1_555
O3_2 Ni1A 1_555 1_555
O4A Ni1 1_555 1_555
O4_2 Ni1A 1_555 1_555
N1F Ni1F 1_555 1_555
N1A Ni1A 1_555 1_555
O5A Ni1_2 1_555 1_555
O5A_2 Ni1 1_555 1_555
O5_2 Ni1A 1_555 1_555
C1A C4A 1_555 1_555
C2F C12F 1_555 1_555
C3A H1A 1_555 1_555
C4A H2A 1_555 1_555
O6A C8A 1_555 1_555
N2F Ni1 1_555 1_555
N2G Ni1A 1_555 1_555
C5A O4A 1_555 1_555
C6A C4A 1_555 1_555
H3A C6A 1_555 1_555
C7A C8A 1_555 1_555
C8A C1A 1_555 1_555
C9F C20F 1_555 1_555
C10A C5A 1_555 1_555
C11A C3A 1_555 1_555
C12F H4F 1_555 1_555
H5F C12F 1_555 1_555
C13A C1A 1_555 1_555
H6A C13A 1_555 1_555
C14A O5A 1_555 1_555
C15F C2F 1_555 1_555
H7F C15F 1_555 1_555
C16F N1F 1_555 1_555
H8F C16F 1_555 1_555
C17A C10A 1_555 1_555
H9A C17A 1_555 1_555
C18F C2F 1_555 1_555
H10F C18F 1_555 1_555
C19F C12F 1_555 1_555
H11F C19F 1_555 1_555
H12F C19F 1_555 1_555
C20F H13F 1_555 1_555
C21F C9F 1_555 1_555
H14F C21F 1_555 1_555
C22F N2F 1_555 1_555
H15F C22F 1_555 1_555
C23F C9F 1_555 1_555
H16F C23F 1_555 1_555
H17F C23F 1_555 1_555
C24A C17A 1_555 1_555
H18A C24A 1_555 1_555
C25A C24A 1_555 1_555
H19A C25A 1_555 1_555
C26F N1F 1_555 1_555
H20F C26F 1_555 1_555
C27F N2F 1_555 1_555
H21F C27F 1_555 1_555
C28A C7A 1_555 1_555
H22A C28A 1_555 1_555
O5 Ni1A_2 1_555 1_555
C3 C13 1_555 1_555
C6 C11 1_555 1_555
C15 C16 1_555 1_555
C18 C26 1_555 1_555
C19 C23 1_555 1_555
C21 C27 1_555 1_555
C25 C28 1_555 1_555
C3A C13A 1_555 1_555
C6A C11A 1_555 1_555
C7A C10A 1_555 1_555
C11A C14A 1_555 1_555
C15F C16F 1_555 1_555
C18F C26F 1_555 1_555
C19F C23F 1_555 1_555
C20F C22F 1_555 1_555
C21F C27F 1_555 1_555
C25A C28A 1_555 1_555

#END
