
#######################################################################
#
#                 Cambridge Crystallographic Data Centre
#                                CCDC 
#
#######################################################################
#
# If this CIF has been generated from an entry in the Cambridge 
# Structural Database, then it will include bibliographic, chemical, 
# crystal, experimental, refinement or atomic coordinate data resulting 
# from the CCDC's data processing and validation procedures.
#
#######################################################################

data_BEMQAN
_symmetry_cell_setting           triclinic
_symmetry_space_group_name_H-M   'P -1'
_symmetry_Int_Tables_number      2
_space_group_name_Hall           '-P 1'
loop_
_symmetry_equiv_pos_site_id
_symmetry_equiv_pos_as_xyz
1 x,y,z
2 -x,-y,-z
_cell_length_a                   9.6099(7)
_cell_length_b                   9.8590(7)
_cell_length_c                   11.2613(8)
_cell_angle_alpha                90.9650(10)
_cell_angle_beta                 106.9690(10)
_cell_angle_gamma                108.6200(10)
_cell_volume                     959.922
loop_
_atom_site_label
_atom_site_type_symbol
_atom_site_fract_x
_atom_site_fract_y
_atom_site_fract_z
Zn1 Zn 0.04362(3) 0.97800(3) 0.88106(2)
O1 O 0.0835(2) 0.8056(2) 0.96757(18)
O2 O 0.0223(2) 0.8435(2) 1.13895(19)
O3 O 0.3598(2) 0.36069(18) 1.42874(15)
O4 O 0.1865(2) 0.14526(19) 1.17829(17)
O5 O 0.2477(2) 0.0983(2) 1.00940(17)
N1 N 0.0950(2) 0.9585(2) 0.72150(17)
N2 N 0.2027(2) 0.9756(2) 0.57309(18)
C1 C 0.0763(3) 0.7819(3) 1.0749(2)
C2 C 0.1441(3) 0.6714(2) 1.1348(2)
C3 C 0.2203(4) 0.6075(3) 1.0781(3)
H1 H 0.2231 0.6269 0.9981
C4 C 0.2926(3) 0.5157(3) 1.1372(2)
H2 H 0.3454 0.4756 1.0977
C5 C 0.2870(3) 0.4829(2) 1.2551(2)
C6 C 0.2039(4) 0.5414(3) 1.3095(3)
H3 H 0.1948 0.5172 1.3870
C7 C 0.1341(4) 0.6353(3) 1.2502(3)
H4 H 0.0798 0.6745 1.2887
C8 C 0.3715(3) 0.3918(2) 1.3274(2)
C9 C 0.4871(3) 0.3524(2) 1.2807(2)
C10 C 0.6413(3) 0.4307(3) 1.3393(2)
H5 H 0.6685 0.5059 1.4019
C11 C 0.7554(3) 0.3986(3) 1.3060(3)
H6 H 0.8589 0.4508 1.3472
C12 C 0.7163(3) 0.2890(3) 1.2116(3)
H7 H 0.7931 0.2667 1.1895
C13 C 0.5631(3) 0.2132(3) 1.1504(2)
H8 H 0.5371 0.1409 1.0857
C14 C 0.4456(3) 0.2427(3) 1.1837(2)
C15 C 0.2797(3) 0.1553(3) 1.1183(2)
C16 C 0.3411(4) 1.1652(4) 0.7569(3)
H9 H 0.3258 1.1860 0.8348
H10 H 0.3410 1.2449 0.7090
H11 H 0.4384 1.1500 0.7730
C17 C 0.2149(3) 1.0339(3) 0.6858(2)
C18 C 0.0046(3) 0.8485(3) 0.6268(2)
H12 H -0.0872 0.7782 0.6261
C19 C 0.0701(3) 0.8585(3) 0.5349(2)
H13 H 0.0324 0.7977 0.4602
C20 C 0.3111(3) 1.0272(3) 0.5006(3)
H14 H 0.3511 1.1317 0.5129
H15 H 0.2554 0.9969 0.4123
C21 C 0.4449(3) 0.9712(3) 0.5375(3)
H16 H 0.4057 0.8666 0.5235
H17 H 0.5003 1.0002 0.6260
Zn1A Zn -0.04362(3) 1.02200(3) 1.11894(2)
Zn1A_2 Zn -0.04362(3) 0.02200(3) 1.11894(2)
Zn1_2 Zn 0.04362(3) -0.02200(3) 0.88106(2)
Zn1A_3 Zn 0.95638(3) 1.02200(3) 0.11894(2)
Zn1_3 Zn 0.04362(3) 1.97800(3) 0.88106(2)
Zn1A_4 Zn -0.04362(3) 2.02200(3) 1.11894(2)
O1A O -0.0835(2) 1.1944(2) 1.03243(18)
O2A O -0.0223(2) 1.1565(2) 0.86105(19)
O3A O -0.3598(2) 1.63931(18) 0.57126(15)
O4A O -0.1865(2) 1.85474(19) 0.82171(17)
O4A_2 O -0.1865(2) 0.85474(19) 0.82171(17)
O4_2 O 0.1865(2) 1.14526(19) 1.17829(17)
O5A O -0.2477(2) 1.9017(2) 0.99060(17)
O5_2 O 0.2477(2) 1.0983(2) 1.00940(17)
O5A_2 O -0.2477(2) 0.9017(2) 0.99060(17)
N1A N 0.9050(2) 1.0415(2) 0.27850(17)
N1A_2 N -0.0950(2) 1.0415(2) 1.27850(17)
N2A N 0.7973(2) 1.0244(2) 0.42691(18)
C1A C -0.0763(3) 1.2181(3) 0.9251(2)
C2A C -0.1441(3) 1.3286(2) 0.8652(2)
C3A C -0.2203(4) 1.3925(3) 0.9219(3)
H1A H -0.2231 1.3731 1.0019
C4A C -0.2926(3) 1.4843(3) 0.8628(2)
H2A H -0.3454 1.5244 0.9023
C5A C -0.2870(3) 1.5171(2) 0.7449(2)
C6A C -0.2039(4) 1.4586(3) 0.6905(3)
H3A H -0.1948 1.4828 0.6130
C7A C -0.1341(4) 1.3647(3) 0.7498(3)
H4A H -0.0798 1.3255 0.7113
C8A C -0.3715(3) 1.6082(2) 0.6726(2)
C9A C -0.4871(3) 1.6476(2) 0.7193(2)
C10A C -0.6413(3) 1.5693(3) 0.6607(2)
H5A H -0.6685 1.4941 0.5981
C11A C -0.7554(3) 1.6014(3) 0.6940(3)
H6A H -0.8589 1.5492 0.6528
C12A C -0.7163(3) 1.7110(3) 0.7884(3)
H7A H -0.7931 1.7333 0.8105
C13A C -0.5631(3) 1.7868(3) 0.8496(2)
H8A H -0.5371 1.8591 0.9143
C14A C -0.4456(3) 1.7573(3) 0.8163(2)
C15A C -0.2797(3) 1.8447(3) 0.8817(2)
C16A C 0.6589(4) 0.8348(4) 0.2431(3)
H9A H 0.6742 0.8140 0.1652
H10A H 0.6590 0.7551 0.2910
H11A H 0.5616 0.8500 0.2270
C17A C 0.7851(3) 0.9661(3) 0.3142(2)
C18A C 0.9954(3) 1.1515(3) 0.3732(2)
H12A H 1.0872 1.2218 0.3739
C19A C 0.9299(3) 1.1415(3) 0.4651(2)
H13A H 0.9676 1.2023 0.5398
C20A C 0.6889(3) 0.9728(3) 0.4994(3)
H14A H 0.6489 0.8683 0.4871
H15A H 0.7446 1.0031 0.5877
C21A C 0.5551(3) 1.0288(3) 0.4625(3)
H16A H 0.5943 1.1334 0.4765
H17A H 0.4997 0.9998 0.3740
loop_
_geom_bond_atom_site_label_1
_geom_bond_atom_site_label_2
_geom_bond_site_symmetry_1
_geom_bond_site_symmetry_2
Zn1 O1 1_555 1_555
O1 C1 1_555 1_555
O2 C1 1_555 1_555
O3 C8 1_555 1_555
O4 C15 1_555 1_555
O5 C15 1_555 1_555
N1 Zn1 1_555 1_555
N2 C17 1_555 1_555
C1 C2 1_555 1_555
C2 C3 1_555 1_555
C3 H1 1_555 1_555
C4 C3 1_555 1_555
H2 C4 1_555 1_555
C5 C4 1_555 1_555
C6 C5 1_555 1_555
H3 C6 1_555 1_555
C7 C2 1_555 1_555
H4 C7 1_555 1_555
C8 C5 1_555 1_555
C9 C8 1_555 1_555
C10 C9 1_555 1_555
H5 C10 1_555 1_555
C11 C10 1_555 1_555
H6 C11 1_555 1_555
C12 C11 1_555 1_555
H7 C12 1_555 1_555
C13 C12 1_555 1_555
H8 C13 1_555 1_555
C14 C9 1_555 1_555
C15 C14 1_555 1_555
C16 H9 1_555 1_555
H10 C16 1_555 1_555
H11 C16 1_555 1_555
C17 N1 1_555 1_555
C18 N1 1_555 1_555
H12 C18 1_555 1_555
C19 N2 1_555 1_555
H13 C19 1_555 1_555
C20 N2 1_555 1_555
H14 C20 1_555 1_555
H15 C20 1_555 1_555
C21 C20 1_555 1_555
H16 C21 1_555 1_555
H17 C21 1_555 1_555
Zn1A O2 1_555 1_555
Zn1A_2 O4 1_555 1_555
Zn1_2 O5 1_555 1_555
Zn1A_3 N1A 1_555 1_555
Zn1_3 O4A 1_555 1_555
Zn1A_4 O5A 1_555 1_555
O1A Zn1A 1_555 1_555
O2A Zn1 1_555 1_555
O3A C8A 1_555 1_555
O4A C15A 1_555 1_555
O4A_2 Zn1 1_555 1_555
O4_2 Zn1A 1_555 1_555
O5A C15A 1_555 1_555
O5_2 Zn1 1_555 1_555
O5A_2 Zn1A 1_555 1_555
N1A C17A 1_555 1_555
N1A_2 Zn1A 1_555 1_555
N2A C17A 1_555 1_555
C1A O1A 1_555 1_555
C2A C1A 1_555 1_555
C3A C2A 1_555 1_555
H1A C3A 1_555 1_555
C4A C3A 1_555 1_555
H2A C4A 1_555 1_555
C5A C4A 1_555 1_555
C6A C5A 1_555 1_555
H3A C6A 1_555 1_555
C7A C2A 1_555 1_555
H4A C7A 1_555 1_555
C8A C5A 1_555 1_555
C9A C8A 1_555 1_555
C10A C9A 1_555 1_555
H5A C10A 1_555 1_555
C11A C10A 1_555 1_555
H6A C11A 1_555 1_555
C12A C11A 1_555 1_555
H7A C12A 1_555 1_555
C13A C12A 1_555 1_555
H8A C13A 1_555 1_555
C14A C9A 1_555 1_555
C15A C14A 1_555 1_555
C16A H9A 1_555 1_555
H10A C16A 1_555 1_555
H11A C16A 1_555 1_555
C17A C16A 1_555 1_555
C18A N1A 1_555 1_555
H12A C18A 1_555 1_555
C19A N2A 1_555 1_555
H13A C19A 1_555 1_555
C20A N2A 1_555 1_555
H14A C20A 1_555 1_555
H15A C20A 1_555 1_555
C21A C21 1_555 1_555
H16A C21A 1_555 1_555
H17A C21A 1_555 1_555
C6 C7 1_555 1_555
C13 C14 1_555 1_555
C16 C17 1_555 1_555
C18 C19 1_555 1_555
O2A C1A 1_555 1_555
C6A C7A 1_555 1_555
C13A C14A 1_555 1_555
C18A C19A 1_555 1_555
C20A C21A 1_555 1_555

#END
