
#######################################################################
#
#                 Cambridge Crystallographic Data Centre
#                                CCDC 
#
#######################################################################
#
# If this CIF has been generated from an entry in the Cambridge 
# Structural Database, then it will include bibliographic, chemical, 
# crystal, experimental, refinement or atomic coordinate data resulting 
# from the CCDC's data processing and validation procedures.
#
#######################################################################

data_BEMRES
_symmetry_cell_setting           triclinic
_symmetry_space_group_name_H-M   'P -1'
_symmetry_Int_Tables_number      2
_space_group_name_Hall           '-P 1'
loop_
_symmetry_equiv_pos_site_id
_symmetry_equiv_pos_as_xyz
1 x,y,z
2 -x,-y,-z
_cell_length_a                   10.992(2)
_cell_length_b                   15.116(3)
_cell_length_c                   15.464(3)
_cell_angle_alpha                107.380(3)
_cell_angle_beta                 106.133(4)
_cell_angle_gamma                109.114(4)
_cell_volume                     2106.27
loop_
_atom_site_label
_atom_site_type_symbol
_atom_site_fract_x
_atom_site_fract_y
_atom_site_fract_z
Ag1 Ag 2.0756(1) 1.6272(1) 1.3489(1)
Ag2 Ag 1.2100(1) 1.0071 0.9092
Ag4 Ag 1.5000 1.0000 1.0000
Ag5 Ag 0.0470(1) 0.0271 0.4175
C1 C 1.7341(7) 1.3560(5) 1.3081(5)
C2 C 1.6113(6) 1.2823(5) 1.2254(5)
H1 H 1.5898 1.2925 1.1677
C3 C 1.5177(7) 1.1932(4) 1.2246(5)
C4 C 1.5540(7) 1.1761(5) 1.3122(4)
C5 C 1.6778(7) 1.2522(5) 1.3946(5)
H2 H 1.7023 1.2424 1.4525
C6 C 1.7657(7) 1.3410(5) 1.3945(5)
H3 H 1.8458 1.3909 1.4521
C7 C 1.8345(7) 1.4515(5) 1.3059(5)
C8 C 1.3764(7) 1.1261(5) 1.1372(5)
C9 C 1.4705(6) 1.0797(5) 1.3194(4)
C10 C 1.4508(6) 0.9814(5) 1.2594(4)
C11 C 1.3810(7) 0.8964(5) 1.2751(5)
H4 H 1.3667 0.8312 1.2345
C12 C 1.3318(7) 0.9059(5) 1.3498(5)
C13 C 1.3563(7) 1.0049(5) 1.4101(5)
H5 H 1.3250 1.0133 1.4607
C14 C 1.4260(7) 1.0911(5) 1.3968(5)
H6 H 1.4432 1.1564 1.4394
C15 C 1.5060(7) 0.9668(5) 1.1799(5)
C16 C 1.2511(7) 0.8129(5) 1.3627(5)
C17 C 0.9184(8) 0.8382(6) 0.7217(5)
H7 H 0.8638 0.8696 0.7398
C18 C 0.9760(8) 0.7244(6) 0.6426(6)
H8 H 0.9716 0.6650 0.5982
C19 C 1.0925(8) 0.8059(6) 0.7200(6)
H9 H 1.1840 0.8122 0.7368
C20 C 0.7162(8) 0.6759(6) 0.5771(5)
H10 H 0.7077 0.6417 0.5102
H11 H 0.6611 0.7146 0.5746
C21 C 0.6584(7) 0.5958(5) 0.6127(5)
C22 C 0.5813(8) 0.6076(6) 0.6690(6)
H12 H 0.5596 0.6634 0.6806
C23 C 0.5358(8) 0.5388(5) 0.7082(6)
H13 H 0.4832 0.5482 0.7449
C24 C 0.5679(7) 0.4562(5) 0.6933(5)
C25 C 0.6397(8) 0.4413(6) 0.6344(6)
H14 H 0.6579 0.3839 0.6209
C26 C 0.6857(8) 0.5106(6) 0.5944(6)
H15 H 0.7349 0.4994 0.5554
C27 C 0.5178(8) 0.3803(6) 0.7350(6)
H16 H 0.5756 0.3438 0.7390
H17 H 0.5287 0.4176 0.8019
C28 C 0.2526(8) 0.3246(6) 0.6644(6)
H18 H 0.2527 0.3849 0.7034
C29 C 0.1394(9) 0.2391(6) 0.5887(6)
H19 H 0.0466 0.2304 0.5671
C30 C 0.3212(9) 0.2091(5) 0.6008(5)
H20 H 0.3785 0.1775 0.5897
C38 C -0.0196(9) -0.1339(6) 0.2034(6)
H28 H 0.0744 -0.1140 0.2129
C39 C -0.1326(11) -0.2028(7) 0.1183(6)
H29 H -0.1307 -0.2377 0.0583
C40 C -0.2034(9) -0.1473(5) 0.2288(5)
H30 H -0.2631 -0.1379 0.2592
C41 C -0.3957(9) -0.2768(6) 0.0618(7)
H31 H -0.4072 -0.2641 0.0028
H32 H -0.4559 -0.2557 0.0897
C42 C -0.4451(8) -0.3925(6) 0.0311(5)
C43 C -0.3620(8) -0.4359(6) 0.0684(6)
H33 H -0.2686 -0.3933 0.1148
C44 C -0.5830(8) -0.4578(6) -0.0371(6)
H34 H -0.6404 -0.4300 -0.0626
N1 N 1.0571(6) 0.8785(4) 0.7706(4)
N2 N 0.8651(6) 0.7475(4) 0.6434(4)
N3 N 0.3681(7) 0.3047(4) 0.6723(4)
N4 N 0.1821(7) 0.1663(5) 0.5483(5)
N7 N -0.0648(7) -0.0976(4) 0.2740(4)
N8 N -0.2489(7) -0.2130(5) 0.1342(5)
O1 O 1.9526(6) 1.5066(4) 1.3786(4)
O2 O 1.7950(5) 1.4688(4) 1.2315(4)
O3 O 1.3749(5) 1.1210(4) 1.0521(3)
O4 O 1.2713(5) 1.0820(4) 1.1503(3)
O5 O 1.4218(6) 0.9305(6) 1.0932(4)
O6 O 1.6335(6) 0.9944(5) 1.2063(4)
O7 O 1.2447(7) 0.7285(4) 1.3134(4)
O8 O 1.1935(6) 0.8237(4) 1.4210(4)
Ag1A Ag 0.9244(1) 0.3728(1) 0.6511(1)
Ag1_2 Ag 1.0756(1) 0.6272(1) 1.3489(1)
Ag1A_2 Ag 1.9244(1) 1.3728(1) 0.6511(1)
Ag2A Ag 1.7900(1) 0.9929 1.0908
Ag5A Ag 2.9530(1) 1.9729 1.5825
Ag5A_2 Ag -1.0470(1) -1.0271 -0.4175
C1A C 1.2659(7) 0.6440(5) 0.6919(5)
C2A C 1.3887(6) 0.7177(5) 0.7746(5)
H1A H 1.4102 0.7075 0.8323
C3A C 1.4823(7) 0.8068(4) 0.7754(5)
C4A C 1.4460(7) 0.8239(5) 0.6878(4)
C5A C 1.3222(7) 0.7478(5) 0.6054(5)
H2A H 1.2977 0.7576 0.5475
C6A C 1.2343(7) 0.6590(5) 0.6055(5)
H3A H 1.1542 0.6091 0.5479
C7A C 1.1655(7) 0.5485(5) 0.6941(5)
C8A C 1.6236(7) 0.8739(5) 0.8628(5)
C9A C 1.5295(6) 0.9203(5) 0.6806(4)
C10A C 1.5492(6) 1.0186(5) 0.7406(4)
C11A C 1.6190(7) 1.1036(5) 0.7249(5)
H4A H 1.6333 1.1688 0.7655
C12A C 1.6682(7) 1.0941(5) 0.6502(5)
C13A C 1.6437(7) 0.9951(5) 0.5899(5)
H5A H 1.6750 0.9867 0.5393
C14A C 1.5740(7) 0.9089(5) 0.6032(5)
H6A H 1.5568 0.8436 0.5606
C15A C 1.4940(7) 1.0332(5) 0.8201(5)
C16A C 1.7489(7) 1.1871(5) 0.6373(5)
C17A C 2.0816(8) 1.1618(6) 1.2783(5)
H7A H 2.1362 1.1304 1.2602
C18A C 2.0240(8) 1.2756(6) 1.3574(6)
H8A H 2.0284 1.3350 1.4018
C19A C 1.9075(8) 1.1941(6) 1.2800(6)
H9A H 1.8160 1.1878 1.2632
C20A C 2.2838(8) 1.3241(6) 1.4229(5)
H10A H 2.2923 1.3583 1.4898
H11A H 2.3389 1.2854 1.4254
C21A C 2.3416(7) 1.4042(5) 1.3873(5)
C22A C 2.4187(8) 1.3924(6) 1.3310(6)
H12A H 2.4404 1.3366 1.3194
C23A C 2.4642(8) 1.4612(5) 1.2918(6)
H13A H 2.5168 1.4518 1.2551
C24A C 2.4321(7) 1.5438(5) 1.3067(5)
C25A C 2.3603(8) 1.5587(6) 1.3656(6)
H14A H 2.3421 1.6161 1.3791
C26A C 2.3143(8) 1.4894(6) 1.4056(6)
H15A H 2.2651 1.5006 1.4446
C27A C 2.4822(8) 1.6197(6) 1.2650(6)
H16A H 2.4244 1.6562 1.2610
H17A H 2.4713 1.5824 1.1981
C28A C 2.7474(8) 1.6754(6) 1.3356(6)
H18A H 2.7473 1.6151 1.2966
C29A C 2.8606(9) 1.7609(6) 1.4113(6)
H19A H 2.9534 1.7696 1.4329
C30A C 2.6788(9) 1.7909(5) 1.3992(5)
H20A H 2.6215 1.8225 1.4103
C38A C -0.9804(9) -0.8661(6) -0.2034(6)
H28A H -1.0744 -0.8860 -0.2129
C39A C -0.8674(11) -0.7972(7) -0.1183(6)
H29A H -0.8693 -0.7623 -0.0583
C40A C -0.7966(9) -0.8527(5) -0.2288(5)
H30A H -0.7369 -0.8621 -0.2592
C41A C -0.6043(9) -0.7232(6) -0.0618(7)
H31A H -0.5928 -0.7359 -0.0028
H32A H -0.5441 -0.7443 -0.0897
C42A C -0.5549(8) -0.6075(6) -0.0311(5)
C43A C -0.6380(8) -0.5641(6) -0.0684(6)
H33A H -0.7314 -0.6067 -0.1148
C44A C -0.4170(8) -0.5422(6) 0.0371(6)
H34A H -0.3596 -0.5700 0.0626
N1A N 1.9429(6) 1.1215(4) 1.2294(4)
N2A N 2.1349(6) 1.2525(4) 1.3566(4)
N3A N 2.6319(7) 1.6953(4) 1.3277(4)
N4A N 2.8179(7) 1.8337(5) 1.4517(5)
N7A N -0.9352(7) -0.9024(4) -0.2740(4)
N7A_2 N 3.0648(7) 2.0976(4) 1.7260(4)
N8A N -0.7511(7) -0.7870(5) -0.1342(5)
O1A O 1.0474(6) 0.4934(4) 0.6214(4)
O2A O 1.2050(5) 0.5312(4) 0.7685(4)
O3A O 1.6251(5) 0.8790(4) 0.9479(3)
O4A O 1.7287(5) 0.9180(4) 0.8497(3)
O5A O 1.5782(6) 1.0695(6) 0.9068(4)
O6A O 1.3665(6) 1.0056(5) 0.7937(4)
O7A O 1.7553(7) 1.2715(4) 0.6866(4)
O7_2 O 2.2447(7) 1.7285(4) 1.3134(4)
O7A_2 O 0.7553(7) 0.2715(4) 0.6866(4)
O8A O 1.8065(6) 1.1763(4) 0.5790(4)
O8_2 O 2.1935(6) 1.8237(4) 1.4210(4)
O8A_2 O 0.8065(6) 0.1763(4) 0.5790(4)
Ag3 Ag 1.0000 1.0000 1.0000
C31 C 1.0948(8) 0.8278(5) 0.9932(5)
H21 H 1.1837 0.8757 1.0439
C32 C 0.9186(8) 0.6823(6) 0.8754(5)
H22 H 0.8632 0.6128 0.8310
C33 C 0.8786(8) 0.7588(6) 0.8857(5)
H23 H 0.7904 0.7513 0.8481
C34 C 1.1437(9) 0.6729(6) 0.9597(7)
H24 H 1.2347 0.7215 1.0151
H25 H 1.1603 0.6467 0.9009
C35 C 1.0713(8) 0.5833(6) 0.9822(6)
C36 C 1.0485(11) 0.6008(6) 1.0671(7)
H26 H 1.0809 0.6683 1.1135
C37 C 1.0241(10) 0.4835(7) 0.9158(6)
H27 H 1.0401 0.4710 0.8583
N5 N 0.9896(6) 0.8497(4) 0.9607(4)
N6 N 1.0562(7) 0.7267(5) 0.9428(5)
Ag3_2 Ag 1.0000 0.0000 1.0000
C31A C 0.9052(8) 0.1722(5) 1.0068(5)
H21A H 0.8163 0.1243 0.9561
C32A C 1.0814(8) 0.3177(6) 1.1246(5)
H22A H 1.1368 0.3872 1.1690
C33A C 1.1214(8) 0.2412(6) 1.1143(5)
H23A H 1.2096 0.2487 1.1519
C34A C 0.8563(9) 0.3271(6) 1.0403(7)
H24A H 0.7653 0.2785 0.9849
H25A H 0.8397 0.3533 1.0991
C35A C 0.9287(8) 0.4167(6) 1.0178(6)
C36A C 0.9515(11) 0.3992(6) 0.9329(7)
H26A H 0.9191 0.3317 0.8865
C37A C 0.9759(10) 0.5165(7) 1.0842(6)
H27A H 0.9599 0.5290 1.1417
N5A N 1.0104(6) 0.1503(4) 1.0393(4)
N5A_2 N 1.0104(6) 1.1503(4) 1.0393(4)
N6A N 0.9438(7) 0.2733(5) 1.0572(5)
O9 O 0.7976(7) 0.0364(5) 0.4078(4)
H35 H 0.779(10) 0.071(7) 0.453(4)
H36 H 0.753(9) 0.035(8) 0.353(3)
loop_
_geom_bond_atom_site_label_1
_geom_bond_atom_site_label_2
_geom_bond_site_symmetry_1
_geom_bond_site_symmetry_2
Ag1 O1 1_555 1_555
Ag2 N1 1_555 1_555
Ag3 N5 1_555 1_555
Ag4 O5 1_555 1_555
Ag5 N4 1_555 1_555
C1 C2 1_555 1_555
C2 H1 1_555 1_555
C3 C2 1_555 1_555
C4 C3 1_555 1_555
C5 C4 1_555 1_555
H2 C5 1_555 1_555
C6 C1 1_555 1_555
H3 C6 1_555 1_555
C7 C1 1_555 1_555
C8 C3 1_555 1_555
C9 C4 1_555 1_555
C10 C9 1_555 1_555
C11 C10 1_555 1_555
H4 C11 1_555 1_555
C12 C11 1_555 1_555
C13 C12 1_555 1_555
H5 C13 1_555 1_555
C14 C9 1_555 1_555
H6 C14 1_555 1_555
C15 C10 1_555 1_555
C16 C12 1_555 1_555
C17 H7 1_555 1_555
C18 H8 1_555 1_555
C19 C18 1_555 1_555
H9 C19 1_555 1_555
C20 H10 1_555 1_555
H11 C20 1_555 1_555
C21 C20 1_555 1_555
C22 C21 1_555 1_555
H12 C22 1_555 1_555
C23 C22 1_555 1_555
H13 C23 1_555 1_555
C24 C23 1_555 1_555
C25 C24 1_555 1_555
H14 C25 1_555 1_555
C26 C21 1_555 1_555
H15 C26 1_555 1_555
C27 C24 1_555 1_555
H16 C27 1_555 1_555
H17 C27 1_555 1_555
C28 H18 1_555 1_555
C29 C28 1_555 1_555
H19 C29 1_555 1_555
C30 H20 1_555 1_555
C31 H21 1_555 1_555
C32 H22 1_555 1_555
C33 C32 1_555 1_555
H23 C33 1_555 1_555
C34 H24 1_555 1_555
H25 C34 1_555 1_555
C35 C34 1_555 1_555
C36 C35 1_555 1_555
H26 C36 1_555 1_555
C37 C35 1_555 1_555
H27 C37 1_555 1_555
C38 H28 1_555 1_555
C39 C38 1_555 1_555
H29 C39 1_555 1_555
C40 H30 1_555 1_555
C41 H31 1_555 1_555
H32 C41 1_555 1_555
C42 C41 1_555 1_555
C43 C42 1_555 1_555
H33 C43 1_555 1_555
C44 C42 1_555 1_555
H34 C44 1_555 1_555
N1 C17 1_555 1_555
N2 C17 1_555 1_555
N3 C27 1_555 1_555
N4 C29 1_555 1_555
N5 C31 1_555 1_555
N6 C31 1_555 1_555
N7 Ag5 1_555 1_555
N8 C39 1_555 1_555
O1 C7 1_555 1_555
O2 C7 1_555 1_555
O3 Ag2 1_555 1_555
O4 C8 1_555 1_555
O5 C15 1_555 1_555
O6 C15 1_555 1_555
O7 C16 1_555 1_555
O8 C16 1_555 1_555
O9 H35 1_555 1_555
H36 O9 1_555 1_555
Ag1A O1A 1_555 1_555
Ag1_2 O7 1_555 1_555
Ag1A_2 O7A 1_555 1_555
Ag2A N1A 1_555 1_555
Ag3_2 N5A 1_555 1_555
Ag5A N4A 1_555 1_555
Ag5A_2 N7A 1_555 1_555
C1A C2A 1_555 1_555
C2A H1A 1_555 1_555
C3A C2A 1_555 1_555
C4A C3A 1_555 1_555
C5A C4A 1_555 1_555
H2A C5A 1_555 1_555
C6A C1A 1_555 1_555
H3A C6A 1_555 1_555
C7A C1A 1_555 1_555
C8A C3A 1_555 1_555
C9A C4A 1_555 1_555
C10A C9A 1_555 1_555
C11A C10A 1_555 1_555
H4A C11A 1_555 1_555
C12A C11A 1_555 1_555
C13A C12A 1_555 1_555
H5A C13A 1_555 1_555
C14A C9A 1_555 1_555
H6A C14A 1_555 1_555
C15A C10A 1_555 1_555
C16A C12A 1_555 1_555
C17A H7A 1_555 1_555
C18A H8A 1_555 1_555
C19A C18A 1_555 1_555
H9A C19A 1_555 1_555
C20A H10A 1_555 1_555
H11A C20A 1_555 1_555
C21A C20A 1_555 1_555
C22A C21A 1_555 1_555
H12A C22A 1_555 1_555
C23A C22A 1_555 1_555
H13A C23A 1_555 1_555
C24A C23A 1_555 1_555
C25A C24A 1_555 1_555
H14A C25A 1_555 1_555
C26A C21A 1_555 1_555
H15A C26A 1_555 1_555
C27A C24A 1_555 1_555
H16A C27A 1_555 1_555
H17A C27A 1_555 1_555
C28A H18A 1_555 1_555
C29A C28A 1_555 1_555
H19A C29A 1_555 1_555
C30A H20A 1_555 1_555
C31A H21A 1_555 1_555
C32A H22A 1_555 1_555
C33A C32A 1_555 1_555
H23A C33A 1_555 1_555
C34A H24A 1_555 1_555
H25A C34A 1_555 1_555
C35A C34A 1_555 1_555
C36A C37 1_555 1_555
H26A C36A 1_555 1_555
C37A C36 1_555 1_555
H27A C37A 1_555 1_555
C38A H28A 1_555 1_555
C39A C38A 1_555 1_555
H29A C39A 1_555 1_555
C40A H30A 1_555 1_555
C41A H31A 1_555 1_555
H32A C41A 1_555 1_555
C42A C41A 1_555 1_555
C43A C44 1_555 1_555
H33A C43A 1_555 1_555
C44A C43 1_555 1_555
H34A C44A 1_555 1_555
N1A C17A 1_555 1_555
N2A C17A 1_555 1_555
N3A C27A 1_555 1_555
N4A C29A 1_555 1_555
N5A C31A 1_555 1_555
N5A_2 Ag3 1_555 1_555
N6A C31A 1_555 1_555
N7A C38A 1_555 1_555
N7A_2 Ag5A 1_555 1_555
N8A C39A 1_555 1_555
O1A C7A 1_555 1_555
O2A C7A 1_555 1_555
O3A Ag2A 1_555 1_555
O4A C8A 1_555 1_555
O5A Ag4 1_555 1_555
O6A C15A 1_555 1_555
O7A C16A 1_555 1_555
O7_2 Ag1 1_555 1_555
O7A_2 Ag1A 1_555 1_555
O8A Ag1A_2 1_555 1_555
O8_2 Ag1 1_555 1_555
O8A_2 Ag1A 1_555 1_555
C5 C6 1_555 1_555
C8 O3 1_555 1_555
C13 C14 1_555 1_555
C18 N2 1_555 1_555
C19 N1 1_555 1_555
C20 N2 1_555 1_555
C25 C26 1_555 1_555
C28 N3 1_555 1_555
C30 N3 1_555 1_555
C30 N4 1_555 1_555
C32 N6 1_555 1_555
C33 N5 1_555 1_555
C34 N6 1_555 1_555
C38 N7 1_555 1_555
C40 N7 1_555 1_555
C40 N8 1_555 1_555
C41 N8 1_555 1_555
O8 Ag1_2 1_555 1_555
C5A C6A 1_555 1_555
C8A O3A 1_555 1_555
C13A C14A 1_555 1_555
C15A O5A 1_555 1_555
C16A O8A 1_555 1_555
C18A N2A 1_555 1_555
C19A N1A 1_555 1_555
C20A N2A 1_555 1_555
C25A C26A 1_555 1_555
C28A N3A 1_555 1_555
C30A N3A 1_555 1_555
C30A N4A 1_555 1_555
C32A N6A 1_555 1_555
C33A N5A 1_555 1_555
C34A N6A 1_555 1_555
C35A C36A 1_555 1_555
C35A C37A 1_555 1_555
C40A N7A 1_555 1_555
C40A N8A 1_555 1_555
C41A N8A 1_555 1_555
C42A C43A 1_555 1_555
C42A C44A 1_555 1_555

#END
