
#######################################################################
#
#                 Cambridge Crystallographic Data Centre
#                                CCDC 
#
#######################################################################
#
# If this CIF has been generated from an entry in the Cambridge 
# Structural Database, then it will include bibliographic, chemical, 
# crystal, experimental, refinement or atomic coordinate data resulting 
# from the CCDC's data processing and validation procedures.
#
#######################################################################

data_BEMSAO
_symmetry_cell_setting           triclinic
_symmetry_space_group_name_H-M   'P -1'
_symmetry_Int_Tables_number      2
_space_group_name_Hall           '-P 1'
loop_
_symmetry_equiv_pos_site_id
_symmetry_equiv_pos_as_xyz
1 x,y,z
2 -x,-y,-z
_cell_length_a                   10.2310(10)
_cell_length_b                   11.104(2)
_cell_length_c                   13.751(2)
_cell_angle_alpha                102.930(10)
_cell_angle_beta                 95.170(10)
_cell_angle_gamma                102.720(10)
_cell_volume                     1469.16
loop_
_atom_site_label
_atom_site_type_symbol
_atom_site_fract_x
_atom_site_fract_y
_atom_site_fract_z
Cu1 Cu 0.5000 0.5000 0.5000
O1 O 0.3260(3) 0.5460(2) 0.49775(19)
C1 C 0.1688(5) 0.6661(5) 0.4818(5)
F1 F 0.1566(4) 0.7783(4) 0.4796(5)
F2 F 0.1108(4) 0.5886(5) 0.3966(3)
F3 F 0.0952(4) 0.6297(5) 0.5483(4)
C2 C 0.3144(4) 0.6579(4) 0.5082(3)
C3 C 0.4131(5) 0.7689(4) 0.5415(4)
H1 H 0.391(5) 0.837(5) 0.551(4)
C4 C 0.5467(5) 0.7710(4) 0.5678(3)
C5 C 0.6453(6) 0.9002(5) 0.6114(5)
F4 F 0.6824(6) 0.9209(4) 0.7058(4)
F5 F 0.7546(7) 0.9069(5) 0.5776(7)
F6 F 0.6070(5) 0.9950(3) 0.5996(5)
O2 O 0.5987(3) 0.6783(2) 0.56208(19)
Cu2 Cu 0.0000 0.0000 0.0000
O3 O 0.1503(2) -0.0113(2) -0.07563(18)
C6 C 0.3450(3) -0.0605(3) -0.1304(3)
F7 F 0.2893(3) -0.0949(4) -0.2239(2)
F8 F 0.4339(3) -0.1264(3) -0.1189(3)
F9 F 0.4148(3) 0.0576(2) -0.1153(2)
C7 C 0.2391(3) -0.0703(3) -0.0593(2)
C8 C 0.2497(3) -0.1382(3) 0.0119(3)
H2 H 0.317(4) -0.180(4) 0.014(3)
C9 C 0.1536(3) -0.1529(3) 0.0774(3)
C10 C 0.1717(4) -0.2344(4) 0.1504(3)
F10 F 0.2973(3) -0.2279(4) 0.1813(3)
F11 F 0.1124(3) -0.2066(3) 0.2302(2)
F12 F 0.1134(4) -0.3550(3) 0.1067(3)
O4 O 0.0505(2) -0.1104(2) 0.08204(18)
O5 O 0.4938(2) 0.5628(2) 0.34858(18)
N1 N 0.5476(3) 0.5308(2) 0.2686(2)
C11 C 0.6733(3) 0.6153(3) 0.2488(3)
C12 C 0.7786(5) 0.6605(5) 0.3427(4)
H3 H 0.744(5) 0.718(4) 0.393(4)
H4 H 0.800(5) 0.592(4) 0.364(3)
H5 H 0.858(5) 0.714(4) 0.324(3)
C13 C 0.6279(6) 0.7283(4) 0.2226(5)
H6 H 0.596(4) 0.767(4) 0.278(3)
H7 H 0.708(5) 0.792(5) 0.213(4)
H8 H 0.566(6) 0.705(5) 0.164(4)
C14 C 0.7087(3) 0.5249(3) 0.1576(3)
C15 C 0.7555(5) 0.5865(5) 0.0748(4)
H9 H 0.775(5) 0.523(5) 0.028(4)
H10 H 0.682(6) 0.618(5) 0.047(4)
H11 H 0.829(4) 0.660(4) 0.103(3)
C16 C 0.8051(5) 0.4487(5) 0.1869(5)
H12 H 0.815(4) 0.388(4) 0.133(4)
H13 H 0.893(5) 0.505(4) 0.217(3)
H14 H 0.775(5) 0.402(5) 0.234(4)
N2 N 0.5735(3) 0.4314(2) 0.1186(2)
O6 O 0.5495(2) 0.3521(2) 0.03253(18)
C17 C 0.4899(3) 0.4346(3) 0.1885(2)
C18 C 0.3574(3) 0.3508(3) 0.1793(2)
C19 C 0.2920(3) 0.2421(3) 0.1024(3)
H15 H 0.317(3) 0.210(3) 0.047(3)
N3 N 0.1711(3) 0.1891(3) 0.1210(2)
N4 N 0.1580(3) 0.2629(3) 0.2102(2)
C20 C 0.0395(5) 0.2318(7) 0.2588(4)
H16 H 0.058(6) 0.276(6) 0.318(5)
H17 H -0.024(6) 0.253(5) 0.217(5)
H18 H 0.014(5) 0.147(5) 0.249(4)
C21 C 0.2664(3) 0.3602(4) 0.2462(3)
H19 H 0.271(4) 0.417(4) 0.304(3)
O1A O 0.6740(3) 0.4540(2) 0.50225(19)
C1A C 0.8312(5) 0.3339(5) 0.5182(5)
F1A F 0.8434(4) 0.2217(4) 0.5204(5)
F2A F 0.8892(4) 0.4114(5) 0.6034(3)
F3A F 0.9048(4) 0.3703(5) 0.4517(4)
C2A C 0.6856(4) 0.3421(4) 0.4918(3)
C3A C 0.5869(5) 0.2311(4) 0.4585(4)
H1A H 0.609(5) 0.163(5) 0.449(4)
C4A C 0.4533(5) 0.2290(4) 0.4322(3)
C5A C 0.3547(6) 0.0998(5) 0.3886(5)
F4A F 0.3176(6) 0.0791(4) 0.2942(4)
F5A F 0.2454(7) 0.0931(5) 0.4224(7)
F6A F 0.3930(5) 0.0050(3) 0.4004(5)
O2A O 0.4013(3) 0.3217(2) 0.43792(19)
O5A O 0.5062(2) 0.4372(2) 0.65142(18)
N1A N 0.4524(3) 0.4692(2) 0.7314(2)
C11A C 0.3267(3) 0.3847(3) 0.7512(3)
C12A C 0.2214(5) 0.3395(5) 0.6573(4)
H3A H 0.256(5) 0.282(4) 0.607(4)
H4A H 0.200(5) 0.408(4) 0.636(3)
H5A H 0.142(5) 0.286(4) 0.676(3)
C13A C 0.3721(6) 0.2717(4) 0.7774(5)
H6A H 0.404(4) 0.233(4) 0.722(3)
H7A H 0.292(5) 0.208(5) 0.787(4)
H8A H 0.434(6) 0.295(5) 0.836(4)
C14A C 0.2913(3) 0.4751(3) 0.8424(3)
C15A C 0.2445(5) 0.4135(5) 0.9252(4)
H9A H 0.225(5) 0.477(5) 0.972(4)
H10A H 0.318(6) 0.382(5) 0.953(4)
H11A H 0.171(4) 0.340(4) 0.897(3)
C16A C 0.1949(5) 0.5513(5) 0.8131(5)
H12A H 0.185(4) 0.612(4) 0.867(4)
H13A H 0.107(5) 0.495(4) 0.783(3)
H14A H 0.225(5) 0.598(5) 0.766(4)
N2A N 0.4265(3) 0.5686(2) 0.8814(2)
O6A O 0.4505(2) 0.6479(2) 0.96747(18)
C17A C 0.5101(3) 0.5654(3) 0.8115(2)
C18A C 0.6426(3) 0.6492(3) 0.8207(2)
C19A C 0.7080(3) 0.7579(3) 0.8976(3)
H15A H 0.683(3) 0.790(3) 0.953(3)
N3A N 0.8289(3) 0.8109(3) 0.8790(2)
N4A N 0.8420(3) 0.7371(3) 0.7898(2)
C20A C 0.9605(5) 0.7682(7) 0.7412(4)
H16A H 0.942(6) 0.724(6) 0.682(5)
H17A H 1.024(6) 0.747(5) 0.783(5)
H18A H 0.986(5) 0.853(5) 0.751(4)
C21A C 0.7336(3) 0.6398(4) 0.7538(3)
H19A H 0.729(4) 0.583(4) 0.696(3)
O3A O -0.1503(2) 0.0113(2) 0.07563(18)
C6A C -0.3450(3) 0.0605(3) 0.1304(3)
F7A F -0.2893(3) 0.0949(4) 0.2239(2)
F8A F -0.4339(3) 0.1264(3) 0.1189(3)
F9A F -0.4148(3) -0.0576(2) 0.1153(2)
C7A C -0.2391(3) 0.0703(3) 0.0593(2)
C8A C -0.2497(3) 0.1382(3) -0.0119(3)
H2A H -0.317(4) 0.180(4) -0.014(3)
C9A C -0.1536(3) 0.1529(3) -0.0774(3)
C10A C -0.1717(4) 0.2344(4) -0.1504(3)
F10A F -0.2973(3) 0.2279(4) -0.1813(3)
F11A F -0.1124(3) 0.2066(3) -0.2302(2)
F12A F -0.1134(4) 0.3550(3) -0.1067(3)
O4A O -0.0505(2) 0.1104(2) -0.08204(18)
N3A_2 N -0.1711(3) -0.1891(3) -0.1210(2)
Cu2_2 Cu 1.0000 1.0000 1.0000
loop_
_geom_bond_atom_site_label_1
_geom_bond_atom_site_label_2
_geom_bond_site_symmetry_1
_geom_bond_site_symmetry_2
Cu1 O1 1_555 1_555
O1 C2 1_555 1_555
C1 F1 1_555 1_555
F2 C1 1_555 1_555
F3 C1 1_555 1_555
C2 C1 1_555 1_555
C3 C2 1_555 1_555
H1 C3 1_555 1_555
C4 C3 1_555 1_555
C5 C4 1_555 1_555
F4 C5 1_555 1_555
F5 C5 1_555 1_555
F6 C5 1_555 1_555
O2 Cu1 1_555 1_555
Cu2 O3 1_555 1_555
O3 C7 1_555 1_555
C6 F7 1_555 1_555
F8 C6 1_555 1_555
F9 C6 1_555 1_555
C7 C6 1_555 1_555
C8 C7 1_555 1_555
H2 C8 1_555 1_555
C9 C8 1_555 1_555
C10 C9 1_555 1_555
F10 C10 1_555 1_555
F11 C10 1_555 1_555
F12 C10 1_555 1_555
O4 Cu2 1_555 1_555
O5 Cu1 1_555 1_555
N1 O5 1_555 1_555
C11 N1 1_555 1_555
C12 C11 1_555 1_555
H3 C12 1_555 1_555
H4 C12 1_555 1_555
H5 C12 1_555 1_555
C13 C11 1_555 1_555
H6 C13 1_555 1_555
H7 C13 1_555 1_555
H8 C13 1_555 1_555
C14 C11 1_555 1_555
C15 C14 1_555 1_555
H9 C15 1_555 1_555
H10 C15 1_555 1_555
H11 C15 1_555 1_555
C16 C14 1_555 1_555
H12 C16 1_555 1_555
H13 C16 1_555 1_555
H14 C16 1_555 1_555
N2 C14 1_555 1_555
O6 N2 1_555 1_555
C17 N1 1_555 1_555
C18 C17 1_555 1_555
C19 C18 1_555 1_555
H15 C19 1_555 1_555
N3 Cu2 1_555 1_555
N4 N3 1_555 1_555
C20 N4 1_555 1_555
H16 C20 1_555 1_555
H17 C20 1_555 1_555
H18 C20 1_555 1_555
C21 C18 1_555 1_555
H19 C21 1_555 1_555
O1A Cu1 1_555 1_555
C1A F1A 1_555 1_555
F2A C1A 1_555 1_555
F3A C1A 1_555 1_555
C2A O1A 1_555 1_555
C3A C2A 1_555 1_555
H1A C3A 1_555 1_555
C4A C3A 1_555 1_555
C5A C4A 1_555 1_555
F4A C5A 1_555 1_555
F5A C5A 1_555 1_555
F6A C5A 1_555 1_555
O2A Cu1 1_555 1_555
O5A Cu1 1_555 1_555
N1A O5A 1_555 1_555
C11A N1A 1_555 1_555
C12A C11A 1_555 1_555
H3A C12A 1_555 1_555
H4A C12A 1_555 1_555
H5A C12A 1_555 1_555
C13A C11A 1_555 1_555
H6A C13A 1_555 1_555
H7A C13A 1_555 1_555
H8A C13A 1_555 1_555
C14A C11A 1_555 1_555
C15A C14A 1_555 1_555
H9A C15A 1_555 1_555
H10A C15A 1_555 1_555
H11A C15A 1_555 1_555
C16A C14A 1_555 1_555
H12A C16A 1_555 1_555
H13A C16A 1_555 1_555
H14A C16A 1_555 1_555
N2A C14A 1_555 1_555
O6A N2A 1_555 1_555
C17A N1A 1_555 1_555
C18A C17A 1_555 1_555
C19A C18A 1_555 1_555
H15A C19A 1_555 1_555
N3A C19A 1_555 1_555
N4A N3A 1_555 1_555
C20A N4A 1_555 1_555
H16A C20A 1_555 1_555
H17A C20A 1_555 1_555
H18A C20A 1_555 1_555
C21A C18A 1_555 1_555
H19A C21A 1_555 1_555
O3A Cu2 1_555 1_555
C6A F7A 1_555 1_555
F8A C6A 1_555 1_555
F9A C6A 1_555 1_555
C7A O3A 1_555 1_555
C8A C7A 1_555 1_555
H2A C8A 1_555 1_555
C9A C8A 1_555 1_555
C10A C9A 1_555 1_555
F10A C10A 1_555 1_555
F11A C10A 1_555 1_555
F12A C10A 1_555 1_555
O4A Cu2 1_555 1_555
N3A_2 Cu2 1_555 1_555
Cu2_2 N3A 1_555 1_555
C4 O2 1_555 1_555
C9 O4 1_555 1_555
N2 C17 1_555 1_555
C19 N3 1_555 1_555
N4 C21 1_555 1_555
C1A C2A 1_555 1_555
C4A O2A 1_555 1_555
N2A C17A 1_555 1_555
N4A C21A 1_555 1_555
C6A C7A 1_555 1_555
C9A O4A 1_555 1_555

#END
