
#######################################################################
#
#                 Cambridge Crystallographic Data Centre
#                                CCDC 
#
#######################################################################
#
# If this CIF has been generated from an entry in the Cambridge 
# Structural Database, then it will include bibliographic, chemical, 
# crystal, experimental, refinement or atomic coordinate data resulting 
# from the CCDC's data processing and validation procedures.
#
#######################################################################

data_BEMSAO04
_symmetry_cell_setting           monoclinic
_symmetry_space_group_name_H-M   'P 21/n'
_symmetry_Int_Tables_number      14
_space_group_name_Hall           '-P 2yn'
loop_
_symmetry_equiv_pos_site_id
_symmetry_equiv_pos_as_xyz
1 x,y,z
2 1/2-x,1/2+y,1/2-z
3 -x,-y,-z
4 1/2+x,1/2-y,1/2+z
_cell_length_a                   10.189(3)
_cell_length_b                   36.981(11)
_cell_length_c                   15.147(4)
_cell_angle_alpha                90
_cell_angle_beta                 103.52(2)
_cell_angle_gamma                90
_cell_volume                     5549.22
loop_
_atom_site_label
_atom_site_type_symbol
_atom_site_fract_x
_atom_site_fract_y
_atom_site_fract_z
Cu1 Cu 0.06548(4) 0.132640(11) -0.64545(3)
O1 O -0.0061(2) 0.08283(6) -0.66680(15)
C1 C -0.1410(3) 0.03137(9) -0.6645(2)
F1 F -0.27201(19) 0.02303(5) -0.68012(14)
F2 F -0.0775(2) 0.01298(5) -0.59052(14)
F3 F -0.0950(2) 0.01906(5) -0.73414(14)
C2 C -0.1137(3) 0.07211(9) -0.6486(2)
C3 C -0.2054(3) 0.09192(9) -0.6124(2)
H1 H -0.280(3) 0.0805(9) -0.606(2)
C4 C -0.1821(3) 0.12744(9) -0.5864(2)
C5 C -0.2838(3) 0.14709(10) -0.5420(3)
F4 F -0.3980(2) 0.12859(6) -0.54789(16)
F5 F -0.2294(2) 0.15247(6) -0.45355(14)
F6 F -0.3174(2) 0.17939(5) -0.57949(15)
O2 O -0.0824(2) 0.14737(6) -0.59047(15)
O3 O 0.1412(2) 0.18174(6) -0.61958(15)
C6 C 0.2787(4) 0.23254(10) -0.6167(3)
F7 F 0.2523(2) 0.24189(5) -0.53788(14)
F8 F 0.2038(3) 0.25369(6) -0.67944(17)
F9 F 0.4075(3) 0.24092(7) -0.6113(2)
C7 C 0.2456(3) 0.19297(9) -0.6411(2)
C8 C 0.3300(4) 0.17431(10) -0.6863(2)
H2 H 0.399(4) 0.1859(9) -0.696(2)
C9 C 0.3059(3) 0.13873(9) -0.7129(2)
C10 C 0.4030(4) 0.11993(10) -0.7615(3)
F10 F 0.3382(2) 0.10806(8) -0.84305(16)
F11 F 0.5043(2) 0.14077(6) -0.77210(19)
F12 F 0.4589(2) 0.09106(5) -0.71502(15)
O4 O 0.2111(2) 0.11833(6) -0.70283(15)
Cu2 Cu 0.53663(4) 0.117760(11) -0.14456(3)
O5 O 0.3584(2) 0.10353(6) -0.12989(16)
C11 C 0.1896(4) 0.06865(11) -0.0912(3)
F13 F 0.1691(2) 0.03984(8) -0.0446(2)
F14 F 0.1224(2) 0.09592(7) -0.06504(17)
F15 F 0.1326(2) 0.06266(8) -0.17809(19)
C12 C 0.3391(4) 0.07845(9) -0.0777(3)
C13 C 0.4335(4) 0.06043(10) -0.0117(3)
H3 H 0.408(4) 0.0444(10) 0.024(3)
C14 C 0.5708(4) 0.06889(9) 0.0057(2)
C15 C 0.6686(4) 0.05059(11) 0.0846(3)
F16 F 0.7816(2) 0.04076(8) 0.06221(18)
F17 F 0.7038(3) 0.07329(7) 0.15440(16)
F18 F 0.6179(2) 0.02110(6) 0.11458(16)
O6 O 0.6271(2) 0.09119(6) -0.03603(16)
O7 O 0.4498(2) 0.14835(6) -0.24757(15)
C16 C 0.4249(4) 0.19323(10) -0.3610(2)
F19 F 0.2995(3) 0.19498(9) -0.3538(2)
F20 F 0.4688(3) 0.22611(7) -0.3604(2)
F21 F 0.4199(4) 0.17980(8) -0.44168(17)
C17 C 0.5128(3) 0.16929(9) -0.2879(2)
C18 C 0.6523(4) 0.17341(10) -0.2743(2)
H4 H 0.686(3) 0.1895(10) -0.305(2)
C19 C 0.7421(3) 0.15314(9) -0.2107(2)
C20 C 0.8939(4) 0.15970(10) -0.1968(3)
F22 F 0.9243(2) 0.18682(6) -0.24599(17)
F23 F 0.9507(2) 0.16671(7) -0.11057(15)
F24 F 0.9538(2) 0.13015(6) -0.21981(16)
O8 O 0.7167(2) 0.12868(6) -0.15892(16)
O9 O 0.5153(2) 0.06211(6) -0.22229(15)
N1 N 0.5656(3) 0.05229(7) -0.28950(19)
C21 C 0.6801(3) 0.02555(9) -0.2764(2)
C22 C 0.6191(4) -0.01105(11) -0.2616(3)
H5 H 0.582(4) -0.0095(10) -0.209(3)
H6 H 0.691(4) -0.0290(10) -0.250(2)
H7 H 0.554(4) -0.0187(9) -0.312(3)
C23 C 0.7902(4) 0.03584(12) -0.1942(3)
H8 H 0.760(4) 0.0323(11) -0.139(3)
H9 H 0.820(3) 0.0595(9) -0.196(2)
H10 H 0.869(4) 0.0198(10) -0.189(2)
C24 C 0.7194(3) 0.02894(9) -0.3698(2)
C25 C 0.8301(4) 0.05642(11) -0.3704(3)
H11 H 0.841(3) 0.0599(9) -0.432(3)
H12 H 0.913(4) 0.0474(11) -0.333(3)
H13 H 0.805(3) 0.0785(10) -0.346(2)
C26 C 0.7492(4) -0.00698(11) -0.4108(3)
H14 H 0.775(4) -0.0037(11) -0.470(3)
H15 H 0.669(4) -0.0224(10) -0.420(2)
H16 H 0.822(4) -0.0196(10) -0.367(3)
N2 N 0.5909(3) 0.04439(7) -0.42802(19)
O10 O 0.5699(2) 0.04622(6) -0.51486(15)
C27 C 0.5115(3) 0.05917(8) -0.3776(2)
C28 C 0.3880(3) 0.07914(9) -0.4117(2)
C29 C 0.3316(3) 0.09185(9) -0.4999(2)
H17 H 0.363(3) 0.0891(9) -0.550(2)
N3 N 0.2173(3) 0.10974(7) -0.50378(18)
N4 N 0.2001(3) 0.10866(8) -0.41738(19)
C30 C 0.0876(4) 0.12731(13) -0.3929(3)
H18 H 0.108(4) 0.1307(12) -0.329(3)
H19 H 0.010(4) 0.1111(11) -0.410(3)
H20 H 0.068(4) 0.1490(11) -0.427(3)
C31 C 0.2989(3) 0.09057(9) -0.3613(3)
H21 H 0.298(3) 0.0886(9) -0.300(3)
O11 O 0.5683(2) 0.17687(6) -0.07000(15)
N5 N 0.5336(3) 0.19416(7) -0.00499(19)
C32 C 0.3992(3) 0.21315(9) -0.0196(2)
C33 C 0.3716(5) 0.23464(13) -0.1073(3)
H22 H 0.364(4) 0.2176(11) -0.159(3)
H23 H 0.444(4) 0.2511(11) -0.107(3)
H24 H 0.284(4) 0.2465(11) -0.113(3)
C34 C 0.2935(4) 0.18297(12) -0.0247(4)
H25 H 0.295(4) 0.1698(11) -0.079(3)
H26 H 0.199(5) 0.1922(11) -0.038(3)
H27 H 0.311(3) 0.1687(10) 0.033(3)
C35 C 0.4228(3) 0.23610(9) 0.0695(2)
C36 C 0.3020(4) 0.23878(12) 0.1123(3)
H28 H 0.328(4) 0.2533(11) 0.168(3)
H29 H 0.268(4) 0.2170(11) 0.124(2)
H30 H 0.236(5) 0.2509(12) 0.071(3)
C37 C 0.4812(4) 0.27371(10) 0.0604(3)
H31 H 0.507(4) 0.2841(10) 0.120(3)
H32 H 0.415(4) 0.2891(9) 0.022(2)
H33 H 0.562(4) 0.2732(9) 0.035(2)
N6 N 0.5345(3) 0.21505(7) 0.1308(2)
O12 O 0.5710(2) 0.22077(7) 0.21629(16)
C38 C 0.6021(3) 0.19463(9) 0.0819(2)
C39 C 0.7274(3) 0.17560(9) 0.1179(2)
C40 C 0.8065(4) 0.17386(10) 0.2069(3)
H34 H 0.790(3) 0.1846(9) 0.254(2)
N7 N 0.9125(3) 0.15244(8) 0.21375(19)
N8 N 0.9027(3) 0.14040(8) 0.12713(19)
C41 C 1.0020(5) 0.11523(14) 0.1063(3)
H35 H 0.967(4) 0.1046(11) 0.053(3)
H36 H 1.024(4) 0.0956(12) 0.156(3)
H37 H 1.082(5) 0.1254(12) 0.107(3)
C42 C 0.7953(3) 0.15369(10) 0.0691(3)
H38 H 0.775(3) 0.1484(9) 0.010(3)
N7_2 N -0.0875(3) 0.15244(8) -0.78625(19)
Cu1_2 Cu 1.06548(4) 0.132640(11) 0.35455(3)
loop_
_geom_bond_atom_site_label_1
_geom_bond_atom_site_label_2
_geom_bond_site_symmetry_1
_geom_bond_site_symmetry_2
Cu1 O1 1_555 1_555
O1 C2 1_555 1_555
C1 F1 1_555 1_555
F2 C1 1_555 1_555
F3 C1 1_555 1_555
C2 C1 1_555 1_555
C3 C2 1_555 1_555
H1 C3 1_555 1_555
C4 C3 1_555 1_555
C5 C4 1_555 1_555
F4 C5 1_555 1_555
F5 C5 1_555 1_555
F6 C5 1_555 1_555
O2 Cu1 1_555 1_555
O3 Cu1 1_555 1_555
C6 F7 1_555 1_555
F8 C6 1_555 1_555
F9 C6 1_555 1_555
C7 O3 1_555 1_555
C8 C7 1_555 1_555
H2 C8 1_555 1_555
C9 C8 1_555 1_555
C10 C9 1_555 1_555
F10 C10 1_555 1_555
F11 C10 1_555 1_555
F12 C10 1_555 1_555
O4 Cu1 1_555 1_555
Cu2 O5 1_555 1_555
O5 C12 1_555 1_555
C11 F13 1_555 1_555
F14 C11 1_555 1_555
F15 C11 1_555 1_555
C12 C11 1_555 1_555
C13 C12 1_555 1_555
H3 C13 1_555 1_555
C14 C13 1_555 1_555
C15 C14 1_555 1_555
F16 C15 1_555 1_555
F17 C15 1_555 1_555
F18 C15 1_555 1_555
O6 Cu2 1_555 1_555
O7 Cu2 1_555 1_555
C16 F19 1_555 1_555
F20 C16 1_555 1_555
F21 C16 1_555 1_555
C17 O7 1_555 1_555
C18 C17 1_555 1_555
H4 C18 1_555 1_555
C19 C18 1_555 1_555
C20 C19 1_555 1_555
F22 C20 1_555 1_555
F23 C20 1_555 1_555
F24 C20 1_555 1_555
O8 Cu2 1_555 1_555
O9 Cu2 1_555 1_555
N1 O9 1_555 1_555
C21 N1 1_555 1_555
C22 C21 1_555 1_555
H5 C22 1_555 1_555
H6 C22 1_555 1_555
H7 C22 1_555 1_555
C23 C21 1_555 1_555
H8 C23 1_555 1_555
H9 C23 1_555 1_555
H10 C23 1_555 1_555
C24 C21 1_555 1_555
C25 C24 1_555 1_555
H11 C25 1_555 1_555
H12 C25 1_555 1_555
H13 C25 1_555 1_555
C26 C24 1_555 1_555
H14 C26 1_555 1_555
H15 C26 1_555 1_555
H16 C26 1_555 1_555
N2 C24 1_555 1_555
O10 N2 1_555 1_555
C27 N1 1_555 1_555
C28 C27 1_555 1_555
C29 C28 1_555 1_555
H17 C29 1_555 1_555
N3 Cu1 1_555 1_555
N4 N3 1_555 1_555
C30 N4 1_555 1_555
H18 C30 1_555 1_555
H19 C30 1_555 1_555
H20 C30 1_555 1_555
C31 C28 1_555 1_555
H21 C31 1_555 1_555
O11 Cu2 1_555 1_555
N5 O11 1_555 1_555
C32 N5 1_555 1_555
C33 C32 1_555 1_555
H22 C33 1_555 1_555
H23 C33 1_555 1_555
H24 C33 1_555 1_555
C34 C32 1_555 1_555
H25 C34 1_555 1_555
H26 C34 1_555 1_555
H27 C34 1_555 1_555
C35 C32 1_555 1_555
C36 C35 1_555 1_555
H28 C36 1_555 1_555
H29 C36 1_555 1_555
H30 C36 1_555 1_555
C37 C35 1_555 1_555
H31 C37 1_555 1_555
H32 C37 1_555 1_555
H33 C37 1_555 1_555
N6 C35 1_555 1_555
O12 N6 1_555 1_555
C38 N5 1_555 1_555
C39 C38 1_555 1_555
C40 C39 1_555 1_555
H34 C40 1_555 1_555
N7 C40 1_555 1_555
N8 N7 1_555 1_555
C41 N8 1_555 1_555
H35 C41 1_555 1_555
H36 C41 1_555 1_555
H37 C41 1_555 1_555
C42 C39 1_555 1_555
H38 C42 1_555 1_555
N7_2 Cu1 1_555 1_555
Cu1_2 N7 1_555 1_555
C4 O2 1_555 1_555
C6 C7 1_555 1_555
C9 O4 1_555 1_555
C14 O6 1_555 1_555
C16 C17 1_555 1_555
C19 O8 1_555 1_555
N2 C27 1_555 1_555
C29 N3 1_555 1_555
N4 C31 1_555 1_555
N6 C38 1_555 1_555
N8 C42 1_555 1_555

#END
