
#######################################################################
#
#                 Cambridge Crystallographic Data Centre
#                                CCDC 
#
#######################################################################
#
# If this CIF has been generated from an entry in the Cambridge 
# Structural Database, then it will include bibliographic, chemical, 
# crystal, experimental, refinement or atomic coordinate data resulting 
# from the CCDC's data processing and validation procedures.
#
#######################################################################

data_BEMSAO03
_symmetry_cell_setting           monoclinic
_symmetry_space_group_name_H-M   'P 21/n'
_symmetry_Int_Tables_number      14
_space_group_name_Hall           '-P 2yn'
loop_
_symmetry_equiv_pos_site_id
_symmetry_equiv_pos_as_xyz
1 x,y,z
2 1/2-x,1/2+y,1/2-z
3 -x,-y,-z
4 1/2+x,1/2-y,1/2+z
_cell_length_a                   10.253(4)
_cell_length_b                   37.649(12)
_cell_length_c                   15.411(6)
_cell_angle_alpha                90
_cell_angle_beta                 103.23(2)
_cell_angle_gamma                90
_cell_volume                     5790.99
loop_
_atom_site_label
_atom_site_type_symbol
_atom_site_fract_x
_atom_site_fract_y
_atom_site_fract_z
Cu1 Cu 0.06165(5) 0.131850(13) -0.65311(3)
O1 O -0.0099(3) 0.08327(7) -0.67367(18)
C1 C -0.1438(5) 0.03317(11) -0.6719(3)
F1 F -0.2728(3) 0.02513(8) -0.6892(2)
F2 F -0.0845(3) 0.01475(8) -0.6002(2)
F3 F -0.0964(3) 0.02121(8) -0.7388(2)
C2 C -0.1171(4) 0.07320(10) -0.6554(2)
C3 C -0.2070(4) 0.09239(11) -0.6197(3)
H1 H -0.294(4) 0.0799(12) -0.605(3)
C4 C -0.1841(4) 0.12751(10) -0.5949(2)
C5 C -0.2844(4) 0.14683(11) -0.5509(3)
F4 F -0.3956(3) 0.12912(9) -0.5545(3)
F5 F -0.2289(3) 0.15333(10) -0.46560(19)
F6 F -0.3176(3) 0.17818(8) -0.5885(2)
O2 O -0.0857(3) 0.14689(7) -0.59977(17)
O3 O 0.1373(3) 0.17980(7) -0.62892(18)
C6 C 0.2751(5) 0.22938(11) -0.6276(3)
F7 F 0.2497(4) 0.23874(8) -0.5499(2)
F8 F 0.2037(5) 0.25008(8) -0.6883(3)
F9 F 0.4029(4) 0.23691(10) -0.6219(4)
C7 C 0.2409(4) 0.19040(10) -0.6508(3)
C8 C 0.3236(4) 0.17181(10) -0.6955(3)
H2 H 0.398(4) 0.1841(11) -0.712(3)
C9 C 0.2983(4) 0.13677(10) -0.7212(2)
C10 C 0.3946(5) 0.11812(11) -0.7697(3)
F10 F 0.3305(4) 0.10546(16) -0.8454(2)
F11 F 0.4924(4) 0.13779(8) -0.7816(3)
F12 F 0.4513(3) 0.09040(8) -0.7229(2)
O4 O 0.2046(3) 0.11717(7) -0.70993(17)
Cu2 Cu 0.53421(5) 0.119940(13) -0.15274(3)
O5 O 0.3553(3) 0.10568(7) -0.14152(18)
C11 C 0.1879(6) 0.07075(16) -0.1075(5)
F13 F 0.1657(4) 0.04077(16) -0.0721(6)
F14 F 0.1200(4) 0.09462(16) -0.0764(4)
F15 F 0.1287(4) 0.06847(16) -0.1919(3)
C12 C 0.3337(5) 0.08107(11) -0.0916(3)
C13 C 0.4261(6) 0.06329(14) -0.0261(3)
H3 H 0.394(6) 0.0469(16) -0.002(4)
C14 C 0.5606(5) 0.07129(11) -0.0071(3)
C15 C 0.6548(7) 0.05181(15) 0.0706(4)
F16 F 0.7594(5) 0.04022(17) 0.0493(3)
F17 F 0.6965(6) 0.07441(12) 0.1368(3)
F18 F 0.6018(5) 0.02509(11) 0.1019(3)
O6 O 0.6196(3) 0.09321(8) -0.04633(17)
O7 O 0.4508(3) 0.15022(8) -0.25416(17)
C16 C 0.4281(6) 0.19386(13) -0.3643(3)
F19 F 0.3110(5) 0.19824(19) -0.3534(4)
F20 F 0.4716(5) 0.22404(11) -0.3733(4)
F21 F 0.4043(8) 0.17827(13) -0.4401(3)
C17 C 0.5149(5) 0.17095(10) -0.2930(2)
C18 C 0.6510(5) 0.17488(11) -0.2791(3)
H4 H 0.691(4) 0.1923(12) -0.323(3)
C19 C 0.7406(4) 0.15500(10) -0.2163(2)
C20 C 0.8894(5) 0.16159(12) -0.2030(3)
F22 F 0.9196(4) 0.18884(12) -0.2479(3)
F23 F 0.9465(4) 0.16650(14) -0.1204(2)
F24 F 0.9468(4) 0.13373(11) -0.2307(4)
O8 O 0.7133(3) 0.13073(7) -0.16548(18)
O9 O 0.5130(3) 0.06496(7) -0.23292(16)
N1 N 0.5628(3) 0.05461(8) -0.29790(19)
C21 C 0.6753(4) 0.02807(10) -0.2845(2)
C22 C 0.6132(6) -0.00777(13) -0.2704(4)
H5 H 0.579(4) -0.0008(11) -0.217(3)
H6 H 0.712(11) -0.017(3) -0.246(7)
H7 H 0.547(8) -0.0153(19) -0.319(5)
C23 C 0.7842(5) 0.03869(15) -0.2030(3)
H8 H 0.737(5) 0.0374(14) -0.152(4)
H9 H 0.828(6) 0.065(2) -0.209(4)
H10 H 0.853(6) 0.0222(15) -0.196(3)
C24 C 0.7149(4) 0.03054(9) -0.3760(3)
C25 C 0.8256(6) 0.05781(16) -0.3783(4)
H11 H 0.836(4) 0.0638(11) -0.434(3)
H12 H 0.901(7) 0.0513(16) -0.339(4)
H13 H 0.801(4) 0.0765(12) -0.358(3)
C26 C 0.7438(6) -0.00450(14) -0.4171(4)
H14 H 0.769(5) 0.0025(13) -0.477(3)
H15 H 0.661(5) -0.0204(12) -0.422(3)
H16 H 0.802(5) -0.0167(12) -0.380(3)
N2 N 0.5888(3) 0.04598(8) -0.43398(19)
O10 O 0.5680(3) 0.04733(8) -0.51868(17)
C27 C 0.5097(4) 0.06086(9) -0.3850(2)
C28 C 0.3872(4) 0.08016(9) -0.4188(2)
C29 C 0.3294(4) 0.09154(10) -0.5065(2)
H17 H 0.369(4) 0.0907(11) -0.558(3)
N3 N 0.2168(3) 0.10902(8) -0.5110(2)
N4 N 0.2002(3) 0.10919(9) -0.4251(2)
C30 C 0.0882(6) 0.12782(18) -0.4029(4)
H18 H 0.098(7) 0.1281(16) -0.352(5)
H19 H 0.011(8) 0.114(2) -0.413(5)
H20 H 0.067(5) 0.1459(13) -0.441(3)
C31 C 0.2991(4) 0.09252(10) -0.3694(3)
H21 H 0.299(4) 0.0866(10) -0.313(3)
O11 O 0.5668(3) 0.17739(8) -0.07483(17)
N5 N 0.5318(3) 0.19419(8) -0.0106(2)
C32 C 0.4004(4) 0.21319(12) -0.0242(3)
C33 C 0.3771(9) 0.2350(2) -0.1101(4)
H22 H 0.357(5) 0.2132(15) -0.153(4)
H23 H 0.439(8) 0.2517(19) -0.091(5)
H24 H 0.311(7) 0.2491(18) -0.109(4)
C34 C 0.2941(6) 0.18406(17) -0.0302(5)
H25 H 0.275(5) 0.1695(13) -0.093(3)
H26 H 0.209(8) 0.198(2) -0.050(5)
H27 H 0.315(5) 0.1631(15) 0.029(3)
C35 C 0.4240(5) 0.23508(11) 0.0638(3)
C36 C 0.3026(7) 0.23791(17) 0.1056(5)
H28 H 0.343(6) 0.2496(17) 0.157(5)
H29 H 0.273(4) 0.2117(12) 0.123(3)
H30 H 0.234(6) 0.2449(16) 0.059(4)
C37 C 0.4843(7) 0.27212(13) 0.0573(4)
H31 H 0.518(5) 0.2811(14) 0.119(4)
H32 H 0.404(4) 0.2869(11) 0.009(3)
H33 H 0.576(8) 0.2745(19) 0.039(5)
N6 N 0.5317(4) 0.21402(8) 0.1234(2)
O12 O 0.5662(4) 0.21877(9) 0.2075(2)
C38 C 0.5991(4) 0.19377(10) 0.0746(2)
C39 C 0.7221(4) 0.17530(10) 0.1095(2)
C40 C 0.7997(5) 0.17301(12) 0.1971(3)
H34 H 0.779(5) 0.1861(14) 0.242(4)
N7 N 0.9055(4) 0.15255(10) 0.2031(2)
N8 N 0.8989(3) 0.14148(10) 0.1181(2)
C41 C 0.9998(6) 0.1171(2) 0.0984(4)
H35 H 0.951(8) 0.104(2) 0.046(5)
H36 H 1.012(7) 0.095(2) 0.143(5)
H37 H 1.084(9) 0.135(2) 0.109(5)
C42 C 0.7908(4) 0.15442(12) 0.0608(3)
H38 H 0.782(4) 0.1519(11) 0.000(3)
N7_2 N -0.0945(4) 0.15255(10) -0.7969(2)
Cu1_2 Cu 1.06165(5) 0.131850(13) 0.34689(3)
loop_
_geom_bond_atom_site_label_1
_geom_bond_atom_site_label_2
_geom_bond_site_symmetry_1
_geom_bond_site_symmetry_2
Cu1 O1 1_555 1_555
O1 C2 1_555 1_555
C1 F1 1_555 1_555
F2 C1 1_555 1_555
F3 C1 1_555 1_555
C2 C1 1_555 1_555
C3 C2 1_555 1_555
H1 C3 1_555 1_555
C4 C3 1_555 1_555
C5 C4 1_555 1_555
F4 C5 1_555 1_555
F5 C5 1_555 1_555
F6 C5 1_555 1_555
O2 Cu1 1_555 1_555
O3 Cu1 1_555 1_555
C6 F7 1_555 1_555
F8 C6 1_555 1_555
F9 C6 1_555 1_555
C7 O3 1_555 1_555
C8 C7 1_555 1_555
H2 C8 1_555 1_555
C9 C8 1_555 1_555
C10 C9 1_555 1_555
F10 C10 1_555 1_555
F11 C10 1_555 1_555
F12 C10 1_555 1_555
O4 Cu1 1_555 1_555
Cu2 O5 1_555 1_555
O5 C12 1_555 1_555
C11 F13 1_555 1_555
F14 C11 1_555 1_555
F15 C11 1_555 1_555
C12 C11 1_555 1_555
C13 C12 1_555 1_555
H3 C13 1_555 1_555
C14 C13 1_555 1_555
C15 C14 1_555 1_555
F16 C15 1_555 1_555
F17 C15 1_555 1_555
F18 C15 1_555 1_555
O6 Cu2 1_555 1_555
O7 Cu2 1_555 1_555
C16 F19 1_555 1_555
F20 C16 1_555 1_555
F21 C16 1_555 1_555
C17 O7 1_555 1_555
C18 C17 1_555 1_555
H4 C18 1_555 1_555
C19 C18 1_555 1_555
C20 C19 1_555 1_555
F22 C20 1_555 1_555
F23 C20 1_555 1_555
F24 C20 1_555 1_555
O8 Cu2 1_555 1_555
O9 Cu2 1_555 1_555
N1 O9 1_555 1_555
C21 N1 1_555 1_555
C22 C21 1_555 1_555
H5 C22 1_555 1_555
H6 C22 1_555 1_555
H7 C22 1_555 1_555
C23 C21 1_555 1_555
H8 C23 1_555 1_555
H9 C23 1_555 1_555
H10 C23 1_555 1_555
C24 C21 1_555 1_555
C25 C24 1_555 1_555
H11 C25 1_555 1_555
H12 C25 1_555 1_555
H13 C25 1_555 1_555
C26 C24 1_555 1_555
H14 C26 1_555 1_555
H15 C26 1_555 1_555
H16 C26 1_555 1_555
N2 C24 1_555 1_555
O10 N2 1_555 1_555
C27 N1 1_555 1_555
C28 C27 1_555 1_555
C29 C28 1_555 1_555
H17 C29 1_555 1_555
N3 Cu1 1_555 1_555
N4 N3 1_555 1_555
C30 N4 1_555 1_555
H18 C30 1_555 1_555
H19 C30 1_555 1_555
H20 C30 1_555 1_555
C31 C28 1_555 1_555
H21 C31 1_555 1_555
O11 Cu2 1_555 1_555
N5 O11 1_555 1_555
C32 N5 1_555 1_555
C33 C32 1_555 1_555
H22 C33 1_555 1_555
H23 C33 1_555 1_555
H24 C33 1_555 1_555
C34 C32 1_555 1_555
H25 C34 1_555 1_555
H26 C34 1_555 1_555
H27 C34 1_555 1_555
C35 C32 1_555 1_555
C36 C35 1_555 1_555
H28 C36 1_555 1_555
H29 C36 1_555 1_555
H30 C36 1_555 1_555
C37 C35 1_555 1_555
H31 C37 1_555 1_555
H32 C37 1_555 1_555
H33 C37 1_555 1_555
N6 C35 1_555 1_555
O12 N6 1_555 1_555
C38 N5 1_555 1_555
C39 C38 1_555 1_555
C40 C39 1_555 1_555
H34 C40 1_555 1_555
N7 C40 1_555 1_555
N8 N7 1_555 1_555
C41 N8 1_555 1_555
H35 C41 1_555 1_555
H36 C41 1_555 1_555
H37 C41 1_555 1_555
C42 C39 1_555 1_555
H38 C42 1_555 1_555
N7_2 Cu1 1_555 1_555
Cu1_2 N7 1_555 1_555
C4 O2 1_555 1_555
C6 C7 1_555 1_555
C9 O4 1_555 1_555
C14 O6 1_555 1_555
C16 C17 1_555 1_555
C19 O8 1_555 1_555
N2 C27 1_555 1_555
C29 N3 1_555 1_555
N4 C31 1_555 1_555
N6 C38 1_555 1_555
N8 C42 1_555 1_555

#END
