
#######################################################################
#
#                 Cambridge Crystallographic Data Centre
#                                CCDC 
#
#######################################################################
#
# If this CIF has been generated from an entry in the Cambridge 
# Structural Database, then it will include bibliographic, chemical, 
# crystal, experimental, refinement or atomic coordinate data resulting 
# from the CCDC's data processing and validation procedures.
#
#######################################################################

data_BEMSAO01
_symmetry_cell_setting           triclinic
_symmetry_space_group_name_H-M   'P -1'
_symmetry_Int_Tables_number      2
_space_group_name_Hall           '-P 1'
loop_
_symmetry_equiv_pos_site_id
_symmetry_equiv_pos_as_xyz
1 x,y,z
2 -x,-y,-z
_cell_length_a                   10.2020(10)
_cell_length_b                   10.885(2)
_cell_length_c                   13.610(2)
_cell_angle_alpha                103.000(10)
_cell_angle_beta                 96.030(10)
_cell_angle_gamma                102.630(10)
_cell_volume                     1417.97
loop_
_atom_site_label
_atom_site_type_symbol
_atom_site_fract_x
_atom_site_fract_y
_atom_site_fract_z
Cu1 Cu 0.5000 0.5000 0.5000
O1 O 0.3262(2) 0.54738(19) 0.50078(16)
C1 C 0.1668(4) 0.6689(3) 0.4873(3)
F1 F 0.1537(3) 0.7876(2) 0.4906(3)
F2 F 0.1099(2) 0.5939(3) 0.39526(19)
F3 F 0.0938(2) 0.6248(3) 0.5532(2)
C2 C 0.3150(3) 0.6625(3) 0.5134(2)
C3 C 0.4137(4) 0.7773(3) 0.5483(3)
H1 H 0.392(4) 0.851(4) 0.556(3)
C4 C 0.5495(3) 0.7785(3) 0.5750(2)
C5 C 0.6509(4) 0.9102(3) 0.6199(3)
F4 F 0.6831(4) 0.9313(3) 0.7184(2)
F5 F 0.7639(4) 0.9161(3) 0.5873(4)
F6 F 0.6083(3) 1.0085(2) 0.6055(3)
O2 O 0.6015(2) 0.6836(2) 0.56748(16)
Cu2 Cu 0.0000 0.0000 0.0000
O3 O 0.15037(18) -0.01223(18) -0.07572(15)
C6 C 0.3455(3) -0.0628(3) -0.1299(2)
F7 F 0.2873(2) -0.0929(3) -0.22650(16)
F8 F 0.4302(2) -0.1375(2) -0.1218(2)
F9 F 0.42041(19) 0.05771(18) -0.10925(17)
C7 C 0.2382(2) -0.0740(2) -0.0592(2)
C8 C 0.2486(3) -0.1447(3) 0.0123(2)
H2 H 0.308(3) -0.187(3) 0.015(2)
C9 C 0.1529(3) -0.1593(3) 0.0776(2)
C10 C 0.1690(3) -0.2461(3) 0.1499(3)
F10 F 0.2980(2) -0.2417(2) 0.18051(19)
F11 F 0.1135(2) -0.2151(2) 0.23269(17)
F12 F 0.1067(2) -0.36940(19) 0.10327(18)
O4 O 0.05048(18) -0.11448(18) 0.08289(15)
O5 O 0.4939(2) 0.57159(19) 0.35377(16)
N1 N 0.5485(2) 0.5384(2) 0.27340(19)
C11 C 0.6750(3) 0.6248(3) 0.2547(2)
C12 C 0.7815(3) 0.6704(4) 0.3511(3)
H3 H 0.750(4) 0.726(3) 0.404(3)
H4 H 0.808(4) 0.603(4) 0.375(3)
H5 H 0.860(4) 0.720(3) 0.333(3)
C13 C 0.6306(4) 0.7406(3) 0.2278(4)
H6 H 0.597(4) 0.779(3) 0.283(3)
H7 H 0.714(4) 0.800(4) 0.214(3)
H8 H 0.565(4) 0.719(3) 0.167(3)
C14 C 0.7104(3) 0.5317(3) 0.1628(2)
C15 C 0.7594(4) 0.5948(4) 0.0805(3)
H9 H 0.782(4) 0.529(4) 0.034(3)
H10 H 0.692(4) 0.635(3) 0.051(3)
H11 H 0.830(4) 0.660(4) 0.108(3)
C16 C 0.8052(3) 0.4517(3) 0.1944(3)
H12 H 0.813(4) 0.384(4) 0.138(3)
H13 H 0.889(4) 0.506(4) 0.222(3)
H14 H 0.773(4) 0.406(4) 0.249(3)
N2 N 0.5735(2) 0.4374(2) 0.12123(18)
O6 O 0.54853(19) 0.35748(19) 0.03283(15)
C17 C 0.4894(3) 0.4408(3) 0.1907(2)
C18 C 0.3559(3) 0.3554(2) 0.1799(2)
C19 C 0.2906(3) 0.2425(3) 0.1025(2)
H15 H 0.319(3) 0.205(3) 0.044(2)
N3 N 0.1692(2) 0.1883(2) 0.12108(18)
N4 N 0.1565(2) 0.2659(2) 0.21082(18)
C20 C 0.0384(3) 0.2326(4) 0.2599(3)
H16 H 0.059(4) 0.277(4) 0.326(3)
H17 H -0.030(5) 0.252(4) 0.225(3)
H18 H 0.015(4) 0.143(4) 0.252(3)
C21 C 0.2648(3) 0.3656(3) 0.2475(2)
H19 H 0.267(3) 0.422(3) 0.306(3)
O1A O 0.6738(2) 0.45262(19) 0.49922(16)
C1A C 0.8332(4) 0.3311(3) 0.5127(3)
F1A F 0.8463(3) 0.2124(2) 0.5094(3)
F2A F 0.8901(2) 0.4061(3) 0.60474(19)
F3A F 0.9062(2) 0.3752(3) 0.4468(2)
C2A C 0.6850(3) 0.3375(3) 0.4866(2)
C3A C 0.5863(4) 0.2227(3) 0.4517(3)
H1A H 0.608(4) 0.149(4) 0.444(3)
C4A C 0.4505(3) 0.2215(3) 0.4250(2)
C5A C 0.3491(4) 0.0898(3) 0.3801(3)
F4A F 0.3169(4) 0.0687(3) 0.2816(2)
F5A F 0.2361(4) 0.0839(3) 0.4127(4)
F6A F 0.3917(3) -0.0085(2) 0.3945(3)
O2A O 0.3985(2) 0.3164(2) 0.43252(16)
O5A O 0.5061(2) 0.42841(19) 0.64623(16)
N1A N 0.4515(2) 0.4616(2) 0.72660(19)
C11A C 0.3250(3) 0.3752(3) 0.7453(2)
C12A C 0.2185(3) 0.3296(4) 0.6489(3)
H3A H 0.250(4) 0.274(3) 0.596(3)
H4A H 0.192(4) 0.397(4) 0.625(3)
H5A H 0.140(4) 0.280(3) 0.667(3)
C13A C 0.3694(4) 0.2594(3) 0.7722(4)
H6A H 0.403(4) 0.221(3) 0.717(3)
H7A H 0.286(4) 0.200(4) 0.786(3)
H8A H 0.435(4) 0.281(3) 0.833(3)
C14A C 0.2896(3) 0.4683(3) 0.8372(2)
C15A C 0.2406(4) 0.4052(4) 0.9195(3)
H9A H 0.218(4) 0.471(4) 0.966(3)
H10A H 0.308(4) 0.365(3) 0.949(3)
H11A H 0.170(4) 0.340(4) 0.892(3)
C16A C 0.1948(3) 0.5483(3) 0.8056(3)
H12A H 0.187(4) 0.616(4) 0.862(3)
H13A H 0.111(4) 0.494(4) 0.778(3)
H14A H 0.227(4) 0.594(4) 0.751(3)
N2A N 0.4265(2) 0.5626(2) 0.87877(18)
O6A O 0.45147(19) 0.64252(19) 0.96717(15)
C17A C 0.5106(3) 0.5592(3) 0.8093(2)
C18A C 0.6441(3) 0.6446(2) 0.8201(2)
C19A C 0.7094(3) 0.7575(3) 0.8975(2)
H15A H 0.681(3) 0.795(3) 0.956(2)
N3A N 0.8308(2) 0.8117(2) 0.87892(18)
N4A N 0.8435(2) 0.7341(2) 0.78918(18)
C20A C 0.9616(3) 0.7674(4) 0.7401(3)
H16A H 0.941(4) 0.723(4) 0.674(3)
H17A H 1.030(5) 0.748(4) 0.775(3)
H18A H 0.985(4) 0.857(4) 0.748(3)
C21A C 0.7352(3) 0.6344(3) 0.7525(2)
H19A H 0.733(3) 0.578(3) 0.694(3)
O3A O -0.15037(18) 0.01223(18) 0.07572(15)
C6A C -0.3455(3) 0.0628(3) 0.1299(2)
F7A F -0.2873(2) 0.0929(3) 0.22650(16)
F8A F -0.4302(2) 0.1375(2) 0.1218(2)
F9A F -0.42041(19) -0.05771(18) 0.10925(17)
C7A C -0.2382(2) 0.0740(2) 0.0592(2)
C8A C -0.2486(3) 0.1447(3) -0.0123(2)
H2A H -0.308(3) 0.187(3) -0.015(2)
C9A C -0.1529(3) 0.1593(3) -0.0776(2)
C10A C -0.1690(3) 0.2461(3) -0.1499(3)
F10A F -0.2980(2) 0.2417(2) -0.18051(19)
F11A F -0.1135(2) 0.2151(2) -0.23269(17)
F12A F -0.1067(2) 0.36940(19) -0.10327(18)
O4A O -0.05048(18) 0.11448(18) -0.08289(15)
N3A_2 N -0.1692(2) -0.1883(2) -0.12108(18)
Cu2_2 Cu 1.0000 1.0000 1.0000
loop_
_geom_bond_atom_site_label_1
_geom_bond_atom_site_label_2
_geom_bond_site_symmetry_1
_geom_bond_site_symmetry_2
Cu1 O1 1_555 1_555
O1 C2 1_555 1_555
C1 F1 1_555 1_555
F2 C1 1_555 1_555
F3 C1 1_555 1_555
C2 C1 1_555 1_555
C3 C2 1_555 1_555
H1 C3 1_555 1_555
C4 C3 1_555 1_555
C5 C4 1_555 1_555
F4 C5 1_555 1_555
F5 C5 1_555 1_555
F6 C5 1_555 1_555
O2 Cu1 1_555 1_555
Cu2 O3 1_555 1_555
O3 C7 1_555 1_555
C6 F7 1_555 1_555
F8 C6 1_555 1_555
F9 C6 1_555 1_555
C7 C6 1_555 1_555
C8 C7 1_555 1_555
H2 C8 1_555 1_555
C9 C8 1_555 1_555
C10 C9 1_555 1_555
F10 C10 1_555 1_555
F11 C10 1_555 1_555
F12 C10 1_555 1_555
O4 Cu2 1_555 1_555
O5 Cu1 1_555 1_555
N1 O5 1_555 1_555
C11 N1 1_555 1_555
C12 C11 1_555 1_555
H3 C12 1_555 1_555
H4 C12 1_555 1_555
H5 C12 1_555 1_555
C13 C11 1_555 1_555
H6 C13 1_555 1_555
H7 C13 1_555 1_555
H8 C13 1_555 1_555
C14 C11 1_555 1_555
C15 C14 1_555 1_555
H9 C15 1_555 1_555
H10 C15 1_555 1_555
H11 C15 1_555 1_555
C16 C14 1_555 1_555
H12 C16 1_555 1_555
H13 C16 1_555 1_555
H14 C16 1_555 1_555
N2 C14 1_555 1_555
O6 N2 1_555 1_555
C17 N1 1_555 1_555
C18 C17 1_555 1_555
C19 C18 1_555 1_555
H15 C19 1_555 1_555
N3 Cu2 1_555 1_555
N4 N3 1_555 1_555
C20 N4 1_555 1_555
H16 C20 1_555 1_555
H17 C20 1_555 1_555
H18 C20 1_555 1_555
C21 C18 1_555 1_555
H19 C21 1_555 1_555
O1A Cu1 1_555 1_555
C1A F1A 1_555 1_555
F2A C1A 1_555 1_555
F3A C1A 1_555 1_555
C2A O1A 1_555 1_555
C3A C2A 1_555 1_555
H1A C3A 1_555 1_555
C4A C3A 1_555 1_555
C5A C4A 1_555 1_555
F4A C5A 1_555 1_555
F5A C5A 1_555 1_555
F6A C5A 1_555 1_555
O2A Cu1 1_555 1_555
O5A Cu1 1_555 1_555
N1A O5A 1_555 1_555
C11A N1A 1_555 1_555
C12A C11A 1_555 1_555
H3A C12A 1_555 1_555
H4A C12A 1_555 1_555
H5A C12A 1_555 1_555
C13A C11A 1_555 1_555
H6A C13A 1_555 1_555
H7A C13A 1_555 1_555
H8A C13A 1_555 1_555
C14A C11A 1_555 1_555
C15A C14A 1_555 1_555
H9A C15A 1_555 1_555
H10A C15A 1_555 1_555
H11A C15A 1_555 1_555
C16A C14A 1_555 1_555
H12A C16A 1_555 1_555
H13A C16A 1_555 1_555
H14A C16A 1_555 1_555
N2A C14A 1_555 1_555
O6A N2A 1_555 1_555
C17A N1A 1_555 1_555
C18A C17A 1_555 1_555
C19A C18A 1_555 1_555
H15A C19A 1_555 1_555
N3A C19A 1_555 1_555
N4A N3A 1_555 1_555
C20A N4A 1_555 1_555
H16A C20A 1_555 1_555
H17A C20A 1_555 1_555
H18A C20A 1_555 1_555
C21A C18A 1_555 1_555
H19A C21A 1_555 1_555
O3A Cu2 1_555 1_555
C6A F7A 1_555 1_555
F8A C6A 1_555 1_555
F9A C6A 1_555 1_555
C7A O3A 1_555 1_555
C8A C7A 1_555 1_555
H2A C8A 1_555 1_555
C9A C8A 1_555 1_555
C10A C9A 1_555 1_555
F10A C10A 1_555 1_555
F11A C10A 1_555 1_555
F12A C10A 1_555 1_555
O4A Cu2 1_555 1_555
N3A_2 Cu2 1_555 1_555
Cu2_2 N3A 1_555 1_555
C4 O2 1_555 1_555
C9 O4 1_555 1_555
N2 C17 1_555 1_555
C19 N3 1_555 1_555
N4 C21 1_555 1_555
C1A C2A 1_555 1_555
C4A O2A 1_555 1_555
N2A C17A 1_555 1_555
N4A C21A 1_555 1_555
C6A C7A 1_555 1_555
C9A O4A 1_555 1_555

#END
