
#######################################################################
#
#                 Cambridge Crystallographic Data Centre
#                                CCDC 
#
#######################################################################
#
# If this CIF has been generated from an entry in the Cambridge 
# Structural Database, then it will include bibliographic, chemical, 
# crystal, experimental, refinement or atomic coordinate data resulting 
# from the CCDC's data processing and validation procedures.
#
#######################################################################

data_BEMVUL
_symmetry_cell_setting           monoclinic
_symmetry_space_group_name_H-M   'P 21/c'
_symmetry_Int_Tables_number      14
_space_group_name_Hall           '-P 2ybc'
loop_
_symmetry_equiv_pos_site_id
_symmetry_equiv_pos_as_xyz
1 x,y,z
2 x,1/2-y,1/2+z
3 -x,-y,-z
4 -x,1/2+y,1/2-z
_cell_length_a                   9.7356(8)
_cell_length_b                   11.4568(8)
_cell_length_c                   9.3523(6)
_cell_angle_alpha                90
_cell_angle_beta                 99.044(3)
_cell_angle_gamma                90
_cell_volume                     1030.18
loop_
_atom_site_label
_atom_site_type_symbol
_atom_site_fract_x
_atom_site_fract_y
_atom_site_fract_z
Mn1 Mn 0.0000 0.0000 0.0000
O1 O -0.0467(2) 0.11236(13) 0.1662(2)
C1 C 0.0197(2) 0.1429(2) 0.2862(2)
O2 O -0.01992(15) 0.35086(12) 0.3496(2)
C2 C 0.0325(2) 0.2511(2) 0.3690(2)
O3 O 0.2046(2) 0.22531(13) 0.5983(2)
C3 C 0.1343(2) 0.1935(2) 0.4822(2)
C4 C 0.1170(2) 0.0863(2) 0.3970(2)
N1 N 0.1626(2) -0.0232(2) 0.4045(2)
H1 H 0.1202(27) -0.0725(19) 0.3366(22)
C5 C 0.26832(14) -0.19479(10) 0.5217(2)
H2 H 0.19862(14) -0.24010(10) 0.4644(2)
C6 C 0.3709(2) -0.24932(8) 0.6192(2)
H3 H 0.3713(2) -0.33189(9) 0.6285(3)
C7 C 0.47287(15) -0.18302(12) 0.7030(2)
H4 H 0.5430(2) -0.2203(2) 0.7696(2)
C8 C 0.47227(14) -0.06221(11) 0.6893(2)
H5 H 0.5420(2) -0.01690(15) 0.7466(2)
C9 C 0.36970(15) -0.00768(8) 0.5919(2)
H6 H 0.3693(2) 0.07489(8) 0.5825(2)
C10 C 0.26772(13) -0.07397(10) 0.50807(14)
O4 O 0.2211(2) 0.04605(14) 0.0581(2)
H7 H 0.2204(31) 0.1206(8) 0.0884(29)
C11 C 0.3040(3) 0.0427(2) -0.0561(3)
H8 H 0.3999(3) 0.0647(2) -0.0175(3)
H9 H 0.2659(3) 0.0975(2) -0.1326(3)
H10 H 0.3027(3) -0.0365(2) -0.0961(3)
O1B O 0.0467(2) -0.11236(13) -0.1662(2)
C1B C -0.0197(2) -0.1429(2) -0.2862(2)
O2B O 0.01992(15) -0.35086(12) -0.3496(2)
C2B C -0.0325(2) -0.2511(2) -0.3690(2)
O3B O -0.2046(2) -0.22531(13) -0.5983(2)
C3B C -0.1343(2) -0.1935(2) -0.4822(2)
C4B C -0.1170(2) -0.0863(2) -0.3970(2)
N1B N -0.1626(2) 0.0232(2) -0.4045(2)
H1B H -0.1202(27) 0.0725(19) -0.3366(22)
C5B C -0.26832(14) 0.19479(10) -0.5217(2)
H2B H -0.19862(14) 0.24010(10) -0.4644(2)
C6B C -0.3709(2) 0.24932(8) -0.6192(2)
H3B H -0.3713(2) 0.33189(9) -0.6285(3)
C7B C -0.47287(15) 0.18302(12) -0.7030(2)
H4B H -0.5430(2) 0.2203(2) -0.7696(2)
C8B C -0.47227(14) 0.06221(11) -0.6893(2)
H5B H -0.5420(2) 0.01690(15) -0.7466(2)
C9B C -0.36970(15) 0.00768(8) -0.5919(2)
H6B H -0.3693(2) -0.07489(8) -0.5825(2)
C10B C -0.26772(13) 0.07397(10) -0.50807(14)
O4B O -0.2211(2) -0.04605(14) -0.0581(2)
H7B H -0.2204(31) -0.1206(8) -0.0884(29)
C11B C -0.3040(3) -0.0427(2) 0.0561(3)
H8B H -0.3999(3) -0.0647(2) 0.0175(3)
H9B H -0.2659(3) -0.0975(2) 0.1326(3)
H10B H -0.3027(3) 0.0365(2) 0.0961(3)
O2A O -0.01992(15) 0.14914(12) -0.1504(2)
O2C O 0.01992(15) -0.14914(12) 0.1504(2)
Mn1A Mn 0.0000 0.5000 0.5000
Mn1A_2 Mn 0.0000 -0.5000 -0.5000
loop_
_geom_bond_atom_site_label_1
_geom_bond_atom_site_label_2
_geom_bond_site_symmetry_1
_geom_bond_site_symmetry_2
Mn1 O1 1_555 1_555
O1 C1 1_555 1_555
C1 C2 1_555 1_555
O2 C2 1_555 1_555
C2 C3 1_555 1_555
O3 C3 1_555 1_555
C3 C4 1_555 1_555
C4 C1 1_555 1_555
N1 C4 1_555 1_555
H1 N1 1_555 1_555
C5 H2 1_555 1_555
C6 C5 1_555 1_555
H3 C6 1_555 1_555
C7 C6 1_555 1_555
H4 C7 1_555 1_555
C8 C7 1_555 1_555
H5 C8 1_555 1_555
C9 C8 1_555 1_555
H6 C9 1_555 1_555
C10 N1 1_555 1_555
O4 Mn1 1_555 1_555
H7 O4 1_555 1_555
C11 O4 1_555 1_555
H8 C11 1_555 1_555
H9 C11 1_555 1_555
H10 C11 1_555 1_555
O1B Mn1 1_555 1_555
C1B O1B 1_555 1_555
O2B C2B 1_555 1_555
C2B C1B 1_555 1_555
O3B C3B 1_555 1_555
C3B C2B 1_555 1_555
C4B C1B 1_555 1_555
N1B C4B 1_555 1_555
H1B N1B 1_555 1_555
C5B H2B 1_555 1_555
C6B C5B 1_555 1_555
H3B C6B 1_555 1_555
C7B C6B 1_555 1_555
H4B C7B 1_555 1_555
C8B C7B 1_555 1_555
H5B C8B 1_555 1_555
C9B C8B 1_555 1_555
H6B C9B 1_555 1_555
C10B N1B 1_555 1_555
O4B Mn1 1_555 1_555
H7B O4B 1_555 1_555
C11B O4B 1_555 1_555
H8B C11B 1_555 1_555
H9B C11B 1_555 1_555
H10B C11B 1_555 1_555
O2A Mn1 1_555 1_555
O2C Mn1 1_555 1_555
Mn1A O2 1_555 1_555
Mn1A_2 O2B 1_555 1_555
C5 C10 1_555 1_555
C9 C10 1_555 1_555
C3B C4B 1_555 1_555
C5B C10B 1_555 1_555
C9B C10B 1_555 1_555

#END
