
#######################################################################
#
#                 Cambridge Crystallographic Data Centre
#                                CCDC 
#
#######################################################################
#
# If this CIF has been generated from an entry in the Cambridge 
# Structural Database, then it will include bibliographic, chemical, 
# crystal, experimental, refinement or atomic coordinate data resulting 
# from the CCDC's data processing and validation procedures.
#
#######################################################################

data_BEMWIA
_symmetry_cell_setting           monoclinic
_symmetry_space_group_name_H-M   'P 21/c'
_symmetry_Int_Tables_number      14
_space_group_name_Hall           '-P 2ybc'
loop_
_symmetry_equiv_pos_site_id
_symmetry_equiv_pos_as_xyz
1 x,y,z
2 x,1/2-y,1/2+z
3 -x,-y,-z
4 -x,1/2+y,1/2-z
_cell_length_a                   9.6094(3)
_cell_length_b                   11.5090(3)
_cell_length_c                   9.2534(2)
_cell_angle_alpha                90
_cell_angle_beta                 99.0713(14)
_cell_angle_gamma                90
_cell_volume                     1010.58
loop_
_atom_site_label
_atom_site_type_symbol
_atom_site_fract_x
_atom_site_fract_y
_atom_site_fract_z
Cu1 Cu 0.0000 0.0000 0.0000
O1 O -0.0441(2) 0.10729(13) 0.14932(15)
C1 C 0.0230(2) 0.1372(2) 0.2723(2)
O2 O -0.0224(2) 0.34414(13) 0.3327(2)
C2 C 0.0324(2) 0.2469(2) 0.3531(2)
O3 O 0.2058(2) 0.22672(14) 0.5858(2)
C3 C 0.1353(2) 0.1912(2) 0.4699(2)
C4 C 0.1202(2) 0.0824(2) 0.3872(2)
N1 N 0.1661(2) -0.0259(2) 0.4014(2)
H1 H 0.1256(26) -0.0778(18) 0.3351(22)
C5 C 0.27039(15) -0.19382(11) 0.5285(2)
H2 H 0.19960(15) -0.23953(11) 0.4718(2)
C6 C 0.3737(2) -0.24689(9) 0.6291(2)
H3 H 0.3735(2) -0.32887(9) 0.6410(3)
C7 C 0.4772(2) -0.18002(12) 0.7121(2)
H4 H 0.5478(2) -0.2163(2) 0.7808(2)
C8 C 0.47752(14) -0.06007(12) 0.6946(2)
H5 H 0.5483(2) -0.0144(2) 0.7514(2)
C9 C 0.3743(2) -0.00700(9) 0.5941(2)
H6 H 0.3745(2) 0.07498(9) 0.5821(2)
C10 C 0.27068(13) -0.07387(11) 0.51106(14)
O4 O 0.2033(2) 0.04541(14) 0.0503(2)
H7 H 0.2090(33) 0.1217(6) 0.0717(31)
C11 C 0.2932(3) 0.0358(2) -0.0613(3)
H8 H 0.3889(3) 0.0609(2) -0.0208(3)
H9 H 0.2561(3) 0.0852(2) -0.1448(3)
H10 H 0.2953(3) -0.0452(2) -0.0937(3)
O1B O 0.0441(2) -0.10729(13) -0.14932(15)
C1B C -0.0230(2) -0.1372(2) -0.2723(2)
O2B O 0.0224(2) -0.34414(13) -0.3327(2)
C2B C -0.0324(2) -0.2469(2) -0.3531(2)
O3B O -0.2058(2) -0.22672(14) -0.5858(2)
C3B C -0.1353(2) -0.1912(2) -0.4699(2)
C4B C -0.1202(2) -0.0824(2) -0.3872(2)
N1B N -0.1661(2) 0.0259(2) -0.4014(2)
H1B H -0.1256(26) 0.0778(18) -0.3351(22)
C5B C -0.27039(15) 0.19382(11) -0.5285(2)
H2B H -0.19960(15) 0.23953(11) -0.4718(2)
C6B C -0.3737(2) 0.24689(9) -0.6291(2)
H3B H -0.3735(2) 0.32887(9) -0.6410(3)
C7B C -0.4772(2) 0.18002(12) -0.7121(2)
H4B H -0.5478(2) 0.2163(2) -0.7808(2)
C8B C -0.47752(14) 0.06007(12) -0.6946(2)
H5B H -0.5483(2) 0.0144(2) -0.7514(2)
C9B C -0.3743(2) 0.00700(9) -0.5941(2)
H6B H -0.3745(2) -0.07498(9) -0.5821(2)
C10B C -0.27068(13) 0.07387(11) -0.51106(14)
O4B O -0.2033(2) -0.04541(14) -0.0503(2)
H7B H -0.2090(33) -0.1217(6) -0.0717(31)
C11B C -0.2932(3) -0.0358(2) 0.0613(3)
H8B H -0.3889(3) -0.0609(2) 0.0208(3)
H9B H -0.2561(3) -0.0852(2) 0.1448(3)
H10B H -0.2953(3) 0.0452(2) 0.0937(3)
O2A O -0.0224(2) 0.15586(13) -0.1673(2)
O2C O 0.0224(2) -0.15586(13) 0.1673(2)
Cu1A Cu 0.0000 0.5000 0.5000
Cu1A_2 Cu 0.0000 -0.5000 -0.5000
loop_
_geom_bond_atom_site_label_1
_geom_bond_atom_site_label_2
_geom_bond_site_symmetry_1
_geom_bond_site_symmetry_2
Cu1 O1 1_555 1_555
O1 C1 1_555 1_555
C1 C2 1_555 1_555
O2 C2 1_555 1_555
C2 C3 1_555 1_555
O3 C3 1_555 1_555
C3 C4 1_555 1_555
C4 C1 1_555 1_555
N1 C4 1_555 1_555
H1 N1 1_555 1_555
C5 H2 1_555 1_555
C6 C5 1_555 1_555
H3 C6 1_555 1_555
C7 C6 1_555 1_555
H4 C7 1_555 1_555
C8 C7 1_555 1_555
H5 C8 1_555 1_555
C9 C8 1_555 1_555
H6 C9 1_555 1_555
C10 N1 1_555 1_555
O4 Cu1 1_555 1_555
H7 O4 1_555 1_555
C11 O4 1_555 1_555
H8 C11 1_555 1_555
H9 C11 1_555 1_555
H10 C11 1_555 1_555
O1B Cu1 1_555 1_555
C1B O1B 1_555 1_555
O2B C2B 1_555 1_555
C2B C1B 1_555 1_555
O3B C3B 1_555 1_555
C3B C2B 1_555 1_555
C4B C1B 1_555 1_555
N1B C4B 1_555 1_555
H1B N1B 1_555 1_555
C5B H2B 1_555 1_555
C6B C5B 1_555 1_555
H3B C6B 1_555 1_555
C7B C6B 1_555 1_555
H4B C7B 1_555 1_555
C8B C7B 1_555 1_555
H5B C8B 1_555 1_555
C9B C8B 1_555 1_555
H6B C9B 1_555 1_555
C10B N1B 1_555 1_555
O4B Cu1 1_555 1_555
H7B O4B 1_555 1_555
C11B O4B 1_555 1_555
H8B C11B 1_555 1_555
H9B C11B 1_555 1_555
H10B C11B 1_555 1_555
O2A Cu1 1_555 1_555
O2C Cu1 1_555 1_555
Cu1A O2 1_555 1_555
Cu1A_2 O2B 1_555 1_555
C5 C10 1_555 1_555
C9 C10 1_555 1_555
C3B C4B 1_555 1_555
C5B C10B 1_555 1_555
C9B C10B 1_555 1_555

#END
