
#######################################################################
#
#                 Cambridge Crystallographic Data Centre
#                                CCDC 
#
#######################################################################
#
# If this CIF has been generated from an entry in the Cambridge 
# Structural Database, then it will include bibliographic, chemical, 
# crystal, experimental, refinement or atomic coordinate data resulting 
# from the CCDC's data processing and validation procedures.
#
#######################################################################

data_BEMWOG
_symmetry_cell_setting           monoclinic
_symmetry_space_group_name_H-M   'P 21/c'
_symmetry_Int_Tables_number      14
_space_group_name_Hall           '-P 2ybc'
loop_
_symmetry_equiv_pos_site_id
_symmetry_equiv_pos_as_xyz
1 x,y,z
2 x,1/2-y,1/2+z
3 -x,-y,-z
4 -x,1/2+y,1/2-z
_cell_length_a                   9.8369(6)
_cell_length_b                   11.2936(6)
_cell_length_c                   9.1740(4)
_cell_angle_alpha                90
_cell_angle_beta                 98.862(2)
_cell_angle_gamma                90
_cell_volume                     1007.01
loop_
_atom_site_label
_atom_site_type_symbol
_atom_site_fract_x
_atom_site_fract_y
_atom_site_fract_z
Zn1 Zn 0.0000 0.0000 0.0000
O1 O -0.0427(2) 0.11549(14) 0.16008(15)
C1 C 0.0228(2) 0.1454(2) 0.2831(2)
O2 O -0.0192(2) 0.35531(14) 0.3484(2)
C2 C 0.0341(2) 0.2551(2) 0.3677(2)
O3 O 0.2072(2) 0.22962(15) 0.5995(2)
C3 C 0.1362(2) 0.1967(2) 0.4821(2)
C4 C 0.1197(2) 0.0879(2) 0.3957(2)
N1 N 0.1651(2) -0.0223(2) 0.4049(2)
H1 H 0.1258(26) -0.0711(19) 0.3329(21)
C5 C 0.2687(2) -0.19472(12) 0.5287(2)
H2 H 0.1985(2) -0.24097(12) 0.4731(2)
C6 C 0.3708(2) -0.24927(10) 0.6278(2)
H3 H 0.3702(3) -0.33281(10) 0.6399(3)
C7 C 0.4736(2) -0.18161(13) 0.7092(2)
H4 H 0.5433(2) -0.2189(2) 0.7769(2)
C8 C 0.47439(15) -0.05938(13) 0.6915(2)
H5 H 0.5447(2) -0.0131(2) 0.7471(2)
C9 C 0.3724(2) -0.00483(10) 0.5924(2)
H6 H 0.3729(2) 0.07871(10) 0.5803(3)
C10 C 0.26954(14) -0.07249(12) 0.5110(2)
O4 O 0.2107(2) 0.0383(2) 0.0565(2)
H7 H 0.2148(35) 0.1156(7) 0.0811(32)
C11 C 0.2950(3) 0.0335(3) -0.0585(3)
H8 H 0.3902(3) 0.0531(3) -0.0174(3)
H9 H 0.2606(3) 0.0906(3) -0.1360(3)
H10 H 0.2915(3) -0.0464(3) -0.1005(3)
O1B O 0.0427(2) -0.11549(14) -0.16008(15)
C1B C -0.0228(2) -0.1454(2) -0.2831(2)
O2B O 0.0192(2) -0.35531(14) -0.3484(2)
C2B C -0.0341(2) -0.2551(2) -0.3677(2)
O3B O -0.2072(2) -0.22962(15) -0.5995(2)
C3B C -0.1362(2) -0.1967(2) -0.4821(2)
C4B C -0.1197(2) -0.0879(2) -0.3957(2)
N1B N -0.1651(2) 0.0223(2) -0.4049(2)
H1B H -0.1258(26) 0.0711(19) -0.3329(21)
C5B C -0.2687(2) 0.19472(12) -0.5287(2)
H2B H -0.1985(2) 0.24097(12) -0.4731(2)
C6B C -0.3708(2) 0.24927(10) -0.6278(2)
H3B H -0.3702(3) 0.33281(10) -0.6399(3)
C7B C -0.4736(2) 0.18161(13) -0.7092(2)
H4B H -0.5433(2) 0.2189(2) -0.7769(2)
C8B C -0.47439(15) 0.05938(13) -0.6915(2)
H5B H -0.5447(2) 0.0131(2) -0.7471(2)
C9B C -0.3724(2) 0.00483(10) -0.5924(2)
H6B H -0.3729(2) -0.07871(10) -0.5803(3)
C10B C -0.26954(14) 0.07249(12) -0.5110(2)
O4B O -0.2107(2) -0.0383(2) -0.0565(2)
H7B H -0.2148(35) -0.1156(7) -0.0811(32)
C11B C -0.2950(3) -0.0335(3) 0.0585(3)
H8B H -0.3902(3) -0.0531(3) 0.0174(3)
H9B H -0.2606(3) -0.0906(3) 0.1360(3)
H10B H -0.2915(3) 0.0464(3) 0.1005(3)
O2A O -0.0192(2) 0.14469(14) -0.1516(2)
O2C O 0.0192(2) -0.14469(14) 0.1516(2)
Zn1A Zn 0.0000 0.5000 0.5000
Zn1A_2 Zn 0.0000 -0.5000 -0.5000
loop_
_geom_bond_atom_site_label_1
_geom_bond_atom_site_label_2
_geom_bond_site_symmetry_1
_geom_bond_site_symmetry_2
Zn1 O1 1_555 1_555
O1 C1 1_555 1_555
C1 C2 1_555 1_555
O2 C2 1_555 1_555
C2 C3 1_555 1_555
O3 C3 1_555 1_555
C3 C4 1_555 1_555
C4 C1 1_555 1_555
N1 C4 1_555 1_555
H1 N1 1_555 1_555
C5 H2 1_555 1_555
C6 C5 1_555 1_555
H3 C6 1_555 1_555
C7 C6 1_555 1_555
H4 C7 1_555 1_555
C8 C7 1_555 1_555
H5 C8 1_555 1_555
C9 C8 1_555 1_555
H6 C9 1_555 1_555
C10 N1 1_555 1_555
O4 Zn1 1_555 1_555
H7 O4 1_555 1_555
C11 O4 1_555 1_555
H8 C11 1_555 1_555
H9 C11 1_555 1_555
H10 C11 1_555 1_555
O1B Zn1 1_555 1_555
C1B O1B 1_555 1_555
O2B C2B 1_555 1_555
C2B C1B 1_555 1_555
O3B C3B 1_555 1_555
C3B C2B 1_555 1_555
C4B C1B 1_555 1_555
N1B C4B 1_555 1_555
H1B N1B 1_555 1_555
C5B H2B 1_555 1_555
C6B C5B 1_555 1_555
H3B C6B 1_555 1_555
C7B C6B 1_555 1_555
H4B C7B 1_555 1_555
C8B C7B 1_555 1_555
H5B C8B 1_555 1_555
C9B C8B 1_555 1_555
H6B C9B 1_555 1_555
C10B N1B 1_555 1_555
O4B Zn1 1_555 1_555
H7B O4B 1_555 1_555
C11B O4B 1_555 1_555
H8B C11B 1_555 1_555
H9B C11B 1_555 1_555
H10B C11B 1_555 1_555
O2A Zn1 1_555 1_555
O2C Zn1 1_555 1_555
Zn1A O2 1_555 1_555
Zn1A_2 O2B 1_555 1_555
C5 C10 1_555 1_555
C9 C10 1_555 1_555
C3B C4B 1_555 1_555
C5B C10B 1_555 1_555
C9B C10B 1_555 1_555

#END
