
#######################################################################
#
#                 Cambridge Crystallographic Data Centre
#                                CCDC 
#
#######################################################################
#
# If this CIF has been generated from an entry in the Cambridge 
# Structural Database, then it will include bibliographic, chemical, 
# crystal, experimental, refinement or atomic coordinate data resulting 
# from the CCDC's data processing and validation procedures.
#
#######################################################################

data_BEMXOI
_symmetry_cell_setting           monoclinic
_symmetry_space_group_name_H-M   'P 21/c'
_symmetry_Int_Tables_number      14
_space_group_name_Hall           '-P 2ybc'
loop_
_symmetry_equiv_pos_site_id
_symmetry_equiv_pos_as_xyz
1 x,y,z
2 -x,1/2+y,1/2-z
3 -x,-y,-z
4 x,1/2-y,1/2+z
_cell_length_a                   5.7778(2)
_cell_length_b                   16.1804(6)
_cell_length_c                   13.0855(6)
_cell_angle_alpha                90
_cell_angle_beta                 94.685(3)
_cell_angle_gamma                90
_cell_volume                     1219.24
loop_
_atom_site_label
_atom_site_type_symbol
_atom_site_fract_x
_atom_site_fract_y
_atom_site_fract_z
Cd1 Cd -0.14587(3) 0.356110(10) -0.168030(15)
N1 N 0.1966(4) 0.3771(2) -0.0822(2)
C1 C 0.3839(5) 0.37582(19) -0.0463(2)
S1 S 0.65079(13) 0.37510(7) 0.00603(6)
N2 N -0.7272(4) -0.01744(13) -0.27586(18)
C2 C -0.5200(6) -0.00905(17) -0.2245(3)
H1 H -0.4417 -0.0563 -0.2005
C3 C -0.4168(5) 0.06691(17) -0.2052(2)
H2 H -0.2722 0.0702 -0.1687
C4 C -0.5275(4) 0.13720(15) -0.2401(2)
C5 C -0.7445(5) 0.12913(15) -0.2913(2)
H3 H -0.8275 0.1757 -0.3145
C6 C -0.8372(5) 0.05133(16) -0.3077(2)
H4 H -0.9834 0.0466 -0.3426
C7 C -0.4083(5) 0.21974(15) -0.2252(2)
O1 O -0.2091(4) 0.21926(12) -0.17857(18)
O2 O -0.5052(3) 0.28408(11) -0.25867(17)
O3 O 0.0682(4) 0.34635(14) -0.31279(16)
H5 H 0.2025 0.3310 -0.2996
C8 C -0.0069(7) 0.3386(3) -0.4186(3)
H6 H -0.1454 0.3720 -0.4327
H7 H -0.0497 0.2815 -0.4324
C9 C 0.1619(11) 0.3630(4) -0.4880(4)
H8 H 0.0982 0.3552 -0.5574
H9 H 0.2990 0.3298 -0.4757
H10 H 0.2010 0.4201 -0.4771
Cd1A Cd -0.85413(3) -0.143890(10) -0.331970(15)
Cd1_2 Cd 0.85413(3) 0.356110(10) -0.168030(15)
S1_2 S -0.34921(13) 0.37510(7) 0.00603(6)
N2A N -0.2728(4) 0.48256(13) -0.22414(18)
loop_
_geom_bond_atom_site_label_1
_geom_bond_atom_site_label_2
_geom_bond_site_symmetry_1
_geom_bond_site_symmetry_2
Cd1 N1 1_555 1_555
N1 C1 1_555 1_555
C1 S1 1_555 1_555
S1 Cd1_2 1_555 1_555
N2 C2 1_555 1_555
C2 H1 1_555 1_555
C3 C2 1_555 1_555
H2 C3 1_555 1_555
C4 C3 1_555 1_555
C5 C4 1_555 1_555
H3 C5 1_555 1_555
C6 N2 1_555 1_555
H4 C6 1_555 1_555
C7 C4 1_555 1_555
O1 Cd1 1_555 1_555
O2 Cd1 1_555 1_555
O3 Cd1 1_555 1_555
H5 O3 1_555 1_555
C8 O3 1_555 1_555
H6 C8 1_555 1_555
H7 C8 1_555 1_555
C9 C8 1_555 1_555
H8 C9 1_555 1_555
H9 C9 1_555 1_555
H10 C9 1_555 1_555
Cd1A N2 1_555 1_555
S1_2 Cd1 1_555 1_555
N2A Cd1 1_555 1_555
C5 C6 1_555 1_555
C7 O1 1_555 1_555
C7 O2 1_555 1_555

#END
