
#######################################################################
#
#                 Cambridge Crystallographic Data Centre
#                                CCDC 
#
#######################################################################
#
# If this CIF has been generated from an entry in the Cambridge 
# Structural Database, then it will include bibliographic, chemical, 
# crystal, experimental, refinement or atomic coordinate data resulting 
# from the CCDC's data processing and validation procedures.
#
#######################################################################

data_BEMXUN
_symmetry_cell_setting           monoclinic
_symmetry_space_group_name_H-M   'P 21/c'
_symmetry_Int_Tables_number      14
_space_group_name_Hall           '-P 2ybc'
loop_
_symmetry_equiv_pos_site_id
_symmetry_equiv_pos_as_xyz
1 x,y,z
2 x,1/2-y,1/2+z
3 -x,-y,-z
4 -x,1/2+y,1/2-z
_cell_length_a                   7.912(3)
_cell_length_b                   19.622(7)
_cell_length_c                   14.308(5)
_cell_angle_alpha                90
_cell_angle_beta                 100.360(6)
_cell_angle_gamma                90
_cell_volume                     2185.09
loop_
_atom_site_label
_atom_site_type_symbol
_atom_site_fract_x
_atom_site_fract_y
_atom_site_fract_z
Cu1 Cu 0.45103(5) 0.639842(18) 0.40984(2)
Mn1 Mn 0.33764(6) 0.51544(2) 0.05979(3)
O1 O 0.4906(3) 0.59544(10) 0.14474(13)
O2 O 0.3026(3) 0.50033(11) 0.20916(14)
N1 N 0.5485(3) 0.64286(12) 0.29536(16)
N2 N 0.4849(3) 0.74033(12) 0.42759(17)
N3 N 0.4325(3) 0.61827(12) 0.54016(16)
N4 N 0.3379(3) 0.55544(12) 0.35596(15)
N5 N 0.4204(3) 0.54430(13) -0.07375(17)
N6 N 0.3336(4) 0.56230(15) -0.14560(19)
N7 N 0.2503(5) 0.5817(2) -0.2149(2)
N8 N 0.1792(4) 0.42719(14) 0.0107(2)
N9 N 0.0314(4) 0.42210(12) -0.01296(18)
N10 N -0.1159(4) 0.41355(15) -0.0367(2)
C1 C 0.6901(4) 0.68370(16) 0.2841(2)
C2 C 0.8070(4) 0.66300(19) 0.2268(2)
H1 H 0.7864 0.6237 0.1903
C3 C 0.9532(5) 0.7014(2) 0.2250(3)
H2 H 1.0323 0.6868 0.1884
C4 C 0.9836(5) 0.7609(2) 0.2762(3)
H3 H 1.0824 0.7861 0.2741
C5 C 0.8685(5) 0.78278(19) 0.3303(2)
H4 H 0.8880 0.8238 0.3630
C6 C 0.7209(4) 0.74434(17) 0.3372(2)
C7 C 0.6055(4) 0.77152(17) 0.3960(2)
H5 H 0.6208 0.8172 0.4128
C8 C 0.3743(5) 0.78471(16) 0.4766(2)
H6 H 0.3019 0.8123 0.4293
H7 H 0.4477 0.8154 0.5189
C9 C 0.2610(5) 0.74652(17) 0.5334(2)
H8 H 0.2046 0.7097 0.4946
H9 H 0.1722 0.7773 0.5467
C10 C 0.3530(4) 0.71688(17) 0.6267(2)
H10 H 0.2697 0.6934 0.6572
H11 H 0.4007 0.7540 0.6680
C11 C 0.4962(4) 0.66762(17) 0.6165(2)
H12 H 0.5937 0.6924 0.6011
H13 H 0.5335 0.6437 0.6760
C12 C 0.3627(4) 0.56408(15) 0.5646(2)
H14 H 0.3693 0.5581 0.6297
C13 C 0.2746(4) 0.51046(15) 0.5050(2)
C14 C 0.2011(4) 0.45950(15) 0.5544(2)
H15 H 0.2146 0.4622 0.6202
C15 C 0.1107(4) 0.40622(16) 0.5086(2)
H16 H 0.0663 0.3724 0.5428
C16 C 0.0861(4) 0.40344(17) 0.4101(2)
H17 H 0.0223 0.3680 0.3780
C17 C 0.1560(4) 0.45301(16) 0.3590(2)
H18 H 0.1363 0.4505 0.2930
C18 C 0.2550(4) 0.50642(14) 0.40422(19)
C19 C 0.3576(4) 0.54674(15) 0.26588(19)
C20 C 0.4733(4) 0.59964(14) 0.22947(19)
N5B N 0.5796(3) 0.45570(13) 0.07375(17)
N10B N 0.1159(4) 0.58645(15) 0.0367(2)
Mn1B Mn 0.66236(6) 0.48456(2) -0.05979(3)
Mn1B_2 Mn -0.33764(6) 0.48456(2) -0.05979(3)
loop_
_geom_bond_atom_site_label_1
_geom_bond_atom_site_label_2
_geom_bond_site_symmetry_1
_geom_bond_site_symmetry_2
Cu1 N1 1_555 1_555
Mn1 O1 1_555 1_555
O1 C20 1_555 1_555
O2 Mn1 1_555 1_555
N1 C1 1_555 1_555
N2 Cu1 1_555 1_555
N3 Cu1 1_555 1_555
N4 Cu1 1_555 1_555
N5 Mn1 1_555 1_555
N6 N5 1_555 1_555
N7 N6 1_555 1_555
N8 Mn1 1_555 1_555
N9 N8 1_555 1_555
N10 N9 1_555 1_555
C1 C2 1_555 1_555
C2 H1 1_555 1_555
C3 C2 1_555 1_555
H2 C3 1_555 1_555
C4 C3 1_555 1_555
H3 C4 1_555 1_555
C5 C4 1_555 1_555
H4 C5 1_555 1_555
C6 C1 1_555 1_555
C7 N2 1_555 1_555
H5 C7 1_555 1_555
C8 N2 1_555 1_555
H6 C8 1_555 1_555
H7 C8 1_555 1_555
C9 C8 1_555 1_555
H8 C9 1_555 1_555
H9 C9 1_555 1_555
C10 C9 1_555 1_555
H10 C10 1_555 1_555
H11 C10 1_555 1_555
C11 N3 1_555 1_555
H12 C11 1_555 1_555
H13 C11 1_555 1_555
C12 N3 1_555 1_555
H14 C12 1_555 1_555
C13 C12 1_555 1_555
C14 C13 1_555 1_555
H15 C14 1_555 1_555
C15 C14 1_555 1_555
H16 C15 1_555 1_555
C16 C15 1_555 1_555
H17 C16 1_555 1_555
C17 C16 1_555 1_555
H18 C17 1_555 1_555
C18 N4 1_555 1_555
C19 O2 1_555 1_555
C20 N1 1_555 1_555
N5B Mn1 1_555 1_555
N10B Mn1 1_555 1_555
Mn1B N5 1_555 1_555
Mn1B_2 N10 1_555 1_555
N4 C19 1_555 1_555
C5 C6 1_555 1_555
C6 C7 1_555 1_555
C10 C11 1_555 1_555
C13 C18 1_555 1_555
C17 C18 1_555 1_555
C19 C20 1_555 1_555
N5B Mn1B 1_555 1_555

#END
