
#######################################################################
#
#                 Cambridge Crystallographic Data Centre
#                                CCDC 
#
#######################################################################
#
# If this CIF has been generated from an entry in the Cambridge 
# Structural Database, then it will include bibliographic, chemical, 
# crystal, experimental, refinement or atomic coordinate data resulting 
# from the CCDC's data processing and validation procedures.
#
#######################################################################

data_BENBOM
_symmetry_cell_setting           monoclinic
_symmetry_space_group_name_H-M   'P 2/n'
_symmetry_Int_Tables_number      13
_space_group_name_Hall           '-P 2yac'
loop_
_symmetry_equiv_pos_site_id
_symmetry_equiv_pos_as_xyz
1 x,y,z
2 1/2+x,-y,1/2+z
3 -x,-y,-z
4 1/2-x,y,1/2-z
_cell_length_a                   14.5066(19)
_cell_length_b                   9.9943(14)
_cell_length_c                   18.529(3)
_cell_angle_alpha                90
_cell_angle_beta                 103.577(3)
_cell_angle_gamma                90
_cell_volume                     2611.33
loop_
_atom_site_label
_atom_site_type_symbol
_atom_site_fract_x
_atom_site_fract_y
_atom_site_fract_z
Cl1 Cl 0.3501(2) 0.5734(3) 0.2457(2)
C19 C 0.2500 0.6783(15) 0.2500
H19 H 0.2343 0.7345 0.2068
Cl1C Cl 0.1499(2) 0.5734(3) 0.2543(2)
H19C H 0.2657 0.7345 0.2932
Ce1 Ce 0.486955(13) 0.10163(2) 0.103041(10)
O1 O 0.5719(2) -0.0466(3) 0.20139(14)
N1 N 0.5622(2) -0.0540(3) 0.27049(16)
C1 C 0.6214(3) 0.0165(5) 0.3240(2)
H1 H 0.6695 0.0679 0.3126
C2 C 0.6099(3) 0.0117(5) 0.3963(2)
H2 H 0.6508 0.0600 0.4333
C3 C 0.5386(3) -0.0637(4) 0.4141(2)
C4 C 0.4809(3) -0.1349(5) 0.3581(2)
H3 H 0.4326 -0.1873 0.3684
C5 C 0.4936(3) -0.1299(5) 0.2871(2)
H4 H 0.4541 -0.1797 0.2499
C6 C 0.5237(3) -0.0638(5) 0.4916(2)
H5 H 0.5844 -0.0736 0.5267
H6 H 0.4846 -0.1399 0.4976
O2 O 0.53463(19) -0.1052(2) 0.03878(14)
N2 N 0.5857(2) -0.2037(3) 0.07977(16)
C7 C 0.5417(3) -0.3093(4) 0.1002(2)
H7 H 0.4760 -0.3155 0.0858
C8 C 0.5931(4) -0.4089(4) 0.1425(3)
H8 H 0.5617 -0.4823 0.1562
C9 C 0.6914(3) -0.4018(4) 0.1650(2)
C10 C 0.7323(3) -0.2913(5) 0.1432(2)
H9 H 0.7978 -0.2816 0.1577
C11 C 0.6794(3) -0.1933(4) 0.1003(2)
H10 H 0.7094 -0.1194 0.0856
C12 C 0.7481(4) -0.5120(5) 0.2097(2)
H11 H 0.7219 -0.5970 0.1892
H12 H 0.8125 -0.5070 0.2033
O3 O 0.3977(2) 0.3080(3) 0.07496(18)
N3 N 0.3100(2) 0.3547(4) 0.06807(19)
C13 C 0.2810(3) 0.4586(5) 0.0222(3)
H13 H 0.3228 0.4980 -0.0027
C14 C 0.1907(3) 0.5067(6) 0.0119(3)
H14 H 0.1713 0.5768 -0.0212
C15 C 0.1269(3) 0.4532(5) 0.0500(3)
C16 C 0.1601(3) 0.3468(5) 0.0987(3)
H15 H 0.1199 0.3077 0.1251
C17 C 0.2508(3) 0.2998(5) 0.1079(3)
H16 H 0.2723 0.2306 0.1412
C18 C 0.0278(3) 0.5061(7) 0.0389(3)
H17 H -0.0045 0.4576 0.0711
H18 H 0.0306 0.5995 0.0534
N4 N 0.3006(3) -0.0622(5) 0.0846(2)
O4 O 0.3064(2) 0.0387(4) 0.0464(2)
O5 O 0.3748(3) -0.0962(4) 0.1277(2)
O6 O 0.2253(3) -0.1212(5) 0.0786(3)
N5 N 0.6688(2) 0.2275(4) 0.0809(2)
O7 O 0.5941(2) 0.2930(3) 0.06134(16)
O8 O 0.6650(2) 0.1165(3) 0.1115(2)
O9 O 0.7433(3) 0.2693(4) 0.0724(3)
N6 N 0.4964(3) 0.2562(5) 0.2458(2)
O10 O 0.5591(2) 0.2656(4) 0.21032(17)
O11 O 0.4313(2) 0.1686(4) 0.22415(18)
O12 O 0.4973(4) 0.3273(6) 0.3000(3)
C6B C 0.4763(3) 0.0638(5) 0.5084(2)
C3B C 0.4614(3) 0.0637(4) 0.5859(2)
C2B C 0.3901(3) -0.0117(5) 0.6037(2)
C1B C 0.3786(3) -0.0165(5) 0.6760(2)
N1B N 0.4378(2) 0.0540(3) 0.72951(16)
O1B O 0.4281(2) 0.0466(3) 0.79861(14)
C5B C 0.5064(3) 0.1299(5) 0.7129(2)
C4B C 0.5191(3) 0.1349(5) 0.6419(2)
H3B H 0.5674 0.1873 0.6316
H4B H 0.5459 0.1797 0.7501
H1B H 0.3305 -0.0679 0.6874
H2B H 0.3492 -0.0600 0.5667
H5B H 0.4156 0.0736 0.4733
H6B H 0.5154 0.1399 0.5024
C12C C 0.7519(4) -0.5120(5) 0.2903(2)
C9C C 0.8086(3) -0.4018(4) 0.3350(2)
C8C C 0.9069(4) -0.4089(4) 0.3575(3)
C7C C 0.9583(3) -0.3093(4) 0.3998(2)
N2C N 0.9143(2) -0.2037(3) 0.42023(16)
O2C O 0.96537(19) -0.1052(2) 0.46122(14)
C11C C 0.8206(3) -0.1933(4) 0.3997(2)
C10C C 0.7677(3) -0.2913(5) 0.3568(2)
H9C H 0.7022 -0.2816 0.3423
H10C H 0.7906 -0.1194 0.4144
H7C H 1.0240 -0.3155 0.4142
H8C H 0.9383 -0.4823 0.3438
H11C H 0.7781 -0.5970 0.3108
H12C H 0.6875 -0.5070 0.2967
C18B C -0.0278(3) 0.4939(7) -0.0389(3)
C15B C -0.1269(3) 0.5468(5) -0.0500(3)
C14B C -0.1907(3) 0.4933(6) -0.0119(3)
C13B C -0.2810(3) 0.5414(5) -0.0222(3)
N3B N -0.3100(2) 0.6453(4) -0.06807(19)
O3B O -0.3977(2) 0.6920(3) -0.07496(18)
C17B C -0.2508(3) 0.7002(5) -0.1079(3)
C16B C -0.1601(3) 0.6532(5) -0.0987(3)
H15B H -0.1199 0.6923 -0.1251
H16B H -0.2723 0.7694 -0.1412
H13B H -0.3228 0.5020 0.0027
H14B H -0.1713 0.4232 0.0212
H17B H 0.0045 0.5424 -0.0711
H18B H -0.0306 0.4005 -0.0534
Ce1B Ce 0.513045(13) -0.10163(2) 0.896959(10)
N4B N 0.6994(3) 0.0622(5) 0.9154(2)
O4B O 0.6936(2) -0.0387(4) 0.9536(2)
O5B O 0.6252(3) 0.0962(4) 0.8723(2)
O6B O 0.7747(3) 0.1212(5) 0.9214(3)
N5B N 0.3312(2) -0.2275(4) 0.9191(2)
O7B O 0.4059(2) -0.2930(3) 0.93866(16)
O8B O 0.3350(2) -0.1165(3) 0.8885(2)
O9B O 0.2567(3) -0.2693(4) 0.9276(3)
N6B N 0.5036(3) -0.2562(5) 0.7542(2)
O10B O 0.4409(2) -0.2656(4) 0.78968(17)
O11B O 0.5687(2) -0.1686(4) 0.77585(18)
O12B O 0.5027(4) -0.3273(6) 0.7000(3)
O2B O 0.46537(19) 0.1052(2) -0.03878(14)
Ce1B_2 Ce 0.513045(13) -0.10163(2) -0.103041(10)
Ce1A Ce 0.986955(13) -0.10163(2) 0.603041(10)
Ce1C Ce 1.013045(13) 0.10163(2) 0.396959(10)
Ce1B_3 Ce -0.486955(13) 0.89837(2) -0.103041(10)
O2_2 O 0.53463(19) -0.1052(2) 1.03878(14)
O2B_2 O 0.46537(19) 0.1052(2) 0.96122(14)
O3B_2 O 0.6023(2) -0.3080(3) 0.92504(18)
O13? O 0.235(7) 0.041(4) 0.227(9)
loop_
_geom_bond_atom_site_label_1
_geom_bond_atom_site_label_2
_geom_bond_site_symmetry_1
_geom_bond_site_symmetry_2
Ce1 O1 1_555 1_555
O1 N1 1_555 1_555
N1 C1 1_555 1_555
C1 H1 1_555 1_555
C2 C1 1_555 1_555
H2 C2 1_555 1_555
C3 C2 1_555 1_555
C4 C3 1_555 1_555
H3 C4 1_555 1_555
C5 N1 1_555 1_555
H4 C5 1_555 1_555
C6 C3 1_555 1_555
H5 C6 1_555 1_555
H6 C6 1_555 1_555
O2 Ce1 1_555 1_555
N2 O2 1_555 1_555
C7 N2 1_555 1_555
H7 C7 1_555 1_555
C8 C7 1_555 1_555
H8 C8 1_555 1_555
C9 C8 1_555 1_555
C10 C9 1_555 1_555
H9 C10 1_555 1_555
C11 N2 1_555 1_555
H10 C11 1_555 1_555
C12 C9 1_555 1_555
H11 C12 1_555 1_555
H12 C12 1_555 1_555
O3 Ce1 1_555 1_555
N3 O3 1_555 1_555
C13 N3 1_555 1_555
H13 C13 1_555 1_555
C14 C13 1_555 1_555
H14 C14 1_555 1_555
C15 C14 1_555 1_555
C16 C15 1_555 1_555
H15 C16 1_555 1_555
C17 N3 1_555 1_555
H16 C17 1_555 1_555
C18 C15 1_555 1_555
H17 C18 1_555 1_555
H18 C18 1_555 1_555
N4 O4 1_555 1_555
O4 Ce1 1_555 1_555
O5 Ce1 1_555 1_555
O6 N4 1_555 1_555
N5 O7 1_555 1_555
O7 Ce1 1_555 1_555
O8 Ce1 1_555 1_555
O9 N5 1_555 1_555
N6 O10 1_555 1_555
O10 Ce1 1_555 1_555
O11 Ce1 1_555 1_555
O12 N6 1_555 1_555
Cl1 C19 1_555 1_555
C19 H19 1_555 1_555
C6B C6 1_555 1_555
C3B C6B 1_555 1_555
C2B C3B 1_555 1_555
C1B C2B 1_555 1_555
N1B C1B 1_555 1_555
O1B N1B 1_555 1_555
C5B N1B 1_555 1_555
C4B C3B 1_555 1_555
H3B C4B 1_555 1_555
H4B C5B 1_555 1_555
H1B C1B 1_555 1_555
H2B C2B 1_555 1_555
H5B C6B 1_555 1_555
H6B C6B 1_555 1_555
C12C C12 1_555 1_555
C9C C12C 1_555 1_555
C8C C9C 1_555 1_555
C7C C8C 1_555 1_555
N2C C7C 1_555 1_555
O2C N2C 1_555 1_555
C11C N2C 1_555 1_555
C10C C9C 1_555 1_555
H9C C10C 1_555 1_555
H10C C11C 1_555 1_555
H7C C7C 1_555 1_555
H8C C8C 1_555 1_555
H11C C12C 1_555 1_555
H12C C12C 1_555 1_555
C18B C18 1_555 1_555
C15B C18B 1_555 1_555
C14B C15B 1_555 1_555
C13B C14B 1_555 1_555
N3B C13B 1_555 1_555
O3B N3B 1_555 1_555
C17B N3B 1_555 1_555
C16B C15B 1_555 1_555
H15B C16B 1_555 1_555
H16B C17B 1_555 1_555
H13B C13B 1_555 1_555
H14B C14B 1_555 1_555
H17B C18B 1_555 1_555
H18B C18B 1_555 1_555
Cl1C C19 1_555 1_555
H19C C19 1_555 1_555
Ce1B O1B 1_555 1_555
N4B O4B 1_555 1_555
O4B Ce1B 1_555 1_555
O5B Ce1B 1_555 1_555
O6B N4B 1_555 1_555
N5B O7B 1_555 1_555
O7B Ce1B 1_555 1_555
O8B Ce1B 1_555 1_555
O9B N5B 1_555 1_555
N6B O10B 1_555 1_555
O10B Ce1B 1_555 1_555
O11B Ce1B 1_555 1_555
O12B N6B 1_555 1_555
O2B Ce1 1_555 1_555
Ce1B_2 O2 1_555 1_555
Ce1A O2C 1_555 1_555
Ce1C O2C 1_555 1_555
Ce1B_3 O3B 1_555 1_555
O2_2 Ce1B 1_555 1_555
O2B_2 Ce1B 1_555 1_555
O3B_2 Ce1B 1_555 1_555
C4 C5 1_555 1_555
C10 C11 1_555 1_555
C16 C17 1_555 1_555
N4 O5 1_555 1_555
N5 O8 1_555 1_555
N6 O11 1_555 1_555
C5B C4B 1_555 1_555
C11C C10C 1_555 1_555
C17B C16B 1_555 1_555
N4B O5B 1_555 1_555
N5B O8B 1_555 1_555
N6B O11B 1_555 1_555
O2B Ce1B_2 1_555 1_555

#END
