
#######################################################################
#
#                 Cambridge Crystallographic Data Centre
#                                CCDC 
#
#######################################################################
#
# If this CIF has been generated from an entry in the Cambridge 
# Structural Database, then it will include bibliographic, chemical, 
# crystal, experimental, refinement or atomic coordinate data resulting 
# from the CCDC's data processing and validation procedures.
#
#######################################################################

data_BENBIH
_symmetry_cell_setting           monoclinic
_symmetry_space_group_name_H-M   'P 21/c'
_symmetry_Int_Tables_number      14
_space_group_name_Hall           '-P 2ybc'
loop_
_symmetry_equiv_pos_site_id
_symmetry_equiv_pos_as_xyz
1 x,y,z
2 -x,1/2+y,1/2-z
3 -x,-y,-z
4 x,1/2-y,1/2+z
_cell_length_a                   15.4316(17)
_cell_length_b                   3.8261(4)
_cell_length_c                   21.586(2)
_cell_angle_alpha                90
_cell_angle_beta                 102.114(2)
_cell_angle_gamma                90
_cell_volume                     1246.12
loop_
_atom_site_label
_atom_site_type_symbol
_atom_site_fract_x
_atom_site_fract_y
_atom_site_fract_z
Cd1 Cd 0.54015(3) 0.60259(12) 0.317372(18)
Cd2 Cd 0.36298(3) 0.99432(11) 0.535960(18)
C1 C 0.3954(4) 0.9703(15) 0.3955(3)
C2 C 0.3041(3) 1.1340(15) 0.3869(3)
C3 C 0.2570(3) 1.2325(16) 0.3280(3)
H1 H 0.2819 1.2163 0.2925
C4 C 0.1708(4) 1.3573(16) 0.3231(3)
H2 H 0.1371 1.4196 0.2837
C5 C 0.1354(3) 1.3885(14) 0.3761(3)
C6 C 0.1895(3) 1.2966(16) 0.4341(3)
H3 H 0.1673 1.3242 0.4707
C7 C 0.0416(3) 1.4955(14) 0.3745(3)
C8 C -0.0268(3) 1.3999(15) 0.3243(2)
H4 H -0.0139 1.2814 0.2897
C9 C -0.1138(3) 1.4810(15) 0.3258(3)
H5 H -0.1589 1.4117 0.2924
C10 C -0.1350(3) 1.6642(15) 0.3762(3)
C11 C -0.2310(4) 1.7481(16) 0.3782(3)
C12 C -0.0658(3) 1.7629(15) 0.4252(2)
H6 H -0.0782 1.8902 0.4590
C13 C 0.0205(4) 1.6771(16) 0.4249(3)
H7 H 0.0653 1.7417 0.4588
N1 N 0.2717(3) 1.1707(13) 0.4396(2)
O1 O 0.4287(3) 0.8497(12) 0.44956(18)
O2 O 0.4288(3) 0.9638(13) 0.3482(2)
O3 O -0.2893(3) 1.6461(12) 0.33375(19)
O4 O -0.2417(3) 1.9216(12) 0.42591(19)
O5 O 0.5786(2) 0.5013(10) 0.42462(18)
H8 H 0.5284(17) 0.528(16) 0.430(3)
O6 O 0.5682(2) 0.1069(11) 0.27639(19)
H9 H 0.6206(13) 0.093(18) 0.275(3)
Cd1_2 Cd 0.54015(3) -0.39741(12) 0.317372(18)
Cd1A Cd 0.45985(3) 0.10259(12) 0.182628(18)
Cd2B Cd -0.36298(3) 2.00568(11) 0.464040(18)
Cd2B_2 Cd 0.63702(3) 1.00568(11) 0.464040(18)
Cd2B_3 Cd 0.63702(3) 0.00568(11) 0.464040(18)
O4B O 0.2417(3) 1.0784(12) 0.57409(19)
O5B O 0.4214(2) 1.4987(10) 0.57538(18)
O5B_2 O 0.4214(2) 0.4987(10) 0.57538(18)
H8B H 0.4716(17) 1.472(16) 0.570(3)
H8B_2 H 0.4716(17) 0.472(16) 0.570(3)
O6_2 O 0.5682(2) 1.1069(11) 0.27639(19)
O6A O 0.4318(2) 0.6069(11) 0.22361(19)
H9_2 H 0.6206(13) 1.093(18) 0.275(3)
H9A H 0.3794(13) 0.593(18) 0.225(3)
loop_
_geom_bond_atom_site_label_1
_geom_bond_atom_site_label_2
_geom_bond_site_symmetry_1
_geom_bond_site_symmetry_2
Cd1 O2 1_555 1_555
Cd2 N1 1_555 1_555
C1 C2 1_555 1_555
C2 C3 1_555 1_555
C3 H1 1_555 1_555
C4 C3 1_555 1_555
H2 C4 1_555 1_555
C5 C4 1_555 1_555
C6 C5 1_555 1_555
H3 C6 1_555 1_555
C7 C5 1_555 1_555
C8 C7 1_555 1_555
H4 C8 1_555 1_555
C9 C8 1_555 1_555
H5 C9 1_555 1_555
C10 C9 1_555 1_555
C11 C10 1_555 1_555
C12 C10 1_555 1_555
H6 C12 1_555 1_555
C13 C7 1_555 1_555
H7 C13 1_555 1_555
N1 C2 1_555 1_555
O1 Cd2 1_555 1_555
O2 C1 1_555 1_555
O3 C11 1_555 1_555
O4 C11 1_555 1_555
O5 Cd1 1_555 1_555
H8 O5 1_555 1_555
O6 Cd1 1_555 1_555
H9 O6 1_555 1_555
Cd1_2 O6 1_555 1_555
Cd1A O6 1_555 1_555
Cd2B O4 1_555 1_555
Cd2B_2 O5 1_555 1_555
Cd2B_3 O5 1_555 1_555
O4B Cd2 1_555 1_555
O5B Cd2 1_555 1_555
O5B_2 Cd2 1_555 1_555
H8B O5B 1_555 1_555
H8B_2 O5B_2 1_555 1_555
O6_2 Cd1 1_555 1_555
O6A Cd1 1_555 1_555
H9_2 O6_2 1_555 1_555
H9A O6A 1_555 1_555
C1 O1 1_555 1_555
C6 N1 1_555 1_555
C12 C13 1_555 1_555
Cd1A O6A 1_555 1_555

#END
