
#######################################################################
#
#                 Cambridge Crystallographic Data Centre
#                                CCDC 
#
#######################################################################
#
# If this CIF has been generated from an entry in the Cambridge 
# Structural Database, then it will include bibliographic, chemical, 
# crystal, experimental, refinement or atomic coordinate data resulting 
# from the CCDC's data processing and validation procedures.
#
#######################################################################

data_BENCAA
_symmetry_cell_setting           monoclinic
_symmetry_space_group_name_H-M   'C 2/c'
_symmetry_Int_Tables_number      15
_space_group_name_Hall           '-C 2yn'
loop_
_symmetry_equiv_pos_site_id
_symmetry_equiv_pos_as_xyz
1 x,y,z
2 -x,y,1/2-z
3 1/2+x,1/2+y,z
4 1/2-x,1/2+y,1/2-z
5 -x,-y,-z
6 x,-y,1/2+z
7 1/2-x,1/2-y,-z
8 1/2+x,1/2-y,1/2+z
_cell_length_a                   22.084(4)
_cell_length_b                   8.0773(16)
_cell_length_c                   10.814(2)
_cell_angle_alpha                90
_cell_angle_beta                 94.08(3)
_cell_angle_gamma                90
_cell_volume                     1924.1
loop_
_atom_site_label
_atom_site_type_symbol
_atom_site_fract_x
_atom_site_fract_y
_atom_site_fract_z
O1 O 0.08301(6) 0.92604(19) 0.37614(11)
O2 O 0.08768(6) 0.96441(19) 0.17202(11)
N1 N 0.20103(7) 1.0854(2) 0.20733(13)
N2 N 0.19897(7) 1.0170(2) 0.42115(13)
C1 C 0.25599(9) 1.0720(3) 0.43984(17)
H1 H 0.2752 1.0657 0.5191
C2 C 0.17410(7) 1.0274(2) 0.30494(14)
C3 C 0.25768(9) 1.1411(3) 0.22901(18)
H2 H 0.2778 1.1836 0.1634
C4 C 0.28729(9) 1.1378(3) 0.3457(2)
H3 H 0.3266 1.1781 0.3601
Li1 Li 0.13426(15) 0.9162(5) 0.5437(3)
O3 O 0.11355(9) 0.6795(2) 0.56747(16)
C5 C 0.10916(8) 0.9673(2) 0.28238(14)
O4 O 0.0000 0.6868(4) 0.2500
Li2 Li -0.00573(17) 0.8841(8) 0.3807(4)
H4 H -0.0286(13) 0.622(4) 0.230(3)
H5 H 0.1130(18) 0.599(5) 0.515(4)
H6 H 0.1170(14) 0.627(4) 0.634(3)
O5 O -0.00669(8) 0.8066(3) 0.54795(18)
H7 H -0.0386(10) 0.754(4) 0.570(3)
H8 H 0.0166(14) 0.717(4) 0.555(3)
O1E O 0.08301(6) 1.07396(19) 0.87614(11)
O2E O 0.08768(6) 1.03559(19) 0.67202(11)
O2A O -0.08768(6) 0.96441(19) 0.32798(11)
O2_2 O 0.08768(6) 0.96441(19) 1.17202(11)
O2D O -0.08768(6) 1.03559(19) 0.82798(11)
N1E N 0.20103(7) 0.9146(2) 0.70733(13)
N1_2 N 0.20103(7) 1.0854(2) 1.20733(13)
N2E N 0.19897(7) 0.9830(2) 0.92115(13)
C1E C 0.25599(9) 0.9280(3) 0.93984(17)
H1E H 0.2752 0.9343 1.0191
C2E C 0.17410(7) 0.9726(2) 0.80494(14)
C3E C 0.25768(9) 0.8589(3) 0.72901(18)
H2E H 0.2778 0.8164 0.6634
C4E C 0.28729(9) 0.8622(3) 0.8457(2)
H3E H 0.3266 0.8219 0.8601
Li1E Li 0.13426(15) 1.0838(5) 1.0437(3)
Li1E_2 Li 0.13426(15) 1.0838(5) 0.0437(3)
O3E O 0.11355(9) 1.3205(2) 1.06747(16)
C5E C 0.10916(8) 1.0327(2) 0.78238(14)
O4D O 0.0000 1.3132(4) 0.7500
Li2E Li -0.00573(17) 1.1159(8) 0.8807(4)
Li2A Li 0.00573(17) 0.8841(8) 0.1193(4)
Li2D Li 0.00573(17) 1.1159(8) 0.6193(4)
H4A H 0.0286(13) 0.622(4) 0.270(3)
H4E H -0.0286(13) 1.378(4) 0.730(3)
H4D H 0.0286(13) 1.378(4) 0.770(3)
H5E H 0.1130(18) 1.401(5) 1.015(4)
H6E H 0.1170(14) 1.373(4) 1.134(3)
O5E O -0.00669(8) 1.1934(3) 1.04795(18)
H7E H -0.0386(10) 1.246(4) 1.070(3)
H8E H 0.0166(14) 1.283(4) 1.055(3)
Cl1 Cl 0.10829(3) 0.57231(8) 0.84542(5)
loop_
_geom_bond_atom_site_label_1
_geom_bond_atom_site_label_2
_geom_bond_site_symmetry_1
_geom_bond_site_symmetry_2
O1 Li1 1_555 1_555
O2 C5 1_555 1_555
N1 C2 1_555 1_555
N2 C1 1_555 1_555
C1 H1 1_555 1_555
C2 N2 1_555 1_555
C3 N1 1_555 1_555
H2 C3 1_555 1_555
C4 C1 1_555 1_555
H3 C4 1_555 1_555
Li1 N2 1_555 1_555
O3 Li1 1_555 1_555
C5 O1 1_555 1_555
O4 Li2 1_555 1_555
Li2 O1 1_555 1_555
H4 O4 1_555 1_555
H5 O3 1_555 1_555
H6 O3 1_555 1_555
O5 Li2 1_555 1_555
H7 O5 1_555 1_555
H8 O5 1_555 1_555
O1E Li1E 1_555 1_555
O2E Li1 1_555 1_555
O2A Li2 1_555 1_555
O2_2 Li1E 1_555 1_555
O2D Li2E 1_555 1_555
N1E Li1 1_555 1_555
N1_2 Li1E 1_555 1_555
N2E C1E 1_555 1_555
C1E H1E 1_555 1_555
C2E N1E 1_555 1_555
C3E N1E 1_555 1_555
H2E C3E 1_555 1_555
C4E C1E 1_555 1_555
H3E C4E 1_555 1_555
Li1E N2E 1_555 1_555
Li1E_2 O2 1_555 1_555
O3E Li1E 1_555 1_555
C5E O1E 1_555 1_555
O4D Li2E 1_555 1_555
Li2E O1E 1_555 1_555
Li2A O2 1_555 1_555
Li2D O2E 1_555 1_555
H4A O4 1_555 1_555
H4E O4D 1_555 1_555
H4D O4D 1_555 1_555
H5E O3E 1_555 1_555
H6E O3E 1_555 1_555
O5E Li2E 1_555 1_555
H7E O5E 1_555 1_555
H8E O5E 1_555 1_555
N1 Li1E_2 1_555 1_555
C2 C5 1_555 1_555
C3 C4 1_555 1_555
O4 Li2A 1_555 1_555
O2E C5E 1_555 1_555
N2E C2E 1_555 1_555
C2E C5E 1_555 1_555
C3E C4E 1_555 1_555
O4D Li2D 1_555 1_555

#END
