
#######################################################################
#
#                 Cambridge Crystallographic Data Centre
#                                CCDC 
#
#######################################################################
#
# If this CIF has been generated from an entry in the Cambridge 
# Structural Database, then it will include bibliographic, chemical, 
# crystal, experimental, refinement or atomic coordinate data resulting 
# from the CCDC's data processing and validation procedures.
#
#######################################################################

data_BENCED
_symmetry_cell_setting           monoclinic
_symmetry_space_group_name_H-M   'P 21/c'
_symmetry_Int_Tables_number      14
_space_group_name_Hall           '-P 2ybc'
loop_
_symmetry_equiv_pos_site_id
_symmetry_equiv_pos_as_xyz
1 x,y,z
2 x,1/2-y,1/2+z
3 -x,-y,-z
4 -x,1/2+y,1/2-z
_cell_length_a                   11.0890(8)
_cell_length_b                   7.8615(6)
_cell_length_c                   21.8828(16)
_cell_angle_alpha                90
_cell_angle_beta                 101.783(2)
_cell_angle_gamma                90
_cell_volume                     1867.46
loop_
_atom_site_label
_atom_site_type_symbol
_atom_site_fract_x
_atom_site_fract_y
_atom_site_fract_z
Yb1 Yb 0.15214(3) 0.85272(5) 0.176552(16)
O1 O -0.0273(5) 0.9812(7) 0.1910(2)
N1 N -0.1386(6) 0.9857(9) 0.1518(3)
C1 C -0.1526(8) 1.0743(12) 0.0979(4)
H1 H -0.0856 1.1305 0.0877
C2 C -0.2664(8) 1.0814(12) 0.0580(4)
H2 H -0.2764 1.1455 0.0216
C3 C -0.3652(8) 0.9943(12) 0.0718(4)
C4 C -0.3483(9) 0.9131(13) 0.1287(5)
H3 H -0.4146 0.8602 0.1409
C5 C -0.2333(8) 0.9097(12) 0.1677(4)
H4 H -0.2228 0.8531 0.2058
C6 C -0.4887(8) 0.9795(12) 0.0297(4)
H5 H -0.5537 0.9388 0.0465
N2 N 0.0963(8) 0.7284(11) 0.0516(4)
O2 O 0.0134(5) 0.7863(9) 0.0784(3)
O3 O 0.2045(6) 0.7264(11) 0.0849(3)
O4 O 0.0733(7) 0.6808(10) -0.0017(3)
N3 N 0.3943(7) 0.7181(13) 0.2021(4)
O5 O 0.3706(6) 0.8699(9) 0.1853(4)
O6 O 0.3035(7) 0.6293(10) 0.2091(4)
O7 O 0.4988(7) 0.6617(10) 0.2123(4)
O8 O 0.1626(6) 1.0911(8) 0.1225(3)
N4 N 0.2447(7) 1.1834(9) 0.1006(3)
C7 C 0.3508(8) 1.2327(12) 0.1384(4)
H6 H 0.3670 1.2008 0.1802
C8 C 0.4340(9) 1.3285(11) 0.1161(4)
H7 H 0.5080 1.3582 0.1423
C9 C 0.4093(9) 1.3829(11) 0.0539(4)
C10 C 0.2953(8) 1.3348(11) 0.0177(4)
H8 H 0.2737 1.3709 -0.0236
C11 C 0.2165(8) 1.2371(12) 0.0417(4)
H9 H 0.1414 1.2066 0.0167
C12 C 0.5024(8) 1.4830(13) 0.0296(4)
H10 H 0.5693 1.5249 0.0584
N5 N 0.2201(7) 0.9654(12) 0.3016(4)
O9 O 0.2179(6) 1.0623(9) 0.2566(3)
O10 O 0.1808(8) 0.8184(9) 0.2872(3)
O11 O 0.2543(8) 1.0082(11) 0.3553(3)
C13 C 0.0541(10) 0.4501(13) 0.1603(5)
H11 H 0.1383 0.4140 0.1655
H12 H 0.0208 0.4700 0.1168
H13 H 0.0070 0.3633 0.1755
O12 O 0.0485(5) 0.6039(7) 0.1946(3)
C6B C -0.5113(8) 1.0205(12) -0.0297(4)
C3B C -0.6348(8) 1.0057(12) -0.0718(4)
C2B C -0.7336(8) 0.9186(12) -0.0580(4)
C1B C -0.8474(8) 0.9257(12) -0.0979(4)
N1B N -0.8614(6) 1.0143(9) -0.1518(3)
O1B O -0.9727(5) 1.0188(7) -0.1910(2)
C5B C -0.7667(8) 1.0903(12) -0.1677(4)
C4B C -0.6517(9) 1.0869(13) -0.1287(5)
H3B H -0.5854 1.1398 -0.1409
H4B H -0.7772 1.1469 -0.2058
H1B H -0.9144 0.8695 -0.0877
H2B H -0.7236 0.8545 -0.0216
H5B H -0.4463 1.0612 -0.0465
C12B C 0.4976(8) 1.5170(13) -0.0296(4)
C9B C 0.5907(9) 1.6171(11) -0.0539(4)
C8B C 0.5660(9) 1.6715(11) -0.1161(4)
C7B C 0.6492(8) 1.7673(12) -0.1384(4)
N4B N 0.7553(7) 1.8166(9) -0.1006(3)
O8B O 0.8374(6) 1.9089(8) -0.1225(3)
C11B C 0.7835(8) 1.7629(12) -0.0417(4)
C10B C 0.7047(8) 1.6652(11) -0.0177(4)
H8B H 0.7263 1.6291 0.0236
H9B H 0.8586 1.7934 -0.0167
H6B H 0.6330 1.7992 -0.1802
H7B H 0.4920 1.6418 -0.1423
H10B H 0.4307 1.4751 -0.0584
Yb1B Yb -1.15214(3) 1.14728(5) -0.176552(16)
N2B N -1.0963(8) 1.2716(11) -0.0516(4)
O2B O -1.0134(5) 1.2137(9) -0.0784(3)
O3B O -1.2045(6) 1.2736(11) -0.0849(3)
O4B O -1.0733(7) 1.3192(10) 0.0017(3)
N3B N -1.3943(7) 1.2819(13) -0.2021(4)
O5B O -1.3706(6) 1.1301(9) -0.1853(4)
O6B O -1.3035(7) 1.3707(10) -0.2091(4)
O7B O -1.4988(7) 1.3383(10) -0.2123(4)
N5B N -1.2201(7) 1.0346(12) -0.3016(4)
O9B O -1.2179(6) 0.9377(9) -0.2566(3)
O10B O -1.1808(8) 1.1816(9) -0.2872(3)
O11B O -1.2543(8) 0.9918(11) -0.3553(3)
C13B C -1.0541(10) 1.5499(13) -0.1603(5)
H11B H -1.1383 1.5860 -0.1655
H12B H -1.0208 1.5300 -0.1168
H13B H -1.0070 1.6367 -0.1755
O12B O -1.0485(5) 1.3961(7) -0.1946(3)
Yb1B_2 Yb 0.84786(3) 2.14728(5) -0.176552(16)
O8B_2 O -1.1626(6) 0.9089(8) -0.1225(3)
loop_
_geom_bond_atom_site_label_1
_geom_bond_atom_site_label_2
_geom_bond_site_symmetry_1
_geom_bond_site_symmetry_2
Yb1 O1 1_555 1_555
O1 N1 1_555 1_555
N1 C1 1_555 1_555
C1 H1 1_555 1_555
C2 C1 1_555 1_555
H2 C2 1_555 1_555
C3 C2 1_555 1_555
C4 C3 1_555 1_555
H3 C4 1_555 1_555
C5 N1 1_555 1_555
H4 C5 1_555 1_555
C6 C3 1_555 1_555
H5 C6 1_555 1_555
N2 O2 1_555 1_555
O2 Yb1 1_555 1_555
O3 Yb1 1_555 1_555
O4 N2 1_555 1_555
N3 O5 1_555 1_555
O5 Yb1 1_555 1_555
O6 Yb1 1_555 1_555
O7 N3 1_555 1_555
O8 Yb1 1_555 1_555
N4 O8 1_555 1_555
C7 N4 1_555 1_555
H6 C7 1_555 1_555
C8 C7 1_555 1_555
H7 C8 1_555 1_555
C9 C8 1_555 1_555
C10 C9 1_555 1_555
H8 C10 1_555 1_555
C11 N4 1_555 1_555
H9 C11 1_555 1_555
C12 C9 1_555 1_555
H10 C12 1_555 1_555
N5 O9 1_555 1_555
O9 Yb1 1_555 1_555
O10 Yb1 1_555 1_555
O11 N5 1_555 1_555
C13 H11 1_555 1_555
H12 C13 1_555 1_555
H13 C13 1_555 1_555
O12 Yb1 1_555 1_555
C6B C6 1_555 1_555
C3B C6B 1_555 1_555
C2B C3B 1_555 1_555
C1B C2B 1_555 1_555
N1B C1B 1_555 1_555
O1B N1B 1_555 1_555
C5B N1B 1_555 1_555
C4B C3B 1_555 1_555
H3B C4B 1_555 1_555
H4B C5B 1_555 1_555
H1B C1B 1_555 1_555
H2B C2B 1_555 1_555
H5B C6B 1_555 1_555
C12B C12 1_555 1_555
C9B C12B 1_555 1_555
C8B C9B 1_555 1_555
C7B C8B 1_555 1_555
N4B C7B 1_555 1_555
O8B N4B 1_555 1_555
C11B N4B 1_555 1_555
C10B C9B 1_555 1_555
H8B C10B 1_555 1_555
H9B C11B 1_555 1_555
H6B C7B 1_555 1_555
H7B C8B 1_555 1_555
H10B C12B 1_555 1_555
Yb1B O1B 1_555 1_555
N2B O2B 1_555 1_555
O2B Yb1B 1_555 1_555
O3B Yb1B 1_555 1_555
O4B N2B 1_555 1_555
N3B O5B 1_555 1_555
O5B Yb1B 1_555 1_555
O6B Yb1B 1_555 1_555
O7B N3B 1_555 1_555
N5B O9B 1_555 1_555
O9B Yb1B 1_555 1_555
O10B Yb1B 1_555 1_555
O11B N5B 1_555 1_555
C13B H11B 1_555 1_555
H12B C13B 1_555 1_555
H13B C13B 1_555 1_555
O12B Yb1B 1_555 1_555
Yb1B_2 O8B 1_555 1_555
O8B_2 Yb1B 1_555 1_555
C4 C5 1_555 1_555
N2 O3 1_555 1_555
N3 O6 1_555 1_555
C10 C11 1_555 1_555
N5 O10 1_555 1_555
C13 O12 1_555 1_555
C5B C4B 1_555 1_555
C11B C10B 1_555 1_555
N2B O3B 1_555 1_555
N3B O6B 1_555 1_555
N5B O10B 1_555 1_555
C13B O12B 1_555 1_555

#END
