
#######################################################################
#
#                 Cambridge Crystallographic Data Centre
#                                CCDC 
#
#######################################################################
#
# If this CIF has been generated from an entry in the Cambridge 
# Structural Database, then it will include bibliographic, chemical, 
# crystal, experimental, refinement or atomic coordinate data resulting 
# from the CCDC's data processing and validation procedures.
#
#######################################################################

data_BENFUX
_symmetry_cell_setting           triclinic
_symmetry_space_group_name_H-M   'P -1'
_symmetry_Int_Tables_number      2
_space_group_name_Hall           '-P 1'
loop_
_symmetry_equiv_pos_site_id
_symmetry_equiv_pos_as_xyz
1 x,y,z
2 -x,-y,-z
_cell_length_a                   7.0284(14)
_cell_length_b                   7.5836(15)
_cell_length_c                   13.276(3)
_cell_angle_alpha                104.74(3)
_cell_angle_beta                 91.19(3)
_cell_angle_gamma                116.03(3)
_cell_volume                     607.734
loop_
_atom_site_label
_atom_site_type_symbol
_atom_site_fract_x
_atom_site_fract_y
_atom_site_fract_z
Cu1 Cu 0.30340(5) 0.43833(4) 0.17117(2)
O1 O 0.2017(5) 0.8429(3) 0.07483(18)
O2 O 0.3062(4) 0.6111(3) 0.08503(16)
O3 O -0.0584(3) 1.0076(3) 0.20096(18)
O4 O 0.2863(3) 1.2456(3) 0.24768(16)
O5 O 0.6719(4) 0.5956(4) 0.2208(2)
H1 H 0.723(7) 0.518(5) 0.198(4)
H2 H 0.733(7) 0.701(4) 0.205(4)
O6 O 0.2962(5) 0.2398(4) 0.0373(2)
H3 H 0.292(7) 0.126(5) 0.042(4)
H4 H 0.406(6) 0.284(6) 0.003(4)
N1 N 0.2639(3) 0.6617(3) 0.28625(17)
C1 C 0.1293(4) 1.0719(4) 0.2397(2)
C2 C 0.1836(4) 0.9435(4) 0.2947(2)
C3 C 0.1917(4) 0.9836(4) 0.4014(2)
H7 H 0.1706 1.0930 0.4396
C4 C 0.2314(4) 0.8615(4) 0.4539(2)
C5 C 0.2409(4) 0.8966(4) 0.5644(2)
H8 H 0.2254 1.0074 0.6055
C6 C 0.2726(5) 0.7685(5) 0.6109(2)
H9 H 0.2771 0.7918 0.6833
C7 C 0.2985(5) 0.6019(5) 0.5502(2)
H10 H 0.3172 0.5143 0.5827
C8 C 0.2966(5) 0.5668(4) 0.4442(2)
H11 H 0.3183 0.4581 0.4056
C9 C 0.2620(4) 0.6941(4) 0.3922(2)
C10 C 0.2271(4) 0.7826(4) 0.2399(2)
C11 C 0.2456(5) 0.7447(4) 0.1240(2)
Cu1_2 Cu 0.30340(5) 1.43833(4) 0.17117(2)
O4_2 O 0.2863(3) 0.2456(3) 0.24768(16)
O7 O -0.1618(5) 0.3035(4) 0.1425(2)
H5 H -0.185(8) 0.265(7) 0.0779(15)
H6 H -0.140(8) 0.226(6) 0.166(3)
loop_
_geom_bond_atom_site_label_1
_geom_bond_atom_site_label_2
_geom_bond_site_symmetry_1
_geom_bond_site_symmetry_2
Cu1 O2 1_555 1_555
O1 C11 1_555 1_555
O2 C11 1_555 1_555
O3 C1 1_555 1_555
O4 C1 1_555 1_555
O5 Cu1 1_555 1_555
H1 O5 1_555 1_555
H2 O5 1_555 1_555
O6 Cu1 1_555 1_555
H3 O6 1_555 1_555
H4 O6 1_555 1_555
O7 H5 1_555 1_555
H6 O7 1_555 1_555
N1 Cu1 1_555 1_555
C1 C2 1_555 1_555
C2 C3 1_555 1_555
C3 H7 1_555 1_555
C4 C3 1_555 1_555
C5 C4 1_555 1_555
H8 C5 1_555 1_555
C6 C5 1_555 1_555
H9 C6 1_555 1_555
C7 C6 1_555 1_555
H10 C7 1_555 1_555
C8 C7 1_555 1_555
H11 C8 1_555 1_555
C9 N1 1_555 1_555
C10 N1 1_555 1_555
C11 C10 1_555 1_555
Cu1_2 O4 1_555 1_555
O4_2 Cu1 1_555 1_555
C2 C10 1_555 1_555
C4 C9 1_555 1_555
C8 C9 1_555 1_555

#END
