
#######################################################################
#
#                 Cambridge Crystallographic Data Centre
#                                CCDC 
#
#######################################################################
#
# If this CIF has been generated from an entry in the Cambridge 
# Structural Database, then it will include bibliographic, chemical, 
# crystal, experimental, refinement or atomic coordinate data resulting 
# from the CCDC's data processing and validation procedures.
#
#######################################################################

data_BENGIM
_symmetry_cell_setting           monoclinic
_symmetry_space_group_name_H-M   'P 21/c'
_symmetry_Int_Tables_number      14
_space_group_name_Hall           '-P 2ybc'
loop_
_symmetry_equiv_pos_site_id
_symmetry_equiv_pos_as_xyz
1 x,y,z
2 -x,1/2+y,1/2-z
3 -x,-y,-z
4 x,1/2-y,1/2+z
_cell_length_a                   12.589(3)
_cell_length_b                   8.1026(17)
_cell_length_c                   25.231(6)
_cell_angle_alpha                90
_cell_angle_beta                 105.174(2)
_cell_angle_gamma                90
_cell_volume                     2483.92
loop_
_atom_site_label
_atom_site_type_symbol
_atom_site_fract_x
_atom_site_fract_y
_atom_site_fract_z
Hg1 Hg 0.394304(9) 0.004646(12) 0.767518(5)
Cl1 Cl 0.48115(6) -0.31360(8) 0.77525(3)
Cl2 Cl 0.22022(7) -0.03302(11) 0.70223(4)
P1 P 0.33345(5) 0.13556(8) 0.87895(3)
C1 C 0.6575(2) 0.0932(3) 0.87894(10)
C2 C 0.7437(2) 0.2055(4) 0.89500(11)
H1 H 0.7295 0.3174 0.8977
C3 C 0.8496(2) 0.1491(5) 0.90675(12)
C4 C 0.8745(3) -0.0152(5) 0.90283(18)
H2 H 0.9473 -0.0502 0.9108
C5 C 0.7897(3) -0.1265(5) 0.88698(16)
H3 H 0.8050 -0.2379 0.8841
C6 C 0.6810(2) -0.0729(4) 0.87524(13)
H4 H 0.6239 -0.1487 0.8649
C7 C 0.54244(19) 0.1632(3) 0.86703(10)
N1 N 0.9400(2) 0.2703(5) 0.92431(12)
O1 O 0.9181(2) 0.4070(5) 0.93769(13)
O2 O 1.0322(2) 0.2238(5) 0.92538(17)
O3 O 0.53055(15) 0.3129(2) 0.86724(8)
C8 C 0.4477(2) 0.0510(3) 0.85832(11)
H5 H 0.4705 -0.0531 0.8777
C9 C 0.24626(19) 0.2639(3) 0.82721(10)
C10 C 0.2909(2) 0.3735(3) 0.79627(11)
H6 H 0.3668 0.3864 0.8039
C11 C 0.2228(3) 0.4628(4) 0.75433(14)
H7 H 0.2530 0.5347 0.7335
C12 C 0.1103(3) 0.4461(5) 0.74316(14)
H8 H 0.0648 0.5048 0.7143
C13 C 0.0650(2) 0.3422(4) 0.77476(13)
H9 H -0.0111 0.3340 0.7678
C14 C 0.1319(2) 0.2502(4) 0.81666(12)
H10 H 0.1010 0.1798 0.8376
C15 C 0.2511(2) -0.0368(3) 0.89107(11)
C16 C 0.2028(3) -0.1434(4) 0.84876(12)
H11 H 0.2127 -0.1269 0.8139
C17 C 0.1398(3) -0.2744(4) 0.85828(14)
H12 H 0.1082 -0.3461 0.8297
C18 C 0.1233(2) -0.2999(4) 0.90891(13)
H13 H 0.0806 -0.3880 0.9150
C19 C 0.1707(3) -0.1941(4) 0.95080(13)
H14 H 0.1596 -0.2107 0.9854
C20 C 0.2344(2) -0.0633(4) 0.94231(12)
H15 H 0.2661 0.0072 0.9712
C21 C 0.37502(19) 0.2448(3) 0.94318(10)
C22 C 0.2989(2) 0.3465(3) 0.95842(12)
H16 H 0.2315 0.3684 0.9337
C23 C 0.3237(3) 0.4147(4) 1.01033(13)
H17 H 0.2719 0.4803 1.0206
C24 C 0.4236(3) 0.3871(4) 1.04692(12)
H18 H 0.4398 0.4347 1.0817
C25 C 0.4997(3) 0.2890(4) 1.03198(11)
H19 H 0.5680 0.2715 1.0566
C26 C 0.4759(2) 0.2155(3) 0.98068(12)
H20 H 0.5273 0.1467 0.9713
Hg1A Hg 0.605696(9) -0.495354(12) 0.732482(5)
Cl1A Cl 0.51885(6) 0.18640(8) 0.72475(3)
loop_
_geom_bond_atom_site_label_1
_geom_bond_atom_site_label_2
_geom_bond_site_symmetry_1
_geom_bond_site_symmetry_2
Hg1 Cl1 1_555 1_555
Cl1 Hg1A 1_555 1_555
Cl2 Hg1 1_555 1_555
P1 C8 1_555 1_555
C1 C2 1_555 1_555
C2 H1 1_555 1_555
C3 C2 1_555 1_555
C4 C3 1_555 1_555
H2 C4 1_555 1_555
C5 C4 1_555 1_555
H3 C5 1_555 1_555
C6 C1 1_555 1_555
H4 C6 1_555 1_555
C7 C1 1_555 1_555
N1 C3 1_555 1_555
O1 N1 1_555 1_555
O2 N1 1_555 1_555
O3 C7 1_555 1_555
C8 Hg1 1_555 1_555
H5 C8 1_555 1_555
C9 P1 1_555 1_555
C10 C9 1_555 1_555
H6 C10 1_555 1_555
C11 C10 1_555 1_555
H7 C11 1_555 1_555
C12 C11 1_555 1_555
H8 C12 1_555 1_555
C13 C12 1_555 1_555
H9 C13 1_555 1_555
C14 C9 1_555 1_555
H10 C14 1_555 1_555
C15 P1 1_555 1_555
C16 C15 1_555 1_555
H11 C16 1_555 1_555
C17 C16 1_555 1_555
H12 C17 1_555 1_555
C18 C17 1_555 1_555
H13 C18 1_555 1_555
C19 C18 1_555 1_555
H14 C19 1_555 1_555
C20 C15 1_555 1_555
H15 C20 1_555 1_555
C21 P1 1_555 1_555
C22 C21 1_555 1_555
H16 C22 1_555 1_555
C23 C22 1_555 1_555
H17 C23 1_555 1_555
C24 C23 1_555 1_555
H18 C24 1_555 1_555
C25 C24 1_555 1_555
H19 C25 1_555 1_555
C26 C21 1_555 1_555
H20 C26 1_555 1_555
Cl1A Hg1 1_555 1_555
C5 C6 1_555 1_555
C7 C8 1_555 1_555
C13 C14 1_555 1_555
C19 C20 1_555 1_555
C25 C26 1_555 1_555

#END
