
#######################################################################
#
#                 Cambridge Crystallographic Data Centre
#                                CCDC 
#
#######################################################################
#
# If this CIF has been generated from an entry in the Cambridge 
# Structural Database, then it will include bibliographic, chemical, 
# crystal, experimental, refinement or atomic coordinate data resulting 
# from the CCDC's data processing and validation procedures.
#
#######################################################################

data_BENHOT
_symmetry_cell_setting           monoclinic
_symmetry_space_group_name_H-M   'P 21/n'
_symmetry_Int_Tables_number      14
_space_group_name_Hall           '-P 2yn'
loop_
_symmetry_equiv_pos_site_id
_symmetry_equiv_pos_as_xyz
1 x,y,z
2 1/2-x,1/2+y,1/2-z
3 -x,-y,-z
4 1/2+x,1/2-y,1/2+z
_cell_length_a                   7.4744(5)
_cell_length_b                   17.7122(13)
_cell_length_c                   21.4993(15)
_cell_angle_alpha                90
_cell_angle_beta                 95.0750(10)
_cell_angle_gamma                90
_cell_volume                     2835.09
loop_
_atom_site_label
_atom_site_type_symbol
_atom_site_fract_x
_atom_site_fract_y
_atom_site_fract_z
Zn1 Zn 1.0000 0.5000 0.0000
C1 C 0.6503(5) 0.73356(19) 0.63443(16)
C2 C 0.6897(4) 0.66640(18) 0.59720(14)
C3 C 0.6424(4) 0.59554(18) 0.61726(15)
H1 H 0.5935 0.5901 0.6553
C4 C 0.6676(4) 0.53241(19) 0.58068(14)
H2 H 0.6355 0.4850 0.5945
C5 C 0.7403(4) 0.53927(17) 0.52353(13)
C6 C 0.7865(4) 0.61109(18) 0.50425(15)
H3 H 0.8333 0.6170 0.4659
C7 C 0.7642(4) 0.67359(18) 0.54074(15)
H4 H 0.7993 0.7209 0.5275
C8 C 0.7645(4) 0.47318(18) 0.48218(14)
C9 C 0.7387(4) 0.39894(17) 0.50138(14)
H5 H 0.7094 0.3891 0.5417
C10 C 0.7572(4) 0.33962(17) 0.45977(13)
C11 C 0.8034(4) 0.35839(17) 0.40001(13)
H6 H 0.8162 0.3207 0.3706
C12 C 0.8302(4) 0.43340(17) 0.38481(13)
C13 C 0.8806(4) 0.45519(17) 0.32174(13)
C14 C 0.8268(4) 0.41227(18) 0.26902(14)
H7 H 0.7549 0.3700 0.2729
C15 C 0.8791(4) 0.43189(18) 0.21099(14)
H8 H 0.8420 0.4028 0.1762
C16 C 0.9868(4) 0.49489(17) 0.20442(14)
C17 C 1.0387(4) 0.53839(18) 0.25678(14)
H9 H 1.1100 0.5809 0.2528
C18 C 0.9856(4) 0.51921(18) 0.31450(14)
H10 H 1.0202 0.5492 0.3490
C19 C 1.0453(5) 0.51556(17) 0.14145(15)
C20 C 0.7223(4) 0.26062(17) 0.47603(13)
C21 C 0.7949(4) 0.19986(18) 0.44509(14)
H11 H 0.8797 0.2085 0.4168
C22 C 0.7410(4) 0.12758(18) 0.45651(14)
H12 H 0.7923 0.0882 0.4357
C23 C 0.5550(4) 0.16840(18) 0.52842(14)
H13 H 0.4745 0.1578 0.5578
C24 C 0.6034(4) 0.24235(17) 0.52010(13)
H14 H 0.5568 0.2802 0.5439
N1 N 0.8119(3) 0.49033(14) 0.42511(11)
N2 N 0.6181(3) 0.11067(14) 0.49621(11)
O1 O 0.9686(3) 0.48245(12) 0.09483(9)
O2 O 1.1689(3) 0.56380(13) 0.13980(10)
O3 O 0.7257(4) 0.79565(15) 0.61423(13)
H29 H 0.683(6) 0.8386(13) 0.624(2)
O4 O 0.5576(4) 0.73346(15) 0.67822(12)
O7 O 1.2630(3) 0.54461(14) 0.02156(11)
H30 H 1.299(5) 0.5844(14) 0.0047(18)
H31 H 1.278(5) 0.559(2) 0.0592(8)
Zn1A Zn 0.5000 0.0000 0.5000
Zn1A_2 Zn 1.5000 1.0000 -0.5000
C1B C 1.3497(5) 0.26644(19) -0.63443(16)
C2B C 1.3103(4) 0.33360(18) -0.59720(14)
C3B C 1.3576(4) 0.40446(18) -0.61726(15)
H1B H 1.4065 0.4099 -0.6553
C4B C 1.3324(4) 0.46759(19) -0.58068(14)
H2B H 1.3645 0.5150 -0.5945
C5B C 1.2597(4) 0.46073(17) -0.52353(13)
C6B C 1.2135(4) 0.38891(18) -0.50425(15)
H3B H 1.1667 0.3830 -0.4659
C7B C 1.2358(4) 0.32641(18) -0.54074(15)
H4B H 1.2007 0.2791 -0.5275
C8B C 1.2355(4) 0.52682(18) -0.48218(14)
C9B C 1.2613(4) 0.60106(17) -0.50138(14)
H5B H 1.2906 0.6109 -0.5417
C10B C 1.2428(4) 0.66038(17) -0.45977(13)
C11B C 1.1966(4) 0.64161(17) -0.40001(13)
H6B H 1.1838 0.6793 -0.3706
C12B C 1.1698(4) 0.56660(17) -0.38481(13)
C13B C 1.1194(4) 0.54481(17) -0.32174(13)
C14B C 1.1732(4) 0.58773(18) -0.26902(14)
H7B H 1.2451 0.6300 -0.2729
C15B C 1.1209(4) 0.56811(18) -0.21099(14)
H8B H 1.1580 0.5972 -0.1762
C16B C 1.0132(4) 0.50511(17) -0.20442(14)
C17B C 0.9613(4) 0.46161(18) -0.25678(14)
H9B H 0.8900 0.4191 -0.2528
C18B C 1.0144(4) 0.48079(18) -0.31450(14)
H10B H 0.9798 0.4508 -0.3490
C19B C 0.9547(5) 0.48444(17) -0.14145(15)
C20B C 1.2777(4) 0.73938(17) -0.47603(13)
C21B C 1.2051(4) 0.80014(18) -0.44509(14)
H11B H 1.1203 0.7915 -0.4168
C22B C 1.2590(4) 0.87242(18) -0.45651(14)
H12B H 1.2077 0.9118 -0.4357
C23B C 1.4450(4) 0.83160(18) -0.52842(14)
H13B H 1.5255 0.8422 -0.5578
C24B C 1.3966(4) 0.75765(17) -0.52010(13)
H14B H 1.4432 0.7198 -0.5439
N1B N 1.1881(3) 0.50967(14) -0.42511(11)
N2B N 1.3819(3) 0.88933(14) -0.49621(11)
N2A N 0.8819(3) 0.61067(14) 0.00379(11)
N2C N 1.1181(3) 0.38933(14) -0.00379(11)
O1B O 1.0314(3) 0.51755(12) -0.09483(9)
O2B O 0.8311(3) 0.43620(13) -0.13980(10)
O3B O 1.2743(4) 0.20435(15) -0.61423(13)
H29B H 1.317(6) 0.1614(13) -0.624(2)
O4B O 1.4424(4) 0.26654(15) -0.67822(12)
O7B O 0.7370(3) 0.45539(14) -0.02156(11)
H30B H 0.701(5) 0.4156(14) -0.0047(18)
H31B H 0.722(5) 0.441(2) -0.0592(8)
C25 C 0.5183(11) 0.7258(3) 0.2575(3)
H15 H 0.5527 0.7407 0.2173
H16 H 0.5922 0.7515 0.2896
H17 H 0.3947 0.7387 0.2606
C26 C 0.5986(7) 0.6048(3) 0.2118(2)
H18 H 0.6200 0.6397 0.1791
H19 H 0.5067 0.5697 0.1970
H20 H 0.7073 0.5778 0.2243
C27 C 0.5016(7) 0.6134(3) 0.3160(2)
H21 H 0.5261 0.5620 0.3197
N3 N 0.5410(4) 0.64597(18) 0.26498(14)
O5 O 0.4357(5) 0.64314(19) 0.35968(14)
C28 C 0.8396(6) 0.1388(3) 0.6757(2)
H22 H 0.8060 0.1752 0.7056
H23 H 0.8962 0.0964 0.6971
H24 H 0.7344 0.1222 0.6506
C29 C 1.0019(7) 0.2524(3) 0.6437(2)
H25 H 0.9434 0.2711 0.6786
H26 H 0.9580 0.2792 0.6066
H27 H 1.1291 0.2599 0.6513
C30 C 1.0301(5) 0.1338(2) 0.59015(18)
H28 H 0.9951 0.0835 0.5854
N4 N 0.9645(4) 0.1733(2) 0.63570(15)
O6 O 1.1334(4) 0.15890(17) 0.55402(13)
loop_
_geom_bond_atom_site_label_1
_geom_bond_atom_site_label_2
_geom_bond_site_symmetry_1
_geom_bond_site_symmetry_2
Zn1 O1 1_555 1_555
C1 C2 1_555 1_555
C2 C3 1_555 1_555
C3 H1 1_555 1_555
C4 C3 1_555 1_555
H2 C4 1_555 1_555
C5 C4 1_555 1_555
C6 C5 1_555 1_555
H3 C6 1_555 1_555
C7 C2 1_555 1_555
H4 C7 1_555 1_555
C8 C5 1_555 1_555
C9 C8 1_555 1_555
H5 C9 1_555 1_555
C10 C9 1_555 1_555
C11 C10 1_555 1_555
H6 C11 1_555 1_555
C12 C11 1_555 1_555
C13 C12 1_555 1_555
C14 C13 1_555 1_555
H7 C14 1_555 1_555
C15 C14 1_555 1_555
H8 C15 1_555 1_555
C16 C15 1_555 1_555
C17 C16 1_555 1_555
H9 C17 1_555 1_555
C18 C13 1_555 1_555
H10 C18 1_555 1_555
C19 C16 1_555 1_555
C20 C10 1_555 1_555
C21 C20 1_555 1_555
H11 C21 1_555 1_555
C22 C21 1_555 1_555
H12 C22 1_555 1_555
C23 H13 1_555 1_555
C24 C20 1_555 1_555
H14 C24 1_555 1_555
C25 H15 1_555 1_555
H16 C25 1_555 1_555
H17 C25 1_555 1_555
C26 H18 1_555 1_555
H19 C26 1_555 1_555
H20 C26 1_555 1_555
C27 H21 1_555 1_555
C28 H22 1_555 1_555
H23 C28 1_555 1_555
H24 C28 1_555 1_555
C29 H25 1_555 1_555
H26 C29 1_555 1_555
H27 C29 1_555 1_555
C30 H28 1_555 1_555
N1 C8 1_555 1_555
N2 C22 1_555 1_555
N3 C25 1_555 1_555
N4 C28 1_555 1_555
O1 C19 1_555 1_555
O2 C19 1_555 1_555
O3 C1 1_555 1_555
H29 O3 1_555 1_555
O4 C1 1_555 1_555
O5 C27 1_555 1_555
O6 C30 1_555 1_555
O7 Zn1 1_555 1_555
H30 O7 1_555 1_555
H31 O7 1_555 1_555
Zn1A N2 1_555 1_555
Zn1A_2 N2B 1_555 1_555
C1B C2B 1_555 1_555
C2B C3B 1_555 1_555
C3B H1B 1_555 1_555
C4B C3B 1_555 1_555
H2B C4B 1_555 1_555
C5B C4B 1_555 1_555
C6B C5B 1_555 1_555
H3B C6B 1_555 1_555
C7B C2B 1_555 1_555
H4B C7B 1_555 1_555
C8B C5B 1_555 1_555
C9B C8B 1_555 1_555
H5B C9B 1_555 1_555
C10B C9B 1_555 1_555
C11B C10B 1_555 1_555
H6B C11B 1_555 1_555
C12B C11B 1_555 1_555
C13B C12B 1_555 1_555
C14B C13B 1_555 1_555
H7B C14B 1_555 1_555
C15B C14B 1_555 1_555
H8B C15B 1_555 1_555
C16B C15B 1_555 1_555
C17B C16B 1_555 1_555
H9B C17B 1_555 1_555
C18B C13B 1_555 1_555
H10B C18B 1_555 1_555
C19B C16B 1_555 1_555
C20B C10B 1_555 1_555
C21B C20B 1_555 1_555
H11B C21B 1_555 1_555
C22B C21B 1_555 1_555
H12B C22B 1_555 1_555
C23B H13B 1_555 1_555
C24B C20B 1_555 1_555
H14B C24B 1_555 1_555
N1B C8B 1_555 1_555
N2B C22B 1_555 1_555
N2A Zn1 1_555 1_555
N2C Zn1 1_555 1_555
O1B Zn1 1_555 1_555
O2B C19B 1_555 1_555
O3B C1B 1_555 1_555
H29B O3B 1_555 1_555
O4B C1B 1_555 1_555
O7B Zn1 1_555 1_555
H30B O7B 1_555 1_555
H31B O7B 1_555 1_555
C6 C7 1_555 1_555
C12 N1 1_555 1_555
C17 C18 1_555 1_555
C23 C24 1_555 1_555
C23 N2 1_555 1_555
C26 N3 1_555 1_555
C27 N3 1_555 1_555
C29 N4 1_555 1_555
C30 N4 1_555 1_555
C6B C7B 1_555 1_555
C12B N1B 1_555 1_555
C17B C18B 1_555 1_555
C19B O1B 1_555 1_555
C23B C24B 1_555 1_555
C23B N2B 1_555 1_555

#END
