
#######################################################################
#
#                 Cambridge Crystallographic Data Centre
#                                CCDC 
#
#######################################################################
#
# If this CIF has been generated from an entry in the Cambridge 
# Structural Database, then it will include bibliographic, chemical, 
# crystal, experimental, refinement or atomic coordinate data resulting 
# from the CCDC's data processing and validation procedures.
#
#######################################################################

data_BENJAH
_symmetry_cell_setting           triclinic
_symmetry_space_group_name_H-M   'P -1'
_symmetry_Int_Tables_number      2
_space_group_name_Hall           '-P 1'
loop_
_symmetry_equiv_pos_site_id
_symmetry_equiv_pos_as_xyz
1 x,y,z
2 -x,-y,-z
_cell_length_a                   8.8621(18)
_cell_length_b                   8.9016(18)
_cell_length_c                   12.523(3)
_cell_angle_alpha                88.33(3)
_cell_angle_beta                 69.31(3)
_cell_angle_gamma                66.85(3)
_cell_volume                     842.824
loop_
_atom_site_label
_atom_site_type_symbol
_atom_site_fract_x
_atom_site_fract_y
_atom_site_fract_z
Cu1 Cu 0.11580(3) 1.01038(3) 0.296968(19)
O1 O 0.15473(18) 0.80049(16) 0.36822(12)
O2 O 0.4389(2) 0.7287(2) 0.26090(15)
O3 O 0.53028(17) 0.43934(16) 0.35228(12)
O4 O 0.6968(2) 0.0548(2) 0.45196(17)
O5 O 0.8433(2) 0.19001(19) 0.33789(14)
N1 N 0.1301(2) 0.9088(2) 0.15292(15)
N2 N 0.2242(2) 1.1413(2) 0.18474(14)
C1 C 0.3191(3) 0.7013(2) 0.33247(16)
C2 C 0.3569(2) 0.5458(2) 0.38399(16)
C3 C 0.2525(3) 0.4845(2) 0.46097(19)
H1 H 0.1299 0.5339 0.4956
C4 C 0.3660(3) 0.3303(3) 0.4786(2)
H2 H 0.3327 0.2579 0.5265
C5 C 0.5319(3) 0.3088(2) 0.41239(17)
C6 C 0.7064(3) 0.1739(2) 0.39860(18)
C7 C 0.0776(3) 0.7887(3) 0.1463(2)
H3 H 0.0250 0.7516 0.2136
C8 C 0.0994(4) 0.7183(3) 0.0416(2)
H4 H 0.0612 0.6357 0.0385
C9 C 0.1790(3) 0.7732(3) -0.0579(2)
H5 H 0.1979 0.7257 -0.1292
C10 C 0.2306(3) 0.8992(3) -0.05098(19)
H6 H 0.2828 0.9386 -0.1172
C11 C 0.2033(3) 0.9656(2) 0.05623(17)
C12 C 0.2515(3) 1.1018(2) 0.07481(17)
C13 C 0.3209(3) 1.1829(3) -0.01247(19)
H7 H 0.3389 1.1543 -0.0882
C14 C 0.3626(3) 1.3065(3) 0.0148(2)
H8 H 0.4086 1.3629 -0.0424
C15 C 0.3359(3) 1.3460(3) 0.1276(2)
H9 H 0.3648 1.4284 0.1472
C16 C 0.2659(3) 1.2617(3) 0.2105(2)
H10 H 0.2468 1.2889 0.2867
O6 O 0.1177(2) 1.12059(17) 0.43017(12)
H11 H 0.014(2) 1.164(3) 0.4834(19)
H12 H 0.191(3) 1.056(3) 0.458(2)
Cu1_2 Cu 1.11580(3) 0.01038(3) 0.296968(19)
O5_2 O -0.1567(2) 1.19001(19) 0.33789(14)
O7 O 0.8652(4) 0.5101(4) 0.2205(3)
H13 H 0.832(6) 0.451(5) 0.272(3)
H14 H 0.767(4) 0.599(4) 0.241(4)
O8 O 0.6105(5) 0.9237(5) 0.2840(2)
H15 H 0.611(7) 0.952(6) 0.349(3)
H16 H 0.540(6) 0.876(6) 0.291(4)
loop_
_geom_bond_atom_site_label_1
_geom_bond_atom_site_label_2
_geom_bond_site_symmetry_1
_geom_bond_site_symmetry_2
Cu1 O1 1_555 1_555
O1 C1 1_555 1_555
O2 C1 1_555 1_555
O3 C2 1_555 1_555
O4 C6 1_555 1_555
O5 C6 1_555 1_555
N1 Cu1 1_555 1_555
N2 Cu1 1_555 1_555
C1 C2 1_555 1_555
C2 C3 1_555 1_555
C3 H1 1_555 1_555
C4 C3 1_555 1_555
H2 C4 1_555 1_555
C5 O3 1_555 1_555
C6 C5 1_555 1_555
C7 N1 1_555 1_555
H3 C7 1_555 1_555
C8 C7 1_555 1_555
H4 C8 1_555 1_555
C9 C8 1_555 1_555
H5 C9 1_555 1_555
C10 C9 1_555 1_555
H6 C10 1_555 1_555
C11 N1 1_555 1_555
C12 N2 1_555 1_555
C13 C12 1_555 1_555
H7 C13 1_555 1_555
C14 C13 1_555 1_555
H8 C14 1_555 1_555
C15 C14 1_555 1_555
H9 C15 1_555 1_555
C16 N2 1_555 1_555
H10 C16 1_555 1_555
O6 Cu1 1_555 1_555
H11 O6 1_555 1_555
H12 O6 1_555 1_555
O7 H13 1_555 1_555
H14 O7 1_555 1_555
O8 H15 1_555 1_555
H16 O8 1_555 1_555
Cu1_2 O5 1_555 1_555
O5_2 Cu1 1_555 1_555
C4 C5 1_555 1_555
C10 C11 1_555 1_555
C11 C12 1_555 1_555
C15 C16 1_555 1_555

#END
