
#######################################################################
#
#                 Cambridge Crystallographic Data Centre
#                                CCDC 
#
#######################################################################
#
# If this CIF has been generated from an entry in the Cambridge 
# Structural Database, then it will include bibliographic, chemical, 
# crystal, experimental, refinement or atomic coordinate data resulting 
# from the CCDC's data processing and validation procedures.
#
#######################################################################

data_BENJOV
_symmetry_cell_setting           monoclinic
_symmetry_space_group_name_H-M   'P 2/n'
_symmetry_Int_Tables_number      13
_space_group_name_Hall           '-P 2yac'
loop_
_symmetry_equiv_pos_site_id
_symmetry_equiv_pos_as_xyz
1 x,y,z
2 1/2-x,y,1/2-z
3 -x,-y,-z
4 1/2+x,-y,1/2+z
_cell_length_a                   7.3588(8)
_cell_length_b                   11.8463(13)
_cell_length_c                   11.9942(13)
_cell_angle_alpha                90
_cell_angle_beta                 99.1840(10)
_cell_angle_gamma                90
_cell_volume                     1032.19
loop_
_atom_site_label
_atom_site_type_symbol
_atom_site_fract_x
_atom_site_fract_y
_atom_site_fract_z
Ni1 Ni 0.2500 0.36726(2) 0.7500
Ni2 Ni 0.0000 1.0000 1.0000
O1 O -0.10038(16) 0.87338(9) 0.89420(9)
O2 O 0.10695(15) 1.06255(9) 0.86383(9)
H1 H 0.0846 1.1302 0.8571
O3 O -0.33996(15) 0.76758(9) 0.92552(9)
O4 O 0.23852(15) 0.90408(10) 1.03816(9)
H2 H 0.3218 0.9436 1.0709
O5 O 0.04444(15) 0.28697(9) 0.82901(9)
C1 C 0.1670(2) 0.60269(12) 0.77858(12)
N1 N 0.10800(18) 0.49784(10) 0.79747(10)
C2 C -0.1837(2) 0.78123(12) 0.89848(11)
C3 C -0.1418(2) 0.56825(12) 0.88022(11)
H3 H -0.2463 0.5552 0.9130
C4 C 0.0741(2) 0.69601(13) 0.81220(12)
H4 H 0.1153 0.7688 0.8011
C5 C -0.0391(2) 0.47890(12) 0.84663(12)
C6 C -0.0820(2) 0.67854(12) 0.86283(11)
O6 O -0.21194(15) 0.32298(9) 0.90173(9)
O7 O 0.07941(17) 0.35897(11) 0.59723(10)
H5 H 0.1245 0.3169 0.5548
C7 C -0.0751(2) 0.35285(12) 0.86043(12)
H8 H -0.025(4) 0.352(2) 0.603(2)
H9 H 0.240(4) 0.842(2) 1.059(2)
H10 H 0.069(3) 1.031(2) 0.801(2)
Ni2A Ni 0.5000 1.0000 0.5000
O1A O 0.60038(16) 0.87338(9) 0.60580(9)
O1B O 0.10038(16) 1.12662(9) 1.10580(9)
O2B O -0.10695(15) 0.93745(9) 1.13617(9)
H1B H -0.0846 0.8698 1.1429
O3A O 0.83996(15) 0.76758(9) 0.57448(9)
O4B O -0.23852(15) 1.09592(10) 0.96184(9)
H2B H -0.3218 1.0564 0.9291
O5A O 0.45556(15) 0.28697(9) 0.67099(9)
C1A C 0.3330(2) 0.60269(12) 0.72142(12)
N1A N 0.39200(18) 0.49784(10) 0.70253(10)
C2A C 0.6837(2) 0.78123(12) 0.60152(11)
C3A C 0.6418(2) 0.56825(12) 0.61978(11)
H3A H 0.7463 0.5552 0.5870
C4A C 0.4259(2) 0.69601(13) 0.68780(12)
H4A H 0.3847 0.7688 0.6989
C5A C 0.5391(2) 0.47890(12) 0.65337(12)
C6A C 0.5820(2) 0.67854(12) 0.63717(11)
O6A O 0.71194(15) 0.32298(9) 0.59827(9)
O7A O 0.42059(17) 0.35897(11) 0.90277(10)
H5A H 0.3755 0.3169 0.9452
C7A C 0.5751(2) 0.35285(12) 0.63957(12)
H8A H 0.525(4) 0.352(2) 0.897(2)
H9B H -0.240(4) 1.158(2) 0.941(2)
H10B H -0.069(3) 0.969(2) 1.199(2)
O8 O 0.02584(17) 0.96743(11) 0.64958(10)
H6 H -0.015(3) 0.909(2) 0.6259(19)
H7 H 0.114(4) 0.976(2) 0.621(2)
loop_
_geom_bond_atom_site_label_1
_geom_bond_atom_site_label_2
_geom_bond_site_symmetry_1
_geom_bond_site_symmetry_2
Ni1 O5 1_555 1_555
Ni2 O1 1_555 1_555
O1 C2 1_555 1_555
O2 Ni2 1_555 1_555
H1 O2 1_555 1_555
O3 C2 1_555 1_555
O4 Ni2 1_555 1_555
H2 O4 1_555 1_555
O5 C7 1_555 1_555
C1 N1 1_555 1_555
N1 Ni1 1_555 1_555
C2 C6 1_555 1_555
C3 H3 1_555 1_555
C4 C1 1_555 1_555
H4 C4 1_555 1_555
C5 N1 1_555 1_555
C6 C3 1_555 1_555
O6 C7 1_555 1_555
O7 Ni1 1_555 1_555
H5 O7 1_555 1_555
C7 C5 1_555 1_555
O8 H6 1_555 1_555
H7 O8 1_555 1_555
H8 O7 1_555 1_555
H9 O4 1_555 1_555
H10 O2 1_555 1_555
Ni2A O1A 1_555 1_555
O1A C2A 1_555 1_555
O1B Ni2 1_555 1_555
O2B Ni2 1_555 1_555
H1B O2B 1_555 1_555
O3A C2A 1_555 1_555
O4B Ni2 1_555 1_555
H2B O4B 1_555 1_555
O5A Ni1 1_555 1_555
C1A C1 1_555 1_555
N1A Ni1 1_555 1_555
C2A C6A 1_555 1_555
C3A H3A 1_555 1_555
C4A C1A 1_555 1_555
H4A C4A 1_555 1_555
C5A N1A 1_555 1_555
C6A C3A 1_555 1_555
O6A C7A 1_555 1_555
O7A Ni1 1_555 1_555
H5A O7A 1_555 1_555
C7A O5A 1_555 1_555
H8A O7A 1_555 1_555
H9B O4B 1_555 1_555
H10B O2B 1_555 1_555
C3 C5 1_555 1_555
C4 C6 1_555 1_555
C1A N1A 1_555 1_555
C3A C5A 1_555 1_555
C4A C6A 1_555 1_555
C5A C7A 1_555 1_555

#END
