
#######################################################################
#
#                 Cambridge Crystallographic Data Centre
#                                CCDC 
#
#######################################################################
#
# If this CIF has been generated from an entry in the Cambridge 
# Structural Database, then it will include bibliographic, chemical, 
# crystal, experimental, refinement or atomic coordinate data resulting 
# from the CCDC's data processing and validation procedures.
#
#######################################################################

data_BENJAH01
_symmetry_cell_setting           triclinic
_symmetry_space_group_name_H-M   'P -1'
_symmetry_Int_Tables_number      2
_space_group_name_Hall           '-P 1'
loop_
_symmetry_equiv_pos_site_id
_symmetry_equiv_pos_as_xyz
1 x,y,z
2 -x,-y,-z
_cell_length_a                   8.8660(18)
_cell_length_b                   8.9112(18)
_cell_length_c                   12.525(3)
_cell_angle_alpha                88.41(3)
_cell_angle_beta                 69.38(3)
_cell_angle_gamma                66.95(3)
_cell_volume                     845.225
loop_
_atom_site_label
_atom_site_type_symbol
_atom_site_fract_x
_atom_site_fract_y
_atom_site_fract_z
Cu1 Cu 0.61586(3) 0.51028(3) 0.29698(2)
O1 O 0.9391(2) 0.2285(2) 0.26104(15)
O2 O 0.65491(19) 0.30045(17) 0.36794(12)
O3 O 1.3430(2) -0.3098(2) 0.33775(14)
O4 O 1.1972(2) -0.4455(2) 0.45179(17)
O5 O 0.6176(2) 0.6208(2) 0.42998(13)
O6 O 1.03046(18) -0.06051(17) 0.35242(12)
N1 N 0.6301(2) 0.4090(2) 0.15292(15)
N2 N 0.7238(2) 0.6416(2) 0.18494(15)
C1 C 0.8187(3) 0.2013(2) 0.33236(17)
C2 C 0.8567(3) 0.0460(2) 0.38402(16)
C3 C 0.8661(3) -0.1693(3) 0.4790(2)
H1 H 0.8325 -0.2409 0.5275
C4 C 1.0325(3) -0.1915(2) 0.41202(17)
C5 C 1.2065(3) -0.3260(3) 0.39870(19)
C6 C 0.7041(3) 0.4658(3) 0.05592(17)
C7 C 0.7518(3) 0.6011(3) 0.07474(17)
C8 C 0.7306(3) 0.3991(3) -0.05087(19)
H2 H 0.7831 0.4380 -0.1172
C9 C 0.7656(3) 0.7612(3) 0.21033(19)
H3 H 0.7468 0.7882 0.2865
C10 C 0.7528(3) -0.0152(3) 0.46053(19)
H4 H 0.6303 0.0340 0.4948
C11 C 0.5779(3) 0.2889(3) 0.1459(2)
H5 H 0.5255 0.2517 0.2132
C12 C 0.8206(3) 0.6829(3) -0.01222(19)
H6 H 0.8380 0.6549 -0.0879
C13 C 0.8357(3) 0.8459(3) 0.1277(2)
H7 H 0.8641 0.9284 0.1475
C14 C 0.6785(4) 0.2742(3) -0.0579(2)
H8 H 0.6961 0.2276 -0.1291
C15 C 0.8627(3) 0.8060(3) 0.0152(2)
H9 H 0.9092 0.8619 -0.0420
C16 C 0.5997(4) 0.2184(3) 0.0417(2)
H10 H 0.5622 0.1353 0.0385
H11 H 0.676(4) 0.565(4) 0.454(2)
H12 H 0.519(4) 0.660(4) 0.483(3)
Cu1_2 Cu 1.61586(3) -0.48972(3) 0.29698(2)
O3_2 O 0.3430(2) 0.6902(2) 0.33775(14)
O7 O 0.1098(5) 0.4237(5) 0.2840(2)
H13 H 0.108(5) 0.457(5) 0.339(4)
H14 H 0.054(7) 0.374(6) 0.296(4)
O8 O 0.3657(5) 0.0101(5) 0.2206(3)
H15 H 0.340(6) -0.051(6) 0.253(4)
H16 H 0.299(7) 0.091(6) 0.235(4)
loop_
_geom_bond_atom_site_label_1
_geom_bond_atom_site_label_2
_geom_bond_site_symmetry_1
_geom_bond_site_symmetry_2
Cu1 O2 1_555 1_555
O1 C1 1_555 1_555
O2 C1 1_555 1_555
O3 C5 1_555 1_555
O4 C5 1_555 1_555
O5 Cu1 1_555 1_555
O6 C2 1_555 1_555
N1 Cu1 1_555 1_555
N2 Cu1 1_555 1_555
C1 C2 1_555 1_555
C2 C10 1_555 1_555
C3 H1 1_555 1_555
C4 O6 1_555 1_555
C5 C4 1_555 1_555
C6 N1 1_555 1_555
C7 N2 1_555 1_555
C8 C6 1_555 1_555
H2 C8 1_555 1_555
C9 N2 1_555 1_555
H3 C9 1_555 1_555
C10 C3 1_555 1_555
H4 C10 1_555 1_555
C11 N1 1_555 1_555
H5 C11 1_555 1_555
C12 C7 1_555 1_555
H6 C12 1_555 1_555
C13 C9 1_555 1_555
H7 C13 1_555 1_555
C14 C8 1_555 1_555
H8 C14 1_555 1_555
C15 C12 1_555 1_555
H9 C15 1_555 1_555
C16 C11 1_555 1_555
H10 C16 1_555 1_555
H11 O5 1_555 1_555
H12 O5 1_555 1_555
O7 H13 1_555 1_555
H14 O7 1_555 1_555
O8 H15 1_555 1_555
H16 O8 1_555 1_555
Cu1_2 O3 1_555 1_555
O3_2 Cu1 1_555 1_555
C3 C4 1_555 1_555
C6 C7 1_555 1_555
C13 C15 1_555 1_555
C14 C16 1_555 1_555

#END
