
#######################################################################
#
#                 Cambridge Crystallographic Data Centre
#                                CCDC 
#
#######################################################################
#
# If this CIF has been generated from an entry in the Cambridge 
# Structural Database, then it will include bibliographic, chemical, 
# crystal, experimental, refinement or atomic coordinate data resulting 
# from the CCDC's data processing and validation procedures.
#
#######################################################################

data_BENKOW
_symmetry_cell_setting           orthorhombic
_symmetry_space_group_name_H-M   'P c a 21'
_symmetry_Int_Tables_number      29
_space_group_name_Hall           'P 2c -2ac'
loop_
_symmetry_equiv_pos_site_id
_symmetry_equiv_pos_as_xyz
1 x,y,z
2 -x,-y,1/2+z
3 1/2+x,-y,z
4 1/2-x,y,1/2+z
_cell_length_a                   8.5467(13)
_cell_length_b                   8.4344(12)
_cell_length_c                   8.9674(13)
_cell_angle_alpha                90
_cell_angle_beta                 90
_cell_angle_gamma                90
_cell_volume                     646.427
loop_
_atom_site_label
_atom_site_type_symbol
_atom_site_fract_x
_atom_site_fract_y
_atom_site_fract_z
Zn1 Zn 0.832301(12) 0.167666(13) 0.51177(2)
P1 P 0.94990(3) 0.03491(3) 0.21240(3)
O1 O 0.84382(9) 0.01275(12) 0.34886(10)
O2 O 1.00560(10) -0.12805(10) 0.16133(10)
O3 O 0.87260(11) 0.13060(13) 0.09170(11)
O4 O 1.09420(9) 0.13727(12) 0.26275(11)
H1 H 1.1612 0.0792 0.2988
N1 N 0.85494(13) 0.39236(14) 0.44809(12)
N2 N 0.7928(2) 0.50750(18) 0.54065(17)
N3 N 0.90713(16) 0.62060(15) 0.35052(15)
H2 H 0.9420 0.6926 0.2913
C1 C 0.8267(2) 0.6419(2) 0.4777(2)
H3 H 0.7988 0.7405 0.5158
C2 C 0.9214(2) 0.46424(18) 0.33568(19)
H4 H 0.9715 0.4136 0.2568
Zn1A Zn 1.167699(12) -0.167666(13) 0.01177(2)
Zn1C Zn 0.667699(12) 0.167666(13) 0.01177(2)
O2A O 0.99440(10) 0.12805(10) 0.66133(10)
O3C O 0.62740(11) 0.13060(13) 0.59170(11)
loop_
_geom_bond_atom_site_label_1
_geom_bond_atom_site_label_2
_geom_bond_site_symmetry_1
_geom_bond_site_symmetry_2
Zn1 O1 1_555 1_555
P1 O1 1_555 1_555
O2 P1 1_555 1_555
O3 P1 1_555 1_555
O4 P1 1_555 1_555
H1 O4 1_555 1_555
N1 Zn1 1_555 1_555
N2 N1 1_555 1_555
N3 H2 1_555 1_555
C1 N2 1_555 1_555
H3 C1 1_555 1_555
C2 N1 1_555 1_555
H4 C2 1_555 1_555
Zn1A O2 1_555 1_555
Zn1C O3 1_555 1_555
O2A Zn1 1_555 1_555
O3C Zn1 1_555 1_555
N3 C1 1_555 1_555
N3 C2 1_555 1_555

#END
