
#######################################################################
#
#                 Cambridge Crystallographic Data Centre
#                                CCDC 
#
#######################################################################
#
# If this CIF has been generated from an entry in the Cambridge 
# Structural Database, then it will include bibliographic, chemical, 
# crystal, experimental, refinement or atomic coordinate data resulting 
# from the CCDC's data processing and validation procedures.
#
#######################################################################

data_BENNIR
_symmetry_cell_setting           monoclinic
_symmetry_space_group_name_H-M   'P 21/n'
_symmetry_Int_Tables_number      14
_space_group_name_Hall           '-P 2yn'
loop_
_symmetry_equiv_pos_site_id
_symmetry_equiv_pos_as_xyz
1 x,y,z
2 1/2+x,1/2-y,1/2+z
3 -x,-y,-z
4 1/2-x,1/2+y,1/2-z
_cell_length_a                   13.0326(14)
_cell_length_b                   15.810(2)
_cell_length_c                   18.144(3)
_cell_angle_alpha                90
_cell_angle_beta                 99.945(9)
_cell_angle_gamma                90
_cell_volume                     3682.31
loop_
_atom_site_label
_atom_site_type_symbol
_atom_site_fract_x
_atom_site_fract_y
_atom_site_fract_z
Pb1 Pb 0.328360(10) -0.117090(8) 0.241430(7)
B1 B 0.3071(4) -0.1335(3) 0.4607(2)
H1 H 0.3536(4) -0.1811(3) 0.4533(2)
H2 H 0.2996(4) -0.1323(3) 0.5141(2)
B2 B 0.3313(3) -0.1389(3) 0.0231(2)
H3 H 0.2796(3) -0.1807(3) 0.0341(2)
H4 H 0.3334(3) -0.1411(3) -0.0312(2)
N1 N 0.1147(2) -0.1576(2) 0.1813(2)
C1 C 0.0458(3) -0.1557(2) 0.2286(2)
C2 C -0.0609(3) -0.1529(3) 0.2011(2)
H5 H -0.1070(3) -0.1496(3) 0.2362(2)
N2 N -0.1018(3) -0.1546(2) 0.1288(2)
C3 C -0.0320(3) -0.1571(3) 0.0823(2)
H6 H -0.0566(3) -0.1586(3) 0.0299(2)
C4 C 0.0741(3) -0.1576(3) 0.1078(2)
H7 H 0.1199(3) -0.1580(3) 0.0724(2)
N3 N 0.1870(2) -0.1427(2) 0.3350(2)
N4 N 0.1990(2) -0.1461(2) 0.4109(2)
C5 C 0.1059(3) -0.1635(3) 0.4311(2)
H8 H 0.0940(3) -0.1691(3) 0.4811(2)
C6 C 0.0320(3) -0.1717(3) 0.3684(2)
H9 H -0.0398(3) -0.1841(3) 0.3657(2)
C7 C 0.0853(3) -0.1577(2) 0.3090(2)
N5 N 0.3963(2) -0.0426(2) 0.3759(2)
N6 N 0.3547(2) -0.0491(2) 0.4394(2)
C8 C 0.3670(3) 0.0253(3) 0.4775(2)
H10 H 0.3442(3) 0.0367(3) 0.5235(2)
C9 C 0.4179(3) 0.0815(3) 0.4385(2)
H11 H 0.4374(3) 0.1382(3) 0.4516(2)
C10 C 0.4346(3) 0.0365(2) 0.3749(2)
N7 N 0.4652(2) 0.0172(2) 0.2492(2)
C11 C 0.4849(3) 0.0632(2) 0.3124(2)
C12 C 0.5504(3) 0.1331(2) 0.3174(2)
H12 H 0.5631(3) 0.1638(2) 0.3630(2)
N8 N 0.5961(3) 0.1589(2) 0.2612(2)
C13 C 0.5746(3) 0.1138(3) 0.1984(2)
H13 H 0.6041(3) 0.1308(3) 0.1563(2)
C14 C 0.5112(3) 0.0435(3) 0.1922(2)
H14 H 0.4996(3) 0.0127(3) 0.1465(2)
N9 N 0.5373(2) -0.1753(2) 0.2956(2)
C15 C 0.5998(3) -0.1928(2) 0.2460(2)
C16 C 0.7027(3) -0.2164(3) 0.2705(2)
H15 H 0.7442(3) -0.2306(3) 0.2341(2)
N10 N 0.7464(3) -0.2200(2) 0.3424(2)
C17 C 0.6834(3) -0.2016(3) 0.3911(2)
H16 H 0.7105(3) -0.2029(3) 0.4432(2)
C18 C 0.5806(3) -0.1809(3) 0.3677(2)
H17 H 0.5385(3) -0.1701(3) 0.4044(2)
N11 N 0.4551(2) -0.1684(2) 0.1441(2)
N12 N 0.4401(2) -0.1601(2) 0.0684(2)
C19 C 0.5318(3) -0.1711(3) 0.0441(2)
H18 H 0.5416(3) -0.1685(3) -0.0065(2)
C20 C 0.6082(3) -0.1865(3) 0.1047(2)
H19 H 0.6801(3) -0.1969(3) 0.1048(2)
C21 C 0.5571(3) -0.1838(2) 0.1664(2)
N13 N 0.2752(2) -0.0333(2) 0.1130(2)
N14 N 0.2997(2) -0.0491(2) 0.0448(2)
C22 C 0.2938(3) 0.0233(3) 0.0046(2)
H20 H 0.3072(3) 0.0285(3) -0.0450(2)
C23 C 0.2653(3) 0.0877(3) 0.0470(2)
H21 H 0.2552(3) 0.1455(3) 0.0334(2)
C24 C 0.2543(3) 0.0497(2) 0.1152(2)
N15 N 0.2195(2) 0.0339(2) 0.2400(2)
C25 C 0.2249(3) 0.0864(2) 0.1823(2)
C26 C 0.2061(3) 0.1724(2) 0.1883(2)
H22 H 0.2126(3) 0.2082(2) 0.1474(2)
N16 N 0.1793(3) 0.2063(2) 0.2494(2)
C27 C 0.1701(3) 0.1533(3) 0.3058(2)
H23 H 0.1495(3) 0.1749(3) 0.3499(2)
C28 C 0.1902(3) 0.0677(3) 0.3006(2)
H24 H 0.1829(3) 0.0318(3) 0.3415(2)
N16C N 0.3207(3) -0.2937(2) 0.2506(2)
Pb1C Pb 0.171640(10) 0.382910(8) 0.258570(7)
O1 O -0.0749(3) 0.0621(3) 0.2498(2)
C29 C -0.0573(5) 0.0749(4) 0.1237(3)
H25 H -0.0955(7) 0.0709(26) 0.0723(3)
H26 H -0.0035(19) 0.0310(16) 0.1321(16)
H27 H -0.0246(24) 0.1308(11) 0.1315(16)
C30 C -0.1296(5) 0.0632(4) 0.1762(3)
H28 H -0.1812(5) 0.1098(4) 0.1703(3)
H29 H -0.1678(5) 0.0092(4) 0.1652(3)
C31 C -0.1384(6) 0.0499(5) 0.3040(4)
H30 H -0.1732(6) -0.0059(5) 0.2966(4)
H31 H -0.1930(6) 0.0942(5) 0.2989(4)
C32 C -0.0737(6) 0.0542(5) 0.3799(4)
H32 H -0.1156(14) 0.0369(33) 0.4173(5)
H33 H -0.0490(35) 0.1123(9) 0.3901(13)
H34 H -0.0138(24) 0.0162(26) 0.3822(10)
loop_
_geom_bond_atom_site_label_1
_geom_bond_atom_site_label_2
_geom_bond_site_symmetry_1
_geom_bond_site_symmetry_2
Pb1 N1 1_555 1_555
B1 H1 1_555 1_555
H2 B1 1_555 1_555
B2 H3 1_555 1_555
H4 B2 1_555 1_555
N1 C1 1_555 1_555
C1 C2 1_555 1_555
C2 H5 1_555 1_555
N2 C2 1_555 1_555
C3 N2 1_555 1_555
H6 C3 1_555 1_555
C4 N1 1_555 1_555
H7 C4 1_555 1_555
N3 Pb1 1_555 1_555
N4 B1 1_555 1_555
C5 N4 1_555 1_555
H8 C5 1_555 1_555
C6 C5 1_555 1_555
H9 C6 1_555 1_555
C7 C1 1_555 1_555
N5 Pb1 1_555 1_555
N6 B1 1_555 1_555
C8 N6 1_555 1_555
H10 C8 1_555 1_555
C9 C8 1_555 1_555
H11 C9 1_555 1_555
C10 N5 1_555 1_555
N7 Pb1 1_555 1_555
C11 C10 1_555 1_555
C12 C11 1_555 1_555
H12 C12 1_555 1_555
N8 C12 1_555 1_555
C13 N8 1_555 1_555
H13 C13 1_555 1_555
C14 N7 1_555 1_555
H14 C14 1_555 1_555
N9 Pb1 1_555 1_555
C15 N9 1_555 1_555
C16 C15 1_555 1_555
H15 C16 1_555 1_555
N10 C16 1_555 1_555
C17 N10 1_555 1_555
H16 C17 1_555 1_555
C18 N9 1_555 1_555
H17 C18 1_555 1_555
N11 Pb1 1_555 1_555
N12 B2 1_555 1_555
C19 N12 1_555 1_555
H18 C19 1_555 1_555
C20 C19 1_555 1_555
H19 C20 1_555 1_555
C21 C15 1_555 1_555
N13 Pb1 1_555 1_555
N14 B2 1_555 1_555
C22 N14 1_555 1_555
H20 C22 1_555 1_555
C23 C22 1_555 1_555
H21 C23 1_555 1_555
C24 N13 1_555 1_555
N15 Pb1 1_555 1_555
C25 C24 1_555 1_555
C26 C25 1_555 1_555
H22 C26 1_555 1_555
N16 C26 1_555 1_555
C27 N16 1_555 1_555
H23 C27 1_555 1_555
C28 N15 1_555 1_555
H24 C28 1_555 1_555
O1 C30 1_555 1_555
C29 H25 1_555 1_555
H26 C29 1_555 1_555
H27 C29 1_555 1_555
C30 C29 1_555 1_555
H28 C30 1_555 1_555
H29 C30 1_555 1_555
C31 O1 1_555 1_555
H30 C31 1_555 1_555
H31 C31 1_555 1_555
C32 C31 1_555 1_555
H32 C32 1_555 1_555
H33 C32 1_555 1_555
H34 C32 1_555 1_555
N16C Pb1 1_555 1_555
Pb1C N16 1_555 1_555
C3 C4 1_555 1_555
N3 C7 1_555 1_555
N3 N4 1_555 1_555
C6 C7 1_555 1_555
N5 N6 1_555 1_555
C9 C10 1_555 1_555
N7 C11 1_555 1_555
C13 C14 1_555 1_555
C17 C18 1_555 1_555
N11 C21 1_555 1_555
N11 N12 1_555 1_555
C20 C21 1_555 1_555
N13 N14 1_555 1_555
C23 C24 1_555 1_555
N15 C25 1_555 1_555
C27 C28 1_555 1_555

#END
