
#######################################################################
#
#                 Cambridge Crystallographic Data Centre
#                                CCDC 
#
#######################################################################
#
# If this CIF has been generated from an entry in the Cambridge 
# Structural Database, then it will include bibliographic, chemical, 
# crystal, experimental, refinement or atomic coordinate data resulting 
# from the CCDC's data processing and validation procedures.
#
#######################################################################

data_BENPOA
_symmetry_cell_setting           monoclinic
_symmetry_space_group_name_H-M   'C 2/c'
_symmetry_Int_Tables_number      15
_space_group_name_Hall           '-C 2yn'
loop_
_symmetry_equiv_pos_site_id
_symmetry_equiv_pos_as_xyz
1 x,y,z
2 1/2+x,1/2+y,z
3 x,-y,1/2+z
4 1/2+x,1/2-y,1/2+z
5 -x,-y,-z
6 1/2-x,1/2-y,-z
7 -x,y,1/2-z
8 1/2-x,1/2+y,1/2-z
_cell_length_a                   20.074(3)
_cell_length_b                   5.1223(10)
_cell_length_c                   21.680(4)
_cell_angle_alpha                90
_cell_angle_beta                 111.658(12)
_cell_angle_gamma                90
_cell_volume                     2071.87
loop_
_atom_site_label
_atom_site_type_symbol
_atom_site_fract_x
_atom_site_fract_y
_atom_site_fract_z
Rb1 Rb 0.406277(17) 0.35430(7) 0.283147(16)
C1 C 0.63865(15) 0.1538(7) 0.51439(14)
C2 C 0.71122(15) 0.3778(6) 0.61253(14)
C3 C 0.76162(15) 0.0508(7) 0.57371(14)
C4 C 0.52038(17) 0.2210(8) 0.45165(15)
C5 C 0.77206(16) 0.6075(6) 0.70356(16)
C6 C 0.87792(17) -0.0766(7) 0.62065(15)
N1 N 0.64643(13) 0.3387(6) 0.56050(12)
H1 H 0.6052(15) 0.450(7) 0.559(2)
N2 N 0.76859(13) 0.2301(6) 0.61955(12)
N3 N 0.69779(13) 0.0109(6) 0.52171(12)
H2 H 0.6922(17) -0.128(5) 0.4883(12)
N4 N 0.58121(13) 0.0964(6) 0.46342(13)
N5 N 0.71096(14) 0.5719(6) 0.65216(13)
N6 N 0.81394(13) -0.1059(6) 0.57199(13)
N7 N 0.46477(15) 0.3133(8) 0.43592(15)
N8 N 0.82179(16) 0.6536(6) 0.75011(16)
N9 N 0.93481(14) -0.0657(7) 0.65983(15)
O1 O 0.5000 0.0016(8) 0.2500
H3 H 0.5235 -0.1236 0.2866
H3F H 0.4765 -0.1236 0.2134
C1C C 0.13865(15) 0.3462(7) 0.01439(14)
C2C C 0.21122(15) 0.1222(6) 0.11253(14)
C3C C 0.26162(15) 0.4492(7) 0.07371(14)
C4C C 0.02038(17) 0.2790(8) -0.04835(15)
C5C C 0.27206(16) -0.1075(6) 0.20356(16)
C6C C 0.37792(17) 0.5766(7) 0.12065(15)
N1C N 0.14643(13) 0.1613(6) 0.06050(12)
H1C H 0.1052(15) 0.050(7) 0.059(2)
N2C N 0.26859(13) 0.2699(6) 0.11955(12)
N3C N 0.19779(13) 0.4891(6) 0.02171(12)
H2C H 0.1922(17) 0.628(5) -0.0117(12)
N4C N 0.08121(13) 0.4036(6) -0.03658(13)
N5C N 0.21096(14) -0.0719(6) 0.15216(13)
N6C N 0.31394(13) 0.6059(6) 0.07199(13)
N7C N -0.03523(15) 0.1867(8) -0.06408(15)
N8C N 0.32179(16) -0.1536(6) 0.25011(16)
N9C N 0.43481(14) 0.5657(7) 0.15983(15)
Rb1C Rb -0.093723(17) 0.14570(7) -0.216853(16)
Rb1F Rb 0.593723(17) 0.35430(7) 0.216853(16)
N5D N 0.28904(14) 0.4281(6) 0.34784(13)
N8C_2 N 0.32179(16) 0.8464(6) 0.25011(16)
N9E N 0.56519(14) 0.5657(7) 0.34017(15)
Rb1C_2 Rb 0.906277(17) 0.14570(7) 0.783147(16)
Rb1D Rb 0.593723(17) 0.64570(7) 0.716853(16)
Rb1C_3 Rb 0.906277(17) 1.14570(7) 0.783147(16)
Rb1E Rb 1.093723(17) 0.14570(7) 0.716853(16)
Rb1G Rb 0.093723(17) -0.14570(7) 0.216853(16)
Rb1_2 Rb 0.406277(17) -0.64570(7) 0.283147(16)
Rb1C_4 Rb -0.093723(17) -0.85430(7) -0.216853(16)
Rb1C_5 Rb -0.093723(17) 1.14570(7) -0.216853(16)
Rb1E_2 Rb 0.093723(17) 0.14570(7) -0.283147(16)
N2_2 N -0.23141(13) 0.2301(6) -0.38045(12)
N5G N -0.21096(14) 0.0719(6) -0.15216(13)
N8_2 N -0.17821(16) -0.3464(6) -0.24989(16)
N8_3 N -0.17821(16) 0.6536(6) -0.24989(16)
N9_2 N -0.06519(14) -0.0657(7) -0.34017(15)
N9F N 0.06519(14) -0.0657(7) -0.15983(15)
O1C O 0.0000 0.4984(8) -0.2500
H3C H 0.0235 0.6236 -0.2134
H3E H -0.0235 0.6236 -0.2866
loop_
_geom_bond_atom_site_label_1
_geom_bond_atom_site_label_2
_geom_bond_site_symmetry_1
_geom_bond_site_symmetry_2
Rb1 N7 1_555 1_555
C1 N1 1_555 1_555
C2 N1 1_555 1_555
C3 N2 1_555 1_555
C4 N4 1_555 1_555
C5 N5 1_555 1_555
C6 N6 1_555 1_555
N1 H1 1_555 1_555
N2 C2 1_555 1_555
N3 C1 1_555 1_555
H2 N3 1_555 1_555
N4 C1 1_555 1_555
N5 C2 1_555 1_555
N6 C3 1_555 1_555
N7 C4 1_555 1_555
N8 C5 1_555 1_555
N9 C6 1_555 1_555
O1 Rb1 1_555 1_555
H3 O1 1_555 1_555
H3F O1 1_555 1_555
C1C N1C 1_555 1_555
C2C N1C 1_555 1_555
C3C N2C 1_555 1_555
C4C N4C 1_555 1_555
C5C N5C 1_555 1_555
C6C N6C 1_555 1_555
N1C H1C 1_555 1_555
N2C Rb1 1_555 1_555
N3C C1C 1_555 1_555
H2C N3C 1_555 1_555
N4C C1C 1_555 1_555
N5C C2C 1_555 1_555
N6C C3C 1_555 1_555
N7C C4C 1_555 1_555
N8C Rb1 1_555 1_555
N9C Rb1 1_555 1_555
Rb1C N7C 1_555 1_555
Rb1F O1 1_555 1_555
N5D Rb1 1_555 1_555
N8C_2 Rb1 1_555 1_555
N9E Rb1 1_555 1_555
Rb1C_2 N2 1_555 1_555
Rb1D N5 1_555 1_555
Rb1C_3 N8 1_555 1_555
Rb1E N9 1_555 1_555
Rb1G N5C 1_555 1_555
Rb1_2 N8C 1_555 1_555
Rb1C_4 N8_2 1_555 1_555
Rb1C_5 N8_3 1_555 1_555
Rb1E_2 N9_2 1_555 1_555
N2_2 Rb1C 1_555 1_555
N5G Rb1C 1_555 1_555
N8_2 Rb1C 1_555 1_555
N8_3 Rb1C 1_555 1_555
N9_2 Rb1C 1_555 1_555
N9F Rb1C 1_555 1_555
O1C Rb1C 1_555 1_555
H3C O1C 1_555 1_555
H3E O1C 1_555 1_555
C3 N3 1_555 1_555
N8 Rb1C_2 1_555 1_555
N9 Rb1C_2 1_555 1_555
C2C N2C 1_555 1_555
C3C N3C 1_555 1_555
C5C N8C 1_555 1_555
C6C N9C 1_555 1_555
N9C Rb1F 1_555 1_555
Rb1F N9E 1_555 1_555
Rb1E_2 N9F 1_555 1_555
Rb1E_2 O1C 1_555 1_555

#END
