
#######################################################################
#
#                 Cambridge Crystallographic Data Centre
#                                CCDC 
#
#######################################################################
#
# If this CIF has been generated from an entry in the Cambridge 
# Structural Database, then it will include bibliographic, chemical, 
# crystal, experimental, refinement or atomic coordinate data resulting 
# from the CCDC's data processing and validation procedures.
#
#######################################################################

data_BENQUH
_symmetry_cell_setting           monoclinic
_symmetry_space_group_name_H-M   'P 21/n'
_symmetry_Int_Tables_number      14
_space_group_name_Hall           '-P 2yn'
loop_
_symmetry_equiv_pos_site_id
_symmetry_equiv_pos_as_xyz
1 x,y,z
2 1/2+x,1/2-y,1/2+z
3 -x,-y,-z
4 1/2-x,1/2+y,1/2-z
_cell_length_a                   5.2220(10)
_cell_length_b                   15.519(3)
_cell_length_c                   8.883(2)
_cell_angle_alpha                90
_cell_angle_beta                 90.63(3)
_cell_angle_gamma                90
_cell_volume                     719.837
loop_
_atom_site_label
_atom_site_type_symbol
_atom_site_fract_x
_atom_site_fract_y
_atom_site_fract_z
Zn1 Zn 0.10060(9) 0.69190(3) 0.37912(5)
P1 P 0.6002(2) 0.70636(7) 0.56793(12)
O1 O 0.3203(5) 0.73107(18) 0.5434(3)
O2 O 0.7216(5) 0.76176(18) 0.6902(3)
O3 O 0.7468(5) 0.71630(18) 0.4208(3)
O4 O 1.1300(6) 0.45811(19) 0.7896(4)
O5 O 0.8026(6) 0.42871(18) 0.6405(3)
C1 C 0.6246(8) 0.5954(3) 0.6234(5)
H1 H 0.4804 0.5811 0.6847
H2 H 0.6168 0.5599 0.5350
C2 C 0.8688(8) 0.5749(3) 0.7103(5)
H3 H 0.8510 0.5955 0.8115
H4 H 1.0074 0.6060 0.6656
C3 C 0.9405(8) 0.4800(3) 0.7165(5)
Na1 Na 0.0950(3) 0.84494(12) 0.6730(2)
O6 O -0.1355(7) 0.9118(2) 0.4777(4)
O2A O 0.2216(5) 0.73824(18) 0.1902(3)
O3_2 O -0.2532(5) 0.71630(18) 0.4208(3)
O5B O 0.1974(6) 0.57129(18) 0.3595(3)
Na1A Na -0.4050(3) 0.65506(12) 0.1730(2)
Na1A_2 Na 0.5950(3) 0.65506(12) 0.1730(2)
Zn1A Zn 0.60060(9) 0.80810(3) 0.87912(5)
Na1_2 Na 1.0950(3) 0.84494(12) 0.6730(2)
Zn1_2 Zn 1.10060(9) 0.69190(3) 0.37912(5)
Na1C Na 1.4050(3) 0.34494(12) 0.8270(2)
Zn1B Zn 0.89940(9) 0.30810(3) 0.62088(5)
Zn1A_2 Zn -0.39940(9) 0.80810(3) 0.87912(5)
O2_2 O -0.2784(5) 0.76176(18) 0.6902(3)
O3A O 0.2468(5) 0.78370(18) 0.9208(3)
O4C O 0.3700(6) 0.95811(19) 0.7104(4)
loop_
_geom_bond_atom_site_label_1
_geom_bond_atom_site_label_2
_geom_bond_site_symmetry_1
_geom_bond_site_symmetry_2
Zn1 O1 1_555 1_555
P1 O1 1_555 1_555
O1 Na1 1_555 1_555
O2 P1 1_555 1_555
O3 P1 1_555 1_555
O4 C3 1_555 1_555
O5 C3 1_555 1_555
C1 P1 1_555 1_555
H1 C1 1_555 1_555
H2 C1 1_555 1_555
C2 C1 1_555 1_555
H3 C2 1_555 1_555
H4 C2 1_555 1_555
C3 C2 1_555 1_555
Na1 O6 1_555 1_555
O2A Zn1 1_555 1_555
O3_2 Zn1 1_555 1_555
O5B Zn1 1_555 1_555
Na1A O3_2 1_555 1_555
Na1A_2 O3 1_555 1_555
Zn1A O2 1_555 1_555
Na1_2 O2 1_555 1_555
Zn1_2 O3 1_555 1_555
Na1C O4 1_555 1_555
Zn1B O5 1_555 1_555
Zn1A_2 O2_2 1_555 1_555
O2_2 Na1 1_555 1_555
O3A Na1 1_555 1_555
O4C Na1 1_555 1_555
O2A Na1A_2 1_555 1_555
Zn1A O3A 1_555 1_555

#END
