
#######################################################################
#
#                 Cambridge Crystallographic Data Centre
#                                CCDC 
#
#######################################################################
#
# If this CIF has been generated from an entry in the Cambridge 
# Structural Database, then it will include bibliographic, chemical, 
# crystal, experimental, refinement or atomic coordinate data resulting 
# from the CCDC's data processing and validation procedures.
#
#######################################################################

data_BENXAV
_symmetry_cell_setting           triclinic
_symmetry_space_group_name_H-M   'P -1'
_symmetry_Int_Tables_number      2
_space_group_name_Hall           '-P 1'
loop_
_symmetry_equiv_pos_site_id
_symmetry_equiv_pos_as_xyz
1 x,y,z
2 -x,-y,-z
_cell_length_a                   11.336(5)
_cell_length_b                   12.249(5)
_cell_length_c                   13.784(5)
_cell_angle_alpha                85.864(5)
_cell_angle_beta                 67.811(5)
_cell_angle_gamma                74.415(5)
_cell_volume                     1706.15
loop_
_atom_site_label
_atom_site_type_symbol
_atom_site_fract_x
_atom_site_fract_y
_atom_site_fract_z
Mn1 Mn 0.5000 0.0000 1.0000
Mn2 Mn 0.18207(10) 0.14439(8) 0.99381(8)
O1 O 0.1445(5) 0.0297(4) 1.1146(4)
O2 O 0.4191(5) 0.1771(4) 1.0623(4)
O3 O 0.3422(5) -0.0461(4) 1.1285(4)
N1 N -0.0251(5) 0.2387(5) 1.0162(4)
O4 O 0.2111(5) 0.2623(4) 1.0769(4)
N2 N -0.5564(5) 0.4593(5) 0.9437(5)
N3 N 0.2556(7) 0.2643(5) 0.8489(5)
N4 N -0.4407(6) 0.3971(5) 0.9452(5)
N5 N 0.6356(6) 0.4689(6) 0.4549(6)
C1 C -0.2646(6) 0.3698(5) 1.0083(5)
N6 N 0.5726(8) 0.4143(5) 0.5381(6)
C2 C 0.3776(9) 0.3858(6) 0.6709(6)
C3 C 0.4452(7) 0.3294(6) 0.7342(6)
H1 H 0.5325 0.3292 0.7185
C4 C -0.3910(6) 0.4407(6) 1.0020(6)
C5 C 0.3115(8) 0.2531(6) 1.1004(6)
C6 C 0.4412(9) 0.4453(6) 0.5805(6)
C7 C 0.2194(9) -0.0296(6) 1.1618(6)
C8 C -0.2205(7) 0.2546(6) 0.9824(6)
H2 H -0.2709 0.2189 0.9623
C9 C 0.2985(7) 0.3395(6) 1.1788(6)
C10 C -0.1000(7) 0.1931(6) 0.9869(6)
H3 H -0.0709 0.1162 0.9683
C11 C 0.3783(9) 0.2728(6) 0.8222(7)
H4 H 0.4238 0.2388 0.8650
C12 C 0.1507(8) -0.0803(7) 1.2590(7)
C13 C 0.1922(8) 0.3190(7) 0.7855(7)
H5 H 0.1065 0.3145 0.8006
C14 C -0.1871(7) 0.4174(6) 1.0399(6)
H6 H -0.2136 0.4942 1.0583
C15 C 0.3995(8) 0.3381(6) 1.2105(7)
H7 H 0.4800 0.2845 1.1808
C16 C -0.0678(7) 0.3490(7) 1.0442(7)
H8 H -0.0171 0.3813 1.0671
C17 C 0.2164(8) -0.1315(7) 1.3264(7)
H9 H 0.3046 -0.1332 1.3086
C18 C 0.2474(10) 0.3809(6) 0.7000(7)
H10 H 0.1973 0.4193 0.6620
C19 C 0.1818(8) 0.4259(8) 1.2204(7)
H11 H 0.1122 0.4299 1.1991
C20 C 0.3839(10) 0.4169(8) 1.2878(8)
H12 H 0.4521 0.4122 1.3110
C21 C 0.0225(10) -0.0867(9) 1.2870(8)
H13 H -0.0215 -0.0567 1.2423
C22 C 0.2676(12) 0.5004(9) 1.3286(8)
H14 H 0.2566 0.5524 1.3793
C23 C 0.1505(12) -0.1792(9) 1.4188(8)
H15 H 0.1956 -0.2089 1.4629
C24 C 0.1685(11) 0.5054(9) 1.2931(9)
H16 H 0.0910 0.5633 1.3181
C25 C 0.0219(13) -0.1848(11) 1.4487(9)
H17 H -0.0208 -0.2180 1.5102
C26 C -0.0426(10) -0.1341(12) 1.3754(9)
H18 H -0.1296 -0.1347 1.3904
O5 O 0.6178(4) -0.0297(3) 1.1030(4)
O6 O 0.7943(5) -0.0271(4) 1.1341(4)
C27 C 0.6700(8) 0.0004(5) 1.1620(6)
C28 C 0.5858(8) 0.0602(6) 1.2629(6)
C29 C 0.4514(9) 0.0683(7) 1.3046(7)
H19 H 0.4138 0.0414 1.2651
C30 C 0.6385(9) 0.1014(7) 1.3230(8)
H20 H 0.7280 0.0984 1.2959
C31 C 0.5600(13) 0.1481(9) 1.4245(9)
H21 H 0.5972 0.1732 1.4654
C32 C 0.3710(10) 0.1161(9) 1.4052(8)
H22 H 0.2811 0.1208 1.4325
C33 C 0.4278(15) 0.1556(10) 1.4618(8)
H23 H 0.3749 0.1888 1.5280
N1A N -0.9749(5) 0.7613(5) 0.9838(4)
N2A N -0.4436(5) 0.5407(5) 1.0563(5)
N4A N -0.5593(6) 0.6029(5) 1.0548(5)
C1A C -0.7354(6) 0.6302(5) 0.9917(5)
C4A C -0.6090(6) 0.5593(6) 0.9980(6)
C8A C -0.7795(7) 0.7454(6) 1.0176(6)
H2A H -0.7291 0.7811 1.0377
C10A C -0.9000(7) 0.8069(6) 1.0131(6)
H3A H -0.9291 0.8838 1.0317
C14A C -0.8129(7) 0.5826(6) 0.9601(6)
H6A H -0.7864 0.5058 0.9417
C16A C -0.9322(7) 0.6510(7) 0.9558(7)
H8A H -0.9829 0.6187 0.9329
N3A N 0.7444(7) 0.7357(5) 0.1511(5)
N5A N 0.3644(6) 0.5311(6) 0.5451(6)
N6A N 0.4274(8) 0.5857(5) 0.4619(6)
C2A C 0.6224(9) 0.6142(6) 0.3291(6)
C3A C 0.5548(7) 0.6706(6) 0.2658(6)
H1A H 0.4675 0.6708 0.2815
C6A C 0.5588(9) 0.5547(6) 0.4195(6)
C11A C 0.6217(9) 0.7272(6) 0.1778(7)
H4A H 0.5762 0.7612 0.1350
C13A C 0.8078(8) 0.6810(7) 0.2145(7)
H5A H 0.8935 0.6855 0.1994
C18A C 0.7526(10) 0.6191(6) 0.3000(7)
H10A H 0.8027 0.5807 0.3380
Mn2A Mn -1.18207(10) 0.85561(8) 1.00619(8)
O1A O -1.1445(5) 0.9703(4) 0.8854(4)
O2A O -1.4191(5) 0.8229(4) 0.9377(4)
O3A O -1.3422(5) 1.0461(4) 0.8715(4)
O4A O -1.2111(5) 0.7377(4) 0.9231(4)
C5A C -1.3115(8) 0.7469(6) 0.8996(6)
C7A C -1.2194(9) 1.0296(6) 0.8382(6)
C9A C -1.2985(7) 0.6605(6) 0.8212(6)
C12A C -1.1507(8) 1.0803(7) 0.7410(7)
C15A C -1.3995(8) 0.6619(6) 0.7895(7)
H7A H -1.4800 0.7155 0.8192
C17A C -1.2164(8) 1.1315(7) 0.6736(7)
H9A H -1.3046 1.1332 0.6914
C19A C -1.1818(8) 0.5741(8) 0.7796(7)
H11A H -1.1122 0.5701 0.8009
C20A C -1.3839(10) 0.5831(8) 0.7122(8)
H12A H -1.4521 0.5878 0.6890
C21A C -1.0225(10) 1.0867(9) 0.7130(8)
H13A H -0.9785 1.0567 0.7577
C22A C -1.2676(12) 0.4996(9) 0.6714(8)
H14A H -1.2566 0.4476 0.6207
C23A C -1.1505(12) 1.1792(9) 0.5812(8)
H15A H -1.1956 1.2089 0.5371
C24A C -1.1685(11) 0.4946(9) 0.7069(9)
H16A H -1.0910 0.4367 0.6819
C25A C -1.0219(13) 1.1848(11) 0.5513(9)
H17A H -0.9792 1.2180 0.4898
C26A C -0.9574(10) 1.1341(12) 0.6246(9)
H18A H -0.8704 1.1347 0.6096
O5A O 0.3822(4) 0.0297(3) 0.8970(4)
O6A O 0.2057(5) 0.0271(4) 0.8659(4)
C27A C 0.3300(8) -0.0004(5) 0.8380(6)
C28A C 0.4142(8) -0.0602(6) 0.7371(6)
C29A C 0.5486(9) -0.0683(7) 0.6954(7)
H19A H 0.5862 -0.0414 0.7349
C30A C 0.3615(9) -0.1014(7) 0.6770(8)
H20A H 0.2720 -0.0984 0.7041
C31A C 0.4400(13) -0.1481(9) 0.5755(9)
H21A H 0.4028 -0.1732 0.5346
C32A C 0.6290(10) -0.1161(9) 0.5948(8)
H22A H 0.7189 -0.1208 0.5675
C33A C 0.5722(15) -0.1556(10) 0.5382(8)
H23A H 0.6251 -0.1888 0.4720
Mn1_2 Mn -1.5000 1.0000 1.0000
Mn2A_2 Mn 0.81793(10) -0.14439(8) 1.00619(8)
Mn2A_3 Mn 0.81793(10) 0.85561(8) 0.00619(8)
O2A_2 O 0.5809(5) -0.1771(4) 0.9377(4)
O3A_2 O 0.6578(5) 0.0461(4) 0.8715(4)
N3A_2 N -1.2556(7) 0.7357(5) 1.1511(5)
O5_2 O -1.3822(4) 0.9703(3) 1.1030(4)
O6_2 O -1.2057(5) 0.9729(4) 1.1341(4)
loop_
_geom_bond_atom_site_label_1
_geom_bond_atom_site_label_2
_geom_bond_site_symmetry_1
_geom_bond_site_symmetry_2
Mn1 O2 1_555 1_555
Mn2 O1 1_555 1_555
O1 C7 1_555 1_555
O2 C5 1_555 1_555
O3 Mn1 1_555 1_555
N1 Mn2 1_555 1_555
O4 Mn2 1_555 1_555
N2 N4 1_555 1_555
N3 Mn2 1_555 1_555
N4 C4 1_555 1_555
N5 N6 1_555 1_555
C1 C4 1_555 1_555
N6 C6 1_555 1_555
C2 C3 1_555 1_555
C3 H1 1_555 1_555
C4 N2A 1_555 1_555
C5 O4 1_555 1_555
C6 C2 1_555 1_555
C7 O3 1_555 1_555
C8 C1 1_555 1_555
H2 C8 1_555 1_555
C9 C5 1_555 1_555
C10 N1 1_555 1_555
H3 C10 1_555 1_555
C11 N3 1_555 1_555
H4 C11 1_555 1_555
C12 C7 1_555 1_555
C13 N3 1_555 1_555
H5 C13 1_555 1_555
C14 C1 1_555 1_555
H6 C14 1_555 1_555
C15 C9 1_555 1_555
H7 C15 1_555 1_555
C16 N1 1_555 1_555
H8 C16 1_555 1_555
C17 C12 1_555 1_555
H9 C17 1_555 1_555
C18 C2 1_555 1_555
H10 C18 1_555 1_555
C19 C9 1_555 1_555
H11 C19 1_555 1_555
C20 C15 1_555 1_555
H12 C20 1_555 1_555
C21 C12 1_555 1_555
H13 C21 1_555 1_555
C22 C20 1_555 1_555
H14 C22 1_555 1_555
C23 C17 1_555 1_555
H15 C23 1_555 1_555
C24 C19 1_555 1_555
H16 C24 1_555 1_555
C25 C23 1_555 1_555
H17 C25 1_555 1_555
C26 C21 1_555 1_555
H18 C26 1_555 1_555
O5 Mn1 1_555 1_555
O6 C27 1_555 1_555
C27 O5 1_555 1_555
C28 C27 1_555 1_555
C29 C28 1_555 1_555
H19 C29 1_555 1_555
C30 C28 1_555 1_555
H20 C30 1_555 1_555
C31 C30 1_555 1_555
H21 C31 1_555 1_555
C32 C29 1_555 1_555
H22 C32 1_555 1_555
C33 C31 1_555 1_555
H23 C33 1_555 1_555
N1A C10A 1_555 1_555
N2A N4A 1_555 1_555
N4A C4A 1_555 1_555
C1A C4A 1_555 1_555
C4A N2 1_555 1_555
C8A C1A 1_555 1_555
H2A C8A 1_555 1_555
C10A C8A 1_555 1_555
H3A C10A 1_555 1_555
C14A C1A 1_555 1_555
H6A C14A 1_555 1_555
C16A N1A 1_555 1_555
H8A C16A 1_555 1_555
N3A C11A 1_555 1_555
N5A C6 1_555 1_555
N6A N5A 1_555 1_555
C2A C3A 1_555 1_555
C3A H1A 1_555 1_555
C6A N5 1_555 1_555
C11A C3A 1_555 1_555
H4A C11A 1_555 1_555
C13A N3A 1_555 1_555
H5A C13A 1_555 1_555
C18A C2A 1_555 1_555
H10A C18A 1_555 1_555
Mn2A N1A 1_555 1_555
O1A Mn2A 1_555 1_555
O2A C5A 1_555 1_555
O3A C7A 1_555 1_555
O4A Mn2A 1_555 1_555
C5A O4A 1_555 1_555
C7A O1A 1_555 1_555
C9A C5A 1_555 1_555
C12A C7A 1_555 1_555
C15A C9A 1_555 1_555
H7A C15A 1_555 1_555
C17A C12A 1_555 1_555
H9A C17A 1_555 1_555
C19A C9A 1_555 1_555
H11A C19A 1_555 1_555
C20A C15A 1_555 1_555
H12A C20A 1_555 1_555
C21A C12A 1_555 1_555
H13A C21A 1_555 1_555
C22A C20A 1_555 1_555
H14A C22A 1_555 1_555
C23A C17A 1_555 1_555
H15A C23A 1_555 1_555
C24A C19A 1_555 1_555
H16A C24A 1_555 1_555
C25A C23A 1_555 1_555
H17A C25A 1_555 1_555
C26A C21A 1_555 1_555
H18A C26A 1_555 1_555
O5A Mn1 1_555 1_555
O6A Mn2 1_555 1_555
C27A O5A 1_555 1_555
C28A C27A 1_555 1_555
C29A C28A 1_555 1_555
H19A C29A 1_555 1_555
C30A C28A 1_555 1_555
H20A C30A 1_555 1_555
C31A C30A 1_555 1_555
H21A C31A 1_555 1_555
C32A C29A 1_555 1_555
H22A C32A 1_555 1_555
C33A C31A 1_555 1_555
H23A C33A 1_555 1_555
Mn1_2 O2A 1_555 1_555
Mn2A_2 O5 1_555 1_555
Mn2A_3 N3A 1_555 1_555
O2A_2 Mn1 1_555 1_555
O3A_2 Mn1 1_555 1_555
N3A_2 Mn2A 1_555 1_555
O5_2 Mn2A 1_555 1_555
O6_2 Mn2A 1_555 1_555
Mn2 O5A 1_555 1_555
C3 C11 1_555 1_555
C8 C10 1_555 1_555
C13 C18 1_555 1_555
C14 C16 1_555 1_555
C22 C24 1_555 1_555
C25 C26 1_555 1_555
O6 Mn2A_2 1_555 1_555
C32 C33 1_555 1_555
C14A C16A 1_555 1_555
N6A C6A 1_555 1_555
C2A C6A 1_555 1_555
C13A C18A 1_555 1_555
O3A Mn1_2 1_555 1_555
C22A C24A 1_555 1_555
C25A C26A 1_555 1_555
O6A C27A 1_555 1_555
C32A C33A 1_555 1_555
Mn1_2 O5_2 1_555 1_555

#END
