
#######################################################################
#
#                 Cambridge Crystallographic Data Centre
#                                CCDC 
#
#######################################################################
#
# If this CIF has been generated from an entry in the Cambridge 
# Structural Database, then it will include bibliographic, chemical, 
# crystal, experimental, refinement or atomic coordinate data resulting 
# from the CCDC's data processing and validation procedures.
#
#######################################################################

data_BENXID
_symmetry_cell_setting           orthorhombic
_symmetry_space_group_name_H-M   'C m c a'
_symmetry_Int_Tables_number      64
_space_group_name_Hall           '-C 2ac 2'
loop_
_symmetry_equiv_pos_site_id
_symmetry_equiv_pos_as_xyz
1 x,y,z
2 -x,1/2-y,1/2+z
3 x,-y,-z
4 1/2-x,y,1/2-z
5 1/2+x,1/2+y,z
6 1/2-x,-y,1/2+z
7 1/2+x,1/2-y,-z
8 -x,1/2+y,1/2-z
9 -x,-y,-z
10 x,1/2+y,1/2-z
11 -x,y,z
12 1/2+x,-y,1/2+z
13 1/2-x,1/2-y,-z
14 1/2+x,y,1/2-z
15 1/2-x,1/2+y,z
16 x,1/2-y,1/2+z
_cell_length_a                   21.1177(16)
_cell_length_b                   14.9308(11)
_cell_length_c                   8.8929(7)
_cell_angle_alpha                90
_cell_angle_beta                 90
_cell_angle_gamma                90
_cell_volume                     2803.97
loop_
_atom_site_label
_atom_site_type_symbol
_atom_site_fract_x
_atom_site_fract_y
_atom_site_fract_z
Mn1 Mn 0.5000 0.0000 0.5000
S1 S 0.5000 -0.13348(10) 0.02142(15)
N1 N 0.42005(10) 0.07213(16) 0.3707(3)
N2 N 0.24473(13) 0.34049(18) 0.0111(3)
N3 N 0.28599(12) 0.29817(19) 0.0987(3)
N4 N 0.5000 -0.1037(2) 0.3310(4)
C1 C 0.28951(13) 0.2085(2) 0.0833(3)
C2 C 0.41733(13) 0.1611(2) 0.3650(3)
H1 H 0.4444 0.1936 0.4268
C3 C 0.33481(13) 0.1609(2) 0.1837(3)
C4 C 0.37642(13) 0.2080(2) 0.2722(3)
H2 H 0.3771 0.2702 0.2699
C5 C 0.37857(14) 0.0275(2) 0.2861(4)
H3 H 0.3789 -0.0348 0.2903
C6 C 0.5000 -0.1161(3) 0.2024(5)
C7 C 0.33500(14) 0.0685(2) 0.1923(3)
H4 H 0.3065 0.0347 0.1363
N1L N 0.07995(10) 0.42787(16) -0.3707(3)
N2L N 0.25527(13) 0.15951(18) -0.0111(3)
N3L N 0.21401(12) 0.20183(19) -0.0987(3)
C1L C 0.21049(13) 0.2915(2) -0.0833(3)
C2L C 0.08267(13) 0.3389(2) -0.3650(3)
H1L H 0.0556 0.3064 -0.4268
C3L C 0.16519(13) 0.3391(2) -0.1837(3)
C4L C 0.12358(13) 0.2920(2) -0.2722(3)
H2L H 0.1229 0.2298 -0.2699
C5L C 0.12143(14) 0.4725(2) -0.2861(4)
H3L H 0.1211 0.5348 -0.2903
C7L C 0.16500(14) 0.4315(2) -0.1923(3)
H4L H 0.1935 0.4653 -0.1363
S1B S 0.5000 0.13348(10) 0.97858(15)
N1B N 0.42005(10) -0.07213(16) 0.6293(3)
N2B N 0.24473(13) -0.34049(18) 0.9889(3)
N3B N 0.28599(12) -0.29817(19) 0.9013(3)
N4B N 0.5000 0.1037(2) 0.6690(4)
C1B C 0.28951(13) -0.2085(2) 0.9167(3)
C2B C 0.41733(13) -0.1611(2) 0.6350(3)
H1B H 0.4444 -0.1936 0.5732
C3B C 0.33481(13) -0.1609(2) 0.8163(3)
C4B C 0.37642(13) -0.2080(2) 0.7278(3)
H2B H 0.3771 -0.2702 0.7301
C5B C 0.37857(14) -0.0275(2) 0.7139(4)
H3B H 0.3789 0.0348 0.7097
C6B C 0.5000 0.1161(3) 0.7976(5)
C7B C 0.33500(14) -0.0685(2) 0.8077(3)
H4B H 0.3065 -0.0347 0.8637
N1N N 0.07995(10) -0.42787(16) 1.3707(3)
N2N N 0.25527(13) -0.15951(18) 1.0111(3)
N3N N 0.21401(12) -0.20183(19) 1.0987(3)
C1N C 0.21049(13) -0.2915(2) 1.0833(3)
C2N C 0.08267(13) -0.3389(2) 1.3650(3)
H1N H 0.0556 -0.3064 1.4268
C3N C 0.16519(13) -0.3391(2) 1.1837(3)
C4N C 0.12358(13) -0.2920(2) 1.2722(3)
H2N H 0.1229 -0.2298 1.2699
C5N C 0.12143(14) -0.4725(2) 1.2861(4)
H3N H 0.1211 -0.5348 1.2903
C7N C 0.16500(14) -0.4315(2) 1.1923(3)
H4N H 0.1935 -0.4653 1.1363
Mn1D Mn 0.0000 -0.5000 1.5000
Mn1D_2 Mn 0.0000 0.5000 -0.5000
N1H N 0.57995(10) -0.07213(16) 0.6293(3)
N1J N 0.57995(10) 0.07213(16) 0.3707(3)
loop_
_geom_bond_atom_site_label_1
_geom_bond_atom_site_label_2
_geom_bond_site_symmetry_1
_geom_bond_site_symmetry_2
Mn1 N1 1_555 1_555
S1 C6 1_555 1_555
N1 C2 1_555 1_555
N2 N3 1_555 1_555
N3 C1 1_555 1_555
N4 Mn1 1_555 1_555
C1 C3 1_555 1_555
C2 H1 1_555 1_555
C3 C4 1_555 1_555
C4 C2 1_555 1_555
H2 C4 1_555 1_555
C5 N1 1_555 1_555
H3 C5 1_555 1_555
C6 N4 1_555 1_555
C7 C3 1_555 1_555
H4 C7 1_555 1_555
N1L C2L 1_555 1_555
N2L C1 1_555 1_555
N3L N2L 1_555 1_555
C1L N2 1_555 1_555
C2L H1L 1_555 1_555
C3L C1L 1_555 1_555
C4L C2L 1_555 1_555
H2L C4L 1_555 1_555
C5L N1L 1_555 1_555
H3L C5L 1_555 1_555
C7L C3L 1_555 1_555
H4L C7L 1_555 1_555
S1B C6B 1_555 1_555
N1B Mn1 1_555 1_555
N2B N3B 1_555 1_555
N3B C1B 1_555 1_555
N4B Mn1 1_555 1_555
C1B C3B 1_555 1_555
C2B N1B 1_555 1_555
H1B C2B 1_555 1_555
C3B C4B 1_555 1_555
C4B C2B 1_555 1_555
H2B C4B 1_555 1_555
C5B N1B 1_555 1_555
H3B C5B 1_555 1_555
C6B N4B 1_555 1_555
C7B C3B 1_555 1_555
H4B C7B 1_555 1_555
N1N C2N 1_555 1_555
N2N C1B 1_555 1_555
N3N N2N 1_555 1_555
C1N N2B 1_555 1_555
C2N H1N 1_555 1_555
C3N C1N 1_555 1_555
C4N C2N 1_555 1_555
H2N C4N 1_555 1_555
C5N N1N 1_555 1_555
H3N C5N 1_555 1_555
C7N C3N 1_555 1_555
H4N C7N 1_555 1_555
Mn1D N1N 1_555 1_555
Mn1D_2 N1L 1_555 1_555
N1H Mn1 1_555 1_555
N1J Mn1 1_555 1_555
C5 C7 1_555 1_555
N3L C1L 1_555 1_555
C3L C4L 1_555 1_555
C5L C7L 1_555 1_555
C5B C7B 1_555 1_555
N3N C1N 1_555 1_555
C3N C4N 1_555 1_555
C5N C7N 1_555 1_555

#END
