
#######################################################################
#
#                 Cambridge Crystallographic Data Centre
#                                CCDC 
#
#######################################################################
#
# If this CIF has been generated from an entry in the Cambridge 
# Structural Database, then it will include bibliographic, chemical, 
# crystal, experimental, refinement or atomic coordinate data resulting 
# from the CCDC's data processing and validation procedures.
#
#######################################################################

data_BEPDUW
_symmetry_cell_setting           triclinic
_symmetry_space_group_name_H-M   'P -1'
_symmetry_Int_Tables_number      2
_space_group_name_Hall           '-P 1'
loop_
_symmetry_equiv_pos_site_id
_symmetry_equiv_pos_as_xyz
1 x,y,z
2 -x,-y,-z
_cell_length_a                   8.842(3)
_cell_length_b                   9.352(4)
_cell_length_c                   10.686(4)
_cell_angle_alpha                80.278(6)
_cell_angle_beta                 76.543(6)
_cell_angle_gamma                73.357(5)
_cell_volume                     818.399
loop_
_atom_site_label
_atom_site_type_symbol
_atom_site_fract_x
_atom_site_fract_y
_atom_site_fract_z
Er1 Er 0.09099(2) 0.38388(2) 0.355200(17)
N1 N 0.3070(4) 0.1439(4) 0.3100(4)
N2 N 0.2467(4) 0.3858(4) 0.1293(3)
C1 C 0.3384(6) 0.0251(6) 0.3959(5)
H1 H 0.2653 0.0218 0.4739
C2 C 0.4734(7) -0.0947(6) 0.3768(6)
H2 H 0.4888 -0.1758 0.4404
C3 C 0.5835(6) -0.0927(6) 0.2641(6)
H3 H 0.6748 -0.1721 0.2494
C4 C 0.5563(6) 0.0311(6) 0.1709(5)
C5 C 0.6643(6) 0.0397(7) 0.0486(6)
H4 H 0.7580 -0.0367 0.0314
C6 C 0.6312(6) 0.1575(7) -0.0417(5)
H5 H 0.7027 0.1615 -0.1205
C7 C 0.4883(6) 0.2762(6) -0.0183(5)
C8 C 0.4468(7) 0.3979(7) -0.1120(5)
H6 H 0.5136 0.4032 -0.1930
C9 C 0.3105(7) 0.5065(7) -0.0844(5)
H7 H 0.2819 0.5870 -0.1460
C10 C 0.2129(6) 0.4969(6) 0.0375(4)
H8 H 0.1188 0.5727 0.0554
C11 C 0.3809(5) 0.2737(5) 0.1014(4)
C12 C 0.4156(5) 0.1466(5) 0.1973(4)
O1 O 0.0607(4) 0.2323(4) 0.5451(3)
O2 O -0.0445(4) 0.3645(3) 0.7150(3)
O3 O 0.0493(4) -0.2846(3) 0.7304(3)
O4 O 0.0093(4) -0.1782(4) 0.9115(3)
O5 O -0.1583(3) 0.4967(4) 0.4710(3)
O6 O -0.3481(4) 0.5895(4) 0.6291(3)
C13 C 0.0102(5) 0.2434(5) 0.6649(4)
C14 C 0.0128(5) 0.1014(5) 0.7526(4)
H9 H 0.0059 0.1031 0.8405
C15 C 0.0245(5) -0.0269(5) 0.7105(4)
H10 H 0.0331 -0.0272 0.6221
C16 C 0.0249(5) -0.1721(5) 0.7951(4)
C17 C -0.3042(5) 0.5247(5) 0.5290(4)
C18 C -0.4220(5) 0.4807(5) 0.4751(4)
H11 H -0.3857 0.4247 0.4048
C18A C -0.5780(5) 0.5193(5) 0.5249(4)
C17A C -0.6958(5) 0.4753(5) 0.4710(4)
O5A O -0.8417(3) 0.5033(4) 0.5290(3)
O6A O -0.6519(4) 0.4105(4) 0.3709(3)
H11A H -0.6143 0.5753 0.5952
O1A O -0.0607(4) 0.7677(4) 0.4549(3)
O2A O 0.0445(4) 0.6355(3) 0.2850(3)
O3A O -0.0493(4) 1.2846(3) 0.2696(3)
O4A O -0.0093(4) 1.1782(4) 0.0885(3)
C13A C -0.0102(5) 0.7566(5) 0.3351(4)
C14A C -0.0128(5) 0.8986(5) 0.2474(4)
H9A H -0.0059 0.8969 0.1595
C15A C -0.0245(5) 1.0269(5) 0.2895(4)
H10A H -0.0331 1.0272 0.3779
C16A C -0.0249(5) 1.1721(5) 0.2049(4)
Er1A Er -0.09099(2) 0.61612(2) 0.644800(17)
N1A N -0.3070(4) 0.8561(4) 0.6900(4)
N2A N -0.2467(4) 0.6142(4) 0.8707(3)
C1A C -0.3384(6) 0.9749(6) 0.6041(5)
H1A H -0.2653 0.9782 0.5261
C2A C -0.4734(7) 1.0947(6) 0.6232(6)
H2A H -0.4888 1.1758 0.5596
C3A C -0.5835(6) 1.0927(6) 0.7359(6)
H3A H -0.6748 1.1721 0.7506
C4A C -0.5563(6) 0.9689(6) 0.8291(5)
C5A C -0.6643(6) 0.9603(7) 0.9514(6)
H4A H -0.7580 1.0367 0.9686
C6A C -0.6312(6) 0.8425(7) 1.0417(5)
H5A H -0.7027 0.8385 1.1205
C7A C -0.4883(6) 0.7238(6) 1.0183(5)
C8A C -0.4468(7) 0.6021(7) 1.1120(5)
H6A H -0.5136 0.5968 1.1930
C9A C -0.3105(7) 0.4935(7) 1.0844(5)
H7A H -0.2819 0.4130 1.1460
C10A C -0.2129(6) 0.5031(6) 0.9625(4)
H8A H -0.1188 0.4273 0.9446
C11A C -0.3809(5) 0.7263(5) 0.8986(4)
C12A C -0.4156(5) 0.8534(5) 0.8027(4)
O3A_2 O -0.0493(4) 0.2846(3) 0.2696(3)
O5A_2 O 0.1583(3) 0.5033(4) 0.5290(3)
O6A_2 O 0.3481(4) 0.4105(4) 0.3709(3)
Er1A_2 Er -0.09099(2) -0.38388(2) 0.644800(17)
Er1_2 Er -0.90901(2) 0.38388(2) 0.355200(17)
Er1A_3 Er -1.09099(2) 0.61612(2) 0.644800(17)
Er1_3 Er 0.09099(2) 1.38388(2) 0.355200(17)
O3_2 O 0.0493(4) 0.7154(3) 0.7304(3)
loop_
_geom_bond_atom_site_label_1
_geom_bond_atom_site_label_2
_geom_bond_site_symmetry_1
_geom_bond_site_symmetry_2
Er1 N1 1_555 1_555
N1 C1 1_555 1_555
N2 Er1 1_555 1_555
C1 H1 1_555 1_555
C2 C1 1_555 1_555
H2 C2 1_555 1_555
C3 C2 1_555 1_555
H3 C3 1_555 1_555
C4 C3 1_555 1_555
C5 C4 1_555 1_555
H4 C5 1_555 1_555
C6 C5 1_555 1_555
H5 C6 1_555 1_555
C7 C6 1_555 1_555
C8 C7 1_555 1_555
H6 C8 1_555 1_555
C9 C8 1_555 1_555
H7 C9 1_555 1_555
C10 N2 1_555 1_555
H8 C10 1_555 1_555
C11 N2 1_555 1_555
C12 N1 1_555 1_555
O1 Er1 1_555 1_555
O2 C13 1_555 1_555
O3 C16 1_555 1_555
O4 C16 1_555 1_555
O5 Er1 1_555 1_555
O6 C17 1_555 1_555
C13 O1 1_555 1_555
C14 C13 1_555 1_555
H9 C14 1_555 1_555
C15 C14 1_555 1_555
H10 C15 1_555 1_555
C16 C15 1_555 1_555
C17 O5 1_555 1_555
C18 C17 1_555 1_555
H11 C18 1_555 1_555
C18A C18 1_555 1_555
C17A C18A 1_555 1_555
O5A C17A 1_555 1_555
O6A C17A 1_555 1_555
H11A C18A 1_555 1_555
O1A C13A 1_555 1_555
O2A Er1 1_555 1_555
O3A C16A 1_555 1_555
O4A C16A 1_555 1_555
C13A O2A 1_555 1_555
C14A C13A 1_555 1_555
H9A C14A 1_555 1_555
C15A C14A 1_555 1_555
H10A C15A 1_555 1_555
C16A C15A 1_555 1_555
Er1A O2 1_555 1_555
N1A Er1A 1_555 1_555
N2A Er1A 1_555 1_555
C1A N1A 1_555 1_555
H1A C1A 1_555 1_555
C2A C1A 1_555 1_555
H2A C2A 1_555 1_555
C3A C2A 1_555 1_555
H3A C3A 1_555 1_555
C4A C3A 1_555 1_555
C5A C4A 1_555 1_555
H4A C5A 1_555 1_555
C6A C5A 1_555 1_555
H5A C6A 1_555 1_555
C7A C6A 1_555 1_555
C8A C7A 1_555 1_555
H6A C8A 1_555 1_555
C9A C8A 1_555 1_555
H7A C9A 1_555 1_555
C10A N2A 1_555 1_555
H8A C10A 1_555 1_555
C11A N2A 1_555 1_555
C12A N1A 1_555 1_555
O3A_2 Er1 1_555 1_555
O5A_2 Er1 1_555 1_555
O6A_2 Er1 1_555 1_555
Er1A_2 O3 1_555 1_555
Er1_2 O5A 1_555 1_555
Er1A_3 O5A 1_555 1_555
Er1_3 O3A 1_555 1_555
O3_2 Er1A 1_555 1_555
C4 C12 1_555 1_555
C7 C11 1_555 1_555
C9 C10 1_555 1_555
C11 C12 1_555 1_555
O5 Er1A 1_555 1_555
O6 Er1A 1_555 1_555
O6A Er1_2 1_555 1_555
O1A Er1A 1_555 1_555
Er1A O5A_2 1_555 1_555
C4A C12A 1_555 1_555
C7A C11A 1_555 1_555
C9A C10A 1_555 1_555
C11A C12A 1_555 1_555

#END
