
#######################################################################
#
#                 Cambridge Crystallographic Data Centre
#                                CCDC 
#
#######################################################################
#
# If this CIF has been generated from an entry in the Cambridge 
# Structural Database, then it will include bibliographic, chemical, 
# crystal, experimental, refinement or atomic coordinate data resulting 
# from the CCDC's data processing and validation procedures.
#
#######################################################################

data_BEPDOQ
_symmetry_cell_setting           triclinic
_symmetry_space_group_name_H-M   'P -1'
_symmetry_Int_Tables_number      2
_space_group_name_Hall           '-P 1'
loop_
_symmetry_equiv_pos_site_id
_symmetry_equiv_pos_as_xyz
1 x,y,z
2 -x,-y,-z
_cell_length_a                   9.013(3)
_cell_length_b                   9.999(3)
_cell_length_c                   10.546(3)
_cell_angle_alpha                72.551(5)
_cell_angle_beta                 77.538(5)
_cell_angle_gamma                70.006(5)
_cell_volume                     845.207
loop_
_atom_site_label
_atom_site_type_symbol
_atom_site_fract_x
_atom_site_fract_y
_atom_site_fract_z
Pr1 Pr 0.58412(3) 0.41135(3) 0.33650(3)
N1 N 0.8059(5) 0.1529(4) 0.3188(4)
N2 N 0.7828(5) 0.4009(5) 0.1136(4)
C1 C 0.8220(7) 0.0331(6) 0.4183(6)
H1 H 0.7495 0.0368 0.4956
C2 C 0.9427(8) -0.0993(6) 0.4134(7)
H2 H 0.9490 -0.1811 0.4856
C3 C 1.0495(8) -0.1061(7) 0.3022(7)
H3 H 1.1310 -0.1926 0.2977
C4 C 1.0373(7) 0.0171(6) 0.1939(6)
C5 C 1.1458(7) 0.0150(8) 0.0737(7)
H4 H 1.2297 -0.0694 0.0670
C6 C 1.1278(8) 0.1331(8) -0.0292(7)
H5 H 1.1973 0.1284 -0.1080
C7 C 1.0049(7) 0.2663(7) -0.0213(5)
C8 C 0.9877(7) 0.3944(7) -0.1246(6)
H6 H 1.0544 0.3932 -0.2053
C9 C 0.8746(7) 0.5201(7) -0.1078(5)
H7 H 0.8628 0.6054 -0.1766
C10 C 0.7764(6) 0.5202(6) 0.0134(5)
H8 H 0.7022 0.6083 0.0251
C11 C 0.8977(6) 0.2744(6) 0.0974(5)
C12 C 0.9126(6) 0.1451(6) 0.2064(5)
O1 O 0.5873(5) 0.6666(4) 0.2835(3)
O2 O 0.4580(5) 0.7664(4) 0.4552(3)
O3 O 0.5300(5) 1.1929(4) 0.0653(4)
O4 O 0.4685(5) 1.2881(4) 0.2420(4)
O5 O 0.3275(4) 0.5237(4) 0.4555(3)
O6 O 0.1463(4) 0.5958(4) 0.6169(3)
C13 C 0.5176(6) 0.7735(5) 0.3336(5)
C14 C 0.5066(6) 0.9219(5) 0.2418(5)
H9 H 0.5069 0.9328 0.1510
C15 C 0.4964(6) 1.0379(5) 0.2809(5)
H10 H 0.4873 1.0293 0.3723
C16 C 0.4985(6) 1.1833(5) 0.1872(5)
C17 C 0.1894(6) 0.5399(5) 0.5182(5)
C18 C 0.0748(6) 0.4899(5) 0.4741(5)
H11 H 0.1119 0.4413 0.4056
O7 O 0.4166(5) 0.5862(4) 0.1486(4)
H12 H 0.4465 0.6518 0.0860
H13 H 0.3794 0.5373 0.1168
C18A C -0.0748(6) 0.5101(5) 0.5259(5)
C17A C -0.1894(6) 0.4601(5) 0.4818(5)
O5A O -0.3275(4) 0.4763(4) 0.5445(3)
O6A O -0.1463(4) 0.4042(4) 0.3831(3)
H11A H -0.1119 0.5587 0.5944
O1A O 0.4127(5) 0.3334(4) 0.7165(3)
O2A O 0.5420(5) 0.2336(4) 0.5448(3)
O3A O 0.4700(5) -0.1929(4) 0.9347(4)
O4A O 0.5315(5) -0.2881(4) 0.7580(4)
C13A C 0.4824(6) 0.2265(5) 0.6664(5)
C14A C 0.4934(6) 0.0781(5) 0.7582(5)
H9A H 0.4931 0.0672 0.8490
C15A C 0.5036(6) -0.0379(5) 0.7191(5)
H10A H 0.5127 -0.0293 0.6277
C16A C 0.5015(6) -0.1833(5) 0.8128(5)
Pr1A Pr 0.41588(3) 0.58865(3) 0.66350(3)
N1A N 0.1941(5) 0.8471(4) 0.6812(4)
N2A N 0.2172(5) 0.5991(5) 0.8864(4)
C1A C 0.1780(7) 0.9669(6) 0.5817(6)
H1A H 0.2505 0.9632 0.5044
C2A C 0.0573(8) 1.0993(6) 0.5866(7)
H2A H 0.0510 1.1811 0.5144
C3A C -0.0495(8) 1.1061(7) 0.6978(7)
H3A H -0.1310 1.1926 0.7023
C4A C -0.0373(7) 0.9829(6) 0.8061(6)
C5A C -0.1458(7) 0.9850(8) 0.9263(7)
H4A H -0.2297 1.0694 0.9330
C6A C -0.1278(8) 0.8669(8) 1.0292(7)
H5A H -0.1973 0.8716 1.1080
C7A C -0.0049(7) 0.7337(7) 1.0213(5)
C8A C 0.0123(7) 0.6056(7) 1.1246(6)
H6A H -0.0544 0.6068 1.2053
C9A C 0.1254(7) 0.4799(7) 1.1078(5)
H7A H 0.1372 0.3946 1.1766
C10A C 0.2236(6) 0.4798(6) 0.9866(5)
H8A H 0.2978 0.3917 0.9749
C11A C 0.1023(6) 0.7256(6) 0.9026(5)
C12A C 0.0874(6) 0.8549(6) 0.7936(5)
O7A O 0.5834(5) 0.4138(4) 0.8514(4)
H12A H 0.5535 0.3482 0.9140
H13A H 0.6206 0.4627 0.8832
O4_2 O 0.4685(5) 0.2881(4) 0.2420(4)
O5A_2 O 0.6725(4) 0.4763(4) 0.5445(3)
O6A_2 O 0.8537(4) 0.4042(4) 0.3831(3)
Pr1_2 Pr 0.58412(3) 1.41135(3) 0.33650(3)
Pr1_3 Pr -0.41588(3) 0.41135(3) 0.33650(3)
Pr1A_2 Pr -0.58412(3) 0.58865(3) 0.66350(3)
Pr1A_3 Pr 0.41588(3) -0.41135(3) 0.66350(3)
O4A_2 O 0.5315(5) 0.7119(4) 0.7580(4)
loop_
_geom_bond_atom_site_label_1
_geom_bond_atom_site_label_2
_geom_bond_site_symmetry_1
_geom_bond_site_symmetry_2
Pr1 N1 1_555 1_555
N1 C1 1_555 1_555
N2 Pr1 1_555 1_555
C1 H1 1_555 1_555
C2 C1 1_555 1_555
H2 C2 1_555 1_555
C3 C2 1_555 1_555
H3 C3 1_555 1_555
C4 C3 1_555 1_555
C5 C4 1_555 1_555
H4 C5 1_555 1_555
C6 C5 1_555 1_555
H5 C6 1_555 1_555
C7 C6 1_555 1_555
C8 C7 1_555 1_555
H6 C8 1_555 1_555
C9 C8 1_555 1_555
H7 C9 1_555 1_555
C10 N2 1_555 1_555
H8 C10 1_555 1_555
C11 N2 1_555 1_555
C12 N1 1_555 1_555
O1 Pr1 1_555 1_555
O2 C13 1_555 1_555
O3 C16 1_555 1_555
O4 C16 1_555 1_555
O5 Pr1 1_555 1_555
O6 C17 1_555 1_555
C13 O1 1_555 1_555
C14 C13 1_555 1_555
H9 C14 1_555 1_555
C15 C14 1_555 1_555
H10 C15 1_555 1_555
C16 C15 1_555 1_555
C17 O5 1_555 1_555
C18 C17 1_555 1_555
H11 C18 1_555 1_555
O7 Pr1 1_555 1_555
H12 O7 1_555 1_555
H13 O7 1_555 1_555
C18A C18 1_555 1_555
C17A C18A 1_555 1_555
O5A C17A 1_555 1_555
O6A C17A 1_555 1_555
H11A C18A 1_555 1_555
O1A C13A 1_555 1_555
O2A Pr1 1_555 1_555
O3A C16A 1_555 1_555
O4A C16A 1_555 1_555
C13A O2A 1_555 1_555
C14A C13A 1_555 1_555
H9A C14A 1_555 1_555
C15A C14A 1_555 1_555
H10A C15A 1_555 1_555
C16A C15A 1_555 1_555
Pr1A O2 1_555 1_555
N1A Pr1A 1_555 1_555
N2A Pr1A 1_555 1_555
C1A N1A 1_555 1_555
H1A C1A 1_555 1_555
C2A C1A 1_555 1_555
H2A C2A 1_555 1_555
C3A C2A 1_555 1_555
H3A C3A 1_555 1_555
C4A C3A 1_555 1_555
C5A C4A 1_555 1_555
H4A C5A 1_555 1_555
C6A C5A 1_555 1_555
H5A C6A 1_555 1_555
C7A C6A 1_555 1_555
C8A C7A 1_555 1_555
H6A C8A 1_555 1_555
C9A C8A 1_555 1_555
H7A C9A 1_555 1_555
C10A N2A 1_555 1_555
H8A C10A 1_555 1_555
C11A N2A 1_555 1_555
C12A N1A 1_555 1_555
O7A Pr1A 1_555 1_555
H12A O7A 1_555 1_555
H13A O7A 1_555 1_555
O4_2 Pr1 1_555 1_555
O5A_2 Pr1 1_555 1_555
O6A_2 Pr1 1_555 1_555
Pr1_2 O4 1_555 1_555
Pr1_3 O5A 1_555 1_555
Pr1A_2 O5A 1_555 1_555
Pr1A_3 O4A 1_555 1_555
O4A_2 Pr1A 1_555 1_555
C4 C12 1_555 1_555
C7 C11 1_555 1_555
C9 C10 1_555 1_555
C11 C12 1_555 1_555
O5 Pr1A 1_555 1_555
O6 Pr1A 1_555 1_555
O6A Pr1_3 1_555 1_555
O1A Pr1A 1_555 1_555
Pr1A O5A_2 1_555 1_555
C4A C12A 1_555 1_555
C7A C11A 1_555 1_555
C9A C10A 1_555 1_555
C11A C12A 1_555 1_555

#END
