
#######################################################################
#
#                 Cambridge Crystallographic Data Centre
#                                CCDC 
#
#######################################################################
#
# If this CIF has been generated from an entry in the Cambridge 
# Structural Database, then it will include bibliographic, chemical, 
# crystal, experimental, refinement or atomic coordinate data resulting 
# from the CCDC's data processing and validation procedures.
#
#######################################################################

data_BEPDIK01
_symmetry_cell_setting           triclinic
_symmetry_space_group_name_H-M   'P -1'
_symmetry_Int_Tables_number      2
_space_group_name_Hall           '-P 1'
loop_
_symmetry_equiv_pos_site_id
_symmetry_equiv_pos_as_xyz
1 x,y,z
2 -x,-y,-z
_cell_length_a                   9.066(3)
_cell_length_b                   10.084(3)
_cell_length_c                   10.614(3)
_cell_angle_alpha                72.549(5)
_cell_angle_beta                 77.628(4)
_cell_angle_gamma                70.009(4)
_cell_volume                     863.128
loop_
_atom_site_label
_atom_site_type_symbol
_atom_site_fract_x
_atom_site_fract_y
_atom_site_fract_z
La1 La 0.416553(15) 0.588409(13) 0.165025(12)
N1 N 0.2121(2) 0.6040(2) 0.3889(2)
N2 N 0.1920(3) 0.8493(2) 0.1822(2)
O1 O 0.4136(2) 0.33117(18) 0.21559(18)
O2 O 0.5381(2) 0.23137(19) 0.04566(18)
O3 O 0.4760(3) -0.1912(2) 0.4368(2)
O4 O 0.5340(2) -0.2891(2) 0.2630(2)
O5 O 0.1434(2) 0.5958(2) 0.11788(18)
O6 O 0.3247(2) 0.5269(2) -0.04393(18)
C1 C 0.2179(3) 0.4867(3) 0.4893(3)
H1 H 0.2921 0.3991 0.4789
C2 C 0.1184(4) 0.4876(4) 0.6099(3)
H2 H 0.1294 0.4033 0.6786
C3 C 0.0062(4) 0.6123(4) 0.6251(3)
H3 H -0.0607 0.6147 0.7047
C4 C -0.0095(3) 0.7388(4) 0.5202(3)
C5 C -0.1321(4) 0.8727(4) 0.5269(4)
H4 H -0.2020 0.8787 0.6046
C6 C -0.1475(4) 0.9892(4) 0.4230(4)
H5 H -0.2304 1.0735 0.4286
C7 C -0.0392(3) 0.9863(3) 0.3039(3)
C8 C -0.0494(4) 1.1088(4) 0.1953(4)
H6 H -0.1295 1.1953 0.1987
C9 C 0.0592(4) 1.0994(3) 0.0853(4)
H7 H 0.0544 1.1797 0.0128
C10 C 0.1781(4) 0.9675(3) 0.0823(3)
H8 H 0.2512 0.9627 0.0063
C11 C 0.0849(3) 0.8578(3) 0.2928(3)
C12 C 0.0979(3) 0.7302(3) 0.4030(3)
C13 C 0.4825(3) 0.2242(3) 0.1658(2)
C14 C 0.4946(3) 0.0771(3) 0.2589(2)
H9 H 0.4944 0.0671 0.3489
C15 C 0.5055(3) -0.0394(3) 0.2202(2)
H10 H 0.5143 -0.0319 0.1296
C16 C 0.5043(3) -0.1832(3) 0.3161(3)
C17 C 0.1872(3) 0.5407(2) 0.0197(2)
C18 C 0.0751(3) 0.4900(3) -0.0262(2)
H11 H 0.1127 0.4422 -0.0945
O7 O 0.5804(2) 0.4119(2) 0.35637(19)
H12 H 0.6154 0.4640 0.3795
H13 H 0.5596 0.3425 0.4187
La1A La 0.583447(15) 0.411591(13) -0.165025(12)
La1_2 La 0.416553(15) -0.411591(13) 0.165025(12)
La1A_2 La -0.416553(15) 0.411591(13) -0.165025(12)
La1_3 La -0.583447(15) 0.588409(13) 0.165025(12)
La1A_3 La 0.583447(15) 1.411591(13) -0.165025(12)
N1A N 0.7879(2) 0.3960(2) -0.3889(2)
N2A N 0.8080(3) 0.1507(2) -0.1822(2)
O1A O 0.5864(2) 0.66883(18) -0.21559(18)
O2A O 0.4619(2) 0.76863(19) -0.04566(18)
O3A O 0.5240(3) 1.1912(2) -0.4368(2)
O4A O 0.4660(2) 1.2891(2) -0.2630(2)
O4_2 O 0.5340(2) 0.7109(2) 0.2630(2)
O4A_2 O 0.4660(2) 0.2891(2) -0.2630(2)
O5A O -0.1434(2) 0.4042(2) -0.11788(18)
O5A_2 O 0.8566(2) 0.4042(2) -0.11788(18)
O6A O -0.3247(2) 0.4731(2) 0.04393(18)
O6A_2 O 0.6753(2) 0.4731(2) 0.04393(18)
C1A C 0.7821(3) 0.5133(3) -0.4893(3)
H1A H 0.7079 0.6009 -0.4789
C2A C 0.8816(4) 0.5124(4) -0.6099(3)
H2A H 0.8706 0.5967 -0.6786
C3A C 0.9938(4) 0.3877(4) -0.6251(3)
H3A H 1.0607 0.3853 -0.7047
C4A C 1.0095(3) 0.2612(4) -0.5202(3)
C5A C 1.1321(4) 0.1273(4) -0.5269(4)
H4A H 1.2020 0.1213 -0.6046
C6A C 1.1475(4) 0.0108(4) -0.4230(4)
H5A H 1.2304 -0.0735 -0.4286
C7A C 1.0392(3) 0.0137(3) -0.3039(3)
C8A C 1.0494(4) -0.1088(4) -0.1953(4)
H6A H 1.1295 -0.1953 -0.1987
C9A C 0.9408(4) -0.0994(3) -0.0853(4)
H7A H 0.9456 -0.1797 -0.0128
C10A C 0.8219(4) 0.0325(3) -0.0823(3)
H8A H 0.7488 0.0373 -0.0063
C11A C 0.9151(3) 0.1422(3) -0.2928(3)
C12A C 0.9021(3) 0.2698(3) -0.4030(3)
C13A C 0.5175(3) 0.7758(3) -0.1658(2)
C14A C 0.5054(3) 0.9229(3) -0.2589(2)
H9A H 0.5056 0.9329 -0.3489
C15A C 0.4945(3) 1.0394(3) -0.2202(2)
H10A H 0.4857 1.0319 -0.1296
C16A C 0.4957(3) 1.1832(3) -0.3161(3)
C17A C -0.1872(3) 0.4593(2) -0.0197(2)
C18A C -0.0751(3) 0.5100(3) 0.0262(2)
H11A H -0.1127 0.5578 0.0945
O7A O 0.4196(2) 0.5881(2) -0.35637(19)
H12A H 0.3846 0.5360 -0.3795
H13A H 0.4404 0.6575 -0.4187
loop_
_geom_bond_atom_site_label_1
_geom_bond_atom_site_label_2
_geom_bond_site_symmetry_1
_geom_bond_site_symmetry_2
La1 N1 1_555 1_555
N1 C1 1_555 1_555
N2 La1 1_555 1_555
O1 La1 1_555 1_555
O2 C13 1_555 1_555
O3 C16 1_555 1_555
O4 C16 1_555 1_555
O5 La1 1_555 1_555
O6 La1 1_555 1_555
C1 H1 1_555 1_555
C2 C1 1_555 1_555
H2 C2 1_555 1_555
C3 C2 1_555 1_555
H3 C3 1_555 1_555
C4 C3 1_555 1_555
C5 C4 1_555 1_555
H4 C5 1_555 1_555
C6 C5 1_555 1_555
H5 C6 1_555 1_555
C7 C6 1_555 1_555
C8 C7 1_555 1_555
H6 C8 1_555 1_555
C9 C8 1_555 1_555
H7 C9 1_555 1_555
C10 N2 1_555 1_555
H8 C10 1_555 1_555
C11 N2 1_555 1_555
C12 N1 1_555 1_555
C13 O1 1_555 1_555
C14 C13 1_555 1_555
H9 C14 1_555 1_555
C15 C14 1_555 1_555
H10 C15 1_555 1_555
C16 C15 1_555 1_555
C17 O5 1_555 1_555
C18 C17 1_555 1_555
H11 C18 1_555 1_555
O7 La1 1_555 1_555
H12 O7 1_555 1_555
H13 O7 1_555 1_555
La1A O2 1_555 1_555
La1_2 O4 1_555 1_555
La1A_2 O5A 1_555 1_555
La1_3 O6A 1_555 1_555
La1A_3 O4A 1_555 1_555
N1A La1A 1_555 1_555
N2A La1A 1_555 1_555
O1A La1A 1_555 1_555
O2A La1 1_555 1_555
O3A C16A 1_555 1_555
O4A C16A 1_555 1_555
O4_2 La1 1_555 1_555
O4A_2 La1A 1_555 1_555
O5A C17A 1_555 1_555
O5A_2 La1A 1_555 1_555
O6A La1A_2 1_555 1_555
O6A_2 La1 1_555 1_555
C1A N1A 1_555 1_555
H1A C1A 1_555 1_555
C2A C1A 1_555 1_555
H2A C2A 1_555 1_555
C3A C2A 1_555 1_555
H3A C3A 1_555 1_555
C4A C3A 1_555 1_555
C5A C4A 1_555 1_555
H4A C5A 1_555 1_555
C6A C5A 1_555 1_555
H5A C6A 1_555 1_555
C7A C6A 1_555 1_555
C8A C7A 1_555 1_555
H6A C8A 1_555 1_555
C9A C8A 1_555 1_555
H7A C9A 1_555 1_555
C10A N2A 1_555 1_555
H8A C10A 1_555 1_555
C11A N2A 1_555 1_555
C12A N1A 1_555 1_555
C13A O1A 1_555 1_555
C14A C13A 1_555 1_555
H9A C14A 1_555 1_555
C15A C14A 1_555 1_555
H10A C15A 1_555 1_555
C16A C15A 1_555 1_555
C17A O6A 1_555 1_555
C18A C18 1_555 1_555
H11A C18A 1_555 1_555
O7A La1A 1_555 1_555
H12A O7A 1_555 1_555
H13A O7A 1_555 1_555
O6 C17 1_555 1_555
O6 La1A 1_555 1_555
C4 C12 1_555 1_555
C7 C11 1_555 1_555
C9 C10 1_555 1_555
C11 C12 1_555 1_555
La1A O6A_2 1_555 1_555
O2A C13A 1_555 1_555
C4A C12A 1_555 1_555
C7A C11A 1_555 1_555
C9A C10A 1_555 1_555
C11A C12A 1_555 1_555
C17A C18A 1_555 1_555

#END
