
#######################################################################
#
#                 Cambridge Crystallographic Data Centre
#                                CCDC 
#
#######################################################################
#
# If this CIF has been generated from an entry in the Cambridge 
# Structural Database, then it will include bibliographic, chemical, 
# crystal, experimental, refinement or atomic coordinate data resulting 
# from the CCDC's data processing and validation procedures.
#
#######################################################################

data_BEPFIN
_symmetry_cell_setting           monoclinic
_symmetry_space_group_name_H-M   'C 2/c'
_symmetry_Int_Tables_number      15
_space_group_name_Hall           '-C 2yn'
loop_
_symmetry_equiv_pos_site_id
_symmetry_equiv_pos_as_xyz
1 x,y,z
2 -x,y,1/2-z
3 1/2+x,1/2+y,z
4 1/2-x,1/2+y,1/2-z
5 -x,-y,-z
6 x,-y,1/2+z
7 1/2-x,1/2-y,-z
8 1/2+x,1/2-y,1/2+z
_cell_length_a                   13.2272(4)
_cell_length_b                   7.7058(2)
_cell_length_c                   15.4573(5)
_cell_angle_alpha                90
_cell_angle_beta                 96.316(3)
_cell_angle_gamma                90
_cell_volume                     1565.94
loop_
_atom_site_label
_atom_site_type_symbol
_atom_site_fract_x
_atom_site_fract_y
_atom_site_fract_z
N1 N 0.6252(4) 0.2489(5) 0.1610(3)
N2 N 0.5209(3) 0.3740(7) -0.1131(2)
N3 N 0.3565(3) -0.0300(5) 0.1687(3)
N4 N 0.2735(5) 0.1172(5) -0.1060(2)
C1 C 0.4012(3) 0.1065(4) 0.0287(2)
C2 C 0.5005(3) 0.2095(4) 0.0259(2)
C3 C 0.5665(2) 0.2276(4) 0.1017(3)
C4 C 0.5152(2) 0.3019(4) -0.0490(2)
C5 C 0.3801(2) 0.0341(4) 0.1071(3)
C6 C 0.3288(3) 0.1084(3) -0.0436(2)
Rb1 Rb 0.17211(6) 0.10843(13) 0.25220(4)
N1A N 0.3748(4) 0.2489(5) 0.3390(3)
N1B N 0.1252(4) -0.2511(5) 0.1610(3)
N2F N -0.0209(3) 0.1260(7) 0.1131(2)
N2G N 0.0209(3) 0.1260(7) 0.3869(2)
N3C N 0.1435(3) 0.4700(5) 0.3313(3)
N4E N 0.2735(5) -0.1172(5) 0.3940(2)
N4F N 0.2265(5) 0.3828(5) 0.1060(2)
Rb1A Rb 0.82789(6) 0.10843(13) 0.24780(4)
Rb1E Rb 0.17211(6) -0.10843(13) -0.24780(4)
Rb1B Rb 0.67211(6) 0.60843(13) 0.25220(4)
Rb1C Rb 0.32789(6) -0.39157(13) 0.24780(4)
Rb1F Rb 0.32789(6) 0.39157(13) -0.25220(4)
Rb1G Rb 0.67211(6) 0.39157(13) -0.24780(4)
loop_
_geom_bond_atom_site_label_1
_geom_bond_atom_site_label_2
_geom_bond_site_symmetry_1
_geom_bond_site_symmetry_2
N1 C3 1_555 1_555
N2 C4 1_555 1_555
N3 C5 1_555 1_555
N4 C6 1_555 1_555
C1 C2 1_555 1_555
C2 C3 1_555 1_555
C4 C2 1_555 1_555
C5 C1 1_555 1_555
C6 C1 1_555 1_555
Rb1 N3 1_555 1_555
N1A Rb1 1_555 1_555
N1B Rb1 1_555 1_555
N2F Rb1 1_555 1_555
N2G Rb1 1_555 1_555
N3C Rb1 1_555 1_555
N4E Rb1 1_555 1_555
N4F Rb1 1_555 1_555
Rb1A N1 1_555 1_555
Rb1E N4 1_555 1_555
Rb1B N1 1_555 1_555
Rb1C N3 1_555 1_555
Rb1F N2 1_555 1_555
Rb1G N2 1_555 1_555
N4 Rb1F 1_555 1_555
N1B Rb1C 1_555 1_555
N4E Rb1C 1_555 1_555

#END
