
#######################################################################
#
#                 Cambridge Crystallographic Data Centre
#                                CCDC 
#
#######################################################################
#
# If this CIF has been generated from an entry in the Cambridge 
# Structural Database, then it will include bibliographic, chemical, 
# crystal, experimental, refinement or atomic coordinate data resulting 
# from the CCDC's data processing and validation procedures.
#
#######################################################################

data_BEPNAN
_symmetry_cell_setting           orthorhombic
_symmetry_space_group_name_H-M   'P 21 21 2'
_symmetry_Int_Tables_number      18
_space_group_name_Hall           'P 2 2ab'
loop_
_symmetry_equiv_pos_site_id
_symmetry_equiv_pos_as_xyz
1 x,y,z
2 -x,-y,z
3 1/2+x,1/2-y,-z
4 1/2-x,1/2+y,-z
_cell_length_a                   12.8683(3)
_cell_length_b                   16.2028(4)
_cell_length_c                   5.47060(10)
_cell_angle_alpha                90
_cell_angle_beta                 90
_cell_angle_gamma                90
_cell_volume                     1140.63
loop_
_atom_site_label
_atom_site_type_symbol
_atom_site_fract_x
_atom_site_fract_y
_atom_site_fract_z
Zn1 Zn 1.0000 1.0000 0.78169(6)
O1 O 0.88389(13) 0.97718(9) 0.5594(3)
C1 C 0.5060(2) 0.62525(12) 0.8221(4)
H1 H 0.4366 0.6105 0.8038
C2 C 0.65310(17) 1.00039(18) 0.4675(4)
H2 H 0.5993 0.9945 0.3472
H3 H 0.6964 1.0465 0.4259
H4 H 0.6223 1.0095 0.6251
N1 N 0.56123(16) 0.59032(11) 1.0029(4)
O2 O 0.80771(14) 0.90320(11) 0.8545(3)
C3 C 0.71861(18) 0.92206(13) 0.4744(4)
H5 H 0.7443 0.9097 0.3098
C4 C 0.5481(2) 0.68236(15) 0.6618(4)
H6 H 0.5078 0.7048 0.5374
C5 C 0.70199(19) 0.76946(13) 0.5262(5)
H7 H 0.7755 0.7729 0.5637
H8 H 0.6948 0.7529 0.3567
C6 C 0.81038(19) 0.93294(13) 0.6477(4)
N2 N 0.65250(15) 0.85226(11) 0.5629(4)
H9 H 0.5913 0.8534 0.4831
H10 H 0.6394 0.8594 0.7231
C7 C 0.7081(2) 0.66997(14) 0.8773(5)
H11 H 0.7772 0.6846 0.9020
C8 C 0.65135(18) 0.70558(13) 0.6896(4)
C9 C 0.66079(19) 0.61243(14) 1.0276(5)
H12 H 0.6999 0.5881 1.1510
O1A O 1.11611(13) 1.02282(9) 0.5594(3)
C1A C 1.4940(2) 1.37475(12) 0.8221(4)
H1A H 1.5634 1.3895 0.8038
C2A C 1.34690(17) 0.99961(18) 0.4675(4)
H2A H 1.4007 1.0055 0.3472
H3A H 1.3036 0.9535 0.4259
H4A H 1.3777 0.9905 0.6251
N1A N 1.43877(16) 1.40968(11) 1.0029(4)
O2A O 1.19229(14) 1.09680(11) 0.8545(3)
C3A C 1.28139(18) 1.07794(13) 0.4744(4)
H5A H 1.2557 1.0903 0.3098
C4A C 1.4519(2) 1.31764(15) 0.6618(4)
H6A H 1.4922 1.2952 0.5374
C5A C 1.29801(19) 1.23054(13) 0.5262(5)
H7A H 1.2245 1.2271 0.5637
H8A H 1.3052 1.2471 0.3567
C6A C 1.18962(19) 1.06706(13) 0.6477(4)
N2A N 1.34750(15) 1.14774(11) 0.5629(4)
H9A H 1.4087 1.1466 0.4831
H10A H 1.3606 1.1406 0.7231
C7A C 1.2919(2) 1.33003(14) 0.8773(5)
H11A H 1.2228 1.3154 0.9020
C8A C 1.34865(18) 1.29442(13) 0.6896(4)
C9A C 1.33921(19) 1.38757(14) 1.0276(5)
H12A H 1.3001 1.4119 1.1510
Zn1B Zn 0.5000 0.5000 1.21831(6)
Zn1B_2 Zn 1.5000 1.5000 1.21831(6)
N1B N 1.06123(16) 0.90968(11) 0.9971(4)
N1C N 0.93877(16) 1.09032(11) 0.9971(4)
N3 N 0.9966(2) 0.65600(10) 0.9351(3)
O3 O 0.96247(13) 0.67464(11) 0.7267(3)
O4 O 0.94018(14) 0.65383(12) 1.1177(3)
O5 O 1.09251(14) 0.63958(12) 0.9540(3)
loop_
_geom_bond_atom_site_label_1
_geom_bond_atom_site_label_2
_geom_bond_site_symmetry_1
_geom_bond_site_symmetry_2
Zn1 O1 1_555 1_555
O1 C6 1_555 1_555
C1 H1 1_555 1_555
C2 H2 1_555 1_555
H3 C2 1_555 1_555
H4 C2 1_555 1_555
N1 C1 1_555 1_555
O2 C6 1_555 1_555
C3 C2 1_555 1_555
H5 C3 1_555 1_555
C4 C1 1_555 1_555
H6 C4 1_555 1_555
C5 H7 1_555 1_555
H8 C5 1_555 1_555
C6 C3 1_555 1_555
N2 C3 1_555 1_555
H9 N2 1_555 1_555
H10 N2 1_555 1_555
C7 H11 1_555 1_555
C8 C4 1_555 1_555
C9 N1 1_555 1_555
H12 C9 1_555 1_555
N3 O3 1_555 1_555
O4 N3 1_555 1_555
O5 N3 1_555 1_555
O1A Zn1 1_555 1_555
C1A H1A 1_555 1_555
C2A H2A 1_555 1_555
H3A C2A 1_555 1_555
H4A C2A 1_555 1_555
N1A C1A 1_555 1_555
O2A C6A 1_555 1_555
C3A C2A 1_555 1_555
H5A C3A 1_555 1_555
C4A C1A 1_555 1_555
H6A C4A 1_555 1_555
C5A H7A 1_555 1_555
H8A C5A 1_555 1_555
C6A O1A 1_555 1_555
N2A C3A 1_555 1_555
H9A N2A 1_555 1_555
H10A N2A 1_555 1_555
C7A H11A 1_555 1_555
C8A C4A 1_555 1_555
C9A N1A 1_555 1_555
H12A C9A 1_555 1_555
Zn1B N1 1_555 1_555
Zn1B_2 N1A 1_555 1_555
N1B Zn1 1_555 1_555
N1C Zn1 1_555 1_555
C5 N2 1_555 1_555
C5 C8 1_555 1_555
C7 C8 1_555 1_555
C7 C9 1_555 1_555
C3A C6A 1_555 1_555
C5A N2A 1_555 1_555
C5A C8A 1_555 1_555
C7A C8A 1_555 1_555
C7A C9A 1_555 1_555

#END
