
#######################################################################
#
#                 Cambridge Crystallographic Data Centre
#                                CCDC 
#
#######################################################################
#
# If this CIF has been generated from an entry in the Cambridge 
# Structural Database, then it will include bibliographic, chemical, 
# crystal, experimental, refinement or atomic coordinate data resulting 
# from the CCDC's data processing and validation procedures.
#
#######################################################################

data_BEPSIZ
_symmetry_cell_setting           orthorhombic
_symmetry_space_group_name_H-M   'C m c 21'
_symmetry_Int_Tables_number      36
_space_group_name_Hall           'C 2n -2'
loop_
_symmetry_equiv_pos_site_id
_symmetry_equiv_pos_as_xyz
1 x,y,z
2 -x,-y,1/2+z
3 x,-y,1/2+z
4 -x,y,z
5 1/2+x,1/2+y,z
6 1/2-x,1/2-y,1/2+z
7 1/2+x,1/2-y,1/2+z
8 1/2-x,1/2+y,z
_cell_length_a                   32.148(3)
_cell_length_b                   9.461(2)
_cell_length_c                   7.2340(10)
_cell_angle_alpha                90
_cell_angle_beta                 90
_cell_angle_gamma                90
_cell_volume                     2200.24
loop_
_atom_site_label
_atom_site_type_symbol
_atom_site_fract_x
_atom_site_fract_y
_atom_site_fract_z
Ag1 Ag -0.06148(3) 0.03149(12) 0.5880(3)
S1 S 0.0000 -0.1016(6) 0.3183(9)
S2 S -0.08135(11) 0.1693(4) 0.3068(6)
C1 C 0.0000 -0.280(2) 0.387(3)
N1 N -0.0357(3) -0.3447(11) 0.4133(16)
C2 C -0.0392(4) -0.4883(14) 0.488(2)
C3 C 0.0000 -0.573(3) 0.453(3)
C4 C -0.1362(4) -0.1844(17) -0.195(3)
N2 N -0.1521(4) -0.3098(15) -0.222(3)
C5 C -0.1978(5) -0.339(2) -0.231(3)
C6 C -0.2184(5) -0.2038(18) -0.299(3)
C7 C -0.2060(5) -0.0800(18) -0.179(3)
N3 N -0.1601(5) -0.0749(13) -0.179(3)
H1 H 0.0000 -0.60(3) 0.33(4)
H2 H 0.0682 -0.5304 0.4079
H3 H 0.0604 -0.4829 0.5749
H4 H -0.133(6) -0.35(2) -0.19(4)
H5 H -0.159(7) 0.00(2) -0.23(5)
Ag1B Ag -0.06148(3) -0.03149(12) 0.0880(3)
S1A S 0.0000 0.1016(6) 0.8183(9)
Ag1A Ag 0.06148(3) -0.03149(12) 0.0880(3)
C2C C 0.0392(4) -0.4883(14) 0.488(2)
N1C N 0.0357(3) -0.3447(11) 0.4133(16)
H2C H -0.0682 -0.5304 0.4079
H3C H -0.0604 -0.4829 0.5749
S2B S -0.08135(11) -0.1693(4) -0.1932(6)
Ag1_2 Ag -0.06148(3) 0.03149(12) -0.4120(3)
C4B C -0.1362(4) 0.1844(17) 0.305(3)
N2B N -0.1521(4) 0.3098(15) 0.278(3)
C5B C -0.1978(5) 0.339(2) 0.269(3)
C6B C -0.2184(5) 0.2038(18) 0.201(3)
C7B C -0.2060(5) 0.0800(18) 0.321(3)
N3B N -0.1601(5) 0.0749(13) 0.321(3)
H5B H -0.159(7) 0.00(2) 0.27(5)
H4B H -0.133(6) 0.35(2) 0.31(4)
S2B_2 S -0.08135(11) -0.1693(4) 0.8068(6)
N4 N 0.1388(4) -0.2939(15) 0.275(2)
O1 O 0.1180(3) -0.1988(13) 0.340(2)
O2 O 0.1231(4) -0.4075(14) 0.231(2)
O3 O 0.1770(4) -0.2709(15) 0.242(2)
loop_
_geom_bond_atom_site_label_1
_geom_bond_atom_site_label_2
_geom_bond_site_symmetry_1
_geom_bond_site_symmetry_2
Ag1 S2 1_555 1_555
S1 C1 1_555 1_555
S2 Ag1B 1_555 1_555
C1 N1 1_555 1_555
N1 C2 1_555 1_555
C2 C3 1_555 1_555
C3 H1 1_555 1_555
C4 N2 1_555 1_555
N2 C5 1_555 1_555
C5 C6 1_555 1_555
C6 C7 1_555 1_555
C7 N3 1_555 1_555
N3 C4 1_555 1_555
N4 O1 1_555 1_555
O2 N4 1_555 1_555
O3 N4 1_555 1_555
H2 C2C 1_555 1_555
H3 C2C 1_555 1_555
H4 N2 1_555 1_555
H5 N3 1_555 1_555
Ag1B S1 1_555 1_555
S1A Ag1 1_555 1_555
Ag1A S1 1_555 1_555
C2C C3 1_555 1_555
N1C C1 1_555 1_555
H2C C2 1_555 1_555
H3C C2 1_555 1_555
S2B C4 1_555 1_555
Ag1_2 S2B 1_555 1_555
C4B S2 1_555 1_555
N2B C4B 1_555 1_555
C5B N2B 1_555 1_555
C6B C5B 1_555 1_555
C7B C6B 1_555 1_555
N3B C4B 1_555 1_555
H5B N3B 1_555 1_555
H4B N2B 1_555 1_555
S2B_2 Ag1 1_555 1_555
Ag1B S2B 1_555 1_555
C2C N1C 1_555 1_555
C7B N3B 1_555 1_555

#END
