
#######################################################################
#
#                 Cambridge Crystallographic Data Centre
#                                CCDC 
#
#######################################################################
#
# If this CIF has been generated from an entry in the Cambridge 
# Structural Database, then it will include bibliographic, chemical, 
# crystal, experimental, refinement or atomic coordinate data resulting 
# from the CCDC's data processing and validation procedures.
#
#######################################################################

data_BEPTUM
_symmetry_cell_setting           monoclinic
_symmetry_space_group_name_H-M   'P 21/c'
_symmetry_Int_Tables_number      14
_space_group_name_Hall           '-P 2ybc'
loop_
_symmetry_equiv_pos_site_id
_symmetry_equiv_pos_as_xyz
1 x,y,z
2 x,1/2-y,1/2+z
3 -x,-y,-z
4 -x,1/2+y,1/2-z
_cell_length_a                   10.4712(3)
_cell_length_b                   10.9983(4)
_cell_length_c                   10.4124(2)
_cell_angle_alpha                90
_cell_angle_beta                 107.962(2)
_cell_angle_gamma                90
_cell_volume                     1140.7
loop_
_atom_site_label
_atom_site_type_symbol
_atom_site_fract_x
_atom_site_fract_y
_atom_site_fract_z
Mn1 Mn -0.48774(4) 0.13707(4) 0.08906(4)
O1 O -0.4594(2) 0.23927(19) -0.0844(2)
O2 O -0.5225(2) 0.3977(2) -0.2241(2)
O3 O -0.3681(2) -0.00833(18) 0.0299(2)
O4 O -0.1748(2) -0.0420(2) -0.0150(3)
N1 N -0.6270(3) 0.3034(2) 0.0526(2)
N2 N -0.2659(2) 0.1758(2) 0.1914(2)
C1 C -0.7170(4) 0.3327(3) 0.1165(3)
H1 H -0.7247 0.2825 0.1856
C2 C -0.7980(3) 0.4340(3) 0.0835(3)
H2 H -0.8575 0.4523 0.1311
C3 C -0.7902(4) 0.5077(3) -0.0205(4)
H3 H -0.8442 0.5763 -0.0445
C4 C -0.6997(3) 0.4774(3) -0.0889(3)
H4 H -0.6926 0.5250 -0.1601
C5 C -0.6205(3) 0.3754(2) -0.0494(3)
C6 C -0.5246(3) 0.3340(3) -0.1255(3)
C7 C -0.2131(3) 0.2625(3) 0.2850(3)
H5 H -0.2703 0.3054 0.3214
C8 C -0.0778(3) 0.2899(3) 0.3287(3)
H6 H -0.0449 0.3502 0.3929
C9 C 0.0080(3) 0.2263(3) 0.2755(3)
H7 H 0.0994 0.2435 0.3035
C10 C -0.0438(3) 0.1360(3) 0.1796(3)
H8 H 0.0122 0.0919 0.1427
C11 C -0.1808(3) 0.1137(3) 0.1403(3)
C12 C -0.2436(3) 0.0126(3) 0.0423(3)
O2A O -0.5225(2) 0.1023(2) 0.2759(2)
Mn1A Mn -0.48774(4) 0.36293(4) -0.41094(4)
Mn1B Mn -0.51226(4) -0.13707(4) -0.08906(4)
O3B O -0.6319(2) 0.00833(18) -0.0299(2)
loop_
_geom_bond_atom_site_label_1
_geom_bond_atom_site_label_2
_geom_bond_site_symmetry_1
_geom_bond_site_symmetry_2
Mn1 O1 1_555 1_555
O1 C6 1_555 1_555
O2 C6 1_555 1_555
O3 Mn1 1_555 1_555
O4 C12 1_555 1_555
N1 Mn1 1_555 1_555
N2 Mn1 1_555 1_555
C1 N1 1_555 1_555
H1 C1 1_555 1_555
C2 C1 1_555 1_555
H2 C2 1_555 1_555
C3 C2 1_555 1_555
H3 C3 1_555 1_555
C4 C3 1_555 1_555
H4 C4 1_555 1_555
C5 N1 1_555 1_555
C6 C5 1_555 1_555
C7 N2 1_555 1_555
H5 C7 1_555 1_555
C8 C7 1_555 1_555
H6 C8 1_555 1_555
C9 C8 1_555 1_555
H7 C9 1_555 1_555
C10 C9 1_555 1_555
H8 C10 1_555 1_555
C11 N2 1_555 1_555
C12 O3 1_555 1_555
O2A Mn1 1_555 1_555
Mn1A O2 1_555 1_555
Mn1B O3 1_555 1_555
O3B Mn1 1_555 1_555
C4 C5 1_555 1_555
C10 C11 1_555 1_555
C11 C12 1_555 1_555
Mn1B O3B 1_555 1_555

#END
