
#######################################################################
#
#                 Cambridge Crystallographic Data Centre
#                                CCDC 
#
#######################################################################
#
# If this CIF has been generated from an entry in the Cambridge 
# Structural Database, then it will include bibliographic, chemical, 
# crystal, experimental, refinement or atomic coordinate data resulting 
# from the CCDC's data processing and validation procedures.
#
#######################################################################

data_BEPTOG
_symmetry_cell_setting           monoclinic
_symmetry_space_group_name_H-M   'P 21/c'
_symmetry_Int_Tables_number      14
_space_group_name_Hall           '-P 2ybc'
loop_
_symmetry_equiv_pos_site_id
_symmetry_equiv_pos_as_xyz
1 x,y,z
2 x,1/2-y,1/2+z
3 -x,-y,-z
4 -x,1/2+y,1/2-z
_cell_length_a                   11.8104(13)
_cell_length_b                   9.9576(10)
_cell_length_c                   8.3149(9)
_cell_angle_alpha                90
_cell_angle_beta                 100.213(2)
_cell_angle_gamma                90
_cell_volume                     962.365
loop_
_atom_site_label
_atom_site_type_symbol
_atom_site_fract_x
_atom_site_fract_y
_atom_site_fract_z
Mn1 Mn -0.13604(3) -0.42279(4) 0.21644(4)
Cl1 Cl -0.28945(5) -0.24808(7) 0.17725(8)
O1 O 0.03393(18) -0.33257(19) 0.2584(3)
O2 O 0.03249(15) -0.10884(19) 0.2583(2)
O3 O -0.1387(2) -0.4237(2) -0.0459(3)
H1 H -0.0732 -0.4121 -0.0637
O4 O -0.1383(2) -0.4220(2) 0.4770(2)
H2 H -0.0727 -0.4114 0.5274
N1 N 0.26177(18) -0.0978(2) 0.3138(3)
C1 C 0.3767(2) -0.0914(3) 0.3412(4)
H3 H 0.4111 -0.0071 0.3476
C2 C 0.4465(3) -0.2025(4) 0.3604(5)
H4 H 0.5262 -0.1939 0.3802
C3 C 0.3956(3) -0.3255(4) 0.3494(5)
H5 H 0.4408 -0.4026 0.3609
C4 C 0.2770(3) -0.3362(3) 0.3212(5)
H6 H 0.2413 -0.4198 0.3142
C5 C 0.2130(2) -0.2199(3) 0.3036(3)
C6 C 0.0832(2) -0.2211(3) 0.2713(3)
H7 H -0.184(3) -0.377(4) 0.511(4)
H8 H -0.180(3) -0.381(3) -0.104(4)
O2C O -0.03249(15) -0.60884(19) 0.2417(2)
Mn1C Mn 0.13604(3) 0.07721(4) 0.28356(4)
N1C N -0.26177(18) -0.5978(2) 0.1862(3)
loop_
_geom_bond_atom_site_label_1
_geom_bond_atom_site_label_2
_geom_bond_site_symmetry_1
_geom_bond_site_symmetry_2
Mn1 Cl1 1_555 1_555
O1 Mn1 1_555 1_555
O2 C6 1_555 1_555
O3 Mn1 1_555 1_555
H1 O3 1_555 1_555
O4 Mn1 1_555 1_555
H2 O4 1_555 1_555
N1 C1 1_555 1_555
C1 H3 1_555 1_555
C2 C1 1_555 1_555
H4 C2 1_555 1_555
C3 C2 1_555 1_555
H5 C3 1_555 1_555
C4 C3 1_555 1_555
H6 C4 1_555 1_555
C5 N1 1_555 1_555
C6 O1 1_555 1_555
H7 O4 1_555 1_555
H8 O3 1_555 1_555
O2C Mn1 1_555 1_555
Mn1C O2 1_555 1_555
N1C Mn1 1_555 1_555
N1 Mn1C 1_555 1_555
C4 C5 1_555 1_555
C5 C6 1_555 1_555

#END
