
#######################################################################
#
#                 Cambridge Crystallographic Data Centre
#                                CCDC 
#
#######################################################################
#
# If this CIF has been generated from an entry in the Cambridge 
# Structural Database, then it will include bibliographic, chemical, 
# crystal, experimental, refinement or atomic coordinate data resulting 
# from the CCDC's data processing and validation procedures.
#
#######################################################################

data_BEPVOI
_symmetry_cell_setting           monoclinic
_symmetry_space_group_name_H-M   'P 21/n'
_symmetry_Int_Tables_number      14
_space_group_name_Hall           '-P 2yn'
loop_
_symmetry_equiv_pos_site_id
_symmetry_equiv_pos_as_xyz
1 x,y,z
2 1/2+x,1/2-y,1/2+z
3 -x,-y,-z
4 1/2-x,1/2+y,1/2-z
_cell_length_a                   8.625(8)
_cell_length_b                   12.192(12)
_cell_length_c                   11.590(11)
_cell_angle_alpha                90
_cell_angle_beta                 94.69(9)
_cell_angle_gamma                90
_cell_volume                     1214.68
loop_
_atom_site_label
_atom_site_type_symbol
_atom_site_fract_x
_atom_site_fract_y
_atom_site_fract_z
Ag1 Ag -0.52865(3) 0.187290(16) 0.483110(18)
N1 N -0.4315(3) 0.25383(16) 0.32682(18)
H3 H -0.5162 0.2748 0.2768
N3 N -0.5262(3) 1.10505(17) 0.65227(18)
C1 C -0.4204(3) 0.4319(2) 0.4282(2)
C2 C -0.4098(4) 0.4154(2) 0.5468(2)
H4 H -0.3474 0.3573 0.5796
C3 C -0.5115(4) 0.5177(2) 0.3822(2)
H5 H -0.5196 0.5303 0.3011
C4 C -0.3377(4) 0.3549(2) 0.3519(3)
H6 H -0.2352 0.3348 0.3909
H7 H -0.3197 0.3923 0.2783
C5 C -0.3407(3) 0.1746(2) 0.2615(2)
H8 H -0.3288 0.2037 0.1829
H9 H -0.2355 0.1657 0.3014
C6 C -0.5961(3) 1.0067(2) 0.6551(2)
H10 H -0.6611 0.9848 0.5890
C7 C -0.4203(3) 0.0648(2) 0.2520(2)
C8 C -0.5145(3) 0.0314(2) 0.1562(2)
H11 H -0.5312 0.0784 0.0910
C9 C -0.5845(3) -0.0707(2) 0.1554(2)
H12 H -0.6463 -0.0956 0.0889
C10 C -0.4368(3) 1.1360(2) 0.7473(2)
H13 H -0.3865 1.2053 0.7474
C3B C -0.4885(4) 0.4823(2) 0.6178(2)
C1B C -0.5796(3) 0.5681(2) 0.5718(2)
C2B C -0.5902(4) 0.5846(2) 0.4532(2)
H4B H -0.6526 0.6427 0.4204
C4B C -0.6623(4) 0.6451(2) 0.6481(3)
N1B N -0.5685(3) 0.74617(16) 0.67318(18)
Ag1B Ag -0.47135(3) 0.812710(16) 0.516890(18)
N3B N -0.4738(3) 0.89495(17) 0.34773(18)
Ag1_2 Ag -0.52865(3) 1.187290(16) 0.483110(18)
H3B H -0.4838 0.7252 0.7232
C5B C -0.6593(3) 0.8254(2) 0.7385(2)
H8B H -0.6712 0.7963 0.8171
H9B H -0.7645 0.8343 0.6986
C7B C -0.5797(3) 0.9352(2) 0.7480(2)
N3_2 N -0.5262(3) 0.10505(17) 0.65227(18)
C9B C -0.4155(3) 1.0707(2) 0.8446(2)
C8B C -0.4855(3) 0.9686(2) 0.8438(2)
H11B H -0.4688 0.9216 0.9090
H12B H -0.3537 1.0956 0.9111
H6B H -0.7648 0.6652 0.6091
H7B H -0.6803 0.6077 0.7217
H5B H -0.4804 0.4697 0.6989
C6B C -0.4039(3) -0.0067(2) 0.3449(2)
C10B C -0.5632(3) -0.1360(2) 0.2527(2)
N3B_2 N -0.4738(3) -0.10505(17) 0.34773(18)
H10B H -0.3389 0.0152 0.4110
H13B H -0.6135 -0.2053 0.2526
Ag1B_2 Ag -0.47135(3) -0.187290(16) 0.516890(18)
O1 O -0.1577(3) -0.19765(18) 0.51478(19)
O2 O -0.2333(2) -0.05765(18) 0.61039(17)
O3 O 0.0128(3) -0.0854(2) 0.59767(18)
N2 N -0.1248(3) -0.1136(2) 0.57440(19)
O4 O -0.1409(2) 0.17703(17) 0.61672(18)
H1 H -0.0661 0.1777 0.5617
H2 H -0.1553 0.1106 0.6383
loop_
_geom_bond_atom_site_label_1
_geom_bond_atom_site_label_2
_geom_bond_site_symmetry_1
_geom_bond_site_symmetry_2
Ag1 N1 1_555 1_555
O1 N2 1_555 1_555
O2 N2 1_555 1_555
O3 N2 1_555 1_555
O4 H1 1_555 1_555
H2 O4 1_555 1_555
N1 H3 1_555 1_555
N3 C6 1_555 1_555
C1 C2 1_555 1_555
C2 H4 1_555 1_555
C3 C1 1_555 1_555
H5 C3 1_555 1_555
C4 N1 1_555 1_555
H6 C4 1_555 1_555
H7 C4 1_555 1_555
C5 N1 1_555 1_555
H8 C5 1_555 1_555
H9 C5 1_555 1_555
C6 H10 1_555 1_555
C7 C5 1_555 1_555
C8 C7 1_555 1_555
H11 C8 1_555 1_555
C9 C8 1_555 1_555
H12 C9 1_555 1_555
C10 N3 1_555 1_555
H13 C10 1_555 1_555
C3B C2 1_555 1_555
C1B C3B 1_555 1_555
C2B C3 1_555 1_555
H4B C2B 1_555 1_555
C4B C1B 1_555 1_555
N1B C4B 1_555 1_555
Ag1B N1B 1_555 1_555
N3B Ag1B 1_555 1_555
Ag1_2 N3 1_555 1_555
H3B N1B 1_555 1_555
C5B N1B 1_555 1_555
H8B C5B 1_555 1_555
H9B C5B 1_555 1_555
C7B C6 1_555 1_555
N3_2 Ag1 1_555 1_555
C9B C10 1_555 1_555
C8B C7B 1_555 1_555
H11B C8B 1_555 1_555
H12B C9B 1_555 1_555
H6B C4B 1_555 1_555
H7B C4B 1_555 1_555
H5B C3B 1_555 1_555
C6B C7 1_555 1_555
C10B C9 1_555 1_555
N3B_2 C6B 1_555 1_555
H10B C6B 1_555 1_555
H13B C10B 1_555 1_555
Ag1B_2 N3B_2 1_555 1_555
C1 C4 1_555 1_555
C1B C2B 1_555 1_555
C5B C7B 1_555 1_555
C9B C8B 1_555 1_555
C10B N3B_2 1_555 1_555

#END
