
#######################################################################
#
#                 Cambridge Crystallographic Data Centre
#                                CCDC 
#
#######################################################################
#
# If this CIF has been generated from an entry in the Cambridge 
# Structural Database, then it will include bibliographic, chemical, 
# crystal, experimental, refinement or atomic coordinate data resulting 
# from the CCDC's data processing and validation procedures.
#
#######################################################################

data_BEPVAU
_symmetry_cell_setting           tetragonal
_symmetry_space_group_name_H-M   'P 42/n'
_symmetry_Int_Tables_number      86
_space_group_name_Hall           '-P 4bc'
loop_
_symmetry_equiv_pos_site_id
_symmetry_equiv_pos_as_xyz
1 x,y,z
2 -y,1/2+x,1/2+z
3 1/2+y,-x,1/2+z
4 1/2+x,1/2+y,-z
5 -x,-y,-z
6 y,1/2-x,1/2-z
7 1/2-y,x,1/2-z
8 1/2-x,1/2-y,z
_cell_length_a                   9.7274(3)
_cell_length_b                   9.7274(3)
_cell_length_c                   15.6894(8)
_cell_angle_alpha                90
_cell_angle_beta                 90
_cell_angle_gamma                90
_cell_volume                     1484.57
loop_
_atom_site_label
_atom_site_type_symbol
_atom_site_fract_x
_atom_site_fract_y
_atom_site_fract_z
Mn1 Mn 0.25700(4) -0.06586(3) 0.22350(2)
Cl1 Cl 0.42784(6) -0.25680(6) 0.21038(5)
O1 O 0.24349(17) -0.02340(16) 0.36308(11)
O2 O 0.10045(16) 0.09144(15) 0.28142(9)
N1 N 0.00370(19) 0.2394(2) 0.41173(11)
C1 C -0.0476(3) 0.3101(3) 0.47690(16)
H1 H -0.1123 0.3781 0.4655
C2 C -0.0098(3) 0.2880(3) 0.56041(17)
H2 H -0.0472 0.3411 0.6039
C3 C 0.0833(3) 0.1868(3) 0.57850(15)
H3 H 0.1090 0.1685 0.6345
C4 C 0.1384(3) 0.1123(2) 0.51164(15)
H4 H 0.2025 0.0434 0.5219
C5 C 0.0972(2) 0.1414(2) 0.42966(14)
C6 C 0.1513(2) 0.0644(2) 0.35371(13)
Mn1G Mn 0.24300(4) -0.43414(3) 0.22350(2)
Cl1G Cl 0.07216(6) -0.24320(6) 0.21038(5)
O2F O 0.40856(15) 0.10045(16) 0.21858(9)
Mn1E Mn -0.06586(3) 0.24300(4) 0.27650(2)
N1F N 0.2606(2) 0.00370(19) 0.08827(11)
loop_
_geom_bond_atom_site_label_1
_geom_bond_atom_site_label_2
_geom_bond_site_symmetry_1
_geom_bond_site_symmetry_2
Mn1 Cl1 1_555 1_555
Cl1 Mn1G 1_555 1_555
O1 Mn1 1_555 1_555
O2 Mn1 1_555 1_555
N1 C1 1_555 1_555
C1 H1 1_555 1_555
C2 C1 1_555 1_555
H2 C2 1_555 1_555
C3 C2 1_555 1_555
H3 C3 1_555 1_555
C4 C3 1_555 1_555
H4 C4 1_555 1_555
C5 N1 1_555 1_555
C6 O1 1_555 1_555
Mn1G Cl1G 1_555 1_555
Cl1G Mn1 1_555 1_555
O2F Mn1 1_555 1_555
Mn1E O2 1_555 1_555
N1F Mn1 1_555 1_555
O2 C6 1_555 1_555
N1 Mn1E 1_555 1_555
C4 C5 1_555 1_555
C5 C6 1_555 1_555

#END
