
#######################################################################
#
#                 Cambridge Crystallographic Data Centre
#                                CCDC 
#
#######################################################################
#
# If this CIF has been generated from an entry in the Cambridge 
# Structural Database, then it will include bibliographic, chemical, 
# crystal, experimental, refinement or atomic coordinate data resulting 
# from the CCDC's data processing and validation procedures.
#
#######################################################################

data_BEPWOK
_symmetry_cell_setting           monoclinic
_symmetry_space_group_name_H-M   'P 21/m'
_symmetry_Int_Tables_number      11
_space_group_name_Hall           '-P 2yb'
loop_
_symmetry_equiv_pos_site_id
_symmetry_equiv_pos_as_xyz
1 x,y,z
2 -x,1/2+y,-z
3 -x,-y,-z
4 x,1/2-y,z
_cell_length_a                   12.4017(6)
_cell_length_b                   15.5770(13)
_cell_length_c                   20.0534(17)
_cell_angle_alpha                90
_cell_angle_beta                 104.298(6)
_cell_angle_gamma                90
_cell_volume                     3753.94
loop_
_atom_site_label
_atom_site_type_symbol
_atom_site_fract_x
_atom_site_fract_y
_atom_site_fract_z
Cd1 Cd 0.71413(12) 0.2500 0.44488(7)
Cd2 Cd 1.02246(9) -0.00156(6) 0.91551(5)
Cl1 Cl 0.9466(4) 0.1073(2) 0.98561(18)
C1 C 0.5751(12) 0.2052(10) 0.2242(8)
H1 H 0.5508 0.1687 0.1854
C2 C 0.6185(9) 0.1793(8) 0.2935(6)
C3 C 0.6349(11) 0.0976(9) 0.3194(7)
C4 C 0.6545(9) 0.0669(7) 0.3863(5)
C5 C 0.6868(10) -0.0198(9) 0.4132(6)
H2 H 0.6998 -0.0682 0.3874
C6 C 0.6938(10) -0.0174(8) 0.4746(6)
H3 H 0.7104 -0.0669 0.5030
C7 C 0.6751(10) 0.0653(9) 0.5017(6)
C8 C 0.6754(8) 0.0919(7) 0.5650(5)
C9 C 0.6682(9) 0.1799(8) 0.5864(6)
C10 C 0.6473(9) 0.2052(8) 0.6501(6)
H4 H 0.6357 0.1686 0.6855
N1 N 0.6374(12) 0.2500 0.3334(7)
N2 N 0.6542(7) 0.1156(6) 0.4393(5)
N3 N 0.6787(9) 0.2500 0.5491(5)
C11 C 0.6260(10) 0.0265(8) 0.2606(6)
C12 C 0.7006(10) 0.0336(8) 0.2191(6)
H5 H 0.7466 0.0830 0.2228
C13 C 0.7085(12) -0.0293(10) 0.1734(8)
C14 C 0.6345(13) -0.0998(11) 0.1679(8)
H6 H 0.6346 -0.1420 0.1337
C15 C 0.5714(13) -0.1088(12) 0.2046(8)
H7 H 0.5319 -0.1614 0.2020
C16 C 0.5515(13) -0.0415(10) 0.2542(8)
H8 H 0.4946 -0.0451 0.2783
C17 C 0.7935(12) -0.0181(9) 0.1324(7)
O1 O 0.8157(8) -0.0781(7) 0.0989(5)
O2 O 0.8516(8) 0.0521(7) 0.1391(5)
C18 C 0.6830(9) 0.0319(8) 0.6174(6)
C19 C 0.7613(10) 0.0353(9) 0.6805(6)
H9 H 0.8101 0.0832 0.6877
C20 C 0.7757(11) -0.0218(8) 0.7325(6)
C21 C 0.7042(11) -0.0993(9) 0.7234(7)
H10 H 0.7149 -0.1410 0.7589
C22 C 0.6214(11) -0.1113(9) 0.6630(7)
H11 H 0.5729 -0.1595 0.6561
C23 C 0.6147(9) -0.0448(7) 0.6112(6)
H12 H 0.5601 -0.0524 0.5690
C24 C 0.8619(12) -0.0116(9) 0.7993(7)
O3 O 0.8728(8) -0.0765(7) 0.8441(5)
O4 O 0.9239(7) 0.0510(6) 0.8068(4)
O5 O 0.9076(10) 0.2500 0.4541(6)
C1C C 0.5751(12) 0.2948(10) 0.2242(8)
H1C H 0.5508 0.3313 0.1854
C2C C 0.6185(9) 0.3207(8) 0.2935(6)
C3C C 0.6349(11) 0.4024(9) 0.3194(7)
C4C C 0.6545(9) 0.4331(7) 0.3863(5)
C5C C 0.6868(10) 0.5198(9) 0.4132(6)
H2C H 0.6998 0.5682 0.3874
C6C C 0.6938(10) 0.5174(8) 0.4746(6)
H3C H 0.7104 0.5669 0.5030
C7C C 0.6751(10) 0.4347(9) 0.5017(6)
C8C C 0.6754(8) 0.4081(7) 0.5650(5)
C9C C 0.6682(9) 0.3201(8) 0.5864(6)
C10C C 0.6473(9) 0.2948(8) 0.6501(6)
H4C H 0.6357 0.3314 0.6855
N2C N 0.6542(7) 0.3844(6) 0.4393(5)
C11C C 0.6260(10) 0.4735(8) 0.2606(6)
C12C C 0.7006(10) 0.4664(8) 0.2191(6)
H5C H 0.7466 0.4170 0.2228
C13C C 0.7085(12) 0.5293(10) 0.1734(8)
C14C C 0.6345(13) 0.5998(11) 0.1679(8)
H6C H 0.6346 0.6420 0.1337
C15C C 0.5714(13) 0.6088(12) 0.2046(8)
H7C H 0.5319 0.6614 0.2020
C16C C 0.5515(13) 0.5415(10) 0.2542(8)
H8C H 0.4946 0.5451 0.2783
C17C C 0.7935(12) 0.5181(9) 0.1324(7)
O1C O 0.8157(8) 0.5781(7) 0.0989(5)
O2C O 0.8516(8) 0.4479(7) 0.1391(5)
C18C C 0.6830(9) 0.4681(8) 0.6174(6)
C19C C 0.7613(10) 0.4647(9) 0.6805(6)
H9C H 0.8101 0.4168 0.6877
C20C C 0.7757(11) 0.5218(8) 0.7325(6)
C21C C 0.7042(11) 0.5993(9) 0.7234(7)
H10C H 0.7149 0.6410 0.7589
C22C C 0.6214(11) 0.6113(9) 0.6630(7)
H11C H 0.5729 0.6595 0.6561
C23C C 0.6147(9) 0.5448(7) 0.6112(6)
H12C H 0.5601 0.5524 0.5690
C24C C 0.8619(12) 0.5116(9) 0.7993(7)
O3C O 0.8728(8) 0.5765(7) 0.8441(5)
O4C O 0.9239(7) 0.4490(6) 0.8068(4)
Cd2B Cd 0.97754(9) 0.00156(6) 0.08449(5)
Cl1B Cl 1.0534(4) -0.1073(2) 0.01439(18)
Cd2_2 Cd 1.02246(9) -0.00156(6) -0.08449(5)
Cd2A Cd 0.97754(9) 0.49844(6) 0.08449(5)
Cd2B_2 Cd 0.97754(9) 0.00156(6) 1.08449(5)
Cd2C Cd 1.02246(9) 0.50156(6) 0.91551(5)
Cl1_2 Cl 0.9466(4) 0.1073(2) -0.01439(18)
Cl1B_2 Cl 1.0534(4) -0.1073(2) 1.01439(18)
O1B O 1.1843(8) 0.0781(7) 0.9011(5)
O2B O 1.1484(8) -0.0521(7) 0.8609(5)
O3B O 1.1272(8) 0.0765(7) 0.1559(5)
O4B O 1.0761(7) -0.0510(6) 0.1932(4)
loop_
_geom_bond_atom_site_label_1
_geom_bond_atom_site_label_2
_geom_bond_site_symmetry_1
_geom_bond_site_symmetry_2
Cd1 N1 1_555 1_555
Cd2 Cl1 1_555 1_555
Cl1 Cd2B_2 1_555 1_555
C1 H1 1_555 1_555
C2 C1 1_555 1_555
C3 C2 1_555 1_555
C4 C3 1_555 1_555
C5 C4 1_555 1_555
H2 C5 1_555 1_555
C6 C5 1_555 1_555
H3 C6 1_555 1_555
C7 C6 1_555 1_555
C8 C7 1_555 1_555
C9 C8 1_555 1_555
C10 C9 1_555 1_555
H4 C10 1_555 1_555
N1 C2 1_555 1_555
N2 Cd1 1_555 1_555
N3 Cd1 1_555 1_555
C11 C3 1_555 1_555
C12 C11 1_555 1_555
H5 C12 1_555 1_555
C13 C12 1_555 1_555
C14 C13 1_555 1_555
H6 C14 1_555 1_555
C15 C14 1_555 1_555
H7 C15 1_555 1_555
C16 C11 1_555 1_555
H8 C16 1_555 1_555
C17 C13 1_555 1_555
O1 C17 1_555 1_555
O2 C17 1_555 1_555
C18 C8 1_555 1_555
C19 C18 1_555 1_555
H9 C19 1_555 1_555
C20 C19 1_555 1_555
C21 C20 1_555 1_555
H10 C21 1_555 1_555
C22 C21 1_555 1_555
H11 C22 1_555 1_555
C23 C18 1_555 1_555
H12 C23 1_555 1_555
C24 C20 1_555 1_555
O3 Cd2 1_555 1_555
O4 Cd2 1_555 1_555
O5 Cd1 1_555 1_555
C1C C1 1_555 1_555
H1C C1C 1_555 1_555
C2C N1 1_555 1_555
C3C C2C 1_555 1_555
C4C C3C 1_555 1_555
C5C C4C 1_555 1_555
H2C C5C 1_555 1_555
C6C C5C 1_555 1_555
H3C C6C 1_555 1_555
C7C C6C 1_555 1_555
C8C C7C 1_555 1_555
C9C N3 1_555 1_555
C10C C10 1_555 1_555
H4C C10C 1_555 1_555
N2C Cd1 1_555 1_555
C11C C3C 1_555 1_555
C12C C11C 1_555 1_555
H5C C12C 1_555 1_555
C13C C12C 1_555 1_555
C14C C13C 1_555 1_555
H6C C14C 1_555 1_555
C15C C14C 1_555 1_555
H7C C15C 1_555 1_555
C16C C11C 1_555 1_555
H8C C16C 1_555 1_555
C17C C13C 1_555 1_555
O1C C17C 1_555 1_555
O2C C17C 1_555 1_555
C18C C8C 1_555 1_555
C19C C18C 1_555 1_555
H9C C19C 1_555 1_555
C20C C19C 1_555 1_555
C21C C20C 1_555 1_555
H10C C21C 1_555 1_555
C22C C21C 1_555 1_555
H11C C22C 1_555 1_555
C23C C18C 1_555 1_555
H12C C23C 1_555 1_555
C24C C20C 1_555 1_555
O3C C24C 1_555 1_555
O4C C24C 1_555 1_555
Cd2B O1 1_555 1_555
Cl1B Cd2B 1_555 1_555
Cd2_2 Cl1B 1_555 1_555
Cd2A O1C 1_555 1_555
Cd2B_2 Cl1B_2 1_555 1_555
Cd2C O3C 1_555 1_555
Cl1_2 Cd2B 1_555 1_555
Cl1B_2 Cd2 1_555 1_555
O1B Cd2 1_555 1_555
O2B Cd2 1_555 1_555
O3B Cd2B 1_555 1_555
O4B Cd2B 1_555 1_555
C4 N2 1_555 1_555
C7 N2 1_555 1_555
C9 N3 1_555 1_555
C15 C16 1_555 1_555
O2 Cd2B 1_555 1_555
C22 C23 1_555 1_555
C24 O3 1_555 1_555
C24 O4 1_555 1_555
C1C C2C 1_555 1_555
C4C N2C 1_555 1_555
C7C N2C 1_555 1_555
C8C C9C 1_555 1_555
C9C C10C 1_555 1_555
C15C C16C 1_555 1_555
O2C Cd2A 1_555 1_555
C22C C23C 1_555 1_555
O4C Cd2C 1_555 1_555
Cd2_2 Cl1_2 1_555 1_555

#END
