
#######################################################################
#
#                 Cambridge Crystallographic Data Centre
#                                CCDC 
#
#######################################################################
#
# If this CIF has been generated from an entry in the Cambridge 
# Structural Database, then it will include bibliographic, chemical, 
# crystal, experimental, refinement or atomic coordinate data resulting 
# from the CCDC's data processing and validation procedures.
#
#######################################################################

data_BEPWID
_symmetry_cell_setting           monoclinic
_symmetry_space_group_name_H-M   'P 21/n'
_symmetry_Int_Tables_number      14
_space_group_name_Hall           '-P 2yn'
loop_
_symmetry_equiv_pos_site_id
_symmetry_equiv_pos_as_xyz
1 x,y,z
2 1/2+x,1/2-y,1/2+z
3 -x,-y,-z
4 1/2-x,1/2+y,1/2-z
_cell_length_a                   11.032(9)
_cell_length_b                   11.262(8)
_cell_length_c                   16.086(12)
_cell_angle_alpha                90
_cell_angle_beta                 93.63(6)
_cell_angle_gamma                90
_cell_volume                     1994.55
loop_
_atom_site_label
_atom_site_type_symbol
_atom_site_fract_x
_atom_site_fract_y
_atom_site_fract_z
Ag1 Ag 0.169140(19) 0.224620(18) -0.484390(15)
N1 N 0.43494(19) 0.85310(18) -0.34131(14)
N2 N 0.02346(18) 0.32836(18) -0.41911(14)
N3 N 0.35654(19) 1.19724(17) -0.42033(15)
N4 N -0.1018(2) -0.07611(18) -0.42398(15)
C1 C 0.3156(2) 0.6810(2) -0.38494(17)
C2 C 0.2319(2) 0.6869(2) -0.32481(18)
H1 H 0.2379 0.7479 -0.2840
C3 C 0.1391(2) 0.6040(2) -0.32390(18)
H2 H 0.0818 0.6091 -0.2824
C4 C 0.1284(2) 0.5135(2) -0.38281(18)
C5 C 0.2120(2) 0.5092(2) -0.44335(18)
H3 H 0.2051 0.4492 -0.4849
C6 C 0.3053(2) 0.5908(2) -0.44411(18)
H4 H 0.3630 0.5854 -0.4854
C7 C 0.4163(2) 0.7663(2) -0.39040(17)
H5 H 0.4704 0.7554 -0.4334
C8 C 0.5417(2) 0.9264(2) -0.35571(19)
H6 H 0.5826 0.8946 -0.4040
H7 H 0.5998 0.9221 -0.3063
C9 C 0.3923(2) 1.0852(2) -0.40491(18)
H8 H 0.3354 1.0233 -0.4172
C10 C 0.5069(2) 1.0543(2) -0.37208(17)
C11 C 0.5889(2) 1.1462(2) -0.35342(17)
H9 H 0.6690 1.1291 -0.3315
C12 C 0.5529(2) 1.2616(2) -0.36710(18)
H10 H 0.6069 1.3253 -0.3532
C13 C 0.4373(2) 1.2839(2) -0.40134(18)
H11 H 0.4138 1.3639 -0.4119
C14 C 0.0280(2) 0.4278(2) -0.38000(18)
H12 H -0.0377 0.4474 -0.3471
C15 C -0.0890(2) 0.2589(2) -0.4136(2)
H13 H -0.1380 0.2642 -0.4672
H14 H -0.1375 0.2931 -0.3697
C16 C -0.1171(2) 0.0405(2) -0.44038(18)
H15 H -0.1693 0.0623 -0.4871
C17 C -0.0618(2) 0.1300(2) -0.39375(18)
C18 C 0.0172(3) 0.0980(2) -0.32750(19)
H16 H 0.0584 0.1569 -0.2943
C19 C 0.0352(3) -0.0207(3) -0.3104(2)
H17 H 0.0900 -0.0448 -0.2656
C20 C -0.0270(3) -0.1041(2) -0.3590(2)
H18 H -0.0158 -0.1857 -0.3454
N3_2 N 0.35654(19) 0.19724(17) -0.42033(15)
Ag1_2 Ag 0.169140(19) 1.224620(18) -0.484390(15)
N4B N 0.1018(2) 0.07611(18) -0.57602(15)
Ag1B Ag -0.169140(19) -0.224620(18) -0.515610(15)
Cl1 Cl 0.28219(6) -0.60568(5) -0.65813(4)
O1 O 0.32018(19) -0.69592(17) -0.71350(13)
O2 O 0.17158(17) -0.64270(17) -0.62266(13)
O3 O 0.37488(18) -0.58479(19) -0.59347(13)
O4 O 0.25842(18) -0.49722(16) -0.70246(14)
loop_
_geom_bond_atom_site_label_1
_geom_bond_atom_site_label_2
_geom_bond_site_symmetry_1
_geom_bond_site_symmetry_2
Ag1 N2 1_555 1_555
Cl1 O1 1_555 1_555
O2 Cl1 1_555 1_555
O3 Cl1 1_555 1_555
O4 Cl1 1_555 1_555
N1 C7 1_555 1_555
N2 C14 1_555 1_555
N3 C9 1_555 1_555
N4 C16 1_555 1_555
C1 C2 1_555 1_555
C2 H1 1_555 1_555
C3 C2 1_555 1_555
H2 C3 1_555 1_555
C4 C3 1_555 1_555
C5 C4 1_555 1_555
H3 C5 1_555 1_555
C6 C1 1_555 1_555
H4 C6 1_555 1_555
C7 C1 1_555 1_555
H5 C7 1_555 1_555
C8 N1 1_555 1_555
H6 C8 1_555 1_555
H7 C8 1_555 1_555
C9 H8 1_555 1_555
C10 C8 1_555 1_555
C11 C10 1_555 1_555
H9 C11 1_555 1_555
C12 C11 1_555 1_555
H10 C12 1_555 1_555
C13 N3 1_555 1_555
H11 C13 1_555 1_555
C14 C4 1_555 1_555
H12 C14 1_555 1_555
C15 N2 1_555 1_555
H13 C15 1_555 1_555
H14 C15 1_555 1_555
C16 H15 1_555 1_555
C17 C15 1_555 1_555
C18 C17 1_555 1_555
H16 C18 1_555 1_555
C19 C18 1_555 1_555
H17 C19 1_555 1_555
C20 N4 1_555 1_555
H18 C20 1_555 1_555
N3_2 Ag1 1_555 1_555
Ag1_2 N3 1_555 1_555
N4B Ag1 1_555 1_555
Ag1B N4 1_555 1_555
C5 C6 1_555 1_555
C9 C10 1_555 1_555
C12 C13 1_555 1_555
C16 C17 1_555 1_555
C19 C20 1_555 1_555

#END
