
#######################################################################
#
#                 Cambridge Crystallographic Data Centre
#                                CCDC 
#
#######################################################################
#
# If this CIF has been generated from an entry in the Cambridge 
# Structural Database, then it will include bibliographic, chemical, 
# crystal, experimental, refinement or atomic coordinate data resulting 
# from the CCDC's data processing and validation procedures.
#
#######################################################################

data_BEPWEZ
_symmetry_cell_setting           monoclinic
_symmetry_space_group_name_H-M   'P 21/n'
_symmetry_Int_Tables_number      14
_space_group_name_Hall           '-P 2yn'
loop_
_symmetry_equiv_pos_site_id
_symmetry_equiv_pos_as_xyz
1 x,y,z
2 1/2+x,1/2-y,1/2+z
3 -x,-y,-z
4 1/2-x,1/2+y,1/2-z
_cell_length_a                   9.503(4)
_cell_length_b                   19.101(8)
_cell_length_c                   11.675(4)
_cell_angle_alpha                90
_cell_angle_beta                 100.66(3)
_cell_angle_gamma                90
_cell_volume                     2082.64
loop_
_atom_site_label
_atom_site_type_symbol
_atom_site_fract_x
_atom_site_fract_y
_atom_site_fract_z
Ag1 Ag 0.18722(2) 0.068820(12) -0.284460(17)
N1 N 0.3055(2) -0.03153(12) -0.30539(17)
H1 H 0.3080 -0.0339 -0.3845
N2 N 0.0651(2) 0.14673(11) -0.20070(17)
H2 H -0.0309 0.1385 -0.2315
N3 N -0.1199(2) -0.07805(13) -0.50436(17)
N4 N -0.0528(3) 0.25772(14) -0.5451(2)
C1 C 0.4785(3) -0.01794(14) -0.1189(2)
C2 C 0.4810(3) -0.06927(17) -0.0333(2)
H3 H 0.4685 -0.1171 -0.0553
C3 C 0.4984(3) 0.05078(14) -0.0838(2)
H4 H 0.4979 0.0863 -0.1408
C4 C 0.0384(3) 0.06600(16) -0.03815(18)
C5 C 0.1424(3) 0.01669(15) 0.0063(2)
H5 H 0.2407 0.0277 0.0104
C6 C -0.1045(3) 0.04813(14) -0.0445(2)
H6 H -0.1772 0.0807 -0.0754
C7 C 0.4576(3) -0.03750(15) -0.2464(2)
H7 H 0.5171 -0.0065 -0.2859
H8 H 0.4906 -0.0862 -0.2535
C8 C 0.2221(3) -0.09349(14) -0.2824(2)
H9 H 0.2330 -0.1005 -0.1972
H10 H 0.2603 -0.1355 -0.3158
C9 C 0.0177(3) -0.08544(13) -0.4532(2)
H11 H 0.0865 -0.0909 -0.5021
C10 C 0.0663(3) -0.08560(13) -0.3342(2)
C11 C -0.0343(3) -0.0777(2) -0.2650(2)
H12 H -0.0063 -0.0779 -0.1826
C12 C -0.1768(3) -0.0696(2) -0.3156(2)
H13 H -0.2474 -0.0635 -0.2685
C13 C -0.2147(3) -0.07054(19) -0.4344(2)
H14 H -0.3130 -0.0656 -0.4684
C14 C 0.0796(3) 0.13808(15) -0.0724(2)
H15 H 0.0183 0.1731 -0.0428
H16 H 0.1801 0.1475 -0.0350
C15 C 0.0909(3) 0.22164(15) -0.2257(2)
H17 H 0.1856 0.2358 -0.1812
H18 H 0.0173 0.2508 -0.1988
C16 C -0.0413(3) 0.24593(15) -0.4300(3)
H19 H -0.1270 0.2447 -0.3991
C17 C 0.0869(3) 0.23548(14) -0.3535(2)
C18 C 0.2126(4) 0.23844(16) -0.3982(3)
H20 H 0.3031 0.2322 -0.3489
C19 C 0.2029(4) 0.25068(18) -0.5160(3)
H21 H 0.2869 0.2529 -0.5491
C20 C 0.0697(5) 0.25967(17) -0.5851(3)
H22 H 0.0651 0.2677 -0.6660
C3B C 0.5016(3) -0.05078(14) 0.0838(2)
C1B C 0.5215(3) 0.01794(14) 0.1189(2)
C2B C 0.5190(3) 0.06927(17) 0.0333(2)
H3B H 0.5315 0.1171 0.0553
C7B C 0.5424(3) 0.03750(15) 0.2464(2)
N1B N 0.6945(2) 0.03153(12) 0.30539(17)
Ag1B Ag 0.81278(2) -0.068820(12) 0.284460(17)
N2B N 0.9349(2) -0.14673(11) 0.20070(17)
H2B H 1.0309 -0.1385 0.2315
N3_2 N 0.8801(2) -0.07805(13) 0.49564(17)
Ag1_2 Ag 1.18722(2) 0.068820(12) 0.715540(17)
H1B H 0.6920 0.0339 0.3845
C8B C 0.7779(3) 0.09349(14) 0.2824(2)
H7B H 0.4829 0.0065 0.2859
H8B H 0.5094 0.0862 0.2535
H4B H 0.5021 -0.0863 0.1408
C6B C 0.1045(3) -0.04813(14) 0.0445(2)
C5B C -0.1424(3) -0.01669(15) -0.0063(2)
H9B H 0.7670 0.1005 0.1972
H10B H 0.7397 0.1355 0.3158
C10B C 0.9337(3) 0.08560(13) 0.3342(2)
C4B C -0.0384(3) -0.06600(16) 0.03815(18)
H6B H 0.1772 -0.0807 0.0754
H5B H -0.2407 -0.0277 -0.0104
N3B N 0.1199(2) 0.07805(13) -0.49564(17)
C9B C 0.9823(3) 0.08544(13) 0.4532(2)
C11B C 1.0343(3) 0.0777(2) 0.2650(2)
C14B C -0.0796(3) -0.13808(15) 0.0724(2)
Ag1B_2 Ag -0.18722(2) -0.068820(12) -0.715540(17)
N3B_2 N 1.1199(2) 0.07805(13) 0.50436(17)
H11B H 0.9135 0.0909 0.5021
H12B H 1.0063 0.0779 0.1826
C12B C 1.1768(3) 0.0696(2) 0.3156(2)
N2B_2 N -0.0651(2) -0.14673(11) 0.20070(17)
H15B H -0.0183 -0.1731 0.0428
H16B H -0.1801 -0.1475 0.0350
C13B C 1.2147(3) 0.07054(19) 0.4344(2)
H13B H 1.2474 0.0635 0.2685
Ag1B_3 Ag -0.18722(2) -0.068820(12) 0.284460(17)
H2B_2 H 0.0309 -0.1385 0.2315
C15B C -0.0909(3) -0.22164(15) 0.2257(2)
H14B H 1.3130 0.0656 0.4684
H17B H -0.1856 -0.2358 0.1812
H18B H -0.0173 -0.2508 0.1988
C17B C -0.0869(3) -0.23548(14) 0.3535(2)
C16B C 0.0413(3) -0.24593(15) 0.4300(3)
C18B C -0.2126(4) -0.23844(16) 0.3982(3)
N4B N 0.0528(3) -0.25772(14) 0.5451(2)
H19B H 0.1270 -0.2447 0.3991
H20B H -0.3031 -0.2322 0.3489
C19B C -0.2029(4) -0.25068(18) 0.5160(3)
C20B C -0.0697(5) -0.25967(17) 0.5851(3)
H21B H -0.2869 -0.2529 0.5491
H22B H -0.0651 -0.2677 0.6660
Cl1 Cl -0.38817(8) 0.14090(4) -0.39228(6)
O1 O -0.5133(2) 0.12647(14) -0.34763(18)
O2 O -0.3815(9) 0.1178(6) -0.5015(5)
O4 O -0.2553(12) 0.1265(10) -0.3176(11)
O6 O -0.3990(6) 0.2189(3) -0.3983(7)
O3? O -0.3821(9) 0.0728(4) -0.4548(6)
O5? O -0.2753(14) 0.1433(13) -0.2941(12)
O7? O -0.3922(7) 0.1913(5) -0.4763(7)
loop_
_geom_bond_atom_site_label_1
_geom_bond_atom_site_label_2
_geom_bond_site_symmetry_1
_geom_bond_site_symmetry_2
Ag1 N1 1_555 1_555
Cl1 O1 1_555 1_555
O2 Cl1 1_555 1_555
O4 Cl1 1_555 1_555
O6 Cl1 1_555 1_555
N1 H1 1_555 1_555
N2 Ag1 1_555 1_555
H2 N2 1_555 1_555
N3 C9 1_555 1_555
N4 C16 1_555 1_555
C1 C2 1_555 1_555
C2 H3 1_555 1_555
C3 C1 1_555 1_555
H4 C3 1_555 1_555
C4 C5 1_555 1_555
C5 H5 1_555 1_555
C6 C4 1_555 1_555
H6 C6 1_555 1_555
C7 N1 1_555 1_555
H7 C7 1_555 1_555
H8 C7 1_555 1_555
C8 N1 1_555 1_555
H9 C8 1_555 1_555
H10 C8 1_555 1_555
C9 H11 1_555 1_555
C10 C8 1_555 1_555
C11 C10 1_555 1_555
H12 C11 1_555 1_555
C12 C11 1_555 1_555
H13 C12 1_555 1_555
C13 N3 1_555 1_555
H14 C13 1_555 1_555
C14 N2 1_555 1_555
H15 C14 1_555 1_555
H16 C14 1_555 1_555
C15 N2 1_555 1_555
H17 C15 1_555 1_555
H18 C15 1_555 1_555
C16 H19 1_555 1_555
C17 C15 1_555 1_555
C18 C17 1_555 1_555
H20 C18 1_555 1_555
C19 C18 1_555 1_555
H21 C19 1_555 1_555
C20 N4 1_555 1_555
H22 C20 1_555 1_555
C3B C2 1_555 1_555
C1B C3B 1_555 1_555
C2B C3 1_555 1_555
H3B C2B 1_555 1_555
C7B C1B 1_555 1_555
N1B C7B 1_555 1_555
Ag1B N1B 1_555 1_555
N2B Ag1B 1_555 1_555
H2B N2B 1_555 1_555
N3_2 Ag1B 1_555 1_555
Ag1_2 N3B_2 1_555 1_555
H1B N1B 1_555 1_555
C8B N1B 1_555 1_555
H7B C7B 1_555 1_555
H8B C7B 1_555 1_555
H4B C3B 1_555 1_555
C6B C5 1_555 1_555
C5B C6 1_555 1_555
H9B C8B 1_555 1_555
H10B C8B 1_555 1_555
C10B C8B 1_555 1_555
C4B C6B 1_555 1_555
H6B C6B 1_555 1_555
H5B C5B 1_555 1_555
N3B Ag1 1_555 1_555
C9B C10B 1_555 1_555
C11B C10B 1_555 1_555
C14B C4B 1_555 1_555
Ag1B_2 N3 1_555 1_555
N3B_2 C9B 1_555 1_555
H11B C9B 1_555 1_555
H12B C11B 1_555 1_555
C12B C11B 1_555 1_555
N2B_2 C14B 1_555 1_555
H15B C14B 1_555 1_555
H16B C14B 1_555 1_555
C13B N3B_2 1_555 1_555
H13B C12B 1_555 1_555
Ag1B_3 N2B_2 1_555 1_555
H2B_2 N2B_2 1_555 1_555
C15B N2B_2 1_555 1_555
H14B C13B 1_555 1_555
H17B C15B 1_555 1_555
H18B C15B 1_555 1_555
C17B C15B 1_555 1_555
C16B C17B 1_555 1_555
C18B C17B 1_555 1_555
N4B C16B 1_555 1_555
H19B C16B 1_555 1_555
H20B C18B 1_555 1_555
C19B C18B 1_555 1_555
C20B N4B 1_555 1_555
H21B C19B 1_555 1_555
H22B C20B 1_555 1_555
C1 C7 1_555 1_555
C4 C14 1_555 1_555
C9 C10 1_555 1_555
C12 C13 1_555 1_555
C16 C17 1_555 1_555
C19 C20 1_555 1_555
C1B C2B 1_555 1_555
C5B C4B 1_555 1_555
C12B C13B 1_555 1_555
C19B C20B 1_555 1_555

#END
