
#######################################################################
#
#                 Cambridge Crystallographic Data Centre
#                                CCDC 
#
#######################################################################
#
# If this CIF has been generated from an entry in the Cambridge 
# Structural Database, then it will include bibliographic, chemical, 
# crystal, experimental, refinement or atomic coordinate data resulting 
# from the CCDC's data processing and validation procedures.
#
#######################################################################

data_BEPWAV
_symmetry_cell_setting           triclinic
_symmetry_space_group_name_H-M   'P -1'
_symmetry_Int_Tables_number      2
_space_group_name_Hall           '-P 1'
loop_
_symmetry_equiv_pos_site_id
_symmetry_equiv_pos_as_xyz
1 x,y,z
2 -x,-y,-z
_cell_length_a                   9.662(3)
_cell_length_b                   11.431(4)
_cell_length_c                   12.719(4)
_cell_angle_alpha                64.93(2)
_cell_angle_beta                 84.17(2)
_cell_angle_gamma                72.58(3)
_cell_volume                     1213.55
loop_
_atom_site_label
_atom_site_type_symbol
_atom_site_fract_x
_atom_site_fract_y
_atom_site_fract_z
Ag1 Ag 0.32148(2) 0.15400(2) -0.404880(19)
N1 N 0.1206(2) 0.1423(2) -0.2882(2)
H1 H 0.1298 0.1780 -0.2366
N2 N 0.1223(4) -0.1854(3) -0.4013(3)
N3 N 0.4803(3) 0.1593(2) -0.2861(2)
H2 H 0.4622 0.1015 -0.2118
N4 N 0.6789(2) -0.1550(2) -0.4201(2)
C1 C -0.0076(3) 0.3689(3) -0.4305(3)
C2 C -0.0110(3) 0.4582(3) -0.3819(3)
H3 H -0.0189 0.4298 -0.3003
C3 C 0.0032(3) 0.4125(3) -0.5495(3)
H4 H 0.0053 0.3532 -0.5845
C4 C -0.0164(3) 0.2277(3) -0.3554(3)
H5 H -0.0972 0.2314 -0.3013
H6 H -0.0370 0.1874 -0.4051
C5 C 0.1133(3) 0.0022(3) -0.2159(3)
H7 H 0.0113 0.0049 -0.1947
H8 H 0.1711 -0.0343 -0.1432
C6 C 0.0821(4) -0.0995(3) -0.3513(3)
H9 H -0.0130 -0.0390 -0.3691
C7 C 0.1683(3) -0.0916(3) -0.2754(2)
C8 C 0.3069(3) -0.1813(3) -0.2509(3)
H10 H 0.3721 -0.1794 -0.2010
C9 C 0.3489(4) -0.2735(3) -0.3003(3)
H11 H 0.4420 -0.3374 -0.2828
C10 C 0.2540(4) -0.2709(3) -0.3745(3)
H12 H 0.2841 -0.3337 -0.4087
C11 C 0.4757(3) 0.3992(3) -0.3939(3)
C12 C 0.5920(3) 0.4523(3) -0.4059(3)
H13 H 0.6559 0.4201 -0.3413
C13 C 0.3845(3) 0.4493(3) -0.4900(3)
H14 H 0.3043 0.4152 -0.4840
C14 C 0.4496(4) 0.2924(3) -0.2807(3)
H15 H 0.5123 0.2833 -0.2192
H16 H 0.3474 0.3202 -0.2596
C15 C 0.6370(3) 0.1049(3) -0.3010(3)
H17 H 0.6933 0.0953 -0.2356
H18 H 0.6681 0.1684 -0.3738
C16 C 0.6571(3) -0.0383(3) -0.4096(2)
H19 H 0.6335 0.0432 -0.4780
C17 C 0.6671(3) -0.0304(3) -0.3051(3)
C18 C 0.7042(3) -0.1508(3) -0.2061(3)
H20 H 0.7150 -0.1502 -0.1329
C19 C 0.7253(4) -0.2705(3) -0.2150(3)
H21 H 0.7492 -0.3535 -0.1480
C20 C 0.7111(3) -0.2684(3) -0.3228(3)
H22 H 0.7248 -0.3516 -0.3281
C3A C -0.0032(3) 0.5875(3) -0.4505(3)
C1A C 0.0076(3) 0.6311(3) -0.5695(3)
C2A C 0.0110(3) 0.5418(3) -0.6181(3)
H3A H 0.0189 0.5702 -0.6997
C4A C 0.0164(3) 0.7723(3) -0.6446(3)
N1A N -0.1206(2) 0.8577(2) -0.7118(2)
Ag1A Ag -0.32148(2) 0.84600(2) -0.595120(19)
N3A N -0.4803(3) 0.8407(2) -0.7139(2)
H2A H -0.4622 0.8985 -0.7882
N4_2 N -0.3211(2) 0.8450(2) -0.4201(2)
H1A H -0.1298 0.8220 -0.7634
C5A C -0.1133(3) 0.9978(3) -0.7841(3)
H7A H -0.0113 0.9951 -0.8053
H8A H -0.1711 1.0343 -0.8568
C7A C -0.1683(3) 1.0916(3) -0.7246(2)
C6A C -0.0821(4) 1.0995(3) -0.6487(3)
N2A N -0.1223(4) 1.1854(3) -0.5987(3)
C10A C -0.2540(4) 1.2709(3) -0.6255(3)
C9A C -0.3489(4) 1.2735(3) -0.6997(3)
C8A C -0.3069(3) 1.1813(3) -0.7491(3)
H10A H -0.3721 1.1794 -0.7990
H11A H -0.4420 1.3374 -0.7172
H12A H -0.2841 1.3337 -0.5913
H9A H 0.0130 1.0390 -0.6309
H5A H 0.0972 0.7686 -0.6987
H6A H 0.0370 0.8126 -0.5949
H4A H -0.0053 0.6468 -0.4155
C13A C 0.6155(3) 0.5507(3) -0.5100(3)
C12A C 0.4080(3) 0.5477(3) -0.5941(3)
C11A C 0.5243(3) 0.6008(3) -0.6061(3)
H14A H 0.6957 0.5848 -0.5160
H13A H 0.3441 0.5799 -0.6587
N4A N 0.3211(2) 0.1550(2) -0.5799(2)
C14A C 0.5504(4) 0.7076(3) -0.7193(3)
Ag1A_2 Ag 0.67852(2) -0.15400(2) -0.595120(19)
N3A_2 N 0.5197(3) 0.8407(2) -0.7139(2)
H15A H 0.4877 0.7167 -0.7808
H16A H 0.6526 0.6798 -0.7404
Ag1A_3 Ag 0.67852(2) 0.84600(2) -0.595120(19)
H2A_2 H 0.5378 0.8985 -0.7882
C15A C 0.3630(3) 0.8951(3) -0.6990(3)
H17A H 0.3067 0.9047 -0.7644
H18A H 0.3319 0.8316 -0.6262
C17A C 0.3329(3) 1.0304(3) -0.6949(3)
C16A C 0.3429(3) 1.0383(3) -0.5904(2)
C18A C 0.2958(3) 1.1508(3) -0.7939(3)
N4A_2 N 0.3211(2) 1.1550(2) -0.5799(2)
H19A H 0.3665 0.9568 -0.5220
H20A H 0.2850 1.1502 -0.8671
C19A C 0.2747(4) 1.2705(3) -0.7850(3)
Ag1_2 Ag 0.32148(2) 1.15400(2) -0.404880(19)
C20A C 0.2889(3) 1.2684(3) -0.6772(3)
H21A H 0.2508 1.3535 -0.8520
H22A H 0.2752 1.3516 -0.6719
O1 O 0.3958(5) -0.0249(4) -0.0435(3)
O2 O 0.1826(5) -0.0476(5) 0.0621(4)
O3 O 0.5745(8) -0.3163(9) 0.0338(6)
O4 O 0.2904(8) -0.2513(6) 0.0703(6)
O5 O 0.0479(6) -0.2281(4) 0.0578(3)
O6 O -0.1727(5) -0.2399(4) 0.1028(3)
C21 C -0.0247(4) -0.3942(3) 0.0326(3)
C22 C -0.1026(4) -0.4877(4) 0.0813(3)
H23 H -0.1730 -0.4797 0.1376
C23 C 0.0783(4) -0.4084(4) -0.0485(3)
H24 H 0.1328 -0.3452 -0.0818
C24 C -0.0506(6) -0.2788(4) 0.0669(3)
C23A C -0.0783(4) -0.5916(4) 0.0485(3)
C21A C 0.0247(4) -0.6058(3) -0.0326(3)
C22A C 0.1026(4) -0.5123(4) -0.0813(3)
H23A H 0.1730 -0.5203 -0.1376
C24A C 0.0506(6) -0.7212(4) -0.0669(3)
O5A O -0.0479(6) -0.7719(4) -0.0578(3)
O6A O 0.1727(5) -0.7601(4) -0.1028(3)
H24A H -0.1328 -0.6548 0.0818
O7? O 0.3488(7) -0.4317(6) 0.1379(6)
O8? O 0.4421(16) -0.4638(19) 0.0420(9)
loop_
_geom_bond_atom_site_label_1
_geom_bond_atom_site_label_2
_geom_bond_site_symmetry_1
_geom_bond_site_symmetry_2
Ag1 N1 1_555 1_555
N1 H1 1_555 1_555
N2 C6 1_555 1_555
N3 Ag1 1_555 1_555
H2 N3 1_555 1_555
N4 C16 1_555 1_555
C1 C2 1_555 1_555
C2 H3 1_555 1_555
C3 C1 1_555 1_555
H4 C3 1_555 1_555
C4 N1 1_555 1_555
H5 C4 1_555 1_555
H6 C4 1_555 1_555
C5 N1 1_555 1_555
H7 C5 1_555 1_555
H8 C5 1_555 1_555
C6 H9 1_555 1_555
C7 C5 1_555 1_555
C8 C7 1_555 1_555
H10 C8 1_555 1_555
C9 C8 1_555 1_555
H11 C9 1_555 1_555
C10 N2 1_555 1_555
H12 C10 1_555 1_555
C11 C12 1_555 1_555
C12 H13 1_555 1_555
C13 C11 1_555 1_555
H14 C13 1_555 1_555
C14 N3 1_555 1_555
H15 C14 1_555 1_555
H16 C14 1_555 1_555
C15 N3 1_555 1_555
H17 C15 1_555 1_555
H18 C15 1_555 1_555
C16 H19 1_555 1_555
C17 C15 1_555 1_555
C18 C17 1_555 1_555
H20 C18 1_555 1_555
C19 C18 1_555 1_555
H21 C19 1_555 1_555
C20 N4 1_555 1_555
H22 C20 1_555 1_555
O5 C24 1_555 1_555
O6 C24 1_555 1_555
C21 C22 1_555 1_555
C22 H23 1_555 1_555
C23 C21 1_555 1_555
H24 C23 1_555 1_555
C24 C21 1_555 1_555
C3A C2 1_555 1_555
C1A C3A 1_555 1_555
C2A C3 1_555 1_555
H3A C2A 1_555 1_555
C4A C1A 1_555 1_555
N1A C4A 1_555 1_555
Ag1A N1A 1_555 1_555
N3A Ag1A 1_555 1_555
H2A N3A 1_555 1_555
N4_2 Ag1A 1_555 1_555
H1A N1A 1_555 1_555
C5A N1A 1_555 1_555
H7A C5A 1_555 1_555
H8A C5A 1_555 1_555
C7A C5A 1_555 1_555
C6A C7A 1_555 1_555
N2A C6A 1_555 1_555
C10A N2A 1_555 1_555
C9A C10A 1_555 1_555
C8A C7A 1_555 1_555
H10A C8A 1_555 1_555
H11A C9A 1_555 1_555
H12A C10A 1_555 1_555
H9A C6A 1_555 1_555
H5A C4A 1_555 1_555
H6A C4A 1_555 1_555
H4A C3A 1_555 1_555
C13A C12 1_555 1_555
C12A C13 1_555 1_555
C11A C13A 1_555 1_555
H14A C13A 1_555 1_555
H13A C12A 1_555 1_555
N4A Ag1 1_555 1_555
C14A C11A 1_555 1_555
Ag1A_2 N4 1_555 1_555
N3A_2 C14A 1_555 1_555
H15A C14A 1_555 1_555
H16A C14A 1_555 1_555
Ag1A_3 N3A_2 1_555 1_555
H2A_2 N3A_2 1_555 1_555
C15A N3A_2 1_555 1_555
H17A C15A 1_555 1_555
H18A C15A 1_555 1_555
C17A C15A 1_555 1_555
C16A C17A 1_555 1_555
C18A C17A 1_555 1_555
N4A_2 C16A 1_555 1_555
H19A C16A 1_555 1_555
H20A C18A 1_555 1_555
C19A C18A 1_555 1_555
Ag1_2 N4A_2 1_555 1_555
C20A N4A_2 1_555 1_555
H21A C19A 1_555 1_555
H22A C20A 1_555 1_555
C23A C22 1_555 1_555
C21A C23A 1_555 1_555
C22A C23 1_555 1_555
H23A C22A 1_555 1_555
C24A C21A 1_555 1_555
O5A C24A 1_555 1_555
O6A C24A 1_555 1_555
H24A C23A 1_555 1_555
C1 C4 1_555 1_555
C6 C7 1_555 1_555
C9 C10 1_555 1_555
C11 C14 1_555 1_555
C16 C17 1_555 1_555
C19 C20 1_555 1_555
C1A C2A 1_555 1_555
C9A C8A 1_555 1_555
C12A C11A 1_555 1_555
C19A C20A 1_555 1_555
C21A C22A 1_555 1_555

#END
