
#######################################################################
#
#                 Cambridge Crystallographic Data Centre
#                                CCDC 
#
#######################################################################
#
# If this CIF has been generated from an entry in the Cambridge 
# Structural Database, then it will include bibliographic, chemical, 
# crystal, experimental, refinement or atomic coordinate data resulting 
# from the CCDC's data processing and validation procedures.
#
#######################################################################

data_BEPWUQ
_symmetry_cell_setting           triclinic
_symmetry_space_group_name_H-M   'P -1'
_symmetry_Int_Tables_number      2
_space_group_name_Hall           '-P 1'
loop_
_symmetry_equiv_pos_site_id
_symmetry_equiv_pos_as_xyz
1 x,y,z
2 -x,-y,-z
_cell_length_a                   15.1052(5)
_cell_length_b                   15.4394(5)
_cell_length_c                   16.2932(7)
_cell_angle_alpha                94.0207(10)
_cell_angle_beta                 117.5529(13)
_cell_angle_gamma                114.1102(19)
_cell_volume                     2913.13
loop_
_atom_site_label
_atom_site_type_symbol
_atom_site_fract_x
_atom_site_fract_y
_atom_site_fract_z
Cd1 Cd 0.08403(3) 0.30917(3) 0.03292(3)
C1 C -0.0731(4) 0.3696(4) 0.0702(4)
C2 C -0.1069(5) 0.3709(4) 0.1389(4)
H1 H -0.1763 0.3679 0.1263
C3 C -0.0213(5) 0.3775(4) 0.2258(4)
H2 H -0.0191 0.3807 0.2852
C4 C 0.0656(5) 0.3785(4) 0.2093(4)
C5 C 0.1696(5) 0.3844(4) 0.2803(4)
C6 C 0.2520(5) 0.3781(4) 0.2641(4)
C7 C 0.3665(5) 0.4029(5) 0.3389(5)
H3 H 0.3982 0.4221 0.4073
C8 C 0.4210(5) 0.3943(5) 0.2957(4)
H4 H 0.4978 0.4063 0.3276
C9 C 0.3398(5) 0.3628(4) 0.1905(4)
C10 C 0.3636(4) 0.3493(4) 0.1169(4)
C11 C 0.2940(5) 0.3343(4) 0.0168(4)
C12 C 0.3228(4) 0.3236(4) -0.0550(4)
H5 H 0.3888 0.3206 -0.0439
C13 C 0.2380(5) 0.3186(4) -0.1420(4)
H6 H 0.2339 0.3122 -0.2022
C14 C 0.1557(4) 0.3252(4) -0.1227(4)
C15 C -0.0192(5) 0.3455(4) -0.1723(4)
C16 C -0.1189(5) 0.3518(4) -0.2435(4)
H7 H -0.1422 0.3497 -0.3090
C17 C -0.1720(5) 0.3612(4) -0.1969(4)
H8 H -0.2400 0.3659 -0.2250
C18 C -0.1065(5) 0.3625(4) -0.0981(4)
C19 C -0.1368(4) 0.3650(4) -0.0284(4)
N1 N 0.0319(4) 0.3741(4) 0.1155(3)
N2 N 0.2387(4) 0.3527(4) 0.1749(3)
N3 N 0.1907(4) 0.3319(3) -0.0276(3)
N4 N -0.0135(4) 0.3550(4) -0.0858(3)
C20 C 0.1961(5) 0.3995(5) 0.3827(4)
C21 C 0.1991(5) 0.3250(5) 0.4254(4)
H9 H 0.1878 0.2656 0.3906
C22 C 0.2188(5) 0.3371(4) 0.5195(4)
C23 C 0.2389(5) 0.4253(4) 0.5715(4)
H10 H 0.2542 0.4344 0.6359
C24 C 0.2367(5) 0.4993(5) 0.5299(5)
H11 H 0.2510 0.5597 0.5658
C25 C 0.2138(5) 0.4862(5) 0.4353(4)
H12 H 0.2101 0.5370 0.4065
C26 C 0.2100(5) 0.2507(5) 0.5600(4)
O1 O 0.1850(4) 0.1700(3) 0.5074(3)
O2 O 0.2213(3) 0.2594(3) 0.6417(3)
C27 C 0.4788(5) 0.3590(4) 0.1527(4)
C28 C 0.5067(5) 0.2910(4) 0.1960(4)
H13 H 0.4516 0.2395 0.2033
C29 C 0.6126(5) 0.2965(4) 0.2289(4)
C30 C 0.6946(5) 0.3752(4) 0.2200(4)
H14 H 0.7681 0.3815 0.2432
C31 C 0.6694(5) 0.4430(5) 0.1780(4)
H15 H 0.7253 0.4954 0.1722
C32 C 0.5626(5) 0.4350(4) 0.1440(4)
H16 H 0.5459 0.4817 0.1144
C33 C 0.6376(5) 0.2210(5) 0.2696(4)
O3 O 0.5567(4) 0.1444(4) 0.2638(4)
O4 O 0.7370(3) 0.2329(3) 0.3057(3)
C34 C 0.0296(4) 0.3187(4) -0.2929(4)
C35 C 0.0007(4) 0.2295(4) -0.3519(4)
H17 H 0.0067 0.1783 -0.3246
C36 C -0.0366(4) 0.2143(4) -0.4500(4)
C37 C -0.0420(5) 0.2898(4) -0.4903(4)
H18 H -0.0680 0.2793 -0.5575
C38 C -0.0093(5) 0.3803(4) -0.4320(4)
H19 H -0.0100 0.4331 -0.4584
C39 C 0.0245(5) 0.3938(4) -0.3354(4)
H20 H 0.0448 0.4557 -0.2967
C40 C -0.0745(5) 0.1145(5) -0.5111(4)
O5 O -0.0388(3) 0.0585(3) -0.4720(3)
O6 O -0.1453(3) 0.0852(3) -0.6028(3)
C41 C -0.2540(5) 0.3524(4) -0.0668(4)
C42 C -0.3501(5) 0.2621(4) -0.1369(4)
H21 H -0.3395 0.2108 -0.1592
C43 C -0.4609(5) 0.2458(5) -0.1746(5)
C44 C -0.4774(5) 0.3208(5) -0.1440(5)
H22 H -0.5529 0.3111 -0.1714
C45 C -0.3830(5) 0.4095(5) -0.0734(5)
H23 H -0.3943 0.4601 -0.0507
C46 C -0.2722(5) 0.4264(5) -0.0348(5)
H24 H -0.2084 0.4883 0.0134
C47 C -0.5605(6) 0.1457(6) -0.2476(5)
O7 O -0.5377(4) 0.0788(4) -0.2634(4)
O8 O -0.6592(4) 0.1347(4) -0.2854(5)
O9 O -0.0577(5) 0.1387(4) -0.0473(4)
C48 C -0.1485(7) 0.1208(7) -0.1302(7)
H25 H -0.1527 0.1767 -0.1488
C49 C 0.0572(5) 0.3311(4) -0.1913(4)
C50 C -0.2350(13) -0.0587(9) -0.1661(11)
H26 H -0.3079 -0.1019 -0.1719
H27 H -0.1707 -0.0398 -0.0993
H28 H -0.2271 -0.0949 -0.2119
Cd2 Cd 0.15570(3) 0.08460(3) 0.61290(3)
Cd3 Cd 0.68041(4) 0.07504(3) 0.32281(4)
N5 N -0.2340(7) 0.0316(7) -0.1891(7)
C51 C -0.3366(9) 0.0178(11) -0.2796(8)
H29 H -0.4063 -0.0359 -0.2875
H30 H -0.3320 0.0000 -0.3359
H31 H -0.3392 0.0803 -0.2753
O10 O 0.6689(6) 0.0276(5) 0.1793(5)
C52 C 0.6777(7) 0.0713(7) 0.1246(7)
H32 H 0.7033 0.1409 0.1432
N6 N 0.6531(6) 0.0269(6) 0.0365(5)
C53 C 0.6096(9) -0.0777(7) 0.0032(7)
H33 H 0.5373 -0.1078 -0.0608
H34 H 0.5956 -0.1080 0.0499
H35 H 0.6659 -0.0893 -0.0024
C54 C 0.6632(10) 0.0855(9) -0.0278(8)
H36 H 0.5910 0.0520 -0.0921
H37 H 0.7264 0.0915 -0.0346
H38 H 0.6789 0.1523 -0.0001
O11 O 0.6876(6) 0.0791(5) 0.4656(5)
H39 H 0.7604 0.0811 0.5118
C55 C 0.6828(16) 0.1460(18) 0.5142(15)
H40 H 0.7610 0.2001 0.5633
H41 H 0.6433 0.1147 0.5467
H42 H 0.6403 0.1734 0.4691
O12 O 0.1238(4) 0.0669(4) 0.7322(4)
C56 C 0.0925(7) -0.0094(6) 0.7495(6)
H43 H 0.0822 -0.0655 0.7104
N7 N 0.0705(6) -0.0227(5) 0.8190(5)
C57 C 0.0774(9) 0.0582(8) 0.8770(8)
H44 H 0.1132 0.0599 0.9453
H45 H -0.0003 0.0475 0.8522
H46 H 0.1240 0.1221 0.8726
C58 C 0.0287(9) -0.1198(8) 0.8350(8)
H47 H 0.0345 -0.1663 0.7964
H48 H -0.0520 -0.1467 0.8148
H49 H 0.0754 -0.1111 0.9045
O5_2 O -0.0388(3) 0.0585(3) 0.5280(3)
O5A O 0.0388(3) -0.0585(3) 0.4720(3)
O6_2 O 0.8547(3) 0.0852(3) 0.3972(3)
O6A O 0.1453(3) -0.0852(3) 0.6028(3)
O7A O 0.5377(4) -0.0788(4) 0.2634(4)
O8_2 O 0.3408(4) 0.1347(4) 0.7146(5)
Cd2_2 Cd -0.84430(3) 0.08460(3) -0.38710(3)
Cd2_3 Cd 0.15570(3) 0.08460(3) -0.38710(3)
Cd2A Cd -0.15570(3) -0.08460(3) -0.61290(3)
Cd3_2 Cd -0.31959(4) 0.07504(3) -0.67719(4)
Cd3A Cd -0.68041(4) -0.07504(3) -0.32281(4)
loop_
_geom_bond_atom_site_label_1
_geom_bond_atom_site_label_2
_geom_bond_site_symmetry_1
_geom_bond_site_symmetry_2
Cd1 N1 1_555 1_555
C1 C2 1_555 1_555
C2 H1 1_555 1_555
C3 C2 1_555 1_555
H2 C3 1_555 1_555
C4 C3 1_555 1_555
C5 C4 1_555 1_555
C6 C5 1_555 1_555
C7 C6 1_555 1_555
H3 C7 1_555 1_555
C8 C7 1_555 1_555
H4 C8 1_555 1_555
C9 C8 1_555 1_555
C10 C9 1_555 1_555
C11 C10 1_555 1_555
C12 C11 1_555 1_555
H5 C12 1_555 1_555
C13 C12 1_555 1_555
H6 C13 1_555 1_555
C14 C13 1_555 1_555
C15 C16 1_555 1_555
C16 H7 1_555 1_555
C17 C16 1_555 1_555
H8 C17 1_555 1_555
C18 C17 1_555 1_555
C19 C1 1_555 1_555
N1 C1 1_555 1_555
N2 Cd1 1_555 1_555
N3 Cd1 1_555 1_555
N4 Cd1 1_555 1_555
C20 C5 1_555 1_555
C21 C20 1_555 1_555
H9 C21 1_555 1_555
C22 C21 1_555 1_555
C23 C22 1_555 1_555
H10 C23 1_555 1_555
C24 C23 1_555 1_555
H11 C24 1_555 1_555
C25 C20 1_555 1_555
H12 C25 1_555 1_555
C26 C22 1_555 1_555
O1 C26 1_555 1_555
O2 C26 1_555 1_555
C27 C10 1_555 1_555
C28 C27 1_555 1_555
H13 C28 1_555 1_555
C29 C28 1_555 1_555
C30 C29 1_555 1_555
H14 C30 1_555 1_555
C31 C30 1_555 1_555
H15 C31 1_555 1_555
C32 C27 1_555 1_555
H16 C32 1_555 1_555
C33 C29 1_555 1_555
O3 C33 1_555 1_555
O4 C33 1_555 1_555
C34 C35 1_555 1_555
C35 H17 1_555 1_555
C36 C35 1_555 1_555
C37 C36 1_555 1_555
H18 C37 1_555 1_555
C38 C37 1_555 1_555
H19 C38 1_555 1_555
C39 C34 1_555 1_555
H20 C39 1_555 1_555
C40 C36 1_555 1_555
O5 C40 1_555 1_555
O6 C40 1_555 1_555
C41 C19 1_555 1_555
C42 C41 1_555 1_555
H21 C42 1_555 1_555
C43 C42 1_555 1_555
C44 C43 1_555 1_555
H22 C44 1_555 1_555
C45 C44 1_555 1_555
H23 C45 1_555 1_555
C46 C41 1_555 1_555
H24 C46 1_555 1_555
C47 C43 1_555 1_555
O7 C47 1_555 1_555
O8 C47 1_555 1_555
O9 Cd1 1_555 1_555
C48 O9 1_555 1_555
H25 C48 1_555 1_555
C49 C14 1_555 1_555
C50 H26 1_555 1_555
H27 C50 1_555 1_555
H28 C50 1_555 1_555
Cd2 O1 1_555 1_555
Cd3 O3 1_555 1_555
N5 C48 1_555 1_555
C51 N5 1_555 1_555
H29 C51 1_555 1_555
H30 C51 1_555 1_555
H31 C51 1_555 1_555
O10 Cd3 1_555 1_555
C52 O10 1_555 1_555
H32 C52 1_555 1_555
N6 C52 1_555 1_555
C53 N6 1_555 1_555
H33 C53 1_555 1_555
H34 C53 1_555 1_555
H35 C53 1_555 1_555
C54 N6 1_555 1_555
H36 C54 1_555 1_555
H37 C54 1_555 1_555
H38 C54 1_555 1_555
O11 Cd3 1_555 1_555
H39 O11 1_555 1_555
C55 O11 1_555 1_555
H40 C55 1_555 1_555
H41 C55 1_555 1_555
H42 C55 1_555 1_555
O12 Cd2 1_555 1_555
C56 O12 1_555 1_555
H43 C56 1_555 1_555
N7 C56 1_555 1_555
C57 N7 1_555 1_555
H44 C57 1_555 1_555
H45 C57 1_555 1_555
H46 C57 1_555 1_555
C58 N7 1_555 1_555
H47 C58 1_555 1_555
H48 C58 1_555 1_555
H49 C58 1_555 1_555
O5_2 Cd2 1_555 1_555
O5A Cd2 1_555 1_555
O6_2 Cd3 1_555 1_555
O6A Cd2 1_555 1_555
O7A Cd3 1_555 1_555
O8_2 Cd2 1_555 1_555
Cd2_2 O8 1_555 1_555
Cd2_3 O5 1_555 1_555
Cd2A O5 1_555 1_555
Cd3_2 O6 1_555 1_555
Cd3A O7 1_555 1_555
C4 N1 1_555 1_555
C6 N2 1_555 1_555
C9 N2 1_555 1_555
C11 N3 1_555 1_555
C14 N3 1_555 1_555
C15 N4 1_555 1_555
C15 C49 1_555 1_555
C18 C19 1_555 1_555
C18 N4 1_555 1_555
C24 C25 1_555 1_555
O2 Cd2 1_555 1_555
C31 C32 1_555 1_555
O4 Cd3 1_555 1_555
C34 C49 1_555 1_555
C38 C39 1_555 1_555
O6 Cd2A 1_555 1_555
C45 C46 1_555 1_555
C50 N5 1_555 1_555

#END
