
#######################################################################
#
#                 Cambridge Crystallographic Data Centre
#                                CCDC 
#
#######################################################################
#
# If this CIF has been generated from an entry in the Cambridge 
# Structural Database, then it will include bibliographic, chemical, 
# crystal, experimental, refinement or atomic coordinate data resulting 
# from the CCDC's data processing and validation procedures.
#
#######################################################################

data_BEPXAX
_symmetry_cell_setting           triclinic
_symmetry_space_group_name_H-M   'P -1'
_symmetry_Int_Tables_number      2
_space_group_name_Hall           '-P 1'
loop_
_symmetry_equiv_pos_site_id
_symmetry_equiv_pos_as_xyz
1 x,y,z
2 -x,-y,-z
_cell_length_a                   15.1307(2)
_cell_length_b                   15.7557(3)
_cell_length_c                   15.9818(4)
_cell_angle_alpha                92.4750(8)
_cell_angle_beta                 117.4952(9)
_cell_angle_gamma                115.0891(11)
_cell_volume                     2922.24
loop_
_atom_site_label
_atom_site_type_symbol
_atom_site_fract_x
_atom_site_fract_y
_atom_site_fract_z
Cd1 Cd -0.08122(4) 0.19291(3) 0.46730(3)
C1 C 0.0218(5) 0.1564(4) 0.6779(4)
C2 C 0.1231(5) 0.1519(5) 0.7507(5)
H1 H 0.1486 0.1565 0.8182
C3 C 0.1733(5) 0.1398(5) 0.7025(4)
H2 H 0.2402 0.1336 0.7303
C4 C 0.1068(5) 0.1380(5) 0.6016(5)
C5 C 0.1341(5) 0.1313(4) 0.5287(4)
C6 C 0.0691(5) 0.1240(4) 0.4287(5)
C7 C 0.0991(5) 0.1169(4) 0.3563(5)
H3 H 0.1658 0.1157 0.3672
C8 C 0.0141(5) 0.1121(4) 0.2694(4)
H4 H 0.0102 0.1063 0.2082
C9 C -0.0694(5) 0.1175(4) 0.2866(4)
C10 C -0.1706(5) 0.1155(4) 0.2173(4)
C11 C -0.2515(5) 0.1238(5) 0.2340(5)
C12 C -0.3657(5) 0.1012(6) 0.1582(5)
H5 H -0.3977 0.0831 0.0889
C13 C -0.4185(6) 0.1103(5) 0.2039(5)
H6 H -0.4948 0.0995 0.1726
C14 C -0.3379(5) 0.1397(5) 0.3095(5)
C15 C -0.3622(5) 0.1516(4) 0.3826(4)
C16 C -0.2945(5) 0.1634(4) 0.4846(4)
C17 C -0.3241(5) 0.1687(5) 0.5588(5)
H7 H -0.3918 0.1678 0.5480
C18 C -0.2392(5) 0.1752(4) 0.6451(4)
H8 H -0.2356 0.1797 0.7061
C19 C -0.1526(5) 0.1738(4) 0.6270(4)
C20 C -0.0541(5) 0.1708(4) 0.6965(4)
N1 N 0.0152(4) 0.1462(4) 0.5890(4)
N2 N -0.0338(4) 0.1249(4) 0.3835(4)
N3 N -0.2380(4) 0.1471(4) 0.3240(4)
N4 N -0.1884(4) 0.1684(3) 0.5299(4)
C21 C 0.2514(5) 0.1440(4) 0.5666(5)
C22 C 0.3478(5) 0.2352(4) 0.6313(4)
H9 H 0.3368 0.2867 0.6491
C23 C 0.4581(5) 0.2519(4) 0.6699(5)
C24 C 0.4746(5) 0.1764(5) 0.6454(5)
H10 H 0.5503 0.1866 0.6733
C25 C 0.3813(6) 0.0872(5) 0.5807(6)
H11 H 0.3929 0.0364 0.5625
C26 C 0.2692(5) 0.0701(4) 0.5413(5)
H12 H 0.2053 0.0077 0.4972
C27 C 0.5571(5) 0.3527(5) 0.7362(5)
O1 O 0.5349(4) 0.4165(4) 0.7514(5)
O2 O 0.6574(4) 0.3671(4) 0.7697(4)
C28 C -0.1983(5) 0.1019(5) 0.1124(5)
C29 C -0.2008(5) 0.1763(4) 0.0685(5)
H13 H -0.1876 0.2346 0.1041
C30 C -0.2225(5) 0.1654(5) -0.0275(4)
C31 C -0.2461(5) 0.0795(5) -0.0804(4)
H14 H -0.2633 0.0714 -0.1464
C32 C -0.2449(5) 0.0066(5) -0.0395(5)
H15 H -0.2607 -0.0522 -0.0768
C33 C -0.2207(5) 0.0165(5) 0.0573(5)
H16 H -0.2196 -0.0353 0.0854
C34 C -0.2118(5) 0.2515(5) -0.0685(5)
O3 O -0.1895(4) 0.3302(3) -0.0163(3)
O4 O -0.2217(4) 0.2453(3) -0.1509(3)
C35 C -0.4768(5) 0.1443(5) 0.3488(4)
C36 C -0.4996(5) 0.2143(5) 0.3093(4)
H17 H -0.4421 0.2675 0.3053
C37 C -0.6063(5) 0.2078(4) 0.2753(4)
C38 C -0.6901(5) 0.1303(5) 0.2812(5)
H18 H -0.7631 0.1249 0.2574
C39 C -0.6680(5) 0.0614(5) 0.3212(5)
H19 H -0.7254 0.0093 0.3264
C40 C -0.5629(5) 0.0665(5) 0.3543(4)
H20 H -0.5493 0.0174 0.3807
C41 C -0.6281(5) 0.2863(5) 0.2363(5)
O5 O -0.5455(4) 0.3651(3) 0.2491(4)
O6 O -0.7292(4) 0.2725(3) 0.1950(4)
C42 C -0.0261(5) 0.1846(4) 0.8003(4)
C43 C 0.0034(5) 0.2734(4) 0.8567(4)
H21 H -0.0016 0.3231 0.8264
C44 C 0.0395(5) 0.2903(4) 0.9557(4)
C45 C 0.0449(5) 0.2167(4) 1.0009(4)
H22 H 0.0710 0.2283 1.0692
C46 C 0.0117(5) 0.1268(5) 0.9453(4)
H23 H 0.0121 0.0759 0.9750
C47 C -0.0222(5) 0.1106(4) 0.8462(4)
H24 H -0.0429 0.0493 0.8092
C48 C 0.0774(5) 0.3885(5) 1.0153(4)
O7 O 0.0408(3) 0.4424(3) 0.9717(3)
O8 O 0.1460(4) 0.4175(3) 1.1069(3)
O9 O 0.0584(7) 0.3599(6) 0.5465(7)
C49 C 0.1494(13) 0.3708(11) 0.6315(11)
H25 H 0.1464 0.3124 0.6469
N5 N 0.2484(11) 0.4603(10) 0.6997(10)
C50 C 0.2360(18) 0.5489(12) 0.6598(15)
H26 H 0.3036 0.5907 0.6566
H27 H 0.2305 0.5879 0.7047
H28 H 0.1665 0.5222 0.5937
C51 C 0.3523(13) 0.4678(14) 0.7912(12)
H29 H 0.3541 0.4904 0.8504
H30 H 0.4231 0.5146 0.7950
H31 H 0.3465 0.4032 0.7871
Cd2 Cd 0.84647(3) 0.42077(3) 0.88264(3)
N6 N 0.8855(6) 0.4532(5) 0.7635(5)
C52 C 0.9909(12) 0.5350(10) 0.7895(11)
H32 H 1.0457 0.5737 0.8566
C53 C 1.0153(16) 0.5599(14) 0.7147(14)
H33 H 1.0872 0.6164 0.7357
C54 C 0.9407(15) 0.5070(13) 0.6089(13)
H34 H 0.9571 0.5226 0.5591
C55 C 0.8413(14) 0.4297(12) 0.5958(11)
H35 H 0.7840 0.3870 0.5306
C56 C 0.8165(10) 0.4079(8) 0.6722(7)
H36 H 0.7424 0.3553 0.6521
Cd3 Cd 0.67665(4) 0.56909(3) 0.80688(4)
N7 N 0.6789(6) 0.5488(5) 0.6597(5)
C57 C 0.7454(10) 0.6220(8) 0.6449(9)
H37 H 0.8004 0.6811 0.6980
C58 C 0.7423(13) 0.6204(10) 0.5552(10)
H38 H 0.7938 0.6760 0.5478
C59 C 0.6644(12) 0.5379(10) 0.4821(10)
H39 H 0.6586 0.5350 0.4201
C60 C 0.5928(11) 0.4576(9) 0.4922(8)
H40 H 0.5411 0.3968 0.4411
C61 C 0.5996(9) 0.4693(8) 0.5811(7)
H41 H 0.5434 0.4167 0.5871
O10 O 0.6829(6) 0.5713(5) 0.9533(5)
H42 H 0.6845 0.5310 0.9859
C62 C 0.6802(12) 0.6496(10) 1.0018(9)
H43 H 0.6933 0.6437 1.0668
H44 H 0.6048 0.6444 0.9615
H45 H 0.7405 0.7133 1.0099
O3_2 O 0.8105(4) 0.3302(3) 0.9837(3)
O4_2 O 0.7783(4) 0.2453(3) 0.8491(3)
O5A O 0.5455(4) 0.6349(3) 0.7509(4)
O6A O 0.7292(4) 0.7275(3) 0.8050(4)
O7_2 O 1.0408(3) 0.4424(3) 0.9717(3)
O7A O 0.9592(3) 0.5576(3) 1.0283(3)
O8A O 0.8540(4) 0.5825(3) 0.8931(3)
Cd2_2 Cd -0.15353(3) 0.42077(3) -0.11736(3)
Cd2_3 Cd -0.15353(3) 0.42077(3) 0.88264(3)
Cd2A Cd 0.15353(3) 0.57923(3) 1.11736(3)
Cd3A Cd -0.67665(4) 0.43091(3) 0.19312(4)
Cd3A_2 Cd 0.32335(4) 0.43091(3) 1.19312(4)
O11 O 0.4097(14) 0.5947(9) 0.0090(11)
N8 N 0.4817(11) 0.7606(10) 0.0547(10)
C63 C 0.4284(16) 0.6734(13) 0.0581(14)
H46 H 0.4002 0.6665 0.1011
C64 C 0.5417(18) 0.7782(16) 0.0061(17)
H47 H 0.5881 0.7461 0.0262
H48 H 0.5921 0.8490 0.0236
H49 H 0.4867 0.7517 -0.0655
C65 C 0.5035(13) 0.8435(11) 0.1089(12)
H50 H 0.5076 0.8341 0.1705
H51 H 0.4417 0.8578 0.0712
H52 H 0.5770 0.8984 0.1241
loop_
_geom_bond_atom_site_label_1
_geom_bond_atom_site_label_2
_geom_bond_site_symmetry_1
_geom_bond_site_symmetry_2
Cd1 N1 1_555 1_555
C1 C2 1_555 1_555
C2 H1 1_555 1_555
C3 C2 1_555 1_555
H2 C3 1_555 1_555
C4 C3 1_555 1_555
C5 C4 1_555 1_555
C6 C5 1_555 1_555
C7 C6 1_555 1_555
H3 C7 1_555 1_555
C8 C7 1_555 1_555
H4 C8 1_555 1_555
C9 C8 1_555 1_555
C10 C9 1_555 1_555
C11 C10 1_555 1_555
C12 C11 1_555 1_555
H5 C12 1_555 1_555
C13 C12 1_555 1_555
H6 C13 1_555 1_555
C14 C13 1_555 1_555
C15 C14 1_555 1_555
C16 C15 1_555 1_555
C17 C16 1_555 1_555
H7 C17 1_555 1_555
C18 C17 1_555 1_555
H8 C18 1_555 1_555
C19 C18 1_555 1_555
C20 C1 1_555 1_555
N1 C1 1_555 1_555
N2 Cd1 1_555 1_555
N3 Cd1 1_555 1_555
N4 Cd1 1_555 1_555
C21 C5 1_555 1_555
C22 C21 1_555 1_555
H9 C22 1_555 1_555
C23 C22 1_555 1_555
C24 C23 1_555 1_555
H10 C24 1_555 1_555
C25 C24 1_555 1_555
H11 C25 1_555 1_555
C26 C21 1_555 1_555
H12 C26 1_555 1_555
C27 C23 1_555 1_555
O1 C27 1_555 1_555
O2 C27 1_555 1_555
C28 C10 1_555 1_555
C29 C28 1_555 1_555
H13 C29 1_555 1_555
C30 C29 1_555 1_555
C31 C30 1_555 1_555
H14 C31 1_555 1_555
C32 C31 1_555 1_555
H15 C32 1_555 1_555
C33 C28 1_555 1_555
H16 C33 1_555 1_555
C34 C30 1_555 1_555
O3 C34 1_555 1_555
O4 C34 1_555 1_555
C35 C15 1_555 1_555
C36 C35 1_555 1_555
H17 C36 1_555 1_555
C37 C36 1_555 1_555
C38 C37 1_555 1_555
H18 C38 1_555 1_555
C39 C38 1_555 1_555
H19 C39 1_555 1_555
C40 C35 1_555 1_555
H20 C40 1_555 1_555
C41 C37 1_555 1_555
O5 C41 1_555 1_555
O6 C41 1_555 1_555
C42 C20 1_555 1_555
C43 C42 1_555 1_555
H21 C43 1_555 1_555
C44 C43 1_555 1_555
C45 C44 1_555 1_555
H22 C45 1_555 1_555
C46 C45 1_555 1_555
H23 C46 1_555 1_555
C47 C42 1_555 1_555
H24 C47 1_555 1_555
C48 C44 1_555 1_555
O7 C48 1_555 1_555
O8 C48 1_555 1_555
O9 Cd1 1_555 1_555
C49 O9 1_555 1_555
H25 C49 1_555 1_555
N5 C49 1_555 1_555
C50 N5 1_555 1_555
H26 C50 1_555 1_555
H27 C50 1_555 1_555
H28 C50 1_555 1_555
C51 N5 1_555 1_555
H29 C51 1_555 1_555
H30 C51 1_555 1_555
H31 C51 1_555 1_555
Cd2 O2 1_555 1_555
N6 Cd2 1_555 1_555
C52 N6 1_555 1_555
H32 C52 1_555 1_555
C53 C52 1_555 1_555
H33 C53 1_555 1_555
C54 C53 1_555 1_555
H34 C54 1_555 1_555
C55 C54 1_555 1_555
H35 C55 1_555 1_555
C56 N6 1_555 1_555
H36 C56 1_555 1_555
Cd3 O1 1_555 1_555
N7 Cd3 1_555 1_555
C57 N7 1_555 1_555
H37 C57 1_555 1_555
C58 C57 1_555 1_555
H38 C58 1_555 1_555
C59 C58 1_555 1_555
H39 C59 1_555 1_555
C60 C59 1_555 1_555
H40 C60 1_555 1_555
C61 N7 1_555 1_555
H41 C61 1_555 1_555
O10 Cd3 1_555 1_555
H42 O10 1_555 1_555
C62 O10 1_555 1_555
H43 C62 1_555 1_555
H44 C62 1_555 1_555
H45 C62 1_555 1_555
O11 C63 1_555 1_555
N8 C63 1_555 1_555
C63 H46 1_555 1_555
C64 N8 1_555 1_555
H47 C64 1_555 1_555
H48 C64 1_555 1_555
H49 C64 1_555 1_555
C65 N8 1_555 1_555
H50 C65 1_555 1_555
H51 C65 1_555 1_555
H52 C65 1_555 1_555
O3_2 Cd2 1_555 1_555
O4_2 Cd2 1_555 1_555
O5A Cd3 1_555 1_555
O6A Cd3 1_555 1_555
O7_2 Cd2 1_555 1_555
O7A Cd2 1_555 1_555
O8A Cd2 1_555 1_555
Cd2_2 O3 1_555 1_555
Cd2_3 O7 1_555 1_555
Cd2A O7 1_555 1_555
Cd3A O5 1_555 1_555
Cd3A_2 O8 1_555 1_555
C4 N1 1_555 1_555
C6 N2 1_555 1_555
C9 N2 1_555 1_555
C11 N3 1_555 1_555
C14 N3 1_555 1_555
C16 N4 1_555 1_555
C19 C20 1_555 1_555
C19 N4 1_555 1_555
C25 C26 1_555 1_555
C32 C33 1_555 1_555
O4 Cd2_2 1_555 1_555
C39 C40 1_555 1_555
O6 Cd3A 1_555 1_555
C46 C47 1_555 1_555
O8 Cd2A 1_555 1_555
C55 C56 1_555 1_555
Cd3 O8A 1_555 1_555
C60 C61 1_555 1_555

#END
