
#######################################################################
#
#                 Cambridge Crystallographic Data Centre
#                                CCDC 
#
#######################################################################
#
# If this CIF has been generated from an entry in the Cambridge 
# Structural Database, then it will include bibliographic, chemical, 
# crystal, experimental, refinement or atomic coordinate data resulting 
# from the CCDC's data processing and validation procedures.
#
#######################################################################

data_BEPYEC
_symmetry_cell_setting           triclinic
_symmetry_space_group_name_H-M   'P -1'
_symmetry_Int_Tables_number      2
_space_group_name_Hall           '-P 1'
loop_
_symmetry_equiv_pos_site_id
_symmetry_equiv_pos_as_xyz
1 x,y,z
2 -x,-y,-z
_cell_length_a                   15.3997(9)
_cell_length_b                   15.4635(9)
_cell_length_c                   17.2247(10)
_cell_angle_alpha                93.145(3)
_cell_angle_beta                 114.157(2)
_cell_angle_gamma                100.775(3)
_cell_volume                     3636.88
loop_
_atom_site_label
_atom_site_type_symbol
_atom_site_fract_x
_atom_site_fract_y
_atom_site_fract_z
N3 N 0.9710(4) -0.0115(4) 0.1816(4)
H39 H 1.0044 -0.0487 0.2160
H40 H 0.9098 -0.0446 0.1448
C57 C 0.9609(5) 0.0602(5) 0.2362(5)
H41 H 1.0259 0.0937 0.2776
H42 H 0.9241 0.0337 0.2674
H43 H 0.9259 0.1004 0.1999
C58 C 1.0232(5) 0.0244(5) 0.1308(5)
H44 H 0.9913 0.0683 0.0981
H45 H 1.0217 -0.0242 0.0910
H46 H 1.0912 0.0528 0.1696
N4 N 0.0210(6) 0.6912(4) 0.2452(4)
H47 H 0.0702 0.7420 0.2681
H48 H -0.0331 0.7075 0.2062
C59 C 0.0501(6) 0.6331(6) 0.1980(6)
H49 H 0.0717 0.5855 0.2311
H50 H 0.1040 0.6668 0.1877
H51 H -0.0054 0.6071 0.1428
C60 C -0.0021(7) 0.6624(6) 0.3136(7)
H52 H -0.0601 0.6130 0.2902
H53 H -0.0152 0.7119 0.3419
H54 H 0.0532 0.6426 0.3556
Cd1 Cd 0.77738(3) 0.06273(3) 0.59840(3)
Cd2 Cd 0.21511(3) 0.25371(3) -0.02429(3)
O1 O 0.2159(3) 0.0930(3) -0.0687(3)
O2 O 0.3282(3) 0.2080(3) -0.0643(3)
C1 C 0.2945(4) 0.1260(4) -0.0738(4)
C2 C 0.3514(4) 0.0639(4) -0.0923(4)
C3 C 0.4364(4) 0.1023(4) -0.1007(4)
H1 H 0.4567 0.1649 -0.0967
C4 C 0.4900(4) 0.0452(4) -0.1153(4)
C5 C 0.4602(4) -0.0457(4) -0.1226(4)
H2 H 0.4963 -0.0833 -0.1352
C6 C 0.3774(4) -0.0824(4) -0.1115(4)
C7 C 0.3222(4) -0.0277(4) -0.0963(4)
H3 H 0.2653 -0.0524 -0.0888
O3 O 0.5763(3) 0.0739(3) -0.1230(3)
C8 C 0.6240(4) 0.1671(4) -0.0947(4)
H4 H 0.6210 0.1878 -0.0407
H5 H 0.5915 0.2031 -0.1390
C9 C 0.7290(4) 0.1766(4) -0.0804(4)
C10 C 0.7491(4) 0.1462(4) -0.1464(4)
H6 H 0.6973 0.1176 -0.1998
C11 C 0.8463(4) 0.1577(4) -0.1344(4)
H7 H 0.8600 0.1371 -0.1802
C12 C 0.9227(4) 0.1988(4) -0.0567(4)
C13 C 0.9012(5) 0.2289(5) 0.0097(5)
H8 H 0.9527 0.2578 0.0632
C14 C 0.8051(5) 0.2169(5) -0.0023(4)
H9 H 0.7911 0.2366 0.0436
C15 C 1.0261(4) 0.2162(4) -0.0458(4)
O4 O 1.0438(3) 0.1953(3) -0.1094(3)
O5 O 1.0938(3) 0.2501(4) 0.0260(3)
O6 O 0.3443(3) -0.1711(3) -0.1131(3)
C16 C 0.4019(4) -0.2307(4) -0.1238(4)
H10 H 0.4717 -0.2072 -0.0839
H11 H 0.3961 -0.2353 -0.1834
C17 C 0.3667(5) -0.3186(4) -0.1059(4)
C18 C 0.4283(5) -0.3567(5) -0.0388(5)
H12 H 0.4939 -0.3250 -0.0048
C19 C 0.3955(5) -0.4392(5) -0.0214(5)
H13 H 0.4385 -0.4634 0.0246
C20 C 0.2981(5) -0.4886(4) -0.0713(4)
C21 C 0.2366(5) -0.4507(5) -0.1378(5)
H14 H 0.1711 -0.4823 -0.1723
C22 C 0.2704(5) -0.3675(5) -0.1538(5)
H15 H 0.2268 -0.3426 -0.1988
C23 C 0.2661(5) -0.5764(5) -0.0534(5)
O7 O 0.3146(4) -0.6003(3) 0.0183(3)
O8 O 0.1901(3) -0.6306(3) -0.1104(3)
O9 O 0.6678(3) 0.1012(3) 0.6475(3)
O10 O 0.7738(3) 0.2146(3) 0.6409(3)
C24 C 0.6956(4) 0.1827(4) 0.6493(4)
C25 C 0.6375(4) 0.2448(4) 0.6601(4)
C26 C 0.6640(4) 0.3339(4) 0.6564(4)
H16 H 0.7216 0.3570 0.6494
C27 C 0.6051(5) 0.3903(4) 0.6633(5)
C28 C 0.5226(5) 0.3572(4) 0.6746(5)
H17 H 0.4832 0.3958 0.6794
C29 C 0.4972(4) 0.2684(4) 0.6790(4)
C30 C 0.5524(4) 0.2115(4) 0.6709(4)
H18 H 0.5332 0.1498 0.6725
O11 O 0.4116(3) 0.2430(3) 0.6873(3)
C31 C 0.3652(4) 0.1497(4) 0.6656(4)
H19 H 0.4005 0.1168 0.7117
H20 H 0.3650 0.1250 0.6113
C32 C 0.2625(4) 0.1414(4) 0.6557(4)
C33 C 0.2449(4) 0.1718(4) 0.7252(4)
H21 H 0.2977 0.1987 0.7787
C34 C 0.1487(4) 0.1617(4) 0.7140(4)
H22 H 0.1361 0.1796 0.7613
C35 C 0.0715(4) 0.1263(4) 0.6359(4)
C36 C 0.0888(4) 0.1013(4) 0.5659(4)
H23 H 0.0356 0.0801 0.5111
C37 C 0.1851(5) 0.1075(5) 0.5765(4)
H24 H 0.1972 0.0885 0.5292
C38 C -0.0323(4) 0.1115(4) 0.6264(4)
O12 O -0.0483(3) 0.1173(3) 0.6921(3)
O13 O -0.1015(3) 0.0907(3) 0.5510(3)
O14 O 0.6354(4) 0.4778(3) 0.6551(4)
C39 C 0.5730(6) 0.5359(5) 0.6563(7)
H25 H 0.5695 0.5406 0.7124
H26 H 0.5061 0.5123 0.6104
C40 C 0.6161(6) 0.6259(5) 0.6416(6)
C41 C 0.7105(6) 0.6736(5) 0.7027(6)
H27 H 0.7479 0.6474 0.7501
C42 C 0.7469(5) 0.7582(5) 0.6923(5)
H28 H 0.8093 0.7912 0.7332
C43 C 0.6921(5) 0.7953(4) 0.6217(5)
C44 C 0.6020(5) 0.7474(5) 0.5609(5)
H29 H 0.5669 0.7725 0.5117
C45 C 0.5625(6) 0.6633(5) 0.5711(5)
H30 H 0.4995 0.6315 0.5304
C46 C 0.7297(5) 0.8901(4) 0.6129(5)
O15 O 0.6832(3) 0.9177(3) 0.5450(3)
O16 O 0.8039(3) 0.9391(3) 0.6749(3)
N1 N 0.3108(4) 0.2231(4) 0.1098(3)
C47 C 0.2951(4) 0.1404(5) 0.1306(4)
H31 H 0.2367 0.0984 0.0937
C48 C 0.3599(4) 0.1142(4) 0.2027(4)
H32 H 0.3463 0.0554 0.2150
C49 C 0.4452(4) 0.1747(4) 0.2572(4)
C50 C 0.4614(4) 0.2620(4) 0.2376(4)
H33 H 0.5184 0.3058 0.2740
C51 C 0.3920(4) 0.2817(4) 0.1642(4)
H34 H 0.4024 0.3407 0.1514
C52 C 0.5213(4) 0.1477(4) 0.3310(4)
C53 C 0.4993(4) 0.0731(4) 0.3664(4)
H35 H 0.4337 0.0396 0.3450
C54 C 0.5727(4) 0.0473(4) 0.4328(4)
H36 H 0.5561 -0.0050 0.4551
N2 N 0.6656(4) 0.0921(4) 0.4671(3)
C55 C 0.6877(5) 0.1650(5) 0.4354(4)
H37 H 0.7536 0.1981 0.4597
C56 C 0.6189(4) 0.1948(5) 0.3686(4)
H38 H 0.6380 0.2475 0.3481
Cd1_2 Cd -0.22262(3) 0.06273(3) 0.59840(3)
Cd1_3 Cd 0.77738(3) 1.06273(3) 0.59840(3)
Cd2_2 Cd 0.21511(3) -0.74629(3) -0.02429(3)
Cd2_3 Cd 1.21511(3) 0.25371(3) -0.02429(3)
O4_2 O 0.0438(3) 0.1953(3) -0.1094(3)
O5_2 O 0.0938(3) 0.2501(4) 0.0260(3)
O7_2 O 0.3146(4) 0.3997(3) 0.0183(3)
O8_2 O 0.1901(3) 0.3694(3) -0.1104(3)
O12_2 O 0.9517(3) 0.1173(3) 0.6921(3)
O13_2 O 0.8985(3) 0.0907(3) 0.5510(3)
O15_2 O 0.6832(3) -0.0823(3) 0.5450(3)
O16_2 O 0.8039(3) -0.0609(3) 0.6749(3)
loop_
_geom_bond_atom_site_label_1
_geom_bond_atom_site_label_2
_geom_bond_site_symmetry_1
_geom_bond_site_symmetry_2
Cd1 O9 1_555 1_555
Cd2 O1 1_555 1_555
O1 C1 1_555 1_555
O2 Cd2 1_555 1_555
C1 O2 1_555 1_555
C2 C1 1_555 1_555
C3 C2 1_555 1_555
H1 C3 1_555 1_555
C4 C3 1_555 1_555
C5 C4 1_555 1_555
H2 C5 1_555 1_555
C6 C5 1_555 1_555
C7 C2 1_555 1_555
H3 C7 1_555 1_555
O3 C4 1_555 1_555
C8 O3 1_555 1_555
H4 C8 1_555 1_555
H5 C8 1_555 1_555
C9 C8 1_555 1_555
C10 C9 1_555 1_555
H6 C10 1_555 1_555
C11 C10 1_555 1_555
H7 C11 1_555 1_555
C12 C11 1_555 1_555
C13 C12 1_555 1_555
H8 C13 1_555 1_555
C14 C9 1_555 1_555
H9 C14 1_555 1_555
C15 C12 1_555 1_555
O4 C15 1_555 1_555
O5 C15 1_555 1_555
O6 C6 1_555 1_555
C16 O6 1_555 1_555
H10 C16 1_555 1_555
H11 C16 1_555 1_555
C17 C16 1_555 1_555
C18 C17 1_555 1_555
H12 C18 1_555 1_555
C19 C18 1_555 1_555
H13 C19 1_555 1_555
C20 C19 1_555 1_555
C21 C20 1_555 1_555
H14 C21 1_555 1_555
C22 C17 1_555 1_555
H15 C22 1_555 1_555
C23 C20 1_555 1_555
O7 C23 1_555 1_555
O8 C23 1_555 1_555
O9 C24 1_555 1_555
O10 Cd1 1_555 1_555
C24 O10 1_555 1_555
C25 C24 1_555 1_555
C26 C25 1_555 1_555
H16 C26 1_555 1_555
C27 C26 1_555 1_555
C28 C27 1_555 1_555
H17 C28 1_555 1_555
C29 C28 1_555 1_555
C30 C25 1_555 1_555
H18 C30 1_555 1_555
O11 C29 1_555 1_555
C31 O11 1_555 1_555
H19 C31 1_555 1_555
H20 C31 1_555 1_555
C32 C31 1_555 1_555
C33 C32 1_555 1_555
H21 C33 1_555 1_555
C34 C33 1_555 1_555
H22 C34 1_555 1_555
C35 C34 1_555 1_555
C36 C35 1_555 1_555
H23 C36 1_555 1_555
C37 C32 1_555 1_555
H24 C37 1_555 1_555
C38 C35 1_555 1_555
O12 C38 1_555 1_555
O13 C38 1_555 1_555
O14 C27 1_555 1_555
C39 O14 1_555 1_555
H25 C39 1_555 1_555
H26 C39 1_555 1_555
C40 C39 1_555 1_555
C41 C40 1_555 1_555
H27 C41 1_555 1_555
C42 C41 1_555 1_555
H28 C42 1_555 1_555
C43 C42 1_555 1_555
C44 C43 1_555 1_555
H29 C44 1_555 1_555
C45 C40 1_555 1_555
H30 C45 1_555 1_555
C46 C43 1_555 1_555
O15 C46 1_555 1_555
O16 C46 1_555 1_555
N1 Cd2 1_555 1_555
C47 N1 1_555 1_555
H31 C47 1_555 1_555
C48 C47 1_555 1_555
H32 C48 1_555 1_555
C49 C48 1_555 1_555
C50 C49 1_555 1_555
H33 C50 1_555 1_555
C51 N1 1_555 1_555
H34 C51 1_555 1_555
C52 C49 1_555 1_555
C53 C52 1_555 1_555
H35 C53 1_555 1_555
C54 C53 1_555 1_555
H36 C54 1_555 1_555
N2 Cd1 1_555 1_555
C55 N2 1_555 1_555
H37 C55 1_555 1_555
C56 C52 1_555 1_555
H38 C56 1_555 1_555
N3 H39 1_555 1_555
H40 N3 1_555 1_555
C57 N3 1_555 1_555
H41 C57 1_555 1_555
H42 C57 1_555 1_555
H43 C57 1_555 1_555
C58 N3 1_555 1_555
H44 C58 1_555 1_555
H45 C58 1_555 1_555
H46 C58 1_555 1_555
N4 H47 1_555 1_555
H48 N4 1_555 1_555
C59 N4 1_555 1_555
H49 C59 1_555 1_555
H50 C59 1_555 1_555
H51 C59 1_555 1_555
C60 N4 1_555 1_555
H52 C60 1_555 1_555
H53 C60 1_555 1_555
H54 C60 1_555 1_555
Cd1_2 O12 1_555 1_555
Cd1_3 O15 1_555 1_555
Cd2_2 O7 1_555 1_555
Cd2_3 O4 1_555 1_555
O4_2 Cd2 1_555 1_555
O5_2 Cd2 1_555 1_555
O7_2 Cd2 1_555 1_555
O8_2 Cd2 1_555 1_555
O12_2 Cd1 1_555 1_555
O13_2 Cd1 1_555 1_555
O15_2 Cd1 1_555 1_555
O16_2 Cd1 1_555 1_555
C6 C7 1_555 1_555
C13 C14 1_555 1_555
O5 Cd2_3 1_555 1_555
C21 C22 1_555 1_555
O8 Cd2_2 1_555 1_555
C29 C30 1_555 1_555
C36 C37 1_555 1_555
O13 Cd1_2 1_555 1_555
C44 C45 1_555 1_555
O16 Cd1_3 1_555 1_555
C50 C51 1_555 1_555
C54 N2 1_555 1_555
C55 C56 1_555 1_555

#END
