
#######################################################################
#
#                 Cambridge Crystallographic Data Centre
#                                CCDC 
#
#######################################################################
#
# If this CIF has been generated from an entry in the Cambridge 
# Structural Database, then it will include bibliographic, chemical, 
# crystal, experimental, refinement or atomic coordinate data resulting 
# from the CCDC's data processing and validation procedures.
#
#######################################################################

data_BEPZEC
_symmetry_cell_setting           monoclinic
_symmetry_space_group_name_H-M   'P 21/n'
_symmetry_Int_Tables_number      14
_space_group_name_Hall           '-P 2yn'
loop_
_symmetry_equiv_pos_site_id
_symmetry_equiv_pos_as_xyz
1 x,y,z
2 1/2+x,1/2-y,1/2+z
3 -x,-y,-z
4 1/2-x,1/2+y,1/2-z
_cell_length_a                   6.0016(2)
_cell_length_b                   10.2759(3)
_cell_length_c                   17.4673(5)
_cell_angle_alpha                90
_cell_angle_beta                 92.2898(16)
_cell_angle_gamma                90
_cell_volume                     1076.38
loop_
_atom_site_label
_atom_site_type_symbol
_atom_site_fract_x
_atom_site_fract_y
_atom_site_fract_z
Cd1 Cd 0.0000 0.5000 0.0000
S1 S 0.2639(4) 0.3367(3) 0.09066(15)
N1 N -0.0099(13) 0.3394(9) -0.0906(5)
N2 N 0.1150(14) 0.2340(8) -0.0834(5)
N3 N 0.6925(15) 0.4150(10) 0.0568(6)
C1 C 0.0902(17) 0.1565(11) -0.1443(6)
C2 C -0.056(3) 0.2160(14) -0.1935(7)
H1 H -0.0985 0.1884 -0.2426
C3 C -0.129(2) 0.3257(12) -0.1569(7)
H2 H -0.2415 0.3811 -0.1750
C4 C 0.215(3) 0.0314(15) -0.1511(10)
C5 C 0.430(4) 0.052(3) -0.156(3)
H3 H 0.4787 0.1140 -0.1176
H4 H 0.4604 0.0848 -0.2057
H5 H 0.5094 -0.0285 -0.1474
C6 C 0.103(4) -0.058(3) -0.2074(18)
H6 H 0.1867 -0.1379 -0.2097
H7 H 0.0962 -0.0181 -0.2570
H8 H -0.0448 -0.0768 -0.1918
C7 C 0.183(7) -0.041(3) -0.083(3)
H9 H 0.2481 0.0058 -0.0401
H10 H 0.2536 -0.1241 -0.0870
H11 H 0.0266 -0.0521 -0.0765
C8 C 0.517(2) 0.3838(9) 0.0690(5)
N3_2 N -0.3075(15) 0.4150(10) 0.0568(6)
Cd1_2 Cd 1.0000 0.5000 0.0000
N3B N 0.3075(15) 0.5850(10) -0.0568(6)
S1B S -0.2639(4) 0.6633(3) -0.09066(15)
N1B N 0.0099(13) 0.6606(9) 0.0906(5)
N2B N -0.1150(14) 0.7660(8) 0.0834(5)
C1B C -0.0902(17) 0.8435(11) 0.1443(6)
C2B C 0.056(3) 0.7840(14) 0.1935(7)
H1B H 0.0985 0.8116 0.2426
C3B C 0.129(2) 0.6743(12) 0.1569(7)
H2B H 0.2415 0.6189 0.1750
C4B C -0.215(3) 0.9686(15) 0.1511(10)
C5B C -0.430(4) 0.948(3) 0.156(3)
H3B H -0.4787 0.8860 0.1176
H4B H -0.4604 0.9152 0.2057
H5B H -0.5094 1.0285 0.1474
C6B C -0.103(4) 1.058(3) 0.2074(18)
H6B H -0.1867 1.1379 0.2097
H7B H -0.0962 1.0181 0.2570
H8B H 0.0448 1.0768 0.1918
C7B C -0.183(7) 1.041(3) 0.083(3)
H9B H -0.2481 0.9942 0.0401
H10B H -0.2536 1.1241 0.0870
H11B H -0.0266 1.0521 0.0765
C8B C -0.517(2) 0.6162(9) -0.0690(5)
N3B_2 N -0.6925(15) 0.5850(10) -0.0568(6)
Cd1_3 Cd -1.0000 0.5000 0.0000
loop_
_geom_bond_atom_site_label_1
_geom_bond_atom_site_label_2
_geom_bond_site_symmetry_1
_geom_bond_site_symmetry_2
Cd1 S1 1_555 1_555
S1 C8 1_555 1_555
N1 Cd1 1_555 1_555
N2 N1 1_555 1_555
N3 C8 1_555 1_555
C1 N2 1_555 1_555
C2 C1 1_555 1_555
H1 C2 1_555 1_555
C3 N1 1_555 1_555
H2 C3 1_555 1_555
C4 C1 1_555 1_555
C5 C4 1_555 1_555
H3 C5 1_555 1_555
H4 C5 1_555 1_555
H5 C5 1_555 1_555
C6 C4 1_555 1_555
H6 C6 1_555 1_555
H7 C6 1_555 1_555
H8 C6 1_555 1_555
C7 C4 1_555 1_555
H9 C7 1_555 1_555
H10 C7 1_555 1_555
H11 C7 1_555 1_555
N3_2 Cd1 1_555 1_555
Cd1_2 N3 1_555 1_555
N3B Cd1 1_555 1_555
S1B Cd1 1_555 1_555
N1B Cd1 1_555 1_555
N2B N1B 1_555 1_555
C1B N2B 1_555 1_555
C2B C1B 1_555 1_555
H1B C2B 1_555 1_555
C3B N1B 1_555 1_555
H2B C3B 1_555 1_555
C4B C1B 1_555 1_555
C5B C4B 1_555 1_555
H3B C5B 1_555 1_555
H4B C5B 1_555 1_555
H5B C5B 1_555 1_555
C6B C4B 1_555 1_555
H6B C6B 1_555 1_555
H7B C6B 1_555 1_555
H8B C6B 1_555 1_555
C7B C4B 1_555 1_555
H9B C7B 1_555 1_555
H10B C7B 1_555 1_555
H11B C7B 1_555 1_555
C8B S1B 1_555 1_555
N3B_2 C8B 1_555 1_555
Cd1_3 N3B_2 1_555 1_555
C2 C3 1_555 1_555
C2B C3B 1_555 1_555

#END
