
#######################################################################
#
#                 Cambridge Crystallographic Data Centre
#                                CCDC 
#
#######################################################################
#
# If this CIF has been generated from an entry in the Cambridge 
# Structural Database, then it will include bibliographic, chemical, 
# crystal, experimental, refinement or atomic coordinate data resulting 
# from the CCDC's data processing and validation procedures.
#
#######################################################################

data_BEQBEG
_symmetry_cell_setting           monoclinic
_symmetry_space_group_name_H-M   'C 2/c'
_symmetry_Int_Tables_number      15
_space_group_name_Hall           '-C 2yn'
loop_
_symmetry_equiv_pos_site_id
_symmetry_equiv_pos_as_xyz
1 x,y,z
2 -x,y,1/2-z
3 1/2+x,1/2+y,z
4 1/2-x,1/2+y,1/2-z
5 -x,-y,-z
6 x,-y,1/2+z
7 1/2-x,1/2-y,-z
8 1/2+x,1/2-y,1/2+z
_cell_length_a                   29.757(9)
_cell_length_b                   10.905(3)
_cell_length_c                   18.485(6)
_cell_angle_alpha                90
_cell_angle_beta                 115.391(3)
_cell_angle_gamma                90
_cell_volume                     5418.96
loop_
_atom_site_label
_atom_site_type_symbol
_atom_site_fract_x
_atom_site_fract_y
_atom_site_fract_z
Cd1 Cd 0.869231(5) 0.666485(13) 0.342141(9)
C1 C 0.75719(10) 0.7402(3) 0.3209(2)
H1 H 0.7754 0.7991 0.3584
C2 C 0.70602(10) 0.7415(3) 0.2920(2)
H2 H 0.6903 0.7998 0.3098
C3 C 0.67847(9) 0.6536(2) 0.23565(16)
C4 C 0.70395(10) 0.5642(3) 0.21586(19)
H3 H 0.6869 0.5006 0.1815
C5 C 0.75538(10) 0.5705(3) 0.24791(19)
H4 H 0.7721 0.5098 0.2338
C6 C 0.62268(9) 0.6581(2) 0.20186(15)
C7 C 0.54381(9) 0.5450(3) 0.13584(19)
H5 H 0.5342 0.4706 0.1041
H6 H 0.5305 0.6139 0.0997
C8 C 0.52083(9) 0.5441(2) 0.19473(18)
C9 C 0.50997(13) 0.6533(3) 0.2224(3)
H7 H 0.5162 0.7275 0.2036
C10 C 0.51059(10) 0.4347(3) 0.22311(18)
H8 H 0.5180 0.3605 0.2058
C11 C 1.01979(9) 0.4050(2) 0.64234(14)
H9 H 1.0380 0.4215 0.6966
C12 C 0.96968(8) 0.4344(2) 0.60709(14)
H10 H 0.9547 0.4693 0.6371
C13 C 0.94206(8) 0.41065(19) 0.52541(13)
C14 C 0.96625(9) 0.3580(2) 0.48364(15)
H11 H 0.9490 0.3409 0.4293
C15 C 1.01649(9) 0.3310(2) 0.52411(16)
H12 H 1.0323 0.2951 0.4956
C16 C 0.88755(8) 0.44226(19) 0.48049(13)
C17 C 0.80738(9) 0.4603(2) 0.48761(18)
H13 H 0.7959 0.4836 0.4319
H14 H 0.8024 0.5295 0.5163
C18 C 0.77719(9) 0.3515(2) 0.49362(16)
C19 C 0.76002(11) 0.3466(3) 0.55271(19)
H15 H 0.7665 0.4114 0.5885
C20 C 0.73336(11) 0.2463(3) 0.55876(18)
H16 H 0.7223 0.2446 0.5988
C21 C 0.87494(8) 0.7778(2) 0.18457(12)
C22 C 0.87073(8) 0.87914(19) 0.12608(12)
C23 C 0.84279(9) 0.9843(2) 0.11953(14)
H17 H 0.8243 0.9906 0.1491
C24 C 0.84216(10) 1.0800(2) 0.06958(15)
H18 H 0.8237 1.1502 0.0667
C25 C 0.86901(9) 1.0716(2) 0.02356(13)
C26 C 0.89554(10) 0.9644(2) 0.02738(15)
H19 H 0.9124 0.9558 -0.0047
C27 C 0.89687(10) 0.8703(2) 0.07914(15)
H20 H 0.9155 0.8003 0.0825
C28 C 0.87086(10) 1.1775(2) -0.02768(15)
N1 N 0.78219(8) 0.65776(18) 0.29742(14)
N2 N 0.59827(8) 0.5537(2) 0.17417(15)
H21 H 0.6153 0.4879 0.1790
N3 N 1.04352(7) 0.35406(18) 0.60246(13)
N4 N 0.86025(7) 0.43043(18) 0.52109(12)
H22 H 0.8744 0.4039 0.5695
O1 O 0.60161(6) 0.75735(16) 0.20011(11)
O2 O 0.87096(6) 0.47420(16) 0.40905(10)
O3 O 0.86214(7) 0.80229(16) 0.24030(10)
O4 O 0.89145(7) 0.67541(14) 0.17535(11)
O5 O 0.86697(10) 1.28399(18) -0.00766(14)
O6 O 0.87570(8) 1.15311(16) -0.09068(11)
O7 O 0.85956(7) 0.50753(16) 0.25127(10)
C1A C 0.24281(10) 0.7402(3) 0.1791(2)
H1A H 0.2246 0.7991 0.1416
C2A C 0.29398(10) 0.7415(3) 0.2080(2)
H2A H 0.3097 0.7998 0.1902
C3A C 0.32153(9) 0.6536(2) 0.26435(16)
C4A C 0.29605(10) 0.5642(3) 0.28414(19)
H3A H 0.3131 0.5006 0.3185
C5A C 0.24462(10) 0.5705(3) 0.25209(19)
H4A H 0.2279 0.5098 0.2662
C6A C 0.37732(9) 0.6581(2) 0.29814(15)
C7A C 0.45619(9) 0.5450(3) 0.36416(19)
H5A H 0.4658 0.4706 0.3959
H6A H 0.4695 0.6139 0.4003
C8A C 0.47917(9) 0.5441(2) 0.30527(18)
C9A C 0.49003(13) 0.6533(3) 0.2776(3)
H7A H 0.4838 0.7275 0.2964
C10A C 0.48941(10) 0.4347(3) 0.27689(18)
H8A H 0.4820 0.3605 0.2942
N1A N 0.21781(8) 0.65776(18) 0.20258(14)
N2A N 0.40173(8) 0.5537(2) 0.32583(15)
H21A H 0.3847 0.4879 0.3210
O1A O 0.39839(6) 0.75735(16) 0.29989(11)
C11F C 0.48021(9) 0.0950(2) 0.35766(14)
H9F H 0.4620 0.0785 0.3034
C12F C 0.53032(8) 0.0656(2) 0.39291(14)
H10F H 0.5453 0.0307 0.3629
C13F C 0.55794(8) 0.08935(19) 0.47459(13)
C14F C 0.53375(9) 0.1420(2) 0.51636(15)
H11F H 0.5510 0.1591 0.5707
C15F C 0.48351(9) 0.1690(2) 0.47589(16)
H12F H 0.4677 0.2049 0.5044
C16F C 0.61245(8) 0.05774(19) 0.51951(13)
C17F C 0.69262(9) 0.0397(2) 0.51239(18)
H13F H 0.7041 0.0164 0.5681
H14F H 0.6976 -0.0295 0.4837
C18F C 0.72281(9) 0.1485(2) 0.50638(16)
C19F C 0.73998(11) 0.1534(3) 0.44729(19)
H15F H 0.7335 0.0886 0.4115
C20F C 0.76664(11) 0.2537(3) 0.44124(18)
H16F H 0.7777 0.2554 0.4012
N3F N 0.45648(7) 0.14594(18) 0.39754(13)
N4F N 0.63975(7) 0.06957(18) 0.47891(12)
H22F H 0.6256 0.0961 0.4305
O2F O 0.62904(6) 0.02580(16) 0.59095(10)
Cd1A Cd 0.130769(5) 0.666485(13) 0.157859(9)
C21A C 0.12506(8) 0.7778(2) 0.31543(12)
C22A C 0.12927(8) 0.87914(19) 0.37392(12)
C23A C 0.15721(9) 0.9843(2) 0.38047(14)
H17A H 0.1757 0.9906 0.3509
C24A C 0.15784(10) 1.0800(2) 0.43042(15)
H18A H 0.1763 1.1502 0.4333
C25A C 0.13099(9) 1.0716(2) 0.47644(13)
C26A C 0.10446(10) 0.9644(2) 0.47262(15)
H19A H 0.0876 0.9558 0.5047
C27A C 0.10313(10) 0.8703(2) 0.42086(15)
H20A H 0.0845 0.8003 0.4175
C28A C 0.12914(10) 1.1775(2) 0.52768(15)
O3A O 0.13786(7) 0.80229(16) 0.25970(10)
O4A O 0.10855(7) 0.67541(14) 0.32465(11)
O5A O 0.13303(10) 1.28399(18) 0.50766(14)
O6A O 0.12430(8) 1.15311(16) 0.59068(11)
O7A O 0.14044(7) 0.50753(16) 0.24873(10)
Cd1B Cd 0.369231(5) 0.166485(13) 0.342141(9)
Cd1D Cd 0.130769(5) 1.333515(13) 0.657859(9)
Cd1D_2 Cd 1.130769(5) 0.333515(13) 0.657859(9)
Cd1E Cd 0.869231(5) 1.333515(13) -0.157859(9)
Cd1F Cd 0.630769(5) -0.166485(13) 0.657859(9)
N3D N 0.95648(7) 0.64594(18) 0.39754(13)
N3E N 0.04352(7) 0.64594(18) 0.10246(13)
O2A O 0.12904(6) 0.47420(16) 0.09095(10)
O6D O 0.12430(8) 0.84689(16) 0.09068(11)
O6E O 0.87570(8) 0.84689(16) 0.40932(11)
O8 O 0.90002(13) 0.6329(2) 0.65245(17)
H23 H 0.9053 0.6850 0.6872
H24 H 0.8975 0.6515 0.6079
loop_
_geom_bond_atom_site_label_1
_geom_bond_atom_site_label_2
_geom_bond_site_symmetry_1
_geom_bond_site_symmetry_2
Cd1 N1 1_555 1_555
C1 H1 1_555 1_555
C2 C1 1_555 1_555
H2 C2 1_555 1_555
C3 C2 1_555 1_555
C4 C3 1_555 1_555
H3 C4 1_555 1_555
C5 C4 1_555 1_555
H4 C5 1_555 1_555
C6 C3 1_555 1_555
C7 H5 1_555 1_555
H6 C7 1_555 1_555
C8 C7 1_555 1_555
C9 C8 1_555 1_555
H7 C9 1_555 1_555
C10 C8 1_555 1_555
H8 C10 1_555 1_555
C11 H9 1_555 1_555
C12 C11 1_555 1_555
H10 C12 1_555 1_555
C13 C12 1_555 1_555
C14 C13 1_555 1_555
H11 C14 1_555 1_555
C15 C14 1_555 1_555
H12 C15 1_555 1_555
C16 C13 1_555 1_555
C17 H13 1_555 1_555
H14 C17 1_555 1_555
C18 C17 1_555 1_555
C19 C18 1_555 1_555
H15 C19 1_555 1_555
C20 C19 1_555 1_555
H16 C20 1_555 1_555
C21 C22 1_555 1_555
C22 C23 1_555 1_555
C23 H17 1_555 1_555
C24 C23 1_555 1_555
H18 C24 1_555 1_555
C25 C24 1_555 1_555
C26 C25 1_555 1_555
H19 C26 1_555 1_555
C27 C22 1_555 1_555
H20 C27 1_555 1_555
C28 C25 1_555 1_555
N1 C1 1_555 1_555
N2 C6 1_555 1_555
H21 N2 1_555 1_555
N3 C11 1_555 1_555
N4 C16 1_555 1_555
H22 N4 1_555 1_555
O1 C6 1_555 1_555
O2 Cd1 1_555 1_555
O3 Cd1 1_555 1_555
O4 C21 1_555 1_555
O5 C28 1_555 1_555
O6 C28 1_555 1_555
O7 Cd1 1_555 1_555
O8 H23 1_555 1_555
H24 O8 1_555 1_555
C1A H1A 1_555 1_555
C2A C1A 1_555 1_555
H2A C2A 1_555 1_555
C3A C2A 1_555 1_555
C4A C3A 1_555 1_555
H3A C4A 1_555 1_555
C5A C4A 1_555 1_555
H4A C5A 1_555 1_555
C6A C3A 1_555 1_555
C7A H5A 1_555 1_555
H6A C7A 1_555 1_555
C8A C7A 1_555 1_555
C9A C9 1_555 1_555
H7A C9A 1_555 1_555
C10A C10 1_555 1_555
H8A C10A 1_555 1_555
N1A C1A 1_555 1_555
N2A C6A 1_555 1_555
H21A N2A 1_555 1_555
O1A C6A 1_555 1_555
C11F H9F 1_555 1_555
C12F C11F 1_555 1_555
H10F C12F 1_555 1_555
C13F C12F 1_555 1_555
C14F C13F 1_555 1_555
H11F C14F 1_555 1_555
C15F C14F 1_555 1_555
H12F C15F 1_555 1_555
C16F C13F 1_555 1_555
C17F H13F 1_555 1_555
H14F C17F 1_555 1_555
C18F C20 1_555 1_555
C19F C18F 1_555 1_555
H15F C19F 1_555 1_555
C20F C18 1_555 1_555
H16F C20F 1_555 1_555
N3F C11F 1_555 1_555
N4F C16F 1_555 1_555
H22F N4F 1_555 1_555
O2F C16F 1_555 1_555
Cd1A N1A 1_555 1_555
C21A C22A 1_555 1_555
C22A C23A 1_555 1_555
C23A H17A 1_555 1_555
C24A C23A 1_555 1_555
H18A C24A 1_555 1_555
C25A C24A 1_555 1_555
C26A C25A 1_555 1_555
H19A C26A 1_555 1_555
C27A C22A 1_555 1_555
H20A C27A 1_555 1_555
C28A C25A 1_555 1_555
O3A Cd1A 1_555 1_555
O4A C21A 1_555 1_555
O5A C28A 1_555 1_555
O6A C28A 1_555 1_555
O7A Cd1A 1_555 1_555
Cd1B N3F 1_555 1_555
Cd1D O6A 1_555 1_555
Cd1D_2 N3 1_555 1_555
Cd1E O6 1_555 1_555
Cd1F O2F 1_555 1_555
N3D Cd1 1_555 1_555
N3E Cd1A 1_555 1_555
O2A Cd1A 1_555 1_555
O6D Cd1A 1_555 1_555
O6E Cd1 1_555 1_555
C5 N1 1_555 1_555
C7 N2 1_555 1_555
C15 N3 1_555 1_555
C16 O2 1_555 1_555
C17 N4 1_555 1_555
C21 O3 1_555 1_555
C26 C27 1_555 1_555
C5A N1A 1_555 1_555
C7A N2A 1_555 1_555
C8A C9A 1_555 1_555
C8A C10A 1_555 1_555
C15F N3F 1_555 1_555
C17F C18F 1_555 1_555
C17F N4F 1_555 1_555
C19F C20F 1_555 1_555
C21A O3A 1_555 1_555
C26A C27A 1_555 1_555

#END
