
#######################################################################
#
#                 Cambridge Crystallographic Data Centre
#                                CCDC 
#
#######################################################################
#
# If this CIF has been generated from an entry in the Cambridge 
# Structural Database, then it will include bibliographic, chemical, 
# crystal, experimental, refinement or atomic coordinate data resulting 
# from the CCDC's data processing and validation procedures.
#
#######################################################################

data_BEQBOQ
_symmetry_cell_setting           orthorhombic
_symmetry_space_group_name_H-M   'P n a 21'
_symmetry_Int_Tables_number      33
_space_group_name_Hall           'P 2c -2n'
loop_
_symmetry_equiv_pos_site_id
_symmetry_equiv_pos_as_xyz
1 x,y,z
2 -x,-y,1/2+z
3 1/2-x,1/2+y,1/2+z
4 1/2+x,1/2-y,z
_cell_length_a                   18.241(4)
_cell_length_b                   14.868(3)
_cell_length_c                   19.410(4)
_cell_angle_alpha                90
_cell_angle_beta                 90
_cell_angle_gamma                90
_cell_volume                     5264.13
loop_
_atom_site_label
_atom_site_type_symbol
_atom_site_fract_x
_atom_site_fract_y
_atom_site_fract_z
Zn1 Zn -0.01466(3) -0.34986(4) 0.51019(2)
C1 C 0.1051(3) -0.2839(3) 0.6003(2)
H1 H 0.0859 -0.3270 0.6300
C2 C 0.1571(3) -0.2255(4) 0.6253(2)
H2 H 0.1722 -0.2293 0.6710
C3 C 0.1868(3) -0.1611(3) 0.5823(2)
C4 C 0.1648(4) -0.1626(4) 0.5148(3)
H3 H 0.1853 -0.1227 0.4833
C5 C 0.1127(4) -0.2226(4) 0.4938(3)
H4 H 0.0987 -0.2221 0.4478
C6 C 0.2388(3) -0.0924(3) 0.6138(3)
C7 C 0.3099(3) 0.0460(3) 0.5955(3)
H5 H 0.3520 0.0463 0.5649
H6 H 0.3275 0.0315 0.6413
C8 C 0.2772(3) 0.1394(3) 0.5969(3)
C9 C 0.2032(3) 0.1567(3) 0.5924(3)
H7 H 0.1703 0.1091 0.5896
C10 C 0.1772(3) 0.2442(3) 0.5921(3)
H8 H 0.1270 0.2544 0.5885
C11 C 0.2244(3) 0.3169(3) 0.5970(3)
C12 C 0.2987(3) 0.2983(4) 0.6031(3)
H9 H 0.3317 0.3455 0.6083
C13 C 0.3243(3) 0.2117(4) 0.6016(3)
H10 H 0.3745 0.2014 0.6039
C14 C 0.1922(3) 0.4103(3) 0.6003(3)
H11 H 0.1476 0.4114 0.5731
H12 H 0.1790 0.4233 0.6476
C15 C 0.2655(3) 0.5479(3) 0.6161(2)
C16 C 0.3132(3) 0.6195(3) 0.5845(2)
C17 C 0.3373(4) 0.6215(4) 0.5177(3)
H13 H 0.3228 0.5771 0.4869
C18 C 0.3833(4) 0.6898(4) 0.4964(3)
H14 H 0.3992 0.6895 0.4509
C19 C 0.3362(3) 0.6885(4) 0.6268(2)
H15 H 0.3209 0.6904 0.6725
C20 C 0.3814(3) 0.7544(3) 0.6017(2)
H16 H 0.3955 0.8005 0.6313
C21 C -0.0132(3) -0.3485(3) 0.3719(3)
C22 C -0.0089(2) -0.3888(3) 0.3006(2)
C23 C -0.0168(2) -0.3338(3) 0.2434(2)
H17 H -0.0245 -0.2724 0.2492
C24 C -0.0134(2) -0.3703(3) 0.1772(2)
H18 H -0.0199 -0.3335 0.1390
C25 C 0.0039(3) -0.4796(4) 0.2921(3)
H19 H 0.0087 -0.5165 0.3305
C26 C 0.0096(3) -0.5157(3) 0.2270(2)
H20 H 0.0202 -0.5766 0.2217
C27 C -0.0003(2) -0.4613(3) 0.1686(2)
C28 C 0.0005(2) -0.5012(3) 0.0974(2)
N1 N 0.0809(2) -0.2818(2) 0.53579(19)
N2 N 0.2597(2) -0.0246(3) 0.5733(2)
H21 H 0.2437 -0.0146 0.5323
N3 N 0.2413(2) 0.4815(3) 0.5754(2)
H22 H 0.2532 0.4805 0.5325
N4 N 0.4061(2) 0.7557(3) 0.53714(19)
O1 O 0.2589(2) -0.1008(2) 0.67353(17)
O2 O 0.2505(3) 0.5522(3) 0.67761(17)
O3 O -0.0167(2) -0.4048(3) 0.42110(18)
O4 O -0.01206(19) -0.2660(2) 0.3794(2)
O5 O 0.0267(2) -0.5803(2) 0.09323(18)
O6 O -0.0223(3) -0.4585(3) 0.04872(18)
Zn1A Zn 0.01466(3) -0.65014(4) 0.01019(2)
Zn1C Zn 0.48534(3) 0.84986(4) 0.51019(2)
N4C N -0.0939(2) -0.2557(3) 0.53714(19)
O5A O -0.0267(2) -0.4197(2) 0.59323(18)
Zn2 Zn 0.48215(3) 1.33156(3) 0.37695(2)
C29 C 0.3447(3) 1.2392(4) 0.4184(3)
H23 H 0.3454 1.2814 0.4537
C30 C 0.2917(3) 1.1726(4) 0.4199(3)
H24 H 0.2575 1.1704 0.4553
C31 C 0.2907(3) 1.1093(3) 0.3676(2)
C32 C 0.3411(3) 1.1168(3) 0.3157(3)
H25 H 0.3412 1.0759 0.2794
C33 C 0.3917(3) 1.1857(3) 0.3178(3)
H26 H 0.4254 1.1907 0.2820
C34 C 0.2372(3) 1.0319(4) 0.3725(3)
C35 C 0.1689(3) 0.9170(4) 0.3101(3)
H27 H 0.1389 0.9226 0.2691
H28 H 0.1365 0.9185 0.3496
C36 C 0.2066(3) 0.8279(4) 0.3084(3)
C37 C 0.2808(4) 0.8156(5) 0.3157(4)
H29 H 0.3110 0.8652 0.3224
C38 C 0.3114(3) 0.7303(5) 0.3133(4)
H30 H 0.3618 0.7242 0.3191
C39 C 0.2697(3) 0.6541(4) 0.3025(3)
C40 C 0.1954(4) 0.6673(5) 0.2950(4)
H31 H 0.1653 0.6179 0.2870
C41 C 0.1644(3) 0.7514(5) 0.2990(4)
H32 H 0.1138 0.7572 0.2953
C42 C 0.3070(3) 0.5643(4) 0.2966(3)
H33 H 0.3305 0.5602 0.2519
H34 H 0.3450 0.5604 0.3315
C43 C 0.2330(3) 0.4613(4) 0.3656(3)
C44 C 0.1761(3) 0.3879(3) 0.3671(2)
C45 C 0.1225(3) 0.3919(3) 0.4170(2)
H35 H 0.1223 0.4387 0.4488
C46 C 0.0693(3) 0.3266(3) 0.4196(2)
H36 H 0.0333 0.3302 0.4534
C47 C 0.1739(3) 0.3175(4) 0.3209(3)
H37 H 0.2084 0.3134 0.2857
C48 C 0.1202(3) 0.2537(3) 0.3276(3)
H38 H 0.1204 0.2051 0.2974
C49 C 0.4893(3) 1.3934(4) 0.2476(3)
C50 C 0.4933(2) 1.4596(3) 0.1900(2)
C51 C 0.4988(3) 1.5510(3) 0.2011(3)
H39 H 0.4976 1.5733 0.2459
C52 C 0.5060(3) 1.6101(3) 0.1461(3)
H40 H 0.5108 1.6715 0.1540
C53 C 0.4924(3) 1.4267(3) 0.1228(3)
H41 H 0.4878 1.3653 0.1147
C54 C 0.4984(3) 1.4859(4) 0.0681(3)
H42 H 0.4972 1.4639 0.0232
C55 C 0.5060(3) 1.5767(3) 0.0792(2)
C56 C 0.5151(3) 1.6400(3) 0.0190(3)
N5 N 0.3942(2) 1.2454(2) 0.36899(19)
N6 N 0.2178(3) 0.9942(3) 0.3137(3)
H43 H 0.2329 1.0117 0.2739
N7 N 0.2570(3) 0.4879(3) 0.3048(2)
H44 H 0.2453 0.4633 0.2662
N8 N 0.0679(2) 0.2577(2) 0.3751(2)
O7 O 0.2160(3) 1.0065(3) 0.4291(2)
O8 O 0.2530(3) 0.4953(4) 0.4205(2)
O9 O 0.4895(2) 1.4262(3) 0.3088(2)
O10 O 0.4885(2) 1.3119(3) 0.2361(2)
O11 O 0.5157(2) 1.7215(3) 0.02844(19)
O12 O 0.5227(2) 1.6004(3) -0.03918(18)
Zn2A Zn 0.51785(3) 1.66844(3) -0.12305(2)
Zn2C Zn -0.01785(3) 0.16844(3) 0.37695(2)
N8C N 0.5679(2) 1.2423(2) 0.3751(2)
O12A O 0.4773(2) 1.3996(3) 0.46082(18)
loop_
_geom_bond_atom_site_label_1
_geom_bond_atom_site_label_2
_geom_bond_site_symmetry_1
_geom_bond_site_symmetry_2
Zn1 N1 1_555 1_555
C1 H1 1_555 1_555
C2 C1 1_555 1_555
H2 C2 1_555 1_555
C3 C2 1_555 1_555
C4 C3 1_555 1_555
H3 C4 1_555 1_555
C5 C4 1_555 1_555
H4 C5 1_555 1_555
C6 C3 1_555 1_555
C7 H5 1_555 1_555
H6 C7 1_555 1_555
C8 C7 1_555 1_555
C9 C8 1_555 1_555
H7 C9 1_555 1_555
C10 C9 1_555 1_555
H8 C10 1_555 1_555
C11 C10 1_555 1_555
C12 C11 1_555 1_555
H9 C12 1_555 1_555
C13 C8 1_555 1_555
H10 C13 1_555 1_555
C14 C11 1_555 1_555
H11 C14 1_555 1_555
H12 C14 1_555 1_555
C15 C16 1_555 1_555
C16 C17 1_555 1_555
C17 H13 1_555 1_555
C18 C17 1_555 1_555
H14 C18 1_555 1_555
C19 C16 1_555 1_555
H15 C19 1_555 1_555
C20 C19 1_555 1_555
H16 C20 1_555 1_555
C21 C22 1_555 1_555
C22 C23 1_555 1_555
C23 H17 1_555 1_555
C24 C23 1_555 1_555
H18 C24 1_555 1_555
C25 C22 1_555 1_555
H19 C25 1_555 1_555
C26 C25 1_555 1_555
H20 C26 1_555 1_555
C27 C24 1_555 1_555
C28 C27 1_555 1_555
N1 C1 1_555 1_555
N2 C6 1_555 1_555
H21 N2 1_555 1_555
N3 C14 1_555 1_555
H22 N3 1_555 1_555
N4 C18 1_555 1_555
O1 C6 1_555 1_555
O2 C15 1_555 1_555
O3 Zn1 1_555 1_555
O4 C21 1_555 1_555
O5 C28 1_555 1_555
O6 C28 1_555 1_555
Zn2 N5 1_555 1_555
C29 H23 1_555 1_555
C30 C29 1_555 1_555
H24 C30 1_555 1_555
C31 C30 1_555 1_555
C32 C31 1_555 1_555
H25 C32 1_555 1_555
C33 C32 1_555 1_555
H26 C33 1_555 1_555
C34 C31 1_555 1_555
C35 H27 1_555 1_555
H28 C35 1_555 1_555
C36 C35 1_555 1_555
C37 C36 1_555 1_555
H29 C37 1_555 1_555
C38 C37 1_555 1_555
H30 C38 1_555 1_555
C39 C38 1_555 1_555
C40 C39 1_555 1_555
H31 C40 1_555 1_555
C41 C36 1_555 1_555
H32 C41 1_555 1_555
C42 C39 1_555 1_555
H33 C42 1_555 1_555
H34 C42 1_555 1_555
C43 C44 1_555 1_555
C44 C45 1_555 1_555
C45 H35 1_555 1_555
C46 C45 1_555 1_555
H36 C46 1_555 1_555
C47 C44 1_555 1_555
H37 C47 1_555 1_555
C48 C47 1_555 1_555
H38 C48 1_555 1_555
C49 C50 1_555 1_555
C50 C51 1_555 1_555
C51 H39 1_555 1_555
C52 C51 1_555 1_555
H40 C52 1_555 1_555
C53 C50 1_555 1_555
H41 C53 1_555 1_555
C54 C53 1_555 1_555
H42 C54 1_555 1_555
C55 C52 1_555 1_555
C56 C55 1_555 1_555
N5 C29 1_555 1_555
N6 C34 1_555 1_555
H43 N6 1_555 1_555
N7 C42 1_555 1_555
H44 N7 1_555 1_555
N8 C46 1_555 1_555
O7 C34 1_555 1_555
O8 C43 1_555 1_555
O9 Zn2 1_555 1_555
O10 C49 1_555 1_555
O11 C56 1_555 1_555
O12 C56 1_555 1_555
Zn1A O5 1_555 1_555
Zn1C N4 1_555 1_555
N4C Zn1 1_555 1_555
O5A Zn1 1_555 1_555
Zn2A O12 1_555 1_555
Zn2C N8 1_555 1_555
N8C Zn2 1_555 1_555
O12A Zn2 1_555 1_555
C5 N1 1_555 1_555
C7 N2 1_555 1_555
C12 C13 1_555 1_555
C15 N3 1_555 1_555
C20 N4 1_555 1_555
C21 O3 1_555 1_555
C26 C27 1_555 1_555
C33 N5 1_555 1_555
C35 N6 1_555 1_555
C40 C41 1_555 1_555
C43 N7 1_555 1_555
C48 N8 1_555 1_555
C49 O9 1_555 1_555
C54 C55 1_555 1_555

#END
