
#######################################################################
#
#                 Cambridge Crystallographic Data Centre
#                                CCDC 
#
#######################################################################
#
# If this CIF has been generated from an entry in the Cambridge 
# Structural Database, then it will include bibliographic, chemical, 
# crystal, experimental, refinement or atomic coordinate data resulting 
# from the CCDC's data processing and validation procedures.
#
#######################################################################

data_BEQBIK
_symmetry_cell_setting           monoclinic
_symmetry_space_group_name_H-M   'C 2/c'
_symmetry_Int_Tables_number      15
_space_group_name_Hall           '-C 2yn'
loop_
_symmetry_equiv_pos_site_id
_symmetry_equiv_pos_as_xyz
1 x,y,z
2 -x,y,1/2-z
3 1/2+x,1/2+y,z
4 1/2-x,1/2+y,1/2-z
5 -x,-y,-z
6 x,-y,1/2+z
7 1/2-x,1/2-y,-z
8 1/2+x,1/2-y,1/2+z
_cell_length_a                   29.924(3)
_cell_length_b                   10.8697(12)
_cell_length_c                   18.562(2)
_cell_angle_alpha                90
_cell_angle_beta                 116.4960(10)
_cell_angle_gamma                90
_cell_volume                     5403.41
loop_
_atom_site_label
_atom_site_type_symbol
_atom_site_fract_x
_atom_site_fract_y
_atom_site_fract_z
C1 C 0.26021(7) 0.75240(18) 0.32479(12)
H1 H 0.2787 0.6896 0.3592
C2 C 0.20877(7) 0.75132(18) 0.29596(13)
H2 H 0.1932 0.6888 0.3106
C3 C 0.25752(7) 0.93293(18) 0.25866(12)
H3 H 0.2741 0.9960 0.2468
C4 C 0.20578(7) 0.93931(18) 0.22720(12)
H4 H 0.1883 1.0053 0.1951
C5 C 0.18068(7) 0.84524(17) 0.24468(11)
C6 C 0.12470(7) 0.83497(17) 0.20830(11)
C7 C 0.04259(7) 0.9281(2) 0.13418(13)
H5 H 0.0324 0.8548 0.1009
H6 H 0.0296 0.9988 0.0991
C8 C 0.02002(7) 0.92486(19) 0.19295(13)
C9 C 0.00832(8) 0.81617(19) 0.22061(17)
C10 C 0.01024(7) 1.03278(18) 0.22329(12)
C11 C 0.48469(7) 0.83610(17) 0.47827(12)
H7 H 0.4692 0.8019 0.5073
C12 C 0.53536(7) 0.86254(17) 0.51841(11)
H8 H 0.5533 0.8470 0.5732
C13 C 0.47986(7) 0.90666(18) 0.35790(11)
H9 H 0.4610 0.9220 0.3032
C14 C 0.53053(7) 0.93554(17) 0.39312(11)
H10 H 0.5451 0.9693 0.3626
C15 C 0.55894(6) 0.91275(16) 0.47522(10)
C16 C 0.61363(6) 0.94340(16) 0.52037(10)
C17 C 0.69346(7) 0.96219(19) 0.51483(12)
H11 H 0.7052 0.9829 0.5712
H12 H 0.6986 1.0332 0.4877
C18 C 0.72311(7) 0.85380(18) 0.50723(11)
C19 C 0.72801(7) 0.7463(2) 0.55042(11)
C20 C 0.75393(7) 0.64516(19) 0.54359(12)
C21 C 0.37456(7) 0.56777(17) 0.52572(10)
C22 C 0.34789(8) 0.58116(17) 0.57092(12)
H13 H 0.3307 0.6538 0.5676
C23 C 0.34698(7) 0.48641(18) 0.62079(11)
H14 H 0.3284 0.4954 0.6494
C24 C 0.40014(7) 0.45820(18) 0.53106(11)
H15 H 0.4171 0.4474 0.5000
C25 C 0.40032(7) 0.36499(17) 0.58270(11)
H16 H 0.4183 0.2932 0.5871
C26 C 0.37370(7) 0.37816(16) 0.62814(10)
C27 C 0.37457(7) 0.27604(17) 0.68419(10)
C28 C 0.37605(7) 0.67107(17) 0.47232(12)
Cd1 Cd 0.370301(4) 0.829975(11) 0.344031(7)
F1 F 0.01209(6) 0.70697(13) 0.18940(13)
F2 F 0.02034(5) 1.14148(12) 0.19868(9)
F3 F 0.70654(5) 0.74035(13) 0.60071(8)
F4 F 0.75658(5) 0.54352(12) 0.58693(8)
N1 N 0.28452(6) 0.84004(14) 0.30534(10)
N2 N 0.09730(6) 0.93461(16) 0.17419(12)
H17 H 0.1119 1.0034 0.1757
N3 N 0.45695(6) 0.85770(14) 0.39918(9)
N4 N 0.64046(6) 0.93259(15) 0.47949(9)
H18 H 0.6259 0.9072 0.4305
O1 O 0.10538(5) 0.73535(13) 0.20974(9)
O2 O 0.63133(5) 0.97388(12) 0.59258(8)
O3 O 0.37216(7) 0.77939(14) 0.49057(10)
O4 O 0.38058(6) 0.64260(13) 0.40942(8)
O5 O 0.36164(5) 0.30254(13) 0.73864(8)
O6 O 0.38854(6) 0.17106(11) 0.67313(8)
O7 O 0.35856(5) 0.98712(12) 0.25241(8)
C1A C -0.26021(7) 0.75240(18) 0.17521(12)
H1A H -0.2787 0.6896 0.1408
C2A C -0.20877(7) 0.75132(18) 0.20404(13)
H2A H -0.1932 0.6888 0.1894
C3A C -0.25752(7) 0.93293(18) 0.24134(12)
H3A H -0.2741 0.9960 0.2532
C4A C -0.20578(7) 0.93931(18) 0.27280(12)
H4A H -0.1883 1.0053 0.3049
C5A C -0.18068(7) 0.84524(17) 0.25532(11)
C6A C -0.12470(7) 0.83497(17) 0.29170(11)
C7A C -0.04259(7) 0.9281(2) 0.36582(13)
H5A H -0.0324 0.8548 0.3991
H6A H -0.0296 0.9988 0.4009
C8A C -0.02002(7) 0.92486(19) 0.30705(13)
C9A C -0.00832(8) 0.81617(19) 0.27939(17)
C10A C -0.01024(7) 1.03278(18) 0.27671(12)
F1A F -0.01209(6) 0.70697(13) 0.31060(13)
F2A F -0.02034(5) 1.14148(12) 0.30132(9)
N1A N -0.28452(6) 0.84004(14) 0.19466(10)
N2A N -0.09730(6) 0.93461(16) 0.32581(12)
H17A H -0.1119 1.0034 0.3243
O1A O -0.10538(5) 0.73535(13) 0.29026(9)
C11F C 1.01531(7) 0.66390(17) 0.52173(12)
H7F H 1.0308 0.6981 0.4927
C12F C 0.96464(7) 0.63746(17) 0.48159(11)
H8F H 0.9467 0.6530 0.4268
C13F C 1.02014(7) 0.59334(18) 0.64210(11)
H9F H 1.0390 0.5780 0.6968
C14F C 0.96947(7) 0.56446(17) 0.60688(11)
H10F H 0.9549 0.5307 0.6374
C15F C 0.94106(6) 0.58725(16) 0.52478(10)
C16F C 0.88637(6) 0.55660(16) 0.47963(10)
C17F C 0.80654(7) 0.53781(19) 0.48517(12)
H11F H 0.7948 0.5171 0.4288
H12F H 0.8014 0.4668 0.5123
C18F C 0.77689(7) 0.64620(18) 0.49277(11)
C19F C 0.77199(7) 0.7537(2) 0.44958(11)
C20F C 0.74607(7) 0.85484(19) 0.45641(12)
F3F F 0.79346(5) 0.75965(13) 0.39929(8)
F4F F 0.74342(5) 0.95648(12) 0.41307(8)
N3F N 1.04305(6) 0.64230(14) 0.60082(9)
N4F N 0.85954(6) 0.56741(15) 0.52051(9)
H18F H 0.8741 0.5928 0.5695
O2F O 0.86867(5) 0.52612(12) 0.40742(8)
C21A C -0.37456(7) 0.56777(17) -0.02572(10)
C22A C -0.34789(8) 0.58116(17) -0.07092(12)
H13A H -0.3307 0.6538 -0.0676
C23A C -0.34698(7) 0.48641(18) -0.12079(11)
H14A H -0.3284 0.4954 -0.1494
C24A C -0.40014(7) 0.45820(18) -0.03106(11)
H15A H -0.4171 0.4474 0.0000
C25A C -0.40032(7) 0.36499(17) -0.08270(11)
H16A H -0.4183 0.2932 -0.0871
C26A C -0.37370(7) 0.37816(16) -0.12814(10)
C27A C -0.37457(7) 0.27604(17) -0.18419(10)
C28A C -0.37605(7) 0.67107(17) 0.02768(12)
Cd1A Cd -0.370301(4) 0.829975(11) 0.155969(7)
O3A O -0.37216(7) 0.77939(14) 0.00943(10)
O4A O -0.38058(6) 0.64260(13) 0.09058(8)
O5A O -0.36164(5) 0.30254(13) -0.23864(8)
O6A O -0.38854(6) 0.17106(11) -0.17313(8)
O7A O -0.35856(5) 0.98712(12) 0.24759(8)
Cd1B Cd 0.870301(4) 0.329975(11) 0.344031(7)
Cd1D Cd -0.370301(4) 0.170025(11) -0.344031(7)
Cd1D_2 Cd 0.629699(4) 1.170025(11) 0.655969(7)
Cd1E Cd 0.370301(4) 0.170025(11) 0.844031(7)
Cd1F Cd 1.129699(4) 0.670025(11) 0.655969(7)
N3A N -0.45695(6) 0.85770(14) 0.10082(9)
O2D O 0.36867(5) 1.02612(12) 0.40742(8)
O2E O -0.36867(5) 1.02612(12) 0.09258(8)
O5D O -0.36164(5) 0.69746(13) 0.26136(8)
O5E O 0.36164(5) 0.69746(13) 0.23864(8)
O8 O 0.39395(11) 0.8752(2) 0.64604(14)
H19 H 0.3995 0.8249 0.6841
H20 H 0.3949 0.8400 0.6058
loop_
_geom_bond_atom_site_label_1
_geom_bond_atom_site_label_2
_geom_bond_site_symmetry_1
_geom_bond_site_symmetry_2
C1 H1 1_555 1_555
C2 C1 1_555 1_555
H2 C2 1_555 1_555
C3 H3 1_555 1_555
C4 C3 1_555 1_555
H4 C4 1_555 1_555
C5 C2 1_555 1_555
C6 C5 1_555 1_555
C7 H5 1_555 1_555
H6 C7 1_555 1_555
C8 C7 1_555 1_555
C9 C8 1_555 1_555
C10 C8 1_555 1_555
C11 H7 1_555 1_555
C12 C11 1_555 1_555
H8 C12 1_555 1_555
C13 H9 1_555 1_555
C14 C13 1_555 1_555
H10 C14 1_555 1_555
C15 C12 1_555 1_555
C16 C15 1_555 1_555
C17 H11 1_555 1_555
H12 C17 1_555 1_555
C18 C17 1_555 1_555
C19 C18 1_555 1_555
C20 C19 1_555 1_555
C21 C22 1_555 1_555
C22 H13 1_555 1_555
C23 C22 1_555 1_555
H14 C23 1_555 1_555
C24 C21 1_555 1_555
H15 C24 1_555 1_555
C25 C24 1_555 1_555
H16 C25 1_555 1_555
C26 C23 1_555 1_555
C27 C26 1_555 1_555
C28 C21 1_555 1_555
Cd1 N1 1_555 1_555
F1 C9 1_555 1_555
F2 C10 1_555 1_555
F3 C19 1_555 1_555
F4 C20 1_555 1_555
N1 C1 1_555 1_555
N2 C6 1_555 1_555
H17 N2 1_555 1_555
N3 C11 1_555 1_555
N4 C16 1_555 1_555
H18 N4 1_555 1_555
O1 C6 1_555 1_555
O2 C16 1_555 1_555
O3 C28 1_555 1_555
O4 C28 1_555 1_555
O5 C27 1_555 1_555
O6 C27 1_555 1_555
O7 Cd1 1_555 1_555
O8 H19 1_555 1_555
H20 O8 1_555 1_555
C1A H1A 1_555 1_555
C2A C1A 1_555 1_555
H2A C2A 1_555 1_555
C3A H3A 1_555 1_555
C4A C3A 1_555 1_555
H4A C4A 1_555 1_555
C5A C2A 1_555 1_555
C6A C5A 1_555 1_555
C7A H5A 1_555 1_555
H6A C7A 1_555 1_555
C8A C7A 1_555 1_555
C9A C9 1_555 1_555
C10A C10 1_555 1_555
F1A C9A 1_555 1_555
F2A C10A 1_555 1_555
N1A C1A 1_555 1_555
N2A C6A 1_555 1_555
H17A N2A 1_555 1_555
O1A C6A 1_555 1_555
C11F H7F 1_555 1_555
C12F C11F 1_555 1_555
H8F C12F 1_555 1_555
C13F H9F 1_555 1_555
C14F C13F 1_555 1_555
H10F C14F 1_555 1_555
C15F C12F 1_555 1_555
C16F C15F 1_555 1_555
C17F H11F 1_555 1_555
H12F C17F 1_555 1_555
C18F C20 1_555 1_555
C19F C18F 1_555 1_555
C20F C18 1_555 1_555
F3F C19F 1_555 1_555
F4F C20F 1_555 1_555
N3F C11F 1_555 1_555
N4F C16F 1_555 1_555
H18F N4F 1_555 1_555
O2F C16F 1_555 1_555
C21A C22A 1_555 1_555
C22A H13A 1_555 1_555
C23A C22A 1_555 1_555
H14A C23A 1_555 1_555
C24A C21A 1_555 1_555
H15A C24A 1_555 1_555
C25A C24A 1_555 1_555
H16A C25A 1_555 1_555
C26A C23A 1_555 1_555
C27A C26A 1_555 1_555
C28A C21A 1_555 1_555
Cd1A N1A 1_555 1_555
O3A C28A 1_555 1_555
O4A C28A 1_555 1_555
O5A C27A 1_555 1_555
O6A C27A 1_555 1_555
O7A Cd1A 1_555 1_555
Cd1B O2F 1_555 1_555
Cd1D O5A 1_555 1_555
Cd1D_2 O2 1_555 1_555
Cd1E O5 1_555 1_555
Cd1F N3F 1_555 1_555
N3A Cd1A 1_555 1_555
O2D Cd1 1_555 1_555
O2E Cd1A 1_555 1_555
O5D Cd1A 1_555 1_555
O5E Cd1 1_555 1_555
C3 N1 1_555 1_555
C4 C5 1_555 1_555
C7 N2 1_555 1_555
C13 N3 1_555 1_555
C14 C15 1_555 1_555
C17 N4 1_555 1_555
C25 C26 1_555 1_555
Cd1 N3 1_555 1_555
Cd1 O3 1_555 1_555
Cd1 O4 1_555 1_555
C3A N1A 1_555 1_555
C4A C5A 1_555 1_555
C7A N2A 1_555 1_555
C8A C9A 1_555 1_555
C8A C10A 1_555 1_555
C13F N3F 1_555 1_555
C14F C15F 1_555 1_555
C17F C18F 1_555 1_555
C17F N4F 1_555 1_555
C19F C20F 1_555 1_555
C25A C26A 1_555 1_555
Cd1A O3A 1_555 1_555
Cd1A O4A 1_555 1_555

#END
