
#######################################################################
#
#                 Cambridge Crystallographic Data Centre
#                                CCDC 
#
#######################################################################
#
# If this CIF has been generated from an entry in the Cambridge 
# Structural Database, then it will include bibliographic, chemical, 
# crystal, experimental, refinement or atomic coordinate data resulting 
# from the CCDC's data processing and validation procedures.
#
#######################################################################

data_BEQGOV
_symmetry_cell_setting           triclinic
_symmetry_space_group_name_H-M   'P -1'
_symmetry_Int_Tables_number      2
_space_group_name_Hall           '-P 1'
loop_
_symmetry_equiv_pos_site_id
_symmetry_equiv_pos_as_xyz
1 x,y,z
2 -x,-y,-z
_cell_length_a                   8.2682(4)
_cell_length_b                   9.0948(4)
_cell_length_c                   10.6166(5)
_cell_angle_alpha                85.777(4)
_cell_angle_beta                 78.575(4)
_cell_angle_gamma                87.068(4)
_cell_volume                     779.853
loop_
_atom_site_label
_atom_site_type_symbol
_atom_site_fract_x
_atom_site_fract_y
_atom_site_fract_z
Pb1 Pb 0.47939(4) 1.23491(4) 1.03386(3)
S1 S 0.1140(3) 1.1231(3) 0.2824(2)
S2 S 0.3664(3) 1.0167(3) 0.6987(2)
S3 S 0.2664(4) 0.5743(3) 0.4512(3)
O1 O 0.3685(8) 0.9595(7) 0.0980(6)
O2 O 0.4294(9) 0.6343(8) 0.1728(6)
O3 O 0.2629(9) 0.4972(9) 0.0919(7)
O4 O 0.1415(11) 1.3772(9) 0.8143(7)
O5 O 0.2574(11) 1.2011(9) 0.9201(8)
O6 O 0.2006(8) 0.8259(7) 0.0270(7)
N1 N 0.3123(11) 0.8131(8) 0.5558(8)
N2 N 0.1852(10) 0.8512(8) 0.3725(8)
N3 N 0.2349(10) 1.0568(8) 0.4870(7)
C1 C 0.3051(13) 0.5586(10) 0.1829(9)
C2 C 0.1847(14) 0.5430(11) 0.3121(9)
H1 H 0.1428 0.4442 0.3226
H2 H 0.0916 0.6116 0.3090
C3 C 0.2529(12) 0.7673(10) 0.4583(9)
C4 C 0.1853(12) 0.9942(10) 0.3924(9)
C5 C 0.2334(12) 1.2669(10) 0.8181(10)
C6 C 0.3117(15) 1.2122(11) 0.6920(10)
H3 H 0.4106 1.2666 0.6581
H4 H 0.2366 1.2321 0.6327
C7 C 0.2944(12) 0.9599(10) 0.5669(9)
C8 C 0.2263(12) 0.9248(9) 0.0921(9)
C9 C 0.0744(12) 1.0046(10) 0.1659(9)
H5 H -0.0024 0.9314 0.2094
H6 H 0.0208 1.0628 0.1045
O7 O 0.6150(12) 1.3629(8) 1.2285(8)
Pb2 Pb 0.04031(9) 1.57915(7) 0.98098(7)
Pb1_2 Pb 0.47939(4) 1.23491(4) 0.03386(3)
Pb1A Pb 0.52061(4) 0.76509(4) -0.03386(3)
O1_2 O 0.3685(8) 0.9595(7) 1.0980(6)
O1A O 0.6315(8) 1.0405(7) 0.9020(6)
O2A O 0.5706(9) 1.3657(8) 0.8272(6)
O3_2 O 0.2629(9) 1.4972(9) 1.0919(7)
O3A O -0.2629(9) 1.5028(9) 0.9081(7)
O4A O -0.1415(11) 1.6228(9) 1.1857(7)
O6_2 O 0.2006(8) 1.8259(7) 1.0270(7)
O6A O 0.7994(8) 1.1741(7) 0.9730(7)
Pb2_2 Pb 0.04031(9) 0.57915(7) -0.01902(7)
Pb2A Pb -0.04031(9) 0.42085(7) 0.01902(7)
Pb2A_2 Pb -0.04031(9) 1.42085(7) 1.01902(7)
loop_
_geom_bond_atom_site_label_1
_geom_bond_atom_site_label_2
_geom_bond_site_symmetry_1
_geom_bond_site_symmetry_2
Pb1 O5 1_555 1_555
S1 C4 1_555 1_555
S2 C6 1_555 1_555
S3 C2 1_555 1_555
O1 C8 1_555 1_555
O2 C1 1_555 1_555
O3 C1 1_555 1_555
O4 C5 1_555 1_555
O5 C5 1_555 1_555
O6 C8 1_555 1_555
N1 C3 1_555 1_555
N2 C3 1_555 1_555
N3 C4 1_555 1_555
C1 C2 1_555 1_555
C2 H1 1_555 1_555
H2 C2 1_555 1_555
C3 S3 1_555 1_555
C4 N2 1_555 1_555
C5 C6 1_555 1_555
C6 H3 1_555 1_555
H4 C6 1_555 1_555
C7 S2 1_555 1_555
C8 C9 1_555 1_555
C9 S1 1_555 1_555
H5 C9 1_555 1_555
H6 C9 1_555 1_555
O7 Pb1 1_555 1_555
Pb2 O4 1_555 1_555
Pb1_2 O1 1_555 1_555
Pb1A O1 1_555 1_555
O1_2 Pb1 1_555 1_555
O1A Pb1 1_555 1_555
O2A Pb1 1_555 1_555
O3_2 Pb2 1_555 1_555
O3A Pb2 1_555 1_555
O4A Pb2 1_555 1_555
O6_2 Pb2 1_555 1_555
O6A Pb1 1_555 1_555
Pb2_2 O3 1_555 1_555
Pb2A O3 1_555 1_555
Pb2A_2 O4 1_555 1_555
O2 Pb1A 1_555 1_555
O6 Pb1A 1_555 1_555
O6 Pb2_2 1_555 1_555
N1 C7 1_555 1_555
N3 C7 1_555 1_555
Pb2 Pb2A_2 1_555 1_555
O3_2 Pb2A_2 1_555 1_555
O3A Pb2A_2 1_555 1_555
O4A Pb2A_2 1_555 1_555
Pb2_2 Pb2A 1_555 1_555

#END
