
#######################################################################
#
#                 Cambridge Crystallographic Data Centre
#                                CCDC 
#
#######################################################################
#
# If this CIF has been generated from an entry in the Cambridge 
# Structural Database, then it will include bibliographic, chemical, 
# crystal, experimental, refinement or atomic coordinate data resulting 
# from the CCDC's data processing and validation procedures.
#
#######################################################################

data_BEQHIQ
_symmetry_cell_setting           triclinic
_symmetry_space_group_name_H-M   'P -1'
_symmetry_Int_Tables_number      2
_space_group_name_Hall           '-P 1'
loop_
_symmetry_equiv_pos_site_id
_symmetry_equiv_pos_as_xyz
1 x,y,z
2 -x,-y,-z
_cell_length_a                   4.8279(2)
_cell_length_b                   10.5174(4)
_cell_length_c                   13.4622(4)
_cell_angle_alpha                103.093(3)
_cell_angle_beta                 98.068(3)
_cell_angle_gamma                92.034(3)
_cell_volume                     657.603
loop_
_atom_site_label
_atom_site_type_symbol
_atom_site_fract_x
_atom_site_fract_y
_atom_site_fract_z
Cd1 Cd 0.20855(3) 0.142213(14) 0.576644(10)
N1 N 0.0602(4) 0.44519(19) 0.85348(14)
C1 C 0.3371(5) 0.2857(2) 0.81517(16)
H1 H 0.4805 0.2301 0.8221
C2 C 0.4336(5) 0.4317(2) 0.99340(15)
H2 H 0.5777 0.3733 1.0071
H3 H 0.3034 0.4328 1.0422
C3 C 0.1571(4) 0.10459(19) 0.30187(15)
C4 C -0.0211(4) 0.19828(19) 0.35249(15)
C5 C -0.1567(4) 0.2756(2) 0.28701(16)
C6 C -0.1336(4) 0.2589(2) 0.18420(16)
H4 H -0.2361 0.3073 0.1440
C7 C 0.0436(5) 0.1694(2) 0.14187(15)
C8 C 0.1920(4) 0.0948(2) 0.20013(15)
H5 H 0.3166 0.0376 0.1708
C9 C 0.3101(4) 0.01135(19) 0.35535(14)
N2 N 0.1552(4) 0.27721(17) 0.73041(13)
C10 C -0.0092(5) 0.3769(2) 0.75811(16)
H6 H -0.1588 0.3955 0.7133
N3 N 0.2855(4) 0.38466(17) 0.88847(13)
N4 N -0.3234(4) 0.38301(18) 0.32726(15)
N5 N 0.0806(4) 0.15806(18) 0.03505(14)
O1 O 0.5220(3) -0.03460(15) 0.32206(11)
O2 O 0.2171(3) -0.02040(13) 0.43159(10)
O3 O -0.0596(3) 0.21157(15) 0.44611(11)
O4 O -0.2676(5) 0.44154(18) 0.41850(13)
O5 O -0.5075(4) 0.41490(19) 0.26732(15)
O6 O -0.0821(4) 0.21120(18) -0.01906(12)
O7 O 0.2725(4) 0.09645(19) 0.00290(13)
O8 O 0.5303(3) 0.29638(16) 0.55561(13)
H7 H 0.642(5) 0.272(3) 0.5145(19)
H8 H 0.460(5) 0.367(2) 0.550(2)
N1A N 0.9398(4) 0.55481(19) 1.14652(14)
C1A C 0.6629(5) 0.7143(2) 1.18483(16)
H1A H 0.5195 0.7699 1.1779
C2A C 0.5664(5) 0.5683(2) 1.00660(15)
H2A H 0.4223 0.6267 0.9929
H3A H 0.6966 0.5672 0.9578
N2A N 0.8448(4) 0.72279(17) 1.26959(13)
C10A C 1.0092(5) 0.6231(2) 1.24189(16)
H6A H 1.1588 0.6045 1.2867
N3A N 0.7145(4) 0.61534(17) 1.11153(13)
Cd1A Cd -0.20855(3) -0.142213(14) 0.423356(10)
C3A C -0.1571(4) -0.10459(19) 0.69813(15)
C4A C 0.0211(4) -0.19828(19) 0.64751(15)
C5A C 0.1567(4) -0.2756(2) 0.71299(16)
C6A C 0.1336(4) -0.2589(2) 0.81580(16)
H4A H 0.2361 -0.3073 0.8560
C7A C -0.0436(5) -0.1694(2) 0.85813(15)
C8A C -0.1920(4) -0.0948(2) 0.79987(15)
H5A H -0.3166 -0.0376 0.8292
C9A C -0.3101(4) -0.01135(19) 0.64465(14)
N4A N 0.3234(4) -0.38301(18) 0.67274(15)
N5A N -0.0806(4) -0.15806(18) 0.96495(14)
O1A O -0.5220(3) 0.03460(15) 0.67794(11)
O2A O -0.2171(3) 0.02040(13) 0.56841(10)
O3A O 0.0596(3) -0.21157(15) 0.55389(11)
O4A O 0.2676(5) -0.44154(18) 0.58150(13)
O5A O 0.5075(4) -0.41490(19) 0.73268(15)
O6A O 0.0821(4) -0.21120(18) 1.01906(12)
O7A O -0.2725(4) -0.09645(19) 0.99710(13)
O8A O -0.5303(3) -0.29638(16) 0.44439(13)
H7A H -0.642(5) -0.272(3) 0.4855(19)
H8A H -0.460(5) -0.367(2) 0.450(2)
Cd1_2 Cd -0.79145(3) 0.142213(14) 0.576644(10)
Cd1A_2 Cd 0.79145(3) -0.142213(14) 0.423356(10)
Cd1A_3 Cd 0.79145(3) 0.857787(14) 1.423356(10)
N2A_2 N -0.1552(4) -0.27721(17) 0.26959(13)
O1_2 O -0.4780(3) -0.03460(15) 0.32206(11)
O1A_2 O 0.4780(3) 0.03460(15) 0.67794(11)
loop_
_geom_bond_atom_site_label_1
_geom_bond_atom_site_label_2
_geom_bond_site_symmetry_1
_geom_bond_site_symmetry_2
Cd1 N2 1_555 1_555
N1 C10 1_555 1_555
C1 H1 1_555 1_555
C2 H2 1_555 1_555
H3 C2 1_555 1_555
C3 C4 1_555 1_555
C4 C5 1_555 1_555
C5 C6 1_555 1_555
C6 H4 1_555 1_555
C7 C6 1_555 1_555
C8 C3 1_555 1_555
H5 C8 1_555 1_555
C9 C3 1_555 1_555
N2 C1 1_555 1_555
C10 N2 1_555 1_555
H6 C10 1_555 1_555
N3 N1 1_555 1_555
N4 C5 1_555 1_555
N5 C7 1_555 1_555
O1 C9 1_555 1_555
O2 Cd1 1_555 1_555
O3 Cd1 1_555 1_555
O4 N4 1_555 1_555
O5 N4 1_555 1_555
O6 N5 1_555 1_555
O7 N5 1_555 1_555
O8 Cd1 1_555 1_555
H7 O8 1_555 1_555
H8 O8 1_555 1_555
N1A C10A 1_555 1_555
C1A H1A 1_555 1_555
C2A C2 1_555 1_555
H2A C2A 1_555 1_555
H3A C2A 1_555 1_555
N2A C1A 1_555 1_555
C10A N2A 1_555 1_555
H6A C10A 1_555 1_555
N3A N1A 1_555 1_555
Cd1A O2 1_555 1_555
C3A C4A 1_555 1_555
C4A C5A 1_555 1_555
C5A C6A 1_555 1_555
C6A H4A 1_555 1_555
C7A C6A 1_555 1_555
C8A C3A 1_555 1_555
H5A C8A 1_555 1_555
C9A C3A 1_555 1_555
N4A C5A 1_555 1_555
N5A C7A 1_555 1_555
O1A C9A 1_555 1_555
O2A Cd1 1_555 1_555
O3A Cd1A 1_555 1_555
O4A N4A 1_555 1_555
O5A N4A 1_555 1_555
O6A N5A 1_555 1_555
O7A N5A 1_555 1_555
O8A Cd1A 1_555 1_555
H7A O8A 1_555 1_555
H8A O8A 1_555 1_555
Cd1_2 O1A 1_555 1_555
Cd1A_2 O1 1_555 1_555
Cd1A_3 N2A 1_555 1_555
N2A_2 Cd1A 1_555 1_555
O1_2 Cd1A 1_555 1_555
O1A_2 Cd1 1_555 1_555
C1 N3 1_555 1_555
C2 N3 1_555 1_555
C4 O3 1_555 1_555
C7 C8 1_555 1_555
C9 O2 1_555 1_555
C1A N3A 1_555 1_555
C2A N3A 1_555 1_555
Cd1A O2A 1_555 1_555
C4A O3A 1_555 1_555
C7A C8A 1_555 1_555
C9A O2A 1_555 1_555

#END
