
#######################################################################
#
#                 Cambridge Crystallographic Data Centre
#                                CCDC 
#
#######################################################################
#
# If this CIF has been generated from an entry in the Cambridge 
# Structural Database, then it will include bibliographic, chemical, 
# crystal, experimental, refinement or atomic coordinate data resulting 
# from the CCDC's data processing and validation procedures.
#
#######################################################################

data_BEQHOW
_symmetry_cell_setting           monoclinic
_symmetry_space_group_name_H-M   'P 21/c'
_symmetry_Int_Tables_number      14
_space_group_name_Hall           '-P 2ybc'
loop_
_symmetry_equiv_pos_site_id
_symmetry_equiv_pos_as_xyz
1 x,y,z
2 -x,1/2+y,1/2-z
3 -x,-y,-z
4 x,1/2-y,1/2+z
_cell_length_a                   5.0173(2)
_cell_length_b                   19.7139(7)
_cell_length_c                   21.1911(7)
_cell_angle_alpha                90
_cell_angle_beta                 90.675(3)
_cell_angle_gamma                90
_cell_volume                     2095.88
loop_
_atom_site_label
_atom_site_type_symbol
_atom_site_fract_x
_atom_site_fract_y
_atom_site_fract_z
Cu1 Cu 0.05032(7) 0.025905(17) 0.697228(16)
C1 C 0.4679(5) -0.07879(14) 0.76556(13)
C2 C 0.2606(5) -0.04981(15) 0.80239(13)
C3 C 0.2235(6) -0.08009(15) 0.86308(14)
C4 C 0.3647(6) -0.13577(16) 0.88359(14)
H1 H 0.3290 -0.1554 0.9225
C5 C 0.5590(6) -0.16194(15) 0.84566(15)
C6 C 0.6167(6) -0.13287(15) 0.78814(14)
H2 H 0.7566 -0.1498 0.7644
C7 C 0.5423(5) -0.05085(14) 0.70232(13)
C8 C -0.2155(6) 0.03957(15) 0.56731(14)
H3 H -0.3518 0.0098 0.5777
C9 C 0.1308(6) 0.09883(15) 0.57447(14)
H4 H 0.2854 0.1200 0.5889
C10 C 0.1325(6) 0.14586(17) 0.46458(15)
H5 H 0.1871 0.1150 0.4315
H6 H 0.2889 0.1708 0.4787
C11 C -0.0691(6) 0.19502(15) 0.43800(13)
C12 C -0.2135(8) 0.17787(17) 0.38571(18)
H7 H -0.1884 0.1357 0.3671
C13 C -0.3971(8) 0.22250(18) 0.35990(19)
H8 H -0.4963 0.2094 0.3246
C14 C -0.4362(6) 0.28543(15) 0.38504(14)
C15 C -0.2902(8) 0.30269(19) 0.43750(17)
H9 H -0.3130 0.3452 0.4557
C16 C -0.1087(8) 0.25765(19) 0.46392(16)
H10 H -0.0124 0.2702 0.4998
C17 C -0.6181(6) 0.33544(18) 0.35237(16)
H11 H -0.7865 0.3138 0.3418
H12 H -0.6535 0.3734 0.3802
C18 C -0.3414(7) 0.35515(17) 0.20322(16)
H13 H -0.3120 0.3422 0.1617
C19 C -0.3106(6) 0.40828(15) 0.28884(14)
H14 H -0.2611 0.4384 0.3206
N1 N -0.0161(5) 0.05688(12) 0.60818(11)
N2 N -0.1983(5) 0.06858(14) 0.51197(12)
N3 N 0.0273(5) 0.10634(12) 0.51767(11)
N4 N -0.4896(5) 0.35980(13) 0.29444(12)
N5 N -0.5115(6) 0.32418(15) 0.23966(14)
N6 N -0.2116(5) 0.40772(12) 0.23120(11)
N7 N 0.0288(6) -0.05320(17) 0.90708(12)
N8 N 0.7092(6) -0.22039(14) 0.86817(15)
O1 O 0.7673(4) -0.06446(10) 0.68171(9)
O2 O 0.3777(4) -0.01427(10) 0.67124(9)
O3 O 0.1157(4) 0.00032(10) 0.78391(9)
O4 O -0.0438(9) 0.00448(19) 0.90261(14)
O5 O -0.0554(5) -0.09003(15) 0.94804(13)
O6 O 0.6185(6) -0.25249(13) 0.91285(13)
O7 O 0.9163(5) -0.23510(13) 0.84175(14)
Cu1_2 Cu 1.05032(7) 0.025905(17) 0.697228(16)
Cu1C Cu 0.05032(7) 0.474095(17) 0.197228(16)
N6C N -0.2116(5) 0.09228(12) 0.73120(11)
O1_2 O -0.2327(4) -0.06446(10) 0.68171(9)
O8 O -0.5174(19) 0.0344(5) 0.9711(5)
loop_
_geom_bond_atom_site_label_1
_geom_bond_atom_site_label_2
_geom_bond_site_symmetry_1
_geom_bond_site_symmetry_2
Cu1 N1 1_555 1_555
C1 C2 1_555 1_555
C2 C3 1_555 1_555
C3 C4 1_555 1_555
C4 H1 1_555 1_555
C5 C4 1_555 1_555
C6 C1 1_555 1_555
H2 C6 1_555 1_555
C7 C1 1_555 1_555
C8 H3 1_555 1_555
C9 H4 1_555 1_555
C10 H5 1_555 1_555
H6 C10 1_555 1_555
C11 C10 1_555 1_555
C12 C11 1_555 1_555
H7 C12 1_555 1_555
C13 C12 1_555 1_555
H8 C13 1_555 1_555
C14 C13 1_555 1_555
C15 C14 1_555 1_555
H9 C15 1_555 1_555
C16 C11 1_555 1_555
H10 C16 1_555 1_555
C17 C14 1_555 1_555
H11 C17 1_555 1_555
H12 C17 1_555 1_555
C18 H13 1_555 1_555
C19 H14 1_555 1_555
N1 C8 1_555 1_555
N2 C8 1_555 1_555
N3 C9 1_555 1_555
N4 C17 1_555 1_555
N5 C18 1_555 1_555
N6 C18 1_555 1_555
N7 C3 1_555 1_555
N8 C5 1_555 1_555
O1 C7 1_555 1_555
O2 Cu1 1_555 1_555
O3 Cu1 1_555 1_555
O4 N7 1_555 1_555
O5 N7 1_555 1_555
O6 N8 1_555 1_555
O7 N8 1_555 1_555
Cu1_2 O1 1_555 1_555
Cu1C N6 1_555 1_555
N6C Cu1 1_555 1_555
O1_2 Cu1 1_555 1_555
C2 O3 1_555 1_555
C5 C6 1_555 1_555
C7 O2 1_555 1_555
C9 N1 1_555 1_555
C10 N3 1_555 1_555
C15 C16 1_555 1_555
C19 N4 1_555 1_555
C19 N6 1_555 1_555
N2 N3 1_555 1_555
N4 N5 1_555 1_555

#END
