
#######################################################################
#
#                 Cambridge Crystallographic Data Centre
#                                CCDC 
#
#######################################################################
#
# If this CIF has been generated from an entry in the Cambridge 
# Structural Database, then it will include bibliographic, chemical, 
# crystal, experimental, refinement or atomic coordinate data resulting 
# from the CCDC's data processing and validation procedures.
#
#######################################################################

data_BEQKAL
_symmetry_cell_setting           triclinic
_symmetry_space_group_name_H-M   'P -1'
_symmetry_Int_Tables_number      2
_space_group_name_Hall           '-P 1'
loop_
_symmetry_equiv_pos_site_id
_symmetry_equiv_pos_as_xyz
1 x,y,z
2 -x,-y,-z
_cell_length_a                   14.4399(8)
_cell_length_b                   14.5184(8)
_cell_length_c                   15.3895(10)
_cell_angle_alpha                97.541(5)
_cell_angle_beta                 112.786(6)
_cell_angle_gamma                107.054(5)
_cell_volume                     2731.84
loop_
_atom_site_label
_atom_site_type_symbol
_atom_site_fract_x
_atom_site_fract_y
_atom_site_fract_z
Cu1 Cu 0.24603(3) 0.86061(3) 0.77503(2)
Cu2 Cu 0.01576(3) 0.53921(3) 0.61219(2)
Cu3 Cu -0.08763(3) 0.60216(3) 0.83338(2)
Cu4 Cu -0.02824(3) 0.90655(3) 0.81527(3)
C1 C 0.4358(3) 0.8440(3) 0.7485(3)
H1 H 0.4678 0.8347 0.8103
C2 C 0.3281(3) 0.8723(2) 0.6276(2)
H2 H 0.2710 0.8865 0.5851
C3 C 0.4133(3) 0.8510(3) 0.5168(2)
H3 H 0.4889 0.8790 0.5304
H4 H 0.3763 0.8893 0.4798
C4 C 0.3634(3) 0.7432(2) 0.4570(3)
H5 H 0.3716 0.7394 0.3971
H6 H 0.4017 0.7055 0.4938
C5 C 0.0845(3) 0.6738(3) 0.3699(2)
H7 H 0.0192 0.6819 0.3382
C6 C 0.1958(3) 0.6116(3) 0.4423(2)
H8 H 0.2282 0.5702 0.4723
C7 C -0.2912(2) 0.5941(2) 0.8471(2)
H9 H -0.3285 0.5829 0.7797
C8 C -0.1642(2) 0.6225(2) 0.9867(2)
H10 H -0.0972 0.6352 1.0385
C9 C -0.2720(2) 0.6265(2) 1.0820(2)
H11 H -0.2131 0.6207 1.1363
H12 H -0.3389 0.5735 1.0693
C10 C -0.2791(2) 0.7272(2) 1.1088(2)
H13 H -0.3329 0.7357 1.0521
H14 H -0.3020 0.7297 1.1603
C11 C -0.0102(3) 0.8909(3) 1.2234(3)
H15 H 0.0629 0.9102 1.2659
C12 C -0.1540(2) 0.8948(2) 1.1225(2)
H16 H -0.2055 0.9141 1.0792
C13 C -0.0341(2) 0.7193(2) 0.5171(2)
C14 C -0.1059(2) 0.6186(2) 0.46441(19)
C15 C -0.2032(2) 0.6064(2) 0.3818(2)
C16 C -0.2273(2) 0.6858(3) 0.3536(2)
H17 H -0.2925 0.6748 0.3003
C17 C -0.1540(3) 0.7813(3) 0.4053(2)
C18 C -0.0580(2) 0.7996(2) 0.4865(2)
H18 H -0.0094 0.8651 0.5207
C19 C 0.0703(2) 0.7458(2) 0.6063(2)
C20 C 0.1575(2) 0.5970(2) 0.9107(2)
C21 C 0.1145(2) 0.6083(2) 0.9786(2)
C22 C 0.1875(2) 0.6269(2) 1.0793(2)
C23 C 0.2943(2) 0.6363(2) 1.1104(2)
H19 H 0.3399 0.6487 1.1765
C24 C 0.3313(2) 0.6268(2) 1.0415(2)
C25 C 0.2651(2) 0.6064(2) 0.9426(2)
H20 H 0.2922 0.5990 0.8974
C26 C 0.0896(2) 0.5749(2) 0.8031(2)
C27 C -0.2370(2) 0.7242(2) 0.6259(2)
C28 C -0.2157(2) 0.8262(2) 0.6235(2)
C29 C -0.2910(2) 0.8400(2) 0.5375(2)
C30 C -0.3789(2) 0.7629(2) 0.4641(2)
H21 H -0.4273 0.7756 0.4108
C31 C -0.3948(2) 0.6667(2) 0.4701(2)
C32 C -0.3250(2) 0.6462(2) 0.5495(2)
H22 H -0.3370 0.5802 0.5517
C33 C -0.1693(2) 0.6971(2) 0.7113(2)
C34 C 0.2642(2) 0.8884(2) 0.9974(2)
C35 C 0.3533(2) 0.8802(2) 0.9814(2)
C36 C 0.4454(2) 0.8874(2) 1.0685(2)
C37 C 0.4470(2) 0.8962(2) 1.1586(2)
H23 H 0.5078 0.8993 1.2126
C38 C 0.3584(3) 0.9005(3) 1.1682(2)
C39 C 0.2675(2) 0.8978(2) 1.0888(2)
H24 H 0.2086 0.9024 1.0974
C40 C 0.1650(2) 0.8883(2) 0.9162(2)
N1 N 0.3435(2) 0.8627(2) 0.71578(18)
N2 N 0.4760(2) 0.8401(3) 0.6863(2)
N3 N 0.4055(2) 0.8589(2) 0.60843(19)
N4 N 0.2481(2) 0.6976(2) 0.43197(18)
N5 N 0.1775(3) 0.7394(2) 0.3852(2)
N6 N 0.0904(2) 0.59303(19) 0.40378(17)
N7 N -0.18403(18) 0.60885(18) 0.89368(17)
N8 N -0.3366(2) 0.5971(2) 0.9053(2)
N9 N -0.25384(18) 0.61533(18) 0.99538(17)
N10 N -0.17475(18) 0.80875(19) 1.14240(18)
N11 N -0.0822(2) 0.8035(2) 1.2087(2)
N12 N -0.04903(19) 0.95116(18) 1.17269(19)
N13 N -0.2849(2) 0.5065(2) 0.3220(2)
N14 N -0.1768(3) 0.8660(3) 0.3733(2)
N15 N 0.1486(2) 0.6325(2) 1.15304(18)
N16 N 0.4441(2) 0.6369(2) 1.0741(2)
N17 N -0.2758(3) 0.9402(2) 0.5251(2)
N18 N -0.4881(2) 0.5837(2) 0.39233(19)
N19 N 0.5451(2) 0.8867(2) 1.0630(2)
N20 N 0.3580(3) 0.9089(3) 1.2637(2)
O1 O 0.12814(16) 0.83766(16) 0.64670(14)
O2 O 0.09991(15) 0.67966(15) 0.64151(14)
O3 O -0.08552(15) 0.54042(15) 0.48517(13)
O4 O -0.2989(2) 0.4394(2) 0.3601(2)
O5 O -0.33584(19) 0.4953(2) 0.23433(17)
O6 O -0.2707(2) 0.8512(2) 0.31907(19)
O7 O -0.1014(3) 0.9458(2) 0.4011(2)
O8 O 0.12066(15) 0.54215(15) 0.74409(13)
O9 O 0.00157(16) 0.59010(16) 0.77116(14)
O10 O 0.01586(15) 0.59977(17) 0.95518(14)
O11 O 0.0809(13) 0.6685(16) 1.1463(3)
O12 O 0.18300(19) 0.59494(18) 1.22004(16)
O13 O 0.50575(17) 0.6713(2) 1.16200(18)
O14 O 0.47108(17) 0.6090(2) 1.01290(19)
O15 O -0.19303(15) 0.60580(15) 0.70730(13)
O16 O -0.09048(15) 0.76255(14) 0.78684(13)
O17 O -0.13795(16) 0.90237(15) 0.69202(15)
O18 O -0.1842(2) 1.0004(2) 0.5517(2)
O19 O -0.3552(2) 0.9580(2) 0.4839(2)
O20 O -0.55758(19) 0.6039(2) 0.33137(18)
O21 O -0.4933(2) 0.4984(2) 0.39161(19)
O22 O 0.15034(15) 0.87116(17) 0.82859(14)
O23 O 0.09567(15) 0.90889(15) 0.93733(14)
O24 O 0.35634(16) 0.87122(18) 0.89948(15)
O25 O 0.530(2) 0.828(3) 0.9890(7)
O26 O 0.62952(19) 0.9231(2) 1.1379(2)
O27 O 0.4293(2) 0.8958(3) 1.32778(19)
O28 O 0.2910(10) 0.9436(7) 1.2760(7)
O29 O -0.11281(18) 0.9324(2) 0.90739(18)
H25 H -0.1820 0.8962 0.8761
H26 H -0.1001 0.9877 0.9422
Cu2A Cu -0.01576(3) 0.46079(3) 0.38781(2)
Cu3A Cu 0.08763(3) 0.39784(3) 1.16662(2)
Cu4A Cu 0.02824(3) 1.09345(3) 1.18473(3)
N6A N -0.0904(2) 0.40697(19) 0.59622(17)
N12A N 0.04903(19) 1.04884(18) 0.82731(19)
O3A O 0.08552(15) 0.45958(15) 0.51483(13)
O12A O -0.18300(19) 0.40506(18) 0.77996(16)
O33 O -0.3262(3) 0.8119(3) 0.8067(4)
O34 O -0.4823(6) 0.6899(5) 0.8227(7)
O30? O 0.126(5) 0.711(3) 1.155(3)
O31? O 0.5571(11) 0.886(4) 0.9892(10)
O32? O 0.277(3) 0.8858(18) 1.269(2)
loop_
_geom_bond_atom_site_label_1
_geom_bond_atom_site_label_2
_geom_bond_site_symmetry_1
_geom_bond_site_symmetry_2
Cu1 N1 1_555 1_555
Cu2 O2 1_555 1_555
Cu3 N7 1_555 1_555
Cu4 O16 1_555 1_555
C1 H1 1_555 1_555
C2 H2 1_555 1_555
C3 H3 1_555 1_555
H4 C3 1_555 1_555
C4 C3 1_555 1_555
H5 C4 1_555 1_555
H6 C4 1_555 1_555
C5 H7 1_555 1_555
C6 H8 1_555 1_555
C7 H9 1_555 1_555
C8 H10 1_555 1_555
C9 H11 1_555 1_555
H12 C9 1_555 1_555
C10 C9 1_555 1_555
H13 C10 1_555 1_555
H14 C10 1_555 1_555
C11 H15 1_555 1_555
C12 H16 1_555 1_555
C13 C14 1_555 1_555
C14 C15 1_555 1_555
C15 C16 1_555 1_555
C16 H17 1_555 1_555
C17 C16 1_555 1_555
C18 C13 1_555 1_555
H18 C18 1_555 1_555
C19 C13 1_555 1_555
C20 C21 1_555 1_555
C21 C22 1_555 1_555
C22 C23 1_555 1_555
C23 H19 1_555 1_555
C24 C23 1_555 1_555
C25 C20 1_555 1_555
H20 C25 1_555 1_555
C26 C20 1_555 1_555
C27 C28 1_555 1_555
C28 C29 1_555 1_555
C29 C30 1_555 1_555
C30 H21 1_555 1_555
C31 C30 1_555 1_555
C32 C27 1_555 1_555
H22 C32 1_555 1_555
C33 C27 1_555 1_555
C34 C35 1_555 1_555
C35 C36 1_555 1_555
C36 C37 1_555 1_555
C37 H23 1_555 1_555
C38 C37 1_555 1_555
C39 C34 1_555 1_555
H24 C39 1_555 1_555
C40 C34 1_555 1_555
N1 C1 1_555 1_555
N2 C1 1_555 1_555
N3 C2 1_555 1_555
N4 C4 1_555 1_555
N5 C5 1_555 1_555
N6 C5 1_555 1_555
N7 C7 1_555 1_555
N8 C7 1_555 1_555
N9 C8 1_555 1_555
N10 C10 1_555 1_555
N11 C11 1_555 1_555
N12 C11 1_555 1_555
N13 C15 1_555 1_555
N14 C17 1_555 1_555
N15 C22 1_555 1_555
N16 C24 1_555 1_555
N17 C29 1_555 1_555
N18 C31 1_555 1_555
N19 C36 1_555 1_555
N20 C38 1_555 1_555
O1 Cu1 1_555 1_555
O2 Cu1 1_555 1_555
O3 Cu2 1_555 1_555
O4 N13 1_555 1_555
O5 N13 1_555 1_555
O6 N14 1_555 1_555
O7 N14 1_555 1_555
O8 Cu2 1_555 1_555
O9 Cu2 1_555 1_555
O10 Cu3 1_555 1_555
O11 N15 1_555 1_555
O12 N15 1_555 1_555
O13 N16 1_555 1_555
O14 N16 1_555 1_555
O15 Cu3 1_555 1_555
O16 Cu3 1_555 1_555
O17 Cu4 1_555 1_555
O18 N17 1_555 1_555
O19 N17 1_555 1_555
O20 N18 1_555 1_555
O21 N18 1_555 1_555
O22 Cu1 1_555 1_555
O23 Cu4 1_555 1_555
O24 Cu1 1_555 1_555
O25 N19 1_555 1_555
O26 N19 1_555 1_555
O27 N20 1_555 1_555
O28 N20 1_555 1_555
O29 Cu4 1_555 1_555
H25 O29 1_555 1_555
H26 O29 1_555 1_555
Cu2A N6 1_555 1_555
Cu3A O12 1_555 1_555
Cu4A N12 1_555 1_555
N6A Cu2 1_555 1_555
N12A Cu4 1_555 1_555
O3A Cu2 1_555 1_555
O12A Cu3 1_555 1_555
Cu3 O9 1_555 1_555
Cu4 O22 1_555 1_555
C2 N1 1_555 1_555
C3 N3 1_555 1_555
C6 N4 1_555 1_555
C6 N6 1_555 1_555
C8 N7 1_555 1_555
C9 N9 1_555 1_555
C12 N10 1_555 1_555
C12 N12 1_555 1_555
C14 O3 1_555 1_555
C17 C18 1_555 1_555
C19 O1 1_555 1_555
C19 O2 1_555 1_555
C21 O10 1_555 1_555
C24 C25 1_555 1_555
C26 O8 1_555 1_555
C26 O9 1_555 1_555
C28 O17 1_555 1_555
C31 C32 1_555 1_555
C33 O15 1_555 1_555
C33 O16 1_555 1_555
C35 O24 1_555 1_555
C38 C39 1_555 1_555
C40 O22 1_555 1_555
C40 O23 1_555 1_555
N2 N3 1_555 1_555
N4 N5 1_555 1_555
N8 N9 1_555 1_555
N10 N11 1_555 1_555
O3 Cu2A 1_555 1_555
Cu2A O3A 1_555 1_555

#END
