
#######################################################################
#
#                 Cambridge Crystallographic Data Centre
#                                CCDC 
#
#######################################################################
#
# If this CIF has been generated from an entry in the Cambridge 
# Structural Database, then it will include bibliographic, chemical, 
# crystal, experimental, refinement or atomic coordinate data resulting 
# from the CCDC's data processing and validation procedures.
#
#######################################################################

data_BEQNIU01
_symmetry_cell_setting           triclinic
_symmetry_space_group_name_H-M   'P -1'
_symmetry_Int_Tables_number      2
_space_group_name_Hall           '-P 1'
loop_
_symmetry_equiv_pos_site_id
_symmetry_equiv_pos_as_xyz
1 x,y,z
2 -x,-y,-z
_cell_length_a                   9.3425(19)
_cell_length_b                   11.432(2)
_cell_length_c                   12.703(3)
_cell_angle_alpha                65.28(3)
_cell_angle_beta                 73.80(3)
_cell_angle_gamma                86.86(3)
_cell_volume                     1180.48
loop_
_atom_site_label
_atom_site_type_symbol
_atom_site_fract_x
_atom_site_fract_y
_atom_site_fract_z
Er1 Er 0.252954(15) -0.027886(15) 0.485158(13)
O1 O 0.3691(3) 0.1940(2) 0.3889(2)
O2 O 0.2094(3) 0.1503(2) 0.3102(2)
O3 O 0.0651(3) 0.0778(2) 0.5593(2)
O4 O -0.1623(3) 0.1458(3) 0.5932(3)
O5 O 0.4531(3) -0.0164(3) 0.3235(2)
O6 O 0.6441(3) 0.0225(3) 0.3777(2)
O7 O 0.0840(3) -0.1890(3) 0.6579(2)
O8 O 0.3736(3) -0.2305(3) 0.5534(3)
N1 N 0.1598(5) 0.5974(4) -0.1409(4)
N2 N 0.5044(6) 0.3599(6) 0.6318(6)
N3 N 1.1785(6) 0.2542(6) -0.0450(5)
C1 C 0.2091(6) 0.5639(4) -0.0630(4)
C2 C 0.2762(5) 0.5268(4) 0.0355(3)
C3 C 0.3618(5) 0.6175(4) 0.0408(4)
H1 H 0.3756 0.7019 -0.0182
C4 C 0.4271(5) 0.5830(4) 0.1337(4)
H2 H 0.4855 0.6442 0.1369
C5 C 0.4060(4) 0.4577(4) 0.2220(4)
H3 H 0.4492 0.4351 0.2850
C6 C 0.3210(4) 0.3660(4) 0.2170(3)
C7 C 0.2544(4) 0.4009(4) 0.1232(3)
H4 H 0.1960 0.3401 0.1197
C8 C 0.2994(3) 0.2295(3) 0.3111(3)
C9 C 0.3833(6) 0.3600(6) 0.6360(5)
C10 C 0.2264(5) 0.3571(5) 0.6377(4)
C11 C 0.1315(6) 0.4424(5) 0.6642(5)
H5 H 0.1658 0.5051 0.6818
C12 C -0.0163(6) 0.4350(5) 0.6647(5)
H6 H -0.0810 0.4932 0.6824
C13 C -0.0684(5) 0.3420(4) 0.6393(4)
H7 H -0.1675 0.3381 0.6391
C14 C 0.0274(4) 0.2545(4) 0.6140(3)
C15 C 0.1758(4) 0.2628(4) 0.6123(3)
H8 H 0.2411 0.2051 0.5941
C16 C -0.0258(4) 0.1515(3) 0.5865(3)
C17 C 1.0643(6) 0.2025(5) -0.0134(5)
C18 C 0.9173(5) 0.1374(4) 0.0244(4)
C19 C 0.8653(6) 0.1151(5) -0.0570(4)
H9 H 0.9245 0.1408 -0.1362
C20 C 0.7269(6) 0.0553(6) -0.0215(5)
H10 H 0.6929 0.0373 -0.0758
C21 C 0.6365(5) 0.0210(5) 0.0959(4)
H11 H 0.5410 -0.0176 0.1192
C22 C 0.6875(4) 0.0439(4) 0.1779(3)
C23 C 0.8294(4) 0.0996(4) 0.1437(3)
H12 H 0.8665 0.1121 0.1993
C24 C 0.5878(4) 0.0132(3) 0.3023(3)
Er1A Er -0.252954(15) 0.027886(15) 0.514842(13)
Er1A_2 Er 0.747046(15) 0.027886(15) 0.514842(13)
O4A O 0.1623(3) -0.1458(3) 0.4068(3)
O6A O 0.3559(3) -0.0225(3) 0.6223(2)
loop_
_geom_bond_atom_site_label_1
_geom_bond_atom_site_label_2
_geom_bond_site_symmetry_1
_geom_bond_site_symmetry_2
Er1 O1 1_555 1_555
O1 C8 1_555 1_555
O2 Er1 1_555 1_555
O3 Er1 1_555 1_555
O4 C16 1_555 1_555
O5 Er1 1_555 1_555
O6 C24 1_555 1_555
O7 Er1 1_555 1_555
O8 Er1 1_555 1_555
N1 C1 1_555 1_555
N2 C9 1_555 1_555
N3 C17 1_555 1_555
C1 C2 1_555 1_555
C2 C3 1_555 1_555
C3 H1 1_555 1_555
C4 C3 1_555 1_555
H2 C4 1_555 1_555
C5 C4 1_555 1_555
H3 C5 1_555 1_555
C6 C5 1_555 1_555
C7 C2 1_555 1_555
H4 C7 1_555 1_555
C8 O2 1_555 1_555
C9 C10 1_555 1_555
C10 C11 1_555 1_555
C11 H5 1_555 1_555
C12 C11 1_555 1_555
H6 C12 1_555 1_555
C13 C12 1_555 1_555
H7 C13 1_555 1_555
C14 C13 1_555 1_555
C15 C10 1_555 1_555
H8 C15 1_555 1_555
C16 O3 1_555 1_555
C17 C18 1_555 1_555
C18 C19 1_555 1_555
C19 H9 1_555 1_555
C20 C19 1_555 1_555
H10 C20 1_555 1_555
C21 C20 1_555 1_555
H11 C21 1_555 1_555
C22 C21 1_555 1_555
C23 C18 1_555 1_555
H12 C23 1_555 1_555
C24 O5 1_555 1_555
Er1A O4 1_555 1_555
Er1A_2 O6 1_555 1_555
O4A Er1 1_555 1_555
O6A Er1 1_555 1_555
C6 C7 1_555 1_555
C6 C8 1_555 1_555
C14 C15 1_555 1_555
C14 C16 1_555 1_555
C22 C23 1_555 1_555
C22 C24 1_555 1_555

#END
