
#######################################################################
#
#                 Cambridge Crystallographic Data Centre
#                                CCDC 
#
#######################################################################
#
# If this CIF has been generated from an entry in the Cambridge 
# Structural Database, then it will include bibliographic, chemical, 
# crystal, experimental, refinement or atomic coordinate data resulting 
# from the CCDC's data processing and validation procedures.
#
#######################################################################

data_BEQPAQ
_symmetry_cell_setting           monoclinic
_symmetry_space_group_name_H-M   'C 2/c'
_symmetry_Int_Tables_number      15
_space_group_name_Hall           '-C 2yn'
loop_
_symmetry_equiv_pos_site_id
_symmetry_equiv_pos_as_xyz
1 x,y,z
2 -x,y,1/2-z
3 1/2+x,1/2+y,z
4 1/2-x,1/2+y,1/2-z
5 -x,-y,-z
6 x,-y,1/2+z
7 1/2-x,1/2-y,-z
8 1/2+x,1/2-y,1/2+z
_cell_length_a                   17.422(2)
_cell_length_b                   9.8240(14)
_cell_length_c                   15.803(2)
_cell_angle_alpha                90
_cell_angle_beta                 105.435(2)
_cell_angle_gamma                90
_cell_volume                     2607.19
loop_
_atom_site_label
_atom_site_type_symbol
_atom_site_fract_x
_atom_site_fract_y
_atom_site_fract_z
Zn1 Zn 0.358521(12) 0.42721(2) 0.228417(14)
O1 O 0.41942(8) 0.27509(13) 0.29784(9)
O2 O 0.32853(8) 0.13730(15) 0.21504(10)
O3 O 0.39762(9) -0.38008(14) 0.24965(9)
O4 O 0.45904(11) -0.42403(15) 0.38901(11)
O5 O 0.28331(9) 0.43038(15) 0.31872(10)
H1 H 0.3122 0.4350 0.3712
H2 H 0.2526 0.4989 0.3132
O6 O 0.42089(9) 0.37607(15) 0.13373(9)
H3 H 0.4686 0.3546 0.1597
H4 H 0.4182 0.4337 0.0929
N1 N 0.50804(9) 0.06454(15) 0.37804(10)
N2 N 0.53008(9) -0.17404(16) 0.40313(10)
N3 N 0.75919(9) 0.04247(16) 0.62538(10)
C1 C 0.44083(10) 0.03710(19) 0.31611(11)
C2 C 0.41661(11) -0.09562(18) 0.29271(12)
H5 H 0.3713 -0.1141 0.2476
C3 C 0.46320(10) -0.19947(18) 0.33972(11)
C4 C 0.55007(11) -0.04255(19) 0.41786(12)
C5 C 0.39153(10) 0.15823(19) 0.27202(12)
C6 C 0.43817(11) -0.34746(19) 0.32538(13)
C7 C 0.71552(12) 0.1426(2) 0.57945(13)
H6 H 0.7308 0.2320 0.5943
C8 C 0.64857(12) 0.1199(2) 0.51086(13)
H7 H 0.6199 0.1928 0.4806
C9 C 0.62471(11) -0.01220(19) 0.48760(12)
C10 C 0.67108(13) -0.1163(2) 0.53421(16)
H8 H 0.6578 -0.2066 0.5198
C11 C 0.73684(14) -0.0852(2) 0.60189(16)
H9 H 0.7671 -0.1563 0.6326
Zn1_2 Zn 0.358521(12) -0.57279(2) 0.228417(14)
Zn1G Zn 0.858521(12) 0.07279(2) 0.728417(14)
O3_2 O 0.39762(9) 0.61992(14) 0.24965(9)
N3G N 0.25919(9) 0.45753(16) 0.12538(10)
O7 O 0.38765(11) 0.43351(17) 0.49217(11)
H10 H 0.4140 0.4793 0.4639
H11 H 0.4163 0.3743 0.5253
loop_
_geom_bond_atom_site_label_1
_geom_bond_atom_site_label_2
_geom_bond_site_symmetry_1
_geom_bond_site_symmetry_2
Zn1 O1 1_555 1_555
O1 C5 1_555 1_555
O2 C5 1_555 1_555
O3 C6 1_555 1_555
O4 C6 1_555 1_555
O5 Zn1 1_555 1_555
H1 O5 1_555 1_555
H2 O5 1_555 1_555
O6 Zn1 1_555 1_555
H3 O6 1_555 1_555
H4 O6 1_555 1_555
N1 C1 1_555 1_555
N2 C3 1_555 1_555
N3 C7 1_555 1_555
C1 C2 1_555 1_555
C2 H5 1_555 1_555
C3 C2 1_555 1_555
C4 N1 1_555 1_555
C5 C1 1_555 1_555
C6 C3 1_555 1_555
C7 H6 1_555 1_555
C8 C7 1_555 1_555
H7 C8 1_555 1_555
C9 C4 1_555 1_555
C10 C9 1_555 1_555
H8 C10 1_555 1_555
C11 N3 1_555 1_555
H9 C11 1_555 1_555
O7 H10 1_555 1_555
H11 O7 1_555 1_555
Zn1_2 O3 1_555 1_555
Zn1G N3 1_555 1_555
O3_2 Zn1 1_555 1_555
N3G Zn1 1_555 1_555
N2 C4 1_555 1_555
C8 C9 1_555 1_555
C10 C11 1_555 1_555

#END
