
#######################################################################
#
#                 Cambridge Crystallographic Data Centre
#                                CCDC 
#
#######################################################################
#
# If this CIF has been generated from an entry in the Cambridge 
# Structural Database, then it will include bibliographic, chemical, 
# crystal, experimental, refinement or atomic coordinate data resulting 
# from the CCDC's data processing and validation procedures.
#
#######################################################################

data_BEQPIY
_symmetry_cell_setting           monoclinic
_symmetry_space_group_name_H-M   'P 21/c'
_symmetry_Int_Tables_number      14
_space_group_name_Hall           '-P 2ybc'
loop_
_symmetry_equiv_pos_site_id
_symmetry_equiv_pos_as_xyz
1 x,y,z
2 -x,1/2+y,1/2-z
3 -x,-y,-z
4 x,1/2-y,1/2+z
_cell_length_a                   10.4369(3)
_cell_length_b                   8.4152(2)
_cell_length_c                   13.9080(4)
_cell_angle_alpha                90
_cell_angle_beta                 96.836(3)
_cell_angle_gamma                90
_cell_volume                     1212.84
loop_
_atom_site_label
_atom_site_type_symbol
_atom_site_fract_x
_atom_site_fract_y
_atom_site_fract_z
Ni1 Ni 0.80341(4) -0.02271(5) 0.75360(3)
O1 O 0.86239(16) -0.2209(2) 0.68931(12)
O2 O 0.9192(2) -0.3065(3) 0.54941(14)
O3 O 0.8442(2) 0.1120(3) 0.27596(16)
O4 O 0.73658(19) 0.3271(2) 0.31500(14)
O5 O 0.94509(17) 0.1047(2) 0.69497(13)
H1 H 0.9357 0.2035 0.7047
H2 H 1.0183 0.0693 0.7187
O6 O 0.93867(19) -0.0604(2) 0.87194(13)
H3 H 0.9192 -0.1156 0.9193
H4 H 0.9845 0.0193 0.8916
N1 N 0.7060(2) -0.0008(2) 0.59997(14)
N2 N 0.6551(2) 0.1751(2) 0.46692(15)
N3 N 0.33392(19) 0.3457(2) 0.68376(15)
C1 C 0.8639(2) -0.2133(3) 0.59918(17)
C2 C 0.7896(2) -0.0751(3) 0.54840(17)
C3 C 0.8106(2) -0.0266(3) 0.45730(18)
H5 H 0.8660 -0.0819 0.4216
C4 C 0.7457(2) 0.1082(3) 0.42089(17)
C5 C 0.7784(2) 0.1876(3) 0.32775(18)
C6 C 0.6363(2) 0.1164(3) 0.55322(18)
C7 C 0.3912(2) 0.2152(3) 0.72388(18)
H6 H 0.3643 0.1766 0.7809
C8 C 0.4882(2) 0.1354(3) 0.68473(18)
H7 H 0.5257 0.0456 0.7153
C9 C 0.5292(2) 0.1901(3) 0.59950(18)
C10 C 0.4640(3) 0.3204(3) 0.55488(19)
H8 H 0.4849 0.3572 0.4956
C11 C 0.3688(3) 0.3941(3) 0.59894(19)
H9 H 0.3269 0.4813 0.5685
Ni1A Ni 0.19659(4) 0.47729(5) 0.74640(3)
Ni1C Ni 0.80341(4) 0.52271(5) 0.25360(3)
O4C O 0.73658(19) 0.1729(2) 0.81500(14)
N3A N 0.66608(19) -0.1543(2) 0.81624(15)
loop_
_geom_bond_atom_site_label_1
_geom_bond_atom_site_label_2
_geom_bond_site_symmetry_1
_geom_bond_site_symmetry_2
Ni1 O1 1_555 1_555
O1 C1 1_555 1_555
O2 C1 1_555 1_555
O3 C5 1_555 1_555
O4 C5 1_555 1_555
O5 Ni1 1_555 1_555
H1 O5 1_555 1_555
H2 O5 1_555 1_555
O6 Ni1 1_555 1_555
H3 O6 1_555 1_555
H4 O6 1_555 1_555
N1 Ni1 1_555 1_555
N2 C4 1_555 1_555
N3 C7 1_555 1_555
C1 C2 1_555 1_555
C2 N1 1_555 1_555
C3 C2 1_555 1_555
H5 C3 1_555 1_555
C4 C3 1_555 1_555
C5 C4 1_555 1_555
C6 N1 1_555 1_555
C7 H6 1_555 1_555
C8 C7 1_555 1_555
H7 C8 1_555 1_555
C9 C6 1_555 1_555
C10 C9 1_555 1_555
H8 C10 1_555 1_555
C11 N3 1_555 1_555
H9 C11 1_555 1_555
Ni1A N3 1_555 1_555
Ni1C O4 1_555 1_555
O4C Ni1 1_555 1_555
N3A Ni1 1_555 1_555
N2 C6 1_555 1_555
C8 C9 1_555 1_555
C10 C11 1_555 1_555

#END
