
#######################################################################
#
#                 Cambridge Crystallographic Data Centre
#                                CCDC 
#
#######################################################################
#
# If this CIF has been generated from an entry in the Cambridge 
# Structural Database, then it will include bibliographic, chemical, 
# crystal, experimental, refinement or atomic coordinate data resulting 
# from the CCDC's data processing and validation procedures.
#
#######################################################################

data_BEQPOE
_symmetry_cell_setting           monoclinic
_symmetry_space_group_name_H-M   'P 21/c'
_symmetry_Int_Tables_number      14
_space_group_name_Hall           '-P 2ybc'
loop_
_symmetry_equiv_pos_site_id
_symmetry_equiv_pos_as_xyz
1 x,y,z
2 -x,1/2+y,1/2-z
3 -x,-y,-z
4 x,1/2-y,1/2+z
_cell_length_a                   10.510(4)
_cell_length_b                   8.418(3)
_cell_length_c                   14.039(5)
_cell_angle_alpha                90
_cell_angle_beta                 97.052(5)
_cell_angle_gamma                90
_cell_volume                     1232.68
loop_
_atom_site_label
_atom_site_type_symbol
_atom_site_fract_x
_atom_site_fract_y
_atom_site_fract_z
Co1 Co 0.80418(5) 1.02330(6) 0.25579(4)
O1 O 0.8586(3) 1.2221(3) 0.18707(18)
O2 O 0.9177(3) 1.3069(4) 0.0495(2)
O3 O 0.8442(3) 0.8897(4) -0.2234(2)
O4 O 0.7366(3) 0.6740(3) -0.1862(2)
O5 O 0.9462(3) 0.8927(3) 0.19476(19)
H1 H 1.0201 0.9244 0.2185
H2 H 0.9549 0.7956 0.2108
O6 O 0.9423(3) 1.0624(4) 0.37383(19)
H3 H 0.9117 1.1228 0.4139
H4 H 0.9947 0.9865 0.3876
N1 N 0.7051(3) 1.0015(4) 0.0972(2)
N2 N 0.6563(3) 0.8237(4) -0.0342(2)
N3 N 0.3351(3) 0.6570(4) 0.1806(2)
C1 C 0.7895(4) 1.0746(4) 0.0471(3)
C2 C 0.8117(4) 1.0251(5) -0.0428(3)
H5 H 0.8679 1.0794 -0.0775
C3 C 0.7468(4) 0.8910(5) -0.0793(3)
C4 C 0.6360(4) 0.8831(5) 0.0509(3)
C5 C 0.8615(4) 1.2129(5) 0.0981(3)
C6 C 0.7786(4) 0.8136(5) -0.1723(3)
C7 C 0.3709(4) 0.6080(5) 0.0966(3)
H6 H 0.3291 0.5207 0.0665
C8 C 0.4661(4) 0.6801(5) 0.0528(3)
H7 H 0.4878 0.6415 -0.0052
C9 C 0.5295(4) 0.8114(5) 0.0964(3)
C10 C 0.4891(4) 0.8670(5) 0.1804(3)
H8 H 0.5265 0.9572 0.2102
C11 C 0.3933(4) 0.7880(5) 0.2196(3)
H9 H 0.3674 0.8273 0.2761
Co1A Co 0.19582(5) 0.52330(6) 0.24421(4)
Co1C Co 0.80418(5) 0.47670(6) -0.24421(4)
O4C O 0.7366(3) 0.8260(3) 0.3138(2)
N3A N 0.6649(3) 1.1570(4) 0.3194(2)
loop_
_geom_bond_atom_site_label_1
_geom_bond_atom_site_label_2
_geom_bond_site_symmetry_1
_geom_bond_site_symmetry_2
Co1 O1 1_555 1_555
O1 C5 1_555 1_555
O2 C5 1_555 1_555
O3 C6 1_555 1_555
O4 C6 1_555 1_555
O5 Co1 1_555 1_555
H1 O5 1_555 1_555
H2 O5 1_555 1_555
O6 Co1 1_555 1_555
H3 O6 1_555 1_555
H4 O6 1_555 1_555
N1 Co1 1_555 1_555
N2 C3 1_555 1_555
N3 C7 1_555 1_555
C1 N1 1_555 1_555
C2 C1 1_555 1_555
H5 C2 1_555 1_555
C3 C2 1_555 1_555
C4 N1 1_555 1_555
C5 C1 1_555 1_555
C6 C3 1_555 1_555
C7 H6 1_555 1_555
C8 C7 1_555 1_555
H7 C8 1_555 1_555
C9 C4 1_555 1_555
C10 C9 1_555 1_555
H8 C10 1_555 1_555
C11 N3 1_555 1_555
H9 C11 1_555 1_555
Co1A N3 1_555 1_555
Co1C O4 1_555 1_555
O4C Co1 1_555 1_555
N3A Co1 1_555 1_555
N2 C4 1_555 1_555
C8 C9 1_555 1_555
C10 C11 1_555 1_555

#END
