
#######################################################################
#
#                 Cambridge Crystallographic Data Centre
#                                CCDC 
#
#######################################################################
#
# If this CIF has been generated from an entry in the Cambridge 
# Structural Database, then it will include bibliographic, chemical, 
# crystal, experimental, refinement or atomic coordinate data resulting 
# from the CCDC's data processing and validation procedures.
#
#######################################################################

data_BEQPUK
_symmetry_cell_setting           monoclinic
_symmetry_space_group_name_H-M   'C 2/c'
_symmetry_Int_Tables_number      15
_space_group_name_Hall           '-C 2yn'
loop_
_symmetry_equiv_pos_site_id
_symmetry_equiv_pos_as_xyz
1 x,y,z
2 -x,y,1/2-z
3 1/2+x,1/2+y,z
4 1/2-x,1/2+y,1/2-z
5 -x,-y,-z
6 x,-y,1/2+z
7 1/2-x,1/2-y,-z
8 1/2+x,1/2-y,1/2+z
_cell_length_a                   13.2896(17)
_cell_length_b                   26.302(4)
_cell_length_c                   8.7398(13)
_cell_angle_alpha                90
_cell_angle_beta                 125.261(2)
_cell_angle_gamma                90
_cell_volume                     2494.45
loop_
_atom_site_label
_atom_site_type_symbol
_atom_site_fract_x
_atom_site_fract_y
_atom_site_fract_z
Zn1 Zn 0.0000 0.11762(3) 0.2500
C1 C 0.3210(4) 0.22264(16) 0.7594(5)
H1 H 0.3116 0.2332 0.6503
C2 C 0.4069(4) 0.24637(17) 0.9271(6)
H2 H 0.4553 0.2726 0.9309
C3 C 0.4203(3) 0.23114(14) 1.0871(5)
C4 C 0.3508(4) 0.19221(16) 1.0826(6)
H3 H 0.3608 0.1817 1.1923
C5 C 0.2654(4) 0.16840(16) 0.9145(6)
H4 H 0.2185 0.1417 0.9118
C6 C 0.2493(3) 0.18374(13) 0.7514(5)
C7 C 0.1550(3) 0.15868(15) 0.5692(6)
C8 C 0.2234(4) 0.09574(19) 0.2671(9)
H5 H 0.2286 0.1310 0.2781
C9 C 0.3132(4) 0.07017(18) 0.2659(9)
H6 H 0.3765 0.0887 0.2762
C10 C 0.3125(3) 0.01891(14) 0.2503(4)
C11 C 0.2158(4) -0.0042(2) 0.2358(8)
H7 H 0.2081 -0.0393 0.2241
C12 C 0.1297(4) 0.0236(2) 0.2383(8)
H8 H 0.0656 0.0059 0.2284
C13 C 0.4084(3) -0.00979(14) 0.2502(5)
C14 C 0.5000 0.01533(19) 0.2500
H9 H 0.5000 0.0507 0.2500
C15 C 0.4101(4) -0.06205(17) 0.2503(8)
H10 H 0.3500 -0.0801 0.2505
C16 C 0.5000 -0.0878(3) 0.2500
H11 H 0.5000 -0.1231 0.2500
N1 N 0.1311(2) 0.07289(14) 0.2534(4)
O1 O 0.1351(2) 0.17499(10) 0.4206(4)
O2 O 0.0960(3) 0.12166(12) 0.5646(4)
O3 O 0.5000 0.25853(14) 1.2500
C1A C 0.6790(4) 0.22264(16) 1.7406(5)
H1A H 0.6884 0.2332 1.8497
C2A C 0.5931(4) 0.24637(17) 1.5729(6)
H2A H 0.5447 0.2726 1.5691
C3A C 0.5797(3) 0.23114(14) 1.4129(5)
C4A C 0.6492(4) 0.19221(16) 1.4174(6)
H3A H 0.6392 0.1817 1.3077
C5A C 0.7346(4) 0.16840(16) 1.5855(6)
H4A H 0.7815 0.1417 1.5882
C6A C 0.7507(3) 0.18374(13) 1.7486(5)
C7A C 0.8450(3) 0.15868(15) 1.9308(6)
O1A O 0.8649(2) 0.17499(10) 2.0794(4)
O2A O 0.9040(3) 0.12166(12) 1.9354(4)
C8A C 0.7766(4) 0.09574(19) 0.2329(9)
H5A H 0.7714 0.1310 0.2219
C9A C 0.6868(4) 0.07017(18) 0.2341(9)
H6A H 0.6235 0.0887 0.2238
C10A C 0.6875(3) 0.01891(14) 0.2497(4)
C11A C 0.7842(4) -0.0042(2) 0.2642(8)
H7A H 0.7919 -0.0393 0.2759
C12A C 0.8703(4) 0.0236(2) 0.2617(8)
H8A H 0.9344 0.0059 0.2716
C13A C 0.5916(3) -0.00979(14) 0.2498(5)
C15A C 0.5899(4) -0.06205(17) 0.2497(8)
H10A H 0.6500 -0.0801 0.2495
N1A N 0.8689(2) 0.07289(14) 0.2466(4)
Zn1_2 Zn 1.0000 0.11762(3) 0.2500
Zn1_3 Zn 1.0000 0.11762(3) 2.2500
N1A_2 N -0.1311(2) 0.07289(14) 0.2466(4)
O1A_2 O -0.1351(2) 0.17499(10) 0.0794(4)
O2A_2 O -0.0960(3) 0.12166(12) -0.0646(4)
O4 O 0.0000 0.0780(2) 0.7500
H12 H 0.0391 0.0957 0.7017
H12A H -0.0391 0.0957 0.7983
loop_
_geom_bond_atom_site_label_1
_geom_bond_atom_site_label_2
_geom_bond_site_symmetry_1
_geom_bond_site_symmetry_2
Zn1 N1 1_555 1_555
C1 H1 1_555 1_555
C2 C1 1_555 1_555
H2 C2 1_555 1_555
C3 C2 1_555 1_555
C4 C3 1_555 1_555
H3 C4 1_555 1_555
C5 C4 1_555 1_555
H4 C5 1_555 1_555
C6 C1 1_555 1_555
C7 C6 1_555 1_555
C8 H5 1_555 1_555
C9 C8 1_555 1_555
H6 C9 1_555 1_555
C10 C9 1_555 1_555
C11 C10 1_555 1_555
H7 C11 1_555 1_555
C12 C11 1_555 1_555
H8 C12 1_555 1_555
C13 C10 1_555 1_555
C14 C13 1_555 1_555
H9 C14 1_555 1_555
C15 C13 1_555 1_555
H10 C15 1_555 1_555
C16 C15 1_555 1_555
H11 C16 1_555 1_555
N1 C8 1_555 1_555
O1 Zn1 1_555 1_555
O2 Zn1 1_555 1_555
O3 C3 1_555 1_555
O4 H12 1_555 1_555
C1A H1A 1_555 1_555
C2A C1A 1_555 1_555
H2A C2A 1_555 1_555
C3A O3 1_555 1_555
C4A C3A 1_555 1_555
H3A C4A 1_555 1_555
C5A C4A 1_555 1_555
H4A C5A 1_555 1_555
C6A C1A 1_555 1_555
C7A C6A 1_555 1_555
O1A C7A 1_555 1_555
O2A C7A 1_555 1_555
C8A H5A 1_555 1_555
C9A C8A 1_555 1_555
H6A C9A 1_555 1_555
C10A C9A 1_555 1_555
C11A C10A 1_555 1_555
H7A C11A 1_555 1_555
C12A C11A 1_555 1_555
H8A C12A 1_555 1_555
C13A C14 1_555 1_555
C15A C16 1_555 1_555
H10A C15A 1_555 1_555
N1A C8A 1_555 1_555
Zn1_2 N1A 1_555 1_555
Zn1_3 O1A 1_555 1_555
N1A_2 Zn1 1_555 1_555
O1A_2 Zn1 1_555 1_555
O2A_2 Zn1 1_555 1_555
H12A O4 1_555 1_555
C5 C6 1_555 1_555
C7 O1 1_555 1_555
C7 O2 1_555 1_555
C12 N1 1_555 1_555
C2A C3A 1_555 1_555
C5A C6A 1_555 1_555
O2A Zn1_3 1_555 1_555
C10A C13A 1_555 1_555
C12A N1A 1_555 1_555
C13A C15A 1_555 1_555

#END
