
#######################################################################
#
#                 Cambridge Crystallographic Data Centre
#                                CCDC 
#
#######################################################################
#
# If this CIF has been generated from an entry in the Cambridge 
# Structural Database, then it will include bibliographic, chemical, 
# crystal, experimental, refinement or atomic coordinate data resulting 
# from the CCDC's data processing and validation procedures.
#
#######################################################################

data_BEQPES
_symmetry_cell_setting           monoclinic
_symmetry_space_group_name_H-M   'P 21/n'
_symmetry_Int_Tables_number      14
_space_group_name_Hall           '-P 2yn'
loop_
_symmetry_equiv_pos_site_id
_symmetry_equiv_pos_as_xyz
1 x,y,z
2 1/2-x,1/2+y,1/2-z
3 -x,-y,-z
4 1/2+x,1/2-y,1/2+z
_cell_length_a                   6.507(5)
_cell_length_b                   9.640(3)
_cell_length_c                   26.376(3)
_cell_angle_alpha                90
_cell_angle_beta                 91.51(3)
_cell_angle_gamma                90
_cell_volume                     1653.93
loop_
_atom_site_label
_atom_site_type_symbol
_atom_site_fract_x
_atom_site_fract_y
_atom_site_fract_z
Sn1 Sn -0.32373(9) -0.48241(5) 0.26956(2)
S1 S -0.2286(7) 0.0787(4) 0.46851(13)
O1 O -0.3917(11) -0.3458(6) 0.3314(2)
O2 O -0.2693(10) -0.1560(6) 0.2955(2)
O3 O -0.8291(14) -0.1622(10) 0.3603(4)
O4 O -0.3289(12) -0.3415(9) 0.4616(4)
N1 N -0.5448(11) -0.2161(7) 0.4089(3)
C1 C -0.4752(17) -0.6439(9) 0.3084(4)
H1 H -0.5500 -0.7006 0.2844
H2 H -0.5688 -0.6044 0.3320
H3 H -0.3753 -0.6996 0.3265
C2 C -0.5037(14) -0.3795(9) 0.2124(4)
H4 H -0.4158 -0.3242 0.1918
H5 H -0.6029 -0.3208 0.2280
H6 H -0.5736 -0.4471 0.1915
C3 C -0.0001(15) -0.4661(10) 0.2815(4)
H7 H 0.0363 -0.3707 0.2871
H8 H 0.0683 -0.5001 0.2522
H9 H 0.0411 -0.5200 0.3106
C4 C -0.3456(13) -0.2164(8) 0.3312(3)
C5 C -0.3898(14) -0.1401(8) 0.3811(3)
H10 H -0.2630 -0.1490 0.4017
C6 C -0.4263(17) 0.0121(10) 0.3767(4)
H11 H -0.5516 0.0270 0.3567
H12 H -0.3141 0.0530 0.3584
C7 C -0.4448(19) 0.0865(11) 0.4264(4)
H13 H -0.5621 0.0487 0.4436
H14 H -0.4742 0.1834 0.4193
C8 C -0.055(2) 0.197(2) 0.4385(6)
H15 H -0.0007 0.1537 0.4089
H16 H 0.0553 0.2199 0.4618
H17 H -0.1281 0.2796 0.4288
C9 C -0.7491(15) -0.2281(10) 0.3939(4)
C10 C -0.8377(16) -0.3404(10) 0.4247(4)
H18 H -0.9746 -0.3682 0.4238
C11 C -0.6934(16) -0.3936(10) 0.4532(4)
H19 H -0.7095 -0.4669 0.4757
C12 C -0.4966(15) -0.3189(10) 0.4442(4)
O2A O -0.2307(10) -0.6560(6) 0.2045(2)
Sn1A Sn -0.17627(9) 0.01759(5) 0.23044(2)
loop_
_geom_bond_atom_site_label_1
_geom_bond_atom_site_label_2
_geom_bond_site_symmetry_1
_geom_bond_site_symmetry_2
Sn1 O1 1_555 1_555
S1 C7 1_555 1_555
O1 C4 1_555 1_555
O2 C4 1_555 1_555
O3 C9 1_555 1_555
O4 C12 1_555 1_555
N1 C5 1_555 1_555
C1 Sn1 1_555 1_555
H1 C1 1_555 1_555
H2 C1 1_555 1_555
H3 C1 1_555 1_555
C2 Sn1 1_555 1_555
H4 C2 1_555 1_555
H5 C2 1_555 1_555
H6 C2 1_555 1_555
C3 Sn1 1_555 1_555
H7 C3 1_555 1_555
H8 C3 1_555 1_555
H9 C3 1_555 1_555
C4 C5 1_555 1_555
C5 H10 1_555 1_555
C6 C5 1_555 1_555
H11 C6 1_555 1_555
H12 C6 1_555 1_555
C7 C6 1_555 1_555
H13 C7 1_555 1_555
H14 C7 1_555 1_555
C8 S1 1_555 1_555
H15 C8 1_555 1_555
H16 C8 1_555 1_555
H17 C8 1_555 1_555
C9 N1 1_555 1_555
C10 C9 1_555 1_555
H18 C10 1_555 1_555
C11 C10 1_555 1_555
H19 C11 1_555 1_555
C12 N1 1_555 1_555
O2A Sn1 1_555 1_555
Sn1A O2 1_555 1_555
C11 C12 1_555 1_555

#END
