
#######################################################################
#
#                 Cambridge Crystallographic Data Centre
#                                CCDC 
#
#######################################################################
#
# If this CIF has been generated from an entry in the Cambridge 
# Structural Database, then it will include bibliographic, chemical, 
# crystal, experimental, refinement or atomic coordinate data resulting 
# from the CCDC's data processing and validation procedures.
#
#######################################################################

data_BEQRUM
_symmetry_cell_setting           triclinic
_symmetry_space_group_name_H-M   'P -1'
_symmetry_Int_Tables_number      2
_space_group_name_Hall           '-P 1'
loop_
_symmetry_equiv_pos_site_id
_symmetry_equiv_pos_as_xyz
1 x,y,z
2 -x,-y,-z
_cell_length_a                   6.8541(4)
_cell_length_b                   10.2636(6)
_cell_length_c                   12.8115(7)
_cell_angle_alpha                90.296(2)
_cell_angle_beta                 100.4080(10)
_cell_angle_gamma                95.7830(10)
_cell_volume                     881.668
loop_
_atom_site_label
_atom_site_type_symbol
_atom_site_fract_x
_atom_site_fract_y
_atom_site_fract_z
Ag1 Ag 0.57325(3) 0.076123(19) 0.691027(16)
S1 S 0.48678(9) 0.19740(6) 0.45212(5)
O1 O 0.6398(3) 0.2307(2) 0.54579(16)
O2 O 0.5689(3) 0.15549(19) 0.36168(15)
O3 O 0.3250(3) 0.10545(19) 0.47461(15)
N1 N 0.8505(3) 0.0058(2) 0.77554(16)
N2 N 1.0079(3) -0.01886(19) 0.73135(15)
N3 N 1.3452(3) 0.1973(2) 0.72670(16)
N4 N 1.1505(3) 0.1868(2) 0.67866(15)
C1 C 1.1164(4) -0.1093(2) 0.7829(2)
H1 H 1.2330 -0.1398 0.7653
C2 C 1.0231(4) -0.1488(2) 0.8668(2)
C3 C 1.0595(5) -0.2395(3) 0.9507(2)
H2 H 1.1689 -0.2907 0.9576
C4 C 0.9304(5) -0.2496(3) 1.0207(2)
H3 H 0.9520 -0.3085 1.0775
C5 C 0.7664(5) -0.1754(3) 1.0112(2)
H4 H 0.6809 -0.1865 1.0618
C6 C 0.7253(4) -0.0877(3) 0.9318(2)
H5 H 0.6138 -0.0385 0.9262
C7 C 0.8588(4) -0.0744(2) 0.85834(18)
C8 C 1.0668(4) 0.2991(2) 0.6789(2)
H6 H 0.9329 0.3123 0.6499
C9 C 1.2151(4) 0.3931(2) 0.7303(2)
C10 C 1.2272(5) 0.5282(3) 0.7581(3)
H7 H 1.1155 0.5766 0.7390
C11 C 1.4020(5) 0.5858(3) 0.8125(3)
H8 H 1.4115 0.6756 0.8329
C12 C 1.5718(5) 0.5164(3) 0.8400(3)
H9 H 1.6918 0.5613 0.8780
C13 C 1.5680(4) 0.3866(3) 0.8135(2)
H10 H 1.6828 0.3407 0.8315
C14 C 1.3853(4) 0.3242(2) 0.75819(18)
C15 C 1.0534(4) 0.0580(2) 0.64212(19)
H11 H 1.1419 0.0121 0.6048
H12 H 0.9286 0.0676 0.5914
C16 C 0.3788(6) 0.3432(3) 0.4154(3)
H13 H 0.2759 0.3262 0.3516
H14 H 0.4820 0.4102 0.4007
H15 H 0.3184 0.3741 0.4734
Ag1_2 Ag 1.57325(3) 0.076123(19) 0.691027(16)
Ag1A Ag 0.42675(3) -0.076123(19) 0.308973(16)
O2A O 0.4311(3) -0.15549(19) 0.63832(15)
N3_2 N 0.3452(3) 0.1973(2) 0.72670(16)
loop_
_geom_bond_atom_site_label_1
_geom_bond_atom_site_label_2
_geom_bond_site_symmetry_1
_geom_bond_site_symmetry_2
Ag1 O1 1_555 1_555
S1 O1 1_555 1_555
O2 S1 1_555 1_555
O3 S1 1_555 1_555
N1 Ag1 1_555 1_555
N2 N1 1_555 1_555
N3 N4 1_555 1_555
N4 C8 1_555 1_555
C1 N2 1_555 1_555
H1 C1 1_555 1_555
C2 C1 1_555 1_555
C3 C2 1_555 1_555
H2 C3 1_555 1_555
C4 C3 1_555 1_555
H3 C4 1_555 1_555
C5 C4 1_555 1_555
H4 C5 1_555 1_555
C6 C5 1_555 1_555
H5 C6 1_555 1_555
C7 N1 1_555 1_555
C8 H6 1_555 1_555
C9 C8 1_555 1_555
C10 C9 1_555 1_555
H7 C10 1_555 1_555
C11 C10 1_555 1_555
H8 C11 1_555 1_555
C12 C11 1_555 1_555
H9 C12 1_555 1_555
C13 C12 1_555 1_555
H10 C13 1_555 1_555
C14 N3 1_555 1_555
C15 N2 1_555 1_555
H11 C15 1_555 1_555
H12 C15 1_555 1_555
C16 S1 1_555 1_555
H13 C16 1_555 1_555
H14 C16 1_555 1_555
H15 C16 1_555 1_555
Ag1_2 N3 1_555 1_555
Ag1A O2 1_555 1_555
O2A Ag1 1_555 1_555
N3_2 Ag1 1_555 1_555
N4 C15 1_555 1_555
C2 C7 1_555 1_555
C6 C7 1_555 1_555
C9 C14 1_555 1_555
C13 C14 1_555 1_555

#END
