
#######################################################################
#
#                 Cambridge Crystallographic Data Centre
#                                CCDC 
#
#######################################################################
#
# If this CIF has been generated from an entry in the Cambridge 
# Structural Database, then it will include bibliographic, chemical, 
# crystal, experimental, refinement or atomic coordinate data resulting 
# from the CCDC's data processing and validation procedures.
#
#######################################################################

data_BEQWUP
_symmetry_cell_setting           monoclinic
_symmetry_space_group_name_H-M   'P 21/n'
_symmetry_Int_Tables_number      14
_space_group_name_Hall           '-P 2yn'
loop_
_symmetry_equiv_pos_site_id
_symmetry_equiv_pos_as_xyz
1 x,y,z
2 1/2-x,1/2+y,1/2-z
3 -x,-y,-z
4 1/2+x,1/2-y,1/2+z
_cell_length_a                   9.512(2)
_cell_length_b                   7.519(1)
_cell_length_c                   20.443(5)
_cell_angle_alpha                90
_cell_angle_beta                 103.23(2)
_cell_angle_gamma                90
_cell_volume                     1423.29
loop_
_atom_site_label
_atom_site_type_symbol
_atom_site_fract_x
_atom_site_fract_y
_atom_site_fract_z
Li1 Li 0.4414(6) 0.5569(8) 0.7780(3)
C1 C 0.3401(5) 1.1653(6) 0.5100(2)
C2 C 0.3482(4) 1.0567(5) 0.5704(2)
C3 C 0.3494(3) 0.9693(4) 0.6188(2)
C4 C 0.3474(3) 0.8631(4) 0.6800(2)
N1 N 0.4321(3) 0.6931(4) 0.6829(1)
C5 C 0.3711(4) 0.5766(5) 0.6256(2)
C6 C 0.5833(4) 0.7339(5) 0.6826(2)
C7 C 0.1964(3) 0.8307(4) 0.6879(2)
C8 C 0.1584(4) 0.7791(4) 0.7468(2)
C9 C 0.0076(4) 0.7600(4) 0.7335(2)
C10 C -0.0482(4) 0.8002(5) 0.6658(2)
C11 C 0.0674(4) 0.8441(4) 0.6371(2)
O1 O 0.5533(3) 0.7445(3) 0.8395(1)
C12 C 0.7073(5) 0.7463(8) 0.8617(3)
C13 C 0.7465(5) 0.8375(9) 0.9260(2)
C14 C 0.6127(6) 0.8522(11) 0.9486(3)
C15 C 0.4934(4) 0.8355(6) 0.8875(2)
H1 H 0.4057 1.1178 0.4843
H2 H 0.3670 1.2869 0.5230
H3 H 0.2423 1.1629 0.4826
H4 H 0.3963 0.9356 0.7190
H5 H 0.2702 0.5538 0.6244
H6 H 0.4236 0.4650 0.6305
H7 H 0.3793 0.6342 0.5842
H8 H 0.6201 0.8225 0.7167
H9 H 0.5884 0.7796 0.6389
H10 H 0.6409 0.6265 0.6921
H11 H 0.2228 0.7602 0.7885
H12 H -0.0462 0.7261 0.7647
H13 H -0.1463 0.7981 0.6434
H14 H 0.0607 0.8768 0.5921
H15 H 0.7498 0.8077 0.8285
H16 H 0.7442 0.6242 0.8664
H17 H 0.7863 0.9556 0.9207
H18 H 0.8185 0.7690 0.9581
H19 H 0.6077 0.9673 0.9704
H20 H 0.6065 0.7574 0.9807
H21 H 0.4127 0.7679 0.8975
H22 H 0.4582 0.9532 0.8707
C7A C 0.3036(3) 0.3307(4) 0.8121(2)
C8A C 0.3416(4) 0.2791(4) 0.7532(2)
C9A C 0.4924(4) 0.2600(4) 0.7665(2)
C10A C 0.5482(4) 0.3002(5) 0.8342(2)
C11A C 0.4326(4) 0.3441(4) 0.8629(2)
Li1A Li 0.0586(6) 1.0569(8) 0.7220(3)
H11A H 0.2772 0.2602 0.7115
H12A H 0.5462 0.2261 0.7353
H13A H 0.6463 0.2981 0.8566
H14A H 0.4393 0.3768 0.9079
loop_
_geom_bond_atom_site_label_1
_geom_bond_atom_site_label_2
_geom_bond_site_symmetry_1
_geom_bond_site_symmetry_2
Li1 N1 1_555 1_555
C1 C2 1_555 1_555
C2 C3 1_555 1_555
C3 C4 1_555 1_555
C4 N1 1_555 1_555
N1 C5 1_555 1_555
C5 H5 1_555 1_555
C6 N1 1_555 1_555
C7 C4 1_555 1_555
C8 C7 1_555 1_555
C9 C8 1_555 1_555
C10 C9 1_555 1_555
C11 C7 1_555 1_555
O1 Li1 1_555 1_555
C12 O1 1_555 1_555
C13 C12 1_555 1_555
C14 C13 1_555 1_555
C15 O1 1_555 1_555
H1 C1 1_555 1_555
H2 C1 1_555 1_555
H3 C1 1_555 1_555
H4 C4 1_555 1_555
H6 C5 1_555 1_555
H7 C5 1_555 1_555
H8 C6 1_555 1_555
H9 C6 1_555 1_555
H10 C6 1_555 1_555
H11 C8 1_555 1_555
H12 C9 1_555 1_555
H13 C10 1_555 1_555
H14 C11 1_555 1_555
H15 C12 1_555 1_555
H16 C12 1_555 1_555
H17 C13 1_555 1_555
H18 C13 1_555 1_555
H19 C14 1_555 1_555
H20 C14 1_555 1_555
H21 C15 1_555 1_555
H22 C15 1_555 1_555
C7A Li1 1_555 1_555
C8A Li1 1_555 1_555
C9A Li1 1_555 1_555
C10A Li1 1_555 1_555
C11A Li1 1_555 1_555
Li1A C7 1_555 1_555
H11A C8A 1_555 1_555
H12A C9A 1_555 1_555
H13A C10A 1_555 1_555
H14A C11A 1_555 1_555
C8 Li1A 1_555 1_555
C9 Li1A 1_555 1_555
C10 C11 1_555 1_555
C10 Li1A 1_555 1_555
C11 Li1A 1_555 1_555
C14 C15 1_555 1_555
C7A C8A 1_555 1_555
C7A C11A 1_555 1_555
C8A C9A 1_555 1_555
C9A C10A 1_555 1_555
C10A C11A 1_555 1_555

#END
