
#######################################################################
#
#                 Cambridge Crystallographic Data Centre
#                                CCDC 
#
#######################################################################
#
# If this CIF has been generated from an entry in the Cambridge 
# Structural Database, then it will include bibliographic, chemical, 
# crystal, experimental, refinement or atomic coordinate data resulting 
# from the CCDC's data processing and validation procedures.
#
#######################################################################

data_BEQXOM
_symmetry_cell_setting           triclinic
_symmetry_space_group_name_H-M   'P -1'
_symmetry_Int_Tables_number      2
_space_group_name_Hall           '-P 1'
loop_
_symmetry_equiv_pos_site_id
_symmetry_equiv_pos_as_xyz
1 x,y,z
2 -x,-y,-z
_cell_length_a                   5.059(2)
_cell_length_b                   9.540(4)
_cell_length_c                   11.701(5)
_cell_angle_alpha                90.952(12)
_cell_angle_beta                 91.597(11)
_cell_angle_gamma                100.868(14)
_cell_volume                     554.242
loop_
_atom_site_label
_atom_site_type_symbol
_atom_site_fract_x
_atom_site_fract_y
_atom_site_fract_z
Mn1 Mn 0.5000 0.5000 0.0000
O1 O 0.8669(5) 0.6235(3) 0.0784(2)
O2 O 1.2854(6) 0.6767(3) 0.0126(3)
N1 N 0.3744(8) 0.3058(4) 0.3363(3)
N2 N 0.1673(9) 0.3779(5) 0.3393(4)
N3 N 0.3823(7) 0.4167(4) 0.1742(3)
C1 C 0.2075(9) 0.1076(5) 0.4661(4)
C2 C 0.1557(9) -0.0235(5) 0.4069(4)
C3 C -0.0539(10) -0.1319(5) 0.4396(4)
C4 C 0.4405(10) 0.2225(5) 0.4329(4)
H1 H 0.4961 0.2864 0.4981
H2 H 0.5914 0.1782 0.4136
C5 C 0.3238(10) -0.0468(6) 0.3047(4)
H3 H 0.2824 -0.1455 0.2808
H4 H 0.5116 -0.0211 0.3260
H5 H 0.2833 0.0115 0.2429
C6 C -0.1056(12) -0.2751(6) 0.3773(5)
H6 H -0.2085 -0.2690 0.3080
H7 H -0.2043 -0.3460 0.4251
H8 H 0.0630 -0.3010 0.3592
C7 C 0.1839(10) 0.4421(5) 0.2403(4)
H9 H 0.0659 0.5011 0.2179
C8 C 0.4978(9) 0.3298(5) 0.2389(4)
H10 H 0.6456 0.2913 0.2180
C9 C 1.0269(7) 0.8583(4) 0.0157(4)
C10 C 0.8247(8) 0.9127(4) 0.0678(4)
H11 H 0.7044 0.8544 0.1134
C11 C 0.7997(8) 1.0528(4) 0.0527(4)
H12 H 0.6639 1.0880 0.0892
C12 C 1.0622(8) 0.7073(4) 0.0358(4)
O1A O 1.1331(5) 1.3765(3) -0.0784(2)
O2A O 0.7146(6) 1.3233(3) -0.0126(3)
C9A C 0.9731(7) 1.1417(4) -0.0157(4)
C10A C 1.1753(8) 1.0873(4) -0.0678(4)
H11A H 1.2956 1.1456 -0.1134
C11A C 1.2003(8) 0.9472(4) -0.0527(4)
H12A H 1.3361 0.9120 -0.0892
C12A C 0.9378(8) 1.2927(4) -0.0358(4)
N1A N -0.3744(8) -0.3058(4) 0.6637(3)
N2A N -0.1673(9) -0.3779(5) 0.6607(4)
N3A N -0.3823(7) -0.4167(4) 0.8258(3)
C1A C -0.2075(9) -0.1076(5) 0.5339(4)
C2A C -0.1557(9) 0.0235(5) 0.5931(4)
C3A C 0.0539(10) 0.1319(5) 0.5604(4)
C4A C -0.4405(10) -0.2225(5) 0.5671(4)
H1A H -0.4961 -0.2864 0.5019
H2A H -0.5914 -0.1782 0.5864
C5A C -0.3238(10) 0.0468(6) 0.6953(4)
H3A H -0.2824 0.1455 0.7192
H4A H -0.5116 0.0211 0.6740
H5A H -0.2833 -0.0115 0.7571
C6A C 0.1056(12) 0.2751(6) 0.6227(5)
H6A H 0.2085 0.2690 0.6920
H7A H 0.2043 0.3460 0.5749
H8A H -0.0630 0.3010 0.6408
C7A C -0.1839(10) -0.4421(5) 0.7597(4)
H9A H -0.0659 -0.5011 0.7821
C8A C -0.4978(9) -0.3298(5) 0.7611(4)
H10A H -0.6456 -0.2913 0.7820
Mn1_2 Mn -0.5000 -0.5000 1.0000
Mn1_3 Mn 0.5000 1.5000 0.0000
Mn1_4 Mn 1.5000 0.5000 0.0000
Mn1_5 Mn 1.5000 1.5000 0.0000
O1A_2 O 0.1331(5) 0.3765(3) -0.0784(2)
O2_2 O 0.2854(6) 0.6767(3) 0.0126(3)
O2A_2 O 0.7146(6) 0.3233(3) -0.0126(3)
N3A_2 N 0.6177(7) 0.5833(4) -0.1742(3)
loop_
_geom_bond_atom_site_label_1
_geom_bond_atom_site_label_2
_geom_bond_site_symmetry_1
_geom_bond_site_symmetry_2
Mn1 O1 1_555 1_555
O1 C12 1_555 1_555
O2 C12 1_555 1_555
N1 N2 1_555 1_555
N2 C7 1_555 1_555
N3 Mn1 1_555 1_555
C1 C2 1_555 1_555
C2 C3 1_555 1_555
C3 C6 1_555 1_555
C4 N1 1_555 1_555
H1 C4 1_555 1_555
H2 C4 1_555 1_555
C5 C2 1_555 1_555
H3 C5 1_555 1_555
H4 C5 1_555 1_555
H5 C5 1_555 1_555
C6 H6 1_555 1_555
H7 C6 1_555 1_555
H8 C6 1_555 1_555
C7 N3 1_555 1_555
H9 C7 1_555 1_555
C8 N1 1_555 1_555
H10 C8 1_555 1_555
C9 C10 1_555 1_555
C10 H11 1_555 1_555
C11 C10 1_555 1_555
H12 C11 1_555 1_555
C12 C9 1_555 1_555
O1A C12A 1_555 1_555
O2A C12A 1_555 1_555
C9A C11 1_555 1_555
C10A C9A 1_555 1_555
H11A C10A 1_555 1_555
C11A C9 1_555 1_555
H12A C11A 1_555 1_555
C12A C9A 1_555 1_555
N1A N2A 1_555 1_555
N2A C7A 1_555 1_555
N3A C7A 1_555 1_555
C1A C3 1_555 1_555
C2A C1A 1_555 1_555
C3A C1 1_555 1_555
C4A N1A 1_555 1_555
H1A C4A 1_555 1_555
H2A C4A 1_555 1_555
C5A C2A 1_555 1_555
H3A C5A 1_555 1_555
H4A C5A 1_555 1_555
H5A C5A 1_555 1_555
C6A C3A 1_555 1_555
H6A C6A 1_555 1_555
H7A C6A 1_555 1_555
H8A C6A 1_555 1_555
C7A H9A 1_555 1_555
C8A N1A 1_555 1_555
H10A C8A 1_555 1_555
Mn1_2 N3A 1_555 1_555
Mn1_3 O2A 1_555 1_555
Mn1_4 O2 1_555 1_555
Mn1_5 O1A 1_555 1_555
O1A_2 Mn1 1_555 1_555
O2_2 Mn1 1_555 1_555
O2A_2 Mn1 1_555 1_555
N3A_2 Mn1 1_555 1_555
N3 C8 1_555 1_555
C1 C4 1_555 1_555
C10A C11A 1_555 1_555
N3A C8A 1_555 1_555
C1A C4A 1_555 1_555
C2A C3A 1_555 1_555

#END
