
#######################################################################
#
#                 Cambridge Crystallographic Data Centre
#                                CCDC 
#
#######################################################################
#
# If this CIF has been generated from an entry in the Cambridge 
# Structural Database, then it will include bibliographic, chemical, 
# crystal, experimental, refinement or atomic coordinate data resulting 
# from the CCDC's data processing and validation procedures.
#
#######################################################################

data_BEQXAY
_symmetry_cell_setting           triclinic
_symmetry_space_group_name_H-M   'P -1'
_symmetry_Int_Tables_number      2
_space_group_name_Hall           '-P 1'
loop_
_symmetry_equiv_pos_site_id
_symmetry_equiv_pos_as_xyz
1 x,y,z
2 -x,-y,-z
_cell_length_a                   10.1205(5)
_cell_length_b                   11.8855(7)
_cell_length_c                   13.4846(7)
_cell_angle_alpha                91.532(5)
_cell_angle_beta                 92.938(4)
_cell_angle_gamma                110.081(5)
_cell_volume                     1519.72
loop_
_atom_site_label
_atom_site_type_symbol
_atom_site_fract_x
_atom_site_fract_y
_atom_site_fract_z
Ni1 Ni 0.31770(4) 0.22155(4) 1.01593(3)
O1 O 0.25752(19) 0.3613(2) 1.09216(14)
O2 O 0.1066(2) 0.2170(2) 0.99675(14)
O3 O -0.3977(2) 0.1734(3) 0.9694(2)
O4 O -0.4764(2) 0.2888(2) 1.06343(15)
N1 N 0.2549(3) -0.0653(2) 0.80568(17)
N2 N 0.1184(3) -0.0716(3) 0.81216(18)
N3 N 0.2631(3) 0.0640(2) 0.92538(16)
N4 N 0.1759(3) 0.0401(3) 0.27546(18)
N5 N 0.2171(3) -0.0467(3) 0.2322(2)
N6 N 0.2684(2) 0.1167(3) 0.13956(17)
N7 N 0.4533(3) 0.4350(3) 0.76903(18)
N8 N 0.3248(4) 0.3593(3) 0.7303(2)
N9 N 0.3618(3) 0.3183(2) 0.88803(17)
C1 C 0.2491(3) -0.1048(3) 0.6265(2)
C2 C 0.3302(3) 0.0049(3) 0.5894(2)
C3 C 0.2813(4) 0.0452(3) 0.5036(2)
C4 C 0.1586(3) -0.0304(3) 0.4504(2)
C5 C 0.0873(3) -0.1449(3) 0.4809(2)
C6 C 0.1270(3) -0.1809(3) 0.5733(2)
C7 C 0.2903(3) -0.1380(3) 0.7293(2)
H1 H 0.2399 -0.2233 0.7384
H2 H 0.3917 -0.1239 0.7351
C8 C 0.4679(4) 0.0843(4) 0.6433(3)
H3 H 0.5382 0.1155 0.5954
H4 H 0.5005 0.0376 0.6902
H5 H 0.4527 0.1505 0.6788
C9 C 0.3613(5) 0.1689(4) 0.4699(3)
H6 H 0.3961 0.2240 0.5274
H7 H 0.2991 0.1961 0.4275
H8 H 0.4402 0.1662 0.4331
C10 C 0.0959(4) 0.0190(4) 0.3648(2)
H9 H 0.0006 -0.0371 0.3466
H10 H 0.0872 0.0949 0.3878
C11 C -0.0342(4) -0.2322(4) 0.4165(3)
H11 H -0.1211 -0.2195 0.4305
H12 H -0.0422 -0.3138 0.4308
H13 H -0.0167 -0.2192 0.3469
C12 C 0.0324(4) -0.2952(3) 0.6152(3)
H14 H 0.0467 -0.3636 0.5827
H15 H -0.0653 -0.3013 0.6037
H16 H 0.0550 -0.2941 0.6861
C13 C 0.1293(3) 0.0067(3) 0.8853(2)
H17 H 0.0508 0.0222 0.9084
C14 C 0.3377(3) 0.0142(3) 0.8736(2)
H18 H 0.4356 0.0325 0.8835
C15 C 0.2733(4) 0.0047(4) 0.1510(2)
H19 H 0.3132 -0.0330 0.1051
C16 C 0.2055(3) 0.1335(3) 0.2189(2)
H20 H 0.1845 0.2031 0.2334
C17 C 0.5179(4) 0.5141(3) 0.6023(2)
C18 C 0.6038(3) 0.4663(3) 0.5509(3)
C19 C 0.5851(4) 0.4530(3) 0.4470(3)
C20 C 0.5417(5) 0.5365(4) 0.7148(2)
H21 H 0.6411 0.5514 0.7342
H22 H 0.5209 0.6086 0.7337
C21 C 0.7100(5) 0.4246(5) 0.6075(5)
H23 H 0.7964 0.4922 0.6224
H24 H 0.7297 0.3640 0.5673
H25 H 0.6720 0.3909 0.6690
C22 C 0.6836(6) 0.4060(5) 0.3917(5)
H26 H 0.6569 0.3987 0.3211
H27 H 0.6774 0.3281 0.4152
H28 H 0.7796 0.4613 0.4034
C23 C 0.2763(4) 0.2916(3) 0.8037(2)
H29 H 0.1887 0.2289 0.7987
C24 C 0.4714(3) 0.4097(3) 0.8629(2)
H30 H 0.5508 0.4507 0.9055
C25 C 0.0186(3) 0.3570(3) 1.0764(2)
C26 C -0.1200(3) 0.2914(3) 1.0431(2)
H31 H -0.1397 0.2193 1.0052
C27 C -0.2294(3) 0.3313(3) 1.0655(2)
C28 C -0.1987(3) 0.4376(3) 1.1212(2)
H32 H -0.2721 0.4647 1.1378
C29 C -0.0609(3) 0.5046(3) 1.1530(2)
H33 H -0.0410 0.5777 1.1893
C30 C 0.0477(3) 0.4636(3) 1.1310(2)
H34 H 0.1410 0.5084 1.1533
C31 C 0.1335(3) 0.3094(3) 1.0532(2)
C32 C -0.3792(3) 0.2574(3) 1.0292(2)
N7A N 0.5467(3) 0.5650(3) 0.23097(18)
N8A N 0.6752(4) 0.6407(3) 0.2697(2)
N9A N 0.6382(3) 0.6817(2) 0.11197(17)
C17A C 0.4821(4) 0.4859(3) 0.3977(2)
C18A C 0.3962(3) 0.5337(3) 0.4491(3)
C19A C 0.4149(4) 0.5470(3) 0.5530(3)
C20A C 0.4583(5) 0.4635(4) 0.2852(2)
H21A H 0.3589 0.4486 0.2658
H22A H 0.4791 0.3914 0.2663
C21A C 0.2900(5) 0.5754(5) 0.3925(5)
H23A H 0.2036 0.5078 0.3776
H24A H 0.2703 0.6360 0.4327
H25A H 0.3280 0.6091 0.3310
C22A C 0.3164(6) 0.5940(5) 0.6083(5)
H26A H 0.3431 0.6013 0.6789
H27A H 0.3226 0.6719 0.5848
H28A H 0.2204 0.5387 0.5966
C23A C 0.7237(4) 0.7084(3) 0.1963(2)
H29A H 0.8113 0.7711 0.2013
C24A C 0.5286(3) 0.5903(3) 0.1371(2)
H30A H 0.4492 0.5493 0.0945
Ni1A Ni 0.68230(4) 0.77845(4) -0.01593(3)
O1A O 0.74248(19) 0.6387(2) -0.09216(14)
O2A O 0.8934(2) 0.7830(2) 0.00325(14)
O3A O 1.3977(2) 0.8266(3) 0.0306(2)
O4A O 1.4764(2) 0.7112(2) -0.06343(15)
N1A N 0.7451(3) 1.0653(2) 0.19432(17)
N2A N 0.8816(3) 1.0716(3) 0.18784(18)
N3A N 0.7369(3) 0.9360(2) 0.07462(16)
N4A N 0.8241(3) 0.9599(3) 0.72454(18)
N5A N 0.7829(3) 1.0467(3) 0.7678(2)
N6A N 0.7316(2) 0.8833(3) 0.86044(17)
C1A C 0.7509(3) 1.1048(3) 0.3735(2)
C2A C 0.6698(3) 0.9951(3) 0.4106(2)
C3A C 0.7187(4) 0.9548(3) 0.4964(2)
C4A C 0.8414(3) 1.0304(3) 0.5496(2)
C5A C 0.9127(3) 1.1449(3) 0.5191(2)
C6A C 0.8730(3) 1.1809(3) 0.4267(2)
C7A C 0.7097(3) 1.1380(3) 0.2707(2)
H1A H 0.7601 1.2233 0.2616
H2A H 0.6083 1.1239 0.2649
C8A C 0.5321(4) 0.9157(4) 0.3567(3)
H3A H 0.4618 0.8845 0.4046
H4A H 0.4995 0.9624 0.3098
H5A H 0.5473 0.8495 0.3212
C9A C 0.6387(5) 0.8311(4) 0.5301(3)
H6A H 0.6039 0.7760 0.4726
H7A H 0.7009 0.8039 0.5725
H8A H 0.5598 0.8338 0.5669
C10A C 0.9041(4) 0.9810(4) 0.6352(2)
H9A H 0.9994 1.0371 0.6534
H10A H 0.9128 0.9051 0.6122
C11A C 1.0342(4) 1.2322(4) 0.5835(3)
H11A H 1.1211 1.2195 0.5695
H12A H 1.0422 1.3138 0.5692
H13A H 1.0167 1.2192 0.6531
C12A C 0.9676(4) 1.2952(3) 0.3848(3)
H14A H 0.9533 1.3636 0.4173
H15A H 1.0653 1.3013 0.3963
H16A H 0.9450 1.2941 0.3139
C13A C 0.8707(3) 0.9933(3) 0.1147(2)
H17A H 0.9492 0.9778 0.0916
C14A C 0.6623(3) 0.9858(3) 0.1264(2)
H18A H 0.5644 0.9675 0.1165
C15A C 0.7267(4) 0.9953(4) 0.8490(2)
H19A H 0.6868 1.0330 0.8949
C16A C 0.7945(3) 0.8665(3) 0.7811(2)
H20A H 0.8155 0.7969 0.7666
C25A C 0.9814(3) 0.6430(3) -0.0764(2)
C26A C 1.1200(3) 0.7086(3) -0.0431(2)
H31A H 1.1397 0.7807 -0.0052
C27A C 1.2294(3) 0.6687(3) -0.0655(2)
C28A C 1.1987(3) 0.5624(3) -0.1212(2)
H32A H 1.2721 0.5353 -0.1378
C29A C 1.0609(3) 0.4954(3) -0.1530(2)
H33A H 1.0410 0.4223 -0.1893
C30A C 0.9523(3) 0.5364(3) -0.1310(2)
H34A H 0.8590 0.4916 -0.1533
C31A C 0.8665(3) 0.6906(3) -0.0532(2)
C32A C 1.3792(3) 0.7426(3) -0.0292(2)
Ni1_2 Ni -0.68230(4) 0.22155(4) 1.01593(3)
Ni1_3 Ni 0.31770(4) 0.22155(4) 0.01593(3)
Ni1A_2 Ni 0.68230(4) 0.77845(4) 0.98407(3)
Ni1A_3 Ni 1.68230(4) 0.77845(4) -0.01593(3)
O4_2 O 0.5236(2) 0.2888(2) 1.06343(15)
O4A_2 O 0.4764(2) 0.7112(2) -0.06343(15)
N6_2 N 0.2684(2) 0.1167(3) 1.13956(17)
N6A_2 N 0.7316(2) 0.8833(3) -0.13956(17)
O5 O 0.2728(7) -0.2739(5) 0.2139(4)
loop_
_geom_bond_atom_site_label_1
_geom_bond_atom_site_label_2
_geom_bond_site_symmetry_1
_geom_bond_site_symmetry_2
Ni1 O1 1_555 1_555
O1 C31 1_555 1_555
O2 Ni1 1_555 1_555
O3 C32 1_555 1_555
O4 C32 1_555 1_555
N1 N2 1_555 1_555
N2 C13 1_555 1_555
N3 Ni1 1_555 1_555
N4 N5 1_555 1_555
N5 C15 1_555 1_555
N6 C15 1_555 1_555
N7 N8 1_555 1_555
N8 C23 1_555 1_555
N9 Ni1 1_555 1_555
C1 C2 1_555 1_555
C2 C3 1_555 1_555
C3 C4 1_555 1_555
C4 C5 1_555 1_555
C5 C6 1_555 1_555
C6 C1 1_555 1_555
C7 N1 1_555 1_555
H1 C7 1_555 1_555
H2 C7 1_555 1_555
C8 C2 1_555 1_555
H3 C8 1_555 1_555
H4 C8 1_555 1_555
H5 C8 1_555 1_555
C9 C3 1_555 1_555
H6 C9 1_555 1_555
H7 C9 1_555 1_555
H8 C9 1_555 1_555
C10 N4 1_555 1_555
H9 C10 1_555 1_555
H10 C10 1_555 1_555
C11 C5 1_555 1_555
H11 C11 1_555 1_555
H12 C11 1_555 1_555
H13 C11 1_555 1_555
C12 C6 1_555 1_555
H14 C12 1_555 1_555
H15 C12 1_555 1_555
H16 C12 1_555 1_555
C13 N3 1_555 1_555
H17 C13 1_555 1_555
C14 N1 1_555 1_555
H18 C14 1_555 1_555
C15 H19 1_555 1_555
C16 N4 1_555 1_555
H20 C16 1_555 1_555
C17 C18 1_555 1_555
C18 C19 1_555 1_555
C19 C22 1_555 1_555
C20 N7 1_555 1_555
H21 C20 1_555 1_555
H22 C20 1_555 1_555
C21 C18 1_555 1_555
H23 C21 1_555 1_555
H24 C21 1_555 1_555
H25 C21 1_555 1_555
C22 H26 1_555 1_555
H27 C22 1_555 1_555
H28 C22 1_555 1_555
C23 N9 1_555 1_555
H29 C23 1_555 1_555
C24 N7 1_555 1_555
H30 C24 1_555 1_555
C25 C26 1_555 1_555
C26 H31 1_555 1_555
C27 C26 1_555 1_555
C28 C27 1_555 1_555
H32 C28 1_555 1_555
C29 C28 1_555 1_555
H33 C29 1_555 1_555
C30 C25 1_555 1_555
H34 C30 1_555 1_555
C31 O2 1_555 1_555
C32 C27 1_555 1_555
N7A N8A 1_555 1_555
N8A C23A 1_555 1_555
N9A C23A 1_555 1_555
C17A C19 1_555 1_555
C18A C17A 1_555 1_555
C19A C17 1_555 1_555
C20A N7A 1_555 1_555
H21A C20A 1_555 1_555
H22A C20A 1_555 1_555
C21A C18A 1_555 1_555
H23A C21A 1_555 1_555
H24A C21A 1_555 1_555
H25A C21A 1_555 1_555
C22A C19A 1_555 1_555
H26A C22A 1_555 1_555
H27A C22A 1_555 1_555
H28A C22A 1_555 1_555
C23A H29A 1_555 1_555
C24A N7A 1_555 1_555
H30A C24A 1_555 1_555
Ni1A N9A 1_555 1_555
O1A Ni1A 1_555 1_555
O2A Ni1A 1_555 1_555
O3A C32A 1_555 1_555
O4A C32A 1_555 1_555
N1A N2A 1_555 1_555
N2A C13A 1_555 1_555
N3A Ni1A 1_555 1_555
N4A N5A 1_555 1_555
N5A C15A 1_555 1_555
N6A C15A 1_555 1_555
C1A C2A 1_555 1_555
C2A C3A 1_555 1_555
C3A C4A 1_555 1_555
C4A C5A 1_555 1_555
C5A C6A 1_555 1_555
C6A C1A 1_555 1_555
C7A N1A 1_555 1_555
H1A C7A 1_555 1_555
H2A C7A 1_555 1_555
C8A C2A 1_555 1_555
H3A C8A 1_555 1_555
H4A C8A 1_555 1_555
H5A C8A 1_555 1_555
C9A C3A 1_555 1_555
H6A C9A 1_555 1_555
H7A C9A 1_555 1_555
H8A C9A 1_555 1_555
C10A N4A 1_555 1_555
H9A C10A 1_555 1_555
H10A C10A 1_555 1_555
C11A C5A 1_555 1_555
H11A C11A 1_555 1_555
H12A C11A 1_555 1_555
H13A C11A 1_555 1_555
C12A C6A 1_555 1_555
H14A C12A 1_555 1_555
H15A C12A 1_555 1_555
H16A C12A 1_555 1_555
C13A N3A 1_555 1_555
H17A C13A 1_555 1_555
C14A N1A 1_555 1_555
H18A C14A 1_555 1_555
C15A H19A 1_555 1_555
C16A N4A 1_555 1_555
H20A C16A 1_555 1_555
C25A C26A 1_555 1_555
C26A H31A 1_555 1_555
C27A C26A 1_555 1_555
C28A C27A 1_555 1_555
H32A C28A 1_555 1_555
C29A C28A 1_555 1_555
H33A C29A 1_555 1_555
C30A C25A 1_555 1_555
H34A C30A 1_555 1_555
C31A O1A 1_555 1_555
C32A C27A 1_555 1_555
Ni1_2 O4 1_555 1_555
Ni1_3 N6 1_555 1_555
Ni1A_2 N6A 1_555 1_555
Ni1A_3 O4A 1_555 1_555
O4_2 Ni1 1_555 1_555
O4A_2 Ni1A 1_555 1_555
N6_2 Ni1 1_555 1_555
N6A_2 Ni1A 1_555 1_555
N3 C14 1_555 1_555
N6 C16 1_555 1_555
N9 C24 1_555 1_555
C1 C7 1_555 1_555
C4 C10 1_555 1_555
C17 C20 1_555 1_555
C25 C31 1_555 1_555
C29 C30 1_555 1_555
N9A C24A 1_555 1_555
C17A C20A 1_555 1_555
C18A C19A 1_555 1_555
O2A C31A 1_555 1_555
N3A C14A 1_555 1_555
N6A C16A 1_555 1_555
C1A C7A 1_555 1_555
C4A C10A 1_555 1_555
C25A C31A 1_555 1_555
C29A C30A 1_555 1_555

#END
