
#######################################################################
#
#                 Cambridge Crystallographic Data Centre
#                                CCDC 
#
#######################################################################
#
# If this CIF has been generated from an entry in the Cambridge 
# Structural Database, then it will include bibliographic, chemical, 
# crystal, experimental, refinement or atomic coordinate data resulting 
# from the CCDC's data processing and validation procedures.
#
#######################################################################

data_BEQXIG
_symmetry_cell_setting           monoclinic
_symmetry_space_group_name_H-M   'P 21/n'
_symmetry_Int_Tables_number      14
_space_group_name_Hall           '-P 2yn'
loop_
_symmetry_equiv_pos_site_id
_symmetry_equiv_pos_as_xyz
1 x,y,z
2 1/2-x,1/2+y,1/2-z
3 -x,-y,-z
4 1/2+x,1/2-y,1/2+z
_cell_length_a                   12.2271(6)
_cell_length_b                   16.7600(7)
_cell_length_c                   14.4858(6)
_cell_angle_alpha                90
_cell_angle_beta                 94.476(4)
_cell_angle_gamma                90
_cell_volume                     2959.47
loop_
_atom_site_label
_atom_site_type_symbol
_atom_site_fract_x
_atom_site_fract_y
_atom_site_fract_z
Co1 Co 0.64115(3) 0.99082(2) 0.79888(2)
O1 O 0.6989(2) 0.97321(13) 0.67519(14)
O2 O 0.7674(2) 1.09287(13) 0.70530(14)
O3 O 0.76766(17) 0.99538(12) -0.10498(14)
O4 O 0.61098(18) 0.99034(13) -0.04143(15)
O5 O 0.95171(18) 1.03098(15) 0.31336(13)
N1 N 0.4796(2) 1.20599(14) 0.75456(16)
N2 N 0.4504(2) 1.19356(17) 0.84255(18)
N3 N 0.5377(2) 1.08661(13) 0.79167(15)
N4 N 0.4720(2) 1.23799(14) 0.25839(17)
N5 N 0.4983(2) 1.23847(16) 0.16862(18)
N6 N 0.4359(2) 1.11818(14) 0.20691(16)
C1 C 0.4689(3) 1.28235(16) 0.6070(2)
C2 C 0.5694(3) 1.28840(17) 0.5690(2)
C3 C 0.5734(2) 1.29081(16) 0.4728(2)
C4 C 0.4750(3) 1.29537(15) 0.4162(2)
C5 C 0.3734(2) 1.28673(15) 0.4544(2)
C6 C 0.3704(3) 1.27691(16) 0.5496(2)
C7 C 0.4627(4) 1.28499(19) 0.7110(2)
H1 H 0.5185 1.3220 0.7380
H2 H 0.3906 1.3055 0.7247
C8 C 0.6758(3) 1.2925(2) 0.6309(3)
H3 H 0.6591 1.3009 0.6946
H4 H 0.7202 1.3364 0.6112
H5 H 0.7158 1.2429 0.6264
C9 C 0.6825(3) 1.2895(2) 0.4301(3)
H6 H 0.7096 1.3436 0.4252
H7 H 0.6731 1.2658 0.3690
H8 H 0.7348 1.2583 0.4689
C10 C 0.4782(3) 1.31199(17) 0.3133(2)
H9 H 0.4167 1.3468 0.2927
H10 H 0.5464 1.3402 0.3027
C11 C 0.2660(3) 1.2880(2) 0.3939(2)
H11 H 0.2359 1.2344 0.3893
H12 H 0.2793 1.3071 0.3326
H13 H 0.2144 1.3231 0.4212
C12 C 0.2626(3) 1.2618(2) 0.5905(3)
H14 H 0.2289 1.3123 0.6044
H15 H 0.2754 1.2310 0.6470
H16 H 0.2143 1.2323 0.5465
C13 C 0.4857(3) 1.12152(18) 0.8611(2)
H17 H 0.4761 1.0958 0.9175
C14 C 0.5315(3) 1.14262(17) 0.72613(19)
H18 H 0.5600 1.1377 0.6680
C15 C 0.4758(3) 1.16530(18) 0.1414(2)
H19 H 0.4865 1.1471 0.0814
C16 C 0.4352(3) 1.16623(17) 0.2795(2)
H20 H 0.4120 1.1516 0.3375
C17 C 0.9006(3) 1.0301(2) 0.39657(19)
C18 C 0.9055(3) 1.09841(19) 0.4489(2)
H21 H 0.9386 1.1448 0.4274
C19 C 0.8612(3) 1.09790(18) 0.5334(2)
H22 H 0.8667 1.1438 0.5707
C20 C 0.8086(2) 1.03088(17) 0.56449(19)
C21 C 0.8051(3) 0.96287(19) 0.5099(2)
H23 H 0.7707 0.9166 0.5300
C22 C 0.8518(3) 0.9625(2) 0.4263(2)
H24 H 0.8501 0.9160 0.3900
C23 C 0.8879(2) 1.02131(16) 0.23166(18)
C24 C 0.7735(3) 1.02800(19) 0.2237(2)
H25 H 0.7353 1.0378 0.2763
C25 C 0.7173(2) 1.02001(16) 0.1376(2)
H26 H 0.6404 1.0241 0.1321
C26 C 0.7727(2) 1.00614(15) 0.05939(19)
C27 C 0.8868(2) 1.00031(17) 0.0690(2)
H27 H 0.9250 0.9911 0.0161
C28 C 0.9449(2) 1.00763(17) 0.1537(2)
H28 H 1.0218 1.0035 0.1589
C29 C 0.7566(3) 1.03336(18) 0.65500(19)
C30 C 0.7131(2) 0.99673(15) -0.0332(2)
Co1_2 Co 0.64115(3) 0.99082(2) -0.20112(2)
Co1B Co 0.35885(3) 1.00918(2) 0.20112(2)
O3_2 O 0.76766(17) 0.99538(12) 0.89502(14)
O4_2 O 0.61098(18) 0.99034(13) 0.95857(15)
N6B N 0.5641(2) 0.88182(14) 0.79309(16)
loop_
_geom_bond_atom_site_label_1
_geom_bond_atom_site_label_2
_geom_bond_site_symmetry_1
_geom_bond_site_symmetry_2
Co1 O1 1_555 1_555
O1 C29 1_555 1_555
O2 C29 1_555 1_555
O3 C30 1_555 1_555
O4 C30 1_555 1_555
O5 C17 1_555 1_555
N1 N2 1_555 1_555
N2 C13 1_555 1_555
N3 Co1 1_555 1_555
N4 N5 1_555 1_555
N5 C15 1_555 1_555
N6 C15 1_555 1_555
C1 C2 1_555 1_555
C2 C3 1_555 1_555
C3 C4 1_555 1_555
C4 C5 1_555 1_555
C5 C6 1_555 1_555
C6 C1 1_555 1_555
C7 N1 1_555 1_555
H1 C7 1_555 1_555
H2 C7 1_555 1_555
C8 C2 1_555 1_555
H3 C8 1_555 1_555
H4 C8 1_555 1_555
H5 C8 1_555 1_555
C9 C3 1_555 1_555
H6 C9 1_555 1_555
H7 C9 1_555 1_555
H8 C9 1_555 1_555
C10 N4 1_555 1_555
H9 C10 1_555 1_555
H10 C10 1_555 1_555
C11 C5 1_555 1_555
H11 C11 1_555 1_555
H12 C11 1_555 1_555
H13 C11 1_555 1_555
C12 C6 1_555 1_555
H14 C12 1_555 1_555
H15 C12 1_555 1_555
H16 C12 1_555 1_555
C13 N3 1_555 1_555
H17 C13 1_555 1_555
C14 N1 1_555 1_555
H18 C14 1_555 1_555
C15 H19 1_555 1_555
C16 N4 1_555 1_555
H20 C16 1_555 1_555
C17 C18 1_555 1_555
C18 H21 1_555 1_555
C19 C18 1_555 1_555
H22 C19 1_555 1_555
C20 C19 1_555 1_555
C21 C20 1_555 1_555
H23 C21 1_555 1_555
C22 C17 1_555 1_555
H24 C22 1_555 1_555
C23 O5 1_555 1_555
C24 C23 1_555 1_555
H25 C24 1_555 1_555
C25 C24 1_555 1_555
H26 C25 1_555 1_555
C26 C25 1_555 1_555
C27 C26 1_555 1_555
H27 C27 1_555 1_555
C28 C23 1_555 1_555
H28 C28 1_555 1_555
C29 C20 1_555 1_555
C30 C26 1_555 1_555
Co1_2 O3 1_555 1_555
Co1B N6 1_555 1_555
O3_2 Co1 1_555 1_555
O4_2 Co1 1_555 1_555
N6B Co1 1_555 1_555
O4 Co1_2 1_555 1_555
N3 C14 1_555 1_555
N6 C16 1_555 1_555
C1 C7 1_555 1_555
C4 C10 1_555 1_555
C21 C22 1_555 1_555
C27 C28 1_555 1_555

#END
