
#######################################################################
#
#                 Cambridge Crystallographic Data Centre
#                                CCDC 
#
#######################################################################
#
# If this CIF has been generated from an entry in the Cambridge 
# Structural Database, then it will include bibliographic, chemical, 
# crystal, experimental, refinement or atomic coordinate data resulting 
# from the CCDC's data processing and validation procedures.
#
#######################################################################

data_BEQXEC
_symmetry_cell_setting           triclinic
_symmetry_space_group_name_H-M   'P -1'
_symmetry_Int_Tables_number      2
_space_group_name_Hall           '-P 1'
loop_
_symmetry_equiv_pos_site_id
_symmetry_equiv_pos_as_xyz
1 x,y,z
2 -x,-y,-z
_cell_length_a                   15.253(3)
_cell_length_b                   15.285(3)
_cell_length_c                   18.224(3)
_cell_angle_alpha                107.496(2)
_cell_angle_beta                 101.147(3)
_cell_angle_gamma                112.147(2)
_cell_volume                     3519.83
loop_
_atom_site_label
_atom_site_type_symbol
_atom_site_fract_x
_atom_site_fract_y
_atom_site_fract_z
Co1 Co 0.50687(7) 0.00685(6) 0.28868(5)
Co2 Co 0.5000 0.0000 0.5000
Co3 Co 0.5000 0.0000 0.0000
Co4 Co 0.03042(7) 0.55522(6) 0.15121(5)
Co5 Co -0.04477(6) 0.42334(6) 0.34414(5)
O1 O 0.5703(3) 0.0133(3) 0.4075(2)
O2 O 0.5910(4) -0.0721(3) 0.4814(3)
O3 O 0.6545(3) 0.0712(3) 0.2880(3)
O4 O 0.7949(4) 0.1709(3) 0.3994(3)
O5 O 0.9121(3) -0.5549(3) 0.1659(2)
O6 O 0.8428(3) -0.5760(3) 0.2602(2)
O7 O 0.9160(4) -0.4442(3) 0.0633(2)
O8 O 0.7606(4) -0.5742(4) -0.0085(3)
O9 O 0.7327(3) -0.3201(3) 0.3895(3)
O10 O 0.3587(3) -0.0550(3) 0.2897(3)
O11 O 0.2352(4) -0.1689(3) 0.1695(3)
O12 O 0.4551(3) -0.0072(3) 0.1690(3)
O13 O 0.4288(4) 0.0516(4) 0.0751(3)
O14 O 0.1398(3) 0.5448(3) 0.2293(3)
O15 O 0.0698(3) 0.5293(3) 0.3240(2)
O16 O 0.0713(3) 0.4316(3) 0.4363(2)
O17 O 0.2253(4) 0.5678(3) 0.4999(3)
O18 O 0.2510(4) 0.2779(4) 0.1127(3)
O19 O 0.3777(4) -0.1295(4) 0.4082(3)
H1 H 0.349(4) -0.129(5) 0.364(3)
H2 H 0.338(4) -0.173(4) 0.421(4)
O20 O 0.5830(6) -0.0278(6) 0.0886(4)
H3 H 0.559(4) -0.043(6) 0.124(3)
H4 H 0.597(6) -0.073(5) 0.0612(19)
O21 O 0.6146(6) 0.1511(6) 0.0452(4)
H5 H 0.640(6) 0.171(8) 0.0975(16)
H6 H 0.662(5) 0.156(7) 0.025(5)
O22 O 0.0130(4) 0.4182(3) 0.0600(2)
H7 H -0.049(2) 0.372(4) 0.033(4)
H8 H 0.024(5) 0.421(5) 0.017(3)
O23 O 0.1393(4) 0.6319(3) 0.1111(3)
H9 H 0.173(5) 0.615(6) 0.083(4)
H10 H 0.184(4) 0.695(2) 0.137(4)
O24 O -0.0275(4) 0.5655(3) 0.4286(3)
H11 H 0.032(2) 0.6093(17) 0.440(3)
H12 H -0.042(4) 0.562(2) 0.471(2)
O25 O -0.1550(4) 0.3493(3) 0.3850(3)
H13 H -0.175(5) 0.288(2) 0.381(4)
H14 H -0.164(5) 0.385(5) 0.426(3)
N1 N 0.4285(4) -0.3168(4) 0.1955(3)
N2 N 0.5104(5) -0.2843(4) 0.1709(4)
N3 N 0.4835(4) -0.1500(4) 0.2329(3)
N4 N 0.5547(5) -0.6850(4) 0.3430(4)
N5 N 0.4861(5) -0.7071(4) 0.3820(4)
N6 N 0.5216(4) -0.8393(4) 0.3369(3)
N7 N 0.0728(4) 0.8264(4) 0.3482(3)
N8 N 0.0274(4) 0.8415(4) 0.2837(3)
N9 N 0.0433(4) 0.6955(4) 0.2382(3)
N10 N -0.0881(4) 0.1519(4) 0.1510(3)
N11 N -0.0490(5) 0.1341(4) 0.2158(3)
N12 N -0.0573(4) 0.2839(4) 0.2601(3)
C1 C 0.4333(5) -0.4645(5) 0.2222(4)
C2 C 0.4661(5) -0.5303(5) 0.1763(4)
C3 C 0.5173(5) -0.5735(5) 0.2149(5)
C4 C 0.5391(5) -0.5469(5) 0.2991(5)
C5 C 0.5112(5) -0.4776(5) 0.3456(4)
C6 C 0.4559(5) -0.4396(5) 0.3064(4)
C7 C 0.3707(5) -0.4257(5) 0.1806(4)
H15 H 0.3429 -0.4683 0.1214
H16 H 0.3140 -0.4337 0.2003
C8 C 0.4475(6) -0.5554(6) 0.0867(5)
H17 H 0.5055 -0.5583 0.0740
H18 H 0.4370 -0.5021 0.0739
H19 H 0.3881 -0.6219 0.0543
C9 C 0.5467(6) -0.6497(6) 0.1646(5)
H20 H 0.4944 -0.6933 0.1110
H21 H 0.5547 -0.6926 0.1925
H22 H 0.6099 -0.6119 0.1581
C10 C 0.6072(6) -0.5825(5) 0.3409(5)
H23 H 0.6553 -0.5847 0.3127
H24 H 0.6461 -0.5306 0.3975
C11 C 0.5394(7) -0.4446(6) 0.4359(5)
H25 H 0.5542 -0.4947 0.4507
H26 H 0.4838 -0.4405 0.4524
H27 H 0.5985 -0.3772 0.4634
C12 C 0.4222(6) -0.3670(6) 0.3571(5)
H28 H 0.4003 -0.3912 0.3970
H29 H 0.3668 -0.3664 0.3211
H30 H 0.4782 -0.2975 0.3853
C13 C 0.5394(6) -0.1855(5) 0.1941(5)
H31 H 0.5947 -0.1418 0.1850
C14 C 0.4155(5) -0.2360(5) 0.2319(4)
H32 H 0.3644 -0.2392 0.2543
C15 C 0.4683(6) -0.8002(5) 0.3760(5)
H33 H 0.4226 -0.8370 0.3970
C16 C 0.5753(6) -0.7630(5) 0.3177(4)
H34 H 0.6212 -0.7648 0.2902
C17 C 0.0517(5) 0.9525(4) 0.4635(3)
C18 C 0.0639(5) 1.0481(5) 0.4619(3)
C19 C 0.0127(5) 1.0957(5) 0.4997(3)
C20 C 0.1182(5) 0.9060(5) 0.4334(4)
H35 H 0.1806 0.9625 0.4383
H36 H 0.1367 0.8753 0.4700
C21 C 0.1297(6) 1.0987(5) 0.4197(4)
H37 H 0.0942 1.1221 0.3863
H38 H 0.1455 1.0492 0.3852
H39 H 0.1916 1.1576 0.4606
C22 C 0.0253(5) 1.1998(5) 0.5023(4)
H40 H 0.0904 1.2378 0.4988
H41 H 0.0212 1.2389 0.5533
H42 H -0.0279 1.1894 0.4565
C23 C 0.0110(5) 0.7614(5) 0.2195(4)
H43 H -0.0203 0.7501 0.1654
C24 C 0.0815(5) 0.7409(4) 0.3200(4)
H44 H 0.1108 0.7154 0.3530
C25 C -0.0584(6) 0.0381(5) 0.0353(4)
C26 C -0.0546(6) -0.0508(5) 0.0401(4)
C27 C 0.0005(6) -0.0906(5) 0.0024(4)
C28 C -0.1312(6) 0.0726(5) 0.0664(4)
H45 H -0.1574 0.0995 0.0298
H46 H -0.1885 0.0116 0.0625
C29 C -0.1143(7) -0.1061(6) 0.0846(5)
H47 H -0.1710 -0.1714 0.0449
H48 H -0.1390 -0.0630 0.1157
H49 H -0.0710 -0.1192 0.1217
C30 C 0.0003(7) -0.1884(6) 0.0041(5)
H50 H 0.0491 -0.1720 0.0554
H51 H 0.0180 -0.2204 -0.0413
H52 H -0.0664 -0.2359 -0.0006
C31 C -0.0309(5) 0.2159(5) 0.2792(4)
H53 H -0.0020 0.2265 0.3336
C32 C -0.0919(5) 0.2407(5) 0.1786(4)
H54 H -0.1158 0.2690 0.1452
C33 C 0.6751(5) -0.0702(4) 0.3850(3)
C34 C 0.7330(5) -0.0100(4) 0.3503(4)
C35 C 0.7977(5) -0.0367(5) 0.3169(4)
H55 H 0.8389 0.0067 0.2971
C36 C 0.8029(5) -0.1259(5) 0.3121(4)
H56 H 0.8469 -0.1436 0.2887
C37 C 0.7425(5) -0.1902(4) 0.3422(4)
C38 C 0.6831(4) -0.1596(4) 0.3819(3)
H57 H 0.6478 -0.1993 0.4070
C39 C 0.6084(5) -0.0423(4) 0.4267(4)
C40 C 0.7265(5) 0.0855(5) 0.3468(4)
C41 C 0.8133(4) -0.4699(4) 0.1993(3)
C42 C 0.7917(5) -0.4568(4) 0.1255(3)
C43 C 0.7418(5) -0.3978(5) 0.1195(4)
H58 H 0.7212 -0.3933 0.0692
C44 C 0.7221(5) -0.3464(5) 0.1844(4)
H59 H 0.6885 -0.3071 0.1786
C45 C 0.7523(5) -0.3524(4) 0.2599(4)
C46 C 0.7939(4) -0.4177(4) 0.2650(3)
H60 H 0.8090 -0.4265 0.3139
C47 C 0.8600(5) -0.5383(4) 0.2083(3)
C48 C 0.8242(6) -0.4968(5) 0.0550(4)
C49 C 0.7414(4) -0.2905(4) 0.3349(4)
C50 C 0.2800(5) 0.0045(4) 0.2024(3)
C51 C 0.3350(5) 0.0572(5) 0.1623(3)
C52 C 0.3179(5) 0.1353(4) 0.1492(3)
H61 H 0.3537 0.1701 0.1215
C53 C 0.2490(5) 0.1630(4) 0.1760(3)
C54 C 0.1890(5) 0.1036(5) 0.2095(4)
H62 H 0.1382 0.1176 0.2238
C55 C 0.2037(5) 0.0258(5) 0.2214(4)
H63 H 0.1618 -0.0145 0.2428
C56 C 0.2926(5) -0.0807(4) 0.2210(4)
C57 C 0.4119(5) 0.0325(5) 0.1343(4)
C58 C 0.1696(5) 0.4446(4) 0.2967(3)
C59 C 0.1930(5) 0.4375(4) 0.3723(3)
C60 C 0.2422(5) 0.3807(5) 0.3836(4)
H64 H 0.2627 0.3803 0.4356
C61 C 0.2620(5) 0.3245(5) 0.3202(4)
H65 H 0.2960 0.2866 0.3291
C62 C 0.2313(4) 0.3239(4) 0.2423(4)
C63 C 0.1896(4) 0.3872(4) 0.2326(3)
H66 H 0.1743 0.3919 0.1818
C64 C 0.1215(4) 0.5100(4) 0.2822(3)
C65 C 0.1616(5) 0.4854(5) 0.4409(3)
C66 C 0.2441(5) 0.2567(5) 0.1711(4)
N7A N -0.0728(4) 1.1736(4) 0.6518(3)
N8A N -0.0274(4) 1.1585(4) 0.7163(3)
N9A N -0.0433(4) 1.3045(4) 0.7618(3)
C17A C -0.0517(5) 1.0475(4) 0.5365(3)
C18A C -0.0639(5) 0.9519(5) 0.5381(3)
C19A C -0.0127(5) 0.9043(5) 0.5003(3)
C20A C -0.1182(5) 1.0940(5) 0.5666(4)
H35A H -0.1806 1.0375 0.5617
H36A H -0.1367 1.1247 0.5300
C21A C -0.1297(6) 0.9013(5) 0.5803(4)
H37A H -0.0942 0.8779 0.6137
H38A H -0.1455 0.9508 0.6148
H39A H -0.1916 0.8424 0.5394
C22A C -0.0253(5) 0.8002(5) 0.4977(4)
H40A H -0.0904 0.7622 0.5012
H41A H -0.0212 0.7611 0.4467
H42A H 0.0279 0.8106 0.5435
C23A C -0.0110(5) 1.2386(5) 0.7805(4)
H43A H 0.0203 1.2499 0.8346
C24A C -0.0815(5) 1.2591(4) 0.6800(4)
H44A H -0.1108 1.2846 0.6470
N10A N 0.0881(4) -0.1519(4) -0.1510(3)
N11A N 0.0490(5) -0.1341(4) -0.2158(3)
N12A N 0.0573(4) -0.2839(4) -0.2601(3)
C25A C 0.0584(6) -0.0381(5) -0.0353(4)
C26A C 0.0546(6) 0.0508(5) -0.0401(4)
C27A C -0.0005(6) 0.0906(5) -0.0024(4)
C28A C 0.1312(6) -0.0726(5) -0.0664(4)
H45A H 0.1574 -0.0995 -0.0298
H46A H 0.1885 -0.0116 -0.0625
C29A C 0.1143(7) 0.1061(6) -0.0846(5)
H47A H 0.1710 0.1714 -0.0449
H48A H 0.1390 0.0630 -0.1157
H49A H 0.0710 0.1192 -0.1217
C30A C -0.0003(7) 0.1884(6) -0.0041(5)
H50A H -0.0491 0.1720 -0.0554
H51A H -0.0180 0.2204 0.0413
H52A H 0.0664 0.2359 0.0006
C31A C 0.0309(5) -0.2159(5) -0.2792(4)
H53A H 0.0020 -0.2265 -0.3336
C32A C 0.0919(5) -0.2407(5) -0.1786(4)
H54A H 0.1158 -0.2690 -0.1452
Co1A Co -0.50687(7) -0.00685(6) -0.28868(5)
Co4A Co -0.03042(7) -0.55522(6) -0.15121(5)
Co5A Co 0.04477(6) -0.42334(6) -0.34414(5)
O1A O -0.5703(3) -0.0133(3) -0.4075(2)
O2A O -0.5910(4) 0.0721(3) -0.4814(3)
O3A O -0.6545(3) -0.0712(3) -0.2880(3)
O4A O -0.7949(4) -0.1709(3) -0.3994(3)
O5A O -0.9121(3) 0.5549(3) -0.1659(2)
O6A O -0.8428(3) 0.5760(3) -0.2602(2)
O7A O -0.9160(4) 0.4442(3) -0.0633(2)
O8A O -0.7606(4) 0.5742(4) 0.0085(3)
O9A O -0.7327(3) 0.3201(3) -0.3895(3)
O10A O -0.3587(3) 0.0550(3) -0.2897(3)
O11A O -0.2352(4) 0.1689(3) -0.1695(3)
O12A O -0.4551(3) 0.0072(3) -0.1690(3)
O13A O -0.4288(4) -0.0516(4) -0.0751(3)
O14A O -0.1398(3) -0.5448(3) -0.2293(3)
O15A O -0.0698(3) -0.5293(3) -0.3240(2)
O16A O -0.0713(3) -0.4316(3) -0.4363(2)
O17A O -0.2253(4) -0.5678(3) -0.4999(3)
O18A O -0.2510(4) -0.2779(4) -0.1127(3)
O22A O -0.0130(4) -0.4182(3) -0.0600(2)
H7A H 0.049(2) -0.372(4) -0.033(4)
H8A H -0.024(5) -0.421(5) -0.017(3)
O23A O -0.1393(4) -0.6319(3) -0.1111(3)
H9A H -0.173(5) -0.615(6) -0.083(4)
H10A H -0.184(4) -0.695(2) -0.137(4)
O24A O 0.0275(4) -0.5655(3) -0.4286(3)
H11A H -0.032(2) -0.6093(17) -0.440(3)
H12A H 0.042(4) -0.562(2) -0.471(2)
O25A O 0.1550(4) -0.3493(3) -0.3850(3)
H13A H 0.175(5) -0.288(2) -0.381(4)
H14A H 0.164(5) -0.385(5) -0.426(3)
N1A N -0.4285(4) 0.3168(4) -0.1955(3)
N2A N -0.5104(5) 0.2843(4) -0.1709(4)
N3A N -0.4835(4) 0.1500(4) -0.2329(3)
N4A N -0.5547(5) 0.6850(4) -0.3430(4)
N5A N -0.4861(5) 0.7071(4) -0.3820(4)
N6A N -0.5216(4) 0.8393(4) -0.3369(3)
C1A C -0.4333(5) 0.4645(5) -0.2222(4)
C2A C -0.4661(5) 0.5303(5) -0.1763(4)
C3A C -0.5173(5) 0.5735(5) -0.2149(5)
C4A C -0.5391(5) 0.5469(5) -0.2991(5)
C5A C -0.5112(5) 0.4776(5) -0.3456(4)
C6A C -0.4559(5) 0.4396(5) -0.3064(4)
C7A C -0.3707(5) 0.4257(5) -0.1806(4)
H15A H -0.3429 0.4683 -0.1214
H16A H -0.3140 0.4337 -0.2003
C8A C -0.4475(6) 0.5554(6) -0.0867(5)
H17A H -0.5055 0.5583 -0.0740
H18A H -0.4370 0.5021 -0.0739
H19A H -0.3881 0.6219 -0.0543
C9A C -0.5467(6) 0.6497(6) -0.1646(5)
H20A H -0.4944 0.6933 -0.1110
H21A H -0.5547 0.6926 -0.1925
H22A H -0.6099 0.6119 -0.1581
C10A C -0.6072(6) 0.5825(5) -0.3409(5)
H23A H -0.6553 0.5847 -0.3127
H24A H -0.6461 0.5306 -0.3975
C11A C -0.5394(7) 0.4446(6) -0.4359(5)
H25A H -0.5542 0.4947 -0.4507
H26A H -0.4838 0.4405 -0.4524
H27A H -0.5985 0.3772 -0.4634
C12A C -0.4222(6) 0.3670(6) -0.3571(5)
H28A H -0.4003 0.3912 -0.3970
H29A H -0.3668 0.3664 -0.3211
H30A H -0.4782 0.2975 -0.3853
C13A C -0.5394(6) 0.1855(5) -0.1941(5)
H31A H -0.5947 0.1418 -0.1850
C14A C -0.4155(5) 0.2360(5) -0.2319(4)
H32A H -0.3644 0.2392 -0.2543
C15A C -0.4683(6) 0.8002(5) -0.3760(5)
H33A H -0.4226 0.8370 -0.3970
C16A C -0.5753(6) 0.7630(5) -0.3177(4)
H34A H -0.6212 0.7648 -0.2902
C33A C -0.6751(5) 0.0702(4) -0.3850(3)
C34A C -0.7330(5) 0.0100(4) -0.3503(4)
C35A C -0.7977(5) 0.0367(5) -0.3169(4)
H55A H -0.8389 -0.0067 -0.2971
C36A C -0.8029(5) 0.1259(5) -0.3121(4)
H56A H -0.8469 0.1436 -0.2887
C37A C -0.7425(5) 0.1902(4) -0.3422(4)
C38A C -0.6831(4) 0.1596(4) -0.3819(3)
H57A H -0.6478 0.1993 -0.4070
C39A C -0.6084(5) 0.0423(4) -0.4267(4)
C40A C -0.7265(5) -0.0855(5) -0.3468(4)
C41A C -0.8133(4) 0.4699(4) -0.1993(3)
C42A C -0.7917(5) 0.4568(4) -0.1255(3)
C43A C -0.7418(5) 0.3978(5) -0.1195(4)
H58A H -0.7212 0.3933 -0.0692
C44A C -0.7221(5) 0.3464(5) -0.1844(4)
H59A H -0.6885 0.3071 -0.1786
C45A C -0.7523(5) 0.3524(4) -0.2599(4)
C46A C -0.7939(4) 0.4177(4) -0.2650(3)
H60A H -0.8090 0.4265 -0.3139
C47A C -0.8600(5) 0.5383(4) -0.2083(3)
C48A C -0.8242(6) 0.4968(5) -0.0550(4)
C49A C -0.7414(4) 0.2905(4) -0.3349(4)
C50A C -0.2800(5) -0.0045(4) -0.2024(3)
C51A C -0.3350(5) -0.0572(5) -0.1623(3)
C52A C -0.3179(5) -0.1353(4) -0.1492(3)
H61A H -0.3537 -0.1701 -0.1215
C53A C -0.2490(5) -0.1630(4) -0.1760(3)
C54A C -0.1890(5) -0.1036(5) -0.2095(4)
H62A H -0.1382 -0.1176 -0.2238
C55A C -0.2037(5) -0.0258(5) -0.2214(4)
H63A H -0.1618 0.0145 -0.2428
C56A C -0.2926(5) 0.0807(4) -0.2210(4)
C57A C -0.4119(5) -0.0325(5) -0.1343(4)
C58A C -0.1696(5) -0.4446(4) -0.2967(3)
C59A C -0.1930(5) -0.4375(4) -0.3723(3)
C60A C -0.2422(5) -0.3807(5) -0.3836(4)
H64A H -0.2627 -0.3803 -0.4356
C61A C -0.2620(5) -0.3245(5) -0.3202(4)
H65A H -0.2960 -0.2866 -0.3291
C62A C -0.2313(4) -0.3239(4) -0.2423(4)
C63A C -0.1896(4) -0.3872(4) -0.2326(3)
H66A H -0.1743 -0.3919 -0.1818
C64A C -0.1215(4) -0.5100(4) -0.2822(3)
C65A C -0.1616(5) -0.4854(5) -0.4409(3)
C66A C -0.2441(5) -0.2567(5) -0.1711(4)
O19A O 0.6223(4) 0.1295(4) 0.5918(3)
H1A H 0.651(4) 0.129(5) 0.636(3)
H2A H 0.662(4) 0.173(4) 0.579(4)
O20A O 0.4170(6) 0.0278(6) -0.0886(4)
H3A H 0.441(4) 0.043(6) -0.124(3)
H4A H 0.403(6) 0.073(5) -0.0612(19)
O21A O 0.3854(6) -0.1511(6) -0.0452(4)
H5A H 0.360(6) -0.171(8) -0.0975(16)
H6A H 0.338(5) -0.156(7) -0.025(5)
Co1_2 Co 0.50687(7) -0.99315(6) 0.28868(5)
Co1A_2 Co -0.50687(7) 0.99315(6) -0.28868(5)
Co2_2 Co -0.5000 0.0000 -0.5000
Co3_2 Co -0.5000 0.0000 0.0000
Co4_2 Co 1.03042(7) -0.44478(6) 0.15121(5)
Co4A_2 Co -1.03042(7) 0.44478(6) -0.15121(5)
Co4A_3 Co -0.03042(7) 1.44478(6) 0.84879(5)
Co5_2 Co 0.95523(6) -0.57666(6) 0.34414(5)
Co5A_2 Co -0.95523(6) 0.57666(6) -0.34414(5)
O1A_2 O 0.4297(3) -0.0133(3) 0.5925(2)
O2A_2 O 0.4090(4) 0.0721(3) 0.5186(3)
O5_2 O -0.0879(3) 0.4451(3) 0.1659(2)
O5A_2 O 0.0879(3) -0.4451(3) -0.1659(2)
O6_2 O -0.1572(3) 0.4240(3) 0.2602(2)
O6A_2 O 0.1572(3) -0.4240(3) -0.2602(2)
O7_2 O -0.0840(4) 0.5558(3) 0.0633(2)
O7A_2 O 0.0840(4) -0.5558(3) -0.0633(2)
O13A_2 O 0.5712(4) -0.0516(4) -0.0751(3)
N6_2 N 0.5216(4) 0.1607(4) 0.3369(3)
N6A_2 N -0.5216(4) -0.1607(4) -0.3369(3)
N9A_2 N -0.0433(4) -0.6955(4) -0.2382(3)
O26 O 0.2550(5) -0.2538(4) 0.4628(3)
H67 H 0.252(7) -0.223(5) 0.509(3)
H68 H 0.267(7) -0.304(4) 0.462(4)
O27 O 0.7825(7) 0.2376(5) -0.0018(3)
H69 H 0.749(5) 0.266(6) -0.019(5)
H70 H 0.792(7) 0.200(7) -0.042(4)
O28 O 0.6996(5) 0.2100(5) 0.2026(4)
H71 H 0.696(5) 0.163(4) 0.220(4)
H72 H 0.749(6) 0.269(3) 0.238(4)
O29 O 0.5696(15) 0.2919(15) -0.0059(10)
loop_
_geom_bond_atom_site_label_1
_geom_bond_atom_site_label_2
_geom_bond_site_symmetry_1
_geom_bond_site_symmetry_2
Co1 O1 1_555 1_555
Co2 O1 1_555 1_555
Co3 O13 1_555 1_555
Co4 O14 1_555 1_555
Co5 O15 1_555 1_555
O1 C39 1_555 1_555
O2 Co2 1_555 1_555
O3 Co1 1_555 1_555
O4 C40 1_555 1_555
O5 C47 1_555 1_555
O6 C47 1_555 1_555
O7 C48 1_555 1_555
O8 C48 1_555 1_555
O9 C49 1_555 1_555
O10 Co1 1_555 1_555
O11 C56 1_555 1_555
O12 Co1 1_555 1_555
O13 C57 1_555 1_555
O14 C64 1_555 1_555
O15 C64 1_555 1_555
O16 Co5 1_555 1_555
O17 C65 1_555 1_555
O18 C66 1_555 1_555
O19 Co2 1_555 1_555
H1 O19 1_555 1_555
H2 O19 1_555 1_555
O20 Co3 1_555 1_555
H3 O20 1_555 1_555
H4 O20 1_555 1_555
O21 Co3 1_555 1_555
H5 O21 1_555 1_555
H6 O21 1_555 1_555
O22 Co4 1_555 1_555
H7 O22 1_555 1_555
H8 O22 1_555 1_555
O23 Co4 1_555 1_555
H9 O23 1_555 1_555
H10 O23 1_555 1_555
O24 Co5 1_555 1_555
H11 O24 1_555 1_555
H12 O24 1_555 1_555
O25 Co5 1_555 1_555
H13 O25 1_555 1_555
H14 O25 1_555 1_555
N1 N2 1_555 1_555
N2 C13 1_555 1_555
N3 Co1 1_555 1_555
N4 N5 1_555 1_555
N5 C15 1_555 1_555
N6 C15 1_555 1_555
N7 N8 1_555 1_555
N8 C23 1_555 1_555
N9 Co4 1_555 1_555
N10 N11 1_555 1_555
N11 C31 1_555 1_555
N12 Co5 1_555 1_555
C1 C2 1_555 1_555
C2 C3 1_555 1_555
C3 C4 1_555 1_555
C4 C5 1_555 1_555
C5 C6 1_555 1_555
C6 C1 1_555 1_555
C7 N1 1_555 1_555
H15 C7 1_555 1_555
H16 C7 1_555 1_555
C8 C2 1_555 1_555
H17 C8 1_555 1_555
H18 C8 1_555 1_555
H19 C8 1_555 1_555
C9 C3 1_555 1_555
H20 C9 1_555 1_555
H21 C9 1_555 1_555
H22 C9 1_555 1_555
C10 N4 1_555 1_555
H23 C10 1_555 1_555
H24 C10 1_555 1_555
C11 C5 1_555 1_555
H25 C11 1_555 1_555
H26 C11 1_555 1_555
H27 C11 1_555 1_555
C12 C6 1_555 1_555
H28 C12 1_555 1_555
H29 C12 1_555 1_555
H30 C12 1_555 1_555
C13 N3 1_555 1_555
H31 C13 1_555 1_555
C14 N1 1_555 1_555
H32 C14 1_555 1_555
C15 H33 1_555 1_555
C16 N4 1_555 1_555
H34 C16 1_555 1_555
C17 C18 1_555 1_555
C18 C19 1_555 1_555
C19 C22 1_555 1_555
C20 N7 1_555 1_555
H35 C20 1_555 1_555
H36 C20 1_555 1_555
C21 C18 1_555 1_555
H37 C21 1_555 1_555
H38 C21 1_555 1_555
H39 C21 1_555 1_555
C22 H40 1_555 1_555
H41 C22 1_555 1_555
H42 C22 1_555 1_555
C23 N9 1_555 1_555
H43 C23 1_555 1_555
C24 N7 1_555 1_555
H44 C24 1_555 1_555
C25 C26 1_555 1_555
C26 C27 1_555 1_555
C27 C30 1_555 1_555
C28 N10 1_555 1_555
H45 C28 1_555 1_555
H46 C28 1_555 1_555
C29 C26 1_555 1_555
H47 C29 1_555 1_555
H48 C29 1_555 1_555
H49 C29 1_555 1_555
C30 H50 1_555 1_555
H51 C30 1_555 1_555
H52 C30 1_555 1_555
C31 N12 1_555 1_555
H53 C31 1_555 1_555
C32 N10 1_555 1_555
H54 C32 1_555 1_555
C33 C34 1_555 1_555
C34 C35 1_555 1_555
C35 H55 1_555 1_555
C36 C35 1_555 1_555
H56 C36 1_555 1_555
C37 C36 1_555 1_555
C38 C33 1_555 1_555
H57 C38 1_555 1_555
C39 O2 1_555 1_555
C40 O3 1_555 1_555
C41 C42 1_555 1_555
C42 C43 1_555 1_555
C43 H58 1_555 1_555
C44 C43 1_555 1_555
H59 C44 1_555 1_555
C45 C44 1_555 1_555
C46 C41 1_555 1_555
H60 C46 1_555 1_555
C47 C41 1_555 1_555
C48 C42 1_555 1_555
C49 C37 1_555 1_555
C50 C51 1_555 1_555
C51 C52 1_555 1_555
C52 H61 1_555 1_555
C53 C52 1_555 1_555
C54 C53 1_555 1_555
H62 C54 1_555 1_555
C55 C50 1_555 1_555
H63 C55 1_555 1_555
C56 O10 1_555 1_555
C57 O12 1_555 1_555
C58 C59 1_555 1_555
C59 C60 1_555 1_555
C60 H64 1_555 1_555
C61 C60 1_555 1_555
H65 C61 1_555 1_555
C62 C61 1_555 1_555
C63 C58 1_555 1_555
H66 C63 1_555 1_555
C64 C58 1_555 1_555
C65 O16 1_555 1_555
C66 C53 1_555 1_555
O26 H67 1_555 1_555
H68 O26 1_555 1_555
O27 H69 1_555 1_555
H70 O27 1_555 1_555
O28 H71 1_555 1_555
H72 O28 1_555 1_555
N7A N8A 1_555 1_555
N8A C23A 1_555 1_555
N9A C23A 1_555 1_555
C17A C19 1_555 1_555
C18A C17A 1_555 1_555
C19A C17 1_555 1_555
C20A N7A 1_555 1_555
H35A C20A 1_555 1_555
H36A C20A 1_555 1_555
C21A C18A 1_555 1_555
H37A C21A 1_555 1_555
H38A C21A 1_555 1_555
H39A C21A 1_555 1_555
C22A C19A 1_555 1_555
H40A C22A 1_555 1_555
H41A C22A 1_555 1_555
H42A C22A 1_555 1_555
C23A H43A 1_555 1_555
C24A N7A 1_555 1_555
H44A C24A 1_555 1_555
N10A N11A 1_555 1_555
N11A C31A 1_555 1_555
N12A C31A 1_555 1_555
C25A C27 1_555 1_555
C26A C25A 1_555 1_555
C27A C25 1_555 1_555
C28A N10A 1_555 1_555
H45A C28A 1_555 1_555
H46A C28A 1_555 1_555
C29A C26A 1_555 1_555
H47A C29A 1_555 1_555
H48A C29A 1_555 1_555
H49A C29A 1_555 1_555
C30A C27A 1_555 1_555
H50A C30A 1_555 1_555
H51A C30A 1_555 1_555
H52A C30A 1_555 1_555
C31A H53A 1_555 1_555
C32A N10A 1_555 1_555
H54A C32A 1_555 1_555
Co1A O1A 1_555 1_555
Co4A O14A 1_555 1_555
Co5A N12A 1_555 1_555
O1A C39A 1_555 1_555
O2A C39A 1_555 1_555
O3A Co1A 1_555 1_555
O4A C40A 1_555 1_555
O5A C47A 1_555 1_555
O6A C47A 1_555 1_555
O7A C48A 1_555 1_555
O8A C48A 1_555 1_555
O9A C49A 1_555 1_555
O10A Co1A 1_555 1_555
O11A C56A 1_555 1_555
O12A Co1A 1_555 1_555
O13A C57A 1_555 1_555
O14A C64A 1_555 1_555
O15A Co5A 1_555 1_555
O16A Co5A 1_555 1_555
O17A C65A 1_555 1_555
O18A C66A 1_555 1_555
O22A Co4A 1_555 1_555
H7A O22A 1_555 1_555
H8A O22A 1_555 1_555
O23A Co4A 1_555 1_555
H9A O23A 1_555 1_555
H10A O23A 1_555 1_555
O24A Co5A 1_555 1_555
H11A O24A 1_555 1_555
H12A O24A 1_555 1_555
O25A Co5A 1_555 1_555
H13A O25A 1_555 1_555
H14A O25A 1_555 1_555
N1A N2A 1_555 1_555
N2A C13A 1_555 1_555
N3A Co1A 1_555 1_555
N4A N5A 1_555 1_555
N5A C15A 1_555 1_555
N6A C15A 1_555 1_555
C1A C2A 1_555 1_555
C2A C3A 1_555 1_555
C3A C4A 1_555 1_555
C4A C5A 1_555 1_555
C5A C6A 1_555 1_555
C6A C1A 1_555 1_555
C7A N1A 1_555 1_555
H15A C7A 1_555 1_555
H16A C7A 1_555 1_555
C8A C2A 1_555 1_555
H17A C8A 1_555 1_555
H18A C8A 1_555 1_555
H19A C8A 1_555 1_555
C9A C3A 1_555 1_555
H20A C9A 1_555 1_555
H21A C9A 1_555 1_555
H22A C9A 1_555 1_555
C10A N4A 1_555 1_555
H23A C10A 1_555 1_555
H24A C10A 1_555 1_555
C11A C5A 1_555 1_555
H25A C11A 1_555 1_555
H26A C11A 1_555 1_555
H27A C11A 1_555 1_555
C12A C6A 1_555 1_555
H28A C12A 1_555 1_555
H29A C12A 1_555 1_555
H30A C12A 1_555 1_555
C13A N3A 1_555 1_555
H31A C13A 1_555 1_555
C14A N1A 1_555 1_555
H32A C14A 1_555 1_555
C15A H33A 1_555 1_555
C16A N4A 1_555 1_555
H34A C16A 1_555 1_555
C33A C34A 1_555 1_555
C34A C35A 1_555 1_555
C35A H55A 1_555 1_555
C36A C35A 1_555 1_555
H56A C36A 1_555 1_555
C37A C36A 1_555 1_555
C38A C33A 1_555 1_555
H57A C38A 1_555 1_555
C39A C33A 1_555 1_555
C40A O3A 1_555 1_555
C41A C42A 1_555 1_555
C42A C43A 1_555 1_555
C43A H58A 1_555 1_555
C44A C43A 1_555 1_555
H59A C44A 1_555 1_555
C45A C44A 1_555 1_555
C46A C41A 1_555 1_555
H60A C46A 1_555 1_555
C47A C41A 1_555 1_555
C48A C42A 1_555 1_555
C49A C37A 1_555 1_555
C50A C51A 1_555 1_555
C51A C52A 1_555 1_555
C52A H61A 1_555 1_555
C53A C52A 1_555 1_555
C54A C53A 1_555 1_555
H62A C54A 1_555 1_555
C55A C50A 1_555 1_555
H63A C55A 1_555 1_555
C56A O10A 1_555 1_555
C57A O12A 1_555 1_555
C58A C59A 1_555 1_555
C59A C60A 1_555 1_555
C60A H64A 1_555 1_555
C61A C60A 1_555 1_555
H65A C61A 1_555 1_555
C62A C61A 1_555 1_555
C63A C58A 1_555 1_555
H66A C63A 1_555 1_555
C64A O15A 1_555 1_555
C65A O16A 1_555 1_555
C66A C53A 1_555 1_555
O19A Co2 1_555 1_555
H1A O19A 1_555 1_555
H2A O19A 1_555 1_555
O20A Co3 1_555 1_555
H3A O20A 1_555 1_555
H4A O20A 1_555 1_555
O21A Co3 1_555 1_555
H5A O21A 1_555 1_555
H6A O21A 1_555 1_555
Co1_2 N6 1_555 1_555
Co1A_2 N6A 1_555 1_555
Co2_2 O1A 1_555 1_555
Co3_2 O13A 1_555 1_555
Co4_2 O5 1_555 1_555
Co4A_2 O5A 1_555 1_555
Co4A_3 N9A 1_555 1_555
Co5_2 O6 1_555 1_555
Co5A_2 O6A 1_555 1_555
O1A_2 Co2 1_555 1_555
O2A_2 Co2 1_555 1_555
O5_2 Co4 1_555 1_555
O5A_2 Co4A 1_555 1_555
O6_2 Co5 1_555 1_555
O6A_2 Co5A 1_555 1_555
O7_2 Co4 1_555 1_555
O7A_2 Co4A 1_555 1_555
O13A_2 Co3 1_555 1_555
N6_2 Co1 1_555 1_555
N6A_2 Co1A 1_555 1_555
N9A_2 Co4A 1_555 1_555
O7 Co4_2 1_555 1_555
N3 C14 1_555 1_555
N6 C16 1_555 1_555
N9 C24 1_555 1_555
N12 C32 1_555 1_555
C1 C7 1_555 1_555
C4 C10 1_555 1_555
C17 C20 1_555 1_555
C25 C28 1_555 1_555
C33 C39 1_555 1_555
C34 C40 1_555 1_555
C37 C38 1_555 1_555
C45 C46 1_555 1_555
C45 C49 1_555 1_555
C50 C56 1_555 1_555
C51 C57 1_555 1_555
C54 C55 1_555 1_555
C59 C65 1_555 1_555
C62 C63 1_555 1_555
C62 C66 1_555 1_555
N9A C24A 1_555 1_555
C17A C20A 1_555 1_555
C18A C19A 1_555 1_555
N12A C32A 1_555 1_555
C25A C28A 1_555 1_555
C26A C27A 1_555 1_555
O2A Co2_2 1_555 1_555
O7A Co4A_2 1_555 1_555
N3A C14A 1_555 1_555
N6A C16A 1_555 1_555
C1A C7A 1_555 1_555
C4A C10A 1_555 1_555
C34A C40A 1_555 1_555
C37A C38A 1_555 1_555
C45A C46A 1_555 1_555
C45A C49A 1_555 1_555
C50A C56A 1_555 1_555
C51A C57A 1_555 1_555
C54A C55A 1_555 1_555
C58A C64A 1_555 1_555
C59A C65A 1_555 1_555
C62A C63A 1_555 1_555
C62A C66A 1_555 1_555

#END
