
#######################################################################
#
#                 Cambridge Crystallographic Data Centre
#                                CCDC 
#
#######################################################################
#
# If this CIF has been generated from an entry in the Cambridge 
# Structural Database, then it will include bibliographic, chemical, 
# crystal, experimental, refinement or atomic coordinate data resulting 
# from the CCDC's data processing and validation procedures.
#
#######################################################################

data_BEQYAZ
_symmetry_cell_setting           triclinic
_symmetry_space_group_name_H-M   'P -1'
_symmetry_Int_Tables_number      2
_space_group_name_Hall           '-P 1'
loop_
_symmetry_equiv_pos_site_id
_symmetry_equiv_pos_as_xyz
1 x,y,z
2 -x,-y,-z
_cell_length_a                   9.278(3)
_cell_length_b                   10.106(3)
_cell_length_c                   12.136(3)
_cell_angle_alpha                92.828(4)
_cell_angle_beta                 103.413(5)
_cell_angle_gamma                111.715(6)
_cell_volume                     1016.76
loop_
_atom_site_label
_atom_site_type_symbol
_atom_site_fract_x
_atom_site_fract_y
_atom_site_fract_z
Mn1 Mn 0.30509(9) 0.13873(7) 0.09861(7)
O1 O 0.1335(4) 0.2264(3) 0.1343(3)
O2 O 0.3414(4) 0.3919(3) 0.0975(3)
O3 O 0.3365(4) 0.8988(3) 0.0829(3)
O4 O 0.1395(4) 0.9365(3) 0.1317(3)
O5 O -0.2279(4) 0.4602(3) 0.2033(3)
H1 H -0.2652 0.5234 0.1985
O6 O 0.5337(4) 0.2169(4) 0.0535(3)
H2 H 0.576(5) 0.182(5) 0.009(4)
H3 H 0.613(4) 0.294(4) 0.098(4)
O7 O 0.1824(4) 0.0951(4) -0.0819(3)
H4 H 0.199(5) 0.027(4) -0.121(4)
H5 H 0.077(2) 0.066(5) -0.096(4)
N1 N 0.5880(5) 0.2345(5) 0.4598(4)
N2 N 0.4386(6) 0.1524(5) 0.4705(4)
N3 N 0.4287(5) 0.1742(4) 0.2850(4)
C1 C 0.8696(7) 0.4018(6) 0.5284(5)
C2 C 0.8823(7) 0.5451(7) 0.5241(5)
C3 C 1.0163(7) 0.6448(6) 0.4969(5)
C4 C 0.7281(7) 0.2956(7) 0.5612(5)
H6 H 0.7563 0.2181 0.5925
H7 H 0.7012 0.3442 0.6205
C5 C 0.7526(8) 0.5893(8) 0.5458(6)
H8 H 0.6575 0.5040 0.5426
H9 H 0.7262 0.6455 0.4878
H10 H 0.7903 0.6468 0.6209
C6 C 1.0328(9) 0.7996(7) 0.4984(7)
H11 H 1.1447 0.8618 0.5076
H12 H 0.9973 0.8272 0.5617
H13 H 0.9671 0.8092 0.4269
C7 C 0.3473(7) 0.1192(6) 0.3633(5)
H14 H 0.2361 0.0626 0.3430
C8 C 0.5771(7) 0.2439(6) 0.3494(5)
H15 H 0.6649 0.2942 0.3209
C9 C 0.1353(6) 0.4612(5) 0.1386(4)
C10 C 0.2084(5) 0.6047(4) 0.1222(4)
H16 H 0.3071 0.6363 0.1031
C11 C 0.1357(5) 0.6999(4) 0.1341(4)
C12 C -0.0081(5) 0.6544(4) 0.1649(4)
H17 H -0.0561 0.7196 0.1755
C13 C -0.0811(5) 0.5106(5) 0.1799(4)
C14 C -0.0090(6) 0.4159(5) 0.1682(4)
H18 H -0.0577 0.3201 0.1803
C15 C 0.2070(6) 0.3540(5) 0.1224(4)
C16 C 0.2090(6) 0.8531(5) 0.1145(4)
N1A N 1.4120(5) 0.7655(5) 0.5402(4)
N2A N 1.5614(6) 0.8476(5) 0.5295(4)
N3A N 1.5713(5) 0.8258(4) 0.7150(4)
C1A C 1.1304(7) 0.5982(6) 0.4716(5)
C2A C 1.1177(7) 0.4549(7) 0.4759(5)
C3A C 0.9837(7) 0.3552(6) 0.5031(5)
C4A C 1.2719(7) 0.7044(7) 0.4388(5)
H6A H 1.2437 0.7819 0.4075
H7A H 1.2988 0.6558 0.3795
C5A C 1.2474(8) 0.4107(8) 0.4542(6)
H8A H 1.3425 0.4960 0.4574
H9A H 1.2738 0.3545 0.5122
H10A H 1.2097 0.3532 0.3791
C6A C 0.9672(9) 0.2004(7) 0.5016(7)
H11A H 0.8553 0.1382 0.4924
H12A H 1.0027 0.1728 0.4383
H13A H 1.0329 0.1908 0.5731
C7A C 1.6527(7) 0.8808(6) 0.6367(5)
H14A H 1.7639 0.9374 0.6570
C8A C 1.4229(7) 0.7561(6) 0.6506(5)
H15A H 1.3351 0.7058 0.6791
Mn1A Mn 1.69491(9) 0.86127(7) 0.90139(7)
O1A O 1.8665(4) 0.7736(3) 0.8657(3)
O2A O 1.6586(4) 0.6081(3) 0.9025(3)
O3A O 1.6635(4) 0.1012(3) 0.9171(3)
O4A O 1.8605(4) 0.0635(3) 0.8683(3)
O5A O 2.2279(4) 0.5398(3) 0.7967(3)
H1A H 2.2652 0.4766 0.8015
O6A O 1.4663(4) 0.7831(4) 0.9465(3)
H2A H 1.424(5) 0.818(5) 0.991(4)
H3A H 1.387(4) 0.706(4) 0.902(4)
O7A O 1.8176(4) 0.9049(4) 1.0819(3)
H4A H 1.801(5) 0.973(4) 1.121(4)
H5A H 1.923(2) 0.934(5) 1.096(4)
C9A C 1.8647(6) 0.5388(5) 0.8614(4)
C10A C 1.7916(5) 0.3953(4) 0.8778(4)
H16A H 1.6929 0.3637 0.8969
C11A C 1.8643(5) 0.3001(4) 0.8659(4)
C12A C 2.0081(5) 0.3456(4) 0.8351(4)
H17A H 2.0561 0.2804 0.8245
C13A C 2.0811(5) 0.4894(5) 0.8201(4)
C14A C 2.0090(6) 0.5841(5) 0.8318(4)
H18A H 2.0577 0.6799 0.8197
C15A C 1.7930(6) 0.6460(5) 0.8776(4)
C16A C 1.7910(6) 0.1469(5) 0.8855(4)
Mn1_2 Mn 0.30509(9) 1.13873(7) 0.09861(7)
Mn1A_2 Mn 1.69491(9) -0.13873(7) 0.90139(7)
O4_2 O 0.1395(4) -0.0635(3) 0.1317(3)
O4A_2 O 1.8605(4) 1.0635(3) 0.8683(3)
O8 O 0.6117(5) 0.6285(4) 0.1627(4)
H19 H 0.633(6) 0.654(6) 0.096(3)
H20 H 0.506(3) 0.564(5) 0.135(4)
O9 O 0.2785(6) -0.0687(5) -0.2060(4)
H21 H 0.369(5) -0.076(7) -0.159(4)
H22 H 0.338(6) 0.008(5) -0.242(5)
O10 O 0.3195(9) 0.1423(6) -0.3330(5)
loop_
_geom_bond_atom_site_label_1
_geom_bond_atom_site_label_2
_geom_bond_site_symmetry_1
_geom_bond_site_symmetry_2
Mn1 O1 1_555 1_555
O1 C15 1_555 1_555
O2 Mn1 1_555 1_555
O3 C16 1_555 1_555
O4 C16 1_555 1_555
O5 H1 1_555 1_555
O6 Mn1 1_555 1_555
H2 O6 1_555 1_555
H3 O6 1_555 1_555
O7 Mn1 1_555 1_555
H4 O7 1_555 1_555
H5 O7 1_555 1_555
N1 N2 1_555 1_555
N2 C7 1_555 1_555
N3 Mn1 1_555 1_555
C1 C2 1_555 1_555
C2 C3 1_555 1_555
C3 C6 1_555 1_555
C4 N1 1_555 1_555
H6 C4 1_555 1_555
H7 C4 1_555 1_555
C5 C2 1_555 1_555
H8 C5 1_555 1_555
H9 C5 1_555 1_555
H10 C5 1_555 1_555
C6 H11 1_555 1_555
H12 C6 1_555 1_555
H13 C6 1_555 1_555
C7 N3 1_555 1_555
H14 C7 1_555 1_555
C8 N1 1_555 1_555
H15 C8 1_555 1_555
C9 C10 1_555 1_555
C10 H16 1_555 1_555
C11 C10 1_555 1_555
C12 C11 1_555 1_555
H17 C12 1_555 1_555
C13 O5 1_555 1_555
C14 C9 1_555 1_555
H18 C14 1_555 1_555
C15 O2 1_555 1_555
C16 C11 1_555 1_555
O8 H19 1_555 1_555
H20 O8 1_555 1_555
O9 H21 1_555 1_555
H22 O9 1_555 1_555
N1A N2A 1_555 1_555
N2A C7A 1_555 1_555
N3A C7A 1_555 1_555
C1A C3 1_555 1_555
C2A C1A 1_555 1_555
C3A C1 1_555 1_555
C4A N1A 1_555 1_555
H6A C4A 1_555 1_555
H7A C4A 1_555 1_555
C5A C2A 1_555 1_555
H8A C5A 1_555 1_555
H9A C5A 1_555 1_555
H10A C5A 1_555 1_555
C6A C3A 1_555 1_555
H11A C6A 1_555 1_555
H12A C6A 1_555 1_555
H13A C6A 1_555 1_555
C7A H14A 1_555 1_555
C8A N1A 1_555 1_555
H15A C8A 1_555 1_555
Mn1A N3A 1_555 1_555
O1A Mn1A 1_555 1_555
O2A Mn1A 1_555 1_555
O3A C16A 1_555 1_555
O4A C16A 1_555 1_555
O5A H1A 1_555 1_555
O6A Mn1A 1_555 1_555
H2A O6A 1_555 1_555
H3A O6A 1_555 1_555
O7A Mn1A 1_555 1_555
H4A O7A 1_555 1_555
H5A O7A 1_555 1_555
C9A C10A 1_555 1_555
C10A H16A 1_555 1_555
C11A C10A 1_555 1_555
C12A C11A 1_555 1_555
H17A C12A 1_555 1_555
C13A O5A 1_555 1_555
C14A C9A 1_555 1_555
H18A C14A 1_555 1_555
C15A O1A 1_555 1_555
C16A C11A 1_555 1_555
Mn1_2 O4 1_555 1_555
Mn1A_2 O4A 1_555 1_555
O4_2 Mn1 1_555 1_555
O4A_2 Mn1A 1_555 1_555
N3 C8 1_555 1_555
C1 C4 1_555 1_555
C9 C15 1_555 1_555
C12 C13 1_555 1_555
C13 C14 1_555 1_555
N3A C8A 1_555 1_555
C1A C4A 1_555 1_555
C2A C3A 1_555 1_555
O2A C15A 1_555 1_555
C9A C15A 1_555 1_555
C12A C13A 1_555 1_555
C13A C14A 1_555 1_555

#END
