
#######################################################################
#
#                 Cambridge Crystallographic Data Centre
#                                CCDC 
#
#######################################################################
#
# If this CIF has been generated from an entry in the Cambridge 
# Structural Database, then it will include bibliographic, chemical, 
# crystal, experimental, refinement or atomic coordinate data resulting 
# from the CCDC's data processing and validation procedures.
#
#######################################################################

data_BERFUB
_symmetry_cell_setting           monoclinic
_symmetry_space_group_name_H-M   'P 21/c'
_symmetry_Int_Tables_number      14
_space_group_name_Hall           '-P 2ybc'
loop_
_symmetry_equiv_pos_site_id
_symmetry_equiv_pos_as_xyz
1 x,y,z
2 -x,1/2+y,1/2-z
3 -x,-y,-z
4 x,1/2-y,1/2+z
_cell_length_a                   10.203(6)
_cell_length_b                   10.005(6)
_cell_length_c                   18.287(10)
_cell_angle_alpha                90
_cell_angle_beta                 90.560(8)
_cell_angle_gamma                90
_cell_volume                     1866.67
loop_
_atom_site_label
_atom_site_type_symbol
_atom_site_fract_x
_atom_site_fract_y
_atom_site_fract_z
C1 C 0.8837(6) -0.1397(7) 0.1991(4)
H1 H 0.8496 -0.2007 0.1656
C2 C 0.6141(6) 0.3719(6) 0.3241(4)
C3 C 0.4769(6) 0.2470(6) 0.2658(4)
H2 H 0.4012 0.2163 0.2426
C4 C 0.6453(6) 0.2178(7) 0.0957(4)
C5 C 0.5924(8) 0.2985(8) 0.0309(5)
H3 H 0.6196 0.3909 0.0361
H4 H 0.6297 0.2641 -0.0139
C6 C 0.4433(7) 0.2923(7) 0.0255(4)
C7 C 0.3625(8) 0.3851(8) 0.0609(4)
H5 H 0.4009 0.4571 0.0851
C8 C 0.2266(8) 0.3725(9) 0.0607(5)
H6 H 0.1762 0.4370 0.0838
C9 C 0.1653(7) 0.2655(8) 0.0268(4)
C10 C 0.2440(7) 0.1723(7) -0.0087(4)
H7 H 0.2046 0.0997 -0.0318
C11 C 0.3805(8) 0.1850(7) -0.0104(4)
H8 H 0.4301 0.1222 -0.0354
C12 C 0.0174(8) 0.2442(11) 0.0311(4)
H9 H 0.0010 0.1652 0.0604
H10 H -0.0208 0.3198 0.0564
C13 C -0.0519(7) 0.2278(8) -0.0418(4)
C14 C 1.0140(6) -0.0424(6) 0.2744(4)
N1 N 0.6777(5) 0.2573(5) 0.3094(3)
N2 N 0.5861(5) 0.1761(5) 0.2719(3)
N3 N 0.9029(5) 0.0300(5) 0.2722(3)
N4 N 0.8181(5) -0.0345(5) 0.2229(3)
N5 N 1.0060(5) -0.1497(5) 0.2286(3)
N6 N 0.4878(5) 0.3704(5) 0.2975(3)
N7 N 0.6676(6) 0.4780(6) 0.3590(4)
H11 H 0.7480 0.4752 0.3736
H12 H 0.6213 0.5484 0.3667
N8 N 1.1200(6) -0.0106(6) 0.3168(4)
H13 H 1.1182 0.0592 0.3442
H14 H 1.1887 -0.0603 0.3162
O1 O 0.5904(4) 0.1023(5) 0.1057(3)
O2 O 0.7336(5) 0.2602(6) 0.1358(3)
O3 O -0.0360(5) 0.3233(5) -0.0892(3)
O4 O -0.1195(7) 0.1301(7) -0.0550(4)
Zn1 Zn 0.63782(7) 0.02753(7) 0.20143(4)
Zn2 Zn 0.86883(7) 0.21402(7) 0.31655(4)
N5A N 0.9940(5) 0.3503(5) 0.2714(3)
N6A N 0.5122(5) -0.1296(5) 0.2025(3)
O3C O 0.9640(5) 0.1767(5) 0.4108(3)
Zn1A Zn 0.36218(7) 0.52753(7) 0.29857(4)
Zn2A Zn 1.13117(7) -0.28598(7) 0.18345(4)
Zn2C Zn -0.13117(7) 0.28598(7) -0.18345(4)
loop_
_geom_bond_atom_site_label_1
_geom_bond_atom_site_label_2
_geom_bond_site_symmetry_1
_geom_bond_site_symmetry_2
C1 H1 1_555 1_555
C2 N1 1_555 1_555
C3 H2 1_555 1_555
C4 C5 1_555 1_555
C5 H3 1_555 1_555
H4 C5 1_555 1_555
C6 C5 1_555 1_555
C7 C6 1_555 1_555
H5 C7 1_555 1_555
C8 C7 1_555 1_555
H6 C8 1_555 1_555
C9 C8 1_555 1_555
C10 C9 1_555 1_555
H7 C10 1_555 1_555
C11 C6 1_555 1_555
H8 C11 1_555 1_555
C12 C9 1_555 1_555
H9 C12 1_555 1_555
H10 C12 1_555 1_555
C13 C12 1_555 1_555
C14 N3 1_555 1_555
N1 N2 1_555 1_555
N2 C3 1_555 1_555
N3 N4 1_555 1_555
N4 C1 1_555 1_555
N5 C1 1_555 1_555
N6 C2 1_555 1_555
N7 C2 1_555 1_555
H11 N7 1_555 1_555
H12 N7 1_555 1_555
N8 C14 1_555 1_555
H13 N8 1_555 1_555
H14 N8 1_555 1_555
O1 C4 1_555 1_555
O2 C4 1_555 1_555
O3 C13 1_555 1_555
O4 C13 1_555 1_555
Zn1 N2 1_555 1_555
Zn2 N1 1_555 1_555
N5A Zn2 1_555 1_555
N6A Zn1 1_555 1_555
O3C Zn2 1_555 1_555
Zn1A N6 1_555 1_555
Zn2A N5 1_555 1_555
Zn2C O3 1_555 1_555
C3 N6 1_555 1_555
C10 C11 1_555 1_555
C14 N5 1_555 1_555
N3 Zn2 1_555 1_555
N4 Zn1 1_555 1_555
O1 Zn1 1_555 1_555

#END
