
#######################################################################
#
#                 Cambridge Crystallographic Data Centre
#                                CCDC 
#
#######################################################################
#
# If this CIF has been generated from an entry in the Cambridge 
# Structural Database, then it will include bibliographic, chemical, 
# crystal, experimental, refinement or atomic coordinate data resulting 
# from the CCDC's data processing and validation procedures.
#
#######################################################################

data_BERGAI01
_symmetry_cell_setting           tetragonal
_symmetry_space_group_name_H-M   'P 4/n n c'
_symmetry_Int_Tables_number      126
_space_group_name_Hall           '-P 4a 2bc'
loop_
_symmetry_equiv_pos_site_id
_symmetry_equiv_pos_as_xyz
1 x,y,z
2 1/2-x,1/2-y,z
3 1/2-y,x,z
4 y,1/2-x,z
5 1/2-x,y,1/2-z
6 x,1/2-y,1/2-z
7 y,x,1/2-z
8 1/2-y,1/2-x,1/2-z
9 -x,-y,-z
10 1/2+x,1/2+y,-z
11 1/2+y,-x,-z
12 -y,1/2+x,-z
13 1/2+x,-y,1/2+z
14 -x,1/2+y,1/2+z
15 -y,-x,1/2+z
16 1/2+y,1/2+x,1/2+z
_cell_length_a                   12.6724(4)
_cell_length_b                   12.6724(4)
_cell_length_c                   25.2868(16)
_cell_angle_alpha                90
_cell_angle_beta                 90
_cell_angle_gamma                90
_cell_volume                     4060.8
loop_
_atom_site_label
_atom_site_type_symbol
_atom_site_fract_x
_atom_site_fract_y
_atom_site_fract_z
C1 C -0.1077(3) 0.0707(3) 0.33891(13)
C2 C -0.1818(3) 0.0725(3) 0.29283(12)
C3 C -0.1431(3) 0.0739(4) 0.24227(14)
H1 H -0.0706 0.0752 0.2366
C4 C -0.2889(3) 0.0734(4) 0.30028(13)
H2 H -0.3160 0.0736 0.3345
C5 C 0.2307(2) -0.0402(2) 0.49868(10)
H3 H 0.2699 -0.0601 0.5281
C6 C 0.1894(2) 0.0043(2) 0.42108(10)
N1 N 0.10060(18) 0.00113(19) 0.44871(8)
N2 N 0.12891(18) -0.02708(18) 0.49977(8)
N3 N 0.27391(18) -0.0222(2) 0.45103(9)
N4 N 0.1954(2) 0.0312(3) 0.36992(10)
H4 H 0.1392 0.0479 0.3528
H5 H 0.2556 0.0317 0.3542
O1 O -0.1474(2) 0.0515(2) 0.38390(9)
O2 O -0.01259(19) 0.08842(19) 0.33259(10)
Zn1 Zn -0.03850(2) 0.06949(3) 0.437520(11)
C1D C -0.3923(3) 0.0707(3) 0.16109(13)
C2D C -0.3182(3) 0.0725(3) 0.20717(12)
C3D C -0.3569(3) 0.0739(4) 0.25773(14)
H1D H -0.4294 0.0752 0.2634
C4D C -0.2111(3) 0.0734(4) 0.19972(13)
H2D H -0.1840 0.0736 0.1655
O1D O -0.3526(2) 0.0515(2) 0.11610(9)
O2D O -0.48741(19) 0.08842(19) 0.16741(10)
C5B C 0.5402(2) 0.2307(2) 0.49868(10)
H3B H 0.5601 0.2699 0.5281
C6B C 0.4957(2) 0.1894(2) 0.42108(10)
N1B N 0.49887(19) 0.10060(18) 0.44871(8)
N2B N 0.52708(18) 0.12891(18) 0.49977(8)
N3B N 0.5222(2) 0.27391(18) 0.45103(9)
N4B N 0.4688(3) 0.1954(2) 0.36992(10)
H4B H 0.4521 0.1392 0.3528
H5B H 0.4683 0.2556 0.3542
Zn1B Zn 0.43051(3) -0.03850(2) 0.437520(11)
N2H N -0.12891(18) 0.02708(18) 0.50023(8)
N2J N 0.47292(18) -0.12891(18) 0.50023(8)
N3C N -0.0222(2) 0.22609(18) 0.45103(9)
O1B O 0.4485(2) -0.1474(2) 0.38390(9)
Zn1A Zn 0.53850(2) 0.43051(3) 0.437520(11)
Zn1D Zn -0.46150(2) 0.06949(3) 0.062480(11)
Zn1H Zn 0.03850(2) -0.06949(3) 0.562480(11)
Zn1J Zn 0.56949(3) 0.03850(2) 0.562480(11)
loop_
_geom_bond_atom_site_label_1
_geom_bond_atom_site_label_2
_geom_bond_site_symmetry_1
_geom_bond_site_symmetry_2
C1 C2 1_555 1_555
C2 C3 1_555 1_555
C3 H1 1_555 1_555
C4 C2 1_555 1_555
H2 C4 1_555 1_555
C5 H3 1_555 1_555
C6 N1 1_555 1_555
N1 N2 1_555 1_555
N2 C5 1_555 1_555
N3 C5 1_555 1_555
N4 C6 1_555 1_555
H4 N4 1_555 1_555
H5 N4 1_555 1_555
O1 C1 1_555 1_555
O2 C1 1_555 1_555
Zn1 N1 1_555 1_555
C1D C2D 1_555 1_555
C2D C3D 1_555 1_555
C3D C4 1_555 1_555
H1D C3D 1_555 1_555
C4D C3 1_555 1_555
H2D C4D 1_555 1_555
O1D C1D 1_555 1_555
O2D C1D 1_555 1_555
C5B H3B 1_555 1_555
C6B N1B 1_555 1_555
N1B N2B 1_555 1_555
N2B C5B 1_555 1_555
N3B C5B 1_555 1_555
N4B C6B 1_555 1_555
H4B N4B 1_555 1_555
H5B N4B 1_555 1_555
Zn1B N3 1_555 1_555
N2H Zn1 1_555 1_555
N2J Zn1B 1_555 1_555
N3C Zn1 1_555 1_555
O1B Zn1B 1_555 1_555
Zn1A N3B 1_555 1_555
Zn1D O1D 1_555 1_555
Zn1H N2 1_555 1_555
Zn1J N2B 1_555 1_555
C6 N3 1_555 1_555
O1 Zn1 1_555 1_555
C2D C4D 1_555 1_555
C6B N3B 1_555 1_555
N1B Zn1B 1_555 1_555

#END
