
#######################################################################
#
#                 Cambridge Crystallographic Data Centre
#                                CCDC 
#
#######################################################################
#
# If this CIF has been generated from an entry in the Cambridge 
# Structural Database, then it will include bibliographic, chemical, 
# crystal, experimental, refinement or atomic coordinate data resulting 
# from the CCDC's data processing and validation procedures.
#
#######################################################################

data_BERGEM
_symmetry_cell_setting           orthorhombic
_symmetry_space_group_name_H-M   'P b c a'
_symmetry_Int_Tables_number      61
_space_group_name_Hall           '-P 2ac 2ab'
loop_
_symmetry_equiv_pos_site_id
_symmetry_equiv_pos_as_xyz
1 x,y,z
2 1/2-x,-y,1/2+z
3 1/2+x,1/2-y,-z
4 -x,1/2+y,1/2-z
5 -x,-y,-z
6 1/2+x,y,1/2-z
7 1/2-x,1/2+y,z
8 x,1/2-y,1/2+z
_cell_length_a                   9.639(4)
_cell_length_b                   10.219(5)
_cell_length_c                   21.866(10)
_cell_angle_alpha                90
_cell_angle_beta                 90
_cell_angle_gamma                90
_cell_volume                     2153.82
loop_
_atom_site_label
_atom_site_type_symbol
_atom_site_fract_x
_atom_site_fract_y
_atom_site_fract_z
Zn1 Zn 0.41623(11) 0.12020(9) 0.44508(5)
O1 O 0.3696(11) 0.0859(10) 0.3565(4)
N1 N 0.2831(8) 0.2625(7) 0.4728(4)
N2 N 0.3650(11) 0.4461(10) 0.4153(6)
H1 H 0.3551 0.5271 0.4056
H2 H 0.4349 0.4025 0.4017
C1 C 0.2715(10) 0.3876(10) 0.4518(5)
C2 C 0.4255(13) 0.1729(12) 0.2602(6)
C3 C 0.3408(18) 0.0942(19) 0.2293(7)
H3 H 0.2852 0.0359 0.2508
C4 C 0.508(2) 0.257(2) 0.2289(8)
H4 H 0.5688 0.3120 0.2498
C5 C 0.501(3) 0.261(3) 0.1663(11)
H5 H 0.5565 0.3204 0.1452
C6 C 0.417(3) 0.182(3) 0.1349(9)
H6 H 0.4152 0.1853 0.0924
C7 C 0.333(2) 0.096(3) 0.1655(9)
H7 H 0.2724 0.0413 0.1446
C8 C 0.1756(10) 0.2501(9) 0.5110(5)
H8 H 0.1575 0.1751 0.5337
N3 N 0.1612(7) 0.4474(7) 0.4747(4)
N4 N 0.0983(7) 0.3561(6) 0.5129(3)
C9 C 0.4354(15) 0.1687(13) 0.3283(7)
O2 O 0.5116(11) 0.2477(13) 0.3562(5)
Zn1B Zn -0.08377(11) 0.37980(9) 0.55492(5)
Zn1F Zn 0.08377(11) 0.62020(9) 0.44508(5)
N3F N 0.3388(7) -0.0526(7) 0.4747(4)
N4B N 0.5983(7) 0.1439(6) 0.4871(3)
loop_
_geom_bond_atom_site_label_1
_geom_bond_atom_site_label_2
_geom_bond_site_symmetry_1
_geom_bond_site_symmetry_2
Zn1 O1 1_555 1_555
O1 C9 1_555 1_555
N1 Zn1 1_555 1_555
N2 H1 1_555 1_555
H2 N2 1_555 1_555
C1 N1 1_555 1_555
C2 C3 1_555 1_555
C3 H3 1_555 1_555
C4 C2 1_555 1_555
H4 C4 1_555 1_555
C5 C4 1_555 1_555
H5 C5 1_555 1_555
C6 C5 1_555 1_555
H6 C6 1_555 1_555
C7 C3 1_555 1_555
H7 C7 1_555 1_555
C8 N1 1_555 1_555
H8 C8 1_555 1_555
N3 C1 1_555 1_555
N4 C8 1_555 1_555
C9 C2 1_555 1_555
O2 C9 1_555 1_555
Zn1B N4 1_555 1_555
Zn1F N3 1_555 1_555
N3F Zn1 1_555 1_555
N4B Zn1 1_555 1_555
N2 C1 1_555 1_555
C6 C7 1_555 1_555
N3 N4 1_555 1_555

#END
