
#######################################################################
#
#                 Cambridge Crystallographic Data Centre
#                                CCDC 
#
#######################################################################
#
# If this CIF has been generated from an entry in the Cambridge 
# Structural Database, then it will include bibliographic, chemical, 
# crystal, experimental, refinement or atomic coordinate data resulting 
# from the CCDC's data processing and validation procedures.
#
#######################################################################

data_BERHOV
_symmetry_cell_setting           monoclinic
_symmetry_space_group_name_H-M   'P 21/c'
_symmetry_Int_Tables_number      14
_space_group_name_Hall           '-P 2ybc'
loop_
_symmetry_equiv_pos_site_id
_symmetry_equiv_pos_as_xyz
1 x,y,z
2 -x,1/2+y,1/2-z
3 -x,-y,-z
4 x,1/2-y,1/2+z
_cell_length_a                   10.232(1)
_cell_length_b                   13.373(3)
_cell_length_c                   10.025(1)
_cell_angle_alpha                90
_cell_angle_beta                 109.04(1)
_cell_angle_gamma                90
_cell_volume                     1296.7
loop_
_atom_site_label
_atom_site_type_symbol
_atom_site_fract_x
_atom_site_fract_y
_atom_site_fract_z
H1 H 0.2168 0.4161 -0.0009
H2 H 0.1130 0.4780 0.1699
H3 H 0.1738 0.4454 0.3302
H4 H 0.0794 0.3706 0.2168
H5 H 0.3415 0.5193 0.1847
H6 H 0.4601 0.4376 0.2265
H7 H 0.3989 0.4792 0.3418
H8 H 0.1740 0.1813 0.1600
H9 H -0.0144 0.0779 0.0719
H10 H -0.3130 0.1281 -0.2160
H11 H -0.2517 0.0544 -0.0870
H12 H -0.2103 0.0418 -0.2252
H13 H -0.1684 0.2626 -0.2560
H14 H 0.0186 0.3675 -0.1663
H15 H 0.3962 0.1690 0.1266
H16 H 0.6122 0.1583 0.0645
H17 H 0.6353 0.3160 -0.0603
H18 H 0.4327 0.4248 -0.0751
Li1 Li 0.3783(5) 0.2759(3) 0.3465(4)
C1 C 0.2406(2) 0.3538(2) 0.0553(2)
N1 N 0.2728(2) 0.3819(1) 0.2079(2)
C2 C 0.1492(3) 0.4224(2) 0.2334(3)
C3 C 0.3771(3) 0.4612(2) 0.2432(3)
C4 C 0.1181(2) 0.2851(2) 0.0052(2)
C5 C 0.1048(3) 0.1983(2) 0.0751(2)
C6 C -0.0080(3) 0.1364(2) 0.0223(2)
C7 C -0.1124(2) 0.1586(2) -0.1028(3)
C8 C -0.2324(3) 0.0897(3) -0.1630(3)
C9 C -0.0992(3) 0.2455(2) -0.1711(3)
C10 C 0.0134(3) 0.3082(2) -0.1179(3)
C11 C 0.3669(2) 0.3103(2) 0.0317(2)
C12 C 0.4297(2) 0.2183(2) 0.0793(2)
C13 C 0.5500(2) 0.2123(2) 0.0446(2)
C14 C 0.5630(3) 0.3004(2) -0.0252(3)
C15 C 0.4502(2) 0.3611(2) -0.0334(2)
C11C C 0.3669(2) 0.1897(2) 0.5317(2)
C12C C 0.4297(2) 0.2817(2) 0.5793(2)
C13C C 0.5500(2) 0.2877(2) 0.5446(2)
C14C C 0.5630(3) 0.1996(2) 0.4748(3)
C15C C 0.4502(2) 0.1389(2) 0.4666(2)
Li1C Li 0.3783(5) 0.2241(3) -0.1535(4)
H15C H 0.3962 0.3310 0.6266
H16C H 0.6122 0.3417 0.5645
H17C H 0.6353 0.1840 0.4397
H18C H 0.4327 0.0752 0.4249
loop_
_geom_bond_atom_site_label_1
_geom_bond_atom_site_label_2
_geom_bond_site_symmetry_1
_geom_bond_site_symmetry_2
H1 C1 1_555 1_555
H2 C2 1_555 1_555
H3 C2 1_555 1_555
H4 C2 1_555 1_555
H5 C3 1_555 1_555
H6 C3 1_555 1_555
H7 C3 1_555 1_555
H8 C5 1_555 1_555
H9 C6 1_555 1_555
H10 C8 1_555 1_555
H11 C8 1_555 1_555
H12 C8 1_555 1_555
H13 C9 1_555 1_555
H14 C10 1_555 1_555
H15 C12 1_555 1_555
H16 C13 1_555 1_555
H17 C14 1_555 1_555
H18 C15 1_555 1_555
Li1 N1 1_555 1_555
C1 N1 1_555 1_555
N1 C2 1_555 1_555
C3 N1 1_555 1_555
C4 C1 1_555 1_555
C5 C4 1_555 1_555
C6 C5 1_555 1_555
C7 C6 1_555 1_555
C8 C7 1_555 1_555
C9 C7 1_555 1_555
C10 C4 1_555 1_555
C11 C1 1_555 1_555
C12 C11 1_555 1_555
C13 C12 1_555 1_555
C14 C13 1_555 1_555
C15 C11 1_555 1_555
C11C Li1 1_555 1_555
C12C Li1 1_555 1_555
C13C Li1 1_555 1_555
C14C Li1 1_555 1_555
C15C Li1 1_555 1_555
Li1C C11 1_555 1_555
H15C C12C 1_555 1_555
H16C C13C 1_555 1_555
H17C C14C 1_555 1_555
H18C C15C 1_555 1_555
C9 C10 1_555 1_555
C12 Li1C 1_555 1_555
C13 Li1C 1_555 1_555
C14 C15 1_555 1_555
C14 Li1C 1_555 1_555
C15 Li1C 1_555 1_555
C11C C12C 1_555 1_555
C11C C15C 1_555 1_555
C12C C13C 1_555 1_555
C13C C14C 1_555 1_555
C14C C15C 1_555 1_555

#END
