
#######################################################################
#
#                 Cambridge Crystallographic Data Centre
#                                CCDC 
#
#######################################################################
#
# If this CIF has been generated from an entry in the Cambridge 
# Structural Database, then it will include bibliographic, chemical, 
# crystal, experimental, refinement or atomic coordinate data resulting 
# from the CCDC's data processing and validation procedures.
#
#######################################################################

data_BERJAK
_symmetry_cell_setting           monoclinic
_symmetry_space_group_name_H-M   'P 21'
_symmetry_Int_Tables_number      4
_space_group_name_Hall           'P 2yb'
loop_
_symmetry_equiv_pos_site_id
_symmetry_equiv_pos_as_xyz
1 x,y,z
2 -x,1/2+y,-z
_cell_length_a                   9.2267(11)
_cell_length_b                   5.0765(6)
_cell_length_c                   9.7435(11)
_cell_angle_alpha                90.00
_cell_angle_beta                 103.304(2)
_cell_angle_gamma                90.00
_cell_volume                     444.131
loop_
_atom_site_label
_atom_site_type_symbol
_atom_site_fract_x
_atom_site_fract_y
_atom_site_fract_z
Na1 Na 0.01559(7) -0.47869(14) 0.38470(7)
O1 O -0.01609(14) -0.4177(3) 0.13931(13)
O2 O -0.19884(14) -0.2018(2) 0.35749(12)
O3 O -0.16552(13) 0.2235(2) 0.41440(12)
O4 O -0.35340(13) 0.3930(2) 0.18379(12)
O5 O -0.15124(14) 0.0801(3) 0.06839(13)
O6 O -0.50920(14) 0.1048(3) 0.44325(12)
O7 O -0.82509(14) 0.1715(3) 0.36041(14)
C1 C -0.22719(17) 0.0389(3) 0.33708(16)
C2 C -0.34625(17) 0.1147(3) 0.20229(15)
C3 C -0.29991(17) 0.0020(3) 0.07330(16)
C4 C -0.50048(17) 0.0015(3) 0.20312(16)
C5 C -0.58377(17) 0.1460(3) 0.29832(16)
C6 C -0.74203(18) 0.0408(4) 0.27502(18)
H1 H -0.033(3) -0.251(7) 0.135(3)
H2 H 0.046(3) -0.438(6) 0.092(3)
H3 H -0.302(3) 0.460(6) 0.253(3)
H4 H -0.140(3) 0.235(7) 0.087(3)
H5 H -0.501(4) 0.234(7) 0.476(4)
H6 H -0.789(3) 0.133(7) 0.442(3)
H7 H -0.298(2) -0.180(4) 0.083(2)
H8 H -0.367(2) 0.063(5) -0.006(2)
H9 H -0.487(3) -0.190(5) 0.231(2)
H10 H -0.563(3) 0.001(5) 0.109(2)
H11 H -0.586(2) 0.330(4) 0.280(2)
H12 H -0.732(3) -0.146(6) 0.292(2)
H13 H -0.794(3) 0.070(5) 0.178(2)
O3_2 O -0.16552(13) -0.7765(2) 0.41440(12)
Na1_2 Na 0.01559(7) 0.52131(14) 0.38470(7)
Na1A Na -0.01559(7) 0.02131(14) 0.61530(7)
Na1_3 Na -0.98441(7) 0.52131(14) 0.38470(7)
O3A O 0.16552(13) -0.2765(2) 0.58560(12)
O7_2 O 0.17491(14) -0.8285(3) 0.36041(14)
H6_2 H 0.211(3) -0.867(7) 0.442(3)
loop_
_geom_bond_atom_site_label_1
_geom_bond_atom_site_label_2
_geom_bond_site_symmetry_1
_geom_bond_site_symmetry_2
Na1 O1 1_555 1_555
O1 H1 1_555 1_555
O2 Na1 1_555 1_555
O3 C1 1_555 1_555
O4 C2 1_555 1_555
O5 C3 1_555 1_555
O6 C5 1_555 1_555
O7 C6 1_555 1_555
C1 O2 1_555 1_555
C2 C1 1_555 1_555
C3 C2 1_555 1_555
C4 C2 1_555 1_555
C5 C4 1_555 1_555
C6 C5 1_555 1_555
H2 O1 1_555 1_555
H3 O4 1_555 1_555
H4 O5 1_555 1_555
H5 O6 1_555 1_555
H6 O7 1_555 1_555
H7 C3 1_555 1_555
H8 C3 1_555 1_555
H9 C4 1_555 1_555
H10 C4 1_555 1_555
H11 C5 1_555 1_555
H12 C6 1_555 1_555
H13 C6 1_555 1_555
O3_2 Na1 1_555 1_555
Na1_2 O3 1_555 1_555
Na1A O3 1_555 1_555
Na1_3 O7 1_555 1_555
O3A Na1 1_555 1_555
O7_2 Na1 1_555 1_555
H6_2 O7_2 1_555 1_555
Na1A O3A 1_555 1_555

#END
