
#######################################################################
#
#                 Cambridge Crystallographic Data Centre
#                                CCDC 
#
#######################################################################
#
# If this CIF has been generated from an entry in the Cambridge 
# Structural Database, then it will include bibliographic, chemical, 
# crystal, experimental, refinement or atomic coordinate data resulting 
# from the CCDC's data processing and validation procedures.
#
#######################################################################

data_BERKUG
_symmetry_cell_setting           monoclinic
_symmetry_space_group_name_H-M   'C 2/c'
_symmetry_Int_Tables_number      15
_space_group_name_Hall           '-C 2yn'
loop_
_symmetry_equiv_pos_site_id
_symmetry_equiv_pos_as_xyz
1 x,y,z
2 -x,y,1/2-z
3 1/2+x,1/2+y,z
4 1/2-x,1/2+y,1/2-z
5 -x,-y,-z
6 x,-y,1/2+z
7 1/2-x,1/2-y,-z
8 1/2+x,1/2-y,1/2+z
_cell_length_a                   22.996(5)
_cell_length_b                   19.443(4)
_cell_length_c                   13.889(3)
_cell_angle_alpha                90
_cell_angle_beta                 124.06(3)
_cell_angle_gamma                90
_cell_volume                     5144.62
loop_
_atom_site_label
_atom_site_type_symbol
_atom_site_fract_x
_atom_site_fract_y
_atom_site_fract_z
Cd1 Cd 0.5000 0.43002(2) 0.2500
O1 O 0.3765(2) 0.22647(16) 0.3384(3)
O2 O 0.43993(17) 0.45678(15) 0.3362(3)
N1 N 0.3099(2) 0.14757(18) 0.1910(3)
N2 N 0.2883(2) 0.1351(2) 0.0758(3)
N3 N 0.41748(19) 0.34366(17) 0.2181(3)
N4 N 0.40012(19) 0.34732(18) 0.2998(3)
H1 H 0.3810 0.3135 0.3121
N5 N 0.4263(2) 0.48157(17) 0.6125(3)
C1 C 0.2935(3) 0.0986(3) 0.2489(5)
C2 C 0.2940(4) 0.1173(3) 0.3449(6)
H2 H 0.3044 0.1623 0.3720
C3 C 0.2789(5) 0.0682(3) 0.4014(7)
H3 H 0.2798 0.0807 0.4669
C4 C 0.2626(4) 0.0021(3) 0.3615(6)
H4 H 0.2533 -0.0306 0.3999
C5 C 0.2604(4) -0.0148(3) 0.2650(6)
H5 H 0.2484 -0.0595 0.2366
C6 C 0.2757(3) 0.0326(3) 0.2068(5)
H6 H 0.2739 0.0198 0.1406
C7 C 0.3505(3) 0.2053(2) 0.2351(4)
C8 C 0.3565(2) 0.2310(2) 0.1441(4)
C9 C 0.3159(3) 0.1848(2) 0.0494(4)
C10 C 0.2974(3) 0.1863(3) -0.0729(4)
H7 H 0.3359 0.1683 -0.0741
H8 H 0.2883 0.2328 -0.1008
H9 H 0.2564 0.1588 -0.1219
C11 C 0.3945(2) 0.2904(2) 0.1470(3)
C12 C 0.4116(2) 0.2980(2) 0.0579(4)
C13 C 0.3846(3) 0.3525(2) -0.0177(4)
H10 H 0.3575 0.3854 -0.0113
C14 C 0.3975(3) 0.3588(3) -0.1042(4)
H11 H 0.3786 0.3954 -0.1563
C15 C 0.4387(3) 0.3102(4) -0.1118(5)
H12 H 0.4473 0.3141 -0.1695
C16 C 0.4668(3) 0.2566(4) -0.0359(5)
H13 H 0.4954 0.2249 -0.0405
C17 C 0.4525(3) 0.2492(3) 0.0497(4)
H14 H 0.4703 0.2119 0.1003
C18 C 0.4150(2) 0.4063(2) 0.3570(4)
C19 C 0.4040(2) 0.4110(2) 0.4528(4)
C20 C 0.3727(3) 0.3617(3) 0.4812(4)
H15 H 0.3553 0.3212 0.4387
C21 C 0.3682(4) 0.3746(3) 0.5753(5)
H16 H 0.3470 0.3427 0.5962
C22 C 0.3949(3) 0.4341(2) 0.6367(5)
H17 H 0.3908 0.4418 0.6988
C23 C 0.4286(2) 0.4701(2) 0.5191(4)
H18 H 0.4479 0.5041 0.4979
O1A O 0.6235(2) 0.22647(16) 0.1616(3)
O2A O 0.56007(17) 0.45678(15) 0.1638(3)
N1A N 0.6901(2) 0.14757(18) 0.3090(3)
N2A N 0.7117(2) 0.1351(2) 0.4242(3)
N3A N 0.58252(19) 0.34366(17) 0.2819(3)
N4A N 0.59988(19) 0.34732(18) 0.2002(3)
H1A H 0.6190 0.3135 0.1879
N5A N 0.5737(2) 0.48157(17) -0.1125(3)
C1A C 0.7065(3) 0.0986(3) 0.2511(5)
C2A C 0.7060(4) 0.1173(3) 0.1551(6)
H2A H 0.6956 0.1623 0.1280
C3A C 0.7211(5) 0.0682(3) 0.0986(7)
H3A H 0.7202 0.0807 0.0331
C4A C 0.7374(4) 0.0021(3) 0.1385(6)
H4A H 0.7467 -0.0306 0.1001
C5A C 0.7396(4) -0.0148(3) 0.2350(6)
H5A H 0.7516 -0.0595 0.2634
C6A C 0.7243(3) 0.0326(3) 0.2932(5)
H6A H 0.7261 0.0198 0.3594
C7A C 0.6495(3) 0.2053(2) 0.2649(4)
C8A C 0.6435(2) 0.2310(2) 0.3559(4)
C9A C 0.6841(3) 0.1848(2) 0.4506(4)
C10A C 0.7026(3) 0.1863(3) 0.5729(4)
H7A H 0.6641 0.1683 0.5741
H8A H 0.7117 0.2328 0.6008
H9A H 0.7436 0.1588 0.6219
C11A C 0.6055(2) 0.2904(2) 0.3530(3)
C12A C 0.5884(2) 0.2980(2) 0.4421(4)
C13A C 0.6154(3) 0.3525(2) 0.5177(4)
H10A H 0.6425 0.3854 0.5113
C14A C 0.6025(3) 0.3588(3) 0.6042(4)
H11A H 0.6214 0.3954 0.6563
C15A C 0.5613(3) 0.3102(4) 0.6118(5)
H12A H 0.5527 0.3141 0.6695
C16A C 0.5332(3) 0.2566(4) 0.5359(5)
H13A H 0.5046 0.2249 0.5405
C17A C 0.5475(3) 0.2492(3) 0.4503(4)
H14A H 0.5297 0.2119 0.3997
C18A C 0.5850(2) 0.4063(2) 0.1430(4)
C19A C 0.5960(2) 0.4110(2) 0.0472(4)
C20A C 0.6273(3) 0.3617(3) 0.0188(4)
H15A H 0.6447 0.3212 0.0613
C21A C 0.6318(4) 0.3746(3) -0.0753(5)
H16A H 0.6530 0.3427 -0.0962
C22A C 0.6051(3) 0.4341(2) -0.1367(5)
H17A H 0.6092 0.4418 -0.1988
C23A C 0.5714(2) 0.4701(2) -0.0191(4)
H18A H 0.5521 0.5041 0.0021
Cd1D Cd 0.5000 0.56998(2) -0.2500
Cd1D_2 Cd 0.5000 0.56998(2) 0.7500
N5D N 0.5737(2) 0.51843(17) 0.3875(3)
N5E N 0.4263(2) 0.51843(17) 0.1125(3)
loop_
_geom_bond_atom_site_label_1
_geom_bond_atom_site_label_2
_geom_bond_site_symmetry_1
_geom_bond_site_symmetry_2
Cd1 O2 1_555 1_555
O1 C7 1_555 1_555
O2 C18 1_555 1_555
N1 N2 1_555 1_555
N2 C9 1_555 1_555
N3 Cd1 1_555 1_555
N4 N3 1_555 1_555
H1 N4 1_555 1_555
N5 C22 1_555 1_555
C1 N1 1_555 1_555
C2 C1 1_555 1_555
H2 C2 1_555 1_555
C3 C2 1_555 1_555
H3 C3 1_555 1_555
C4 C3 1_555 1_555
H4 C4 1_555 1_555
C5 C4 1_555 1_555
H5 C5 1_555 1_555
C6 C1 1_555 1_555
H6 C6 1_555 1_555
C7 N1 1_555 1_555
C8 C7 1_555 1_555
C9 C8 1_555 1_555
C10 C9 1_555 1_555
H7 C10 1_555 1_555
H8 C10 1_555 1_555
H9 C10 1_555 1_555
C11 N3 1_555 1_555
C12 C11 1_555 1_555
C13 C12 1_555 1_555
H10 C13 1_555 1_555
C14 C13 1_555 1_555
H11 C14 1_555 1_555
C15 C14 1_555 1_555
H12 C15 1_555 1_555
C16 C15 1_555 1_555
H13 C16 1_555 1_555
C17 C12 1_555 1_555
H14 C17 1_555 1_555
C18 N4 1_555 1_555
C19 C18 1_555 1_555
C20 C19 1_555 1_555
H15 C20 1_555 1_555
C21 C20 1_555 1_555
H16 C21 1_555 1_555
C22 C21 1_555 1_555
H17 C22 1_555 1_555
C23 N5 1_555 1_555
H18 C23 1_555 1_555
O1A C7A 1_555 1_555
O2A Cd1 1_555 1_555
N1A N2A 1_555 1_555
N2A C9A 1_555 1_555
N3A Cd1 1_555 1_555
N4A N3A 1_555 1_555
H1A N4A 1_555 1_555
N5A C22A 1_555 1_555
C1A N1A 1_555 1_555
C2A C1A 1_555 1_555
H2A C2A 1_555 1_555
C3A C2A 1_555 1_555
H3A C3A 1_555 1_555
C4A C3A 1_555 1_555
H4A C4A 1_555 1_555
C5A C4A 1_555 1_555
H5A C5A 1_555 1_555
C6A C1A 1_555 1_555
H6A C6A 1_555 1_555
C7A N1A 1_555 1_555
C8A C7A 1_555 1_555
C9A C8A 1_555 1_555
C10A C9A 1_555 1_555
H7A C10A 1_555 1_555
H8A C10A 1_555 1_555
H9A C10A 1_555 1_555
C11A N3A 1_555 1_555
C12A C11A 1_555 1_555
C13A C12A 1_555 1_555
H10A C13A 1_555 1_555
C14A C13A 1_555 1_555
H11A C14A 1_555 1_555
C15A C14A 1_555 1_555
H12A C15A 1_555 1_555
C16A C15A 1_555 1_555
H13A C16A 1_555 1_555
C17A C12A 1_555 1_555
H14A C17A 1_555 1_555
C18A O2A 1_555 1_555
C19A C18A 1_555 1_555
C20A C19A 1_555 1_555
H15A C20A 1_555 1_555
C21A C20A 1_555 1_555
H16A C21A 1_555 1_555
C22A C21A 1_555 1_555
H17A C22A 1_555 1_555
C23A N5A 1_555 1_555
H18A C23A 1_555 1_555
Cd1D N5A 1_555 1_555
Cd1D_2 N5 1_555 1_555
N5D Cd1 1_555 1_555
N5E Cd1 1_555 1_555
C5 C6 1_555 1_555
C8 C11 1_555 1_555
C16 C17 1_555 1_555
C19 C23 1_555 1_555
N4A C18A 1_555 1_555
C5A C6A 1_555 1_555
C8A C11A 1_555 1_555
C16A C17A 1_555 1_555
C19A C23A 1_555 1_555

#END
