
#######################################################################
#
#                 Cambridge Crystallographic Data Centre
#                                CCDC 
#
#######################################################################
#
# If this CIF has been generated from an entry in the Cambridge 
# Structural Database, then it will include bibliographic, chemical, 
# crystal, experimental, refinement or atomic coordinate data resulting 
# from the CCDC's data processing and validation procedures.
#
#######################################################################

data_BERLER
_symmetry_cell_setting           monoclinic
_symmetry_space_group_name_H-M   'P 21/c'
_symmetry_Int_Tables_number      14
_space_group_name_Hall           '-P 2ybc'
loop_
_symmetry_equiv_pos_site_id
_symmetry_equiv_pos_as_xyz
1 x,y,z
2 -x,1/2+y,1/2-z
3 -x,-y,-z
4 x,1/2-y,1/2+z
_cell_length_a                   10.284(2)
_cell_length_b                   12.043(2)
_cell_length_c                   23.178(5)
_cell_angle_alpha                90
_cell_angle_beta                 93.45(3)
_cell_angle_gamma                90
_cell_volume                     2865.4
loop_
_atom_site_label
_atom_site_type_symbol
_atom_site_fract_x
_atom_site_fract_y
_atom_site_fract_z
Zn1 Zn 0.51190(2) 0.34719(2) 0.837389(10)
C1 C 0.5544(2) 0.71191(18) 0.93542(9)
C2 C 0.4722(3) 0.7250(2) 0.88650(11)
H1 H 0.4445 0.6633 0.8650
C3 C 0.4312(3) 0.8304(2) 0.86943(13)
H2 H 0.3764 0.8388 0.8363
C4 C 0.4706(3) 0.9226(2) 0.90086(14)
H3 H 0.4408 0.9928 0.8899
C5 C 0.5540(3) 0.9092(2) 0.94828(13)
H4 H 0.5832 0.9714 0.9690
C6 C 0.5962(2) 0.8053(2) 0.96632(11)
H5 H 0.6525 0.7979 0.9990
C7 C 0.6027(2) 0.50829(17) 0.92263(9)
C8 C 0.6818(2) 0.43356(17) 0.95635(9)
C9 C 0.7168(2) 0.49299(19) 1.00837(9)
C10 C 0.7931(3) 0.4574(2) 1.06202(10)
H6 H 0.8839 0.4543 1.0548
H7 H 0.7642 0.3854 1.0735
H8 H 0.7802 0.5098 1.0924
C11 C 0.7195(2) 0.32478(17) 0.93901(9)
C12 C 0.8199(2) 0.26179(18) 0.97411(9)
C13 C 0.9481(2) 0.2951(3) 0.97639(13)
H9 H 0.9726 0.3572 0.9558
C14 C 1.0393(3) 0.2364(4) 1.00912(19)
H10 H 1.1259 0.2590 1.0109
C15 C 1.0043(4) 0.1449(4) 1.03914(18)
H11 H 1.0676 0.1050 1.0607
C16 C 0.8771(4) 0.1111(3) 1.03794(13)
H12 H 0.8537 0.0492 1.0589
C17 C 0.7836(3) 0.1700(2) 1.00528(10)
H13 H 0.6968 0.1480 1.0043
C18 C 0.6315(2) 0.13725(17) 0.82805(9)
C19 C 0.6667(2) 0.02722(17) 0.80519(8)
C20 C 0.7498(2) -0.04810(19) 0.83353(10)
H14 H 0.7965 -0.0284 0.8676
C21 C 0.7622(2) -0.1522(2) 0.81061(11)
H15 H 0.8173 -0.2040 0.8291
C22 C 0.6930(2) -0.1797(2) 0.76020(10)
H16 H 0.7030 -0.2502 0.7447
C23 C 0.5991(2) -0.00724(17) 0.75503(8)
H17 H 0.5421 0.0425 0.7360
C24 C 0.7706(3) 0.4434(3) 0.79310(15)
H18 H 0.7641 0.4807 0.8280
C25 C 0.9861(4) 0.5221(4) 0.7910(2)
H19 H 0.9609 0.5614 0.8246
H20 H 1.0114 0.5743 0.7625
H21 H 1.0581 0.4740 0.8015
C26 C 0.8984(5) 0.3897(6) 0.7161(2)
H22 H 0.8618 0.3171 0.7206
H23 H 0.9902 0.3832 0.7114
H24 H 0.8571 0.4250 0.6827
N1 N 0.60019(18) 0.60536(15) 0.95337(7)
N2 N 0.66942(19) 0.59431(16) 1.00659(7)
N3 N 0.66429(18) 0.28373(14) 0.89163(7)
N4 N 0.70639(18) 0.18175(14) 0.87156(7)
H25 H 0.7755 0.1495 0.8860
N5 N 0.61147(17) -0.10809(15) 0.73262(7)
N6 N 0.8772(2) 0.4566(3) 0.76757(12)
O1 O 0.54282(15) 0.49741(12) 0.87308(6)
O2 O 0.53056(15) 0.18329(13) 0.80840(7)
O3 O 0.67664(19) 0.38697(19) 0.77626(8)
O4 O 0.36336(19) 0.29957(18) 0.88845(8)
H26 H 0.3660 0.3375 0.9179
H27 H 0.299(3) 0.259(2) 0.8789(12)
Zn1A Zn 0.48810(2) -0.15281(2) 0.662611(10)
N5A N 0.38853(17) 0.39191(15) 0.76738(7)
N7 N 0.0597(3) 0.1707(3) 0.86112(14)
O5 O 0.1736(2) 0.1414(2) 0.87120(18)
O6 O -0.02879(19) 0.1055(2) 0.87266(13)
O7 O 0.0351(4) 0.2623(3) 0.84387(16)
loop_
_geom_bond_atom_site_label_1
_geom_bond_atom_site_label_2
_geom_bond_site_symmetry_1
_geom_bond_site_symmetry_2
Zn1 N3 1_555 1_555
C1 C2 1_555 1_555
C2 H1 1_555 1_555
C3 C2 1_555 1_555
H2 C3 1_555 1_555
C4 C3 1_555 1_555
H3 C4 1_555 1_555
C5 C4 1_555 1_555
H4 C5 1_555 1_555
C6 C1 1_555 1_555
H5 C6 1_555 1_555
C7 C8 1_555 1_555
C8 C9 1_555 1_555
C9 C10 1_555 1_555
C10 H6 1_555 1_555
H7 C10 1_555 1_555
H8 C10 1_555 1_555
C11 C8 1_555 1_555
C12 C11 1_555 1_555
C13 C12 1_555 1_555
H9 C13 1_555 1_555
C14 C13 1_555 1_555
H10 C14 1_555 1_555
C15 C14 1_555 1_555
H11 C15 1_555 1_555
C16 C15 1_555 1_555
H12 C16 1_555 1_555
C17 C12 1_555 1_555
H13 C17 1_555 1_555
C18 C19 1_555 1_555
C19 C20 1_555 1_555
C20 H14 1_555 1_555
C21 C20 1_555 1_555
H15 C21 1_555 1_555
C22 C21 1_555 1_555
H16 C22 1_555 1_555
C23 C19 1_555 1_555
H17 C23 1_555 1_555
C24 H18 1_555 1_555
C25 H19 1_555 1_555
H20 C25 1_555 1_555
H21 C25 1_555 1_555
C26 H22 1_555 1_555
H23 C26 1_555 1_555
H24 C26 1_555 1_555
N1 C1 1_555 1_555
N2 C9 1_555 1_555
N3 C11 1_555 1_555
N4 C18 1_555 1_555
H25 N4 1_555 1_555
N5 C22 1_555 1_555
N6 C24 1_555 1_555
O1 Zn1 1_555 1_555
O2 Zn1 1_555 1_555
O3 Zn1 1_555 1_555
O4 Zn1 1_555 1_555
H26 O4 1_555 1_555
H27 O4 1_555 1_555
N7 O5 1_555 1_555
O6 N7 1_555 1_555
O7 N7 1_555 1_555
Zn1A N5 1_555 1_555
N5A Zn1 1_555 1_555
C5 C6 1_555 1_555
C7 N1 1_555 1_555
C7 O1 1_555 1_555
C16 C17 1_555 1_555
C18 O2 1_555 1_555
C23 N5 1_555 1_555
C24 O3 1_555 1_555
C25 N6 1_555 1_555
C26 N6 1_555 1_555
N1 N2 1_555 1_555
N3 N4 1_555 1_555

#END
