
#######################################################################
#
#                 Cambridge Crystallographic Data Centre
#                                CCDC 
#
#######################################################################
#
# If this CIF has been generated from an entry in the Cambridge 
# Structural Database, then it will include bibliographic, chemical, 
# crystal, experimental, refinement or atomic coordinate data resulting 
# from the CCDC's data processing and validation procedures.
#
#######################################################################

data_BERPOD
_symmetry_cell_setting           monoclinic
_symmetry_space_group_name_H-M   'P 21/c'
_symmetry_Int_Tables_number      14
_space_group_name_Hall           '-P 2ybc'
loop_
_symmetry_equiv_pos_site_id
_symmetry_equiv_pos_as_xyz
1 x,y,z
2 -x,1/2+y,1/2-z
3 -x,-y,-z
4 x,1/2-y,1/2+z
_cell_length_a                   7.309(3)
_cell_length_b                   16.363(4)
_cell_length_c                   13.646(4)
_cell_angle_alpha                90
_cell_angle_beta                 103.085(3)
_cell_angle_gamma                90
_cell_volume                     1589.65
loop_
_atom_site_label
_atom_site_type_symbol
_atom_site_fract_x
_atom_site_fract_y
_atom_site_fract_z
O7 O 0.21340 0.44820 0.06860
H10 H 0.11680 0.49520 0.08020
H11 H 0.33460 0.47610 0.04940
Cu1 Cu 0.29038 0.11259 0.25330
N1 N 0.36220 0.21970 0.31010
N2 N 0.20200 0.15220 0.11570
N3 N 0.23330 0.29300 0.16170
O1 O 0.24720 -0.00680 0.23040
O2 O 0.32030 0.04340 0.38070
C1 C 0.46530 0.22070 0.40730
C2 C 0.53800 0.29120 0.45550
C3 C 0.50540 0.36270 0.40250
C4 C 0.40360 0.36370 0.30510
C5 C 0.33450 0.29020 0.25950
C6 C 0.16880 0.23180 0.09240
C7 C 0.07340 0.25600 -0.00400
C8 C 0.01300 0.19810 -0.07640
C9 C 0.05660 0.11640 -0.05310
C10 C 0.14540 0.09590 0.04230
C11 C 0.27470 -0.01750 0.32380
C12 C 0.25240 -0.10050 0.36720
Cl1 Cl 0.77000 0.11580 0.23040
O3 O 0.63870 0.08170 0.27850
O4 O 0.77060 0.07380 0.13820
O5 O -0.04890 0.11350 0.28980
O6 O 0.71690 0.19970 0.20780
H1 H 0.49150 0.16390 0.44840
H2 H 0.62120 0.29000 0.53170
H3 H 0.56050 0.41890 0.43900
H4 H 0.37530 0.42050 0.26440
H5 H 0.10510 0.32340 0.16780
H6 H 0.04520 0.32000 -0.02040
H7 H -0.06590 0.21560 -0.15020
H8 H 0.01780 0.06990 -0.11020
H9 H 0.17620 0.03240 0.06080
H12 H 0.28080 -0.09790 0.44830
H13 H 0.35070 -0.14170 0.34450
H14 H 0.11100 -0.12230 0.33830
O5_2 O 0.95110 0.11350 0.28980
Cl1_2 Cl -0.23000 0.11580 0.23040
loop_
_geom_bond_atom_site_label_1
_geom_bond_atom_site_label_2
_geom_bond_site_symmetry_1
_geom_bond_site_symmetry_2
Cu1 N1 1_555 1_555
N1 C1 1_555 1_555
N2 Cu1 1_555 1_555
N3 C5 1_555 1_555
O1 Cu1 1_555 1_555
O2 Cu1 1_555 1_555
C1 C2 1_555 1_555
C2 C3 1_555 1_555
C3 C4 1_555 1_555
C4 C5 1_555 1_555
C5 N1 1_555 1_555
C6 N2 1_555 1_555
C7 C6 1_555 1_555
C8 C7 1_555 1_555
C9 C8 1_555 1_555
C10 N2 1_555 1_555
C11 Cu1 1_555 1_555
C12 C11 1_555 1_555
Cl1 O3 1_555 1_555
O3 Cu1 1_555 1_555
O4 Cl1 1_555 1_555
O5 Cu1 1_555 1_555
O6 Cl1 1_555 1_555
O7 H10 1_555 1_555
H1 C1 1_555 1_555
H2 C2 1_555 1_555
H3 C3 1_555 1_555
H4 C4 1_555 1_555
H5 N3 1_555 1_555
H6 C7 1_555 1_555
H7 C8 1_555 1_555
H8 C9 1_555 1_555
H9 C10 1_555 1_555
H11 O7 1_555 1_555
H12 C12 1_555 1_555
H13 C12 1_555 1_555
H14 C12 1_555 1_555
O5_2 Cl1 1_555 1_555
Cl1_2 O5 1_555 1_555
N3 C6 1_555 1_555
O1 C11 1_555 1_555
O2 C11 1_555 1_555
C9 C10 1_555 1_555

#END
