
#######################################################################
#
#                 Cambridge Crystallographic Data Centre
#                                CCDC 
#
#######################################################################
#
# If this CIF has been generated from an entry in the Cambridge 
# Structural Database, then it will include bibliographic, chemical, 
# crystal, experimental, refinement or atomic coordinate data resulting 
# from the CCDC's data processing and validation procedures.
#
#######################################################################

data_BERQIA
_symmetry_cell_setting           orthorhombic
_symmetry_space_group_name_H-M   'F d d 2'
_symmetry_Int_Tables_number      43
_space_group_name_Hall           'F 2 -2d'
loop_
_symmetry_equiv_pos_site_id
_symmetry_equiv_pos_as_xyz
1 x,y,z
2 -x,-y,z
3 1/4-x,1/4+y,1/4+z
4 3/4+x,3/4-y,1/4+z
5 x,1/2+y,1/2+z
6 -x,1/2-y,1/2+z
7 1/4-x,3/4+y,3/4+z
8 3/4+x,1/4-y,3/4+z
9 1/2+x,y,1/2+z
10 1/2-x,-y,1/2+z
11 3/4-x,1/4+y,3/4+z
12 1/4+x,3/4-y,3/4+z
13 1/2+x,1/2+y,z
14 1/2-x,1/2-y,z
15 3/4-x,3/4+y,1/4+z
16 1/4+x,1/4-y,1/4+z
_cell_length_a                   21.501(4)
_cell_length_b                   26.510(8)
_cell_length_c                   30.067(6)
_cell_angle_alpha                90
_cell_angle_beta                 90
_cell_angle_gamma                90
_cell_volume                     17137.9
loop_
_atom_site_label
_atom_site_type_symbol
_atom_site_fract_x
_atom_site_fract_y
_atom_site_fract_z
Cd1 Cd 0.0000 0.0000 0.00222(3)
O1 O -0.0806(5) -0.0315(6) 0.0433(5)
O2 O 0.0020(5) -0.0708(5) 0.0624(5)
O3 O -0.1753(5) -0.2321(5) 0.1957(4)
O4 O -0.2387(6) -0.1706(5) 0.2081(4)
C1 C -0.0948(8) -0.0943(6) 0.0955(6)
C2 C -0.1548(7) -0.0835(6) 0.1051(5)
C3 C -0.1876(7) -0.1138(6) 0.1368(5)
C4 C -0.1610(7) -0.1549(6) 0.1543(4)
C5 C -0.1000(8) -0.1674(6) 0.1437(6)
H1 H -0.0809 -0.1963 0.1563
C6 C -0.0673(8) -0.1367(6) 0.1139(6)
H2 H -0.0257 -0.1450 0.1062
C7 C -0.0510(11) -0.0647(6) 0.0649(5)
C8 C -0.1917(7) -0.1891(6) 0.1867(6)
N1 N -0.1883(10) -0.0417(8) 0.0916(8)
H3 H -0.2327 -0.0296 0.1021
H4 H -0.1771 -0.0137 0.0720
H5 H -0.2348 -0.1000 0.1453
O1A O 0.0806(5) 0.0315(6) 0.0433(5)
O2A O -0.0020(5) 0.0708(5) 0.0624(5)
O3A O 0.1753(5) 0.2321(5) 0.1957(4)
O4A O 0.2387(6) 0.1706(5) 0.2081(4)
C1A C 0.0948(8) 0.0943(6) 0.0955(6)
C2A C 0.1548(7) 0.0835(6) 0.1051(5)
C3A C 0.1876(7) 0.1138(6) 0.1368(5)
C4A C 0.1610(7) 0.1549(6) 0.1543(4)
C5A C 0.1000(8) 0.1674(6) 0.1437(6)
H1A H 0.0809 0.1963 0.1563
C6A C 0.0673(8) 0.1367(6) 0.1139(6)
H2A H 0.0257 0.1450 0.1062
C7A C 0.0510(11) 0.0647(6) 0.0649(5)
C8A C 0.1917(7) 0.1891(6) 0.1867(6)
N1A N 0.1883(10) 0.0417(8) 0.0916(8)
H3A H 0.2327 0.0296 0.1021
H4A H 0.1771 0.0137 0.0720
H5A H 0.2348 0.1000 0.1453
Cd1B Cd 0.2500 0.2500 0.25222(3)
Cd1C Cd -0.2500 -0.2500 0.25222(3)
O3J O -0.0747(5) 0.0179(5) -0.0543(4)
O3K O 0.0747(5) -0.0179(5) -0.0543(4)
O4J O -0.0113(6) 0.0794(5) -0.0419(4)
O4K O 0.0113(6) -0.0794(5) -0.0419(4)
Cd2 Cd -0.58546(3) -0.25061(3) 0.14260(3)
O5 O -0.4978(5) -0.2193(4) 0.1063(4)
O6 O -0.5832(5) -0.1990(5) 0.0712(5)
O7 O -0.3253(7) -0.0917(6) -0.0572(7)
O8 O -0.4057(5) -0.0427(5) -0.0686(5)
O9 O -0.5860(4) -0.3272(4) 0.0882(4)
O10 O -0.6707(4) -0.2888(4) 0.1118(4)
O11 O -0.7657(5) -0.4769(5) -0.0534(4)
O12 O -0.8356(7) -0.4223(6) -0.0498(6)
C9 C -0.4892(6) -0.1660(5) 0.0427(5)
C10 C -0.5181(8) -0.1341(7) 0.0149(8)
H6 H -0.5620 -0.1305 0.0167
C11 C -0.4839(9) -0.1052(7) -0.0176(7)
C12 C -0.4228(7) -0.1100(6) -0.0190(6)
C13 C -0.3916(8) -0.1422(7) 0.0118(7)
H7 H -0.3475 -0.1436 0.0127
C14 C -0.4268(9) -0.1709(6) 0.0401(6)
H8 H -0.4067 -0.1951 0.0585
C15 C -0.5254(6) -0.1960(4) 0.0772(5)
C16 C -0.3821(10) -0.0771(6) -0.0505(5)
C17 C -0.6827(6) -0.3528(6) 0.0569(5)
C18 C -0.7457(7) -0.3418(8) 0.0485(8)
C19 C -0.7785(8) -0.3722(8) 0.0195(8)
H9 H -0.8210 -0.3647 0.0141
C20 C -0.7528(7) -0.4120(7) -0.0016(7)
C21 C -0.6888(6) -0.4250(5) 0.0079(4)
H10 H -0.6699 -0.4538 -0.0052
C22 C -0.6569(5) -0.3952(5) 0.0357(4)
C23 C -0.6442(6) -0.3208(5) 0.0868(5)
C24 C -0.7886(7) -0.4380(6) -0.0379(5)
N2 N -0.5176(11) -0.0757(8) -0.0475(8)
H11 H -0.4974 -0.0614 -0.0687
H12 H -0.5573 -0.0724 -0.0458
N3 N -0.776(2) -0.3011(15) 0.0651(14)
H13 H -0.8229 -0.2888 0.0588
H14 H -0.7641 -0.2755 0.0868
H15 H -0.6220 -0.3968 0.0432
Cd2G Cd -0.83546(3) -0.49939(3) -0.10740(3)
Cd2K Cd -0.33546(3) 0.00061(3) -0.10740(3)
O8C O -0.6557(5) -0.2073(5) 0.1814(5)
O11O O -0.5157(5) -0.2731(5) 0.1966(4)
O12O O -0.5856(7) -0.3277(6) 0.2002(6)
N4 N -0.3711(17) 0.0267(15) 0.1122(15)
O13 O -0.3121(17) -0.0336(18) 0.1445(17)
C25 C -0.3338(17) 0.0112(17) 0.1450(15)
C26 C -0.391(3) -0.005(2) 0.0751(17)
C27 C -0.395(3) 0.0791(16) 0.112(2)
N5 N -0.2262(5) -0.0784(5) 0.2544(5)
C28 C -0.1820(8) -0.0447(7) 0.2323(7)
C29 C -0.2909(8) -0.0564(7) 0.2587(7)
N6 N -0.1724(11) -0.1723(8) 0.3931(10)
C30 C -0.209(2) -0.2056(15) 0.4203(16)
C31 C -0.1030(14) -0.1795(13) 0.3972(14)
N7 N -0.0712(12) -0.3135(9) 0.1886(11)
C32 C -0.0574(14) -0.3312(12) 0.2329(11)
C33 C -0.100(3) -0.3471(19) 0.1572(15)
N8? N -0.2493(14) -0.0996(11) 0.1387(13)
H16? H -0.2620 -0.0735 0.1218
H17? H -0.2764 -0.1154 0.1567
H18? H -0.1790 -0.0563 0.0889
N9? N -0.5916(13) -0.4021(14) 0.0451(15)
H19? H -0.5861 -0.3879 0.0720
H20? H -0.5701 -0.4299 0.0376
H21? H -0.7640 -0.3091 0.0583
N10? N -0.2500 -0.2500 0.0505(17)
C34? C -0.2500 -0.2500 0.0981(17)
O14? O -0.201(2) -0.2099(16) -0.0141(18)
C35? C -0.2914(16) -0.2839(13) 0.0265(19)
C36? C -0.2133(15) -0.2200(13) 0.0262(18)
loop_
_geom_bond_atom_site_label_1
_geom_bond_atom_site_label_2
_geom_bond_site_symmetry_1
_geom_bond_site_symmetry_2
Cd1 O1 1_555 1_555
O1 C7 1_555 1_555
O2 Cd1 1_555 1_555
O3 C8 1_555 1_555
O4 C8 1_555 1_555
C1 C2 1_555 1_555
C2 C3 1_555 1_555
C3 C4 1_555 1_555
C4 C5 1_555 1_555
C5 H1 1_555 1_555
C6 C1 1_555 1_555
H2 C6 1_555 1_555
C7 O2 1_555 1_555
C8 C4 1_555 1_555
N1 C2 1_555 1_555
H3 N1 1_555 1_555
H4 N1 1_555 1_555
H5 C3 1_555 1_555
Cd2 O5 1_555 1_555
O5 C15 1_555 1_555
O6 Cd2 1_555 1_555
O7 C16 1_555 1_555
O8 C16 1_555 1_555
O9 Cd2 1_555 1_555
O10 Cd2 1_555 1_555
O11 C24 1_555 1_555
O12 C24 1_555 1_555
C9 C10 1_555 1_555
C10 H6 1_555 1_555
C11 C10 1_555 1_555
C12 C11 1_555 1_555
C13 C12 1_555 1_555
H7 C13 1_555 1_555
C14 C9 1_555 1_555
H8 C14 1_555 1_555
C15 O6 1_555 1_555
C16 C12 1_555 1_555
C17 C18 1_555 1_555
C18 C19 1_555 1_555
C19 H9 1_555 1_555
C20 C19 1_555 1_555
C21 C20 1_555 1_555
H10 C21 1_555 1_555
C22 C17 1_555 1_555
C23 O9 1_555 1_555
C24 C20 1_555 1_555
N2 C11 1_555 1_555
H11 N2 1_555 1_555
H12 N2 1_555 1_555
N3 C18 1_555 1_555
H13 N3 1_555 1_555
H14 N3 1_555 1_555
H15 C22 1_555 1_555
N4 C25 1_555 1_555
O13 C25 1_555 1_555
C26 N4 1_555 1_555
C27 N4 1_555 1_555
N5 C28 1_555 1_555
C29 N5 1_555 1_555
N6 C30 1_555 1_555
C31 N6 1_555 1_555
N7 C32 1_555 1_555
C33 N7 1_555 1_555
O1A Cd1 1_555 1_555
O2A Cd1 1_555 1_555
O3A C8A 1_555 1_555
O4A C8A 1_555 1_555
C1A C2A 1_555 1_555
C2A C3A 1_555 1_555
C3A C4A 1_555 1_555
C4A C5A 1_555 1_555
C5A H1A 1_555 1_555
C6A C1A 1_555 1_555
H2A C6A 1_555 1_555
C7A O1A 1_555 1_555
C8A C4A 1_555 1_555
N1A C2A 1_555 1_555
H3A N1A 1_555 1_555
H4A N1A 1_555 1_555
H5A C3A 1_555 1_555
Cd1B O3A 1_555 1_555
Cd1C O3 1_555 1_555
O3J Cd1 1_555 1_555
O3K Cd1 1_555 1_555
O4J Cd1 1_555 1_555
O4K Cd1 1_555 1_555
Cd2G O11 1_555 1_555
Cd2K O8 1_555 1_555
O8C Cd2 1_555 1_555
O11O Cd2 1_555 1_555
O12O Cd2 1_555 1_555
O4 Cd1C 1_555 1_555
C1 C7 1_555 1_555
C5 C6 1_555 1_555
O10 C23 1_555 1_555
O12 Cd2G 1_555 1_555
C9 C15 1_555 1_555
C13 C14 1_555 1_555
C17 C23 1_555 1_555
C21 C22 1_555 1_555
O2A C7A 1_555 1_555
O4A Cd1B 1_555 1_555
C1A C7A 1_555 1_555
C5A C6A 1_555 1_555

#END
