
#######################################################################
#
#                 Cambridge Crystallographic Data Centre
#                                CCDC 
#
#######################################################################
#
# If this CIF has been generated from an entry in the Cambridge 
# Structural Database, then it will include bibliographic, chemical, 
# crystal, experimental, refinement or atomic coordinate data resulting 
# from the CCDC's data processing and validation procedures.
#
#######################################################################

data_BERRUN
_symmetry_cell_setting           monoclinic
_symmetry_space_group_name_H-M   'C c'
_symmetry_Int_Tables_number      9
_space_group_name_Hall           'C -2yc'
loop_
_symmetry_equiv_pos_site_id
_symmetry_equiv_pos_as_xyz
1 x,y,z
2 x,-y,1/2+z
3 1/2+x,1/2+y,z
4 1/2+x,1/2-y,1/2+z
_cell_length_a                   9.4928(19)
_cell_length_b                   18.587(4)
_cell_length_c                   8.9107(18)
_cell_angle_alpha                90
_cell_angle_beta                 115.98(3)
_cell_angle_gamma                90
_cell_volume                     1413.35
loop_
_atom_site_label
_atom_site_type_symbol
_atom_site_fract_x
_atom_site_fract_y
_atom_site_fract_z
Cd1 Cd 0.26906(5) 0.369976(10) 0.09242(5)
N1 N 0.1009(5) 0.55663(18) 0.2286(4)
N2 N 0.2164(4) 0.54919(16) 0.3868(4)
N3 N 0.0846(5) 0.4979(2) 0.1472(4)
N4 N 0.1901(4) 0.44856(18) 0.2465(4)
N5 N 0.3833(5) 0.4492(2) 0.5284(4)
H1 H 0.3912 0.4033 0.5232
O1 O 0.4861(4) 0.54672(17) 0.6975(4)
O2 O 0.3959(4) 0.29315(16) -0.0257(4)
N6 N 0.4109(4) 0.29386(16) 0.3012(4)
N7 N 0.4416(5) 0.30425(19) 0.4631(4)
N8 N 0.4887(5) 0.2012(2) 0.1619(4)
H2 H 0.5181 0.1570 0.1735
N9 N 0.5608(4) 0.20657(17) 0.4530(4)
N10 N 0.5304(5) 0.2530(2) 0.5531(4)
C1 C 0.3251(10) 0.1616(5) -0.2501(11)
H3 H 0.3463 0.1310 -0.3247
H4 H 0.2683 0.2033 -0.3096
H5 H 0.2638 0.1358 -0.2064
C2 C 0.4725(6) 0.1840(3) -0.1132(5)
H6 H 0.5343 0.2097 -0.1583
H7 H 0.5310 0.1416 -0.0561
C3 C 0.4493(5) 0.2317(2) 0.0114(5)
C4 C 0.4862(5) 0.2349(2) 0.2997(4)
C5 C 0.7462(9) 0.4297(6) 0.7723(12)
H8 H 0.8194 0.3968 0.8510
H9 H 0.7920 0.4768 0.7893
H10 H 0.7209 0.4139 0.6609
C6 C 0.6071(7) 0.4321(3) 0.7958(6)
H11 H 0.6326 0.4483 0.9082
H12 H 0.5629 0.3841 0.7826
C7 C 0.4877(6) 0.4823(3) 0.6715(6)
C8 C 0.2668(5) 0.4824(2) 0.3918(5)
Cd1A Cd 0.26906(5) 0.630024(10) 0.59242(5)
Cd1C Cd 0.76906(5) 0.130024(10) 0.59242(5)
N2A N 0.2164(4) 0.45081(16) -0.1132(4)
O1A O 0.4861(4) 0.45328(17) 0.1975(4)
N9C N 0.0608(4) 0.29343(17) -0.0470(4)
loop_
_geom_bond_atom_site_label_1
_geom_bond_atom_site_label_2
_geom_bond_site_symmetry_1
_geom_bond_site_symmetry_2
Cd1 N4 1_555 1_555
N1 N2 1_555 1_555
N2 C8 1_555 1_555
N3 N1 1_555 1_555
N4 N3 1_555 1_555
N5 H1 1_555 1_555
O1 C7 1_555 1_555
O2 Cd1 1_555 1_555
N6 Cd1 1_555 1_555
N7 N6 1_555 1_555
N8 H2 1_555 1_555
N9 N10 1_555 1_555
N10 N7 1_555 1_555
C1 H3 1_555 1_555
H4 C1 1_555 1_555
H5 C1 1_555 1_555
C2 C1 1_555 1_555
H6 C2 1_555 1_555
H7 C2 1_555 1_555
C3 O2 1_555 1_555
C4 N6 1_555 1_555
C5 H8 1_555 1_555
H9 C5 1_555 1_555
H10 C5 1_555 1_555
C6 C5 1_555 1_555
H11 C6 1_555 1_555
H12 C6 1_555 1_555
C7 N5 1_555 1_555
C8 N4 1_555 1_555
Cd1A N2 1_555 1_555
Cd1C N9 1_555 1_555
N2A Cd1 1_555 1_555
O1A Cd1 1_555 1_555
N9C Cd1 1_555 1_555
N5 C8 1_555 1_555
O1 Cd1A 1_555 1_555
N8 C3 1_555 1_555
N8 C4 1_555 1_555
N9 C4 1_555 1_555
C2 C3 1_555 1_555
C6 C7 1_555 1_555

#END
