
#######################################################################
#
#                 Cambridge Crystallographic Data Centre
#                                CCDC 
#
#######################################################################
#
# If this CIF has been generated from an entry in the Cambridge 
# Structural Database, then it will include bibliographic, chemical, 
# crystal, experimental, refinement or atomic coordinate data resulting 
# from the CCDC's data processing and validation procedures.
#
#######################################################################

data_BERSOI
_symmetry_cell_setting           orthorhombic
_symmetry_space_group_name_H-M   'F d d 2'
_symmetry_Int_Tables_number      43
_space_group_name_Hall           'F 2 -2d'
loop_
_symmetry_equiv_pos_site_id
_symmetry_equiv_pos_as_xyz
1 x,y,z
2 -x,-y,z
3 1/4-x,1/4+y,1/4+z
4 1/4+x,1/4-y,1/4+z
5 x,1/2+y,1/2+z
6 -x,1/2-y,1/2+z
7 1/4-x,3/4+y,3/4+z
8 1/4+x,3/4-y,3/4+z
9 1/2+x,y,1/2+z
10 1/2-x,-y,1/2+z
11 3/4-x,1/4+y,3/4+z
12 3/4+x,1/4-y,3/4+z
13 1/2+x,1/2+y,z
14 1/2-x,1/2-y,z
15 3/4-x,3/4+y,1/4+z
16 3/4+x,3/4-y,1/4+z
_cell_length_a                   15.916(3)
_cell_length_b                   19.127(4)
_cell_length_c                   8.2011(16)
_cell_angle_alpha                90
_cell_angle_beta                 90
_cell_angle_gamma                90
_cell_volume                     2496.62
loop_
_atom_site_label
_atom_site_type_symbol
_atom_site_fract_x
_atom_site_fract_y
_atom_site_fract_z
Cd1 Cd 0.2500 0.7500 1.92870(9)
N1 N 0.06545(16) 0.81776(11) 1.9163(4)
C1 C 0.14802(17) 0.89044(13) 2.0290(4)
N2 N 0.14494(15) 0.82582(11) 1.9701(3)
N3 N 0.07411(17) 0.92247(13) 2.0134(4)
N4 N 0.02318(19) 0.87456(14) 1.9404(5)
O1 O 0.30289(17) 0.82962(12) 2.1308(3)
N5 N 0.21714(16) 0.92323(12) 2.0945(4)
H1 H 0.2142 0.9679 2.1053
C2 C 0.2895(2) 0.89222(16) 2.1438(4)
C3 C 0.3543(2) 0.94206(19) 2.2100(6)
H2 H 0.3324 0.9888 2.2076
H3 H 0.4042 0.9396 2.1444
H4 H 0.3677 0.9295 2.3204
N1M N 0.43455(16) 0.68224(11) 1.9163(4)
C1M C 0.35198(17) 0.60956(13) 2.0290(4)
N2M N 0.35506(15) 0.67418(11) 1.9701(3)
N3M N 0.42589(17) 0.57753(13) 2.0134(4)
N4M N 0.47682(19) 0.62544(14) 1.9404(5)
O1M O 0.19711(17) 0.67038(12) 2.1308(3)
N5M N 0.28286(16) 0.57677(12) 2.0945(4)
H1M H 0.2858 0.5321 2.1053
C2M C 0.2105(2) 0.60778(16) 2.1438(4)
C3M C 0.1457(2) 0.55794(19) 2.2100(6)
H2M H 0.1676 0.5112 2.2076
H3M H 0.0958 0.5604 2.1444
H4M H 0.1323 0.5705 2.3204
Cd1B Cd 0.0000 1.0000 2.17870(9)
Cd1C Cd 0.5000 0.5000 2.17870(9)
N3F N 0.17589(17) 0.67247(13) 1.7634(4)
N3G N 0.32411(17) 0.82753(13) 1.7634(4)
loop_
_geom_bond_atom_site_label_1
_geom_bond_atom_site_label_2
_geom_bond_site_symmetry_1
_geom_bond_site_symmetry_2
Cd1 N2 1_555 1_555
N1 N2 1_555 1_555
C1 N2 1_555 1_555
N3 C1 1_555 1_555
N4 N1 1_555 1_555
O1 Cd1 1_555 1_555
N5 C1 1_555 1_555
H1 N5 1_555 1_555
C2 O1 1_555 1_555
C3 C2 1_555 1_555
H2 C3 1_555 1_555
H3 C3 1_555 1_555
H4 C3 1_555 1_555
N1M N2M 1_555 1_555
C1M N2M 1_555 1_555
N2M Cd1 1_555 1_555
N3M C1M 1_555 1_555
N4M N1M 1_555 1_555
O1M Cd1 1_555 1_555
N5M C1M 1_555 1_555
H1M N5M 1_555 1_555
C2M O1M 1_555 1_555
C3M C2M 1_555 1_555
H2M C3M 1_555 1_555
H3M C3M 1_555 1_555
H4M C3M 1_555 1_555
Cd1B N3 1_555 1_555
Cd1C N3M 1_555 1_555
N3F Cd1 1_555 1_555
N3G Cd1 1_555 1_555
N3 N4 1_555 1_555
N5 C2 1_555 1_555
N3M N4M 1_555 1_555
N5M C2M 1_555 1_555

#END
