
#######################################################################
#
#                 Cambridge Crystallographic Data Centre
#                                CCDC 
#
#######################################################################
#
# If this CIF has been generated from an entry in the Cambridge 
# Structural Database, then it will include bibliographic, chemical, 
# crystal, experimental, refinement or atomic coordinate data resulting 
# from the CCDC's data processing and validation procedures.
#
#######################################################################

data_BERSIC
_symmetry_cell_setting           monoclinic
_symmetry_space_group_name_H-M   'C 2/c'
_symmetry_Int_Tables_number      15
_space_group_name_Hall           '-C 2yn'
loop_
_symmetry_equiv_pos_site_id
_symmetry_equiv_pos_as_xyz
1 x,y,z
2 -x,y,1/2-z
3 1/2+x,1/2+y,z
4 1/2-x,1/2+y,1/2-z
5 -x,-y,-z
6 x,-y,1/2+z
7 1/2-x,1/2-y,-z
8 1/2+x,1/2-y,1/2+z
_cell_length_a                   17.665(3)
_cell_length_b                   10.105(2)
_cell_length_c                   7.1333(14)
_cell_angle_alpha                90
_cell_angle_beta                 91.73(3)
_cell_angle_gamma                90
_cell_volume                     1272.75
loop_
_atom_site_label
_atom_site_type_symbol
_atom_site_fract_x
_atom_site_fract_y
_atom_site_fract_z
Zn1 Zn 0.0000 0.40526(4) 0.2500
O1 O 0.06872(10) 0.24845(19) 0.3801(3)
N1 N 0.07369(10) 0.37984(18) 0.0323(3)
N2 N 0.07632(10) 0.4508(2) -0.1280(3)
N3 N 0.14075(12) 0.4303(3) -0.2085(3)
N4 N 0.18242(12) 0.3454(3) -0.1032(3)
N5 N 0.16636(11) 0.2334(2) 0.1829(3)
H1 H 0.2093 0.1958 0.1669
C1 C 0.13993(13) 0.3177(2) 0.0420(3)
C2 C 0.13113(14) 0.2031(3) 0.3413(4)
C3 C 0.17216(19) 0.1078(3) 0.4694(5)
H2 H 0.2194 0.0835 0.4162
H3 H 0.1417 0.0301 0.4849
H4 H 0.1816 0.1488 0.5893
O1A O -0.06872(10) 0.24845(19) 0.1199(3)
N1A N -0.07369(10) 0.37984(18) 0.4677(3)
N2A N -0.07632(10) 0.4508(2) 0.6280(3)
N3A N -0.14075(12) 0.4303(3) 0.7085(3)
N4A N -0.18242(12) 0.3454(3) 0.6032(3)
N5A N -0.16636(11) 0.2334(2) 0.3171(3)
H1A H -0.2093 0.1958 0.3331
C1A C -0.13993(13) 0.3177(2) 0.4580(3)
C2A C -0.13113(14) 0.2031(3) 0.1587(4)
C3A C -0.17216(19) 0.1078(3) 0.0306(5)
H2A H -0.2194 0.0835 0.0838
H3A H -0.1417 0.0301 0.0151
H4A H -0.1816 0.1488 -0.0893
Zn1D Zn 0.0000 0.59474(4) -0.2500
Zn1D_2 Zn 0.0000 0.59474(4) 0.7500
N2D N -0.07632(10) 0.5492(2) 0.1280(3)
N2E N 0.07632(10) 0.5492(2) 0.3720(3)
O2 O 0.5000 0.3797(11) 0.2500
O3? O 0.4791(6) 0.4429(11) 0.068(2)
loop_
_geom_bond_atom_site_label_1
_geom_bond_atom_site_label_2
_geom_bond_site_symmetry_1
_geom_bond_site_symmetry_2
Zn1 O1 1_555 1_555
O1 C2 1_555 1_555
N1 Zn1 1_555 1_555
N2 N1 1_555 1_555
N3 N2 1_555 1_555
N4 N3 1_555 1_555
N5 H1 1_555 1_555
C1 N1 1_555 1_555
C2 N5 1_555 1_555
C3 C2 1_555 1_555
H2 C3 1_555 1_555
H3 C3 1_555 1_555
H4 C3 1_555 1_555
O1A Zn1 1_555 1_555
N1A Zn1 1_555 1_555
N2A N1A 1_555 1_555
N3A N2A 1_555 1_555
N4A N3A 1_555 1_555
N5A H1A 1_555 1_555
C1A N1A 1_555 1_555
C2A O1A 1_555 1_555
C3A C2A 1_555 1_555
H2A C3A 1_555 1_555
H3A C3A 1_555 1_555
H4A C3A 1_555 1_555
Zn1D N2 1_555 1_555
Zn1D_2 N2A 1_555 1_555
N2D Zn1 1_555 1_555
N2E Zn1 1_555 1_555
N4 C1 1_555 1_555
N5 C1 1_555 1_555
N4A C1A 1_555 1_555
N5A C1A 1_555 1_555
N5A C2A 1_555 1_555

#END
