
#######################################################################
#
#                 Cambridge Crystallographic Data Centre
#                                CCDC 
#
#######################################################################
#
# If this CIF has been generated from an entry in the Cambridge 
# Structural Database, then it will include bibliographic, chemical, 
# crystal, experimental, refinement or atomic coordinate data resulting 
# from the CCDC's data processing and validation procedures.
#
#######################################################################

data_BERSEY
_symmetry_cell_setting           monoclinic
_symmetry_space_group_name_H-M   'P 21/n'
_symmetry_Int_Tables_number      14
_space_group_name_Hall           '-P 2yn'
loop_
_symmetry_equiv_pos_site_id
_symmetry_equiv_pos_as_xyz
1 x,y,z
2 1/2-x,1/2+y,1/2-z
3 -x,-y,-z
4 1/2+x,1/2-y,1/2+z
_cell_length_a                   7.0989(14)
_cell_length_b                   9.0946(18)
_cell_length_c                   8.1688(16)
_cell_angle_alpha                90
_cell_angle_beta                 102.65(3)
_cell_angle_gamma                90
_cell_volume                     514.589
loop_
_atom_site_label
_atom_site_type_symbol
_atom_site_fract_x
_atom_site_fract_y
_atom_site_fract_z
Cu1 Cu 0.0000 1.0000 0.5000
O1 O 0.1722(3) 1.0397(2) 0.3433(2)
N1 N 0.3804(3) 0.8469(2) 0.4004(3)
H1 H 0.4682 0.7981 0.3663
N2 N 0.3506(3) 0.6960(2) 0.7809(3)
N3 N 0.4434(3) 0.7085(2) 0.6533(3)
N4 N 0.1882(3) 0.8546(2) 0.6102(3)
N5 N 0.1999(3) 0.7822(2) 0.7568(3)
C1 C 0.3511(4) 0.9761(3) 0.1390(4)
H2 H 0.4454 0.9031 0.1285
H3 H 0.4053 1.0723 0.1344
H4 H 0.2397 0.9653 0.0490
C2 C 0.2934(4) 0.9569(3) 0.3028(3)
C3 C 0.3389(3) 0.8062(3) 0.5525(3)
O1B O -0.1722(3) 0.9603(2) 0.6567(2)
N1B N -0.3804(3) 1.1531(2) 0.5996(3)
H1B H -0.4682 1.2019 0.6337
N2B N -0.3506(3) 1.3040(2) 0.2191(3)
N3B N -0.4434(3) 1.2915(2) 0.3467(3)
N4B N -0.1882(3) 1.1454(2) 0.3898(3)
N5B N -0.1999(3) 1.2178(2) 0.2432(3)
C1B C -0.3511(4) 1.0239(3) 0.8610(4)
H2B H -0.4454 1.0969 0.8715
H3B H -0.4053 0.9277 0.8656
H4B H -0.2397 1.0347 0.9510
C2B C -0.2934(4) 1.0431(3) 0.6972(3)
C3B C -0.3389(3) 1.1938(3) 0.4475(3)
Cu1A Cu -0.5000 1.5000 0.0000
Cu1A_2 Cu 0.5000 0.5000 1.0000
N2A N 0.1494(3) 1.1960(2) 0.7191(3)
N2C N -0.1494(3) 0.8040(2) 0.2809(3)
loop_
_geom_bond_atom_site_label_1
_geom_bond_atom_site_label_2
_geom_bond_site_symmetry_1
_geom_bond_site_symmetry_2
Cu1 O1 1_555 1_555
O1 C2 1_555 1_555
N1 H1 1_555 1_555
N2 N3 1_555 1_555
N3 C3 1_555 1_555
N4 Cu1 1_555 1_555
N5 N2 1_555 1_555
C1 H2 1_555 1_555
H3 C1 1_555 1_555
H4 C1 1_555 1_555
C2 N1 1_555 1_555
C3 N1 1_555 1_555
O1B Cu1 1_555 1_555
N1B H1B 1_555 1_555
N2B N3B 1_555 1_555
N3B C3B 1_555 1_555
N4B Cu1 1_555 1_555
N5B N2B 1_555 1_555
C1B H2B 1_555 1_555
H3B C1B 1_555 1_555
H4B C1B 1_555 1_555
C2B O1B 1_555 1_555
C3B N1B 1_555 1_555
Cu1A N2B 1_555 1_555
Cu1A_2 N2 1_555 1_555
N2A Cu1 1_555 1_555
N2C Cu1 1_555 1_555
N4 N5 1_555 1_555
N4 C3 1_555 1_555
C1 C2 1_555 1_555
N1B C2B 1_555 1_555
N4B N5B 1_555 1_555
N4B C3B 1_555 1_555
C1B C2B 1_555 1_555

#END
