
#######################################################################
#
#                 Cambridge Crystallographic Data Centre
#                                CCDC 
#
#######################################################################
#
# If this CIF has been generated from an entry in the Cambridge 
# Structural Database, then it will include bibliographic, chemical, 
# crystal, experimental, refinement or atomic coordinate data resulting 
# from the CCDC's data processing and validation procedures.
#
#######################################################################

data_BERSAU
_symmetry_cell_setting           orthorhombic
_symmetry_space_group_name_H-M   'A b a 2'
_symmetry_Int_Tables_number      41
_space_group_name_Hall           'A 2 -2ac'
loop_
_symmetry_equiv_pos_site_id
_symmetry_equiv_pos_as_xyz
1 x,y,z
2 -x,-y,z
3 1/2-x,y,1/2+z
4 1/2+x,-y,1/2+z
5 x,1/2+y,1/2+z
6 -x,1/2-y,1/2+z
7 1/2-x,1/2+y,z
8 1/2+x,1/2-y,z
_cell_length_a                   9.3707(19)
_cell_length_b                   12.181(2)
_cell_length_c                   9.1857(18)
_cell_angle_alpha                90
_cell_angle_beta                 90
_cell_angle_gamma                90
_cell_volume                     1048.5
loop_
_atom_site_label
_atom_site_type_symbol
_atom_site_fract_x
_atom_site_fract_y
_atom_site_fract_z
Mn1 Mn 0.0000 0.0000 0.6262(4)
N1 N 0.1690(8) -0.0392(6) 0.7944(8)
N2 N 0.2456(12) 0.0214(4) 0.8690(12)
N3 N 0.1956(8) -0.1511(6) 0.8255(7)
N4 N 0.3483(7) -0.2412(6) 0.9765(7)
H1 H 0.3025 -0.3014 0.9517
N5 N 0.3387(8) -0.0433(6) 0.9527(8)
O1 O 0.5419(5) -0.1724(4) 1.1260(16)
C1 C 0.4895(6) -0.3629(4) 1.1290(19)
H2 H 0.4288 -0.4158 1.0778
H3 H 0.4656 -0.3629 1.2328
H4 H 0.5899 -0.3834 1.1165
C2 C 0.4656(8) -0.2504(6) 1.0676(8)
C3 C 0.3002(11) -0.1432(8) 0.9231(10)
N1A N -0.1690(8) 0.0392(6) 0.7944(8)
N2A N -0.2456(12) -0.0214(4) 0.8690(12)
N3A N -0.1956(8) 0.1511(6) 0.8255(7)
N4A N -0.3483(7) 0.2412(6) 0.9765(7)
H1A H -0.3025 0.3014 0.9517
N5A N -0.3387(8) 0.0433(6) 0.9527(8)
O1A O -0.5419(5) 0.1724(4) 1.1260(16)
C1A C -0.4895(6) 0.3629(4) 1.1290(19)
H2A H -0.4288 0.4158 1.0778
H3A H -0.4656 0.3629 1.2328
H4A H -0.5899 0.3834 1.1165
C2A C -0.4656(8) 0.2504(6) 1.0676(8)
C3A C -0.3002(11) 0.1432(8) 0.9231(10)
Mn1B Mn -0.5000 0.0000 1.1262(4)
Mn1B_2 Mn 0.5000 0.0000 1.1262(4)
N5B N 0.1613(8) -0.0433(6) 0.4527(8)
N5C N -0.1613(8) 0.0433(6) 0.4527(8)
O1B O -0.0419(5) -0.1724(4) 0.6260(16)
O1C O 0.0419(5) 0.1724(4) 0.6260(16)
loop_
_geom_bond_atom_site_label_1
_geom_bond_atom_site_label_2
_geom_bond_site_symmetry_1
_geom_bond_site_symmetry_2
Mn1 N1 1_555 1_555
N1 N2 1_555 1_555
N2 N5 1_555 1_555
N3 N1 1_555 1_555
N4 H1 1_555 1_555
N5 C3 1_555 1_555
O1 C2 1_555 1_555
C1 H2 1_555 1_555
H3 C1 1_555 1_555
H4 C1 1_555 1_555
C2 N4 1_555 1_555
C3 N3 1_555 1_555
N1A Mn1 1_555 1_555
N2A N1A 1_555 1_555
N3A N1A 1_555 1_555
N4A H1A 1_555 1_555
N5A N2A 1_555 1_555
O1A C2A 1_555 1_555
C1A H2A 1_555 1_555
H3A C1A 1_555 1_555
H4A C1A 1_555 1_555
C2A N4A 1_555 1_555
C3A N3A 1_555 1_555
Mn1B N5A 1_555 1_555
Mn1B_2 N5 1_555 1_555
N5B Mn1 1_555 1_555
N5C Mn1 1_555 1_555
O1B Mn1 1_555 1_555
O1C Mn1 1_555 1_555
N4 C3 1_555 1_555
O1 Mn1B_2 1_555 1_555
C1 C2 1_555 1_555
N4A C3A 1_555 1_555
N5A C3A 1_555 1_555
O1A Mn1B 1_555 1_555
C1A C2A 1_555 1_555

#END
