
#######################################################################
#
#                 Cambridge Crystallographic Data Centre
#                                CCDC 
#
#######################################################################
#
# If this CIF has been generated from an entry in the Cambridge 
# Structural Database, then it will include bibliographic, chemical, 
# crystal, experimental, refinement or atomic coordinate data resulting 
# from the CCDC's data processing and validation procedures.
#
#######################################################################

data_BERVIF
_symmetry_cell_setting           triclinic
_symmetry_space_group_name_H-M   'P -1'
_symmetry_Int_Tables_number      2
_space_group_name_Hall           '-P 1'
loop_
_symmetry_equiv_pos_site_id
_symmetry_equiv_pos_as_xyz
1 x,y,z
2 -x,-y,-z
_cell_length_a                   9.0310(18)
_cell_length_b                   11.448(2)
_cell_length_c                   15.437(3)
_cell_angle_alpha                69.84(3)
_cell_angle_beta                 86.54(3)
_cell_angle_gamma                80.49(3)
_cell_volume                     1477.6
loop_
_atom_site_label
_atom_site_type_symbol
_atom_site_fract_x
_atom_site_fract_y
_atom_site_fract_z
Mn1 Mn 0.5000 0.5000 1.0000
K1 K 0.5000 1.0000 0.5000
O1 O 0.3442(7) 0.8770(6) 0.4117(4)
O2 O 0.6100(7) 0.4168(5) 0.9001(4)
O3 O 0.3022(7) 0.4265(6) 0.9855(4)
O4 O 0.5358(7) 0.7406(5) 0.5638(4)
N1 N 0.2036(7) 1.0148(6) 0.5830(4)
N2 N 0.4176(7) 0.6804(6) 0.8804(4)
C1 C 0.2957(9) 0.7819(7) 0.7327(5)
H1 H 0.2565 0.7745 0.6794
N3 N 0.1481(8) 1.1350(6) 0.5337(4)
C2 C 0.2273(9) 1.0160(7) 0.6679(5)
N4 N 0.0842(8) 0.3528(7) 1.0239(5)
C3 C 0.3587(9) 0.6745(7) 0.8041(5)
H2 H 0.3600 0.5943 0.7986
C4 C 0.5509(10) 0.3566(8) 0.8623(6)
H3 H 0.4498 0.3448 0.8782
N5 N 0.2388(8) 1.1504(7) 0.3791(4)
C5 C 0.2916(9) 0.9000(7) 0.7412(5)
C6 C 0.2012(10) 0.9430(9) 0.3735(6)
H4 H 0.1263 0.9372 0.4238
H5 H 0.1675 0.9036 0.3318
C7 C 0.3299(11) 0.7517(9) 0.4712(6)
H6 H 0.2856 0.7074 0.4366
H7 H 0.2622 0.7553 0.5234
C8 C 0.1852(10) 1.1380(8) 0.6723(6)
H8 H 0.1912 1.1639 0.7240
C9 C 0.3520(10) 0.9051(8) 0.8200(6)
H9 H 0.3522 0.9838 0.8278
N6 N 0.6182(10) 0.3080(8) 0.8020(5)
C10 C 0.4800(11) 0.6817(8) 0.5069(6)
H10 H 0.4718 0.5929 0.5435
H11 H 0.5499 0.6826 0.4548
C11 C 0.2110(10) 1.0789(9) 0.3208(5)
H12 H 0.2928 1.0834 0.2747
H13 H 0.1159 1.1190 0.2870
C12 C 0.2082(10) 0.3851(8) 1.0427(5)
H14 H 0.2257 0.3754 1.1051
C13 C 0.0489(12) 0.3664(10) 0.9306(6)
H15 H 0.0835 0.2867 0.9199
H16 H 0.0992 0.4329 0.8871
H17 H -0.0599 0.3889 0.9213
C14 C 0.1335(10) 1.2117(7) 0.5852(6)
H18 H 0.0952 1.2991 0.5650
C15 C 0.1093(9) 1.1705(8) 0.4359(5)
H19 H 0.0332 1.1204 0.4304
H20 H 0.0641 1.2604 0.4126
C16 C 0.4125(10) 0.7936(8) 0.8876(5)
H21 H 0.4521 0.7986 0.9416
C17 C 0.7711(12) 0.3205(11) 0.7724(7)
H22 H 0.8084 0.3768 0.7987
H23 H 0.7750 0.3557 0.7049
H24 H 0.8339 0.2375 0.7937
C18 C 0.2899(10) 1.2695(9) 0.3227(5)
H25 H 0.2061 1.3249 0.2830
H26 H 0.3725 1.2514 0.2818
C19 C 0.6561(11) 0.6614(8) 0.6209(6)
H27 H 0.7393 0.6381 0.5823
H28 H 0.6218 0.5832 0.6624
C20 C 0.5371(15) 0.2374(12) 0.7627(8)
H29 H 0.4388 0.2292 0.7927
H30 H 0.5949 0.1535 0.7728
H31 H 0.5234 0.2823 0.6963
C21 C -0.0211(12) 0.2977(10) 1.0981(7)
H32 H 0.0015 0.3130 1.1542
H33 H -0.0104 0.2067 1.1106
H34 H -0.1243 0.3366 1.0787
O1A O 0.6558(7) 1.1230(6) 0.5883(4)
O4A O 0.4642(7) 1.2594(5) 0.4362(4)
N1A N 0.7964(7) 0.9852(6) 0.4170(4)
N2A N 0.5824(7) 1.3196(6) 0.1196(4)
C1A C 0.7043(9) 1.2181(7) 0.2673(5)
H1A H 0.7435 1.2255 0.3206
N3A N 0.8519(8) 0.8650(6) 0.4663(4)
C2A C 0.7727(9) 0.9840(7) 0.3321(5)
C3A C 0.6413(9) 1.3255(7) 0.1959(5)
H2A H 0.6400 1.4057 0.2014
N5A N 0.7612(8) 0.8496(7) 0.6209(4)
C5A C 0.7084(9) 1.1000(7) 0.2588(5)
C6A C 0.7988(10) 1.0570(9) 0.6265(6)
H4A H 0.8737 1.0628 0.5762
H5A H 0.8325 1.0964 0.6682
C7A C 0.6701(11) 1.2483(9) 0.5288(6)
H6A H 0.7144 1.2926 0.5634
H7A H 0.7378 1.2447 0.4766
C8A C 0.8148(10) 0.8620(8) 0.3277(6)
H8A H 0.8088 0.8361 0.2760
C9A C 0.6480(10) 1.0949(8) 0.1800(6)
H9A H 0.6478 1.0162 0.1722
C10A C 0.5200(11) 1.3183(8) 0.4931(6)
H10A H 0.5282 1.4071 0.4565
H11A H 0.4501 1.3174 0.5452
C11A C 0.7890(10) 0.9211(9) 0.6792(5)
H12A H 0.7072 0.9166 0.7253
H13A H 0.8841 0.8810 0.7130
C14A C 0.8665(10) 0.7883(7) 0.4148(6)
H18A H 0.9048 0.7009 0.4350
C15A C 0.8907(9) 0.8295(8) 0.5641(5)
H19A H 0.9668 0.8796 0.5696
H20A H 0.9359 0.7396 0.5874
C16A C 0.5875(10) 1.2064(8) 0.1124(5)
H21A H 0.5479 1.2014 0.0584
C18A C 0.7101(10) 0.7305(9) 0.6773(5)
H25A H 0.7939 0.6751 0.7170
H26A H 0.6275 0.7486 0.7182
C19A C 0.3439(11) 1.3386(8) 0.3791(6)
H27A H 0.2607 1.3619 0.4177
H28A H 0.3782 1.4168 0.3376
O2A O 0.3900(7) 0.5832(5) 1.0999(4)
O3A O 0.6978(7) 0.5735(6) 1.0145(4)
N4A N 0.9158(8) 0.6472(7) 0.9761(5)
C4A C 0.4491(10) 0.6434(8) 1.1377(6)
H3A H 0.5502 0.6552 1.1218
N6A N 0.3818(10) 0.6920(8) 1.1980(5)
C12A C 0.7918(10) 0.6149(8) 0.9573(5)
H14A H 0.7743 0.6246 0.8949
C13A C 0.9511(12) 0.6336(10) 1.0694(6)
H15A H 0.9165 0.7133 1.0801
H16A H 0.9008 0.5671 1.1129
H17A H 1.0599 0.6111 1.0787
C17A C 0.2289(12) 0.6795(11) 1.2276(7)
H22A H 0.1916 0.6232 1.2013
H23A H 0.2250 0.6443 1.2951
H24A H 0.1661 0.7625 1.2063
C20A C 0.4629(15) 0.7626(12) 1.2373(8)
H29A H 0.5612 0.7708 1.2073
H30A H 0.4051 0.8465 1.2272
H31A H 0.4766 0.7177 1.3037
C21A C 1.0211(12) 0.7023(10) 0.9019(7)
H32A H 0.9985 0.6870 0.8458
H33A H 1.0104 0.7933 0.8894
H34A H 1.1243 0.6634 0.9213
Mn1_2 Mn 0.5000 1.5000 0.0000
N2A_2 N 0.5824(7) 0.3196(6) 1.1196(4)
Cl1 Cl 0.1479(2) 0.49577(15) 0.67631(12)
O5 O 0.0772(13) 0.5881(9) 0.7152(6)
O6 O 0.3076(13) 0.4927(9) 0.6804(7)
O7 O 0.1083(13) 0.5350(9) 0.5792(7)
O8 O 0.1104(13) 0.3755(9) 0.7276(6)
I1 I 0.70106(10) 0.95861(8) 0.96980(7)
I2 I 1.0000 1.0000 1.0000
I1A I 1.29894(10) 1.04139(8) 1.03020(7)
loop_
_geom_bond_atom_site_label_1
_geom_bond_atom_site_label_2
_geom_bond_site_symmetry_1
_geom_bond_site_symmetry_2
Mn1 O2 1_555 1_555
K1 O1 1_555 1_555
O1 C6 1_555 1_555
O2 C4 1_555 1_555
O3 Mn1 1_555 1_555
O4 K1 1_555 1_555
N1 K1 1_555 1_555
N2 Mn1 1_555 1_555
C1 H1 1_555 1_555
N3 N1 1_555 1_555
C2 N1 1_555 1_555
N4 C12 1_555 1_555
C3 N2 1_555 1_555
H2 C3 1_555 1_555
C4 H3 1_555 1_555
N5 K1 1_555 1_555
C5 C1 1_555 1_555
C6 H4 1_555 1_555
H5 C6 1_555 1_555
C7 O1 1_555 1_555
H6 C7 1_555 1_555
H7 C7 1_555 1_555
C8 C2 1_555 1_555
H8 C8 1_555 1_555
C9 C5 1_555 1_555
H9 C9 1_555 1_555
N6 C4 1_555 1_555
C10 O4 1_555 1_555
H10 C10 1_555 1_555
H11 C10 1_555 1_555
C11 N5 1_555 1_555
H12 C11 1_555 1_555
H13 C11 1_555 1_555
C12 O3 1_555 1_555
H14 C12 1_555 1_555
C13 N4 1_555 1_555
H15 C13 1_555 1_555
H16 C13 1_555 1_555
H17 C13 1_555 1_555
C14 N3 1_555 1_555
H18 C14 1_555 1_555
C15 N3 1_555 1_555
H19 C15 1_555 1_555
H20 C15 1_555 1_555
C16 N2 1_555 1_555
H21 C16 1_555 1_555
C17 N6 1_555 1_555
H22 C17 1_555 1_555
H23 C17 1_555 1_555
H24 C17 1_555 1_555
C18 N5 1_555 1_555
H25 C18 1_555 1_555
H26 C18 1_555 1_555
C19 O4 1_555 1_555
H27 C19 1_555 1_555
H28 C19 1_555 1_555
C20 N6 1_555 1_555
H29 C20 1_555 1_555
H30 C20 1_555 1_555
H31 C20 1_555 1_555
C21 N4 1_555 1_555
H32 C21 1_555 1_555
H33 C21 1_555 1_555
H34 C21 1_555 1_555
Cl1 O5 1_555 1_555
O6 Cl1 1_555 1_555
O7 Cl1 1_555 1_555
O8 Cl1 1_555 1_555
I1 I2 1_555 1_555
I2 I1A 1_555 1_555
O1A K1 1_555 1_555
O4A K1 1_555 1_555
N1A K1 1_555 1_555
N2A C3A 1_555 1_555
C1A H1A 1_555 1_555
N3A N1A 1_555 1_555
C2A N1A 1_555 1_555
C3A C1A 1_555 1_555
H2A C3A 1_555 1_555
N5A K1 1_555 1_555
C5A C1A 1_555 1_555
C6A O1A 1_555 1_555
H4A C6A 1_555 1_555
H5A C6A 1_555 1_555
C7A O1A 1_555 1_555
H6A C7A 1_555 1_555
H7A C7A 1_555 1_555
C8A C2A 1_555 1_555
H8A C8A 1_555 1_555
C9A C5A 1_555 1_555
H9A C9A 1_555 1_555
C10A O4A 1_555 1_555
H10A C10A 1_555 1_555
H11A C10A 1_555 1_555
C11A N5A 1_555 1_555
H12A C11A 1_555 1_555
H13A C11A 1_555 1_555
C14A N3A 1_555 1_555
H18A C14A 1_555 1_555
C15A N3A 1_555 1_555
H19A C15A 1_555 1_555
H20A C15A 1_555 1_555
C16A N2A 1_555 1_555
H21A C16A 1_555 1_555
C18A C19 1_555 1_555
H25A C18A 1_555 1_555
H26A C18A 1_555 1_555
C19A C18 1_555 1_555
H27A C19A 1_555 1_555
H28A C19A 1_555 1_555
O2A Mn1 1_555 1_555
O3A Mn1 1_555 1_555
N4A C12A 1_555 1_555
C4A O2A 1_555 1_555
H3A C4A 1_555 1_555
N6A C4A 1_555 1_555
C12A O3A 1_555 1_555
H14A C12A 1_555 1_555
C13A N4A 1_555 1_555
H15A C13A 1_555 1_555
H16A C13A 1_555 1_555
H17A C13A 1_555 1_555
C17A N6A 1_555 1_555
H22A C17A 1_555 1_555
H23A C17A 1_555 1_555
H24A C17A 1_555 1_555
C20A N6A 1_555 1_555
H29A C20A 1_555 1_555
H30A C20A 1_555 1_555
H31A C20A 1_555 1_555
C21A N4A 1_555 1_555
H32A C21A 1_555 1_555
H33A C21A 1_555 1_555
H34A C21A 1_555 1_555
Mn1_2 N2A 1_555 1_555
N2A_2 Mn1 1_555 1_555
C1 C3 1_555 1_555
C2 C5 1_555 1_555
N5 C15 1_555 1_555
C6 C11 1_555 1_555
C7 C10 1_555 1_555
C8 C14 1_555 1_555
C9 C16 1_555 1_555
O4A C19A 1_555 1_555
C2A C5A 1_555 1_555
N5A C15A 1_555 1_555
N5A C18A 1_555 1_555
C6A C11A 1_555 1_555
C7A C10A 1_555 1_555
C8A C14A 1_555 1_555
C9A C16A 1_555 1_555

#END
