
#######################################################################
#
#                 Cambridge Crystallographic Data Centre
#                                CCDC 
#
#######################################################################
#
# If this CIF has been generated from an entry in the Cambridge 
# Structural Database, then it will include bibliographic, chemical, 
# crystal, experimental, refinement or atomic coordinate data resulting 
# from the CCDC's data processing and validation procedures.
#
#######################################################################

data_BERVAX
_symmetry_cell_setting           monoclinic
_symmetry_space_group_name_H-M   'P 21/c'
_symmetry_Int_Tables_number      14
_space_group_name_Hall           '-P 2ybc'
loop_
_symmetry_equiv_pos_site_id
_symmetry_equiv_pos_as_xyz
1 x,y,z
2 -x,1/2+y,1/2-z
3 -x,-y,-z
4 x,1/2-y,1/2+z
_cell_length_a                   21.022(4)
_cell_length_b                   23.280(5)
_cell_length_c                   21.566(4)
_cell_angle_alpha                90
_cell_angle_beta                 102.10(3)
_cell_angle_gamma                90
_cell_volume                     10319.8
loop_
_atom_site_label
_atom_site_type_symbol
_atom_site_fract_x
_atom_site_fract_y
_atom_site_fract_z
I1 I -0.10923(4) 0.03338(3) 0.63931(4)
I2 I -0.09306(4) -0.02512(3) 0.84638(4)
Cu1 Cu -0.02988(7) 0.00669(6) 0.75549(7)
K1 K 0.22818(13) 0.50364(11) 0.77285(13)
N1 N 0.1278(5) 0.3313(4) 0.8361(5)
C1 C 0.0951(7) 0.2764(5) 0.9061(5)
H1 H 0.0880 0.2606 0.9447
N2 N 0.1104(5) 0.2810(3) 0.8029(4)
N3 N 0.0076(5) 0.0852(4) 0.7853(5)
C2 C 0.0290(6) 0.0974(5) 0.8464(6)
H2 H 0.0287 0.0674 0.8762
C3 C 0.0510(6) 0.1493(5) 0.8689(6)
H3 H 0.0613 0.1571 0.9131
C4 C 0.0580(5) 0.1916(4) 0.8238(5)
C5 C 0.0849(6) 0.2481(5) 0.8445(6)
C6 C 0.0128(7) 0.1264(4) 0.7418(5)
H4 H 0.0010 0.1178 0.6978
C7 C 0.1171(7) 0.3304(5) 0.8968(5)
H5 H 0.1236 0.3611 0.9264
C8 C 0.0350(5) 0.1800(4) 0.7610(5)
H6 H 0.0344 0.2095 0.7304
O1 O 0.2863(4) 0.4136(3) 0.7164(4)
O2 O 0.2996(5) 0.4751(4) 0.8875(5)
O3 O 0.2994(4) 0.5895(4) 0.8462(4)
N4 N 0.2182(5) 0.6250(4) 0.7274(5)
O4 O 0.2760(5) 0.5310(3) 0.6696(5)
N5 N 0.1243(5) 0.6884(4) 0.6909(6)
N6 N 0.2257(5) 0.3806(4) 0.8175(4)
C9 C 0.1543(5) 0.3802(4) 0.8072(5)
H7 H 0.1398 0.4161 0.8246
H8 H 0.1360 0.3799 0.7610
N7 N 0.1106(5) 0.7352(4) 0.7267(5)
C10 C 0.0841(6) 0.7547(5) 0.6184(6)
H9 H 0.0709 0.7762 0.5804
C11 C 0.1497(6) 0.6352(5) 0.7204(7)
H10 H 0.1392 0.6337 0.7631
H11 H 0.1261 0.6032 0.6954
C12 C 0.0854(6) 0.7754(5) 0.6798(8)
C13 C 0.1036(6) 0.7021(6) 0.6215(7)
H12 H 0.1047 0.6771 0.5870
C14 C 0.2561(6) 0.3803(5) 0.8872(6)
H13 H 0.2654 0.3404 0.9023
H14 H 0.2263 0.3981 0.9117
C15 C 0.2967(7) 0.5868(6) 0.6652(8)
H15 H 0.3152 0.5915 0.6269
H16 H 0.3309 0.5965 0.7028
C16 C 0.2604(7) 0.6649(5) 0.7711(6)
H17 H 0.2417 0.7041 0.7661
H18 H 0.3041 0.6663 0.7608
C17 C 0.2532(8) 0.3409(6) 0.7793(7)
H19 H 0.2301 0.3037 0.7783
H20 H 0.2993 0.3343 0.7997
C18 C 0.2495(6) 0.3614(5) 0.7091(6)
H21 H 0.2690 0.3326 0.6849
H22 H 0.2039 0.3685 0.6871
C19 C 0.3217(7) 0.4163(6) 0.8956(8)
H23 H 0.3495 0.4102 0.9382
H24 H 0.3465 0.4055 0.8630
C20 C 0.2669(8) 0.6428(6) 0.8468(7)
H25 H 0.2929 0.6701 0.8772
H26 H 0.2236 0.6378 0.8574
C21 C 0.2934(8) 0.4312(6) 0.6497(8)
H27 H 0.3214 0.4036 0.6329
H28 H 0.2504 0.4327 0.6203
C22 C 0.2371(7) 0.6270(6) 0.6614(7)
H29 H 0.2004 0.6137 0.6280
H30 H 0.2484 0.6668 0.6514
C23 C 0.3569(14) 0.5145(7) 0.9154(11)
H31 H 0.3904 0.5151 0.8893
H32 H 0.3771 0.5043 0.9597
C24 C 0.3158(9) 0.5748(8) 0.9106(9)
H33 H 0.2761 0.5697 0.9278
H34 H 0.3427 0.6054 0.9351
N8 N 0.0147(5) 0.9346(4) 0.7366(5)
C25 C 0.0463(6) 0.8723(5) 0.6599(6)
H35 H 0.0490 0.8666 0.6169
C26 C 0.0587(7) 0.8367(7) 0.7649(7)
H36 H 0.0675 0.8060 0.7945
C27 C 0.0651(6) 0.8293(4) 0.7026(7)
C28 C 0.0373(8) 0.8950(5) 0.7843(7)
H37 H 0.0393 0.9041 0.8276
C29 C 0.0234(7) 0.9237(5) 0.6778(7)
H38 H 0.0132 0.9532 0.6468
C30 C 0.3236(8) 0.4889(6) 0.6572(7)
H39 H 0.3619 0.4885 0.6930
H40 H 0.3386 0.4995 0.6182
I1A I 0.10923(4) 0.53338(3) 0.86069(4)
I2A I 0.09306(4) 0.47488(3) 0.65362(4)
Cu1_2 Cu -0.02988(7) 1.00669(6) 0.75549(7)
K1A K -0.22818(13) 0.00364(11) 0.72715(13)
N8_2 N 0.0147(5) -0.0654(4) 0.7366(5)
I3 I 0.58492(4) 0.48660(4) 0.87127(5)
I4 I 0.60174(5) 0.54616(4) 0.66900(5)
Cu2 Cu 0.52459(8) 0.51614(7) 0.74959(9)
K2 K 0.27798(13) 1.01518(10) 0.69641(12)
N9 N 0.4846(6) 0.5924(4) 0.7639(8)
O5 O 0.2231(4) 1.0974(3) 0.7667(4)
O6 O 0.2267(4) 1.0506(4) 0.5761(4)
O7 O 0.2379(5) 0.9346(4) 0.6044(4)
O8 O 0.2082(5) 0.9787(4) 0.7858(5)
N10 N 0.2858(5) 1.1379(4) 0.6640(5)
N11 N 0.3937(5) 1.2387(4) 0.6792(5)
N12 N 0.2821(5) 0.8907(4) 0.7275(5)
N13 N 0.3828(5) 1.1911(4) 0.6466(5)
N14 N 0.3734(5) 0.8395(5) 0.7960(6)
C31 C 0.3536(7) 0.8926(5) 0.7593(7)
H41 H 0.3801 0.8972 0.7266
H42 H 0.3618 0.9262 0.7880
N15 N 0.3922(5) 0.7960(4) 0.7668(5)
C32 C 0.4205(7) 1.2499(6) 0.5821(9)
H43 H 0.4348 1.2667 0.5473
C33 C 0.1968(9) 1.0149(7) 0.8289(7)
H44 H 0.2369 1.0223 0.8611
H45 H 0.1631 0.9994 0.8503
C34 C 0.1704(6) 1.0758(6) 0.7887(6)
H46 H 0.1338 1.0673 0.7528
H47 H 0.1554 1.1039 0.8170
C35 C 0.3556(7) 1.1392(6) 0.6718(6)
H48 H 0.3693 1.1050 0.6507
H49 H 0.3751 1.1360 0.7176
C36 C 0.4151(6) 1.2757(6) 0.6466(7)
C37 C 0.3993(6) 1.1973(6) 0.5895(8)
H50 H 0.3960 1.1677 0.5587
C38 C 0.3761(5) 0.8274(6) 0.8563(6)
H51 H 0.3651 0.8534 0.8863
C39 C 0.4737(8) 0.6356(5) 0.7247(7)
H52 H 0.4815 0.6296 0.6834
C40 C 0.2264(9) 1.0101(5) 0.5245(7)
H53 H 0.2017 1.0253 0.4837
H54 H 0.2712 1.0004 0.5203
C41 C 0.2512(8) 1.1058(6) 0.5520(6)
H55 H 0.2236 1.1177 0.5110
H56 H 0.2968 1.1020 0.5471
C42 C 0.4098(6) 0.7547(5) 0.8078(6)
C43 C 0.2454(6) 1.1493(6) 0.6065(7)
H57 H 0.2550 1.1884 0.5929
H58 H 0.1999 1.1491 0.6122
C44 C 0.4525(7) 0.6877(5) 0.7370(8)
H59 H 0.4481 0.7179 0.7068
C45 C 0.1947(8) 0.9618(8) 0.5449(7)
H60 H 0.1854 0.9330 0.5104
H61 H 0.1528 0.9741 0.5548
C46 C 0.2293(8) 0.9259(5) 0.8184(6)
H62 H 0.1976 0.9127 0.8433
H63 H 0.2723 0.9308 0.8472
C47 C 0.3969(8) 0.7727(6) 0.8694(7)
H64 H 0.4018 0.7517 0.9079
C48 C 0.4366(6) 0.6960(6) 0.7979(7)
C49 C 0.2109(8) 1.1506(5) 0.7398(7)
H65 H 0.1997 1.1776 0.7713
H66 H 0.1732 1.1483 0.7036
C50 C 0.2227(7) 0.8758(5) 0.6234(8)
H67 H 0.2262 0.8490 0.5887
H68 H 0.1769 0.8750 0.6285
C51 C 0.4665(6) 0.6002(6) 0.8135(8)
H69 H 0.4684 0.5685 0.8415
C52 C 0.2662(8) 0.8538(6) 0.6849(8)
H70 H 0.2433 0.8222 0.7017
H71 H 0.3063 0.8376 0.6746
C53 C 0.2340(7) 0.8787(6) 0.7599(10)
H72 H 0.2416 0.8398 0.7786
H73 H 0.1917 0.8781 0.7294
C54 C 0.4430(6) 0.6524(7) 0.8320(7)
H74 H 0.4315 0.6546 0.8723
C55 C 0.2669(7) 1.1716(5) 0.7180(6)
H75 H 0.3045 1.1718 0.7544
H76 H 0.2585 1.2119 0.7041
N16 N 0.4888(5) 1.4405(4) 0.7182(6)
C56 C 0.4387(7) 1.3312(5) 0.6701(7)
C57 C 0.4381(5) 1.3500(5) 0.7285(5)
H77 H 0.4235 1.3248 0.7572
C58 C 0.4581(8) 1.4047(7) 0.7488(6)
H78 H 0.4489 1.4174 0.7879
C59 C 0.4640(8) 1.3751(7) 0.6312(10)
H79 H 0.4663 1.3645 0.5892
C60 C 0.4825(7) 1.4250(7) 0.6489(8)
H80 H 0.4923 1.4523 0.6196
I3A I 0.41508(4) 0.98660(4) 0.62873(5)
I4A I 0.39826(5) 1.04616(4) 0.83100(5)
Cu2_2 Cu 0.52459(8) 1.51614(7) 0.74959(9)
K2A K 0.72202(13) 0.51518(10) 0.80359(12)
N16_2 N 0.4888(5) 0.4405(4) 0.7182(6)
loop_
_geom_bond_atom_site_label_1
_geom_bond_atom_site_label_2
_geom_bond_site_symmetry_1
_geom_bond_site_symmetry_2
I1 Cu1 1_555 1_555
I2 Cu1 1_555 1_555
Cu1 N3 1_555 1_555
K1 O1 1_555 1_555
N1 N2 1_555 1_555
C1 H1 1_555 1_555
N2 C5 1_555 1_555
N3 C2 1_555 1_555
C2 H2 1_555 1_555
C3 C2 1_555 1_555
H3 C3 1_555 1_555
C4 C3 1_555 1_555
C5 C1 1_555 1_555
C6 N3 1_555 1_555
H4 C6 1_555 1_555
C7 N1 1_555 1_555
H5 C7 1_555 1_555
C8 C4 1_555 1_555
H6 C8 1_555 1_555
O1 C18 1_555 1_555
O2 K1 1_555 1_555
O3 K1 1_555 1_555
N4 K1 1_555 1_555
O4 K1 1_555 1_555
N5 N7 1_555 1_555
N6 K1 1_555 1_555
C9 N1 1_555 1_555
H7 C9 1_555 1_555
H8 C9 1_555 1_555
N7 C12 1_555 1_555
C10 H9 1_555 1_555
C11 N4 1_555 1_555
H10 C11 1_555 1_555
H11 C11 1_555 1_555
C12 C10 1_555 1_555
C13 N5 1_555 1_555
H12 C13 1_555 1_555
C14 N6 1_555 1_555
H13 C14 1_555 1_555
H14 C14 1_555 1_555
C15 O4 1_555 1_555
H15 C15 1_555 1_555
H16 C15 1_555 1_555
C16 N4 1_555 1_555
H17 C16 1_555 1_555
H18 C16 1_555 1_555
C17 N6 1_555 1_555
H19 C17 1_555 1_555
H20 C17 1_555 1_555
C18 C17 1_555 1_555
H21 C18 1_555 1_555
H22 C18 1_555 1_555
C19 O2 1_555 1_555
H23 C19 1_555 1_555
H24 C19 1_555 1_555
C20 O3 1_555 1_555
H25 C20 1_555 1_555
H26 C20 1_555 1_555
C21 O1 1_555 1_555
H27 C21 1_555 1_555
H28 C21 1_555 1_555
C22 N4 1_555 1_555
H29 C22 1_555 1_555
H30 C22 1_555 1_555
C23 O2 1_555 1_555
H31 C23 1_555 1_555
H32 C23 1_555 1_555
C24 O3 1_555 1_555
H33 C24 1_555 1_555
H34 C24 1_555 1_555
N8 C28 1_555 1_555
C25 H35 1_555 1_555
C26 H36 1_555 1_555
C27 C12 1_555 1_555
C28 C26 1_555 1_555
H37 C28 1_555 1_555
C29 N8 1_555 1_555
H38 C29 1_555 1_555
C30 O4 1_555 1_555
H39 C30 1_555 1_555
H40 C30 1_555 1_555
I3 Cu2 1_555 1_555
I4 Cu2 1_555 1_555
Cu2 N9 1_555 1_555
K2 O5 1_555 1_555
N9 C39 1_555 1_555
O5 C34 1_555 1_555
O6 K2 1_555 1_555
O7 K2 1_555 1_555
O8 K2 1_555 1_555
N10 K2 1_555 1_555
N11 N13 1_555 1_555
N12 K2 1_555 1_555
N13 C35 1_555 1_555
N14 C31 1_555 1_555
C31 N12 1_555 1_555
H41 C31 1_555 1_555
H42 C31 1_555 1_555
N15 N14 1_555 1_555
C32 H43 1_555 1_555
C33 O8 1_555 1_555
H44 C33 1_555 1_555
H45 C33 1_555 1_555
C34 C33 1_555 1_555
H46 C34 1_555 1_555
H47 C34 1_555 1_555
C35 N10 1_555 1_555
H48 C35 1_555 1_555
H49 C35 1_555 1_555
C36 N11 1_555 1_555
C37 N13 1_555 1_555
H50 C37 1_555 1_555
C38 N14 1_555 1_555
H51 C38 1_555 1_555
C39 H52 1_555 1_555
C40 O6 1_555 1_555
H53 C40 1_555 1_555
H54 C40 1_555 1_555
C41 O6 1_555 1_555
H55 C41 1_555 1_555
H56 C41 1_555 1_555
C42 N15 1_555 1_555
C43 N10 1_555 1_555
H57 C43 1_555 1_555
H58 C43 1_555 1_555
C44 C39 1_555 1_555
H59 C44 1_555 1_555
C45 O7 1_555 1_555
H60 C45 1_555 1_555
H61 C45 1_555 1_555
C46 O8 1_555 1_555
H62 C46 1_555 1_555
H63 C46 1_555 1_555
C47 C38 1_555 1_555
H64 C47 1_555 1_555
C48 C42 1_555 1_555
C49 O5 1_555 1_555
H65 C49 1_555 1_555
H66 C49 1_555 1_555
C50 O7 1_555 1_555
H67 C50 1_555 1_555
H68 C50 1_555 1_555
C51 N9 1_555 1_555
H69 C51 1_555 1_555
C52 N12 1_555 1_555
H70 C52 1_555 1_555
H71 C52 1_555 1_555
C53 N12 1_555 1_555
H72 C53 1_555 1_555
H73 C53 1_555 1_555
C54 C48 1_555 1_555
H74 C54 1_555 1_555
C55 N10 1_555 1_555
H75 C55 1_555 1_555
H76 C55 1_555 1_555
N16 C58 1_555 1_555
C56 C36 1_555 1_555
C57 C56 1_555 1_555
H77 C57 1_555 1_555
C58 C57 1_555 1_555
H78 C58 1_555 1_555
C59 C56 1_555 1_555
H79 C59 1_555 1_555
C60 N16 1_555 1_555
H80 C60 1_555 1_555
I1A K1 1_555 1_555
I2A K1 1_555 1_555
Cu1_2 N8 1_555 1_555
K1A I1 1_555 1_555
N8_2 Cu1 1_555 1_555
I3A K2 1_555 1_555
I4A K2 1_555 1_555
Cu2_2 N16 1_555 1_555
K2A I3 1_555 1_555
N16_2 Cu2 1_555 1_555
I2 K1A 1_555 1_555
C1 C7 1_555 1_555
C4 C5 1_555 1_555
C6 C8 1_555 1_555
N5 C11 1_555 1_555
N6 C9 1_555 1_555
C10 C13 1_555 1_555
C14 C19 1_555 1_555
C15 C22 1_555 1_555
C16 C20 1_555 1_555
C21 C30 1_555 1_555
C23 C24 1_555 1_555
C25 C27 1_555 1_555
C25 C29 1_555 1_555
C26 C27 1_555 1_555
I4 K2A 1_555 1_555
C32 C36 1_555 1_555
C32 C37 1_555 1_555
C40 C45 1_555 1_555
C41 C43 1_555 1_555
C42 C47 1_555 1_555
C44 C48 1_555 1_555
C46 C53 1_555 1_555
C49 C55 1_555 1_555
C50 C52 1_555 1_555
C51 C54 1_555 1_555
C59 C60 1_555 1_555

#END
