
#######################################################################
#
#                 Cambridge Crystallographic Data Centre
#                                CCDC 
#
#######################################################################
#
# If this CIF has been generated from an entry in the Cambridge 
# Structural Database, then it will include bibliographic, chemical, 
# crystal, experimental, refinement or atomic coordinate data resulting 
# from the CCDC's data processing and validation procedures.
#
#######################################################################

data_BESNET
_symmetry_cell_setting           monoclinic
_symmetry_space_group_name_H-M   'C 2'
_symmetry_Int_Tables_number      5
_space_group_name_Hall           'C 2y'
loop_
_symmetry_equiv_pos_site_id
_symmetry_equiv_pos_as_xyz
1 x,y,z
2 -x,y,-z
3 1/2+x,1/2+y,z
4 1/2-x,1/2+y,-z
_cell_length_a                   30.25
_cell_length_b                   7.49
_cell_length_c                   8.79
_cell_angle_alpha                90
_cell_angle_beta                 92.36
_cell_angle_gamma                90
_cell_volume                     1989.88
loop_
_atom_site_label
_atom_site_type_symbol
_atom_site_fract_x
_atom_site_fract_y
_atom_site_fract_z
Hg1 Hg 0.0000 0.24859(5) 1.0000
Hg2 Hg 0.0000 -0.24951(4) 0.5000
Cl1 Cl -0.04291(5) -0.3309(3) 0.27968(18)
N1 N 0.05436(15) 0.4041(7) 1.1502(5)
Cl2 Cl -0.04580(5) 0.1611(3) 1.20108(17)
O1 O 0.16101(14) 0.5961(6) 0.9441(4)
C1 C 0.1665(2) 0.5952(8) 1.0960(6)
C2 C 0.17069(19) 0.1026(8) 0.4704(6)
C3 C 0.08960(17) 0.4678(8) 1.0839(6)
O2 O 0.19978(15) 0.6438(9) 1.1644(5)
C4 C 0.12682(17) 0.5276(8) 1.1691(6)
C5 C 0.13090(17) 0.0311(7) 0.3843(6)
C6 C 0.12671(19) 0.5175(9) 1.3271(6)
O3 O 0.20505(15) 0.1366(8) 0.4149(5)
C7 C 0.13136(19) 0.0265(8) 0.2254(6)
O4 O 0.21100(14) 0.3098(7) 0.9559(4)
N2 N 0.05825(15) -0.0913(7) 0.3739(5)
C8 C 0.0949(2) -0.0360(8) 0.1438(6)
C9 C 0.09350(17) -0.0294(8) 0.4539(6)
C10 C 0.05415(19) 0.3962(8) 1.3015(6)
C11 C 0.0897(2) 0.4500(8) 1.3953(6)
C12 C 0.18195(19) 0.1883(9) 0.8758(6)
C13 C 0.1988(2) 0.1803(10) 0.7164(6)
C14 C 0.22576(19) 0.4398(8) 0.8513(6)
C15 C 0.21380(19) 0.3712(9) 0.6900(6)
C16 C 0.2003(2) 0.6200(9) 0.8597(6)
C17 C 0.0588(2) -0.0946(9) 0.2224(7)
O5 O 0.16248(13) 0.1195(6) 0.6181(4)
O6 O 0.17763(14) 0.4767(7) 0.6341(4)
C18 C 0.1848(2) 0.6520(10) 0.6947(6)
H1 H 0.0896 0.4731 0.9759
H2 H 0.1517 0.5562 1.3876
H3 H 0.1566 0.0663 0.1745
H4 H 0.0945 -0.0394 0.0357
H5 H 0.0929 -0.0267 0.5618
H6 H 0.0285 0.3516 1.3474
H7 H 0.0887 0.4410 1.5029
H8 H 0.1511 0.2324 0.8743
H9 H 0.1831 0.0688 0.9240
H10 H 0.2243 0.0961 0.7122
H11 H 0.2584 0.4593 0.8652
H12 H 0.2395 0.3770 0.6222
H13 H 0.2195 0.7190 0.9012
H14 H 0.0336 -0.1383 0.1663
H15 H 0.1571 0.7226 0.6893
H16 H 0.2077 0.7159 0.6385
N1A N -0.05436(15) 0.4041(7) 0.8498(5)
O1A O -0.16101(14) 0.5961(6) 1.0559(4)
C1A C -0.1665(2) 0.5952(8) 0.9040(6)
C2A C -0.17069(19) 0.1026(8) 1.5296(6)
C3A C -0.08960(17) 0.4678(8) 0.9161(6)
O2A O -0.19978(15) 0.6438(9) 0.8356(5)
C4A C -0.12682(17) 0.5276(8) 0.8309(6)
C5A C -0.13090(17) 0.0311(7) 1.6157(6)
C6A C -0.12671(19) 0.5175(9) 0.6729(6)
O3A O -0.20505(15) 0.1366(8) 1.5851(5)
C7A C -0.13136(19) 0.0265(8) 1.7746(6)
O4A O -0.21100(14) 0.3098(7) 1.0441(4)
N2A N -0.05825(15) -0.0913(7) 1.6261(5)
C8A C -0.0949(2) -0.0360(8) 1.8562(6)
C9A C -0.09350(17) -0.0294(8) 1.5461(6)
C10A C -0.05415(19) 0.3962(8) 0.6985(6)
C11A C -0.0897(2) 0.4500(8) 0.6047(6)
C12A C -0.18195(19) 0.1883(9) 1.1242(6)
C13A C -0.1988(2) 0.1803(10) 1.2836(6)
C14A C -0.22576(19) 0.4398(8) 1.1487(6)
C15A C -0.21380(19) 0.3712(9) 1.3100(6)
C16A C -0.2003(2) 0.6200(9) 1.1403(6)
C17A C -0.0588(2) -0.0946(9) 1.7776(7)
O5A O -0.16248(13) 0.1195(6) 1.3819(4)
O6A O -0.17763(14) 0.4767(7) 1.3659(4)
C18A C -0.1848(2) 0.6520(10) 1.3053(6)
H1A H -0.0896 0.4731 1.0241
H2A H -0.1517 0.5562 0.6124
H3A H -0.1566 0.0663 1.8255
H4A H -0.0945 -0.0394 1.9643
H5A H -0.0929 -0.0267 1.4382
H6A H -0.0285 0.3516 0.6526
H7A H -0.0887 0.4410 0.4971
H8A H -0.1511 0.2324 1.1257
H9A H -0.1831 0.0688 1.0760
H10A H -0.2243 0.0961 1.2878
H11A H -0.2584 0.4593 1.1348
H12A H -0.2395 0.3770 1.3778
H13A H -0.2195 0.7190 1.0988
H14A H -0.0336 -0.1383 1.8337
H15A H -0.1571 0.7226 1.3107
H16A H -0.2077 0.7159 1.3615
Cl2A Cl 0.04580(5) 0.1611(3) 0.79892(17)
Cl1A Cl 0.04291(5) -0.3309(3) 0.72032(18)
N2A_2 N -0.05825(15) -0.0913(7) 0.6261(5)
Hg2_2 Hg 0.0000 -0.24951(4) 1.5000
loop_
_geom_bond_atom_site_label_1
_geom_bond_atom_site_label_2
_geom_bond_site_symmetry_1
_geom_bond_site_symmetry_2
Hg1 N1 1_555 1_555
Hg2 Cl1 1_555 1_555
N1 C3 1_555 1_555
Cl2 Hg1 1_555 1_555
O1 C1 1_555 1_555
C1 O2 1_555 1_555
C2 C5 1_555 1_555
C3 C4 1_555 1_555
C4 C1 1_555 1_555
C5 C7 1_555 1_555
C6 C4 1_555 1_555
O3 C2 1_555 1_555
C7 C8 1_555 1_555
O4 C12 1_555 1_555
N2 Hg2 1_555 1_555
C8 C17 1_555 1_555
C9 C5 1_555 1_555
C10 N1 1_555 1_555
C11 C6 1_555 1_555
C12 C13 1_555 1_555
C13 C15 1_555 1_555
C14 O4 1_555 1_555
C15 C14 1_555 1_555
C16 O1 1_555 1_555
C17 N2 1_555 1_555
O5 C2 1_555 1_555
O6 C15 1_555 1_555
C18 C16 1_555 1_555
H1 C3 1_555 1_555
H2 C6 1_555 1_555
H3 C7 1_555 1_555
H4 C8 1_555 1_555
H5 C9 1_555 1_555
H6 C10 1_555 1_555
H7 C11 1_555 1_555
H8 C12 1_555 1_555
H9 C12 1_555 1_555
H10 C13 1_555 1_555
H11 C14 1_555 1_555
H12 C15 1_555 1_555
H13 C16 1_555 1_555
H14 C17 1_555 1_555
H15 C18 1_555 1_555
H16 C18 1_555 1_555
N1A Hg1 1_555 1_555
O1A C1A 1_555 1_555
C1A O2A 1_555 1_555
C2A C5A 1_555 1_555
C3A N1A 1_555 1_555
C4A C1A 1_555 1_555
C5A C7A 1_555 1_555
C6A C4A 1_555 1_555
O3A C2A 1_555 1_555
C7A C8A 1_555 1_555
O4A C12A 1_555 1_555
N2A C9A 1_555 1_555
C8A C17A 1_555 1_555
C9A C5A 1_555 1_555
C10A N1A 1_555 1_555
C11A C6A 1_555 1_555
C12A C13A 1_555 1_555
C13A C15A 1_555 1_555
C14A O4A 1_555 1_555
C15A C14A 1_555 1_555
C16A O1A 1_555 1_555
C17A N2A 1_555 1_555
O5A C2A 1_555 1_555
O6A C15A 1_555 1_555
C18A C16A 1_555 1_555
H1A C3A 1_555 1_555
H2A C6A 1_555 1_555
H3A C7A 1_555 1_555
H4A C8A 1_555 1_555
H5A C9A 1_555 1_555
H6A C10A 1_555 1_555
H7A C11A 1_555 1_555
H8A C12A 1_555 1_555
H9A C12A 1_555 1_555
H10A C13A 1_555 1_555
H11A C14A 1_555 1_555
H12A C15A 1_555 1_555
H13A C16A 1_555 1_555
H14A C17A 1_555 1_555
H15A C18A 1_555 1_555
H16A C18A 1_555 1_555
Cl2A Hg1 1_555 1_555
Cl1A Hg2 1_555 1_555
N2A_2 Hg2 1_555 1_555
Hg2_2 N2A 1_555 1_555
N2 C9 1_555 1_555
C10 C11 1_555 1_555
C13 O5 1_555 1_555
C14 C16 1_555 1_555
O6 C18 1_555 1_555
C3A C4A 1_555 1_555
C10A C11A 1_555 1_555
C13A O5A 1_555 1_555
C14A C16A 1_555 1_555
O6A C18A 1_555 1_555

#END
