
#######################################################################
#
#                 Cambridge Crystallographic Data Centre
#                                CCDC 
#
#######################################################################
#
# If this CIF has been generated from an entry in the Cambridge 
# Structural Database, then it will include bibliographic, chemical, 
# crystal, experimental, refinement or atomic coordinate data resulting 
# from the CCDC's data processing and validation procedures.
#
#######################################################################

data_BESQEX
_symmetry_cell_setting           monoclinic
_symmetry_space_group_name_H-M   'P 21'
_symmetry_Int_Tables_number      4
_space_group_name_Hall           'P 2yb'
loop_
_symmetry_equiv_pos_site_id
_symmetry_equiv_pos_as_xyz
1 x,y,z
2 -x,1/2+y,-z
_cell_length_a                   6.6344(12)
_cell_length_b                   7.794(3)
_cell_length_c                   10.419(2)
_cell_angle_alpha                90
_cell_angle_beta                 99.716(5)
_cell_angle_gamma                90
_cell_volume                     531.023
loop_
_atom_site_label
_atom_site_type_symbol
_atom_site_fract_x
_atom_site_fract_y
_atom_site_fract_z
Cd1 Cd 0.988195(19) 0.60049(3) 1.005318(12)
S1 S 1.15784(7) 0.85593(7) 0.74246(4)
Cl1 Cl 1.25341(7) 0.35728(7) 1.01476(4)
O1 O 1.3558(2) 0.8478(2) 0.70170(14)
O2 O 1.1147(3) 0.70749(19) 0.81986(15)
O3 O 1.1217(3) 1.02016(19) 0.80376(16)
C1 C 0.9727(3) 0.8465(3) 0.59755(17)
C2 C 1.0255(3) 0.8866(3) 0.4777(2)
H1 H 1.1623 0.9170 0.4719
C3 C 0.7738(3) 0.8024(3) 0.6088(2)
H2 H 0.7396 0.7769 0.6916
C4 C 0.6248(3) 0.7959(3) 0.4974(2)
H3 H 0.4886 0.7631 0.5030
C5 C 0.6782(3) 0.8384(3) 0.37757(18)
C6 C 0.8759(3) 0.8819(3) 0.3651(2)
H4 H 0.9097 0.9080 0.2822
N1 N 0.5170(2) 0.8395(2) 0.26569(15)
C7 C 0.4304(3) 0.9807(2) 0.2010(2)
H5 H 0.4814 1.0945 0.2130
N2 N 0.2657(3) 0.9349(2) 0.11970(18)
N3 N 0.2456(3) 0.7592(2) 0.12956(18)
C8 C 0.3983(3) 0.7047(2) 0.2172(2)
H6 H 0.4220 0.5885 0.2427
Cd1_2 Cd -0.011805(19) 0.60049(3) 0.005318(12)
Cd1A Cd 0.011805(19) 1.10049(3) -0.005318(12)
Cd1A_2 Cd 1.011805(19) 0.10049(3) 0.994682(12)
Cd1A_3 Cd 1.011805(19) 1.10049(3) 0.994682(12)
Cl1A Cl 0.74659(7) 0.85728(7) 0.98524(4)
O3A O 0.8783(3) 0.52016(19) 1.19624(16)
N2A N 0.7343(3) 0.4349(2) 0.88030(18)
N3_2 N 1.2456(3) 0.7592(2) 1.12956(18)
loop_
_geom_bond_atom_site_label_1
_geom_bond_atom_site_label_2
_geom_bond_site_symmetry_1
_geom_bond_site_symmetry_2
Cd1 Cl1 1_555 1_555
S1 O1 1_555 1_555
Cl1 Cd1A_2 1_555 1_555
O2 Cd1 1_555 1_555
O3 S1 1_555 1_555
C1 S1 1_555 1_555
C2 C1 1_555 1_555
H1 C2 1_555 1_555
C3 C1 1_555 1_555
H2 C3 1_555 1_555
C4 C3 1_555 1_555
H3 C4 1_555 1_555
C5 C4 1_555 1_555
C6 C2 1_555 1_555
H4 C6 1_555 1_555
N1 C5 1_555 1_555
C7 N1 1_555 1_555
H5 C7 1_555 1_555
N2 C7 1_555 1_555
N3 N2 1_555 1_555
C8 N1 1_555 1_555
H6 C8 1_555 1_555
Cd1_2 N3 1_555 1_555
Cd1A N2 1_555 1_555
Cd1A_3 O3 1_555 1_555
Cl1A Cd1 1_555 1_555
O3A Cd1 1_555 1_555
N2A Cd1 1_555 1_555
N3_2 Cd1 1_555 1_555
S1 O2 1_555 1_555
C5 C6 1_555 1_555
N3 C8 1_555 1_555
Cd1A_3 Cl1A 1_555 1_555

#END
