
#######################################################################
#
#                 Cambridge Crystallographic Data Centre
#                                CCDC 
#
#######################################################################
#
# If this CIF has been generated from an entry in the Cambridge 
# Structural Database, then it will include bibliographic, chemical, 
# crystal, experimental, refinement or atomic coordinate data resulting 
# from the CCDC's data processing and validation procedures.
#
#######################################################################

data_BESQAT
_symmetry_cell_setting           triclinic
_symmetry_space_group_name_H-M   'P -1'
_symmetry_Int_Tables_number      2
_space_group_name_Hall           '-P 1'
loop_
_symmetry_equiv_pos_site_id
_symmetry_equiv_pos_as_xyz
1 x,y,z
2 -x,-y,-z
_cell_length_a                   6.1479(3)
_cell_length_b                   7.9347(4)
_cell_length_c                   8.5948(5)
_cell_angle_alpha                94.4470(10)
_cell_angle_beta                 102.6400(10)
_cell_angle_gamma                91.3460(10)
_cell_volume                     407.524
loop_
_atom_site_label
_atom_site_type_symbol
_atom_site_fract_x
_atom_site_fract_y
_atom_site_fract_z
Cd1 Cd 0.5000 0.5000 0.5000
Cd2 Cd 0.5000 1.0000 0.5000
Cl1 Cl 0.77820(4) 0.75691(4) 0.53278(3)
S1 S 1.60502(4) 1.22266(4) 1.18096(3)
N1 N 0.76724(17) 1.18028(13) 0.66317(12)
N2 N 1.07329(16) 1.28852(13) 0.82196(12)
N3 N 0.76205(17) 1.35421(13) 0.66615(12)
O1 O 1.63064(15) 1.07928(12) 1.27985(11)
O2 O 1.76135(15) 1.22125(13) 1.07579(11)
O3 O 1.61182(15) 1.38662(11) 1.27278(10)
C1 C 1.3006(2) 1.30821(18) 0.92230(16)
H1 H 1.3301 1.4273 0.9674
H2 H 1.4096 1.2812 0.8555
C2 C 1.33123(19) 1.19288(16) 1.05779(14)
H3 H 1.3063 1.0735 1.0129
H4 H 1.2199 1.2177 1.1231
C3 C 0.9478(2) 1.41595(16) 0.76140(15)
H5 H 0.9883 1.5330 0.7845
C4 C 0.9563(2) 1.14413(16) 0.75655(14)
H6 H 1.0040 1.0331 0.7754
Cl1A Cl 0.22180(4) 0.24309(4) 0.46722(3)
S1A S -0.60502(4) 0.77734(4) -0.18096(3)
N1A N 0.23276(17) 0.81972(13) 0.33683(12)
N2A N -0.07329(16) 0.71148(13) 0.17804(12)
N3A N 0.23795(17) 0.64579(13) 0.33385(12)
O1A O -0.63064(15) 0.92072(12) -0.27985(11)
O2A O -0.76135(15) 0.77875(13) -0.07579(11)
O3A O -0.61182(15) 0.61338(11) -0.27278(10)
C1A C -0.3006(2) 0.69179(18) 0.07770(16)
H1A H -0.3301 0.5727 0.0326
H2A H -0.4096 0.7188 0.1445
C2A C -0.33123(19) 0.80712(16) -0.05779(14)
H3A H -0.3063 0.9265 -0.0129
H4A H -0.2199 0.7823 -0.1231
C3A C 0.0522(2) 0.58405(16) 0.23860(15)
H5A H 0.0117 0.4670 0.2155
C4A C 0.0437(2) 0.85587(16) 0.24345(14)
H6A H -0.0040 0.9669 0.2246
Cd1_2 Cd -0.5000 0.5000 -0.5000
Cd1_3 Cd 0.5000 1.5000 0.5000
Cd1_4 Cd 1.5000 1.5000 1.5000
Cd2_2 Cd -0.5000 1.0000 -0.5000
Cd2_3 Cd 0.5000 0.0000 0.5000
Cd2_4 Cd 1.5000 1.0000 1.5000
Cl1A_2 Cl 0.22180(4) 1.24309(4) 0.46722(3)
N3_2 N 0.76205(17) 0.35421(13) 0.66615(12)
O1_2 O 0.63064(15) 1.07928(12) 0.27985(11)
O1A_2 O 0.36936(15) 0.92072(12) 0.72015(11)
O3_2 O 0.61182(15) 0.38662(11) 0.27278(10)
O3A_2 O 0.38818(15) 0.61338(11) 0.72722(10)
loop_
_geom_bond_atom_site_label_1
_geom_bond_atom_site_label_2
_geom_bond_site_symmetry_1
_geom_bond_site_symmetry_2
Cd1 Cl1 1_555 1_555
Cd2 Cl1 1_555 1_555
S1 O1 1_555 1_555
N1 Cd2 1_555 1_555
N2 C1 1_555 1_555
N3 N1 1_555 1_555
O1 Cd2_4 1_555 1_555
O2 S1 1_555 1_555
O3 S1 1_555 1_555
C1 H1 1_555 1_555
H2 C1 1_555 1_555
C2 S1 1_555 1_555
H3 C2 1_555 1_555
H4 C2 1_555 1_555
C3 N2 1_555 1_555
H5 C3 1_555 1_555
C4 N1 1_555 1_555
H6 C4 1_555 1_555
Cl1A Cd1 1_555 1_555
S1A O1A 1_555 1_555
N1A Cd2 1_555 1_555
N2A C1A 1_555 1_555
N3A Cd1 1_555 1_555
O1A Cd2_2 1_555 1_555
O2A S1A 1_555 1_555
O3A S1A 1_555 1_555
C1A H1A 1_555 1_555
H2A C1A 1_555 1_555
C2A S1A 1_555 1_555
H3A C2A 1_555 1_555
H4A C2A 1_555 1_555
C3A N2A 1_555 1_555
H5A C3A 1_555 1_555
C4A N1A 1_555 1_555
H6A C4A 1_555 1_555
Cd1_2 O3A 1_555 1_555
Cd1_3 N3 1_555 1_555
Cd1_4 O3 1_555 1_555
Cd2_3 Cl1A 1_555 1_555
Cl1A_2 Cd2 1_555 1_555
N3_2 Cd1 1_555 1_555
O1_2 Cd2 1_555 1_555
O1A_2 Cd2 1_555 1_555
O3_2 Cd1 1_555 1_555
O3A_2 Cd1 1_555 1_555
N2 C4 1_555 1_555
N3 C3 1_555 1_555
C1 C2 1_555 1_555
N1A N3A 1_555 1_555
N2A C4A 1_555 1_555
N3A C3A 1_555 1_555
C1A C2A 1_555 1_555
Cd1_3 Cl1A_2 1_555 1_555

#END
