
#######################################################################
#
#                 Cambridge Crystallographic Data Centre
#                                CCDC 
#
#######################################################################
#
# If this CIF has been generated from an entry in the Cambridge 
# Structural Database, then it will include bibliographic, chemical, 
# crystal, experimental, refinement or atomic coordinate data resulting 
# from the CCDC's data processing and validation procedures.
#
#######################################################################

data_BESRAS01
_symmetry_cell_setting           monoclinic
_symmetry_space_group_name_H-M   'C 2/c'
_symmetry_Int_Tables_number      15
_space_group_name_Hall           '-C 2yn'
loop_
_symmetry_equiv_pos_site_id
_symmetry_equiv_pos_as_xyz
1 x,y,z
2 -x,y,1/2-z
3 1/2+x,1/2+y,z
4 1/2-x,1/2+y,1/2-z
5 -x,-y,-z
6 x,-y,1/2+z
7 1/2-x,1/2-y,-z
8 1/2+x,1/2-y,1/2+z
_cell_length_a                   15.338(3)
_cell_length_b                   6.1963(12)
_cell_length_c                   20.000(8)
_cell_angle_alpha                90
_cell_angle_beta                 121.09(2)
_cell_angle_gamma                90
_cell_volume                     1627.74
loop_
_atom_site_label
_atom_site_type_symbol
_atom_site_fract_x
_atom_site_fract_y
_atom_site_fract_z
O4 O 0.2754(3) 0.3187(8) 0.7822(2)
H9 H 0.2481 0.3818 0.8052
H10 H 0.2336 0.2221 0.7514
Cd1 Cd 0.5000 0.92333(4) 0.2500
N1 N -0.04115(18) 0.5428(4) -0.14811(14)
H1 H -0.0832 0.6422 -0.1765
H2 H -0.0486 0.4135 -0.1659
O1 O 0.32597(14) 0.9706(3) 0.15796(11)
O2 O 0.37991(16) 0.6367(4) 0.17934(12)
O3 O 0.4922(6) 1.2956(6) 0.2652(4)
H3 H 0.4308 1.3685 0.2357
H4 H 0.5505 1.3707 0.3008
C1 C 0.31132(16) 0.7719(4) 0.14050(13)
C2 C 0.21319(17) 0.7039(4) 0.07042(13)
C3 C 0.1989(2) 0.4916(4) 0.04318(15)
H5 H 0.2469 0.3866 0.0726
C4 C 0.1132(2) 0.4372(4) -0.02763(17)
H6 H 0.1044 0.2958 -0.0455
C5 C 0.04037(19) 0.5920(4) -0.07216(15)
C6 C 0.05241(19) 0.8009(4) -0.04340(15)
H7 H 0.0027 0.9043 -0.0715
C7 C 0.13865(19) 0.8554(4) 0.02732(15)
H8 H 0.1464 0.9959 0.0460
O3A O 0.5078(6) 1.2956(6) 0.2348(4)
H3A H 0.5692 1.3685 0.2643
H4A H 0.4495 1.3707 0.1992
N1A N 1.04115(18) 0.5428(4) 0.64811(14)
H1A H 1.0832 0.6422 0.6765
H2A H 1.0486 0.4135 0.6659
O1A O 0.67403(14) 0.9706(3) 0.34204(11)
O2A O 0.62009(16) 0.6367(4) 0.32066(12)
C1A C 0.68868(16) 0.7719(4) 0.35950(13)
C2A C 0.78681(17) 0.7039(4) 0.42958(13)
C3A C 0.8011(2) 0.4916(4) 0.45682(15)
H5A H 0.7531 0.3866 0.4274
C4A C 0.8868(2) 0.4372(4) 0.52763(17)
H6A H 0.8956 0.2958 0.5455
C5A C 0.95963(19) 0.5920(4) 0.57216(15)
C6A C 0.94759(19) 0.8009(4) 0.54340(15)
H7A H 0.9973 0.9043 0.5715
C7A C 0.86135(19) 0.8554(4) 0.47268(15)
H8A H 0.8536 0.9959 0.4540
Cd1F Cd 0.0000 0.57667(4) -0.2500
Cd1F_2 Cd 1.0000 0.57667(4) 0.7500
N1F N 0.54115(18) 0.9572(4) 0.14811(14)
N1G N 0.45885(18) 0.9572(4) 0.35189(14)
loop_
_geom_bond_atom_site_label_1
_geom_bond_atom_site_label_2
_geom_bond_site_symmetry_1
_geom_bond_site_symmetry_2
Cd1 O1 1_555 1_555
N1 H1 1_555 1_555
H2 N1 1_555 1_555
O1 C1 1_555 1_555
O2 Cd1 1_555 1_555
O3 Cd1 1_555 1_555
H3 O3 1_555 1_555
H4 O3 1_555 1_555
C1 O2 1_555 1_555
C2 C1 1_555 1_555
C3 C2 1_555 1_555
H5 C3 1_555 1_555
C4 C3 1_555 1_555
H6 C4 1_555 1_555
C5 N1 1_555 1_555
C6 C5 1_555 1_555
H7 C6 1_555 1_555
C7 C2 1_555 1_555
H8 C7 1_555 1_555
O4 H9 1_555 1_555
H10 O4 1_555 1_555
O3A Cd1 1_555 1_555
H3A O3 1_555 1_555
H4A O3 1_555 1_555
N1A H1A 1_555 1_555
H2A N1A 1_555 1_555
O1A Cd1 1_555 1_555
O2A Cd1 1_555 1_555
C1A O1A 1_555 1_555
C2A C1A 1_555 1_555
C3A C2A 1_555 1_555
H5A C3A 1_555 1_555
C4A C3A 1_555 1_555
H6A C4A 1_555 1_555
C5A N1A 1_555 1_555
C6A C5A 1_555 1_555
H7A C6A 1_555 1_555
C7A C2A 1_555 1_555
H8A C7A 1_555 1_555
Cd1F N1 1_555 1_555
Cd1F_2 N1A 1_555 1_555
N1F Cd1 1_555 1_555
N1G Cd1 1_555 1_555
O3 O3A 1_555 1_555
H3 O3A 1_555 1_555
H4 O3A 1_555 1_555
C4 C5 1_555 1_555
C6 C7 1_555 1_555
O3A H3A 1_555 1_555
O3A H4A 1_555 1_555
O2A C1A 1_555 1_555
C4A C5A 1_555 1_555
C6A C7A 1_555 1_555

#END
