
#######################################################################
#
#                 Cambridge Crystallographic Data Centre
#                                CCDC 
#
#######################################################################
#
# If this CIF has been generated from an entry in the Cambridge 
# Structural Database, then it will include bibliographic, chemical, 
# crystal, experimental, refinement or atomic coordinate data resulting 
# from the CCDC's data processing and validation procedures.
#
#######################################################################

data_BESTUQ
_symmetry_cell_setting           monoclinic
_symmetry_space_group_name_H-M   'P 21/c'
_symmetry_Int_Tables_number      14
_space_group_name_Hall           '-P 2ybc'
loop_
_symmetry_equiv_pos_site_id
_symmetry_equiv_pos_as_xyz
1 x,y,z
2 -x,1/2+y,1/2-z
3 -x,-y,-z
4 x,1/2-y,1/2+z
_cell_length_a                   16.091(12)
_cell_length_b                   8.987(6)
_cell_length_c                   24.710(13)
_cell_angle_alpha                90
_cell_angle_beta                 128.62(3)
_cell_angle_gamma                90
_cell_volume                     2791.84
loop_
_atom_site_label
_atom_site_type_symbol
_atom_site_fract_x
_atom_site_fract_y
_atom_site_fract_z
Ni1 Ni 0.19284(4) 0.44888(6) 0.88790(2)
Co1 Co 0.24774(5) 0.52892(8) 0.70514(3)
O1 O 0.2071(2) 0.3438(4) 0.74175(14)
O2 O 0.3243(2) 0.5881(4) 0.80915(14)
O3 O 0.2576(3) 0.8949(5) 1.03992(19)
O4 O 0.2941(3) 0.6728(5) 1.09206(17)
O5 O 0.0177(3) 0.0929(4) 0.93426(15)
O6 O -0.1096(2) 0.1164(4) 0.81846(14)
O7 O 0.3038(3) 0.7298(5) 0.69721(18)
H1 H 0.3142 0.7377 0.6676
O8 O 0.3710(4) 0.4039(6) 0.7228(2)
H2 H 0.3910 0.4191 0.6986
O9 O 0.1685(3) 0.4921(4) 0.59942(16)
H3 H 0.1051 0.5214 0.5793
H4 H 0.1973 0.5183 0.5815
N1 N 0.1880(3) 0.3134(4) 0.82805(16)
N2 N 0.2969(3) 0.5491(4) 0.89071(17)
N3 N 0.1925(3) 0.5916(4) 0.94377(17)
N4 N 0.0865(3) 0.3494(4) 0.88429(17)
C1 C 0.2192(3) 0.3812(5) 0.7949(2)
C2 C 0.2850(3) 0.5213(5) 0.8334(2)
C3 C 0.3747(3) 0.6488(5) 0.9431(2)
C4 C 0.3643(3) 0.7031(5) 0.9926(2)
C5 C 0.4473(4) 0.7914(6) 1.0472(2)
H5 H 0.4420 0.8272 1.0803
C6 C 0.5362(4) 0.8263(7) 1.0532(2)
H6 H 0.5890 0.8868 1.0891
C7 C 0.5460(4) 0.7707(7) 1.0055(3)
H7 H 0.6065 0.7924 1.0100
C8 C 0.4672(4) 0.6829(6) 0.9511(2)
H8 H 0.4753 0.6461 0.9194
C9 C 0.2708(3) 0.6794(5) 0.9888(2)
C10 C 0.2742(4) 0.7562(7) 1.0458(2)
C11 C 0.0959(3) 0.5816(5) 0.9351(2)
C12 C 0.0388(3) 0.4483(5) 0.9040(2)
C13 C -0.0594(4) 0.4319(6) 0.8901(2)
H9 H -0.0989 0.3456 0.8686
C14 C -0.0980(4) 0.5407(6) 0.9076(3)
H10 H -0.1617 0.5259 0.9001
C15 C -0.0436(4) 0.6715(6) 0.9362(2)
H11 H -0.0708 0.7452 0.9477
C16 C 0.0524(4) 0.6947(6) 0.9483(2)
H12 H 0.0870 0.7858 0.9651
C17 C 0.0604(3) 0.2086(5) 0.86829(19)
C18 C -0.0179(3) 0.1328(5) 0.8753(2)
C19 C 0.1008(3) 0.1132(5) 0.8418(2)
C20 C 0.1558(3) 0.1652(5) 0.81739(19)
C21 C 0.1811(4) 0.0625(5) 0.7868(2)
H13 H 0.2131 0.0964 0.7682
C22 C 0.1597(4) -0.0871(6) 0.7835(2)
H14 H 0.1800 -0.1532 0.7647
C23 C 0.1078(4) -0.1394(6) 0.8084(2)
H15 H 0.0929 -0.2403 0.8060
C24 C 0.0786(4) -0.0413(6) 0.8365(2)
H16 H 0.0433 -0.0772 0.8526
C25 C 0.3712(8) 0.8423(11) 0.7480(4)
C26 C 0.4198(7) 0.9039(11) 0.8153(4)
H17 H 0.3921 0.8549 0.8356
H18 H 0.4044 1.0084 0.8111
H19 H 0.4954 0.8895 0.8443
C27 C 0.4342(8) 0.2883(12) 0.7726(5)
H20 H 0.4450 0.3099 0.8147
H21 H 0.5018 0.2830 0.7821
H22 H 0.3980 0.1947 0.7544
Co1A Co -0.24774(5) 0.02892(8) 0.79486(3)
O6A O 0.1096(2) 0.6164(4) 0.68154(14)
O10 O 0.6347(4) 0.6458(7) 0.3907(3)
C28 C 0.6955(8) 0.7817(11) 0.4297(5)
H23 H 0.7204 0.7741 0.4764
H24 H 0.6503 0.8673 0.4078
H25 H 0.7552 0.7916 0.4300
loop_
_geom_bond_atom_site_label_1
_geom_bond_atom_site_label_2
_geom_bond_site_symmetry_1
_geom_bond_site_symmetry_2
Ni1 N1 1_555 1_555
Co1 O1 1_555 1_555
O1 C1 1_555 1_555
O2 Co1 1_555 1_555
O3 C10 1_555 1_555
O4 C10 1_555 1_555
O5 C18 1_555 1_555
O6 C18 1_555 1_555
O7 Co1 1_555 1_555
H1 O7 1_555 1_555
O8 Co1 1_555 1_555
H2 O8 1_555 1_555
O9 Co1 1_555 1_555
H3 O9 1_555 1_555
H4 O9 1_555 1_555
N1 C1 1_555 1_555
N2 Ni1 1_555 1_555
N3 Ni1 1_555 1_555
N4 Ni1 1_555 1_555
C1 C2 1_555 1_555
C2 O2 1_555 1_555
C3 N2 1_555 1_555
C4 C3 1_555 1_555
C5 C4 1_555 1_555
H5 C5 1_555 1_555
C6 C5 1_555 1_555
H6 C6 1_555 1_555
C7 C6 1_555 1_555
H7 C7 1_555 1_555
C8 C3 1_555 1_555
H8 C8 1_555 1_555
C9 N3 1_555 1_555
C10 C9 1_555 1_555
C11 N3 1_555 1_555
C12 N4 1_555 1_555
C13 C12 1_555 1_555
H9 C13 1_555 1_555
C14 C13 1_555 1_555
H10 C14 1_555 1_555
C15 C14 1_555 1_555
H11 C15 1_555 1_555
C16 C11 1_555 1_555
H12 C16 1_555 1_555
C17 N4 1_555 1_555
C18 C17 1_555 1_555
C19 C17 1_555 1_555
C20 N1 1_555 1_555
C21 C20 1_555 1_555
H13 C21 1_555 1_555
C22 C21 1_555 1_555
H14 C22 1_555 1_555
C23 C22 1_555 1_555
H15 C23 1_555 1_555
C24 C19 1_555 1_555
H16 C24 1_555 1_555
C25 O7 1_555 1_555
C26 C25 1_555 1_555
H17 C26 1_555 1_555
H18 C26 1_555 1_555
H19 C26 1_555 1_555
C27 O8 1_555 1_555
H20 C27 1_555 1_555
H21 C27 1_555 1_555
H22 C27 1_555 1_555
O10 C28 1_555 1_555
C28 H23 1_555 1_555
H24 C28 1_555 1_555
H25 C28 1_555 1_555
Co1A O6 1_555 1_555
O6A Co1 1_555 1_555
N2 C2 1_555 1_555
C4 C9 1_555 1_555
C7 C8 1_555 1_555
C11 C12 1_555 1_555
C15 C16 1_555 1_555
C19 C20 1_555 1_555
C23 C24 1_555 1_555

#END
