
#######################################################################
#
#                 Cambridge Crystallographic Data Centre
#                                CCDC 
#
#######################################################################
#
# If this CIF has been generated from an entry in the Cambridge 
# Structural Database, then it will include bibliographic, chemical, 
# crystal, experimental, refinement or atomic coordinate data resulting 
# from the CCDC's data processing and validation procedures.
#
#######################################################################

data_BESTOK
_symmetry_cell_setting           monoclinic
_symmetry_space_group_name_H-M   'P 21/n'
_symmetry_Int_Tables_number      14
_space_group_name_Hall           '-P 2yn'
loop_
_symmetry_equiv_pos_site_id
_symmetry_equiv_pos_as_xyz
1 x,y,z
2 1/2-x,1/2+y,1/2-z
3 -x,-y,-z
4 1/2+x,1/2-y,1/2+z
_cell_length_a                   15.674(3)
_cell_length_b                   8.6916(17)
_cell_length_c                   19.060(4)
_cell_angle_alpha                90
_cell_angle_beta                 91.30(3)
_cell_angle_gamma                90
_cell_volume                     2595.92
loop_
_atom_site_label
_atom_site_type_symbol
_atom_site_fract_x
_atom_site_fract_y
_atom_site_fract_z
Cu1 Cu 1.051044(15) -0.01758(3) 0.295074(13)
Ni1 Ni 0.806115(15) 0.07648(3) 0.109865(13)
O1 O 1.01841(9) -0.06055(17) 0.19506(8)
O2 O 0.97113(9) 0.20915(18) 0.25240(7)
O3 O 0.72839(10) -0.38672(18) -0.04452(8)
O4 O 0.71237(10) -0.1580(2) -0.09773(8)
O5 O 0.56883(9) 0.42530(18) 0.06291(8)
O6 O 0.56199(9) 0.40863(17) 0.18097(8)
O7 O 1.08589(10) 0.01364(18) 0.39412(8)
H1 H 1.0412 -0.0053 0.4167
H2 H 1.1320 -0.0269 0.4088
O8 O 1.15838(9) 0.07399(19) 0.26430(8)
H3 H 1.1795 0.0237 0.2291
H4 H 1.1962 0.0833 0.2980
O9 O 1.11126(11) -0.25717(19) 0.29159(9)
H5 H 1.1454 -0.2662 0.3272
H6 H 1.1019 -0.3411 0.2696
N1 N 0.91109(11) -0.0267(2) 0.11053(9)
N2 N 0.75230(11) -0.0707(2) 0.05246(9)
N3 N 0.69895(10) 0.1732(2) 0.11316(9)
N4 N 0.85921(10) 0.2203(2) 0.16925(9)
C1 C 0.95551(13) 0.0082(2) 0.16863(11)
C2 C 0.92744(12) 0.1584(2) 0.20264(10)
C3 C 0.93906(13) -0.1334(2) 0.06066(11)
C4 C 1.02424(13) -0.1822(3) 0.05890(12)
H7 H 1.0631 -0.1511 0.0951
C5 C 1.05265(14) -0.2749(3) 0.00535(12)
H8 H 1.1106 -0.3068 0.0054
C6 C 0.99793(14) -0.3220(3) -0.04833(12)
H9 H 1.0181 -0.3844 -0.0854
C7 C 0.91375(14) -0.2768(3) -0.04732(11)
H10 H 0.8763 -0.3079 -0.0845
C8 C 0.88146(13) -0.1857(2) 0.00738(10)
C9 C 0.78964(13) -0.1604(2) 0.00817(11)
C10 C 0.73807(13) -0.2439(3) -0.04994(11)
C11 C 0.66148(13) -0.0664(2) 0.06092(11)
C12 C 0.60512(13) -0.1846(3) 0.04456(11)
H11 H 0.6251 -0.2759 0.0229
C13 C 0.51930(13) -0.1691(3) 0.05991(11)
H12 H 0.4801 -0.2482 0.0471
C14 C 0.49087(14) -0.0389(3) 0.09374(12)
H13 H 0.4322 -0.0292 0.1042
C15 C 0.54714(13) 0.0776(3) 0.11251(11)
H14 H 0.5275 0.1649 0.1375
C16 C 0.63280(13) 0.0663(2) 0.09464(10)
C17 C 0.68560(12) 0.3167(3) 0.12847(10)
C18 C 0.59653(13) 0.3898(2) 0.12148(11)
C19 C 0.75141(13) 0.4209(2) 0.15485(10)
C20 C 0.72929(14) 0.5780(2) 0.16138(11)
H15 H 0.6739 0.6105 0.1464
C21 C 0.78535(14) 0.6850(3) 0.18863(11)
H16 H 0.7696 0.7903 0.1914
C22 C 0.86529(14) 0.6367(3) 0.21206(12)
H17 H 0.9045 0.7097 0.2312
C23 C 0.88873(14) 0.4843(3) 0.20804(12)
H18 H 0.9434 0.4538 0.2254
C24 C 0.83341(12) 0.3729(2) 0.17876(10)
Cu1A Cu 0.448956(15) 0.48242(3) 0.204926(13)
O6A O 0.93801(9) -0.09137(17) 0.31903(8)
O10 O 0.75529(11) 0.0932(2) 0.82964(9)
H19 H 0.7664 0.1849 0.8445
H20 H 0.7463 0.0287 0.8626
O11 O 0.29274(10) 0.1002(2) 0.36124(9)
H21 H 0.3379 0.0614 0.3429
H22 H 0.2771 0.0513 0.3983
O12 O 0.11442(11) 0.4299(2) 0.23483(9)
H23 H 0.1600 0.4050 0.2575
H24 H 0.0753 0.3621 0.2330
loop_
_geom_bond_atom_site_label_1
_geom_bond_atom_site_label_2
_geom_bond_site_symmetry_1
_geom_bond_site_symmetry_2
Cu1 O1 1_555 1_555
Ni1 N1 1_555 1_555
O1 C1 1_555 1_555
O2 Cu1 1_555 1_555
O3 C10 1_555 1_555
O4 C10 1_555 1_555
O5 C18 1_555 1_555
O6 C18 1_555 1_555
O7 Cu1 1_555 1_555
H1 O7 1_555 1_555
H2 O7 1_555 1_555
O8 Cu1 1_555 1_555
H3 O8 1_555 1_555
H4 O8 1_555 1_555
O9 Cu1 1_555 1_555
H5 O9 1_555 1_555
H6 O9 1_555 1_555
N1 C1 1_555 1_555
N2 Ni1 1_555 1_555
N3 Ni1 1_555 1_555
N4 Ni1 1_555 1_555
C1 C2 1_555 1_555
C2 O2 1_555 1_555
C3 N1 1_555 1_555
C4 C3 1_555 1_555
H7 C4 1_555 1_555
C5 C4 1_555 1_555
H8 C5 1_555 1_555
C6 C5 1_555 1_555
H9 C6 1_555 1_555
C7 C6 1_555 1_555
H10 C7 1_555 1_555
C8 C3 1_555 1_555
C9 N2 1_555 1_555
C10 C9 1_555 1_555
C11 N2 1_555 1_555
C12 C11 1_555 1_555
H11 C12 1_555 1_555
C13 C12 1_555 1_555
H12 C13 1_555 1_555
C14 C13 1_555 1_555
H13 C14 1_555 1_555
C15 C14 1_555 1_555
H14 C15 1_555 1_555
C16 N3 1_555 1_555
C17 N3 1_555 1_555
C18 C17 1_555 1_555
C19 C17 1_555 1_555
C20 C19 1_555 1_555
H15 C20 1_555 1_555
C21 C20 1_555 1_555
H16 C21 1_555 1_555
C22 C21 1_555 1_555
H17 C22 1_555 1_555
C23 C22 1_555 1_555
H18 C23 1_555 1_555
C24 N4 1_555 1_555
O10 H19 1_555 1_555
H20 O10 1_555 1_555
O11 H21 1_555 1_555
H22 O11 1_555 1_555
O12 H23 1_555 1_555
H24 O12 1_555 1_555
Cu1A O6 1_555 1_555
O6A Cu1 1_555 1_555
N4 C2 1_555 1_555
C7 C8 1_555 1_555
C8 C9 1_555 1_555
C11 C16 1_555 1_555
C15 C16 1_555 1_555
C19 C24 1_555 1_555
C23 C24 1_555 1_555

#END
