
#######################################################################
#
#                 Cambridge Crystallographic Data Centre
#                                CCDC 
#
#######################################################################
#
# If this CIF has been generated from an entry in the Cambridge 
# Structural Database, then it will include bibliographic, chemical, 
# crystal, experimental, refinement or atomic coordinate data resulting 
# from the CCDC's data processing and validation procedures.
#
#######################################################################

data_BESXED
_symmetry_cell_setting           monoclinic
_symmetry_space_group_name_H-M   'P 21'
_symmetry_Int_Tables_number      4
_space_group_name_Hall           'P 2yb'
loop_
_symmetry_equiv_pos_site_id
_symmetry_equiv_pos_as_xyz
1 x,y,z
2 -x,1/2+y,-z
_cell_length_a                   7.439(1)
_cell_length_b                   7.481(1)
_cell_length_c                   7.852(1)
_cell_angle_alpha                90
_cell_angle_beta                 116.67(1)
_cell_angle_gamma                90
_cell_volume                     390.482
loop_
_atom_site_label
_atom_site_type_symbol
_atom_site_fract_x
_atom_site_fract_y
_atom_site_fract_z
Cs1 Cs 0.39055(2) 0.22595(7) 0.79538(2)
O1 O 0.3803(4) 0.2333(7) 0.3601(4)
H1 H 0.441(10) 0.254(13) 0.347(11)
O2 O 0.2816(5) 0.4026(4) 0.0981(4)
C1 C 0.2579(5) 0.3417(4) 0.2307(5)
C2 C 0.0773(5) 0.3906(4) 0.2646(4)
H2 H 0.148(8) 0.453(7) 0.387(7)
O3 O -0.0528(4) 0.5147(4) 0.1255(4)
H3 H 0.040(9) 0.614(9) 0.153(9)
C3 C -0.0444(4) 0.2259(10) 0.2584(4)
H4 H -0.113(6) 0.177(6) 0.122(6)
H5 H 0.058(8) 0.124(7) 0.355(7)
C4 C -0.1961(5) 0.2552(6) 0.3362(4)
O4 O -0.3418(4) 0.1440(4) 0.2788(4)
O5 O -0.1714(5) 0.3801(5) 0.4483(4)
O6 O 0.8001(5) 0.3071(4) 0.7823(4)
H6 H 0.864(11) 0.241(16) 0.703(13)
H7 H 0.845(7) 0.390(8) 0.856(7)
Cs1A Cs 0.60945(2) -0.27405(7) 1.20462(2)
Cs1A_2 Cs 0.60945(2) 0.72595(7) 1.20462(2)
O2_2 O 0.2816(5) 0.4026(4) 1.0981(4)
O2A O 0.7184(5) -0.0974(4) 0.9019(4)
O3A O 0.0528(4) 0.0147(4) 0.8745(4)
O4_2 O 0.6582(4) 0.1440(4) 1.2788(4)
O4A O 0.3418(4) 0.6440(4) 0.7212(4)
O5A O 0.1714(5) -0.1199(5) 0.5517(4)
Cs1_2 Cs 0.39055(2) 0.22595(7) -0.20462(2)
Cs1A_3 Cs 0.60945(2) 0.72595(7) 0.20462(2)
Cs1A_4 Cs -0.39055(2) 0.72595(7) 0.20462(2)
Cs1_3 Cs -0.60945(2) 0.22595(7) -0.20462(2)
Cs1A_5 Cs -0.39055(2) -0.27405(7) 0.20462(2)
H3A H -0.040(9) 0.114(9) 0.847(9)
loop_
_geom_bond_atom_site_label_1
_geom_bond_atom_site_label_2
_geom_bond_site_symmetry_1
_geom_bond_site_symmetry_2
Cs1 O1 1_555 1_555
O1 H1 1_555 1_555
O2 C1 1_555 1_555
C1 O1 1_555 1_555
C2 C1 1_555 1_555
H2 C2 1_555 1_555
O3 C2 1_555 1_555
H3 O3 1_555 1_555
C3 C2 1_555 1_555
H4 C3 1_555 1_555
H5 C3 1_555 1_555
C4 C3 1_555 1_555
O4 C4 1_555 1_555
O5 C4 1_555 1_555
O6 Cs1 1_555 1_555
H6 O6 1_555 1_555
H7 O6 1_555 1_555
Cs1A O2A 1_555 1_555
Cs1A_2 O2_2 1_555 1_555
O2_2 Cs1 1_555 1_555
O2A Cs1 1_555 1_555
O3A Cs1 1_555 1_555
O4_2 Cs1 1_555 1_555
O4A Cs1 1_555 1_555
O5A Cs1 1_555 1_555
Cs1_2 O2 1_555 1_555
Cs1A_3 O2 1_555 1_555
Cs1A_4 O3 1_555 1_555
Cs1_3 O4 1_555 1_555
Cs1A_5 O4 1_555 1_555
H3A O3A 1_555 1_555
O5 Cs1A_4 1_555 1_555
Cs1A O4_2 1_555 1_555
Cs1A_2 O4A 1_555 1_555

#END
