
#######################################################################
#
#                 Cambridge Crystallographic Data Centre
#                                CCDC 
#
#######################################################################
#
# If this CIF has been generated from an entry in the Cambridge 
# Structural Database, then it will include bibliographic, chemical, 
# crystal, experimental, refinement or atomic coordinate data resulting 
# from the CCDC's data processing and validation procedures.
#
#######################################################################

data_BETDEL
_symmetry_cell_setting           monoclinic
_symmetry_space_group_name_H-M   'C 2/c'
_symmetry_Int_Tables_number      15
_space_group_name_Hall           '-C 2yn'
loop_
_symmetry_equiv_pos_site_id
_symmetry_equiv_pos_as_xyz
1 x,y,z
2 -x,y,1/2-z
3 1/2+x,1/2+y,z
4 1/2-x,1/2+y,1/2-z
5 -x,-y,-z
6 x,-y,1/2+z
7 1/2-x,1/2-y,-z
8 1/2+x,1/2-y,1/2+z
_cell_length_a                   28.7897(8)
_cell_length_b                   13.9077(7)
_cell_length_c                   13.6093(5)
_cell_angle_alpha                90
_cell_angle_beta                 99.074(3)
_cell_angle_gamma                90
_cell_volume                     5380.95
loop_
_atom_site_label
_atom_site_type_symbol
_atom_site_fract_x
_atom_site_fract_y
_atom_site_fract_z
Dy1 Dy 0.316076(19) 0.20925(5) 0.54109(5)
O1 O 0.3878(4) 0.1744(12) 0.4794(12)
O2 O 0.3775(4) 0.3252(11) 0.5067(10)
O3 O 0.7921(3) 0.5660(8) 0.4480(9)
O4 O 0.7299(3) 0.6546(8) 0.4595(7)
O5 O 0.7697(4) 0.3342(9) 0.1616(8)
O6 O 0.6997(3) 0.2571(9) 0.1246(7)
O7 O 0.3559(5) 0.0798(14) 0.6379(11)
O8 O 0.3547(7) 0.2777(13) 0.6886(16)
N1 N 0.5978(4) 0.4128(12) 0.3508(10)
N2 N 0.3805(12) 0.373(2) 0.828(2)
C1 C 0.4035(7) 0.2529(19) 0.4765(14)
C2 C 0.4471(7) 0.2781(14) 0.4405(15)
C3 C 0.4629(6) 0.3701(17) 0.4400(15)
H1 H 0.4461 0.4194 0.4646
C4 C 0.5057(6) 0.3917(16) 0.4015(16)
H2 H 0.5152 0.4549 0.3941
C5 C 0.5317(7) 0.3158(18) 0.3761(15)
C6 C 0.5171(10) 0.2262(19) 0.373(2)
H3 H 0.5354 0.1772 0.3524
C7 C 0.4709(10) 0.2054(18) 0.403(2)
H4 H 0.4582 0.1437 0.3959
C8 C 0.5789(7) 0.331(2) 0.3498(16)
C9 C 0.7484(5) 0.5784(11) 0.4322(11)
C10 C 0.7192(5) 0.5051(12) 0.3725(11)
C11 C 0.7375(4) 0.4456(10) 0.3050(10)
H5 H 0.7689 0.4512 0.2973
C12 C 0.7091(5) 0.3787(13) 0.2499(11)
C13 C 0.6621(5) 0.3686(13) 0.2634(13)
H6 H 0.6431 0.3238 0.2257
C14 C 0.6442(5) 0.4223(14) 0.3296(12)
C15 C 0.6709(5) 0.4953(12) 0.3835(12)
H7 H 0.6575 0.5361 0.4252
C16 C 0.7280(5) 0.3175(12) 0.1710(11)
C17 C 0.3445(15) 0.313(3) 0.762(3)
C18 C 0.3568(14) 0.419(3) 0.897(3)
H8 H 0.3786 0.4568 0.9415
H9 H 0.3428 0.3713 0.9346
H10 H 0.3327 0.4594 0.8625
C19 C 0.4290(14) 0.373(3) 0.807(3)
H11 H 0.4494 0.4028 0.8607
H12 H 0.4302 0.4081 0.7464
H13 H 0.4391 0.3079 0.7989
Dy1A Dy 0.683924(19) 0.20925(5) -0.04109(5)
Dy1B Dy 0.816076(19) 0.70925(5) 0.54109(5)
Dy1D Dy 0.683924(19) 0.79075(5) 0.45891(5)
Dy1G Dy 0.816076(19) 0.29075(5) 0.04109(5)
O3B O 0.2921(3) 0.0660(8) 0.4480(9)
O4B O 0.2299(3) 0.1546(8) 0.4595(7)
O4D O 0.2701(3) 0.3454(8) 0.5405(7)
O5G O 0.2697(4) 0.1658(9) 0.6616(8)
O6A O 0.3003(3) 0.2571(9) 0.3754(7)
loop_
_geom_bond_atom_site_label_1
_geom_bond_atom_site_label_2
_geom_bond_site_symmetry_1
_geom_bond_site_symmetry_2
Dy1 O1 1_555 1_555
O1 C1 1_555 1_555
O2 Dy1 1_555 1_555
O3 C9 1_555 1_555
O4 C9 1_555 1_555
O5 C16 1_555 1_555
O6 C16 1_555 1_555
O7 Dy1 1_555 1_555
O8 Dy1 1_555 1_555
N1 C8 1_555 1_555
N2 C17 1_555 1_555
C1 O2 1_555 1_555
C2 C1 1_555 1_555
C3 C2 1_555 1_555
H1 C3 1_555 1_555
C4 C3 1_555 1_555
H2 C4 1_555 1_555
C5 C4 1_555 1_555
C6 C5 1_555 1_555
H3 C6 1_555 1_555
C7 C2 1_555 1_555
H4 C7 1_555 1_555
C8 C5 1_555 1_555
C9 C10 1_555 1_555
C10 C11 1_555 1_555
C11 H5 1_555 1_555
C12 C11 1_555 1_555
C13 C12 1_555 1_555
H6 C13 1_555 1_555
C14 N1 1_555 1_555
C15 C10 1_555 1_555
H7 C15 1_555 1_555
C16 C12 1_555 1_555
C17 O8 1_555 1_555
C18 N2 1_555 1_555
H8 C18 1_555 1_555
H9 C18 1_555 1_555
H10 C18 1_555 1_555
C19 N2 1_555 1_555
H11 C19 1_555 1_555
H12 C19 1_555 1_555
H13 C19 1_555 1_555
Dy1A O6 1_555 1_555
Dy1B O3 1_555 1_555
Dy1D O4 1_555 1_555
Dy1G O5 1_555 1_555
O3B Dy1 1_555 1_555
O4B Dy1 1_555 1_555
O4D Dy1 1_555 1_555
O5G Dy1 1_555 1_555
O6A Dy1 1_555 1_555
O4 Dy1B 1_555 1_555
C6 C7 1_555 1_555
C13 C14 1_555 1_555
C14 C15 1_555 1_555

#END
