
#######################################################################
#
#                 Cambridge Crystallographic Data Centre
#                                CCDC 
#
#######################################################################
#
# If this CIF has been generated from an entry in the Cambridge 
# Structural Database, then it will include bibliographic, chemical, 
# crystal, experimental, refinement or atomic coordinate data resulting 
# from the CCDC's data processing and validation procedures.
#
#######################################################################

data_BETDUA
_symmetry_cell_setting           triclinic
_symmetry_space_group_name_H-M   'P -1'
_symmetry_Int_Tables_number      2
_space_group_name_Hall           '-P 1'
loop_
_symmetry_equiv_pos_site_id
_symmetry_equiv_pos_as_xyz
1 x,y,z
2 -x,-y,-z
_cell_length_a                   8.5735(17)
_cell_length_b                   8.8559(18)
_cell_length_c                   10.775(2)
_cell_angle_alpha                109.43(3)
_cell_angle_beta                 95.20(3)
_cell_angle_gamma                102.70(3)
_cell_volume                     740.615
loop_
_atom_site_label
_atom_site_type_symbol
_atom_site_fract_x
_atom_site_fract_y
_atom_site_fract_z
Co1 Co 0.15938(4) -0.01386(4) 0.14200(3)
O1 O 0.4065(2) -0.0031(3) 0.2254(2)
O2 O 0.1984(3) -0.1697(3) 0.2555(2)
O3 O -0.0835(2) -0.0988(3) 0.1251(2)
O4 O 0.2420(3) 0.1678(2) 0.07120(19)
N1 N 0.1545(3) 0.1788(3) 0.3282(2)
N2 N 0.1706(3) -0.2069(3) -0.0404(2)
C1 C 0.0540(5) 0.1526(4) 0.4092(4)
H1 H -0.0245 0.0514 0.3802
C2 C 0.0581(5) 0.2664(4) 0.5349(4)
H2 H -0.0139 0.2381 0.5881
C3 C 0.1665(3) 0.4197(3) 0.5816(3)
C4 C 0.2682(6) 0.4471(5) 0.4952(4)
H3 H 0.3451 0.5489 0.5203
C5 C 0.2586(5) 0.3272(5) 0.3723(4)
H4 H 0.3296 0.3522 0.3172
C6 C 0.1708(3) 0.5474(3) 0.7131(3)
C7 C 0.2869(4) 0.7009(3) 0.7631(3)
H5 H 0.3673 0.7242 0.7147
C8 C 0.0616(4) -0.3551(3) -0.0868(3)
H6 H -0.0158 -0.3758 -0.0352
C9 C 0.0567(4) 0.5198(3) 0.7926(3)
H7 H -0.0220 0.4188 0.7652
C10 C 0.2829(3) -0.1822(3) -0.1160(3)
H8 H 0.3618 -0.0811 -0.0852
C11 C 0.3495(3) -0.1066(3) 0.2766(3)
C12 C 0.4612(4) -0.1529(5) 0.3666(3)
C13 C -0.2123(3) -0.1764(3) 0.0420(3)
C14 C -0.3425(4) -0.2843(3) 0.0841(3)
H9 H -0.2932 -0.3037 0.1601
H10 H -0.4219 -0.2237 0.1139
C15 C -0.4306(4) -0.4511(3) -0.0231(3)
H11 H -0.4744 -0.4333 -0.1018
H12 H -0.3535 -0.5164 -0.0482
C16 C 0.3893(8) -0.1624(8) 0.4869(6)
H13 H 0.4586 -0.2004 0.5395
H14 H 0.2834 -0.2422 0.4578
C17 C 0.6281(8) -0.0101(8) 0.4255(6)
H15 H 0.6998 -0.0451 0.4787
H16 H 0.6795 0.0017 0.3514
C13A C 0.2123(3) 0.1764(3) -0.0420(3)
C10_2 C 0.2829(3) 0.8178(3) 0.8840(3)
C9_2 C 0.0567(4) -0.4802(3) -0.2074(3)
C8_2 C 0.0616(4) 0.6449(3) 0.9132(3)
C7_2 C 0.2869(4) -0.2991(3) -0.2369(3)
O4A O -0.2420(3) -0.1678(2) -0.07120(19)
C15A C -0.5694(4) -0.5489(3) 0.0231(3)
C17A C 0.3719(8) 0.0101(8) 0.5745(6)
C16A C 0.6107(8) 0.1624(8) 0.5131(6)
loop_
_geom_bond_atom_site_label_1
_geom_bond_atom_site_label_2
_geom_bond_site_symmetry_1
_geom_bond_site_symmetry_2
Co1 O1 1_555 1_555
O1 C11 1_555 1_555
O2 Co1 1_555 1_555
O3 Co1 1_555 1_555
O4 Co1 1_555 1_555
N1 Co1 1_555 1_555
N2 Co1 1_555 1_555
C1 N1 1_555 1_555
H1 C1 1_555 1_555
C2 C1 1_555 1_555
H2 C2 1_555 1_555
C3 C2 1_555 1_555
C4 C3 1_555 1_555
H3 C4 1_555 1_555
C5 N1 1_555 1_555
H4 C5 1_555 1_555
C6 C3 1_555 1_555
C7 C6 1_555 1_555
H5 C7 1_555 1_555
C8 N2 1_555 1_555
H6 C8 1_555 1_555
C9 C6 1_555 1_555
H7 C9 1_555 1_555
C10 N2 1_555 1_555
H8 C10 1_555 1_555
C11 O2 1_555 1_555
C12 C11 1_555 1_555
C13 O3 1_555 1_555
C14 C13 1_555 1_555
H9 C14 1_555 1_555
H10 C14 1_555 1_555
C15 C14 1_555 1_555
H11 C15 1_555 1_555
H12 C15 1_555 1_555
C16 C12 1_555 1_555
H13 C16 1_555 1_555
H14 C16 1_555 1_555
C17 C12 1_555 1_555
H15 C17 1_555 1_555
H16 C17 1_555 1_555
C13A O4 1_555 1_555
C10_2 C7 1_555 1_555
C9_2 C8 1_555 1_555
C8_2 C9 1_555 1_555
C7_2 C10 1_555 1_555
O4A C13 1_555 1_555
C15A C15 1_555 1_555
C17A C16 1_555 1_555
C16A C17 1_555 1_555
C4 C5 1_555 1_555

#END
