
#######################################################################
#
#                 Cambridge Crystallographic Data Centre
#                                CCDC 
#
#######################################################################
#
# If this CIF has been generated from an entry in the Cambridge 
# Structural Database, then it will include bibliographic, chemical, 
# crystal, experimental, refinement or atomic coordinate data resulting 
# from the CCDC's data processing and validation procedures.
#
#######################################################################

data_BETFEN
_symmetry_cell_setting           monoclinic
_symmetry_space_group_name_H-M   'C 2/c'
_symmetry_Int_Tables_number      15
_space_group_name_Hall           '-C 2yn'
loop_
_symmetry_equiv_pos_site_id
_symmetry_equiv_pos_as_xyz
1 x,y,z
2 -x,y,1/2-z
3 1/2+x,1/2+y,z
4 1/2-x,1/2+y,1/2-z
5 -x,-y,-z
6 x,-y,1/2+z
7 1/2-x,1/2-y,-z
8 1/2+x,1/2-y,1/2+z
_cell_length_a                   28.877(2)
_cell_length_b                   14.3145(9)
_cell_length_c                   13.6347(14)
_cell_angle_alpha                90
_cell_angle_beta                 99.644(9)
_cell_angle_gamma                90
_cell_volume                     5556.39
loop_
_atom_site_label
_atom_site_type_symbol
_atom_site_fract_x
_atom_site_fract_y
_atom_site_fract_z
Pr1 Pr 0.181727(13) 0.21268(3) 0.95680(3)
O1 O 0.1189(2) 0.3276(5) 0.9941(6)
O2 O 0.1067(2) 0.1804(5) 1.0177(7)
O3 O -0.23232(19) 0.6507(4) 1.0386(4)
O4 O -0.2944(2) 0.5662(4) 1.0537(5)
O5 O -0.2715(2) 0.3316(6) 1.3310(5)
O6 O -0.2010(2) 0.2620(5) 1.3701(5)
O7 O 0.1418(5) 0.2841(7) 0.8028(10)
O8 O 0.1401(4) 0.0823(7) 0.8561(9)
N1 N -0.0985(3) 0.4171(6) 1.1493(6)
N2 N 0.1159(7) 0.3811(14) 0.6646(14)
N3 N 0.1157(7) 0.0151(12) 0.6861(11)
C1 C 0.0950(3) 0.2624(8) 1.0214(8)
C2 C 0.0501(3) 0.2838(7) 1.0571(8)
C3 C 0.0211(5) 0.2125(7) 1.0808(13)
H1 H 0.0313 0.1510 1.0795
C4 C -0.0220(5) 0.2300(8) 1.1059(13)
H2 H -0.0423 0.1812 1.1134
C5 C -0.0349(4) 0.3217(8) 1.1198(8)
C6 C -0.0071(4) 0.3935(8) 1.0967(9)
H3 H -0.0167 0.4552 1.1011
C7 C 0.0361(3) 0.3733(8) 1.0663(9)
H4 H 0.0553 0.4220 1.0524
C8 C -0.0817(4) 0.3388(8) 1.1446(9)
H5 H -0.100(4) 0.286(5) 1.118(8)
C9 C -0.2510(3) 0.5787(5) 1.0700(6)
C10 C -0.2199(3) 0.5050(6) 1.1280(6)
C11 C -0.2388(3) 0.4458(6) 1.1932(6)
H6 H -0.2702 0.4515 1.2003
C12 C -0.2105(3) 0.3785(6) 1.2473(6)
C13 C -0.1634(3) 0.3702(6) 1.2369(6)
H7 H -0.1439 0.3278 1.2758
C14 C -0.1458(3) 0.4263(6) 1.1672(7)
C15 C -0.1729(3) 0.4969(6) 1.1190(7)
H8 H -0.1596 0.5394 1.0802
C16 C -0.2289(3) 0.3214(7) 1.3215(6)
C17 C 0.1519(8) 0.3304(17) 0.7319(15)
C18 C 0.0736(8) 0.3886(18) 0.7087(18)
H9 H 0.0687 0.3313 0.7421
H10 H 0.0471 0.4004 0.6574
H11 H 0.0770 0.4391 0.7557
C19 C 0.1488(8) 0.4199(17) 0.6060(17)
H12 H 0.1711 0.3729 0.5953
H13 H 0.1650 0.4718 0.6409
H14 H 0.1321 0.4408 0.5431
C20 C 0.1330(9) 0.0830(15) 0.7627(10)
C21 C 0.1010(9) 0.0245(17) 0.5791(12)
H15 H 0.0916 -0.0354 0.5509
H16 H 0.1266 0.0480 0.5498
H17 H 0.0750 0.0671 0.5660
C22 C 0.1279(9) -0.0653(15) 0.7511(17)
H18 H 0.1394 -0.0440 0.8175
H19 H 0.1518 -0.1013 0.7274
H20 H 0.1005 -0.1034 0.7513
Pr1A Pr -0.181727(13) 0.21268(3) 1.54320(3)
Pr1B Pr -0.318273(13) 0.71268(3) 0.95680(3)
Pr1D Pr -0.181727(13) 0.78732(3) 1.04320(3)
Pr1G Pr -0.318273(13) 0.28732(3) 1.45680(3)
O3B O 0.26768(19) 0.1507(4) 1.0386(4)
O3D O 0.23232(19) 0.3493(4) 0.9614(4)
O4B O 0.2056(2) 0.0662(4) 1.0537(5)
O5G O 0.2285(2) 0.1684(6) 0.8310(5)
O6A O 0.2010(2) 0.2620(5) 1.1299(5)
loop_
_geom_bond_atom_site_label_1
_geom_bond_atom_site_label_2
_geom_bond_site_symmetry_1
_geom_bond_site_symmetry_2
Pr1 O1 1_555 1_555
O1 C1 1_555 1_555
O2 Pr1 1_555 1_555
O3 C9 1_555 1_555
O4 C9 1_555 1_555
O5 C16 1_555 1_555
O6 C16 1_555 1_555
O7 Pr1 1_555 1_555
O8 Pr1 1_555 1_555
N1 C8 1_555 1_555
N2 C17 1_555 1_555
N3 C20 1_555 1_555
C1 O2 1_555 1_555
C2 C1 1_555 1_555
C3 C2 1_555 1_555
H1 C3 1_555 1_555
C4 C3 1_555 1_555
H2 C4 1_555 1_555
C5 C4 1_555 1_555
C6 C5 1_555 1_555
H3 C6 1_555 1_555
C7 C2 1_555 1_555
H4 C7 1_555 1_555
C8 C5 1_555 1_555
H5 C8 1_555 1_555
C9 C10 1_555 1_555
C10 C11 1_555 1_555
C11 H6 1_555 1_555
C12 C11 1_555 1_555
C13 C12 1_555 1_555
H7 C13 1_555 1_555
C14 N1 1_555 1_555
C15 C10 1_555 1_555
H8 C15 1_555 1_555
C16 C12 1_555 1_555
C17 O7 1_555 1_555
C18 N2 1_555 1_555
H9 C18 1_555 1_555
H10 C18 1_555 1_555
H11 C18 1_555 1_555
C19 N2 1_555 1_555
H12 C19 1_555 1_555
H13 C19 1_555 1_555
H14 C19 1_555 1_555
C20 O8 1_555 1_555
C21 N3 1_555 1_555
H15 C21 1_555 1_555
H16 C21 1_555 1_555
H17 C21 1_555 1_555
C22 N3 1_555 1_555
H18 C22 1_555 1_555
H19 C22 1_555 1_555
H20 C22 1_555 1_555
Pr1A O6 1_555 1_555
Pr1B O3 1_555 1_555
Pr1D O3 1_555 1_555
Pr1G O5 1_555 1_555
O3B Pr1 1_555 1_555
O3D Pr1 1_555 1_555
O4B Pr1 1_555 1_555
O5G Pr1 1_555 1_555
O6A Pr1 1_555 1_555
O4 Pr1B 1_555 1_555
C6 C7 1_555 1_555
C13 C14 1_555 1_555
C14 C15 1_555 1_555

#END
