
#######################################################################
#
#                 Cambridge Crystallographic Data Centre
#                                CCDC 
#
#######################################################################
#
# If this CIF has been generated from an entry in the Cambridge 
# Structural Database, then it will include bibliographic, chemical, 
# crystal, experimental, refinement or atomic coordinate data resulting 
# from the CCDC's data processing and validation procedures.
#
#######################################################################

data_BETHUE
_symmetry_cell_setting           monoclinic
_symmetry_space_group_name_H-M   'P 21/n'
_symmetry_Int_Tables_number      14
_space_group_name_Hall           '-P 2yn'
loop_
_symmetry_equiv_pos_site_id
_symmetry_equiv_pos_as_xyz
1 x,y,z
2 1/2+x,1/2-y,1/2+z
3 -x,-y,-z
4 1/2-x,1/2+y,1/2-z
_cell_length_a                   5.5376(3)
_cell_length_b                   28.1637(16)
_cell_length_c                   14.6134(9)
_cell_angle_alpha                90
_cell_angle_beta                 91.3370(10)
_cell_angle_gamma                90
_cell_volume                     2278.48
loop_
_atom_site_label
_atom_site_type_symbol
_atom_site_fract_x
_atom_site_fract_y
_atom_site_fract_z
Cu1 Cu 0.67606(7) 0.104524(12) 0.67633(3)
Cu2 Cu 0.94296(7) -0.098510(12) 0.70324(3)
Cu3 Cu 0.30404(7) 0.215090(13) 0.98010(3)
Cu4 Cu 1.18840(7) -0.219570(13) 1.02204(3)
N1 N 0.7393(5) 0.04108(9) 0.72859(18)
N2 N 0.8748(5) -0.03346(9) 0.74121(18)
N3 N 0.7325(5) 0.08480(9) 0.54929(19)
N4 N 0.8955(5) 0.08163(9) 0.41128(18)
N5 N 0.4651(5) 0.12469(9) 0.77602(18)
N6 N 0.3135(5) 0.16863(9) 0.88863(18)
N7 N 0.7759(5) 0.16983(9) 0.64668(18)
N8 N 0.8222(5) 0.23772(9) 0.57021(18)
N9 N 1.0579(5) -0.12068(9) 0.82480(18)
N10 N 1.1743(5) -0.16746(9) 0.94119(18)
N11 N 0.7830(5) -0.15763(9) 0.66392(18)
N12 N 0.6877(5) -0.22776(9) 0.60053(18)
C1 C 0.8325(5) 0.00358(10) 0.6858(2)
H1 H 0.8701 0.0032 0.6134
C2 C 0.8026(6) -0.01845(11) 0.8263(2)
H2 H 0.8091 -0.0393 0.8886
C3 C 0.7227(6) 0.02694(11) 0.8185(2)
H3 H 0.6564 0.0485 0.8739
C4 C 0.9166(6) 0.09800(11) 0.4966(2)
H4 H 1.0665 0.1196 0.5209
C5 C 0.6824(6) 0.05628(11) 0.4087(2)
H5 H 0.6064 0.0379 0.3496
C6 C 0.5836(6) 0.05837(11) 0.4932(2)
H6 H 0.4158 0.0419 0.5127
C7 C 0.4786(6) 0.16536(11) 0.8226(2)
H7 H 0.6088 0.1930 0.8087
C8 C 0.1826(6) 0.12684(11) 0.8818(2)
H8 H 0.0322 0.1170 0.9239
C9 C 0.2753(6) 0.10020(11) 0.8131(2)
H9 H 0.2105 0.0656 0.7913
C10 C 0.6933(6) 0.19805(11) 0.5796(2)
H10 H 0.5367 0.1896 0.5369
C11 C 0.9998(7) 0.23444(12) 0.6371(2)
H11 H 1.1396 0.2605 0.6507
C12 C 0.9713(7) 0.19303(12) 0.6833(2)
H12 H 1.0847 0.1806 0.7398
C13 C 1.0319(6) -0.16260(11) 0.8662(2)
H13 H 0.9086 -0.1899 0.8417
C14 C 1.3035(6) -0.12550(11) 0.9470(2)
H14 H 1.4390 -0.1167 0.9989
C15 C 1.2313(6) -0.09716(11) 0.8763(2)
H15 H 1.2994 -0.0619 0.8626
C16 C 0.8499(6) -0.19227(11) 0.6074(2)
H16 H 1.0179 -0.1919 0.5710
C17 C 0.5038(6) -0.21403(12) 0.6570(2)
H17 H 0.3392 -0.2338 0.6682
C18 C 0.5622(6) -0.17163(12) 0.6959(2)
H18 H 0.4539 -0.1523 0.7441
N4B N 1.1045(5) -0.08163(9) 0.58872(18)
N8A N 0.3222(5) 0.26228(9) 1.07021(18)
N12A N 1.1877(5) -0.27224(9) 1.10053(18)
Cu2B Cu 1.05704(7) 0.098510(12) 0.29676(3)
Cu3A Cu 0.80404(7) 0.284910(13) 0.48010(3)
Cu4A Cu 0.68840(7) -0.280430(13) 0.52204(3)
loop_
_geom_bond_atom_site_label_1
_geom_bond_atom_site_label_2
_geom_bond_site_symmetry_1
_geom_bond_site_symmetry_2
Cu1 N1 1_555 1_555
Cu2 N2 1_555 1_555
Cu3 N6 1_555 1_555
Cu4 N10 1_555 1_555
N1 C1 1_555 1_555
N2 C1 1_555 1_555
N3 Cu1 1_555 1_555
N4 C4 1_555 1_555
N5 Cu1 1_555 1_555
N6 C7 1_555 1_555
N7 Cu1 1_555 1_555
N8 C10 1_555 1_555
N9 Cu2 1_555 1_555
N10 C13 1_555 1_555
N11 Cu2 1_555 1_555
N12 C16 1_555 1_555
C1 H1 1_555 1_555
C2 N2 1_555 1_555
H2 C2 1_555 1_555
C3 N1 1_555 1_555
H3 C3 1_555 1_555
C4 N3 1_555 1_555
H4 C4 1_555 1_555
C5 N4 1_555 1_555
H5 C5 1_555 1_555
C6 N3 1_555 1_555
H6 C6 1_555 1_555
C7 N5 1_555 1_555
H7 C7 1_555 1_555
C8 N6 1_555 1_555
H8 C8 1_555 1_555
C9 N5 1_555 1_555
H9 C9 1_555 1_555
C10 N7 1_555 1_555
H10 C10 1_555 1_555
C11 N8 1_555 1_555
H11 C11 1_555 1_555
C12 N7 1_555 1_555
H12 C12 1_555 1_555
C13 N9 1_555 1_555
H13 C13 1_555 1_555
C14 N10 1_555 1_555
H14 C14 1_555 1_555
C15 N9 1_555 1_555
H15 C15 1_555 1_555
C16 N11 1_555 1_555
H16 C16 1_555 1_555
C17 N12 1_555 1_555
H17 C17 1_555 1_555
C18 N11 1_555 1_555
H18 C18 1_555 1_555
N4B Cu2 1_555 1_555
N8A Cu3 1_555 1_555
N12A Cu4 1_555 1_555
Cu2B N4 1_555 1_555
Cu3A N8 1_555 1_555
Cu4A N12 1_555 1_555
C2 C3 1_555 1_555
C5 C6 1_555 1_555
C8 C9 1_555 1_555
C11 C12 1_555 1_555
C14 C15 1_555 1_555
C17 C18 1_555 1_555

#END
