
#######################################################################
#
#                 Cambridge Crystallographic Data Centre
#                                CCDC 
#
#######################################################################
#
# If this CIF has been generated from an entry in the Cambridge 
# Structural Database, then it will include bibliographic, chemical, 
# crystal, experimental, refinement or atomic coordinate data resulting 
# from the CCDC's data processing and validation procedures.
#
#######################################################################

data_BETHOZ
_symmetry_cell_setting           orthorhombic
_symmetry_space_group_name_H-M   'P 21 21 21'
_symmetry_Int_Tables_number      19
_space_group_name_Hall           'P 2ac 2ab'
loop_
_symmetry_equiv_pos_site_id
_symmetry_equiv_pos_as_xyz
1 x,y,z
2 1/2-x,-y,1/2+z
3 1/2+x,1/2-y,-z
4 -x,1/2+y,1/2-z
_cell_length_a                   5.8266(2)
_cell_length_b                   17.2093(7)
_cell_length_c                   23.5764(1)
_cell_angle_alpha                90
_cell_angle_beta                 90
_cell_angle_gamma                90
_cell_volume                     2364.05
loop_
_atom_site_label
_atom_site_type_symbol
_atom_site_fract_x
_atom_site_fract_y
_atom_site_fract_z
Cd1 Cd 0.75647(7) 0.08838(2) 0.847728(14)
O1 O 1.0737(6) 0.1340(2) 0.89762(16)
O2 O 0.8455(7) 0.0662(3) 0.95267(17)
O3 O 2.1782(6) 0.2073(2) 1.21283(16)
O4 O 2.0586(6) 0.2950(2) 1.14944(17)
O5 O 0.9445(7) 0.1156(3) 0.76569(16)
O6 O 0.6195(7) 0.0595(3) 0.74183(18)
O7 O 1.5243(6) 0.1990(3) 0.48790(17)
O8 O 1.6671(6) 0.1483(2) 0.40867(17)
O9 O 0.4177(6) 0.0289(2) 0.86435(17)
H1 H 0.3140 0.0607 0.8746
H2 H 0.3784 0.0054 0.8342
O10 O 0.9035(7) -0.0327(2) 0.83618(17)
H3 H 0.8803 -0.0698 0.8593
H4 H 1.0134 -0.0388 0.8129
N1 N 1.6162(6) 0.2292(3) 1.16474(18)
H5 H 1.4717 0.2307 1.1782
H6 H 1.6314 0.2687 1.1399
N2 N 1.0940(7) 0.1538(3) 0.46378(19)
H7 H 1.1175 0.1933 0.4881
H8 H 0.9504 0.1583 0.4501
C1 C 1.0205(9) 0.1058(3) 0.9459(2)
C2 C 1.1830(8) 0.1213(3) 0.9944(2)
C3 C 1.3881(9) 0.1601(4) 0.9865(3)
H9 H 1.4271 0.1784 0.9506
C4 C 1.5362(9) 0.1720(4) 1.0317(3)
H10 H 1.6734 0.1985 1.0260
C5 C 1.4819(9) 0.1447(3) 1.0854(2)
C6 C 1.2781(10) 0.1052(3) 1.0930(2)
H11 H 1.2405 0.0861 1.1287
C7 C 1.1303(9) 0.0939(4) 1.0484(2)
H12 H 0.9930 0.0676 1.0544
C8 C 1.6488(10) 0.1550(3) 1.1338(3)
H13 H 1.6305 0.1121 1.1602
H14 H 1.8041 0.1530 1.1191
C9 C 2.0286(8) 0.2476(3) 1.1894(2)
C10 C 1.7780(9) 0.2425(3) 1.2129(2)
H15 H 1.7413 0.2937 1.2287
C11 C 1.7376(13) 0.1843(4) 1.2594(2)
H16 H 1.5775 0.1835 1.2690
H17 H 1.8255 0.1987 1.2922
H18 H 1.7842 0.1337 1.2468
C12 C 0.8101(9) 0.0870(4) 0.7299(2)
C13 C 0.8890(9) 0.0854(4) 0.6688(2)
C14 C 1.1020(9) 0.1144(4) 0.6535(3)
H19 H 1.1993 0.1340 0.6813
C15 C 1.1726(9) 0.1145(3) 0.5970(2)
H20 H 1.3148 0.1351 0.5873
C16 C 1.0317(9) 0.0841(3) 0.5556(2)
C17 C 0.8181(9) 0.0562(4) 0.5704(2)
H21 H 0.7200 0.0374 0.5425
C18 C 0.7488(12) 0.0560(3) 0.6266(2)
H22 H 0.6058 0.0357 0.6361
C19 C 1.1138(10) 0.0791(3) 0.4950(2)
H23 H 1.2731 0.0626 0.4949
H24 H 1.0251 0.0397 0.4753
C20 C 1.5037(9) 0.1695(3) 0.4404(2)
C21 C 1.2599(11) 0.1604(3) 0.41601(18)
H25 H 1.2529 0.1131 0.3929
C22 C 1.2021(9) 0.2292(4) 0.3799(2)
H26 H 1.0438 0.2265 0.3688
H27 H 1.2975 0.2292 0.3467
H28 H 1.2279 0.2761 0.4011
Cd1B Cd 2.25647(7) 0.41162(2) 1.152272(14)
O4B O 0.5586(6) 0.2050(2) 0.85056(17)
O11 O 0.7276(9) 0.4466(3) 0.74179(19)
H29 H 0.7141 0.4010 0.7552
H30 H 0.6037 0.4683 0.7524
loop_
_geom_bond_atom_site_label_1
_geom_bond_atom_site_label_2
_geom_bond_site_symmetry_1
_geom_bond_site_symmetry_2
Cd1 O1 1_555 1_555
O1 C1 1_555 1_555
O2 Cd1 1_555 1_555
O3 C9 1_555 1_555
O4 C9 1_555 1_555
O5 Cd1 1_555 1_555
O6 Cd1 1_555 1_555
O7 C20 1_555 1_555
O8 C20 1_555 1_555
O9 Cd1 1_555 1_555
H1 O9 1_555 1_555
H2 O9 1_555 1_555
O10 Cd1 1_555 1_555
H3 O10 1_555 1_555
H4 O10 1_555 1_555
N1 H5 1_555 1_555
H6 N1 1_555 1_555
N2 H7 1_555 1_555
H8 N2 1_555 1_555
C1 O2 1_555 1_555
C2 C1 1_555 1_555
C3 C2 1_555 1_555
H9 C3 1_555 1_555
C4 C3 1_555 1_555
H10 C4 1_555 1_555
C5 C4 1_555 1_555
C6 C5 1_555 1_555
H11 C6 1_555 1_555
C7 C2 1_555 1_555
H12 C7 1_555 1_555
C8 N1 1_555 1_555
H13 C8 1_555 1_555
H14 C8 1_555 1_555
C9 C10 1_555 1_555
C10 N1 1_555 1_555
H15 C10 1_555 1_555
C11 C10 1_555 1_555
H16 C11 1_555 1_555
H17 C11 1_555 1_555
H18 C11 1_555 1_555
C12 O5 1_555 1_555
C13 C12 1_555 1_555
C14 C13 1_555 1_555
H19 C14 1_555 1_555
C15 C14 1_555 1_555
H20 C15 1_555 1_555
C16 C15 1_555 1_555
C17 C16 1_555 1_555
H21 C17 1_555 1_555
C18 C13 1_555 1_555
H22 C18 1_555 1_555
C19 N2 1_555 1_555
H23 C19 1_555 1_555
H24 C19 1_555 1_555
C20 C21 1_555 1_555
C21 N2 1_555 1_555
H25 C21 1_555 1_555
C22 C21 1_555 1_555
H26 C22 1_555 1_555
H27 C22 1_555 1_555
H28 C22 1_555 1_555
O11 H29 1_555 1_555
H30 O11 1_555 1_555
Cd1B O4 1_555 1_555
O4B Cd1 1_555 1_555
O6 C12 1_555 1_555
C5 C8 1_555 1_555
C6 C7 1_555 1_555
C16 C19 1_555 1_555
C17 C18 1_555 1_555

#END
