
#######################################################################
#
#                 Cambridge Crystallographic Data Centre
#                                CCDC 
#
#######################################################################
#
# If this CIF has been generated from an entry in the Cambridge 
# Structural Database, then it will include bibliographic, chemical, 
# crystal, experimental, refinement or atomic coordinate data resulting 
# from the CCDC's data processing and validation procedures.
#
#######################################################################

data_BETJAM
_symmetry_cell_setting           triclinic
_symmetry_space_group_name_H-M   'P -1'
_symmetry_Int_Tables_number      2
_space_group_name_Hall           '-P 1'
loop_
_symmetry_equiv_pos_site_id
_symmetry_equiv_pos_as_xyz
1 x,y,z
2 -x,-y,-z
_cell_length_a                   5.5367(5)
_cell_length_b                   6.7153(6)
_cell_length_c                   10.0436(9)
_cell_angle_alpha                105.550(2)
_cell_angle_beta                 90.044(2)
_cell_angle_gamma                90.586(2)
_cell_volume                     359.737
loop_
_atom_site_label
_atom_site_type_symbol
_atom_site_fract_x
_atom_site_fract_y
_atom_site_fract_z
Cu1 Cu 1.0000 1.0000 0.0000
Cu2 Cu 0.5000 1.0000 0.5000
Cu3 Cu 0.5000 0.5000 -0.5000
N1 N 0.7801(7) 0.7931(6) -0.1244(4)
N2 N 0.5941(7) 0.5995(6) -0.3149(4)
N3 N 0.7299(7) 0.9147(6) 0.3615(4)
N4 N 0.9128(7) 0.8935(6) 0.1596(4)
C1 C 0.4694(9) 0.5757(7) -0.2015(5)
H1 H 0.3083 0.4821 -0.2039
C2 C 0.5849(9) 0.6915(7) -0.0850(5)
H2 H 0.5321 0.7020 0.0206
C3 C 0.7791(8) 0.7298(7) -0.2629(5)
H3 H 0.9128 0.7785 -0.3266
C4 C 1.0516(8) 0.7926(7) 0.2337(5)
H4 H 1.2204 0.7159 0.1998
C5 C 0.9419(8) 0.8051(7) 0.3568(5)
H5 H 1.0087 0.7405 0.4375
C6 C 0.7230(8) 0.9632(7) 0.2411(5)
H6 H 0.5783 1.0502 0.2118
N1A N 1.2199(7) 1.2069(6) 0.1244(4)
N2A N 1.4059(7) 1.4005(6) 0.3149(4)
C1A C 1.5306(9) 1.4243(7) 0.2015(5)
H1A H 1.6917 1.5179 0.2039
C2A C 1.4151(9) 1.3085(7) 0.0850(5)
H2A H 1.4679 1.2980 -0.0206
C3A C 1.2209(8) 1.2702(7) 0.2629(5)
H3A H 1.0872 1.2215 0.3266
N3A N 1.2701(7) 1.0853(6) -0.3615(4)
N4A N 1.0872(7) 1.1065(6) -0.1596(4)
C4A C 0.9484(8) 1.2074(7) -0.2337(5)
H4A H 0.7796 1.2841 -0.1998
C5A C 1.0581(8) 1.1949(7) -0.3568(5)
H5A H 0.9913 1.2595 -0.4375
C6A C 1.2770(8) 1.0368(7) -0.2411(5)
H6A H 1.4217 0.9498 -0.2118
N3A_2 N 0.2701(7) 1.0853(6) 0.6385(4)
N2A_2 N 0.4059(7) 0.4005(6) -0.6851(4)
Cu3_2 Cu 1.5000 1.5000 0.5000
Cu2_2 Cu 1.5000 1.0000 -0.5000
loop_
_geom_bond_atom_site_label_1
_geom_bond_atom_site_label_2
_geom_bond_site_symmetry_1
_geom_bond_site_symmetry_2
Cu1 N1 1_555 1_555
Cu2 N3 1_555 1_555
Cu3 N2 1_555 1_555
N1 C2 1_555 1_555
N2 C1 1_555 1_555
N3 C5 1_555 1_555
N4 Cu1 1_555 1_555
C1 H1 1_555 1_555
C2 C1 1_555 1_555
H2 C2 1_555 1_555
C3 N1 1_555 1_555
H3 C3 1_555 1_555
C4 N4 1_555 1_555
H4 C4 1_555 1_555
C5 C4 1_555 1_555
H5 C5 1_555 1_555
C6 N3 1_555 1_555
H6 C6 1_555 1_555
N1A Cu1 1_555 1_555
N2A C1A 1_555 1_555
C1A H1A 1_555 1_555
C2A N1A 1_555 1_555
H2A C2A 1_555 1_555
C3A N1A 1_555 1_555
H3A C3A 1_555 1_555
N3A C5A 1_555 1_555
N4A Cu1 1_555 1_555
C4A N4A 1_555 1_555
H4A C4A 1_555 1_555
C5A C4A 1_555 1_555
H5A C5A 1_555 1_555
C6A N3A 1_555 1_555
H6A C6A 1_555 1_555
N3A_2 Cu2 1_555 1_555
N2A_2 Cu3 1_555 1_555
Cu3_2 N2A 1_555 1_555
Cu2_2 N3A 1_555 1_555
N2 C3 1_555 1_555
N4 C6 1_555 1_555
N2A C3A 1_555 1_555
C1A C2A 1_555 1_555
N4A C6A 1_555 1_555

#END
