
#######################################################################
#
#                 Cambridge Crystallographic Data Centre
#                                CCDC 
#
#######################################################################
#
# If this CIF has been generated from an entry in the Cambridge 
# Structural Database, then it will include bibliographic, chemical, 
# crystal, experimental, refinement or atomic coordinate data resulting 
# from the CCDC's data processing and validation procedures.
#
#######################################################################

data_BETJAN01
_symmetry_cell_setting           tetragonal
_symmetry_space_group_name_H-M   'P 43'
_symmetry_Int_Tables_number      78
_space_group_name_Hall           'P 4cw'
loop_
_symmetry_equiv_pos_site_id
_symmetry_equiv_pos_as_xyz
1 x,y,z
2 -x,-y,1/2+z
3 -y,x,3/4+z
4 y,-x,1/4+z
_cell_length_a                   7.5156(6)
_cell_length_b                   7.5156(6)
_cell_length_c                   22.679(3)
_cell_angle_alpha                90
_cell_angle_beta                 90
_cell_angle_gamma                90
_cell_volume                     1281.01
loop_
_atom_site_label
_atom_site_type_symbol
_atom_site_fract_x
_atom_site_fract_y
_atom_site_fract_z
Cu1 Cu 0.66280(5) 0.81078(5) 0.255320(19)
O1 O 0.6628(3) 1.7066(4) 0.07663(11)
O2 O 0.6710(3) 0.9816(3) 0.19122(12)
O3 O 0.3698(3) 1.7035(3) 0.06399(11)
O4 O 0.7260(6) 0.9875(4) 0.31258(15)
H1 H 0.8282 1.0315 0.3037
H2 H 0.6475 1.0706 0.3126
O5 O 0.3788(4) 0.9966(3) 0.20424(11)
N1 N 0.3939(4) 1.5872(4) -0.04616(12)
H3 H 0.2950 1.6360 -0.0563
C1 C 0.5277(5) 1.6989(5) 0.04461(14)
C2 C 0.5493(4) 1.6858(4) -0.02287(15)
H4 H 0.6586 1.6205 -0.0322
C3 C 0.3295(5) 1.1755(5) 0.0974(2)
H5 H 0.2299 1.1484 0.1201
C4 C 0.5152(5) 1.0289(4) 0.17457(15)
C5 C 0.4994(5) 1.1282(4) 0.11753(16)
C6 C 0.4561(5) 1.3054(4) 0.00972(16)
C7 C 0.3095(5) 1.2623(5) 0.04416(16)
H6 H 0.1960 1.2923 0.0311
C8 C 0.6257(5) 1.2619(5) 0.03065(17)
H7 H 0.7255 1.2929 0.0087
C9 C 0.6466(5) 1.1732(4) 0.08371(18)
H8 H 0.7601 1.1436 0.0968
C10 C 0.4308(5) 1.3919(4) -0.04969(15)
H9 H 0.5372 1.3734 -0.0731
H10 H 0.3327 1.3342 -0.0698
C11 C 0.5591(6) 1.8711(5) -0.04903(17)
H11 H 0.5722 1.8627 -0.0910
H12 H 0.6594 1.9330 -0.0327
H13 H 0.4519 1.9349 -0.0399
Cu1B Cu 0.18922(5) 1.66280(5) 0.005320(19)
O3C O 0.7035(3) 0.6302(3) 0.31399(11)
N1C N 0.5872(4) 0.6061(4) 0.20384(12)
O6 O 1.0324(4) 0.8833(4) 0.16914(14)
H14 H 0.9844 0.7849 0.1582
H15 H 1.1252 0.8820 0.1914
loop_
_geom_bond_atom_site_label_1
_geom_bond_atom_site_label_2
_geom_bond_site_symmetry_1
_geom_bond_site_symmetry_2
Cu1 O2 1_555 1_555
O1 C1 1_555 1_555
O2 C4 1_555 1_555
O3 C1 1_555 1_555
O4 Cu1 1_555 1_555
H1 O4 1_555 1_555
H2 O4 1_555 1_555
O5 C4 1_555 1_555
N1 H3 1_555 1_555
C1 C2 1_555 1_555
C2 N1 1_555 1_555
H4 C2 1_555 1_555
C3 H5 1_555 1_555
C4 C5 1_555 1_555
C5 C3 1_555 1_555
C6 C7 1_555 1_555
C7 C3 1_555 1_555
H6 C7 1_555 1_555
C8 C6 1_555 1_555
H7 C8 1_555 1_555
C9 C5 1_555 1_555
H8 C9 1_555 1_555
C10 N1 1_555 1_555
H9 C10 1_555 1_555
H10 C10 1_555 1_555
C11 C2 1_555 1_555
H11 C11 1_555 1_555
H12 C11 1_555 1_555
H13 C11 1_555 1_555
O6 H14 1_555 1_555
H15 O6 1_555 1_555
Cu1B O3 1_555 1_555
O3C Cu1 1_555 1_555
N1C Cu1 1_555 1_555
N1 Cu1B 1_555 1_555
C6 C10 1_555 1_555
C8 C9 1_555 1_555

#END
