
#######################################################################
#
#                 Cambridge Crystallographic Data Centre
#                                CCDC 
#
#######################################################################
#
# If this CIF has been generated from an entry in the Cambridge 
# Structural Database, then it will include bibliographic, chemical, 
# crystal, experimental, refinement or atomic coordinate data resulting 
# from the CCDC's data processing and validation procedures.
#
#######################################################################

data_BETTIE
_symmetry_cell_setting           monoclinic
_symmetry_space_group_name_H-M   'P 21/n'
_symmetry_Int_Tables_number      14
_space_group_name_Hall           '-P 2yn'
loop_
_symmetry_equiv_pos_site_id
_symmetry_equiv_pos_as_xyz
1 x,y,z
2 1/2+x,1/2-y,1/2+z
3 -x,-y,-z
4 1/2-x,1/2+y,1/2-z
_cell_length_a                   7.1718(3)
_cell_length_b                   16.0831(7)
_cell_length_c                   17.5050(7)
_cell_angle_alpha                90
_cell_angle_beta                 91.4790(10)
_cell_angle_gamma                90
_cell_volume                     2018.44
loop_
_atom_site_label
_atom_site_type_symbol
_atom_site_fract_x
_atom_site_fract_y
_atom_site_fract_z
Y1 Y 0.15085(4) 0.346564(19) 0.494155(18)
O1 O 0.2212(4) 0.20476(14) 0.53695(15)
O2 O -0.0486(3) 0.22582(14) 0.47760(15)
O3 O 0.2395(3) 0.37825(16) 0.62131(13)
O4 O 0.4662(3) 0.36589(14) 0.53982(13)
O5 O 0.7782(3) 0.52207(14) 0.54247(13)
O6 O 0.8842(3) 0.39225(15) 0.54303(13)
N1 N -0.0191(4) 0.36225(16) 0.36715(16)
N2 N 0.3213(4) 0.28931(17) 0.38461(15)
C1 C -0.1859(5) 0.3975(2) 0.3582(2)
H1 H -0.2449 0.4167 0.4015
C2 C -0.2775(5) 0.4072(2) 0.2871(2)
H2 H -0.3946 0.4320 0.2836
C3 C -0.1920(6) 0.3797(2) 0.2231(2)
H3 H -0.2507 0.3858 0.1754
C4 C -0.0145(5) 0.3420(2) 0.2292(2)
C5 C 0.0839(6) 0.3112(2) 0.1650(2)
H4 H 0.0307 0.3164 0.1163
C6 C 0.2514(6) 0.2748(2) 0.1739(2)
H5 H 0.3124 0.2556 0.1310
C7 C 0.3384(5) 0.2648(2) 0.2480(2)
C8 C 0.5104(6) 0.2245(2) 0.2607(2)
H6 H 0.5739 0.2021 0.2198
C9 C 0.5838(5) 0.2183(2) 0.3330(2)
H7 H 0.6977 0.1919 0.3419
C10 C 0.4865(5) 0.2518(2) 0.3933(2)
H8 H 0.5393 0.2479 0.4423
C11 C 0.2466(5) 0.2953(2) 0.31246(19)
C12 C 0.0656(5) 0.3344(2) 0.30327(19)
C13 C 0.4113(5) 0.3831(2) 0.60591(19)
C14 C 0.5462(4) 0.4103(2) 0.66735(19)
C15 C 0.7250(4) 0.43993(19) 0.65202(18)
C16 C 0.8439(5) 0.4623(2) 0.7128(2)
H9 H 0.9640 0.4807 0.7031
C17 C 0.7856(6) 0.4575(2) 0.7872(2)
H10 H 0.8651 0.4737 0.8272
C18 C 0.6101(6) 0.4287(3) 0.8019(2)
H11 H 0.5712 0.4248 0.8521
C19 C 0.4921(5) 0.4056(2) 0.7426(2)
H12 H 0.3732 0.3865 0.7533
C20 C 0.0709(5) 0.1777(2) 0.5075(2)
C21 C 0.0332(5) 0.0855(2) 0.50581(19)
C22 C -0.1457(5) 0.0555(2) 0.4901(2)
H13 H -0.2441 0.0928 0.4836
C23 C 0.1793(5) 0.0291(2) 0.5159(2)
H14 H 0.2995 0.0483 0.5266
C24 C 0.7986(4) 0.4517(2) 0.57255(18)
C23B C -0.1793(5) -0.0291(2) 0.4841(2)
C21B C -0.0332(5) -0.0855(2) 0.49419(19)
C20B C -0.0709(5) -0.1777(2) 0.4925(2)
O1B O -0.2212(4) -0.20476(14) 0.46305(15)
O2B O 0.0486(3) -0.22582(14) 0.52240(15)
C22B C 0.1457(5) -0.0555(2) 0.5099(2)
H13B H 0.2441 -0.0928 0.5164
H14B H -0.2995 -0.0483 0.4734
O3B O 0.7605(3) 0.62175(16) 0.37869(13)
O4B O 0.5338(3) 0.63411(14) 0.46018(13)
O5B O 0.2218(3) 0.47793(14) 0.45753(13)
O6B O 0.1158(3) 0.60775(15) 0.45697(13)
C13B C 0.5887(5) 0.6169(2) 0.39409(19)
C14B C 0.4538(4) 0.5897(2) 0.33265(19)
C15B C 0.2750(4) 0.56007(19) 0.34798(18)
C16B C 0.1561(5) 0.5377(2) 0.2872(2)
H9B H 0.0360 0.5193 0.2969
C17B C 0.2144(6) 0.5425(2) 0.2128(2)
H10B H 0.1349 0.5263 0.1728
C18B C 0.3899(6) 0.5713(3) 0.1981(2)
H11B H 0.4288 0.5752 0.1479
C19B C 0.5079(5) 0.5944(2) 0.2574(2)
H12B H 0.6268 0.6135 0.2467
C24B C 0.2014(4) 0.5483(2) 0.42745(18)
Y1B Y -0.15085(4) -0.346564(19) 0.505845(18)
N1B N 0.0191(4) -0.36225(16) 0.63285(16)
N2B N -0.3213(4) -0.28931(17) 0.61539(15)
C1B C 0.1859(5) -0.3975(2) 0.6418(2)
H1B H 0.2449 -0.4167 0.5985
C2B C 0.2775(5) -0.4072(2) 0.7129(2)
H2B H 0.3946 -0.4320 0.7164
C3B C 0.1920(6) -0.3797(2) 0.7769(2)
H3B H 0.2507 -0.3858 0.8246
C4B C 0.0145(5) -0.3420(2) 0.7708(2)
C5B C -0.0839(6) -0.3112(2) 0.8350(2)
H4B H -0.0307 -0.3164 0.8837
C6B C -0.2514(6) -0.2748(2) 0.8261(2)
H5B H -0.3124 -0.2556 0.8690
C7B C -0.3384(5) -0.2648(2) 0.7520(2)
C8B C -0.5104(6) -0.2245(2) 0.7393(2)
H6B H -0.5739 -0.2021 0.7802
C9B C -0.5838(5) -0.2183(2) 0.6670(2)
H7B H -0.6977 -0.1919 0.6581
C10B C -0.4865(5) -0.2518(2) 0.6067(2)
H8B H -0.5393 -0.2479 0.5577
C11B C -0.2466(5) -0.2953(2) 0.68754(19)
C12B C -0.0656(5) -0.3344(2) 0.69673(19)
O6_2 O -0.1158(3) 0.39225(15) 0.54303(13)
Y1B_2 Y 0.84915(4) 0.653436(19) 0.505845(18)
Y1_2 Y 1.15085(4) 0.346564(19) 0.494155(18)
Y1B_3 Y -0.15085(4) 0.653436(19) 0.505845(18)
O3B_2 O -0.2395(3) -0.37825(16) 0.37869(13)
O4B_2 O -0.4662(3) -0.36589(14) 0.46018(13)
O5_2 O -0.2218(3) -0.47793(14) 0.54247(13)
O6B_2 O 0.1158(3) -0.39225(15) 0.45697(13)
loop_
_geom_bond_atom_site_label_1
_geom_bond_atom_site_label_2
_geom_bond_site_symmetry_1
_geom_bond_site_symmetry_2
Y1 O1 1_555 1_555
O1 C20 1_555 1_555
O2 Y1 1_555 1_555
O3 Y1 1_555 1_555
O4 Y1 1_555 1_555
O5 C24 1_555 1_555
O6 C24 1_555 1_555
N1 Y1 1_555 1_555
N2 Y1 1_555 1_555
C1 N1 1_555 1_555
H1 C1 1_555 1_555
C2 C1 1_555 1_555
H2 C2 1_555 1_555
C3 C2 1_555 1_555
H3 C3 1_555 1_555
C4 C3 1_555 1_555
C5 C4 1_555 1_555
H4 C5 1_555 1_555
C6 C5 1_555 1_555
H5 C6 1_555 1_555
C7 C6 1_555 1_555
C8 C7 1_555 1_555
H6 C8 1_555 1_555
C9 C8 1_555 1_555
H7 C9 1_555 1_555
C10 N2 1_555 1_555
H8 C10 1_555 1_555
C11 N2 1_555 1_555
C12 N1 1_555 1_555
C13 O3 1_555 1_555
C14 C13 1_555 1_555
C15 C14 1_555 1_555
C16 C15 1_555 1_555
H9 C16 1_555 1_555
C17 C16 1_555 1_555
H10 C17 1_555 1_555
C18 C17 1_555 1_555
H11 C18 1_555 1_555
C19 C14 1_555 1_555
H12 C19 1_555 1_555
C20 O2 1_555 1_555
C21 C20 1_555 1_555
C22 C21 1_555 1_555
H13 C22 1_555 1_555
C23 C21 1_555 1_555
H14 C23 1_555 1_555
C24 C15 1_555 1_555
C23B C22 1_555 1_555
C21B C23B 1_555 1_555
C20B C21B 1_555 1_555
O1B C20B 1_555 1_555
O2B C20B 1_555 1_555
C22B C23 1_555 1_555
H13B C22B 1_555 1_555
H14B C23B 1_555 1_555
O3B C13B 1_555 1_555
O4B C13B 1_555 1_555
O5B Y1 1_555 1_555
O6B C24B 1_555 1_555
C13B C14B 1_555 1_555
C14B C15B 1_555 1_555
C15B C16B 1_555 1_555
C16B H9B 1_555 1_555
C17B C16B 1_555 1_555
H10B C17B 1_555 1_555
C18B C17B 1_555 1_555
H11B C18B 1_555 1_555
C19B C14B 1_555 1_555
H12B C19B 1_555 1_555
C24B O5B 1_555 1_555
Y1B O1B 1_555 1_555
N1B Y1B 1_555 1_555
N2B Y1B 1_555 1_555
C1B N1B 1_555 1_555
H1B C1B 1_555 1_555
C2B C1B 1_555 1_555
H2B C2B 1_555 1_555
C3B C2B 1_555 1_555
H3B C3B 1_555 1_555
C4B C3B 1_555 1_555
C5B C4B 1_555 1_555
H4B C5B 1_555 1_555
C6B C5B 1_555 1_555
H5B C6B 1_555 1_555
C7B C6B 1_555 1_555
C8B C7B 1_555 1_555
H6B C8B 1_555 1_555
C9B C8B 1_555 1_555
H7B C9B 1_555 1_555
C10B N2B 1_555 1_555
H8B C10B 1_555 1_555
C11B N2B 1_555 1_555
C12B N1B 1_555 1_555
O6_2 Y1 1_555 1_555
Y1B_2 O5 1_555 1_555
Y1_2 O6 1_555 1_555
Y1B_3 O6B 1_555 1_555
O3B_2 Y1B 1_555 1_555
O4B_2 Y1B 1_555 1_555
O5_2 Y1B 1_555 1_555
O6B_2 Y1B 1_555 1_555
O4 C13 1_555 1_555
C4 C12 1_555 1_555
C7 C11 1_555 1_555
C9 C10 1_555 1_555
C11 C12 1_555 1_555
C18 C19 1_555 1_555
C21B C22B 1_555 1_555
O2B Y1B 1_555 1_555
O3B Y1B_2 1_555 1_555
O4B Y1B_2 1_555 1_555
C15B C24B 1_555 1_555
C18B C19B 1_555 1_555
C4B C12B 1_555 1_555
C7B C11B 1_555 1_555
C9B C10B 1_555 1_555
C11B C12B 1_555 1_555

#END
