
#######################################################################
#
#                 Cambridge Crystallographic Data Centre
#                                CCDC 
#
#######################################################################
#
# If this CIF has been generated from an entry in the Cambridge 
# Structural Database, then it will include bibliographic, chemical, 
# crystal, experimental, refinement or atomic coordinate data resulting 
# from the CCDC's data processing and validation procedures.
#
#######################################################################

data_BETWAZ
_symmetry_cell_setting           monoclinic
_symmetry_space_group_name_H-M   'P 21/n'
_symmetry_Int_Tables_number      14
_space_group_name_Hall           '-P 2yn'
loop_
_symmetry_equiv_pos_site_id
_symmetry_equiv_pos_as_xyz
1 x,y,z
2 1/2-x,1/2+y,1/2-z
3 -x,-y,-z
4 1/2+x,1/2-y,1/2+z
_cell_length_a                   3.6647(7)
_cell_length_b                   24.225(5)
_cell_length_c                   7.6060(15)
_cell_angle_alpha                90
_cell_angle_beta                 95.45(3)
_cell_angle_gamma                90
_cell_volume                     672.188
loop_
_atom_site_label
_atom_site_type_symbol
_atom_site_fract_x
_atom_site_fract_y
_atom_site_fract_z
K1 K 0.45865(9) 0.02515(2) 0.79424(5)
N1 N 0.0289(4) 0.08473(6) 1.4430(2)
O1 O 0.0362(3) 0.05606(5) 1.0705(2)
O2 O -0.0451(4) 0.09640(6) 1.5960(2)
O3 O 0.2092(3) 0.04257(5) 1.4191(2)
C1 C -0.0612(4) 0.10348(7) 1.1214(2)
C2 C -0.1697(5) 0.14566(8) 0.9951(3)
C3 C -0.2974(5) 0.19587(7) 1.0407(3)
C4 C -0.3306(5) 0.20949(8) 1.2182(3)
C5 C -0.2301(4) 0.17189(7) 1.3455(2)
C6 C -0.0890(4) 0.11995(7) 1.3014(2)
H1 H -0.1439(60) 0.1368(9) 0.8789(32)
H2 H -0.3692(55) 0.2220(9) 0.9489(29)
H3 H -0.4208(51) 0.2440(9) 1.2435(28)
H4 H -0.2486(52) 0.1791(9) 1.4593(30)
K1B K 0.54135(9) -0.02515(2) 1.20576(5)
O1B O 0.9638(3) -0.05606(5) 0.9295(2)
O2_2 O -0.0451(4) 0.09640(6) 0.5960(2)
O3B O 0.7908(3) -0.04257(5) 0.5809(2)
K1_2 K 0.45865(9) 0.02515(2) 1.79424(5)
loop_
_geom_bond_atom_site_label_1
_geom_bond_atom_site_label_2
_geom_bond_site_symmetry_1
_geom_bond_site_symmetry_2
K1 O1 1_555 1_555
N1 O2 1_555 1_555
O1 C1 1_555 1_555
O2 K1_2 1_555 1_555
O3 N1 1_555 1_555
C1 C2 1_555 1_555
C2 C3 1_555 1_555
C3 C4 1_555 1_555
C4 C5 1_555 1_555
C5 C6 1_555 1_555
C6 N1 1_555 1_555
H1 C2 1_555 1_555
H2 C3 1_555 1_555
H3 C4 1_555 1_555
H4 C5 1_555 1_555
K1B O1 1_555 1_555
O1B K1 1_555 1_555
O2_2 K1 1_555 1_555
O3B K1 1_555 1_555
O3 K1B 1_555 1_555
C1 C6 1_555 1_555
K1B O1B 1_555 1_555

#END
