
#######################################################################
#
#                 Cambridge Crystallographic Data Centre
#                                CCDC 
#
#######################################################################
#
# If this CIF has been generated from an entry in the Cambridge 
# Structural Database, then it will include bibliographic, chemical, 
# crystal, experimental, refinement or atomic coordinate data resulting 
# from the CCDC's data processing and validation procedures.
#
#######################################################################

data_BEVFAK
_symmetry_cell_setting           orthorhombic
_symmetry_space_group_name_H-M   'P 21 21 21'
_symmetry_Int_Tables_number      19
_space_group_name_Hall           'P 2ac 2ab'
loop_
_symmetry_equiv_pos_site_id
_symmetry_equiv_pos_as_xyz
1 x,y,z
2 1/2-x,-y,1/2+z
3 -x,1/2+y,1/2-z
4 1/2+x,1/2-y,-z
_cell_length_a                   11.122(2)
_cell_length_b                   16.334(3)
_cell_length_c                   24.032(5)
_cell_angle_alpha                90
_cell_angle_beta                 90
_cell_angle_gamma                90
_cell_volume                     4365.82
loop_
_atom_site_label
_atom_site_type_symbol
_atom_site_fract_x
_atom_site_fract_y
_atom_site_fract_z
Ag1 Ag 0.22628(2) 1.026508(15) 0.208775(10)
Ag2 Ag 0.68873(2) 0.994270(17) 0.163960(10)
C1 C 0.0436(3) 1.00242(19) 0.32202(12)
C2 C 0.1358(3) 0.95338(19) 0.34349(14)
H1 H 0.1907 0.9294 0.3193
C3 C 0.1461(3) 0.9405(2) 0.39887(15)
H2 H 0.2070 0.9069 0.4124
C4 C 0.0660(3) 0.9771(2) 0.43547(14)
H3 H 0.0724 0.9673 0.4735
C5 C -0.0221(3) 1.0274(2) 0.41577(14)
H4 H -0.0744 1.0528 0.4405
C6 C -0.0344(3) 1.0412(2) 0.35847(13)
H5 H -0.0941 1.0759 0.3451
C7 C -0.0666(3) 1.09532(19) 0.23118(13)
C8 C -0.0181(3) 1.16434(19) 0.20705(15)
H6 H 0.0641 1.1673 0.2001
C9 C -0.0928(4) 1.2296(2) 0.19312(15)
H7 H -0.0602 1.2763 0.1769
C10 C -0.2134(3) 1.2259(2) 0.20310(16)
H8 H -0.2624 1.2696 0.1932
C11 C -0.2640(3) 1.1566(2) 0.22818(14)
H9 H -0.3461 1.1540 0.2352
C12 C -0.1896(3) 1.0919(2) 0.24232(13)
H10 H -0.2219 1.0458 0.2594
C13 C -0.0591(3) 0.91837(18) 0.22951(13)
C14 C -0.1354(3) 0.88453(19) 0.27080(13)
H11 H -0.1386 0.9085 0.3059
C15 C -0.2047(3) 0.81696(19) 0.25969(14)
H12 H -0.2565 0.7971 0.2869
C16 C -0.1985(3) 0.77728(18) 0.20773(15)
C17 C -0.2649(3) 0.70509(19) 0.19622(15)
H13 H -0.3174 0.6842 0.2228
C18 C -0.2522(3) 0.6663(2) 0.14659(16)
H14 H -0.2960 0.6189 0.1396
C19 C -0.1738(3) 0.6967(2) 0.10552(16)
H15 H -0.1659 0.6690 0.0719
C20 C -0.1091(3) 0.7668(2) 0.11481(14)
H16 H -0.0579 0.7865 0.0873
C21 C -0.1195(3) 0.80958(18) 0.16597(14)
C22 C -0.0532(3) 0.88315(19) 0.17719(13)
C23 C 0.0252(3) 0.91718(18) 0.13259(12)
C24 C 0.1483(3) 0.89290(19) 0.13082(13)
C25 C 0.1974(3) 0.83887(19) 0.17089(14)
H17 H 0.1479 0.8178 0.1986
C26 C 0.3157(3) 0.8170(2) 0.16962(15)
H18 H 0.3465 0.7829 0.1971
C27 C 0.3913(3) 0.8457(2) 0.12705(15)
H19 H 0.4715 0.8296 0.1259
C28 C 0.3470(3) 0.8972(2) 0.08753(16)
H20 H 0.3978 0.9167 0.0598
C29 C 0.2244(3) 0.9216(2) 0.08781(14)
C30 C 0.1764(3) 0.9745(2) 0.04738(13)
H21 H 0.2260 0.9950 0.0195
C31 C 0.0585(3) 0.9962(2) 0.04846(13)
H22 H 0.0286 1.0305 0.0208
C32 C -0.0203(3) 0.9679(2) 0.09086(13)
C33 C -0.1957(3) 1.08484(19) 0.04850(13)
C34 C -0.1226(4) 1.1516(2) 0.06052(17)
H23 H -0.0595 1.1460 0.0856
C35 C -0.1435(4) 1.2265(2) 0.03518(19)
H24 H -0.0927 1.2704 0.0427
C36 C -0.2382(4) 1.2368(2) -0.00080(18)
H25 H -0.2527 1.2874 -0.0172
C37 C -0.3105(4) 1.1718(2) -0.01209(18)
H26 H -0.3748 1.1782 -0.0365
C38 C -0.2897(3) 1.0955(2) 0.01246(16)
H27 H -0.3400 1.0516 0.0042
C39 C -0.2308(3) 0.9121(2) 0.03481(14)
C40 C -0.3316(3) 0.8648(2) 0.04786(15)
H28 H -0.3724 0.8740 0.0810
C41 C -0.3712(4) 0.8044(2) 0.01168(17)
H29 H -0.4393 0.7738 0.0202
C42 C -0.3093(4) 0.7897(2) -0.03702(17)
H30 H -0.3347 0.7485 -0.0610
C43 C -0.2097(4) 0.8361(2) -0.05021(18)
H31 H -0.1683 0.8261 -0.0831
C44 C -0.1710(3) 0.8974(2) -0.01460(15)
H32 H -0.1044 0.9289 -0.0240
C45 C 0.4676(3) 1.2150(2) 0.13294(15)
C46 C 0.5431(4) 0.9932(2) 0.34230(15)
F1 F 0.47481(19) 1.22350(14) 0.18801(8)
F2 F 0.3927(2) 1.27140(13) 0.11414(10)
F3 F 0.5756(2) 1.22901(15) 0.11156(10)
F4 F 0.5942(3) 1.06958(15) 0.33737(11)
F5 F 0.6288(2) 0.94504(15) 0.35937(9)
F6 F 0.4592(2) 0.99999(15) 0.38119(8)
O1 O 0.2975(2) 1.11092(15) 0.14197(10)
O2 O 0.5020(2) 1.05964(17) 0.14172(11)
O3 O 0.4111(2) 1.11061(15) 0.05609(10)
O4 O 0.4056(2) 1.03129(17) 0.26035(10)
O5 O 0.4185(2) 0.88865(17) 0.28819(13)
O6 O 0.5879(2) 0.95475(15) 0.24152(10)
P1 P 0.03174(7) 1.00882(5) 0.24669(3)
P2 P -0.18135(7) 0.98833(5) 0.08541(3)
S1 S 0.48232(8) 0.96427(6) 0.27524(4)
S2 S 0.41500(7) 1.11258(5) 0.11553(3)
P2_2 P 0.81865(7) 0.98833(5) 0.08541(3)
Ag2_2 Ag -0.31127(2) 0.994270(17) 0.163960(10)
loop_
_geom_bond_atom_site_label_1
_geom_bond_atom_site_label_2
_geom_bond_site_symmetry_1
_geom_bond_site_symmetry_2
Ag1 O1 1_555 1_555
Ag2 O2 1_555 1_555
C1 C2 1_555 1_555
C2 H1 1_555 1_555
C3 C2 1_555 1_555
H2 C3 1_555 1_555
C4 C3 1_555 1_555
H3 C4 1_555 1_555
C5 C4 1_555 1_555
H4 C5 1_555 1_555
C6 C1 1_555 1_555
H5 C6 1_555 1_555
C7 C8 1_555 1_555
C8 H6 1_555 1_555
C9 C8 1_555 1_555
H7 C9 1_555 1_555
C10 C9 1_555 1_555
H8 C10 1_555 1_555
C11 C10 1_555 1_555
H9 C11 1_555 1_555
C12 C7 1_555 1_555
H10 C12 1_555 1_555
C13 C14 1_555 1_555
C14 H11 1_555 1_555
C15 C14 1_555 1_555
H12 C15 1_555 1_555
C16 C15 1_555 1_555
C17 C16 1_555 1_555
H13 C17 1_555 1_555
C18 C17 1_555 1_555
H14 C18 1_555 1_555
C19 C18 1_555 1_555
H15 C19 1_555 1_555
C20 C19 1_555 1_555
H16 C20 1_555 1_555
C21 C16 1_555 1_555
C22 C13 1_555 1_555
C23 C22 1_555 1_555
C24 C23 1_555 1_555
C25 C24 1_555 1_555
H17 C25 1_555 1_555
C26 C25 1_555 1_555
H18 C26 1_555 1_555
C27 C26 1_555 1_555
H19 C27 1_555 1_555
C28 C27 1_555 1_555
H20 C28 1_555 1_555
C29 C24 1_555 1_555
C30 C29 1_555 1_555
H21 C30 1_555 1_555
C31 C30 1_555 1_555
H22 C31 1_555 1_555
C32 C23 1_555 1_555
C33 C34 1_555 1_555
C34 H23 1_555 1_555
C35 C34 1_555 1_555
H24 C35 1_555 1_555
C36 C35 1_555 1_555
H25 C36 1_555 1_555
C37 C36 1_555 1_555
H26 C37 1_555 1_555
C38 C33 1_555 1_555
H27 C38 1_555 1_555
C39 C40 1_555 1_555
C40 H28 1_555 1_555
C41 C40 1_555 1_555
H29 C41 1_555 1_555
C42 C41 1_555 1_555
H30 C42 1_555 1_555
C43 C42 1_555 1_555
H31 C43 1_555 1_555
C44 C39 1_555 1_555
H32 C44 1_555 1_555
C45 F1 1_555 1_555
C46 F4 1_555 1_555
F2 C45 1_555 1_555
F3 C45 1_555 1_555
F5 C46 1_555 1_555
F6 C46 1_555 1_555
O1 S2 1_555 1_555
O2 S2 1_555 1_555
O3 S2 1_555 1_555
O4 Ag1 1_555 1_555
O5 S1 1_555 1_555
O6 Ag2 1_555 1_555
P1 Ag1 1_555 1_555
P2 C32 1_555 1_555
S1 C46 1_555 1_555
S2 C45 1_555 1_555
P2_2 Ag2 1_555 1_555
Ag2_2 P2 1_555 1_555
C1 P1 1_555 1_555
C5 C6 1_555 1_555
C7 P1 1_555 1_555
C11 C12 1_555 1_555
C13 P1 1_555 1_555
C20 C21 1_555 1_555
C21 C22 1_555 1_555
C28 C29 1_555 1_555
C31 C32 1_555 1_555
C33 P2 1_555 1_555
C37 C38 1_555 1_555
C39 P2 1_555 1_555
C43 C44 1_555 1_555
O4 S1 1_555 1_555
O6 S1 1_555 1_555

#END
