
#######################################################################
#
#                 Cambridge Crystallographic Data Centre
#                                CCDC 
#
#######################################################################
#
# If this CIF has been generated from an entry in the Cambridge 
# Structural Database, then it will include bibliographic, chemical, 
# crystal, experimental, refinement or atomic coordinate data resulting 
# from the CCDC's data processing and validation procedures.
#
#######################################################################

data_BEVJES
_symmetry_cell_setting           monoclinic
_symmetry_space_group_name_H-M   'P 21/n'
_symmetry_Int_Tables_number      14
_space_group_name_Hall           '-P 2yn'
loop_
_symmetry_equiv_pos_site_id
_symmetry_equiv_pos_as_xyz
1 x,y,z
2 1/2+x,1/2-y,1/2+z
3 -x,-y,-z
4 1/2-x,1/2+y,1/2-z
_cell_length_a                   7.1326(2)
_cell_length_b                   12.0376(4)
_cell_length_c                   9.8312(3)
_cell_angle_alpha                90
_cell_angle_beta                 99.4200(14)
_cell_angle_gamma                90
_cell_volume                     832.718
loop_
_atom_site_label
_atom_site_type_symbol
_atom_site_fract_x
_atom_site_fract_y
_atom_site_fract_z
Zn1 Zn 0.34430(9) 0.17978(5) 0.73063(6)
Br1 Br 0.01610(8) 0.17948(5) 0.70049(6)
Br2 Br 0.53024(8) 0.33850(4) 0.74508(6)
O1 O 0.4446(5) 0.0740(3) 0.5968(4)
C1 C 0.5349(8) 0.1139(4) 0.4840(5)
H1 H 0.6085 0.1822 0.5125
H2 H 0.4370 0.1322 0.4037
C2 C 0.3348(8) -0.0253(4) 0.5548(6)
H3 H 0.2350 -0.0083 0.4751
H4 H 0.2721 -0.0519 0.6315
O2 O 0.4332(5) 0.0709(3) 0.8889(4)
C3 C 0.6330(8) 0.0636(5) 0.9438(6)
H5 H 0.6668 0.1205 1.0164
H6 H 0.7084 0.0781 0.8696
C4 C 0.3207(8) 0.0493(5) 0.9969(5)
H7 H 0.1837 0.0536 0.9582
H8 H 0.3488 0.1061 1.0702
C2B C 0.6652(8) 0.0253(4) 0.4452(6)
O1B O 0.5554(5) -0.0740(3) 0.4032(4)
C1B C 0.4651(8) -0.1139(4) 0.5160(5)
H1B H 0.3915 -0.1822 0.4875
H2B H 0.5630 -0.1322 0.5963
H3B H 0.7650 0.0083 0.5249
H4B H 0.7279 0.0519 0.3685
C4B C 0.6793(8) -0.0493(5) 1.0031(5)
O2B O 0.5668(5) -0.0709(3) 1.1111(4)
C3B C 0.3670(8) -0.0636(5) 1.0562(6)
H5B H 0.3332 -0.1205 0.9836
H6B H 0.2916 -0.0781 1.1304
H7B H 0.8163 -0.0536 1.0418
H8B H 0.6512 -0.1061 0.9298
Zn1B Zn 0.65570(9) -0.17978(5) 0.26937(6)
Br1B Br 0.98390(8) -0.17948(5) 0.29951(6)
Br2B Br 0.46976(8) -0.33850(4) 0.25492(6)
Zn1B_2 Zn 0.65570(9) -0.17978(5) 1.26937(6)
O2B_2 O 0.5668(5) -0.0709(3) 0.1111(4)
loop_
_geom_bond_atom_site_label_1
_geom_bond_atom_site_label_2
_geom_bond_site_symmetry_1
_geom_bond_site_symmetry_2
Zn1 Br1 1_555 1_555
Br2 Zn1 1_555 1_555
O1 Zn1 1_555 1_555
C1 O1 1_555 1_555
H1 C1 1_555 1_555
H2 C1 1_555 1_555
C2 O1 1_555 1_555
H3 C2 1_555 1_555
H4 C2 1_555 1_555
O2 Zn1 1_555 1_555
C3 O2 1_555 1_555
H5 C3 1_555 1_555
H6 C3 1_555 1_555
C4 O2 1_555 1_555
H7 C4 1_555 1_555
H8 C4 1_555 1_555
C2B C1 1_555 1_555
O1B C2B 1_555 1_555
C1B C2 1_555 1_555
H1B C1B 1_555 1_555
H2B C1B 1_555 1_555
H3B C2B 1_555 1_555
H4B C2B 1_555 1_555
C4B C3 1_555 1_555
O2B C4B 1_555 1_555
C3B C4 1_555 1_555
H5B C3B 1_555 1_555
H6B C3B 1_555 1_555
H7B C4B 1_555 1_555
H8B C4B 1_555 1_555
Zn1B O1B 1_555 1_555
Br1B Zn1B 1_555 1_555
Br2B Zn1B 1_555 1_555
Zn1B_2 O2B 1_555 1_555
O2B_2 Zn1B 1_555 1_555
O1B C1B 1_555 1_555
O2B C3B 1_555 1_555

#END
