
#######################################################################
#
#                 Cambridge Crystallographic Data Centre
#                                CCDC 
#
#######################################################################
#
# If this CIF has been generated from an entry in the Cambridge 
# Structural Database, then it will include bibliographic, chemical, 
# crystal, experimental, refinement or atomic coordinate data resulting 
# from the CCDC's data processing and validation procedures.
#
#######################################################################

data_BEVKOD
_symmetry_cell_setting           monoclinic
_symmetry_space_group_name_H-M   'C 2/c'
_symmetry_Int_Tables_number      15
_space_group_name_Hall           '-C 2yn'
loop_
_symmetry_equiv_pos_site_id
_symmetry_equiv_pos_as_xyz
1 x,y,z
2 1/2+x,1/2+y,z
3 x,-y,1/2+z
4 1/2+x,1/2-y,1/2+z
5 -x,-y,-z
6 1/2-x,1/2-y,-z
7 -x,y,1/2-z
8 1/2-x,1/2+y,1/2-z
_cell_length_a                   10.8250(10)
_cell_length_b                   17.3160(10)
_cell_length_c                   14.4280(10)
_cell_angle_alpha                90
_cell_angle_beta                 109.9070(10)
_cell_angle_gamma                90
_cell_volume                     2542.87
loop_
_atom_site_label
_atom_site_type_symbol
_atom_site_fract_x
_atom_site_fract_y
_atom_site_fract_z
Cu1 Cu 0.59148(8) 0.04495(5) 0.18403(6)
S1 S 0.5000 0.2225(2) 0.2500
O1 O 0.5777(6) 0.1736(4) 0.2079(6)
O2 O 0.4114(6) 0.2698(4) 0.1726(7)
N1 N 0.7690(5) 0.0297(3) 0.2672(4)
N2 N 1.4256(5) -0.0257(3) 0.5863(4)
C1 C 0.8478(6) 0.0901(4) 0.3077(5)
C2 C 0.9770(6) 0.0811(4) 0.3657(6)
C3 C 1.0321(6) 0.0086(3) 0.3877(4)
C4 C 0.9518(6) -0.0528(3) 0.3466(5)
C5 C 0.8226(6) -0.0414(3) 0.2884(5)
C6 C 1.3748(7) 0.0452(4) 0.5632(6)
C7 C 1.2503(6) 0.0580(4) 0.4990(6)
C8 C 1.1689(6) -0.0027(3) 0.4527(4)
C9 C 1.2250(7) -0.0745(4) 0.4728(6)
C10 C 1.3492(7) -0.0847(4) 0.5382(6)
H1 H 0.8131 0.1398 0.2958
H2 H 1.0282 0.1245 0.3905
H3 H 0.9850 -0.1028 0.3582
H4 H 0.7704 -0.0842 0.2628
H5 H 1.4265 0.0875 0.5919
H6 H 1.2196 0.1084 0.4862
H7 H 1.1773 -0.1173 0.4412
H8 H 1.3826 -0.1346 0.5500
O1F O 0.4223(6) 0.1736(4) 0.2921(6)
O2F O 0.5886(6) 0.2698(4) 0.3274(7)
N1B N -0.2310(5) -0.0297(3) -0.2328(4)
N2B N 0.4256(5) 0.0257(3) 0.0863(4)
C1B C -0.1522(6) -0.0901(4) -0.1923(5)
C2B C -0.0230(6) -0.0811(4) -0.1343(6)
C3B C 0.0321(6) -0.0086(3) -0.1123(4)
C4B C -0.0482(6) 0.0528(3) -0.1534(5)
C5B C -0.1774(6) 0.0414(3) -0.2116(5)
C6B C 0.3748(7) -0.0452(4) 0.0632(6)
C7B C 0.2503(6) -0.0580(4) -0.0010(6)
C8B C 0.1689(6) 0.0027(3) -0.0473(4)
C9B C 0.2250(7) 0.0745(4) -0.0272(6)
C10B C 0.3492(7) 0.0847(4) 0.0382(6)
H1B H -0.1869 -0.1398 -0.2042
H2B H 0.0282 -0.1245 -0.1095
H3B H -0.0150 0.1028 -0.1418
H4B H -0.2296 0.0842 -0.2372
H5B H 0.4265 -0.0875 0.0919
H6B H 0.2196 -0.1084 -0.0138
H7B H 0.1773 0.1173 -0.0588
H8B H 0.3826 0.1346 0.0500
Cu1F Cu 0.40852(8) 0.04495(5) 0.31597(6)
Cu1B Cu 1.59148(8) -0.04495(5) 0.68403(6)
Cu1B_2 Cu -0.40852(8) -0.04495(5) -0.31597(6)
N1F N 0.2310(5) 0.0297(3) 0.2328(4)
N2D N 0.5744(5) 0.0257(3) 0.4137(4)
O3 O 0.1420(10) 0.2934(9) 0.1560(10)
O4 O -0.041(2) 0.2420(10) -0.028(2)
O5? O 0.143(2) 0.2463(9) 0.0660(10)
O6? O -0.272(2) 0.2515(9) -0.108(2)
loop_
_geom_bond_atom_site_label_1
_geom_bond_atom_site_label_2
_geom_bond_site_symmetry_1
_geom_bond_site_symmetry_2
Cu1 O1 1_555 1_555
S1 O1 1_555 1_555
O2 S1 1_555 1_555
N1 Cu1 1_555 1_555
N2 C6 1_555 1_555
C1 N1 1_555 1_555
C2 C1 1_555 1_555
C3 C2 1_555 1_555
C4 C3 1_555 1_555
C5 N1 1_555 1_555
C6 C7 1_555 1_555
C7 C8 1_555 1_555
C8 C3 1_555 1_555
C9 C8 1_555 1_555
C10 N2 1_555 1_555
H1 C1 1_555 1_555
H2 C2 1_555 1_555
H3 C4 1_555 1_555
H4 C5 1_555 1_555
H5 C6 1_555 1_555
H6 C7 1_555 1_555
H7 C9 1_555 1_555
H8 C10 1_555 1_555
O1F S1 1_555 1_555
O2F S1 1_555 1_555
N1B C1B 1_555 1_555
N2B Cu1 1_555 1_555
C1B C2B 1_555 1_555
C2B C3B 1_555 1_555
C3B C4B 1_555 1_555
C4B C5B 1_555 1_555
C5B N1B 1_555 1_555
C6B N2B 1_555 1_555
C7B C6B 1_555 1_555
C8B C3B 1_555 1_555
C9B C8B 1_555 1_555
C10B N2B 1_555 1_555
H1B C1B 1_555 1_555
H2B C2B 1_555 1_555
H3B C4B 1_555 1_555
H4B C5B 1_555 1_555
H5B C6B 1_555 1_555
H6B C7B 1_555 1_555
H7B C9B 1_555 1_555
H8B C10B 1_555 1_555
Cu1F O1F 1_555 1_555
Cu1B N2 1_555 1_555
Cu1B_2 N1B 1_555 1_555
N1F Cu1F 1_555 1_555
N2D Cu1F 1_555 1_555
C4 C5 1_555 1_555
C9 C10 1_555 1_555
C7B C8B 1_555 1_555
C9B C10B 1_555 1_555

#END
