
#######################################################################
#
#                 Cambridge Crystallographic Data Centre
#                                CCDC 
#
#######################################################################
#
# If this CIF has been generated from an entry in the Cambridge 
# Structural Database, then it will include bibliographic, chemical, 
# crystal, experimental, refinement or atomic coordinate data resulting 
# from the CCDC's data processing and validation procedures.
#
#######################################################################

data_BEVLOE
_symmetry_cell_setting           monoclinic
_symmetry_space_group_name_H-M   'P 21/c'
_symmetry_Int_Tables_number      14
_space_group_name_Hall           '-P 2ybc'
loop_
_symmetry_equiv_pos_site_id
_symmetry_equiv_pos_as_xyz
1 x,y,z
2 x,1/2-y,1/2+z
3 -x,-y,-z
4 -x,1/2+y,1/2-z
_cell_length_a                   9.5874(5)
_cell_length_b                   9.4468(5)
_cell_length_c                   19.4080(11)
_cell_angle_alpha                90
_cell_angle_beta                 94.2930(10)
_cell_angle_gamma                90
_cell_volume                     1752.86
loop_
_atom_site_label
_atom_site_type_symbol
_atom_site_fract_x
_atom_site_fract_y
_atom_site_fract_z
Zn1 Zn 0.0000 0.0000 0.0000
S1 S 0.03150(5) -0.03070(4) 0.13050(2)
S2 S 0.19679(5) 0.18679(4) 0.03145(2)
P1 P 0.17621(5) 0.11881(4) 0.12688(2)
O1 O 0.15470(14) 0.24414(12) 0.17920(7)
O2 O 0.32159(14) 0.06955(13) 0.16340(7)
N1 N -0.15511(14) 0.15731(13) 0.01284(7)
C1 C 0.0240(2) 0.32011(17) 0.18046(10)
H1 H -0.0039 0.3238 0.2280
H2 H -0.0489 0.2695 0.1522
C2 C 0.03691(19) 0.46908(17) 0.15321(9)
H3 H 0.0538 0.4642 0.1036
C3 C -0.1002(2) 0.5465(2) 0.16070(11)
H4 H -0.0935 0.6421 0.1430
H5 H -0.1189 0.5500 0.2091
H6 H -0.1755 0.4968 0.1348
C4 C 0.1573(2) 0.5477(2) 0.19104(12)
H7 H 0.2441 0.4979 0.1851
H8 H 0.1421 0.5529 0.2398
H9 H 0.1628 0.6427 0.1724
C5 C 0.3920(2) -0.05320(19) 0.13956(10)
H10 H 0.4302 -0.0331 0.0952
H11 H 0.3262 -0.1323 0.1331
C6 C 0.50893(19) -0.09135(18) 0.19304(10)
H12 H 0.5713 -0.0083 0.2003
C7 C 0.5930(3) -0.2128(2) 0.16517(13)
H13 H 0.6274 -0.1853 0.1214
H14 H 0.5336 -0.2955 0.1585
H15 H 0.6714 -0.2348 0.1979
C8 C 0.4537(3) -0.1300(2) 0.26111(11)
H16 H 0.5313 -0.1517 0.2944
H17 H 0.3934 -0.2122 0.2550
H18 H 0.4009 -0.0512 0.2778
C9 C -0.26701(18) 0.13242(17) 0.04790(9)
H19 H -0.2766 0.0428 0.0681
C10 C -0.36960(18) 0.23274(19) 0.05587(9)
H20 H -0.4474 0.2109 0.0806
C11 C -0.35666(18) 0.36515(18) 0.02719(9)
C12 C -0.23996(19) 0.39106(17) -0.00840(9)
H21 H -0.2270 0.4803 -0.0283
C13 C -0.14289(18) 0.28589(17) -0.01456(9)
H22 H -0.0643 0.3053 -0.0392
C14 C -0.4646(2) 0.4793(2) 0.03408(10)
H23 H -0.4192 0.5628 0.0558
H24 H -0.5349 0.4456 0.0643
C14B C -0.5354(2) 0.5207(2) -0.03408(10)
C11B C -0.64334(18) 0.63485(18) -0.02719(9)
C10B C -0.63040(18) 0.76726(19) -0.05587(9)
C9B C -0.73299(18) 0.86758(17) -0.04790(9)
N1B N -0.84489(14) 0.84269(13) -0.01284(7)
C13B C -0.85711(18) 0.71411(17) 0.01456(9)
C12B C -0.76004(19) 0.60894(17) 0.00840(9)
H21B H -0.7730 0.5197 0.0283
H22B H -0.9357 0.6947 0.0392
H19B H -0.7234 0.9572 -0.0681
H20B H -0.5526 0.7891 -0.0806
H23B H -0.5808 0.4372 -0.0558
H24B H -0.4651 0.5544 -0.0643
S1B S -0.03150(5) 0.03070(4) -0.13050(2)
S2B S -0.19679(5) -0.18679(4) -0.03145(2)
P1B P -0.17621(5) -0.11881(4) -0.12688(2)
O1B O -0.15470(14) -0.24414(12) -0.17920(7)
O2B O -0.32159(14) -0.06955(13) -0.16340(7)
C1B C -0.0240(2) -0.32011(17) -0.18046(10)
H1B H 0.0039 -0.3238 -0.2280
H2B H 0.0489 -0.2695 -0.1522
C2B C -0.03691(19) -0.46908(17) -0.15321(9)
H3B H -0.0538 -0.4642 -0.1036
C3B C 0.1002(2) -0.5465(2) -0.16070(11)
H4B H 0.0935 -0.6421 -0.1430
H5B H 0.1189 -0.5500 -0.2091
H6B H 0.1755 -0.4968 -0.1348
C4B C -0.1573(2) -0.5477(2) -0.19104(12)
H7B H -0.2441 -0.4979 -0.1851
H8B H -0.1421 -0.5529 -0.2398
H9B H -0.1628 -0.6427 -0.1724
C5B C -0.3920(2) 0.05320(19) -0.13956(10)
H10B H -0.4302 0.0331 -0.0952
H11B H -0.3262 0.1323 -0.1331
C6B C -0.50893(19) 0.09135(18) -0.19304(10)
H12B H -0.5713 0.0083 -0.2003
C7B C -0.5930(3) 0.2128(2) -0.16517(13)
H13B H -0.6274 0.1853 -0.1214
H14B H -0.5336 0.2955 -0.1585
H15B H -0.6714 0.2348 -0.1979
C8B C -0.4537(3) 0.1300(2) -0.26111(11)
H16B H -0.5313 0.1517 -0.2944
H17B H -0.3934 0.2122 -0.2550
H18B H -0.4009 0.0512 -0.2778
N1B_2 N 0.15511(14) -0.15731(13) -0.01284(7)
Zn1_2 Zn -1.0000 1.0000 0.0000
loop_
_geom_bond_atom_site_label_1
_geom_bond_atom_site_label_2
_geom_bond_site_symmetry_1
_geom_bond_site_symmetry_2
Zn1 S1 1_555 1_555
S1 P1 1_555 1_555
S2 Zn1 1_555 1_555
P1 S2 1_555 1_555
O1 P1 1_555 1_555
O2 P1 1_555 1_555
N1 Zn1 1_555 1_555
C1 O1 1_555 1_555
H1 C1 1_555 1_555
H2 C1 1_555 1_555
C2 C1 1_555 1_555
H3 C2 1_555 1_555
C3 C2 1_555 1_555
H4 C3 1_555 1_555
H5 C3 1_555 1_555
H6 C3 1_555 1_555
C4 C2 1_555 1_555
H7 C4 1_555 1_555
H8 C4 1_555 1_555
H9 C4 1_555 1_555
C5 O2 1_555 1_555
H10 C5 1_555 1_555
H11 C5 1_555 1_555
C6 C5 1_555 1_555
H12 C6 1_555 1_555
C7 C6 1_555 1_555
H13 C7 1_555 1_555
H14 C7 1_555 1_555
H15 C7 1_555 1_555
C8 C6 1_555 1_555
H16 C8 1_555 1_555
H17 C8 1_555 1_555
H18 C8 1_555 1_555
C9 N1 1_555 1_555
H19 C9 1_555 1_555
C10 C9 1_555 1_555
H20 C10 1_555 1_555
C11 C10 1_555 1_555
C12 C11 1_555 1_555
H21 C12 1_555 1_555
C13 N1 1_555 1_555
H22 C13 1_555 1_555
C14 C11 1_555 1_555
H23 C14 1_555 1_555
H24 C14 1_555 1_555
C14B C14 1_555 1_555
C11B C14B 1_555 1_555
C10B C11B 1_555 1_555
C9B C10B 1_555 1_555
N1B C9B 1_555 1_555
C13B N1B 1_555 1_555
C12B C11B 1_555 1_555
H21B C12B 1_555 1_555
H22B C13B 1_555 1_555
H19B C9B 1_555 1_555
H20B C10B 1_555 1_555
H23B C14B 1_555 1_555
H24B C14B 1_555 1_555
S1B Zn1 1_555 1_555
S2B Zn1 1_555 1_555
P1B S1B 1_555 1_555
O1B P1B 1_555 1_555
O2B P1B 1_555 1_555
C1B O1B 1_555 1_555
H1B C1B 1_555 1_555
H2B C1B 1_555 1_555
C2B C1B 1_555 1_555
H3B C2B 1_555 1_555
C3B C2B 1_555 1_555
H4B C3B 1_555 1_555
H5B C3B 1_555 1_555
H6B C3B 1_555 1_555
C4B C2B 1_555 1_555
H7B C4B 1_555 1_555
H8B C4B 1_555 1_555
H9B C4B 1_555 1_555
C5B O2B 1_555 1_555
H10B C5B 1_555 1_555
H11B C5B 1_555 1_555
C6B C5B 1_555 1_555
H12B C6B 1_555 1_555
C7B C6B 1_555 1_555
H13B C7B 1_555 1_555
H14B C7B 1_555 1_555
H15B C7B 1_555 1_555
C8B C6B 1_555 1_555
H16B C8B 1_555 1_555
H17B C8B 1_555 1_555
H18B C8B 1_555 1_555
N1B_2 Zn1 1_555 1_555
Zn1_2 N1B 1_555 1_555
C12 C13 1_555 1_555
C13B C12B 1_555 1_555
S2B P1B 1_555 1_555

#END
