
#######################################################################
#
#                 Cambridge Crystallographic Data Centre
#                                CCDC 
#
#######################################################################
#
# If this CIF has been generated from an entry in the Cambridge 
# Structural Database, then it will include bibliographic, chemical, 
# crystal, experimental, refinement or atomic coordinate data resulting 
# from the CCDC's data processing and validation procedures.
#
#######################################################################

data_BEVLIY
_symmetry_cell_setting           triclinic
_symmetry_space_group_name_H-M   'P -1'
_symmetry_Int_Tables_number      2
_space_group_name_Hall           '-P 1'
loop_
_symmetry_equiv_pos_site_id
_symmetry_equiv_pos_as_xyz
1 x,y,z
2 -x,-y,-z
_cell_length_a                   7.0650(10)
_cell_length_b                   8.4842(10)
_cell_length_c                   8.6617(9)
_cell_angle_alpha                98.471(7)
_cell_angle_beta                 112.685(4)
_cell_angle_gamma                103.098(4)
_cell_volume                     450.368
loop_
_atom_site_label
_atom_site_type_symbol
_atom_site_fract_x
_atom_site_fract_y
_atom_site_fract_z
Ni1 Ni 0.5000 0.5000 0.5000
O1 O 0.2747(3) 0.26834(19) 0.4323(2)
O2 O 0.1056(3) 0.3179(2) 0.5970(2)
O3 O 0.3007(3) 0.6170(2) 0.5673(2)
N1 N 0.7654(4) 0.5579(3) 1.0396(3)
H1 H 0.8118 0.6199 1.1427
N2 N 0.6318(3) 0.4840(2) 0.7531(2)
C1 C 0.6916(4) 0.6049(3) 0.8925(3)
H2 H 0.6834 0.7123 0.8889
C2 C 0.6353(4) 0.1839(3) 0.7276(3)
H3 H 0.5788 0.1519 0.6074
C3 C 0.6882(5) 0.0718(4) 0.8249(4)
H4 H 0.6671 -0.0376 0.7694
C4 C 0.7730(6) 0.1205(4) 1.0056(4)
H5 H 0.8065 0.0423 1.0678
C5 C 0.8080(5) 0.2797(4) 1.0934(4)
H6 H 0.8660 0.3115 1.2137
C6 C 0.7536(4) 0.3922(3) 0.9957(3)
C7 C 0.6692(4) 0.3454(3) 0.8153(3)
C8 C 0.1524(4) 0.2216(3) 0.5016(3)
C9 C 0.0593(4) 0.0364(3) 0.4650(3)
H7 H 0.0871 -0.0319 0.3874
H8 H 0.205(7) 0.653(6) 0.500(6)
H9 H 0.216(7) 0.534(6) 0.581(6)
C9A C -0.0593(4) -0.0364(3) 0.5350(3)
C8A C -0.1524(4) -0.2216(3) 0.4984(3)
O1A O -0.2747(3) -0.26834(19) 0.5677(2)
O2A O -0.1056(3) -0.3179(2) 0.4030(2)
H7A H -0.0871 0.0319 0.6126
O3A O 0.6993(3) 0.3830(2) 0.4327(2)
H8A H 0.795(7) 0.347(6) 0.500(6)
H9A H 0.784(7) 0.466(6) 0.419(6)
N1A N 0.2346(4) 0.4421(3) -0.0396(3)
H1A H 0.1882 0.3801 -0.1427
N2A N 0.3682(3) 0.5160(2) 0.2469(2)
C1A C 0.3084(4) 0.3951(3) 0.1075(3)
H2A H 0.3166 0.2877 0.1111
C2A C 0.3647(4) 0.8161(3) 0.2724(3)
H3A H 0.4212 0.8481 0.3926
C3A C 0.3118(5) 0.9282(4) 0.1751(4)
H4A H 0.3329 1.0376 0.2306
C4A C 0.2270(6) 0.8795(4) -0.0056(4)
H5A H 0.1935 0.9577 -0.0678
C5A C 0.1920(5) 0.7203(4) -0.0934(4)
H6A H 0.1340 0.6885 -0.2137
C6A C 0.2464(4) 0.6078(3) 0.0043(3)
C7A C 0.3308(4) 0.6546(3) 0.1847(3)
O1A_2 O 0.7253(3) 0.73166(19) 0.5677(2)
Ni1_2 Ni -0.5000 -0.5000 0.5000
loop_
_geom_bond_atom_site_label_1
_geom_bond_atom_site_label_2
_geom_bond_site_symmetry_1
_geom_bond_site_symmetry_2
Ni1 O1 1_555 1_555
O1 C8 1_555 1_555
O2 C8 1_555 1_555
O3 Ni1 1_555 1_555
N1 H1 1_555 1_555
N2 Ni1 1_555 1_555
C1 N1 1_555 1_555
H2 C1 1_555 1_555
C2 H3 1_555 1_555
C3 C2 1_555 1_555
H4 C3 1_555 1_555
C4 C3 1_555 1_555
H5 C4 1_555 1_555
C5 C4 1_555 1_555
H6 C5 1_555 1_555
C6 N1 1_555 1_555
C7 N2 1_555 1_555
C8 C9 1_555 1_555
C9 H7 1_555 1_555
H8 O3 1_555 1_555
H9 O3 1_555 1_555
C9A C9 1_555 1_555
C8A C9A 1_555 1_555
O1A C8A 1_555 1_555
O2A C8A 1_555 1_555
H7A C9A 1_555 1_555
O3A Ni1 1_555 1_555
H8A O3A 1_555 1_555
H9A O3A 1_555 1_555
N1A H1A 1_555 1_555
N2A Ni1 1_555 1_555
C1A N1A 1_555 1_555
H2A C1A 1_555 1_555
C2A H3A 1_555 1_555
C3A C2A 1_555 1_555
H4A C3A 1_555 1_555
C4A C3A 1_555 1_555
H5A C4A 1_555 1_555
C5A C4A 1_555 1_555
H6A C5A 1_555 1_555
C6A N1A 1_555 1_555
C7A N2A 1_555 1_555
O1A_2 Ni1 1_555 1_555
Ni1_2 O1A 1_555 1_555
N2 C1 1_555 1_555
C2 C7 1_555 1_555
C5 C6 1_555 1_555
C6 C7 1_555 1_555
N2A C1A 1_555 1_555
C2A C7A 1_555 1_555
C5A C6A 1_555 1_555
C6A C7A 1_555 1_555

#END
