
#######################################################################
#
#                 Cambridge Crystallographic Data Centre
#                                CCDC 
#
#######################################################################
#
# If this CIF has been generated from an entry in the Cambridge 
# Structural Database, then it will include bibliographic, chemical, 
# crystal, experimental, refinement or atomic coordinate data resulting 
# from the CCDC's data processing and validation procedures.
#
#######################################################################

data_BEVPIC
_symmetry_cell_setting           triclinic
_symmetry_space_group_name_H-M   'P -1'
_symmetry_Int_Tables_number      2
_space_group_name_Hall           '-P 1'
loop_
_symmetry_equiv_pos_site_id
_symmetry_equiv_pos_as_xyz
1 x,y,z
2 -x,-y,-z
_cell_length_a                   12.6669(2)
_cell_length_b                   13.8538(2)
_cell_length_c                   16.0289(3)
_cell_angle_alpha                75.201(1)
_cell_angle_beta                 69.012(1)
_cell_angle_gamma                65.529(1)
_cell_volume                     2371.25
loop_
_atom_site_label
_atom_site_type_symbol
_atom_site_fract_x
_atom_site_fract_y
_atom_site_fract_z
Y1 Y 0.4990(1) 0.0040(1) 0.2412(1)
Y2 Y 0.1818(1) 0.1210(1) 0.4636(1)
Y3 Y -0.0146(1) -0.0487(1) 0.2583(1)
Y4 Y 0.8078(1) -0.1122(1) 0.0026(1)
O1 O 0.4673(3) -0.0875(3) 0.1623(2)
O2 O 0.6528(3) -0.1483(3) 0.2659(2)
O3 O 0.5308(3) 0.0753(3) 0.3381(2)
O4 O 0.3518(3) 0.1599(2) 0.2110(2)
O5 O 0.6452(3) 0.0436(2) 0.1209(2)
O6 O 0.3531(3) -0.0417(2) 0.3585(2)
O7 O 0.7209(3) -0.0038(3) 0.4407(2)
O8 O 0.3448(3) 0.1686(3) 0.4126(3)
O9 O 0.1770(3) 0.1945(3) 0.3209(2)
O10 O 0.8801(3) -0.2573(2) 0.4517(2)
O11 O 0.1676(3) -0.0314(2) 0.4390(2)
O12 O 0.0283(3) -0.1928(2) 0.5329(2)
O13 O -0.0004(3) -0.1023(2) 0.4036(2)
O14 O 0.1878(3) -0.1205(3) 0.2114(2)
O15 O 0.7941(3) 0.0663(3) 0.3012(2)
O16 O 0.8975(3) -0.1782(3) 0.3102(2)
O17 O 0.0265(3) -0.1442(3) 0.1410(2)
O18 O 0.0237(3) 0.0913(3) 0.2899(2)
O19 O 0.6307(3) -0.1348(3) 0.0459(3)
O20 O 0.2721(3) -0.0296(2) 0.0880(2)
O21 O 0.8184(3) -0.1882(2) 0.1485(2)
O22 O 0.9846(3) 0.1902(2) 0.0098(2)
O23 O 0.1468(3) 0.1893(2) 0.1309(2)
O24 O 0.8306(3) 0.0367(2) 0.0410(2)
O25 O 0.1363(3) 0.3021(2) 0.0074(2)
O26 O 0.9872(3) 0.0726(2) 0.1306(2)
C1 C 0.0701(4) -0.1689(4) 0.4500(3)
C2 C 0.2003(4) -0.2307(4) 0.4032(3)
C3 C 0.2955(4) -0.1924(4) 0.3754(3)
C4 C 0.4121(4) -0.2579(4) 0.3343(3)
C5 C 0.4341(5) -0.3582(4) 0.3180(4)
C6 C 0.3387(5) -0.3949(4) 0.3427(4)
C7 C 0.2230(5) -0.3322(4) 0.3860(4)
C8 C 0.2709(4) -0.1140(4) 0.1401(3)
C9 C 0.3730(4) -0.2158(3) 0.1124(3)
C10 C 0.4944(4) -0.2260(4) 0.0861(3)
C11 C 0.5832(4) -0.3200(4) 0.0554(3)
C12 C 0.5524(5) -0.4020(4) 0.0497(4)
C13 C 0.4333(5) -0.3917(4) 0.0755(4)
C14 C 0.3437(5) -0.2993(4) 0.1068(4)
C15 C 0.4569(5) 0.1458(4) 0.3891(3)
C16 C 0.5056(4) 0.2104(4) 0.4162(3)
C17 C 0.4263(5) 0.3070(4) 0.4500(4)
C18 C 0.4713(6) 0.3732(4) 0.4673(4)
C19 C 0.5931(6) 0.3466(4) 0.4484(4)
C20 C 0.6729(5) 0.2513(4) 0.4157(4)
C21 C 0.6300(4) 0.1815(4) 0.4013(3)
C22 C 0.1427(4) 0.2812(4) 0.0865(3)
C23 C 0.1494(4) 0.3624(4) 0.1293(3)
C24 C 0.1980(4) 0.3336(4) 0.2020(3)
C25 C 0.2023(5) 0.4125(4) 0.2378(4)
C26 C 0.1620(5) 0.5181(4) 0.2021(4)
C27 C 0.1148(5) 0.5471(4) 0.1297(4)
C28 C 0.1100(5) 0.4702(4) 0.0934(4)
C29 C 0.9294(4) 0.1539(4) 0.0849(3)
C30 C 0.7970(4) 0.2156(3) 0.1223(3)
C31 C 0.7036(4) 0.1851(4) 0.1247(3)
C32 C 0.5837(4) 0.2536(4) 0.1572(3)
C33 C 0.5581(5) 0.3450(4) 0.1900(4)
C34 C 0.6509(5) 0.3730(4) 0.1898(4)
C35 C 0.7696(5) 0.3097(4) 0.1550(4)
C36 C 0.8779(4) -0.2511(4) 0.3722(3)
C37 C 0.8554(4) -0.3369(3) 0.3491(3)
C38 C 0.8057(4) -0.3188(4) 0.2782(3)
C39 C 0.7972(5) -0.4032(4) 0.2533(4)
C40 C 0.8331(5) -0.5048(4) 0.2994(4)
C41 C 0.8795(5) -0.5235(4) 0.3702(4)
C42 C 0.8885(5) -0.4400(4) 0.3948(3)
C43 C 0.2462(4) 0.2194(4) 0.2461(3)
C44 C 0.7563(5) -0.2086(4) 0.2274(3)
C45 C 0.7208(4) 0.0731(4) 0.3776(4)
C46 C 0.5331(5) -0.1422(4) 0.0972(3)
C47 C 0.7293(5) 0.0824(4) 0.0935(3)
C48 C 0.2710(4) -0.0825(4) 0.3913(3)
O7A O 0.2791(3) 0.0038(3) 0.5593(2)
O10A O 0.1199(3) 0.2573(2) 0.5483(2)
O12A O -0.0283(3) 0.1928(2) 0.4671(2)
O13A O 0.0004(3) 0.1023(2) 0.5964(2)
O15_2 O -0.2059(3) 0.0663(3) 0.3012(2)
O16_2 O -0.1025(3) -0.1782(3) 0.3102(2)
O26_2 O -0.0128(3) 0.0726(2) 0.1306(2)
O20A O 0.7279(3) 0.0296(2) -0.0880(2)
O22A O 1.0154(3) -0.1902(2) -0.0098(2)
O23A O 0.8532(3) -0.1893(2) -0.1309(2)
O25A O 0.8637(3) -0.3021(2) -0.0074(2)
O26A O 1.0128(3) -0.0726(2) -0.1306(2)
Y2A Y 0.8182(1) -0.1210(1) 0.5364(1)
Y2A_2 Y -0.1818(1) -0.1210(1) 0.5364(1)
Y3_2 Y 0.9854(1) -0.0487(1) 0.2583(1)
Y4A Y 0.1922(1) 0.1122(1) -0.0026(1)
Y4A_2 Y 1.1922(1) 0.1122(1) -0.0026(1)
loop_
_geom_bond_atom_site_label_1
_geom_bond_atom_site_label_2
_geom_bond_site_symmetry_1
_geom_bond_site_symmetry_2
Y1 O1 1_555 1_555
Y2 O6 1_555 1_555
Y3 O13 1_555 1_555
Y4 O5 1_555 1_555
O1 C46 1_555 1_555
O2 Y1 1_555 1_555
O3 Y1 1_555 1_555
O4 Y1 1_555 1_555
O5 Y1 1_555 1_555
O6 Y1 1_555 1_555
O7 C45 1_555 1_555
O8 Y2 1_555 1_555
O9 Y2 1_555 1_555
O10 C36 1_555 1_555
O11 Y2 1_555 1_555
O12 C1 1_555 1_555
O13 C1 1_555 1_555
O14 Y3 1_555 1_555
O15 C45 1_555 1_555
O16 C36 1_555 1_555
O17 Y3 1_555 1_555
O18 Y3 1_555 1_555
O19 Y4 1_555 1_555
O20 C8 1_555 1_555
O21 Y4 1_555 1_555
O22 C29 1_555 1_555
O23 C22 1_555 1_555
O24 Y4 1_555 1_555
O25 C22 1_555 1_555
O26 C29 1_555 1_555
C1 C2 1_555 1_555
C2 C3 1_555 1_555
C3 C4 1_555 1_555
C4 C5 1_555 1_555
C5 C6 1_555 1_555
C6 C7 1_555 1_555
C7 C2 1_555 1_555
C8 O14 1_555 1_555
C9 C8 1_555 1_555
C10 C9 1_555 1_555
C11 C10 1_555 1_555
C12 C11 1_555 1_555
C13 C12 1_555 1_555
C14 C9 1_555 1_555
C15 O3 1_555 1_555
C16 C15 1_555 1_555
C17 C16 1_555 1_555
C18 C17 1_555 1_555
C19 C18 1_555 1_555
C20 C19 1_555 1_555
C21 C16 1_555 1_555
C22 C23 1_555 1_555
C23 C24 1_555 1_555
C24 C25 1_555 1_555
C25 C26 1_555 1_555
C26 C27 1_555 1_555
C27 C28 1_555 1_555
C28 C23 1_555 1_555
C29 C30 1_555 1_555
C30 C31 1_555 1_555
C31 C32 1_555 1_555
C32 C33 1_555 1_555
C33 C34 1_555 1_555
C34 C35 1_555 1_555
C35 C30 1_555 1_555
C36 C37 1_555 1_555
C37 C38 1_555 1_555
C38 C39 1_555 1_555
C39 C40 1_555 1_555
C40 C41 1_555 1_555
C41 C42 1_555 1_555
C42 C37 1_555 1_555
C43 O4 1_555 1_555
C44 O2 1_555 1_555
C45 C21 1_555 1_555
C46 O19 1_555 1_555
C47 O5 1_555 1_555
C48 O6 1_555 1_555
O7A Y2 1_555 1_555
O10A Y2 1_555 1_555
O12A Y2 1_555 1_555
O13A Y2 1_555 1_555
O15_2 Y3 1_555 1_555
O16_2 Y3 1_555 1_555
O26_2 Y3 1_555 1_555
O20A Y4 1_555 1_555
O22A Y4 1_555 1_555
O23A Y4 1_555 1_555
O25A Y4 1_555 1_555
O26A Y4 1_555 1_555
Y2A O7 1_555 1_555
Y2A_2 O12 1_555 1_555
Y3_2 O15 1_555 1_555
Y4A O20 1_555 1_555
Y4A_2 O22 1_555 1_555
O8 C15 1_555 1_555
O9 C43 1_555 1_555
O10 Y2A 1_555 1_555
O11 C48 1_555 1_555
O13 Y2A_2 1_555 1_555
O16 Y3_2 1_555 1_555
O21 C44 1_555 1_555
O23 Y4A 1_555 1_555
O24 C47 1_555 1_555
O25 Y4A 1_555 1_555
O26 Y3_2 1_555 1_555
O26 Y4A_2 1_555 1_555
C3 C48 1_555 1_555
C10 C46 1_555 1_555
C13 C14 1_555 1_555
C20 C21 1_555 1_555
C24 C43 1_555 1_555
C31 C47 1_555 1_555
C38 C44 1_555 1_555
O26_2 Y4A 1_555 1_555

#END
