
#######################################################################
#
#                 Cambridge Crystallographic Data Centre
#                                CCDC 
#
#######################################################################
#
# If this CIF has been generated from an entry in the Cambridge 
# Structural Database, then it will include bibliographic, chemical, 
# crystal, experimental, refinement or atomic coordinate data resulting 
# from the CCDC's data processing and validation procedures.
#
#######################################################################

data_BEVQUP
_symmetry_cell_setting           tetragonal
_symmetry_space_group_name_H-M   'I 41/a'
_symmetry_Int_Tables_number      88
_space_group_name_Hall           '-I 4ad'
loop_
_symmetry_equiv_pos_site_id
_symmetry_equiv_pos_as_xyz
1 x,y,z
2 3/4-y,1/4+x,1/4+z
3 1/2-x,-y,1/2+z
4 3/4+y,3/4-x,3/4+z
5 1/2+x,1/2+y,1/2+z
6 1/4-y,3/4+x,3/4+z
7 -x,1/2-y,z
8 1/4+y,1/4-x,1/4+z
9 -x,-y,-z
10 1/4+y,3/4-x,3/4-z
11 1/2+x,y,1/2-z
12 1/4-y,1/4+x,1/4-z
13 1/2-x,1/2-y,1/2-z
14 3/4+y,1/4-x,1/4-z
15 x,1/2+y,-z
16 3/4-y,3/4+x,3/4-z
_cell_length_a                   11.4569(3)
_cell_length_b                   11.4569(3)
_cell_length_c                   9.1502(4)
_cell_angle_alpha                90
_cell_angle_beta                 90
_cell_angle_gamma                90
_cell_volume                     1201.06
loop_
_atom_site_label
_atom_site_type_symbol
_atom_site_fract_x
_atom_site_fract_y
_atom_site_fract_z
Y1 Y 0.0000 0.2500 0.6250
Rb1 Rb 0.0000 0.2500 0.1250
O1 O -0.013(5) 0.130(1) 0.4035(7)
O2 O -0.090(6) -0.047(1) 0.3148(7)
C1 C 0.005(1) 0.021(3) 0.415(1)
O3 O 0.1519(7) 0.4599(6) 0.0807(8)
C1H C -0.005(1) -0.021(3) 0.585(1)
O1H O 0.013(5) -0.130(1) 0.5965(7)
O2H O 0.090(6) 0.047(1) 0.6852(7)
O1F O 0.013(5) 0.370(1) 0.4035(7)
O2F O 0.090(6) 0.547(1) 0.3148(7)
C1F C -0.005(1) 0.479(3) 0.415(1)
C1N C 0.005(1) 0.521(3) 0.585(1)
O1N O -0.013(5) 0.630(1) 0.5965(7)
O2N O -0.090(6) 0.453(1) 0.6852(7)
O3F O -0.1519(7) 0.0401(6) 0.0807(8)
O3K O -0.2099(6) 0.4019(7) 0.1693(8)
O3M O 0.2099(6) 0.0981(7) 0.1693(8)
O1K O 0.120(1) 0.237(5) 0.8465(7)
O1M O -0.120(1) 0.263(5) 0.8465(7)
O2A O -0.203(1) 0.160(6) 0.5648(7)
O2G O 0.203(1) 0.340(6) 0.5648(7)
O1K_2 O 0.120(1) 0.237(5) -0.1535(7)
O1M_2 O -0.120(1) 0.263(5) -0.1535(7)
Y1C Y 0.0000 -0.2500 0.3750
Rb1C Rb 0.0000 -0.2500 0.8750
Y1C_2 Y 0.0000 0.7500 0.3750
Rb1C_2 Rb 0.0000 0.7500 0.8750
loop_
_geom_bond_atom_site_label_1
_geom_bond_atom_site_label_2
_geom_bond_site_symmetry_1
_geom_bond_site_symmetry_2
Y1 O1 1_555 1_555
Rb1 O1 1_555 1_555
O1 C1 1_555 1_555
O2 C1 1_555 1_555
C1 C1H 1_555 1_555
O3 Rb1 1_555 1_555
C1H O1H 1_555 1_555
O1H Y1C 1_555 1_555
O2H Y1 1_555 1_555
O1F Y1 1_555 1_555
O2F C1F 1_555 1_555
C1F O1F 1_555 1_555
C1N C1F 1_555 1_555
O1N C1N 1_555 1_555
O2N Y1 1_555 1_555
O3F Rb1 1_555 1_555
O3K Rb1 1_555 1_555
O3M Rb1 1_555 1_555
O1K Y1 1_555 1_555
O1M Y1 1_555 1_555
O2A Y1 1_555 1_555
O2G Y1 1_555 1_555
O1K_2 Rb1 1_555 1_555
O1M_2 Rb1 1_555 1_555
Y1C O2 1_555 1_555
Rb1C O1H 1_555 1_555
Y1C_2 O2F 1_555 1_555
Rb1C_2 O1N 1_555 1_555
Rb1 O1F 1_555 1_555
C1H O2H 1_555 1_555
C1N O2N 1_555 1_555
O1N Y1C_2 1_555 1_555

#END
