
#######################################################################
#
#                 Cambridge Crystallographic Data Centre
#                                CCDC 
#
#######################################################################
#
# If this CIF has been generated from an entry in the Cambridge 
# Structural Database, then it will include bibliographic, chemical, 
# crystal, experimental, refinement or atomic coordinate data resulting 
# from the CCDC's data processing and validation procedures.
#
#######################################################################

data_BEVRUR
_symmetry_cell_setting           monoclinic
_symmetry_space_group_name_H-M   'P 21/c'
_symmetry_Int_Tables_number      14
_space_group_name_Hall           '-P 2ybc'
loop_
_symmetry_equiv_pos_site_id
_symmetry_equiv_pos_as_xyz
1 x,y,z
2 -x,1/2+y,1/2-z
3 -x,-y,-z
4 x,1/2-y,1/2+z
_cell_length_a                   8.9501(2)
_cell_length_b                   16.7923(3)
_cell_length_c                   10.0015(2)
_cell_angle_alpha                90
_cell_angle_beta                 105.866(1)
_cell_angle_gamma                90
_cell_volume                     1445.89
loop_
_atom_site_label
_atom_site_type_symbol
_atom_site_fract_x
_atom_site_fract_y
_atom_site_fract_z
Hg1 Hg 0.56169(2) 0.378651(9) 0.48271(2)
O1 O 0.5441(3) 0.5294(2) 0.3830(3)
O2 O 0.6527(3) 0.5297(2) 0.2070(3)
O3 O 0.7062(3) 0.6807(2) 0.2284(3)
O4 O 0.6010(3) 0.6926(2) 0.4055(3)
O5 O 0.1892(3) 0.4267(2) 0.1054(3)
O6 O 0.2992(3) 0.4024(2) 0.3291(3)
O7 O 0.4276(3) 0.3788(2) 0.0326(2)
O8 O 0.5652(3) 0.3564(2) 0.2520(3)
C1 C 0.6072(4) 0.5626(2) 0.3029(4)
C2 C 0.6386(4) 0.6534(2) 0.3154(4)
C3 C 0.3014(4) 0.4051(2) 0.2074(4)
C4 C 0.4474(4) 0.3785(2) 0.1645(4)
O9 O 0.6507(3) 0.2329(2) 0.4743(3)
H1 H 0.598(5) 0.193(2) 0.511(4)
H2 H 0.661(5) 0.213(2) 0.388(2)
O10 O 0.9479(3) 0.3955(2) 0.8821(3)
O11 O 0.7134(3) 0.3648(2) 0.7442(3)
O12 O 0.8240(3) 0.4103(2) 0.5211(3)
O13 O 1.0562(3) 0.4212(2) 0.6745(2)
C5 C 0.8465(4) 0.3870(2) 0.7651(4)
C6 C 0.9116(4) 0.4077(2) 0.6410(4)
Zr1 Zr 0.80268(4) 0.59483(2) 0.10752(3)
O14 O 0.8489(3) 0.7158(2) 0.0434(3)
H3 H 0.768(3) 0.753(2) 0.009(4)
H4 H 0.917(3) 0.720(2) -0.014(3)
O15 O 0.8460(3) 0.4685(2) 0.0908(3)
H5 H 0.882(4) 0.445(2) 0.019(2)
H6 H 0.883(4) 0.436(2) 0.171(2)
Hg1B Hg 0.43831(2) 0.621349(9) 0.51729(2)
O1B O 0.4559(3) 0.4706(2) 0.6170(3)
O4B O 0.3990(3) 0.3074(2) 0.5945(3)
O5B O 0.8108(3) 0.5733(2) -0.1054(3)
O7B O 0.5724(3) 0.6212(2) -0.0326(2)
O10B O 1.0521(3) 0.6045(2) 0.1179(3)
O13B O 0.9438(3) 0.5788(2) 0.3255(2)
Zr1B Zr 0.19732(4) 0.40517(2) -0.10752(3)
Zr1B_2 Zr 1.19732(4) 0.40517(2) 0.89248(3)
O16 O 0.9649(3) 0.2587(2) 0.1204(3)
H7 H 0.983(4) 0.292(2) 0.200(3)
H8 H 0.863(2) 0.271(3) 0.066(3)
O17 O 0.0228(4) 0.6143(2) 0.6843(3)
H9 H 0.078(4) 0.603(3) 0.617(3)
H10 H -0.082(2) 0.598(3) 0.640(4)
loop_
_geom_bond_atom_site_label_1
_geom_bond_atom_site_label_2
_geom_bond_site_symmetry_1
_geom_bond_site_symmetry_2
Hg1 O1 1_555 1_555
O1 C1 1_555 1_555
O2 C1 1_555 1_555
O3 C2 1_555 1_555
O4 C2 1_555 1_555
O5 C3 1_555 1_555
O6 Hg1 1_555 1_555
O7 C4 1_555 1_555
O8 Hg1 1_555 1_555
C1 C2 1_555 1_555
C3 O6 1_555 1_555
C4 O8 1_555 1_555
O9 Hg1 1_555 1_555
H1 O9 1_555 1_555
H2 O9 1_555 1_555
O10 C5 1_555 1_555
O11 Hg1 1_555 1_555
O12 Hg1 1_555 1_555
O13 C6 1_555 1_555
C5 O11 1_555 1_555
C6 O12 1_555 1_555
Zr1 O2 1_555 1_555
O14 Zr1 1_555 1_555
H3 O14 1_555 1_555
H4 O14 1_555 1_555
O15 Zr1 1_555 1_555
H5 O15 1_555 1_555
H6 O15 1_555 1_555
O16 H7 1_555 1_555
H8 O16 1_555 1_555
O17 H9 1_555 1_555
H10 O17 1_555 1_555
Hg1B O1 1_555 1_555
O1B Hg1 1_555 1_555
O4B Hg1 1_555 1_555
O5B Zr1 1_555 1_555
O7B Zr1 1_555 1_555
O10B Zr1 1_555 1_555
O13B Zr1 1_555 1_555
Zr1B O5 1_555 1_555
Zr1B_2 O10 1_555 1_555
O3 Zr1 1_555 1_555
O4 Hg1B 1_555 1_555
O7 Zr1B 1_555 1_555
C3 C4 1_555 1_555
O13 Zr1B_2 1_555 1_555
C5 C6 1_555 1_555
Hg1B O1B 1_555 1_555

#END
