
#######################################################################
#
#                 Cambridge Crystallographic Data Centre
#                                CCDC 
#
#######################################################################
#
# If this CIF has been generated from an entry in the Cambridge 
# Structural Database, then it will include bibliographic, chemical, 
# crystal, experimental, refinement or atomic coordinate data resulting 
# from the CCDC's data processing and validation procedures.
#
#######################################################################

data_BEVREB
_symmetry_cell_setting           monoclinic
_symmetry_space_group_name_H-M   'P 21/c'
_symmetry_Int_Tables_number      14
_space_group_name_Hall           '-P 2ybc'
loop_
_symmetry_equiv_pos_site_id
_symmetry_equiv_pos_as_xyz
1 x,y,z
2 -x,1/2+y,1/2-z
3 -x,-y,-z
4 x,1/2-y,1/2+z
_cell_length_a                   9.789(1)
_cell_length_b                   14.892(1)
_cell_length_c                   9.433(1)
_cell_angle_alpha                90
_cell_angle_beta                 106.865(7)
_cell_angle_gamma                90
_cell_volume                     1315.98
loop_
_atom_site_label
_atom_site_type_symbol
_atom_site_fract_x
_atom_site_fract_y
_atom_site_fract_z
Zr1 Zr 0.1304(6) 0.3930(4) 0.8279(6)
O1 O -0.0910(7) 0.384(3) 0.8522(8)
O2 O -0.3154(6) 0.374(3) 0.7053(9)
O3 O -0.0046(6) 0.369(2) 0.5998(8)
O4 O -0.2282(7) 0.362(2) 0.4521(9)
O5 O 0.1271(7) 0.394(2) 1.0663(8)
O6 O 0.2932(9) 0.382(2) 1.2829(6)
O7 O 0.531(1) 0.358(2) 1.189(1)
O8 O 0.3700(8) 0.396(2) 0.9731(7)
C1 C -0.1819(7) 0.385(3) 0.7261(7)
C2 C -0.1383(7) 0.368(2) 0.5793(8)
C3 C 0.2637(7) 0.405(2) 1.1429(8)
C4 C 0.4116(8) 0.390(2) 1.1123(9)
O9 O 0.092(4) 0.243(1) 0.835(5)
Cd1 Cd 0.4748(5) 0.6304(3) 0.5496(5)
O10 O 0.427(3) 0.4792(5) 0.587(3)
O11 O 0.265(2) 0.4757(5) 0.714(3)
O12 O 0.199(3) 0.2972(6) 0.682(3)
O13 O 0.383(3) 0.2983(5) 0.581(4)
C5 C 0.336(1) 0.4356(5) 0.637(2)
C6 C 0.290(2) 0.3363(6) 0.638(3)
O14 O 0.415(4) 0.792(1) 0.555(4)
O15 O 0.098(4) 0.542(1) 0.851(4)
O2B O 0.3154(6) 0.626(3) 0.2947(9)
O4B O 0.2282(7) 0.638(2) 0.5479(9)
O6B O 0.7068(9) 0.618(2) 0.7171(6)
O7B O 0.469(1) 0.642(2) 0.811(1)
Cd1B Cd -0.4748(5) 0.3696(3) 0.4504(5)
Cd1B_2 Cd 0.5252(5) 0.3696(3) 0.4504(5)
Cd1B_3 Cd 0.5252(5) 0.3696(3) 1.4504(5)
O10B O 0.573(3) 0.5208(5) 0.413(3)
O13B O 0.617(3) 0.7017(5) 0.419(4)
O16 O 0.802(4) 0.339(2) 0.181(4)
loop_
_geom_bond_atom_site_label_1
_geom_bond_atom_site_label_2
_geom_bond_site_symmetry_1
_geom_bond_site_symmetry_2
Zr1 O1 1_555 1_555
O1 C1 1_555 1_555
O2 C1 1_555 1_555
O3 Zr1 1_555 1_555
O4 C2 1_555 1_555
O5 Zr1 1_555 1_555
O6 C3 1_555 1_555
O7 C4 1_555 1_555
O8 Zr1 1_555 1_555
C1 C2 1_555 1_555
C2 O3 1_555 1_555
C3 O5 1_555 1_555
C4 O8 1_555 1_555
O9 Zr1 1_555 1_555
Cd1 O10 1_555 1_555
O10 C5 1_555 1_555
O11 Zr1 1_555 1_555
O12 Zr1 1_555 1_555
O13 C6 1_555 1_555
C5 O11 1_555 1_555
C6 O12 1_555 1_555
O14 Cd1 1_555 1_555
O15 Zr1 1_555 1_555
O2B Cd1 1_555 1_555
O4B Cd1 1_555 1_555
O6B Cd1 1_555 1_555
O7B Cd1 1_555 1_555
Cd1B O2 1_555 1_555
Cd1B_2 O10 1_555 1_555
Cd1B_3 O6 1_555 1_555
O10B Cd1 1_555 1_555
O13B Cd1 1_555 1_555
O4 Cd1B 1_555 1_555
O7 Cd1B_3 1_555 1_555
C3 C4 1_555 1_555
O13 Cd1B_2 1_555 1_555
C5 C6 1_555 1_555
Cd1B_2 O10B 1_555 1_555

#END
