
#######################################################################
#
#                 Cambridge Crystallographic Data Centre
#                                CCDC 
#
#######################################################################
#
# If this CIF has been generated from an entry in the Cambridge 
# Structural Database, then it will include bibliographic, chemical, 
# crystal, experimental, refinement or atomic coordinate data resulting 
# from the CCDC's data processing and validation procedures.
#
#######################################################################

data_BEVSAY
_symmetry_cell_setting           monoclinic
_symmetry_space_group_name_H-M   'P 21/c'
_symmetry_Int_Tables_number      14
_space_group_name_Hall           '-P 2ybc'
loop_
_symmetry_equiv_pos_site_id
_symmetry_equiv_pos_as_xyz
1 x,y,z
2 -x,1/2+y,1/2-z
3 -x,-y,-z
4 x,1/2-y,1/2+z
_cell_length_a                   8.8931(1)
_cell_length_b                   16.6297(3)
_cell_length_c                   9.9858(2)
_cell_angle_alpha                90
_cell_angle_beta                 105.824(1)
_cell_angle_gamma                90
_cell_volume                     1420.83
loop_
_atom_site_label
_atom_site_type_symbol
_atom_site_fract_x
_atom_site_fract_y
_atom_site_fract_z
Cd1 Cd 0.55749(2) 0.38216(1) 0.47687(2)
O1 O 0.5499(2) 0.5267(1) 0.3912(2)
O2 O 0.6554(2) 0.52765(9) 0.2122(2)
O3 O 0.7085(2) 0.68057(9) 0.2358(2)
O4 O 0.6041(2) 0.6899(1) 0.4146(2)
O5 O 0.1843(2) 0.4243(1) 0.1013(2)
O6 O 0.3009(2) 0.4028(1) 0.3258(2)
O7 O 0.4258(2) 0.3781(1) 0.0271(2)
O8 O 0.5638(2) 0.3563(1) 0.2469(2)
C1 C 0.6112(2) 0.5606(1) 0.3090(2)
C2 C 0.6418(2) 0.6517(1) 0.3225(2)
C3 C 0.2998(2) 0.4041(1) 0.2024(2)
C4 C 0.4456(2) 0.3775(1) 0.1587(2)
O9 O 0.6388(2) 0.2410(1) 0.4680(2)
H1 H 0.578(3) 0.202(1) 0.497(3)
H2 H 0.645(3) 0.227(2) 0.378(2)
O10 O 0.9432(2) 0.3956(1) 0.8774(2)
O11 O 0.7056(2) 0.3671(1) 0.7375(2)
O12 O 0.8182(2) 0.4115(1) 0.5165(2)
O13 O 1.0525(2) 0.4223(1) 0.6698(2)
C5 C 0.8412(2) 0.3886(1) 0.7582(2)
C6 C 0.9072(2) 0.4089(1) 0.6358(2)
Zr1 Zr 0.80598(2) 0.59520(1) 0.11258(2)
O14 O 0.8529(2) 0.7178(1) 0.0506(2)
H3 H 0.768(2) 0.754(1) 0.018(3)
H4 H 0.926(2) 0.729(2) -0.001(3)
O15 O 0.8462(2) 0.4679(1) 0.0908(2)
H5 H 0.888(3) 0.448(2) 0.020(2)
H6 H 0.881(3) 0.432(1) 0.168(2)
Cd1B Cd 0.44251(2) 0.61784(1) 0.52313(2)
O1B O 0.4501(2) 0.4733(1) 0.6088(2)
O4B O 0.3959(2) 0.3101(1) 0.5854(2)
O5B O 0.8157(2) 0.5757(1) -0.1013(2)
O7B O 0.5742(2) 0.6219(1) -0.0271(2)
O10B O 1.0568(2) 0.6044(1) 0.1226(2)
O13B O 0.9475(2) 0.5777(1) 0.3302(2)
Zr1B Zr 0.19402(2) 0.40480(1) -0.11258(2)
Zr1B_2 Zr 1.19402(2) 0.40480(1) 0.88742(2)
O16 O 0.9597(2) 0.2584(1) 0.1145(2)
H7 H 0.980(3) 0.293(2) 0.194(2)
H8 H 0.855(2) 0.270(2) 0.064(3)
O17 O 0.0247(2) 0.6159(1) 0.6858(2)
H9 H 0.079(3) 0.601(2) 0.620(3)
H10 H -0.083(1) 0.604(2) 0.645(3)
loop_
_geom_bond_atom_site_label_1
_geom_bond_atom_site_label_2
_geom_bond_site_symmetry_1
_geom_bond_site_symmetry_2
Cd1 O1 1_555 1_555
O1 C1 1_555 1_555
O2 C1 1_555 1_555
O3 C2 1_555 1_555
O4 C2 1_555 1_555
O5 C3 1_555 1_555
O6 Cd1 1_555 1_555
O7 C4 1_555 1_555
O8 Cd1 1_555 1_555
C1 C2 1_555 1_555
C3 O6 1_555 1_555
C4 O8 1_555 1_555
O9 Cd1 1_555 1_555
H1 O9 1_555 1_555
H2 O9 1_555 1_555
O10 C5 1_555 1_555
O11 Cd1 1_555 1_555
O12 Cd1 1_555 1_555
O13 C6 1_555 1_555
C5 O11 1_555 1_555
C6 O12 1_555 1_555
Zr1 O2 1_555 1_555
O14 Zr1 1_555 1_555
H3 O14 1_555 1_555
H4 O14 1_555 1_555
O15 Zr1 1_555 1_555
H5 O15 1_555 1_555
H6 O15 1_555 1_555
O16 H7 1_555 1_555
H8 O16 1_555 1_555
O17 H9 1_555 1_555
H10 O17 1_555 1_555
Cd1B O1 1_555 1_555
O1B Cd1 1_555 1_555
O4B Cd1 1_555 1_555
O5B Zr1 1_555 1_555
O7B Zr1 1_555 1_555
O10B Zr1 1_555 1_555
O13B Zr1 1_555 1_555
Zr1B O5 1_555 1_555
Zr1B_2 O10 1_555 1_555
O3 Zr1 1_555 1_555
O4 Cd1B 1_555 1_555
O7 Zr1B 1_555 1_555
C3 C4 1_555 1_555
O13 Zr1B_2 1_555 1_555
C5 C6 1_555 1_555
Cd1B O1B 1_555 1_555

#END
