
#######################################################################
#
#                 Cambridge Crystallographic Data Centre
#                                CCDC 
#
#######################################################################
#
# If this CIF has been generated from an entry in the Cambridge 
# Structural Database, then it will include bibliographic, chemical, 
# crystal, experimental, refinement or atomic coordinate data resulting 
# from the CCDC's data processing and validation procedures.
#
#######################################################################

data_BEVWOP
_symmetry_cell_setting           monoclinic
_symmetry_space_group_name_H-M   'C 2/c'
_symmetry_Int_Tables_number      15
_space_group_name_Hall           '-C 2yn'
loop_
_symmetry_equiv_pos_site_id
_symmetry_equiv_pos_as_xyz
1 x,y,z
2 x,-y,1/2+z
3 1/2+x,1/2+y,z
4 1/2+x,1/2-y,1/2+z
5 -x,-y,-z
6 -x,y,1/2-z
7 1/2-x,1/2-y,-z
8 1/2-x,1/2+y,1/2-z
_cell_length_a                   30.02453(12)
_cell_length_b                   7.93898(4)
_cell_length_c                   20.55611(8)
_cell_angle_alpha                90
_cell_angle_beta                 123.01110(20)
_cell_angle_gamma                90
_cell_volume                     4108.83
loop_
_atom_site_label
_atom_site_type_symbol
_atom_site_fract_x
_atom_site_fract_y
_atom_site_fract_z
Ca1 Ca 0.25672(10) 0.12095(34) 0.75437(14)
C1 C 0.3413(4) -0.1677(12) 0.9989(4)
C2 C 0.3827(4) -0.0591(10) 1.0493(5)
C3 C 0.41575(30) -0.1010(11) 1.1281(5)
C4 C 0.40302(33) -0.2431(12) 1.1545(4)
C5 C 0.3602(4) -0.3455(10) 1.1058(5)
C6 C 0.32788(31) -0.3084(11) 1.0264(5)
C7 C 0.3084(4) -0.1328(16) 0.9118(5)
O1 O 0.29890(24) 0.0193(8) 0.8840(4)
O2 O 0.28684(27) -0.2537(8) 0.8651(4)
O3 O 0.39557(23) 0.0869(8) 1.0209(4)
C8 C 0.3731(4) 0.2455(14) 1.0143(7)
O4 O 0.34645(26) 0.2388(8) 1.0457(4)
C9 C 0.37849(33) 0.3650(13) 0.9708(5)
C10 C 0.09243(28) -0.0718(11) 0.6903(5)
C11 C 0.0465(4) -0.1584(10) 0.6367(5)
C12 C -0.00247(28) -0.1014(11) 0.6190(4)
C13 C -0.00356(27) 0.0440(11) 0.6564(5)
C14 C 0.04239(34) 0.1330(10) 0.7068(5)
C15 C 0.09175(27) 0.0752(11) 0.7256(5)
C16 C 0.1453(4) -0.1382(15) 0.7101(6)
O5 O 0.18134(26) -0.0363(8) 0.7255(4)
O6 O 0.15766(25) -0.2974(7) 0.7152(4)
O7 O 0.04938(26) -0.3109(8) 0.5982(4)
C17 C 0.0548(5) -0.4704(15) 0.6287(7)
O8 O 0.04918(27) -0.4740(8) 0.6826(4)
C18 C 0.06447(35) -0.6006(12) 0.5887(5)
C19 C 0.2087(4) 0.3525(14) 0.8472(6)
O9 O 0.22903(24) 0.3648(8) 0.80307(34)
N1 N 0.22615(29) 0.2246(9) 0.8956(4)
N2 N 0.17053(30) 0.4678(10) 0.8290(4)
O2G O 0.21316(27) 0.2463(8) 0.6349(4)
O6G O 0.34234(25) 0.2026(7) 0.7848(4)
O9G O 0.27097(24) -0.1352(8) 0.69693(34)
Ca1G Ca 0.24328(10) -0.37905(34) 0.74563(14)
Ca1G_2 Ca 0.24328(10) 0.62095(34) 0.74563(14)
loop_
_geom_bond_atom_site_label_1
_geom_bond_atom_site_label_2
_geom_bond_site_symmetry_1
_geom_bond_site_symmetry_2
Ca1 O1 1_555 1_555
C1 C2 1_555 1_555
C2 C3 1_555 1_555
C3 C4 1_555 1_555
C4 C5 1_555 1_555
C5 C6 1_555 1_555
C6 C1 1_555 1_555
C7 C1 1_555 1_555
O1 C7 1_555 1_555
O2 C7 1_555 1_555
O3 C2 1_555 1_555
C8 O3 1_555 1_555
O4 C8 1_555 1_555
C9 C8 1_555 1_555
C10 C11 1_555 1_555
C11 C12 1_555 1_555
C12 C13 1_555 1_555
C13 C14 1_555 1_555
C14 C15 1_555 1_555
C15 C10 1_555 1_555
C16 C10 1_555 1_555
O5 Ca1 1_555 1_555
O6 C16 1_555 1_555
O7 C11 1_555 1_555
C17 O7 1_555 1_555
O8 C17 1_555 1_555
C18 C17 1_555 1_555
C19 O9 1_555 1_555
O9 Ca1 1_555 1_555
N1 C19 1_555 1_555
N2 C19 1_555 1_555
O2G Ca1 1_555 1_555
O6G Ca1 1_555 1_555
O9G Ca1 1_555 1_555
Ca1G O2 1_555 1_555
Ca1G_2 O9 1_555 1_555
C16 O5 1_555 1_555
O6 Ca1G 1_555 1_555
O9G Ca1G 1_555 1_555

#END
