
#######################################################################
#
#                 Cambridge Crystallographic Data Centre
#                                CCDC 
#
#######################################################################
#
# If this CIF has been generated from an entry in the Cambridge 
# Structural Database, then it will include bibliographic, chemical, 
# crystal, experimental, refinement or atomic coordinate data resulting 
# from the CCDC's data processing and validation procedures.
#
#######################################################################

data_BEVWIJ
_symmetry_cell_setting           monoclinic
_symmetry_space_group_name_H-M   'C 2/c'
_symmetry_Int_Tables_number      15
_space_group_name_Hall           '-C 2yn'
loop_
_symmetry_equiv_pos_site_id
_symmetry_equiv_pos_as_xyz
1 x,y,z
2 1/2+x,1/2+y,z
3 -x,y,1/2-z
4 1/2-x,1/2+y,1/2-z
5 -x,-y,-z
6 1/2-x,1/2-y,-z
7 x,-y,1/2+z
8 1/2+x,1/2-y,1/2+z
_cell_length_a                   13.231(3)
_cell_length_b                   21.396(4)
_cell_length_c                   7.5886(15)
_cell_angle_alpha                90
_cell_angle_beta                 98.66(3)
_cell_angle_gamma                90
_cell_volume                     2123.77
loop_
_atom_site_label
_atom_site_type_symbol
_atom_site_fract_x
_atom_site_fract_y
_atom_site_fract_z
Ca1 Ca 0.5000 0.026012(9) 0.2500
C1 C 0.63649(5) 0.15143(4) 0.66085(9)
C2 C 0.71454(6) 0.18349(4) 0.76867(10)
C3 C 0.72658(7) 0.24773(4) 0.75438(11)
H1 H 0.7797 0.2682 0.8259
C4 C 0.65918(8) 0.28070(4) 0.63330(13)
H2 H 0.6662 0.3238 0.6247
C5 C 0.58190(8) 0.25091(4) 0.52536(13)
H3 H 0.5368 0.2737 0.4438
C6 C 0.57099(6) 0.18650(4) 0.53794(10)
H4 H 0.5189 0.1664 0.4628
C7 C 0.61627(5) 0.08319(3) 0.67742(9)
O1 O 0.56812(4) 0.05456(2) 0.54555(6)
O2 O 0.64122(4) 0.05571(3) 0.82430(6)
O3 O 0.78261(4) 0.15377(3) 0.90308(7)
C8 C 0.85469(7) 0.11543(5) 0.85681(12)
O4 O 0.86116(5) 0.10437(4) 0.70504(9)
C9 C 0.92351(8) 0.09112(6) 1.01535(15)
H5 H 0.9022 0.1072 1.1219
H6 H 0.9924 0.1041 1.0100
H7 H 0.9203 0.0463 1.0164
O5 O 0.62905(4) 0.09440(3) 0.17112(7)
H8 H 0.6333(7) 0.0913(5) 0.0500(11)
H9 H 0.6844(6) 0.0866(5) 0.2389(12)
C1F C 0.63649(5) -0.15143(4) 0.16085(9)
C2F C 0.71454(6) -0.18349(4) 0.26867(10)
C3F C 0.72658(7) -0.24773(4) 0.25438(11)
H1F H 0.7797 -0.2682 0.3259
C4F C 0.65918(8) -0.28070(4) 0.13330(13)
H2F H 0.6662 -0.3238 0.1247
C5F C 0.58190(8) -0.25091(4) 0.02536(13)
H3F H 0.5368 -0.2737 -0.0562
C6F C 0.57099(6) -0.18650(4) 0.03794(10)
H4F H 0.5189 -0.1664 -0.0372
C7F C 0.61627(5) -0.08319(3) 0.17742(9)
O1F O 0.56812(4) -0.05456(2) 0.04555(6)
O2F O 0.64122(4) -0.05571(3) 0.32430(6)
O3F O 0.78261(4) -0.15377(3) 0.40308(7)
C8F C 0.85469(7) -0.11543(5) 0.35681(12)
O4F O 0.86116(5) -0.10437(4) 0.20504(9)
C9F C 0.92351(8) -0.09112(6) 0.51535(15)
H5F H 0.9022 -0.1072 0.6219
H6F H 0.9924 -0.1041 0.5100
H7F H 0.9203 -0.0463 0.5164
O5B O 0.37095(4) 0.09440(3) 0.32888(7)
H8B H 0.3667(7) 0.0913(5) 0.4500(11)
H9B H 0.3156(6) 0.0866(5) 0.2611(12)
O1D O 0.43188(4) -0.05456(2) 0.45445(6)
O1B O 0.43188(4) 0.05456(2) -0.04555(6)
O2D O 0.35878(4) -0.05571(3) 0.17570(6)
Ca1F Ca 0.5000 -0.026012(9) 0.7500
Ca1F_2 Ca 0.5000 -0.026012(9) -0.2500
O6 O 0.79806(6) 0.04476(4) 0.37888(11)
H10 H 0.7489(9) 0.0010(5) 0.3856(19)
H11 H 0.8354(10) 0.0652(6) 0.5070(14)
loop_
_geom_bond_atom_site_label_1
_geom_bond_atom_site_label_2
_geom_bond_site_symmetry_1
_geom_bond_site_symmetry_2
Ca1 O1 1_555 1_555
C1 C2 1_555 1_555
C2 C3 1_555 1_555
C3 H1 1_555 1_555
C4 C3 1_555 1_555
H2 C4 1_555 1_555
C5 C4 1_555 1_555
H3 C5 1_555 1_555
C6 C1 1_555 1_555
H4 C6 1_555 1_555
C7 C1 1_555 1_555
O1 C7 1_555 1_555
O2 C7 1_555 1_555
O3 C2 1_555 1_555
C8 O3 1_555 1_555
O4 C8 1_555 1_555
C9 C8 1_555 1_555
H5 C9 1_555 1_555
H6 C9 1_555 1_555
H7 C9 1_555 1_555
O5 Ca1 1_555 1_555
H8 O5 1_555 1_555
H9 O5 1_555 1_555
O6 H10 1_555 1_555
H11 O6 1_555 1_555
C1F C2F 1_555 1_555
C2F C3F 1_555 1_555
C3F H1F 1_555 1_555
C4F C3F 1_555 1_555
H2F C4F 1_555 1_555
C5F C4F 1_555 1_555
H3F C5F 1_555 1_555
C6F C1F 1_555 1_555
H4F C6F 1_555 1_555
C7F C1F 1_555 1_555
O1F Ca1 1_555 1_555
O2F Ca1 1_555 1_555
O3F C2F 1_555 1_555
C8F O3F 1_555 1_555
O4F C8F 1_555 1_555
C9F C8F 1_555 1_555
H5F C9F 1_555 1_555
H6F C9F 1_555 1_555
H7F C9F 1_555 1_555
O5B Ca1 1_555 1_555
H8B O5B 1_555 1_555
H9B O5B 1_555 1_555
O1D Ca1 1_555 1_555
O1B Ca1 1_555 1_555
O2D Ca1 1_555 1_555
Ca1F O1 1_555 1_555
Ca1F_2 O1F 1_555 1_555
C5 C6 1_555 1_555
O2 Ca1F 1_555 1_555
C5F C6F 1_555 1_555
C7F O1F 1_555 1_555
C7F O2F 1_555 1_555
O1D Ca1F 1_555 1_555
O1B Ca1F_2 1_555 1_555

#END
