
#######################################################################
#
#                 Cambridge Crystallographic Data Centre
#                                CCDC 
#
#######################################################################
#
# If this CIF has been generated from an entry in the Cambridge 
# Structural Database, then it will include bibliographic, chemical, 
# crystal, experimental, refinement or atomic coordinate data resulting 
# from the CCDC's data processing and validation procedures.
#
#######################################################################

data_BEVYUX
_symmetry_cell_setting           rhombohedral
_symmetry_space_group_name_H-M   'R -3'
_symmetry_Int_Tables_number      148
_space_group_name_Hall           '-R 3'
loop_
_symmetry_equiv_pos_site_id
_symmetry_equiv_pos_as_xyz
1 x,y,z
2 -y,x-y,z
3 -x+y,-x,z
4 2/3+x,1/3+y,1/3+z
5 2/3-y,1/3+x-y,1/3+z
6 2/3-x+y,1/3-x,1/3+z
7 1/3+x,2/3+y,2/3+z
8 2/3+y,1/3-x+y,1/3-z
9 2/3+x-y,1/3+x,1/3-z
10 -x,-y,-z
11 y,-x+y,-z
12 x-y,x,-z
13 1/3-x,2/3-y,2/3-z
14 1/3+y,2/3-x+y,2/3-z
15 1/3+x-y,2/3+x,2/3-z
16 2/3-x,1/3-y,1/3-z
17 1/3-y,2/3+x-y,2/3+z
18 1/3-x+y,2/3-x,2/3+z
_cell_length_a                   26.0190(10)
_cell_length_b                   26.0190(10)
_cell_length_c                   11.3009(4)
_cell_angle_alpha                90
_cell_angle_beta                 90
_cell_angle_gamma                120.00
_cell_volume                     6625.59
loop_
_atom_site_label
_atom_site_type_symbol
_atom_site_fract_x
_atom_site_fract_y
_atom_site_fract_z
Ni1 Ni 0.5000 0.0000 0.0000
N1 N 0.50139(12) -0.07830(14) 0.0140(2)
H1 H 0.4671 -0.1070 -0.0192
N2 N 0.47247(12) -0.01392(13) 0.1749(2)
H2 H 0.5050 0.0086 0.2203
C1 C 0.4971(2) -0.0916(2) 0.1415(3)
H3 H 0.5358 -0.0685 0.1781
H4 H 0.4838 -0.1333 0.1531
C2 C 0.45404(19) -0.07673(19) 0.1981(3)
H5 H 0.4146 -0.1022 0.1664
H6 H 0.4528 -0.0835 0.2828
C3 C 0.42792(16) 0.0021(2) 0.2062(3)
H7 H 0.4195 -0.0045 0.2902
H8 H 0.3915 -0.0235 0.1637
C4 C 0.44736(18) 0.0657(2) 0.1780(3)
H9 H 0.4865 0.0906 0.2114
H10 H 0.4206 0.0760 0.2172
C5 C 0.55038(17) -0.0807(2) -0.0479(3)
H11 H 0.5878 -0.0528 -0.0110
H12 H 0.5451 -0.1201 -0.0398
O1 O 0.40997(9) -0.04456(11) -0.05413(19)
O2 O 0.40531(12) -0.11865(18) -0.1601(3)
C6 C 0.38266(13) -0.09125(17) -0.1147(3)
C7 C 0.31748(12) -0.11532(15) -0.1329(2)
C8 C 0.28316(14) -0.16765(17) -0.1938(3)
H13 H 0.3003 -0.1886 -0.2252
C9 C 0.22302(13) -0.18861(15) -0.2077(3)
H14 H 0.1994 -0.2237 -0.2486
C10 C 0.19882(13) -0.15712(13) -0.1608(2)
N3 N 0.23124(11) -0.10575(12) -0.1008(2)
C11 C 0.28944(13) -0.08673(15) -0.0887(3)
H15 H 0.3124 -0.0516 -0.0472
C5I C 0.44962(17) 0.0807(2) 0.0479(3)
N1I N 0.49861(12) 0.07830(14) -0.0140(2)
H1I H 0.5329 0.1070 0.0192
C1I C 0.5029(2) 0.0916(2) -0.1415(3)
H3I H 0.4642 0.0685 -0.1781
H4I H 0.5162 0.1333 -0.1531
C2I C 0.54596(19) 0.07673(19) -0.1981(3)
N2I N 0.52753(12) 0.01392(13) -0.1749(2)
H2I H 0.4950 -0.0086 -0.2203
C3I C 0.57208(16) -0.0021(2) -0.2062(3)
H7I H 0.5805 0.0045 -0.2902
H8I H 0.6085 0.0235 -0.1637
C4I C 0.55264(18) -0.0657(2) -0.1780(3)
H9I H 0.5135 -0.0906 -0.2114
H10I H 0.5794 -0.0760 -0.2172
H5I H 0.5854 0.1022 -0.1664
H6I H 0.5472 0.0835 -0.2828
H11I H 0.4122 0.0528 0.0110
H12I H 0.4549 0.1201 0.0398
C10L C 0.13451(13) -0.17621(13) -0.1725(2)
C9L C 0.11031(13) -0.14472(15) -0.1256(3)
C8L C 0.05017(14) -0.16568(17) -0.1395(3)
C7L C 0.01585(12) -0.21801(15) -0.2004(2)
C6L C -0.04933(13) -0.24208(17) -0.2186(3)
O1L O -0.07664(9) -0.28877(11) -0.27920(19)
O2L O -0.07198(12) -0.21468(18) -0.1732(3)
C11L C 0.04389(13) -0.24660(15) -0.2446(3)
N3L N 0.10209(11) -0.22758(12) -0.2325(2)
H15L H 0.0209 -0.2817 -0.2861
H13L H 0.0330 -0.1447 -0.1081
H14L H 0.1339 -0.1096 -0.0847
O1I O 0.59003(9) 0.04456(11) 0.05413(19)
Ni1F Ni -0.1667 -0.3333 -0.3333
loop_
_geom_bond_atom_site_label_1
_geom_bond_atom_site_label_2
_geom_bond_site_symmetry_1
_geom_bond_site_symmetry_2
Ni1 N1 1_555 1_555
N1 H1 1_555 1_555
N2 Ni1 1_555 1_555
H2 N2 1_555 1_555
C1 N1 1_555 1_555
H3 C1 1_555 1_555
H4 C1 1_555 1_555
C2 N2 1_555 1_555
H5 C2 1_555 1_555
H6 C2 1_555 1_555
C3 N2 1_555 1_555
H7 C3 1_555 1_555
H8 C3 1_555 1_555
C4 C3 1_555 1_555
H9 C4 1_555 1_555
H10 C4 1_555 1_555
C5 N1 1_555 1_555
H11 C5 1_555 1_555
H12 C5 1_555 1_555
O1 Ni1 1_555 1_555
O2 C6 1_555 1_555
C6 O1 1_555 1_555
C7 C6 1_555 1_555
C8 C7 1_555 1_555
H13 C8 1_555 1_555
C9 C8 1_555 1_555
H14 C9 1_555 1_555
C10 C9 1_555 1_555
N3 C10 1_555 1_555
C11 C7 1_555 1_555
H15 C11 1_555 1_555
C5I C4 1_555 1_555
N1I Ni1 1_555 1_555
H1I N1I 1_555 1_555
C1I N1I 1_555 1_555
H3I C1I 1_555 1_555
H4I C1I 1_555 1_555
C2I C1I 1_555 1_555
N2I Ni1 1_555 1_555
H2I N2I 1_555 1_555
C3I N2I 1_555 1_555
H7I C3I 1_555 1_555
H8I C3I 1_555 1_555
C4I C5 1_555 1_555
H9I C4I 1_555 1_555
H10I C4I 1_555 1_555
H5I C2I 1_555 1_555
H6I C2I 1_555 1_555
H11I C5I 1_555 1_555
H12I C5I 1_555 1_555
C10L C10 1_555 1_555
C9L C10L 1_555 1_555
C8L C9L 1_555 1_555
C7L C8L 1_555 1_555
C6L C7L 1_555 1_555
O1L C6L 1_555 1_555
O2L C6L 1_555 1_555
C11L C7L 1_555 1_555
N3L C10L 1_555 1_555
H15L C11L 1_555 1_555
H13L C8L 1_555 1_555
H14L C9L 1_555 1_555
O1I Ni1 1_555 1_555
Ni1F O1L 1_555 1_555
C1 C2 1_555 1_555
N3 C11 1_555 1_555
C5I N1I 1_555 1_555
C2I N2I 1_555 1_555
C3I C4I 1_555 1_555
C11L N3L 1_555 1_555

#END
