
#######################################################################
#
#                 Cambridge Crystallographic Data Centre
#                                CCDC 
#
#######################################################################
#
# If this CIF has been generated from an entry in the Cambridge 
# Structural Database, then it will include bibliographic, chemical, 
# crystal, experimental, refinement or atomic coordinate data resulting 
# from the CCDC's data processing and validation procedures.
#
#######################################################################

data_BEVZAE
_symmetry_cell_setting           rhombohedral
_symmetry_space_group_name_H-M   'R -3'
_symmetry_Int_Tables_number      148
_space_group_name_Hall           '-R 3'
loop_
_symmetry_equiv_pos_site_id
_symmetry_equiv_pos_as_xyz
1 x,y,z
2 -y,x-y,z
3 -x+y,-x,z
4 2/3+x,1/3+y,1/3+z
5 2/3-y,1/3+x-y,1/3+z
6 2/3-x+y,1/3-x,1/3+z
7 1/3+x,2/3+y,2/3+z
8 2/3+y,1/3-x+y,1/3-z
9 2/3+x-y,1/3+x,1/3-z
10 -x,-y,-z
11 y,-x+y,-z
12 x-y,x,-z
13 1/3-x,2/3-y,2/3-z
14 1/3+y,2/3-x+y,2/3-z
15 1/3+x-y,2/3+x,2/3-z
16 2/3-x,1/3-y,1/3-z
17 1/3-y,2/3+x-y,2/3+z
18 1/3-x+y,2/3-x,2/3+z
_cell_length_a                   26.136(2)
_cell_length_b                   26.136(2)
_cell_length_c                   11.3231(4)
_cell_angle_alpha                90
_cell_angle_beta                 90
_cell_angle_gamma                120.00
_cell_volume                     6698.45
loop_
_atom_site_label
_atom_site_type_symbol
_atom_site_fract_x
_atom_site_fract_y
_atom_site_fract_z
Ni1 Ni 0.5000 0.0000 0.0000
N1 N 0.50089(16) -0.07809(17) 0.0190(3)
H1 H 0.4664 -0.1071 -0.0124
N2 N 0.47159(16) -0.01240(18) 0.1736(3)
H2 H 0.5038 0.0107 0.2188
C1 C 0.4980(3) -0.0890(3) 0.1444(5)
H3 H 0.5367 -0.0648 0.1795
H4 H 0.4858 -0.1302 0.1586
C2 C 0.4540(2) -0.0745(2) 0.2003(4)
H5 H 0.4147 -0.1007 0.1695
H6 H 0.4531 -0.0801 0.2852
C3 C 0.4273(2) 0.0031(3) 0.2032(5)
H7 H 0.4190 -0.0026 0.2871
H8 H 0.3910 -0.0228 0.1612
C4 C 0.4473(2) 0.0670(3) 0.1711(5)
H9 H 0.4207 0.0778 0.2088
H10 H 0.4863 0.0918 0.2048
C5 C 0.5497(2) -0.0813(3) -0.0433(5)
H11 H 0.5439 -0.1207 -0.0345
H12 H 0.5871 -0.0538 -0.0064
O1 O 0.40980(10) -0.04521(13) -0.0576(2)
O2 O 0.40501(15) -0.1175(2) -0.1657(4)
C6 C 0.38232(16) -0.0909(2) -0.1179(4)
C7 C 0.31700(14) -0.11491(17) -0.1353(3)
C8 C 0.28201(17) -0.1681(2) -0.1923(4)
H13 H 0.2986 -0.1898 -0.2217
C9 C 0.22218(16) -0.18886(19) -0.2052(3)
H14 H 0.1982 -0.2245 -0.2435
C10 C 0.19887(15) -0.15640(16) -0.1611(3)
N3 N 0.23161(13) -0.10472(15) -0.1042(3)
C11 C 0.28940(16) -0.08562(18) -0.0926(4)
H15 H 0.3124 -0.0502 -0.0529
C5I C 0.4503(2) 0.0813(3) 0.0433(5)
N1I N 0.49911(16) 0.07809(17) -0.0190(3)
H1I H 0.5336 0.1071 0.0124
C1I C 0.5020(3) 0.0890(3) -0.1444(5)
H3I H 0.4633 0.0648 -0.1795
H4I H 0.5142 0.1302 -0.1586
C2I C 0.5460(2) 0.0745(2) -0.2003(4)
N2I N 0.52841(16) 0.01240(18) -0.1736(3)
H2I H 0.4962 -0.0107 -0.2188
C3I C 0.5727(2) -0.0031(3) -0.2032(5)
H7I H 0.5810 0.0026 -0.2871
H8I H 0.6090 0.0228 -0.1612
C4I C 0.5527(2) -0.0670(3) -0.1711(5)
H9I H 0.5793 -0.0778 -0.2088
H10I H 0.5137 -0.0918 -0.2048
H5I H 0.5853 0.1007 -0.1695
H6I H 0.5469 0.0801 -0.2852
H11I H 0.4561 0.1207 0.0345
H12I H 0.4129 0.0538 0.0064
C10L C 0.13446(15) -0.17693(16) -0.1722(3)
C9L C 0.11115(16) -0.14447(19) -0.1281(3)
C8L C 0.05132(17) -0.1652(2) -0.1410(4)
C7L C 0.01633(14) -0.21842(17) -0.1980(3)
C6L C -0.04899(16) -0.2424(2) -0.2154(4)
O1L O -0.07647(10) -0.28812(13) -0.2757(2)
O2L O -0.07168(15) -0.2158(2) -0.1676(4)
C11L C 0.04393(16) -0.24771(18) -0.2407(4)
N3L N 0.10172(13) -0.22861(15) -0.2291(3)
H15L H 0.0209 -0.2831 -0.2804
H13L H 0.0347 -0.1435 -0.1116
H14L H 0.1351 -0.1088 -0.0898
O1I O 0.59020(10) 0.04521(13) 0.0576(2)
Ni1F Ni -0.1667 -0.3333 -0.3333
O3 O 0.3785(3) -0.2141(3) -0.3086(8)
O4 O 0.3599(7) -0.2221(6) 0.0246(17)
O5 O 0.3642(10) -0.2179(9) -0.649(4)
loop_
_geom_bond_atom_site_label_1
_geom_bond_atom_site_label_2
_geom_bond_site_symmetry_1
_geom_bond_site_symmetry_2
Ni1 N1 1_555 1_555
N1 H1 1_555 1_555
N2 Ni1 1_555 1_555
H2 N2 1_555 1_555
C1 N1 1_555 1_555
H3 C1 1_555 1_555
H4 C1 1_555 1_555
C2 N2 1_555 1_555
H5 C2 1_555 1_555
H6 C2 1_555 1_555
C3 N2 1_555 1_555
H7 C3 1_555 1_555
H8 C3 1_555 1_555
C4 C3 1_555 1_555
H9 C4 1_555 1_555
H10 C4 1_555 1_555
C5 N1 1_555 1_555
H11 C5 1_555 1_555
H12 C5 1_555 1_555
O1 Ni1 1_555 1_555
O2 C6 1_555 1_555
C6 O1 1_555 1_555
C7 C6 1_555 1_555
C8 C7 1_555 1_555
H13 C8 1_555 1_555
C9 C8 1_555 1_555
H14 C9 1_555 1_555
C10 C9 1_555 1_555
N3 C10 1_555 1_555
C11 C7 1_555 1_555
H15 C11 1_555 1_555
C5I C4 1_555 1_555
N1I Ni1 1_555 1_555
H1I N1I 1_555 1_555
C1I N1I 1_555 1_555
H3I C1I 1_555 1_555
H4I C1I 1_555 1_555
C2I C1I 1_555 1_555
N2I Ni1 1_555 1_555
H2I N2I 1_555 1_555
C3I N2I 1_555 1_555
H7I C3I 1_555 1_555
H8I C3I 1_555 1_555
C4I C5 1_555 1_555
H9I C4I 1_555 1_555
H10I C4I 1_555 1_555
H5I C2I 1_555 1_555
H6I C2I 1_555 1_555
H11I C5I 1_555 1_555
H12I C5I 1_555 1_555
C10L C10 1_555 1_555
C9L C10L 1_555 1_555
C8L C9L 1_555 1_555
C7L C8L 1_555 1_555
C6L C7L 1_555 1_555
O1L C6L 1_555 1_555
O2L C6L 1_555 1_555
C11L C7L 1_555 1_555
N3L C10L 1_555 1_555
H15L C11L 1_555 1_555
H13L C8L 1_555 1_555
H14L C9L 1_555 1_555
O1I Ni1 1_555 1_555
Ni1F O1L 1_555 1_555
C1 C2 1_555 1_555
N3 C11 1_555 1_555
C5I N1I 1_555 1_555
C2I N2I 1_555 1_555
C3I C4I 1_555 1_555
C11L N3L 1_555 1_555

#END
