
#######################################################################
#
#                 Cambridge Crystallographic Data Centre
#                                CCDC 
#
#######################################################################
#
# If this CIF has been generated from an entry in the Cambridge 
# Structural Database, then it will include bibliographic, chemical, 
# crystal, experimental, refinement or atomic coordinate data resulting 
# from the CCDC's data processing and validation procedures.
#
#######################################################################

data_BEVZAE01
_symmetry_cell_setting           rhombohedral
_symmetry_space_group_name_H-M   'R -3'
_symmetry_Int_Tables_number      148
_space_group_name_Hall           '-R 3'
loop_
_symmetry_equiv_pos_site_id
_symmetry_equiv_pos_as_xyz
1 x,y,z
2 -y,x-y,z
3 -x+y,-x,z
4 2/3+x,1/3+y,1/3+z
5 2/3-y,1/3+x-y,1/3+z
6 2/3-x+y,1/3-x,1/3+z
7 1/3+x,2/3+y,2/3+z
8 2/3+y,1/3-x+y,1/3-z
9 2/3+x-y,1/3+x,1/3-z
10 -x,-y,-z
11 y,-x+y,-z
12 x-y,x,-z
13 1/3-x,2/3-y,2/3-z
14 1/3+y,2/3-x+y,2/3-z
15 1/3+x-y,2/3+x,2/3-z
16 2/3-x,1/3-y,1/3-z
17 1/3-y,2/3+x-y,2/3+z
18 1/3-x+y,2/3-x,2/3+z
_cell_length_a                   26.1430(10)
_cell_length_b                   26.1430(10)
_cell_length_c                   11.3245(3)
_cell_angle_alpha                90
_cell_angle_beta                 90
_cell_angle_gamma                120.00
_cell_volume                     6702.87
loop_
_atom_site_label
_atom_site_type_symbol
_atom_site_fract_x
_atom_site_fract_y
_atom_site_fract_z
Ni1 Ni 0.5000 0.0000 0.0000
N1 N 0.50070(17) -0.07835(18) 0.0188(3)
H1 H 0.4663 -0.1073 -0.0129
N2 N 0.47157(16) -0.01257(19) 0.1737(3)
H2 H 0.5038 0.0105 0.2189
C1 C 0.4974(3) -0.0893(3) 0.1461(5)
H3 H 0.5360 -0.0651 0.1816
H4 H 0.4851 -0.1304 0.1608
C2 C 0.4540(3) -0.0746(2) 0.2000(4)
H5 H 0.4149 -0.1007 0.1684
H6 H 0.4526 -0.0804 0.2848
C3 C 0.4274(2) 0.0026(3) 0.2039(5)
H7 H 0.4194 -0.0033 0.2879
H8 H 0.3911 -0.0235 0.1622
C4 C 0.4469(2) 0.0663(3) 0.1725(5)
H9 H 0.4199 0.0765 0.2098
H10 H 0.4856 0.0913 0.2070
C5 C 0.5495(2) -0.0813(3) -0.0428(5)
H11 H 0.5867 -0.0540 -0.0052
H12 H 0.5437 -0.1208 -0.0345
O1 O 0.40980(11) -0.04511(13) -0.0576(2)
O2 O 0.40469(15) -0.1176(2) -0.1650(5)
C6 C 0.38214(16) -0.0914(2) -0.1171(4)
C7 C 0.31695(15) -0.11489(18) -0.1350(3)
C8 C 0.28235(18) -0.1678(2) -0.1929(4)
H13 H 0.2991 -0.1891 -0.2232
C9 C 0.22204(16) -0.1889(2) -0.2053(4)
H14 H 0.1980 -0.2246 -0.2433
C10 C 0.19887(15) -0.15643(16) -0.1610(3)
N3 N 0.23154(14) -0.10469(16) -0.1039(3)
C11 C 0.28975(17) -0.08564(19) -0.0929(4)
H15 H 0.3130 -0.0500 -0.0540
C5I C 0.4505(2) 0.0813(3) 0.0428(5)
N1I N 0.49930(17) 0.07835(18) -0.0188(3)
H1I H 0.5337 0.1073 0.0129
C1I C 0.5026(3) 0.0893(3) -0.1461(5)
H3I H 0.4640 0.0651 -0.1816
H4I H 0.5149 0.1304 -0.1608
C2I C 0.5460(3) 0.0746(2) -0.2000(4)
N2I N 0.52843(16) 0.01257(19) -0.1737(3)
H2I H 0.4962 -0.0105 -0.2189
C3I C 0.5726(2) -0.0026(3) -0.2039(5)
H7I H 0.5806 0.0033 -0.2879
H8I H 0.6089 0.0235 -0.1622
C4I C 0.5531(2) -0.0663(3) -0.1725(5)
H9I H 0.5801 -0.0765 -0.2098
H10I H 0.5144 -0.0913 -0.2070
H5I H 0.5851 0.1007 -0.1684
H6I H 0.5474 0.0804 -0.2848
H11I H 0.4133 0.0540 0.0052
H12I H 0.4563 0.1208 0.0345
C10L C 0.13446(15) -0.17690(16) -0.1723(3)
C9L C 0.11129(16) -0.1444(2) -0.1280(4)
C8L C 0.05098(18) -0.1655(2) -0.1404(4)
C7L C 0.01638(15) -0.21844(18) -0.1983(3)
C6L C -0.04881(16) -0.2419(2) -0.2162(4)
O1L O -0.07647(11) -0.28822(13) -0.2757(2)
O2L O -0.07136(15) -0.2157(2) -0.1683(5)
C11L C 0.04358(17) -0.24769(19) -0.2404(4)
N3L N 0.10179(14) -0.22864(16) -0.2294(3)
H15L H 0.0203 -0.2833 -0.2793
H13L H 0.0342 -0.1442 -0.1101
H14L H 0.1353 -0.1087 -0.0900
O1I O 0.59020(11) 0.04511(13) 0.0576(2)
Ni1F Ni -0.1667 -0.3333 -0.3333
O3 O 0.3778(3) -0.2149(3) -0.3094(9)
O4 O 0.3585(8) -0.2210(7) 0.0210(16)
O5? O 0.3665(11) -0.2165(9) -0.644(5)
loop_
_geom_bond_atom_site_label_1
_geom_bond_atom_site_label_2
_geom_bond_site_symmetry_1
_geom_bond_site_symmetry_2
Ni1 N1 1_555 1_555
N1 H1 1_555 1_555
N2 Ni1 1_555 1_555
H2 N2 1_555 1_555
C1 N1 1_555 1_555
H3 C1 1_555 1_555
H4 C1 1_555 1_555
C2 N2 1_555 1_555
H5 C2 1_555 1_555
H6 C2 1_555 1_555
C3 N2 1_555 1_555
H7 C3 1_555 1_555
H8 C3 1_555 1_555
C4 C3 1_555 1_555
H9 C4 1_555 1_555
H10 C4 1_555 1_555
C5 N1 1_555 1_555
H11 C5 1_555 1_555
H12 C5 1_555 1_555
O1 Ni1 1_555 1_555
O2 C6 1_555 1_555
C6 O1 1_555 1_555
C7 C6 1_555 1_555
C8 C7 1_555 1_555
H13 C8 1_555 1_555
C9 C8 1_555 1_555
H14 C9 1_555 1_555
C10 C9 1_555 1_555
N3 C10 1_555 1_555
C11 C7 1_555 1_555
H15 C11 1_555 1_555
C5I C4 1_555 1_555
N1I Ni1 1_555 1_555
H1I N1I 1_555 1_555
C1I N1I 1_555 1_555
H3I C1I 1_555 1_555
H4I C1I 1_555 1_555
C2I C1I 1_555 1_555
N2I Ni1 1_555 1_555
H2I N2I 1_555 1_555
C3I N2I 1_555 1_555
H7I C3I 1_555 1_555
H8I C3I 1_555 1_555
C4I C5 1_555 1_555
H9I C4I 1_555 1_555
H10I C4I 1_555 1_555
H5I C2I 1_555 1_555
H6I C2I 1_555 1_555
H11I C5I 1_555 1_555
H12I C5I 1_555 1_555
C10L C10 1_555 1_555
C9L C10L 1_555 1_555
C8L C9L 1_555 1_555
C7L C8L 1_555 1_555
C6L C7L 1_555 1_555
O1L C6L 1_555 1_555
O2L C6L 1_555 1_555
C11L C7L 1_555 1_555
N3L C10L 1_555 1_555
H15L C11L 1_555 1_555
H13L C8L 1_555 1_555
H14L C9L 1_555 1_555
O1I Ni1 1_555 1_555
Ni1F O1L 1_555 1_555
C1 C2 1_555 1_555
N3 C11 1_555 1_555
C5I N1I 1_555 1_555
C2I N2I 1_555 1_555
C3I C4I 1_555 1_555
C11L N3L 1_555 1_555

#END
