
#######################################################################
#
#                 Cambridge Crystallographic Data Centre
#                                CCDC 
#
#######################################################################
#
# If this CIF has been generated from an entry in the Cambridge 
# Structural Database, then it will include bibliographic, chemical, 
# crystal, experimental, refinement or atomic coordinate data resulting 
# from the CCDC's data processing and validation procedures.
#
#######################################################################

data_BEWBAI
_symmetry_cell_setting           monoclinic
_symmetry_space_group_name_H-M   'P 21/n'
_symmetry_Int_Tables_number      14
_space_group_name_Hall           '-P 2yn'
loop_
_symmetry_equiv_pos_site_id
_symmetry_equiv_pos_as_xyz
1 x,y,z
2 1/2-x,1/2+y,1/2-z
3 -x,-y,-z
4 1/2+x,1/2-y,1/2+z
_cell_length_a                   10.0345(2)
_cell_length_b                   17.8774(5)
_cell_length_c                   18.5558(4)
_cell_angle_alpha                90
_cell_angle_beta                 91.1060(10)
_cell_angle_gamma                90
_cell_volume                     3328.12
loop_
_atom_site_label
_atom_site_type_symbol
_atom_site_fract_x
_atom_site_fract_y
_atom_site_fract_z
Zn1 Zn 0.40911(4) 0.46282(3) 0.40439(2)
O1 O 0.5765(3) 0.44727(15) 0.34735(14)
O2 O 0.2774(3) 0.47802(16) 0.48454(15)
O3 O -0.0584(3) 0.3736(2) 0.81151(17)
O4 O -0.1598(3) 0.4689(2) 0.76462(16)
N1 N 0.7236(3) 0.36083(19) 0.29914(17)
N2 N 0.7751(3) 0.29033(19) 0.31383(18)
N3 N 0.4662(3) 0.3795(2) 0.47437(17)
N4 N 0.3840(3) 0.3744(2) 0.53482(17)
N5 N -0.0687(4) 0.4227(2) 0.76543(19)
N6 N 0.3833(3) 0.56900(19) 0.36315(17)
N7 N 0.2042(3) 0.89152(18) 0.16609(17)
C1 C 0.6918(4) 0.4530(2) 0.2030(2)
H1 H 0.6049 0.4636 0.2197
C2 C 0.7399(5) 0.4902(3) 0.1436(2)
H2 H 0.6861 0.5267 0.1199
C3 C 0.8655(5) 0.4746(3) 0.1186(2)
H3 H 0.8984 0.5003 0.0778
C4 C 0.9432(5) 0.4213(3) 0.1533(2)
H4 H 1.0297 0.4105 0.1361
C5 C 0.8964(4) 0.3837(3) 0.2126(2)
H5 H 0.9500 0.3467 0.2358
C6 C 0.7704(4) 0.4000(2) 0.2382(2)
C7 C 0.6350(4) 0.3840(2) 0.3502(2)
C8 C 0.6285(4) 0.3240(2) 0.4008(2)
C9 C 0.7179(4) 0.2692(2) 0.3738(2)
C10 C 0.7593(4) 0.1942(2) 0.4024(2)
H6 H 0.7979 0.1649 0.3627
H7 H 0.6788 0.1673 0.4185
C11 C 0.8595(4) 0.1967(2) 0.4646(2)
C12 C 0.9488(4) 0.2554(3) 0.4723(2)
H8 H 0.9438 0.2967 0.4402
C13 C 1.0459(4) 0.2542(3) 0.5269(2)
H9 H 1.1061 0.2950 0.5320
C14 C 1.0555(4) 0.1943(3) 0.5736(2)
H10 H 1.1229 0.1934 0.6103
C15 C 0.9668(4) 0.1359(3) 0.5667(2)
H11 H 0.9725 0.0947 0.5989
C16 C 0.8693(4) 0.1373(2) 0.5130(2)
H12 H 0.8080 0.0969 0.5090
C17 C 0.5453(4) 0.3227(2) 0.4636(2)
C18 C 0.5414(4) 0.2557(2) 0.5120(2)
H13 H 0.5229 0.2719 0.5618
H14 H 0.6293 0.2306 0.5123
C19 C 0.4339(4) 0.2007(3) 0.4865(2)
H15 H 0.4325 0.1576 0.5191
H16 H 0.4534 0.1837 0.4376
H17 H 0.3468 0.2255 0.4864
C20 C 0.2959(4) 0.4282(2) 0.5342(2)
C21 C 0.2040(4) 0.4285(2) 0.5966(2)
C22 C 0.2136(4) 0.3730(2) 0.6497(2)
H18 H 0.2815 0.3361 0.6471
C23 C 0.1254(4) 0.3715(2) 0.7058(2)
H19 H 0.1314 0.3340 0.7419
C24 C 0.0283(4) 0.4258(2) 0.7081(2)
C25 C 0.0170(4) 0.4816(2) 0.6573(2)
H20 H -0.0502 0.5188 0.6608
C26 C 0.1055(4) 0.4826(2) 0.6010(2)
H21 H 0.0987 0.5205 0.5653
C27 C 0.2801(4) 0.6114(2) 0.3821(2)
H22 H 0.2265 0.5953 0.4208
C28 C 0.2484(4) 0.6773(2) 0.3480(2)
H23 H 0.1741 0.7058 0.3631
C29 C 0.3256(4) 0.7022(2) 0.2912(2)
C30 C 0.4366(4) 0.6601(2) 0.2743(2)
H24 H 0.4947 0.6764 0.2377
C31 C 0.4623(4) 0.5945(2) 0.3106(2)
H25 H 0.5386 0.5661 0.2983
C32 C 0.2886(4) 0.7695(2) 0.2492(2)
C33 C 0.2224(4) 0.8293(2) 0.2792(2)
H26 H 0.2048 0.8295 0.3293
C34 C 0.1820(4) 0.8883(2) 0.2370(2)
H27 H 0.1365 0.9287 0.2590
C35 C 0.2725(4) 0.8352(2) 0.1368(2)
H28 H 0.2921 0.8374 0.0870
C36 C 0.3151(4) 0.7743(2) 0.1760(2)
H29 H 0.3629 0.7354 0.1532
Zn1A Zn 0.09089(4) 0.96282(3) 0.09561(2)
N7A N 0.2958(3) 0.39152(18) 0.33391(17)
C37 C -0.3354(6) 0.4377(3) 0.9280(3)
H30 H -0.4106 0.4367 0.9609
H31 H -0.2651 0.4701 0.9480
H32 H -0.3004 0.3869 0.9222
O5 O -0.3771(6) 0.4647(4) 0.8625(3)
H33 H -0.3117 0.4656 0.8341
C38? C -0.3354(6) 0.4377(3) 0.9280(3)
H34? H -0.3718 0.4528 0.9745
H35? H -0.4076 0.4193 0.8985
H36? H -0.2732 0.3974 0.9375
O6? O -0.273(2) 0.4992(16) 0.8956(11)
H37? H -0.2408 0.4864 0.8554
loop_
_geom_bond_atom_site_label_1
_geom_bond_atom_site_label_2
_geom_bond_site_symmetry_1
_geom_bond_site_symmetry_2
Zn1 O1 1_555 1_555
O1 C7 1_555 1_555
O2 Zn1 1_555 1_555
O3 N5 1_555 1_555
O4 N5 1_555 1_555
N1 N2 1_555 1_555
N2 C9 1_555 1_555
N3 Zn1 1_555 1_555
N4 N3 1_555 1_555
N5 C24 1_555 1_555
N6 Zn1 1_555 1_555
N7 C34 1_555 1_555
C1 H1 1_555 1_555
C2 C1 1_555 1_555
H2 C2 1_555 1_555
C3 C2 1_555 1_555
H3 C3 1_555 1_555
C4 C3 1_555 1_555
H4 C4 1_555 1_555
C5 C4 1_555 1_555
H5 C5 1_555 1_555
C6 N1 1_555 1_555
C7 N1 1_555 1_555
C8 C7 1_555 1_555
C9 C8 1_555 1_555
C10 C9 1_555 1_555
H6 C10 1_555 1_555
H7 C10 1_555 1_555
C11 C10 1_555 1_555
C12 C11 1_555 1_555
H8 C12 1_555 1_555
C13 C12 1_555 1_555
H9 C13 1_555 1_555
C14 C13 1_555 1_555
H10 C14 1_555 1_555
C15 C14 1_555 1_555
H11 C15 1_555 1_555
C16 C11 1_555 1_555
H12 C16 1_555 1_555
C17 N3 1_555 1_555
C18 C17 1_555 1_555
H13 C18 1_555 1_555
H14 C18 1_555 1_555
C19 C18 1_555 1_555
H15 C19 1_555 1_555
H16 C19 1_555 1_555
H17 C19 1_555 1_555
C20 O2 1_555 1_555
C21 C20 1_555 1_555
C22 C21 1_555 1_555
H18 C22 1_555 1_555
C23 C22 1_555 1_555
H19 C23 1_555 1_555
C24 C23 1_555 1_555
C25 C24 1_555 1_555
H20 C25 1_555 1_555
C26 C21 1_555 1_555
H21 C26 1_555 1_555
C27 N6 1_555 1_555
H22 C27 1_555 1_555
C28 C27 1_555 1_555
H23 C28 1_555 1_555
C29 C28 1_555 1_555
C30 C29 1_555 1_555
H24 C30 1_555 1_555
C31 N6 1_555 1_555
H25 C31 1_555 1_555
C32 C29 1_555 1_555
C33 C32 1_555 1_555
H26 C33 1_555 1_555
C34 C33 1_555 1_555
H27 C34 1_555 1_555
C35 N7 1_555 1_555
H28 C35 1_555 1_555
C36 C32 1_555 1_555
H29 C36 1_555 1_555
C37 H30 1_555 1_555
H31 C37 1_555 1_555
H32 C37 1_555 1_555
O5 C37 1_555 1_555
H33 O5 1_555 1_555
Zn1A N7 1_555 1_555
N7A Zn1 1_555 1_555
N4 C20 1_555 1_555
C1 C6 1_555 1_555
C5 C6 1_555 1_555
C8 C17 1_555 1_555
C15 C16 1_555 1_555
C25 C26 1_555 1_555
C30 C31 1_555 1_555
C35 C36 1_555 1_555

#END
