
#######################################################################
#
#                 Cambridge Crystallographic Data Centre
#                                CCDC 
#
#######################################################################
#
# If this CIF has been generated from an entry in the Cambridge 
# Structural Database, then it will include bibliographic, chemical, 
# crystal, experimental, refinement or atomic coordinate data resulting 
# from the CCDC's data processing and validation procedures.
#
#######################################################################

data_BEWCUD
_symmetry_cell_setting           tetragonal
_symmetry_space_group_name_H-M   'I 4/m c m'
_symmetry_Int_Tables_number      140
_space_group_name_Hall           '-I 4 2c'
loop_
_symmetry_equiv_pos_site_id
_symmetry_equiv_pos_as_xyz
1 x,y,z
2 -y,x,z
3 -x,-y,z
4 y,-x,z
5 x,-y,1/2-z
6 y,x,1/2-z
7 -x,y,1/2-z
8 -y,-x,1/2-z
9 1/2+x,1/2+y,1/2+z
10 1/2-y,1/2+x,1/2+z
11 1/2-x,1/2-y,1/2+z
12 1/2+y,1/2-x,1/2+z
13 1/2+x,1/2-y,-z
14 1/2+y,1/2+x,-z
15 1/2-x,1/2+y,-z
16 1/2-y,1/2-x,-z
17 -x,-y,-z
18 y,-x,-z
19 x,y,-z
20 -y,x,-z
21 -x,y,1/2+z
22 -y,-x,1/2+z
23 x,-y,1/2+z
24 y,x,1/2+z
25 1/2-x,1/2-y,1/2-z
26 1/2+y,1/2-x,1/2-z
27 1/2+x,1/2+y,1/2-z
28 1/2-y,1/2+x,1/2-z
29 1/2-x,1/2+y,z
30 1/2-y,1/2-x,z
31 1/2+x,1/2-y,z
32 1/2+y,1/2+x,z
_cell_length_a                   30.701(4)
_cell_length_b                   30.701(4)
_cell_length_c                   28.957(5)
_cell_angle_alpha                90
_cell_angle_beta                 90
_cell_angle_gamma                90
_cell_volume                     27293.5
loop_
_atom_site_label
_atom_site_type_symbol
_atom_site_fract_x
_atom_site_fract_y
_atom_site_fract_z
Zn1 Zn 0.32512(3) 0.17488(3) 0.0000
Zn2 Zn 0.39350(3) 0.10650(3) 0.0000
Zn3 Zn 0.0000 0.0000 0.23781(10)
O1 O 0.30158(15) 0.13417(16) 0.04806(16)
O2 O 0.35413(16) 0.08234(15) 0.04844(14)
O3 O 0.2780(2) 0.2220(2) 0.0000
O4 O 0.43780(19) 0.06220(19) 0.0000
O5 O 0.0000 0.0000 0.1615(4)
N1 N 0.04779(14) -0.04779(14) 0.2500
C1 C 0.3205(3) 0.0986(3) 0.0623(3)
C2 C 0.2945(3) 0.0785(2) 0.1006(2)
C3 C 0.2566(2) 0.0954(2) 0.1180(2)
H1 H 0.2456 0.1208 0.1050
C4 C 0.2342(2) 0.0765(2) 0.1535(2)
H2 H 0.2079 0.0879 0.1638
C5 C 0.2526(2) 0.0383(2) 0.1746(2)
C6 C 0.2907(2) 0.0208(2) 0.1571(2)
H3 H 0.3020 -0.0046 0.1700
C7 C 0.3123(2) 0.0406(2) 0.1205(2)
H4 H 0.3382 0.0290 0.1093
C8 C 0.2273(2) 0.0165(2) 0.2138(2)
C9 C 0.2498(3) 0.0000 0.2500
H5 H 0.2801 0.0000 0.2500
C10 C 0.1839(2) 0.0165(2) 0.2143(2)
H6 H 0.1692 0.0282 0.1892
C11 C 0.1601(2) 0.0000 0.2500
C12 C 0.1133(2) 0.0000 0.2500
C13 C 0.09058(18) -0.03889(19) 0.25069(19)
C14 C 0.11263(16) -0.08113(17) 0.2502(2)
H7 H 0.1426 -0.0857 0.2502
O1D O 0.30158(15) -0.13417(16) 0.45194(16)
O2D O 0.35413(16) -0.08234(15) 0.45156(14)
N1A N 0.04779(14) 0.04779(14) 0.2500
C1D C 0.3205(3) -0.0986(3) 0.4377(3)
C2D C 0.2945(3) -0.0785(2) 0.3994(2)
C3D C 0.2566(2) -0.0954(2) 0.3820(2)
H1D H 0.2456 -0.1208 0.3950
C4D C 0.2342(2) -0.0765(2) 0.3465(2)
H2D H 0.2079 -0.0879 0.3362
C5D C 0.2526(2) -0.0383(2) 0.3254(2)
C6D C 0.2907(2) -0.0208(2) 0.3429(2)
H3D H 0.3020 0.0046 0.3300
C7D C 0.3123(2) -0.0406(2) 0.3795(2)
H4D H 0.3382 -0.0290 0.3907
C8D C 0.2273(2) -0.0165(2) 0.2862(2)
C10D C 0.1839(2) -0.0165(2) 0.2857(2)
H6D H 0.1692 -0.0282 0.3108
C13D C 0.09058(18) 0.03889(19) 0.24931(19)
C14D C 0.11263(16) 0.08113(17) 0.2498(2)
H7D H 0.1426 0.0857 0.2498
O1G O -0.13417(16) -0.30158(15) 0.45194(16)
O2G O -0.08234(15) -0.35413(16) 0.45156(14)
C1G C -0.0986(3) -0.3205(3) 0.4377(3)
C2G C -0.0785(2) -0.2945(3) 0.3994(2)
C3G C -0.0954(2) -0.2566(2) 0.3820(2)
H1G H -0.1208 -0.2456 0.3950
C4G C -0.0765(2) -0.2342(2) 0.3465(2)
H2G H -0.0879 -0.2079 0.3362
C5G C -0.0383(2) -0.2526(2) 0.3254(2)
C6G C -0.0208(2) -0.2907(2) 0.3429(2)
H3G H 0.0046 -0.3020 0.3300
C7G C -0.0406(2) -0.3123(2) 0.3795(2)
H4G H -0.0290 -0.3382 0.3907
C8G C -0.0165(2) -0.2273(2) 0.2862(2)
C9C C 0.0000 -0.2498(3) 0.2500
H5C H 0.0000 -0.2801 0.2500
C10G C -0.0165(2) -0.1839(2) 0.2857(2)
H6G H -0.0282 -0.1692 0.3108
C11C C 0.0000 -0.1601(2) 0.2500
C12C C 0.0000 -0.1133(2) 0.2500
C13G C 0.03889(19) -0.09058(18) 0.24931(19)
C14G C 0.08113(17) -0.11263(16) 0.2498(2)
H7G H 0.0857 -0.1426 0.2498
O1A O -0.13417(16) 0.30158(15) 0.04806(16)
O2A O -0.08234(15) 0.35413(16) 0.04844(14)
C1A C -0.0986(3) 0.3205(3) 0.0623(3)
C2A C -0.0785(2) 0.2945(3) 0.1006(2)
C3A C -0.0954(2) 0.2566(2) 0.1180(2)
H1A H -0.1208 0.2456 0.1050
C4A C -0.0765(2) 0.2342(2) 0.1535(2)
H2A H -0.0879 0.2079 0.1638
C5A C -0.0383(2) 0.2526(2) 0.1746(2)
C6A C -0.0208(2) 0.2907(2) 0.1571(2)
H3A H 0.0046 0.3020 0.1700
C7A C -0.0406(2) 0.3123(2) 0.1205(2)
H4A H -0.0290 0.3382 0.1093
C8A C -0.0165(2) 0.2273(2) 0.2138(2)
C9A C 0.0000 0.2498(3) 0.2500
H5A H 0.0000 0.2801 0.2500
C10A C -0.0165(2) 0.1839(2) 0.2143(2)
H6A H -0.0282 0.1692 0.1892
C11A C 0.0000 0.1601(2) 0.2500
C12A C 0.0000 0.1133(2) 0.2500
C13A C 0.03889(19) 0.09058(18) 0.25069(19)
C14A C 0.08113(17) 0.11263(16) 0.2502(2)
H7A H 0.0857 0.1426 0.2502
O1C O 0.13417(16) -0.30158(15) 0.04806(16)
O2C O 0.08234(15) -0.35413(16) 0.04844(14)
N1C N -0.04779(14) -0.04779(14) 0.2500
C1C C 0.0986(3) -0.3205(3) 0.0623(3)
C2C C 0.0785(2) -0.2945(3) 0.1006(2)
C3C C 0.0954(2) -0.2566(2) 0.1180(2)
H1C H 0.1208 -0.2456 0.1050
C4C C 0.0765(2) -0.2342(2) 0.1535(2)
H2C H 0.0879 -0.2079 0.1638
C5C C 0.0383(2) -0.2526(2) 0.1746(2)
C6C C 0.0208(2) -0.2907(2) 0.1571(2)
H3C H -0.0046 -0.3020 0.1700
C7C C 0.0406(2) -0.3123(2) 0.1205(2)
H4C H 0.0290 -0.3382 0.1093
C8C C 0.0165(2) -0.2273(2) 0.2138(2)
C10C C 0.0165(2) -0.1839(2) 0.2143(2)
H6C H 0.0282 -0.1692 0.1892
C13C C -0.03889(19) -0.09058(18) 0.25069(19)
C14C C -0.08113(17) -0.11263(16) 0.2502(2)
H7C H -0.0857 -0.1426 0.2502
O1E O 0.13417(16) 0.30158(15) 0.45194(16)
O2E O 0.08234(15) 0.35413(16) 0.45156(14)
N1B N -0.04779(14) 0.04779(14) 0.2500
C1E C 0.0986(3) 0.3205(3) 0.4377(3)
C2E C 0.0785(2) 0.2945(3) 0.3994(2)
C3E C 0.0954(2) 0.2566(2) 0.3820(2)
H1E H 0.1208 0.2456 0.3950
C4E C 0.0765(2) 0.2342(2) 0.3465(2)
H2E H 0.0879 0.2079 0.3362
C5E C 0.0383(2) 0.2526(2) 0.3254(2)
C6E C 0.0208(2) 0.2907(2) 0.3429(2)
H3E H -0.0046 0.3020 0.3300
C7E C 0.0406(2) 0.3123(2) 0.3795(2)
H4E H 0.0290 0.3382 0.3907
C8E C 0.0165(2) 0.2273(2) 0.2862(2)
C10E C 0.0165(2) 0.1839(2) 0.2857(2)
H6E H 0.0282 0.1692 0.3108
C13E C -0.03889(19) 0.09058(18) 0.24931(19)
C14E C -0.08113(17) 0.11263(16) 0.2498(2)
H7E H -0.0857 0.1426 0.2498
O1F O -0.30158(15) 0.13417(16) 0.45194(16)
O2F O -0.35413(16) 0.08234(15) 0.45156(14)
C1F C -0.3205(3) 0.0986(3) 0.4377(3)
C2F C -0.2945(3) 0.0785(2) 0.3994(2)
C3F C -0.2566(2) 0.0954(2) 0.3820(2)
H1F H -0.2456 0.1208 0.3950
C4F C -0.2342(2) 0.0765(2) 0.3465(2)
H2F H -0.2079 0.0879 0.3362
C5F C -0.2526(2) 0.0383(2) 0.3254(2)
C6F C -0.2907(2) 0.0208(2) 0.3429(2)
H3F H -0.3020 -0.0046 0.3300
C7F C -0.3123(2) 0.0406(2) 0.3795(2)
H4F H -0.3382 0.0290 0.3907
C8F C -0.2273(2) 0.0165(2) 0.2862(2)
C9B C -0.2498(3) 0.0000 0.2500
H5B H -0.2801 0.0000 0.2500
C10F C -0.1839(2) 0.0165(2) 0.2857(2)
H6F H -0.1692 0.0282 0.3108
C11B C -0.1601(2) 0.0000 0.2500
C12B C -0.1133(2) 0.0000 0.2500
C13F C -0.09058(18) -0.03889(19) 0.24931(19)
C14F C -0.11263(16) -0.08113(17) 0.2498(2)
H7F H -0.1426 -0.0857 0.2498
O1B O -0.30158(15) -0.13417(16) 0.04806(16)
O2B O -0.35413(16) -0.08234(15) 0.04844(14)
C1B C -0.3205(3) -0.0986(3) 0.0623(3)
C2B C -0.2945(3) -0.0785(2) 0.1006(2)
C3B C -0.2566(2) -0.0954(2) 0.1180(2)
H1B H -0.2456 -0.1208 0.1050
C4B C -0.2342(2) -0.0765(2) 0.1535(2)
H2B H -0.2079 -0.0879 0.1638
C5B C -0.2526(2) -0.0383(2) 0.1746(2)
C6B C -0.2907(2) -0.0208(2) 0.1571(2)
H3B H -0.3020 0.0046 0.1700
C7B C -0.3123(2) -0.0406(2) 0.1205(2)
H4B H -0.3382 -0.0290 0.1093
C8B C -0.2273(2) -0.0165(2) 0.2138(2)
C10B C -0.1839(2) -0.0165(2) 0.2143(2)
H6B H -0.1692 -0.0282 0.1892
C13B C -0.09058(18) 0.03889(19) 0.25069(19)
C14B C -0.11263(16) 0.08113(17) 0.2502(2)
H7B H -0.1426 0.0857 0.2502
Zn1A Zn -0.17488(3) 0.32512(3) 0.0000
Zn2A Zn -0.10650(3) 0.39350(3) 0.0000
O3A O -0.2220(2) 0.2780(2) 0.0000
O4A O -0.06220(19) 0.43780(19) 0.0000
Zn3D Zn 0.0000 0.0000 0.26219(10)
O5D O 0.0000 0.0000 0.3385(4)
Zn1B Zn -0.32512(3) -0.17488(3) 0.0000
Zn1C Zn 0.17488(3) -0.32512(3) 0.0000
Zn1D Zn 0.32512(3) -0.17488(3) 0.5000
Zn1E Zn 0.17488(3) 0.32512(3) 0.5000
Zn1F Zn -0.32512(3) 0.17488(3) 0.5000
Zn1G Zn -0.17488(3) -0.32512(3) 0.5000
Zn2B Zn -0.39350(3) -0.10650(3) 0.0000
Zn2C Zn 0.10650(3) -0.39350(3) 0.0000
Zn2D Zn 0.39350(3) -0.10650(3) 0.5000
Zn2E Zn 0.10650(3) 0.39350(3) 0.5000
Zn2F Zn -0.39350(3) 0.10650(3) 0.5000
Zn2G Zn -0.10650(3) -0.39350(3) 0.5000
O1L O -0.19842(15) 0.36583(16) -0.04806(16)
O1O O 0.36583(16) 0.19842(15) -0.04806(16)
O1R O 0.30158(15) 0.13417(16) -0.04806(16)
O1S O -0.13417(16) 0.30158(15) -0.04806(16)
O1CA O 0.36583(16) 0.19842(15) 0.04806(16)
O1DA O -0.19842(15) 0.36583(16) 0.04806(16)
O2L O -0.14587(16) 0.41766(15) -0.04844(14)
O2O O 0.41766(15) 0.14587(16) -0.04844(14)
O2R O 0.35413(16) 0.08234(15) -0.04844(14)
O2S O -0.08234(15) 0.35413(16) -0.04844(14)
O2CA O 0.41766(15) 0.14587(16) 0.04844(14)
O2DA O -0.14587(16) 0.41766(15) 0.04844(14)
loop_
_geom_bond_atom_site_label_1
_geom_bond_atom_site_label_2
_geom_bond_site_symmetry_1
_geom_bond_site_symmetry_2
Zn1 O1 1_555 1_555
Zn2 O2 1_555 1_555
Zn3 O5 1_555 1_555
O1 C1 1_555 1_555
O2 C1 1_555 1_555
O3 Zn1 1_555 1_555
O4 Zn2 1_555 1_555
N1 Zn3 1_555 1_555
C1 C2 1_555 1_555
C2 C3 1_555 1_555
C3 H1 1_555 1_555
C4 C3 1_555 1_555
H2 C4 1_555 1_555
C5 C4 1_555 1_555
C6 C5 1_555 1_555
H3 C6 1_555 1_555
C7 C2 1_555 1_555
H4 C7 1_555 1_555
C8 C5 1_555 1_555
C9 C8 1_555 1_555
H5 C9 1_555 1_555
C10 C8 1_555 1_555
H6 C10 1_555 1_555
C11 C10 1_555 1_555
C12 C11 1_555 1_555
C13 N1 1_555 1_555
C14 C13 1_555 1_555
H7 C14 1_555 1_555
O1D C1D 1_555 1_555
O2D C1D 1_555 1_555
N1A Zn3 1_555 1_555
C1D C2D 1_555 1_555
C2D C3D 1_555 1_555
C3D H1D 1_555 1_555
C4D C3D 1_555 1_555
H2D C4D 1_555 1_555
C5D C4D 1_555 1_555
C6D C5D 1_555 1_555
H3D C6D 1_555 1_555
C7D C2D 1_555 1_555
H4D C7D 1_555 1_555
C8D C9 1_555 1_555
C10D C11 1_555 1_555
H6D C10D 1_555 1_555
C13D C12 1_555 1_555
C14D C13D 1_555 1_555
H7D C14D 1_555 1_555
O1G C1G 1_555 1_555
O2G C1G 1_555 1_555
C1G C2G 1_555 1_555
C2G C3G 1_555 1_555
C3G H1G 1_555 1_555
C4G C3G 1_555 1_555
H2G C4G 1_555 1_555
C5G C4G 1_555 1_555
C6G C5G 1_555 1_555
H3G C6G 1_555 1_555
C7G C2G 1_555 1_555
H4G C7G 1_555 1_555
C8G C5G 1_555 1_555
C9C C8G 1_555 1_555
H5C C9C 1_555 1_555
C10G C8G 1_555 1_555
H6G C10G 1_555 1_555
C11C C10G 1_555 1_555
C12C C11C 1_555 1_555
C13G N1 1_555 1_555
C14G C14 1_555 1_555
H7G C14G 1_555 1_555
O1A C1A 1_555 1_555
O2A C1A 1_555 1_555
C1A C2A 1_555 1_555
C2A C3A 1_555 1_555
C3A H1A 1_555 1_555
C4A C3A 1_555 1_555
H2A C4A 1_555 1_555
C5A C4A 1_555 1_555
C6A C5A 1_555 1_555
H3A C6A 1_555 1_555
C7A C2A 1_555 1_555
H4A C7A 1_555 1_555
C8A C5A 1_555 1_555
C9A C8A 1_555 1_555
H5A C9A 1_555 1_555
C10A C8A 1_555 1_555
H6A C10A 1_555 1_555
C11A C10A 1_555 1_555
C12A C11A 1_555 1_555
C13A N1A 1_555 1_555
C14A C14D 1_555 1_555
H7A C14A 1_555 1_555
O1C C1C 1_555 1_555
O2C C1C 1_555 1_555
N1C Zn3 1_555 1_555
C1C C2C 1_555 1_555
C2C C3C 1_555 1_555
C3C H1C 1_555 1_555
C4C C3C 1_555 1_555
H2C C4C 1_555 1_555
C5C C4C 1_555 1_555
C6C C5C 1_555 1_555
H3C C6C 1_555 1_555
C7C C2C 1_555 1_555
H4C C7C 1_555 1_555
C8C C9C 1_555 1_555
C10C C11C 1_555 1_555
H6C C10C 1_555 1_555
C13C C12C 1_555 1_555
C14C C13C 1_555 1_555
H7C C14C 1_555 1_555
O1E C1E 1_555 1_555
O2E C1E 1_555 1_555
N1B Zn3 1_555 1_555
C1E C2E 1_555 1_555
C2E C3E 1_555 1_555
C3E H1E 1_555 1_555
C4E C3E 1_555 1_555
H2E C4E 1_555 1_555
C5E C4E 1_555 1_555
C6E C5E 1_555 1_555
H3E C6E 1_555 1_555
C7E C2E 1_555 1_555
H4E C7E 1_555 1_555
C8E C9A 1_555 1_555
C10E C11A 1_555 1_555
H6E C10E 1_555 1_555
C13E C12A 1_555 1_555
C14E C13E 1_555 1_555
H7E C14E 1_555 1_555
O1F C1F 1_555 1_555
O2F C1F 1_555 1_555
C1F C2F 1_555 1_555
C2F C3F 1_555 1_555
C3F H1F 1_555 1_555
C4F C3F 1_555 1_555
H2F C4F 1_555 1_555
C5F C4F 1_555 1_555
C6F C5F 1_555 1_555
H3F C6F 1_555 1_555
C7F C2F 1_555 1_555
H4F C7F 1_555 1_555
C8F C5F 1_555 1_555
C9B C8F 1_555 1_555
H5B C9B 1_555 1_555
C10F C8F 1_555 1_555
H6F C10F 1_555 1_555
C11B C10F 1_555 1_555
C12B C11B 1_555 1_555
C13F N1C 1_555 1_555
C14F C14C 1_555 1_555
H7F C14F 1_555 1_555
O1B C1B 1_555 1_555
O2B C1B 1_555 1_555
C1B C2B 1_555 1_555
C2B C3B 1_555 1_555
C3B H1B 1_555 1_555
C4B C3B 1_555 1_555
H2B C4B 1_555 1_555
C5B C4B 1_555 1_555
C6B C5B 1_555 1_555
H3B C6B 1_555 1_555
C7B C2B 1_555 1_555
H4B C7B 1_555 1_555
C8B C9B 1_555 1_555
C10B C11B 1_555 1_555
H6B C10B 1_555 1_555
C13B N1B 1_555 1_555
C14B C14E 1_555 1_555
H7B C14B 1_555 1_555
Zn1A O1A 1_555 1_555
Zn2A O2A 1_555 1_555
O3A Zn1A 1_555 1_555
O4A Zn2A 1_555 1_555
Zn3D Zn3 1_555 1_555
O5D Zn3D 1_555 1_555
Zn1B O1B 1_555 1_555
Zn1C O1C 1_555 1_555
Zn1D O1D 1_555 1_555
Zn1E O1E 1_555 1_555
Zn1F O1F 1_555 1_555
Zn1G O1G 1_555 1_555
Zn2B O2B 1_555 1_555
Zn2C O2C 1_555 1_555
Zn2D O2D 1_555 1_555
Zn2E O2E 1_555 1_555
Zn2F O2F 1_555 1_555
Zn2G O2G 1_555 1_555
O1L Zn1A 1_555 1_555
O1O Zn1 1_555 1_555
O1R Zn1 1_555 1_555
O1S Zn1A 1_555 1_555
O1CA Zn1 1_555 1_555
O1DA Zn1A 1_555 1_555
O2L Zn2A 1_555 1_555
O2O Zn2 1_555 1_555
O2R Zn2 1_555 1_555
O2S Zn2A 1_555 1_555
O2CA Zn2 1_555 1_555
O2DA Zn2A 1_555 1_555
N1 Zn3D 1_555 1_555
C6 C7 1_555 1_555
C12 C13 1_555 1_555
N1A C13D 1_555 1_555
N1A Zn3D 1_555 1_555
C5D C8D 1_555 1_555
C6D C7D 1_555 1_555
C8D C10D 1_555 1_555
C6G C7G 1_555 1_555
C12C C13G 1_555 1_555
C13G C14G 1_555 1_555
C6A C7A 1_555 1_555
C12A C13A 1_555 1_555
C13A C14A 1_555 1_555
N1C C13C 1_555 1_555
N1C Zn3D 1_555 1_555
C5C C8C 1_555 1_555
C6C C7C 1_555 1_555
C8C C10C 1_555 1_555
N1B C13E 1_555 1_555
N1B Zn3D 1_555 1_555
C5E C8E 1_555 1_555
C6E C7E 1_555 1_555
C8E C10E 1_555 1_555
C6F C7F 1_555 1_555
C12B C13F 1_555 1_555
C12B C13B 1_555 1_555
C13F C14F 1_555 1_555
C5B C8B 1_555 1_555
C6B C7B 1_555 1_555
C8B C10B 1_555 1_555
C13B C14B 1_555 1_555

#END
