
#######################################################################
#
#                 Cambridge Crystallographic Data Centre
#                                CCDC 
#
#######################################################################
#
# If this CIF has been generated from an entry in the Cambridge 
# Structural Database, then it will include bibliographic, chemical, 
# crystal, experimental, refinement or atomic coordinate data resulting 
# from the CCDC's data processing and validation procedures.
#
#######################################################################

data_BEWHOB
_symmetry_cell_setting           orthorhombic
_symmetry_space_group_name_H-M   'P 21 21 2'
_symmetry_Int_Tables_number      18
_space_group_name_Hall           'P 2 2ab'
loop_
_symmetry_equiv_pos_site_id
_symmetry_equiv_pos_as_xyz
1 x,y,z
2 -x,-y,z
3 1/2+x,1/2-y,-z
4 1/2-x,1/2+y,-z
_cell_length_a                   7.438(3)
_cell_length_b                   9.356(3)
_cell_length_c                   8.293(3)
_cell_angle_alpha                90
_cell_angle_beta                 90
_cell_angle_gamma                90
_cell_volume                     577.109
loop_
_atom_site_label
_atom_site_type_symbol
_atom_site_fract_x
_atom_site_fract_y
_atom_site_fract_z
Cu1 Cu -0.09252(5) -0.12542(4) -0.62309(5)
O1 O -0.2539(4) -0.0323(3) -0.7731(4)
O2 O -0.1009(4) 0.1749(3) -0.7708(3)
O3 O -0.1891(4) -0.3554(3) -0.6327(4)
C1 C -0.3316(5) -0.4201(4) -0.6140(4)
C2 C -0.3318(5) -0.5797(4) -0.6058(5)
C3 C -0.5063(5) -0.3445(4) -0.6050(4)
C4 C -0.2233(5) 0.0929(4) -0.8229(4)
C5 C -0.3422(6) 0.1499(5) -0.9547(5)
H1 H -0.3311 0.0933 -1.0483
H2 H -0.3065 0.2465 -0.9801
H3 H -0.4637 0.1516 -0.9197
C3A C -0.4937(5) -0.6555(4) -0.6050(4)
C1A C -0.6684(5) -0.5799(4) -0.6140(4)
O3A O -0.8109(4) -0.6446(3) -0.6327(4)
C2A C -0.6682(5) -0.4203(4) -0.6058(5)
O1A O 0.2539(4) 0.0323(3) -0.7731(4)
O2A O 0.1009(4) -0.1749(3) -0.7708(3)
C4A C 0.2233(5) -0.0929(4) -0.8229(4)
C5A C 0.3422(6) -0.1499(5) -0.9547(5)
H1A H 0.3311 -0.0933 -1.0483
H2A H 0.3065 -0.2465 -0.9801
H3A H 0.4637 -0.1516 -0.9197
Cu1A Cu 0.09252(5) 0.12542(4) -0.62309(5)
C2C C -0.1682(5) -0.0797(4) -0.3942(5)
C3B C -0.0063(5) -0.1555(4) -0.3950(4)
Cu1C Cu -0.40748(5) -0.62542(4) -0.37691(5)
Cu1B Cu -0.59252(5) -0.37458(4) -0.37691(5)
Cu1A_2 Cu -0.90748(5) -0.87458(4) -0.62309(5)
O3A_2 O 0.1891(4) 0.3554(3) -0.6327(4)
C2B C 0.1682(5) 0.0797(4) -0.3942(5)
C3C C 0.0063(5) 0.1555(4) -0.3950(4)
loop_
_geom_bond_atom_site_label_1
_geom_bond_atom_site_label_2
_geom_bond_site_symmetry_1
_geom_bond_site_symmetry_2
Cu1 O1 1_555 1_555
O1 C4 1_555 1_555
O2 C4 1_555 1_555
O3 Cu1 1_555 1_555
C1 O3 1_555 1_555
C2 C1 1_555 1_555
C3 C1 1_555 1_555
C4 C5 1_555 1_555
C5 H1 1_555 1_555
H2 C5 1_555 1_555
H3 C5 1_555 1_555
C3A C2 1_555 1_555
C1A C3A 1_555 1_555
O3A C1A 1_555 1_555
C2A C3 1_555 1_555
O1A C4A 1_555 1_555
O2A Cu1 1_555 1_555
C4A O2A 1_555 1_555
C5A C4A 1_555 1_555
H1A C5A 1_555 1_555
H2A C5A 1_555 1_555
H3A C5A 1_555 1_555
Cu1A Cu1 1_555 1_555
C2C Cu1 1_555 1_555
C3B Cu1 1_555 1_555
Cu1C C2 1_555 1_555
Cu1B C3 1_555 1_555
Cu1A_2 O3A 1_555 1_555
O3A_2 Cu1A 1_555 1_555
C2B Cu1A 1_555 1_555
C3C Cu1A 1_555 1_555
O2 Cu1A 1_555 1_555
C3A Cu1C 1_555 1_555
C1A C2A 1_555 1_555
C2A Cu1B 1_555 1_555
O1A Cu1A 1_555 1_555
C2C C3B 1_555 1_555
Cu1C Cu1B 1_555 1_555
C2B C3C 1_555 1_555

#END
