
#######################################################################
#
#                 Cambridge Crystallographic Data Centre
#                                CCDC 
#
#######################################################################
#
# If this CIF has been generated from an entry in the Cambridge 
# Structural Database, then it will include bibliographic, chemical, 
# crystal, experimental, refinement or atomic coordinate data resulting 
# from the CCDC's data processing and validation procedures.
#
#######################################################################

data_BEWKIY
_symmetry_cell_setting           rhombohedral
_symmetry_space_group_name_H-M   'R -3'
_symmetry_Int_Tables_number      148
_space_group_name_Hall           '-R 3'
loop_
_symmetry_equiv_pos_site_id
_symmetry_equiv_pos_as_xyz
1 x,y,z
2 -y,x-y,z
3 -x+y,-x,z
4 2/3+x,1/3+y,1/3+z
5 2/3-y,1/3+x-y,1/3+z
6 2/3-x+y,1/3-x,1/3+z
7 1/3+x,2/3+y,2/3+z
8 2/3+y,1/3-x+y,1/3-z
9 2/3+x-y,1/3+x,1/3-z
10 -x,-y,-z
11 y,-x+y,-z
12 x-y,x,-z
13 1/3-x,2/3-y,2/3-z
14 1/3+y,2/3-x+y,2/3-z
15 1/3+x-y,2/3+x,2/3-z
16 2/3-x,1/3-y,1/3-z
17 1/3-y,2/3+x-y,2/3+z
18 1/3-x+y,2/3-x,2/3+z
_cell_length_a                   14.6951(12)
_cell_length_b                   14.6951(12)
_cell_length_c                   12.813(2)
_cell_angle_alpha                90
_cell_angle_beta                 90
_cell_angle_gamma                120.00
_cell_volume                     2396.22
loop_
_atom_site_label
_atom_site_type_symbol
_atom_site_fract_x
_atom_site_fract_y
_atom_site_fract_z
O1 O 0.1422(3) 0.2460(3) 0.2297(3)
O2 O 0.2802(3) 0.4069(3) 0.2576(3)
N1 N -0.1014(4) 0.1347(4) 0.2261(4)
H1 H -0.1516 0.0658 0.2211
C1 C -0.0791(5) 0.1697(5) 0.1156(4)
H2 H -0.0488 0.1324 0.0808
H3 H -0.0277 0.2441 0.1136
C2 C 0.1931(5) 0.3308(5) 0.2817(4)
C3 C -0.1562(5) 0.1829(5) 0.2764(5)
H4 H -0.1086 0.2580 0.2820
H5 H -0.1758 0.1551 0.3466
Ni1 Ni 0.0000 0.0000 0.5000
Ni2 Ni 0.01604(6) 0.13136(6) 0.31294(6)
O3 O 0.0000 0.0000 0.2316(5)
H6 H 0.0000 0.0000 0.1551
O4 O -0.1000(3) 0.0151(3) 0.4004(3)
H7 H -0.1577 0.0235 0.4278
C2L C 0.1402(5) 0.3359(5) 0.3850(4)
O1L O 0.1911(3) 0.4207(3) 0.4370(3)
O2L O 0.0531(3) 0.2598(3) 0.4091(3)
C3O C -0.1771(5) 0.1504(5) 0.0569(5)
N1O N -0.2319(4) 0.1986(4) 0.1072(4)
H1O H -0.1817 0.2675 0.1122
C1O C -0.2542(5) 0.1636(5) 0.2177(4)
H2O H -0.2845 0.2009 0.2525
H3O H -0.3056 0.0892 0.2197
H4O H -0.2247 0.0753 0.0513
H5O H -0.1575 0.1782 -0.0133
O4A O -0.0151(3) -0.1151(4) 0.4004(3)
H7A H -0.0235 -0.1812 0.4278
O4B O 0.1151(4) 0.1000(3) 0.4004(3)
H7B H 0.1812 0.1577 0.4278
O4I O 0.1000(3) -0.0151(3) 0.5996(3)
H7I H 0.1577 -0.0235 0.5722
O4J O 0.0151(3) 0.1151(4) 0.5996(3)
H7J H 0.0235 0.1812 0.5722
O4K O -0.1151(4) -0.1000(3) 0.5996(3)
H7K H -0.1812 -0.1577 0.5722
Ni2A Ni -0.13136(6) -0.11532(8) 0.31294(6)
Ni2B Ni 0.11532(8) -0.01604(6) 0.31294(6)
Ni2I Ni -0.01604(6) -0.13136(6) 0.68706(6)
Ni2J Ni 0.13136(6) 0.11532(8) 0.68706(6)
Ni2K Ni -0.11532(8) 0.01604(6) 0.68706(6)
O1A O -0.2460(3) -0.1038(4) 0.2297(3)
O2A O -0.4069(3) -0.1267(4) 0.2576(3)
C2A C -0.3308(5) -0.1377(7) 0.2817(4)
C2M C -0.3359(5) -0.1956(7) 0.3850(4)
O1M O -0.4207(3) -0.2295(4) 0.4370(3)
O2M O -0.2598(3) -0.2066(4) 0.4091(3)
N1A N -0.1347(4) -0.2361(6) 0.2261(4)
H1A H -0.0658 -0.2174 0.2211
C1A C -0.1697(5) -0.2488(7) 0.1156(4)
H2A H -0.1324 -0.1812 0.0808
H3A H -0.2441 -0.2718 0.1136
C3A C -0.1829(5) -0.3391(7) 0.2764(5)
H4A H -0.2580 -0.3666 0.2820
H5A H -0.1551 -0.3309 0.3466
C3G C -0.1504(5) -0.3276(7) 0.0569(5)
N1G N -0.1986(4) -0.4306(6) 0.1072(4)
H1G H -0.2675 -0.4493 0.1122
C1G C -0.1636(5) -0.4179(7) 0.2177(4)
H2G H -0.2009 -0.4855 0.2525
H3G H -0.0892 -0.3949 0.2197
H4G H -0.0753 -0.3001 0.0513
H5G H -0.1782 -0.3358 -0.0133
O1B O 0.1038(4) -0.1422(3) 0.2297(3)
O2B O 0.1267(4) -0.2802(3) 0.2576(3)
C2B C 0.1377(7) -0.1931(5) 0.2817(4)
C2N C 0.1956(7) -0.1402(5) 0.3850(4)
O1N O 0.2295(4) -0.1911(3) 0.4370(3)
O2N O 0.2066(4) -0.0531(3) 0.4091(3)
N1B N 0.2361(6) 0.1014(4) 0.2261(4)
H1B H 0.2174 0.1516 0.2211
C1B C 0.2488(7) 0.0791(5) 0.1156(4)
H2B H 0.1812 0.0488 0.0808
H3B H 0.2718 0.0277 0.1136
C3B C 0.3391(7) 0.1562(5) 0.2764(5)
H4B H 0.3666 0.1086 0.2820
H5B H 0.3309 0.1758 0.3466
C3H C 0.3276(7) 0.1771(5) 0.0569(5)
N1H N 0.4306(6) 0.2319(4) 0.1072(4)
H1H H 0.4493 0.1817 0.1122
C1H C 0.4179(7) 0.2542(5) 0.2177(4)
H2H H 0.4855 0.2845 0.2525
H3H H 0.3949 0.3056 0.2197
H4H H 0.3001 0.2247 0.0513
H5H H 0.3358 0.1575 -0.0133
O3I O 0.0000 0.0000 0.7684(5)
H6I H 0.0000 0.0000 0.8449
Ni2L Ni 0.31729(6) 0.53531(6) 0.35373(6)
Ni2O Ni -0.34937(6) 0.20197(6) 0.02039(6)
O1I O -0.1422(3) -0.2460(3) 0.7703(3)
O2C O -0.0531(3) -0.2598(3) 0.5909(3)
N1I N 0.1014(4) -0.1347(4) 0.7739(4)
O1J O 0.2460(3) 0.1038(4) 0.7703(3)
O2D O 0.2598(3) 0.2066(4) 0.5909(3)
N1J N 0.1347(4) 0.2361(6) 0.7739(4)
O1K O -0.1038(4) 0.1422(3) 0.7703(3)
O2E O -0.2066(4) 0.0531(3) 0.5909(3)
N1K N -0.2361(6) -0.1014(4) 0.7739(4)
Ni2M Ni -0.53531(6) -0.21801(8) 0.35373(6)
Ni2G Ni -0.20197(6) -0.55135(8) 0.02039(6)
Ni2N Ni 0.21801(8) -0.31729(6) 0.35373(6)
Ni2H Ni 0.55135(8) 0.34937(6) 0.02039(6)
H1I H 0.1516 -0.0658 0.7789
H1J H 0.0658 0.2174 0.7789
H1K H -0.2174 -0.1516 0.7789
loop_
_geom_bond_atom_site_label_1
_geom_bond_atom_site_label_2
_geom_bond_site_symmetry_1
_geom_bond_site_symmetry_2
O1 C2 1_555 1_555
O2 C2 1_555 1_555
N1 H1 1_555 1_555
C1 N1 1_555 1_555
H2 C1 1_555 1_555
H3 C1 1_555 1_555
C2 C2L 1_555 1_555
C3 N1 1_555 1_555
H4 C3 1_555 1_555
H5 C3 1_555 1_555
Ni1 O4 1_555 1_555
Ni2 O1 1_555 1_555
O3 Ni2 1_555 1_555
H6 O3 1_555 1_555
O4 Ni2 1_555 1_555
H7 O4 1_555 1_555
C2L O1L 1_555 1_555
O1L Ni2L 1_555 1_555
O2L Ni2 1_555 1_555
C3O C1 1_555 1_555
N1O C3O 1_555 1_555
H1O N1O 1_555 1_555
C1O C3 1_555 1_555
H2O C1O 1_555 1_555
H3O C1O 1_555 1_555
H4O C3O 1_555 1_555
H5O C3O 1_555 1_555
O4A Ni1 1_555 1_555
H7A O4A 1_555 1_555
O4B Ni1 1_555 1_555
H7B O4B 1_555 1_555
O4I Ni1 1_555 1_555
H7I O4I 1_555 1_555
O4J Ni1 1_555 1_555
H7J O4J 1_555 1_555
O4K Ni1 1_555 1_555
H7K O4K 1_555 1_555
Ni2A O3 1_555 1_555
Ni2B O3 1_555 1_555
Ni2I O4I 1_555 1_555
Ni2J O4I 1_555 1_555
Ni2K O4J 1_555 1_555
O1A Ni2A 1_555 1_555
O2A C2A 1_555 1_555
C2A O1A 1_555 1_555
C2M C2A 1_555 1_555
O1M C2M 1_555 1_555
O2M Ni2A 1_555 1_555
N1A Ni2A 1_555 1_555
H1A N1A 1_555 1_555
C1A N1A 1_555 1_555
H2A C1A 1_555 1_555
H3A C1A 1_555 1_555
C3A N1A 1_555 1_555
H4A C3A 1_555 1_555
H5A C3A 1_555 1_555
C3G C1A 1_555 1_555
N1G C3G 1_555 1_555
H1G N1G 1_555 1_555
C1G C3A 1_555 1_555
H2G C1G 1_555 1_555
H3G C1G 1_555 1_555
H4G C3G 1_555 1_555
H5G C3G 1_555 1_555
O1B Ni2B 1_555 1_555
O2B C2B 1_555 1_555
C2B O1B 1_555 1_555
C2N C2B 1_555 1_555
O1N C2N 1_555 1_555
O2N Ni2B 1_555 1_555
N1B Ni2B 1_555 1_555
H1B N1B 1_555 1_555
C1B N1B 1_555 1_555
H2B C1B 1_555 1_555
H3B C1B 1_555 1_555
C3B N1B 1_555 1_555
H4B C3B 1_555 1_555
H5B C3B 1_555 1_555
C3H C1B 1_555 1_555
N1H C3H 1_555 1_555
H1H N1H 1_555 1_555
C1H C3B 1_555 1_555
H2H C1H 1_555 1_555
H3H C1H 1_555 1_555
H4H C3H 1_555 1_555
H5H C3H 1_555 1_555
O3I Ni2I 1_555 1_555
H6I O3I 1_555 1_555
Ni2L O2 1_555 1_555
Ni2O N1O 1_555 1_555
O1I Ni2I 1_555 1_555
O2C Ni2I 1_555 1_555
N1I Ni2I 1_555 1_555
O1J Ni2J 1_555 1_555
O2D Ni2J 1_555 1_555
N1J Ni2J 1_555 1_555
O1K Ni2K 1_555 1_555
O2E Ni2K 1_555 1_555
N1K Ni2K 1_555 1_555
Ni2M O2A 1_555 1_555
Ni2G N1G 1_555 1_555
Ni2N O2B 1_555 1_555
Ni2H N1H 1_555 1_555
H1I N1I 1_555 1_555
H1J N1J 1_555 1_555
H1K N1K 1_555 1_555
N1 Ni2 1_555 1_555
Ni2 O4B 1_555 1_555
O4 Ni2A 1_555 1_555
C2L O2L 1_555 1_555
N1O C1O 1_555 1_555
O4A Ni2A 1_555 1_555
O4A Ni2B 1_555 1_555
O4B Ni2B 1_555 1_555
O4J Ni2J 1_555 1_555
O4K Ni2K 1_555 1_555
O4K Ni2I 1_555 1_555
Ni2J O3I 1_555 1_555
Ni2K O3I 1_555 1_555
C2M O2M 1_555 1_555
O1M Ni2M 1_555 1_555
N1G C1G 1_555 1_555
C2N O2N 1_555 1_555
O1N Ni2N 1_555 1_555
N1H C1H 1_555 1_555

#END
