
#######################################################################
#
#                 Cambridge Crystallographic Data Centre
#                                CCDC 
#
#######################################################################
#
# If this CIF has been generated from an entry in the Cambridge 
# Structural Database, then it will include bibliographic, chemical, 
# crystal, experimental, refinement or atomic coordinate data resulting 
# from the CCDC's data processing and validation procedures.
#
#######################################################################

data_BEWKIZ
_symmetry_cell_setting           monoclinic
_symmetry_space_group_name_H-M   'P 21/c'
_symmetry_Int_Tables_number      14
_space_group_name_Hall           '-P 2ybc'
loop_
_symmetry_equiv_pos_site_id
_symmetry_equiv_pos_as_xyz
1 x,y,z
2 -x,1/2+y,1/2-z
3 -x,-y,-z
4 x,1/2-y,1/2+z
_cell_length_a                   13.4508(11)
_cell_length_b                   34.135(3)
_cell_length_c                   12.2402(10)
_cell_angle_alpha                90
_cell_angle_beta                 96.729(3)
_cell_angle_gamma                90
_cell_volume                     5581.29
loop_
_atom_site_label
_atom_site_type_symbol
_atom_site_fract_x
_atom_site_fract_y
_atom_site_fract_z
C1 C 0.3726(3) 0.40795(12) 0.4606(3)
C2 C 0.3365(3) 0.42706(12) 0.5485(3)
H1 H 0.3434 0.4546 0.5562
C3 C 0.2903(4) 0.40565(13) 0.6250(4)
H2 H 0.2654 0.4188 0.6847
C4 C 0.2801(4) 0.36552(13) 0.6152(4)
H3 H 0.2502 0.3510 0.6690
C5 C 0.3139(3) 0.34649(12) 0.5264(4)
C6 C 0.3595(3) 0.36777(12) 0.4496(4)
H4 H 0.3821 0.3547 0.3887
C7 C 0.4229(3) 0.43114(11) 0.3795(4)
C8 C 0.4392(3) 0.43290(12) 0.1884(4)
C9 C 0.5019(4) 0.42501(13) 0.0079(4)
H5 H 0.5682 0.4155 -0.0082
H6 H 0.5031 0.4540 0.0064
C10 C 0.4226(4) 0.41046(16) -0.0800(4)
H7 H 0.4382 0.4193 -0.1522
H8 H 0.3572 0.4208 -0.0663
H9 H 0.4207 0.3818 -0.0785
C11 C 0.5160(4) 0.37140(12) 0.1452(4)
H10 H 0.5132 0.3559 0.0766
H11 H 0.4689 0.3595 0.1920
C12 C 0.6207(4) 0.36947(14) 0.2048(4)
H12 H 0.6382 0.3421 0.2221
H13 H 0.6238 0.3846 0.2730
H14 H 0.6680 0.3804 0.1578
C13 C 0.3076(4) 0.30299(13) 0.5129(4)
C14 C 0.2995(4) 0.24530(13) 0.6137(4)
C15 C 0.2538(4) 0.18118(13) 0.6867(4)
H15 H 0.2119 0.1742 0.7451
H16 H 0.3248 0.1789 0.7182
C16 C 0.2335(5) 0.15259(16) 0.5924(5)
H17 H 0.2496 0.1260 0.6187
H18 H 0.2750 0.1593 0.5344
H19 H 0.1626 0.1539 0.5628
C17 C 0.1314(5) 0.23647(18) 0.6635(7)
H20 H 0.1106 0.2548 0.6025
H21 H 0.0841 0.2141 0.6571
C18 C 0.1255(6) 0.2565(2) 0.7688(8)
H22 H 0.0565 0.2650 0.7731
H23 H 0.1698 0.2794 0.7741
H24 H 0.1462 0.2384 0.8295
C19 C 0.2600(3) 0.57174(12) 0.1629(3)
C20 C 0.1960(3) 0.51948(12) 0.2594(4)
C21 C 0.1359(4) 0.45665(13) 0.3272(4)
H25 H 0.2049 0.4530 0.3636
H26 H 0.1150 0.4319 0.2888
C22 C 0.0676(4) 0.46454(16) 0.4138(5)
H27 H 0.0726 0.4430 0.4670
H28 H -0.0016 0.4667 0.3790
H29 H 0.0874 0.4891 0.4518
C23 C 0.0694(4) 0.48262(13) 0.1436(4)
H30 H 0.0571 0.5083 0.1072
H31 H 0.0044 0.4724 0.1615
C24 C 0.1112(4) 0.45487(15) 0.0649(4)
H32 H 0.0632 0.4520 -0.0013
H33 H 0.1232 0.4293 0.1002
H34 H 0.1744 0.4653 0.0446
C25 C 0.3370(4) 0.70303(12) 0.0204(4)
C26 C 0.3555(4) 0.77017(13) -0.0198(4)
C27 C 0.3968(6) 0.83070(16) -0.1136(6)
H35 H 0.4628 0.8293 -0.0687
H36 H 0.4087 0.8359 -0.1906
C28 C 0.3419(7) 0.8630(2) -0.0756(8)
H37 H 0.3801 0.8872 -0.0808
H38 H 0.3309 0.8585 0.0012
H39 H 0.2772 0.8653 -0.1211
C29 C 0.2907(5) 0.77716(15) -0.2109(4)
H40 H 0.2969 0.7483 -0.2127
H41 H 0.3206 0.7878 -0.2748
C30 C 0.1822(5) 0.7879(2) -0.2210(5)
H42 H 0.1483 0.7776 -0.2901
H43 H 0.1756 0.8165 -0.2203
H44 H 0.1517 0.7768 -0.1590
C31 C 0.2232(4) 0.60791(12) 0.1006(4)
C32 C 0.1242(4) 0.61310(14) 0.0601(4)
H45 H 0.0767 0.5933 0.0704
C33 C 0.0937(4) 0.64702(16) 0.0046(5)
H46 H 0.0253 0.6503 -0.0234
C34 C 0.1614(4) 0.67622(14) -0.0106(4)
H47 H 0.1395 0.6994 -0.0493
C35 C 0.2612(4) 0.67187(12) 0.0303(4)
C36 C 0.2914(4) 0.63756(12) 0.0851(3)
H48 H 0.3599 0.6342 0.1127
N1 N 0.4201(3) 0.41528(10) 0.2810(3)
N2 N 0.4842(3) 0.41180(10) 0.1178(3)
N3 N 0.2770(3) 0.28277(11) 0.5956(3)
N4 N 0.2329(3) 0.22196(11) 0.6526(4)
N5 N 0.1895(3) 0.54579(10) 0.1782(3)
N6 N 0.1360(3) 0.48809(11) 0.2456(3)
N7 N 0.3027(3) 0.73650(10) -0.0235(3)
N8 N 0.3466(4) 0.79210(11) -0.1091(3)
O1 O 0.4674(2) 0.46242(8) 0.4135(2)
O2 O 0.3248(3) 0.28871(9) 0.4224(3)
O3 O 0.3523(2) 0.56836(8) 0.1882(2)
O4 O 0.4274(2) 0.69453(8) 0.0508(3)
S1 S 0.39125(9) 0.47903(3) 0.14852(9)
S2 S 0.42017(9) 0.22679(3) 0.60391(10)
S3 S 0.26545(9) 0.52615(3) 0.38723(9)
S4 S 0.42334(10) 0.78743(3) 0.10118(10)
Pb1 Pb 0.451958(13) 0.524312(4) 0.321046(13)
Pb2 Pb 0.568631(14) 0.734171(5) 0.113925(15)
O2A O 0.6752(3) 0.78871(9) 0.0776(3)
S2A S 0.57983(9) 0.72679(3) -0.10391(10)
Pb2A Pb 0.431369(14) 0.234171(5) 0.386075(15)
C37 C 0.9750(5) 0.6420(2) 0.2777(6)
H49 H 0.9925 0.6685 0.2943
C38 C 1.0255(5) 0.6131(2) 0.3383(6)
H50 H 1.0782 0.6195 0.3940
C39 C 0.9992(6) 0.5745(2) 0.3177(6)
H51 H 1.0325 0.5538 0.3590
C40 C 0.9237(6) 0.5671(2) 0.2358(6)
H52 H 0.9025 0.5410 0.2197
C41 C 0.8787(5) 0.5978(2) 0.1768(6)
H53 H 0.8275 0.5922 0.1187
N9 N 0.9031(4) 0.63484(18) 0.1970(5)
C42 C 0.6804(4) 0.48949(14) 0.1496(4)
H54 H 0.6443 0.5040 0.0918
C43 C 0.7610(5) 0.46812(15) 0.1255(5)
H55 H 0.7805 0.4681 0.0534
C44 C 0.8137(4) 0.44633(15) 0.2099(6)
H56 H 0.8699 0.4309 0.1971
C45 C 0.7815(4) 0.44807(16) 0.3121(5)
H57 H 0.8153 0.4339 0.3722
C46 C 0.7002(5) 0.47040(15) 0.3258(4)
H58 H 0.6786 0.4709 0.3969
N10 N 0.6493(3) 0.49125(13) 0.2488(3)
C47 C 0.0369(5) 0.32176(19) 0.4478(5)
H59 H 0.0901 0.3131 0.5002
C48 C -0.0552(6) 0.3025(2) 0.4368(6)
H60 H -0.0659 0.2802 0.4805
C49 C -0.1291(5) 0.3164(2) 0.3621(6)
H61 H -0.1935 0.3047 0.3536
C50 C -0.1084(5) 0.34759(19) 0.3000(6)
H62 H -0.1600 0.3567 0.2463
N11 N -0.0213(4) 0.36633(17) 0.3085(5)
C51 C 0.0488(4) 0.35273(16) 0.3830(5)
H63 H 0.1119 0.3656 0.3913
loop_
_geom_bond_atom_site_label_1
_geom_bond_atom_site_label_2
_geom_bond_site_symmetry_1
_geom_bond_site_symmetry_2
C1 C2 1_555 1_555
C2 H1 1_555 1_555
C3 C2 1_555 1_555
H2 C3 1_555 1_555
C4 C3 1_555 1_555
H3 C4 1_555 1_555
C5 C4 1_555 1_555
C6 C1 1_555 1_555
H4 C6 1_555 1_555
C7 C1 1_555 1_555
C8 N1 1_555 1_555
C9 H5 1_555 1_555
H6 C9 1_555 1_555
C10 C9 1_555 1_555
H7 C10 1_555 1_555
H8 C10 1_555 1_555
H9 C10 1_555 1_555
C11 H10 1_555 1_555
H11 C11 1_555 1_555
C12 C11 1_555 1_555
H12 C12 1_555 1_555
H13 C12 1_555 1_555
H14 C12 1_555 1_555
C13 C5 1_555 1_555
C14 N3 1_555 1_555
C15 H15 1_555 1_555
H16 C15 1_555 1_555
C16 C15 1_555 1_555
H17 C16 1_555 1_555
H18 C16 1_555 1_555
H19 C16 1_555 1_555
C17 H20 1_555 1_555
H21 C17 1_555 1_555
C18 C17 1_555 1_555
H22 C18 1_555 1_555
H23 C18 1_555 1_555
H24 C18 1_555 1_555
C19 C31 1_555 1_555
C20 N5 1_555 1_555
C21 H25 1_555 1_555
H26 C21 1_555 1_555
C22 C21 1_555 1_555
H27 C22 1_555 1_555
H28 C22 1_555 1_555
H29 C22 1_555 1_555
C23 H30 1_555 1_555
H31 C23 1_555 1_555
C24 C23 1_555 1_555
H32 C24 1_555 1_555
H33 C24 1_555 1_555
H34 C24 1_555 1_555
C25 C35 1_555 1_555
C26 N7 1_555 1_555
C27 H35 1_555 1_555
H36 C27 1_555 1_555
C28 C27 1_555 1_555
H37 C28 1_555 1_555
H38 C28 1_555 1_555
H39 C28 1_555 1_555
C29 H40 1_555 1_555
H41 C29 1_555 1_555
C30 C29 1_555 1_555
H42 C30 1_555 1_555
H43 C30 1_555 1_555
H44 C30 1_555 1_555
C31 C32 1_555 1_555
C32 H45 1_555 1_555
C33 C32 1_555 1_555
H46 C33 1_555 1_555
C34 C33 1_555 1_555
H47 C34 1_555 1_555
C35 C34 1_555 1_555
C36 C31 1_555 1_555
H48 C36 1_555 1_555
N1 C7 1_555 1_555
N2 C8 1_555 1_555
N3 C13 1_555 1_555
N4 C14 1_555 1_555
N5 C19 1_555 1_555
N6 C20 1_555 1_555
N7 C25 1_555 1_555
N8 C26 1_555 1_555
O1 C7 1_555 1_555
O2 C13 1_555 1_555
O3 C19 1_555 1_555
O4 C25 1_555 1_555
S1 C8 1_555 1_555
S2 C14 1_555 1_555
S3 C20 1_555 1_555
S4 C26 1_555 1_555
Pb1 O1 1_555 1_555
Pb2 O4 1_555 1_555
C37 H49 1_555 1_555
C38 C37 1_555 1_555
H50 C38 1_555 1_555
C39 C38 1_555 1_555
H51 C39 1_555 1_555
C40 C39 1_555 1_555
H52 C40 1_555 1_555
C41 C40 1_555 1_555
H53 C41 1_555 1_555
N9 C37 1_555 1_555
C42 H54 1_555 1_555
C43 C42 1_555 1_555
H55 C43 1_555 1_555
C44 C43 1_555 1_555
H56 C44 1_555 1_555
C45 C44 1_555 1_555
H57 C45 1_555 1_555
C46 C45 1_555 1_555
H58 C46 1_555 1_555
N10 C42 1_555 1_555
C47 H59 1_555 1_555
C48 C47 1_555 1_555
H60 C48 1_555 1_555
C49 C48 1_555 1_555
H61 C49 1_555 1_555
C50 C49 1_555 1_555
H62 C50 1_555 1_555
N11 C50 1_555 1_555
C51 C47 1_555 1_555
H63 C51 1_555 1_555
O2A Pb2 1_555 1_555
S2A Pb2 1_555 1_555
Pb2A O2 1_555 1_555
C5 C6 1_555 1_555
C9 N2 1_555 1_555
C11 N2 1_555 1_555
C15 N4 1_555 1_555
C17 N4 1_555 1_555
C21 N6 1_555 1_555
C23 N6 1_555 1_555
C27 N8 1_555 1_555
C29 N8 1_555 1_555
C35 C36 1_555 1_555
O3 Pb1 1_555 1_555
S1 Pb1 1_555 1_555
S2 Pb2A 1_555 1_555
S3 Pb1 1_555 1_555
S4 Pb2 1_555 1_555
C41 N9 1_555 1_555
C46 N10 1_555 1_555
N11 C51 1_555 1_555

#END
