
#######################################################################
#
#                 Cambridge Crystallographic Data Centre
#                                CCDC 
#
#######################################################################
#
# If this CIF has been generated from an entry in the Cambridge 
# Structural Database, then it will include bibliographic, chemical, 
# crystal, experimental, refinement or atomic coordinate data resulting 
# from the CCDC's data processing and validation procedures.
#
#######################################################################

data_BEWRUR
_symmetry_cell_setting           cubic
_symmetry_space_group_name_H-M   'I 41 3 2'
_symmetry_Int_Tables_number      214
_space_group_name_Hall           'I 4bd 2c 3'
loop_
_symmetry_equiv_pos_site_id
_symmetry_equiv_pos_as_xyz
1 x,y,z
2 1/2-x,-y,1/2+z
3 -x,1/2+y,1/2-z
4 1/2+x,1/2-y,-z
5 z,x,y
6 1/2+z,1/2-x,-y
7 1/2-z,-x,1/2+y
8 -z,1/2+x,1/2-y
9 y,z,x
10 -y,1/2+z,1/2-x
11 1/2+y,1/2-z,-x
12 1/2-y,-z,1/2+x
13 3/4+y,1/4+x,1/4-z
14 3/4-y,3/4-x,3/4-z
15 1/4+y,1/4-x,3/4+z
16 1/4-y,3/4+x,1/4+z
17 3/4+x,1/4+z,1/4-y
18 1/4-x,3/4+z,1/4+y
19 3/4-x,3/4-z,3/4-y
20 1/4+x,1/4-z,3/4+y
21 3/4+z,1/4+y,1/4-x
22 1/4+z,1/4-y,3/4+x
23 1/4-z,3/4+y,1/4+x
24 3/4-z,3/4-y,3/4-x
25 1/2+x,1/2+y,1/2+z
26 -x,1/2-y,z
27 1/2-x,y,-z
28 x,-y,1/2-z
29 1/2+z,1/2+x,1/2+y
30 z,-x,1/2-y
31 -z,1/2-x,y
32 1/2-z,x,-y
33 1/2+y,1/2+z,1/2+x
34 1/2-y,z,-x
35 y,-z,1/2-x
36 -y,1/2-z,x
37 1/4+y,3/4+x,3/4-z
38 1/4-y,1/4-x,1/4-z
39 3/4+y,3/4-x,1/4+z
40 3/4-y,1/4+x,3/4+z
41 1/4+x,3/4+z,3/4-y
42 3/4-x,1/4+z,3/4+y
43 1/4-x,1/4-z,1/4-y
44 3/4+x,3/4-z,1/4+y
45 1/4+z,3/4+y,3/4-x
46 3/4+z,3/4-y,1/4+x
47 3/4-z,1/4+y,3/4+x
48 1/4-z,1/4-y,1/4-x
_cell_length_a                   28.3174(4)
_cell_length_b                   28.3174(4)
_cell_length_c                   28.3174(4)
_cell_angle_alpha                90
_cell_angle_beta                 90
_cell_angle_gamma                90
_cell_volume                     22707
loop_
_atom_site_label
_atom_site_type_symbol
_atom_site_fract_x
_atom_site_fract_y
_atom_site_fract_z
Ni1 Ni 0.1250 0.899168(13) 0.149168(13)
O1 O 0.08713(7) 0.94255(7) 0.10740(7)
O2 O 0.16625(7) 0.87792(7) 0.09124(7)
H1 H 0.1523 0.9040 0.0722
O3 O 0.12952(7) 0.94600(7) 0.04125(7)
C1 C 0.09733(10) 0.96000(9) 0.06814(9)
C2 C 0.02820(9) 1.01435(8) 0.08037(8)
H2 H 0.0195 0.9961 0.1071
N1 N 0.07683(10) 0.91578(8) 0.20256(9)
C3 C 0.06772(9) 1.00170(9) 0.05363(9)
C4 C 0.03074(13) 0.92207(11) 0.19254(11)
H3 H 0.0209 0.9181 0.1607
C5 C -0.00333(14) 0.93397(10) 0.22594(13)
C6 C 0.01158(18) 0.93960(12) 0.27151(14)
H4 H -0.0105 0.9478 0.2954
C7 C 0.09059(16) 0.92075(13) 0.24720(12)
H5 H 0.1227 0.9157 0.2554
C8 C 0.0576(2) 0.93361(14) 0.28280(13)
H6 H 0.0679 0.9380 0.3144
C9 C -0.05463(16) 0.94052(15) 0.21101(16)
H7 H -0.0750 0.9391 0.2389
H8 H -0.0635 0.9154 0.1889
H9 H -0.0583 0.9713 0.1956
C10 C 0.15141(14) 0.83197(13) 0.07590(13)
H10 H 0.1678 0.8077 0.0956
C11 C 0.1713(4) 0.8292(3) 0.0245(3)
H11 H 0.1604 0.8566 0.0064
H12 H 0.1600 0.8002 0.0094
H13 H 0.2059 0.8290 0.0255
O1Q O 0.16287(7) 0.85740(7) 0.19255(7)
O2Q O 0.08375(7) 0.84124(7) 0.12792(7)
N1Q N 0.17317(10) 0.95256(9) 0.16578(8)
C3H C 0.00170(9) 1.05363(9) 0.06772(9)
C2D C 0.08037(8) 1.02820(9) 0.01435(8)
C10Q C 0.09859(14) 0.82590(13) 0.08197(13)
loop_
_geom_bond_atom_site_label_1
_geom_bond_atom_site_label_2
_geom_bond_site_symmetry_1
_geom_bond_site_symmetry_2
Ni1 O1 1_555 1_555
O1 C1 1_555 1_555
O2 Ni1 1_555 1_555
H1 O2 1_555 1_555
O3 C1 1_555 1_555
C1 C3 1_555 1_555
C2 H2 1_555 1_555
N1 Ni1 1_555 1_555
C3 C2 1_555 1_555
C4 N1 1_555 1_555
H3 C4 1_555 1_555
C5 C4 1_555 1_555
C6 C5 1_555 1_555
H4 C6 1_555 1_555
C7 N1 1_555 1_555
H5 C7 1_555 1_555
C8 C6 1_555 1_555
H6 C8 1_555 1_555
C9 C5 1_555 1_555
H7 C9 1_555 1_555
H8 C9 1_555 1_555
H9 C9 1_555 1_555
C10 O2 1_555 1_555
H10 C10 1_555 1_555
C11 C10 1_555 1_555
H11 C11 1_555 1_555
H12 C11 1_555 1_555
H13 C11 1_555 1_555
O1Q Ni1 1_555 1_555
O2Q Ni1 1_555 1_555
N1Q Ni1 1_555 1_555
C3H C2 1_555 1_555
C2D C3 1_555 1_555
C10Q C10 1_555 1_555
C7 C8 1_555 1_555
O2Q C10Q 1_555 1_555

#END
