
#######################################################################
#
#                 Cambridge Crystallographic Data Centre
#                                CCDC 
#
#######################################################################
#
# If this CIF has been generated from an entry in the Cambridge 
# Structural Database, then it will include bibliographic, chemical, 
# crystal, experimental, refinement or atomic coordinate data resulting 
# from the CCDC's data processing and validation procedures.
#
#######################################################################

data_BEWSAY
_symmetry_cell_setting           cubic
_symmetry_space_group_name_H-M   'I 41 3 2'
_symmetry_Int_Tables_number      214
_space_group_name_Hall           'I 4bd 2c 3'
loop_
_symmetry_equiv_pos_site_id
_symmetry_equiv_pos_as_xyz
1 x,y,z
2 1/2-x,-y,1/2+z
3 -x,1/2+y,1/2-z
4 1/2+x,1/2-y,-z
5 z,x,y
6 1/2+z,1/2-x,-y
7 1/2-z,-x,1/2+y
8 -z,1/2+x,1/2-y
9 y,z,x
10 -y,1/2+z,1/2-x
11 1/2+y,1/2-z,-x
12 1/2-y,-z,1/2+x
13 3/4+y,1/4+x,1/4-z
14 3/4-y,3/4-x,3/4-z
15 1/4+y,1/4-x,3/4+z
16 1/4-y,3/4+x,1/4+z
17 3/4+x,1/4+z,1/4-y
18 1/4-x,3/4+z,1/4+y
19 3/4-x,3/4-z,3/4-y
20 1/4+x,1/4-z,3/4+y
21 3/4+z,1/4+y,1/4-x
22 1/4+z,1/4-y,3/4+x
23 1/4-z,3/4+y,1/4+x
24 3/4-z,3/4-y,3/4-x
25 1/2+x,1/2+y,1/2+z
26 -x,1/2-y,z
27 1/2-x,y,-z
28 x,-y,1/2-z
29 1/2+z,1/2+x,1/2+y
30 z,-x,1/2-y
31 -z,1/2-x,y
32 1/2-z,x,-y
33 1/2+y,1/2+z,1/2+x
34 1/2-y,z,-x
35 y,-z,1/2-x
36 -y,1/2-z,x
37 1/4+y,3/4+x,3/4-z
38 1/4-y,1/4-x,1/4-z
39 3/4+y,3/4-x,1/4+z
40 3/4-y,1/4+x,3/4+z
41 1/4+x,3/4+z,3/4-y
42 3/4-x,1/4+z,3/4+y
43 1/4-x,1/4-z,1/4-y
44 3/4+x,3/4-z,1/4+y
45 1/4+z,3/4+y,3/4-x
46 3/4+z,3/4-y,1/4+x
47 3/4-z,1/4+y,3/4+x
48 1/4-z,1/4-y,1/4-x
_cell_length_a                   28.1350(4)
_cell_length_b                   28.1350(4)
_cell_length_c                   28.1350(4)
_cell_angle_alpha                90
_cell_angle_beta                 90
_cell_angle_gamma                90
_cell_volume                     22271.1
loop_
_atom_site_label
_atom_site_type_symbol
_atom_site_fract_x
_atom_site_fract_y
_atom_site_fract_z
Ni1 Ni 0.1250 0.89718(2) 0.14718(2)
O1 O 0.08597(13) 0.94026(13) 0.10512(12)
O2 O 0.08401(13) 0.83889(12) 0.12581(13)
H1 H 0.0981 0.8198 0.1523
C1 C 0.09678(15) 0.95819(15) 0.06605(16)
O3 O 0.12917(13) 0.94501(12) 0.03910(12)
C2 C 0.07892(15) 1.02728(15) 0.01261(14)
H2 H 0.1056 1.0187 -0.0062
N1 N 0.07685(17) 0.91417(15) 0.20088(15)
C3 C 0.06685(14) 1.00060(15) 0.05181(16)
C4 C 0.0975(2) 0.8233(2) 0.0793(2)
H3 H 0.0811 0.8439 0.0553
C5 C -0.0026(2) 0.93376(18) 0.2254(2)
C6 C 0.0592(3) 0.9333(2) 0.2812(2)
H4 H 0.0700 0.9382 0.3128
C7 C 0.0308(2) 0.92129(18) 0.19147(18)
H5 H 0.0204 0.9176 0.1596
C8 C 0.0127(3) 0.93964(19) 0.2711(2)
H6 H -0.0091 0.9481 0.2955
C9 C 0.0912(3) 0.9199(2) 0.24706(19)
H7 H 0.1235 0.9146 0.2554
C10 C -0.0538(3) 0.9406(2) 0.2119(3)
H8 H -0.0559 0.9626 0.1849
H9 H -0.0713 0.9539 0.2389
H10 H -0.0677 0.9100 0.2030
C11 C 0.0805(4) 0.7714(4) 0.0725(4)
H11 H 0.0458 0.7701 0.0752
H12 H 0.0949 0.7512 0.0970
H13 H 0.0902 0.7601 0.0410
O1Q O 0.16403(13) 0.85512(12) 0.19026(13)
O2Q O 0.16599(13) 0.87581(13) 0.08889(12)
N1Q N 0.17315(17) 0.95088(15) 0.16417(15)
C3D C 0.05181(16) 1.06685(14) 0.00060(15)
C2H C 0.02728(15) 1.01261(14) 0.07892(15)
C4Q C 0.1525(2) 0.8293(2) 0.0733(2)
loop_
_geom_bond_atom_site_label_1
_geom_bond_atom_site_label_2
_geom_bond_site_symmetry_1
_geom_bond_site_symmetry_2
Ni1 O1 1_555 1_555
O1 C1 1_555 1_555
O2 Ni1 1_555 1_555
H1 O2 1_555 1_555
C1 O3 1_555 1_555
C2 H2 1_555 1_555
N1 Ni1 1_555 1_555
C3 C1 1_555 1_555
C4 O2 1_555 1_555
H3 C4 1_555 1_555
C5 C7 1_555 1_555
C6 H4 1_555 1_555
C7 N1 1_555 1_555
H5 C7 1_555 1_555
C8 C5 1_555 1_555
H6 C8 1_555 1_555
C9 N1 1_555 1_555
H7 C9 1_555 1_555
C10 C5 1_555 1_555
H8 C10 1_555 1_555
H9 C10 1_555 1_555
H10 C10 1_555 1_555
C11 C4 1_555 1_555
H11 C11 1_555 1_555
H12 C11 1_555 1_555
H13 C11 1_555 1_555
O1Q Ni1 1_555 1_555
O2Q Ni1 1_555 1_555
N1Q Ni1 1_555 1_555
C3D C2 1_555 1_555
C2H C3 1_555 1_555
C4Q C4 1_555 1_555
C2 C3 1_555 1_555
C6 C8 1_555 1_555
C6 C9 1_555 1_555
O2Q C4Q 1_555 1_555

#END
