
#######################################################################
#
#                 Cambridge Crystallographic Data Centre
#                                CCDC 
#
#######################################################################
#
# If this CIF has been generated from an entry in the Cambridge 
# Structural Database, then it will include bibliographic, chemical, 
# crystal, experimental, refinement or atomic coordinate data resulting 
# from the CCDC's data processing and validation procedures.
#
#######################################################################

data_BEWVEG
_symmetry_cell_setting           triclinic
_symmetry_space_group_name_H-M   'P 1'
_symmetry_Int_Tables_number      1
_space_group_name_Hall           'P 1'
loop_
_symmetry_equiv_pos_site_id
_symmetry_equiv_pos_as_xyz
1 x,y,z
_cell_length_a                   15.2780(8)
_cell_length_b                   15.5600(7)
_cell_length_c                   18.1740(10)
_cell_angle_alpha                64.665(5)
_cell_angle_beta                 78.123(5)
_cell_angle_gamma                61.048(5)
_cell_volume                     3416.88
loop_
_atom_site_label
_atom_site_type_symbol
_atom_site_fract_x
_atom_site_fract_y
_atom_site_fract_z
C1 C 0.0373(5) 0.3199(5) 0.4281(4)
C2 C -0.0543(5) 0.3316(6) 0.4851(5)
C3 C 0.1099(5) 0.3091(5) 0.6693(4)
C4 C 0.1007(5) 0.2075(5) 0.7324(4)
C5 C 0.2810(5) 0.3340(5) 0.8366(4)
C6 C 0.1907(6) 0.4443(6) 0.8281(5)
C7 C 0.4271(5) 0.3426(5) 0.9981(5)
C8 C 0.5203(5) 0.3224(5) 0.9414(4)
C9 C -0.4005(6) 1.0216(6) 0.2560(5)
C10 C -0.4070(5) 0.9886(6) 0.1899(5)
C11 C -0.2204(6) 0.6610(6) 0.3177(5)
C12 C -0.3067(5) 0.6311(5) 0.3281(5)
C13 C 0.0360(5) 0.2732(6) 0.9924(4)
C14 C -0.0604(5) 0.3504(5) 0.9350(5)
C15 C 0.3634(5) -0.3547(5) 0.7578(5)
C16 C 0.3708(5) -0.3990(5) 0.6949(4)
C17 C 0.5413(5) -0.2196(5) 0.4940(5)
C18 C 0.4483(5) -0.1505(5) 0.4374(5)
C19 C 0.2810(5) 0.0178(6) 0.5968(4)
C20 C 0.1932(5) -0.0015(6) 0.5909(4)
C21 C -0.2184(6) 0.1985(6) 0.1006(4)
C22 C -0.3044(6) 0.3063(5) 0.1053(4)
C23 C -0.1177(5) 0.3259(5) 0.2349(4)
C24 C -0.1252(5) 0.4328(5) 0.1672(4)
O1 O -0.1367(4) 0.3861(4) 0.4515(3)
O2 O -0.0349(4) 0.2858(4) 0.5599(3)
O3 O 0.0259(3) 0.3662(4) 0.3530(3)
O4 O 0.1218(4) 0.2622(4) 0.4623(3)
O5 O 0.0923(4) 0.1525(4) 0.7019(3)
O6 O 0.0997(4) 0.1910(4) 0.8059(3)
O7 O 0.1170(4) 0.3188(4) 0.5951(3)
O8 O 0.1101(4) 0.3698(4) 0.6943(3)
O9 O 0.1053(4) 0.4566(5) 0.8216(4)
O10 O 0.2122(4) 0.5115(4) 0.8304(4)
O11 O 0.2647(4) 0.2655(4) 0.8341(3)
O12 O 0.3648(4) 0.3247(4) 0.8453(3)
O13 O 0.5034(4) 0.3777(4) 0.8668(3)
O14 O 0.6030(4) 0.2561(4) 0.9723(3)
O15 O 0.3463(4) 0.4061(4) 0.9626(3)
O16 O 0.4401(4) 0.2936(4) 1.0731(3)
O17 O -0.4063(5) 1.1116(4) 0.2345(3)
O18 O -0.3904(4) 0.9543(4) 0.3281(3)
O19 O -0.4098(5) 1.0463(4) 0.1183(3)
O20 O -0.4102(4) 0.8984(4) 0.2179(3)
O21 O -0.2442(4) 0.7489(4) 0.3211(4)
O22 O -0.1341(4) 0.5969(4) 0.3065(4)
O23 O -0.3921(4) 0.6985(4) 0.3353(4)
O24 O -0.2862(4) 0.5448(4) 0.3251(4)
O25 O 0.1164(4) 0.2392(4) 0.9596(3)
O26 O 0.0169(4) 0.2566(4) 1.0657(3)
O27 O -0.0475(4) 0.3759(4) 0.8611(3)
O28 O -0.1419(4) 0.3813(4) 0.9708(3)
O29 O 0.3736(4) -0.4888(4) 0.7213(3)
O30 O 0.3752(4) -0.3453(4) 0.6204(3)
O31 O 0.3542(4) -0.4110(4) 0.8301(3)
O32 O 0.3706(4) -0.2690(4) 0.7312(4)
O33 O 0.5293(4) -0.2492(4) 0.5675(3)
O34 O 0.6220(4) -0.2378(4) 0.4566(3)
O35 O 0.3655(4) -0.1328(4) 0.4693(4)
O36 O 0.4644(4) -0.1174(4) 0.3617(3)
O37 O 0.3662(4) -0.0531(4) 0.6022(3)
O38 O 0.2553(4) 0.1102(4) 0.5947(3)
O39 O 0.2122(4) -0.0892(4) 0.5948(3)
O40 O 0.1085(4) 0.0756(4) 0.5818(3)
O41 O -0.3914(4) 0.3199(4) 0.1120(3)
O42 O -0.2727(4) 0.3697(4) 0.1038(3)
O43 O -0.2438(4) 0.1329(4) 0.1031(4)
O44 O -0.1322(4) 0.1897(4) 0.0956(3)
O45 O -0.1080(4) 0.2572(4) 0.2087(3)
O46 O -0.1188(4) 0.3138(4) 0.3067(3)
O47 O -0.1305(4) 0.4433(4) 0.0947(3)
O48 O -0.1264(4) 0.4991(4) 0.1881(3)
Cr1 Cr 0.10878(9) 0.20180(9) 0.58341(7)
Cr2 Cr 0.35800(8) 0.45646(8) 0.84223(7)
Cr3 Cr -0.39133(9) 0.82575(9) 0.33630(8)
Cr4 Cr -0.12731(9) 0.31633(9) 0.09054(7)
Mn1 Mn 0.10839(8) 0.31148(9) 0.82705(7)
Mn2 Mn -0.40366(10) 1.19035(9) 0.10426(7)
Mn3 Mn -0.12867(8) 0.44831(8) 0.31924(7)
Mn4 Mn 0.37347(9) -0.19626(9) 0.60208(8)
O14_2 O -0.3970(4) 1.2561(4) -0.0277(3)
O16_2 O -0.5599(4) 1.2936(4) 0.0731(3)
O26_2 O 0.0169(4) 0.2566(4) 0.0657(3)
O28_2 O -0.1419(4) 0.3813(4) -0.0292(3)
O29_2 O 0.3736(4) 0.5112(4) 0.7213(3)
O31_2 O 0.3542(4) 0.5890(4) 0.8301(3)
O34_2 O -0.3780(4) 0.7622(4) 0.4566(3)
O36_2 O -0.5356(4) 0.8826(4) 0.3617(3)
O41_2 O -0.3914(4) 1.3199(4) 0.1120(3)
O43_2 O -0.2438(4) 1.1329(4) 0.1031(4)
Cr2_2 Cr 0.35800(8) -0.54354(8) 0.84223(7)
Cr3_2 Cr 0.60867(9) -0.17425(9) 0.33630(8)
Cr4_2 Cr -0.12731(9) 0.31633(9) 1.09054(7)
Mn2_2 Mn -0.40366(10) 0.19035(9) 0.10426(7)
Mn2_3 Mn 0.59634(10) 0.19035(9) 1.10426(7)
C25 C 0.3580(7) 0.8563(7) 0.9540(6)
C26 C 0.3647(10) 0.8197(9) 0.8951(8)
H1 H 0.3674 0.7517 0.9116
C27 C 0.3674(11) 0.8754(9) 0.8169(8)
H2 H 0.3747 0.8454 0.7789
C28 C 0.3599(8) 0.9767(9) 0.7885(7)
H3 H 0.3600 1.0173 0.7319
C29 C 0.3525(6) 1.0156(6) 0.8447(6)
H4 H 0.3460 1.0855 0.8264
C30 C 0.3540(6) 0.9577(6) 0.9275(5)
C31 C 0.3541(5) 1.0004(5) 0.9829(5)
H5 H 0.3522 1.0689 0.9585
C32 C 0.3733(7) 1.0028(6) 1.1106(5)
H6 H 0.4465 0.9660 1.1224
C33 C 0.3414(6) 1.1219(6) 1.0699(5)
H7 H 0.3785 1.1371 1.0190
H8 H 0.3556 1.1453 1.1064
H9 H 0.2695 1.1600 1.0582
C34 C 0.3200(8) 0.9721(7) 1.1898(6)
H10 H 0.3410 0.9840 1.2313
H11 H 0.2468 1.0154 1.1822
C35 C 0.3534(2) 0.7998(2) 1.2932(2)
H12 H 0.3460 0.8309 1.3305
C36 C 0.3711(2) 0.6886(2) 1.3267(2)
C37 C 0.3827(2) 0.6362(2) 1.4107(2)
H13 H 0.3844 0.6706 1.4424
C38 C 0.3918(2) 0.5334(2) 1.4483(2)
H14 H 0.3998 0.4975 1.5057
C39 C 0.3894(2) 0.4830(2) 1.4019(2)
H15 H 0.3956 0.4128 1.4276
C40 C 0.3778(2) 0.5355(2) 1.3179(2)
H16 H 0.3761 0.5011 1.2862
C41 C 0.3686(2) 0.6383(2) 1.2803(2)
N1 N 0.3565(5) 0.9596(4) 1.0607(4)
N2 N 0.3472(6) 0.8584(6) 1.2163(4)
O49 O 0.3635(7) 0.7927(5) 1.0328(5)
O50 O 0.3567(4) 0.6864(4) 1.1986(4)
Mn5 Mn 0.35410(9) 0.81883(8) 1.12560(8)
C42 C 0.1080(8) 0.9782(9) 1.0953(11)
H17 H 0.0466 0.9711 1.1173
H18 H 0.1104 0.9972 1.0364
H19 H 0.1087 1.0341 1.1066
O51 O 0.5220(7) 0.7377(8) 1.1033(6)
C43 C 0.5938(16) 0.6821(17) 1.1641(13)
H20 H 0.6605 0.6539 1.1408
H21 H 0.5823 0.6232 1.2065
H22 H 0.5891 0.7301 1.1878
O52 O 0.1876(4) 0.8858(5) 1.1304(5)
C44 C 0.1110(2) 0.8033(2) 0.9721(2)
C45 C 0.1063(2) 0.8960(2) 0.9102(2)
H23 H 0.0995 0.9501 0.9256
C46 C 0.1106(2) 0.9179(2) 0.8268(2)
H24 H 0.1072 0.9841 0.7880
C47 C 0.1200(2) 0.8417(2) 0.8022(2)
H25 H 0.1255 0.8546 0.7458
C48 C 0.1216(2) 0.7498(2) 0.8564(2)
H26 H 0.1257 0.6989 0.8383
C49 C 0.1173(2) 0.7288(2) 0.9390(2)
C50 C 0.1167(6) 0.6293(6) 0.9925(6)
H27 H 0.1161 0.5866 0.9679
C51 C 0.1058(6) 0.4948(6) 1.1234(6)
H28 H 0.0345 0.5178 1.1416
C52 C 0.1272(7) 0.4210(7) 1.0788(7)
H29 H 0.0823 0.4604 1.0318
H30 H 0.1159 0.3596 1.1162
H31 H 0.1968 0.3965 1.0602
C53 C 0.1680(8) 0.4446(7) 1.1969(6)
H32 H 0.1526 0.3877 1.2397
H33 H 0.2399 0.4128 1.1832
C54 C 0.1433(2) 0.5068(2) 1.3009(2)
H34 H 0.1557 0.4364 1.3372
C55 C 0.1238(2) 0.5812(2) 1.3389(2)
C56 C 0.1114(2) 0.5498(2) 1.4228(2)
H35 H 0.1130 0.4822 1.4546
C57 C 0.0968(2) 0.6172(2) 1.4601(2)
H36 H 0.0884 0.5958 1.5174
C58 C 0.0946(2) 0.7162(2) 1.4135(2)
H37 H 0.0846 0.7623 1.4390
C59 C 0.1069(2) 0.7476(2) 1.3296(2)
H38 H 0.1054 0.8152 1.2978
C60 C 0.1215(2) 0.6801(2) 1.2923(2)
N3 N 0.1170(5) 0.5930(5) 1.0705(5)
N4 N 0.1456(5) 0.5254(6) 1.2252(5)
O53 O 0.1010(5) 0.7879(4) 1.0471(4)
O54 O 0.1284(4) 0.7183(4) 1.2110(4)
Mn6 Mn 0.12436(9) 0.66368(9) 1.13652(8)
C61 C -0.1115(9) 0.8245(10) 1.1474(7)
H39 H -0.1788 0.8312 1.1647
H40 H -0.1112 0.8639 1.0885
H41 H -0.0915 0.8536 1.1758
C62 C 0.3626(8) 0.5561(9) 1.0789(9)
H42 H 0.4269 0.5428 1.0949
H43 H 0.3496 0.6035 1.0214
H44 H 0.3648 0.4886 1.0871
O55 O -0.0446(4) 0.7180(5) 1.1662(4)
O56 O 0.2903(4) 0.6014(5) 1.1240(5)
C63 C 0.8523(2) 0.9365(2) 0.4743(2)
C64 C 0.8696(2) 1.0244(2) 0.4181(2)
H45 H 0.8803 1.0671 0.4367
C65 C 0.8705(2) 1.0464(2) 0.3353(2)
H46 H 0.8783 1.1073 0.2974
C66 C 0.8604(2) 0.9828(2) 0.3061(2)
H47 H 0.8626 0.9989 0.2493
C67 C 0.8476(2) 0.8990(2) 0.3591(2)
H48 H 0.8411 0.8548 0.3393
C68 C 0.8435(2) 0.8740(2) 0.4413(2)
C69 C 0.8287(6) 0.7822(6) 0.4948(6)
H49 H 0.8156 0.7480 0.4688
C70 C 0.8151(7) 0.6443(6) 0.6205(6)
H50 H 0.7432 0.6672 0.6371
C71 C 0.8414(8) 0.5722(7) 0.5746(8)
H51 H 0.7992 0.6117 0.5260
H52 H 0.8301 0.5102 0.6100
H53 H 0.9119 0.5486 0.5583
C72 C 0.8767(8) 0.5877(7) 0.6938(6)
H54 H 0.9478 0.5500 0.6804
H55 H 0.8557 0.5344 0.7352
C73 C 0.8618(3) 0.6412(3) 0.8031(2)
H56 H 0.8607 0.5755 0.8376
C74 C 0.8604(3) 0.7050(3) 0.8410(2)
C75 C 0.8662(3) 0.6630(3) 0.9293(2)
H57 H 0.8707 0.5937 0.9586
C76 C 0.8657(3) 0.7150(3) 0.9720(2)
H58 H 0.8657 0.6859 1.0298
C77 C 0.8651(3) 0.8159(3) 0.9271(2)
H59 H 0.8674 0.8530 0.9562
C78 C 0.8613(3) 0.8631(3) 0.8415(2)
H60 H 0.8604 0.9310 0.8136
C79 C 0.8587(3) 0.8074(3) 0.7974(2)
N5 N 0.8306(5) 0.7403(4) 0.5729(4)
N6 N 0.8646(6) 0.6651(5) 0.7262(5)
O57 O 0.8465(5) 0.9213(5) 0.5509(4)
O58 O 0.8570(4) 0.8521(4) 0.7177(3)
Mn7 Mn 0.84783(9) 0.80344(8) 0.64113(8)
O59 O 1.0157(6) 0.7433(6) 0.6079(5)
C80 C 1.0961(13) 0.6700(14) 0.6602(11)
H61 H 1.1585 0.6596 0.6292
H62 H 1.0924 0.6022 0.6873
H63 H 1.0944 0.6962 0.7010
C81 C 0.6039(6) 0.9168(8) 0.6069(8)
H64 H 0.5391 0.9528 0.6298
H65 H 0.6087 0.8528 0.6048
H66 H 0.6103 0.9648 0.5518
O60 O 0.6818(4) 0.8878(4) 0.6566(4)
C82 C 0.6376(5) 0.2022(6) 0.4676(5)
C83 C 0.6227(7) 0.1729(7) 0.4101(5)
H67 H 0.6173 0.1086 0.4282
C84 C 0.6156(8) 0.2341(8) 0.3287(6)
H68 H 0.6062 0.2105 0.2919
C85 C 0.6216(7) 0.3303(8) 0.2978(6)
H69 H 0.6153 0.3729 0.2411
C86 C 0.6370(6) 0.3608(7) 0.3532(5)
H70 H 0.6426 0.4251 0.3339
C87 C 0.6447(6) 0.2993(7) 0.4374(5)
C88 C 0.6537(5) 0.3409(5) 0.4893(4)
H71 H 0.6604 0.4050 0.4639
C89 C 0.6678(6) 0.3493(6) 0.6175(5)
H72 H 0.7385 0.3077 0.6375
C90 C 0.6456(7) 0.4660(6) 0.5714(5)
H73 H 0.6906 0.4727 0.5245
H74 H 0.6558 0.4923 0.6076
H75 H 0.5760 0.5079 0.5523
C91 C 0.6007(6) 0.3357(6) 0.6882(5)
H76 H 0.6178 0.3489 0.7307
H77 H 0.5304 0.3871 0.6713
C92 C 0.6078(2) 0.1757(3) 0.7974(2)
H78 H 0.6024 0.2098 0.8319
C93 C 0.6096(2) 0.0733(3) 0.8357(2)
C94 C 0.6037(2) 0.0293(3) 0.9229(2)
H79 H 0.5987 0.0694 0.9523
C95 C 0.6052(2) -0.0679(3) 0.9651(2)
H80 H 0.6058 -0.0973 1.0229
C96 C 0.6058(2) -0.1232(3) 0.9209(2)
H81 H 0.6015 -0.1885 0.9493
C97 C 0.6124(2) -0.0846(3) 0.8364(2)
H82 H 0.6169 -0.1257 0.8081
C98 C 0.6126(2) 0.0146(3) 0.7928(2)
N7 N 0.6537(4) 0.3006(5) 0.5679(4)
N8 N 0.6129(5) 0.2259(5) 0.7203(4)
O61 O 0.6455(4) 0.1391(4) 0.5450(3)
O62 O 0.6197(4) 0.0482(4) 0.7113(3)
Mn8 Mn 0.63261(8) 0.17252(8) 0.63482(7)
C99 C 0.3883(10) 0.2837(11) 0.6605(8)
H83 H 0.3244 0.3260 0.6313
H84 H 0.3941 0.3227 0.6881
H85 H 0.3911 0.2158 0.7009
C100 C 0.8804(7) 0.0860(8) 0.6164(8)
H86 H 0.9432 0.0273 0.6438
H87 H 0.8749 0.1532 0.6126
H88 H 0.8798 0.0888 0.5616
O63 O 0.4663(4) 0.2646(4) 0.6057(3)
O64 O 0.7981(4) 0.0694(4) 0.6618(3)
C101 C 0.2416(12) 0.1286(13) 0.3360(10)
H89 H 0.2713 0.0512 0.3691
H90 H 0.2135 0.1664 0.3737
Cl1 Cl 0.1458(3) 0.1620(3) 0.2763(3)
Cl2 Cl 0.3403(3) 0.1632(3) 0.2735(3)
C102 C 0.6698(19) 0.467(2) 0.8541(10)
H91 H 0.7353 0.4594 0.8629
H92 H 0.6772 0.3950 0.8666
Cl3 Cl 0.5779(8) 0.5243(7) 0.9200(5)
Cl4 Cl 0.6337(3) 0.5452(4) 0.7563(2)
C103 C 0.881(3) 0.160(3) 0.832(3)
H93 H 0.9181 0.1215 0.7957
H94 H 0.9328 0.1475 0.8659
Cl5 Cl 0.8322(4) 0.3070(5) 0.7620(3)
Cl6 Cl 0.8294(6) 0.1035(9) 0.8865(11)
O65 O 0.0903(9) 0.8852(10) 0.5203(8)
C104 C 0.1133(19) 0.932(2) 0.4388(16)
O66 O 0.3890(7) 0.2034(8) 0.5240(6)
C105 C 0.3794(16) 0.2169(17) 0.4440(13)
O67 O 0.5909(12) 0.5978(12) 1.0329(9)
C106? C 0.609(2) 0.610(2) 0.9474(13)
O68? O 0.5228(9) 0.7403(10) 1.1586(7)
C107? C 0.5896(17) 0.6490(18) 1.1388(14)
H95? H 0.6577 0.6233 1.1557
H96? H 0.5883 0.6689 1.0800
H97? H 0.5684 0.5926 1.1674
O69? O 1.0158(13) 0.6946(14) 0.6626(10)
C108? C 1.086(2) 0.750(2) 0.6409(17)
H98? H 1.1559 0.6960 0.6529
H99? H 1.0671 0.7934 0.6733
H100? H 1.0797 0.7961 0.5828
O70? O 0.1401(17) 0.9527(18) 0.3625(14)
loop_
_geom_bond_atom_site_label_1
_geom_bond_atom_site_label_2
_geom_bond_site_symmetry_1
_geom_bond_site_symmetry_2
C1 C2 1_555 1_555
C2 O1 1_555 1_555
C3 C4 1_555 1_555
C4 O5 1_555 1_555
C5 C6 1_555 1_555
C6 O9 1_555 1_555
C7 C8 1_555 1_555
C8 O13 1_555 1_555
C9 C10 1_555 1_555
C10 O19 1_555 1_555
C11 C12 1_555 1_555
C12 O23 1_555 1_555
C13 C14 1_555 1_555
C14 O27 1_555 1_555
C15 C16 1_555 1_555
C16 O29 1_555 1_555
C17 C18 1_555 1_555
C18 O35 1_555 1_555
C19 C20 1_555 1_555
C20 O39 1_555 1_555
C21 C22 1_555 1_555
C22 O41 1_555 1_555
C23 C24 1_555 1_555
C24 O47 1_555 1_555
O1 Mn3 1_555 1_555
O2 C2 1_555 1_555
O3 C1 1_555 1_555
O4 C1 1_555 1_555
O5 Cr1 1_555 1_555
O6 C4 1_555 1_555
O7 C3 1_555 1_555
O8 C3 1_555 1_555
O9 Mn1 1_555 1_555
O10 C6 1_555 1_555
O11 C5 1_555 1_555
O12 C5 1_555 1_555
O13 Cr2 1_555 1_555
O14 C8 1_555 1_555
O15 C7 1_555 1_555
O16 C7 1_555 1_555
O17 C9 1_555 1_555
O18 C9 1_555 1_555
O19 Mn2 1_555 1_555
O20 C10 1_555 1_555
O21 C11 1_555 1_555
O22 C11 1_555 1_555
O23 Cr3 1_555 1_555
O24 C12 1_555 1_555
O25 C13 1_555 1_555
O26 C13 1_555 1_555
O27 Mn1 1_555 1_555
O28 C14 1_555 1_555
O29 Cr2_2 1_555 1_555
O30 C16 1_555 1_555
O31 C15 1_555 1_555
O32 C15 1_555 1_555
O33 C17 1_555 1_555
O34 C17 1_555 1_555
O35 Mn4 1_555 1_555
O36 C18 1_555 1_555
O37 C19 1_555 1_555
O38 C19 1_555 1_555
O39 Mn4 1_555 1_555
O40 C20 1_555 1_555
O41 Mn2_2 1_555 1_555
O42 C22 1_555 1_555
O43 C21 1_555 1_555
O44 C21 1_555 1_555
O45 C23 1_555 1_555
O46 C23 1_555 1_555
O47 Cr4 1_555 1_555
O48 C24 1_555 1_555
Cr1 O2 1_555 1_555
Cr2 O10 1_555 1_555
Cr3 O18 1_555 1_555
Cr4 O42 1_555 1_555
Mn1 O6 1_555 1_555
Mn2 O17 1_555 1_555
Mn3 O3 1_555 1_555
Mn4 O30 1_555 1_555
C25 C26 1_555 1_555
C26 H1 1_555 1_555
C27 C26 1_555 1_555
H2 C27 1_555 1_555
C28 C27 1_555 1_555
H3 C28 1_555 1_555
C29 C28 1_555 1_555
H4 C29 1_555 1_555
C30 C25 1_555 1_555
C31 C30 1_555 1_555
H5 C31 1_555 1_555
C32 H6 1_555 1_555
C33 C32 1_555 1_555
H7 C33 1_555 1_555
H8 C33 1_555 1_555
H9 C33 1_555 1_555
C34 C32 1_555 1_555
H10 C34 1_555 1_555
H11 C34 1_555 1_555
C35 H12 1_555 1_555
C36 C35 1_555 1_555
C37 C36 1_555 1_555
H13 C37 1_555 1_555
C38 C37 1_555 1_555
H14 C38 1_555 1_555
C39 C38 1_555 1_555
H15 C39 1_555 1_555
C40 C39 1_555 1_555
H16 C40 1_555 1_555
C41 C36 1_555 1_555
N1 C31 1_555 1_555
N2 C34 1_555 1_555
O49 C25 1_555 1_555
O50 C41 1_555 1_555
Mn5 N1 1_555 1_555
C42 H17 1_555 1_555
H18 C42 1_555 1_555
H19 C42 1_555 1_555
O51 Mn5 1_555 1_555
C43 O51 1_555 1_555
H20 C43 1_555 1_555
H21 C43 1_555 1_555
H22 C43 1_555 1_555
O52 Mn5 1_555 1_555
C44 C45 1_555 1_555
C45 H23 1_555 1_555
C46 C45 1_555 1_555
H24 C46 1_555 1_555
C47 C46 1_555 1_555
H25 C47 1_555 1_555
C48 C47 1_555 1_555
H26 C48 1_555 1_555
C49 C44 1_555 1_555
C50 C49 1_555 1_555
H27 C50 1_555 1_555
C51 H28 1_555 1_555
C52 C51 1_555 1_555
H29 C52 1_555 1_555
H30 C52 1_555 1_555
H31 C52 1_555 1_555
C53 C51 1_555 1_555
H32 C53 1_555 1_555
H33 C53 1_555 1_555
C54 H34 1_555 1_555
C55 C54 1_555 1_555
C56 C55 1_555 1_555
H35 C56 1_555 1_555
C57 C56 1_555 1_555
H36 C57 1_555 1_555
C58 C57 1_555 1_555
H37 C58 1_555 1_555
C59 C58 1_555 1_555
H38 C59 1_555 1_555
C60 C55 1_555 1_555
N3 C50 1_555 1_555
N4 C53 1_555 1_555
O53 C44 1_555 1_555
O54 C60 1_555 1_555
Mn6 N3 1_555 1_555
C61 H39 1_555 1_555
H40 C61 1_555 1_555
H41 C61 1_555 1_555
C62 H42 1_555 1_555
H43 C62 1_555 1_555
H44 C62 1_555 1_555
O55 Mn6 1_555 1_555
O56 Mn6 1_555 1_555
C63 C64 1_555 1_555
C64 H45 1_555 1_555
C65 C64 1_555 1_555
H46 C65 1_555 1_555
C66 C65 1_555 1_555
H47 C66 1_555 1_555
C67 C66 1_555 1_555
H48 C67 1_555 1_555
C68 C63 1_555 1_555
C69 C68 1_555 1_555
H49 C69 1_555 1_555
C70 H50 1_555 1_555
C71 C70 1_555 1_555
H51 C71 1_555 1_555
H52 C71 1_555 1_555
H53 C71 1_555 1_555
C72 C70 1_555 1_555
H54 C72 1_555 1_555
H55 C72 1_555 1_555
C73 H56 1_555 1_555
C74 C73 1_555 1_555
C75 C74 1_555 1_555
H57 C75 1_555 1_555
C76 C75 1_555 1_555
H58 C76 1_555 1_555
C77 C76 1_555 1_555
H59 C77 1_555 1_555
C78 C77 1_555 1_555
H60 C78 1_555 1_555
C79 C74 1_555 1_555
N5 C69 1_555 1_555
N6 C72 1_555 1_555
O57 C63 1_555 1_555
O58 C79 1_555 1_555
Mn7 N5 1_555 1_555
O59 Mn7 1_555 1_555
C80 O59 1_555 1_555
H61 C80 1_555 1_555
H62 C80 1_555 1_555
H63 C80 1_555 1_555
C81 H64 1_555 1_555
H65 C81 1_555 1_555
H66 C81 1_555 1_555
O60 Mn7 1_555 1_555
C82 C83 1_555 1_555
C83 H67 1_555 1_555
C84 C83 1_555 1_555
H68 C84 1_555 1_555
C85 C84 1_555 1_555
H69 C85 1_555 1_555
C86 C85 1_555 1_555
H70 C86 1_555 1_555
C87 C82 1_555 1_555
C88 C87 1_555 1_555
H71 C88 1_555 1_555
C89 H72 1_555 1_555
C90 C89 1_555 1_555
H73 C90 1_555 1_555
H74 C90 1_555 1_555
H75 C90 1_555 1_555
C91 C89 1_555 1_555
H76 C91 1_555 1_555
H77 C91 1_555 1_555
C92 H78 1_555 1_555
C93 C92 1_555 1_555
C94 C93 1_555 1_555
H79 C94 1_555 1_555
C95 C94 1_555 1_555
H80 C95 1_555 1_555
C96 C95 1_555 1_555
H81 C96 1_555 1_555
C97 C96 1_555 1_555
H82 C97 1_555 1_555
C98 C93 1_555 1_555
N7 C88 1_555 1_555
N8 C91 1_555 1_555
O61 C82 1_555 1_555
O62 C98 1_555 1_555
Mn8 N7 1_555 1_555
C99 H83 1_555 1_555
H84 C99 1_555 1_555
H85 C99 1_555 1_555
C100 H86 1_555 1_555
H87 C100 1_555 1_555
H88 C100 1_555 1_555
O63 Mn8 1_555 1_555
O64 Mn8 1_555 1_555
C101 H89 1_555 1_555
H90 C101 1_555 1_555
Cl1 C101 1_555 1_555
Cl2 C101 1_555 1_555
C102 H91 1_555 1_555
H92 C102 1_555 1_555
Cl3 C102 1_555 1_555
Cl4 C102 1_555 1_555
C103 H93 1_555 1_555
H94 C103 1_555 1_555
Cl5 C103 1_555 1_555
Cl6 C103 1_555 1_555
O65 C104 1_555 1_555
O66 C105 1_555 1_555
O14_2 Mn2 1_555 1_555
O16_2 Mn2 1_555 1_555
O26_2 Cr4 1_555 1_555
O28_2 Cr4 1_555 1_555
O29_2 Cr2 1_555 1_555
O31_2 Cr2 1_555 1_555
O34_2 Cr3 1_555 1_555
O36_2 Cr3 1_555 1_555
O41_2 Mn2 1_555 1_555
O43_2 Mn2 1_555 1_555
Cr2_2 O31 1_555 1_555
Cr3_2 O34 1_555 1_555
Cr4_2 O26 1_555 1_555
Mn2_2 O43 1_555 1_555
Mn2_3 O14 1_555 1_555
O4 Cr1 1_555 1_555
O7 Cr1 1_555 1_555
O8 Mn1 1_555 1_555
O11 Mn1 1_555 1_555
O12 Cr2 1_555 1_555
O15 Cr2 1_555 1_555
O16 Mn2_3 1_555 1_555
O20 Cr3 1_555 1_555
O21 Cr3 1_555 1_555
O22 Mn3 1_555 1_555
O24 Mn3 1_555 1_555
O25 Mn1 1_555 1_555
O28 Cr4_2 1_555 1_555
O32 Mn4 1_555 1_555
O33 Mn4 1_555 1_555
O36 Cr3_2 1_555 1_555
O37 Mn4 1_555 1_555
O38 Cr1 1_555 1_555
O40 Cr1 1_555 1_555
O44 Cr4 1_555 1_555
O45 Cr4 1_555 1_555
O46 Mn3 1_555 1_555
O48 Mn3 1_555 1_555
C29 C30 1_555 1_555
C32 N1 1_555 1_555
C35 N2 1_555 1_555
C40 C41 1_555 1_555
N2 Mn5 1_555 1_555
O49 Mn5 1_555 1_555
O50 Mn5 1_555 1_555
C42 O52 1_555 1_555
C48 C49 1_555 1_555
C51 N3 1_555 1_555
C54 N4 1_555 1_555
C59 C60 1_555 1_555
N4 Mn6 1_555 1_555
O53 Mn6 1_555 1_555
O54 Mn6 1_555 1_555
C61 O55 1_555 1_555
C62 O56 1_555 1_555
C67 C68 1_555 1_555
C70 N5 1_555 1_555
C73 N6 1_555 1_555
C78 C79 1_555 1_555
N6 Mn7 1_555 1_555
O57 Mn7 1_555 1_555
O58 Mn7 1_555 1_555
C81 O60 1_555 1_555
C86 C87 1_555 1_555
C89 N7 1_555 1_555
C92 N8 1_555 1_555
C97 C98 1_555 1_555
N8 Mn8 1_555 1_555
O61 Mn8 1_555 1_555
O62 Mn8 1_555 1_555
C99 O63 1_555 1_555
C100 O64 1_555 1_555

#END
