
#######################################################################
#
#                 Cambridge Crystallographic Data Centre
#                                CCDC 
#
#######################################################################
#
# If this CIF has been generated from an entry in the Cambridge 
# Structural Database, then it will include bibliographic, chemical, 
# crystal, experimental, refinement or atomic coordinate data resulting 
# from the CCDC's data processing and validation procedures.
#
#######################################################################

data_BEWVOQ
_symmetry_cell_setting           triclinic
_symmetry_space_group_name_H-M   'P 1'
_symmetry_Int_Tables_number      1
_space_group_name_Hall           'P 1'
loop_
_symmetry_equiv_pos_site_id
_symmetry_equiv_pos_as_xyz
1 x,y,z
_cell_length_a                   15.2933(9)
_cell_length_b                   15.5985(8)
_cell_length_c                   18.1942(6)
_cell_angle_alpha                64.685(4)
_cell_angle_beta                 77.986(4)
_cell_angle_gamma                61.077(6)
_cell_volume                     3434.1
loop_
_atom_site_label
_atom_site_type_symbol
_atom_site_fract_x
_atom_site_fract_y
_atom_site_fract_z
C1 C 0.1804(7) -0.2344(6) 0.9488(5)
C2 C 0.2730(7) -0.3096(6) 1.0046(5)
C3 C 0.4497(7) -0.1625(6) 0.8393(4)
C4 C 0.5334(7) -0.2738(7) 0.8443(5)
C5 C 0.6925(7) -0.2884(6) 1.0101(5)
C6 C 0.7900(7) -0.3090(7) 0.9536(5)
C7 C 0.9463(7) -0.3033(7) 1.1197(5)
C8 C 1.0332(6) -0.4036(6) 1.1098(5)
C9 C 0.6387(6) -0.0144(7) 0.7119(5)
C10 C 0.6273(6) 0.0236(7) 0.7797(5)
C11 C 0.4475(7) 0.3826(7) 0.6208(5)
C12 C 0.5339(7) 0.4036(7) 0.6291(5)
C13 C 0.2013(7) 0.7128(7) 0.5094(6)
C14 C 0.2957(7) 0.6977(7) 0.4540(6)
C15 C 0.3540(7) 0.7026(7) 0.6897(5)
C16 C 0.3464(7) 0.6050(7) 0.7548(6)
C17 C 0.7009(6) 0.2421(6) 0.4618(5)
C18 C 0.7931(6) 0.1725(6) 0.5181(5)
C19 C 0.8534(6) 0.3672(7) 0.2144(5)
C20 C 0.8635(6) 0.4030(7) 0.2760(5)
C21 C 0.9495(6) 0.0147(6) 0.3553(5)
C22 C 1.0344(7) 0.0405(7) 0.3494(5)
C23 C 1.1274(6) -0.2801(6) 0.2524(5)
C24 C 1.1179(7) -0.1726(6) 0.1898(6)
O1 O 0.0982(4) -0.2060(4) 0.9847(4)
O2 O 0.2564(4) -0.3299(4) 1.0798(3)
O3 O 0.1921(5) -0.2081(4) 0.8738(3)
O4 O 0.3559(4) -0.3450(5) 0.9723(4)
O5 O 0.3634(5) -0.1409(5) 0.8314(4)
O6 O 0.5090(5) -0.3376(5) 0.8418(4)
O7 O 0.4816(5) -0.1017(4) 0.8414(3)
O8 O 0.6210(5) -0.2890(5) 0.8500(4)
O9 O 0.6126(5) -0.2236(5) 0.9741(3)
O10 O 0.7717(4) -0.2524(4) 0.8801(3)
O11 O 0.7051(4) -0.3367(4) 1.0850(3)
O12 O 0.8706(4) -0.3757(5) 0.9867(4)
O13 O 0.8593(5) -0.2971(5) 1.1273(5)
O14 O 1.0189(4) -0.4752(4) 1.1124(3)
O15 O 0.9674(4) -0.2351(4) 1.1176(4)
O16 O 1.1183(5) -0.4042(4) 1.1013(3)
O17 O 0.6476(5) -0.1084(5) 0.7370(3)
O18 O 0.6241(5) -0.0384(5) 0.8513(3)
O19 O 0.6362(4) 0.0449(4) 0.6399(3)
O20 O 0.6294(5) 0.1092(5) 0.7593(3)
O21 O 0.4680(5) 0.2943(5) 0.6225(4)
O22 O 0.6197(5) 0.3276(5) 0.6426(4)
O23 O 0.3636(5) 0.4575(5) 0.6124(4)
O24 O 0.5091(4) 0.4941(4) 0.6264(4)
O25 O 0.2191(4) 0.6685(5) 0.5854(4)
O26 O 0.3782(5) 0.6403(5) 0.4914(4)
O27 O 0.1197(5) 0.7622(5) 0.4775(4)
O28 O 0.2848(5) 0.7417(5) 0.3794(4)
O29 O 0.3644(4) 0.7061(4) 0.6177(3)
O30 O 0.3428(5) 0.5427(5) 0.7287(4)
O31 O 0.3461(6) 0.7724(5) 0.7095(3)
O32 O 0.3414(5) 0.5931(5) 0.8272(4)
O33 O 0.6184(5) 0.2625(5) 0.4950(4)
O34 O 0.7809(4) 0.1445(4) 0.5928(3)
O35 O 0.7202(4) 0.2702(4) 0.3870(3)
O36 O 0.8768(4) 0.1507(4) 0.4825(3)
O37 O 0.8457(5) 0.2797(4) 0.2442(3)
O38 O 0.8723(4) 0.3379(4) 0.3503(3)
O39 O 0.8534(4) 0.4220(4) 0.1412(3)
O40 O 0.8638(5) 0.4892(5) 0.2516(4)
O41 O 0.8643(4) 0.0823(4) 0.3647(4)
O42 O 1.0092(4) 0.1297(4) 0.3511(3)
O43 O 0.9677(4) -0.0691(5) 0.3515(4)
O44 O 1.1201(5) -0.0250(5) 0.3437(4)
O45 O 1.1291(5) -0.2997(5) 0.3252(4)
O46 O 1.1224(5) -0.1113(5) 0.2149(4)
O47 O 1.1285(5) -0.3421(4) 0.2238(4)
O48 O 1.1067(4) -0.1554(4) 0.1163(4)
Cr1 Cr 0.11159(10) -0.27585(11) 1.10410(8)
Cr2 Cr 0.62704(11) -0.16870(11) 0.85502(8)
Cr3 Cr 0.36262(11) 0.58633(11) 0.61037(9)
Cr4 Cr 0.86340(11) 0.21017(10) 0.36259(8)
Mn1 Mn 0.34800(11) -0.27729(11) 0.84059(8)
Mn2 Mn 0.86162(10) -0.43584(10) 1.11939(8)
Mn3 Mn 0.62620(10) 0.19190(10) 0.62764(8)
Mn4 Mn 1.12832(11) -0.16857(11) 0.34396(9)
O15_2 O -0.0326(4) -0.2351(4) 1.1176(4)
O16_2 O 0.1183(5) -0.4042(4) 1.1013(3)
O27_2 O 1.1197(5) -0.2378(5) 0.4775(4)
O28_2 O 1.2848(5) -0.2583(5) 0.3794(4)
O31_2 O 0.3461(6) -0.2276(5) 0.7095(3)
O32_2 O 0.3414(5) -0.4069(5) 0.8272(4)
O39_2 O 0.8534(4) -0.5780(4) 1.1412(3)
O40_2 O 0.8638(5) -0.5108(5) 1.2516(4)
O47_2 O 0.1285(5) -0.3421(4) 1.2238(4)
O48_2 O 0.1067(4) -0.1554(4) 1.1163(4)
Cr1_2 Cr 1.11159(10) -0.27585(11) 0.10410(8)
Cr1_3 Cr 1.11159(10) -0.27585(11) 1.10410(8)
Mn1_2 Mn 0.34800(11) 0.72271(11) 0.84059(8)
Mn2_2 Mn 0.86162(10) 0.56416(10) 0.11939(8)
Mn4_2 Mn 0.12832(11) 0.83143(11) 0.34396(9)
C25 C 0.3928(7) 0.0959(7) 0.4758(5)
C26 C 0.3760(8) 0.0092(8) 0.5341(6)
H1 H 0.3686 -0.0360 0.5163
C27 C 0.3704(8) -0.0101(8) 0.6131(6)
H2 H 0.3603 -0.0699 0.6498
C28 C 0.3784(8) 0.0520(8) 0.6445(6)
H3 H 0.3741 0.0358 0.7013
C29 C 0.3930(8) 0.1400(8) 0.5893(5)
H4 H 0.3986 0.1847 0.6088
C30 C 0.3994(7) 0.1625(7) 0.5053(5)
C31 C 0.4112(6) 0.2536(6) 0.4539(5)
H5 H 0.4215 0.2894 0.4799
C32 C 0.4235(8) 0.3925(7) 0.3274(5)
H6 H 0.4939 0.3708 0.3068
C33 C 0.3560(7) 0.4493(7) 0.2569(5)
H7 H 0.2859 0.4824 0.2743
H8 H 0.3720 0.5061 0.2150
C34 C 0.3609(7) 0.4019(7) 0.1464(5)
H9 H 0.3528 0.4714 0.1123
C35 C 0.3639(7) 0.3389(9) 0.1077(6)
C36 C 0.3585(7) 0.3812(9) 0.0214(6)
H10 H 0.3544 0.4501 -0.0085
C37 C 0.3591(8) 0.3231(10) -0.0214(7)
H11 H 0.3580 0.3512 -0.0791
C38 C 0.3614(8) 0.2248(10) 0.0232(7)
H12 H 0.3577 0.1868 -0.0043
C39 C 0.3687(7) 0.1807(8) 0.1062(6)
H13 H 0.3749 0.1109 0.1348
C40 C 0.3671(7) 0.2368(9) 0.1494(5)
C41 C 0.4038(8) 0.4620(7) 0.3744(6)
H14 H 0.4489 0.4206 0.4212
H15 H 0.3344 0.4862 0.3935
H16 H 0.4155 0.5235 0.3386
N1 N 0.4098(5) 0.2940(5) 0.3763(5)
N2 N 0.3680(6) 0.3746(6) 0.2227(5)
O49 O 0.3982(5) 0.1125(5) 0.3987(4)
O50 O 0.3746(4) 0.1862(4) 0.2324(3)
Mn5 Mn 0.38764(10) 0.23427(10) 0.30859(8)
O51 O 0.5541(4) 0.1565(5) 0.2816(4)
C42 C 0.6352(8) 0.1243(9) 0.3311(8)
O52 O 0.2207(4) 0.2953(5) 0.3393(4)
C43 C 0.1430(12) 0.3679(14) 0.2824(10)
C44 C 0.6074(7) 0.8394(8) 0.4682(6)
C45 C 0.6243(8) 0.8689(8) 0.5253(6)
H17 H 0.6354 0.9296 0.5080
C46 C 0.6246(9) 0.8065(12) 0.6079(8)
H18 H 0.6315 0.8302 0.6456
C47 C 0.6159(9) 0.7174(10) 0.6378(7)
H19 H 0.6207 0.6770 0.6947
C48 C 0.5997(8) 0.6841(10) 0.5845(7)
H20 H 0.5915 0.6213 0.6048
C49 C 0.5955(7) 0.7445(8) 0.4992(6)
C50 C 0.5828(7) 0.7064(7) 0.4473(6)
H21 H 0.5724 0.6447 0.4734
C51 C 0.5672(7) 0.6942(8) 0.3220(6)
H22 H 0.4954 0.7333 0.3056
C52 C 0.6261(10) 0.7082(10) 0.2520(7)
H23 H 0.6052 0.6948 0.2116
H24 H 0.6970 0.6575 0.2657
C53 C 0.6141(10) 0.8723(10) 0.1396(7)
H25 H 0.6138 0.8408 0.1051
C54 C 0.6149(8) 0.9733(9) 0.1020(6)
C55 C 0.6199(8) 1.0189(10) 0.0145(7)
H26 H 0.6237 0.9792 -0.0147
C56 C 0.6195(9) 1.1138(9) -0.0286(7)
H27 H 0.6184 1.1428 -0.0863
C57 C 0.6209(9) 1.1693(9) 0.0167(8)
H28 H 0.6249 1.2344 -0.0123
C58 C 0.6166(7) 1.1318(8) 0.1011(6)
H29 H 0.6155 1.1716 0.1290
C59 C 0.6138(7) 1.0314(9) 0.1454(6)
C60 C 0.5937(10) 0.5768(9) 0.3695(8)
H30 H 0.5511 0.5688 0.4179
H31 H 0.6639 0.5377 0.3861
H32 H 0.5831 0.5487 0.3350
N3 N 0.5832(5) 0.7426(6) 0.3707(4)
N4 N 0.6138(7) 0.8212(7) 0.2165(5)
O53 O 0.6017(6) 0.8981(5) 0.3920(4)
O54 O 0.6106(5) 0.9967(5) 0.2262(4)
Mn6 Mn 0.60138(10) 0.87181(11) 0.30235(9)
O55 O 0.7690(7) 0.7780(7) 0.3205(10)
C61 C 0.8469(14) 0.797(2) 0.2884(10)
O56 O 0.4368(5) 0.9717(5) 0.2873(4)
C62 C 0.3550(8) 0.9514(10) 0.3362(8)
C63 C 0.1136(6) 0.2377(5) 0.9901(3)
C64 C 0.1216(6) 0.1396(4) 1.0459(4)
H33 H 0.1267 0.0888 1.0275
C65 C 0.1221(6) 0.1157(4) 1.1288(4)
H34 H 0.1276 0.0486 1.1669
C66 C 0.1146(5) 0.1900(5) 1.1558(3)
H35 H 0.1150 0.1737 1.2124
C67 C 0.1066(5) 0.2882(4) 1.0999(4)
H36 H 0.1015 0.3389 1.1184
C68 C 0.1061(5) 0.3120(4) 1.0171(3)
C69 C 0.1061(6) 0.4124(6) 0.9619(5)
H37 H 0.1030 0.4574 0.9858
C70 C 0.1251(8) 0.5412(7) 0.8335(6)
H38 H 0.1980 0.5173 0.8206
C71 C 0.0705(9) 0.5893(8) 0.7555(6)
H39 H -0.0025 0.6228 0.7644
H40 H 0.0895 0.6440 0.7140
C72 C 0.1064(9) 0.5197(11) 0.6495(7)
H41 H 0.1010 0.5868 0.6115
C73 C 0.1221(6) 0.4439(7) 0.6183(5)
C74 C 0.1353(7) 0.4748(7) 0.5345(5)
H42 H 0.1354 0.5414 0.5028
C75 C 0.1481(7) 0.4082(9) 0.4972(4)
H43 H 0.1571 0.4293 0.4399
C76 C 0.1479(6) 0.3107(8) 0.5435(6)
H44 H 0.1567 0.2651 0.5180
C77 C 0.1348(6) 0.2798(6) 0.6273(6)
H45 H 0.1346 0.2131 0.6589
C78 C 0.1219(6) 0.3464(7) 0.6646(4)
C79 C 0.0942(7) 0.6173(7) 0.8745(6)
H46 H 0.1321 0.5812 0.9250
H47 H 0.0226 0.6427 0.8870
H48 H 0.1076 0.6775 0.8382
N5 N 0.1098(5) 0.4459(6) 0.8840(5)
N6 N 0.0986(7) 0.5037(8) 0.7287(5)
O57 O 0.1208(7) 0.2506(5) 0.9118(5)
O58 O 0.1097(5) 0.3108(5) 0.7473(4)
Mn7 Mn 0.10816(10) 0.37091(11) 0.81916(9)
O59 O -0.0581(5) 0.4390(6) 0.8178(5)
C80 C -0.1408(11) 0.5011(12) 0.8511(10)
O60 O 0.2797(10) 0.3252(9) 0.7850(7)
C81 C 0.3461(15) 0.2139(11) 0.8047(13)
C82 C 0.8677(8) 0.2009(9) 0.9747(8)
C83 C 0.8629(9) 0.2323(10) 1.0336(8)
H49 H 0.8559 0.3017 1.0183
C84 C 0.8674(10) 0.1710(13) 1.1147(10)
H50 H 0.8643 0.1999 1.1523
C85 C 0.8758(10) 0.0740(14) 1.1438(7)
H51 H 0.8800 0.0337 1.2006
C86 C 0.8783(8) 0.0337(9) 1.0899(7)
H52 H 0.8833 -0.0356 1.1093
C87 C 0.8735(7) 0.0945(9) 1.0040(7)
C88 C 0.8722(7) 0.0465(8) 0.9521(6)
H53 H 0.8725 -0.0210 0.9771
C89 C 0.8600(8) 0.0467(8) 0.8211(6)
H54 H 0.7890 0.0880 0.8024
C90 C 0.9237(7) 0.0686(7) 0.7476(6)
H55 H 0.9953 0.0239 0.7622
H56 H 0.9096 0.0530 0.7053
C91 C 0.8967(8) 0.2347(8) 0.6432(7)
H57 H 0.9072 0.2022 0.6062
C92 C 0.8771(6) 0.3486(5) 0.6073(5)
C93 C 0.8647(6) 0.4011(6) 0.5235(5)
H58 H 0.8669 0.3653 0.4915
C94 C 0.8491(6) 0.5059(6) 0.4865(4)
H59 H 0.8406 0.5418 0.4292
C95 C 0.8459(6) 0.5583(5) 0.5333(5)
H60 H 0.8352 0.6299 0.5080
C96 C 0.8583(6) 0.5058(6) 0.6170(5)
H61 H 0.8561 0.5416 0.6490
C97 C 0.8739(6) 0.4010(7) 0.6540(4)
C98 C 0.8813(9) -0.0725(8) 0.8664(7)
H62 H 0.8351 -0.0794 0.9123
H63 H 0.9502 -0.1152 0.8864
H64 H 0.8719 -0.0972 0.8287
N7 N 0.8707(5) 0.0897(6) 0.8735(5)
N8 N 0.9005(6) 0.1776(7) 0.7183(5)
O61 O 0.8566(6) 0.2604(6) 0.8993(5)
O62 O 0.8832(5) 0.3565(5) 0.7346(4)
Mn8 Mn 0.87892(11) 0.22674(11) 0.80817(9)
O63 O 1.0458(5) 0.1528(6) 0.8183(5)
C99 C 1.1171(9) 0.0557(8) 0.8682(10)
O64 O 0.7088(5) 0.3127(5) 0.7783(4)
C100 C 0.6436(9) 0.4032(10) 0.7967(8)
Cl1 Cl 0.8990(3) 0.8650(3) 0.6683(3)
Cl2 Cl 1.0956(4) 0.8623(3) 0.6733(3)
C101 C 0.9949(14) 0.8892(14) 0.6109(10)
H65 H 0.9675 0.9642 0.5726
H66 H 1.0249 0.8444 0.5783
Cl3 Cl 0.3852(3) -0.2716(4) 1.1911(2)
Cl4 Cl 0.3386(8) -0.1254(7) 1.0271(5)
C102 C 0.4188(19) -0.2539(16) 1.0916(9)
H67 H 0.4148 -0.3073 1.0784
H68 H 0.4886 -0.2639 1.0832
Cl5 Cl 0.5888(4) 0.4900(5) 0.1816(3)
Cl6 Cl 0.5847(6) 0.4234(12) 0.0523(10)
C103 C 0.649(2) 0.396(2) 0.1308(16)
H69 H 0.7152 0.3940 0.1105
H70 H 0.6610 0.3247 0.1716
O65 O 0.8460(12) 0.8266(12) 0.4265(8)
C104 C 0.8733(17) 0.7829(18) 0.5130(11)
O66 O 0.1131(16) 0.0615(15) 0.5811(11)
O67? O 0.2775(12) 0.2655(12) 0.8403(9)
C105? C 0.353(2) 0.263(3) 0.778(2)
O68? O 0.8915(15) 0.7406(15) 0.5842(11)
O69? O 0.1460(9) 0.1547(8) 0.4186(6)
C106? C 0.1303(19) 0.0911(17) 0.4993(11)
loop_
_geom_bond_atom_site_label_1
_geom_bond_atom_site_label_2
_geom_bond_site_symmetry_1
_geom_bond_site_symmetry_2
C1 C2 1_555 1_555
C2 O2 1_555 1_555
C3 C4 1_555 1_555
C4 O6 1_555 1_555
C5 C6 1_555 1_555
C6 O10 1_555 1_555
C7 C8 1_555 1_555
C8 O14 1_555 1_555
C9 C10 1_555 1_555
C10 O18 1_555 1_555
C11 C12 1_555 1_555
C12 O22 1_555 1_555
C13 C14 1_555 1_555
C14 O26 1_555 1_555
C15 C16 1_555 1_555
C16 O30 1_555 1_555
C17 C18 1_555 1_555
C18 O34 1_555 1_555
C19 C20 1_555 1_555
C20 O38 1_555 1_555
C21 C22 1_555 1_555
C22 O42 1_555 1_555
C23 C24 1_555 1_555
C24 O46 1_555 1_555
O1 C1 1_555 1_555
O2 Cr1 1_555 1_555
O3 C1 1_555 1_555
O4 C2 1_555 1_555
O5 C3 1_555 1_555
O6 Mn1 1_555 1_555
O7 C3 1_555 1_555
O8 C4 1_555 1_555
O9 C5 1_555 1_555
O10 Cr2 1_555 1_555
O11 C5 1_555 1_555
O12 C6 1_555 1_555
O13 C7 1_555 1_555
O14 Mn2 1_555 1_555
O15 C7 1_555 1_555
O16 C8 1_555 1_555
O17 C9 1_555 1_555
O18 Cr2 1_555 1_555
O19 C9 1_555 1_555
O20 C10 1_555 1_555
O21 C11 1_555 1_555
O22 Mn3 1_555 1_555
O23 C11 1_555 1_555
O24 C12 1_555 1_555
O25 C13 1_555 1_555
O26 Cr3 1_555 1_555
O27 C13 1_555 1_555
O28 C14 1_555 1_555
O29 C15 1_555 1_555
O30 Cr3 1_555 1_555
O31 C15 1_555 1_555
O32 C16 1_555 1_555
O33 C17 1_555 1_555
O34 Mn3 1_555 1_555
O35 C17 1_555 1_555
O36 C18 1_555 1_555
O37 C19 1_555 1_555
O38 Cr4 1_555 1_555
O39 C19 1_555 1_555
O40 C20 1_555 1_555
O41 C21 1_555 1_555
O42 Cr4 1_555 1_555
O43 C21 1_555 1_555
O44 C22 1_555 1_555
O45 C23 1_555 1_555
O46 Mn4 1_555 1_555
O47 C23 1_555 1_555
O48 C24 1_555 1_555
Cr1 O1 1_555 1_555
Cr2 O7 1_555 1_555
Cr3 O23 1_555 1_555
Cr4 O35 1_555 1_555
Mn1 O3 1_555 1_555
Mn2 O11 1_555 1_555
Mn3 O19 1_555 1_555
Mn4 O43 1_555 1_555
C25 C26 1_555 1_555
C26 H1 1_555 1_555
C27 C26 1_555 1_555
H2 C27 1_555 1_555
C28 C27 1_555 1_555
H3 C28 1_555 1_555
C29 C28 1_555 1_555
H4 C29 1_555 1_555
C30 C25 1_555 1_555
C31 C30 1_555 1_555
H5 C31 1_555 1_555
C32 H6 1_555 1_555
C33 C32 1_555 1_555
H7 C33 1_555 1_555
H8 C33 1_555 1_555
C34 H9 1_555 1_555
C35 C34 1_555 1_555
C36 C35 1_555 1_555
H10 C36 1_555 1_555
C37 C36 1_555 1_555
H11 C37 1_555 1_555
C38 C37 1_555 1_555
H12 C38 1_555 1_555
C39 C38 1_555 1_555
H13 C39 1_555 1_555
C40 C35 1_555 1_555
C41 C32 1_555 1_555
H14 C41 1_555 1_555
H15 C41 1_555 1_555
H16 C41 1_555 1_555
N1 C31 1_555 1_555
N2 C33 1_555 1_555
O49 C25 1_555 1_555
O50 C40 1_555 1_555
Mn5 N1 1_555 1_555
O51 Mn5 1_555 1_555
C42 O51 1_555 1_555
O52 Mn5 1_555 1_555
C43 O52 1_555 1_555
C44 C45 1_555 1_555
C45 H17 1_555 1_555
C46 C45 1_555 1_555
H18 C46 1_555 1_555
C47 C46 1_555 1_555
H19 C47 1_555 1_555
C48 C47 1_555 1_555
H20 C48 1_555 1_555
C49 C44 1_555 1_555
C50 C49 1_555 1_555
H21 C50 1_555 1_555
C51 H22 1_555 1_555
C52 C51 1_555 1_555
H23 C52 1_555 1_555
H24 C52 1_555 1_555
C53 H25 1_555 1_555
C54 C53 1_555 1_555
C55 C54 1_555 1_555
H26 C55 1_555 1_555
C56 C55 1_555 1_555
H27 C56 1_555 1_555
C57 C56 1_555 1_555
H28 C57 1_555 1_555
C58 C57 1_555 1_555
H29 C58 1_555 1_555
C59 C54 1_555 1_555
C60 C51 1_555 1_555
H30 C60 1_555 1_555
H31 C60 1_555 1_555
H32 C60 1_555 1_555
N3 C50 1_555 1_555
N4 C52 1_555 1_555
O53 C44 1_555 1_555
O54 C59 1_555 1_555
Mn6 N3 1_555 1_555
O55 Mn6 1_555 1_555
C61 O55 1_555 1_555
O56 Mn6 1_555 1_555
C62 O56 1_555 1_555
C63 C64 1_555 1_555
C64 H33 1_555 1_555
C65 C64 1_555 1_555
H34 C65 1_555 1_555
C66 C65 1_555 1_555
H35 C66 1_555 1_555
C67 C66 1_555 1_555
H36 C67 1_555 1_555
C68 C63 1_555 1_555
C69 C68 1_555 1_555
H37 C69 1_555 1_555
C70 H38 1_555 1_555
C71 C70 1_555 1_555
H39 C71 1_555 1_555
H40 C71 1_555 1_555
C72 H41 1_555 1_555
C73 C72 1_555 1_555
C74 C73 1_555 1_555
H42 C74 1_555 1_555
C75 C74 1_555 1_555
H43 C75 1_555 1_555
C76 C75 1_555 1_555
H44 C76 1_555 1_555
C77 C76 1_555 1_555
H45 C77 1_555 1_555
C78 C73 1_555 1_555
C79 C70 1_555 1_555
H46 C79 1_555 1_555
H47 C79 1_555 1_555
H48 C79 1_555 1_555
N5 C69 1_555 1_555
N6 C71 1_555 1_555
O57 C63 1_555 1_555
O58 C78 1_555 1_555
Mn7 N5 1_555 1_555
O59 Mn7 1_555 1_555
C80 O59 1_555 1_555
O60 Mn7 1_555 1_555
C81 O60 1_555 1_555
C82 C83 1_555 1_555
C83 H49 1_555 1_555
C84 C83 1_555 1_555
H50 C84 1_555 1_555
C85 C84 1_555 1_555
H51 C85 1_555 1_555
C86 C85 1_555 1_555
H52 C86 1_555 1_555
C87 C82 1_555 1_555
C88 C87 1_555 1_555
H53 C88 1_555 1_555
C89 H54 1_555 1_555
C90 C89 1_555 1_555
H55 C90 1_555 1_555
H56 C90 1_555 1_555
C91 H57 1_555 1_555
C92 C91 1_555 1_555
C93 C92 1_555 1_555
H58 C93 1_555 1_555
C94 C93 1_555 1_555
H59 C94 1_555 1_555
C95 C94 1_555 1_555
H60 C95 1_555 1_555
C96 C95 1_555 1_555
H61 C96 1_555 1_555
C97 C92 1_555 1_555
C98 C89 1_555 1_555
H62 C98 1_555 1_555
H63 C98 1_555 1_555
H64 C98 1_555 1_555
N7 C88 1_555 1_555
N8 C90 1_555 1_555
O61 C82 1_555 1_555
O62 C97 1_555 1_555
Mn8 N7 1_555 1_555
O63 Mn8 1_555 1_555
C99 O63 1_555 1_555
O64 Mn8 1_555 1_555
C100 O64 1_555 1_555
Cl1 C101 1_555 1_555
Cl2 C101 1_555 1_555
C101 H65 1_555 1_555
H66 C101 1_555 1_555
Cl3 C102 1_555 1_555
Cl4 C102 1_555 1_555
C102 H67 1_555 1_555
H68 C102 1_555 1_555
Cl5 C103 1_555 1_555
Cl6 C103 1_555 1_555
C103 H69 1_555 1_555
H70 C103 1_555 1_555
O65 C104 1_555 1_555
O15_2 Cr1 1_555 1_555
O16_2 Cr1 1_555 1_555
O27_2 Mn4 1_555 1_555
O28_2 Mn4 1_555 1_555
O31_2 Mn1 1_555 1_555
O32_2 Mn1 1_555 1_555
O39_2 Mn2 1_555 1_555
O40_2 Mn2 1_555 1_555
O47_2 Cr1 1_555 1_555
O48_2 Cr1 1_555 1_555
Cr1_2 O47 1_555 1_555
Cr1_3 O15 1_555 1_555
Mn1_2 O31 1_555 1_555
Mn2_2 O39 1_555 1_555
Mn4_2 O27 1_555 1_555
O4 Mn1 1_555 1_555
O5 Mn1 1_555 1_555
O8 Cr2 1_555 1_555
O9 Cr2 1_555 1_555
O12 Mn2 1_555 1_555
O13 Mn2 1_555 1_555
O16 Cr1_3 1_555 1_555
O17 Cr2 1_555 1_555
O20 Mn3 1_555 1_555
O21 Mn3 1_555 1_555
O24 Cr3 1_555 1_555
O25 Cr3 1_555 1_555
O28 Mn4_2 1_555 1_555
O29 Cr3 1_555 1_555
O32 Mn1_2 1_555 1_555
O33 Mn3 1_555 1_555
O36 Cr4 1_555 1_555
O37 Cr4 1_555 1_555
O40 Mn2_2 1_555 1_555
O41 Cr4 1_555 1_555
O44 Mn4 1_555 1_555
O45 Mn4 1_555 1_555
O48 Cr1_2 1_555 1_555
C29 C30 1_555 1_555
C32 N1 1_555 1_555
C34 N2 1_555 1_555
C39 C40 1_555 1_555
N2 Mn5 1_555 1_555
O49 Mn5 1_555 1_555
O50 Mn5 1_555 1_555
C48 C49 1_555 1_555
C51 N3 1_555 1_555
C53 N4 1_555 1_555
C58 C59 1_555 1_555
N4 Mn6 1_555 1_555
O53 Mn6 1_555 1_555
O54 Mn6 1_555 1_555
C67 C68 1_555 1_555
C70 N5 1_555 1_555
C72 N6 1_555 1_555
C77 C78 1_555 1_555
N6 Mn7 1_555 1_555
O57 Mn7 1_555 1_555
O58 Mn7 1_555 1_555
C86 C87 1_555 1_555
C89 N7 1_555 1_555
C91 N8 1_555 1_555
C96 C97 1_555 1_555
N8 Mn8 1_555 1_555
O61 Mn8 1_555 1_555
O62 Mn8 1_555 1_555

#END
