
#######################################################################
#
#                 Cambridge Crystallographic Data Centre
#                                CCDC 
#
#######################################################################
#
# If this CIF has been generated from an entry in the Cambridge 
# Structural Database, then it will include bibliographic, chemical, 
# crystal, experimental, refinement or atomic coordinate data resulting 
# from the CCDC's data processing and validation procedures.
#
#######################################################################

data_BEWVIK
_symmetry_cell_setting           monoclinic
_symmetry_space_group_name_H-M   'P 21'
_symmetry_Int_Tables_number      4
_space_group_name_Hall           'P 2yb'
loop_
_symmetry_equiv_pos_site_id
_symmetry_equiv_pos_as_xyz
1 x,y,z
2 -x,1/2+y,-z
_cell_length_a                   9.2926(3)
_cell_length_b                   32.5571(12)
_cell_length_c                   11.8060(4)
_cell_angle_alpha                90
_cell_angle_beta                 90.596(3)
_cell_angle_gamma                90
_cell_volume                     3571.6
loop_
_atom_site_label
_atom_site_type_symbol
_atom_site_fract_x
_atom_site_fract_y
_atom_site_fract_z
Cr1 Cr 0.49172(7) 0.25379(2) 0.04721(6)
Cr2 Cr 0.99151(7) 0.00491(2) -0.01118(6)
Mn1 Mn 0.99164(7) 0.338518(19) 0.04002(6)
Mn2 Mn 0.49230(7) 0.08874(2) 0.00374(6)
C1 C 0.7596(5) 0.28280(12) -0.0074(4)
C2 C 0.7167(4) 0.30486(13) 0.1032(3)
C3 C 0.2726(5) 0.30670(13) -0.0076(4)
C4 C 0.2256(4) 0.28348(12) 0.1008(4)
C5 C 0.9540(4) -0.07517(13) -0.0777(3)
C6 C 1.0504(4) -0.07636(14) 0.0288(4)
C7 C 0.7282(5) 0.03454(13) 0.0516(4)
C8 C 0.7698(4) 0.05740(13) -0.0590(4)
C9 C 0.2528(4) 0.03767(13) -0.0643(4)
C10 C 0.2131(5) 0.05535(13) 0.0523(4)
C11 C 0.4459(4) 0.17555(13) -0.0281(4)
C12 C 0.5356(4) 0.17212(13) 0.0830(4)
O1 O 0.7990(3) 0.33127(9) 0.1411(2)
O2 O 0.5963(3) 0.29404(9) 0.1441(2)
O3 O 0.8756(3) 0.29170(9) -0.0518(3)
O4 O 0.6689(3) 0.25638(9) -0.0440(2)
O5 O 0.3985(3) 0.29777(9) -0.0421(3)
O6 O 0.1891(3) 0.33147(9) -0.0502(3)
O7 O 0.3139(3) 0.25705(9) 0.1384(2)
O8 O 0.1078(3) 0.29235(9) 0.1417(3)
O9 O 0.9252(3) -0.10783(9) -0.1249(3)
O10 O 0.9126(3) -0.03986(9) -0.1086(3)
O11 O 1.0936(3) -0.11069(9) 0.0641(3)
O12 O 1.0778(3) -0.04182(9) 0.0730(3)
O13 O 0.8912(3) 0.04777(9) -0.0997(3)
O14 O 0.6839(3) 0.08297(10) -0.0968(2)
O15 O 0.8182(3) 0.00737(9) 0.0842(2)
O16 O 0.6160(3) 0.04367(10) 0.0992(3)
O17 O 0.3646(3) 0.04900(10) -0.1090(3)
O18 O 0.1643(3) 0.01197(9) -0.1070(3)
O19 O 0.3003(3) 0.07793(9) 0.1007(3)
O20 O 0.0901(3) 0.04411(9) 0.0897(2)
O21 O 0.4171(3) 0.14371(10) -0.0806(3)
O22 O 0.4113(3) 0.21149(9) -0.0555(2)
O23 O 0.5711(3) 0.13732(10) 0.1163(3)
O24 O 0.5671(3) 0.20561(9) 0.1309(2)
Cr2_2 Cr -0.00849(7) 0.00491(2) -0.01118(6)
Mn1_2 Mn -0.00836(7) 0.338518(19) 0.04002(6)
Mn1A Mn 1.00836(7) -0.161482(19) -0.04002(6)
O6_2 O 1.1891(3) 0.33147(9) -0.0502(3)
O8_2 O 1.1078(3) 0.29235(9) 0.1417(3)
O9A O 1.0748(3) 0.39217(9) 0.1249(3)
O11A O 0.9064(3) 0.38931(9) -0.0641(3)
O18_2 O 1.1643(3) 0.01197(9) -0.1070(3)
O20_2 O 1.0901(3) 0.04411(9) 0.0897(2)
Mn3 Mn 0.24301(7) 0.91190(2) 0.42931(6)
C13 C 0.4865(5) 0.87421(15) 0.5394(4)
C14 C 0.5426(5) 0.84148(17) 0.6021(4)
H1 H 0.4841 0.8180 0.6145
C15 C 0.6814(6) 0.8421(2) 0.6470(5)
H2 H 0.7170 0.8190 0.6877
C16 C 0.7677(6) 0.8762(2) 0.6328(4)
H3 H 0.8615 0.8771 0.6656
C17 C 0.7168(5) 0.90894(19) 0.5709(4)
H4 H 0.7770 0.9322 0.5603
C18 C 0.5777(5) 0.90885(16) 0.5229(4)
C19 C 0.5374(5) 0.94314(15) 0.4537(4)
H5 H 0.6084 0.9635 0.4401
C20 C 0.3812(6) 0.98451(15) 0.3343(5)
H6 H 0.4448 1.0077 0.3592
C21 C 0.4095(6) 0.9758(2) 0.2162(6)
H7 H 0.5107 0.9680 0.2077
H8 H 0.3893 1.0003 0.1706
H9 H 0.3477 0.9532 0.1906
C22 C 0.2240(5) 0.99672(15) 0.3548(6)
H10 H 0.2152 1.0112 0.4280
H11 H 0.1888 1.0151 0.2936
C23 C 0.0120(5) 0.95650(14) 0.3137(4)
H12 H -0.0249 0.9807 0.2791
C24 C -0.0790(5) 0.92112(13) 0.3149(4)
C25 C -0.2086(5) 0.92276(14) 0.2524(4)
H13 H -0.2334 0.9471 0.2125
C26 C -0.2997(5) 0.88951(16) 0.2484(4)
H14 H -0.3882 0.8912 0.2076
C27 C -0.2622(5) 0.85343(15) 0.3040(4)
H15 H -0.3240 0.8302 0.2989
C28 C -0.1363(5) 0.85081(15) 0.3665(4)
H16 H -0.1123 0.8259 0.4039
C29 C -0.0431(5) 0.88469(14) 0.3755(4)
N1 N 0.4104(4) 0.94851(11) 0.4081(3)
N2 N 0.1400(4) 0.95810(11) 0.3559(3)
O25 O 0.3568(3) 0.87085(9) 0.4972(3)
O26 O 0.0719(3) 0.88164(10) 0.4418(3)
C30 C 0.1817(7) 0.9205(2) 0.6983(5)
H17 H 0.1776 0.9385 0.7648
H18 H 0.2514 0.8985 0.7124
H19 H 0.0864 0.9086 0.6839
O27 O 0.2248(4) 0.94375(11) 0.6025(3)
C31 C 0.3189(6) 0.83901(17) 0.2501(5)
H20 H 0.3295 0.8309 0.1706
H21 H 0.2444 0.8221 0.2852
H22 H 0.4105 0.8350 0.2904
O28 O 0.2782(3) 0.88142(10) 0.2560(3)
Mn4 Mn 0.05660(7) 0.66840(2) 0.42196(6)
C32 C -0.1958(5) 0.63685(14) 0.5340(4)
C33 C -0.2570(6) 0.62054(17) 0.6351(4)
H23 H -0.2048 0.6218 0.7046
C34 C -0.3921(6) 0.60300(19) 0.6313(5)
H24 H -0.4317 0.5924 0.6991
C35 C -0.4718(6) 0.60035(19) 0.5319(5)
H25 H -0.5633 0.5873 0.5312
C36 C -0.4167(6) 0.61688(17) 0.4338(4)
H26 H -0.4722 0.6161 0.3658
C37 C -0.2775(5) 0.63516(15) 0.4333(4)
C38 C -0.2299(5) 0.65199(14) 0.3281(4)
H27 H -0.2955 0.6514 0.2659
C39 C -0.0709(5) 0.68590(17) 0.1995(4)
H28 H -0.1312 0.6719 0.1404
C40 C -0.1027(6) 0.73098(17) 0.1976(4)
H29 H -0.2055 0.7354 0.2110
H30 H -0.0772 0.7423 0.1236
H31 H -0.0463 0.7447 0.2571
C41 C 0.0881(5) 0.67564(19) 0.1794(4)
H32 H 0.0993 0.6463 0.1595
H33 H 0.1266 0.6925 0.1170
C42 C 0.2891(5) 0.70277(15) 0.2859(4)
H34 H 0.3257 0.7113 0.2148
C43 C 0.3749(5) 0.71044(15) 0.3853(4)
C44 C 0.5034(6) 0.73257(17) 0.3725(5)
H35 H 0.5279 0.7427 0.2997
C45 C 0.5947(6) 0.74001(19) 0.4627(5)
H36 H 0.6813 0.7551 0.4529
C46 C 0.5571(6) 0.72492(18) 0.5684(5)
H37 H 0.6189 0.7301 0.6314
C47 C 0.4323(5) 0.70252(17) 0.5847(4)
H38 H 0.4098 0.6927 0.6582
C48 C 0.3393(5) 0.69434(15) 0.4938(4)
N3 N 0.1650(4) 0.68498(12) 0.2874(3)
N4 N -0.1036(4) 0.66811(13) 0.3110(3)
O29 O -0.0650(4) 0.65313(10) 0.5414(3)
O30 O 0.2233(3) 0.67153(11) 0.5122(3)
N5 N 0.0267(5) 0.73965(13) 0.4731(4)
C49 C 0.0681(5) 0.76587(16) 0.5306(4)
C50 C 0.1222(8) 0.79883(17) 0.6021(5)
H39 H 0.2097 0.7897 0.6416
H40 H 0.0490 0.8062 0.6577
H41 H 0.1442 0.8228 0.5552
N6 N 0.0892(5) 0.59878(14) 0.3808(4)
C51 C 0.0665(6) 0.56386(18) 0.3690(4)
C52 C 0.0383(8) 0.51974(17) 0.3530(5)
H42 H 0.0869 0.5101 0.2847
H43 H -0.0656 0.5152 0.3448
H44 H 0.0746 0.5045 0.4189
C53 C 0.5481(9) 0.0133(2) 0.6743(7)
H45 H 0.5639 0.0394 0.7140
H46 H 0.5691 0.0168 0.5937
H47 H 0.6116 -0.0077 0.7066
O31 O 0.4066(5) 0.00140(17) 0.6864(4)
N7 N 0.2330(5) 0.52561(13) 0.6027(4)
C54 C 0.1996(5) 0.55422(15) 0.6511(4)
C55 C 0.1574(6) 0.59192(15) 0.7098(4)
H48 H 0.2427 0.6048 0.7439
H49 H 0.0883 0.5852 0.7692
H50 H 0.1128 0.6109 0.6555
N8 N -0.0445(12) 0.6539(2) 0.9295(5)
C56 C 0.0582(7) 0.70206(17) 0.7772(5)
H51 H 0.0540 0.6885 0.7031
H52 H 0.1583 0.7091 0.7957
H53 H 0.0000 0.7271 0.7750
C57 C 0.0037(9) 0.6750(2) 0.8613(5)
N9 N 0.525(2) 0.9702(4) 0.9386(17)
C58 C 0.5451(13) 0.8975(3) 0.8900(10)
H54 H 0.5091 0.8948 0.8120
H55 H 0.5003 0.8765 0.9375
H56 H 0.6497 0.8939 0.8913
C59 C 0.5124(12) 0.9348(3) 0.9297(10)
loop_
_geom_bond_atom_site_label_1
_geom_bond_atom_site_label_2
_geom_bond_site_symmetry_1
_geom_bond_site_symmetry_2
Cr1 O2 1_555 1_555
Cr2 O10 1_555 1_555
Mn1 O1 1_555 1_555
Mn2 O14 1_555 1_555
C1 C2 1_555 1_555
C2 O1 1_555 1_555
C3 C4 1_555 1_555
C4 O7 1_555 1_555
C5 C6 1_555 1_555
C6 O11 1_555 1_555
C7 C8 1_555 1_555
C8 O13 1_555 1_555
C9 C10 1_555 1_555
C10 O19 1_555 1_555
C11 C12 1_555 1_555
C12 O23 1_555 1_555
O2 C2 1_555 1_555
O3 Mn1 1_555 1_555
O4 Cr1 1_555 1_555
O5 Cr1 1_555 1_555
O6 C3 1_555 1_555
O7 Cr1 1_555 1_555
O8 C4 1_555 1_555
O9 C5 1_555 1_555
O10 C5 1_555 1_555
O11 Mn1A 1_555 1_555
O12 Cr2 1_555 1_555
O13 Cr2 1_555 1_555
O14 C8 1_555 1_555
O15 Cr2 1_555 1_555
O16 Mn2 1_555 1_555
O17 Mn2 1_555 1_555
O18 C9 1_555 1_555
O19 Mn2 1_555 1_555
O20 C10 1_555 1_555
O21 Mn2 1_555 1_555
O22 Cr1 1_555 1_555
O23 Mn2 1_555 1_555
O24 Cr1 1_555 1_555
Mn3 N1 1_555 1_555
C13 C14 1_555 1_555
C14 H1 1_555 1_555
C15 C14 1_555 1_555
H2 C15 1_555 1_555
C16 C15 1_555 1_555
H3 C16 1_555 1_555
C17 C16 1_555 1_555
H4 C17 1_555 1_555
C18 C13 1_555 1_555
C19 C18 1_555 1_555
H5 C19 1_555 1_555
C20 H6 1_555 1_555
C21 C20 1_555 1_555
H7 C21 1_555 1_555
H8 C21 1_555 1_555
H9 C21 1_555 1_555
C22 C20 1_555 1_555
H10 C22 1_555 1_555
H11 C22 1_555 1_555
C23 H12 1_555 1_555
C24 C23 1_555 1_555
C25 C24 1_555 1_555
H13 C25 1_555 1_555
C26 C25 1_555 1_555
H14 C26 1_555 1_555
C27 C26 1_555 1_555
H15 C27 1_555 1_555
C28 C27 1_555 1_555
H16 C28 1_555 1_555
C29 C24 1_555 1_555
N1 C19 1_555 1_555
N2 Mn3 1_555 1_555
O25 Mn3 1_555 1_555
O26 Mn3 1_555 1_555
C30 H17 1_555 1_555
H18 C30 1_555 1_555
H19 C30 1_555 1_555
O27 Mn3 1_555 1_555
C31 H20 1_555 1_555
H21 C31 1_555 1_555
H22 C31 1_555 1_555
O28 Mn3 1_555 1_555
Mn4 N3 1_555 1_555
C32 C33 1_555 1_555
C33 H23 1_555 1_555
C34 C33 1_555 1_555
H24 C34 1_555 1_555
C35 C34 1_555 1_555
H25 C35 1_555 1_555
C36 C35 1_555 1_555
H26 C36 1_555 1_555
C37 C32 1_555 1_555
C38 C37 1_555 1_555
H27 C38 1_555 1_555
C39 H28 1_555 1_555
C40 C39 1_555 1_555
H29 C40 1_555 1_555
H30 C40 1_555 1_555
H31 C40 1_555 1_555
C41 C39 1_555 1_555
H32 C41 1_555 1_555
H33 C41 1_555 1_555
C42 H34 1_555 1_555
C43 C42 1_555 1_555
C44 C43 1_555 1_555
H35 C44 1_555 1_555
C45 C44 1_555 1_555
H36 C45 1_555 1_555
C46 C45 1_555 1_555
H37 C46 1_555 1_555
C47 C46 1_555 1_555
H38 C47 1_555 1_555
C48 C43 1_555 1_555
N3 C41 1_555 1_555
N4 Mn4 1_555 1_555
O29 Mn4 1_555 1_555
O30 Mn4 1_555 1_555
N5 Mn4 1_555 1_555
C49 N5 1_555 1_555
C50 C49 1_555 1_555
H39 C50 1_555 1_555
H40 C50 1_555 1_555
H41 C50 1_555 1_555
N6 Mn4 1_555 1_555
C51 N6 1_555 1_555
C52 C51 1_555 1_555
H42 C52 1_555 1_555
H43 C52 1_555 1_555
H44 C52 1_555 1_555
C53 H45 1_555 1_555
H46 C53 1_555 1_555
H47 C53 1_555 1_555
O31 C53 1_555 1_555
N7 C54 1_555 1_555
C54 C55 1_555 1_555
C55 H48 1_555 1_555
H49 C55 1_555 1_555
H50 C55 1_555 1_555
N8 C57 1_555 1_555
C56 H51 1_555 1_555
H52 C56 1_555 1_555
H53 C56 1_555 1_555
C57 C56 1_555 1_555
N9 C59 1_555 1_555
C58 H54 1_555 1_555
H55 C58 1_555 1_555
H56 C58 1_555 1_555
C59 C58 1_555 1_555
Cr2_2 O18 1_555 1_555
Mn1_2 O6 1_555 1_555
Mn1A O9 1_555 1_555
O6_2 Mn1 1_555 1_555
O8_2 Mn1 1_555 1_555
O9A Mn1 1_555 1_555
O11A Mn1 1_555 1_555
O18_2 Cr2 1_555 1_555
O20_2 Cr2 1_555 1_555
C1 O3 1_555 1_555
C1 O4 1_555 1_555
C3 O5 1_555 1_555
C6 O12 1_555 1_555
C7 O15 1_555 1_555
C7 O16 1_555 1_555
C9 O17 1_555 1_555
C11 O21 1_555 1_555
C11 O22 1_555 1_555
C12 O24 1_555 1_555
O8 Mn1_2 1_555 1_555
O20 Cr2_2 1_555 1_555
C13 O25 1_555 1_555
C17 C18 1_555 1_555
C20 N1 1_555 1_555
C22 N2 1_555 1_555
C23 N2 1_555 1_555
C28 C29 1_555 1_555
C29 O26 1_555 1_555
C30 O27 1_555 1_555
C31 O28 1_555 1_555
C32 O29 1_555 1_555
C36 C37 1_555 1_555
C38 N4 1_555 1_555
C39 N4 1_555 1_555
C42 N3 1_555 1_555
C47 C48 1_555 1_555
C48 O30 1_555 1_555

#END
