
#######################################################################
#
#                 Cambridge Crystallographic Data Centre
#                                CCDC 
#
#######################################################################
#
# If this CIF has been generated from an entry in the Cambridge 
# Structural Database, then it will include bibliographic, chemical, 
# crystal, experimental, refinement or atomic coordinate data resulting 
# from the CCDC's data processing and validation procedures.
#
#######################################################################

data_BEWVUW
_symmetry_cell_setting           monoclinic
_symmetry_space_group_name_H-M   'P 21'
_symmetry_Int_Tables_number      4
_space_group_name_Hall           'P 2yb'
loop_
_symmetry_equiv_pos_site_id
_symmetry_equiv_pos_as_xyz
1 x,y,z
2 -x,1/2+y,-z
_cell_length_a                   9.2943(3)
_cell_length_b                   32.5932(10)
_cell_length_c                   11.8266(5)
_cell_angle_alpha                90
_cell_angle_beta                 90.608(3)
_cell_angle_gamma                90
_cell_volume                     3582.44
loop_
_atom_site_label
_atom_site_type_symbol
_atom_site_fract_x
_atom_site_fract_y
_atom_site_fract_z
C1 C 0.2841(5) 0.90819(13) 0.8978(4)
C2 C 0.2408(5) 0.93051(13) 1.0067(4)
C3 C 0.4653(4) 1.04143(15) 0.9159(4)
C4 C 0.5553(4) 1.03756(12) 1.0284(4)
C5 C 0.2302(5) 1.15602(13) 1.0574(4)
C6 C 0.2704(5) 1.17842(14) 0.9472(4)
C7 C 0.0494(4) 0.78864(14) 1.0292(4)
C8 C -0.0442(5) 0.78787(14) 0.9239(4)
C9 C 0.7468(5) 1.17521(13) 1.0642(4)
C10 C 0.7859(5) 1.15772(13) 0.9480(4)
C11 C 0.7759(5) 0.92941(13) 0.8991(4)
C12 C 0.7267(5) 0.90653(12) 1.0083(4)
O1 O 0.2017(3) 0.88163(9) 0.8584(3)
O2 O 0.4043(3) 0.91909(8) 0.8559(3)
O3 O 0.1250(3) 0.92176(9) 1.0524(3)
O4 O 0.3321(3) 0.95659(9) 1.0439(3)
O5 O 0.4324(3) 1.00761(9) 0.8686(3)
O6 O 0.4290(3) 1.07591(9) 0.8834(3)
O7 O 0.5887(3) 1.00167(8) 1.0546(3)
O8 O 0.5838(3) 1.06926(9) 1.0800(3)
O9 O 0.3152(3) 1.12993(9) 1.0973(3)
O10 O 0.1079(3) 1.16536(9) 1.0988(3)
O11 O 0.3839(3) 1.16924(9) 0.9002(3)
O12 O 0.1803(3) 1.20566(8) 0.9160(3)
O13 O 0.0782(3) 0.75480(9) 1.0733(3)
O14 O 0.0948(3) 0.82364(9) 1.0652(3)
O15 O -0.0854(3) 0.75248(8) 0.8918(3)
O16 O -0.0736(3) 0.82092(9) 0.8750(3)
O17 O 0.6994(3) 1.13488(9) 0.8989(3)
O18 O 0.9094(3) 1.16889(9) 0.9105(3)
O19 O 0.6351(3) 1.16399(10) 1.1083(3)
O20 O 0.8360(3) 1.20081(9) 1.1065(3)
O21 O 0.6015(3) 0.91516(8) 1.0421(3)
O22 O 0.8116(3) 0.88156(9) 1.0509(3)
O23 O 0.6856(3) 0.95605(9) 0.8616(3)
O24 O 0.8933(3) 0.92067(9) 0.8581(3)
Mn1 Mn 0.00870(7) 0.874503(19) 0.95973(6)
Mn2 Mn 0.50716(7) 1.12411(2) 0.99594(7)
Cr1 Cr 0.50900(8) 0.95929(2) 0.95268(7)
Cr2 Cr -0.00830(8) 0.70811(2) 0.98897(7)
O10A O -0.1079(3) 0.66536(9) 0.9012(3)
O12A O -0.1803(3) 0.70566(8) 1.0840(3)
O18A O 0.0906(3) 0.66889(9) 1.0895(3)
O20A O 0.1640(3) 0.70081(9) 0.8935(3)
O22_2 O -0.1884(3) 0.88156(9) 1.0509(3)
O24_2 O -0.1067(3) 0.92067(9) 0.8581(3)
Mn1_2 Mn 1.00870(7) 0.874503(19) 0.95973(6)
Cr2A Cr 0.00830(8) 1.20811(2) 1.01103(7)
Cr2A_2 Cr 1.00830(8) 1.20811(2) 1.01103(7)
C13 C 1.1944(5) 0.57664(14) 0.4654(4)
C14 C 1.2542(5) 0.59255(14) 0.3668(4)
H1 H 1.2016 0.5912 0.2976
C15 C 1.3885(6) 0.61006(15) 0.3692(5)
H2 H 1.4269 0.6208 0.3012
C16 C 1.4716(5) 0.61260(15) 0.4701(5)
H3 H 1.5638 0.6251 0.4703
C17 C 1.4158(5) 0.59655(14) 0.5672(5)
H4 H 1.4706 0.5976 0.6354
C18 C 1.2761(5) 0.57817(13) 0.5674(4)
C19 C 1.2290(5) 0.56136(12) 0.6718(4)
H5 H 1.2942 0.5625 0.7341
C20 C 1.0731(5) 0.52703(14) 0.8006(4)
H6 H 1.1337 0.5410 0.8595
C21 C 1.1030(5) 0.48187(14) 0.8020(4)
H7 H 1.2052 0.4771 0.7872
H8 H 1.0446 0.4683 0.7435
H9 H 1.0788 0.4706 0.8763
C22 C 0.9125(5) 0.53725(17) 0.8198(4)
H10 H 0.8736 0.5202 0.8817
H11 H 0.9013 0.5665 0.8404
C23 C 0.7114(5) 0.51061(13) 0.7132(4)
H12 H 0.6746 0.5021 0.7840
C24 C 0.6259(5) 0.50296(14) 0.6143(4)
C25 C 0.4974(5) 0.48029(15) 0.6279(4)
H13 H 0.4741 0.4697 0.7002
C26 C 0.4044(5) 0.47337(15) 0.5364(5)
H14 H 0.3172 0.4587 0.5465
C27 C 0.4414(5) 0.48844(15) 0.4294(5)
H15 H 0.3803 0.4833 0.3661
C28 C 0.5665(5) 0.51067(14) 0.4160(4)
H16 H 0.5893 0.5210 0.3432
C29 C 0.6604(5) 0.51836(14) 0.5064(4)
N1 N 1.1035(4) 0.54453(12) 0.6890(3)
N2 N 0.8351(4) 0.52837(10) 0.7122(3)
O25 O 1.0629(3) 0.56004(9) 0.4592(3)
O26 O 0.7759(3) 0.54183(10) 0.4876(3)
Mn3 Mn 0.94256(7) 0.54473(2) 0.57818(6)
C30 C 0.9348(6) 0.64853(17) 0.6308(5)
C31 C 0.9603(6) 0.69296(15) 0.6445(5)
H17 H 0.8819 0.7083 0.6078
H18 H 1.0519 0.7003 0.6095
H19 H 0.9640 0.6998 0.7251
C32 C 0.9308(5) 0.44725(14) 0.4715(4)
C33 C 0.8795(7) 0.41438(13) 0.3968(5)
H20 H 0.7798 0.4199 0.3737
H21 H 0.8841 0.3881 0.4371
H22 H 0.9402 0.4131 0.3297
N3 N 0.9099(4) 0.61364(13) 0.6183(4)
N4 N 0.9732(4) 0.47327(12) 0.5272(4)
C34 C 0.4888(5) 0.83886(13) 0.5396(4)
C35 C 0.5442(5) 0.87156(16) 0.6028(4)
H23 H 0.4856 0.8949 0.6160
C36 C 0.6833(5) 0.87058(17) 0.6468(4)
H24 H 0.7202 0.8936 0.6868
C37 C 0.7677(5) 0.83652(17) 0.6327(4)
H25 H 0.8608 0.8354 0.6666
C38 C 0.7183(5) 0.80450(17) 0.5705(4)
H26 H 0.7795 0.7816 0.5586
C39 C 0.5799(5) 0.80423(15) 0.5233(4)
C40 C 0.5354(5) 0.77007(13) 0.4533(4)
H27 H 0.6059 0.7497 0.4389
C41 C 0.3819(5) 0.72866(14) 0.3369(5)
H28 H 0.4461 0.7056 0.3614
C42 C 0.4078(6) 0.73734(18) 0.2178(6)
H29 H 0.5088 0.7451 0.2080
H30 H 0.3455 0.7599 0.1928
H31 H 0.3867 0.7128 0.1727
C43 C 0.2248(5) 0.71601(14) 0.3564(5)
H32 H 0.1902 0.6978 0.2949
H33 H 0.2153 0.7015 0.4294
C44 C 0.0144(5) 0.75681(12) 0.3158(4)
H34 H -0.0229 0.7324 0.2828
C45 C -0.0761(4) 0.79184(13) 0.3149(4)
C46 C -0.2083(5) 0.79054(13) 0.2525(4)
H35 H -0.2336 0.7663 0.2124
C47 C -0.2989(5) 0.82333(14) 0.2492(4)
H36 H -0.3878 0.8216 0.2092
C48 C -0.2609(5) 0.85931(13) 0.3044(4)
H37 H -0.3227 0.8825 0.2990
C49 C -0.1362(5) 0.86214(13) 0.3664(4)
H38 H -0.1124 0.8873 0.4028
C50 C -0.0420(5) 0.82815(13) 0.3772(4)
N5 N 0.4115(4) 0.76448(10) 0.4089(3)
N6 N 0.1417(4) 0.75526(10) 0.3570(3)
O27 O 0.3565(3) 0.84219(8) 0.4966(3)
O28 O 0.0720(3) 0.83152(8) 0.4428(3)
Mn4 Mn 0.24390(7) 0.80119(2) 0.42981(6)
C51 C 0.1830(6) 0.7923(2) 0.6976(5)
H39 H 0.2598 0.8114 0.7197
H40 H 0.1635 0.7736 0.7604
H41 H 0.0956 0.8078 0.6789
C52 C 0.3151(6) 0.87393(15) 0.2514(4)
H42 H 0.2278 0.8903 0.2394
H43 H 0.3815 0.8786 0.1889
H44 H 0.3614 0.8820 0.3228
O29 O 0.2262(3) 0.76952(9) 0.6024(3)
O30 O 0.2780(3) 0.83163(8) 0.2558(3)
C53 C 0.8017(5) 0.65863(14) 0.3502(4)
C54 C 0.8426(5) 0.62155(13) 0.2916(4)
H45 H 0.8787 0.6014 0.3465
H46 H 0.9182 0.6279 0.2372
H47 H 0.7587 0.6103 0.2516
N7 N 0.7685(4) 0.68768(12) 0.3965(4)
C55 C 0.5487(8) 0.70055(19) 0.6739(6)
H48 H 0.6105 0.7219 0.7067
H49 H 0.5700 0.6975 0.5933
H50 H 0.5667 0.6745 0.7128
O31 O 0.4057(5) 0.71154(14) 0.6864(4)
C56 C 0.9930(7) 0.5369(2) 0.1401(6)
C57 C 0.9417(6) 0.51068(15) 0.2223(5)
H51 H 0.8395 0.5051 0.2079
H52 H 0.9535 0.5234 0.2968
H53 H 0.9957 0.4849 0.2203
N8 N 1.0419(7) 0.5591(2) 0.0696(6)
C58 C 0.5423(10) 0.8155(2) 0.8912(8)
H54 H 0.4658 0.8340 0.9163
H55 H 0.5470 0.8160 0.8085
H56 H 0.6346 0.8246 0.9232
C59 C 0.5157(10) 0.7791(3) 0.9246(9)
N9 N 0.5183(14) 0.7468(3) 0.9420(12)
loop_
_geom_bond_atom_site_label_1
_geom_bond_atom_site_label_2
_geom_bond_site_symmetry_1
_geom_bond_site_symmetry_2
C1 C2 1_555 1_555
C2 O3 1_555 1_555
C3 C4 1_555 1_555
C4 O7 1_555 1_555
C5 C6 1_555 1_555
C6 O11 1_555 1_555
C7 C8 1_555 1_555
C8 O15 1_555 1_555
C9 C10 1_555 1_555
C10 O17 1_555 1_555
C11 C12 1_555 1_555
C12 O21 1_555 1_555
O1 C1 1_555 1_555
O2 C1 1_555 1_555
O3 Mn1 1_555 1_555
O4 C2 1_555 1_555
O5 C3 1_555 1_555
O6 C3 1_555 1_555
O7 Cr1 1_555 1_555
O8 C4 1_555 1_555
O9 C5 1_555 1_555
O10 C5 1_555 1_555
O11 Mn2 1_555 1_555
O12 C6 1_555 1_555
O13 C7 1_555 1_555
O14 C7 1_555 1_555
O15 Cr2 1_555 1_555
O16 C8 1_555 1_555
O17 Mn2 1_555 1_555
O18 C10 1_555 1_555
O19 C9 1_555 1_555
O20 C9 1_555 1_555
O21 Cr1 1_555 1_555
O22 C12 1_555 1_555
O23 C11 1_555 1_555
O24 C11 1_555 1_555
Mn1 O1 1_555 1_555
Mn2 O6 1_555 1_555
Cr1 O2 1_555 1_555
Cr2 O13 1_555 1_555
C13 C14 1_555 1_555
C14 H1 1_555 1_555
C15 C14 1_555 1_555
H2 C15 1_555 1_555
C16 C15 1_555 1_555
H3 C16 1_555 1_555
C17 C16 1_555 1_555
H4 C17 1_555 1_555
C18 C13 1_555 1_555
C19 C18 1_555 1_555
H5 C19 1_555 1_555
C20 H6 1_555 1_555
C21 C20 1_555 1_555
H7 C21 1_555 1_555
H8 C21 1_555 1_555
H9 C21 1_555 1_555
C22 C20 1_555 1_555
H10 C22 1_555 1_555
H11 C22 1_555 1_555
C23 H12 1_555 1_555
C24 C23 1_555 1_555
C25 C24 1_555 1_555
H13 C25 1_555 1_555
C26 C25 1_555 1_555
H14 C26 1_555 1_555
C27 C26 1_555 1_555
H15 C27 1_555 1_555
C28 C27 1_555 1_555
H16 C28 1_555 1_555
C29 C24 1_555 1_555
N1 C19 1_555 1_555
N2 C22 1_555 1_555
O25 C13 1_555 1_555
O26 C29 1_555 1_555
Mn3 N1 1_555 1_555
C30 C31 1_555 1_555
C31 H17 1_555 1_555
H18 C31 1_555 1_555
H19 C31 1_555 1_555
C32 C33 1_555 1_555
C33 H20 1_555 1_555
H21 C33 1_555 1_555
H22 C33 1_555 1_555
N3 Mn3 1_555 1_555
N4 Mn3 1_555 1_555
C34 C35 1_555 1_555
C35 H23 1_555 1_555
C36 C35 1_555 1_555
H24 C36 1_555 1_555
C37 C36 1_555 1_555
H25 C37 1_555 1_555
C38 C37 1_555 1_555
H26 C38 1_555 1_555
C39 C34 1_555 1_555
C40 C39 1_555 1_555
H27 C40 1_555 1_555
C41 H28 1_555 1_555
C42 C41 1_555 1_555
H29 C42 1_555 1_555
H30 C42 1_555 1_555
H31 C42 1_555 1_555
C43 C41 1_555 1_555
H32 C43 1_555 1_555
H33 C43 1_555 1_555
C44 H34 1_555 1_555
C45 C44 1_555 1_555
C46 C45 1_555 1_555
H35 C46 1_555 1_555
C47 C46 1_555 1_555
H36 C47 1_555 1_555
C48 C47 1_555 1_555
H37 C48 1_555 1_555
C49 C48 1_555 1_555
H38 C49 1_555 1_555
C50 C45 1_555 1_555
N5 C40 1_555 1_555
N6 C43 1_555 1_555
O27 C34 1_555 1_555
O28 C50 1_555 1_555
Mn4 N5 1_555 1_555
C51 H39 1_555 1_555
H40 C51 1_555 1_555
H41 C51 1_555 1_555
C52 H42 1_555 1_555
H43 C52 1_555 1_555
H44 C52 1_555 1_555
O29 Mn4 1_555 1_555
O30 Mn4 1_555 1_555
C53 C54 1_555 1_555
C54 H45 1_555 1_555
H46 C54 1_555 1_555
H47 C54 1_555 1_555
N7 C53 1_555 1_555
C55 H48 1_555 1_555
H49 C55 1_555 1_555
H50 C55 1_555 1_555
O31 C55 1_555 1_555
C56 C57 1_555 1_555
C57 H51 1_555 1_555
H52 C57 1_555 1_555
H53 C57 1_555 1_555
N8 C56 1_555 1_555
C58 H54 1_555 1_555
H55 C58 1_555 1_555
H56 C58 1_555 1_555
C59 C58 1_555 1_555
N9 C59 1_555 1_555
O10A Cr2 1_555 1_555
O12A Cr2 1_555 1_555
O18A Cr2 1_555 1_555
O20A Cr2 1_555 1_555
O22_2 Mn1 1_555 1_555
O24_2 Mn1 1_555 1_555
Mn1_2 O22 1_555 1_555
Cr2A O10 1_555 1_555
Cr2A_2 O18 1_555 1_555
O4 Cr1 1_555 1_555
O5 Cr1 1_555 1_555
O8 Mn2 1_555 1_555
O9 Mn2 1_555 1_555
O12 Cr2A 1_555 1_555
O14 Mn1 1_555 1_555
O16 Mn1 1_555 1_555
O19 Mn2 1_555 1_555
O20 Cr2A_2 1_555 1_555
O23 Cr1 1_555 1_555
O24 Mn1_2 1_555 1_555
C17 C18 1_555 1_555
C20 N1 1_555 1_555
C23 N2 1_555 1_555
C28 C29 1_555 1_555
N2 Mn3 1_555 1_555
O25 Mn3 1_555 1_555
O26 Mn3 1_555 1_555
C30 N3 1_555 1_555
C32 N4 1_555 1_555
C38 C39 1_555 1_555
C41 N5 1_555 1_555
C44 N6 1_555 1_555
C49 C50 1_555 1_555
N6 Mn4 1_555 1_555
O27 Mn4 1_555 1_555
O28 Mn4 1_555 1_555
C51 O29 1_555 1_555
C52 O30 1_555 1_555

#END
