
#######################################################################
#
#                 Cambridge Crystallographic Data Centre
#                                CCDC 
#
#######################################################################
#
# If this CIF has been generated from an entry in the Cambridge 
# Structural Database, then it will include bibliographic, chemical, 
# crystal, experimental, refinement or atomic coordinate data resulting 
# from the CCDC's data processing and validation procedures.
#
#######################################################################

data_BEWWAD
_symmetry_cell_setting           triclinic
_symmetry_space_group_name_H-M   'P -1'
_symmetry_Int_Tables_number      2
_space_group_name_Hall           '-P 1'
loop_
_symmetry_equiv_pos_site_id
_symmetry_equiv_pos_as_xyz
1 x,y,z
2 -x,-y,-z
_cell_length_a                   9.5551(5)
_cell_length_b                   11.8076(5)
_cell_length_c                   15.8509(8)
_cell_angle_alpha                101.420(4)
_cell_angle_beta                 95.207(4)
_cell_angle_gamma                93.581(4)
_cell_volume                     1739.77
loop_
_atom_site_label
_atom_site_type_symbol
_atom_site_fract_x
_atom_site_fract_y
_atom_site_fract_z
C22 C 0.4877(5) 0.0595(3) 0.0263(3)
O4 O 0.3687(3) 0.0950(2) 0.01639(17)
O5 O 0.5904(3) 0.1122(2) 0.07792(17)
C23 C -0.0198(5) 0.0504(3) -0.0188(3)
O6 O 0.0648(3) 0.0847(2) -0.06840(19)
O7 O -0.1291(3) 0.0974(2) 0.00220(19)
C24 C 0.3100(4) 0.0353(3) -0.2413(3)
C25 C 0.2137(4) -0.0779(3) -0.2642(3)
C26 C 0.5179(4) -0.0582(3) -0.4898(2)
C27 C -0.0116(5) 0.0498(3) -0.4636(3)
O8 O 0.3358(3) 0.0809(2) -0.16223(18)
O9 O 0.3570(3) 0.0735(2) -0.30295(17)
O10 O 0.1660(3) -0.1140(2) -0.20230(19)
O11 O 0.1909(3) -0.1240(2) -0.34327(19)
O12 O 0.4329(3) -0.1089(2) -0.45156(17)
O13 O 0.6320(3) -0.0949(2) -0.51476(17)
O14 O 0.0875(3) 0.0795(2) -0.40362(18)
O15 O -0.1271(3) 0.0951(2) -0.46895(18)
Cr1 Cr 0.26061(7) -0.01668(5) -0.42352(4)
Cr2 Cr 0.23748(7) -0.01271(5) -0.08258(4)
C22A C 0.5123(5) -0.0595(3) -0.0263(3)
O4A O 0.6313(3) -0.0950(2) -0.01639(17)
O5A O 0.4096(3) -0.1122(2) -0.07792(17)
C23A C 0.0198(5) -0.0504(3) 0.0188(3)
O6A O -0.0648(3) -0.0847(2) 0.06840(19)
O7A O 0.1291(3) -0.0974(2) -0.00220(19)
C26A C 0.4821(4) 0.0582(3) -0.5102(2)
O12A O 0.5671(3) 0.1089(2) -0.54844(17)
O13A O 0.3680(3) 0.0949(2) -0.48524(17)
C27A C 0.0116(5) -0.0498(3) -0.5364(3)
O14A O -0.0875(3) -0.0795(2) -0.59638(18)
O15A O 0.1271(3) -0.0951(2) -0.53105(18)
C24A C -0.3100(4) -0.0353(3) -0.7587(3)
C25A C -0.2137(4) 0.0779(3) -0.7358(3)
O8A O -0.3358(3) -0.0809(2) -0.83777(18)
O9A O -0.3570(3) -0.0735(2) -0.69705(17)
O10A O -0.1660(3) 0.1140(2) -0.79770(19)
O11A O -0.1909(3) 0.1240(2) -0.65673(19)
Cr1A Cr -0.26061(7) 0.01668(5) -0.57648(4)
Cr2A Cr -0.23748(7) 0.01271(5) -0.91742(4)
O4A_2 O -0.3687(3) -0.0950(2) -1.01639(17)
O5_2 O -0.4096(3) 0.1122(2) -0.92208(17)
O6A_2 O -0.0648(3) -0.0847(2) -0.93160(19)
O7_2 O -0.1291(3) 0.0974(2) -0.99780(19)
O12A_2 O -0.4329(3) 0.1089(2) -0.54844(17)
O13_2 O -0.3680(3) -0.0949(2) -0.51476(17)
Cr1A_2 Cr 0.73939(7) 0.01668(5) -0.57648(4)
Cr2A_2 Cr -0.23748(7) 0.01271(5) 0.08258(4)
Cr2A_3 Cr 0.76252(7) 0.01271(5) 0.08258(4)
N3 N 0.0678(4) 0.3769(3) 0.1018(3)
C28 C 0.0089(5) 0.3570(3) 0.0334(3)
C29 C -0.0675(5) 0.3343(3) -0.0532(3)
H26 H -0.1639 0.3022 -0.0508
H27 H -0.0194 0.2786 -0.0925
H28 H -0.0706 0.4068 -0.0742
O16 O 0.3862(3) 0.8089(3) 0.3205(2)
H29 H 0.4623 0.8293 0.3030
C30 C 0.2705(5) 0.8391(4) 0.2681(3)
H30 H 0.1861 0.7886 0.2705
H31 H 0.2930 0.8292 0.2081
H32 H 0.2529 0.9200 0.2897
C1 C 0.4345(4) 0.5480(3) 0.1456(3)
C2 C 0.4958(4) 0.6373(3) 0.1102(3)
H1 H 0.4476 0.7049 0.1082
C3 C 0.6240(5) 0.6276(4) 0.0785(3)
H2 H 0.6644 0.6886 0.0551
C4 C 0.6944(4) 0.5307(4) 0.0803(3)
H3 H 0.7823 0.5244 0.0570
C5 C 0.6406(5) 0.4434(3) 0.1150(3)
H4 H 0.6915 0.3771 0.1165
C6 C 0.5099(4) 0.4507(3) 0.1486(3)
C7 C 0.4569(4) 0.3561(3) 0.1840(3)
H5 H 0.5100 0.2901 0.1777
C8 C 0.2992(5) 0.2401(3) 0.2539(3)
C9 C 0.1896(4) 0.1644(3) 0.1835(2)
H6 H 0.2350 0.1376 0.1310
H7 H 0.1118 0.2105 0.1703
H8 H 0.1528 0.0973 0.2050
C10 C 0.4275(4) 0.1709(3) 0.2699(3)
H9 H 0.4688 0.1464 0.2155
H10 H 0.3971 0.1025 0.2920
H11 H 0.4981 0.2200 0.3125
C11 C 0.2271(4) 0.2808(3) 0.3342(3)
C12 C 0.1503(4) 0.1819(3) 0.3636(3)
H12 H 0.1065 0.2123 0.4161
H13 H 0.2174 0.1263 0.3759
H14 H 0.0772 0.1430 0.3178
C13 C 0.3394(4) 0.3456(3) 0.4091(3)
H15 H 0.3896 0.4097 0.3904
H16 H 0.4068 0.2914 0.4237
H17 H 0.2921 0.3762 0.4602
C14 C 0.0038(4) 0.3727(3) 0.3313(3)
H18 H -0.0313 0.3109 0.3559
C15 C -0.0888(4) 0.4601(3) 0.3223(3)
C16 C -0.2204(4) 0.4506(3) 0.3544(3)
H19 H -0.2470 0.3832 0.3753
C17 C -0.3107(4) 0.5354(4) 0.3562(3)
H20 H -0.3994 0.5279 0.3780
C18 C -0.2696(4) 0.6333(4) 0.3252(3)
H21 H -0.3302 0.6945 0.3282
C19 C -0.1449(4) 0.6441(3) 0.2906(3)
H22 H -0.1212 0.7114 0.2688
C20 C -0.0515(4) 0.5563(3) 0.2870(3)
N1 N 0.3463(4) 0.3502(3) 0.2232(2)
N2 N 0.1309(3) 0.3686(3) 0.3095(2)
O1 O 0.3084(3) 0.5602(2) 0.17248(18)
O2 O 0.0655(3) 0.5708(2) 0.25217(18)
Mn1 Mn 0.21295(6) 0.47174(5) 0.23900(4)
O3 O 0.3342(3) 0.5962(2) 0.35373(17)
C21 C 0.2651(5) 0.6348(3) 0.4300(3)
H23 H 0.1942 0.6875 0.4176
H24 H 0.3349 0.6755 0.4770
H25 H 0.2190 0.5677 0.4472
Mn2? Mn 0.26061(7) -0.01668(5) -0.42352(4)
Mn3? Mn 0.23748(7) -0.01271(5) -0.08258(4)
loop_
_geom_bond_atom_site_label_1
_geom_bond_atom_site_label_2
_geom_bond_site_symmetry_1
_geom_bond_site_symmetry_2
C1 C2 1_555 1_555
C2 H1 1_555 1_555
C3 C2 1_555 1_555
H2 C3 1_555 1_555
C4 C3 1_555 1_555
H3 C4 1_555 1_555
C5 C4 1_555 1_555
H4 C5 1_555 1_555
C6 C1 1_555 1_555
C7 C6 1_555 1_555
H5 C7 1_555 1_555
C8 C9 1_555 1_555
C9 H6 1_555 1_555
H7 C9 1_555 1_555
H8 C9 1_555 1_555
C10 C8 1_555 1_555
H9 C10 1_555 1_555
H10 C10 1_555 1_555
H11 C10 1_555 1_555
C11 C8 1_555 1_555
C12 C11 1_555 1_555
H12 C12 1_555 1_555
H13 C12 1_555 1_555
H14 C12 1_555 1_555
C13 C11 1_555 1_555
H15 C13 1_555 1_555
H16 C13 1_555 1_555
H17 C13 1_555 1_555
C14 H18 1_555 1_555
C15 C14 1_555 1_555
C16 C15 1_555 1_555
H19 C16 1_555 1_555
C17 C16 1_555 1_555
H20 C17 1_555 1_555
C18 C17 1_555 1_555
H21 C18 1_555 1_555
C19 C18 1_555 1_555
H22 C19 1_555 1_555
C20 C15 1_555 1_555
N1 C7 1_555 1_555
N2 C11 1_555 1_555
O1 C1 1_555 1_555
O2 C20 1_555 1_555
Mn1 N1 1_555 1_555
O3 Mn1 1_555 1_555
C21 O3 1_555 1_555
H23 C21 1_555 1_555
H24 C21 1_555 1_555
H25 C21 1_555 1_555
C22 O4 1_555 1_555
O4 Cr2 1_555 1_555
O5 C22 1_555 1_555
C23 O6 1_555 1_555
O6 Cr2 1_555 1_555
O7 C23 1_555 1_555
C24 C25 1_555 1_555
C25 O10 1_555 1_555
C26 O12 1_555 1_555
C27 O14 1_555 1_555
O8 C24 1_555 1_555
O9 C24 1_555 1_555
O10 Cr2 1_555 1_555
O11 C25 1_555 1_555
O12 Cr1 1_555 1_555
O13 C26 1_555 1_555
O14 Cr1 1_555 1_555
O15 C27 1_555 1_555
Cr1 O9 1_555 1_555
Cr2 O8 1_555 1_555
N3 C28 1_555 1_555
C28 C29 1_555 1_555
C29 H26 1_555 1_555
H27 C29 1_555 1_555
H28 C29 1_555 1_555
O16 H29 1_555 1_555
C30 O16 1_555 1_555
H30 C30 1_555 1_555
H31 C30 1_555 1_555
H32 C30 1_555 1_555
C22A C22 1_555 1_555
O4A C22A 1_555 1_555
O5A Cr2 1_555 1_555
C23A C23 1_555 1_555
O6A C23A 1_555 1_555
O7A Cr2 1_555 1_555
C26A C26 1_555 1_555
O12A C26A 1_555 1_555
O13A Cr1 1_555 1_555
C27A C27 1_555 1_555
O14A C27A 1_555 1_555
O15A Cr1 1_555 1_555
C24A C25A 1_555 1_555
C25A O10A 1_555 1_555
O8A C24A 1_555 1_555
O9A C24A 1_555 1_555
O10A Cr2A 1_555 1_555
O11A C25A 1_555 1_555
Cr1A O15 1_555 1_555
Cr2A O8A 1_555 1_555
O4A_2 Cr2A 1_555 1_555
O5_2 Cr2A 1_555 1_555
O6A_2 Cr2A 1_555 1_555
O7_2 Cr2A 1_555 1_555
O12A_2 Cr1A 1_555 1_555
O13_2 Cr1A 1_555 1_555
Cr1A_2 O13 1_555 1_555
Cr2A_2 O7 1_555 1_555
Cr2A_3 O5 1_555 1_555
C5 C6 1_555 1_555
C8 N1 1_555 1_555
C14 N2 1_555 1_555
C19 C20 1_555 1_555
N2 Mn1 1_555 1_555
O1 Mn1 1_555 1_555
O2 Mn1 1_555 1_555
O11 Cr1 1_555 1_555
C22A O5A 1_555 1_555
O4A Cr2A_3 1_555 1_555
C23A O7A 1_555 1_555
O6A Cr2A_2 1_555 1_555
C26A O13A 1_555 1_555
O12A Cr1A_2 1_555 1_555
C27A O15A 1_555 1_555
O14A Cr1A 1_555 1_555
O9A Cr1A 1_555 1_555
O11A Cr1A 1_555 1_555

#END
