
#######################################################################
#
#                 Cambridge Crystallographic Data Centre
#                                CCDC 
#
#######################################################################
#
# If this CIF has been generated from an entry in the Cambridge 
# Structural Database, then it will include bibliographic, chemical, 
# crystal, experimental, refinement or atomic coordinate data resulting 
# from the CCDC's data processing and validation procedures.
#
#######################################################################

data_BEXBOW
_symmetry_cell_setting           monoclinic
_symmetry_space_group_name_H-M   'P 21/c'
_symmetry_Int_Tables_number      14
_space_group_name_Hall           '-P 2ybc'
loop_
_symmetry_equiv_pos_site_id
_symmetry_equiv_pos_as_xyz
1 x,y,z
2 x,1/2-y,1/2+z
3 -x,-y,-z
4 -x,1/2+y,1/2-z
_cell_length_a                   8.3343(17)
_cell_length_b                   21.190(4)
_cell_length_c                   8.6625(17)
_cell_angle_alpha                90
_cell_angle_beta                 105.91(3)
_cell_angle_gamma                90
_cell_volume                     1471.23
loop_
_atom_site_label
_atom_site_type_symbol
_atom_site_fract_x
_atom_site_fract_y
_atom_site_fract_z
Cd1 Cd 0.0000 -0.5000 0.5000
C1 C -0.0714(9) -0.4344(5) 0.1401(9)
H1 H -0.1855 -0.4366 0.1288
C2 C 0.1826(8) -0.4406(3) 0.2375(7)
H2 H 0.2880 -0.4483 0.3060
C3 C 0.2747(9) -0.4005(4) 0.0033(8)
H3 H 0.2139 -0.3899 -0.1060
H4 H 0.3438 -0.4370 -0.0010
C4 C 0.3852(8) -0.3462(3) 0.0753(7)
C5 C 0.5309(9) -0.3573(3) 0.1866(10)
H5 H 0.5628 -0.3987 0.2162
C6 C 0.6334(10) -0.3080(4) 0.2572(9)
H6 H 0.7331 -0.3169 0.3340
C7 C 0.5922(9) -0.2461(3) 0.2172(7)
C8 C 0.4445(10) -0.2358(4) 0.0968(10)
H7 H 0.4154 -0.1949 0.0612
C9 C 0.3412(10) -0.2849(4) 0.0299(11)
H8 H 0.2408 -0.2767 -0.0466
C10 C 0.6993(10) -0.1923(3) 0.3011(8)
H9 H 0.6279 -0.1598 0.3252
H10 H 0.7714 -0.2074 0.4021
C11 C 0.8000(8) -0.1064(3) 0.1528(7)
H11 H 0.7230 -0.0758 0.1617
C12 C 0.9976(8) -0.1544(3) 0.1014(8)
H12 H 1.0899 -0.1628 0.0641
N1 N 0.0421(6) -0.4515(2) 0.2736(6)
N2 N 0.1552(6) -0.4173(2) 0.0928(5)
N3 N -0.0091(8) -0.4140(4) 0.0257(8)
N4 N 0.8025(7) -0.1645(2) 0.2061(6)
N5 N 0.9309(7) -0.1971(3) 0.1743(7)
N6 N 0.9229(6) -0.0972(2) 0.0842(6)
N7 N 0.3890(5) -0.4663(2) 0.6736(6)
O1 O 0.2756(9) -0.4984(4) 0.6628(11)
O2 O 0.3514(13) -0.4153(5) 0.6074(12)
O3 O 0.5183(6) -0.4664(3) 0.7903(6)
N6A N -0.0771(6) -0.4028(2) 0.5842(6)
Cd1A Cd 1.0000 0.0000 0.0000
Cd1A_2 Cd 1.0000 -1.0000 0.0000
N1C N 0.9579(6) -0.9515(2) 0.2264(6)
C1C C 1.0714(9) -0.9344(5) 0.3599(9)
H1C H 1.1855 -0.9366 0.3712
N3C N 1.0091(8) -0.9140(4) 0.4743(8)
N2C N 0.8448(6) -0.9173(2) 0.4072(5)
C2C C 0.8174(8) -0.9406(3) 0.2625(7)
H2C H 0.7120 -0.9483 0.1940
C3C C 0.7253(9) -0.9005(4) 0.4967(8)
H3C H 0.7861 -0.8899 0.6060
H4C H 0.6562 -0.9370 0.5010
C4C C 0.6148(8) -0.8462(3) 0.4247(7)
C5C C 0.4691(9) -0.8573(3) 0.3134(10)
H5C H 0.4372 -0.8987 0.2838
C6C C 0.3666(10) -0.8080(4) 0.2428(9)
H6C H 0.2669 -0.8169 0.1660
C7C C 0.4078(9) -0.7461(3) 0.2828(7)
C8C C 0.5555(10) -0.7358(4) 0.4032(10)
H7C H 0.5846 -0.6949 0.4388
C9C C 0.6588(10) -0.7849(4) 0.4701(11)
H8C H 0.7592 -0.7767 0.5466
C10C C 0.3007(10) -0.6923(3) 0.1989(8)
H9C H 0.3721 -0.6598 0.1748
H10C H 0.2286 -0.7074 0.0979
N4C N 0.1975(7) -0.6645(2) 0.2939(6)
C11C C 0.2000(8) -0.6064(3) 0.3472(7)
H11C H 0.2770 -0.5758 0.3383
N6C N 0.0771(6) -0.5972(2) 0.4158(6)
N1B N -0.0421(6) -0.5485(2) 0.7264(6)
O1B O -0.2756(9) -0.5016(4) 0.3372(11)
N7B N -0.3890(5) -0.5337(2) 0.3264(6)
O2B O -0.3514(13) -0.5847(5) 0.3926(12)
O3B O -0.5183(6) -0.5336(3) 0.2097(6)
C12C C 0.0024(8) -0.6544(3) 0.3986(8)
H12C H -0.0899 -0.6628 0.4359
N5C N 0.0691(7) -0.6971(3) 0.3257(7)
loop_
_geom_bond_atom_site_label_1
_geom_bond_atom_site_label_2
_geom_bond_site_symmetry_1
_geom_bond_site_symmetry_2
Cd1 N1 1_555 1_555
C1 H1 1_555 1_555
C2 H2 1_555 1_555
C3 H3 1_555 1_555
H4 C3 1_555 1_555
C4 C3 1_555 1_555
C5 C4 1_555 1_555
H5 C5 1_555 1_555
C6 C5 1_555 1_555
H6 C6 1_555 1_555
C7 C6 1_555 1_555
C8 C7 1_555 1_555
H7 C8 1_555 1_555
C9 C4 1_555 1_555
H8 C9 1_555 1_555
C10 C7 1_555 1_555
H9 C10 1_555 1_555
H10 C10 1_555 1_555
C11 H11 1_555 1_555
C12 H12 1_555 1_555
N1 C1 1_555 1_555
N2 C2 1_555 1_555
N3 C1 1_555 1_555
N4 C10 1_555 1_555
N5 C12 1_555 1_555
N6 C11 1_555 1_555
N7 O1 1_555 1_555
O1 Cd1 1_555 1_555
O2 N7 1_555 1_555
O3 N7 1_555 1_555
N6A Cd1 1_555 1_555
Cd1A N6 1_555 1_555
Cd1A_2 N1C 1_555 1_555
N1C C1C 1_555 1_555
C1C H1C 1_555 1_555
N3C C1C 1_555 1_555
N2C N3C 1_555 1_555
C2C N1C 1_555 1_555
H2C C2C 1_555 1_555
C3C N2C 1_555 1_555
H3C C3C 1_555 1_555
H4C C3C 1_555 1_555
C4C C3C 1_555 1_555
C5C C4C 1_555 1_555
H5C C5C 1_555 1_555
C6C C5C 1_555 1_555
H6C C6C 1_555 1_555
C7C C6C 1_555 1_555
C8C C7C 1_555 1_555
H7C C8C 1_555 1_555
C9C C4C 1_555 1_555
H8C C9C 1_555 1_555
C10C C7C 1_555 1_555
H9C C10C 1_555 1_555
H10C C10C 1_555 1_555
N4C C10C 1_555 1_555
C11C N4C 1_555 1_555
H11C C11C 1_555 1_555
N6C Cd1 1_555 1_555
N1B Cd1 1_555 1_555
O1B Cd1 1_555 1_555
N7B O1B 1_555 1_555
O2B N7B 1_555 1_555
O3B N7B 1_555 1_555
C12C N6C 1_555 1_555
H12C C12C 1_555 1_555
N5C N4C 1_555 1_555
C2 N1 1_555 1_555
C3 N2 1_555 1_555
C8 C9 1_555 1_555
C11 N4 1_555 1_555
C12 N6 1_555 1_555
N2 N3 1_555 1_555
N4 N5 1_555 1_555
N2C C2C 1_555 1_555
C8C C9C 1_555 1_555
C11C N6C 1_555 1_555
C12C N5C 1_555 1_555

#END
