
#######################################################################
#
#                 Cambridge Crystallographic Data Centre
#                                CCDC 
#
#######################################################################
#
# If this CIF has been generated from an entry in the Cambridge 
# Structural Database, then it will include bibliographic, chemical, 
# crystal, experimental, refinement or atomic coordinate data resulting 
# from the CCDC's data processing and validation procedures.
#
#######################################################################

data_BEXBUC
_symmetry_cell_setting           monoclinic
_symmetry_space_group_name_H-M   'P 21/c'
_symmetry_Int_Tables_number      14
_space_group_name_Hall           '-P 2ybc'
loop_
_symmetry_equiv_pos_site_id
_symmetry_equiv_pos_as_xyz
1 x,y,z
2 x,1/2-y,1/2+z
3 -x,-y,-z
4 -x,1/2+y,1/2-z
_cell_length_a                   7.6765(15)
_cell_length_b                   21.895(4)
_cell_length_c                   8.9479(18)
_cell_angle_alpha                90
_cell_angle_beta                 109.23(3)
_cell_angle_gamma                90
_cell_volume                     1420.02
loop_
_atom_site_label
_atom_site_type_symbol
_atom_site_fract_x
_atom_site_fract_y
_atom_site_fract_z
Cd1 Cd 0.0000 -0.5000 0.0000
Cl1 Cl 0.34813(8) -0.47436(3) 0.16234(7)
N1 N 0.0403(3) -0.45375(9) -0.2242(2)
N2 N -0.0070(3) -0.42144(12) -0.4727(3)
N3 N 0.1753(3) -0.42551(9) -0.3911(2)
N4 N 0.7698(3) -0.15189(9) -0.2944(2)
N5 N 0.9237(3) -0.18205(10) -0.2955(3)
N6 N 0.9028(3) -0.09135(9) -0.4154(2)
C1 C -0.0808(4) -0.43920(13) -0.3660(3)
H1 H -0.2077 -0.4415 -0.3876
C2 C 0.2006(3) -0.44467(11) -0.2455(3)
H2 H 0.3151 -0.4509 -0.1688
C3 C 0.3158(4) -0.40945(12) -0.4631(3)
H3 H 0.2591 -0.4076 -0.5772
H4 H 0.4100 -0.4409 -0.4387
C4 C 0.4047(3) -0.34846(11) -0.4027(3)
C5 C 0.3311(4) -0.29428(13) -0.4736(3)
H5 H 0.2264 -0.2948 -0.5633
C6 C 0.4109(4) -0.23915(13) -0.4132(4)
H6 H 0.3597 -0.2030 -0.4631
C7 C 0.5646(3) -0.23701(12) -0.2806(3)
C8 C 0.6386(4) -0.29104(13) -0.2112(4)
H7 H 0.7437 -0.2905 -0.1219
C9 C 0.5601(4) -0.34636(13) -0.2714(3)
H8 H 0.6129 -0.3825 -0.2225
C10 C 0.6491(4) -0.17672(13) -0.2119(3)
H9 H 0.5514 -0.1477 -0.2188
H10 H 0.7199 -0.1823 -0.1009
C11 C 0.9979(3) -0.14342(12) -0.3693(3)
H11 H -0.1077 -0.6515 -0.1119
C12 C 0.2396(3) -0.59859(11) -0.1352(3)
H12 H 0.3331 -0.5701 -0.1227
Cl1B Cl -0.34813(8) -0.52564(3) -0.16234(7)
N6A N -0.0972(3) -0.40865(9) 0.0846(2)
Cd1A Cd 1.0000 0.0000 -0.5000
Cd1A_2 Cd 1.0000 -1.0000 -0.5000
N1C N 0.9597(3) -0.95375(9) -0.2758(2)
C1C C 1.0808(4) -0.93920(13) -0.1340(3)
N2C N 1.0070(3) -0.92144(12) -0.0273(3)
N3C N 0.8247(3) -0.92551(9) -0.1089(2)
C2C C 0.7994(3) -0.94467(11) -0.2545(3)
H2C H 0.6849 -0.9509 -0.3312
C3C C 0.6842(4) -0.90945(12) -0.0369(3)
H3C H 0.7409 -0.9076 0.0772
H4C H 0.5900 -0.9409 -0.0613
C4C C 0.5953(3) -0.84846(11) -0.0973(3)
C5C C 0.6689(4) -0.79428(13) -0.0264(3)
H5C H 0.7736 -0.7948 0.0633
C6C C 0.5891(4) -0.73915(13) -0.0868(4)
H6C H 0.6403 -0.7030 -0.0369
C7C C 0.4354(3) -0.73701(12) -0.2194(3)
C8C C 0.3614(4) -0.79104(13) -0.2888(4)
H7C H 0.2563 -0.7905 -0.3781
C9C C 0.4399(4) -0.84636(13) -0.2286(3)
H8C H 0.3871 -0.8825 -0.2775
C10C C 0.3509(4) -0.67672(13) -0.2881(3)
N4C N 0.2302(3) -0.65189(9) -0.2056(2)
N5C N 0.0763(3) -0.68205(10) -0.2045(3)
C11C C 0.0021(3) -0.64342(12) -0.1307(3)
N6C N 0.0972(3) -0.59135(9) -0.0846(2)
N1B N -0.0403(3) -0.54625(9) 0.2242(2)
H9C H 0.4486 -0.6477 -0.2812
H10C H 0.2801 -0.6823 -0.3991
H1C H 1.2077 -0.9415 -0.1124
C12C C 0.7604(3) -0.09859(11) -0.3648(3)
H12C H 0.6669 -0.0701 -0.3773
H11C H 1.1077 -0.1515 -0.3881
loop_
_geom_bond_atom_site_label_1
_geom_bond_atom_site_label_2
_geom_bond_site_symmetry_1
_geom_bond_site_symmetry_2
Cd1 Cl1 1_555 1_555
N1 Cd1 1_555 1_555
N2 N3 1_555 1_555
N3 C2 1_555 1_555
N4 N5 1_555 1_555
N5 C11 1_555 1_555
N6 C11 1_555 1_555
C1 N1 1_555 1_555
H1 C1 1_555 1_555
C2 N1 1_555 1_555
H2 C2 1_555 1_555
C3 N3 1_555 1_555
H3 C3 1_555 1_555
H4 C3 1_555 1_555
C4 C3 1_555 1_555
C5 C4 1_555 1_555
H5 C5 1_555 1_555
C6 C5 1_555 1_555
H6 C6 1_555 1_555
C7 C6 1_555 1_555
C8 C7 1_555 1_555
H7 C8 1_555 1_555
C9 C4 1_555 1_555
H8 C9 1_555 1_555
C10 N4 1_555 1_555
H9 C10 1_555 1_555
H10 C10 1_555 1_555
C11 H11C 1_555 1_555
H11 C11C 1_555 1_555
C12 H12 1_555 1_555
Cl1B Cd1 1_555 1_555
N6A Cd1 1_555 1_555
Cd1A N6 1_555 1_555
Cd1A_2 N1C 1_555 1_555
N1C C1C 1_555 1_555
C1C N2C 1_555 1_555
N2C N3C 1_555 1_555
N3C C2C 1_555 1_555
C2C N1C 1_555 1_555
H2C C2C 1_555 1_555
C3C N3C 1_555 1_555
H3C C3C 1_555 1_555
H4C C3C 1_555 1_555
C4C C3C 1_555 1_555
C5C C4C 1_555 1_555
H5C C5C 1_555 1_555
C6C C5C 1_555 1_555
H6C C6C 1_555 1_555
C7C C6C 1_555 1_555
C8C C7C 1_555 1_555
H7C C8C 1_555 1_555
C9C C4C 1_555 1_555
H8C C9C 1_555 1_555
C10C C7C 1_555 1_555
N4C C12 1_555 1_555
N5C N4C 1_555 1_555
C11C N5C 1_555 1_555
N6C Cd1 1_555 1_555
N1B Cd1 1_555 1_555
H9C C10C 1_555 1_555
H10C C10C 1_555 1_555
H1C C1C 1_555 1_555
C12C N4 1_555 1_555
H12C C12C 1_555 1_555
N2 C1 1_555 1_555
N6 C12C 1_555 1_555
C7 C10 1_555 1_555
C8 C9 1_555 1_555
C12 N6C 1_555 1_555
C8C C9C 1_555 1_555
C10C N4C 1_555 1_555
C11C N6C 1_555 1_555

#END
