
#######################################################################
#
#                 Cambridge Crystallographic Data Centre
#                                CCDC 
#
#######################################################################
#
# If this CIF has been generated from an entry in the Cambridge 
# Structural Database, then it will include bibliographic, chemical, 
# crystal, experimental, refinement or atomic coordinate data resulting 
# from the CCDC's data processing and validation procedures.
#
#######################################################################

data_BEXCEN
_symmetry_cell_setting           triclinic
_symmetry_space_group_name_H-M   'P -1'
_symmetry_Int_Tables_number      2
_space_group_name_Hall           '-P 1'
loop_
_symmetry_equiv_pos_site_id
_symmetry_equiv_pos_as_xyz
1 x,y,z
2 -x,-y,-z
_cell_length_a                   8.5563(17)
_cell_length_b                   12.438(3)
_cell_length_c                   8.5420(17)
_cell_angle_alpha                107.33(3)
_cell_angle_beta                 97.22(3)
_cell_angle_gamma                88.63(3)
_cell_volume                     860.832
loop_
_atom_site_label
_atom_site_type_symbol
_atom_site_fract_x
_atom_site_fract_y
_atom_site_fract_z
Cd1 Cd 0.0000 0.5000 1.0000
Cd2 Cd -0.5000 0.5000 0.5000
S1 S 0.3918(7) 0.4634(5) 1.0832(7)
S2 S -0.1065(7) 0.4533(5) 0.5856(7)
N1 N 0.0699(14) 0.6746(9) 0.9822(17)
N2 N 0.0374(19) 0.8419(12) 0.9383(19)
N3 N 0.1499(10) 0.8489(8) 1.0705(12)
N4 N -0.3307(11) 0.7824(8) 0.3594(10)
N5 N -0.463(2) 0.8341(13) 0.417(2)
N6 N -0.4340(16) 0.6679(10) 0.4642(18)
C1 C -0.0077(17) 0.7377(12) 0.8950(17)
H1 H -0.0882 0.7084 0.8098
C2 C 0.1645(13) 0.7483(9) 1.0940(14)
H2 H 0.2322 0.7321 1.1779
C3 C 0.2404(13) 0.9543(9) 1.1591(14)
H3 H 0.2852 0.9503 1.2672
H4 H 0.1688 1.0172 1.1754
C4 C 0.3709(12) 0.9764(9) 1.0696(12)
C5 C 0.4184(13) 1.0863(9) 1.0967(14)
C6 C 0.4551(16) 0.8908(11) 0.973(2)
C7 C -0.1131(16) 1.0312(10) 0.3936(16)
C8 C 0.0054(16) 0.8888(12) 0.502(2)
C9 C -0.1079(14) 0.9196(9) 0.3949(13)
C10 C -0.2214(15) 0.8340(10) 0.2785(14)
H5 H -0.2836 0.8695 0.2051
H6 H -0.1619 0.7744 0.2112
C11 C -0.3167(15) 0.6858(10) 0.3916(17)
H7 H -0.2338 0.6365 0.3659
C12 C -0.5242(17) 0.7611(11) 0.4730(17)
H8 H -0.6205 0.7711 0.5150
O1 O -0.124(3) 0.3606(17) 0.452(2)
O2 O -0.238(2) 0.5063(18) 0.651(2)
O3 O 0.004(3) 0.526(2) 0.554(2)
O4 O -0.0456(11) 0.4169(7) 0.7180(10)
O5 O 0.2511(9) 0.4276(9) 0.9966(16)
O6 O -0.327(3) 0.5111(19) 0.778(3)
O7 O -0.350(3) 0.4006(10) 0.298(3)
O8 O 0.442(2) 0.5736(15) 1.070(2)
O9 O 0.484(3) 0.3777(17) 1.028(3)
N1A N -0.0699(14) 0.3254(9) 1.0178(17)
O4A O 0.0456(11) 0.5831(7) 1.2820(10)
O5A O -0.2511(9) 0.5724(9) 1.0034(16)
N6A N -0.5660(16) 0.3321(10) 0.5358(18)
O2A O -0.762(2) 0.4937(18) 0.349(2)
O6A O -0.673(3) 0.4889(19) 0.222(3)
O7A O -0.650(3) 0.5994(10) 0.702(3)
O6A_2 O 0.327(3) 0.4889(19) 1.222(3)
O8A O 0.558(2) 0.4264(15) 0.930(2)
O3A O -0.004(3) 0.474(2) 0.446(2)
C6A C 0.5449(16) 1.1092(11) 1.027(2)
C5A C 0.5816(13) 0.9137(9) 0.9033(14)
C8A C -0.0054(16) 1.1112(12) 0.498(2)
C7A C 0.1131(16) 0.9688(10) 0.6064(16)
S2A S 0.1065(7) 0.5467(5) 0.4144(7)
S1A S -0.3918(7) 0.5366(5) 0.9168(7)
O9A O 0.516(3) 0.6223(17) 0.972(3)
S1A_2 S 0.6082(7) 0.5366(5) 0.9168(7)
loop_
_geom_bond_atom_site_label_1
_geom_bond_atom_site_label_2
_geom_bond_site_symmetry_1
_geom_bond_site_symmetry_2
Cd1 N1 1_555 1_555
Cd2 N6 1_555 1_555
S1 O5 1_555 1_555
S2 O1 1_555 1_555
N1 C1 1_555 1_555
N2 N3 1_555 1_555
N3 C2 1_555 1_555
N4 N5 1_555 1_555
N5 C12 1_555 1_555
N6 C11 1_555 1_555
C1 N2 1_555 1_555
H1 C1 1_555 1_555
C2 N1 1_555 1_555
H2 C2 1_555 1_555
C3 N3 1_555 1_555
H3 C3 1_555 1_555
H4 C3 1_555 1_555
C4 C3 1_555 1_555
C5 C4 1_555 1_555
C6 C4 1_555 1_555
C7 C9 1_555 1_555
C8 C9 1_555 1_555
C9 C10 1_555 1_555
C10 N4 1_555 1_555
H5 C10 1_555 1_555
H6 C10 1_555 1_555
C11 N4 1_555 1_555
H7 C11 1_555 1_555
C12 N6 1_555 1_555
H8 C12 1_555 1_555
O2 Cd2 1_555 1_555
O3 S2 1_555 1_555
O4 Cd1 1_555 1_555
O5 Cd1 1_555 1_555
O6 Cd2 1_555 1_555
O7 Cd2 1_555 1_555
O8 S1 1_555 1_555
O9 S1 1_555 1_555
N1A Cd1 1_555 1_555
O4A Cd1 1_555 1_555
O5A Cd1 1_555 1_555
N6A Cd2 1_555 1_555
O2A Cd2 1_555 1_555
O6A Cd2 1_555 1_555
O7A Cd2 1_555 1_555
O6A_2 S1 1_555 1_555
O8A S1 1_555 1_555
O3A S2 1_555 1_555
C6A C5 1_555 1_555
C5A C6 1_555 1_555
C8A C7 1_555 1_555
C7A C8 1_555 1_555
S2A O3 1_555 1_555
S1A O6 1_555 1_555
O9A O8 1_555 1_555
S1A_2 O8 1_555 1_555
S2 O2 1_555 1_555
S2 O4 1_555 1_555
O2 O6 1_555 1_555
O3 O3A 1_555 1_555
O9 O8A 1_555 1_555
O5A S1A 1_555 1_555
O2A O6A 1_555 1_555
O8A S1A_2 1_555 1_555
O3A S2A 1_555 1_555
O9A S1A_2 1_555 1_555

#END
