
#######################################################################
#
#                 Cambridge Crystallographic Data Centre
#                                CCDC 
#
#######################################################################
#
# If this CIF has been generated from an entry in the Cambridge 
# Structural Database, then it will include bibliographic, chemical, 
# crystal, experimental, refinement or atomic coordinate data resulting 
# from the CCDC's data processing and validation procedures.
#
#######################################################################

data_BEXCAJ
_symmetry_cell_setting           triclinic
_symmetry_space_group_name_H-M   'P -1'
_symmetry_Int_Tables_number      2
_space_group_name_Hall           '-P 1'
loop_
_symmetry_equiv_pos_site_id
_symmetry_equiv_pos_as_xyz
1 x,y,z
2 -x,-y,-z
_cell_length_a                   12.407(3)
_cell_length_b                   12.805(3)
_cell_length_c                   11.297(2)
_cell_angle_alpha                89.90(3)
_cell_angle_beta                 101.75(3)
_cell_angle_gamma                102.37(3)
_cell_volume                     1714.72
loop_
_atom_site_label
_atom_site_type_symbol
_atom_site_fract_x
_atom_site_fract_y
_atom_site_fract_z
Cd1 Cd 1.0000 -1.0000 0.5000
Cd2 Cd 0.0000 -0.5000 0.0000
Cd3 Cd 0.0000 -0.5000 0.5000
Cd4 Cd 1.0000 -1.0000 1.0000
S1 S -0.0351(3) -0.6545(3) 0.2381(3)
S2 S 1.0477(3) -0.8459(2) 0.7606(2)
N1 N -0.8231(10) -0.0429(9) -0.4716(11)
C1 C -0.7606(13) -0.0539(11) -0.5555(11)
H1 H -0.7895 -0.0611 -0.6385
N2 N -0.6511(9) -0.0403(8) -0.3861(9)
N3 N -0.3472(8) -0.4601(7) -0.1086(9)
C2 C -0.2367(12) -0.4538(11) 0.0595(11)
H2 H -0.2076 -0.4521 0.1423
N4 N -0.1750(10) -0.4590(10) -0.0265(11)
N5 N -0.1711(10) -0.4505(9) 0.4708(12)
C3 C -0.2620(12) -0.4991(12) 0.5143(13)
H3 H -0.2730 -0.5696 0.5377
N6 N -0.2860(9) -0.3456(8) 0.4828(9)
N7 N -0.7157(9) -0.1533(9) 0.0126(9)
C4 C 0.7369(13) -0.9996(13) 1.0264(14)
H4 H 0.7231 -1.0705 1.0482
N8 N 0.8319(10) -0.9520(9) 0.9941(12)
O1 O 1.0669(9) -0.8877(7) 0.3599(7)
O2 O 0.0791(8) -0.3936(7) 0.1775(7)
O3 O -0.0717(8) -0.6397(7) 0.1093(7)
O4 O 0.0736(8) -0.6880(8) 0.2579(8)
O5 O -0.1178(8) -0.7316(8) 0.2841(8)
O6 O -0.0150(9) -0.5487(7) 0.3015(7)
O7 O 0.0984(8) -0.3257(7) 0.4782(7)
O8 O 1.0982(8) -0.8268(7) 1.0760(7)
O9 O 0.9887(8) -0.9449(6) 0.8061(7)
O10 O 1.1433(8) -0.7933(8) 0.8522(8)
O11 O 0.9669(11) -0.7790(10) 0.7278(9)
O12 O 1.0842(8) -0.8709(6) 0.6505(7)
C5 C -0.7528(11) -0.0346(10) -0.3686(12)
H5 H -0.7706 -0.0260 -0.2936
N9 N -0.6562(13) -0.0534(13) -0.5066(12)
C6 C -0.5450(12) -0.0382(11) -0.2999(13)
H6 H -0.5475 -0.0044 -0.2240
H7 H -0.4834 0.0050 -0.3309
C7 C -0.5219(11) -0.1478(10) -0.2765(10)
C8 C -0.4123(11) -0.1599(11) -0.2391(12)
H8 H -0.3531 -0.1004 -0.2323
C9 C -0.3894(13) -0.2592(13) -0.2118(13)
H9 H -0.3149 -0.2658 -0.1885
C10 C -0.4752(11) -0.3481(9) -0.2188(10)
C11 C -0.5840(11) -0.3396(11) -0.2575(12)
H10 H -0.6421 -0.4003 -0.2664
C12 C -0.6082(14) -0.2396(14) -0.2839(13)
H11 H -0.6830 -0.2339 -0.3069
C13 C -0.4522(11) -0.4591(11) -0.1945(13)
H12 H -0.5144 -0.5018 -0.1638
H13 H -0.4503 -0.4930 -0.2705
N10 N -0.3385(13) -0.4515(13) 0.0136(12)
C14 C -0.2473(11) -0.4627(11) -0.1294(11)
H14 H -0.2305 -0.4665 -0.2056
C15 C -0.1886(11) -0.3517(11) 0.4525(11)
H15 H -0.1407 -0.2961 0.4234
N11 N -0.3320(12) -0.4393(13) 0.5204(16)
C16 C -0.3389(12) -0.2522(12) 0.4722(11)
H16 H -0.2802 -0.1876 0.4784
H17 H -0.3757 -0.2498 0.5398
C17 C -0.4247(12) -0.2521(10) 0.3556(12)
C18 C -0.3927(12) -0.2489(13) 0.2439(12)
H18 H -0.3185 -0.2484 0.2397
C19 C -0.4732(10) -0.2463(11) 0.1388(11)
H19 H -0.4516 -0.2427 0.0645
C20 C -0.5816(11) -0.2489(10) 0.1422(13)
C21 C -0.6133(13) -0.2512(15) 0.2551(13)
H20 H -0.6877 -0.2515 0.2585
C22 C -0.5351(11) -0.2529(11) 0.3608(12)
H21 H -0.5567 -0.2546 0.4351
C23 C -0.6663(13) -0.2486(11) 0.0265(11)
H22 H -0.6302 -0.2544 -0.0410
H23 H -0.7269 -0.3115 0.0220
N12 N 0.6648(14) -0.9398(13) 1.0252(17)
C24 C -0.8163(12) -0.1443(11) 0.0263(11)
H24 H -0.8696 -0.1998 0.0479
N4A N 0.1750(10) -0.5410(10) 0.0265(11)
C2A C 0.2367(12) -0.5462(11) -0.0595(11)
H2A H 0.2076 -0.5479 -0.1423
N10A N 0.3385(13) -0.5485(13) -0.0136(12)
N3A N 0.3472(8) -0.5399(7) 0.1086(9)
C13A C 0.4522(11) -0.5409(11) 0.1945(13)
C10A C 0.4752(11) -0.6519(9) 0.2188(10)
C9A C 0.3894(13) -0.7408(13) 0.2118(13)
C8A C 0.4123(11) -0.8401(11) 0.2391(12)
C7A C 0.5219(11) -0.8522(10) 0.2765(10)
C6A C 0.5450(12) -0.9618(11) 0.2999(13)
N2A N 0.6511(9) -0.9597(8) 0.3861(9)
C5A C 0.7528(11) -0.9654(10) 0.3686(12)
N1A N 0.8231(10) -0.9571(9) 0.4716(11)
Cd1_2 Cd -1.0000 0.0000 -0.5000
N1_2 N 1.1769(10) -1.0429(9) 0.5284(11)
O1A O 0.9331(9) -1.1123(7) 0.6401(7)
N7A N 0.7157(9) -0.8467(9) 0.9874(9)
C23A C 0.6663(13) -0.7514(11) 0.9735(11)
C20A C 0.5816(11) -0.7511(10) 0.8578(13)
C19A C 0.4732(10) -0.7537(11) 0.8612(11)
C18A C 0.3927(12) -0.7511(13) 0.7561(12)
C17A C 0.4247(12) -0.7479(10) 0.6444(12)
C16A C 0.3389(12) -0.7478(12) 0.5278(11)
N6A N 0.2860(9) -0.6544(8) 0.5172(9)
C15A C 0.1886(11) -0.6483(11) 0.5475(11)
N5A N 0.1711(10) -0.5495(9) 0.5292(12)
N12A N -0.6648(14) -0.0602(13) -0.0252(17)
C4A C -0.7369(13) -0.0004(13) -0.0264(14)
H4A H -0.7231 0.0705 -0.0482
N8A N -0.8319(10) -0.0480(9) 0.0059(12)
Cd4_2 Cd -1.0000 0.0000 0.0000
O2A O -0.0791(8) -0.6064(7) -0.1775(7)
O3A O 0.0717(8) -0.3603(7) -0.1093(7)
S1A S 0.0351(3) -0.3455(3) -0.2381(3)
O4A O -0.0736(8) -0.3120(8) -0.2579(8)
O5A O 0.1178(8) -0.2684(8) -0.2841(8)
O6A O 0.0150(9) -0.4513(7) -0.3015(7)
Cd3_2 Cd 0.0000 -0.5000 -0.5000
O6A_2 O 0.0150(9) -0.4513(7) 0.6985(7)
O7A O -0.0984(8) -0.6743(7) 0.5218(7)
C3A C 0.2620(12) -0.5009(12) 0.4857(13)
H3A H 0.2730 -0.4304 0.4623
N11A N 0.3320(12) -0.5607(13) 0.4796(16)
H15A H 0.1407 -0.7039 0.5766
H16A H 0.2802 -0.8124 0.5216
H17A H 0.3757 -0.7502 0.4602
C22A C 0.5351(11) -0.7471(11) 0.6392(12)
C21A C 0.6133(13) -0.7488(15) 0.7449(13)
H20A H 0.6877 -0.7485 0.7415
H21A H 0.5567 -0.7454 0.5649
H18A H 0.3185 -0.7516 0.7603
H19A H 0.4516 -0.7573 0.9355
H22A H 0.6302 -0.7456 1.0410
H23A H 0.7269 -0.6885 0.9780
C24A C 0.8163(12) -0.8557(11) 0.9737(11)
H24A H 0.8696 -0.8002 0.9521
N8A_2 N 1.1681(10) -1.0480(9) 1.0059(12)
O8A O 0.9018(8) -1.1732(7) 0.9240(7)
O9A O 1.0113(8) -1.0551(6) 1.1939(7)
O12A O 0.9158(8) -1.1291(6) 0.3495(7)
C1A C 0.7606(13) -0.9461(11) 0.5555(11)
H1A H 0.7895 -0.9389 0.6385
N9A N 0.6562(13) -0.9466(13) 0.5066(12)
H5A H 0.7706 -0.9740 0.2936
H6A H 0.5475 -0.9956 0.2240
H7A H 0.4834 -1.0050 0.3309
C12A C 0.6082(14) -0.7604(14) 0.2839(13)
C11A C 0.5840(11) -0.6604(11) 0.2575(12)
H10A H 0.6421 -0.5997 0.2664
H11A H 0.6830 -0.7661 0.3069
H8A H 0.3531 -0.8996 0.2323
H9A H 0.3149 -0.7342 0.1885
H12A H 0.5144 -0.4982 0.1638
H13A H 0.4503 -0.5070 0.2705
C14A C 0.2473(11) -0.5373(11) 0.1294(11)
H14A H 0.2305 -0.5335 0.2056
S2A S 0.9523(3) -1.1541(2) 0.2394(2)
O9A_2 O 1.0113(8) -1.0551(6) 0.1939(7)
O10A O 0.8567(8) -1.2067(8) 0.1478(8)
O11A O 1.0331(11) -1.2210(10) 0.2722(9)
Cd4_3 Cd 1.0000 -1.0000 0.0000
loop_
_geom_bond_atom_site_label_1
_geom_bond_atom_site_label_2
_geom_bond_site_symmetry_1
_geom_bond_site_symmetry_2
Cd1 O1 1_555 1_555
Cd2 N4 1_555 1_555
Cd3 N5 1_555 1_555
Cd4 N8 1_555 1_555
S1 O3 1_555 1_555
S2 O9 1_555 1_555
N1 C1 1_555 1_555
C1 H1 1_555 1_555
N2 C5 1_555 1_555
N3 C13 1_555 1_555
C2 H2 1_555 1_555
N4 C2 1_555 1_555
N5 C3 1_555 1_555
C3 H3 1_555 1_555
N6 C15 1_555 1_555
N7 C23 1_555 1_555
C4 H4 1_555 1_555
N8 C4 1_555 1_555
O2 Cd2 1_555 1_555
O3 Cd2 1_555 1_555
O4 S1 1_555 1_555
O5 S1 1_555 1_555
O6 Cd3 1_555 1_555
O7 Cd3 1_555 1_555
O8 Cd4 1_555 1_555
O9 Cd4 1_555 1_555
O10 S2 1_555 1_555
O11 S2 1_555 1_555
O12 Cd1 1_555 1_555
C5 N1 1_555 1_555
H5 C5 1_555 1_555
N9 C1 1_555 1_555
C6 N2 1_555 1_555
H6 C6 1_555 1_555
H7 C6 1_555 1_555
C7 C6 1_555 1_555
C8 C7 1_555 1_555
H8 C8 1_555 1_555
C9 C8 1_555 1_555
H9 C9 1_555 1_555
C10 C9 1_555 1_555
C11 C10 1_555 1_555
H10 C11 1_555 1_555
C12 C7 1_555 1_555
H11 C12 1_555 1_555
C13 C10 1_555 1_555
H12 C13 1_555 1_555
H13 C13 1_555 1_555
N10 N3 1_555 1_555
C14 N3 1_555 1_555
H14 C14 1_555 1_555
C15 N5 1_555 1_555
H15 C15 1_555 1_555
N11 C3 1_555 1_555
C16 N6 1_555 1_555
H16 C16 1_555 1_555
H17 C16 1_555 1_555
C17 C16 1_555 1_555
C18 C17 1_555 1_555
H18 C18 1_555 1_555
C19 C18 1_555 1_555
H19 C19 1_555 1_555
C20 C19 1_555 1_555
C21 C20 1_555 1_555
H20 C21 1_555 1_555
C22 C17 1_555 1_555
H21 C22 1_555 1_555
C23 C20 1_555 1_555
H22 C23 1_555 1_555
H23 C23 1_555 1_555
N12 C4 1_555 1_555
C24 N7 1_555 1_555
H24 C24 1_555 1_555
N4A Cd2 1_555 1_555
C2A N4A 1_555 1_555
H2A C2A 1_555 1_555
N10A C2A 1_555 1_555
N3A N10A 1_555 1_555
C13A N3A 1_555 1_555
C10A C13A 1_555 1_555
C9A C10A 1_555 1_555
C8A C9A 1_555 1_555
C7A C8A 1_555 1_555
C6A C7A 1_555 1_555
N2A C6A 1_555 1_555
C5A N2A 1_555 1_555
N1A Cd1 1_555 1_555
Cd1_2 N1 1_555 1_555
N1_2 Cd1 1_555 1_555
O1A Cd1 1_555 1_555
N7A N12 1_555 1_555
C23A N7A 1_555 1_555
C20A C23A 1_555 1_555
C19A C20A 1_555 1_555
C18A C19A 1_555 1_555
C17A C18A 1_555 1_555
C16A C17A 1_555 1_555
N6A C16A 1_555 1_555
C15A N6A 1_555 1_555
N5A Cd3 1_555 1_555
N12A N7 1_555 1_555
C4A N12A 1_555 1_555
H4A C4A 1_555 1_555
N8A C24 1_555 1_555
Cd4_2 N8A 1_555 1_555
O2A Cd2 1_555 1_555
O3A Cd2 1_555 1_555
S1A O3A 1_555 1_555
O4A S1A 1_555 1_555
O5A S1A 1_555 1_555
O6A S1A 1_555 1_555
Cd3_2 O6A 1_555 1_555
O6A_2 Cd3 1_555 1_555
O7A Cd3 1_555 1_555
C3A N5A 1_555 1_555
H3A C3A 1_555 1_555
N11A N6A 1_555 1_555
H15A C15A 1_555 1_555
H16A C16A 1_555 1_555
H17A C16A 1_555 1_555
C22A C17A 1_555 1_555
C21A C20A 1_555 1_555
H20A C21A 1_555 1_555
H21A C22A 1_555 1_555
H18A C18A 1_555 1_555
H19A C19A 1_555 1_555
H22A C23A 1_555 1_555
H23A C23A 1_555 1_555
C24A N8 1_555 1_555
H24A C24A 1_555 1_555
N8A_2 Cd4 1_555 1_555
O8A Cd4 1_555 1_555
O9A Cd4 1_555 1_555
O12A Cd1 1_555 1_555
C1A N1A 1_555 1_555
H1A C1A 1_555 1_555
N9A N2A 1_555 1_555
H5A C5A 1_555 1_555
H6A C6A 1_555 1_555
H7A C6A 1_555 1_555
C12A C7A 1_555 1_555
C11A C10A 1_555 1_555
H10A C11A 1_555 1_555
H11A C12A 1_555 1_555
H8A C8A 1_555 1_555
H9A C9A 1_555 1_555
H12A C13A 1_555 1_555
H13A C13A 1_555 1_555
C14A N4A 1_555 1_555
H14A C14A 1_555 1_555
S2A O12A 1_555 1_555
O9A_2 S2A 1_555 1_555
O10A S2A 1_555 1_555
O11A S2A 1_555 1_555
Cd4_3 O9A_2 1_555 1_555
S1 O6 1_555 1_555
S2 O12 1_555 1_555
N2 N9 1_555 1_555
C2 N10 1_555 1_555
N4 C14 1_555 1_555
N6 N11 1_555 1_555
C11 C12 1_555 1_555
C21 C22 1_555 1_555
N3A C14A 1_555 1_555
C5A N1A 1_555 1_555
N7A C24A 1_555 1_555
C15A N5A 1_555 1_555
C4A N8A 1_555 1_555
C3A N11A 1_555 1_555
C22A C21A 1_555 1_555
C1A N9A 1_555 1_555
C12A C11A 1_555 1_555

#END
