
#######################################################################
#
#                 Cambridge Crystallographic Data Centre
#                                CCDC 
#
#######################################################################
#
# If this CIF has been generated from an entry in the Cambridge 
# Structural Database, then it will include bibliographic, chemical, 
# crystal, experimental, refinement or atomic coordinate data resulting 
# from the CCDC's data processing and validation procedures.
#
#######################################################################

data_BEXDOY
_symmetry_cell_setting           orthorhombic
_symmetry_space_group_name_H-M   'P n a 21'
_symmetry_Int_Tables_number      33
_space_group_name_Hall           'P 2c -2n'
loop_
_symmetry_equiv_pos_site_id
_symmetry_equiv_pos_as_xyz
1 x,y,z
2 -x,-y,1/2+z
3 1/2-x,1/2+y,1/2+z
4 1/2+x,1/2-y,z
_cell_length_a                   13.8956(12)
_cell_length_b                   16.3362(16)
_cell_length_c                   7.3340(12)
_cell_angle_alpha                90
_cell_angle_beta                 90
_cell_angle_gamma                90
_cell_volume                     1664.83
loop_
_atom_site_label
_atom_site_type_symbol
_atom_site_fract_x
_atom_site_fract_y
_atom_site_fract_z
Cu1 Cu 0.11547(7) 0.05392(6) -0.2924(3)
N1 N 0.2494(5) 0.0125(4) -0.294(2)
C1 C 0.3257(7) 0.0613(6) -0.273(3)
H1 H 0.3146 0.1169 -0.2564
C2 C 0.4190(7) 0.0347(5) -0.275(3)
H2 H 0.4694 0.0719 -0.2653
C3 C 0.4378(6) -0.0485(5) -0.292(3)
C4 C 0.3609(8) -0.0985(7) -0.330(3)
H3 H 0.3710 -0.1534 -0.3571
C5 C 0.2687(8) -0.0672(6) -0.327(3)
H4 H 0.2176 -0.1026 -0.3493
C6 C 0.5370(6) -0.0817(5) -0.292(2)
C7 C 0.6153(7) -0.0300(6) -0.270(3)
H5 H 0.6058 0.0262 -0.2614
C8 C 0.7068(7) -0.0615(6) -0.260(2)
H6 H 0.7586 -0.0268 -0.2375
N2 N 0.7220(6) -0.1437(5) -0.283(2)
H7 H 0.7797 -0.1628 -0.2836
C9 C 0.6469(7) -0.1943(6) -0.303(3)
H8 H 0.6579 -0.2499 -0.3204
C10 C 0.5537(7) -0.1657(5) -0.299(3)
H9 H 0.5023 -0.2022 -0.3009
N3 N -0.0100(6) 0.1096(5) -0.264(2)
H10 H -0.0544 0.0713 -0.2323
C11 C 0.0003(11) 0.1688(8) -0.1071(18)
H11 H 0.0067 0.2240 -0.1544
H12 H -0.0573 0.1669 -0.0325
C12 C 0.0844(8) 0.1493(7) 0.0062(18)
C13 C -0.0358(11) 0.1409(10) -0.439(2)
H13 H -0.0045 0.1931 -0.4602
H14 H -0.1048 0.1489 -0.4464
C14 C -0.0037(9) 0.0796(7) -0.5787(19)
O1 O 0.1403(6) 0.0926(5) -0.0457(13)
O2 O 0.1034(6) 0.1929(5) 0.1475(14)
O3 O 0.0738(6) 0.0426(5) -0.5444(13)
O4 O -0.0504(6) 0.0729(5) -0.7255(13)
O4A O 0.0504(6) -0.0729(5) -0.2255(13)
Cu1A Cu -0.11547(7) -0.05392(6) -0.7924(3)
Cl1 Cl 0.1971(3) 0.2981(3) -0.3294(9)
O5 O 0.1063(10) 0.3290(10) -0.298(4)
O6 O 0.1895(15) 0.2195(10) -0.398(3)
O7 O 0.2476(19) 0.2968(16) -0.168(3)
O8 O 0.2449(17) 0.3478(15) -0.453(3)
O9? O 0.1038(12) 0.3143(17) -0.375(4)
O10? O 0.235(2) 0.2386(17) -0.437(3)
O11? O 0.2054(19) 0.2783(15) -0.152(2)
O12? O 0.250(2) 0.3696(14) -0.360(4)
loop_
_geom_bond_atom_site_label_1
_geom_bond_atom_site_label_2
_geom_bond_site_symmetry_1
_geom_bond_site_symmetry_2
Cu1 N1 1_555 1_555
N1 C1 1_555 1_555
C1 H1 1_555 1_555
C2 C1 1_555 1_555
H2 C2 1_555 1_555
C3 C2 1_555 1_555
C4 C3 1_555 1_555
H3 C4 1_555 1_555
C5 N1 1_555 1_555
H4 C5 1_555 1_555
C6 C3 1_555 1_555
C7 C6 1_555 1_555
H5 C7 1_555 1_555
C8 C7 1_555 1_555
H6 C8 1_555 1_555
N2 C8 1_555 1_555
H7 N2 1_555 1_555
C9 N2 1_555 1_555
H8 C9 1_555 1_555
C10 C6 1_555 1_555
H9 C10 1_555 1_555
N3 Cu1 1_555 1_555
H10 N3 1_555 1_555
C11 N3 1_555 1_555
H11 C11 1_555 1_555
H12 C11 1_555 1_555
C12 C11 1_555 1_555
C13 N3 1_555 1_555
H13 C13 1_555 1_555
H14 C13 1_555 1_555
C14 C13 1_555 1_555
O1 Cu1 1_555 1_555
O2 C12 1_555 1_555
O3 Cu1 1_555 1_555
O4 C14 1_555 1_555
Cl1 O5 1_555 1_555
O6 Cl1 1_555 1_555
O7 Cl1 1_555 1_555
O8 Cl1 1_555 1_555
O4A Cu1 1_555 1_555
Cu1A O4 1_555 1_555
C4 C5 1_555 1_555
C9 C10 1_555 1_555
C12 O1 1_555 1_555
C14 O3 1_555 1_555

#END
