
#######################################################################
#
#                 Cambridge Crystallographic Data Centre
#                                CCDC 
#
#######################################################################
#
# If this CIF has been generated from an entry in the Cambridge 
# Structural Database, then it will include bibliographic, chemical, 
# crystal, experimental, refinement or atomic coordinate data resulting 
# from the CCDC's data processing and validation procedures.
#
#######################################################################

data_BEXFUG
_symmetry_cell_setting           monoclinic
_symmetry_space_group_name_H-M   'P 21/c'
_symmetry_Int_Tables_number      14
_space_group_name_Hall           '-P 2ybc'
loop_
_symmetry_equiv_pos_site_id
_symmetry_equiv_pos_as_xyz
1 x,y,z
2 x,1/2-y,1/2+z
3 -x,-y,-z
4 -x,1/2+y,1/2-z
_cell_length_a                   26.4163(6)
_cell_length_b                   12.1619(2)
_cell_length_c                   28.0813(6)
_cell_angle_alpha                90
_cell_angle_beta                 161.9823(6)
_cell_angle_gamma                90
_cell_volume                     2790.52
loop_
_atom_site_label
_atom_site_type_symbol
_atom_site_fract_x
_atom_site_fract_y
_atom_site_fract_z
Au1 Au 0.01655(4) 0.57748(2) 0.28707(3)
Tl1 Tl 0.04972(4) 0.32350(2) 0.28887(4)
C1 C 0.0800(8) 0.5827(5) 0.2721(7)
C2 C 0.2380(9) 0.6074(5) 0.3983(8)
C3 C 0.2841(9) 0.6082(6) 0.3920(9)
C4 C 0.1656(9) 0.5840(6) 0.2514(8)
C5 C 0.0066(10) 0.5591(6) 0.1231(9)
C6 C -0.0315(9) 0.5579(5) 0.1371(8)
Cl1 Cl 0.3846(3) 0.64006(18) 0.5721(2)
Cl2 Cl 0.4819(3) 0.6370(2) 0.5524(3)
Cl3 Cl 0.2208(3) 0.5780(2) 0.2417(3)
Cl4 Cl -0.1394(3) 0.53449(19) -0.0508(3)
Cl5 Cl -0.2316(2) 0.52380(17) -0.0260(2)
C7 C -0.0468(8) 0.5731(5) 0.3018(7)
C8 C 0.0071(8) 0.6499(5) 0.3830(7)
C9 C -0.0389(9) 0.6499(6) 0.3894(8)
C10 C -0.1418(10) 0.5684(6) 0.3138(10)
C11 C -0.1993(10) 0.4894(6) 0.2314(9)
C12 C -0.1530(9) 0.4935(6) 0.2254(8)
Cl6 Cl 0.1393(3) 0.75385(17) 0.4822(2)
Cl7 Cl 0.0237(3) 0.7522(2) 0.4839(3)
Cl8 Cl -0.2030(4) 0.5669(2) 0.3180(3)
Cl9 Cl -0.3255(4) 0.3858(2) 0.1390(3)
Cl10 Cl -0.2392(3) 0.39632(16) 0.1096(2)
O1 O 0.3232(9) 0.2934(5) 0.4843(9)
C13 C 0.3750(19) 0.3359(9) 0.4864(18)
H1 H 0.4537 0.3967 0.5620
H2 H 0.2799 0.3655 0.3836
C14 C 0.4529(19) 0.2483(10) 0.5284(19)
H3 H 0.5430 0.2775 0.5892
H4 H 0.3726 0.2106 0.4358
C15 C 0.5175(13) 0.1713(9) 0.6245(12)
H5 H 0.5025 0.0936 0.6015
H6 H 0.6354 0.1846 0.7357
C16 C 0.4223(12) 0.1954(8) 0.5822(11)
H7 H 0.4966 0.2088 0.6759
H8 H 0.3507 0.1324 0.5260
O2 O 0.2687(8) 0.3103(5) 0.5540(8)
C17 C 0.2248(11) 0.3116(7) 0.5632(11)
H9 H 0.2612 0.2429 0.6114
H10 H 0.1044 0.3173 0.4588
C18 C 0.3065(11) 0.4100(7) 0.6595(10)
H11 H 0.3840 0.3866 0.7540
H12 H 0.2243 0.4602 0.6001
C19 C 0.3960(11) 0.4647(7) 0.6983(10)
H13 H 0.3307 0.5260 0.6266
H14 H 0.5037 0.4934 0.8050
C20 C 0.4162(11) 0.3758(7) 0.6809(10)
H15 H 0.4252 0.4062 0.6563
H16 H 0.5149 0.3314 0.7761
Tl1C Tl -0.04972(4) 0.82350(2) 0.21113(4)
Au1C Au -0.01655(4) 0.07748(2) 0.21293(3)
loop_
_geom_bond_atom_site_label_1
_geom_bond_atom_site_label_2
_geom_bond_site_symmetry_1
_geom_bond_site_symmetry_2
Au1 Tl1 1_555 1_555
Tl1 O1 1_555 1_555
C1 Au1 1_555 1_555
C2 C1 1_555 1_555
C3 C2 1_555 1_555
C4 C3 1_555 1_555
C5 C4 1_555 1_555
C6 C1 1_555 1_555
Cl1 C2 1_555 1_555
Cl2 C3 1_555 1_555
Cl3 C4 1_555 1_555
Cl4 C5 1_555 1_555
Cl5 C6 1_555 1_555
C7 Au1 1_555 1_555
C8 C7 1_555 1_555
C9 C8 1_555 1_555
C10 C9 1_555 1_555
C11 C10 1_555 1_555
C12 C7 1_555 1_555
Cl6 C8 1_555 1_555
Cl7 C9 1_555 1_555
Cl8 C10 1_555 1_555
Cl9 C11 1_555 1_555
Cl10 C12 1_555 1_555
O1 C13 1_555 1_555
C13 H1 1_555 1_555
H2 C13 1_555 1_555
C14 C13 1_555 1_555
H3 C14 1_555 1_555
H4 C14 1_555 1_555
C15 C14 1_555 1_555
H5 C15 1_555 1_555
H6 C15 1_555 1_555
C16 O1 1_555 1_555
H7 C16 1_555 1_555
H8 C16 1_555 1_555
O2 Tl1 1_555 1_555
C17 O2 1_555 1_555
H9 C17 1_555 1_555
H10 C17 1_555 1_555
C18 C17 1_555 1_555
H11 C18 1_555 1_555
H12 C18 1_555 1_555
C19 C18 1_555 1_555
H13 C19 1_555 1_555
H14 C19 1_555 1_555
C20 O2 1_555 1_555
H15 C20 1_555 1_555
H16 C20 1_555 1_555
Tl1C Au1 1_555 1_555
Au1C Tl1 1_555 1_555
C5 C6 1_555 1_555
C11 C12 1_555 1_555
C15 C16 1_555 1_555
C19 C20 1_555 1_555

#END
