
#######################################################################
#
#                 Cambridge Crystallographic Data Centre
#                                CCDC 
#
#######################################################################
#
# If this CIF has been generated from an entry in the Cambridge 
# Structural Database, then it will include bibliographic, chemical, 
# crystal, experimental, refinement or atomic coordinate data resulting 
# from the CCDC's data processing and validation procedures.
#
#######################################################################

data_BEXGER
_symmetry_cell_setting           triclinic
_symmetry_space_group_name_H-M   'P -1'
_symmetry_Int_Tables_number      2
_space_group_name_Hall           '-P 1'
loop_
_symmetry_equiv_pos_site_id
_symmetry_equiv_pos_as_xyz
1 x,y,z
2 -x,-y,-z
_cell_length_a                   8.9296(1)
_cell_length_b                   11.2457(1)
_cell_length_c                   21.2465(3)
_cell_angle_alpha                96.7187(7)
_cell_angle_beta                 92.5886(6)
_cell_angle_gamma                98.5911(8)
_cell_volume                     2090.87
loop_
_atom_site_label
_atom_site_type_symbol
_atom_site_fract_x
_atom_site_fract_y
_atom_site_fract_z
Au1 Au 0.52265(2) 1.39610(2) 0.265288(10)
Au2 Au 0.65663(2) 1.89360(2) 0.282360(11)
Tl1 Tl 0.68778(3) 1.63965(2) 0.300830(13)
Tl2 Tl 0.63708(3) 1.14867(2) 0.254134(12)
C1 C 0.5384(6) 1.3870(5) 0.1682(3)
C2 C 0.4110(7) 1.3614(5) 0.1258(3)
C3 C 0.4211(7) 1.3478(5) 0.0602(3)
C4 C 0.5631(7) 1.3605(6) 0.0349(3)
C5 C 0.6935(7) 1.3884(6) 0.0757(3)
C6 C 0.6777(6) 1.3993(6) 0.1410(3)
Cl1 Cl 0.23272(18) 1.34905(19) 0.15585(8)
Cl2 Cl 0.2598(2) 1.31260(19) 0.00973(8)
Cl3 Cl 0.5780(2) 1.34098(19) -0.04612(8)
Cl4 Cl 0.87022(19) 1.40943(17) 0.04522(8)
Cl5 Cl 0.84348(17) 1.42598(16) 0.19104(8)
C7 C 0.5104(6) 1.3929(5) 0.3615(3)
C8 C 0.6329(7) 1.3741(4) 0.4004(3)
C9 C 0.6204(7) 1.3461(5) 0.4625(3)
C10 C 0.4796(7) 1.3355(6) 0.4877(3)
C11 C 0.3538(7) 1.3602(6) 0.4519(3)
C12 C 0.3728(7) 1.3888(5) 0.3908(3)
Cl6 Cl 0.81272(18) 1.38715(16) 0.37045(8)
Cl7 Cl 0.7758(2) 1.31835(18) 0.50619(9)
Cl8 Cl 0.4584(3) 1.28652(18) 0.56087(8)
Cl9 Cl 0.1793(2) 1.35088(18) 0.48418(10)
Cl10 Cl 0.21854(19) 1.42608(16) 0.34834(9)
C13 C 0.8679(7) 1.9146(5) 0.2464(3)
C14 C 0.9861(6) 2.0050(5) 0.2720(3)
C15 C 1.1278(6) 2.0217(5) 0.2467(3)
C16 C 1.1559(7) 1.9453(5) 0.1935(3)
C17 C 1.0417(6) 1.8519(5) 0.1668(3)
C18 C 0.9010(6) 1.8396(5) 0.1933(3)
Cl11 Cl 0.95606(18) 2.10358(15) 0.33777(8)
Cl12 Cl 1.26721(17) 2.13870(15) 0.27934(9)
Cl13 Cl 1.32815(19) 1.96628(18) 0.15969(9)
Cl14 Cl 1.0753(2) 1.75619(17) 0.10134(8)
Cl15 Cl 0.75976(18) 1.72437(15) 0.15779(8)
C19 C 0.4452(6) 1.8694(5) 0.3183(3)
C20 C 0.3303(6) 1.7760(5) 0.2926(3)
C21 C 0.1876(6) 1.7565(5) 0.3169(3)
C22 C 0.1554(7) 1.8334(5) 0.3692(3)
C23 C 0.2677(7) 1.9282(6) 0.3965(3)
C24 C 0.4082(6) 1.9434(5) 0.3701(3)
Cl16 Cl 0.36416(17) 1.67788(15) 0.22675(8)
Cl17 Cl 0.05158(17) 1.63920(14) 0.28230(9)
Cl18 Cl -0.01787(18) 1.80979(17) 0.40172(8)
Cl19 Cl 0.2278(2) 2.02368(17) 0.46074(8)
Cl20 Cl 0.54488(18) 2.06178(15) 0.40522(8)
O1 O 0.7158(7) 1.0990(6) 0.1339(3)
C25 C 0.6383(11) 1.0355(10) 0.0771(5)
H1 H 0.5468 1.0712 0.0667
H2 H 0.6064 0.9493 0.0823
C26 C 0.7455(10) 1.0462(8) 0.0253(4)
H3 H 0.7369 1.1188 0.0039
H4 H 0.7268 0.9733 -0.0067
C27 C 0.8980(10) 1.0573(9) 0.0604(4)
H5 H 0.9253 0.9765 0.0651
H6 H 0.9782 1.1036 0.0383
C28 C 0.8758(9) 1.1243(8) 0.1236(4)
H7 H 0.9365 1.0966 0.1575
H8 H 0.9080 1.2124 0.1236
Tl2_2 Tl 0.63708(3) 2.14867(2) 0.254134(12)
Au2_2 Au 0.65663(2) 0.89360(2) 0.282360(11)
loop_
_geom_bond_atom_site_label_1
_geom_bond_atom_site_label_2
_geom_bond_site_symmetry_1
_geom_bond_site_symmetry_2
Au1 Tl1 1_555 1_555
Au2 Tl1 1_555 1_555
Tl2 Au1 1_555 1_555
C1 Au1 1_555 1_555
C2 C1 1_555 1_555
C3 C2 1_555 1_555
C4 C3 1_555 1_555
C5 C4 1_555 1_555
C6 C1 1_555 1_555
Cl1 C2 1_555 1_555
Cl2 C3 1_555 1_555
Cl3 C4 1_555 1_555
Cl4 C5 1_555 1_555
Cl5 C6 1_555 1_555
C7 Au1 1_555 1_555
C8 C7 1_555 1_555
C9 C8 1_555 1_555
C10 C9 1_555 1_555
C11 C10 1_555 1_555
C12 C7 1_555 1_555
Cl6 C8 1_555 1_555
Cl7 C9 1_555 1_555
Cl8 C10 1_555 1_555
Cl9 C11 1_555 1_555
Cl10 C12 1_555 1_555
C13 Au2 1_555 1_555
C14 C13 1_555 1_555
C15 C14 1_555 1_555
C16 C15 1_555 1_555
C17 C16 1_555 1_555
C18 C13 1_555 1_555
Cl11 C14 1_555 1_555
Cl12 C15 1_555 1_555
Cl13 C16 1_555 1_555
Cl14 C17 1_555 1_555
Cl15 C18 1_555 1_555
C19 Au2 1_555 1_555
C20 C19 1_555 1_555
C21 C20 1_555 1_555
C22 C21 1_555 1_555
C23 C22 1_555 1_555
C24 C19 1_555 1_555
Cl16 C20 1_555 1_555
Cl17 C21 1_555 1_555
Cl18 C22 1_555 1_555
Cl19 C23 1_555 1_555
Cl20 C24 1_555 1_555
O1 Tl2 1_555 1_555
C25 O1 1_555 1_555
H1 C25 1_555 1_555
H2 C25 1_555 1_555
C26 C25 1_555 1_555
H3 C26 1_555 1_555
H4 C26 1_555 1_555
C27 C26 1_555 1_555
H5 C27 1_555 1_555
H6 C27 1_555 1_555
C28 O1 1_555 1_555
H7 C28 1_555 1_555
H8 C28 1_555 1_555
Tl2_2 Au2 1_555 1_555
Au2_2 Tl2 1_555 1_555
C5 C6 1_555 1_555
C11 C12 1_555 1_555
C17 C18 1_555 1_555
C23 C24 1_555 1_555
C27 C28 1_555 1_555

#END
