
#######################################################################
#
#                 Cambridge Crystallographic Data Centre
#                                CCDC 
#
#######################################################################
#
# If this CIF has been generated from an entry in the Cambridge 
# Structural Database, then it will include bibliographic, chemical, 
# crystal, experimental, refinement or atomic coordinate data resulting 
# from the CCDC's data processing and validation procedures.
#
#######################################################################

data_BEXGAN
_symmetry_cell_setting           monoclinic
_symmetry_space_group_name_H-M   'P 21/c'
_symmetry_Int_Tables_number      14
_space_group_name_Hall           '-P 2ybc'
loop_
_symmetry_equiv_pos_site_id
_symmetry_equiv_pos_as_xyz
1 x,y,z
2 x,1/2-y,1/2+z
3 -x,-y,-z
4 -x,1/2+y,1/2-z
_cell_length_a                   9.8654(2)
_cell_length_b                   29.8570(5)
_cell_length_c                   11.6067(2)
_cell_angle_alpha                90
_cell_angle_beta                 114.5931(6)
_cell_angle_gamma                90
_cell_volume                     3108.64
loop_
_atom_site_label
_atom_site_type_symbol
_atom_site_fract_x
_atom_site_fract_y
_atom_site_fract_z
Au1 Au 0.81665(4) 0.243172(13) 0.62919(3)
Tl1 Tl 0.83415(5) 0.229166(14) 0.38253(4)
C1 C 0.8405(8) 0.3101(3) 0.5948(7)
C2 C 0.7269(9) 0.3363(3) 0.5090(8)
C3 C 0.7370(11) 0.3826(3) 0.4985(9)
C4 C 0.8654(10) 0.4043(4) 0.5779(10)
C5 C 0.9842(11) 0.3797(3) 0.6616(10)
C6 C 0.9705(10) 0.3336(3) 0.6680(9)
Cl1 Cl 0.5655(3) 0.30921(10) 0.4051(3)
Cl2 Cl 0.5899(4) 0.41239(11) 0.3890(3)
Cl3 Cl 0.8771(4) 0.46157(10) 0.5725(4)
Cl4 Cl 1.1465(4) 0.40614(12) 0.7578(4)
Cl5 Cl 1.1242(3) 0.30307(11) 0.7705(3)
C7 C 0.7988(8) 0.1765(3) 0.6674(7)
C8 C 0.9174(10) 0.1524(3) 0.7544(8)
C9 C 0.9179(11) 0.1069(3) 0.7690(9)
C10 C 0.7943(10) 0.0824(3) 0.6908(9)
C11 C 0.6703(11) 0.1045(3) 0.6048(9)
C12 C 0.6752(10) 0.1504(3) 0.5948(9)
Cl6 Cl 1.0744(3) 0.18203(10) 0.8564(3)
Cl7 Cl 1.0706(4) 0.07936(11) 0.8796(3)
Cl8 Cl 0.7949(4) 0.02465(10) 0.7029(4)
Cl9 Cl 0.5142(4) 0.07383(13) 0.5135(4)
Cl10 Cl 0.5156(3) 0.17762(12) 0.4892(3)
O1 O 0.9937(8) 0.1546(3) 0.4814(9)
O2 O 0.9881(11) 0.0707(4) 0.4969(12)
H1 H 0.9499 0.0956 0.4821
C13 C 1.1261(13) 0.1540(4) 0.5646(12)
C14 C 1.1263(16) 0.0740(5) 0.5818(14)
C15 C 1.2109(15) 0.1968(5) 0.6065(13)
H2 H 1.1641 0.2196 0.5442
H3 H 1.3114 0.1924 0.6161
H4 H 1.2116 0.2058 0.6861
C16 C 1.1986(19) 0.0296(6) 0.6313(17)
H5 H 1.1409 0.0135 0.6670
H6 H 1.2975 0.0343 0.6954
H7 H 1.2036 0.0124 0.5631
C17 C 1.1964(14) 0.1133(5) 0.6157(12)
H8 H 1.2951 0.1136 0.6752
O3 O 0.6573(8) 0.1617(3) 0.2716(8)
O4 O 0.6583(10) 0.0777(3) 0.2599(12)
H9 H 0.6916 0.1024 0.2886
C18 C 0.5216(13) 0.1612(4) 0.1933(11)
C19 C 0.5175(15) 0.0816(5) 0.1806(14)
C20 C 0.4397(14) 0.2060(4) 0.1569(14)
H10 H 0.4460 0.2211 0.2319
H11 H 0.3369 0.2008 0.1017
H12 H 0.4846 0.2242 0.1141
C21 C 0.4439(19) 0.0374(6) 0.135(2)
H13 H 0.4944 0.0218 0.0918
H14 H 0.3416 0.0421 0.0774
H15 H 0.4483 0.0199 0.2056
C22 C 0.4492(13) 0.1211(4) 0.1476(13)
H16 H 0.3490 0.1217 0.0917
Tl1A Tl 0.83415(5) 0.270834(14) 0.88253(4)
Au1A Au 0.81665(4) 0.256828(13) 0.12919(3)
loop_
_geom_bond_atom_site_label_1
_geom_bond_atom_site_label_2
_geom_bond_site_symmetry_1
_geom_bond_site_symmetry_2
Au1 Tl1 1_555 1_555
Tl1 O1 1_555 1_555
C1 Au1 1_555 1_555
C2 C1 1_555 1_555
C3 C2 1_555 1_555
C4 C3 1_555 1_555
C5 C4 1_555 1_555
C6 C1 1_555 1_555
Cl1 C2 1_555 1_555
Cl2 C3 1_555 1_555
Cl3 C4 1_555 1_555
Cl4 C5 1_555 1_555
Cl5 C6 1_555 1_555
C7 Au1 1_555 1_555
C8 C7 1_555 1_555
C9 C8 1_555 1_555
C10 C9 1_555 1_555
C11 C10 1_555 1_555
C12 C7 1_555 1_555
Cl6 C8 1_555 1_555
Cl7 C9 1_555 1_555
Cl8 C10 1_555 1_555
Cl9 C11 1_555 1_555
Cl10 C12 1_555 1_555
O1 C13 1_555 1_555
O2 H1 1_555 1_555
C13 C15 1_555 1_555
C14 O2 1_555 1_555
C15 H2 1_555 1_555
H3 C15 1_555 1_555
H4 C15 1_555 1_555
C16 C14 1_555 1_555
H5 C16 1_555 1_555
H6 C16 1_555 1_555
H7 C16 1_555 1_555
C17 C13 1_555 1_555
H8 C17 1_555 1_555
O3 Tl1 1_555 1_555
O4 H9 1_555 1_555
C18 O3 1_555 1_555
C19 O4 1_555 1_555
C20 C18 1_555 1_555
H10 C20 1_555 1_555
H11 C20 1_555 1_555
H12 C20 1_555 1_555
C21 C19 1_555 1_555
H13 C21 1_555 1_555
H14 C21 1_555 1_555
H15 C21 1_555 1_555
C22 C18 1_555 1_555
H16 C22 1_555 1_555
Tl1A Au1 1_555 1_555
Au1A Tl1 1_555 1_555
C5 C6 1_555 1_555
C11 C12 1_555 1_555
C14 C17 1_555 1_555
C19 C22 1_555 1_555

#END
