
#######################################################################
#
#                 Cambridge Crystallographic Data Centre
#                                CCDC 
#
#######################################################################
#
# If this CIF has been generated from an entry in the Cambridge 
# Structural Database, then it will include bibliographic, chemical, 
# crystal, experimental, refinement or atomic coordinate data resulting 
# from the CCDC's data processing and validation procedures.
#
#######################################################################

data_BEXMEY
_symmetry_cell_setting           monoclinic
_symmetry_space_group_name_H-M   'P 21/c'
_symmetry_Int_Tables_number      14
_space_group_name_Hall           '-P 2ybc'
loop_
_symmetry_equiv_pos_site_id
_symmetry_equiv_pos_as_xyz
1 x,y,z
2 -x,1/2+y,1/2-z
3 -x,-y,-z
4 x,1/2-y,1/2+z
_cell_length_a                   10.6028(6)
_cell_length_b                   9.4697(7)
_cell_length_c                   15.4468(9)
_cell_angle_alpha                90
_cell_angle_beta                 97.715(4)
_cell_angle_gamma                90
_cell_volume                     1536.9
loop_
_atom_site_label
_atom_site_type_symbol
_atom_site_fract_x
_atom_site_fract_y
_atom_site_fract_z
Ni1 Ni 0.98776(5) 0.30703(6) 0.63839(4)
N1 N 1.0318(4) 0.1037(4) 0.6721(3)
C1 C 1.0662(4) -0.0076(5) 0.6942(3)
S1 S 1.11387(12) -0.16705(12) 0.72482(8)
N2 N 0.9437(4) 0.5063(4) 0.5956(3)
C2 C 0.9257(4) 0.6051(5) 0.5528(3)
S2 S 0.89812(12) 0.74601(13) 0.49055(8)
N3 N 1.1629(3) 0.3784(4) 0.7100(2)
C3 C 1.2287(4) 0.4861(5) 0.6836(3)
H1 H 1.2009 0.5307 0.6308
C4 C 1.3381(4) 0.5317(5) 0.7342(3)
C5 C 1.3166(5) 0.3691(6) 0.8353(3)
H2 H 1.3444 0.3261 0.8886
C6 C 1.2079(5) 0.3187(5) 0.7859(3)
H3 H 1.1654 0.2419 0.8059
N4 N 1.3831(4) 0.4765(5) 0.8098(3)
Cl1 Cl 1.42296(15) 0.67039(17) 0.69788(12)
N5 N 0.8077(4) 0.2380(4) 0.5708(3)
C7 C 0.7010(5) 0.3045(6) 0.5825(3)
H4 H 0.7042 0.3835 0.6184
C8 C 0.5850(5) 0.2564(6) 0.5412(4)
C9 C 0.6792(5) 0.0822(6) 0.4772(4)
H5 H 0.6756 0.0045 0.4402
C10 C 0.7947(5) 0.1263(5) 0.5185(3)
H6 H 0.8671 0.0759 0.5095
N6 N 0.5717(4) 0.1479(5) 0.4889(3)
Cl2 Cl 0.44708(14) 0.3399(2) 0.56053(14)
Ni1A Ni 1.01224(5) -0.19297(6) 0.86161(4)
Ni1B Ni 1.01224(5) 0.69297(6) 0.36161(4)
S1A S 0.88613(12) 0.33295(12) 0.77518(8)
S2B S 1.10188(12) 0.25399(13) 0.50945(8)
loop_
_geom_bond_atom_site_label_1
_geom_bond_atom_site_label_2
_geom_bond_site_symmetry_1
_geom_bond_site_symmetry_2
Ni1 N1 1_555 1_555
N1 C1 1_555 1_555
C1 S1 1_555 1_555
S1 Ni1A 1_555 1_555
N2 Ni1 1_555 1_555
C2 N2 1_555 1_555
S2 C2 1_555 1_555
N3 Ni1 1_555 1_555
C3 N3 1_555 1_555
H1 C3 1_555 1_555
C4 C3 1_555 1_555
C5 H2 1_555 1_555
C6 N3 1_555 1_555
H3 C6 1_555 1_555
N4 C4 1_555 1_555
Cl1 C4 1_555 1_555
N5 Ni1 1_555 1_555
C7 N5 1_555 1_555
H4 C7 1_555 1_555
C8 C7 1_555 1_555
C9 H5 1_555 1_555
C10 N5 1_555 1_555
H6 C10 1_555 1_555
N6 C8 1_555 1_555
Cl2 C8 1_555 1_555
Ni1B S2 1_555 1_555
S1A Ni1 1_555 1_555
S2B Ni1 1_555 1_555
C5 C6 1_555 1_555
C5 N4 1_555 1_555
C9 C10 1_555 1_555
C9 N6 1_555 1_555

#END
