
#######################################################################
#
#                 Cambridge Crystallographic Data Centre
#                                CCDC 
#
#######################################################################
#
# If this CIF has been generated from an entry in the Cambridge 
# Structural Database, then it will include bibliographic, chemical, 
# crystal, experimental, refinement or atomic coordinate data resulting 
# from the CCDC's data processing and validation procedures.
#
#######################################################################

data_BEXSUU
_symmetry_cell_setting           triclinic
_symmetry_space_group_name_H-M   'P -1'
_symmetry_Int_Tables_number      2
_space_group_name_Hall           '-P 1'
loop_
_symmetry_equiv_pos_site_id
_symmetry_equiv_pos_as_xyz
1 x,y,z
2 -x,-y,-z
_cell_length_a                   9.449(3)
_cell_length_b                   12.019(4)
_cell_length_c                   13.797(4)
_cell_angle_alpha                104.264(5)
_cell_angle_beta                 99.355(3)
_cell_angle_gamma                106.490(6)
_cell_volume                     1409.82
loop_
_atom_site_label
_atom_site_type_symbol
_atom_site_fract_x
_atom_site_fract_y
_atom_site_fract_z
Pb1 Pb -0.22499(4) 0.46991(3) 0.00140(2)
S1 S 0.3330(3) 1.2536(2) 0.97547(18)
S2 S -0.2489(4) 0.1838(3) 0.0212(3)
O1 O 0.0184(7) 0.5909(6) 0.0909(4)
O2 O 0.2114(9) 1.3039(7) 0.9849(5)
O3 O 0.4763(10) 1.3453(9) 0.9984(6)
O4 O 0.3287(12) 1.1669(8) 1.0320(6)
O5 O -0.1789(9) 0.3186(6) 0.0776(6)
N1 N -0.2168(9) 0.5553(7) 0.1822(5)
N2 N 0.0921(10) 0.8742(7) 0.4951(5)
N3 N 0.2170(11) 0.9575(9) 0.5353(7)
C1 C -0.3305(13) 0.5316(10) 0.2248(8)
H1 H -0.4231 0.4720 0.1865
C2 C -0.3137(15) 0.5960(11) 0.3288(9)
H2 H -0.3943 0.5760 0.3592
C3 C -0.1846(12) 0.6846(10) 0.3838(7)
H3 H -0.1765 0.7277 0.4517
C4 C -0.0620(11) 0.7132(8) 0.3406(6)
C5 C -0.0829(11) 0.6420(8) 0.2377(7)
C6 C 0.0374(11) 0.6624(9) 0.1856(7)
C7 C 0.1741(12) 0.7573(9) 0.2403(7)
H4 H 0.2537 0.7749 0.2085
C8 C 0.1918(12) 0.8252(9) 0.3413(7)
H5 H 0.2848 0.8864 0.3760
C9 C 0.0790(11) 0.8065(9) 0.3921(6)
C10 C 0.2323(12) 1.0275(9) 0.6414(7)
C11 C 0.3757(13) 1.1133(12) 0.6901(8)
H6 H 0.4515 1.1235 0.6545
C12 C 0.4057(13) 1.1831(11) 0.7911(8)
H7 H 0.5019 1.2405 0.8243
C13 C 0.2911(11) 1.1673(8) 0.8434(7)
C14 C 0.1473(11) 1.0838(8) 0.7929(7)
H8 H 0.0700 1.0756 0.8274
C15 C 0.1174(12) 1.0122(9) 0.6913(7)
H9 H 0.0212 0.9550 0.6577
C16 C -0.0940(18) 0.1299(13) 0.0253(14)
H10 H -0.0263 0.1684 -0.0109
H11 H -0.1309 0.0431 -0.0070
H12 H -0.0404 0.1488 0.0958
C17 C -0.3383(16) 0.1155(12) 0.1058(11)
H13 H -0.2690 0.1444 0.1729
H14 H -0.3664 0.0284 0.0792
H15 H -0.4280 0.1367 0.1111
Pb1_2 Pb 0.77501(4) 1.46991(3) 1.00140(2)
Pb1A Pb 0.22499(4) 0.53009(3) -0.00140(2)
Pb1A_2 Pb 0.22499(4) 1.53009(3) 0.99860(2)
O1A O -0.0184(7) 0.4091(6) -0.0909(4)
O2A O -0.2114(9) 0.6961(7) 0.0151(5)
O3_2 O -0.5237(10) 0.3453(9) -0.0016(6)
O6 O 0.217(3) 0.452(2) 0.2571(17)
C18 C 0.169(4) 0.491(4) 0.352(3)
C19 C 0.312(5) 0.512(3) 0.428(2)
C20 C 0.139(5) 0.358(3) 0.343(3)
O7 O 0.352(5) 0.137(4) 0.289(3)
C21 C 0.475(6) 0.255(5) 0.325(4)
C22 C 0.436(8) 0.291(6) 0.427(4)
C23 C 0.573(5) 0.202(6) 0.382(5)
O8? O -0.002(3) 0.402(3) 0.360(2)
C24? C 0.149(4) 0.478(3) 0.367(4)
C25? C 0.285(4) 0.451(4) 0.414(3)
C26? C 0.086(4) 0.338(3) 0.316(3)
O9? O 0.488(5) 0.192(4) 0.463(3)
C27? C 0.440(7) 0.151(5) 0.351(4)
C28? C 0.534(6) 0.282(6) 0.367(5)
C29? C 0.311(5) 0.195(7) 0.368(6)
loop_
_geom_bond_atom_site_label_1
_geom_bond_atom_site_label_2
_geom_bond_site_symmetry_1
_geom_bond_site_symmetry_2
Pb1 O1 1_555 1_555
S1 O2 1_555 1_555
S2 O5 1_555 1_555
O1 C6 1_555 1_555
O2 Pb1A_2 1_555 1_555
O3 S1 1_555 1_555
O4 S1 1_555 1_555
O5 Pb1 1_555 1_555
N1 Pb1 1_555 1_555
N2 N3 1_555 1_555
N3 C10 1_555 1_555
C1 N1 1_555 1_555
H1 C1 1_555 1_555
C2 C1 1_555 1_555
H2 C2 1_555 1_555
C3 C2 1_555 1_555
H3 C3 1_555 1_555
C4 C3 1_555 1_555
C5 N1 1_555 1_555
C6 C5 1_555 1_555
C7 C6 1_555 1_555
H4 C7 1_555 1_555
C8 C7 1_555 1_555
H5 C8 1_555 1_555
C9 N2 1_555 1_555
C10 C11 1_555 1_555
C11 H6 1_555 1_555
C12 C11 1_555 1_555
H7 C12 1_555 1_555
C13 S1 1_555 1_555
C14 C13 1_555 1_555
H8 C14 1_555 1_555
C15 C10 1_555 1_555
H9 C15 1_555 1_555
C16 S2 1_555 1_555
H10 C16 1_555 1_555
H11 C16 1_555 1_555
H12 C16 1_555 1_555
C17 S2 1_555 1_555
H13 C17 1_555 1_555
H14 C17 1_555 1_555
H15 C17 1_555 1_555
O6 C18 1_555 1_555
C18 C19 1_555 1_555
C20 C18 1_555 1_555
O7 C21 1_555 1_555
C21 C22 1_555 1_555
C23 C21 1_555 1_555
Pb1_2 O3 1_555 1_555
Pb1A O1 1_555 1_555
O1A Pb1 1_555 1_555
O2A Pb1 1_555 1_555
O3_2 Pb1 1_555 1_555
C4 C5 1_555 1_555
C4 C9 1_555 1_555
C8 C9 1_555 1_555
C12 C13 1_555 1_555
C14 C15 1_555 1_555
Pb1A O1A 1_555 1_555

#END
