
#######################################################################
#
#                 Cambridge Crystallographic Data Centre
#                                CCDC 
#
#######################################################################
#
# If this CIF has been generated from an entry in the Cambridge 
# Structural Database, then it will include bibliographic, chemical, 
# crystal, experimental, refinement or atomic coordinate data resulting 
# from the CCDC's data processing and validation procedures.
#
#######################################################################

data_BEXTOP
_symmetry_cell_setting           triclinic
_symmetry_space_group_name_H-M   'P -1'
_symmetry_Int_Tables_number      2
_space_group_name_Hall           '-P 1'
loop_
_symmetry_equiv_pos_site_id
_symmetry_equiv_pos_as_xyz
1 x,y,z
2 -x,-y,-z
_cell_length_a                   9.6478(10)
_cell_length_b                   12.1746(13)
_cell_length_c                   12.1908(13)
_cell_angle_alpha                110.2610(10)
_cell_angle_beta                 99.4840(10)
_cell_angle_gamma                103.1820(10)
_cell_volume                     1260.49
loop_
_atom_site_label
_atom_site_type_symbol
_atom_site_fract_x
_atom_site_fract_y
_atom_site_fract_z
C1 C 0.6093(5) 0.2576(4) 0.7971(4)
C2 C 0.7552(5) 0.3458(4) 0.8110(4)
C3 C 0.7706(5) 0.4695(4) 0.8428(4)
H1 H 0.6884 0.4969 0.8468
C4 C 0.9101(5) 0.5533(4) 0.8691(4)
C5 C 1.0334(5) 0.5128(4) 0.8644(4)
H2 H 1.1266 0.5687 0.8844
C6 C 1.0162(4) 0.3887(4) 0.8299(4)
C7 C 1.1496(5) 0.3461(4) 0.8275(4)
C8 C 0.8779(5) 0.3051(4) 0.8031(4)
H3 H 0.8675 0.2218 0.7798
C9 C 1.0521(6) 0.7626(4) 0.9290(5)
H4 H 1.0909 0.7453 0.8584
H5 H 1.1225 0.7615 0.9950
C10 C 1.0256(6) 0.8866(4) 0.9647(5)
C11 C 0.9765(7) 0.9275(5) 0.8808(5)
H6 H 0.9610 0.8794 0.7991
C12 C 1.0512(7) 0.9609(5) 1.0865(5)
H7 H 1.0870 0.9354 1.1460
C13 C 0.4372(6) 0.2136(4) 1.1689(4)
H8 H 0.4343 0.1785 1.2255
C14 C 0.4947(5) 0.3413(4) 1.0823(4)
H9 H 0.5400 0.4116 1.0717
C15 C 0.6304(6) 0.4096(5) 1.3014(4)
H10 H 0.6897 0.4795 1.2912
H11 H 0.6961 0.3668 1.3239
C16 C 0.5601(5) 0.4556(5) 1.4024(4)
C17 C 0.5271(6) 0.5649(5) 1.4289(5)
H12 H 0.5442 0.6091 1.3811
C18 C 0.5312(6) 0.3903(5) 1.4741(5)
H13 H 0.5512 0.3158 1.4568
C19 C 0.2442(6) -0.1731(4) 0.6582(5)
H14 H 0.2684 -0.2456 0.6443
C20 C 0.1272(5) -0.0417(4) 0.6481(4)
H15 H 0.0546 -0.0095 0.6244
C21 C 0.0044(8) -0.2618(5) 0.5015(5)
H16 H 0.0213 -0.2596 0.4258
H17 H -0.0916 -0.2511 0.5050
C22 C 0.0029(6) -0.3842(4) 0.5020(4)
C23 C 0.0811(6) -0.4513(5) 0.4362(4)
H18 H 0.1366 -0.4187 0.3929
C24 C -0.0780(6) -0.4337(5) 0.5664(5)
H19 H -0.1308 -0.3896 0.6117
N1 N 0.3946(4) 0.2427(3) 0.9976(3)
N2 N 0.3611(7) 0.1663(5) 1.0560(5)
N3 N 0.5216(4) 0.3258(4) 1.1844(3)
N4 N 0.2543(4) 0.0235(3) 0.7318(3)
N5 N 0.3234(6) -0.0608(5) 0.7353(5)
N6 N 0.1190(5) -0.1586(4) 0.6038(4)
O1 O 0.4971(3) 0.2928(3) 0.7804(3)
O2 O 0.6073(4) 0.1602(3) 0.8073(4)
O3 O 1.1305(3) 0.2313(3) 0.7767(3)
O4 O 1.2751(3) 0.4219(3) 0.8779(4)
O5 O 0.9129(4) 0.6735(3) 0.9021(4)
Zn1 Zn 0.32605(5) 0.21048(4) 0.82014(4)
C1A C 1.3907(5) 1.7424(4) 1.2029(4)
C2A C 1.2448(5) 1.6542(4) 1.1890(4)
C3A C 1.2294(5) 1.5305(4) 1.1572(4)
H1A H 1.3116 1.5031 1.1532
C4A C 1.0899(5) 1.4467(4) 1.1309(4)
C5A C 0.9666(5) 1.4872(4) 1.1356(4)
H2A H 0.8734 1.4313 1.1156
C6A C 0.9838(4) 1.6113(4) 1.1701(4)
C7A C 0.8504(5) 1.6539(4) 1.1725(4)
C8A C 1.1221(5) 1.6949(4) 1.1969(4)
H3A H 1.1325 1.7782 1.2202
C9A C 0.9479(6) 1.2374(4) 1.0710(5)
H4A H 0.9091 1.2547 1.1416
H5A H 0.8775 1.2385 1.0050
C10A C 0.9744(6) 1.1134(4) 1.0353(5)
C11A C 1.0235(7) 1.0725(5) 1.1192(5)
H6A H 1.0390 1.1206 1.2009
C12A C 0.9488(7) 1.0391(5) 0.9135(5)
H7A H 0.9130 1.0646 0.8540
O1A O 1.5029(3) 1.7072(3) 1.2196(3)
O2A O 1.3927(4) 1.8398(3) 1.1927(4)
O3A O 0.8695(3) 1.7687(3) 1.2233(3)
O4A O 0.7249(3) 1.5781(3) 1.1221(4)
O5A O 1.0871(4) 1.3265(3) 1.0979(4)
C13A C 0.5628(6) 0.7864(4) 1.8311(4)
H8A H 0.5657 0.8215 1.7745
C14A C 0.5053(5) 0.6587(4) 1.9177(4)
H9A H 0.4600 0.5884 1.9283
C15A C 0.3696(6) 0.5904(5) 1.6986(4)
H10A H 0.3103 0.5205 1.7088
H11A H 0.3039 0.6332 1.6761
C16A C 0.4399(5) 0.5444(5) 1.5976(4)
C17A C 0.4729(6) 0.4351(5) 1.5711(5)
H12A H 0.4558 0.3909 1.6189
C18A C 0.4688(6) 0.6097(5) 1.5259(5)
H13A H 0.4488 0.6842 1.5432
N1A N 0.6054(4) 0.7573(3) 2.0024(3)
N2A N 0.6389(7) 0.8337(5) 1.9440(5)
N3A N 0.4784(4) 0.6742(4) 1.8156(3)
C19A C -0.2442(6) -0.8269(4) 0.3418(5)
H14A H -0.2684 -0.7544 0.3557
C20A C -0.1272(5) -0.9583(4) 0.3519(4)
H15A H -0.0546 -0.9905 0.3756
C21A C -0.0044(8) -0.7382(5) 0.4985(5)
H16A H -0.0213 -0.7404 0.5742
H17A H 0.0916 -0.7489 0.4950
C22A C -0.0029(6) -0.6158(4) 0.4980(4)
C23A C -0.0811(6) -0.5487(5) 0.5638(4)
H18A H -0.1366 -0.5813 0.6071
C24A C 0.0780(6) -0.5663(5) 0.4336(5)
H19A H 0.1308 -0.6104 0.3883
N4A N -0.2543(4) -1.0235(3) 0.2682(3)
N5A N -0.3234(6) -0.9392(5) 0.2647(5)
N6A N -0.1190(5) -0.8414(4) 0.3962(4)
Zn1A Zn -0.32605(5) -1.21048(4) 0.17986(4)
N1A_2 N -0.3946(4) -1.2427(3) 0.0024(3)
O1A_2 O -0.4971(3) -1.2928(3) 0.2196(3)
O3_2 O 0.1305(3) 0.2313(3) 0.7767(3)
O3A_2 O -0.1305(3) -1.2313(3) 0.2233(3)
Zn1_2 Zn 1.32605(5) 0.21048(4) 0.82014(4)
Zn1A_2 Zn 0.67395(5) 0.78952(4) 2.17986(4)
Zn1A_3 Zn 0.67395(5) 1.78952(4) 1.17986(4)
Zn1A_4 Zn 1.67395(5) 1.78952(4) 1.17986(4)
O6 O 0.3444(14) 0.0686(11) 0.3121(10)
O7 O 0.2564(17) 0.0758(12) 0.4648(12)
loop_
_geom_bond_atom_site_label_1
_geom_bond_atom_site_label_2
_geom_bond_site_symmetry_1
_geom_bond_site_symmetry_2
C1 C2 1_555 1_555
C2 C3 1_555 1_555
C3 H1 1_555 1_555
C4 C3 1_555 1_555
C5 C4 1_555 1_555
H2 C5 1_555 1_555
C6 C5 1_555 1_555
C7 C6 1_555 1_555
C8 C2 1_555 1_555
H3 C8 1_555 1_555
C9 H4 1_555 1_555
H5 C9 1_555 1_555
C10 C9 1_555 1_555
C11 C10 1_555 1_555
H6 C11 1_555 1_555
C12 C10 1_555 1_555
H7 C12 1_555 1_555
C13 H8 1_555 1_555
C14 H9 1_555 1_555
C15 H10 1_555 1_555
H11 C15 1_555 1_555
C16 C15 1_555 1_555
C17 C16 1_555 1_555
H12 C17 1_555 1_555
C18 C16 1_555 1_555
H13 C18 1_555 1_555
C19 H14 1_555 1_555
C20 H15 1_555 1_555
C21 H16 1_555 1_555
H17 C21 1_555 1_555
C22 C21 1_555 1_555
C23 C22 1_555 1_555
H18 C23 1_555 1_555
C24 C22 1_555 1_555
H19 C24 1_555 1_555
N1 C14 1_555 1_555
N2 C13 1_555 1_555
N3 C13 1_555 1_555
N4 C20 1_555 1_555
N5 C19 1_555 1_555
N6 C19 1_555 1_555
O1 C1 1_555 1_555
O2 C1 1_555 1_555
O3 C7 1_555 1_555
O4 C7 1_555 1_555
O5 C4 1_555 1_555
Zn1 N1 1_555 1_555
C1A C2A 1_555 1_555
C2A C3A 1_555 1_555
C3A H1A 1_555 1_555
C4A C3A 1_555 1_555
C5A C4A 1_555 1_555
H2A C5A 1_555 1_555
C6A C5A 1_555 1_555
C7A C6A 1_555 1_555
C8A C2A 1_555 1_555
H3A C8A 1_555 1_555
C9A H4A 1_555 1_555
H5A C9A 1_555 1_555
C10A C9A 1_555 1_555
C11A C12 1_555 1_555
H6A C11A 1_555 1_555
C12A C11 1_555 1_555
H7A C12A 1_555 1_555
O1A C1A 1_555 1_555
O2A C1A 1_555 1_555
O3A C7A 1_555 1_555
O4A C7A 1_555 1_555
O5A C4A 1_555 1_555
C13A H8A 1_555 1_555
C14A H9A 1_555 1_555
C15A H10A 1_555 1_555
H11A C15A 1_555 1_555
C16A C15A 1_555 1_555
C17A C18 1_555 1_555
H12A C17A 1_555 1_555
C18A C17 1_555 1_555
H13A C18A 1_555 1_555
N1A C14A 1_555 1_555
N2A C13A 1_555 1_555
N3A C13A 1_555 1_555
C19A H14A 1_555 1_555
C20A H15A 1_555 1_555
C21A H16A 1_555 1_555
H17A C21A 1_555 1_555
C22A C21A 1_555 1_555
C23A C24 1_555 1_555
H18A C23A 1_555 1_555
C24A C23 1_555 1_555
H19A C24A 1_555 1_555
N4A C20A 1_555 1_555
N5A C19A 1_555 1_555
N6A C19A 1_555 1_555
Zn1A N4A 1_555 1_555
N1A_2 Zn1A 1_555 1_555
O1A_2 Zn1A 1_555 1_555
O3_2 Zn1 1_555 1_555
O3A_2 Zn1A 1_555 1_555
Zn1_2 O3 1_555 1_555
Zn1A_2 N1A 1_555 1_555
Zn1A_3 O3A 1_555 1_555
Zn1A_4 O1A 1_555 1_555
C6 C8 1_555 1_555
C9 O5 1_555 1_555
C14 N3 1_555 1_555
C15 N3 1_555 1_555
C20 N6 1_555 1_555
C21 N6 1_555 1_555
N1 N2 1_555 1_555
N4 N5 1_555 1_555
N4 Zn1 1_555 1_555
O1 Zn1 1_555 1_555
C6A C8A 1_555 1_555
C9A O5A 1_555 1_555
C10A C11A 1_555 1_555
C10A C12A 1_555 1_555
C14A N3A 1_555 1_555
C15A N3A 1_555 1_555
C16A C17A 1_555 1_555
C16A C18A 1_555 1_555
N1A N2A 1_555 1_555
C20A N6A 1_555 1_555
C21A N6A 1_555 1_555
C22A C23A 1_555 1_555
C22A C24A 1_555 1_555
N4A N5A 1_555 1_555

#END
