
#######################################################################
#
#                 Cambridge Crystallographic Data Centre
#                                CCDC 
#
#######################################################################
#
# If this CIF has been generated from an entry in the Cambridge 
# Structural Database, then it will include bibliographic, chemical, 
# crystal, experimental, refinement or atomic coordinate data resulting 
# from the CCDC's data processing and validation procedures.
#
#######################################################################

data_BEXTIJ
_symmetry_cell_setting           triclinic
_symmetry_space_group_name_H-M   'P -1'
_symmetry_Int_Tables_number      2
_space_group_name_Hall           '-P 1'
loop_
_symmetry_equiv_pos_site_id
_symmetry_equiv_pos_as_xyz
1 x,y,z
2 -x,-y,-z
_cell_length_a                   9.611(8)
_cell_length_b                   12.083(8)
_cell_length_c                   12.148(8)
_cell_angle_alpha                64.229(7)
_cell_angle_beta                 75.943(7)
_cell_angle_gamma                77.590(8)
_cell_volume                     1222.7
loop_
_atom_site_label
_atom_site_type_symbol
_atom_site_fract_x
_atom_site_fract_y
_atom_site_fract_z
C1 C 0.2619(6) 1.1501(6) -0.1641(8)
C2 C 0.1247(6) 1.1127(6) -0.1661(7)
C3 C 0.0039(6) 1.2002(6) -0.1963(8)
H1 H 0.0089 1.2831 -0.2166
C4 C -0.1246(6) 1.1637(6) -0.1961(7)
C5 C -0.2579(6) 1.2582(7) -0.2183(7)
C6 C -0.1311(6) 1.0418(6) -0.1694(6)
H2 H -0.2156 1.0183 -0.1724
C7 C -0.0117(6) 0.9535(6) -0.1378(7)
C8 C 0.1172(6) 0.9892(6) -0.1355(7)
H3 H 0.1969 0.9303 -0.1135
C9 C 0.0895(7) 0.7412(6) -0.0776(7)
H4 H 0.1265 0.7439 -0.0115
H5 H 0.1661 0.7553 -0.1492
C10 C 0.0397(6) 0.6161(6) -0.0361(7)
C11 C -0.0510(8) 0.5985(7) -0.0981(7)
H6 H -0.0843 0.6648 -0.1658
C12 C 0.0925(8) 0.5163(6) 0.0605(7)
H7 H 0.1566 0.5264 0.1007
C13 C 0.4613(7) 1.1744(6) 0.0789(9)
H8 H 0.4637 1.0957 0.0820
C14 C 0.4379(10) 1.3653(8) 0.0202(9)
H9 H 0.4230 1.4496 -0.0288
C15 C 0.5114(8) 1.1080(7) 0.2902(8)
H10 H 0.5598 1.1478 0.3219
H11 H 0.5775 1.0383 0.2814
C16 C 0.3782(7) 1.0597(6) 0.3844(7)
C17 C 0.3454(8) 0.9441(7) 0.4127(7)
H12 H 0.4026 0.8985 0.3693
C18 C 0.2313(7) 0.8929(6) 0.5026(7)
C19 C 0.1458(8) 0.9622(7) 0.5633(7)
H13 H 0.0671 0.9300 0.6231
C20 C 0.1739(8) 1.0799(7) 0.5377(7)
H14 H 0.1156 1.1257 0.5805
C21 C 0.2909(8) 1.1281(7) 0.4469(7)
H15 H 0.3102 1.2071 0.4282
C22 C 0.1966(8) 0.7671(7) 0.5286(7)
H16 H 0.1016 0.7549 0.5793
H17 H 0.1942 0.7633 0.4509
C23 C 0.2876(7) 0.5594(6) 0.6767(8)
H18 H 0.1978 0.5319 0.7150
C24 C 0.5055(8) 0.5605(8) 0.6264(9)
H19 H 0.6046 0.5371 0.6237
N1 N 0.4376(5) 1.2783(5) -0.0187(5)
N2 N 0.4617(9) 1.3203(6) 0.1357(8)
N3 N 0.4804(6) 1.1952(5) 0.1690(6)
N4 N 0.3040(5) 0.6672(5) 0.5929(5)
N5 N 0.4510(8) 0.6675(7) 0.5518(9)
N6 N 0.4123(5) 0.4900(5) 0.7037(5)
O1 O 0.2742(4) 1.2670(4) -0.2230(5)
O2 O 0.3556(5) 1.0739(5) -0.1087(7)
O3 O -0.2606(4) 1.3596(4) -0.2161(5)
O4 O -0.3645(4) 1.2225(4) -0.2361(5)
O5 O -0.0309(4) 0.8338(4) -0.1086(5)
Zn1 Zn 0.44649(7) 1.30536(7) -0.19630(8)
C1A C -0.2619(6) -0.1501(6) 0.1641(8)
C2A C -0.1247(6) -0.1127(6) 0.1661(7)
C3A C -0.0039(6) -0.2002(6) 0.1963(8)
H1A H -0.0089 -0.2831 0.2166
C4A C 0.1246(6) -0.1637(6) 0.1961(7)
C5A C 0.2579(6) -0.2582(7) 0.2183(7)
C6A C 0.1311(6) -0.0418(6) 0.1694(6)
H2A H 0.2156 -0.0183 0.1724
C7A C 0.0117(6) 0.0465(6) 0.1378(7)
C8A C -0.1172(6) 0.0108(6) 0.1355(7)
H3A H -0.1969 0.0697 0.1135
C9A C -0.0895(7) 0.2588(6) 0.0776(7)
H4A H -0.1265 0.2561 0.0115
H5A H -0.1661 0.2447 0.1492
C10A C -0.0397(6) 0.3839(6) 0.0361(7)
C11A C 0.0510(8) 0.4015(7) 0.0981(7)
H6A H 0.0843 0.3352 0.1658
C12A C -0.0925(8) 0.4837(6) -0.0605(7)
H7A H -0.1566 0.4736 -0.1007
O1A O -0.2742(4) -0.2670(4) 0.2230(5)
O2A O -0.3556(5) -0.0739(5) 0.1087(7)
O3A O 0.2606(4) -0.3596(4) 0.2161(5)
O4A O 0.3645(4) -0.2225(4) 0.2361(5)
O5A O 0.0309(4) 0.1662(4) 0.1086(5)
C13A C -0.4613(7) -0.1744(6) -0.0789(9)
H8A H -0.4637 -0.0957 -0.0820
C14A C -0.4379(10) -0.3653(8) -0.0202(9)
H9A H -0.4230 -0.4496 0.0288
C15A C -0.5114(8) -0.1080(7) -0.2902(8)
H10A H -0.5598 -0.1478 -0.3219
H11A H -0.5775 -0.0383 -0.2814
C16A C -0.3782(7) -0.0597(6) -0.3844(7)
C17A C -0.3454(8) 0.0559(7) -0.4127(7)
H12A H -0.4026 0.1015 -0.3693
C18A C -0.2313(7) 0.1071(6) -0.5026(7)
C19A C -0.1458(8) 0.0378(7) -0.5633(7)
H13A H -0.0671 0.0700 -0.6231
C20A C -0.1739(8) -0.0799(7) -0.5377(7)
H14A H -0.1156 -0.1257 -0.5805
C21A C -0.2909(8) -0.1281(7) -0.4469(7)
H15A H -0.3102 -0.2071 -0.4282
C22A C -0.1966(8) 0.2329(7) -0.5286(7)
H16A H -0.1016 0.2451 -0.5793
H17A H -0.1942 0.2367 -0.4509
C23A C -0.2876(7) 0.4406(6) -0.6767(8)
H18A H -0.1978 0.4681 -0.7150
C24A C -0.5055(8) 0.4395(8) -0.6264(9)
H19A H -0.6046 0.4629 -0.6237
N1A N -0.4376(5) -0.2783(5) 0.0187(5)
N2A N -0.4617(9) -0.3203(6) -0.1357(8)
N3A N -0.4804(6) -0.1952(5) -0.1690(6)
N4A N -0.3040(5) 0.3328(5) -0.5929(5)
N5A N -0.4510(8) 0.3325(7) -0.5518(9)
N6A N -0.4123(5) 0.5100(5) -0.7037(5)
Zn1A Zn -0.44649(7) -0.30536(7) 0.19630(8)
N6_2 N 0.4123(5) 1.4900(5) -0.2963(5)
N6A_2 N -0.4123(5) -0.4900(5) 0.2963(5)
O4_2 O 0.6355(4) 1.2225(4) -0.2361(5)
O4A_2 O -0.6355(4) -0.2225(4) 0.2361(5)
Zn1_2 Zn -0.55351(7) 1.30536(7) -0.19630(8)
Zn1_3 Zn 0.44649(7) 0.30536(7) 0.80370(8)
Zn1A_2 Zn -0.44649(7) 0.69464(7) -0.80370(8)
Zn1A_3 Zn 0.55351(7) -0.30536(7) 0.19630(8)
O6 O 0.0732(7) 0.4492(6) 0.3632(7)
O7 O 0.8267(8) 0.5810(8) 0.4399(7)
loop_
_geom_bond_atom_site_label_1
_geom_bond_atom_site_label_2
_geom_bond_site_symmetry_1
_geom_bond_site_symmetry_2
C1 C2 1_555 1_555
C2 C3 1_555 1_555
C3 H1 1_555 1_555
C4 C3 1_555 1_555
C5 C4 1_555 1_555
C6 C4 1_555 1_555
H2 C6 1_555 1_555
C7 C6 1_555 1_555
C8 C2 1_555 1_555
H3 C8 1_555 1_555
C9 H4 1_555 1_555
H5 C9 1_555 1_555
C10 C9 1_555 1_555
C11 C10 1_555 1_555
H6 C11 1_555 1_555
C12 C10 1_555 1_555
H7 C12 1_555 1_555
C13 H8 1_555 1_555
C14 H9 1_555 1_555
C15 H10 1_555 1_555
H11 C15 1_555 1_555
C16 C15 1_555 1_555
C17 C16 1_555 1_555
H12 C17 1_555 1_555
C18 C17 1_555 1_555
C19 C18 1_555 1_555
H13 C19 1_555 1_555
C20 C19 1_555 1_555
H14 C20 1_555 1_555
C21 C16 1_555 1_555
H15 C21 1_555 1_555
C22 C18 1_555 1_555
H16 C22 1_555 1_555
H17 C22 1_555 1_555
C23 H18 1_555 1_555
C24 H19 1_555 1_555
N1 C13 1_555 1_555
N2 C14 1_555 1_555
N3 C13 1_555 1_555
N4 C22 1_555 1_555
N5 C24 1_555 1_555
N6 C23 1_555 1_555
O1 C1 1_555 1_555
O2 C1 1_555 1_555
O3 C5 1_555 1_555
O4 C5 1_555 1_555
O5 C7 1_555 1_555
Zn1 N1 1_555 1_555
C1A C2A 1_555 1_555
C2A C3A 1_555 1_555
C3A H1A 1_555 1_555
C4A C3A 1_555 1_555
C5A C4A 1_555 1_555
C6A C4A 1_555 1_555
H2A C6A 1_555 1_555
C7A C6A 1_555 1_555
C8A C2A 1_555 1_555
H3A C8A 1_555 1_555
C9A H4A 1_555 1_555
H5A C9A 1_555 1_555
C10A C9A 1_555 1_555
C11A C12 1_555 1_555
H6A C11A 1_555 1_555
C12A C11 1_555 1_555
H7A C12A 1_555 1_555
O1A C1A 1_555 1_555
O2A C1A 1_555 1_555
O3A C5A 1_555 1_555
O4A C5A 1_555 1_555
O5A C7A 1_555 1_555
C13A H8A 1_555 1_555
C14A H9A 1_555 1_555
C15A H10A 1_555 1_555
H11A C15A 1_555 1_555
C16A C15A 1_555 1_555
C17A C16A 1_555 1_555
H12A C17A 1_555 1_555
C18A C17A 1_555 1_555
C19A C18A 1_555 1_555
H13A C19A 1_555 1_555
C20A C19A 1_555 1_555
H14A C20A 1_555 1_555
C21A C16A 1_555 1_555
H15A C21A 1_555 1_555
C22A C18A 1_555 1_555
H16A C22A 1_555 1_555
H17A C22A 1_555 1_555
C23A H18A 1_555 1_555
C24A H19A 1_555 1_555
N1A C13A 1_555 1_555
N2A C14A 1_555 1_555
N3A C13A 1_555 1_555
N4A C22A 1_555 1_555
N5A C24A 1_555 1_555
N6A C23A 1_555 1_555
Zn1A O1A 1_555 1_555
N6_2 Zn1 1_555 1_555
N6A_2 Zn1A 1_555 1_555
O4_2 Zn1 1_555 1_555
O4A_2 Zn1A 1_555 1_555
Zn1_2 O4 1_555 1_555
Zn1_3 N6 1_555 1_555
Zn1A_2 N6A 1_555 1_555
Zn1A_3 O4A 1_555 1_555
C7 C8 1_555 1_555
C9 O5 1_555 1_555
C14 N1 1_555 1_555
C15 N3 1_555 1_555
C20 C21 1_555 1_555
C23 N4 1_555 1_555
C24 N6 1_555 1_555
N2 N3 1_555 1_555
N4 N5 1_555 1_555
O1 Zn1 1_555 1_555
C7A C8A 1_555 1_555
C9A O5A 1_555 1_555
C10A C11A 1_555 1_555
C10A C12A 1_555 1_555
C14A N1A 1_555 1_555
C15A N3A 1_555 1_555
C20A C21A 1_555 1_555
C23A N4A 1_555 1_555
C24A N6A 1_555 1_555
N1A Zn1A 1_555 1_555
N2A N3A 1_555 1_555
N4A N5A 1_555 1_555

#END
