
#######################################################################
#
#                 Cambridge Crystallographic Data Centre
#                                CCDC 
#
#######################################################################
#
# If this CIF has been generated from an entry in the Cambridge 
# Structural Database, then it will include bibliographic, chemical, 
# crystal, experimental, refinement or atomic coordinate data resulting 
# from the CCDC's data processing and validation procedures.
#
#######################################################################

data_BEYBIR
_symmetry_cell_setting           monoclinic
_symmetry_space_group_name_H-M   'C 2/c'
_symmetry_Int_Tables_number      15
_space_group_name_Hall           '-C 2yn'
loop_
_symmetry_equiv_pos_site_id
_symmetry_equiv_pos_as_xyz
1 x,y,z
2 1/2+x,1/2+y,z
3 x,-y,1/2+z
4 1/2+x,1/2-y,1/2+z
5 -x,-y,-z
6 1/2-x,1/2-y,-z
7 -x,y,1/2-z
8 1/2-x,1/2+y,1/2-z
_cell_length_a                   26.439(5)
_cell_length_b                   15.796(3)
_cell_length_c                   13.794(3)
_cell_angle_alpha                90
_cell_angle_beta                 102.37(3)
_cell_angle_gamma                90
_cell_volume                     5627.06
loop_
_atom_site_label
_atom_site_type_symbol
_atom_site_fract_x
_atom_site_fract_y
_atom_site_fract_z
Ni1 Ni 0.118122(16) 0.13143(3) 0.96577(3)
Ni2 Ni 0.364750(17) -0.12767(3) 0.95826(4)
N1 N 0.10957(14) 0.1190(2) 0.8109(2)
H1 H 0.0835 0.1518 0.7790
H2 H 0.1389 0.1349 0.7926
N2 N 0.12721(13) -0.0006(2) 0.9631(3)
H3 H 0.1552 -0.0165 1.0089
H4 H 0.0992 -0.0264 0.9767
N3 N 0.12748(13) 0.1437(2) 1.1209(3)
H5 H 0.0985 0.1270 1.1398
H6 H 0.1540 0.1113 1.1522
N4 N 0.10942(12) 0.2638(2) 0.9701(3)
H7 H 0.1377 0.2896 0.9578
H8 H 0.0818 0.2803 0.9238
N5 N 0.19833(12) 0.1468(2) 0.9822(3)
N6 N 0.29192(12) 0.1246(2) 1.0015(3)
N7 N 0.33270(14) -0.0091(2) 0.9723(3)
N8 N 0.34755(17) -0.1154(3) 0.8030(3)
H9 H 0.3399 -0.0612 0.7857
H10 H 0.3749 -0.1312 0.7782
N9 N 0.29085(12) -0.1823(2) 0.9329(3)
H11 H 0.2935 -0.2387 0.9415
H12 H 0.2728 -0.1612 0.9758
N10 N 0.38191(13) -0.1411(2) 1.1143(3)
H13 H 0.3541 -0.1273 1.1389
H14 H 0.3907 -0.1950 1.1312
N11 N 0.43929(14) -0.0711(3) 0.9874(4)
H15 H 0.4580 -0.0912 0.9451
H16 H 0.4364 -0.0146 0.9796
N12 N 0.03850(12) 0.1168(2) 0.9492(3)
N13 N -0.05560(12) 0.1219(2) 0.9375(3)
N14 N -0.10248(14) 0.2542(2) 0.9449(3)
C1 C 0.0983(2) 0.0292(3) 0.7862(4)
H17 H 0.1041 0.0170 0.7205
H18 H 0.0625 0.0167 0.7867
C2 C 0.13365(18) -0.0245(3) 0.8623(4)
H19 H 0.1253 -0.0839 0.8502
H20 H 0.1693 -0.0159 0.8573
C3 C 0.13811(19) 0.2336(3) 1.1463(4)
H21 H 0.1739 0.2469 1.1459
H22 H 0.1322 0.2453 1.2120
C4 C 0.10220(17) 0.2866(3) 1.0700(4)
H23 H 0.0666 0.2765 1.0744
H24 H 0.1097 0.3462 1.0824
C5 C 0.24156(13) 0.1335(2) 0.9891(3)
C6 C 0.31095(14) 0.0515(2) 0.9846(3)
C7 C 0.3029(2) -0.1702(4) 0.7644(4)
H25 H 0.3143 -0.2285 0.7629
H26 H 0.2868 -0.1534 0.6973
C8 C 0.26440(18) -0.1627(4) 0.8306(4)
H27 H 0.2505 -0.1057 0.8272
H28 H 0.2359 -0.2018 0.8089
C9 C 0.4254(2) -0.0841(4) 1.1545(4)
H29 H 0.4409 -0.0995 1.2224
H30 H 0.4132 -0.0261 1.1540
C10 C 0.46491(18) -0.0918(4) 1.0905(4)
H31 H 0.4934 -0.0531 1.1137
H32 H 0.4785 -0.1489 1.0940
C11 C -0.00548(14) 0.1218(2) 0.9446(3)
C12 C -0.07852(13) 0.1938(2) 0.9424(3)
Ni2A Ni -0.135250(17) 0.37233(3) 0.95826(4)
N12A N 0.53850(12) -0.3832(2) 0.9492(3)
N13A N 0.44440(12) -0.3781(2) 0.9375(3)
N14A N 0.39752(14) -0.2458(2) 0.9449(3)
C11A C 0.49452(14) -0.3782(2) 0.9446(3)
C12A C 0.42148(13) -0.3062(2) 0.9424(3)
N5A N -0.30167(12) 0.6468(2) 0.9822(3)
N6A N -0.20808(12) 0.6246(2) 1.0015(3)
N7A N -0.16730(14) 0.4909(2) 0.9723(3)
C5A C -0.25844(13) 0.6335(2) 0.9891(3)
C6A C -0.18905(14) 0.5515(2) 0.9846(3)
N8A N -0.15245(17) 0.3846(3) 0.8030(3)
H9A H -0.1601 0.4388 0.7857
H10A H -0.1251 0.3688 0.7782
N9A N -0.20915(12) 0.3177(2) 0.9329(3)
H11A H -0.2065 0.2613 0.9415
H12A H -0.2272 0.3388 0.9758
C7A C -0.1971(2) 0.3298(4) 0.7644(4)
H25A H -0.1857 0.2715 0.7629
H26A H -0.2132 0.3466 0.6973
C8A C -0.23560(18) 0.3373(4) 0.8306(4)
H27A H -0.2495 0.3943 0.8272
H28A H -0.2641 0.2982 0.8089
N10A N -0.11809(13) 0.3589(2) 1.1143(3)
H13A H -0.1459 0.3727 1.1389
H14A H -0.1093 0.3050 1.1312
N11A N -0.06071(14) 0.4289(3) 0.9874(4)
H15A H -0.0420 0.4088 0.9451
H16A H -0.0636 0.4854 0.9796
C9A C -0.0746(2) 0.4159(4) 1.1545(4)
H29A H -0.0591 0.4005 1.2224
H30A H -0.0868 0.4739 1.1540
C10A C -0.03509(18) 0.4082(4) 1.0905(4)
H31A H -0.0066 0.4469 1.1137
H32A H -0.0215 0.3511 1.0940
Ni1A Ni -0.381878(16) 0.63143(3) 0.96577(3)
N1A N -0.39043(14) 0.6190(2) 0.8109(2)
H1A H -0.4165 0.6518 0.7790
H2A H -0.3611 0.6349 0.7926
N2A N -0.37279(13) 0.4994(2) 0.9631(3)
H3A H -0.3448 0.4835 1.0089
H4A H -0.4008 0.4736 0.9767
C1A C -0.4017(2) 0.5292(3) 0.7862(4)
H17A H -0.3959 0.5170 0.7205
H18A H -0.4375 0.5167 0.7867
C2A C -0.36635(18) 0.4755(3) 0.8623(4)
H19A H -0.3747 0.4161 0.8502
H20A H -0.3307 0.4841 0.8573
N3A N -0.37252(13) 0.6437(2) 1.1209(3)
H5A H -0.4015 0.6270 1.1398
H6A H -0.3460 0.6113 1.1522
N4A N -0.39058(12) 0.7638(2) 0.9701(3)
H7A H -0.3623 0.7896 0.9578
H8A H -0.4182 0.7803 0.9238
C3A C -0.36189(19) 0.7336(3) 1.1463(4)
H21A H -0.3261 0.7469 1.1459
H22A H -0.3678 0.7453 1.2120
C4A C -0.39780(17) 0.7866(3) 1.0700(4)
H23A H -0.4334 0.7765 1.0744
H24A H -0.3903 0.8462 1.0824
Ni1A_2 Ni 0.618122(16) -0.36857(3) 0.96577(3)
N12A_2 N -0.46150(12) 0.6168(2) 0.9492(3)
Cl1 Cl 0.24315(4) 0.07524(6) 0.68213(7)
O1 O 0.2178(2) -0.0042(3) 0.6731(4)
O2 O 0.29781(14) 0.0636(3) 0.7123(3)
O3 O 0.22973(16) 0.1179(3) 0.5884(3)
O5 O 0.2314(11) 0.126(2) 0.758(2)
Cl2 Cl 0.0000 0.17656(11) 0.2500
O6 O 0.0089(3) 0.1242(5) 0.1740(4)
O7 O 0.0435(3) 0.2223(7) 0.2798(8)
O6F O -0.0089(3) 0.1242(5) 0.3260(4)
O7F O -0.0435(3) 0.2223(7) 0.2202(8)
Cl3 Cl 0.5000 0.15585(10) 0.2500
O8 O 0.4635(7) 0.2158(8) 0.2550(11)
O10 O 0.4849(3) 0.1238(9) 0.1408(8)
O8F O 0.5365(7) 0.2158(8) 0.2450(11)
O10F O 0.5151(3) 0.1238(9) 0.3592(8)
O4? O 0.2211(8) 0.1153(19) 0.7520(19)
O9? O 0.4537(4) 0.1880(16) 0.2495(12)
O11? O 0.4956(10) 0.0959(12) 0.1847(14)
loop_
_geom_bond_atom_site_label_1
_geom_bond_atom_site_label_2
_geom_bond_site_symmetry_1
_geom_bond_site_symmetry_2
Ni1 N1 1_555 1_555
Ni2 N7 1_555 1_555
N1 H1 1_555 1_555
H2 N1 1_555 1_555
N2 Ni1 1_555 1_555
H3 N2 1_555 1_555
H4 N2 1_555 1_555
N3 Ni1 1_555 1_555
H5 N3 1_555 1_555
H6 N3 1_555 1_555
N4 Ni1 1_555 1_555
H7 N4 1_555 1_555
H8 N4 1_555 1_555
N5 Ni1 1_555 1_555
N6 C5 1_555 1_555
N7 C6 1_555 1_555
N8 Ni2 1_555 1_555
H9 N8 1_555 1_555
H10 N8 1_555 1_555
N9 Ni2 1_555 1_555
H11 N9 1_555 1_555
H12 N9 1_555 1_555
N10 Ni2 1_555 1_555
H13 N10 1_555 1_555
H14 N10 1_555 1_555
N11 Ni2 1_555 1_555
H15 N11 1_555 1_555
H16 N11 1_555 1_555
N12 Ni1 1_555 1_555
N13 C11 1_555 1_555
N14 C12 1_555 1_555
Cl1 O1 1_555 1_555
Cl2 O6 1_555 1_555
Cl3 O8 1_555 1_555
C1 N1 1_555 1_555
H17 C1 1_555 1_555
H18 C1 1_555 1_555
C2 N2 1_555 1_555
H19 C2 1_555 1_555
H20 C2 1_555 1_555
C3 N3 1_555 1_555
H21 C3 1_555 1_555
H22 C3 1_555 1_555
C4 N4 1_555 1_555
H23 C4 1_555 1_555
H24 C4 1_555 1_555
C5 N5 1_555 1_555
C6 N6 1_555 1_555
C7 N8 1_555 1_555
H25 C7 1_555 1_555
H26 C7 1_555 1_555
C8 N9 1_555 1_555
H27 C8 1_555 1_555
H28 C8 1_555 1_555
C9 N10 1_555 1_555
H29 C9 1_555 1_555
H30 C9 1_555 1_555
C10 N11 1_555 1_555
H31 C10 1_555 1_555
H32 C10 1_555 1_555
C11 N12 1_555 1_555
C12 N13 1_555 1_555
O2 Cl1 1_555 1_555
O3 Cl1 1_555 1_555
O5 Cl1 1_555 1_555
O7 Cl2 1_555 1_555
O10 Cl3 1_555 1_555
O6F Cl2 1_555 1_555
O7F Cl2 1_555 1_555
O8F Cl3 1_555 1_555
O10F Cl3 1_555 1_555
Ni2A N14 1_555 1_555
N12A C11A 1_555 1_555
N13A C11A 1_555 1_555
N14A Ni2 1_555 1_555
C12A N13A 1_555 1_555
N5A C5A 1_555 1_555
N6A C5A 1_555 1_555
N7A Ni2A 1_555 1_555
C6A N6A 1_555 1_555
N8A Ni2A 1_555 1_555
H9A N8A 1_555 1_555
H10A N8A 1_555 1_555
N9A Ni2A 1_555 1_555
H11A N9A 1_555 1_555
H12A N9A 1_555 1_555
C7A N8A 1_555 1_555
H25A C7A 1_555 1_555
H26A C7A 1_555 1_555
C8A N9A 1_555 1_555
H27A C8A 1_555 1_555
H28A C8A 1_555 1_555
N10A Ni2A 1_555 1_555
H13A N10A 1_555 1_555
H14A N10A 1_555 1_555
N11A Ni2A 1_555 1_555
H15A N11A 1_555 1_555
H16A N11A 1_555 1_555
C9A N10A 1_555 1_555
H29A C9A 1_555 1_555
H30A C9A 1_555 1_555
C10A N11A 1_555 1_555
H31A C10A 1_555 1_555
H32A C10A 1_555 1_555
Ni1A N5A 1_555 1_555
N1A Ni1A 1_555 1_555
H1A N1A 1_555 1_555
H2A N1A 1_555 1_555
N2A Ni1A 1_555 1_555
H3A N2A 1_555 1_555
H4A N2A 1_555 1_555
C1A N1A 1_555 1_555
H17A C1A 1_555 1_555
H18A C1A 1_555 1_555
C2A N2A 1_555 1_555
H19A C2A 1_555 1_555
H20A C2A 1_555 1_555
N3A Ni1A 1_555 1_555
H5A N3A 1_555 1_555
H6A N3A 1_555 1_555
N4A Ni1A 1_555 1_555
H7A N4A 1_555 1_555
H8A N4A 1_555 1_555
C3A N3A 1_555 1_555
H21A C3A 1_555 1_555
H22A C3A 1_555 1_555
C4A N4A 1_555 1_555
H23A C4A 1_555 1_555
H24A C4A 1_555 1_555
Ni1A_2 N12A 1_555 1_555
N12A_2 Ni1A 1_555 1_555
C1 C2 1_555 1_555
C3 C4 1_555 1_555
C7 C8 1_555 1_555
C9 C10 1_555 1_555
N14A C12A 1_555 1_555
N7A C6A 1_555 1_555
C7A C8A 1_555 1_555
C9A C10A 1_555 1_555
C1A C2A 1_555 1_555
C3A C4A 1_555 1_555

#END
