
#######################################################################
#
#                 Cambridge Crystallographic Data Centre
#                                CCDC 
#
#######################################################################
#
# If this CIF has been generated from an entry in the Cambridge 
# Structural Database, then it will include bibliographic, chemical, 
# crystal, experimental, refinement or atomic coordinate data resulting 
# from the CCDC's data processing and validation procedures.
#
#######################################################################

data_BEYBOX
_symmetry_cell_setting           monoclinic
_symmetry_space_group_name_H-M   'P 21/c'
_symmetry_Int_Tables_number      14
_space_group_name_Hall           '-P 2ybc'
loop_
_symmetry_equiv_pos_site_id
_symmetry_equiv_pos_as_xyz
1 x,y,z
2 x,1/2-y,1/2+z
3 -x,-y,-z
4 -x,1/2+y,1/2-z
_cell_length_a                   6.9982(14)
_cell_length_b                   16.235(3)
_cell_length_c                   10.143(2)
_cell_angle_alpha                90
_cell_angle_beta                 99.55(3)
_cell_angle_gamma                90
_cell_volume                     1136.43
loop_
_atom_site_label
_atom_site_type_symbol
_atom_site_fract_x
_atom_site_fract_y
_atom_site_fract_z
Mn1 Mn 0.25743(3) 0.381047(14) 0.02942(2)
O1 O 0.12426(17) 0.45161(7) 0.18408(12)
O2 O 0.43645(18) 0.46862(8) 0.19322(12)
O3 O -0.16888(18) 0.79513(9) 0.65280(13)
O4 O 0.05305(18) 0.82555(8) 0.53226(12)
O5 O 0.30693(16) 0.71226(7) 0.66138(11)
O6 O 0.33193(19) 0.27730(8) 0.15960(13)
H1 H 0.2482 0.2708 0.2065
H2 H 0.442(4) 0.2798(17) 0.195(3)
O7 O 0.5504(2) 0.36755(9) -0.02207(17)
H3 H 0.6186 0.4060 0.0099
H4 H 0.601(4) 0.3363(18) -0.051(3)
O8 O 0.23115(18) 0.48890(8) -0.10134(13)
H5 H 0.1168 0.5020 -0.1207
H6 H 0.306(3) 0.4986(14) -0.152(2)
C1 C 0.2824(2) 0.48616(9) 0.23478(15)
C2 C 0.2837(2) 0.54695(9) 0.34594(15)
C3 C 0.4542(2) 0.58741(11) 0.40024(17)
H7 H 0.567(3) 0.5780(13) 0.365(2)
C4 C -0.0006(2) 0.78805(9) 0.62649(15)
C5 C 0.1376(2) 0.73205(10) 0.71662(15)
H8 H 0.1763 0.7588 0.8024
H9 H 0.0707 0.6815 0.7319
C6 C 0.2884(2) 0.65672(9) 0.55675(15)
C7 C 0.1173(2) 0.61824(10) 0.50333(17)
H10 H 0.0042 0.6288 0.5373
C8 C 0.4571(2) 0.64214(11) 0.50515(17)
H11 H 0.569(3) 0.6699(12) 0.538(2)
C9 C 0.1168(2) 0.56334(10) 0.39768(17)
H12 H -0.001(3) 0.5378(13) 0.360(2)
O3C O 0.16888(18) 0.29513(9) -0.15280(13)
O4C O -0.05305(18) 0.32555(8) -0.03226(12)
Mn1C Mn -0.25743(3) 0.881047(14) 0.47058(2)
loop_
_geom_bond_atom_site_label_1
_geom_bond_atom_site_label_2
_geom_bond_site_symmetry_1
_geom_bond_site_symmetry_2
Mn1 O1 1_555 1_555
O1 C1 1_555 1_555
O2 Mn1 1_555 1_555
O3 C4 1_555 1_555
O4 C4 1_555 1_555
O5 C5 1_555 1_555
O6 Mn1 1_555 1_555
H1 O6 1_555 1_555
H2 O6 1_555 1_555
O7 Mn1 1_555 1_555
H3 O7 1_555 1_555
H4 O7 1_555 1_555
O8 Mn1 1_555 1_555
H5 O8 1_555 1_555
H6 O8 1_555 1_555
C1 O2 1_555 1_555
C2 C1 1_555 1_555
C3 C2 1_555 1_555
H7 C3 1_555 1_555
C4 C5 1_555 1_555
C5 H8 1_555 1_555
H9 C5 1_555 1_555
C6 O5 1_555 1_555
C7 C6 1_555 1_555
H10 C7 1_555 1_555
C8 C3 1_555 1_555
H11 C8 1_555 1_555
C9 C2 1_555 1_555
H12 C9 1_555 1_555
O3C Mn1 1_555 1_555
O4C Mn1 1_555 1_555
Mn1C O3 1_555 1_555
O4 Mn1C 1_555 1_555
C6 C8 1_555 1_555
C7 C9 1_555 1_555

#END
