
#######################################################################
#
#                 Cambridge Crystallographic Data Centre
#                                CCDC 
#
#######################################################################
#
# If this CIF has been generated from an entry in the Cambridge 
# Structural Database, then it will include bibliographic, chemical, 
# crystal, experimental, refinement or atomic coordinate data resulting 
# from the CCDC's data processing and validation procedures.
#
#######################################################################

data_BEYCAK
_symmetry_cell_setting           monoclinic
_symmetry_space_group_name_H-M   'C 2/c'
_symmetry_Int_Tables_number      15
_space_group_name_Hall           '-C 2yn'
loop_
_symmetry_equiv_pos_site_id
_symmetry_equiv_pos_as_xyz
1 x,y,z
2 1/2+x,1/2+y,z
3 x,-y,1/2+z
4 1/2+x,1/2-y,1/2+z
5 -x,-y,-z
6 1/2-x,1/2-y,-z
7 -x,y,1/2-z
8 1/2-x,1/2+y,1/2-z
_cell_length_a                   24.483(4)
_cell_length_b                   12.581(2)
_cell_length_c                   16.269(3)
_cell_angle_alpha                90
_cell_angle_beta                 121.168(12)
_cell_angle_gamma                90
_cell_volume                     4287.84
loop_
_atom_site_label
_atom_site_type_symbol
_atom_site_fract_x
_atom_site_fract_y
_atom_site_fract_z
Ca1 Ca 0.98843(2) 0.53158(4) 0.86489(4)
O1 O 0.97399(9) 0.59608(14) 0.99141(12)
O2 O 0.93815(8) 0.5726(2) 0.69245(12)
O3 O 0.91159(9) 0.3870(2) 0.8084(2)
H1 H 0.88817(9) 0.3740(2) 0.8377(2)
H2 H 0.90560(9) 0.3446(2) 0.7576(2)
N1 N 0.98785(11) 0.7425(2) 0.8825(2)
H3 H 1.02750(11) 0.7682(2) 0.9057(2)
H4 H 0.96199(11) 0.7720(2) 0.8245(2)
N2 N 0.96635(12) 0.7686(2) 0.9451(2)
H5 H 0.95523(12) 0.8326(2) 0.9481(2)
N3 N 0.94858(11) 0.7239(2) 1.0644(2)
H6 H 0.94364(11) 0.7902(2) 1.0719(2)
N4 N 0.94128(11) 0.6443(2) 1.1196(2)
H7 H 0.89982(11) 0.6263(2) 1.0916(2)
H8 H 0.95412(11) 0.6698(2) 1.1786(2)
N5 N 0.86297(11) 0.6095(2) 0.7651(2)
H9 H 0.83756(11) 0.5661(2) 0.7747(2)
H10 H 0.86188(11) 0.6743(2) 0.7877(2)
N6 N 0.84046(10) 0.6161(2) 0.6664(2)
H11 H 0.80135(10) 0.6327(2) 0.6262(2)
N7 N 0.85706(10) 0.6061(2) 0.5413(2)
H12 H 0.81825(10) 0.6263(2) 0.5039(2)
N8 N 0.89637(11) 0.5831(2) 0.5044(2)
H13 H 0.89781(11) 0.6404(2) 0.4724(2)
H14 H 0.87894(11) 0.5293(2) 0.4621(2)
C1 C 0.96353(12) 0.6914(2) 1.0001(2)
C2 C 0.88095(12) 0.5960(2) 0.6354(2)
O1D O 1.02601(9) 0.40392(14) 1.00859(12)
O2F O 1.06185(8) 0.5726(2) 0.80755(12)
N4D N 1.05872(11) 0.3557(2) 0.8804(2)
N8F N 1.10363(11) 0.5831(2) 0.9956(2)
Ca1D Ca 1.01157(2) 0.46842(4) 1.13511(4)
Ca1F Ca 1.01157(2) 0.53158(4) 0.63511(4)
H7D H 1.10018(11) 0.3737(2) 0.9084(2)
H8D H 1.04588(11) 0.3302(2) 0.8214(2)
H13F H 1.10219(11) 0.6404(2) 1.0276(2)
H14F H 1.12106(11) 0.5293(2) 1.0379(2)
O4 O 1.13514(9) 0.0890(2) 1.00292(14)
O5 O 1.32248(11) 0.1457(2) 0.9053(2)
O6 O 1.22500(11) 0.1598(2) 0.7877(2)
N9 N 1.24466(11) 0.1051(2) 1.0639(2)
H15 H 1.25732(11) 0.0974(2) 1.1237(2)
N10 N 1.28408(11) 0.1210(2) 1.0298(2)
N11 N 1.18035(11) 0.1172(2) 0.9077(2)
N12 N 1.26464(12) 0.1456(2) 0.8723(2)
C3 C 1.18193(13) 0.1027(2) 0.9908(2)
C4 C 1.24260(13) 0.1274(2) 0.9382(2)
O7 O 1.21653(9) 0.5750(2) 1.24447(14)
O8 O 1.39626(10) 0.6540(2) 1.1353(2)
O9 O 1.29792(11) 0.6430(2) 1.01834(15)
N13 N 1.32433(11) 0.6006(2) 1.3006(2)
H16 H 1.33815(11) 0.5942(2) 1.3609(2)
N14 N 1.36219(11) 0.6188(2) 1.2639(2)
N15 N 1.25804(11) 0.6087(2) 1.1448(2)
N16 N 1.33939(12) 0.6409(2) 1.1047(2)
C5 C 1.26129(13) 0.5935(2) 1.2296(2)
C6 C 1.31928(12) 0.6223(2) 1.1722(2)
O10 O 1.01369(14) 0.0208(2) 0.8457(2)
O11 O 1.11597(15) 0.1777(3) 0.5733(2)
O12 O 0.92435(13) 0.1875(2) 0.7643(2)
O13? O 0.9765(3) 0.0118(6) 0.9783(6)
loop_
_geom_bond_atom_site_label_1
_geom_bond_atom_site_label_2
_geom_bond_site_symmetry_1
_geom_bond_site_symmetry_2
Ca1 O1 1_555 1_555
O1 C1 1_555 1_555
O2 Ca1 1_555 1_555
O3 Ca1 1_555 1_555
H1 O3 1_555 1_555
H2 O3 1_555 1_555
O4 C3 1_555 1_555
O5 N12 1_555 1_555
O6 N12 1_555 1_555
O7 C5 1_555 1_555
O8 N16 1_555 1_555
O9 N16 1_555 1_555
N1 Ca1 1_555 1_555
H3 N1 1_555 1_555
H4 N1 1_555 1_555
N2 N1 1_555 1_555
H5 N2 1_555 1_555
N3 H6 1_555 1_555
N4 N3 1_555 1_555
H7 N4 1_555 1_555
H8 N4 1_555 1_555
N5 Ca1 1_555 1_555
H9 N5 1_555 1_555
H10 N5 1_555 1_555
N6 N5 1_555 1_555
H11 N6 1_555 1_555
N7 H12 1_555 1_555
N8 N7 1_555 1_555
H13 N8 1_555 1_555
H14 N8 1_555 1_555
N9 H15 1_555 1_555
N10 N9 1_555 1_555
N11 C3 1_555 1_555
N12 C4 1_555 1_555
N13 H16 1_555 1_555
N14 N13 1_555 1_555
N15 C5 1_555 1_555
N16 C6 1_555 1_555
C1 N2 1_555 1_555
C2 O2 1_555 1_555
C3 N9 1_555 1_555
C4 N10 1_555 1_555
C5 N13 1_555 1_555
C6 N14 1_555 1_555
O1D Ca1 1_555 1_555
O2F Ca1 1_555 1_555
N4D Ca1 1_555 1_555
N8F Ca1 1_555 1_555
Ca1D O1 1_555 1_555
Ca1F O2 1_555 1_555
H7D N4D 1_555 1_555
H8D N4D 1_555 1_555
H13F N8F 1_555 1_555
H14F N8F 1_555 1_555
N3 C1 1_555 1_555
N4 Ca1D 1_555 1_555
N6 C2 1_555 1_555
N7 C2 1_555 1_555
N8 Ca1F 1_555 1_555
N11 C4 1_555 1_555
N15 C6 1_555 1_555
O1D Ca1D 1_555 1_555
O2F Ca1F 1_555 1_555

#END
