
#######################################################################
#
#                 Cambridge Crystallographic Data Centre
#                                CCDC 
#
#######################################################################
#
# If this CIF has been generated from an entry in the Cambridge 
# Structural Database, then it will include bibliographic, chemical, 
# crystal, experimental, refinement or atomic coordinate data resulting 
# from the CCDC's data processing and validation procedures.
#
#######################################################################

data_BEYFIW
_symmetry_cell_setting           triclinic
_symmetry_space_group_name_H-M   'P -1'
_symmetry_Int_Tables_number      2
_space_group_name_Hall           '-P 1'
loop_
_symmetry_equiv_pos_site_id
_symmetry_equiv_pos_as_xyz
1 x,y,z
2 -x,-y,-z
_cell_length_a                   7.5567(17)
_cell_length_b                   12.290(3)
_cell_length_c                   16.329(4)
_cell_angle_alpha                101.322(3)
_cell_angle_beta                 97.130(3)
_cell_angle_gamma                92.066(3)
_cell_volume                     1472.65
loop_
_atom_site_label
_atom_site_type_symbol
_atom_site_fract_x
_atom_site_fract_y
_atom_site_fract_z
Si1 Si 0.5901(9) 0.1987(5) 0.6911(4)
F1 F 0.4353(16) 0.1999(12) 0.7567(7)
F2 F 0.6821(18) 0.3185(8) 0.7506(8)
F3 F 0.4584(15) 0.2702(10) 0.6335(7)
F4 F 0.495(2) 0.0795(9) 0.6316(10)
F5 F 0.7435(15) 0.1997(11) 0.6256(7)
F6 F 0.7196(17) 0.1278(11) 0.7499(8)
O1 O 0.126(3) 0.1568(19) 0.5385(15)
C1 C 0.2013(10) 0.5708(7) 0.5767(5)
C2 C 0.1900(11) 0.6184(7) 0.5058(6)
H1 H 0.1523 0.6917 0.5081
C3 C 0.2348(12) 0.5564(7) 0.4315(6)
H2 H 0.2308 0.5881 0.3828
C4 C 0.2852(12) 0.4490(8) 0.4281(6)
C5 C 0.2939(12) 0.4019(8) 0.4980(6)
H3 H 0.3290 0.3279 0.4949
C6 C 0.2516(12) 0.4625(7) 0.5729(6)
H4 H 0.2568 0.4304 0.6215
C7 C 0.0959(11) 0.5989(7) 0.7191(6)
H5 H 0.0690 0.5231 0.7200
C8 C 0.1830(10) 0.7473(6) 0.6806(5)
H6 H 0.2297 0.7967 0.6495
C9 C 0.3272(14) 0.2734(9) 0.3267(7)
H7 H 0.2892 0.2214 0.3580
C10 C 0.3940(12) 0.4269(9) 0.2853(6)
H8 H 0.4110 0.5037 0.2850
C11 C 0.4416(11) 0.6049(7) 1.0000(6)
C12 C 0.5185(12) 0.5809(8) 1.0746(6)
H9 H 0.5331 0.6361 1.1250
C13 C 0.4246(12) 0.5266(8) 0.9245(6)
H10 H 0.3753 0.5457 0.8732
C14 C 0.3159(13) 0.7859(9) 1.0599(7)
H11 H 0.3123 0.7749 1.1156
C15 C 0.3649(13) 0.7637(8) 0.9326(6)
H12 H 0.4036 0.7343 0.8800
C16 C 0.0596(12) 1.3945(7) 0.9920(6)
C17 C -0.0250(12) 1.4267(7) 0.9225(6)
H13 H -0.0424 1.3764 0.8696
C18 C 0.0852(12) 1.4673(7) 1.0706(6)
H14 H 0.1434 1.4442 1.1187
C19 C 0.1549(13) 1.2265(8) 1.0451(6)
H15 H 0.1368 1.2522 1.1020
C20 C 0.1623(13) 1.2170(8) 0.9151(6)
H16 H 0.1516 1.2347 0.8607
Cd1 Cd 0.19554(9) 0.95198(5) 0.84494(5)
N1 N 0.1335(9) 0.7775(5) 0.7554(5)
N2 N 0.0781(10) 0.6812(6) 0.7800(5)
N3 N 0.1581(9) 0.6348(5) 0.6537(4)
N4 N 0.4266(12) 0.3476(9) 0.2256(6)
N5 N 0.3860(13) 0.2490(9) 0.2523(6)
N6 N 0.3310(9) 0.3853(6) 0.3501(5)
N7 N 0.2887(10) 0.8580(6) 0.9494(5)
N8 N 0.2584(11) 0.8723(7) 1.0323(6)
N9 N 0.3816(10) 0.7139(6) 0.9990(5)
N10 N 0.2147(11) 1.1232(6) 0.9320(5)
N11 N 0.2109(11) 1.1301(6) 1.0168(5)
N12 N 0.1253(9) 1.2859(6) 0.9851(5)
O4 O -0.1058(8) 0.9648(5) 0.8440(4)
O5 O 0.4785(10) 0.9566(7) 0.8081(7)
O6 O 0.1376(14) 1.0292(7) 0.7268(5)
C11A C 0.5584(11) 0.3951(7) 1.0000(6)
C12A C 0.4815(12) 0.4191(8) 0.9254(6)
H9A H 0.4669 0.3639 0.8750
C13A C 0.5754(12) 0.4734(8) 1.0755(6)
H10A H 0.6247 0.4543 1.1268
C14A C 0.6841(13) 0.2141(9) 0.9401(7)
H11A H 0.6877 0.2251 0.8844
C15A C 0.6351(13) 0.2363(8) 1.0674(6)
H12A H 0.5964 0.2657 1.1200
N7A N 0.7113(10) 0.1420(6) 1.0506(5)
N8A N 0.7416(11) 0.1277(7) 0.9677(6)
N9A N 0.6184(10) 0.2861(6) 1.0010(5)
C16A C -0.0596(12) 1.6055(7) 1.0080(6)
C17A C 0.0250(12) 1.5733(7) 1.0775(6)
H13A H 0.0424 1.6236 1.1304
C18A C -0.0852(12) 1.5327(7) 0.9294(6)
H14A H -0.1434 1.5558 0.8813
C19A C -0.1549(13) 1.7735(8) 0.9549(6)
H15A H -0.1368 1.7478 0.8980
C20A C -0.1623(13) 1.7830(8) 1.0849(6)
H16A H -0.1516 1.7653 1.1393
N10A N -0.2147(11) 1.8768(6) 1.0680(5)
N11A N -0.2109(11) 1.8699(6) 0.9832(5)
N12A N -0.1253(9) 1.7141(6) 1.0149(5)
C1A C -0.2013(10) 2.4292(7) 1.4233(5)
C2A C -0.1900(11) 2.3816(7) 1.4942(6)
H1A H -0.1523 2.3083 1.4919
C3A C -0.2348(12) 2.4436(7) 1.5685(6)
H2A H -0.2308 2.4119 1.6172
C4A C -0.2852(12) 2.5510(8) 1.5719(6)
C5A C -0.2939(12) 2.5981(8) 1.5020(6)
H3A H -0.3290 2.6721 1.5051
C6A C -0.2516(12) 2.5375(7) 1.4271(6)
H4A H -0.2568 2.5696 1.3785
C7A C -0.0959(11) 2.4011(7) 1.2809(6)
H5A H -0.0690 2.4769 1.2800
C8A C -0.1830(10) 2.2527(6) 1.3194(5)
H6A H -0.2297 2.2033 1.3505
C9A C -0.3272(14) 2.7266(9) 1.6733(7)
H7A H -0.2892 2.7786 1.6420
C10A C -0.3940(12) 2.5731(9) 1.7147(6)
H8A H -0.4110 2.4963 1.7150
Cd1A Cd -0.19554(9) 2.04802(5) 1.15506(5)
N1A N -0.1335(9) 2.2225(5) 1.2446(5)
N2A N -0.0781(10) 2.3188(6) 1.2200(5)
N3A N -0.1581(9) 2.3652(5) 1.3463(4)
N4A N -0.4266(12) 2.6524(9) 1.7744(6)
N5A N -0.3860(13) 2.7510(9) 1.7477(6)
N6A N -0.3310(9) 2.6147(6) 1.6499(5)
O4A O 0.1058(8) 2.0352(5) 1.1560(4)
O5A O -0.4785(10) 2.0434(7) 1.1919(7)
O6A O -0.1376(14) 1.9708(7) 1.2732(5)
Cd1A_2 Cd 0.80446(9) 0.04802(5) 1.15506(5)
N7A_2 N -0.2887(10) 2.1420(6) 1.0506(5)
O7 O 0.045(3) 0.3292(11) 0.7258(9)
O10 O 0.410(3) 0.8716(14) 0.5603(11)
Si2? Si 0.7002(10) 0.1887(6) 0.6925(5)
F7? F 0.5249(16) 0.1691(13) 0.7421(9)
F8? F 0.714(2) 0.3240(8) 0.7369(10)
F9? F 0.5650(19) 0.2131(14) 0.6097(8)
F10? F 0.686(2) 0.0529(9) 0.6491(10)
F11? F 0.8756(17) 0.2097(13) 0.6429(9)
F12? F 0.8386(17) 0.1638(12) 0.7742(7)
Si3? Si 0.4880(13) 0.2156(8) 0.6774(6)
F13? F 0.412(3) 0.193(2) 0.7649(10)
F14? F 0.473(3) 0.3523(10) 0.7090(13)
F15? F 0.2762(16) 0.2018(14) 0.6282(10)
F16? F 0.506(3) 0.0790(10) 0.6443(16)
F17? F 0.563(3) 0.239(2) 0.5898(10)
F18? F 0.6974(18) 0.2276(17) 0.7267(13)
O2? O 0.089(3) 0.1181(16) 0.4536(12)
O3? O 0.166(2) 0.0603(15) 0.3792(12)
O8? O 0.150(3) 0.3401(13) 0.7413(11)
O9? O 0.296(3) 0.8935(13) 0.5460(10)
loop_
_geom_bond_atom_site_label_1
_geom_bond_atom_site_label_2
_geom_bond_site_symmetry_1
_geom_bond_site_symmetry_2
Si1 F1 1_555 1_555
F2 Si1 1_555 1_555
F3 Si1 1_555 1_555
F4 Si1 1_555 1_555
F5 Si1 1_555 1_555
F6 Si1 1_555 1_555
C1 C2 1_555 1_555
C2 H1 1_555 1_555
C3 C2 1_555 1_555
H2 C3 1_555 1_555
C4 C3 1_555 1_555
C5 C4 1_555 1_555
H3 C5 1_555 1_555
C6 C1 1_555 1_555
H4 C6 1_555 1_555
C7 H5 1_555 1_555
C8 H6 1_555 1_555
C9 H7 1_555 1_555
C10 H8 1_555 1_555
C11 C12 1_555 1_555
C12 H9 1_555 1_555
C13 C11 1_555 1_555
H10 C13 1_555 1_555
C14 H11 1_555 1_555
C15 H12 1_555 1_555
C16 C17 1_555 1_555
C17 H13 1_555 1_555
C18 C16 1_555 1_555
H14 C18 1_555 1_555
C19 H15 1_555 1_555
C20 H16 1_555 1_555
Cd1 N1 1_555 1_555
N1 C8 1_555 1_555
N2 C7 1_555 1_555
N3 C1 1_555 1_555
N4 C10 1_555 1_555
N5 C9 1_555 1_555
N6 C4 1_555 1_555
N7 C15 1_555 1_555
N8 C14 1_555 1_555
N9 C11 1_555 1_555
N10 C20 1_555 1_555
N11 C19 1_555 1_555
N12 C16 1_555 1_555
O4 Cd1 1_555 1_555
O5 Cd1 1_555 1_555
O6 Cd1 1_555 1_555
C11A C12A 1_555 1_555
C12A C13 1_555 1_555
H9A C12A 1_555 1_555
C13A C12 1_555 1_555
H10A C13A 1_555 1_555
C14A H11A 1_555 1_555
C15A H12A 1_555 1_555
N7A C15A 1_555 1_555
N8A C14A 1_555 1_555
N9A C11A 1_555 1_555
C16A C17A 1_555 1_555
C17A C18 1_555 1_555
H13A C17A 1_555 1_555
C18A C17 1_555 1_555
H14A C18A 1_555 1_555
C19A H15A 1_555 1_555
C20A H16A 1_555 1_555
N10A C20A 1_555 1_555
N11A C19A 1_555 1_555
N12A C16A 1_555 1_555
C1A C2A 1_555 1_555
C2A H1A 1_555 1_555
C3A C2A 1_555 1_555
H2A C3A 1_555 1_555
C4A C3A 1_555 1_555
C5A C4A 1_555 1_555
H3A C5A 1_555 1_555
C6A C1A 1_555 1_555
H4A C6A 1_555 1_555
C7A H5A 1_555 1_555
C8A H6A 1_555 1_555
C9A H7A 1_555 1_555
C10A H8A 1_555 1_555
Cd1A N10A 1_555 1_555
N1A C8A 1_555 1_555
N2A C7A 1_555 1_555
N3A C1A 1_555 1_555
N4A C10A 1_555 1_555
N5A C9A 1_555 1_555
N6A C4A 1_555 1_555
O4A Cd1A 1_555 1_555
O5A Cd1A 1_555 1_555
O6A Cd1A 1_555 1_555
Cd1A_2 N7A 1_555 1_555
N7A_2 Cd1A 1_555 1_555
C5 C6 1_555 1_555
C7 N3 1_555 1_555
C8 N3 1_555 1_555
C9 N6 1_555 1_555
C10 N6 1_555 1_555
C14 N9 1_555 1_555
C15 N9 1_555 1_555
C19 N12 1_555 1_555
C20 N12 1_555 1_555
Cd1 N7 1_555 1_555
Cd1 N10 1_555 1_555
N1 N2 1_555 1_555
N4 N5 1_555 1_555
N7 N8 1_555 1_555
N10 N11 1_555 1_555
C11A C13A 1_555 1_555
C14A N9A 1_555 1_555
C15A N9A 1_555 1_555
N7A N8A 1_555 1_555
C16A C18A 1_555 1_555
C19A N12A 1_555 1_555
C20A N12A 1_555 1_555
N10A N11A 1_555 1_555
C5A C6A 1_555 1_555
C7A N3A 1_555 1_555
C8A N3A 1_555 1_555
C9A N6A 1_555 1_555
C10A N6A 1_555 1_555
Cd1A N1A 1_555 1_555
N1A N2A 1_555 1_555
N4A N5A 1_555 1_555

#END
