
#######################################################################
#
#                 Cambridge Crystallographic Data Centre
#                                CCDC 
#
#######################################################################
#
# If this CIF has been generated from an entry in the Cambridge 
# Structural Database, then it will include bibliographic, chemical, 
# crystal, experimental, refinement or atomic coordinate data resulting 
# from the CCDC's data processing and validation procedures.
#
#######################################################################

data_BEYKOH01
_symmetry_cell_setting           triclinic
_symmetry_space_group_name_H-M   'P -1'
_symmetry_Int_Tables_number      2
_space_group_name_Hall           '-P 1'
loop_
_symmetry_equiv_pos_site_id
_symmetry_equiv_pos_as_xyz
1 x,y,z
2 -x,-y,-z
_cell_length_a                   9.2047(7)
_cell_length_b                   13.1351(9)
_cell_length_c                   16.0557(11)
_cell_angle_alpha                84.2900(10)
_cell_angle_beta                 83.1800(10)
_cell_angle_gamma                86.8280(10)
_cell_volume                     1916.05
loop_
_atom_site_label
_atom_site_type_symbol
_atom_site_fract_x
_atom_site_fract_y
_atom_site_fract_z
U1 U 0.27964(4) 0.04834(3) 0.27254(2)
U2 U 0.28162(4) 0.44062(3) 0.24366(2)
S1 S 0.0585(3) 0.47959(18) 0.63594(16)
S2 S 0.7416(3) 0.00056(19) -0.05929(16)
O1 O 0.4159(9) -0.0349(5) 0.3119(4)
O2 O 0.1431(8) 0.1335(5) 0.2358(4)
O3 O 0.4188(8) 0.4958(5) 0.2887(4)
O4 O 0.1467(9) 0.3852(5) 0.1974(5)
O5 O 0.1164(8) 0.5525(5) 0.5691(4)
O6 O 0.1321(9) 0.4722(6) 0.7097(5)
O7 O -0.0996(8) 0.4956(5) 0.6547(4)
O8 O -0.1370(8) 0.1045(5) 0.7298(4)
O9 O -0.0954(9) 0.0214(5) 0.6164(4)
O10 O 0.2821(9) 0.3120(5) 0.3550(4)
O11 O 0.2857(8) 0.1448(5) 0.3875(4)
O12 O 0.4588(9) 0.3265(5) 0.1841(4)
O13 O 0.4667(8) 0.1578(5) 0.2129(4)
O14 O 0.6821(9) -0.0746(5) 0.0058(4)
O15 O 0.8960(9) -0.0043(6) -0.0785(5)
O16 O 0.6651(8) 0.0015(5) -0.1361(4)
O17 O 0.6272(9) 0.4782(5) -0.1053(4)
O18 O 0.7876(9) 0.3874(5) -0.1823(4)
C1 C 0.0757(11) 0.3588(7) 0.5955(6)
C2 C 0.1537(10) 0.3462(7) 0.5179(5)
H1 H 0.1974 0.4015 0.4857
C3 C 0.1661(11) 0.2496(7) 0.4885(6)
C4 C 0.0943(11) 0.1677(7) 0.5333(6)
H2 H 0.1000 0.1042 0.5120
C5 C 0.0127(11) 0.1821(8) 0.6113(6)
C6 C 0.0036(11) 0.2782(7) 0.6411(6)
H3 H -0.0515 0.2884 0.6922
C7 C 0.2525(11) 0.2351(7) 0.4040(6)
C8 C -0.0757(13) 0.0978(8) 0.6547(7)
C9 C 0.6895(11) 0.1218(7) -0.0234(6)
C10 C 0.6190(11) 0.1308(7) 0.0559(6)
H4 H 0.6005 0.0729 0.0931
C11 C 0.5752(11) 0.2279(7) 0.0800(6)
C12 C 0.5998(10) 0.3135(7) 0.0242(6)
H5 H 0.5669 0.3780 0.0395
C13 C 0.6743(12) 0.3024(7) -0.0551(6)
C14 C 0.7183(11) 0.2076(8) -0.0798(6)
H6 H 0.7665 0.2008 -0.1334
C15 C 0.4929(11) 0.2365(7) 0.1672(6)
C16 C 0.6992(12) 0.3938(8) -0.1167(7)
U1A U -0.27964(4) -0.04834(3) 0.72746(2)
U1A_2 U 0.72036(4) -0.04834(3) -0.27254(2)
U2A U -0.28162(4) 0.55938(3) 0.75634(2)
U2A_2 U 0.71838(4) 0.55938(3) -0.24366(2)
O7A O 0.0996(8) 0.5044(5) 0.3453(4)
O8A O 0.1370(8) -0.1045(5) 0.2702(4)
O9A O 0.0954(9) -0.0214(5) 0.3836(4)
O16A O 0.3349(8) -0.0015(5) 0.1361(4)
O17A O 0.3728(9) 0.5218(5) 0.1053(4)
O18A O 0.2124(9) 0.6126(5) 0.1823(4)
N1 N 0.2022(14) 0.2606(10) 0.9205(9)
H7 H 0.2525 0.2085 0.9478
C17 C 0.0463(19) 0.2474(14) 0.9560(11)
H8 H 0.0160 0.1834 0.9396
H9 H -0.0128 0.3021 0.9297
C18 C 0.0098(17) 0.2468(14) 1.0548(9)
H10 H -0.0935 0.2400 1.0699
H11 H 0.0383 0.3098 1.0724
H12 H 0.0623 0.1903 1.0820
C19 C 0.255(2) 0.3578(12) 0.9510(11)
H13 H 0.2388 0.3534 1.0121
H14 H 0.3596 0.3622 0.9344
C20 C 0.175(3) 0.4550(14) 0.9147(12)
H15 H 0.2122 0.5140 0.9346
H16 H 0.0723 0.4518 0.9325
H17 H 0.1919 0.4598 0.8543
C21 C 0.217(3) 0.236(2) 0.8337(12)
H18 H 0.1572 0.2832 0.8004
H19 H 0.1856 0.1667 0.8309
C22 C 0.3871(19) 0.2442(17) 0.7995(15)
H20 H 0.4013 0.2352 0.7404
H21 H 0.4434 0.1921 0.8294
H22 H 0.4186 0.3104 0.8082
N2 N 0.7128(11) 0.2791(8) 0.4210(7)
H23 H 0.7892 0.3184 0.4257
C23 C 0.5848(15) 0.3191(13) 0.4780(9)
H24 H 0.5590 0.3888 0.4570
H25 H 0.5013 0.2779 0.4758
C24 C 0.613(2) 0.3181(16) 0.5666(11)
H26 H 0.5275 0.3437 0.5994
H27 H 0.6936 0.3608 0.5697
H28 H 0.6375 0.2493 0.5883
C25 C 0.6839(15) 0.2956(10) 0.3303(8)
H29 H 0.5988 0.2581 0.3236
H30 H 0.6602 0.3677 0.3168
C26 C 0.8078(17) 0.2633(12) 0.2691(10)
H31 H 0.7804 0.2756 0.2130
H32 H 0.8312 0.1916 0.2812
H33 H 0.8917 0.3018 0.2737
C27 C 0.7625(18) 0.1709(11) 0.4451(12)
H34 H 0.7873 0.1657 0.5025
H35 H 0.8508 0.1543 0.4088
C28 C 0.649(2) 0.0923(12) 0.4390(14)
H36 H 0.6882 0.0248 0.4545
H37 H 0.6241 0.0963 0.3823
H38 H 0.5623 0.1064 0.4765
loop_
_geom_bond_atom_site_label_1
_geom_bond_atom_site_label_2
_geom_bond_site_symmetry_1
_geom_bond_site_symmetry_2
U1 O1 1_555 1_555
U2 O3 1_555 1_555
S1 O5 1_555 1_555
S2 O14 1_555 1_555
O2 U1 1_555 1_555
O4 U2 1_555 1_555
O6 S1 1_555 1_555
O7 S1 1_555 1_555
O8 C8 1_555 1_555
O9 C8 1_555 1_555
O10 U2 1_555 1_555
O11 U1 1_555 1_555
O12 U2 1_555 1_555
O13 U1 1_555 1_555
O15 S2 1_555 1_555
O16 S2 1_555 1_555
O17 C16 1_555 1_555
O18 C16 1_555 1_555
C1 S1 1_555 1_555
C2 C1 1_555 1_555
H1 C2 1_555 1_555
C3 C2 1_555 1_555
C4 C3 1_555 1_555
H2 C4 1_555 1_555
C5 C4 1_555 1_555
C6 C1 1_555 1_555
H3 C6 1_555 1_555
C7 O10 1_555 1_555
C8 C5 1_555 1_555
C9 S2 1_555 1_555
C10 C9 1_555 1_555
H4 C10 1_555 1_555
C11 C10 1_555 1_555
C12 C11 1_555 1_555
H5 C12 1_555 1_555
C13 C12 1_555 1_555
C14 C9 1_555 1_555
H6 C14 1_555 1_555
C15 O12 1_555 1_555
C16 C13 1_555 1_555
N1 H7 1_555 1_555
C17 N1 1_555 1_555
H8 C17 1_555 1_555
H9 C17 1_555 1_555
C18 C17 1_555 1_555
H10 C18 1_555 1_555
H11 C18 1_555 1_555
H12 C18 1_555 1_555
C19 N1 1_555 1_555
H13 C19 1_555 1_555
H14 C19 1_555 1_555
C20 C19 1_555 1_555
H15 C20 1_555 1_555
H16 C20 1_555 1_555
H17 C20 1_555 1_555
C21 N1 1_555 1_555
H18 C21 1_555 1_555
H19 C21 1_555 1_555
C22 C21 1_555 1_555
H20 C22 1_555 1_555
H21 C22 1_555 1_555
H22 C22 1_555 1_555
N2 H23 1_555 1_555
C23 N2 1_555 1_555
H24 C23 1_555 1_555
H25 C23 1_555 1_555
C24 C23 1_555 1_555
H26 C24 1_555 1_555
H27 C24 1_555 1_555
H28 C24 1_555 1_555
C25 N2 1_555 1_555
H29 C25 1_555 1_555
H30 C25 1_555 1_555
C26 C25 1_555 1_555
H31 C26 1_555 1_555
H32 C26 1_555 1_555
H33 C26 1_555 1_555
C27 N2 1_555 1_555
H34 C27 1_555 1_555
H35 C27 1_555 1_555
C28 C27 1_555 1_555
H36 C28 1_555 1_555
H37 C28 1_555 1_555
H38 C28 1_555 1_555
U1A O8 1_555 1_555
U1A_2 O16 1_555 1_555
U2A O7 1_555 1_555
U2A_2 O17 1_555 1_555
O7A U2 1_555 1_555
O8A U1 1_555 1_555
O9A U1 1_555 1_555
O16A U1 1_555 1_555
O17A U2 1_555 1_555
O18A U2 1_555 1_555
O9 U1A 1_555 1_555
O11 C7 1_555 1_555
O13 C15 1_555 1_555
O18 U2A_2 1_555 1_555
C3 C7 1_555 1_555
C5 C6 1_555 1_555
C11 C15 1_555 1_555
C13 C14 1_555 1_555

#END
