
#######################################################################
#
#                 Cambridge Crystallographic Data Centre
#                                CCDC 
#
#######################################################################
#
# If this CIF has been generated from an entry in the Cambridge 
# Structural Database, then it will include bibliographic, chemical, 
# crystal, experimental, refinement or atomic coordinate data resulting 
# from the CCDC's data processing and validation procedures.
#
#######################################################################

data_BEYKIB
_symmetry_cell_setting           monoclinic
_symmetry_space_group_name_H-M   'P 21/c'
_symmetry_Int_Tables_number      14
_space_group_name_Hall           '-P 2ybc'
loop_
_symmetry_equiv_pos_site_id
_symmetry_equiv_pos_as_xyz
1 x,y,z
2 -x,1/2+y,1/2-z
3 -x,-y,-z
4 x,1/2-y,1/2+z
_cell_length_a                   11.5202(6)
_cell_length_b                   14.4501(10)
_cell_length_c                   22.0213(10)
_cell_angle_alpha                90
_cell_angle_beta                 100.470(3)
_cell_angle_gamma                90
_cell_volume                     3604.81
loop_
_atom_site_label
_atom_site_type_symbol
_atom_site_fract_x
_atom_site_fract_y
_atom_site_fract_z
U1 U 0.55480(2) 0.220855(18) 0.026124(10)
U2 U 0.91247(2) 0.256393(18) 0.229449(10)
S1 S 0.18067(14) 0.15166(12) 0.21101(7)
S2 S 1.28673(13) 0.32281(12) 0.05315(7)
O1 O 0.5279(4) 0.1001(3) 0.02123(18)
O2 O 0.5812(4) 0.3398(3) 0.03122(19)
O3 O 0.8915(4) 0.1376(4) 0.23435(19)
O4 O 0.9290(4) 0.3765(3) 0.22536(18)
O5 O 0.5877(4) 0.2044(4) 0.1345(2)
O6 O 0.7093(4) 0.2739(3) 0.21039(19)
O7 O 0.6037(4) 0.2744(3) 0.4215(2)
O8 O 0.4166(4) 0.2604(3) 0.4285(2)
O9 O 0.1070(4) 0.2366(3) 0.20802(19)
O10 O 0.1506(4) 0.0859(3) 0.25460(19)
O11 O 0.1828(4) 0.1149(3) 0.15011(18)
O12 O 0.7562(4) 0.1927(3) 0.04210(17)
O13 O 0.8791(4) 0.2463(4) 0.1227(2)
O14 O 0.8651(4) 0.2238(3) -0.16665(19)
O15 O 1.0509(4) 0.2465(3) -0.1726(2)
O16 O 1.3634(4) 0.2403(3) 0.0496(2)
O17 O 1.2823(4) 0.3455(4) 0.11571(17)
O18 O 1.3172(4) 0.3973(3) 0.01531(19)
C1 C 0.6122(5) 0.2344(5) 0.1880(3)
C2 C 0.4974(6) 0.2621(4) 0.3958(3)
C3 C 0.5225(6) 0.2263(5) 0.2292(3)
C4 C 0.5506(6) 0.2486(4) 0.2912(3)
H1 H 0.6267 0.2680 0.3079
C5 C 0.4666(6) 0.2424(4) 0.3286(3)
C6 C 0.3522(5) 0.2149(4) 0.3038(3)
H2 H 0.2946 0.2123 0.3284
C7 C 0.3253(5) 0.1911(5) 0.2411(3)
C8 C 0.4091(5) 0.1966(4) 0.2038(3)
H3 H 0.3902 0.1807 0.1622
C9 C 0.8544(6) 0.2267(5) 0.0668(3)
C10 C 0.9717(6) 0.2380(5) -0.1404(3)
C11 C 0.9466(6) 0.2416(5) 0.0273(3)
C12 C 0.9174(6) 0.2306(5) -0.0358(3)
H4 H 0.8413 0.2128 -0.0539
C13 C 1.0016(6) 0.2463(5) -0.0723(3)
C14 C 1.1166(6) 0.2732(5) -0.0445(3)
H5 H 1.1737 0.2839 -0.0686
C15 C 1.1437(5) 0.2835(5) 0.0188(3)
C16 C 1.0609(6) 0.2691(4) 0.0550(3)
H6 H 1.0800 0.2775 0.0975
U1_2 U 1.55480(2) 0.220855(18) 0.026124(10)
U1C U 0.55480(2) 0.279145(18) 0.526124(10)
U2_2 U -0.08753(2) 0.256393(18) 0.229449(10)
U2C U 0.91247(2) 0.243607(18) -0.270551(10)
O7C O 0.6037(4) 0.2256(3) -0.0785(2)
O8C O 0.4166(4) 0.2396(3) -0.0715(2)
O9_2 O 1.1070(4) 0.2366(3) 0.20802(19)
O14C O 0.8651(4) 0.2762(3) 0.33335(19)
O15C O 1.0509(4) 0.2535(3) 0.3274(2)
O16_2 O 0.3634(4) 0.2403(3) 0.0496(2)
O19 O 0.2856(7) -0.0577(5) 0.1472(3)
O20 O 0.5095(7) -0.0255(5) 0.1367(3)
O21 O 1.2300(9) 0.4371(6) 0.2248(4)
O22 O 0.8242(16) 0.4634(13) 0.0774(9)
O23 O 0.9907(8) 0.5370(7) 0.1435(4)
N1 N 0.6457(7) 0.4982(6) 0.1291(5)
H7 H 0.7070 0.4809 0.1092
N2 N 0.4387(7) 0.5141(5) 0.1714(3)
C17 C 0.6399(9) 0.4743(6) 0.1880(5)
H8 H 0.7055 0.4528 0.2154
C18 C 0.5325(10) 0.4834(7) 0.2045(4)
H9 H 0.5272 0.4652 0.2444
C19 C 0.4456(8) 0.5357(6) 0.1151(4)
H10 H 0.3770 0.5566 0.0898
C20 C 0.5435(10) 0.5305(6) 0.0900(4)
H11 H 0.5436 0.5472 0.0492
N3 N 0.7352(9) -0.0445(8) 0.0992(6)
H12 H 0.6643 -0.0530 0.1052
N4 N 0.9557(7) -0.0103(6) 0.0760(5)
C21 C 0.7580(9) -0.0427(7) 0.0414(6)
H13 H 0.6972 -0.0542 0.0083
C22 C 0.8656(8) -0.0247(6) 0.0309(4)
H14 H 0.8778 -0.0223 -0.0097
C23 C 0.9305(9) -0.0153(7) 0.1349(6)
H15 H 0.9922 -0.0058 0.1679
C24 C 0.8245(8) -0.0328(7) 0.1478(5)
H16 H 0.8122 -0.0368 0.1883
O24? O 1.0463(16) 0.5110(13) 0.0287(8)
O25? O 0.8510(14) 0.4646(11) 0.0417(7)
O26? O 0.8675(16) 0.4918(12) 0.0968(8)
O27? O 1.0650(14) 0.5319(12) 0.0992(7)
loop_
_geom_bond_atom_site_label_1
_geom_bond_atom_site_label_2
_geom_bond_site_symmetry_1
_geom_bond_site_symmetry_2
U1 O1 1_555 1_555
U2 O3 1_555 1_555
S1 O9 1_555 1_555
S2 O16 1_555 1_555
O2 U1 1_555 1_555
O4 U2 1_555 1_555
O5 U1 1_555 1_555
O6 U2 1_555 1_555
O7 C2 1_555 1_555
O8 C2 1_555 1_555
O9 U2_2 1_555 1_555
O10 S1 1_555 1_555
O11 S1 1_555 1_555
O12 U1 1_555 1_555
O13 U2 1_555 1_555
O14 C10 1_555 1_555
O15 C10 1_555 1_555
O16 U1_2 1_555 1_555
O17 S2 1_555 1_555
O18 S2 1_555 1_555
C1 O5 1_555 1_555
C2 C5 1_555 1_555
C3 C1 1_555 1_555
C4 C3 1_555 1_555
H1 C4 1_555 1_555
C5 C4 1_555 1_555
C6 C5 1_555 1_555
H2 C6 1_555 1_555
C7 S1 1_555 1_555
C8 C3 1_555 1_555
H3 C8 1_555 1_555
C9 O12 1_555 1_555
C10 C13 1_555 1_555
C11 C9 1_555 1_555
C12 C11 1_555 1_555
H4 C12 1_555 1_555
C13 C12 1_555 1_555
C14 C13 1_555 1_555
H5 C14 1_555 1_555
C15 S2 1_555 1_555
C16 C11 1_555 1_555
H6 C16 1_555 1_555
N1 H7 1_555 1_555
N2 C18 1_555 1_555
C17 N1 1_555 1_555
H8 C17 1_555 1_555
C18 C17 1_555 1_555
H9 C18 1_555 1_555
C19 N2 1_555 1_555
H10 C19 1_555 1_555
C20 N1 1_555 1_555
H11 C20 1_555 1_555
N3 H12 1_555 1_555
N4 C22 1_555 1_555
C21 N3 1_555 1_555
H13 C21 1_555 1_555
C22 C21 1_555 1_555
H14 C22 1_555 1_555
C23 N4 1_555 1_555
H15 C23 1_555 1_555
C24 N3 1_555 1_555
H16 C24 1_555 1_555
U1C O7 1_555 1_555
U2C O14 1_555 1_555
O7C U1 1_555 1_555
O8C U1 1_555 1_555
O9_2 U2 1_555 1_555
O14C U2 1_555 1_555
O15C U2 1_555 1_555
O16_2 U1 1_555 1_555
O6 C1 1_555 1_555
O8 U1C 1_555 1_555
O13 C9 1_555 1_555
O15 U2C 1_555 1_555
C6 C7 1_555 1_555
C7 C8 1_555 1_555
C14 C15 1_555 1_555
C15 C16 1_555 1_555
C19 C20 1_555 1_555
C23 C24 1_555 1_555

#END
