
#######################################################################
#
#                 Cambridge Crystallographic Data Centre
#                                CCDC 
#
#######################################################################
#
# If this CIF has been generated from an entry in the Cambridge 
# Structural Database, then it will include bibliographic, chemical, 
# crystal, experimental, refinement or atomic coordinate data resulting 
# from the CCDC's data processing and validation procedures.
#
#######################################################################

data_BEYKOH
_symmetry_cell_setting           triclinic
_symmetry_space_group_name_H-M   'P -1'
_symmetry_Int_Tables_number      2
_space_group_name_Hall           '-P 1'
loop_
_symmetry_equiv_pos_site_id
_symmetry_equiv_pos_as_xyz
1 x,y,z
2 -x,-y,-z
_cell_length_a                   9.2111(8)
_cell_length_b                   13.1733(6)
_cell_length_c                   16.0964(13)
_cell_angle_alpha                84.739(4)
_cell_angle_beta                 83.029(4)
_cell_angle_gamma                87.457(5)
_cell_volume                     1929.45
loop_
_atom_site_label
_atom_site_type_symbol
_atom_site_fract_x
_atom_site_fract_y
_atom_site_fract_z
U1 U 0.21976(4) 0.55980(2) 0.256124(17)
U2 U 0.21970(4) 0.95180(2) 0.227954(16)
S1 S 0.4406(3) 0.51877(15) -0.13451(12)
S2 S -0.2411(3) 0.99686(15) 0.55961(12)
O1 O 0.0821(7) 0.5023(4) 0.2113(3)
O2 O 0.3580(7) 0.6171(5) 0.3013(4)
O3 O 0.0810(7) 1.0336(4) 0.1893(3)
O4 O 0.3564(7) 0.8681(5) 0.2633(3)
O5 O 0.2184(8) 0.6879(4) 0.1447(4)
O6 O 0.2132(7) 0.8545(4) 0.1121(3)
O7 O 0.5988(7) 0.9764(4) -0.1160(3)
O8 O 0.6378(7) 0.8935(4) -0.2298(3)
O9 O 0.6022(7) 0.5039(4) -0.1543(3)
O10 O 0.3818(7) 0.4470(4) -0.0678(3)
O11 O 0.3672(8) 0.5245(5) -0.2090(4)
O12 O 0.0435(8) 0.6722(4) 0.3167(4)
O13 O 0.0367(7) 0.8394(4) 0.2886(3)
O14 O -0.1329(7) 0.5203(4) 0.6041(3)
O15 O -0.2904(7) 0.6106(4) 0.6840(3)
O16 O -0.1645(7) 0.9963(4) 0.6352(3)
O17 O -0.1808(8) 1.0708(4) 0.4942(4)
O18 O -0.3977(7) 1.0012(5) 0.5809(4)
C1 C 0.2468(9) 0.7632(5) 0.0969(4)
C2 C 0.5771(10) 0.9005(6) -0.1548(5)
C3 C 0.3337(10) 0.7473(6) 0.0123(5)
C4 C 0.4058(10) 0.8315(6) -0.0326(4)
H1 H 0.3978 0.8955 -0.0119
C5 C 0.4906(9) 0.8153(6) -0.1101(5)
C6 C 0.4976(10) 0.7208(6) -0.1413(5)
H2 H 0.5501 0.7114 -0.1933
C7 C 0.4254(9) 0.6394(6) -0.0944(4)
C8 C 0.3451(10) 0.6535(6) -0.0180(5)
H3 H 0.2985 0.5987 0.0131
C9 C 0.0080(9) 0.7598(6) 0.3353(4)
C10 C -0.2026(10) 0.6026(6) 0.6167(5)
C11 C -0.0762(9) 0.7705(6) 0.4206(4)
C12 C -0.1035(9) 0.6858(6) 0.4760(5)
H4 H -0.0711 0.6218 0.4600
C13 C -0.1787(9) 0.6942(6) 0.5555(4)
C14 C -0.2219(9) 0.7899(6) 0.5793(4)
H5 H -0.2718 0.7970 0.6323
C15 C -0.1911(9) 0.8756(6) 0.5243(5)
C16 C -0.1209(9) 0.8656(6) 0.4468(4)
H6 H -0.1020 0.9236 0.4102
U1A U -0.21976(4) 0.44020(2) 0.743876(17)
U1A_2 U 0.78024(4) 0.44020(2) -0.256124(17)
U2A U -0.21970(4) 1.04820(2) 0.772046(16)
U2A_2 U 0.78030(4) 1.04820(2) -0.227954(16)
O7A O 0.4012(7) 1.0236(4) 0.1160(3)
O8A O 0.3622(7) 1.1065(4) 0.2298(3)
O9A O 0.3978(7) 0.4961(4) 0.1543(3)
O14A O 0.1329(7) 0.4797(4) 0.3959(3)
O15A O 0.2904(7) 0.3894(4) 0.3160(3)
O16A O 0.1645(7) 1.0037(4) 0.3648(3)
N1 N 0.2048(10) 0.2804(6) -0.0797(5)
H7 H 0.2643 0.3231 -0.0753
C17 C 0.2614(15) 0.1729(9) -0.0548(9)
H8 H 0.3492 0.1575 -0.0918
H9 H 0.2872 0.1695 0.0020
C18 C 0.1843(12) 0.2957(7) -0.1694(5)
H10 H 0.0987 0.2590 -0.1773
H11 H 0.1619 0.3676 -0.1824
C19 C 0.0849(12) 0.3193(10) -0.0218(6)
H12 H -0.0012 0.2805 -0.0246
H13 H 0.0625 0.3896 -0.0408
C20 C 0.1487(19) 0.0934(10) -0.0596(12)
H14 H 0.0601 0.1099 -0.0249
H15 H 0.1861 0.0274 -0.0401
H16 H 0.1287 0.0926 -0.1167
C21 C 0.3037(13) 0.2653(11) -0.2315(8)
H17 H 0.3917 0.2974 -0.2229
H18 H 0.2792 0.2860 -0.2869
H19 H 0.3188 0.1926 -0.2253
C22 C 0.1139(17) 0.3149(14) 0.0681(7)
H20 H 0.0921 0.2484 0.0952
H21 H 0.0531 0.3654 0.0962
H22 H 0.2149 0.3280 0.0704
N2 N -0.3056(14) 1.2713(11) 0.4240(8)
H23 H -0.2477 1.2226 0.4549
C23 C -0.4627(19) 1.2500(17) 0.4604(10)
H24 H -0.4907 1.1863 0.4422
H25 H -0.5272 1.3040 0.4394
C24 C -0.258(2) 1.3699(14) 0.4452(12)
H26 H -0.1568 1.3774 0.4209
H27 H -0.2591 1.3666 0.5057
C25 C -0.2664(19) 1.2479(16) 0.3370(11)
H28 H -0.3341 1.2865 0.3036
H29 H -0.2845 1.1763 0.3346
C26 C -0.481(2) 1.2434(18) 0.5573(10)
H30 H -0.3865 1.2365 0.5769
H31 H -0.5375 1.1853 0.5792
H32 H -0.5307 1.3043 0.5761
C27 C -0.344(2) 1.4668(16) 0.4178(13)
H33 H -0.2891 1.5029 0.3706
H34 H -0.3607 1.5096 0.4634
H35 H -0.4363 1.4487 0.4022
C28 C -0.1106(19) 1.2673(17) 0.2932(13)
H36 H -0.0861 1.3362 0.2986
H37 H -0.1065 1.2565 0.2347
H38 H -0.0422 1.2211 0.3189
loop_
_geom_bond_atom_site_label_1
_geom_bond_atom_site_label_2
_geom_bond_site_symmetry_1
_geom_bond_site_symmetry_2
U1 O1 1_555 1_555
U2 O3 1_555 1_555
S1 O9 1_555 1_555
S2 O16 1_555 1_555
O2 U1 1_555 1_555
O4 U2 1_555 1_555
O5 U1 1_555 1_555
O6 U2 1_555 1_555
O7 C2 1_555 1_555
O8 C2 1_555 1_555
O9 U1A_2 1_555 1_555
O10 S1 1_555 1_555
O11 S1 1_555 1_555
O12 U1 1_555 1_555
O13 U2 1_555 1_555
O14 C10 1_555 1_555
O15 C10 1_555 1_555
O16 U2A 1_555 1_555
O17 S2 1_555 1_555
O18 S2 1_555 1_555
C1 O5 1_555 1_555
C2 C5 1_555 1_555
C3 C1 1_555 1_555
C4 C3 1_555 1_555
H1 C4 1_555 1_555
C5 C4 1_555 1_555
C6 C5 1_555 1_555
H2 C6 1_555 1_555
C7 S1 1_555 1_555
C8 C3 1_555 1_555
H3 C8 1_555 1_555
C9 O12 1_555 1_555
C10 C13 1_555 1_555
C11 C9 1_555 1_555
C12 C11 1_555 1_555
H4 C12 1_555 1_555
C13 C12 1_555 1_555
C14 C13 1_555 1_555
H5 C14 1_555 1_555
C15 S2 1_555 1_555
C16 C11 1_555 1_555
H6 C16 1_555 1_555
N1 H7 1_555 1_555
C17 N1 1_555 1_555
H8 C17 1_555 1_555
H9 C17 1_555 1_555
C18 N1 1_555 1_555
H10 C18 1_555 1_555
H11 C18 1_555 1_555
C19 N1 1_555 1_555
H12 C19 1_555 1_555
H13 C19 1_555 1_555
C20 C17 1_555 1_555
H14 C20 1_555 1_555
H15 C20 1_555 1_555
H16 C20 1_555 1_555
C21 C18 1_555 1_555
H17 C21 1_555 1_555
H18 C21 1_555 1_555
H19 C21 1_555 1_555
C22 C19 1_555 1_555
H20 C22 1_555 1_555
H21 C22 1_555 1_555
H22 C22 1_555 1_555
N2 H23 1_555 1_555
C23 N2 1_555 1_555
H24 C23 1_555 1_555
H25 C23 1_555 1_555
C24 N2 1_555 1_555
H26 C24 1_555 1_555
H27 C24 1_555 1_555
C25 N2 1_555 1_555
H28 C25 1_555 1_555
H29 C25 1_555 1_555
C26 C23 1_555 1_555
H30 C26 1_555 1_555
H31 C26 1_555 1_555
H32 C26 1_555 1_555
C27 C24 1_555 1_555
H33 C27 1_555 1_555
H34 C27 1_555 1_555
H35 C27 1_555 1_555
C28 C25 1_555 1_555
H36 C28 1_555 1_555
H37 C28 1_555 1_555
H38 C28 1_555 1_555
U1A O14 1_555 1_555
U2A_2 O7 1_555 1_555
O7A U2 1_555 1_555
O8A U2 1_555 1_555
O9A U1 1_555 1_555
O14A U1 1_555 1_555
O15A U1 1_555 1_555
O16A U2 1_555 1_555
O6 C1 1_555 1_555
O8 U2A_2 1_555 1_555
O13 C9 1_555 1_555
O15 U1A 1_555 1_555
C6 C7 1_555 1_555
C7 C8 1_555 1_555
C14 C15 1_555 1_555
C15 C16 1_555 1_555

#END
