
#######################################################################
#
#                 Cambridge Crystallographic Data Centre
#                                CCDC 
#
#######################################################################
#
# If this CIF has been generated from an entry in the Cambridge 
# Structural Database, then it will include bibliographic, chemical, 
# crystal, experimental, refinement or atomic coordinate data resulting 
# from the CCDC's data processing and validation procedures.
#
#######################################################################

data_BEYKUN
_symmetry_cell_setting           triclinic
_symmetry_space_group_name_H-M   'P -1'
_symmetry_Int_Tables_number      2
_space_group_name_Hall           '-P 1'
loop_
_symmetry_equiv_pos_site_id
_symmetry_equiv_pos_as_xyz
1 x,y,z
2 -x,-y,-z
_cell_length_a                   9.8594(5)
_cell_length_b                   11.6695(7)
_cell_length_c                   14.3340(7)
_cell_angle_alpha                70.785(3)
_cell_angle_beta                 77.639(3)
_cell_angle_gamma                71.479(2)
_cell_volume                     1465.57
loop_
_atom_site_label
_atom_site_type_symbol
_atom_site_fract_x
_atom_site_fract_y
_atom_site_fract_z
U1 U 0.254032(11) 0.322265(11) 0.443236(8)
S1 S 0.68193(8) 0.19153(7) 0.88397(5)
O1 O 0.3497(2) 0.1656(2) 0.44234(17)
O2 O 0.1610(2) 0.4791(2) 0.44170(18)
O3 O 0.4839(2) 0.3535(2) 0.45194(16)
O4 O 0.3546(2) 0.2912(3) 0.59467(17)
O5 O 1.0982(2) 0.2439(2) 0.59131(16)
O6 O 1.0166(2) 0.2880(2) 0.44872(15)
O7 O 0.7525(3) 0.2720(2) 0.90221(17)
O8 O 0.7538(3) 0.0576(2) 0.91788(17)
O9 O 0.5285(2) 0.2179(2) 0.92130(16)
O10 O 0.1845(2) 0.3621(2) 0.27484(17)
O11 O 0.3835(3) 0.4038(2) 0.27136(16)
O12 O 0.2991(3) 0.4415(2) 0.13212(17)
N1 N 0.2889(3) 0.4040(3) 0.2223(2)
C1 C 0.4712(3) 0.3135(3) 0.5459(2)
C2 C 0.9959(3) 0.2615(3) 0.5428(2)
C3 C 0.5959(3) 0.2874(3) 0.5995(2)
C4 C 0.7324(3) 0.2872(3) 0.5470(2)
H1 H 0.7449 0.3070 0.4779
C5 C 0.8502(3) 0.2572(3) 0.5978(2)
C6 C 0.8323(3) 0.2272(3) 0.7007(2)
H2 H 0.9111 0.2063 0.7347
C7 C 0.6956(3) 0.2282(3) 0.7531(2)
C8 C 0.5779(3) 0.2571(3) 0.7034(2)
H3 H 0.4873 0.2563 0.7389
U1_2 U 1.254032(11) 0.322265(11) 0.443236(8)
O5_2 O 0.0982(2) 0.2439(2) 0.59131(16)
O6_2 O 0.0166(2) 0.2880(2) 0.44872(15)
Ni1 Ni 0.94536(4) 0.26715(4) 1.10855(3)
O13 O 0.7402(2) 0.3246(2) 1.07449(16)
H4 H 0.7180 0.3168 1.0279
H5 H 0.6793 0.3969 1.0765
O14 O 0.9660(2) 0.1007(2) 1.07470(17)
H6 H 1.0588 0.0408 1.0688
H7 H 0.9050 0.0567 1.1256
N2 N 0.8787(3) 0.1853(2) 1.2535(2)
N3 N 1.1427(3) 0.1862(2) 1.16263(19)
N4 N 1.2461(3) 0.0479(3) 1.3084(2)
N5 N 0.9716(3) 0.0339(3) 1.3982(2)
N6 N 0.9358(3) 0.4415(2) 1.12823(19)
N7 N 0.9817(3) 0.6388(2) 1.03554(19)
C9 C 0.9871(3) 0.1090(3) 1.3069(2)
C10 C 0.7446(4) 0.1852(3) 1.2957(3)
H8 H 0.6676 0.2368 1.2608
C11 C 0.7182(4) 0.1091(3) 1.3912(3)
H9 H 0.6250 0.1079 1.4211
C12 C 0.8358(3) 0.0357(3) 1.4396(2)
H10 H 0.8207 -0.0151 1.5041
C13 C 1.1362(3) 0.1130(3) 1.2570(2)
C14 C 1.2759(4) 0.1938(3) 1.1165(2)
H11 H 1.2861 0.2433 1.0510
C15 C 1.3955(4) 0.1306(3) 1.1641(3)
H12 H 1.4868 0.1367 1.1325
C16 C 1.3759(4) 0.0571(3) 1.2611(3)
H13 H 1.4562 0.0124 1.2946
C17 C 0.9772(3) 0.5219(3) 1.0453(2)
C18 C 0.8977(4) 0.4825(3) 1.2106(2)
H14 H 0.8675 0.4297 1.2705
C19 C 0.9022(4) 0.5991(3) 1.2087(2)
H15 H 0.8766 0.6253 1.2662
C20 C 0.9459(3) 0.6770(3) 1.1188(2)
H16 H 0.9505 0.7565 1.1158
N6A N 1.0642(3) 0.5585(2) 0.87177(19)
N7A N 1.0183(3) 0.3612(2) 0.96446(19)
C17A C 1.0228(3) 0.4781(3) 0.9547(2)
C18A C 1.1023(4) 0.5175(3) 0.7894(2)
H14A H 1.1325 0.5703 0.7295
C19A C 1.0978(4) 0.4009(3) 0.7913(2)
H15A H 1.1234 0.3747 0.7338
C20A C 1.0541(3) 0.3230(3) 0.8812(2)
H16A H 1.0495 0.2435 0.8842
Ni1A Ni 1.05464(4) 0.73285(4) 0.89145(3)
O13A O 1.2598(2) 0.6754(2) 0.92551(16)
H4A H 1.2820 0.6832 0.9721
H5A H 1.3207 0.6031 0.9235
O14A O 1.0340(2) 0.8993(2) 0.92530(17)
H6A H 0.9412 0.9592 0.9312
H7A H 1.0950 0.9433 0.8744
N2A N 1.1213(3) 0.8147(2) 0.7465(2)
N3A N 0.8573(3) 0.8138(2) 0.83737(19)
N4A N 0.7539(3) 0.9521(3) 0.6916(2)
N5A N 1.0284(3) 0.9661(3) 0.6018(2)
C9A C 1.0129(3) 0.8910(3) 0.6931(2)
C10A C 1.2554(4) 0.8148(3) 0.7043(3)
H8A H 1.3324 0.7632 0.7392
C11A C 1.2818(4) 0.8909(3) 0.6088(3)
H9A H 1.3750 0.8921 0.5789
C12A C 1.1642(3) 0.9643(3) 0.5604(2)
H10A H 1.1793 1.0151 0.4959
C13A C 0.8638(3) 0.8870(3) 0.7430(2)
C14A C 0.7241(4) 0.8062(3) 0.8835(2)
H11A H 0.7139 0.7567 0.9490
C15A C 0.6045(4) 0.8694(3) 0.8359(3)
H12A H 0.5132 0.8633 0.8675
C16A C 0.6241(4) 0.9429(3) 0.7389(3)
H13A H 0.5438 0.9876 0.7054
O15 O 1.1835(3) 0.0619(2) 0.78470(19)
H17 H 1.1920 0.1008 0.7175
H18 H 1.2454 0.1017 0.8015
O16 O 0.6661(3) -0.1012(2) 1.09706(18)
H19 H 0.6993 -0.0606 1.0396
H20 H 0.5909 -0.1270 1.0938
O17 O 0.3999(3) 0.4798(2) 0.8561(2)
H21 H 0.4302 0.3935 0.8865
H22 H 0.4848 0.4962 0.8232
loop_
_geom_bond_atom_site_label_1
_geom_bond_atom_site_label_2
_geom_bond_site_symmetry_1
_geom_bond_site_symmetry_2
U1 O1 1_555 1_555
S1 O7 1_555 1_555
O2 U1 1_555 1_555
O3 U1 1_555 1_555
O4 U1 1_555 1_555
O5 C2 1_555 1_555
O6 C2 1_555 1_555
O8 S1 1_555 1_555
O9 S1 1_555 1_555
O10 U1 1_555 1_555
O11 U1 1_555 1_555
O12 N1 1_555 1_555
N1 O10 1_555 1_555
C1 O3 1_555 1_555
C2 C5 1_555 1_555
C3 C1 1_555 1_555
C4 C3 1_555 1_555
H1 C4 1_555 1_555
C5 C4 1_555 1_555
C6 C5 1_555 1_555
H2 C6 1_555 1_555
C7 S1 1_555 1_555
C8 C3 1_555 1_555
H3 C8 1_555 1_555
Ni1 O13 1_555 1_555
O13 H4 1_555 1_555
H5 O13 1_555 1_555
O14 Ni1 1_555 1_555
H6 O14 1_555 1_555
H7 O14 1_555 1_555
N2 Ni1 1_555 1_555
N3 Ni1 1_555 1_555
N4 C13 1_555 1_555
N5 C9 1_555 1_555
N6 Ni1 1_555 1_555
N7 C17 1_555 1_555
C9 N2 1_555 1_555
C10 N2 1_555 1_555
H8 C10 1_555 1_555
C11 C10 1_555 1_555
H9 C11 1_555 1_555
C12 N5 1_555 1_555
H10 C12 1_555 1_555
C13 N3 1_555 1_555
C14 N3 1_555 1_555
H11 C14 1_555 1_555
C15 C14 1_555 1_555
H12 C15 1_555 1_555
C16 N4 1_555 1_555
H13 C16 1_555 1_555
C17 N6 1_555 1_555
C18 N6 1_555 1_555
H14 C18 1_555 1_555
C19 C18 1_555 1_555
H15 C19 1_555 1_555
C20 N7 1_555 1_555
H16 C20 1_555 1_555
O15 H17 1_555 1_555
H18 O15 1_555 1_555
O16 H19 1_555 1_555
H20 O16 1_555 1_555
O17 H21 1_555 1_555
H22 O17 1_555 1_555
U1_2 O5 1_555 1_555
O5_2 U1 1_555 1_555
O6_2 U1 1_555 1_555
N6A C17A 1_555 1_555
N7A Ni1 1_555 1_555
C17A C17 1_555 1_555
C18A N6A 1_555 1_555
H14A C18A 1_555 1_555
C19A C18A 1_555 1_555
H15A C19A 1_555 1_555
C20A N7A 1_555 1_555
H16A C20A 1_555 1_555
Ni1A N7 1_555 1_555
O13A Ni1A 1_555 1_555
H4A O13A 1_555 1_555
H5A O13A 1_555 1_555
O14A Ni1A 1_555 1_555
H6A O14A 1_555 1_555
H7A O14A 1_555 1_555
N2A Ni1A 1_555 1_555
N3A Ni1A 1_555 1_555
N4A C13A 1_555 1_555
N5A C9A 1_555 1_555
C9A N2A 1_555 1_555
C10A N2A 1_555 1_555
H8A C10A 1_555 1_555
C11A C10A 1_555 1_555
H9A C11A 1_555 1_555
C12A N5A 1_555 1_555
H10A C12A 1_555 1_555
C13A N3A 1_555 1_555
C14A N3A 1_555 1_555
H11A C14A 1_555 1_555
C15A C14A 1_555 1_555
H12A C15A 1_555 1_555
C16A N4A 1_555 1_555
H13A C16A 1_555 1_555
O4 C1 1_555 1_555
O6 U1_2 1_555 1_555
O11 N1 1_555 1_555
C6 C7 1_555 1_555
C7 C8 1_555 1_555
C9 C13 1_555 1_555
C11 C12 1_555 1_555
C15 C16 1_555 1_555
C19 C20 1_555 1_555
N6A Ni1A 1_555 1_555
N7A C17A 1_555 1_555
C19A C20A 1_555 1_555
C9A C13A 1_555 1_555
C11A C12A 1_555 1_555
C15A C16A 1_555 1_555

#END
