
#######################################################################
#
#                 Cambridge Crystallographic Data Centre
#                                CCDC 
#
#######################################################################
#
# If this CIF has been generated from an entry in the Cambridge 
# Structural Database, then it will include bibliographic, chemical, 
# crystal, experimental, refinement or atomic coordinate data resulting 
# from the CCDC's data processing and validation procedures.
#
#######################################################################

data_BEYLAU
_symmetry_cell_setting           triclinic
_symmetry_space_group_name_H-M   'P -1'
_symmetry_Int_Tables_number      2
_space_group_name_Hall           '-P 1'
loop_
_symmetry_equiv_pos_site_id
_symmetry_equiv_pos_as_xyz
1 x,y,z
2 -x,-y,-z
_cell_length_a                   9.0811(6)
_cell_length_b                   9.5438(5)
_cell_length_c                   12.3439(9)
_cell_angle_alpha                78.643(4)
_cell_angle_beta                 71.021(3)
_cell_angle_gamma                67.775(4)
_cell_volume                     933.161
loop_
_atom_site_label
_atom_site_type_symbol
_atom_site_fract_x
_atom_site_fract_y
_atom_site_fract_z
U1 U 0.740681(15) 0.579587(15) 0.547965(11)
S1 S 0.66198(11) 0.89029(12) 0.71853(8)
O1 O 0.7356(3) 0.4227(4) 0.6519(2)
O2 O 0.7429(3) 0.7348(4) 0.4431(2)
O3 O 0.9986(3) 0.5659(3) 0.5790(2)
O4 O 0.9876(3) 0.5423(3) 0.7663(2)
O5 O 1.3174(3) 0.5359(3) 0.5769(2)
O6 O 1.4488(3) 0.6752(4) 0.6024(3)
O7 O 0.6796(3) 0.7365(3) 0.6948(2)
O8 O 0.6135(3) 0.9022(4) 0.8410(2)
O9 O 0.5627(3) 1.0093(4) 0.6550(3)
C1 C 0.9973(4) 0.6161(4) 0.6726(3)
C2 C 1.3202(4) 0.6587(4) 0.5983(3)
C3 C 1.0082(4) 0.7719(4) 0.6541(3)
C4 C 1.1628(4) 0.7924(5) 0.6219(3)
C5 C 1.1726(5) 0.9370(5) 0.6071(3)
H1 H 1.2752 0.9491 0.5882
C6 C 1.0286(5) 1.0641(5) 0.6204(3)
H2 H 1.0346 1.1613 0.6091
C7 C 0.8762(4) 1.0441(5) 0.6507(3)
H3 H 0.7802 1.1287 0.6590
C8 C 0.8645(4) 0.8997(4) 0.6690(3)
U1_2 U 1.740681(15) 0.579587(15) 0.547965(11)
U1A U 1.259319(15) 0.420413(15) 0.452035(11)
O3A O 1.0014(3) 0.4341(3) 0.4210(2)
O5A O 0.6826(3) 0.4641(3) 0.4231(2)
O6_2 O 0.4488(3) 0.6752(4) 0.6024(3)
N1 N 0.8260(4) 0.6538(4) 0.9846(3)
H4 H 0.8963 0.6348 0.9237
N2 N 1.0854(5) 0.7439(5) 0.9244(3)
C9 C 0.6995(6) 0.6034(6) 0.9984(4)
H5 H 0.6933 0.5615 0.9388
C10 C 0.5818(6) 0.6154(6) 1.1012(5)
H6 H 0.4951 0.5797 1.1133
C11 C 0.5919(6) 0.6814(6) 1.1880(4)
H7 H 0.5111 0.6911 1.2582
C12 C 0.7240(5) 0.7334(6) 1.1698(4)
H8 H 0.7312 0.7784 1.2273
C13 C 0.8431(5) 0.7167(5) 1.0652(3)
C14 C 0.9912(5) 0.7628(5) 1.0340(3)
C15 C 1.0296(6) 0.8189(6) 1.1115(4)
H9 H 0.9629 0.8279 1.1868
C16 C 1.1685(6) 0.8618(7) 1.0766(4)
H10 H 1.1956 0.9021 1.1272
C17 C 1.2659(5) 0.8434(6) 0.9646(4)
H11 H 1.3606 0.8704 0.9384
C18 C 1.2207(6) 0.7844(6) 0.8924(4)
H12 H 1.2875 0.7719 0.8173
loop_
_geom_bond_atom_site_label_1
_geom_bond_atom_site_label_2
_geom_bond_site_symmetry_1
_geom_bond_site_symmetry_2
U1 O1 1_555 1_555
S1 O7 1_555 1_555
O2 U1 1_555 1_555
O3 U1 1_555 1_555
O4 C1 1_555 1_555
O5 C2 1_555 1_555
O6 C2 1_555 1_555
O7 U1 1_555 1_555
O8 S1 1_555 1_555
O9 S1 1_555 1_555
C1 O3 1_555 1_555
C2 C4 1_555 1_555
C3 C1 1_555 1_555
C4 C3 1_555 1_555
C5 C4 1_555 1_555
H1 C5 1_555 1_555
C6 C5 1_555 1_555
H2 C6 1_555 1_555
C7 C6 1_555 1_555
H3 C7 1_555 1_555
C8 S1 1_555 1_555
N1 H4 1_555 1_555
N2 C14 1_555 1_555
C9 N1 1_555 1_555
H5 C9 1_555 1_555
C10 C9 1_555 1_555
H6 C10 1_555 1_555
C11 C10 1_555 1_555
H7 C11 1_555 1_555
C12 C11 1_555 1_555
H8 C12 1_555 1_555
C13 N1 1_555 1_555
C14 C13 1_555 1_555
C15 C14 1_555 1_555
H9 C15 1_555 1_555
C16 C15 1_555 1_555
H10 C16 1_555 1_555
C17 C16 1_555 1_555
H11 C17 1_555 1_555
C18 N2 1_555 1_555
H12 C18 1_555 1_555
U1_2 O6 1_555 1_555
U1A O3 1_555 1_555
O3A U1 1_555 1_555
O5A U1 1_555 1_555
O6_2 U1 1_555 1_555
O5 U1A 1_555 1_555
C3 C8 1_555 1_555
C7 C8 1_555 1_555
C12 C13 1_555 1_555
C17 C18 1_555 1_555
U1A O3A 1_555 1_555

#END
