
#######################################################################
#
#                 Cambridge Crystallographic Data Centre
#                                CCDC 
#
#######################################################################
#
# If this CIF has been generated from an entry in the Cambridge 
# Structural Database, then it will include bibliographic, chemical, 
# crystal, experimental, refinement or atomic coordinate data resulting 
# from the CCDC's data processing and validation procedures.
#
#######################################################################

data_BEYPUQ02
_symmetry_cell_setting           monoclinic
_symmetry_space_group_name_H-M   'P 21/c'
_symmetry_Int_Tables_number      14
_space_group_name_Hall           '-P 2ybc'
loop_
_symmetry_equiv_pos_site_id
_symmetry_equiv_pos_as_xyz
1 x,y,z
2 -x,1/2+y,1/2-z
3 -x,-y,-z
4 x,1/2-y,1/2+z
_cell_length_a                   5.0387(4)
_cell_length_b                   15.3317(13)
_cell_length_c                   7.0720(6)
_cell_angle_alpha                90
_cell_angle_beta                 106.6250(10)
_cell_angle_gamma                90
_cell_volume                     523.487
loop_
_atom_site_label
_atom_site_type_symbol
_atom_site_fract_x
_atom_site_fract_y
_atom_site_fract_z
Cu1 Cu 0.5000 0.5000 1.0000
O1 O 0.1694(3) 0.56859(8) 0.89406(19)
O2 O -0.2704(3) 0.55507(10) 0.7146(2)
N1 N 0.2846(3) 0.40751(10) 0.8290(2)
N2 N -0.0908(4) 0.29859(12) 0.5749(3)
C1 C -0.0340(4) 0.52771(14) 0.7780(3)
C2 C 0.0329(4) 0.43591(12) 0.7288(2)
C3 C -0.1510(4) 0.38153(13) 0.5986(3)
H1 H -0.3214 0.4036 0.5257
C4 C 0.1570(4) 0.27062(13) 0.6818(3)
H2 H 0.2026 0.2123 0.6722
C5 C 0.3497(4) 0.32477(12) 0.8067(3)
H3 H 0.5236 0.3034 0.8746
O1B O -0.1694(3) 0.43141(8) 1.10594(19)
O2B O 0.2704(3) 0.44493(10) 1.2854(2)
N1B N -0.2846(3) 0.59249(10) 1.1710(2)
N2B N 0.0908(4) 0.70141(12) 1.4251(3)
C1B C 0.0340(4) 0.47229(14) 1.2220(3)
C2B C -0.0329(4) 0.56409(12) 1.2712(2)
C3B C 0.1510(4) 0.61847(13) 1.4014(3)
H1B H 0.3214 0.5964 1.4743
C4B C -0.1570(4) 0.72938(13) 1.3182(3)
H2B H -0.2026 0.7877 1.3278
C5B C -0.3497(4) 0.67523(12) 1.1933(3)
H3B H -0.5236 0.6966 1.1254
Cu1_2 Cu -0.5000 0.5000 1.0000
O1B_2 O 0.8306(3) 0.43141(8) 1.10594(19)
O2_2 O 0.7296(3) 0.55507(10) 0.7146(2)
N1B_2 N 0.7154(3) 0.59249(10) 1.1710(2)
loop_
_geom_bond_atom_site_label_1
_geom_bond_atom_site_label_2
_geom_bond_site_symmetry_1
_geom_bond_site_symmetry_2
Cu1 O1 1_555 1_555
O1 C1 1_555 1_555
O2 C1 1_555 1_555
N1 Cu1 1_555 1_555
N2 C3 1_555 1_555
C1 C2 1_555 1_555
C2 N1 1_555 1_555
C3 C2 1_555 1_555
H1 C3 1_555 1_555
C4 N2 1_555 1_555
H2 C4 1_555 1_555
C5 N1 1_555 1_555
H3 C5 1_555 1_555
O1B C1B 1_555 1_555
O2B Cu1 1_555 1_555
N1B C2B 1_555 1_555
N2B C3B 1_555 1_555
C1B O2B 1_555 1_555
C2B C1B 1_555 1_555
C3B C2B 1_555 1_555
H1B C3B 1_555 1_555
C4B N2B 1_555 1_555
H2B C4B 1_555 1_555
C5B N1B 1_555 1_555
H3B C5B 1_555 1_555
Cu1_2 O2 1_555 1_555
O1B_2 Cu1 1_555 1_555
O2_2 Cu1 1_555 1_555
N1B_2 Cu1 1_555 1_555
C4 C5 1_555 1_555
O1B Cu1_2 1_555 1_555
N1B Cu1_2 1_555 1_555
C4B C5B 1_555 1_555

#END
