
#######################################################################
#
#                 Cambridge Crystallographic Data Centre
#                                CCDC 
#
#######################################################################
#
# If this CIF has been generated from an entry in the Cambridge 
# Structural Database, then it will include bibliographic, chemical, 
# crystal, experimental, refinement or atomic coordinate data resulting 
# from the CCDC's data processing and validation procedures.
#
#######################################################################

data_BEYPUQ01
_symmetry_cell_setting           monoclinic
_symmetry_space_group_name_H-M   'P 21/c'
_symmetry_Int_Tables_number      14
_space_group_name_Hall           '-P 2ybc'
loop_
_symmetry_equiv_pos_site_id
_symmetry_equiv_pos_as_xyz
1 x,y,z
2 -x,1/2+y,1/2-z
3 -x,-y,-z
4 x,1/2-y,1/2+z
_cell_length_a                   5.0290(9)
_cell_length_b                   15.3420(16)
_cell_length_c                   7.055(2)
_cell_angle_alpha                90
_cell_angle_beta                 106.453(19)
_cell_angle_gamma                90
_cell_volume                     522.039
loop_
_atom_site_label
_atom_site_type_symbol
_atom_site_fract_x
_atom_site_fract_y
_atom_site_fract_z
Cu1 Cu 0.0000 0.0000 0.0000
O1 O 0.3300(3) -0.06873(10) 0.1067(2)
O2 O 0.7690(3) -0.05516(11) 0.2857(3)
N1 N 0.2150(4) 0.09286(11) 0.1705(3)
N2 N 0.5913(5) 0.20179(13) 0.4230(3)
C1 C 0.1508(5) 0.17564(14) 0.1923(3)
H1 H -0.0266 0.1976 0.1228
C2 C 0.3448(5) 0.22981(15) 0.3172(4)
H2 H 0.2986 0.2894 0.3272
C3 C 0.6508(5) 0.11877(15) 0.4000(3)
H3 H 0.8249 0.0963 0.4748
C4 C 0.4674(4) 0.06422(14) 0.2708(3)
C5 C 0.5332(5) -0.02737(16) 0.2228(3)
O1B O -0.3300(3) 0.06873(10) -0.1067(2)
O2B O -0.7690(3) 0.05516(11) -0.2857(3)
N1B N -0.2150(4) -0.09286(11) -0.1705(3)
N2B N -0.5913(5) -0.20179(13) -0.4230(3)
C1B C -0.1508(5) -0.17564(14) -0.1923(3)
H1B H 0.0266 -0.1976 -0.1228
C2B C -0.3448(5) -0.22981(15) -0.3172(4)
H2B H -0.2986 -0.2894 -0.3272
C3B C -0.6508(5) -0.11877(15) -0.4000(3)
H3B H -0.8249 -0.0963 -0.4748
C4B C -0.4674(4) -0.06422(14) -0.2708(3)
C5B C -0.5332(5) 0.02737(16) -0.2228(3)
Cu1_2 Cu -1.0000 0.0000 0.0000
Cu1_3 Cu 1.0000 0.0000 0.0000
O2_2 O -0.2310(3) -0.05516(11) 0.2857(3)
O2B_2 O 0.2310(3) 0.05516(11) -0.2857(3)
loop_
_geom_bond_atom_site_label_1
_geom_bond_atom_site_label_2
_geom_bond_site_symmetry_1
_geom_bond_site_symmetry_2
Cu1 O1 1_555 1_555
O1 C5 1_555 1_555
O2 C5 1_555 1_555
N1 Cu1 1_555 1_555
N2 C2 1_555 1_555
C1 N1 1_555 1_555
H1 C1 1_555 1_555
C2 C1 1_555 1_555
H2 C2 1_555 1_555
C3 N2 1_555 1_555
H3 C3 1_555 1_555
C4 N1 1_555 1_555
C5 C4 1_555 1_555
O1B Cu1 1_555 1_555
O2B C5B 1_555 1_555
N1B Cu1 1_555 1_555
N2B C2B 1_555 1_555
C1B N1B 1_555 1_555
H1B C1B 1_555 1_555
C2B C1B 1_555 1_555
H2B C2B 1_555 1_555
C3B N2B 1_555 1_555
H3B C3B 1_555 1_555
C4B N1B 1_555 1_555
C5B O1B 1_555 1_555
Cu1_2 O2B 1_555 1_555
Cu1_3 O2 1_555 1_555
O2_2 Cu1 1_555 1_555
O2B_2 Cu1 1_555 1_555
C3 C4 1_555 1_555
C3B C4B 1_555 1_555
C4B C5B 1_555 1_555

#END
