
#######################################################################
#
#                 Cambridge Crystallographic Data Centre
#                                CCDC 
#
#######################################################################
#
# If this CIF has been generated from an entry in the Cambridge 
# Structural Database, then it will include bibliographic, chemical, 
# crystal, experimental, refinement or atomic coordinate data resulting 
# from the CCDC's data processing and validation procedures.
#
#######################################################################

data_BEYRUU
_symmetry_cell_setting           tetragonal
_symmetry_space_group_name_H-M   'I 41/a'
_symmetry_Int_Tables_number      88
_space_group_name_Hall           '-I 4ad'
loop_
_symmetry_equiv_pos_site_id
_symmetry_equiv_pos_as_xyz
1 x,y,z
2 1/2-x,-y,1/2+z
3 3/4-y,1/4+x,1/4+z
4 3/4+y,3/4-x,3/4+z
5 1/2+x,1/2+y,1/2+z
6 -x,1/2-y,z
7 1/4-y,3/4+x,3/4+z
8 1/4+y,1/4-x,1/4+z
9 -x,-y,-z
10 1/2+x,y,1/2-z
11 1/4+y,3/4-x,3/4-z
12 1/4-y,1/4+x,1/4-z
13 1/2-x,1/2-y,1/2-z
14 x,1/2+y,-z
15 3/4+y,1/4-x,1/4-z
16 3/4-y,3/4+x,3/4-z
_cell_length_a                   15.852(3)
_cell_length_b                   15.852(3)
_cell_length_c                   22.346(8)
_cell_angle_alpha                90
_cell_angle_beta                 90
_cell_angle_gamma                90
_cell_volume                     5615.23
loop_
_atom_site_label
_atom_site_type_symbol
_atom_site_fract_x
_atom_site_fract_y
_atom_site_fract_z
N1 N 0.1328(5) 0.9725(4) 0.2827(3)
Co1 Co 0.04001(5) 1.01643(5) 0.05946(3)
N2 N 0.1729(3) 1.1749(3) 0.17816(19)
O1 O -0.0142(3) 0.9071(3) 0.0888(2)
N3 N 0.0996(3) 1.0688(3) 0.13295(19)
C1 C 0.1197(4) 1.0466(3) 0.1909(2)
C2 C 0.1331(4) 1.1453(4) 0.1296(2)
H1 H 0.1290 1.1773 0.0948
O2 O -0.0743(3) 0.8925(3) 0.00036(19)
N4 N 0.1940(3) 1.1096(3) 0.2749(2)
C3 C 0.1637(3) 1.1107(3) 0.2176(2)
C4 C -0.0636(4) 0.8697(4) 0.0531(3)
C5 C 0.1026(5) 0.9735(4) 0.2257(3)
C6 C 0.1748(5) 1.0388(4) 0.3030(3)
H2 H 0.1933 1.0351 0.3424
N5 N 0.0601(5) 0.9075(4) 0.2062(3)
H3 H 0.0520 0.8650 0.2295
H4 H 0.0405 0.9069 0.1704
C7 C -0.1128(6) 0.7958(5) 0.0761(4)
H5 H -0.1658 0.7944 0.0545
H6 H -0.0821 0.7450 0.0655
C8 C -0.136(2) 0.7947(13) 0.1396(8)
H7 H -0.0835 0.7886 0.1617
H8 H -0.1675 0.7432 0.1460
C9 C -0.184(2) 0.8631(17) 0.1693(11)
H9 H -0.2382 0.8670 0.1497
H10 H -0.1544 0.9157 0.1615
C10 C -0.199(3) 0.858(3) 0.2354(12)
H11 H -0.2342 0.9047 0.2476
H12 H -0.1466 0.8605 0.2563
H13 H -0.2275 0.8061 0.2446
Co1G Co 0.26643(5) 1.20999(5) 0.30946(3)
Co1H Co -0.04001(5) 0.98357(5) -0.05946(3)
Co1K Co 0.23357(5) 1.29001(5) 0.19054(3)
N2N N -0.0751(3) 1.0771(3) 0.07184(19)
O2H O 0.0743(3) 1.1075(3) -0.00036(19)
N4F N 0.1404(3) 0.9440(3) 0.0249(2)
O3 O 0.0000 0.7500 0.2814(14)
C11? C -0.147(5) 0.823(4) 0.1348(14)
C12? C -0.154(4) 0.769(4) 0.1878(13)
C13? C -0.101(5) 0.780(3) 0.242(2)
H14? H -0.1673 0.7944 0.0564
H15? H -0.0832 0.7440 0.0662
H16? H -0.1143 0.8715 0.1469
H17? H -0.2039 0.8436 0.1269
H18? H -0.1446 0.7113 0.1742
H19? H -0.2123 0.7716 0.2009
H20? H -0.0444 0.7613 0.2344
H21? H -0.1240 0.7483 0.2749
H22? H -0.0996 0.8390 0.2532
H23? H -0.0921 0.7450 0.0568
H24? H -0.1025 0.7901 0.1187
C14? C -0.2038(10) 0.8022(14) 0.0660(17)
H25? H -0.2296 0.7560 0.0878
H26? H -0.2131 0.7909 0.0239
C15? C -0.2530(13) 0.8789(14) 0.0807(17)
H27? H -0.2225 0.9267 0.0643
H28? H -0.2521 0.8851 0.1239
C16? C -0.343(2) 0.887(2) 0.061(2)
H29? H -0.3664 0.9379 0.0779
H30? H -0.3744 0.8395 0.0750
H31? H -0.3453 0.8900 0.0184
loop_
_geom_bond_atom_site_label_1
_geom_bond_atom_site_label_2
_geom_bond_site_symmetry_1
_geom_bond_site_symmetry_2
N1 C5 1_555 1_555
Co1 O1 1_555 1_555
N2 C2 1_555 1_555
O1 C4 1_555 1_555
N3 Co1 1_555 1_555
C1 N3 1_555 1_555
C2 N3 1_555 1_555
H1 C2 1_555 1_555
O2 C4 1_555 1_555
N4 C3 1_555 1_555
C3 N2 1_555 1_555
C4 C7 1_555 1_555
C5 C1 1_555 1_555
C6 N1 1_555 1_555
H2 C6 1_555 1_555
N5 C5 1_555 1_555
H3 N5 1_555 1_555
H4 N5 1_555 1_555
C7 H5 1_555 1_555
H6 C7 1_555 1_555
C8 C7 1_555 1_555
H7 C8 1_555 1_555
H8 C8 1_555 1_555
C9 C8 1_555 1_555
H9 C9 1_555 1_555
H10 C9 1_555 1_555
C10 C9 1_555 1_555
H11 C10 1_555 1_555
H12 C10 1_555 1_555
H13 C10 1_555 1_555
Co1G N4 1_555 1_555
Co1H O2 1_555 1_555
Co1K N2 1_555 1_555
N2N Co1 1_555 1_555
O2H Co1 1_555 1_555
N4F Co1 1_555 1_555
C1 C3 1_555 1_555
N4 C6 1_555 1_555

#END
