
#######################################################################
#
#                 Cambridge Crystallographic Data Centre
#                                CCDC 
#
#######################################################################
#
# If this CIF has been generated from an entry in the Cambridge 
# Structural Database, then it will include bibliographic, chemical, 
# crystal, experimental, refinement or atomic coordinate data resulting 
# from the CCDC's data processing and validation procedures.
#
#######################################################################

data_BEYSEF
_symmetry_cell_setting           tetragonal
_symmetry_space_group_name_H-M   'I 41/a'
_symmetry_Int_Tables_number      88
_space_group_name_Hall           '-I 4ad'
loop_
_symmetry_equiv_pos_site_id
_symmetry_equiv_pos_as_xyz
1 x,y,z
2 1/2-x,-y,1/2+z
3 3/4-y,1/4+x,1/4+z
4 3/4+y,3/4-x,3/4+z
5 1/2+x,1/2+y,1/2+z
6 -x,1/2-y,z
7 1/4-y,3/4+x,3/4+z
8 1/4+y,1/4-x,1/4+z
9 -x,-y,-z
10 1/2+x,y,1/2-z
11 1/4+y,3/4-x,3/4-z
12 1/4-y,1/4+x,1/4-z
13 1/2-x,1/2-y,1/2-z
14 x,1/2+y,-z
15 3/4+y,1/4-x,1/4-z
16 3/4-y,3/4+x,3/4-z
_cell_length_a                   17.243(3)
_cell_length_b                   17.243(3)
_cell_length_c                   20.157(6)
_cell_angle_alpha                90
_cell_angle_beta                 90
_cell_angle_gamma                90
_cell_volume                     5993.1
loop_
_atom_site_label
_atom_site_type_symbol
_atom_site_fract_x
_atom_site_fract_y
_atom_site_fract_z
Co1 Co 0.03761(2) 0.46924(2) 0.060409(18)
C1 C 0.11616(16) 0.34439(16) 0.13443(14)
H1 H 0.1017 0.3131 0.0989
C2 C 0.12675(16) 0.44150(15) 0.19877(13)
C3 C 0.12740(17) 0.51174(17) 0.23400(15)
C4 C 0.05496(17) 0.38656(17) -0.07007(16)
C5 C 0.0895(2) 0.32221(19) -0.11028(17)
H2 H 0.1325 0.3430 -0.1357
H3 H 0.0508 0.3043 -0.1417
C6 C 0.1182(2) 0.2534(2) -0.0712(2)
H4 H 0.1393 0.2155 -0.1010
H5 H 0.0758 0.2309 -0.0470
H6 H 0.1576 0.2699 -0.0407
C7 C 0.16975(15) 0.38061(15) 0.22415(13)
C8 C 0.21001(19) 0.45287(17) 0.30908(16)
H7 H 0.2395 0.4586 0.3474
N1 N 0.09196(13) 0.41756(13) 0.13986(11)
N2 N 0.08829(16) 0.57536(14) 0.21591(14)
H8 H 0.0911 0.6167 0.2396
H9 H 0.0603 0.5749 0.1806
N3 N 0.17077(16) 0.51505(14) 0.29003(13)
N4 N 0.16279(13) 0.31820(13) 0.18323(11)
N5 N 0.21280(14) 0.38340(13) 0.28063(12)
O1 O 0.07272(12) 0.39095(12) -0.01009(10)
O2 O 0.01097(12) 0.43375(12) -0.09970(11)
Co1B Co 0.28076(2) 0.28761(2) 0.310409(18)
Co1H Co -0.03761(2) 0.53076(2) -0.060409(18)
Co1N Co 0.21924(2) 0.21239(2) 0.189591(18)
N4K N -0.06820(13) 0.41279(13) 0.06677(11)
N5C N 0.13340(13) 0.53720(14) 0.03063(12)
O2H O -0.01097(12) 0.56625(12) 0.09970(11)
O3 O 0.1056(2) 0.72953(19) 0.2787(2)
N6 N 0.1342(2) 0.8549(2) 0.29902(17)
C9 C 0.0876(3) 0.7957(3) 0.2914(2)
H10 H 0.0349 0.8056 0.2964
C10 C 0.2160(3) 0.8433(3) 0.2936(3)
H11 H 0.2262 0.7903 0.2819
H12 H 0.2402 0.8550 0.3352
H13 H 0.2364 0.8768 0.2598
C11 C 0.1078(4) 0.9314(3) 0.3149(3)
H14 H 0.0522 0.9319 0.3167
H15 H 0.1252 0.9671 0.2815
H16 H 0.1284 0.9466 0.3572
loop_
_geom_bond_atom_site_label_1
_geom_bond_atom_site_label_2
_geom_bond_site_symmetry_1
_geom_bond_site_symmetry_2
Co1 N1 1_555 1_555
C1 H1 1_555 1_555
C2 C3 1_555 1_555
C3 N2 1_555 1_555
C4 C5 1_555 1_555
C5 H2 1_555 1_555
H3 C5 1_555 1_555
C6 C5 1_555 1_555
H4 C6 1_555 1_555
H5 C6 1_555 1_555
H6 C6 1_555 1_555
C7 C2 1_555 1_555
C8 H7 1_555 1_555
N1 C1 1_555 1_555
N2 H8 1_555 1_555
H9 N2 1_555 1_555
N3 C3 1_555 1_555
N4 C1 1_555 1_555
N5 C7 1_555 1_555
O1 Co1 1_555 1_555
O2 C4 1_555 1_555
O3 C9 1_555 1_555
N6 C9 1_555 1_555
C9 H10 1_555 1_555
C10 N6 1_555 1_555
H11 C10 1_555 1_555
H12 C10 1_555 1_555
H13 C10 1_555 1_555
C11 N6 1_555 1_555
H14 C11 1_555 1_555
H15 C11 1_555 1_555
H16 C11 1_555 1_555
Co1B N5 1_555 1_555
Co1H O2 1_555 1_555
Co1N N4 1_555 1_555
N4K Co1 1_555 1_555
N5C Co1 1_555 1_555
O2H Co1 1_555 1_555
C2 N1 1_555 1_555
C4 O1 1_555 1_555
C7 N4 1_555 1_555
C8 N3 1_555 1_555
C8 N5 1_555 1_555

#END
