
#######################################################################
#
#                 Cambridge Crystallographic Data Centre
#                                CCDC 
#
#######################################################################
#
# If this CIF has been generated from an entry in the Cambridge 
# Structural Database, then it will include bibliographic, chemical, 
# crystal, experimental, refinement or atomic coordinate data resulting 
# from the CCDC's data processing and validation procedures.
#
#######################################################################

data_BEYSAB
_symmetry_cell_setting           tetragonal
_symmetry_space_group_name_H-M   'I 41/a'
_symmetry_Int_Tables_number      88
_space_group_name_Hall           '-I 4ad'
loop_
_symmetry_equiv_pos_site_id
_symmetry_equiv_pos_as_xyz
1 x,y,z
2 1/2-x,-y,1/2+z
3 3/4-y,1/4+x,1/4+z
4 3/4+y,3/4-x,3/4+z
5 1/2+x,1/2+y,1/2+z
6 -x,1/2-y,z
7 1/4-y,3/4+x,3/4+z
8 1/4+y,1/4-x,1/4+z
9 -x,-y,-z
10 1/2+x,y,1/2-z
11 1/4+y,3/4-x,3/4-z
12 1/4-y,1/4+x,1/4-z
13 1/2-x,1/2-y,1/2-z
14 x,1/2+y,-z
15 3/4+y,1/4-x,1/4-z
16 3/4-y,3/4+x,3/4-z
_cell_length_a                   15.7869(10)
_cell_length_b                   15.7869(10)
_cell_length_c                   22.328(3)
_cell_angle_alpha                90
_cell_angle_beta                 90
_cell_angle_gamma                90
_cell_volume                     5564.72
loop_
_atom_site_label
_atom_site_type_symbol
_atom_site_fract_x
_atom_site_fract_y
_atom_site_fract_z
O1 O 0.57645(19) 0.60941(18) 0.99967(12)
Co1 Co 0.54068(2) 0.51702(3) 1.058996(17)
O2 O 0.51485(17) 0.59241(16) 0.91219(13)
N1 N 0.1556(3) 0.6911(4) 1.04426(19)
H1 H 0.156(4) 0.715(4) 1.0784(16)
H2 H 0.125(3) 0.709(4) 1.014(2)
N2 N 0.2201(2) 0.6181(3) 0.96757(17)
N3 N 0.35814(17) 0.5559(2) 0.97471(12)
N4 N 0.42500(16) 0.57831(17) 1.07059(11)
N5 N 0.31875(17) 0.65060(17) 1.11658(11)
C1 C 0.3964(2) 0.6177(2) 1.12026(14)
H3 H 0.4288 0.6217 1.1549
C2 C 0.29500(19) 0.6309(2) 1.05872(13)
C3 C 0.2227(2) 0.6482(3) 1.02432(19)
C4 C 0.2867(3) 0.5745(4) 0.94650(19)
H4 H 0.2821 0.5551 0.9073
C5 C 0.36015(18) 0.58682(19) 1.03150(13)
C6 C 0.5651(2) 0.6299(2) 0.94670(16)
C7 C 0.6147(3) 0.7046(3) 0.9235(3)
H5 H 0.5818 0.7555 0.9308
H6 H 0.6664 0.7093 0.9467
C8 C 0.6364(12) 0.7028(11) 0.8627(8)
H7 H 0.5835 0.7077 0.8410
H8 H 0.6673 0.7549 0.8553
C9 C 0.6773(14) 0.6457(12) 0.8368(10)
H9 H 0.6818 0.6588 0.7950
H10 H 0.6486 0.5926 0.8417
H11 H 0.7330 0.6419 0.8539
Co1H Co 0.45932(2) 0.48298(3) 0.941004(17)
Co1N Co 0.26702(3) 0.70932(2) 1.191004(17)
O2H O 0.48515(17) 0.40759(16) 1.08781(13)
N3H N 0.64186(17) 0.4441(2) 1.02529(12)
N5K N 0.59940(17) 0.56875(17) 1.13342(11)
O3 O 0.974(3) 0.674(2) 0.901(2)
H12? H 0.5912 0.7215 0.8851
H13? H 0.6071 0.7516 0.9510
C10? C 0.7003(12) 0.6922(15) 0.9219(12)
H14? H 0.7175 0.7177 0.8843
H15? H 0.7218 0.7296 0.9528
C11? C 0.7462(14) 0.6275(16) 0.9261(15)
H16? H 0.8045 0.6444 0.9293
H17? H 0.7390 0.5930 0.8911
H18? H 0.7303 0.5958 0.9610
O4? O 0.9886(9) 0.7084(7) 0.9838(6)
loop_
_geom_bond_atom_site_label_1
_geom_bond_atom_site_label_2
_geom_bond_site_symmetry_1
_geom_bond_site_symmetry_2
O1 Co1 1_555 1_555
Co1 N4 1_555 1_555
O2 C6 1_555 1_555
N1 H1 1_555 1_555
H2 N1 1_555 1_555
N2 C3 1_555 1_555
N3 C4 1_555 1_555
N4 C1 1_555 1_555
N5 C1 1_555 1_555
C1 H3 1_555 1_555
C2 N5 1_555 1_555
C3 N1 1_555 1_555
C4 N2 1_555 1_555
H4 C4 1_555 1_555
C5 N3 1_555 1_555
C6 O1 1_555 1_555
C7 C6 1_555 1_555
H5 C7 1_555 1_555
H6 C7 1_555 1_555
C8 C7 1_555 1_555
H7 C8 1_555 1_555
H8 C8 1_555 1_555
C9 C8 1_555 1_555
H9 C9 1_555 1_555
H10 C9 1_555 1_555
H11 C9 1_555 1_555
Co1H O2 1_555 1_555
Co1N N5 1_555 1_555
O2H Co1 1_555 1_555
N3H Co1 1_555 1_555
N5K Co1 1_555 1_555
N3 Co1H 1_555 1_555
N4 C5 1_555 1_555
C2 C3 1_555 1_555
C2 C5 1_555 1_555

#END
