
#######################################################################
#
#                 Cambridge Crystallographic Data Centre
#                                CCDC 
#
#######################################################################
#
# If this CIF has been generated from an entry in the Cambridge 
# Structural Database, then it will include bibliographic, chemical, 
# crystal, experimental, refinement or atomic coordinate data resulting 
# from the CCDC's data processing and validation procedures.
#
#######################################################################

data_BEYTEG
_symmetry_cell_setting           monoclinic
_symmetry_space_group_name_H-M   'C 2/c'
_symmetry_Int_Tables_number      15
_space_group_name_Hall           '-C 2yn'
loop_
_symmetry_equiv_pos_site_id
_symmetry_equiv_pos_as_xyz
1 x,y,z
2 -x,y,1/2-z
3 1/2+x,1/2+y,z
4 1/2-x,1/2+y,1/2-z
5 -x,-y,-z
6 x,-y,1/2+z
7 1/2-x,1/2-y,-z
8 1/2+x,1/2-y,1/2+z
_cell_length_a                   16.6031(1)
_cell_length_b                   9.6683(3)
_cell_length_c                   11.5615(5)
_cell_angle_alpha                90
_cell_angle_beta                 128.743(5)
_cell_angle_gamma                90
_cell_volume                     1447.53
loop_
_atom_site_label
_atom_site_type_symbol
_atom_site_fract_x
_atom_site_fract_y
_atom_site_fract_z
Cu1 Cu 0.07858(14) 0.4731(3) 1.1931(2)
N1 N -0.0046(9) 0.1934(17) 1.0550(14)
N2 N -0.3621(9) 0.0302(16) 0.5894(14)
N3 N -0.4217(8) 0.0029(16) 0.4421(14)
N4 N -0.3681(9) 0.0198(16) 0.3955(14)
N5 N -0.2732(9) 0.0635(16) 0.5100(14)
O1 O 0.0791(7) 0.2277(14) 1.1862(11)
C1 C 0.0029(11) 0.168(2) 0.9463(17)
H1 H 0.0662 0.1785 0.9663
C2 C -0.0816(11) 0.129(2) 0.8080(17)
H2 H -0.0749 0.1093 0.7355
C3 C -0.1789(11) 0.117(2) 0.7746(17)
C4 C -0.1834(11) 0.144(2) 0.8866(16)
H3 H -0.2458 0.1372 0.8697
C5 C -0.0951(11) 0.182(2) 1.0242(16)
H4 H -0.0998 0.1996 1.0990
C6 C -0.2698(11) 0.0667(19) 0.6267(17)
Cu1B Cu -0.42142(14) -0.0269(3) 0.1931(2)
Cu1C Cu -0.57858(14) -0.0269(3) 0.3069(2)
Cu1G Cu -0.42142(14) 0.0269(3) 0.6931(2)
N2G N 0.1379(9) 0.4698(16) 1.0894(14)
N3C N -0.0783(8) 0.5029(16) 1.0579(14)
N4B N 0.1319(9) 0.5198(16) 1.3955(14)
loop_
_geom_bond_atom_site_label_1
_geom_bond_atom_site_label_2
_geom_bond_site_symmetry_1
_geom_bond_site_symmetry_2
Cu1 O1 1_555 1_555
N1 O1 1_555 1_555
N2 N3 1_555 1_555
N3 N4 1_555 1_555
N4 N5 1_555 1_555
N5 C6 1_555 1_555
C1 N1 1_555 1_555
H1 C1 1_555 1_555
C2 C1 1_555 1_555
H2 C2 1_555 1_555
C3 C2 1_555 1_555
C4 C3 1_555 1_555
H3 C4 1_555 1_555
C5 N1 1_555 1_555
H4 C5 1_555 1_555
C6 N2 1_555 1_555
Cu1B N4 1_555 1_555
Cu1C N3 1_555 1_555
Cu1G N2 1_555 1_555
N2G Cu1 1_555 1_555
N3C Cu1 1_555 1_555
N4B Cu1 1_555 1_555
C3 C6 1_555 1_555
C4 C5 1_555 1_555

#END
