
#######################################################################
#
#                 Cambridge Crystallographic Data Centre
#                                CCDC 
#
#######################################################################
#
# If this CIF has been generated from an entry in the Cambridge 
# Structural Database, then it will include bibliographic, chemical, 
# crystal, experimental, refinement or atomic coordinate data resulting 
# from the CCDC's data processing and validation procedures.
#
#######################################################################

data_BEZJEX
_symmetry_cell_setting           triclinic
_symmetry_space_group_name_H-M   'P -1'
_symmetry_Int_Tables_number      2
_space_group_name_Hall           '-P 1'
loop_
_symmetry_equiv_pos_site_id
_symmetry_equiv_pos_as_xyz
1 x,y,z
2 -x,-y,-z
_cell_length_a                   8.7843(2)
_cell_length_b                   9.0024(2)
_cell_length_c                   10.0774(2)
_cell_angle_alpha                97.545(2)
_cell_angle_beta                 99.046(2)
_cell_angle_gamma                95.542(2)
_cell_volume                     774.58
loop_
_atom_site_label
_atom_site_type_symbol
_atom_site_fract_x
_atom_site_fract_y
_atom_site_fract_z
C15 C 0.8873(4) 0.4767(3) 0.9679(3)
H13 H 0.8291 0.5012 0.8828
H14 H 0.8123 0.4239 1.0149
Cl1 Cl 0.97463(6) 0.64344(5) 1.07140(5)
C15A C 1.1127(4) 0.5233(3) 1.0321(3)
H13A H 1.1709 0.4988 1.1172
H14A H 1.1877 0.5761 0.9851
Cl1A Cl 1.02537(6) 0.35656(5) 0.92860(5)
Cu1 Cu 0.388366(19) 0.587412(17) 0.511117(16)
I1 I 0.332198(9) 0.329856(9) 0.346919(8)
S1 S 0.20966(4) 0.57680(3) 0.65915(3)
N1 N 0.30573(13) 0.78933(12) 0.46713(11)
C1 C 0.02706(15) 0.47265(14) 0.56664(13)
H1 H 0.0402 0.3643 0.5484
H2 H -0.0539 0.4827 0.6243
C2 C 0.17330(15) 0.76779(14) 0.66209(13)
C3 C 0.09543(17) 0.83078(15) 0.76195(14)
H3 H 0.0549 0.7691 0.8209
C4 C 0.07673(18) 0.98316(16) 0.77572(15)
H4 H 0.0218 1.0255 0.8426
C5 C 0.13892(18) 1.07308(16) 0.69112(15)
H5 H 0.1291 1.1780 0.7022
C6 C 0.21525(18) 1.01162(15) 0.59057(14)
H6 H 0.2579 1.0749 0.5339
C7 C 0.23010(15) 0.85700(14) 0.57175(13)
C8 C 0.30193(17) 0.85308(15) 0.35922(14)
H7 H 0.2440 0.9366 0.3540
C9 C 0.37885(17) 0.80790(15) 0.24467(13)
C10 C 0.34354(18) 0.87732(17) 0.12888(15)
H8 H 0.2743 0.9521 0.1285
C11 C 0.40937(19) 0.83729(18) 0.01460(15)
H9 H 0.3839 0.8837 -0.0641
C12 C 0.51220(19) 0.72970(17) 0.01517(15)
H10 H 0.5563 0.7017 -0.0633
C13 C 0.55072(19) 0.66276(17) 0.13099(15)
H11 H 0.6223 0.5901 0.1318
C14 C 0.48491(17) 0.70180(15) 0.24509(14)
H12 H 0.5121 0.6562 0.3240
S1A S -0.20966(4) 0.42320(3) 0.34085(3)
N1A N -0.30573(13) 0.21067(12) 0.53287(11)
C1A C -0.02706(15) 0.52735(14) 0.43336(13)
H1A H -0.0402 0.6357 0.4516
H2A H 0.0539 0.5173 0.3757
C2A C -0.17330(15) 0.23221(14) 0.33791(13)
C3A C -0.09543(17) 0.16922(15) 0.23805(14)
H3A H -0.0549 0.2309 0.1791
C4A C -0.07673(18) 0.01684(16) 0.22428(15)
H4A H -0.0218 -0.0255 0.1574
C5A C -0.13892(18) -0.07308(16) 0.30888(15)
H5A H -0.1291 -0.1780 0.2978
C6A C -0.21525(18) -0.01162(15) 0.40943(14)
H6A H -0.2579 -0.0749 0.4661
C7A C -0.23010(15) 0.14300(14) 0.42825(13)
C8A C -0.30193(17) 0.14692(15) 0.64078(14)
H7A H -0.2440 0.0634 0.6460
C9A C -0.37885(17) 0.19210(15) 0.75533(13)
C10A C -0.34354(18) 0.12268(17) 0.87112(15)
H8A H -0.2743 0.0479 0.8715
C11A C -0.40937(19) 0.16271(18) 0.98540(15)
H9A H -0.3839 0.1163 1.0641
C12A C -0.51220(19) 0.27030(17) 0.98483(15)
H10A H -0.5563 0.2983 1.0633
C13A C -0.55072(19) 0.33724(17) 0.86901(15)
H11A H -0.6223 0.4099 0.8682
C14A C -0.48491(17) 0.29820(15) 0.75491(14)
H12A H -0.5121 0.3438 0.6760
Cu1A Cu -0.388366(19) 0.412588(17) 0.488883(16)
I1A I -0.332198(9) 0.670144(9) 0.653081(8)
Cu1_2 Cu -0.611634(19) 0.587412(17) 0.511117(16)
Cu1A_2 Cu 0.611634(19) 0.412588(17) 0.488883(16)
I1_2 I -0.667802(9) 0.329856(9) 0.346919(8)
I1A_2 I 0.667802(9) 0.670144(9) 0.653081(8)
loop_
_geom_bond_atom_site_label_1
_geom_bond_atom_site_label_2
_geom_bond_site_symmetry_1
_geom_bond_site_symmetry_2
Cu1 I1 1_555 1_555
I1 Cu1A_2 1_555 1_555
S1 Cu1 1_555 1_555
N1 Cu1 1_555 1_555
C1 S1 1_555 1_555
H1 C1 1_555 1_555
H2 C1 1_555 1_555
C2 S1 1_555 1_555
C3 C2 1_555 1_555
H3 C3 1_555 1_555
C4 C3 1_555 1_555
H4 C4 1_555 1_555
C5 C4 1_555 1_555
H5 C5 1_555 1_555
C6 C5 1_555 1_555
H6 C6 1_555 1_555
C7 N1 1_555 1_555
C8 N1 1_555 1_555
H7 C8 1_555 1_555
C9 C8 1_555 1_555
C10 C9 1_555 1_555
H8 C10 1_555 1_555
C11 C10 1_555 1_555
H9 C11 1_555 1_555
C12 C11 1_555 1_555
H10 C12 1_555 1_555
C13 C12 1_555 1_555
H11 C13 1_555 1_555
C14 C9 1_555 1_555
H12 C14 1_555 1_555
C15 H13 1_555 1_555
H14 C15 1_555 1_555
Cl1 C15 1_555 1_555
S1A C1A 1_555 1_555
N1A C7A 1_555 1_555
C1A C1 1_555 1_555
H1A C1A 1_555 1_555
H2A C1A 1_555 1_555
C2A S1A 1_555 1_555
C3A C2A 1_555 1_555
H3A C3A 1_555 1_555
C4A C3A 1_555 1_555
H4A C4A 1_555 1_555
C5A C4A 1_555 1_555
H5A C5A 1_555 1_555
C6A C5A 1_555 1_555
H6A C6A 1_555 1_555
C7A C2A 1_555 1_555
C8A N1A 1_555 1_555
H7A C8A 1_555 1_555
C9A C8A 1_555 1_555
C10A C9A 1_555 1_555
H8A C10A 1_555 1_555
C11A C10A 1_555 1_555
H9A C11A 1_555 1_555
C12A C11A 1_555 1_555
H10A C12A 1_555 1_555
C13A C12A 1_555 1_555
H11A C13A 1_555 1_555
C14A C9A 1_555 1_555
H12A C14A 1_555 1_555
Cu1A S1A 1_555 1_555
I1A Cu1A 1_555 1_555
Cu1_2 I1A 1_555 1_555
Cu1A_2 I1A_2 1_555 1_555
I1_2 Cu1A 1_555 1_555
I1A_2 Cu1 1_555 1_555
C15A Cl1 1_555 1_555
H13A C15A 1_555 1_555
H14A C15A 1_555 1_555
Cl1A C15 1_555 1_555
C2 C7 1_555 1_555
C6 C7 1_555 1_555
C13 C14 1_555 1_555
N1A Cu1A 1_555 1_555
C6A C7A 1_555 1_555
C13A C14A 1_555 1_555
Cu1_2 I1_2 1_555 1_555
C15A Cl1A 1_555 1_555

#END
