
#######################################################################
#
#                 Cambridge Crystallographic Data Centre
#                                CCDC 
#
#######################################################################
#
# If this CIF has been generated from an entry in the Cambridge 
# Structural Database, then it will include bibliographic, chemical, 
# crystal, experimental, refinement or atomic coordinate data resulting 
# from the CCDC's data processing and validation procedures.
#
#######################################################################

data_BEZKEX
_symmetry_cell_setting           orthorhombic
_symmetry_space_group_name_H-M   'I b c a'
_symmetry_Int_Tables_number      73
_space_group_name_Hall           '-I 2b 2c'
loop_
_symmetry_equiv_pos_site_id
_symmetry_equiv_pos_as_xyz
1 x,y,z
2 1/2+x,1/2+y,1/2+z
3 x,1/2+y,-z
4 -x,y,1/2+z
5 x,1/2-y,1/2+z
6 1/2+x,y,1/2-z
7 1/2-x,1/2+y,z
8 1/2+x,-y,z
9 -x,-y,-z
10 1/2-x,1/2-y,1/2-z
11 -x,1/2-y,z
12 x,-y,1/2-z
13 -x,1/2+y,1/2-z
14 1/2-x,-y,1/2+z
15 1/2+x,1/2-y,-z
16 1/2-x,y,-z
_cell_length_a                   16.571(3)
_cell_length_b                   26.888(5)
_cell_length_c                   17.525(3)
_cell_angle_alpha                90
_cell_angle_beta                 90
_cell_angle_gamma                90
_cell_volume                     7808.46
loop_
_atom_site_label
_atom_site_type_symbol
_atom_site_fract_x
_atom_site_fract_y
_atom_site_fract_z
Mn1 Mn 0.42037(5) 0.0000 0.2500
Cl1 Cl 0.42325(7) 0.07001(4) 0.15254(6)
N1 N 0.3215(2) 0.04212(15) 0.31589(18)
N2 N 0.5161(2) 0.04074(12) 0.32148(19)
C1 C 0.3174(3) 0.0910(2) 0.3123(3)
H1 H 0.3571 0.1078 0.2850
C2 C 0.2576(3) 0.11877(17) 0.3468(3)
H2 H 0.2576 0.1532 0.3419
C3 C 0.1981(3) 0.0956(2) 0.3883(3)
C4 C 0.2027(3) 0.0446(2) 0.3920(3)
H3 H 0.1640 0.0270 0.4193
C5 C 0.2638(3) 0.01944(17) 0.3558(3)
H4 H 0.2650 -0.0151 0.3593
C6 C 0.5763(3) 0.06612(16) 0.2891(2)
H5 H 0.5801 0.0661 0.2362
C7 C 0.6334(2) 0.09244(16) 0.3303(3)
H6 H 0.6739 0.1096 0.3048
C8 C 0.6307(3) 0.09336(16) 0.4088(3)
C9 C 0.5685(3) 0.06687(15) 0.4425(2)
H7 H 0.5637 0.0662 0.4953
C10 C 0.5135(2) 0.04140(15) 0.3977(2)
H8 H 0.4726 0.0238 0.4219
C11 C 0.6905(3) 0.12280(15) 0.4557(2)
H9 H 0.6610 0.1435 0.4915
H10 H 0.7204 0.1447 0.4220
C12 C 0.7500 0.0909(2) 0.5000
H11 H 0.7207 0.0697 0.5352
H12 H 0.7793 0.0697 0.4648
C13 C 0.1348(8) 0.1217(5) 0.4403(7)
H13 H 0.0835 0.1045 0.4366
H14 H 0.1526 0.1203 0.4930
C14 C 0.1245(7) 0.1762(4) 0.4157(9)
H15 H 0.1068 0.1771 0.3629
H16 H 0.1764 0.1928 0.4185
C15 C 0.0629(10) 0.2047(5) 0.4656(9)
H17 H 0.0547 0.2370 0.4424
H18 H 0.0120 0.1871 0.4625
C16 C 0.0803(9) 0.2127(5) 0.5454(6)
C17 C 0.0366(7) 0.1868(4) 0.6002(8)
H19 H -0.0048 0.1655 0.5854
C18 C 0.0547(8) 0.1928(5) 0.6771(7)
H20 H 0.0254 0.1755 0.7138
N3 N 0.1165(9) 0.2246(6) 0.6992(6)
C19 C 0.1602(8) 0.2505(5) 0.6444(10)
H21 H 0.2016 0.2718 0.6591
C20 C 0.1421(8) 0.2446(5) 0.5675(8)
H22 H 0.1714 0.2619 0.5308
C11O C 0.8095(3) 0.12280(15) 0.5443(2)
C8O C 0.8693(3) 0.09336(16) 0.5912(3)
C7O C 0.8666(2) 0.09244(16) 0.6697(3)
C6O C 0.9237(3) 0.06612(16) 0.7109(2)
N2O N 0.9839(2) 0.04074(12) 0.67852(19)
C10O C 0.9865(2) 0.04140(15) 0.6023(2)
C9O C 0.9315(3) 0.06687(15) 0.5575(2)
H7O H 0.9363 0.0662 0.5047
H8O H 1.0274 0.0238 0.5781
H5O H 0.9199 0.0661 0.7638
H6O H 0.8261 0.1096 0.6952
H9O H 0.8390 0.1435 0.5085
H10O H 0.7796 0.1447 0.5780
Cl1K Cl 0.42325(7) -0.07001(4) 0.34746(6)
N1K N 0.3215(2) -0.04212(15) 0.18411(18)
C1K C 0.3174(3) -0.0910(2) 0.1877(3)
H1K H 0.3571 -0.1078 0.2150
C2K C 0.2576(3) -0.11877(17) 0.1532(3)
H2K H 0.2576 -0.1532 0.1581
C3K C 0.1981(3) -0.0956(2) 0.1117(3)
C4K C 0.2027(3) -0.0446(2) 0.1080(3)
H3K H 0.1640 -0.0270 0.0807
C5K C 0.2638(3) -0.01944(17) 0.1442(3)
H4K H 0.2650 0.0151 0.1407
C13K C 0.1348(8) -0.1217(5) 0.0597(7)
H13K H 0.0835 -0.1045 0.0634
H14K H 0.1526 -0.1203 0.0070
C14K C 0.1245(7) -0.1762(4) 0.0843(9)
H15K H 0.1068 -0.1771 0.1371
H16K H 0.1764 -0.1928 0.0815
C15K C 0.0629(10) -0.2047(5) 0.0344(9)
H17K H 0.0547 -0.2370 0.0576
H18K H 0.0120 -0.1871 0.0375
C16K C 0.0803(9) -0.2127(5) -0.0454(6)
C17K C 0.0366(7) -0.1868(4) -0.1002(8)
H19K H -0.0048 -0.1655 -0.0854
C18K C 0.0547(8) -0.1928(5) -0.1771(7)
H20K H 0.0254 -0.1755 -0.2138
N3K N 0.1165(9) -0.2246(6) -0.1992(6)
C19K C 0.1602(8) -0.2505(5) -0.1444(10)
H21K H 0.2016 -0.2718 -0.1591
C20K C 0.1421(8) -0.2446(5) -0.0675(8)
H22K H 0.1714 -0.2619 -0.0308
N2K N 0.5161(2) -0.04074(12) 0.17852(19)
Mn1M Mn 1.07963(5) 0.0000 0.7500
O1 O 0.3524(3) 0.18849(16) 0.1341(3)
C21? C 0.1212(12) 0.1292(10) 0.4023(12)
H23? H 0.1160 0.1542 0.3628
H24? H 0.0725 0.1092 0.4034
C22? C 0.1370(8) 0.1531(9) 0.4797(8)
H25? H 0.1871 0.1716 0.4766
H26? H 0.1445 0.1268 0.5169
C23? C 0.0705(14) 0.1884(8) 0.5092(16)
H27? H 0.0677 0.2173 0.4760
H28? H 0.0188 0.1715 0.5066
C24? C 0.0841(12) 0.2047(7) 0.5859(8)
C25? C 0.0352(11) 0.1865(8) 0.6440(13)
H29? H -0.0077 0.1655 0.6325
C26? C 0.0506(14) 0.1996(9) 0.7193(10)
H30? H 0.0179 0.1874 0.7582
N4? N 0.1148(17) 0.2309(9) 0.7366(7)
C27? C 0.1636(13) 0.2491(7) 0.6784(10)
H31? H 0.2066 0.2701 0.6900
C28? C 0.1483(11) 0.2360(6) 0.6031(8)
H32? H 0.1809 0.2482 0.5642
loop_
_geom_bond_atom_site_label_1
_geom_bond_atom_site_label_2
_geom_bond_site_symmetry_1
_geom_bond_site_symmetry_2
Mn1 Cl1 1_555 1_555
N1 Mn1 1_555 1_555
N2 Mn1 1_555 1_555
C1 N1 1_555 1_555
H1 C1 1_555 1_555
C2 C1 1_555 1_555
H2 C2 1_555 1_555
C3 C2 1_555 1_555
C4 C3 1_555 1_555
H3 C4 1_555 1_555
C5 N1 1_555 1_555
H4 C5 1_555 1_555
C6 N2 1_555 1_555
H5 C6 1_555 1_555
C7 C6 1_555 1_555
H6 C7 1_555 1_555
C8 C7 1_555 1_555
C9 C8 1_555 1_555
H7 C9 1_555 1_555
C10 N2 1_555 1_555
H8 C10 1_555 1_555
C11 C8 1_555 1_555
H9 C11 1_555 1_555
H10 C11 1_555 1_555
C12 C11 1_555 1_555
H11 C12 1_555 1_555
H12 C12 1_555 1_555
C13 C3 1_555 1_555
H13 C13 1_555 1_555
H14 C13 1_555 1_555
C14 C13 1_555 1_555
H15 C14 1_555 1_555
H16 C14 1_555 1_555
C15 C14 1_555 1_555
H17 C15 1_555 1_555
H18 C15 1_555 1_555
C16 C15 1_555 1_555
C17 C16 1_555 1_555
H19 C17 1_555 1_555
C18 C17 1_555 1_555
H20 C18 1_555 1_555
N3 C18 1_555 1_555
C19 N3 1_555 1_555
H21 C19 1_555 1_555
C20 C16 1_555 1_555
H22 C20 1_555 1_555
C11O C12 1_555 1_555
C8O C11O 1_555 1_555
C7O C8O 1_555 1_555
C6O C7O 1_555 1_555
N2O C6O 1_555 1_555
C10O N2O 1_555 1_555
C9O C8O 1_555 1_555
H7O C9O 1_555 1_555
H8O C10O 1_555 1_555
H5O C6O 1_555 1_555
H6O C7O 1_555 1_555
H9O C11O 1_555 1_555
H10O C11O 1_555 1_555
Cl1K Mn1 1_555 1_555
N1K Mn1 1_555 1_555
C1K N1K 1_555 1_555
H1K C1K 1_555 1_555
C2K C1K 1_555 1_555
H2K C2K 1_555 1_555
C3K C2K 1_555 1_555
C4K C3K 1_555 1_555
H3K C4K 1_555 1_555
C5K N1K 1_555 1_555
H4K C5K 1_555 1_555
C13K C3K 1_555 1_555
H13K C13K 1_555 1_555
H14K C13K 1_555 1_555
C14K C13K 1_555 1_555
H15K C14K 1_555 1_555
H16K C14K 1_555 1_555
C15K C14K 1_555 1_555
H17K C15K 1_555 1_555
H18K C15K 1_555 1_555
C16K C15K 1_555 1_555
C17K C16K 1_555 1_555
H19K C17K 1_555 1_555
C18K C17K 1_555 1_555
H20K C18K 1_555 1_555
N3K C18K 1_555 1_555
C19K N3K 1_555 1_555
H21K C19K 1_555 1_555
C20K C16K 1_555 1_555
H22K C20K 1_555 1_555
N2K Mn1 1_555 1_555
Mn1M N2O 1_555 1_555
C4 C5 1_555 1_555
C9 C10 1_555 1_555
C19 C20 1_555 1_555
C10O C9O 1_555 1_555
C4K C5K 1_555 1_555
C19K C20K 1_555 1_555

#END
