
#######################################################################
#
#                 Cambridge Crystallographic Data Centre
#                                CCDC 
#
#######################################################################
#
# If this CIF has been generated from an entry in the Cambridge 
# Structural Database, then it will include bibliographic, chemical, 
# crystal, experimental, refinement or atomic coordinate data resulting 
# from the CCDC's data processing and validation procedures.
#
#######################################################################

data_BEZKOI01
_symmetry_cell_setting           monoclinic
_symmetry_space_group_name_H-M   'P 21/c'
_symmetry_Int_Tables_number      14
_space_group_name_Hall           '-P 2ybc'
loop_
_symmetry_equiv_pos_site_id
_symmetry_equiv_pos_as_xyz
1 x,y,z
2 -x,1/2+y,1/2-z
3 -x,-y,-z
4 x,1/2-y,1/2+z
_cell_length_a                   5.2240(10)
_cell_length_b                   8.8026(18)
_cell_length_c                   20.434(4)
_cell_angle_alpha                90
_cell_angle_beta                 96.91(3)
_cell_angle_gamma                90
_cell_volume                     932.828
loop_
_atom_site_label
_atom_site_type_symbol
_atom_site_fract_x
_atom_site_fract_y
_atom_site_fract_z
Cd1 Cd 1.5000 0.5000 0.5000
O1 O 1.1750(10) 0.4964(8) 0.4139(2)
O2 O 0.7978(10) 0.3980(6) 0.4330(2)
N1 N 0.4238(11) 0.2368(7) 0.0371(3)
N2 N 0.4693(12) 0.4553(6) 0.0866(3)
N3 N 0.2206(13) 0.4529(8) 0.0572(3)
C1 C 0.2004(14) 0.3181(9) 0.0285(4)
H1 H 0.0491 0.2824 0.0049
C2 C 0.5826(14) 0.3266(8) 0.0740(3)
H2 H 0.7527 0.3024 0.0892
C3 C 0.5753(18) 0.5893(8) 0.1223(3)
H3 H 0.4451 0.6683 0.1192
H4 H 0.7205 0.6268 0.1016
C4 C 0.6632(14) 0.5570(8) 0.1944(3)
C5 C 0.5224(14) 0.4673(8) 0.2320(3)
H5 H 0.3704 0.4222 0.2130
C6 C 0.8898(15) 0.6236(9) 0.2232(3)
H6 H 0.9832 0.6868 0.1984
C7 C 0.9776(14) 0.5961(9) 0.2890(3)
H7 H 1.1327 0.6384 0.3075
C8 C 0.6068(13) 0.4441(9) 0.2984(3)
H8 H 0.5079 0.3859 0.3239
C9 C 0.8377(12) 0.5070(8) 0.3272(3)
C10 C 0.9432(13) 0.4641(7) 0.3980(3)
O1B O 0.8250(10) 0.5036(8) 0.5861(2)
O2B O 1.2022(10) 0.6020(6) 0.5670(2)
N1B N 1.5762(11) 0.7632(7) 0.9629(3)
N2B N 1.5307(12) 0.5447(6) 0.9134(3)
N3B N 1.7794(13) 0.5471(8) 0.9428(3)
C1B C 1.7996(14) 0.6819(9) 0.9715(4)
H1B H 1.9509 0.7176 0.9951
C2B C 1.4174(14) 0.6734(8) 0.9260(3)
H2B H 1.2473 0.6976 0.9108
C3B C 1.4247(18) 0.4107(8) 0.8777(3)
H3B H 1.5549 0.3317 0.8808
H4B H 1.2795 0.3732 0.8984
C4B C 1.3368(14) 0.4430(8) 0.8056(3)
C5B C 1.4776(14) 0.5327(8) 0.7680(3)
H5B H 1.6296 0.5778 0.7870
C6B C 1.1102(15) 0.3764(9) 0.7768(3)
H6B H 1.0168 0.3132 0.8016
C7B C 1.0224(14) 0.4039(9) 0.7110(3)
H7B H 0.8673 0.3616 0.6925
C8B C 1.3932(13) 0.5559(9) 0.7016(3)
H8B H 1.4921 0.6141 0.6761
C9B C 1.1623(12) 0.4930(8) 0.6728(3)
C10B C 1.0568(13) 0.5359(7) 0.6020(3)
Cd1_2 Cd 0.5000 0.5000 0.5000
Cd1A Cd 0.5000 0.0000 0.0000
Cd1A_2 Cd 1.5000 1.0000 1.0000
O1B_2 O 1.8250(10) 0.5036(8) 0.5861(2)
O2_2 O 1.7978(10) 0.3980(6) 0.4330(2)
N1A N 1.5762(11) 0.7368(7) 0.4629(3)
N1C N 1.4238(11) 0.2632(7) 0.5371(3)
loop_
_geom_bond_atom_site_label_1
_geom_bond_atom_site_label_2
_geom_bond_site_symmetry_1
_geom_bond_site_symmetry_2
Cd1 O1 1_555 1_555
O1 C10 1_555 1_555
O2 C10 1_555 1_555
N1 C1 1_555 1_555
N2 N3 1_555 1_555
N3 C1 1_555 1_555
C1 H1 1_555 1_555
C2 N1 1_555 1_555
H2 C2 1_555 1_555
C3 N2 1_555 1_555
H3 C3 1_555 1_555
H4 C3 1_555 1_555
C4 C3 1_555 1_555
C5 C4 1_555 1_555
H5 C5 1_555 1_555
C6 C4 1_555 1_555
H6 C6 1_555 1_555
C7 C6 1_555 1_555
H7 C7 1_555 1_555
C8 C5 1_555 1_555
H8 C8 1_555 1_555
C9 C7 1_555 1_555
C10 C9 1_555 1_555
O1B C10B 1_555 1_555
O2B Cd1 1_555 1_555
N1B C1B 1_555 1_555
N2B N3B 1_555 1_555
N3B C1B 1_555 1_555
C1B H1B 1_555 1_555
C2B N1B 1_555 1_555
H2B C2B 1_555 1_555
C3B N2B 1_555 1_555
H3B C3B 1_555 1_555
H4B C3B 1_555 1_555
C4B C3B 1_555 1_555
C5B C4B 1_555 1_555
H5B C5B 1_555 1_555
C6B C4B 1_555 1_555
H6B C6B 1_555 1_555
C7B C6B 1_555 1_555
H7B C7B 1_555 1_555
C8B C5B 1_555 1_555
H8B C8B 1_555 1_555
C9B C7B 1_555 1_555
C10B O2B 1_555 1_555
Cd1_2 O2 1_555 1_555
Cd1A N1 1_555 1_555
Cd1A_2 N1B 1_555 1_555
O1B_2 Cd1 1_555 1_555
O2_2 Cd1 1_555 1_555
N1A Cd1 1_555 1_555
N1C Cd1 1_555 1_555
N2 C2 1_555 1_555
C8 C9 1_555 1_555
O1B Cd1_2 1_555 1_555
N2B C2B 1_555 1_555
C8B C9B 1_555 1_555
C9B C10B 1_555 1_555

#END
