
#######################################################################
#
#                 Cambridge Crystallographic Data Centre
#                                CCDC 
#
#######################################################################
#
# If this CIF has been generated from an entry in the Cambridge 
# Structural Database, then it will include bibliographic, chemical, 
# crystal, experimental, refinement or atomic coordinate data resulting 
# from the CCDC's data processing and validation procedures.
#
#######################################################################

data_BEZNIF
_symmetry_cell_setting           triclinic
_symmetry_space_group_name_H-M   'P -1'
_symmetry_Int_Tables_number      2
_space_group_name_Hall           '-P 1'
loop_
_symmetry_equiv_pos_site_id
_symmetry_equiv_pos_as_xyz
1 x,y,z
2 -x,-y,-z
_cell_length_a                   10.2178(13)
_cell_length_b                   13.850(3)
_cell_length_c                   14.917(2)
_cell_angle_alpha                109.868(3)
_cell_angle_beta                 108.488(2)
_cell_angle_gamma                100.133(3)
_cell_volume                     1785.1
loop_
_atom_site_label
_atom_site_type_symbol
_atom_site_fract_x
_atom_site_fract_y
_atom_site_fract_z
Co1 Co 1.79938(9) 1.52792(7) 1.58366(7)
O1 O 1.5992(10) 1.6731(6) 1.5731(5)
O2 O 1.7041(7) 1.5817(5) 1.4858(5)
O3 O 1.3534(11) 1.8986(8) 1.4339(9)
O4 O 1.3945(11) 1.9337(8) 1.3142(8)
O5 O 1.6907(12) 1.6003(7) 1.1633(7)
O6 O 1.6285(13) 1.7267(7) 1.1268(6)
O7 O 2.0024(9) 1.3813(5) 1.5913(5)
O8 O 1.7962(7) 1.3880(5) 1.4923(5)
O9 O 1.9596(12) 0.9045(7) 1.3338(8)
O10 O 2.1246(10) 1.0456(8) 1.4622(8)
O11 O 1.4626(9) 1.0784(7) 1.1781(7)
O12 O 1.5111(10) 0.9284(6) 1.1300(6)
N1 N 1.7183(6) 1.5129(4) 1.6880(4)
N2 N 1.6326(6) 1.5703(4) 1.8088(4)
N3 N 1.2220(6) 1.7096(4) 1.8069(4)
N4 N 0.9934(6) 1.6408(4) 1.6877(4)
N5 N 1.4051(11) 1.8883(8) 1.3708(8)
N6 N 1.6479(10) 1.6762(6) 1.1816(6)
N7 N 2.0055(12) 1.0007(7) 1.3928(8)
N8 N 1.5391(10) 1.0210(7) 1.1901(6)
C1 C 1.9581(11) 1.2870(8) 1.8432(9)
H1 H 1.9839 1.2689 1.7844
H2 H 1.9003 1.2224 1.8401
H3 H 2.0450 1.3203 1.9065
C2 C 1.8547(10) 1.3671(8) 2.0064(8)
H4 H 1.8274 1.4089 2.0593
H5 H 1.9571 1.3776 2.0360
H6 H 1.8014 1.2918 1.9794
C3 C 1.7633(6) 1.4677(5) 1.7576(5)
C4 C 1.8456(7) 1.3982(6) 1.7617(6)
H7 H 1.8824 1.3747 1.7114
C5 C 1.8723(8) 1.3645(6) 1.8407(6)
C6 C 1.8202(7) 1.4032(6) 1.9192(6)
C7 C 1.7392(7) 1.4726(6) 1.9163(5)
H8 H 1.7048 1.4980 1.9676
C8 C 1.7104(7) 1.5033(5) 1.8350(5)
C9 C 1.6413(7) 1.5726(5) 1.7215(5)
H9 H 1.5979 1.6117 1.6882
C10 C 1.5644(8) 1.6327(6) 1.8689(6)
H10 H 1.6337 1.7042 1.9160
H11 H 1.5418 1.5978 1.9110
C11 C 1.4312(10) 1.6445(8) 1.8057(6)
H12 H 1.3591 1.5734 1.7624
H13 H 1.4520 1.6743 1.7597
C12 C 1.3685(8) 1.7147(7) 1.8673(6)
H14 H 1.3666 1.6941 1.9230
H15 H 1.4317 1.7890 1.8992
C13 C 1.1186(7) 1.6233(5) 1.7243(5)
H16 H 1.1334 1.5574 1.6955
C14 C 0.9272(8) 1.8120(6) 1.7511(6)
H17 H 0.8308 1.7827 1.7027
C15 C 1.0173(7) 1.7484(5) 1.7521(5)
C16 C 1.1616(7) 1.7929(5) 1.8294(5)
C17 C 1.2157(8) 1.8994(6) 1.9032(5)
H18 H 1.3102 1.9275 1.9544
C18 C 1.1249(9) 1.9631(6) 1.8983(6)
C19 C 0.9816(9) 1.9206(6) 1.8231(6)
C20 C 0.8825(11) 1.9902(8) 1.8181(8)
H19 H 0.7917 1.9494 1.7585
H20 H 0.9282 2.0532 1.8122
H21 H 0.8649 2.0121 1.8804
C21 C 1.1869(12) 2.0819(7) 1.9730(8)
H22 H 1.2865 2.0979 2.0181
H23 H 1.1314 2.0982 2.0142
H24 H 1.1821 2.1250 1.9342
C22 C 1.4885(8) 1.8109(7) 1.3599(6)
C23 C 1.5186(8) 1.7666(6) 1.4314(6)
H25 H 1.4861 1.7845 1.4846
C24 C 1.5980(7) 1.6951(6) 1.4223(6)
C25 C 1.6435(8) 1.6677(6) 1.3417(6)
H26 H 1.6975 1.6201 1.3351
C26 C 1.6072(9) 1.7125(6) 1.2713(6)
C27 C 1.5304(9) 1.7831(6) 1.2787(6)
H27 H 1.5070 1.8119 1.2300
C28 C 1.6304(9) 1.6466(7) 1.5007(6)
C29 C 1.6768(9) 1.0712(6) 1.2830(6)
C30 C 1.7700(10) 1.0117(6) 1.2931(6)
H28 H 1.7455 0.9407 1.2450
C31 C 1.9007(10) 1.0623(6) 1.3778(7)
C32 C 1.9408(9) 1.1659(6) 1.4486(6)
H29 H 2.0318 1.1973 1.5041
C33 C 1.8449(8) 1.2251(6) 1.4376(6)
C34 C 1.7118(9) 1.1777(6) 1.3543(6)
H30 H 1.6461 1.2160 1.3457
C35 C 1.8912(10) 1.3414(6) 1.5157(6)
Co1_2 Co 0.79938(9) 1.52792(7) 1.58366(7)
N4_2 N 1.9934(6) 1.6408(4) 1.6877(4)
loop_
_geom_bond_atom_site_label_1
_geom_bond_atom_site_label_2
_geom_bond_site_symmetry_1
_geom_bond_site_symmetry_2
Co1 O2 1_555 1_555
O1 C28 1_555 1_555
O2 C28 1_555 1_555
O3 N5 1_555 1_555
O4 N5 1_555 1_555
O5 N6 1_555 1_555
O6 N6 1_555 1_555
O7 C35 1_555 1_555
O8 Co1 1_555 1_555
O9 N7 1_555 1_555
O10 N7 1_555 1_555
O11 N8 1_555 1_555
O12 N8 1_555 1_555
N1 Co1 1_555 1_555
N2 C8 1_555 1_555
N3 C12 1_555 1_555
N4 C13 1_555 1_555
N5 C22 1_555 1_555
N6 C26 1_555 1_555
N7 C31 1_555 1_555
N8 C29 1_555 1_555
C1 H1 1_555 1_555
H2 C1 1_555 1_555
H3 C1 1_555 1_555
C2 H4 1_555 1_555
H5 C2 1_555 1_555
H6 C2 1_555 1_555
C3 N1 1_555 1_555
C4 C3 1_555 1_555
H7 C4 1_555 1_555
C5 C1 1_555 1_555
C6 C2 1_555 1_555
C7 C6 1_555 1_555
H8 C7 1_555 1_555
C8 C3 1_555 1_555
C9 N1 1_555 1_555
H9 C9 1_555 1_555
C10 N2 1_555 1_555
H10 C10 1_555 1_555
H11 C10 1_555 1_555
C11 C10 1_555 1_555
H12 C11 1_555 1_555
H13 C11 1_555 1_555
C12 C11 1_555 1_555
H14 C12 1_555 1_555
H15 C12 1_555 1_555
C13 N3 1_555 1_555
H16 C13 1_555 1_555
C14 H17 1_555 1_555
C15 N4 1_555 1_555
C16 N3 1_555 1_555
C17 C16 1_555 1_555
H18 C17 1_555 1_555
C18 C17 1_555 1_555
C19 C14 1_555 1_555
C20 C19 1_555 1_555
H19 C20 1_555 1_555
H20 C20 1_555 1_555
H21 C20 1_555 1_555
C21 C18 1_555 1_555
H22 C21 1_555 1_555
H23 C21 1_555 1_555
H24 C21 1_555 1_555
C22 C23 1_555 1_555
C23 H25 1_555 1_555
C24 C23 1_555 1_555
C25 C24 1_555 1_555
H26 C25 1_555 1_555
C26 C25 1_555 1_555
C27 C22 1_555 1_555
H27 C27 1_555 1_555
C28 C24 1_555 1_555
C29 C30 1_555 1_555
C30 H28 1_555 1_555
C31 C30 1_555 1_555
C32 C31 1_555 1_555
H29 C32 1_555 1_555
C33 C32 1_555 1_555
C34 C29 1_555 1_555
H30 C34 1_555 1_555
C35 O8 1_555 1_555
Co1_2 N4 1_555 1_555
N4_2 Co1 1_555 1_555
N2 C9 1_555 1_555
C4 C5 1_555 1_555
C5 C6 1_555 1_555
C7 C8 1_555 1_555
C14 C15 1_555 1_555
C15 C16 1_555 1_555
C18 C19 1_555 1_555
C26 C27 1_555 1_555
C33 C34 1_555 1_555
C33 C35 1_555 1_555

#END
