
#######################################################################
#
#                 Cambridge Crystallographic Data Centre
#                                CCDC 
#
#######################################################################
#
# If this CIF has been generated from an entry in the Cambridge 
# Structural Database, then it will include bibliographic, chemical, 
# crystal, experimental, refinement or atomic coordinate data resulting 
# from the CCDC's data processing and validation procedures.
#
#######################################################################

data_BEZSEG01
_symmetry_cell_setting           monoclinic
_symmetry_space_group_name_H-M   'C 2'
_symmetry_Int_Tables_number      5
_space_group_name_Hall           'C 2y'
loop_
_symmetry_equiv_pos_site_id
_symmetry_equiv_pos_as_xyz
1 x,y,z
2 -x,y,-z
3 1/2+x,1/2+y,z
4 1/2-x,1/2+y,-z
_cell_length_a                   7.5792(15)
_cell_length_b                   5.9757(12)
_cell_length_c                   6.2620(12)
_cell_angle_alpha                90
_cell_angle_beta                 108.449(2)
_cell_angle_gamma                90
_cell_volume                     269.036
loop_
_atom_site_label
_atom_site_type_symbol
_atom_site_fract_x
_atom_site_fract_y
_atom_site_fract_z
Co1 Co 0.0000 0.1128 0.0000
O1 O 0.2109(6) -0.0904(8) 0.0980(8)
O2 O 0.5038(6) -0.1939(10) 0.2505(7)
C1 C 0.3695(8) -0.0667(11) 0.2438(10)
C2 C 0.4028(7) 0.121(2) 0.4148(8)
H1 H 0.3126 0.1093 0.4949
H2 H 0.3821 0.2633 0.3356
O1A O 0.7891(6) -0.0904(8) 0.9020(8)
C1A C 0.6305(8) -0.0667(11) 0.7562(10)
C2A C 0.5972(7) 0.121(2) 0.5852(8)
H1A H 0.6874 0.1093 0.5051
H2A H 0.6179 0.2633 0.6644
O2A O 0.4962(6) -0.1939(10) 0.7495(7)
Co1_2 Co 1.0000 0.1128 1.0000
Co1B Co 0.5000 -0.3872 0.0000
Co1B_2 Co 0.5000 -0.3872 1.0000
O1A_2 O -0.2109(6) -0.0904(8) -0.0980(8)
O2B O 0.0038(6) 0.3061(10) 0.2505(7)
O2C O -0.0038(6) 0.3061(10) -0.2505(7)
loop_
_geom_bond_atom_site_label_1
_geom_bond_atom_site_label_2
_geom_bond_site_symmetry_1
_geom_bond_site_symmetry_2
Co1 O1 1_555 1_555
O1 C1 1_555 1_555
O2 C1 1_555 1_555
C1 C2 1_555 1_555
C2 H1 1_555 1_555
H2 C2 1_555 1_555
O1A C1A 1_555 1_555
C1A C2A 1_555 1_555
C2A C2 1_555 1_555
H1A C2A 1_555 1_555
H2A C2A 1_555 1_555
O2A C1A 1_555 1_555
Co1_2 O1A 1_555 1_555
Co1B O2 1_555 1_555
Co1B_2 O2A 1_555 1_555
O1A_2 Co1 1_555 1_555
O2B Co1 1_555 1_555
O2C Co1 1_555 1_555

#END
