
#######################################################################
#
#                 Cambridge Crystallographic Data Centre
#                                CCDC 
#
#######################################################################
#
# If this CIF has been generated from an entry in the Cambridge 
# Structural Database, then it will include bibliographic, chemical, 
# crystal, experimental, refinement or atomic coordinate data resulting 
# from the CCDC's data processing and validation procedures.
#
#######################################################################

data_BEZTUX
_symmetry_cell_setting           triclinic
_symmetry_space_group_name_H-M   'P -1'
_symmetry_Int_Tables_number      2
_space_group_name_Hall           '-P 1'
loop_
_symmetry_equiv_pos_site_id
_symmetry_equiv_pos_as_xyz
1 x,y,z
2 -x,-y,-z
_cell_length_a                   7.7667(4)
_cell_length_b                   8.2376(4)
_cell_length_c                   12.2411(6)
_cell_angle_alpha                92.5260(10)
_cell_angle_beta                 93.7820(10)
_cell_angle_gamma                109.7160(10)
_cell_volume                     733.819
loop_
_atom_site_label
_atom_site_type_symbol
_atom_site_fract_x
_atom_site_fract_y
_atom_site_fract_z
Cu1 Cu 0.57506(5) 0.59877(5) 0.92348(3)
Cu2 Cu -0.39048(4) 0.55693(5) 0.58811(3)
I1 I 0.37672(3) 0.69379(3) 1.057767(15)
I2 I -0.40199(2) 0.77302(2) 0.437411(14)
S1 S 0.46690(8) 0.63912(8) 0.73502(5)
N1 N 0.7985(3) 0.7912(3) 0.87786(19)
N2 N -0.1253(3) 0.5839(3) 0.62959(19)
C1 C 0.9714(4) 0.8108(4) 0.9167(2)
H1 H 0.9894 0.7344 0.9674
C2 C 1.1229(4) 0.9386(4) 0.8851(3)
H2 H 1.2414 0.9500 0.9150
C3 C 1.0986(4) 1.0493(4) 0.8092(3)
H3 H 1.1998 1.1377 0.7867
C4 C 0.9213(4) 1.0275(4) 0.7664(3)
H4 H 0.9013 1.0992 0.7130
C5 C 0.7751(4) 0.8998(3) 0.8032(2)
C6 C 0.5797(4) 0.8716(4) 0.7603(2)
H5 H 0.5773 0.9295 0.6923
H6 H 0.5177 0.9179 0.8145
C7 C 0.0139(4) 0.7075(4) 0.5914(2)
H7 H -0.0136 0.7823 0.5427
C8 C 0.1970(4) 0.7308(4) 0.6201(2)
H8 H 0.2909 0.8177 0.5904
C9 C 0.2386(3) 0.6237(3) 0.6934(2)
C10 C 0.0962(4) 0.4964(4) 0.7341(2)
H9 H 0.1200 0.4221 0.7844
C11 C -0.0827(4) 0.4804(4) 0.6991(3)
H10 H -0.1790 0.3919 0.7259
Cu1A Cu 0.42494(5) 0.40123(5) 1.07652(3)
Cu2_2 Cu 0.60952(4) 0.55693(5) 0.58811(3)
Cu2A Cu -0.60952(4) 0.44307(5) 0.41189(3)
I1A I 0.62328(3) 0.30621(3) 0.942233(15)
I2A I -0.59801(2) 0.22698(2) 0.562589(14)
S1_2 S -0.53310(8) 0.63912(8) 0.73502(5)
loop_
_geom_bond_atom_site_label_1
_geom_bond_atom_site_label_2
_geom_bond_site_symmetry_1
_geom_bond_site_symmetry_2
Cu1 I1 1_555 1_555
Cu2 I2 1_555 1_555
I1 Cu1A 1_555 1_555
I2 Cu2A 1_555 1_555
S1 Cu1 1_555 1_555
N1 Cu1 1_555 1_555
N2 Cu2 1_555 1_555
C1 N1 1_555 1_555
H1 C1 1_555 1_555
C2 C1 1_555 1_555
H2 C2 1_555 1_555
C3 C2 1_555 1_555
H3 C3 1_555 1_555
C4 C3 1_555 1_555
H4 C4 1_555 1_555
C5 N1 1_555 1_555
C6 S1 1_555 1_555
H5 C6 1_555 1_555
H6 C6 1_555 1_555
C7 N2 1_555 1_555
H7 C7 1_555 1_555
C8 C7 1_555 1_555
H8 C8 1_555 1_555
C9 S1 1_555 1_555
C10 C9 1_555 1_555
H9 C10 1_555 1_555
C11 N2 1_555 1_555
H10 C11 1_555 1_555
Cu1A I1A 1_555 1_555
Cu2_2 S1 1_555 1_555
Cu2A I2A 1_555 1_555
I1A Cu1 1_555 1_555
I2A Cu2 1_555 1_555
S1_2 Cu2 1_555 1_555
C4 C5 1_555 1_555
C5 C6 1_555 1_555
C8 C9 1_555 1_555
C10 C11 1_555 1_555

#END
