
#######################################################################
#
#                 Cambridge Crystallographic Data Centre
#                                CCDC 
#
#######################################################################
#
# If this CIF has been generated from an entry in the Cambridge 
# Structural Database, then it will include bibliographic, chemical, 
# crystal, experimental, refinement or atomic coordinate data resulting 
# from the CCDC's data processing and validation procedures.
#
#######################################################################

data_BEZXOU01
_symmetry_cell_setting           monoclinic
_symmetry_space_group_name_H-M   'P 21/c'
_symmetry_Int_Tables_number      14
_space_group_name_Hall           '-P 2ybc'
loop_
_symmetry_equiv_pos_site_id
_symmetry_equiv_pos_as_xyz
1 x,y,z
2 -x,1/2+y,1/2-z
3 -x,-y,-z
4 x,1/2-y,1/2+z
_cell_length_a                   8.1971(7)
_cell_length_b                   16.6417(14)
_cell_length_c                   11.6081(10)
_cell_angle_alpha                90.00
_cell_angle_beta                 100.6770(10)
_cell_angle_gamma                90.00
_cell_volume                     1556.09
loop_
_atom_site_label
_atom_site_type_symbol
_atom_site_fract_x
_atom_site_fract_y
_atom_site_fract_z
Zn1 Zn 0.15070(4) 0.29832(2) 0.07879(3)
O1 O 0.1086(4) 0.44559(15) -0.0366(2)
O2 O 0.2726(3) 0.34122(12) -0.03924(17)
O3 O 0.3019(3) 0.29163(13) -0.3653(2)
O4 O 0.0909(3) 0.32965(14) -0.2853(2)
N1 N -0.0811(3) 0.27591(19) -0.0090(3)
N2 N -0.2100(5) 0.2509(4) 0.0310(5)
H1 H -0.2077 0.2312 0.0997
N3 N 0.1279(3) 0.36833(15) 0.2156(2)
N4 N 0.1487(4) 0.3521(2) 0.3298(3)
H2 H 0.1840 0.3071 0.3614
C1 C 0.2215(4) 0.41039(17) -0.0737(2)
C2 C 0.3080(4) 0.45168(16) -0.1592(2)
C3 C 0.3257(4) 0.41520(17) -0.2647(2)
C4 C 0.4157(4) 0.4545(2) -0.3382(3)
H3 H 0.4321 0.4299 -0.4070
C5 C 0.4808(5) 0.5299(3) -0.3093(4)
H4 H 0.5405 0.5556 -0.3592
C6 C 0.4590(5) 0.5671(2) -0.2090(3)
H5 H 0.5007 0.6186 -0.1919
C7 C 0.3748(4) 0.5283(2) -0.1327(3)
H6 H 0.3623 0.5532 -0.0631
C8 C -0.3543(5) 0.2609(5) -0.0551(6)
H7 H -0.4631 0.2488 -0.0489
C9 C -0.3022(7) 0.2906(4) -0.1442(6)
H8 H -0.3697 0.3039 -0.2152
C10 C -0.1386(5) 0.2994(2) -0.1203(4)
H9 H -0.0739 0.3187 -0.1721
C11 C 0.1053(5) 0.4180(2) 0.3905(3)
H10 H 0.1072 0.4222 0.4707
C12 C 0.0591(5) 0.4754(2) 0.3072(3)
H11 H 0.0238 0.5272 0.3201
C13 C 0.0734(4) 0.44456(16) 0.2047(2)
H12 H 0.0489 0.4721 0.1340
C14 C 0.2322(4) 0.33982(18) -0.3061(2)
Zn1C Zn 0.15070(4) 0.20168(2) -0.42121(3)
O3C O 0.3019(3) 0.20837(13) 0.1347(2)
loop_
_geom_bond_atom_site_label_1
_geom_bond_atom_site_label_2
_geom_bond_site_symmetry_1
_geom_bond_site_symmetry_2
Zn1 O2 1_555 1_555
O1 C1 1_555 1_555
O2 C1 1_555 1_555
O3 C14 1_555 1_555
O4 C14 1_555 1_555
N1 Zn1 1_555 1_555
N2 N1 1_555 1_555
H1 N2 1_555 1_555
N3 Zn1 1_555 1_555
N4 N3 1_555 1_555
H2 N4 1_555 1_555
C1 C2 1_555 1_555
C2 C3 1_555 1_555
C3 C4 1_555 1_555
C4 H3 1_555 1_555
C5 C4 1_555 1_555
H4 C5 1_555 1_555
C6 C5 1_555 1_555
H5 C6 1_555 1_555
C7 C2 1_555 1_555
H6 C7 1_555 1_555
C8 N2 1_555 1_555
H7 C8 1_555 1_555
C9 C8 1_555 1_555
H8 C9 1_555 1_555
C10 N1 1_555 1_555
H9 C10 1_555 1_555
C11 N4 1_555 1_555
H10 C11 1_555 1_555
C12 C11 1_555 1_555
H11 C12 1_555 1_555
C13 N3 1_555 1_555
H12 C13 1_555 1_555
C14 C3 1_555 1_555
Zn1C O3 1_555 1_555
O3C Zn1 1_555 1_555
C6 C7 1_555 1_555
C9 C10 1_555 1_555
C12 C13 1_555 1_555

#END
