
#######################################################################
#
#                 Cambridge Crystallographic Data Centre
#                                CCDC 
#
#######################################################################
#
# If this CIF has been generated from an entry in the Cambridge 
# Structural Database, then it will include bibliographic, chemical, 
# crystal, experimental, refinement or atomic coordinate data resulting 
# from the CCDC's data processing and validation procedures.
#
#######################################################################

data_BHGETC
_symmetry_cell_setting           monoclinic
_symmetry_space_group_name_H-M   'P 21/c'
_symmetry_Int_Tables_number      14
_space_group_name_Hall           '-P 2ybc'
loop_
_symmetry_equiv_pos_site_id
_symmetry_equiv_pos_as_xyz
1 x,y,z
2 -x,1/2+y,1/2-z
3 -x,-y,-z
4 x,1/2-y,1/2+z
_cell_length_a                   10.421(7)
_cell_length_b                   15.244(13)
_cell_length_c                   14.649(8)
_cell_angle_alpha                90
_cell_angle_beta                 113.3(1)
_cell_angle_gamma                90
_cell_volume                     2137.32
loop_
_atom_site_label
_atom_site_type_symbol
_atom_site_fract_x
_atom_site_fract_y
_atom_site_fract_z
Hg1 Hg 0.23670 0.21130 0.39020
Hg2 Hg 0.26110 0.20230 0.13760
Br1 Br 0.45950 0.24920 0.30870
Br2 Br 0.34980 0.12040 0.02200
S1 S 0.03490 0.28520 0.27680
S2 S 0.08570 0.11880 0.18660
S3 S 0.14170 0.15410 0.55590
S4 S 0.39040 0.11340 0.50820
C1 C -0.01600 0.20800 0.18300
N1 N -0.14400 0.21800 0.11100
C2 C -0.20700 0.14900 0.02700
C3 C -0.14600 0.17600 -0.05300
C4 C -0.24400 0.28800 0.11400
C5 C -0.21200 0.37300 0.06400
C6 C 0.29700 0.10000 0.58200
N2 N 0.34600 0.04400 0.66000
C7 C 0.27800 0.02700 0.72900
C8 C 0.16800 -0.04800 0.69100
C9 C 0.47100 -0.01400 0.68100
C10 C 0.59500 0.04000 0.74600
S3C S 0.14170 0.34590 0.05590
Hg2C Hg 0.26110 0.29770 0.63760
loop_
_geom_bond_atom_site_label_1
_geom_bond_atom_site_label_2
_geom_bond_site_symmetry_1
_geom_bond_site_symmetry_2
Hg1 S1 1_555 1_555
Hg2 Br1 1_555 1_555
Br2 Hg2 1_555 1_555
S1 C1 1_555 1_555
S2 Hg2 1_555 1_555
S3 C6 1_555 1_555
S4 Hg1 1_555 1_555
C1 S2 1_555 1_555
N1 C1 1_555 1_555
C2 N1 1_555 1_555
C3 C2 1_555 1_555
C4 N1 1_555 1_555
C5 C4 1_555 1_555
C6 S4 1_555 1_555
N2 C6 1_555 1_555
C7 N2 1_555 1_555
C8 C7 1_555 1_555
C9 N2 1_555 1_555
C10 C9 1_555 1_555
S3C Hg2 1_555 1_555
Hg2C S3 1_555 1_555

#END
