
#######################################################################
#
#                 Cambridge Crystallographic Data Centre
#                                CCDC 
#
#######################################################################
#
# If this CIF has been generated from an entry in the Cambridge 
# Structural Database, then it will include bibliographic, chemical, 
# crystal, experimental, refinement or atomic coordinate data resulting 
# from the CCDC's data processing and validation procedures.
#
#######################################################################

data_BIBBEV
_symmetry_cell_setting           monoclinic
_symmetry_space_group_name_H-M   'P 21/c'
_symmetry_Int_Tables_number      14
_space_group_name_Hall           '-P 2ybc'
loop_
_symmetry_equiv_pos_site_id
_symmetry_equiv_pos_as_xyz
1 x,y,z
2 -x,1/2+y,1/2-z
3 -x,-y,-z
4 x,1/2-y,1/2+z
_cell_length_a                   15.817(2)
_cell_length_b                   8.1914(10)
_cell_length_c                   22.806(3)
_cell_angle_alpha                90
_cell_angle_beta                 98.376(2)
_cell_angle_gamma                90
_cell_volume                     2923.3
loop_
_atom_site_label
_atom_site_type_symbol
_atom_site_fract_x
_atom_site_fract_y
_atom_site_fract_z
Ni1 Ni 0.74263(3) 0.07591(6) 0.304157(19)
C1 C 0.6069(4) -0.1559(7) 0.1869(2)
H1 H 0.6613 -0.1041 0.1863
H2 H 0.5651 -0.1071 0.1573
H3 H 0.6116 -0.2702 0.1786
C2 C 0.5803(3) -0.1344(5) 0.24646(19)
C3 C 0.5066(3) -0.1895(6) 0.2662(2)
H4 H 0.4626 -0.2492 0.2446
C4 C 0.5112(3) -0.1388(6) 0.3236(2)
C5 C 0.4480(3) -0.1651(8) 0.3649(3)
H5 H 0.4686 -0.1158 0.4025
H6 H 0.4402 -0.2801 0.3703
H7 H 0.3944 -0.1165 0.3488
C6 C 0.9198(3) -0.1510(7) 0.3809(2)
H8 H 0.9114 -0.1031 0.3421
H9 H 0.9314 -0.2655 0.3778
H10 H 0.9671 -0.0989 0.4048
C7 C 0.8408(3) -0.1286(6) 0.40895(18)
C8 C 0.8251(3) -0.1796(6) 0.4645(2)
H11 H 0.8628 -0.2344 0.4930
C9 C 0.7434(3) -0.1333(6) 0.46914(19)
C10 C 0.6933(4) -0.1576(8) 0.5192(2)
H12 H 0.6378 -0.1095 0.5093
H13 H 0.7227 -0.1067 0.5543
H14 H 0.6874 -0.2723 0.5262
C11 C 0.7145(4) 0.5122(7) 0.2954(2)
H15 H 0.7418 0.4388 0.2712
H16 H 0.7561 0.5867 0.3152
H17 H 0.6708 0.5724 0.2709
C12 C 0.6754(3) 0.4168(5) 0.3405(2)
C13 C 0.6301(3) 0.4732(6) 0.3836(2)
H18 H 0.6182 0.5817 0.3913
C14 C 0.6059(3) 0.3387(6) 0.4128(2)
C15 C 0.55610(12) 0.3275(3) 0.46346(8)
H19 H 0.5493 0.2149 0.4735
H20 H 0.5009 0.3762 0.4524
H21 H 0.5861 0.3841 0.4971
C16 C 0.78863(12) 0.0638(3) 0.20632(8)
C17 C 0.82462(12) 0.0700(3) 0.14873(8)
H22 H 0.8786 0.1281 0.1553
H23 H 0.8365 -0.0407 0.1372
C18 C 0.76831(12) 0.1497(3) 0.09846(8)
H24 H 0.7651 0.2656 0.1067
H25 H 0.7111 0.1051 0.0963
C19 C 0.79897(12) 0.1274(3) 0.03773(8)
H26 H 0.8007 0.0115 0.0293
H27 H 0.7571 0.1764 0.0075
C20 C 0.87536(12) 0.1913(3) 0.03338(8)
H28 H 0.9156 0.1383 0.0636
H29 H 0.8727 0.3047 0.0452
C21 C 0.91654(12) 0.1905(3) -0.02274(8)
H30 H 0.9504 0.2892 -0.0229
H31 H 0.9559 0.0991 -0.0203
C22 C 0.86210(12) 0.1804(3) -0.07850(8)
H32 H 0.8146 0.2548 -0.0773
H33 H 0.8386 0.0709 -0.0824
C23 C 0.90062(12) 0.2174(3) -0.13346(8)
N1 N 0.6295(2) -0.0529(4) 0.29036(14)
N2 N 0.5856(2) -0.0572(4) 0.33831(15)
N3 N 0.7725(2) -0.0531(4) 0.38126(14)
N4 N 0.7115(2) -0.0562(4) 0.41798(14)
N5 N 0.67888(19) 0.2544(4) 0.34239(14)
N6 N 0.6353(2) 0.2061(4) 0.38733(14)
O1 O 0.81328(19) -0.0485(4) 0.24317(12)
O2 O 0.73845(19) 0.1713(4) 0.21869(12)
O3 O 0.86404(18) 0.2889(4) -0.17575(12)
O4 O 0.9787(2) 0.1585(5) -0.13303(15)
H34 H 1.0139 0.2283 -0.1205
B1 B 0.6234(3) 0.0219(6) 0.3972(2)
H35 H 0.582(3) 0.010(6) 0.433(2)
Ni1C Ni 0.74263(3) 0.42409(6) -0.195843(19)
O3C O 0.86404(18) 0.2111(4) 0.32425(12)
C24 C 0.06443(12) 0.1113(3) 0.26962(8)
H36 H 0.0824 0.0894 0.2315
H37 H 0.0123 0.0509 0.2719
C25 C 0.0509(2) 0.2720(4) 0.27567(16)
H38 H 0.0075 0.3081 0.2445
H39 H 0.1029 0.3305 0.2735
H40 H 0.0326 0.2921 0.3133
O5 O 0.1344(2) 0.0596(5) 0.31987(15)
H41 H 0.1436 -0.0383 0.3167
loop_
_geom_bond_atom_site_label_1
_geom_bond_atom_site_label_2
_geom_bond_site_symmetry_1
_geom_bond_site_symmetry_2
Ni1 N1 1_555 1_555
C1 H1 1_555 1_555
H2 C1 1_555 1_555
H3 C1 1_555 1_555
C2 C1 1_555 1_555
C3 C2 1_555 1_555
H4 C3 1_555 1_555
C4 C3 1_555 1_555
C5 C4 1_555 1_555
H5 C5 1_555 1_555
H6 C5 1_555 1_555
H7 C5 1_555 1_555
C6 H8 1_555 1_555
H9 C6 1_555 1_555
H10 C6 1_555 1_555
C7 C6 1_555 1_555
C8 C7 1_555 1_555
H11 C8 1_555 1_555
C9 C8 1_555 1_555
C10 C9 1_555 1_555
H12 C10 1_555 1_555
H13 C10 1_555 1_555
H14 C10 1_555 1_555
C11 H15 1_555 1_555
H16 C11 1_555 1_555
H17 C11 1_555 1_555
C12 C11 1_555 1_555
C13 C12 1_555 1_555
H18 C13 1_555 1_555
C14 C13 1_555 1_555
C15 C14 1_555 1_555
H19 C15 1_555 1_555
H20 C15 1_555 1_555
H21 C15 1_555 1_555
C16 C17 1_555 1_555
C17 H22 1_555 1_555
H23 C17 1_555 1_555
C18 C17 1_555 1_555
H24 C18 1_555 1_555
H25 C18 1_555 1_555
C19 C18 1_555 1_555
H26 C19 1_555 1_555
H27 C19 1_555 1_555
C20 C19 1_555 1_555
H28 C20 1_555 1_555
H29 C20 1_555 1_555
C21 C20 1_555 1_555
H30 C21 1_555 1_555
H31 C21 1_555 1_555
C22 C21 1_555 1_555
H32 C22 1_555 1_555
H33 C22 1_555 1_555
C23 C22 1_555 1_555
N1 C2 1_555 1_555
N2 C4 1_555 1_555
N3 Ni1 1_555 1_555
N4 C9 1_555 1_555
N5 Ni1 1_555 1_555
N6 C14 1_555 1_555
O1 Ni1 1_555 1_555
O2 Ni1 1_555 1_555
O3 C23 1_555 1_555
O4 C23 1_555 1_555
H34 O4 1_555 1_555
B1 N2 1_555 1_555
H35 B1 1_555 1_555
C24 H36 1_555 1_555
H37 C24 1_555 1_555
C25 C24 1_555 1_555
H38 C25 1_555 1_555
H39 C25 1_555 1_555
H40 C25 1_555 1_555
O5 C24 1_555 1_555
H41 O5 1_555 1_555
Ni1C O3 1_555 1_555
O3C Ni1 1_555 1_555
C7 N3 1_555 1_555
C12 N5 1_555 1_555
C16 O1 1_555 1_555
C16 O2 1_555 1_555
N1 N2 1_555 1_555
N3 N4 1_555 1_555
N4 B1 1_555 1_555
N5 N6 1_555 1_555
N6 B1 1_555 1_555

#END
