
#######################################################################
#
#                 Cambridge Crystallographic Data Centre
#                                CCDC 
#
#######################################################################
#
# If this CIF has been generated from an entry in the Cambridge 
# Structural Database, then it will include bibliographic, chemical, 
# crystal, experimental, refinement or atomic coordinate data resulting 
# from the CCDC's data processing and validation procedures.
#
#######################################################################

data_BIBCAS
_symmetry_cell_setting           monoclinic
_symmetry_space_group_name_H-M   'P 2/c'
_symmetry_Int_Tables_number      13
_space_group_name_Hall           '-P 2yc'
loop_
_symmetry_equiv_pos_site_id
_symmetry_equiv_pos_as_xyz
1 x,y,z
2 -x,y,1/2-z
3 -x,-y,-z
4 x,-y,1/2+z
_cell_length_a                   9.4700(13)
_cell_length_b                   8.8874(12)
_cell_length_c                   14.1492(14)
_cell_angle_alpha                90
_cell_angle_beta                 127.022(6)
_cell_angle_gamma                90
_cell_volume                     950.779
loop_
_atom_site_label
_atom_site_type_symbol
_atom_site_fract_x
_atom_site_fract_y
_atom_site_fract_z
Zn1 Zn 0.5000 1.15100(5) 0.2500
O1 O 0.5704(4) 1.2628(4) 0.3907(3)
O2 O 0.3042(6) 1.3466(4) 0.3103(4)
N1 N 0.2941(5) 1.0088(3) 0.1830(3)
C1 C 0.4624(6) 1.3456(4) 0.3885(4)
C2 C 0.5410(5) 1.4473(4) 0.4947(4)
H1 H 0.6592 1.4321 0.5579
C3 C 0.2453(7) 0.9042(6) 0.1036(4)
C4 C 0.3366(10) 0.8723(7) 0.0481(6)
H2 H 0.3893 0.9631 0.0459
H3 H 0.2518 0.8356 -0.0310
H4 H 0.4268 0.7979 0.0941
C5 C 0.1762(7) 0.9985(6) 0.2107(5)
H5 H 0.1774 1.0590 0.2648
C6 C 0.0601(9) 0.8871(7) 0.1466(6)
H6 H -0.0303 0.8552 0.1500
C7 C 0.0015(10) 0.7099(7) -0.0092(6)
H7 H 0.0156 0.7185 -0.0714
H8 H -0.1234 0.7204 -0.0451
C8 C 0.0627(11) 0.5600(7) 0.0464(6)
N2 N 0.0995(7) 0.8306(5) 0.0766(4)
H9 H 0.044(5) 0.566(5) 0.107(3)
H10 H 0.164(4) 0.612(5) 0.070(4)
O1B O 0.4296(4) 1.7372(4) 0.6093(3)
O2B O 0.6958(6) 1.6534(4) 0.6897(4)
C1B C 0.5376(6) 1.6544(4) 0.6115(4)
C2B C 0.4590(5) 1.5527(4) 0.5053(4)
H1B H 0.3408 1.5679 0.4421
N1B N -0.2941(5) -0.0088(3) -0.1830(3)
C3B C -0.2453(7) 0.0958(6) -0.1036(4)
C4B C -0.3366(10) 0.1277(7) -0.0481(6)
H2B H -0.3893 0.0369 -0.0459
H3B H -0.2518 0.1644 0.0310
H4B H -0.4268 0.2021 -0.0941
C5B C -0.1762(7) 0.0015(6) -0.2107(5)
H5B H -0.1774 -0.0590 -0.2648
C6B C -0.0601(9) 0.1129(7) -0.1466(6)
H6B H 0.0303 0.1448 -0.1500
C7B C -0.0015(10) 0.2901(7) 0.0092(6)
H7B H -0.0156 0.2815 0.0714
H8B H 0.1234 0.2796 0.0451
C8B C -0.0627(11) 0.4400(7) -0.0464(6)
N2B N -0.0995(7) 0.1694(5) -0.0766(4)
H9B H -0.044(5) 0.434(5) -0.107(3)
H10B H -0.164(4) 0.388(5) -0.070(4)
Zn1B Zn -0.5000 -0.15100(5) -0.2500
Zn1B_2 Zn 0.5000 1.84900(5) 0.7500
O1A O 0.4296(4) 1.2628(4) 0.1093(3)
N1A N 0.7059(5) 1.0088(3) 0.3170(3)
O3 O 0.0000 0.5058(12) 0.2500
C9 C 0.0000 0.3361(17) 0.2500
N3? N 0.198(3) 0.780(3) 0.1282(19)
H11? H 0.1124 0.3001 0.3173
H12? H -0.0918 0.3001 0.2540
H13? H -0.0206 0.3001 0.1787
H14? H 0.0841 0.5366 0.2528
loop_
_geom_bond_atom_site_label_1
_geom_bond_atom_site_label_2
_geom_bond_site_symmetry_1
_geom_bond_site_symmetry_2
Zn1 O1 1_555 1_555
O1 C1 1_555 1_555
O2 C1 1_555 1_555
N1 Zn1 1_555 1_555
C1 C2 1_555 1_555
C2 H1 1_555 1_555
C3 N1 1_555 1_555
C4 C3 1_555 1_555
H2 C4 1_555 1_555
H3 C4 1_555 1_555
H4 C4 1_555 1_555
C5 N1 1_555 1_555
H5 C5 1_555 1_555
C6 C5 1_555 1_555
H6 C6 1_555 1_555
C7 H7 1_555 1_555
H8 C7 1_555 1_555
C8 C7 1_555 1_555
N2 C3 1_555 1_555
H9 C8 1_555 1_555
H10 C8 1_555 1_555
O3 C9 1_555 1_555
O1B C1B 1_555 1_555
O2B C1B 1_555 1_555
C1B C2B 1_555 1_555
C2B C2 1_555 1_555
H1B C2B 1_555 1_555
N1B C3B 1_555 1_555
C3B C4B 1_555 1_555
C4B H2B 1_555 1_555
H3B C4B 1_555 1_555
H4B C4B 1_555 1_555
C5B N1B 1_555 1_555
H5B C5B 1_555 1_555
C6B C5B 1_555 1_555
H6B C6B 1_555 1_555
C7B H7B 1_555 1_555
H8B C7B 1_555 1_555
C8B C8 1_555 1_555
N2B C3B 1_555 1_555
H9B C8B 1_555 1_555
H10B C8B 1_555 1_555
Zn1B N1B 1_555 1_555
Zn1B_2 O1B 1_555 1_555
O1A Zn1 1_555 1_555
N1A Zn1 1_555 1_555
C6 N2 1_555 1_555
C7 N2 1_555 1_555
C6B N2B 1_555 1_555
C7B C8B 1_555 1_555
C7B N2B 1_555 1_555

#END
