
#######################################################################
#
#                 Cambridge Crystallographic Data Centre
#                                CCDC 
#
#######################################################################
#
# If this CIF has been generated from an entry in the Cambridge 
# Structural Database, then it will include bibliographic, chemical, 
# crystal, experimental, refinement or atomic coordinate data resulting 
# from the CCDC's data processing and validation procedures.
#
#######################################################################

data_BIBDAT
_symmetry_cell_setting           orthorhombic
_symmetry_space_group_name_H-M   'P c a 21'
_symmetry_Int_Tables_number      29
_space_group_name_Hall           'P 2c -2ac'
loop_
_symmetry_equiv_pos_site_id
_symmetry_equiv_pos_as_xyz
1 x,y,z
2 -x,-y,1/2+z
3 1/2+x,-y,z
4 1/2-x,y,1/2+z
_cell_length_a                   15.910(5)
_cell_length_b                   8.949(3)
_cell_length_c                   13.460(4)
_cell_angle_alpha                90
_cell_angle_beta                 90
_cell_angle_gamma                90
_cell_volume                     1916.42
loop_
_atom_site_label
_atom_site_type_symbol
_atom_site_fract_x
_atom_site_fract_y
_atom_site_fract_z
Zn1 Zn 0.193877(19) -0.14227(3) 0.76793(6)
N1 N 0.28569(16) 0.0085(3) 0.7304(2)
N2 N 0.38416(16) 0.1801(3) 0.7391(2)
N3 N 0.49448(17) 0.8473(3) 0.7909(2)
N4 N 0.59308(16) 1.0156(3) 0.7998(2)
O1 O 0.24792(17) -0.2404(3) 0.8886(2)
O2 O 0.1254(2) -0.3509(4) 0.8826(4)
O3 O 0.41962(19) -0.2844(5) 1.0872(2)
O4 O 0.29094(17) -0.2715(4) 1.1541(2)
C1 C 0.2999(3) 0.1385(5) 0.8946(4)
H1 H 0.3500 0.1597 0.9318
H2 H 0.2727 0.0521 0.9220
H3 H 0.2626 0.2226 0.8982
C2 C 0.3224(2) 0.1093(4) 0.7889(2)
C3 C 0.3247(2) 0.0186(4) 0.6393(3)
H4 H 0.3111 -0.0373 0.5833
C4 C 0.3859(2) 0.1228(4) 0.6443(3)
H5 H 0.4222 0.1506 0.5934
C5 C 0.44049(19) 0.2997(4) 0.7756(4)
H6 H 0.4959 0.2865 0.7467
H7 H 0.4459 0.2915 0.8472
C6 C 0.4080(2) 0.4530(4) 0.7496(3)
H8 H 0.3549 0.4701 0.7832
H9 H 0.3982 0.4590 0.6786
C7 C 0.47072(19) 0.5731(3) 0.7802(3)
H10 H 0.4805 0.5672 0.8512
H11 H 0.5238 0.5560 0.7467
C8 C 0.4383(2) 0.7273(3) 0.7542(3)
H12 H 0.4330 0.7355 0.6826
H13 H 0.3828 0.7404 0.7828
C9 C 0.4922(2) 0.9048(5) 0.8853(3)
H14 H 0.4558 0.8766 0.9360
C10 C 0.55245(19) 1.0091(4) 0.8906(3)
H15 H 0.5648 1.0673 0.9460
C11 C 0.55696(19) 0.9163(4) 0.7418(2)
C12 C 0.5810(3) 0.8869(5) 0.6367(3)
H16 H 0.6210 0.9606 0.6154
H17 H 0.5319 0.8919 0.5954
H18 H 0.6057 0.7893 0.6316
C13 C 0.1977(2) -0.3373(4) 0.9180(3)
C14 C 0.2237(2) -0.4436(4) 0.9994(3)
H19 H 0.1919 -0.4191 1.0588
H20 H 0.2078 -0.5439 0.9797
C15 C 0.3149(2) -0.4444(5) 1.0255(3)
H21 H 0.3470 -0.4400 0.9643
H22 H 0.3277 -0.5391 1.0572
C16 C 0.3452(2) -0.3210(4) 1.0925(3)
Zn1B Zn 0.693877(19) 1.14227(3) 0.76793(6)
Zn1C Zn 0.306123(19) -0.14227(3) 1.26793(6)
N4B N 0.09308(16) -0.0156(3) 0.7998(2)
O4C O 0.20906(17) -0.2715(4) 0.6541(2)
O5 O 1.0041(3) 0.5807(6) 0.0287(3)
H23 H 0.973(4) 0.506(5) 0.024(6)
H24 H 1.044(3) 0.584(7) -0.011(5)
loop_
_geom_bond_atom_site_label_1
_geom_bond_atom_site_label_2
_geom_bond_site_symmetry_1
_geom_bond_site_symmetry_2
Zn1 N1 1_555 1_555
N1 C2 1_555 1_555
N2 C2 1_555 1_555
N3 C8 1_555 1_555
N4 C10 1_555 1_555
O1 Zn1 1_555 1_555
O2 C13 1_555 1_555
O3 C16 1_555 1_555
O4 C16 1_555 1_555
C1 H1 1_555 1_555
H2 C1 1_555 1_555
H3 C1 1_555 1_555
C2 C1 1_555 1_555
C3 N1 1_555 1_555
H4 C3 1_555 1_555
C4 N2 1_555 1_555
H5 C4 1_555 1_555
C5 N2 1_555 1_555
H6 C5 1_555 1_555
H7 C5 1_555 1_555
C6 C5 1_555 1_555
H8 C6 1_555 1_555
H9 C6 1_555 1_555
C7 C6 1_555 1_555
H10 C7 1_555 1_555
H11 C7 1_555 1_555
C8 C7 1_555 1_555
H12 C8 1_555 1_555
H13 C8 1_555 1_555
C9 N3 1_555 1_555
H14 C9 1_555 1_555
C10 C9 1_555 1_555
H15 C10 1_555 1_555
C11 N3 1_555 1_555
C12 C11 1_555 1_555
H16 C12 1_555 1_555
H17 C12 1_555 1_555
H18 C12 1_555 1_555
C13 O1 1_555 1_555
C14 C13 1_555 1_555
H19 C14 1_555 1_555
H20 C14 1_555 1_555
C15 C14 1_555 1_555
H21 C15 1_555 1_555
H22 C15 1_555 1_555
C16 C15 1_555 1_555
O5 H23 1_555 1_555
H24 O5 1_555 1_555
Zn1B N4 1_555 1_555
Zn1C O4 1_555 1_555
N4B Zn1 1_555 1_555
O4C Zn1 1_555 1_555
N4 C11 1_555 1_555
C3 C4 1_555 1_555

#END
