
#######################################################################
#
#                 Cambridge Crystallographic Data Centre
#                                CCDC 
#
#######################################################################
#
# If this CIF has been generated from an entry in the Cambridge 
# Structural Database, then it will include bibliographic, chemical, 
# crystal, experimental, refinement or atomic coordinate data resulting 
# from the CCDC's data processing and validation procedures.
#
#######################################################################

data_BIBFOJ
_symmetry_cell_setting           triclinic
_symmetry_space_group_name_H-M   'P -1'
_symmetry_Int_Tables_number      2
_space_group_name_Hall           '-P 1'
loop_
_symmetry_equiv_pos_site_id
_symmetry_equiv_pos_as_xyz
1 x,y,z
2 -x,-y,-z
_cell_length_a                   7.793(2)
_cell_length_b                   8.043(2)
_cell_length_c                   11.235(3)
_cell_angle_alpha                95.818(4)
_cell_angle_beta                 91.440(5)
_cell_angle_gamma                107.805(4)
_cell_volume                     665.845
loop_
_atom_site_label
_atom_site_type_symbol
_atom_site_fract_x
_atom_site_fract_y
_atom_site_fract_z
Cd1 Cd 0.72562(4) 0.90280(4) 0.54140(3)
O1 O 0.5473(4) 1.0508(4) 0.6393(3)
O2 O 0.2467(4) 0.9993(4) 0.6443(3)
O3 O 0.2295(4) 0.8689(4) 0.8528(3)
O4 O 0.5977(5) 0.6462(6) 1.1350(4)
O5 O 0.4018(6) 0.4455(6) 1.2148(4)
O6 O 0.1107(4) 0.5345(4) 1.2701(3)
O7 O 0.0618(5) 0.8185(4) 1.4094(3)
O8 O -0.2109(5) 0.6592(4) 1.4595(3)
O9 O 0.4280(4) 0.6864(4) 0.5210(3)
H1 H 0.3889 0.5770 0.5284
H2 H 0.3704 0.7212 0.4679
O10 O 0.8698(5) 0.8605(4) 0.7146(3)
H3 H 0.9729 0.9063 0.6881
H4 H 0.8426 0.7532 0.7260
N1 N 0.4411(5) 0.5722(5) 1.1575(4)
C1 C 0.3952(6) 0.9900(5) 0.6848(4)
C2 C 0.4002(6) 0.8992(6) 0.7980(4)
H5 H 0.4231 0.7882 0.7771
H6 H 0.4968 0.9727 0.8539
C3 C 0.2107(6) 0.7890(6) 0.9566(4)
C4 C 0.0511(6) 0.7764(6) 1.0147(4)
H7 H -0.0333 0.8226 0.9826
C5 C 0.0160(6) 0.6967(6) 1.1193(4)
H8 H -0.0900 0.6926 1.1569
C6 C 0.1394(6) 0.6215(6) 1.1696(4)
C7 C 0.3000(5) 0.6380(5) 1.1108(4)
C8 C 0.3372(6) 0.7228(6) 1.0066(4)
H9 H 0.4463 0.7344 0.9713
C9 C -0.0572(6) 0.5147(6) 1.3267(4)
H10 H -0.0774 0.4191 1.3761
H11 H -0.1546 0.4818 1.2650
C10 C -0.0655(6) 0.6812(5) 1.4056(4)
Cd1_2 Cd -0.27438(4) 0.90280(4) 1.54140(3)
Cd1A Cd 0.27438(4) 1.09720(4) 0.45860(3)
Cd1A_2 Cd 0.27438(4) 1.09720(4) 1.45860(3)
O2A O 0.7533(4) 1.0007(4) 0.3557(3)
O7A O 0.9382(5) 1.1815(4) 0.5906(3)
O8_2 O 0.7891(5) 0.6592(4) 0.4595(3)
loop_
_geom_bond_atom_site_label_1
_geom_bond_atom_site_label_2
_geom_bond_site_symmetry_1
_geom_bond_site_symmetry_2
Cd1 O1 1_555 1_555
O1 C1 1_555 1_555
O2 C1 1_555 1_555
O3 C2 1_555 1_555
O4 N1 1_555 1_555
O5 N1 1_555 1_555
O6 C6 1_555 1_555
O7 C10 1_555 1_555
O8 C10 1_555 1_555
O9 Cd1 1_555 1_555
H1 O9 1_555 1_555
H2 O9 1_555 1_555
O10 Cd1 1_555 1_555
H3 O10 1_555 1_555
H4 O10 1_555 1_555
N1 C7 1_555 1_555
C1 C2 1_555 1_555
C2 H5 1_555 1_555
H6 C2 1_555 1_555
C3 O3 1_555 1_555
C4 C3 1_555 1_555
H7 C4 1_555 1_555
C5 C4 1_555 1_555
H8 C5 1_555 1_555
C6 C5 1_555 1_555
C7 C6 1_555 1_555
C8 C3 1_555 1_555
H9 C8 1_555 1_555
C9 O6 1_555 1_555
H10 C9 1_555 1_555
H11 C9 1_555 1_555
C10 C9 1_555 1_555
Cd1_2 O8 1_555 1_555
Cd1A O2 1_555 1_555
Cd1A_2 O7 1_555 1_555
O2A Cd1 1_555 1_555
O7A Cd1 1_555 1_555
O8_2 Cd1 1_555 1_555
C7 C8 1_555 1_555

#END
