
#######################################################################
#
#                 Cambridge Crystallographic Data Centre
#                                CCDC 
#
#######################################################################
#
# If this CIF has been generated from an entry in the Cambridge 
# Structural Database, then it will include bibliographic, chemical, 
# crystal, experimental, refinement or atomic coordinate data resulting 
# from the CCDC's data processing and validation procedures.
#
#######################################################################

data_BICDCL
_symmetry_cell_setting           monoclinic
_symmetry_space_group_name_H-M   'P 21/c'
_symmetry_Int_Tables_number      14
_space_group_name_Hall           '-P 2ybc'
loop_
_symmetry_equiv_pos_site_id
_symmetry_equiv_pos_as_xyz
1 x,y,z
2 -x,1/2+y,1/2-z
3 -x,-y,-z
4 x,1/2-y,1/2+z
_cell_length_a                   3.704
_cell_length_b                   19.960
_cell_length_c                   8.200
_cell_angle_alpha                90
_cell_angle_beta                 111.10
_cell_angle_gamma                90
_cell_volume                     565.595
loop_
_atom_site_label
_atom_site_type_symbol
_atom_site_fract_x
_atom_site_fract_y
_atom_site_fract_z
Cd1 Cd 1.00000 0.00000 0.00000
Cl1 Cl 0.32340 0.04460 -0.20530
C1 C 1.33700 0.13000 0.26800
C2 C 1.57900 0.23800 0.41000
N1 N 1.57200 0.09200 0.40000
N2 N 1.35400 0.19700 0.28400
N3 N 1.51000 0.30400 0.39300
O1 O 1.10400 0.10500 0.13500
O2 O 1.84200 0.21400 0.54300
Cl1_2 Cl 1.32340 0.04460 -0.20530
Cl1B Cl 0.67660 -0.04460 0.20530
Cl1B_2 Cl 1.67660 -0.04460 0.20530
O1B O 0.89600 -0.10500 -0.13500
Cd1_2 Cd 0.00000 0.00000 0.00000
C1B C 0.66300 -0.13000 -0.26800
N1B N 0.42800 -0.09200 -0.40000
N2B N 0.64600 -0.19700 -0.28400
C2B C 0.42100 -0.23800 -0.41000
N3B N 0.49000 -0.30400 -0.39300
O2B O 0.15800 -0.21400 -0.54300
loop_
_geom_bond_atom_site_label_1
_geom_bond_atom_site_label_2
_geom_bond_site_symmetry_1
_geom_bond_site_symmetry_2
Cd1 Cl1 1_555 1_555
Cl1 Cd1_2 1_555 1_555
C1 N1 1_555 1_555
C2 N2 1_555 1_555
N2 C1 1_555 1_555
N3 C2 1_555 1_555
O1 Cd1 1_555 1_555
O2 C2 1_555 1_555
Cl1_2 Cd1 1_555 1_555
Cl1B Cd1 1_555 1_555
Cl1B_2 Cd1 1_555 1_555
O1B Cd1 1_555 1_555
Cd1_2 Cl1B 1_555 1_555
C1B O1B 1_555 1_555
N1B C1B 1_555 1_555
N2B C1B 1_555 1_555
C2B N2B 1_555 1_555
N3B C2B 1_555 1_555
O2B C2B 1_555 1_555
C1 O1 1_555 1_555

#END
