
#######################################################################
#
#                 Cambridge Crystallographic Data Centre
#                                CCDC 
#
#######################################################################
#
# If this CIF has been generated from an entry in the Cambridge 
# Structural Database, then it will include bibliographic, chemical, 
# crystal, experimental, refinement or atomic coordinate data resulting 
# from the CCDC's data processing and validation procedures.
#
#######################################################################

data_BICHIG
_symmetry_cell_setting           triclinic
_symmetry_space_group_name_H-M   'P -1'
_symmetry_Int_Tables_number      2
_space_group_name_Hall           '-P 1'
loop_
_symmetry_equiv_pos_site_id
_symmetry_equiv_pos_as_xyz
1 x,y,z
2 -x,-y,-z
_cell_length_a                   12.973(3)
_cell_length_b                   14.046(5)
_cell_length_c                   23.376(6)
_cell_angle_alpha                94.335(12)
_cell_angle_beta                 96.686(9)
_cell_angle_gamma                113.976(5)
_cell_volume                     3829.93
loop_
_atom_site_label
_atom_site_type_symbol
_atom_site_fract_x
_atom_site_fract_y
_atom_site_fract_z
O17 O 0.2838(13) 0.2686(15) 0.9374(10)
H54 H 0.228(2) 0.261(7) 0.953(3)
H55 H 0.337(4) 0.325(4) 0.950(5)
O18 O 0.2261(11) 1.2909(9) 1.1913(6)
H56 H 0.258(2) 1.251(2) 1.194(4)
H57 H 0.180(4) 1.272(6) 1.1610(15)
O19 O 0.2147(13) 0.2069(10) 0.3001(6)
H58 H 0.232(3) 0.179(3) 0.273(2)
H59 H 0.227(7) 0.267(2) 0.295(3)
Tb1 Tb 0.41187(4) 0.44721(3) 0.790349(17)
Zn1 Zn -0.29809(9) 0.30242(9) 0.01260(4)
O1 O 0.4946(6) 0.3538(5) 0.8540(3)
H1 H 0.480(5) 0.2910(11) 0.853(3)
H2 H 0.539(4) 0.386(4) 0.8841(14)
O2 O 0.2646(6) 0.3106(5) 0.8292(3)
H3 H 0.219(3) 0.2532(19) 0.812(2)
H4 H 0.317(2) 0.305(3) 0.850(2)
O3 O 0.5296(7) 0.5651(6) 0.8735(3)
H5 H 0.519(2) 0.611(3) 0.892(3)
H6 H 0.5965(16) 0.587(4) 0.868(3)
O4 O 0.2999(6) 0.5183(5) 0.8462(3)
H7 H 0.240(2) 0.4648(18) 0.841(4)
H8 H 0.288(3) 0.568(2) 0.836(4)
O5 O 0.2284(5) 0.4044(5) 0.7201(3)
H9 H 0.257(4) 0.458(2) 0.7048(18)
H10 H 0.1616(16) 0.372(4) 0.704(2)
O6 O 0.4376(6) 0.6065(5) 0.7651(3)
O7 O 0.6479(7) 0.6280(6) 0.5910(3)
H11 H 0.702(3) 0.685(2) 0.603(2)
H12 H 0.658(4) 0.608(5) 0.5590(14)
O8 O 0.4524(7) 0.6039(6) 0.6731(3)
O9 O 0.3783(5) 0.3013(4) 0.7271(2)
O10 O 0.3555(5) 0.3431(4) 0.6376(3)
O11 O 0.2427(6) 0.4602(6) 0.5941(2)
O12 O 0.2852(5) 0.3999(5) 0.5149(2)
O13 O 0.5166(5) 0.4034(4) 0.5380(2)
O14 O 0.5668(5) 0.3717(5) 0.4534(3)
O15 O 0.5835(6) 0.4844(7) 0.6668(3)
O16 O 0.5899(6) 0.4987(5) 0.7626(3)
Tb2 Tb 0.44627(4) 0.49289(3) 0.595381(15)
N1 N 0.5356(7) 1.2309(6) 1.0149(3)
N2 N 0.4940(8) 1.2655(7) 1.0594(4)
N3 N 0.3862(8) 1.2053(8) 1.0553(4)
N4 N 0.3542(8) 1.1299(9) 1.0094(4)
N5 N -0.0613(7) -0.1729(7) 0.2942(3)
N6 N -0.0827(8) -0.1591(8) 0.2383(4)
N7 N -0.0160(9) -0.0623(8) 0.2325(4)
H13 H -0.0138 -0.0362 0.2003
N8 N 0.0476(8) -0.0100(7) 0.2828(4)
N9 N -0.2247(6) 0.3134(6) 0.1422(3)
N10 N -0.2285(6) 0.2762(6) 0.0869(3)
N11 N -0.1728(8) 0.2157(7) 0.0843(3)
N12 N -0.1293(7) 0.2131(7) 0.1388(3)
N13 N 0.7971(7) 0.1588(8) 0.8819(3)
N14 N 0.8032(7) 0.1873(7) 0.9383(3)
N15 N 0.7436(7) 0.2429(7) 0.9433(3)
N16 N 0.6973(7) 0.2541(7) 0.8904(3)
N17 N 1.1852(9) 0.3847(8) 1.0156(4)
N18 N 1.2809(9) 0.4370(9) 1.0561(4)
N19 N 1.3244(8) 0.5353(8) 1.0510(4)
N20 N 1.2586(7) 0.5516(6) 1.0064(3)
C1 C 0.4469(8) 1.1491(7) 0.9846(4)
C2 C 0.4489(8) 1.0848(7) 0.9320(4)
C3 C 0.5257(9) 1.0386(7) 0.9322(4)
H14 H 0.5762 1.0475 0.9659
C4 C 0.5271(9) 0.9796(7) 0.8826(4)
H15 H 0.5776 0.9478 0.8835
C5 C 0.4545(8) 0.9670(7) 0.8313(4)
C6 C 0.3745(9) 1.0119(7) 0.8321(4)
H16 H 0.3231 1.0028 0.7987
C7 C 0.3726(9) 1.0690(7) 0.8824(4)
H17 H 0.3190 1.0972 0.8827
C8 C 0.4604(8) 0.9111(6) 0.7768(4)
C9 C 0.4639(7) 0.8133(6) 0.7755(3)
H18 H 0.4638 0.7831 0.8096
C10 C 0.0194(8) -0.0805(8) 0.3196(4)
C11 C 0.0659(8) -0.0572(7) 0.3827(4)
C12 C 0.1636(10) 0.0388(8) 0.4029(5)
H19 H 0.1971 0.0845 0.3769
C13 C 0.2092(9) 0.0641(8) 0.4625(4)
H20 H 0.2746 0.1257 0.4757
C14 C 0.1568(8) -0.0025(7) 0.5017(4)
C15 C 0.0651(9) -0.0978(8) 0.4796(4)
H21 H 0.0316 -0.1446 0.5052
C16 C 0.0219(9) -0.1253(7) 0.4204(4)
H22 H -0.0375 -0.1909 0.4069
C17 C 0.2001(8) 0.0276(7) 0.5646(4)
C18 C 0.2551(7) 0.1339(6) 0.5891(4)
H23 H 0.2681 0.1858 0.5649
C19 C -0.1627(8) 0.2740(7) 0.1735(4)
C20 C -0.1314(8) 0.2909(7) 0.2369(3)
C21 C -0.0513(8) 0.2604(7) 0.2641(4)
H24 H -0.0161 0.2285 0.2419
C22 C -0.0231(8) 0.2770(7) 0.3239(4)
H25 H 0.0310 0.2560 0.3413
C23 C -0.0738(8) 0.3242(7) 0.3587(3)
C24 C -0.1546(8) 0.3548(7) 0.3318(4)
H26 H -0.1905 0.3853 0.3544
C25 C -0.1827(7) 0.3404(7) 0.2714(3)
H27 H -0.2350 0.3634 0.2539
C26 C -0.0433(8) 0.3436(6) 0.4239(3)
C27 C 0.0652(8) 0.3651(7) 0.4512(3)
H28 H 0.1204 0.3655 0.4290
C28 C 0.7321(8) 0.2000(8) 0.8538(4)
C29 C 0.7031(7) 0.1895(7) 0.7897(3)
C30 C 0.6224(7) 0.2247(7) 0.7665(4)
H29 H 0.5854 0.2507 0.7909
C31 C 0.5985(7) 0.2203(7) 0.7071(3)
H30 H 0.5441 0.2429 0.6920
C32 C 0.6526(7) 0.1833(6) 0.6689(3)
C33 C 0.7320(7) 0.1459(7) 0.6931(3)
H31 H 0.7676 0.1175 0.6690
C34 C 0.7559(8) 0.1520(8) 0.7525(4)
H32 H 0.8103 0.1297 0.7680
C35 C 0.6286(7) 0.1834(6) 0.6055(3)
C36 C 0.5920(7) 0.2585(6) 0.5841(3)
H33 H 0.5782 0.3041 0.6099
C37 C 1.1758(8) 0.4602(9) 0.9869(4)
C38 C 1.0883(8) 0.4463(8) 0.9360(5)
C39 C 1.0377(8) 0.5166(8) 0.9330(4)
H34 H 1.0500 0.5657 0.9649
C40 C 0.9694(7) 0.5132(7) 0.8824(4)
H35 H 0.9327 0.5579 0.8813
C41 C 0.9542(8) 0.4443(8) 0.8330(4)
C42 C 0.9993(9) 0.3690(9) 0.8381(5)
H36 H 0.9863 0.3187 0.8066
C43 C 1.0631(9) 0.3701(9) 0.8900(5)
H37 H 1.0893 0.3179 0.8937
C44 C 0.8933(8) 0.4520(8) 0.7773(4)
C45 C 0.7965(8) 0.4721(7) 0.7739(4)
H38 H 0.7683 0.4807 0.8078
C46 C 0.4677(7) 0.7601(7) 0.7234(3)
C47 C 0.4746(9) 0.8088(7) 0.6730(4)
H39 H 0.4818 0.7757 0.6387
C48 C 0.4708(9) 0.9059(8) 0.6741(5)
H40 H 0.4744 0.9377 0.6404
C49 C 0.4617(10) 0.9553(8) 0.7253(4)
H41 H 0.4562 1.0193 0.7254
C50 C 0.4538(8) 0.6500(7) 0.7207(3)
C51 C 0.5492(7) 0.3513(6) 0.5041(3)
C52 C 0.2900(7) 0.1630(6) 0.6477(4)
C53 C 0.2743(8) 0.0882(7) 0.6844(4)
H42 H 0.2982 0.1082 0.7242
C54 C 0.2225(10) -0.0175(8) 0.6616(5)
H43 H 0.2124 -0.0687 0.6861
C55 C 0.1859(9) -0.0462(7) 0.6023(4)
H44 H 0.1508 -0.1173 0.5874
C56 C 0.3462(7) 0.2777(7) 0.6725(4)
C57 C 0.0941(8) 0.3866(6) 0.5122(3)
C58 C 0.0120(8) 0.3827(7) 0.5453(4)
H45 H 0.0304 0.3972 0.5856
C59 C -0.0991(8) 0.3568(7) 0.5181(4)
H46 H -0.1551 0.3526 0.5405
C60 C -0.1272(8) 0.3374(7) 0.4581(4)
H47 H -0.2017 0.3201 0.4405
C61 C 0.2153(8) 0.4176(7) 0.5419(4)
C62 C 0.5768(7) 0.2641(6) 0.5253(3)
C63 C 0.5913(7) 0.1940(6) 0.4860(3)
H48 H 0.5790 0.1975 0.4463
C64 C 0.6243(7) 0.1181(7) 0.5058(3)
H49 H 0.6350 0.0712 0.4795
C65 C 0.6413(7) 0.1125(6) 0.5654(3)
H50 H 0.6614 0.0604 0.5784
C66 C 0.7419(7) 0.4795(7) 0.7218(4)
C67 C 0.7860(8) 0.4709(8) 0.6714(4)
H51 H 0.7503 0.4780 0.6361
C68 C 0.8824(9) 0.4521(8) 0.6734(5)
H52 H 0.9122 0.4473 0.6395
C69 C 0.9343(9) 0.4404(9) 0.7248(5)
H53 H 0.9975 0.4247 0.7254
C70 C 0.6307(8) 0.4888(8) 0.7171(4)
Zn1_2 Zn 0.70191(9) 0.30242(9) 1.01260(4)
Zn1_3 Zn 0.70191(9) 1.30242(9) 1.01260(4)
Zn1A Zn 1.29809(9) 0.69758(9) 0.98740(4)
O14A O 0.4332(5) 0.6283(5) 0.5466(3)
Tb2A Tb 0.55373(4) 0.50711(3) 0.404619(15)
N1_2 N -0.4644(7) 0.2309(6) 0.0149(3)
N15_2 N -0.2564(7) 0.2429(7) -0.0567(3)
N20A N -0.2586(7) 0.4484(6) -0.0064(3)
O20? O 0.0228(11) 1.1997(13) 1.0371(6)
H60? H 0.049(2) 1.222(4) 1.0081(9)
H61? H 0.076(3) 1.206(9) 1.063(2)
O21? O -0.1438(8) 1.0342(7) 0.9998(4)
H62? H -0.157(5) 1.031(3) 1.0334(9)
H63? H -0.1482(16) 1.0870(13) 0.9890(19)
O22? O 0.1966(10) 1.1507(9) 1.1069(6)
H64? H 0.203(4) 1.099(2) 1.119(3)
H65? H 0.256(3) 1.188(5) 1.096(3)
O23? O 0.0542(14) 0.9230(12) 1.1210(7)
H66? H 0.001(6) 0.869(6) 1.104(7)
O24? O -0.0561(8) 1.0511(7) 1.1358(4)
H67? H -0.1170(15) 1.053(3) 1.141(4)
H68? H -0.007(3) 1.111(2) 1.136(5)
O25? O 0.1001(16) 1.1452(11) 0.9966(5)
H69? H 0.095(18) 1.117(3) 1.0264(11)
H70? H 0.084(12) 1.100(4) 0.9684(17)
Tb3? Tb 0.02612(8) 1.02366(8) 1.05034(4)
loop_
_geom_bond_atom_site_label_1
_geom_bond_atom_site_label_2
_geom_bond_site_symmetry_1
_geom_bond_site_symmetry_2
Tb1 O1 1_555 1_555
Zn1 N10 1_555 1_555
O1 H1 1_555 1_555
H2 O1 1_555 1_555
O2 Tb1 1_555 1_555
H3 O2 1_555 1_555
H4 O2 1_555 1_555
O3 Tb1 1_555 1_555
H5 O3 1_555 1_555
H6 O3 1_555 1_555
O4 Tb1 1_555 1_555
H7 O4 1_555 1_555
H8 O4 1_555 1_555
O5 Tb1 1_555 1_555
H9 O5 1_555 1_555
H10 O5 1_555 1_555
O6 Tb1 1_555 1_555
O7 H11 1_555 1_555
H12 O7 1_555 1_555
O8 Tb2 1_555 1_555
O9 Tb1 1_555 1_555
O10 Tb2 1_555 1_555
O11 Tb2 1_555 1_555
O12 Tb2 1_555 1_555
O13 Tb2 1_555 1_555
O14 C51 1_555 1_555
O15 Tb2 1_555 1_555
O16 Tb1 1_555 1_555
Tb2 O7 1_555 1_555
N1 N2 1_555 1_555
N2 N3 1_555 1_555
N3 N4 1_555 1_555
N4 C1 1_555 1_555
N5 N6 1_555 1_555
N6 N7 1_555 1_555
N7 H13 1_555 1_555
N8 N7 1_555 1_555
N9 N10 1_555 1_555
N10 N11 1_555 1_555
N11 N12 1_555 1_555
N12 C19 1_555 1_555
N13 N14 1_555 1_555
N14 N15 1_555 1_555
N15 N16 1_555 1_555
N16 C28 1_555 1_555
N17 N18 1_555 1_555
N18 N19 1_555 1_555
N19 N20 1_555 1_555
N20 C37 1_555 1_555
C1 N1 1_555 1_555
C2 C1 1_555 1_555
C3 C2 1_555 1_555
H14 C3 1_555 1_555
C4 C3 1_555 1_555
H15 C4 1_555 1_555
C5 C4 1_555 1_555
C6 C5 1_555 1_555
H16 C6 1_555 1_555
C7 C2 1_555 1_555
H17 C7 1_555 1_555
C8 C5 1_555 1_555
C9 C8 1_555 1_555
H18 C9 1_555 1_555
C10 N5 1_555 1_555
C11 C10 1_555 1_555
C12 C11 1_555 1_555
H19 C12 1_555 1_555
C13 C12 1_555 1_555
H20 C13 1_555 1_555
C14 C13 1_555 1_555
C15 C14 1_555 1_555
H21 C15 1_555 1_555
C16 C11 1_555 1_555
H22 C16 1_555 1_555
C17 C14 1_555 1_555
C18 C17 1_555 1_555
H23 C18 1_555 1_555
C19 N9 1_555 1_555
C20 C19 1_555 1_555
C21 C20 1_555 1_555
H24 C21 1_555 1_555
C22 C21 1_555 1_555
H25 C22 1_555 1_555
C23 C22 1_555 1_555
C24 C23 1_555 1_555
H26 C24 1_555 1_555
C25 C20 1_555 1_555
H27 C25 1_555 1_555
C26 C23 1_555 1_555
C27 C26 1_555 1_555
H28 C27 1_555 1_555
C28 N13 1_555 1_555
C29 C28 1_555 1_555
C30 C29 1_555 1_555
H29 C30 1_555 1_555
C31 C30 1_555 1_555
H30 C31 1_555 1_555
C32 C31 1_555 1_555
C33 C32 1_555 1_555
H31 C33 1_555 1_555
C34 C29 1_555 1_555
H32 C34 1_555 1_555
C35 C32 1_555 1_555
C36 C35 1_555 1_555
H33 C36 1_555 1_555
C37 N17 1_555 1_555
C38 C37 1_555 1_555
C39 C38 1_555 1_555
H34 C39 1_555 1_555
C40 C39 1_555 1_555
H35 C40 1_555 1_555
C41 C40 1_555 1_555
C42 C41 1_555 1_555
H36 C42 1_555 1_555
C43 C38 1_555 1_555
H37 C43 1_555 1_555
C44 C41 1_555 1_555
C45 C44 1_555 1_555
H38 C45 1_555 1_555
C46 C9 1_555 1_555
C47 C46 1_555 1_555
H39 C47 1_555 1_555
C48 C47 1_555 1_555
H40 C48 1_555 1_555
C49 C8 1_555 1_555
H41 C49 1_555 1_555
C50 O6 1_555 1_555
C51 O13 1_555 1_555
C52 C18 1_555 1_555
C53 C52 1_555 1_555
H42 C53 1_555 1_555
C54 C53 1_555 1_555
H43 C54 1_555 1_555
C55 C17 1_555 1_555
H44 C55 1_555 1_555
C56 O9 1_555 1_555
C57 C27 1_555 1_555
C58 C57 1_555 1_555
H45 C58 1_555 1_555
C59 C58 1_555 1_555
H46 C59 1_555 1_555
C60 C26 1_555 1_555
H47 C60 1_555 1_555
C61 O11 1_555 1_555
C62 C36 1_555 1_555
C63 C62 1_555 1_555
H48 C63 1_555 1_555
C64 C63 1_555 1_555
H49 C64 1_555 1_555
C65 C35 1_555 1_555
H50 C65 1_555 1_555
C66 C45 1_555 1_555
C67 C66 1_555 1_555
H51 C67 1_555 1_555
C68 C67 1_555 1_555
H52 C68 1_555 1_555
C69 C44 1_555 1_555
H53 C69 1_555 1_555
C70 O15 1_555 1_555
O17 H54 1_555 1_555
H55 O17 1_555 1_555
O18 H56 1_555 1_555
H57 O18 1_555 1_555
O19 H58 1_555 1_555
H59 O19 1_555 1_555
Zn1_2 N15 1_555 1_555
Zn1_3 N1 1_555 1_555
Zn1A N20 1_555 1_555
O14A Tb2 1_555 1_555
Tb2A O14 1_555 1_555
N1_2 Zn1 1_555 1_555
N15_2 Zn1 1_555 1_555
N20A Zn1 1_555 1_555
O8 C50 1_555 1_555
O10 C56 1_555 1_555
O12 C61 1_555 1_555
O16 C70 1_555 1_555
N8 C10 1_555 1_555
C6 C7 1_555 1_555
C15 C16 1_555 1_555
C24 C25 1_555 1_555
C33 C34 1_555 1_555
C42 C43 1_555 1_555
C46 C50 1_555 1_555
C48 C49 1_555 1_555
C51 C62 1_555 1_555
C52 C56 1_555 1_555
C54 C55 1_555 1_555
C57 C61 1_555 1_555
C59 C60 1_555 1_555
C64 C65 1_555 1_555
C66 C70 1_555 1_555
C68 C69 1_555 1_555

#END
