
#######################################################################
#
#                 Cambridge Crystallographic Data Centre
#                                CCDC 
#
#######################################################################
#
# If this CIF has been generated from an entry in the Cambridge 
# Structural Database, then it will include bibliographic, chemical, 
# crystal, experimental, refinement or atomic coordinate data resulting 
# from the CCDC's data processing and validation procedures.
#
#######################################################################

data_BICKEF
_symmetry_cell_setting           monoclinic
_symmetry_space_group_name_H-M   'P 21/n'
_symmetry_Int_Tables_number      14
_space_group_name_Hall           '-P 2yn'
loop_
_symmetry_equiv_pos_site_id
_symmetry_equiv_pos_as_xyz
1 x,y,z
2 1/2-x,1/2+y,1/2-z
3 -x,-y,-z
4 1/2+x,1/2-y,1/2+z
_cell_length_a                   24.1311(16)
_cell_length_b                   23.3088(16)
_cell_length_c                   40.600(3)
_cell_angle_alpha                90
_cell_angle_beta                 91.4810(10)
_cell_angle_gamma                90
_cell_volume                     22828.5
loop_
_atom_site_label
_atom_site_type_symbol
_atom_site_fract_x
_atom_site_fract_y
_atom_site_fract_z
Br1 Br 1.02355(6) 0.48292(6) 0.07270(4)
O105 O 0.7520(4) 0.6433(6) 0.1196(4)
O106 O 0.7063(7) 0.5713(5) 0.1077(4)
C143 C 0.6028(6) 0.7288(8) 0.1394(7)
H97 H 0.5952 0.7678 0.1381
C144 C 0.6544(7) 0.7070(6) 0.1322(7)
H98 H 0.6866 0.7283 0.1299
C145 C 0.6500(5) 0.6484(6) 0.1292(6)
C146 C 0.6085(6) 0.6089(8) 0.1363(6)
H99 H 0.6144 0.5696 0.1345
C147 C 0.5570(8) 0.6312(6) 0.1463(7)
H100 H 0.5252 0.6103 0.1506
C148 C 0.7044(5) 0.6233(5) 0.1165(5)
N24 N 0.5630(8) 0.6897(6) 0.1486(6)
O107 O 1.3897(5) 0.4901(5) 0.2101(3)
O108 O 0.9873(8) 1.3778(9) -0.2436(5)
K1 K 0.4533(4) 2.0462(4) -0.0821(2)
O109 O 0.3809(9) 2.0115(9) -0.1087(6)
O110 O 0.4683(9) 2.1215(10) -0.1227(6)
O111 O 0.9975(5) 0.1393(5) 0.0493(3)
O112 O 0.9895(5) 0.2506(6) 0.2365(3)
O113 O 0.4737(16) 1.9158(17) -0.0013(10)
O114 O 0.5972(10) 2.0242(11) -0.1424(6)
O115 O 0.4898(12) 1.8752(12) -0.0945(7)
O116 O 0.8885(16) 1.3973(17) -0.2641(10)
Ho1 Ho 1.08292(2) 1.63043(2) -0.145239(13)
O1 O 1.1681(3) 1.6070(3) -0.12016(19)
O2 O 1.0115(3) 1.6391(3) -0.10707(18)
O3 O 1.1353(3) 1.5593(3) -0.17857(19)
O4 O 1.1047(3) 1.7051(3) -0.10793(18)
O5 O 1.0216(3) 1.7161(3) -0.15653(19)
O6 O 1.0799(3) 1.5374(3) -0.12143(18)
O7 O 1.1289(4) 1.6836(4) -0.1841(2)
O8 O 1.0232(4) 1.5969(4) -0.1865(2)
Ho2 Ho 1.15721(2) 1.53467(2) -0.082080(13)
Ho3 Ho 1.22620(2) 1.57244(2) -0.160598(14)
Ho4 Ho 1.05348(2) 1.68983(2) -0.061189(13)
Ho5 Ho 0.93672(2) 1.70046(2) -0.125084(14)
Ho6 Ho 1.09903(2) 1.46536(2) -0.159056(13)
Ho7 Ho 1.06971(3) 1.79132(2) -0.132583(14)
C1 C 1.1524(6) 1.7334(6) -0.1833(3)
C2 C 1.0259(6) 1.5529(6) -0.2055(3)
O9 O 1.2153(3) 1.5946(3) -0.05248(19)
O10 O 1.1846(3) 1.4925(3) -0.13193(18)
O11 O 1.1089(3) 1.4523(3) -0.06572(19)
O12 O 1.0952(3) 1.5985(3) -0.05430(19)
O13 O 1.1583(3) 1.5190(3) -0.0165(2)
O14 O 1.2274(3) 1.4753(3) -0.06180(19)
O15 O 1.2516(4) 1.6681(4) -0.1493(2)
O16 O 1.2568(4) 1.4858(4) -0.1872(2)
O17 O 1.2954(4) 1.5603(4) -0.1227(2)
O18 O 1.2244(4) 1.6050(4) -0.2175(2)
O19 O 1.3072(4) 1.5967(4) -0.1942(2)
O20 O 1.1400(3) 1.7079(3) -0.03759(19)
O21 O 1.0340(3) 1.7579(3) -0.02208(18)
O22 O 1.0039(3) 1.7559(3) -0.09444(19)
O23 O 0.9710(3) 1.6562(3) -0.03639(18)
O24 O 1.0677(3) 1.6583(3) 0.00408(19)
O25 O 0.8347(3) 1.6904(3) -0.13748(19)
O26 O 0.8956(3) 1.6252(3) -0.09501(18)
O27 O 0.8860(3) 1.7398(3) -0.0815(2)
O28 O 0.9160(4) 1.7870(4) -0.1508(2)
O29 O 0.9230(4) 1.6563(4) -0.1752(2)
O30 O 1.1352(3) 1.3804(3) -0.13450(18)
O31 O 1.0514(3) 1.3815(3) -0.18244(19)
O32 O 1.0318(3) 1.4249(3) -0.12451(19)
O33 O 1.0316(3) 1.5019(3) -0.1957(2)
O34 O 1.1521(4) 1.4376(4) -0.2033(2)
O35 O 1.0598(4) 1.8257(4) -0.1905(2)
O36 O 1.1172(4) 1.8249(4) -0.0865(2)
O37 O 1.1523(4) 1.7660(3) -0.1591(2)
O38 O 1.1054(4) 1.8805(4) -0.1556(2)
O39 O 1.0000(4) 1.8651(4) -0.1271(2)
C3 C 1.1792(5) 1.7542(5) -0.2137(3)
C4 C 1.0237(7) 1.5623(7) -0.2406(4)
Ho8 Ho 1.16350(2) 1.62392(2) -0.008845(13)
Ho9 Ho 1.28398(2) 1.53461(3) -0.025593(14)
Ho10 Ho 1.08267(2) 1.36109(2) -0.088212(13)
Ho11 Ho 1.18029(3) 1.41681(2) -0.025347(14)
Ho12 Ho 1.19736(2) 1.50705(2) 0.047966(13)
C5 C 1.2564(5) 1.6993(5) -0.1241(3)
Ho13 Ho 1.11856(3) 1.76842(2) 0.006777(14)
Ho14 Ho 0.97979(2) 1.71148(2) 0.016848(13)
Ho15 Ho 0.87364(2) 1.66628(2) -0.042839(13)
Ho16 Ho 1.09549(2) 1.65770(2) 0.068923(13)
Ho17 Ho 0.80892(2) 1.59789(2) -0.118984(14)
Ho18 Ho 0.79664(3) 1.75976(2) -0.102883(15)
C6 C 0.8724(6) 1.8142(6) -0.1602(3)
C7 C 0.8899(11) 1.6161(11) -0.1847(7)
Ho19 Ho 1.11398(2) 1.30837(2) -0.173348(14)
Ho20 Ho 0.96730(2) 1.36152(2) -0.152884(14)
C8 C 1.1427(5) 1.4041(5) -0.2283(3)
C9 C 1.0911(5) 1.8657(5) -0.1849(3)
C10 C 1.1505(5) 1.8403(5) -0.0645(3)
C11 C 1.1584(6) 1.7426(6) -0.2444(4)
C12 C 1.2219(6) 1.7912(6) -0.2130(4)
C13 C 1.0374(11) 1.6195(12) -0.2537(7)
C14 C 1.0166(7) 1.5196(8) -0.2643(5)
O40 O 1.2471(4) 1.6880(4) -0.0116(2)
O41 O 1.2375(3) 1.5786(3) 0.0183(2)
O42 O 1.1621(3) 1.6920(3) 0.03359(18)
O43 O 1.1248(3) 1.5740(3) 0.04164(19)
O44 O 1.2475(3) 1.4597(3) 0.0082(2)
O45 O 1.3172(4) 1.6313(4) -0.0196(2)
O46 O 1.0421(3) 1.3082(3) -0.13091(18)
O47 O 1.1706(3) 1.3472(3) -0.06636(18)
O48 O 1.0769(3) 1.2747(3) -0.0620(2)
O49 O 0.9988(3) 1.3666(3) -0.05968(19)
O50 O 1.0927(3) 1.3627(3) -0.01890(19)
O51 O 1.2791(6) 1.3657(5) -0.0363(4)
O52 O 1.1947(3) 1.3322(3) 0.00411(19)
O53 O 1.1395(3) 1.4317(3) 0.03117(19)
O54 O 1.2268(4) 1.6980(4) -0.0990(2)
C15 C 1.3060(6) 1.7394(6) -0.1221(3)
O55 O 1.1880(4) 1.8134(4) 0.0371(2)
O56 O 1.1439(4) 1.8292(4) -0.0345(2)
O57 O 1.0767(4) 1.8531(4) 0.0232(2)
O58 O 1.0560(3) 1.7424(3) 0.04848(19)
O59 O 0.8981(3) 1.7407(3) -0.00869(19)
O60 O 0.9696(4) 1.8225(4) 0.0288(2)
O61 O 0.7944(3) 1.6684(3) -0.0774(2)
O62 O 0.8470(3) 1.5094(3) -0.09936(18)
O63 O 0.7506(3) 1.5559(3) -0.0799(2)
O64 O 0.7612(3) 1.5160(3) -0.1436(2)
O65 O 0.8536(4) 1.5800(4) -0.1703(2)
O66 O 0.7191(4) 1.6261(4) -0.1393(2)
O67 O 0.8252(4) 1.8068(4) -0.1496(2)
O68 O 0.8282(5) 1.8528(5) -0.0866(3)
O69 O 0.7148(4) 1.7231(4) -0.1235(3)
O70 O 0.7561(4) 1.7754(4) -0.0526(3)
O71 O 0.7231(6) 1.8293(6) -0.1218(4)
C16 C 0.8787(5) 1.8533(6) -0.1895(4)
C17 C 0.8852(9) 1.6052(7) -0.2240(6)
O72 O 1.1323(4) 1.3522(4) -0.2254(2)
O73 O 1.1407(4) 1.2470(4) -0.1318(2)
O74 O 1.0478(4) 1.2470(4) -0.1922(2)
N1 N 1.1574(5) 1.2284(4) -0.2112(3)
O75 O 1.2123(4) 1.3188(4) -0.1739(2)
O76 O 0.9284(3) 1.2945(3) -0.11640(19)
O77 O 0.9146(3) 1.4108(3) -0.11370(19)
O78 O 0.8659(3) 1.3509(3) -0.1630(2)
O79 O 0.9593(4) 1.2824(4) -0.1889(2)
O80 O 0.9385(6) 1.4126(6) -0.2032(4)
C18 C 1.1464(5) 1.4314(5) -0.2621(3)
C19 C 1.1156(5) 1.8997(5) -0.2127(3)
C20 C 1.1977(6) 1.8771(6) -0.0715(4)
C21 C 1.1833(7) 1.7655(7) -0.2719(5)
H1 H 1.1273 1.7192 -0.2470
H2 H 1.2365 1.8032 -0.1927
C22 C 1.2452(7) 1.8124(7) -0.2418(4)
C23 C 1.0371(13) 1.6284(14) -0.2896(8)
H3 H 1.0461 1.6497 -0.2395
H4 H 1.0120 1.4818 -0.2577
C24 C 1.0163(9) 1.5326(9) -0.2977(6)
C25 C 1.2979(6) 1.6805(6) -0.0145(4)
Ho21 Ho 1.16639(3) 1.25965(2) -0.035083(15)
C26 C 1.2972(5) 1.3129(4) -0.0403(6)
C27 C 1.3136(7) 1.7760(7) -0.0970(4)
C28 C 1.3455(7) 1.7368(7) -0.1466(5)
C29 C 1.1907(6) 1.8175(5) 0.0681(3)
Ho22 Ho 1.15881(3) 1.73368(3) 0.138320(15)
Ho23 Ho 0.82071(2) 1.42865(2) -0.132042(14)
Ho24 Ho 0.68614(3) 1.50671(3) -0.109499(16)
C30 C 0.6989(8) 1.6786(8) -0.1371(5)
C31 C 0.8626(7) 1.8733(7) -0.0662(4)
C32 C 0.7597(5) 1.8077(5) -0.0277(3)
C33 C 0.8337(5) 1.8848(6) -0.2001(4)
C34 C 0.9291(7) 1.8618(7) -0.2028(4)
C35 C 0.9111(10) 1.6443(9) -0.2438(4)
C36 C 0.8599(10) 1.5555(9) -0.2347(4)
C37 C 1.1678(6) 1.2116(6) -0.1139(3)
C38 C 0.9968(6) 1.2451(6) -0.1971(3)
C39 C 1.1331(6) 1.2192(6) -0.2411(3)
C40 C 1.2025(6) 1.1984(5) -0.2050(4)
C41 C 1.1290(7) 1.4021(7) -0.2886(4)
C42 C 1.1667(6) 1.4845(6) -0.2662(4)
C43 C 1.1049(6) 1.8871(6) -0.2447(3)
C44 C 1.1537(6) 1.9446(6) -0.2073(4)
C45 C 1.2122(6) 1.8889(6) -0.1041(4)
C46 C 1.2350(6) 1.8977(6) -0.0477(4)
H5 H 1.1692 1.7551 -0.2926
N2 N 1.2244(5) 1.8001(5) -0.2704(3)
H6 H 1.2763 1.8359 -0.2402
H7 H 1.0432 1.6646 -0.2983
N3 N 1.0281(10) 1.5841(10) -0.3091(6)
H8 H 1.0074 1.5037 -0.3127
C47 C 1.3362(8) 1.7293(8) -0.0108(5)
O81 O 1.1204(4) 1.1678(4) -0.0391(2)
O82 O 1.1871(4) 1.2225(4) -0.0862(2)
O83 O 1.2617(4) 1.2733(4) -0.0425(3)
O84 O 1.2103(4) 1.2006(4) 0.0035(3)
O85 O 0.8259(3) 1.3422(3) -0.10206(19)
C48 C 1.3542(7) 1.2790(11) -0.0431(8)
C49 C 1.3611(9) 1.8094(10) -0.0949(6)
H9 H 1.2871 1.7790 -0.0809
H10 H 1.3415 1.7116 -0.1643
C50 C 1.3919(9) 1.7736(9) -0.1436(6)
O86 O 1.1639(4) 1.7868(4) 0.0882(2)
C51 C 1.2301(7) 1.8625(7) 0.0823(4)
O87 O 0.7553(3) 1.4404(3) -0.08979(19)
O88 O 0.7446(4) 1.3896(4) -0.1626(2)
O89 O 0.8581(4) 1.4757(4) -0.1780(2)
O90 O 0.6114(4) 1.5271(4) -0.1456(2)
O91 O 0.6352(4) 1.5833(4) -0.0844(2)
O92 O 0.6698(4) 1.4242(4) -0.1394(3)
O93 O 0.6414(5) 1.4605(5) -0.0707(3)
C52 C 0.6421(10) 1.6950(6) -0.1531(7)
O94 O 0.8978(5) 1.8437(5) -0.0506(3)
C53 C 0.8604(6) 1.9344(6) -0.0594(4)
C54 C 0.7200(9) 1.8528(9) -0.0243(4)
C55 C 0.8405(9) 1.9180(8) -0.2281(4)
H11 H 0.9607 1.8435 -0.1944
C56 C 0.9316(7) 1.8997(7) -0.2300(4)
C57 C 0.9101(10) 1.6376(8) -0.2777(4)
H12 H 0.9294 1.6756 -0.2343
H13 H 0.8430 1.5284 -0.2215
C58 C 0.8640(10) 1.5528(9) -0.2694(4)
C59 C 1.1762(6) 1.1528(6) -0.1274(4)
C60 C 0.9739(6) 1.1913(6) -0.2165(4)
H14 H 1.1018 1.2402 -0.2475
C61 C 1.1545(6) 1.1783(6) -0.2626(4)
H15 H 1.2198 1.2026 -0.1845
C62 C 1.2252(6) 1.1617(6) -0.2266(3)
O95 O 0.8124(5) 1.2570(5) -0.1929(3)
O96 O 0.8977(4) 1.1851(4) -0.1455(2)
O97 O 0.7478(4) 1.2636(4) -0.1278(2)
C63 C 1.1271(7) 1.4292(8) -0.3203(5)
H16 H 1.1180 1.3641 -0.2865
H17 H 1.1820 1.5043 -0.2483
C64 C 1.1648(8) 1.5088(9) -0.2960(5)
C65 C 1.1297(8) 1.9198(8) -0.2690(5)
H18 H 1.0812 1.8571 -0.2504
H19 H 1.1628 1.9569 -0.1861
C66 C 1.1774(7) 1.9702(7) -0.2344(4)
C67 C 1.2574(8) 1.9225(8) -0.1107(5)
H20 H 1.1910 1.8737 -0.1214
H21 H 1.2299 1.8877 -0.0258
C68 C 1.2780(8) 1.9313(8) -0.0550(5)
C69 C 1.3906(8) 1.7204(9) -0.0160(5)
C70 C 1.3214(9) 1.7809(8) 0.0012(5)
C71 C 1.0725(5) 1.1489(5) -0.0364(3)
H22 H 1.3468 1.2390 -0.0466
H23 H 1.3757 1.2838 -0.0230
H24 H 1.3745 1.2939 -0.0612
H25 H 1.3668 1.8327 -0.0766
N4 N 1.3981(7) 1.8094(7) -0.1178(4)
H26 H 1.4186 1.7731 -0.1597
C72 C 1.2654(9) 1.8905(9) 0.0627(6)
C73 C 1.2284(8) 1.8806(8) 0.1152(5)
C74 C 0.6927(6) 1.3914(6) -0.1586(3)
C75 C 0.6474(6) 1.6241(6) -0.0649(4)
C76 C 0.6210(5) 1.4545(7) -0.0423(4)
C77 C 0.6157(7) 1.6555(9) -0.1723(6)
C78 C 0.6223(7) 1.7503(8) -0.1515(7)
C79 C 0.8692(8) 1.9733(9) -0.0818(6)
C80 C 0.8562(10) 1.9565(10) -0.0283(6)
C81 C 0.6837(7) 1.8714(8) -0.0478(5)
C82 C 0.7114(8) 1.8805(9) 0.0045(5)
H27 H 0.8092 1.9361 -0.2370
N5 N 0.8884(7) 1.9262(6) -0.2434(4)
H28 H 0.9661 1.9064 -0.2389
H29 H 0.9261 1.6655 -0.2908
N6 N 0.8860(9) 1.5904(8) -0.2920(5)
H30 H 0.8491 1.5196 -0.2788
C83 C 1.2215(8) 1.1205(8) -0.1195(5)
C84 C 1.1384(8) 1.1283(7) -0.1495(4)
C85 C 0.9175(8) 1.1896(9) -0.2279(5)
C86 C 1.0091(7) 1.1452(6) -0.2199(4)
H31 H 1.1351 1.1698 -0.2821
C87 C 1.2000(5) 1.1523(5) -0.2562(3)
H32 H 1.2581 1.1430 -0.2211
C88 C 0.7902(8) 1.2109(9) -0.1990(5)
C89 C 0.9437(6) 1.1657(6) -0.1335(4)
C90 C 0.7161(5) 1.2774(5) -0.1052(3)
H33 H 1.1111 1.4101 -0.3383
N7 N 1.1481(7) 1.4815(7) -0.3243(4)
H34 H 1.1756 1.5469 -0.2975
H35 H 1.1179 1.9129 -0.2907
N8 N 1.1663(5) 1.9575(5) -0.2647(3)
H36 H 1.2035 1.9988 -0.2303
H37 H 1.2650 1.9318 -0.1325
N9 N 1.2900(6) 1.9416(6) -0.0869(4)
H38 H 1.2996 1.9476 -0.0381
C91 C 1.4274(14) 1.7644(14) -0.0080(8)
H39 H 1.4030 1.6859 -0.0247
H40 H 1.2841 1.7871 0.0050
C92 C 1.3564(12) 1.8232(13) 0.0080(7)
C93 C 1.0690(6) 1.0853(6) -0.0429(4)
C94 C 1.3130(14) 1.9198(14) 0.0782(9)
H41 H 1.2597 1.8912 0.0399
H42 H 1.2012 1.8667 0.1290
C95 C 1.2685(9) 1.9203(10) 0.1272(6)
O98 O 0.6695(4) 1.4437(4) 0.0719(3)
O99 O 0.6590(4) 1.5480(4) 0.0351(3)
O100 O 0.6485(5) 1.4675(5) -0.0177(3)
C96 C 0.6578(6) 1.3550(6) -0.1781(4)
O101 O 0.6889(4) 1.6285(4) -0.0471(2)
C97 C 0.6095(6) 1.6746(6) -0.0647(4)
C98 C 0.5577(6) 1.4358(10) -0.0391(6)
C99 C 0.5645(7) 1.6708(7) -0.1866(7)
H43 H 0.6312 1.6196 -0.1758
H44 H 0.6439 1.7786 -0.1414
C100 C 0.5709(7) 1.7642(9) -0.1647(6)
C101 C 0.8783(10) 2.0323(11) -0.0727(7)
H45 H 0.8695 1.9628 -0.1039
H46 H 0.8468 1.9313 -0.0116
C102 C 0.8647(9) 2.0121(9) -0.0202(6)
C103 C 0.6500(8) 1.9185(7) -0.0455(4)
H47 H 0.6814 1.8505 -0.0673
H48 H 0.7359 1.8734 0.0221
C104 C 0.6678(8) 1.9193(9) 0.0094(5)
C105 C 1.2263(10) 1.0681(10) -0.1349(6)
H49 H 1.2482 1.1333 -0.1042
H50 H 1.1067 1.1480 -0.1566
C106 C 1.1492(8) 1.0744(8) -0.1606(5)
C107 C 0.8996(10) 1.1451(10) -0.2478(6)
H51 H 0.8930 1.2183 -0.2220
H52 H 1.0447 1.1453 -0.2106
C108 C 0.9893(7) 1.0989(7) -0.2378(4)
C109 C 1.2240(5) 1.1128(5) -0.2828(3)
O102 O 0.7860(7) 1.1682(8) -0.1842(5)
C110 C 0.7698(8) 1.2075(6) -0.2375(4)
O103 O 0.9805(4) 1.1918(4) -0.1152(3)
C111 C 0.9586(7) 1.1029(6) -0.1404(4)
O104 O 0.7251(4) 1.3105(4) -0.0814(3)
C112 C 0.6572(7) 1.2461(6) -0.1073(3)
H53 H 1.4655 1.7586 -0.0080
N10 N 1.4062(11) 1.8148(12) -0.0005(7)
H54 H 1.3453 1.8569 0.0182
C113 C 1.0238(8) 1.0564(8) -0.0342(5)
C114 C 1.1083(6) 1.0605(5) -0.0624(4)
H55 H 1.3467 1.9231 0.0678
N11 N 1.3058(9) 1.9403(10) 0.1065(6)
H56 H 1.2688 1.9321 0.1491
C115 C 0.6642(5) 1.4433(5) 0.1020(3)
C116 C 0.6020(7) 1.3517(7) -0.1727(4)
C117 C 0.6781(7) 1.3206(7) -0.2019(4)
C118 C 0.6183(9) 1.7183(8) -0.0459(5)
C119 C 0.5666(10) 1.6710(11) -0.0834(6)
H57 H 0.5488 1.4335 -0.0163
H58 H 0.5521 1.3990 -0.0493
H59 H 0.5342 1.4637 -0.0499
H60 H 0.5454 1.6438 -0.1994
N12 N 0.5414(9) 1.7235(7) -0.1825(6)
H61 H 0.5562 1.8006 -0.1616
H62 H 0.8891 2.0581 -0.0888
N13 N 0.8724(7) 2.0495(7) -0.0451(5)
H63 H 0.8652 2.0241 0.0017
H64 H 0.6299 1.9307 -0.0640
N14 N 0.6452(10) 1.9474(9) -0.0171(4)
H65 H 0.6547 1.9257 0.0304
H66 H 1.2596 1.0487 -0.1314
N15 N 1.1901(8) 1.0430(8) -0.1535(5)
H67 H 1.1230 1.0588 -0.1752
H68 H 0.8661 1.1455 -0.2596
N16 N 0.9368(8) 1.0993(8) -0.2484(5)
H69 H 1.0123 1.0680 -0.2423
C120 C 0.7491(9) 1.1576(7) -0.2496(4)
C121 C 0.7781(8) 1.2501(7) -0.2596(3)
C122 C 1.0070(7) 1.0787(7) -0.1302(4)
C123 C 0.9196(8) 1.0696(7) -0.1580(4)
C124 C 0.6211(5) 1.2674(7) -0.0850(4)
C125 C 0.6458(5) 1.2076(6) -0.1318(4)
C126 C 1.0235(12) 0.9957(12) -0.0410(7)
H70 H 0.9941 1.0745 -0.0243
C127 C 1.1004(9) 1.0024(6) -0.0700(6)
C128 C 0.6074(7) 1.4460(9) 0.1143(3)
C129 C 0.5659(8) 1.3152(8) -0.1927(5)
H71 H 0.5870 1.3733 -0.1559
H72 H 0.7161 1.3199 -0.2052
C130 C 0.6427(7) 1.2857(7) -0.2218(4)
C131 C 0.5843(11) 1.7705(12) -0.0447(7)
H73 H 0.6490 1.7166 -0.0316
H74 H 0.5575 1.6373 -0.0945
C132 C 0.5324(12) 1.7227(12) -0.0865(7)
C133 C 0.7396(9) 1.1542(7) -0.2827(3)
H75 H 0.7417 1.1269 -0.2358
H76 H 0.8003 1.2812 -0.2535
C134 C 0.7542(7) 1.2486(7) -0.2913(4)
C135 C 1.0161(8) 1.0200(8) -0.1368(5)
H77 H 1.0339 1.1003 -0.1190
H78 H 0.8863 1.0853 -0.1657
C136 C 0.9331(7) 1.0093(7) -0.1639(4)
C137 C 0.5703(5) 1.2418(6) -0.0906(4)
H79 H 0.6294 1.2945 -0.0689
H80 H 0.6727 1.1998 -0.1471
C138 C 0.5960(5) 1.1801(7) -0.1345(4)
H81 H 0.9936 0.9744 -0.0337
N17 N 1.0615(7) 0.9690(7) -0.0564(4)
H82 H 1.1234 0.9858 -0.0854
C139 C 0.5615(5) 1.4538(10) 0.0944(5)
C140 C 0.5917(6) 1.4351(9) 0.1462(4)
H83 H 0.5283 1.3129 -0.1884
N18 N 0.5868(6) 1.2848(6) -0.2175(3)
H84 H 0.6578 1.2629 -0.2381
H85 H 0.5918 1.8012 -0.0306
N19 N 0.5425(10) 1.7692(10) -0.0655(6)
H86 H 0.5040 1.7245 -0.1023
H87 H 0.7443 1.1196 -0.2937
N20 N 0.7235(7) 1.2012(6) -0.2991(5)
H88 H 0.7590 1.2782 -0.3063
H89 H 1.0495 1.0037 -0.1298
N21 N 0.9796(6) 0.9871(6) -0.1524(4)
H90 H 0.9083 0.9864 -0.1760
H91 H 0.5410 1.2557 -0.0785
N22 N 0.5586(7) 1.1980(7) -0.1120(4)
H92 H 0.5882 1.1519 -0.1501
C141 C 0.5067(6) 1.4639(9) 0.1035(4)
H93 H 0.5674 1.4521 0.0718
H94 H 0.6175 1.4212 0.1616
C142 C 0.5376(5) 1.4448(10) 0.1551(5)
H95 H 0.4811 1.4830 0.0900
N23 N 0.4942(7) 1.4438(8) 0.1335(4)
H96 H 0.5308 1.4523 0.1771
O48B O 0.9231(3) 1.7253(3) 0.0620(2)
O49B O 1.0012(3) 1.6334(3) 0.05968(19)
O50B O 0.9073(3) 1.6373(3) 0.01890(19)
O52B O 0.8053(3) 1.6678(3) -0.00411(19)
O53B O 0.8605(3) 1.5683(3) -0.03117(19)
Ho14B Ho 1.02021(2) 1.28852(2) -0.016848(13)
Ho16B Ho 0.90451(2) 1.34230(2) -0.068923(13)
Ho15B Ho 1.12636(2) 1.33372(2) 0.042839(13)
Ho21B Ho 0.83361(3) 1.74035(2) 0.035083(15)
Ho11B Ho 0.81971(3) 1.58319(2) 0.025347(14)
Ho12B Ho 0.80264(2) 1.49295(2) -0.047966(13)
Ho22B Ho 0.84119(3) 1.26632(3) -0.138320(15)
O59B O 1.1019(3) 1.2593(3) 0.00869(19)
O58B O 0.9440(3) 1.2576(3) -0.04848(19)
O60B O 1.0304(4) 1.1775(4) -0.0288(2)
O24B O 0.9323(3) 1.3417(3) -0.00408(19)
O42B O 0.8379(3) 1.3080(3) -0.03359(18)
O43B O 0.8752(3) 1.4260(3) -0.04164(19)
O84B O 0.7897(4) 1.7994(4) -0.0035(3)
O44B O 0.7525(3) 1.5403(3) -0.0082(2)
O13B O 0.8417(3) 1.4810(3) 0.0165(2)
O14B O 0.7726(3) 1.5247(3) 0.06180(19)
O41B O 0.7625(3) 1.4214(3) -0.0183(2)
O86B O 0.8361(4) 1.2132(4) -0.0882(2)
Ho13B Ho 0.88144(3) 1.23158(2) -0.006777(14)
Ho8B Ho 0.83650(2) 1.37608(2) 0.008845(13)
Ho9B Ho 0.71602(2) 1.46539(3) 0.025593(14)
O9B O 0.7847(3) 1.4054(3) 0.05248(19)
O45B O 0.6828(4) 1.3687(4) 0.0196(2)
Ho3B Ho 0.77380(2) 1.42756(2) 0.160598(14)
O18A O 1.2756(4) 1.1050(4) -0.2825(2)
O19A O 1.1928(4) 1.0967(4) -0.3058(2)
O17B O 0.7046(4) 1.4397(4) 0.1227(2)
Ho3A Ho 1.27380(2) 1.07244(2) -0.339402(14)
K2? K 0.4779(7) 1.9857(8) -0.0785(4)
K3? K 0.4791(11) 1.9722(8) -0.0564(6)
O117? O 0.9540(6) 0.5221(6) 0.0076(4)
C149? C 1.0000 0.5000 0.0000
O118? O 1.0415(6) 0.5322(6) -0.0020(4)
O119? O 0.9937(6) 0.5530(6) 0.0041(4)
loop_
_geom_bond_atom_site_label_1
_geom_bond_atom_site_label_2
_geom_bond_site_symmetry_1
_geom_bond_site_symmetry_2
Ho1 O1 1_555 1_555
O1 Ho2 1_555 1_555
O2 Ho1 1_555 1_555
O3 Ho1 1_555 1_555
O4 Ho1 1_555 1_555
O5 Ho1 1_555 1_555
O6 Ho1 1_555 1_555
O7 Ho1 1_555 1_555
O8 Ho1 1_555 1_555
Ho2 O6 1_555 1_555
Ho3 O1 1_555 1_555
Ho4 O2 1_555 1_555
Ho5 O2 1_555 1_555
Ho6 O3 1_555 1_555
Ho7 O4 1_555 1_555
C1 O7 1_555 1_555
C2 O8 1_555 1_555
O9 Ho2 1_555 1_555
O10 Ho2 1_555 1_555
O11 Ho2 1_555 1_555
O12 Ho2 1_555 1_555
O13 Ho2 1_555 1_555
O14 Ho2 1_555 1_555
O15 Ho3 1_555 1_555
O16 Ho3 1_555 1_555
O17 Ho3 1_555 1_555
O18 Ho3 1_555 1_555
O19 Ho3 1_555 1_555
O20 Ho4 1_555 1_555
O21 Ho4 1_555 1_555
O22 Ho4 1_555 1_555
O23 Ho4 1_555 1_555
O24 Ho4 1_555 1_555
O25 Ho5 1_555 1_555
O26 Ho5 1_555 1_555
O27 Ho5 1_555 1_555
O28 Ho5 1_555 1_555
O29 Ho5 1_555 1_555
O30 Ho6 1_555 1_555
O31 Ho6 1_555 1_555
O32 Ho6 1_555 1_555
O33 Ho6 1_555 1_555
O34 Ho6 1_555 1_555
O35 Ho7 1_555 1_555
O36 Ho7 1_555 1_555
O37 Ho7 1_555 1_555
O38 Ho7 1_555 1_555
O39 Ho7 1_555 1_555
C3 C1 1_555 1_555
C4 C2 1_555 1_555
Ho8 O9 1_555 1_555
Ho9 O9 1_555 1_555
Ho10 O11 1_555 1_555
Ho11 O11 1_555 1_555
Ho12 O13 1_555 1_555
C5 O15 1_555 1_555
Ho13 O20 1_555 1_555
Ho14 O21 1_555 1_555
Ho15 O23 1_555 1_555
Ho16 O24 1_555 1_555
Ho17 O25 1_555 1_555
Ho18 O25 1_555 1_555
C6 O28 1_555 1_555
C7 O29 1_555 1_555
Ho19 O30 1_555 1_555
Ho20 O31 1_555 1_555
C8 O34 1_555 1_555
C9 O35 1_555 1_555
C10 O36 1_555 1_555
C11 C3 1_555 1_555
C12 C3 1_555 1_555
C13 C4 1_555 1_555
C14 C4 1_555 1_555
O40 Ho8 1_555 1_555
O41 Ho8 1_555 1_555
O42 Ho8 1_555 1_555
O43 Ho8 1_555 1_555
O44 Ho9 1_555 1_555
O45 Ho9 1_555 1_555
O46 Ho10 1_555 1_555
O47 Ho10 1_555 1_555
O48 Ho10 1_555 1_555
O49 Ho10 1_555 1_555
O50 Ho10 1_555 1_555
O51 Ho11 1_555 1_555
O52 Ho11 1_555 1_555
O53 Ho11 1_555 1_555
O54 C5 1_555 1_555
C15 C5 1_555 1_555
O55 Ho13 1_555 1_555
O56 Ho13 1_555 1_555
O57 Ho13 1_555 1_555
O58 Ho13 1_555 1_555
O59 Ho14 1_555 1_555
O60 Ho14 1_555 1_555
O61 Ho15 1_555 1_555
O62 Ho17 1_555 1_555
O63 Ho17 1_555 1_555
O64 Ho17 1_555 1_555
O65 Ho17 1_555 1_555
O66 Ho17 1_555 1_555
O67 Ho18 1_555 1_555
O68 Ho18 1_555 1_555
O69 Ho18 1_555 1_555
O70 Ho18 1_555 1_555
O71 Ho18 1_555 1_555
C16 C6 1_555 1_555
C17 C7 1_555 1_555
O72 Ho19 1_555 1_555
O73 Ho19 1_555 1_555
O74 Ho19 1_555 1_555
N1 Ho19 1_555 1_555
O75 Ho19 1_555 1_555
O76 Ho20 1_555 1_555
O77 Ho20 1_555 1_555
O78 Ho20 1_555 1_555
O79 Ho20 1_555 1_555
O80 Ho20 1_555 1_555
C18 C8 1_555 1_555
C19 C9 1_555 1_555
C20 C10 1_555 1_555
C21 C11 1_555 1_555
H1 C11 1_555 1_555
H2 C12 1_555 1_555
C22 C12 1_555 1_555
C23 C13 1_555 1_555
H3 C13 1_555 1_555
H4 C14 1_555 1_555
C24 C14 1_555 1_555
C25 O40 1_555 1_555
Ho21 O47 1_555 1_555
C26 O51 1_555 1_555
C27 C15 1_555 1_555
C28 C15 1_555 1_555
C29 O55 1_555 1_555
Ho22 O86 1_555 1_555
Ho23 O62 1_555 1_555
Ho24 O63 1_555 1_555
C30 O66 1_555 1_555
C31 O68 1_555 1_555
C32 O70 1_555 1_555
C33 C16 1_555 1_555
C34 C16 1_555 1_555
C35 C17 1_555 1_555
C36 C17 1_555 1_555
C37 O73 1_555 1_555
C38 O74 1_555 1_555
C39 N1 1_555 1_555
C40 N1 1_555 1_555
C41 C18 1_555 1_555
C42 C18 1_555 1_555
C43 C19 1_555 1_555
C44 C19 1_555 1_555
C45 C20 1_555 1_555
C46 C20 1_555 1_555
H5 C21 1_555 1_555
N2 C21 1_555 1_555
H6 C22 1_555 1_555
H7 C23 1_555 1_555
N3 C23 1_555 1_555
H8 C24 1_555 1_555
C47 C25 1_555 1_555
O81 Ho21 1_555 1_555
O82 Ho21 1_555 1_555
O83 Ho21 1_555 1_555
O84 Ho21 1_555 1_555
O85 Ho23 1_555 1_555
C48 C26 1_555 1_555
C49 C27 1_555 1_555
H9 C27 1_555 1_555
H10 C28 1_555 1_555
C50 C28 1_555 1_555
O86 C29 1_555 1_555
C51 C29 1_555 1_555
O87 Ho23 1_555 1_555
O88 Ho23 1_555 1_555
O89 Ho23 1_555 1_555
O90 Ho24 1_555 1_555
O91 Ho24 1_555 1_555
O92 Ho24 1_555 1_555
O93 Ho24 1_555 1_555
C52 C30 1_555 1_555
O94 C31 1_555 1_555
C53 C31 1_555 1_555
C54 C32 1_555 1_555
C55 C33 1_555 1_555
H11 C34 1_555 1_555
C56 C34 1_555 1_555
C57 C35 1_555 1_555
H12 C35 1_555 1_555
H13 C36 1_555 1_555
C58 C36 1_555 1_555
C59 C37 1_555 1_555
C60 C38 1_555 1_555
H14 C39 1_555 1_555
C61 C39 1_555 1_555
H15 C40 1_555 1_555
C62 C40 1_555 1_555
O95 C88 1_555 1_555
O96 C89 1_555 1_555
O97 C90 1_555 1_555
C63 C41 1_555 1_555
H16 C41 1_555 1_555
H17 C42 1_555 1_555
C64 C42 1_555 1_555
C65 C43 1_555 1_555
H18 C43 1_555 1_555
H19 C44 1_555 1_555
C66 C44 1_555 1_555
C67 C45 1_555 1_555
H20 C45 1_555 1_555
H21 C46 1_555 1_555
C68 C46 1_555 1_555
C69 C47 1_555 1_555
C70 C47 1_555 1_555
C71 O81 1_555 1_555
H22 C48 1_555 1_555
H23 C48 1_555 1_555
H24 C48 1_555 1_555
H25 C49 1_555 1_555
N4 C49 1_555 1_555
H26 C50 1_555 1_555
C72 C51 1_555 1_555
C73 C51 1_555 1_555
C74 O88 1_555 1_555
C75 O91 1_555 1_555
C76 O93 1_555 1_555
C77 C52 1_555 1_555
C78 C52 1_555 1_555
C79 C53 1_555 1_555
C80 C53 1_555 1_555
C81 C54 1_555 1_555
C82 C54 1_555 1_555
H27 C55 1_555 1_555
N5 C55 1_555 1_555
H28 C56 1_555 1_555
H29 C57 1_555 1_555
N6 C57 1_555 1_555
H30 C58 1_555 1_555
C83 C59 1_555 1_555
C84 C59 1_555 1_555
C85 C60 1_555 1_555
C86 C60 1_555 1_555
H31 C61 1_555 1_555
C87 C61 1_555 1_555
H32 C62 1_555 1_555
C88 O102 1_555 1_555
C89 O103 1_555 1_555
C90 O104 1_555 1_555
H33 C63 1_555 1_555
N7 C63 1_555 1_555
H34 C64 1_555 1_555
H35 C65 1_555 1_555
N8 C65 1_555 1_555
H36 C66 1_555 1_555
H37 C67 1_555 1_555
N9 C67 1_555 1_555
H38 C68 1_555 1_555
C91 C69 1_555 1_555
H39 C69 1_555 1_555
H40 C70 1_555 1_555
C92 C70 1_555 1_555
C93 C71 1_555 1_555
C94 C72 1_555 1_555
H41 C72 1_555 1_555
H42 C73 1_555 1_555
C95 C73 1_555 1_555
O98 C115 1_555 1_555
O99 Ho9B 1_555 1_555
O100 C76 1_555 1_555
C96 C74 1_555 1_555
O101 C75 1_555 1_555
C97 C75 1_555 1_555
C98 C76 1_555 1_555
C99 C77 1_555 1_555
H43 C77 1_555 1_555
H44 C78 1_555 1_555
C100 C78 1_555 1_555
C101 C79 1_555 1_555
H45 C79 1_555 1_555
H46 C80 1_555 1_555
C102 C80 1_555 1_555
C103 C81 1_555 1_555
H47 C81 1_555 1_555
H48 C82 1_555 1_555
C104 C82 1_555 1_555
C105 C83 1_555 1_555
H49 C83 1_555 1_555
H50 C84 1_555 1_555
C106 C84 1_555 1_555
C107 C85 1_555 1_555
H51 C85 1_555 1_555
H52 C86 1_555 1_555
C108 C86 1_555 1_555
C109 C87 1_555 1_555
C110 C88 1_555 1_555
C111 C89 1_555 1_555
C112 C90 1_555 1_555
H53 C91 1_555 1_555
N10 C91 1_555 1_555
H54 C92 1_555 1_555
C113 C93 1_555 1_555
C114 C93 1_555 1_555
H55 C94 1_555 1_555
N11 C94 1_555 1_555
H56 C95 1_555 1_555
C115 C128 1_555 1_555
C116 C96 1_555 1_555
C117 C96 1_555 1_555
C118 C97 1_555 1_555
C119 C97 1_555 1_555
H57 C98 1_555 1_555
H58 C98 1_555 1_555
H59 C98 1_555 1_555
H60 C99 1_555 1_555
N12 C99 1_555 1_555
H61 C100 1_555 1_555
H62 C101 1_555 1_555
N13 C101 1_555 1_555
H63 C102 1_555 1_555
H64 C103 1_555 1_555
N14 C103 1_555 1_555
H65 C104 1_555 1_555
H66 C105 1_555 1_555
N15 C105 1_555 1_555
H67 C106 1_555 1_555
H68 C107 1_555 1_555
N16 C107 1_555 1_555
H69 C108 1_555 1_555
C120 C110 1_555 1_555
C121 C110 1_555 1_555
C122 C111 1_555 1_555
C123 C111 1_555 1_555
C124 C112 1_555 1_555
C125 C112 1_555 1_555
C126 C113 1_555 1_555
H70 C113 1_555 1_555
C127 C114 1_555 1_555
C128 C139 1_555 1_555
C129 C116 1_555 1_555
H71 C116 1_555 1_555
H72 C117 1_555 1_555
C130 C117 1_555 1_555
C131 C118 1_555 1_555
H73 C118 1_555 1_555
H74 C119 1_555 1_555
C132 C119 1_555 1_555
C133 C120 1_555 1_555
H75 C120 1_555 1_555
H76 C121 1_555 1_555
C134 C121 1_555 1_555
C135 C122 1_555 1_555
H77 C122 1_555 1_555
H78 C123 1_555 1_555
C136 C123 1_555 1_555
C137 C124 1_555 1_555
H79 C124 1_555 1_555
H80 C125 1_555 1_555
C138 C125 1_555 1_555
H81 C126 1_555 1_555
N17 C126 1_555 1_555
H82 C127 1_555 1_555
C139 C141 1_555 1_555
C140 C128 1_555 1_555
H83 C129 1_555 1_555
N18 C129 1_555 1_555
H84 C130 1_555 1_555
H85 C131 1_555 1_555
N19 C131 1_555 1_555
H86 C132 1_555 1_555
H87 C133 1_555 1_555
N20 C133 1_555 1_555
H88 C134 1_555 1_555
H89 C135 1_555 1_555
N21 C135 1_555 1_555
H90 C136 1_555 1_555
H91 C137 1_555 1_555
N22 C137 1_555 1_555
H92 C138 1_555 1_555
C141 H95 1_555 1_555
H93 C139 1_555 1_555
H94 C140 1_555 1_555
C142 C140 1_555 1_555
N23 C141 1_555 1_555
H96 C142 1_555 1_555
O105 C148 1_555 1_555
O106 C148 1_555 1_555
C143 H97 1_555 1_555
C144 C143 1_555 1_555
H98 C144 1_555 1_555
C145 C144 1_555 1_555
C146 C145 1_555 1_555
H99 C146 1_555 1_555
C147 C146 1_555 1_555
H100 C147 1_555 1_555
C148 C145 1_555 1_555
N24 C143 1_555 1_555
K1 O109 1_555 1_555
O110 K1 1_555 1_555
O48B Ho14 1_555 1_555
O49B Ho14 1_555 1_555
O50B Ho14 1_555 1_555
O52B Ho15 1_555 1_555
O53B Ho15 1_555 1_555
Ho14B O48 1_555 1_555
Ho16B O49 1_555 1_555
Ho15B O50 1_555 1_555
Ho21B O59 1_555 1_555
Ho11B O50B 1_555 1_555
Ho12B O62 1_555 1_555
Ho22B O76 1_555 1_555
O59B Ho21 1_555 1_555
O58B Ho14B 1_555 1_555
O60B C71 1_555 1_555
O24B Ho14B 1_555 1_555
O42B Ho16B 1_555 1_555
O43B Ho16B 1_555 1_555
O84B C32 1_555 1_555
O44B Ho11B 1_555 1_555
O13B Ho11B 1_555 1_555
O14B Ho11B 1_555 1_555
O41B Ho12B 1_555 1_555
O86B Ho22B 1_555 1_555
Ho13B O58B 1_555 1_555
Ho8B O24B 1_555 1_555
Ho9B O98 1_555 1_555
O9B Ho8B 1_555 1_555
O45B Ho9B 1_555 1_555
Ho3B O17B 1_555 1_555
O18A C109 1_555 1_555
O19A C109 1_555 1_555
O17B C115 1_555 1_555
Ho3A O18A 1_555 1_555
O3 Ho3 1_555 1_555
O4 Ho4 1_555 1_555
O5 Ho5 1_555 1_555
O5 Ho7 1_555 1_555
O6 Ho6 1_555 1_555
Ho3 O10 1_555 1_555
Ho4 O12 1_555 1_555
Ho5 O22 1_555 1_555
Ho6 O10 1_555 1_555
Ho7 O22 1_555 1_555
C1 O37 1_555 1_555
C2 O33 1_555 1_555
O12 Ho8 1_555 1_555
O13 Ho8 1_555 1_555
O13 Ho11 1_555 1_555
O14 Ho9 1_555 1_555
O14 Ho11 1_555 1_555
O20 Ho8 1_555 1_555
O21 Ho13 1_555 1_555
O23 Ho14 1_555 1_555
O24 Ho8 1_555 1_555
O24 Ho13 1_555 1_555
O24 Ho14 1_555 1_555
O26 Ho15 1_555 1_555
O26 Ho17 1_555 1_555
O27 Ho15 1_555 1_555
O27 Ho18 1_555 1_555
O30 Ho10 1_555 1_555
O31 Ho19 1_555 1_555
O32 Ho10 1_555 1_555
O32 Ho20 1_555 1_555
O38 C9 1_555 1_555
Ho9 O41 1_555 1_555
Ho11 O44 1_555 1_555
Ho11 O47 1_555 1_555
Ho11 O50 1_555 1_555
Ho12 O41 1_555 1_555
Ho12 O43 1_555 1_555
Ho12 O44 1_555 1_555
Ho12 O53 1_555 1_555
Ho13 O42 1_555 1_555
Ho14 O58 1_555 1_555
Ho15 O59 1_555 1_555
Ho15 O50B 1_555 1_555
Ho16 O42 1_555 1_555
Ho16 O43 1_555 1_555
Ho16 O58 1_555 1_555
Ho16 O49B 1_555 1_555
Ho17 O61 1_555 1_555
Ho18 O61 1_555 1_555
C6 O67 1_555 1_555
C7 O65 1_555 1_555
Ho19 O46 1_555 1_555
Ho20 O46 1_555 1_555
C8 O72 1_555 1_555
C10 O56 1_555 1_555
O45 C25 1_555 1_555
O48 Ho21 1_555 1_555
O49 Ho14B 1_555 1_555
O50 Ho14B 1_555 1_555
O52 Ho21 1_555 1_555
O52 Ho15B 1_555 1_555
O53 Ho15B 1_555 1_555
O63 Ho12B 1_555 1_555
O64 Ho23 1_555 1_555
O64 Ho24 1_555 1_555
O69 C30 1_555 1_555
O76 Ho16B 1_555 1_555
O77 Ho23 1_555 1_555
O77 Ho16B 1_555 1_555
O78 Ho23 1_555 1_555
O78 Ho22B 1_555 1_555
O79 C38 1_555 1_555
C22 N2 1_555 1_555
C24 N3 1_555 1_555
C26 O83 1_555 1_555
Ho24 O87 1_555 1_555
C37 O82 1_555 1_555
O85 Ho16B 1_555 1_555
O85 Ho22B 1_555 1_555
C50 N4 1_555 1_555
O87 Ho12B 1_555 1_555
O92 C74 1_555 1_555
C56 N5 1_555 1_555
C58 N6 1_555 1_555
C62 C87 1_555 1_555
O95 Ho22B 1_555 1_555
O96 Ho22B 1_555 1_555
O97 Ho22B 1_555 1_555
C64 N7 1_555 1_555
C66 N8 1_555 1_555
C68 N9 1_555 1_555
C92 N10 1_555 1_555
C95 N11 1_555 1_555
O100 Ho9B 1_555 1_555
C100 N12 1_555 1_555
C102 N13 1_555 1_555
C104 N14 1_555 1_555
C106 N15 1_555 1_555
C108 N16 1_555 1_555
C127 N17 1_555 1_555
C130 N18 1_555 1_555
C132 N19 1_555 1_555
C134 N20 1_555 1_555
C136 N21 1_555 1_555
C138 N22 1_555 1_555
C142 N23 1_555 1_555
C147 N24 1_555 1_555
O48B Ho21B 1_555 1_555
O52B Ho21B 1_555 1_555
O52B Ho11B 1_555 1_555
O53B Ho11B 1_555 1_555
O53B Ho12B 1_555 1_555
Ho14B O59B 1_555 1_555
Ho14B O60B 1_555 1_555
Ho16B O58B 1_555 1_555
Ho16B O24B 1_555 1_555
Ho15B O59B 1_555 1_555
Ho21B O84B 1_555 1_555
Ho12B O43B 1_555 1_555
Ho12B O44B 1_555 1_555
Ho12B O13B 1_555 1_555
O24B Ho13B 1_555 1_555
O42B Ho13B 1_555 1_555
O42B Ho8B 1_555 1_555
O43B Ho8B 1_555 1_555
O44B Ho9B 1_555 1_555
O13B Ho8B 1_555 1_555
O14B Ho9B 1_555 1_555
O41B Ho8B 1_555 1_555
O41B Ho9B 1_555 1_555
Ho9B O9B 1_555 1_555
O19A Ho3A 1_555 1_555

#END
