
#######################################################################
#
#                 Cambridge Crystallographic Data Centre
#                                CCDC 
#
#######################################################################
#
# If this CIF has been generated from an entry in the Cambridge 
# Structural Database, then it will include bibliographic, chemical, 
# crystal, experimental, refinement or atomic coordinate data resulting 
# from the CCDC's data processing and validation procedures.
#
#######################################################################

data_BICNIL
_symmetry_cell_setting           monoclinic
_symmetry_space_group_name_H-M   'P 21/c'
_symmetry_Int_Tables_number      14
_space_group_name_Hall           '-P 2ybc'
loop_
_symmetry_equiv_pos_site_id
_symmetry_equiv_pos_as_xyz
1 x,y,z
2 x,1/2-y,1/2+z
3 -x,-y,-z
4 -x,1/2+y,1/2-z
_cell_length_a                   6.6946(13)
_cell_length_b                   13.635(3)
_cell_length_c                   12.950(3)
_cell_angle_alpha                90
_cell_angle_beta                 99.72(3)
_cell_angle_gamma                90
_cell_volume                     1165.12
loop_
_atom_site_label
_atom_site_type_symbol
_atom_site_fract_x
_atom_site_fract_y
_atom_site_fract_z
Co1 Co 0.0000 0.5000 0.5000
S1 S 0.5512(2) 0.31094(11) 0.68929(12)
O1 O 0.0630(6) 0.6027(3) 0.0807(3)
O2 O 0.2495(5) 0.5994(3) 0.5018(3)
N1 N 0.0442(6) 0.4370(3) 0.3527(3)
N2 N 0.3554(7) 0.5240(3) 0.0636(3)
N3 N 0.1953(7) 0.3975(3) 0.5841(3)
C1 C 0.0409(8) 0.3394(3) 0.3364(4)
H1 H 0.0130 0.2980 0.3892
C2 C 0.0774(8) 0.2990(4) 0.2442(4)
H2 H 0.0679 0.2315 0.2339
C3 C 0.1286(8) 0.3595(4) 0.1664(4)
H3 H 0.1561 0.3329 0.1041
C4 C 0.1383(7) 0.4608(4) 0.1827(4)
C5 C 0.0877(7) 0.4945(4) 0.2762(4)
H4 H 0.0838 0.5620 0.2862
C6 C 0.1826(8) 0.5345(4) 0.1051(4)
C7 C 0.5269(9) 0.4607(4) 0.1032(4)
C8 C 0.4020(9) 0.5946(4) -0.0141(4)
C9 C 0.3439(8) 0.3621(4) 0.6279(4)
C10 C 0.4107(9) 0.6158(5) 0.5877(5)
H5 H 0.5024 0.6638 0.5682
H6 H 0.4821 0.5554 0.6056
H7 H 0.3558 0.6391 0.6470
H8 H 0.527(8) 0.640(4) 0.026(4)
H9 H 0.489(8) 0.419(4) 0.150(4)
H10 H 0.289(8) 0.633(3) -0.036(4)
H11 H 0.634(11) 0.508(4) 0.140(5)
C8B C 0.5980(9) 0.4054(4) 0.0141(4)
N2B N 0.6446(7) 0.4760(3) -0.0636(3)
C6B C 0.8174(8) 0.4655(4) -0.1051(4)
O1B O 0.9370(6) 0.3973(3) -0.0807(3)
C4B C 0.8617(7) 0.5392(4) -0.1827(4)
C3B C 0.8714(8) 0.6405(4) -0.1664(4)
C2B C 0.9226(8) 0.7010(4) -0.2442(4)
C1B C 0.9591(8) 0.6606(3) -0.3364(4)
N1B N 0.9558(6) 0.5630(3) -0.3527(3)
C5B C 0.9123(7) 0.5055(4) -0.2762(4)
H4B H 0.9162 0.4380 -0.2862
H1B H 0.9870 0.7020 -0.3892
H2B H 0.9321 0.7685 -0.2339
H3B H 0.8439 0.6671 -0.1041
C7B C 0.4731(9) 0.5393(4) -0.1032(4)
H9B H 0.511(8) 0.581(4) -0.150(4)
H11B H 0.366(11) 0.492(4) -0.140(5)
H8B H 0.473(8) 0.360(4) -0.026(4)
H10B H 0.711(8) 0.367(3) 0.036(4)
O2B O -0.2495(5) 0.4006(3) 0.4982(3)
C10B C -0.4107(9) 0.3842(5) 0.4123(5)
H5B H -0.5024 0.3362 0.4318
H6B H -0.4821 0.4446 0.3944
H7B H -0.3558 0.3609 0.3530
S1B S -0.5512(2) 0.68906(11) 0.31071(12)
N3B N -0.1953(7) 0.6025(3) 0.4159(3)
C9B C -0.3439(8) 0.6379(4) 0.3721(4)
N1B_2 N -0.0442(6) 0.5630(3) 0.6473(3)
Co1_2 Co 1.0000 0.5000 -0.5000
loop_
_geom_bond_atom_site_label_1
_geom_bond_atom_site_label_2
_geom_bond_site_symmetry_1
_geom_bond_site_symmetry_2
Co1 O2 1_555 1_555
S1 C9 1_555 1_555
O1 C6 1_555 1_555
O2 C10 1_555 1_555
N1 Co1 1_555 1_555
N2 C6 1_555 1_555
N3 Co1 1_555 1_555
C1 N1 1_555 1_555
H1 C1 1_555 1_555
C2 C1 1_555 1_555
H2 C2 1_555 1_555
C3 C2 1_555 1_555
H3 C3 1_555 1_555
C4 C3 1_555 1_555
C5 N1 1_555 1_555
H4 C5 1_555 1_555
C6 C4 1_555 1_555
C7 N2 1_555 1_555
C8 N2 1_555 1_555
C9 N3 1_555 1_555
C10 H5 1_555 1_555
H6 C10 1_555 1_555
H7 C10 1_555 1_555
H8 C8 1_555 1_555
H9 C7 1_555 1_555
H10 C8 1_555 1_555
H11 C7 1_555 1_555
C8B C7 1_555 1_555
N2B C8B 1_555 1_555
C6B N2B 1_555 1_555
O1B C6B 1_555 1_555
C4B C6B 1_555 1_555
C3B C4B 1_555 1_555
C2B C3B 1_555 1_555
C1B C2B 1_555 1_555
N1B C1B 1_555 1_555
C5B C4B 1_555 1_555
H4B C5B 1_555 1_555
H1B C1B 1_555 1_555
H2B C2B 1_555 1_555
H3B C3B 1_555 1_555
C7B C8 1_555 1_555
H9B C7B 1_555 1_555
H11B C7B 1_555 1_555
H8B C8B 1_555 1_555
H10B C8B 1_555 1_555
O2B Co1 1_555 1_555
C10B O2B 1_555 1_555
H5B C10B 1_555 1_555
H6B C10B 1_555 1_555
H7B C10B 1_555 1_555
S1B C9B 1_555 1_555
N3B Co1 1_555 1_555
C9B N3B 1_555 1_555
N1B_2 Co1 1_555 1_555
Co1_2 N1B 1_555 1_555
C4 C5 1_555 1_555
N2B C7B 1_555 1_555
N1B C5B 1_555 1_555

#END
