
#######################################################################
#
#                 Cambridge Crystallographic Data Centre
#                                CCDC 
#
#######################################################################
#
# If this CIF has been generated from an entry in the Cambridge 
# Structural Database, then it will include bibliographic, chemical, 
# crystal, experimental, refinement or atomic coordinate data resulting 
# from the CCDC's data processing and validation procedures.
#
#######################################################################

data_BICVOZ
_symmetry_cell_setting           orthorhombic
_symmetry_space_group_name_H-M   'P b c n'
_symmetry_Int_Tables_number      60
_space_group_name_Hall           '-P 2n 2ab'
loop_
_symmetry_equiv_pos_site_id
_symmetry_equiv_pos_as_xyz
1 x,y,z
2 1/2+x,1/2+y,1/2-z
3 1/2-x,1/2+y,z
4 x,-y,1/2+z
5 -x,-y,-z
6 1/2-x,1/2-y,1/2+z
7 1/2+x,1/2-y,-z
8 -x,y,1/2-z
_cell_length_a                   43.203(8)
_cell_length_b                   19.245(4)
_cell_length_c                   17.168(3)
_cell_angle_alpha                90
_cell_angle_beta                 90
_cell_angle_gamma                90
_cell_volume                     14274.2
loop_
_atom_site_label
_atom_site_type_symbol
_atom_site_fract_x
_atom_site_fract_y
_atom_site_fract_z
Er1 Er -0.143550(11) -0.25042(2) -0.49196(2)
O1 O -0.10185(19) -0.2423(4) -0.4025(5)
N1 N -0.0717(2) -0.2478(5) -0.4140(6)
C1 C -0.0593(3) -0.3087(6) -0.4397(7)
H1 H -0.0723 -0.3477 -0.4486
C2 C -0.0276(3) -0.3136(6) -0.4527(7)
H2 H -0.0190 -0.3565 -0.4695
C3 C -0.0080(3) -0.2557(6) -0.4415(7)
C4 C -0.0220(3) -0.1965(6) -0.4124(7)
H3 H -0.0094 -0.1576 -0.4006
C5 C -0.0532(3) -0.1915(6) -0.3999(6)
H4 H -0.0619 -0.1492 -0.3816
C6 C 0.0254(3) -0.2601(6) -0.4584(7)
C7 C 0.0403(3) -0.3232(7) -0.4663(7)
H5 H 0.0290 -0.3646 -0.4564
C8 C 0.0711(3) -0.3282(7) -0.4881(8)
H6 H 0.0806 -0.3724 -0.4938
N2 N 0.0876(3) -0.2697(6) -0.5012(7)
C9 C 0.0738(3) -0.2054(7) -0.4917(9)
H7 H 0.0857 -0.1644 -0.4986
C10 C 0.0431(3) -0.2002(7) -0.4723(8)
H8 H 0.0337 -0.1557 -0.4683
O2 O 0.1160(2) -0.2750(6) -0.5274(7)
O3 O -0.10458(19) -0.2583(4) -0.5851(5)
N3 N -0.0758(2) -0.2425(5) -0.6020(5)
C11 C -0.0585(3) -0.2920(6) -0.6374(8)
H9 H -0.0672 -0.3361 -0.6494
C12 C -0.0281(3) -0.2770(6) -0.6557(7)
H10 H -0.0158 -0.3122 -0.6791
C13 C -0.0147(3) -0.2122(6) -0.6413(6)
C14 C -0.0343(3) -0.1624(6) -0.6080(7)
H11 H -0.0269 -0.1166 -0.5991
C15 C -0.0641(3) -0.1798(6) -0.5883(7)
H12 H -0.0768 -0.1459 -0.5640
C16 C 0.0177(3) -0.1983(6) -0.6603(7)
C17 C 0.0398(3) -0.2515(7) -0.6608(8)
H13 H 0.0336 -0.2971 -0.6467
C18 C 0.0701(3) -0.2400(6) -0.6811(8)
H14 H 0.0844 -0.2775 -0.6827
N4 N 0.0793(2) -0.1748(5) -0.6986(6)
C19 C 0.0589(3) -0.1206(7) -0.6985(8)
H15 H 0.0656 -0.0754 -0.7125
C20 C 0.0287(3) -0.1317(6) -0.6783(7)
H16 H 0.0148 -0.0933 -0.6764
O4 O 0.1083(2) -0.1637(5) -0.7199(6)
O5 O -0.12694(18) -0.1352(4) -0.4959(5)
N5 N -0.1351(2) -0.0860(5) -0.5466(5)
C21 C -0.1420(3) -0.0228(5) -0.5203(7)
H17 H -0.1421 -0.0145 -0.4658
C22 C -0.1490(3) 0.0308(6) -0.5704(7)
H18 H -0.1550 0.0747 -0.5501
C23 C -0.1474(3) 0.0211(6) -0.6503(6)
C24 C -0.1405(3) -0.0461(6) -0.6762(7)
H19 H -0.1400 -0.0552 -0.7306
C25 C -0.1343(3) -0.0995(6) -0.6249(7)
H20 H -0.1296 -0.1447 -0.6435
C26 C -0.1517(3) 0.0783(6) -0.7074(6)
C27 C -0.1458(3) 0.1467(6) -0.6884(8)
H21 H -0.1397 0.1584 -0.6369
C28 C -0.1486(3) 0.1983(6) -0.7445(8)
H22 H -0.1438 0.2450 -0.7313
N6 N -0.1577(2) 0.1834(5) -0.8162(5)
C29 C -0.1658(3) 0.1177(6) -0.8358(7)
H23 H -0.1739 0.1081 -0.8862
C30 C -0.1623(4) 0.0644(7) -0.7819(8)
O6 O -0.16104(18) 0.2349(4) -0.8675(4)
O7 O -0.16357(18) -0.2681(4) -0.6149(4)
N7 N -0.1586(2) -0.3181(5) -0.6660(5)
C31 C -0.1484(3) -0.3022(6) -0.7384(7)
H24 H -0.1444 -0.2551 -0.7514
C32 C -0.1439(3) -0.3533(6) -0.7936(6)
H25 H -0.1369 -0.3412 -0.8443
C33 C -0.1497(2) -0.4231(5) -0.7749(6)
C34 C -0.1601(3) -0.4370(5) -0.6994(6)
H26 H -0.1641 -0.4836 -0.6843
C35 C -0.1647(3) -0.3846(6) -0.6470(6)
H27 H -0.1722 -0.3953 -0.5964
C36 C -0.1447(3) -0.4788(5) -0.8322(7)
C37 C -0.1384(3) -0.5467(6) -0.8080(7)
H28 H -0.1383 -0.5573 -0.7539
C38 C -0.1323(3) -0.5988(5) -0.8616(7)
H29 H -0.1284 -0.6448 -0.8442
N8 N -0.1320(2) -0.5846(5) -0.9376(5)
C39 C -0.1386(3) -0.5203(5) -0.9647(6)
H30 H -0.1392 -0.5115 -1.0191
C40 C -0.1445(3) -0.4674(6) -0.9117(6)
H31 H -0.1485 -0.4220 -0.9307
O8 O -0.12543(19) -0.6344(4) -0.9892(5)
O9 O -0.18764(18) -0.1740(4) -0.5078(4)
N9 N -0.2071(2) -0.1708(5) -0.5675(5)
C41 C -0.2229(3) -0.2279(5) -0.5904(7)
H32 H -0.2218 -0.2695 -0.5607
C42 C -0.2287(3) -0.1052(6) -0.6689(7)
H33 H -0.2308 -0.0617 -0.6947
C43 C -0.2436(3) -0.1633(5) -0.6992(7)
C44 C -0.2406(3) -0.2253(5) -0.6563(7)
H34 H -0.2511 -0.2659 -0.6734
C45 C -0.2113(3) -0.1093(6) -0.6035(7)
H35 H -0.2020 -0.0685 -0.5828
C46 C -0.2605(3) -0.1638(6) -0.7742(7)
C47 C -0.2749(3) -0.1046(6) -0.8050(7)
H36 H -0.2727 -0.0615 -0.7785
C48 C -0.2919(3) -0.1068(6) -0.8716(7)
H37 H -0.3017 -0.0660 -0.8909
N10 N -0.2949(2) -0.1681(5) -0.9102(6)
C49 C -0.2795(3) -0.2256(5) -0.8868(6)
H38 H -0.2806 -0.2668 -0.9172
C50 C -0.2623(3) -0.2249(6) -0.8192(7)
H39 H -0.2516 -0.2656 -0.8029
O10 O -0.31347(17) -0.1716(4) -0.9707(4)
O6C O -0.16104(18) -0.2349(4) -0.3675(4)
O8C O -0.12543(19) -0.3656(4) -0.4892(5)
O10E O -0.18653(17) -0.3284(4) -0.4707(4)
Er1C Er -0.143550(11) 0.25042(2) -0.99196(2)
Er1C_2 Er -0.143550(11) -0.74958(2) -0.99196(2)
Er1E Er -0.356450(11) -0.24958(2) -0.99196(2)
O11 O -0.1097(2) -0.3266(5) -0.1911(6)
N11 N -0.0802(2) -0.3256(5) -0.2108(6)
C51 C -0.0647(3) -0.3847(7) -0.2239(9)
H40 H -0.0754 -0.4277 -0.2226
C52 C -0.0337(3) -0.3843(6) -0.2392(7)
H41 H -0.0234 -0.4270 -0.2486
C53 C -0.0171(3) -0.3230(6) -0.2412(7)
C54 C -0.0336(3) -0.2617(6) -0.2301(7)
H42 H -0.0233 -0.2182 -0.2334
C55 C -0.0651(3) -0.2639(6) -0.2142(7)
H43 H -0.0761 -0.2219 -0.2056
C53G C 0.0171(3) -0.3230(6) -0.2588(7)
C52G C 0.0337(3) -0.3843(6) -0.2608(7)
C54G C 0.0336(3) -0.2617(6) -0.2699(7)
C51G C 0.0647(3) -0.3847(7) -0.2761(9)
H41G H 0.0234 -0.4270 -0.2514
H42G H 0.0233 -0.2182 -0.2666
C55G C 0.0651(3) -0.2639(6) -0.2858(7)
N11G N 0.0802(2) -0.3256(5) -0.2892(6)
H40G H 0.0754 -0.4277 -0.2774
H43G H 0.0761 -0.2219 -0.2944
O11G O 0.1097(2) -0.3266(5) -0.3089(6)
I1 I -0.06342(2) -0.52050(4) -0.06408(5)
I2 I 0.00007(2) -0.53684(4) -0.11772(5)
I3 I 0.06297(2) -0.55924(4) -0.17591(6)
I4 I -0.06429(2) -0.06266(5) -0.19952(7)
I5 I 0.0000 -0.05982(6) -0.2500
I4G I 0.06429(2) -0.06266(5) -0.30048(7)
I6 I -0.06560(2) -0.00337(5) -0.46214(6)
I7 I 0.0000 0.0000 -0.5000
I6D I 0.06560(2) 0.00337(5) -0.53786(6)
I8 I -0.26401(3) -0.09089(6) -0.41817(6)
I9 I -0.25423(2) -0.08641(4) -0.24991(6)
I10 I -0.24620(3) -0.07773(6) -0.08181(7)
O12 O -0.1463(3) -0.4140(6) -0.1062(6)
C56 C -0.1739(5) -0.3750(12) -0.1066(13)
O13 O -0.3395(4) -0.3165(9) -0.4733(10)
O14 O -0.1680(5) -0.0768(12) -0.8736(14)
loop_
_geom_bond_atom_site_label_1
_geom_bond_atom_site_label_2
_geom_bond_site_symmetry_1
_geom_bond_site_symmetry_2
Er1 O1 1_555 1_555
O1 N1 1_555 1_555
N1 C1 1_555 1_555
C1 H1 1_555 1_555
C2 C1 1_555 1_555
H2 C2 1_555 1_555
C3 C2 1_555 1_555
C4 C3 1_555 1_555
H3 C4 1_555 1_555
C5 N1 1_555 1_555
H4 C5 1_555 1_555
C6 C3 1_555 1_555
C7 C6 1_555 1_555
H5 C7 1_555 1_555
C8 C7 1_555 1_555
H6 C8 1_555 1_555
N2 C8 1_555 1_555
C9 N2 1_555 1_555
H7 C9 1_555 1_555
C10 C6 1_555 1_555
H8 C10 1_555 1_555
O2 N2 1_555 1_555
O3 Er1 1_555 1_555
N3 O3 1_555 1_555
C11 N3 1_555 1_555
H9 C11 1_555 1_555
C12 C11 1_555 1_555
H10 C12 1_555 1_555
C13 C12 1_555 1_555
C14 C13 1_555 1_555
H11 C14 1_555 1_555
C15 N3 1_555 1_555
H12 C15 1_555 1_555
C16 C13 1_555 1_555
C17 C16 1_555 1_555
H13 C17 1_555 1_555
C18 C17 1_555 1_555
H14 C18 1_555 1_555
N4 C18 1_555 1_555
C19 N4 1_555 1_555
H15 C19 1_555 1_555
C20 C16 1_555 1_555
H16 C20 1_555 1_555
O4 N4 1_555 1_555
O5 Er1 1_555 1_555
N5 O5 1_555 1_555
C21 N5 1_555 1_555
H17 C21 1_555 1_555
C22 C21 1_555 1_555
H18 C22 1_555 1_555
C23 C22 1_555 1_555
C24 C23 1_555 1_555
H19 C24 1_555 1_555
C25 N5 1_555 1_555
H20 C25 1_555 1_555
C26 C23 1_555 1_555
C27 C26 1_555 1_555
H21 C27 1_555 1_555
C28 C27 1_555 1_555
H22 C28 1_555 1_555
N6 C28 1_555 1_555
C29 N6 1_555 1_555
H23 C29 1_555 1_555
C30 C26 1_555 1_555
O6 N6 1_555 1_555
O7 Er1 1_555 1_555
N7 O7 1_555 1_555
C31 N7 1_555 1_555
H24 C31 1_555 1_555
C32 C31 1_555 1_555
H25 C32 1_555 1_555
C33 C32 1_555 1_555
C34 C33 1_555 1_555
H26 C34 1_555 1_555
C35 N7 1_555 1_555
H27 C35 1_555 1_555
C36 C33 1_555 1_555
C37 C36 1_555 1_555
H28 C37 1_555 1_555
C38 C37 1_555 1_555
H29 C38 1_555 1_555
N8 C38 1_555 1_555
C39 N8 1_555 1_555
H30 C39 1_555 1_555
C40 C36 1_555 1_555
H31 C40 1_555 1_555
O8 N8 1_555 1_555
O9 Er1 1_555 1_555
N9 O9 1_555 1_555
C41 N9 1_555 1_555
H32 C41 1_555 1_555
C42 H33 1_555 1_555
C43 C42 1_555 1_555
C44 C41 1_555 1_555
H34 C44 1_555 1_555
C45 N9 1_555 1_555
H35 C45 1_555 1_555
C46 C43 1_555 1_555
C47 C46 1_555 1_555
H36 C47 1_555 1_555
C48 C47 1_555 1_555
H37 C48 1_555 1_555
N10 C48 1_555 1_555
C49 N10 1_555 1_555
H38 C49 1_555 1_555
C50 C46 1_555 1_555
H39 C50 1_555 1_555
O10 N10 1_555 1_555
O11 N11 1_555 1_555
N11 C51 1_555 1_555
C51 H40 1_555 1_555
C52 C51 1_555 1_555
H41 C52 1_555 1_555
C53 C52 1_555 1_555
C54 C53 1_555 1_555
H42 C54 1_555 1_555
C55 N11 1_555 1_555
H43 C55 1_555 1_555
I1 I2 1_555 1_555
I2 I3 1_555 1_555
I4 I5 1_555 1_555
I5 I4G 1_555 1_555
I6 I7 1_555 1_555
I7 I6D 1_555 1_555
I8 I9 1_555 1_555
I9 I10 1_555 1_555
O12 C56 1_555 1_555
O6C Er1 1_555 1_555
O8C Er1 1_555 1_555
O10E Er1 1_555 1_555
C53G C53 1_555 1_555
Er1C O6 1_555 1_555
Er1C_2 O8 1_555 1_555
Er1E O10 1_555 1_555
C52G C53G 1_555 1_555
C54G C53G 1_555 1_555
C51G C52G 1_555 1_555
H41G C52G 1_555 1_555
H42G C54G 1_555 1_555
C55G C54G 1_555 1_555
N11G C51G 1_555 1_555
H40G C51G 1_555 1_555
H43G C55G 1_555 1_555
O11G N11G 1_555 1_555
C4 C5 1_555 1_555
C9 C10 1_555 1_555
C14 C15 1_555 1_555
C19 C20 1_555 1_555
C24 C25 1_555 1_555
C29 C30 1_555 1_555
C34 C35 1_555 1_555
C39 C40 1_555 1_555
C42 C45 1_555 1_555
C43 C44 1_555 1_555
C49 C50 1_555 1_555
C54 C55 1_555 1_555
C55G N11G 1_555 1_555

#END
