
#######################################################################
#
#                 Cambridge Crystallographic Data Centre
#                                CCDC 
#
#######################################################################
#
# If this CIF has been generated from an entry in the Cambridge 
# Structural Database, then it will include bibliographic, chemical, 
# crystal, experimental, refinement or atomic coordinate data resulting 
# from the CCDC's data processing and validation procedures.
#
#######################################################################

data_BICVUF
_symmetry_cell_setting           monoclinic
_symmetry_space_group_name_H-M   'P 21/n'
_symmetry_Int_Tables_number      14
_space_group_name_Hall           '-P 2yn'
loop_
_symmetry_equiv_pos_site_id
_symmetry_equiv_pos_as_xyz
1 x,y,z
2 1/2+x,1/2-y,1/2+z
3 -x,-y,-z
4 1/2-x,1/2+y,1/2-z
_cell_length_a                   16.6846(8)
_cell_length_b                   19.8749(9)
_cell_length_c                   32.669(2)
_cell_angle_alpha                90
_cell_angle_beta                 100.664(2)
_cell_angle_gamma                90
_cell_volume                     10646.1
loop_
_atom_site_label
_atom_site_type_symbol
_atom_site_fract_x
_atom_site_fract_y
_atom_site_fract_z
H38 H 1.1510 0.5649 0.4961
Cl1 Cl 0.06723(10) 0.44633(8) 0.06267(6)
O17 O 0.0715(3) 0.4067(3) 0.09962(17)
O18 O 0.1345(3) 0.4298(2) 0.04265(17)
O19 O -0.0083(3) 0.4320(2) 0.03498(17)
O20 O 0.0711(3) 0.5171(2) 0.07294(18)
Cl2 Cl 0.56326(12) 0.72520(10) 0.06258(8)
O21 O 0.4891(4) 0.7619(3) 0.05639(19)
O22 O 0.5581(4) 0.6730(3) 0.0328(2)
O23 O 0.5733(5) 0.6929(4) 0.1010(3)
O24 O 0.6282(5) 0.7675(4) 0.0557(3)
Cl3 Cl 0.1297(5) 0.4452(3) 0.23548(18)
O25 O 0.0523(8) 0.4248(8) 0.2368(6)
O26 O 0.1683(11) 0.4682(9) 0.2793(4)
O27 O 0.1383(10) 0.5052(7) 0.2129(5)
O28 O 0.1892(12) 0.3956(9) 0.2297(7)
Cl5 Cl 0.7935(3) 0.9569(2) 0.08393(15)
O33 O 0.8243(6) 0.9439(5) 0.0487(3)
O34 O 0.7083(6) 0.9413(5) 0.0776(4)
O35 O 0.8382(8) 0.9122(6) 0.1146(4)
O36 O 0.8053(12) 1.0237(7) 0.0988(6)
Cl7 Cl 0.2680(8) 0.2277(6) 0.0485(5)
O41 O 0.2752(7) 0.1634(5) 0.0329(4)
O42 O 0.2377(8) 0.2208(7) 0.0880(4)
O43 O 0.3481(7) 0.2573(6) 0.0593(4)
O44 O 0.2126(11) 0.2665(9) 0.0208(6)
Cl11 Cl 0.8753(4) 1.1154(3) 0.3115(2)
C85 C 0.9729(8) 1.1022(8) 0.3106(4)
C86 C 0.9937(10) 1.0938(10) 0.2709(5)
C87 C 1.0789(11) 1.0829(13) 0.2716(6)
C88 C 1.1373(11) 1.0794(13) 0.3054(6)
C89 C 1.1153(10) 1.0894(13) 0.3420(6)
C90 C 1.0327(10) 1.0987(10) 0.3469(5)
Cl13 Cl 0.1136(3) 0.1143(2) 0.15428(13)
C97 C 0.1920(10) 0.1487(6) 0.1846(5)
C98 C 0.2117(9) 0.2169(6) 0.1808(5)
C99 C 0.2782(13) 0.2431(9) 0.2100(7)
C100 C 0.3239(15) 0.2058(10) 0.2387(8)
C101 C 0.3050(12) 0.1416(9) 0.2409(6)
C102 C 0.2397(10) 0.1071(7) 0.2148(5)
O57 O 0.7503(7) 1.2180(6) 0.3627(4)
C109 C 0.7529(12) 1.2820(8) 0.3471(6)
O58 O 0.6307(8) 0.9567(6) 0.1294(4)
C110 C 0.6182(14) 0.8908(9) 0.1390(8)
C111 C 0.2849(11) 0.4280(8) 0.1335(5)
O60 O 0.2729(14) 0.4284(11) 0.1684(6)
La1 La 0.81039(2) 0.850462(16) 0.397305(11)
La2 La 0.31081(2) 0.347431(16) 0.415392(12)
O1 O 0.8887(3) 0.8093(2) 0.34567(14)
O2 O 0.8712(3) 0.9483(2) 0.36377(14)
O3 O 0.6974(3) 0.8991(2) 0.34630(15)
O4 O 0.7236(3) 0.7580(2) 0.35890(14)
O5 O 0.8518(3) 0.7473(2) 0.43518(15)
O6 O 0.9558(3) 0.8626(2) 0.44029(15)
O7 O 0.7995(3) 0.9525(2) 0.43723(14)
O8 O 0.6953(3) 0.8335(2) 0.43709(15)
O9 O 0.3442(3) 0.4525(2) 0.45806(14)
O10 O 0.2118(3) 0.3617(2) 0.46599(16)
O11 O 0.3208(3) 0.2412(2) 0.45526(15)
O12 O 0.4583(3) 0.3387(2) 0.44992(17)
O13 O 0.1932(3) 0.3987(2) 0.37099(16)
O14 O 0.2126(3) 0.2594(2) 0.38100(14)
O15 O 0.3755(3) 0.2961(2) 0.35948(16)
O16 O 0.3673(3) 0.4375(2) 0.37558(14)
N1 N 0.9325(3) 0.7537(3) 0.34472(17)
C1 C 1.0117(5) 0.7569(4) 0.3500(4)
H1 H 1.0375 0.7997 0.3531
C2 C 1.0587(5) 0.7000(4) 0.3513(3)
H2 H 1.1165 0.7042 0.3568
C3 C 1.0254(4) 0.6389(3) 0.3451(2)
C4 C 0.9421(6) 0.6389(4) 0.3365(5)
H3 H 0.9143 0.5974 0.3303
C5 C 0.8972(6) 0.6967(4) 0.3364(4)
H4 H 0.8394 0.6945 0.3302
N2 N 0.9071(3) 0.9429(3) 0.33074(18)
C6 C 0.9893(5) 0.9448(4) 0.3361(2)
H5 H 1.0205 0.9502 0.3633
C7 C 1.0280(4) 0.9390(4) 0.3032(2)
H6 H 1.0859 0.9399 0.3075
C8 C 0.9819(4) 0.9317(3) 0.2622(2)
C9 C 0.8980(4) 0.9296(3) 0.2591(2)
H7 H 0.8647 0.9240 0.2324
C10 C 0.8617(4) 0.9353(3) 0.2927(2)
H8 H 0.8039 0.9338 0.2893
N3 N 0.6512(3) 0.9534(3) 0.34509(18)
C11 C 0.6842(5) 1.0145(3) 0.3425(3)
H9 H 0.7403 1.0190 0.3411
C12 C 0.6361(6) 1.0701(4) 0.3417(4)
H10 H 0.6594 1.1134 0.3400
C13 C 0.5529(6) 1.0648(4) 0.3435(3)
C14 C 0.5224(5) 1.0012(4) 0.3458(2)
H11 H 0.4664 0.9952 0.3470
C15 C 0.5725(4) 0.9462(3) 0.3463(2)
H12 H 0.5505 0.9024 0.3476
N4 N 0.6641(3) 0.7616(3) 0.32537(17)
C16 C 0.5876(4) 0.7424(4) 0.3290(2)
H13 H 0.5776 0.7268 0.3551
C17 C 0.5260(5) 0.7453(4) 0.2960(2)
H14 H 0.4729 0.7319 0.2993
C18 C 0.5384(4) 0.7678(3) 0.2566(2)
C19 C 0.6176(4) 0.7852(3) 0.2545(2)
H15 H 0.6298 0.7997 0.2286
C20 C 0.6789(4) 0.7824(3) 0.2884(2)
H16 H 0.7326 0.7952 0.2859
N5 N 0.9012(3) 0.6943(2) 0.44150(18)
C21 C 0.8689(5) 0.6336(3) 0.4302(3)
H17 H 0.8125 0.6293 0.4186
C22 C 0.9188(5) 0.5772(4) 0.4356(3)
H18 H 0.8964 0.5344 0.4272
C23 C 1.0009(4) 0.5824(3) 0.4531(2)
C24 C 1.0297(5) 0.6460(3) 0.4644(3)
H19 H 1.0854 0.6520 0.4768
C25 C 0.9792(4) 0.7006(4) 0.4578(3)
H20 H 1.0008 0.7441 0.4651
N6 N 1.0091(3) 0.9131(2) 0.44706(17)
C26 C 1.0882(4) 0.9009(3) 0.4535(3)
H21 H 1.1073 0.8558 0.4544
C27 C 1.1434(4) 0.9535(3) 0.4589(3)
H22 H 1.2000 0.9436 0.4634
C28 C 1.1189(4) 1.0196(3) 0.4579(2)
C29 C 1.0359(4) 1.0295(3) 0.4530(2)
H23 H 1.0154 1.0740 0.4536
C30 C 0.9826(4) 0.9766(3) 0.4474(2)
H24 H 0.9257 0.9851 0.4437
N7 N 0.7546(3) 1.0064(2) 0.43967(18)
C31 C 0.7865(5) 1.0681(3) 0.4364(3)
H25 H 0.8411 1.0722 0.4323
C32 C 0.7415(5) 1.1245(4) 0.4389(4)
H26 H 0.7639 1.1676 0.4351
C33 C 0.6635(5) 1.1191(3) 0.4468(3)
C34 C 0.6316(4) 1.0557(3) 0.4500(2)
H27 H 0.5772 1.0508 0.4544
C35 C 0.6782(4) 0.9998(3) 0.4468(2)
H28 H 0.6564 0.9563 0.4496
N8 N 0.6468(3) 0.7808(2) 0.43935(16)
C36 C 0.5650(4) 0.7888(3) 0.4295(2)
H29 H 0.5428 0.8318 0.4211
C37 C 0.5136(4) 0.7355(3) 0.4315(2)
H30 H 0.4563 0.7413 0.4238
C38 C 0.5458(4) 0.6727(3) 0.4449(2)
C39 C 0.6300(4) 0.6676(3) 0.4549(2)
H31 H 0.6541 0.6257 0.4642
C40 C 0.6789(4) 0.7216(3) 0.4518(2)
H32 H 0.7364 0.7167 0.4585
N9 N 0.3932(3) 0.5045(2) 0.45553(16)
C41 C 0.3639(4) 0.5675(3) 0.4581(2)
H33 H 0.3094 0.5741 0.4621
C42 C 0.4136(4) 0.6224(3) 0.4550(2)
H34 H 0.3929 0.6665 0.4571
C43 C 0.4919(4) 0.6143(3) 0.4489(2)
C44 C 0.5205(4) 0.5478(3) 0.4474(2)
H35 H 0.5750 0.5401 0.4438
C45 C 0.4716(4) 0.4948(3) 0.4510(2)
H36 H 0.4923 0.4504 0.4505
N10 N 0.1601(3) 0.4140(3) 0.46374(19)
C46 C 0.1837(4) 0.4705(3) 0.4845(2)
H37 H 0.2363 0.4732 0.5015
C48 C 1.0544(4) 0.5232(3) 0.4580(2)
C49 C 1.0310(5) 0.4619(4) 0.4389(3)
H39 H 0.9772 0.4566 0.4235
C50 C 0.0849(5) 0.4087(3) 0.4418(3)
H40 H 0.0680 0.3676 0.4279
N11 N 0.2733(3) 0.1882(2) 0.45798(16)
C51 C 0.3031(4) 0.1262(3) 0.4532(2)
H41 H 0.3577 0.1211 0.4491
C52 C 0.2549(4) 0.0704(3) 0.4544(2)
H42 H 0.2763 0.0269 0.4511
C53 C 1.1741(4) 1.0774(3) 0.4604(2)
C54 C 1.1485(4) 1.1424(3) 0.4675(2)
H43 H 1.0958 1.1489 0.4738
C55 C 0.1974(4) 0.1968(3) 0.4655(2)
H44 H 0.1779 0.2407 0.4695
N12 N 0.5100(3) 0.2874(3) 0.4506(2)
C56 C 0.4979(4) 0.2311(3) 0.4703(2)
H45 H 0.4543 0.2290 0.4853
C57 C 0.5471(4) 0.1756(3) 0.4696(2)
H46 H 0.5358 0.1351 0.4829
C58 C 0.6126(5) 1.1790(4) 0.4497(3)
C59 C 0.6417(9) 1.2432(7) 0.4474(6)
C60 C 0.5891(10) 0.2984(6) 0.4461(6)
C61 C 0.6117(8) 1.2346(6) 0.4172(5)
N13 N 0.1572(3) 0.4571(3) 0.36177(19)
C63 C 0.0825(5) 0.4583(4) 0.3404(4)
H47 H 0.0585 0.4177 0.3285
C64 C 0.0380(6) 0.5172(4) 0.3348(4)
H48 H -0.0173 0.5161 0.3209
C65 C 1.0731(5) 0.5772(3) 0.3490(3)
C66 C 1.1534(4) 0.5748(3) 0.3696(2)
H49 H 1.1805 0.6152 0.3796
C67 C 0.1944(4) 0.5148(3) 0.3757(2)
H50 H 0.2496 0.5140 0.3898
N14 N 0.1534(3) 0.2645(3) 0.34843(17)
C68 C 0.0760(4) 0.2603(3) 0.3537(2)
H51 H 0.0643 0.2553 0.3810
C69 C 0.0121(4) 0.2634(3) 0.3194(2)
H52 H -0.0428 0.2615 0.3235
C70 C 0.4717(4) 0.7690(3) 0.2204(2)
C71 C 0.3903(4) 0.7734(4) 0.2244(2)
H53 H 0.3765 0.7775 0.2512
C72 C 0.1700(4) 0.2719(4) 0.3101(2)
H54 H 0.2252 0.2763 0.3068
N15 N 0.4143(4) 0.2411(3) 0.3541(2)
C73 C 0.3860(4) 0.1809(3) 0.3617(2)
H55 H 0.3345 0.1774 0.3700
C74 C 0.4298(4) 0.1236(3) 0.3579(2)
H56 H 0.4079 0.0814 0.3639
C75 C 0.5026(6) 1.1249(4) 0.3459(3)
C76 C 0.5104(9) 1.1828(6) 0.3210(5)
C77 C 0.4666(9) 0.2406(6) 0.3263(5)
C78 C 0.5504(10) 1.1952(7) 0.3540(5)
C79 C 0.5003(10) 0.2508(7) 0.3543(6)
N16 N 0.4018(3) 0.4333(3) 0.34289(17)
C80 C 0.4832(4) 0.4416(3) 0.3475(2)
H57 H 0.5145 0.4491 0.3745
C81 C 0.5218(4) 0.4394(3) 0.3138(2)
H58 H 0.5793 0.4450 0.3178
C82 C 1.0228(4) 0.9290(3) 0.2260(2)
C83 C 1.1061(4) 0.9204(4) 0.2292(2)
H59 H 1.1387 0.9128 0.2559
C84 C 0.3566(4) 0.4225(4) 0.3052(2)
H60 H 0.2993 0.4163 0.3020
C50_2 C 1.0849(5) 0.4087(3) 0.4418(3)
C49_2 C 0.0310(5) 0.4619(4) 0.4389(3)
C53_2 C 0.1741(4) 0.0774(3) 0.4604(2)
C52_2 C 1.2549(4) 1.0704(3) 0.4544(2)
C55_2 C 1.1974(4) 1.1968(3) 0.4655(2)
C54_2 C 0.1485(4) 0.1424(3) 0.4675(2)
C58_2 C 0.6126(5) 0.1790(4) 0.4497(3)
C57_2 C 0.5471(4) 1.1756(3) 0.4696(2)
C60_2 C 0.5891(10) 1.2984(6) 0.4461(6)
C61_2 C 0.6117(8) 0.2346(6) 0.4172(5)
C59_2 C 0.6417(9) 0.2432(7) 0.4474(6)
C65_2 C 0.0731(5) 0.5772(3) 0.3490(3)
C64_2 C 1.0380(6) 0.5172(4) 0.3348(4)
C67_2 C 1.1944(4) 0.5148(3) 0.3757(2)
C66_2 C 0.1534(4) 0.5748(3) 0.3696(2)
C70C C 0.0283(4) 0.2690(3) 0.2796(2)
C69C C 0.4879(4) 0.7634(3) 0.1806(2)
C72C C 0.3300(4) 0.7719(4) 0.1899(2)
C71C C 0.1097(4) 0.2734(4) 0.2756(2)
C75_2 C 0.5026(6) 0.1249(4) 0.3459(3)
C74_2 C 0.4298(4) 1.1236(3) 0.3579(2)
C77_2 C 0.4666(9) 1.2406(6) 0.3263(5)
C76_2 C 0.5104(9) 0.1828(6) 0.3210(5)
C79_2 C 0.5003(10) 1.2508(7) 0.3543(6)
C78_2 C 0.5504(10) 0.1952(7) 0.3540(5)
C82C C 0.4772(4) 0.4290(3) 0.2740(2)
C81C C 0.9782(4) 0.9394(3) 0.1862(2)
C84C C 1.1434(4) 0.9225(4) 0.1948(2)
C83C C 0.3939(4) 0.4204(4) 0.2708(2)
C47? C 1.1324(4) 0.5248(3) 0.4815(2)
C62? C 0.5595(9) 1.2913(7) 0.4185(5)
Cl4? Cl 0.1572(5) 0.4160(5) 0.2200(3)
O29? O 0.1706(9) 0.4309(8) 0.2651(4)
O30? O 0.2249(11) 0.3641(9) 0.2216(7)
O31? O 0.1765(10) 0.4699(7) 0.1962(5)
O32? O 0.0869(8) 0.3853(7) 0.2043(5)
Cl6? Cl 0.8114(3) 1.0603(2) 0.14644(19)
O37? O 0.7959(7) 0.9944(5) 0.1590(4)
O38? O 0.7559(9) 1.1067(7) 0.1550(5)
O39? O 0.8937(8) 1.0751(8) 0.1544(6)
O40? O 0.7894(14) 1.0543(12) 0.0983(4)
Cl8? Cl 0.2646(8) 0.2483(6) 0.0569(4)
O45? O 0.2759(10) 0.1808(6) 0.0625(6)
O46? O 0.1810(7) 0.2664(6) 0.0612(4)
O47? O 0.3127(10) 0.2867(8) 0.0936(5)
O48? O 0.2831(11) 0.2831(8) 0.0230(5)
Cl9? Cl 0.6800(2) 1.27920(18) 0.30276(13)
O49? O 0.6199(6) 1.2588(5) 0.2625(3)
O50? O 0.6325(7) 1.3179(6) 0.3254(4)
O51? O 0.7411(6) 1.3197(6) 0.2905(4)
O52? O 0.7094(8) 1.2239(6) 0.3267(4)
Cl10? Cl 0.6494(3) 0.9473(2) 0.19728(17)
O53? O 0.6384(6) 0.9714(5) 0.2369(3)
O54? O 0.5876(7) 0.8997(6) 0.1806(4)
O55? O 0.6525(9) 0.9994(6) 0.1682(4)
O56? O 0.7249(7) 0.9104(7) 0.2074(5)
Cl12? Cl 1.0435(3) 1.1016(2) 0.2468(2)
C91? C 0.9424(8) 1.1005(5) 0.2483(4)
C92? C 0.9209(8) 1.1120(6) 0.2873(4)
C93? C 0.8350(9) 1.1148(7) 0.2871(5)
C94? C 0.7774(10) 1.1075(7) 0.2538(5)
C95? C 0.8000(9) 1.0966(7) 0.2173(5)
C96? C 0.8828(9) 1.0922(6) 0.2118(4)
C103? C 0.6204(12) 1.0425(9) 0.2447(10)
C104? C 0.6877(11) 1.0858(10) 0.2458(8)
C105? C 0.6751(13) 1.1558(10) 0.2520(10)
C106? C 0.6044(12) 1.1850(9) 0.2553(9)
C107? C 0.5425(10) 1.1426(8) 0.2548(7)
C108? C 0.5465(11) 1.0712(9) 0.2514(8)
O59? O 0.3451(10) 0.2588(8) 0.2509(5)
O61? O 0.2807(13) 0.3716(9) 0.1273(7)
O62? O 1.1756(15) 1.0898(12) 0.3513(8)
C112? C 1.2483(16) 1.0757(15) 0.3519(10)
loop_
_geom_bond_atom_site_label_1
_geom_bond_atom_site_label_2
_geom_bond_site_symmetry_1
_geom_bond_site_symmetry_2
La1 O1 1_555 1_555
La2 O9 1_555 1_555
O1 N1 1_555 1_555
O2 La1 1_555 1_555
O3 La1 1_555 1_555
O4 La1 1_555 1_555
O5 La1 1_555 1_555
O6 La1 1_555 1_555
O7 La1 1_555 1_555
O8 La1 1_555 1_555
O9 N9 1_555 1_555
O10 La2 1_555 1_555
O11 La2 1_555 1_555
O12 La2 1_555 1_555
O13 La2 1_555 1_555
O14 La2 1_555 1_555
O15 La2 1_555 1_555
O16 La2 1_555 1_555
N1 C1 1_555 1_555
C1 H1 1_555 1_555
C2 C1 1_555 1_555
H2 C2 1_555 1_555
C3 C2 1_555 1_555
C4 C3 1_555 1_555
H3 C4 1_555 1_555
C5 N1 1_555 1_555
H4 C5 1_555 1_555
N2 O2 1_555 1_555
C6 N2 1_555 1_555
H5 C6 1_555 1_555
C7 C6 1_555 1_555
H6 C7 1_555 1_555
C8 C7 1_555 1_555
C9 C8 1_555 1_555
H7 C9 1_555 1_555
C10 N2 1_555 1_555
H8 C10 1_555 1_555
N3 O3 1_555 1_555
C11 N3 1_555 1_555
H9 C11 1_555 1_555
C12 C11 1_555 1_555
H10 C12 1_555 1_555
C13 C12 1_555 1_555
C14 C13 1_555 1_555
H11 C14 1_555 1_555
C15 N3 1_555 1_555
H12 C15 1_555 1_555
N4 O4 1_555 1_555
C16 N4 1_555 1_555
H13 C16 1_555 1_555
C17 C16 1_555 1_555
H14 C17 1_555 1_555
C18 C17 1_555 1_555
C19 C18 1_555 1_555
H15 C19 1_555 1_555
C20 N4 1_555 1_555
H16 C20 1_555 1_555
N5 O5 1_555 1_555
C21 N5 1_555 1_555
H17 C21 1_555 1_555
C22 C21 1_555 1_555
H18 C22 1_555 1_555
C23 C22 1_555 1_555
C24 C23 1_555 1_555
H19 C24 1_555 1_555
C25 N5 1_555 1_555
H20 C25 1_555 1_555
N6 O6 1_555 1_555
C26 N6 1_555 1_555
H21 C26 1_555 1_555
C27 C26 1_555 1_555
H22 C27 1_555 1_555
C28 C27 1_555 1_555
C29 C28 1_555 1_555
H23 C29 1_555 1_555
C30 N6 1_555 1_555
H24 C30 1_555 1_555
N7 O7 1_555 1_555
C31 N7 1_555 1_555
H25 C31 1_555 1_555
C32 C31 1_555 1_555
H26 C32 1_555 1_555
C33 C32 1_555 1_555
C34 C33 1_555 1_555
H27 C34 1_555 1_555
C35 N7 1_555 1_555
H28 C35 1_555 1_555
N8 O8 1_555 1_555
C36 N8 1_555 1_555
H29 C36 1_555 1_555
C37 C36 1_555 1_555
H30 C37 1_555 1_555
C38 C37 1_555 1_555
C39 C38 1_555 1_555
H31 C39 1_555 1_555
C40 N8 1_555 1_555
H32 C40 1_555 1_555
N9 C41 1_555 1_555
C41 H33 1_555 1_555
C42 C41 1_555 1_555
H34 C42 1_555 1_555
C43 C38 1_555 1_555
C44 C43 1_555 1_555
H35 C44 1_555 1_555
C45 N9 1_555 1_555
H36 C45 1_555 1_555
N10 O10 1_555 1_555
C46 N10 1_555 1_555
H37 C46 1_555 1_555
C48 C23 1_555 1_555
C49 C48 1_555 1_555
H39 C49 1_555 1_555
C50 N10 1_555 1_555
H40 C50 1_555 1_555
N11 O11 1_555 1_555
C51 N11 1_555 1_555
H41 C51 1_555 1_555
C52 C51 1_555 1_555
H42 C52 1_555 1_555
C53 C28 1_555 1_555
C54 C53 1_555 1_555
H43 C54 1_555 1_555
C55 N11 1_555 1_555
H44 C55 1_555 1_555
N12 O12 1_555 1_555
C56 N12 1_555 1_555
H45 C56 1_555 1_555
C57 C56 1_555 1_555
H46 C57 1_555 1_555
C58 C33 1_555 1_555
C59 C58 1_555 1_555
C60 N12 1_555 1_555
C61 C58 1_555 1_555
N13 O13 1_555 1_555
C63 N13 1_555 1_555
H47 C63 1_555 1_555
C64 C63 1_555 1_555
H48 C64 1_555 1_555
C65 C3 1_555 1_555
C66 C65 1_555 1_555
H49 C66 1_555 1_555
C67 N13 1_555 1_555
H50 C67 1_555 1_555
N14 O14 1_555 1_555
C68 N14 1_555 1_555
H51 C68 1_555 1_555
C69 C68 1_555 1_555
H52 C69 1_555 1_555
C70 C18 1_555 1_555
C71 C70 1_555 1_555
H53 C71 1_555 1_555
C72 N14 1_555 1_555
H54 C72 1_555 1_555
N15 O15 1_555 1_555
C73 N15 1_555 1_555
H55 C73 1_555 1_555
C74 C73 1_555 1_555
H56 C74 1_555 1_555
C75 C13 1_555 1_555
C76 C75 1_555 1_555
C77 N15 1_555 1_555
C78 C75 1_555 1_555
C79 N15 1_555 1_555
N16 O16 1_555 1_555
C80 N16 1_555 1_555
H57 C80 1_555 1_555
C81 C80 1_555 1_555
H58 C81 1_555 1_555
C82 C8 1_555 1_555
C83 C82 1_555 1_555
H59 C83 1_555 1_555
C84 N16 1_555 1_555
H60 C84 1_555 1_555
Cl1 O17 1_555 1_555
O18 Cl1 1_555 1_555
O19 Cl1 1_555 1_555
O20 Cl1 1_555 1_555
Cl2 O21 1_555 1_555
O22 Cl2 1_555 1_555
O23 Cl2 1_555 1_555
O24 Cl2 1_555 1_555
Cl3 O25 1_555 1_555
O26 Cl3 1_555 1_555
O27 Cl3 1_555 1_555
O28 Cl3 1_555 1_555
Cl5 O33 1_555 1_555
O34 Cl5 1_555 1_555
O35 Cl5 1_555 1_555
O36 Cl5 1_555 1_555
Cl7 O41 1_555 1_555
O42 Cl7 1_555 1_555
O43 Cl7 1_555 1_555
O44 Cl7 1_555 1_555
Cl11 C85 1_555 1_555
C85 C86 1_555 1_555
C86 C87 1_555 1_555
C87 C88 1_555 1_555
C88 C89 1_555 1_555
C89 C90 1_555 1_555
C90 C85 1_555 1_555
Cl13 C97 1_555 1_555
C97 C98 1_555 1_555
C98 C99 1_555 1_555
C99 C100 1_555 1_555
C100 C101 1_555 1_555
C101 C102 1_555 1_555
C102 C97 1_555 1_555
O57 C109 1_555 1_555
O58 C110 1_555 1_555
C111 O60 1_555 1_555
C50_2 C49 1_555 1_555
C49_2 C50 1_555 1_555
C53_2 C52 1_555 1_555
C52_2 C53 1_555 1_555
C55_2 C54 1_555 1_555
C54_2 C55 1_555 1_555
C58_2 C57 1_555 1_555
C57_2 C58 1_555 1_555
C60_2 C59 1_555 1_555
C61_2 C60 1_555 1_555
C59_2 C60 1_555 1_555
C65_2 C64 1_555 1_555
C64_2 C65 1_555 1_555
C67_2 C66 1_555 1_555
C66_2 C67 1_555 1_555
C70C C69 1_555 1_555
C69C C70 1_555 1_555
C72C C71 1_555 1_555
C71C C72 1_555 1_555
C75_2 C74 1_555 1_555
C74_2 C75 1_555 1_555
C77_2 C76 1_555 1_555
C76_2 C77 1_555 1_555
C79_2 C78 1_555 1_555
C78_2 C79 1_555 1_555
C82C C81 1_555 1_555
C81C C82 1_555 1_555
C84C C83 1_555 1_555
C83C C84 1_555 1_555
C4 C5 1_555 1_555
C9 C10 1_555 1_555
C14 C15 1_555 1_555
C19 C20 1_555 1_555
C24 C25 1_555 1_555
C29 C30 1_555 1_555
C34 C35 1_555 1_555
C39 C40 1_555 1_555
C42 C43 1_555 1_555
C44 C45 1_555 1_555
C59 C61 1_555 1_555
C61 C60_2 1_555 1_555
C76 C78 1_555 1_555
C77 C79 1_555 1_555
C53_2 C54_2 1_555 1_555
C58_2 C59_2 1_555 1_555
C58_2 C61_2 1_555 1_555
C61_2 C59_2 1_555 1_555
C65_2 C66_2 1_555 1_555
C70C C71C 1_555 1_555
C75_2 C76_2 1_555 1_555
C75_2 C78_2 1_555 1_555
C77_2 C79_2 1_555 1_555
C76_2 C78_2 1_555 1_555
C82C C83C 1_555 1_555

#END
