
#######################################################################
#
#                 Cambridge Crystallographic Data Centre
#                                CCDC 
#
#######################################################################
#
# If this CIF has been generated from an entry in the Cambridge 
# Structural Database, then it will include bibliographic, chemical, 
# crystal, experimental, refinement or atomic coordinate data resulting 
# from the CCDC's data processing and validation procedures.
#
#######################################################################

data_BICWIT
_symmetry_cell_setting           orthorhombic
_symmetry_space_group_name_H-M   'C m c m'
_symmetry_Int_Tables_number      63
_space_group_name_Hall           '-C 2n 2'
loop_
_symmetry_equiv_pos_site_id
_symmetry_equiv_pos_as_xyz
1 x,y,z
2 1/2+x,1/2+y,z
3 -x,-y,1/2+z
4 1/2-x,1/2-y,1/2+z
5 x,-y,-z
6 1/2+x,1/2-y,-z
7 -x,y,1/2-z
8 1/2-x,1/2+y,1/2-z
9 -x,-y,-z
10 1/2-x,1/2-y,-z
11 x,y,1/2-z
12 1/2+x,1/2+y,1/2-z
13 -x,y,z
14 1/2-x,1/2+y,z
15 x,-y,1/2+z
16 1/2+x,1/2-y,1/2+z
_cell_length_a                   5.606(1)
_cell_length_b                   26.651(3)
_cell_length_c                   8.343(2)
_cell_angle_alpha                90
_cell_angle_beta                 90
_cell_angle_gamma                90
_cell_volume                     1246.49
loop_
_atom_site_label
_atom_site_type_symbol
_atom_site_fract_x
_atom_site_fract_y
_atom_site_fract_z
Pt1 Pt 0.00000 0.11350 0.25000
Br1 Br 0.00000 0.11440 0.54280
Br2 Br 0.00000 0.02220 0.25000
N1 N 0.00000 0.19200 0.25000
Br1F Br 0.00000 0.11440 -0.04280
loop_
_geom_bond_atom_site_label_1
_geom_bond_atom_site_label_2
_geom_bond_site_symmetry_1
_geom_bond_site_symmetry_2
Pt1 Br1 1_555 1_555
Br2 Pt1 1_555 1_555
N1 Pt1 1_555 1_555
Br1F Pt1 1_555 1_555

#END
