
#######################################################################
#
#                 Cambridge Crystallographic Data Centre
#                                CCDC 
#
#######################################################################
#
# If this CIF has been generated from an entry in the Cambridge 
# Structural Database, then it will include bibliographic, chemical, 
# crystal, experimental, refinement or atomic coordinate data resulting 
# from the CCDC's data processing and validation procedures.
#
#######################################################################

data_BIDBEW
_symmetry_cell_setting           monoclinic
_symmetry_space_group_name_H-M   'P 21/n'
_symmetry_Int_Tables_number      14
_space_group_name_Hall           '-P 2yn'
loop_
_symmetry_equiv_pos_site_id
_symmetry_equiv_pos_as_xyz
1 x,y,z
2 1/2+x,1/2-y,1/2+z
3 -x,-y,-z
4 1/2-x,1/2+y,1/2-z
_cell_length_a                   9.869(2)
_cell_length_b                   16.781(3)
_cell_length_c                   11.299(2)
_cell_angle_alpha                90
_cell_angle_beta                 100.02(3)
_cell_angle_gamma                90
_cell_volume                     1842.7
loop_
_atom_site_label
_atom_site_type_symbol
_atom_site_fract_x
_atom_site_fract_y
_atom_site_fract_z
Zn1 Zn -0.60993(5) -0.50175(3) 0.07504(5)
O1 O -0.3054(4) -0.4287(3) 0.0661(4)
O2 O -0.4752(4) -0.4263(3) 0.1711(4)
O3 O -0.5777(6) -0.3041(4) 0.3433(7)
H1 H -0.615(13) -0.343(6) 0.375(12)
O4 O -0.4404(6) -0.3987(4) 0.4344(5)
O5 O -0.1838(4) -0.0926(2) 0.4734(4)
O6 O -0.0150(4) -0.0957(2) 0.3665(4)
N1 N -0.7550(4) -0.5207(2) 0.1796(4)
N2 N -1.2482(7) -0.6349(5) 0.5278(6)
C1 C -0.8788(8) -0.4960(6) 0.1541(10)
H2 H -0.9005 -0.4612 0.0896
C2 C -0.9818(9) -0.5169(6) 0.2146(10)
H3 H -1.0711 -0.4990 0.1879
C3 C -0.9539(6) -0.5636(3) 0.3135(5)
C4 C -0.8181(8) -0.5830(5) 0.3489(8)
H4 H -0.7915 -0.6129 0.4183
C5 C -0.7215(7) -0.5590(5) 0.2835(7)
H5 H -0.6292 -0.5698 0.3126
C6 C -1.0580(6) -0.5867(4) 0.3859(5)
C7 C -1.1787(7) -0.5448(5) 0.3836(7)
H6 H -1.1981 -0.4999 0.3353
C8 C -1.2727(7) -0.5719(5) 0.4573(8)
H7 H -1.3547 -0.5442 0.4556
C9 C -1.1343(9) -0.6757(7) 0.5259(8)
H8 H -1.1185 -0.7219 0.5718
C10 C -1.0374(8) -0.6520(6) 0.4579(8)
H9 H -0.9568 -0.6814 0.4615
C11 C -0.3636(5) -0.4020(3) 0.1470(5)
C12 C -0.2955(5) -0.3340(3) 0.2206(5)
C13 C -0.3505(6) -0.3025(3) 0.3145(5)
C14 C -0.4613(8) -0.3425(4) 0.3710(7)
C15 C -0.2937(6) -0.2335(3) 0.3706(5)
H10 H -0.3317 -0.2113 0.4328
C16 C -0.1806(5) -0.1971(3) 0.3347(5)
C17 C -0.1219(5) -0.1221(3) 0.3956(5)
C18 C -0.1243(6) -0.2303(3) 0.2432(5)
H11 H -0.0472 -0.2074 0.2201
C19 C -0.1821(6) -0.2975(3) 0.1859(5)
H12 H -0.1448 -0.3189 0.1227
Zn1A Zn -0.10993(5) 0.00175(3) 0.57504(5)
Zn1B Zn -0.39007(5) -0.49825(3) -0.07504(5)
O1B O -0.6946(4) -0.5713(3) -0.0661(4)
Zn1C Zn 0.10993(5) -0.00175(3) 0.42496(5)
O5A O -0.6838(4) -0.4074(2) -0.0266(4)
O6C O -0.4850(4) -0.5957(2) 0.1335(4)
loop_
_geom_bond_atom_site_label_1
_geom_bond_atom_site_label_2
_geom_bond_site_symmetry_1
_geom_bond_site_symmetry_2
Zn1 O2 1_555 1_555
O1 C11 1_555 1_555
O2 C11 1_555 1_555
O3 H1 1_555 1_555
O4 C14 1_555 1_555
O5 C17 1_555 1_555
O6 C17 1_555 1_555
N1 Zn1 1_555 1_555
N2 C8 1_555 1_555
C1 N1 1_555 1_555
H2 C1 1_555 1_555
C2 C1 1_555 1_555
H3 C2 1_555 1_555
C3 C2 1_555 1_555
C4 C3 1_555 1_555
H4 C4 1_555 1_555
C5 N1 1_555 1_555
H5 C5 1_555 1_555
C6 C3 1_555 1_555
C7 C6 1_555 1_555
H6 C7 1_555 1_555
C8 C7 1_555 1_555
H7 C8 1_555 1_555
C9 N2 1_555 1_555
H8 C9 1_555 1_555
C10 C6 1_555 1_555
H9 C10 1_555 1_555
C11 C12 1_555 1_555
C12 C13 1_555 1_555
C13 C14 1_555 1_555
C14 O3 1_555 1_555
C15 C13 1_555 1_555
H10 C15 1_555 1_555
C16 C15 1_555 1_555
C17 C16 1_555 1_555
C18 C16 1_555 1_555
H11 C18 1_555 1_555
C19 C12 1_555 1_555
H12 C19 1_555 1_555
Zn1A O5 1_555 1_555
Zn1B O1 1_555 1_555
O1B Zn1 1_555 1_555
Zn1C O6 1_555 1_555
O5A Zn1 1_555 1_555
O6C Zn1 1_555 1_555
C4 C5 1_555 1_555
C9 C10 1_555 1_555
C18 C19 1_555 1_555

#END
