
#######################################################################
#
#                 Cambridge Crystallographic Data Centre
#                                CCDC 
#
#######################################################################
#
# If this CIF has been generated from an entry in the Cambridge 
# Structural Database, then it will include bibliographic, chemical, 
# crystal, experimental, refinement or atomic coordinate data resulting 
# from the CCDC's data processing and validation procedures.
#
#######################################################################

data_BIDHIG
_symmetry_cell_setting           triclinic
_symmetry_space_group_name_H-M   'P -1'
_symmetry_Int_Tables_number      2
_space_group_name_Hall           '-P 1'
loop_
_symmetry_equiv_pos_site_id
_symmetry_equiv_pos_as_xyz
1 x,y,z
2 -x,-y,-z
_cell_length_a                   6.0294(4)
_cell_length_b                   10.9061(6)
_cell_length_c                   13.8392(9)
_cell_angle_alpha                101.486(7)
_cell_angle_beta                 93.799(8)
_cell_angle_gamma                100.933(7)
_cell_volume                     870.484
loop_
_atom_site_label
_atom_site_type_symbol
_atom_site_fract_x
_atom_site_fract_y
_atom_site_fract_z
Nd1 Nd 0.393820(18) 0.251333(12) 0.517778(8)
O1 O 0.2365(2) 0.39463(15) 0.42802(11)
O2 O 0.4527(2) 0.54094(15) 0.36213(11)
O3 O -0.4521(2) -0.11141(16) -0.35938(11)
O4 O -0.0943(2) -0.10209(16) -0.38806(11)
O5 O 0.7091(2) 0.20729(15) 0.60524(11)
O6 O 1.0779(3) 0.28034(17) 0.60178(12)
O7 O 0.7296(3) 0.3649(2) 0.44705(12)
H1 H 0.834(6) 0.336(3) 0.446(3)
H2 H 0.748(5) 0.431(4) 0.464(3)
O8 O 0.2923(3) 0.05385(18) 0.57829(14)
H3 H 0.180(6) 0.018(3) 0.580(2)
H4 H 0.393(6) 0.028(3) 0.601(3)
N1 N -0.0768(3) 0.2250(2) 0.13371(15)
N2 N 0.1373(3) 0.1246(2) -0.10392(15)
N3 N 1.1652(3) 0.4651(2) 0.89722(14)
C1 C 0.0717(4) 0.2148(2) 0.06442(15)
C2 C 0.2997(4) 0.2724(2) 0.08526(16)
H5 H 0.376(6) 0.267(4) 0.044(3)
C3 C 0.3786(4) 0.3452(2) 0.17848(17)
H6 H 0.535(5) 0.385(3) 0.192(2)
C4 C 0.2306(4) 0.3569(2) 0.25153(15)
C5 C 0.0039(4) 0.2933(2) 0.22573(17)
H7 H -0.100(5) 0.296(3) 0.273(2)
C6 C 0.3134(3) 0.4373(2) 0.35397(15)
C7 C -0.0160(4) 0.1379(2) -0.03749(16)
C8 C -0.2440(4) 0.0835(2) -0.06127(17)
H8 H -0.329(7) 0.089(4) -0.019(3)
C9 C -0.3216(4) 0.0142(2) -0.15598(17)
H9 H -0.473(5) -0.026(3) -0.171(2)
C10 C -0.1667(4) 0.0004(2) -0.22664(16)
C11 C 0.0615(4) 0.0563(2) -0.19650(18)
H10 H 0.163(5) 0.048(3) -0.242(3)
C12 C -0.2407(3) -0.0742(2) -0.33016(16)
C13 C 0.9805(4) 0.4626(2) 0.94787(15)
C14 C 0.7642(4) 0.3948(2) 0.90567(16)
H11 H 0.648(5) 0.398(3) 0.942(2)
C15 C 0.7363(3) 0.3280(2) 0.80866(16)
H12 H 0.590(5) 0.278(3) 0.778(2)
C16 C 0.9238(3) 0.3315(2) 0.75437(15)
C17 C 1.1341(4) 0.4008(2) 0.80310(17)
H13 H 1.264(5) 0.405(3) 0.770(2)
C18 C 0.9027(3) 0.2680(2) 0.64716(16)
C13A C 1.0195(4) 0.5374(2) 1.05213(15)
N3A N 0.8348(3) 0.5349(2) 1.10278(14)
C17A C 0.8659(4) 0.5992(2) 1.19690(17)
C16A C 1.0762(3) 0.6685(2) 1.24563(15)
C15A C 1.2637(3) 0.6720(2) 1.19134(16)
C14A C 1.2358(4) 0.6052(2) 1.09433(16)
H11A H 1.352(5) 0.602(3) 1.058(2)
H12A H 1.410(5) 0.722(3) 1.222(2)
C18A C 1.0973(3) 0.7320(2) 1.35284(16)
O5A O 1.2909(2) 0.79271(15) 1.39476(11)
O6A O 0.9221(3) 0.71966(17) 1.39822(12)
H13A H 0.736(5) 0.595(3) 1.230(2)
O1A O 0.7635(2) 0.60537(15) 0.57198(11)
O2A O 0.5473(2) 0.45906(15) 0.63787(11)
O3A O 1.4521(2) 1.11141(16) 1.35938(11)
O4A O 1.0943(2) 1.10209(16) 1.38806(11)
N1A N 1.0768(3) 0.7750(2) 0.86629(15)
N2A N 0.8627(3) 0.8754(2) 1.10392(15)
C1A C 0.9283(4) 0.7852(2) 0.93558(15)
C2A C 0.7003(4) 0.7276(2) 0.91474(16)
H5A H 0.624(6) 0.733(4) 0.956(3)
C3A C 0.6214(4) 0.6548(2) 0.82152(17)
H6A H 0.465(5) 0.615(3) 0.808(2)
C4A C 0.7694(4) 0.6431(2) 0.74847(15)
C5A C 0.9961(4) 0.7067(2) 0.77427(17)
H7A H 1.100(5) 0.704(3) 0.727(2)
C6A C 0.6866(3) 0.5627(2) 0.64603(15)
C7A C 1.0160(4) 0.8621(2) 1.03749(16)
C8A C 1.2440(4) 0.9165(2) 1.06127(17)
H8A H 1.329(7) 0.911(4) 1.019(3)
C9A C 1.3216(4) 0.9858(2) 1.15598(17)
H9A H 1.473(5) 1.026(3) 1.171(2)
C10A C 1.1667(4) 0.9996(2) 1.22664(16)
C11A C 0.9385(4) 0.9437(2) 1.19650(18)
H10A H 0.837(5) 0.952(3) 1.242(3)
C12A C 1.2407(3) 1.0742(2) 1.33016(16)
Nd1A Nd 0.606180(18) 0.748667(12) 0.482222(8)
O7A O 0.2704(3) 0.6351(2) 0.55295(12)
H1A H 0.166(6) 0.664(3) 0.554(3)
H2A H 0.252(5) 0.569(4) 0.536(3)
O8A O 0.7077(3) 0.94615(18) 0.42171(14)
H3A H 0.820(6) 0.982(3) 0.420(2)
H4A H 0.607(6) 0.972(3) 0.399(3)
O3A_2 O 0.4521(2) 0.11141(16) 0.35938(11)
O4A_2 O 0.0943(2) 0.10209(16) 0.38806(11)
O6_2 O 0.0779(3) 0.28034(17) 0.60178(12)
Nd1A_2 Nd -0.393820(18) -0.251333(12) -0.517778(8)
Nd1_2 Nd 1.393820(18) 0.251333(12) 0.517778(8)
Nd1A_3 Nd 1.606180(18) 0.748667(12) 1.482222(8)
Nd1A_4 Nd 0.606180(18) 0.748667(12) 1.482222(8)
Nd1_3 Nd 1.393820(18) 1.251333(12) 1.517778(8)
O3_2 O 0.5479(2) 0.88859(16) 0.64062(11)
O4_2 O 0.9057(2) 0.89791(16) 0.61194(11)
O5A_2 O 0.2909(2) 0.79271(15) 0.39476(11)
O6A_2 O 0.9221(3) 0.71966(17) 0.39822(12)
loop_
_geom_bond_atom_site_label_1
_geom_bond_atom_site_label_2
_geom_bond_site_symmetry_1
_geom_bond_site_symmetry_2
Nd1 O1 1_555 1_555
O1 C6 1_555 1_555
O2 C6 1_555 1_555
O3 C12 1_555 1_555
O4 C12 1_555 1_555
O5 Nd1 1_555 1_555
O6 C18 1_555 1_555
O7 Nd1 1_555 1_555
H1 O7 1_555 1_555
H2 O7 1_555 1_555
O8 Nd1 1_555 1_555
H3 O8 1_555 1_555
H4 O8 1_555 1_555
N1 C1 1_555 1_555
N2 C7 1_555 1_555
N3 C13 1_555 1_555
C1 C2 1_555 1_555
C2 H5 1_555 1_555
C3 C2 1_555 1_555
H6 C3 1_555 1_555
C4 C3 1_555 1_555
C5 N1 1_555 1_555
H7 C5 1_555 1_555
C6 C4 1_555 1_555
C7 C1 1_555 1_555
C8 C7 1_555 1_555
H8 C8 1_555 1_555
C9 C8 1_555 1_555
H9 C9 1_555 1_555
C10 C9 1_555 1_555
C11 N2 1_555 1_555
H10 C11 1_555 1_555
C12 C10 1_555 1_555
C13 C14 1_555 1_555
C14 H11 1_555 1_555
C15 C14 1_555 1_555
H12 C15 1_555 1_555
C16 C15 1_555 1_555
C17 N3 1_555 1_555
H13 C17 1_555 1_555
C18 O5 1_555 1_555
C13A C13 1_555 1_555
N3A C13A 1_555 1_555
C17A N3A 1_555 1_555
C16A C17A 1_555 1_555
C15A C16A 1_555 1_555
C14A C13A 1_555 1_555
H11A C14A 1_555 1_555
H12A C15A 1_555 1_555
C18A C16A 1_555 1_555
O5A C18A 1_555 1_555
O6A C18A 1_555 1_555
H13A C17A 1_555 1_555
O1A C6A 1_555 1_555
O2A Nd1 1_555 1_555
O3A C12A 1_555 1_555
O4A C12A 1_555 1_555
N1A C1A 1_555 1_555
N2A C7A 1_555 1_555
C1A C2A 1_555 1_555
C2A H5A 1_555 1_555
C3A C2A 1_555 1_555
H6A C3A 1_555 1_555
C4A C3A 1_555 1_555
C5A N1A 1_555 1_555
H7A C5A 1_555 1_555
C6A O2A 1_555 1_555
C7A C1A 1_555 1_555
C8A C7A 1_555 1_555
H8A C8A 1_555 1_555
C9A C8A 1_555 1_555
H9A C9A 1_555 1_555
C10A C9A 1_555 1_555
C11A N2A 1_555 1_555
H10A C11A 1_555 1_555
C12A C10A 1_555 1_555
Nd1A O2 1_555 1_555
O7A Nd1A 1_555 1_555
H1A O7A 1_555 1_555
H2A O7A 1_555 1_555
O8A Nd1A 1_555 1_555
H3A O8A 1_555 1_555
H4A O8A 1_555 1_555
O3A_2 Nd1 1_555 1_555
O4A_2 Nd1 1_555 1_555
O6_2 Nd1 1_555 1_555
Nd1A_2 O3 1_555 1_555
Nd1_2 O6 1_555 1_555
Nd1A_3 O5A 1_555 1_555
Nd1A_4 O6A 1_555 1_555
Nd1_3 O3A 1_555 1_555
O3_2 Nd1A 1_555 1_555
O4_2 Nd1A 1_555 1_555
O5A_2 Nd1A 1_555 1_555
O6A_2 Nd1A 1_555 1_555
O4 Nd1A_2 1_555 1_555
C4 C5 1_555 1_555
C10 C11 1_555 1_555
C16 C18 1_555 1_555
C16 C17 1_555 1_555
C15A C14A 1_555 1_555
O1A Nd1A 1_555 1_555
O4A Nd1_3 1_555 1_555
C4A C6A 1_555 1_555
C4A C5A 1_555 1_555
C10A C11A 1_555 1_555

#END
