
#######################################################################
#
#                 Cambridge Crystallographic Data Centre
#                                CCDC 
#
#######################################################################
#
# If this CIF has been generated from an entry in the Cambridge 
# Structural Database, then it will include bibliographic, chemical, 
# crystal, experimental, refinement or atomic coordinate data resulting 
# from the CCDC's data processing and validation procedures.
#
#######################################################################

data_BIDMAE
_symmetry_cell_setting           monoclinic
_symmetry_space_group_name_H-M   'P 21/c'
_symmetry_Int_Tables_number      14
_space_group_name_Hall           '-P 2ybc'
loop_
_symmetry_equiv_pos_site_id
_symmetry_equiv_pos_as_xyz
1 x,y,z
2 -x,1/2+y,1/2-z
3 -x,-y,-z
4 x,1/2-y,1/2+z
_cell_length_a                   18.9686(10)
_cell_length_b                   18.8743(9)
_cell_length_c                   26.1162(14)
_cell_angle_alpha                90
_cell_angle_beta                 107.4360(10)
_cell_angle_gamma                90
_cell_volume                     8920.48
loop_
_atom_site_label
_atom_site_type_symbol
_atom_site_fract_x
_atom_site_fract_y
_atom_site_fract_z
Ni1 Ni 0.25971(7) -0.19126(7) -0.06876(6)
N5 N 0.3102(5) -0.1866(5) 0.0160(3)
H25 H 0.3299 -0.1494 0.0345
N6 N 0.2681(5) -0.3017(5) -0.0530(3)
H26 H 0.2466 -0.3352 -0.0750
N7 N 0.3600(4) -0.1906(5) -0.0897(3)
H27 H 0.4042 -0.1956 -0.0676
N8 N 0.2140(5) -0.2081(5) -0.1519(3)
H28 H 0.1671 -0.2076 -0.1693
N9 N 0.2511(4) -0.0796(5) -0.0753(4)
H29 H 0.2875 -0.0504 -0.0726
N10 N 0.1518(5) -0.1777(5) -0.0591(4)
H30 H 0.1199 -0.2116 -0.0611
C13 C 0.3054(9) -0.2577(7) 0.0373(5)
H31 H 0.2528 -0.2629 0.0354
C14 C 0.3478(7) -0.2665(7) 0.0976(5)
H32 H 0.3992 -0.2517 0.1038
H33 H 0.3258 -0.2353 0.1186
C15 C 0.3467(11) -0.3409(8) 0.1167(6)
H34 H 0.3832 -0.3453 0.1521
H35 H 0.2980 -0.3504 0.1209
C16 C 0.3616(13) -0.3930(9) 0.0828(6)
H36 H 0.3546 -0.4399 0.0966
H37 H 0.4134 -0.3891 0.0836
C17 C 0.3114(11) -0.3870(8) 0.0232(6)
H38 H 0.3272 -0.4216 0.0009
H39 H 0.2599 -0.3973 0.0211
C18 C 0.3172(10) -0.3110(6) 0.0022(5)
H40 H 0.3685 -0.3052 0.0009
C19 C 0.3417(6) -0.1804(7) -0.1468(5)
H41 H 0.3292 -0.1296 -0.1533
C20 C 0.4021(5) -0.1946(6) -0.1713(4)
H42 H 0.4203 -0.2429 -0.1620
H43 H 0.4431 -0.1621 -0.1553
C21 C 0.3795(7) -0.1864(7) -0.2319(5)
H44 H 0.3714 -0.1361 -0.2410
H45 H 0.4199 -0.2030 -0.2450
C22 C 0.3128(8) -0.2257(8) -0.2589(5)
H46 H 0.3234 -0.2766 -0.2551
H47 H 0.2978 -0.2143 -0.2973
C23 C 0.2489(6) -0.2085(7) -0.2360(5)
H48 H 0.2339 -0.1589 -0.2437
H49 H 0.2063 -0.2386 -0.2532
C24 C 0.2729(6) -0.2207(7) -0.1755(5)
H50 H 0.2856 -0.2716 -0.1700
C25 C 0.1731(7) -0.0600(6) -0.0851(6)
H51 H 0.1462 -0.0722 -0.1228
C26 C 0.1618(7) 0.0168(8) -0.0775(7)
H52 H 0.1806 0.0444 -0.1024
H53 H 0.1896 0.0306 -0.0408
C27 C 0.0789(10) 0.0335(12) -0.0875(10)
H54 H 0.0731 0.0838 -0.0805
H55 H 0.0520 0.0242 -0.1253
C28 C 0.0465(10) -0.0103(11) -0.0524(10)
H56 H 0.0677 0.0049 -0.0151
H57 H -0.0069 -0.0021 -0.0626
C29 C 0.0601(7) -0.0860(8) -0.0562(7)
H58 H 0.0302 -0.1032 -0.0914
H59 H 0.0439 -0.1111 -0.0289
C30 C 0.1402(7) -0.1036(7) -0.0488(6)
H60 H 0.1685 -0.0931 -0.0111
In1 In 0.13038(4) -0.05253(4) 0.34145(3)
In2 In 0.07046(4) 0.11399(4) 0.25594(3)
In3 In 0.22495(4) -0.01926(3) 0.22841(3)
In4 In 0.27553(4) 0.09909(3) 0.36329(3)
In5 In 0.01696(4) 0.28639(4) 0.16746(3)
In6 In 0.15900(4) 0.15813(4) 0.13630(3)
In7 In 0.20829(4) 0.27966(4) 0.27149(3)
In8 In 0.30604(4) 0.03200(4) 0.12060(3)
In9 In 0.36684(4) 0.15173(3) 0.24588(3)
In10 In 0.40537(4) 0.25776(3) 0.37352(3)
In11 In 0.43715(3) 0.07288(3) 0.00282(3)
In12 In 0.48810(3) -0.05932(3) 0.10925(3)
S1 S 0.08896(14) -0.14659(14) 0.38985(11)
S2 S 0.02486(15) 0.02363(16) 0.30294(14)
S3 S 0.18376(16) -0.11074(14) 0.27763(11)
S4 S 0.23036(16) 0.00833(15) 0.41011(11)
S5 S -0.03165(14) 0.19156(16) 0.21289(12)
S6 S 0.11772(13) 0.06008(13) 0.18578(11)
S7 S 0.17097(14) 0.18174(13) 0.32230(10)
S8 S 0.27405(15) -0.07384(13) 0.16280(11)
S9 S 0.32585(13) 0.04972(12) 0.29214(10)
S10 S 0.38133(14) 0.15750(13) 0.42430(10)
S11 S 0.06454(16) 0.24310(15) 0.09627(11)
S12 S 0.10193(16) 0.35617(15) 0.23912(13)
S13 S 0.19605(14) 0.09429(15) 0.06899(10)
S14 S 0.25910(13) 0.22975(13) 0.20090(10)
S15 S 0.30658(14) 0.34348(13) 0.33563(10)
S16 S 0.36684(12) -0.01373(12) 0.05426(9)
S17 S 0.41044(14) 0.10237(14) 0.17575(10)
S18 S 0.46404(14) 0.21791(14) 0.30767(11)
S19 S 0.43971(12) -0.02555(12) -0.06438(9)
S20 S 0.49183(12) 0.16334(11) -0.05745(9)
N1 N 0.3219(4) 0.1196(4) -0.0356(3)
H1 H 0.2866 0.0986 -0.0600
N2 N 0.4314(4) 0.1672(4) 0.0565(3)
H2 H 0.4689 0.1839 0.0817
N3 N 0.4527(4) -0.1179(4) 0.1755(3)
H3 H 0.4249 -0.1555 0.1700
N4 N 0.5584(5) -0.0128(5) 0.1873(3)
H4 H 0.5825 0.0269 0.1900
C1 C 0.3160(6) 0.1895(7) -0.0133(5)
H5 H 0.3435 0.2208 -0.0310
C2 C 0.2390(6) 0.2197(6) -0.0301(5)
H6 H 0.2054 0.1861 -0.0206
H7 H 0.2224 0.2257 -0.0692
C3 C 0.2348(9) 0.2912(9) -0.0033(7)
H8 H 0.2547 0.3278 -0.0217
H9 H 0.1827 0.3025 -0.0085
C4 C 0.2732(9) 0.2948(9) 0.0526(7)
H10 H 0.2450 0.2680 0.0719
H11 H 0.2743 0.3443 0.0640
C5 C 0.3506(6) 0.2674(6) 0.0690(5)
H12 H 0.3681 0.2621 0.1081
H13 H 0.3828 0.3015 0.0586
C6 C 0.3553(7) 0.1962(7) 0.0428(6)
H14 H 0.3293 0.1633 0.0605
C7 C 0.4835(6) -0.0833(6) 0.2288(4)
H15 H 0.4530 -0.0409 0.2291
C8 C 0.4787(6) -0.1306(6) 0.2746(4)
H16 H 0.4268 -0.1407 0.2712
H17 H 0.5037 -0.1757 0.2732
C9 C 0.5146(9) -0.0944(8) 0.3274(5)
H18 H 0.4866 -0.0516 0.3301
H19 H 0.5137 -0.1261 0.3569
C10 C 0.5931(9) -0.0745(8) 0.3327(5)
H20 H 0.6217 -0.1171 0.3307
H21 H 0.6157 -0.0518 0.3675
C11 C 0.5944(9) -0.0241(7) 0.2879(4)
H22 H 0.6455 -0.0116 0.2907
H23 H 0.5679 0.0195 0.2910
C12 C 0.5582(6) -0.0587(6) 0.2341(4)
H24 H 0.5879 -0.1012 0.2323
In5A In -0.01696(4) -0.21361(4) 0.33254(3)
In10C In 0.40537(4) 0.24224(3) -0.12648(3)
In11B In 0.56285(3) -0.07288(3) -0.00282(3)
In12B In 0.51190(3) 0.05932(3) -0.10925(3)
S1A S -0.08896(14) 0.35341(14) 0.11015(11)
S19B S 0.56029(12) 0.02555(12) 0.06438(9)
S20B S 0.50817(12) -0.16334(11) 0.05745(9)
S20C S 0.49183(12) 0.33666(11) 0.44255(9)
loop_
_geom_bond_atom_site_label_1
_geom_bond_atom_site_label_2
_geom_bond_site_symmetry_1
_geom_bond_site_symmetry_2
In1 S1 1_555 1_555
In2 S2 1_555 1_555
In3 S3 1_555 1_555
In4 S4 1_555 1_555
In5 S5 1_555 1_555
In6 S6 1_555 1_555
In7 S7 1_555 1_555
In8 S8 1_555 1_555
In9 S9 1_555 1_555
In10 S10 1_555 1_555
In11 S16 1_555 1_555
In12 S16 1_555 1_555
S1 In5A 1_555 1_555
S2 In1 1_555 1_555
S3 In1 1_555 1_555
S4 In1 1_555 1_555
S5 In2 1_555 1_555
S6 In2 1_555 1_555
S7 In2 1_555 1_555
S8 In3 1_555 1_555
S9 In3 1_555 1_555
S10 In4 1_555 1_555
S11 In5 1_555 1_555
S12 In5 1_555 1_555
S13 In6 1_555 1_555
S14 In6 1_555 1_555
S15 In7 1_555 1_555
S16 In8 1_555 1_555
S17 In8 1_555 1_555
S18 In9 1_555 1_555
S19 In11 1_555 1_555
S20 In11 1_555 1_555
N1 In11 1_555 1_555
H1 N1 1_555 1_555
N2 In11 1_555 1_555
H2 N2 1_555 1_555
N3 In12 1_555 1_555
H3 N3 1_555 1_555
N4 In12 1_555 1_555
H4 N4 1_555 1_555
C1 N1 1_555 1_555
H5 C1 1_555 1_555
C2 C1 1_555 1_555
H6 C2 1_555 1_555
H7 C2 1_555 1_555
C3 C2 1_555 1_555
H8 C3 1_555 1_555
H9 C3 1_555 1_555
C4 C3 1_555 1_555
H10 C4 1_555 1_555
H11 C4 1_555 1_555
C5 C4 1_555 1_555
H12 C5 1_555 1_555
H13 C5 1_555 1_555
C6 N2 1_555 1_555
H14 C6 1_555 1_555
C7 N3 1_555 1_555
H15 C7 1_555 1_555
C8 C7 1_555 1_555
H16 C8 1_555 1_555
H17 C8 1_555 1_555
C9 C8 1_555 1_555
H18 C9 1_555 1_555
H19 C9 1_555 1_555
C10 C9 1_555 1_555
H20 C10 1_555 1_555
H21 C10 1_555 1_555
C11 C10 1_555 1_555
H22 C11 1_555 1_555
H23 C11 1_555 1_555
C12 N4 1_555 1_555
H24 C12 1_555 1_555
Ni1 N5 1_555 1_555
N5 H25 1_555 1_555
N6 Ni1 1_555 1_555
H26 N6 1_555 1_555
N7 Ni1 1_555 1_555
H27 N7 1_555 1_555
N8 Ni1 1_555 1_555
H28 N8 1_555 1_555
N9 Ni1 1_555 1_555
H29 N9 1_555 1_555
N10 Ni1 1_555 1_555
H30 N10 1_555 1_555
C13 N5 1_555 1_555
H31 C13 1_555 1_555
C14 C13 1_555 1_555
H32 C14 1_555 1_555
H33 C14 1_555 1_555
C15 C14 1_555 1_555
H34 C15 1_555 1_555
H35 C15 1_555 1_555
C16 C15 1_555 1_555
H36 C16 1_555 1_555
H37 C16 1_555 1_555
C17 C16 1_555 1_555
H38 C17 1_555 1_555
H39 C17 1_555 1_555
C18 N6 1_555 1_555
H40 C18 1_555 1_555
C19 N7 1_555 1_555
H41 C19 1_555 1_555
C20 C19 1_555 1_555
H42 C20 1_555 1_555
H43 C20 1_555 1_555
C21 C20 1_555 1_555
H44 C21 1_555 1_555
H45 C21 1_555 1_555
C22 C21 1_555 1_555
H46 C22 1_555 1_555
H47 C22 1_555 1_555
C23 C22 1_555 1_555
H48 C23 1_555 1_555
H49 C23 1_555 1_555
C24 N8 1_555 1_555
H50 C24 1_555 1_555
C25 N9 1_555 1_555
H51 C25 1_555 1_555
C26 C25 1_555 1_555
H52 C26 1_555 1_555
H53 C26 1_555 1_555
C27 C26 1_555 1_555
H54 C27 1_555 1_555
H55 C27 1_555 1_555
C28 C27 1_555 1_555
H56 C28 1_555 1_555
H57 C28 1_555 1_555
C29 C28 1_555 1_555
H58 C29 1_555 1_555
H59 C29 1_555 1_555
C30 N10 1_555 1_555
H60 C30 1_555 1_555
In10C S20 1_555 1_555
In11B S19 1_555 1_555
In12B S19 1_555 1_555
S1A In5 1_555 1_555
S19B In11 1_555 1_555
S20B In12 1_555 1_555
S20C In10 1_555 1_555
In3 S6 1_555 1_555
In4 S7 1_555 1_555
In4 S9 1_555 1_555
In6 S11 1_555 1_555
In7 S12 1_555 1_555
In7 S14 1_555 1_555
In8 S13 1_555 1_555
In9 S14 1_555 1_555
In9 S17 1_555 1_555
In10 S15 1_555 1_555
In10 S18 1_555 1_555
In12 S19B 1_555 1_555
S20 In12B 1_555 1_555
C1 C6 1_555 1_555
C5 C6 1_555 1_555
C7 C12 1_555 1_555
C11 C12 1_555 1_555
C13 C18 1_555 1_555
C17 C18 1_555 1_555
C19 C24 1_555 1_555
C23 C24 1_555 1_555
C25 C30 1_555 1_555
C29 C30 1_555 1_555
In11B S19B 1_555 1_555
In11B S20B 1_555 1_555

#END
