
#######################################################################
#
#                 Cambridge Crystallographic Data Centre
#                                CCDC 
#
#######################################################################
#
# If this CIF has been generated from an entry in the Cambridge 
# Structural Database, then it will include bibliographic, chemical, 
# crystal, experimental, refinement or atomic coordinate data resulting 
# from the CCDC's data processing and validation procedures.
#
#######################################################################

data_BIDMEI
_symmetry_cell_setting           monoclinic
_symmetry_space_group_name_H-M   'C 2/c'
_symmetry_Int_Tables_number      15
_space_group_name_Hall           '-C 2yn'
loop_
_symmetry_equiv_pos_site_id
_symmetry_equiv_pos_as_xyz
1 x,y,z
2 -x,y,1/2-z
3 1/2+x,1/2+y,z
4 1/2-x,1/2+y,1/2-z
5 -x,-y,-z
6 x,-y,1/2+z
7 1/2-x,1/2-y,-z
8 1/2+x,1/2-y,1/2+z
_cell_length_a                   32.042(4)
_cell_length_b                   9.8206(8)
_cell_length_c                   24.305(2)
_cell_angle_alpha                90
_cell_angle_beta                 127.353(2)
_cell_angle_gamma                90
_cell_volume                     6079.57
loop_
_atom_site_label
_atom_site_type_symbol
_atom_site_fract_x
_atom_site_fract_y
_atom_site_fract_z
Ni1 Ni 0.59710(3) 0.80816(8) 0.45951(4)
N1 N 0.5504(2) 0.6281(5) 0.4245(3)
N2 N 0.5338(2) 0.8828(5) 0.4584(3)
N3 N 0.63852(19) 0.9952(5) 0.4979(2)
N4 N 0.6425(2) 0.7627(6) 0.5678(3)
N5 N 0.6552(2) 0.7206(5) 0.4532(3)
N6 N 0.56369(19) 0.8646(5) 0.3551(3)
C1 C 0.5068(3) 0.6497(8) 0.4283(6)
C2 C 0.4643(3) 0.5395(7) 0.3927(4)
C3 C 0.4210(4) 0.5671(10) 0.3996(7)
C4 C 0.4046(4) 0.7039(12) 0.3939(7)
C5 C 0.4476(3) 0.8102(8) 0.4300(4)
C6 C 0.4902(4) 0.7860(9) 0.4213(6)
C7 C 0.6637(3) 1.0040(8) 0.5723(4)
C8 C 0.7051(3) 1.1149(8) 0.6087(4)
C9 C 0.7321(4) 1.1205(12) 0.6862(4)
C10 C 0.7529(4) 0.9891(12) 0.7181(4)
C11 C 0.7103(3) 0.8698(9) 0.6835(3)
C12 C 0.6847(3) 0.8697(8) 0.6044(4)
C13 C 0.6397(2) 0.7379(6) 0.3818(3)
C14 C 0.6868(2) 0.7340(7) 0.3812(3)
C15 C 0.6699(3) 0.7620(8) 0.3075(4)
C16 C 0.6389(3) 0.8953(8) 0.2785(3)
C17 C 0.5907(3) 0.8912(7) 0.2773(3)
C18 C 0.6086(2) 0.8695(6) 0.3518(3)
In1 In 0.689909(14) 0.29289(4) 0.43140(2)
In2 In 0.565525(14) 0.35954(4) 0.30676(2)
S1 S 0.73425(5) 0.07009(15) 0.47678(7)
S2 S 0.64172(6) 0.34408(19) 0.30753(8)
S3 S 0.61432(6) 0.33983(17) 0.43415(7)
S4 S 0.5000 0.1729(2) 0.2500
S5 S 0.5000 0.5467(2) 0.2500
In1A In 0.310091(14) 0.29289(4) 0.06860(2)
In2A In 0.434475(14) 0.35954(4) 0.19324(2)
S1A S 0.26575(5) 0.07009(15) 0.02322(7)
S2A S 0.35828(6) 0.34408(19) 0.19247(8)
S3A S 0.38568(6) 0.33983(17) 0.06585(7)
In1F In 0.810091(14) 0.20711(4) 0.56860(2)
In1G In 0.189909(14) 0.20711(4) -0.06860(2)
S1F S 0.76575(5) 0.42991(15) 0.52322(7)
S1G S 0.23425(5) 0.42991(15) -0.02322(7)
O1 O 0.3000(2) 0.4996(6) 0.4135(3)
O2 O 0.4150(3) 0.1988(7) 0.3643(3)
O3 O 0.5129(2) 0.1637(6) 0.3917(3)
loop_
_geom_bond_atom_site_label_1
_geom_bond_atom_site_label_2
_geom_bond_site_symmetry_1
_geom_bond_site_symmetry_2
Ni1 N1 1_555 1_555
N1 C1 1_555 1_555
N2 Ni1 1_555 1_555
N3 Ni1 1_555 1_555
N4 Ni1 1_555 1_555
N5 Ni1 1_555 1_555
N6 Ni1 1_555 1_555
C1 C2 1_555 1_555
C2 C3 1_555 1_555
C3 C4 1_555 1_555
C4 C5 1_555 1_555
C5 C6 1_555 1_555
C6 N2 1_555 1_555
C7 N3 1_555 1_555
C8 C7 1_555 1_555
C9 C8 1_555 1_555
C10 C9 1_555 1_555
C11 C10 1_555 1_555
C12 N4 1_555 1_555
C13 N5 1_555 1_555
C14 C13 1_555 1_555
C15 C14 1_555 1_555
C16 C15 1_555 1_555
C17 C16 1_555 1_555
C18 N6 1_555 1_555
In1 S1 1_555 1_555
In2 S2 1_555 1_555
S1 In1F 1_555 1_555
S2 In1 1_555 1_555
S3 In1 1_555 1_555
S4 In2 1_555 1_555
S5 In2 1_555 1_555
In1A S1A 1_555 1_555
In2A S4 1_555 1_555
S1A In1G 1_555 1_555
S2A In1A 1_555 1_555
S3A In1A 1_555 1_555
In1F S1F 1_555 1_555
In1G S1G 1_555 1_555
S1F In1 1_555 1_555
S1G In1A 1_555 1_555
C1 C6 1_555 1_555
C7 C12 1_555 1_555
C11 C12 1_555 1_555
C13 C18 1_555 1_555
C17 C18 1_555 1_555
In2 S3 1_555 1_555
S5 In2A 1_555 1_555
In2A S2A 1_555 1_555
In2A S3A 1_555 1_555

#END
