
#######################################################################
#
#                 Cambridge Crystallographic Data Centre
#                                CCDC 
#
#######################################################################
#
# If this CIF has been generated from an entry in the Cambridge 
# Structural Database, then it will include bibliographic, chemical, 
# crystal, experimental, refinement or atomic coordinate data resulting 
# from the CCDC's data processing and validation procedures.
#
#######################################################################

data_BIDPAH
_symmetry_cell_setting           rhombohedral
_symmetry_space_group_name_H-M   'R -3 c'
_symmetry_Int_Tables_number      167
_space_group_name_Hall           '-R 3 2"c'
loop_
_symmetry_equiv_pos_site_id
_symmetry_equiv_pos_as_xyz
1 x,y,z
2 -y,x-y,z
3 -x+y,-x,z
4 y,x,1/2-z
5 x-y,-y,1/2-z
6 -x,-x+y,1/2-z
7 2/3+x,1/3+y,1/3+z
8 2/3-y,1/3+x-y,1/3+z
9 2/3-x+y,1/3-x,1/3+z
10 2/3+y,1/3+x,5/6-z
11 2/3+x-y,1/3-y,5/6-z
12 2/3-x,1/3-x+y,5/6-z
13 1/3+x,2/3+y,2/3+z
14 1/3-y,2/3+x-y,2/3+z
15 1/3-x+y,2/3-x,2/3+z
16 1/3+y,2/3+x,1/6-z
17 1/3+x-y,2/3-y,1/6-z
18 1/3-x,2/3-x+y,1/6-z
19 -x,-y,-z
20 y,-x+y,-z
21 x-y,x,-z
22 -y,-x,1/2+z
23 -x+y,y,1/2+z
24 x,x-y,1/2+z
25 1/3-x,2/3-y,2/3-z
26 1/3+y,2/3-x+y,2/3-z
27 1/3+x-y,2/3+x,2/3-z
28 1/3-y,2/3-x,1/6+z
29 1/3-x+y,2/3+y,1/6+z
30 1/3+x,2/3+x-y,1/6+z
31 2/3-x,1/3-y,1/3-z
32 2/3+y,1/3-x+y,1/3-z
33 2/3+x-y,1/3+x,1/3-z
34 2/3-y,1/3-x,5/6+z
35 2/3-x+y,1/3+y,5/6+z
36 2/3+x,1/3+x-y,5/6+z
_cell_length_a                   38.2369(10)
_cell_length_b                   38.2369(10)
_cell_length_c                   22.7356(12)
_cell_angle_alpha                90
_cell_angle_beta                 90
_cell_angle_gamma                120
_cell_volume                     28787.4
loop_
_atom_site_label
_atom_site_type_symbol
_atom_site_fract_x
_atom_site_fract_y
_atom_site_fract_z
In1 In 0.411383(7) 0.078050(7) 0.0833
N1 N 0.6667 0.11489(10) 0.0833
O1 O 0.46590(6) 0.07451(6) 0.11442(11)
O2 O 0.46951(6) 0.10389(6) 0.03052(10)
O3 O 0.62293(6) -0.05040(7) -0.00306(9)
O4 O 0.60590(7) -0.01060(7) -0.04566(10)
C1 C 0.48486(10) 0.09212(9) 0.07065(19)
C2 C 0.52770(9) 0.10145(9) 0.06055(17)
C3 C 0.54957(10) 0.12221(10) 0.01211(17)
H1 H 0.5379 0.1308 -0.0162
C4 C 0.58938(10) 0.13056(10) 0.00518(17)
H2 H 0.6043 0.1456 -0.0271
C5 C 0.60677(8) 0.11705(8) 0.04489(17)
C6 C 0.58417(9) 0.09582(9) 0.09221(16)
H3 H 0.5953 0.0862 0.1197
C7 C 0.54528(9) 0.08821(8) 0.10053(15)
H4 H 0.5309 0.0740 0.1336
C8 C 0.64917(8) 0.12698(9) 0.03513(15)
H5 H 0.6503 0.1139 -0.0008
H6 H 0.6657 0.1559 0.0293
C9 C 0.6667 0.07817(12) 0.0833
C10 C 0.64557(7) 0.04864(9) 0.04156(13)
H7 H 0.6308 0.0531 0.0130
C11 C 0.64596(8) 0.01348(9) 0.04137(14)
C12 C 0.6667 0.00575(11) 0.0833
H8 H 0.6667 -0.0186 0.0833
C13 C 0.62341(9) -0.01672(11) -0.00542(17)
O1Q O 0.86743(6) 0.27528(8) 0.05225(11)
O2Q O 0.86382(6) 0.30105(8) 0.13615(10)
O3Q O 0.71040(6) -0.00666(9) 0.16973(9)
O4Q O 0.72743(7) 0.05017(10) 0.21233(10)
C1Q C 0.84847(10) 0.27393(13) 0.09602(19)
C2Q C 0.80563(9) 0.24042(13) 0.10612(17)
C3Q C 0.78376(10) 0.23931(14) 0.15456(17)
H1Q H 0.7954 0.2596 0.1829
C4Q C 0.74395(10) 0.20785(14) 0.16149(17)
H2Q H 0.7290 0.2080 0.1938
C5Q C 0.72656(8) 0.17695(11) 0.12178(17)
C6Q C 0.74916(9) 0.17832(13) 0.07446(16)
H3Q H 0.7380 0.1576 0.0470
C7Q C 0.78805(9) 0.20960(12) 0.06614(15)
H4Q H 0.8024 0.2098 0.0331
C8Q C 0.68416(8) 0.14448(12) 0.13154(15)
H5Q H 0.6830 0.1303 0.1675
H6Q H 0.6676 0.1569 0.1374
C10Q C 0.68776(7) 0.06974(11) 0.12511(13)
H7Q H 0.7025 0.0890 0.1537
C11Q C 0.68737(8) 0.03419(12) 0.12530(14)
C13Q C 0.70992(9) 0.02654(14) 0.17209(17)
In1A In 0.921950(7) 0.333333(10) 0.0833
In1R In 0.588617(7) -0.078050(7) -0.0833
In1EA In 0.744717(7) 0.000000(10) 0.2500
O1O O 0.40784(6) 0.13257(6) 0.05225(11)
O2O O 0.43722(6) 0.13618(6) 0.13615(10)
O3R O 0.37707(6) 0.05040(7) 0.00306(9)
O3AA O 0.38373(7) 0.04374(6) 0.16361(9)
O4R O 0.39410(7) 0.01060(7) 0.04566(10)
O4AA O 0.34393(7) 0.06077(7) 0.12101(10)
loop_
_geom_bond_atom_site_label_1
_geom_bond_atom_site_label_2
_geom_bond_site_symmetry_1
_geom_bond_site_symmetry_2
In1 O1 1_555 1_555
N1 C8 1_555 1_555
O1 C1 1_555 1_555
O2 In1 1_555 1_555
O3 C13 1_555 1_555
O4 C13 1_555 1_555
C1 O2 1_555 1_555
C2 C1 1_555 1_555
C3 C2 1_555 1_555
H1 C3 1_555 1_555
C4 C3 1_555 1_555
H2 C4 1_555 1_555
C5 C4 1_555 1_555
C6 C5 1_555 1_555
H3 C6 1_555 1_555
C7 C2 1_555 1_555
H4 C7 1_555 1_555
C8 C5 1_555 1_555
H5 C8 1_555 1_555
H6 C8 1_555 1_555
C9 N1 1_555 1_555
C10 C9 1_555 1_555
H7 C10 1_555 1_555
C11 C10 1_555 1_555
C12 C11 1_555 1_555
H8 C12 1_555 1_555
C13 C11 1_555 1_555
O1Q C1Q 1_555 1_555
O2Q C1Q 1_555 1_555
O3Q C13Q 1_555 1_555
O4Q C13Q 1_555 1_555
C1Q C2Q 1_555 1_555
C2Q C3Q 1_555 1_555
C3Q H1Q 1_555 1_555
C4Q C3Q 1_555 1_555
H2Q C4Q 1_555 1_555
C5Q C4Q 1_555 1_555
C6Q C5Q 1_555 1_555
H3Q C6Q 1_555 1_555
C7Q C2Q 1_555 1_555
H4Q C7Q 1_555 1_555
C8Q N1 1_555 1_555
H5Q C8Q 1_555 1_555
H6Q C8Q 1_555 1_555
C10Q C9 1_555 1_555
H7Q C10Q 1_555 1_555
C11Q C12 1_555 1_555
C13Q C11Q 1_555 1_555
In1A O1Q 1_555 1_555
In1R O3 1_555 1_555
In1EA O3Q 1_555 1_555
O1O In1 1_555 1_555
O2O In1 1_555 1_555
O3R In1 1_555 1_555
O3AA In1 1_555 1_555
O4R In1 1_555 1_555
O4AA In1 1_555 1_555
O4 In1R 1_555 1_555
C6 C7 1_555 1_555
O2Q In1A 1_555 1_555
O4Q In1EA 1_555 1_555
C5Q C8Q 1_555 1_555
C6Q C7Q 1_555 1_555
C10Q C11Q 1_555 1_555

#END
