
#######################################################################
#
#                 Cambridge Crystallographic Data Centre
#                                CCDC 
#
#######################################################################
#
# If this CIF has been generated from an entry in the Cambridge 
# Structural Database, then it will include bibliographic, chemical, 
# crystal, experimental, refinement or atomic coordinate data resulting 
# from the CCDC's data processing and validation procedures.
#
#######################################################################

data_BIDQUA
_symmetry_cell_setting           triclinic
_symmetry_space_group_name_H-M   'P -1'
_symmetry_Int_Tables_number      2
_space_group_name_Hall           '-P 1'
loop_
_symmetry_equiv_pos_site_id
_symmetry_equiv_pos_as_xyz
1 x,y,z
2 -x,-y,-z
_cell_length_a                   10.450(2)
_cell_length_b                   10.675(3)
_cell_length_c                   13.054(9)
_cell_angle_alpha                107.04(5)
_cell_angle_beta                 100.21(6)
_cell_angle_gamma                88.54(2)
_cell_volume                     1369.71
loop_
_atom_site_label
_atom_site_type_symbol
_atom_site_fract_x
_atom_site_fract_y
_atom_site_fract_z
Cu1 Cu 0.0048(6) 0.1180(6) 0.1243(5)
Cu2 Cu 0.0047(6) 0.3766(6) 0.3826(5)
O1 O 0.1449(3) 0.2487(3) 0.1575(3)
O2 O 0.3472(4) 0.2929(4) 0.2533(3)
O3 O 0.3316(3) 0.0746(4) 0.3204(3)
O4 O -0.1165(3) 0.2040(3) 0.0342(3)
O5 O -0.3453(3) -0.0501(4) -0.0035(3)
O6 O -0.3185(3) 0.1739(4) -0.0627(3)
O7 O 0.0929(3) 0.5082(3) 0.3396(3)
O8 O 0.2849(4) 0.6170(4) 0.3820(3)
O9 O 0.3590(3) 0.5006(4) 0.5483(3)
O10 O -0.1491(4) 0.3622(4) 0.2712(3)
O11 O -0.2827(4) 0.1319(4) 0.3707(3)
O12 O -0.3411(4) 0.2563(4) 0.2110(3)
N1 N 0.1216(4) 0.0408(4) 0.2185(4)
N2 N -0.1328(4) -0.0103(4) 0.0875(4)
N3 N 0.1589(4) 0.3913(4) 0.4895(4)
N4 N -0.0847(4) 0.2455(4) 0.4196(4)
C1 C 0.2456(5) 0.2258(5) 0.2215(4)
C2 C 0.2351(5) 0.1028(5) 0.2582(4)
C3 C 0.0952(5) -0.0778(5) 0.2457(5)
C4 C -0.0422(7) -0.1122(7) 0.2283(7)
C5 C -0.1315(6) -0.1256(6) 0.1270(5)
C6 C -0.2386(5) 0.0142(5) 0.0275(4)
C7 C -0.2262(5) 0.1405(5) -0.0037(4)
C8 C 0.2077(5) 0.5397(5) 0.3954(4)
C9 C 0.2485(5) 0.4742(5) 0.4877(4)
C10 C 0.1830(5) 0.3175(5) 0.5682(4)
C11 C 0.1139(5) 0.1836(5) 0.5240(5)
C12 C -0.0342(5) 0.1858(5) 0.5060(4)
C13 C -0.2019(5) 0.2103(5) 0.3618(4)
C14 C -0.2358(5) 0.2804(5) 0.2736(4)
K1 K 0.5071(1) 0.2809(1) 0.4498(1)
K2 K 0.5183(1) 0.0285(1) 0.1746(1)
K3 K 0.5097(1) 0.4716(1) 0.2323(1)
K4 K -0.0930(2) 0.4770(1) 0.1273(1)
O13 O 0.6131(6) 0.0942(8) 0.5584(8)
O14 O 0.6017(6) -0.1313(6) 0.3102(5)
O15 O 0.4507(4) 0.2985(4) 0.0168(3)
O16 O 0.3364(5) 0.6572(5) 0.1939(4)
O17 O -0.3216(4) 0.6224(4) 0.1625(4)
O18 O 0.1476(5) 0.4574(4) 0.0651(4)
K2_2 K -0.4817(1) 0.0285(1) 0.1746(1)
K2A K -0.5183(1) -0.0285(1) -0.1746(1)
K1A K 0.4929(1) 0.7191(1) 0.5502(1)
K3A K 0.4903(1) 0.5284(1) 0.7677(1)
O9A O 0.6410(3) 0.4994(4) 0.4517(3)
O5_2 O 0.6547(3) -0.0501(4) -0.0035(3)
O5A O 0.3453(3) 0.0501(4) 0.0035(3)
O6A O 0.3185(3) -0.1739(4) 0.0627(3)
O12_2 O 0.6589(4) 0.2563(4) 0.2110(3)
O17_2 O 0.6784(4) 0.6224(4) 0.1625(4)
O18A O -0.1476(5) 0.5426(4) -0.0651(4)
K4A K 0.0930(2) 0.5230(1) -0.1273(1)
K3_2 K -0.4903(1) 0.4716(1) 0.2323(1)
O11_2 O 0.7173(4) 0.1319(4) 0.3707(3)
K1_2 K -0.4929(1) 0.2809(1) 0.4498(1)
O8A O 0.7151(4) 0.3830(4) 0.6180(3)
loop_
_geom_bond_atom_site_label_1
_geom_bond_atom_site_label_2
_geom_bond_site_symmetry_1
_geom_bond_site_symmetry_2
Cu1 O1 1_555 1_555
Cu2 O7 1_555 1_555
O1 C1 1_555 1_555
O2 C1 1_555 1_555
O3 C2 1_555 1_555
O4 Cu1 1_555 1_555
O5 C6 1_555 1_555
O6 C7 1_555 1_555
O7 C8 1_555 1_555
O8 C8 1_555 1_555
O9 C9 1_555 1_555
O10 Cu2 1_555 1_555
O11 C13 1_555 1_555
O12 C14 1_555 1_555
N1 Cu1 1_555 1_555
N2 Cu1 1_555 1_555
N3 Cu2 1_555 1_555
N4 Cu2 1_555 1_555
C1 C2 1_555 1_555
C2 N1 1_555 1_555
C3 N1 1_555 1_555
C4 C3 1_555 1_555
C5 N2 1_555 1_555
C6 N2 1_555 1_555
C7 O4 1_555 1_555
C8 C9 1_555 1_555
C9 N3 1_555 1_555
C10 N3 1_555 1_555
C11 C10 1_555 1_555
C12 N4 1_555 1_555
C13 N4 1_555 1_555
C14 O10 1_555 1_555
K1 O2 1_555 1_555
K2 O3 1_555 1_555
K3 O2 1_555 1_555
K4 O4 1_555 1_555
O13 K1 1_555 1_555
O14 K2 1_555 1_555
O15 K3 1_555 1_555
O16 K3 1_555 1_555
O17 K4 1_555 1_555
O18 K4 1_555 1_555
K2_2 O5 1_555 1_555
K2A O5 1_555 1_555
K1A O8 1_555 1_555
K3A O9 1_555 1_555
O9A K1 1_555 1_555
O5_2 K2 1_555 1_555
O5A K2 1_555 1_555
O6A K2 1_555 1_555
O12_2 K2 1_555 1_555
O17_2 K3 1_555 1_555
O18A K4 1_555 1_555
K4A O18 1_555 1_555
K3_2 O12 1_555 1_555
O11_2 K1 1_555 1_555
K1_2 O11 1_555 1_555
O8A K1 1_555 1_555
O3 K1 1_555 1_555
O6 K2A 1_555 1_555
O7 K4 1_555 1_555
O9 K1A 1_555 1_555
O9 K1 1_555 1_555
O10 K4 1_555 1_555
O11 K2_2 1_555 1_555
O12 K2_2 1_555 1_555
C4 C5 1_555 1_555
C6 C7 1_555 1_555
C11 C12 1_555 1_555
C13 C14 1_555 1_555
K2 O11_2 1_555 1_555
K3 O9A 1_555 1_555
K3 O12_2 1_555 1_555
O17 K3_2 1_555 1_555
K1A O9A 1_555 1_555
O18A K4A 1_555 1_555

#END
