
#######################################################################
#
#                 Cambridge Crystallographic Data Centre
#                                CCDC 
#
#######################################################################
#
# If this CIF has been generated from an entry in the Cambridge 
# Structural Database, then it will include bibliographic, chemical, 
# crystal, experimental, refinement or atomic coordinate data resulting 
# from the CCDC's data processing and validation procedures.
#
#######################################################################

data_BIDQOU
_symmetry_cell_setting           trigonal
_symmetry_space_group_name_H-M   'P -3 c 1'
_symmetry_Int_Tables_number      165
_space_group_name_Hall           '-P 3 2"c'
loop_
_symmetry_equiv_pos_site_id
_symmetry_equiv_pos_as_xyz
1 x,y,z
2 -y,x-y,z
3 y,x,1/2-z
4 -x+y,-x,z
5 -x,-x+y,1/2-z
6 x-y,-y,1/2-z
7 -x,-y,-z
8 y,-x+y,-z
9 -y,-x,1/2+z
10 x-y,x,-z
11 x,x-y,1/2+z
12 -x+y,y,1/2+z
_cell_length_a                   15.818(2)
_cell_length_b                   15.818(2)
_cell_length_c                   16.978(3)
_cell_angle_alpha                90
_cell_angle_beta                 90
_cell_angle_gamma                120
_cell_volume                     3678.92
loop_
_atom_site_label
_atom_site_type_symbol
_atom_site_fract_x
_atom_site_fract_y
_atom_site_fract_z
Ho1 Ho 0.3333 0.6667 0.1713(1)
O1 O 0.2000(6) 0.6054(11) 0.0985(4)
C1 C 0.1455(10) 0.6341(8) 0.0659(7)
C2 C 0.1833(12) 0.7144(13) 0.0104(9)
C3 C 0.1235(16) 0.7440(16) -0.0222(9)
C4 C 0.0256(14) 0.6981(17) -0.0079(10)
C5 C -0.0166(13) 0.6178(13) 0.0415(10)
C6 C 0.0444(10) 0.5886(11) 0.0785(7)
C7 C -0.0049(8) 0.4958(18) 0.1269(6)
C8 C -0.0100(12) 0.3723(11) 0.2059(8)
N1 N 0.0387(9) 0.4619(10) 0.1637(6)
N2 N 0.2865(11) 0.4947(11) 0.2615(9)
O2 O 0.3598(11) 0.5765(10) 0.2760(7)
O3 O 0.2645(14) 0.4281(13) 0.3080(10)
O4 O 0.2306(7) 0.4897(7) 0.2055(6)
O1A O 0.3946(11) 0.5946(13) 0.0985(4)
O1C O 0.4054(13) 0.8000(6) 0.0985(4)
O2A O 0.4235(10) 0.7833(15) 0.2760(7)
O2C O 0.2167(15) 0.6402(11) 0.2760(7)
O4A O 0.5103(7) 0.7409(10) 0.2055(6)
O4C O 0.2591(10) 0.7694(7) 0.2055(6)
C8D C 0.0100(12) 0.3823(16) 0.2941(8)
C1A C 0.3659(8) 0.5114(13) 0.0659(7)
C1C C 0.4886(13) 0.8545(10) 0.0659(7)
N2A N 0.5053(11) 0.7918(16) 0.2615(9)
N2C N 0.2082(16) 0.7135(11) 0.2615(9)
N1D N -0.0387(9) 0.4232(13) 0.3363(6)
C2A C 0.2856(13) 0.4689(18) 0.0104(9)
C6A C 0.4114(11) 0.4558(15) 0.0785(7)
C2C C 0.5311(18) 0.8167(12) 0.0104(9)
C6C C 0.5442(15) 0.9556(10) 0.0785(7)
O3A O 0.5719(13) 0.8364(19) 0.3080(10)
O3C O 0.1636(19) 0.7355(14) 0.3080(10)
C7D C 0.0049(8) 0.5007(20) 0.3731(6)
C3A C 0.2560(16) 0.3795(23) -0.0222(9)
C5A C 0.3822(13) 0.3656(18) 0.0415(10)
C7A C 0.5042(18) 0.4993(20) 0.1269(6)
C3C C 0.6205(23) 0.8765(16) -0.0222(9)
C5C C 0.6344(18) 1.0166(13) 0.0415(10)
C7C C 0.5007(20) 1.0049(8) 0.1269(6)
C6D C -0.0444(10) 0.5442(15) 0.4215(7)
C4A C 0.3019(17) 0.3275(22) -0.0079(10)
N1A N 0.5381(10) 0.5768(13) 0.1637(6)
C4C C 0.6725(22) 0.9744(14) -0.0079(10)
N1C N 0.4232(13) 0.9613(9) 0.1637(6)
C1D C -0.1455(10) 0.4886(13) 0.4341(7)
C5D C 0.0166(13) 0.6344(18) 0.4585(10)
C8A C 0.6277(11) 0.6177(16) 0.2059(8)
C8C C 0.3823(16) 1.0100(12) 0.2059(8)
O1D O -0.2000(6) 0.4054(13) 0.4015(4)
C2D C -0.1833(12) 0.5311(18) 0.4896(9)
C4D C -0.0256(14) 0.6725(22) 0.5079(10)
C8E C 0.6177(16) 0.6277(11) 0.2941(8)
C8B C 0.3723(11) 0.9900(12) 0.2941(8)
Ho1B Ho -0.3333 0.3333 0.3287(1)
C3D C -0.1235(16) 0.6205(23) 0.5222(9)
N1E N 0.5768(13) 0.5381(10) 0.3363(6)
N1B N 0.4619(10) 1.0387(9) 0.3363(6)
O1B O -0.3946(11) 0.2000(6) 0.4015(4)
O1E O -0.4054(13) 0.3946(11) 0.4015(4)
O2B O -0.4235(10) 0.3598(11) 0.2240(7)
O2D O -0.3598(11) 0.2167(15) 0.2240(7)
O2E O -0.2167(15) 0.4235(10) 0.2240(7)
O4B O -0.5103(7) 0.2306(7) 0.2945(6)
O4D O -0.2306(7) 0.2591(10) 0.2945(6)
O4E O -0.2591(10) 0.5103(7) 0.2945(6)
C7E C 0.4993(20) 0.5042(18) 0.3731(6)
C7B C 0.4958(18) 0.9951(8) 0.3731(6)
N2B N -0.5053(11) 0.2865(11) 0.2385(9)
N2D N -0.2865(11) 0.2082(16) 0.2385(9)
N2E N -0.2082(16) 0.5053(11) 0.2385(9)
C6E C 0.4558(15) 0.4114(11) 0.4215(7)
C6B C 0.5886(11) 1.0444(10) 0.4215(7)
O3B O -0.5719(13) 0.2645(14) 0.1920(10)
O3D O -0.2645(14) 0.1636(19) 0.1920(10)
O3E O -0.1636(19) 0.5719(13) 0.1920(10)
C1E C 0.5114(13) 0.3659(8) 0.4341(7)
C5E C 0.3656(18) 0.3822(13) 0.4585(10)
C1B C 0.6341(8) 1.1455(10) 0.4341(7)
C5B C 0.6178(13) 0.9834(13) 0.4585(10)
O1E_2 O 0.5946(13) 0.3946(11) 0.4015(4)
C2E C 0.4689(18) 0.2856(13) 0.4896(9)
C4E C 0.3275(22) 0.3019(17) 0.5079(10)
O1B_2 O 0.6054(11) 1.2000(6) 0.4015(4)
C2B C 0.7144(13) 1.1833(12) 0.4896(9)
C4B C 0.6981(17) 1.0256(14) 0.5079(10)
Ho1B_2 Ho 0.6667 0.3333 0.3287(1)
C3E C 0.3795(23) 0.2560(16) 0.5222(9)
Ho1B_3 Ho 0.6667 1.3333 0.3287(1)
C3B C 0.7440(16) 1.1235(16) 0.5222(9)
loop_
_geom_bond_atom_site_label_1
_geom_bond_atom_site_label_2
_geom_bond_site_symmetry_1
_geom_bond_site_symmetry_2
Ho1 O1 1_555 1_555
O1 C1 1_555 1_555
C1 C2 1_555 1_555
C2 C3 1_555 1_555
C3 C4 1_555 1_555
C4 C5 1_555 1_555
C5 C6 1_555 1_555
C6 C1 1_555 1_555
C7 C6 1_555 1_555
C8 N1 1_555 1_555
N1 C7 1_555 1_555
N2 O2 1_555 1_555
O2 Ho1 1_555 1_555
O3 N2 1_555 1_555
O4 Ho1 1_555 1_555
O1A Ho1 1_555 1_555
O1C Ho1 1_555 1_555
O2A Ho1 1_555 1_555
O2C Ho1 1_555 1_555
O4A Ho1 1_555 1_555
O4C Ho1 1_555 1_555
C8D C8 1_555 1_555
C1A O1A 1_555 1_555
C1C O1C 1_555 1_555
N2A O2A 1_555 1_555
N2C O2C 1_555 1_555
N1D C8D 1_555 1_555
C2A C1A 1_555 1_555
C6A C1A 1_555 1_555
C2C C1C 1_555 1_555
C6C C1C 1_555 1_555
O3A N2A 1_555 1_555
O3C N2C 1_555 1_555
C7D N1D 1_555 1_555
C3A C2A 1_555 1_555
C5A C6A 1_555 1_555
C7A C6A 1_555 1_555
C3C C2C 1_555 1_555
C5C C6C 1_555 1_555
C7C C6C 1_555 1_555
C6D C7D 1_555 1_555
C4A C3A 1_555 1_555
N1A C7A 1_555 1_555
C4C C3C 1_555 1_555
N1C C7C 1_555 1_555
C1D C6D 1_555 1_555
C5D C6D 1_555 1_555
C8A N1A 1_555 1_555
C8C N1C 1_555 1_555
O1D C1D 1_555 1_555
C2D C1D 1_555 1_555
C4D C5D 1_555 1_555
C8E C8A 1_555 1_555
C8B C8C 1_555 1_555
Ho1B O1D 1_555 1_555
C3D C2D 1_555 1_555
N1E C8E 1_555 1_555
N1B C8B 1_555 1_555
O1B Ho1B 1_555 1_555
O1E Ho1B 1_555 1_555
O2B Ho1B 1_555 1_555
O2D Ho1B 1_555 1_555
O2E Ho1B 1_555 1_555
O4B Ho1B 1_555 1_555
O4D Ho1B 1_555 1_555
O4E Ho1B 1_555 1_555
C7E N1E 1_555 1_555
C7B N1B 1_555 1_555
N2B O2B 1_555 1_555
N2D O2D 1_555 1_555
N2E O2E 1_555 1_555
C6E C7E 1_555 1_555
C6B C7B 1_555 1_555
O3B N2B 1_555 1_555
O3D N2D 1_555 1_555
O3E N2E 1_555 1_555
C1E C6E 1_555 1_555
C5E C6E 1_555 1_555
C1B C6B 1_555 1_555
C5B C6B 1_555 1_555
O1E_2 C1E 1_555 1_555
C2E C1E 1_555 1_555
C4E C5E 1_555 1_555
O1B_2 C1B 1_555 1_555
C2B C1B 1_555 1_555
C4B C5B 1_555 1_555
Ho1B_2 O1E_2 1_555 1_555
C3E C2E 1_555 1_555
Ho1B_3 O1B_2 1_555 1_555
C3B C2B 1_555 1_555
N2 O4 1_555 1_555
O4A N2A 1_555 1_555
O4C N2C 1_555 1_555
C5A C4A 1_555 1_555
C5C C4C 1_555 1_555
C4D C3D 1_555 1_555
O4B N2B 1_555 1_555
O4D N2D 1_555 1_555
O4E N2E 1_555 1_555
C4E C3E 1_555 1_555
C4B C3B 1_555 1_555

#END
