
#######################################################################
#
#                 Cambridge Crystallographic Data Centre
#                                CCDC 
#
#######################################################################
#
# If this CIF has been generated from an entry in the Cambridge 
# Structural Database, then it will include bibliographic, chemical, 
# crystal, experimental, refinement or atomic coordinate data resulting 
# from the CCDC's data processing and validation procedures.
#
#######################################################################

data_BIDVEQ
_symmetry_cell_setting           monoclinic
_symmetry_space_group_name_H-M   'P 21/c'
_symmetry_Int_Tables_number      14
_space_group_name_Hall           '-P 2ybc'
loop_
_symmetry_equiv_pos_site_id
_symmetry_equiv_pos_as_xyz
1 x,y,z
2 -x,1/2+y,1/2-z
3 -x,-y,-z
4 x,1/2-y,1/2+z
_cell_length_a                   13.8648(7)
_cell_length_b                   17.1789(9)
_cell_length_c                   14.1938(7)
_cell_angle_alpha                90
_cell_angle_beta                 104.5250(10)
_cell_angle_gamma                90
_cell_volume                     3272.65
loop_
_atom_site_label
_atom_site_type_symbol
_atom_site_fract_x
_atom_site_fract_y
_atom_site_fract_z
Co1 Co 0.44936(5) 0.69298(3) 0.40794(4)
Co2 Co 1.08776(5) 0.80450(3) 0.11596(4)
O1 O 0.5157(3) 0.73256(19) 0.3086(2)
O2 O 0.6276(3) 0.6765(2) 0.4284(3)
O3 O 0.4758(3) 0.78830(19) 0.4821(3)
O4 O 0.3437(3) 0.8385(2) 0.3793(3)
O5 O 0.8949(3) 0.8258(2) 0.0808(3)
O6 O 1.0056(3) 0.7755(2) 0.2066(2)
O7 O 1.0636(3) 0.70483(19) 0.0492(3)
O8 O 1.1905(3) 0.6337(2) 0.1314(3)
O9 O 1.2389(4) 0.7710(2) 0.2065(4)
H1 H 1.230(5) 0.7240(13) 0.186(4)
H2 H 1.269(5) 0.770(3) 0.2674(14)
N1 N 0.4070(3) 0.6334(2) 0.5103(3)
N2 N 0.4050(3) 0.5956(2) 0.3330(3)
N3 N 1.1087(3) 0.9125(2) 0.1707(3)
N4 N 1.1151(3) 0.8609(2) 0.0010(3)
C1 C 0.4117(4) 0.6572(3) 0.6009(4)
H3 H 0.4253 0.7094 0.6161
C2 C 0.3976(4) 0.6083(4) 0.6728(4)
H4 H 0.4012 0.6269 0.7352
C3 C 0.3778(4) 0.5313(4) 0.6502(4)
H5 H 0.3692 0.4966 0.6977
C4 C 0.3709(4) 0.5057(3) 0.5570(4)
H6 H 0.3565 0.4538 0.5407
C5 C 0.3855(3) 0.5576(3) 0.4882(4)
C6 C 0.3813(3) 0.5370(3) 0.3865(4)
C7 C 0.3555(4) 0.4644(3) 0.3466(4)
H7 H 0.3396 0.4242 0.3841
C8 C 0.3538(4) 0.4524(3) 0.2500(4)
H8 H 0.3364 0.4039 0.2219
C9 C 0.3772(4) 0.5113(3) 0.1957(4)
H9 H 0.3761 0.5038 0.1305
C10 C 0.4028(4) 0.5825(3) 0.2400(4)
H10 H 0.4193 0.6230 0.2034
C11 C 0.4215(5) 0.8453(3) 0.4416(4)
C12 C 0.4619(4) 0.9256(3) 0.4734(3)
C13 C 0.5551(4) 0.9352(3) 0.5378(4)
H11 H 0.5927 0.8917 0.5633
C14 C 0.4078(4) 0.9910(3) 0.4359(4)
H12 H 0.3457 0.9854 0.3924
C15 C 0.6051(4) 0.7129(3) 0.3500(4)
C16 C 0.6851(4) 0.7350(2) 0.3011(3)
C17 C 0.7834(4) 0.7432(3) 0.3563(3)
H13 H 0.7987 0.7351 0.4232
C18 C 0.8579(4) 0.7632(3) 0.3118(4)
H14 H 0.9229 0.7689 0.3492
C19 C 0.8364(4) 0.7749(3) 0.2116(3)
C20 C 0.7383(4) 0.7666(3) 0.1565(3)
H15 H 0.7231 0.7745 0.0896
C21 C 0.6636(4) 0.7467(3) 0.2008(4)
H16 H 0.5985 0.7410 0.1634
C22 C 0.9164(4) 0.7939(3) 0.1619(4)
C23 C 1.1110(4) 0.9311(3) 0.2623(4)
H17 H 1.1013 0.8923 0.3048
C24 C 1.1276(5) 1.0069(3) 0.2958(4)
H18 H 1.1294 1.0191 0.3601
C25 C 1.1412(5) 1.0632(3) 0.2328(5)
H19 H 1.1522 1.1145 0.2538
C26 C 1.1386(4) 1.0441(3) 0.1379(4)
H20 H 1.1472 1.0822 0.0942
C27 C 1.1233(3) 0.9680(3) 0.1090(4)
C28 C 1.1212(3) 0.9392(3) 0.0106(4)
C29 C 1.1263(4) 0.9863(3) -0.0668(4)
H21 H 1.1308 1.0401 -0.0594
C30 C 1.1246(4) 0.9526(4) -0.1551(4)
H22 H 1.1275 0.9836 -0.2080
C31 C 1.1187(5) 0.8736(4) -0.1647(4)
H23 H 1.1177 0.8501 -0.2239
C32 C 1.1144(4) 0.8296(3) -0.0853(4)
H24 H 1.1108 0.7758 -0.0918
C33 C 1.1072(4) 0.6409(3) 0.0742(4)
C34 C 1.0515(4) 0.5680(3) 0.0343(3)
C35 C 0.9554(4) 0.5716(3) -0.0234(4)
H25 H 0.9249 0.6197 -0.0395
C36 C 1.0958(4) 0.4959(3) 0.0576(4)
H26 H 1.1606 0.4929 0.0964
C14B C 0.5922(4) 1.0090(3) 0.5641(4)
C12B C 0.5381(4) 1.0744(3) 0.5266(3)
C11B C 0.5785(5) 1.1547(3) 0.5584(4)
O3B O 0.5242(3) 1.21170(19) 0.5179(3)
O4B O 0.6563(3) 1.1615(2) 0.6207(3)
C13B C 0.4449(4) 1.0648(3) 0.4622(4)
H11B H 0.4073 1.1083 0.4367
H12B H 0.6543 1.0146 0.6076
C36B C 0.9042(4) 0.5041(3) -0.0576(4)
C34B C 0.9485(4) 0.4320(3) -0.0343(3)
C33B C 0.8928(4) 0.3591(3) -0.0742(4)
O7B O 0.9364(3) 0.29517(19) -0.0492(3)
O8B O 0.8095(3) 0.3663(2) -0.1314(3)
C35B C 1.0446(4) 0.4284(3) 0.0234(4)
H25B H 1.0751 0.3803 0.0395
H26B H 0.8394 0.5071 -0.0964
Co1B Co 0.55064(5) 1.30702(3) 0.59206(4)
O1B O 0.4843(3) 1.26744(19) 0.6914(2)
O2B O 0.3724(3) 1.3235(2) 0.5716(3)
O5B O 0.1051(3) 1.1742(2) 0.9192(3)
O6B O -0.0056(3) 1.2245(2) 0.7934(2)
C15B C 0.3949(4) 1.2871(3) 0.6500(4)
C16B C 0.3149(4) 1.2650(2) 0.6989(3)
C17B C 0.2166(4) 1.2568(3) 0.6437(3)
H13B H 0.2013 1.2649 0.5768
C18B C 0.1421(4) 1.2368(3) 0.6882(4)
H14B H 0.0771 1.2311 0.6508
C19B C 0.1636(4) 1.2251(3) 0.7884(3)
C20B C 0.2617(4) 1.2334(3) 0.8435(3)
H15B H 0.2769 1.2255 0.9104
C21B C 0.3364(4) 1.2533(3) 0.7992(4)
H16B H 0.4015 1.2590 0.8366
C22B C 0.0836(4) 1.2061(3) 0.8381(4)
N1B N 0.5930(3) 1.3666(2) 0.4897(3)
N2B N 0.5950(3) 1.4044(2) 0.6670(3)
C1B C 0.5883(4) 1.3428(3) 0.3991(4)
H3B H 0.5747 1.2906 0.3839
C2B C 0.6024(4) 1.3917(4) 0.3272(4)
H4B H 0.5988 1.3731 0.2648
C3B C 0.6222(4) 1.4687(4) 0.3498(4)
H5B H 0.6308 1.5034 0.3023
C4B C 0.6291(4) 1.4943(3) 0.4430(4)
H6B H 0.6435 1.5462 0.4593
C5B C 0.6145(3) 1.4424(3) 0.5118(4)
C6B C 0.6187(3) 1.4630(3) 0.6135(4)
C7B C 0.6445(4) 1.5356(3) 0.6534(4)
H7B H 0.6604 1.5758 0.6159
C8B C 0.6462(4) 1.5476(3) 0.7500(4)
H8B H 0.6636 1.5961 0.7781
C9B C 0.6228(4) 1.4887(3) 0.8043(4)
H9B H 0.6239 1.4962 0.8695
C10B C 0.5972(4) 1.4175(3) 0.7600(4)
H10B H 0.5807 1.3770 0.7966
Co2B Co -0.08776(5) 1.19550(3) 0.88404(4)
O9B O -0.2389(4) 1.2290(2) 0.7935(4)
H1B H -0.230(5) 1.2760(13) 0.814(4)
H2B H -0.269(5) 1.230(3) 0.7326(14)
N3B N -0.1087(3) 1.0875(2) 0.8293(3)
N4B N -0.1151(3) 1.1391(2) 0.9990(3)
C23B C -0.1110(4) 1.0689(3) 0.7377(4)
H17B H -0.1013 1.1077 0.6952
C24B C -0.1276(5) 0.9931(3) 0.7042(4)
H18B H -0.1294 0.9809 0.6399
C25B C -0.1412(5) 0.9368(3) 0.7672(5)
H19B H -0.1522 0.8855 0.7462
C26B C -0.1386(4) 0.9559(3) 0.8621(4)
H20B H -0.1472 0.9178 0.9058
C27B C -0.1233(3) 1.0320(3) 0.8910(4)
C28B C -0.1212(3) 1.0608(3) 0.9894(4)
C29B C -0.1263(4) 1.0137(3) 1.0668(4)
H21B H -0.1308 0.9599 1.0594
C30B C -0.1246(4) 1.0474(4) 1.1551(4)
H22B H -0.1275 1.0164 1.2080
C31B C -0.1187(5) 1.1264(4) 1.1647(4)
H23B H -0.1177 1.1499 1.2239
C32B C -0.1144(4) 1.1704(3) 1.0853(4)
H24B H -0.1108 1.2242 1.0918
Co2B_2 Co 0.91224(5) 0.19550(3) -0.11596(4)
O7B_2 O -0.0636(3) 1.29517(19) 0.9508(3)
loop_
_geom_bond_atom_site_label_1
_geom_bond_atom_site_label_2
_geom_bond_site_symmetry_1
_geom_bond_site_symmetry_2
Co1 O1 1_555 1_555
Co2 O6 1_555 1_555
O1 C15 1_555 1_555
O2 C15 1_555 1_555
O3 Co1 1_555 1_555
O4 C11 1_555 1_555
O5 C22 1_555 1_555
O6 C22 1_555 1_555
O7 Co2 1_555 1_555
O8 C33 1_555 1_555
O9 Co2 1_555 1_555
H1 O9 1_555 1_555
H2 O9 1_555 1_555
N1 Co1 1_555 1_555
N2 Co1 1_555 1_555
N3 Co2 1_555 1_555
N4 Co2 1_555 1_555
C1 N1 1_555 1_555
H3 C1 1_555 1_555
C2 C1 1_555 1_555
H4 C2 1_555 1_555
C3 C2 1_555 1_555
H5 C3 1_555 1_555
C4 C3 1_555 1_555
H6 C4 1_555 1_555
C5 N1 1_555 1_555
C6 N2 1_555 1_555
C7 C6 1_555 1_555
H7 C7 1_555 1_555
C8 C7 1_555 1_555
H8 C8 1_555 1_555
C9 C8 1_555 1_555
H9 C9 1_555 1_555
C10 N2 1_555 1_555
H10 C10 1_555 1_555
C11 O3 1_555 1_555
C12 C11 1_555 1_555
C13 C12 1_555 1_555
H11 C13 1_555 1_555
C14 C12 1_555 1_555
H12 C14 1_555 1_555
C15 C16 1_555 1_555
C16 C17 1_555 1_555
C17 H13 1_555 1_555
C18 C17 1_555 1_555
H14 C18 1_555 1_555
C19 C18 1_555 1_555
C20 C19 1_555 1_555
H15 C20 1_555 1_555
C21 C16 1_555 1_555
H16 C21 1_555 1_555
C22 C19 1_555 1_555
C23 N3 1_555 1_555
H17 C23 1_555 1_555
C24 C23 1_555 1_555
H18 C24 1_555 1_555
C25 C24 1_555 1_555
H19 C25 1_555 1_555
C26 C25 1_555 1_555
H20 C26 1_555 1_555
C27 N3 1_555 1_555
C28 N4 1_555 1_555
C29 C28 1_555 1_555
H21 C29 1_555 1_555
C30 C29 1_555 1_555
H22 C30 1_555 1_555
C31 C30 1_555 1_555
H23 C31 1_555 1_555
C32 N4 1_555 1_555
H24 C32 1_555 1_555
C33 O7 1_555 1_555
C34 C33 1_555 1_555
C35 C34 1_555 1_555
H25 C35 1_555 1_555
C36 C34 1_555 1_555
H26 C36 1_555 1_555
C14B C13 1_555 1_555
C12B C14B 1_555 1_555
C11B C12B 1_555 1_555
O3B C11B 1_555 1_555
O4B C11B 1_555 1_555
C13B C14 1_555 1_555
H11B C13B 1_555 1_555
H12B C14B 1_555 1_555
C36B C35 1_555 1_555
C34B C36B 1_555 1_555
C33B C34B 1_555 1_555
O7B C33B 1_555 1_555
O8B C33B 1_555 1_555
C35B C36 1_555 1_555
H25B C35B 1_555 1_555
H26B C36B 1_555 1_555
Co1B O3B 1_555 1_555
O1B Co1B 1_555 1_555
O2B C15B 1_555 1_555
O5B C22B 1_555 1_555
O6B C22B 1_555 1_555
C15B O1B 1_555 1_555
C16B C15B 1_555 1_555
C17B C16B 1_555 1_555
H13B C17B 1_555 1_555
C18B C17B 1_555 1_555
H14B C18B 1_555 1_555
C19B C18B 1_555 1_555
C20B C19B 1_555 1_555
H15B C20B 1_555 1_555
C21B C16B 1_555 1_555
H16B C21B 1_555 1_555
C22B C19B 1_555 1_555
N1B Co1B 1_555 1_555
N2B Co1B 1_555 1_555
C1B N1B 1_555 1_555
H3B C1B 1_555 1_555
C2B C1B 1_555 1_555
H4B C2B 1_555 1_555
C3B C2B 1_555 1_555
H5B C3B 1_555 1_555
C4B C3B 1_555 1_555
H6B C4B 1_555 1_555
C5B N1B 1_555 1_555
C6B N2B 1_555 1_555
C7B C6B 1_555 1_555
H7B C7B 1_555 1_555
C8B C7B 1_555 1_555
H8B C8B 1_555 1_555
C9B C8B 1_555 1_555
H9B C9B 1_555 1_555
C10B N2B 1_555 1_555
H10B C10B 1_555 1_555
Co2B O6B 1_555 1_555
O9B Co2B 1_555 1_555
H1B O9B 1_555 1_555
H2B O9B 1_555 1_555
N3B Co2B 1_555 1_555
N4B Co2B 1_555 1_555
C23B N3B 1_555 1_555
H17B C23B 1_555 1_555
C24B C23B 1_555 1_555
H18B C24B 1_555 1_555
C25B C24B 1_555 1_555
H19B C25B 1_555 1_555
C26B C25B 1_555 1_555
H20B C26B 1_555 1_555
C27B N3B 1_555 1_555
C28B N4B 1_555 1_555
C29B C28B 1_555 1_555
H21B C29B 1_555 1_555
C30B C29B 1_555 1_555
H22B C30B 1_555 1_555
C31B C30B 1_555 1_555
H23B C31B 1_555 1_555
C32B N4B 1_555 1_555
H24B C32B 1_555 1_555
Co2B_2 O7B 1_555 1_555
O7B_2 Co2B 1_555 1_555
C4 C5 1_555 1_555
C5 C6 1_555 1_555
C9 C10 1_555 1_555
C20 C21 1_555 1_555
C26 C27 1_555 1_555
C27 C28 1_555 1_555
C31 C32 1_555 1_555
C12B C13B 1_555 1_555
C34B C35B 1_555 1_555
C20B C21B 1_555 1_555
C4B C5B 1_555 1_555
C5B C6B 1_555 1_555
C9B C10B 1_555 1_555
C26B C27B 1_555 1_555
C27B C28B 1_555 1_555
C31B C32B 1_555 1_555

#END
