
#######################################################################
#
#                 Cambridge Crystallographic Data Centre
#                                CCDC 
#
#######################################################################
#
# If this CIF has been generated from an entry in the Cambridge 
# Structural Database, then it will include bibliographic, chemical, 
# crystal, experimental, refinement or atomic coordinate data resulting 
# from the CCDC's data processing and validation procedures.
#
#######################################################################

data_BIDZAQ
_symmetry_cell_setting           monoclinic
_symmetry_space_group_name_H-M   'P 21/n'
_symmetry_Int_Tables_number      14
_space_group_name_Hall           '-P 2yn'
loop_
_symmetry_equiv_pos_site_id
_symmetry_equiv_pos_as_xyz
1 x,y,z
2 1/2+x,1/2-y,1/2+z
3 -x,-y,-z
4 1/2-x,1/2+y,1/2-z
_cell_length_a                   10.388(2)
_cell_length_b                   9.5051(19)
_cell_length_c                   11.283(2)
_cell_angle_alpha                90
_cell_angle_beta                 100.50(3)
_cell_angle_gamma                90
_cell_volume                     1095.42
loop_
_atom_site_label
_atom_site_type_symbol
_atom_site_fract_x
_atom_site_fract_y
_atom_site_fract_z
Mn1 Mn -0.83430(2) -0.38158(3) 0.41398(2)
C1 C -0.85760(17) -0.60743(19) 0.63398(15)
C2 C -1.04398(18) -0.5760(2) 0.12032(17)
H1 H -1.0330 -0.5001 0.1733
O1 O -0.84147(13) -0.55033(15) 0.53844(11)
O2 O -0.96377(12) -0.65305(14) 0.65710(11)
O3 O -0.81044(13) -0.54046(15) 0.27878(12)
C3 C -0.73876(16) -0.62740(19) 0.73209(15)
C4 C -0.81129(17) -0.63487(19) 0.20205(15)
C5 C -0.51906(18) -0.5754(2) 0.82492(18)
H2 H -0.4400 -0.5291 0.8259
C6 C -1.16520(18) -0.5940(2) 0.04425(17)
H3 H -1.2339 -0.5319 0.0465
C7 C -0.94090(17) -0.66577(19) 0.11978(16)
C8 C -0.62172(17) -0.5592(2) 0.72892(16)
H4 H -0.6123 -0.5034 0.6633
C9 C -1.17959(18) -0.7042(2) -0.03250(17)
H5 H -1.2585 -0.7181 -0.0851
C10 C -0.74690(17) -0.71240(19) 0.83054(15)
H6 H -0.8255 -0.7586 0.8321
N1 N -1.07950(14) -0.79382(17) -0.03268(14)
H7 H -1.0926 -0.8633 -0.0822
C11 C -0.95769(17) -0.78392(19) 0.03964(16)
N2 N -0.64780(14) -0.73164(16) 0.92360(13)
C12 C -0.53627(18) -0.6615(2) 0.91914(17)
H8 H -0.4667 -0.6717 0.9833
O4 O -0.87726(11) -0.87983(14) 0.02912(12)
O5 O -0.71164(12) -0.70363(14) 0.19020(11)
O2B O -1.03623(12) -0.34695(14) 0.34290(11)
N2C N -0.85220(14) -0.23164(16) 0.57640(13)
O4C O -0.62274(11) -0.37983(14) 0.47088(12)
O5C O -0.78836(12) -0.20363(14) 0.30980(11)
Mn1B Mn -1.16570(2) -0.61842(3) 0.58602(2)
Mn1C Mn -0.66570(2) -0.88158(3) 1.08602(2)
Mn1C_2 Mn -0.66570(2) -0.88158(3) 0.08602(2)
loop_
_geom_bond_atom_site_label_1
_geom_bond_atom_site_label_2
_geom_bond_site_symmetry_1
_geom_bond_site_symmetry_2
Mn1 O1 1_555 1_555
C1 O1 1_555 1_555
C2 H1 1_555 1_555
O2 C1 1_555 1_555
O3 Mn1 1_555 1_555
C3 C1 1_555 1_555
C4 O3 1_555 1_555
C5 H2 1_555 1_555
C6 C2 1_555 1_555
H3 C6 1_555 1_555
C7 C2 1_555 1_555
C8 C3 1_555 1_555
H4 C8 1_555 1_555
C9 C6 1_555 1_555
H5 C9 1_555 1_555
C10 C3 1_555 1_555
H6 C10 1_555 1_555
N1 C9 1_555 1_555
H7 N1 1_555 1_555
C11 C7 1_555 1_555
N2 C10 1_555 1_555
C12 C5 1_555 1_555
H8 C12 1_555 1_555
O4 C11 1_555 1_555
O5 C4 1_555 1_555
O2B Mn1 1_555 1_555
N2C Mn1 1_555 1_555
O4C Mn1 1_555 1_555
O5C Mn1 1_555 1_555
Mn1B O2 1_555 1_555
Mn1C N2 1_555 1_555
Mn1C_2 O4 1_555 1_555
C4 C7 1_555 1_555
C5 C8 1_555 1_555
N1 C11 1_555 1_555
N2 C12 1_555 1_555
O5 Mn1C_2 1_555 1_555

#END
