
#######################################################################
#
#                 Cambridge Crystallographic Data Centre
#                                CCDC 
#
#######################################################################
#
# If this CIF has been generated from an entry in the Cambridge 
# Structural Database, then it will include bibliographic, chemical, 
# crystal, experimental, refinement or atomic coordinate data resulting 
# from the CCDC's data processing and validation procedures.
#
#######################################################################

data_BIFBIB
_symmetry_cell_setting           monoclinic
_symmetry_space_group_name_H-M   'P 21/n'
_symmetry_Int_Tables_number      14
_space_group_name_Hall           '-P 2yn'
loop_
_symmetry_equiv_pos_site_id
_symmetry_equiv_pos_as_xyz
1 x,y,z
2 1/2-x,1/2+y,1/2-z
3 -x,-y,-z
4 1/2+x,1/2-y,1/2+z
_cell_length_a                   14.762(8)
_cell_length_b                   17.901(5)
_cell_length_c                   15.750(5)
_cell_angle_alpha                90
_cell_angle_beta                 106.50(3)
_cell_angle_gamma                90
_cell_volume                     3990.62
loop_
_atom_site_label
_atom_site_type_symbol
_atom_site_fract_x
_atom_site_fract_y
_atom_site_fract_z
Cu1 Cu 0.16695(7) 0.01871(5) 0.09544(6)
Cu2 Cu 0.05438(7) 0.38293(5) 0.05711(6)
O1 O 0.2137(4) 0.0356(3) -0.0057(3)
O2 O -0.0390(4) 0.3849(3) 0.1191(3)
N1 N 0.1045(4) 0.2529(3) 0.0935(4)
N2 N 0.1436(4) 0.1307(3) 0.1074(4)
N3 N 0.0476(4) 0.0120(3) 0.1381(4)
N4 N 0.1648(4) -0.0907(3) 0.0781(4)
N5 N 0.2243(4) 0.5054(3) 0.2744(4)
N6 N 0.1442(4) 0.4345(3) 0.1591(4)
N7 N 0.1428(4) 0.4290(3) -0.0071(4)
N8 N -0.0388(5) 0.352(3) -0.0530(4)
C1 C 0.2696(5) 0.2194(4) 0.1002(5)
C2 C 0.3366(6) 0.1663(4) 0.1020(6)
C3 C 0.4302(6) 0.1852(5) 0.1100(6)
C4 C 0.4569(6) 0.2591(6) 0.1173(6)
C5 C 0.3916(7) 0.3128(5) 0.1158(7)
C6 C 0.2989(6) 0.2924(5) 0.1089(7)
C7 C 0.1717(5) 0.2005(4) 0.0967(5)
C8 C 0.0288(5) 0.2151(4) 0.1055(5)
C9 C 0.0532(5) 0.1402(4) 0.1144(5)
C10 C 0.0071(5) 0.0760(5) 0.1352(5)
C11 C 0.0078(6) -0.0517(4) 0.1718(6)
C12 C 0.0280(7) -0.1236(5) 0.1314(6)
C13 C 0.1317(7) -0.1372(4) 0.1393(6)
C14 C 0.1957(6) -0.1244(4) 0.0208(5)
C15 C 0.2339(5) -0.0916(4) -0.0449(5)
C16 C 0.2654(6) -0.1398(5) -0.1004(6)
C17 C 0.3057(7) -0.1145(6) -0.1632(6)
C18 C 0.3147(7) -0.0373(6) -0.1708(6)
C19 C 0.2848(6) 0.0109(5) -0.1176(6)
C20 C 0.2415(5) -0.0127(5) -0.0537(5)
C21 C 0.1099(5) 0.4127(4) 0.3009(5)
C22 C 0.0939(6) 0.3364(5) 0.2918(5)
C23 C 0.0475(7) 0.2982(5) 0.3437(6)
C24 C 0.0150(7) 0.3364(6) 0.4048(7)
C25 C 0.0308(6) 0.4125(6) 0.4155(6)
C26 C 0.0777(6) 0.4506(4) 0.3635(6)
C27 C 0.1589(5) 0.4516(4) 0.2444(5)
C28 C 0.2537(5) 0.5228(4) 0.2030(5)
C29 C 0.2049(5) 0.4808(4) 0.1317(5)
C30 C 0.2029(5) 0.4741(4) 0.0413(5)
C31 C 0.1414(6) 0.4201(5) -0.0988(6)
C32 C 0.0420(7) 0.4089(5) -0.1572(5)
C33 C -0.0055(6) 0.3407(5) -0.1307(6)
C34 C -0.1278(6) 0.3421(4) -0.0623(5)
C35 C -0.1757(6) 0.3489(4) 0.0033(6)
C36 C -0.2726(7) 0.3367(5) -0.0214(6)
C37 C -0.3249(7) 0.3437(6) 0.0377(8)
C38 C -0.2800(7) 0.3630(5) 0.1245(8)
C39 C -0.1842(6) 0.3753(5) 0.1506(6)
C40 C -0.1288(6) 0.3699(4) 0.0915(6)
N5A N 0.2757(4) 0.0054(3) 0.2256(4)
Cu1A Cu 0.33305(7) 0.51871(5) 0.40456(6)
O3 O 0.2206(9) 0.2072(6) 0.8704(6)
O4 O 1.001(1) 0.0356(8) 0.3856(8)
C41 C 0.900(1) 0.080(1) 0.382(1)
loop_
_geom_bond_atom_site_label_1
_geom_bond_atom_site_label_2
_geom_bond_site_symmetry_1
_geom_bond_site_symmetry_2
Cu1 O1 1_555 1_555
Cu2 O2 1_555 1_555
O1 C20 1_555 1_555
O2 C40 1_555 1_555
N1 Cu2 1_555 1_555
N2 Cu1 1_555 1_555
N3 Cu1 1_555 1_555
N4 Cu1 1_555 1_555
N5 C27 1_555 1_555
N6 Cu2 1_555 1_555
N7 Cu2 1_555 1_555
N8 Cu2 1_555 1_555
C1 C2 1_555 1_555
C2 C3 1_555 1_555
C3 C4 1_555 1_555
C4 C5 1_555 1_555
C5 C6 1_555 1_555
C6 C1 1_555 1_555
C7 N1 1_555 1_555
C8 N1 1_555 1_555
C9 N2 1_555 1_555
C10 N3 1_555 1_555
C11 N3 1_555 1_555
C12 C11 1_555 1_555
C13 N4 1_555 1_555
C14 N4 1_555 1_555
C15 C14 1_555 1_555
C16 C15 1_555 1_555
C17 C16 1_555 1_555
C18 C17 1_555 1_555
C19 C18 1_555 1_555
C20 C15 1_555 1_555
C21 C22 1_555 1_555
C22 C23 1_555 1_555
C23 C24 1_555 1_555
C24 C25 1_555 1_555
C25 C26 1_555 1_555
C26 C21 1_555 1_555
C27 N6 1_555 1_555
C28 N5 1_555 1_555
C29 N6 1_555 1_555
C30 N7 1_555 1_555
C31 N7 1_555 1_555
C32 C31 1_555 1_555
C33 N8 1_555 1_555
C34 N8 1_555 1_555
C35 C34 1_555 1_555
C36 C35 1_555 1_555
C37 C36 1_555 1_555
C38 C37 1_555 1_555
C39 C38 1_555 1_555
C40 C35 1_555 1_555
O4 C41 1_555 1_555
N5A Cu1 1_555 1_555
Cu1A N5 1_555 1_555
N2 C7 1_555 1_555
C1 C7 1_555 1_555
C8 C9 1_555 1_555
C9 C10 1_555 1_555
C12 C13 1_555 1_555
C19 C20 1_555 1_555
C21 C27 1_555 1_555
C28 C29 1_555 1_555
C29 C30 1_555 1_555
C32 C33 1_555 1_555
C39 C40 1_555 1_555

#END
