
#######################################################################
#
#                 Cambridge Crystallographic Data Centre
#                                CCDC 
#
#######################################################################
#
# If this CIF has been generated from an entry in the Cambridge 
# Structural Database, then it will include bibliographic, chemical, 
# crystal, experimental, refinement or atomic coordinate data resulting 
# from the CCDC's data processing and validation procedures.
#
#######################################################################

data_BIFCUP
_symmetry_cell_setting           monoclinic
_symmetry_space_group_name_H-M   'P 21/c'
_symmetry_Int_Tables_number      14
_space_group_name_Hall           '-P 2ybc'
loop_
_symmetry_equiv_pos_site_id
_symmetry_equiv_pos_as_xyz
1 x,y,z
2 x,1/2-y,1/2+z
3 -x,-y,-z
4 -x,1/2+y,1/2-z
_cell_length_a                   13.8168(14)
_cell_length_b                   7.0351(7)
_cell_length_c                   8.2054(8)
_cell_angle_alpha                90
_cell_angle_beta                 105.540(2)
_cell_angle_gamma                90
_cell_volume                     768.429
loop_
_atom_site_label
_atom_site_type_symbol
_atom_site_fract_x
_atom_site_fract_y
_atom_site_fract_z
Cd1 Cd 0.073779(16) 0.39017(3) 0.20767(3)
O1 O 0.2139(2) 0.2194(4) 0.2310(3)
C1 C 0.1856(3) 0.1210(4) 0.0988(4)
C2 C 0.2576(2) -0.0278(5) 0.0701(4)
C3 C 0.2286(2) -0.2083(5) 0.0027(4)
C4 C 0.3596(3) 0.0123(6) 0.1289(5)
H1 H 0.3796 0.1307 0.1765
C5 C 0.3026(3) -0.3441(6) 0.0016(5)
H2 H 0.2838 -0.4664 -0.0372
C6 C 0.4316(3) -0.1187(6) 0.1184(6)
H3 H 0.4993 -0.0862 0.1523
C7 C 0.4029(3) -0.2981(7) 0.0576(6)
H4 H 0.4514 -0.3886 0.0544
O2 O 0.1009(2) 0.1453(4) -0.0042(3)
C8 C 0.1225(2) -0.2739(4) -0.0741(4)
O3 O 0.06544(19) -0.1872(4) -0.1990(3)
O4 O 0.0923(2) -0.4266(4) -0.0252(4)
O2A O 0.1009(2) 0.3547(4) 0.4958(3)
O3A O 0.06544(19) 0.6872(4) 0.3010(3)
O3B O -0.06544(19) 0.1872(4) 0.1990(3)
O4_2 O 0.0923(2) 0.5734(4) -0.0252(4)
O4B O -0.0923(2) 0.4266(4) 0.0252(4)
Cd1A Cd 0.073779(16) 0.10983(3) -0.29233(3)
Cd1B Cd -0.073779(16) -0.39017(3) -0.20767(3)
Cd1_2 Cd 0.073779(16) -0.60983(3) 0.20767(3)
loop_
_geom_bond_atom_site_label_1
_geom_bond_atom_site_label_2
_geom_bond_site_symmetry_1
_geom_bond_site_symmetry_2
Cd1 O1 1_555 1_555
O1 C1 1_555 1_555
C1 C2 1_555 1_555
C2 C3 1_555 1_555
C3 C5 1_555 1_555
C4 C2 1_555 1_555
H1 C4 1_555 1_555
C5 H2 1_555 1_555
C6 C4 1_555 1_555
H3 C6 1_555 1_555
C7 C5 1_555 1_555
H4 C7 1_555 1_555
O2 Cd1 1_555 1_555
C8 C3 1_555 1_555
O3 C8 1_555 1_555
O4 C8 1_555 1_555
O2A Cd1 1_555 1_555
O3A Cd1 1_555 1_555
O3B Cd1 1_555 1_555
O4_2 Cd1 1_555 1_555
O4B Cd1 1_555 1_555
Cd1A O2 1_555 1_555
Cd1B O3 1_555 1_555
Cd1_2 O4 1_555 1_555
C1 O2 1_555 1_555
C6 C7 1_555 1_555
O3 Cd1A 1_555 1_555
O4 Cd1B 1_555 1_555

#END
