
#######################################################################
#
#                 Cambridge Crystallographic Data Centre
#                                CCDC 
#
#######################################################################
#
# If this CIF has been generated from an entry in the Cambridge 
# Structural Database, then it will include bibliographic, chemical, 
# crystal, experimental, refinement or atomic coordinate data resulting 
# from the CCDC's data processing and validation procedures.
#
#######################################################################

data_BIFDEA
_symmetry_cell_setting           triclinic
_symmetry_space_group_name_H-M   'P -1'
_symmetry_Int_Tables_number      2
_space_group_name_Hall           '-P 1'
loop_
_symmetry_equiv_pos_site_id
_symmetry_equiv_pos_as_xyz
1 x,y,z
2 -x,-y,-z
_cell_length_a                   6.491(1)
_cell_length_b                   7.081(1)
_cell_length_c                   10.961(1)
_cell_angle_alpha                99.786(1)
_cell_angle_beta                 102.391(1)
_cell_angle_gamma                112.590(1)
_cell_volume                     436.152
loop_
_atom_site_label
_atom_site_type_symbol
_atom_site_fract_x
_atom_site_fract_y
_atom_site_fract_z
K1 K 0.77873(6) 0.93656(5) 1.10103(4)
S1 S 0.65844(7) 1.00680(6) 0.80873(4)
N1 N 0.8755(2) 1.41048(19) 0.78883(12)
N2 N 0.9047(2) 1.6106(2) 0.84114(14)
N3 N 0.7856(2) 1.5929(2) 0.92233(14)
N4 N 0.6807(2) 1.3895(2) 0.92670(13)
C1 C 0.7382(3) 1.2742(2) 0.84224(14)
C2 C 0.9792(3) 1.3682(2) 0.69077(15)
C3 C 0.8366(3) 1.2522(3) 0.56625(16)
H1 H 0.671(4) 1.192(3) 0.5486(18)
C4 C 0.9376(4) 1.2141(3) 0.47225(19)
H2 H 0.844(4) 1.137(3) 0.393(2)
C5 C 1.1776(4) 1.2903(3) 0.50308(19)
H3 H 1.241(4) 1.264(3) 0.439(2)
C6 C 1.3180(3) 1.4072(3) 0.6277(2)
H4 H 1.486(4) 1.471(3) 0.6509(19)
C7 C 1.2197(3) 1.4475(3) 0.72348(18)
H5 H 1.303(3) 1.524(3) 0.8075(18)
S1A S 0.34156(7) 0.99320(6) 1.19127(4)
S1A_2 S 1.34156(7) 0.99320(6) 1.19127(4)
N2A N 1.0953(2) 1.3894(2) 1.15886(14)
N3_2 N 0.7856(2) 0.5929(2) 0.92233(14)
N4A N 0.3193(2) 0.6105(2) 1.07330(13)
K1A K 0.22127(6) 1.06344(5) 0.89897(4)
K1A_2 K 1.22127(6) 1.06344(5) 0.89897(4)
K1A_3 K 1.22127(6) 2.06344(5) 0.89897(4)
K1_2 K 0.77873(6) 1.93656(5) 1.10103(4)
loop_
_geom_bond_atom_site_label_1
_geom_bond_atom_site_label_2
_geom_bond_site_symmetry_1
_geom_bond_site_symmetry_2
K1 S1 1_555 1_555
S1 C1 1_555 1_555
N1 N2 1_555 1_555
N2 N3 1_555 1_555
N3 N4 1_555 1_555
N4 C1 1_555 1_555
C1 N1 1_555 1_555
C2 N1 1_555 1_555
C3 C2 1_555 1_555
H1 C3 1_555 1_555
C4 C3 1_555 1_555
H2 C4 1_555 1_555
C5 C4 1_555 1_555
H3 C5 1_555 1_555
C6 C5 1_555 1_555
H4 C6 1_555 1_555
C7 C2 1_555 1_555
H5 C7 1_555 1_555
S1A K1 1_555 1_555
S1A_2 K1 1_555 1_555
N2A K1 1_555 1_555
N3_2 K1 1_555 1_555
N4A K1 1_555 1_555
K1A S1 1_555 1_555
K1A_2 S1 1_555 1_555
K1A_3 N2 1_555 1_555
K1_2 N3 1_555 1_555
N4 K1A 1_555 1_555
C6 C7 1_555 1_555
S1A K1A 1_555 1_555
S1A_2 K1A_2 1_555 1_555

#END
