
#######################################################################
#
#                 Cambridge Crystallographic Data Centre
#                                CCDC 
#
#######################################################################
#
# If this CIF has been generated from an entry in the Cambridge 
# Structural Database, then it will include bibliographic, chemical, 
# crystal, experimental, refinement or atomic coordinate data resulting 
# from the CCDC's data processing and validation procedures.
#
#######################################################################

data_BIFDAW
_symmetry_cell_setting           monoclinic
_symmetry_space_group_name_H-M   'C 2/c'
_symmetry_Int_Tables_number      15
_space_group_name_Hall           '-C 2yn'
loop_
_symmetry_equiv_pos_site_id
_symmetry_equiv_pos_as_xyz
1 x,y,z
2 1/2+x,1/2+y,z
3 x,-y,1/2+z
4 1/2+x,1/2-y,1/2+z
5 -x,-y,-z
6 1/2-x,1/2-y,-z
7 -x,y,1/2-z
8 1/2-x,1/2+y,1/2-z
_cell_length_a                   36.025(3)
_cell_length_b                   7.099(1)
_cell_length_c                   18.717(1)
_cell_angle_alpha                90
_cell_angle_beta                 115.153(1)
_cell_angle_gamma                90
_cell_volume                     4332.82
loop_
_atom_site_label
_atom_site_type_symbol
_atom_site_fract_x
_atom_site_fract_y
_atom_site_fract_z
Na1 Na 0.24522(3) 0.36918(13) 0.75649(5)
Na2 Na 0.21236(3) 0.64317(14) 0.41168(6)
S1 S 0.345053(19) 0.39784(11) 0.71744(4)
S2 S 0.204880(18) 0.35478(9) 0.51612(4)
O1 O 0.26598(5) 0.1177(2) 0.67108(9)
H1 H 0.2430 0.1382 0.6268
H2 H 0.2909 0.1687 0.6837
O2 O 0.23627(5) 0.1319(2) 0.83583(9)
H3 H 0.2514 0.0671 0.8800
H4 H 0.2094 0.1034 0.8110
O3 O 0.21214(5) 0.8857(2) 0.49805(9)
H5 H 0.1946 0.8741 0.5206
H6 H 0.2097 1.0092 0.4861
O4 O 0.15139(6) 0.5943(3) 0.30660(12)
H7 H 0.1548 0.6031 0.2618
H8 H 0.1523 0.4687 0.3008
N1 N 0.38507(6) 0.4091(3) 0.87775(11)
N2 N 0.37711(7) 0.4009(3) 0.94228(12)
N3 N 0.33788(6) 0.3844(3) 0.91560(12)
N4 N 0.31954(6) 0.3815(3) 0.83544(12)
N5 N 0.13005(6) 0.4014(3) 0.51941(11)
N6 N 0.11388(7) 0.4159(3) 0.57300(13)
N7 N 0.14425(7) 0.4000(3) 0.64104(12)
N8 N 0.18020(6) 0.3758(3) 0.63497(11)
C1 C 0.34947(7) 0.3978(3) 0.81186(13)
C2 C 0.42644(7) 0.4237(4) 0.88564(14)
C3 C 0.43887(8) 0.5846(5) 0.86282(17)
H9 H 0.4207 0.6842 0.8414
C4 C 0.47891(9) 0.5976(5) 0.87198(19)
H10 H 0.4878 0.7067 0.8564
C5 C 0.50546(9) 0.4523(6) 0.90357(19)
H11 H 0.5325 0.4632 0.9104
C6 C 0.49256(9) 0.2903(6) 0.92526(19)
H12 H 0.5107 0.1904 0.9460
C7 C 0.45242(8) 0.2744(5) 0.91651(16)
H13 H 0.4434 0.1647 0.9313
C8 C 0.17085(7) 0.3778(3) 0.55795(13)
C9 C 0.10384(7) 0.4151(4) 0.43654(14)
C10 C 0.08499(9) 0.5822(5) 0.40647(16)
H14 H 0.0896 0.6864 0.4393
C11 C 0.05911(10) 0.5961(6) 0.32727(18)
H15 H 0.0463 0.7097 0.3062
C12 C 0.05250(9) 0.4411(6) 0.27998(18)
H16 H 0.0350 0.4499 0.2266
C13 C 0.07117(9) 0.2745(6) 0.30993(18)
H17 H 0.0665 0.1703 0.2771
C14 C 0.09733(8) 0.2601(5) 0.38982(16)
H18 H 0.1102 0.1465 0.4110
O1G O 0.23402(5) 0.6177(2) 0.82892(9)
O2B O 0.23627(5) 0.8681(2) 0.33583(9)
O3E O 0.28786(5) 0.6143(2) 0.50195(9)
Na1G Na 0.25478(3) -0.13082(13) 0.74351(5)
Na2B Na 0.21236(3) 0.35683(14) 0.91168(6)
Na2E Na 0.28764(3) 0.85683(14) 0.58832(6)
H1G H 0.2570 0.6382 0.8732
H2G H 0.2091 0.6687 0.8163
H3B H 0.2514 0.9329 0.3800
H4B H 0.2094 0.8966 0.3110
H5E H 0.3054 0.6259 0.4794
H6E H 0.2903 0.4908 0.5139
loop_
_geom_bond_atom_site_label_1
_geom_bond_atom_site_label_2
_geom_bond_site_symmetry_1
_geom_bond_site_symmetry_2
Na1 O1 1_555 1_555
Na2 S2 1_555 1_555
S1 C1 1_555 1_555
S2 C8 1_555 1_555
O1 H1 1_555 1_555
H2 O1 1_555 1_555
O2 Na1 1_555 1_555
H3 O2 1_555 1_555
H4 O2 1_555 1_555
O3 Na2 1_555 1_555
H5 O3 1_555 1_555
H6 O3 1_555 1_555
O4 Na2 1_555 1_555
H7 O4 1_555 1_555
H8 O4 1_555 1_555
N1 N2 1_555 1_555
N2 N3 1_555 1_555
N3 N4 1_555 1_555
N4 Na1 1_555 1_555
N5 N6 1_555 1_555
N6 N7 1_555 1_555
N7 N8 1_555 1_555
N8 Na1 1_555 1_555
C1 N1 1_555 1_555
C2 N1 1_555 1_555
C3 C2 1_555 1_555
H9 C3 1_555 1_555
C4 C3 1_555 1_555
H10 C4 1_555 1_555
C5 C4 1_555 1_555
H11 C5 1_555 1_555
C6 C5 1_555 1_555
H12 C6 1_555 1_555
C7 C2 1_555 1_555
H13 C7 1_555 1_555
C8 N5 1_555 1_555
C9 N5 1_555 1_555
C10 C9 1_555 1_555
H14 C10 1_555 1_555
C11 C10 1_555 1_555
H15 C11 1_555 1_555
C12 C11 1_555 1_555
H16 C12 1_555 1_555
C13 C12 1_555 1_555
H17 C13 1_555 1_555
C14 C9 1_555 1_555
H18 C14 1_555 1_555
O1G Na1 1_555 1_555
O2B Na2 1_555 1_555
O3E Na2 1_555 1_555
Na1G O1 1_555 1_555
Na2B O2 1_555 1_555
Na2E O3 1_555 1_555
H1G O1G 1_555 1_555
H2G O1G 1_555 1_555
H3B O2B 1_555 1_555
H4B O2B 1_555 1_555
H5E O3E 1_555 1_555
H6E O3E 1_555 1_555
N4 C1 1_555 1_555
N8 C8 1_555 1_555
C6 C7 1_555 1_555
C13 C14 1_555 1_555
O3E Na2E 1_555 1_555

#END
