
#######################################################################
#
#                 Cambridge Crystallographic Data Centre
#                                CCDC 
#
#######################################################################
#
# If this CIF has been generated from an entry in the Cambridge 
# Structural Database, then it will include bibliographic, chemical, 
# crystal, experimental, refinement or atomic coordinate data resulting 
# from the CCDC's data processing and validation procedures.
#
#######################################################################

data_BIFDUQ
_symmetry_cell_setting           orthorhombic
_symmetry_space_group_name_H-M   'P 21 c n'
_symmetry_Int_Tables_number      33
_space_group_name_Hall           'P -2n 2a'
loop_
_symmetry_equiv_pos_site_id
_symmetry_equiv_pos_as_xyz
1 x,y,z
2 1/2+x,-y,-z
3 x,1/2-y,1/2+z
4 1/2+x,1/2+y,1/2-z
_cell_length_a                   12.0106(5)
_cell_length_b                   21.6828(12)
_cell_length_c                   25.7111(11)
_cell_angle_alpha                90
_cell_angle_beta                 90
_cell_angle_gamma                90
_cell_volume                     6695.77
loop_
_atom_site_label
_atom_site_type_symbol
_atom_site_fract_x
_atom_site_fract_y
_atom_site_fract_z
I1 I -0.05728(6) -0.14291(3) 0.58450(3)
I2 I 0.11319(6) -0.05150(4) 0.53633(3)
I3 I 0.27716(7) 0.02109(4) 0.48785(3)
I4 I 0.17134(8) -0.22011(4) 0.60449(3)
I5 I 0.36290(8) -0.29086(4) 0.61947(3)
I6 I -0.02332(7) -0.05276(3) 0.68980(3)
I7 I 0.02333(7) 0.01980(3) 0.77518(3)
I8 I 0.09950(6) 0.10595(4) 0.87871(3)
I9 I -0.06683(6) 0.04177(3) 0.94731(3)
I10 I -0.23423(6) -0.01605(4) 1.00997(3)
I11 I 0.18877(6) 0.20908(3) 0.96664(3)
I12 I 0.21583(5) 0.29834(3) 1.04072(3)
I13 I 0.27774(7) 0.24961(4) 1.30779(2)
I14 I 0.26572(5) 0.34511(3) 1.21790(3)
I15 I 0.24651(6) 0.42242(3) 1.13086(3)
I16 I 0.10609(6) 0.14422(4) 1.36697(3)
I17 I -0.03701(7) 0.06878(4) 1.41932(3)
I18 I 0.25168(7) 0.16206(3) 1.20030(3)
I19 I -0.26205(6) -0.10378(3) 0.89433(3)
I20 I 0.43602(6) 0.36380(4) 1.37216(3)
I21 I -0.42027(6) 0.06191(4) 0.92482(3)
I19A I 0.23795(6) 0.10378(3) 1.10567(3)
I18A I -0.24832(7) -0.16206(3) 0.79970(3)
I21B I 0.57973(6) 0.43809(4) 1.42482(3)
I20B I -0.56398(6) 0.13620(4) 0.87216(3)
Pr1 Pr 0.74547(4) 0.24205(2) 0.64073(2)
C1 C 0.8687(8) 0.3821(4) 0.6769(4)
O1 O 0.8754(6) 0.3414(3) 0.6351(3)
C2 C 0.8983(10) 0.3679(5) 0.5841(4)
H1 H 0.9546(10) 0.3999(5) 0.5867(4)
H2 H 0.8313(10) 0.3857(5) 0.5693(4)
C3 C 0.9389(10) 0.3160(5) 0.5515(4)
H3 H 1.0121(10) 0.3029(5) 0.5631(4)
H4 H 0.9442(10) 0.3287(5) 0.5154(4)
O2 O 0.8575(6) 0.2645(3) 0.5570(2)
C4 C 0.8894(9) 0.2169(5) 0.5202(4)
H5 H 0.9673(9) 0.2062(5) 0.5245(4)
H6 H 0.8776(9) 0.2308(5) 0.4848(4)
C5 C 0.8163(8) 0.1626(5) 0.5323(4)
H7 H 0.7406(8) 0.1711(5) 0.5213(4)
H8 H 0.8424(8) 0.1266(5) 0.5135(4)
O3 O 0.8186(5) 0.1502(3) 0.5885(2)
C6 C 0.9201(9) 0.1182(5) 0.6031(4)
H9 H 0.9846(9) 0.1393(5) 0.5890(4)
H10 H 0.9194(9) 0.0763(5) 0.5899(4)
C7 C 0.9237(9) 0.1182(5) 0.6607(4)
H11 H 0.8676(9) 0.0903(5) 0.6744(4)
H12 H 0.9961(9) 0.1043(5) 0.6727(4)
O4 O 0.9025(6) 0.1811(3) 0.6790(2)
C8 C 0.9405(9) 0.1920(5) 0.7315(4)
H13 H 1.0106(9) 0.1710(5) 0.7375(4)
H14 H 0.8863(9) 0.1766(5) 0.7563(4)
C9 C 0.9548(9) 0.2598(4) 0.7379(4)
H15 H 0.9726(9) 0.2698(4) 0.7737(4)
H16 H 1.0143(9) 0.2748(4) 0.7157(4)
O5 O 0.8476(5) 0.2875(3) 0.7228(2)
C10 C 0.8565(8) 0.3532(4) 0.7242(4)
C11 C 0.8452(9) 0.3858(5) 0.7694(4)
H17 H 0.8343(9) 0.3655(5) 0.8008(4)
C12 C 0.8502(12) 0.4497(6) 0.7677(5)
H18 H 0.8450(12) 0.4729(6) 0.7981(5)
C13 C 0.8633(12) 0.4785(6) 0.7198(5)
H19 H 0.8675(12) 0.5213(6) 0.7184(5)
C14 C 0.8700(10) 0.4456(5) 0.6745(5)
H20 H 0.8754(10) 0.4657(5) 0.6427(5)
C15 C 0.6755(8) 0.1311(4) 0.7336(4)
O6 O 0.6806(5) 0.1962(3) 0.7317(2)
C16 C 0.5807(10) 0.2247(5) 0.7546(4)
H21 H 0.5143(10) 0.2083(5) 0.7382(4)
H22 H 0.5771(10) 0.2156(5) 0.7915(4)
C17 C 0.5862(10) 0.2900(5) 0.7469(4)
H23 H 0.6465(10) 0.3073(5) 0.7673(4)
H24 H 0.5171(10) 0.3091(5) 0.7579(4)
O7 O 0.6052(6) 0.3022(3) 0.6911(2)
C18 C 0.5819(12) 0.3658(6) 0.6785(5)
H25 H 0.6437(12) 0.3917(6) 0.6891(5)
H26 H 0.5155(12) 0.3794(6) 0.6967(5)
C19 C 0.5652(12) 0.3701(7) 0.6216(5)
H27 H 0.4921(12) 0.3543(7) 0.6126(5)
H28 H 0.5690(12) 0.4129(7) 0.6108(5)
O8 O 0.6504(6) 0.3346(3) 0.5948(3)
C20 C 0.6168(12) 0.3226(6) 0.5414(5)
H29 H 0.6819(12) 0.3139(6) 0.5203(5)
H30 H 0.5799(12) 0.3586(6) 0.5272(5)
C21 C 0.5388(10) 0.2683(6) 0.5401(5)
H31 H 0.4667(10) 0.2798(6) 0.5541(5)
H32 H 0.5287(10) 0.2541(6) 0.5046(5)
O9 O 0.5893(5) 0.2197(3) 0.5718(2)
C22 C 0.5133(9) 0.1688(5) 0.5767(4)
H33 H 0.4879(9) 0.1563(5) 0.5425(4)
H34 H 0.4489(9) 0.1815(5) 0.5968(4)
C23 C 0.5687(9) 0.1162(5) 0.6028(4)
H35 H 0.5149(9) 0.0849(5) 0.6126(4)
H36 H 0.6243(9) 0.0977(5) 0.5804(4)
O10 O 0.6201(5) 0.1435(3) 0.6486(2)
C24 C 0.6441(8) 0.1017(5) 0.6892(3)
C25 C 0.6396(9) 0.0381(5) 0.6861(4)
H37 H 0.6205(9) 0.0180(5) 0.6554(4)
C26 C 0.6650(11) 0.0061(6) 0.7309(5)
H38 H 0.6627(11) -0.0368(6) 0.7303(5)
C27 C 0.6934(10) 0.0351(5) 0.7760(5)
H39 H 0.7098(10) 0.0117(5) 0.8054(5)
C28 C 0.6981(9) 0.0991(5) 0.7789(4)
H40 H 0.7157(9) 0.1193(5) 0.8097(4)
loop_
_geom_bond_atom_site_label_1
_geom_bond_atom_site_label_2
_geom_bond_site_symmetry_1
_geom_bond_site_symmetry_2
I1 I2 1_555 1_555
I2 I3 1_555 1_555
I4 I1 1_555 1_555
I5 I4 1_555 1_555
I6 I1 1_555 1_555
I7 I6 1_555 1_555
I8 I7 1_555 1_555
I9 I8 1_555 1_555
I10 I9 1_555 1_555
I11 I8 1_555 1_555
I12 I11 1_555 1_555
I13 I14 1_555 1_555
I14 I15 1_555 1_555
I15 I12 1_555 1_555
I16 I13 1_555 1_555
I17 I16 1_555 1_555
I18 I13 1_555 1_555
I19 I10 1_555 1_555
I20 I13 1_555 1_555
I21 I10 1_555 1_555
Pr1 O1 1_555 1_555
C1 O1 1_555 1_555
O1 C2 1_555 1_555
C2 H1 1_555 1_555
H2 C2 1_555 1_555
C3 C2 1_555 1_555
H3 C3 1_555 1_555
H4 C3 1_555 1_555
O2 Pr1 1_555 1_555
C4 O2 1_555 1_555
H5 C4 1_555 1_555
H6 C4 1_555 1_555
C5 C4 1_555 1_555
H7 C5 1_555 1_555
H8 C5 1_555 1_555
O3 Pr1 1_555 1_555
C6 O3 1_555 1_555
H9 C6 1_555 1_555
H10 C6 1_555 1_555
C7 C6 1_555 1_555
H11 C7 1_555 1_555
H12 C7 1_555 1_555
O4 Pr1 1_555 1_555
C8 O4 1_555 1_555
H13 C8 1_555 1_555
H14 C8 1_555 1_555
C9 C8 1_555 1_555
H15 C9 1_555 1_555
H16 C9 1_555 1_555
O5 Pr1 1_555 1_555
C10 C1 1_555 1_555
C11 C10 1_555 1_555
H17 C11 1_555 1_555
C12 C11 1_555 1_555
H18 C12 1_555 1_555
C13 C12 1_555 1_555
H19 C13 1_555 1_555
C14 C1 1_555 1_555
H20 C14 1_555 1_555
C15 O6 1_555 1_555
O6 Pr1 1_555 1_555
C16 O6 1_555 1_555
H21 C16 1_555 1_555
H22 C16 1_555 1_555
C17 C16 1_555 1_555
H23 C17 1_555 1_555
H24 C17 1_555 1_555
O7 Pr1 1_555 1_555
C18 O7 1_555 1_555
H25 C18 1_555 1_555
H26 C18 1_555 1_555
C19 C18 1_555 1_555
H27 C19 1_555 1_555
H28 C19 1_555 1_555
O8 Pr1 1_555 1_555
C20 O8 1_555 1_555
H29 C20 1_555 1_555
H30 C20 1_555 1_555
C21 C20 1_555 1_555
H31 C21 1_555 1_555
H32 C21 1_555 1_555
O9 Pr1 1_555 1_555
C22 O9 1_555 1_555
H33 C22 1_555 1_555
H34 C22 1_555 1_555
C23 C22 1_555 1_555
H35 C23 1_555 1_555
H36 C23 1_555 1_555
O10 Pr1 1_555 1_555
C24 C15 1_555 1_555
C25 C24 1_555 1_555
H37 C25 1_555 1_555
C26 C25 1_555 1_555
H38 C26 1_555 1_555
C27 C26 1_555 1_555
H39 C27 1_555 1_555
C28 C15 1_555 1_555
H40 C28 1_555 1_555
I19A I18 1_555 1_555
I18A I19 1_555 1_555
I21B I20 1_555 1_555
I20B I21 1_555 1_555
C3 O2 1_555 1_555
C5 O3 1_555 1_555
C7 O4 1_555 1_555
C9 O5 1_555 1_555
O5 C10 1_555 1_555
C13 C14 1_555 1_555
C17 O7 1_555 1_555
C19 O8 1_555 1_555
C21 O9 1_555 1_555
C23 O10 1_555 1_555
O10 C24 1_555 1_555
C27 C28 1_555 1_555

#END
