
#######################################################################
#
#                 Cambridge Crystallographic Data Centre
#                                CCDC 
#
#######################################################################
#
# If this CIF has been generated from an entry in the Cambridge 
# Structural Database, then it will include bibliographic, chemical, 
# crystal, experimental, refinement or atomic coordinate data resulting 
# from the CCDC's data processing and validation procedures.
#
#######################################################################

data_BIFDOK
_symmetry_cell_setting           monoclinic
_symmetry_space_group_name_H-M   'P 21/c'
_symmetry_Int_Tables_number      14
_space_group_name_Hall           '-P 2ybc'
loop_
_symmetry_equiv_pos_site_id
_symmetry_equiv_pos_as_xyz
1 x,y,z
2 -x,1/2+y,1/2-z
3 -x,-y,-z
4 x,1/2-y,1/2+z
_cell_length_a                   7.004(1)
_cell_length_b                   20.525(2)
_cell_length_c                   7.364(1)
_cell_angle_alpha                90
_cell_angle_beta                 110.912(2)
_cell_angle_gamma                90
_cell_volume                     988.895
loop_
_atom_site_label
_atom_site_type_symbol
_atom_site_fract_x
_atom_site_fract_y
_atom_site_fract_z
Cs1 Cs -0.72773(3) 0.437023(11) 0.60166(3)
S1 S -1.23599(13) 0.39911(5) 0.58837(11)
N1 N -1.0208(4) 0.39500(12) 0.9802(3)
N2 N -1.0222(5) 0.42274(14) 1.1482(4)
N3 N -1.1785(5) 0.46151(15) 1.0960(4)
N4 N -1.2796(4) 0.46031(13) 0.8996(4)
C1 C -1.1788(5) 0.41842(14) 0.8274(4)
C2 C -0.8594(5) 0.35128(16) 0.9863(4)
C3 C -0.9071(6) 0.29113(17) 0.9040(5)
H1 H -1.0427 0.2786 0.8435
C4 C -0.7479(7) 0.2487(2) 0.9126(5)
H2 H -0.7771 0.2079 0.8544
C5 C -0.5489(8) 0.2673(2) 1.0066(5)
H3 H -0.4440 0.2384 1.0141
C6 C -0.5021(6) 0.3277(2) 1.0896(5)
H4 H -0.3666 0.3400 1.1518
C7 C -0.6590(5) 0.37022(17) 1.0800(5)
H5 H -0.6294 0.4113 1.1362
Cs1B Cs -1.27227(3) 0.562977(11) 0.39834(3)
Cs1B_2 Cs -0.27227(3) 0.562977(11) 0.39834(3)
S1_2 S -0.23599(13) 0.39911(5) 0.58837(11)
S1B S -0.76401(13) 0.60089(5) 0.41163(11)
N2_2 N -1.0222(5) 0.42274(14) 0.1482(4)
N3B N -0.8215(5) 0.53849(15) 0.9040(4)
N4_2 N -0.2796(4) 0.46031(13) 0.8996(4)
Cs1_2 Cs -1.72773(3) 0.437023(11) 0.60166(3)
Cs1_3 Cs -0.72773(3) 0.437023(11) 1.60166(3)
Cs1B_3 Cs -1.27227(3) 0.562977(11) 1.39834(3)
loop_
_geom_bond_atom_site_label_1
_geom_bond_atom_site_label_2
_geom_bond_site_symmetry_1
_geom_bond_site_symmetry_2
Cs1 S1 1_555 1_555
S1 C1 1_555 1_555
N1 N2 1_555 1_555
N2 N3 1_555 1_555
N3 N4 1_555 1_555
N4 C1 1_555 1_555
C1 N1 1_555 1_555
C2 Cs1 1_555 1_555
C3 C2 1_555 1_555
H1 C3 1_555 1_555
C4 C3 1_555 1_555
H2 C4 1_555 1_555
C5 C4 1_555 1_555
H3 C5 1_555 1_555
C6 C5 1_555 1_555
H4 C6 1_555 1_555
C7 Cs1 1_555 1_555
H5 C7 1_555 1_555
Cs1B S1 1_555 1_555
Cs1B_2 S1_2 1_555 1_555
S1_2 Cs1 1_555 1_555
S1B Cs1 1_555 1_555
N2_2 Cs1 1_555 1_555
N3B Cs1 1_555 1_555
N4_2 Cs1 1_555 1_555
Cs1_2 S1 1_555 1_555
Cs1_3 N2 1_555 1_555
Cs1B_3 N3 1_555 1_555
N1 C2 1_555 1_555
N4 Cs1_2 1_555 1_555
C2 C7 1_555 1_555
C6 C7 1_555 1_555
Cs1B S1B 1_555 1_555
Cs1B_2 S1B 1_555 1_555

#END
