
#######################################################################
#
#                 Cambridge Crystallographic Data Centre
#                                CCDC 
#
#######################################################################
#
# If this CIF has been generated from an entry in the Cambridge 
# Structural Database, then it will include bibliographic, chemical, 
# crystal, experimental, refinement or atomic coordinate data resulting 
# from the CCDC's data processing and validation procedures.
#
#######################################################################

data_BIFFAY
_symmetry_cell_setting           triclinic
_symmetry_space_group_name_H-M   'P -1'
_symmetry_Int_Tables_number      2
_space_group_name_Hall           '-P 1'
loop_
_symmetry_equiv_pos_site_id
_symmetry_equiv_pos_as_xyz
1 x,y,z
2 -x,-y,-z
_cell_length_a                   8.0481(6)
_cell_length_b                   9.0587(6)
_cell_length_c                   11.1642(8)
_cell_angle_alpha                100.064(3)
_cell_angle_beta                 99.917(3)
_cell_angle_gamma                92.367(3)
_cell_volume                     787.29
loop_
_atom_site_label
_atom_site_type_symbol
_atom_site_fract_x
_atom_site_fract_y
_atom_site_fract_z
Ag1 Ag 0.270719(13) 0.299230(11) 0.022227(9)
Na1 Na 0.26590(7) -0.29492(6) 0.09440(5)
N1 N 0.39389(15) 0.15444(13) 0.13631(10)
S1 S 0.34583(4) 0.07086(3) 0.24419(3)
O1 O 0.30533(13) 0.17693(11) 0.34542(9)
O2 O 0.22036(13) -0.05392(11) 0.19474(10)
C1 C 0.54557(16) 0.00152(14) 0.28336(12)
C2 C 0.60292(18) -0.08014(16) 0.37409(13)
H1 H 0.5317 -0.1087 0.4270
C3 C 0.76998(19) -0.11866(17) 0.38429(14)
H2 H 0.8146 -0.1729 0.4466
C4 C 0.87320(18) -0.07901(17) 0.30447(14)
H3 H 0.9863 -0.1075 0.3128
C5 C 0.81204(17) 0.00193(15) 0.21256(13)
H4 H 0.8815 0.0284 0.1577
C6 C 0.64662(17) 0.04246(14) 0.20393(12)
C7 C 0.55493(17) 0.13318(14) 0.11798(12)
O3 O 0.61804(13) 0.18540(12) 0.04051(9)
N2 N 0.23317(15) 0.43937(13) -0.11632(11)
S2 S 0.05963(4) 0.51090(3) -0.16732(3)
O4 O -0.08083(13) 0.39851(11) -0.21048(9)
O5 O 0.02789(13) 0.63633(11) -0.07587(9)
C8 C 0.12969(16) 0.57412(14) -0.29166(11)
C9 C 0.04565(17) 0.65087(15) -0.37799(12)
H5 H -0.0669 0.6780 -0.3768
C10 C 0.13593(19) 0.68614(16) -0.46698(13)
H6 H 0.0832 0.7378 -0.5287
C11 C 0.30131(19) 0.64719(16) -0.46690(13)
H7 H 0.3589 0.6721 -0.5289
C12 C 0.38435(18) 0.57217(15) -0.37748(13)
H8 H 0.4980 0.5472 -0.3767
C13 C 0.29469(16) 0.53545(14) -0.28988(12)
C14 C 0.35600(17) 0.45695(15) -0.18510(12)
O6 O 0.49873(13) 0.41438(12) -0.16387(10)
O5A O -0.02789(13) 0.36367(11) 0.07587(9)
O3A O 0.38196(13) -0.18540(12) -0.04051(9)
O4A O 0.08083(13) -0.39851(11) 0.21048(9)
O5_2 O 0.02789(13) -0.36367(11) -0.07587(9)
O6A O 0.50127(13) -0.41438(12) 0.16387(10)
Na1A Na 0.73410(7) 0.29492(6) -0.09440(5)
Na1A_2 Na -0.26590(7) 0.29492(6) -0.09440(5)
Ag1A Ag -0.270719(13) 0.700770(11) -0.022227(9)
Na1_2 Na 0.26590(7) 0.70508(6) 0.09440(5)
loop_
_geom_bond_atom_site_label_1
_geom_bond_atom_site_label_2
_geom_bond_site_symmetry_1
_geom_bond_site_symmetry_2
Ag1 N1 1_555 1_555
Na1 O2 1_555 1_555
N1 S1 1_555 1_555
S1 O1 1_555 1_555
O2 S1 1_555 1_555
C1 S1 1_555 1_555
C2 C1 1_555 1_555
H1 C2 1_555 1_555
C3 C2 1_555 1_555
H2 C3 1_555 1_555
C4 C3 1_555 1_555
H3 C4 1_555 1_555
C5 C4 1_555 1_555
H4 C5 1_555 1_555
C6 C1 1_555 1_555
C7 N1 1_555 1_555
O3 C7 1_555 1_555
N2 Ag1 1_555 1_555
S2 N2 1_555 1_555
O4 S2 1_555 1_555
O5 S2 1_555 1_555
C8 S2 1_555 1_555
C9 C8 1_555 1_555
H5 C9 1_555 1_555
C10 C9 1_555 1_555
H6 C10 1_555 1_555
C11 C10 1_555 1_555
H7 C11 1_555 1_555
C12 C11 1_555 1_555
H8 C12 1_555 1_555
C13 C8 1_555 1_555
C14 N2 1_555 1_555
O6 C14 1_555 1_555
O5A Ag1 1_555 1_555
O3A Na1 1_555 1_555
O4A Na1 1_555 1_555
O5_2 Na1 1_555 1_555
O6A Na1 1_555 1_555
Na1A O3 1_555 1_555
Na1A_2 O4 1_555 1_555
Ag1A O5 1_555 1_555
Na1_2 O5 1_555 1_555
C5 C6 1_555 1_555
C6 C7 1_555 1_555
C12 C13 1_555 1_555
C13 C14 1_555 1_555
O6 Na1A 1_555 1_555
O5A Na1A_2 1_555 1_555

#END
