
#######################################################################
#
#                 Cambridge Crystallographic Data Centre
#                                CCDC 
#
#######################################################################
#
# If this CIF has been generated from an entry in the Cambridge 
# Structural Database, then it will include bibliographic, chemical, 
# crystal, experimental, refinement or atomic coordinate data resulting 
# from the CCDC's data processing and validation procedures.
#
#######################################################################

data_BIFGEE
_symmetry_cell_setting           triclinic
_symmetry_space_group_name_H-M   'P -1'
_symmetry_Int_Tables_number      2
_space_group_name_Hall           '-P 1'
loop_
_symmetry_equiv_pos_site_id
_symmetry_equiv_pos_as_xyz
1 x,y,z
2 -x,-y,-z
_cell_length_a                   9.1665(6)
_cell_length_b                   10.0157(7)
_cell_length_c                   10.8275(7)
_cell_angle_alpha                78.835(2)
_cell_angle_beta                 77.128(2)
_cell_angle_gamma                75.841(2)
_cell_volume                     929.405
loop_
_atom_site_label
_atom_site_type_symbol
_atom_site_fract_x
_atom_site_fract_y
_atom_site_fract_z
Cu1 Cu 0.5000 0.5000 0.5000
Cl1 Cl 0.45207(4) 0.61272(4) 0.30035(3)
N1 N 0.29934(15) 0.60695(14) 0.58665(12)
C1 C 0.16498(18) 0.60480(17) 0.55708(15)
H1 H 0.1655 0.5613 0.4884
C2 C 0.02588(19) 0.66531(17) 0.62568(16)
H2 H -0.0655 0.6609 0.6044
C3 C 0.02486(18) 0.73249(17) 0.72656(15)
H3 H -0.0674 0.7713 0.7754
N2 N 0.27110(15) 0.75179(14) 0.94810(12)
H4 H 0.3682 0.7501 0.9039
C4 C 0.26273(19) 0.60233(17) 1.00186(15)
H5 H 0.3543 0.5576 1.0369
H6 H 0.2619 0.5543 0.9324
C5 C 0.16552(18) 0.82520(16) 0.85476(14)
H7 H 0.0623 0.8495 0.9027
H8 H 0.1964 0.9112 0.8125
C6 C 0.16339(18) 0.74132(16) 0.75407(14)
C7 C 0.29765(18) 0.67529(16) 0.68209(14)
H9 H 0.3907 0.6787 0.7010
O1 O -0.00954(14) 0.65849(13) 1.05627(11)
O2 O 0.20166(13) 1.07537(12) 0.95111(11)
O3 O 0.35539(15) 0.33058(13) 0.46951(12)
C8 C 0.25868(18) 1.20078(17) 0.90887(16)
H10 H 0.3540 1.1835 0.8481
H11 H 0.2779 1.2335 0.9812
C9 C 0.1239(2) 0.58574(18) 1.10523(16)
H12 H 0.1211 0.4879 1.1304
H13 H 0.1292 0.6230 1.1800
C10 C 0.3677(2) 0.1942(2) 0.53881(18)
H14 H 0.4020 0.1912 0.6171
H15 H 0.4400 0.1299 0.4882
H16 H 0.2695 0.1693 0.5581
C11 C 0.30889(19) 0.96955(18) 1.01137(16)
H17 H 0.3272 1.0006 1.0850
H18 H 0.4053 0.9520 0.9519
C12 C 0.24947(19) 0.83690(17) 1.05386(15)
H19 H 0.3013 0.7805 1.1213
H20 H 0.1412 0.8603 1.0898
C13 C -0.14052(19) 0.69157(18) 1.15339(16)
H21 H -0.1132 0.7279 1.2200
H22 H -0.1805 0.6089 1.1918
H23 H 0.3657 0.3286 0.3812
N1A N -0.29934(15) 1.39305(14) 1.41335(12)
C1A C -0.16498(18) 1.39520(17) 1.44292(15)
H1A H -0.1655 1.4387 1.5116
C2A C -0.02588(19) 1.33469(17) 1.37432(16)
H2A H 0.0655 1.3391 1.3956
C3A C -0.02486(18) 1.26751(17) 1.27344(15)
H3A H 0.0674 1.2287 1.2246
N2A N -0.27110(15) 1.24821(14) 1.05190(12)
H4A H -0.3682 1.2499 1.0961
C4A C -0.26273(19) 1.39767(17) 0.99814(15)
H5A H -0.3543 1.4424 0.9631
H6A H -0.2619 1.4457 1.0676
C5A C -0.16552(18) 1.17480(16) 1.14524(14)
H7A H -0.0623 1.1505 1.0973
H8A H -0.1964 1.0888 1.1875
C6A C -0.16339(18) 1.25868(16) 1.24593(14)
C7A C -0.29765(18) 1.32471(16) 1.31791(14)
H9A H -0.3907 1.3213 1.2990
O1A O 0.00954(14) 1.34151(13) 0.94373(11)
O2A O -0.20166(13) 0.92463(12) 1.04889(11)
C8A C -0.25868(18) 0.79922(17) 1.09113(16)
H10A H -0.3540 0.8165 1.1519
H11A H -0.2779 0.7665 1.0188
C9A C -0.1239(2) 1.41426(18) 0.89477(16)
H12A H -0.1211 1.5121 0.8696
H13A H -0.1292 1.3770 0.8200
C11A C -0.30889(19) 1.03045(18) 0.98863(16)
H17A H -0.3272 0.9994 0.9150
H18A H -0.4053 1.0480 1.0481
C12A C -0.24947(19) 1.16310(17) 0.94614(15)
H19A H -0.3013 1.2195 0.8787
H20A H -0.1412 1.1397 0.9102
C13A C 0.14052(19) 1.30843(18) 0.84661(16)
H21A H 0.1132 1.2721 0.7800
H22A H 0.1805 1.3911 0.8082
O3A O 0.64461(15) 0.66942(13) 0.53049(12)
C10A C 0.6323(2) 0.8058(2) 0.46119(18)
H14A H 0.5980 0.8088 0.3829
H15A H 0.5600 0.8701 0.5118
H16A H 0.7305 0.8307 0.4419
H23A H 0.6343 0.6714 0.6188
Cl1A Cl 0.54793(4) 0.38728(4) 0.69965(3)
Cu1_2 Cu -0.5000 1.5000 1.5000
N1A_2 N 0.70066(15) 0.39305(14) 0.41335(12)
Cl2 Cl 0.39574(4) 0.24987(4) 0.19722(4)
N3 N 0.0015(2) 1.08834(19) 0.66860(17)
C14 C -0.1047(2) 1.07537(19) 0.63867(17)
C15 C -0.2412(2) 1.0587(2) 0.60137(19)
H24 H -0.3201 1.1409 0.6117
H25 H -0.2759 0.9798 0.6544
H26 H -0.2179 1.0444 0.5134
loop_
_geom_bond_atom_site_label_1
_geom_bond_atom_site_label_2
_geom_bond_site_symmetry_1
_geom_bond_site_symmetry_2
Cu1 Cl1 1_555 1_555
N1 Cu1 1_555 1_555
C1 N1 1_555 1_555
H1 C1 1_555 1_555
C2 C1 1_555 1_555
H2 C2 1_555 1_555
C3 C2 1_555 1_555
H3 C3 1_555 1_555
N2 H4 1_555 1_555
C4 N2 1_555 1_555
H5 C4 1_555 1_555
H6 C4 1_555 1_555
C5 N2 1_555 1_555
H7 C5 1_555 1_555
H8 C5 1_555 1_555
C6 C3 1_555 1_555
C7 N1 1_555 1_555
H9 C7 1_555 1_555
O1 C9 1_555 1_555
O2 C8 1_555 1_555
O3 Cu1 1_555 1_555
C8 H10 1_555 1_555
H11 C8 1_555 1_555
C9 C4 1_555 1_555
H12 C9 1_555 1_555
H13 C9 1_555 1_555
C10 O3 1_555 1_555
H14 C10 1_555 1_555
H15 C10 1_555 1_555
H16 C10 1_555 1_555
C11 O2 1_555 1_555
H17 C11 1_555 1_555
H18 C11 1_555 1_555
C12 N2 1_555 1_555
H19 C12 1_555 1_555
H20 C12 1_555 1_555
C13 O1 1_555 1_555
H21 C13 1_555 1_555
H22 C13 1_555 1_555
H23 O3 1_555 1_555
N3 C14 1_555 1_555
C14 C15 1_555 1_555
C15 H24 1_555 1_555
H25 C15 1_555 1_555
H26 C15 1_555 1_555
N1A C1A 1_555 1_555
C1A H1A 1_555 1_555
C2A C1A 1_555 1_555
H2A C2A 1_555 1_555
C3A C2A 1_555 1_555
H3A C3A 1_555 1_555
N2A H4A 1_555 1_555
C4A N2A 1_555 1_555
H5A C4A 1_555 1_555
H6A C4A 1_555 1_555
C5A N2A 1_555 1_555
H7A C5A 1_555 1_555
H8A C5A 1_555 1_555
C6A C3A 1_555 1_555
C7A N1A 1_555 1_555
H9A C7A 1_555 1_555
O1A C9A 1_555 1_555
O2A C8A 1_555 1_555
C8A C13 1_555 1_555
H10A C8A 1_555 1_555
H11A C8A 1_555 1_555
C9A C4A 1_555 1_555
H12A C9A 1_555 1_555
H13A C9A 1_555 1_555
C11A O2A 1_555 1_555
H17A C11A 1_555 1_555
H18A C11A 1_555 1_555
C12A N2A 1_555 1_555
H19A C12A 1_555 1_555
H20A C12A 1_555 1_555
C13A C8 1_555 1_555
H21A C13A 1_555 1_555
H22A C13A 1_555 1_555
O3A Cu1 1_555 1_555
C10A O3A 1_555 1_555
H14A C10A 1_555 1_555
H15A C10A 1_555 1_555
H16A C10A 1_555 1_555
H23A O3A 1_555 1_555
Cl1A Cu1 1_555 1_555
Cu1_2 N1A 1_555 1_555
N1A_2 Cu1 1_555 1_555
C5 C6 1_555 1_555
C6 C7 1_555 1_555
C11 C12 1_555 1_555
C5A C6A 1_555 1_555
C6A C7A 1_555 1_555
O1A C13A 1_555 1_555
C11A C12A 1_555 1_555

#END
