
#######################################################################
#
#                 Cambridge Crystallographic Data Centre
#                                CCDC 
#
#######################################################################
#
# If this CIF has been generated from an entry in the Cambridge 
# Structural Database, then it will include bibliographic, chemical, 
# crystal, experimental, refinement or atomic coordinate data resulting 
# from the CCDC's data processing and validation procedures.
#
#######################################################################

data_BIFGUU
_symmetry_cell_setting           triclinic
_symmetry_space_group_name_H-M   'P -1'
_symmetry_Int_Tables_number      2
_space_group_name_Hall           '-P 1'
loop_
_symmetry_equiv_pos_site_id
_symmetry_equiv_pos_as_xyz
1 x,y,z
2 -x,-y,-z
_cell_length_a                   11.3584(13)
_cell_length_b                   14.054(2)
_cell_length_c                   19.535(3)
_cell_angle_alpha                107.967(8)
_cell_angle_beta                 97.502(7)
_cell_angle_gamma                98.108(7)
_cell_volume                     2886.07
loop_
_atom_site_label
_atom_site_type_symbol
_atom_site_fract_x
_atom_site_fract_y
_atom_site_fract_z
I1 I 0.66151(5) 0.25843(4) 0.41990(3)
I2 I 0.50362(5) 0.27116(4) 0.20691(3)
I3 I 0.32844(5) 0.01920(4) 0.27765(3)
I4 I 0.68835(5) 0.00577(4) 0.22358(3)
Cu1 Cu 0.56766(9) 0.06499(8) 0.33385(6)
Cu2 Cu 0.45033(9) 0.20766(8) 0.31782(6)
Cu3 Cu 0.67292(9) 0.20143(8) 0.27721(6)
Cu4 Cu 0.48054(9) 0.07367(8) 0.19492(6)
O1 O 0.0752(5) 0.2071(5) 0.6568(3)
N1 N 0.4028(6) -0.0146(5) 0.0914(4)
O2 O -0.0237(5) -0.0146(5) 0.5963(3)
N2 N 0.5884(6) -0.0220(5) 0.3995(4)
N3 N 0.3670(6) -0.3334(6) 0.0310(4)
N4 N 0.8311(6) 0.2906(6) 0.2749(4)
N5 N 0.0836(6) 0.2285(5) 0.4955(4)
N6 N 0.3536(6) 0.3046(5) 0.3780(4)
C1 C 0.2368(8) 0.4437(7) 0.4640(5)
H1 H 0.1984 0.4910 0.4929
C2 C 0.3741(7) -0.1152(7) 0.0732(5)
H2 H 0.3944 -0.1432 0.1094
C3 C 0.2891(8) -0.1366(8) -0.0483(5)
H3 H 0.2511 -0.1772 -0.0955
C4 C 0.1865(8) 0.3407(7) 0.4383(5)
C5 C 0.2824(8) -0.2956(7) -0.0121(5)
H4 H 0.2019 -0.3119 -0.0021
H5 H 0.2803 -0.3299 -0.0637
C6 C 0.1412(8) 0.2836(7) 0.5714(5)
H6 H 0.0884 0.3272 0.5944
H7 H 0.2156 0.3274 0.5719
C7 C 0.0673(8) 0.3000(7) 0.4561(5)
H8 H 0.0359 0.3562 0.4858
H9 H 0.0090 0.2660 0.4111
C8 C 0.3753(8) 0.0280(7) 0.0396(5)
H10 H 0.3948 0.0983 0.0513
C9 C 0.3455(8) 0.4739(7) 0.4454(5)
H11 H 0.3819 0.5425 0.4625
C10 C 0.0897(8) 0.1383(7) 0.6961(5)
H12 H 0.0930 0.1733 0.7478
H13 H 0.1653 0.1149 0.6905
C11 C 0.3177(8) -0.0330(8) -0.0318(5)
H14 H 0.2991 -0.0034 -0.0674
C12 C 0.1703(7) 0.2180(7) 0.6168(5)
H15 H 0.1780 0.1516 0.5853
H16 H 0.2465 0.2492 0.6505
C13 C -0.0143(8) 0.0475(7) 0.6685(5)
H17 H -0.0060 0.0062 0.6998
H18 H -0.0893 0.0724 0.6733
C14 C 0.2480(8) 0.2745(7) 0.3958(5)
H19 H 0.2144 0.2053 0.3785
C15 C 0.3160(8) -0.1824(8) 0.0044(5)
C16 C -0.0293(8) 0.1579(7) 0.4880(5)
H20 H -0.0938 0.1961 0.4969
H21 H -0.0197 0.1248 0.5247
C17 C 0.4000(8) 0.4044(7) 0.4024(5)
H22 H 0.4721 0.4270 0.3895
C18 C 0.6059(7) -0.1391(7) 0.4910(5)
H23 H 0.6098 -0.1778 0.5219
C19 C 0.5490(7) -0.1830(7) 0.4182(5)
C20 C 0.5416(7) -0.1227(6) 0.3747(5)
H24 H 0.5027 -0.1527 0.3261
C21 C 0.6460(7) 0.0205(7) 0.4691(5)
H25 H 0.6795 0.0898 0.4864
O3 O 0.5873(5) -0.3821(5) 0.1021(3)
O4 O 0.1469(5) -0.3739(5) 0.2371(3)
O5 O 1.0977(6) -0.0615(5) 0.0858(4)
O6 O 0.1186(6) -0.4160(5) 0.0683(4)
N7 N 0.3997(6) -0.3270(5) 0.3249(4)
C22 C 0.0589(8) -0.3524(8) 0.1881(5)
H26 H 0.0874 -0.2861 0.1845
H27 H -0.0157 -0.3501 0.2072
C23 C 0.5016(8) -0.2974(7) 0.3855(5)
H28 H 0.5668 -0.3304 0.3686
H29 H 0.4772 -0.3222 0.4237
C24 C 1.0347(8) 0.3082(7) 0.2521(4)
C25 C 0.1941(8) -0.2855(7) 0.3015(5)
H30 H 0.1288 -0.2644 0.3263
H31 H 0.2313 -0.2296 0.2874
C26 C 0.3926(8) -0.4319(6) 0.2755(5)
H32 H 0.3095 -0.4601 0.2506
H33 H 0.4160 -0.4735 0.3044
C27 C 1.0527(8) 0.0297(7) 0.1166(6)
H34 H 1.0480 0.0400 0.1676
H35 H 0.9724 0.0248 0.0902
C28 C 0.6574(7) -0.0352(7) 0.5165(5)
H36 H 0.6987 -0.0039 0.5645
C29 C 0.0349(8) -0.4313(7) 0.1141(5)
H37 H 0.0358 -0.4973 0.1198
H38 H -0.0458 -0.4329 0.0896
C30 C 1.1403(8) 0.1179(7) 0.1103(5)
H39 H 1.2203 0.1222 0.1369
H40 H 1.1455 0.1064 0.0594
C31 C 1.0571(8) -0.1399(7) 0.1131(5)
H41 H 1.0795 -0.1143 0.1661
H42 H 1.0984 -0.1959 0.0951
C32 C 0.2367(8) -0.4283(8) 0.0924(5)
H43 H 0.2316 -0.4903 0.1047
H44 H 0.2743 -0.3716 0.1363
C33 C 0.4826(7) -0.3345(8) 0.0049(5)
H45 H 0.4921 -0.2860 -0.0210
H46 H 0.4804 -0.4017 -0.0295
C34 C 0.9242(7) 0.2504(7) 0.2523(5)
H47 H 0.9152 0.1798 0.2357
C35 C 0.2870(8) -0.3116(7) 0.3523(5)
H48 H 0.3062 -0.2571 0.3992
H49 H 0.2514 -0.3732 0.3604
C36 C 0.3148(8) -0.4337(8) 0.0351(5)
H50 H 0.3804 -0.4676 0.0452
H51 H 0.2667 -0.4752 -0.0123
C37 C 1.0474(8) 0.4125(7) 0.2779(5)
H52 H 1.1201 0.4537 0.2796
C38 C 0.0648(8) -0.0769(7) 0.5878(5)
H53 H 0.0689 -0.1090 0.6252
H54 H 0.1436 -0.0359 0.5928
C39 C 0.5898(8) -0.3090(7) 0.0653(5)
H55 H 0.6632 -0.3055 0.0451
H56 H 0.5914 -0.2424 0.1004
C40 C 0.9506(9) 0.4560(8) 0.3015(6)
H57 H 0.9572 0.5264 0.3181
C41 C 0.8433(9) 0.3918(7) 0.2997(6)
H58 H 0.7789 0.4204 0.3163
O7 O 0.8720(5) -0.2011(5) 0.0179(3)
O8 O 0.5961(5) -0.4174(5) 0.2525(3)
N8 N 1.0979(6) 0.2139(6) 0.1406(4)
C42 C 0.4727(7) -0.4369(7) 0.2190(5)
H59 H 0.4522 -0.5038 0.1818
H60 H 0.4594 -0.3869 0.1954
C43 C 1.1370(8) 0.2913(7) 0.1090(5)
H61 H 1.2234 0.2975 0.1099
H62 H 1.1233 0.3563 0.1394
C44 C 0.6755(8) -0.4333(8) 0.2009(5)
H63 H 0.6475 -0.5009 0.1649
H64 H 0.7555 -0.4315 0.2262
C45 C 0.9204(8) -0.1804(7) 0.0920(5)
H65 H 0.9025 -0.2425 0.1037
H66 H 0.8800 -0.1308 0.1215
C46 C 0.9258(9) -0.2701(8) -0.0321(5)
H67 H 0.9206 -0.3333 -0.0213
H68 H 1.0106 -0.2414 -0.0268
C47 C 0.6850(8) -0.3558(8) 0.1612(5)
H69 H 0.6849 -0.2888 0.1951
H70 H 0.7605 -0.3532 0.1431
C48 C 1.1310(7) 0.2550(7) 0.2208(5)
H71 H 1.2076 0.3026 0.2350
H72 H 1.1403 0.2000 0.2400
O1A O -0.0752(5) -0.2071(5) 0.3432(3)
O2A O 0.0237(5) 0.0146(5) 0.4037(3)
N5A N -0.0836(6) -0.2285(5) 0.5045(4)
N6A N -0.3536(6) -0.3046(5) 0.6220(4)
C1A C -0.2368(8) -0.4437(7) 0.5360(5)
H1A H -0.1984 -0.4910 0.5071
C4A C -0.1865(8) -0.3407(7) 0.5617(5)
C6A C -0.1412(8) -0.2836(7) 0.4286(5)
H6A H -0.0884 -0.3272 0.4056
H7A H -0.2156 -0.3274 0.4281
C7A C -0.0673(8) -0.3000(7) 0.5439(5)
H8A H -0.0359 -0.3562 0.5142
H9A H -0.0090 -0.2660 0.5889
C9A C -0.3455(8) -0.4739(7) 0.5546(5)
H11A H -0.3819 -0.5425 0.5375
C10A C -0.0897(8) -0.1383(7) 0.3039(5)
H12A H -0.0930 -0.1733 0.2522
H13A H -0.1653 -0.1149 0.3095
C12A C -0.1703(7) -0.2180(7) 0.3832(5)
H15A H -0.1780 -0.1516 0.4147
H16A H -0.2465 -0.2492 0.3495
C13A C 0.0143(8) -0.0475(7) 0.3315(5)
H17A H 0.0060 -0.0062 0.3002
H18A H 0.0893 -0.0724 0.3267
C14A C -0.2480(8) -0.2745(7) 0.6042(5)
H19A H -0.2144 -0.2053 0.6215
C16A C 0.0293(8) -0.1579(7) 0.5120(5)
H20A H 0.0938 -0.1961 0.5031
H21A H 0.0197 -0.1248 0.4753
C17A C -0.4000(8) -0.4044(7) 0.5976(5)
H22A H -0.4721 -0.4270 0.6105
C38A C -0.0648(8) 0.0769(7) 0.4122(5)
H53A H -0.0689 0.1090 0.3748
H54A H -0.1436 0.0359 0.4072
N4A N 1.1689(6) -0.2906(6) -0.2749(4)
O5A O 0.9023(6) 0.0615(5) -0.0858(4)
C24A C 0.9653(8) -0.3082(7) -0.2521(4)
C27A C 0.9473(8) -0.0297(7) -0.1166(6)
H34A H 0.9520 -0.0400 -0.1676
H35A H 1.0276 -0.0248 -0.0902
C30A C 0.8597(8) -0.1179(7) -0.1103(5)
H39A H 0.7797 -0.1222 -0.1369
H40A H 0.8545 -0.1064 -0.0594
C31A C 0.9429(8) 0.1399(7) -0.1131(5)
H41A H 0.9205 0.1143 -0.1661
H42A H 0.9016 0.1959 -0.0951
C34A C 1.0758(7) -0.2504(7) -0.2523(5)
H47A H 1.0848 -0.1798 -0.2357
C37A C 0.9526(8) -0.4125(7) -0.2779(5)
H52A H 0.8799 -0.4537 -0.2796
C40A C 1.0494(9) -0.4560(8) -0.3015(6)
H57A H 1.0428 -0.5264 -0.3181
C41A C 1.1567(9) -0.3918(7) -0.2997(6)
H58A H 1.2211 -0.4204 -0.3163
O7A O 1.1280(5) 0.2011(5) -0.0179(3)
N8A N 0.9021(6) -0.2139(6) -0.1406(4)
C43A C 0.8630(8) -0.2913(7) -0.1090(5)
H61A H 0.7766 -0.2975 -0.1099
H62A H 0.8767 -0.3563 -0.1394
C45A C 1.0796(8) 0.1804(7) -0.0920(5)
H65A H 1.0975 0.2425 -0.1037
H66A H 1.1200 0.1308 -0.1215
C46A C 1.0742(9) 0.2701(8) 0.0321(5)
H67A H 1.0794 0.3333 0.0213
H68A H 0.9894 0.2414 0.0268
C48A C 0.8690(7) -0.2550(7) -0.2208(5)
H71A H 0.7924 -0.3026 -0.2350
H72A H 0.8597 -0.2000 -0.2400
I1A I -0.66151(5) -0.25843(4) 0.58010(3)
I2A I -0.50362(5) -0.27116(4) 0.79309(3)
I3A I -0.32844(5) -0.01920(4) 0.72235(3)
I4A I -0.68835(5) -0.00577(4) 0.77642(3)
Cu1A Cu -0.56766(9) -0.06499(8) 0.66615(6)
Cu2A Cu -0.45033(9) -0.20766(8) 0.68218(6)
Cu3A Cu -0.67292(9) -0.20143(8) 0.72279(6)
Cu4A Cu -0.48054(9) -0.07367(8) 0.80508(6)
N1A N -0.4028(6) 0.0146(5) 0.9086(4)
N2A N -0.5884(6) 0.0220(5) 0.6005(4)
N3A N -0.3670(6) 0.3334(6) 0.9690(4)
C2A C -0.3741(7) 0.1152(7) 0.9268(5)
H2A H -0.3944 0.1432 0.8906
C3A C -0.2891(8) 0.1366(8) 1.0483(5)
H3A H -0.2511 0.1772 1.0955
C5A C -0.2824(8) 0.2956(7) 1.0121(5)
H4A H -0.2019 0.3119 1.0021
H5A H -0.2803 0.3299 1.0637
C8A C -0.3753(8) -0.0280(7) 0.9604(5)
H10A H -0.3948 -0.0983 0.9487
C11A C -0.3177(8) 0.0330(8) 1.0318(5)
H14A H -0.2991 0.0034 1.0674
C15A C -0.3160(8) 0.1824(8) 0.9956(5)
C18A C -0.6059(7) 0.1391(7) 0.5090(5)
H23A H -0.6098 0.1778 0.4781
C19A C -0.5490(7) 0.1830(7) 0.5818(5)
C20A C -0.5416(7) 0.1227(6) 0.6253(5)
H24A H -0.5027 0.1527 0.6739
C21A C -0.6460(7) -0.0205(7) 0.5309(5)
H25A H -0.6795 -0.0898 0.5136
O3A O -0.5873(5) 0.3821(5) 0.8979(3)
O4A O -0.1469(5) 0.3739(5) 0.7629(3)
O6A O -0.1186(6) 0.4160(5) 0.9317(4)
N7A N -0.3997(6) 0.3270(5) 0.6751(4)
C22A C -0.0589(8) 0.3524(8) 0.8119(5)
H26A H -0.0874 0.2861 0.8155
H27A H 0.0157 0.3501 0.7928
C23A C -0.5016(8) 0.2974(7) 0.6145(5)
H28A H -0.5668 0.3304 0.6314
H29A H -0.4772 0.3222 0.5763
C25A C -0.1941(8) 0.2855(7) 0.6985(5)
H30A H -0.1288 0.2644 0.6737
H31A H -0.2313 0.2296 0.7126
C26A C -0.3926(8) 0.4319(6) 0.7245(5)
H32A H -0.3095 0.4601 0.7494
H33A H -0.4160 0.4735 0.6956
C28A C -0.6574(7) 0.0352(7) 0.4835(5)
H36A H -0.6987 0.0039 0.4355
C29A C -0.0349(8) 0.4313(7) 0.8859(5)
H37A H -0.0358 0.4973 0.8802
H38A H 0.0458 0.4329 0.9104
C32A C -0.2367(8) 0.4283(8) 0.9076(5)
H43A H -0.2316 0.4903 0.8953
H44A H -0.2743 0.3716 0.8637
C33A C -0.4826(7) 0.3345(8) 0.9951(5)
H45A H -0.4921 0.2860 1.0210
H46A H -0.4804 0.4017 1.0295
C35A C -0.2870(8) 0.3116(7) 0.6477(5)
H48A H -0.3062 0.2571 0.6008
H49A H -0.2514 0.3732 0.6396
C36A C -0.3148(8) 0.4337(8) 0.9649(5)
H50A H -0.3804 0.4676 0.9548
H51A H -0.2667 0.4752 1.0123
C39A C -0.5898(8) 0.3090(7) 0.9347(5)
H55A H -0.6632 0.3055 0.9549
H56A H -0.5914 0.2424 0.8996
O8A O -0.5961(5) 0.4174(5) 0.7475(3)
C42A C -0.4727(7) 0.4369(7) 0.7810(5)
H59A H -0.4522 0.5038 0.8182
H60A H -0.4594 0.3869 0.8046
C44A C -0.6755(8) 0.4333(8) 0.7991(5)
H63A H -0.6475 0.5009 0.8351
H64A H -0.7555 0.4315 0.7738
C47A C -0.6850(8) 0.3558(8) 0.8388(5)
H69A H -0.6849 0.2888 0.8049
H70A H -0.7605 0.3532 0.8569
Cu3A_2 Cu 1.32708(9) -0.20143(8) -0.27721(6)
N4A_2 N -0.8311(6) -0.2906(6) 0.7251(4)
loop_
_geom_bond_atom_site_label_1
_geom_bond_atom_site_label_2
_geom_bond_site_symmetry_1
_geom_bond_site_symmetry_2
I1 Cu1 1_555 1_555
I2 Cu2 1_555 1_555
I3 Cu1 1_555 1_555
I4 Cu1 1_555 1_555
Cu1 N2 1_555 1_555
Cu2 I1 1_555 1_555
Cu3 I1 1_555 1_555
Cu4 I2 1_555 1_555
O1 C10 1_555 1_555
N1 Cu4 1_555 1_555
O2 C13 1_555 1_555
N2 C20 1_555 1_555
N3 C5 1_555 1_555
N4 Cu3 1_555 1_555
N5 C6 1_555 1_555
N6 Cu2 1_555 1_555
C1 H1 1_555 1_555
C2 N1 1_555 1_555
H2 C2 1_555 1_555
C3 H3 1_555 1_555
C4 C1 1_555 1_555
C5 H4 1_555 1_555
H5 C5 1_555 1_555
C6 H6 1_555 1_555
H7 C6 1_555 1_555
C7 N5 1_555 1_555
H8 C7 1_555 1_555
H9 C7 1_555 1_555
C8 N1 1_555 1_555
H10 C8 1_555 1_555
C9 C1 1_555 1_555
H11 C9 1_555 1_555
C10 H12 1_555 1_555
H13 C10 1_555 1_555
C11 C3 1_555 1_555
H14 C11 1_555 1_555
C12 O1 1_555 1_555
H15 C12 1_555 1_555
H16 C12 1_555 1_555
C13 C10 1_555 1_555
H17 C13 1_555 1_555
H18 C13 1_555 1_555
C14 N6 1_555 1_555
H19 C14 1_555 1_555
C15 C2 1_555 1_555
C16 N5 1_555 1_555
H20 C16 1_555 1_555
H21 C16 1_555 1_555
C17 N6 1_555 1_555
H22 C17 1_555 1_555
C18 H23 1_555 1_555
C19 C18 1_555 1_555
C20 C19 1_555 1_555
H24 C20 1_555 1_555
C21 N2 1_555 1_555
H25 C21 1_555 1_555
O3 C39 1_555 1_555
O4 C22 1_555 1_555
O5 C27 1_555 1_555
O6 C29 1_555 1_555
N7 C23 1_555 1_555
C22 H26 1_555 1_555
H27 C22 1_555 1_555
C23 C19 1_555 1_555
H28 C23 1_555 1_555
H29 C23 1_555 1_555
C24 C34 1_555 1_555
C25 O4 1_555 1_555
H30 C25 1_555 1_555
H31 C25 1_555 1_555
C26 N7 1_555 1_555
H32 C26 1_555 1_555
H33 C26 1_555 1_555
C27 H34 1_555 1_555
H35 C27 1_555 1_555
C28 C18 1_555 1_555
H36 C28 1_555 1_555
C29 C22 1_555 1_555
H37 C29 1_555 1_555
H38 C29 1_555 1_555
C30 C27 1_555 1_555
H39 C30 1_555 1_555
H40 C30 1_555 1_555
C31 O5 1_555 1_555
H41 C31 1_555 1_555
H42 C31 1_555 1_555
C32 O6 1_555 1_555
H43 C32 1_555 1_555
H44 C32 1_555 1_555
C33 N3 1_555 1_555
H45 C33 1_555 1_555
H46 C33 1_555 1_555
C34 N4 1_555 1_555
H47 C34 1_555 1_555
C35 N7 1_555 1_555
H48 C35 1_555 1_555
H49 C35 1_555 1_555
C36 N3 1_555 1_555
H50 C36 1_555 1_555
H51 C36 1_555 1_555
C37 C24 1_555 1_555
H52 C37 1_555 1_555
C38 O2 1_555 1_555
H53 C38 1_555 1_555
H54 C38 1_555 1_555
C39 C33 1_555 1_555
H55 C39 1_555 1_555
H56 C39 1_555 1_555
C40 C37 1_555 1_555
H57 C40 1_555 1_555
C41 N4 1_555 1_555
H58 C41 1_555 1_555
O7 C45 1_555 1_555
O8 C42 1_555 1_555
N8 C30 1_555 1_555
C42 C26 1_555 1_555
H59 C42 1_555 1_555
H60 C42 1_555 1_555
C43 N8 1_555 1_555
H61 C43 1_555 1_555
H62 C43 1_555 1_555
C44 O8 1_555 1_555
H63 C44 1_555 1_555
H64 C44 1_555 1_555
C45 C31 1_555 1_555
H65 C45 1_555 1_555
H66 C45 1_555 1_555
C46 O7 1_555 1_555
H67 C46 1_555 1_555
H68 C46 1_555 1_555
C47 O3 1_555 1_555
H69 C47 1_555 1_555
H70 C47 1_555 1_555
C48 C24 1_555 1_555
H71 C48 1_555 1_555
H72 C48 1_555 1_555
O1A C10A 1_555 1_555
O2A C13A 1_555 1_555
N5A C6A 1_555 1_555
N6A C14A 1_555 1_555
C1A H1A 1_555 1_555
C4A C1A 1_555 1_555
C6A H6A 1_555 1_555
H7A C6A 1_555 1_555
C7A N5A 1_555 1_555
H8A C7A 1_555 1_555
H9A C7A 1_555 1_555
C9A C1A 1_555 1_555
H11A C9A 1_555 1_555
C10A H12A 1_555 1_555
H13A C10A 1_555 1_555
C12A O1A 1_555 1_555
H15A C12A 1_555 1_555
H16A C12A 1_555 1_555
C13A C10A 1_555 1_555
H17A C13A 1_555 1_555
H18A C13A 1_555 1_555
C14A C4A 1_555 1_555
H19A C14A 1_555 1_555
C16A C38 1_555 1_555
H20A C16A 1_555 1_555
H21A C16A 1_555 1_555
C17A N6A 1_555 1_555
H22A C17A 1_555 1_555
C38A C16 1_555 1_555
H53A C38A 1_555 1_555
H54A C38A 1_555 1_555
N4A C34A 1_555 1_555
O5A C27A 1_555 1_555
C24A C34A 1_555 1_555
C27A H34A 1_555 1_555
H35A C27A 1_555 1_555
C30A C27A 1_555 1_555
H39A C30A 1_555 1_555
H40A C30A 1_555 1_555
C31A O5A 1_555 1_555
H41A C31A 1_555 1_555
H42A C31A 1_555 1_555
C34A H47A 1_555 1_555
C37A C24A 1_555 1_555
H52A C37A 1_555 1_555
C40A C37A 1_555 1_555
H57A C40A 1_555 1_555
C41A N4A 1_555 1_555
H58A C41A 1_555 1_555
O7A C45A 1_555 1_555
N8A C30A 1_555 1_555
C43A C46 1_555 1_555
H61A C43A 1_555 1_555
H62A C43A 1_555 1_555
C45A C31A 1_555 1_555
H65A C45A 1_555 1_555
H66A C45A 1_555 1_555
C46A C43 1_555 1_555
H67A C46A 1_555 1_555
H68A C46A 1_555 1_555
C48A C24A 1_555 1_555
H71A C48A 1_555 1_555
H72A C48A 1_555 1_555
I1A Cu1A 1_555 1_555
I2A Cu2A 1_555 1_555
I3A Cu1A 1_555 1_555
I4A Cu1A 1_555 1_555
Cu1A N2A 1_555 1_555
Cu2A N6A 1_555 1_555
Cu3A I1A 1_555 1_555
Cu4A I2A 1_555 1_555
N1A Cu4A 1_555 1_555
N2A C20A 1_555 1_555
N3A C5A 1_555 1_555
C2A N1A 1_555 1_555
H2A C2A 1_555 1_555
C3A H3A 1_555 1_555
C5A H4A 1_555 1_555
H5A C5A 1_555 1_555
C8A N1A 1_555 1_555
H10A C8A 1_555 1_555
C11A C3A 1_555 1_555
H14A C11A 1_555 1_555
C15A C2A 1_555 1_555
C18A H23A 1_555 1_555
C19A C18A 1_555 1_555
C20A C19A 1_555 1_555
H24A C20A 1_555 1_555
C21A N2A 1_555 1_555
H25A C21A 1_555 1_555
O3A C39A 1_555 1_555
O4A C22A 1_555 1_555
O6A C29A 1_555 1_555
N7A C23A 1_555 1_555
C22A H26A 1_555 1_555
H27A C22A 1_555 1_555
C23A C19A 1_555 1_555
H28A C23A 1_555 1_555
H29A C23A 1_555 1_555
C25A O4A 1_555 1_555
H30A C25A 1_555 1_555
H31A C25A 1_555 1_555
C26A N7A 1_555 1_555
H32A C26A 1_555 1_555
H33A C26A 1_555 1_555
C28A C18A 1_555 1_555
H36A C28A 1_555 1_555
C29A C22A 1_555 1_555
H37A C29A 1_555 1_555
H38A C29A 1_555 1_555
C32A O6A 1_555 1_555
H43A C32A 1_555 1_555
H44A C32A 1_555 1_555
C33A N3A 1_555 1_555
H45A C33A 1_555 1_555
H46A C33A 1_555 1_555
C35A N7A 1_555 1_555
H48A C35A 1_555 1_555
H49A C35A 1_555 1_555
C36A N3A 1_555 1_555
H50A C36A 1_555 1_555
H51A C36A 1_555 1_555
C39A C33A 1_555 1_555
H55A C39A 1_555 1_555
H56A C39A 1_555 1_555
O8A C42A 1_555 1_555
C42A C26A 1_555 1_555
H59A C42A 1_555 1_555
H60A C42A 1_555 1_555
C44A O8A 1_555 1_555
H63A C44A 1_555 1_555
H64A C44A 1_555 1_555
C47A O3A 1_555 1_555
H69A C47A 1_555 1_555
H70A C47A 1_555 1_555
Cu3A_2 N4A 1_555 1_555
N4A_2 Cu3A 1_555 1_555
I2 Cu3 1_555 1_555
I3 Cu2 1_555 1_555
I3 Cu4 1_555 1_555
I4 Cu3 1_555 1_555
I4 Cu4 1_555 1_555
C3 C15 1_555 1_555
C4 C7 1_555 1_555
C4 C14 1_555 1_555
C5 C15 1_555 1_555
C6 C12 1_555 1_555
C8 C11 1_555 1_555
C9 C17 1_555 1_555
C21 C28 1_555 1_555
C25 C35 1_555 1_555
C32 C36 1_555 1_555
C40 C41 1_555 1_555
N8 C48 1_555 1_555
C44 C47 1_555 1_555
O2A C38A 1_555 1_555
N5A C16A 1_555 1_555
C4A C7A 1_555 1_555
C6A C12A 1_555 1_555
C9A C17A 1_555 1_555
C40A C41A 1_555 1_555
O7A C46A 1_555 1_555
N8A C43A 1_555 1_555
N8A C48A 1_555 1_555
I1A Cu2A 1_555 1_555
I2A Cu3A 1_555 1_555
I3A Cu2A 1_555 1_555
I3A Cu4A 1_555 1_555
I4A Cu3A 1_555 1_555
I4A Cu4A 1_555 1_555
C3A C15A 1_555 1_555
C5A C15A 1_555 1_555
C8A C11A 1_555 1_555
C21A C28A 1_555 1_555
C25A C35A 1_555 1_555
C32A C36A 1_555 1_555
C44A C47A 1_555 1_555

#END
