
#######################################################################
#
#                 Cambridge Crystallographic Data Centre
#                                CCDC 
#
#######################################################################
#
# If this CIF has been generated from an entry in the Cambridge 
# Structural Database, then it will include bibliographic, chemical, 
# crystal, experimental, refinement or atomic coordinate data resulting 
# from the CCDC's data processing and validation procedures.
#
#######################################################################

data_BIFHAB
_symmetry_cell_setting           triclinic
_symmetry_space_group_name_H-M   'P -1'
_symmetry_Int_Tables_number      2
_space_group_name_Hall           '-P 1'
loop_
_symmetry_equiv_pos_site_id
_symmetry_equiv_pos_as_xyz
1 x,y,z
2 -x,-y,-z
_cell_length_a                   13.4834(7)
_cell_length_b                   16.9513(10)
_cell_length_c                   19.4949(12)
_cell_angle_alpha                68.035(2)
_cell_angle_beta                 73.558(2)
_cell_angle_gamma                71.645(2)
_cell_volume                     3852.36
loop_
_atom_site_label
_atom_site_type_symbol
_atom_site_fract_x
_atom_site_fract_y
_atom_site_fract_z
I1 I 0.49211(6) 0.39746(4) 0.31941(4)
I2 I 0.16788(5) 0.39763(4) 0.45501(4)
I3 I 0.29923(6) 0.25249(5) 0.28205(4)
I4 I 0.41632(5) 0.14869(4) 0.50188(4)
Cu1 Cu 0.30086(12) 0.38605(9) 0.32470(9)
Cu2 Cu 0.37700(10) 0.32219(8) 0.45451(8)
Cu3 Cu 0.44882(10) 0.23905(8) 0.35480(8)
Cu4 Cu 0.25356(10) 0.24217(8) 0.42910(8)
N1 N 0.4046(6) 0.3654(5) 0.5305(5)
N2 N 0.7820(9) 0.5115(6) -0.2512(6)
C1 C 0.5986(9) 0.0798(7) 0.3234(6)
H1 H 0.5515 0.0510 0.3625
C2 C 0.4580(8) 0.3418(7) 0.6463(6)
N3 N 1.1329(6) 0.1797(5) 0.4759(5)
C3 C 0.7361(9) 0.1633(7) 0.2074(6)
C4 C 0.4470(8) 0.3115(7) 0.5920(6)
H2 H 0.4697 0.2519 0.5983
C5 C 0.6478(9) 0.2068(7) 0.2471(6)
H3 H 0.6351 0.2674 0.2331
N4 N 0.6262(7) 0.2614(6) 0.6956(5)
H4 H 0.6520 0.2520 0.6502
C6 C 1.0758(8) 0.1732(6) 0.4331(6)
H5 H 1.0988 0.1914 0.3811
C7 C 0.5055(9) 0.2784(7) 0.7105(6)
H6 H 0.4858 0.2235 0.7234
H7 H 0.4763 0.2997 0.7536
C8 C 1.0113(8) 0.1148(7) 0.5840(6)
H8 H 0.9920 0.0942 0.6362
C9 C 0.9522(8) 0.1118(7) 0.5389(6)
H9 H 0.8910 0.0905 0.5598
C10 C 0.6588(10) 0.3397(7) 0.6922(7)
H10 H 0.6499 0.3404 0.7431
H11 H 0.6115 0.3921 0.6663
C11 C 1.1020(8) 0.1495(7) 0.5501(7)
H12 H 1.1420 0.1515 0.5810
C12 C 0.7551(10) 0.0734(9) 0.2295(7)
H13 H 0.8146 0.0412 0.2054
O1 O 0.8322(6) 0.3275(4) 0.4453(4)
N5 N 0.8133(6) 0.1793(6) 0.4206(5)
C13 C 0.9269(8) 0.1374(7) 0.4068(7)
H14 H 0.9584 0.1660 0.3555
H15 H 0.9351 0.0766 0.4118
C14 C 0.8484(8) 0.3277(7) 0.3693(6)
H16 H 0.9236 0.3079 0.3507
H17 H 0.8235 0.3866 0.3372
C15 C 0.9853(8) 0.1414(6) 0.4606(6)
C16 C 0.7881(9) 0.2678(7) 0.3676(7)
H18 H 0.7124 0.2928 0.3794
H19 H 0.8039 0.2640 0.3170
C17 C 0.6742(11) 0.1816(8) 0.7547(7)
H20 H 0.7509 0.1736 0.7429
H21 H 0.6490 0.1917 0.8031
C18 C 0.3784(9) 0.4866(7) 0.5732(7)
H22 H 0.3532 0.5463 0.5663
C19 C 0.6845(10) 0.0317(8) 0.2879(7)
H23 H 0.6955 -0.0288 0.3029
C20 C 0.6480(14) 0.0989(8) 0.7607(8)
H24 H 0.6806 0.0501 0.7995
H25 H 0.5716 0.1050 0.7744
O2 O 0.6960(6) 0.0714(4) 0.5536(4)
O3 O 0.6850(8) 0.0830(5) 0.6932(5)
O4 O 0.8761(9) 0.5230(6) -0.0642(6)
O5 O 0.9838(8) 0.1719(7) -0.0112(6)
N6 N 0.7857(9) 0.2437(8) 0.0682(6)
H26 H 0.8295 0.2791 0.0369
C21 C 0.6952(11) -0.0023(7) 0.6183(7)
H27 H 0.7677 -0.0323 0.6251
H28 H 0.6632 -0.0424 0.6121
C22 C 0.7462(8) 0.1266(8) 0.4206(7)
H29 H 0.7725 0.1090 0.3756
H30 H 0.6747 0.1629 0.4180
C23 C 0.8844(9) 0.3829(7) 0.4529(7)
H31 H 0.8476 0.4435 0.4334
H32 H 0.9567 0.3750 0.4247
C24 C 0.9502(11) 0.4465(9) -0.2097(7)
C25 C 0.7408(8) 0.0470(7) 0.4872(6)
H33 H 0.6975 0.0143 0.4818
H34 H 0.8117 0.0097 0.4906
C26 C 0.8850(9) 0.3602(7) 0.5347(7)
H35 H 0.9278 0.3014 0.5528
H36 H 0.9159 0.4004 0.5420
C27 C 0.7728(9) 0.3428(8) 0.6526(7)
H37 H 0.7946 0.3855 0.6637
H38 H 0.8200 0.2860 0.6702
C28 C 0.9141(13) 0.3710(9) -0.1643(8)
H39 H 0.9577 0.3236 -0.1351
C29 C 0.8130(13) 0.3681(9) -0.1637(7)
H40 H 0.7886 0.3177 -0.1352
C30 C 0.6345(11) 0.0239(7) 0.6857(7)
H41 H 0.5614 0.0527 0.6800
H42 H 0.6346 -0.0272 0.7302
N7 N 1.0785(10) 0.4390(9) -0.1382(7)
C31 C 0.9164(13) 0.1183(10) 0.0316(9)
H43 H 0.9334 0.0892 0.0816
H44 H 0.9252 0.0738 0.0089
C32 C 0.8109(10) 0.2148(9) 0.1461(7)
H45 H 0.8080 0.2661 0.1581
H46 H 0.8830 0.1790 0.1456
C33 C 0.8833(10) 0.5119(9) -0.2527(7)
H47 H 0.9087 0.5605 -0.2855
C34 C 0.9486(16) 0.5715(11) -0.1197(12)
H48 H 0.9426 0.6242 -0.1086
H49 H 0.9310 0.5886 -0.1690
C35 C 0.6743(12) 0.2951(13) 0.0608(9)
H50 H 0.6250 0.2622 0.0982
H51 H 0.6630 0.3028 0.0115
C36 C 0.7681(14) 0.5651(10) -0.0674(9)
H52 H 0.7532 0.5689 -0.1145
H53 H 0.7545 0.6242 -0.0658
C37 C 0.8065(13) 0.1697(10) 0.0369(8)
H54 H 0.7600 0.1311 0.0687
H55 H 0.7886 0.1937 -0.0129
C38 C 0.6504(13) 0.3845(13) 0.0707(11)
H56 H 0.5749 0.4120 0.0747
H57 H 0.6734 0.3801 0.1151
O6 O 0.7783(5) 0.3658(5) 0.5759(4)
O7 O 0.7099(10) 0.4319(8) 0.0041(7)
O8 O 1.1448(12) 0.2580(10) -0.0531(13)
C39 C 1.1903(14) 0.3894(14) -0.1299(10)
H58 H 1.2386 0.4172 -0.1730
H59 H 1.2045 0.3935 -0.0854
C40 C 1.0578(15) 0.5180(12) -0.1201(10)
H60 H 1.1057 0.5533 -0.1561
H61 H 1.0744 0.5026 -0.0707
C41 C 1.1558(19) 0.181(2) -0.0696(17)
H62 H 1.1339 0.1960 -0.1171
H63 H 1.2301 0.1494 -0.0747
N8 N 0.5795(7) 0.1676(6) 0.3042(5)
C42 C 0.4222(9) 0.4315(7) 0.6355(7)
H64 H 0.4279 0.4544 0.6704
C43 C 0.3726(8) 0.4517(6) 0.5213(7)
H65 H 0.3456 0.4892 0.4784
C44 C 0.7478(11) 0.4398(7) -0.2053(7)
H66 H 0.6780 0.4384 -0.2014
C45 C 1.0589(13) 0.4544(12) -0.2129(9)
H67 H 1.1116 0.4125 -0.2354
H68 H 1.0670 0.5125 -0.2448
C46 C 0.6947(16) 0.5157(11) -0.0021(14)
H69 H 0.7042 0.5186 0.0444
H70 H 0.6217 0.5452 -0.0076
C47 C 1.0962(14) 0.1277(11) -0.0144(11)
H71 H 1.1156 0.1141 0.0337
H72 H 1.1094 0.0732 -0.0248
C48 C 1.2106(19) 0.3070(16) -0.124(2)
H73 H 1.2856 0.2808 -0.1233
H74 H 1.1950 0.3019 -0.1678
Cu1A Cu 0.69914(12) 0.61395(9) -0.32470(9)
Cu4_2 Cu 1.25356(10) 0.24217(8) 0.42910(8)
N2A N 0.2180(9) 0.4885(6) 0.2512(6)
N3_2 N 0.1329(6) 0.1797(5) 0.4759(5)
O9 O 0.6833(6) 0.2413(4) 0.5583(4)
H75 H 0.7387 0.2745 0.5265
H76 H 0.6876 0.1784 0.5671
O10 O 0.9344(7) 0.3416(6) 0.0150(6)
H77 H 0.9021 0.4037 0.0072
H78 H 1.0028 0.3044 0.0114
I5 I 0.9687(2) 0.12512(16) 0.80574(15)
I6 I 0.9259(2) -0.02464(16) 0.79413(14)
I7 I 0.8711(3) -0.1723(2) 0.79465(18)
Cl1 Cl 0.4909(6) 0.7187(7) 0.0793(5)
O11 O 0.529(3) 0.703(3) 0.007(2)
O12 O 0.5253(18) 0.7871(19) 0.0834(13)
O13 O 0.5271(13) 0.6340(14) 0.1431(11)
O14 O 0.373(6) 0.739(5) 0.099(4)
O15 O 0.3640(12) 0.1317(10) 0.7589(9)
C49 C 0.286(2) 0.1881(18) 0.7242(15)
O16 O 0.3598(14) -0.0238(12) 0.8826(10)
C50 C 0.463(3) -0.098(2) 0.8680(18)
O17 O 0.3160(18) -0.0414(15) 1.0322(13)
C51? C 1.1831(16) 0.3155(10) -0.040(3)
H79? H 1.2523 0.2892 -0.0254
H80? H 1.1341 0.3412 -0.0025
O18? O 1.0550(16) 0.0838(13) 0.8405(11)
O19? O 0.9618(19) 0.1795(15) 0.7477(13)
O20? O 0.8642(18) 0.1283(15) 0.8722(13)
O21? O 0.724(2) -0.1716(19) 0.8942(16)
O22? O 0.951(2) 0.0498(18) 0.7941(15)
O23? O 0.976(3) -0.186(2) 0.7918(18)
C52? C 0.824(3) -0.233(3) 0.920(2)
Cl2? Cl 0.957(2) 0.117(2) 0.8181(15)
O24? O 0.386(2) 0.729(2) 0.098(2)
Cl3? Cl 0.4897(7) 0.6675(9) 0.0911(5)
O25? O 0.473(3) 0.594(2) 0.071(2)
O26? O 0.562(4) 0.708(3) 0.029(3)
O27? O 0.1624(16) 0.2452(13) 0.7398(11)
C53? C 0.158(2) 0.2913(18) 0.6650(16)
loop_
_geom_bond_atom_site_label_1
_geom_bond_atom_site_label_2
_geom_bond_site_symmetry_1
_geom_bond_site_symmetry_2
I1 Cu1 1_555 1_555
I2 Cu1 1_555 1_555
I3 Cu1 1_555 1_555
I4 Cu2 1_555 1_555
Cu1 N2A 1_555 1_555
Cu2 I1 1_555 1_555
Cu3 I1 1_555 1_555
Cu4 I2 1_555 1_555
N1 Cu2 1_555 1_555
N2 C33 1_555 1_555
C1 H1 1_555 1_555
C2 C4 1_555 1_555
N3 C6 1_555 1_555
C3 C5 1_555 1_555
C4 N1 1_555 1_555
H2 C4 1_555 1_555
C5 H3 1_555 1_555
N4 H4 1_555 1_555
C6 H5 1_555 1_555
C7 C2 1_555 1_555
H6 C7 1_555 1_555
H7 C7 1_555 1_555
C8 H8 1_555 1_555
C9 C8 1_555 1_555
H9 C9 1_555 1_555
C10 N4 1_555 1_555
H10 C10 1_555 1_555
H11 C10 1_555 1_555
C11 N3 1_555 1_555
H12 C11 1_555 1_555
C12 C3 1_555 1_555
H13 C12 1_555 1_555
O1 C14 1_555 1_555
N5 C13 1_555 1_555
C13 H14 1_555 1_555
H15 C13 1_555 1_555
C14 H16 1_555 1_555
H17 C14 1_555 1_555
C15 C6 1_555 1_555
C16 N5 1_555 1_555
H18 C16 1_555 1_555
H19 C16 1_555 1_555
C17 N4 1_555 1_555
H20 C17 1_555 1_555
H21 C17 1_555 1_555
C18 H22 1_555 1_555
C19 C1 1_555 1_555
H23 C19 1_555 1_555
C20 C17 1_555 1_555
H24 C20 1_555 1_555
H25 C20 1_555 1_555
O2 C21 1_555 1_555
O3 C20 1_555 1_555
O4 C34 1_555 1_555
O5 C31 1_555 1_555
N6 H26 1_555 1_555
C21 H27 1_555 1_555
H28 C21 1_555 1_555
C22 N5 1_555 1_555
H29 C22 1_555 1_555
H30 C22 1_555 1_555
C23 O1 1_555 1_555
H31 C23 1_555 1_555
H32 C23 1_555 1_555
C24 C28 1_555 1_555
C25 O2 1_555 1_555
H33 C25 1_555 1_555
H34 C25 1_555 1_555
C26 C23 1_555 1_555
H35 C26 1_555 1_555
H36 C26 1_555 1_555
C27 C10 1_555 1_555
H37 C27 1_555 1_555
H38 C27 1_555 1_555
C28 H39 1_555 1_555
C29 C28 1_555 1_555
H40 C29 1_555 1_555
C30 O3 1_555 1_555
H41 C30 1_555 1_555
H42 C30 1_555 1_555
N7 C39 1_555 1_555
C31 H43 1_555 1_555
H44 C31 1_555 1_555
C32 C3 1_555 1_555
H45 C32 1_555 1_555
H46 C32 1_555 1_555
C33 C24 1_555 1_555
H47 C33 1_555 1_555
C34 H48 1_555 1_555
H49 C34 1_555 1_555
C35 N6 1_555 1_555
H50 C35 1_555 1_555
H51 C35 1_555 1_555
C36 O4 1_555 1_555
H52 C36 1_555 1_555
H53 C36 1_555 1_555
C37 N6 1_555 1_555
H54 C37 1_555 1_555
H55 C37 1_555 1_555
C38 C35 1_555 1_555
H56 C38 1_555 1_555
H57 C38 1_555 1_555
O6 C26 1_555 1_555
O7 C38 1_555 1_555
O8 C41 1_555 1_555
C39 H58 1_555 1_555
H59 C39 1_555 1_555
C40 N7 1_555 1_555
H60 C40 1_555 1_555
H61 C40 1_555 1_555
C41 H62 1_555 1_555
H63 C41 1_555 1_555
N8 Cu3 1_555 1_555
C42 C2 1_555 1_555
H64 C42 1_555 1_555
C43 N1 1_555 1_555
H65 C43 1_555 1_555
C44 N2 1_555 1_555
H66 C44 1_555 1_555
C45 C24 1_555 1_555
H67 C45 1_555 1_555
H68 C45 1_555 1_555
C46 C36 1_555 1_555
H69 C46 1_555 1_555
H70 C46 1_555 1_555
C47 O5 1_555 1_555
H71 C47 1_555 1_555
H72 C47 1_555 1_555
C48 O8 1_555 1_555
H73 C48 1_555 1_555
H74 C48 1_555 1_555
O9 H75 1_555 1_555
H76 O9 1_555 1_555
O10 H77 1_555 1_555
H78 O10 1_555 1_555
I5 I6 1_555 1_555
I6 I7 1_555 1_555
Cl1 O11 1_555 1_555
O12 Cl1 1_555 1_555
O13 Cl1 1_555 1_555
O14 Cl1 1_555 1_555
O15 C49 1_555 1_555
O16 C50 1_555 1_555
Cu1A N2 1_555 1_555
Cu4_2 N3 1_555 1_555
N3_2 Cu4 1_555 1_555
I2 Cu2 1_555 1_555
I3 Cu3 1_555 1_555
I3 Cu4 1_555 1_555
I4 Cu3 1_555 1_555
I4 Cu4 1_555 1_555
C1 N8 1_555 1_555
C5 N8 1_555 1_555
N4 C7 1_555 1_555
C8 C11 1_555 1_555
C9 C15 1_555 1_555
C12 C19 1_555 1_555
C13 C15 1_555 1_555
C14 C16 1_555 1_555
C18 C42 1_555 1_555
C18 C43 1_555 1_555
N6 C32 1_555 1_555
C21 C30 1_555 1_555
C22 C25 1_555 1_555
C27 O6 1_555 1_555
C29 C44 1_555 1_555
N7 C45 1_555 1_555
C31 C37 1_555 1_555
C34 C40 1_555 1_555
O7 C46 1_555 1_555
C39 C48 1_555 1_555
C41 C47 1_555 1_555

#END
