
#######################################################################
#
#                 Cambridge Crystallographic Data Centre
#                                CCDC 
#
#######################################################################
#
# If this CIF has been generated from an entry in the Cambridge 
# Structural Database, then it will include bibliographic, chemical, 
# crystal, experimental, refinement or atomic coordinate data resulting 
# from the CCDC's data processing and validation procedures.
#
#######################################################################

data_BIFHEF
_symmetry_cell_setting           triclinic
_symmetry_space_group_name_H-M   'P -1'
_symmetry_Int_Tables_number      2
_space_group_name_Hall           '-P 1'
loop_
_symmetry_equiv_pos_site_id
_symmetry_equiv_pos_as_xyz
1 x,y,z
2 -x,-y,-z
_cell_length_a                   8.4710(17)
_cell_length_b                   8.8950(18)
_cell_length_c                   12.919(3)
_cell_angle_alpha                107.31(3)
_cell_angle_beta                 91.80(3)
_cell_angle_gamma                96.29(3)
_cell_volume                     921.654
loop_
_atom_site_label
_atom_site_type_symbol
_atom_site_fract_x
_atom_site_fract_y
_atom_site_fract_z
I1 I 0.18522(3) 0.71502(3) 0.57663(2)
I2 I 0.67192(3) 0.82879(3) 0.51554(2)
I3 I 0.43499(3) 1.07396(3) 0.80373(2)
Cu1 Cu 0.47770(7) 0.78436(6) 0.66975(4)
Cu2 Cu 0.39283(7) 0.97108(7) 0.57850(5)
N1 N 0.5811(4) 0.6683(4) 0.7575(3)
C1 C 0.5759(5) 0.7148(5) 0.8664(3)
H1 H 0.5310 0.8093 0.8999
C2 C 0.6494(4) 0.5355(5) 0.7118(3)
H2 H 0.6563 0.5023 0.6353
N2 N 0.9483(4) 0.3044(4) 0.7589(3)
H3 H 0.9524 0.3502 0.8339
C3 C 0.7774(4) 0.2956(4) 0.7172(3)
H4 H 0.7729 0.2776 0.6377
H5 H 0.7127 0.2049 0.7312
C4 C 0.7098(4) 0.4455(4) 0.7715(3)
C5 C 0.7000(5) 0.4944(5) 0.8838(3)
H6 H 0.7388 0.4346 0.9268
O1 O 0.9511(4) 0.1799(3) 0.9227(2)
O2 O 1.1579(4) 0.5839(3) 0.8963(2)
C6 C 0.9997(5) 0.1435(5) 0.7389(3)
H7 H 1.1171 0.1528 0.7491
H8 H 0.9672 0.0781 0.6632
C7 C 0.9240(5) 0.0652(4) 0.8170(3)
H9 H 0.8084 0.0350 0.7976
H10 H 0.9730 -0.0314 0.8154
C8 C 1.0603(5) 0.4122(5) 0.7149(3)
H11 H 1.0033 0.4971 0.7023
H12 H 1.0964 0.3502 0.6446
C9 C 1.2037(5) 0.4859(5) 0.7945(3)
H13 H 1.2600 0.4006 0.8073
H14 H 1.2781 0.5508 0.7625
C10 C 0.8488(5) 0.1427(5) 0.9998(3)
H15 H 0.8642 0.0370 1.0063
H16 H 0.7362 0.1398 0.9754
C11 C 1.1122(5) 0.7321(5) 0.8914(3)
H17 H 0.9965 0.7195 0.8718
H18 H 1.1693 0.7654 0.8347
C12 C 0.6327(6) 0.6322(5) 0.9321(3)
H19 H 0.6258 0.6687 1.0086
N1A N 1.4189(4) 0.3317(4) 1.2425(3)
C1A C 1.4241(5) 0.2852(5) 1.1336(3)
H1A H 1.4690 0.1907 1.1001
C2A C 1.3506(4) 0.4645(5) 1.2882(3)
H2A H 1.3437 0.4977 1.3647
N2A N 1.0517(4) 0.6956(4) 1.2411(3)
H3A H 1.0476 0.6498 1.1661
C3A C 1.2226(4) 0.7044(4) 1.2828(3)
H4A H 1.2271 0.7224 1.3623
H5A H 1.2873 0.7951 1.2688
C4A C 1.2902(4) 0.5545(4) 1.2285(3)
C5A C 1.3000(5) 0.5056(5) 1.1162(3)
H6A H 1.2612 0.5654 1.0732
O1A O 1.0489(4) 0.8201(3) 1.0773(2)
O2A O 0.8421(4) 0.4161(3) 1.1037(2)
C6A C 1.0003(5) 0.8565(5) 1.2611(3)
H7A H 0.8829 0.8472 1.2509
H8A H 1.0328 0.9219 1.3368
C7A C 1.0760(5) 0.9348(4) 1.1830(3)
H9A H 1.1916 0.9650 1.2024
H10A H 1.0270 1.0314 1.1846
C8A C 0.9397(5) 0.5878(5) 1.2851(3)
H11A H 0.9967 0.5029 1.2977
H12A H 0.9036 0.6498 1.3554
C9A C 0.7963(5) 0.5141(5) 1.2055(3)
H13A H 0.7400 0.5994 1.1927
H14A H 0.7219 0.4492 1.2375
C10A C 1.1512(5) 0.8573(5) 1.0002(3)
H15A H 1.1358 0.9630 0.9937
H16A H 1.2638 0.8602 1.0246
C11A C 0.8878(5) 0.2679(5) 1.1086(3)
H17A H 1.0035 0.2805 1.1282
H18A H 0.8307 0.2346 1.1653
C12A C 1.3673(6) 0.3678(5) 1.0679(3)
H19A H 1.3742 0.3313 0.9914
I1A I 0.81478(3) 1.28498(3) 0.42337(2)
I2A I 0.32808(3) 1.17121(3) 0.48446(2)
I3A I 0.56501(3) 0.92604(3) 0.19627(2)
Cu1A Cu 0.52230(7) 1.21564(6) 0.33025(4)
Cu2A Cu 0.60717(7) 1.02892(7) 0.42150(5)
Cu1A_2 Cu 1.52230(7) 0.21564(6) 1.33025(4)
N1A_2 N 0.4189(4) 1.3317(4) 0.2425(3)
loop_
_geom_bond_atom_site_label_1
_geom_bond_atom_site_label_2
_geom_bond_site_symmetry_1
_geom_bond_site_symmetry_2
I1 Cu1 1_555 1_555
I2 Cu1 1_555 1_555
I3 Cu1 1_555 1_555
Cu1 N1 1_555 1_555
Cu2 I1 1_555 1_555
N1 C1 1_555 1_555
C1 H1 1_555 1_555
C2 N1 1_555 1_555
H2 C2 1_555 1_555
N2 H3 1_555 1_555
C3 N2 1_555 1_555
H4 C3 1_555 1_555
H5 C3 1_555 1_555
C4 C2 1_555 1_555
C5 C4 1_555 1_555
H6 C5 1_555 1_555
O1 C7 1_555 1_555
O2 C9 1_555 1_555
C6 N2 1_555 1_555
H7 C6 1_555 1_555
H8 C6 1_555 1_555
C7 C6 1_555 1_555
H9 C7 1_555 1_555
H10 C7 1_555 1_555
C8 N2 1_555 1_555
H11 C8 1_555 1_555
H12 C8 1_555 1_555
C9 C8 1_555 1_555
H13 C9 1_555 1_555
H14 C9 1_555 1_555
C10 O1 1_555 1_555
H15 C10 1_555 1_555
H16 C10 1_555 1_555
C11 O2 1_555 1_555
H17 C11 1_555 1_555
H18 C11 1_555 1_555
C12 C1 1_555 1_555
H19 C12 1_555 1_555
N1A C1A 1_555 1_555
C1A H1A 1_555 1_555
C2A N1A 1_555 1_555
H2A C2A 1_555 1_555
N2A H3A 1_555 1_555
C3A N2A 1_555 1_555
H4A C3A 1_555 1_555
H5A C3A 1_555 1_555
C4A C2A 1_555 1_555
C5A C4A 1_555 1_555
H6A C5A 1_555 1_555
O1A C7A 1_555 1_555
O2A C9A 1_555 1_555
C6A N2A 1_555 1_555
H7A C6A 1_555 1_555
H8A C6A 1_555 1_555
C7A C6A 1_555 1_555
H9A C7A 1_555 1_555
H10A C7A 1_555 1_555
C8A N2A 1_555 1_555
H11A C8A 1_555 1_555
H12A C8A 1_555 1_555
C9A C8A 1_555 1_555
H13A C9A 1_555 1_555
H14A C9A 1_555 1_555
C10A C11 1_555 1_555
H15A C10A 1_555 1_555
H16A C10A 1_555 1_555
C11A C10 1_555 1_555
H17A C11A 1_555 1_555
H18A C11A 1_555 1_555
C12A C1A 1_555 1_555
H19A C12A 1_555 1_555
I1A Cu1A 1_555 1_555
I2A Cu2 1_555 1_555
I3A Cu1A 1_555 1_555
Cu1A I2A 1_555 1_555
Cu2A I2 1_555 1_555
Cu1A_2 N1A 1_555 1_555
N1A_2 Cu1A 1_555 1_555
I2 Cu2 1_555 1_555
I3 Cu2 1_555 1_555
C3 C4 1_555 1_555
C5 C12 1_555 1_555
C3A C4A 1_555 1_555
C5A C12A 1_555 1_555
O1A C10A 1_555 1_555
O2A C11A 1_555 1_555
I1A Cu2A 1_555 1_555
I2A Cu2A 1_555 1_555
I3A Cu2A 1_555 1_555

#END
