
#######################################################################
#
#                 Cambridge Crystallographic Data Centre
#                                CCDC 
#
#######################################################################
#
# If this CIF has been generated from an entry in the Cambridge 
# Structural Database, then it will include bibliographic, chemical, 
# crystal, experimental, refinement or atomic coordinate data resulting 
# from the CCDC's data processing and validation procedures.
#
#######################################################################

data_BIFJUX
_symmetry_cell_setting           monoclinic
_symmetry_space_group_name_H-M   'P 21/c'
_symmetry_Int_Tables_number      14
_space_group_name_Hall           '-P 2ybc'
loop_
_symmetry_equiv_pos_site_id
_symmetry_equiv_pos_as_xyz
1 x,y,z
2 -x,1/2+y,1/2-z
3 -x,-y,-z
4 x,1/2-y,1/2+z
_cell_length_a                   24.807(4)
_cell_length_b                   13.6667(19)
_cell_length_c                   14.224(2)
_cell_angle_alpha                90
_cell_angle_beta                 100.195(9)
_cell_angle_gamma                90
_cell_volume                     4746.22
loop_
_atom_site_label
_atom_site_type_symbol
_atom_site_fract_x
_atom_site_fract_y
_atom_site_fract_z
Er1 Er 0.228620(15) 0.26781(3) 0.23007(3)
Er2 Er 0.258615(16) 0.20690(3) -0.00731(3)
Er3 Er 0.280500(14) 0.01367(3) 0.18317(2)
Er4 Er 0.136382(14) 0.10752(3) 0.10122(2)
Er5 Er 0.225879(14) 0.49882(3) 0.32142(2)
Er6 Er 0.364523(15) 0.37856(3) 0.35954(3)
O1 O 0.0730(3) 0.2268(5) 0.0171(5)
H1 H 0.044(2) 0.210(8) 0.050(5)
H2 H 0.061(3) 0.219(8) -0.0495(13)
O2 O 0.4107(7) 0.2578(9) 0.4640(11)
O3 O 0.3760(11) 0.2675(15) 0.5076(17)
O4 O 0.1884(2) 0.2418(4) 0.0716(4)
H3 H 0.1655 0.2983 0.0431
O5 O 0.2919(2) 0.1811(4) 0.1522(4)
H4 H 0.3305 0.2038 0.1721
O6 O 0.2153(2) 0.0573(4) 0.0529(4)
H5 H 0.2085 0.0043 0.0038
O7 O 0.2115(2) 0.1025(4) 0.2331(4)
H6 H 0.2014 0.0788 0.2942
O8 O 0.2019(2) 0.1573(4) -0.1417(4)
H7 H 0.1621 0.1653 -0.1392
O9 O 0.2980(2) 0.2477(4) -0.1373(4)
H8 H 0.3146 0.3145 -0.1316
O10 O 0.2848(2) 0.4023(4) 0.2462(4)
H9 H 0.2916 0.4297 0.1842
O11 O 0.2961(2) 0.4346(4) 0.4357(4)
H10 H 0.3098 0.4823 0.4877
O12 O 0.2869(3) 0.3693(4) 0.0464(4)
O13 O 0.2149(3) 0.3729(5) -0.0704(4)
O14 O 0.2844(3) 0.8755(4) 0.0756(5)
O15 O 0.2249(2) 0.8813(4) -0.0620(4)
O16 O 0.2137(2) -0.1001(4) 0.2058(4)
O17 O 0.1288(2) -0.0566(4) 0.1369(4)
O18 O 0.1778(2) -0.5760(4) 0.1793(4)
O19 O 0.1068(3) -0.5748(5) 0.0568(5)
O20 O 0.3323(3) 0.0705(5) 0.3257(4)
O21 O 0.4064(5) 0.0636(6) 0.4395(8)
O22 O 0.2914(2) -0.3974(5) 0.2922(5)
O23 O 0.3774(3) -0.4501(5) 0.3445(5)
O24 O 0.5567(5) -0.3028(9) 0.3307(9)
O25 O 0.6146(4) -0.2355(9) 0.2443(9)
O26 O 0.3597(2) 0.0161(5) 0.1181(5)
O27 O 0.4110(3) 0.0545(5) 0.0083(5)
O28 O 0.1304(2) 0.2270(4) 0.2168(4)
O29 O 0.0922(3) 0.2924(5) 0.3327(5)
O30 O -0.0923(2) -0.0412(4) 0.0370(4)
O31 O -0.1373(2) 0.0127(5) 0.1491(4)
N1 N 0.2979(4) 0.6738(7) 0.0509(6)
N2 N 0.1797(3) -0.3880(5) 0.1984(5)
N3 N 0.3309(3) -0.1143(5) 0.2935(5)
N4 N 0.5378(4) -0.1121(9) 0.1605(9)
N5 N 0.0488(3) 0.1026(5) 0.1682(5)
C1 C 0.2511(4) 0.4162(6) -0.0120(6)
C2 C 0.2536(4) 0.5253(6) -0.0092(6)
C3 C 0.2968(4) 0.5725(7) 0.0454(6)
H11 H 0.3263 0.5356 0.0799
C4 C 0.2114(4) 0.5774(6) -0.0607(6)
H12 H 0.1815 0.5443 -0.0984
C5 C 0.2551(4) 0.7256(6) -0.0013(6)
C6 C 0.2124(4) 0.6776(7) -0.0577(6)
H13 H 0.1835 0.7140 -0.0946
C7 C 0.2552(3) 0.8377(6) 0.0046(6)
C8 C 0.1655(3) -0.1191(6) 0.1669(6)
C9 C 0.1514(3) -0.2249(6) 0.1516(6)
C10 C 0.1104(4) -0.2606(7) 0.0824(6)
H14 H 0.0858 -0.2170 0.0443
C11 C 0.1050(4) -0.3616(7) 0.0686(6)
H15 H 0.0776 -0.3878 0.0199
C12 C 0.1409(3) -0.4230(6) 0.1277(6)
C13 C 0.1848(3) -0.2910(6) 0.2088(6)
H16 H 0.2126 -0.2662 0.2576
C14 C 0.1409(4) -0.5338(7) 0.1200(6)
C15 C 0.3704(5) 0.0261(8) 0.3785(8)
C16 C 0.3718(4) -0.0823(7) 0.3631(7)
C17 C 0.4079(4) -0.1453(8) 0.4183(7)
H17 H 0.4368 -0.1208 0.4654
C18 C 0.4010(4) -0.2462(7) 0.4032(7)
H18 H 0.4257 -0.2912 0.4389
C19 C 0.3584(4) -0.2793(6) 0.3368(6)
C20 C 0.3243(3) -0.2103(6) 0.2826(6)
H19 H 0.2949 -0.2335 0.2357
C21 C 0.3417(4) -0.3843(7) 0.3227(6)
C22 C 0.5686(6) -0.2472(12) 0.2674(11)
C23 C 0.5223(6) -0.1876(11) 0.2115(10)
C24 C 0.4681(5) -0.2138(11) 0.2058(10)
H20 H 0.4585 -0.2739 0.2320
C25 C 0.4283(5) -0.1508(9) 0.1612(8)
H21 H 0.3906 -0.1670 0.1559
C26 C 0.4439(4) -0.0631(8) 0.1239(7)
C27 C 0.4994(4) -0.0502(8) 0.1219(8)
H22 H 0.5102 0.0064 0.0911
C28 C 0.4016(4) 0.0093(7) 0.0803(7)
C29 C 0.0921(4) 0.2372(7) 0.2628(6)
C30 C 0.0418(4) 0.1760(7) 0.2280(6)
C31 C -0.0076(4) 0.1980(8) 0.2542(7)
H23 H -0.0107 0.2499 0.2973
C32 C -0.0531(4) 0.1421(7) 0.2157(7)
H24 H -0.0879 0.1561 0.2315
C33 C -0.0471(3) 0.0661(7) 0.1542(6)
C34 C 0.0047(3) 0.0482(6) 0.1332(5)
H25 H 0.0091 -0.0050 0.0923
C35 C -0.0964(3) 0.0079(6) 0.1103(6)
O32 O 0.3852(8) 0.4289(19) 0.1921(13)
Er1_2 Er 0.228620(15) -0.73219(3) 0.23007(3)
Er1C Er 0.228620(15) 0.23219(3) -0.26993(3)
Er2C Er 0.258615(16) 0.29310(3) 0.49269(3)
Er3_2 Er 0.280500(14) 1.01367(3) 0.18317(2)
Er4B Er -0.136382(14) -0.10752(3) -0.10122(2)
Er5_2 Er 0.225879(14) -0.50118(3) 0.32142(2)
Er5A Er -0.225879(14) -0.00118(3) 0.17858(2)
Er5C Er 0.225879(14) 0.00118(3) -0.17858(2)
Er5C_2 Er 0.225879(14) 1.00118(3) -0.17858(2)
Er6_2 Er 0.364523(15) -0.62144(3) 0.35954(3)
Er6A Er 0.635477(15) -0.12144(3) 0.14046(3)
Er6C Er 0.364523(15) 0.12144(3) -0.14046(3)
O8C O 0.2019(2) 0.3427(4) 0.3583(4)
O9C O 0.2980(2) 0.2523(4) 0.3627(4)
O11C O 0.2961(2) 0.0654(4) -0.0643(4)
O14_2 O 0.2844(3) -0.1245(4) 0.0756(5)
O15C O 0.2249(2) 0.6187(4) 0.4380(4)
O18_2 O 0.1778(2) 0.4240(4) 0.1793(4)
O22_2 O 0.2914(2) 0.6026(5) 0.2922(5)
O23_2 O 0.3774(3) 0.5499(5) 0.3445(5)
O25A O 0.3854(4) 0.2645(9) 0.2557(9)
O27C O 0.4110(3) 0.4455(5) 0.5083(5)
O30B O 0.0923(2) 0.0412(4) -0.0370(4)
O31A O 0.1373(2) 0.5127(5) 0.3509(4)
N2_2 N 0.1797(3) 0.6120(5) 0.1984(5)
N4A N 0.4622(4) 0.3879(9) 0.3395(9)
O33 O 0.1097(12) 0.013(2) 0.357(2)
O34 O 0.0790(18) -0.105(3) 0.315(3)
O35 O 0.0113(18) -0.005(3) 0.414(3)
O36 O -0.006(2) -0.121(5) 0.392(4)
O37 O 0.4759(11) 0.499(3) 0.127(3)
loop_
_geom_bond_atom_site_label_1
_geom_bond_atom_site_label_2
_geom_bond_site_symmetry_1
_geom_bond_site_symmetry_2
Er1 O4 1_555 1_555
Er2 O4 1_555 1_555
Er3 O5 1_555 1_555
Er4 O1 1_555 1_555
Er5 O10 1_555 1_555
Er6 O2 1_555 1_555
O1 H1 1_555 1_555
H2 O1 1_555 1_555
O3 Er6 1_555 1_555
O4 Er4 1_555 1_555
H3 O4 1_555 1_555
O5 Er1 1_555 1_555
H4 O5 1_555 1_555
O6 Er2 1_555 1_555
H5 O6 1_555 1_555
O7 Er1 1_555 1_555
H6 O7 1_555 1_555
O8 Er2 1_555 1_555
H7 O8 1_555 1_555
O9 Er2 1_555 1_555
H8 O9 1_555 1_555
O10 Er1 1_555 1_555
H9 O10 1_555 1_555
O11 Er5 1_555 1_555
H10 O11 1_555 1_555
O12 Er2 1_555 1_555
O13 Er2 1_555 1_555
O14 C7 1_555 1_555
O15 C7 1_555 1_555
O16 Er3 1_555 1_555
O17 Er4 1_555 1_555
O18 C14 1_555 1_555
O19 C14 1_555 1_555
O20 Er3 1_555 1_555
O21 C15 1_555 1_555
O22 C21 1_555 1_555
O23 C21 1_555 1_555
O24 C22 1_555 1_555
O25 C22 1_555 1_555
O26 Er3 1_555 1_555
O27 C28 1_555 1_555
O28 Er1 1_555 1_555
O29 C29 1_555 1_555
O30 C35 1_555 1_555
O31 C35 1_555 1_555
N1 C3 1_555 1_555
N2 C12 1_555 1_555
N3 Er3 1_555 1_555
N4 C23 1_555 1_555
N5 Er4 1_555 1_555
C1 O12 1_555 1_555
C2 C1 1_555 1_555
C3 C2 1_555 1_555
H11 C3 1_555 1_555
C4 C2 1_555 1_555
H12 C4 1_555 1_555
C5 N1 1_555 1_555
C6 C4 1_555 1_555
H13 C6 1_555 1_555
C7 C5 1_555 1_555
C8 O16 1_555 1_555
C9 C8 1_555 1_555
C10 C9 1_555 1_555
H14 C10 1_555 1_555
C11 C10 1_555 1_555
H15 C11 1_555 1_555
C12 C11 1_555 1_555
C13 N2 1_555 1_555
H16 C13 1_555 1_555
C14 C12 1_555 1_555
C15 O20 1_555 1_555
C16 N3 1_555 1_555
C17 C16 1_555 1_555
H17 C17 1_555 1_555
C18 C17 1_555 1_555
H18 C18 1_555 1_555
C19 C18 1_555 1_555
C20 N3 1_555 1_555
H19 C20 1_555 1_555
C21 C19 1_555 1_555
C22 C23 1_555 1_555
C23 C24 1_555 1_555
C24 H20 1_555 1_555
C25 C24 1_555 1_555
H21 C25 1_555 1_555
C26 C25 1_555 1_555
C27 N4 1_555 1_555
H22 C27 1_555 1_555
C28 O26 1_555 1_555
C29 O28 1_555 1_555
C30 N5 1_555 1_555
C31 C30 1_555 1_555
H23 C31 1_555 1_555
C32 C31 1_555 1_555
H24 C32 1_555 1_555
C33 C32 1_555 1_555
C34 N5 1_555 1_555
H25 C34 1_555 1_555
C35 C33 1_555 1_555
O32 Er6 1_555 1_555
Er1_2 O18 1_555 1_555
Er1C O8 1_555 1_555
Er2C O11 1_555 1_555
Er3_2 O14 1_555 1_555
Er4B O30 1_555 1_555
Er5_2 O18 1_555 1_555
Er5A O31 1_555 1_555
Er5C O8 1_555 1_555
Er5C_2 O15 1_555 1_555
Er6_2 O23 1_555 1_555
Er6A O25 1_555 1_555
Er6C O9 1_555 1_555
O8C Er1 1_555 1_555
O9C Er1 1_555 1_555
O11C Er2 1_555 1_555
O14_2 Er3 1_555 1_555
O15C Er5 1_555 1_555
O18_2 Er1 1_555 1_555
O22_2 Er5 1_555 1_555
O23_2 Er6 1_555 1_555
O25A Er6 1_555 1_555
O27C Er6 1_555 1_555
O30B Er4 1_555 1_555
O31A Er5 1_555 1_555
N2_2 Er5 1_555 1_555
N4A Er6 1_555 1_555
Er2 O5 1_555 1_555
Er3 O6 1_555 1_555
Er3 O7 1_555 1_555
Er4 O6 1_555 1_555
Er4 O7 1_555 1_555
Er4 O28 1_555 1_555
Er5 O8C 1_555 1_555
Er5 O18_2 1_555 1_555
Er6 O10 1_555 1_555
Er6 O11 1_555 1_555
Er6 O9C 1_555 1_555
O9 Er1C 1_555 1_555
O13 C1 1_555 1_555
O17 C8 1_555 1_555
O22 Er5_2 1_555 1_555
O27 Er6C 1_555 1_555
N2 Er5_2 1_555 1_555
N4 Er6A 1_555 1_555
C5 C6 1_555 1_555
C9 C13 1_555 1_555
C15 C16 1_555 1_555
C19 C20 1_555 1_555
C26 C27 1_555 1_555
C26 C28 1_555 1_555
C29 C30 1_555 1_555
C33 C34 1_555 1_555
Er2C O8C 1_555 1_555
Er2C O9C 1_555 1_555
Er5C O11C 1_555 1_555
Er6C O11C 1_555 1_555

#END
