
#######################################################################
#
#                 Cambridge Crystallographic Data Centre
#                                CCDC 
#
#######################################################################
#
# If this CIF has been generated from an entry in the Cambridge 
# Structural Database, then it will include bibliographic, chemical, 
# crystal, experimental, refinement or atomic coordinate data resulting 
# from the CCDC's data processing and validation procedures.
#
#######################################################################

data_BIFJIK
_symmetry_cell_setting           monoclinic
_symmetry_space_group_name_H-M   'C 2/c'
_symmetry_Int_Tables_number      15
_space_group_name_Hall           '-C 2yn'
loop_
_symmetry_equiv_pos_site_id
_symmetry_equiv_pos_as_xyz
1 x,y,z
2 1/2+x,1/2+y,z
3 x,-y,1/2+z
4 1/2+x,1/2-y,1/2+z
5 -x,-y,-z
6 1/2-x,1/2-y,-z
7 -x,y,1/2-z
8 1/2-x,1/2+y,1/2-z
_cell_length_a                   16.752(4)
_cell_length_b                   14.445(4)
_cell_length_c                   7.370(3)
_cell_angle_alpha                90
_cell_angle_beta                 93.27(3)
_cell_angle_gamma                90
_cell_volume                     1780.51
loop_
_atom_site_label
_atom_site_type_symbol
_atom_site_fract_x
_atom_site_fract_y
_atom_site_fract_z
Cu1 Cu 0.2500 0.7500 0.0000
O1 O 0.3526(2) 0.6975(3) 0.0886(7)
H1 H 0.359(4) 0.655(5) 0.146(10)
H2 H 0.391(5) 0.696(6) 0.033(12)
O2 O 0.2178(4) 0.7948(5) 0.3107(10)
H3 H 0.232(4) 0.790(4) 0.400(8)
H4 H 0.170(7) 0.824(7) 0.296(14)
N1 N 0.1988(3) 0.6282(3) 0.0426(6)
C1 C 0.1299(3) 0.6083(4) 0.1139(7)
H5 H 0.0941 0.6511 0.1573
N2 N 0.1205(2) 0.5171(3) 0.1129(6)
N3 N 0.1834(3) 0.4748(3) 0.0379(6)
C2 C 0.2282(3) 0.5446(4) 0.0003(7)
H6 H 0.2771 0.5375 -0.0519
N4 N 0.0000 0.5118(4) 0.2500
C3 C 0.0581(3) 0.4632(4) 0.1815(6)
C4 C 0.0614(3) 0.3679(4) 0.1726(7)
H7 H 0.1025 0.3373 0.1177
C5 C 0.0000 0.3204(5) 0.2500
H8 H 0.0000 0.2560 0.2500
C3F C -0.0581(3) 0.4632(4) 0.3185(6)
N2F N -0.1205(2) 0.5171(3) 0.3871(6)
C1F C -0.1299(3) 0.6083(4) 0.3861(7)
N1F N -0.1988(3) 0.6282(3) 0.4574(6)
C2F C -0.2282(3) 0.5446(4) 0.4997(7)
N3F N -0.1834(3) 0.4748(3) 0.4621(6)
H6F H -0.2771 0.5375 0.5519
H5F H -0.0941 0.6511 0.3427
C4F C -0.0614(3) 0.3679(4) 0.3274(7)
H7F H -0.1025 0.3373 0.3823
O1E O 0.1474(2) 0.8025(3) -0.0886(7)
H1E H 0.141(4) 0.845(5) -0.146(10)
H2E H 0.109(5) 0.804(6) -0.033(12)
O2E O 0.2822(4) 0.7052(5) -0.3107(10)
H3E H 0.268(4) 0.710(4) -0.400(8)
H4E H 0.330(7) 0.676(7) -0.296(14)
N1E N 0.3012(3) 0.8718(3) -0.0426(6)
Cu1C Cu -0.2500 0.7500 0.5000
S1 S 0.0000 0.84198(13) 0.2500
O3 O -0.0673(5) 0.9009(6) 0.1933(12)
O4 O 0.0197(5) 0.7919(9) 0.0945(12)
O3F O 0.0673(5) 0.9009(6) 0.3067(12)
O4F O -0.0197(5) 0.7919(9) 0.4055(12)
O5 O 0.3838(4) 0.5650(5) 0.3315(9)
H9 H 0.408(4) 0.583(5) 0.399(9)
H10 H 0.409(5) 0.530(5) 0.314(10)
loop_
_geom_bond_atom_site_label_1
_geom_bond_atom_site_label_2
_geom_bond_site_symmetry_1
_geom_bond_site_symmetry_2
Cu1 O1 1_555 1_555
O1 H1 1_555 1_555
H2 O1 1_555 1_555
O2 Cu1 1_555 1_555
H3 O2 1_555 1_555
H4 O2 1_555 1_555
N1 Cu1 1_555 1_555
C1 N1 1_555 1_555
H5 C1 1_555 1_555
N2 C1 1_555 1_555
N3 N2 1_555 1_555
C2 N1 1_555 1_555
H6 C2 1_555 1_555
N4 C3 1_555 1_555
C3 N2 1_555 1_555
C4 C3 1_555 1_555
H7 C4 1_555 1_555
C5 C4 1_555 1_555
H8 C5 1_555 1_555
S1 O3 1_555 1_555
O4 S1 1_555 1_555
O5 H9 1_555 1_555
H10 O5 1_555 1_555
C3F N4 1_555 1_555
N2F C3F 1_555 1_555
C1F N2F 1_555 1_555
N1F C1F 1_555 1_555
C2F N1F 1_555 1_555
N3F N2F 1_555 1_555
H6F C2F 1_555 1_555
H5F C1F 1_555 1_555
C4F C5 1_555 1_555
H7F C4F 1_555 1_555
O3F S1 1_555 1_555
O4F S1 1_555 1_555
O1E Cu1 1_555 1_555
H1E O1E 1_555 1_555
H2E O1E 1_555 1_555
O2E Cu1 1_555 1_555
H3E O2E 1_555 1_555
H4E O2E 1_555 1_555
N1E Cu1 1_555 1_555
Cu1C N1F 1_555 1_555
N3 C2 1_555 1_555
C3F C4F 1_555 1_555
C2F N3F 1_555 1_555

#END
