
#######################################################################
#
#                 Cambridge Crystallographic Data Centre
#                                CCDC 
#
#######################################################################
#
# If this CIF has been generated from an entry in the Cambridge 
# Structural Database, then it will include bibliographic, chemical, 
# crystal, experimental, refinement or atomic coordinate data resulting 
# from the CCDC's data processing and validation procedures.
#
#######################################################################

data_BIFJEH
_symmetry_cell_setting           triclinic
_symmetry_space_group_name_H-M   'P -1'
_symmetry_Int_Tables_number      2
_space_group_name_Hall           '-P 1'
loop_
_symmetry_equiv_pos_site_id
_symmetry_equiv_pos_as_xyz
1 x,y,z
2 -x,-y,-z
_cell_length_a                   12.7841(17)
_cell_length_b                   13.3928(18)
_cell_length_c                   17.908(2)
_cell_angle_alpha                77.941(2)
_cell_angle_beta                 79.059(2)
_cell_angle_gamma                66.865(2)
_cell_volume                     2737.47
loop_
_atom_site_label
_atom_site_type_symbol
_atom_site_fract_x
_atom_site_fract_y
_atom_site_fract_z
O29 O 0.070(2) 0.068(2) 0.2314(13)
O30 O 0.613(4) 0.319(3) 0.143(2)
C1 C -0.040(2) 0.347(2) 0.2471(13)
H1 H -0.0402 0.2967 0.2916
C2 C -0.124(2) 0.375(3) 0.2021(17)
H2 H -0.1801 0.3443 0.2151
C3 C -0.124(3) 0.449(3) 0.1376(17)
H3 H -0.1835 0.4719 0.1074
C4 C -0.040(2) 0.489(2) 0.1168(16)
H4 H -0.0373 0.5343 0.0702
C5 C 0.0435(19) 0.4606(16) 0.1659(12)
C6 C 0.1398(19) 0.4963(17) 0.1482(12)
C7 C 0.158(2) 0.5655(19) 0.0801(13)
H5 H 0.1069 0.5942 0.0434
C8 C 0.256(3) 0.5876(18) 0.0719(17)
H6 H 0.2712 0.6339 0.0284
C9 C 0.333(3) 0.543(2) 0.1263(15)
H7 H 0.4001 0.5574 0.1186
C10 C 0.308(2) 0.4792(19) 0.1902(13)
H8 H 0.3582 0.4509 0.2276
C11 C -0.1890(16) 0.5285(14) 0.3946(10)
C12 C -0.2862(18) 0.5612(18) 0.3578(14)
H9 H -0.3443 0.5348 0.3789
C13 C -0.296(2) 0.632(2) 0.2910(17)
H10 H -0.3585 0.6516 0.2645
C14 C -0.213(2) 0.672(2) 0.2636(15)
H11 H -0.2181 0.7197 0.2172
C15 C -0.1187(17) 0.6446(16) 0.3035(12)
C16 C -0.0288(16) 0.6925(15) 0.2833(10)
C17 C -0.026(2) 0.772(2) 0.2219(14)
H12 H -0.0821 0.7980 0.1888
C18 C 0.059(2) 0.8144(18) 0.2088(14)
H13 H 0.0584 0.8727 0.1698
C19 C 0.147(2) 0.7681(18) 0.2552(13)
H14 H 0.2069 0.7932 0.2471
C20 C 0.1427(17) 0.6844(16) 0.3134(12)
H15 H 0.2012 0.6526 0.3447
C21 C 0.2141(18) -0.0042(19) 0.6140(13)
H16 H 0.1439 0.0443 0.5985
C22 C 0.2208(17) -0.102(2) 0.6550(14)
H17 H 0.1569 -0.1215 0.6652
C23 C 0.322(2) -0.1726(16) 0.6821(13)
H18 H 0.3254 -0.2386 0.7133
C24 C 0.4154(17) -0.1453(16) 0.6629(12)
H19 H 0.4857 -0.1933 0.6784
C25 C 0.4038(14) -0.0444(14) 0.6197(9)
C26 C 0.4947(16) 0.0012(13) 0.6016(10)
C27 C 0.6063(18) -0.0555(18) 0.6202(11)
H20 H 0.6297 -0.1293 0.6414
C28 C 0.6816(17) -0.0013(17) 0.6071(11)
H21 H 0.7561 -0.0372 0.6196
C29 C 0.6437(19) 0.1056(19) 0.5754(13)
H22 H 0.6912 0.1456 0.5673
C30 C 0.5356(17) 0.1540(16) 0.5554(12)
H23 H 0.5127 0.2259 0.5300
C31 C 0.4253(14) 0.4281(16) 0.3828(11)
H24 H 0.4900 0.3682 0.3629
H25 H 0.4057 0.4884 0.3408
C32 C 0.4630(15) 0.4650(16) 0.4448(11)
C33 C 0.3980(16) 0.5648(15) 0.4699(13)
H26 H 0.3289 0.6090 0.4510
C34 C 0.5619(16) 0.4016(16) 0.4753(11)
H27 H 0.6047 0.3336 0.4595
C35 C -0.0533(15) 0.2351(14) 0.4861(11)
H28 H -0.0943 0.2591 0.5345
H29 H -0.1050 0.2720 0.4472
C36 C -0.0257(14) 0.1133(13) 0.4936(10)
C37 C 0.0215(14) 0.0597(13) 0.4290(11)
H30 H 0.0352 0.0984 0.3810
C38 C -0.0471(14) 0.0519(14) 0.5617(10)
H31 H -0.0811 0.0876 0.6044
Cu1 Cu 0.17316(18) 0.35317(17) 0.29153(12)
Cu2 Cu 0.04020(17) 0.52847(16) 0.41186(12)
Cu3 Cu 0.30546(18) 0.16826(17) 0.53538(12)
N1 N 0.0430(15) 0.3887(14) 0.2307(9)
N2 N 0.2144(15) 0.4555(12) 0.2014(9)
N3 N -0.1078(12) 0.5730(11) 0.3684(8)
N4 N 0.0571(12) 0.6474(12) 0.3262(8)
N5 N 0.3043(13) 0.0259(13) 0.5946(9)
N6 N 0.4628(12) 0.1052(13) 0.5698(9)
O1 O 0.7130(14) -0.0407(12) 0.2307(8)
O2 O 0.2833(12) 0.2127(11) 0.2285(7)
O3 O 0.3992(14) -0.2100(15) 0.2658(8)
O4 O 0.6110(16) -0.4234(12) 0.0404(11)
O5 O 0.9289(13) -0.2583(13) 0.0047(11)
O6 O 0.8163(15) 0.1633(17) -0.0321(13)
O7 O 0.6804(15) 0.0823(14) 0.0832(10)
O8 O 0.5635(15) -0.1208(14) 0.195(2)
O9 O 0.7399(11) -0.1459(10) 0.1013(7)
O10 O 0.5072(14) 0.0916(15) 0.1733(19)
O11 O 0.3855(17) 0.260(2) 0.0824(9)
O12 O 0.3500(14) 0.0075(16) 0.1914(19)
O13 O 0.5309(13) -0.2582(13) 0.1273(8)
O14 O 0.7163(18) -0.273(2) 0.0343(9)
O15 O 0.7673(19) -0.172(2) -0.0984(9)
O16 O 0.7974(17) -0.0342(11) -0.0357(11)
O17 O 0.6873(11) 0.1292(12) -0.1276(8)
O18 O 0.5771(13) 0.2390(14) -0.0112(8)
O19 O 0.595(2) -0.1205(18) -0.0152(14)
O20 O 0.1532(10) 0.2058(9) 0.5143(7)
O21 O 0.0204(10) 0.3983(9) 0.4774(7)
O22 O 0.1053(11) 0.2747(9) 0.3775(7)
O23 O 0.3330(10) 0.2962(10) 0.4818(7)
O24 O 0.1980(10) 0.4837(10) 0.4283(7)
O25 O 0.2987(11) 0.3386(11) 0.3432(7)
O26 O 0.4866(19) -0.0109(17) 0.0972(13)
O27 O 0.4621(17) -0.0960(16) 0.0346(12)
O28 O 0.6244(19) -0.0105(18) 0.0160(13)
P1 P 0.5000 0.0000 0.0000
P2 P 0.0668(4) 0.2810(3) 0.4613(3)
P3 P 0.3038(4) 0.3831(4) 0.4127(3)
W1 W 0.64332(8) -0.02646(7) 0.15670(6)
W2 W 0.35387(7) 0.14578(8) 0.15338(6)
W3 W 0.43232(7) -0.14171(7) 0.18072(6)
W4 W 0.57708(7) -0.28739(6) 0.02571(5)
W5 W 0.79097(7) -0.17552(7) 0.00294(5)
W6 W 0.71340(7) 0.11150(7) -0.02414(5)
C31A C 0.5747(14) 0.5719(16) 0.6172(11)
H24A H 0.5100 0.6318 0.6371
H25A H 0.5943 0.5116 0.6592
C32A C 0.5370(15) 0.5350(16) 0.5552(11)
C33A C 0.6020(16) 0.4352(15) 0.5301(13)
H26A H 0.6711 0.3910 0.5490
C34A C 0.4381(16) 0.5984(16) 0.5247(11)
H27A H 0.3953 0.6664 0.5405
O23A O 0.6670(10) 0.7038(10) 0.5182(7)
O24A O 0.8020(10) 0.5163(10) 0.5717(7)
O25A O 0.7013(11) 0.6614(11) 0.6568(7)
P3A P 0.6962(4) 0.6169(4) 0.5873(3)
C35A C 0.0533(15) -0.2351(14) 0.5139(11)
H28A H 0.0943 -0.2591 0.4655
H29A H 0.1050 -0.2720 0.5528
C36A C 0.0257(14) -0.1133(13) 0.5064(10)
C37A C -0.0215(14) -0.0597(13) 0.5710(11)
H30A H -0.0352 -0.0984 0.6190
C38A C 0.0471(14) -0.0519(14) 0.4383(10)
H31A H 0.0811 -0.0876 0.3956
O20A O -0.1532(10) -0.2058(9) 0.4857(7)
O21A O -0.0204(10) -0.3983(9) 0.5226(7)
O22A O -0.1053(11) -0.2747(9) 0.6225(7)
P2A P -0.0668(4) -0.2810(3) 0.5387(3)
O19A O 0.405(2) 0.1205(18) 0.0152(14)
O26A O 0.5134(19) 0.0109(17) -0.0972(13)
O27A O 0.5379(17) 0.0960(16) -0.0346(12)
O28A O 0.3756(19) 0.0105(18) -0.0160(13)
C1A C 0.040(2) -0.347(2) 0.7529(13)
H1A H 0.0402 -0.2967 0.7084
C2A C 0.124(2) -0.375(3) 0.7979(17)
H2A H 0.1801 -0.3443 0.7849
C3A C 0.124(3) -0.449(3) 0.8624(17)
H3A H 0.1835 -0.4719 0.8926
C4A C 0.040(2) -0.489(2) 0.8832(16)
H4A H 0.0373 -0.5343 0.9298
C5A C -0.0435(19) -0.4606(16) 0.8341(12)
C6A C -0.1398(19) -0.4963(17) 0.8518(12)
C7A C -0.158(2) -0.5655(19) 0.9199(13)
H5A H -0.1069 -0.5942 0.9566
C8A C -0.256(3) -0.5876(18) 0.9281(17)
H6A H -0.2712 -0.6339 0.9716
C9A C -0.333(3) -0.543(2) 0.8737(15)
H7A H -0.4001 -0.5574 0.8814
C10A C -0.308(2) -0.4792(19) 0.8098(13)
H8A H -0.3582 -0.4509 0.7724
C11A C 0.1890(16) -0.5285(14) 0.6054(10)
C12A C 0.2862(18) -0.5612(18) 0.6422(14)
H9A H 0.3443 -0.5348 0.6211
C13A C 0.296(2) -0.632(2) 0.7090(17)
H10A H 0.3585 -0.6516 0.7355
C14A C 0.213(2) -0.672(2) 0.7364(15)
H11A H 0.2181 -0.7197 0.7828
C15A C 0.1187(17) -0.6446(16) 0.6965(12)
C16A C 0.0288(16) -0.6925(15) 0.7167(10)
C17A C 0.026(2) -0.772(2) 0.7781(14)
H12A H 0.0821 -0.7980 0.8112
C18A C -0.059(2) -0.8144(18) 0.7912(14)
H13A H -0.0584 -0.8727 0.8302
C19A C -0.147(2) -0.7681(18) 0.7448(13)
H14A H -0.2069 -0.7932 0.7529
C20A C -0.1427(17) -0.6844(16) 0.6866(12)
H15A H -0.2012 -0.6526 0.6553
C21A C -0.2141(18) 0.0042(19) 0.3860(13)
H16A H -0.1439 -0.0443 0.4015
C22A C -0.2208(17) 0.102(2) 0.3450(14)
H17A H -0.1569 0.1215 0.3348
C23A C -0.322(2) 0.1726(16) 0.3179(13)
H18A H -0.3254 0.2386 0.2867
C24A C -0.4154(17) 0.1453(16) 0.3371(12)
H19A H -0.4857 0.1933 0.3216
C25A C -0.4038(14) 0.0444(14) 0.3803(9)
C26A C -0.4947(16) -0.0012(13) 0.3984(10)
C27A C -0.6063(18) 0.0555(18) 0.3798(11)
H20A H -0.6297 0.1293 0.3586
C28A C -0.6816(17) 0.0013(17) 0.3929(11)
H21A H -0.7561 0.0372 0.3804
C29A C -0.6437(19) -0.1056(19) 0.4246(13)
H22A H -0.6912 -0.1456 0.4327
C30A C -0.5356(17) -0.1540(16) 0.4446(12)
H23A H -0.5127 -0.2259 0.4700
Cu1A Cu -0.17316(18) -0.35317(17) 0.70847(12)
Cu2A Cu -0.04020(17) -0.52847(16) 0.58814(12)
Cu3A Cu -0.30546(18) -0.16826(17) 0.46462(12)
N1A N -0.0430(15) -0.3887(14) 0.7693(9)
N2A N -0.2144(15) -0.4555(12) 0.7986(9)
N3A N 0.1078(12) -0.5730(11) 0.6316(8)
N4A N -0.0571(12) -0.6474(12) 0.6738(8)
N5A N -0.3043(13) -0.0259(13) 0.4054(9)
N6A N -0.4628(12) -0.1052(13) 0.4302(9)
O1A O -0.7130(14) 0.0407(12) 0.7693(8)
O2A O -0.2833(12) -0.2127(11) 0.7715(7)
O3A O -0.3992(14) 0.2100(15) 0.7342(8)
O4A O -0.6110(16) 0.4234(12) 0.9596(11)
O5A O -0.9289(13) 0.2583(13) 0.9953(11)
O6A O -0.8163(15) -0.1633(17) 1.0321(13)
O7A O -0.6804(15) -0.0823(14) 0.9168(10)
O8A O -0.5635(15) 0.1208(14) 0.805(2)
O9A O -0.7399(11) 0.1459(10) 0.8987(7)
O10A O -0.5072(14) -0.0916(15) 0.8267(19)
O11A O -0.3855(17) -0.260(2) 0.9176(9)
O12A O -0.3500(14) -0.0075(16) 0.8086(19)
O13A O -0.5309(13) 0.2582(13) 0.8727(8)
O14A O -0.7163(18) 0.273(2) 0.9657(9)
O15A O -0.7673(19) 0.172(2) 1.0984(9)
O16A O -0.7974(17) 0.0342(11) 1.0357(11)
O17A O -0.6873(11) -0.1292(12) 1.1276(8)
O18A O -0.5771(13) -0.2390(14) 1.0112(8)
W1A W -0.64332(8) 0.02646(7) 0.84330(6)
W2A W -0.35387(7) -0.14578(8) 0.84662(6)
W3A W -0.43232(7) 0.14171(7) 0.81928(6)
W4A W -0.57708(7) 0.28739(6) 0.97429(5)
W5A W -0.79097(7) 0.17552(7) 0.99706(5)
W6A W -0.71340(7) -0.11150(7) 1.02414(5)
Cu1A_2 Cu 0.82684(18) 0.64683(17) 0.70847(12)
Cu2_2 Cu 0.04020(17) -0.47153(16) 0.41186(12)
Cu2A_2 Cu -0.04020(17) 0.47153(16) 0.58814(12)
Cu2A_3 Cu 0.95980(17) 0.47153(16) 0.58814(12)
Cu3A_2 Cu 0.69454(18) 0.83174(17) 0.46462(12)
O11_2 O -0.6145(17) 0.260(2) 1.0824(9)
O11A_2 O 0.6145(17) -0.260(2) -0.0824(9)
O15_2 O -0.2327(19) -0.172(2) 0.9016(9)
O15A_2 O 0.2327(19) 0.172(2) 0.0984(9)
O17_2 O -0.3127(11) 0.1292(12) 0.8724(8)
O17A_2 O 0.3127(11) -0.1292(12) 0.1276(8)
O18_2 O -0.4229(13) 0.2390(14) 0.9888(8)
O18A_2 O 0.4229(13) -0.2390(14) 0.0112(8)
O19_2 O -0.405(2) -0.1205(18) 0.9848(14)
O19A_2 O -0.595(2) 0.1205(18) 1.0152(14)
O21_2 O 0.0204(10) -0.6017(9) 0.4774(7)
O21A_2 O -0.0204(10) 0.6017(9) 0.5226(7)
O23A_2 O -0.3330(10) -0.2962(10) 0.5182(7)
O24A_2 O -0.1980(10) -0.4837(10) 0.5717(7)
O25A_2 O -0.2987(11) -0.3386(11) 0.6568(7)
O26A_2 O -0.4866(19) 0.0109(17) 0.9028(13)
O27_2 O -0.5379(17) -0.0960(16) 1.0346(12)
O27A_2 O -0.4621(17) 0.0960(16) 0.9654(12)
O28A_2 O -0.6244(19) 0.0105(18) 0.9840(13)
W1A_2 W 0.35668(8) 0.02646(7) -0.15670(6)
W2_2 W -0.64613(7) 0.14578(8) 1.15338(6)
W2A_2 W 0.64613(7) -0.14578(8) -0.15338(6)
W3_2 W -0.56768(7) -0.14171(7) 1.18072(6)
W3A_2 W 0.56768(7) 0.14171(7) -0.18072(6)
W4_2 W -0.42292(7) -0.28739(6) 1.02571(5)
W4A_2 W 0.42292(7) 0.28739(6) -0.02571(5)
W5A_2 W 0.20903(7) 0.17552(7) -0.00294(5)
W6A_2 W 0.28660(7) -0.11150(7) 0.02414(5)
loop_
_geom_bond_atom_site_label_1
_geom_bond_atom_site_label_2
_geom_bond_site_symmetry_1
_geom_bond_site_symmetry_2
C1 H1 1_555 1_555
C2 C1 1_555 1_555
H2 C2 1_555 1_555
C3 C2 1_555 1_555
H3 C3 1_555 1_555
C4 C3 1_555 1_555
H4 C4 1_555 1_555
C5 C4 1_555 1_555
C6 C5 1_555 1_555
C7 C6 1_555 1_555
H5 C7 1_555 1_555
C8 C7 1_555 1_555
H6 C8 1_555 1_555
C9 C8 1_555 1_555
H7 C9 1_555 1_555
C10 C9 1_555 1_555
H8 C10 1_555 1_555
C11 C12 1_555 1_555
C12 H9 1_555 1_555
C13 C12 1_555 1_555
H10 C13 1_555 1_555
C14 C13 1_555 1_555
H11 C14 1_555 1_555
C15 C14 1_555 1_555
C16 C15 1_555 1_555
C17 C16 1_555 1_555
H12 C17 1_555 1_555
C18 C17 1_555 1_555
H13 C18 1_555 1_555
C19 C18 1_555 1_555
H14 C19 1_555 1_555
C20 C19 1_555 1_555
H15 C20 1_555 1_555
C21 H16 1_555 1_555
C22 C21 1_555 1_555
H17 C22 1_555 1_555
C23 C22 1_555 1_555
H18 C23 1_555 1_555
C24 C23 1_555 1_555
H19 C24 1_555 1_555
C25 C24 1_555 1_555
C26 C25 1_555 1_555
C27 C26 1_555 1_555
H20 C27 1_555 1_555
C28 C27 1_555 1_555
H21 C28 1_555 1_555
C29 C28 1_555 1_555
H22 C29 1_555 1_555
C30 C29 1_555 1_555
H23 C30 1_555 1_555
C31 H24 1_555 1_555
H25 C31 1_555 1_555
C32 C31 1_555 1_555
C33 C32 1_555 1_555
H26 C33 1_555 1_555
C34 C32 1_555 1_555
H27 C34 1_555 1_555
C35 H28 1_555 1_555
H29 C35 1_555 1_555
C36 C35 1_555 1_555
C37 C36 1_555 1_555
H30 C37 1_555 1_555
C38 C36 1_555 1_555
H31 C38 1_555 1_555
Cu1 N1 1_555 1_555
Cu2 N3 1_555 1_555
Cu3 N5 1_555 1_555
N1 C1 1_555 1_555
N2 C6 1_555 1_555
N3 C11 1_555 1_555
N4 C16 1_555 1_555
N5 C21 1_555 1_555
N6 C26 1_555 1_555
O1 W1 1_555 1_555
O2 Cu1 1_555 1_555
O3 W3 1_555 1_555
O4 W4 1_555 1_555
O5 W5 1_555 1_555
O6 W6 1_555 1_555
O7 W1 1_555 1_555
O8 W1 1_555 1_555
O9 W1 1_555 1_555
O10 W1 1_555 1_555
O11 W2 1_555 1_555
O12 W2 1_555 1_555
O13 W3 1_555 1_555
O14 W4 1_555 1_555
O15 W5 1_555 1_555
O16 W5 1_555 1_555
O17 W6 1_555 1_555
O18 W6 1_555 1_555
O19 O27 1_555 1_555
O20 Cu3 1_555 1_555
O21 Cu2 1_555 1_555
O22 Cu1 1_555 1_555
O23 Cu3 1_555 1_555
O24 Cu2 1_555 1_555
O25 Cu1 1_555 1_555
O26 P1 1_555 1_555
O27 P1 1_555 1_555
O28 P1 1_555 1_555
P1 O19 1_555 1_555
P2 C35 1_555 1_555
P3 C31 1_555 1_555
W1 O26 1_555 1_555
W2 O2 1_555 1_555
W3 O8 1_555 1_555
W4 O13 1_555 1_555
W5 O9 1_555 1_555
W6 O7 1_555 1_555
C31A H24A 1_555 1_555
H25A C31A 1_555 1_555
C32A C31A 1_555 1_555
C33A C34 1_555 1_555
H26A C33A 1_555 1_555
C34A C33 1_555 1_555
H27A C34A 1_555 1_555
O23A P3A 1_555 1_555
O24A P3A 1_555 1_555
O25A P3A 1_555 1_555
P3A C31A 1_555 1_555
C35A H28A 1_555 1_555
H29A C35A 1_555 1_555
C36A C35A 1_555 1_555
C37A C38 1_555 1_555
H30A C37A 1_555 1_555
C38A C37 1_555 1_555
H31A C38A 1_555 1_555
O20A P2A 1_555 1_555
O21A P2A 1_555 1_555
O22A P2A 1_555 1_555
P2A C35A 1_555 1_555
O19A P1 1_555 1_555
O26A P1 1_555 1_555
O27A O28 1_555 1_555
O28A O27 1_555 1_555
C1A H1A 1_555 1_555
C2A C1A 1_555 1_555
H2A C2A 1_555 1_555
C3A C2A 1_555 1_555
H3A C3A 1_555 1_555
C4A C3A 1_555 1_555
H4A C4A 1_555 1_555
C5A C4A 1_555 1_555
C6A C5A 1_555 1_555
C7A C6A 1_555 1_555
H5A C7A 1_555 1_555
C8A C7A 1_555 1_555
H6A C8A 1_555 1_555
C9A C8A 1_555 1_555
H7A C9A 1_555 1_555
C10A C9A 1_555 1_555
H8A C10A 1_555 1_555
C11A C12A 1_555 1_555
C12A H9A 1_555 1_555
C13A C12A 1_555 1_555
H10A C13A 1_555 1_555
C14A C13A 1_555 1_555
H11A C14A 1_555 1_555
C15A C14A 1_555 1_555
C16A C15A 1_555 1_555
C17A C16A 1_555 1_555
H12A C17A 1_555 1_555
C18A C17A 1_555 1_555
H13A C18A 1_555 1_555
C19A C18A 1_555 1_555
H14A C19A 1_555 1_555
C20A C19A 1_555 1_555
H15A C20A 1_555 1_555
C21A H16A 1_555 1_555
C22A C21A 1_555 1_555
H17A C22A 1_555 1_555
C23A C22A 1_555 1_555
H18A C23A 1_555 1_555
C24A C23A 1_555 1_555
H19A C24A 1_555 1_555
C25A C24A 1_555 1_555
C26A C25A 1_555 1_555
C27A C26A 1_555 1_555
H20A C27A 1_555 1_555
C28A C27A 1_555 1_555
H21A C28A 1_555 1_555
C29A C28A 1_555 1_555
H22A C29A 1_555 1_555
C30A C29A 1_555 1_555
H23A C30A 1_555 1_555
Cu1A O22A 1_555 1_555
Cu2A O21A 1_555 1_555
Cu3A O20A 1_555 1_555
N1A C1A 1_555 1_555
N2A C6A 1_555 1_555
N3A C11A 1_555 1_555
N4A C16A 1_555 1_555
N5A C21A 1_555 1_555
N6A C26A 1_555 1_555
O1A W1A 1_555 1_555
O2A Cu1A 1_555 1_555
O3A W3A 1_555 1_555
O4A W4A 1_555 1_555
O5A W5A 1_555 1_555
O6A W6A 1_555 1_555
O7A W1A 1_555 1_555
O8A W1A 1_555 1_555
O9A W1A 1_555 1_555
O10A W1A 1_555 1_555
O11A W2A 1_555 1_555
O12A W2A 1_555 1_555
O13A W3A 1_555 1_555
O14A W4A 1_555 1_555
O15A W5A 1_555 1_555
O16A W5A 1_555 1_555
O17A W6A 1_555 1_555
O18A W6A 1_555 1_555
W1A O26A_2 1_555 1_555
W2A O2A 1_555 1_555
W3A O8A 1_555 1_555
W4A O13A 1_555 1_555
W5A O9A 1_555 1_555
W6A O7A 1_555 1_555
Cu1A_2 O25A 1_555 1_555
Cu2_2 O21A 1_555 1_555
Cu2A_2 O21 1_555 1_555
Cu2A_3 O24A 1_555 1_555
Cu3A_2 O23A 1_555 1_555
O11_2 W4A 1_555 1_555
O11A_2 W4 1_555 1_555
O15_2 W2A 1_555 1_555
O15A_2 W2 1_555 1_555
O17_2 W3A 1_555 1_555
O17A_2 W3 1_555 1_555
O18_2 W4A 1_555 1_555
O18A_2 W4 1_555 1_555
O19_2 W2A 1_555 1_555
O19A_2 W4A 1_555 1_555
O21_2 Cu2A 1_555 1_555
O21A_2 Cu2 1_555 1_555
O23A_2 Cu3A 1_555 1_555
O24A_2 Cu2A 1_555 1_555
O25A_2 Cu1A 1_555 1_555
O26A_2 W2A 1_555 1_555
O27_2 W6A 1_555 1_555
O27A_2 W4A 1_555 1_555
O28A_2 W5A 1_555 1_555
W1A_2 O26A 1_555 1_555
W2_2 O15A 1_555 1_555
W2A_2 O15 1_555 1_555
W3_2 O17A 1_555 1_555
W3A_2 O17 1_555 1_555
W4_2 O11A 1_555 1_555
W4A_2 O11 1_555 1_555
W5A_2 O19A 1_555 1_555
W6A_2 O27 1_555 1_555
C5 N1 1_555 1_555
C10 N2 1_555 1_555
C15 N3 1_555 1_555
C20 N4 1_555 1_555
C25 N5 1_555 1_555
C30 N6 1_555 1_555
Cu1 N2 1_555 1_555
Cu2 N4 1_555 1_555
Cu3 N6 1_555 1_555
O10 W2 1_555 1_555
O12 W3 1_555 1_555
O14 W5 1_555 1_555
O16 W6 1_555 1_555
O18 W4A_2 1_555 1_555
O19 W4 1_555 1_555
O19 W5 1_555 1_555
O19 W2A_2 1_555 1_555
O20 P2 1_555 1_555
O21 P2 1_555 1_555
O22 P2 1_555 1_555
O23 P3 1_555 1_555
O24 P3 1_555 1_555
O25 P3 1_555 1_555
O26 W2 1_555 1_555
O26 W3 1_555 1_555
O27 W4 1_555 1_555
O28 W5 1_555 1_555
O28 W6 1_555 1_555
P1 O27A 1_555 1_555
P1 O28A 1_555 1_555
W2 O19A 1_555 1_555
W6 O27A 1_555 1_555
C32A C33A 1_555 1_555
C32A C34A 1_555 1_555
C36A C37A 1_555 1_555
C36A C38A 1_555 1_555
O19A O27A 1_555 1_555
O19A W4A_2 1_555 1_555
O26A W2A_2 1_555 1_555
O26A W3A_2 1_555 1_555
O27A W4A_2 1_555 1_555
O28A W5A_2 1_555 1_555
O28A W6A_2 1_555 1_555
C5A N1A 1_555 1_555
C10A N2A 1_555 1_555
C15A N3A 1_555 1_555
C20A N4A 1_555 1_555
C25A N5A 1_555 1_555
C30A N6A 1_555 1_555
Cu1A N1A 1_555 1_555
Cu1A N2A 1_555 1_555
Cu2A N3A 1_555 1_555
Cu2A N4A 1_555 1_555
Cu3A N5A 1_555 1_555
Cu3A N6A 1_555 1_555
O10A W2A 1_555 1_555
O12A W3A 1_555 1_555
O14A W5A 1_555 1_555
O16A W6A 1_555 1_555
O18A W4_2 1_555 1_555
W3A O26A_2 1_555 1_555
W5A O19A_2 1_555 1_555
W6A O28A_2 1_555 1_555
Cu2_2 O21_2 1_555 1_555
Cu2A_2 O21A_2 1_555 1_555
O11_2 W2_2 1_555 1_555
O11A_2 W2A_2 1_555 1_555
O15A_2 W5A_2 1_555 1_555
O17A_2 W6A_2 1_555 1_555
O18A_2 W6A_2 1_555 1_555
O19_2 O27_2 1_555 1_555
O19_2 W4_2 1_555 1_555
O19A_2 O27A_2 1_555 1_555
O19A_2 W2_2 1_555 1_555
O27_2 O28A_2 1_555 1_555
O27_2 W4_2 1_555 1_555

#END
