
#######################################################################
#
#                 Cambridge Crystallographic Data Centre
#                                CCDC 
#
#######################################################################
#
# If this CIF has been generated from an entry in the Cambridge 
# Structural Database, then it will include bibliographic, chemical, 
# crystal, experimental, refinement or atomic coordinate data resulting 
# from the CCDC's data processing and validation procedures.
#
#######################################################################

data_BIFKAE
_symmetry_cell_setting           orthorhombic
_symmetry_space_group_name_H-M   'P b c a'
_symmetry_Int_Tables_number      61
_space_group_name_Hall           '-P 2ac 2ab'
loop_
_symmetry_equiv_pos_site_id
_symmetry_equiv_pos_as_xyz
1 x,y,z
2 1/2-x,-y,1/2+z
3 -x,1/2+y,1/2-z
4 1/2+x,1/2-y,-z
5 -x,-y,-z
6 1/2+x,y,1/2-z
7 x,1/2-y,1/2+z
8 1/2-x,1/2+y,z
_cell_length_a                   13.2964(8)
_cell_length_b                   7.0927(4)
_cell_length_c                   27.3093(15)
_cell_angle_alpha                90
_cell_angle_beta                 90
_cell_angle_gamma                90
_cell_volume                     2575.47
loop_
_atom_site_label
_atom_site_type_symbol
_atom_site_fract_x
_atom_site_fract_y
_atom_site_fract_z
Er1 Er 0.54688(6) 0.35450(11) 0.86503(3)
Er2 Er 0.32207(6) 0.54911(10) 0.79923(3)
Er3 Er 0.56244(6) 0.58600(10) 0.73975(3)
Cl1 Cl 0.5031(4) -0.0098(7) 0.88747(19)
O1 O 0.4895(8) 0.6029(16) 0.8180(4)
H1 H 0.5005 0.7279 0.8340
O2 O 0.4165(8) 0.4050(17) 0.7365(4)
H2 H 0.3823 0.4159 0.7040
O3 O 0.5760(9) 0.2937(17) 0.7834(4)
H3 H 0.6429 0.2325 0.7782
O4 O 0.3875(9) 0.2689(17) 0.8279(5)
H4 H 0.3413 0.2008 0.8508
O5 O 0.1717(8) 0.3793(16) 0.8098(4)
H5 H 0.1512 0.4002 0.8446
O6 O 0.2249(8) 0.6074(17) 0.7355(4)
H6 H 0.2472 0.6364 0.7033
O7 O 0.7091(10) 0.220(2) 0.8564(5)
O8 O 0.8526(9) 0.1070(17) 0.8837(4)
O9 O 0.5634(10) 0.5235(17) 1.0796(4)
O10 O 0.7030(9) 0.4095(17) 1.1163(4)
N1 N 0.6458(12) 0.296(3) 0.9469(6)
C1 C 0.7716(12) 0.191(2) 0.8899(6)
C2 C 0.7471(14) 0.260(3) 0.9407(6)
C3 C 0.8190(14) 0.282(3) 0.9754(6)
H7 H 0.8878 0.2574 0.9686
C4 C 0.7872(14) 0.343(3) 1.0217(6)
H8 H 0.8355 0.3653 1.0467
C5 C 0.6851(13) 0.372(2) 1.0315(6)
C6 C 0.6168(14) 0.348(2) 0.9920(7)
H9 H 0.5474 0.3707 0.9977
C7 C 0.6488(14) 0.433(3) 1.0796(7)
Er1D Er 0.45312(6) 0.64550(11) 1.13497(3)
Er1G Er 0.95312(6) -0.14550(11) 0.86503(3)
Er2D Er 0.67793(6) 0.45089(10) 1.20077(3)
Er2G Er 0.17793(6) 0.04911(10) 0.79923(3)
Er3B Er 0.43756(6) 0.08600(10) 0.76025(3)
Er3E Er 0.06244(6) 0.58600(10) 0.76025(3)
O2B O 0.5835(8) 0.9050(17) 0.7635(4)
O3B O 0.4240(9) 0.7937(17) 0.7166(4)
O4B O 0.6125(9) 0.7689(17) 0.6721(5)
O5E O 0.6717(8) 0.3793(16) 0.6902(4)
O5G O 0.3283(8) 0.8793(16) 0.8098(4)
O6E O 0.7249(8) 0.6074(17) 0.7645(4)
O8G O 0.6474(9) 0.6070(17) 0.8837(4)
O9D O 0.4366(10) 0.4765(17) 0.9204(4)
O10D O 0.2970(9) 0.5905(17) 0.8837(4)
loop_
_geom_bond_atom_site_label_1
_geom_bond_atom_site_label_2
_geom_bond_site_symmetry_1
_geom_bond_site_symmetry_2
Er1 Cl1 1_555 1_555
Er2 O1 1_555 1_555
Er3 O1 1_555 1_555
O1 Er1 1_555 1_555
H1 O1 1_555 1_555
O2 Er2 1_555 1_555
H2 O2 1_555 1_555
O3 Er1 1_555 1_555
H3 O3 1_555 1_555
O4 Er1 1_555 1_555
H4 O4 1_555 1_555
O5 Er2 1_555 1_555
H5 O5 1_555 1_555
O6 Er2 1_555 1_555
H6 O6 1_555 1_555
O7 Er1 1_555 1_555
O8 C1 1_555 1_555
O9 C7 1_555 1_555
O10 C7 1_555 1_555
N1 Er1 1_555 1_555
C1 O7 1_555 1_555
C2 N1 1_555 1_555
C3 C2 1_555 1_555
H7 C3 1_555 1_555
C4 C3 1_555 1_555
H8 C4 1_555 1_555
C5 C4 1_555 1_555
C6 N1 1_555 1_555
H9 C6 1_555 1_555
C7 C5 1_555 1_555
Er1D O9 1_555 1_555
Er1G O8 1_555 1_555
Er2D O10 1_555 1_555
Er2G O5 1_555 1_555
Er3B O2 1_555 1_555
Er3E O5 1_555 1_555
O2B Er3 1_555 1_555
O3B Er3 1_555 1_555
O4B Er3 1_555 1_555
O5E Er3 1_555 1_555
O5G Er2 1_555 1_555
O6E Er3 1_555 1_555
O8G Er1 1_555 1_555
O9D Er1 1_555 1_555
O10D Er2 1_555 1_555
Er2 O4 1_555 1_555
Er3 O2 1_555 1_555
Er3 O3 1_555 1_555
O3 Er3B 1_555 1_555
O4 Er3B 1_555 1_555
O6 Er3E 1_555 1_555
C1 C2 1_555 1_555
C5 C6 1_555 1_555

#END
