
#######################################################################
#
#                 Cambridge Crystallographic Data Centre
#                                CCDC 
#
#######################################################################
#
# If this CIF has been generated from an entry in the Cambridge 
# Structural Database, then it will include bibliographic, chemical, 
# crystal, experimental, refinement or atomic coordinate data resulting 
# from the CCDC's data processing and validation procedures.
#
#######################################################################

data_BIFSEP
_symmetry_cell_setting           monoclinic
_symmetry_space_group_name_H-M   'P 2/c'
_symmetry_Int_Tables_number      13
_space_group_name_Hall           '-P 2yc'
loop_
_symmetry_equiv_pos_site_id
_symmetry_equiv_pos_as_xyz
1 x,y,z
2 -x,y,1/2-z
3 -x,-y,-z
4 x,-y,1/2+z
_cell_length_a                   19.490(8)
_cell_length_b                   9.443(3)
_cell_length_c                   9.434(3)
_cell_angle_alpha                90
_cell_angle_beta                 110.37(3)
_cell_angle_gamma                90
_cell_volume                     1627.69
loop_
_atom_site_label
_atom_site_type_symbol
_atom_site_fract_x
_atom_site_fract_y
_atom_site_fract_z
Cu1 Cu 0.35937(7) -0.13524(12) -0.09043(12)
P1 P 0.32556(12) -0.1322(2) -0.4467(2)
P2 P 0.30754(13) -0.4102(2) -0.2966(2)
O1 O 0.3285(3) -0.0659(6) -0.2994(6)
O2 O 0.3769(3) -0.0634(5) -0.5175(6)
O3 O 0.3232(3) -0.3240(6) -0.1532(6)
O4 O 0.3340(3) -0.5599(5) -0.2754(6)
O5 O 0.4750(3) -0.1770(7) -0.0637(7)
O6 O 0.3647(4) -0.1950(6) 0.1155(6)
C1 C 0.3487(5) -0.3177(9) -0.4130(10)
H1 H 0.3347 -0.3654 -0.51
H2 H 0.4014 -0.3254 -0.3662
C2 C 0.2320(5) -0.1199(8) -0.5798(9)
C3 C 0.2050(4) -0.2067(8) -0.6994(8)
H3 H 0.2338 -0.278 -0.7177
C4 C 0.1345(5) -0.1880(11) -0.7932(10)
H4 H 0.115 -0.2501 -0.8738
C5 C 0.0915(6) -0.0814(12) -0.7730(12)
H5 H 0.0435 -0.072 -0.8388
C6 C 0.1191(6) 0.0114(11) -0.6562(12)
H6 H 0.0905 0.0855 -0.643
C7 C 0.1910(5) -0.0060(9) -0.5564(10)
H7 H 0.2111 0.0564 -0.4764
C8 C 0.2096(5) -0.4126(8) -0.3956(9)
C9 C 0.1764(5) -0.5112(9) -0.5089(10)
H8 H 0.2049 -0.5808 -0.5311
C10 C 0.1053(6) -0.5075(11) -0.5852(12)
H9 H 0.0848 -0.5733 -0.6615
C11 C 0.0610(6) -0.4076(12) -0.5536(11)
H10 H 0.0107 -0.4094 -0.6044
C12 C 0.0920(5) -0.3046(12) -0.4458(12)
H11 H 0.0628 -0.2343 -0.4274
C13 C 0.1653(5) -0.3061(10) -0.3669(10)
H12 H 0.1861 -0.2372 -0.2942
Cu1C Cu 0.35937(7) 0.13524(12) -0.59043(12)
O2C O 0.3769(3) 0.0634(5) -0.0175(6)
O7 O 0.4783(4) -0.5918(7) -0.1226(8)
loop_
_geom_bond_atom_site_label_1
_geom_bond_atom_site_label_2
_geom_bond_site_symmetry_1
_geom_bond_site_symmetry_2
Cu1 O1 1_555 1_555
P1 O1 1_555 1_555
P2 O3 1_555 1_555
O2 P1 1_555 1_555
O3 Cu1 1_555 1_555
O4 P2 1_555 1_555
O5 Cu1 1_555 1_555
O6 Cu1 1_555 1_555
C1 P1 1_555 1_555
H1 C1 1_555 1_555
H2 C1 1_555 1_555
C2 P1 1_555 1_555
C3 C2 1_555 1_555
H3 C3 1_555 1_555
C4 C3 1_555 1_555
H4 C4 1_555 1_555
C5 C4 1_555 1_555
H5 C5 1_555 1_555
C6 C5 1_555 1_555
H6 C6 1_555 1_555
C7 C2 1_555 1_555
H7 C7 1_555 1_555
C8 P2 1_555 1_555
C9 C8 1_555 1_555
H8 C9 1_555 1_555
C10 C9 1_555 1_555
H9 C10 1_555 1_555
C11 C10 1_555 1_555
H10 C11 1_555 1_555
C12 C11 1_555 1_555
H11 C12 1_555 1_555
C13 C8 1_555 1_555
H12 C13 1_555 1_555
Cu1C O2 1_555 1_555
O2C Cu1 1_555 1_555
P2 C1 1_555 1_555
C6 C7 1_555 1_555
C12 C13 1_555 1_555

#END
