
#######################################################################
#
#                 Cambridge Crystallographic Data Centre
#                                CCDC 
#
#######################################################################
#
# If this CIF has been generated from an entry in the Cambridge 
# Structural Database, then it will include bibliographic, chemical, 
# crystal, experimental, refinement or atomic coordinate data resulting 
# from the CCDC's data processing and validation procedures.
#
#######################################################################

data_BIFSOZ
_symmetry_cell_setting           monoclinic
_symmetry_space_group_name_H-M   'P 21/n'
_symmetry_Int_Tables_number      14
_space_group_name_Hall           '-P 2yn'
loop_
_symmetry_equiv_pos_site_id
_symmetry_equiv_pos_as_xyz
1 x,y,z
2 1/2-x,1/2+y,1/2-z
3 -x,-y,-z
4 1/2+x,1/2-y,1/2+z
_cell_length_a                   9.557(3)
_cell_length_b                   23.235(6)
_cell_length_c                   11.772(5)
_cell_angle_alpha                90
_cell_angle_beta                 101.48(4)
_cell_angle_gamma                90
_cell_volume                     2561.76
loop_
_atom_site_label
_atom_site_type_symbol
_atom_site_fract_x
_atom_site_fract_y
_atom_site_fract_z
Mo1 Mo 0.24852(7) 0.35233(3) 0.53718(6)
Cu1 Cu 0.40512(10) 0.25912(4) 0.59193(9)
Ni1 Ni 0.28366(8) 0.38461(3) 0.24680(7)
S1 S 0.1773(2) 0.26078(9) 0.5089(2)
S2 S 0.4815(2) 0.34960(9) 0.6182(2)
O1 O 0.2229(5) 0.3893(2) 0.4052(4)
O2 O 0.1566(6) 0.3866(2) 0.6301(5)
N1 N 0.5990(7) 0.1570(3) 0.6643(6)
N2 N 0.4032(6) 0.3058(2) 0.2716(5)
N3 N 0.4965(6) 0.4131(2) 0.3376(5)
N4 N 0.1995(6) 0.4683(2) 0.1954(5)
N5 N 0.3557(6) 0.4014(2) 0.0828(5)
C1 C 0.5228(8) 0.1942(4) 0.6349(7)
C2 C 0.3567(9) 0.2542(3) 0.2392(7)
H1 H 0.2606(9) 0.2495(3) 0.2061(7)
C3 C 0.4455(10) 0.2061(3) 0.2524(7)
H2 H 0.4085(10) 0.1701(3) 0.2285(7)
C4 C 0.5859(10) 0.2120(3) 0.3001(7)
H3 H 0.6463(10) 0.1802(3) 0.3082(7)
C5 C 0.6387(8) 0.2661(3) 0.3369(7)
C6 C 0.7850(10) 0.2775(5) 0.3896(9)
H4 H 0.8504(10) 0.2474(5) 0.3996(9)
C7 C 0.8291(10) 0.3300(5) 0.4244(10)
H5 H 0.9244(10) 0.3355(5) 0.4592(10)
C8 C 0.7360(8) 0.3775(4) 0.4102(7)
C9 C 0.7779(9) 0.4320(4) 0.4509(8)
H6 H 0.8717(9) 0.4389(4) 0.4882(8)
C10 C 0.6810(9) 0.4754(4) 0.4358(7)
H7 H 0.7075(9) 0.5119(4) 0.4642(7)
C11 C 0.5408(8) 0.4648(3) 0.3771(6)
H8 H 0.4763(8) 0.4953(3) 0.3654(6)
C12 C 0.5924(7) 0.3698(3) 0.3563(6)
C13 C 0.5433(7) 0.3131(3) 0.3204(6)
C14 C 0.4345(8) 0.3687(3) 0.0260(7)
H9 H 0.4707(8) 0.3343(3) 0.0603(7)
C15 C 0.4655(8) 0.3826(3) -0.0797(7)
H10 H 0.5200(8) 0.3580(3) -0.1156(7)
C16 C 0.4148(8) 0.4333(4) -0.1312(7)
H11 H 0.4338(8) 0.4434(4) -0.2031(7)
C17 C 0.3342(8) 0.4697(3) -0.0745(6)
C18 C 0.2797(8) 0.5249(4) -0.1212(7)
H12 H 0.3000(8) 0.5377(4) -0.1910(7)
C19 C 0.1992(8) 0.5581(3) -0.0639(7)
H13 H 0.1640(8) 0.5931(3) -0.0956(7)
C20 C 0.1682(7) 0.5401(3) 0.0432(6)
C21 C 0.0804(8) 0.5710(3) 0.1023(7)
H14 H 0.0395(8) 0.6054(3) 0.0720(7)
C22 C 0.0544(8) 0.5503(3) 0.2062(7)
H15 H -0.0042(8) 0.5704(3) 0.2467(7)
C23 C 0.1166(8) 0.4998(3) 0.2478(7)
H16 H 0.0993(8) 0.4866(3) 0.3183(7)
C24 C 0.2236(7) 0.4875(3) 0.0922(6)
C25 C 0.3078(7) 0.4520(3) 0.0322(6)
Ni1C Ni 0.78366(8) 0.11539(3) 0.74680(7)
N1C N 0.0990(7) 0.3430(3) 0.1643(6)
loop_
_geom_bond_atom_site_label_1
_geom_bond_atom_site_label_2
_geom_bond_site_symmetry_1
_geom_bond_site_symmetry_2
Mo1 Cu1 1_555 1_555
Cu1 S1 1_555 1_555
Ni1 O1 1_555 1_555
S1 Mo1 1_555 1_555
S2 Mo1 1_555 1_555
O1 Mo1 1_555 1_555
O2 Mo1 1_555 1_555
N1 C1 1_555 1_555
N2 Ni1 1_555 1_555
N3 Ni1 1_555 1_555
N4 Ni1 1_555 1_555
N5 Ni1 1_555 1_555
C1 Cu1 1_555 1_555
C2 N2 1_555 1_555
H1 C2 1_555 1_555
C3 C2 1_555 1_555
H2 C3 1_555 1_555
C4 C3 1_555 1_555
H3 C4 1_555 1_555
C5 C4 1_555 1_555
C6 C5 1_555 1_555
H4 C6 1_555 1_555
C7 C6 1_555 1_555
H5 C7 1_555 1_555
C8 C7 1_555 1_555
C9 C8 1_555 1_555
H6 C9 1_555 1_555
C10 C9 1_555 1_555
H7 C10 1_555 1_555
C11 N3 1_555 1_555
H8 C11 1_555 1_555
C12 N3 1_555 1_555
C13 N2 1_555 1_555
C14 N5 1_555 1_555
H9 C14 1_555 1_555
C15 C14 1_555 1_555
H10 C15 1_555 1_555
C16 C15 1_555 1_555
H11 C16 1_555 1_555
C17 C16 1_555 1_555
C18 C17 1_555 1_555
H12 C18 1_555 1_555
C19 C18 1_555 1_555
H13 C19 1_555 1_555
C20 C19 1_555 1_555
C21 C20 1_555 1_555
H14 C21 1_555 1_555
C22 C21 1_555 1_555
H15 C22 1_555 1_555
C23 N4 1_555 1_555
H16 C23 1_555 1_555
C24 N4 1_555 1_555
C25 N5 1_555 1_555
Ni1C N1 1_555 1_555
N1C Ni1 1_555 1_555
Cu1 S2 1_555 1_555
C5 C13 1_555 1_555
C8 C12 1_555 1_555
C10 C11 1_555 1_555
C12 C13 1_555 1_555
C17 C25 1_555 1_555
C20 C24 1_555 1_555
C22 C23 1_555 1_555
C24 C25 1_555 1_555

#END
