
#######################################################################
#
#                 Cambridge Crystallographic Data Centre
#                                CCDC 
#
#######################################################################
#
# If this CIF has been generated from an entry in the Cambridge 
# Structural Database, then it will include bibliographic, chemical, 
# crystal, experimental, refinement or atomic coordinate data resulting 
# from the CCDC's data processing and validation procedures.
#
#######################################################################

data_BIFWIY
_symmetry_cell_setting           monoclinic
_symmetry_space_group_name_H-M   'C 2/c'
_symmetry_Int_Tables_number      15
_space_group_name_Hall           '-C 2yn'
loop_
_symmetry_equiv_pos_site_id
_symmetry_equiv_pos_as_xyz
1 x,y,z
2 -x,y,1/2-z
3 1/2+x,1/2+y,z
4 1/2-x,1/2+y,1/2-z
5 -x,-y,-z
6 x,-y,1/2+z
7 1/2-x,1/2-y,-z
8 1/2+x,1/2-y,1/2+z
_cell_length_a                   18.035(3)
_cell_length_b                   24.643(4)
_cell_length_c                   8.7660(13)
_cell_angle_alpha                90
_cell_angle_beta                 102.609(2)
_cell_angle_gamma                90
_cell_volume                     3801.97
loop_
_atom_site_label
_atom_site_type_symbol
_atom_site_fract_x
_atom_site_fract_y
_atom_site_fract_z
Mn1 Mn 0.0000 0.230371(11) 0.2500
P1 P 0.111441(18) 0.129548(13) 0.16377(4)
O1 O 0.05686(6) 0.17557(4) 0.13351(11)
O2 O 0.13962(6) 0.11930(4) 0.34295(10)
H1 H 0.1653 0.0916 0.3568
O3 O 0.18075(5) 0.14093(4) 0.09061(11)
H2 H 0.2133 0.1177 0.1195
N1 N 0.08377(6) 0.24402(4) 0.48179(13)
N2 N 0.08391(7) 0.29512(5) 0.21368(13)
C1 C 0.08009(8) 0.21766(6) 0.61409(16)
H3 H 0.0420 0.1920 0.6109
C2 C 0.13067(9) 0.22709(6) 0.75531(16)
H4 H 0.1268 0.2081 0.8449
C3 C 0.18693(9) 0.26554(6) 0.75922(17)
H5 H 0.2213 0.2731 0.8524
C4 C 0.19180(8) 0.29275(6) 0.62328(17)
H6 H 0.2295 0.3185 0.6241
C5 C 0.13945(8) 0.28091(5) 0.48580(15)
C6 C 0.14190(8) 0.30725(5) 0.33386(15)
C7 C 0.20089(9) 0.34110(6) 0.31497(18)
H7 H 0.2403 0.3493 0.3995
C8 C 0.20010(9) 0.36246(6) 0.16783(18)
H8 H 0.2394 0.3848 0.1525
C9 C 0.14067(9) 0.35032(6) 0.04517(17)
H9 H 0.1388 0.3644 -0.0540
C10 C 0.08380(9) 0.31660(6) 0.07329(17)
H10 H 0.0435 0.3084 -0.0094
C11 C 0.06872(8) 0.06711(5) 0.08359(15)
H11 H 0.1072 0.0389 0.1018
H12 H 0.0298 0.0570 0.1392
C12 C 0.03334(7) 0.06921(5) -0.08924(15)
C13 C -0.04543(8) 0.06985(6) -0.14130(16)
H13 H -0.0762 0.0708 -0.0690
C14 C -0.07835(8) 0.06908(6) -0.30001(16)
H14 H -0.1310 0.0685 -0.3328
P1A P -0.111441(18) 0.129548(13) -0.66377(4)
O1A O -0.05686(6) 0.17557(4) -0.63351(11)
O2A O -0.13962(6) 0.11930(4) -0.84295(10)
H1A H -0.1653 0.0916 -0.8568
O3A O -0.18075(5) 0.14093(4) -0.59061(11)
H2A H -0.2133 0.1177 -0.6195
C11A C -0.06872(8) 0.06711(5) -0.58359(15)
H11A H -0.1072 0.0389 -0.6018
H12A H -0.0298 0.0570 -0.6392
C12A C -0.03334(7) 0.06921(5) -0.41076(15)
C13A C 0.04543(8) 0.06985(6) -0.35870(16)
H13A H 0.0762 0.0708 -0.4310
C14A C 0.07835(8) 0.06908(6) -0.19999(16)
H14A H 0.1310 0.0685 -0.1672
N1A N -0.08377(6) 0.24402(4) 0.01821(13)
N2A N -0.08391(7) 0.29512(5) 0.28632(13)
C1A C -0.08009(8) 0.21766(6) -0.11409(16)
H3A H -0.0420 0.1920 -0.1109
C2A C -0.13067(9) 0.22709(6) -0.25531(16)
H4A H -0.1268 0.2081 -0.3449
C3A C -0.18693(9) 0.26554(6) -0.25922(17)
H5A H -0.2213 0.2731 -0.3524
C4A C -0.19180(8) 0.29275(6) -0.12328(17)
H6A H -0.2295 0.3185 -0.1241
C5A C -0.13945(8) 0.28091(5) 0.01420(15)
C6A C -0.14190(8) 0.30725(5) 0.16614(15)
C7A C -0.20089(9) 0.34110(6) 0.18503(18)
H7A H -0.2403 0.3493 0.1005
C8A C -0.20010(9) 0.36246(6) 0.33217(18)
H8A H -0.2394 0.3848 0.3475
C9A C -0.14067(9) 0.35032(6) 0.45483(17)
H9A H -0.1388 0.3644 0.5540
C10A C -0.08380(9) 0.31660(6) 0.42671(17)
H10A H -0.0435 0.3084 0.5094
Mn1_2 Mn 0.0000 0.230371(11) -0.7500
O1A_2 O -0.05686(6) 0.17557(4) 0.36649(11)
P2 P 0.280855(18) 0.028250(13) 0.28604(4)
O4 O 0.25621(6) -0.02572(4) 0.19532(11)
H15 H 0.2510 -0.0204 0.1012
O5 O 0.28427(5) 0.07424(4) 0.17382(11)
O6 O 0.22760(5) 0.03811(4) 0.39638(11)
C15 C 0.37330(8) 0.01581(6) 0.40819(16)
H16 H 0.3834 0.0436 0.4884
H17 H 0.3720 -0.0188 0.4603
C16 C 0.43847(7) 0.01489(6) 0.32577(15)
C17 C 0.46963(8) 0.06341(6) 0.28760(16)
H18 H 0.4497 0.0962 0.3125
C18 C 0.46953(7) -0.03354(6) 0.28750(15)
H19 H 0.4495 -0.0664 0.3121
P2A P 0.719145(18) 0.028250(13) 0.21396(4)
O4A O 0.74379(6) -0.02572(4) 0.30468(11)
H15A H 0.7490 -0.0204 0.3988
O5A O 0.71573(5) 0.07424(4) 0.32618(11)
O6A O 0.77240(5) 0.03811(4) 0.10362(11)
C15A C 0.62670(8) 0.01581(6) 0.09181(16)
H16A H 0.6166 0.0436 0.0116
H17A H 0.6280 -0.0188 0.0397
C16A C 0.56153(7) 0.01489(6) 0.17423(15)
C17A C 0.53037(8) 0.06341(6) 0.21240(16)
H18A H 0.5503 0.0962 0.1875
C18A C 0.53047(7) -0.03354(6) 0.21250(15)
H19A H 0.5505 -0.0664 0.1879
loop_
_geom_bond_atom_site_label_1
_geom_bond_atom_site_label_2
_geom_bond_site_symmetry_1
_geom_bond_site_symmetry_2
Mn1 O1 1_555 1_555
P1 O1 1_555 1_555
O2 P1 1_555 1_555
H1 O2 1_555 1_555
O3 P1 1_555 1_555
H2 O3 1_555 1_555
N1 Mn1 1_555 1_555
N2 Mn1 1_555 1_555
C1 N1 1_555 1_555
H3 C1 1_555 1_555
C2 C1 1_555 1_555
H4 C2 1_555 1_555
C3 C2 1_555 1_555
H5 C3 1_555 1_555
C4 C3 1_555 1_555
H6 C4 1_555 1_555
C5 N1 1_555 1_555
C6 N2 1_555 1_555
C7 C6 1_555 1_555
H7 C7 1_555 1_555
C8 C7 1_555 1_555
H8 C8 1_555 1_555
C9 C8 1_555 1_555
H9 C9 1_555 1_555
C10 N2 1_555 1_555
H10 C10 1_555 1_555
C11 P1 1_555 1_555
H11 C11 1_555 1_555
H12 C11 1_555 1_555
C12 C11 1_555 1_555
C13 C12 1_555 1_555
H13 C13 1_555 1_555
C14 C13 1_555 1_555
H14 C14 1_555 1_555
P2 O4 1_555 1_555
O4 H15 1_555 1_555
O5 P2 1_555 1_555
O6 P2 1_555 1_555
C15 P2 1_555 1_555
H16 C15 1_555 1_555
H17 C15 1_555 1_555
C16 C15 1_555 1_555
C17 C16 1_555 1_555
H18 C17 1_555 1_555
C18 C16 1_555 1_555
H19 C18 1_555 1_555
P1A O1A 1_555 1_555
O1A Mn1_2 1_555 1_555
O2A P1A 1_555 1_555
H1A O2A 1_555 1_555
O3A P1A 1_555 1_555
H2A O3A 1_555 1_555
C11A P1A 1_555 1_555
H11A C11A 1_555 1_555
H12A C11A 1_555 1_555
C12A C14 1_555 1_555
C13A C12A 1_555 1_555
H13A C13A 1_555 1_555
C14A C12 1_555 1_555
H14A C14A 1_555 1_555
N1A Mn1 1_555 1_555
N2A Mn1 1_555 1_555
C1A N1A 1_555 1_555
H3A C1A 1_555 1_555
C2A C1A 1_555 1_555
H4A C2A 1_555 1_555
C3A C2A 1_555 1_555
H5A C3A 1_555 1_555
C4A C3A 1_555 1_555
H6A C4A 1_555 1_555
C5A N1A 1_555 1_555
C6A N2A 1_555 1_555
C7A C6A 1_555 1_555
H7A C7A 1_555 1_555
C8A C7A 1_555 1_555
H8A C8A 1_555 1_555
C9A C8A 1_555 1_555
H9A C9A 1_555 1_555
C10A N2A 1_555 1_555
H10A C10A 1_555 1_555
O1A_2 Mn1 1_555 1_555
P2A O4A 1_555 1_555
O4A H15A 1_555 1_555
O5A P2A 1_555 1_555
O6A P2A 1_555 1_555
C15A P2A 1_555 1_555
H16A C15A 1_555 1_555
H17A C15A 1_555 1_555
C16A C15A 1_555 1_555
C17A C17 1_555 1_555
H18A C17A 1_555 1_555
C18A C18 1_555 1_555
H19A C18A 1_555 1_555
C4 C5 1_555 1_555
C5 C6 1_555 1_555
C9 C10 1_555 1_555
C11A C12A 1_555 1_555
C13A C14A 1_555 1_555
C4A C5A 1_555 1_555
C5A C6A 1_555 1_555
C9A C10A 1_555 1_555
C16A C17A 1_555 1_555
C16A C18A 1_555 1_555

#END
