
#######################################################################
#
#                 Cambridge Crystallographic Data Centre
#                                CCDC 
#
#######################################################################
#
# If this CIF has been generated from an entry in the Cambridge 
# Structural Database, then it will include bibliographic, chemical, 
# crystal, experimental, refinement or atomic coordinate data resulting 
# from the CCDC's data processing and validation procedures.
#
#######################################################################

data_BIFWEU
_symmetry_cell_setting           triclinic
_symmetry_space_group_name_H-M   'P -1'
_symmetry_Int_Tables_number      2
_space_group_name_Hall           '-P 1'
loop_
_symmetry_equiv_pos_site_id
_symmetry_equiv_pos_as_xyz
1 x,y,z
2 -x,-y,-z
_cell_length_a                   7.6596(14)
_cell_length_b                   10.843(2)
_cell_length_c                   11.025(2)
_cell_angle_alpha                96.309(4)
_cell_angle_beta                 91.689(4)
_cell_angle_gamma                94.815(4)
_cell_volume                     906.21
loop_
_atom_site_label
_atom_site_type_symbol
_atom_site_fract_x
_atom_site_fract_y
_atom_site_fract_z
Mn1 Mn 0.24415(3) 0.97071(2) 0.65269(2)
P1 P -0.34577(5) 0.14824(4) 0.62463(4)
P2 P -0.14046(5) 0.82220(4) 0.54121(4)
O1 O -0.12498(15) 0.88075(10) 0.42256(10)
O2 O -0.47797(15) 0.04345(10) 0.64818(11)
O3 O -0.01560(15) 0.87575(10) 0.64406(10)
O4 O -0.29565(15) 0.15762(10) 0.49572(10)
O5 O -0.17472(15) 0.13660(11) 0.70543(11)
H1 H -0.0924 0.1249 0.6609
O6 O -0.33516(14) 0.82096(11) 0.58363(11)
H2 H -0.3624 0.8927 0.5960
N1 N 0.22247(17) 1.06624(13) 0.84628(12)
N2 N 0.33561(18) 0.84204(13) 0.78919(12)
C1 C 0.1669(2) 1.17952(16) 0.87024(15)
H3 H 0.1494 1.2260 0.8056
C2 C 0.1340(2) 1.23088(16) 0.98695(16)
H4 H 0.0957 1.3103 1.0003
C3 C 0.1589(2) 1.16215(17) 1.08324(16)
H5 H 0.1356 1.1938 1.1624
C4 C 0.2188(2) 1.04575(16) 1.06026(15)
H6 H 0.2381 0.9983 1.1239
C5 C 0.2501(2) 1.00023(15) 0.94053(15)
C6 C 0.3168(2) 0.87651(15) 0.90850(15)
C7 C 0.3602(2) 0.80028(17) 0.99664(16)
H7 H 0.3452 0.8248 1.0789
C8 C 0.4258(2) 0.68805(17) 0.96043(16)
H8 H 0.4550 0.6359 1.0180
C9 C 0.4478(2) 0.65381(16) 0.83813(16)
H9 H 0.4937 0.5792 0.8118
C10 C 0.3998(2) 0.73315(15) 0.75558(15)
H10 H 0.4129 0.7097 0.6729
C11 C -0.1206(2) 0.65844(14) 0.50188(15)
H11 H -0.2088 0.6274 0.4385
H12 H -0.0069 0.6491 0.4672
C12 C -0.1389(2) 0.57703(14) 0.60405(15)
C13 C -0.0158(2) 0.59380(15) 0.70120(16)
H13 H 0.0739 0.6576 0.7045
C14 C -0.0258(2) 0.51605(15) 0.79306(16)
H14 H 0.0570 0.5280 0.8576
C15 C -0.1591(2) 0.42051(15) 0.78895(15)
H15 H -0.1649 0.3685 0.8506
C16 C -0.2843(2) 0.40218(14) 0.69292(14)
C17 C -0.2726(2) 0.48127(14) 0.60158(14)
H16 H -0.3560 0.4699 0.5374
C18 C -0.4238(2) 0.29427(14) 0.68559(15)
H17 H -0.4661 0.2863 0.7667
H18 H -0.5218 0.3119 0.6344
Mn1_2 Mn -0.75585(3) -0.02929(2) 0.65269(2)
Mn1A Mn -0.24415(3) 0.02929(2) 0.34731(2)
Mn1A_2 Mn -0.24415(3) 1.02929(2) 0.34731(2)
O1A O 0.12498(15) 1.11925(10) 0.57744(10)
O2_2 O 0.52203(15) 1.04345(10) 0.64818(11)
O4A O 0.29565(15) 0.84238(10) 0.50428(10)
loop_
_geom_bond_atom_site_label_1
_geom_bond_atom_site_label_2
_geom_bond_site_symmetry_1
_geom_bond_site_symmetry_2
Mn1 O3 1_555 1_555
P1 O2 1_555 1_555
P2 O1 1_555 1_555
O1 Mn1A_2 1_555 1_555
O2 Mn1_2 1_555 1_555
O3 P2 1_555 1_555
O4 P1 1_555 1_555
O5 P1 1_555 1_555
H1 O5 1_555 1_555
O6 P2 1_555 1_555
H2 O6 1_555 1_555
N1 Mn1 1_555 1_555
N2 Mn1 1_555 1_555
C1 N1 1_555 1_555
H3 C1 1_555 1_555
C2 C1 1_555 1_555
H4 C2 1_555 1_555
C3 C2 1_555 1_555
H5 C3 1_555 1_555
C4 C3 1_555 1_555
H6 C4 1_555 1_555
C5 N1 1_555 1_555
C6 N2 1_555 1_555
C7 C6 1_555 1_555
H7 C7 1_555 1_555
C8 C7 1_555 1_555
H8 C8 1_555 1_555
C9 C8 1_555 1_555
H9 C9 1_555 1_555
C10 N2 1_555 1_555
H10 C10 1_555 1_555
C11 P2 1_555 1_555
H11 C11 1_555 1_555
H12 C11 1_555 1_555
C12 C11 1_555 1_555
C13 C12 1_555 1_555
H13 C13 1_555 1_555
C14 C13 1_555 1_555
H14 C14 1_555 1_555
C15 C14 1_555 1_555
H15 C15 1_555 1_555
C16 C15 1_555 1_555
C17 C12 1_555 1_555
H16 C17 1_555 1_555
C18 P1 1_555 1_555
H17 C18 1_555 1_555
H18 C18 1_555 1_555
Mn1A O4 1_555 1_555
O1A Mn1 1_555 1_555
O2_2 Mn1 1_555 1_555
O4A Mn1 1_555 1_555
C4 C5 1_555 1_555
C5 C6 1_555 1_555
C9 C10 1_555 1_555
C16 C17 1_555 1_555
C16 C18 1_555 1_555

#END
