
#######################################################################
#
#                 Cambridge Crystallographic Data Centre
#                                CCDC 
#
#######################################################################
#
# If this CIF has been generated from an entry in the Cambridge 
# Structural Database, then it will include bibliographic, chemical, 
# crystal, experimental, refinement or atomic coordinate data resulting 
# from the CCDC's data processing and validation procedures.
#
#######################################################################

data_BIFWAQ
_symmetry_cell_setting           monoclinic
_symmetry_space_group_name_H-M   'P 21/n'
_symmetry_Int_Tables_number      14
_space_group_name_Hall           '-P 2yn'
loop_
_symmetry_equiv_pos_site_id
_symmetry_equiv_pos_as_xyz
1 x,y,z
2 1/2-x,1/2+y,1/2-z
3 -x,-y,-z
4 1/2+x,1/2-y,1/2+z
_cell_length_a                   10.4041(15)
_cell_length_b                   14.670(2)
_cell_length_c                   12.4281(19)
_cell_angle_alpha                90
_cell_angle_beta                 103.314(2)
_cell_angle_gamma                90
_cell_volume                     1845.89
loop_
_atom_site_label
_atom_site_type_symbol
_atom_site_fract_x
_atom_site_fract_y
_atom_site_fract_z
Mn1 Mn -0.070355(14) -0.020719(10) 0.673424(12)
P1 P 0.35527(3) 0.305831(18) 0.83702(2)
P2 P 0.16606(2) 0.103955(18) 0.58272(2)
O1 O 0.03255(7) 0.08281(5) 0.60868(6)
O2 O 0.43630(8) 0.37561(5) 0.79221(7)
O3 O 0.22259(8) 0.28410(6) 0.76364(7)
O4 O 0.32833(8) 0.33824(6) 0.95183(7)
H1 H 0.3951 0.3623 0.9890
O5 O 0.18308(8) 0.21003(5) 0.57550(6)
H2 H 0.1971 0.2320 0.6378
O6 O 0.18511(8) 0.06268(6) 0.47656(6)
N1 N -0.24150(8) -0.05937(6) 0.74873(7)
N2 N -0.05666(8) 0.06308(6) 0.82791(7)
C1 C -0.33829(10) -0.11639(7) 0.69913(9)
H3 H -0.3347 -0.1412 0.6310
C2 C -0.44348(11) -0.13993(8) 0.74521(10)
H4 H -0.5093 -0.1791 0.7084
C3 C -0.44781(11) -0.10350(8) 0.84738(10)
H5 H -0.5159 -0.1190 0.8810
C4 C -0.34915(11) -0.04354(8) 0.89891(9)
H6 H -0.3507 -0.0181 0.9671
C5 C -0.24757(10) -0.02209(7) 0.84662(9)
C6 C -0.14247(10) 0.04568(7) 0.89220(8)
C7 C -0.13506(11) 0.09168(8) 0.99169(9)
H7 H -0.1947 0.0785 1.0350
C8 C -0.03757(11) 0.15744(8) 1.02568(9)
H8 H -0.0310 0.1886 1.0919
C9 C 0.04978(11) 0.17566(8) 0.95895(9)
H9 H 0.1159 0.2192 0.9795
C10 C 0.03585(10) 0.12730(7) 0.86079(9)
H10 H 0.0935 0.1401 0.8157
C11 C 0.29816(10) 0.06526(7) 0.69601(8)
H11 H 0.2768 0.0817 0.7655
H12 H 0.3036 -0.0007 0.6934
C12 C 0.43195(10) 0.10536(7) 0.69299(8)
C13 C 0.48842(10) 0.08044(7) 0.60513(9)
H13 H 0.4433 0.0401 0.5520
C14 C 0.61003(10) 0.11434(7) 0.59515(9)
H14 H 0.6449 0.0972 0.5357
C15 C 0.67918(10) 0.17419(7) 0.67500(9)
H15 H 0.7607 0.1973 0.6695
C16 C 0.62480(10) 0.19896(7) 0.76292(9)
H16 H 0.6715 0.2384 0.8165
C17 C 0.50121(10) 0.16616(7) 0.77314(8)
C18 C 0.45009(10) 0.20149(7) 0.86968(8)
H17 H 0.5242 0.2127 0.9316
H18 H 0.3949 0.1552 0.8920
Mn1A Mn 0.570355(14) 0.479281(10) 0.826576(12)
Mn1B Mn 0.070355(14) 0.020719(10) 0.326576(12)
O2A O 0.06370(8) -0.12439(5) 0.70779(7)
O6B O -0.18511(8) -0.06268(6) 0.52344(6)
loop_
_geom_bond_atom_site_label_1
_geom_bond_atom_site_label_2
_geom_bond_site_symmetry_1
_geom_bond_site_symmetry_2
Mn1 O1 1_555 1_555
P1 O2 1_555 1_555
P2 O1 1_555 1_555
O2 Mn1A 1_555 1_555
O3 P1 1_555 1_555
O4 P1 1_555 1_555
H1 O4 1_555 1_555
O5 P2 1_555 1_555
H2 O5 1_555 1_555
O6 P2 1_555 1_555
N1 Mn1 1_555 1_555
N2 Mn1 1_555 1_555
C1 N1 1_555 1_555
H3 C1 1_555 1_555
C2 C1 1_555 1_555
H4 C2 1_555 1_555
C3 C2 1_555 1_555
H5 C3 1_555 1_555
C4 C3 1_555 1_555
H6 C4 1_555 1_555
C5 N1 1_555 1_555
C6 N2 1_555 1_555
C7 C6 1_555 1_555
H7 C7 1_555 1_555
C8 C7 1_555 1_555
H8 C8 1_555 1_555
C9 C8 1_555 1_555
H9 C9 1_555 1_555
C10 N2 1_555 1_555
H10 C10 1_555 1_555
C11 P2 1_555 1_555
H11 C11 1_555 1_555
H12 C11 1_555 1_555
C12 C11 1_555 1_555
C13 C12 1_555 1_555
H13 C13 1_555 1_555
C14 C13 1_555 1_555
H14 C14 1_555 1_555
C15 C14 1_555 1_555
H15 C15 1_555 1_555
C16 C15 1_555 1_555
H16 C16 1_555 1_555
C17 C12 1_555 1_555
C18 P1 1_555 1_555
H17 C18 1_555 1_555
H18 C18 1_555 1_555
Mn1B O6 1_555 1_555
O2A Mn1 1_555 1_555
O6B Mn1 1_555 1_555
C4 C5 1_555 1_555
C5 C6 1_555 1_555
C9 C10 1_555 1_555
C16 C17 1_555 1_555
C17 C18 1_555 1_555

#END
