
#######################################################################
#
#                 Cambridge Crystallographic Data Centre
#                                CCDC 
#
#######################################################################
#
# If this CIF has been generated from an entry in the Cambridge 
# Structural Database, then it will include bibliographic, chemical, 
# crystal, experimental, refinement or atomic coordinate data resulting 
# from the CCDC's data processing and validation procedures.
#
#######################################################################

data_BIFXUL
_symmetry_cell_setting           monoclinic
_symmetry_space_group_name_H-M   'C 2/c'
_symmetry_Int_Tables_number      15
_space_group_name_Hall           '-C 2yn'
loop_
_symmetry_equiv_pos_site_id
_symmetry_equiv_pos_as_xyz
1 x,y,z
2 -x,y,1/2-z
3 1/2+x,1/2+y,z
4 1/2-x,1/2+y,1/2-z
5 -x,-y,-z
6 x,-y,1/2+z
7 1/2-x,1/2-y,-z
8 1/2+x,1/2-y,1/2+z
_cell_length_a                   18.2825(11)
_cell_length_b                   25.5632(16)
_cell_length_c                   8.5534(5)
_cell_angle_alpha                90
_cell_angle_beta                 96.5220(10)
_cell_angle_gamma                90
_cell_volume                     3971.64
loop_
_atom_site_label
_atom_site_type_symbol
_atom_site_fract_x
_atom_site_fract_y
_atom_site_fract_z
Co1 Co 0.0000 0.217978(10) 0.7500
P1 P 0.110750(18) 0.120050(13) 0.65676(4)
O1 O 0.05915(5) 0.16517(4) 0.63448(11)
O2 O 0.18169(5) 0.13140(4) 0.57732(11)
H1 H 0.2133 0.1096 0.6065
O3 O 0.13222(5) 0.10788(4) 0.83434(11)
H2 H 0.1593 0.0822 0.8433
N1 N 0.07225(6) 0.22594(5) 0.96253(13)
N2 N 0.07370(6) 0.27916(4) 0.68980(14)
C1 C 0.07050(8) 0.19985(6) 1.09662(16)
H3 H 0.0362 0.1731 1.0999
C2 C 0.11810(8) 0.21085(6) 1.23379(17)
H4 H 0.1152 0.1917 1.3253
C3 C 0.16892(8) 0.25031(6) 1.23031(17)
H5 H 0.2006 0.2584 1.3200
C4 C 0.17273(8) 0.27856(6) 1.08951(17)
C5 C 0.22547(8) 0.31923(6) 1.07425(18)
H6 H 0.2584 0.3284 1.1609
C6 C 0.22818(8) 0.34446(6) 0.93601(18)
H7 H 0.2635 0.3703 0.9287
C7 C 0.17752(8) 0.33204(5) 0.80042(17)
C8 C 0.17787(8) 0.35710(6) 0.65341(17)
H8 H 0.2123 0.3830 0.6402
C9 C 0.12710(8) 0.34291(6) 0.53015(17)
H9 H 0.1268 0.3590 0.4325
C10 C 0.07563(8) 0.30370(6) 0.55375(16)
H10 H 0.0412 0.2945 0.4698
C11 C 0.12441(7) 0.29271(5) 0.81210(16)
C12 C 0.12270(7) 0.26503(5) 0.95867(16)
C13 C 0.07066(8) 0.06088(6) 0.57299(16)
H11 H 0.1089 0.0344 0.5771
H12 H 0.0341 0.0489 0.6385
C14 C 0.03468(7) 0.06468(5) 0.40546(15)
C15 C 0.07642(7) 0.06527(6) 0.27898(17)
H13 H 0.1275 0.0654 0.2973
C16 C 0.04197(7) 0.06563(6) 0.12551(16)
H14 H 0.0704 0.0665 0.0421
P1A P -0.110750(18) 0.120050(13) -0.15676(4)
O1A O -0.05915(5) 0.16517(4) -0.13448(11)
O2A O -0.18169(5) 0.13140(4) -0.07732(11)
H1A H -0.2133 0.1096 -0.1065
O3A O -0.13222(5) 0.10788(4) -0.33434(11)
H2A H -0.1593 0.0822 -0.3433
C13A C -0.07066(8) 0.06088(6) -0.07299(16)
H11A H -0.1089 0.0344 -0.0771
H12A H -0.0341 0.0489 -0.1385
C14A C -0.03468(7) 0.06468(5) 0.09454(15)
C15A C -0.07642(7) 0.06527(6) 0.22102(17)
H13A H -0.1275 0.0654 0.2027
C16A C -0.04197(7) 0.06563(6) 0.37449(16)
H14A H -0.0704 0.0665 0.4579
N1A N -0.07225(6) 0.22594(5) 0.53747(13)
N2A N -0.07370(6) 0.27916(4) 0.81020(14)
C1A C -0.07050(8) 0.19985(6) 0.40338(16)
H3A H -0.0362 0.1731 0.4001
C2A C -0.11810(8) 0.21085(6) 0.26621(17)
H4A H -0.1152 0.1917 0.1747
C3A C -0.16892(8) 0.25031(6) 0.26969(17)
H5A H -0.2006 0.2584 0.1800
C4A C -0.17273(8) 0.27856(6) 0.41049(17)
C5A C -0.22547(8) 0.31923(6) 0.42575(18)
H6A H -0.2584 0.3284 0.3391
C6A C -0.22818(8) 0.34446(6) 0.56399(18)
H7A H -0.2635 0.3703 0.5713
C7A C -0.17752(8) 0.33204(5) 0.69958(17)
C8A C -0.17787(8) 0.35710(6) 0.84659(17)
H8A H -0.2123 0.3830 0.8598
C9A C -0.12710(8) 0.34291(6) 0.96985(17)
H9A H -0.1268 0.3590 1.0675
C10A C -0.07563(8) 0.30370(6) 0.94625(16)
H10A H -0.0412 0.2945 1.0302
C11A C -0.12441(7) 0.29271(5) 0.68790(16)
C12A C -0.12270(7) 0.26503(5) 0.54133(16)
Co1_2 Co 0.0000 0.217978(10) -0.2500
O1A_2 O -0.05915(5) 0.16517(4) 0.86552(11)
P2 P 0.219819(17) 0.474069(14) 0.21353(4)
O4 O 0.21620(5) 0.43114(4) 0.33388(11)
O5 O 0.27771(5) 0.46550(4) 0.10007(11)
O6 O 0.23468(6) 0.52847(4) 0.29735(11)
H15 H 0.2484 0.5238 0.3909
C17 C 0.03220(7) 0.52921(6) 0.21253(16)
H16 H 0.0533 0.5608 0.1879
C18 C 0.06483(7) 0.48248(6) 0.17462(15)
C19 C 0.03201(7) 0.43568(6) 0.21245(16)
H17 H 0.0529 0.4040 0.1874
C20 C 0.13346(7) 0.48183(6) 0.09132(15)
H18 H 0.1353 0.5143 0.0332
H19 H 0.1288 0.4536 0.0151
P2A P -0.219819(17) 0.474069(14) 0.28647(4)
O4A O -0.21620(5) 0.43114(4) 0.16612(11)
O5A O -0.27771(5) 0.46550(4) 0.39993(11)
O6A O -0.23468(6) 0.52847(4) 0.20265(11)
H15A H -0.2484 0.5238 0.1091
C17A C -0.03220(7) 0.52921(6) 0.28747(16)
H16A H -0.0533 0.5608 0.3121
C18A C -0.06483(7) 0.48248(6) 0.32538(15)
C19A C -0.03201(7) 0.43568(6) 0.28755(16)
H17A H -0.0529 0.4040 0.3126
C20A C -0.13346(7) 0.48183(6) 0.40868(15)
H18A H -0.1353 0.5143 0.4668
H19A H -0.1288 0.4536 0.4849
loop_
_geom_bond_atom_site_label_1
_geom_bond_atom_site_label_2
_geom_bond_site_symmetry_1
_geom_bond_site_symmetry_2
Co1 O1 1_555 1_555
P1 O1 1_555 1_555
O2 P1 1_555 1_555
H1 O2 1_555 1_555
O3 P1 1_555 1_555
H2 O3 1_555 1_555
N1 Co1 1_555 1_555
N2 Co1 1_555 1_555
C1 N1 1_555 1_555
H3 C1 1_555 1_555
C2 C1 1_555 1_555
H4 C2 1_555 1_555
C3 C2 1_555 1_555
H5 C3 1_555 1_555
C4 C3 1_555 1_555
C5 C4 1_555 1_555
H6 C5 1_555 1_555
C6 C5 1_555 1_555
H7 C6 1_555 1_555
C7 C6 1_555 1_555
C8 C7 1_555 1_555
H8 C8 1_555 1_555
C9 C8 1_555 1_555
H9 C9 1_555 1_555
C10 N2 1_555 1_555
H10 C10 1_555 1_555
C11 N2 1_555 1_555
C12 N1 1_555 1_555
C13 P1 1_555 1_555
H11 C13 1_555 1_555
H12 C13 1_555 1_555
C14 C13 1_555 1_555
C15 C14 1_555 1_555
H13 C15 1_555 1_555
C16 C15 1_555 1_555
H14 C16 1_555 1_555
P2 O4 1_555 1_555
O5 P2 1_555 1_555
O6 P2 1_555 1_555
H15 O6 1_555 1_555
C17 H16 1_555 1_555
C18 C17 1_555 1_555
C19 C18 1_555 1_555
H17 C19 1_555 1_555
C20 P2 1_555 1_555
H18 C20 1_555 1_555
H19 C20 1_555 1_555
P1A O1A 1_555 1_555
O1A Co1_2 1_555 1_555
O2A P1A 1_555 1_555
H1A O2A 1_555 1_555
O3A P1A 1_555 1_555
H2A O3A 1_555 1_555
C13A P1A 1_555 1_555
H11A C13A 1_555 1_555
H12A C13A 1_555 1_555
C14A C16 1_555 1_555
C15A C14A 1_555 1_555
H13A C15A 1_555 1_555
C16A C14 1_555 1_555
H14A C16A 1_555 1_555
N1A Co1 1_555 1_555
N2A Co1 1_555 1_555
C1A N1A 1_555 1_555
H3A C1A 1_555 1_555
C2A C1A 1_555 1_555
H4A C2A 1_555 1_555
C3A C2A 1_555 1_555
H5A C3A 1_555 1_555
C4A C3A 1_555 1_555
C5A C4A 1_555 1_555
H6A C5A 1_555 1_555
C6A C5A 1_555 1_555
H7A C6A 1_555 1_555
C7A C6A 1_555 1_555
C8A C7A 1_555 1_555
H8A C8A 1_555 1_555
C9A C8A 1_555 1_555
H9A C9A 1_555 1_555
C10A N2A 1_555 1_555
H10A C10A 1_555 1_555
C11A N2A 1_555 1_555
C12A N1A 1_555 1_555
O1A_2 Co1 1_555 1_555
P2A O4A 1_555 1_555
O5A P2A 1_555 1_555
O6A P2A 1_555 1_555
H15A O6A 1_555 1_555
C17A C17 1_555 1_555
H16A C17A 1_555 1_555
C18A C17A 1_555 1_555
C19A C19 1_555 1_555
H17A C19A 1_555 1_555
C20A P2A 1_555 1_555
H18A C20A 1_555 1_555
H19A C20A 1_555 1_555
C4 C12 1_555 1_555
C7 C11 1_555 1_555
C9 C10 1_555 1_555
C11 C12 1_555 1_555
C18 C20 1_555 1_555
C13A C14A 1_555 1_555
C15A C16A 1_555 1_555
C4A C12A 1_555 1_555
C7A C11A 1_555 1_555
C9A C10A 1_555 1_555
C11A C12A 1_555 1_555
C18A C19A 1_555 1_555
C18A C20A 1_555 1_555

#END
