
#######################################################################
#
#                 Cambridge Crystallographic Data Centre
#                                CCDC 
#
#######################################################################
#
# If this CIF has been generated from an entry in the Cambridge 
# Structural Database, then it will include bibliographic, chemical, 
# crystal, experimental, refinement or atomic coordinate data resulting 
# from the CCDC's data processing and validation procedures.
#
#######################################################################

data_BIFXAR
_symmetry_cell_setting           triclinic
_symmetry_space_group_name_H-M   'P -1'
_symmetry_Int_Tables_number      2
_space_group_name_Hall           '-P 1'
loop_
_symmetry_equiv_pos_site_id
_symmetry_equiv_pos_as_xyz
1 x,y,z
2 -x,-y,-z
_cell_length_a                   7.6118(4)
_cell_length_b                   10.8203(6)
_cell_length_c                   10.8610(6)
_cell_angle_alpha                95.9570(10)
_cell_angle_beta                 92.4070(10)
_cell_angle_gamma                94.2100(10)
_cell_volume                     886.191
loop_
_atom_site_label
_atom_site_type_symbol
_atom_site_fract_x
_atom_site_fract_y
_atom_site_fract_z
Co1 Co 0.24718(2) 0.469463(16) 0.156738(15)
P1 P 0.34823(4) 0.35414(3) -0.12363(3)
P2 P 0.13482(4) -0.32797(3) -0.04658(3)
O1 O 0.12593(12) -0.38894(9) 0.07311(9)
O2 O 0.29920(12) 0.34857(9) 0.00798(9)
O3 O 0.48251(12) 0.45577(9) -0.15142(9)
O4 O 0.17504(12) 0.36656(9) -0.20651(9)
H1 H 0.0933 0.3807 -0.1616
O5 O 0.00522(12) -0.37870(9) -0.15094(9)
O6 O 0.32846(12) -0.32480(9) -0.09334(9)
H2 H 0.3582 -0.3962 -0.1058
N1 N 0.22383(15) 0.56665(11) 0.33718(10)
N2 N 0.33626(14) 0.34272(11) 0.28206(11)
C1 C 0.17190(18) 0.68204(13) 0.35935(13)
H3 H 0.1557 0.7283 0.2928
C2 C 0.14122(19) 0.73547(13) 0.47748(13)
H4 H 0.1058 0.8161 0.4897
C3 C 0.16428(19) 0.66677(14) 0.57705(13)
H5 H 0.1419 0.6998 0.6568
C4 C 0.22123(19) 0.54798(14) 0.55558(13)
H6 H 0.2393 0.5005 0.6209
C5 C 0.25100(17) 0.50089(13) 0.43447(13)
C6 C 0.31628(17) 0.37607(13) 0.40322(13)
C7 C 0.3565(2) 0.29812(14) 0.49325(13)
H7 H 0.3400 0.3221 0.5764
C8 C 0.4216(2) 0.18433(14) 0.45690(14)
H8 H 0.4493 0.1310 0.5155
C9 C 0.44497(19) 0.15098(13) 0.33235(14)
H9 H 0.4901 0.0757 0.3059
C10 C 0.39954(17) 0.23246(13) 0.24808(13)
H10 H 0.4135 0.2097 0.1643
C11 C 0.42436(17) 0.20484(12) -0.18053(12)
H11 H 0.4706 0.2111 -0.2617
H12 H 0.5204 0.1863 -0.1256
C12 C 0.28298(17) 0.09798(12) -0.19025(12)
C13 C 0.26892(17) 0.01653(12) -0.09902(12)
H13 H 0.3510 0.0264 -0.0322
C14 C 0.15894(19) 0.08209(13) -0.29038(13)
H14 H 0.1660 0.1356 -0.3520
C15 C 0.02542(19) -0.01316(13) -0.29827(13)
H15 H -0.0568 -0.0230 -0.3650
C16 C 0.01366(18) -0.09395(13) -0.20705(13)
H16 H -0.0756 -0.1581 -0.2137
C17 C 0.13457(18) -0.07960(12) -0.10556(13)
C18 C 0.11353(18) -0.16386(12) -0.00384(13)
H17 H -0.0018 -0.1548 0.0292
H18 H 0.2008 -0.1348 0.0625
Co1_2 Co 0.24718(2) -0.530537(16) 0.156738(15)
Co1A Co -0.24718(2) -0.469463(16) -0.156738(15)
Co1A_2 Co 0.75282(2) 0.530537(16) -0.156738(15)
O1_2 O 0.12593(12) 0.61106(9) 0.07311(9)
O3A O 0.51749(12) 0.54423(9) 0.15142(9)
O5A O -0.00522(12) 0.37870(9) 0.15094(9)
loop_
_geom_bond_atom_site_label_1
_geom_bond_atom_site_label_2
_geom_bond_site_symmetry_1
_geom_bond_site_symmetry_2
Co1 O2 1_555 1_555
P1 O2 1_555 1_555
P2 O1 1_555 1_555
O1 Co1_2 1_555 1_555
O3 P1 1_555 1_555
O4 P1 1_555 1_555
H1 O4 1_555 1_555
O5 P2 1_555 1_555
O6 P2 1_555 1_555
H2 O6 1_555 1_555
N1 Co1 1_555 1_555
N2 Co1 1_555 1_555
C1 N1 1_555 1_555
H3 C1 1_555 1_555
C2 C1 1_555 1_555
H4 C2 1_555 1_555
C3 C2 1_555 1_555
H5 C3 1_555 1_555
C4 C3 1_555 1_555
H6 C4 1_555 1_555
C5 N1 1_555 1_555
C6 N2 1_555 1_555
C7 C6 1_555 1_555
H7 C7 1_555 1_555
C8 C7 1_555 1_555
H8 C8 1_555 1_555
C9 C8 1_555 1_555
H9 C9 1_555 1_555
C10 N2 1_555 1_555
H10 C10 1_555 1_555
C11 P1 1_555 1_555
H11 C11 1_555 1_555
H12 C11 1_555 1_555
C12 C11 1_555 1_555
C13 C12 1_555 1_555
H13 C13 1_555 1_555
C14 C12 1_555 1_555
H14 C14 1_555 1_555
C15 C14 1_555 1_555
H15 C15 1_555 1_555
C16 C15 1_555 1_555
H16 C16 1_555 1_555
C17 C13 1_555 1_555
C18 P2 1_555 1_555
H17 C18 1_555 1_555
H18 C18 1_555 1_555
Co1A O5 1_555 1_555
Co1A_2 O3 1_555 1_555
O1_2 Co1 1_555 1_555
O3A Co1 1_555 1_555
O5A Co1 1_555 1_555
C4 C5 1_555 1_555
C5 C6 1_555 1_555
C9 C10 1_555 1_555
C16 C17 1_555 1_555
C17 C18 1_555 1_555

#END
