
#######################################################################
#
#                 Cambridge Crystallographic Data Centre
#                                CCDC 
#
#######################################################################
#
# If this CIF has been generated from an entry in the Cambridge 
# Structural Database, then it will include bibliographic, chemical, 
# crystal, experimental, refinement or atomic coordinate data resulting 
# from the CCDC's data processing and validation procedures.
#
#######################################################################

data_BIFXEV
_symmetry_cell_setting           monoclinic
_symmetry_space_group_name_H-M   'P 21/n'
_symmetry_Int_Tables_number      14
_space_group_name_Hall           '-P 2yn'
loop_
_symmetry_equiv_pos_site_id
_symmetry_equiv_pos_as_xyz
1 x,y,z
2 1/2-x,1/2+y,1/2-z
3 -x,-y,-z
4 1/2+x,1/2-y,1/2+z
_cell_length_a                   10.3139(8)
_cell_length_b                   14.5501(11)
_cell_length_c                   12.6700(9)
_cell_angle_alpha                90
_cell_angle_beta                 104.161(2)
_cell_angle_gamma                90
_cell_volume                     1843.59
loop_
_atom_site_label
_atom_site_type_symbol
_atom_site_fract_x
_atom_site_fract_y
_atom_site_fract_z
Co1 Co 0.57617(2) 1.016176(16) 0.832339(18)
P1 P 0.33630(4) 0.89945(3) 0.91967(3)
P2 P 0.14124(4) 0.68816(3) 0.67174(3)
O1 O 0.47139(12) 0.91916(8) 0.89617(9)
O2 O 0.05413(13) 0.61921(8) 0.71085(10)
O3 O 0.31674(13) 0.94302(9) 1.02231(10)
O4 O 0.31857(13) 0.79303(8) 0.92963(10)
H1 H 0.3026 0.7697 0.8689
O5 O 0.27377(12) 0.70737(9) 0.74968(10)
O6 O 0.17415(13) 0.65616(9) 0.56140(10)
H2 H 0.1069 0.6340 0.5211
N1 N 0.54871(15) 0.93791(10) 0.68625(11)
N2 N 0.73771(15) 1.06152(10) 0.76657(11)
C1 C 0.45811(18) 0.87302(12) 0.64987(14)
H3 H 0.3998 0.8571 0.6924
C2 C 0.44620(19) 0.82725(12) 0.55030(14)
H4 H 0.3801 0.7831 0.5274
C3 C 0.53272(19) 0.84809(12) 0.48702(14)
H5 H 0.5257 0.8187 0.4207
C4 C 0.63272(18) 0.91501(12) 0.52452(14)
C5 C 0.73003(19) 0.94018(12) 0.46566(14)
H6 H 0.7268 0.9134 0.3984
C6 C 0.82626(18) 1.00255(12) 0.50720(14)
H7 H 0.8880 1.0181 0.4676
C7 C 0.83544(18) 1.04540(12) 0.61086(14)
C8 C 0.93849(18) 1.10631(12) 0.66146(15)
H8 H 1.0045 1.1230 0.6266
C9 C 0.94024(18) 1.14070(12) 0.76274(15)
H9 H 1.0091 1.1794 0.7979
C10 C 0.83780(18) 1.11723(12) 0.81272(14)
H10 H 0.8398 1.1416 0.8810
C11 C 0.73857(17) 1.02453(11) 0.66815(13)
C12 C 0.63550(17) 0.95818(11) 0.62441(13)
C13 C 0.20136(17) 0.93662(12) 0.80684(13)
H11 H 0.1944 1.0031 0.8087
H12 H 0.2230 0.9199 0.7390
C14 C 0.06718(17) 0.89487(11) 0.80914(13)
C15 C -0.00138(17) 0.83193(11) 0.73120(13)
C16 C -0.12534(18) 0.79809(12) 0.74062(14)
H13 H -0.1724 0.7579 0.6879
C17 C -0.17961(18) 0.82282(12) 0.82637(15)
H14 H -0.2612 0.7986 0.8317
C18 C -0.11107(19) 0.88404(12) 0.90429(15)
H15 H -0.1460 0.9009 0.9626
C19 C 0.01022(18) 0.91983(12) 0.89430(14)
H16 H 0.0549 0.9617 0.9459
C20 C 0.05075(18) 0.79500(11) 0.63775(14)
H17 H 0.1094 0.8403 0.6176
H18 H -0.0239 0.7852 0.5753
Co1A Co -0.07617(2) 0.516176(16) 0.667661(18)
Co1B Co 0.42383(2) 0.983824(16) 1.167661(18)
O2A O 0.44587(13) 1.11921(8) 0.78915(10)
O3B O 0.68326(13) 1.05698(9) 0.97769(10)
loop_
_geom_bond_atom_site_label_1
_geom_bond_atom_site_label_2
_geom_bond_site_symmetry_1
_geom_bond_site_symmetry_2
Co1 O1 1_555 1_555
P1 O1 1_555 1_555
P2 O2 1_555 1_555
O2 Co1A 1_555 1_555
O3 P1 1_555 1_555
O4 P1 1_555 1_555
H1 O4 1_555 1_555
O5 P2 1_555 1_555
O6 P2 1_555 1_555
H2 O6 1_555 1_555
N1 Co1 1_555 1_555
N2 Co1 1_555 1_555
C1 N1 1_555 1_555
H3 C1 1_555 1_555
C2 C1 1_555 1_555
H4 C2 1_555 1_555
C3 C2 1_555 1_555
H5 C3 1_555 1_555
C4 C3 1_555 1_555
C5 C4 1_555 1_555
H6 C5 1_555 1_555
C6 C5 1_555 1_555
H7 C6 1_555 1_555
C7 C6 1_555 1_555
C8 C7 1_555 1_555
H8 C8 1_555 1_555
C9 C8 1_555 1_555
H9 C9 1_555 1_555
C10 N2 1_555 1_555
H10 C10 1_555 1_555
C11 N2 1_555 1_555
C12 N1 1_555 1_555
C13 P1 1_555 1_555
H11 C13 1_555 1_555
H12 C13 1_555 1_555
C14 C13 1_555 1_555
C15 C14 1_555 1_555
C16 C15 1_555 1_555
H13 C16 1_555 1_555
C17 C16 1_555 1_555
H14 C17 1_555 1_555
C18 C17 1_555 1_555
H15 C18 1_555 1_555
C19 C14 1_555 1_555
H16 C19 1_555 1_555
C20 P2 1_555 1_555
H17 C20 1_555 1_555
H18 C20 1_555 1_555
Co1B O3 1_555 1_555
O2A Co1 1_555 1_555
O3B Co1 1_555 1_555
C4 C12 1_555 1_555
C7 C11 1_555 1_555
C9 C10 1_555 1_555
C11 C12 1_555 1_555
C15 C20 1_555 1_555
C18 C19 1_555 1_555

#END
