
#######################################################################
#
#                 Cambridge Crystallographic Data Centre
#                                CCDC 
#
#######################################################################
#
# If this CIF has been generated from an entry in the Cambridge 
# Structural Database, then it will include bibliographic, chemical, 
# crystal, experimental, refinement or atomic coordinate data resulting 
# from the CCDC's data processing and validation procedures.
#
#######################################################################

data_BIFYAS
_symmetry_cell_setting           triclinic
_symmetry_space_group_name_H-M   'P -1'
_symmetry_Int_Tables_number      2
_space_group_name_Hall           '-P 1'
loop_
_symmetry_equiv_pos_site_id
_symmetry_equiv_pos_as_xyz
1 x,y,z
2 -x,-y,-z
_cell_length_a                   10.1252(9)
_cell_length_b                   10.7137(10)
_cell_length_c                   15.4619(14)
_cell_angle_alpha                72.6270(10)
_cell_angle_beta                 72.5630(10)
_cell_angle_gamma                76.6930(10)
_cell_volume                     1508.86
loop_
_atom_site_label
_atom_site_type_symbol
_atom_site_fract_x
_atom_site_fract_y
_atom_site_fract_z
Co1 Co 0.55751(4) 0.80668(4) 0.62908(3)
P1 P 0.72738(7) 0.97449(8) 0.41704(5)
P2 P 1.12682(7) 1.36994(8) 0.41264(5)
O1 O 0.67927(19) 0.9185(2) 0.52130(14)
O2 O 1.27448(18) 1.3509(2) 0.35428(13)
O3 O 0.61866(19) 1.0494(2) 0.36459(14)
O4 O 0.8125(2) 0.8611(2) 0.36761(14)
H1 H 0.8353 0.7953 0.4069
O5 O 1.0541(2) 1.5117(2) 0.36859(14)
H2 H 1.0025 1.5453 0.4105
O6 O 1.10952(19) 1.3552(2) 0.51595(14)
N1 N 0.5917(2) 0.8621(2) 0.74260(17)
N2 N 0.4425(2) 0.6891(2) 0.74934(17)
N3 N 0.4663(2) 0.6921(2) 0.57603(17)
N4 N 0.3942(3) 0.3048(3) 0.76675(18)
N5 N 0.3045(2) 0.5293(3) 0.90516(17)
N6 N 0.2333(3) 0.7930(3) 1.00386(18)
C1 C 0.6818(3) 0.9421(3) 0.7324(2)
H3 H 0.7265 0.9843 0.6722
C2 C 0.7110(3) 0.9648(3) 0.8071(2)
H4 H 0.7737 1.0217 0.7976
C3 C 0.6460(3) 0.9016(3) 0.8964(2)
H5 H 0.6647 0.9150 0.9480
C4 C 0.5523(3) 0.8179(3) 0.9085(2)
H6 H 0.5078 0.7741 0.9682
C5 C 0.5260(3) 0.8006(3) 0.8298(2)
C6 C 0.4332(3) 0.7089(3) 0.8323(2)
C7 C 0.3844(3) 0.5954(3) 0.7401(2)
C8 C 0.3842(3) 0.6070(3) 0.6414(2)
C9 C 0.4702(3) 0.7115(3) 0.4858(2)
H7 H 0.5280 0.7687 0.4411
C10 C 0.3917(3) 0.6497(3) 0.4558(2)
H8 H 0.3972 0.6645 0.3925
C11 C 0.3055(3) 0.5658(3) 0.5226(2)
H9 H 0.2509 0.5237 0.5047
C12 C 0.3004(3) 0.5443(3) 0.6166(2)
H10 H 0.2418 0.4887 0.6622
C13 C 0.3293(3) 0.5022(3) 0.8225(2)
C14 C 0.3008(3) 0.3706(3) 0.8265(2)
C15 C 0.1864(3) 0.3187(3) 0.8915(2)
H11 H 0.1225 0.3682 0.9306
C16 C 0.1694(3) 0.1920(3) 0.8969(2)
H12 H 0.0944 0.1545 0.9406
C17 C 0.2640(3) 0.1220(3) 0.8372(2)
H13 H 0.2550 0.0364 0.8397
C18 C 0.3731(3) 0.1829(3) 0.7731(2)
H14 H 0.4361 0.1362 0.7318
C19 C 0.3460(3) 0.6359(3) 0.9115(2)
C20 C 0.2957(3) 0.6673(3) 1.0040(2)
C21 C 0.3132(3) 0.5708(3) 1.0847(2)
H15 H 0.3551 0.4849 1.0815
C22 C 0.2676(3) 0.6041(4) 1.1694(2)
H16 H 0.2819 0.5426 1.2240
C23 C 0.2001(4) 0.7311(4) 1.1712(2)
H17 H 0.1646 0.7559 1.2275
C24 C 0.1859(3) 0.8211(4) 1.0877(2)
H18 H 0.1405 0.9065 1.0900
C25 C 0.8526(3) 1.0775(3) 0.4074(2)
H19 H 0.8061 1.1358 0.4486
H20 H 0.9275 1.0194 0.4335
C26 C 0.9216(3) 1.1633(3) 0.3147(2)
C27 C 0.9042(3) 1.1588(3) 0.2296(2)
H21 H 0.8498 1.1001 0.2290
C28 C 0.9665(3) 1.2401(3) 0.1458(2)
H22 H 0.9547 1.2351 0.0896
C29 C 1.0462(3) 1.3289(3) 0.1462(2)
H23 H 1.0871 1.3846 0.0904
C30 C 1.0646(3) 1.3342(3) 0.2300(2)
H24 H 1.1179 1.3944 0.2297
C31 C 1.0055(3) 1.2517(3) 0.3147(2)
C32 C 1.0298(3) 1.2525(3) 0.4065(2)
H25 H 1.0767 1.1649 0.4311
H26 H 0.9384 1.2638 0.4495
Co1A Co 0.44249(4) 1.19332(4) 0.37092(3)
Co1A_2 Co 1.44249(4) 1.19332(4) 0.37092(3)
O2A O 0.72552(18) 0.6491(2) 0.64572(13)
O3A O 0.38134(19) 0.9506(2) 0.63541(14)
loop_
_geom_bond_atom_site_label_1
_geom_bond_atom_site_label_2
_geom_bond_site_symmetry_1
_geom_bond_site_symmetry_2
Co1 O1 1_555 1_555
P1 O1 1_555 1_555
P2 O2 1_555 1_555
O2 Co1A_2 1_555 1_555
O3 P1 1_555 1_555
O4 P1 1_555 1_555
H1 O4 1_555 1_555
O5 P2 1_555 1_555
H2 O5 1_555 1_555
O6 P2 1_555 1_555
N1 Co1 1_555 1_555
N2 Co1 1_555 1_555
N3 Co1 1_555 1_555
N4 C14 1_555 1_555
N5 C13 1_555 1_555
N6 C20 1_555 1_555
C1 N1 1_555 1_555
H3 C1 1_555 1_555
C2 C1 1_555 1_555
H4 C2 1_555 1_555
C3 C2 1_555 1_555
H5 C3 1_555 1_555
C4 C3 1_555 1_555
H6 C4 1_555 1_555
C5 N1 1_555 1_555
C6 N2 1_555 1_555
C7 N2 1_555 1_555
C8 N3 1_555 1_555
C9 N3 1_555 1_555
H7 C9 1_555 1_555
C10 C9 1_555 1_555
H8 C10 1_555 1_555
C11 C10 1_555 1_555
H9 C11 1_555 1_555
C12 C8 1_555 1_555
H10 C12 1_555 1_555
C13 C7 1_555 1_555
C14 C13 1_555 1_555
C15 C14 1_555 1_555
H11 C15 1_555 1_555
C16 C15 1_555 1_555
H12 C16 1_555 1_555
C17 C16 1_555 1_555
H13 C17 1_555 1_555
C18 N4 1_555 1_555
H14 C18 1_555 1_555
C19 N5 1_555 1_555
C20 C19 1_555 1_555
C21 C20 1_555 1_555
H15 C21 1_555 1_555
C22 C21 1_555 1_555
H16 C22 1_555 1_555
C23 C22 1_555 1_555
H17 C23 1_555 1_555
C24 N6 1_555 1_555
H18 C24 1_555 1_555
C25 P1 1_555 1_555
H19 C25 1_555 1_555
H20 C25 1_555 1_555
C26 C25 1_555 1_555
C27 C26 1_555 1_555
H21 C27 1_555 1_555
C28 C27 1_555 1_555
H22 C28 1_555 1_555
C29 C28 1_555 1_555
H23 C29 1_555 1_555
C30 C29 1_555 1_555
H24 C30 1_555 1_555
C31 C26 1_555 1_555
C32 P2 1_555 1_555
H25 C32 1_555 1_555
H26 C32 1_555 1_555
Co1A O3 1_555 1_555
O2A Co1 1_555 1_555
O3A Co1 1_555 1_555
C4 C5 1_555 1_555
C5 C6 1_555 1_555
C6 C19 1_555 1_555
C7 C8 1_555 1_555
C11 C12 1_555 1_555
C17 C18 1_555 1_555
C23 C24 1_555 1_555
C30 C31 1_555 1_555
C31 C32 1_555 1_555

#END
