
#######################################################################
#
#                 Cambridge Crystallographic Data Centre
#                                CCDC 
#
#######################################################################
#
# If this CIF has been generated from an entry in the Cambridge 
# Structural Database, then it will include bibliographic, chemical, 
# crystal, experimental, refinement or atomic coordinate data resulting 
# from the CCDC's data processing and validation procedures.
#
#######################################################################

data_BIFYIA
_symmetry_cell_setting           triclinic
_symmetry_space_group_name_H-M   'P -1'
_symmetry_Int_Tables_number      2
_space_group_name_Hall           '-P 1'
loop_
_symmetry_equiv_pos_site_id
_symmetry_equiv_pos_as_xyz
1 x,y,z
2 -x,-y,-z
_cell_length_a                   7.5380(18)
_cell_length_b                   10.783(3)
_cell_length_c                   11.934(3)
_cell_angle_alpha                82.441(6)
_cell_angle_beta                 88.115(6)
_cell_angle_gamma                85.638(6)
_cell_volume                     958.55
loop_
_atom_site_label
_atom_site_type_symbol
_atom_site_fract_x
_atom_site_fract_y
_atom_site_fract_z
Ni1 Ni 0.23389(7) 0.52587(5) 0.14064(5)
P1 P -0.14033(15) 0.66782(11) 0.04955(10)
P2 P -0.35794(15) 1.35060(11) 0.10996(10)
O1 O -0.2977(4) 1.3433(3) -0.0104(3)
O2 O -0.0187(4) 0.6122(3) 0.1434(3)
O3 O -0.4956(4) 1.4543(3) 0.1332(3)
O4 O -0.1238(4) 0.6101(3) -0.0606(3)
O5 O -0.3395(4) 0.6729(3) 0.0937(3)
H1 H -0.3729 0.6016 0.1048
O6 O -0.1896(4) 1.3614(3) 0.1833(3)
H2 H -0.1030 1.3747 0.1413
N1 N 0.3129(5) 0.6453(4) 0.2531(3)
N2 N 0.1970(5) 0.4146(4) 0.2978(3)
C1 C 0.3746(6) 0.7579(4) 0.2289(4)
H3 H 0.3880 0.7910 0.1534
C2 C 0.4210(7) 0.8299(5) 0.3130(4)
H4 H 0.4659 0.9080 0.2929
C3 C 0.3987(7) 0.7828(5) 0.4244(4)
H5 H 0.4277 0.8291 0.4807
C4 C 0.3317(6) 0.6635(5) 0.4538(4)
C5 C 0.3054(7) 0.6070(5) 0.5673(4)
H6 H 0.3300 0.6510 0.6263
C6 C 0.2453(7) 0.4904(5) 0.5917(4)
H7 H 0.2277 0.4561 0.6666
C7 C 0.2091(6) 0.4204(5) 0.5017(4)
C8 C 0.1558(7) 0.2964(5) 0.5204(4)
H8 H 0.1401 0.2564 0.5936
C9 C 0.1273(7) 0.2359(5) 0.4288(4)
H9 H 0.0944 0.1537 0.4399
C10 C 0.1477(6) 0.2976(4) 0.3191(4)
H10 H 0.1261 0.2552 0.2585
C11 C 0.2298(6) 0.4746(4) 0.3878(4)
C12 C 0.2927(6) 0.5983(4) 0.3639(4)
C13 C -0.1109(6) 0.8341(4) 0.0108(4)
H11 H 0.0104 0.8431 -0.0171
H12 H -0.1893 0.8658 -0.0510
C14 C -0.1467(6) 0.9153(4) 0.1045(4)
C15 C -0.2780(6) 1.0141(4) 0.0960(4)
H13 H -0.3493 1.0280 0.0327
C16 C -0.0407(7) 0.8956(4) 0.2006(4)
H14 H 0.0468 0.8297 0.2084
C17 C -0.3051(6) 1.0927(4) 0.1802(4)
C18 C -0.0659(7) 0.9738(5) 0.2836(4)
H15 H 0.0058 0.9603 0.3466
C19 C -0.1961(7) 1.0718(4) 0.2742(4)
H16 H -0.2111 1.1239 0.3305
C20 C -0.4438(6) 1.2025(4) 0.1690(4)
H17 H -0.4963 1.2113 0.2431
H18 H -0.5376 1.1841 0.1212
Ni1_2 Ni -0.76611(7) 1.52587(5) 0.14064(5)
Ni1A Ni -0.23389(7) 0.47413(5) -0.14064(5)
Ni1A_2 Ni -0.23389(7) 1.47413(5) -0.14064(5)
O1A O 0.2977(4) 0.6567(3) 0.0104(3)
O3_2 O 0.5044(4) 0.4543(3) 0.1332(3)
O4A O 0.1238(4) 0.3899(3) 0.0606(3)
loop_
_geom_bond_atom_site_label_1
_geom_bond_atom_site_label_2
_geom_bond_site_symmetry_1
_geom_bond_site_symmetry_2
Ni1 O2 1_555 1_555
P1 O2 1_555 1_555
P2 O1 1_555 1_555
O1 Ni1A_2 1_555 1_555
O3 P2 1_555 1_555
O4 P1 1_555 1_555
O5 P1 1_555 1_555
H1 O5 1_555 1_555
O6 P2 1_555 1_555
H2 O6 1_555 1_555
N1 Ni1 1_555 1_555
N2 Ni1 1_555 1_555
C1 N1 1_555 1_555
H3 C1 1_555 1_555
C2 C1 1_555 1_555
H4 C2 1_555 1_555
C3 C2 1_555 1_555
H5 C3 1_555 1_555
C4 C3 1_555 1_555
C5 C4 1_555 1_555
H6 C5 1_555 1_555
C6 C5 1_555 1_555
H7 C6 1_555 1_555
C7 C6 1_555 1_555
C8 C7 1_555 1_555
H8 C8 1_555 1_555
C9 C8 1_555 1_555
H9 C9 1_555 1_555
C10 N2 1_555 1_555
H10 C10 1_555 1_555
C11 N2 1_555 1_555
C12 N1 1_555 1_555
C13 P1 1_555 1_555
H11 C13 1_555 1_555
H12 C13 1_555 1_555
C14 C13 1_555 1_555
C15 C14 1_555 1_555
H13 C15 1_555 1_555
C16 C14 1_555 1_555
H14 C16 1_555 1_555
C17 C15 1_555 1_555
C18 C16 1_555 1_555
H15 C18 1_555 1_555
C19 C17 1_555 1_555
H16 C19 1_555 1_555
C20 P2 1_555 1_555
H17 C20 1_555 1_555
H18 C20 1_555 1_555
Ni1_2 O3 1_555 1_555
Ni1A O4 1_555 1_555
O1A Ni1 1_555 1_555
O3_2 Ni1 1_555 1_555
O4A Ni1 1_555 1_555
C4 C12 1_555 1_555
C7 C11 1_555 1_555
C9 C10 1_555 1_555
C11 C12 1_555 1_555
C17 C20 1_555 1_555
C18 C19 1_555 1_555

#END
