
#######################################################################
#
#                 Cambridge Crystallographic Data Centre
#                                CCDC 
#
#######################################################################
#
# If this CIF has been generated from an entry in the Cambridge 
# Structural Database, then it will include bibliographic, chemical, 
# crystal, experimental, refinement or atomic coordinate data resulting 
# from the CCDC's data processing and validation procedures.
#
#######################################################################

data_BIFYOG
_symmetry_cell_setting           monoclinic
_symmetry_space_group_name_H-M   'C 2/c'
_symmetry_Int_Tables_number      15
_space_group_name_Hall           '-C 2yn'
loop_
_symmetry_equiv_pos_site_id
_symmetry_equiv_pos_as_xyz
1 x,y,z
2 -x,y,1/2-z
3 1/2+x,1/2+y,z
4 1/2-x,1/2+y,1/2-z
5 -x,-y,-z
6 x,-y,1/2+z
7 1/2-x,1/2-y,-z
8 1/2+x,1/2-y,1/2+z
_cell_length_a                   18.2692(16)
_cell_length_b                   25.477(2)
_cell_length_c                   8.5637(8)
_cell_angle_alpha                90
_cell_angle_beta                 96.733(2)
_cell_angle_gamma                90
_cell_volume                     3958.44
loop_
_atom_site_label
_atom_site_type_symbol
_atom_site_fract_x
_atom_site_fract_y
_atom_site_fract_z
Ni1 Ni 0.0000 0.220157(8) 0.2500
P1 P 0.109990(15) 0.120863(11) 0.15940(3)
O1 O 0.05825(5) 0.16603(3) 0.13837(10)
O2 O 0.13224(4) 0.10800(3) 0.33635(10)
H1 H 0.1589 0.0820 0.3441
O3 O 0.18088(5) 0.13259(4) 0.07994(10)
H2 H 0.2120 0.1100 0.1056
N1 N 0.07215(5) 0.27905(4) 0.18579(12)
N2 N 0.07048(5) 0.22676(4) 0.45806(12)
C1 C 0.07424(7) 0.30334(5) 0.04894(14)
H3 H 0.0398 0.2940 -0.0351
C2 C 0.12621(7) 0.34255(5) 0.02518(15)
H4 H 0.1260 0.3584 -0.0727
C3 C 0.17711(7) 0.35710(5) 0.14844(15)
H5 H 0.2116 0.3831 0.1351
C4 C 0.17659(6) 0.33221(5) 0.29580(15)
C5 C 0.22753(7) 0.34482(5) 0.43109(16)
H6 H 0.2629 0.3706 0.4235
C6 C 0.22484(7) 0.31961(5) 0.57012(16)
H7 H 0.2579 0.3289 0.6567
C7 C 0.17178(7) 0.27894(5) 0.58541(15)
C8 C 0.16791(7) 0.25049(5) 0.72579(15)
H8 H 0.1998 0.2584 0.8155
C9 C 0.11668(7) 0.21102(5) 0.72909(15)
H9 H 0.1138 0.1918 0.8205
C10 C 0.06868(6) 0.20022(5) 0.59188(14)
H10 H 0.0343 0.1734 0.5947
C11 C 0.12150(6) 0.26545(4) 0.45446(13)
C12 C 0.12325(6) 0.29298(4) 0.30772(14)
C13 C 0.07038(7) 0.06133(5) 0.07383(14)
H11 H 0.1089 0.0350 0.0782
H12 H 0.0337 0.0490 0.1385
C14 C 0.03460(6) 0.06522(4) -0.09386(13)
C15 C 0.07652(6) 0.06582(5) -0.21986(14)
H13 H 0.1277 0.0660 -0.2008
C16 C 0.04225(6) 0.06616(5) -0.37409(14)
H14 H 0.0709 0.0670 -0.4569
P1A P -0.109990(15) 0.120863(11) -0.65940(3)
O1A O -0.05825(5) 0.16603(3) -0.63837(10)
O2A O -0.13224(4) 0.10800(3) -0.83635(10)
H1A H -0.1589 0.0820 -0.8441
O3A O -0.18088(5) 0.13259(4) -0.57994(10)
H2A H -0.2120 0.1100 -0.6056
C13A C -0.07038(7) 0.06133(5) -0.57383(14)
H11A H -0.1089 0.0350 -0.5782
H12A H -0.0337 0.0490 -0.6385
C14A C -0.03460(6) 0.06522(4) -0.40614(13)
C15A C -0.07652(6) 0.06582(5) -0.28014(14)
H13A H -0.1277 0.0660 -0.2992
C16A C -0.04225(6) 0.06616(5) -0.12591(14)
H14A H -0.0709 0.0670 -0.0431
N1A N -0.07215(5) 0.27905(4) 0.31421(12)
N2A N -0.07048(5) 0.22676(4) 0.04194(12)
C1A C -0.07424(7) 0.30334(5) 0.45106(14)
H3A H -0.0398 0.2940 0.5351
C2A C -0.12621(7) 0.34255(5) 0.47482(15)
H4A H -0.1260 0.3584 0.5727
C3A C -0.17711(7) 0.35710(5) 0.35156(15)
H5A H -0.2116 0.3831 0.3649
C4A C -0.17659(6) 0.33221(5) 0.20420(15)
C5A C -0.22753(7) 0.34482(5) 0.06891(16)
H6A H -0.2629 0.3706 0.0765
C6A C -0.22484(7) 0.31961(5) -0.07012(16)
H7A H -0.2579 0.3289 -0.1567
C7A C -0.17178(7) 0.27894(5) -0.08541(15)
C8A C -0.16791(7) 0.25049(5) -0.22579(15)
H8A H -0.1998 0.2584 -0.3155
C9A C -0.11668(7) 0.21102(5) -0.22909(15)
H9A H -0.1138 0.1918 -0.3205
C10A C -0.06868(6) 0.20022(5) -0.09188(14)
H10A H -0.0343 0.1734 -0.0947
C11A C -0.12150(6) 0.26545(4) 0.04554(13)
C12A C -0.12325(6) 0.29298(4) 0.19228(14)
Ni1_2 Ni 0.0000 0.220157(8) -0.7500
O1A_2 O -0.05825(5) 0.16603(3) 0.36163(10)
P2 P 0.219722(15) 0.473839(11) 0.71360(3)
O4 O 0.21643(4) 0.43055(3) 0.83313(10)
O5 O 0.23440(5) 0.52845(3) 0.79773(10)
H15 H 0.2470 0.5238 0.8918
O6 O 0.27748(4) 0.46557(3) 0.60011(10)
C17 C 0.13302(6) 0.48168(5) 0.59109(14)
H16 H 0.1348 0.5143 0.5331
H17 H 0.1283 0.4534 0.5149
C18 C 0.06469(6) 0.48235(5) 0.67425(13)
C19 C 0.03207(6) 0.52935(5) 0.71265(14)
H18 H 0.0532 0.5611 0.6883
C20 C 0.03189(6) 0.43537(5) 0.71232(15)
H19 H 0.0527 0.4036 0.6872
P2A P -0.219722(15) 0.473839(11) 0.78640(3)
O4A O -0.21643(4) 0.43055(3) 0.66687(10)
O5A O -0.23440(5) 0.52845(3) 0.70227(10)
H15A H -0.2470 0.5238 0.6082
O6A O -0.27748(4) 0.46557(3) 0.89989(10)
C17A C -0.13302(6) 0.48168(5) 0.90891(14)
H16A H -0.1348 0.5143 0.9669
H17A H -0.1283 0.4534 0.9851
C18A C -0.06469(6) 0.48235(5) 0.82575(13)
C19A C -0.03207(6) 0.52935(5) 0.78735(14)
H18A H -0.0532 0.5611 0.8117
C20A C -0.03189(6) 0.43537(5) 0.78768(15)
H19A H -0.0527 0.4036 0.8128
loop_
_geom_bond_atom_site_label_1
_geom_bond_atom_site_label_2
_geom_bond_site_symmetry_1
_geom_bond_site_symmetry_2
Ni1 O1 1_555 1_555
P1 O1 1_555 1_555
O2 P1 1_555 1_555
H1 O2 1_555 1_555
O3 P1 1_555 1_555
H2 O3 1_555 1_555
N1 Ni1 1_555 1_555
N2 Ni1 1_555 1_555
C1 N1 1_555 1_555
H3 C1 1_555 1_555
C2 C1 1_555 1_555
H4 C2 1_555 1_555
C3 C2 1_555 1_555
H5 C3 1_555 1_555
C4 C3 1_555 1_555
C5 C4 1_555 1_555
H6 C5 1_555 1_555
C6 C5 1_555 1_555
H7 C6 1_555 1_555
C7 C6 1_555 1_555
C8 C7 1_555 1_555
H8 C8 1_555 1_555
C9 C8 1_555 1_555
H9 C9 1_555 1_555
C10 N2 1_555 1_555
H10 C10 1_555 1_555
C11 N2 1_555 1_555
C12 N1 1_555 1_555
C13 P1 1_555 1_555
H11 C13 1_555 1_555
H12 C13 1_555 1_555
C14 C13 1_555 1_555
C15 C14 1_555 1_555
H13 C15 1_555 1_555
C16 C15 1_555 1_555
H14 C16 1_555 1_555
P2 O4 1_555 1_555
O5 P2 1_555 1_555
H15 O5 1_555 1_555
O6 P2 1_555 1_555
C17 P2 1_555 1_555
H16 C17 1_555 1_555
H17 C17 1_555 1_555
C18 C17 1_555 1_555
C19 C18 1_555 1_555
H18 C19 1_555 1_555
C20 C18 1_555 1_555
H19 C20 1_555 1_555
P1A O1A 1_555 1_555
O1A Ni1_2 1_555 1_555
O2A P1A 1_555 1_555
H1A O2A 1_555 1_555
O3A P1A 1_555 1_555
H2A O3A 1_555 1_555
C13A P1A 1_555 1_555
H11A C13A 1_555 1_555
H12A C13A 1_555 1_555
C14A C16 1_555 1_555
C15A C14A 1_555 1_555
H13A C15A 1_555 1_555
C16A C14 1_555 1_555
H14A C16A 1_555 1_555
N1A Ni1 1_555 1_555
N2A Ni1 1_555 1_555
C1A N1A 1_555 1_555
H3A C1A 1_555 1_555
C2A C1A 1_555 1_555
H4A C2A 1_555 1_555
C3A C2A 1_555 1_555
H5A C3A 1_555 1_555
C4A C3A 1_555 1_555
C5A C4A 1_555 1_555
H6A C5A 1_555 1_555
C6A C5A 1_555 1_555
H7A C6A 1_555 1_555
C7A C6A 1_555 1_555
C8A C7A 1_555 1_555
H8A C8A 1_555 1_555
C9A C8A 1_555 1_555
H9A C9A 1_555 1_555
C10A N2A 1_555 1_555
H10A C10A 1_555 1_555
C11A N2A 1_555 1_555
C12A N1A 1_555 1_555
O1A_2 Ni1 1_555 1_555
P2A O4A 1_555 1_555
O5A P2A 1_555 1_555
H15A O5A 1_555 1_555
O6A P2A 1_555 1_555
C17A P2A 1_555 1_555
H16A C17A 1_555 1_555
H17A C17A 1_555 1_555
C18A C17A 1_555 1_555
C19A C19 1_555 1_555
H18A C19A 1_555 1_555
C20A C20 1_555 1_555
H19A C20A 1_555 1_555
C4 C12 1_555 1_555
C7 C11 1_555 1_555
C9 C10 1_555 1_555
C11 C12 1_555 1_555
C13A C14A 1_555 1_555
C15A C16A 1_555 1_555
C4A C12A 1_555 1_555
C7A C11A 1_555 1_555
C9A C10A 1_555 1_555
C11A C12A 1_555 1_555
C18A C19A 1_555 1_555
C18A C20A 1_555 1_555

#END
