
#######################################################################
#
#                 Cambridge Crystallographic Data Centre
#                                CCDC 
#
#######################################################################
#
# If this CIF has been generated from an entry in the Cambridge 
# Structural Database, then it will include bibliographic, chemical, 
# crystal, experimental, refinement or atomic coordinate data resulting 
# from the CCDC's data processing and validation procedures.
#
#######################################################################

data_BIFYEW
_symmetry_cell_setting           triclinic
_symmetry_space_group_name_H-M   'P -1'
_symmetry_Int_Tables_number      2
_space_group_name_Hall           '-P 1'
loop_
_symmetry_equiv_pos_site_id
_symmetry_equiv_pos_as_xyz
1 x,y,z
2 -x,-y,-z
_cell_length_a                   7.6024(8)
_cell_length_b                   10.8033(11)
_cell_length_c                   10.8232(11)
_cell_angle_alpha                95.760(2)
_cell_angle_beta                 94.041(2)
_cell_angle_gamma                92.794(2)
_cell_volume                     880.837
loop_
_atom_site_label
_atom_site_type_symbol
_atom_site_fract_x
_atom_site_fract_y
_atom_site_fract_z
Ni1 Ni 0.25115(2) 0.342705(17) 0.030165(17)
P1 P 0.84830(5) 0.37692(4) 0.85488(4)
P2 P 0.63343(5) 0.45205(4) 0.16951(4)
O1 O 0.62758(14) 0.57266(10) 0.10823(10)
O2 O 0.79745(14) 0.50886(10) 0.85016(10)
O3 O 0.50287(14) 0.34687(10) 0.11862(10)
O4 O 0.98348(14) 0.34875(10) 0.95590(10)
O5 O 0.67511(14) 0.29151(10) 0.86720(10)
H1 H 0.5909 0.3368 0.8824
O6 O 0.82681(14) 0.40420(11) 0.17399(10)
H2 H 0.8590 0.3925 0.1013
N1 N 0.27531(17) 0.16700(12) -0.06686(13)
N2 N 0.16279(17) 0.22165(13) 0.15651(12)
C1 C 0.3254(2) 0.14492(15) -0.18323(15)
H3 H 0.3416 0.2134 -0.2307
C2 C 0.3545(2) 0.02614(16) -0.23705(16)
H4 H 0.3889 0.0139 -0.3199
C3 C 0.3326(2) -0.07441(16) -0.16801(16)
H5 H 0.3550 -0.1562 -0.2019
C4 C 0.2774(2) -0.05317(16) -0.04859(16)
H6 H 0.2594 -0.1204 0.0001
C5 C 0.2487(2) 0.06863(15) -0.00112(15)
C6 C 0.1841(2) 0.09976(15) 0.12425(15)
C7 C 0.1455(2) 0.00927(16) 0.20330(16)
H7 H 0.1633 -0.0760 0.1795
C8 C 0.0805(2) 0.04608(17) 0.31751(16)
H8 H 0.0531 -0.0138 0.3728
C9 C 0.0563(2) 0.17130(16) 0.34966(15)
H9 H 0.0105 0.1985 0.4266
C10 C 0.1005(2) 0.25601(15) 0.26716(15)
H10 H 0.0861 0.3420 0.2899
C11 C 0.9245(2) 0.32176(15) 0.70450(14)
H11 H 0.9734 0.2391 0.7104
H12 H 1.0215 0.3796 0.6854
C12 C 0.7823(2) 0.31070(15) 0.59777(14)
C13 C 0.6111(2) 0.49554(15) 0.33395(14)
H13 H 0.6994 0.5645 0.3632
H14 H 0.4927 0.5282 0.3429
C14 C 0.6332(2) 0.39372(15) 0.41899(14)
C15 C 0.5138(2) 0.29008(16) 0.40511(15)
H15 H 0.4232 0.2818 0.3392
C16 C 0.7675(2) 0.40210(15) 0.51559(14)
H16 H 0.8505 0.4717 0.5254
C17 C 0.5261(2) 0.19855(16) 0.48689(15)
H17 H 0.4431 0.1290 0.4771
C18 C 0.6592(2) 0.20852(15) 0.58256(15)
H18 H 0.6668 0.1458 0.6380
Ni1_2 Ni 1.25115(2) 0.342705(17) 1.030165(17)
Ni1A Ni 0.74885(2) 0.657295(17) -0.030165(17)
Ni1A_2 Ni 0.74885(2) 0.657295(17) 0.969835(17)
O1A O 0.37242(14) 0.42734(10) -0.10823(10)
O2A O 0.20255(14) 0.49114(10) 0.14984(10)
O4_2 O -0.01652(14) 0.34875(10) -0.04410(10)
loop_
_geom_bond_atom_site_label_1
_geom_bond_atom_site_label_2
_geom_bond_site_symmetry_1
_geom_bond_site_symmetry_2
Ni1 O3 1_555 1_555
P1 O2 1_555 1_555
P2 O1 1_555 1_555
O1 Ni1A 1_555 1_555
O2 Ni1A_2 1_555 1_555
O3 P2 1_555 1_555
O4 P1 1_555 1_555
O5 P1 1_555 1_555
H1 O5 1_555 1_555
O6 P2 1_555 1_555
H2 O6 1_555 1_555
N1 Ni1 1_555 1_555
N2 Ni1 1_555 1_555
C1 N1 1_555 1_555
H3 C1 1_555 1_555
C2 C1 1_555 1_555
H4 C2 1_555 1_555
C3 C2 1_555 1_555
H5 C3 1_555 1_555
C4 C3 1_555 1_555
H6 C4 1_555 1_555
C5 N1 1_555 1_555
C6 N2 1_555 1_555
C7 C6 1_555 1_555
H7 C7 1_555 1_555
C8 C7 1_555 1_555
H8 C8 1_555 1_555
C9 C8 1_555 1_555
H9 C9 1_555 1_555
C10 N2 1_555 1_555
H10 C10 1_555 1_555
C11 P1 1_555 1_555
H11 C11 1_555 1_555
H12 C11 1_555 1_555
C12 C11 1_555 1_555
C13 P2 1_555 1_555
H13 C13 1_555 1_555
H14 C13 1_555 1_555
C14 C13 1_555 1_555
C15 C14 1_555 1_555
H15 C15 1_555 1_555
C16 C12 1_555 1_555
H16 C16 1_555 1_555
C17 C15 1_555 1_555
H17 C17 1_555 1_555
C18 C12 1_555 1_555
H18 C18 1_555 1_555
Ni1_2 O4 1_555 1_555
O1A Ni1 1_555 1_555
O2A Ni1 1_555 1_555
O4_2 Ni1 1_555 1_555
C4 C5 1_555 1_555
C5 C6 1_555 1_555
C9 C10 1_555 1_555
C14 C16 1_555 1_555
C17 C18 1_555 1_555

#END
