
#######################################################################
#
#                 Cambridge Crystallographic Data Centre
#                                CCDC 
#
#######################################################################
#
# If this CIF has been generated from an entry in the Cambridge 
# Structural Database, then it will include bibliographic, chemical, 
# crystal, experimental, refinement or atomic coordinate data resulting 
# from the CCDC's data processing and validation procedures.
#
#######################################################################

data_BIFZAT
_symmetry_cell_setting           triclinic
_symmetry_space_group_name_H-M   'P -1'
_symmetry_Int_Tables_number      2
_space_group_name_Hall           '-P 1'
loop_
_symmetry_equiv_pos_site_id
_symmetry_equiv_pos_as_xyz
1 x,y,z
2 -x,-y,-z
_cell_length_a                   10.8732(5)
_cell_length_b                   11.0085(5)
_cell_length_c                   11.2619(5)
_cell_angle_alpha                63.681(2)
_cell_angle_beta                 66.155(2)
_cell_angle_gamma                72.920(2)
_cell_volume                     1094.32
loop_
_atom_site_label
_atom_site_type_symbol
_atom_site_fract_x
_atom_site_fract_y
_atom_site_fract_z
Ni1 Ni 1.06799(3) 1.02776(3) 0.24902(3)
P1 P 0.85561(7) 0.67724(7) 0.00572(7)
P2 P 0.87827(7) 0.84297(6) 0.56585(7)
O1 O 0.82643(18) 0.82930(18) -0.06502(19)
O2 O 0.85049(19) 0.93270(19) 0.64549(19)
O3 O 0.98054(19) 0.87596(19) 0.42320(19)
O4 O 0.99190(19) 0.64429(19) 0.0387(2)
H1 H 1.0240 0.5617 0.0523
O5 O 0.86178(19) 0.59234(18) -0.07381(18)
O6 O 0.9264(2) 0.68895(19) 0.65138(19)
H2 H 0.8964 0.6750 0.7371
N1 N 1.2200(2) 0.8685(2) 0.2043(2)
N2 N 1.0098(2) 0.9907(2) 0.1182(2)
N3 N 0.8793(2) 1.1512(2) 0.2556(2)
C1 C 1.2989(3) 0.7909(3) 0.2841(3)
H3 H 1.3211 0.8300 0.3318
C2 C 1.3495(3) 0.6559(3) 0.2997(3)
H4 H 1.4064 0.6035 0.3562
C3 C 1.3159(3) 0.5982(3) 0.2316(3)
H5 H 1.3470 0.5047 0.2435
C4 C 1.2364(3) 0.6783(3) 0.1461(3)
H6 H 1.2128 0.6411 0.0977
C5 C 1.1924(3) 0.8141(3) 0.1330(3)
C6 C 1.0987(3) 0.9083(3) 0.0532(3)
C7 C 0.9105(3) 1.0803(3) 0.0722(3)
C8 C 0.8207(3) 1.1523(2) 0.1696(3)
C9 C 0.6865(3) 1.2061(3) 0.1803(3)
H7 H 0.6465 1.2028 0.1210
C10 C 0.6112(3) 1.2652(3) 0.2793(3)
H8 H 0.5194 1.3050 0.2870
C11 C 0.6713(3) 1.2655(3) 0.3666(3)
H9 H 0.6214 1.3053 0.4350
C12 C 0.8055(3) 1.2066(3) 0.3522(3)
H10 H 0.8466 1.2056 0.4129
C13 C 0.7157(3) 0.8456(3) 0.5570(3)
H11 H 0.6584 0.7954 0.6522
H12 H 0.6715 0.9418 0.5283
C14 C 0.7171(3) 0.7853(3) 0.4592(3)
C15 C 0.7956(3) 0.6609(3) 0.4548(3)
H13 H 0.8493 0.6122 0.5151
C16 C 0.6407(3) 0.8542(3) 0.3689(3)
H14 H 0.5866 0.9391 0.3701
C17 C 0.7966(3) 0.6073(3) 0.3641(3)
H15 H 0.8503 0.5221 0.3634
C18 C 0.6415(3) 0.8017(3) 0.2767(3)
H16 H 0.5887 0.8511 0.2156
C19 C 0.7195(3) 0.6770(3) 0.2735(3)
C20 C 0.7254(3) 0.6206(3) 0.1714(3)
H17 H 0.6363 0.6478 0.1556
H18 H 0.7410 0.5194 0.2133
N1A N 0.7800(2) 1.1315(2) -0.2043(2)
N2A N 0.9902(2) 1.0093(2) -0.1182(2)
N3A N 1.1207(2) 0.8488(2) -0.2556(2)
C1A C 0.7011(3) 1.2091(3) -0.2841(3)
H3A H 0.6789 1.1700 -0.3318
C2A C 0.6505(3) 1.3441(3) -0.2997(3)
H4A H 0.5936 1.3965 -0.3562
C3A C 0.6841(3) 1.4018(3) -0.2316(3)
H5A H 0.6530 1.4953 -0.2435
C4A C 0.7636(3) 1.3217(3) -0.1461(3)
H6A H 0.7872 1.3589 -0.0977
C5A C 0.8076(3) 1.1859(3) -0.1330(3)
C6A C 0.9013(3) 1.0917(3) -0.0532(3)
C7A C 1.0895(3) 0.9197(3) -0.0722(3)
C8A C 1.1793(3) 0.8477(2) -0.1696(3)
C9A C 1.3135(3) 0.7939(3) -0.1803(3)
H7A H 1.3535 0.7972 -0.1210
C10A C 1.3888(3) 0.7348(3) -0.2793(3)
H8A H 1.4806 0.6950 -0.2870
C11A C 1.3287(3) 0.7345(3) -0.3666(3)
H9A H 1.3786 0.6947 -0.4350
C12A C 1.1945(3) 0.7934(3) -0.3522(3)
H10A H 1.1534 0.7944 -0.4129
Ni1A Ni 0.93201(3) 0.97224(3) -0.24902(3)
P1A P 1.14439(7) 1.32276(7) -0.00572(7)
P2A P 1.12173(7) 1.15703(6) -0.56585(7)
O1A O 1.17357(18) 1.17070(18) 0.06502(19)
O2A O 1.14951(19) 1.06730(19) -0.64549(19)
O3A O 1.01946(19) 1.12404(19) -0.42320(19)
O4A O 1.00810(19) 1.35571(19) -0.0387(2)
H1A H 0.9760 1.4383 -0.0523
O5A O 1.13822(19) 1.40766(18) 0.07381(18)
O6A O 1.0736(2) 1.31105(19) -0.65138(19)
H2A H 1.1036 1.3250 -0.7371
C13A C 1.2843(3) 1.1544(3) -0.5570(3)
H11A H 1.3416 1.2046 -0.6522
H12A H 1.3285 1.0582 -0.5283
C14A C 1.2829(3) 1.2147(3) -0.4592(3)
C15A C 1.2044(3) 1.3391(3) -0.4548(3)
H13A H 1.1507 1.3878 -0.5151
C16A C 1.3593(3) 1.1458(3) -0.3689(3)
H14A H 1.4134 1.0609 -0.3701
C17A C 1.2034(3) 1.3927(3) -0.3641(3)
H15A H 1.1497 1.4779 -0.3634
C18A C 1.3585(3) 1.1983(3) -0.2767(3)
H16A H 1.4113 1.1489 -0.2156
C19A C 1.2805(3) 1.3230(3) -0.2735(3)
C20A C 1.2746(3) 1.3794(3) -0.1714(3)
H17A H 1.3637 1.3522 -0.1556
H18A H 1.2590 1.4806 -0.2133
Ni1_2 Ni 1.06799(3) 1.02776(3) -0.75098(3)
Ni1A_2 Ni 0.93201(3) 0.97224(3) 0.75098(3)
O2_2 O 0.85049(19) 0.93270(19) -0.35451(19)
O2A_2 O 1.14951(19) 1.06730(19) 0.35451(19)
O7 O 0.4208(2) 0.3833(2) 0.0629(2)
H19 H 0.449(3) 0.311(2) 0.050(4)
H20 H 0.3404(15) 0.403(3) 0.064(4)
O8 O 0.4491(3) 0.0979(4) 0.0678(4)
H21 H 0.449(5) 0.079(6) 0.147(3)
H22 H 0.3680(18) 0.107(6) 0.077(5)
loop_
_geom_bond_atom_site_label_1
_geom_bond_atom_site_label_2
_geom_bond_site_symmetry_1
_geom_bond_site_symmetry_2
Ni1 O3 1_555 1_555
P1 O1 1_555 1_555
P2 O2 1_555 1_555
O1 Ni1A 1_555 1_555
O2 Ni1A_2 1_555 1_555
O3 P2 1_555 1_555
O4 P1 1_555 1_555
H1 O4 1_555 1_555
O5 P1 1_555 1_555
O6 P2 1_555 1_555
H2 O6 1_555 1_555
N1 Ni1 1_555 1_555
N2 Ni1 1_555 1_555
N3 Ni1 1_555 1_555
C1 N1 1_555 1_555
H3 C1 1_555 1_555
C2 C1 1_555 1_555
H4 C2 1_555 1_555
C3 C2 1_555 1_555
H5 C3 1_555 1_555
C4 C3 1_555 1_555
H6 C4 1_555 1_555
C5 N1 1_555 1_555
C6 N2 1_555 1_555
C7 N2 1_555 1_555
C8 N3 1_555 1_555
C9 C8 1_555 1_555
H7 C9 1_555 1_555
C10 C9 1_555 1_555
H8 C10 1_555 1_555
C11 C10 1_555 1_555
H9 C11 1_555 1_555
C12 N3 1_555 1_555
H10 C12 1_555 1_555
C13 P2 1_555 1_555
H11 C13 1_555 1_555
H12 C13 1_555 1_555
C14 C13 1_555 1_555
C15 C14 1_555 1_555
H13 C15 1_555 1_555
C16 C14 1_555 1_555
H14 C16 1_555 1_555
C17 C15 1_555 1_555
H15 C17 1_555 1_555
C18 C16 1_555 1_555
H16 C18 1_555 1_555
C19 C17 1_555 1_555
C20 P1 1_555 1_555
H17 C20 1_555 1_555
H18 C20 1_555 1_555
O7 H19 1_555 1_555
H20 O7 1_555 1_555
O8 H21 1_555 1_555
H22 O8 1_555 1_555
N1A C1A 1_555 1_555
N2A C6A 1_555 1_555
N3A C8A 1_555 1_555
C1A H3A 1_555 1_555
C2A C1A 1_555 1_555
H4A C2A 1_555 1_555
C3A C2A 1_555 1_555
H5A C3A 1_555 1_555
C4A C3A 1_555 1_555
H6A C4A 1_555 1_555
C5A N1A 1_555 1_555
C6A C7 1_555 1_555
C7A C6 1_555 1_555
C8A C7A 1_555 1_555
C9A C8A 1_555 1_555
H7A C9A 1_555 1_555
C10A C9A 1_555 1_555
H8A C10A 1_555 1_555
C11A C10A 1_555 1_555
H9A C11A 1_555 1_555
C12A N3A 1_555 1_555
H10A C12A 1_555 1_555
Ni1A N1A 1_555 1_555
P1A O1A 1_555 1_555
P2A O2A 1_555 1_555
O1A Ni1 1_555 1_555
O2A Ni1_2 1_555 1_555
O3A Ni1A 1_555 1_555
O4A P1A 1_555 1_555
H1A O4A 1_555 1_555
O5A P1A 1_555 1_555
O6A P2A 1_555 1_555
H2A O6A 1_555 1_555
C13A P2A 1_555 1_555
H11A C13A 1_555 1_555
H12A C13A 1_555 1_555
C14A C13A 1_555 1_555
C15A C14A 1_555 1_555
H13A C15A 1_555 1_555
C16A C14A 1_555 1_555
H14A C16A 1_555 1_555
C17A C15A 1_555 1_555
H15A C17A 1_555 1_555
C18A C16A 1_555 1_555
H16A C18A 1_555 1_555
C19A C17A 1_555 1_555
C20A P1A 1_555 1_555
H17A C20A 1_555 1_555
H18A C20A 1_555 1_555
O2_2 Ni1A 1_555 1_555
O2A_2 Ni1 1_555 1_555
C4 C5 1_555 1_555
C5 C6 1_555 1_555
C7 C8 1_555 1_555
C11 C12 1_555 1_555
C18 C19 1_555 1_555
C19 C20 1_555 1_555
N2A C7A 1_555 1_555
N2A Ni1A 1_555 1_555
N3A Ni1A 1_555 1_555
C4A C5A 1_555 1_555
C5A C6A 1_555 1_555
C11A C12A 1_555 1_555
P2A O3A 1_555 1_555
C18A C19A 1_555 1_555
C19A C20A 1_555 1_555

#END
