
#######################################################################
#
#                 Cambridge Crystallographic Data Centre
#                                CCDC 
#
#######################################################################
#
# If this CIF has been generated from an entry in the Cambridge 
# Structural Database, then it will include bibliographic, chemical, 
# crystal, experimental, refinement or atomic coordinate data resulting 
# from the CCDC's data processing and validation procedures.
#
#######################################################################

data_BIFZAR
_symmetry_cell_setting           monoclinic
_symmetry_space_group_name_H-M   'C 2/c'
_symmetry_Int_Tables_number      15
_space_group_name_Hall           '-C 2yn'
loop_
_symmetry_equiv_pos_site_id
_symmetry_equiv_pos_as_xyz
1 x,y,z
2 -x,y,1/2-z
3 1/2+x,1/2+y,z
4 1/2-x,1/2+y,1/2-z
5 -x,-y,-z
6 x,-y,1/2+z
7 1/2-x,1/2-y,-z
8 1/2+x,1/2-y,1/2+z
_cell_length_a                   35.423(11)
_cell_length_b                   4.462(2)
_cell_length_c                   18.181(7)
_cell_angle_alpha                90
_cell_angle_beta                 95.48(3)
_cell_angle_gamma                90
_cell_volume                     2860.51
loop_
_atom_site_label
_atom_site_type_symbol
_atom_site_fract_x
_atom_site_fract_y
_atom_site_fract_z
K1 K 0.0435(1) 0.0903(2) -0.1560(1)
N1 N 0.1639(1) -0.6613(7) -0.2630(2)
N2 N 0.1293(1) -0.7282(7) -0.2841(2)
O1 O 0.1028(1) -0.4183(7) -0.1817(1)
O2 O -0.0264(1) 0.2602(7) -0.0932(1)
O3 O -0.0522(1) 0.2966(7) -0.2087(1)
O4 O 0.0334(1) -0.3522(7) -0.0595(1)
O5 O 0.0000 -0.2868(9) -0.2500
C1 C 0.1388(1) -0.3514(10) -0.1645(2)
C2 C 0.1685(1) -0.4676(9) -0.2034(2)
C3 C 0.2060(1) -0.3790(10) -0.1824(2)
C4 C 0.2154(1) -0.1895(10) -0.1244(2)
C5 C 0.1860(1) -0.0832(11) -0.0857(2)
C6 C 0.1491(1) -0.1616(10) -0.1043(2)
C7 C 0.2557(1) -0.0901(13) -0.1034(3)
C8 C 0.0864(1) -0.9557(9) -0.3793(2)
C9 C 0.1235(1) -0.9293(9) -0.3447(2)
C10 C 0.1529(1) -1.0894(9) -0.3703(2)
C11 C 0.1561(1) -1.2802(10) -0.4298(2)
C12 C 0.1102(1) -1.3113(9) -0.4645(2)
C13 C 0.0805(1) -1.1480(9) -0.4400(2)
C14 C -0.0527(1) 0.2153(9) -0.1428(2)
O1_2 O 0.1028(1) 0.5817(7) -0.1817(1)
O4_2 O 0.0334(1) 0.6478(7) -0.0595(1)
K1_2 K 0.0435(1) -0.9097(2) -0.1560(1)
K1A K -0.0435(1) 0.0903(2) -0.3440(1)
C14A C 0.0527(1) -0.7847(9) -0.3572(2)
O3A O 0.0522(1) 0.2966(7) -0.2913(1)
C8A C -0.0864(1) 0.0443(9) -0.1207(2)
K1_3 K 0.0435(1) 1.0903(2) -0.1560(1)
O3A_2 O 0.0522(1) -0.7034(7) -0.2913(1)
O5_2 O 0.0000 -1.2868(9) -0.2500
O2A O 0.0264(1) 0.2602(7) -0.4068(1)
O1A O -0.1028(1) -0.4183(7) -0.3183(1)
O1A_2 O -0.1028(1) 0.5817(7) -0.3183(1)
O4A O -0.0334(1) -0.3522(7) -0.4405(1)
O4A_2 O -0.0334(1) 0.6478(7) -0.4405(1)
O2A_2 O 0.0264(1) -0.7398(7) -0.4068(1)
C9A C -0.1235(1) 0.0707(9) -0.1553(2)
C13A C -0.0805(1) -0.1480(9) -0.0600(2)
K1A_2 K -0.0435(1) -0.9097(2) -0.3440(1)
K1A_3 K -0.0435(1) 1.0903(2) -0.3440(1)
C1A C -0.1388(1) 0.6486(10) -0.3355(2)
N2A N -0.1293(1) 0.2718(7) -0.2159(2)
C10A C -0.1529(1) -0.0894(9) -0.1297(2)
C12A C -0.1102(1) -0.3113(9) -0.0355(2)
C2A C -0.1685(1) 0.5324(9) -0.2966(2)
C6A C -0.1491(1) 0.8384(10) -0.3957(2)
N1A N -0.1639(1) 0.3387(7) -0.2370(2)
C11A C -0.1561(1) -0.2802(10) -0.0702(2)
C3A C -0.2060(1) 0.6210(10) -0.3176(2)
C5A C -0.1860(1) 0.9168(11) -0.4143(2)
C4A C -0.2154(1) 0.8105(10) -0.3756(2)
C7A C -0.2557(1) 0.9099(13) -0.3966(3)
loop_
_geom_bond_atom_site_label_1
_geom_bond_atom_site_label_2
_geom_bond_site_symmetry_1
_geom_bond_site_symmetry_2
K1 O1 1_555 1_555
N1 N2 1_555 1_555
N2 C9 1_555 1_555
O1 C1 1_555 1_555
O2 K1 1_555 1_555
O3 C14 1_555 1_555
O4 K1 1_555 1_555
O5 K1 1_555 1_555
C1 C2 1_555 1_555
C2 N1 1_555 1_555
C3 C2 1_555 1_555
C4 C3 1_555 1_555
C5 C4 1_555 1_555
C6 C1 1_555 1_555
C7 C4 1_555 1_555
C8 C9 1_555 1_555
C9 C10 1_555 1_555
C10 C11 1_555 1_555
C11 C12 1_555 1_555
C12 C13 1_555 1_555
C13 C8 1_555 1_555
C14 O2 1_555 1_555
O1_2 K1 1_555 1_555
O4_2 K1 1_555 1_555
K1_2 O1 1_555 1_555
K1A O3 1_555 1_555
C14A C8 1_555 1_555
O3A K1 1_555 1_555
C8A C14 1_555 1_555
K1_3 O1_2 1_555 1_555
O3A_2 K1_2 1_555 1_555
O5_2 K1_2 1_555 1_555
O2A K1A 1_555 1_555
O1A K1A 1_555 1_555
O1A_2 K1A 1_555 1_555
O4A K1A 1_555 1_555
O4A_2 K1A 1_555 1_555
O2A_2 C14A 1_555 1_555
C9A C8A 1_555 1_555
C13A C8A 1_555 1_555
K1A_2 O5_2 1_555 1_555
K1A_3 O1A_2 1_555 1_555
C1A O1A_2 1_555 1_555
N2A C9A 1_555 1_555
C10A C9A 1_555 1_555
C12A C13A 1_555 1_555
C2A C1A 1_555 1_555
C6A C1A 1_555 1_555
N1A N2A 1_555 1_555
C11A C10A 1_555 1_555
C3A C2A 1_555 1_555
C5A C6A 1_555 1_555
C4A C3A 1_555 1_555
C7A C4A 1_555 1_555
O4 K1_2 1_555 1_555
O5 K1A 1_555 1_555
C5 C6 1_555 1_555
O4_2 K1_3 1_555 1_555
C14A O3A_2 1_555 1_555
O1A K1A_2 1_555 1_555
O4A K1A_2 1_555 1_555
O4A_2 K1A_3 1_555 1_555
O2A_2 K1A_2 1_555 1_555
C12A C11A 1_555 1_555
C2A N1A 1_555 1_555
C5A C4A 1_555 1_555

#END
