
#######################################################################
#
#                 Cambridge Crystallographic Data Centre
#                                CCDC 
#
#######################################################################
#
# If this CIF has been generated from an entry in the Cambridge 
# Structural Database, then it will include bibliographic, chemical, 
# crystal, experimental, refinement or atomic coordinate data resulting 
# from the CCDC's data processing and validation procedures.
#
#######################################################################

data_BIGJUW
_symmetry_cell_setting           triclinic
_symmetry_space_group_name_H-M   'P 1'
_symmetry_Int_Tables_number      1
_space_group_name_Hall           'P 1'
loop_
_symmetry_equiv_pos_site_id
_symmetry_equiv_pos_as_xyz
1 x,y,z
_cell_length_a                   9.502(2)
_cell_length_b                   9.699(2)
_cell_length_c                   10.0230(10)
_cell_angle_alpha                95.110(10)
_cell_angle_beta                 108.540(10)
_cell_angle_gamma                115.720(10)
_cell_volume                     760.625
loop_
_atom_site_label
_atom_site_type_symbol
_atom_site_fract_x
_atom_site_fract_y
_atom_site_fract_z
Mo1 Mo 0.43181(3) -0.39241(3) -0.43923(3)
Mo2 Mo 0.36664(4) -0.09849(3) -0.42882(3)
Na1 Na 0.0543(3) 0.1493(2) -0.2263(2)
O1 O 0.2277(4) -0.3454(4) -0.4876(4)
C1 C 0.0506(6) -0.4496(6) -0.5626(6)
H1 H 0.0247(10) -0.5547(12) -0.5534(38)
H2 H 0.0170(11) -0.4510(38) -0.6640(10)
H3 H -0.0101(7) -0.4139(28) -0.5215(30)
O2 O 0.4979(4) -0.1853(4) -0.5342(4)
C2 C 0.4352(8) -0.2196(7) -0.6897(5)
H4 H 0.4933(41) -0.2649(49) -0.7241(6)
H5 H 0.4547(52) -0.1234(11) -0.7186(6)
H6 H 0.3153(14) -0.2936(42) -0.7309(6)
O3 O 0.5135(4) -0.1796(4) -0.2680(3)
C3 C 0.4746(8) -0.2035(7) -0.1425(6)
H7 H 0.5132(52) -0.1026(8) -0.0794(25)
H8 H 0.5307(46) -0.2563(48) -0.0910(27)
H9 H 0.3538(9) -0.2676(45) -0.1728(7)
O4 O 0.2583(5) -0.6772(5) -0.3228(5)
O5 O 0.2341(6) -0.6929(5) -0.6990(5)
O6 O 0.1256(5) -0.0564(5) -0.3014(5)
O7 O 0.1016(7) -0.0855(6) -0.6986(5)
C4 C 0.3265(6) -0.5677(6) -0.3615(6)
C5 C 0.3098(9) -0.5780(7) -0.6064(7)
C6 C 0.2168(9) -0.0721(8) -0.3442(8)
C7 C 0.2022(9) -0.0875(8) -0.5991(8)
C8 C 0.5000(10) 0.1355(8) -0.4886(9)
C9 C 0.5917(7) 0.1414(6) -0.3477(6)
C10 C 0.5173(9) 0.1396(7) -0.2470(8)
C11 C 0.6257(9) -0.4236(9) -0.5096(9)
C12 C 0.7015(6) -0.3392(6) -0.3650(6)
C13 C 0.6406(9) -0.4204(8) -0.2668(8)
H10 H 0.5116(97) 0.1231(83) -0.5862(81)
H11 H 0.4504(97) 0.1890(87) -0.5136(74)
H12 H 0.6895(98) 0.1354(80) -0.3210(75)
H13 H 0.4417(95) 0.1928(80) -0.2532(74)
H14 H 0.5725(93) 0.1311(83) -0.1467(77)
H15 H 0.7696(93) -0.2310(83) -0.3497(72)
H16 H 0.6249(93) -0.5218(83) -0.5220(72)
H17 H 0.6664(93) -0.3583(81) -0.5829(72)
H18 H 0.6328(92) -0.5269(82) -0.2870(73)
H19 H 0.6862(99) -0.3577(83) -0.1493(82)
O8 O 0.0353(6) 0.3750(5) -0.1424(4)
O9 O 0.3076(6) 0.2411(5) -0.0103(5)
C14 C 0.0083(8) 0.3989(7) -0.0105(6)
H20 H 0.1082(8) 0.4220(7) 0.0743(6)
H21 H -0.0884(8) 0.3046(7) -0.0119(6)
C15 C -0.0250(8) 0.5381(7) -0.0054(6)
H22 H -0.1460(8) 0.5026(7) -0.0477(6)
H23 H 0.0237(8) 0.6025(7) 0.0940(6)
C16 C 0.0632(8) 0.6287(7) -0.0961(7)
H24 H 0.0158(8) 0.6939(7) -0.1360(7)
H25 H 0.1848(8) 0.6948(7) -0.0402(7)
C17 C 0.0240(8) 0.4938(7) -0.2139(7)
H26 H -0.0894(8) 0.4523(7) -0.2887(7)
H27 H 0.1056(8) 0.5289(7) -0.2589(7)
C18 C 0.3847(11) 0.1585(11) 0.0715(9)
H28 H 0.3668(11) 0.0666(11) 0.0066(9)
H29 H 0.3367(11) 0.1237(11) 0.1423(9)
C19 C 0.5734(10) 0.2786(11) 0.1476(8)
H30 H 0.6085(10) 0.3033(11) 0.2527(8)
H31 H 0.6407(10) 0.2373(11) 0.1223(8)
C20 C 0.5954(9) 0.4227(11) 0.0951(8)
H32 H 0.6277(9) 0.4229(11) 0.0125(8)
H33 H 0.6802(9) 0.5190(11) 0.1722(8)
C21 C 0.4212(9) 0.4058(9) 0.0516(8)
H34 H 0.4062(9) 0.4441(9) 0.1360(8)
H35 H 0.4030(9) 0.4648(9) -0.0191(8)
O10 O -0.1654(5) 0.0347(5) -0.4610(4)
O11 O -0.1390(6) 0.0100(5) -0.1280(4)
H36 H -0.2599(89) -0.0371(72) -0.4755(64)
H37 H -0.2224(98) -0.0336(86) -0.1628(78)
C22 C -0.1381(10) 0.0384(10) -0.5901(8)
H38 H -0.2102(66) 0.0708(80) -0.6541(32)
H39 H -0.1642(87) -0.0654(23) -0.6370(41)
H40 H -0.0211(23) 0.1125(64) -0.5678(11)
C23 C -0.0836(8) -0.0130(8) 0.0132(6)
H41 H -0.0647(86) -0.1025(52) 0.0070(14)
H42 H -0.1692(39) -0.0324(82) 0.0515(31)
H43 H 0.0204(48) 0.0802(33) 0.0766(22)
Na1_2 Na 0.0543(3) -0.8507(2) -0.2263(2)
O4_2 O 0.2583(5) 0.3228(5) -0.3228(5)
loop_
_geom_bond_atom_site_label_1
_geom_bond_atom_site_label_2
_geom_bond_site_symmetry_1
_geom_bond_site_symmetry_2
Mo1 O1 1_555 1_555
Mo2 O1 1_555 1_555
Na1 O6 1_555 1_555
O1 C1 1_555 1_555
C1 H1 1_555 1_555
H2 C1 1_555 1_555
H3 C1 1_555 1_555
O2 Mo1 1_555 1_555
C2 O2 1_555 1_555
H4 C2 1_555 1_555
H5 C2 1_555 1_555
H6 C2 1_555 1_555
O3 Mo1 1_555 1_555
C3 O3 1_555 1_555
H7 C3 1_555 1_555
H8 C3 1_555 1_555
H9 C3 1_555 1_555
O4 C4 1_555 1_555
O5 C5 1_555 1_555
O6 C6 1_555 1_555
O7 C7 1_555 1_555
C4 Mo1 1_555 1_555
C5 Mo1 1_555 1_555
C6 Mo2 1_555 1_555
C7 Mo2 1_555 1_555
C8 Mo2 1_555 1_555
C9 Mo2 1_555 1_555
C10 Mo2 1_555 1_555
C11 Mo1 1_555 1_555
C12 Mo1 1_555 1_555
C13 Mo1 1_555 1_555
H10 C8 1_555 1_555
H11 C8 1_555 1_555
H12 C9 1_555 1_555
H13 C10 1_555 1_555
H14 C10 1_555 1_555
H15 C12 1_555 1_555
H16 C11 1_555 1_555
H17 C11 1_555 1_555
H18 C13 1_555 1_555
H19 C13 1_555 1_555
O8 Na1 1_555 1_555
O9 Na1 1_555 1_555
C14 O8 1_555 1_555
H20 C14 1_555 1_555
H21 C14 1_555 1_555
C15 C14 1_555 1_555
H22 C15 1_555 1_555
H23 C15 1_555 1_555
C16 C15 1_555 1_555
H24 C16 1_555 1_555
H25 C16 1_555 1_555
C17 O8 1_555 1_555
H26 C17 1_555 1_555
H27 C17 1_555 1_555
C18 O9 1_555 1_555
H28 C18 1_555 1_555
H29 C18 1_555 1_555
C19 C18 1_555 1_555
H30 C19 1_555 1_555
H31 C19 1_555 1_555
C20 C19 1_555 1_555
H32 C20 1_555 1_555
H33 C20 1_555 1_555
C21 O9 1_555 1_555
H34 C21 1_555 1_555
H35 C21 1_555 1_555
O10 Na1 1_555 1_555
O11 Na1 1_555 1_555
H36 O10 1_555 1_555
H37 O11 1_555 1_555
C22 O10 1_555 1_555
H38 C22 1_555 1_555
H39 C22 1_555 1_555
H40 C22 1_555 1_555
C23 O11 1_555 1_555
H41 C23 1_555 1_555
H42 C23 1_555 1_555
H43 C23 1_555 1_555
Na1_2 O4 1_555 1_555
O4_2 Na1 1_555 1_555
Mo2 O2 1_555 1_555
Mo2 O3 1_555 1_555
C8 C9 1_555 1_555
C9 C10 1_555 1_555
C11 C12 1_555 1_555
C12 C13 1_555 1_555
C16 C17 1_555 1_555
C20 C21 1_555 1_555

#END
