
#######################################################################
#
#                 Cambridge Crystallographic Data Centre
#                                CCDC 
#
#######################################################################
#
# If this CIF has been generated from an entry in the Cambridge 
# Structural Database, then it will include bibliographic, chemical, 
# crystal, experimental, refinement or atomic coordinate data resulting 
# from the CCDC's data processing and validation procedures.
#
#######################################################################

data_BIGKUY
_symmetry_cell_setting           monoclinic
_symmetry_space_group_name_H-M   'P 21'
_symmetry_Int_Tables_number      4
_space_group_name_Hall           'P 2yb'
loop_
_symmetry_equiv_pos_site_id
_symmetry_equiv_pos_as_xyz
1 x,y,z
2 -x,1/2+y,-z
_cell_length_a                   8.6650(9)
_cell_length_b                   12.2190(8)
_cell_length_c                   29.130(3)
_cell_angle_alpha                90
_cell_angle_beta                 95.297(12)
_cell_angle_gamma                90
_cell_volume                     3071.04
loop_
_atom_site_label
_atom_site_type_symbol
_atom_site_fract_x
_atom_site_fract_y
_atom_site_fract_z
Cd1 Cd 0.27228(10) 0.04525(7) -0.40694(4)
Cd2 Cd -0.21416(13) 0.13563(8) -0.36348(4)
Cl1 Cl -0.0286(4) 0.0582(4) -0.41590(13)
Cl2 Cl -0.4352(4) 0.0658(4) -0.41775(14)
Cl3 Cl -0.2074(6) 0.0505(4) -0.28905(15)
Cl4 Cl -0.2177(6) 0.3323(4) -0.36787(17)
O1 O 0.2562(10) 0.0370(10) -0.4931(3)
O2 O 0.2091(7) -0.3169(5) -0.45567(18)
O3 O 0.2860(10) 0.2044(8) -0.3551(3)
O4 O 0.3785(9) -0.0793(5) -0.25943(18)
N1 N 0.2540(12) 0.2199(11) -0.4465(4)
N2 N 0.2442(9) -0.1410(9) -0.4336(3)
N3 N 0.3206(12) -0.0077(11) -0.3305(4)
C1 C 0.2160(10) 0.2258(10) -0.4903(4)
C2 C 0.2172(13) 0.3252(13) -0.5153(5)
C3 C 0.2582(18) 0.4178(16) -0.4931(5)
C4 C 0.3062(11) 0.4138(9) -0.4455(4)
C5 C 0.2994(9) 0.3139(9) -0.4232(4)
C6 C 0.1671(8) 0.1214(6) -0.5145(2)
C7 C 0.2296(17) -0.0734(12) -0.5112(5)
C8 C 0.3082(9) -0.1485(6) -0.4788(2)
C9 C 0.2863(13) -0.2681(9) -0.4928(4)
C10 C 0.1912(7) -0.2354(6) -0.4248(2)
C11 C 0.1065(8) -0.2710(7) -0.3846(2)
C12 C 0.0503(15) -0.1977(15) -0.3548(5)
C13 C -0.0186(9) -0.2293(7) -0.3167(3)
C14 C -0.0292(10) -0.3389(7) -0.3085(3)
C15 C 0.0222(13) -0.4169(11) -0.3383(4)
C16 C 0.0934(9) -0.3830(8) -0.3754(3)
C17 C 0.3420(11) 0.3047(6) -0.3725(2)
C18 C 0.3337(13) 0.1830(10) -0.3096(3)
C19 C 0.2670(13) 0.0734(10) -0.2984(3)
C20 C 0.323(2) 0.0340(13) -0.2514(5)
C21 C 0.3770(10) -0.0884(6) -0.3059(2)
C22 C 0.4442(8) -0.1922(6) -0.3215(2)
C23 C 0.5341(17) -0.1962(16) -0.3580(6)
C24 C 0.5898(12) -0.2945(9) -0.3722(4)
C25 C 0.5569(14) -0.3897(12) -0.3494(6)
C26 C 0.4689(10) -0.3870(7) -0.3131(3)
C27 C 0.4159(10) -0.2887(7) -0.2993(3)
H1 H 0.18900 0.32600 -0.54760
H2 H 0.25500 0.48560 -0.50910
H3 H 0.34210 0.47770 -0.42920
H4 H 0.05550 0.10770 -0.51200
H5 H 0.18460 0.12600 -0.54750
H6 H 0.11720 -0.08950 -0.51500
H7 H 0.27070 -0.08030 -0.54170
H8 H 0.42130 -0.13080 -0.47500
H9 H 0.22160 -0.27450 -0.52250
H10 H 0.38750 -0.30380 -0.49570
H11 H 0.05970 -0.12170 -0.36090
H12 H -0.05790 -0.17700 -0.29670
H13 H -0.07300 -0.36270 -0.28150
H14 H 0.00770 -0.49270 -0.33290
H15 H 0.13460 -0.43530 -0.39510
H16 H 0.45620 0.30780 -0.36610
H17 H 0.29730 0.36710 -0.35650
H18 H 0.29570 0.24050 -0.28950
H19 H 0.44830 0.18100 -0.30480
H20 H 0.15120 0.07700 -0.30170
H21 H 0.40870 0.08050 -0.23750
H22 H 0.23830 0.03360 -0.23090
H23 H 0.55790 -0.13060 -0.37340
H24 H 0.65070 -0.29710 -0.39770
H25 H 0.59610 -0.45760 -0.35910
H26 H 0.44490 -0.45250 -0.29770
H27 H 0.35710 -0.28650 -0.27340
Cl2_2 Cl 0.5648(4) 0.0658(4) -0.41775(14)
Cd1_2 Cd -0.72772(10) 0.04525(7) -0.40694(4)
Cd3 Cd -0.27792(10) 0.36149(7) -0.09291(4)
Cd4 Cd -0.78672(13) 0.27227(8) -0.13702(4)
Cl5 Cl -0.5690(4) 0.3377(4) -0.08070(13)
Cl6 Cl -0.9777(4) 0.3542(4) -0.08658(13)
Cl7 Cl -0.7992(6) 0.3492(5) -0.21272(15)
Cl8 Cl -0.8008(6) 0.0752(4) -0.13170(17)
O5 O -0.2293(11) 0.3692(10) -0.0061(4)
O6 O -0.3158(7) 0.7206(5) -0.04182(19)
O7 O -0.2911(10) 0.1997(9) -0.1440(3)
O8 O -0.2653(8) 0.4892(5) -0.24149(16)
N4 N -0.2648(11) 0.1836(11) -0.0544(4)
N5 N -0.2948(10) 0.5450(10) -0.0642(4)
N6 N -0.2815(12) 0.4202(10) -0.1703(4)
C28 C -0.2763(10) 0.1777(10) -0.0080(3)
C29 C -0.2687(13) 0.0801(13) 0.0155(5)
C30 C -0.2493(19) -0.0153(13) -0.0097(6)
C31 C -0.2307(11) -0.0074(8) -0.0555(4)
C32 C -0.2417(9) 0.0926(9) -0.0765(4)
C33 C -0.3055(8) 0.2834(6) 0.0152(2)
C34 C -0.2427(17) 0.4709(13) 0.0128(4)
C35 C -0.1932(9) 0.5539(6) -0.0209(2)
C36 C -0.2047(11) 0.6744(9) -0.0060(4)
C37 C -0.3582(7) 0.6388(6) -0.07221(19)
C38 C -0.4725(8) 0.6710(6) -0.1103(2)
C39 C -0.5049(10) 0.7821(7) -0.1187(3)
C40 C -0.6137(14) 0.8133(10) -0.1526(4)
C41 C -0.6931(9) 0.7368(7) -0.1805(2)
C42 C -0.6614(8) 0.6273(7) -0.1725(2)
C43 C -0.5516(16) 0.5937(14) -0.1378(5)
C44 C -0.2284(11) 0.1016(6) -0.1272(2)
C45 C -0.2590(11) 0.2273(9) -0.1908(3)
C46 C -0.3377(11) 0.3315(9) -0.2024(4)
C47 C -0.302(2) 0.3822(14) -0.2511(4)
C48 C -0.2453(8) 0.5017(6) -0.1953(2)
C49 C -0.1881(8) 0.6099(6) -0.1800(2)
C50 C -0.2355(9) 0.7020(6) -0.2061(2)
C51 C -0.1806(10) 0.8048(6) -0.1931(3)
C52 C -0.0749(14) 0.8139(11) -0.1549(5)
C53 C -0.0277(10) 0.7259(8) -0.1286(3)
C54 C -0.0827(15) 0.6185(13) -0.1409(5)
H28 H -0.27630 0.07750 0.04790
H29 H -0.24910 -0.08480 0.00480
H30 H -0.21020 -0.07100 -0.07270
H31 H -0.41820 0.29810 0.01320
H32 H -0.26670 0.27900 0.04820
H33 H -0.17620 0.47610 0.04220
H34 H -0.35140 0.48430 0.01910
H35 H -0.08400 0.53800 -0.02740
H36 H -0.24360 0.68020 0.02480
H37 H -0.10300 0.71140 -0.00540
H38 H -0.44990 0.83620 -0.10040
H39 H -0.63550 0.88890 -0.15720
H40 H -0.76790 0.75900 -0.20460
H41 H -0.71600 0.57380 -0.19130
H42 H -0.53110 0.51800 -0.13290
H43 H -0.11790 0.09750 -0.13320
H44 H -0.28370 0.03980 -0.14330
H45 H -0.29860 0.16920 -0.21250
H46 H -0.14600 0.23480 -0.19260
H47 H -0.45210 0.32230 -0.20170
H48 H -0.21390 0.34380 -0.26350
H49 H -0.39380 0.37690 -0.27390
H50 H -0.30570 0.69390 -0.23300
H51 H -0.21510 0.86790 -0.21010
H52 H -0.03350 0.88400 -0.14670
H53 H 0.04220 0.73580 -0.10180
H54 H -0.04910 0.55590 -0.12340
Cl6_2 Cl 0.0223(4) 0.3542(4) -0.08658(13)
Cd3_2 Cd -1.27792(10) 0.36149(7) -0.09291(4)
loop_
_geom_bond_atom_site_label_1
_geom_bond_atom_site_label_2
_geom_bond_site_symmetry_1
_geom_bond_site_symmetry_2
Cd1 Cl1 1_555 1_555
Cd2 Cl1 1_555 1_555
Cl2 Cd2 1_555 1_555
Cl3 Cd2 1_555 1_555
Cl4 Cd2 1_555 1_555
O1 Cd1 1_555 1_555
O2 C9 1_555 1_555
O3 Cd1 1_555 1_555
O4 C20 1_555 1_555
N1 Cd1 1_555 1_555
N2 Cd1 1_555 1_555
N3 Cd1 1_555 1_555
C1 N1 1_555 1_555
C2 C1 1_555 1_555
C3 C2 1_555 1_555
C4 C3 1_555 1_555
C5 N1 1_555 1_555
C6 O1 1_555 1_555
C7 O1 1_555 1_555
C8 N2 1_555 1_555
C9 C8 1_555 1_555
C10 O2 1_555 1_555
C11 C10 1_555 1_555
C12 C11 1_555 1_555
C13 C12 1_555 1_555
C14 C13 1_555 1_555
C15 C14 1_555 1_555
C16 C11 1_555 1_555
C17 O3 1_555 1_555
C18 O3 1_555 1_555
C19 N3 1_555 1_555
C20 C19 1_555 1_555
C21 O4 1_555 1_555
C22 C21 1_555 1_555
C23 C22 1_555 1_555
C24 C23 1_555 1_555
C25 C24 1_555 1_555
C26 C25 1_555 1_555
C27 C22 1_555 1_555
Cd3 Cl5 1_555 1_555
Cd4 Cl5 1_555 1_555
Cl6 Cd4 1_555 1_555
Cl7 Cd4 1_555 1_555
Cl8 Cd4 1_555 1_555
O5 Cd3 1_555 1_555
O6 C36 1_555 1_555
O7 Cd3 1_555 1_555
O8 C47 1_555 1_555
N4 Cd3 1_555 1_555
N5 Cd3 1_555 1_555
N6 Cd3 1_555 1_555
C28 N4 1_555 1_555
C29 C28 1_555 1_555
C30 C29 1_555 1_555
C31 C30 1_555 1_555
C32 N4 1_555 1_555
C33 O5 1_555 1_555
C34 O5 1_555 1_555
C35 N5 1_555 1_555
C36 C35 1_555 1_555
C37 O6 1_555 1_555
C38 C37 1_555 1_555
C39 C38 1_555 1_555
C40 C39 1_555 1_555
C41 C40 1_555 1_555
C42 C41 1_555 1_555
C43 C38 1_555 1_555
C44 O7 1_555 1_555
C45 O7 1_555 1_555
C46 N6 1_555 1_555
C47 C46 1_555 1_555
C48 O8 1_555 1_555
C49 C48 1_555 1_555
C50 C49 1_555 1_555
C51 C50 1_555 1_555
C52 C51 1_555 1_555
C53 C52 1_555 1_555
C54 C49 1_555 1_555
H1 C2 1_555 1_555
H2 C3 1_555 1_555
H3 C4 1_555 1_555
H4 C6 1_555 1_555
H5 C6 1_555 1_555
H6 C7 1_555 1_555
H7 C7 1_555 1_555
H8 C8 1_555 1_555
H9 C9 1_555 1_555
H10 C9 1_555 1_555
H11 C12 1_555 1_555
H12 C13 1_555 1_555
H13 C14 1_555 1_555
H14 C15 1_555 1_555
H15 C16 1_555 1_555
H16 C17 1_555 1_555
H17 C17 1_555 1_555
H18 C18 1_555 1_555
H19 C18 1_555 1_555
H20 C19 1_555 1_555
H21 C20 1_555 1_555
H22 C20 1_555 1_555
H23 C23 1_555 1_555
H24 C24 1_555 1_555
H25 C25 1_555 1_555
H26 C26 1_555 1_555
H27 C27 1_555 1_555
H28 C29 1_555 1_555
H29 C30 1_555 1_555
H30 C31 1_555 1_555
H31 C33 1_555 1_555
H32 C33 1_555 1_555
H33 C34 1_555 1_555
H34 C34 1_555 1_555
H35 C35 1_555 1_555
H36 C36 1_555 1_555
H37 C36 1_555 1_555
H38 C39 1_555 1_555
H39 C40 1_555 1_555
H40 C41 1_555 1_555
H41 C42 1_555 1_555
H42 C43 1_555 1_555
H43 C44 1_555 1_555
H44 C44 1_555 1_555
H45 C45 1_555 1_555
H46 C45 1_555 1_555
H47 C46 1_555 1_555
H48 C47 1_555 1_555
H49 C47 1_555 1_555
H50 C50 1_555 1_555
H51 C51 1_555 1_555
H52 C52 1_555 1_555
H53 C53 1_555 1_555
H54 C54 1_555 1_555
Cl2_2 Cd1 1_555 1_555
Cl6_2 Cd3 1_555 1_555
Cd3_2 Cl6 1_555 1_555
Cd1_2 Cl2 1_555 1_555
N2 C10 1_555 1_555
N3 C21 1_555 1_555
C1 C6 1_555 1_555
C4 C5 1_555 1_555
C5 C17 1_555 1_555
C7 C8 1_555 1_555
C15 C16 1_555 1_555
C18 C19 1_555 1_555
C26 C27 1_555 1_555
N5 C37 1_555 1_555
N6 C48 1_555 1_555
C28 C33 1_555 1_555
C31 C32 1_555 1_555
C32 C44 1_555 1_555
C34 C35 1_555 1_555
C42 C43 1_555 1_555
C45 C46 1_555 1_555
C53 C54 1_555 1_555

#END
