
#######################################################################
#
#                 Cambridge Crystallographic Data Centre
#                                CCDC 
#
#######################################################################
#
# If this CIF has been generated from an entry in the Cambridge 
# Structural Database, then it will include bibliographic, chemical, 
# crystal, experimental, refinement or atomic coordinate data resulting 
# from the CCDC's data processing and validation procedures.
#
#######################################################################

data_BIGLAF
_symmetry_cell_setting           orthorhombic
_symmetry_space_group_name_H-M   'P 21 21 21'
_symmetry_Int_Tables_number      19
_space_group_name_Hall           'P 2ac 2ab'
loop_
_symmetry_equiv_pos_site_id
_symmetry_equiv_pos_as_xyz
1 x,y,z
2 1/2-x,-y,1/2+z
3 1/2+x,1/2-y,-z
4 -x,1/2+y,1/2-z
_cell_length_a                   9.0518(7)
_cell_length_b                   12.5611(7)
_cell_length_c                   29.0084(15)
_cell_angle_alpha                90
_cell_angle_beta                 90
_cell_angle_gamma                90
_cell_volume                     3298.27
loop_
_atom_site_label
_atom_site_type_symbol
_atom_site_fract_x
_atom_site_fract_y
_atom_site_fract_z
Cd1 Cd 0.26164(7) -0.57814(4) -0.15792(2)
Cd2 Cd -0.23614(8) -0.66274(4) -0.11142(2)
Br1 Br -0.03646(8) -0.58240(8) -0.16769(4)
Br2 Br -0.22748(15) -0.86516(6) -0.11399(3)
Br3 Br -0.22957(16) -0.57097(8) -0.03402(3)
Br4 Br -0.44179(9) -0.60325(8) -0.17094(4)
O1 O 0.2642(9) -0.7250(4) -0.10188(17)
O2 O 0.2771(10) -0.4338(6) -0.0123(2)
O3 O 0.2426(8) -0.5880(4) -0.24403(15)
O4 O 0.3081(7) -0.2381(4) -0.2196(2)
N1 N 0.2502(9) -0.7577(4) -0.1903(2)
N2 N 0.2648(10) -0.5110(5) -0.0821(2)
N3 N 0.2813(7) -0.4039(4) -0.1920(2)
C1 C 0.2166(8) -0.8406(6) -0.1644(3)
C2 C 0.1954(10) -0.9438(7) -0.1812(4)
C3 C 0.2146(15) -0.9584(7) -0.2284(4)
C4 C 0.2499(15) -0.8743(6) -0.2555(3)
C5 C 0.2671(11) -0.7738(6) -0.2357(3)
C6 C 0.1995(10) -0.8215(6) -0.1136(4)
C7 C 0.2508(16) -0.6949(6) -0.0552(3)
C8 C 0.3357(10) -0.5908(8) -0.0516(3)
C9 C 0.3383(15) -0.5390(8) -0.0036(4)
C10 C 0.2356(12) -0.4290(7) -0.0567(3)
C11 C 0.1622(10) -0.3292(7) -0.0705(3)
C12 C 0.0575(11) -0.3271(8) -0.1043(4)
C13 C -0.0134(11) -0.2334(8) -0.1152(5)
C14 C 0.0227(13) -0.1409(9) -0.0921(5)
C15 C 0.1242(15) -0.1419(8) -0.0588(5)
C16 C 0.1987(12) -0.2352(8) -0.0465(4)
C17 C 0.3081(9) -0.6793(7) -0.2636(3)
C18 C 0.2703(14) -0.4911(6) -0.2673(3)
C19 C 0.2070(9) -0.4047(6) -0.2373(3)
C20 C 0.2269(16) -0.2930(6) -0.2559(4)
C21 C 0.3353(9) -0.3106(6) -0.1860(3)
C22 C 0.4276(8) -0.2700(6) -0.1488(3)
C23 C 0.4374(10) -0.1585(7) -0.1409(3)
C24 C 0.5242(11) -0.1215(9) -0.1066(4)
C25 C 0.6002(13) -0.1883(8) -0.0781(4)
C26 C 0.5933(12) -0.2956(8) -0.0864(4)
C27 C 0.5066(9) -0.3377(7) -0.1203(3)
H1 H 0.16920 -1.00110 -0.16140
H2 H 0.20290 -1.02710 -0.24150
H3 H 0.26290 -0.88380 -0.28770
H4 H 0.09330 -0.82030 -0.10540
H5 H 0.24720 -0.87990 -0.09610
H6 H 0.29420 -0.74960 -0.03470
H7 H 0.14580 -0.68450 -0.04670
H8 H 0.43950 -0.60280 -0.06220
H9 H 0.27660 -0.57930 0.01850
H10 H 0.44030 -0.53420 0.00850
H11 H 0.03330 -0.39070 -0.12030
H12 H -0.08690 -0.23250 -0.13860
H13 H -0.02510 -0.07610 -0.10000
H14 H 0.14640 -0.07760 -0.04300
H15 H 0.27120 -0.23520 -0.02280
H16 H 0.41680 -0.67110 -0.26410
H17 H 0.27330 -0.68840 -0.29570
H18 H 0.22210 -0.49100 -0.29790
H19 H 0.37780 -0.48050 -0.27160
H20 H 0.09930 -0.41850 -0.23260
H21 H 0.28400 -0.29380 -0.28500
H22 H 0.13020 -0.25860 -0.26150
H23 H 0.38320 -0.11030 -0.15960
H24 H 0.53260 -0.04680 -0.10220
H25 H 0.65650 -0.16110 -0.05310
H26 H 0.65080 -0.34230 -0.06790
H27 H 0.50060 -0.41260 -0.12430
Br4_2 Br 0.55821(9) -0.60325(8) -0.17094(4)
Cd1_2 Cd -0.73836(7) -0.57814(4) -0.15792(2)
loop_
_geom_bond_atom_site_label_1
_geom_bond_atom_site_label_2
_geom_bond_site_symmetry_1
_geom_bond_site_symmetry_2
Cd1 Br1 1_555 1_555
Cd2 Br1 1_555 1_555
Br2 Cd2 1_555 1_555
Br3 Cd2 1_555 1_555
Br4 Cd2 1_555 1_555
O1 Cd1 1_555 1_555
O2 C9 1_555 1_555
O3 Cd1 1_555 1_555
O4 C20 1_555 1_555
N1 Cd1 1_555 1_555
N2 Cd1 1_555 1_555
N3 Cd1 1_555 1_555
C1 N1 1_555 1_555
C2 C1 1_555 1_555
C3 C2 1_555 1_555
C4 C3 1_555 1_555
C5 N1 1_555 1_555
C6 O1 1_555 1_555
C7 O1 1_555 1_555
C8 N2 1_555 1_555
C9 C8 1_555 1_555
C10 O2 1_555 1_555
C11 C10 1_555 1_555
C12 C11 1_555 1_555
C13 C12 1_555 1_555
C14 C13 1_555 1_555
C15 C14 1_555 1_555
C16 C11 1_555 1_555
C17 O3 1_555 1_555
C18 O3 1_555 1_555
C19 N3 1_555 1_555
C20 C19 1_555 1_555
C21 O4 1_555 1_555
C22 C21 1_555 1_555
C23 C22 1_555 1_555
C24 C23 1_555 1_555
C25 C24 1_555 1_555
C26 C25 1_555 1_555
C27 C22 1_555 1_555
H1 C2 1_555 1_555
H2 C3 1_555 1_555
H3 C4 1_555 1_555
H4 C6 1_555 1_555
H5 C6 1_555 1_555
H6 C7 1_555 1_555
H7 C7 1_555 1_555
H8 C8 1_555 1_555
H9 C9 1_555 1_555
H10 C9 1_555 1_555
H11 C12 1_555 1_555
H12 C13 1_555 1_555
H13 C14 1_555 1_555
H14 C15 1_555 1_555
H15 C16 1_555 1_555
H16 C17 1_555 1_555
H17 C17 1_555 1_555
H18 C18 1_555 1_555
H19 C18 1_555 1_555
H20 C19 1_555 1_555
H21 C20 1_555 1_555
H22 C20 1_555 1_555
H23 C23 1_555 1_555
H24 C24 1_555 1_555
H25 C25 1_555 1_555
H26 C26 1_555 1_555
H27 C27 1_555 1_555
Br4_2 Cd1 1_555 1_555
Cd1_2 Br4 1_555 1_555
N2 C10 1_555 1_555
N3 C21 1_555 1_555
C1 C6 1_555 1_555
C4 C5 1_555 1_555
C5 C17 1_555 1_555
C7 C8 1_555 1_555
C15 C16 1_555 1_555
C18 C19 1_555 1_555
C26 C27 1_555 1_555

#END
