
#######################################################################
#
#                 Cambridge Crystallographic Data Centre
#                                CCDC 
#
#######################################################################
#
# If this CIF has been generated from an entry in the Cambridge 
# Structural Database, then it will include bibliographic, chemical, 
# crystal, experimental, refinement or atomic coordinate data resulting 
# from the CCDC's data processing and validation procedures.
#
#######################################################################

data_BIGSUG
_symmetry_cell_setting           orthorhombic
_symmetry_space_group_name_H-M   'P 21 21 21'
_symmetry_Int_Tables_number      19
_space_group_name_Hall           'P 2ac 2ab'
loop_
_symmetry_equiv_pos_site_id
_symmetry_equiv_pos_as_xyz
1 x,y,z
2 1/2-x,-y,1/2+z
3 -x,1/2+y,1/2-z
4 1/2+x,1/2-y,-z
_cell_length_a                   9.858(4)
_cell_length_b                   10.635(4)
_cell_length_c                   11.329(4)
_cell_angle_alpha                90
_cell_angle_beta                 90
_cell_angle_gamma                90
_cell_volume                     1187.73
loop_
_atom_site_label
_atom_site_type_symbol
_atom_site_fract_x
_atom_site_fract_y
_atom_site_fract_z
Sn1 Sn 0.08794(4) 0.05748(3) 0.75405(5)
S1 S -0.0813(2) 0.07451(16) 0.60148(15)
N1 N 0.1924(3) 0.2115(2) 0.6331(2)
H1 H 0.2153 0.2782 0.6777
H2 H 0.2689 0.1795 0.6020
O1 O 0.0502(3) 0.4152(2) 0.6712(2)
O2 O -0.0787(3) 0.3916(2) 0.5122(2)
C1 C 0.0165(3) 0.3607(2) 0.5736(2)
C2 C 0.1028(3) 0.2528(2) 0.5377(2)
H3 H 0.1620 0.2838 0.4745
C3 C 0.0290(7) 0.1453(6) 0.4887(6)
H4 H 0.0930 0.0830 0.4604
H5 H -0.0256 0.1728 0.4223
C4 C 0.0737(13) 0.1804(7) 0.9000(6)
H6 H -0.0070 0.2304 0.8930
H7 H 0.1516 0.2345 0.9016
H8 H 0.0700 0.1323 0.9716
C5 C 0.2388(8) -0.0757(6) 0.7155(6)
H9 H 0.2172 -0.1174 0.6428
H10 H 0.2434 -0.1364 0.7781
H11 H 0.3248 -0.0341 0.7080
O1B O -0.0502(3) -0.0848(2) 0.8288(2)
Sn1B Sn -0.08794(4) 0.55748(3) 0.74595(5)
O3 O 0.9953(3) 0.8748(2) 0.2947(2)
H12 H 1.027(4) 0.858(6) 0.3653(18)
H13 H 0.9077(13) 0.889(4) 0.303(3)
loop_
_geom_bond_atom_site_label_1
_geom_bond_atom_site_label_2
_geom_bond_site_symmetry_1
_geom_bond_site_symmetry_2
Sn1 S1 1_555 1_555
S1 C3 1_555 1_555
N1 Sn1 1_555 1_555
H1 N1 1_555 1_555
H2 N1 1_555 1_555
O1 C1 1_555 1_555
O2 C1 1_555 1_555
O3 H12 1_555 1_555
C1 C2 1_555 1_555
C2 N1 1_555 1_555
H3 C2 1_555 1_555
C3 C2 1_555 1_555
H4 C3 1_555 1_555
H5 C3 1_555 1_555
C4 Sn1 1_555 1_555
H6 C4 1_555 1_555
H7 C4 1_555 1_555
H8 C4 1_555 1_555
C5 Sn1 1_555 1_555
H9 C5 1_555 1_555
H10 C5 1_555 1_555
H11 C5 1_555 1_555
H13 O3 1_555 1_555
O1B Sn1 1_555 1_555
Sn1B O1 1_555 1_555

#END
