
#######################################################################
#
#                 Cambridge Crystallographic Data Centre
#                                CCDC 
#
#######################################################################
#
# If this CIF has been generated from an entry in the Cambridge 
# Structural Database, then it will include bibliographic, chemical, 
# crystal, experimental, refinement or atomic coordinate data resulting 
# from the CCDC's data processing and validation procedures.
#
#######################################################################

data_BIGWEU
_symmetry_cell_setting           monoclinic
_symmetry_space_group_name_H-M   'P 21/n'
_symmetry_Int_Tables_number      14
_space_group_name_Hall           '-P 2yn'
loop_
_symmetry_equiv_pos_site_id
_symmetry_equiv_pos_as_xyz
1 x,y,z
2 1/2-x,1/2+y,1/2-z
3 -x,-y,-z
4 1/2+x,1/2-y,1/2+z
_cell_length_a                   7.6910(15)
_cell_length_b                   15.635(3)
_cell_length_c                   15.594(3)
_cell_angle_alpha                90
_cell_angle_beta                 93.56(3)
_cell_angle_gamma                90
_cell_volume                     1871.54
loop_
_atom_site_label
_atom_site_type_symbol
_atom_site_fract_x
_atom_site_fract_y
_atom_site_fract_z
Mn1 Mn 0.0000 0.5000 0.0000
Cr1 Cr 0.47774(4) 0.60964(2) -0.212031(19)
O1 O -0.0052(3) 0.60150(12) 0.09617(12)
N1 N 0.4766(3) 0.80393(15) -0.15139(14)
N2 N 0.1303(3) 0.63737(15) -0.33422(14)
N3 N 0.2311(2) 0.55714(13) -0.06286(12)
N4 N -0.1810(3) 0.57328(14) -0.08786(12)
N5 N 0.5058(2) 0.48754(12) -0.26184(11)
N6 N 0.6146(2) 0.63780(11) -0.31945(10)
C1 C 0.4749(3) 0.73449(16) -0.17210(14)
C2 C 0.2511(3) 0.62745(14) -0.28926(13)
C3 C 0.3247(3) 0.57457(14) -0.11405(13)
C4 C -0.2983(3) 0.58940(14) -0.13350(13)
C5 C 0.4557(3) 0.41289(15) -0.23071(17)
H1 H 0.4008 0.4122 -0.1792
C6 C 0.4825(4) 0.33587(17) -0.27252(19)
H2 H 0.4467 0.2848 -0.2486
C7 C 0.5611(4) 0.33517(17) -0.34832(19)
H3 H 0.5775 0.2838 -0.3768
C8 C 0.6171(3) 0.41230(16) -0.38319(16)
C9 C 0.5879(3) 0.48703(14) -0.33722(13)
C10 C 0.6443(3) 0.56751(14) -0.36801(12)
C11 C 0.7257(3) 0.57301(17) -0.44601(14)
C12 C 0.7701(3) 0.65442(18) -0.47406(15)
H4 H 0.8227 0.6609 -0.5258
C13 C 0.7371(3) 0.72323(18) -0.42666(15)
H5 H 0.7656 0.7775 -0.4457
C14 C 0.6598(3) 0.71345(15) -0.34848(14)
H6 H 0.6395 0.7618 -0.3158
C15 C 0.7015(3) 0.41936(19) -0.46243(17)
H7 H 0.7211 0.3702 -0.4939
C16 C 0.7522(4) 0.4945(2) -0.49179(16)
H8 H 0.8063 0.4965 -0.5434
H9 H -0.104(4) 0.632(2) 0.0916(19)
H10 H 0.012(4) 0.578(2) 0.148(2)
O1B O 0.0052(3) 0.39850(12) -0.09617(12)
H9B H 0.104(4) 0.368(2) -0.0916(19)
H10B H -0.012(4) 0.422(2) -0.148(2)
N3B N -0.2311(2) 0.44286(13) 0.06286(12)
C3B C -0.3247(3) 0.42543(14) 0.11405(13)
N4B N 0.1810(3) 0.42672(14) 0.08786(12)
C4B C 0.2983(3) 0.41060(14) 0.13350(13)
Cr1B Cr -0.47774(4) 0.39036(2) 0.212031(19)
N5B N -0.5058(2) 0.51246(12) 0.26184(11)
N6B N -0.6146(2) 0.36220(11) 0.31945(10)
C5B C -0.4557(3) 0.58711(15) 0.23071(17)
H1B H -0.4008 0.5878 0.1792
C6B C -0.4825(4) 0.66413(17) 0.27252(19)
H2B H -0.4467 0.7152 0.2486
C7B C -0.5611(4) 0.66483(17) 0.34832(19)
H3B H -0.5775 0.7162 0.3768
C8B C -0.6171(3) 0.58770(16) 0.38319(16)
C9B C -0.5879(3) 0.51297(14) 0.33722(13)
C10B C -0.6443(3) 0.43249(14) 0.36801(12)
C11B C -0.7257(3) 0.42699(17) 0.44601(14)
C12B C -0.7701(3) 0.34558(18) 0.47406(15)
H4B H -0.8227 0.3391 0.5258
C13B C -0.7371(3) 0.27677(18) 0.42666(15)
H5B H -0.7656 0.2225 0.4457
C14B C -0.6598(3) 0.28655(15) 0.34848(14)
H6B H -0.6395 0.2382 0.3158
C15B C -0.7015(3) 0.58064(19) 0.46243(17)
H7B H -0.7211 0.6298 0.4939
C16B C -0.7522(4) 0.5055(2) 0.49179(16)
H8B H -0.8063 0.5035 0.5434
N1B N -0.4766(3) 0.19607(15) 0.15139(14)
C1B C -0.4749(3) 0.26551(16) 0.17210(14)
N2B N -0.1303(3) 0.36263(15) 0.33422(14)
C2B C -0.2511(3) 0.37255(14) 0.28926(13)
C4_2 C 0.7017(3) 0.58940(14) -0.13350(13)
Cr1_2 Cr -0.52226(4) 0.60964(2) -0.212031(19)
Cr1B_2 Cr 0.52226(4) 0.39036(2) 0.212031(19)
C4B_2 C -0.7017(3) 0.41060(14) 0.13350(13)
O2 O 0.0160(3) 0.53935(15) 0.25875(14)
H11 H -0.015(4) 0.570(2) 0.294(2)
H12 H -0.040(4) 0.497(2) 0.273(2)
O3 O 0.3073(4) 0.29726(18) -0.06270(19)
H13 H 0.341(5) 0.262(2) -0.086(2)
H14 H 0.230(5) 0.279(2) -0.044(2)
loop_
_geom_bond_atom_site_label_1
_geom_bond_atom_site_label_2
_geom_bond_site_symmetry_1
_geom_bond_site_symmetry_2
Mn1 O1 1_555 1_555
Cr1 N5 1_555 1_555
O1 H9 1_555 1_555
N1 C1 1_555 1_555
N2 C2 1_555 1_555
N3 Mn1 1_555 1_555
N4 Mn1 1_555 1_555
N5 C5 1_555 1_555
N6 Cr1 1_555 1_555
C1 Cr1 1_555 1_555
C2 Cr1 1_555 1_555
C3 Cr1 1_555 1_555
C4 N4 1_555 1_555
C5 H1 1_555 1_555
C6 C5 1_555 1_555
H2 C6 1_555 1_555
C7 C6 1_555 1_555
H3 C7 1_555 1_555
C8 C7 1_555 1_555
C9 N5 1_555 1_555
C10 N6 1_555 1_555
C11 C10 1_555 1_555
C12 C11 1_555 1_555
H4 C12 1_555 1_555
C13 C12 1_555 1_555
H5 C13 1_555 1_555
C14 N6 1_555 1_555
H6 C14 1_555 1_555
C15 C8 1_555 1_555
H7 C15 1_555 1_555
C16 C11 1_555 1_555
H8 C16 1_555 1_555
H10 O1 1_555 1_555
O2 H11 1_555 1_555
H12 O2 1_555 1_555
O3 H13 1_555 1_555
H14 O3 1_555 1_555
O1B Mn1 1_555 1_555
H9B O1B 1_555 1_555
H10B O1B 1_555 1_555
N3B Mn1 1_555 1_555
C3B N3B 1_555 1_555
N4B Mn1 1_555 1_555
C4B N4B 1_555 1_555
Cr1B C3B 1_555 1_555
N5B Cr1B 1_555 1_555
N6B Cr1B 1_555 1_555
C5B N5B 1_555 1_555
H1B C5B 1_555 1_555
C6B C5B 1_555 1_555
H2B C6B 1_555 1_555
C7B C6B 1_555 1_555
H3B C7B 1_555 1_555
C8B C7B 1_555 1_555
C9B N5B 1_555 1_555
C10B N6B 1_555 1_555
C11B C10B 1_555 1_555
C12B C11B 1_555 1_555
H4B C12B 1_555 1_555
C13B C12B 1_555 1_555
H5B C13B 1_555 1_555
C14B N6B 1_555 1_555
H6B C14B 1_555 1_555
C15B C8B 1_555 1_555
H7B C15B 1_555 1_555
C16B C11B 1_555 1_555
H8B C16B 1_555 1_555
N1B C1B 1_555 1_555
C1B Cr1B 1_555 1_555
N2B C2B 1_555 1_555
C2B Cr1B 1_555 1_555
C4_2 Cr1 1_555 1_555
Cr1_2 C4 1_555 1_555
Cr1B_2 C4B 1_555 1_555
C4B_2 Cr1B 1_555 1_555
N3 C3 1_555 1_555
C8 C9 1_555 1_555
C9 C10 1_555 1_555
C13 C14 1_555 1_555
C15 C16 1_555 1_555
C8B C9B 1_555 1_555
C9B C10B 1_555 1_555
C13B C14B 1_555 1_555
C15B C16B 1_555 1_555

#END
