
#######################################################################
#
#                 Cambridge Crystallographic Data Centre
#                                CCDC 
#
#######################################################################
#
# If this CIF has been generated from an entry in the Cambridge 
# Structural Database, then it will include bibliographic, chemical, 
# crystal, experimental, refinement or atomic coordinate data resulting 
# from the CCDC's data processing and validation procedures.
#
#######################################################################

data_BIGWEU01
_symmetry_cell_setting           monoclinic
_symmetry_space_group_name_H-M   'P 21/n'
_symmetry_Int_Tables_number      14
_space_group_name_Hall           '-P 2yn'
loop_
_symmetry_equiv_pos_site_id
_symmetry_equiv_pos_as_xyz
1 x,y,z
2 1/2-x,1/2+y,1/2-z
3 -x,-y,-z
4 1/2+x,1/2-y,1/2+z
_cell_length_a                   7.641(5)
_cell_length_b                   15.569(4)
_cell_length_c                   15.490(4)
_cell_angle_alpha                90
_cell_angle_beta                 93.69(4)
_cell_angle_gamma                90
_cell_volume                     1838.91
loop_
_atom_site_label
_atom_site_type_symbol
_atom_site_fract_x
_atom_site_fract_y
_atom_site_fract_z
Mn1 Mn 0.0000 0.5000 0.5000
Cr1 Cr -0.47733(11) 0.60967(5) 0.71203(5)
O1 O -0.0065(7) 0.3985(3) 0.5963(3)
N1 N -0.2296(7) 0.5572(3) 0.5628(3)
N2 N -0.4745(9) 0.8044(4) 0.6511(4)
N3 N -0.1295(8) 0.6380(4) 0.8335(4)
N4 N -0.1802(7) 0.4267(3) 0.4125(3)
N5 N -0.6138(6) 0.6376(3) 0.8195(3)
N6 N -0.5050(6) 0.4876(3) 0.7620(3)
C1 C -0.3254(7) 0.5751(3) 0.6131(4)
C2 C -0.4735(8) 0.7345(4) 0.6717(3)
C3 C -0.2499(8) 0.6276(3) 0.7901(4)
C4 C -0.2982(8) 0.4116(3) 0.3668(3)
C5 C -0.6602(8) 0.7140(4) 0.8480(4)
C6 C -0.7377(9) 0.7248(4) 0.9263(4)
C7 C -0.7712(9) 0.6543(5) 0.9750(4)
C8 C -0.7265(8) 0.5729(4) 0.9460(4)
C9 C -0.7523(10) 0.4948(5) 0.9925(4)
C10 C -0.7018(10) 0.4190(5) 0.9619(5)
C11 C -0.6159(9) 0.4123(4) 0.8829(4)
C12 C -0.5621(10) 0.3347(4) 0.8485(5)
C13 C -0.4814(10) 0.3359(4) 0.7725(5)
C14 C -0.4521(10) 0.4133(4) 0.7309(5)
C15 C -0.5893(7) 0.4875(3) 0.8374(4)
C16 C -0.6444(7) 0.5677(4) 0.8678(3)
H1 H -0.6389 0.7657 0.8116
H2 H -0.7674 0.7838 0.9466
H3 H -0.8269 0.6612 1.0312
H4 H -0.8093 0.4971 1.0488
H5 H -0.7245 0.3656 0.9956
H6 H -0.5832 0.2791 0.8788
H7 H -0.4411 0.2809 0.7471
H8 H -0.3903 0.4130 0.6766
Cr1B Cr -0.52267(11) 0.39033(5) 0.28797(5)
Cr1B_2 Cr 0.47733(11) 0.39033(5) 0.28797(5)
Cr1_2 Cr 0.52267(11) 0.60967(5) 0.71203(5)
O1B O 0.0065(7) 0.6015(3) 0.4037(3)
N1B N 0.2296(7) 0.4428(3) 0.4372(3)
N2B N -0.5255(9) 0.1956(4) 0.3489(4)
N3B N -0.8705(8) 0.3620(4) 0.1665(4)
N4B N 0.1802(7) 0.5733(3) 0.5875(3)
N5B N -0.3862(6) 0.3624(3) 0.1805(3)
N6B N -0.4950(6) 0.5124(3) 0.2380(3)
C1B C -0.6746(7) 0.4249(3) 0.3869(4)
C1B_2 C 0.3254(7) 0.4249(3) 0.3869(4)
C2B C -0.5265(8) 0.2655(4) 0.3283(3)
C3B C -0.7501(8) 0.3724(3) 0.2099(4)
C4B C -0.7018(8) 0.5884(3) 0.6332(3)
C4B_2 C 0.2982(8) 0.5884(3) 0.6332(3)
C5B C -0.3398(8) 0.2860(4) 0.1520(4)
C6B C -0.2623(9) 0.2752(4) 0.0737(4)
C7B C -0.2288(9) 0.3457(5) 0.0250(4)
C8B C -0.2735(8) 0.4271(4) 0.0540(4)
C9B C -0.2477(10) 0.5052(5) 0.0075(4)
C10B C -0.2982(10) 0.5810(5) 0.0381(5)
C11B C -0.3841(9) 0.5877(4) 0.1171(4)
C12B C -0.4379(10) 0.6653(4) 0.1515(5)
C13B C -0.5186(10) 0.6641(4) 0.2275(5)
C14B C -0.5479(10) 0.5867(4) 0.2691(5)
C15B C -0.4107(7) 0.5125(3) 0.1626(4)
C16B C -0.3556(7) 0.4323(4) 0.1322(3)
H1B H -0.3611 0.2343 0.1884
H2B H -0.2326 0.2162 0.0534
H3B H -0.1731 0.3388 -0.0312
H4B H -0.1907 0.5029 -0.0488
H5B H -0.2755 0.6344 0.0044
H6B H -0.4168 0.7209 0.1212
H7B H -0.5589 0.7191 0.2529
H8B H -0.6097 0.5870 0.3234
O2 O 0.1937(10) 0.2047(4) 0.0624(4)
O3 O -0.0145(9) 0.5391(4) 0.2404(3)
loop_
_geom_bond_atom_site_label_1
_geom_bond_atom_site_label_2
_geom_bond_site_symmetry_1
_geom_bond_site_symmetry_2
Mn1 O1 1_555 1_555
Cr1 N5 1_555 1_555
N1 Mn1 1_555 1_555
N2 C2 1_555 1_555
N3 C3 1_555 1_555
N4 Mn1 1_555 1_555
N5 C5 1_555 1_555
N6 Cr1 1_555 1_555
C1 Cr1 1_555 1_555
C2 Cr1 1_555 1_555
C3 Cr1 1_555 1_555
C4 N4 1_555 1_555
C5 C6 1_555 1_555
C6 C7 1_555 1_555
C7 C8 1_555 1_555
C8 C9 1_555 1_555
C9 C10 1_555 1_555
C10 C11 1_555 1_555
C11 C12 1_555 1_555
C12 C13 1_555 1_555
C13 C14 1_555 1_555
C14 N6 1_555 1_555
C15 N6 1_555 1_555
C16 N5 1_555 1_555
H1 C5 1_555 1_555
H2 C6 1_555 1_555
H3 C7 1_555 1_555
H4 C9 1_555 1_555
H5 C10 1_555 1_555
H6 C12 1_555 1_555
H7 C13 1_555 1_555
H8 C14 1_555 1_555
Cr1B C4 1_555 1_555
Cr1B_2 C1B_2 1_555 1_555
Cr1_2 C4B_2 1_555 1_555
O1B Mn1 1_555 1_555
N1B Mn1 1_555 1_555
N2B C2B 1_555 1_555
N3B C3B 1_555 1_555
N4B Mn1 1_555 1_555
N5B Cr1B 1_555 1_555
N6B Cr1B 1_555 1_555
C1B Cr1B 1_555 1_555
C1B_2 N1B 1_555 1_555
C2B Cr1B 1_555 1_555
C3B Cr1B 1_555 1_555
C4B Cr1 1_555 1_555
C4B_2 N4B 1_555 1_555
C5B N5B 1_555 1_555
C6B C5B 1_555 1_555
C7B C6B 1_555 1_555
C8B C7B 1_555 1_555
C9B C8B 1_555 1_555
C10B C9B 1_555 1_555
C11B C10B 1_555 1_555
C12B C11B 1_555 1_555
C13B C12B 1_555 1_555
C14B N6B 1_555 1_555
C15B N6B 1_555 1_555
C16B N5B 1_555 1_555
H1B C5B 1_555 1_555
H2B C6B 1_555 1_555
H3B C7B 1_555 1_555
H4B C9B 1_555 1_555
H5B C10B 1_555 1_555
H6B C12B 1_555 1_555
H7B C13B 1_555 1_555
H8B C14B 1_555 1_555
N1 C1 1_555 1_555
C8 C16 1_555 1_555
C11 C15 1_555 1_555
C15 C16 1_555 1_555
C8B C16B 1_555 1_555
C11B C15B 1_555 1_555
C13B C14B 1_555 1_555
C15B C16B 1_555 1_555

#END
