
#######################################################################
#
#                 Cambridge Crystallographic Data Centre
#                                CCDC 
#
#######################################################################
#
# If this CIF has been generated from an entry in the Cambridge 
# Structural Database, then it will include bibliographic, chemical, 
# crystal, experimental, refinement or atomic coordinate data resulting 
# from the CCDC's data processing and validation procedures.
#
#######################################################################

data_BIHLOU
_symmetry_cell_setting           monoclinic
_symmetry_space_group_name_H-M   'P 21/n'
_symmetry_Int_Tables_number      14
_space_group_name_Hall           '-P 2yn'
loop_
_symmetry_equiv_pos_site_id
_symmetry_equiv_pos_as_xyz
1 x,y,z
2 1/2+x,1/2-y,1/2+z
3 -x,-y,-z
4 1/2-x,1/2+y,1/2-z
_cell_length_a                   7.9944(2)
_cell_length_b                   10.7236(2)
_cell_length_c                   34.9746(6)
_cell_angle_alpha                90
_cell_angle_beta                 94.623(1)
_cell_angle_gamma                90
_cell_volume                     2988.57
loop_
_atom_site_label
_atom_site_type_symbol
_atom_site_fract_x
_atom_site_fract_y
_atom_site_fract_z
Ca1 Ca 0.57642(4) 0.61948(3) 0.256976(8)
S1 S 0.16825(5) 0.58143(4) 0.199474(10)
S2 S 0.59703(5) 0.90732(4) 0.196090(10)
O1 O 0.32905(13) 0.54447(10) 0.21879(3)
O2 O 0.54732(14) 0.78537(11) 0.20938(3)
O3 O 0.12204(14) 0.70927(10) 0.20954(3)
O4 O 0.68128(17) 0.51491(14) 0.20259(4)
O5 O 0.46019(15) 0.99742(11) 0.19510(3)
O6 O 0.03482(14) 0.49243(11) 0.20588(3)
O7 O 0.85287(16) 0.72333(13) 0.25916(4)
O8 O 0.75002(14) 0.95148(11) 0.21767(3)
O9 O 0.45557(16) 0.62155(12) -0.13667(3)
O10 O 0.65635(18) 0.72525(13) 0.31848(4)
O11 O 1.01483(15) 0.91620(12) -0.13005(3)
O12 O 0.19441(16) 0.45413(12) -0.03223(4)
O13 O 0.34674(15) 0.75541(12) 0.27585(3)
O14 O 0.99894(16) 0.73627(11) -0.00832(3)
O15 O 0.39863(16) 0.47484(12) 0.30297(3)
N1 N 0.26543(17) 0.56235(13) 0.03264(4)
N2 N 0.82156(17) 0.85300(13) 0.03832(4)
N3 N 0.36281(17) 0.64212(13) 0.01906(4)
N4 N 0.77362(16) 0.93687(13) 0.01395(4)
C1 C 0.19322(19) 0.57996(14) 0.14973(4)
C2 C 0.65182(19) 0.88874(15) 0.14838(4)
C3 C 0.3035(2) 0.66521(16) 0.13511(4)
H1 H 0.3599 0.7247 0.1516
C4 C 0.5880(2) 0.96983(16) 0.11966(4)
H2 H 0.5091 1.0321 0.1252
C5 C 0.3307(2) 0.66301(16) 0.09650(4)
H3 H 0.4055 0.7208 0.0863
C6 C 0.6402(2) 0.95927(16) 0.08283(4)
H4 H 0.5968 1.0142 0.0631
C7 C 0.24644(19) 0.57447(15) 0.07261(4)
C8 C 0.75616(19) 0.86787(15) 0.07486(4)
C9 C 0.1375(2) 0.48936(16) 0.08738(5)
H5 H 0.0810 0.4298 0.0709
C10 C 0.8184(2) 0.78562(15) 0.10353(4)
H6 H 0.8965 0.7228 0.0978
C11 C 0.1108(2) 0.49111(15) 0.12623(5)
H7 H 0.0375 0.4325 0.1365
C12 C 0.7662(2) 0.79551(15) 0.14042(5)
H8 H 0.8079 0.7395 0.1600
C13 C 0.3807(2) 0.63055(15) -0.02037(4)
C14 C 0.83748(19) 0.92473(15) -0.02194(4)
C15 C 0.4897(2) 0.71577(16) -0.03572(4)
H9 H 0.5453 0.7758 -0.0193
C16 C 0.7873(2) 1.01700(16) -0.04899(4)
H10 H 0.7145 1.0817 -0.0420
C17 C 0.5187(2) 0.71504(16) -0.07418(4)
H11 H 0.5940 0.7731 -0.0840
C18 C 0.8414(2) 1.01570(16) -0.08550(4)
H12 H 0.8048 1.0776 -0.1037
C19 C 0.4345(2) 0.62697(16) -0.09834(4)
C20 C 0.95183(19) 0.92086(16) -0.09511(4)
C21 C 0.3260(2) 0.54066(16) -0.08393(4)
H13 H 0.2702 0.4815 -0.1007
C22 C 1.0073(2) 0.82981(16) -0.06884(4)
H14 H 1.0850 0.7683 -0.0757
C23 C 0.29845(19) 0.54046(15) -0.04503(4)
C24 C 0.9485(2) 0.82911(15) -0.03244(4)
H15 H 0.532(3) 0.673(2) -0.1431(6)
H16 H 0.776(3) 0.502(2) 0.2027(7)
H17 H 0.189(3) 0.473(3) -0.0075(8)
H18 H 0.634(3) 0.486(2) 0.1833(7)
H19 H 0.960(3) 0.967(2) -0.1466(7)
H20 H 0.932(4) 0.703(3) 0.2452(8)
H21 H 0.947(4) 0.751(3) 0.0132(8)
H22 H 0.832(4) 0.805(4) 0.2526(10)
H23 H 0.626(3) 0.697(2) 0.3426(7)
H24 H 0.765(4) 0.742(3) 0.3254(8)
H25 H 0.392(3) 0.829(3) 0.2797(7)
H26 H 0.274(3) 0.7574(19) 0.2566(6)
H27 H 0.411(3) 0.396(2) 0.3020(6)
H28 H 0.293(3) 0.478(2) 0.3006(7)
O8C O 0.74998(14) 0.45148(11) 0.28233(3)
Ca1C Ca 0.92358(4) 1.11948(3) 0.243024(8)
O16 O 0.33982(18) 0.21421(13) 0.16101(4)
H29 H 0.275(3) 0.239(2) 0.1791(7)
H30 H 0.401(3) 0.152(2) 0.1731(7)
loop_
_geom_bond_atom_site_label_1
_geom_bond_atom_site_label_2
_geom_bond_site_symmetry_1
_geom_bond_site_symmetry_2
Ca1 O1 1_555 1_555
S1 O1 1_555 1_555
S2 O2 1_555 1_555
O2 Ca1 1_555 1_555
O3 S1 1_555 1_555
O4 Ca1 1_555 1_555
O5 S2 1_555 1_555
O6 S1 1_555 1_555
O7 Ca1 1_555 1_555
O8 S2 1_555 1_555
O9 C19 1_555 1_555
O10 Ca1 1_555 1_555
O11 C20 1_555 1_555
O12 C23 1_555 1_555
O13 Ca1 1_555 1_555
O14 C24 1_555 1_555
O15 Ca1 1_555 1_555
O16 H29 1_555 1_555
N1 N3 1_555 1_555
N2 N4 1_555 1_555
N3 C13 1_555 1_555
N4 C14 1_555 1_555
C1 S1 1_555 1_555
C2 S2 1_555 1_555
C3 C1 1_555 1_555
H1 C3 1_555 1_555
C4 C2 1_555 1_555
H2 C4 1_555 1_555
C5 C3 1_555 1_555
H3 C5 1_555 1_555
C6 C4 1_555 1_555
H4 C6 1_555 1_555
C7 N1 1_555 1_555
C8 N2 1_555 1_555
C9 C7 1_555 1_555
H5 C9 1_555 1_555
C10 C8 1_555 1_555
H6 C10 1_555 1_555
C11 C1 1_555 1_555
H7 C11 1_555 1_555
C12 C2 1_555 1_555
H8 C12 1_555 1_555
C13 C15 1_555 1_555
C14 C16 1_555 1_555
C15 H9 1_555 1_555
C16 H10 1_555 1_555
C17 C15 1_555 1_555
H11 C17 1_555 1_555
C18 C16 1_555 1_555
H12 C18 1_555 1_555
C19 C17 1_555 1_555
C20 C18 1_555 1_555
C21 C19 1_555 1_555
H13 C21 1_555 1_555
C22 C20 1_555 1_555
H14 C22 1_555 1_555
C23 C13 1_555 1_555
C24 C14 1_555 1_555
H15 O9 1_555 1_555
H16 O4 1_555 1_555
H17 O12 1_555 1_555
H18 O4 1_555 1_555
H19 O11 1_555 1_555
H20 O7 1_555 1_555
H21 O14 1_555 1_555
H22 O7 1_555 1_555
H23 O10 1_555 1_555
H24 O10 1_555 1_555
H25 O13 1_555 1_555
H26 O13 1_555 1_555
H27 O15 1_555 1_555
H28 O15 1_555 1_555
H30 O16 1_555 1_555
O8C Ca1 1_555 1_555
Ca1C O8 1_555 1_555
C5 C7 1_555 1_555
C6 C8 1_555 1_555
C9 C11 1_555 1_555
C10 C12 1_555 1_555
C21 C23 1_555 1_555
C22 C24 1_555 1_555

#END
