
#######################################################################
#
#                 Cambridge Crystallographic Data Centre
#                                CCDC 
#
#######################################################################
#
# If this CIF has been generated from an entry in the Cambridge 
# Structural Database, then it will include bibliographic, chemical, 
# crystal, experimental, refinement or atomic coordinate data resulting 
# from the CCDC's data processing and validation procedures.
#
#######################################################################

data_BIHLUB
_symmetry_cell_setting           triclinic
_symmetry_space_group_name_H-M   'P -1'
_symmetry_Int_Tables_number      2
_space_group_name_Hall           '-P 1'
loop_
_symmetry_equiv_pos_site_id
_symmetry_equiv_pos_as_xyz
1 x,y,z
2 -x,-y,-z
_cell_length_a                   8.927(2)
_cell_length_b                   9.233(2)
_cell_length_c                   12.683(3)
_cell_angle_alpha                94.158(4)
_cell_angle_beta                 96.911(4)
_cell_angle_gamma                104.064(5)
_cell_volume                     1001.03
loop_
_atom_site_label
_atom_site_type_symbol
_atom_site_fract_x
_atom_site_fract_y
_atom_site_fract_z
Cu1 Cu 0.64027(6) 1.09382(6) 0.64289(4)
C1 C 0.7683(5) 0.9029(5) 0.5127(3)
C2 C 0.8111(6) 0.7683(5) 0.4946(3)
H1 H 0.7985 0.6998 0.5452
C3 C 0.8713(5) 0.7347(5) 0.4038(3)
H2 H 0.8988 0.6443 0.3937
C4 C 0.8912(5) 0.8346(5) 0.3278(3)
C5 C 0.8515(5) 0.9678(5) 0.3433(3)
H3 H 0.8668 1.0354 0.2923
C6 C 0.7884(5) 1.0044(5) 0.4344(3)
C7 C 0.7493(5) 1.1476(5) 0.4422(3)
H4 H 0.7710 1.2087 0.3879
C8 C 0.6512(6) 1.3417(5) 0.5224(4)
H5 H 0.5741 1.3430 0.4619
H6 H 0.7447 1.4194 0.5180
C9 C 0.5882(5) 1.3732(5) 0.6264(3)
C10 C 0.5164(5) 1.2675(5) 0.7866(3)
H7 H 0.4130 1.2849 0.7807
H8 H 0.5875 1.3488 0.8341
C11 C 0.5143(5) 1.1197(5) 0.8300(3)
N1 N 0.6871(4) 1.1962(4) 0.5184(3)
N2 N 0.5668(4) 1.2612(4) 0.6825(3)
S1 S 0.95721(12) 0.78295(13) 0.20841(8)
O1 O 0.8397(4) 0.6511(4) 0.1575(3)
O2 O 1.1054(4) 0.7506(5) 0.2362(3)
O3 O 0.9682(4) 0.9094(4) 0.1459(3)
O4 O 0.7084(4) 0.9246(3) 0.6006(2)
O5 O 0.5616(4) 1.4992(3) 0.6463(3)
O6 O 0.5543(4) 1.0181(3) 0.7732(2)
O7 O 0.4764(4) 1.0965(4) 0.9192(2)
Ca1 Ca 0.53388(10) 0.81969(9) 0.89520(6)
O8 O 0.7100(4) 0.7586(4) 0.7703(3)
H9 H 0.6654 0.6668 0.7510
H10 H 0.6993 0.8097 0.7178
O9 O 0.7900(3) 0.9758(3) 0.9685(2)
H11 H 0.8512 1.0223 0.9294
H12 H 0.8410 0.9525 1.0228
O10 O 0.3784(4) 0.6054(4) 0.7721(3)
H13 H 0.4303 0.5618 0.7343
H14 H 0.3070 0.5401 0.7933
O11 O 0.2643(5) 0.7833(5) 0.9108(4)
H15 H 0.2526 0.8503 0.9564
H16 H 0.2152 0.7898 0.8503
O12 O 0.6220(4) 0.6224(4) 0.9777(3)
H17 H 0.6714 0.6575 1.0432
H18 H 0.6872 0.5913 0.9389
Cu1A Cu 1.35973(6) 0.90618(6) 0.35711(4)
O2A O 0.8946(4) 1.2494(5) 0.7638(3)
O7A O 0.5236(4) 0.9035(4) 1.0808(2)
Ca1A Ca 0.46612(10) 1.18031(9) 1.10480(6)
O13 O 0.1389(11) 0.5302(13) 0.0813(10)
H19 H 0.0487 0.4603 0.0676
H20 H 0.1238 0.6182 0.0649
O14 O 0.0016(8) 0.3554(12) 0.2362(8)
H21 H 0.0104 0.3684 0.1682
H22 H 0.0243 0.2698 0.2510
loop_
_geom_bond_atom_site_label_1
_geom_bond_atom_site_label_2
_geom_bond_site_symmetry_1
_geom_bond_site_symmetry_2
Cu1 N1 1_555 1_555
C1 C2 1_555 1_555
C2 H1 1_555 1_555
C3 C2 1_555 1_555
H2 C3 1_555 1_555
C4 C3 1_555 1_555
C5 C4 1_555 1_555
H3 C5 1_555 1_555
C6 C1 1_555 1_555
C7 C6 1_555 1_555
H4 C7 1_555 1_555
C8 H5 1_555 1_555
H6 C8 1_555 1_555
C9 C8 1_555 1_555
C10 H7 1_555 1_555
H8 C10 1_555 1_555
C11 C10 1_555 1_555
N1 C7 1_555 1_555
N2 Cu1 1_555 1_555
S1 C4 1_555 1_555
O1 S1 1_555 1_555
O2 S1 1_555 1_555
O3 S1 1_555 1_555
O4 Cu1 1_555 1_555
O5 C9 1_555 1_555
O6 Cu1 1_555 1_555
O7 C11 1_555 1_555
Ca1 O6 1_555 1_555
O8 Ca1 1_555 1_555
H9 O8 1_555 1_555
H10 O8 1_555 1_555
O9 Ca1 1_555 1_555
H11 O9 1_555 1_555
H12 O9 1_555 1_555
O10 Ca1 1_555 1_555
H13 O10 1_555 1_555
H14 O10 1_555 1_555
O11 Ca1 1_555 1_555
H15 O11 1_555 1_555
H16 O11 1_555 1_555
O12 Ca1 1_555 1_555
H17 O12 1_555 1_555
H18 O12 1_555 1_555
O13 H19 1_555 1_555
H20 O13 1_555 1_555
O14 H21 1_555 1_555
H22 O14 1_555 1_555
Cu1A O2 1_555 1_555
O2A Cu1 1_555 1_555
O7A Ca1 1_555 1_555
Ca1A O7 1_555 1_555
C1 O4 1_555 1_555
C5 C6 1_555 1_555
C8 N1 1_555 1_555
C9 N2 1_555 1_555
C10 N2 1_555 1_555
C11 O6 1_555 1_555
O7 Ca1 1_555 1_555
O7A Ca1A 1_555 1_555

#END
