
#######################################################################
#
#                 Cambridge Crystallographic Data Centre
#                                CCDC 
#
#######################################################################
#
# If this CIF has been generated from an entry in the Cambridge 
# Structural Database, then it will include bibliographic, chemical, 
# crystal, experimental, refinement or atomic coordinate data resulting 
# from the CCDC's data processing and validation procedures.
#
#######################################################################

data_BIHMAI
_symmetry_cell_setting           monoclinic
_symmetry_space_group_name_H-M   'P 21/c'
_symmetry_Int_Tables_number      14
_space_group_name_Hall           '-P 2ybc'
loop_
_symmetry_equiv_pos_site_id
_symmetry_equiv_pos_as_xyz
1 x,y,z
2 -x,1/2+y,1/2-z
3 -x,-y,-z
4 x,1/2-y,1/2+z
_cell_length_a                   8.1109(11)
_cell_length_b                   11.7065(18)
_cell_length_c                   16.460(3)
_cell_angle_alpha                90
_cell_angle_beta                 100.757(9)
_cell_angle_gamma                90
_cell_volume                     1535.42
loop_
_atom_site_label
_atom_site_type_symbol
_atom_site_fract_x
_atom_site_fract_y
_atom_site_fract_z
Cu1 Cu 0.33105(10) 0.41311(7) 0.45665(5)
Sr1 Sr 0.35140(8) 0.08282(6) 0.58536(4)
C1 C 0.1772(8) 0.5507(5) 0.5623(4)
C2 C 0.1161(8) 0.5716(6) 0.6385(4)
H1 H 0.1230 0.5132 0.6773
C3 C 0.0489(8) 0.6743(6) 0.6552(4)
H2 H 0.0099 0.6836 0.7045
C4 C 0.0382(8) 0.7623(6) 0.6012(4)
C5 C 0.0938(8) 0.7515(6) 0.5251(4)
H3 H 0.0854 0.8126 0.4885
C6 C 0.1620(8) 0.6469(6) 0.5058(4)
C7 C 0.2183(8) 0.6394(6) 0.4293(4)
H4 H 0.1967 0.7023 0.3945
C8 C 0.3527(8) 0.5652(6) 0.3242(4)
H5 H 0.4416 0.6215 0.3282
H6 H 0.2616 0.5887 0.2805
C9 C 0.4182(8) 0.4490(6) 0.3036(4)
C10 C 0.4788(8) 0.2595(6) 0.3575(4)
H7 H 0.5930 0.2624 0.3477
H8 H 0.4115 0.2170 0.3126
C11 C 0.4759(8) 0.1987(6) 0.4396(4)
N1 N 0.2926(7) 0.5588(5) 0.4036(3)
N2 N 0.4118(7) 0.3772(5) 0.3595(3)
S1 S -0.0284(2) 0.90197(14) 0.62642(10)
O1 O -0.1510(5) 0.9415(4) 0.5547(3)
O2 O 0.1208(5) 0.9750(4) 0.6386(3)
O3 O -0.0994(5) 0.8882(4) 0.7003(3)
O4 O 0.2425(5) 0.4524(4) 0.5503(3)
O5 O 0.4673(5) 0.4392(4) 0.2366(3)
O6 O 0.4011(5) 0.2581(4) 0.4911(3)
O7 O 0.5287(5) 0.1043(4) 0.4521(3)
O8 O 0.6718(5) 0.1136(4) 0.6390(3)
H9 H 0.7141 0.1246 0.5962
H10 H 0.7101 0.0499 0.6590
O9 O 0.2210(5) 0.2610(4) 0.6438(3)
H11 H 0.2966 0.3114 0.6575
H12 H 0.1436 0.2878 0.6067
Sr1_2 Sr 0.35140(8) 1.08282(6) 0.58536(4)
Sr1B Sr -0.35140(8) 0.91718(6) 0.41464(4)
Sr1B_2 Sr 0.64860(8) -0.08282(6) 0.41464(4)
Sr1C Sr 0.35140(8) 0.41718(6) 0.08536(4)
O1B O 0.1510(5) 0.0585(4) 0.4453(3)
O2_2 O 0.1208(5) -0.0250(4) 0.6386(3)
O5C O 0.4673(5) 0.0608(4) 0.7366(3)
O7B O 0.4713(5) -0.1043(4) 0.5479(3)
loop_
_geom_bond_atom_site_label_1
_geom_bond_atom_site_label_2
_geom_bond_site_symmetry_1
_geom_bond_site_symmetry_2
Cu1 N1 1_555 1_555
Sr1 O6 1_555 1_555
C1 C2 1_555 1_555
C2 H1 1_555 1_555
C3 C2 1_555 1_555
H2 C3 1_555 1_555
C4 C3 1_555 1_555
C5 C4 1_555 1_555
H3 C5 1_555 1_555
C6 C1 1_555 1_555
C7 C6 1_555 1_555
H4 C7 1_555 1_555
C8 H5 1_555 1_555
H6 C8 1_555 1_555
C9 C8 1_555 1_555
C10 H7 1_555 1_555
H8 C10 1_555 1_555
C11 C10 1_555 1_555
N1 C7 1_555 1_555
N2 Cu1 1_555 1_555
S1 C4 1_555 1_555
O1 S1 1_555 1_555
O2 S1 1_555 1_555
O3 S1 1_555 1_555
O4 Cu1 1_555 1_555
O5 C9 1_555 1_555
O6 Cu1 1_555 1_555
O7 Sr1 1_555 1_555
O8 Sr1 1_555 1_555
H9 O8 1_555 1_555
H10 O8 1_555 1_555
O9 Sr1 1_555 1_555
H11 O9 1_555 1_555
H12 O9 1_555 1_555
Sr1_2 O2 1_555 1_555
Sr1B O1 1_555 1_555
Sr1B_2 O7 1_555 1_555
Sr1C O5 1_555 1_555
O1B Sr1 1_555 1_555
O2_2 Sr1 1_555 1_555
O5C Sr1 1_555 1_555
O7B Sr1 1_555 1_555
C1 O4 1_555 1_555
C5 C6 1_555 1_555
C8 N1 1_555 1_555
C9 N2 1_555 1_555
C10 N2 1_555 1_555
C11 O6 1_555 1_555
C11 O7 1_555 1_555
Sr1B_2 O7B 1_555 1_555

#END
