
#######################################################################
#
#                 Cambridge Crystallographic Data Centre
#                                CCDC 
#
#######################################################################
#
# If this CIF has been generated from an entry in the Cambridge 
# Structural Database, then it will include bibliographic, chemical, 
# crystal, experimental, refinement or atomic coordinate data resulting 
# from the CCDC's data processing and validation procedures.
#
#######################################################################

data_BIHMAH
_symmetry_cell_setting           monoclinic
_symmetry_space_group_name_H-M   'P 21/n'
_symmetry_Int_Tables_number      14
_space_group_name_Hall           '-P 2yn'
loop_
_symmetry_equiv_pos_site_id
_symmetry_equiv_pos_as_xyz
1 x,y,z
2 1/2+x,1/2-y,1/2+z
3 -x,-y,-z
4 1/2-x,1/2+y,1/2-z
_cell_length_a                   5.3520(1)
_cell_length_b                   7.9210(1)
_cell_length_c                   31.2980(4)
_cell_angle_alpha                90
_cell_angle_beta                 91.229(1)
_cell_angle_gamma                90
_cell_volume                     1326.52
loop_
_atom_site_label
_atom_site_type_symbol
_atom_site_fract_x
_atom_site_fract_y
_atom_site_fract_z
O1 O 0.7393(3) 0.9180(2) -0.03319(5)
H1 H -0.379(5) 0.645(3) 0.4351(8)
H2 H -0.185(5) 0.772(4) 0.4375(9)
H3 H 0.595(6) 0.913(4) -0.0441(9)
H4 H 0.772(5) 1.018(4) -0.0294(9)
S1 S 0.30027(8) 0.62990(6) 0.050220(14)
N1 N 0.1032(3) 0.7193(2) 0.23554(5)
O2 O 0.5591(3) 0.6786(2) 0.04546(5)
O3 O 0.1323(2) 0.73821(18) 0.02464(4)
C1 C 0.0028(4) 0.7648(3) 0.36432(6)
H5 H 0.1183 0.8218 0.3827
N2 N -0.2335(3) 0.6825(3) 0.42633(5)
C2 C 0.1331(3) 0.6966(3) 0.19054(6)
C3 C 0.2318(3) 0.6629(2) 0.10466(6)
N3 N -0.0995(3) 0.6611(2) 0.24891(5)
C4 C -0.0305(4) 0.6036(3) 0.16428(6)
H6 H -0.1742 0.5520 0.1758
C5 C 0.3442(4) 0.7721(3) 0.17383(6)
H7 H 0.4543 0.8347 0.1920
O4 O 0.2528(3) 0.45257(18) 0.04210(5)
C6 C -0.1281(3) 0.6785(3) 0.29365(6)
C7 C 0.0191(3) 0.5876(3) 0.12128(6)
H8 H -0.0916 0.5255 0.1031
C8 C 0.0419(4) 0.7623(3) 0.32093(6)
H9 H 0.1835 0.8173 0.3096
C9 C -0.3371(4) 0.6001(3) 0.31068(6)
H10 H -0.4547 0.5454 0.2922
C10 C 0.3950(4) 0.7561(3) 0.13054(6)
H11 H 0.5385 0.8080 0.1189
C11 C -0.2050(3) 0.6844(3) 0.38166(6)
C12 C -0.3746(4) 0.6014(3) 0.35449(6)
H12 H -0.5157 0.5459 0.3659
Li1 Li 0.7965(6) 0.7168(4) 0.00174(10)
Li1_2 Li -0.2035(6) 0.7168(4) 0.00174(10)
Li1B Li 0.2035(6) 0.2832(4) -0.00174(10)
O3_2 O 1.1323(2) 0.73821(18) 0.02464(4)
O4B O 0.7472(3) 0.54743(18) -0.04210(5)
loop_
_geom_bond_atom_site_label_1
_geom_bond_atom_site_label_2
_geom_bond_site_symmetry_1
_geom_bond_site_symmetry_2
O1 H3 1_555 1_555
H1 N2 1_555 1_555
H2 N2 1_555 1_555
H4 O1 1_555 1_555
S1 O2 1_555 1_555
N1 C2 1_555 1_555
O2 Li1 1_555 1_555
O3 S1 1_555 1_555
C1 H5 1_555 1_555
N2 C11 1_555 1_555
C2 C4 1_555 1_555
C3 S1 1_555 1_555
N3 N1 1_555 1_555
C4 H6 1_555 1_555
C5 C2 1_555 1_555
H7 C5 1_555 1_555
O4 S1 1_555 1_555
C6 N3 1_555 1_555
C7 C3 1_555 1_555
H8 C7 1_555 1_555
C8 C1 1_555 1_555
H9 C8 1_555 1_555
C9 C6 1_555 1_555
H10 C9 1_555 1_555
C10 C3 1_555 1_555
H11 C10 1_555 1_555
C11 C1 1_555 1_555
C12 C9 1_555 1_555
H12 C12 1_555 1_555
Li1 O1 1_555 1_555
Li1_2 O3 1_555 1_555
Li1B O4 1_555 1_555
O3_2 Li1 1_555 1_555
O4B Li1 1_555 1_555
C4 C7 1_555 1_555
C5 C10 1_555 1_555
C6 C8 1_555 1_555
C11 C12 1_555 1_555

#END
