
#######################################################################
#
#                 Cambridge Crystallographic Data Centre
#                                CCDC 
#
#######################################################################
#
# If this CIF has been generated from an entry in the Cambridge 
# Structural Database, then it will include bibliographic, chemical, 
# crystal, experimental, refinement or atomic coordinate data resulting 
# from the CCDC's data processing and validation procedures.
#
#######################################################################

data_BIHMOV
_symmetry_cell_setting           monoclinic
_symmetry_space_group_name_H-M   'P 2/c'
_symmetry_Int_Tables_number      13
_space_group_name_Hall           '-P 2yc'
loop_
_symmetry_equiv_pos_site_id
_symmetry_equiv_pos_as_xyz
1 x,y,z
2 x,-y,1/2+z
3 -x,-y,-z
4 -x,y,1/2-z
_cell_length_a                   13.3848(2)
_cell_length_b                   6.3152(1)
_cell_length_c                   36.2265(7)
_cell_angle_alpha                90
_cell_angle_beta                 92.115(1)
_cell_angle_gamma                90
_cell_volume                     3060.06
loop_
_atom_site_label
_atom_site_type_symbol
_atom_site_fract_x
_atom_site_fract_y
_atom_site_fract_z
Ba1 Ba 0.230914(12) 0.46484(3) 0.039016(4)
S1 S 0.14244(5) -0.05531(11) 0.097696(18)
S2 S 0.39019(5) 0.93185(11) 0.423447(18)
O1 O 0.21338(13) 0.0907(3) 0.08098(5)
O2 O 0.29294(15) 1.0010(3) 0.43518(5)
O3 O 0.17472(14) -0.2754(3) 0.09613(5)
O4 O 0.02864(16) 0.3591(4) 0.04861(6)
O5 O 0.42103(15) 0.7298(3) 0.44042(5)
O6 O 0.04076(13) -0.0262(3) 0.08184(5)
O7 O 0.16846(17) 0.1575(3) -0.01099(6)
O8 O 0.46642(16) 1.0934(3) 0.42900(5)
O9 O 0.41830(18) 0.3165(4) 0.01886(7)
O10 O 0.27662(17) 0.5736(4) -0.03567(6)
O11 O 0.3460(2) 0.8276(4) 0.04080(7)
O12 O 0.08694(15) 0.7712(3) 0.01209(6)
N1 N 0.13246(16) 0.1742(4) 0.25720(6)
N2 N 0.37196(17) 0.7859(4) 0.26085(6)
N3 N 0.12216(16) 0.3689(4) 0.26420(6)
N4 N 0.37075(17) 0.5934(4) 0.25047(6)
N5 N 0.11040(19) 0.6022(5) 0.41354(7)
N6 N 0.39734(19) 0.4370(4) 0.09850(7)
C1 C 0.13868(19) 0.0158(4) 0.14484(7)
C2 C 0.37986(19) 0.8848(4) 0.37551(7)
C3 C 0.15344(19) -0.1384(4) 0.17195(7)
H1 H 0.1658 -0.2813 0.1653
C4 C 0.3938(2) 1.0514(4) 0.35090(7)
H2 H 0.4071 1.1901 0.3600
C5 C 0.1498(2) -0.0798(4) 0.20895(7)
H3 H 0.1591 -0.1833 0.2278
C6 C 0.3880(2) 1.0135(4) 0.31332(7)
H4 H 0.3966 1.1270 0.2965
C7 C 0.1326(2) 0.1293(5) 0.21826(7)
C8 C 0.36986(19) 0.8103(4) 0.29999(7)
C9 C 0.11694(19) 0.2818(4) 0.19084(7)
H5 H 0.1039 0.4244 0.1975
C10 C 0.35445(19) 0.6439(4) 0.32453(7)
H6 H 0.3408 0.5054 0.3154
C11 C 0.1204(2) 0.2261(4) 0.15422(7)
H7 H 0.1104 0.3299 0.1355
C12 C 0.35907(19) 0.6815(4) 0.36229(7)
H8 H 0.3481 0.5691 0.3791
C13 C 0.1222(2) 0.4169(4) 0.30242(7)
C14 C 0.3759(2) 0.5666(4) 0.21170(7)
C15 C 0.0934(2) 0.6217(5) 0.31141(7)
H9 H 0.0763 0.7197 0.2923
C16 C 0.3727(2) 0.3579(5) 0.19905(7)
H10 H 0.3661 0.2447 0.2160
C17 C 0.0896(2) 0.6836(4) 0.34796(7)
H11 H 0.0687 0.8230 0.3538
C18 C 0.3792(2) 0.3160(5) 0.16162(8)
H12 H 0.3765 0.1737 0.1531
C19 C 0.11635(19) 0.5430(4) 0.37621(7)
C20 C 0.38946(19) 0.4795(4) 0.13643(7)
C21 C 0.14660(19) 0.3377(4) 0.36729(7)
H13 H 0.1652 0.2410 0.3864
C22 C 0.3903(2) 0.6886(4) 0.14922(7)
H14 H 0.3951 0.8020 0.1321
C23 C 0.14958(19) 0.2750(4) 0.33083(7)
H15 H 0.1702 0.1355 0.3250
C24 C 0.38411(19) 0.7318(4) 0.18637(7)
H16 H 0.3855 0.8743 0.1948
H17 H 0.160(2) 0.551(5) 0.4274(9)
H18 H -0.007(3) 0.438(6) 0.0608(11)
H19 H 0.102(2) 0.729(5) 0.4165(7)
H20 H 0.025(2) 0.255(5) 0.0594(8)
H21 H 0.423(2) 0.307(5) 0.0937(8)
H22 H 0.145(2) 0.044(4) -0.0029(8)
H23 H 0.429(2) 0.531(4) 0.0878(8)
H24 H 0.208(3) 0.113(5) -0.0285(9)
H25 H 0.429(3) 0.307(6) -0.0022(10)
H26 H 0.458(3) 0.242(6) 0.0311(10)
H27 H 0.315(3) 0.506(5) -0.0455(10)
H28 H 0.286(3) 0.687(7) -0.0430(10)
H29 H 0.319(3) 0.919(6) 0.0507(11)
H30 H 0.403(3) 0.856(6) 0.0421(10)
H31 H 0.052(2) 0.813(5) 0.0301(9)
H32 H 0.045(3) 0.730(5) -0.0055(10)
O3_2 O 0.17472(14) 0.7246(3) 0.09613(5)
Ba1_2 Ba 0.230914(12) -0.53516(3) 0.039016(4)
loop_
_geom_bond_atom_site_label_1
_geom_bond_atom_site_label_2
_geom_bond_site_symmetry_1
_geom_bond_site_symmetry_2
Ba1 O1 1_555 1_555
S1 O1 1_555 1_555
S2 O2 1_555 1_555
O3 S1 1_555 1_555
O4 Ba1 1_555 1_555
O5 S2 1_555 1_555
O6 S1 1_555 1_555
O7 Ba1 1_555 1_555
O8 S2 1_555 1_555
O9 Ba1 1_555 1_555
O10 Ba1 1_555 1_555
O11 Ba1 1_555 1_555
O12 Ba1 1_555 1_555
N1 N3 1_555 1_555
N2 N4 1_555 1_555
N3 C13 1_555 1_555
N4 C14 1_555 1_555
N5 C19 1_555 1_555
N6 Ba1 1_555 1_555
C1 S1 1_555 1_555
C2 S2 1_555 1_555
C3 C1 1_555 1_555
H1 C3 1_555 1_555
C4 C2 1_555 1_555
H2 C4 1_555 1_555
C5 C3 1_555 1_555
H3 C5 1_555 1_555
C6 C4 1_555 1_555
H4 C6 1_555 1_555
C7 N1 1_555 1_555
C8 N2 1_555 1_555
C9 C7 1_555 1_555
H5 C9 1_555 1_555
C10 C8 1_555 1_555
H6 C10 1_555 1_555
C11 C1 1_555 1_555
H7 C11 1_555 1_555
C12 C2 1_555 1_555
H8 C12 1_555 1_555
C13 C15 1_555 1_555
C14 C16 1_555 1_555
C15 H9 1_555 1_555
C16 H10 1_555 1_555
C17 C15 1_555 1_555
H11 C17 1_555 1_555
C18 C16 1_555 1_555
H12 C18 1_555 1_555
C19 C17 1_555 1_555
C20 N6 1_555 1_555
C21 C19 1_555 1_555
H13 C21 1_555 1_555
C22 C20 1_555 1_555
H14 C22 1_555 1_555
C23 C13 1_555 1_555
H15 C23 1_555 1_555
C24 C14 1_555 1_555
H16 C24 1_555 1_555
H17 N5 1_555 1_555
H18 O4 1_555 1_555
H19 N5 1_555 1_555
H20 O4 1_555 1_555
H21 N6 1_555 1_555
H22 O7 1_555 1_555
H23 N6 1_555 1_555
H24 O7 1_555 1_555
H25 O9 1_555 1_555
H26 O9 1_555 1_555
H27 O10 1_555 1_555
H28 O10 1_555 1_555
H29 O11 1_555 1_555
H30 O11 1_555 1_555
H31 O12 1_555 1_555
H32 O12 1_555 1_555
O3_2 Ba1 1_555 1_555
Ba1_2 O3 1_555 1_555
C5 C7 1_555 1_555
C6 C8 1_555 1_555
C9 C11 1_555 1_555
C10 C12 1_555 1_555
C18 C20 1_555 1_555
C21 C23 1_555 1_555
C22 C24 1_555 1_555

#END
