
#######################################################################
#
#                 Cambridge Crystallographic Data Centre
#                                CCDC 
#
#######################################################################
#
# If this CIF has been generated from an entry in the Cambridge 
# Structural Database, then it will include bibliographic, chemical, 
# crystal, experimental, refinement or atomic coordinate data resulting 
# from the CCDC's data processing and validation procedures.
#
#######################################################################

data_BIHMEM
_symmetry_cell_setting           triclinic
_symmetry_space_group_name_H-M   'P -1'
_symmetry_Int_Tables_number      2
_space_group_name_Hall           '-P 1'
loop_
_symmetry_equiv_pos_site_id
_symmetry_equiv_pos_as_xyz
1 x,y,z
2 -x,-y,-z
_cell_length_a                   8.498(2)
_cell_length_b                   9.691(3)
_cell_length_c                   12.530(3)
_cell_angle_alpha                110.582(4)
_cell_angle_beta                 91.961(4)
_cell_angle_gamma                113.516(4)
_cell_volume                     867.308
loop_
_atom_site_label
_atom_site_type_symbol
_atom_site_fract_x
_atom_site_fract_y
_atom_site_fract_z
Ba1 Ba 1.37514(3) 1.11884(3) 0.40657(2)
Cu1 Cu 0.95088(7) 0.58193(7) 0.17578(5)
C1 C 0.7788(6) 0.6519(6) 0.0176(4)
C2 C 0.7474(7) 0.7669(6) -0.0118(4)
H1 H 0.8070 0.8776 0.0370
C3 C 0.6319(6) 0.7204(6) -0.1098(5)
H2 H 0.6111 0.7990 -0.1259
C4 C 0.5448(6) 0.5566(6) -0.1860(4)
C5 C 0.5692(6) 0.4411(6) -0.1572(4)
H3 H 0.5067 0.3308 -0.2063
C6 C 0.6843(6) 0.4842(6) -0.0570(4)
C7 C 0.6972(6) 0.3521(6) -0.0343(4)
H4 H 0.6295 0.2451 -0.0880
C8 C 0.7958(7) 0.2348(6) 0.0777(4)
H5 H 0.8311 0.1688 0.0144
H6 H 0.6785 0.1662 0.0823
C9 C 0.9216(6) 0.2982(6) 0.1914(4)
C10 C 1.1335(6) 0.5476(6) 0.3482(4)
H7 H 1.2225 0.5088 0.3486
H8 H 1.0721 0.5339 0.4103
C11 C 1.2177(6) 0.7261(6) 0.3668(4)
N1 N 0.7959(5) 0.3735(5) 0.0549(3)
N2 N 1.0125(5) 0.4554(5) 0.2381(3)
O1 O 0.8958(5) 0.7077(4) 0.1113(3)
O2 O 0.9257(5) 0.1958(4) 0.2307(3)
O3 O 1.1498(4) 0.7700(4) 0.2986(3)
O4 O 1.3458(5) 0.8273(4) 0.4455(3)
O5 O 0.4789(4) 0.4152(4) -0.4103(3)
O6 O 0.2326(4) 0.3916(4) -0.3191(3)
O7 O 0.4240(5) 0.6527(4) -0.3220(3)
O8 O 1.0847(5) 1.2111(5) 0.4311(3)
H9 H 1.0731 1.2456 0.3790
H10 H 1.1069 1.2866 0.4980
O9 O 1.2077(5) 1.0736(4) 0.5913(3)
H11 H 1.2165 1.1653 0.6390
H12 H 1.1000 1.0068 0.5642
O10 O 1.5904(5) 1.0048(4) 0.2748(3)
H13 H 1.6643 0.9997 0.3189
H14 H 1.6444 1.0706 0.2437
O11 O 1.1429(5) 1.0189(5) 0.2030(4)
H15 H 1.0403 0.9582 0.2069
H16 H 1.1437 1.1028 0.1952
S1 S 0.41095(15) 0.50149(14) -0.31860(10)
Ba1_2 Ba 0.37514(3) 0.11884(3) -0.59343(2)
Ba1A Ba 0.62486(3) 0.88116(3) -0.40657(2)
Ba1A_2 Ba 1.62486(3) 0.88116(3) 0.59343(2)
Cu1A Cu 0.04912(7) 0.41807(7) -0.17578(5)
O4A O 1.6542(5) 1.1727(4) 0.5545(3)
O5_2 O 1.4789(4) 1.4152(4) 0.5897(3)
O6A O 0.7674(4) 0.6084(4) 0.3191(3)
O7A O 1.5760(5) 1.3473(4) 0.3220(3)
loop_
_geom_bond_atom_site_label_1
_geom_bond_atom_site_label_2
_geom_bond_site_symmetry_1
_geom_bond_site_symmetry_2
Ba1 O3 1_555 1_555
Cu1 N1 1_555 1_555
C1 C2 1_555 1_555
C2 H1 1_555 1_555
C3 C2 1_555 1_555
H2 C3 1_555 1_555
C4 C3 1_555 1_555
C5 C4 1_555 1_555
H3 C5 1_555 1_555
C6 C1 1_555 1_555
C7 C6 1_555 1_555
H4 C7 1_555 1_555
C8 H5 1_555 1_555
H6 C8 1_555 1_555
C9 C8 1_555 1_555
C10 H7 1_555 1_555
H8 C10 1_555 1_555
C11 C10 1_555 1_555
N1 C7 1_555 1_555
N2 Cu1 1_555 1_555
O1 Cu1 1_555 1_555
O2 C9 1_555 1_555
O3 Cu1 1_555 1_555
O4 Ba1 1_555 1_555
O5 S1 1_555 1_555
O6 S1 1_555 1_555
O7 S1 1_555 1_555
O8 Ba1 1_555 1_555
H9 O8 1_555 1_555
H10 O8 1_555 1_555
O9 Ba1 1_555 1_555
H11 O9 1_555 1_555
H12 O9 1_555 1_555
O10 Ba1 1_555 1_555
H13 O10 1_555 1_555
H14 O10 1_555 1_555
O11 Ba1 1_555 1_555
H15 O11 1_555 1_555
H16 O11 1_555 1_555
S1 C4 1_555 1_555
Ba1_2 O5 1_555 1_555
Ba1A O7 1_555 1_555
Ba1A_2 O4 1_555 1_555
Cu1A O6 1_555 1_555
O4A Ba1 1_555 1_555
O5_2 Ba1 1_555 1_555
O6A Cu1 1_555 1_555
O7A Ba1 1_555 1_555
C1 O1 1_555 1_555
C5 C6 1_555 1_555
C8 N1 1_555 1_555
C9 N2 1_555 1_555
C10 N2 1_555 1_555
C11 O3 1_555 1_555
C11 O4 1_555 1_555
Ba1A_2 O4A 1_555 1_555

#END
