
#######################################################################
#
#                 Cambridge Crystallographic Data Centre
#                                CCDC 
#
#######################################################################
#
# If this CIF has been generated from an entry in the Cambridge 
# Structural Database, then it will include bibliographic, chemical, 
# crystal, experimental, refinement or atomic coordinate data resulting 
# from the CCDC's data processing and validation procedures.
#
#######################################################################

data_BIHNAI
_symmetry_cell_setting           monoclinic
_symmetry_space_group_name_H-M   'P 21/n'
_symmetry_Int_Tables_number      14
_space_group_name_Hall           '-P 2yn'
loop_
_symmetry_equiv_pos_site_id
_symmetry_equiv_pos_as_xyz
1 x,y,z
2 1/2+x,1/2-y,1/2+z
3 -x,-y,-z
4 1/2-x,1/2+y,1/2-z
_cell_length_a                   11.0265(2)
_cell_length_b                   7.9870(2)
_cell_length_c                   35.8318(8)
_cell_angle_alpha                90
_cell_angle_beta                 95.653(1)
_cell_angle_gamma                90
_cell_volume                     3140.31
loop_
_atom_site_label
_atom_site_type_symbol
_atom_site_fract_x
_atom_site_fract_y
_atom_site_fract_z
Na1 Na 0.70820(10) 0.07782(14) -0.02844(3)
Na2 Na 0.55301(10) -0.29636(14) -0.00442(3)
S1 S 0.75695(7) 0.45920(10) 0.00365(2)
S2 S 0.56490(7) -0.01991(9) 0.05535(2)
O1 O 0.80675(16) 0.3246(2) -0.01749(5)
O2 O 0.65201(17) -0.0143(2) 0.02738(5)
O3 O 0.62969(16) 0.4312(2) 0.01032(5)
O4 O 0.48950(17) -0.1710(2) 0.05037(5)
O5 O 0.77123(17) 0.6247(2) -0.01280(5)
O6 O 0.48902(18) 0.1291(2) 0.05578(5)
O7 O 0.8601(2) -0.0886(3) -0.04459(7)
N1 N 1.0409(2) 0.4851(3) 0.15405(7)
N2 N 0.8486(2) -0.1010(3) 0.20455(7)
N3 N 0.9904(2) 0.4188(3) 0.18086(7)
N4 N 0.8048(2) -0.0360(3) 0.23256(7)
N5 N 1.2420(2) 0.4295(3) 0.32460(7)
N6 N 1.0790(2) -0.0857(3) 0.37202(7)
C1 C 0.8393(2) 0.4611(3) 0.04846(8)
C2 C 0.6493(2) -0.0349(3) 0.09958(8)
C3 C 0.9803(3) -0.0612(4) -0.05333(10)
H1 H 0.9927 0.0587 -0.0574
H2 H 0.9941 -0.1232 -0.0761
H3 H 1.0377 -0.0999 -0.0325
C4 C 0.7940(3) 0.3804(3) 0.07857(8)
H4 H 0.7184 0.3226 0.0750
C5 C 0.6134(3) 0.0530(3) 0.13018(8)
H5 H 0.5449 0.1256 0.1269
C6 C 0.8578(3) 0.3836(4) 0.11351(9)
H6 H 0.8264 0.3284 0.1340
C7 C 0.6764(3) 0.0354(4) 0.16521(8)
H7 H 0.6516 0.0958 0.1860
C8 C 0.9689(3) 0.4681(4) 0.11879(8)
C9 C 0.7764(2) -0.0712(3) 0.16988(8)
C10 C 1.0155(3) 0.5456(4) 0.08850(8)
H8 H 1.0923 0.6003 0.0919
C11 C 0.8129(3) -0.1563(4) 0.13920(8)
H9 H 0.8820 -0.2279 0.1424
C12 C 0.9512(2) 0.5437(3) 0.05359(8)
H10 H 0.9829 0.5982 0.0331
C13 C 0.7506(3) -0.1389(4) 0.10410(8)
H11 H 0.7766 -0.1975 0.0832
C14 C 1.0584(3) 0.4294(4) 0.21630(9)
C15 C 0.8767(3) -0.0600(3) 0.26689(8)
C16 C 1.1705(3) 0.5110(3) 0.22379(9)
H12 H 1.2055 0.5673 0.2041
C17 C 0.8352(3) 0.0177(4) 0.29804(8)
H13 H 0.7604 0.0775 0.2953
C18 C 1.2301(3) 0.5107(4) 0.25906(9)
H14 H 1.3061 0.5669 0.2634
C19 C 0.9007(3) 0.0094(3) 0.33257(8)
H15 H 0.8704 0.0639 0.3533
C20 C 1.1816(3) 0.4285(3) 0.28935(9)
C21 C 1.0119(3) -0.0784(3) 0.33795(8)
C22 C 1.0678(3) 0.3479(4) 0.28137(9)
H16 H 1.0320 0.2915 0.3009
C23 C 1.0504(3) -0.1618(4) 0.30611(8)
H17 H 1.1235 -0.2255 0.3088
C24 C 1.0084(3) 0.3498(4) 0.24586(9)
H18 H 0.9316 0.2958 0.2413
C25 C 0.9849(2) -0.1528(4) 0.27162(8)
H19 H 1.0129 -0.2098 0.2508
C26 C 1.3676(3) 0.4880(4) 0.33051(9)
H20 H 1.4183 0.4223 0.3150
H21 H 1.3978 0.4748 0.3570
H22 H 1.3711 0.6065 0.3235
C27 C 1.0454(3) 0.0119(4) 0.40334(8)
H23 H 1.0258 0.1265 0.3950
H24 H 1.1135 0.0141 0.4231
H25 H 0.9740 -0.0387 0.4132
C28 C 1.1964(3) 0.3321(4) 0.35472(8)
H26 H 1.1115 0.3629 0.3571
H27 H 1.2460 0.3555 0.3783
H28 H 1.2009 0.2125 0.3489
C29 C 1.1906(3) -0.1853(4) 0.37740(8)
H29 H 1.1724 -0.3015 0.3700
H30 H 1.2229 -0.1818 0.4039
H31 H 1.2511 -0.1394 0.3619
H32 H 0.850(3) -0.177(4) -0.0376(11)
Na2B Na 0.44699(10) 0.29636(14) 0.00442(3)
O4B O 0.51050(17) 0.1710(2) -0.05037(5)
O6B O 0.51098(18) -0.1291(2) -0.05578(5)
Na1B Na 0.29180(10) -0.07782(14) 0.02844(3)
Na2B_2 Na 0.44699(10) -0.70364(14) 0.00442(3)
O3_2 O 0.62969(16) -0.5688(2) 0.01032(5)
O3B O 0.37031(16) -0.4312(2) -0.01032(5)
O5_2 O 0.77123(17) -0.3753(2) -0.01280(5)
Na2_2 Na 0.55301(10) 0.70364(14) -0.00442(3)
loop_
_geom_bond_atom_site_label_1
_geom_bond_atom_site_label_2
_geom_bond_site_symmetry_1
_geom_bond_site_symmetry_2
Na1 O1 1_555 1_555
Na2 O2 1_555 1_555
S1 O1 1_555 1_555
S2 O2 1_555 1_555
O2 Na1 1_555 1_555
O3 S1 1_555 1_555
O4 Na2 1_555 1_555
O5 S1 1_555 1_555
O6 S2 1_555 1_555
O7 Na1 1_555 1_555
N1 N3 1_555 1_555
N2 N4 1_555 1_555
N3 C14 1_555 1_555
N4 C15 1_555 1_555
N5 C20 1_555 1_555
N6 C21 1_555 1_555
C1 S1 1_555 1_555
C2 S2 1_555 1_555
C3 O7 1_555 1_555
H1 C3 1_555 1_555
H2 C3 1_555 1_555
H3 C3 1_555 1_555
C4 C1 1_555 1_555
H4 C4 1_555 1_555
C5 C2 1_555 1_555
H5 C5 1_555 1_555
C6 C4 1_555 1_555
H6 C6 1_555 1_555
C7 C5 1_555 1_555
H7 C7 1_555 1_555
C8 N1 1_555 1_555
C9 N2 1_555 1_555
C10 C8 1_555 1_555
H8 C10 1_555 1_555
C11 C9 1_555 1_555
H9 C11 1_555 1_555
C12 C1 1_555 1_555
H10 C12 1_555 1_555
C13 C2 1_555 1_555
H11 C13 1_555 1_555
C14 C16 1_555 1_555
C15 C17 1_555 1_555
C16 H12 1_555 1_555
C17 H13 1_555 1_555
C18 C16 1_555 1_555
H14 C18 1_555 1_555
C19 C17 1_555 1_555
H15 C19 1_555 1_555
C20 C18 1_555 1_555
C21 C19 1_555 1_555
C22 C20 1_555 1_555
H16 C22 1_555 1_555
C23 C21 1_555 1_555
H17 C23 1_555 1_555
C24 C14 1_555 1_555
H18 C24 1_555 1_555
C25 C15 1_555 1_555
H19 C25 1_555 1_555
C26 N5 1_555 1_555
H20 C26 1_555 1_555
H21 C26 1_555 1_555
H22 C26 1_555 1_555
C27 N6 1_555 1_555
H23 C27 1_555 1_555
H24 C27 1_555 1_555
H25 C27 1_555 1_555
C28 N5 1_555 1_555
H26 C28 1_555 1_555
H27 C28 1_555 1_555
H28 C28 1_555 1_555
C29 N6 1_555 1_555
H29 C29 1_555 1_555
H30 C29 1_555 1_555
H31 C29 1_555 1_555
H32 O7 1_555 1_555
Na2B O3 1_555 1_555
O4B Na1 1_555 1_555
O6B Na1 1_555 1_555
Na1B O4 1_555 1_555
Na2B_2 O3_2 1_555 1_555
O3_2 Na2 1_555 1_555
O3B Na2 1_555 1_555
O5_2 Na2 1_555 1_555
Na2_2 O3 1_555 1_555
Na2 O6B 1_555 1_555
S2 O4 1_555 1_555
O5 Na2_2 1_555 1_555
O6 Na1B 1_555 1_555
O6 Na2B 1_555 1_555
C6 C8 1_555 1_555
C7 C9 1_555 1_555
C10 C12 1_555 1_555
C11 C13 1_555 1_555
C22 C24 1_555 1_555
C23 C25 1_555 1_555
Na2B O4B 1_555 1_555
Na2B_2 O3B 1_555 1_555

#END
