
#######################################################################
#
#                 Cambridge Crystallographic Data Centre
#                                CCDC 
#
#######################################################################
#
# If this CIF has been generated from an entry in the Cambridge 
# Structural Database, then it will include bibliographic, chemical, 
# crystal, experimental, refinement or atomic coordinate data resulting 
# from the CCDC's data processing and validation procedures.
#
#######################################################################

data_BIHNUD
_symmetry_cell_setting           triclinic
_symmetry_space_group_name_H-M   'P -1'
_symmetry_Int_Tables_number      2
_space_group_name_Hall           '-P 1'
loop_
_symmetry_equiv_pos_site_id
_symmetry_equiv_pos_as_xyz
1 x,y,z
2 -x,-y,-z
_cell_length_a                   4.5328(5)
_cell_length_b                   11.3109(12)
_cell_length_c                   13.2988(14)
_cell_angle_alpha                77.560(9)
_cell_angle_beta                 82.903(9)
_cell_angle_gamma                84.026(9)
_cell_volume                     658.607
loop_
_atom_site_label
_atom_site_type_symbol
_atom_site_fract_x
_atom_site_fract_y
_atom_site_fract_z
Br1 Br 0.0000 0.0000 0.5000
Cu1 Cu 1.0000 0.0000 0.0000
O1 O 0.8433(10) -0.1599(4) 0.0164(3)
H1 H 0.6579 -0.1770 -0.0075
H2 H 0.9330 -0.2397 0.0499
O2 O 0.7262(8) 0.0471(3) 0.1134(3)
O3 O 0.3641(9) -0.0793(3) 0.1244(3)
N1 N 0.4149(10) 0.1721(4) 0.2479(4)
N2 N 0.6576(10) 0.2799(4) 0.3209(3)
C1 C 0.4751(11) 0.0058(5) 0.1482(4)
C2 C 0.2818(12) 0.0680(5) 0.2284(4)
H3 H 0.0881 0.0949 0.2040
H4 H 0.2512 0.0092 0.2929
C3 C 0.4197(13) 0.2855(6) 0.1846(5)
H5 H 0.3341 0.3112 0.1227
C4 C 0.5743(14) 0.3529(5) 0.2303(5)
H6 H 0.6157 0.4334 0.2050
C5 C 0.5578(11) 0.1692(5) 0.3305(4)
H7 H 0.5838 0.1030 0.3848
C6 C 0.8291(12) 0.3140(5) 0.3975(4)
H8 H 1.0163 0.3436 0.3628
H9 H 0.8746 0.2426 0.4500
C7 C 0.6564(11) 0.4110(5) 0.4488(4)
C8 C 0.4471(11) 0.3755(4) 0.5355(4)
C9 C 0.3874(13) 0.2517(5) 0.5735(4)
H10 H 0.4900 0.1921 0.5412
C10 C 0.1812(13) 0.2186(5) 0.6570(4)
H11 H 0.1433 0.1374 0.6799
C11 C 0.0266(13) 0.3070(5) 0.7083(4)
H12 H -0.1106 0.2837 0.7655
C12 C 0.0774(12) 0.4263(5) 0.6746(4)
H13 H -0.0273 0.4832 0.7094
C13 C 0.7130(12) 0.5331(5) 0.4128(4)
O2A O 0.2738(8) 0.9529(3) 0.8866(3)
O3A O 0.6359(9) 1.0793(3) 0.8756(3)
N1A N 0.5851(10) 0.8279(4) 0.7521(4)
N2A N 0.3424(10) 0.7201(4) 0.6791(3)
C1A C 0.5249(11) 0.9942(5) 0.8518(4)
C2A C 0.7182(12) 0.9320(5) 0.7716(4)
H3A H 0.9119 0.9051 0.7960
H4A H 0.7488 0.9908 0.7071
C3A C 0.5803(13) 0.7145(6) 0.8154(5)
H5A H 0.6659 0.6888 0.8773
C4A C 0.4257(14) 0.6471(5) 0.7697(5)
H6A H 0.3843 0.5666 0.7950
C5A C 0.4422(11) 0.8308(5) 0.6695(4)
H7A H 0.4162 0.8970 0.6152
C6A C 0.1709(12) 0.6860(5) 0.6025(4)
H8A H -0.0163 0.6564 0.6372
H9A H 0.1254 0.7574 0.5500
C7A C 0.3436(11) 0.5890(5) 0.5512(4)
C8A C 0.5529(11) 0.6245(4) 0.4645(4)
C9A C 0.6126(13) 0.7483(5) 0.4265(4)
H10A H 0.5100 0.8079 0.4588
C10A C 0.8188(13) 0.7814(5) 0.3430(4)
H11A H 0.8567 0.8626 0.3201
C11A C 0.9734(13) 0.6930(5) 0.2917(4)
H12A H 1.1106 0.7163 0.2345
C12A C 0.9226(12) 0.5737(5) 0.3254(4)
H13A H 1.0273 0.5168 0.2906
C13A C 0.2870(12) 0.4669(5) 0.5872(4)
O1A O 1.1567(10) 0.1599(4) -0.0164(3)
H1A H 1.3421 0.1770 0.0075
H2A H 1.0670 0.2397 -0.0499
Cu1_2 Cu 0.0000 0.0000 0.0000
Cu1_3 Cu 0.0000 1.0000 1.0000
Cu1_4 Cu 1.0000 1.0000 1.0000
O2A_2 O 1.2738(8) -0.0471(3) -0.1134(3)
O3_2 O 1.3641(9) -0.0793(3) 0.1244(3)
O3A_2 O 0.6359(9) 0.0793(3) -0.1244(3)
loop_
_geom_bond_atom_site_label_1
_geom_bond_atom_site_label_2
_geom_bond_site_symmetry_1
_geom_bond_site_symmetry_2
Cu1 O1 1_555 1_555
O1 H1 1_555 1_555
H2 O1 1_555 1_555
O2 Cu1 1_555 1_555
O3 C1 1_555 1_555
N1 C2 1_555 1_555
N2 C4 1_555 1_555
C1 O2 1_555 1_555
C2 C1 1_555 1_555
H3 C2 1_555 1_555
H4 C2 1_555 1_555
C3 N1 1_555 1_555
H5 C3 1_555 1_555
C4 C3 1_555 1_555
H6 C4 1_555 1_555
C5 N1 1_555 1_555
H7 C5 1_555 1_555
C6 N2 1_555 1_555
H8 C6 1_555 1_555
H9 C6 1_555 1_555
C7 C6 1_555 1_555
C8 C7 1_555 1_555
C9 C8 1_555 1_555
H10 C9 1_555 1_555
C10 C9 1_555 1_555
H11 C10 1_555 1_555
C11 C10 1_555 1_555
H12 C11 1_555 1_555
C12 C11 1_555 1_555
H13 C12 1_555 1_555
C13 C7 1_555 1_555
O2A C1A 1_555 1_555
O3A C1A 1_555 1_555
N1A C2A 1_555 1_555
N2A C4A 1_555 1_555
C1A C2A 1_555 1_555
C2A H3A 1_555 1_555
H4A C2A 1_555 1_555
C3A N1A 1_555 1_555
H5A C3A 1_555 1_555
C4A C3A 1_555 1_555
H6A C4A 1_555 1_555
C5A N1A 1_555 1_555
H7A C5A 1_555 1_555
C6A N2A 1_555 1_555
H8A C6A 1_555 1_555
H9A C6A 1_555 1_555
C7A C6A 1_555 1_555
C8A C13 1_555 1_555
C9A C8A 1_555 1_555
H10A C9A 1_555 1_555
C10A C9A 1_555 1_555
H11A C10A 1_555 1_555
C11A C10A 1_555 1_555
H12A C11A 1_555 1_555
C12A C13 1_555 1_555
H13A C12A 1_555 1_555
C13A C8 1_555 1_555
O1A Cu1 1_555 1_555
H1A O1A 1_555 1_555
H2A O1A 1_555 1_555
Cu1_2 O3 1_555 1_555
Cu1_3 O2A 1_555 1_555
Cu1_4 O3A 1_555 1_555
O2A_2 Cu1 1_555 1_555
O3_2 Cu1 1_555 1_555
O3A_2 Cu1 1_555 1_555
N2 C5 1_555 1_555
C12 C13A 1_555 1_555
N2A C5A 1_555 1_555
C7A C8A 1_555 1_555
C7A C13A 1_555 1_555
C11A C12A 1_555 1_555

#END
