
#######################################################################
#
#                 Cambridge Crystallographic Data Centre
#                                CCDC 
#
#######################################################################
#
# If this CIF has been generated from an entry in the Cambridge 
# Structural Database, then it will include bibliographic, chemical, 
# crystal, experimental, refinement or atomic coordinate data resulting 
# from the CCDC's data processing and validation procedures.
#
#######################################################################

data_BIHPEP
_symmetry_cell_setting           triclinic
_symmetry_space_group_name_H-M   'P -1'
_symmetry_Int_Tables_number      2
_space_group_name_Hall           '-P 1'
loop_
_symmetry_equiv_pos_site_id
_symmetry_equiv_pos_as_xyz
1 x,y,z
2 -x,-y,-z
_cell_length_a                   4.5284(4)
_cell_length_b                   11.4135(9)
_cell_length_c                   13.2801(11)
_cell_angle_alpha                78.119(7)
_cell_angle_beta                 83.978(7)
_cell_angle_gamma                84.959(7)
_cell_volume                     666.419
loop_
_atom_site_label
_atom_site_type_symbol
_atom_site_fract_x
_atom_site_fract_y
_atom_site_fract_z
Br1 Br 0.5000 0.0000 0.5000
Zn1 Zn 0.5000 0.0000 0.0000
O1 O 1.2114(9) 0.0478(4) 0.1171(3)
O2 O 0.8286(9) -0.0622(4) 0.1102(4)
O3 O 0.3412(12) -0.1708(4) 0.0204(4)
H1 H 0.1817 -0.1772 0.0638
H2 H 0.4753 -0.2263 0.0449
N1 N 0.8973(11) 0.1759(5) 0.2467(4)
N2 N 1.1485(11) 0.2810(4) 0.3206(4)
C1 C 0.9510(13) 0.0145(6) 0.1433(5)
C2 C 0.7609(14) 0.0736(6) 0.2249(5)
H3 H 0.5669 0.1002 0.2006
H4 H 0.7319 0.0145 0.2883
C3 C 0.9030(16) 0.2883(6) 0.1845(5)
H5 H 0.8155 0.3139 0.1227
C4 C 1.0605(15) 0.3543(6) 0.2308(5)
H6 H 1.1019 0.4342 0.2067
C5 C 1.0457(13) 0.1747(6) 0.3285(5)
H7 H 1.0724 0.1094 0.3824
C6 C 1.3234(13) 0.3170(5) 0.3957(5)
H8 H 1.5060 0.3488 0.3599
H9 H 1.3770 0.2467 0.4468
C7 C 1.1550(13) 0.4110(6) 0.4504(5)
C8 C 0.9506(14) 0.3751(6) 0.5351(5)
C9 C 0.8930(15) 0.2540(6) 0.5750(5)
H10 H 0.9958 0.1950 0.5435
C10 C 0.6956(16) 0.2205(6) 0.6565(5)
H11 H 0.6612 0.1398 0.6793
C11 C 0.5380(15) 0.3083(6) 0.7085(5)
H12 H 0.4024 0.2849 0.7652
C12 C 0.5871(15) 0.4245(7) 0.6749(6)
H13 H 0.4833 0.4807 0.7095
C13 C 1.2060(14) 0.5342(6) 0.4124(5)
O2A O 1.1714(9) 1.0622(4) 0.8898(4)
N1A N 1.1027(11) 0.8241(5) 0.7533(4)
N2A N 0.8515(11) 0.7190(4) 0.6794(4)
C1A C 1.0490(13) 0.9855(6) 0.8567(5)
C2A C 1.2391(14) 0.9264(6) 0.7751(5)
H3A H 1.4331 0.8998 0.7994
H4A H 1.2681 0.9855 0.7117
C3A C 1.0970(16) 0.7117(6) 0.8155(5)
H5A H 1.1845 0.6861 0.8773
C4A C 0.9395(15) 0.6457(6) 0.7692(5)
H6A H 0.8981 0.5658 0.7933
C5A C 0.9543(13) 0.8253(6) 0.6715(5)
H7A H 0.9276 0.8906 0.6176
C6A C 0.6766(13) 0.6830(5) 0.6043(5)
H8A H 0.4940 0.6512 0.6401
H9A H 0.6230 0.7533 0.5532
C7A C 0.8450(13) 0.5890(6) 0.5496(5)
C8A C 1.0494(14) 0.6249(6) 0.4649(5)
C9A C 1.1070(15) 0.7460(6) 0.4250(5)
H10A H 1.0042 0.8050 0.4565
C10A C 1.3044(16) 0.7795(6) 0.3435(5)
H11A H 1.3388 0.8602 0.3207
C11A C 1.4620(15) 0.6917(6) 0.2915(5)
H12A H 1.5976 0.7151 0.2348
C12A C 1.4129(15) 0.5755(7) 0.3251(6)
H13A H 1.5167 0.5193 0.2905
C13A C 0.7940(14) 0.4658(6) 0.5876(5)
O1A O 0.7886(9) 0.9522(4) 0.8829(3)
O3A O 0.6588(12) 0.1708(4) -0.0204(4)
H1A H 0.8183 0.1772 -0.0638
H2A H 0.5247 0.2263 -0.0449
Zn1_2 Zn 0.5000 1.0000 1.0000
Zn1_3 Zn 1.5000 0.0000 0.0000
Zn1_4 Zn 1.5000 1.0000 1.0000
O1_2 O 0.2114(9) 0.0478(4) 0.1171(3)
O1A_2 O 0.7886(9) -0.0478(4) -0.1171(3)
O2A_2 O 0.1714(9) 0.0622(4) -0.1102(4)
loop_
_geom_bond_atom_site_label_1
_geom_bond_atom_site_label_2
_geom_bond_site_symmetry_1
_geom_bond_site_symmetry_2
Zn1 O2 1_555 1_555
O1 C1 1_555 1_555
O2 C1 1_555 1_555
O3 Zn1 1_555 1_555
H1 O3 1_555 1_555
H2 O3 1_555 1_555
N1 C2 1_555 1_555
N2 C4 1_555 1_555
C1 C2 1_555 1_555
C2 H3 1_555 1_555
H4 C2 1_555 1_555
C3 N1 1_555 1_555
H5 C3 1_555 1_555
C4 C3 1_555 1_555
H6 C4 1_555 1_555
C5 N1 1_555 1_555
H7 C5 1_555 1_555
C6 N2 1_555 1_555
H8 C6 1_555 1_555
H9 C6 1_555 1_555
C7 C6 1_555 1_555
C8 C7 1_555 1_555
C9 C8 1_555 1_555
H10 C9 1_555 1_555
C10 C9 1_555 1_555
H11 C10 1_555 1_555
C11 C10 1_555 1_555
H12 C11 1_555 1_555
C12 C11 1_555 1_555
H13 C12 1_555 1_555
C13 C7 1_555 1_555
O2A C1A 1_555 1_555
N1A C2A 1_555 1_555
N2A C4A 1_555 1_555
C1A C2A 1_555 1_555
C2A H3A 1_555 1_555
H4A C2A 1_555 1_555
C3A N1A 1_555 1_555
H5A C3A 1_555 1_555
C4A C3A 1_555 1_555
H6A C4A 1_555 1_555
C5A N1A 1_555 1_555
H7A C5A 1_555 1_555
C6A N2A 1_555 1_555
H8A C6A 1_555 1_555
H9A C6A 1_555 1_555
C7A C6A 1_555 1_555
C8A C13 1_555 1_555
C9A C8A 1_555 1_555
H10A C9A 1_555 1_555
C10A C9A 1_555 1_555
H11A C10A 1_555 1_555
C11A C10A 1_555 1_555
H12A C11A 1_555 1_555
C12A C13 1_555 1_555
H13A C12A 1_555 1_555
C13A C8 1_555 1_555
O1A C1A 1_555 1_555
O3A Zn1 1_555 1_555
H1A O3A 1_555 1_555
H2A O3A 1_555 1_555
Zn1_2 O1A 1_555 1_555
Zn1_3 O1 1_555 1_555
Zn1_4 O2A 1_555 1_555
O1_2 Zn1 1_555 1_555
O1A_2 Zn1 1_555 1_555
O2A_2 Zn1 1_555 1_555
N2 C5 1_555 1_555
C12 C13A 1_555 1_555
N2A C5A 1_555 1_555
C7A C8A 1_555 1_555
C7A C13A 1_555 1_555
C11A C12A 1_555 1_555

#END
