
#######################################################################
#
#                 Cambridge Crystallographic Data Centre
#                                CCDC 
#
#######################################################################
#
# If this CIF has been generated from an entry in the Cambridge 
# Structural Database, then it will include bibliographic, chemical, 
# crystal, experimental, refinement or atomic coordinate data resulting 
# from the CCDC's data processing and validation procedures.
#
#######################################################################

data_BIHQIU
_symmetry_cell_setting           triclinic
_symmetry_space_group_name_H-M   'P -1'
_symmetry_Int_Tables_number      2
_space_group_name_Hall           '-P 1'
loop_
_symmetry_equiv_pos_site_id
_symmetry_equiv_pos_as_xyz
1 x,y,z
2 -x,-y,-z
_cell_length_a                   8.75800(10)
_cell_length_b                   19.9716(3)
_cell_length_c                   20.9905(3)
_cell_angle_alpha                61.7270(10)
_cell_angle_beta                 83.5140(10)
_cell_angle_gamma                77.5750(10)
_cell_volume                     3157.48
loop_
_atom_site_label
_atom_site_type_symbol
_atom_site_fract_x
_atom_site_fract_y
_atom_site_fract_z
Cu1 Cu 0.91492(7) 0.25186(4) 0.54160(3)
F1 F 1.1605(3) 0.28230(17) 0.56411(15)
F2 F 1.4042(5) 0.2621(3) 0.5997(3)
F3 F 1.3448(5) 0.3432(3) 0.4916(3)
F4 F 1.2504(6) 0.3723(4) 0.5709(4)
B1 B 1.2866(10) 0.3155(7) 0.5572(7)
O1 O 1.0945(4) -0.0731(2) 0.87828(19)
O2 O 0.8336(4) -0.0589(2) 0.87376(18)
O3 O 0.4919(4) -0.0560(2) 0.82356(18)
O4 O 0.6197(5) 0.0297(3) 0.5435(2)
O5 O 0.5432(4) -0.0800(2) 0.6289(2)
O6 O 0.5498(4) -0.2420(2) 0.75113(19)
O7 O 1.1420(5) -0.4452(3) 0.9003(3)
O8 O 1.0298(4) -0.3211(2) 0.8359(2)
O9 O 0.8103(4) -0.2885(2) 0.94689(19)
O10 O 0.4282(4) 0.5283(2) 0.62381(18)
O11 O 0.6495(4) 0.50544(19) 0.68248(18)
O12 O 0.4767(4) 0.3693(2) 0.8073(2)
O13 O 1.0327(4) 0.3931(2) 0.76220(18)
O14 O 1.1187(3) 0.4555(2) 0.81317(18)
O15 O 0.7489(4) 0.5138(2) 0.8492(2)
O16 O 0.9048(7) 0.0861(3) 0.9158(3)
O17 O 0.8843(5) 0.2062(2) 0.8199(2)
O18 O 0.9253(4) 0.2553(2) 0.93718(18)
O19 O 0.6981(3) 0.22545(19) 0.51372(17)
H1 H 0.6855 0.1879 0.5101
H2 H 0.6145 0.2460 0.5242
N1 N 0.9336(5) 0.1624(2) 0.6424(2)
N2 N 0.6535(5) -0.1712(2) 0.8867(2)
N3 N 0.9396(5) -0.1850(2) 0.4964(2)
N4 N 0.5164(4) -0.1482(2) 0.7870(2)
N5 N 1.4291(5) -0.2981(3) 0.9712(2)
N6 N 0.6917(5) -0.2645(2) 0.8456(2)
N7 N 0.7931(5) 0.3203(2) 0.5830(2)
N8 N 0.6084(5) 0.4425(3) 0.8299(2)
N9 N 1.0841(4) 0.6528(2) 0.5557(2)
N10 N 0.8405(5) 0.3843(3) 0.8947(2)
N11 N 1.4499(10) 0.1235(6) 0.8382(6)
N12 N 0.6969(6) 0.3104(3) 0.8750(2)
C1 C 1.0708(6) 0.1265(3) 0.6770(3)
H3 H 1.1619 0.1467 0.6536
C2 C 1.0872(6) 0.0634(3) 0.7433(3)
H4 H 1.1867 0.0406 0.7653
C3 C 0.9560(6) 0.0333(3) 0.7776(3)
C4 C 0.8115(6) 0.0694(3) 0.7447(3)
H5 H 0.7189 0.0504 0.7674
C5 C 0.8072(6) 0.1335(3) 0.6781(3)
H6 H 0.7083 0.1590 0.6559
C6 C 0.9718(7) -0.0385(3) 0.8487(3)
C7 C 0.8336(6) -0.1310(3) 0.9393(3)
H7 H 0.8487 -0.1247 0.9820
H8 H 0.9187 -0.1717 0.9375
C8 C 0.6778(6) -0.1523(3) 0.9434(3)
H9 H 0.6671 -0.1973 0.9910
H10 H 0.5948 -0.1086 0.9405
C9 C 0.5503(6) -0.1199(3) 0.8308(3)
C10 C 0.9564(6) -0.1125(3) 0.4765(3)
H11 H 1.0415 -0.0937 0.4453
C11 C 0.8567(6) -0.0638(3) 0.4988(3)
H12 H 0.8718 -0.0125 0.4825
C12 C 0.7339(7) -0.0914(3) 0.5457(3)
C13 C 0.7136(6) -0.1663(3) 0.5673(3)
H13 H 0.6309 -0.1869 0.5993
C14 C 0.8179(6) -0.2097(3) 0.5404(3)
H14 H 0.8025 -0.2605 0.5540
C15 C 0.6259(7) -0.0386(4) 0.5713(3)
C16 C 0.4481(6) -0.0389(3) 0.6654(3)
H15 H 0.3591 -0.0019 0.6349
H16 H 0.5112 -0.0101 0.6764
C17 C 0.3906(6) -0.1004(3) 0.7341(3)
H17 H 0.3074 -0.0755 0.7562
H18 H 0.3443 -0.1342 0.7222
C18 C 0.5838(6) -0.2197(3) 0.7908(3)
C19 C 1.4572(6) -0.3721(4) 0.9818(3)
H19 H 1.5433 -0.4072 1.0108
C20 C 1.3653(7) -0.3985(3) 0.9522(3)
H20 H 1.3878 -0.4509 0.9611
C21 C 1.2408(7) -0.3477(4) 0.9095(3)
C22 C 1.2120(6) -0.2712(3) 0.8973(3)
H21 H 1.1283 -0.2347 0.8675
C23 C 1.3078(7) -0.2499(3) 0.9294(3)
H22 H 1.2868 -0.1979 0.9214
C24 C 1.1345(7) -0.3773(4) 0.8815(3)
C25 C 0.9108(6) -0.3422(3) 0.8099(3)
H23 H 0.9480 -0.3945 0.8139
H24 H 0.8902 -0.3052 0.7583
C26 C 0.7621(6) -0.3415(3) 0.8536(3)
H25 H 0.6857 -0.3610 0.8384
H26 H 0.7849 -0.3771 0.9053
C27 C 0.7262(6) -0.2444(3) 0.8960(3)
C28 C 0.8550(5) 0.3293(3) 0.6331(3)
H27 H 0.9513 0.2971 0.6543
C29 C 0.7837(5) 0.3842(3) 0.6556(2)
H28 H 0.8311 0.3903 0.6906
C30 C 0.6407(6) 0.4298(3) 0.6252(3)
C31 C 0.5735(6) 0.4173(3) 0.5768(3)
H29 H 0.4726 0.4451 0.5583
C32 C 0.6540(6) 0.3641(3) 0.5556(2)
H30 H 0.6093 0.3579 0.5200
C33 C 0.5587(6) 0.4929(3) 0.6434(3)
C34 C 0.5778(6) 0.5584(3) 0.7109(3)
H31 H 0.4984 0.5996 0.6769
H32 H 0.6580 0.5830 0.7170
C35 C 0.5012(6) 0.5134(3) 0.7836(3)
H33 H 0.4705 0.5463 0.8081
H34 H 0.4054 0.4996 0.7757
C36 C 0.7345(6) 0.4513(4) 0.8579(3)
C37 C 1.0484(5) 0.5891(3) 0.5603(3)
H35 H 1.0237 0.5893 0.5173
C38 C 1.0459(5) 0.5227(3) 0.6252(3)
H36 H 1.0218 0.4781 0.6261
C39 C 1.0785(5) 0.5213(3) 0.6885(3)
C40 C 1.1167(5) 0.5865(3) 0.6848(3)
H37 H 1.1401 0.5878 0.7272
C41 C 1.1199(5) 0.6506(3) 0.6169(3)
H38 H 1.1490 0.6951 0.6141
C42 C 1.0743(5) 0.4495(3) 0.7578(3)
C43 C 1.1252(5) 0.3871(3) 0.8837(3)
H39 H 1.2138 0.3835 0.9113
H40 H 1.1435 0.3402 0.8769
C44 C 0.9758(5) 0.3905(3) 0.9259(3)
H41 H 0.9905 0.3480 0.9760
H42 H 0.9532 0.4399 0.9284
C45 C 0.8291(7) 0.3121(4) 0.9041(3)
C46 C 1.3865(11) 0.0676(6) 0.8959(6)
H43 H 1.4543 0.0268 0.9322
C47 C 1.2305(11) 0.0677(5) 0.9036(5)
H44 H 1.1887 0.0236 0.9376
C48 C 1.1354(10) 0.1370(5) 0.8579(4)
C49 C 1.2009(10) 0.1977(5) 0.8069(5)
H45 H 1.1337 0.2453 0.7791
C50 C 1.3613(11) 0.1928(6) 0.7940(6)
H46 H 1.4057 0.2345 0.7573
C51 C 0.9688(10) 0.1371(5) 0.8709(4)
C52 C 0.7165(7) 0.2139(3) 0.8298(3)
H47 H 0.6850 0.1647 0.8411
H48 H 0.6647 0.2549 0.7846
C53 C 0.6661(7) 0.2339(3) 0.8902(3)
H49 H 0.5527 0.2338 0.8993
H50 H 0.7217 0.1935 0.9347
C54 C 0.5869(7) 0.3735(4) 0.8346(3)
Cu1A Cu 1.08508(7) -0.25186(4) 0.45840(3)
Cu1A_2 Cu 1.08508(7) 0.74814(4) 0.45840(3)
N3A N 1.0604(5) 0.1850(2) 0.5036(2)
N9A N 0.9159(4) 0.3472(2) 0.4443(2)
F5 F 0.9935(5) 0.1238(2) 0.2368(2)
F6 F 1.0049(9) 0.0480(3) 0.3522(3)
F7 F 0.9586(7) 0.1677(3) 0.3161(2)
F8 F 1.1659(6) 0.1125(5) 0.2991(4)
B2 B 1.0238(13) 0.1103(5) 0.3020(5)
O20 O 0.3035(4) -0.3011(3) 0.7258(2)
H51 H 0.2117 -0.3016 0.7386
H52 H 0.3544 -0.2990 0.7551
O21 O 0.2886(5) -0.1573(2) 0.5713(2)
H53 H 0.3687 -0.1893 0.5761
H54 H 0.2172 -0.1691 0.5589
loop_
_geom_bond_atom_site_label_1
_geom_bond_atom_site_label_2
_geom_bond_site_symmetry_1
_geom_bond_site_symmetry_2
Cu1 F1 1_555 1_555
F1 B1 1_555 1_555
F2 B1 1_555 1_555
F3 B1 1_555 1_555
F4 B1 1_555 1_555
O1 C6 1_555 1_555
O2 C6 1_555 1_555
O3 C9 1_555 1_555
O4 C15 1_555 1_555
O5 C15 1_555 1_555
O6 C18 1_555 1_555
O7 C24 1_555 1_555
O8 C24 1_555 1_555
O9 C27 1_555 1_555
O10 C33 1_555 1_555
O11 C33 1_555 1_555
O12 C54 1_555 1_555
O13 C42 1_555 1_555
O14 C42 1_555 1_555
O15 C36 1_555 1_555
O16 C51 1_555 1_555
O17 C51 1_555 1_555
O18 C45 1_555 1_555
O19 Cu1 1_555 1_555
H1 O19 1_555 1_555
H2 O19 1_555 1_555
N1 Cu1 1_555 1_555
N2 C8 1_555 1_555
N3 C10 1_555 1_555
N4 C9 1_555 1_555
N5 C19 1_555 1_555
N6 C18 1_555 1_555
N7 Cu1 1_555 1_555
N8 C35 1_555 1_555
N9 C37 1_555 1_555
N10 C36 1_555 1_555
N11 C46 1_555 1_555
N12 C45 1_555 1_555
C1 N1 1_555 1_555
H3 C1 1_555 1_555
C2 C1 1_555 1_555
H4 C2 1_555 1_555
C3 C2 1_555 1_555
C4 C3 1_555 1_555
H5 C4 1_555 1_555
C5 N1 1_555 1_555
H6 C5 1_555 1_555
C6 C3 1_555 1_555
C7 O2 1_555 1_555
H7 C7 1_555 1_555
H8 C7 1_555 1_555
C8 C7 1_555 1_555
H9 C8 1_555 1_555
H10 C8 1_555 1_555
C9 N2 1_555 1_555
C10 H11 1_555 1_555
C11 C10 1_555 1_555
H12 C11 1_555 1_555
C12 C11 1_555 1_555
C13 C12 1_555 1_555
H13 C13 1_555 1_555
C14 N3 1_555 1_555
H14 C14 1_555 1_555
C15 C12 1_555 1_555
C16 O5 1_555 1_555
H15 C16 1_555 1_555
H16 C16 1_555 1_555
C17 N4 1_555 1_555
H17 C17 1_555 1_555
H18 C17 1_555 1_555
C18 N4 1_555 1_555
C19 H19 1_555 1_555
C20 C19 1_555 1_555
H20 C20 1_555 1_555
C21 C20 1_555 1_555
C22 C21 1_555 1_555
H21 C22 1_555 1_555
C23 N5 1_555 1_555
H22 C23 1_555 1_555
C24 C21 1_555 1_555
C25 O8 1_555 1_555
H23 C25 1_555 1_555
H24 C25 1_555 1_555
C26 N6 1_555 1_555
H25 C26 1_555 1_555
H26 C26 1_555 1_555
C27 N2 1_555 1_555
C28 N7 1_555 1_555
H27 C28 1_555 1_555
C29 C28 1_555 1_555
H28 C29 1_555 1_555
C30 C29 1_555 1_555
C31 C30 1_555 1_555
H29 C31 1_555 1_555
C32 N7 1_555 1_555
H30 C32 1_555 1_555
C33 C30 1_555 1_555
C34 O11 1_555 1_555
H31 C34 1_555 1_555
H32 C34 1_555 1_555
C35 C34 1_555 1_555
H33 C35 1_555 1_555
H34 C35 1_555 1_555
C36 N8 1_555 1_555
C37 H35 1_555 1_555
C38 C37 1_555 1_555
H36 C38 1_555 1_555
C39 C38 1_555 1_555
C40 C39 1_555 1_555
H37 C40 1_555 1_555
C41 N9 1_555 1_555
H38 C41 1_555 1_555
C42 C39 1_555 1_555
C43 O14 1_555 1_555
H39 C43 1_555 1_555
H40 C43 1_555 1_555
C44 N10 1_555 1_555
H41 C44 1_555 1_555
H42 C44 1_555 1_555
C45 N10 1_555 1_555
C46 H43 1_555 1_555
C47 C46 1_555 1_555
H44 C47 1_555 1_555
C48 C47 1_555 1_555
C49 C48 1_555 1_555
H45 C49 1_555 1_555
C50 N11 1_555 1_555
H46 C50 1_555 1_555
C51 C48 1_555 1_555
C52 O17 1_555 1_555
H47 C52 1_555 1_555
H48 C52 1_555 1_555
C53 N12 1_555 1_555
H49 C53 1_555 1_555
H50 C53 1_555 1_555
C54 N8 1_555 1_555
F5 B2 1_555 1_555
F6 B2 1_555 1_555
F7 B2 1_555 1_555
F8 B2 1_555 1_555
O20 H51 1_555 1_555
H52 O20 1_555 1_555
O21 H53 1_555 1_555
H54 O21 1_555 1_555
Cu1A N3 1_555 1_555
Cu1A_2 N9 1_555 1_555
N3A Cu1 1_555 1_555
N9A Cu1 1_555 1_555
N6 C27 1_555 1_555
N12 C54 1_555 1_555
C4 C5 1_555 1_555
C13 C14 1_555 1_555
C16 C17 1_555 1_555
C22 C23 1_555 1_555
C25 C26 1_555 1_555
C31 C32 1_555 1_555
C40 C41 1_555 1_555
C43 C44 1_555 1_555
C49 C50 1_555 1_555
C52 C53 1_555 1_555

#END
