
#######################################################################
#
#                 Cambridge Crystallographic Data Centre
#                                CCDC 
#
#######################################################################
#
# If this CIF has been generated from an entry in the Cambridge 
# Structural Database, then it will include bibliographic, chemical, 
# crystal, experimental, refinement or atomic coordinate data resulting 
# from the CCDC's data processing and validation procedures.
#
#######################################################################

data_BIHQUG
_symmetry_cell_setting           monoclinic
_symmetry_space_group_name_H-M   'P 21/n'
_symmetry_Int_Tables_number      14
_space_group_name_Hall           '-P 2yn'
loop_
_symmetry_equiv_pos_site_id
_symmetry_equiv_pos_as_xyz
1 x,y,z
2 1/2-x,1/2+y,1/2-z
3 -x,-y,-z
4 1/2+x,1/2-y,1/2+z
_cell_length_a                   14.3708(2)
_cell_length_b                   16.6625(2)
_cell_length_c                   20.5020(3)
_cell_angle_alpha                90
_cell_angle_beta                 107.9740(10)
_cell_angle_gamma                90
_cell_volume                     4669.69
loop_
_atom_site_label
_atom_site_type_symbol
_atom_site_fract_x
_atom_site_fract_y
_atom_site_fract_z
Cu1 Cu 0.11243(4) 0.30329(3) 0.12091(3)
S1 S 0.16451(9) 0.34417(7) 0.27829(6)
S2 S 0.25921(10) 0.13687(8) 0.17867(7)
O1 O -0.2713(2) 0.03145(19) 0.06878(16)
O2 O -0.2670(3) 0.0393(2) -0.03937(17)
O3 O -0.1248(2) -0.28226(19) 0.21106(15)
O4 O 0.0382(2) -0.2839(2) 0.23348(17)
O5 O -0.0196(2) 0.04342(19) 0.31625(18)
O6 O 0.0788(3) 0.1377(2) 0.2977(3)
O7 O -0.3070(2) 0.0771(2) 0.19649(18)
O8 O -0.3375(3) -0.1914(2) 0.15458(18)
O9 O -0.1352(2) -0.0999(2) 0.35757(17)
O10 O 0.2223(2) 0.20343(19) 0.12720(18)
O11 O 0.1125(2) 0.2921(2) 0.21633(16)
N1 N 0.0003(3) 0.2238(2) 0.09275(19)
N2 N -0.0956(3) -0.3230(2) -0.02018(19)
N3 N 0.2819(3) -0.1123(2) 0.35403(19)
N4 N -0.3219(3) -0.0570(2) 0.17293(19)
N5 N -0.2339(3) -0.1475(2) 0.25648(19)
N6 N -0.2181(3) -0.0093(2) 0.27741(18)
C1 C -0.0687(3) 0.2183(3) 0.1242(2)
H1 H -0.0640 0.2523 0.1623
C2 C -0.1459(3) 0.1655(3) 0.1036(2)
H2 H -0.1927 0.1623 0.1277
C3 C -0.1542(3) 0.1168(3) 0.0467(2)
C4 C -0.0832(3) 0.1213(3) 0.0143(2)
H3 H -0.0870 0.0885 -0.0244
C5 C -0.0069(3) 0.1740(3) 0.0391(2)
H4 H 0.0430 0.1757 0.0176
C6 C -0.2359(3) 0.0582(3) 0.0203(2)
C7 C -0.3409(4) -0.0340(3) 0.0504(2)
H5 H -0.3066 -0.0847 0.0473
H6 H -0.3898 -0.0233 0.0053
C8 C -0.3909(3) -0.0408(3) 0.1050(2)
H7 H -0.4262 0.0098 0.1067
H8 H -0.4397 -0.0846 0.0926
C9 C -0.2108(3) -0.2298(3) 0.2836(2)
H9 H -0.2622 -0.2669 0.2568
H10 H -0.2114 -0.2312 0.3318
C10 C -0.1130(3) -0.2587(3) 0.2809(2)
H11 H -0.0638 -0.2153 0.2951
H12 H -0.0905 -0.3049 0.3121
C11 C -0.0430(3) -0.2896(3) 0.1945(2)
C12 C -0.0097(4) -0.3436(3) 0.0252(3)
H13 H 0.0405 -0.3642 0.0088
C13 C 0.0082(3) -0.3358(3) 0.0954(2)
H14 H 0.0695 -0.3511 0.1266
C14 C -0.0648(3) -0.3052(3) 0.1189(2)
C15 C -0.1549(3) -0.2876(3) 0.0728(2)
H15 H -0.2072 -0.2693 0.0881
C16 C -0.1669(3) -0.2971(3) 0.0041(2)
H16 H -0.2288 -0.2848 -0.0278
C17 C -0.1795(3) 0.0592(3) 0.3235(2)
H17 H -0.1548 0.0398 0.3714
H18 H -0.2331 0.0978 0.3205
C18 C -0.0983(3) 0.1011(3) 0.3052(3)
H19 H -0.1208 0.1186 0.2567
H20 H -0.0762 0.1489 0.3346
C19 C 0.0630(4) 0.0696(3) 0.3105(3)
C20 C 0.1867(4) -0.1314(3) 0.3307(3)
H21 H 0.1689 -0.1864 0.3239
C21 C 0.1140(4) -0.0746(3) 0.3162(3)
H22 H 0.0472 -0.0904 0.3013
C22 C 0.1384(3) 0.0047(3) 0.3236(3)
C23 C 0.2365(4) 0.0252(3) 0.3441(4)
H23 H 0.2558 0.0800 0.3468
C24 C 0.3057(4) -0.0348(3) 0.3607(3)
H24 H 0.3729 -0.0204 0.3775
C25 C -0.2841(3) 0.0085(3) 0.2144(2)
C26 C -0.3001(3) -0.1366(3) 0.1918(2)
C27 C -0.1917(3) -0.0860(3) 0.3013(2)
C28 C 0.1738(5) 0.0576(4) 0.1519(4)
H25 H 0.1129 0.0718 0.1612
H26 H 0.2008 0.0086 0.1771
H27 H 0.1603 0.0484 0.1026
C29 C 0.3584(4) 0.0938(4) 0.1540(3)
H28 H 0.4140 0.1309 0.1660
H29 H 0.3370 0.0842 0.1045
H30 H 0.3781 0.0428 0.1783
C30 C 0.2602(4) 0.2826(4) 0.3294(3)
H31 H 0.3124 0.2789 0.3081
H32 H 0.2347 0.2289 0.3331
H33 H 0.2864 0.3062 0.3753
C31 C 0.0847(4) 0.3402(4) 0.3294(3)
H34 H 0.0256 0.3715 0.3074
H35 H 0.1178 0.3626 0.3749
H36 H 0.0666 0.2843 0.3342
Cu1A Cu 0.38757(4) -0.19671(3) 0.37909(3)
Cu1B Cu -0.11243(4) -0.30329(3) -0.12091(3)
N2B N 0.0956(3) 0.3230(2) 0.02018(19)
N3A N 0.2181(3) 0.3877(2) 0.14597(19)
Cl1 Cl -0.06574(9) 0.45653(8) 0.15732(7)
O12 O -0.0338(3) 0.4195(2) 0.10475(19)
O13 O -0.1076(3) 0.3963(2) 0.1895(2)
O14 O 0.0173(4) 0.4913(3) 0.2063(3)
O15 O -0.1355(4) 0.5166(3) 0.1296(3)
Cl2 Cl -0.04868(9) -0.07475(7) 0.13464(6)
O16 O -0.0349(3) 0.0048(2) 0.1630(2)
O17 O -0.0974(3) -0.0704(3) 0.0625(2)
O18 O -0.1050(3) -0.1197(3) 0.1678(3)
O19 O 0.0445(3) -0.1128(3) 0.1456(2)
Cl3 Cl 0.57466(16) 0.17638(13) 0.02952(11)
Cl4 Cl 0.4125(5) 0.2496(13) 0.0440(3)
C32 C 0.4979(6) 0.2582(5) 0.0006(5)
H37 H 0.5344 0.3093 0.0121
H38 H 0.4662 0.2555 -0.0496
Cl6 Cl -0.2353(3) -0.1694(2) 0.52423(17)
Cl7 Cl -0.1122(3) -0.0330(3) 0.51877(15)
C33 C -0.2239(8) -0.0823(8) 0.4829(5)
H41 H -0.2776 -0.0455 0.4837
H42 H -0.2314 -0.0948 0.4343
Cl5? Cl 0.4288(8) 0.3022(16) 0.0373(9)
H39? H 0.5405 0.3009 -0.0080
H40? H 0.4540 0.2422 -0.0450
loop_
_geom_bond_atom_site_label_1
_geom_bond_atom_site_label_2
_geom_bond_site_symmetry_1
_geom_bond_site_symmetry_2
Cu1 O10 1_555 1_555
S1 O11 1_555 1_555
S2 O10 1_555 1_555
O1 C6 1_555 1_555
O2 C6 1_555 1_555
O3 C10 1_555 1_555
O4 C11 1_555 1_555
O5 C18 1_555 1_555
O6 C19 1_555 1_555
O7 C25 1_555 1_555
O8 C26 1_555 1_555
O9 C27 1_555 1_555
O11 Cu1 1_555 1_555
N1 Cu1 1_555 1_555
N2 C12 1_555 1_555
N3 C20 1_555 1_555
N4 C8 1_555 1_555
N5 C9 1_555 1_555
N6 C17 1_555 1_555
C1 N1 1_555 1_555
H1 C1 1_555 1_555
C2 C1 1_555 1_555
H2 C2 1_555 1_555
C3 C2 1_555 1_555
C4 C3 1_555 1_555
H3 C4 1_555 1_555
C5 N1 1_555 1_555
H4 C5 1_555 1_555
C6 C3 1_555 1_555
C7 O1 1_555 1_555
H5 C7 1_555 1_555
H6 C7 1_555 1_555
C8 C7 1_555 1_555
H7 C8 1_555 1_555
H8 C8 1_555 1_555
C9 H9 1_555 1_555
H10 C9 1_555 1_555
C10 C9 1_555 1_555
H11 C10 1_555 1_555
H12 C10 1_555 1_555
C11 O3 1_555 1_555
C12 H13 1_555 1_555
C13 C12 1_555 1_555
H14 C13 1_555 1_555
C14 C11 1_555 1_555
C15 C14 1_555 1_555
H15 C15 1_555 1_555
C16 N2 1_555 1_555
H16 C16 1_555 1_555
C17 H17 1_555 1_555
H18 C17 1_555 1_555
C18 C17 1_555 1_555
H19 C18 1_555 1_555
H20 C18 1_555 1_555
C19 O5 1_555 1_555
C20 H21 1_555 1_555
C21 C20 1_555 1_555
H22 C21 1_555 1_555
C22 C19 1_555 1_555
C23 C22 1_555 1_555
H23 C23 1_555 1_555
C24 N3 1_555 1_555
H24 C24 1_555 1_555
C25 N4 1_555 1_555
C26 N4 1_555 1_555
C27 N5 1_555 1_555
C28 S2 1_555 1_555
H25 C28 1_555 1_555
H26 C28 1_555 1_555
H27 C28 1_555 1_555
C29 S2 1_555 1_555
H28 C29 1_555 1_555
H29 C29 1_555 1_555
H30 C29 1_555 1_555
C30 S1 1_555 1_555
H31 C30 1_555 1_555
H32 C30 1_555 1_555
H33 C30 1_555 1_555
C31 S1 1_555 1_555
H34 C31 1_555 1_555
H35 C31 1_555 1_555
H36 C31 1_555 1_555
Cl1 O12 1_555 1_555
O13 Cl1 1_555 1_555
O14 Cl1 1_555 1_555
O15 Cl1 1_555 1_555
Cl2 O16 1_555 1_555
O17 Cl2 1_555 1_555
O18 Cl2 1_555 1_555
O19 Cl2 1_555 1_555
Cl3 C32 1_555 1_555
Cl4 C32 1_555 1_555
C32 H37 1_555 1_555
H38 C32 1_555 1_555
Cl6 C33 1_555 1_555
Cl7 C33 1_555 1_555
C33 H41 1_555 1_555
H42 C33 1_555 1_555
Cu1A N3 1_555 1_555
Cu1B N2 1_555 1_555
N2B Cu1 1_555 1_555
N3A Cu1 1_555 1_555
N5 C26 1_555 1_555
N6 C25 1_555 1_555
N6 C27 1_555 1_555
C4 C5 1_555 1_555
C13 C14 1_555 1_555
C15 C16 1_555 1_555
C21 C22 1_555 1_555
C23 C24 1_555 1_555

#END
