
#######################################################################
#
#                 Cambridge Crystallographic Data Centre
#                                CCDC 
#
#######################################################################
#
# If this CIF has been generated from an entry in the Cambridge 
# Structural Database, then it will include bibliographic, chemical, 
# crystal, experimental, refinement or atomic coordinate data resulting 
# from the CCDC's data processing and validation procedures.
#
#######################################################################

data_BIHVUL
_symmetry_cell_setting           monoclinic
_symmetry_space_group_name_H-M   'P 21/c'
_symmetry_Int_Tables_number      14
_space_group_name_Hall           '-P 2ybc'
loop_
_symmetry_equiv_pos_site_id
_symmetry_equiv_pos_as_xyz
1 x,y,z
2 -x,1/2+y,1/2-z
3 -x,-y,-z
4 x,1/2-y,1/2+z
_cell_length_a                   8.405(3)
_cell_length_b                   17.494(5)
_cell_length_c                   17.621(4)
_cell_angle_alpha                90
_cell_angle_beta                 100.421(8)
_cell_angle_gamma                90
_cell_volume                     2548.2
loop_
_atom_site_label
_atom_site_type_symbol
_atom_site_fract_x
_atom_site_fract_y
_atom_site_fract_z
Ni1 Ni 0.79964(3) 0.248466(13) 0.762091(13)
O1 O 1.16659(19) 0.30186(10) 0.85119(9)
O2 O 0.95390(17) 0.23104(9) 0.86569(8)
N1 N 0.6023(2) 0.43097(10) 0.87281(9)
N2 N 0.5179(2) 0.10571(10) 0.88101(10)
C1 C 1.4348(2) 0.21204(11) 1.05569(11)
C2 C 1.1895(2) 0.22043(12) 0.95977(11)
O3 O 0.9719(2) 0.31915(11) 0.72037(10)
O4 O 1.6992(2) 0.25029(9) 1.04173(10)
O5 O 1.6402(2) 0.23555(10) 1.16020(9)
C3 C 0.5082(2) 0.05285(12) 0.94153(12)
N3 N 0.9645(2) 0.06622(10) 0.64062(11)
C4 C 1.3493(2) 0.24159(11) 0.98694(11)
H1 H 1.3997 0.2760 0.9587
C5 C 1.3614(2) 0.15877(11) 1.09622(11)
H2 H 1.4154 0.1393 1.1430
C6 C 1.2064(3) 0.13516(12) 1.06583(12)
C7 C 0.5493(3) 0.46566(11) 0.93696(12)
O6 O 0.9998(3) 0.05334(15) 1.08252(14)
N4 N 0.6271(2) 0.18389(10) 0.80595(10)
N5 N 0.7083(2) 0.34747(9) 0.80235(9)
C8 C 1.6083(2) 0.23510(11) 1.08788(11)
O7 O 1.2231(3) 0.04219(14) 1.15936(14)
C9 C 0.3721(3) 0.00682(12) 0.93874(13)
H3 H 0.2922 0.0110 0.9009
N6 N 0.8996(2) 0.15205(10) 0.72113(10)
C10 C 1.1177(2) 0.16590(12) 0.99937(12)
H4 H 1.0118 0.1503 0.9815
C11 C 0.5270(3) 0.46399(13) 1.07075(13)
H5 H 0.5455 0.4395 1.1184
N7 N 1.1379(2) 0.07270(12) 1.10561(12)
C12 C 0.3652(3) -0.04568(13) 0.99674(13)
H6 H 0.2743 -0.0765 0.9942
C13 C 0.9583(3) -0.07546(13) 0.48530(15)
H7 H 0.9304 -0.1264 0.4752
C14 C 0.5760(3) 0.42989(13) 1.00799(13)
H8 H 0.6272 0.3826 1.0137
C15 C 0.3971(3) 0.12852(15) 0.82234(14)
H9 H 0.2890 0.1140 0.8151
C16 C 0.9852(3) 0.03234(13) 0.56945(14)
C17 C 0.9420(3) 0.08483(13) 0.76022(13)
H10 H 0.9442 0.0775 0.8127
C18 C 0.9153(3) 0.13868(12) 0.64941(12)
H11 H 0.8952 0.1745 0.6098
C19 C 0.6645(3) 0.41167(13) 0.75942(13)
H12 H 0.6775 0.4186 0.7086
C20 C 0.6529(3) 0.14161(13) 0.86838(13)
H13 H 0.7532 0.1369 0.9005
C21 C 1.0960(2) 0.25432(11) 0.88578(11)
C22 C 0.4652(3) 0.17596(13) 0.77718(14)
H14 H 0.4104 0.1998 0.7329
C23 C 0.6696(3) 0.36084(12) 0.87006(12)
H15 H 0.6863 0.3265 0.9110
C24 C 0.9428(3) -0.04365(13) 0.55505(15)
H16 H 0.9043 -0.0727 0.5921
C25 C 0.5999(3) 0.46345(13) 0.80150(13)
H17 H 0.5613 0.5117 0.7855
C26 C 0.9796(3) 0.03165(13) 0.71186(14)
H18 H 1.0100 -0.0186 0.7239
H19 H 1.051(3) 0.3183(18) 0.7570(12)
H20 H 1.000(4) 0.307(3) 0.6788(12)
N1B N 0.3977(2) 0.56903(10) 1.12719(9)
C7B C 0.4507(3) 0.53434(11) 1.06304(12)
N5B N 0.2917(2) 0.65253(9) 1.19765(9)
C11B C 0.4730(3) 0.53601(13) 0.92925(13)
H5B H 0.4545 0.5605 0.8816
C14B C 0.4240(3) 0.57011(13) 0.99201(13)
H8B H 0.3728 0.6174 0.9863
C19B C 0.3355(3) 0.58833(13) 1.24058(13)
H12B H 0.3225 0.5814 1.2914
C23B C 0.3304(3) 0.63916(12) 1.12994(12)
H15B H 0.3137 0.6735 1.0890
C25B C 0.4001(3) 0.53655(13) 1.19850(13)
H17B H 0.4387 0.4883 1.2145
N2B N 0.4821(2) -0.10571(10) 1.11899(10)
C3B C 0.4918(2) -0.05285(12) 1.05847(12)
N4B N 0.3729(2) -0.18389(10) 1.19405(10)
C9B C 0.6279(3) -0.00682(12) 1.06126(13)
H3B H 0.7078 -0.0110 1.0991
C12B C 0.6348(3) 0.04568(13) 1.00326(13)
H6B H 0.7257 0.0765 1.0058
C15B C 0.6029(3) -0.12852(15) 1.17766(14)
H9B H 0.7110 -0.1140 1.1849
C20B C 0.3471(3) -0.14161(13) 1.13162(13)
H13B H 0.2468 -0.1369 1.0995
C22B C 0.5348(3) -0.17596(13) 1.22282(14)
H14B H 0.5896 -0.1998 1.2671
N3B N 1.0355(2) -0.06622(10) 0.35938(11)
N6B N 1.1004(2) -0.15205(10) 0.27887(10)
C13B C 1.0417(3) 0.07546(13) 0.51470(15)
H7B H 1.0696 0.1264 0.5248
C16B C 1.0148(3) -0.03234(13) 0.43055(14)
C17B C 1.0580(3) -0.08483(13) 0.23978(13)
H10B H 1.0558 -0.0775 0.1873
C18B C 1.0847(3) -0.13868(12) 0.35059(12)
H11B H 1.1048 -0.1745 0.3902
C24B C 1.0572(3) 0.04365(13) 0.44495(15)
H16B H 1.0957 0.0727 0.4079
C26B C 1.0204(3) -0.03165(13) 0.28814(14)
H18B H 0.9900 0.0186 0.2761
Ni1B Ni 0.20036(3) -0.248466(13) 1.237909(13)
O1B O -0.16659(19) -0.30186(10) 1.14881(9)
O2B O 0.04610(17) -0.23104(9) 1.13431(8)
C1B C -0.4348(2) -0.21204(11) 0.94431(11)
C2B C -0.1895(2) -0.22043(12) 1.04023(11)
O3B O 0.0281(2) -0.31915(11) 1.27963(10)
O4B O -0.6992(2) -0.25029(9) 0.95827(10)
O5B O -0.6402(2) -0.23555(10) 0.83980(9)
C4B C -0.3493(2) -0.24159(11) 1.01306(11)
H1B H -0.3997 -0.2760 1.0413
C5B C -0.3614(2) -0.15877(11) 0.90378(11)
H2B H -0.4154 -0.1393 0.8570
C6B C -0.2064(3) -0.13516(12) 0.93417(12)
O6B O 0.0002(3) -0.05334(15) 0.91748(14)
C8B C -0.6083(2) -0.23510(11) 0.91212(11)
O7B O -0.2231(3) -0.04219(14) 0.84064(14)
C10B C -0.1177(2) -0.16590(12) 1.00063(12)
H4B H -0.0118 -0.1503 1.0185
N7B N -0.1379(2) -0.07270(12) 0.89439(12)
C21B C -0.0960(2) -0.25432(11) 1.11422(11)
H19B H -0.051(3) -0.3183(18) 1.2430(12)
H20B H 0.000(4) -0.307(3) 1.3212(12)
Ni1A Ni -0.79964(3) -0.251534(13) 0.737909(13)
Ni1B_2 Ni 0.20036(3) 0.751534(13) 1.237909(13)
Ni1B_3 Ni 1.20036(3) -0.248466(13) 0.237909(13)
Ni1C Ni 1.79964(3) 0.251534(13) 1.262091(13)
O5A O 0.3598(2) -0.26445(10) 1.33980(9)
O5C O 0.6402(2) 0.26445(10) 0.66020(9)
N5B_2 N 0.2917(2) -0.34747(9) 1.19765(9)
N6B_2 N 0.1004(2) -0.15205(10) 1.27887(10)
loop_
_geom_bond_atom_site_label_1
_geom_bond_atom_site_label_2
_geom_bond_site_symmetry_1
_geom_bond_site_symmetry_2
Ni1 O2 1_555 1_555
O1 C21 1_555 1_555
O2 C21 1_555 1_555
N1 C7 1_555 1_555
N2 C3 1_555 1_555
C1 C4 1_555 1_555
C2 C4 1_555 1_555
O3 Ni1 1_555 1_555
O4 C8 1_555 1_555
O5 C8 1_555 1_555
C3 C9 1_555 1_555
N3 C16 1_555 1_555
C4 H1 1_555 1_555
C5 C1 1_555 1_555
H2 C5 1_555 1_555
C6 C5 1_555 1_555
C7 C14 1_555 1_555
O6 N7 1_555 1_555
N4 Ni1 1_555 1_555
N5 Ni1 1_555 1_555
C8 C1 1_555 1_555
O7 N7 1_555 1_555
C9 H3 1_555 1_555
N6 Ni1 1_555 1_555
C10 C2 1_555 1_555
H4 C10 1_555 1_555
C11 H5 1_555 1_555
N7 C6 1_555 1_555
C12 C9 1_555 1_555
H6 C12 1_555 1_555
C13 H7 1_555 1_555
C14 C11 1_555 1_555
H8 C14 1_555 1_555
C15 N2 1_555 1_555
H9 C15 1_555 1_555
C16 C24 1_555 1_555
C17 N6 1_555 1_555
H10 C17 1_555 1_555
C18 N3 1_555 1_555
H11 C18 1_555 1_555
C19 N5 1_555 1_555
H12 C19 1_555 1_555
C20 N2 1_555 1_555
H13 C20 1_555 1_555
C21 C2 1_555 1_555
C22 N4 1_555 1_555
H14 C22 1_555 1_555
C23 N1 1_555 1_555
H15 C23 1_555 1_555
C24 C13 1_555 1_555
H16 C24 1_555 1_555
C25 N1 1_555 1_555
H17 C25 1_555 1_555
C26 N3 1_555 1_555
H18 C26 1_555 1_555
H19 O3 1_555 1_555
H20 O3 1_555 1_555
N1B C7B 1_555 1_555
C7B C11 1_555 1_555
N5B C19B 1_555 1_555
C11B C7 1_555 1_555
H5B C11B 1_555 1_555
C14B C7B 1_555 1_555
H8B C14B 1_555 1_555
C19B H12B 1_555 1_555
C23B N1B 1_555 1_555
H15B C23B 1_555 1_555
C25B N1B 1_555 1_555
H17B C25B 1_555 1_555
N2B C3B 1_555 1_555
C3B C12 1_555 1_555
N4B C20B 1_555 1_555
C9B C3B 1_555 1_555
H3B C9B 1_555 1_555
C12B C3 1_555 1_555
H6B C12B 1_555 1_555
C15B N2B 1_555 1_555
H9B C15B 1_555 1_555
C20B N2B 1_555 1_555
H13B C20B 1_555 1_555
C22B N4B 1_555 1_555
H14B C22B 1_555 1_555
N3B C16B 1_555 1_555
N6B C17B 1_555 1_555
C13B C16 1_555 1_555
H7B C13B 1_555 1_555
C16B C13 1_555 1_555
C17B H10B 1_555 1_555
C18B N3B 1_555 1_555
H11B C18B 1_555 1_555
C24B C13B 1_555 1_555
H16B C24B 1_555 1_555
C26B N3B 1_555 1_555
H18B C26B 1_555 1_555
Ni1B N4B 1_555 1_555
O1B C21B 1_555 1_555
O2B Ni1B 1_555 1_555
C1B C4B 1_555 1_555
C2B C4B 1_555 1_555
O3B Ni1B 1_555 1_555
O4B C8B 1_555 1_555
O5B C8B 1_555 1_555
C4B H1B 1_555 1_555
C5B C1B 1_555 1_555
H2B C5B 1_555 1_555
C6B C5B 1_555 1_555
O6B N7B 1_555 1_555
C8B C1B 1_555 1_555
O7B N7B 1_555 1_555
C10B C2B 1_555 1_555
H4B C10B 1_555 1_555
N7B C6B 1_555 1_555
C21B O2B 1_555 1_555
H19B O3B 1_555 1_555
H20B O3B 1_555 1_555
Ni1A O5B 1_555 1_555
Ni1B_2 N5B 1_555 1_555
Ni1B_3 N6B 1_555 1_555
Ni1C O5 1_555 1_555
O5A Ni1B 1_555 1_555
O5C Ni1 1_555 1_555
N5B_2 Ni1B 1_555 1_555
N6B_2 Ni1B 1_555 1_555
C6 C10 1_555 1_555
N4 C20 1_555 1_555
N5 C23 1_555 1_555
N6 C18 1_555 1_555
C15 C22 1_555 1_555
C17 C26 1_555 1_555
C19 C25 1_555 1_555
N5B C23B 1_555 1_555
C11B C14B 1_555 1_555
C19B C25B 1_555 1_555
C9B C12B 1_555 1_555
C15B C22B 1_555 1_555
N6B C18B 1_555 1_555
C16B C24B 1_555 1_555
C17B C26B 1_555 1_555
C2B C21B 1_555 1_555
C6B C10B 1_555 1_555

#END
