
#######################################################################
#
#                 Cambridge Crystallographic Data Centre
#                                CCDC 
#
#######################################################################
#
# If this CIF has been generated from an entry in the Cambridge 
# Structural Database, then it will include bibliographic, chemical, 
# crystal, experimental, refinement or atomic coordinate data resulting 
# from the CCDC's data processing and validation procedures.
#
#######################################################################

data_BIHVET
_symmetry_cell_setting           triclinic
_symmetry_space_group_name_H-M   'P -1'
_symmetry_Int_Tables_number      2
_space_group_name_Hall           '-P 1'
loop_
_symmetry_equiv_pos_site_id
_symmetry_equiv_pos_as_xyz
1 x,y,z
2 -x,-y,-z
_cell_length_a                   6.699(3)
_cell_length_b                   7.155(3)
_cell_length_c                   10.388(4)
_cell_angle_alpha                93.85
_cell_angle_beta                 85.56(2)
_cell_angle_gamma                117.36(3)
_cell_volume                     440.605
loop_
_atom_site_label
_atom_site_type_symbol
_atom_site_fract_x
_atom_site_fract_y
_atom_site_fract_z
Cd1 Cd 0.06230 0.44760 0.23635
S1 S 0.49750 0.31090 0.19280
O1 O 0.25500 0.74900 0.11610
O2 O 0.01700 0.23000 0.06030
O3 O 0.39900 0.44200 0.25740
O4 O 0.74000 0.44600 0.18500
O5 O 0.44000 0.12500 0.26740
O6 O 0.42100 0.24900 0.05960
C1 C -0.11900 0.23700 0.50100
C2 C -0.22700 -0.04200 0.35700
N1 N -0.11100 0.31900 0.60100
N2 N -0.11300 0.16700 0.38300
N3 N -0.34000 -0.18000 0.44900
N4 N -0.22600 -0.11500 0.23700
O4_2 O -0.26000 0.44600 0.18500
Cd1A Cd -0.06230 0.55240 0.76365
N1A N 0.11100 0.68100 0.39900
Cd1_2 Cd 1.06230 0.44760 0.23635
loop_
_geom_bond_atom_site_label_1
_geom_bond_atom_site_label_2
_geom_bond_site_symmetry_1
_geom_bond_site_symmetry_2
Cd1 O1 1_555 1_555
S1 O3 1_555 1_555
O2 Cd1 1_555 1_555
O3 Cd1 1_555 1_555
O4 S1 1_555 1_555
O5 S1 1_555 1_555
O6 S1 1_555 1_555
C1 N1 1_555 1_555
C2 N2 1_555 1_555
N1 Cd1A 1_555 1_555
N2 Cd1 1_555 1_555
N3 C2 1_555 1_555
N4 C2 1_555 1_555
O4_2 Cd1 1_555 1_555
N1A Cd1 1_555 1_555
Cd1_2 O4 1_555 1_555
C1 N2 1_555 1_555

#END
