
#######################################################################
#
#                 Cambridge Crystallographic Data Centre
#                                CCDC 
#
#######################################################################
#
# If this CIF has been generated from an entry in the Cambridge 
# Structural Database, then it will include bibliographic, chemical, 
# crystal, experimental, refinement or atomic coordinate data resulting 
# from the CCDC's data processing and validation procedures.
#
#######################################################################

data_BIHXEX
_symmetry_cell_setting           monoclinic
_symmetry_space_group_name_H-M   'P 21'
_symmetry_Int_Tables_number      4
_space_group_name_Hall           'P 2yb'
loop_
_symmetry_equiv_pos_site_id
_symmetry_equiv_pos_as_xyz
1 x,y,z
2 -x,1/2+y,-z
_cell_length_a                   12.946(2)
_cell_length_b                   13.280(2)
_cell_length_c                   13.803(2)
_cell_angle_alpha                90
_cell_angle_beta                 112.237(2)
_cell_angle_gamma                90
_cell_volume                     2196.56
loop_
_atom_site_label
_atom_site_type_symbol
_atom_site_fract_x
_atom_site_fract_y
_atom_site_fract_z
Nb1 Nb 0.988162(17) 0.860084(19) 0.739651(17)
Mn1 Mn 1.18340(4) 0.67181(3) 1.11725(4)
Mn2 Mn 1.19438(4) 1.16624(3) 0.63272(4)
C1 C 1.0522(3) 0.7536(2) 0.8773(3)
N1 N 1.0891(2) 0.7079(2) 0.9532(2)
C2 C 1.1276(3) 0.7814(3) 0.7081(3)
N2 N 1.1950(3) 0.7387(3) 0.6893(3)
C3 C 0.9152(3) 0.7534(2) 0.6045(3)
N3 N 0.8773(3) 0.7044(2) 0.5312(2)
C4 C 0.8386(3) 0.7928(2) 0.7621(3)
N4 N 0.7618(3) 0.7558(3) 0.7710(3)
C5 C 0.9498(2) 0.9818(2) 0.8343(2)
N5 N 0.9236(2) 1.0488(2) 0.8734(2)
C6 C 1.1512(3) 0.9271(2) 0.8483(2)
N6 N 1.2318(2) 0.9675(2) 0.9001(2)
C7 C 1.0397(2) 0.9804(2) 0.6523(2)
N7 N 1.0747(2) 1.0470(2) 0.6215(2)
C8 C 0.8332(3) 0.9400(2) 0.6295(3)
N8 N 0.7570(2) 0.9869(2) 0.5774(3)
N9 N 1.3137(2) 0.5589(2) 1.1113(2)
C9 C 1.3070(3) 0.4595(3) 1.1221(3)
H1 H 1.2426 0.4339 1.1278
C10 C 1.3892(4) 0.3927(3) 1.1253(4)
H2 H 1.3807 0.3239 1.1320
C11 C 1.4860(4) 0.4319(4) 1.1181(5)
H3 H 1.5444 0.3896 1.1214
C12 C 1.4938(4) 0.5343(4) 1.1060(4)
H4 H 1.5576 0.5619 1.1008
C13 C 1.4057(3) 0.5957(3) 1.1017(3)
C14 C 1.4096(3) 0.7062(3) 1.0831(4)
H5 H 1.4856 0.7315 1.1202
O1 O 1.3343(2) 0.7552(2) 1.1216(3)
C15 C 1.3735(5) 0.7248(4) 0.9635(5)
H6 H 1.2999 0.6983 0.9274
H7 H 1.4249 0.6917 0.9388
H8 H 1.3736 0.7958 0.9505
N10 N 1.1476(3) 0.8232(2) 1.1752(2)
C16 C 1.1091(4) 0.9019(3) 1.1104(3)
H9 H 1.0803 0.8903 1.0386
C17 C 1.1105(5) 0.9987(3) 1.1455(4)
H10 H 1.0815 1.0512 1.0984
C18 C 1.1555(5) 1.0172(3) 1.2518(4)
H11 H 1.1586 1.0823 1.2775
C19 C 1.1955(5) 0.9372(3) 1.3185(4)
H12 H 1.2266 0.9475 1.3905
C20 C 1.1892(3) 0.8408(3) 1.2779(3)
C21 C 1.2247(3) 0.7519(3) 1.3517(3)
H13 H 1.2942 0.7690 1.4100
O2 O 1.2447(2) 0.66757(19) 1.29619(19)
C22 C 1.1359(4) 0.7279(4) 1.3949(4)
H14 H 1.0669 0.7129 1.3382
H15 H 1.1257 0.7848 1.4332
H16 H 1.1588 0.6707 1.4407
N11 N 1.3223(2) 1.0519(2) 0.6276(2)
C23 C 1.3080(3) 0.9516(3) 0.6242(3)
H17 H 1.2406 0.9267 0.6234
C24 C 1.3867(4) 0.8836(3) 0.6218(4)
H18 H 1.3743 0.8146 0.6218
C25 C 1.4863(4) 0.9222(4) 0.6192(4)
H19 H 1.5418 0.8789 0.6169
C26 C 1.5010(3) 1.0235(4) 0.6200(4)
H20 H 1.5663 1.0498 0.6170
C27 C 1.4191(3) 1.0875(3) 0.6254(3)
C28 C 1.4343(3) 1.2004(3) 0.6277(3)
H21 H 1.5086 1.2165 0.6794
O3 O 1.3533(2) 1.2444(2) 0.6611(3)
C29 C 1.4253(6) 1.2424(6) 0.5237(5)
H22 H 1.3514 1.2312 0.4730
H23 H 1.4785 1.2095 0.5013
H24 H 1.4404 1.3134 0.5304
N12 N 1.1469(3) 1.3147(2) 0.6862(2)
C30 C 1.1037(4) 1.3926(3) 0.6198(3)
H25 H 1.0824 1.3811 0.5485
C31 C 1.0895(4) 1.4871(3) 0.6517(4)
H26 H 1.0598 1.5385 0.6034
C32 C 1.1203(5) 1.5042(3) 0.7578(4)
H27 H 1.1114 1.5674 0.7827
C33 C 1.1645(5) 1.4252(3) 0.8257(4)
H28 H 1.1862 1.4351 0.8974
C34 C 1.1768(3) 1.3319(3) 0.7882(3)
C35 C 1.2264(3) 1.2459(3) 0.8637(3)
H29 H 1.3002 1.2667 0.9129
O4 O 1.2403(2) 1.1605(2) 0.8068(2)
C36 C 1.1553(5) 1.2196(4) 0.9265(4)
H30 H 1.0849 1.1929 0.8805
H31 H 1.1428 1.2792 0.9601
H32 H 1.1933 1.1703 0.9786
Mn1A Mn 0.81660(4) 1.17181(3) 0.88275(4)
Mn2A Mn 0.80562(4) 0.66624(3) 0.36728(4)
N3A N 1.1227(3) 1.2044(2) 0.4688(2)
N5A N 1.0764(2) 0.5488(2) 1.1266(2)
O5 O 1.3757(2) 0.9529(2) 1.1129(2)
O6 O 1.3461(3) 0.6033(3) 0.6344(3)
O7 O 1.4143(3) 1.1227(3) 1.2297(4)
O8 O 1.3999(3) 0.4210(3) 0.7515(4)
loop_
_geom_bond_atom_site_label_1
_geom_bond_atom_site_label_2
_geom_bond_site_symmetry_1
_geom_bond_site_symmetry_2
Nb1 C1 1_555 1_555
Mn1 N1 1_555 1_555
Mn2 N7 1_555 1_555
C1 N1 1_555 1_555
C2 Nb1 1_555 1_555
N2 C2 1_555 1_555
C3 Nb1 1_555 1_555
N3 C3 1_555 1_555
C4 Nb1 1_555 1_555
N4 C4 1_555 1_555
C5 Nb1 1_555 1_555
N5 C5 1_555 1_555
C6 Nb1 1_555 1_555
N6 C6 1_555 1_555
C7 Nb1 1_555 1_555
N7 C7 1_555 1_555
C8 Nb1 1_555 1_555
N8 C8 1_555 1_555
N9 Mn1 1_555 1_555
C9 N9 1_555 1_555
H1 C9 1_555 1_555
C10 C9 1_555 1_555
H2 C10 1_555 1_555
C11 C10 1_555 1_555
H3 C11 1_555 1_555
C12 C11 1_555 1_555
H4 C12 1_555 1_555
C13 N9 1_555 1_555
C14 C13 1_555 1_555
H5 C14 1_555 1_555
O1 Mn1 1_555 1_555
C15 C14 1_555 1_555
H6 C15 1_555 1_555
H7 C15 1_555 1_555
H8 C15 1_555 1_555
N10 Mn1 1_555 1_555
C16 N10 1_555 1_555
H9 C16 1_555 1_555
C17 C16 1_555 1_555
H10 C17 1_555 1_555
C18 C17 1_555 1_555
H11 C18 1_555 1_555
C19 C18 1_555 1_555
H12 C19 1_555 1_555
C20 N10 1_555 1_555
C21 C20 1_555 1_555
H13 C21 1_555 1_555
O2 Mn1 1_555 1_555
C22 C21 1_555 1_555
H14 C22 1_555 1_555
H15 C22 1_555 1_555
H16 C22 1_555 1_555
N11 Mn2 1_555 1_555
C23 N11 1_555 1_555
H17 C23 1_555 1_555
C24 C23 1_555 1_555
H18 C24 1_555 1_555
C25 C24 1_555 1_555
H19 C25 1_555 1_555
C26 C25 1_555 1_555
H20 C26 1_555 1_555
C27 N11 1_555 1_555
C28 C27 1_555 1_555
H21 C28 1_555 1_555
O3 Mn2 1_555 1_555
C29 C28 1_555 1_555
H22 C29 1_555 1_555
H23 C29 1_555 1_555
H24 C29 1_555 1_555
N12 Mn2 1_555 1_555
C30 N12 1_555 1_555
H25 C30 1_555 1_555
C31 C30 1_555 1_555
H26 C31 1_555 1_555
C32 C31 1_555 1_555
H27 C32 1_555 1_555
C33 C32 1_555 1_555
H28 C33 1_555 1_555
C34 N12 1_555 1_555
C35 C34 1_555 1_555
H29 C35 1_555 1_555
O4 Mn2 1_555 1_555
C36 C35 1_555 1_555
H30 C36 1_555 1_555
H31 C36 1_555 1_555
H32 C36 1_555 1_555
Mn1A N5 1_555 1_555
Mn2A N3 1_555 1_555
N3A Mn2 1_555 1_555
N5A Mn1 1_555 1_555
C12 C13 1_555 1_555
C14 O1 1_555 1_555
C19 C20 1_555 1_555
C21 O2 1_555 1_555
C26 C27 1_555 1_555
C28 O3 1_555 1_555
C33 C34 1_555 1_555
C35 O4 1_555 1_555

#END
