
#######################################################################
#
#                 Cambridge Crystallographic Data Centre
#                                CCDC 
#
#######################################################################
#
# If this CIF has been generated from an entry in the Cambridge 
# Structural Database, then it will include bibliographic, chemical, 
# crystal, experimental, refinement or atomic coordinate data resulting 
# from the CCDC's data processing and validation procedures.
#
#######################################################################

data_BIJBED
_symmetry_cell_setting           triclinic
_symmetry_space_group_name_H-M   'P -1'
_symmetry_Int_Tables_number      2
_space_group_name_Hall           '-P 1'
loop_
_symmetry_equiv_pos_site_id
_symmetry_equiv_pos_as_xyz
1 x,y,z
2 -x,-y,-z
_cell_length_a                   9.3446(18)
_cell_length_b                   14.994(3)
_cell_length_c                   15.681(3)
_cell_angle_alpha                75.599(10)
_cell_angle_beta                 78.411(10)
_cell_angle_gamma                81.522(11)
_cell_volume                     2073.66
loop_
_atom_site_label
_atom_site_type_symbol
_atom_site_fract_x
_atom_site_fract_y
_atom_site_fract_z
C1 C 0.7442(7) 0.0803(4) 0.5879(4)
H1 H 0.8124 0.0630 0.5378
H2 H 0.6576 0.1142 0.5655
C2 C 0.7002(6) -0.0074(4) 0.6562(4)
C3 C 0.6186(7) -0.0674(5) 0.6353(5)
H3 H 0.5903 -0.0551 0.5796
C4 C 0.5802(8) -0.1472(5) 0.7011(7)
H4 H 0.5248 -0.1871 0.6878
C5 C 0.6203(8) -0.1684(5) 0.7824(6)
H5 H 0.5935 -0.2220 0.8237
C6 C 0.7005(6) -0.1102(4) 0.8032(5)
C7 C 0.7412(8) -0.1309(5) 0.8955(5)
H6 H 0.6580 -0.1101 0.9364
H7 H 0.7610 -0.1973 0.9160
C8 C 0.7408(6) -0.0300(4) 0.7400(4)
H8 H 0.7961 0.0091 0.7546
C9 C 0.7750(7) 0.2863(4) 0.7811(5)
H9 H 0.6698 0.2973 0.7915
H10 H 0.8161 0.3442 0.7569
H11 H 0.8082 0.2568 0.8364
C10 C 0.8239(7) 0.2241(4) 0.7153(4)
C11 C 0.9678(7) 0.1925(4) 0.6831(5)
H12 H 1.0537 0.2050 0.6972
C12 C 0.9550(6) 0.1390(4) 0.6258(4)
C13 C 1.0718(7) 0.0840(5) 0.5726(5)
H13 H 1.0266 0.0544 0.5386
H14 H 1.1244 0.0378 0.6126
H15 H 1.1388 0.1248 0.5327
C14 C 0.7300(10) 0.0491(6) 0.9576(6)
H16 H 0.6494 0.0121 0.9710
H17 H 0.7068 0.1067 0.9171
H18 H 0.7473 0.0612 1.0118
C15 C 0.8663(10) -0.0022(5) 0.9149(5)
C16 C 1.0041(9) 0.0253(5) 0.8861(5)
H19 H 1.0362 0.0799 0.8897
C17 C 1.0871(8) -0.0467(5) 0.8496(5)
C18 C 1.2468(8) -0.0516(6) 0.8069(6)
H20 H 1.2747 -0.1090 0.7883
H21 H 1.3057 -0.0480 0.8493
H22 H 1.2616 -0.0009 0.7559
C19 C 1.4871(7) -0.3869(4) 0.6653(5)
H23 H 1.4145 -0.3967 0.7187
H24 H 1.4460 -0.3424 0.6187
H25 H 1.5704 -0.3641 0.6769
C20 C 1.5339(6) -0.4753(4) 0.6372(4)
C21 C 1.6343(6) -0.4955(4) 0.5658(4)
H26 H 1.6897 -0.4537 0.5225
C22 C 1.6384(6) -0.5882(4) 0.5698(4)
C23 C 1.7315(7) -0.6432(4) 0.5082(4)
H27 H 1.7103 -0.7066 0.5276
H28 H 1.8333 -0.6400 0.5085
H29 H 1.7110 -0.6186 0.4487
C24 C 0.6828(8) -0.4930(5) 0.8961(5)
H30 H 0.6875 -0.4815 0.8326
H31 H 0.5832 -0.4799 0.9241
H32 H 0.7160 -0.5567 0.9185
C25 C 0.7794(7) -0.4315(4) 0.9165(5)
C26 C 0.8073(8) -0.4229(5) 0.9954(5)
H33 H 0.7675 -0.4551 1.0519
C27 C 0.9057(7) -0.3575(4) 0.9766(4)
C28 C 0.8762(7) -0.3629(4) 0.7560(4)
H34 H 0.9136 -0.3044 0.7247
H35 H 0.7807 -0.3627 0.7405
C29 C 0.9652(8) -0.3217(6) 1.0414(4)
H36 H 1.0314 -0.2766 1.0095
H37 H 1.0168 -0.3719 1.0782
H38 H 0.8858 -0.2935 1.0784
C30 C 1.3562(6) -0.5661(4) 0.7566(4)
H39 H 1.3649 -0.5284 0.7971
H40 H 1.3606 -0.6302 0.7895
C31 C 1.2092(6) -0.5388(4) 0.7263(4)
C32 C 1.1687(7) -0.5826(4) 0.6678(4)
H41 H 1.2311 -0.6306 0.6484
C33 C 1.0353(7) -0.5548(5) 0.6381(5)
H42 H 1.0086 -0.5845 0.5990
C34 C 0.9427(7) -0.4839(5) 0.6660(5)
H43 H 0.8545 -0.4650 0.6448
C35 C 0.9789(6) -0.4406(4) 0.7248(4)
C36 C 1.1145(6) -0.4675(4) 0.7541(4)
H44 H 1.1410 -0.4371 0.7927
N1 N 0.7281(5) 0.1921(3) 0.6811(3)
N2 N 0.8116(5) 0.1401(3) 0.6242(3)
N3 N 0.8675(6) -0.0875(4) 0.8986(4)
N4 N 1.0060(6) -0.1151(4) 0.8567(3)
N5 N 1.4808(5) -0.5552(3) 0.6822(3)
N6 N 1.5430(5) -0.6267(3) 0.6418(3)
N7 N 0.9389(5) -0.3257(3) 0.8885(3)
N8 N 0.8590(5) -0.3709(3) 0.8521(3)
Ni1 Ni 0.51334(8) 0.23697(5) 0.68376(5)
Ni2 Ni 1.08381(9) -0.23356(5) 0.81824(6)
Br1 Br 0.39450(8) 0.21661(5) 0.56965(5)
Br2 Br 0.40089(9) 0.18169(5) 0.83459(5)
Br3 Br 1.12950(9) -0.19057(5) 0.66008(5)
Br4 Br 1.29571(8) -0.31193(5) 0.88101(5)
N6_2 N 0.5430(5) 0.3733(3) 0.6418(3)
Ni1_2 Ni 1.51334(8) -0.76303(5) 0.68376(5)
loop_
_geom_bond_atom_site_label_1
_geom_bond_atom_site_label_2
_geom_bond_site_symmetry_1
_geom_bond_site_symmetry_2
C1 H1 1_555 1_555
H2 C1 1_555 1_555
C2 C1 1_555 1_555
C3 C2 1_555 1_555
H3 C3 1_555 1_555
C4 C3 1_555 1_555
H4 C4 1_555 1_555
C5 C4 1_555 1_555
H5 C5 1_555 1_555
C6 C5 1_555 1_555
C7 C6 1_555 1_555
H6 C7 1_555 1_555
H7 C7 1_555 1_555
C8 C2 1_555 1_555
H8 C8 1_555 1_555
C9 H9 1_555 1_555
H10 C9 1_555 1_555
H11 C9 1_555 1_555
C10 C9 1_555 1_555
C11 C10 1_555 1_555
H12 C11 1_555 1_555
C12 C11 1_555 1_555
C13 C12 1_555 1_555
H13 C13 1_555 1_555
H14 C13 1_555 1_555
H15 C13 1_555 1_555
C14 H16 1_555 1_555
H17 C14 1_555 1_555
H18 C14 1_555 1_555
C15 C14 1_555 1_555
C16 C15 1_555 1_555
H19 C16 1_555 1_555
C17 C16 1_555 1_555
C18 C17 1_555 1_555
H20 C18 1_555 1_555
H21 C18 1_555 1_555
H22 C18 1_555 1_555
C19 H23 1_555 1_555
H24 C19 1_555 1_555
H25 C19 1_555 1_555
C20 C19 1_555 1_555
C21 C20 1_555 1_555
H26 C21 1_555 1_555
C22 C21 1_555 1_555
C23 C22 1_555 1_555
H27 C23 1_555 1_555
H28 C23 1_555 1_555
H29 C23 1_555 1_555
C24 H30 1_555 1_555
H31 C24 1_555 1_555
H32 C24 1_555 1_555
C25 C24 1_555 1_555
C26 C25 1_555 1_555
H33 C26 1_555 1_555
C27 C26 1_555 1_555
C28 H34 1_555 1_555
H35 C28 1_555 1_555
C29 C27 1_555 1_555
H36 C29 1_555 1_555
H37 C29 1_555 1_555
H38 C29 1_555 1_555
C30 H39 1_555 1_555
H40 C30 1_555 1_555
C31 C30 1_555 1_555
C32 C31 1_555 1_555
H41 C32 1_555 1_555
C33 C32 1_555 1_555
H42 C33 1_555 1_555
C34 C33 1_555 1_555
H43 C34 1_555 1_555
C35 C28 1_555 1_555
C36 C31 1_555 1_555
H44 C36 1_555 1_555
N1 C10 1_555 1_555
N2 C1 1_555 1_555
N3 C7 1_555 1_555
N4 C17 1_555 1_555
N5 C20 1_555 1_555
N6 C22 1_555 1_555
N7 C27 1_555 1_555
N8 C25 1_555 1_555
Ni1 N1 1_555 1_555
Ni2 N4 1_555 1_555
Br1 Ni1 1_555 1_555
Br2 Ni1 1_555 1_555
Br3 Ni2 1_555 1_555
Br4 Ni2 1_555 1_555
N6_2 Ni1 1_555 1_555
Ni1_2 N6 1_555 1_555
C6 C8 1_555 1_555
C12 N2 1_555 1_555
C15 N3 1_555 1_555
C28 N8 1_555 1_555
C30 N5 1_555 1_555
C34 C35 1_555 1_555
C35 C36 1_555 1_555
N1 N2 1_555 1_555
N3 N4 1_555 1_555
N5 N6 1_555 1_555
N7 N8 1_555 1_555
N7 Ni2 1_555 1_555

#END
