
#######################################################################
#
#                 Cambridge Crystallographic Data Centre
#                                CCDC 
#
#######################################################################
#
# If this CIF has been generated from an entry in the Cambridge 
# Structural Database, then it will include bibliographic, chemical, 
# crystal, experimental, refinement or atomic coordinate data resulting 
# from the CCDC's data processing and validation procedures.
#
#######################################################################

data_BIJCUU
_symmetry_cell_setting           monoclinic
_symmetry_space_group_name_H-M   'P 21/c'
_symmetry_Int_Tables_number      14
_space_group_name_Hall           '-P 2ybc'
loop_
_symmetry_equiv_pos_site_id
_symmetry_equiv_pos_as_xyz
1 x,y,z
2 -x,1/2+y,1/2-z
3 -x,-y,-z
4 x,1/2-y,1/2+z
_cell_length_a                   11.0678(12)
_cell_length_b                   12.4743(13)
_cell_length_c                   20.447(2)
_cell_angle_alpha                90
_cell_angle_beta                 92.661(2)
_cell_angle_gamma                90
_cell_volume                     2819.93
loop_
_atom_site_label
_atom_site_type_symbol
_atom_site_fract_x
_atom_site_fract_y
_atom_site_fract_z
Zn1 Zn 1.0000 0.5000 0.5000
S1 S 1.03421(17) 0.80951(14) 0.37390(9)
N1 N 1.0687(3) 0.6204(3) 0.44186(18)
O1 O 0.4899(3) 0.1675(2) 0.41109(16)
O2 O 0.2891(2) 0.4418(2) 0.27525(13)
N2 N 0.8152(3) 0.5706(3) 0.48086(16)
N3 N 0.5252(3) 0.3856(3) 0.40710(15)
N4 N 0.4339(3) 0.3314(2) 0.37331(15)
H1 H 0.3799 0.3672 0.3509
N5 N 0.2938(3) 0.5016(2) 0.17071(16)
H2 H 0.3196 0.4916 0.1322
N6 N 0.2135(3) 0.5840(2) 0.18230(16)
N7 N 0.0205(3) 0.8911(2) 0.08597(16)
C1 C 1.0554(4) 0.7001(4) 0.4136(2)
C2 C 0.7968(4) 0.6773(3) 0.4861(2)
H3 H 0.8599 0.7196 0.5031
C3 C 0.6894(4) 0.7263(3) 0.4674(2)
H4 H 0.6799 0.8000 0.4722
C4 C 0.5962(4) 0.6642(3) 0.4415(2)
H5 H 0.5231 0.6958 0.4282
C5 C 0.6112(3) 0.5553(3) 0.43552(18)
C6 C 0.7219(4) 0.5128(3) 0.4565(2)
H6 H 0.7321 0.4390 0.4534
C7 C 0.5160(4) 0.4871(3) 0.4063(2)
H7 H 0.4472 0.5186 0.3868
C8 C 0.4270(3) 0.2240(3) 0.37440(19)
C9 C 0.3312(3) 0.1802(3) 0.3277(2)
C10 C 0.2420(4) 0.1158(3) 0.3519(2)
H8 H 0.2436 0.0990 0.3963
C11 C 0.1503(4) 0.0763(3) 0.3104(3)
H9 H 0.0907 0.0326 0.3268
C12 C 0.1473(4) 0.1013(3) 0.2453(3)
H10 H 0.0847 0.0754 0.2178
C13 C 0.2367(3) 0.1651(3) 0.2196(2)
H11 H 0.2340 0.1818 0.1752
C14 C 0.3312(3) 0.2040(3) 0.26144(19)
C15 C 0.4367(3) 0.2587(3) 0.23146(18)
C16 C 0.5409(3) 0.1982(3) 0.2246(2)
H12 H 0.5439 0.1285 0.2408
C17 C -0.0359(3) 0.9107(3) 0.1404(2)
H13 H -0.0900 0.9678 0.1405
C18 C 0.6396(4) 0.2386(3) 0.1944(2)
H14 H 0.7085 0.1968 0.1907
C19 C 0.6359(3) 0.3411(3) 0.1698(2)
H15 H 0.7021 0.3691 0.1492
C20 C 0.5322(3) 0.4023(3) 0.1759(2)
H16 H 0.5294 0.4715 0.1589
C21 C 0.4339(3) 0.3627(3) 0.20650(18)
C22 C 0.3309(3) 0.4371(3) 0.2211(2)
C23 C 0.1985(3) 0.6502(3) 0.1360(2)
H17 H 0.2402 0.6407 0.0980
C24 C 0.1168(3) 0.7416(3) 0.1411(2)
C25 C 0.0593(3) 0.7667(3) 0.1973(2)
H18 H 0.0733 0.7265 0.2353
C26 C -0.0193(3) 0.8519(3) 0.1965(2)
H19 H -0.0606 0.8694 0.2336
C27 C 0.0950(3) 0.8059(3) 0.0867(2)
H20 H 0.1339 0.7893 0.0487
S1B S 0.96579(17) 0.19049(14) 0.62610(9)
N1B N 0.9313(3) 0.3796(3) 0.55814(18)
O1B O 1.5101(3) 0.8325(2) 0.58891(16)
O2B O 1.7109(2) 0.5582(2) 0.72475(13)
N2B N 1.1848(3) 0.4294(3) 0.51914(16)
N3B N 1.4748(3) 0.6144(3) 0.59290(15)
N4B N 1.5661(3) 0.6686(2) 0.62669(15)
H1B H 1.6201 0.6328 0.6491
N5B N 1.7062(3) 0.4984(2) 0.82929(16)
H2B H 1.6804 0.5084 0.8678
N6B N 1.7865(3) 0.4160(2) 0.81770(16)
N7B N 1.9795(3) 0.1089(2) 0.91403(16)
C1B C 0.9446(4) 0.2999(4) 0.5864(2)
C2B C 1.2032(4) 0.3227(3) 0.5139(2)
H3B H 1.1401 0.2804 0.4969
C3B C 1.3106(4) 0.2737(3) 0.5326(2)
H4B H 1.3201 0.2000 0.5278
C4B C 1.4038(4) 0.3358(3) 0.5585(2)
H5B H 1.4769 0.3042 0.5718
C5B C 1.3888(3) 0.4447(3) 0.56448(18)
C6B C 1.2781(4) 0.4872(3) 0.5435(2)
H6B H 1.2679 0.5610 0.5466
C7B C 1.4840(4) 0.5129(3) 0.5937(2)
H7B H 1.5528 0.4814 0.6132
C8B C 1.5730(3) 0.7760(3) 0.62560(19)
C9B C 1.6688(3) 0.8198(3) 0.6723(2)
C10B C 1.7580(4) 0.8842(3) 0.6481(2)
H8B H 1.7564 0.9010 0.6037
C11B C 1.8497(4) 0.9237(3) 0.6896(3)
H9B H 1.9093 0.9674 0.6732
C12B C 1.8527(4) 0.8987(3) 0.7547(3)
H10B H 1.9153 0.9246 0.7822
C13B C 1.7633(3) 0.8349(3) 0.7804(2)
H11B H 1.7660 0.8182 0.8248
C14B C 1.6688(3) 0.7960(3) 0.73856(19)
C15B C 1.5633(3) 0.7413(3) 0.76854(18)
C16B C 1.4591(3) 0.8018(3) 0.7754(2)
H12B H 1.4561 0.8715 0.7592
C17B C 2.0359(3) 0.0893(3) 0.8596(2)
H13B H 2.0900 0.0322 0.8595
C18B C 1.3604(4) 0.7614(3) 0.8056(2)
H14B H 1.2915 0.8032 0.8093
C19B C 1.3641(3) 0.6589(3) 0.8302(2)
H15B H 1.2979 0.6309 0.8508
C20B C 1.4678(3) 0.5977(3) 0.8241(2)
H16B H 1.4706 0.5285 0.8411
C21B C 1.5661(3) 0.6373(3) 0.79350(18)
C22B C 1.6691(3) 0.5629(3) 0.7789(2)
C23B C 1.8015(3) 0.3498(3) 0.8640(2)
H17B H 1.7598 0.3593 0.9020
C24B C 1.8832(3) 0.2584(3) 0.8589(2)
C25B C 1.9407(3) 0.2333(3) 0.8027(2)
H18B H 1.9267 0.2735 0.7647
C26B C 2.0193(3) 0.1481(3) 0.8035(2)
H19B H 2.0606 0.1306 0.7664
C27B C 1.9050(3) 0.1941(3) 0.9133(2)
H20B H 1.8661 0.2107 0.9513
Zn1A Zn 0.0000 1.0000 0.0000
Zn1A_2 Zn 2.0000 0.0000 1.0000
N7A N 0.9795(3) 0.3911(2) 0.41403(16)
N7C N 1.0205(3) 0.6089(2) 0.58597(16)
O3 O 0.0599(14) 0.0268(12) 0.4921(7)
H21 H 0.0678 0.0945 0.4911
C28 C 0.1480(13) -0.0508(14) 0.4795(7)
H22 H 0.1219 -0.1195 0.4947
H23 H 0.2230 -0.0317 0.5019
H24 H 0.1591 -0.0543 0.4332
O4 O 0.6259(5) -0.0040(4) 0.4685(3)
H25 H 0.5721 0.0242 0.4429
H26 H 0.6610 0.0465 0.4899
O5 O 0.6719(10) 0.2183(11) 0.5071(6)
H27 H 0.6207 0.1973 0.4776
H28 H 0.6474 0.2776 0.5222
loop_
_geom_bond_atom_site_label_1
_geom_bond_atom_site_label_2
_geom_bond_site_symmetry_1
_geom_bond_site_symmetry_2
Zn1 N1 1_555 1_555
S1 C1 1_555 1_555
N1 C1 1_555 1_555
O1 C8 1_555 1_555
O2 C22 1_555 1_555
N2 Zn1 1_555 1_555
N3 N4 1_555 1_555
N4 H1 1_555 1_555
N5 H2 1_555 1_555
N6 N5 1_555 1_555
N7 C17 1_555 1_555
C2 N2 1_555 1_555
H3 C2 1_555 1_555
C3 C2 1_555 1_555
H4 C3 1_555 1_555
C4 C3 1_555 1_555
H5 C4 1_555 1_555
C5 C4 1_555 1_555
C6 N2 1_555 1_555
H6 C6 1_555 1_555
C7 N3 1_555 1_555
H7 C7 1_555 1_555
C8 N4 1_555 1_555
C9 C8 1_555 1_555
C10 C9 1_555 1_555
H8 C10 1_555 1_555
C11 C10 1_555 1_555
H9 C11 1_555 1_555
C12 C11 1_555 1_555
H10 C12 1_555 1_555
C13 C12 1_555 1_555
H11 C13 1_555 1_555
C14 C9 1_555 1_555
C15 C14 1_555 1_555
C16 C15 1_555 1_555
H12 C16 1_555 1_555
C17 H13 1_555 1_555
C18 C16 1_555 1_555
H14 C18 1_555 1_555
C19 C18 1_555 1_555
H15 C19 1_555 1_555
C20 C19 1_555 1_555
H16 C20 1_555 1_555
C21 C15 1_555 1_555
C22 N5 1_555 1_555
C23 N6 1_555 1_555
H17 C23 1_555 1_555
C24 C23 1_555 1_555
C25 C24 1_555 1_555
H18 C25 1_555 1_555
C26 C17 1_555 1_555
H19 C26 1_555 1_555
C27 N7 1_555 1_555
H20 C27 1_555 1_555
O3 H21 1_555 1_555
C28 O3 1_555 1_555
H22 C28 1_555 1_555
H23 C28 1_555 1_555
H24 C28 1_555 1_555
O4 H25 1_555 1_555
H26 O4 1_555 1_555
O5 H27 1_555 1_555
H28 O5 1_555 1_555
S1B C1B 1_555 1_555
N1B Zn1 1_555 1_555
O1B C8B 1_555 1_555
O2B C22B 1_555 1_555
N2B Zn1 1_555 1_555
N3B N4B 1_555 1_555
N4B H1B 1_555 1_555
N5B H2B 1_555 1_555
N6B N5B 1_555 1_555
N7B C17B 1_555 1_555
C1B N1B 1_555 1_555
C2B N2B 1_555 1_555
H3B C2B 1_555 1_555
C3B C2B 1_555 1_555
H4B C3B 1_555 1_555
C4B C3B 1_555 1_555
H5B C4B 1_555 1_555
C5B C4B 1_555 1_555
C6B N2B 1_555 1_555
H6B C6B 1_555 1_555
C7B N3B 1_555 1_555
H7B C7B 1_555 1_555
C8B N4B 1_555 1_555
C9B C8B 1_555 1_555
C10B C9B 1_555 1_555
H8B C10B 1_555 1_555
C11B C10B 1_555 1_555
H9B C11B 1_555 1_555
C12B C11B 1_555 1_555
H10B C12B 1_555 1_555
C13B C12B 1_555 1_555
H11B C13B 1_555 1_555
C14B C9B 1_555 1_555
C15B C14B 1_555 1_555
C16B C15B 1_555 1_555
H12B C16B 1_555 1_555
C17B H13B 1_555 1_555
C18B C16B 1_555 1_555
H14B C18B 1_555 1_555
C19B C18B 1_555 1_555
H15B C19B 1_555 1_555
C20B C19B 1_555 1_555
H16B C20B 1_555 1_555
C21B C15B 1_555 1_555
C22B N5B 1_555 1_555
C23B N6B 1_555 1_555
H17B C23B 1_555 1_555
C24B C23B 1_555 1_555
C25B C24B 1_555 1_555
H18B C25B 1_555 1_555
C26B C17B 1_555 1_555
H19B C26B 1_555 1_555
C27B N7B 1_555 1_555
H20B C27B 1_555 1_555
Zn1A N7 1_555 1_555
Zn1A_2 N7B 1_555 1_555
N7A Zn1 1_555 1_555
N7C Zn1 1_555 1_555
C5 C6 1_555 1_555
C5 C7 1_555 1_555
C13 C14 1_555 1_555
C20 C21 1_555 1_555
C21 C22 1_555 1_555
C24 C27 1_555 1_555
C25 C26 1_555 1_555
C5B C6B 1_555 1_555
C5B C7B 1_555 1_555
C13B C14B 1_555 1_555
C20B C21B 1_555 1_555
C21B C22B 1_555 1_555
C24B C27B 1_555 1_555
C25B C26B 1_555 1_555

#END
