
#######################################################################
#
#                 Cambridge Crystallographic Data Centre
#                                CCDC 
#
#######################################################################
#
# If this CIF has been generated from an entry in the Cambridge 
# Structural Database, then it will include bibliographic, chemical, 
# crystal, experimental, refinement or atomic coordinate data resulting 
# from the CCDC's data processing and validation procedures.
#
#######################################################################

data_BIJDAB
_symmetry_cell_setting           monoclinic
_symmetry_space_group_name_H-M   'P 21/c'
_symmetry_Int_Tables_number      14
_space_group_name_Hall           '-P 2ybc'
loop_
_symmetry_equiv_pos_site_id
_symmetry_equiv_pos_as_xyz
1 x,y,z
2 -x,1/2+y,1/2-z
3 -x,-y,-z
4 x,1/2-y,1/2+z
_cell_length_a                   11.350(5)
_cell_length_b                   12.313(5)
_cell_length_c                   19.899(8)
_cell_angle_alpha                90
_cell_angle_beta                 91.824(7)
_cell_angle_gamma                90
_cell_volume                     2779.53
loop_
_atom_site_label
_atom_site_type_symbol
_atom_site_fract_x
_atom_site_fract_y
_atom_site_fract_z
Cd1 Cd 0.5000 1.0000 0.5000
N1 N -0.2082(2) 0.99795(17) 0.17741(14)
H1 H -0.1831 1.0066 0.1374
N2 N -0.4830(2) 0.6141(2) 0.09351(13)
N3 N -0.2878(2) 0.91716(19) 0.19080(13)
C1 C -0.4096(3) 0.6971(2) 0.09445(16)
H2 H -0.3715 0.7139 0.0551
C2 C -0.3862(3) 0.7603(2) 0.15025(15)
C3 C -0.4426(3) 0.7350(3) 0.20809(16)
H3 H -0.4281 0.7746 0.2473
C4 C -0.5201(3) 0.6508(3) 0.20705(17)
H4 H -0.5602 0.6327 0.2455
C5 C -0.5386(3) 0.5930(3) 0.14906(17)
H5 H -0.5928 0.5364 0.1488
C6 C -0.3041(3) 0.8498(3) 0.14415(16)
H6 H -0.2628 0.8575 0.1048
O1 O -0.20865(17) 1.05833(16) 0.28347(10)
C7 C 0.0217(3) 1.0107(2) 0.40734(16)
H7 H -0.0446 0.9784 0.3872
C8 C 0.2226(3) 0.9864(3) 0.45544(17)
H8 H 0.2325 1.0612 0.4521
C9 C -0.0682(2) 1.2419(2) 0.23554(14)
N4 N -0.0629(2) 1.16622(19) 0.37901(12)
H9 H -0.1170 1.1299 0.3577
N5 N 0.0280(2) 1.1132(2) 0.41025(12)
C10 C -0.0720(2) 1.1362(2) 0.21067(14)
C11 C -0.1641(3) 1.3200(2) 0.33593(15)
C12 C -0.1679(2) 1.2967(2) 0.26815(15)
C13 C -0.1703(2) 1.0628(2) 0.22750(15)
C14 C 0.0328(3) 1.3016(2) 0.22666(16)
H10 H 0.0368 1.3723 0.2431
N6 N 0.4208(3) 1.1896(3) 0.59653(17)
O2 O -0.0071(3) 1.3309(2) 0.41641(15)
N7 N 0.3114(2) 0.9279(2) 0.47976(14)
C15 C 0.1218(3) 1.1573(3) 0.16967(19)
H11 H 0.1859 1.1287 0.1477
C16 C -0.2584(3) 1.3391(2) 0.22914(17)
H12 H -0.2635 1.3232 0.1835
C17 C 0.0228(3) 1.0957(3) 0.17703(17)
H13 H 0.0194 1.0260 0.1592
C18 C -0.2475(3) 1.3868(3) 0.36365(18)
H14 H -0.2433 1.4034 0.4093
C19 C 0.1268(3) 1.2601(3) 0.19443(18)
H15 H 0.1942 1.3019 0.1894
C20 C -0.3357(3) 1.4281(3) 0.3235(2)
H16 H -0.3926 1.4726 0.3418
C21 C -0.3415(3) 1.4048(3) 0.2567(2)
H17 H -0.4020 1.4335 0.2297
C22 C 0.1933(4) 0.7707(3) 0.46538(18)
H18 H 0.1853 0.6959 0.4698
C23 C -0.0689(3) 1.2750(3) 0.38108(16)
C24 C 0.2946(4) 0.8207(3) 0.48413(18)
H19 H 0.3565 0.7783 0.5011
C25 C 0.1158(3) 0.9427(2) 0.43472(14)
C26 C 0.1032(3) 0.8320(3) 0.43991(16)
H20 H 0.0328 0.7991 0.4259
O3 O 0.3879(5) 1.1297(4) 0.5511(2)
O4 O 0.5144(5) 1.1638(6) 0.6302(3)
O5 O 0.3739(7) 1.2692(6) 0.6208(4)
N1B N 1.2082(2) 1.00205(17) 0.82259(14)
H1B H 1.1831 0.9934 0.8626
N2B N 1.4830(2) 1.3859(2) 0.90649(13)
N3B N 1.2878(2) 1.08284(19) 0.80920(13)
C1B C 1.4096(3) 1.3029(2) 0.90555(16)
H2B H 1.3715 1.2861 0.9449
C2B C 1.3862(3) 1.2397(2) 0.84975(15)
C3B C 1.4426(3) 1.2650(3) 0.79191(16)
H3B H 1.4281 1.2254 0.7527
C4B C 1.5201(3) 1.3492(3) 0.79295(17)
H4B H 1.5602 1.3673 0.7545
C5B C 1.5386(3) 1.4070(3) 0.85094(17)
H5B H 1.5928 1.4636 0.8512
C6B C 1.3041(3) 1.1502(3) 0.85585(16)
H6B H 1.2628 1.1425 0.8952
O1B O 1.20865(17) 0.94167(16) 0.71653(10)
C7B C 0.9783(3) 0.9893(2) 0.59266(16)
H7B H 1.0446 1.0216 0.6128
C8B C 0.7774(3) 1.0136(3) 0.54456(17)
H8B H 0.7675 0.9388 0.5479
C9B C 1.0682(2) 0.7581(2) 0.76446(14)
N4B N 1.0629(2) 0.83378(19) 0.62099(12)
H9B H 1.1170 0.8701 0.6423
N5B N 0.9720(2) 0.8868(2) 0.58975(12)
C10B C 1.0720(2) 0.8638(2) 0.78933(14)
C11B C 1.1641(3) 0.6800(2) 0.66407(15)
C12B C 1.1679(2) 0.7033(2) 0.73185(15)
C13B C 1.1703(2) 0.9372(2) 0.77250(15)
C14B C 0.9672(3) 0.6984(2) 0.77334(16)
H10B H 0.9632 0.6277 0.7569
N6B N 0.5792(3) 0.8104(3) 0.40347(17)
O2B O 1.0071(3) 0.6691(2) 0.58359(15)
N7B N 0.6886(2) 1.0721(2) 0.52024(14)
C15B C 0.8782(3) 0.8427(3) 0.83033(19)
H11B H 0.8141 0.8713 0.8523
C16B C 1.2584(3) 0.6609(2) 0.77086(17)
H12B H 1.2635 0.6768 0.8165
C17B C 0.9772(3) 0.9043(3) 0.82297(17)
H13B H 0.9806 0.9740 0.8408
C18B C 1.2475(3) 0.6132(3) 0.63635(18)
H14B H 1.2433 0.5966 0.5907
C19B C 0.8732(3) 0.7399(3) 0.80557(18)
H15B H 0.8058 0.6981 0.8106
C20B C 1.3357(3) 0.5719(3) 0.6765(2)
H16B H 1.3926 0.5274 0.6582
C21B C 1.3415(3) 0.5952(3) 0.7433(2)
H17B H 1.4020 0.5665 0.7703
C22B C 0.8067(4) 1.2293(3) 0.53462(18)
H18B H 0.8147 1.3041 0.5302
C23B C 1.0689(3) 0.7250(3) 0.61892(16)
C24B C 0.7054(4) 1.1793(3) 0.51587(18)
H19B H 0.6435 1.2217 0.4989
C25B C 0.8842(3) 1.0573(2) 0.56528(14)
C26B C 0.8968(3) 1.1680(3) 0.56009(16)
H20B H 0.9672 1.2009 0.5741
O3B O 0.6121(5) 0.8703(4) 0.4489(2)
O4B O 0.4856(5) 0.8362(6) 0.3698(3)
O5B O 0.6261(7) 0.7308(6) 0.3792(4)
Cd1A Cd -0.5000 0.5000 0.0000
Cd1A_2 Cd 1.5000 1.5000 1.0000
N2A N 0.4830(2) 1.1141(2) 0.40649(13)
N2C N 0.5170(2) 0.8859(2) 0.59351(13)
O6 O 0.1784(5) 1.2928(5) 0.5072(2)
H21 H 0.1241 1.2799 0.4779
H22 H 0.2122 1.2334 0.5180
O7 O 0.1384(5) 1.5081(2) 0.4675(2)
H23 H 0.2040 1.4839 0.4828
H24 H 0.0974 1.4549 0.4528
O8 O 0.549(2) 0.443(2) 0.5465(12)
O9? O 0.3322(11) 1.1497(12) 0.5694(7)
O10? O 0.5085(10) 1.1468(9) 0.5834(7)
O11? O 0.4137(15) 1.2838(11) 0.6072(13)
O12? O 0.6423(12) 0.5672(10) 0.4813(6)
O13? O 0.477(3) 0.450(2) 0.5071(10)
O14? O 0.556(2) 0.470(3) 0.4983(13)
loop_
_geom_bond_atom_site_label_1
_geom_bond_atom_site_label_2
_geom_bond_site_symmetry_1
_geom_bond_site_symmetry_2
Cd1 N7 1_555 1_555
N1 H1 1_555 1_555
N2 C1 1_555 1_555
N3 N1 1_555 1_555
C1 H2 1_555 1_555
C2 C1 1_555 1_555
C3 C2 1_555 1_555
H3 C3 1_555 1_555
C4 C3 1_555 1_555
H4 C4 1_555 1_555
C5 N2 1_555 1_555
H5 C5 1_555 1_555
C6 N3 1_555 1_555
H6 C6 1_555 1_555
O1 C13 1_555 1_555
C7 H7 1_555 1_555
C8 H8 1_555 1_555
C9 C10 1_555 1_555
N4 H9 1_555 1_555
N5 C7 1_555 1_555
C10 C13 1_555 1_555
C11 C12 1_555 1_555
C12 C9 1_555 1_555
C13 N1 1_555 1_555
C14 C9 1_555 1_555
H10 C14 1_555 1_555
N6 O3 1_555 1_555
O2 C23 1_555 1_555
N7 C8 1_555 1_555
C15 H11 1_555 1_555
C16 C12 1_555 1_555
H12 C16 1_555 1_555
C17 C10 1_555 1_555
H13 C17 1_555 1_555
C18 C11 1_555 1_555
H14 C18 1_555 1_555
C19 C14 1_555 1_555
H15 C19 1_555 1_555
C20 C18 1_555 1_555
H16 C20 1_555 1_555
C21 C16 1_555 1_555
H17 C21 1_555 1_555
C22 H18 1_555 1_555
C23 N4 1_555 1_555
C24 N7 1_555 1_555
H19 C24 1_555 1_555
C25 C7 1_555 1_555
C26 C22 1_555 1_555
H20 C26 1_555 1_555
O3 Cd1 1_555 1_555
O4 N6 1_555 1_555
O5 N6 1_555 1_555
O6 H21 1_555 1_555
H22 O6 1_555 1_555
O7 H23 1_555 1_555
H24 O7 1_555 1_555
N1B H1B 1_555 1_555
N2B C1B 1_555 1_555
N3B N1B 1_555 1_555
C1B H2B 1_555 1_555
C2B C1B 1_555 1_555
C3B C2B 1_555 1_555
H3B C3B 1_555 1_555
C4B C3B 1_555 1_555
H4B C4B 1_555 1_555
C5B N2B 1_555 1_555
H5B C5B 1_555 1_555
C6B N3B 1_555 1_555
H6B C6B 1_555 1_555
O1B C13B 1_555 1_555
C7B H7B 1_555 1_555
C8B H8B 1_555 1_555
C9B C10B 1_555 1_555
N4B H9B 1_555 1_555
N5B C7B 1_555 1_555
C10B C13B 1_555 1_555
C11B C12B 1_555 1_555
C12B C9B 1_555 1_555
C13B N1B 1_555 1_555
C14B C9B 1_555 1_555
H10B C14B 1_555 1_555
N6B O3B 1_555 1_555
O2B C23B 1_555 1_555
N7B Cd1 1_555 1_555
C15B H11B 1_555 1_555
C16B C12B 1_555 1_555
H12B C16B 1_555 1_555
C17B C10B 1_555 1_555
H13B C17B 1_555 1_555
C18B C11B 1_555 1_555
H14B C18B 1_555 1_555
C19B C14B 1_555 1_555
H15B C19B 1_555 1_555
C20B C18B 1_555 1_555
H16B C20B 1_555 1_555
C21B C16B 1_555 1_555
H17B C21B 1_555 1_555
C22B H18B 1_555 1_555
C23B N4B 1_555 1_555
C24B N7B 1_555 1_555
H19B C24B 1_555 1_555
C25B C7B 1_555 1_555
C26B C22B 1_555 1_555
H20B C26B 1_555 1_555
O3B Cd1 1_555 1_555
O4B N6B 1_555 1_555
O5B N6B 1_555 1_555
Cd1A N2 1_555 1_555
Cd1A_2 N2B 1_555 1_555
N2A Cd1 1_555 1_555
N2C Cd1 1_555 1_555
C2 C6 1_555 1_555
C4 C5 1_555 1_555
C8 C25 1_555 1_555
N4 N5 1_555 1_555
C11 C23 1_555 1_555
C15 C17 1_555 1_555
C15 C19 1_555 1_555
C20 C21 1_555 1_555
C22 C24 1_555 1_555
C25 C26 1_555 1_555
C2B C6B 1_555 1_555
C4B C5B 1_555 1_555
C8B N7B 1_555 1_555
C8B C25B 1_555 1_555
N4B N5B 1_555 1_555
C11B C23B 1_555 1_555
C15B C17B 1_555 1_555
C15B C19B 1_555 1_555
C20B C21B 1_555 1_555
C22B C24B 1_555 1_555
C25B C26B 1_555 1_555

#END
