
#######################################################################
#
#                 Cambridge Crystallographic Data Centre
#                                CCDC 
#
#######################################################################
#
# If this CIF has been generated from an entry in the Cambridge 
# Structural Database, then it will include bibliographic, chemical, 
# crystal, experimental, refinement or atomic coordinate data resulting 
# from the CCDC's data processing and validation procedures.
#
#######################################################################

data_BIJHOT
_symmetry_cell_setting           monoclinic
_symmetry_space_group_name_H-M   'P 2/n'
_symmetry_Int_Tables_number      13
_space_group_name_Hall           '-P 2yac'
loop_
_symmetry_equiv_pos_site_id
_symmetry_equiv_pos_as_xyz
1 x,y,z
2 1/2-x,y,1/2-z
3 -x,-y,-z
4 1/2+x,-y,1/2+z
_cell_length_a                   8.5679(3)
_cell_length_b                   9.3862(3)
_cell_length_c                   20.5910(8)
_cell_angle_alpha                90
_cell_angle_beta                 101.038(2)
_cell_angle_gamma                90
_cell_volume                     1625.29
loop_
_atom_site_label
_atom_site_type_symbol
_atom_site_fract_x
_atom_site_fract_y
_atom_site_fract_z
Cu1 Cu 0.20239(6) 0.80288(6) 0.54399(3)
O1 O -0.0047(3) 0.8713(3) 0.55996(16)
N1 N 0.4158(4) 0.7427(4) 0.53074(19)
N2 N 0.2433(4) 0.6509(4) 0.61043(19)
O2 O -0.1859(3) 1.0356(3) 0.51804(17)
N3 N 0.3918(4) 0.5890(4) 0.61551(17)
O3 O -0.0789(4) 0.8008(4) 0.3910(2)
C1 C -0.0541(5) 0.9733(5) 0.5223(2)
C2 C 0.1790(5) 0.5929(4) 0.6575(2)
C3 C 0.4836(5) 0.6366(5) 0.5696(2)
C4 C 0.4170(5) 0.4914(4) 0.6653(2)
C5 C 0.2500 0.4027(6) 0.7500
H1 H 0.1590 0.3418 0.7345
N4 N 0.0377(5) 0.7205(4) 0.3996(2)
C6 C 0.2825(4) 0.4914(4) 0.6930(2)
C7 C 0.6286(5) 0.5788(5) 0.5630(2)
H2 H 0.6737 0.5045 0.5901
O4 O 0.0784(5) 0.6577(4) 0.4543(2)
C8 C 0.7039(5) 0.6337(5) 0.5155(2)
H3 H 0.8018 0.5973 0.5104
C9 C 0.4910(5) 0.7947(5) 0.4844(3)
H4 H 0.4438 0.8687 0.4576
C10 C 0.6343(5) 0.7434(5) 0.4750(3)
H5 H 0.6838 0.7811 0.4424
C11 C 0.0187(5) 0.6359(6) 0.6695(3)
H6 H 0.0313 0.6989 0.7069
H7 H -0.0390 0.5527 0.6783
H8 H -0.0390 0.6838 0.6311
O5 O 0.1120(5) 0.6999(5) 0.3547(2)
C12 C 0.5655(5) 0.4065(5) 0.6855(2)
H9 H 0.5735 0.3376 0.6518
H10 H 0.5626 0.3582 0.7264
H11 H 0.6559 0.4688 0.6913
O1B O 0.0047(3) 1.1287(3) 0.44004(16)
O2B O 0.1859(3) 0.9644(3) 0.48196(17)
C1B C 0.0541(5) 1.0267(5) 0.4777(2)
N1A N 0.0842(4) 0.7427(4) 0.96926(19)
N2A N 0.2567(4) 0.6509(4) 0.88957(19)
N3A N 0.1082(4) 0.5890(4) 0.88449(17)
C2A C 0.3210(5) 0.5929(4) 0.8425(2)
C3A C 0.0164(5) 0.6366(5) 0.9304(2)
C4A C 0.0830(5) 0.4914(4) 0.8347(2)
H1A H 0.3410 0.3418 0.7655
C6A C 0.2175(4) 0.4914(4) 0.8070(2)
C7A C -0.1286(5) 0.5788(5) 0.9370(2)
H2A H -0.1737 0.5045 0.9099
C8A C -0.2039(5) 0.6337(5) 0.9845(2)
H3A H -0.3018 0.5973 0.9896
C9A C 0.0090(5) 0.7947(5) 1.0156(3)
H4A H 0.0562 0.8687 1.0424
C10A C -0.1343(5) 0.7434(5) 1.0250(3)
H5A H -0.1838 0.7811 1.0576
C11A C 0.4813(5) 0.6359(6) 0.8305(3)
H6A H 0.4687 0.6989 0.7931
H7A H 0.5390 0.5527 0.8217
H8A H 0.5390 0.6838 0.8689
C12A C -0.0655(5) 0.4065(5) 0.8145(2)
H9A H -0.0735 0.3376 0.8482
H10A H -0.0626 0.3582 0.7736
H11A H -0.1559 0.4688 0.8087
Cu1A Cu 0.29761(6) 0.80288(6) 0.95601(3)
O3A O 0.5789(4) 0.8008(4) 1.1090(2)
N4A N 0.4623(5) 0.7205(4) 1.1004(2)
O4A O 0.4216(5) 0.6577(4) 1.0457(2)
O5A O 0.3880(5) 0.6999(5) 1.1453(2)
Cu1B Cu -0.20239(6) 1.19712(6) 0.45601(3)
O1A O 0.5047(3) 0.8713(3) 0.94004(16)
O2C O 0.3141(3) 0.9644(3) 1.01804(17)
N5 N 0.3985(18) 0.9698(12) 0.6420(5)
C13 C 0.7598(18) 0.9833(17) 0.6663(7)
C14 C 0.570(3) 0.969(2) 0.6544(11)
N6? N 0.709(2) 0.7386(18) 0.7251(8)
C15? C 0.730(3) 0.834(3) 0.7005(11)
C16? C 0.2500 0.9988(18) 0.7500
C17? C 0.337(2) 0.9849(15) 0.6805(11)
loop_
_geom_bond_atom_site_label_1
_geom_bond_atom_site_label_2
_geom_bond_site_symmetry_1
_geom_bond_site_symmetry_2
Cu1 O1 1_555 1_555
O1 C1 1_555 1_555
N1 Cu1 1_555 1_555
N2 Cu1 1_555 1_555
O2 C1 1_555 1_555
N3 N2 1_555 1_555
O3 N4 1_555 1_555
C1 C1B 1_555 1_555
C2 N2 1_555 1_555
C3 N1 1_555 1_555
C4 N3 1_555 1_555
C5 H1 1_555 1_555
N4 O4 1_555 1_555
C6 C2 1_555 1_555
C7 C3 1_555 1_555
H2 C7 1_555 1_555
O4 Cu1 1_555 1_555
C8 C7 1_555 1_555
H3 C8 1_555 1_555
C9 N1 1_555 1_555
H4 C9 1_555 1_555
C10 C8 1_555 1_555
H5 C10 1_555 1_555
C11 C2 1_555 1_555
H6 C11 1_555 1_555
H7 C11 1_555 1_555
H8 C11 1_555 1_555
O5 N4 1_555 1_555
C12 C4 1_555 1_555
H9 C12 1_555 1_555
H10 C12 1_555 1_555
H11 C12 1_555 1_555
N5 C14 1_555 1_555
C13 C14 1_555 1_555
O1B C1B 1_555 1_555
O2B Cu1 1_555 1_555
C1B O2B 1_555 1_555
N1A C3A 1_555 1_555
N2A N3A 1_555 1_555
N3A C3A 1_555 1_555
C2A N2A 1_555 1_555
C3A C7A 1_555 1_555
C4A N3A 1_555 1_555
H1A C5 1_555 1_555
C6A C5 1_555 1_555
C7A H2A 1_555 1_555
C8A C7A 1_555 1_555
H3A C8A 1_555 1_555
C9A N1A 1_555 1_555
H4A C9A 1_555 1_555
C10A C8A 1_555 1_555
H5A C10A 1_555 1_555
C11A C2A 1_555 1_555
H6A C11A 1_555 1_555
H7A C11A 1_555 1_555
H8A C11A 1_555 1_555
C12A C4A 1_555 1_555
H9A C12A 1_555 1_555
H10A C12A 1_555 1_555
H11A C12A 1_555 1_555
Cu1A N1A 1_555 1_555
O3A N4A 1_555 1_555
N4A O4A 1_555 1_555
O4A Cu1A 1_555 1_555
O5A N4A 1_555 1_555
Cu1B O2 1_555 1_555
O1A Cu1A 1_555 1_555
O2C Cu1A 1_555 1_555
N3 C3 1_555 1_555
C4 C6 1_555 1_555
C5 C6 1_555 1_555
C9 C10 1_555 1_555
O1B Cu1B 1_555 1_555
N2A Cu1A 1_555 1_555
C2A C6A 1_555 1_555
C4A C6A 1_555 1_555
C9A C10A 1_555 1_555

#END
