
#######################################################################
#
#                 Cambridge Crystallographic Data Centre
#                                CCDC 
#
#######################################################################
#
# If this CIF has been generated from an entry in the Cambridge 
# Structural Database, then it will include bibliographic, chemical, 
# crystal, experimental, refinement or atomic coordinate data resulting 
# from the CCDC's data processing and validation procedures.
#
#######################################################################

data_BIJJAH
_symmetry_cell_setting           orthorhombic
_symmetry_space_group_name_H-M   'P b c a'
_symmetry_Int_Tables_number      61
_space_group_name_Hall           '-P 2ac 2ab'
loop_
_symmetry_equiv_pos_site_id
_symmetry_equiv_pos_as_xyz
1 x,y,z
2 1/2-x,-y,1/2+z
3 1/2+x,1/2-y,-z
4 -x,1/2+y,1/2-z
5 -x,-y,-z
6 1/2+x,y,1/2-z
7 1/2-x,1/2+y,z
8 x,1/2-y,1/2+z
_cell_length_a                   17.6399(3)
_cell_length_b                   9.21560(13)
_cell_length_c                   33.6259(5)
_cell_angle_alpha                90
_cell_angle_beta                 90
_cell_angle_gamma                90
_cell_volume                     5466.3
loop_
_atom_site_label
_atom_site_type_symbol
_atom_site_fract_x
_atom_site_fract_y
_atom_site_fract_z
Cu1 Cu 0.200989(16) 0.35303(3) 0.489563(9)
Cu2 Cu 0.012968(16) -0.06278(3) 0.713553(9)
O1 O 0.00244(8) -0.26261(15) 0.73606(4)
O2 O 0.12036(8) -0.09974(16) 0.70309(4)
N1 N 0.11289(10) 0.26911(18) 0.46071(5)
N2 N 0.05142(9) 0.33914(19) 0.51792(5)
N3 N 0.11948(9) 0.40241(18) 0.52773(5)
O3 O -0.06114(9) -0.46357(16) 0.72932(5)
O4 O 0.20307(10) 0.51434(18) 0.42205(5)
O5 O 0.36358(9) 0.57210(17) 0.54030(5)
N4 N -0.09078(10) -0.01027(19) 0.73068(5)
O6 O 0.27144(8) 0.33699(16) 0.44473(4)
N5 N -0.04743(10) -0.33889(19) 0.71696(5)
O7 O 0.29702(10) 0.43044(19) 0.38699(5)
N6 N 0.30708(10) 0.52830(19) 0.52279(5)
N7 N -0.07671(9) 0.16146(18) 0.68186(5)
O8 O -0.08001(9) -0.28702(17) 0.68789(5)
O9 O 0.28960(8) 0.39291(15) 0.52459(4)
O10 O 0.26412(8) 0.60961(16) 0.50328(4)
N8 N -0.00453(9) 0.10600(19) 0.67791(5)
N9 N 0.25674(11) 0.4301(2) 0.41706(5)
N10 N 0.13132(10) -0.1916(2) 0.67406(5)
C1 C 0.00232(12) 0.3427(2) 0.54920(6)
O11 O 0.07585(9) -0.23721(19) 0.65586(5)
C2 C 0.04634(12) 0.2737(2) 0.47995(6)
C3 C 0.11228(12) 0.4481(2) 0.56514(6)
C4 C -0.01409(12) 0.3167(2) 0.64456(6)
C5 C -0.01976(12) 0.2197(3) 0.46355(7)
H1 H -0.0656 0.2261 0.4771
O12 O 0.19672(9) -0.2260(2) 0.66621(6)
C6 C -0.20145(12) 0.1246(3) 0.71427(7)
H2 H -0.2258 0.1907 0.6977
C7 C -0.12521(12) 0.0924(2) 0.70921(6)
C8 C -0.24010(12) 0.0558(3) 0.74453(7)
H3 H -0.2911 0.0765 0.7488
C9 C 0.03303(12) 0.1997(2) 0.65513(6)
C10 C 0.03923(12) 0.4135(2) 0.57961(6)
C11 C -0.01569(14) 0.1561(3) 0.42656(7)
H4 H -0.0592 0.1184 0.4149
C12 C -0.20338(13) -0.0439(3) 0.76857(7)
H5 H -0.2283 -0.0880 0.7897
C13 C 0.00753(13) 0.4475(2) 0.62036(7)
H6 H 0.0450 0.5029 0.6351
H7 H -0.0369 0.5085 0.6172
C14 C 0.17451(14) 0.5259(3) 0.58628(7)
H8 H 0.2172 0.4621 0.5893
H9 H 0.1570 0.5562 0.6120
H10 H 0.1894 0.6094 0.5711
C15 C 0.11442(12) 0.1771(2) 0.64410(7)
H11 H 0.1370 0.1089 0.6621
H12 H 0.1410 0.2679 0.6456
H13 H 0.1174 0.1401 0.6175
C16 C 0.05302(14) 0.1480(3) 0.40670(7)
H14 H 0.0564 0.1044 0.3818
C17 C -0.12912(13) -0.0757(2) 0.76017(6)
H15 H -0.1044 -0.1452 0.7755
C18 C -0.08342(12) 0.2911(2) 0.66215(6)
C19 C -0.07523(12) 0.2785(3) 0.54939(7)
H16 H -0.1066 0.3294 0.5307
H17 H -0.0966 0.2868 0.5755
H18 H -0.0723 0.1780 0.5420
C20 C 0.11591(13) 0.2060(2) 0.42467(7)
H19 H 0.1622 0.2015 0.4115
C21 C -0.15329(12) 0.3812(2) 0.66191(6)
H20 H -0.1922 0.3322 0.6471
H21 H -0.1427 0.4731 0.6497
H22 H -0.1702 0.3963 0.6887
Cu1F Cu 0.299011(16) 0.85303(3) 0.489563(9)
Cu2C Cu -0.012968(16) -0.56278(3) 0.786447(9)
O3C O 0.06114(9) 0.03643(16) 0.77068(5)
O10F O 0.23588(8) 0.10961(16) 0.50328(4)
loop_
_geom_bond_atom_site_label_1
_geom_bond_atom_site_label_2
_geom_bond_site_symmetry_1
_geom_bond_site_symmetry_2
Cu1 N1 1_555 1_555
Cu2 O1 1_555 1_555
O1 N5 1_555 1_555
O2 Cu2 1_555 1_555
N1 C2 1_555 1_555
N2 N3 1_555 1_555
N3 Cu1 1_555 1_555
O3 N5 1_555 1_555
O4 Cu1 1_555 1_555
O5 N6 1_555 1_555
N4 Cu2 1_555 1_555
O6 Cu1 1_555 1_555
N5 O8 1_555 1_555
O7 N9 1_555 1_555
N6 O9 1_555 1_555
N7 N8 1_555 1_555
O8 Cu2 1_555 1_555
O9 Cu1 1_555 1_555
O10 Cu1 1_555 1_555
N8 Cu2 1_555 1_555
N9 O4 1_555 1_555
N10 O2 1_555 1_555
C1 N2 1_555 1_555
O11 Cu2 1_555 1_555
C2 N2 1_555 1_555
C3 N3 1_555 1_555
C4 C9 1_555 1_555
C5 C2 1_555 1_555
H1 C5 1_555 1_555
O12 N10 1_555 1_555
C6 H2 1_555 1_555
C7 N4 1_555 1_555
C8 C6 1_555 1_555
H3 C8 1_555 1_555
C9 N8 1_555 1_555
C10 C1 1_555 1_555
C11 C5 1_555 1_555
H4 C11 1_555 1_555
C12 C8 1_555 1_555
H5 C12 1_555 1_555
C13 C4 1_555 1_555
H6 C13 1_555 1_555
H7 C13 1_555 1_555
C14 C3 1_555 1_555
H8 C14 1_555 1_555
H9 C14 1_555 1_555
H10 C14 1_555 1_555
C15 C9 1_555 1_555
H11 C15 1_555 1_555
H12 C15 1_555 1_555
H13 C15 1_555 1_555
C16 C11 1_555 1_555
H14 C16 1_555 1_555
C17 N4 1_555 1_555
H15 C17 1_555 1_555
C18 N7 1_555 1_555
C19 C1 1_555 1_555
H16 C19 1_555 1_555
H17 C19 1_555 1_555
H18 C19 1_555 1_555
C20 N1 1_555 1_555
H19 C20 1_555 1_555
C21 C18 1_555 1_555
H20 C21 1_555 1_555
H21 C21 1_555 1_555
H22 C21 1_555 1_555
Cu1F O10 1_555 1_555
Cu2C O3 1_555 1_555
O3C Cu2 1_555 1_555
O10F Cu1 1_555 1_555
O6 N9 1_555 1_555
N6 O10 1_555 1_555
N7 C7 1_555 1_555
N10 O11 1_555 1_555
C3 C10 1_555 1_555
C4 C18 1_555 1_555
C6 C7 1_555 1_555
C10 C13 1_555 1_555
C12 C17 1_555 1_555
C16 C20 1_555 1_555

#END
