
#######################################################################
#
#                 Cambridge Crystallographic Data Centre
#                                CCDC 
#
#######################################################################
#
# If this CIF has been generated from an entry in the Cambridge 
# Structural Database, then it will include bibliographic, chemical, 
# crystal, experimental, refinement or atomic coordinate data resulting 
# from the CCDC's data processing and validation procedures.
#
#######################################################################

data_BIJLUD
_symmetry_cell_setting           monoclinic
_symmetry_space_group_name_H-M   'P 21'
_symmetry_Int_Tables_number      4
_space_group_name_Hall           'P 2yb'
loop_
_symmetry_equiv_pos_site_id
_symmetry_equiv_pos_as_xyz
1 x,y,z
2 -x,1/2+y,-z
_cell_length_a                   11.9499(10)
_cell_length_b                   22.787(2)
_cell_length_c                   12.0896(11)
_cell_angle_alpha                90
_cell_angle_beta                 90.464(2)
_cell_angle_gamma                90
_cell_volume                     3291.92
loop_
_atom_site_label
_atom_site_type_symbol
_atom_site_fract_x
_atom_site_fract_y
_atom_site_fract_z
Cd1 Cd 0.68201(4) 0.95494(3) 0.56117(4)
Cd2 Cd 1.07462(4) 0.95048(3) 1.06333(4)
C1 C 0.5276(6) 0.8006(3) 0.3932(6)
C2 C 0.4417(8) 0.7618(4) 0.4152(8)
C3 C 0.4045(8) 0.7229(4) 0.3350(9)
H1 H 0.3456 0.6976 0.3506
C4 C 0.4537(7) 0.7212(4) 0.2324(7)
H2 H 0.4302 0.6940 0.1798
C5 C 0.5345(8) 0.7587(4) 0.2098(7)
H3 H 0.5664 0.7582 0.1398
C6 C 0.5733(7) 0.7988(4) 0.2873(7)
H4 H 0.6302 0.8247 0.2687
C7 C 0.5698(7) 0.8458(3) 0.4722(7)
C8 C 0.5144(7) 0.8844(4) 0.7391(7)
H5 H 0.4604 0.8557 0.7504
C9 C 0.5439(7) 0.9212(3) 0.8300(7)
H6 H 0.5942 0.9515 0.8167
C10 C 0.5056(7) 0.9159(4) 0.9314(7)
H7 H 0.4485 0.8887 0.9411
C11 C 0.5444(6) 0.9497(5) 1.0376(5)
C12 C 0.6106(10) 0.9923(5) 1.0261(8)
H8 H 0.6360 1.0027 0.9562
C13 C 0.6461(9) 1.0245(5) 1.1213(8)
H9 H 0.6980 1.0548 1.1163
C14 C 0.6013(8) 1.0090(5) 1.2185(7)
H10 H 0.6197 1.0300 1.2821
C15 C 0.5292(8) 0.9628(6) 1.2251(7)
H11 H 0.5003 0.9511 1.2928
C16 C 0.5004(7) 0.9344(4) 1.1300(7)
H12 H 0.4490 0.9038 1.1319
C17 C 0.8264(6) 1.0523(3) 0.8563(6)
C18 C 0.9157(6) 1.0417(3) 0.9348(6)
C19 C 0.9374(7) 1.0856(4) 1.0143(6)
H13 H 0.9971 1.0809 1.0634
C20 C 0.8714(7) 1.1360(4) 1.0210(6)
H14 H 0.8853 1.1636 1.0761
C21 C 0.7856(8) 1.1448(4) 0.9461(7)
H15 H 0.7426 1.1787 0.9501
C22 C 0.7633(8) 1.1038(4) 0.8653(7)
H16 H 0.7049 1.1104 0.8156
C23 C 0.7963(7) 1.0120(3) 0.7677(6)
C24 C 0.9259(7) 0.8956(3) 0.6348(6)
H17 H 0.9910 0.8938 0.6774
C25 C 0.9148(7) 0.8590(3) 0.5391(7)
H18 H 0.8446 0.8571 0.5056
C26 C 0.9940(8) 0.8283(4) 0.4951(7)
H19 H 1.0632 0.8299 0.5307
C27 C 0.9883(8) 0.7918(4) 0.3976(8)
C28 C 0.8834(10) 0.7741(5) 0.3534(9)
H20 H 0.8182 0.7847 0.3898
C29 C 0.8759(10) 0.7408(5) 0.2557(9)
H21 H 0.8073 0.7291 0.2262
C30 C 0.9767(14) 0.7261(5) 0.2053(8)
H22 H 0.9744 0.7045 0.1402
C31 C 1.0740(11) 0.7414(5) 0.2454(8)
H23 H 1.1391 0.7298 0.2100
C32 C 1.0801(8) 0.7746(4) 0.3402(7)
H24 H 1.1503 0.7859 0.3663
C33 C 0.9373(7) 1.0500(3) 1.3578(6)
C34 C 0.8463(7) 1.0413(3) 1.4308(6)
C35 C 0.8263(8) 1.0857(4) 1.5096(7)
H25 H 0.7655 1.0822 1.5567
C36 C 0.8942(9) 1.1338(4) 1.5181(7)
H26 H 0.8797 1.1618 1.5720
C37 C 0.9841(9) 1.1416(4) 1.4480(7)
H27 H 1.0306 1.1741 1.4550
C38 C 1.0028(9) 1.0998(4) 1.3676(7)
H28 H 1.0613 1.1053 1.3184
C39 C 0.9664(7) 1.0088(3) 1.2703(6)
C40 C 0.8275(7) 0.8947(4) 1.1370(6)
H29 H 0.7628 0.8946 1.1793
C41 C 0.8343(7) 0.8570(4) 1.0418(7)
H30 H 0.9039 0.8533 1.0087
C42 C 0.7522(7) 0.8276(4) 0.9981(7)
H31 H 0.6830 0.8309 1.0322
C43 C 0.7574(9) 0.7902(4) 0.9017(7)
C44 C 0.6611(8) 0.7744(4) 0.8471(8)
H32 H 0.5919 0.7841 0.8767
C45 C 0.6666(9) 0.7436(5) 0.7467(9)
H33 H 0.6008 0.7344 0.7090
C46 C 0.7634(10) 0.7276(5) 0.7048(8)
H34 H 0.7651 0.7068 0.6387
C47 C 0.8604(10) 0.7415(6) 0.7576(10)
H35 H 0.9287 0.7308 0.7272
C48 C 0.8571(9) 0.7715(5) 0.8568(9)
H36 H 0.9237 0.7793 0.8943
C49 C 1.2222(6) 0.7986(3) 0.8848(6)
C50 C 1.3153(7) 0.7652(3) 0.8979(7)
C51 C 1.3440(7) 0.7237(4) 0.8203(7)
H37 H 1.4070 0.7005 0.8315
C52 C 1.2791(8) 0.7165(4) 0.7255(7)
H38 H 1.2979 0.6883 0.6731
C53 C 1.1884(8) 0.7509(4) 0.7108(7)
H39 H 1.1454 0.7471 0.6468
C54 C 1.1590(7) 0.7910(4) 0.7879(6)
H40 H 1.0956 0.8140 0.7763
C55 C 1.1840(7) 0.8431(3) 0.9676(6)
C56 C 1.2491(7) 0.8788(4) 1.2349(6)
H41 H 1.3016 0.8492 1.2463
C57 C 1.2217(7) 0.9150(3) 1.3251(6)
H42 H 1.1741 0.9465 1.3111
C58 C 1.2577(6) 0.9080(4) 1.4285(7)
H43 H 1.3122 0.8794 1.4397
C59 C 1.2209(7) 0.9408(4) 1.5291(7)
C60 C 1.2599(8) 0.9222(4) 1.6289(7)
H44 H 1.3084 0.8903 1.6336
C61 C 1.2260(8) 0.9517(6) 1.7243(6)
H45 H 1.2503 0.9385 1.7933
C62 C 1.1571(8) 0.9999(5) 1.7175(8)
H46 H 1.1349 1.0195 1.7812
C63 C 1.1216(9) 1.0187(5) 1.6149(9)
H47 H 1.0769 1.0517 1.6046
C64 C 1.1584(8) 0.9842(5) 1.5284(8)
H48 H 1.1323 0.9954 1.4588
C65 C 0.3456(11) 1.1290(6) 0.5864(13)
H49 H 0.3548 1.1242 0.6649
H50 H 0.2695 1.1207 0.5659
H51 H 0.3636 1.1686 0.5662
C66 C 0.4152(14) 1.1021(9) 0.4220(14)
H52 H 0.4898 1.0986 0.3939
H53 H 0.3879 1.1411 0.4090
H54 H 0.3673 1.0744 0.3850
C67 C 0.4775(10) 1.0481(6) 0.5640(10)
H55 H 0.4777 1.0411 0.6398
C68 C 1.2793(17) 1.0439(10) 1.0553(18)
H56 H 1.2850 1.0399 1.1317
C69 C 1.3483(17) 1.1001(10) 0.8894(16)
H57 H 1.2849 1.1217 0.8620
H58 H 1.3539 1.0636 0.8503
H59 H 1.4152 1.1227 0.8784
N1 N 0.5183(7) 0.8477(3) 0.5686(6)
H60 H 0.4633 0.8248 0.5840
N2 N 0.5579(5) 0.8883(3) 0.6423(5)
N3 N 0.8668(5) 0.9670(3) 0.7506(5)
H61 H 0.9227 0.9612 0.7947
N4 N 0.8487(5) 0.9304(3) 0.6623(5)
N5 N 0.8935(5) 0.9651(3) 1.2519(5)
H62 H 0.8372 0.9602 1.2948
N6 N 0.9098(5) 0.9288(3) 1.1650(5)
N7 N 1.2427(6) 0.8453(3) 1.0593(5)
H63 H 1.3006 0.8236 1.0701
N8 N 1.2057(5) 0.8844(3) 1.1372(5)
N9 N 0.4159(8) 1.0909(5) 0.5323(8)
N10 N 1.3340(10) 1.0883(6) 1.0099(9)
O1 O 0.6496(4) 0.8796(2) 0.4436(4)
O2 O 0.3919(6) 0.7604(3) 0.5151(6)
O3 O 0.7107(4) 1.0185(2) 0.7113(4)
O4 O 0.9739(4) 0.9938(2) 0.9308(4)
O5 O 1.0536(4) 1.0136(2) 1.2140(4)
O6 O 0.7843(4) 0.9948(2) 1.4273(4)
O7 O 1.0985(4) 0.8751(2) 0.9454(4)
O8 O 1.3835(5) 0.7688(3) 0.9890(5)
O9 O 0.5351(6) 1.0154(3) 0.5110(5)
O10 O 1.2222(7) 1.0077(4) 1.0061(6)
C70 C 1.4049(13) 1.1275(6) 1.0780(14)
H64 H 1.3660 1.1636 1.0910
H65 H 1.4735 1.1354 1.0399
H66 H 1.4214 1.1088 1.1475
Cd1_2 Cd 0.68201(4) 0.95494(3) 1.56117(4)
O6_2 O 0.7843(4) 0.9948(2) 0.4273(4)
loop_
_geom_bond_atom_site_label_1
_geom_bond_atom_site_label_2
_geom_bond_site_symmetry_1
_geom_bond_site_symmetry_2
Cd1 N2 1_555 1_555
Cd2 N6 1_555 1_555
C1 C2 1_555 1_555
C2 C3 1_555 1_555
C3 H1 1_555 1_555
C4 C3 1_555 1_555
H2 C4 1_555 1_555
C5 C4 1_555 1_555
H3 C5 1_555 1_555
C6 C1 1_555 1_555
H4 C6 1_555 1_555
C7 C1 1_555 1_555
C8 H5 1_555 1_555
C9 C8 1_555 1_555
H6 C9 1_555 1_555
C10 C9 1_555 1_555
H7 C10 1_555 1_555
C11 C10 1_555 1_555
C12 C11 1_555 1_555
H8 C12 1_555 1_555
C13 C12 1_555 1_555
H9 C13 1_555 1_555
C14 C13 1_555 1_555
H10 C14 1_555 1_555
C15 C14 1_555 1_555
H11 C15 1_555 1_555
C16 C11 1_555 1_555
H12 C16 1_555 1_555
C17 C18 1_555 1_555
C18 C19 1_555 1_555
C19 H13 1_555 1_555
C20 C19 1_555 1_555
H14 C20 1_555 1_555
C21 C20 1_555 1_555
H15 C21 1_555 1_555
C22 C17 1_555 1_555
H16 C22 1_555 1_555
C23 C17 1_555 1_555
C24 H17 1_555 1_555
C25 C24 1_555 1_555
H18 C25 1_555 1_555
C26 C25 1_555 1_555
H19 C26 1_555 1_555
C27 C26 1_555 1_555
C28 C27 1_555 1_555
H20 C28 1_555 1_555
C29 C28 1_555 1_555
H21 C29 1_555 1_555
C30 C29 1_555 1_555
H22 C30 1_555 1_555
C31 C30 1_555 1_555
H23 C31 1_555 1_555
C32 C27 1_555 1_555
H24 C32 1_555 1_555
C33 C34 1_555 1_555
C34 C35 1_555 1_555
C35 H25 1_555 1_555
C36 C35 1_555 1_555
H26 C36 1_555 1_555
C37 C36 1_555 1_555
H27 C37 1_555 1_555
C38 C33 1_555 1_555
H28 C38 1_555 1_555
C39 C33 1_555 1_555
C40 H29 1_555 1_555
C41 C40 1_555 1_555
H30 C41 1_555 1_555
C42 C41 1_555 1_555
H31 C42 1_555 1_555
C43 C42 1_555 1_555
C44 C43 1_555 1_555
H32 C44 1_555 1_555
C45 C44 1_555 1_555
H33 C45 1_555 1_555
C46 C45 1_555 1_555
H34 C46 1_555 1_555
C47 C46 1_555 1_555
H35 C47 1_555 1_555
C48 C43 1_555 1_555
H36 C48 1_555 1_555
C49 C50 1_555 1_555
C50 C51 1_555 1_555
C51 H37 1_555 1_555
C52 C51 1_555 1_555
H38 C52 1_555 1_555
C53 C52 1_555 1_555
H39 C53 1_555 1_555
C54 C49 1_555 1_555
H40 C54 1_555 1_555
C55 C49 1_555 1_555
C56 H41 1_555 1_555
C57 C56 1_555 1_555
H42 C57 1_555 1_555
C58 C57 1_555 1_555
H43 C58 1_555 1_555
C59 C58 1_555 1_555
C60 C59 1_555 1_555
H44 C60 1_555 1_555
C61 C60 1_555 1_555
H45 C61 1_555 1_555
C62 C61 1_555 1_555
H46 C62 1_555 1_555
C63 C62 1_555 1_555
H47 C63 1_555 1_555
C64 C59 1_555 1_555
H48 C64 1_555 1_555
C65 H49 1_555 1_555
H50 C65 1_555 1_555
H51 C65 1_555 1_555
C66 H52 1_555 1_555
H53 C66 1_555 1_555
H54 C66 1_555 1_555
C67 H55 1_555 1_555
C68 H56 1_555 1_555
C69 H57 1_555 1_555
H58 C69 1_555 1_555
H59 C69 1_555 1_555
N1 C7 1_555 1_555
H60 N1 1_555 1_555
N2 C8 1_555 1_555
N3 C23 1_555 1_555
H61 N3 1_555 1_555
N4 Cd1 1_555 1_555
N5 C39 1_555 1_555
H62 N5 1_555 1_555
N6 C40 1_555 1_555
N7 C55 1_555 1_555
H63 N7 1_555 1_555
N8 Cd2 1_555 1_555
N9 C65 1_555 1_555
N10 C68 1_555 1_555
O1 Cd1 1_555 1_555
O2 C2 1_555 1_555
O3 Cd1 1_555 1_555
O4 Cd2 1_555 1_555
O5 Cd2 1_555 1_555
O6 C34 1_555 1_555
O7 Cd2 1_555 1_555
O8 C50 1_555 1_555
O9 Cd1 1_555 1_555
O10 Cd2 1_555 1_555
C70 N10 1_555 1_555
H64 C70 1_555 1_555
H65 C70 1_555 1_555
H66 C70 1_555 1_555
Cd1_2 O6 1_555 1_555
O6_2 Cd1 1_555 1_555
C5 C6 1_555 1_555
C7 O1 1_555 1_555
C15 C16 1_555 1_555
C18 O4 1_555 1_555
C21 C22 1_555 1_555
C23 O3 1_555 1_555
C24 N4 1_555 1_555
C31 C32 1_555 1_555
C37 C38 1_555 1_555
C39 O5 1_555 1_555
C47 C48 1_555 1_555
C53 C54 1_555 1_555
C55 O7 1_555 1_555
C56 N8 1_555 1_555
C63 C64 1_555 1_555
C66 N9 1_555 1_555
C67 N9 1_555 1_555
C67 O9 1_555 1_555
C68 O10 1_555 1_555
C69 N10 1_555 1_555
N1 N2 1_555 1_555
N3 N4 1_555 1_555
N5 N6 1_555 1_555
N7 N8 1_555 1_555

#END
