
#######################################################################
#
#                 Cambridge Crystallographic Data Centre
#                                CCDC 
#
#######################################################################
#
# If this CIF has been generated from an entry in the Cambridge 
# Structural Database, then it will include bibliographic, chemical, 
# crystal, experimental, refinement or atomic coordinate data resulting 
# from the CCDC's data processing and validation procedures.
#
#######################################################################

data_BIJQAN
_symmetry_cell_setting           orthorhombic
_symmetry_space_group_name_H-M   'F d d 2'
_symmetry_Int_Tables_number      43
_space_group_name_Hall           'F 2 -2d'
loop_
_symmetry_equiv_pos_site_id
_symmetry_equiv_pos_as_xyz
1 x,y,z
2 -x,-y,z
3 1/4+x,1/4-y,1/4+z
4 1/4-x,1/4+y,1/4+z
5 x,1/2+y,1/2+z
6 -x,1/2-y,1/2+z
7 1/4+x,3/4-y,3/4+z
8 1/4-x,3/4+y,3/4+z
9 1/2+x,y,1/2+z
10 1/2-x,-y,1/2+z
11 3/4+x,1/4-y,3/4+z
12 3/4-x,1/4+y,3/4+z
13 1/2+x,1/2+y,z
14 1/2-x,1/2-y,z
15 3/4+x,3/4-y,1/4+z
16 3/4-x,3/4+y,1/4+z
_cell_length_a                   35.666(7)
_cell_length_b                   41.898(8)
_cell_length_c                   4.1881(8)
_cell_angle_alpha                90
_cell_angle_beta                 90
_cell_angle_gamma                90
_cell_volume                     6258.42
loop_
_atom_site_label
_atom_site_type_symbol
_atom_site_fract_x
_atom_site_fract_y
_atom_site_fract_z
Cu1 Cu 0.32917(3) 0.03927(3) 0.4164(4)
Cu2 Cu 0.42346(3) 0.00942(3) -0.0520(4)
Cu3 Cu 0.47990(3) 0.02994(3) -0.5160(4)
I1 I 0.350328(13) 0.007317(14) -0.08010(14)
I2 I 0.445850(13) -0.026460(12) -0.54974(15)
I3 I 0.459311(13) 0.064410(12) -0.01746(13)
N1 N 0.34060(18) 0.08671(17) 0.473(2)
N2 N 0.27705(18) 0.05854(19) 0.313(2)
C1 C 0.3723(3) 0.1000(3) 0.592(3)
H1 H 0.3935 0.0871 0.6121
C2 C 0.3751(3) 0.1310(3) 0.684(4)
H2 H 0.3977 0.1389 0.7627
C3 C 0.3446(3) 0.1506(2) 0.661(4)
H3 H 0.3458 0.1718 0.7263
C4 C 0.3118(3) 0.1379(2) 0.538(3)
H4 H 0.2908 0.1508 0.5170
C5 C 0.30991(18) 0.10610(19) 0.447(3)
C6 C 0.2767(2) 0.0911(2) 0.321(2)
C7 C 0.2475(2) 0.1080(2) 0.187(3)
H5 H 0.2485 0.1301 0.1823
C8 C 0.2172(3) 0.0926(3) 0.060(4)
H6 H 0.1972 0.1042 -0.0226
C9 C 0.2165(3) 0.0595(3) 0.055(3)
H7 H 0.1965 0.0484 -0.0345
C10 C 0.2464(3) 0.0438(3) 0.189(3)
H8 H 0.2457 0.0216 0.1941
I1_2 I 0.350328(13) 0.007317(14) 0.91990(14)
I2_2 I 0.445850(13) -0.026460(12) 0.45026(15)
I2A I 0.554150(13) 0.026460(12) -0.54974(15)
I3_2 I 0.459311(13) 0.064410(12) -1.01746(13)
Cu1_2 Cu 0.32917(3) 0.03927(3) -0.5836(4)
Cu2_2 Cu 0.42346(3) 0.00942(3) -1.0520(4)
Cu3A Cu 0.52010(3) -0.02994(3) -0.5160(4)
Cu3_2 Cu 0.47990(3) 0.02994(3) 0.4840(4)
loop_
_geom_bond_atom_site_label_1
_geom_bond_atom_site_label_2
_geom_bond_site_symmetry_1
_geom_bond_site_symmetry_2
Cu1 I1 1_555 1_555
Cu2 I1 1_555 1_555
Cu3 I2 1_555 1_555
I1 Cu1_2 1_555 1_555
I2 Cu2 1_555 1_555
I3 Cu2 1_555 1_555
N1 Cu1 1_555 1_555
N2 Cu1 1_555 1_555
C1 N1 1_555 1_555
H1 C1 1_555 1_555
C2 C1 1_555 1_555
H2 C2 1_555 1_555
C3 C2 1_555 1_555
H3 C3 1_555 1_555
C4 C3 1_555 1_555
H4 C4 1_555 1_555
C5 N1 1_555 1_555
C6 N2 1_555 1_555
C7 C6 1_555 1_555
H5 C7 1_555 1_555
C8 C7 1_555 1_555
H6 C8 1_555 1_555
C9 C8 1_555 1_555
H7 C9 1_555 1_555
C10 N2 1_555 1_555
H8 C10 1_555 1_555
I1_2 Cu1 1_555 1_555
I2_2 Cu2 1_555 1_555
I2A Cu3 1_555 1_555
I3_2 Cu3 1_555 1_555
Cu2_2 I2 1_555 1_555
Cu3A I2 1_555 1_555
Cu3_2 I3 1_555 1_555
Cu3 I3 1_555 1_555
C4 C5 1_555 1_555
C5 C6 1_555 1_555
C9 C10 1_555 1_555
I2_2 Cu3_2 1_555 1_555
I2A Cu3A 1_555 1_555
I3_2 Cu2_2 1_555 1_555

#END
