
#######################################################################
#
#                 Cambridge Crystallographic Data Centre
#                                CCDC 
#
#######################################################################
#
# If this CIF has been generated from an entry in the Cambridge 
# Structural Database, then it will include bibliographic, chemical, 
# crystal, experimental, refinement or atomic coordinate data resulting 
# from the CCDC's data processing and validation procedures.
#
#######################################################################

data_BIJQER
_symmetry_cell_setting           monoclinic
_symmetry_space_group_name_H-M   'P 21/c'
_symmetry_Int_Tables_number      14
_space_group_name_Hall           '-P 2ybc'
loop_
_symmetry_equiv_pos_site_id
_symmetry_equiv_pos_as_xyz
1 x,y,z
2 -x,1/2+y,1/2-z
3 -x,-y,-z
4 x,1/2-y,1/2+z
_cell_length_a                   13.6242(7)
_cell_length_b                   4.1976(2)
_cell_length_c                   31.498(2)
_cell_angle_alpha                90
_cell_angle_beta                 99.722(4)
_cell_angle_gamma                90
_cell_volume                     1775.47
loop_
_atom_site_label
_atom_site_type_symbol
_atom_site_fract_x
_atom_site_fract_y
_atom_site_fract_z
Cu1 Cu 0.00986(11) -0.1278(4) 0.08870(6)
Cu2 Cu 0.27222(12) 0.4050(4) 0.12994(6)
Cu3 Cu 0.41826(13) 0.9026(4) 0.14355(6)
Cu4 Cu 0.42446(12) 0.9090(4) 0.24281(6)
I1 I 0.11142(6) 0.36436(17) 0.07298(3)
I2 I 0.26144(6) 0.90694(18) 0.18436(3)
I3 I 0.43687(6) 0.40386(18) 0.09568(3)
I4 I 0.58528(6) 0.90939(17) 0.20606(3)
N1 N -0.1385(8) -0.059(2) 0.0617(4)
N2 N -0.0606(7) -0.298(2) 0.1377(3)
C1 C -0.1717(12) 0.092(3) 0.0242(5)
H1 H -0.1254 0.1565 0.0075
C2 C -0.2682(14) 0.152(4) 0.0099(6)
H2 H -0.2890 0.2565 -0.0160
C3 C -0.3380(12) 0.047(4) 0.0363(6)
H3 H -0.4057 0.0832 0.0273
C4 C -0.3068(10) -0.103(4) 0.0744(6)
H4 H -0.3519 -0.1666 0.0919
C5 C -0.2039(9) -0.160(3) 0.0865(4)
C6 C -0.1631(9) -0.320(3) 0.1271(4)
C7 C -0.2147(10) -0.483(3) 0.1546(5)
H5 H -0.2837 -0.4970 0.1478
C8 C -0.1673(14) -0.624(3) 0.1909(5)
H6 H -0.2036 -0.7384 0.2082
C9 C -0.0656(12) -0.598(4) 0.2024(5)
H7 H -0.0318 -0.6811 0.2281
C10 C -0.0172(10) -0.444(3) 0.1741(5)
H8 H 0.0520 -0.4387 0.1804
I1_2 I 0.11142(6) -0.63564(17) 0.07298(3)
Cu3_2 Cu 0.41826(13) -0.0974(4) 0.14355(6)
I2_2 I 0.26144(6) -0.09306(18) 0.18436(3)
I3_2 I 0.43687(6) 1.40386(18) 0.09568(3)
I4A I 0.41472(6) 0.40939(17) 0.29394(3)
I4A_2 I 0.41472(6) 1.40939(17) 0.29394(3)
Cu1_2 Cu 0.00986(11) 0.8722(4) 0.08870(6)
Cu2_2 Cu 0.27222(12) 1.4050(4) 0.12994(6)
Cu4A Cu 0.57554(12) 1.4090(4) 0.25719(6)
Cu4A_2 Cu 0.57554(12) 0.4090(4) 0.25719(6)
loop_
_geom_bond_atom_site_label_1
_geom_bond_atom_site_label_2
_geom_bond_site_symmetry_1
_geom_bond_site_symmetry_2
Cu1 I1 1_555 1_555
Cu2 I1 1_555 1_555
Cu3 I2 1_555 1_555
Cu4 I2 1_555 1_555
I1 Cu1_2 1_555 1_555
I2 Cu2 1_555 1_555
I3 Cu2 1_555 1_555
I4 Cu3 1_555 1_555
N1 Cu1 1_555 1_555
N2 Cu1 1_555 1_555
C1 N1 1_555 1_555
H1 C1 1_555 1_555
C2 C1 1_555 1_555
H2 C2 1_555 1_555
C3 C2 1_555 1_555
H3 C3 1_555 1_555
C4 C3 1_555 1_555
H4 C4 1_555 1_555
C5 N1 1_555 1_555
C6 N2 1_555 1_555
C7 C6 1_555 1_555
H5 C7 1_555 1_555
C8 C7 1_555 1_555
H6 C8 1_555 1_555
C9 C8 1_555 1_555
H7 C9 1_555 1_555
C10 N2 1_555 1_555
H8 C10 1_555 1_555
I1_2 Cu1 1_555 1_555
Cu3_2 I3 1_555 1_555
I2_2 Cu2 1_555 1_555
I3_2 Cu3 1_555 1_555
I4A Cu4 1_555 1_555
I4A_2 Cu4 1_555 1_555
Cu2_2 I2 1_555 1_555
Cu4A I4 1_555 1_555
Cu4A_2 I4 1_555 1_555
Cu3 I3 1_555 1_555
Cu4 I4 1_555 1_555
C4 C5 1_555 1_555
C5 C6 1_555 1_555
C9 C10 1_555 1_555
Cu3_2 I2_2 1_555 1_555
I3_2 Cu2_2 1_555 1_555
I4A Cu4A_2 1_555 1_555
I4A_2 Cu4A 1_555 1_555

#END
