
#######################################################################
#
#                 Cambridge Crystallographic Data Centre
#                                CCDC 
#
#######################################################################
#
# If this CIF has been generated from an entry in the Cambridge 
# Structural Database, then it will include bibliographic, chemical, 
# crystal, experimental, refinement or atomic coordinate data resulting 
# from the CCDC's data processing and validation procedures.
#
#######################################################################

data_BIJQIV
_symmetry_cell_setting           monoclinic
_symmetry_space_group_name_H-M   'P 21/c'
_symmetry_Int_Tables_number      14
_space_group_name_Hall           '-P 2ybc'
loop_
_symmetry_equiv_pos_site_id
_symmetry_equiv_pos_as_xyz
1 x,y,z
2 x,1/2-y,1/2+z
3 -x,-y,-z
4 -x,1/2+y,1/2-z
_cell_length_a                   12.6380(6)
_cell_length_b                   16.7017(8)
_cell_length_c                   26.4479(13)
_cell_angle_alpha                90
_cell_angle_beta                 94.0080(10)
_cell_angle_gamma                90
_cell_volume                     5568.87
loop_
_atom_site_label
_atom_site_type_symbol
_atom_site_fract_x
_atom_site_fract_y
_atom_site_fract_z
Cu1 Cu -0.383510(16) -0.375890(12) 0.111670(7)
Cu2 Cu -0.396710(16) -0.167150(12) -0.132080(8)
Cu3 Cu 0.0000 -0.5000 0.0000
O1 O -0.27740(10) -0.15618(7) -0.05784(5)
O2 O -0.17089(10) -0.24241(8) -0.01383(5)
O3 O -0.50298(10) -0.24370(7) -0.18795(4)
O4 O -0.58796(10) -0.36184(7) -0.18512(5)
O5 O -0.27828(10) -0.38363(7) 0.04613(4)
O6 O -0.15815(9) -0.42845(8) -0.00548(5)
O7 O 0.57403(9) -0.48960(7) 0.10294(4)
O8 O 0.45422(10) -0.47695(7) 0.16123(5)
N1 N -0.38503(11) -0.27895(8) -0.10323(5)
N2 N -0.37345(11) -0.43073(8) -0.06341(5)
N3 N -0.26132(12) -0.18466(9) -0.16898(6)
N4 N -0.40977(12) -0.05419(9) -0.15575(5)
N5 N -0.52528(12) -0.14495(9) -0.09004(6)
N6 N -0.26941(11) -0.41057(8) 0.16343(5)
N7 N -0.34476(12) -0.25870(9) 0.11969(5)
N8 N -0.51538(11) -0.34752(8) 0.06823(5)
N9 N 0.05996(12) -0.42657(9) 0.05741(6)
N11 N -0.05800(12) -0.57509(9) 0.05352(6)
C1 C -0.24298(13) -0.39566(9) 0.00396(6)
C2 C -0.31365(12) -0.37141(9) -0.04251(6)
C3 C -0.31757(12) -0.29423(10) -0.06305(6)
C4 C -0.24835(13) -0.22503(10) -0.04284(6)
C5 C -0.51953(13) -0.31237(10) -0.17026(6)
C6 C -0.44613(12) -0.33677(10) -0.12451(6)
C7 C -0.43818(12) -0.41414(10) -0.10418(6)
C8 C 0.49453(13) -0.51211(10) 0.12620(6)
C9 C -0.36454(16) 0.00614(11) -0.12856(8)
H1 H -0.3250 -0.0057 -0.0985
C10 C -0.37444(16) 0.08526(11) -0.14357(8)
H2 H -0.3413 0.1257 -0.1241
C11 C -0.43399(15) 0.10335(11) -0.18766(7)
H3 H -0.4419 0.1561 -0.1985
C12 C -0.48180(16) 0.04161(12) -0.21551(7)
H4 H -0.5227 0.0522 -0.2453
C13 C -0.46800(15) -0.03598(11) -0.19848(7)
H5 H -0.5004 -0.0773 -0.2174
C14 C -0.51006(17) -0.12091(13) -0.04168(8)
H6 H -0.4411 -0.1187 -0.0270
C15 C -0.59234(19) -0.09932(15) -0.01287(8)
H7 H -0.5789 -0.0827 0.0205
C16 C -0.69466(19) -0.10267(14) -0.03432(9)
H8 H -0.7515 -0.0889 -0.0156
C17 C -0.71136(17) -0.12689(12) -0.08415(9)
H9 H -0.7797 -0.1291 -0.0996
C18 C -0.62495(15) -0.14784(12) -0.11096(8)
H10 H -0.6365 -0.1644 -0.1445
C19 C -0.17729(16) -0.13538(12) -0.16056(8)
H11 H -0.1847 -0.0903 -0.1405
C20 C -0.08074(16) -0.14909(13) -0.18048(8)
H12 H -0.0244 -0.1139 -0.1739
C21 C -0.06928(16) -0.21543(14) -0.21021(8)
H13 H -0.0053 -0.2256 -0.2243
C22 C -0.15440(17) -0.26692(14) -0.21892(8)
H14 H -0.1482 -0.3126 -0.2386
C23 C -0.24914(16) -0.24922(12) -0.19782(7)
H15 H -0.3064 -0.2837 -0.2040
C24 C -0.29268(15) -0.46006(11) 0.20123(6)
H16 H -0.3635 -0.4707 0.2060
C25 C -0.21524(16) -0.49572(11) 0.23315(7)
H17 H -0.2337 -0.5292 0.2592
C26 C -0.11004(16) -0.48069(12) 0.22567(7)
H18 H -0.0565 -0.5051 0.2461
C27 C -0.08542(15) -0.42881(12) 0.18742(7)
H19 H -0.0151 -0.4173 0.1820
C28 C -0.16713(14) -0.39434(11) 0.15729(6)
H20 H -0.1506 -0.3588 0.1320
C29 C -0.53645(13) -0.38769(10) 0.02467(6)
H21 H -0.4895 -0.4273 0.0159
C30 C -0.62510(14) -0.37256(11) -0.00764(7)
H22 H -0.6369 -0.4011 -0.0377
C31 C -0.69582(14) -0.31419(11) 0.00558(7)
H23 H -0.7561 -0.3028 -0.0154
C32 C -0.67515(14) -0.27285(11) 0.05084(7)
H24 H -0.7215 -0.2335 0.0606
C33 C -0.58474(14) -0.29109(10) 0.08105(6)
H25 H -0.5713 -0.2634 0.1113
C34 C -0.32890(14) -0.22358(11) 0.16523(6)
H26 H -0.3343 -0.2545 0.1942
C35 C -0.30489(16) -0.14317(12) 0.17075(7)
H27 H -0.2950 -0.1205 0.2028
C36 C -0.29578(17) -0.09687(12) 0.12784(8)
H28 H -0.2799 -0.0426 0.1306
C37 C -0.31070(19) -0.13295(12) 0.08074(8)
H29 H -0.3041 -0.1035 0.0513
C38 C -0.33570(16) -0.21372(11) 0.07823(7)
H30 H -0.3466 -0.2377 0.0465
C39 C -0.14369(14) -0.55512(11) 0.07810(6)
H31 H -0.1763 -0.5062 0.0708
C40 C -0.18572(15) -0.60443(11) 0.11395(7)
H32 H -0.2452 -0.5886 0.1302
C41 C -0.13808(16) -0.67724(12) 0.12514(7)
H33 H -0.1644 -0.7113 0.1491
C42 C -0.01238(16) -0.64605(13) 0.06469(8)
H34 H 0.0472 -0.6609 0.0482
C43 C -0.05067(18) -0.69815(14) 0.09998(9)
H35 H -0.0173 -0.7470 0.1066
C44 C 0.14248(14) -0.45104(11) 0.08873(7)
H36 H 0.1708 -0.5016 0.0840
C45 C 0.18668(16) -0.40360(12) 0.12781(7)
H37 H 0.2441 -0.4219 0.1485
C46 C 0.14402(16) -0.32884(12) 0.13543(8)
H38 H 0.1721 -0.2959 0.1614
C47 C 0.05839(16) -0.30370(12) 0.10356(8)
H39 H 0.0279 -0.2538 0.1081
C48 C 0.01921(15) -0.35358(11) 0.06521(7)
H40 H -0.0377 -0.3361 0.0439
O6B O 0.15815(9) -0.57155(8) 0.00548(5)
C1B C 0.24298(13) -0.60434(9) -0.00396(6)
O5B O 0.27828(10) -0.61637(7) -0.04613(4)
Cu1B Cu 0.383510(16) -0.624110(12) -0.111670(7)
O7B O 0.42597(9) -0.51040(7) -0.10294(4)
N6B N 0.26941(11) -0.58943(8) -0.16343(5)
C24B C 0.29268(15) -0.53994(11) -0.20123(6)
H16B H 0.3635 -0.5293 -0.2060
C25B C 0.21524(16) -0.50428(11) -0.23315(7)
H17B H 0.2337 -0.4708 -0.2592
C26B C 0.11004(16) -0.51931(12) -0.22567(7)
H18B H 0.0565 -0.4949 -0.2461
C27B C 0.08542(15) -0.57119(12) -0.18742(7)
H19B H 0.0151 -0.5827 -0.1820
C28B C 0.16713(14) -0.60566(11) -0.15729(6)
H20B H 0.1506 -0.6412 -0.1320
N7B N 0.34476(12) -0.74130(9) -0.11969(5)
C34B C 0.32890(14) -0.77642(11) -0.16523(6)
H26B H 0.3343 -0.7455 -0.1942
C35B C 0.30489(16) -0.85683(12) -0.17075(7)
H27B H 0.2950 -0.8795 -0.2028
C36B C 0.29578(17) -0.90313(12) -0.12784(8)
H28B H 0.2799 -0.9574 -0.1306
C37B C 0.31070(19) -0.86705(12) -0.08074(8)
H29B H 0.3041 -0.8965 -0.0513
C38B C 0.33570(16) -0.78628(11) -0.07823(7)
H30B H 0.3466 -0.7623 -0.0465
N8B N 0.51538(11) -0.65248(8) -0.06823(5)
C29B C 0.53645(13) -0.61231(10) -0.02467(6)
H21B H 0.4895 -0.5727 -0.0159
C30B C 0.62510(14) -0.62744(11) 0.00764(7)
H22B H 0.6369 -0.5989 0.0377
C31B C 0.69582(14) -0.68581(11) -0.00558(7)
H23B H 0.7561 -0.6972 0.0154
C32B C 0.67515(14) -0.72715(11) -0.05084(7)
H24B H 0.7215 -0.7665 -0.0606
C33B C 0.58474(14) -0.70891(10) -0.08105(6)
H25B H 0.5713 -0.7366 -0.1113
C2B C 0.31365(12) -0.62859(9) 0.04251(6)
N2B N 0.37345(11) -0.56927(8) 0.06341(5)
C7B C 0.43818(12) -0.58586(10) 0.10418(6)
C6B C 0.44613(12) -0.66323(10) 0.12451(6)
N1B N 0.38503(11) -0.72105(8) 0.10323(5)
Cu2B Cu 0.396710(16) -0.832850(12) 0.132080(8)
O1B O 0.27740(10) -0.84382(7) 0.05784(5)
C4B C 0.24835(13) -0.77497(10) 0.04284(6)
O2B O 0.17089(10) -0.75759(8) 0.01383(5)
C3B C 0.31757(12) -0.70577(10) 0.06305(6)
O3B O 0.50298(10) -0.75630(7) 0.18795(4)
C5B C 0.51953(13) -0.68763(10) 0.17026(6)
O4B O 0.58796(10) -0.63816(7) 0.18512(5)
N3B N 0.26132(12) -0.81534(9) 0.16898(6)
C19B C 0.17729(16) -0.86462(12) 0.16056(8)
H11B H 0.1847 -0.9097 0.1405
C20B C 0.08074(16) -0.85091(13) 0.18048(8)
H12B H 0.0244 -0.8861 0.1739
C21B C 0.06928(16) -0.78457(14) 0.21021(8)
H13B H 0.0053 -0.7744 0.2243
C22B C 0.15440(17) -0.73308(14) 0.21892(8)
H14B H 0.1482 -0.6874 0.2386
C23B C 0.24914(16) -0.75078(12) 0.19782(7)
H15B H 0.3064 -0.7163 0.2040
N4B N 0.40977(12) -0.94581(9) 0.15575(5)
C9B C 0.36454(16) -1.00614(11) 0.12856(8)
H1B H 0.3250 -0.9943 0.0985
C10B C 0.37444(16) -1.08526(11) 0.14357(8)
H2B H 0.3413 -1.1257 0.1241
C11B C 0.43399(15) -1.10335(11) 0.18766(7)
H3B H 0.4419 -1.1561 0.1985
C12B C 0.48180(16) -1.04161(12) 0.21551(7)
H4B H 0.5227 -1.0522 0.2453
C13B C 0.46800(15) -0.96402(11) 0.19848(7)
H5B H 0.5004 -0.9227 0.2174
N5B N 0.52528(12) -0.85505(9) 0.09004(6)
C14B C 0.51006(17) -0.87909(13) 0.04168(8)
H6B H 0.4411 -0.8813 0.0270
C15B C 0.59234(19) -0.90068(15) 0.01287(8)
H7B H 0.5789 -0.9173 -0.0205
C16B C 0.69466(19) -0.89733(14) 0.03432(9)
H8B H 0.7515 -0.9111 0.0156
C17B C 0.71136(17) -0.87311(12) 0.08415(9)
H9B H 0.7797 -0.8709 0.0996
C18B C 0.62495(15) -0.85216(12) 0.11096(8)
H10B H 0.6365 -0.8356 0.1445
O7_2 O -0.42597(9) -0.48960(7) 0.10294(4)
Cu1_2 Cu 0.616490(16) -0.375890(12) 0.111670(7)
N9B N -0.05996(12) -0.57343(9) -0.05741(6)
C44B C -0.14248(14) -0.54896(11) -0.08873(7)
H36B H -0.1708 -0.4984 -0.0840
C45B C -0.18668(16) -0.59640(12) -0.12781(7)
H37B H -0.2441 -0.5781 -0.1485
C46B C -0.14402(16) -0.67116(12) -0.13543(8)
H38B H -0.1721 -0.7041 -0.1614
C47B C -0.05839(16) -0.69630(12) -0.10356(8)
H39B H -0.0279 -0.7462 -0.1081
C48B C -0.01921(15) -0.64642(11) -0.06521(7)
H40B H 0.0377 -0.6639 -0.0439
N11B N 0.05800(12) -0.42491(9) -0.05352(6)
C39B C 0.14369(14) -0.44488(11) -0.07810(6)
H31B H 0.1763 -0.4938 -0.0708
C40B C 0.18572(15) -0.39557(11) -0.11395(7)
H32B H 0.2452 -0.4114 -0.1302
C41B C 0.13808(16) -0.32276(12) -0.12514(7)
H33B H 0.1644 -0.2887 -0.1491
C43B C 0.05067(18) -0.30185(14) -0.09998(9)
C42B C 0.01238(16) -0.35395(13) -0.06469(8)
H34B H -0.0472 -0.3391 -0.0482
H35B H 0.0173 -0.2530 -0.1066
C8B C -0.49453(13) -0.48789(10) -0.12620(6)
O7B_2 O -0.57403(9) -0.51040(7) -0.10294(4)
O8B O -0.45422(10) -0.52305(7) -0.16123(5)
Cu1B_2 Cu -0.616490(16) -0.624110(12) -0.111670(7)
O9 O 0.71511(14) -0.88454(11) 0.25063(6)
O10 O 0.82265(15) -0.97879(10) 0.23083(7)
O11 O 0.83027(14) -0.86208(11) 0.19641(8)
N10 N 0.78887(13) -0.90820(10) 0.22600(6)
O12 O -0.109(4) -0.126(3) 1.0434(18)
H55 H -0.0632(14) -0.1507(11) 1.0632(7)
O13 O 0.15709(12) -0.12163(10) 0.07825(6)
H43 H 0.153(2) -0.0784(19) 0.0684(10)
H52 H 0.125(3) -0.138(2) 0.0566(13)
O14 O 0.03654(17) -0.17905(13) 0.99747(8)
H58 H -0.052(3) -0.1965(19) 0.9918(11)
H59 H 0.033(2) -0.1281(19) 0.9684(12)
O15 O 0.75247(14) -0.70372(11) 0.24976(6)
H42 H 0.707(2) -0.6846(18) 0.2343(11)
H50 H 0.749(2) -0.746(2) 0.2460(12)
O16 O 0.10380(17) -0.13390(12) 0.17968(7)
H44 H 0.140(2) -0.1304(16) 0.1586(11)
H51 H 0.148(3) -0.1540(19) 0.2003(13)
O17 O 0.94611(15) -0.02827(13) 0.15320(7)
H47 H 0.911(3) -0.011(2) 0.1785(13)
H49 H 0.978(2) -0.0638(19) 0.1668(11)
O18 O 0.05550(13) -0.03661(10) 0.93958(6)
H56 H 0.064(2) -0.0154(17) 0.9075(12)
H57 H 0.087(4) 0.000(3) 0.965(2)
O19 O 0.85090(12) -0.02983(9) 0.96931(6)
H48 H 0.915(3) -0.043(2) 0.9549(12)
H54 H 0.816(3) -0.074(2) 0.9617(12)
O20 O 0.48458(13) -0.31279(10) 0.20551(6)
H41 H 0.472(2) -0.2986(18) 0.2313(12)
H46 H 0.455(2) -0.353(2) 0.1993(12)
O21 O 0.70677(13) -0.06931(9) 0.29846(6)
H45 H 0.665(3) -0.039(2) 0.3118(12)
H53 H 0.758(3) -0.024(3) 0.2774(16)
loop_
_geom_bond_atom_site_label_1
_geom_bond_atom_site_label_2
_geom_bond_site_symmetry_1
_geom_bond_site_symmetry_2
Cu1 O5 1_555 1_555
Cu2 O1 1_555 1_555
Cu3 O6 1_555 1_555
O1 C4 1_555 1_555
O2 C4 1_555 1_555
O3 Cu2 1_555 1_555
O4 C5 1_555 1_555
O5 C1 1_555 1_555
O6 C1 1_555 1_555
O7 C8 1_555 1_555
O8 C8 1_555 1_555
O9 N10 1_555 1_555
O10 N10 1_555 1_555
O11 N10 1_555 1_555
O12 H55 1_555 1_555
O13 H43 1_555 1_555
O14 H58 1_555 1_555
O15 H42 1_555 1_555
O16 H44 1_555 1_555
O17 H47 1_555 1_555
O18 H56 1_555 1_555
O19 H48 1_555 1_555
O20 H41 1_555 1_555
O21 H45 1_555 1_555
N1 Cu2 1_555 1_555
N2 C2 1_555 1_555
N3 Cu2 1_555 1_555
N4 Cu2 1_555 1_555
N5 Cu2 1_555 1_555
N6 Cu1 1_555 1_555
N7 Cu1 1_555 1_555
N8 Cu1 1_555 1_555
N9 Cu3 1_555 1_555
N11 Cu3 1_555 1_555
C1 C2 1_555 1_555
C2 C3 1_555 1_555
C3 N1 1_555 1_555
C4 C3 1_555 1_555
C5 O3 1_555 1_555
C6 N1 1_555 1_555
C7 N2 1_555 1_555
C8 C7B 1_555 1_555
C9 N4 1_555 1_555
H1 C9 1_555 1_555
C10 C9 1_555 1_555
H2 C10 1_555 1_555
C11 C10 1_555 1_555
H3 C11 1_555 1_555
C12 C11 1_555 1_555
H4 C12 1_555 1_555
C13 N4 1_555 1_555
H5 C13 1_555 1_555
C14 N5 1_555 1_555
H6 C14 1_555 1_555
C15 C14 1_555 1_555
H7 C15 1_555 1_555
C16 C15 1_555 1_555
H8 C16 1_555 1_555
C17 C16 1_555 1_555
H9 C17 1_555 1_555
C18 N5 1_555 1_555
H10 C18 1_555 1_555
C19 N3 1_555 1_555
H11 C19 1_555 1_555
C20 C19 1_555 1_555
H12 C20 1_555 1_555
C21 C20 1_555 1_555
H13 C21 1_555 1_555
C22 C21 1_555 1_555
H14 C22 1_555 1_555
C23 N3 1_555 1_555
H15 C23 1_555 1_555
C24 N6 1_555 1_555
H16 C24 1_555 1_555
C25 C24 1_555 1_555
H17 C25 1_555 1_555
C26 C25 1_555 1_555
H18 C26 1_555 1_555
C27 C26 1_555 1_555
H19 C27 1_555 1_555
C28 N6 1_555 1_555
H20 C28 1_555 1_555
C29 N8 1_555 1_555
H21 C29 1_555 1_555
C30 C29 1_555 1_555
H22 C30 1_555 1_555
C31 C30 1_555 1_555
H23 C31 1_555 1_555
C32 C31 1_555 1_555
H24 C32 1_555 1_555
C33 N8 1_555 1_555
H25 C33 1_555 1_555
C34 N7 1_555 1_555
H26 C34 1_555 1_555
C35 C34 1_555 1_555
H27 C35 1_555 1_555
C36 C35 1_555 1_555
H28 C36 1_555 1_555
C37 C36 1_555 1_555
H29 C37 1_555 1_555
C38 N7 1_555 1_555
H30 C38 1_555 1_555
C39 N11 1_555 1_555
H31 C39 1_555 1_555
C40 C39 1_555 1_555
H32 C40 1_555 1_555
C41 C40 1_555 1_555
H33 C41 1_555 1_555
C42 N11 1_555 1_555
H34 C42 1_555 1_555
C43 C41 1_555 1_555
H35 C43 1_555 1_555
C44 N9 1_555 1_555
H36 C44 1_555 1_555
C45 C44 1_555 1_555
H37 C45 1_555 1_555
C46 C45 1_555 1_555
H38 C46 1_555 1_555
C47 C46 1_555 1_555
H39 C47 1_555 1_555
C48 N9 1_555 1_555
H40 C48 1_555 1_555
H46 O20 1_555 1_555
H49 O17 1_555 1_555
H50 O15 1_555 1_555
H51 O16 1_555 1_555
H52 O13 1_555 1_555
H53 O21 1_555 1_555
H54 O19 1_555 1_555
H57 O18 1_555 1_555
H59 O14 1_555 1_555
O6B Cu3 1_555 1_555
C1B O6B 1_555 1_555
O5B C1B 1_555 1_555
Cu1B O5B 1_555 1_555
O7B Cu1B 1_555 1_555
N6B Cu1B 1_555 1_555
C24B N6B 1_555 1_555
H16B C24B 1_555 1_555
C25B C24B 1_555 1_555
H17B C25B 1_555 1_555
C26B C25B 1_555 1_555
H18B C26B 1_555 1_555
C27B C26B 1_555 1_555
H19B C27B 1_555 1_555
C28B N6B 1_555 1_555
H20B C28B 1_555 1_555
N7B Cu1B 1_555 1_555
C34B N7B 1_555 1_555
H26B C34B 1_555 1_555
C35B C34B 1_555 1_555
H27B C35B 1_555 1_555
C36B C35B 1_555 1_555
H28B C36B 1_555 1_555
C37B C36B 1_555 1_555
H29B C37B 1_555 1_555
C38B N7B 1_555 1_555
H30B C38B 1_555 1_555
N8B Cu1B 1_555 1_555
C29B N8B 1_555 1_555
H21B C29B 1_555 1_555
C30B C29B 1_555 1_555
H22B C30B 1_555 1_555
C31B C30B 1_555 1_555
H23B C31B 1_555 1_555
C32B C31B 1_555 1_555
H24B C32B 1_555 1_555
C33B N8B 1_555 1_555
H25B C33B 1_555 1_555
C2B C1B 1_555 1_555
N2B C2B 1_555 1_555
C7B N2B 1_555 1_555
C6B C7B 1_555 1_555
N1B C6B 1_555 1_555
Cu2B N1B 1_555 1_555
O1B Cu2B 1_555 1_555
C4B O1B 1_555 1_555
O2B C4B 1_555 1_555
C3B C2B 1_555 1_555
O3B Cu2B 1_555 1_555
C5B C6B 1_555 1_555
O4B C5B 1_555 1_555
N3B Cu2B 1_555 1_555
C19B N3B 1_555 1_555
H11B C19B 1_555 1_555
C20B C19B 1_555 1_555
H12B C20B 1_555 1_555
C21B C20B 1_555 1_555
H13B C21B 1_555 1_555
C22B C21B 1_555 1_555
H14B C22B 1_555 1_555
C23B N3B 1_555 1_555
H15B C23B 1_555 1_555
N4B Cu2B 1_555 1_555
C9B N4B 1_555 1_555
H1B C9B 1_555 1_555
C10B C9B 1_555 1_555
H2B C10B 1_555 1_555
C11B C10B 1_555 1_555
H3B C11B 1_555 1_555
C12B C11B 1_555 1_555
H4B C12B 1_555 1_555
C13B N4B 1_555 1_555
H5B C13B 1_555 1_555
N5B Cu2B 1_555 1_555
C14B N5B 1_555 1_555
H6B C14B 1_555 1_555
C15B C14B 1_555 1_555
H7B C15B 1_555 1_555
C16B C15B 1_555 1_555
H8B C16B 1_555 1_555
C17B C16B 1_555 1_555
H9B C17B 1_555 1_555
C18B N5B 1_555 1_555
H10B C18B 1_555 1_555
O7_2 Cu1 1_555 1_555
Cu1_2 O7 1_555 1_555
N9B Cu3 1_555 1_555
C44B N9B 1_555 1_555
H36B C44B 1_555 1_555
C45B C44B 1_555 1_555
H37B C45B 1_555 1_555
C46B C45B 1_555 1_555
H38B C46B 1_555 1_555
C47B C46B 1_555 1_555
H39B C47B 1_555 1_555
C48B N9B 1_555 1_555
H40B C48B 1_555 1_555
N11B Cu3 1_555 1_555
C39B N11B 1_555 1_555
H31B C39B 1_555 1_555
C40B C39B 1_555 1_555
H32B C40B 1_555 1_555
C41B C40B 1_555 1_555
H33B C41B 1_555 1_555
C43B C41B 1_555 1_555
C42B N11B 1_555 1_555
H34B C42B 1_555 1_555
H35B C43B 1_555 1_555
C8B C7 1_555 1_555
O7B_2 C8B 1_555 1_555
O8B C8B 1_555 1_555
Cu1B_2 O7B_2 1_555 1_555
C5 C6 1_555 1_555
C6 C7 1_555 1_555
C12 C13 1_555 1_555
C17 C18 1_555 1_555
C22 C23 1_555 1_555
C27 C28 1_555 1_555
C32 C33 1_555 1_555
C37 C38 1_555 1_555
C42 C43 1_555 1_555
C47 C48 1_555 1_555
C27B C28B 1_555 1_555
C37B C38B 1_555 1_555
C32B C33B 1_555 1_555
N1B C3B 1_555 1_555
C4B C3B 1_555 1_555
O3B C5B 1_555 1_555
C22B C23B 1_555 1_555
C12B C13B 1_555 1_555
C17B C18B 1_555 1_555
C47B C48B 1_555 1_555
C43B C42B 1_555 1_555

#END
