
#######################################################################
#
#                 Cambridge Crystallographic Data Centre
#                                CCDC 
#
#######################################################################
#
# If this CIF has been generated from an entry in the Cambridge 
# Structural Database, then it will include bibliographic, chemical, 
# crystal, experimental, refinement or atomic coordinate data resulting 
# from the CCDC's data processing and validation procedures.
#
#######################################################################

data_BIJRIX
_symmetry_cell_setting           monoclinic
_symmetry_space_group_name_H-M   'P 21/n'
_symmetry_Int_Tables_number      14
_space_group_name_Hall           '-P 2yn'
loop_
_symmetry_equiv_pos_site_id
_symmetry_equiv_pos_as_xyz
1 x,y,z
2 1/2-x,1/2+y,1/2-z
3 -x,-y,-z
4 1/2+x,1/2-y,1/2+z
_cell_length_a                   7.6514(7)
_cell_length_b                   20.2928(19)
_cell_length_c                   16.6137(15)
_cell_angle_alpha                90
_cell_angle_beta                 97.1830(10)
_cell_angle_gamma                90
_cell_volume                     2559.34
loop_
_atom_site_label
_atom_site_type_symbol
_atom_site_fract_x
_atom_site_fract_y
_atom_site_fract_z
Cd1 Cd 0.62215(3) 0.483573(13) 0.125341(15)
Cd2 Cd 0.30384(3) 0.544663(12) 0.269028(15)
O1 O 0.4317(3) 0.44068(12) 0.21842(14)
O2 O -0.4576(3) 0.62331(12) 0.31619(14)
O3 O 0.1473(3) 0.46052(13) 0.20113(17)
O4 O -0.0714(3) 0.58406(12) 0.28904(15)
O5 O 0.2382(3) 0.43700(13) -0.06784(14)
O6 O -0.4770(3) 0.58014(11) 0.19380(14)
O7 O 0.1413(3) 0.62998(12) 0.22815(16)
O8 O 0.8178(3) 0.46433(13) 0.23759(17)
H1 H 0.918(3) 0.4511(17) 0.225(2)
H2 H 0.839(5) 0.5031(11) 0.254(2)
O9 O 0.3553(3) 0.48136(12) 0.04876(15)
O10 O 0.2573(3) 0.31252(12) 0.39730(14)
N1 N 0.2805(4) 0.51328(14) 0.39794(17)
N2 N 0.2885(4) 0.36144(14) 0.52119(18)
H3 H 0.321(5) 0.3534(19) 0.5727(13)
N3 N 0.2011(4) 0.11799(14) 0.57525(18)
C1 C 0.2775(5) 0.42697(17) 0.1864(2)
C2 C 0.2964(5) 0.44976(17) 0.4188(2)
H4 H 0.3221 0.4185 0.3793
C3 C 0.2440(5) 0.55764(18) 0.4526(2)
H5 H 0.2293 0.6025 0.4369
C4 C 0.2766(5) 0.42801(17) 0.4965(2)
C5 C 0.2422(5) 0.47492(18) 0.5535(2)
H6 H 0.2294 0.4620 0.6074
C6 C 0.2270(5) 0.54006(18) 0.5314(2)
H7 H 0.2049 0.5726 0.5700
C7 C 0.2671(4) 0.30856(17) 0.4711(2)
C8 C -0.0593(5) 0.74313(17) 0.1939(2)
H8 H 0.0643 0.7456 0.1926
C9 C -0.1624(5) 0.79705(18) 0.1706(2)
H9 H -0.1096 0.8369 0.1556
C10 C 0.2484(4) 0.36750(16) 0.1330(2)
C11 C 0.2162(5) 0.30780(18) 0.1694(2)
H10 H 0.2075 0.3063 0.2259
C12 C 0.2534(4) 0.37033(17) 0.0494(2)
C13 C 0.2333(5) 0.31222(17) 0.0043(2)
H11 H 0.2376 0.3134 -0.0526
C14 C 0.2845(5) 0.43368(17) 0.0076(2)
C15 C 0.2072(5) 0.25349(19) 0.0417(2)
H12 H 0.1960 0.2141 0.0107
C16 C 0.1969(5) 0.25094(18) 0.1242(2)
H13 H 0.1767 0.2101 0.1495
C17 C 0.2497(5) 0.24260(17) 0.5114(2)
C18 C 0.2750(5) 0.18612(18) 0.4672(2)
H14 H 0.3083 0.1893 0.4142
C19 C 0.1991(5) 0.23545(18) 0.5882(2)
H15 H 0.1804 0.2730 0.6202
C20 C 0.2514(5) 0.12549(17) 0.5012(2)
H16 H 0.2715 0.0871 0.4709
C21 C 0.1767(5) 0.17309(18) 0.6172(2)
H17 H 0.1421 0.1687 0.6699
C22 C -0.0138(5) 0.62820(18) 0.2476(2)
C23 C -0.1328(4) 0.68468(17) 0.2193(2)
C24 C -0.3143(5) 0.68091(17) 0.2184(2)
C25 C -0.4161(4) 0.62291(16) 0.2452(2)
C26 C -0.4184(5) 0.73517(17) 0.1919(2)
H18 H -0.5429 0.7322 0.1895
C27 C -0.3430(5) 0.79304(18) 0.1691(2)
H19 H -0.4151 0.8299 0.1525
Cd1_2 Cd -0.37785(3) 0.483573(13) 0.125341(15)
Cd1B Cd 0.37785(3) 0.516427(13) -0.125341(15)
Cd1C Cd 0.12215(3) 0.016427(13) 0.625341(15)
Cd2_2 Cd -0.69616(3) 0.544663(12) 0.269028(15)
O2_2 O 0.5424(3) 0.62331(12) 0.31619(14)
O5B O 0.7618(3) 0.56300(13) 0.06784(14)
O6_2 O 0.5230(3) 0.58014(11) 0.19380(14)
N3C N 0.7011(4) 0.38201(14) 0.07525(18)
loop_
_geom_bond_atom_site_label_1
_geom_bond_atom_site_label_2
_geom_bond_site_symmetry_1
_geom_bond_site_symmetry_2
Cd1 O1 1_555 1_555
Cd2 O1 1_555 1_555
O1 C1 1_555 1_555
O2 C25 1_555 1_555
O3 Cd2 1_555 1_555
O4 C22 1_555 1_555
O5 C14 1_555 1_555
O6 C25 1_555 1_555
O7 Cd2 1_555 1_555
O8 Cd1 1_555 1_555
H1 O8 1_555 1_555
H2 O8 1_555 1_555
O9 Cd1 1_555 1_555
O10 C7 1_555 1_555
N1 Cd2 1_555 1_555
N2 H3 1_555 1_555
N3 C20 1_555 1_555
C1 O3 1_555 1_555
C2 N1 1_555 1_555
H4 C2 1_555 1_555
C3 N1 1_555 1_555
H5 C3 1_555 1_555
C4 N2 1_555 1_555
C5 C4 1_555 1_555
H6 C5 1_555 1_555
C6 C3 1_555 1_555
H7 C6 1_555 1_555
C7 N2 1_555 1_555
C8 H8 1_555 1_555
C9 C8 1_555 1_555
H9 C9 1_555 1_555
C10 C1 1_555 1_555
C11 C10 1_555 1_555
H10 C11 1_555 1_555
C12 C10 1_555 1_555
C13 C12 1_555 1_555
H11 C13 1_555 1_555
C14 O9 1_555 1_555
C15 C13 1_555 1_555
H12 C15 1_555 1_555
C16 C11 1_555 1_555
H13 C16 1_555 1_555
C17 C7 1_555 1_555
C18 C17 1_555 1_555
H14 C18 1_555 1_555
C19 C17 1_555 1_555
H15 C19 1_555 1_555
C20 C18 1_555 1_555
H16 C20 1_555 1_555
C21 N3 1_555 1_555
H17 C21 1_555 1_555
C22 O7 1_555 1_555
C23 C8 1_555 1_555
C24 C23 1_555 1_555
C25 C24 1_555 1_555
C26 C24 1_555 1_555
H18 C26 1_555 1_555
C27 C9 1_555 1_555
H19 C27 1_555 1_555
Cd1_2 O6 1_555 1_555
Cd1B O5 1_555 1_555
Cd1C N3 1_555 1_555
Cd2_2 O2 1_555 1_555
O2_2 Cd2 1_555 1_555
O5B Cd1 1_555 1_555
O6_2 Cd1 1_555 1_555
N3C Cd1 1_555 1_555
Cd2 O6_2 1_555 1_555
O6 Cd2_2 1_555 1_555
C2 C4 1_555 1_555
C5 C6 1_555 1_555
C12 C14 1_555 1_555
C15 C16 1_555 1_555
C19 C21 1_555 1_555
C22 C23 1_555 1_555
C26 C27 1_555 1_555

#END
