
#######################################################################
#
#                 Cambridge Crystallographic Data Centre
#                                CCDC 
#
#######################################################################
#
# If this CIF has been generated from an entry in the Cambridge 
# Structural Database, then it will include bibliographic, chemical, 
# crystal, experimental, refinement or atomic coordinate data resulting 
# from the CCDC's data processing and validation procedures.
#
#######################################################################

data_BIJROC
_symmetry_cell_setting           triclinic
_symmetry_space_group_name_H-M   'P -1'
_symmetry_Int_Tables_number      2
_space_group_name_Hall           '-P 1'
loop_
_symmetry_equiv_pos_site_id
_symmetry_equiv_pos_as_xyz
1 x,y,z
2 -x,-y,-z
_cell_length_a                   12.254(3)
_cell_length_b                   15.449(3)
_cell_length_c                   33.084(7)
_cell_angle_alpha                92.35(3)
_cell_angle_beta                 92.62(3)
_cell_angle_gamma                112.93(3)
_cell_volume                     5750.48
loop_
_atom_site_label
_atom_site_type_symbol
_atom_site_fract_x
_atom_site_fract_y
_atom_site_fract_z
Ag1 Ag -0.12541(6) -0.67773(5) -0.253340(19)
O1 O 0.9873(4) -0.3073(4) 0.02678(16)
O2 O -0.0916(5) -0.1504(4) -0.57846(17)
O3 O 0.9662(5) -0.2098(4) 0.09336(17)
O4 O 0.0156(5) -0.1717(4) -0.50983(18)
O5 O 0.4580(4) -0.1340(4) 0.08135(15)
O6 O -0.2677(6) -0.3235(7) -0.3555(3)
O7 O 0.3189(4) -0.1707(4) 0.01195(16)
O8 O -0.5033(5) -0.3696(4) -0.35501(18)
O9 O 0.4385(4) -0.3304(4) -0.15715(15)
O10 O -0.7899(5) -0.3152(5) -0.53010(19)
O11 O 0.6093(5) -0.3959(4) -0.14953(17)
O12 O -0.6742(5) -0.2338(5) -0.59507(19)
O13 O 0.8173(5) -0.4008(4) 0.05242(19)
O14 O -0.1860(5) -0.3048(4) -0.56759(18)
O15 O 0.4029(5) -0.2892(4) 0.06505(18)
O16 O -0.2698(7) -0.2636(6) -0.2931(3)
O17 O 0.3700(5) -0.4129(5) -0.1021(2)
O18 O -0.7130(6) -0.4133(5) -0.5581(2)
N10 N 1.0851(7) -0.5768(6) 0.0692(2)
N11 N 0.0550(6) -0.2931(6) -0.6888(2)
N12 N 0.2283(6) -0.2799(5) 0.1984(2)
N13 N -0.1551(7) -0.5428(6) -0.2797(3)
N14 N 0.0559(7) -0.5760(5) -0.2134(2)
N15 N -1.1559(8) -0.5989(8) -0.5683(3)
C1 C 0.8845(6) -0.1393(5) -0.0217(2)
C2 C -0.2385(7) -0.0530(6) -0.5043(3)
C3 C 0.9198(6) -0.2142(6) -0.0155(2)
H2 H 0.9276 -0.2505 -0.0383
C4 C -0.2081(7) -0.0843(6) -0.5406(3)
H3 H -0.2448 -0.0777 -0.5655
C7 C 0.9432(6) -0.2360(6) 0.0225(3)
C8 C -0.1257(7) -0.1249(6) -0.5409(3)
C11 C 0.9325(7) -0.1867(6) 0.0564(3)
C12 C -0.0663(7) -0.1324(6) -0.5054(3)
C13 C 0.8931(7) -0.1144(6) 0.0511(2)
H10 H 0.8825 -0.0806 0.0743
C14 C -0.0949(7) -0.1012(6) -0.4697(3)
H11 H -0.0553 -0.1060 -0.4450
C16 C 0.8690(6) -0.0906(5) 0.0123(2)
C17 C -0.1811(7) -0.0622(6) -0.4682(3)
C19 C 0.8240(6) -0.0124(5) 0.0099(2)
H17 H 0.8539 0.0232 -0.0142
H18 H 0.8555 0.0317 0.0342
C20 C -0.2103(7) -0.0345(6) -0.4268(2)
H19 H -0.2471 0.0119 -0.4296
H20 H -0.1362 -0.0045 -0.4092
C21 C 0.6881(7) -0.0508(5) 0.0073(2)
C22 C -0.2951(7) -0.1202(6) -0.4070(2)
C24 C 0.6326(7) -0.0748(5) 0.0436(2)
H23 H 0.6798 -0.0636 0.0684
C25 C -0.2467(8) -0.1757(6) -0.3858(3)
H24 H -0.1630 -0.1563 -0.3823
C27 C 0.5100(7) -0.1145(5) 0.0441(2)
C28 C -0.3191(8) -0.2572(7) -0.3702(3)
C29 C 0.4388(7) -0.1314(5) 0.0082(2)
C30 C -0.4423(7) -0.2873(6) -0.3727(3)
C32 C 0.4943(6) -0.1048(5) -0.0277(2)
H31 H 0.4465 -0.1137 -0.0522
C33 C -0.4897(7) -0.2330(6) -0.3928(2)
H32 H -0.5734 -0.2514 -0.3947
C35 C 0.6172(7) -0.0655(5) -0.0289(2)
C36 C -0.4185(7) -0.1509(6) -0.4109(2)
C37 C 0.6664(7) -0.0455(6) -0.0704(2)
H38 H 0.6188 -0.0189 -0.0868
H39 H 0.7493 0.0016 -0.0673
C38 C -0.4814(7) -0.0979(6) -0.4337(3)
H40 H -0.4274 -0.0306 -0.4331
H41 H -0.5521 -0.1020 -0.4192
C41 C 0.6631(7) -0.1346(5) -0.0921(2)
C42 C -0.5209(7) -0.1343(6) -0.4779(3)
C45 C 0.5574(7) -0.1893(6) -0.1156(2)
H47 H 0.4954 -0.1673 -0.1192
C46 C -0.6315(7) -0.2109(6) -0.4856(3)
H48 H -0.6755 -0.2402 -0.4635
C47 C 0.5459(7) -0.2753(6) -0.1332(2)
C48 C -0.6764(7) -0.2436(6) -0.5246(3)
C50 C 0.6331(7) -0.3116(6) -0.1297(2)
C51 C -0.6177(7) -0.2009(6) -0.5577(3)
C53 C 0.7383(7) -0.2551(6) -0.1074(2)
H55 H 0.8013 -0.2762 -0.1051
C54 C -0.5079(7) -0.1264(6) -0.5503(3)
H56 H -0.4652 -0.0968 -0.5726
C55 C 0.7534(6) -0.1693(5) -0.0885(2)
C56 C -0.4588(7) -0.0939(6) -0.5107(3)
C58 C 0.8727(6) -0.1129(5) -0.0651(2)
H59 H 0.9364 -0.1208 -0.0803
H60 H 0.8863 -0.0453 -0.0644
C59 C -0.3351(7) -0.0145(6) -0.5063(3)
H61 H -0.3245 0.0253 -0.5297
H62 H -0.3278 0.0255 -0.4814
C65 C 0.9725(9) -0.5954(7) 0.0770(3)
H74 H 0.9293 -0.6528 0.0888
C66 C 0.0674(9) -0.2055(7) -0.6763(3)
H75 H 0.1170 -0.1542 -0.6905
C67 C 0.9147(8) -0.5361(6) 0.0687(3)
H76 H 0.8337 -0.5533 0.0743
C68 C 0.0118(8) -0.1860(7) -0.6437(3)
H77 H 0.0249 -0.1227 -0.6358
C69 C 0.9781(7) -0.4502(6) 0.0521(2)
C70 C -0.0622(7) -0.2585(6) -0.6229(2)
C71 C 1.0948(8) -0.4300(6) 0.0441(3)
H78 H 1.1412 -0.3725 0.0329
C72 C -0.0773(8) -0.3486(7) -0.6355(3)
H79 H -0.1286 -0.4009 -0.6221
C73 C 1.1429(8) -0.4953(7) 0.0526(3)
H80 H 1.2226 -0.4811 0.0463
C74 C -0.0168(9) -0.3620(7) -0.6678(3)
H81 H -0.0272 -0.4248 -0.6756
C75 C 0.9182(8) -0.3859(6) 0.0438(3)
C76 C -0.1211(8) -0.2433(7) -0.5871(3)
C77 C 0.9761(10) -0.1486(8) 0.1280(3)
H82 H 1.0016 -0.1727 0.1520
H83 H 0.8988 -0.1456 0.1319
H84 H 1.0347 -0.0854 0.1239
C78 C 0.0628(8) -0.1931(7) -0.4730(3)
H85 H 0.1200 -0.2210 -0.4793
H86 H -0.0019 -0.2378 -0.4588
H87 H 0.1028 -0.1352 -0.4557
C79 C 0.2845(8) -0.1908(6) 0.1876(3)
H88 H 0.2849 -0.1404 0.2051
C80 C -0.2042(10) -0.5515(9) -0.3170(4)
H89 H -0.2209 -0.6065 -0.3342
C81 C 0.3412(8) -0.1703(6) 0.1522(3)
H90 H 0.3791 -0.1066 0.1456
C82 C -0.2332(8) -0.4680(10) -0.3311(3)
H91 H -0.2632 -0.4655 -0.3578
C83 C 0.3437(7) -0.2407(6) 0.1264(2)
C84 C -0.2113(10) -0.3986(7) -0.3015(4)
C85 C 0.2860(8) -0.3327(6) 0.1376(3)
H92 H 0.2845 -0.3841 0.1205
C86 C -0.1700(10) -0.3937(9) -0.2649(4)
H93 H -0.1608 -0.3441 -0.2454
C87 C 0.2312(8) -0.3483(6) 0.1733(3)
H94 H 0.1933 -0.4115 0.1805
C88 C -0.1409(9) -0.4674(8) -0.2573(4)
H95 H -0.1037 -0.4637 -0.2311
C89 C 0.4021(7) -0.2257(7) 0.0877(3)
C90 C -0.2577(10) -0.3187(9) -0.3210(6)
C91 C 0.2467(7) -0.1981(6) -0.0250(3)
H96 H 0.1628 -0.2254 -0.0191
H97 H 0.2661 -0.2449 -0.0407
H98 H 0.2615 -0.1428 -0.0408
C92 C -0.6295(8) -0.4014(7) -0.3576(3)
H99 H -0.6638 -0.4609 -0.3443
H100 H -0.6591 -0.4112 -0.3861
H101 H -0.6525 -0.3541 -0.3440
C93 C 0.1310(8) -0.4924(7) -0.2258(3)
H102 H 0.1143 -0.4735 -0.2516
C94 C -1.0634(11) -0.6177(8) -0.5799(4)
H103 H -1.0787 -0.6772 -0.5933
C95 C 0.2304(7) -0.4339(6) -0.2027(3)
H104 H 0.2817 -0.3761 -0.2125
C96 C -0.9455(10) -0.5536(8) -0.5731(3)
H105 H -0.8816 -0.5700 -0.5803
C97 C 0.2548(7) -0.4600(6) -0.1649(3)
C98 C -0.9254(9) -0.4660(8) -0.5556(3)
C99 C 0.1800(8) -0.5463(6) -0.1522(3)
H106 H 0.1956 -0.5672 -0.1267
C100 C -1.0200(9) -0.4457(8) -0.5443(3)
H107 H -1.0072 -0.3854 -0.5321
C101 C 0.0812(8) -0.6018(7) -0.1777(3)
H108 H 0.0298 -0.6609 -0.1690
C102 C -1.1319(9) -0.5130(9) -0.5507(3)
H109 H -1.1964 -0.4985 -0.5424
C103 C 0.3601(7) -0.4005(6) -0.1370(3)
C104 C -0.7982(10) -0.3968(8) -0.5485(3)
C105 C 0.6982(9) -0.4335(7) -0.1469(3)
H110 H 0.6694 -0.4949 -0.1620
H111 H 0.7162 -0.4409 -0.1184
H112 H 0.7702 -0.3905 -0.1584
C106 C -0.6184(10) -0.1861(8) -0.6295(3)
H113 H -0.6682 -0.2161 -0.6542
H114 H -0.5406 -0.1897 -0.6312
H115 H -0.6081 -0.1200 -0.6266
Ag1A Ag 0.12541(6) -0.32227(5) -0.746660(19)
N11A N -0.0550(6) -0.7069(6) -0.3112(2)
N12A N -0.2283(6) -0.7201(5) -0.1984(2)
Ag1A_2 Ag 0.12541(6) -0.32227(5) 0.253340(19)
Co1 Co 0.80791(10) -0.89368(8) -0.75209(3)
B1 B 0.8526(9) -0.7788(8) -0.7883(3)
H1 H 0.8638 -0.7129 -0.7699
C5 C 0.7217(7) -0.8683(6) -0.8020(3)
H4 H 0.6381 -0.8642 -0.7916
C9 C 0.7354(9) -0.9668(7) -0.8065(3)
H5 H 0.6615 -1.0338 -0.7994
B2 B 0.8771(11) -0.9554(8) -0.7959(3)
H9 H 0.9047 -1.0101 -0.7828
B3 B 0.9611(10) -0.8332(9) -0.7852(3)
H12 H 1.0462 -0.8043 -0.7658
B4 B 0.9410(10) -0.7761(10) -0.8294(4)
H13 H 1.0128 -0.7088 -0.8373
B5 B 0.7892(10) -0.7970(8) -0.8393(3)
H21 H 0.7584 -0.7450 -0.8534
B6 B 0.7115(11) -0.9176(9) -0.8502(3)
H22 H 0.6294 -0.9459 -0.8712
B7 B 0.8128(11) -0.9725(9) -0.8467(3)
H25 H 0.7972 -1.0382 -0.8659
B8 B 0.9541(10) -0.8858(11) -0.8339(3)
H29 H 1.0350 -0.8932 -0.8452
B9 B 0.8552(10) -0.8611(10) -0.8670(4)
H30 H 0.8712 -0.8508 -0.8999
B10 B 0.9108(13) -0.9089(14) -0.7023(4)
H33 H 0.9985 -0.9083 -0.7109
B11 B 0.8814(10) -0.8074(11) -0.6996(3)
H37 H 0.9492 -0.7375 -0.7068
C39 C 0.7283(7) -0.8448(7) -0.7083(3)
H42 H 0.6908 -0.7969 -0.7225
C43 C 0.6680(9) -0.9569(7) -0.7175(3)
H43 H 0.5870 -0.9899 -0.7388
B12 B 0.7722(15) -1.0053(11) -0.7152(4)
H49 H 0.7667 -1.0704 -0.7329
B13 B 0.7836(9) -0.8164(11) -0.6587(3)
H50 H 0.7865 -0.7528 -0.6404
B14 B 0.8974(14) -0.8594(15) -0.6545(4)
H51 H 0.9770 -0.8247 -0.6328
B15 B 0.8296(19) -0.9832(16) -0.6638(5)
H57 H 0.8630 -1.0322 -0.6484
B16 B 0.6753(16) -1.0135(12) -0.6753(5)
H58 H 0.6056 -1.0826 -0.6681
B17 B 0.6481(11) -0.9129(10) -0.6716(3)
H66 H 0.5611 -0.9143 -0.6620
B18 B 0.7551(13) -0.9242(13) -0.6372(4)
H67 H 0.7412 -0.9329 -0.6041
N1 N 0.3930(8) -0.5365(8) -0.9572(3)
C6 C 0.4167(9) -0.5964(8) -0.9695(3)
C10 C 0.4475(10) -0.6687(7) -0.9848(3)
H6 H 0.5085 -0.6439 -1.0042
H7 H 0.3772 -0.7188 -0.9984
H8 H 0.4786 -0.6941 -0.9624
N2 N 0.6277(17) -0.2415(14) -0.8409(6)
C15 C 0.6163(12) -0.3043(14) -0.8647(6)
C18 C 0.6013(13) -0.3668(12) -0.8980(5)
H14 H 0.5246 -0.3800 -0.9127
H15 H 0.6035 -0.4257 -0.8888
H16 H 0.6654 -0.3388 -0.9161
N3 N 0.4259(18) -0.4191(15) -0.7634(6)
C23 C 0.4617(15) -0.3360(15) -0.7536(6)
C26 C 0.5019(14) -0.2413(10) -0.7431(5)
H26 H 0.5330 -0.2057 -0.7668
H27 H 0.5653 -0.2243 -0.7214
H28 H 0.4364 -0.2263 -0.7336
N4 N 1.0533(13) -0.1387(11) -0.7706(4)
C31 C 0.9546(19) -0.1799(13) -0.7631(4)
C34 C 0.8288(14) -0.2331(11) -0.7532(5)
H34 H 0.8154 -0.2993 -0.7500
H35 H 0.7748 -0.2293 -0.7751
H36 H 0.8139 -0.2057 -0.7278
N5 N 0.4227(9) -0.9540(7) -0.8004(3)
C40 C 0.3462(11) -0.9278(8) -0.8009(3)
C44 C 0.2483(10) -0.8946(10) -0.8000(4)
H44 H 0.1758 -0.9460 -0.7929
H45 H 0.2350 -0.8741 -0.8267
H46 H 0.2693 -0.8416 -0.7797
N6 N 0.5474(9) -0.7382(8) -0.7384(3)
C49 C 0.5194(10) -0.6785(11) -0.7436(4)
C52 C 0.4924(14) -0.5916(11) -0.7495(4)
H52 H 0.5589 -0.5441 -0.7619
H53 H 0.4810 -0.5660 -0.7232
H54 H 0.4200 -0.6088 -0.7673
N7 N 0.636(2) -0.3378(17) -0.6678(8)
C57 C 0.5858(19) -0.3512(15) -0.6373(7)
C60 C 0.5331(13) -0.4004(10) -0.6055(4)
H63 H 0.4550 -0.4482 -0.6148
H64 H 0.5235 -0.3573 -0.5847
H65 H 0.5827 -0.4312 -0.5940
N8 N 0.5758(10) -0.5476(8) -0.5377(4)
C61 C 0.4951(12) -0.6042(9) -0.5249(4)
C62 C 0.3924(10) -0.6761(8) -0.5099(4)
H68 H 0.3394 -0.7139 -0.5328
H69 H 0.3503 -0.6464 -0.4935
H70 H 0.4177 -0.7168 -0.4932
N9 N 0.3475(9) -0.0952(9) -0.7153(3)
C63 C 0.3322(10) -0.0251(10) -0.7088(3)
C64 C 0.3154(11) 0.0579(9) -0.6990(3)
H71 H 0.3310 0.0735 -0.6697
H72 H 0.2335 0.0488 -0.7069
H73 H 0.3702 0.1096 -0.7135
loop_
_geom_bond_atom_site_label_1
_geom_bond_atom_site_label_2
_geom_bond_site_symmetry_1
_geom_bond_site_symmetry_2
Ag1 N13 1_555 1_555
Co1 B1 1_555 1_555
O1 C7 1_555 1_555
O2 C8 1_555 1_555
O3 C11 1_555 1_555
O4 C12 1_555 1_555
O5 C27 1_555 1_555
O6 C28 1_555 1_555
O7 C29 1_555 1_555
O8 C30 1_555 1_555
O9 C47 1_555 1_555
O10 C48 1_555 1_555
O11 C50 1_555 1_555
O12 C51 1_555 1_555
O13 C75 1_555 1_555
O14 C76 1_555 1_555
O15 C89 1_555 1_555
O16 C90 1_555 1_555
O17 C103 1_555 1_555
O18 C104 1_555 1_555
N1 C6 1_555 1_555
N2 C15 1_555 1_555
N3 C23 1_555 1_555
N4 C31 1_555 1_555
N5 C40 1_555 1_555
N6 C49 1_555 1_555
N7 C57 1_555 1_555
N8 C61 1_555 1_555
N9 C63 1_555 1_555
N10 C65 1_555 1_555
N11 C66 1_555 1_555
N12 C79 1_555 1_555
N13 C80 1_555 1_555
N14 Ag1 1_555 1_555
N15 C94 1_555 1_555
C1 C3 1_555 1_555
C2 C4 1_555 1_555
B1 H1 1_555 1_555
C3 H2 1_555 1_555
C4 H3 1_555 1_555
C5 Co1 1_555 1_555
H4 C5 1_555 1_555
C6 C10 1_555 1_555
C7 C3 1_555 1_555
C8 C4 1_555 1_555
C9 Co1 1_555 1_555
H5 C9 1_555 1_555
C10 H6 1_555 1_555
H7 C10 1_555 1_555
H8 C10 1_555 1_555
C11 C7 1_555 1_555
C12 C8 1_555 1_555
B2 Co1 1_555 1_555
H9 B2 1_555 1_555
C13 C11 1_555 1_555
H10 C13 1_555 1_555
C14 C12 1_555 1_555
H11 C14 1_555 1_555
B3 Co1 1_555 1_555
H12 B3 1_555 1_555
C15 C18 1_555 1_555
C16 C1 1_555 1_555
C17 C2 1_555 1_555
B4 B1 1_555 1_555
H13 B4 1_555 1_555
C18 H14 1_555 1_555
H15 C18 1_555 1_555
H16 C18 1_555 1_555
C19 C16 1_555 1_555
H17 C19 1_555 1_555
H18 C19 1_555 1_555
C20 C17 1_555 1_555
H19 C20 1_555 1_555
H20 C20 1_555 1_555
B5 B1 1_555 1_555
H21 B5 1_555 1_555
C21 C19 1_555 1_555
C22 C20 1_555 1_555
B6 C5 1_555 1_555
H22 B6 1_555 1_555
C23 C26 1_555 1_555
C24 C21 1_555 1_555
H23 C24 1_555 1_555
C25 C22 1_555 1_555
H24 C25 1_555 1_555
B7 C9 1_555 1_555
H25 B7 1_555 1_555
C26 H26 1_555 1_555
H27 C26 1_555 1_555
H28 C26 1_555 1_555
C27 C24 1_555 1_555
C28 C25 1_555 1_555
B8 B2 1_555 1_555
H29 B8 1_555 1_555
C29 C27 1_555 1_555
C30 C28 1_555 1_555
B9 B4 1_555 1_555
H30 B9 1_555 1_555
C31 C34 1_555 1_555
C32 C29 1_555 1_555
H31 C32 1_555 1_555
C33 C30 1_555 1_555
H32 C33 1_555 1_555
B10 Co1 1_555 1_555
H33 B10 1_555 1_555
C34 H34 1_555 1_555
H35 C34 1_555 1_555
H36 C34 1_555 1_555
C35 C21 1_555 1_555
C36 C22 1_555 1_555
B11 Co1 1_555 1_555
H37 B11 1_555 1_555
C37 C35 1_555 1_555
H38 C37 1_555 1_555
H39 C37 1_555 1_555
C38 C36 1_555 1_555
H40 C38 1_555 1_555
H41 C38 1_555 1_555
C39 Co1 1_555 1_555
H42 C39 1_555 1_555
C40 C44 1_555 1_555
C41 C37 1_555 1_555
C42 C38 1_555 1_555
C43 Co1 1_555 1_555
H43 C43 1_555 1_555
C44 H44 1_555 1_555
H45 C44 1_555 1_555
H46 C44 1_555 1_555
C45 C41 1_555 1_555
H47 C45 1_555 1_555
C46 C42 1_555 1_555
H48 C46 1_555 1_555
B12 Co1 1_555 1_555
H49 B12 1_555 1_555
C47 C45 1_555 1_555
C48 C46 1_555 1_555
B13 B11 1_555 1_555
H50 B13 1_555 1_555
C49 C52 1_555 1_555
C50 C47 1_555 1_555
C51 C48 1_555 1_555
B14 B10 1_555 1_555
H51 B14 1_555 1_555
C52 H52 1_555 1_555
H53 C52 1_555 1_555
H54 C52 1_555 1_555
C53 C50 1_555 1_555
H55 C53 1_555 1_555
C54 C51 1_555 1_555
H56 C54 1_555 1_555
B15 B10 1_555 1_555
H57 B15 1_555 1_555
C55 C41 1_555 1_555
C56 C42 1_555 1_555
B16 C43 1_555 1_555
H58 B16 1_555 1_555
C57 C60 1_555 1_555
C58 C1 1_555 1_555
H59 C58 1_555 1_555
H60 C58 1_555 1_555
C59 C2 1_555 1_555
H61 C59 1_555 1_555
H62 C59 1_555 1_555
C60 H63 1_555 1_555
H64 C60 1_555 1_555
H65 C60 1_555 1_555
B17 C39 1_555 1_555
H66 B17 1_555 1_555
B18 B13 1_555 1_555
H67 B18 1_555 1_555
C61 C62 1_555 1_555
C62 H68 1_555 1_555
H69 C62 1_555 1_555
H70 C62 1_555 1_555
C63 C64 1_555 1_555
C64 H71 1_555 1_555
H72 C64 1_555 1_555
H73 C64 1_555 1_555
C65 H74 1_555 1_555
C66 H75 1_555 1_555
C67 C65 1_555 1_555
H76 C67 1_555 1_555
C68 C66 1_555 1_555
H77 C68 1_555 1_555
C69 C67 1_555 1_555
C70 C68 1_555 1_555
C71 C69 1_555 1_555
H78 C71 1_555 1_555
C72 C70 1_555 1_555
H79 C72 1_555 1_555
C73 N10 1_555 1_555
H80 C73 1_555 1_555
C74 N11 1_555 1_555
H81 C74 1_555 1_555
C75 O1 1_555 1_555
C76 O2 1_555 1_555
C77 O3 1_555 1_555
H82 C77 1_555 1_555
H83 C77 1_555 1_555
H84 C77 1_555 1_555
C78 O4 1_555 1_555
H85 C78 1_555 1_555
H86 C78 1_555 1_555
H87 C78 1_555 1_555
C79 H88 1_555 1_555
C80 H89 1_555 1_555
C81 C79 1_555 1_555
H90 C81 1_555 1_555
C82 C80 1_555 1_555
H91 C82 1_555 1_555
C83 C81 1_555 1_555
C84 C82 1_555 1_555
C85 C83 1_555 1_555
H92 C85 1_555 1_555
C86 C84 1_555 1_555
H93 C86 1_555 1_555
C87 N12 1_555 1_555
H94 C87 1_555 1_555
C88 N13 1_555 1_555
H95 C88 1_555 1_555
C89 O5 1_555 1_555
C90 O6 1_555 1_555
C91 O7 1_555 1_555
H96 C91 1_555 1_555
H97 C91 1_555 1_555
H98 C91 1_555 1_555
C92 O8 1_555 1_555
H99 C92 1_555 1_555
H100 C92 1_555 1_555
H101 C92 1_555 1_555
C93 N14 1_555 1_555
H102 C93 1_555 1_555
C94 H103 1_555 1_555
C95 C93 1_555 1_555
H104 C95 1_555 1_555
C96 C94 1_555 1_555
H105 C96 1_555 1_555
C97 C95 1_555 1_555
C98 C96 1_555 1_555
C99 C97 1_555 1_555
H106 C99 1_555 1_555
C100 C98 1_555 1_555
H107 C100 1_555 1_555
C101 N14 1_555 1_555
H108 C101 1_555 1_555
C102 N15 1_555 1_555
H109 C102 1_555 1_555
C103 O9 1_555 1_555
C104 O10 1_555 1_555
C105 O11 1_555 1_555
H110 C105 1_555 1_555
H111 C105 1_555 1_555
H112 C105 1_555 1_555
C106 O12 1_555 1_555
H113 C106 1_555 1_555
H114 C106 1_555 1_555
H115 C106 1_555 1_555
Ag1A N11 1_555 1_555
N11A Ag1 1_555 1_555
N12A Ag1 1_555 1_555
Ag1A_2 N12 1_555 1_555
B1 C5 1_555 1_555
B1 B3 1_555 1_555
C5 C9 1_555 1_555
C5 B5 1_555 1_555
C9 B2 1_555 1_555
C9 B6 1_555 1_555
B2 B3 1_555 1_555
B2 B7 1_555 1_555
C13 C16 1_555 1_555
C14 C17 1_555 1_555
B3 B8 1_555 1_555
B3 B4 1_555 1_555
B4 B5 1_555 1_555
B4 B8 1_555 1_555
B5 B9 1_555 1_555
B5 B6 1_555 1_555
B6 B7 1_555 1_555
B6 B9 1_555 1_555
B7 B8 1_555 1_555
B7 B9 1_555 1_555
B8 B9 1_555 1_555
C32 C35 1_555 1_555
C33 C36 1_555 1_555
B10 B11 1_555 1_555
B10 B12 1_555 1_555
B11 C39 1_555 1_555
B11 B14 1_555 1_555
C39 C43 1_555 1_555
C39 B13 1_555 1_555
C43 B12 1_555 1_555
C43 B17 1_555 1_555
B12 B15 1_555 1_555
B12 B16 1_555 1_555
B13 B14 1_555 1_555
B13 B17 1_555 1_555
B14 B15 1_555 1_555
B14 B18 1_555 1_555
C53 C55 1_555 1_555
C54 C56 1_555 1_555
B15 B18 1_555 1_555
B15 B16 1_555 1_555
C55 C58 1_555 1_555
C56 C59 1_555 1_555
B16 B17 1_555 1_555
B16 B18 1_555 1_555
B17 B18 1_555 1_555
C69 C75 1_555 1_555
C70 C76 1_555 1_555
C71 C73 1_555 1_555
C72 C74 1_555 1_555
C83 C89 1_555 1_555
C84 C90 1_555 1_555
C85 C87 1_555 1_555
C86 C88 1_555 1_555
C97 C103 1_555 1_555
C98 C104 1_555 1_555
C99 C101 1_555 1_555
C100 C102 1_555 1_555

#END
