
#######################################################################
#
#                 Cambridge Crystallographic Data Centre
#                                CCDC 
#
#######################################################################
#
# If this CIF has been generated from an entry in the Cambridge 
# Structural Database, then it will include bibliographic, chemical, 
# crystal, experimental, refinement or atomic coordinate data resulting 
# from the CCDC's data processing and validation procedures.
#
#######################################################################

data_BIJXOJ
_symmetry_cell_setting           monoclinic
_symmetry_space_group_name_H-M   'C 2/c'
_symmetry_Int_Tables_number      15
_space_group_name_Hall           '-C 2yn'
loop_
_symmetry_equiv_pos_site_id
_symmetry_equiv_pos_as_xyz
1 x,y,z
2 -x,y,1/2-z
3 1/2+x,1/2+y,z
4 1/2-x,1/2+y,1/2-z
5 -x,-y,-z
6 x,-y,1/2+z
7 1/2-x,1/2-y,-z
8 1/2+x,1/2-y,1/2+z
_cell_length_a                   18.8666(7)
_cell_length_b                   8.9097(3)
_cell_length_c                   10.8706(4)
_cell_angle_alpha                90
_cell_angle_beta                 109.0500(10)
_cell_angle_gamma                90
_cell_volume                     1727.23
loop_
_atom_site_label
_atom_site_type_symbol
_atom_site_fract_x
_atom_site_fract_y
_atom_site_fract_z
I1 I 0.417576(8) 1.158582(17) 0.041989(15)
Cu1 Cu 0.468788(16) 0.88747(3) 0.03588(3)
N1 N 0.47226(11) 0.7422(2) 0.18957(18)
C1 C 0.36032(13) 0.6557(3) 0.0387(2)
C2 C 0.41781(14) 0.6476(2) 0.1695(2)
N2 N 0.37479(11) 0.7541(2) -0.04433(19)
C3 C 0.29467(14) 0.5705(3) 0.0028(3)
H1 H 0.2862 0.5013 0.0606
C4 C 0.25715(15) 0.6908(3) -0.2046(3)
H2 H 0.2228 0.7060 -0.2872
C5 C 0.32495(14) 0.7692(3) -0.1631(2)
H3 H 0.3358 0.8349 -0.2210
C6 C 0.24251(14) 0.5898(3) -0.1189(3)
H4 H 0.1979 0.5356 -0.1434
C7 C 0.41082(15) 0.5338(3) 0.2660(3)
H5 H 0.4471 0.5546 0.3495
H6 H 0.4195 0.4353 0.2380
H7 H 0.3613 0.5383 0.2725
N1A N 0.52774(11) 0.7422(2) 0.31043(18)
C1A C 0.63968(13) 0.6557(3) 0.4613(2)
C2A C 0.58219(14) 0.6476(2) 0.3305(2)
N2A N 0.62521(11) 0.7541(2) 0.54433(19)
C3A C 0.70533(14) 0.5705(3) 0.4972(3)
H1A H 0.7138 0.5013 0.4394
C4A C 0.74285(15) 0.6908(3) 0.7046(3)
H2A H 0.7772 0.7060 0.7872
C5A C 0.67505(14) 0.7692(3) 0.6631(2)
H3A H 0.6642 0.8349 0.7210
C6A C 0.75749(14) 0.5898(3) 0.6189(3)
H4A H 0.8021 0.5356 0.6434
C7A C 0.58918(15) 0.5338(3) 0.2340(3)
H5A H 0.5529 0.5546 0.1505
H6A H 0.5805 0.4353 0.2620
H7A H 0.6387 0.5383 0.2275
I1A I 0.582424(8) 1.158582(17) 0.458011(15)
Cu1A Cu 0.531212(16) 0.88747(3) 0.46412(3)
I1D I 0.582424(8) 0.841418(17) -0.041989(15)
I1E I 0.417576(8) 0.841418(17) 0.541989(15)
Cu1D Cu 0.531212(16) 1.11253(3) -0.03588(3)
Cu1E Cu 0.468788(16) 1.11253(3) 0.53588(3)
loop_
_geom_bond_atom_site_label_1
_geom_bond_atom_site_label_2
_geom_bond_site_symmetry_1
_geom_bond_site_symmetry_2
I1 Cu1 1_555 1_555
Cu1 N1 1_555 1_555
N1 C2 1_555 1_555
C1 C2 1_555 1_555
C2 C7 1_555 1_555
N2 Cu1 1_555 1_555
C3 C1 1_555 1_555
H1 C3 1_555 1_555
C4 H2 1_555 1_555
C5 N2 1_555 1_555
H3 C5 1_555 1_555
C6 C3 1_555 1_555
H4 C6 1_555 1_555
C7 H5 1_555 1_555
H6 C7 1_555 1_555
H7 C7 1_555 1_555
N1A N1 1_555 1_555
C1A C2A 1_555 1_555
C2A N1A 1_555 1_555
N2A C1A 1_555 1_555
C3A C1A 1_555 1_555
H1A C3A 1_555 1_555
C4A H2A 1_555 1_555
C5A N2A 1_555 1_555
H3A C5A 1_555 1_555
C6A C3A 1_555 1_555
H4A C6A 1_555 1_555
C7A C2A 1_555 1_555
H5A C7A 1_555 1_555
H6A C7A 1_555 1_555
H7A C7A 1_555 1_555
I1A Cu1A 1_555 1_555
Cu1A N1A 1_555 1_555
I1D Cu1 1_555 1_555
I1E Cu1A 1_555 1_555
Cu1D I1 1_555 1_555
Cu1E I1A 1_555 1_555
Cu1 Cu1D 1_555 1_555
C1 N2 1_555 1_555
C4 C5 1_555 1_555
C4 C6 1_555 1_555
N2A Cu1A 1_555 1_555
C4A C5A 1_555 1_555
C4A C6A 1_555 1_555
Cu1A Cu1E 1_555 1_555
I1D Cu1D 1_555 1_555
I1E Cu1E 1_555 1_555

#END
