
#######################################################################
#
#                 Cambridge Crystallographic Data Centre
#                                CCDC 
#
#######################################################################
#
# If this CIF has been generated from an entry in the Cambridge 
# Structural Database, then it will include bibliographic, chemical, 
# crystal, experimental, refinement or atomic coordinate data resulting 
# from the CCDC's data processing and validation procedures.
#
#######################################################################

data_BIJXUP
_symmetry_cell_setting           triclinic
_symmetry_space_group_name_H-M   'P -1'
_symmetry_Int_Tables_number      2
_space_group_name_Hall           '-P 1'
loop_
_symmetry_equiv_pos_site_id
_symmetry_equiv_pos_as_xyz
1 x,y,z
2 -x,-y,-z
_cell_length_a                   7.778(3)
_cell_length_b                   7.996(3)
_cell_length_c                   8.223(3)
_cell_angle_alpha                117.415(3)
_cell_angle_beta                 91.385(4)
_cell_angle_gamma                109.241(5)
_cell_volume                     419.072
loop_
_atom_site_label
_atom_site_type_symbol
_atom_site_fract_x
_atom_site_fract_y
_atom_site_fract_z
I1 I 1.14484(6) 0.54813(7) 0.74759(7)
Cu1 Cu 0.84965(12) 0.59392(13) 0.61873(13)
N1 N 0.9006(8) 0.8958(9) 0.7508(8)
N2 N 0.3809(8) 0.6117(9) 0.3692(9)
C1 C 0.8394(9) 0.9891(11) 0.6873(10)
H1 H 0.8955 1.1305 0.7450
C2 C 0.6833(9) 0.8790(11) 0.5258(10)
C3 C 1.0403(9) 1.0225(11) 0.9265(10)
H2 H 1.0737 1.1657 0.9662
H3 H 1.1517 0.9926 0.9087
C4 C 0.6840(10) 0.9342(11) 0.3866(10)
H4 H 0.7809 1.0463 0.3962
C5 C 0.5344(10) 0.8149(12) 0.2335(11)
H5 H 0.5331 0.8394 0.1334
C6 C 0.5296(10) 0.7196(11) 0.5106(11)
H6 H 0.5297 0.6853 0.6044
C7 C 0.3864(10) 0.6579(12) 0.2334(11)
H7 H 0.2857 0.5812 0.1320
N1A N 1.0994(8) 1.1042(9) 1.2492(8)
C1A C 1.1606(9) 1.0109(11) 1.3127(10)
H1A H 1.1045 0.8695 1.2550
C2A C 1.3167(9) 1.1210(11) 1.4742(10)
C3A C 0.9597(9) 0.9775(11) 1.0735(10)
H2A H 0.9263 0.8343 1.0338
H3A H 0.8483 1.0074 1.0913
C4A C 1.3160(10) 1.0658(11) 1.6134(10)
H4A H 1.2191 0.9537 1.6038
C5A C 1.4656(10) 1.1851(12) 1.7665(11)
H5A H 1.4669 1.1606 1.8666
N2A N 1.6191(8) 1.3883(9) 1.6308(9)
C6A C 1.4704(10) 1.2804(11) 1.4894(11)
H6A H 1.4703 1.3147 1.3956
C7A C 1.6136(10) 1.3421(12) 1.7666(11)
H7A H 1.7143 1.4188 1.8680
I1A I -0.14484(6) 0.45187(7) 0.25241(7)
Cu1A Cu 0.15035(12) 0.40608(13) 0.38127(13)
I1_2 I 0.14484(6) 0.54813(7) 0.74759(7)
I1A_2 I 0.85516(6) 0.45187(7) 0.25241(7)
Cu1_2 Cu -0.15035(12) 0.59392(13) 0.61873(13)
Cu1_3 Cu 1.84965(12) 1.59392(13) 1.61873(13)
Cu1A_2 Cu 1.15035(12) 0.40608(13) 0.38127(13)
Cu1A_3 Cu 1.15035(12) 1.40608(13) 1.38127(13)
N1A_2 N 0.0994(8) 0.1042(9) 0.2492(8)
N2A_2 N 0.6191(8) 0.3883(9) 0.6308(9)
loop_
_geom_bond_atom_site_label_1
_geom_bond_atom_site_label_2
_geom_bond_site_symmetry_1
_geom_bond_site_symmetry_2
I1 Cu1 1_555 1_555
Cu1 N1 1_555 1_555
N1 C1 1_555 1_555
N2 C6 1_555 1_555
C1 H1 1_555 1_555
C2 C1 1_555 1_555
C3 N1 1_555 1_555
H2 C3 1_555 1_555
H3 C3 1_555 1_555
C4 C2 1_555 1_555
H4 C4 1_555 1_555
C5 C4 1_555 1_555
H5 C5 1_555 1_555
C6 C2 1_555 1_555
H6 C6 1_555 1_555
C7 N2 1_555 1_555
H7 C7 1_555 1_555
N1A C1A 1_555 1_555
C1A H1A 1_555 1_555
C2A C1A 1_555 1_555
C3A C3 1_555 1_555
H2A C3A 1_555 1_555
H3A C3A 1_555 1_555
C4A C2A 1_555 1_555
H4A C4A 1_555 1_555
C5A C4A 1_555 1_555
H5A C5A 1_555 1_555
N2A C6A 1_555 1_555
C6A C2A 1_555 1_555
H6A C6A 1_555 1_555
C7A C5A 1_555 1_555
H7A C7A 1_555 1_555
I1A Cu1A 1_555 1_555
Cu1A N2 1_555 1_555
I1_2 Cu1A 1_555 1_555
I1A_2 Cu1 1_555 1_555
Cu1_2 I1A 1_555 1_555
Cu1_3 N2A 1_555 1_555
Cu1A_2 I1 1_555 1_555
Cu1A_3 N1A 1_555 1_555
N1A_2 Cu1A 1_555 1_555
N2A_2 Cu1 1_555 1_555
C5 C7 1_555 1_555
N1A C3A 1_555 1_555
N2A C7A 1_555 1_555
I1_2 Cu1_2 1_555 1_555
I1A_2 Cu1A_2 1_555 1_555

#END
