
#######################################################################
#
#                 Cambridge Crystallographic Data Centre
#                                CCDC 
#
#######################################################################
#
# If this CIF has been generated from an entry in the Cambridge 
# Structural Database, then it will include bibliographic, chemical, 
# crystal, experimental, refinement or atomic coordinate data resulting 
# from the CCDC's data processing and validation procedures.
#
#######################################################################

data_BIJYAW
_symmetry_cell_setting           monoclinic
_symmetry_space_group_name_H-M   'C 2/c'
_symmetry_Int_Tables_number      15
_space_group_name_Hall           '-C 2yn'
loop_
_symmetry_equiv_pos_site_id
_symmetry_equiv_pos_as_xyz
1 x,y,z
2 -x,y,1/2-z
3 1/2+x,1/2+y,z
4 1/2-x,1/2+y,1/2-z
5 -x,-y,-z
6 x,-y,1/2+z
7 1/2-x,1/2-y,-z
8 1/2+x,1/2-y,1/2+z
_cell_length_a                   9.789(8)
_cell_length_b                   13.647(12)
_cell_length_c                   13.969(17)
_cell_angle_alpha                90
_cell_angle_beta                 106.053(18)
_cell_angle_gamma                90
_cell_volume                     1793.36
loop_
_atom_site_label
_atom_site_type_symbol
_atom_site_fract_x
_atom_site_fract_y
_atom_site_fract_z
I1 I 0.23537(4) -0.10870(3) 0.27040(3)
Cu1 Cu 0.0000 -0.20363(7) 0.2500
Cu2 Cu 0.0000 -0.00672(7) 0.2500
N1 N -0.0144(5) 0.0946(3) 0.1358(3)
C1 C -0.0881(6) 0.1774(4) 0.1329(4)
H1 H -0.1471 0.1825 0.1746
C2 C -0.0825(6) 0.2551(4) 0.0724(4)
H2 H -0.1318 0.3125 0.0765
C3 C -0.0023(6) 0.2473(4) 0.0049(3)
C4 C 0.0719(6) 0.1616(4) 0.0052(4)
H3 H 0.1263 0.1531 -0.0393
C5 C 0.0655(6) 0.0877(4) 0.0724(4)
H4 H 0.1190 0.0312 0.0732
C6 C 0.0086(6) 0.3299(4) -0.0599(4)
H5 H 0.0010 0.3931 -0.0368
N2 N 0.0276(4) 0.3199(3) -0.1451(3)
C7 C 0.0485(6) 0.4085(4) -0.1983(4)
H6 H 0.1464 0.4117 -0.2008
H7 H 0.0298 0.4659 -0.1627
N1A N 0.0144(5) 0.0946(3) -0.6358(3)
C1A C 0.0881(6) 0.1774(4) -0.6329(4)
H1A H 0.1471 0.1825 -0.6746
C2A C 0.0825(6) 0.2551(4) -0.5724(4)
H2A H 0.1318 0.3125 -0.5765
C3A C 0.0023(6) 0.2473(4) -0.5049(3)
C4A C -0.0719(6) 0.1616(4) -0.5052(4)
H3A H -0.1263 0.1531 -0.4607
C5A C -0.0655(6) 0.0877(4) -0.5724(4)
H4A H -0.1190 0.0312 -0.5732
C6A C -0.0086(6) 0.3299(4) -0.4401(4)
H5A H -0.0010 0.3931 -0.4632
N2A N -0.0276(4) 0.3199(3) -0.3549(3)
C7A C -0.0485(6) 0.4085(4) -0.3017(4)
H6A H -0.1464 0.4117 -0.2992
H7A H -0.0298 0.4659 -0.3373
I1A I -0.23537(4) -0.10870(3) 0.22960(3)
Cu1D Cu 0.0000 0.20363(7) -0.2500
Cu2_2 Cu 0.0000 -0.00672(7) -0.7500
N1A_2 N 0.0144(5) 0.0946(3) 0.3642(3)
N2D N -0.0276(4) -0.3199(3) 0.1451(3)
N2E N 0.0276(4) -0.3199(3) 0.3549(3)
loop_
_geom_bond_atom_site_label_1
_geom_bond_atom_site_label_2
_geom_bond_site_symmetry_1
_geom_bond_site_symmetry_2
I1 Cu1 1_555 1_555
Cu1 I1A 1_555 1_555
Cu2 I1 1_555 1_555
N1 Cu2 1_555 1_555
C1 N1 1_555 1_555
H1 C1 1_555 1_555
C2 C1 1_555 1_555
H2 C2 1_555 1_555
C3 C2 1_555 1_555
C4 C3 1_555 1_555
H3 C4 1_555 1_555
C5 N1 1_555 1_555
H4 C5 1_555 1_555
C6 C3 1_555 1_555
H5 C6 1_555 1_555
N2 C6 1_555 1_555
C7 N2 1_555 1_555
H6 C7 1_555 1_555
H7 C7 1_555 1_555
N1A C1A 1_555 1_555
C1A H1A 1_555 1_555
C2A C1A 1_555 1_555
H2A C2A 1_555 1_555
C3A C2A 1_555 1_555
C4A C3A 1_555 1_555
H3A C4A 1_555 1_555
C5A N1A 1_555 1_555
H4A C5A 1_555 1_555
C6A C3A 1_555 1_555
H5A C6A 1_555 1_555
N2A C6A 1_555 1_555
C7A C7 1_555 1_555
H6A C7A 1_555 1_555
H7A C7A 1_555 1_555
I1A Cu2 1_555 1_555
Cu1D N2 1_555 1_555
Cu2_2 N1A 1_555 1_555
N1A_2 Cu2 1_555 1_555
N2D Cu1 1_555 1_555
N2E Cu1 1_555 1_555
C4 C5 1_555 1_555
C4A C5A 1_555 1_555
N2A C7A 1_555 1_555
N2A Cu1D 1_555 1_555

#END
