
#######################################################################
#
#                 Cambridge Crystallographic Data Centre
#                                CCDC 
#
#######################################################################
#
# If this CIF has been generated from an entry in the Cambridge 
# Structural Database, then it will include bibliographic, chemical, 
# crystal, experimental, refinement or atomic coordinate data resulting 
# from the CCDC's data processing and validation procedures.
#
#######################################################################

data_BIJYOK
_symmetry_cell_setting           triclinic
_symmetry_space_group_name_H-M   'P -1'
_symmetry_Int_Tables_number      2
_space_group_name_Hall           '-P 1'
loop_
_symmetry_equiv_pos_site_id
_symmetry_equiv_pos_as_xyz
1 x,y,z
2 -x,-y,-z
_cell_length_a                   8.643(2)
_cell_length_b                   10.663(3)
_cell_length_c                   15.891(4)
_cell_angle_alpha                91.695(7)
_cell_angle_beta                 97.146(6)
_cell_angle_gamma                104.419(6)
_cell_volume                     1404.57
loop_
_atom_site_label
_atom_site_type_symbol
_atom_site_fract_x
_atom_site_fract_y
_atom_site_fract_z
Cu1 Cu 0.92426(4) 0.99937(4) 0.06486(2)
I1 I 1.23989(2) 1.02825(2) 0.088131(12)
N1 N 0.8161(3) 0.8511(3) 0.13600(15)
C1 C 0.8907(4) 0.7650(3) 0.1707(2)
H1 H 0.9913 0.7641 0.1559
C2 C 0.8260(4) 0.6780(3) 0.2270(2)
H2 H 0.8798 0.6174 0.2476
C3 C 0.6796(4) 0.6815(3) 0.25269(19)
H3 H 0.6356 0.6256 0.2923
C4 C 0.5997(3) 0.7699(3) 0.21841(18)
C5 C 0.6720(4) 0.8497(3) 0.15923(19)
H4 H 0.6165 0.9062 0.1340
C6 C 0.4514(3) 0.7911(3) 0.24410(19)
H5 H 0.4008 0.8462 0.2135
N2 N 0.3879(3) 0.7375(2) 0.30665(16)
N3 N 0.2532(3) 0.7861(2) 0.31973(15)
C7 C 0.1843(3) 0.7431(3) 0.38317(17)
C8 C 0.0495(3) 0.7954(3) 0.40415(17)
C9 C -0.0597(3) 0.7296(3) 0.45547(18)
H6 H -0.0448 0.6545 0.4798
C10 C -0.1901(4) 0.7763(3) 0.4702(2)
H7 H -0.2638 0.7313 0.5036
C11 C -0.2118(4) 0.8879(3) 0.4362(2)
H8 H -0.3000 0.9184 0.4464
C12 C -0.1036(4) 0.9550(3) 0.3869(2)
H9 H -0.1180 1.0315 0.3645
C13 C 0.0266(4) 0.9095(3) 0.3704(2)
H10 H 0.0991 0.9551 0.3366
C14 C 0.2374(3) 0.6458(3) 0.43929(16)
C15 C 0.3529(3) 0.6937(3) 0.51683(17)
C16 C 0.4028(4) 0.8245(3) 0.5409(2)
H11 H 0.3667 0.8832 0.5064
C17 C 0.5059(4) 0.8699(4) 0.6155(2)
H12 H 0.5372 0.9582 0.6313
C18 C 0.5612(4) 0.7838(4) 0.6657(2)
H13 H 0.6299 0.8138 0.7160
C19 C 0.5162(4) 0.6538(4) 0.6425(2)
H14 H 0.5560 0.5961 0.6763
C20 C 0.4117(3) 0.6084(3) 0.56887(19)
H15 H 0.3802 0.5198 0.5539
N4 N 0.1834(3) 0.5220(2) 0.42436(15)
N5 N 0.0643(3) 0.4841(2) 0.35303(15)
C21 C 0.0617(4) 0.3743(3) 0.32053(19)
H16 H 0.1386 0.3325 0.3428
C22 C -0.0582(3) 0.3103(3) 0.24887(18)
C23 C -0.2073(4) 0.3366(3) 0.2316(2)
H17 H -0.2365 0.3956 0.2668
C24 C -0.3116(4) 0.2749(3) 0.1623(2)
H18 H -0.4118 0.2922 0.1494
C25 C -0.2660(4) 0.1870(3) 0.1119(2)
H19 H -0.3365 0.1472 0.0641
N6 N -0.1254(3) 0.1562(2) 0.12839(16)
C26 C -0.0254(4) 0.2170(3) 0.19690(19)
H20 H 0.0719 0.1949 0.2102
Cu1_2 Cu -0.07574(4) -0.00063(4) 0.06486(2)
Cu1A Cu 1.07574(4) 1.00063(4) -0.06486(2)
I1A I 0.76011(2) 0.97175(2) -0.088131(12)
N6_2 N 0.8746(3) 1.1562(2) 0.12839(16)
loop_
_geom_bond_atom_site_label_1
_geom_bond_atom_site_label_2
_geom_bond_site_symmetry_1
_geom_bond_site_symmetry_2
Cu1 I1 1_555 1_555
I1 Cu1A 1_555 1_555
N1 Cu1 1_555 1_555
C1 N1 1_555 1_555
H1 C1 1_555 1_555
C2 C1 1_555 1_555
H2 C2 1_555 1_555
C3 C2 1_555 1_555
H3 C3 1_555 1_555
C4 C3 1_555 1_555
C5 N1 1_555 1_555
H4 C5 1_555 1_555
C6 C4 1_555 1_555
H5 C6 1_555 1_555
N2 C6 1_555 1_555
N3 N2 1_555 1_555
C7 N3 1_555 1_555
C8 C7 1_555 1_555
C9 C8 1_555 1_555
H6 C9 1_555 1_555
C10 C9 1_555 1_555
H7 C10 1_555 1_555
C11 C10 1_555 1_555
H8 C11 1_555 1_555
C12 C11 1_555 1_555
H9 C12 1_555 1_555
C13 C8 1_555 1_555
H10 C13 1_555 1_555
C14 C7 1_555 1_555
C15 C14 1_555 1_555
C16 C15 1_555 1_555
H11 C16 1_555 1_555
C17 C16 1_555 1_555
H12 C17 1_555 1_555
C18 C17 1_555 1_555
H13 C18 1_555 1_555
C19 C18 1_555 1_555
H14 C19 1_555 1_555
C20 C15 1_555 1_555
H15 C20 1_555 1_555
N4 C14 1_555 1_555
N5 N4 1_555 1_555
C21 N5 1_555 1_555
H16 C21 1_555 1_555
C22 C21 1_555 1_555
C23 C22 1_555 1_555
H17 C23 1_555 1_555
C24 C23 1_555 1_555
H18 C24 1_555 1_555
C25 C24 1_555 1_555
H19 C25 1_555 1_555
N6 C25 1_555 1_555
C26 C22 1_555 1_555
H20 C26 1_555 1_555
Cu1_2 N6 1_555 1_555
Cu1A I1A 1_555 1_555
I1A Cu1 1_555 1_555
N6_2 Cu1 1_555 1_555
C4 C5 1_555 1_555
C12 C13 1_555 1_555
C19 C20 1_555 1_555
N6 C26 1_555 1_555

#END
