
#######################################################################
#
#                 Cambridge Crystallographic Data Centre
#                                CCDC 
#
#######################################################################
#
# If this CIF has been generated from an entry in the Cambridge 
# Structural Database, then it will include bibliographic, chemical, 
# crystal, experimental, refinement or atomic coordinate data resulting 
# from the CCDC's data processing and validation procedures.
#
#######################################################################

data_BIJYIE
_symmetry_cell_setting           triclinic
_symmetry_space_group_name_H-M   'P -1'
_symmetry_Int_Tables_number      2
_space_group_name_Hall           '-P 1'
loop_
_symmetry_equiv_pos_site_id
_symmetry_equiv_pos_as_xyz
1 x,y,z
2 -x,-y,-z
_cell_length_a                   10.4488(11)
_cell_length_b                   11.1247(11)
_cell_length_c                   11.2975(12)
_cell_angle_alpha                105.677(2)
_cell_angle_beta                 91.472(2)
_cell_angle_gamma                103.078(2)
_cell_volume                     1226.28
loop_
_atom_site_label
_atom_site_type_symbol
_atom_site_fract_x
_atom_site_fract_y
_atom_site_fract_z
Ag1 Ag 0.13858(2) 1.33976(3) 0.98115(3)
N1 N 0.3204(2) 1.3910(2) 0.8920(2)
C1 C 0.3732(3) 1.5129(3) 0.8968(3)
H1 H 0.3295 1.5749 0.9355
C2 C 0.4884(3) 1.5519(3) 0.8479(3)
H2 H 0.5214 1.6384 0.8532
C3 C 0.5555(3) 1.4606(3) 0.7902(3)
H3 H 0.6338 1.4847 0.7558
C4 C 0.5034(3) 1.3334(2) 0.7849(2)
C5 C 0.3853(3) 1.3030(3) 0.8362(3)
H4 H 0.3492 1.2172 0.8316
C6 C 0.5713(3) 1.2345(3) 0.7254(2)
H5 H 0.6495 1.2594 0.6912
N2 N 0.5278(2) 1.1157(2) 0.7183(2)
N3 N 0.6063(2) 1.0423(2) 0.6484(2)
C7 C 0.5885(3) 0.9276(2) 0.6576(2)
C8 C 0.6642(3) 0.8430(3) 0.5797(2)
C9 C 0.7590(3) 0.8902(3) 0.5093(3)
H6 H 0.7771 0.9766 0.5117
C10 C 0.8272(3) 0.8093(4) 0.4352(3)
H7 H 0.8910 0.8422 0.3887
C11 C 0.8012(4) 0.6816(4) 0.4301(3)
H8 H 0.8472 0.6280 0.3804
C12 C 0.7078(4) 0.6334(3) 0.4981(4)
H9 H 0.6900 0.5465 0.4940
C13 C 0.6385(3) 0.7126(3) 0.5737(3)
H10 H 0.5753 0.6787 0.6201
C14 C 0.4959(3) 0.8738(2) 0.7404(2)
C15 C 0.3617(3) 0.8003(2) 0.6889(2)
C16 C 0.2825(3) 0.7248(3) 0.7534(3)
H11 H 0.3144 0.7231 0.8304
C17 C 0.1586(3) 0.6538(3) 0.7041(4)
H12 H 0.1069 0.6033 0.7470
C18 C 0.1108(3) 0.6573(3) 0.5907(4)
H13 H 0.0271 0.6078 0.5569
C19 C 0.1851(3) 0.7329(4) 0.5263(3)
H14 H 0.1510 0.7359 0.4505
C20 C 0.3103(3) 0.8041(3) 0.5754(3)
H15 H 0.3609 0.8550 0.5322
N4 N 0.5321(2) 0.8838(2) 0.8536(2)
N5 N 0.6639(2) 0.9543(2) 0.8904(2)
C21 C 0.6939(3) 0.9709(3) 1.0044(3)
H16 H 0.6311 0.9364 1.0508
C22 C 0.8245(3) 1.0425(3) 1.0641(2)
C23 C 0.8702(3) 1.0296(3) 1.1769(3)
H17 H 0.8178 0.9747 1.2153
C24 C 0.9946(4) 1.1002(3) 1.2295(3)
H18 H 1.0280 1.0921 1.3032
C25 C 1.0683(3) 1.1823(3) 1.1719(3)
H19 H 1.1523 1.2289 1.2079
N6 N 1.0245(3) 1.1985(2) 1.0655(2)
C26 C 0.9058(3) 1.1282(3) 1.0133(3)
H20 H 0.8759 1.1372 0.9387
N7 N -0.0946(3) 1.4015(3) 0.8419(3)
O1 O -0.1312(4) 1.4058(4) 0.9457(4)
O2 O -0.0290(4) 1.3273(4) 0.7960(3)
O3 O -0.1271(3) 1.4731(3) 0.7869(4)
Ag1_2 Ag 1.13858(2) 1.33976(3) 0.98115(3)
N6_2 N 0.0245(3) 1.1985(2) 1.0655(2)
loop_
_geom_bond_atom_site_label_1
_geom_bond_atom_site_label_2
_geom_bond_site_symmetry_1
_geom_bond_site_symmetry_2
Ag1 N1 1_555 1_555
N1 C1 1_555 1_555
C1 H1 1_555 1_555
C2 C1 1_555 1_555
H2 C2 1_555 1_555
C3 C2 1_555 1_555
H3 C3 1_555 1_555
C4 C3 1_555 1_555
C5 N1 1_555 1_555
H4 C5 1_555 1_555
C6 C4 1_555 1_555
H5 C6 1_555 1_555
N2 C6 1_555 1_555
N3 N2 1_555 1_555
C7 N3 1_555 1_555
C8 C7 1_555 1_555
C9 C8 1_555 1_555
H6 C9 1_555 1_555
C10 C9 1_555 1_555
H7 C10 1_555 1_555
C11 C10 1_555 1_555
H8 C11 1_555 1_555
C12 C11 1_555 1_555
H9 C12 1_555 1_555
C13 C8 1_555 1_555
H10 C13 1_555 1_555
C14 C7 1_555 1_555
C15 C14 1_555 1_555
C16 C15 1_555 1_555
H11 C16 1_555 1_555
C17 C16 1_555 1_555
H12 C17 1_555 1_555
C18 C17 1_555 1_555
H13 C18 1_555 1_555
C19 C18 1_555 1_555
H14 C19 1_555 1_555
C20 C15 1_555 1_555
H15 C20 1_555 1_555
N4 C14 1_555 1_555
N5 N4 1_555 1_555
C21 N5 1_555 1_555
H16 C21 1_555 1_555
C22 C21 1_555 1_555
C23 C22 1_555 1_555
H17 C23 1_555 1_555
C24 C23 1_555 1_555
H18 C24 1_555 1_555
C25 C24 1_555 1_555
H19 C25 1_555 1_555
N6 C25 1_555 1_555
C26 C22 1_555 1_555
H20 C26 1_555 1_555
N7 O1 1_555 1_555
O2 Ag1 1_555 1_555
O3 N7 1_555 1_555
Ag1_2 N6 1_555 1_555
N6_2 Ag1 1_555 1_555
C4 C5 1_555 1_555
C12 C13 1_555 1_555
C19 C20 1_555 1_555
N6 C26 1_555 1_555
N7 O2 1_555 1_555

#END
