
#######################################################################
#
#                 Cambridge Crystallographic Data Centre
#                                CCDC 
#
#######################################################################
#
# If this CIF has been generated from an entry in the Cambridge 
# Structural Database, then it will include bibliographic, chemical, 
# crystal, experimental, refinement or atomic coordinate data resulting 
# from the CCDC's data processing and validation procedures.
#
#######################################################################

data_BIJZUR
_symmetry_cell_setting           triclinic
_symmetry_space_group_name_H-M   'P -1'
_symmetry_Int_Tables_number      2
_space_group_name_Hall           '-P 1'
loop_
_symmetry_equiv_pos_site_id
_symmetry_equiv_pos_as_xyz
1 x,y,z
2 -x,-y,-z
_cell_length_a                   10.2820(11)
_cell_length_b                   12.2030(13)
_cell_length_c                   19.5770(18)
_cell_angle_alpha                82.072(2)
_cell_angle_beta                 81.311(2)
_cell_angle_gamma                67.0940(10)
_cell_volume                     2228.22
loop_
_atom_site_label
_atom_site_type_symbol
_atom_site_fract_x
_atom_site_fract_y
_atom_site_fract_z
Eu1 Eu 0.67044(3) 0.70926(3) 0.286341(18)
N1 N 0.3603(6) 0.8835(5) 0.1357(3)
H1 H 0.3081 0.9411 0.1092
N2 N 0.3530(7) 0.6204(6) 0.1894(4)
N3 N 0.8149(6) 0.3949(5) 0.4285(3)
H2 H 0.8756 0.3294 0.4454
N4 N 0.6375(8) 0.3497(6) 0.3192(4)
N5 N 0.8301(7) 0.5495(6) 0.1784(4)
N6 N 0.5268(9) 0.8419(7) 0.4073(4)
N7 N 0.8424(8) 0.8501(6) 0.2340(3)
O1 O 0.4687(5) 0.8357(4) 0.2323(3)
O2 O 0.1114(5) 1.0538(4) 0.1529(3)
O3 O 0.2124(6) 1.0800(5) 0.0085(3)
O4 O 0.7808(5) 0.5782(4) 0.3780(3)
O5 O 1.0691(5) 0.2624(4) 0.4577(3)
O6 O 0.9691(6) 0.1443(5) 0.6029(3)
O7 O 0.7484(6) 0.6558(5) 0.1639(3)
O8 O 0.8523(6) 0.5190(5) 0.2409(3)
O9 O 0.8852(8) 0.4800(6) 0.1344(4)
O10 O 0.4867(6) 0.7643(6) 0.3894(3)
O11 O 0.6315(7) 0.8534(5) 0.3701(3)
O12 O 0.4720(10) 0.8950(9) 0.4570(5)
O13 O 0.8914(6) 0.7490(5) 0.2699(3)
O14 O 0.7161(6) 0.8835(5) 0.2223(3)
O15 O 0.9166(8) 0.9071(7) 0.2140(4)
O16 O 0.5460(6) 0.5860(5) 0.2803(3)
H3 H 0.4844 0.5996 0.2523
H4 H 0.5765 0.5118 0.2941
C1 C 0.3799(7) 0.9095(6) 0.1955(4)
C2 C 0.2949(7) 1.0300(6) 0.2182(3)
C3 C 0.1604(7) 1.1021(6) 0.1972(3)
C4 C 0.0845(8) 1.2107(6) 0.2232(4)
H5 H -0.0055 1.2567 0.2101
C5 C 0.1421(9) 1.2513(7) 0.2690(4)
H6 H 0.0910 1.3248 0.2866
C6 C 0.2759(9) 1.1825(7) 0.2885(4)
H7 H 0.3162 1.2115 0.3178
C7 C 0.3492(8) 1.0720(7) 0.2650(4)
H8 H 0.4365 1.0245 0.2806
C8 C -0.0044(8) 1.1293(7) 0.1149(4)
H9 H 0.0068 1.2039 0.0976
H10 H -0.0937 1.1470 0.1444
C9 C 0.1076(8) 1.0404(7) 0.0020(4)
C10 C -0.0022(7) 1.0616(6) 0.0552(4)
C11 C -0.1090(8) 1.0212(7) 0.0519(4)
H11 H -0.1839 1.0361 0.0870
C12 C 0.3184(9) 1.0726(9) -0.0477(5)
H12 H 0.3757 0.9903 -0.0537
H13 H 0.3770 1.1126 -0.0384
H14 H 0.2744 1.1100 -0.0892
C13 C 0.4197(8) 0.7660(6) 0.1112(4)
H15 H 0.5108 0.7217 0.1288
H16 H 0.4358 0.7732 0.0609
C14 C 0.3240(8) 0.6984(6) 0.1336(4)
C15 C 0.2095(9) 0.7170(8) 0.0985(5)
H17 H 0.1908 0.7714 0.0595
C16 C 0.1238(10) 0.6544(9) 0.1218(6)
H18 H 0.0454 0.6668 0.0990
C17 C 0.1532(10) 0.5748(10) 0.1777(6)
H19 H 0.0973 0.5304 0.1938
C18 C 0.2674(10) 0.5615(9) 0.2098(5)
H20 H 0.2869 0.5072 0.2488
C19 C 0.8600(7) 0.4815(6) 0.4052(4)
C20 C 1.0092(7) 0.4632(6) 0.4131(3)
C21 C 1.1101(7) 0.3559(6) 0.4398(4)
C22 C 1.2460(7) 0.3474(6) 0.4472(4)
H21 H 1.3117 0.2763 0.4651
C23 C 1.2823(8) 0.4453(7) 0.4278(4)
H22 H 1.3736 0.4395 0.4321
C24 C 1.1852(8) 0.5520(7) 0.4020(4)
H23 H 1.2104 0.6181 0.3896
C25 C 1.0511(8) 0.5595(6) 0.3949(4)
H24 H 0.9862 0.6315 0.3774
C26 C 1.1620(8) 0.1498(6) 0.4886(5)
H25 H 1.1838 0.1594 0.5334
H26 H 1.2501 0.1176 0.4588
C27 C 0.9819(8) 0.0722(6) 0.5529(5)
C28 C 1.0802(8) 0.0703(6) 0.4962(5)
C29 C 1.0974(8) -0.0016(7) 0.4433(5)
H27 H 1.1631 -0.0021 0.4049
C30 C 0.8785(11) 0.1393(9) 0.6651(5)
H28 H 0.7841 0.1578 0.6539
H29 H 0.8770 0.1962 0.6948
H30 H 0.9135 0.0605 0.6884
C31 C 0.6723(8) 0.3999(7) 0.4283(4)
H31 H 0.6124 0.4796 0.4116
H32 H 0.6345 0.3834 0.4753
C32 C 0.6694(8) 0.3117(7) 0.3835(5)
C33 C 0.6370(12) 0.2720(9) 0.2783(6)
H33 H 0.6131 0.3007 0.2335
C34 C 0.6683(12) 0.1549(9) 0.2964(7)
H34 H 0.6685 0.1036 0.2654
C35 C 0.6993(13) 0.1159(10) 0.3619(7)
H35 H 0.7199 0.0359 0.3773
C36 C 0.7006(12) 0.1939(8) 0.4066(6)
H36 H 0.7225 0.1668 0.4518
N1A N -0.3603(6) 1.1165(5) -0.1357(3)
H1A H -0.3081 1.0589 -0.1092
N2A N -0.3530(7) 1.3796(6) -0.1894(4)
O1A O -0.4687(5) 1.1643(4) -0.2323(3)
O2A O -0.1114(5) 0.9462(4) -0.1529(3)
O3A O -0.2124(6) 0.9200(5) -0.0085(3)
C1A C -0.3799(7) 1.0905(6) -0.1955(4)
C2A C -0.2949(7) 0.9700(6) -0.2182(3)
C3A C -0.1604(7) 0.8979(6) -0.1972(3)
C4A C -0.0845(8) 0.7893(6) -0.2232(4)
H5A H 0.0055 0.7433 -0.2101
C5A C -0.1421(9) 0.7487(7) -0.2690(4)
H6A H -0.0910 0.6752 -0.2866
C6A C -0.2759(9) 0.8175(7) -0.2885(4)
H7A H -0.3162 0.7885 -0.3178
C7A C -0.3492(8) 0.9280(7) -0.2650(4)
H8A H -0.4365 0.9755 -0.2806
C8A C 0.0044(8) 0.8707(7) -0.1149(4)
H9A H -0.0068 0.7961 -0.0976
H10A H 0.0937 0.8530 -0.1444
C9A C -0.1076(8) 0.9596(7) -0.0020(4)
C10A C 0.0022(7) 0.9384(6) -0.0552(4)
C11A C 0.1090(8) 0.9788(7) -0.0519(4)
H11A H 0.1839 0.9639 -0.0870
C12A C -0.3184(9) 0.9274(9) 0.0477(5)
H12A H -0.3757 1.0097 0.0537
H13A H -0.3770 0.8874 0.0384
H14A H -0.2744 0.8900 0.0892
C13A C -0.4197(8) 1.2340(6) -0.1112(4)
H15A H -0.5108 1.2783 -0.1288
H16A H -0.4358 1.2268 -0.0609
C14A C -0.3240(8) 1.3016(6) -0.1336(4)
C15A C -0.2095(9) 1.2830(8) -0.0985(5)
H17A H -0.1908 1.2286 -0.0595
C16A C -0.1238(10) 1.3456(9) -0.1218(6)
H18A H -0.0454 1.3332 -0.0990
C17A C -0.1532(10) 1.4252(10) -0.1777(6)
H19A H -0.0973 1.4696 -0.1938
C18A C -0.2674(10) 1.4385(9) -0.2098(5)
H20A H -0.2869 1.4928 -0.2488
N3A N 1.1851(6) -0.3949(5) 0.5715(3)
H2A H 1.1244 -0.3294 0.5546
N4A N 1.3625(8) -0.3497(6) 0.6808(4)
O4A O 1.2192(5) -0.5782(4) 0.6220(3)
O5A O 0.9309(5) -0.2624(4) 0.5423(3)
O6A O 1.0309(6) -0.1443(5) 0.3971(3)
C19A C 1.1400(7) -0.4815(6) 0.5948(4)
C20A C 0.9908(7) -0.4632(6) 0.5869(3)
C21A C 0.8899(7) -0.3559(6) 0.5602(4)
C22A C 0.7540(7) -0.3474(6) 0.5528(4)
H21A H 0.6883 -0.2763 0.5349
C23A C 0.7177(8) -0.4453(7) 0.5722(4)
H22A H 0.6264 -0.4395 0.5679
C24A C 0.8148(8) -0.5520(7) 0.5980(4)
H23A H 0.7896 -0.6181 0.6104
C25A C 0.9489(8) -0.5595(6) 0.6051(4)
H24A H 1.0138 -0.6315 0.6226
C26A C 0.8380(8) -0.1498(6) 0.5114(5)
H25A H 0.8162 -0.1594 0.4666
H26A H 0.7499 -0.1176 0.5412
C27A C 1.0181(8) -0.0722(6) 0.4471(5)
C28A C 0.9198(8) -0.0703(6) 0.5038(5)
C29A C 0.9026(8) 0.0016(7) 0.5567(5)
H27A H 0.8369 0.0021 0.5951
C30A C 1.1215(11) -0.1393(9) 0.3349(5)
H28A H 1.2159 -0.1578 0.3461
H29A H 1.1230 -0.1962 0.3052
H30A H 1.0865 -0.0605 0.3116
C31A C 1.3277(8) -0.3999(7) 0.5717(4)
H31A H 1.3876 -0.4796 0.5884
H32A H 1.3655 -0.3834 0.5247
C32A C 1.3306(8) -0.3117(7) 0.6165(5)
C33A C 1.3630(12) -0.2720(9) 0.7217(6)
H33A H 1.3869 -0.3007 0.7665
C34A C 1.3317(12) -0.1549(9) 0.7036(7)
H34A H 1.3315 -0.1036 0.7346
C35A C 1.3007(13) -0.1159(10) 0.6381(7)
H35A H 1.2801 -0.0359 0.6227
C36A C 1.2994(12) -0.1939(8) 0.5934(6)
H36A H 1.2775 -0.1668 0.5482
Eu1A Eu -0.67044(3) 1.29074(3) -0.286341(18)
N5A N -0.8301(7) 1.4505(6) -0.1784(4)
N6A N -0.5268(9) 1.1581(7) -0.4073(4)
N7A N -0.8424(8) 1.1499(6) -0.2340(3)
O7A O -0.7484(6) 1.3442(5) -0.1639(3)
O8A O -0.8523(6) 1.4810(5) -0.2409(3)
O9A O -0.8852(8) 1.5200(6) -0.1344(4)
O10A O -0.4867(6) 1.2357(6) -0.3894(3)
O11A O -0.6315(7) 1.1466(5) -0.3701(3)
O12A O -0.4720(10) 1.1050(9) -0.4570(5)
O13A O -0.8914(6) 1.2510(5) -0.2699(3)
O14A O -0.7161(6) 1.1165(5) -0.2223(3)
O15A O -0.9166(8) 1.0929(7) -0.2140(4)
O16A O -0.5460(6) 1.4140(5) -0.2803(3)
H3A H -0.4844 1.4004 -0.2523
H4A H -0.5765 1.4882 -0.2941
Eu1A_2 Eu 1.32956(3) -0.70926(3) 0.713659(18)
O4A_2 O -0.7808(5) 1.4218(4) -0.3780(3)
O17 O 0.4237(9) 0.3705(7) 0.0623(5)
O18 O 0.5840(13) 0.2303(10) 0.1179(7)
C37 C 0.5498(15) 0.3261(11) 0.0878(6)
C38 C 0.6276(13) 0.4048(11) 0.0761(7)
H37 H 0.5892 0.4642 0.1089
H38 H 0.6194 0.4432 0.0299
H39 H 0.7259 0.3593 0.0818
C39 C 0.3347(15) 0.3018(12) 0.0744(7)
H40 H 0.3004 0.2965 0.1232
H41 H 0.3877 0.2216 0.0606
C40 C 0.2150(14) 0.3636(12) 0.0327(7)
H42 H 0.1619 0.4420 0.0477
H43 H 0.1544 0.3190 0.0385
H44 H 0.2504 0.3701 -0.0153
loop_
_geom_bond_atom_site_label_1
_geom_bond_atom_site_label_2
_geom_bond_site_symmetry_1
_geom_bond_site_symmetry_2
Eu1 O1 1_555 1_555
N1 H1 1_555 1_555
N2 C14 1_555 1_555
N3 H2 1_555 1_555
N4 C32 1_555 1_555
N5 O7 1_555 1_555
N6 O10 1_555 1_555
N7 O13 1_555 1_555
O1 C1 1_555 1_555
O2 C3 1_555 1_555
O3 C9 1_555 1_555
O4 Eu1 1_555 1_555
O5 C21 1_555 1_555
O6 C27 1_555 1_555
O7 Eu1 1_555 1_555
O8 Eu1 1_555 1_555
O9 N5 1_555 1_555
O10 Eu1 1_555 1_555
O11 Eu1 1_555 1_555
O12 N6 1_555 1_555
O13 Eu1 1_555 1_555
O14 Eu1 1_555 1_555
O15 N7 1_555 1_555
O16 Eu1 1_555 1_555
H3 O16 1_555 1_555
H4 O16 1_555 1_555
C1 N1 1_555 1_555
C2 C1 1_555 1_555
C3 C2 1_555 1_555
C4 C3 1_555 1_555
H5 C4 1_555 1_555
C5 C4 1_555 1_555
H6 C5 1_555 1_555
C6 C5 1_555 1_555
H7 C6 1_555 1_555
C7 C2 1_555 1_555
H8 C7 1_555 1_555
C8 O2 1_555 1_555
H9 C8 1_555 1_555
H10 C8 1_555 1_555
C9 C10 1_555 1_555
C10 C8 1_555 1_555
C11 C10 1_555 1_555
H11 C11 1_555 1_555
C12 O3 1_555 1_555
H12 C12 1_555 1_555
H13 C12 1_555 1_555
H14 C12 1_555 1_555
C13 N1 1_555 1_555
H15 C13 1_555 1_555
H16 C13 1_555 1_555
C14 C13 1_555 1_555
C15 C14 1_555 1_555
H17 C15 1_555 1_555
C16 C15 1_555 1_555
H18 C16 1_555 1_555
C17 C16 1_555 1_555
H19 C17 1_555 1_555
C18 N2 1_555 1_555
H20 C18 1_555 1_555
C19 N3 1_555 1_555
C20 C19 1_555 1_555
C21 C20 1_555 1_555
C22 C21 1_555 1_555
H21 C22 1_555 1_555
C23 C22 1_555 1_555
H22 C23 1_555 1_555
C24 C23 1_555 1_555
H23 C24 1_555 1_555
C25 C20 1_555 1_555
H24 C25 1_555 1_555
C26 O5 1_555 1_555
H25 C26 1_555 1_555
H26 C26 1_555 1_555
C27 C28 1_555 1_555
C28 C26 1_555 1_555
C29 C28 1_555 1_555
H27 C29 1_555 1_555
C30 O6 1_555 1_555
H28 C30 1_555 1_555
H29 C30 1_555 1_555
H30 C30 1_555 1_555
C31 N3 1_555 1_555
H31 C31 1_555 1_555
H32 C31 1_555 1_555
C32 C31 1_555 1_555
C33 N4 1_555 1_555
H33 C33 1_555 1_555
C34 C33 1_555 1_555
H34 C34 1_555 1_555
C35 C34 1_555 1_555
H35 C35 1_555 1_555
C36 C32 1_555 1_555
H36 C36 1_555 1_555
O17 C37 1_555 1_555
O18 C37 1_555 1_555
C37 C38 1_555 1_555
C38 H37 1_555 1_555
H38 C38 1_555 1_555
H39 C38 1_555 1_555
C39 O17 1_555 1_555
H40 C39 1_555 1_555
H41 C39 1_555 1_555
C40 C39 1_555 1_555
H42 C40 1_555 1_555
H43 C40 1_555 1_555
H44 C40 1_555 1_555
N1A H1A 1_555 1_555
N2A C14A 1_555 1_555
O1A C1A 1_555 1_555
O2A C3A 1_555 1_555
O3A C9A 1_555 1_555
C1A N1A 1_555 1_555
C2A C1A 1_555 1_555
C3A C2A 1_555 1_555
C4A C3A 1_555 1_555
H5A C4A 1_555 1_555
C5A C4A 1_555 1_555
H6A C5A 1_555 1_555
C6A C5A 1_555 1_555
H7A C6A 1_555 1_555
C7A C2A 1_555 1_555
H8A C7A 1_555 1_555
C8A O2A 1_555 1_555
H9A C8A 1_555 1_555
H10A C8A 1_555 1_555
C9A C11 1_555 1_555
C10A C8A 1_555 1_555
C11A C9 1_555 1_555
H11A C11A 1_555 1_555
C12A O3A 1_555 1_555
H12A C12A 1_555 1_555
H13A C12A 1_555 1_555
H14A C12A 1_555 1_555
C13A N1A 1_555 1_555
H15A C13A 1_555 1_555
H16A C13A 1_555 1_555
C14A C13A 1_555 1_555
C15A C14A 1_555 1_555
H17A C15A 1_555 1_555
C16A C15A 1_555 1_555
H18A C16A 1_555 1_555
C17A C16A 1_555 1_555
H19A C17A 1_555 1_555
C18A N2A 1_555 1_555
H20A C18A 1_555 1_555
N3A H2A 1_555 1_555
N4A C32A 1_555 1_555
O4A C19A 1_555 1_555
O5A C21A 1_555 1_555
O6A C27A 1_555 1_555
C19A N3A 1_555 1_555
C20A C19A 1_555 1_555
C21A C20A 1_555 1_555
C22A C21A 1_555 1_555
H21A C22A 1_555 1_555
C23A C22A 1_555 1_555
H22A C23A 1_555 1_555
C24A C23A 1_555 1_555
H23A C24A 1_555 1_555
C25A C20A 1_555 1_555
H24A C25A 1_555 1_555
C26A O5A 1_555 1_555
H25A C26A 1_555 1_555
H26A C26A 1_555 1_555
C27A C29 1_555 1_555
C28A C26A 1_555 1_555
C29A C27 1_555 1_555
H27A C29A 1_555 1_555
C30A O6A 1_555 1_555
H28A C30A 1_555 1_555
H29A C30A 1_555 1_555
H30A C30A 1_555 1_555
C31A N3A 1_555 1_555
H31A C31A 1_555 1_555
H32A C31A 1_555 1_555
C32A C31A 1_555 1_555
C33A N4A 1_555 1_555
H33A C33A 1_555 1_555
C34A C33A 1_555 1_555
H34A C34A 1_555 1_555
C35A C34A 1_555 1_555
H35A C35A 1_555 1_555
C36A C32A 1_555 1_555
H36A C36A 1_555 1_555
Eu1A O1A 1_555 1_555
N5A O7A 1_555 1_555
N6A O10A 1_555 1_555
N7A O13A 1_555 1_555
O7A Eu1A 1_555 1_555
O8A Eu1A 1_555 1_555
O9A N5A 1_555 1_555
O10A Eu1A 1_555 1_555
O11A Eu1A 1_555 1_555
O12A N6A 1_555 1_555
O13A Eu1A 1_555 1_555
O14A Eu1A 1_555 1_555
O15A N7A 1_555 1_555
O16A Eu1A 1_555 1_555
H3A O16A 1_555 1_555
H4A O16A 1_555 1_555
Eu1A_2 O4A 1_555 1_555
O4A_2 Eu1A 1_555 1_555
N5 O8 1_555 1_555
N6 O11 1_555 1_555
N7 O14 1_555 1_555
O4 C19 1_555 1_555
C6 C7 1_555 1_555
C17 C18 1_555 1_555
C24 C25 1_555 1_555
C35 C36 1_555 1_555
C6A C7A 1_555 1_555
C9A C10A 1_555 1_555
C10A C11A 1_555 1_555
C17A C18A 1_555 1_555
C24A C25A 1_555 1_555
C27A C28A 1_555 1_555
C28A C29A 1_555 1_555
C35A C36A 1_555 1_555
N5A O8A 1_555 1_555
N6A O11A 1_555 1_555
N7A O14A 1_555 1_555

#END
