
#######################################################################
#
#                 Cambridge Crystallographic Data Centre
#                                CCDC 
#
#######################################################################
#
# If this CIF has been generated from an entry in the Cambridge 
# Structural Database, then it will include bibliographic, chemical, 
# crystal, experimental, refinement or atomic coordinate data resulting 
# from the CCDC's data processing and validation procedures.
#
#######################################################################

data_BIJZOL
_symmetry_cell_setting           triclinic
_symmetry_space_group_name_H-M   'P -1'
_symmetry_Int_Tables_number      2
_space_group_name_Hall           '-P 1'
loop_
_symmetry_equiv_pos_site_id
_symmetry_equiv_pos_as_xyz
1 x,y,z
2 -x,-y,-z
_cell_length_a                   10.2946(13)
_cell_length_b                   12.2250(16)
_cell_length_c                   19.575(3)
_cell_angle_alpha                82.056(2)
_cell_angle_beta                 81.464(3)
_cell_angle_gamma                67.014(2)
_cell_volume                     2234.09
loop_
_atom_site_label
_atom_site_type_symbol
_atom_site_fract_x
_atom_site_fract_y
_atom_site_fract_z
Gd1 Gd 0.170937(17) 0.209308(14) 0.286055(9)
C1 C -0.1820(5) 0.5724(5) -0.0475(3)
H1 H -0.1362 0.4914 -0.0592
H2 H -0.1130 0.5988 -0.0350
H3 H -0.2256 0.6224 -0.0867
C2 C -0.3916(4) 0.5393(3) 0.0020(2)
C3 C -0.5028(4) 0.5623(3) 0.05521(19)
C4 C -0.6096(4) 0.5216(3) 0.0527(2)
H4 H -0.6832 0.5353 0.0883
C5 C -0.5057(4) 0.6288(3) 0.1144(2)
H5 H -0.4957 0.7037 0.0973
H6 H -0.5947 0.6457 0.1437
C6 C -0.3391(4) 0.6011(3) 0.19711(18)
C7 C -0.4143(4) 0.7112(3) 0.2232(2)
H7 H -0.5039 0.7579 0.2097
C8 C -0.3572(5) 0.7512(4) 0.2685(2)
H8 H -0.4084 0.8251 0.2856
C9 C -0.2244(5) 0.6832(4) 0.2894(2)
H9 H -0.1853 0.7115 0.3195
C10 C -0.1508(4) 0.5729(3) 0.2649(2)
H10 H -0.0623 0.5263 0.2797
C11 C -0.2048(3) 0.5295(3) 0.21881(18)
C12 C -0.1189(3) 0.4085(3) 0.19560(19)
C13 C -0.0786(4) 0.2648(3) 0.1109(2)
H11 H 0.0121 0.2208 0.1290
H12 H -0.0621 0.2717 0.0607
C14 C -0.1749(4) 0.1974(3) 0.1333(2)
C15 C -0.2905(5) 0.2165(4) 0.0983(3)
H13 H -0.3101 0.2710 0.0595
C16 C -0.3759(5) 0.1530(5) 0.1222(3)
H14 H -0.4550 0.1656 0.1000
C17 C -0.3443(5) 0.0723(5) 0.1782(3)
H15 H -0.3986 0.0267 0.1942
C18 C -0.2305(5) 0.0604(5) 0.2101(3)
H16 H -0.2101 0.0066 0.2493
C19 C 0.1376(6) -0.2276(5) 0.2780(3)
H17 H 0.1157 -0.1999 0.2328
C20 C 0.1661(6) -0.3445(5) 0.2983(4)
H18 H 0.1664 -0.3963 0.2676
C21 C 0.1941(7) -0.3829(5) 0.3644(5)
H19 H 0.2117 -0.4620 0.3806
C22 C 0.6102(3) -0.1435(3) 0.43966(18)
C23 C 0.1963(6) -0.3042(4) 0.4078(4)
H20 H 0.2165 -0.3300 0.4534
C24 C 0.1689(4) -0.1885(3) 0.3834(2)
C25 C 0.1713(4) -0.0991(4) 0.4280(2)
H21 H 0.1122 -0.0195 0.4106
H22 H 0.1328 -0.1144 0.4750
C26 C 0.3601(3) -0.0179(3) 0.40488(18)
C27 C 0.5102(3) -0.0371(3) 0.41327(17)
C28 C 0.5507(4) 0.0603(3) 0.39501(19)
H23 H 0.4856 0.1323 0.3775
C29 C 0.6855(4) 0.0518(3) 0.4024(2)
H24 H 0.7110 0.1175 0.3901
C30 C 0.7817(4) -0.0543(3) 0.4280(2)
H25 H 0.8728 -0.0602 0.4326
C31 C 0.7459(3) -0.1519(3) 0.4471(2)
H26 H 0.8120 -0.2231 0.4648
C32 C 0.6614(4) -0.3491(3) 0.4884(2)
H27 H 0.6825 -0.3394 0.5333
H28 H 0.7496 -0.3812 0.4588
C33 C 0.5961(4) -0.4997(3) 0.4435(2)
H29 H 0.6609 -0.4991 0.4050
C34 C 0.5791(4) -0.4290(3) 0.4956(2)
C35 C 0.4809(4) -0.4279(3) 0.5533(2)
C36 C 0.3805(6) -0.3617(5) 0.6654(3)
H30 H 0.2854 -0.3413 0.6546
H31 H 0.3813 -0.3068 0.6958
H32 H 0.4150 -0.4412 0.6877
N1 N 0.3157(3) -0.1055(3) 0.42840(17)
N2 N -0.1401(3) 0.3840(3) 0.13557(16)
N3 N 0.1391(4) -0.1496(3) 0.3194(2)
N4 N -0.1463(4) 0.1205(3) 0.18915(19)
N5 N 0.0296(4) 0.3397(4) 0.4061(2)
N6 N 0.3428(4) 0.3486(3) 0.23415(18)
N7 N 0.3308(3) 0.0493(3) 0.1791(2)
O1 O -0.0297(3) 0.3344(2) 0.23248(14)
O2 O 0.2801(3) 0.0796(2) 0.37798(14)
O3 O -0.3890(2) 0.5541(2) 0.15300(14)
O4 O 0.5681(2) -0.2375(2) 0.45721(15)
O5 O 0.4692(3) -0.3554(3) 0.60314(17)
O6 O -0.2869(3) 0.5792(3) 0.00907(15)
O7 O -0.0136(3) 0.2655(3) 0.38787(17)
O8 O 0.1341(4) 0.3521(3) 0.36951(18)
O9 O -0.0271(5) 0.3951(5) 0.4565(2)
O10 O 0.4157(4) 0.4053(3) 0.21324(19)
O11 O 0.3907(3) 0.2478(2) 0.26971(15)
O12 O 0.2151(3) 0.3836(2) 0.22225(15)
O13 O 0.3528(3) 0.0195(2) 0.24156(16)
O14 O 0.2491(3) 0.1565(2) 0.16443(15)
O15 O 0.3858(4) -0.0189(3) 0.13452(19)
O16 O 0.0481(3) 0.0860(3) 0.28008(18)
H33 H -0.013(4) 0.100(3) 0.2515(19)
H34 H 0.096(4) 0.011(2) 0.288(3)
C1A C -0.8180(5) 0.4276(5) 0.0475(3)
H1A H -0.8638 0.5086 0.0592
H2A H -0.8870 0.4012 0.0350
H3A H -0.7744 0.3776 0.0867
C2A C -0.6084(4) 0.4607(3) -0.0020(2)
C3A C -0.4972(4) 0.4377(3) -0.05521(19)
C4A C -0.3904(4) 0.4784(3) -0.0527(2)
H4A H -0.3168 0.4647 -0.0883
C5A C -0.4943(4) 0.3712(3) -0.1144(2)
H5A H -0.5043 0.2963 -0.0973
H6A H -0.4053 0.3543 -0.1437
C6A C -0.6609(4) 0.3989(3) -0.19711(18)
C7A C -0.5857(4) 0.2888(3) -0.2232(2)
H7A H -0.4961 0.2421 -0.2097
C8A C -0.6428(5) 0.2488(4) -0.2685(2)
H8A H -0.5916 0.1749 -0.2856
C9A C -0.7756(5) 0.3168(4) -0.2894(2)
H9A H -0.8147 0.2885 -0.3195
C10A C -0.8492(4) 0.4271(3) -0.2649(2)
H10A H -0.9377 0.4737 -0.2797
C11A C -0.7952(3) 0.4705(3) -0.21881(18)
C12A C -0.8811(3) 0.5915(3) -0.19560(19)
C13A C -0.9214(4) 0.7352(3) -0.1109(2)
H11A H -1.0121 0.7792 -0.1290
H12A H -0.9379 0.7283 -0.0607
C14A C -0.8251(4) 0.8026(3) -0.1333(2)
C15A C -0.7095(5) 0.7835(4) -0.0983(3)
H13A H -0.6899 0.7290 -0.0595
C16A C -0.6241(5) 0.8470(5) -0.1222(3)
H14A H -0.5450 0.8344 -0.1000
C17A C -0.6557(5) 0.9277(5) -0.1782(3)
H15A H -0.6014 0.9733 -0.1942
C18A C -0.7695(5) 0.9396(5) -0.2101(3)
H16A H -0.7899 0.9934 -0.2493
N2A N -0.8599(3) 0.6160(3) -0.13557(16)
N4A N -0.8537(4) 0.8795(3) -0.18915(19)
O1A O -0.9703(3) 0.6656(2) -0.23248(14)
O3A O -0.6110(2) 0.4459(2) -0.15300(14)
O6A O -0.7131(3) 0.4208(3) -0.00907(15)
C19A C 0.8624(6) -0.7724(5) 0.7220(3)
H17A H 0.8843 -0.8001 0.7672
C20A C 0.8339(6) -0.6555(5) 0.7017(4)
H18A H 0.8336 -0.6037 0.7324
C21A C 0.8059(7) -0.6171(5) 0.6356(5)
H19A H 0.7883 -0.5380 0.6194
C22A C 0.3898(3) -0.8565(3) 0.56034(18)
C23A C 0.8037(6) -0.6958(4) 0.5922(4)
H20A H 0.7835 -0.6700 0.5466
C24A C 0.8311(4) -0.8115(3) 0.6166(2)
C25A C 0.8287(4) -0.9009(4) 0.5720(2)
H21A H 0.8878 -0.9805 0.5894
H22A H 0.8672 -0.8856 0.5250
C26A C 0.6399(3) -0.9821(3) 0.59512(18)
C27A C 0.4898(3) -0.9629(3) 0.58673(17)
C28A C 0.4493(4) -1.0603(3) 0.60499(19)
H23A H 0.5144 -1.1323 0.6225
C29A C 0.3145(4) -1.0518(3) 0.5976(2)
H24A H 0.2890 -1.1175 0.6099
C30A C 0.2183(4) -0.9457(3) 0.5720(2)
H25A H 0.1272 -0.9398 0.5674
C31A C 0.2541(3) -0.8481(3) 0.5529(2)
H26A H 0.1880 -0.7769 0.5352
C32A C 0.3386(4) -0.6509(3) 0.5116(2)
H27A H 0.3175 -0.6606 0.4667
H28A H 0.2504 -0.6188 0.5412
C33A C 0.4039(4) -0.5003(3) 0.5565(2)
H29A H 0.3391 -0.5009 0.5950
C34A C 0.4209(4) -0.5710(3) 0.5044(2)
C35A C 0.5191(4) -0.5721(3) 0.4467(2)
C36A C 0.6195(6) -0.6383(5) 0.3346(3)
H30A H 0.7146 -0.6587 0.3454
H31A H 0.6187 -0.6932 0.3042
H32A H 0.5850 -0.5588 0.3123
N1A N 0.6843(3) -0.8945(3) 0.57160(17)
N3A N 0.8609(4) -0.8504(3) 0.6806(2)
O2A O 0.7199(3) -1.0796(2) 0.62202(14)
O4A O 0.4319(2) -0.7625(2) 0.54279(15)
O5A O 0.5308(3) -0.6446(3) 0.39686(17)
Gd1A Gd -1.170937(17) 0.790692(14) -0.286055(9)
N5A N -1.0296(4) 0.6603(4) -0.4061(2)
N6A N -1.3428(4) 0.6514(3) -0.23415(18)
N7A N -1.3308(3) 0.9507(3) -0.1791(2)
O7A O -0.9864(3) 0.7345(3) -0.38787(17)
O8A O -1.1341(4) 0.6479(3) -0.36951(18)
O9A O -0.9729(5) 0.6049(5) -0.4565(2)
O10A O -1.4157(4) 0.5947(3) -0.21324(19)
O11A O -1.3907(3) 0.7522(2) -0.26971(15)
O12A O -1.2151(3) 0.6164(2) -0.22225(15)
O13A O -1.3528(3) 0.9805(2) -0.24156(16)
O14A O -1.2491(3) 0.8435(2) -0.16443(15)
O15A O -1.3858(4) 1.0189(3) -0.13452(19)
O16A O -1.0481(3) 0.9140(3) -0.28008(18)
H33A H -0.987(4) 0.900(3) -0.2515(19)
H34A H -1.096(4) 0.989(2) -0.288(3)
Gd1A_2 Gd 0.829063(17) -1.209308(14) 0.713945(9)
O2A_2 O -1.2801(3) 0.9204(2) -0.37798(14)
C37 C 0.7149(7) 0.8637(7) 0.0321(4)
H35 H 0.6685 0.9457 0.0419
H36 H 0.6480 0.8252 0.0420
H37 H 0.7515 0.8597 -0.0159
C38 C 0.8333(8) 0.8028(7) 0.0760(4)
H38 H 0.7969 0.8000 0.1246
H39 H 0.8863 0.7218 0.0638
C39 C 1.0485(7) 0.8270(6) 0.0866(3)
C40 C 1.1285(6) 0.9058(6) 0.0754(3)
H40 H 1.1102 0.9489 0.1155
H41 H 1.0994 0.9611 0.0355
H42 H 1.2281 0.8588 0.0679
O17 O 1.0867(7) 0.7306(5) 0.1169(4)
O18 O 0.9239(5) 0.8710(4) 0.0635(3)
loop_
_geom_bond_atom_site_label_1
_geom_bond_atom_site_label_2
_geom_bond_site_symmetry_1
_geom_bond_site_symmetry_2
Gd1 O1 1_555 1_555
C1 H1 1_555 1_555
H2 C1 1_555 1_555
H3 C1 1_555 1_555
C2 C3 1_555 1_555
C3 C4 1_555 1_555
C4 H4 1_555 1_555
C5 C3 1_555 1_555
H5 C5 1_555 1_555
H6 C5 1_555 1_555
C6 C7 1_555 1_555
C7 H7 1_555 1_555
C8 C7 1_555 1_555
H8 C8 1_555 1_555
C9 C8 1_555 1_555
H9 C9 1_555 1_555
C10 C9 1_555 1_555
H10 C10 1_555 1_555
C11 C6 1_555 1_555
C12 C11 1_555 1_555
C13 H11 1_555 1_555
H12 C13 1_555 1_555
C14 C13 1_555 1_555
C15 C14 1_555 1_555
H13 C15 1_555 1_555
C16 C15 1_555 1_555
H14 C16 1_555 1_555
C17 C16 1_555 1_555
H15 C17 1_555 1_555
C18 C17 1_555 1_555
H16 C18 1_555 1_555
C19 H17 1_555 1_555
C20 C19 1_555 1_555
H18 C20 1_555 1_555
C21 C20 1_555 1_555
H19 C21 1_555 1_555
C22 C27 1_555 1_555
C23 C21 1_555 1_555
H20 C23 1_555 1_555
C24 C23 1_555 1_555
C25 C24 1_555 1_555
H21 C25 1_555 1_555
H22 C25 1_555 1_555
C26 C27 1_555 1_555
C27 C28 1_555 1_555
C28 H23 1_555 1_555
C29 C28 1_555 1_555
H24 C29 1_555 1_555
C30 C29 1_555 1_555
H25 C30 1_555 1_555
C31 C22 1_555 1_555
H26 C31 1_555 1_555
C32 H27 1_555 1_555
H28 C32 1_555 1_555
C33 H29 1_555 1_555
C34 C32 1_555 1_555
C35 C34 1_555 1_555
C36 H30 1_555 1_555
H31 C36 1_555 1_555
H32 C36 1_555 1_555
N1 C25 1_555 1_555
N2 C12 1_555 1_555
N3 C19 1_555 1_555
N4 C14 1_555 1_555
N5 O7 1_555 1_555
N6 O10 1_555 1_555
N7 O13 1_555 1_555
O1 C12 1_555 1_555
O2 Gd1 1_555 1_555
O3 C5 1_555 1_555
O4 C22 1_555 1_555
O5 C35 1_555 1_555
O6 C1 1_555 1_555
O7 Gd1 1_555 1_555
O8 Gd1 1_555 1_555
O9 N5 1_555 1_555
O11 Gd1 1_555 1_555
O12 Gd1 1_555 1_555
O13 Gd1 1_555 1_555
O14 Gd1 1_555 1_555
O15 N7 1_555 1_555
O16 Gd1 1_555 1_555
H33 O16 1_555 1_555
H34 O16 1_555 1_555
C37 H35 1_555 1_555
H36 C37 1_555 1_555
H37 C37 1_555 1_555
C38 C37 1_555 1_555
H38 C38 1_555 1_555
H39 C38 1_555 1_555
C39 C40 1_555 1_555
C40 H40 1_555 1_555
H41 C40 1_555 1_555
H42 C40 1_555 1_555
O17 C39 1_555 1_555
O18 C38 1_555 1_555
C1A H1A 1_555 1_555
H2A C1A 1_555 1_555
H3A C1A 1_555 1_555
C2A C4 1_555 1_555
C3A C2A 1_555 1_555
C4A C2 1_555 1_555
H4A C4A 1_555 1_555
C5A C3A 1_555 1_555
H5A C5A 1_555 1_555
H6A C5A 1_555 1_555
C6A C7A 1_555 1_555
C7A H7A 1_555 1_555
C8A C7A 1_555 1_555
H8A C8A 1_555 1_555
C9A C8A 1_555 1_555
H9A C9A 1_555 1_555
C10A C9A 1_555 1_555
H10A C10A 1_555 1_555
C11A C6A 1_555 1_555
C12A C11A 1_555 1_555
C13A H11A 1_555 1_555
H12A C13A 1_555 1_555
C14A C13A 1_555 1_555
C15A C14A 1_555 1_555
H13A C15A 1_555 1_555
C16A C15A 1_555 1_555
H14A C16A 1_555 1_555
C17A C16A 1_555 1_555
H15A C17A 1_555 1_555
C18A C17A 1_555 1_555
H16A C18A 1_555 1_555
N2A C12A 1_555 1_555
N4A C14A 1_555 1_555
O1A C12A 1_555 1_555
O3A C5A 1_555 1_555
O6A C1A 1_555 1_555
C19A H17A 1_555 1_555
C20A C19A 1_555 1_555
H18A C20A 1_555 1_555
C21A C20A 1_555 1_555
H19A C21A 1_555 1_555
C22A C27A 1_555 1_555
C23A C21A 1_555 1_555
H20A C23A 1_555 1_555
C24A C23A 1_555 1_555
C25A C24A 1_555 1_555
H21A C25A 1_555 1_555
H22A C25A 1_555 1_555
C26A C27A 1_555 1_555
C27A C28A 1_555 1_555
C28A H23A 1_555 1_555
C29A C28A 1_555 1_555
H24A C29A 1_555 1_555
C30A C29A 1_555 1_555
H25A C30A 1_555 1_555
C31A C22A 1_555 1_555
H26A C31A 1_555 1_555
C32A H27A 1_555 1_555
H28A C32A 1_555 1_555
C33A C35 1_555 1_555
H29A C33A 1_555 1_555
C34A C32A 1_555 1_555
C35A C33 1_555 1_555
C36A H30A 1_555 1_555
H31A C36A 1_555 1_555
H32A C36A 1_555 1_555
N1A C25A 1_555 1_555
N3A C19A 1_555 1_555
O2A C26A 1_555 1_555
O4A C22A 1_555 1_555
O5A C35A 1_555 1_555
Gd1A O1A 1_555 1_555
N5A O7A 1_555 1_555
N6A O10A 1_555 1_555
N7A O13A 1_555 1_555
O7A Gd1A 1_555 1_555
O8A Gd1A 1_555 1_555
O9A N5A 1_555 1_555
O11A Gd1A 1_555 1_555
O12A Gd1A 1_555 1_555
O13A Gd1A 1_555 1_555
O14A Gd1A 1_555 1_555
O15A N7A 1_555 1_555
O16A Gd1A 1_555 1_555
H33A O16A 1_555 1_555
H34A O16A 1_555 1_555
Gd1A_2 O2A 1_555 1_555
O2A_2 Gd1A 1_555 1_555
C2 O6 1_555 1_555
C6 O3 1_555 1_555
C10 C11 1_555 1_555
C13 N2 1_555 1_555
C18 N4 1_555 1_555
C24 N3 1_555 1_555
C26 N1 1_555 1_555
C26 O2 1_555 1_555
C30 C31 1_555 1_555
C32 O4 1_555 1_555
C33 C34 1_555 1_555
C36 O5 1_555 1_555
N5 O8 1_555 1_555
N6 O11 1_555 1_555
N6 O12 1_555 1_555
N7 O14 1_555 1_555
C39 O18 1_555 1_555
C2A O6A 1_555 1_555
C3A C4A 1_555 1_555
C6A O3A 1_555 1_555
C10A C11A 1_555 1_555
C13A N2A 1_555 1_555
C18A N4A 1_555 1_555
C24A N3A 1_555 1_555
C26A N1A 1_555 1_555
C30A C31A 1_555 1_555
C32A O4A 1_555 1_555
C33A C34A 1_555 1_555
C34A C35A 1_555 1_555
C36A O5A 1_555 1_555
N5A O8A 1_555 1_555
N6A O11A 1_555 1_555
N6A O12A 1_555 1_555
N7A O14A 1_555 1_555

#END
