
#######################################################################
#
#                 Cambridge Crystallographic Data Centre
#                                CCDC 
#
#######################################################################
#
# If this CIF has been generated from an entry in the Cambridge 
# Structural Database, then it will include bibliographic, chemical, 
# crystal, experimental, refinement or atomic coordinate data resulting 
# from the CCDC's data processing and validation procedures.
#
#######################################################################

data_BIKBAA
_symmetry_cell_setting           triclinic
_symmetry_space_group_name_H-M   'P -1'
_symmetry_Int_Tables_number      2
_space_group_name_Hall           '-P 1'
loop_
_symmetry_equiv_pos_site_id
_symmetry_equiv_pos_as_xyz
1 x,y,z
2 -x,-y,-z
_cell_length_a                   10.2963(15)
_cell_length_b                   12.1680(18)
_cell_length_c                   19.578(3)
_cell_angle_alpha                82.172(3)
_cell_angle_beta                 81.881(3)
_cell_angle_gamma                66.876(2)
_cell_volume                     2224.36
loop_
_atom_site_label
_atom_site_type_symbol
_atom_site_fract_x
_atom_site_fract_y
_atom_site_fract_z
Er1 Er 0.673242(19) 0.709067(15) 0.285039(10)
N1 N 0.3655(4) 0.8817(3) 0.13569(19)
H1 H 0.3137 0.9404 0.1093
N2 N 0.3590(5) 0.6191(4) 0.1891(2)
N3 N 0.8142(4) 0.3990(3) 0.4279(2)
H2 H 0.8751 0.3332 0.4451
N4 N 0.6448(5) 0.3487(4) 0.3190(2)
N5 N 0.8338(4) 0.5519(4) 0.1797(2)
N6 N 0.5317(5) 0.8379(4) 0.4031(3)
N7 N 0.8407(5) 0.8474(4) 0.2333(2)
O1 O 0.4734(3) 0.8319(3) 0.23335(16)
O2 O 0.1123(3) 1.0529(3) 0.15369(16)
O3 O 0.2142(4) 1.0786(3) 0.01004(18)
O4 O 0.7811(3) 0.5827(3) 0.37588(16)
O5 O 1.0689(3) 0.2636(3) 0.45742(18)
O6 O 0.9715(4) 0.1433(3) 0.6039(2)
O7 O 0.7497(4) 0.6593(3) 0.16547(17)
O8 O 0.8556(4) 0.5212(3) 0.24248(18)
O9 O 0.8902(5) 0.4838(4) 0.1350(2)
O10 O 0.4911(4) 0.7624(4) 0.3846(2)
O11 O 0.6369(4) 0.8507(3) 0.3666(2)
O12 O 0.4757(6) 0.8951(5) 0.4526(3)
O13 O 0.8894(3) 0.7454(3) 0.26884(18)
O14 O 0.7113(4) 0.8832(3) 0.22182(18)
O15 O 0.9125(5) 0.9047(4) 0.2127(2)
O16 O 0.5560(4) 0.5861(3) 0.27874(18)
H3 H 0.4944 0.5998 0.2507
H4 H 0.5865 0.5119 0.2926
C1 C 0.3850(4) 0.9059(4) 0.1963(2)
C2 C 0.2976(4) 1.0287(4) 0.2194(2)
C3 C 0.1636(5) 1.1005(4) 0.1979(2)
C4 C 0.0868(5) 1.2113(4) 0.2238(2)
H5 H -0.0034 1.2580 0.2106
C5 C 0.1461(6) 1.2509(5) 0.2692(3)
H6 H 0.0956 1.3253 0.2863
C6 C 0.2788(6) 1.1822(5) 0.2899(3)
H7 H 0.3177 1.2108 0.3201
C7 C 0.3539(5) 1.0715(4) 0.2658(2)
H8 H 0.4428 1.0248 0.2805
C8 C -0.0055(5) 1.1288(4) 0.1151(2)
H9 H 0.0040 1.2043 0.0983
H10 H -0.0942 1.1454 0.1443
C9 C 0.1087(5) 1.0395(4) 0.0024(2)
C10 C -0.0031(5) 1.0625(4) 0.0553(2)
C11 C -0.1094(5) 1.0214(4) 0.0525(2)
H11 H -0.1826 1.0348 0.0881
C12 C 0.3170(6) 1.0722(6) -0.0464(3)
H12 H 0.3622 0.9910 -0.0585
H13 H 0.3868 1.0981 -0.0340
H14 H 0.2723 1.1232 -0.0853
C13 C 0.4250(5) 0.7633(4) 0.1103(3)
H15 H 0.5173 0.7185 0.1272
H16 H 0.4380 0.7713 0.0601
C14 C 0.3282(5) 0.6956(4) 0.1342(2)
C15 C 0.2133(6) 0.7151(5) 0.0988(3)
H17 H 0.1945 0.7691 0.0595
C16 C 0.1268(6) 0.6526(6) 0.1230(4)
H18 H 0.0471 0.6653 0.1010
C17 C 0.1601(6) 0.5731(6) 0.1789(4)
H19 H 0.1049 0.5285 0.1955
C18 C 0.2759(7) 0.5589(6) 0.2108(3)
H20 H 0.2976 0.5042 0.2496
C19 C 0.8602(4) 0.4857(4) 0.4038(2)
C20 C 1.0098(4) 0.4656(3) 0.4125(2)
C21 C 1.1098(4) 0.3579(4) 0.4402(2)
C22 C 1.2465(4) 0.3476(4) 0.4473(2)
H21 H 1.3126 0.2756 0.4649
C23 C 1.2827(5) 0.4461(4) 0.4279(3)
H22 H 1.3738 0.4403 0.4329
C24 C 1.1862(5) 0.5528(4) 0.4013(3)
H23 H 1.2122 0.6182 0.3881
C25 C 1.0513(5) 0.5624(4) 0.3941(2)
H24 H 0.9864 0.6350 0.3765
C26 C 1.1613(5) 0.1509(4) 0.4893(3)
H25 H 1.1821 0.1610 0.5343
H26 H 1.2497 0.1179 0.4603
C27 C 0.9829(5) 0.0710(4) 0.5538(3)
C28 C 1.0786(5) 0.0712(4) 0.4962(3)
C29 C 1.0958(5) 0.0004(4) 0.4432(3)
H27 H 1.1608 0.0006 0.4051
C30 C 0.8822(7) 0.1367(6) 0.6659(3)
H28 H 0.7851 0.1680 0.6556
H29 H 0.8927 0.1831 0.6991
H30 H 0.9086 0.0546 0.6847
C31 C 0.6706(5) 0.4043(4) 0.4278(3)
H31 H 0.6106 0.4840 0.4101
H32 H 0.6332 0.3895 0.4750
C32 C 0.6674(5) 0.3140(4) 0.3844(3)
C33 C 0.6450(8) 0.2703(6) 0.2778(4)
H33 H 0.6280 0.2962 0.2318
C34 C 0.6691(8) 0.1538(6) 0.3003(5)
H34 H 0.6716 0.1002 0.2700
C35 C 0.6891(8) 0.1185(6) 0.3673(5)
H35 H 0.7034 0.0399 0.3844
C36 C 0.6885(7) 0.1992(5) 0.4106(4)
H36 H 0.7024 0.1755 0.4571
N1A N -0.3655(4) 1.1183(3) -0.13569(19)
H1A H -0.3137 1.0596 -0.1093
N2A N -0.3590(5) 1.3809(4) -0.1891(2)
O1A O -0.4734(3) 1.1681(3) -0.23335(16)
O2A O -0.1123(3) 0.9471(3) -0.15369(16)
O3A O -0.2142(4) 0.9214(3) -0.01004(18)
C1A C -0.3850(4) 1.0941(4) -0.1963(2)
C2A C -0.2976(4) 0.9713(4) -0.2194(2)
C3A C -0.1636(5) 0.8995(4) -0.1979(2)
C4A C -0.0868(5) 0.7887(4) -0.2238(2)
H5A H 0.0034 0.7420 -0.2106
C5A C -0.1461(6) 0.7491(5) -0.2692(3)
H6A H -0.0956 0.6747 -0.2863
C6A C -0.2788(6) 0.8178(5) -0.2899(3)
H7A H -0.3177 0.7892 -0.3201
C7A C -0.3539(5) 0.9285(4) -0.2658(2)
H8A H -0.4428 0.9752 -0.2805
C8A C 0.0055(5) 0.8712(4) -0.1151(2)
H9A H -0.0040 0.7957 -0.0983
H10A H 0.0942 0.8546 -0.1443
C9A C -0.1087(5) 0.9605(4) -0.0024(2)
C10A C 0.0031(5) 0.9375(4) -0.0553(2)
C11A C 0.1094(5) 0.9786(4) -0.0525(2)
H11A H 0.1826 0.9652 -0.0881
C12A C -0.3170(6) 0.9278(6) 0.0464(3)
H12A H -0.3622 1.0090 0.0585
H13A H -0.3868 0.9019 0.0340
H14A H -0.2723 0.8768 0.0853
C13A C -0.4250(5) 1.2367(4) -0.1103(3)
H15A H -0.5173 1.2815 -0.1272
H16A H -0.4380 1.2287 -0.0601
C14A C -0.3282(5) 1.3044(4) -0.1342(2)
C15A C -0.2133(6) 1.2849(5) -0.0988(3)
H17A H -0.1945 1.2309 -0.0595
C16A C -0.1268(6) 1.3474(6) -0.1230(4)
H18A H -0.0471 1.3347 -0.1010
C17A C -0.1601(6) 1.4269(6) -0.1789(4)
H19A H -0.1049 1.4715 -0.1955
C18A C -0.2759(7) 1.4411(6) -0.2108(3)
H20A H -0.2976 1.4958 -0.2496
N3A N 1.1858(4) -0.3990(3) 0.5721(2)
H2A H 1.1249 -0.3332 0.5549
N4A N 1.3552(5) -0.3487(4) 0.6810(2)
O4A O 1.2189(3) -0.5827(3) 0.62412(16)
O5A O 0.9311(3) -0.2636(3) 0.54258(18)
O6A O 1.0285(4) -0.1433(3) 0.3961(2)
C19A C 1.1398(4) -0.4857(4) 0.5962(2)
C20A C 0.9902(4) -0.4656(3) 0.5875(2)
C21A C 0.8902(4) -0.3579(4) 0.5598(2)
C22A C 0.7535(4) -0.3476(4) 0.5527(2)
H21A H 0.6874 -0.2756 0.5351
C23A C 0.7173(5) -0.4461(4) 0.5721(3)
H22A H 0.6262 -0.4403 0.5671
C24A C 0.8138(5) -0.5528(4) 0.5987(3)
H23A H 0.7878 -0.6182 0.6119
C25A C 0.9487(5) -0.5624(4) 0.6059(2)
H24A H 1.0136 -0.6350 0.6235
C26A C 0.8387(5) -0.1509(4) 0.5107(3)
H25A H 0.8179 -0.1610 0.4657
H26A H 0.7503 -0.1179 0.5397
C27A C 1.0171(5) -0.0710(4) 0.4462(3)
C28A C 0.9214(5) -0.0712(4) 0.5038(3)
C29A C 0.9042(5) -0.0004(4) 0.5568(3)
H27A H 0.8392 -0.0006 0.5949
C30A C 1.1178(7) -0.1367(6) 0.3341(3)
H28A H 1.2149 -0.1680 0.3444
H29A H 1.1073 -0.1831 0.3009
H30A H 1.0914 -0.0546 0.3153
C31A C 1.3294(5) -0.4043(4) 0.5722(3)
H31A H 1.3894 -0.4840 0.5899
H32A H 1.3668 -0.3895 0.5250
C32A C 1.3326(5) -0.3140(4) 0.6156(3)
C33A C 1.3550(8) -0.2703(6) 0.7222(4)
H33A H 1.3720 -0.2962 0.7682
C34A C 1.3309(8) -0.1538(6) 0.6997(5)
H34A H 1.3284 -0.1002 0.7300
C35A C 1.3109(8) -0.1185(6) 0.6327(5)
H35A H 1.2966 -0.0399 0.6156
C36A C 1.3115(7) -0.1992(5) 0.5894(4)
H36A H 1.2976 -0.1755 0.5429
Er1A Er -0.673242(19) 1.290933(15) -0.285039(10)
N5A N -0.8338(4) 1.4481(4) -0.1797(2)
N6A N -0.5317(5) 1.1621(4) -0.4031(3)
N7A N -0.8407(5) 1.1526(4) -0.2333(2)
O7A O -0.7497(4) 1.3407(3) -0.16547(17)
O8A O -0.8556(4) 1.4788(3) -0.24248(18)
O9A O -0.8902(5) 1.5162(4) -0.1350(2)
O10A O -0.4911(4) 1.2376(4) -0.3846(2)
O11A O -0.6369(4) 1.1493(3) -0.3666(2)
O12A O -0.4757(6) 1.1049(5) -0.4526(3)
O13A O -0.8894(3) 1.2546(3) -0.26884(18)
O14A O -0.7113(4) 1.1168(3) -0.22182(18)
O15A O -0.9125(5) 1.0953(4) -0.2127(2)
O16A O -0.5560(4) 1.4139(3) -0.27874(18)
H3A H -0.4944 1.4002 -0.2507
H4A H -0.5865 1.4881 -0.2926
Er1A_2 Er 1.326758(19) -0.709067(15) 0.714961(10)
O4A_2 O -0.7811(3) 1.4173(3) -0.37588(16)
O17 O 0.4271(6) 0.3709(5) 0.0631(3)
O18 O 0.5823(9) 0.2313(7) 0.1179(5)
C37 C 0.5509(10) 0.3264(8) 0.0867(4)
C38 C 0.6317(9) 0.4067(8) 0.0748(4)
H37 H 0.6169 0.4484 0.1152
H38 H 0.5994 0.4637 0.0358
H39 H 0.7310 0.3595 0.0656
C39 C 0.3343(10) 0.3021(8) 0.0757(5)
H40 H 0.2992 0.2988 0.1243
H41 H 0.3864 0.2207 0.0631
C40 C 0.2131(10) 0.3653(8) 0.0320(5)
H42 H 0.1574 0.4430 0.0477
H43 H 0.1548 0.3191 0.0358
H44 H 0.2495 0.3741 -0.0155
loop_
_geom_bond_atom_site_label_1
_geom_bond_atom_site_label_2
_geom_bond_site_symmetry_1
_geom_bond_site_symmetry_2
Er1 O1 1_555 1_555
N1 H1 1_555 1_555
N2 C14 1_555 1_555
N3 H2 1_555 1_555
N4 C32 1_555 1_555
N5 O7 1_555 1_555
N6 O10 1_555 1_555
N7 O13 1_555 1_555
O1 C1 1_555 1_555
O2 C3 1_555 1_555
O3 C9 1_555 1_555
O4 Er1 1_555 1_555
O5 C21 1_555 1_555
O6 C27 1_555 1_555
O7 Er1 1_555 1_555
O8 Er1 1_555 1_555
O9 N5 1_555 1_555
O10 Er1 1_555 1_555
O11 Er1 1_555 1_555
O12 N6 1_555 1_555
O13 Er1 1_555 1_555
O14 Er1 1_555 1_555
O15 N7 1_555 1_555
O16 Er1 1_555 1_555
H3 O16 1_555 1_555
H4 O16 1_555 1_555
C1 N1 1_555 1_555
C2 C1 1_555 1_555
C3 C2 1_555 1_555
C4 C3 1_555 1_555
H5 C4 1_555 1_555
C5 C4 1_555 1_555
H6 C5 1_555 1_555
C6 C5 1_555 1_555
H7 C6 1_555 1_555
C7 C2 1_555 1_555
H8 C7 1_555 1_555
C8 O2 1_555 1_555
H9 C8 1_555 1_555
H10 C8 1_555 1_555
C9 C10 1_555 1_555
C10 C8 1_555 1_555
C11 C10 1_555 1_555
H11 C11 1_555 1_555
C12 O3 1_555 1_555
H12 C12 1_555 1_555
H13 C12 1_555 1_555
H14 C12 1_555 1_555
C13 N1 1_555 1_555
H15 C13 1_555 1_555
H16 C13 1_555 1_555
C14 C13 1_555 1_555
C15 C14 1_555 1_555
H17 C15 1_555 1_555
C16 C15 1_555 1_555
H18 C16 1_555 1_555
C17 C16 1_555 1_555
H19 C17 1_555 1_555
C18 N2 1_555 1_555
H20 C18 1_555 1_555
C19 N3 1_555 1_555
C20 C19 1_555 1_555
C21 C20 1_555 1_555
C22 C21 1_555 1_555
H21 C22 1_555 1_555
C23 C22 1_555 1_555
H22 C23 1_555 1_555
C24 C23 1_555 1_555
H23 C24 1_555 1_555
C25 C20 1_555 1_555
H24 C25 1_555 1_555
C26 O5 1_555 1_555
H25 C26 1_555 1_555
H26 C26 1_555 1_555
C27 C28 1_555 1_555
C28 C26 1_555 1_555
C29 C28 1_555 1_555
H27 C29 1_555 1_555
C30 O6 1_555 1_555
H28 C30 1_555 1_555
H29 C30 1_555 1_555
H30 C30 1_555 1_555
C31 N3 1_555 1_555
H31 C31 1_555 1_555
H32 C31 1_555 1_555
C32 C31 1_555 1_555
C33 N4 1_555 1_555
H33 C33 1_555 1_555
C34 C33 1_555 1_555
H34 C34 1_555 1_555
C35 C34 1_555 1_555
H35 C35 1_555 1_555
C36 C32 1_555 1_555
H36 C36 1_555 1_555
O17 C37 1_555 1_555
O18 C37 1_555 1_555
C37 C38 1_555 1_555
C38 H37 1_555 1_555
H38 C38 1_555 1_555
H39 C38 1_555 1_555
C39 O17 1_555 1_555
H40 C39 1_555 1_555
H41 C39 1_555 1_555
C40 C39 1_555 1_555
H42 C40 1_555 1_555
H43 C40 1_555 1_555
H44 C40 1_555 1_555
N1A H1A 1_555 1_555
N2A C14A 1_555 1_555
O1A C1A 1_555 1_555
O2A C3A 1_555 1_555
O3A C9A 1_555 1_555
C1A N1A 1_555 1_555
C2A C1A 1_555 1_555
C3A C2A 1_555 1_555
C4A C3A 1_555 1_555
H5A C4A 1_555 1_555
C5A C4A 1_555 1_555
H6A C5A 1_555 1_555
C6A C5A 1_555 1_555
H7A C6A 1_555 1_555
C7A C2A 1_555 1_555
H8A C7A 1_555 1_555
C8A O2A 1_555 1_555
H9A C8A 1_555 1_555
H10A C8A 1_555 1_555
C9A C11 1_555 1_555
C10A C8A 1_555 1_555
C11A C9 1_555 1_555
H11A C11A 1_555 1_555
C12A O3A 1_555 1_555
H12A C12A 1_555 1_555
H13A C12A 1_555 1_555
H14A C12A 1_555 1_555
C13A N1A 1_555 1_555
H15A C13A 1_555 1_555
H16A C13A 1_555 1_555
C14A C13A 1_555 1_555
C15A C14A 1_555 1_555
H17A C15A 1_555 1_555
C16A C15A 1_555 1_555
H18A C16A 1_555 1_555
C17A C16A 1_555 1_555
H19A C17A 1_555 1_555
C18A N2A 1_555 1_555
H20A C18A 1_555 1_555
N3A H2A 1_555 1_555
N4A C32A 1_555 1_555
O4A C19A 1_555 1_555
O5A C21A 1_555 1_555
O6A C27A 1_555 1_555
C19A N3A 1_555 1_555
C20A C19A 1_555 1_555
C21A C20A 1_555 1_555
C22A C21A 1_555 1_555
H21A C22A 1_555 1_555
C23A C22A 1_555 1_555
H22A C23A 1_555 1_555
C24A C23A 1_555 1_555
H23A C24A 1_555 1_555
C25A C20A 1_555 1_555
H24A C25A 1_555 1_555
C26A O5A 1_555 1_555
H25A C26A 1_555 1_555
H26A C26A 1_555 1_555
C27A C29 1_555 1_555
C28A C26A 1_555 1_555
C29A C27 1_555 1_555
H27A C29A 1_555 1_555
C30A O6A 1_555 1_555
H28A C30A 1_555 1_555
H29A C30A 1_555 1_555
H30A C30A 1_555 1_555
C31A N3A 1_555 1_555
H31A C31A 1_555 1_555
H32A C31A 1_555 1_555
C32A C31A 1_555 1_555
C33A N4A 1_555 1_555
H33A C33A 1_555 1_555
C34A C33A 1_555 1_555
H34A C34A 1_555 1_555
C35A C34A 1_555 1_555
H35A C35A 1_555 1_555
C36A C32A 1_555 1_555
H36A C36A 1_555 1_555
Er1A O1A 1_555 1_555
N5A O7A 1_555 1_555
N6A O10A 1_555 1_555
N7A O13A 1_555 1_555
O7A Er1A 1_555 1_555
O8A Er1A 1_555 1_555
O9A N5A 1_555 1_555
O10A Er1A 1_555 1_555
O11A Er1A 1_555 1_555
O12A N6A 1_555 1_555
O13A Er1A 1_555 1_555
O14A Er1A 1_555 1_555
O15A N7A 1_555 1_555
O16A Er1A 1_555 1_555
H3A O16A 1_555 1_555
H4A O16A 1_555 1_555
Er1A_2 O4A 1_555 1_555
O4A_2 Er1A 1_555 1_555
N5 O8 1_555 1_555
N6 O11 1_555 1_555
N7 O14 1_555 1_555
O4 C19 1_555 1_555
C6 C7 1_555 1_555
C17 C18 1_555 1_555
C24 C25 1_555 1_555
C35 C36 1_555 1_555
C6A C7A 1_555 1_555
C9A C10A 1_555 1_555
C10A C11A 1_555 1_555
C17A C18A 1_555 1_555
C24A C25A 1_555 1_555
C27A C28A 1_555 1_555
C28A C29A 1_555 1_555
C35A C36A 1_555 1_555
N5A O8A 1_555 1_555
N6A O11A 1_555 1_555
N7A O14A 1_555 1_555

#END
