
#######################################################################
#
#                 Cambridge Crystallographic Data Centre
#                                CCDC 
#
#######################################################################
#
# If this CIF has been generated from an entry in the Cambridge 
# Structural Database, then it will include bibliographic, chemical, 
# crystal, experimental, refinement or atomic coordinate data resulting 
# from the CCDC's data processing and validation procedures.
#
#######################################################################

data_BIKDUV
_symmetry_cell_setting           monoclinic
_symmetry_space_group_name_H-M   'P 21/n'
_symmetry_Int_Tables_number      14
_space_group_name_Hall           '-P 2yn'
loop_
_symmetry_equiv_pos_site_id
_symmetry_equiv_pos_as_xyz
1 x,y,z
2 1/2+x,1/2-y,1/2+z
3 -x,-y,-z
4 1/2-x,1/2+y,1/2-z
_cell_length_a                   7.2169(2)
_cell_length_b                   12.1710(3)
_cell_length_c                   10.4779(3)
_cell_angle_alpha                90
_cell_angle_beta                 104.655(2)
_cell_angle_gamma                90
_cell_volume                     890.404
loop_
_atom_site_label
_atom_site_type_symbol
_atom_site_fract_x
_atom_site_fract_y
_atom_site_fract_z
Mn1 Mn 0.0000 0.0000 0.0000
O1 O 0.21716(17) -0.04345(9) -0.10354(11)
N1 N 0.2842(2) -0.14634(10) -0.09361(13)
N2 N 0.2330(2) 0.05354(13) 0.17319(15)
N3 N 0.4744(2) 0.14144(12) 0.34939(17)
N4 N 0.4892(2) 0.33424(12) 0.41443(14)
C1 C 0.1757(3) -0.22798(14) -0.15926(17)
H1 H 0.0532 -0.2127 -0.2106
C2 C 0.2432(3) -0.33359(14) -0.15152(18)
H2 H 0.1660 -0.3892 -0.1977
C3 C 0.4241(3) -0.35841(14) -0.07610(16)
C4 C 0.5044(4) -0.47333(16) -0.0631(2)
H3 H 0.4330 -0.5174 -0.1363
H4 H 0.6366 -0.4708 -0.0684
C5 C 0.5301(3) -0.27168(16) -0.01009(18)
H5 H 0.6528 -0.2851 0.0421
C6 C 0.4605(2) -0.16723(15) -0.01912(16)
H6 H 0.5354 -0.1105 0.0264
C7 C 0.3416(2) 0.09895(14) 0.25480(16)
C8 C 0.4716(2) 0.24517(14) 0.37859(16)
C4B C 0.4956(4) -0.52667(16) 0.0631(2)
C3B C 0.5759(3) -0.64159(14) 0.07610(16)
C2B C 0.7568(3) -0.66641(14) 0.15152(18)
C1B C 0.8243(3) -0.77202(14) 0.15926(17)
N1B N 0.7158(2) -0.85366(10) 0.09361(13)
O1B O 0.78284(17) -0.95655(9) 0.10354(11)
C6B C 0.5395(2) -0.83277(15) 0.01912(16)
C5B C 0.4699(3) -0.72832(16) 0.01009(18)
H5B H 0.3472 -0.7149 -0.0421
H6B H 0.4646 -0.8895 -0.0264
H1B H 0.9468 -0.7873 0.2106
H2B H 0.8340 -0.6108 0.1977
H3B H 0.5670 -0.4826 0.1363
H4B H 0.3634 -0.5292 0.0684
N2B N -0.2330(2) -0.05354(13) -0.17319(15)
N3B N -0.4744(2) -0.14144(12) -0.34939(17)
N4B N -0.4892(2) -0.33424(12) -0.41443(14)
C7B C -0.3416(2) -0.09895(14) -0.25480(16)
C8B C -0.4716(2) -0.24517(14) -0.37859(16)
O1B_2 O -0.21716(17) 0.04345(9) 0.10354(11)
N4A N -0.0108(2) 0.16576(12) -0.08557(14)
N4C N 0.0108(2) -0.16576(12) 0.08557(14)
Mn1A Mn 0.5000 0.5000 0.5000
Mn1_2 Mn 1.0000 -1.0000 0.0000
Mn1A_2 Mn -0.5000 -0.5000 -0.5000
loop_
_geom_bond_atom_site_label_1
_geom_bond_atom_site_label_2
_geom_bond_site_symmetry_1
_geom_bond_site_symmetry_2
Mn1 O1 1_555 1_555
O1 N1 1_555 1_555
N1 C1 1_555 1_555
N2 Mn1 1_555 1_555
N3 C7 1_555 1_555
N4 C8 1_555 1_555
C1 H1 1_555 1_555
C2 C1 1_555 1_555
H2 C2 1_555 1_555
C3 C2 1_555 1_555
C4 C3 1_555 1_555
H3 C4 1_555 1_555
H4 C4 1_555 1_555
C5 C3 1_555 1_555
H5 C5 1_555 1_555
C6 N1 1_555 1_555
H6 C6 1_555 1_555
C7 N2 1_555 1_555
C8 N3 1_555 1_555
C4B C4 1_555 1_555
C3B C4B 1_555 1_555
C2B C3B 1_555 1_555
C1B C2B 1_555 1_555
N1B C1B 1_555 1_555
O1B N1B 1_555 1_555
C6B N1B 1_555 1_555
C5B C3B 1_555 1_555
H5B C5B 1_555 1_555
H6B C6B 1_555 1_555
H1B C1B 1_555 1_555
H2B C2B 1_555 1_555
H3B C4B 1_555 1_555
H4B C4B 1_555 1_555
N2B Mn1 1_555 1_555
N3B C7B 1_555 1_555
N4B C8B 1_555 1_555
C7B N2B 1_555 1_555
C8B N3B 1_555 1_555
O1B_2 Mn1 1_555 1_555
N4A Mn1 1_555 1_555
N4C Mn1 1_555 1_555
Mn1A N4 1_555 1_555
Mn1_2 O1B 1_555 1_555
Mn1A_2 N4B 1_555 1_555
C5 C6 1_555 1_555
C6B C5B 1_555 1_555

#END
