
#######################################################################
#
#                 Cambridge Crystallographic Data Centre
#                                CCDC 
#
#######################################################################
#
# If this CIF has been generated from an entry in the Cambridge 
# Structural Database, then it will include bibliographic, chemical, 
# crystal, experimental, refinement or atomic coordinate data resulting 
# from the CCDC's data processing and validation procedures.
#
#######################################################################

data_BIKDOP
_symmetry_cell_setting           monoclinic
_symmetry_space_group_name_H-M   'P 21/n'
_symmetry_Int_Tables_number      14
_space_group_name_Hall           '-P 2yn'
loop_
_symmetry_equiv_pos_site_id
_symmetry_equiv_pos_as_xyz
1 x,y,z
2 1/2+x,1/2-y,1/2+z
3 -x,-y,-z
4 1/2-x,1/2+y,1/2-z
_cell_length_a                   7.1346(2)
_cell_length_b                   12.1026(3)
_cell_length_c                   10.4061(2)
_cell_angle_alpha                90
_cell_angle_beta                 104.6620(10)
_cell_angle_gamma                90
_cell_volume                     869.278
loop_
_atom_site_label
_atom_site_type_symbol
_atom_site_fract_x
_atom_site_fract_y
_atom_site_fract_z
Fe1 Fe 0.0000 0.0000 0.0000
O1 O 0.21166(16) -0.04131(9) -0.10081(10)
N1 N 0.27928(19) -0.14509(10) -0.09164(12)
N2 N 0.2299(2) 0.05652(12) 0.16864(13)
N3 N 0.4728(2) 0.14441(12) 0.34805(16)
N4 N 0.4875(2) 0.33929(11) 0.41125(13)
C1 C 0.1687(3) -0.22674(14) -0.15800(16)
H1 H 0.0446 -0.2111 -0.2093
C2 C 0.2370(3) -0.33297(14) -0.15076(16)
H2 H 0.1588 -0.3889 -0.1970
C3 C 0.4212(3) -0.35780(13) -0.07548(16)
C4 C 0.5009(4) -0.47390(15) -0.0643(2)
H3 H 0.4242 -0.5183 -0.1363
H4 H 0.6328 -0.4722 -0.0736
C5 C 0.5287(3) -0.27142(16) -0.00955(16)
H5 H 0.6533 -0.2851 0.0422
C6 C 0.4585(2) -0.16615(15) -0.01761(15)
H6 H 0.5346 -0.1092 0.0281
C7 C 0.3396(2) 0.10170(13) 0.25151(15)
C8 C 0.4701(2) 0.24931(13) 0.37580(14)
C4B C 0.4991(4) -0.52610(15) 0.0643(2)
C3B C 0.5788(3) -0.64220(13) 0.07548(16)
C2B C 0.7630(3) -0.66703(14) 0.15076(16)
C1B C 0.8313(3) -0.77326(14) 0.15800(16)
N1B N 0.72072(19) -0.85491(10) 0.09164(12)
O1B O 0.78834(16) -0.95869(9) 0.10081(10)
C6B C 0.5415(2) -0.83385(15) 0.01761(15)
C5B C 0.4713(3) -0.72858(16) 0.00955(16)
H5B H 0.3467 -0.7149 -0.0422
H6B H 0.4654 -0.8908 -0.0281
H1B H 0.9554 -0.7889 0.2093
H2B H 0.8412 -0.6111 0.1970
H3B H 0.5758 -0.4817 0.1363
H4B H 0.3672 -0.5278 0.0736
N2B N -0.2299(2) -0.05652(12) -0.16864(13)
N3B N -0.4728(2) -0.14441(12) -0.34805(16)
N4B N -0.4875(2) -0.33929(11) -0.41125(13)
C7B C -0.3396(2) -0.10170(13) -0.25151(15)
C8B C -0.4701(2) -0.24931(13) -0.37580(14)
O1B_2 O -0.21166(16) 0.04131(9) 0.10081(10)
N4A N -0.0125(2) 0.16071(11) -0.08875(13)
N4C N 0.0125(2) -0.16071(11) 0.08875(13)
Fe1A Fe 0.5000 0.5000 0.5000
Fe1_2 Fe 1.0000 -1.0000 0.0000
Fe1A_2 Fe -0.5000 -0.5000 -0.5000
loop_
_geom_bond_atom_site_label_1
_geom_bond_atom_site_label_2
_geom_bond_site_symmetry_1
_geom_bond_site_symmetry_2
Fe1 O1 1_555 1_555
O1 N1 1_555 1_555
N1 C1 1_555 1_555
N2 Fe1 1_555 1_555
N3 C7 1_555 1_555
N4 C8 1_555 1_555
C1 H1 1_555 1_555
C2 C1 1_555 1_555
H2 C2 1_555 1_555
C3 C2 1_555 1_555
C4 C3 1_555 1_555
H3 C4 1_555 1_555
H4 C4 1_555 1_555
C5 C3 1_555 1_555
H5 C5 1_555 1_555
C6 N1 1_555 1_555
H6 C6 1_555 1_555
C7 N2 1_555 1_555
C8 N3 1_555 1_555
C4B C4 1_555 1_555
C3B C4B 1_555 1_555
C2B C3B 1_555 1_555
C1B C2B 1_555 1_555
N1B C1B 1_555 1_555
O1B N1B 1_555 1_555
C6B N1B 1_555 1_555
C5B C3B 1_555 1_555
H5B C5B 1_555 1_555
H6B C6B 1_555 1_555
H1B C1B 1_555 1_555
H2B C2B 1_555 1_555
H3B C4B 1_555 1_555
H4B C4B 1_555 1_555
N2B Fe1 1_555 1_555
N3B C7B 1_555 1_555
N4B C8B 1_555 1_555
C7B N2B 1_555 1_555
C8B N3B 1_555 1_555
O1B_2 Fe1 1_555 1_555
N4A Fe1 1_555 1_555
N4C Fe1 1_555 1_555
Fe1A N4 1_555 1_555
Fe1_2 O1B 1_555 1_555
Fe1A_2 N4B 1_555 1_555
C5 C6 1_555 1_555
C6B C5B 1_555 1_555

#END
