
#######################################################################
#
#                 Cambridge Crystallographic Data Centre
#                                CCDC 
#
#######################################################################
#
# If this CIF has been generated from an entry in the Cambridge 
# Structural Database, then it will include bibliographic, chemical, 
# crystal, experimental, refinement or atomic coordinate data resulting 
# from the CCDC's data processing and validation procedures.
#
#######################################################################

data_BIKDIJ
_symmetry_cell_setting           monoclinic
_symmetry_space_group_name_H-M   'P 21/n'
_symmetry_Int_Tables_number      14
_space_group_name_Hall           '-P 2yn'
loop_
_symmetry_equiv_pos_site_id
_symmetry_equiv_pos_as_xyz
1 x,y,z
2 1/2+x,1/2-y,1/2+z
3 -x,-y,-z
4 1/2-x,1/2+y,1/2-z
_cell_length_a                   7.1005(2)
_cell_length_b                   12.0685(3)
_cell_length_c                   10.3404(2)
_cell_angle_alpha                90
_cell_angle_beta                 102.908(2)
_cell_angle_gamma                90
_cell_volume                     863.702
loop_
_atom_site_label
_atom_site_type_symbol
_atom_site_fract_x
_atom_site_fract_y
_atom_site_fract_z
Cu1 Cu 0.0000 0.0000 0.0000
O1 O 0.2026(2) -0.03982(14) -0.09605(16)
N1 N 0.2668(3) -0.14539(14) -0.08800(17)
N2 N 0.2683(4) 0.0545(3) 0.1996(3)
N3 N 0.5128(4) 0.1605(2) 0.3518(3)
N4 N 0.5031(3) 0.35364(16) 0.41883(19)
C1 C 0.1551(4) -0.2255(2) -0.1537(2)
H1 H 0.0330 -0.2081 -0.2040
C2 C 0.2182(4) -0.3324(2) -0.1479(2)
H2 H 0.1384 -0.3873 -0.1937
C3 C 0.3995(4) -0.36006(18) -0.0748(2)
C4 C 0.4741(6) -0.4771(2) -0.0676(3)
H3 H 0.3762 -0.5241 -0.1214
H4 H 0.5872 -0.4794 -0.1056
C5 C 0.5107(4) -0.2744(2) -0.0087(2)
H5 H 0.6337 -0.2896 0.0417
C6 C 0.4433(4) -0.1681(2) -0.0162(2)
H6 H 0.5202 -0.1116 0.0288
C7 C 0.3755(4) 0.1088(2) 0.2706(2)
C8 C 0.4944(4) 0.2643(2) 0.3826(2)
C4B C 0.5259(6) -0.5229(2) 0.0676(3)
C3B C 0.6005(4) -0.63994(18) 0.0748(2)
C2B C 0.7818(4) -0.6676(2) 0.1479(2)
C1B C 0.8449(4) -0.7745(2) 0.1537(2)
N1B N 0.7332(3) -0.85461(14) 0.08800(17)
O1B O 0.7974(2) -0.96018(14) 0.09605(16)
C6B C 0.5567(4) -0.8319(2) 0.0162(2)
C5B C 0.4893(4) -0.7256(2) 0.0087(2)
H5B H 0.3663 -0.7104 -0.0417
H6B H 0.4798 -0.8884 -0.0288
H1B H 0.9670 -0.7919 0.2040
H2B H 0.8616 -0.6127 0.1937
H3B H 0.6238 -0.4759 0.1214
H4B H 0.4128 -0.5206 0.1056
N2B N -0.2683(4) -0.0545(3) -0.1996(3)
N3B N -0.5128(4) -0.1605(2) -0.3518(3)
N4B N -0.5031(3) -0.35364(16) -0.41883(19)
C7B C -0.3755(4) -0.1088(2) -0.2706(2)
C8B C -0.4944(4) -0.2643(2) -0.3826(2)
O1B_2 O -0.2026(2) 0.03982(14) 0.09605(16)
N4A N 0.0031(3) 0.14636(16) -0.08117(19)
N4C N -0.0031(3) -0.14636(16) 0.08117(19)
Cu1A Cu 0.5000 0.5000 0.5000
Cu1_2 Cu 1.0000 -1.0000 0.0000
Cu1A_2 Cu -0.5000 -0.5000 -0.5000
loop_
_geom_bond_atom_site_label_1
_geom_bond_atom_site_label_2
_geom_bond_site_symmetry_1
_geom_bond_site_symmetry_2
Cu1 O1 1_555 1_555
O1 N1 1_555 1_555
N1 C1 1_555 1_555
N2 Cu1 1_555 1_555
N3 C7 1_555 1_555
N4 C8 1_555 1_555
C1 H1 1_555 1_555
C2 C1 1_555 1_555
H2 C2 1_555 1_555
C3 C2 1_555 1_555
C4 C3 1_555 1_555
H3 C4 1_555 1_555
H4 C4 1_555 1_555
C5 C3 1_555 1_555
H5 C5 1_555 1_555
C6 N1 1_555 1_555
H6 C6 1_555 1_555
C7 N2 1_555 1_555
C8 N3 1_555 1_555
C4B C4 1_555 1_555
C3B C4B 1_555 1_555
C2B C3B 1_555 1_555
C1B C2B 1_555 1_555
N1B C1B 1_555 1_555
O1B N1B 1_555 1_555
C6B N1B 1_555 1_555
C5B C3B 1_555 1_555
H5B C5B 1_555 1_555
H6B C6B 1_555 1_555
H1B C1B 1_555 1_555
H2B C2B 1_555 1_555
H3B C4B 1_555 1_555
H4B C4B 1_555 1_555
N2B Cu1 1_555 1_555
N3B C7B 1_555 1_555
N4B C8B 1_555 1_555
C7B N2B 1_555 1_555
C8B N3B 1_555 1_555
O1B_2 Cu1 1_555 1_555
N4A Cu1 1_555 1_555
N4C Cu1 1_555 1_555
Cu1A N4 1_555 1_555
Cu1_2 O1B 1_555 1_555
Cu1A_2 N4B 1_555 1_555
C5 C6 1_555 1_555
C6B C5B 1_555 1_555

#END
