
#######################################################################
#
#                 Cambridge Crystallographic Data Centre
#                                CCDC 
#
#######################################################################
#
# If this CIF has been generated from an entry in the Cambridge 
# Structural Database, then it will include bibliographic, chemical, 
# crystal, experimental, refinement or atomic coordinate data resulting 
# from the CCDC's data processing and validation procedures.
#
#######################################################################

data_BIKDEF
_symmetry_cell_setting           monoclinic
_symmetry_space_group_name_H-M   'P 21/n'
_symmetry_Int_Tables_number      14
_space_group_name_Hall           '-P 2yn'
loop_
_symmetry_equiv_pos_site_id
_symmetry_equiv_pos_as_xyz
1 x,y,z
2 1/2+x,1/2-y,1/2+z
3 -x,-y,-z
4 1/2-x,1/2+y,1/2-z
_cell_length_a                   7.1375(2)
_cell_length_b                   12.0599(2)
_cell_length_c                   10.3669(2)
_cell_angle_alpha                90
_cell_angle_beta                 104.975(2)
_cell_angle_gamma                90
_cell_volume                     862.052
loop_
_atom_site_label
_atom_site_type_symbol
_atom_site_fract_x
_atom_site_fract_y
_atom_site_fract_z
Co1 Co 0.0000 0.0000 0.0000
O1 O 0.20984(17) -0.03990(10) -0.09936(11)
N1 N 0.27860(19) -0.14382(10) -0.09028(12)
N2 N 0.2244(2) 0.05766(12) 0.16484(13)
N3 N 0.4706(2) 0.14617(12) 0.34402(16)
N4 N 0.4841(2) 0.34085(11) 0.41117(13)
C1 C 0.1678(3) -0.22597(14) -0.15733(16)
H1 H 0.0430 -0.2107 -0.2086
C2 C 0.2381(3) -0.33225(14) -0.15030(16)
H2 H 0.1601 -0.3886 -0.1968
C3 C 0.4223(3) -0.35670(13) -0.07552(16)
C4 C 0.5040(4) -0.47298(16) -0.0640(2)
H3 H 0.4309 -0.5172 -0.1383
H4 H 0.6376 -0.4703 -0.0694
C5 C 0.5297(3) -0.26989(17) -0.00824(17)
H5 H 0.6547 -0.2835 0.0439
C6 C 0.4584(2) -0.16457(15) -0.01572(16)
H6 H 0.5341 -0.1074 0.0307
C7 C 0.3350(2) 0.10307(13) 0.24763(15)
C8 C 0.4670(2) 0.25102(13) 0.37407(14)
C4B C 0.4960(4) -0.52702(16) 0.0640(2)
C3B C 0.5777(3) -0.64330(13) 0.07552(16)
C2B C 0.7619(3) -0.66775(14) 0.15030(16)
C1B C 0.8322(3) -0.77403(14) 0.15733(16)
N1B N 0.72140(19) -0.85618(10) 0.09028(12)
O1B O 0.79016(17) -0.96010(10) 0.09936(11)
C6B C 0.5416(2) -0.83543(15) 0.01572(16)
C5B C 0.4703(3) -0.73011(17) 0.00824(17)
H5B H 0.3453 -0.7165 -0.0439
H6B H 0.4659 -0.8926 -0.0307
H1B H 0.9570 -0.7893 0.2086
H2B H 0.8399 -0.6114 0.1968
H3B H 0.5691 -0.4828 0.1383
H4B H 0.3624 -0.5297 0.0694
N2B N -0.2244(2) -0.05766(12) -0.16484(13)
N3B N -0.4706(2) -0.14617(12) -0.34402(16)
N4B N -0.4841(2) -0.34085(11) -0.41117(13)
C7B C -0.3350(2) -0.10307(13) -0.24763(15)
C8B C -0.4670(2) -0.25102(13) -0.37407(14)
O1B_2 O -0.20984(17) 0.03990(10) 0.09936(11)
N4A N -0.0159(2) 0.15915(11) -0.08883(13)
N4C N 0.0159(2) -0.15915(11) 0.08883(13)
Co1A Co 0.5000 0.5000 0.5000
Co1_2 Co 1.0000 -1.0000 0.0000
Co1A_2 Co -0.5000 -0.5000 -0.5000
loop_
_geom_bond_atom_site_label_1
_geom_bond_atom_site_label_2
_geom_bond_site_symmetry_1
_geom_bond_site_symmetry_2
Co1 O1 1_555 1_555
O1 N1 1_555 1_555
N1 C1 1_555 1_555
N2 Co1 1_555 1_555
N3 C7 1_555 1_555
N4 C8 1_555 1_555
C1 H1 1_555 1_555
C2 C1 1_555 1_555
H2 C2 1_555 1_555
C3 C2 1_555 1_555
C4 C3 1_555 1_555
H3 C4 1_555 1_555
H4 C4 1_555 1_555
C5 C3 1_555 1_555
H5 C5 1_555 1_555
C6 N1 1_555 1_555
H6 C6 1_555 1_555
C7 N2 1_555 1_555
C8 N3 1_555 1_555
C4B C4 1_555 1_555
C3B C4B 1_555 1_555
C2B C3B 1_555 1_555
C1B C2B 1_555 1_555
N1B C1B 1_555 1_555
O1B N1B 1_555 1_555
C6B N1B 1_555 1_555
C5B C3B 1_555 1_555
H5B C5B 1_555 1_555
H6B C6B 1_555 1_555
H1B C1B 1_555 1_555
H2B C2B 1_555 1_555
H3B C4B 1_555 1_555
H4B C4B 1_555 1_555
N2B Co1 1_555 1_555
N3B C7B 1_555 1_555
N4B C8B 1_555 1_555
C7B N2B 1_555 1_555
C8B N3B 1_555 1_555
O1B_2 Co1 1_555 1_555
N4A Co1 1_555 1_555
N4C Co1 1_555 1_555
Co1A N4 1_555 1_555
Co1_2 O1B 1_555 1_555
Co1A_2 N4B 1_555 1_555
C5 C6 1_555 1_555
C6B C5B 1_555 1_555

#END
