
#######################################################################
#
#                 Cambridge Crystallographic Data Centre
#                                CCDC 
#
#######################################################################
#
# If this CIF has been generated from an entry in the Cambridge 
# Structural Database, then it will include bibliographic, chemical, 
# crystal, experimental, refinement or atomic coordinate data resulting 
# from the CCDC's data processing and validation procedures.
#
#######################################################################

data_BIKFAD
_symmetry_cell_setting           monoclinic
_symmetry_space_group_name_H-M   'P 21/n'
_symmetry_Int_Tables_number      14
_space_group_name_Hall           '-P 2yn'
loop_
_symmetry_equiv_pos_site_id
_symmetry_equiv_pos_as_xyz
1 x,y,z
2 1/2+x,1/2-y,1/2+z
3 -x,-y,-z
4 1/2-x,1/2+y,1/2-z
_cell_length_a                   7.1642(2)
_cell_length_b                   12.0070(3)
_cell_length_c                   10.3284(2)
_cell_angle_alpha                90
_cell_angle_beta                 105.5870(10)
_cell_angle_gamma                90
_cell_volume                     855.78
loop_
_atom_site_label
_atom_site_type_symbol
_atom_site_fract_x
_atom_site_fract_y
_atom_site_fract_z
Ni1 Ni 0.0000 0.0000 0.0000
O1 O 0.20929(19) -0.03855(10) -0.09998(13)
N1 N 0.2789(2) -0.14241(11) -0.08984(15)
N2 N 0.2197(2) 0.05974(13) 0.16188(16)
N3 N 0.4668(3) 0.15015(13) 0.34138(18)
N4 N 0.4806(2) 0.34543(12) 0.41033(15)
C1 C 0.1684(3) -0.22549(16) -0.1570(2)
H1 H 0.0430 -0.2107 -0.2086
C2 C 0.2397(3) -0.33186(16) -0.1497(2)
H2 H 0.1617 -0.3888 -0.1961
C3 C 0.4247(3) -0.35569(15) -0.0749(2)
C4 C 0.5066(4) -0.47178(17) -0.0633(2)
H3 H 0.4365 -0.5153 -0.1401
H4 H 0.6413 -0.4685 -0.0648
C5 C 0.5317(3) -0.26828(18) -0.0072(2)
H5 H 0.6572 -0.2814 0.0451
C6 C 0.4590(3) -0.16290(17) -0.01476(19)
H6 H 0.5345 -0.1053 0.0322
C7 C 0.3304(3) 0.10615(15) 0.24472(19)
C8 C 0.4627(3) 0.25548(16) 0.37208(17)
C4B C 0.4934(4) -0.52822(17) 0.0633(2)
C3B C 0.5753(3) -0.64431(15) 0.0749(2)
C2B C 0.7603(3) -0.66814(16) 0.1497(2)
C1B C 0.8316(3) -0.77451(16) 0.1570(2)
N1B N 0.7211(2) -0.85759(11) 0.08984(15)
O1B O 0.79071(19) -0.96145(10) 0.09998(13)
C6B C 0.5410(3) -0.83710(17) 0.01476(19)
C5B C 0.4683(3) -0.73172(18) 0.0072(2)
H5B H 0.3428 -0.7186 -0.0451
H6B H 0.4655 -0.8947 -0.0322
H1B H 0.9570 -0.7893 0.2086
H2B H 0.8383 -0.6112 0.1961
H3B H 0.5635 -0.4847 0.1401
H4B H 0.3587 -0.5315 0.0648
N2B N -0.2197(2) -0.05974(13) -0.16188(16)
N3B N -0.4668(3) -0.15015(13) -0.34138(18)
N4B N -0.4806(2) -0.34543(12) -0.41033(15)
C7B C -0.3304(3) -0.10615(15) -0.24472(19)
C8B C -0.4627(3) -0.25548(16) -0.37208(17)
O1B_2 O -0.20929(19) 0.03855(10) 0.09998(13)
N4A N -0.0194(2) 0.15457(12) -0.08967(15)
N4C N 0.0194(2) -0.15457(12) 0.08967(15)
Ni1A Ni 0.5000 0.5000 0.5000
Ni1_2 Ni 1.0000 -1.0000 0.0000
Ni1A_2 Ni -0.5000 -0.5000 -0.5000
loop_
_geom_bond_atom_site_label_1
_geom_bond_atom_site_label_2
_geom_bond_site_symmetry_1
_geom_bond_site_symmetry_2
Ni1 O1 1_555 1_555
O1 N1 1_555 1_555
N1 C1 1_555 1_555
N2 Ni1 1_555 1_555
N3 C7 1_555 1_555
N4 C8 1_555 1_555
C1 H1 1_555 1_555
C2 C1 1_555 1_555
H2 C2 1_555 1_555
C3 C2 1_555 1_555
C4 C3 1_555 1_555
H3 C4 1_555 1_555
H4 C4 1_555 1_555
C5 C3 1_555 1_555
H5 C5 1_555 1_555
C6 N1 1_555 1_555
H6 C6 1_555 1_555
C7 N2 1_555 1_555
C8 N3 1_555 1_555
C4B C4 1_555 1_555
C3B C4B 1_555 1_555
C2B C3B 1_555 1_555
C1B C2B 1_555 1_555
N1B C1B 1_555 1_555
O1B N1B 1_555 1_555
C6B N1B 1_555 1_555
C5B C3B 1_555 1_555
H5B C5B 1_555 1_555
H6B C6B 1_555 1_555
H1B C1B 1_555 1_555
H2B C2B 1_555 1_555
H3B C4B 1_555 1_555
H4B C4B 1_555 1_555
N2B Ni1 1_555 1_555
N3B C7B 1_555 1_555
N4B C8B 1_555 1_555
C7B N2B 1_555 1_555
C8B N3B 1_555 1_555
O1B_2 Ni1 1_555 1_555
N4A Ni1 1_555 1_555
N4C Ni1 1_555 1_555
Ni1A N4 1_555 1_555
Ni1_2 O1B 1_555 1_555
Ni1A_2 N4B 1_555 1_555
C5 C6 1_555 1_555
C6B C5B 1_555 1_555

#END
