
#######################################################################
#
#                 Cambridge Crystallographic Data Centre
#                                CCDC 
#
#######################################################################
#
# If this CIF has been generated from an entry in the Cambridge 
# Structural Database, then it will include bibliographic, chemical, 
# crystal, experimental, refinement or atomic coordinate data resulting 
# from the CCDC's data processing and validation procedures.
#
#######################################################################

data_BIKFUW
_symmetry_cell_setting           monoclinic
_symmetry_space_group_name_H-M   'P 21/c'
_symmetry_Int_Tables_number      14
_space_group_name_Hall           '-P 2ybc'
loop_
_symmetry_equiv_pos_site_id
_symmetry_equiv_pos_as_xyz
1 x,y,z
2 x,1/2-y,1/2+z
3 -x,-y,-z
4 -x,1/2+y,1/2-z
_cell_length_a                   10.798(3)
_cell_length_b                   14.653(4)
_cell_length_c                   13.290(4)
_cell_angle_alpha                90
_cell_angle_beta                 90.95(2)
_cell_angle_gamma                90
_cell_volume                     2102.5
loop_
_atom_site_label
_atom_site_type_symbol
_atom_site_fract_x
_atom_site_fract_y
_atom_site_fract_z
Ag1 Ag 0.75381(4) 0.55635(3) 0.09327(3)
N2 N 0.9163(3) 0.4495(3) 0.0625(3)
C3 C 0.9306(5) 0.4283(3) -0.0441(3)
H7 H 0.8525(5) 0.4055(3) -0.0710(3)
H8 H 0.9925(5) 0.3811(3) -0.0526(3)
C4 C 1.0328(4) 0.4876(4) 0.1018(4)
H9 H 1.0977(4) 0.4421(4) 0.0980(4)
H10 H 1.0230(4) 0.5038(4) 0.1720(4)
C5 C 0.8804(5) 0.3675(3) 0.1196(4)
H11 H 0.9529(5) 0.3292(3) 0.1291(4)
H12 H 0.8202(5) 0.3337(3) 0.0796(4)
C6 C 0.8266(5) 0.3874(4) 0.2209(4)
N3 N 0.7531(4) 0.4602(3) 0.2289(3)
C7 C 0.6979(5) 0.4749(4) 0.3169(4)
H13 H 0.6463(5) 0.5255(4) 0.3219(4)
C8 C 0.7130(6) 0.4197(5) 0.3982(4)
H14 H 0.6715(6) 0.4328(5) 0.4573(4)
C9 C 0.7899(7) 0.3464(5) 0.3911(5)
H15 H 0.8027(7) 0.3093(5) 0.4471(5)
C10 C 0.8492(6) 0.3300(4) 0.3023(4)
H16 H 0.9030(6) 0.2809(4) 0.2964(4)
N4 N 0.5716(3) 0.5829(3) -0.0092(3)
C11 C 0.5569(5) 0.5176(4) -0.0926(4)
H17 H 0.6297(5) 0.5190(4) -0.1345(4)
H18 H 0.4861(5) 0.5355(4) -0.1339(4)
C12 C 0.4616(5) 0.5776(3) 0.0550(4)
H19 H 0.3895(5) 0.5968(3) 0.0159(4)
H20 H 0.4715(5) 0.6190(3) 0.1115(4)
C13 C 0.5890(5) 0.6760(4) -0.0459(4)
H21 H 0.5115(5) 0.6986(4) -0.0741(4)
H22 H 0.6493(5) 0.6753(4) -0.0992(4)
C14 C 0.6360(5) 0.7407(4) 0.0339(4)
N5 N 0.7264(4) 0.7099(3) 0.0955(3)
C15 C 0.7733(5) 0.7671(4) 0.1637(4)
H23 H 0.8353(5) 0.7467(4) 0.2077(4)
C16 C 0.7314(6) 0.8542(5) 0.1766(5)
H24 H 0.7665(6) 0.8921(5) 0.2254(5)
C17 C 0.6381(7) 0.8851(4) 0.1164(6)
H25 H 0.6088(7) 0.9444(4) 0.1232(6)
C18 C 0.5880(5) 0.8270(4) 0.0425(5)
H26 H 0.5242(5) 0.8468(4) 0.0000(5)
C4B C 0.9672(4) 0.5124(4) -0.1018(4)
N2B N 1.0837(3) 0.5505(3) -0.0625(3)
C3B C 1.0694(5) 0.5717(3) 0.0441(3)
H7B H 1.1475(5) 0.5945(3) 0.0710(3)
H8B H 1.0075(5) 0.6189(3) 0.0526(3)
C5B C 1.1196(5) 0.6325(3) -0.1196(4)
H11B H 1.0471(5) 0.6708(3) -0.1291(4)
H12B H 1.1798(5) 0.6663(3) -0.0796(4)
C6B C 1.1734(5) 0.6126(4) -0.2209(4)
N3B N 1.2469(4) 0.5398(3) -0.2289(3)
C7B C 1.3021(5) 0.5251(4) -0.3169(4)
H13B H 1.3537(5) 0.4745(4) -0.3219(4)
C8B C 1.2870(6) 0.5803(5) -0.3982(4)
H14B H 1.3285(6) 0.5672(5) -0.4573(4)
C9B C 1.2101(7) 0.6536(5) -0.3911(5)
H15B H 1.1973(7) 0.6907(5) -0.4471(5)
C10B C 1.1508(6) 0.6700(4) -0.3023(4)
H16B H 1.0970(6) 0.7191(4) -0.2964(4)
H9B H 0.9023(4) 0.5579(4) -0.0980(4)
H10B H 0.9770(4) 0.4962(4) -0.1720(4)
C12B C 0.5384(5) 0.4224(3) -0.0550(4)
N4B N 0.4284(3) 0.4171(3) 0.0092(3)
C11B C 0.4431(5) 0.4824(4) 0.0926(4)
H17B H 0.3703(5) 0.4810(4) 0.1345(4)
H18B H 0.5139(5) 0.4645(4) 0.1339(4)
C13B C 0.4110(5) 0.3240(4) 0.0459(4)
H21B H 0.4885(5) 0.3014(4) 0.0741(4)
H22B H 0.3507(5) 0.3247(4) 0.0992(4)
C14B C 0.3640(5) 0.2593(4) -0.0339(4)
N5B N 0.2736(4) 0.2901(3) -0.0955(3)
C15B C 0.2267(5) 0.2329(4) -0.1637(4)
H23B H 0.1647(5) 0.2533(4) -0.2077(4)
C16B C 0.2686(6) 0.1458(5) -0.1766(5)
H24B H 0.2335(6) 0.1079(5) -0.2254(5)
C17B C 0.3619(7) 0.1149(4) -0.1164(6)
H25B H 0.3912(7) 0.0556(4) -0.1232(6)
C18B C 0.4120(5) 0.1730(4) -0.0425(5)
H26B H 0.4758(5) 0.1532(4) 0.0000(5)
H19B H 0.6105(5) 0.4032(3) -0.0159(4)
H20B H 0.5285(5) 0.3810(3) -0.1115(4)
Ag1B Ag 1.24619(4) 0.44365(3) -0.09327(3)
Ag1B_2 Ag 0.24619(4) 0.44365(3) -0.09327(3)
N2B_2 N 0.0837(3) 0.5505(3) -0.0625(3)
N3B_2 N 0.2469(4) 0.5398(3) -0.2289(3)
N1 N 0.6639(5) 0.1343(4) 0.1848(4)
O1 O 0.6992(5) 0.1894(4) 0.1241(4)
O2 O 0.5560(5) 0.1112(4) 0.1850(4)
O3 O 0.7383(5) 0.0989(4) 0.2466(4)
O4 O 0.9838(4) 0.1456(4) 0.2091(4)
H1 H 0.9109(21) 0.1388(48) 0.2238(39)
C1 C 1.0103(9) 0.0925(7) 0.1188(7)
H2 H 1.0428(9) 0.0329(7) 0.1368(7)
H3 H 0.9357(9) 0.0843(7) 0.0781(7)
C2 C 1.0974(11) 0.1421(8) 0.0667(9)
H4 H 1.0649(39) 0.2016(27) 0.0516(70)
H5 H 1.1162(72) 0.1111(38) 0.0052(38)
H6 H 1.1714(36) 0.1480(60) 0.1072(32)
loop_
_geom_bond_atom_site_label_1
_geom_bond_atom_site_label_2
_geom_bond_site_symmetry_1
_geom_bond_site_symmetry_2
Ag1 N2 1_555 1_555
N1 O1 1_555 1_555
O2 N1 1_555 1_555
O3 N1 1_555 1_555
O4 H1 1_555 1_555
C1 O4 1_555 1_555
H2 C1 1_555 1_555
H3 C1 1_555 1_555
C2 C1 1_555 1_555
H4 C2 1_555 1_555
H5 C2 1_555 1_555
H6 C2 1_555 1_555
N2 C3 1_555 1_555
C3 H7 1_555 1_555
H8 C3 1_555 1_555
C4 N2 1_555 1_555
H9 C4 1_555 1_555
H10 C4 1_555 1_555
C5 N2 1_555 1_555
H11 C5 1_555 1_555
H12 C5 1_555 1_555
C6 C5 1_555 1_555
N3 Ag1 1_555 1_555
C7 N3 1_555 1_555
H13 C7 1_555 1_555
C8 C7 1_555 1_555
H14 C8 1_555 1_555
C9 C8 1_555 1_555
H15 C9 1_555 1_555
C10 C6 1_555 1_555
H16 C10 1_555 1_555
N4 Ag1 1_555 1_555
C11 N4 1_555 1_555
H17 C11 1_555 1_555
H18 C11 1_555 1_555
C12 N4 1_555 1_555
H19 C12 1_555 1_555
H20 C12 1_555 1_555
C13 N4 1_555 1_555
H21 C13 1_555 1_555
H22 C13 1_555 1_555
C14 C13 1_555 1_555
N5 Ag1 1_555 1_555
C15 N5 1_555 1_555
H23 C15 1_555 1_555
C16 C15 1_555 1_555
H24 C16 1_555 1_555
C17 C16 1_555 1_555
H25 C17 1_555 1_555
C18 C14 1_555 1_555
H26 C18 1_555 1_555
C4B C3 1_555 1_555
N2B C4B 1_555 1_555
C3B C4 1_555 1_555
H7B C3B 1_555 1_555
H8B C3B 1_555 1_555
C5B N2B 1_555 1_555
H11B C5B 1_555 1_555
H12B C5B 1_555 1_555
C6B C5B 1_555 1_555
N3B C6B 1_555 1_555
C7B N3B 1_555 1_555
H13B C7B 1_555 1_555
C8B C7B 1_555 1_555
H14B C8B 1_555 1_555
C9B C8B 1_555 1_555
H15B C9B 1_555 1_555
C10B C6B 1_555 1_555
H16B C10B 1_555 1_555
H9B C4B 1_555 1_555
H10B C4B 1_555 1_555
C12B C11 1_555 1_555
N4B C12B 1_555 1_555
C11B C12 1_555 1_555
H17B C11B 1_555 1_555
H18B C11B 1_555 1_555
C13B N4B 1_555 1_555
H21B C13B 1_555 1_555
H22B C13B 1_555 1_555
C14B C13B 1_555 1_555
N5B C14B 1_555 1_555
C15B N5B 1_555 1_555
H23B C15B 1_555 1_555
C16B C15B 1_555 1_555
H24B C16B 1_555 1_555
C17B C16B 1_555 1_555
H25B C17B 1_555 1_555
C18B C14B 1_555 1_555
H26B C18B 1_555 1_555
H19B C12B 1_555 1_555
H20B C12B 1_555 1_555
Ag1B N2B 1_555 1_555
Ag1B_2 N4B 1_555 1_555
N2B_2 Ag1B_2 1_555 1_555
N3B_2 Ag1B_2 1_555 1_555
C6 N3 1_555 1_555
C9 C10 1_555 1_555
C14 N5 1_555 1_555
C17 C18 1_555 1_555
N2B C3B 1_555 1_555
N3B Ag1B 1_555 1_555
C9B C10B 1_555 1_555
N4B C11B 1_555 1_555
N5B Ag1B_2 1_555 1_555
C17B C18B 1_555 1_555

#END
