
#######################################################################
#
#                 Cambridge Crystallographic Data Centre
#                                CCDC 
#
#######################################################################
#
# If this CIF has been generated from an entry in the Cambridge 
# Structural Database, then it will include bibliographic, chemical, 
# crystal, experimental, refinement or atomic coordinate data resulting 
# from the CCDC's data processing and validation procedures.
#
#######################################################################

data_BIKGAD
_symmetry_cell_setting           triclinic
_symmetry_space_group_name_H-M   'P -1'
_symmetry_Int_Tables_number      2
_space_group_name_Hall           '-P 1'
loop_
_symmetry_equiv_pos_site_id
_symmetry_equiv_pos_as_xyz
1 x,y,z
2 -x,-y,-z
_cell_length_a                   10.832(1)
_cell_length_b                   11.017(3)
_cell_length_c                   11.181(1)
_cell_angle_alpha                102.06(1)
_cell_angle_beta                 114.86(1)
_cell_angle_gamma                66.10(1)
_cell_volume                     1105.65
loop_
_atom_site_label
_atom_site_type_symbol
_atom_site_fract_x
_atom_site_fract_y
_atom_site_fract_z
S1 S 0.4359(5) 0.9608(4) 0.8712(4)
O1 O 0.4978(15) 0.8358(11) 0.8233(12)
O2 O 0.3495(14) 0.9685(12) 0.9404(12)
O3 O 0.5264(14) 1.0380(12) 0.9314(12)
C1 C 0.3134(15) 1.0379(14) 0.7251(15)
F1 F 0.3666(14) 1.0458(14) 0.6428(13)
F2 F 0.2332(14) 1.1632(13) 0.7448(13)
F3 F 0.2174(14) 0.9860(14) 0.6557(13)
Ag1 Ag 0.20715(6) 0.67215(6) 0.06195(6)
N1 N -0.0269(6) 0.6391(5) -0.0026(5)
C3 C -0.0384(8) 0.5866(7) 0.1014(7)
H1 H -0.1382(8) 0.5932(7) 0.0758(7)
H2 H -0.0137(8) 0.6400(7) 0.1825(7)
C4 C 0.4985(8) 0.6272(7) -0.0017(8)
H3 H 0.6019(8) 0.6103(7) 0.0294(8)
H4 H 0.4461(8) 0.7205(7) -0.0208(8)
N2 N 0.4664(6) 0.5976(5) 0.1017(6)
C5 C 0.5447(8) 0.4562(7) 0.1250(7)
H5 H 0.5243(8) 0.4333(7) 0.1922(7)
H6 H 0.6486(8) 0.4373(7) 0.1573(7)
C6 C -0.0596(8) 0.5537(8) -0.1248(7)
H7 H -0.1599(8) 0.5596(8) -0.1558(7)
H8 H -0.0484(8) 0.5856(8) -0.1929(7)
C7 C -0.1239(8) 0.7771(8) -0.0240(8)
H9 H -0.1086(8) 0.8263(8) 0.0605(8)
H10 H -0.2239(8) 0.7809(8) -0.0611(8)
C8 C 0.5140(8) 0.6800(8) 0.2214(8)
H11 H 0.4755(8) 0.7715(8) 0.1975(8)
H12 H 0.6195(8) 0.6509(8) 0.2562(8)
N3 N 0.3316(7) 0.6710(6) 0.2893(6)
C9 C 0.2841(9) 0.6737(9) 0.3823(8)
H13 H 0.1917(9) 0.6702(9) 0.3554(8)
C10 C 0.3624(10) 0.6812(10) 0.5153(9)
H14 H 0.3247(10) 0.6846(10) 0.5774(9)
C11 C 0.5003(12) 0.6835(11) 0.5521(9)
H15 H 0.5583(12) 0.6877(11) 0.6410(9)
C12 C 0.5519(9) 0.6794(9) 0.4581(8)
H16 H 0.6451(9) 0.6801(9) 0.4831(8)
C13 C 0.4664(7) 0.6744(7) 0.3280(7)
N4 N 0.0337(7) 0.8263(6) -0.0891(6)
C14 C -0.1020(8) 0.8428(7) -0.1137(8)
C15 C -0.2184(10) 0.9203(8) -0.2151(10)
H17 H -0.3134(10) 0.9310(8) -0.2304(10)
C16 C -0.1914(13) 0.9808(9) -0.2925(10)
H18 H -0.2675(13) 1.0326(9) -0.3612(10)
C17 C -0.0499(12) 0.9631(9) -0.2662(10)
H19 H -0.0280(12) 1.0029(9) -0.3165(10)
C18 C 0.0578(11) 0.8859(9) -0.1651(9)
H20 H 0.1537(11) 0.8741(9) -0.1480(9)
C6A C 0.0596(8) 0.4463(8) 0.1248(7)
C5A C 0.4553(8) 0.5438(7) -0.1250(7)
C4A C 0.5015(8) 0.3728(7) 0.0017(8)
C3A C 0.0384(8) 0.4134(7) -0.1014(7)
S2? S -0.0139(4) 0.4284(5) 0.4685(5)
O4? O 0.1034(23) 0.3458(24) 0.4246(22)
O5? O -0.1469(19) 0.4287(21) 0.3675(18)
O6? O -0.0046(25) 0.3747(21) 0.5800(16)
C2? C -0.0139(4) 0.4284(5) 0.4685(5)
F4? F 0.1013(16) 0.3266(19) 0.4681(19)
F5? F -0.1060(15) 0.4561(18) 0.3330(16)
F6? F -0.0978(16) 0.4019(17) 0.5056(18)
loop_
_geom_bond_atom_site_label_1
_geom_bond_atom_site_label_2
_geom_bond_site_symmetry_1
_geom_bond_site_symmetry_2
Ag1 N1 1_555 1_555
S1 O1 1_555 1_555
O2 S1 1_555 1_555
O3 S1 1_555 1_555
C1 S1 1_555 1_555
F1 C1 1_555 1_555
F2 C1 1_555 1_555
F3 C1 1_555 1_555
N1 C3 1_555 1_555
C3 H1 1_555 1_555
H2 C3 1_555 1_555
C4 H3 1_555 1_555
H4 C4 1_555 1_555
N2 Ag1 1_555 1_555
C5 N2 1_555 1_555
H5 C5 1_555 1_555
H6 C5 1_555 1_555
C6 N1 1_555 1_555
H7 C6 1_555 1_555
H8 C6 1_555 1_555
C7 N1 1_555 1_555
H9 C7 1_555 1_555
H10 C7 1_555 1_555
C8 N2 1_555 1_555
H11 C8 1_555 1_555
H12 C8 1_555 1_555
N3 Ag1 1_555 1_555
C9 N3 1_555 1_555
H13 C9 1_555 1_555
C10 C9 1_555 1_555
H14 C10 1_555 1_555
C11 C10 1_555 1_555
H15 C11 1_555 1_555
C12 C11 1_555 1_555
H16 C12 1_555 1_555
C13 C8 1_555 1_555
N4 Ag1 1_555 1_555
C14 C7 1_555 1_555
C15 C14 1_555 1_555
H17 C15 1_555 1_555
C16 C15 1_555 1_555
H18 C16 1_555 1_555
C17 C16 1_555 1_555
H19 C17 1_555 1_555
C18 N4 1_555 1_555
H20 C18 1_555 1_555
C6A C3 1_555 1_555
C5A C4 1_555 1_555
C4A C5 1_555 1_555
C3A C6 1_555 1_555
C4 N2 1_555 1_555
N3 C13 1_555 1_555
C12 C13 1_555 1_555
N4 C14 1_555 1_555
C17 C18 1_555 1_555

#END
