
#######################################################################
#
#                 Cambridge Crystallographic Data Centre
#                                CCDC 
#
#######################################################################
#
# If this CIF has been generated from an entry in the Cambridge 
# Structural Database, then it will include bibliographic, chemical, 
# crystal, experimental, refinement or atomic coordinate data resulting 
# from the CCDC's data processing and validation procedures.
#
#######################################################################

data_BIKHEK
_symmetry_cell_setting           orthorhombic
_symmetry_space_group_name_H-M   'P b c a'
_symmetry_Int_Tables_number      61
_space_group_name_Hall           '-P 2ac 2ab'
loop_
_symmetry_equiv_pos_site_id
_symmetry_equiv_pos_as_xyz
1 x,y,z
2 1/2-x,-y,1/2+z
3 -x,1/2+y,1/2-z
4 1/2+x,1/2-y,-z
5 -x,-y,-z
6 1/2+x,y,1/2-z
7 x,1/2-y,1/2+z
8 1/2-x,1/2+y,z
_cell_length_a                   10.8122(10)
_cell_length_b                   11.1482(11)
_cell_length_c                   31.445(3)
_cell_angle_alpha                90
_cell_angle_beta                 90
_cell_angle_gamma                90
_cell_volume                     3790.27
loop_
_atom_site_label
_atom_site_type_symbol
_atom_site_fract_x
_atom_site_fract_y
_atom_site_fract_z
C1 C 1.1029(3) 1.1583(2) 0.64570(9)
C2 C 1.1534(3) 1.1239(3) 0.68479(8)
H1 H 1.1951 1.1795 0.7021
C3 C 1.1404(3) 1.0082(2) 0.69683(8)
H2 H 1.1750 0.9792 0.7223
C4 C 1.0728(2) 0.9335(2) 0.66953(7)
C5 C 0.9448(2) 0.6483(2) 0.65270(8)
C6 C 0.9830(3) 0.5643(2) 0.68693(9)
H3 H 0.9162 0.5556 0.7073
H4 H 1.0557 0.5956 0.7012
H5 H 1.0022 0.4866 0.6746
C7 C 0.8588(2) 0.6148(2) 0.61827(7)
C8 C 0.7971(2) 0.5066(2) 0.61668(8)
H6 H 0.8157 0.4471 0.6369
C9 C 0.6908(2) 0.5678(2) 0.55771(8)
H7 H 0.6324 0.5534 0.5362
C10 C 0.7545(2) 0.6763(2) 0.55834(7)
H8 H 0.7399 0.7332 0.5369
Cl1 Cl 1.12431(9) 1.30296(6) 0.62821(3)
Cu1 Cu 0.92658(3) 0.85487(3) 0.600874(9)
H9 H 1.0871(17) 0.893(3) 0.5462(10)
N1 N 1.0406(2) 1.08842(19) 0.62052(7)
N2 N 1.0251(2) 0.97370(18) 0.63318(6)
N3 N 1.05386(19) 0.81424(19) 0.67811(7)
H10 H 1.0868 0.7778 0.6998
N4 N 0.97855(18) 0.75809(17) 0.64948(6)
N5 N 0.83549(18) 0.70055(17) 0.58881(6)
N6 N 0.71131(18) 0.48434(17) 0.58702(6)
O1 O 1.01547(18) 0.87857(18) 0.54410(6)
H11 H 0.9962 0.8236 0.5276
Cu1G Cu 0.57342(3) 0.35487(3) 0.600874(9)
N6G N 0.78869(18) 0.98434(17) 0.58702(6)
Cl2 Cl 0.17530(6) 0.73434(6) 0.78798(2)
O2 O 0.0643(2) 0.7767(2) 0.76736(7)
O3 O 0.2791(3) 0.7937(3) 0.76994(9)
O4 O 0.1674(2) 0.7599(2) 0.83228(6)
O5 O 0.1868(3) 0.6094(2) 0.78164(10)
Cl3 Cl 0.32906(6) 0.05652(6) 0.55472(2)
O6 O 0.2737(3) 0.1540(3) 0.53408(11)
O7 O 0.3287(3) 0.0716(3) 0.59932(9)
O8 O 0.2629(3) -0.0509(3) 0.54563(11)
O9 O 0.4542(2) 0.0393(3) 0.54215(10)
H12 H 0.916(2) 0.759(3) 0.4653(12)
H13 H 0.984(5) 0.6620(18) 0.4794(17)
O10 O 0.9814(3) 0.7358(2) 0.47820(8)
loop_
_geom_bond_atom_site_label_1
_geom_bond_atom_site_label_2
_geom_bond_site_symmetry_1
_geom_bond_site_symmetry_2
C1 C2 1_555 1_555
C2 H1 1_555 1_555
C3 C2 1_555 1_555
H2 C3 1_555 1_555
C4 C3 1_555 1_555
C5 C6 1_555 1_555
C6 H3 1_555 1_555
H4 C6 1_555 1_555
H5 C6 1_555 1_555
C7 C5 1_555 1_555
C8 C7 1_555 1_555
H6 C8 1_555 1_555
C9 H7 1_555 1_555
C10 C9 1_555 1_555
H8 C10 1_555 1_555
Cl1 C1 1_555 1_555
Cu1 N2 1_555 1_555
H9 O1 1_555 1_555
N1 C1 1_555 1_555
N2 C4 1_555 1_555
N3 C4 1_555 1_555
H10 N3 1_555 1_555
N4 C5 1_555 1_555
N5 C7 1_555 1_555
N6 C8 1_555 1_555
O1 Cu1 1_555 1_555
H11 O1 1_555 1_555
Cl2 O2 1_555 1_555
O3 Cl2 1_555 1_555
O4 Cl2 1_555 1_555
O5 Cl2 1_555 1_555
Cl3 O6 1_555 1_555
O7 Cl3 1_555 1_555
O8 Cl3 1_555 1_555
O9 Cl3 1_555 1_555
H12 O10 1_555 1_555
H13 O10 1_555 1_555
Cu1G N6 1_555 1_555
N6G Cu1 1_555 1_555
C9 N6 1_555 1_555
C10 N5 1_555 1_555
Cu1 N4 1_555 1_555
Cu1 N5 1_555 1_555
N1 N2 1_555 1_555
N3 N4 1_555 1_555

#END
