
#######################################################################
#
#                 Cambridge Crystallographic Data Centre
#                                CCDC 
#
#######################################################################
#
# If this CIF has been generated from an entry in the Cambridge 
# Structural Database, then it will include bibliographic, chemical, 
# crystal, experimental, refinement or atomic coordinate data resulting 
# from the CCDC's data processing and validation procedures.
#
#######################################################################

data_BIKKUB
_symmetry_cell_setting           orthorhombic
_symmetry_space_group_name_H-M   'P 21 21 21'
_symmetry_Int_Tables_number      19
_space_group_name_Hall           'P 2ac 2ab'
loop_
_symmetry_equiv_pos_site_id
_symmetry_equiv_pos_as_xyz
1 x,y,z
2 1/2-x,-y,1/2+z
3 1/2+x,1/2-y,-z
4 -x,1/2+y,1/2-z
_cell_length_a                   3.982(8)
_cell_length_b                   9.786(4)
_cell_length_c                   15.758(13)
_cell_angle_alpha                90
_cell_angle_beta                 90
_cell_angle_gamma                90
_cell_volume                     614.055
loop_
_atom_site_label
_atom_site_type_symbol
_atom_site_fract_x
_atom_site_fract_y
_atom_site_fract_z
Br1 Br 0.95070 0.66510 -0.09470
Cu1 Cu 0.46330 0.62680 -0.00130
N1 N 0.41080 0.45230 0.05560
C1 C 0.35050 0.35430 0.08980
C2 C 0.25760 0.22510 0.13030
C3 C 0.14400 0.22320 0.20690
C4 C 0.05770 0.09130 0.25040
Cu1_2 Cu 1.46330 0.62680 -0.00130
Cu1B Cu 0.96330 0.87320 0.00130
Br1_2 Br -0.04930 0.66510 -0.09470
Br1B Br 0.45070 0.83490 0.09470
Br1B_2 Br 1.45070 0.83490 0.09470
N1B N 0.91080 1.04770 -0.05560
Cu1B_2 Cu -0.03670 0.87320 0.00130
C1B C 0.85050 1.14570 -0.08980
C2B C 0.75760 1.27490 -0.13030
C3B C 0.64400 1.27680 -0.20690
C4B C 0.55770 1.40870 -0.25040
loop_
_geom_bond_atom_site_label_1
_geom_bond_atom_site_label_2
_geom_bond_site_symmetry_1
_geom_bond_site_symmetry_2
Br1 Cu1 1_555 1_555
Cu1 N1 1_555 1_555
N1 C1 1_555 1_555
C1 C2 1_555 1_555
C2 C3 1_555 1_555
C3 C4 1_555 1_555
Cu1_2 Br1 1_555 1_555
Cu1B Br1 1_555 1_555
Br1_2 Cu1 1_555 1_555
Br1B Cu1 1_555 1_555
Br1B_2 Cu1B 1_555 1_555
N1B Cu1B 1_555 1_555
Cu1B_2 Br1B 1_555 1_555
C1B N1B 1_555 1_555
C2B C1B 1_555 1_555
C3B C2B 1_555 1_555
C4B C3B 1_555 1_555
Cu1B Br1B 1_555 1_555

#END
