
#######################################################################
#
#                 Cambridge Crystallographic Data Centre
#                                CCDC 
#
#######################################################################
#
# If this CIF has been generated from an entry in the Cambridge 
# Structural Database, then it will include bibliographic, chemical, 
# crystal, experimental, refinement or atomic coordinate data resulting 
# from the CCDC's data processing and validation procedures.
#
#######################################################################

data_BIKLIS
_symmetry_cell_setting           triclinic
_symmetry_space_group_name_H-M   'P -1'
_symmetry_Int_Tables_number      2
_space_group_name_Hall           '-P 1'
loop_
_symmetry_equiv_pos_site_id
_symmetry_equiv_pos_as_xyz
1 x,y,z
2 -x,-y,-z
_cell_length_a                   10.2137(8)
_cell_length_b                   11.6628(13)
_cell_length_c                   15.7133(13)
_cell_angle_alpha                85.055(8)
_cell_angle_beta                 82.932(7)
_cell_angle_gamma                69.038(9)
_cell_volume                     1732.82
loop_
_atom_site_label
_atom_site_type_symbol
_atom_site_fract_x
_atom_site_fract_y
_atom_site_fract_z
C1 C 0.2235(3) 0.8063(3) -0.10585(17)
C2 C 0.0940(3) 0.7862(3) -0.12913(17)
C3 C 0.1131(3) 0.7122(3) -0.19708(17)
H1 H 0.2036 0.6734 -0.2231
C4 C 0.0002(3) 0.6950(3) -0.22693(17)
C5 C -0.1342(3) 0.7481(3) -0.18695(17)
H2 H -0.2103 0.7366 -0.2071
C6 C -0.1547(3) 0.8188(3) -0.11647(17)
C7 C -0.3008(3) 0.8684(3) -0.06935(17)
C8 C -0.0416(3) 0.8413(2) -0.08853(17)
H3 H -0.0565 0.8925 -0.0434
C9 C 0.3603(3) 0.8245(3) 0.1173(2)
H4 H 0.2937 0.9035 0.1196
C10 C 0.3818(3) 0.7530(3) 0.1919(2)
H5 H 0.3335 0.7850 0.2436
C11 C 0.4750(3) 0.6339(3) 0.19016(19)
C12 C 0.4985(3) 0.5598(3) 0.27378(19)
C13 C 0.5696(3) 0.3565(3) 0.3473(2)
H6 H 0.6070 0.3949 0.3860
H7 H 0.6439 0.2809 0.3297
C14 C 0.4481(3) 0.3248(3) 0.3960(2)
H8 H 0.4042 0.2950 0.3557
H9 H 0.4859 0.2581 0.4375
C15 C 0.3357(3) 0.4294(3) 0.4425(2)
H10 H 0.2920 0.4941 0.4009
H11 H 0.3793 0.4629 0.4806
C16 C 0.2220(3) 0.3887(3) 0.49477(19)
H12 H 0.1415 0.4609 0.5111
H13 H 0.1911 0.3412 0.4592
C17 C 0.3147(3) 0.1935(3) 0.57791(19)
C18 C 0.3448(3) 0.1318(3) 0.66479(18)
C19 C 0.4147(4) 0.0058(3) 0.6703(2)
H14 H 0.4491 -0.0378 0.6206
C20 C 0.2986(3) 0.1911(3) 0.74139(19)
H15 H 0.2539 0.2760 0.7410
C21 C 0.5429(4) 0.5907(3) 0.1116(2)
H16 H 0.6030 0.5095 0.1069
C22 C 0.5199(4) 0.6703(3) 0.0401(2)
H17 H 0.5698 0.6415 -0.0120
C23 C 0.4330(4) -0.0542(3) 0.7488(2)
H18 H 0.4818 -0.1386 0.7508
C24 C 0.3192(3) 0.1238(3) 0.8179(2)
H19 H 0.2861 0.1650 0.8687
N1 N 0.4301(2) 0.7862(2) 0.04168(15)
N2 N 0.5325(3) 0.4381(2) 0.27174(16)
H20 H 0.5325 0.4070 0.2241
N3 N 0.2716(3) 0.3148(2) 0.57201(15)
H21 H 0.2728 0.3525 0.6164
N4 N 0.3847(2) 0.0016(2) 0.82295(15)
O1 O 0.20673(19) 0.90147(18) -0.06740(12)
O2 O 0.3418(2) 0.7294(2) -0.12930(14)
O3 O 0.1643(2) 0.5046(2) -0.30595(15)
O4 O -0.0870(2) 0.5642(2) -0.31440(13)
O5 O 0.0418(3) 0.6843(2) -0.39195(13)
O6 O -0.3219(2) 0.9316(2) -0.00718(13)
O7 O -0.39274(19) 0.8373(2) -0.09942(13)
O8 O 0.4854(3) 0.6121(2) 0.34081(14)
O9 O 0.3271(2) 0.1290(2) 0.51673(14)
S1 S 0.03279(8) 0.60348(7) -0.31666(4)
Cu1 Cu 0.40405(3) 0.89761(3) -0.06556(2)
N4_2 N 0.3847(2) 1.0016(2) -0.17705(15)
O6A O 0.3219(2) 1.0684(2) 0.00718(13)
O7_2 O 0.60726(19) 0.8373(2) -0.09942(13)
Cu1_2 Cu -0.59595(3) 0.89761(3) -0.06556(2)
Cu1_3 Cu 0.40405(3) -0.10239(3) 0.93444(2)
Cu1A Cu -0.40405(3) 1.10239(3) 0.06556(2)
C25 C 0.0349(3) 0.7868(3) 0.39448(19)
H22 H 0.0446 0.7438 0.4474
C26 C 0.0507(3) 0.7214(3) 0.32249(19)
H23 H 0.0696 0.6371 0.3274
C27 C 0.0382(3) 0.7830(3) 0.24239(18)
C28 C 0.0611(3) 0.7236(3) 0.15725(19)
C29 C 0.1102(4) 0.5391(3) 0.0777(2)
H24 H 0.1727 0.4553 0.0882
H25 H 0.1598 0.5782 0.0351
C30 C -0.0188(4) 0.5359(3) 0.0414(2)
H26 H -0.0805 0.6194 0.0292
H27 H -0.0697 0.4981 0.0840
C31 C 0.0049(3) 0.9089(3) 0.2408(2)
H28 H -0.0075 0.9543 0.1888
C32 C -0.0100(3) 0.9676(3) 0.31570(19)
H29 H -0.0324 1.0524 0.3127
N5 N 0.0065(3) 0.9078(2) 0.39293(15)
N6 N 0.0792(3) 0.6044(3) 0.15763(16)
H30 H 0.0724 0.5650 0.2058
O10 O -0.1621(3) 0.9228(2) 0.57962(16)
H31 H -0.1767 0.8917 0.6292
H32 H -0.1904 0.8886 0.5437
O11 O -0.1602(2) 1.1444(2) 0.45550(14)
H33 H -0.1489 1.0791 0.4307
H34 H -0.1472 1.1964 0.4172
O12 O 0.0658(4) 0.7852(2) 0.09141(15)
Cu2 Cu 0.0000 1.0000 0.5000
C25A C -0.0349(3) 0.2132(3) -0.39448(19)
H22A H -0.0446 0.2562 -0.4474
C26A C -0.0507(3) 0.2786(3) -0.32249(19)
H23A H -0.0696 0.3629 -0.3274
C27A C -0.0382(3) 0.2170(3) -0.24239(18)
C28A C -0.0611(3) 0.2764(3) -0.15725(19)
C29A C -0.1102(4) 0.4609(3) -0.0777(2)
H24A H -0.1727 0.5447 -0.0882
H25A H -0.1598 0.4218 -0.0351
C30A C 0.0188(4) 0.4641(3) -0.0414(2)
H26A H 0.0805 0.3806 -0.0292
H27A H 0.0697 0.5019 -0.0840
C31A C -0.0049(3) 0.0911(3) -0.2408(2)
H28A H 0.0075 0.0457 -0.1888
C32A C 0.0100(3) 0.0324(3) -0.31570(19)
H29A H 0.0324 -0.0524 -0.3127
N5A N -0.0065(3) 0.0922(2) -0.39293(15)
N6A N -0.0792(3) 0.3956(3) -0.15763(16)
H30A H -0.0724 0.4350 -0.2058
O12A O -0.0658(4) 0.2148(2) -0.09141(15)
O10A O 0.1621(3) 1.0772(2) 0.42038(16)
H31A H 0.1767 1.1083 0.3708
H32A H 0.1904 1.1114 0.4563
O11A O 0.1602(2) 0.8556(2) 0.54450(14)
H33A H 0.1489 0.9209 0.5693
H34A H 0.1472 0.8036 0.5828
N5A_2 N -0.0065(3) 1.0922(2) 0.60707(15)
Cu2_2 Cu 0.0000 0.0000 -0.5000
O13 O 0.6393(3) 0.1756(3) 0.57681(18)
H35 H 0.6096 0.2454 0.5990
H36 H 0.5915 0.1340 0.6023
loop_
_geom_bond_atom_site_label_1
_geom_bond_atom_site_label_2
_geom_bond_site_symmetry_1
_geom_bond_site_symmetry_2
C1 C2 1_555 1_555
C2 C3 1_555 1_555
C3 H1 1_555 1_555
C4 C3 1_555 1_555
C5 C4 1_555 1_555
H2 C5 1_555 1_555
C6 C5 1_555 1_555
C7 C6 1_555 1_555
C8 C2 1_555 1_555
H3 C8 1_555 1_555
C9 H4 1_555 1_555
C10 C9 1_555 1_555
H5 C10 1_555 1_555
C11 C10 1_555 1_555
C12 C11 1_555 1_555
C13 H6 1_555 1_555
H7 C13 1_555 1_555
C14 C13 1_555 1_555
H8 C14 1_555 1_555
H9 C14 1_555 1_555
C15 C14 1_555 1_555
H10 C15 1_555 1_555
H11 C15 1_555 1_555
C16 C15 1_555 1_555
H12 C16 1_555 1_555
H13 C16 1_555 1_555
C17 C18 1_555 1_555
C18 C19 1_555 1_555
C19 H14 1_555 1_555
C20 C18 1_555 1_555
H15 C20 1_555 1_555
C21 C11 1_555 1_555
H16 C21 1_555 1_555
C22 C21 1_555 1_555
H17 C22 1_555 1_555
C23 C19 1_555 1_555
H18 C23 1_555 1_555
C24 C20 1_555 1_555
H19 C24 1_555 1_555
N1 C9 1_555 1_555
N2 C12 1_555 1_555
H20 N2 1_555 1_555
N3 C16 1_555 1_555
H21 N3 1_555 1_555
N4 C23 1_555 1_555
O1 C1 1_555 1_555
O2 C1 1_555 1_555
O3 S1 1_555 1_555
O4 S1 1_555 1_555
O5 S1 1_555 1_555
O6 C7 1_555 1_555
O7 C7 1_555 1_555
O8 C12 1_555 1_555
O9 C17 1_555 1_555
S1 C4 1_555 1_555
Cu1 N1 1_555 1_555
C25 H22 1_555 1_555
C26 C25 1_555 1_555
H23 C26 1_555 1_555
C27 C26 1_555 1_555
C28 C27 1_555 1_555
C29 H24 1_555 1_555
H25 C29 1_555 1_555
C30 C29 1_555 1_555
H26 C30 1_555 1_555
H27 C30 1_555 1_555
C31 C27 1_555 1_555
H28 C31 1_555 1_555
C32 C31 1_555 1_555
H29 C32 1_555 1_555
N5 C25 1_555 1_555
N6 C28 1_555 1_555
H30 N6 1_555 1_555
O10 H31 1_555 1_555
H32 O10 1_555 1_555
O11 H33 1_555 1_555
H34 O11 1_555 1_555
O12 C28 1_555 1_555
Cu2 N5 1_555 1_555
O13 H35 1_555 1_555
H36 O13 1_555 1_555
N4_2 Cu1 1_555 1_555
O6A Cu1 1_555 1_555
O7_2 Cu1 1_555 1_555
Cu1_2 O7 1_555 1_555
Cu1_3 N4 1_555 1_555
Cu1A O6 1_555 1_555
C25A H22A 1_555 1_555
C26A C25A 1_555 1_555
H23A C26A 1_555 1_555
C27A C26A 1_555 1_555
C28A C27A 1_555 1_555
C29A H24A 1_555 1_555
H25A C29A 1_555 1_555
C30A C30 1_555 1_555
H26A C30A 1_555 1_555
H27A C30A 1_555 1_555
C31A C27A 1_555 1_555
H28A C31A 1_555 1_555
C32A C31A 1_555 1_555
H29A C32A 1_555 1_555
N5A C25A 1_555 1_555
N6A C28A 1_555 1_555
H30A N6A 1_555 1_555
O12A C28A 1_555 1_555
O10A Cu2 1_555 1_555
H31A O10A 1_555 1_555
H32A O10A 1_555 1_555
O11A Cu2 1_555 1_555
H33A O11A 1_555 1_555
H34A O11A 1_555 1_555
N5A_2 Cu2 1_555 1_555
Cu2_2 N5A 1_555 1_555
C6 C8 1_555 1_555
C13 N2 1_555 1_555
C17 N3 1_555 1_555
C22 N1 1_555 1_555
C24 N4 1_555 1_555
O1 Cu1 1_555 1_555
O2 Cu1 1_555 1_555
C29 N6 1_555 1_555
C32 N5 1_555 1_555
O10 Cu2 1_555 1_555
O11 Cu2 1_555 1_555
C29A C30A 1_555 1_555
C29A N6A 1_555 1_555
C32A N5A 1_555 1_555

#END
