
#######################################################################
#
#                 Cambridge Crystallographic Data Centre
#                                CCDC 
#
#######################################################################
#
# If this CIF has been generated from an entry in the Cambridge 
# Structural Database, then it will include bibliographic, chemical, 
# crystal, experimental, refinement or atomic coordinate data resulting 
# from the CCDC's data processing and validation procedures.
#
#######################################################################

data_BIKMIT
_symmetry_cell_setting           monoclinic
_symmetry_space_group_name_H-M   'C 2/c'
_symmetry_Int_Tables_number      15
_space_group_name_Hall           '-C 2yn'
loop_
_symmetry_equiv_pos_site_id
_symmetry_equiv_pos_as_xyz
1 x,y,z
2 -x,y,1/2-z
3 1/2+x,1/2+y,z
4 1/2-x,1/2+y,1/2-z
5 -x,-y,-z
6 x,-y,1/2+z
7 1/2-x,1/2-y,-z
8 1/2+x,1/2-y,1/2+z
_cell_length_a                   15.7287(15)
_cell_length_b                   11.0470(11)
_cell_length_c                   7.6952(5)
_cell_angle_alpha                90
_cell_angle_beta                 100.3870(10)
_cell_angle_gamma                90
_cell_volume                     1315.17
loop_
_atom_site_label
_atom_site_type_symbol
_atom_site_fract_x
_atom_site_fract_y
_atom_site_fract_z
Cu1 Cu 0.702693(19) 0.68698(3) 0.63838(4)
N1 N 0.58002(13) 0.6966(2) 0.6987(3)
N2 N 0.82190(14) 0.7366(3) 0.6003(3)
N3 N 0.87850(15) 0.7514(3) 0.7257(3)
N4 N 0.93018(18) 0.7628(4) 0.8480(4)
N5 N 0.75329(16) 0.6372(3) 0.8795(3)
N6 N 0.71921(14) 0.5702(2) 0.9635(3)
N7 N 0.68717(18) 0.5073(3) 1.0519(4)
C1 C 0.54135(16) 0.8011(3) 0.7268(3)
C2 C 0.53926(16) 0.5931(3) 0.7229(3)
H1 H 0.5647 0.5197 0.7026
C3 C 0.5889(2) 0.9161(3) 0.7095(4)
H2 H 0.6462 0.8978 0.6902
H3 H 0.5925 0.9627 0.8159
H4 H 0.5588 0.9618 0.6113
N1A N 0.41998(13) 0.6966(2) 0.8013(3)
C1A C 0.45865(16) 0.8011(3) 0.7732(3)
C2A C 0.46074(16) 0.5931(3) 0.7771(3)
H1A H 0.4353 0.5197 0.7974
C3A C 0.4111(2) 0.9161(3) 0.7905(4)
H2A H 0.3538 0.8978 0.8098
H3A H 0.4075 0.9627 0.6841
H4A H 0.4412 0.9618 0.8887
Cu1A Cu 0.297307(19) 0.68698(3) 0.86162(4)
N2A N 0.17810(14) 0.7366(3) 0.8997(3)
N3A N 0.12150(15) 0.7514(3) 0.7743(3)
N4A N 0.06982(18) 0.7628(4) 0.6520(4)
N5A N 0.24671(16) 0.6372(3) 0.6205(3)
N6A N 0.28079(14) 0.5702(2) 0.5365(3)
N7A N 0.31283(18) 0.5073(3) 0.4481(4)
Cu1D Cu 0.297307(19) 0.31302(3) 0.36162(4)
Cu1E Cu 0.702693(19) 0.31302(3) 1.13838(4)
Cu1F Cu 0.797307(19) 0.81302(3) 0.36162(4)
Cu1G Cu 0.202693(19) 0.81302(3) 1.13838(4)
N2F N 0.67810(14) 0.7634(3) 0.3997(3)
N2G N 0.32190(14) 0.7634(3) 1.1003(3)
N7D N 0.31283(18) 0.4927(3) 0.9481(4)
N7E N 0.68717(18) 0.4927(3) 0.5519(4)
loop_
_geom_bond_atom_site_label_1
_geom_bond_atom_site_label_2
_geom_bond_site_symmetry_1
_geom_bond_site_symmetry_2
Cu1 N1 1_555 1_555
N1 C1 1_555 1_555
N2 Cu1 1_555 1_555
N3 N2 1_555 1_555
N4 N3 1_555 1_555
N5 Cu1 1_555 1_555
N6 N5 1_555 1_555
N7 N6 1_555 1_555
C1 C3 1_555 1_555
C2 N1 1_555 1_555
H1 C2 1_555 1_555
C3 H2 1_555 1_555
H3 C3 1_555 1_555
H4 C3 1_555 1_555
N1A C1A 1_555 1_555
C1A C1 1_555 1_555
C2A C2 1_555 1_555
H1A C2A 1_555 1_555
C3A C1A 1_555 1_555
H2A C3A 1_555 1_555
H3A C3A 1_555 1_555
H4A C3A 1_555 1_555
Cu1A N1A 1_555 1_555
N2A Cu1A 1_555 1_555
N3A N2A 1_555 1_555
N4A N3A 1_555 1_555
N5A Cu1A 1_555 1_555
N6A N5A 1_555 1_555
N7A N6A 1_555 1_555
Cu1D N7A 1_555 1_555
Cu1E N7 1_555 1_555
Cu1F N2 1_555 1_555
Cu1G N2A 1_555 1_555
N2F Cu1 1_555 1_555
N2G Cu1A 1_555 1_555
N7D Cu1A 1_555 1_555
N7E Cu1 1_555 1_555
N1A C2A 1_555 1_555
Cu1F N2F 1_555 1_555
Cu1G N2G 1_555 1_555

#END
