
#######################################################################
#
#                 Cambridge Crystallographic Data Centre
#                                CCDC 
#
#######################################################################
#
# If this CIF has been generated from an entry in the Cambridge 
# Structural Database, then it will include bibliographic, chemical, 
# crystal, experimental, refinement or atomic coordinate data resulting 
# from the CCDC's data processing and validation procedures.
#
#######################################################################

data_BIKMEP
_symmetry_cell_setting           hexagonal
_symmetry_space_group_name_H-M   'P 65'
_symmetry_Int_Tables_number      170
_space_group_name_Hall           'P 65'
loop_
_symmetry_equiv_pos_site_id
_symmetry_equiv_pos_as_xyz
1 x,y,z
2 -y,x-y,2/3+z
3 -x+y,-x,1/3+z
4 -x,-y,1/2+z
5 y,-x+y,1/6+z
6 x-y,x,5/6+z
_cell_length_a                   10.1816(5)
_cell_length_b                   10.1816(5)
_cell_length_c                   20.441(3)
_cell_angle_alpha                90
_cell_angle_beta                 90
_cell_angle_gamma                120
_cell_volume                     1835.12
loop_
_atom_site_label
_atom_site_type_symbol
_atom_site_fract_x
_atom_site_fract_y
_atom_site_fract_z
Ni1 Ni 0.21266(4) 0.44496(5) 0.029461(18)
O1 O 0.1842(3) 0.3772(3) 0.12475(13)
H1 H 0.166(3) 0.2869(10) 0.1290(14)
H2 H 0.228(3) 0.424(2) 0.1594(7)
O2 O 0.4402(3) -0.1852(3) -0.11611(13)
O3 O 0.2466(3) 0.5122(3) -0.06943(13)
H3 H 0.1672(17) 0.4468(19) -0.0885(12)
H4 H 0.265(3) 0.5980(11) -0.0834(15)
O4 O 0.5465(3) 0.0666(3) -0.12468(15)
O5 O 0.3217(3) 0.3118(3) 0.01180(12)
O6 O 0.0776(3) 0.2168(3) -0.00125(14)
N1 N -0.2531(3) -0.6000(3) -0.11529(14)
C1 C -0.1260(4) -0.4701(4) -0.09891(17)
H5 H -0.0368 -0.4732 -0.0941
C2 C -0.1201(3) -0.3331(3) -0.08887(16)
C3 C -0.2556(4) -0.3309(4) -0.09340(19)
H6 H -0.2566 -0.2409 -0.0875
C4 C -0.3891(4) -0.4649(5) -0.1069(2)
H7 H -0.4816 -0.4673 -0.1073
C5 C -0.3820(4) -0.5957(4) -0.11972(16)
H8 H -0.4704 -0.6835 -0.1318
C6 C 0.0287(3) -0.1952(3) -0.07509(16)
C7 C 0.1603(4) -0.1927(4) -0.09284(16)
H9 H 0.1540 -0.2786 -0.1120
C8 C 0.3030(3) -0.0653(3) -0.08300(16)
C9 C 0.3137(3) 0.0613(3) -0.05243(16)
H10 H 0.4080 0.1460 -0.0444
C10 C 0.1797(3) 0.0603(3) -0.03357(15)
C11 C 0.0381(4) -0.0669(3) -0.04519(16)
H11 H -0.0498 -0.0665 -0.0331
C12 C 0.4417(3) -0.0619(4) -0.10890(15)
C13 C 0.1930(4) 0.2018(4) -0.00518(15)
Ni1E Ni -0.23230(6) -0.78734(4) -0.137206(18)
Ni1E_2 Ni 0.76770(6) 0.21266(4) -0.137206(18)
O4D O 0.0666(3) 0.5201(4) 0.04199(15)
N1D N 0.4000(3) 0.6531(4) 0.05138(14)
loop_
_geom_bond_atom_site_label_1
_geom_bond_atom_site_label_2
_geom_bond_site_symmetry_1
_geom_bond_site_symmetry_2
Ni1 O1 1_555 1_555
O1 H1 1_555 1_555
H2 O1 1_555 1_555
O2 C12 1_555 1_555
O3 Ni1 1_555 1_555
H3 O3 1_555 1_555
H4 O3 1_555 1_555
O4 C12 1_555 1_555
O5 Ni1 1_555 1_555
O6 Ni1 1_555 1_555
N1 C1 1_555 1_555
C1 H5 1_555 1_555
C2 C1 1_555 1_555
C3 C2 1_555 1_555
H6 C3 1_555 1_555
C4 C3 1_555 1_555
H7 C4 1_555 1_555
C5 N1 1_555 1_555
H8 C5 1_555 1_555
C6 C2 1_555 1_555
C7 C6 1_555 1_555
H9 C7 1_555 1_555
C8 C7 1_555 1_555
C9 C8 1_555 1_555
H10 C9 1_555 1_555
C10 C9 1_555 1_555
C11 C6 1_555 1_555
H11 C11 1_555 1_555
C12 C8 1_555 1_555
C13 O5 1_555 1_555
Ni1E N1 1_555 1_555
Ni1E_2 O4 1_555 1_555
O4D Ni1 1_555 1_555
N1D Ni1 1_555 1_555
O6 C13 1_555 1_555
C4 C5 1_555 1_555
C10 C11 1_555 1_555
C10 C13 1_555 1_555

#END
