
#######################################################################
#
#                 Cambridge Crystallographic Data Centre
#                                CCDC 
#
#######################################################################
#
# If this CIF has been generated from an entry in the Cambridge 
# Structural Database, then it will include bibliographic, chemical, 
# crystal, experimental, refinement or atomic coordinate data resulting 
# from the CCDC's data processing and validation procedures.
#
#######################################################################

data_BIKMAL
_symmetry_cell_setting           hexagonal
_symmetry_space_group_name_H-M   'P 65'
_symmetry_Int_Tables_number      170
_space_group_name_Hall           'P 65'
loop_
_symmetry_equiv_pos_site_id
_symmetry_equiv_pos_as_xyz
1 x,y,z
2 -y,x-y,2/3+z
3 -x+y,-x,1/3+z
4 -x,-y,1/2+z
5 y,-x+y,1/6+z
6 x-y,x,5/6+z
_cell_length_a                   10.2357(3)
_cell_length_b                   10.2357(3)
_cell_length_c                   20.3953(12)
_cell_angle_alpha                90
_cell_angle_beta                 90
_cell_angle_gamma                120
_cell_volume                     1850.53
loop_
_atom_site_label
_atom_site_type_symbol
_atom_site_fract_x
_atom_site_fract_y
_atom_site_fract_z
Co1 Co 0.79011(4) 0.23521(4) 0.018340(16)
O1 O 0.7567(3) 0.2688(3) 0.11843(11)
H1 H 0.728(4) 0.328(4) 0.1301(17)
H2 H 0.820(4) 0.271(5) 0.1449(16)
O2 O 0.8096(2) 0.1875(2) -0.07805(12)
H3 H 0.821(4) 0.113(2) -0.082(2)
H4 H 0.886(3) 0.263(2) -0.0638(19)
O3 O 0.1892(2) -0.4339(2) -0.00231(11)
O4 O -0.0611(2) -0.5438(2) 0.00451(12)
O5 O -0.3079(2) -0.3193(2) -0.12929(10)
O6 O -0.2136(2) -0.0774(2) -0.11670(11)
N1 N 0.5981(2) 0.2554(3) -0.00329(11)
C1 C -0.0590(3) -0.1788(3) -0.08403(13)
C2 C 0.4705(3) 0.1294(3) -0.01937(13)
H5 H 0.4747 0.0412 -0.0244
C3 C 0.3317(3) 0.1212(3) -0.02911(13)
C4 C 0.3302(3) 0.2565(3) -0.02470(15)
H6 H 0.2410 0.2582 -0.0310
C5 C 0.4640(4) 0.3890(3) -0.01078(18)
H7 H 0.4657 0.4807 -0.0095
C6 C 0.5931(3) 0.3840(3) 0.00095(14)
H8 H 0.6804 0.4726 0.0123
C7 C 0.1959(3) -0.0263(3) -0.04323(12)
C8 C 0.1942(3) -0.1586(3) -0.02514(13)
H9 H 0.2792 -0.1527 -0.0058
C9 C 0.0668(3) -0.2997(3) -0.03563(13)
C10 C -0.0582(3) -0.3099(3) -0.06609(13)
H10 H -0.1417 -0.4039 -0.0747
C11 C 0.0674(3) -0.0380(3) -0.07241(13)
H11 H 0.0659 0.0490 -0.0842
C12 C -0.2003(3) -0.1920(3) -0.11261(13)
C13 C 0.0656(3) -0.4381(3) -0.00984(13)
Co1_2 Co -0.20989(4) -0.76479(4) 0.018340(16)
Co1E Co -0.44510(6) -0.20989(4) -0.148327(16)
O4_2 O 0.9389(2) 0.4562(2) 0.00451(12)
O5D O 0.6807(2) -0.0114(3) 0.03738(10)
O6D O 0.9226(2) 0.1362(3) 0.04997(11)
loop_
_geom_bond_atom_site_label_1
_geom_bond_atom_site_label_2
_geom_bond_site_symmetry_1
_geom_bond_site_symmetry_2
Co1 O1 1_555 1_555
O1 H1 1_555 1_555
H2 O1 1_555 1_555
O2 Co1 1_555 1_555
H3 O2 1_555 1_555
H4 O2 1_555 1_555
O3 C13 1_555 1_555
O4 C13 1_555 1_555
O5 C12 1_555 1_555
O6 C12 1_555 1_555
N1 Co1 1_555 1_555
C1 C10 1_555 1_555
C2 N1 1_555 1_555
H5 C2 1_555 1_555
C3 C2 1_555 1_555
C4 C3 1_555 1_555
H6 C4 1_555 1_555
C5 C4 1_555 1_555
H7 C5 1_555 1_555
C6 N1 1_555 1_555
H8 C6 1_555 1_555
C7 C3 1_555 1_555
C8 C7 1_555 1_555
H9 C8 1_555 1_555
C9 C8 1_555 1_555
C10 C9 1_555 1_555
H10 C10 1_555 1_555
C11 C1 1_555 1_555
H11 C11 1_555 1_555
C12 C1 1_555 1_555
C13 C9 1_555 1_555
Co1_2 O4 1_555 1_555
Co1E O5 1_555 1_555
O4_2 Co1 1_555 1_555
O5D Co1 1_555 1_555
O6D Co1 1_555 1_555
O6 Co1E 1_555 1_555
C5 C6 1_555 1_555
C7 C11 1_555 1_555

#END
