
#######################################################################
#
#                 Cambridge Crystallographic Data Centre
#                                CCDC 
#
#######################################################################
#
# If this CIF has been generated from an entry in the Cambridge 
# Structural Database, then it will include bibliographic, chemical, 
# crystal, experimental, refinement or atomic coordinate data resulting 
# from the CCDC's data processing and validation procedures.
#
#######################################################################

data_BIKXOK
_symmetry_cell_setting           triclinic
_symmetry_space_group_name_H-M   'P -1'
_symmetry_Int_Tables_number      2
_space_group_name_Hall           '-P 1'
loop_
_symmetry_equiv_pos_site_id
_symmetry_equiv_pos_as_xyz
1 x,y,z
2 -x,-y,-z
_cell_length_a                   7.5071(15)
_cell_length_b                   13.077(3)
_cell_length_c                   13.528(3)
_cell_angle_alpha                83.00(3)
_cell_angle_beta                 88.99(3)
_cell_angle_gamma                82.75(3)
_cell_volume                     1307.61
loop_
_atom_site_label
_atom_site_type_symbol
_atom_site_fract_x
_atom_site_fract_y
_atom_site_fract_z
Zn1 Zn -0.01706(8) 0.77980(5) 0.84594(4)
O1 O 0.0965(6) 0.6348(3) 0.9449(3)
O2 O -0.1012(6) 0.7493(3) 1.0045(3)
O3 O 0.1735(5) 1.0867(3) 1.2026(3)
O4 O 0.3897(5) 1.1332(3) 1.2931(3)
O5 O -0.0774(6) 0.6394(3) 1.1935(3)
O6 O 0.3272(5) 0.8869(3) 1.2196(3)
O7 O -0.2341(5) 0.6944(3) 0.8105(3)
H1 H -0.2728 0.7174 0.7523
H2 H -0.3187 0.7030 0.8524
N1 N 0.1835(5) 0.8666(3) 0.8917(3)
N2 N 0.4323(7) 0.5329(4) 0.2741(4)
N3 N 0.1261(6) 0.7248(3) 0.7236(3)
C1 C -0.0628(7) 0.8225(5) 1.3693(4)
C2 C -0.1131(8) 0.7448(5) 1.3201(4)
H3 H -0.2097 0.7103 1.3429
C3 C -0.0173(8) 0.7180(4) 1.2356(4)
C4 C 0.1250(7) 0.7705(4) 1.2029(4)
H4 H 0.1870 0.7548 1.1454
C5 C 0.1758(7) 0.8468(4) 1.2557(4)
C6 C 0.0795(7) 0.8756(4) 1.3386(4)
H5 H 0.1100 0.9289 1.3722
C7 C 0.0224(9) 0.5995(4) 1.1136(4)
H6 H -0.0143 0.5325 1.1054
H7 H 0.1484 0.5879 1.1319
C8 C 0.0038(8) 0.6666(4) 1.0152(4)
C9 C 0.4029(7) 0.9576(4) 1.2720(4)
H8 H 0.5286 0.9560 1.2538
H9 H 0.3973 0.9340 1.3427
C10 C 0.3145(7) 1.0696(4) 1.2543(4)
C11 C 0.3436(7) 0.8184(4) 0.9237(4)
H10 H 0.3714 0.7482 0.9170
C12 C 0.4677(7) 0.8671(4) 0.9658(4)
H11 H 0.5767 0.8297 0.9870
C13 C 0.4335(6) 0.9723(4) 0.9776(3)
C14 C 0.2696(7) 1.0216(4) 0.9424(4)
H12 H 0.2397 1.0922 0.9464
C15 C 0.1496(7) 0.9673(4) 0.9014(4)
H13 H 0.0395 1.0027 0.8794
C16 C 0.1048(8) 0.6290(4) 0.7042(4)
H14 H 0.0428 0.5876 0.7500
C17 C 0.1707(8) 0.5895(4) 0.6198(4)
H15 H 0.1540 0.5221 0.6106
C18 C 0.2613(7) 0.6473(4) 0.5483(4)
C19 C 0.2891(8) 0.7447(5) 0.5712(4)
H16 H 0.3547 0.7865 0.5279
C20 C 0.2200(8) 0.7800(5) 0.6581(4)
H17 H 0.2405 0.8457 0.6711
C21 C 0.3227(7) 0.6070(4) 0.4537(4)
C22 C 0.2719(8) 0.5164(5) 0.4267(5)
H18 H 0.1991 0.4782 0.4690
C23 C 0.3280(9) 0.4825(6) 0.3383(5)
H19 H 0.2914 0.4212 0.3223
C24 C 0.4824(8) 0.6188(5) 0.2994(5)
H20 H 0.5551 0.6552 0.2554
C25 C 0.4333(8) 0.6584(5) 0.3879(4)
H21 H 0.4745 0.7190 0.4027
I1 I -0.20900(5) 0.85804(4) 1.49807(3)
N1A N 0.8165(5) 1.1334(3) 1.1083(3)
C11A C 0.6564(7) 1.1816(4) 1.0763(4)
H10A H 0.6286 1.2518 1.0830
C12A C 0.5323(7) 1.1329(4) 1.0342(4)
H11A H 0.4233 1.1703 1.0130
C13A C 0.5665(6) 1.0277(4) 1.0224(3)
C14A C 0.7304(7) 0.9784(4) 1.0576(4)
H12A H 0.7603 0.9078 1.0536
C15A C 0.8504(7) 1.0327(4) 1.0986(4)
H13A H 0.9605 0.9973 1.1206
Zn1A Zn 0.01706(8) 1.22020(5) 1.15406(4)
O1A O -0.0965(6) 1.3652(3) 1.0551(3)
O2A O 0.1012(6) 1.2507(3) 0.9955(3)
O3A O -0.1735(5) 0.9133(3) 0.7974(3)
O4A O -0.3897(5) 0.8668(3) 0.7069(3)
O5A O 0.0774(6) 1.3606(3) 0.8065(3)
O6A O -0.3272(5) 1.1131(3) 0.7804(3)
O7A O 0.2341(5) 1.3056(3) 1.1895(3)
H1A H 0.2728 1.2826 1.2477
H2A H 0.3187 1.2970 1.1476
N2A N -0.4323(7) 1.4671(4) 1.7259(4)
N3A N -0.1261(6) 1.2752(3) 1.2764(3)
C1A C 0.0628(7) 1.1775(5) 0.6307(4)
C2A C 0.1131(8) 1.2552(5) 0.6799(4)
H3A H 0.2097 1.2897 0.6571
C3A C 0.0173(8) 1.2820(4) 0.7644(4)
C4A C -0.1250(7) 1.2295(4) 0.7971(4)
H4A H -0.1870 1.2452 0.8546
C5A C -0.1758(7) 1.1532(4) 0.7443(4)
C6A C -0.0795(7) 1.1244(4) 0.6614(4)
H5A H -0.1100 1.0711 0.6278
C7A C -0.0224(9) 1.4005(4) 0.8864(4)
H6A H 0.0143 1.4675 0.8946
H7A H -0.1484 1.4121 0.8681
C8A C -0.0038(8) 1.3334(4) 0.9848(4)
C9A C -0.4029(7) 1.0424(4) 0.7280(4)
H8A H -0.5286 1.0440 0.7462
H9A H -0.3973 1.0660 0.6573
C10A C -0.3145(7) 0.9304(4) 0.7457(4)
C16A C -0.1048(8) 1.3710(4) 1.2958(4)
H14A H -0.0428 1.4124 1.2500
C17A C -0.1707(8) 1.4105(4) 1.3802(4)
H15A H -0.1540 1.4779 1.3894
C18A C -0.2613(7) 1.3527(4) 1.4517(4)
C19A C -0.2891(8) 1.2553(5) 1.4288(4)
H16A H -0.3547 1.2135 1.4721
C20A C -0.2200(8) 1.2200(5) 1.3419(4)
H17A H -0.2405 1.1543 1.3289
C21A C -0.3227(7) 1.3930(4) 1.5463(4)
C22A C -0.2719(8) 1.4836(5) 1.5733(5)
H18A H -0.1991 1.5218 1.5310
C23A C -0.3280(9) 1.5175(6) 1.6617(5)
H19A H -0.2914 1.5788 1.6777
C24A C -0.4824(8) 1.3812(5) 1.7006(5)
H20A H -0.5551 1.3448 1.7446
C25A C -0.4333(8) 1.3416(5) 1.6121(4)
H21A H -0.4745 1.2810 1.5973
I1A I 0.20900(5) 1.14196(4) 0.50193(3)
Zn1A_2 Zn 1.01706(8) 1.22020(5) 1.15406(4)
N1A_2 N -0.1835(5) 1.1334(3) 1.1083(3)
O8 O 0.5207(11) 0.5654(5) 0.9051(4)
H22 H 0.5172 0.5711 0.8419
H23 H 0.4148 0.5652 0.9284
loop_
_geom_bond_atom_site_label_1
_geom_bond_atom_site_label_2
_geom_bond_site_symmetry_1
_geom_bond_site_symmetry_2
Zn1 O1 1_555 1_555
O1 C8 1_555 1_555
O2 Zn1 1_555 1_555
O3 C10 1_555 1_555
O4 C10 1_555 1_555
O5 C3 1_555 1_555
O6 C5 1_555 1_555
O7 Zn1 1_555 1_555
H1 O7 1_555 1_555
H2 O7 1_555 1_555
N1 Zn1 1_555 1_555
N2 C23 1_555 1_555
N3 Zn1 1_555 1_555
C1 C2 1_555 1_555
C2 H3 1_555 1_555
C3 C2 1_555 1_555
C4 C3 1_555 1_555
H4 C4 1_555 1_555
C5 C4 1_555 1_555
C6 C1 1_555 1_555
H5 C6 1_555 1_555
C7 O5 1_555 1_555
H6 C7 1_555 1_555
H7 C7 1_555 1_555
C8 O2 1_555 1_555
C9 O6 1_555 1_555
H8 C9 1_555 1_555
H9 C9 1_555 1_555
C10 C9 1_555 1_555
C11 N1 1_555 1_555
H10 C11 1_555 1_555
C12 C11 1_555 1_555
H11 C12 1_555 1_555
C13 C12 1_555 1_555
C14 C13 1_555 1_555
H12 C14 1_555 1_555
C15 N1 1_555 1_555
H13 C15 1_555 1_555
C16 N3 1_555 1_555
H14 C16 1_555 1_555
C17 C16 1_555 1_555
H15 C17 1_555 1_555
C18 C17 1_555 1_555
C19 C18 1_555 1_555
H16 C19 1_555 1_555
C20 N3 1_555 1_555
H17 C20 1_555 1_555
C21 C18 1_555 1_555
C22 C21 1_555 1_555
H18 C22 1_555 1_555
C23 C22 1_555 1_555
H19 C23 1_555 1_555
C24 N2 1_555 1_555
H20 C24 1_555 1_555
C25 C21 1_555 1_555
H21 C25 1_555 1_555
I1 C1 1_555 1_555
O8 H22 1_555 1_555
H23 O8 1_555 1_555
N1A C11A 1_555 1_555
C11A H10A 1_555 1_555
C12A C11A 1_555 1_555
H11A C12A 1_555 1_555
C13A C13 1_555 1_555
C14A C13A 1_555 1_555
H12A C14A 1_555 1_555
C15A N1A 1_555 1_555
H13A C15A 1_555 1_555
Zn1A O3 1_555 1_555
O1A Zn1A 1_555 1_555
O2A Zn1A 1_555 1_555
O3A Zn1 1_555 1_555
O4A C10A 1_555 1_555
O5A C3A 1_555 1_555
O6A C5A 1_555 1_555
O7A Zn1A 1_555 1_555
H1A O7A 1_555 1_555
H2A O7A 1_555 1_555
N2A C23A 1_555 1_555
N3A Zn1A 1_555 1_555
C1A C2A 1_555 1_555
C2A H3A 1_555 1_555
C3A C2A 1_555 1_555
C4A C3A 1_555 1_555
H4A C4A 1_555 1_555
C5A C4A 1_555 1_555
C6A C1A 1_555 1_555
H5A C6A 1_555 1_555
C7A O5A 1_555 1_555
H6A C7A 1_555 1_555
H7A C7A 1_555 1_555
C8A O1A 1_555 1_555
C9A O6A 1_555 1_555
H8A C9A 1_555 1_555
H9A C9A 1_555 1_555
C10A O3A 1_555 1_555
C16A N3A 1_555 1_555
H14A C16A 1_555 1_555
C17A C16A 1_555 1_555
H15A C17A 1_555 1_555
C18A C17A 1_555 1_555
C19A C18A 1_555 1_555
H16A C19A 1_555 1_555
C20A N3A 1_555 1_555
H17A C20A 1_555 1_555
C21A C18A 1_555 1_555
C22A C21A 1_555 1_555
H18A C22A 1_555 1_555
C23A C22A 1_555 1_555
H19A C23A 1_555 1_555
C24A N2A 1_555 1_555
H20A C24A 1_555 1_555
C25A C21A 1_555 1_555
H21A C25A 1_555 1_555
I1A C1A 1_555 1_555
Zn1A_2 N1A 1_555 1_555
N1A_2 Zn1A 1_555 1_555
C5 C6 1_555 1_555
C7 C8 1_555 1_555
C14 C15 1_555 1_555
C19 C20 1_555 1_555
C24 C25 1_555 1_555
C12A C13A 1_555 1_555
C14A C15A 1_555 1_555
O2A C8A 1_555 1_555
C5A C6A 1_555 1_555
C7A C8A 1_555 1_555
C9A C10A 1_555 1_555
C19A C20A 1_555 1_555
C24A C25A 1_555 1_555

#END
