
#######################################################################
#
#                 Cambridge Crystallographic Data Centre
#                                CCDC 
#
#######################################################################
#
# If this CIF has been generated from an entry in the Cambridge 
# Structural Database, then it will include bibliographic, chemical, 
# crystal, experimental, refinement or atomic coordinate data resulting 
# from the CCDC's data processing and validation procedures.
#
#######################################################################

data_BIKXIE
_symmetry_cell_setting           triclinic
_symmetry_space_group_name_H-M   'P -1'
_symmetry_Int_Tables_number      2
_space_group_name_Hall           '-P 1'
loop_
_symmetry_equiv_pos_site_id
_symmetry_equiv_pos_as_xyz
1 x,y,z
2 -x,-y,-z
_cell_length_a                   8.0493(16)
_cell_length_b                   10.738(2)
_cell_length_c                   13.318(3)
_cell_angle_alpha                76.78(3)
_cell_angle_beta                 74.11(3)
_cell_angle_gamma                83.85(3)
_cell_volume                     1076.58
loop_
_atom_site_label
_atom_site_type_symbol
_atom_site_fract_x
_atom_site_fract_y
_atom_site_fract_z
Zn1 Zn 0.73843(6) 0.23454(5) 0.74482(4)
N1 N 0.9559(5) 0.3349(4) 0.6771(3)
N2 N 0.5319(5) 0.3512(4) 0.8060(3)
O1 O 0.8954(4) 0.0769(4) 0.6184(3)
O2 O 0.6537(4) 0.1977(3) 0.6289(2)
O3 O 0.8396(5) 0.2111(3) -0.0547(3)
O4 O 0.7302(4) 0.0928(3) -0.1357(3)
O5 O 0.6126(4) 0.1552(4) 0.4492(3)
O6 O 0.8069(4) 0.0079(3) 0.1238(2)
C1 C 1.1076(6) 0.2701(5) 0.6524(4)
H1 H 1.1085 0.1812 0.6717
C2 C 1.2613(6) 0.3256(5) 0.6006(4)
H2 H 1.3621 0.2751 0.5840
C3 C 1.2656(5) 0.4578(4) 0.5731(4)
C4 C 1.1087(6) 0.5256(5) 0.5996(4)
H3 H 1.1048 0.6146 0.5831
C5 C 0.9593(6) 0.4621(5) 0.6500(4)
H4 H 0.8559 0.5101 0.6660
C6 C 1.4236(6) 0.5272(5) 0.5181(4)
C7 C 0.3758(6) 0.3057(4) 0.8224(4)
H5 H 0.3695 0.2341 0.7957
C8 C 0.2244(6) 0.3592(4) 0.8766(4)
H6 H 0.1195 0.3234 0.8863
C9 C 0.2290(6) 0.4661(4) 0.9164(4)
C10 C 0.3889(6) 0.5160(5) 0.8968(4)
H7 H 0.3977 0.5906 0.9189
C11 C 0.5356(7) 0.4548(5) 0.8443(4)
H8 H 0.6424 0.4876 0.8352
C12 C 0.0754(5) 0.5255(5) 0.9798(4)
H9 H 0.0862 0.6057 0.9924
C13 C 0.5919(6) 0.1398(5) 0.3539(4)
C14 C 0.4343(6) 0.1888(5) 0.3323(4)
H10 H 0.3527 0.2298 0.3799
C15 C 0.4026(6) 0.1752(5) 0.2395(4)
C16 C 0.5217(6) 0.1156(5) 0.1658(4)
H11 H 0.4977 0.1072 0.1033
C17 C 0.6775(6) 0.0689(4) 0.1886(3)
C18 C 0.7150(6) 0.0816(5) 0.2819(3)
H12 H 0.8211 0.0514 0.2955
C19 C 0.7590(6) 0.0918(5) 0.4823(4)
H13 H 0.8632 0.1175 0.4270
H14 H 0.7519 0.0000 0.4922
C20 C 0.7700(6) 0.1229(4) 0.5847(4)
C21 C 0.7768(6) -0.0090(5) 0.0273(3)
H15 H 0.6635 -0.0433 0.0436
H16 H 0.8616 -0.0721 -0.0007
C22 C 0.7853(6) 0.1115(4) -0.0587(4)
I1 I 0.16841(4) 0.24614(4) 0.20378(3)
H17 H 1.414(6) 0.6083(12) 0.509(4)
N1A N 2.0441(5) 0.6651(4) 0.3229(3)
C1A C 1.8924(6) 0.7299(5) 0.3476(4)
H1A H 1.8915 0.8188 0.3283
C2A C 1.7387(6) 0.6744(5) 0.3994(4)
H2A H 1.6379 0.7249 0.4160
C3A C 1.7344(5) 0.5422(4) 0.4269(4)
C4A C 1.8913(6) 0.4744(5) 0.4004(4)
H3A H 1.8952 0.3854 0.4169
C5A C 2.0407(6) 0.5379(5) 0.3500(4)
H4A H 2.1441 0.4899 0.3340
C6A C 1.5764(6) 0.4728(5) 0.4819(4)
H17A H 1.586(6) 0.3917(12) 0.491(4)
N2A N -0.5319(5) 0.6488(4) 1.1940(3)
C7A C -0.3758(6) 0.6943(4) 1.1776(4)
H5A H -0.3695 0.7659 1.2043
C8A C -0.2244(6) 0.6408(4) 1.1234(4)
H6A H -0.1195 0.6766 1.1137
C9A C -0.2290(6) 0.5339(4) 1.0836(4)
C10A C -0.3889(6) 0.4840(5) 1.1032(4)
H7A H -0.3977 0.4094 1.0811
C11A C -0.5356(7) 0.5452(5) 1.1557(4)
H8A H -0.6424 0.5124 1.1648
C12A C -0.0754(5) 0.4745(5) 1.0202(4)
H9A H -0.0862 0.3943 1.0076
Zn1A Zn -0.73843(6) 0.76546(5) 1.25518(4)
O1A O -0.8954(4) 0.9231(4) 1.3816(3)
O2A O -0.6537(4) 0.8023(3) 1.3711(2)
O3A O -0.8396(5) 0.7889(3) 2.0547(3)
O4A O -0.7302(4) 0.9072(3) 2.1357(3)
O5A O -0.6126(4) 0.8448(4) 1.5508(3)
O6A O -0.8069(4) 0.9921(3) 1.8762(2)
C13A C -0.5919(6) 0.8602(5) 1.6461(4)
C14A C -0.4343(6) 0.8112(5) 1.6677(4)
H10A H -0.3527 0.7702 1.6201
C15A C -0.4026(6) 0.8248(5) 1.7605(4)
C16A C -0.5217(6) 0.8844(5) 1.8342(4)
H11A H -0.4977 0.8928 1.8967
C17A C -0.6775(6) 0.9311(4) 1.8114(3)
C18A C -0.7150(6) 0.9184(5) 1.7181(3)
H12A H -0.8211 0.9486 1.7045
C19A C -0.7590(6) 0.9082(5) 1.5177(4)
H13A H -0.8632 0.8825 1.5730
H14A H -0.7519 1.0000 1.5078
C20A C -0.7700(6) 0.8771(4) 1.4153(4)
C21A C -0.7768(6) 1.0090(5) 1.9727(3)
H15A H -0.6635 1.0433 1.9564
H16A H -0.8616 1.0721 2.0007
C22A C -0.7853(6) 0.8885(4) 2.0587(4)
I1A I -0.16841(4) 0.75386(4) 1.79622(3)
Zn1_2 Zn 0.73843(6) 0.23454(5) -0.25518(4)
Zn1A_2 Zn -0.73843(6) 0.76546(5) 2.25518(4)
Zn1A_3 Zn 2.26157(6) 0.76546(5) 0.25518(4)
N1A_2 N -0.9559(5) 0.6651(4) 1.3229(3)
O4_2 O 0.7302(4) 0.0928(3) 0.8643(3)
O4A_2 O -0.7302(4) 0.9072(3) 1.1357(3)
loop_
_geom_bond_atom_site_label_1
_geom_bond_atom_site_label_2
_geom_bond_site_symmetry_1
_geom_bond_site_symmetry_2
Zn1 N1 1_555 1_555
N1 C1 1_555 1_555
N2 Zn1 1_555 1_555
O1 C20 1_555 1_555
O2 Zn1 1_555 1_555
O3 C22 1_555 1_555
O4 C22 1_555 1_555
O5 C13 1_555 1_555
O6 C17 1_555 1_555
C1 H1 1_555 1_555
C2 C1 1_555 1_555
H2 C2 1_555 1_555
C3 C2 1_555 1_555
C4 C3 1_555 1_555
H3 C4 1_555 1_555
C5 N1 1_555 1_555
H4 C5 1_555 1_555
C6 C3 1_555 1_555
C7 N2 1_555 1_555
H5 C7 1_555 1_555
C8 C7 1_555 1_555
H6 C8 1_555 1_555
C9 C8 1_555 1_555
C10 C9 1_555 1_555
H7 C10 1_555 1_555
C11 N2 1_555 1_555
H8 C11 1_555 1_555
C12 C9 1_555 1_555
H9 C12 1_555 1_555
C13 C14 1_555 1_555
C14 H10 1_555 1_555
C15 C14 1_555 1_555
C16 C15 1_555 1_555
H11 C16 1_555 1_555
C17 C16 1_555 1_555
C18 C13 1_555 1_555
H12 C18 1_555 1_555
C19 O5 1_555 1_555
H13 C19 1_555 1_555
H14 C19 1_555 1_555
C20 O2 1_555 1_555
C21 O6 1_555 1_555
H15 C21 1_555 1_555
H16 C21 1_555 1_555
C22 C21 1_555 1_555
I1 C15 1_555 1_555
H17 C6 1_555 1_555
N1A C1A 1_555 1_555
C1A H1A 1_555 1_555
C2A C1A 1_555 1_555
H2A C2A 1_555 1_555
C3A C2A 1_555 1_555
C4A C3A 1_555 1_555
H3A C4A 1_555 1_555
C5A N1A 1_555 1_555
H4A C5A 1_555 1_555
C6A C6 1_555 1_555
H17A C6A 1_555 1_555
N2A C7A 1_555 1_555
C7A H5A 1_555 1_555
C8A C7A 1_555 1_555
H6A C8A 1_555 1_555
C9A C8A 1_555 1_555
C10A C9A 1_555 1_555
H7A C10A 1_555 1_555
C11A N2A 1_555 1_555
H8A C11A 1_555 1_555
C12A C12 1_555 1_555
H9A C12A 1_555 1_555
Zn1A N2A 1_555 1_555
O1A C20A 1_555 1_555
O2A Zn1A 1_555 1_555
O3A C22A 1_555 1_555
O4A C22A 1_555 1_555
O5A C13A 1_555 1_555
O6A C17A 1_555 1_555
C13A C14A 1_555 1_555
C14A H10A 1_555 1_555
C15A C14A 1_555 1_555
C16A C15A 1_555 1_555
H11A C16A 1_555 1_555
C17A C16A 1_555 1_555
C18A C13A 1_555 1_555
H12A C18A 1_555 1_555
C19A O5A 1_555 1_555
H13A C19A 1_555 1_555
H14A C19A 1_555 1_555
C20A O2A 1_555 1_555
C21A O6A 1_555 1_555
H15A C21A 1_555 1_555
H16A C21A 1_555 1_555
C22A C21A 1_555 1_555
I1A C15A 1_555 1_555
Zn1_2 O4 1_555 1_555
Zn1A_2 O4A 1_555 1_555
Zn1A_3 N1A 1_555 1_555
N1A_2 Zn1A 1_555 1_555
O4_2 Zn1 1_555 1_555
O4A_2 Zn1A 1_555 1_555
C4 C5 1_555 1_555
C10 C11 1_555 1_555
C17 C18 1_555 1_555
C19 C20 1_555 1_555
C3A C6A 1_555 1_555
C4A C5A 1_555 1_555
C9A C12A 1_555 1_555
C10A C11A 1_555 1_555
C17A C18A 1_555 1_555
C19A C20A 1_555 1_555

#END
