
#######################################################################
#
#                 Cambridge Crystallographic Data Centre
#                                CCDC 
#
#######################################################################
#
# If this CIF has been generated from an entry in the Cambridge 
# Structural Database, then it will include bibliographic, chemical, 
# crystal, experimental, refinement or atomic coordinate data resulting 
# from the CCDC's data processing and validation procedures.
#
#######################################################################

data_BILDIK
_symmetry_cell_setting           monoclinic
_symmetry_space_group_name_H-M   'C 2/c'
_symmetry_Int_Tables_number      15
_space_group_name_Hall           '-C 2yn'
loop_
_symmetry_equiv_pos_site_id
_symmetry_equiv_pos_as_xyz
1 x,y,z
2 1/2+x,1/2+y,z
3 -x,y,1/2-z
4 1/2-x,1/2+y,1/2-z
5 -x,-y,-z
6 1/2-x,1/2-y,-z
7 x,-y,1/2+z
8 1/2+x,1/2-y,1/2+z
_cell_length_a                   24.8532(19)
_cell_length_b                   8.6966(7)
_cell_length_c                   19.1422(15)
_cell_angle_alpha                90
_cell_angle_beta                 94.738(2)
_cell_angle_gamma                90
_cell_volume                     4123.23
loop_
_atom_site_label
_atom_site_type_symbol
_atom_site_fract_x
_atom_site_fract_y
_atom_site_fract_z
Cd1 Cd 0.2500 0.2500 0.0000
S1 S 0.34601(4) 0.13268(12) 0.03521(6)
S2 S 0.31121(5) 0.37520(12) -0.09391(6)
P1 P 0.37176(5) 0.26505(12) -0.04065(6)
O1 O 0.41866(12) 0.3749(4) -0.01170(17)
O2 O 0.40697(12) 0.1723(4) -0.09150(16)
N1 N 0.27020(14) 0.4682(4) 0.08880(17)
C1 C 0.41493(18) 0.4699(5) 0.0507(2)
H1 H 0.3826 0.4398 0.0743
C2 C 0.4107(3) 0.6344(6) 0.0303(3)
H2 H 0.3763 0.6520 0.0025
H3 H 0.4400 0.6603 0.0010
C3 C 0.4140(3) 0.7372(7) 0.0941(5)
H4 H 0.4130 0.8450 0.0791
H5 H 0.3827 0.7186 0.1208
C4 C 0.4639(3) 0.7091(10) 0.1395(4)
H6 H 0.4643 0.7750 0.1811
H7 H 0.4953 0.7357 0.1142
C5 C 0.4677(4) 0.5449(11) 0.1616(4)
H8 H 0.4381 0.5212 0.1908
H9 H 0.5018 0.5280 0.1900
C6 C 0.4645(3) 0.4371(7) 0.0982(3)
H10 H 0.4966 0.4509 0.0723
H11 H 0.4638 0.3301 0.1141
C7 C 0.38485(19) 0.0524(5) -0.1377(2)
H12 H 0.3454 0.0457 -0.1343
C8 C 0.3956(3) 0.0951(6) -0.2111(3)
H13 H 0.4344 0.1121 -0.2137
H14 H 0.3767 0.1909 -0.2245
C9 C 0.3762(3) -0.0341(8) -0.2617(3)
H15 H 0.3369 -0.0442 -0.2622
H16 H 0.3851 -0.0080 -0.3092
C10 C 0.4024(3) -0.1840(8) -0.2399(4)
H17 H 0.4415 -0.1764 -0.2431
H18 H 0.3885 -0.2655 -0.2719
C11 C 0.3913(4) -0.2248(6) -0.1659(4)
H19 H 0.4102 -0.3204 -0.1520
H20 H 0.3525 -0.2417 -0.1636
C12 C 0.4104(3) -0.0956(7) -0.1150(3)
H21 H 0.4008 -0.1210 -0.0677
H22 H 0.4497 -0.0859 -0.1135
C13 C 0.26224(15) 0.6207(4) 0.0815(2)
C14 C 0.2666(2) 0.7186(4) 0.1393(2)
H23 H 0.2604 0.8246 0.1334
C15 C 0.28019(19) 0.6593(5) 0.2051(2)
H24 H 0.2828 0.7241 0.2446
C16 C 0.28988(18) 0.5046(5) 0.2125(2)
H25 H 0.3002 0.4619 0.2567
C17 C 0.28409(18) 0.4135(5) 0.1533(2)
H26 H 0.2902 0.3073 0.1585
C18 C 0.25025(17) 0.6774(4) 0.01004(19)
H27 H 0.2421 0.6033 -0.0250
C18E C 0.24975(17) 0.8226(4) -0.01004(19)
C13E C 0.23776(15) 0.8793(4) -0.0815(2)
N1E N 0.22980(14) 1.0318(4) -0.08880(17)
C17E C 0.21591(18) 1.0865(5) -0.1533(2)
C16E C 0.21012(18) 0.9954(5) -0.2125(2)
C15E C 0.21981(19) 0.8407(5) -0.2051(2)
C14E C 0.2334(2) 0.7814(4) -0.1393(2)
H23E H 0.2396 0.6754 -0.1334
H24E H 0.2172 0.7759 -0.2446
H25E H 0.1998 1.0381 -0.2567
H26E H 0.2098 1.1927 -0.1585
H27E H 0.2579 0.8967 0.0250
S1E S 0.15399(4) 0.36732(12) -0.03521(6)
S2E S 0.18879(5) 0.12480(12) 0.09391(6)
P1E P 0.12824(5) 0.23495(12) 0.04065(6)
O1E O 0.08134(12) 0.1251(4) 0.01170(17)
O2E O 0.09303(12) 0.3277(4) 0.09150(16)
C1E C 0.08507(18) 0.0301(5) -0.0507(2)
H1E H 0.1174 0.0602 -0.0743
C2E C 0.0893(3) -0.1344(6) -0.0303(3)
H2E H 0.1237 -0.1520 -0.0025
H3E H 0.0600 -0.1603 -0.0010
C3E C 0.0860(3) -0.2372(7) -0.0941(5)
H4E H 0.0870 -0.3450 -0.0791
H5E H 0.1173 -0.2186 -0.1208
C4E C 0.0361(3) -0.2091(10) -0.1395(4)
H6E H 0.0357 -0.2750 -0.1811
H7E H 0.0047 -0.2357 -0.1142
C5E C 0.0323(4) -0.0449(11) -0.1616(4)
H8E H 0.0619 -0.0212 -0.1908
H9E H -0.0018 -0.0280 -0.1900
C6E C 0.0355(3) 0.0629(7) -0.0982(3)
H10E H 0.0034 0.0491 -0.0723
H11E H 0.0362 0.1699 -0.1141
C7E C 0.11515(19) 0.4476(5) 0.1377(2)
H12E H 0.1546 0.4543 0.1343
C8E C 0.1044(3) 0.4049(6) 0.2111(3)
H13E H 0.0656 0.3879 0.2137
H14E H 0.1233 0.3091 0.2245
C9E C 0.1238(3) 0.5341(8) 0.2617(3)
H15E H 0.1631 0.5442 0.2622
H16E H 0.1149 0.5080 0.3092
C10E C 0.0976(3) 0.6840(8) 0.2399(4)
H17E H 0.0585 0.6764 0.2431
H18E H 0.1115 0.7655 0.2719
C11E C 0.1087(4) 0.7248(6) 0.1659(4)
H19E H 0.0898 0.8204 0.1520
H20E H 0.1475 0.7417 0.1636
C12E C 0.0896(3) 0.5956(7) 0.1150(3)
H21E H 0.0992 0.6210 0.0677
H22E H 0.0503 0.5859 0.1135
N1E_2 N 0.22980(14) 0.0318(4) -0.08880(17)
Cd1_2 Cd 0.2500 1.2500 0.0000
loop_
_geom_bond_atom_site_label_1
_geom_bond_atom_site_label_2
_geom_bond_site_symmetry_1
_geom_bond_site_symmetry_2
Cd1 S1 1_555 1_555
S1 P1 1_555 1_555
S2 Cd1 1_555 1_555
P1 S2 1_555 1_555
O1 P1 1_555 1_555
O2 P1 1_555 1_555
N1 Cd1 1_555 1_555
C1 O1 1_555 1_555
H1 C1 1_555 1_555
C2 C1 1_555 1_555
H2 C2 1_555 1_555
H3 C2 1_555 1_555
C3 C2 1_555 1_555
H4 C3 1_555 1_555
H5 C3 1_555 1_555
C4 C3 1_555 1_555
H6 C4 1_555 1_555
H7 C4 1_555 1_555
C5 C4 1_555 1_555
H8 C5 1_555 1_555
H9 C5 1_555 1_555
C6 C1 1_555 1_555
H10 C6 1_555 1_555
H11 C6 1_555 1_555
C7 O2 1_555 1_555
H12 C7 1_555 1_555
C8 C7 1_555 1_555
H13 C8 1_555 1_555
H14 C8 1_555 1_555
C9 C8 1_555 1_555
H15 C9 1_555 1_555
H16 C9 1_555 1_555
C10 C9 1_555 1_555
H17 C10 1_555 1_555
H18 C10 1_555 1_555
C11 C10 1_555 1_555
H19 C11 1_555 1_555
H20 C11 1_555 1_555
C12 C7 1_555 1_555
H21 C12 1_555 1_555
H22 C12 1_555 1_555
C13 N1 1_555 1_555
C14 C13 1_555 1_555
H23 C14 1_555 1_555
C15 C14 1_555 1_555
H24 C15 1_555 1_555
C16 C15 1_555 1_555
H25 C16 1_555 1_555
C17 N1 1_555 1_555
H26 C17 1_555 1_555
C18 C13 1_555 1_555
H27 C18 1_555 1_555
C18E C18 1_555 1_555
C13E C18E 1_555 1_555
N1E C13E 1_555 1_555
C17E N1E 1_555 1_555
C16E C17E 1_555 1_555
C15E C16E 1_555 1_555
C14E C13E 1_555 1_555
H23E C14E 1_555 1_555
H24E C15E 1_555 1_555
H25E C16E 1_555 1_555
H26E C17E 1_555 1_555
H27E C18E 1_555 1_555
S1E Cd1 1_555 1_555
S2E Cd1 1_555 1_555
P1E S1E 1_555 1_555
O1E P1E 1_555 1_555
O2E P1E 1_555 1_555
C1E O1E 1_555 1_555
H1E C1E 1_555 1_555
C2E C1E 1_555 1_555
H2E C2E 1_555 1_555
H3E C2E 1_555 1_555
C3E C2E 1_555 1_555
H4E C3E 1_555 1_555
H5E C3E 1_555 1_555
C4E C3E 1_555 1_555
H6E C4E 1_555 1_555
H7E C4E 1_555 1_555
C5E C4E 1_555 1_555
H8E C5E 1_555 1_555
H9E C5E 1_555 1_555
C6E C1E 1_555 1_555
H10E C6E 1_555 1_555
H11E C6E 1_555 1_555
C7E O2E 1_555 1_555
H12E C7E 1_555 1_555
C8E C7E 1_555 1_555
H13E C8E 1_555 1_555
H14E C8E 1_555 1_555
C9E C8E 1_555 1_555
H15E C9E 1_555 1_555
H16E C9E 1_555 1_555
C10E C9E 1_555 1_555
H17E C10E 1_555 1_555
H18E C10E 1_555 1_555
C11E C10E 1_555 1_555
H19E C11E 1_555 1_555
H20E C11E 1_555 1_555
C12E C7E 1_555 1_555
H21E C12E 1_555 1_555
H22E C12E 1_555 1_555
N1E_2 Cd1 1_555 1_555
Cd1_2 N1E 1_555 1_555
C5 C6 1_555 1_555
C11 C12 1_555 1_555
C16 C17 1_555 1_555
C15E C14E 1_555 1_555
S2E P1E 1_555 1_555
C5E C6E 1_555 1_555
C11E C12E 1_555 1_555

#END
