
#######################################################################
#
#                 Cambridge Crystallographic Data Centre
#                                CCDC 
#
#######################################################################
#
# If this CIF has been generated from an entry in the Cambridge 
# Structural Database, then it will include bibliographic, chemical, 
# crystal, experimental, refinement or atomic coordinate data resulting 
# from the CCDC's data processing and validation procedures.
#
#######################################################################

data_BILDEG
_symmetry_cell_setting           monoclinic
_symmetry_space_group_name_H-M   'P 21/c'
_symmetry_Int_Tables_number      14
_space_group_name_Hall           '-P 2ybc'
loop_
_symmetry_equiv_pos_site_id
_symmetry_equiv_pos_as_xyz
1 x,y,z
2 -x,1/2+y,1/2-z
3 -x,-y,-z
4 x,1/2-y,1/2+z
_cell_length_a                   8.4255(6)
_cell_length_b                   23.8138(17)
_cell_length_c                   8.2261(6)
_cell_angle_alpha                90
_cell_angle_beta                 105.474(2)
_cell_angle_gamma                90
_cell_volume                     1590.68
loop_
_atom_site_label
_atom_site_type_symbol
_atom_site_fract_x
_atom_site_fract_y
_atom_site_fract_z
Cd1 Cd 0.0000 0.0000 0.0000
S1 S -0.07865(10) 0.05484(3) 0.25151(10)
S2 S 0.09570(10) 0.10659(3) -0.03220(10)
P1 P 0.00446(9) 0.12321(3) 0.16091(10)
O1 O 0.1408(3) 0.15570(10) 0.2980(3)
O2 O -0.1341(3) 0.17054(9) 0.1162(3)
N1 N -0.2656(3) 0.02485(11) -0.2089(3)
C1 C 0.1077(4) 0.19838(14) 0.4129(4)
H1 H 0.0241 0.2248 0.3475
C2 C 0.0434(9) 0.1724(3) 0.5459(7)
H2 H -0.0601 0.1537 0.4945
H3 H 0.0259 0.2013 0.6225
H4 H 0.1223 0.1452 0.6079
C3 C 0.2665(6) 0.2294(2) 0.4794(6)
H5 H 0.3000 0.2461 0.3861
H6 H 0.3508 0.2035 0.5393
H7 H 0.2515 0.2588 0.5557
C4 C -0.2870(4) 0.16104(14) -0.0141(4)
H8 H -0.2790 0.1254 -0.0735
C5 C -0.4248(5) 0.15717(19) 0.0678(6)
H9 H -0.4069 0.1253 0.1439
H10 H -0.5281 0.1524 -0.0180
H11 H -0.4291 0.1913 0.1308
C6 C -0.3044(6) 0.2093(2) -0.1360(6)
H12 H -0.2119 0.2093 -0.1852
H13 H -0.3066 0.2443 -0.0766
H14 H -0.4061 0.2052 -0.2246
C7 C -0.4192(3) 0.02447(12) -0.1860(4)
C8 C -0.5520(4) 0.04799(14) -0.3052(4)
H15 H -0.6582 0.0464 -0.2888
C9 C -0.5280(4) 0.07338(16) -0.4461(4)
H16 H -0.6166 0.0901 -0.5256
C10 C -0.3717(5) 0.07402(15) -0.4696(4)
H17 H -0.3518 0.0910 -0.5655
C11 C -0.2452(4) 0.04910(13) -0.3485(4)
H18 H -0.1392 0.0492 -0.3653
C12 C -0.4361(4) -0.00309(12) -0.0329(4)
H19 H -0.3505 -0.0270 0.0238
C12B C -0.5639(4) 0.00309(12) 0.0329(4)
C7B C -0.5808(3) -0.02447(12) 0.1860(4)
N1B N -0.7344(3) -0.02485(11) 0.2089(3)
C11B C -0.7548(4) -0.04910(13) 0.3485(4)
C10B C -0.6283(5) -0.07402(15) 0.4696(4)
C9B C -0.4720(4) -0.07338(16) 0.4461(4)
C8B C -0.4480(4) -0.04799(14) 0.3052(4)
H15B H -0.3418 -0.0464 0.2888
H16B H -0.3834 -0.0901 0.5256
H17B H -0.6482 -0.0910 0.5655
H18B H -0.8608 -0.0492 0.3653
H19B H -0.6495 0.0270 -0.0238
S1B S 0.07865(10) -0.05484(3) -0.25151(10)
S2B S -0.09570(10) -0.10659(3) 0.03220(10)
P1B P -0.00446(9) -0.12321(3) -0.16091(10)
O1B O -0.1408(3) -0.15570(10) -0.2980(3)
O2B O 0.1341(3) -0.17054(9) -0.1162(3)
C1B C -0.1077(4) -0.19838(14) -0.4129(4)
H1B H -0.0241 -0.2248 -0.3475
C2B C -0.0434(9) -0.1724(3) -0.5459(7)
H2B H 0.0601 -0.1537 -0.4945
H3B H -0.0259 -0.2013 -0.6225
H4B H -0.1223 -0.1452 -0.6079
C3B C -0.2665(6) -0.2294(2) -0.4794(6)
H5B H -0.3000 -0.2461 -0.3861
H6B H -0.3508 -0.2035 -0.5393
H7B H -0.2515 -0.2588 -0.5557
C4B C 0.2870(4) -0.16104(14) 0.0141(4)
H8B H 0.2790 -0.1254 0.0735
C5B C 0.4248(5) -0.15717(19) -0.0678(6)
H9B H 0.4069 -0.1253 -0.1439
H10B H 0.5281 -0.1524 0.0180
H11B H 0.4291 -0.1913 -0.1308
C6B C 0.3044(6) -0.2093(2) 0.1360(6)
H12B H 0.2119 -0.2093 0.1852
H13B H 0.3066 -0.2443 0.0766
H14B H 0.4061 -0.2052 0.2246
N1B_2 N 0.2656(3) -0.02485(11) 0.2089(3)
Cd1_2 Cd -1.0000 0.0000 0.0000
loop_
_geom_bond_atom_site_label_1
_geom_bond_atom_site_label_2
_geom_bond_site_symmetry_1
_geom_bond_site_symmetry_2
Cd1 S1 1_555 1_555
S1 P1 1_555 1_555
S2 Cd1 1_555 1_555
P1 S2 1_555 1_555
O1 P1 1_555 1_555
O2 P1 1_555 1_555
N1 Cd1 1_555 1_555
C1 O1 1_555 1_555
H1 C1 1_555 1_555
C2 C1 1_555 1_555
H2 C2 1_555 1_555
H3 C2 1_555 1_555
H4 C2 1_555 1_555
C3 C1 1_555 1_555
H5 C3 1_555 1_555
H6 C3 1_555 1_555
H7 C3 1_555 1_555
C4 O2 1_555 1_555
H8 C4 1_555 1_555
C5 C4 1_555 1_555
H9 C5 1_555 1_555
H10 C5 1_555 1_555
H11 C5 1_555 1_555
C6 C4 1_555 1_555
H12 C6 1_555 1_555
H13 C6 1_555 1_555
H14 C6 1_555 1_555
C7 N1 1_555 1_555
C8 C7 1_555 1_555
H15 C8 1_555 1_555
C9 C8 1_555 1_555
H16 C9 1_555 1_555
C10 C9 1_555 1_555
H17 C10 1_555 1_555
C11 N1 1_555 1_555
H18 C11 1_555 1_555
C12 C7 1_555 1_555
H19 C12 1_555 1_555
C12B C12 1_555 1_555
C7B C12B 1_555 1_555
N1B C7B 1_555 1_555
C11B N1B 1_555 1_555
C10B C11B 1_555 1_555
C9B C10B 1_555 1_555
C8B C7B 1_555 1_555
H15B C8B 1_555 1_555
H16B C9B 1_555 1_555
H17B C10B 1_555 1_555
H18B C11B 1_555 1_555
H19B C12B 1_555 1_555
S1B Cd1 1_555 1_555
S2B Cd1 1_555 1_555
P1B S1B 1_555 1_555
O1B P1B 1_555 1_555
O2B P1B 1_555 1_555
C1B O1B 1_555 1_555
H1B C1B 1_555 1_555
C2B C1B 1_555 1_555
H2B C2B 1_555 1_555
H3B C2B 1_555 1_555
H4B C2B 1_555 1_555
C3B C1B 1_555 1_555
H5B C3B 1_555 1_555
H6B C3B 1_555 1_555
H7B C3B 1_555 1_555
C4B O2B 1_555 1_555
H8B C4B 1_555 1_555
C5B C4B 1_555 1_555
H9B C5B 1_555 1_555
H10B C5B 1_555 1_555
H11B C5B 1_555 1_555
C6B C4B 1_555 1_555
H12B C6B 1_555 1_555
H13B C6B 1_555 1_555
H14B C6B 1_555 1_555
N1B_2 Cd1 1_555 1_555
Cd1_2 N1B 1_555 1_555
C10 C11 1_555 1_555
C9B C8B 1_555 1_555
S2B P1B 1_555 1_555

#END
