
#######################################################################
#
#                 Cambridge Crystallographic Data Centre
#                                CCDC 
#
#######################################################################
#
# If this CIF has been generated from an entry in the Cambridge 
# Structural Database, then it will include bibliographic, chemical, 
# crystal, experimental, refinement or atomic coordinate data resulting 
# from the CCDC's data processing and validation procedures.
#
#######################################################################

data_BILFAE
_symmetry_cell_setting           triclinic
_symmetry_space_group_name_H-M   'P -1'
_symmetry_Int_Tables_number      2
_space_group_name_Hall           '-P 1'
loop_
_symmetry_equiv_pos_site_id
_symmetry_equiv_pos_as_xyz
1 x,y,z
2 -x,-y,-z
_cell_length_a                   9.8840(7)
_cell_length_b                   12.0224(8)
_cell_length_c                   15.5425(11)
_cell_angle_alpha                73.260(2)
_cell_angle_beta                 73.373(1)
_cell_angle_gamma                80.077(2)
_cell_volume                     1686.53
loop_
_atom_site_label
_atom_site_type_symbol
_atom_site_fract_x
_atom_site_fract_y
_atom_site_fract_z
Cd1 Cd 0.19063(3) 0.39217(3) 0.26945(2)
S1 S 0.15556(14) 0.40281(12) 0.44428(9)
S2 S 0.40769(14) 0.24356(12) 0.32395(9)
S3 S 0.24207(13) 0.33727(11) 0.10628(9)
S4 S 0.00456(13) 0.23293(11) 0.30271(8)
S5 S 0.62541(14) 0.84352(11) 0.06893(9)
S6 S 0.69684(14) 0.86487(11) 0.17281(10)
P1 P 0.33270(13) 0.29453(10) 0.44058(8)
P2 P 0.07725(13) 0.24375(10) 0.16823(8)
O1 O 0.4419(3) 0.3599(3) 0.4607(2)
O2 O 0.3137(4) 0.1857(3) 0.5289(2)
O3 O -0.0384(4) 0.3036(3) 0.1116(3)
O4 O 0.1079(4) 0.1196(3) 0.1472(3)
N1 N 0.3414(4) 0.5478(4) 0.2012(3)
N2 N 1.0148(4) 0.5495(3) 0.2369(3)
C1 C 0.5934(5) 0.3193(5) 0.4466(4)
H1 H 0.6190 0.2651 0.4058
C2 C 0.6203(10) 0.2570(10) 0.5394(6)
H2 H 0.5677 0.1889 0.5658
H3 H 0.5897 0.3090 0.5804
H4 H 0.7209 0.2329 0.5322
C3 C 0.6728(7) 0.4258(6) 0.4001(6)
H5 H 0.6530 0.4617 0.3400
H6 H 0.7738 0.4032 0.3920
H7 H 0.6427 0.4809 0.4384
C4 C 0.2589(9) 0.0783(6) 0.5369(5)
H8 H 0.3103 0.0470 0.4827
C5 C 0.2898(9) -0.0054(6) 0.6247(6)
H9 H 0.3914 -0.0179 0.6182
H10 H 0.2534 -0.0793 0.6347
H11 H 0.2442 0.0275 0.6772
C6 C 0.1054(11) 0.0982(8) 0.5413(7)
H12 H 0.0905 0.1507 0.4837
H13 H 0.0557 0.1325 0.5925
H14 H 0.0693 0.0243 0.5507
C7 C -0.1857(6) 0.2753(6) 0.1446(5)
H15 H -0.2069 0.2373 0.2119
C8 C -0.2034(10) 0.1929(7) 0.0926(8)
H16 H -0.1444 0.1204 0.1078
H17 H -0.1753 0.2281 0.0264
H18 H -0.3020 0.1773 0.1102
C9 C -0.2765(7) 0.3874(7) 0.1274(5)
H19 H -0.2633 0.4362 0.1638
H20 H -0.3752 0.3721 0.1451
H21 H -0.2503 0.4272 0.0620
C10 C 0.1584(8) 0.0137(5) 0.2064(5)
H22 H 0.0961 0.0026 0.2701
C11 C 0.1437(10) -0.0814(6) 0.1648(8)
H23 H 0.0449 -0.0813 0.1663
H24 H 0.1768 -0.1565 0.2003
H25 H 0.2000 -0.0675 0.1010
C12 C 0.3102(9) 0.0171(6) 0.2088(6)
H26 H 0.3140 0.0790 0.2363
H27 H 0.3704 0.0316 0.1460
H28 H 0.3432 -0.0571 0.2454
C13 C 0.3996(6) 0.5863(5) 0.2525(4)
H29 H 0.3810 0.5502 0.3164
C14 C 0.4861(6) 0.6761(5) 0.2180(4)
H30 H 0.5259 0.6994 0.2574
C15 C 0.5128(5) 0.7304(4) 0.1255(3)
C16 C 0.4527(5) 0.6919(5) 0.0694(3)
H31 H 0.4688 0.7269 0.0054
C17 C 0.3690(5) 0.6009(5) 0.1111(4)
H32 H 0.3288 0.5746 0.0735
C18 C 0.8212(5) 0.7415(4) 0.1931(3)
C19 C 0.8857(6) 0.6752(5) 0.1305(4)
H33 H 0.8657 0.6940 0.0721
C20 C 0.9807(6) 0.5804(5) 0.1557(4)
H34 H 1.0236 0.5353 0.1130
C21 C 0.9520(5) 0.6143(4) 0.2961(3)
H35 H 0.9757 0.5945 0.3534
C22 C 0.8541(6) 0.7090(4) 0.2786(3)
H36 H 0.8104 0.7507 0.3237
N2_2 N 0.0148(4) 0.5495(3) 0.2369(3)
Cd1_2 Cd 1.19063(3) 0.39217(3) 0.26945(2)
loop_
_geom_bond_atom_site_label_1
_geom_bond_atom_site_label_2
_geom_bond_site_symmetry_1
_geom_bond_site_symmetry_2
Cd1 S1 1_555 1_555
S1 P1 1_555 1_555
S2 Cd1 1_555 1_555
S3 Cd1 1_555 1_555
S4 Cd1 1_555 1_555
S5 S6 1_555 1_555
S6 C18 1_555 1_555
P1 S2 1_555 1_555
P2 S3 1_555 1_555
O1 P1 1_555 1_555
O2 P1 1_555 1_555
O3 P2 1_555 1_555
O4 P2 1_555 1_555
N1 Cd1 1_555 1_555
N2 C20 1_555 1_555
C1 O1 1_555 1_555
H1 C1 1_555 1_555
C2 C1 1_555 1_555
H2 C2 1_555 1_555
H3 C2 1_555 1_555
H4 C2 1_555 1_555
C3 C1 1_555 1_555
H5 C3 1_555 1_555
H6 C3 1_555 1_555
H7 C3 1_555 1_555
C4 O2 1_555 1_555
H8 C4 1_555 1_555
C5 C4 1_555 1_555
H9 C5 1_555 1_555
H10 C5 1_555 1_555
H11 C5 1_555 1_555
C6 C4 1_555 1_555
H12 C6 1_555 1_555
H13 C6 1_555 1_555
H14 C6 1_555 1_555
C7 O3 1_555 1_555
H15 C7 1_555 1_555
C8 C7 1_555 1_555
H16 C8 1_555 1_555
H17 C8 1_555 1_555
H18 C8 1_555 1_555
C9 C7 1_555 1_555
H19 C9 1_555 1_555
H20 C9 1_555 1_555
H21 C9 1_555 1_555
C10 O4 1_555 1_555
H22 C10 1_555 1_555
C11 C10 1_555 1_555
H23 C11 1_555 1_555
H24 C11 1_555 1_555
H25 C11 1_555 1_555
C12 C10 1_555 1_555
H26 C12 1_555 1_555
H27 C12 1_555 1_555
H28 C12 1_555 1_555
C13 N1 1_555 1_555
H29 C13 1_555 1_555
C14 C13 1_555 1_555
H30 C14 1_555 1_555
C15 S5 1_555 1_555
C16 C15 1_555 1_555
H31 C16 1_555 1_555
C17 N1 1_555 1_555
H32 C17 1_555 1_555
C18 C19 1_555 1_555
C19 H33 1_555 1_555
C20 C19 1_555 1_555
H34 C20 1_555 1_555
C21 N2 1_555 1_555
H35 C21 1_555 1_555
C22 C18 1_555 1_555
H36 C22 1_555 1_555
N2_2 Cd1 1_555 1_555
Cd1_2 N2 1_555 1_555
S4 P2 1_555 1_555
C14 C15 1_555 1_555
C16 C17 1_555 1_555
C21 C22 1_555 1_555

#END
