
#######################################################################
#
#                 Cambridge Crystallographic Data Centre
#                                CCDC 
#
#######################################################################
#
# If this CIF has been generated from an entry in the Cambridge 
# Structural Database, then it will include bibliographic, chemical, 
# crystal, experimental, refinement or atomic coordinate data resulting 
# from the CCDC's data processing and validation procedures.
#
#######################################################################

data_BILKIR
_symmetry_cell_setting           triclinic
_symmetry_space_group_name_H-M   'P -1'
_symmetry_Int_Tables_number      2
_space_group_name_Hall           '-P 1'
loop_
_symmetry_equiv_pos_site_id
_symmetry_equiv_pos_as_xyz
1 x,y,z
2 -x,-y,-z
_cell_length_a                   7.4920(10)
_cell_length_b                   8.736(2)
_cell_length_c                   9.422(2)
_cell_angle_alpha                98.21(3)
_cell_angle_beta                 98.76(3)
_cell_angle_gamma                107.97(3)
_cell_volume                     567.81
loop_
_atom_site_label
_atom_site_type_symbol
_atom_site_fract_x
_atom_site_fract_y
_atom_site_fract_z
Cd1 Cd 0.22893(5) 0.16844(4) 0.13716(4)
Cd2 Cd 0.70753(5) 0.55084(4) 0.32451(4)
O1 O 0.4707(5) 0.6783(4) 0.3336(4)
O2 O 0.3971(4) 0.4412(4) 0.1847(4)
O3 O -0.2093(5) 0.6981(5) 0.1498(4)
O4 O 0.0176(5) 0.8391(4) 0.0466(4)
O5 O 0.0482(5) 0.6786(4) 0.3786(4)
O6 O 0.2725(5) 0.6919(4) 0.6755(4)
O7 O 0.5559(5) 0.8923(4) 0.7106(4)
O8 O -0.0120(5) 0.8817(4) 0.7204(4)
O9 O -0.1915(5) 0.6471(4) 0.5704(4)
C1 C 0.3558(6) 0.5670(6) 0.2353(5)
C2 C 0.1664(7) 0.5792(6) 0.1668(5)
H1 H 0.0662 0.4781 0.1639
H2 H 0.1689 0.5917 0.0675
C3 C 0.1165(6) 0.7211(6) 0.2456(5)
H3 H 0.2296 0.8171 0.2734
C4 C -0.0384(7) 0.7557(5) 0.1406(5)
C5 C -0.0519(6) 0.7776(6) 0.6026(5)
C6 C 0.0765(6) 0.8245(5) 0.4923(5)
H4 H 0.0301 0.8976 0.4426
C7 C 0.2838(6) 0.9199(6) 0.5657(5)
H5 H 0.2896 1.0197 0.6271
H6 H 0.3546 0.9497 0.4913
C8 C 0.3802(6) 0.8278(5) 0.6575(5)
O10 O 0.3558(8) 0.0698(7) -0.0471(5)
H7 H 0.3447 -0.0275 -0.0863
H8 H 0.4514 0.1550 -0.0126
O4A O -0.0176(5) 0.1609(4) -0.0466(4)
O7A O 0.4441(5) 0.1077(4) 0.2894(4)
O8A O 0.0120(5) 0.1183(4) 0.2796(4)
O3_2 O 0.7907(5) 0.6981(5) 0.1498(4)
O5_2 O 1.0482(5) 0.6786(4) 0.3786(4)
O6A O 0.7275(5) 0.3081(4) 0.3245(4)
O9_2 O 0.8085(5) 0.6471(4) 0.5704(4)
Cd2_2 Cd -0.29247(5) 0.55084(4) 0.32451(4)
Cd1A Cd -0.22893(5) 0.83156(4) -0.13716(4)
Cd2A Cd 0.29247(5) 0.44916(4) 0.67549(4)
Cd1A_2 Cd 0.77107(5) 0.83156(4) 0.86284(4)
Cd1A_3 Cd -0.22893(5) 0.83156(4) 0.86284(4)
loop_
_geom_bond_atom_site_label_1
_geom_bond_atom_site_label_2
_geom_bond_site_symmetry_1
_geom_bond_site_symmetry_2
Cd1 O2 1_555 1_555
Cd2 O1 1_555 1_555
O1 C1 1_555 1_555
O2 Cd2 1_555 1_555
O3 C4 1_555 1_555
O4 C4 1_555 1_555
O5 C3 1_555 1_555
O6 C8 1_555 1_555
O7 C8 1_555 1_555
O8 C5 1_555 1_555
O9 C5 1_555 1_555
C1 O2 1_555 1_555
C2 C1 1_555 1_555
H1 C2 1_555 1_555
H2 C2 1_555 1_555
C3 C2 1_555 1_555
H3 C3 1_555 1_555
C4 C3 1_555 1_555
C5 C6 1_555 1_555
C6 O5 1_555 1_555
H4 C6 1_555 1_555
C7 C6 1_555 1_555
H5 C7 1_555 1_555
H6 C7 1_555 1_555
C8 C7 1_555 1_555
O10 Cd1 1_555 1_555
H7 O10 1_555 1_555
H8 O10 1_555 1_555
O4A Cd1 1_555 1_555
O7A Cd1 1_555 1_555
O8A Cd1 1_555 1_555
O3_2 Cd2 1_555 1_555
O5_2 Cd2 1_555 1_555
O6A Cd2 1_555 1_555
O9_2 Cd2 1_555 1_555
Cd2_2 O3 1_555 1_555
Cd1A O4 1_555 1_555
Cd2A O6 1_555 1_555
Cd1A_2 O7 1_555 1_555
Cd1A_3 O8 1_555 1_555
O5 Cd2_2 1_555 1_555
O9 Cd2_2 1_555 1_555

#END
