
#######################################################################
#
#                 Cambridge Crystallographic Data Centre
#                                CCDC 
#
#######################################################################
#
# If this CIF has been generated from an entry in the Cambridge 
# Structural Database, then it will include bibliographic, chemical, 
# crystal, experimental, refinement or atomic coordinate data resulting 
# from the CCDC's data processing and validation procedures.
#
#######################################################################

data_BILNOB
_symmetry_cell_setting           monoclinic
_symmetry_space_group_name_H-M   'P 21/c'
_symmetry_Int_Tables_number      14
_space_group_name_Hall           '-P 2ybc'
loop_
_symmetry_equiv_pos_site_id
_symmetry_equiv_pos_as_xyz
1 x,y,z
2 -x,1/2+y,1/2-z
3 -x,-y,-z
4 x,1/2-y,1/2+z
_cell_length_a                   8.7426(11)
_cell_length_b                   14.3464(19)
_cell_length_c                   7.2686(10)
_cell_angle_alpha                90
_cell_angle_beta                 110.808(2)
_cell_angle_gamma                90
_cell_volume                     852.201
loop_
_atom_site_label
_atom_site_type_symbol
_atom_site_fract_x
_atom_site_fract_y
_atom_site_fract_z
C1 C 0.1873(4) 0.0176(2) -0.0298(5)
C2 C 0.2752(5) -0.0569(2) 0.1224(5)
H1 H 0.1949 -0.1035 0.1321
H2 H 0.3568 -0.0895 0.0797
C3 C 0.5082(4) 0.0405(3) 0.3230(5)
H3 H 0.4757 0.0897 0.2209
H4 H 0.5849 -0.0022 0.2925
C4 C 0.4077(4) -0.0842(2) 0.4784(5)
H5 H 0.4822 -0.1300 0.4520
H6 H 0.3091 -0.1180 0.4788
Cd1 Cd 0.13987(3) 0.244236(16) -0.03240(4)
Cl1 Cl 0.36262(11) 0.22178(7) -0.18887(13)
Cl2 Cl -0.08013(13) 0.24235(6) -0.37172(15)
N1 N 0.3592(3) -0.01283(19) 0.3193(4)
H7 H 0.2868 0.0286 0.3438
O1 O 0.1524(3) 0.09003(17) 0.0417(4)
O2 O 0.1574(3) -0.00200(18) -0.2045(3)
O3 O 0.1325(3) 0.41230(18) -0.0496(3)
H8 H 0.1428 0.4348 0.0623
H9 H 0.0417 0.4305 -0.1325
C1B C 0.8127(4) -0.0176(2) 1.0298(5)
C2B C 0.7248(5) 0.0569(2) 0.8776(5)
H1B H 0.8051 0.1035 0.8679
H2B H 0.6432 0.0895 0.9203
C3B C 0.4918(4) -0.0405(3) 0.6770(5)
H3B H 0.5243 -0.0897 0.7791
H4B H 0.4151 0.0022 0.7075
C4B C 0.5923(4) 0.0842(2) 0.5216(5)
H5B H 0.5178 0.1300 0.5480
H6B H 0.6909 0.1180 0.5212
N1B N 0.6408(3) 0.01283(19) 0.6807(4)
H7B H 0.7132 -0.0286 0.6562
O1B O 0.8476(3) -0.09003(17) 0.9583(4)
O2B O 0.8426(3) 0.00200(18) 1.2045(3)
Cd1B Cd 0.86013(3) -0.244236(16) 1.03240(4)
Cl1B Cl 0.63738(11) -0.22178(7) 1.18887(13)
Cl2B Cl 1.08013(13) -0.24235(6) 1.37172(15)
O3B O 0.8675(3) -0.41230(18) 1.0496(3)
H8B H 0.8572 -0.4348 0.9377
H9B H 0.9583 -0.4305 1.1325
Cd1A Cd 0.86013(3) -0.255764(16) 1.53240(4)
Cd1C Cd 0.13987(3) 0.255764(16) -0.53240(4)
Cl1A Cl 0.63738(11) -0.27822(7) 0.68887(13)
Cl1C Cl 0.36262(11) 0.27822(7) 0.31113(13)
Cl2A Cl 1.08013(13) -0.25765(6) 0.87172(15)
Cl2C Cl -0.08013(13) 0.25765(6) 0.12828(15)
loop_
_geom_bond_atom_site_label_1
_geom_bond_atom_site_label_2
_geom_bond_site_symmetry_1
_geom_bond_site_symmetry_2
C1 C2 1_555 1_555
C2 H1 1_555 1_555
H2 C2 1_555 1_555
C3 H3 1_555 1_555
H4 C3 1_555 1_555
C4 H5 1_555 1_555
H6 C4 1_555 1_555
Cd1 Cl1 1_555 1_555
Cl1 Cd1C 1_555 1_555
Cl2 Cd1 1_555 1_555
N1 C2 1_555 1_555
H7 N1 1_555 1_555
O1 C1 1_555 1_555
O2 C1 1_555 1_555
O3 Cd1 1_555 1_555
H8 O3 1_555 1_555
H9 O3 1_555 1_555
C1B C2B 1_555 1_555
C2B H1B 1_555 1_555
H2B C2B 1_555 1_555
C3B C4 1_555 1_555
H3B C3B 1_555 1_555
H4B C3B 1_555 1_555
C4B C3 1_555 1_555
H5B C4B 1_555 1_555
H6B C4B 1_555 1_555
N1B C2B 1_555 1_555
H7B N1B 1_555 1_555
O1B C1B 1_555 1_555
O2B C1B 1_555 1_555
Cd1B O1B 1_555 1_555
Cl1B Cd1B 1_555 1_555
Cl2B Cd1B 1_555 1_555
O3B Cd1B 1_555 1_555
H8B O3B 1_555 1_555
H9B O3B 1_555 1_555
Cd1A Cl1B 1_555 1_555
Cd1C Cl2 1_555 1_555
Cl1A Cd1B 1_555 1_555
Cl1C Cd1 1_555 1_555
Cl2A Cd1B 1_555 1_555
Cl2C Cd1 1_555 1_555
C3 N1 1_555 1_555
C4 N1 1_555 1_555
Cd1 O1 1_555 1_555
C3B N1B 1_555 1_555
C4B N1B 1_555 1_555
Cl2B Cd1A 1_555 1_555

#END
