
#######################################################################
#
#                 Cambridge Crystallographic Data Centre
#                                CCDC 
#
#######################################################################
#
# If this CIF has been generated from an entry in the Cambridge 
# Structural Database, then it will include bibliographic, chemical, 
# crystal, experimental, refinement or atomic coordinate data resulting 
# from the CCDC's data processing and validation procedures.
#
#######################################################################

data_BILQIW
_symmetry_cell_setting           monoclinic
_symmetry_space_group_name_H-M   'P 21/c'
_symmetry_Int_Tables_number      14
_space_group_name_Hall           '-P 2ybc'
loop_
_symmetry_equiv_pos_site_id
_symmetry_equiv_pos_as_xyz
1 x,y,z
2 x,1/2-y,1/2+z
3 -x,-y,-z
4 -x,1/2+y,1/2-z
_cell_length_a                   17.976(5)
_cell_length_b                   5.010(2)
_cell_length_c                   28.242(2)
_cell_angle_alpha                90
_cell_angle_beta                 89.662(3)
_cell_angle_gamma                90
_cell_volume                     2543.42
loop_
_atom_site_label
_atom_site_type_symbol
_atom_site_fract_x
_atom_site_fract_y
_atom_site_fract_z
S1 S 0.6348(2) 1.2004(5) 0.1080(1)
S2 S 0.8364(2) 1.1972(6) 0.1613(1)
F1 F 0.4981(6) 1.323(3) 0.0879(5)
F2 F 0.5343(6) 0.949(2) 0.0600(5)
F3 F 0.5738(6) 1.313(2) 0.0270(4)
F4 F 0.9725(6) 1.319(3) 0.1808(6)
F5 F 0.9025(6) 1.315(3) 0.2395(4)
F6 F 0.9380(6) 0.945(3) 0.2085(6)
O1 O 0.6480(6) 1.481(2) 0.1145(4)
O2 O 0.6108(5) 1.060(2) 0.1495(3)
O3 O 0.6941(5) 1.073(2) 0.0796(4)
O4 O 0.7802(5) 1.059(2) 0.1880(4)
O5 O 0.8609(6) 1.057(2) 0.1192(4)
O6 O 0.8208(6) 1.475(2) 0.1541(4)
C1 C 0.7634(7) 0.539(2) 0.0049(5)
C2 C 0.833(1) 0.463(3) 0.0189(6)
C3 C 0.8939(8) 0.591(3) 0.0011(6)
C4 C 0.8880(9) 0.796(3) -0.0316(6)
C5 C 0.9523(9) 0.922(3) -0.0532(6)
C6 C 0.9439(8) 1.107(4) -0.0904(5)
C7 C 0.8720(8) 1.190(3) -0.1048(5)
C8 C 0.8624(7) 1.382(3) -0.1389(5)
C9 C 0.7905(7) 1.469(2) -0.1540(5)
C10 C 0.7829(8) 1.671(3) -0.1887(5)
C11 C 0.7148(8) 1.764(2) -0.2024(5)
C12 C 0.7081(9) 1.976(3) -0.2372(5)
C13 C 0.6371(10) 2.064(2) -0.2486(5)
C14 C 0.5759(10) 1.944(3) -0.2277(6)
C15 C 0.5783(9) 1.751(3) -0.1955(6)
C16 C 0.6493(7) 1.646(3) -0.1817(5)
C17 C 0.6564(7) 1.449(3) -0.1493(6)
C18 C 0.7272(7) 1.356(2) -0.1333(4)
C19 C 0.7361(8) 1.151(3) -0.0983(4)
C20 C 0.6711(6) 1.025(3) -0.0758(5)
C21 C 0.6809(8) 0.829(3) -0.0416(5)
C22 C 0.7521(8) 0.744(2) -0.0280(5)
C23 C 0.8155(7) 0.872(2) -0.0472(4)
C24 C 0.8047(6) 1.071(2) -0.0840(4)
C25 C 0.5555(8) 1.195(3) 0.0669(6)
C26 C 0.9166(9) 1.200(3) 0.1986(6)
H1 H 0.7204 0.4431 0.0185
H2 H 0.8387 0.3236 0.0424
H3 H 0.9434 0.5425 0.0125
H4 H 1.0001 0.8764 -0.0427
H5 H 0.9882 1.1686 -0.1059
H6 H 0.9068 1.4620 -0.1531
H7 H 0.8278 1.7434 -0.2038
H8 H 0.7513 2.0550 -0.2520
H9 H 0.6300 2.2032 -0.2704
H10 H 0.5279 2.0010 -0.2380
H11 H 0.5334 1.6822 -0.1809
H12 H 0.6120 1.3645 -0.1352
H13 H 0.6213 1.0749 -0.0853
H14 H 0.6388 0.7482 -0.0265
Ag1 Ag 0.78391(7) 0.7220(2) 0.08453(4)
Ag2 Ag 0.68590(7) 1.7169(2) 0.18598(4)
O6_2 O 0.8208(6) 0.475(2) 0.1541(4)
Ag1_2 Ag 0.78391(7) 1.7220(2) 0.08453(4)
Ag2_2 Ag 0.68590(7) 0.7169(2) 0.18598(4)
Ag2A Ag 0.68590(7) 1.7831(2) -0.31402(4)
O2_2 O 0.6108(5) 2.060(2) 0.1495(3)
O4_2 O 0.7802(5) 2.059(2) 0.1880(4)
C12A C 0.7081(9) 1.524(3) 0.2628(5)
C13A C 0.6371(10) 1.436(2) 0.2514(5)
H8A H 0.7513 1.4450 0.2480
H9A H 0.6300 1.2968 0.2296
loop_
_geom_bond_atom_site_label_1
_geom_bond_atom_site_label_2
_geom_bond_site_symmetry_1
_geom_bond_site_symmetry_2
S1 O1 1_555 1_555
S2 O4 1_555 1_555
F1 C25 1_555 1_555
F2 C25 1_555 1_555
F3 C25 1_555 1_555
F4 C26 1_555 1_555
F5 C26 1_555 1_555
F6 C26 1_555 1_555
O1 Ag2 1_555 1_555
O2 S1 1_555 1_555
O3 S1 1_555 1_555
O4 Ag2_2 1_555 1_555
O5 S2 1_555 1_555
O6 S2 1_555 1_555
C1 C2 1_555 1_555
C2 C3 1_555 1_555
C3 C4 1_555 1_555
C4 C5 1_555 1_555
C5 C6 1_555 1_555
C6 C7 1_555 1_555
C7 C8 1_555 1_555
C8 C9 1_555 1_555
C9 C10 1_555 1_555
C10 C11 1_555 1_555
C11 C12 1_555 1_555
C12 C13 1_555 1_555
C13 C14 1_555 1_555
C14 C15 1_555 1_555
C15 C16 1_555 1_555
C16 C11 1_555 1_555
C17 C16 1_555 1_555
C18 C9 1_555 1_555
C19 C18 1_555 1_555
C20 C19 1_555 1_555
C21 C20 1_555 1_555
C22 C1 1_555 1_555
C23 C4 1_555 1_555
C24 C7 1_555 1_555
C25 S1 1_555 1_555
C26 S2 1_555 1_555
H1 C1 1_555 1_555
H2 C2 1_555 1_555
H3 C3 1_555 1_555
H4 C5 1_555 1_555
H5 C6 1_555 1_555
H6 C8 1_555 1_555
H7 C10 1_555 1_555
H8 C12 1_555 1_555
H9 C13 1_555 1_555
H10 C14 1_555 1_555
H11 C15 1_555 1_555
H12 C17 1_555 1_555
H13 C20 1_555 1_555
H14 C21 1_555 1_555
Ag1 O3 1_555 1_555
Ag2 O2_2 1_555 1_555
O6_2 Ag1 1_555 1_555
Ag1_2 O6 1_555 1_555
Ag2_2 O2 1_555 1_555
Ag2A C12 1_555 1_555
O4_2 Ag2 1_555 1_555
C12A Ag2 1_555 1_555
C13A Ag2 1_555 1_555
H8A C12A 1_555 1_555
H9A C13A 1_555 1_555
O5 Ag1 1_555 1_555
C1 Ag1 1_555 1_555
C2 Ag1 1_555 1_555
C13 Ag2A 1_555 1_555
C17 C18 1_555 1_555
C19 C24 1_555 1_555
C21 C22 1_555 1_555
C22 C23 1_555 1_555
C23 C24 1_555 1_555
C12A C13A 1_555 1_555

#END
