
#######################################################################
#
#                 Cambridge Crystallographic Data Centre
#                                CCDC 
#
#######################################################################
#
# If this CIF has been generated from an entry in the Cambridge 
# Structural Database, then it will include bibliographic, chemical, 
# crystal, experimental, refinement or atomic coordinate data resulting 
# from the CCDC's data processing and validation procedures.
#
#######################################################################

data_BILRUK01
_symmetry_cell_setting           monoclinic
_symmetry_space_group_name_H-M   'P 21'
_symmetry_Int_Tables_number      4
_space_group_name_Hall           'P 2yb'
loop_
_symmetry_equiv_pos_site_id
_symmetry_equiv_pos_as_xyz
1 x,y,z
2 -x,1/2+y,-z
_cell_length_a                   7.3479(2)
_cell_length_b                   12.2358(4)
_cell_length_c                   32.6615(11)
_cell_angle_alpha                90
_cell_angle_beta                 91.1491(5)
_cell_angle_gamma                90
_cell_volume                     2935.92
loop_
_atom_site_label
_atom_site_type_symbol
_atom_site_fract_x
_atom_site_fract_y
_atom_site_fract_z
Cu1 Cu 0.62376(13) 0.39117(17) 0.17506(4)
Cu2 Cu 0.03344(14) 0.90450(18) 0.07261(4)
N1 N 0.7178(14) 0.2391(8) 0.1776(3)
N2 N 0.9015(9) 0.4372(8) 0.1913(2)
N3 N 0.5539(13) 0.5410(8) 0.1648(3)
N4 N 0.4124(19) 0.7150(12) 0.1522(6)
N5 N 0.1595(14) 0.7778(8) 0.1134(3)
N6 N 0.5177(11) 0.3780(9) 0.2393(2)
N7 N 0.3563(17) 0.3448(13) 0.2994(3)
N8 N 0.0538(15) 0.2598(11) 0.3082(2)
N9 N 0.4377(13) 0.3297(9) 0.1331(2)
N10 N 0.258(2) 0.2332(10) 0.0877(5)
N11 N 0.2092(11) 0.0331(8) 0.0787(3)
N12 N -0.1174(10) 0.9501(7) 0.1182(2)
N13 N -0.2190(9) 0.8373(9) 0.0531(2)
N14 N 0.1528(17) 0.8519(11) 0.0256(4)
N15 N 0.3191(16) 0.8154(14) -0.0344(3)
N16 N 0.2290(17) 0.6759(9) -0.0930(3)
C1 C 0.8845(16) 0.2475(12) 0.2048(3)
C2 C 1.005(2) 0.3272(15) 0.1903(4)
C3 C 0.9786(17) 0.5019(13) 0.1556(4)
C4 C 0.934(2) 0.4615(12) 0.1141(4)
C5 C 0.903(2) 0.4817(13) 0.2342(4)
C6 C 1.066(2) 0.5535(14) 0.2429(5)
C7 C 0.4711(14) 0.6168(10) 0.1607(5)
C8 C 0.2700(17) 0.7438(9) 0.1316(3)
C9 C 0.4385(13) 0.3616(8) 0.2679(3)
C10 C 0.1913(19) 0.2861(15) 0.3007(5)
C11 C 0.3572(15) 0.2794(13) 0.1190(4)
C12 C 0.2368(13) 0.1208(9) 0.0851(3)
C13 C -0.2820(19) 0.9024(13) 0.1170(4)
C14 C -0.3720(8) 0.8881(10) 0.0818(2)
C15 C -0.2447(12) 0.8699(9) 0.0061(2)
C16 C -0.211(2) 0.9905(11) -0.0039(3)
C17 C -0.1933(16) 0.7242(11) 0.0545(5)
C18 C -0.369(2) 0.6509(13) 0.0414(5)
C19 C 0.2253(12) 0.8265(10) -0.0095(3)
C20 C 0.2476(17) 0.7428(13) -0.0678(3)
H1 H 0.6307 0.1915 0.1892
H2 H 0.7480 0.2136 0.1512
H3 H -0.0570 0.9309 0.1432
H4 H -0.1329 1.0271 0.1170
H9 H 0.8492 0.2668 0.2316
H10 H 0.9446 0.1787 0.2055
H11 H 1.0382 0.3105 0.1631
H12 H 1.1106 0.3306 0.2074
H13 H 0.9340 0.5746 0.1573
H14 H 1.1074 0.5023 0.1587
H15 H 1.0267 0.4127 0.1056
H16 H 0.9263 0.5213 0.0956
H17 H 0.8208 0.4242 0.1143
H18 H 0.7953 0.5229 0.2380
H19 H 0.9064 0.4220 0.2528
H20 H 1.1558 0.5134 0.2577
H21 H 1.0289 0.6147 0.2586
H22 H 1.1141 0.5782 0.2178
H23 H -0.2671 0.8319 0.1288
H24 H -0.3582 0.9454 0.1337
H25 H -0.4160 0.9556 0.0711
H26 H -0.4709 0.8389 0.0847
H27 H -0.1625 0.8274 -0.0094
H28 H -0.3661 0.8528 -0.0022
H29 H -0.3192 1.0309 0.0001
H30 H -0.1745 0.9973 -0.0315
H31 H -0.1171 1.0180 0.0138
H32 H -0.0974 0.7062 0.0366
H33 H -0.1587 0.7053 0.0818
H34 H -0.4405 0.6382 0.0648
H35 H -0.3293 0.5830 0.0306
H36 H -0.4390 0.6887 0.0212
N11_2 N 0.2092(11) 1.0331(8) 0.0787(3)
Cu2_2 Cu 0.03344(14) -0.09550(18) 0.07261(4)
Cu3 Cu -0.13039(17) -0.07359(17) 0.32440(4)
Cu4 Cu 0.46296(14) -0.58843(19) 0.42708(4)
N17 N -0.2243(11) 0.0740(8) 0.3161(2)
N18 N -0.3970(12) -0.1211(7) 0.3125(2)
N19 N -0.0458(16) -0.2269(11) 0.3379(4)
N20 N 0.1026(16) -0.3991(8) 0.3415(3)
N21 N 0.3486(19) -0.4630(11) 0.3885(5)
N22 N 0.0047(11) -0.0681(11) 0.2692(2)
N23 N 0.1311(12) -0.0230(9) 0.1982(2)
N24 N 0.410(2) 0.073(2) 0.1927(5)
N25 N 0.0714(12) -0.0177(8) 0.3578(2)
N26 N 0.2186(16) 0.0916(10) 0.4149(2)
N27 N 0.309(2) 0.2813(12) 0.4200(3)
N28 N 0.5969(12) -0.6482(7) 0.3807(2)
N29 N 0.7031(12) -0.5298(7) 0.4508(2)
N30 N 0.3290(12) -0.5410(10) 0.4771(3)
N31 N 0.1921(15) -0.4920(10) 0.5419(2)
N32 N 0.298(2) -0.3745(11) 0.5923(3)
C21 C -0.3870(16) 0.0796(12) 0.2899(4)
C22 C -0.5014(12) -0.0183(11) 0.3065(4)
C23 C -0.4734(17) -0.1930(10) 0.3430(4)
C24 C -0.453(2) -0.1593(14) 0.3864(4)
C25 C -0.403(2) -0.1961(16) 0.2763(3)
C26 C -0.576(3) -0.267(2) 0.2691(8)
C27 C 0.0230(16) -0.3057(9) 0.3427(3)
C28 C 0.2287(16) -0.4248(11) 0.3673(5)
C29 C 0.0737(16) -0.0423(13) 0.2375(3)
C30 C 0.2894(15) 0.0199(8) 0.1962(2)
C31 C 0.1390(12) 0.0377(7) 0.3893(2)
C32 C 0.2567(15) 0.1881(13) 0.4144(4)
C33 C 0.7748(13) -0.5746(10) 0.3752(3)
C34 C 0.8244(11) -0.5731(10) 0.4238(3)
C35 C 0.7714(18) -0.5671(15) 0.4872(5)
C36 C 0.7311(19) -0.6870(14) 0.4985(4)
C37 C 0.7092(19) -0.4025(12) 0.4460(4)
C38 C 0.864(2) -0.3479(14) 0.4680(5)
C39 C 0.2783(18) -0.5179(11) 0.5029(3)
C40 C 0.2327(14) -0.4215(9) 0.5631(3)
H5 H -0.2530 0.1036 0.3421
H6 H -0.1318 0.1169 0.3040
H7 H 0.6311 -0.7217 0.3862
H8 H 0.5231 -0.6457 0.3565
H37 H -0.4490 0.1471 0.2931
H38 H -0.3584 0.0698 0.2619
H39 H -0.5982 -0.0322 0.2875
H40 H -0.5499 0.0025 0.3321
H41 H -0.6000 -0.1996 0.3370
H42 H -0.4169 -0.2623 0.3403
H43 H -0.3429 -0.1881 0.3975
H44 H -0.5530 -0.1865 0.4014
H45 H -0.4509 -0.0818 0.3881
H46 H 0.8653 -0.6088 0.3593
H47 H 0.7488 -0.5042 0.3643
H48 H 0.9342 -0.5328 0.4270
H49 H 0.8447 -0.6468 0.4318
H50 H 0.8999 -0.5588 0.4867
H51 H 0.7236 -0.5223 0.5081
H52 H 0.6131 -0.6919 0.5098
H53 H 0.8190 -0.7116 0.5182
H54 H 0.7366 -0.7313 0.4747
H55 H 0.7180 -0.3860 0.4177
H56 H 0.5987 -0.3736 0.4560
H57 H 0.8243 -0.3233 0.4940
H58 H 0.9040 -0.2872 0.4524
H59 H 0.9611 -0.3982 0.4717
N27_2 N 0.309(2) -0.7187(12) 0.4200(3)
Cu4_2 Cu 0.46296(14) 0.41157(19) 0.42708(4)
C41? C -0.319(3) -0.256(2) 0.2559(9)
loop_
_geom_bond_atom_site_label_1
_geom_bond_atom_site_label_2
_geom_bond_site_symmetry_1
_geom_bond_site_symmetry_2
Cu1 N1 1_555 1_555
Cu2 N5 1_555 1_555
Cu3 N17 1_555 1_555
Cu4 N21 1_555 1_555
N1 C1 1_555 1_555
N2 Cu1 1_555 1_555
N3 Cu1 1_555 1_555
N4 C7 1_555 1_555
N5 C8 1_555 1_555
N6 Cu1 1_555 1_555
N7 C9 1_555 1_555
N8 C10 1_555 1_555
N9 Cu1 1_555 1_555
N10 C11 1_555 1_555
N11 C12 1_555 1_555
N12 Cu2 1_555 1_555
N13 Cu2 1_555 1_555
N14 Cu2 1_555 1_555
N15 C19 1_555 1_555
N16 C20 1_555 1_555
N17 C21 1_555 1_555
N18 Cu3 1_555 1_555
N19 Cu3 1_555 1_555
N20 C27 1_555 1_555
N21 C28 1_555 1_555
N22 Cu3 1_555 1_555
N23 C29 1_555 1_555
N24 C30 1_555 1_555
N25 Cu3 1_555 1_555
N26 C31 1_555 1_555
N27 C32 1_555 1_555
N28 Cu4 1_555 1_555
N29 Cu4 1_555 1_555
N30 Cu4 1_555 1_555
N31 C39 1_555 1_555
N32 C40 1_555 1_555
C1 C2 1_555 1_555
C2 N2 1_555 1_555
C3 N2 1_555 1_555
C4 C3 1_555 1_555
C5 N2 1_555 1_555
C6 C5 1_555 1_555
C7 N3 1_555 1_555
C8 N4 1_555 1_555
C9 N6 1_555 1_555
C10 N7 1_555 1_555
C11 N9 1_555 1_555
C12 N10 1_555 1_555
C13 N12 1_555 1_555
C14 N13 1_555 1_555
C15 N13 1_555 1_555
C16 C15 1_555 1_555
C17 N13 1_555 1_555
C18 C17 1_555 1_555
C19 N14 1_555 1_555
C20 N15 1_555 1_555
C21 C22 1_555 1_555
C22 N18 1_555 1_555
C23 N18 1_555 1_555
C24 C23 1_555 1_555
C25 N18 1_555 1_555
C26 C25 1_555 1_555
C27 N19 1_555 1_555
C28 N20 1_555 1_555
C29 N22 1_555 1_555
C30 N23 1_555 1_555
C31 N25 1_555 1_555
C32 N26 1_555 1_555
C33 N28 1_555 1_555
C34 N29 1_555 1_555
C35 N29 1_555 1_555
C36 C35 1_555 1_555
C37 N29 1_555 1_555
C38 C37 1_555 1_555
C39 N30 1_555 1_555
C40 N31 1_555 1_555
H1 N1 1_555 1_555
H2 N1 1_555 1_555
H3 N12 1_555 1_555
H4 N12 1_555 1_555
H5 N17 1_555 1_555
H6 N17 1_555 1_555
H7 N28 1_555 1_555
H8 N28 1_555 1_555
H9 C1 1_555 1_555
H10 C1 1_555 1_555
H11 C2 1_555 1_555
H12 C2 1_555 1_555
H13 C3 1_555 1_555
H14 C3 1_555 1_555
H15 C4 1_555 1_555
H16 C4 1_555 1_555
H17 C4 1_555 1_555
H18 C5 1_555 1_555
H19 C5 1_555 1_555
H20 C6 1_555 1_555
H21 C6 1_555 1_555
H22 C6 1_555 1_555
H23 C13 1_555 1_555
H24 C13 1_555 1_555
H25 C14 1_555 1_555
H26 C14 1_555 1_555
H27 C15 1_555 1_555
H28 C15 1_555 1_555
H29 C16 1_555 1_555
H30 C16 1_555 1_555
H31 C16 1_555 1_555
H32 C17 1_555 1_555
H33 C17 1_555 1_555
H34 C18 1_555 1_555
H35 C18 1_555 1_555
H36 C18 1_555 1_555
H37 C21 1_555 1_555
H38 C21 1_555 1_555
H39 C22 1_555 1_555
H40 C22 1_555 1_555
H41 C23 1_555 1_555
H42 C23 1_555 1_555
H43 C24 1_555 1_555
H44 C24 1_555 1_555
H45 C24 1_555 1_555
H46 C33 1_555 1_555
H47 C33 1_555 1_555
H48 C34 1_555 1_555
H49 C34 1_555 1_555
H50 C35 1_555 1_555
H51 C35 1_555 1_555
H52 C36 1_555 1_555
H53 C36 1_555 1_555
H54 C36 1_555 1_555
H55 C37 1_555 1_555
H56 C37 1_555 1_555
H57 C38 1_555 1_555
H58 C38 1_555 1_555
H59 C38 1_555 1_555
N11_2 Cu2 1_555 1_555
N27_2 Cu4 1_555 1_555
Cu2_2 N11 1_555 1_555
Cu4_2 N27 1_555 1_555
C13 C14 1_555 1_555
C33 C34 1_555 1_555

#END
