
#######################################################################
#
#                 Cambridge Crystallographic Data Centre
#                                CCDC 
#
#######################################################################
#
# If this CIF has been generated from an entry in the Cambridge 
# Structural Database, then it will include bibliographic, chemical, 
# crystal, experimental, refinement or atomic coordinate data resulting 
# from the CCDC's data processing and validation procedures.
#
#######################################################################

data_BILSAR
_symmetry_cell_setting           monoclinic
_symmetry_space_group_name_H-M   'P 21/a'
_symmetry_Int_Tables_number      14
_space_group_name_Hall           '-P 2yab'
loop_
_symmetry_equiv_pos_site_id
_symmetry_equiv_pos_as_xyz
1 x,y,z
2 1/2+x,1/2-y,z
3 -x,-y,-z
4 1/2-x,1/2+y,-z
_cell_length_a                   7.529(8)
_cell_length_b                   14.382(17)
_cell_length_c                   6.664(8)
_cell_angle_alpha                90
_cell_angle_beta                 95.813(10)
_cell_angle_gamma                90
_cell_volume                     717.881
loop_
_atom_site_label
_atom_site_type_symbol
_atom_site_fract_x
_atom_site_fract_y
_atom_site_fract_z
Mn1 Mn 0.0000 0.0000 0.0000
N1 N 0.2252(4) 0.0478(3) 0.2266(5)
C1 C 0.3695(5) 0.0694(2) 0.2774(5)
N2 N 0.5292(4) 0.0993(2) 0.3461(5)
C2 C 0.6687(5) 0.0665(2) 0.2702(5)
N3 N 0.7988(5) 0.0427(3) 0.2116(5)
N4 N 0.0122(4) -0.1409(2) 0.1351(5)
C3 C 0.0369(7) -0.2234(3) 0.0379(7)
H1 H 0.0599 -0.2286 -0.0962
C4 C -0.0168(6) -0.1642(3) 0.3195(6)
H2 H -0.0377 -0.1225 0.4211
N5 N -0.0120(5) -0.2574(3) 0.3401(7)
H3 H -0.0286 -0.2878 0.4478
C5 C 0.0234(7) -0.2950(3) 0.1623(8)
H4 H 0.0357 -0.3578 0.1331
N1B N -0.2252(4) -0.0478(3) -0.2266(5)
C1B C -0.3695(5) -0.0694(2) -0.2774(5)
N2B N -0.5292(4) -0.0993(2) -0.3461(5)
C2B C -0.6687(5) -0.0665(2) -0.2702(5)
N3B N -0.7988(5) -0.0427(3) -0.2116(5)
N4B N -0.0122(4) 0.1409(2) -0.1351(5)
C3B C -0.0369(7) 0.2234(3) -0.0379(7)
H1B H -0.0599 0.2286 0.0962
C4B C 0.0168(6) 0.1642(3) -0.3195(6)
H2B H 0.0377 0.1225 -0.4211
N5B N 0.0120(5) 0.2574(3) -0.3401(7)
H3B H 0.0286 0.2878 -0.4478
C5B C -0.0234(7) 0.2950(3) -0.1623(8)
H4B H -0.0357 0.3578 -0.1331
N3_2 N -0.2012(5) 0.0427(3) 0.2116(5)
N3B_2 N 0.2012(5) -0.0427(3) -0.2116(5)
Mn1_2 Mn 1.0000 0.0000 0.0000
Mn1_3 Mn -1.0000 0.0000 0.0000
loop_
_geom_bond_atom_site_label_1
_geom_bond_atom_site_label_2
_geom_bond_site_symmetry_1
_geom_bond_site_symmetry_2
Mn1 N1 1_555 1_555
N1 C1 1_555 1_555
C1 N2 1_555 1_555
N2 C2 1_555 1_555
C2 N3 1_555 1_555
N3 Mn1_2 1_555 1_555
N4 Mn1 1_555 1_555
C3 N4 1_555 1_555
H1 C3 1_555 1_555
C4 N4 1_555 1_555
H2 C4 1_555 1_555
N5 C4 1_555 1_555
H3 N5 1_555 1_555
C5 C3 1_555 1_555
H4 C5 1_555 1_555
N1B Mn1 1_555 1_555
C1B N1B 1_555 1_555
N2B C1B 1_555 1_555
C2B N2B 1_555 1_555
N3B C2B 1_555 1_555
N4B Mn1 1_555 1_555
C3B N4B 1_555 1_555
H1B C3B 1_555 1_555
C4B N4B 1_555 1_555
H2B C4B 1_555 1_555
N5B C4B 1_555 1_555
H3B N5B 1_555 1_555
C5B C3B 1_555 1_555
H4B C5B 1_555 1_555
N3_2 Mn1 1_555 1_555
N3B_2 Mn1 1_555 1_555
Mn1_3 N3B 1_555 1_555
N5 C5 1_555 1_555
N5B C5B 1_555 1_555

#END
