
#######################################################################
#
#                 Cambridge Crystallographic Data Centre
#                                CCDC 
#
#######################################################################
#
# If this CIF has been generated from an entry in the Cambridge 
# Structural Database, then it will include bibliographic, chemical, 
# crystal, experimental, refinement or atomic coordinate data resulting 
# from the CCDC's data processing and validation procedures.
#
#######################################################################

data_BILVAV
_symmetry_cell_setting           triclinic
_symmetry_space_group_name_H-M   'P -1'
_symmetry_Int_Tables_number      2
_space_group_name_Hall           '-P 1'
loop_
_symmetry_equiv_pos_site_id
_symmetry_equiv_pos_as_xyz
1 x,y,z
2 -x,-y,-z
_cell_length_a                   8.9228(10)
_cell_length_b                   12.6783(14)
_cell_length_c                   24.066(3)
_cell_angle_alpha                81.0830(10)
_cell_angle_beta                 81.4500(10)
_cell_angle_gamma                80.8120(10)
_cell_volume                     2633.55
loop_
_atom_site_label
_atom_site_type_symbol
_atom_site_fract_x
_atom_site_fract_y
_atom_site_fract_z
Cd1 Cd 0.21717(3) 0.62301(2) 0.251829(11)
Cd2 Cd 0.06405(3) 0.92832(2) 0.237070(11)
C1 C -0.1398(4) 0.6089(3) 0.29668(16)
C2 C -0.1105(4) 0.6194(3) 0.35547(16)
C3 C -0.2363(5) 0.6467(4) 0.39284(19)
H1 H -0.3310 0.6577 0.3795
C4 C -0.0969(5) 0.6462(4) 0.46797(18)
C5 C 0.0377(5) 0.6489(4) 0.54073(18)
C6 C 0.1728(5) 0.6054(4) 0.45718(18)
H2 H 0.2648 0.5864 0.4349
C7 C 0.0373(4) 0.6160(3) 0.43278(16)
C8 C 0.0361(4) 0.5961(3) 0.37508(15)
C9 C -0.0945(5) 0.6999(4) 0.6316(2)
H3 H -0.1108 0.6455 0.6642
H4 H -0.1830 0.7112 0.6113
C10 C -0.0757(6) 0.8018(4) 0.6507(2)
H5 H -0.1643 0.8240 0.6771
H6 H -0.0698 0.8578 0.6184
C11 C 0.2039(6) 0.7498(4) 0.6407(2)
H7 H 0.2925 0.7370 0.6611
H8 H 0.2218 0.8041 0.6083
C12 C 0.1824(6) 0.6469(4) 0.6208(2)
H9 H 0.2693 0.6248 0.5938
H10 H 0.1767 0.5901 0.6528
C13 C -0.3843(8) 0.6631(7) 0.4885(3)
H11 H -0.4603 0.6320 0.4738
H12 H -0.3663 0.6231 0.5252
C14 C -0.4388(11) 0.7804(7) 0.4938(4)
H13 H -0.5325 0.7868 0.5193
H14 H -0.4562 0.8190 0.4572
H15 H -0.3626 0.8102 0.5083
C15 C 0.2166(4) 0.7638(3) 0.14797(16)
C16 C 0.2064(4) 0.8507(3) 0.09820(15)
C17 C 0.2862(5) 0.8243(3) 0.04784(17)
H16 H 0.3416 0.7556 0.0481
C18 C 0.2146(4) 0.9933(3) -0.00342(15)
C19 C 0.1517(4) 1.1570(3) -0.05463(16)
C20 C 0.0587(5) 1.1339(3) 0.03912(16)
H17 H 0.0024 1.1608 0.0709
C21 C 0.1284(4) 1.0269(3) 0.04568(15)
C22 C 0.1162(4) 0.9556(3) 0.09985(15)
C23 C 0.2477(5) 1.1812(4) -0.15560(17)
H18 H 0.1891 1.1997 -0.1875
H19 H 0.2730 1.1034 -0.1491
C24 C 0.3902(5) 1.2314(4) -0.16890(17)
H20 H 0.4514 1.2055 -0.2022
H21 H 0.4500 1.2123 -0.1374
C25 C 0.2465(6) 1.3925(4) -0.13116(18)
H22 H 0.2131 1.4687 -0.1417
H23 H 0.3030 1.3850 -0.0990
C26 C 0.1078(5) 1.3341(4) -0.11435(18)
H24 H 0.0501 1.3574 -0.0799
H25 H 0.0419 1.3512 -0.1441
C27 C 0.3802(5) 0.8509(4) -0.05389(18)
H26 H 0.3346 0.8888 -0.0869
H27 H 0.3759 0.7746 -0.0525
C28 C 0.5433(7) 0.8690(7) -0.0595(3)
H28 H 0.5980 0.8432 -0.0933
H29 H 0.5890 0.8308 -0.0271
H30 H 0.5479 0.9447 -0.0616
C29 C 0.4030(4) 1.1312(3) 0.21500(15)
C30 C 0.5581(5) 1.0962(4) 0.20664(18)
H31 H 0.5933 1.0243 0.2027
C31 C 0.6615(6) 1.1677(5) 0.2041(2)
H32 H 0.7659 1.1431 0.1993
C32 C 0.6115(6) 1.2754(4) 0.2088(2)
H33 H 0.6819 1.3231 0.2065
C33 C 0.4557(6) 1.3120(3) 0.21686(17)
C34 C 0.3535(5) 1.2389(3) 0.21997(16)
H34 H 0.2490 1.2629 0.2255
C35 C 0.2881(4) 1.0544(3) 0.21953(15)
C36 C 0.3953(8) 1.4276(4) 0.2246(2)
C37 C 0.3841(4) 0.8600(3) 0.33436(15)
C38 C 0.5374(4) 0.8656(3) 0.31560(15)
H35 H 0.5903 0.8199 0.2903
C39 C 0.6132(4) 0.9390(3) 0.33422(16)
C40 C 0.5334(5) 1.0031(4) 0.3740(2)
H36 H 0.5830 1.0516 0.3872
C41 C 0.3850(6) 0.9959(4) 0.3939(2)
H37 H 0.3346 1.0381 0.4213
C42 C 0.3069(5) 0.9255(4) 0.3736(2)
H38 H 0.2038 0.9226 0.3864
C43 C 0.2999(4) 0.7890(3) 0.30880(15)
C44 C 0.7751(4) 0.9531(3) 0.30822(18)
N1 N 0.0646(5) 0.7892(3) 0.67873(16)
H39 H 0.0549 0.7422 0.7107
H40 H 0.0756 0.8531 0.6884
N2 N 0.0429(4) 0.6631(3) 0.59449(16)
N3 N 0.1781(4) 0.6207(3) 0.50945(16)
N4 N -0.0975(4) 0.6636(4) 0.52169(16)
N5 N -0.2350(4) 0.6589(4) 0.44749(16)
N6 N 0.3486(4) 1.3490(3) -0.17944(14)
H41 H 0.3013 1.3661 -0.2108
H42 H 0.4344 1.3802 -0.1859
N7 N 0.1564(4) 1.2192(3) -0.10529(13)
N8 N 0.0673(4) 1.1994(3) -0.00895(13)
N9 N 0.2277(4) 1.0570(3) -0.05332(13)
N10 N 0.2909(4) 0.8895(3) -0.00177(13)
O1 O 0.1593(3) 0.5604(2) 0.34689(10)
O2 O -0.0308(3) 0.6002(3) 0.25800(12)
O3 O -0.2723(3) 0.6072(3) 0.28808(13)
O4 O 0.0330(3) 0.9883(2) 0.14175(11)
O5 O 0.1321(3) 0.7776(2) 0.19378(11)
O6 O 0.3074(4) 0.6794(2) 0.14353(14)
O7 O 0.1512(3) 1.0853(2) 0.23894(13)
O8 O 0.3309(3) 0.9633(2) 0.20537(13)
O9 O 0.2541(7) 1.4540(3) 0.23089(19)
O10 O 0.5127(11) 1.4787(8) 0.2182(6)
O11 O 0.1561(3) 0.8100(2) 0.31224(11)
O12 O 0.3774(3) 0.7141(2) 0.28441(11)
O13 O 0.8455(3) 1.0127(3) 0.32766(16)
O14 O 0.8289(3) 0.9029(3) 0.26649(13)
Cd1_2 Cd 0.21717(3) 1.62301(2) 0.251829(11)
Cd2_2 Cd 1.06405(3) 0.92832(2) 0.237070(11)
O9_2 O 0.2541(7) 0.4540(3) 0.23089(19)
O14_2 O -0.1711(3) 0.9029(3) 0.26649(13)
O16 O 0.4859(4) 0.4944(4) 0.36463(17)
O17 O 0.0597(5) 0.6148(3) 0.76879(16)
O18 O -0.0616(13) 1.4049(7) 0.0327(4)
O19 O 0.307(2) 0.4947(17) 0.0851(10)
O21 O 0.9407(13) 0.8738(11) 0.4189(5)
O23 O 0.1076(19) 1.3687(14) 0.1178(6)
O25 O 0.357(2) 0.5690(13) -0.0319(7)
C45? C -0.3600(13) 0.7371(11) 0.4729(6)
H43? H -0.4153 0.7849 0.4449
H44? H -0.3256 0.7782 0.4982
C46? C -0.447(3) 0.6477(18) 0.5038(11)
H45? H -0.5392 0.6783 0.5250
H46? H -0.3845 0.6009 0.5293
H47? H -0.4724 0.6072 0.4768
O15? O 0.4559(11) 1.5017(6) 0.2316(4)
O20? O 0.382(2) 0.5013(17) 0.0830(8)
O22? O 0.902(2) 0.9424(19) 0.4475(9)
O24? O 0.032(3) 1.2718(19) 0.1448(9)
loop_
_geom_bond_atom_site_label_1
_geom_bond_atom_site_label_2
_geom_bond_site_symmetry_1
_geom_bond_site_symmetry_2
Cd1 O1 1_555 1_555
Cd2 O4 1_555 1_555
C1 C2 1_555 1_555
C2 C3 1_555 1_555
C3 H1 1_555 1_555
C4 C7 1_555 1_555
C5 N2 1_555 1_555
C6 H2 1_555 1_555
C7 C6 1_555 1_555
C8 C2 1_555 1_555
C9 H3 1_555 1_555
H4 C9 1_555 1_555
C10 C9 1_555 1_555
H5 C10 1_555 1_555
H6 C10 1_555 1_555
C11 H7 1_555 1_555
H8 C11 1_555 1_555
C12 C11 1_555 1_555
H9 C12 1_555 1_555
H10 C12 1_555 1_555
C13 H11 1_555 1_555
H12 C13 1_555 1_555
C14 C13 1_555 1_555
H13 C14 1_555 1_555
H14 C14 1_555 1_555
H15 C14 1_555 1_555
C15 C16 1_555 1_555
C16 C17 1_555 1_555
C17 H16 1_555 1_555
C18 C21 1_555 1_555
C19 N7 1_555 1_555
C20 H17 1_555 1_555
C21 C20 1_555 1_555
C22 C16 1_555 1_555
C23 H18 1_555 1_555
H19 C23 1_555 1_555
C24 C23 1_555 1_555
H20 C24 1_555 1_555
H21 C24 1_555 1_555
C25 H22 1_555 1_555
H23 C25 1_555 1_555
C26 C25 1_555 1_555
H24 C26 1_555 1_555
H25 C26 1_555 1_555
C27 H26 1_555 1_555
H27 C27 1_555 1_555
C28 C27 1_555 1_555
H28 C28 1_555 1_555
H29 C28 1_555 1_555
H30 C28 1_555 1_555
C29 C30 1_555 1_555
C30 H31 1_555 1_555
C31 C30 1_555 1_555
H32 C31 1_555 1_555
C32 C31 1_555 1_555
H33 C32 1_555 1_555
C33 C32 1_555 1_555
C34 C29 1_555 1_555
H34 C34 1_555 1_555
C35 C29 1_555 1_555
C36 C33 1_555 1_555
C37 C38 1_555 1_555
C38 H35 1_555 1_555
C39 C38 1_555 1_555
C40 C39 1_555 1_555
H36 C40 1_555 1_555
C41 C40 1_555 1_555
H37 C41 1_555 1_555
C42 C37 1_555 1_555
H38 C42 1_555 1_555
C43 C37 1_555 1_555
C44 C39 1_555 1_555
N1 C10 1_555 1_555
H39 N1 1_555 1_555
H40 N1 1_555 1_555
N2 C9 1_555 1_555
N3 C5 1_555 1_555
N4 C4 1_555 1_555
N5 C3 1_555 1_555
N6 C24 1_555 1_555
H41 N6 1_555 1_555
H42 N6 1_555 1_555
N7 C23 1_555 1_555
N8 C19 1_555 1_555
N9 C18 1_555 1_555
N10 C17 1_555 1_555
O1 C8 1_555 1_555
O2 Cd1 1_555 1_555
O3 C1 1_555 1_555
O4 C22 1_555 1_555
O5 Cd1 1_555 1_555
O6 Cd1 1_555 1_555
O7 Cd2 1_555 1_555
O8 Cd2 1_555 1_555
O9 C36 1_555 1_555
O10 C36 1_555 1_555
O11 Cd2 1_555 1_555
O12 Cd1 1_555 1_555
O13 C44 1_555 1_555
O14 C44 1_555 1_555
Cd1_2 O9 1_555 1_555
Cd2_2 O14 1_555 1_555
O9_2 Cd1 1_555 1_555
O14_2 Cd2 1_555 1_555
Cd2 O5 1_555 1_555
C1 O2 1_555 1_555
C4 N5 1_555 1_555
C5 N4 1_555 1_555
C6 N3 1_555 1_555
C7 C8 1_555 1_555
C11 N1 1_555 1_555
C12 N2 1_555 1_555
C13 N5 1_555 1_555
C15 O5 1_555 1_555
C15 O6 1_555 1_555
C18 N10 1_555 1_555
C19 N9 1_555 1_555
C20 N8 1_555 1_555
C21 C22 1_555 1_555
C25 N6 1_555 1_555
C26 N7 1_555 1_555
C27 N10 1_555 1_555
C33 C34 1_555 1_555
C35 O7 1_555 1_555
C35 O8 1_555 1_555
C41 C42 1_555 1_555
C43 O11 1_555 1_555
C43 O12 1_555 1_555

#END
