
#######################################################################
#
#                 Cambridge Crystallographic Data Centre
#                                CCDC 
#
#######################################################################
#
# If this CIF has been generated from an entry in the Cambridge 
# Structural Database, then it will include bibliographic, chemical, 
# crystal, experimental, refinement or atomic coordinate data resulting 
# from the CCDC's data processing and validation procedures.
#
#######################################################################

data_BIMAOU10
_symmetry_cell_setting           triclinic
_symmetry_space_group_name_H-M   'P -1'
_symmetry_Int_Tables_number      2
_space_group_name_Hall           '-P 1'
loop_
_symmetry_equiv_pos_site_id
_symmetry_equiv_pos_as_xyz
1 x,y,z
2 -x,-y,-z
_cell_length_a                   8.970(3)
_cell_length_b                   6.367(2)
_cell_length_c                   5.843(2)
_cell_angle_alpha                92.42(4)
_cell_angle_beta                 76.38(4)
_cell_angle_gamma                104.15(4)
_cell_volume                     314.439
loop_
_atom_site_label
_atom_site_type_symbol
_atom_site_fract_x
_atom_site_fract_y
_atom_site_fract_z
C1 C 0.23600 0.85810 0.18280
C2 C 0.36440 0.77970 0.26160
C3 C 0.20360 0.44280 0.50300
C4 C 0.27450 0.46420 0.71960
H1 H 0.47400 0.84500 0.14700
H2 H 0.40900 0.47900 0.29500
H3 H 0.29100 0.46600 0.15700
H4 H 0.11300 0.51600 0.54100
H5 H 0.16400 0.29400 0.46100
N1 N 0.32150 0.53600 0.28540
O1 O 0.08040 0.90520 -0.28530
O2 O 0.26250 1.05500 0.12920
O3 O 0.10900 0.72570 0.16670
O4 O 0.19220 0.34120 0.89820
O5 O 0.40030 0.59900 0.71920
U1 U 0.00000 1.00000 0.00000
U1_2 U 0.00000 0.00000 1.00000
O1A O -0.08040 1.09480 0.28530
O2A O -0.26250 0.94500 -0.12920
O3A O -0.10900 1.27430 -0.16670
O4_2 O 0.19220 1.34120 -0.10180
O4A O -0.19220 0.65880 0.10180
C4_2 C 0.27450 1.46420 -0.28040
C3_2 C 0.20360 1.44280 -0.49700
O5_2 O 0.40030 1.59900 -0.28080
H4_2 H 0.11300 1.51600 -0.45900
H5_2 H 0.16400 1.29400 -0.53900
N1_2 N 0.32150 1.53600 -0.71460
U1_3 U 0.00000 2.00000 -1.00000
C2_2 C 0.36440 1.77970 -0.73840
H2_2 H 0.40900 1.47900 -0.70500
H3_2 H 0.29100 1.46600 -0.84300
C1_2 C 0.23600 1.85810 -0.81720
H1_2 H 0.47400 1.84500 -0.85300
O2_2 O 0.26250 2.05500 -0.87080
O3_2 O 0.10900 1.72570 -0.83330
loop_
_geom_bond_atom_site_label_1
_geom_bond_atom_site_label_2
_geom_bond_site_symmetry_1
_geom_bond_site_symmetry_2
C1 C2 1_555 1_555
C2 H1 1_555 1_555
C3 C4 1_555 1_555
C4 O4 1_555 1_555
H2 N1 1_555 1_555
H3 N1 1_555 1_555
H4 C3 1_555 1_555
H5 C3 1_555 1_555
N1 C2 1_555 1_555
O1 U1 1_555 1_555
O2 C1 1_555 1_555
O3 C1 1_555 1_555
O4 U1_2 1_555 1_555
O5 C4 1_555 1_555
U1 O2 1_555 1_555
O1A U1 1_555 1_555
O2A U1 1_555 1_555
O3A U1 1_555 1_555
O4_2 U1 1_555 1_555
O4A U1 1_555 1_555
C4_2 O4_2 1_555 1_555
C3_2 C4_2 1_555 1_555
O5_2 C4_2 1_555 1_555
H4_2 C3_2 1_555 1_555
H5_2 C3_2 1_555 1_555
N1_2 C3_2 1_555 1_555
U1_3 O2_2 1_555 1_555
C2_2 N1_2 1_555 1_555
H2_2 N1_2 1_555 1_555
H3_2 N1_2 1_555 1_555
C1_2 C2_2 1_555 1_555
H1_2 C2_2 1_555 1_555
O2_2 C1_2 1_555 1_555
O3_2 U1_3 1_555 1_555
C3 N1 1_555 1_555
O3 U1 1_555 1_555
C1_2 O3_2 1_555 1_555

#END
