
#######################################################################
#
#                 Cambridge Crystallographic Data Centre
#                                CCDC 
#
#######################################################################
#
# If this CIF has been generated from an entry in the Cambridge 
# Structural Database, then it will include bibliographic, chemical, 
# crystal, experimental, refinement or atomic coordinate data resulting 
# from the CCDC's data processing and validation procedures.
#
#######################################################################

data_BIMDEI
_symmetry_cell_setting           monoclinic
_symmetry_space_group_name_H-M   'P 2/c'
_symmetry_Int_Tables_number      13
_space_group_name_Hall           '-P 2yc'
loop_
_symmetry_equiv_pos_site_id
_symmetry_equiv_pos_as_xyz
1 x,y,z
2 -x,y,1/2-z
3 -x,-y,-z
4 x,-y,1/2+z
_cell_length_a                   15.179(4)
_cell_length_b                   4.2189(10)
_cell_length_c                   16.682(3)
_cell_angle_alpha                90
_cell_angle_beta                 117.679(17)
_cell_angle_gamma                90
_cell_volume                     946.042
loop_
_atom_site_label
_atom_site_type_symbol
_atom_site_fract_x
_atom_site_fract_y
_atom_site_fract_z
Pb1 Pb 0.0000 0.39133(10) -0.2500
Br1 Br 0.11046(8) -0.1035(2) -0.29465(9)
N1 N 0.1448(6) 0.405(2) -0.0806(6)
N2 N 0.4636(6) 0.339(2) 0.2057(6)
C1 C 0.2363(8) 0.285(3) -0.0556(7)
H1 H 0.2481 0.1912 -0.1001
C2 C 0.3121(8) 0.292(3) 0.0301(7)
H2 H 0.3726 0.1963 0.0435
C3 C 0.2991(7) 0.442(2) 0.0973(7)
C4 C 0.2049(8) 0.568(2) 0.0729(8)
H3 H 0.1915 0.6701 0.1154
C5 C 0.1324(8) 0.538(3) -0.0155(8)
H4 H 0.0696 0.6181 -0.0303
C6 C 0.3798(6) 0.463(2) 0.1917(6)
C7 C 0.3632(9) 0.613(3) 0.2642(7)
H5 H 0.3980 0.4948 0.3193
H6 H 0.2934 0.6141 0.2466
H7 H 0.3876 0.8267 0.2736
N1A N 0.8552(6) 0.405(2) 0.5806(6)
N2A N 0.5364(6) 0.339(2) 0.2943(6)
C1A C 0.7637(8) 0.285(3) 0.5556(7)
H1A H 0.7519 0.1912 0.6001
C2A C 0.6879(8) 0.292(3) 0.4699(7)
H2A H 0.6274 0.1963 0.4565
C3A C 0.7009(7) 0.442(2) 0.4027(7)
C4A C 0.7951(8) 0.568(2) 0.4271(8)
H3A H 0.8085 0.6701 0.3846
C5A C 0.8676(8) 0.538(3) 0.5155(8)
H4A H 0.9304 0.6181 0.5303
C6A C 0.6202(6) 0.463(2) 0.3083(6)
C7A C 0.6368(9) 0.613(3) 0.2358(7)
H5A H 0.6020 0.4948 0.1807
H6A H 0.7066 0.6141 0.2534
H7A H 0.6124 0.8267 0.2264
Br1A Br -0.11046(8) -0.1035(2) -0.20535(9)
Pb1_2 Pb 0.0000 -0.60867(10) -0.2500
Pb1_3 Pb 1.0000 0.39133(10) 0.7500
Br1_2 Br 0.11046(8) 0.8965(2) -0.29465(9)
Br1A_2 Br -0.11046(8) 0.8965(2) -0.20535(9)
N1A_2 N -0.1448(6) 0.405(2) -0.4194(6)
loop_
_geom_bond_atom_site_label_1
_geom_bond_atom_site_label_2
_geom_bond_site_symmetry_1
_geom_bond_site_symmetry_2
Pb1 Br1 1_555 1_555
Br1 Pb1_2 1_555 1_555
N1 Pb1 1_555 1_555
N2 C6 1_555 1_555
C1 N1 1_555 1_555
H1 C1 1_555 1_555
C2 C1 1_555 1_555
H2 C2 1_555 1_555
C3 C2 1_555 1_555
C4 C3 1_555 1_555
H3 C4 1_555 1_555
C5 N1 1_555 1_555
H4 C5 1_555 1_555
C6 C3 1_555 1_555
C7 C6 1_555 1_555
H5 C7 1_555 1_555
H6 C7 1_555 1_555
H7 C7 1_555 1_555
N1A C1A 1_555 1_555
N2A N2 1_555 1_555
C1A H1A 1_555 1_555
C2A C1A 1_555 1_555
H2A C2A 1_555 1_555
C3A C2A 1_555 1_555
C4A C3A 1_555 1_555
H3A C4A 1_555 1_555
C5A N1A 1_555 1_555
H4A C5A 1_555 1_555
C6A N2A 1_555 1_555
C7A C6A 1_555 1_555
H5A C7A 1_555 1_555
H6A C7A 1_555 1_555
H7A C7A 1_555 1_555
Br1A Pb1 1_555 1_555
Pb1_2 Br1A 1_555 1_555
Pb1_3 N1A 1_555 1_555
Br1_2 Pb1 1_555 1_555
Br1A_2 Pb1 1_555 1_555
N1A_2 Pb1 1_555 1_555
C4 C5 1_555 1_555
C3A C6A 1_555 1_555
C4A C5A 1_555 1_555

#END
