
#######################################################################
#
#                 Cambridge Crystallographic Data Centre
#                                CCDC 
#
#######################################################################
#
# If this CIF has been generated from an entry in the Cambridge 
# Structural Database, then it will include bibliographic, chemical, 
# crystal, experimental, refinement or atomic coordinate data resulting 
# from the CCDC's data processing and validation procedures.
#
#######################################################################

data_BIMGIO
_symmetry_cell_setting           monoclinic
_symmetry_space_group_name_H-M   'P 21/n'
_symmetry_Int_Tables_number      14
_space_group_name_Hall           '-P 2yn'
loop_
_symmetry_equiv_pos_site_id
_symmetry_equiv_pos_as_xyz
1 x,y,z
2 1/2+x,1/2-y,1/2+z
3 -x,-y,-z
4 1/2-x,1/2+y,1/2-z
_cell_length_a                   18.4633(15)
_cell_length_b                   36.227(3)
_cell_length_c                   21.1806(18)
_cell_angle_alpha                90
_cell_angle_beta                 107.750(2)
_cell_angle_gamma                90
_cell_volume                     13492.7
loop_
_atom_site_label
_atom_site_type_symbol
_atom_site_fract_x
_atom_site_fract_y
_atom_site_fract_z
Ag1 Ag 0.88141(3) 0.013673(18) 0.63735(3)
B1 B 0.6973(6) 0.0097(3) 0.5476(4)
H1 H 0.6433 0.0080 0.5204
N1 N 0.8090(4) 0.05340(19) 0.5561(3)
N2 N 0.7330(4) 0.04757(19) 0.5289(3)
N3 N 0.7465(6) 0.1901(2) 0.3519(5)
C1 C 0.8251(5) 0.0834(3) 0.5280(4)
C2 C 0.7637(6) 0.0974(2) 0.4846(5)
C3 C 0.7015(6) 0.0737(3) 0.4834(4)
C4 C 0.9044(7) 0.0974(3) 0.5434(7)
H2 H 0.9352 0.0872 0.5852
H3 H 0.9043 0.1242 0.5465
H4 H 0.9253 0.0902 0.5084
C5 C 0.6185(5) 0.0744(3) 0.4488(5)
H5 H 0.6054 0.0543 0.4171
H6 H 0.6049 0.0977 0.4257
H7 H 0.5910 0.0716 0.4809
C6 C 0.7544(6) 0.1294(3) 0.4408(5)
C7 C 0.7118(6) 0.1289(3) 0.3731(6)
H8 H 0.6866 0.1070 0.3552
C8 C 0.7053(7) 0.1590(4) 0.3320(6)
H9 H 0.6713 0.1579 0.2888
C9 C 0.7897(9) 0.1926(3) 0.4160(7)
H10 H 0.8162 0.2147 0.4312
C10 C 0.7961(6) 0.1616(3) 0.4631(5)
H11 H 0.8277 0.1635 0.5071
N4 N 0.7716(4) 0.01256(19) 0.6689(4)
N5 N 0.7014(4) 0.01080(17) 0.6203(3)
N6 N 0.5787(5) 0.0086(3) 0.8731(4)
C11 C 0.7594(6) 0.0127(3) 0.7292(4)
C12 C 0.6826(5) 0.0111(2) 0.7180(5)
C13 C 0.6473(5) 0.0097(2) 0.6515(4)
C14 C 0.8262(5) 0.0139(3) 0.7928(4)
H12 H 0.8365 -0.0108 0.8111
H13 H 0.8138 0.0299 0.8247
H14 H 0.8708 0.0233 0.7831
C15 C 0.5665(5) 0.0068(3) 0.6130(5)
H15 H 0.5564 -0.0175 0.5932
H16 H 0.5542 0.0254 0.5782
H17 H 0.5355 0.0108 0.6420
C16 C 0.6448(5) 0.0083(3) 0.7714(4)
C17 C 0.6713(6) -0.0152(3) 0.8222(5)
H18 H 0.7122 -0.0311 0.8238
C18 C 0.6371(6) -0.0159(3) 0.8728(5)
H19 H 0.6537 -0.0332 0.9073
C19 C 0.5580(5) 0.0322(3) 0.8270(6)
H20 H 0.5213 0.0499 0.8287
C20 C 0.5884(5) 0.0332(3) 0.7723(4)
H21 H 0.5704 0.0503 0.7378
N7 N 0.8139(4) -0.0308(2) 0.5647(3)
N8 N 0.7402(4) -0.02275(16) 0.5317(3)
N9 N 0.7687(5) -0.1651(2) 0.3590(4)
C21 C 0.8336(6) -0.0612(3) 0.5365(5)
C22 C 0.7705(5) -0.0725(2) 0.4842(4)
C23 C 0.7145(5) -0.0472(3) 0.4815(5)
C24 C 0.9129(6) -0.0757(3) 0.5634(5)
H22 H 0.9428 -0.0674 0.5356
H23 H 0.9118 -0.1025 0.5640
H24 H 0.9356 -0.0666 0.6082
C25 C 0.6373(5) -0.0462(3) 0.4352(5)
H25 H 0.6008 -0.0493 0.4595
H26 H 0.6310 -0.0659 0.4031
H27 H 0.6288 -0.0226 0.4123
C26 C 0.7701(7) -0.1043(2) 0.4387(5)
C27 C 0.7164(6) -0.1304(3) 0.4306(5)
H28 H 0.6789 -0.1282 0.4521
C28 C 0.7163(7) -0.1602(3) 0.3909(6)
H29 H 0.6780 -0.1781 0.3856
C29 C 0.8247(6) -0.1408(3) 0.3720(5)
H30 H 0.8657 -0.1453 0.3555
C30 C 0.8260(6) -0.1086(3) 0.4094(5)
H31 H 0.8640 -0.0906 0.4140
Rh1 Rh 0.52758(4) 0.00326(2) 0.95601(4)
O1 O 0.4193(4) 0.0093(2) 0.8935(3)
C31 C 0.3654(5) 0.0069(3) 0.9165(6)
C32 C 0.2872(6) 0.0109(4) 0.8637(5)
H32 H 0.2846 0.0345 0.8413
H33 H 0.2475 0.0098 0.8849
H34 H 0.2802 -0.0089 0.8317
O2 O 0.3677(3) 0.0027(2) 0.9758(3)
O3 O 0.5214(4) -0.0522(2) 0.9450(3)
C33 C 0.4962(6) -0.0716(4) 0.9856(6)
C34 C 0.4962(8) -0.1129(3) 0.9767(5)
H35 H 0.4862 -0.1186 0.9300
H36 H 0.4571 -0.1238 0.9925
H37 H 0.5455 -0.1227 1.0016
O4 O 0.4712(4) -0.0591(2) 1.0298(3)
Rh2 Rh 0.76294(5) -0.21227(2) 0.28900(4)
Rh3 Rh 0.74169(5) 0.23740(2) 0.28545(4)
O5 O 0.7856(5) -0.2506(2) 0.3634(3)
O6 O 0.7819(5) -0.29741(19) 0.2960(4)
C35 C 0.7943(9) -0.2837(3) 0.3509(6)
C36 C 0.8206(15) -0.3077(4) 0.4070(7)
H38 H 0.8468 -0.2933 0.4459
H39 H 0.8553 -0.3258 0.3985
H40 H 0.7776 -0.3203 0.4145
O7 O 0.6490(5) -0.2172(2) 0.2744(5)
O8 O 0.6453(4) -0.2667(2) 0.2043(4)
C37 C 0.6233(8) -0.2393(4) 0.2388(8)
C38 C 0.5265(9) -0.2469(4) 0.2178(9)
H41 H 0.5042 -0.2298 0.2419
H42 H 0.5172 -0.2720 0.2292
H43 H 0.5036 -0.2432 0.1706
O9 O 0.7391(4) -0.17796(17) 0.2098(3)
O10 O 0.7358(5) -0.22680(19) 0.1393(3)
C39 C 0.7330(7) -0.1918(4) 0.1550(6)
C40 C 0.7102(9) -0.1653(4) 0.0908(6)
H44 H 0.6831 -0.1439 0.0995
H45 H 0.6779 -0.1787 0.0531
H46 H 0.7559 -0.1573 0.0813
O11 O 0.8764(4) -0.2095(2) 0.3005(4)
O12 O 0.8716(4) -0.2555(2) 0.2311(4)
C41 C 0.9059(8) -0.2302(3) 0.2682(8)
C42 C 0.9934(8) -0.2238(5) 0.2782(11)
H47 H 1.0190 -0.2475 0.2825
H48 H 1.0153 -0.2094 0.3180
H49 H 0.9996 -0.2107 0.2402
P1 P 1.00698(13) 0.01460(7) 0.70344(11)
C43 C 1.0451(5) 0.0600(3) 0.7340(5)
C44 C 0.9936(8) 0.0826(4) 0.7471(9)
H50 H 0.9442 0.0734 0.7401
C45 C 1.0082(8) 0.1172(7) 0.7695(10)
H51 H 0.9704 0.1327 0.7761
C46 C 1.0799(13) 0.1280(4) 0.7817(8)
H52 H 1.0924 0.1523 0.7968
C47 C 1.1379(8) 0.1056(5) 0.7734(7)
H53 H 1.1888 0.1134 0.7848
C48 C 1.1136(6) 0.0693(3) 0.7458(5)
H54 H 1.1487 0.0529 0.7367
C49 C 1.0763(5) -0.0012(2) 0.6641(5)
C50 C 1.0645(6) 0.0066(3) 0.5976(5)
H55 H 1.0203 0.0196 0.5745
C51 C 1.1112(6) -0.0030(4) 0.5655(6)
H56 H 1.0992 0.0018 0.5198
C52 C 1.1694(10) -0.0178(5) 0.5943(8)
H57 H 1.2037 -0.0222 0.5702
C53 C 1.1931(7) -0.0299(4) 0.6646(10)
H58 H 1.2391 -0.0422 0.6852
C54 C 1.1398(7) -0.0212(3) 0.6967(6)
H59 H 1.1473 -0.0289 0.7406
C55 C 1.0251(5) -0.0134(3) 0.7783(5)
C56 C 0.9905(9) -0.0483(3) 0.7716(6)
H60 H 0.9558 -0.0552 0.7308
C57 C 1.0073(11) -0.0728(4) 0.8253(9)
H61 H 0.9927 -0.0978 0.8197
C58 C 1.0467(11) -0.0586(7) 0.8874(10)
H62 H 1.0522 -0.0730 0.9256
C59 C 1.0753(12) -0.0264(7) 0.8929(7)
H63 H 1.1083 -0.0194 0.9345
C60 C 1.0608(11) -0.0006(5) 0.8411(8)
H64 H 1.0748 0.0243 0.8490
Rh1B Rh 0.47242(4) -0.00326(2) 1.04399(4)
O2B O 0.6323(3) -0.0027(2) 1.0242(3)
O4B O 0.5288(4) 0.0591(2) 0.9702(3)
Rh3C Rh 0.75831(5) -0.26260(2) 0.21455(4)
Rh2C Rh 0.73706(5) 0.28773(2) 0.21100(4)
O6C O 0.7181(5) 0.20259(19) 0.2040(4)
O8C O 0.8547(4) 0.2333(2) 0.2957(4)
O10C O 0.7642(5) 0.27320(19) 0.3607(3)
O12C O 0.6284(4) 0.2445(2) 0.2689(4)
loop_
_geom_bond_atom_site_label_1
_geom_bond_atom_site_label_2
_geom_bond_site_symmetry_1
_geom_bond_site_symmetry_2
Ag1 N1 1_555 1_555
B1 H1 1_555 1_555
N1 N2 1_555 1_555
N2 B1 1_555 1_555
N3 C8 1_555 1_555
C1 N1 1_555 1_555
C2 C1 1_555 1_555
C3 N2 1_555 1_555
C4 C1 1_555 1_555
H2 C4 1_555 1_555
H3 C4 1_555 1_555
H4 C4 1_555 1_555
C5 C3 1_555 1_555
H5 C5 1_555 1_555
H6 C5 1_555 1_555
H7 C5 1_555 1_555
C6 C2 1_555 1_555
C7 C6 1_555 1_555
H8 C7 1_555 1_555
C8 C7 1_555 1_555
H9 C8 1_555 1_555
C9 N3 1_555 1_555
H10 C9 1_555 1_555
C10 C6 1_555 1_555
H11 C10 1_555 1_555
N4 Ag1 1_555 1_555
N5 B1 1_555 1_555
N6 C18 1_555 1_555
C11 N4 1_555 1_555
C12 C11 1_555 1_555
C13 N5 1_555 1_555
C14 C11 1_555 1_555
H12 C14 1_555 1_555
H13 C14 1_555 1_555
H14 C14 1_555 1_555
C15 C13 1_555 1_555
H15 C15 1_555 1_555
H16 C15 1_555 1_555
H17 C15 1_555 1_555
C16 C12 1_555 1_555
C17 C16 1_555 1_555
H18 C17 1_555 1_555
C18 C17 1_555 1_555
H19 C18 1_555 1_555
C19 N6 1_555 1_555
H20 C19 1_555 1_555
C20 C16 1_555 1_555
H21 C20 1_555 1_555
N7 Ag1 1_555 1_555
N8 B1 1_555 1_555
N9 C28 1_555 1_555
C21 N7 1_555 1_555
C22 C21 1_555 1_555
C23 N8 1_555 1_555
C24 C21 1_555 1_555
H22 C24 1_555 1_555
H23 C24 1_555 1_555
H24 C24 1_555 1_555
C25 C23 1_555 1_555
H25 C25 1_555 1_555
H26 C25 1_555 1_555
H27 C25 1_555 1_555
C26 C22 1_555 1_555
C27 C26 1_555 1_555
H28 C27 1_555 1_555
C28 C27 1_555 1_555
H29 C28 1_555 1_555
C29 N9 1_555 1_555
H30 C29 1_555 1_555
C30 C26 1_555 1_555
H31 C30 1_555 1_555
Rh1 N6 1_555 1_555
O1 Rh1 1_555 1_555
C31 O1 1_555 1_555
C32 C31 1_555 1_555
H32 C32 1_555 1_555
H33 C32 1_555 1_555
H34 C32 1_555 1_555
O2 C31 1_555 1_555
O3 Rh1 1_555 1_555
C33 O3 1_555 1_555
C34 C33 1_555 1_555
H35 C34 1_555 1_555
H36 C34 1_555 1_555
H37 C34 1_555 1_555
O4 C33 1_555 1_555
Rh2 N9 1_555 1_555
Rh3 N3 1_555 1_555
O5 Rh2 1_555 1_555
O6 C35 1_555 1_555
C35 O5 1_555 1_555
C36 C35 1_555 1_555
H38 C36 1_555 1_555
H39 C36 1_555 1_555
H40 C36 1_555 1_555
O7 Rh2 1_555 1_555
O8 C37 1_555 1_555
C37 O7 1_555 1_555
C38 C37 1_555 1_555
H41 C38 1_555 1_555
H42 C38 1_555 1_555
H43 C38 1_555 1_555
O9 Rh2 1_555 1_555
O10 C39 1_555 1_555
C39 O9 1_555 1_555
C40 C39 1_555 1_555
H44 C40 1_555 1_555
H45 C40 1_555 1_555
H46 C40 1_555 1_555
O11 Rh2 1_555 1_555
O12 C41 1_555 1_555
C41 O11 1_555 1_555
C42 C41 1_555 1_555
H47 C42 1_555 1_555
H48 C42 1_555 1_555
H49 C42 1_555 1_555
P1 Ag1 1_555 1_555
C43 P1 1_555 1_555
C44 C43 1_555 1_555
H50 C44 1_555 1_555
C45 C44 1_555 1_555
H51 C45 1_555 1_555
C46 C45 1_555 1_555
H52 C46 1_555 1_555
C47 C46 1_555 1_555
H53 C47 1_555 1_555
C48 C43 1_555 1_555
H54 C48 1_555 1_555
C49 P1 1_555 1_555
C50 C49 1_555 1_555
H55 C50 1_555 1_555
C51 C50 1_555 1_555
H56 C51 1_555 1_555
C52 C51 1_555 1_555
H57 C52 1_555 1_555
C53 C52 1_555 1_555
H58 C53 1_555 1_555
C54 C49 1_555 1_555
H59 C54 1_555 1_555
C55 P1 1_555 1_555
C56 C55 1_555 1_555
H60 C56 1_555 1_555
C57 C56 1_555 1_555
H61 C57 1_555 1_555
C58 C57 1_555 1_555
H62 C58 1_555 1_555
C59 C58 1_555 1_555
H63 C59 1_555 1_555
C60 C55 1_555 1_555
H64 C60 1_555 1_555
Rh1B Rh1 1_555 1_555
O2B Rh1 1_555 1_555
O4B Rh1 1_555 1_555
Rh3C Rh2 1_555 1_555
Rh2C Rh3 1_555 1_555
O6C Rh3 1_555 1_555
O8C Rh3 1_555 1_555
O10C Rh3 1_555 1_555
O12C Rh3 1_555 1_555
C2 C3 1_555 1_555
C9 C10 1_555 1_555
N4 N5 1_555 1_555
C12 C13 1_555 1_555
C19 C20 1_555 1_555
N7 N8 1_555 1_555
C22 C23 1_555 1_555
C29 C30 1_555 1_555
O2 Rh1B 1_555 1_555
O4 Rh1B 1_555 1_555
O6 Rh3C 1_555 1_555
O8 Rh3C 1_555 1_555
O10 Rh3C 1_555 1_555
O12 Rh3C 1_555 1_555
C47 C48 1_555 1_555
C53 C54 1_555 1_555
C59 C60 1_555 1_555

#END
