
#######################################################################
#
#                 Cambridge Crystallographic Data Centre
#                                CCDC 
#
#######################################################################
#
# If this CIF has been generated from an entry in the Cambridge 
# Structural Database, then it will include bibliographic, chemical, 
# crystal, experimental, refinement or atomic coordinate data resulting 
# from the CCDC's data processing and validation procedures.
#
#######################################################################

data_BIMHUB01
_symmetry_cell_setting           triclinic
_symmetry_space_group_name_H-M   'P -1'
_symmetry_Int_Tables_number      2
_space_group_name_Hall           '-P 1'
loop_
_symmetry_equiv_pos_site_id
_symmetry_equiv_pos_as_xyz
1 x,y,z
2 -x,-y,-z
_cell_length_a                   6.7597(12)
_cell_length_b                   7.5469(9)
_cell_length_c                   7.8091(12)
_cell_angle_alpha                68.556(10)
_cell_angle_beta                 86.541(12)
_cell_angle_gamma                69.935(12)
_cell_volume                     347.329
loop_
_atom_site_label
_atom_site_type_symbol
_atom_site_fract_x
_atom_site_fract_y
_atom_site_fract_z
Cd1 Cd 0.14673(4) 0.81722(3) 0.88937(3)
O1 O 0.2747(5) 0.8729(4) 0.5770(3)
O2 O 0.3237(4) 0.5657(4) 0.7788(3)
C1 C 0.3480(5) 0.6829(5) 0.6223(4)
C2 C 0.4623(6) 0.5978(5) 0.4847(4)
O3 O -0.0102(5) 0.8437(3) 1.1594(3)
O4 O 0.1430(4) 0.5300(4) 1.1824(3)
C3 C 0.0373(5) 0.6562(5) 1.2496(4)
C4 C -0.0341(6) 0.5943(5) 1.4399(4)
O5 O 0.4561(4) 0.8140(4) 0.9982(4)
O6 O -0.1781(4) 0.8501(4) 0.7764(3)
H1 H 0.4979 0.6998 0.3789
H2 H -0.1241 0.7069 1.4653
H3 H 0.5548 0.8536 0.9368
H4 H 0.5181 0.6910 1.0608
H5 H -0.2049 0.9372 0.6611
H6 H -0.1606 0.7314 0.7727
Cd1A Cd 0.85327(4) 0.18278(3) 0.11063(3)
Cd1A_2 Cd -0.14673(4) 1.18278(3) 1.11063(3)
Cd1_2 Cd 0.14673(4) -0.18278(3) 1.88937(3)
Cd1A_3 Cd -0.14673(4) 0.18278(3) 2.11063(3)
O1A O 0.7253(5) 0.1271(4) 0.4230(3)
O1A_2 O -0.2747(5) 1.1271(4) 1.4230(3)
O2A O 0.6763(4) 0.4343(4) 0.2212(3)
O2A_2 O -0.3237(4) 1.4343(4) 1.2212(3)
C1A C 0.6520(5) 0.3171(5) 0.3777(4)
C2A C 0.5377(6) 0.4022(5) 0.5153(4)
O3A O 0.0102(5) 0.1563(3) 1.8406(3)
O3A_2 O 0.0102(5) 1.1563(3) 0.8406(3)
O4A O -0.1430(4) 0.4700(4) 1.8176(3)
O4A_2 O -0.1430(4) 1.4700(4) 0.8176(3)
C3A C -0.0373(5) 0.3438(5) 1.7504(4)
C4A C 0.0341(6) 0.4057(5) 1.5601(4)
O5A O -0.4561(4) 1.1860(4) 1.0018(4)
O6A O 0.1781(4) 1.1499(4) 1.2236(3)
H1A H 0.5021 0.3002 0.6211
H2A H 0.1241 0.2931 1.5347
H3A H -0.5548 1.1464 1.0632
H4A H -0.5181 1.3090 0.9392
H5A H 0.2049 1.0628 1.3389
H6A H 0.1606 1.2686 1.2273
loop_
_geom_bond_atom_site_label_1
_geom_bond_atom_site_label_2
_geom_bond_site_symmetry_1
_geom_bond_site_symmetry_2
Cd1 O1 1_555 1_555
O1 C1 1_555 1_555
O2 Cd1 1_555 1_555
C1 O2 1_555 1_555
C2 C1 1_555 1_555
O3 Cd1 1_555 1_555
O4 Cd1 1_555 1_555
C3 O3 1_555 1_555
C4 C3 1_555 1_555
O5 Cd1 1_555 1_555
O6 Cd1 1_555 1_555
H1 C2 1_555 1_555
H2 C4 1_555 1_555
H3 O5 1_555 1_555
H4 O5 1_555 1_555
H5 O6 1_555 1_555
H6 O6 1_555 1_555
Cd1A O1A 1_555 1_555
Cd1A_2 O3 1_555 1_555
Cd1_2 O3A 1_555 1_555
Cd1A_3 O3A 1_555 1_555
O1A C1A 1_555 1_555
O1A_2 Cd1A_2 1_555 1_555
O2A Cd1A 1_555 1_555
O2A_2 Cd1A_2 1_555 1_555
C1A O2A 1_555 1_555
C2A C2 1_555 1_555
O3A C3A 1_555 1_555
O3A_2 Cd1 1_555 1_555
O4A Cd1A_3 1_555 1_555
O4A_2 Cd1A_2 1_555 1_555
C3A O4A 1_555 1_555
C4A C4 1_555 1_555
O5A Cd1A_2 1_555 1_555
O6A Cd1A_2 1_555 1_555
H1A C2A 1_555 1_555
H2A C4A 1_555 1_555
H3A O5A 1_555 1_555
H4A O5A 1_555 1_555
H5A O6A 1_555 1_555
H6A O6A 1_555 1_555
O4 C3 1_555 1_555
Cd1A_2 O3A_2 1_555 1_555
C1A C2A 1_555 1_555
C3A C4A 1_555 1_555

#END
