
#######################################################################
#
#                 Cambridge Crystallographic Data Centre
#                                CCDC 
#
#######################################################################
#
# If this CIF has been generated from an entry in the Cambridge 
# Structural Database, then it will include bibliographic, chemical, 
# crystal, experimental, refinement or atomic coordinate data resulting 
# from the CCDC's data processing and validation procedures.
#
#######################################################################

data_BIMHUB
_symmetry_cell_setting           triclinic
_symmetry_space_group_name_H-M   'P -1'
_symmetry_Int_Tables_number      2
_space_group_name_Hall           '-P 1'
loop_
_symmetry_equiv_pos_site_id
_symmetry_equiv_pos_as_xyz
1 x,y,z
2 -x,-y,-z
_cell_length_a                   6.7570(10)
_cell_length_b                   7.5440(10)
_cell_length_c                   7.8090(10)
_cell_angle_alpha                68.540(10)
_cell_angle_beta                 86.530(10)
_cell_angle_gamma                69.960(10)
_cell_volume                     347.077
loop_
_atom_site_label
_atom_site_type_symbol
_atom_site_fract_x
_atom_site_fract_y
_atom_site_fract_z
Cd1 Cd 0.35337(5) 0.18283(4) 0.61053(4)
O1 O 0.5101(6) 0.1562(5) 0.3409(4)
O2 O 0.3574(6) 0.4703(5) 0.3181(4)
O3 O 0.1778(6) 0.4347(5) 0.7210(4)
O4 O 0.2251(6) 0.1275(5) 0.9225(5)
O5 O 0.6777(6) 0.1503(6) 0.7233(5)
O6 O 0.0451(7) 0.1858(6) 0.5018(6)
C1 C 0.4629(7) 0.3438(7) 0.2499(6)
C2 C 0.5342(7) 0.4058(7) 0.0603(6)
C3 C 0.1511(7) 0.3168(6) 0.8779(6)
C4 C 0.0370(8) 0.4023(8) 1.0160(6)
H1 H 0.012(10) 0.310(10) 1.119(9)
H2 H 0.641(10) 0.302(10) 0.019(9)
H3 H 0.670(9) 0.256(10) 0.725(8)
H4 H -0.034(15) 0.319(15) 0.434(13)
H5 H 0.704(12) 0.074(12) 0.837(12)
H6 H -0.032(15) 0.150(13) 0.570(12)
C2A C 0.4658(7) 0.5942(7) -0.0603(6)
C1A C 0.5371(7) 0.6562(7) -0.2499(6)
O1A O 0.4899(6) 0.8438(5) -0.3409(4)
O2A O 0.6426(6) 0.5297(5) -0.3181(4)
H2A H 0.359(10) 0.698(10) -0.019(9)
C4A C -0.0370(8) 0.5977(8) 0.9840(6)
C3A C -0.1511(7) 0.6832(6) 1.1221(6)
O3A O -0.1778(6) 0.5653(5) 1.2790(4)
O4A O -0.2251(6) 0.8725(5) 1.0775(5)
H1A H -0.012(10) 0.690(10) 0.881(9)
Cd1A Cd 0.64663(5) 0.81717(4) -0.61053(4)
O5A O 0.3223(6) 0.8497(6) -0.7233(5)
H3A H 0.330(9) 0.744(10) -0.725(8)
H5A H 0.296(12) 0.926(12) -0.837(12)
O6A O 0.9549(7) 0.8142(6) -0.5018(6)
H4A H 1.034(15) 0.681(15) -0.434(13)
H6A H 1.032(15) 0.850(13) -0.570(12)
O1A_2 O 0.4899(6) -0.1562(5) 0.6591(4)
Cd1A_2 Cd 0.64663(5) -0.18283(4) 0.38947(4)
Cd1_2 Cd 0.35337(5) 1.18283(4) -0.38947(4)
Cd1A_3 Cd -0.35337(5) 0.81717(4) 1.38947(4)
O1_2 O 0.5101(6) 1.1562(5) -0.6591(4)
O3A_2 O 0.8222(6) 0.5653(5) -0.7210(4)
O4A_2 O 0.7749(6) 0.8725(5) -0.9225(5)
loop_
_geom_bond_atom_site_label_1
_geom_bond_atom_site_label_2
_geom_bond_site_symmetry_1
_geom_bond_site_symmetry_2
Cd1 O1 1_555 1_555
O1 C1 1_555 1_555
O2 Cd1 1_555 1_555
O3 Cd1 1_555 1_555
O4 Cd1 1_555 1_555
O5 Cd1 1_555 1_555
O6 Cd1 1_555 1_555
C1 O2 1_555 1_555
C2 C1 1_555 1_555
C3 O3 1_555 1_555
C4 C3 1_555 1_555
H1 C4 1_555 1_555
H2 C2 1_555 1_555
H3 O5 1_555 1_555
H4 O6 1_555 1_555
H5 O5 1_555 1_555
H6 O6 1_555 1_555
C2A C2 1_555 1_555
C1A C2A 1_555 1_555
O1A C1A 1_555 1_555
O2A C1A 1_555 1_555
H2A C2A 1_555 1_555
C4A C4 1_555 1_555
C3A C4A 1_555 1_555
O3A C3A 1_555 1_555
O4A C3A 1_555 1_555
H1A C4A 1_555 1_555
Cd1A O1A 1_555 1_555
O5A Cd1A 1_555 1_555
H3A O5A 1_555 1_555
H5A O5A 1_555 1_555
O6A Cd1A 1_555 1_555
H4A O6A 1_555 1_555
H6A O6A 1_555 1_555
O1A_2 Cd1 1_555 1_555
Cd1A_2 O1 1_555 1_555
Cd1_2 O1A 1_555 1_555
Cd1A_3 O3A 1_555 1_555
O1_2 Cd1A 1_555 1_555
O3A_2 Cd1A 1_555 1_555
O4A_2 Cd1A 1_555 1_555
O4 C3 1_555 1_555
O2A Cd1A 1_555 1_555
O4A Cd1A_3 1_555 1_555
O1A_2 Cd1A_2 1_555 1_555
Cd1_2 O1_2 1_555 1_555

#END
