
#######################################################################
#
#                 Cambridge Crystallographic Data Centre
#                                CCDC 
#
#######################################################################
#
# If this CIF has been generated from an entry in the Cambridge 
# Structural Database, then it will include bibliographic, chemical, 
# crystal, experimental, refinement or atomic coordinate data resulting 
# from the CCDC's data processing and validation procedures.
#
#######################################################################

data_BINNUI
_symmetry_cell_setting           monoclinic
_symmetry_space_group_name_H-M   'P 21/c'
_symmetry_Int_Tables_number      14
_space_group_name_Hall           '-P 2ybc'
loop_
_symmetry_equiv_pos_site_id
_symmetry_equiv_pos_as_xyz
1 x,y,z
2 x,1/2-y,1/2+z
3 -x,-y,-z
4 -x,1/2+y,1/2-z
_cell_length_a                   11.151(2)
_cell_length_b                   11.330(2)
_cell_length_c                   7.6560(15)
_cell_angle_alpha                90
_cell_angle_beta                 108.813(3)
_cell_angle_gamma                90
_cell_volume                     915.59
loop_
_atom_site_label
_atom_site_type_symbol
_atom_site_fract_x
_atom_site_fract_y
_atom_site_fract_z
Mn1 Mn 0.49071(4) 0.29466(3) 0.06053(5)
O1 O 0.4032(2) 0.13033(17) -0.0070(2)
O2 O 0.4000(2) 0.09877(17) -0.2940(3)
O3 O 0.4013(2) -0.21187(16) -0.3180(3)
O4 O 0.3435(2) -0.10662(16) -0.5665(2)
O5 O 0.3501(2) 0.38059(19) -0.1732(3)
H1 H 0.336(3) 0.444(2) -0.151(5)
H2 H 0.368(3) 0.382(3) -0.258(4)
C1 C 0.3633(3) 0.0773(2) -0.1600(3)
C2 C 0.2632(3) -0.0154(2) -0.1782(4)
H3 H 0.2955 -0.0733 -0.0791
C3 C 0.1458(3) 0.0452(3) -0.1538(5)
H4 H 0.1644 0.0669 -0.0252
H5 H 0.1288 0.1173 -0.2260
C4 C 0.0300(3) -0.0299(3) -0.2106(4)
H6 H -0.0392 -0.0057 -0.1771
C5 C 0.0197(3) -0.1282(3) -0.3049(4)
H7 H -0.0558 -0.1703 -0.3339
C6 C 0.1240(3) -0.1753(3) -0.3675(4)
H8 H 0.0886 -0.2052 -0.4924
H9 H 0.1649 -0.2405 -0.2886
C7 C 0.2226(3) -0.0805(2) -0.3626(4)
H10 H 0.1818 -0.0225 -0.4583
C8 C 0.3305(3) -0.1348(2) -0.4137(3)
O2A O 0.4000(2) 0.40123(17) 0.2060(3)
O3B O 0.5987(2) 0.21187(16) 0.3180(3)
O3C O 0.5987(2) 0.28813(16) -0.1820(3)
O4C O 0.6565(2) 0.39338(16) 0.0665(2)
Mn1A Mn 0.49071(4) 0.20534(3) -0.43947(5)
Mn1B Mn 0.50929(4) -0.29466(3) -0.06053(5)
Mn1C Mn 0.50929(4) -0.20534(3) -0.56053(5)
loop_
_geom_bond_atom_site_label_1
_geom_bond_atom_site_label_2
_geom_bond_site_symmetry_1
_geom_bond_site_symmetry_2
Mn1 O1 1_555 1_555
O1 C1 1_555 1_555
O2 C1 1_555 1_555
O3 C8 1_555 1_555
O4 C8 1_555 1_555
O5 Mn1 1_555 1_555
H1 O5 1_555 1_555
H2 O5 1_555 1_555
C1 C2 1_555 1_555
C2 H3 1_555 1_555
C3 C2 1_555 1_555
H4 C3 1_555 1_555
H5 C3 1_555 1_555
C4 C3 1_555 1_555
H6 C4 1_555 1_555
C5 C4 1_555 1_555
H7 C5 1_555 1_555
C6 C5 1_555 1_555
H8 C6 1_555 1_555
H9 C6 1_555 1_555
C7 C2 1_555 1_555
H10 C7 1_555 1_555
C8 C7 1_555 1_555
O2A Mn1 1_555 1_555
O3B Mn1 1_555 1_555
O3C Mn1 1_555 1_555
O4C Mn1 1_555 1_555
Mn1A O2 1_555 1_555
Mn1B O3 1_555 1_555
Mn1C O3 1_555 1_555
O4 Mn1C 1_555 1_555
C6 C7 1_555 1_555
O3C Mn1A 1_555 1_555

#END
