
#######################################################################
#
#                 Cambridge Crystallographic Data Centre
#                                CCDC 
#
#######################################################################
#
# If this CIF has been generated from an entry in the Cambridge 
# Structural Database, then it will include bibliographic, chemical, 
# crystal, experimental, refinement or atomic coordinate data resulting 
# from the CCDC's data processing and validation procedures.
#
#######################################################################

data_BINPAR
_symmetry_cell_setting           triclinic
_symmetry_space_group_name_H-M   'P -1'
_symmetry_Int_Tables_number      2
_space_group_name_Hall           '-P 1'
loop_
_symmetry_equiv_pos_site_id
_symmetry_equiv_pos_as_xyz
1 x,y,z
2 -x,-y,-z
_cell_length_a                   12.476(5)
_cell_length_b                   12.715(5)
_cell_length_c                   20.931(5)
_cell_angle_alpha                74.508(5)
_cell_angle_beta                 86.133(5)
_cell_angle_gamma                76.031(5)
_cell_volume                     3105.06
loop_
_atom_site_label
_atom_site_type_symbol
_atom_site_fract_x
_atom_site_fract_y
_atom_site_fract_z
Mo1 Mo 0.05091(9) -0.24479(9) -0.34651(5)
Mo2 Mo 0.00636(8) -0.28724(9) -0.18289(5)
Mo3 Mo 0.24302(8) -0.42106(9) -0.09995(5)
Mo4 Mo 0.32423(9) -0.33275(10) -0.37430(5)
Mo5 Mo 0.45816(8) -0.40184(10) -0.22877(5)
Co1 Co 0.26771(13) -0.64755(15) -0.80152(8)
Co2 Co 0.0000 0.0000 -0.5000
P1 P 0.2335(3) -0.1952(3) -0.24798(16)
P2 P 0.2065(3) -0.4827(3) -0.23966(16)
O1 O 0.0957(6) -0.3956(7) -0.2530(4)
O2 O 0.2081(7) -0.2041(7) -0.3165(4)
N1 N 0.0405(9) -0.1223(10) -0.5565(5)
O3 O 0.2704(7) -0.5423(7) -0.0389(4)
N2 N 0.2071(8) -0.5242(9) -0.7462(5)
O4 O 0.2308(6) -0.5329(7) -0.1661(4)
O5 O -0.0400(7) -0.1828(7) -0.1459(4)
O6 O 0.3570(6) -0.2250(7) -0.2360(4)
O7 O 0.2213(10) 0.0858(9) -0.1149(5)
O8 O 0.3869(9) -0.8708(9) -0.2669(6)
O9 O 0.3028(6) -0.4297(7) -0.2727(4)
O10 O 0.5699(6) -0.3534(7) -0.2134(4)
O11 O -0.0026(6) -0.1898(6) -0.2727(4)
O12 O 0.3828(6) -0.4241(7) -0.1468(4)
O13 O 0.2477(7) -0.3224(8) -0.0603(4)
O14 O 0.4465(6) -0.3349(7) -0.3239(4)
C1 C 0.1386(10) -0.3668(11) -0.6713(6)
N3 N 0.4817(11) -1.2518(10) -0.9834(7)
O15 O 0.1050(6) -0.6560(7) -0.8158(4)
C2 C 0.3174(14) -0.7803(14) -0.2940(8)
C3 C 0.1186(11) -0.4390(11) -0.7620(6)
H1 H 0.0786 -0.4326 -0.7994
O16 O 0.5188(7) -0.5359(8) -0.2285(5)
C4 C 0.1037(11) -0.2823(11) -0.6323(6)
O17 O 0.1783(6) -0.2711(7) -0.1925(4)
C5 C -0.0173(14) -0.1131(14) -0.6109(8)
H2 H -0.0770 -0.0523 -0.6244
O18 O 0.0838(7) -0.3967(7) -0.1109(4)
O19 O 0.3785(8) -0.4420(9) -0.4079(5)
C6 C 0.5074(12) -1.1546(13) -0.9052(8)
H3 H 0.5456 -1.1542 -0.8686
C7 C 0.1668(11) -0.2840(12) -0.5777(7)
H4 H 0.2321 -0.3382 -0.5660
C8 C 0.1309(11) -0.2059(12) -0.5425(7)
H5 H 0.1724 -0.2112 -0.5061
C9 C 0.2103(12) -0.0414(11) -0.1745(6)
H6 H 0.1760 -0.0893 -0.1393
H7 H 0.2897 -0.0676 -0.1689
C10 C 0.3679(12) -1.0730(13) -0.9860(7)
H8 H 0.3103 -1.0142 -1.0061
C11 C 0.2318(11) -0.4525(12) -0.6556(7)
H9 H 0.2745 -0.4585 -0.6195
O20 O 0.2621(7) -0.7678(8) -0.7103(4)
C12 C 0.2049(10) -0.5953(11) -0.2750(6)
H10 H 0.1444 -0.6292 -0.2557
H11 H 0.1917 -0.5658 -0.3222
C13 C 0.4430(12) -0.9609(12) -0.8483(8)
H12 H 0.5000 -1.0200 -0.8279
O21 O 0.1218(9) 0.1528(9) -0.2066(5)
C14 C 0.1789(10) -0.0541(10) -0.2423(6)
H13 H 0.2082 -0.0027 -0.2781
H14 H 0.0991 -0.0354 -0.2466
O22 O 0.2622(13) -0.7685(11) -0.3431(6)
C15 C 0.1773(12) 0.0738(12) -0.1674(7)
C16 C 0.0836(11) -0.3619(11) -0.7275(6)
H15 H 0.0214 -0.3044 -0.7416
C17 C 0.2626(11) -0.5298(11) -0.6929(6)
H16 H 0.3248 -0.5880 -0.6803
O23 O 0.0324(8) -0.1240(8) -0.4101(4)
C18 C 0.3115(11) -0.6839(11) -0.2637(7)
H17 H 0.3231 -0.7139 -0.2163
H18 H 0.3717 -0.6485 -0.2815
O24 O 0.2638(7) -0.5294(7) -0.8917(4)
C19 C 0.3911(10) -0.9642(11) -0.9046(6)
O25 O 0.1707(7) -0.3359(7) -0.3808(4)
C20 C 0.5353(14) -1.2441(15) -0.9322(10)
H19 H 0.5946 -1.3027 -0.9142
O26 O 0.3280(7) -0.2154(9) -0.4371(4)
C21 C 0.2799(9) -0.7832(11) -0.9055(7)
H20 H 0.2243 -0.7222 -0.9255
C22 C 0.3093(12) -0.8717(12) -0.9332(7)
H21 H 0.2742 -0.8697 -0.9715
C23 C 0.3985(14) -1.1674(13) -1.0095(8)
H22 H 0.3597 -1.1720 -1.0447
C24 C 0.4230(11) -1.0652(12) -0.9322(7)
C25 C 0.4076(12) -0.8681(12) -0.8241(7)
H23 H 0.4426 -0.8670 -0.7865
N4 N 0.3281(9) -0.7803(9) -0.8498(6)
O27 O 0.1705(9) 0.0046(10) -0.4964(6)
C26 C 0.0113(12) -0.1937(13) -0.6468(7)
H24 H -0.0333 -0.1879 -0.6821
O28 O -0.0552(7) -0.3005(8) -0.3568(4)
Mo1A Mo -0.05091(9) -0.75521(9) -0.65349(5)
Mo2A Mo -0.00636(8) -0.71276(9) -0.81711(5)
Mo3A Mo -0.24302(8) -0.57894(9) -0.90005(5)
Mo4A Mo -0.32423(9) -0.66725(10) -0.62570(5)
Mo5A Mo -0.45816(8) -0.59816(10) -0.77123(5)
Co1A Co -0.26771(13) -0.35245(15) -0.19848(8)
P1A P -0.2335(3) -0.8048(3) -0.75202(16)
P2A P -0.2065(3) -0.5173(3) -0.76034(16)
O1A O -0.0957(6) -0.6044(7) -0.7470(4)
O2A O -0.2081(7) -0.7959(7) -0.6835(4)
N1A N -0.0405(9) -0.8777(10) -0.4435(5)
O3A O -0.2704(7) -0.4577(7) -0.9611(4)
N2A N -0.2071(8) -0.4758(9) -0.2538(5)
O4A O -0.2308(6) -0.4671(7) -0.8339(4)
O5A O 0.0400(7) -0.8172(7) -0.8541(4)
O6A O -0.3570(6) -0.7750(7) -0.7640(4)
O7A O -0.2213(10) -1.0858(9) -0.8851(5)
O8A O -0.3869(9) -0.1292(9) -0.7331(6)
O9A O -0.3028(6) -0.5703(7) -0.7273(4)
O10A O -0.5699(6) -0.6466(7) -0.7866(4)
O11A O 0.0026(6) -0.8102(6) -0.7273(4)
O12A O -0.3828(6) -0.5759(7) -0.8532(4)
O13A O -0.2477(7) -0.6776(8) -0.9397(4)
O14A O -0.4465(6) -0.6651(7) -0.6761(4)
C1A C -0.1386(10) -0.6332(11) -0.3287(6)
N3A N -0.4817(11) 0.2518(10) -0.0166(7)
O15A O -0.1050(6) -0.3440(7) -0.1842(4)
C2A C -0.3174(14) -0.2197(14) -0.7060(8)
C3A C -0.1186(11) -0.5610(11) -0.2380(6)
H1A H -0.0786 -0.5674 -0.2006
O16A O -0.5188(7) -0.4641(8) -0.7715(5)
C4A C -0.1037(11) -0.7177(11) -0.3677(6)
O17A O -0.1783(6) -0.7289(7) -0.8075(4)
C5A C 0.0173(14) -0.8869(14) -0.3891(8)
H2A H 0.0770 -0.9477 -0.3756
O18A O -0.0838(7) -0.6033(7) -0.8891(4)
O19A O -0.3785(8) -0.5580(9) -0.5921(5)
C6A C -0.5074(12) 0.1546(13) -0.0948(8)
H3A H -0.5456 0.1542 -0.1314
C7A C -0.1668(11) -0.7160(12) -0.4223(7)
H4A H -0.2321 -0.6618 -0.4340
C8A C -0.1309(11) -0.7941(12) -0.4575(7)
H5A H -0.1724 -0.7888 -0.4939
C9A C -0.2103(12) -0.9586(11) -0.8255(6)
H6A H -0.1760 -0.9107 -0.8607
H7A H -0.2897 -0.9324 -0.8311
C10A C -0.3679(12) 0.0730(13) -0.0140(7)
H8A H -0.3103 0.0142 0.0061
C11A C -0.2318(11) -0.5475(12) -0.3444(7)
H9A H -0.2745 -0.5415 -0.3805
O20A O -0.2621(7) -0.2322(8) -0.2897(4)
C12A C -0.2049(10) -0.4047(11) -0.7250(6)
H10A H -0.1444 -0.3708 -0.7443
H11A H -0.1917 -0.4342 -0.6778
C13A C -0.4430(12) -0.0391(12) -0.1517(8)
H12A H -0.5000 0.0200 -0.1721
O21A O -0.1218(9) -1.1528(9) -0.7934(5)
C14A C -0.1789(10) -0.9459(10) -0.7577(6)
H13A H -0.2082 -0.9973 -0.7219
H14A H -0.0991 -0.9646 -0.7534
O22A O -0.2622(13) -0.2315(11) -0.6569(6)
C15A C -0.1773(12) -1.0738(12) -0.8326(7)
C16A C -0.0836(11) -0.6381(11) -0.2725(6)
H15A H -0.0214 -0.6956 -0.2584
C17A C -0.2626(11) -0.4702(11) -0.3071(6)
H16A H -0.3248 -0.4120 -0.3197
O23A O -0.0324(8) -0.8760(8) -0.5899(4)
C18A C -0.3115(11) -0.3161(11) -0.7363(7)
H17A H -0.3231 -0.2861 -0.7837
H18A H -0.3717 -0.3515 -0.7185
O24A O -0.2638(7) -0.4706(7) -0.1083(4)
C19A C -0.3911(10) -0.0358(11) -0.0954(6)
O25A O -0.1707(7) -0.6641(7) -0.6192(4)
C20A C -0.5353(14) 0.2441(15) -0.0678(10)
H19A H -0.5946 0.3027 -0.0858
O26A O -0.3280(7) -0.7846(9) -0.5629(4)
C21A C -0.2799(9) -0.2168(11) -0.0945(7)
H20A H -0.2243 -0.2778 -0.0745
C22A C -0.3093(12) -0.1283(12) -0.0668(7)
H21A H -0.2742 -0.1303 -0.0285
C23A C -0.3985(14) 0.1674(13) 0.0095(8)
H22A H -0.3597 0.1720 0.0447
C24A C -0.4230(11) 0.0652(12) -0.0678(7)
C25A C -0.4076(12) -0.1319(12) -0.1759(7)
H23A H -0.4426 -0.1330 -0.2135
N4A N -0.3281(9) -0.2197(9) -0.1502(6)
C26A C -0.0113(12) -0.8063(13) -0.3532(7)
H24A H 0.0333 -0.8121 -0.3179
O28A O 0.0552(7) -0.6995(8) -0.6432(4)
O27A O -0.1705(9) -0.0046(10) -0.5036(6)
Co1_2 Co -0.73229(13) -0.64755(15) -0.80152(8)
Co1A_2 Co 0.73229(13) -0.35245(15) -0.19848(8)
Co2_2 Co 0.0000 -1.0000 -0.5000
N1A_2 N -0.0405(9) 0.1223(10) -0.4435(5)
O10_2 O -0.4301(6) -0.3534(7) -0.2134(4)
O10A_2 O 0.4301(6) -0.6466(7) -0.7866(4)
O23A_2 O -0.0324(8) 0.1240(8) -0.5899(4)
C27 C 0.7870(15) 0.1542(14) -0.1732(10)
C28 C 0.7499(16) 0.2467(13) -0.1483(12)
H25 H 0.6924 0.3049 -0.1691
C29 C 0.787(2) 0.0509(18) -0.2586(10)
H26 H 0.8478 -0.0040 -0.2397
C30 C 0.7416(15) 0.1416(14) -0.2314(9)
N5 N 0.8818(16) 0.1745(17) -0.0609(10)
N6 N 0.6522(18) 0.121(2) -0.3468(10)
C31 C 0.6565(16) 0.219(2) -0.2645(10)
H27 H 0.6285 0.2828 -0.2491
C32 C 0.8760(18) 0.0702(16) -0.1406(11)
H28 H 0.9054 0.0065 -0.1554
C33 C 0.798(2) 0.253(2) -0.0929(14)
H29 H 0.7703 0.3150 -0.0765
C34 C 0.918(2) 0.087(2) -0.0851(14)
H30 H 0.9765 0.0311 -0.0633
C35 C 0.6097(19) 0.211(2) -0.3176(13)
H31 H 0.5479 0.2661 -0.3360
C36 C 0.739(3) 0.046(2) -0.3126(13)
H32 H 0.7685 -0.0169 -0.3285
O29 O 0.5288(7) -1.4175(8) -1.0480(4)
O30 O 0.1768(11) 0.2745(10) -0.0871(6)
O31 O 0.0617(10) -0.4610(11) -0.9442(6)
O32 O 0.0247(10) 0.2383(12) 0.0069(6)
O33 O 0.4212(11) -0.8104(12) -0.6185(7)
O34 O 0.4257(12) -1.0436(13) -0.3219(9)
O35 O 0.0000 -0.5000 -0.5000
O36 O -0.038(3) -0.543(3) -0.5428(16)
O37 O 0.187(2) -0.560(2) -0.4676(13)
O38 O 0.136(3) -0.618(3) -0.5048(15)
O39 O 0.356(3) -0.721(3) -0.4859(16)
O40 O 0.226(4) -0.731(4) -0.501(2)
loop_
_geom_bond_atom_site_label_1
_geom_bond_atom_site_label_2
_geom_bond_site_symmetry_1
_geom_bond_site_symmetry_2
Mo1 O1 1_555 1_555
Mo2 O1 1_555 1_555
Mo3 O3 1_555 1_555
Mo4 O2 1_555 1_555
Mo5 O6 1_555 1_555
Co1 N2 1_555 1_555
Co2 N1 1_555 1_555
P1 O2 1_555 1_555
P2 O1 1_555 1_555
O2 Mo1 1_555 1_555
N1 C5 1_555 1_555
N2 C3 1_555 1_555
O4 Mo3 1_555 1_555
O5 Mo2 1_555 1_555
O6 P1 1_555 1_555
O7 C15 1_555 1_555
O8 C2 1_555 1_555
O9 Mo4 1_555 1_555
O10 Mo5 1_555 1_555
O11 Mo1 1_555 1_555
O12 Mo3 1_555 1_555
O13 Mo3 1_555 1_555
O14 Mo4 1_555 1_555
C1 C4 1_555 1_555
N3 C20 1_555 1_555
O15 Co1 1_555 1_555
C2 O22 1_555 1_555
C3 H1 1_555 1_555
O16 Mo5 1_555 1_555
C4 C7 1_555 1_555
O17 Mo2 1_555 1_555
C5 H2 1_555 1_555
O18 Mo2 1_555 1_555
O19 Mo4 1_555 1_555
C6 H3 1_555 1_555
C7 H4 1_555 1_555
C8 N1 1_555 1_555
H5 C8 1_555 1_555
C9 H6 1_555 1_555
H7 C9 1_555 1_555
C10 H8 1_555 1_555
C11 C1 1_555 1_555
H9 C11 1_555 1_555
O20 Co1 1_555 1_555
C12 P2 1_555 1_555
H10 C12 1_555 1_555
H11 C12 1_555 1_555
C13 H12 1_555 1_555
O21 C15 1_555 1_555
C14 P1 1_555 1_555
H13 C14 1_555 1_555
H14 C14 1_555 1_555
C15 C9 1_555 1_555
C16 C1 1_555 1_555
H15 C16 1_555 1_555
C17 N2 1_555 1_555
H16 C17 1_555 1_555
O23 Mo1 1_555 1_555
C18 C2 1_555 1_555
H17 C18 1_555 1_555
H18 C18 1_555 1_555
O24 Co1 1_555 1_555
C19 C13 1_555 1_555
O25 Mo1 1_555 1_555
C20 C6 1_555 1_555
H19 C20 1_555 1_555
O26 Mo4 1_555 1_555
C21 H20 1_555 1_555
C22 C19 1_555 1_555
H21 C22 1_555 1_555
C23 N3 1_555 1_555
H22 C23 1_555 1_555
C24 C6 1_555 1_555
C25 C13 1_555 1_555
H23 C25 1_555 1_555
N4 Co1 1_555 1_555
O27 Co2 1_555 1_555
C26 C4 1_555 1_555
H24 C26 1_555 1_555
O28 Mo1 1_555 1_555
C27 C28 1_555 1_555
C28 H25 1_555 1_555
C29 H26 1_555 1_555
C30 C27 1_555 1_555
N5 C33 1_555 1_555
N6 C35 1_555 1_555
C31 C30 1_555 1_555
H27 C31 1_555 1_555
C32 C27 1_555 1_555
H28 C32 1_555 1_555
C33 C28 1_555 1_555
H29 C33 1_555 1_555
C34 N5 1_555 1_555
H30 C34 1_555 1_555
C35 C31 1_555 1_555
H31 C35 1_555 1_555
C36 C29 1_555 1_555
H32 C36 1_555 1_555
Mo1A O1A 1_555 1_555
Mo2A O15 1_555 1_555
Mo3A O3A 1_555 1_555
Mo4A O2A 1_555 1_555
Mo5A O6A 1_555 1_555
Co1A N2A 1_555 1_555
P1A O2A 1_555 1_555
P2A O1A 1_555 1_555
O1A Mo2A 1_555 1_555
O2A Mo1A 1_555 1_555
N1A C5A 1_555 1_555
N2A C3A 1_555 1_555
O4A Mo3A 1_555 1_555
O5A Mo2A 1_555 1_555
O6A P1A 1_555 1_555
O7A C15A 1_555 1_555
O8A C2A 1_555 1_555
O9A Mo4A 1_555 1_555
O10A Mo5A 1_555 1_555
O11A Mo1A 1_555 1_555
O12A Mo3A 1_555 1_555
O13A Mo3A 1_555 1_555
O14A Mo4A 1_555 1_555
C1A C4A 1_555 1_555
N3A C20A 1_555 1_555
O15A Mo2 1_555 1_555
C2A O22A 1_555 1_555
C3A H1A 1_555 1_555
O16A Mo5A 1_555 1_555
C4A C7A 1_555 1_555
O17A Mo2A 1_555 1_555
C5A H2A 1_555 1_555
O18A Mo2A 1_555 1_555
O19A Mo4A 1_555 1_555
C6A H3A 1_555 1_555
C7A H4A 1_555 1_555
C8A N1A 1_555 1_555
H5A C8A 1_555 1_555
C9A H6A 1_555 1_555
H7A C9A 1_555 1_555
C10A H8A 1_555 1_555
C11A C1A 1_555 1_555
H9A C11A 1_555 1_555
O20A Co1A 1_555 1_555
C12A P2A 1_555 1_555
H10A C12A 1_555 1_555
H11A C12A 1_555 1_555
C13A H12A 1_555 1_555
O21A C15A 1_555 1_555
C14A P1A 1_555 1_555
H13A C14A 1_555 1_555
H14A C14A 1_555 1_555
C15A C9A 1_555 1_555
C16A C1A 1_555 1_555
H15A C16A 1_555 1_555
C17A N2A 1_555 1_555
H16A C17A 1_555 1_555
O23A Mo1A 1_555 1_555
C18A C2A 1_555 1_555
H17A C18A 1_555 1_555
H18A C18A 1_555 1_555
O24A Co1A 1_555 1_555
C19A C13A 1_555 1_555
O25A Mo1A 1_555 1_555
C20A C6A 1_555 1_555
H19A C20A 1_555 1_555
O26A Mo4A 1_555 1_555
C21A H20A 1_555 1_555
C22A C19A 1_555 1_555
H21A C22A 1_555 1_555
C23A N3A 1_555 1_555
H22A C23A 1_555 1_555
C24A C6A 1_555 1_555
C25A C13A 1_555 1_555
H23A C25A 1_555 1_555
N4A Co1A 1_555 1_555
C26A C4A 1_555 1_555
H24A C26A 1_555 1_555
O28A Mo1A 1_555 1_555
O27A Co2 1_555 1_555
Co1_2 O10A 1_555 1_555
Co1A_2 O10 1_555 1_555
Co2_2 N1A 1_555 1_555
N1A_2 Co2 1_555 1_555
O10_2 Co1A 1_555 1_555
O10A_2 Co1 1_555 1_555
O23A_2 Co2 1_555 1_555
Mo2 O11 1_555 1_555
Mo3 O17 1_555 1_555
Mo3 O18 1_555 1_555
Mo4 O25 1_555 1_555
Mo5 O9 1_555 1_555
Mo5 O12 1_555 1_555
Mo5 O14 1_555 1_555
Co2 O23 1_555 1_555
P1 O17 1_555 1_555
P2 O4 1_555 1_555
P2 O9 1_555 1_555
C3 C16 1_555 1_555
C5 C26 1_555 1_555
C7 C8 1_555 1_555
C9 C14 1_555 1_555
C10 C23 1_555 1_555
C10 C24 1_555 1_555
C11 C17 1_555 1_555
C12 C18 1_555 1_555
C19 C24 1_555 1_555
C21 C22 1_555 1_555
C21 N4 1_555 1_555
C25 N4 1_555 1_555
C29 C30 1_555 1_555
N6 C36 1_555 1_555
C32 C34 1_555 1_555
Mo2A O11A 1_555 1_555
Mo3A O17A 1_555 1_555
Mo3A O18A 1_555 1_555
Mo4A O25A 1_555 1_555
Mo5A O9A 1_555 1_555
Mo5A O12A 1_555 1_555
Mo5A O14A 1_555 1_555
Co1A O15A 1_555 1_555
P1A O17A 1_555 1_555
P2A O4A 1_555 1_555
P2A O9A 1_555 1_555
C3A C16A 1_555 1_555
C5A C26A 1_555 1_555
C7A C8A 1_555 1_555
C9A C14A 1_555 1_555
C10A C23A 1_555 1_555
C10A C24A 1_555 1_555
C11A C17A 1_555 1_555
C12A C18A 1_555 1_555
O23A Co2_2 1_555 1_555
C19A C24A 1_555 1_555
C21A C22A 1_555 1_555
C21A N4A 1_555 1_555
C25A N4A 1_555 1_555

#END
