
#######################################################################
#
#                 Cambridge Crystallographic Data Centre
#                                CCDC 
#
#######################################################################
#
# If this CIF has been generated from an entry in the Cambridge 
# Structural Database, then it will include bibliographic, chemical, 
# crystal, experimental, refinement or atomic coordinate data resulting 
# from the CCDC's data processing and validation procedures.
#
#######################################################################

data_BINPEV
_symmetry_cell_setting           triclinic
_symmetry_space_group_name_H-M   'P -1'
_symmetry_Int_Tables_number      2
_space_group_name_Hall           '-P 1'
loop_
_symmetry_equiv_pos_site_id
_symmetry_equiv_pos_as_xyz
1 x,y,z
2 -x,-y,-z
_cell_length_a                   9.722(5)
_cell_length_b                   11.116(5)
_cell_length_c                   20.960(5)
_cell_angle_alpha                88.945(5)
_cell_angle_beta                 86.593(5)
_cell_angle_gamma                70.698(5)
_cell_volume                     2134.04
loop_
_atom_site_label
_atom_site_type_symbol
_atom_site_fract_x
_atom_site_fract_y
_atom_site_fract_z
Mo1 Mo 0.18842(5) 0.63421(5) -0.12308(2)
Mo2 Mo 0.32743(5) 0.87761(5) -0.12184(2)
Mo3 Mo 0.25717(6) 0.76021(6) -0.37614(3)
Mo4 Mo 0.12665(5) 0.57817(5) -0.27457(3)
Mo5 Mo 0.44468(6) 0.90339(5) -0.28960(3)
Cu1 Cu -0.24863(9) 0.73033(8) -0.07379(4)
P1 P 0.09830(16) 0.88504(15) -0.23422(8)
P2 P 0.45335(15) 0.61439(15) -0.24144(8)
O1 O 0.5480(4) 0.6923(4) -0.2624(2)
O2 O 0.1258(4) 0.9578(4) -0.1796(2)
O3 O 0.2073(4) 0.5194(4) -0.1940(2)
N1 N -0.2514(6) 0.9117(5) -0.0674(3)
C1 C -0.1967(6) 1.0264(7) -0.2263(3)
H1 H -0.2206 0.9551 -0.2073
H2 H -0.1712 1.0714 -0.1922
O4 O 0.7118(6) 0.4107(5) -0.3489(3)
O5 O -0.4438(5) 1.1585(5) -0.2241(3)
O6 O 0.4243(5) 0.8161(4) -0.3678(2)
O7 O 0.1038(5) 0.7019(5) -0.3408(2)
O8 O 0.4840(4) 0.8008(4) -0.0834(2)
O9 O 0.1935(5) 0.4396(5) -0.3179(2)
O10 O -0.0531(5) 0.5934(5) -0.2580(2)
O11 O 0.0844(4) 0.7577(4) -0.2119(2)
O12 O 0.4156(4) 0.9141(4) -0.1987(2)
O13 O 0.3699(4) 0.6712(4) -0.1777(2)
O14 O 0.2059(4) 0.7850(4) -0.0860(2)
C2 C -0.1194(7) 1.0572(6) -0.0611(3)
H3 H -0.0294 1.0692 -0.0593
C3 C -0.3730(7) 1.1342(6) -0.0671(4)
H4 H -0.4607 1.2011 -0.0691
O15 O 0.2883(5) 0.5167(5) -0.0744(2)
O16 O 0.2243(4) 0.8646(4) -0.2861(2)
O17 O 0.0110(4) 0.6568(4) -0.0959(2)
C4 C -0.3683(7) 1.3978(7) -0.0635(4)
H5 H -0.4579 1.3844 -0.0609
C5 C 0.7283(7) 0.4137(7) -0.2357(4)
H6 H 0.7570 0.4842 -0.2217
H7 H 0.7733 0.3411 -0.2087
C6 C -0.3308(7) 1.1148(6) -0.2554(4)
C7 C -0.3736(8) 1.0124(7) -0.0685(4)
H8 H -0.4625 0.9984 -0.0703
C8 C 0.7855(7) 0.3812(7) -0.3033(4)
O18 O 0.1489(6) 0.8815(5) -0.4187(3)
O19 O -0.2570(5) 0.7416(5) -0.1688(2)
H9 H -0.1739 0.7198 -0.1937
H10 H -0.3440 0.7687 -0.1866
O20 O -0.2455(6) 0.7226(6) 0.0228(3)
H11 H -0.1596 0.6964 0.0416
H12 H -0.3298 0.7453 0.0469
C9 C -0.3652(8) 1.5205(7) -0.0671(4)
H13 H -0.4534 1.5873 -0.0662
N2 N -0.2431(6) 1.5478(5) -0.0717(3)
C10 C -0.2438(6) 1.1608(6) -0.0628(3)
O21 O 0.3486(4) 0.6093(4) -0.2927(2)
O22 O 0.2646(5) 1.0196(4) -0.0819(2)
O23 O 0.6188(5) 0.8975(5) -0.3052(2)
O24 O 0.3406(5) 0.6446(5) -0.4324(2)
O25 O 0.3489(6) 1.0553(5) -0.3088(3)
O26 O -0.3115(5) 1.1437(5) -0.3157(3)
H14 H -0.3854 1.1990 -0.3270
O27 O 0.9260(6) 0.3137(6) -0.3105(3)
H15 H 0.9489 0.2997 -0.3486
C11 C -0.2422(7) 1.2945(6) -0.0637(3)
C12 C -0.0646(7) 0.9747(7) -0.2718(3)
H16 H -0.0472 1.0454 -0.2947
H17 H -0.0856 0.9207 -0.3029
C13 C 0.5634(7) 0.4497(6) -0.2263(3)
H18 H 0.5200 0.3895 -0.2133
C14 C -0.1259(7) 0.9368(6) -0.0620(4)
H19 H -0.0398 0.8686 -0.0587
C15 C -0.1120(7) 1.3233(7) -0.0684(4)
H20 H -0.0225 1.2580 -0.0688
C16 C -0.1171(8) 1.4470(7) -0.0725(5)
H21 H -0.0293 1.4635 -0.0760
Cu1_2 Cu -0.24863(9) 1.73033(8) -0.07379(4)
Cu1_3 Cu 0.75137(9) 0.73033(8) -0.07379(4)
O8_2 O -0.5160(4) 0.8008(4) -0.0834(2)
N2_2 N -0.2431(6) 0.5478(5) -0.0717(3)
O28 O -0.2891(6) 0.7304(6) 0.1578(3)
H22 H -0.3806 0.7860 0.1573
H23 H -0.2578 0.6868 0.1937
O29 O 0.5280(6) -0.3215(6) 0.3722(3)
H24 H 0.4818 -0.3797 0.3751
H25 H 0.5953 -0.3230 0.4001
N3 N 0.6662(6) 0.6646(6) -0.4210(3)
C17 C 0.9303(7) 0.5339(7) -0.4834(3)
C18 C 0.8006(7) 0.5472(9) -0.5115(4)
H26 H 0.8015 0.5115 -0.5514
C19 C 0.9199(8) 0.5849(10) -0.4233(4)
H27 H 1.0051 0.5747 -0.4027
C20 C 0.6679(8) 0.6152(8) -0.4789(4)
H28 H 0.5804 0.6261 -0.4978
C21 C 0.7884(9) 0.6502(9) -0.3928(4)
H29 H 0.7853 0.6842 -0.3523
N3A N 1.3338(6) 0.3354(6) -0.5790(3)
C17A C 1.0697(7) 0.4661(7) -0.5166(3)
C18A C 1.1994(7) 0.4528(9) -0.4885(4)
H26A H 1.1985 0.4885 -0.4486
C19A C 1.0801(8) 0.4151(10) -0.5767(4)
H27A H 0.9949 0.4253 -0.5973
C20A C 1.3321(8) 0.3848(8) -0.5211(4)
H28A H 1.4196 0.3739 -0.5022
C21A C 1.2116(9) 0.3498(9) -0.6072(4)
H29A H 1.2147 0.3158 -0.6477
C22 C 0.4206(10) -0.9738(8) 0.5032(4)
C23 C 0.3472(12) -0.8972(9) 0.5533(4)
H30 H 0.4004 -0.8766 0.5842
C24 C 0.3282(12) -0.9917(11) 0.4577(6)
H31 H 0.3712 -1.0387 0.4212
N4 N 0.1186(11) -0.8719(9) 0.5152(5)
C25 C 0.1976(14) -0.8501(11) 0.5592(6)
H32 H 0.1517 -0.8019 0.5950
C26 C 0.1841(13) -0.9457(12) 0.4636(7)
H33 H 0.1282 -0.9635 0.4330
C22A C 0.5794(10) -1.0262(8) 0.4968(4)
C23A C 0.6528(12) -1.1028(9) 0.4467(4)
H30A H 0.5996 -1.1234 0.4158
C24A C 0.6718(12) -1.0083(11) 0.5423(6)
H31A H 0.6288 -0.9613 0.5788
N4A N 0.8814(11) -1.1281(9) 0.4848(5)
C25A C 0.8024(14) -1.1499(11) 0.4408(6)
H32A H 0.8483 -1.1981 0.4050
C26A C 0.8159(13) -1.0543(12) 0.5364(7)
H33A H 0.8718 -1.0365 0.5670
O30 O 1.0569(7) 0.2213(6) -0.2089(3)
H34 H 1.0298 0.1523 -0.2010
H35 H 1.1514 0.2152 -0.2078
O31 O -0.1624(8) -0.7521(7) 0.5448(3)
H36 H -0.1672 -0.7325 0.5865
H37 H -0.1461 -0.8332 0.5328
loop_
_geom_bond_atom_site_label_1
_geom_bond_atom_site_label_2
_geom_bond_site_symmetry_1
_geom_bond_site_symmetry_2
Mo1 O3 1_555 1_555
Mo2 O2 1_555 1_555
Mo3 O6 1_555 1_555
Mo4 O3 1_555 1_555
Mo5 O1 1_555 1_555
Cu1 N1 1_555 1_555
P1 O2 1_555 1_555
P2 O1 1_555 1_555
N1 C7 1_555 1_555
C1 H1 1_555 1_555
H2 C1 1_555 1_555
O4 C8 1_555 1_555
O5 C6 1_555 1_555
O6 Mo5 1_555 1_555
O7 Mo3 1_555 1_555
O8 Mo2 1_555 1_555
O9 Mo4 1_555 1_555
O10 Mo4 1_555 1_555
O11 Mo1 1_555 1_555
O12 Mo2 1_555 1_555
O13 Mo1 1_555 1_555
O14 Mo1 1_555 1_555
C2 H3 1_555 1_555
C3 H4 1_555 1_555
O15 Mo1 1_555 1_555
O16 Mo3 1_555 1_555
O17 Mo1 1_555 1_555
C4 H5 1_555 1_555
C5 H6 1_555 1_555
H7 C5 1_555 1_555
C6 C1 1_555 1_555
C7 C3 1_555 1_555
H8 C7 1_555 1_555
C8 C5 1_555 1_555
O18 Mo3 1_555 1_555
O19 Cu1 1_555 1_555
H9 O19 1_555 1_555
H10 O19 1_555 1_555
O20 Cu1 1_555 1_555
H11 O20 1_555 1_555
H12 O20 1_555 1_555
C9 C4 1_555 1_555
H13 C9 1_555 1_555
N2 C9 1_555 1_555
C10 C2 1_555 1_555
O21 Mo3 1_555 1_555
O22 Mo2 1_555 1_555
O23 Mo5 1_555 1_555
O24 Mo3 1_555 1_555
O25 Mo5 1_555 1_555
O26 C6 1_555 1_555
H14 O26 1_555 1_555
O27 C8 1_555 1_555
H15 O27 1_555 1_555
C11 C4 1_555 1_555
C12 P1 1_555 1_555
H16 C12 1_555 1_555
H17 C12 1_555 1_555
C13 P2 1_555 1_555
H18 C13 1_555 1_555
C14 N1 1_555 1_555
H19 C14 1_555 1_555
C15 C11 1_555 1_555
H20 C15 1_555 1_555
C16 N2 1_555 1_555
H21 C16 1_555 1_555
O28 H22 1_555 1_555
H23 O28 1_555 1_555
O29 H24 1_555 1_555
H25 O29 1_555 1_555
N3 C20 1_555 1_555
C17 C18 1_555 1_555
C18 H26 1_555 1_555
C19 C17 1_555 1_555
H27 C19 1_555 1_555
C20 C18 1_555 1_555
H28 C20 1_555 1_555
C21 N3 1_555 1_555
H29 C21 1_555 1_555
C22 C23 1_555 1_555
C23 H30 1_555 1_555
C24 C22 1_555 1_555
H31 C24 1_555 1_555
N4 C25 1_555 1_555
C25 C23 1_555 1_555
H32 C25 1_555 1_555
C26 C24 1_555 1_555
H33 C26 1_555 1_555
O30 H34 1_555 1_555
H35 O30 1_555 1_555
O31 H36 1_555 1_555
H37 O31 1_555 1_555
Cu1_2 N2 1_555 1_555
Cu1_3 O8 1_555 1_555
O8_2 Cu1 1_555 1_555
N2_2 Cu1 1_555 1_555
N3A C20A 1_555 1_555
C17A C17 1_555 1_555
C18A C17A 1_555 1_555
H26A C18A 1_555 1_555
C19A C17A 1_555 1_555
H27A C19A 1_555 1_555
C20A C18A 1_555 1_555
H28A C20A 1_555 1_555
C21A N3A 1_555 1_555
H29A C21A 1_555 1_555
C22A C22 1_555 1_555
C23A C22A 1_555 1_555
H30A C23A 1_555 1_555
C24A C22A 1_555 1_555
H31A C24A 1_555 1_555
N4A C25A 1_555 1_555
C25A C23A 1_555 1_555
H32A C25A 1_555 1_555
C26A C24A 1_555 1_555
H33A C26A 1_555 1_555
Mo2 O13 1_555 1_555
Mo2 O14 1_555 1_555
Mo4 O7 1_555 1_555
Mo4 O11 1_555 1_555
Mo4 O21 1_555 1_555
Mo5 O12 1_555 1_555
Mo5 O16 1_555 1_555
Cu1 O17 1_555 1_555
P1 O11 1_555 1_555
P1 O16 1_555 1_555
P2 O13 1_555 1_555
P2 O21 1_555 1_555
C1 C12 1_555 1_555
C2 C14 1_555 1_555
C3 C10 1_555 1_555
C5 C13 1_555 1_555
C10 C11 1_555 1_555
C15 C16 1_555 1_555
C19 C21 1_555 1_555
N4 C26 1_555 1_555
C19A C21A 1_555 1_555
N4A C26A 1_555 1_555

#END
