
#######################################################################
#
#                 Cambridge Crystallographic Data Centre
#                                CCDC 
#
#######################################################################
#
# If this CIF has been generated from an entry in the Cambridge 
# Structural Database, then it will include bibliographic, chemical, 
# crystal, experimental, refinement or atomic coordinate data resulting 
# from the CCDC's data processing and validation procedures.
#
#######################################################################

data_BINRIB
_symmetry_cell_setting           monoclinic
_symmetry_space_group_name_H-M   'P 21/n'
_symmetry_Int_Tables_number      14
_space_group_name_Hall           '-P 2yn'
loop_
_symmetry_equiv_pos_site_id
_symmetry_equiv_pos_as_xyz
1 x,y,z
2 1/2-x,1/2+y,1/2-z
3 -x,-y,-z
4 1/2+x,1/2-y,1/2+z
_cell_length_a                   5.355(5)
_cell_length_b                   15.601(6)
_cell_length_c                   13.236(5)
_cell_angle_alpha                90
_cell_angle_beta                 95.998(5)
_cell_angle_gamma                90
_cell_volume                     1099.73
loop_
_atom_site_label
_atom_site_type_symbol
_atom_site_fract_x
_atom_site_fract_y
_atom_site_fract_z
C1 C 0.2813(8) 0.4123(2) 0.0169(3)
C2 C 0.6338(8) 0.3509(3) -0.0535(3)
H1 H 0.7770 0.3169 -0.0442
C3 C 0.5709(8) 0.3848(3) -0.1447(3)
H2 H 0.6688 0.3741 -0.1974
C4 C 0.3514(8) 0.4381(3) -0.1618(3)
C5 C 0.5738(7) 0.3271(2) 0.1296(3)
H3 H 0.5286 0.3669 0.1811
H4 H 0.7549 0.3205 0.1382
C6 C 0.4529(7) 0.2412(2) 0.1455(3)
H5 H 0.4734 0.2282 0.2175
H6 H 0.2743 0.2460 0.1248
C7 C 0.5547(8) 0.1670(2) 0.0890(3)
N1 N 0.2239(6) 0.4477(2) -0.0767(3)
H7 H 0.0928 0.4799 -0.0838
N2 N 0.4974(6) 0.3636(2) 0.0282(3)
O1 O 0.7673(5) 0.17777(17) 0.0567(2)
O2 O 0.1501(5) 0.42352(18) 0.0869(2)
O3 O 0.4223(5) 0.10044(16) 0.0799(2)
O4 O 0.3940(6) -0.0844(2) 0.1435(3)
O5 O 0.1522(5) 0.00036(16) -0.0625(2)
O6 O 0.2751(6) 0.4758(2) -0.2403(2)
Cu1 Cu 0.96841(9) 0.09810(3) -0.01450(4)
Cu2 Cu 0.5000 0.0000 0.0000
Cl1 Cl 1.13575(18) 0.20350(6) -0.10301(8)
H8 H 0.155(11) -0.009(3) -0.1259(18)
H9 H 0.512(10) -0.120(4) 0.136(5)
H10 H 0.455(9) -0.064(3) 0.202(2)
C1B C 0.7187(8) -0.4123(2) -0.0169(3)
C2B C 0.3662(8) -0.3509(3) 0.0535(3)
H1B H 0.2230 -0.3169 0.0442
C3B C 0.4291(8) -0.3848(3) 0.1447(3)
H2B H 0.3312 -0.3741 0.1974
C4B C 0.6486(8) -0.4381(3) 0.1618(3)
C5B C 0.4262(7) -0.3271(2) -0.1296(3)
H3B H 0.4714 -0.3669 -0.1811
H4B H 0.2451 -0.3205 -0.1382
C6B C 0.5471(7) -0.2412(2) -0.1455(3)
H5B H 0.5266 -0.2282 -0.2175
H6B H 0.7257 -0.2460 -0.1248
C7B C 0.4453(8) -0.1670(2) -0.0890(3)
N1B N 0.7761(6) -0.4477(2) 0.0767(3)
H7B H 0.9072 -0.4799 0.0838
N2B N 0.5026(6) -0.3636(2) -0.0282(3)
O1B O 0.2327(5) -0.17777(17) -0.0567(2)
O2B O 0.8499(5) -0.42352(18) -0.0869(2)
O3B O 0.5777(5) -0.10044(16) -0.0799(2)
O4B O 0.6060(6) 0.0844(2) -0.1435(3)
O5B O 0.8478(5) -0.00036(16) 0.0625(2)
O6B O 0.7249(6) -0.4758(2) 0.2403(2)
Cu1B Cu 0.03159(9) -0.09810(3) 0.01450(4)
Cl1B Cl -0.13575(18) -0.20350(6) 0.10301(8)
H8B H 0.845(11) 0.009(3) 0.1259(18)
H9B H 0.488(10) 0.120(4) -0.136(5)
H10B H 0.545(9) 0.064(3) -0.202(2)
O3_2 O 1.4223(5) 0.10044(16) 0.0799(2)
O3B_2 O -0.4223(5) -0.10044(16) -0.0799(2)
O5_2 O 1.1522(5) 0.00036(16) -0.0625(2)
O5B_2 O -0.1522(5) -0.00036(16) 0.0625(2)
Cu1_2 Cu -0.03159(9) 0.09810(3) -0.01450(4)
Cu1B_2 Cu 1.03159(9) -0.09810(3) 0.01450(4)
loop_
_geom_bond_atom_site_label_1
_geom_bond_atom_site_label_2
_geom_bond_site_symmetry_1
_geom_bond_site_symmetry_2
C1 N1 1_555 1_555
C2 H1 1_555 1_555
C3 C2 1_555 1_555
H2 C3 1_555 1_555
C4 C3 1_555 1_555
C5 H3 1_555 1_555
H4 C5 1_555 1_555
C6 C5 1_555 1_555
H5 C6 1_555 1_555
H6 C6 1_555 1_555
C7 C6 1_555 1_555
N1 C4 1_555 1_555
H7 N1 1_555 1_555
N2 C1 1_555 1_555
O1 C7 1_555 1_555
O2 C1 1_555 1_555
O3 C7 1_555 1_555
O4 Cu2 1_555 1_555
O5 Cu2 1_555 1_555
O6 C4 1_555 1_555
Cu1 O1 1_555 1_555
Cu2 O3 1_555 1_555
Cl1 Cu1 1_555 1_555
H8 O5 1_555 1_555
H9 O4 1_555 1_555
H10 O4 1_555 1_555
C1B N1B 1_555 1_555
C2B H1B 1_555 1_555
C3B C2B 1_555 1_555
H2B C3B 1_555 1_555
C4B C3B 1_555 1_555
C5B H3B 1_555 1_555
H4B C5B 1_555 1_555
C6B C5B 1_555 1_555
H5B C6B 1_555 1_555
H6B C6B 1_555 1_555
C7B C6B 1_555 1_555
N1B C4B 1_555 1_555
H7B N1B 1_555 1_555
N2B C1B 1_555 1_555
O1B C7B 1_555 1_555
O2B C1B 1_555 1_555
O3B Cu2 1_555 1_555
O4B Cu1 1_555 1_555
O5B Cu1 1_555 1_555
O6B C4B 1_555 1_555
Cu1B O4 1_555 1_555
Cl1B Cu1B 1_555 1_555
H8B O5B 1_555 1_555
H9B O4B 1_555 1_555
H10B O4B 1_555 1_555
O3_2 Cu1 1_555 1_555
O3B_2 Cu1B 1_555 1_555
O5_2 Cu1 1_555 1_555
O5B_2 Cu1B 1_555 1_555
Cu1_2 O3 1_555 1_555
Cu1B_2 O3B 1_555 1_555
C2 N2 1_555 1_555
C5 N2 1_555 1_555
O5 Cu1B 1_555 1_555
O5 Cu1_2 1_555 1_555
Cu2 O4B 1_555 1_555
Cu2 O5B 1_555 1_555
C2B N2B 1_555 1_555
C5B N2B 1_555 1_555
C7B O3B 1_555 1_555
O1B Cu1B 1_555 1_555
O5B Cu1B_2 1_555 1_555
O5_2 Cu1B_2 1_555 1_555
O5B_2 Cu1_2 1_555 1_555

#END
