
#######################################################################
#
#                 Cambridge Crystallographic Data Centre
#                                CCDC 
#
#######################################################################
#
# If this CIF has been generated from an entry in the Cambridge 
# Structural Database, then it will include bibliographic, chemical, 
# crystal, experimental, refinement or atomic coordinate data resulting 
# from the CCDC's data processing and validation procedures.
#
#######################################################################

data_BINREX
_symmetry_cell_setting           triclinic
_symmetry_space_group_name_H-M   'P -1'
_symmetry_Int_Tables_number      2
_space_group_name_Hall           '-P 1'
loop_
_symmetry_equiv_pos_site_id
_symmetry_equiv_pos_as_xyz
1 x,y,z
2 -x,-y,-z
_cell_length_a                   5.567(2)
_cell_length_b                   12.438(7)
_cell_length_c                   14.775(9)
_cell_angle_alpha                105.241(5)
_cell_angle_beta                 100.679(4)
_cell_angle_gamma                101.897(4)
_cell_volume                     934.276
loop_
_atom_site_label
_atom_site_type_symbol
_atom_site_fract_x
_atom_site_fract_y
_atom_site_fract_z
Cu1 Cu 0.0000 0.0000 0.5000
Cu2 Cu -0.51639(8) -0.11558(4) 0.51305(3)
N1 N -0.4121(6) -0.4563(2) 0.3360(2)
C1 C -0.4935(7) -0.5507(3) 0.3651(3)
N2 N -0.7376(6) -0.6155(2) 0.3179(2)
H1 H -0.7927 -0.6751 0.3349
C2 C -0.9066(7) -0.5960(3) 0.2456(3)
C3 C -0.8026(7) -0.4994(3) 0.2146(3)
C4 C -0.5645(7) -0.4343(3) 0.2612(3)
H2 H -0.4987 -0.3712 0.2422
O1 O -0.3582(5) -0.5760(2) 0.42762(19)
O2 O -1.1229(5) -0.6593(2) 0.2129(2)
C5 C -0.9632(8) -0.4770(3) 0.1323(3)
H3 H -0.8688 -0.4119 0.1187
H4 H -1.1130 -0.4608 0.1494
H5 H -1.0108 -0.5440 0.0758
C6 C -0.1695(7) -0.3712(3) 0.3874(3)
H6 H -0.0628 -0.3665 0.3428
H7 H -0.0838 -0.3958 0.4386
C7 C -0.2067(6) -0.2529(3) 0.4310(2)
O3 O -0.0208(4) -0.16693(19) 0.44464(17)
O4 O -0.4169(4) -0.24994(19) 0.44978(18)
N3 N -0.1015(5) -0.1056(2) 0.8549(2)
C8 C 0.1471(7) -0.0684(3) 0.9055(2)
N4 N 0.2091(5) -0.1144(2) 0.9787(2)
H8 H 0.3651 -0.0916 1.0115
C9 C 0.0465(6) -0.1935(3) 1.0049(2)
C10 C -0.2130(6) -0.2323(3) 0.9474(3)
C11 C -0.2753(6) -0.1863(3) 0.8757(2)
H9 H -0.4426 -0.2100 0.8388
O5 O 0.3052(5) 0.0051(2) 0.88983(18)
O6 O 0.1276(5) -0.2250(2) 1.07471(18)
C12 C -0.4014(7) -0.3157(3) 0.9736(3)
H10 H -0.4221 -0.2792 1.0365
H11 H -0.3415 -0.3825 0.9747
H12 H -0.5615 -0.3389 0.9264
C13 C -0.1813(6) -0.0480(3) 0.7849(2)
H13 H -0.1123 0.0348 0.8153
H14 H -0.3648 -0.0642 0.7698
C14 C -0.1026(6) -0.0823(3) 0.6900(2)
O7 O -0.1339(4) -0.0171(2) 0.63847(17)
O8 O -0.0235(5) -0.1703(2) 0.66922(18)
O9 O -0.3595(4) -0.02078(18) 0.44108(16)
O10 O -0.6396(4) -0.20069(19) 0.59625(18)
H15 H -0.4037 -0.0423 0.3846
H16 H -0.6432 -0.2716 0.5874
H17 H -0.7348 -0.1841 0.6341
Cu2A Cu -0.48361(8) 0.11558(4) 0.48695(3)
N1A N -0.5879(6) 0.4563(2) 0.6640(2)
C1A C -0.5065(7) 0.5507(3) 0.6349(3)
N2A N -0.2624(6) 0.6155(2) 0.6821(2)
H1A H -0.2073 0.6751 0.6651
C2A C -0.0934(7) 0.5960(3) 0.7544(3)
C3A C -0.1974(7) 0.4994(3) 0.7854(3)
C4A C -0.4355(7) 0.4343(3) 0.7388(3)
H2A H -0.5013 0.3712 0.7578
O1A O -0.6418(5) 0.5760(2) 0.57238(19)
O2A O 0.1229(5) 0.6593(2) 0.7871(2)
C5A C -0.0368(8) 0.4770(3) 0.8677(3)
H3A H -0.1312 0.4119 0.8813
H4A H 0.1130 0.4608 0.8506
H5A H 0.0108 0.5440 0.9242
C6A C -0.8305(7) 0.3712(3) 0.6126(3)
H6A H -0.9372 0.3665 0.6572
H7A H -0.9162 0.3958 0.5614
C7A C -0.7933(6) 0.2529(3) 0.5690(2)
O3A O -0.9792(4) 0.16693(19) 0.55536(17)
O4A O -0.5831(4) 0.24994(19) 0.55022(18)
N3A N -0.8985(5) 0.1056(2) 0.1451(2)
C8A C -1.1471(7) 0.0684(3) 0.0945(2)
N4A N -1.2091(5) 0.1144(2) 0.0213(2)
H8A H -1.3651 0.0916 -0.0115
C9A C -1.0465(6) 0.1935(3) -0.0049(2)
C10A C -0.7870(6) 0.2323(3) 0.0526(3)
C11A C -0.7247(6) 0.1863(3) 0.1243(2)
H9A H -0.5574 0.2100 0.1612
O5A O -1.3052(5) -0.0051(2) 0.11017(18)
O6A O -1.1276(5) 0.2250(2) -0.07471(18)
C12A C -0.5986(7) 0.3157(3) 0.0264(3)
H10A H -0.5779 0.2792 -0.0365
H11A H -0.6585 0.3825 0.0253
H12A H -0.4385 0.3389 0.0736
C13A C -0.8187(6) 0.0480(3) 0.2151(2)
H13A H -0.8877 -0.0348 0.1847
H14A H -0.6352 0.0642 0.2302
C14A C -0.8974(6) 0.0823(3) 0.3100(2)
O7A O -0.8661(4) 0.0171(2) 0.36153(17)
O8A O -0.9765(5) 0.1703(2) 0.33078(18)
O9A O -0.6405(4) 0.02078(18) 0.55892(16)
O10A O -0.3604(4) 0.20069(19) 0.40375(18)
H15A H -0.5963 0.0423 0.6154
H16A H -0.3568 0.2716 0.4126
H17A H -0.2652 0.1841 0.3659
Cu1_2 Cu -1.0000 0.0000 0.5000
Cu2_2 Cu 0.48361(8) -0.11558(4) 0.51305(3)
Cu2A_2 Cu -1.48361(8) 0.11558(4) 0.48695(3)
O3_2 O -1.0208(4) -0.16693(19) 0.44464(17)
O3A_2 O 0.0208(4) 0.16693(19) 0.55536(17)
O7A_2 O 0.1339(4) 0.0171(2) 0.36153(17)
O9A_2 O 0.3595(4) 0.02078(18) 0.55892(16)
O11 O 0.4699(6) 0.1459(2) 0.7476(2)
H18 H 0.5458 0.1468 0.8038
H19 H 0.4049 0.2028 0.7557
O12 O -0.0721(7) -0.2307(3) 1.2348(2)
H20 H -0.0010 -0.2204 1.1902
H21 H -0.0101 -0.1687 1.2833
loop_
_geom_bond_atom_site_label_1
_geom_bond_atom_site_label_2
_geom_bond_site_symmetry_1
_geom_bond_site_symmetry_2
Cu1 O3 1_555 1_555
Cu2 O4 1_555 1_555
N1 C1 1_555 1_555
C1 N2 1_555 1_555
N2 H1 1_555 1_555
C2 N2 1_555 1_555
C3 C2 1_555 1_555
C4 N1 1_555 1_555
H2 C4 1_555 1_555
O1 C1 1_555 1_555
O2 C2 1_555 1_555
C5 C3 1_555 1_555
H3 C5 1_555 1_555
H4 C5 1_555 1_555
H5 C5 1_555 1_555
C6 N1 1_555 1_555
H6 C6 1_555 1_555
H7 C6 1_555 1_555
C7 C6 1_555 1_555
O3 C7 1_555 1_555
O4 C7 1_555 1_555
N3 C8 1_555 1_555
C8 N4 1_555 1_555
N4 H8 1_555 1_555
C9 N4 1_555 1_555
C10 C9 1_555 1_555
C11 N3 1_555 1_555
H9 C11 1_555 1_555
O5 C8 1_555 1_555
O6 C9 1_555 1_555
C12 C10 1_555 1_555
H10 C12 1_555 1_555
H11 C12 1_555 1_555
H12 C12 1_555 1_555
C13 N3 1_555 1_555
H13 C13 1_555 1_555
H14 C13 1_555 1_555
C14 C13 1_555 1_555
O7 Cu1 1_555 1_555
O8 C14 1_555 1_555
O9 Cu1 1_555 1_555
O10 Cu2 1_555 1_555
H15 O9 1_555 1_555
H16 O10 1_555 1_555
H17 O10 1_555 1_555
O11 H18 1_555 1_555
H19 O11 1_555 1_555
O12 H20 1_555 1_555
H21 O12 1_555 1_555
Cu2A O9 1_555 1_555
N1A C1A 1_555 1_555
C1A N2A 1_555 1_555
N2A H1A 1_555 1_555
C2A N2A 1_555 1_555
C3A C2A 1_555 1_555
C4A N1A 1_555 1_555
H2A C4A 1_555 1_555
O1A C1A 1_555 1_555
O2A C2A 1_555 1_555
C5A C3A 1_555 1_555
H3A C5A 1_555 1_555
H4A C5A 1_555 1_555
H5A C5A 1_555 1_555
C6A N1A 1_555 1_555
H6A C6A 1_555 1_555
H7A C6A 1_555 1_555
C7A C6A 1_555 1_555
O3A C7A 1_555 1_555
O4A Cu2A 1_555 1_555
N3A C8A 1_555 1_555
C8A N4A 1_555 1_555
N4A H8A 1_555 1_555
C9A N4A 1_555 1_555
C10A C9A 1_555 1_555
C11A N3A 1_555 1_555
H9A C11A 1_555 1_555
O5A C8A 1_555 1_555
O6A C9A 1_555 1_555
C12A C10A 1_555 1_555
H10A C12A 1_555 1_555
H11A C12A 1_555 1_555
H12A C12A 1_555 1_555
C13A N3A 1_555 1_555
H13A C13A 1_555 1_555
H14A C13A 1_555 1_555
C14A C13A 1_555 1_555
O7A Cu2A 1_555 1_555
O8A C14A 1_555 1_555
O9A Cu2 1_555 1_555
O10A Cu2A 1_555 1_555
H15A O9A 1_555 1_555
H16A O10A 1_555 1_555
H17A O10A 1_555 1_555
Cu1_2 O3A 1_555 1_555
Cu2_2 O3 1_555 1_555
Cu2A_2 O3A 1_555 1_555
O3_2 Cu2 1_555 1_555
O3A_2 Cu1 1_555 1_555
O7A_2 Cu1 1_555 1_555
O9A_2 Cu1 1_555 1_555
Cu2 O7 1_555 1_555
Cu2 O9 1_555 1_555
C3 C4 1_555 1_555
C10 C11 1_555 1_555
C14 O7 1_555 1_555
Cu2A O9A 1_555 1_555
Cu2A O3A_2 1_555 1_555
C3A C4A 1_555 1_555
C7A O4A 1_555 1_555
C10A C11A 1_555 1_555
C14A O7A 1_555 1_555
O7A Cu1_2 1_555 1_555
O9A Cu1_2 1_555 1_555
Cu1_2 O3_2 1_555 1_555
Cu2_2 O9A_2 1_555 1_555

#END
