
#######################################################################
#
#                 Cambridge Crystallographic Data Centre
#                                CCDC 
#
#######################################################################
#
# If this CIF has been generated from an entry in the Cambridge 
# Structural Database, then it will include bibliographic, chemical, 
# crystal, experimental, refinement or atomic coordinate data resulting 
# from the CCDC's data processing and validation procedures.
#
#######################################################################

data_BINRAR
_symmetry_cell_setting           triclinic
_symmetry_space_group_name_H-M   'P -1'
_symmetry_Int_Tables_number      2
_space_group_name_Hall           '-P 1'
loop_
_symmetry_equiv_pos_site_id
_symmetry_equiv_pos_as_xyz
1 x,y,z
2 -x,-y,-z
_cell_length_a                   9.586(2)
_cell_length_b                   11.793(2)
_cell_length_c                   12.343(2)
_cell_angle_alpha                104.55(1)
_cell_angle_beta                 107.69(1)
_cell_angle_gamma                97.74(1)
_cell_volume                     1252.59
loop_
_atom_site_label
_atom_site_type_symbol
_atom_site_fract_x
_atom_site_fract_y
_atom_site_fract_z
Hg1 Hg 0.31460 0.17940 0.45550
P1 P 0.28900 0.36370 0.37660
P2 P 0.08700 0.00490 0.34940
N1 N 0.33940 0.29250 0.73670
N2 N 0.64300 0.12720 0.45200
C1 C 0.41650 0.50140 0.48670
C2 C 0.01560 -0.04900 0.45390
C3 C 0.33220 0.25390 0.64150
C4 C 0.52900 0.14290 0.45020
C5 C 0.33690 0.35290 0.24250
C6 C 0.33100 0.23900 0.17120
C7 C 0.36280 0.22600 0.06650
C8 C 0.40060 0.32690 0.03320
C9 C 0.40660 0.44090 0.10450
C10 C 0.37480 0.45380 0.20920
C11 C 0.10350 0.39690 0.34700
C12 C 0.05520 0.47140 0.27880
C13 C -0.08920 0.49130 0.25720
C14 C -0.18530 0.43690 0.30370
C15 C -0.13690 0.36250 0.37190
C16 C 0.00750 0.34250 0.39360
C17 C 0.11860 -0.12720 0.25450
C18 C -0.00550 -0.21520 0.17100
C19 C 0.01490 -0.31320 0.09190
C20 C 0.15930 -0.32320 0.09610
C21 C 0.28340 -0.23520 0.17950
C22 C 0.26300 -0.13730 0.25870
C23 C -0.06830 0.03860 0.24370
C24 C -0.03670 0.07680 0.15400
C25 C -0.14690 0.11040 0.07330
C26 C -0.28870 0.10590 0.08240
C27 C -0.32020 0.06770 0.17210
C28 C -0.21000 0.03400 0.25270
C1A C 0.58350 0.49860 0.51330
C2A C -0.01560 0.04900 0.54610
P1A P 0.71100 0.63630 0.62340
P2A P -0.08700 -0.00490 0.65060
Hg1A Hg 0.68540 0.82060 0.54450
C5A C 0.66310 0.64710 0.75750
C11A C 0.89650 0.60310 0.65300
Hg1A_2 Hg -0.31460 -0.17940 0.54450
C17A C -0.11860 0.12720 0.74550
C23A C 0.06830 -0.03860 0.75630
P2A_2 P 0.91300 0.99510 0.65060
C3A C 0.66780 0.74610 0.35850
C4A C 0.47100 0.85710 0.54980
C6A C 0.66900 0.76100 0.82880
C10A C 0.62520 0.54620 0.79080
C12A C 0.94480 0.52860 0.72120
C16A C 0.99250 0.65750 0.60640
C18A C 0.00550 0.21520 0.82900
C22A C -0.26300 0.13730 0.74130
C24A C 0.03670 -0.07680 0.84600
C28A C 0.21000 -0.03400 0.74730
N1A N 0.66060 0.70750 0.26330
N2A N 0.35700 0.87280 0.54800
C7A C 0.63720 0.77400 0.93350
C9A C 0.59340 0.55910 0.89550
C13A C 1.08920 0.50870 0.74280
C15A C 1.13690 0.63750 0.62810
C19A C -0.01490 0.31320 0.90810
C21A C -0.28340 0.23520 0.82050
C25A C 0.14690 -0.11040 0.92670
C27A C 0.32020 -0.06770 0.82790
C8A C 0.59940 0.67310 0.96680
C14A C 1.18530 0.56310 0.69630
C20A C -0.15930 0.32320 0.90390
C26A C 0.28870 -0.10590 0.91760
loop_
_geom_bond_atom_site_label_1
_geom_bond_atom_site_label_2
_geom_bond_site_symmetry_1
_geom_bond_site_symmetry_2
Hg1 P1 1_555 1_555
P1 C1 1_555 1_555
P2 Hg1 1_555 1_555
N1 C3 1_555 1_555
N2 C4 1_555 1_555
C1 C1A 1_555 1_555
C2 P2 1_555 1_555
C3 Hg1 1_555 1_555
C4 Hg1 1_555 1_555
C5 P1 1_555 1_555
C6 C5 1_555 1_555
C7 C6 1_555 1_555
C8 C7 1_555 1_555
C9 C8 1_555 1_555
C10 C5 1_555 1_555
C11 P1 1_555 1_555
C12 C11 1_555 1_555
C13 C12 1_555 1_555
C14 C13 1_555 1_555
C15 C14 1_555 1_555
C16 C11 1_555 1_555
C17 P2 1_555 1_555
C18 C17 1_555 1_555
C19 C18 1_555 1_555
C20 C19 1_555 1_555
C21 C20 1_555 1_555
C22 C17 1_555 1_555
C23 P2 1_555 1_555
C24 C23 1_555 1_555
C25 C24 1_555 1_555
C26 C25 1_555 1_555
C27 C26 1_555 1_555
C28 C23 1_555 1_555
C1A P1A 1_555 1_555
C2A C2 1_555 1_555
P1A Hg1A 1_555 1_555
P2A C2A 1_555 1_555
Hg1A P2A_2 1_555 1_555
C5A P1A 1_555 1_555
C11A P1A 1_555 1_555
Hg1A_2 P2A 1_555 1_555
C17A P2A 1_555 1_555
C23A P2A 1_555 1_555
C3A Hg1A 1_555 1_555
C4A Hg1A 1_555 1_555
C6A C5A 1_555 1_555
C10A C5A 1_555 1_555
C12A C11A 1_555 1_555
C16A C11A 1_555 1_555
C18A C17A 1_555 1_555
C22A C17A 1_555 1_555
C24A C23A 1_555 1_555
C28A C23A 1_555 1_555
N1A C3A 1_555 1_555
N2A C4A 1_555 1_555
C7A C6A 1_555 1_555
C9A C10A 1_555 1_555
C13A C12A 1_555 1_555
C15A C16A 1_555 1_555
C19A C18A 1_555 1_555
C21A C22A 1_555 1_555
C25A C24A 1_555 1_555
C27A C28A 1_555 1_555
C8A C7A 1_555 1_555
C14A C13A 1_555 1_555
C20A C19A 1_555 1_555
C26A C25A 1_555 1_555
C9 C10 1_555 1_555
C15 C16 1_555 1_555
C21 C22 1_555 1_555
C27 C28 1_555 1_555
C9A C8A 1_555 1_555
C15A C14A 1_555 1_555
C21A C20A 1_555 1_555
C27A C26A 1_555 1_555

#END
