
#######################################################################
#
#                 Cambridge Crystallographic Data Centre
#                                CCDC 
#
#######################################################################
#
# If this CIF has been generated from an entry in the Cambridge 
# Structural Database, then it will include bibliographic, chemical, 
# crystal, experimental, refinement or atomic coordinate data resulting 
# from the CCDC's data processing and validation procedures.
#
#######################################################################

data_BINSAU
_symmetry_cell_setting           cubic
_symmetry_space_group_name_H-M   'P n -3 n'
_symmetry_Int_Tables_number      222
_space_group_name_Hall           '-P 4a 2bc 3'
loop_
_symmetry_equiv_pos_site_id
_symmetry_equiv_pos_as_xyz
1 x,y,z
2 1/2-x,1/2-y,z
3 1/2-x,y,1/2-z
4 x,1/2-y,1/2-z
5 z,x,y
6 z,1/2-x,1/2-y
7 1/2-z,1/2-x,y
8 1/2-z,x,1/2-y
9 y,z,x
10 1/2-y,z,1/2-x
11 y,1/2-z,1/2-x
12 1/2-y,1/2-z,x
13 y,x,1/2-z
14 1/2-y,1/2-x,1/2-z
15 y,1/2-x,z
16 1/2-y,x,z
17 x,z,1/2-y
18 1/2-x,z,y
19 1/2-x,1/2-z,1/2-y
20 x,1/2-z,y
21 z,y,1/2-x
22 z,1/2-y,x
23 1/2-z,y,x
24 1/2-z,1/2-y,1/2-x
25 -x,-y,-z
26 1/2+x,1/2+y,-z
27 1/2+x,-y,1/2+z
28 -x,1/2+y,1/2+z
29 -z,-x,-y
30 -z,1/2+x,1/2+y
31 1/2+z,1/2+x,-y
32 1/2+z,-x,1/2+y
33 -y,-z,-x
34 1/2+y,-z,1/2+x
35 -y,1/2+z,1/2+x
36 1/2+y,1/2+z,-x
37 -y,-x,1/2+z
38 1/2+y,1/2+x,1/2+z
39 -y,1/2+x,-z
40 1/2+y,-x,-z
41 -x,-z,1/2+y
42 1/2+x,-z,-y
43 1/2+x,1/2+z,1/2+y
44 -x,1/2+z,-y
45 -z,-y,1/2+x
46 -z,1/2+y,-x
47 1/2+z,-y,-x
48 1/2+z,1/2+y,1/2+x
_cell_length_a                   33.5118(18)
_cell_length_b                   33.5118(18)
_cell_length_c                   33.5118(18)
_cell_angle_alpha                90
_cell_angle_beta                 90
_cell_angle_gamma                90
_cell_volume                     37635.1
loop_
_atom_site_label
_atom_site_type_symbol
_atom_site_fract_x
_atom_site_fract_y
_atom_site_fract_z
Mn1 Mn 0.7500 1.048937(19) 0.2500
O1 O 0.71536(6) 0.95756(8) 0.19818(6)
O2 O 0.71713(6) 1.02369(8) 0.20009(6)
C1 C 0.70634(10) 0.99113(12) 0.18503(10)
C2 C 0.67901(9) 0.99373(10) 0.14973(9)
C3 C 0.66640(8) 0.96006(10) 0.13254(9)
H1 H 0.6745 0.9354 0.1431
C4 C 0.64109(8) 0.96086(9) 0.09866(8)
C5 C 0.62616(9) 0.92531(10) 0.08060(9)
H2 H 0.6338 0.9004 0.0910
C6 C 0.60047(10) 0.92646(10) 0.04788(10)
H3 H 0.5909 0.9027 0.0364
C7 C 0.58903(8) 0.96397(8) 0.03217(8)
C8 C 0.60266(9) 0.99838(9) 0.04983(9)
H4 H 0.5943 1.0231 0.0395
C9 C 0.62900(8) 0.99788(9) 0.08328(8)
C10 C 0.64415(10) 1.03249(10) 0.10056(10)
H5 H 0.6382 1.0574 0.0892
C11 C 0.66767(9) 1.03055(11) 0.13405(10)
H6 H 0.6762 1.0542 0.1465
C12 C 0.56006(8) 0.96627(8) -0.00077(8)
C13 C 0.52891(10) 0.93800(9) -0.00396(9)
H7 H 0.5274 0.9172 0.0148
O3 O 0.7500 1.11152(12) 0.2500
O1F O 0.30182(6) 0.78464(6) -0.04244(8)
O2F O 0.29991(6) 0.78287(6) 0.02369(8)
C1F C 0.31497(10) 0.79366(10) -0.00887(12)
C2F C 0.35027(9) 0.82099(9) -0.00627(10)
C3F C 0.36746(9) 0.83360(8) -0.03994(10)
H1F H 0.3569 0.8255 -0.0646
C4F C 0.40134(8) 0.85891(8) -0.03914(9)
C5F C 0.41940(9) 0.87384(9) -0.07469(10)
H2F H 0.4090 0.8662 -0.0996
C6F C 0.45212(10) 0.89953(10) -0.07354(10)
H3F H 0.4636 0.9091 -0.0973
C7F C 0.46783(8) 0.91097(8) -0.03603(8)
C8F C 0.45017(9) 0.89734(9) -0.00162(9)
H4F H 0.4605 0.9057 0.0231
C9F C 0.41672(8) 0.87100(8) -0.00212(9)
C10F C 0.39944(10) 0.85585(10) 0.03249(10)
H5F H 0.4108 0.8618 0.0574
C11F C 0.36595(10) 0.83233(9) 0.03055(11)
H6F H 0.3535 0.8238 0.0542
C12F C 0.50077(8) 0.93994(8) -0.03373(8)
C13F C 0.50396(9) 0.97109(10) -0.06200(9)
H7F H 0.4852 0.9726 -0.0828
O1I O 0.54244(8) 1.19818(6) -0.21536(6)
O2I O 0.47631(8) 1.20009(6) -0.21713(6)
C1I C 0.50887(12) 1.18503(10) -0.20634(10)
C2I C 0.50627(10) 1.14973(9) -0.17901(9)
C3I C 0.53994(10) 1.13254(9) -0.16640(8)
H1I H 0.5646 1.1431 -0.1745
C4I C 0.53914(9) 1.09866(8) -0.14109(8)
C5I C 0.57469(10) 1.08060(9) -0.12616(9)
H2I H 0.5996 1.0910 -0.1338
C6I C 0.57354(10) 1.04788(10) -0.10047(10)
H3I H 0.5973 1.0364 -0.0909
C7I C 0.53603(8) 1.03217(8) -0.08903(8)
C8I C 0.50162(9) 1.04983(9) -0.10266(9)
H4I H 0.4769 1.0395 -0.0943
C9I C 0.50212(9) 1.08328(8) -0.12900(8)
C10I C 0.46751(10) 1.10056(10) -0.14415(10)
H5I H 0.4426 1.0892 -0.1382
C11I C 0.46945(11) 1.13405(10) -0.16767(9)
H6I H 0.4458 1.1465 -0.1762
C12I C 0.53373(8) 0.99923(8) -0.06006(8)
C13I C 0.56200(9) 0.99604(9) -0.02891(10)
H7I H 0.5828 1.0148 -0.0274
O1B O 0.78464(6) 0.95756(8) 0.30182(6)
O2B O 0.78287(6) 1.02369(8) 0.29991(6)
C1B C 0.79366(10) 0.99113(12) 0.31497(10)
C2B C 0.82099(9) 0.99373(10) 0.35027(9)
C3B C 0.83360(8) 0.96006(10) 0.36746(9)
H1B H 0.8255 0.9354 0.3569
C4B C 0.85891(8) 0.96086(9) 0.40134(8)
C5B C 0.87384(9) 0.92531(10) 0.41940(9)
H2B H 0.8662 0.9004 0.4090
C6B C 0.89953(10) 0.92646(10) 0.45212(10)
H3B H 0.9091 0.9027 0.4636
C7B C 0.91097(8) 0.96397(8) 0.46783(8)
C8B C 0.89734(9) 0.99838(9) 0.45017(9)
H4B H 0.9057 1.0231 0.4605
C9B C 0.87100(8) 0.99788(9) 0.41672(8)
C10B C 0.85585(10) 1.03249(10) 0.39944(10)
H5B H 0.8618 1.0574 0.4108
C11B C 0.83233(9) 1.03055(11) 0.36595(10)
H6B H 0.8238 1.0542 0.3535
C12B C 0.93994(8) 0.96627(8) 0.50077(8)
C13B C 0.97109(10) 0.93800(9) 0.50396(9)
H7B H 0.9726 0.9172 0.4852
O1E O 1.19818(6) 0.78464(6) 0.54244(8)
O2E O 1.20009(6) 0.78287(6) 0.47631(8)
C1E C 1.18503(10) 0.79366(10) 0.50887(12)
C2E C 1.14973(9) 0.82099(9) 0.50627(10)
C3E C 1.13254(9) 0.83360(8) 0.53994(10)
H1E H 1.1431 0.8255 0.5646
C4E C 1.09866(8) 0.85891(8) 0.53914(9)
C5E C 1.08060(9) 0.87384(9) 0.57469(10)
H2E H 1.0910 0.8662 0.5996
C6E C 1.04788(10) 0.89953(10) 0.57354(10)
H3E H 1.0364 0.9091 0.5973
C7E C 1.03217(8) 0.91097(8) 0.53603(8)
C8E C 1.04983(9) 0.89734(9) 0.50162(9)
H4E H 1.0395 0.9057 0.4769
C9E C 1.08328(8) 0.87100(8) 0.50212(9)
C10E C 1.10056(10) 0.85585(10) 0.46751(10)
H5E H 1.0892 0.8618 0.4426
C11E C 1.13405(10) 0.83233(9) 0.46945(11)
H6E H 1.1465 0.8238 0.4458
C12E C 0.99923(8) 0.93994(8) 0.53373(8)
C13E C 0.99604(9) 0.97109(10) 0.56200(9)
H7E H 1.0148 0.9726 0.5828
O1H O 0.95756(8) 1.19818(6) 0.71536(6)
O2H O 1.02369(8) 1.20009(6) 0.71713(6)
C1H C 0.99113(12) 1.18503(10) 0.70634(10)
C2H C 0.99373(10) 1.14973(9) 0.67901(9)
C3H C 0.96006(10) 1.13254(9) 0.66640(8)
H1H H 0.9354 1.1431 0.6745
C4H C 0.96086(9) 1.09866(8) 0.64109(8)
C5H C 0.92531(10) 1.08060(9) 0.62616(9)
H2H H 0.9004 1.0910 0.6338
C6H C 0.92646(10) 1.04788(10) 0.60047(10)
H3H H 0.9027 1.0364 0.5909
C7H C 0.96397(8) 1.03217(8) 0.58903(8)
C8H C 0.99838(9) 1.04983(9) 0.60266(9)
H4H H 1.0231 1.0395 0.5943
C9H C 0.99788(9) 1.08328(8) 0.62900(8)
C10H C 1.03249(10) 1.10056(10) 0.64415(10)
H5H H 1.0574 1.0892 0.6382
C11H C 1.03055(11) 1.13405(10) 0.66767(9)
H6H H 1.0542 1.1465 0.6762
C12H C 0.96627(8) 0.99923(8) 0.56006(8)
C13H C 0.93800(9) 0.99604(9) 0.52891(10)
H7H H 0.9172 1.0148 0.5274
Mn1RA Mn 0.7500 0.951063(19) 0.2500
O3RA O 0.7500 0.88848(12) 0.2500
Mn1OA Mn 0.2500 0.7500 -0.048937(19)
O3OA O 0.2500 0.7500 -0.11152(12)
Mn1D Mn 0.2500 0.7500 0.048937(19)
Mn1E Mn 1.2500 0.7500 0.451063(19)
Mn1H Mn 1.048937(19) 1.2500 0.7500
Mn1I Mn 0.451063(19) 1.2500 -0.2500
Mn1JA Mn 0.951063(19) 1.2500 0.7500
Mn1KA Mn 0.548937(19) 1.2500 -0.2500
Mn1NA Mn 1.2500 0.7500 0.548937(19)
O1D O 0.19818(6) 0.71536(6) -0.04244(8)
O1RA O 0.80182(6) 1.04244(8) 0.21536(6)
O1TA O 0.69818(6) 1.04244(8) 0.28464(6)
O2OA O 0.21713(6) 0.79991(6) -0.02369(8)
O2QA O 0.28287(6) 0.70009(6) -0.02369(8)
O2RA O 0.79991(6) 0.97631(8) 0.21713(6)
O2TA O 0.70009(6) 0.97631(8) 0.28287(6)
loop_
_geom_bond_atom_site_label_1
_geom_bond_atom_site_label_2
_geom_bond_site_symmetry_1
_geom_bond_site_symmetry_2
Mn1 O2 1_555 1_555
O1 C1 1_555 1_555
O2 C1 1_555 1_555
C1 C2 1_555 1_555
C2 C3 1_555 1_555
C3 H1 1_555 1_555
C4 C3 1_555 1_555
C5 C4 1_555 1_555
H2 C5 1_555 1_555
C6 C5 1_555 1_555
H3 C6 1_555 1_555
C7 C6 1_555 1_555
C8 C7 1_555 1_555
H4 C8 1_555 1_555
C9 C4 1_555 1_555
C10 C9 1_555 1_555
H5 C10 1_555 1_555
C11 C2 1_555 1_555
H6 C11 1_555 1_555
C12 C7 1_555 1_555
C13 C12 1_555 1_555
H7 C13 1_555 1_555
O3 Mn1 1_555 1_555
O1F C1F 1_555 1_555
O2F C1F 1_555 1_555
C1F C2F 1_555 1_555
C2F C3F 1_555 1_555
C3F H1F 1_555 1_555
C4F C3F 1_555 1_555
C5F C4F 1_555 1_555
H2F C5F 1_555 1_555
C6F C5F 1_555 1_555
H3F C6F 1_555 1_555
C7F C6F 1_555 1_555
C8F C7F 1_555 1_555
H4F C8F 1_555 1_555
C9F C4F 1_555 1_555
C10F C9F 1_555 1_555
H5F C10F 1_555 1_555
C11F C2F 1_555 1_555
H6F C11F 1_555 1_555
C12F C13 1_555 1_555
C13F C12F 1_555 1_555
H7F C13F 1_555 1_555
O1I C1I 1_555 1_555
O2I C1I 1_555 1_555
C1I C2I 1_555 1_555
C2I C3I 1_555 1_555
C3I H1I 1_555 1_555
C4I C3I 1_555 1_555
C5I C4I 1_555 1_555
H2I C5I 1_555 1_555
C6I C5I 1_555 1_555
H3I C6I 1_555 1_555
C7I C6I 1_555 1_555
C8I C7I 1_555 1_555
H4I C8I 1_555 1_555
C9I C4I 1_555 1_555
C10I C9I 1_555 1_555
H5I C10I 1_555 1_555
C11I C2I 1_555 1_555
H6I C11I 1_555 1_555
C12I C13F 1_555 1_555
C13I C12 1_555 1_555
H7I C13I 1_555 1_555
O1B C1B 1_555 1_555
O2B Mn1 1_555 1_555
C1B O2B 1_555 1_555
C2B C1B 1_555 1_555
C3B C2B 1_555 1_555
H1B C3B 1_555 1_555
C4B C3B 1_555 1_555
C5B C4B 1_555 1_555
H2B C5B 1_555 1_555
C6B C5B 1_555 1_555
H3B C6B 1_555 1_555
C7B C6B 1_555 1_555
C8B C7B 1_555 1_555
H4B C8B 1_555 1_555
C9B C4B 1_555 1_555
C10B C9B 1_555 1_555
H5B C10B 1_555 1_555
C11B C2B 1_555 1_555
H6B C11B 1_555 1_555
C12B C7B 1_555 1_555
C13B C12B 1_555 1_555
H7B C13B 1_555 1_555
O1E C1E 1_555 1_555
O2E C1E 1_555 1_555
C1E C2E 1_555 1_555
C2E C3E 1_555 1_555
C3E H1E 1_555 1_555
C4E C3E 1_555 1_555
C5E C4E 1_555 1_555
H2E C5E 1_555 1_555
C6E C5E 1_555 1_555
H3E C6E 1_555 1_555
C7E C6E 1_555 1_555
C8E C7E 1_555 1_555
H4E C8E 1_555 1_555
C9E C4E 1_555 1_555
C10E C9E 1_555 1_555
H5E C10E 1_555 1_555
C11E C2E 1_555 1_555
H6E C11E 1_555 1_555
C12E C13B 1_555 1_555
C13E C12E 1_555 1_555
H7E C13E 1_555 1_555
O1H C1H 1_555 1_555
O2H C1H 1_555 1_555
C1H C2H 1_555 1_555
C2H C3H 1_555 1_555
C3H H1H 1_555 1_555
C4H C3H 1_555 1_555
C5H C4H 1_555 1_555
H2H C5H 1_555 1_555
C6H C5H 1_555 1_555
H3H C6H 1_555 1_555
C7H C6H 1_555 1_555
C8H C7H 1_555 1_555
H4H C8H 1_555 1_555
C9H C4H 1_555 1_555
C10H C9H 1_555 1_555
H5H C10H 1_555 1_555
C11H C2H 1_555 1_555
H6H C11H 1_555 1_555
C12H C13E 1_555 1_555
C13H C12B 1_555 1_555
H7H C13H 1_555 1_555
Mn1RA O1 1_555 1_555
O3RA Mn1RA 1_555 1_555
Mn1OA O1F 1_555 1_555
O3OA Mn1OA 1_555 1_555
Mn1D O2F 1_555 1_555
Mn1E O2E 1_555 1_555
Mn1H O2H 1_555 1_555
Mn1I O2I 1_555 1_555
Mn1JA O1H 1_555 1_555
Mn1KA O1I 1_555 1_555
Mn1NA O1E 1_555 1_555
O1D Mn1OA 1_555 1_555
O1RA Mn1 1_555 1_555
O1TA Mn1 1_555 1_555
O2OA Mn1OA 1_555 1_555
O2QA Mn1OA 1_555 1_555
O2RA Mn1RA 1_555 1_555
O2TA Mn1RA 1_555 1_555
C8 C9 1_555 1_555
C10 C11 1_555 1_555
C7F C12F 1_555 1_555
C8F C9F 1_555 1_555
C10F C11F 1_555 1_555
C7I C12I 1_555 1_555
C8I C9I 1_555 1_555
C10I C11I 1_555 1_555
C12I C13I 1_555 1_555
O1B Mn1RA 1_555 1_555
C8B C9B 1_555 1_555
C10B C11B 1_555 1_555
C7E C12E 1_555 1_555
C8E C9E 1_555 1_555
C10E C11E 1_555 1_555
C7H C12H 1_555 1_555
C8H C9H 1_555 1_555
C10H C11H 1_555 1_555
C12H C13H 1_555 1_555

#END
