
#######################################################################
#
#                 Cambridge Crystallographic Data Centre
#                                CCDC 
#
#######################################################################
#
# If this CIF has been generated from an entry in the Cambridge 
# Structural Database, then it will include bibliographic, chemical, 
# crystal, experimental, refinement or atomic coordinate data resulting 
# from the CCDC's data processing and validation procedures.
#
#######################################################################

data_BINTID
_symmetry_cell_setting           monoclinic
_symmetry_space_group_name_H-M   'P 21/c'
_symmetry_Int_Tables_number      14
_space_group_name_Hall           '-P 2ybc'
loop_
_symmetry_equiv_pos_site_id
_symmetry_equiv_pos_as_xyz
1 x,y,z
2 -x,1/2+y,1/2-z
3 -x,-y,-z
4 x,1/2-y,1/2+z
_cell_length_a                   7.3452(2)
_cell_length_b                   13.6255(4)
_cell_length_c                   16.7375(5)
_cell_angle_alpha                90
_cell_angle_beta                 90.770(2)
_cell_angle_gamma                90
_cell_volume                     1674.97
loop_
_atom_site_label
_atom_site_type_symbol
_atom_site_fract_x
_atom_site_fract_y
_atom_site_fract_z
C1 C 0.5915(5) 0.1894(3) 0.3547(2)
H1 H 0.7071 0.1632 0.3476
C2 C 0.4508(5) 0.1598(3) 0.3047(2)
H2 H 0.4706 0.1139 0.2647
C3 C 0.2810(5) 0.1995(3) 0.3154(2)
H3 H 0.1853 0.1810 0.2817
C4 C 0.2508(4) 0.2668(2) 0.37573(18)
C5 C 0.3981(4) 0.2932(2) 0.42307(19)
C6 C 0.3891(4) 0.3661(3) 0.4904(2)
C7 C 0.0600(4) 0.3064(3) 0.38828(19)
C8 C 0.9197(11) 0.3484(4) 0.6407(4)
H4 H 0.8264 0.3742 0.6754
H5 H 1.0364 0.3702 0.6619
C9 C 0.9141(12) 0.2362(4) 0.6451(4)
H6 H 1.0331 0.2111 0.6312
H7 H 0.8917 0.2173 0.7000
C10 C 0.6142(9) 0.1685(5) 0.6378(4)
H8 H 0.5612 0.2302 0.6546
H9 H 0.6455 0.1316 0.6856
C11 C 0.4756(10) 0.1131(7) 0.5924(5)
H10 H 0.5253 0.0513 0.5761
H11 H 0.4391 0.1501 0.5460
H12 H 0.3718 0.1020 0.6255
C12 C 0.8712(7) 0.1008(4) 0.5680(3)
H13 H 0.9790 0.1200 0.5390
H14 H 0.7904 0.0677 0.5304
C13 C 0.9284(10) 0.0269(5) 0.6323(4)
H15 H 0.8229 0.0055 0.6607
H16 H 1.0127 0.0575 0.6690
H17 H 0.9855 -0.0285 0.6077
N1 N 0.5658(3) 0.2543(2) 0.41266(16)
N2 N 0.8947(4) 0.3897(2) 0.56503(18)
H18 H 1.0044 0.4002 0.5433
H19 H 0.8394 0.4482 0.5702
N3 N 0.7808(5) 0.1894(3) 0.5950(2)
O1 O 0.5320(3) 0.3736(2) 0.53342(15)
O2 O 0.2488(3) 0.4133(2) 0.50088(16)
O3 O 0.0087(4) 0.3778(2) 0.34910(19)
O4 O -0.0328(3) 0.25736(18) 0.43693(15)
Cu1 Cu 0.74805(5) 0.30664(3) 0.49173(2)
O4_2 O 0.9672(3) 0.25736(18) 0.43693(15)
Cu1_2 Cu -0.25195(5) 0.30664(3) 0.49173(2)
O5 O 0.3087(7) 0.4830(5) 0.2756(4)
H20 H 0.218(7) 0.460(8) 0.297(5)
H21 H 0.402(7) 0.469(8) 0.304(5)
O6 O 0.6651(5) 0.4815(3) 0.3444(2)
H22 H 0.757(6) 0.449(5) 0.340(4)
H23 H 0.667(9) 0.517(4) 0.384(3)
loop_
_geom_bond_atom_site_label_1
_geom_bond_atom_site_label_2
_geom_bond_site_symmetry_1
_geom_bond_site_symmetry_2
C1 H1 1_555 1_555
C2 C1 1_555 1_555
H2 C2 1_555 1_555
C3 C2 1_555 1_555
H3 C3 1_555 1_555
C4 C3 1_555 1_555
C5 C4 1_555 1_555
C6 C5 1_555 1_555
C7 C4 1_555 1_555
C8 H4 1_555 1_555
H5 C8 1_555 1_555
C9 C8 1_555 1_555
H6 C9 1_555 1_555
H7 C9 1_555 1_555
C10 H8 1_555 1_555
H9 C10 1_555 1_555
C11 C10 1_555 1_555
H10 C11 1_555 1_555
H11 C11 1_555 1_555
H12 C11 1_555 1_555
C12 H13 1_555 1_555
H14 C12 1_555 1_555
C13 C12 1_555 1_555
H15 C13 1_555 1_555
H16 C13 1_555 1_555
H17 C13 1_555 1_555
N1 C1 1_555 1_555
N2 C8 1_555 1_555
H18 N2 1_555 1_555
H19 N2 1_555 1_555
N3 C9 1_555 1_555
O1 C6 1_555 1_555
O2 C6 1_555 1_555
O3 C7 1_555 1_555
O4 C7 1_555 1_555
Cu1 N1 1_555 1_555
O5 H20 1_555 1_555
H21 O5 1_555 1_555
O6 H22 1_555 1_555
H23 O6 1_555 1_555
O4_2 Cu1 1_555 1_555
Cu1_2 O4 1_555 1_555
C5 N1 1_555 1_555
C10 N3 1_555 1_555
C12 N3 1_555 1_555
N2 Cu1 1_555 1_555
N3 Cu1 1_555 1_555
O1 Cu1 1_555 1_555

#END
