
#######################################################################
#
#                 Cambridge Crystallographic Data Centre
#                                CCDC 
#
#######################################################################
#
# If this CIF has been generated from an entry in the Cambridge 
# Structural Database, then it will include bibliographic, chemical, 
# crystal, experimental, refinement or atomic coordinate data resulting 
# from the CCDC's data processing and validation procedures.
#
#######################################################################

data_BINTOJ
_symmetry_cell_setting           triclinic
_symmetry_space_group_name_H-M   'P -1'
_symmetry_Int_Tables_number      2
_space_group_name_Hall           '-P 1'
loop_
_symmetry_equiv_pos_site_id
_symmetry_equiv_pos_as_xyz
1 x,y,z
2 -x,-y,-z
_cell_length_a                   6.5531(4)
_cell_length_b                   8.1689(5)
_cell_length_c                   12.1297(7)
_cell_angle_alpha                100.011(5)
_cell_angle_beta                 103.989(4)
_cell_angle_gamma                101.064(5)
_cell_volume                     601.592
loop_
_atom_site_label
_atom_site_type_symbol
_atom_site_fract_x
_atom_site_fract_y
_atom_site_fract_z
C1 C 0.1648(3) 0.1885(3) 0.97603(19)
H1 H 0.0802 0.1517 1.0227
C2 C 0.2820(3) 0.0819(3) 0.9325(2)
H2 H 0.2773 -0.0253 0.9493
C3 C 0.4058(3) 0.1397(3) 0.86356(18)
H3 H 0.4885 0.0714 0.8349
C4 C 0.4093(3) 0.2979(3) 0.83622(16)
C5 C 0.2899(3) 0.3992(3) 0.88492(16)
C6 C 0.2816(3) 0.5784(3) 0.87095(17)
C7 C 0.5328(3) 0.3454(3) 0.75030(18)
C8 C 0.1127(4) 0.2009(4) 0.3502(3)
H4 H -0.0252 0.1731 0.2904
H5 H 0.0870 0.1604 0.4174
C9 C 0.2670(4) 0.1101(4) 0.3044(2)
H6 H 0.1997 -0.0118 0.2783
H7 H 0.2930 0.1515 0.2376
C10 C 0.4817(5) 0.1379(4) 0.3955(2)
H8 H 0.4548 0.1122 0.4666
H9 H 0.5617 0.0593 0.3677
N1 N 0.1703(2) 0.3407(3) 0.95290(15)
N2 N 0.1990(3) 0.3863(3) 0.3837(2)
H10 H 0.1025 0.4311 0.4127
H11 H 0.1989 0.4215 0.3173
N3 N 0.6143(3) 0.3142(3) 0.42207(17)
H12 H 0.6322 0.3380 0.3548
H13 H 0.7462 0.3185 0.4682
O1 O 0.1577(2) 0.6465(2) 0.92147(14)
O2 O 0.3940(3) 0.6502(2) 0.81738(15)
O3 O 0.4198(2) 0.3347(2) 0.64961(13)
O4 O 0.7354(2) 0.3807(3) 0.78595(15)
Cu1 Cu 0.0000 0.5000 1.0000
Cu2 Cu 0.5000 0.5000 0.5000
C1A C -0.1648(3) 0.8115(3) 1.02397(19)
H1A H -0.0802 0.8483 0.9773
C2A C -0.2820(3) 0.9181(3) 1.0675(2)
H2A H -0.2773 1.0253 1.0507
C3A C -0.4058(3) 0.8603(3) 1.13644(18)
H3A H -0.4885 0.9286 1.1651
C4A C -0.4093(3) 0.7021(3) 1.16378(16)
C5A C -0.2899(3) 0.6008(3) 1.11508(16)
C6A C -0.2816(3) 0.4216(3) 1.12905(17)
C7A C -0.5328(3) 0.6546(3) 1.24970(18)
N1A N -0.1703(2) 0.6593(3) 1.04710(15)
O1A O -0.1577(2) 0.3535(2) 1.07853(14)
O2A O -0.3940(3) 0.3498(2) 1.18262(15)
O3A O -0.4198(2) 0.6653(2) 1.35039(13)
O4A O -0.7354(2) 0.6193(3) 1.21405(15)
C8A C 0.8873(4) 0.7991(4) 0.6498(3)
H4A H 1.0252 0.8269 0.7096
H5A H 0.9130 0.8396 0.5826
C9A C 0.7330(4) 0.8899(4) 0.6956(2)
H6A H 0.8003 1.0118 0.7217
H7A H 0.7070 0.8485 0.7624
C10A C 0.5183(5) 0.8621(4) 0.6045(2)
H8A H 0.5452 0.8878 0.5334
H9A H 0.4383 0.9407 0.6323
N2A N 0.8010(3) 0.6137(3) 0.6163(2)
H10A H 0.8975 0.5689 0.5873
H11A H 0.8011 0.5785 0.6827
N3A N 0.3857(3) 0.6858(3) 0.57793(17)
H12A H 0.3678 0.6620 0.6452
H13A H 0.2538 0.6815 0.5318
O3A_2 O 0.5802(2) 0.6653(2) 0.35039(13)
O4_2 O -0.2646(2) 0.3807(3) 0.78595(15)
O4A_2 O 0.2646(2) 0.6193(3) 1.21405(15)
Cu1_2 Cu -1.0000 0.5000 1.0000
Cu1_3 Cu 1.0000 0.5000 1.0000
Cu2_2 Cu -0.5000 0.5000 1.5000
O5 O 0.9768(3) 0.2943(4) 0.60857(17)
H14 H 1.1104(17) 0.317(6) 0.628(3)
H15 H 0.933(5) 0.306(6) 0.667(2)
loop_
_geom_bond_atom_site_label_1
_geom_bond_atom_site_label_2
_geom_bond_site_symmetry_1
_geom_bond_site_symmetry_2
C1 H1 1_555 1_555
C2 C1 1_555 1_555
H2 C2 1_555 1_555
C3 C2 1_555 1_555
H3 C3 1_555 1_555
C4 C3 1_555 1_555
C5 C4 1_555 1_555
C6 C5 1_555 1_555
C7 C4 1_555 1_555
C8 H4 1_555 1_555
H5 C8 1_555 1_555
C9 C8 1_555 1_555
H6 C9 1_555 1_555
H7 C9 1_555 1_555
C10 C9 1_555 1_555
H8 C10 1_555 1_555
H9 C10 1_555 1_555
N1 C1 1_555 1_555
N2 C8 1_555 1_555
H10 N2 1_555 1_555
H11 N2 1_555 1_555
N3 C10 1_555 1_555
H12 N3 1_555 1_555
H13 N3 1_555 1_555
O1 C6 1_555 1_555
O2 C6 1_555 1_555
O3 C7 1_555 1_555
O4 C7 1_555 1_555
Cu1 N1 1_555 1_555
Cu2 N2 1_555 1_555
O5 H14 1_555 1_555
H15 O5 1_555 1_555
C1A H1A 1_555 1_555
C2A C1A 1_555 1_555
H2A C2A 1_555 1_555
C3A C2A 1_555 1_555
H3A C3A 1_555 1_555
C4A C3A 1_555 1_555
C5A C4A 1_555 1_555
C6A C5A 1_555 1_555
C7A C4A 1_555 1_555
N1A Cu1 1_555 1_555
O1A Cu1 1_555 1_555
O2A C6A 1_555 1_555
O3A C7A 1_555 1_555
O4A C7A 1_555 1_555
C8A H4A 1_555 1_555
H5A C8A 1_555 1_555
C9A C8A 1_555 1_555
H6A C9A 1_555 1_555
H7A C9A 1_555 1_555
C10A C9A 1_555 1_555
H8A C10A 1_555 1_555
H9A C10A 1_555 1_555
N2A Cu2 1_555 1_555
H10A N2A 1_555 1_555
H11A N2A 1_555 1_555
N3A Cu2 1_555 1_555
H12A N3A 1_555 1_555
H13A N3A 1_555 1_555
O3A_2 Cu2 1_555 1_555
O4_2 Cu1 1_555 1_555
O4A_2 Cu1 1_555 1_555
Cu1_2 O4A 1_555 1_555
Cu1_3 O4 1_555 1_555
Cu2_2 O3A 1_555 1_555
C5 N1 1_555 1_555
N3 Cu2 1_555 1_555
O1 Cu1 1_555 1_555
O3 Cu2 1_555 1_555
C1A N1A 1_555 1_555
C5A N1A 1_555 1_555
C6A O1A 1_555 1_555
C8A N2A 1_555 1_555
C10A N3A 1_555 1_555

#END
