
#######################################################################
#
#                 Cambridge Crystallographic Data Centre
#                                CCDC 
#
#######################################################################
#
# If this CIF has been generated from an entry in the Cambridge 
# Structural Database, then it will include bibliographic, chemical, 
# crystal, experimental, refinement or atomic coordinate data resulting 
# from the CCDC's data processing and validation procedures.
#
#######################################################################

data_BINTEZ
_symmetry_cell_setting           triclinic
_symmetry_space_group_name_H-M   'P -1'
_symmetry_Int_Tables_number      2
_space_group_name_Hall           '-P 1'
loop_
_symmetry_equiv_pos_site_id
_symmetry_equiv_pos_as_xyz
1 x,y,z
2 -x,-y,-z
_cell_length_a                   6.8656(8)
_cell_length_b                   8.1719(11)
_cell_length_c                   11.3542(15)
_cell_angle_alpha                95.230(11)
_cell_angle_beta                 91.734(10)
_cell_angle_gamma                102.113(10)
_cell_volume                     619.453
loop_
_atom_site_label
_atom_site_type_symbol
_atom_site_fract_x
_atom_site_fract_y
_atom_site_fract_z
C1 C 0.3353(3) 0.7990(3) 0.45806(18)
H1 H 0.4481 0.8632 0.5002
C2 C 0.1928(3) 0.8794(3) 0.41635(19)
H2 H 0.2076 0.9954 0.4303
C3 C 0.0277(3) 0.7812(3) 0.35317(17)
H3 H -0.0705 0.8317 0.3237
C4 C 0.0066(2) 0.6084(3) 0.33319(15)
C5 C 0.1545(2) 0.5377(2) 0.38009(14)
C6 C 0.1497(2) 0.3505(2) 0.37217(15)
C7 C -0.1736(3) 0.5064(3) 0.25872(15)
O1 O 0.29524(18) 0.31080(17) 0.42774(12)
O2 O 0.0124(2) 0.2511(2) 0.31586(13)
O3 O -0.1523(2) 0.4850(2) 0.14994(11)
O4 O -0.33086(18) 0.4607(2) 0.30949(11)
N1 N 0.3170(2) 0.6333(2) 0.44009(13)
Cu1 Cu 0.5000 0.5000 0.5000
C1A C -0.3353(3) 0.2010(3) 0.54194(18)
H1A H -0.4481 0.1368 0.4998
C2A C -0.1928(3) 0.1206(3) 0.58365(19)
H2A H -0.2076 0.0046 0.5697
C3A C -0.0277(3) 0.2188(3) 0.64683(17)
H3A H 0.0705 0.1683 0.6763
C4A C -0.0066(2) 0.3916(3) 0.66681(15)
C5A C -0.1545(2) 0.4623(2) 0.61991(14)
C6A C -0.1497(2) 0.6495(2) 0.62783(15)
C7A C 0.1736(3) 0.4936(3) 0.74128(15)
O1A O -0.29524(18) 0.68920(17) 0.57226(12)
O2A O -0.0124(2) 0.7489(2) 0.68414(13)
O3A O 0.1523(2) 0.5150(2) 0.85006(11)
O4A O 0.33086(18) 0.5393(2) 0.69051(11)
N1A N -0.3170(2) 0.3667(2) 0.55991(13)
O1A_2 O 0.70476(18) 0.68920(17) 0.57226(12)
O4_2 O 0.66914(18) 0.4607(2) 0.30949(11)
N1A_2 N 0.6830(2) 0.3667(2) 0.55991(13)
Cu1_2 Cu -0.5000 0.5000 0.5000
C8 C 0.3212(3) 0.0993(3) 0.1477(2)
H4 H 0.2285 0.1656 0.1373
C9 C 0.5902(3) 0.0179(4) 0.1989(2)
H5 H 0.7176 0.0205 0.2303
C10 C 0.4642(3) -0.1179(3) 0.14250(18)
C11 C 0.4767(4) -0.2961(4) 0.1145(3)
H6 H 0.6117 -0.3074 0.1286
H7 H 0.4359 -0.3311 0.0329
H8 H 0.3907 -0.3653 0.1640
N2 N 0.4985(3) 0.1495(3) 0.20173(16)
H9 H 0.5483 0.2497 0.2337
N3 N 0.2979(3) -0.0614(3) 0.11101(15)
H10 H 0.1935 -0.1220 0.0728
O5 O 0.0233(2) 0.2768(2) 0.00705(14)
H11 H -0.021(4) 0.326(4) 0.0617(19)
H12 H 0.071(4) 0.343(3) -0.040(2)
loop_
_geom_bond_atom_site_label_1
_geom_bond_atom_site_label_2
_geom_bond_site_symmetry_1
_geom_bond_site_symmetry_2
C1 H1 1_555 1_555
C2 C1 1_555 1_555
H2 C2 1_555 1_555
C3 C2 1_555 1_555
H3 C3 1_555 1_555
C4 C3 1_555 1_555
C5 C4 1_555 1_555
C6 C5 1_555 1_555
C7 C4 1_555 1_555
O1 C6 1_555 1_555
O2 C6 1_555 1_555
O3 C7 1_555 1_555
O4 C7 1_555 1_555
N1 C1 1_555 1_555
Cu1 O1 1_555 1_555
C8 H4 1_555 1_555
C9 H5 1_555 1_555
C10 C9 1_555 1_555
C11 C10 1_555 1_555
H6 C11 1_555 1_555
H7 C11 1_555 1_555
H8 C11 1_555 1_555
N2 C8 1_555 1_555
H9 N2 1_555 1_555
N3 C8 1_555 1_555
H10 N3 1_555 1_555
O5 H11 1_555 1_555
H12 O5 1_555 1_555
C1A H1A 1_555 1_555
C2A C1A 1_555 1_555
H2A C2A 1_555 1_555
C3A C2A 1_555 1_555
H3A C3A 1_555 1_555
C4A C3A 1_555 1_555
C5A C4A 1_555 1_555
C6A C5A 1_555 1_555
C7A C4A 1_555 1_555
O1A C6A 1_555 1_555
O2A C6A 1_555 1_555
O3A C7A 1_555 1_555
O4A Cu1 1_555 1_555
N1A C1A 1_555 1_555
O1A_2 Cu1 1_555 1_555
O4_2 Cu1 1_555 1_555
N1A_2 Cu1 1_555 1_555
Cu1_2 O4 1_555 1_555
C5 N1 1_555 1_555
N1 Cu1 1_555 1_555
C9 N2 1_555 1_555
C10 N3 1_555 1_555
C5A N1A 1_555 1_555
C7A O4A 1_555 1_555
O1A Cu1_2 1_555 1_555
N1A Cu1_2 1_555 1_555

#END
