
#######################################################################
#
#                 Cambridge Crystallographic Data Centre
#                                CCDC 
#
#######################################################################
#
# If this CIF has been generated from an entry in the Cambridge 
# Structural Database, then it will include bibliographic, chemical, 
# crystal, experimental, refinement or atomic coordinate data resulting 
# from the CCDC's data processing and validation procedures.
#
#######################################################################

data_BINXUS
_symmetry_cell_setting           tetragonal
_symmetry_space_group_name_H-M   'P 43'
_symmetry_Int_Tables_number      78
_space_group_name_Hall           'P 4cw'
loop_
_symmetry_equiv_pos_site_id
_symmetry_equiv_pos_as_xyz
1 x,y,z
2 -x,-y,1/2+z
3 -y,x,3/4+z
4 y,-x,1/4+z
_cell_length_a                   6.706(3)
_cell_length_b                   6.706(3)
_cell_length_c                   21.834(16)
_cell_angle_alpha                90
_cell_angle_beta                 90
_cell_angle_gamma                90
_cell_volume                     981.884
loop_
_atom_site_label
_atom_site_type_symbol
_atom_site_fract_x
_atom_site_fract_y
_atom_site_fract_z
Ag1 Ag 0.16956(6) 0.52184(6) 0.23199(5)
O1 O 0.4885(7) 0.3271(7) 0.2252(3)
O2 O 0.3196(9) 0.2432(9) 0.3006(3)
O3 O -0.1153(8) 0.3321(10) 0.1774(3)
N1 N 0.2596(7) 0.7341(7) 0.1508(2)
N2 N 0.3631(8) 0.9721(6) 0.0633(3)
N3 N 0.4778(9) 0.2228(10) 0.2716(4)
C1 C 0.4736(10) 0.7860(11) 0.1562(4)
H1 H 0.5526 0.6650 0.1582
H2 H 0.4956 0.8607 0.1936
C2 C 0.5407(9) 0.9129(11) 0.1002(4)
H3 H 0.6101 1.0312 0.1143
H4 H 0.6317 0.8361 0.0750
C3 C 0.1411(12) 0.9238(11) 0.1532(4)
H5 H 0.1541 0.9841 0.1934
H6 H 0.0012 0.8949 0.1462
C4 C 0.2177(12) 1.0699(10) 0.1037(4)
H7 H 0.1060 1.1177 0.0796
H8 H 0.2796 1.1840 0.1233
C5 C 0.2290(12) 0.6403(10) 0.0900(3)
H9 H 0.0928 0.5928 0.0869
H10 H 0.3173 0.5265 0.0859
C6 C 0.2703(11) 0.7887(10) 0.0382(3)
H11 H 0.3589 0.7284 0.0084
H12 H 0.1464 0.8224 0.0178
H13 H -0.147(14) 0.333(18) 0.1402(12)
H14 H -0.215(9) 0.300(16) 0.198(4)
N2C N -0.0279(6) 0.6369(8) 0.3133(3)
Ag1B Ag 0.47816(6) 1.16956(6) -0.01801(5)
loop_
_geom_bond_atom_site_label_1
_geom_bond_atom_site_label_2
_geom_bond_site_symmetry_1
_geom_bond_site_symmetry_2
Ag1 O1 1_555 1_555
O1 N3 1_555 1_555
O2 Ag1 1_555 1_555
O3 Ag1 1_555 1_555
N1 Ag1 1_555 1_555
N2 C2 1_555 1_555
N3 O2 1_555 1_555
C1 N1 1_555 1_555
H1 C1 1_555 1_555
H2 C1 1_555 1_555
C2 C1 1_555 1_555
H3 C2 1_555 1_555
H4 C2 1_555 1_555
C3 N1 1_555 1_555
H5 C3 1_555 1_555
H6 C3 1_555 1_555
C4 N2 1_555 1_555
H7 C4 1_555 1_555
H8 C4 1_555 1_555
C5 N1 1_555 1_555
H9 C5 1_555 1_555
H10 C5 1_555 1_555
C6 N2 1_555 1_555
H11 C6 1_555 1_555
H12 C6 1_555 1_555
H13 O3 1_555 1_555
H14 O3 1_555 1_555
N2C Ag1 1_555 1_555
Ag1B N2 1_555 1_555
C3 C4 1_555 1_555
C5 C6 1_555 1_555

#END
