
#######################################################################
#
#                 Cambridge Crystallographic Data Centre
#                                CCDC 
#
#######################################################################
#
# If this CIF has been generated from an entry in the Cambridge 
# Structural Database, then it will include bibliographic, chemical, 
# crystal, experimental, refinement or atomic coordinate data resulting 
# from the CCDC's data processing and validation procedures.
#
#######################################################################

data_BINXOM
_symmetry_cell_setting           orthorhombic
_symmetry_space_group_name_H-M   'I b a m'
_symmetry_Int_Tables_number      72
_space_group_name_Hall           '-I 2 2c'
loop_
_symmetry_equiv_pos_site_id
_symmetry_equiv_pos_as_xyz
1 x,y,z
2 1/2+x,1/2+y,1/2+z
3 x,y,-z
4 -x,y,1/2+z
5 x,-y,1/2+z
6 1/2+x,1/2+y,1/2-z
7 1/2-x,1/2+y,z
8 1/2+x,1/2-y,z
9 -x,-y,-z
10 1/2-x,1/2-y,1/2-z
11 -x,-y,z
12 x,-y,1/2-z
13 -x,y,1/2-z
14 1/2-x,1/2-y,1/2+z
15 1/2+x,1/2-y,-z
16 1/2-x,1/2+y,-z
_cell_length_a                   12.900(3)
_cell_length_b                   7.8312(19)
_cell_length_c                   14.722(4)
_cell_angle_alpha                90
_cell_angle_beta                 90
_cell_angle_gamma                90
_cell_volume                     1487.25
loop_
_atom_site_label
_atom_site_type_symbol
_atom_site_fract_x
_atom_site_fract_y
_atom_site_fract_z
K1 K 1.0000 0.0000 0.2500
N1 N 0.7666(7) 0.0000 0.2500
C1 C 0.55645(19) 0.0000 0.2500
C2 C 0.6098(6) 0.0692(12) 0.3231(7)
H1 H 0.5746 0.1168 0.3720
C3 C 0.7190(6) 0.0653(12) 0.3211(7)
H2 H 0.7571 0.1085 0.3695
Au1 Au 1.0000 0.0000 0.0000
Cl1 Cl 1.15612(19) -0.1367(4) 0.0000
Cl2 Cl 1.0838(2) 0.2579(4) 0.0000
C1J C 0.44355(19) 0.0000 0.2500
C2J C 0.3902(6) -0.0692(12) 0.3231(7)
H1J H 0.4254 -0.1168 0.3720
C3J C 0.2810(6) -0.0653(12) 0.3211(7)
N1J N 0.2334(7) 0.0000 0.2500
C3L C 0.2810(6) 0.0653(12) 0.1789(7)
C2L C 0.3902(6) 0.0692(12) 0.1769(7)
H1L H 0.4254 0.1168 0.1280
H2L H 0.2429 0.1085 0.1305
H2J H 0.2429 -0.1085 0.3695
C2K C 0.6098(6) -0.0692(12) 0.1769(7)
H1K H 0.5746 -0.1168 0.1280
C3K C 0.7190(6) -0.0653(12) 0.1789(7)
H2K H 0.7571 -0.1085 0.1305
Cl1H Cl 0.84388(19) 0.1367(4) 0.0000
Cl2H Cl 0.9162(2) -0.2579(4) 0.0000
N1J_2 N 1.2334(7) 0.0000 0.2500
Au1C Au 1.0000 0.0000 0.5000
K1B K 1.0000 0.0000 -0.2500
K1_2 K 0.0000 0.0000 0.2500
loop_
_geom_bond_atom_site_label_1
_geom_bond_atom_site_label_2
_geom_bond_site_symmetry_1
_geom_bond_site_symmetry_2
K1 N1 1_555 1_555
N1 C3 1_555 1_555
C1 C2 1_555 1_555
C2 H1 1_555 1_555
C3 C2 1_555 1_555
H2 C3 1_555 1_555
Au1 K1 1_555 1_555
Cl1 Au1 1_555 1_555
Cl2 Au1 1_555 1_555
C1J C1 1_555 1_555
C2J C1J 1_555 1_555
H1J C2J 1_555 1_555
C3J C2J 1_555 1_555
N1J C3J 1_555 1_555
C3L N1J 1_555 1_555
C2L C1J 1_555 1_555
H1L C2L 1_555 1_555
H2L C3L 1_555 1_555
H2J C3J 1_555 1_555
C2K C1 1_555 1_555
H1K C2K 1_555 1_555
C3K N1 1_555 1_555
H2K C3K 1_555 1_555
Cl1H Au1 1_555 1_555
Cl2H Au1 1_555 1_555
N1J_2 K1 1_555 1_555
Au1C K1 1_555 1_555
K1B Au1 1_555 1_555
K1_2 N1J 1_555 1_555
C3L C2L 1_555 1_555
C2K C3K 1_555 1_555

#END
