
#######################################################################
#
#                 Cambridge Crystallographic Data Centre
#                                CCDC 
#
#######################################################################
#
# If this CIF has been generated from an entry in the Cambridge 
# Structural Database, then it will include bibliographic, chemical, 
# crystal, experimental, refinement or atomic coordinate data resulting 
# from the CCDC's data processing and validation procedures.
#
#######################################################################

data_BINZUU
_symmetry_cell_setting           monoclinic
_symmetry_space_group_name_H-M   'P 21/n'
_symmetry_Int_Tables_number      14
_space_group_name_Hall           '-P 2yn'
loop_
_symmetry_equiv_pos_site_id
_symmetry_equiv_pos_as_xyz
1 x,y,z
2 1/2+x,1/2-y,1/2+z
3 -x,-y,-z
4 1/2-x,1/2+y,1/2-z
_cell_length_a                   9.0034(10)
_cell_length_b                   19.4609(19)
_cell_length_c                   12.7448(13)
_cell_angle_alpha                90
_cell_angle_beta                 93.005(5)
_cell_angle_gamma                90
_cell_volume                     2230
loop_
_atom_site_label
_atom_site_type_symbol
_atom_site_fract_x
_atom_site_fract_y
_atom_site_fract_z
Cu1 Cu 0.32504(3) 0.605672(13) 0.675324(18)
N1 N 0.25537(19) 0.52915(9) 0.57837(14)
N2 N 0.42594(18) 0.63643(9) 0.54539(13)
O1 O 0.40951(17) 0.68322(8) 0.75566(11)
O2 O 0.5641(2) 0.62619(9) 0.86637(16)
O3 O 0.51529(18) 0.80641(8) 0.82761(12)
O4 O 0.62290(19) 0.94901(8) 0.55068(12)
O5 O 0.76771(19) 0.94720(8) 0.29524(13)
O6 O 0.5966(2) 0.87958(9) 0.36149(14)
O7 O 0.10426(18) 0.66723(9) 0.65568(14)
C1 C 0.1642(3) 0.47703(12) 0.5960(2)
C2 C 0.1268(3) 0.42765(13) 0.5200(3)
C3 C 0.1856(3) 0.43103(13) 0.4247(2)
C4 C 0.2841(3) 0.48478(11) 0.40259(19)
C5 C 0.3564(3) 0.49284(14) 0.30633(19)
C6 C 0.4476(3) 0.54595(15) 0.29117(18)
C7 C 0.4740(2) 0.59800(12) 0.36936(17)
C8 C 0.5621(3) 0.65678(14) 0.35777(19)
C9 C 0.5774(3) 0.70328(13) 0.4369(2)
C10 C 0.5093(2) 0.69147(12) 0.53067(18)
C11 C 0.4072(2) 0.59065(11) 0.46552(16)
C12 C 0.3124(2) 0.53321(10) 0.48275(16)
C13 C 0.5043(2) 0.67913(11) 0.83265(16)
C14 C 0.5398(3) 0.74633(11) 0.89005(17)
C15 C 0.6133(2) 0.81880(11) 0.75044(16)
C16 C 0.7370(2) 0.77859(12) 0.73300(19)
C17 C 0.8236(3) 0.79661(14) 0.6510(2)
C18 C 0.7915(2) 0.85208(13) 0.58719(18)
C19 C 0.6677(2) 0.89199(11) 0.60575(17)
C20 C 0.5789(2) 0.87477(11) 0.68733(16)
C21 C 0.7082(3) 0.97081(12) 0.46584(18)
C22 C 0.6863(2) 0.92737(11) 0.36723(17)
H1 H 0.1239 0.4735 0.6615
H2 H 0.0615 0.3924 0.5349
H3 H 0.1612 0.3980 0.3739
H4 H 0.3400 0.4606 0.2531
H5 H 0.4949 0.5491 0.2282
H6 H 0.6100 0.6638 0.2958
H7 H 0.6333 0.7429 0.4284
H8 H 0.5227 0.7232 0.5849
H9 H 0.4793 0.7492 0.9507
H10 H 0.6432 0.7455 0.9156
H11 H 0.7609 0.7408 0.7752
H12 H 0.9069 0.7702 0.6385
H13 H 0.8517 0.8628 0.5324
H14 H 0.4955 0.9012 0.6996
H15 H 0.8127 0.9700 0.4887
H16 H 0.6822 1.0180 0.4486
H17 H 0.143(3) 0.7068(9) 0.651(2)
H18 H 0.083(3) 0.6604(14) 0.7195(11)
O5A O 0.26771(19) 0.55280(8) 0.79524(13)
Cu1A Cu 0.82504(3) 0.894328(13) 0.175324(18)
O8 O 0.8364(2) 0.64805(12) 0.97327(16)
H19 H 0.763(2) 0.636(2) 0.932(2)
H20 H 0.916(2) 0.6322(19) 0.950(3)
O9 O 0.24009(18) 0.79518(10) 0.65305(15)
H21 H 0.273(3) 0.8172(16) 0.6016(17)
H22 H 0.313(2) 0.7805(16) 0.692(2)
loop_
_geom_bond_atom_site_label_1
_geom_bond_atom_site_label_2
_geom_bond_site_symmetry_1
_geom_bond_site_symmetry_2
Cu1 N1 1_555 1_555
N1 C1 1_555 1_555
N2 Cu1 1_555 1_555
O1 Cu1 1_555 1_555
O2 C13 1_555 1_555
O3 C14 1_555 1_555
O4 C19 1_555 1_555
O5 C22 1_555 1_555
O6 C22 1_555 1_555
O7 Cu1 1_555 1_555
O8 H19 1_555 1_555
O9 H21 1_555 1_555
C1 C2 1_555 1_555
C2 C3 1_555 1_555
C3 C4 1_555 1_555
C4 C5 1_555 1_555
C5 C6 1_555 1_555
C6 C7 1_555 1_555
C7 C8 1_555 1_555
C8 C9 1_555 1_555
C9 C10 1_555 1_555
C10 N2 1_555 1_555
C11 N2 1_555 1_555
C12 N1 1_555 1_555
C13 O1 1_555 1_555
C14 C13 1_555 1_555
C15 O3 1_555 1_555
C16 C15 1_555 1_555
C17 C16 1_555 1_555
C18 C17 1_555 1_555
C19 C18 1_555 1_555
C20 C15 1_555 1_555
C21 O4 1_555 1_555
C22 C21 1_555 1_555
H1 C1 1_555 1_555
H2 C2 1_555 1_555
H3 C3 1_555 1_555
H4 C5 1_555 1_555
H5 C6 1_555 1_555
H6 C8 1_555 1_555
H7 C9 1_555 1_555
H8 C10 1_555 1_555
H9 C14 1_555 1_555
H10 C14 1_555 1_555
H11 C16 1_555 1_555
H12 C17 1_555 1_555
H13 C18 1_555 1_555
H14 C20 1_555 1_555
H15 C21 1_555 1_555
H16 C21 1_555 1_555
H17 O7 1_555 1_555
H18 O7 1_555 1_555
H20 O8 1_555 1_555
H22 O9 1_555 1_555
O5A Cu1 1_555 1_555
Cu1A O5 1_555 1_555
C4 C12 1_555 1_555
C7 C11 1_555 1_555
C11 C12 1_555 1_555
C19 C20 1_555 1_555

#END
