
#######################################################################
#
#                 Cambridge Crystallographic Data Centre
#                                CCDC 
#
#######################################################################
#
# If this CIF has been generated from an entry in the Cambridge 
# Structural Database, then it will include bibliographic, chemical, 
# crystal, experimental, refinement or atomic coordinate data resulting 
# from the CCDC's data processing and validation procedures.
#
#######################################################################

data_BIPCIO
_symmetry_cell_setting           triclinic
_symmetry_space_group_name_H-M   'P -1'
_symmetry_Int_Tables_number      2
_space_group_name_Hall           '-P 1'
loop_
_symmetry_equiv_pos_site_id
_symmetry_equiv_pos_as_xyz
1 x,y,z
2 -x,-y,-z
_cell_length_a                   8.0802(6)
_cell_length_b                   8.5760(7)
_cell_length_c                   15.1231(12)
_cell_angle_alpha                95.9330(10)
_cell_angle_beta                 92.5950(10)
_cell_angle_gamma                104.6820(10)
_cell_volume                     1005.53
loop_
_atom_site_label
_atom_site_type_symbol
_atom_site_fract_x
_atom_site_fract_y
_atom_site_fract_z
Zn1 Zn 0.46851(4) 0.59424(3) 0.895489(19)
S1 S 0.16724(8) 0.70541(8) 0.78678(4)
O1 O 0.7232(4) 0.3454(3) 0.51446(15)
O2 O 0.3333(2) 0.6655(2) 0.79507(12)
O3 O 0.1837(3) 0.8450(3) 0.73801(13)
O4 O 0.0310(3) 0.5667(3) 0.75056(13)
O5 O -0.3033(2) 0.5167(2) 1.02432(12)
O6 O -0.2001(3) 0.6756(3) 1.15019(13)
O7 O 0.2993(3) 1.1498(2) 1.15669(13)
O8 O 0.4205(2) 1.2015(2) 1.03087(12)
N1 N 0.5779(3) 0.4563(3) 0.81135(14)
N2 N 0.7481(4) 0.6083(3) 0.56654(16)
H1 H 0.770(4) 0.680(4) 0.6162(17)
N3 N 0.7649(5) 0.9089(4) 0.4093(2)
H2 H 0.750(6) 1.017(3) 0.406(3)
C1 C 0.5896(4) 0.3088(3) 0.82959(18)
H3 H 0.5622 0.2767 0.8866
C2 C 0.6400(4) 0.2031(4) 0.76842(19)
H4 H 0.6453 0.0990 0.7826
C3 C 0.6827(4) 0.2501(4) 0.68607(19)
H5 H 0.7179 0.1788 0.6430
C4 C 0.6736(4) 0.4027(3) 0.66682(18)
C5 C 0.6193(3) 0.5020(3) 0.73130(18)
H6 H 0.6111 0.6060 0.7183
C6 C 0.7176(4) 0.4490(4) 0.57580(19)
C7 C 0.7685(4) 0.6775(4) 0.48621(19)
C8 C 0.7521(4) 0.8355(4) 0.4861(2)
H7 H 0.7318 0.8931 0.5398
C9 C 0.7965(4) 0.8254(4) 0.33194(19)
H8 H 0.8043 0.8736 0.2780
C10 C 0.8160(4) 0.6761(3) 0.33371(16)
C11 C 0.8044(4) 0.5989(4) 0.4075(2)
H9 H 0.8205 0.4927 0.4055
C12 C 0.1219(3) 0.7659(3) 0.89642(17)
C13 C -0.0148(3) 0.6750(3) 0.93629(17)
H10 H -0.0886 0.5795 0.9045
C14 C -0.0431(3) 0.7250(3) 1.02350(17)
C15 C -0.1911(3) 0.6350(3) 1.07043(17)
C16 C 0.0677(3) 0.8640(3) 1.06940(17)
H11 H 0.0506 0.8962 1.1296
C17 C 0.2027(3) 0.9562(3) 1.02838(17)
C18 C 0.3141(3) 1.1118(3) 1.07685(17)
C19 C 0.2296(3) 0.9072(3) 0.94099(17)
H12 H 0.3210 0.9698 0.9120
Zn1A Zn -0.46851(4) 0.40576(3) 1.104511(19)
Zn1A_2 Zn 0.53149(4) 1.40576(3) 1.104511(19)
O5A O 0.3033(2) 0.4833(2) 0.97568(12)
O8A O 0.5795(2) 0.7985(2) 0.96913(12)
O9 O 0.1406(3) 1.1119(3) 1.30915(14)
H13 H 0.195(4) 1.112(5) 1.2627(19)
H14 H 0.041(3) 1.124(5) 1.295(3)
O10 O 0.5046(5) 0.1730(6) 0.3662(3)
loop_
_geom_bond_atom_site_label_1
_geom_bond_atom_site_label_2
_geom_bond_site_symmetry_1
_geom_bond_site_symmetry_2
Zn1 O2 1_555 1_555
S1 O2 1_555 1_555
O1 C6 1_555 1_555
O3 S1 1_555 1_555
O4 S1 1_555 1_555
O5 C15 1_555 1_555
O6 C15 1_555 1_555
O7 C18 1_555 1_555
O8 C18 1_555 1_555
N1 Zn1 1_555 1_555
N2 H1 1_555 1_555
N3 H2 1_555 1_555
C1 N1 1_555 1_555
H3 C1 1_555 1_555
C2 C1 1_555 1_555
H4 C2 1_555 1_555
C3 C2 1_555 1_555
H5 C3 1_555 1_555
C4 C3 1_555 1_555
C5 N1 1_555 1_555
H6 C5 1_555 1_555
C6 N2 1_555 1_555
C7 N2 1_555 1_555
C8 N3 1_555 1_555
H7 C8 1_555 1_555
C9 N3 1_555 1_555
H8 C9 1_555 1_555
C10 C9 1_555 1_555
C11 C7 1_555 1_555
H9 C11 1_555 1_555
C12 S1 1_555 1_555
C13 C12 1_555 1_555
H10 C13 1_555 1_555
C14 C13 1_555 1_555
C15 C14 1_555 1_555
C16 C14 1_555 1_555
H11 C16 1_555 1_555
C17 C16 1_555 1_555
C18 C17 1_555 1_555
C19 C12 1_555 1_555
H12 C19 1_555 1_555
O9 H13 1_555 1_555
H14 O9 1_555 1_555
Zn1A O5 1_555 1_555
Zn1A_2 O8 1_555 1_555
O5A Zn1 1_555 1_555
O8A Zn1 1_555 1_555
C4 C5 1_555 1_555
C4 C6 1_555 1_555
C7 C8 1_555 1_555
C10 C11 1_555 1_555
C17 C19 1_555 1_555

#END
