
#######################################################################
#
#                 Cambridge Crystallographic Data Centre
#                                CCDC 
#
#######################################################################
#
# If this CIF has been generated from an entry in the Cambridge 
# Structural Database, then it will include bibliographic, chemical, 
# crystal, experimental, refinement or atomic coordinate data resulting 
# from the CCDC's data processing and validation procedures.
#
#######################################################################

data_BIPCUA
_symmetry_cell_setting           triclinic
_symmetry_space_group_name_H-M   'P -1'
_symmetry_Int_Tables_number      2
_space_group_name_Hall           '-P 1'
loop_
_symmetry_equiv_pos_site_id
_symmetry_equiv_pos_as_xyz
1 x,y,z
2 -x,-y,-z
_cell_length_a                   10.0914(15)
_cell_length_b                   10.0967(14)
_cell_length_c                   14.241(2)
_cell_angle_alpha                85.157(3)
_cell_angle_beta                 72.356(2)
_cell_angle_gamma                60.693(3)
_cell_volume                     1202.2
loop_
_atom_site_label
_atom_site_type_symbol
_atom_site_fract_x
_atom_site_fract_y
_atom_site_fract_z
Cd1 Cd 0.17142(3) 0.72324(3) 0.040838(18)
Cd2 Cd 0.5000 1.0000 -0.5000
S1 S 0.68396(11) 1.02179(11) -0.31620(6)
O1 O 0.3471(3) 0.5260(3) -0.0747(2)
H1 H 0.422(4) 0.454(3) -0.058(3)
H2 H 0.306(4) 0.505(4) -0.108(3)
O2 O 0.7347(3) 0.8125(3) -0.5981(2)
H3 H 0.810(4) 0.828(4) -0.605(3)
H4 H 0.751(5) 0.726(3) -0.584(3)
O3 O 0.6111(3) 0.9718(3) -0.36917(17)
O4 O -0.0257(3) 0.9440(3) 0.14034(19)
H5 H -0.109(3) 0.958(4) 0.131(3)
H6 H -0.010(4) 1.013(3) 0.114(3)
O5 O 0.2808(3) 0.8762(3) -0.05957(17)
O6 O 0.9095(3) 0.7137(3) 0.05569(18)
O7 O 0.8509(3) 0.9692(3) -0.36644(18)
O8 O 0.5944(3) 1.1854(3) -0.29085(18)
O9 O 0.3997(3) 0.7312(3) 0.04654(17)
O10 O 0.2289(3) 0.4862(3) 0.53748(18)
O11 O 1.0297(3) 0.7969(3) -0.07071(17)
N1 N 0.2912(4) 0.6027(4) 0.4020(2)
H7 H 0.318(4) 0.673(3) 0.384(3)
N2 N 0.1809(3) 0.5941(3) 0.1814(2)
N3 N 0.4216(3) 0.8246(3) 0.5670(2)
C1 C 0.1037(4) 0.4393(4) 0.2933(3)
H8 H 0.0561 0.3758 0.3079
C2 C 0.3150(5) 0.7276(4) 0.7119(3)
H9 H 0.2916 0.7220 0.7815
C3 C 0.7939(4) 0.8884(4) -0.1604(2)
H10 H 0.8830 0.9026 -0.1920
C4 C 0.2825(4) 0.6488(4) 0.6563(3)
H11 H 0.2353 0.5884 0.6870
C5 C 0.5340(4) 0.8446(4) -0.0697(2)
C6 C 0.3923(4) 0.7452(4) 0.5131(3)
H12 H 0.4227 0.7482 0.4433
C7 C 0.9153(4) 0.7733(4) -0.0247(3)
C8 C 0.1650(5) 0.4643(4) 0.3610(3)
H13 H 0.1604 0.4182 0.4220
C9 C 0.3194(4) 0.6587(4) 0.5545(3)
C10 C 0.1119(4) 0.5063(4) 0.2054(3)
H14 H 0.0676 0.4900 0.1604
C11 C 0.2325(4) 0.5575(4) 0.3375(3)
C12 C 0.3952(4) 0.8164(4) -0.0245(2)
C13 C 0.6729(4) 0.9351(4) -0.2029(2)
C14 C 0.3821(5) 0.8146(4) 0.6648(3)
H15 H 0.4015 0.8709 0.7040
C15 C 0.2402(4) 0.6183(4) 0.2469(3)
H16 H 0.2896 0.6801 0.2299
C16 C 0.6555(4) 0.7983(4) -0.0270(2)
H17 H 0.6499 0.7507 0.0334
C17 C 0.5421(4) 0.9167(4) -0.1567(2)
H18 H 0.4572 0.9536 -0.1848
C18 C 0.7844(4) 0.8208(4) -0.0715(2)
C19 C 0.2762(4) 0.5745(4) 0.4967(3)
Cd1A Cd 0.82858(3) 1.27676(3) -1.040838(18)
S1A S 0.31604(11) 0.97821(11) -0.68380(6)
O1A O 0.6529(3) 1.4740(3) -0.9253(2)
H1A H 0.578(4) 1.546(3) -0.942(3)
H2A H 0.694(4) 1.495(4) -0.892(3)
O2A O 0.2653(3) 1.1875(3) -0.4019(2)
H3A H 0.190(4) 1.172(4) -0.395(3)
H4A H 0.249(5) 1.274(3) -0.416(3)
O3A O 0.3889(3) 1.0282(3) -0.63083(17)
O4A O 1.0257(3) 1.0560(3) -1.14034(19)
H5A H 1.109(3) 1.042(4) -1.131(3)
H6A H 1.010(4) 0.987(3) -1.114(3)
O5A O 0.7192(3) 1.1238(3) -0.94043(17)
O6A O 0.0905(3) 1.2863(3) -1.05569(18)
O7A O 0.1491(3) 1.0308(3) -0.63356(18)
O8A O 0.4056(3) 0.8146(3) -0.70915(18)
O9A O 0.6003(3) 1.2688(3) -1.04654(17)
O10A O 0.7711(3) 1.5138(3) -1.53748(18)
O11A O -0.0297(3) 1.2031(3) -0.92929(17)
N1A N 0.7088(4) 1.3973(4) -1.4020(2)
H7A H 0.682(4) 1.327(3) -1.384(3)
N2A N 0.8191(3) 1.4059(3) -1.1814(2)
N3A N 0.5784(3) 1.1754(3) -1.5670(2)
C1A C 0.8963(4) 1.5607(4) -1.2933(3)
H8A H 0.9439 1.6242 -1.3079
C2A C 0.6850(5) 1.2724(4) -1.7119(3)
H9A H 0.7084 1.2780 -1.7815
C3A C 0.2061(4) 1.1116(4) -0.8396(2)
H10A H 0.1170 1.0974 -0.8080
C4A C 0.7175(4) 1.3512(4) -1.6563(3)
H11A H 0.7647 1.4116 -1.6870
C5A C 0.4660(4) 1.1554(4) -0.9303(2)
C6A C 0.6077(4) 1.2548(4) -1.5131(3)
H12A H 0.5773 1.2518 -1.4433
C7A C 0.0847(4) 1.2267(4) -0.9753(3)
C8A C 0.8350(5) 1.5357(4) -1.3610(3)
H13A H 0.8396 1.5818 -1.4220
C9A C 0.6806(4) 1.3413(4) -1.5545(3)
C10A C 0.8881(4) 1.4937(4) -1.2054(3)
H14A H 0.9324 1.5100 -1.1604
C11A C 0.7675(4) 1.4425(4) -1.3375(3)
C12A C 0.6048(4) 1.1836(4) -0.9755(2)
C13A C 0.3271(4) 1.0649(4) -0.7971(2)
C14A C 0.6179(5) 1.1854(4) -1.6648(3)
H15A H 0.5985 1.1291 -1.7040
C15A C 0.7598(4) 1.3817(4) -1.2469(3)
H16A H 0.7104 1.3199 -1.2299
C16A C 0.3445(4) 1.2017(4) -0.9730(2)
H17A H 0.3501 1.2493 -1.0334
C17A C 0.4579(4) 1.0833(4) -0.8433(2)
H18A H 0.5428 1.0464 -0.8152
C18A C 0.2156(4) 1.1792(4) -0.9285(2)
C19A C 0.7238(4) 1.4255(4) -1.4967(3)
Cd1_2 Cd 1.17142(3) 0.72324(3) 0.040838(18)
Cd1A_2 Cd -0.17142(3) 1.27676(3) -1.040838(18)
Cd2_2 Cd 0.5000 1.0000 -1.5000
Cd2_3 Cd 0.5000 1.0000 0.5000
O6_2 O -0.0905(3) 0.7137(3) 0.05569(18)
O6A_2 O 1.0905(3) 1.2863(3) -1.05569(18)
O11_2 O 0.0297(3) 0.7969(3) -0.07071(17)
O11A_2 O 0.9703(3) 1.2031(3) -0.92929(17)
N3_2 N 0.4216(3) 0.8246(3) -0.4330(2)
N3A_2 N 0.5784(3) 1.1754(3) -0.5670(2)
O12 O 0.7345(4) 0.6047(3) 0.1922(2)
H19 H 0.778(4) 0.649(4) 0.154(2)
H20 H 0.646(3) 0.668(4) 0.231(2)
O13 O 0.9453(4) 0.8900(4) -0.5735(3)
loop_
_geom_bond_atom_site_label_1
_geom_bond_atom_site_label_2
_geom_bond_site_symmetry_1
_geom_bond_site_symmetry_2
Cd1 O1 1_555 1_555
Cd2 O2 1_555 1_555
S1 O3 1_555 1_555
O1 H1 1_555 1_555
H2 O1 1_555 1_555
O2 H3 1_555 1_555
H4 O2 1_555 1_555
O3 Cd2 1_555 1_555
O4 Cd1 1_555 1_555
H5 O4 1_555 1_555
H6 O4 1_555 1_555
O5 Cd1 1_555 1_555
O6 C7 1_555 1_555
O7 S1 1_555 1_555
O8 S1 1_555 1_555
O9 Cd1 1_555 1_555
O10 C19 1_555 1_555
O11 C7 1_555 1_555
N1 H7 1_555 1_555
N2 Cd1 1_555 1_555
N3 C6 1_555 1_555
C1 H8 1_555 1_555
C2 H9 1_555 1_555
C3 H10 1_555 1_555
C4 C2 1_555 1_555
H11 C4 1_555 1_555
C5 C12 1_555 1_555
C6 H12 1_555 1_555
C7 C18 1_555 1_555
C8 C1 1_555 1_555
H13 C8 1_555 1_555
C9 C4 1_555 1_555
C10 N2 1_555 1_555
H14 C10 1_555 1_555
C11 N1 1_555 1_555
C12 O5 1_555 1_555
C13 S1 1_555 1_555
C14 N3 1_555 1_555
H15 C14 1_555 1_555
C15 N2 1_555 1_555
H16 C15 1_555 1_555
C16 C5 1_555 1_555
H17 C16 1_555 1_555
C17 C5 1_555 1_555
H18 C17 1_555 1_555
C18 C3 1_555 1_555
C19 N1 1_555 1_555
O12 H19 1_555 1_555
H20 O12 1_555 1_555
Cd1A O1A 1_555 1_555
S1A O3A 1_555 1_555
O1A H1A 1_555 1_555
H2A O1A 1_555 1_555
O2A Cd2 1_555 1_555
H3A O2A 1_555 1_555
H4A O2A 1_555 1_555
O3A Cd2 1_555 1_555
O4A Cd1A 1_555 1_555
H5A O4A 1_555 1_555
H6A O4A 1_555 1_555
O5A Cd1A 1_555 1_555
O6A C7A 1_555 1_555
O7A S1A 1_555 1_555
O8A S1A 1_555 1_555
O9A Cd1A 1_555 1_555
O10A C19A 1_555 1_555
O11A C7A 1_555 1_555
N1A H7A 1_555 1_555
N2A Cd1A 1_555 1_555
N3A C6A 1_555 1_555
C1A H8A 1_555 1_555
C2A H9A 1_555 1_555
C3A H10A 1_555 1_555
C4A C2A 1_555 1_555
H11A C4A 1_555 1_555
C5A C12A 1_555 1_555
C6A H12A 1_555 1_555
C7A C18A 1_555 1_555
C8A C1A 1_555 1_555
H13A C8A 1_555 1_555
C9A C4A 1_555 1_555
C10A N2A 1_555 1_555
H14A C10A 1_555 1_555
C11A N1A 1_555 1_555
C12A O5A 1_555 1_555
C13A S1A 1_555 1_555
C14A N3A 1_555 1_555
H15A C14A 1_555 1_555
C15A N2A 1_555 1_555
H16A C15A 1_555 1_555
C16A C5A 1_555 1_555
H17A C16A 1_555 1_555
C17A C5A 1_555 1_555
H18A C17A 1_555 1_555
C18A C3A 1_555 1_555
C19A N1A 1_555 1_555
Cd1_2 O6 1_555 1_555
Cd1A_2 O6A 1_555 1_555
Cd2_2 N3A 1_555 1_555
Cd2_3 N3 1_555 1_555
O6_2 Cd1 1_555 1_555
O6A_2 Cd1A 1_555 1_555
O11_2 Cd1 1_555 1_555
O11A_2 Cd1A 1_555 1_555
N3_2 Cd2 1_555 1_555
N3A_2 Cd2 1_555 1_555
O9 C12 1_555 1_555
O11 Cd1_2 1_555 1_555
C1 C10 1_555 1_555
C2 C14 1_555 1_555
C3 C13 1_555 1_555
C6 C9 1_555 1_555
C8 C11 1_555 1_555
C9 C19 1_555 1_555
C11 C15 1_555 1_555
C13 C17 1_555 1_555
C16 C18 1_555 1_555
O9A C12A 1_555 1_555
O11A Cd1A_2 1_555 1_555
C1A C10A 1_555 1_555
C2A C14A 1_555 1_555
C3A C13A 1_555 1_555
C6A C9A 1_555 1_555
C8A C11A 1_555 1_555
C9A C19A 1_555 1_555
C11A C15A 1_555 1_555
C13A C17A 1_555 1_555
C16A C18A 1_555 1_555

#END
