
#######################################################################
#
#                 Cambridge Crystallographic Data Centre
#                                CCDC 
#
#######################################################################
#
# If this CIF has been generated from an entry in the Cambridge 
# Structural Database, then it will include bibliographic, chemical, 
# crystal, experimental, refinement or atomic coordinate data resulting 
# from the CCDC's data processing and validation procedures.
#
#######################################################################

data_BIPCOU
_symmetry_cell_setting           triclinic
_symmetry_space_group_name_H-M   'P -1'
_symmetry_Int_Tables_number      2
_space_group_name_Hall           '-P 1'
loop_
_symmetry_equiv_pos_site_id
_symmetry_equiv_pos_as_xyz
1 x,y,z
2 -x,-y,-z
_cell_length_a                   9.1424(7)
_cell_length_b                   9.8221(7)
_cell_length_c                   13.1380(10)
_cell_angle_alpha                96.6450(10)
_cell_angle_beta                 103.5500(10)
_cell_angle_gamma                116.2830(10)
_cell_volume                     995.224
loop_
_atom_site_label
_atom_site_type_symbol
_atom_site_fract_x
_atom_site_fract_y
_atom_site_fract_z
Cu1 Cu 0.77299(4) 0.34716(3) 0.01006(2)
S1 S 1.36897(8) 0.13644(7) 0.32824(5)
O1 O 0.1921(2) -0.1355(2) -0.29164(14)
O2 O 1.3695(2) 0.0181(2) 0.38487(14)
O3 O 1.4956(2) 0.1795(2) 0.27098(14)
O4 O 1.3846(2) 0.2734(2) 0.39591(14)
O5 O 0.7275(2) 0.1253(2) 0.00342(14)
O6 O 0.9425(2) 0.32469(19) 0.12978(13)
O7 O 0.8985(2) -0.42729(19) 0.05551(14)
O8 O 0.5885(2) 0.3303(2) 0.09893(16)
H1 H 0.533(3) 0.257(3) 0.124(2)
H2 H 0.517(3) 0.359(3) 0.072(2)
O9 O 0.6672(2) -0.4046(2) -0.01847(15)
N1 N -0.2154(3) -0.5266(3) -0.64190(19)
H3 H -0.302(3) -0.617(3) -0.683(2)
N2 N 0.2068(3) -0.1069(3) -0.45894(17)
H4 H 0.280(3) -0.058(3) -0.492(2)
N3 N 0.6347(3) 0.2954(2) -0.14497(16)
C1 C -0.2195(4) -0.4573(3) -0.5498(2)
H5 H -0.3195 -0.5049 -0.5286
C2 C -0.0819(3) -0.3187(3) -0.4857(2)
H6 H -0.0853 -0.2706 -0.4199
C3 C 0.0640(3) -0.2487(3) -0.5181(2)
C4 C 0.0616(4) -0.3222(3) -0.6161(2)
H7 H 0.1575 -0.2753 -0.6412
C5 C -0.0787(4) -0.4617(3) -0.6763(2)
H8 H -0.0793 -0.5128 -0.7425
C6 C 0.2585(3) -0.0542(3) -0.3476(2)
C7 C 0.4026(3) 0.1104(3) -0.3011(2)
C8 C 0.4397(3) 0.2230(3) -0.3597(2)
H9 H 0.3726 0.1985 -0.4331
C9 C 0.5770(4) 0.3723(3) -0.3088(2)
H10 H 0.6049 0.4521 -0.3468
C10 C 0.6724(3) 0.4035(3) -0.2026(2)
H11 H 0.7683 0.5052 -0.1689
C11 C 0.5019(3) 0.1517(3) -0.1936(2)
H12 H 0.4746 0.0749 -0.1531
C12 C 0.8642(3) 0.1800(3) 0.08328(19)
C13 C 0.9367(3) 0.0772(3) 0.11765(19)
C14 C 0.8483(3) -0.0810(3) 0.06804(19)
H13 H 0.7388 -0.1251 0.0143
C15 C 0.9184(3) -0.1765(3) 0.09624(19)
C16 C 1.0788(3) -0.1113(3) 0.17520(19)
H14 H 1.1292 -0.1749 0.1941
C17 C 1.1647(3) 0.0481(3) 0.22623(19)
C18 C 1.0948(3) 0.1428(3) 0.1978(2)
H15 H 1.1544 0.2516 0.2328
C19 C 0.8174(3) -0.3488(3) 0.03936(19)
Cu1_2 Cu 0.77299(4) -0.65284(3) 0.01006(2)
O7_2 O 0.8985(2) 0.57271(19) 0.05551(14)
loop_
_geom_bond_atom_site_label_1
_geom_bond_atom_site_label_2
_geom_bond_site_symmetry_1
_geom_bond_site_symmetry_2
Cu1 O5 1_555 1_555
S1 O2 1_555 1_555
O1 C6 1_555 1_555
O3 S1 1_555 1_555
O4 S1 1_555 1_555
O5 C12 1_555 1_555
O6 Cu1 1_555 1_555
O7 C19 1_555 1_555
O8 Cu1 1_555 1_555
H1 O8 1_555 1_555
H2 O8 1_555 1_555
O9 C19 1_555 1_555
N1 H3 1_555 1_555
N2 H4 1_555 1_555
N3 Cu1 1_555 1_555
C1 N1 1_555 1_555
H5 C1 1_555 1_555
C2 C1 1_555 1_555
H6 C2 1_555 1_555
C3 N2 1_555 1_555
C4 C3 1_555 1_555
H7 C4 1_555 1_555
C5 N1 1_555 1_555
H8 C5 1_555 1_555
C6 N2 1_555 1_555
C7 C6 1_555 1_555
C8 C7 1_555 1_555
H9 C8 1_555 1_555
C9 C8 1_555 1_555
H10 C9 1_555 1_555
C10 N3 1_555 1_555
H11 C10 1_555 1_555
C11 N3 1_555 1_555
H12 C11 1_555 1_555
C12 O6 1_555 1_555
C13 C12 1_555 1_555
C14 C13 1_555 1_555
H13 C14 1_555 1_555
C15 C14 1_555 1_555
C16 C15 1_555 1_555
H14 C16 1_555 1_555
C17 S1 1_555 1_555
C18 C13 1_555 1_555
H15 C18 1_555 1_555
C19 C15 1_555 1_555
Cu1_2 O7 1_555 1_555
O7_2 Cu1 1_555 1_555
C2 C3 1_555 1_555
C4 C5 1_555 1_555
C7 C11 1_555 1_555
C9 C10 1_555 1_555
C16 C17 1_555 1_555
C17 C18 1_555 1_555

#END
