
#######################################################################
#
#                 Cambridge Crystallographic Data Centre
#                                CCDC 
#
#######################################################################
#
# If this CIF has been generated from an entry in the Cambridge 
# Structural Database, then it will include bibliographic, chemical, 
# crystal, experimental, refinement or atomic coordinate data resulting 
# from the CCDC's data processing and validation procedures.
#
#######################################################################

data_BIPDAH
_symmetry_cell_setting           monoclinic
_symmetry_space_group_name_H-M   'P 21/c'
_symmetry_Int_Tables_number      14
_space_group_name_Hall           '-P 2ybc'
loop_
_symmetry_equiv_pos_site_id
_symmetry_equiv_pos_as_xyz
1 x,y,z
2 -x,1/2+y,1/2-z
3 -x,-y,-z
4 x,1/2-y,1/2+z
_cell_length_a                   7.0135(7)
_cell_length_b                   15.6662(15)
_cell_length_c                   17.7329(17)
_cell_angle_alpha                90
_cell_angle_beta                 95.0940(10)
_cell_angle_gamma                90
_cell_volume                     1940.71
loop_
_atom_site_label
_atom_site_type_symbol
_atom_site_fract_x
_atom_site_fract_y
_atom_site_fract_z
Cd1 Cd 0.28858(4) 0.624196(14) 0.212638(13)
S1 S -0.22222(12) 0.59820(5) 0.17504(5)
O1 O -0.0360(3) 0.59518(16) 0.21958(14)
O2 O -0.2318(4) 0.65819(15) 0.11377(14)
O3 O -0.3720(3) 0.60923(14) 0.22642(13)
O4 O -0.3854(4) 0.19974(14) 0.16613(14)
O5 O -0.2299(4) 0.26731(15) 0.26174(14)
O6 O -0.2717(4) 0.46387(15) -0.10128(13)
O7 O -0.3022(4) 0.32463(14) -0.09039(13)
O8 O 0.6943(4) 0.48864(15) 0.47303(15)
N1 N 1.2505(5) 0.3140(2) 0.5945(2)
H1 H 1.370(3) 0.310(3) 0.614(2)
N2 N 0.7616(5) 0.34925(19) 0.45197(18)
H2 H 0.734(6) 0.3070(18) 0.4209(18)
N3 N 0.3129(4) 0.49927(17) 0.28247(16)
C1 C -0.2975(5) 0.3441(2) 0.1467(2)
C2 C -0.3073(5) 0.3368(2) 0.0682(2)
H3 H -0.3287 0.2824 0.0453
C3 C -0.2547(5) 0.4955(2) 0.13393(19)
C4 C -0.2604(5) 0.4875(2) 0.0559(2)
H4 H -0.2466 0.5364 0.0253
C5 C -0.3067(5) 0.2662(2) 0.1951(2)
C6 C -0.2703(5) 0.4247(2) 0.17951(19)
H5 H -0.2626 0.4309 0.2330
C7 C -0.2868(5) 0.3988(2) -0.0618(2)
C8 C -0.2864(5) 0.4077(2) 0.02279(19)
C9 C 1.2174(6) 0.2668(3) 0.5321(3)
H6 H 1.3077 0.2247 0.5205
C10 C 1.0561(6) 0.2783(2) 0.4849(2)
H7 H 1.0332 0.2440 0.4408
C11 C 0.2686(6) 0.3486(2) 0.2902(2)
H8 H 0.2007 0.2991 0.2720
C12 C 0.2287(5) 0.4266(2) 0.2573(2)
H9 H 0.1369 0.4293 0.2146
C13 C 0.4416(5) 0.4935(2) 0.3426(2)
H10 H 0.4973 0.5448 0.3627
C14 C 0.4985(5) 0.4181(2) 0.3773(2)
C15 C 0.6562(5) 0.4230(2) 0.4395(2)
C16 C 0.4097(6) 0.3426(2) 0.3504(2)
H11 H 0.4446 0.2889 0.3725
C17 C 1.1231(6) 0.3728(2) 0.6124(2)
H12 H 1.1479 0.4045 0.6578
C18 C 0.9596(6) 0.3884(2) 0.5674(2)
H13 H 0.8717 0.4308 0.5807
C19 C 0.9243(5) 0.3407(2) 0.5015(2)
Cd1_2 Cd -0.71142(4) 0.624196(14) 0.212638(13)
Cd1A Cd -0.28858(4) 0.124196(14) 0.287362(13)
Cd1B Cd -0.28858(4) 0.375804(14) -0.212638(13)
O3_2 O 0.6280(3) 0.60923(14) 0.22642(13)
O4A O 0.3854(4) 0.69974(14) 0.33387(14)
O5A O 0.2299(4) 0.76731(15) 0.23826(14)
O6B O 0.2717(4) 0.53613(15) 0.10128(13)
O7B O 0.3022(4) 0.67537(14) 0.09039(13)
loop_
_geom_bond_atom_site_label_1
_geom_bond_atom_site_label_2
_geom_bond_site_symmetry_1
_geom_bond_site_symmetry_2
Cd1 O1 1_555 1_555
S1 O1 1_555 1_555
O2 S1 1_555 1_555
O3 S1 1_555 1_555
O4 C5 1_555 1_555
O5 C5 1_555 1_555
O6 C7 1_555 1_555
O7 C7 1_555 1_555
O8 C15 1_555 1_555
N1 H1 1_555 1_555
N2 H2 1_555 1_555
N3 Cd1 1_555 1_555
C1 C2 1_555 1_555
C2 H3 1_555 1_555
C3 S1 1_555 1_555
C4 C3 1_555 1_555
H4 C4 1_555 1_555
C5 C1 1_555 1_555
C6 C1 1_555 1_555
H5 C6 1_555 1_555
C7 C8 1_555 1_555
C8 C2 1_555 1_555
C9 N1 1_555 1_555
H6 C9 1_555 1_555
C10 C9 1_555 1_555
H7 C10 1_555 1_555
C11 H8 1_555 1_555
C12 N3 1_555 1_555
H9 C12 1_555 1_555
C13 N3 1_555 1_555
H10 C13 1_555 1_555
C14 C13 1_555 1_555
C15 N2 1_555 1_555
C16 C11 1_555 1_555
H11 C16 1_555 1_555
C17 N1 1_555 1_555
H12 C17 1_555 1_555
C18 C17 1_555 1_555
H13 C18 1_555 1_555
C19 N2 1_555 1_555
Cd1_2 O3 1_555 1_555
Cd1A O4 1_555 1_555
Cd1B O6 1_555 1_555
O3_2 Cd1 1_555 1_555
O4A Cd1 1_555 1_555
O5A Cd1 1_555 1_555
O6B Cd1 1_555 1_555
O7B Cd1 1_555 1_555
O5 Cd1A 1_555 1_555
O7 Cd1B 1_555 1_555
C3 C6 1_555 1_555
C4 C8 1_555 1_555
C10 C19 1_555 1_555
C11 C12 1_555 1_555
C14 C15 1_555 1_555
C14 C16 1_555 1_555
C18 C19 1_555 1_555

#END
