
#######################################################################
#
#                 Cambridge Crystallographic Data Centre
#                                CCDC 
#
#######################################################################
#
# If this CIF has been generated from an entry in the Cambridge 
# Structural Database, then it will include bibliographic, chemical, 
# crystal, experimental, refinement or atomic coordinate data resulting 
# from the CCDC's data processing and validation procedures.
#
#######################################################################

data_BIPFUD
_symmetry_cell_setting           triclinic
_symmetry_space_group_name_H-M   'P -1'
_symmetry_Int_Tables_number      2
_space_group_name_Hall           '-P 1'
loop_
_symmetry_equiv_pos_site_id
_symmetry_equiv_pos_as_xyz
1 x,y,z
2 -x,-y,-z
_cell_length_a                   6.187(3)
_cell_length_b                   8.569(4)
_cell_length_c                   14.439(7)
_cell_angle_alpha                74.627(13)
_cell_angle_beta                 88.731(14)
_cell_angle_gamma                88.860(19)
_cell_volume                     737.855
loop_
_atom_site_label
_atom_site_type_symbol
_atom_site_fract_x
_atom_site_fract_y
_atom_site_fract_z
Ag1 Ag 0.62629(5) 0.06892(4) 0.38867(2)
N1 N 0.3317(5) 0.2078(4) 0.4208(2)
N2 N 0.2279(5) 0.1338(3) 0.5023(2)
N3 N 0.2139(5) 0.3345(4) 0.3719(2)
C1 C 0.0383(6) 0.2132(4) 0.5053(3)
Ag2 Ag 0.29450(5) 0.50630(4) 0.23865(2)
C2 C 0.0311(6) 0.3410(4) 0.4229(3)
C3 C -0.1147(6) 0.1578(5) 0.5891(3)
N4 N 0.3437(5) 0.6496(4) 0.0916(2)
C4 C -0.1285(6) 0.4745(5) 0.3863(3)
O1 O -0.0573(4) 0.0439(3) 0.65675(18)
O2 O -0.2956(4) 0.2340(3) 0.58243(18)
N5 N 0.4177(5) 0.8010(3) 0.0617(2)
C5 C 0.2928(6) 0.6034(5) 0.0129(3)
O3 O -0.0912(4) 0.5846(3) 0.31522(19)
O4 O -0.3086(4) 0.4713(3) 0.4367(2)
Ni1 Ni 0.53529(8) 0.94097(6) 0.14375(3)
N6 N 0.4130(5) 0.8523(4) -0.0338(2)
C6 C 0.3334(6) 0.7320(4) -0.0657(3)
C7 C 0.2157(6) 0.4369(5) 0.0182(3)
H1 H -0.3181 0.3835 0.4768
C8 C 0.3165(6) 0.7593(5) -0.1710(3)
O5 O 0.1921(4) 0.3375(3) 0.0958(2)
O6 O 0.1785(5) 0.4100(3) -0.0649(2)
O7 O 0.3595(4) 0.8982(3) -0.22113(18)
O8 O 0.4687(4) 1.2429(3) -0.26411(17)
O9 O 0.7808(4) 0.9904(3) -0.1693(2)
O10 O 0.1553(4) 1.1244(3) -0.1161(2)
O11 O 0.2594(4) 0.6422(3) -0.20386(18)
H2 H 0.1963 0.4937 -0.1077
H3 H 0.3586 1.3046 -0.2795
H4 H 0.5819 1.2588 -0.2996
H5 H 0.8015 0.8956 -0.1400
H6 H 0.823(8) 1.003(6) -0.226(3)
H7 H 0.046(6) 1.075(4) -0.121(3)
H8 H 0.1560 1.2119 -0.1031
Ag1A Ag 0.37371(5) -0.06892(4) 0.61133(2)
Ni1A Ni 0.46471(8) 1.05903(6) -0.14375(3)
N5A N 0.5823(5) 1.1990(3) -0.0617(2)
N1A N 0.6683(5) 0.7922(4) -0.4208(2)
Ag1A_2 Ag 0.37371(5) 0.93108(4) -0.38867(2)
N2_2 N 0.2279(5) 1.1338(3) -0.4977(2)
loop_
_geom_bond_atom_site_label_1
_geom_bond_atom_site_label_2
_geom_bond_site_symmetry_1
_geom_bond_site_symmetry_2
Ag1 N1 1_555 1_555
N1 N2 1_555 1_555
N2 C1 1_555 1_555
N3 N1 1_555 1_555
C1 C2 1_555 1_555
Ag2 N3 1_555 1_555
C2 N3 1_555 1_555
C3 C1 1_555 1_555
N4 Ag2 1_555 1_555
C4 C2 1_555 1_555
O1 C3 1_555 1_555
O2 C3 1_555 1_555
N5 N4 1_555 1_555
C5 N4 1_555 1_555
O3 C4 1_555 1_555
O4 C4 1_555 1_555
Ni1 N5 1_555 1_555
N6 N5 1_555 1_555
C6 C5 1_555 1_555
C7 C5 1_555 1_555
H1 O4 1_555 1_555
C8 C6 1_555 1_555
O5 C7 1_555 1_555
O6 C7 1_555 1_555
O7 C8 1_555 1_555
O8 H3 1_555 1_555
O9 H5 1_555 1_555
O10 H7 1_555 1_555
O11 C8 1_555 1_555
H2 O6 1_555 1_555
H4 O8 1_555 1_555
H6 O9 1_555 1_555
H8 O10 1_555 1_555
Ag1A N2 1_555 1_555
Ni1A N6 1_555 1_555
N5A Ni1A 1_555 1_555
N1A Ag1A_2 1_555 1_555
Ag1A_2 O7 1_555 1_555
N2_2 Ag1A_2 1_555 1_555
N6 C6 1_555 1_555
O7 Ni1A 1_555 1_555
O8 Ni1A 1_555 1_555
O9 Ni1A 1_555 1_555
O10 Ni1A 1_555 1_555

#END
