
#######################################################################
#
#                 Cambridge Crystallographic Data Centre
#                                CCDC 
#
#######################################################################
#
# If this CIF has been generated from an entry in the Cambridge 
# Structural Database, then it will include bibliographic, chemical, 
# crystal, experimental, refinement or atomic coordinate data resulting 
# from the CCDC's data processing and validation procedures.
#
#######################################################################

data_BIPFOX
_symmetry_cell_setting           triclinic
_symmetry_space_group_name_H-M   'P -1'
_symmetry_Int_Tables_number      2
_space_group_name_Hall           '-P 1'
loop_
_symmetry_equiv_pos_site_id
_symmetry_equiv_pos_as_xyz
1 x,y,z
2 -x,-y,-z
_cell_length_a                   6.2461(12)
_cell_length_b                   8.6465(17)
_cell_length_c                   14.544(3)
_cell_angle_alpha                74.04(3)
_cell_angle_beta                 88.67(3)
_cell_angle_gamma                88.47(3)
_cell_volume                     754.827
loop_
_atom_site_label
_atom_site_type_symbol
_atom_site_fract_x
_atom_site_fract_y
_atom_site_fract_z
O1 O 0.7873(7) 0.4866(5) -0.1705(3)
H1 H 0.8082 0.5002 -0.2280
Ag1 Ag 0.28796(9) 0.00308(6) 0.23759(3)
Ag2 Ag 0.37394(8) 0.43032(6) -0.38891(3)
Zn1 Zn 0.46808(12) 0.56306(8) -0.14610(4)
O2 O 0.3624(7) 0.3913(5) -0.2216(2)
O3 O 0.2654(7) 0.1378(5) -0.2008(3)
O4 O 0.1865(7) -0.0905(6) -0.0614(3)
O5 O 0.1916(7) -0.1597(5) 0.0977(3)
O6 O -0.0916(7) 0.0791(5) 0.3150(3)
O7 O -0.3049(7) -0.0307(5) 0.4371(3)
O8 O -0.2870(7) -0.2659(5) 0.5826(3)
O9 O -0.0493(7) -0.4544(5) 0.6563(3)
O10 O 0.4671(7) 0.7412(6) -0.2683(3)
H2 H 0.3443 0.7756 -0.2801
O11 O 0.1521(7) 0.6304(6) -0.1158(3)
H3 H 0.0670 0.5742 -0.1334
C1 C 0.2933(9) 0.1029(7) 0.0130(4)
C2 C 0.3332(9) 0.2294(7) -0.0651(3)
N1 N 0.4088(8) 0.3492(5) -0.0336(3)
N2 N 0.2150(8) -0.1668(6) 0.3722(3)
N3 N 0.3321(8) -0.2915(6) 0.4206(3)
N4 N 0.2295(8) -0.3659(6) 0.5022(3)
N5 N 0.4088(8) 0.2989(5) 0.0615(3)
N6 N 0.3375(7) 0.1487(6) 0.0908(3)
C3 C 0.2181(10) -0.0624(7) 0.0196(4)
C4 C 0.3191(10) 0.2562(8) -0.1699(4)
C5 C 0.0413(9) -0.2877(7) 0.5053(4)
C6 C 0.0319(10) -0.1610(7) 0.4228(4)
C7 C -0.1272(10) -0.0284(7) 0.3873(4)
C8 C -0.1083(10) -0.3428(7) 0.5881(4)
H4 H 0.797(13) 0.386(2) -0.144(3)
H5 H 0.525(7) 0.732(8) -0.320(2)
H6 H 0.085(4) 0.707(5) -0.102(5)
H7 H 0.0574 -0.0913 -0.0703
H8 H -0.2993 -0.1057 0.4859
Ag2_2 Ag 0.37394(8) -0.56968(6) 0.61109(3)
Ag2A Ag 0.62606(8) -0.43032(6) 0.38891(3)
Zn1A Zn 0.53192(12) 0.43694(8) 0.14610(4)
N3A N 0.6679(8) 0.2915(6) -0.4206(3)
N4_2 N 0.2295(8) 0.6341(6) -0.4978(3)
N5A N 0.5912(8) 0.7011(5) -0.0615(3)
loop_
_geom_bond_atom_site_label_1
_geom_bond_atom_site_label_2
_geom_bond_site_symmetry_1
_geom_bond_site_symmetry_2
O1 H1 1_555 1_555
Ag1 N2 1_555 1_555
Ag2 O2 1_555 1_555
Zn1 O1 1_555 1_555
O2 Zn1 1_555 1_555
O3 C4 1_555 1_555
O4 C3 1_555 1_555
O5 C3 1_555 1_555
O6 C7 1_555 1_555
O7 C7 1_555 1_555
O8 C8 1_555 1_555
O9 C8 1_555 1_555
O10 Zn1 1_555 1_555
H2 O10 1_555 1_555
O11 Zn1 1_555 1_555
H3 O11 1_555 1_555
C1 C2 1_555 1_555
C2 N1 1_555 1_555
N1 Zn1 1_555 1_555
N2 N3 1_555 1_555
N3 N4 1_555 1_555
N4 C5 1_555 1_555
N5 N1 1_555 1_555
N6 Ag1 1_555 1_555
C3 C1 1_555 1_555
C4 O2 1_555 1_555
C5 C6 1_555 1_555
C6 N2 1_555 1_555
C7 C6 1_555 1_555
C8 C5 1_555 1_555
H4 O1 1_555 1_555
H5 O10 1_555 1_555
H6 O11 1_555 1_555
H7 O4 1_555 1_555
H8 O7 1_555 1_555
Ag2_2 N4 1_555 1_555
Ag2A N3 1_555 1_555
Zn1A N5 1_555 1_555
N3A Ag2 1_555 1_555
N4_2 Ag2 1_555 1_555
N5A Zn1 1_555 1_555
C1 N6 1_555 1_555
C2 C4 1_555 1_555
N5 N6 1_555 1_555

#END
