
#######################################################################
#
#                 Cambridge Crystallographic Data Centre
#                                CCDC 
#
#######################################################################
#
# If this CIF has been generated from an entry in the Cambridge 
# Structural Database, then it will include bibliographic, chemical, 
# crystal, experimental, refinement or atomic coordinate data resulting 
# from the CCDC's data processing and validation procedures.
#
#######################################################################

data_BIPGAK
_symmetry_cell_setting           triclinic
_symmetry_space_group_name_H-M   'P -1'
_symmetry_Int_Tables_number      2
_space_group_name_Hall           '-P 1'
loop_
_symmetry_equiv_pos_site_id
_symmetry_equiv_pos_as_xyz
1 x,y,z
2 -x,-y,-z
_cell_length_a                   6.2376(12)
_cell_length_b                   8.6655(17)
_cell_length_c                   14.490(3)
_cell_angle_alpha                74.19(3)
_cell_angle_beta                 89.09(3)
_cell_angle_gamma                88.70(3)
_cell_volume                     753.352
loop_
_atom_site_label
_atom_site_type_symbol
_atom_site_fract_x
_atom_site_fract_y
_atom_site_fract_z
Ag1 Ag 0.28870(7) 0.50315(5) 1.23817(3)
N1 N 0.3385(6) 0.6484(5) 1.0915(3)
N2 N 0.2134(6) 0.3317(5) 1.3722(3)
N3 N 0.4107(6) 0.7983(4) 1.0623(3)
C1 C 0.2918(7) 0.6025(6) 1.0134(3)
C2 C 0.0310(7) 0.3387(6) 1.4223(3)
N4 N 0.3308(6) 0.2076(5) 1.4196(3)
N5 N 0.4097(6) 0.8487(4) 0.9666(3)
Co1 Co 0.53209(10) 0.94081(7) 1.14486(5)
C3 C 0.3334(7) 0.7290(5) 0.9345(3)
C4 C 0.2170(8) 0.4386(6) 1.0178(4)
C5 C -0.1273(8) 0.4704(6) 1.3868(4)
C6 C 0.0417(8) 0.2129(6) 1.5051(3)
N6 N 0.2280(6) 0.1337(5) 1.5023(3)
Ag2 Ag 0.62414(7) 0.06930(5) 1.38894(3)
C7 C 0.3188(7) 0.7574(6) 0.8294(3)
O1 O 0.1814(6) 0.4101(4) 0.9360(3)
O2 O 0.1908(6) 0.3397(4) 1.0957(3)
O3 O -0.3048(6) 0.4680(5) 1.4360(3)
O4 O -0.0930(6) 0.5795(4) 1.3146(3)
C8 C -0.1075(8) 0.1587(6) 1.5892(3)
O5 O 0.3652(6) 0.8933(4) 0.7790(2)
O6 O 0.1543(5) 1.1289(5) 0.8831(3)
O7 O 0.4711(6) 1.2456(4) 0.7328(2)
O8 O 0.7862(5) 0.9868(4) 0.8301(2)
O9 O 0.2658(6) 0.6418(4) 0.7965(2)
H1 H 0.2229 0.4856 0.8924
H2 H -0.2985 0.3943 1.4855
O10 O -0.0521(6) 0.0476(4) 1.6569(2)
O11 O -0.2884(5) 0.2338(5) 1.5820(2)
H3 H 0.128(9) 1.222(4) 0.889(7)
H4 H 0.034(4) 1.091(6) 0.875(4)
H5 H 0.349(5) 1.285(7) 0.715(4)
H6 H 0.533(8) 1.229(8) 0.683(3)
H7 H 0.808(9) 0.888(2) 0.858(3)
H8 H 0.833(9) 0.999(5) 0.7730(15)
Co1A Co 0.46791(10) 1.05919(7) 0.85514(5)
Ag2A Ag 0.37586(7) -0.06930(5) 1.61106(3)
N3A N 0.5893(6) 1.2017(4) 0.9377(3)
Ag2A_2 Ag 0.37586(7) 0.93070(5) 0.61106(3)
N4A N 0.6692(6) 0.7924(5) 0.5804(3)
N6_2 N 0.2280(6) 1.1337(5) 0.5023(3)
loop_
_geom_bond_atom_site_label_1
_geom_bond_atom_site_label_2
_geom_bond_site_symmetry_1
_geom_bond_site_symmetry_2
Ag1 N1 1_555 1_555
N1 N3 1_555 1_555
N2 Ag1 1_555 1_555
N3 N5 1_555 1_555
C1 N1 1_555 1_555
C2 N2 1_555 1_555
N4 N2 1_555 1_555
N5 C3 1_555 1_555
Co1 N3 1_555 1_555
C3 C1 1_555 1_555
C4 C1 1_555 1_555
C5 C2 1_555 1_555
C6 C2 1_555 1_555
N6 N4 1_555 1_555
Ag2 N4 1_555 1_555
C7 C3 1_555 1_555
O1 C4 1_555 1_555
O2 C4 1_555 1_555
O3 C5 1_555 1_555
O4 C5 1_555 1_555
C8 C6 1_555 1_555
O5 C7 1_555 1_555
O6 H3 1_555 1_555
O7 H5 1_555 1_555
O8 H7 1_555 1_555
O9 C7 1_555 1_555
H1 O1 1_555 1_555
H2 O3 1_555 1_555
O10 C8 1_555 1_555
O11 C8 1_555 1_555
H4 O6 1_555 1_555
H6 O7 1_555 1_555
H8 O8 1_555 1_555
Co1A N5 1_555 1_555
Ag2A N6 1_555 1_555
N3A Co1A 1_555 1_555
Ag2A_2 O5 1_555 1_555
N4A Ag2A_2 1_555 1_555
N6_2 Ag2A_2 1_555 1_555
C6 N6 1_555 1_555
O5 Co1A 1_555 1_555
O6 Co1A 1_555 1_555
O7 Co1A 1_555 1_555
O8 Co1A 1_555 1_555

#END
