
#######################################################################
#
#                 Cambridge Crystallographic Data Centre
#                                CCDC 
#
#######################################################################
#
# If this CIF has been generated from an entry in the Cambridge 
# Structural Database, then it will include bibliographic, chemical, 
# crystal, experimental, refinement or atomic coordinate data resulting 
# from the CCDC's data processing and validation procedures.
#
#######################################################################

data_BIPGUD
_symmetry_cell_setting           triclinic
_symmetry_space_group_name_H-M   'P -1'
_symmetry_Int_Tables_number      2
_space_group_name_Hall           '-P 1'
loop_
_symmetry_equiv_pos_site_id
_symmetry_equiv_pos_as_xyz
1 x,y,z
2 -x,-y,-z
_cell_length_a                   7.5590(15)
_cell_length_b                   10.862(2)
_cell_length_c                   13.144(3)
_cell_angle_alpha                72.12(3)
_cell_angle_beta                 80.82(3)
_cell_angle_gamma                84.33(3)
_cell_volume                     1012.49
loop_
_atom_site_label
_atom_site_type_symbol
_atom_site_fract_x
_atom_site_fract_y
_atom_site_fract_z
Co1 Co 0.57675(3) 0.11242(2) 0.304973(19)
N1 N 0.4339(2) 0.04799(16) 0.20221(14)
N2 N 0.4971(3) 0.30973(17) 0.22835(15)
O1 O 0.3255(3) 0.17175(19) -0.06642(15)
O2 O 0.0993(3) 0.48699(19) 0.13359(18)
O3 O 0.70617(18) 0.18085(14) 0.40515(12)
O4 O 0.99550(19) 0.12664(16) 0.36146(13)
O5 O 0.7982(2) 0.30516(13) 0.54439(12)
O6 O 0.8003(2) 0.87870(14) 0.22309(11)
O7 O 0.66386(19) 0.91639(13) 0.37453(11)
O8 O 0.34464(19) 0.09033(15) 0.41483(12)
O9 O 0.8296(2) 0.12620(14) 0.19589(12)
C1 C 0.3427(3) -0.0604(2) 0.24134(18)
C2 C 0.2407(3) -0.0992(2) 0.1793(2)
C3 C 0.2306(3) -0.0245(2) 0.0735(2)
C4 C 0.3251(3) 0.0864(2) 0.03338(18)
C5 C 0.4259(3) 0.1177(2) 0.10036(17)
C6 C 0.6156(4) 0.4019(2) 0.1970(2)
C7 C 0.5687(4) 0.5290(2) 0.1459(3)
C8 C 0.3953(4) 0.5628(2) 0.1228(2)
C9 C 0.2729(3) 0.4674(2) 0.15331(19)
C10 C 0.3282(3) 0.3427(2) 0.20778(18)
C11 C 0.8695(3) 0.17379(17) 0.41551(16)
C12 C 0.9263(3) 0.22151(19) 0.50237(17)
C13 C 0.7883(3) 0.43298(18) 0.48566(16)
C14 C 0.6829(3) 0.51529(19) 0.53698(16)
C15 C 0.6617(3) 0.64567(19) 0.48400(16)
C16 C 0.7479(2) 0.69777(18) 0.37905(16)
C17 C 0.8529(3) 0.61416(19) 0.32895(17)
C18 C 0.8726(3) 0.48303(19) 0.38085(17)
C19 C 0.7355(2) 0.83948(18) 0.32175(15)
H1 H 0.347(3) 0.092(3) 0.4780(11)
H2 H 0.2391(18) 0.099(3) 0.3997(19)
H3 H 0.830(4) 0.0493(14) 0.191(2)
H4 H 0.898(3) 0.126(2) 0.2412(19)
H5 H 0.3482 -0.1109 0.3122
H6 H 0.1791 -0.1750 0.2084
H7 H 0.1620 -0.0487 0.0307
H8 H 0.4914 0.1917 0.0725
H9 H 0.7336 0.3796 0.2102
H10 H 0.6532 0.5917 0.1269
H11 H 0.3617 0.6480 0.0875
H12 H 0.2446 0.2791 0.2311
H13 H 0.9539 0.1467 0.5617
H14 H 1.0360 0.2668 0.4728
H15 H 0.6266 0.4820 0.6073
H16 H 0.5894 0.6995 0.5184
H17 H 0.9110 0.6474 0.2591
H18 H 0.9418 0.4286 0.3458
H19 H 0.287(5) 0.148(4) -0.116(2)
H20 H 0.092(6) 0.5648(16) 0.094(3)
O7_2 O 0.66386(19) -0.08361(13) 0.37453(11)
Co1_2 Co 0.57675(3) 1.11242(2) 0.304973(19)
O10 O 0.9636(4) 0.2836(3) -0.0038(2)
H21 H 0.8843 0.2559 0.0503
H22 H 1.0594 0.2366 0.0081
loop_
_geom_bond_atom_site_label_1
_geom_bond_atom_site_label_2
_geom_bond_site_symmetry_1
_geom_bond_site_symmetry_2
Co1 N1 1_555 1_555
N1 C1 1_555 1_555
N2 Co1 1_555 1_555
O1 C4 1_555 1_555
O2 C9 1_555 1_555
O3 Co1 1_555 1_555
O4 C11 1_555 1_555
O5 C12 1_555 1_555
O6 C19 1_555 1_555
O7 C19 1_555 1_555
O8 Co1 1_555 1_555
O9 Co1 1_555 1_555
C1 C2 1_555 1_555
C2 C3 1_555 1_555
C3 C4 1_555 1_555
C4 C5 1_555 1_555
C5 N1 1_555 1_555
C6 N2 1_555 1_555
C7 C6 1_555 1_555
C8 C7 1_555 1_555
C9 C8 1_555 1_555
C10 N2 1_555 1_555
C11 O3 1_555 1_555
C12 C11 1_555 1_555
C13 O5 1_555 1_555
C14 C13 1_555 1_555
C15 C14 1_555 1_555
C16 C15 1_555 1_555
C17 C16 1_555 1_555
C18 C13 1_555 1_555
C19 C16 1_555 1_555
H1 O8 1_555 1_555
H2 O8 1_555 1_555
H3 O9 1_555 1_555
H4 O9 1_555 1_555
H5 C1 1_555 1_555
H6 C2 1_555 1_555
H7 C3 1_555 1_555
H8 C5 1_555 1_555
H9 C6 1_555 1_555
H10 C7 1_555 1_555
H11 C8 1_555 1_555
H12 C10 1_555 1_555
H13 C12 1_555 1_555
H14 C12 1_555 1_555
H15 C14 1_555 1_555
H16 C15 1_555 1_555
H17 C17 1_555 1_555
H18 C18 1_555 1_555
H19 O1 1_555 1_555
H20 O2 1_555 1_555
O10 H21 1_555 1_555
H22 O10 1_555 1_555
O7_2 Co1 1_555 1_555
Co1_2 O7 1_555 1_555
C9 C10 1_555 1_555
C17 C18 1_555 1_555

#END
