
#######################################################################
#
#                 Cambridge Crystallographic Data Centre
#                                CCDC 
#
#######################################################################
#
# If this CIF has been generated from an entry in the Cambridge 
# Structural Database, then it will include bibliographic, chemical, 
# crystal, experimental, refinement or atomic coordinate data resulting 
# from the CCDC's data processing and validation procedures.
#
#######################################################################

data_BIPJEQ
_symmetry_cell_setting           monoclinic
_symmetry_space_group_name_H-M   'P 21/c'
_symmetry_Int_Tables_number      14
_space_group_name_Hall           '-P 2ybc'
loop_
_symmetry_equiv_pos_site_id
_symmetry_equiv_pos_as_xyz
1 x,y,z
2 -x,1/2+y,1/2-z
3 -x,-y,-z
4 x,1/2-y,1/2+z
_cell_length_a                   10.360(2)
_cell_length_b                   9.6427(19)
_cell_length_c                   14.352(3)
_cell_angle_alpha                90
_cell_angle_beta                 91.36(3)
_cell_angle_gamma                90
_cell_volume                     1433.34
loop_
_atom_site_label
_atom_site_type_symbol
_atom_site_fract_x
_atom_site_fract_y
_atom_site_fract_z
Cu1 Cu 0.33050(5) 0.58475(6) 0.19750(4)
N1 N 0.1711(3) 0.6816(4) 0.1433(3)
N2 N 0.2080(3) 0.4156(4) 0.1792(2)
N3 N 0.4589(3) 0.4557(4) 0.2585(2)
N4 N 0.5666(3) 0.2622(4) 0.2957(3)
O1 O 0.2766(3) 0.5963(3) 0.3578(2)
O2 O 0.3210(3) 0.4742(4) 0.4869(2)
O3 O 0.4476(3) 0.2638(4) 0.5300(2)
O4 O 0.5852(3) 0.1214(4) 0.4631(3)
C1 C 0.1579(5) 0.8132(5) 0.1195(4)
C2 C 0.0414(5) 0.8672(6) 0.0841(4)
C3 C -0.0634(5) 0.7830(6) 0.0719(4)
C4 C -0.0533(4) 0.6429(6) 0.0940(3)
C5 C -0.1564(4) 0.5421(6) 0.0824(3)
C6 C -0.1392(4) 0.4088(6) 0.1053(3)
C7 C -0.0156(4) 0.3587(5) 0.1406(3)
C8 C 0.0114(5) 0.2204(6) 0.1601(3)
C9 C 0.1331(4) 0.1825(5) 0.1885(4)
C10 C 0.2290(4) 0.2829(5) 0.1960(3)
C11 C 0.0871(4) 0.4550(5) 0.1516(3)
C12 C 0.0678(4) 0.5957(5) 0.1302(3)
C13 C 0.5397(4) 0.3559(5) 0.2296(3)
C14 C 0.3380(4) 0.5056(5) 0.4018(3)
C15 C 0.4334(4) 0.4238(5) 0.3493(3)
C16 C 0.5003(4) 0.3034(4) 0.3725(3)
C17 C 0.5135(4) 0.2227(5) 0.4592(3)
H1 H 0.2286 0.8720 0.1266
H2 H 0.0354 0.9608 0.0687
H3 H -0.1412 0.8190 0.0490
H4 H -0.2362 0.5709 0.0586
H5 H -0.2079 0.3471 0.0984
H6 H -0.0532 0.1538 0.1538
H7 H 0.1517 0.0904 0.2026
H8 H 0.3120 0.2553 0.2138
H9 H 0.5731 0.3526 0.1700
H10 H 0.395(5) 0.330(4) 0.519(4)
N4A N 0.4334(3) 0.7622(4) 0.2043(3)
O4A O 0.4148(3) 0.6214(4) 0.0369(3)
Cu1A Cu 0.66950(5) 0.08475(6) 0.30250(4)
loop_
_geom_bond_atom_site_label_1
_geom_bond_atom_site_label_2
_geom_bond_site_symmetry_1
_geom_bond_site_symmetry_2
Cu1 N1 1_555 1_555
N1 C1 1_555 1_555
N2 Cu1 1_555 1_555
N3 Cu1 1_555 1_555
N4 C13 1_555 1_555
O1 Cu1 1_555 1_555
O2 C14 1_555 1_555
O3 C17 1_555 1_555
O4 C17 1_555 1_555
C1 C2 1_555 1_555
C2 C3 1_555 1_555
C3 C4 1_555 1_555
C4 C5 1_555 1_555
C5 C6 1_555 1_555
C6 C7 1_555 1_555
C7 C8 1_555 1_555
C8 C9 1_555 1_555
C9 C10 1_555 1_555
C10 N2 1_555 1_555
C11 N2 1_555 1_555
C12 N1 1_555 1_555
C13 N3 1_555 1_555
C14 O1 1_555 1_555
C15 N3 1_555 1_555
C16 N4 1_555 1_555
C17 C16 1_555 1_555
H1 C1 1_555 1_555
H2 C2 1_555 1_555
H3 C3 1_555 1_555
H4 C5 1_555 1_555
H5 C6 1_555 1_555
H6 C8 1_555 1_555
H7 C9 1_555 1_555
H8 C10 1_555 1_555
H9 C13 1_555 1_555
H10 O3 1_555 1_555
N4A Cu1 1_555 1_555
O4A Cu1 1_555 1_555
Cu1A N4 1_555 1_555
O4 Cu1A 1_555 1_555
C4 C12 1_555 1_555
C7 C11 1_555 1_555
C11 C12 1_555 1_555
C14 C15 1_555 1_555
C15 C16 1_555 1_555

#END
