
#######################################################################
#
#                 Cambridge Crystallographic Data Centre
#                                CCDC 
#
#######################################################################
#
# If this CIF has been generated from an entry in the Cambridge 
# Structural Database, then it will include bibliographic, chemical, 
# crystal, experimental, refinement or atomic coordinate data resulting 
# from the CCDC's data processing and validation procedures.
#
#######################################################################

data_BIPJOB
_symmetry_cell_setting           monoclinic
_symmetry_space_group_name_H-M   'P 21/n'
_symmetry_Int_Tables_number      14
_space_group_name_Hall           '-P 2yn'
loop_
_symmetry_equiv_pos_site_id
_symmetry_equiv_pos_as_xyz
1 x,y,z
2 1/2-x,1/2+y,1/2-z
3 -x,-y,-z
4 1/2+x,1/2-y,1/2+z
_cell_length_a                   14.4585(9)
_cell_length_b                   22.5407(11)
_cell_length_c                   15.7106(10)
_cell_angle_alpha                90
_cell_angle_beta                 111.913(8)
_cell_angle_gamma                90
_cell_volume                     4750.24
loop_
_atom_site_label
_atom_site_type_symbol
_atom_site_fract_x
_atom_site_fract_y
_atom_site_fract_z
W1 W 1.155281(19) 0.640714(11) 0.543756(18)
Tb1 Tb 0.77522(2) 0.598061(14) 0.33828(2)
Ni1 Ni 0.83243(6) 0.74862(3) 0.35409(6)
O1 O 0.6199(3) 0.6025(2) 0.3731(3)
O2 O 0.6463(4) 0.5453(2) 0.2094(3)
C1 C 1.3174(5) 0.6379(3) 0.5933(5)
O3 O 0.8452(3) 0.57120(19) 0.2187(3)
C2 C 1.0248(5) 0.6972(3) 0.5023(4)
C3 C 0.8339(6) 0.8722(3) 0.4301(5)
H1 H 0.8907 0.8709 0.4878
H2 H 0.7885 0.9024 0.4355
C4 C 1.0285(6) 0.7000(3) 0.1787(5)
H3 H 1.0678 0.7299 0.1690
C5 C 0.9601(5) 0.8554(3) 0.3523(5)
H4 H 0.9874 0.8757 0.3125
H5 H 1.0108 0.8551 0.4137
N1 N 1.4026(4) 0.6346(3) 0.6107(4)
C6 C 0.9721(5) 0.7121(3) 0.2312(4)
C7 C 1.2555(7) 0.6315(4) 0.3103(6)
H6 H 1.2783 0.6595 0.2793
C8 C 0.9113(6) 0.6115(3) 0.2035(5)
N2 N 1.0278(4) 0.6038(3) 0.6722(4)
C9 C 0.5970(5) 0.6559(3) 0.4048(5)
N3 N 0.7300(4) 0.7748(2) 0.2267(4)
C10 C 0.6625(5) 0.7029(3) 0.4044(5)
C11 C 1.1932(5) 0.7755(3) 0.5099(5)
H7 H 1.1717 0.7819 0.5580
N4 N 1.2274(4) 0.5069(2) 0.6245(4)
C12 C 1.1850(5) 0.5512(3) 0.4001(5)
H8 H 1.1616 0.5236 0.4312
C13 C 1.0279(7) 0.6451(4) 0.1409(6)
H9 H 1.0676 0.6378 0.1072
O4 O 0.5730(4) 0.5836(2) 0.0721(3)
C14 C 0.5063(6) 0.7202(4) 0.4672(6)
H10 H 0.4559 0.7261 0.4897
C15 C 1.2249(5) 0.7102(3) 0.4079(5)
C16 C 1.2527(6) 0.8136(4) 0.3977(6)
H11 H 1.2720 0.8454 0.3704
C17 C 1.2027(5) 0.5546(3) 0.5968(4)
C18 C 0.9139(5) 0.6670(3) 0.2468(4)
C19 C 1.2253(5) 0.6492(3) 0.3800(5)
C20 C 1.2141(6) 0.5320(4) 0.3322(5)
H12 H 1.2088 0.4920 0.3163
O5 O 0.6584(4) 0.6394(2) 0.1876(3)
O6 O 0.7357(3) 0.69031(19) 0.3766(3)
N5 N 1.1889(4) 0.6094(2) 0.4245(4)
O7 O 0.8225(3) 0.5958(2) 0.5078(3)
H13 H 0.8857 0.5865 0.5354
H14 H 0.8129 0.6307 0.5280
N6 N 1.1950(4) 0.7193(2) 0.4791(4)
N7 N 0.6239(4) 0.5895(3) 0.1539(4)
C21 C 1.2227(5) 0.8233(3) 0.4712(5)
H15 H 1.2225 0.8614 0.4938
O8 O 0.8592(3) 0.67262(18) 0.2977(3)
C22 C 0.9681(6) 0.6008(3) 0.1529(5)
H16 H 0.9666 0.5638 0.1264
C23 C 1.2536(6) 0.7575(4) 0.3663(6)
H17 H 1.2734 0.7508 0.3171
C24 C 1.2521(6) 0.5724(4) 0.2863(6)
H18 H 1.2745 0.5599 0.2409
C25 C 0.8551(6) 0.5095(3) 0.1959(5)
H19 H 0.9217 0.4961 0.2301
H20 H 0.8414 0.5060 0.1315
H21 H 0.8086 0.4857 0.2115
N8 N 0.9530(4) 0.7244(2) 0.4767(4)
N9 N 0.9364(4) 0.7936(2) 0.3203(4)
N10 N 0.7835(4) 0.8147(2) 0.4143(4)
C26 C 0.9804(5) 0.7718(3) 0.2707(5)
H22 H 1.0240 0.7973 0.2576
C27 C 0.8696(6) 0.8897(3) 0.3534(5)
H23 H 0.8151 0.8839 0.2949
H24 H 0.8858 0.9316 0.3592
C28 C 0.5210(6) 0.6642(4) 0.4355(6)
H25 H 0.4791 0.6329 0.4354
C29 C 0.5667(6) 0.7657(4) 0.4645(6)
H26 H 0.5549 0.8030 0.4836
C30 C 0.7077(5) 0.8099(3) 0.4387(5)
H27 H 0.6907 0.8442 0.4624
C31 C 0.6461(5) 0.7593(3) 0.4343(5)
N11 N 0.9529(4) 0.5698(2) 0.4148(4)
C32 C 0.5589(6) 0.5517(3) 0.3731(6)
H28 H 0.5810 0.5180 0.3486
H29 H 0.4906 0.5601 0.3360
H30 H 0.5645 0.5434 0.4348
C33 C 1.0755(5) 0.6155(3) 0.6316(4)
C34 C 0.7026(5) 0.8040(3) 0.1621(4)
C35 C 1.0273(5) 0.5916(3) 0.4598(4)
W1C W 0.655281(19) 0.859286(11) 0.043756(18)
Tb1B Tb 1.22478(2) 0.401939(14) 0.66172(2)
N4B N 0.7726(4) 0.4931(2) 0.3755(4)
C34C C 1.2026(5) 0.6960(3) 0.6621(4)
N12 N 0.3757(8) 0.6429(4) 0.1663(6)
C36 C 0.4779(6) 0.7403(4) 0.1953(6)
H31 H 0.4486 0.7663 0.1439
H32 H 0.5455 0.7317 0.2027
H33 H 0.4770 0.7590 0.2499
C37 C 0.4218(7) 0.6871(4) 0.1794(6)
C38 C 0.6023(8) 0.4978(5) 0.9080(8)
H34 H 0.6066 0.4555 0.9023
H35 H 0.5336 0.5095 0.8854
H36 H 0.6335 0.5088 0.9714
C39 C 0.6479(10) 0.5228(5) 0.8637(8)
N13 N 0.6642(19) 0.5474(12) 0.8050(15)
O9 O 0.2491(13) 0.3231(7) 0.3844(12)
H37 H 0.2036 0.3397 0.3376
H38 H 0.2945 0.3489 0.3929
O10 O 0.1000(12) 0.3776(7) 0.2211(11)
H39 H 0.0621 0.3876 0.2501
H40 H 0.0750 0.4011 0.1764
O11 O 0.6053(10) 0.5977(6) 0.6444(9)
H41 H 0.5522 0.6162 0.6334
H42 H 0.6129 0.5838 0.6981
O12 O 0.970(3) 0.4387(14) 1.057(2)
H43 H 0.9676 0.4404 1.1096
H44 H 0.9116 0.4382 1.0161
O13 O 0.943(3) 0.5455(14) 0.924(2)
H45 H 0.8797 0.5410 0.9009
N14? N 0.6960(18) 0.5479(12) 0.8294(16)
O14? O 0.2531(16) 0.3560(9) 0.3660(15)
H46? H 0.2297 0.3729 0.3223
H47? H 0.2683 0.3264 0.3426
O15? O 0.8893(13) 0.4519(8) 0.9991(11)
H48? H 0.8459 0.4789 0.9916
H49? H 0.9367 0.4653 0.9850
O16? O 0.902(4) 0.495(3) 0.960(3)
H50? H 0.8582 0.4682 0.9373
H51? H 0.9552 0.4851 0.9517
O17? O 0.783(3) 0.5058(18) 0.933(3)
H52? H 0.7518 0.4851 0.9595
H53? H 0.7804 0.5422 0.9466
H54? H 0.9674 0.5232 0.9704
loop_
_geom_bond_atom_site_label_1
_geom_bond_atom_site_label_2
_geom_bond_site_symmetry_1
_geom_bond_site_symmetry_2
W1 C1 1_555 1_555
Tb1 O1 1_555 1_555
Ni1 N3 1_555 1_555
O1 C9 1_555 1_555
O2 Tb1 1_555 1_555
C1 N1 1_555 1_555
O3 Tb1 1_555 1_555
C2 W1 1_555 1_555
C3 H1 1_555 1_555
H2 C3 1_555 1_555
C4 H3 1_555 1_555
C5 H4 1_555 1_555
H5 C5 1_555 1_555
C6 C4 1_555 1_555
C7 H6 1_555 1_555
C8 O3 1_555 1_555
N2 C33 1_555 1_555
C9 C10 1_555 1_555
N3 C34 1_555 1_555
C10 O6 1_555 1_555
C11 H7 1_555 1_555
N4 C17 1_555 1_555
C12 H8 1_555 1_555
C13 C4 1_555 1_555
H9 C13 1_555 1_555
O4 N7 1_555 1_555
C14 H10 1_555 1_555
C15 C19 1_555 1_555
C16 H11 1_555 1_555
C17 W1 1_555 1_555
C18 C6 1_555 1_555
C19 C7 1_555 1_555
C20 C12 1_555 1_555
H12 C20 1_555 1_555
O5 Tb1 1_555 1_555
O6 Tb1 1_555 1_555
N5 W1 1_555 1_555
O7 Tb1 1_555 1_555
H13 O7 1_555 1_555
H14 O7 1_555 1_555
N6 W1 1_555 1_555
N7 O2 1_555 1_555
C21 C11 1_555 1_555
H15 C21 1_555 1_555
O8 Tb1 1_555 1_555
C22 C8 1_555 1_555
H16 C22 1_555 1_555
C23 C15 1_555 1_555
H17 C23 1_555 1_555
C24 C7 1_555 1_555
H18 C24 1_555 1_555
C25 O3 1_555 1_555
H19 C25 1_555 1_555
H20 C25 1_555 1_555
H21 C25 1_555 1_555
N8 Ni1 1_555 1_555
N9 Ni1 1_555 1_555
N10 Ni1 1_555 1_555
C26 C6 1_555 1_555
H22 C26 1_555 1_555
C27 C3 1_555 1_555
H23 C27 1_555 1_555
H24 C27 1_555 1_555
C28 C9 1_555 1_555
H25 C28 1_555 1_555
C29 C14 1_555 1_555
H26 C29 1_555 1_555
C30 N10 1_555 1_555
H27 C30 1_555 1_555
C31 C10 1_555 1_555
N11 Tb1 1_555 1_555
C32 O1 1_555 1_555
H28 C32 1_555 1_555
H29 C32 1_555 1_555
H30 C32 1_555 1_555
C33 W1 1_555 1_555
C34 W1C 1_555 1_555
C35 W1 1_555 1_555
N12 C37 1_555 1_555
C36 H31 1_555 1_555
H32 C36 1_555 1_555
H33 C36 1_555 1_555
C37 C36 1_555 1_555
C38 H34 1_555 1_555
H35 C38 1_555 1_555
H36 C38 1_555 1_555
C39 C38 1_555 1_555
N13 C39 1_555 1_555
O9 H37 1_555 1_555
H38 O9 1_555 1_555
O10 H39 1_555 1_555
H40 O10 1_555 1_555
O11 H41 1_555 1_555
H42 O11 1_555 1_555
O12 H43 1_555 1_555
H44 O12 1_555 1_555
O13 H45 1_555 1_555
Tb1B N4 1_555 1_555
N4B Tb1 1_555 1_555
C34C W1 1_555 1_555
Ni1 O6 1_555 1_555
Ni1 O8 1_555 1_555
C2 N8 1_555 1_555
C3 N10 1_555 1_555
C5 N9 1_555 1_555
C5 C27 1_555 1_555
C8 C18 1_555 1_555
C11 N6 1_555 1_555
C12 N5 1_555 1_555
C13 C22 1_555 1_555
C14 C28 1_555 1_555
C15 N6 1_555 1_555
C16 C21 1_555 1_555
C16 C23 1_555 1_555
C18 O8 1_555 1_555
C19 N5 1_555 1_555
C20 C24 1_555 1_555
O5 N7 1_555 1_555
N9 C26 1_555 1_555
C29 C31 1_555 1_555
C30 C31 1_555 1_555
N11 C35 1_555 1_555

#END
