
#######################################################################
#
#                 Cambridge Crystallographic Data Centre
#                                CCDC 
#
#######################################################################
#
# If this CIF has been generated from an entry in the Cambridge 
# Structural Database, then it will include bibliographic, chemical, 
# crystal, experimental, refinement or atomic coordinate data resulting 
# from the CCDC's data processing and validation procedures.
#
#######################################################################

data_BIPJAM
_symmetry_cell_setting           triclinic
_symmetry_space_group_name_H-M   'P -1'
_symmetry_Int_Tables_number      2
_space_group_name_Hall           '-P 1'
loop_
_symmetry_equiv_pos_site_id
_symmetry_equiv_pos_as_xyz
1 x,y,z
2 -x,-y,-z
_cell_length_a                   4.7700(10)
_cell_length_b                   5.797(2)
_cell_length_c                   22.923(7)
_cell_angle_alpha                83.65(2)
_cell_angle_beta                 84.160(10)
_cell_angle_gamma                84.920(10)
_cell_volume                     624.783
loop_
_atom_site_label
_atom_site_type_symbol
_atom_site_fract_x
_atom_site_fract_y
_atom_site_fract_z
Mn1 Mn 1.0000 0.5000 0.5000
Mn2 Mn -0.5000 -0.5000 1.0000
O1 O 0.7336(5) 0.3480(4) 0.57526(10)
O2 O 1.0028(5) 0.0387(4) 0.61097(10)
O3 O 0.3982(5) 0.3519(4) 0.67319(10)
O4 O -0.0685(5) 0.0262(4) 0.85906(11)
O5 O -0.2285(4) -0.2940(4) 0.93834(10)
O6 O 0.1878(5) -0.5059(4) 0.93369(10)
O7 O 0.7348(5) 0.8176(4) 0.49539(12)
O8 O 0.7548(5) 0.3546(4) 0.43823(11)
O9 O -0.7483(5) -0.1842(4) 1.02398(11)
C1 C 0.7924(7) 0.1846(6) 0.61384(14)
C2 C 0.5917(7) 0.1516(6) 0.66945(14)
C3 C 0.2004(7) 0.3546(6) 0.72090(13)
C4 C 0.0114(7) 0.5491(6) 0.72157(15)
C5 C -0.1982(8) 0.5640(6) 0.76744(15)
C6 C -0.2210(7) 0.3859(6) 0.81308(14)
C7 C -0.0276(7) 0.1947(5) 0.81230(13)
C8 C 0.1848(7) 0.1742(6) 0.76672(14)
C9 C 0.1384(7) -0.1637(6) 0.86786(14)
C10 C 0.0210(6) -0.3334(5) 0.91771(12)
H1 H 0.4890 0.0151 0.6686
H2 H 0.6982 0.1281 0.7038
H3 H 0.0252 0.6694 0.6913
H4 H -0.3258 0.6949 0.7678
H5 H -0.3642 0.3955 0.8436
H6 H 0.3134 0.0439 0.7666
H7 H 0.3115 -0.1081 0.8779
H8 H 0.1804 -0.2401 0.8321
H9 H 0.776(8) 0.877(8) 0.4602(8)
H10 H 0.563(3) 0.788(8) 0.4999(17)
H11 H 0.646(7) 0.447(6) 0.4179(14)
H12 H 0.841(8) 0.254(5) 0.4170(14)
H13 H -0.909(5) -0.237(7) 1.0336(18)
H14 H -0.722(8) -0.082(6) 1.0460(15)
O1A O 1.2664(5) 0.6520(4) 0.42474(10)
O2A O 0.9972(5) 0.9613(4) 0.38903(10)
O3A O 1.6018(5) 0.6481(4) 0.32681(10)
O4A O 2.0685(5) 0.9738(4) 0.14094(11)
O5A O 2.2285(4) 1.2940(4) 0.06166(10)
O6A O 1.8122(5) 1.5059(4) 0.06631(10)
C1A C 1.2076(7) 0.8154(6) 0.38616(14)
C2A C 1.4083(7) 0.8484(6) 0.33055(14)
C3A C 1.7996(7) 0.6454(6) 0.27910(13)
C4A C 1.9886(7) 0.4509(6) 0.27843(15)
C5A C 2.1982(8) 0.4360(6) 0.23256(15)
C6A C 2.2210(7) 0.6141(6) 0.18692(14)
C7A C 2.0276(7) 0.8053(5) 0.18770(13)
C8A C 1.8152(7) 0.8258(6) 0.23328(14)
C9A C 1.8616(7) 1.1637(6) 0.13214(14)
C10A C 1.9790(6) 1.3334(5) 0.08229(12)
H1A H 1.5110 0.9849 0.3314
H2A H 1.3018 0.8719 0.2962
H3A H 1.9748 0.3306 0.3087
H4A H 2.3258 0.3051 0.2322
H5A H 2.3642 0.6045 0.1564
H6A H 1.6866 0.9561 0.2334
H7A H 1.6885 1.1081 0.1221
H8A H 1.8196 1.2401 0.1679
O7A O 1.2652(5) 0.1824(4) 0.50461(12)
H9A H 1.224(8) 0.123(8) 0.5398(8)
H10A H 1.437(3) 0.212(8) 0.5001(17)
O8A O 1.2452(5) 0.6454(4) 0.56177(11)
H11A H 1.354(7) 0.553(6) 0.5821(14)
H12A H 1.159(8) 0.746(5) 0.5830(14)
O9A O -0.2517(5) -0.8158(4) 0.97602(11)
H13A H -0.091(5) -0.763(7) 0.9664(18)
H14A H -0.278(8) -0.918(6) 0.9540(15)
O5A_2 O -0.7715(4) -0.7060(4) 1.06166(10)
O6_2 O -0.8122(5) -0.5059(4) 0.93369(10)
O6A_2 O -0.1878(5) -0.4941(4) 1.06631(10)
Mn2_2 Mn 0.5000 -0.5000 1.0000
Mn2_3 Mn 2.5000 1.5000 0.0000
Mn2_4 Mn 1.5000 1.5000 0.0000
loop_
_geom_bond_atom_site_label_1
_geom_bond_atom_site_label_2
_geom_bond_site_symmetry_1
_geom_bond_site_symmetry_2
Mn1 O1 1_555 1_555
Mn2 O5 1_555 1_555
O1 C1 1_555 1_555
O2 C1 1_555 1_555
O3 C2 1_555 1_555
O4 C7 1_555 1_555
O5 C10 1_555 1_555
O6 C10 1_555 1_555
O7 Mn1 1_555 1_555
O8 Mn1 1_555 1_555
O9 Mn2 1_555 1_555
C1 C2 1_555 1_555
C2 H1 1_555 1_555
C3 O3 1_555 1_555
C4 C3 1_555 1_555
C5 C4 1_555 1_555
C6 C5 1_555 1_555
C7 C6 1_555 1_555
C8 C3 1_555 1_555
C9 O4 1_555 1_555
C10 C9 1_555 1_555
H2 C2 1_555 1_555
H3 C4 1_555 1_555
H4 C5 1_555 1_555
H5 C6 1_555 1_555
H6 C8 1_555 1_555
H7 C9 1_555 1_555
H8 C9 1_555 1_555
H9 O7 1_555 1_555
H10 O7 1_555 1_555
H11 O8 1_555 1_555
H12 O8 1_555 1_555
H13 O9 1_555 1_555
H14 O9 1_555 1_555
O1A Mn1 1_555 1_555
O2A C1A 1_555 1_555
O3A C2A 1_555 1_555
O4A C7A 1_555 1_555
O5A C10A 1_555 1_555
O6A C10A 1_555 1_555
C1A O1A 1_555 1_555
C2A C1A 1_555 1_555
C3A O3A 1_555 1_555
C4A C3A 1_555 1_555
C5A C4A 1_555 1_555
C6A C5A 1_555 1_555
C7A C6A 1_555 1_555
C8A C3A 1_555 1_555
C9A O4A 1_555 1_555
C10A C9A 1_555 1_555
H1A C2A 1_555 1_555
H2A C2A 1_555 1_555
H3A C4A 1_555 1_555
H4A C5A 1_555 1_555
H5A C6A 1_555 1_555
H6A C8A 1_555 1_555
H7A C9A 1_555 1_555
H8A C9A 1_555 1_555
O7A Mn1 1_555 1_555
H9A O7A 1_555 1_555
H10A O7A 1_555 1_555
O8A Mn1 1_555 1_555
H11A O8A 1_555 1_555
H12A O8A 1_555 1_555
O9A Mn2 1_555 1_555
H13A O9A 1_555 1_555
H14A O9A 1_555 1_555
O5A_2 Mn2 1_555 1_555
O6_2 Mn2 1_555 1_555
O6A_2 Mn2 1_555 1_555
Mn2_2 O6 1_555 1_555
Mn2_3 O5A 1_555 1_555
Mn2_4 O6A 1_555 1_555
C7 C8 1_555 1_555
C7A C8A 1_555 1_555

#END
