
#######################################################################
#
#                 Cambridge Crystallographic Data Centre
#                                CCDC 
#
#######################################################################
#
# If this CIF has been generated from an entry in the Cambridge 
# Structural Database, then it will include bibliographic, chemical, 
# crystal, experimental, refinement or atomic coordinate data resulting 
# from the CCDC's data processing and validation procedures.
#
#######################################################################

data_BIPKUH
_symmetry_cell_setting           triclinic
_symmetry_space_group_name_H-M   'P -1'
_symmetry_Int_Tables_number      2
_space_group_name_Hall           '-P 1'
loop_
_symmetry_equiv_pos_site_id
_symmetry_equiv_pos_as_xyz
1 x,y,z
2 -x,-y,-z
_cell_length_a                   9.535(3)
_cell_length_b                   9.720(3)
_cell_length_c                   11.955(4)
_cell_angle_alpha                96.928(4)
_cell_angle_beta                 95.608(4)
_cell_angle_gamma                107.680(4)
_cell_volume                     1037.32
loop_
_atom_site_label
_atom_site_type_symbol
_atom_site_fract_x
_atom_site_fract_y
_atom_site_fract_z
Cu1 Cu 1.22885(5) 0.87106(5) -0.12829(4)
Cu2 Cu 1.0000 1.0000 0.5000
Cu3 Cu 0.5000 0.5000 0.0000
N1 N 1.6528(4) 1.1289(5) -0.3944(3)
N2 N 1.5642(5) 0.6942(5) -0.4401(4)
N3 N 0.7695(4) 0.6603(4) 0.1219(3)
N4 N 1.0793(4) 1.0153(4) 0.3008(3)
N5 N 1.0966(3) 0.8520(4) 0.5366(3)
H1 H 1.1681 0.8527 0.4925
H2 H 1.1391 0.8740 0.6099
N6 N 0.8265(3) 0.8234(4) 0.4293(3)
H3 H 0.7951 0.8330 0.3580
H4 H 0.7507 0.8150 0.4701
N7 N 0.4058(4) 0.6529(3) 0.0364(3)
H5 H 0.4766 0.7399 0.0605
H6 H 0.3504 0.6604 -0.0265
N8 N 0.4263(4) 0.4284(4) 0.1411(3)
H7 H 0.4979 0.4063 0.1829
H8 H 0.3466 0.3474 0.1220
S1 S 1.35850(10) 1.05414(11) -0.21304(8)
S2 S 1.28599(12) 0.70134(11) -0.24889(9)
S3 S 1.01584(12) 0.71752(13) -0.09479(9)
S4 S 1.26910(11) 1.00842(12) 0.04549(8)
C1 C 1.5632(5) 1.0533(5) -0.3526(3)
C2 C 1.4507(4) 0.9637(4) -0.2978(3)
C3 C 1.4196(4) 0.8168(4) -0.3133(3)
C4 C 1.4998(5) 0.7493(5) -0.3860(4)
C5 C 0.8760(5) 0.7224(5) 0.0892(3)
C6 C 1.0056(4) 0.7953(4) 0.0405(3)
C7 C 1.1105(4) 0.9172(4) 0.0985(3)
C8 C 1.0918(4) 0.9742(4) 0.2108(3)
C9 C 0.9856(7) 0.7092(6) 0.5166(5)
H9 H 1.0334 0.6356 0.4997
H10 H 0.9414 0.6922 0.5855
C10 C 0.8729(6) 0.6932(6) 0.4269(5)
H11 H 0.9084 0.6744 0.3551
H12 H 0.7880 0.6096 0.4317
C11 C 0.3113(5) 0.6150(5) 0.1257(4)
H13 H 0.2143 0.5477 0.0921
H14 H 0.2977 0.7023 0.1651
C12 C 0.3857(5) 0.5456(5) 0.2074(4)
H15 H 0.3189 0.5050 0.2600
H16 H 0.4740 0.6179 0.2510
N3A N 1.2305(4) 1.3397(4) 0.8781(3)
N4A N 0.9207(4) 0.9847(4) 0.6992(3)
S3A S 0.98416(12) 1.28248(13) 1.09479(9)
S4A S 0.73090(11) 0.99158(12) 0.95451(8)
C5A C 1.1240(5) 1.2776(5) 0.9108(3)
C6A C 0.9944(4) 1.2047(4) 0.9595(3)
C7A C 0.8895(4) 1.0828(4) 0.9015(3)
C8A C 0.9082(4) 1.0258(4) 0.7892(3)
N5A N 0.9034(3) 1.1480(4) 0.4634(3)
H1A H 0.8319 1.1473 0.5075
H2A H 0.8609 1.1260 0.3901
N6A N 1.1735(3) 1.1766(4) 0.5707(3)
H3A H 1.2049 1.1670 0.6420
H4A H 1.2493 1.1850 0.5299
C9A C 1.0144(7) 1.2908(6) 0.4834(5)
H9A H 0.9666 1.3644 0.5003
H10A H 1.0586 1.3078 0.4145
C10A C 1.1271(6) 1.3068(6) 0.5731(5)
H11A H 1.0916 1.3256 0.6449
H12A H 1.2120 1.3904 0.5683
Cu1A Cu 0.77115(5) 1.12894(5) 1.12829(4)
N7A N 0.5942(4) 0.3471(3) -0.0364(3)
H5A H 0.5234 0.2601 -0.0605
H6A H 0.6496 0.3396 0.0265
N8A N 0.5737(4) 0.5716(4) -0.1411(3)
H7A H 0.5021 0.5937 -0.1829
H8A H 0.6534 0.6526 -0.1220
C11A C 0.6887(5) 0.3850(5) -0.1257(4)
H13A H 0.7857 0.4523 -0.0921
H14A H 0.7023 0.2977 -0.1651
C12A C 0.6143(5) 0.4544(5) -0.2074(4)
H15A H 0.6811 0.4950 -0.2600
H16A H 0.5260 0.3821 -0.2510
N1A N 0.3472(4) 0.8711(5) 1.3944(3)
N2A N 0.4358(5) 1.3058(5) 1.4401(4)
S1A S 0.64150(10) 0.94586(11) 1.21304(8)
S2A S 0.71401(12) 1.29866(11) 1.24889(9)
C1A C 0.4368(5) 0.9467(5) 1.3526(3)
C2A C 0.5493(4) 1.0363(4) 1.2978(3)
C3A C 0.5804(4) 1.1832(4) 1.3133(3)
C4A C 0.5002(5) 1.2507(5) 1.3860(4)
N3A_2 N 0.2305(4) 0.3397(4) -0.1219(3)
Cu3_2 Cu 1.5000 1.5000 1.0000
loop_
_geom_bond_atom_site_label_1
_geom_bond_atom_site_label_2
_geom_bond_site_symmetry_1
_geom_bond_site_symmetry_2
Cu1 S1 1_555 1_555
Cu2 N4 1_555 1_555
Cu3 N3 1_555 1_555
N1 C1 1_555 1_555
N2 C4 1_555 1_555
N3 C5 1_555 1_555
N4 C8 1_555 1_555
N5 Cu2 1_555 1_555
H1 N5 1_555 1_555
H2 N5 1_555 1_555
N6 Cu2 1_555 1_555
H3 N6 1_555 1_555
H4 N6 1_555 1_555
N7 Cu3 1_555 1_555
H5 N7 1_555 1_555
H6 N7 1_555 1_555
N8 Cu3 1_555 1_555
H7 N8 1_555 1_555
H8 N8 1_555 1_555
S1 C2 1_555 1_555
S2 Cu1 1_555 1_555
S3 Cu1 1_555 1_555
S4 Cu1 1_555 1_555
C1 C2 1_555 1_555
C2 C3 1_555 1_555
C3 S2 1_555 1_555
C4 C3 1_555 1_555
C5 C6 1_555 1_555
C6 S3 1_555 1_555
C7 S4 1_555 1_555
C8 C7 1_555 1_555
C9 N5 1_555 1_555
H9 C9 1_555 1_555
H10 C9 1_555 1_555
C10 N6 1_555 1_555
H11 C10 1_555 1_555
H12 C10 1_555 1_555
C11 N7 1_555 1_555
H13 C11 1_555 1_555
H14 C11 1_555 1_555
C12 N8 1_555 1_555
H15 C12 1_555 1_555
H16 C12 1_555 1_555
N3A C5A 1_555 1_555
N4A Cu2 1_555 1_555
S3A C6A 1_555 1_555
S4A C7A 1_555 1_555
C5A C6A 1_555 1_555
C6A C7A 1_555 1_555
C7A C8A 1_555 1_555
C8A N4A 1_555 1_555
N5A Cu2 1_555 1_555
H1A N5A 1_555 1_555
H2A N5A 1_555 1_555
N6A Cu2 1_555 1_555
H3A N6A 1_555 1_555
H4A N6A 1_555 1_555
C9A N5A 1_555 1_555
H9A C9A 1_555 1_555
H10A C9A 1_555 1_555
C10A N6A 1_555 1_555
H11A C10A 1_555 1_555
H12A C10A 1_555 1_555
Cu1A S3A 1_555 1_555
N7A Cu3 1_555 1_555
H5A N7A 1_555 1_555
H6A N7A 1_555 1_555
N8A Cu3 1_555 1_555
H7A N8A 1_555 1_555
H8A N8A 1_555 1_555
C11A N7A 1_555 1_555
H13A C11A 1_555 1_555
H14A C11A 1_555 1_555
C12A N8A 1_555 1_555
H15A C12A 1_555 1_555
H16A C12A 1_555 1_555
N1A C1A 1_555 1_555
N2A C4A 1_555 1_555
S1A Cu1A 1_555 1_555
S2A Cu1A 1_555 1_555
C1A C2A 1_555 1_555
C2A S1A 1_555 1_555
C3A S2A 1_555 1_555
C4A C3A 1_555 1_555
N3A_2 Cu3 1_555 1_555
Cu3_2 N3A 1_555 1_555
C6 C7 1_555 1_555
C9 C10 1_555 1_555
C11 C12 1_555 1_555
S4A Cu1A 1_555 1_555
C9A C10A 1_555 1_555
C11A C12A 1_555 1_555
C2A C3A 1_555 1_555

#END
