
#######################################################################
#
#                 Cambridge Crystallographic Data Centre
#                                CCDC 
#
#######################################################################
#
# If this CIF has been generated from an entry in the Cambridge 
# Structural Database, then it will include bibliographic, chemical, 
# crystal, experimental, refinement or atomic coordinate data resulting 
# from the CCDC's data processing and validation procedures.
#
#######################################################################

data_BIPKUI
_symmetry_cell_setting           monoclinic
_symmetry_space_group_name_H-M   'P 21/n'
_symmetry_Int_Tables_number      14
_space_group_name_Hall           '-P 2yn'
loop_
_symmetry_equiv_pos_site_id
_symmetry_equiv_pos_as_xyz
1 x,y,z
2 1/2-x,1/2+y,1/2-z
3 -x,-y,-z
4 1/2+x,1/2-y,1/2+z
_cell_length_a                   14.563(3)
_cell_length_b                   34.392(7)
_cell_length_c                   19.462(4)
_cell_angle_alpha                90
_cell_angle_beta                 101.57(3)
_cell_angle_gamma                90
_cell_volume                     9549.49
loop_
_atom_site_label
_atom_site_type_symbol
_atom_site_fract_x
_atom_site_fract_y
_atom_site_fract_z
N6 N 0.627(2) 0.2642(11) 0.9915(15)
O12 O 0.6986(18) 0.2846(7) 0.9886(11)
O13 O 0.5610(18) 0.2891(7) 0.9918(11)
O14 O 0.6346(16) 0.2252(7) 1.0016(12)
N7 N 0.4302 0.3547 1.0100
O15 O 0.4112 0.3162 0.9885
O16 O 0.4626 0.3849 0.9720
O17 O 0.4425 0.3658 1.0809
C1 C 0.6594(5) 0.1131(2) 0.5309(4)
C2 C 0.6927(5) 0.1335(2) 0.5958(4)
H1 H 0.7073 0.1199 0.6391
C3 C 0.7027(5) 0.1738(2) 0.5933(4)
C4 C 0.6818(5) 0.1941(2) 0.5304(4)
H2 H 0.6885 0.2216 0.5307
C5 C 0.6504(5) 0.1743(2) 0.4652(4)
C6 C 0.6401(4) 0.1333(2) 0.4664(4)
H3 H 0.6202 0.1194 0.4239
C7 C 0.6465(6) 0.0677(3) 0.5321(6)
C8 C 0.7417(6) 0.1958(3) 0.6661(6)
C9 C 0.6322(5) 0.1946(2) 0.3974(4)
H4 H 0.6007 0.2197 0.4019
H5 H 0.5903 0.1786 0.3620
C10 C 0.7658(7) 0.2368(3) 0.3828(5)
H6 H 0.7356 0.2570 0.4033
C11 C 0.8566(6) 0.2448(3) 0.3623(5)
H7 H 0.8851 0.2698 0.3667
C12 C 0.8978(5) 0.2120(3) 0.3356(4)
C13 C 0.8533(9) 0.1780(3) 0.3243(7)
H8 H 0.8818 0.1566 0.3056
C14 C 0.7666(8) 0.1741(3) 0.3401(7)
H9 H 0.7329 0.1507 0.3272
C15 C 0.9981(6) 0.2179(3) 0.3119(4)
C16 C 1.0352(6) 0.2537(3) 0.3098(5)
H10 H 1.0045 0.2758 0.3242
C17 C 1.1216(6) 0.2582(3) 0.2855(4)
H11 H 1.1460 0.2836 0.2821
C18 C 1.1268(7) 0.1920(3) 0.2731(7)
H12 H 1.1589 0.1698 0.2607
C19 C 1.0443(7) 0.1859(3) 0.2947(6)
H13 H 1.0201 0.1604 0.2976
C20 C 0.8708(5) 0.2867(3) 0.8662(4)
C21 C 0.8960(5) 0.3123(2) 0.9316(4)
C22 C 0.9282(5) 0.2943(2) 0.9961(4)
H14 H 0.9358 0.2669 0.9970
C23 C 0.9501(5) 0.3148(2) 1.0603(4)
C24 C 0.9402(5) 0.3588(2) 1.0545(4)
H15 H 0.9554 0.3746 1.0953
C25 C 0.9100(5) 0.3750(2) 0.9916(4)
C26 C 0.8875(5) 0.3534(2) 0.9291(3)
H16 H 0.8667 0.3662 0.8855
C27 C 0.9778(5) 0.2955(3) 1.1314(4)
H17 H 1.0142 0.3137 1.1658
H18 H 1.0167 0.2722 1.1281
C28 C 0.8508(7) 0.2474(3) 1.1436(4)
H19 H 0.8872 0.2283 1.1260
C29 C 0.7628(6) 0.2362(3) 1.1577(5)
H20 H 0.7407 0.2102 1.1516
C30 C 0.7090(6) 0.2667(3) 1.1817(5)
C31 C 0.7462(7) 0.3036(3) 1.1945(6)
H21 H 0.7121 0.3238 1.2115
C32 C 0.8378(6) 0.3102(3) 1.1813(5)
H22 H 0.8658 0.3349 1.1930
C33 C 0.6135(6) 0.2571(3) 1.1984(4)
C34 C 0.5671(8) 0.2210(3) 1.1805(7)
H23 H 0.5983 0.2007 1.1612
C35 C 0.4744(8) 0.2151(3) 1.1912(7)
H24 H 0.4458 0.1906 1.1785
C36 C 0.4697(7) 0.2734(3) 1.2374(6)
H25 H 0.4387 0.2923 1.2601
C37 C 0.5609(8) 0.2814(4) 1.2270(6)
H26 H 0.5867 0.3062 1.2415
C38 C 0.8993(6) 0.4205(2) 0.9864(4)
C39 C 0.8781(8) -0.0224(3) 0.4755(5)
H27 H 0.8837 -0.0361 0.4342
C40 C 0.9545(6) -0.0014(3) 0.5112(5)
C41 C 0.9407(7) 0.0145(5) 0.5734(7)
H28 H 0.9910 0.0275 0.6031
C42 C 0.8520(9) 0.0117(4) 0.5941(7)
H29 H 0.8437 0.0238 0.6363
C43 C 0.7960(7) -0.0238(3) 0.4978(5)
H30 H 0.7460 -0.0377 0.4694
N1 N 0.7259(4) 0.20200(19) 0.3731(3)
N2 N 1.1674(5) 0.2284(2) 0.2678(4)
N3 N 0.8861(4) 0.2839(2) 1.1537(3)
N4 N 0.4264(4) 0.2410(2) 1.2172(3)
N5 N 0.7791(5) -0.0080(2) 0.5543(4)
O1 O 0.7383(4) 0.23333(17) 0.6562(3)
O2 O 0.7692(5) 0.17808(19) 0.7211(3)
O3 O 0.6574(4) 0.05064(16) 0.5914(3)
O4 O 0.6226(4) 0.05021(16) 0.4730(3)
O5 O 0.8448(4) 0.30658(14) 0.8073(3)
O6 O 0.8688(4) 0.25121(16) 0.8700(3)
O7 O 0.9240(4) 0.43849(15) 1.0440(3)
O8 O 0.8644(4) 0.43472(15) 0.9294(3)
O9 O 0.7528(5) 0.3176(2) 0.6480(3)
O10 O 0.5175(3) -0.00386(14) 0.5935(2)
O11 O 0.7098(5) -0.0161(2) 0.7031(3)
Cu1 Cu 0.79283(7) 0.26914(3) 0.73269(5)
Cu2 Cu 0.65162(7) -0.00700(3) 0.58301(5)
C39B C 1.1219(8) 0.0224(3) 0.5245(5)
H27B H 1.1163 0.0361 0.5658
C40B C 1.0455(6) 0.0014(3) 0.4888(5)
C41B C 1.0593(7) -0.0145(5) 0.4266(7)
H28B H 1.0090 -0.0275 0.3969
C42B C 1.1480(9) -0.0117(4) 0.4059(7)
H29B H 1.1563 -0.0238 0.3637
C43B C 1.2040(7) 0.0238(3) 0.5022(5)
H30B H 1.2540 0.0377 0.5306
N5B N 1.2209(5) 0.0080(2) 0.4457(4)
C1B C 1.3406(5) -0.1131(2) 0.4691(4)
C2B C 1.3073(5) -0.1335(2) 0.4042(4)
H1B H 1.2927 -0.1199 0.3609
C3B C 1.2973(5) -0.1738(2) 0.4067(4)
C4B C 1.3182(5) -0.1941(2) 0.4696(4)
H2B H 1.3115 -0.2216 0.4693
C5B C 1.3496(5) -0.1743(2) 0.5348(4)
C6B C 1.3599(4) -0.1333(2) 0.5336(4)
H3B H 1.3798 -0.1194 0.5761
C7B C 1.3535(6) -0.0677(3) 0.4679(6)
C8B C 1.2583(6) -0.1958(3) 0.3339(6)
C9B C 1.3678(5) -0.1946(2) 0.6026(4)
H4B H 1.3993 -0.2197 0.5981
H5B H 1.4097 -0.1786 0.6380
C10B C 1.2342(7) -0.2368(3) 0.6172(5)
H6B H 1.2644 -0.2570 0.5967
C11B C 1.1434(6) -0.2448(3) 0.6377(5)
H7B H 1.1149 -0.2698 0.6333
C12B C 1.1022(5) -0.2120(3) 0.6644(4)
C13B C 1.1467(9) -0.1780(3) 0.6757(7)
H8B H 1.1182 -0.1566 0.6944
C14B C 1.2334(8) -0.1741(3) 0.6599(7)
H9B H 1.2671 -0.1507 0.6728
C15B C 1.0019(6) -0.2179(3) 0.6881(4)
C16B C 0.9648(6) -0.2537(3) 0.6902(5)
H10B H 0.9955 -0.2758 0.6758
C17B C 0.8784(6) -0.2582(3) 0.7145(4)
H11B H 0.8540 -0.2836 0.7179
C18B C 0.8732(7) -0.1920(3) 0.7269(7)
H12B H 0.8411 -0.1698 0.7393
C19B C 0.9557(7) -0.1859(3) 0.7053(6)
H13B H 0.9799 -0.1604 0.7024
C20B C 1.1292(5) -0.2867(3) 0.1338(4)
C21B C 1.1040(5) -0.3123(2) 0.0684(4)
C22B C 1.0718(5) -0.2943(2) 0.0039(4)
H14B H 1.0642 -0.2669 0.0030
C23B C 1.0499(5) -0.3148(2) -0.0603(4)
C24B C 1.0598(5) -0.3588(2) -0.0545(4)
H15B H 1.0446 -0.3746 -0.0953
C25B C 1.0900(5) -0.3750(2) 0.0084(4)
C26B C 1.1125(5) -0.3534(2) 0.0709(3)
H16B H 1.1333 -0.3662 0.1145
C27B C 1.0222(5) -0.2955(3) -0.1314(4)
H17B H 0.9858 -0.3137 -0.1658
H18B H 0.9833 -0.2722 -0.1281
C28B C 1.1492(7) -0.2474(3) -0.1436(4)
H19B H 1.1128 -0.2283 -0.1260
C29B C 1.2372(6) -0.2362(3) -0.1577(5)
H20B H 1.2593 -0.2102 -0.1516
C30B C 1.2910(6) -0.2667(3) -0.1817(5)
C31B C 1.2538(7) -0.3036(3) -0.1945(6)
H21B H 1.2879 -0.3238 -0.2115
C32B C 1.1622(6) -0.3102(3) -0.1813(5)
H22B H 1.1342 -0.3349 -0.1930
C33B C 1.3865(6) -0.2571(3) -0.1984(4)
C34B C 1.4329(8) -0.2210(3) -0.1805(7)
H23B H 1.4017 -0.2007 -0.1612
C35B C 1.5256(8) -0.2151(3) -0.1912(7)
H24B H 1.5542 -0.1906 -0.1785
C36B C 1.5303(7) -0.2734(3) -0.2374(6)
H25B H 1.5613 -0.2923 -0.2601
C37B C 1.4391(8) -0.2814(4) -0.2270(6)
H26B H 1.4133 -0.3062 -0.2415
C38B C 1.1007(6) -0.4205(2) 0.0136(4)
N1B N 1.2741(4) -0.20200(19) 0.6269(3)
N2B N 0.8326(5) -0.2284(2) 0.7322(4)
N3B N 1.1139(4) -0.2839(2) -0.1537(3)
N4B N 1.5736(4) -0.2410(2) -0.2172(3)
O1B O 1.2617(4) -0.23333(17) 0.3438(3)
O2B O 1.2308(5) -0.17808(19) 0.2789(3)
O3B O 1.3426(4) -0.05064(16) 0.4086(3)
O4B O 1.3774(4) -0.05021(16) 0.5270(3)
O5B O 1.1552(4) -0.30658(14) 0.1927(3)
O6B O 1.1312(4) -0.25121(16) 0.1300(3)
O7B O 1.0760(4) -0.43849(15) -0.0440(3)
O8B O 1.1356(4) -0.43472(15) 0.0706(3)
O9B O 1.2472(5) -0.3176(2) 0.3520(3)
O10B O 1.4825(3) 0.00386(14) 0.4065(2)
O11B O 1.2902(5) 0.0161(2) 0.2969(3)
Cu1B Cu 1.20717(7) -0.26914(3) 0.26731(5)
Cu2B Cu 1.34838(7) 0.00700(3) 0.41699(5)
N2A N 1.3326(5) -0.2716(2) 0.2322(4)
N2C N 0.6674(5) 0.2716(2) 0.7678(4)
N4A N 1.0736(4) -0.2590(2) 0.2828(3)
N4C N 0.9264(4) 0.2590(2) 0.7172(3)
O8A O 0.6356(4) -0.06528(15) 0.5706(3)
O8C O 1.3644(4) 0.06528(15) 0.4294(3)
Cu1A Cu 0.70717(7) -0.23086(3) 0.76731(5)
Cu1A_2 Cu 1.70717(7) -0.23086(3) -0.23269(5)
Cu1C Cu 0.29283(7) 0.23086(3) 1.23269(5)
Cu1C_2 Cu 1.29283(7) 0.23086(3) 0.23269(5)
Cu2A Cu 0.84838(7) 0.49300(3) 0.91699(5)
Cu2C Cu 1.15162(7) -0.49300(3) 0.08301(5)
loop_
_geom_bond_atom_site_label_1
_geom_bond_atom_site_label_2
_geom_bond_site_symmetry_1
_geom_bond_site_symmetry_2
C1 C2 1_555 1_555
C2 H1 1_555 1_555
C3 C2 1_555 1_555
C4 C3 1_555 1_555
H2 C4 1_555 1_555
C5 C4 1_555 1_555
C6 C1 1_555 1_555
H3 C6 1_555 1_555
C7 C1 1_555 1_555
C8 C3 1_555 1_555
C9 C5 1_555 1_555
H4 C9 1_555 1_555
H5 C9 1_555 1_555
C10 H6 1_555 1_555
C11 C10 1_555 1_555
H7 C11 1_555 1_555
C12 C11 1_555 1_555
C13 C12 1_555 1_555
H8 C13 1_555 1_555
C14 C13 1_555 1_555
H9 C14 1_555 1_555
C15 C12 1_555 1_555
C16 C15 1_555 1_555
H10 C16 1_555 1_555
C17 C16 1_555 1_555
H11 C17 1_555 1_555
C18 H12 1_555 1_555
C19 C15 1_555 1_555
H13 C19 1_555 1_555
C20 C21 1_555 1_555
C21 C22 1_555 1_555
C22 H14 1_555 1_555
C23 C22 1_555 1_555
C24 C23 1_555 1_555
H15 C24 1_555 1_555
C25 C24 1_555 1_555
C26 C21 1_555 1_555
H16 C26 1_555 1_555
C27 C23 1_555 1_555
H17 C27 1_555 1_555
H18 C27 1_555 1_555
C28 H19 1_555 1_555
C29 C28 1_555 1_555
H20 C29 1_555 1_555
C30 C29 1_555 1_555
C31 C30 1_555 1_555
H21 C31 1_555 1_555
C32 C31 1_555 1_555
H22 C32 1_555 1_555
C33 C30 1_555 1_555
C34 C33 1_555 1_555
H23 C34 1_555 1_555
C35 C34 1_555 1_555
H24 C35 1_555 1_555
C36 H25 1_555 1_555
C37 C33 1_555 1_555
H26 C37 1_555 1_555
C38 C25 1_555 1_555
C39 H27 1_555 1_555
C40 C39 1_555 1_555
C41 C40 1_555 1_555
H28 C41 1_555 1_555
C42 C41 1_555 1_555
H29 C42 1_555 1_555
C43 C39 1_555 1_555
H30 C43 1_555 1_555
N1 C9 1_555 1_555
N2 C17 1_555 1_555
N3 C27 1_555 1_555
N4 C35 1_555 1_555
N5 C42 1_555 1_555
O1 C8 1_555 1_555
O2 C8 1_555 1_555
O3 C7 1_555 1_555
O4 C7 1_555 1_555
O5 C20 1_555 1_555
O6 C20 1_555 1_555
O7 C38 1_555 1_555
O8 C38 1_555 1_555
O9 Cu1 1_555 1_555
O10 Cu2 1_555 1_555
O11 Cu2 1_555 1_555
Cu1 O1 1_555 1_555
Cu2 N5 1_555 1_555
N6 O12 1_555 1_555
O13 N6 1_555 1_555
O14 N6 1_555 1_555
N7 O15 1_555 1_555
O16 N7 1_555 1_555
O17 N7 1_555 1_555
C39B H27B 1_555 1_555
C40B C40 1_555 1_555
C41B C40B 1_555 1_555
H28B C41B 1_555 1_555
C42B C41B 1_555 1_555
H29B C42B 1_555 1_555
C43B C39B 1_555 1_555
H30B C43B 1_555 1_555
N5B C42B 1_555 1_555
C1B C2B 1_555 1_555
C2B H1B 1_555 1_555
C3B C2B 1_555 1_555
C4B C3B 1_555 1_555
H2B C4B 1_555 1_555
C5B C4B 1_555 1_555
C6B C1B 1_555 1_555
H3B C6B 1_555 1_555
C7B C1B 1_555 1_555
C8B C3B 1_555 1_555
C9B C5B 1_555 1_555
H4B C9B 1_555 1_555
H5B C9B 1_555 1_555
C10B H6B 1_555 1_555
C11B C10B 1_555 1_555
H7B C11B 1_555 1_555
C12B C11B 1_555 1_555
C13B C12B 1_555 1_555
H8B C13B 1_555 1_555
C14B C13B 1_555 1_555
H9B C14B 1_555 1_555
C15B C12B 1_555 1_555
C16B C15B 1_555 1_555
H10B C16B 1_555 1_555
C17B C16B 1_555 1_555
H11B C17B 1_555 1_555
C18B H12B 1_555 1_555
C19B C15B 1_555 1_555
H13B C19B 1_555 1_555
C20B C21B 1_555 1_555
C21B C22B 1_555 1_555
C22B H14B 1_555 1_555
C23B C22B 1_555 1_555
C24B C23B 1_555 1_555
H15B C24B 1_555 1_555
C25B C24B 1_555 1_555
C26B C21B 1_555 1_555
H16B C26B 1_555 1_555
C27B C23B 1_555 1_555
H17B C27B 1_555 1_555
H18B C27B 1_555 1_555
C28B H19B 1_555 1_555
C29B C28B 1_555 1_555
H20B C29B 1_555 1_555
C30B C29B 1_555 1_555
C31B C30B 1_555 1_555
H21B C31B 1_555 1_555
C32B C31B 1_555 1_555
H22B C32B 1_555 1_555
C33B C30B 1_555 1_555
C34B C33B 1_555 1_555
H23B C34B 1_555 1_555
C35B C34B 1_555 1_555
H24B C35B 1_555 1_555
C36B H25B 1_555 1_555
C37B C33B 1_555 1_555
H26B C37B 1_555 1_555
C38B C25B 1_555 1_555
N1B C9B 1_555 1_555
N2B C17B 1_555 1_555
N3B C27B 1_555 1_555
N4B C35B 1_555 1_555
O1B C8B 1_555 1_555
O2B C8B 1_555 1_555
O3B C7B 1_555 1_555
O4B C7B 1_555 1_555
O5B C20B 1_555 1_555
O6B C20B 1_555 1_555
O7B C38B 1_555 1_555
O8B C38B 1_555 1_555
O9B Cu1B 1_555 1_555
O10B Cu2B 1_555 1_555
O11B Cu2B 1_555 1_555
Cu1B O1B 1_555 1_555
Cu2B N5B 1_555 1_555
N2A Cu1B 1_555 1_555
N2C Cu1 1_555 1_555
N4A Cu1B 1_555 1_555
N4C Cu1 1_555 1_555
O8A Cu2 1_555 1_555
O8C Cu2B 1_555 1_555
Cu1A N2B 1_555 1_555
Cu1A_2 N4B 1_555 1_555
Cu1C N4 1_555 1_555
Cu1C_2 N2 1_555 1_555
Cu2A O8 1_555 1_555
Cu2C O8B 1_555 1_555
C5 C6 1_555 1_555
C10 N1 1_555 1_555
C14 N1 1_555 1_555
C18 C19 1_555 1_555
C18 N2 1_555 1_555
C25 C26 1_555 1_555
C28 N3 1_555 1_555
C32 N3 1_555 1_555
C36 C37 1_555 1_555
C36 N4 1_555 1_555
C43 N5 1_555 1_555
O3 Cu2 1_555 1_555
O5 Cu1 1_555 1_555
O6 Cu1 1_555 1_555
C39B C40B 1_555 1_555
C43B N5B 1_555 1_555
C5B C6B 1_555 1_555
C10B N1B 1_555 1_555
C14B N1B 1_555 1_555
C18B C19B 1_555 1_555
C18B N2B 1_555 1_555
C25B C26B 1_555 1_555
C28B N3B 1_555 1_555
C32B N3B 1_555 1_555
C36B C37B 1_555 1_555
C36B N4B 1_555 1_555
O3B Cu2B 1_555 1_555
O5B Cu1B 1_555 1_555
O6B Cu1B 1_555 1_555

#END
