
#######################################################################
#
#                 Cambridge Crystallographic Data Centre
#                                CCDC 
#
#######################################################################
#
# If this CIF has been generated from an entry in the Cambridge 
# Structural Database, then it will include bibliographic, chemical, 
# crystal, experimental, refinement or atomic coordinate data resulting 
# from the CCDC's data processing and validation procedures.
#
#######################################################################

data_BIPRUP
_symmetry_cell_setting           triclinic
_symmetry_space_group_name_H-M   'P -1'
_symmetry_Int_Tables_number      2
_space_group_name_Hall           '-P 1'
loop_
_symmetry_equiv_pos_site_id
_symmetry_equiv_pos_as_xyz
1 x,y,z
2 -x,-y,-z
_cell_length_a                   12.4470(13)
_cell_length_b                   18.7120(16)
_cell_length_c                   21.509(2)
_cell_angle_alpha                91.782(6)
_cell_angle_beta                 90.506(6)
_cell_angle_gamma                108.686(4)
_cell_volume                     4742.33
loop_
_atom_site_label
_atom_site_type_symbol
_atom_site_fract_x
_atom_site_fract_y
_atom_site_fract_z
C1 C 0.5145(17) 0.2674(12) 0.0888(11)
C2 C 0.465(2) 0.2472(13) 0.0202(12)
C3 C 0.451(3) 0.3146(14) -0.0096(14)
H1 H 0.4225 0.3009 -0.0523
H2 H 0.5251 0.3545 -0.0102
H3 H 0.3979 0.3328 0.0141
C4 C 0.357(3) 0.1806(16) 0.0235(12)
H4 H 0.3014 0.1952 0.0482
H5 H 0.3741 0.1386 0.0430
H6 H 0.3264 0.1647 -0.0186
C5 C 0.5548(19) 0.2183(16) -0.0132(12)
H7 H 0.5346 0.2087 -0.0575
H8 H 0.5565 0.1715 0.0054
H9 H 0.6298 0.2567 -0.0084
C6 C 0.826(2) 0.3624(14) 0.2004(12)
C7 C 0.9042(18) 0.3229(12) 0.1688(12)
C8 C 0.8440(19) 0.2783(12) 0.1073(10)
H10 H 0.8303 0.3140 0.0782
H11 H 0.7716 0.2410 0.1177
H12 H 0.8931 0.2525 0.0879
C9 C 0.919(2) 0.2635(15) 0.2151(14)
H13 H 0.9763 0.2422 0.1994
H14 H 0.8466 0.2231 0.2189
H15 H 0.9436 0.2882 0.2560
C10 C 1.0132(19) 0.3807(16) 0.1525(16)
H16 H 1.0550 0.3578 0.1240
H17 H 1.0590 0.3998 0.1904
H18 H 0.9973 0.4226 0.1323
C11 C 0.650(2) 0.4761(16) 0.3295(12)
C12 C 0.597(2) 0.4844(14) 0.3945(12)
C13 C 0.681(3) 0.5465(13) 0.4336(14)
H19 H 0.7076 0.5923 0.4096
H20 H 0.7458 0.5304 0.4452
H21 H 0.6441 0.5569 0.4712
C14 C 0.490(3) 0.5071(16) 0.3824(15)
H22 H 0.4576 0.5152 0.4223
H23 H 0.4346 0.4668 0.3580
H24 H 0.5109 0.5538 0.3594
C15 C 0.573(3) 0.4109(13) 0.4294(13)
H25 H 0.5684 0.4215 0.4740
H26 H 0.6345 0.3896 0.4223
H27 H 0.5011 0.3748 0.4143
C16 C 0.4747(18) 0.5216(12) 0.2060(11)
H28 H 0.5567 0.5501 0.2052
H29 H 0.4495 0.5208 0.2496
C17 C 0.410(3) 0.5587(16) 0.1664(19)
H30 H 0.3864 0.5967 0.1909
H31 H 0.4549 0.5832 0.1307
C18 C 0.314(2) 0.4959(15) 0.1463(15)
H32 H 0.2831 0.5057 0.1060
H33 H 0.2531 0.4861 0.1774
C19 C 0.359(2) 0.4292(13) 0.1398(11)
H34 H 0.2997 0.3818 0.1509
H35 H 0.3820 0.4234 0.0965
C20 C 0.4088(16) 0.2197(11) 0.2511(9)
C21 C 0.2904(17) 0.2280(11) 0.2685(10)
C22 C 0.239(2) 0.1732(15) 0.3164(17)
H36 H 0.1819 0.1894 0.3387
H37 H 0.2979 0.1705 0.3458
H38 H 0.2025 0.1233 0.2964
C23 C 0.223(2) 0.2039(13) 0.2083(13)
H39 H 0.2237 0.1533 0.1952
H40 H 0.2579 0.2397 0.1761
H41 H 0.1451 0.2030 0.2145
C24 C 0.299(2) 0.3068(13) 0.2901(14)
H42 H 0.3246 0.3412 0.2559
H43 H 0.3537 0.3228 0.3250
H44 H 0.2246 0.3079 0.3037
C25 C 0.602(2) 0.0617(13) 0.1741(10)
C26 C 0.648(2) 0.0102(13) 0.1300(10)
C27 C 0.635(3) -0.0643(15) 0.1588(14)
H45 H 0.6591 -0.0968 0.1294
H46 H 0.5547 -0.0887 0.1686
H47 H 0.6810 -0.0560 0.1970
C28 C 0.573(2) -0.0007(14) 0.0675(12)
H48 H 0.5975 0.0457 0.0441
H49 H 0.4928 -0.0118 0.0783
H50 H 0.5816 -0.0427 0.0421
C29 C 0.771(2) 0.0467(15) 0.1190(13)
H51 H 0.8116 0.0628 0.1590
H52 H 0.7819 0.0908 0.0934
H53 H 0.8015 0.0106 0.0974
C30 C 0.705(3) 0.2928(15) 0.3412(16)
H54 H 0.6476 0.3186 0.3379
H55 H 0.7797 0.3278 0.3290
C31 C 0.712(3) 0.2659(16) 0.4082(14)
H56 H 0.7718 0.3034 0.4336
H57 H 0.6384 0.2550 0.4293
C32 C 0.742(3) 0.1937(15) 0.3945(14)
H58 H 0.8246 0.2060 0.3872
H59 H 0.7218 0.1594 0.4297
C33 C 0.678(2) 0.1592(14) 0.3394(14)
H60 H 0.6002 0.1275 0.3501
H61 H 0.7152 0.1277 0.3161
C34 C 0.308(2) 0.0248(11) 0.3735(10)
C35 C 0.3096(19) 0.0367(11) 0.4461(11)
C36 C 0.4052(19) 0.1069(13) 0.4673(11)
H62 H 0.4000 0.1502 0.4443
H63 H 0.4782 0.0994 0.4592
H64 H 0.3990 0.1166 0.5119
C37 C 0.329(2) -0.0338(13) 0.4727(13)
H65 H 0.2706 -0.0793 0.4562
H66 H 0.3255 -0.0315 0.5182
H67 H 0.4041 -0.0356 0.4606
C38 C 0.1947(19) 0.0387(14) 0.4616(13)
H68 H 0.1904 0.0469 0.5066
H69 H 0.1380 -0.0093 0.4484
H70 H 0.1798 0.0800 0.4400
C39 C 0.148(2) -0.0322(14) 0.1756(12)
C40 C 0.101(2) -0.0429(16) 0.1079(10)
C41 C -0.004(3) -0.1072(15) 0.0957(12)
H71 H -0.0652 -0.1002 0.1211
H72 H 0.0089 -0.1543 0.1065
H73 H -0.0256 -0.1096 0.0516
C42 C 0.198(3) -0.0558(16) 0.0673(12)
H74 H 0.1888 -0.1098 0.0643
H75 H 0.2720 -0.0284 0.0867
H76 H 0.1939 -0.0372 0.0255
C43 C 0.090(3) 0.0330(17) 0.0894(16)
H77 H 0.0713 0.0308 0.0449
H78 H 0.1625 0.0731 0.0979
H79 H 0.0304 0.0436 0.1135
C44 C 0.3128(19) -0.1426(13) 0.2981(10)
C45 C 0.4020(19) -0.1744(11) 0.3274(11)
C46 C 0.5161(19) -0.1106(14) 0.3321(12)
H80 H 0.5100 -0.0708 0.3612
H81 H 0.5362 -0.0897 0.2910
H82 H 0.5750 -0.1307 0.3472
C47 C 0.366(2) -0.2093(11) 0.3890(12)
H83 H 0.2969 -0.2526 0.3831
H84 H 0.3518 -0.1719 0.4177
H85 H 0.4267 -0.2262 0.4063
C48 C 0.418(2) -0.2346(16) 0.2806(15)
H86 H 0.4770 -0.2541 0.2966
H87 H 0.4413 -0.2116 0.2405
H88 H 0.3466 -0.2761 0.2752
C49 C -0.0368(19) 0.0164(13) 0.2676(10)
H89 H -0.0805 -0.0121 0.2310
H90 H 0.0389 0.0476 0.2538
C50 C -0.098(2) 0.0654(14) 0.2977(11)
H91 H -0.1456 0.0806 0.2670
H92 H -0.0443 0.1112 0.3181
C51 C -0.170(2) 0.0146(13) 0.3450(11)
H93 H -0.1916 0.0441 0.3790
H94 H -0.2401 -0.0212 0.3255
C52 C -0.0926(18) -0.0247(13) 0.3675(12)
H95 H -0.0424 0.0057 0.4013
H96 H -0.1363 -0.0743 0.3839
C53 C 0.0040(19) -0.2126(14) 0.4169(10)
C54 C -0.0506(17) -0.2211(14) 0.4824(11)
C55 C 0.0007(19) -0.1519(12) 0.5230(10)
H97 H -0.0200 -0.1097 0.5065
H98 H 0.0835 -0.1392 0.5238
H99 H -0.0277 -0.1613 0.5653
C56 C -0.039(3) -0.2941(14) 0.5135(13)
H100 H 0.0416 -0.2865 0.5229
H101 H -0.0686 -0.3379 0.4848
H102 H -0.0814 -0.3030 0.5521
C57 C -0.174(2) -0.2315(16) 0.4708(14)
H103 H -0.2113 -0.2314 0.5106
H104 H -0.2095 -0.2797 0.4482
H105 H -0.1810 -0.1902 0.4459
C58 C 0.148(5) -0.2463(17) 0.1635(14)
H106 H 0.2105 -0.1985 0.1726
H107 H 0.0757 -0.2351 0.1652
C59 C 0.161(4) -0.273(2) 0.1034(16)
H108 H 0.2228 -0.2363 0.0815
H109 H 0.0899 -0.2846 0.0785
C60 C 0.190(4) -0.3448(19) 0.1139(14)
H110 H 0.1450 -0.3861 0.0851
H111 H 0.2716 -0.3362 0.1066
C61 C 0.162(2) -0.3651(13) 0.1806(13)
H112 H 0.0911 -0.4082 0.1829
H113 H 0.2244 -0.3782 0.2012
C62 C -0.1102(19) -0.2795(11) 0.2615(9)
C63 C -0.225(2) -0.2694(13) 0.2452(12)
C64 C -0.228(3) -0.1897(14) 0.2492(14)
H114 H -0.2023 -0.1677 0.2909
H115 H -0.3052 -0.1895 0.2413
H116 H -0.1772 -0.1598 0.2181
C65 C -0.322(2) -0.3186(16) 0.2901(14)
H117 H -0.3122 -0.3680 0.2955
H118 H -0.3968 -0.3255 0.2714
H119 H -0.3157 -0.2921 0.3307
C66 C -0.257(2) -0.2991(16) 0.1757(12)
H120 H -0.1940 -0.2736 0.1487
H121 H -0.3254 -0.2886 0.1625
H122 H -0.2700 -0.3537 0.1729
C67 C 0.098(2) -0.4261(16) 0.3327(12)
C68 C 0.118(2) -0.4887(13) 0.3785(11)
C69 C 0.198(4) -0.454(2) 0.427(2)
H123 H 0.2280 -0.4920 0.4446
H124 H 0.1616 -0.4333 0.4597
H125 H 0.2611 -0.4135 0.4101
C70 C 0.159(4) -0.542(2) 0.3401(17)
H126 H 0.2108 -0.5134 0.3085
H127 H 0.0948 -0.5798 0.3195
H128 H 0.2000 -0.5662 0.3668
C71 C 0.004(3) -0.5334(19) 0.4087(16)
H129 H -0.0289 -0.5819 0.3861
H130 H -0.0485 -0.5042 0.4069
H131 H 0.0185 -0.5423 0.4522
C72 C -0.2134(19) -0.4791(11) 0.1327(9)
C73 C -0.2422(19) -0.4790(14) 0.0627(12)
C74 C -0.159(2) -0.4118(15) 0.0308(12)
H132 H -0.1743 -0.4165 -0.0141
H133 H -0.0809 -0.4115 0.0389
H134 H -0.1675 -0.3647 0.0474
C75 C -0.3615(18) -0.4839(14) 0.0509(10)
H135 H -0.4115 -0.5250 0.0745
H136 H -0.3795 -0.4938 0.0064
H137 H -0.3725 -0.4361 0.0640
C76 C -0.220(2) -0.5527(12) 0.0367(11)
H138 H -0.2607 -0.5955 0.0618
H139 H -0.1386 -0.5455 0.0388
H140 H -0.2471 -0.5628 -0.0066
O1 O 0.5244(13) 0.3333(9) 0.1112(7)
O2 O 0.5346(15) 0.2164(9) 0.1193(7)
O3 O 0.7183(12) 0.3309(8) 0.1982(7)
O4 O 0.5882(14) 0.4304(9) 0.2915(7)
O5 O 0.4546(13) 0.4466(8) 0.1821(7)
O6 O -0.2870(11) -0.5092(8) 0.1700(7)
O7 O 0.4862(12) 0.2812(8) 0.2432(7)
O8 O 0.4179(11) 0.1585(8) 0.2470(7)
O9 O 0.6610(12) 0.1248(9) 0.1867(7)
O10 O 0.5002(17) 0.0307(10) 0.1935(9)
O11 O 0.6740(14) 0.2244(9) 0.3025(7)
O12 O 0.4062(14) 0.0501(9) 0.3472(7)
O13 O 0.2193(13) -0.0084(9) 0.3445(7)
O14 O 0.2414(14) 0.0201(9) 0.1897(7)
O15 O 0.0912(15) -0.0799(10) 0.2113(8)
O16 O 0.3494(12) -0.0880(10) 0.2629(7)
O17 O 0.2129(11) -0.1705(9) 0.3096(7)
O18 O -0.0260(12) -0.0348(8) 0.3147(7)
O19 O 0.0237(14) -0.1478(9) 0.3940(7)
O20 O 0.0245(14) -0.2676(9) 0.3919(7)
O21 O 0.1491(14) -0.2973(8) 0.2086(7)
O22 O -0.0253(13) -0.2160(9) 0.2686(7)
O23 O -0.1014(12) -0.3417(7) 0.2669(6)
O24 O 0.1618(14) -0.3634(8) 0.3361(8)
O25 O 0.0125(17) -0.4516(13) 0.3018(11)
O26 O -0.1165(17) -0.4421(10) 0.1532(8)
O27 O 0.7478(15) 0.5106(9) 0.3228(7)
O28 O 0.8734(15) 0.4221(9) 0.2271(8)
Mn1 Mn 0.5862(3) 0.3892(2) 0.19886(16)
Mn2 Mn 0.6009(3) 0.2154(2) 0.20850(17)
Mn3 Mn 0.3687(3) 0.0296(2) 0.25113(16)
Mn4 Mn 0.0909(3) -0.10469(19) 0.30781(16)
Mn5 Mn 0.0862(3) -0.2847(2) 0.30465(17)
Mn6 Mn -0.1381(3) -0.4670(2) 0.25085(16)
O6_2 O 0.7130(11) 0.4908(8) 0.1700(7)
O27_2 O -0.2522(15) -0.4894(9) 0.3228(7)
O28_2 O -0.1266(15) -0.5779(9) 0.2271(8)
Mn1_2 Mn -0.4138(3) -0.6108(2) 0.19886(16)
Mn6_2 Mn 0.8619(3) 0.5330(2) 0.25085(16)
loop_
_geom_bond_atom_site_label_1
_geom_bond_atom_site_label_2
_geom_bond_site_symmetry_1
_geom_bond_site_symmetry_2
C1 C2 1_555 1_555
C2 C3 1_555 1_555
C3 H1 1_555 1_555
H2 C3 1_555 1_555
H3 C3 1_555 1_555
C4 C2 1_555 1_555
H4 C4 1_555 1_555
H5 C4 1_555 1_555
H6 C4 1_555 1_555
C5 C2 1_555 1_555
H7 C5 1_555 1_555
H8 C5 1_555 1_555
H9 C5 1_555 1_555
C6 C7 1_555 1_555
C7 C8 1_555 1_555
C8 H10 1_555 1_555
H11 C8 1_555 1_555
H12 C8 1_555 1_555
C9 C7 1_555 1_555
H13 C9 1_555 1_555
H14 C9 1_555 1_555
H15 C9 1_555 1_555
C10 C7 1_555 1_555
H16 C10 1_555 1_555
H17 C10 1_555 1_555
H18 C10 1_555 1_555
C11 C12 1_555 1_555
C12 C13 1_555 1_555
C13 H19 1_555 1_555
H20 C13 1_555 1_555
H21 C13 1_555 1_555
C14 C12 1_555 1_555
H22 C14 1_555 1_555
H23 C14 1_555 1_555
H24 C14 1_555 1_555
C15 C12 1_555 1_555
H25 C15 1_555 1_555
H26 C15 1_555 1_555
H27 C15 1_555 1_555
C16 H28 1_555 1_555
H29 C16 1_555 1_555
C17 C16 1_555 1_555
H30 C17 1_555 1_555
H31 C17 1_555 1_555
C18 C17 1_555 1_555
H32 C18 1_555 1_555
H33 C18 1_555 1_555
C19 C18 1_555 1_555
H34 C19 1_555 1_555
H35 C19 1_555 1_555
C20 C21 1_555 1_555
C21 C22 1_555 1_555
C22 H36 1_555 1_555
H37 C22 1_555 1_555
H38 C22 1_555 1_555
C23 C21 1_555 1_555
H39 C23 1_555 1_555
H40 C23 1_555 1_555
H41 C23 1_555 1_555
C24 C21 1_555 1_555
H42 C24 1_555 1_555
H43 C24 1_555 1_555
H44 C24 1_555 1_555
C25 C26 1_555 1_555
C26 C27 1_555 1_555
C27 H45 1_555 1_555
H46 C27 1_555 1_555
H47 C27 1_555 1_555
C28 C26 1_555 1_555
H48 C28 1_555 1_555
H49 C28 1_555 1_555
H50 C28 1_555 1_555
C29 C26 1_555 1_555
H51 C29 1_555 1_555
H52 C29 1_555 1_555
H53 C29 1_555 1_555
C30 H54 1_555 1_555
H55 C30 1_555 1_555
C31 C30 1_555 1_555
H56 C31 1_555 1_555
H57 C31 1_555 1_555
C32 C31 1_555 1_555
H58 C32 1_555 1_555
H59 C32 1_555 1_555
C33 C32 1_555 1_555
H60 C33 1_555 1_555
H61 C33 1_555 1_555
C34 C35 1_555 1_555
C35 C36 1_555 1_555
C36 H62 1_555 1_555
H63 C36 1_555 1_555
H64 C36 1_555 1_555
C37 C35 1_555 1_555
H65 C37 1_555 1_555
H66 C37 1_555 1_555
H67 C37 1_555 1_555
C38 C35 1_555 1_555
H68 C38 1_555 1_555
H69 C38 1_555 1_555
H70 C38 1_555 1_555
C39 C40 1_555 1_555
C40 C41 1_555 1_555
C41 H71 1_555 1_555
H72 C41 1_555 1_555
H73 C41 1_555 1_555
C42 C40 1_555 1_555
H74 C42 1_555 1_555
H75 C42 1_555 1_555
H76 C42 1_555 1_555
C43 C40 1_555 1_555
H77 C43 1_555 1_555
H78 C43 1_555 1_555
H79 C43 1_555 1_555
C44 C45 1_555 1_555
C45 C46 1_555 1_555
C46 H80 1_555 1_555
H81 C46 1_555 1_555
H82 C46 1_555 1_555
C47 C45 1_555 1_555
H83 C47 1_555 1_555
H84 C47 1_555 1_555
H85 C47 1_555 1_555
C48 C45 1_555 1_555
H86 C48 1_555 1_555
H87 C48 1_555 1_555
H88 C48 1_555 1_555
C49 H89 1_555 1_555
H90 C49 1_555 1_555
C50 C49 1_555 1_555
H91 C50 1_555 1_555
H92 C50 1_555 1_555
C51 C50 1_555 1_555
H93 C51 1_555 1_555
H94 C51 1_555 1_555
C52 C51 1_555 1_555
H95 C52 1_555 1_555
H96 C52 1_555 1_555
C53 C54 1_555 1_555
C54 C55 1_555 1_555
C55 H97 1_555 1_555
H98 C55 1_555 1_555
H99 C55 1_555 1_555
C56 C54 1_555 1_555
H100 C56 1_555 1_555
H101 C56 1_555 1_555
H102 C56 1_555 1_555
C57 C54 1_555 1_555
H103 C57 1_555 1_555
H104 C57 1_555 1_555
H105 C57 1_555 1_555
C58 H106 1_555 1_555
H107 C58 1_555 1_555
C59 C58 1_555 1_555
H108 C59 1_555 1_555
H109 C59 1_555 1_555
C60 C59 1_555 1_555
H110 C60 1_555 1_555
H111 C60 1_555 1_555
C61 C60 1_555 1_555
H112 C61 1_555 1_555
H113 C61 1_555 1_555
C62 C63 1_555 1_555
C63 C64 1_555 1_555
C64 H114 1_555 1_555
H115 C64 1_555 1_555
H116 C64 1_555 1_555
C65 C63 1_555 1_555
H117 C65 1_555 1_555
H118 C65 1_555 1_555
H119 C65 1_555 1_555
C66 C63 1_555 1_555
H120 C66 1_555 1_555
H121 C66 1_555 1_555
H122 C66 1_555 1_555
C67 C68 1_555 1_555
C68 C69 1_555 1_555
C69 H123 1_555 1_555
H124 C69 1_555 1_555
H125 C69 1_555 1_555
C70 C68 1_555 1_555
H126 C70 1_555 1_555
H127 C70 1_555 1_555
H128 C70 1_555 1_555
C71 C68 1_555 1_555
H129 C71 1_555 1_555
H130 C71 1_555 1_555
H131 C71 1_555 1_555
C72 C73 1_555 1_555
C73 C74 1_555 1_555
C74 H132 1_555 1_555
H133 C74 1_555 1_555
H134 C74 1_555 1_555
C75 C73 1_555 1_555
H135 C75 1_555 1_555
H136 C75 1_555 1_555
H137 C75 1_555 1_555
C76 C73 1_555 1_555
H138 C76 1_555 1_555
H139 C76 1_555 1_555
H140 C76 1_555 1_555
O1 C1 1_555 1_555
O2 C1 1_555 1_555
O3 C6 1_555 1_555
O4 C11 1_555 1_555
O5 C16 1_555 1_555
O6 C72 1_555 1_555
O7 C20 1_555 1_555
O8 C20 1_555 1_555
O9 C25 1_555 1_555
O10 C25 1_555 1_555
O11 C30 1_555 1_555
O12 C34 1_555 1_555
O13 C34 1_555 1_555
O14 C39 1_555 1_555
O15 C39 1_555 1_555
O16 C44 1_555 1_555
O17 C44 1_555 1_555
O18 C49 1_555 1_555
O19 C53 1_555 1_555
O20 C53 1_555 1_555
O21 C58 1_555 1_555
O22 C62 1_555 1_555
O23 C62 1_555 1_555
O24 C67 1_555 1_555
O25 C67 1_555 1_555
O26 C72 1_555 1_555
O27 C11 1_555 1_555
O28 C6 1_555 1_555
Mn1 O1 1_555 1_555
Mn2 O2 1_555 1_555
Mn3 O8 1_555 1_555
Mn4 O13 1_555 1_555
Mn5 O17 1_555 1_555
Mn6 O6 1_555 1_555
O6_2 Mn1 1_555 1_555
O27_2 Mn6 1_555 1_555
O28_2 Mn6 1_555 1_555
Mn1_2 O6 1_555 1_555
Mn6_2 O27 1_555 1_555
C19 O5 1_555 1_555
C33 O11 1_555 1_555
C52 O18 1_555 1_555
C61 O21 1_555 1_555
O3 Mn1 1_555 1_555
O3 Mn2 1_555 1_555
O4 Mn1 1_555 1_555
O5 Mn1 1_555 1_555
O7 Mn1 1_555 1_555
O7 Mn2 1_555 1_555
O8 Mn2 1_555 1_555
O9 Mn2 1_555 1_555
O10 Mn3 1_555 1_555
O11 Mn2 1_555 1_555
O12 Mn3 1_555 1_555
O14 Mn3 1_555 1_555
O15 Mn4 1_555 1_555
O16 Mn3 1_555 1_555
O17 Mn4 1_555 1_555
O18 Mn4 1_555 1_555
O19 Mn4 1_555 1_555
O20 Mn5 1_555 1_555
O21 Mn5 1_555 1_555
O22 Mn4 1_555 1_555
O22 Mn5 1_555 1_555
O23 Mn5 1_555 1_555
O23 Mn6 1_555 1_555
O24 Mn5 1_555 1_555
O25 Mn6 1_555 1_555
O26 Mn6 1_555 1_555
O28 Mn6_2 1_555 1_555
O6_2 Mn6_2 1_555 1_555

#END
