
#######################################################################
#
#                 Cambridge Crystallographic Data Centre
#                                CCDC 
#
#######################################################################
#
# If this CIF has been generated from an entry in the Cambridge 
# Structural Database, then it will include bibliographic, chemical, 
# crystal, experimental, refinement or atomic coordinate data resulting 
# from the CCDC's data processing and validation procedures.
#
#######################################################################

data_BIPTIF
_symmetry_cell_setting           monoclinic
_symmetry_space_group_name_H-M   'P 21/c'
_symmetry_Int_Tables_number      14
_space_group_name_Hall           '-P 2ybc'
loop_
_symmetry_equiv_pos_site_id
_symmetry_equiv_pos_as_xyz
1 x,y,z
2 -x,1/2+y,1/2-z
3 -x,-y,-z
4 x,1/2-y,1/2+z
_cell_length_a                   10.321(3)
_cell_length_b                   18.735(5)
_cell_length_c                   17.405(4)
_cell_angle_alpha                90
_cell_angle_beta                 99.987(7)
_cell_angle_gamma                90
_cell_volume                     3314.5
loop_
_atom_site_label
_atom_site_type_symbol
_atom_site_fract_x
_atom_site_fract_y
_atom_site_fract_z
Zn1 Zn 0.0000 0.0000 0.0000
O1 O 0.1133(3) -0.04175(18) 0.1036(2)
O2 O -0.4944(3) -0.0456(2) 0.2348(2)
O3 O -0.8242(3) 0.09150(19) 0.3291(3)
O4 O -0.8049(4) -0.1655(2) 0.3621(3)
C1 C -0.6105(5) -0.0433(3) 0.2695(3)
C2 C -0.6673(5) 0.0219(3) 0.2784(3)
H1 H -0.6344 0.0637 0.2604
C3 C -0.7730(5) 0.0224(3) 0.3144(4)
C4 C -0.8246(6) -0.0391(3) 0.3419(4)
H2 H -0.8971 -0.0371 0.3670
C5 C -0.7667(5) -0.1016(3) 0.3311(4)
C6 C -0.6568(5) -0.1063(3) 0.2938(3)
H3 H -0.6176 -0.1499 0.2861
O5 O -0.6187(3) -0.0678(3) 0.1183(2)
N1 N -0.1715(3) -0.0299(2) 0.0539(3)
C7 C -0.1650(5) -0.0169(3) 0.1283(3)
H4 H -0.0856 -0.0005 0.1564
C8 C -0.2714(5) -0.0262(3) 0.1686(4)
H5 H -0.2634 -0.0168 0.2217
C9 C -0.3894(4) -0.0503(3) 0.1243(3)
C10 C -0.3961(5) -0.0646(3) 0.0476(4)
H6 H -0.4742 -0.0813 0.0183
C11 C -0.2876(4) -0.0544(3) 0.0130(3)
H7 H -0.2936 -0.0644 -0.0398
C12 C -0.5144(5) -0.0559(3) 0.1577(4)
O6 O -1.0389(5) 0.0627(3) 0.2822(3)
N2 N -1.0435(6) 0.3200(3) 0.3668(4)
C13 C -0.9169(7) 0.2962(4) 0.3802(6)
H8 H -0.8511 0.3271 0.4033
C14 C -0.8818(7) 0.2285(4) 0.3611(5)
H9 H -0.7940 0.2146 0.3688
C15 C -0.9827(6) 0.1808(3) 0.3298(4)
C16 C -1.1118(6) 0.2042(4) 0.3188(4)
H10 H -1.1806 0.1735 0.2993
C17 C -1.1363(7) 0.2738(4) 0.3372(4)
H11 H -1.2232 0.2894 0.3284
C18 C -0.9575(7) 0.1062(3) 0.3073(4)
O7 O -1.0213(5) -0.1533(3) 0.3082(3)
N3 N -0.9864(4) -0.3936(2) 0.4435(3)
C19 C -1.0821(5) -0.3591(3) 0.3984(4)
H12 H -1.1632 -0.3817 0.3858
C20 C -1.0695(6) -0.2905(3) 0.3684(4)
H13 H -1.1419 -0.2671 0.3401
C21 C -0.9482(6) -0.2587(3) 0.3815(4)
C22 C -0.8462(6) -0.2941(3) 0.4259(4)
H14 H -0.7628 -0.2737 0.4348
C23 C -0.8664(5) -0.3616(3) 0.4586(4)
H15 H -0.7971 -0.3841 0.4906
C24 C -0.9333(6) -0.1875(4) 0.3463(5)
O1B O -0.1133(3) 0.04175(18) -0.1036(2)
O2B O 0.4944(3) 0.0456(2) -0.2348(2)
O3B O 0.8242(3) -0.09150(19) -0.3291(3)
O4B O 0.8049(4) 0.1655(2) -0.3621(3)
C1B C 0.6105(5) 0.0433(3) -0.2695(3)
C2B C 0.6673(5) -0.0219(3) -0.2784(3)
H1B H 0.6344 -0.0637 -0.2604
C3B C 0.7730(5) -0.0224(3) -0.3144(4)
C4B C 0.8246(6) 0.0391(3) -0.3419(4)
H2B H 0.8971 0.0371 -0.3670
C5B C 0.7667(5) 0.1016(3) -0.3311(4)
C6B C 0.6568(5) 0.1063(3) -0.2938(3)
H3B H 0.6176 0.1499 -0.2861
O5B O 0.6187(3) 0.0678(3) -0.1183(2)
N1B N 0.1715(3) 0.0299(2) -0.0539(3)
C7B C 0.1650(5) 0.0169(3) -0.1283(3)
H4B H 0.0856 0.0005 -0.1564
C8B C 0.2714(5) 0.0262(3) -0.1686(4)
H5B H 0.2634 0.0168 -0.2217
C9B C 0.3894(4) 0.0503(3) -0.1243(3)
C10B C 0.3961(5) 0.0646(3) -0.0476(4)
H6B H 0.4742 0.0813 -0.0183
C11B C 0.2876(4) 0.0544(3) -0.0130(3)
H7B H 0.2936 0.0644 0.0398
C12B C 0.5144(5) 0.0559(3) -0.1577(4)
O6B O 1.0389(5) -0.0627(3) -0.2822(3)
N2B N 1.0435(6) -0.3200(3) -0.3668(4)
C13B C 0.9169(7) -0.2962(4) -0.3802(6)
H8B H 0.8511 -0.3271 -0.4033
C14B C 0.8818(7) -0.2285(4) -0.3611(5)
H9B H 0.7940 -0.2146 -0.3688
C15B C 0.9827(6) -0.1808(3) -0.3298(4)
C16B C 1.1118(6) -0.2042(4) -0.3188(4)
H10B H 1.1806 -0.1735 -0.2993
C17B C 1.1363(7) -0.2738(4) -0.3372(4)
H11B H 1.2232 -0.2894 -0.3284
C18B C 0.9575(7) -0.1062(3) -0.3073(4)
O7B O 1.0213(5) 0.1533(3) -0.3082(3)
N3B N 0.9864(4) 0.3936(2) -0.4435(3)
C19B C 1.0821(5) 0.3591(3) -0.3984(4)
H12B H 1.1632 0.3817 -0.3858
C20B C 1.0695(6) 0.2905(3) -0.3684(4)
H13B H 1.1419 0.2671 -0.3401
C21B C 0.9482(6) 0.2587(3) -0.3815(4)
C22B C 0.8462(6) 0.2941(3) -0.4259(4)
H14B H 0.7628 0.2737 -0.4348
C23B C 0.8664(5) 0.3616(3) -0.4586(4)
H15B H 0.7971 0.3841 -0.4906
C24B C 0.9333(6) 0.1875(4) -0.3463(5)
Zn1A Zn -1.0000 -0.5000 0.5000
Zn1A_2 Zn 1.0000 0.5000 -0.5000
N3A N -0.0136(4) 0.1064(2) 0.0565(3)
N3C N 0.0136(4) -0.1064(2) -0.0565(3)
loop_
_geom_bond_atom_site_label_1
_geom_bond_atom_site_label_2
_geom_bond_site_symmetry_1
_geom_bond_site_symmetry_2
Zn1 O1 1_555 1_555
O2 C1 1_555 1_555
O3 C3 1_555 1_555
O4 C5 1_555 1_555
C1 C2 1_555 1_555
C2 H1 1_555 1_555
C3 C2 1_555 1_555
C4 C3 1_555 1_555
H2 C4 1_555 1_555
C5 C4 1_555 1_555
C6 C1 1_555 1_555
H3 C6 1_555 1_555
O5 C12 1_555 1_555
N1 Zn1 1_555 1_555
C7 N1 1_555 1_555
H4 C7 1_555 1_555
C8 C7 1_555 1_555
H5 C8 1_555 1_555
C9 C8 1_555 1_555
C10 C9 1_555 1_555
H6 C10 1_555 1_555
C11 N1 1_555 1_555
H7 C11 1_555 1_555
C12 O2 1_555 1_555
O6 C18 1_555 1_555
N2 C13 1_555 1_555
C13 H8 1_555 1_555
C14 C13 1_555 1_555
H9 C14 1_555 1_555
C15 C14 1_555 1_555
C16 C15 1_555 1_555
H10 C16 1_555 1_555
C17 N2 1_555 1_555
H11 C17 1_555 1_555
C18 O3 1_555 1_555
O7 C24 1_555 1_555
N3 C19 1_555 1_555
C19 H12 1_555 1_555
C20 C19 1_555 1_555
H13 C20 1_555 1_555
C21 C20 1_555 1_555
C22 C21 1_555 1_555
H14 C22 1_555 1_555
C23 N3 1_555 1_555
H15 C23 1_555 1_555
C24 O4 1_555 1_555
O1B Zn1 1_555 1_555
O2B C1B 1_555 1_555
O3B C3B 1_555 1_555
O4B C5B 1_555 1_555
C1B C2B 1_555 1_555
C2B H1B 1_555 1_555
C3B C2B 1_555 1_555
C4B C3B 1_555 1_555
H2B C4B 1_555 1_555
C5B C4B 1_555 1_555
C6B C1B 1_555 1_555
H3B C6B 1_555 1_555
O5B C12B 1_555 1_555
N1B Zn1 1_555 1_555
C7B N1B 1_555 1_555
H4B C7B 1_555 1_555
C8B C7B 1_555 1_555
H5B C8B 1_555 1_555
C9B C8B 1_555 1_555
C10B C9B 1_555 1_555
H6B C10B 1_555 1_555
C11B N1B 1_555 1_555
H7B C11B 1_555 1_555
C12B O2B 1_555 1_555
O6B C18B 1_555 1_555
N2B C13B 1_555 1_555
C13B H8B 1_555 1_555
C14B C13B 1_555 1_555
H9B C14B 1_555 1_555
C15B C14B 1_555 1_555
C16B C15B 1_555 1_555
H10B C16B 1_555 1_555
C17B N2B 1_555 1_555
H11B C17B 1_555 1_555
C18B O3B 1_555 1_555
O7B C24B 1_555 1_555
N3B C19B 1_555 1_555
C19B H12B 1_555 1_555
C20B C19B 1_555 1_555
H13B C20B 1_555 1_555
C21B C20B 1_555 1_555
C22B C21B 1_555 1_555
H14B C22B 1_555 1_555
C23B N3B 1_555 1_555
H15B C23B 1_555 1_555
C24B O4B 1_555 1_555
Zn1A N3 1_555 1_555
Zn1A_2 N3B 1_555 1_555
N3A Zn1 1_555 1_555
N3C Zn1 1_555 1_555
C5 C6 1_555 1_555
C9 C12 1_555 1_555
C10 C11 1_555 1_555
C15 C18 1_555 1_555
C16 C17 1_555 1_555
C21 C24 1_555 1_555
C22 C23 1_555 1_555
C5B C6B 1_555 1_555
C9B C12B 1_555 1_555
C10B C11B 1_555 1_555
C15B C18B 1_555 1_555
C16B C17B 1_555 1_555
C21B C24B 1_555 1_555
C22B C23B 1_555 1_555

#END
