
#######################################################################
#
#                 Cambridge Crystallographic Data Centre
#                                CCDC 
#
#######################################################################
#
# If this CIF has been generated from an entry in the Cambridge 
# Structural Database, then it will include bibliographic, chemical, 
# crystal, experimental, refinement or atomic coordinate data resulting 
# from the CCDC's data processing and validation procedures.
#
#######################################################################

data_BIPTAX
_symmetry_cell_setting           monoclinic
_symmetry_space_group_name_H-M   'P 21/c'
_symmetry_Int_Tables_number      14
_space_group_name_Hall           '-P 2ybc'
loop_
_symmetry_equiv_pos_site_id
_symmetry_equiv_pos_as_xyz
1 x,y,z
2 -x,1/2+y,1/2-z
3 -x,-y,-z
4 x,1/2-y,1/2+z
_cell_length_a                   10.4535(19)
_cell_length_b                   18.918(4)
_cell_length_c                   17.278(3)
_cell_angle_alpha                90
_cell_angle_beta                 100.905(5)
_cell_angle_gamma                90
_cell_volume                     3355.18
loop_
_atom_site_label
_atom_site_type_symbol
_atom_site_fract_x
_atom_site_fract_y
_atom_site_fract_z
Cd1 Cd 0.0000 0.5000 0.5000
O1 O 0.8221(3) 0.40946(15) 0.1704(2)
O2 O 0.8029(3) 0.66251(15) 0.1353(2)
O3 O 0.4970(3) 0.54357(16) 0.26186(18)
C1 C 0.7738(4) 0.4768(2) 0.1833(3)
C2 C 0.8217(5) 0.5364(2) 0.1545(3)
H1 H 0.8918 0.5345 0.1285
C3 C 0.7620(4) 0.5992(2) 0.1656(3)
C4 C 0.6562(4) 0.6035(2) 0.2013(3)
H2 H 0.6172 0.6466 0.2081
C5 C 0.6099(4) 0.5413(2) 0.2268(2)
C6 C 0.6657(5) 0.4783(2) 0.2193(3)
H3 H 0.6331 0.4370 0.2375
O4 O 1.0285(4) 0.4387(2) 0.2144(3)
N1 N 1.0476(5) 0.1852(2) 0.1343(3)
C7 C 0.9194(7) 0.2068(3) 0.1217(5)
H4 H 0.8544 0.1747 0.1012
C8 C 0.8851(6) 0.2743(3) 0.1384(4)
H5 H 0.7980 0.2879 0.1290
C9 C 0.9805(5) 0.3213(2) 0.1692(3)
C10 C 1.1065(6) 0.3008(3) 0.1802(4)
H6 H 1.1734 0.3319 0.2004
C11 C 1.1335(6) 0.2320(3) 0.1603(4)
H7 H 1.2206 0.2189 0.1664
C12 C 0.9504(5) 0.3949(2) 0.1884(3)
N2 N 0.9814(3) 0.88832(17) 0.0588(2)
O5 O 1.0147(5) 0.6488(2) 0.1901(3)
C13 C 1.0807(5) 0.8517(2) 0.1018(3)
H8 H 1.1629 0.8723 0.1111
C14 C 1.0673(5) 0.7839(2) 0.1336(4)
H9 H 1.1377 0.7603 0.1635
C15 C 0.9449(5) 0.7546(2) 0.1180(3)
C16 C 0.8420(5) 0.7910(2) 0.0751(3)
H10 H 0.7586 0.7719 0.0669
C17 C 0.8636(5) 0.8568(2) 0.0441(3)
H11 H 0.7945 0.8798 0.0122
C18 C 0.9283(5) 0.6826(2) 0.1537(3)
O6 O 0.6181(3) 0.5652(2) 0.3790(2)
N3 N 0.1803(3) 0.53164(17) 0.4432(2)
C19 C 0.1742(4) 0.5182(2) 0.3680(3)
H12 H 0.0950 0.5027 0.3390
C20 C 0.2784(4) 0.5257(3) 0.3287(3)
H13 H 0.2703 0.5147 0.2756
C21 C 0.3949(4) 0.5504(2) 0.3729(2)
C22 C 0.4024(4) 0.5656(2) 0.4510(3)
H14 H 0.4799 0.5817 0.4815
C23 C 0.2931(4) 0.5568(2) 0.4837(3)
H15 H 0.2979 0.5688 0.5364
C24 C 0.5160(4) 0.5552(2) 0.3400(3)
O7 O -0.1159(3) 0.54602(15) 0.38452(17)
O1B O -0.8221(3) 0.59054(15) 0.8296(2)
O2B O -0.8029(3) 0.33749(15) 0.8647(2)
O3B O -0.4970(3) 0.45643(16) 0.73814(18)
C1B C -0.7738(4) 0.5232(2) 0.8167(3)
C2B C -0.8217(5) 0.4636(2) 0.8455(3)
H1B H -0.8918 0.4655 0.8715
C3B C -0.7620(4) 0.4008(2) 0.8344(3)
C4B C -0.6562(4) 0.3965(2) 0.7987(3)
H2B H -0.6172 0.3534 0.7919
C5B C -0.6099(4) 0.4587(2) 0.7732(2)
C6B C -0.6657(5) 0.5217(2) 0.7807(3)
H3B H -0.6331 0.5630 0.7625
O4B O -1.0285(4) 0.5613(2) 0.7856(3)
N1B N -1.0476(5) 0.8148(2) 0.8657(3)
C7B C -0.9194(7) 0.7932(3) 0.8783(5)
H4B H -0.8544 0.8253 0.8988
C8B C -0.8851(6) 0.7257(3) 0.8616(4)
H5B H -0.7980 0.7121 0.8710
C9B C -0.9805(5) 0.6787(2) 0.8308(3)
C10B C -1.1065(6) 0.6992(3) 0.8198(4)
H6B H -1.1734 0.6681 0.7996
C11B C -1.1335(6) 0.7680(3) 0.8397(4)
H7B H -1.2206 0.7811 0.8336
C12B C -0.9504(5) 0.6051(2) 0.8116(3)
N2B N -0.9814(3) 0.11168(17) 0.9412(2)
O5B O -1.0147(5) 0.3512(2) 0.8099(3)
C13B C -1.0807(5) 0.1483(2) 0.8982(3)
H8B H -1.1629 0.1277 0.8889
C14B C -1.0673(5) 0.2161(2) 0.8664(4)
H9B H -1.1377 0.2397 0.8365
C15B C -0.9449(5) 0.2454(2) 0.8820(3)
C16B C -0.8420(5) 0.2090(2) 0.9249(3)
H10B H -0.7586 0.2281 0.9331
C17B C -0.8636(5) 0.1432(2) 0.9559(3)
H11B H -0.7945 0.1202 0.9878
C18B C -0.9283(5) 0.3174(2) 0.8463(3)
O6B O -0.6181(3) 0.4348(2) 0.6210(2)
N3B N -0.1803(3) 0.46836(17) 0.5568(2)
C19B C -0.1742(4) 0.4818(2) 0.6320(3)
H12B H -0.0950 0.4973 0.6610
C20B C -0.2784(4) 0.4743(3) 0.6713(3)
H13B H -0.2703 0.4853 0.7244
C21B C -0.3949(4) 0.4496(2) 0.6271(2)
C22B C -0.4024(4) 0.4344(2) 0.5490(3)
H14B H -0.4799 0.4183 0.5185
C23B C -0.2931(4) 0.4432(2) 0.5163(3)
H15B H -0.2979 0.4312 0.4636
C24B C -0.5160(4) 0.4448(2) 0.6600(3)
O7B O 0.1159(3) 0.45398(15) 0.61548(17)
Cd1A Cd -1.0000 0.0000 1.0000
Cd1A_2 Cd 1.0000 1.0000 0.0000
N2A N 0.0186(3) 0.38832(17) 0.4412(2)
N2C N -0.0186(3) 0.61168(17) 0.5588(2)
loop_
_geom_bond_atom_site_label_1
_geom_bond_atom_site_label_2
_geom_bond_site_symmetry_1
_geom_bond_site_symmetry_2
Cd1 N3 1_555 1_555
O1 C1 1_555 1_555
O2 C3 1_555 1_555
O3 C5 1_555 1_555
C1 C2 1_555 1_555
C2 H1 1_555 1_555
C3 C2 1_555 1_555
C4 C3 1_555 1_555
H2 C4 1_555 1_555
C5 C4 1_555 1_555
C6 C1 1_555 1_555
H3 C6 1_555 1_555
O4 C12 1_555 1_555
N1 C7 1_555 1_555
C7 H4 1_555 1_555
C8 C7 1_555 1_555
H5 C8 1_555 1_555
C9 C8 1_555 1_555
C10 C9 1_555 1_555
H6 C10 1_555 1_555
C11 N1 1_555 1_555
H7 C11 1_555 1_555
C12 O1 1_555 1_555
N2 C13 1_555 1_555
O5 C18 1_555 1_555
C13 H8 1_555 1_555
C14 C13 1_555 1_555
H9 C14 1_555 1_555
C15 C14 1_555 1_555
C16 C15 1_555 1_555
H10 C16 1_555 1_555
C17 N2 1_555 1_555
H11 C17 1_555 1_555
C18 O2 1_555 1_555
O6 C24 1_555 1_555
N3 C19 1_555 1_555
C19 H12 1_555 1_555
C20 C19 1_555 1_555
H13 C20 1_555 1_555
C21 C20 1_555 1_555
C22 C21 1_555 1_555
H14 C22 1_555 1_555
C23 N3 1_555 1_555
H15 C23 1_555 1_555
C24 O3 1_555 1_555
O7 Cd1 1_555 1_555
O1B C1B 1_555 1_555
O2B C3B 1_555 1_555
O3B C5B 1_555 1_555
C1B C2B 1_555 1_555
C2B H1B 1_555 1_555
C3B C2B 1_555 1_555
C4B C3B 1_555 1_555
H2B C4B 1_555 1_555
C5B C4B 1_555 1_555
C6B C1B 1_555 1_555
H3B C6B 1_555 1_555
O4B C12B 1_555 1_555
N1B C7B 1_555 1_555
C7B H4B 1_555 1_555
C8B C7B 1_555 1_555
H5B C8B 1_555 1_555
C9B C8B 1_555 1_555
C10B C9B 1_555 1_555
H6B C10B 1_555 1_555
C11B N1B 1_555 1_555
H7B C11B 1_555 1_555
C12B O1B 1_555 1_555
N2B C13B 1_555 1_555
O5B C18B 1_555 1_555
C13B H8B 1_555 1_555
C14B C13B 1_555 1_555
H9B C14B 1_555 1_555
C15B C14B 1_555 1_555
C16B C15B 1_555 1_555
H10B C16B 1_555 1_555
C17B N2B 1_555 1_555
H11B C17B 1_555 1_555
C18B O2B 1_555 1_555
O6B C24B 1_555 1_555
N3B Cd1 1_555 1_555
C19B N3B 1_555 1_555
H12B C19B 1_555 1_555
C20B C19B 1_555 1_555
H13B C20B 1_555 1_555
C21B C20B 1_555 1_555
C22B C21B 1_555 1_555
H14B C22B 1_555 1_555
C23B N3B 1_555 1_555
H15B C23B 1_555 1_555
C24B O3B 1_555 1_555
O7B Cd1 1_555 1_555
Cd1A N2B 1_555 1_555
Cd1A_2 N2 1_555 1_555
N2A Cd1 1_555 1_555
N2C Cd1 1_555 1_555
C5 C6 1_555 1_555
C9 C12 1_555 1_555
C10 C11 1_555 1_555
C15 C18 1_555 1_555
C16 C17 1_555 1_555
C21 C24 1_555 1_555
C22 C23 1_555 1_555
C5B C6B 1_555 1_555
C9B C12B 1_555 1_555
C10B C11B 1_555 1_555
C15B C18B 1_555 1_555
C16B C17B 1_555 1_555
C21B C24B 1_555 1_555
C22B C23B 1_555 1_555

#END
