
#######################################################################
#
#                 Cambridge Crystallographic Data Centre
#                                CCDC 
#
#######################################################################
#
# If this CIF has been generated from an entry in the Cambridge 
# Structural Database, then it will include bibliographic, chemical, 
# crystal, experimental, refinement or atomic coordinate data resulting 
# from the CCDC's data processing and validation procedures.
#
#######################################################################

data_BIPTEB
_symmetry_cell_setting           monoclinic
_symmetry_space_group_name_H-M   'P 21/c'
_symmetry_Int_Tables_number      14
_space_group_name_Hall           '-P 2ybc'
loop_
_symmetry_equiv_pos_site_id
_symmetry_equiv_pos_as_xyz
1 x,y,z
2 -x,1/2+y,1/2-z
3 -x,-y,-z
4 x,1/2-y,1/2+z
_cell_length_a                   10.3591(4)
_cell_length_b                   19.0085(8)
_cell_length_c                   16.9399(7)
_cell_angle_alpha                90
_cell_angle_beta                 101.5160(10)
_cell_angle_gamma                90
_cell_volume                     3268.5
loop_
_atom_site_label
_atom_site_type_symbol
_atom_site_fract_x
_atom_site_fract_y
_atom_site_fract_z
P1 P 0.01177(17) 0.33496(9) 0.66261(11)
F1 F -0.0631(4) 0.4083(2) 0.6470(2)
F2 F -0.0987(4) 0.3100(2) 0.7124(2)
F3 F 0.0947(4) 0.3679(3) 0.7451(3)
F4 F 0.0899(5) 0.2641(3) 0.6785(4)
F5 F -0.0840(7) 0.3055(3) 0.5816(3)
F6 F 0.1088(5) 0.3622(3) 0.6070(4)
Cl1 Cl 0.4354(3) 0.58679(16) 0.98379(14)
Cl2 Cl 0.1898(3) 0.6481(2) 0.9053(3)
Cl3 Cl 0.2168(5) 0.49506(19) 0.9211(3)
C25 C 0.2860(11) 0.5682(8) 0.9127(6)
H16 H 0.3137 0.5650 0.8608
O8 O 0.0362(16) 0.4653(9) 0.9843(8)
O8B O -0.0362(16) 0.5347(9) 1.0157(8)
O9 O 0.0098(12) 0.6471(8) 0.0247(10)
O10 O 0.0597(14) 0.6977(8) 0.6796(8)
C26 C -0.0402(11) 0.7309(6) 0.5969(7)
Cd1 Cd 0.5000 0.5000 0.5000
O1 O 0.3822(3) 0.45761(17) 0.37994(19)
O2 O 0.0062(3) 0.54051(16) 0.74733(19)
O3 O -0.3078(3) 0.66074(17) 0.8689(2)
O4 O -0.3192(3) 0.40648(17) 0.8392(2)
C1 C -0.2721(5) 0.4733(2) 0.8262(3)
C2 C -0.1631(4) 0.4743(2) 0.7913(3)
H1 H -0.1280 0.4331 0.7749
C3 C -0.1078(4) 0.5395(2) 0.7815(3)
C4 C -0.1558(4) 0.6011(2) 0.8056(3)
H2 H -0.1160 0.6440 0.7990
C5 C -0.2673(5) 0.5971(2) 0.8405(3)
C6 C -0.3252(5) 0.5345(2) 0.8531(3)
H3 H -0.3968 0.5327 0.8786
O5 O -0.1191(3) 0.5681(2) 0.6271(2)
N1 N 0.3219(4) 0.5254(2) 0.5615(2)
C7 C 0.3303(5) 0.5103(3) 0.6397(3)
H4 H 0.4092 0.4925 0.6689
C8 C 0.2253(4) 0.5203(3) 0.6791(3)
H5 H 0.2337 0.5101 0.7335
C9 C 0.1077(4) 0.5462(2) 0.6338(3)
C10 C 0.0984(4) 0.5616(3) 0.5539(3)
H6 H 0.0204 0.5787 0.5229
C11 C 0.2100(4) 0.5509(2) 0.5202(3)
H7 H 0.2049 0.5622 0.4662
C12 C -0.0143(4) 0.5536(2) 0.6682(3)
O6 O -0.5225(4) 0.6472(2) 0.8101(2)
N2 N -0.4900(4) 0.8854(2) 0.9425(2)
C13 C -0.3720(5) 0.8540(2) 0.9607(3)
H8 H -0.3029 0.8777 0.9934
C14 C -0.3485(5) 0.7875(2) 0.9328(3)
H9 H -0.2656 0.7670 0.9464
C15 C -0.4531(5) 0.7520(2) 0.8835(3)
C16 C -0.5748(5) 0.7839(3) 0.8642(3)
H10 H -0.6455 0.7613 0.8317
C17 C -0.5892(5) 0.8511(2) 0.8949(3)
H11 H -0.6710 0.8729 0.8818
C18 C -0.4353(5) 0.6806(2) 0.8498(3)
O7 O -0.5330(4) 0.4357(2) 0.7982(3)
N3 N -0.5347(4) 0.1779(2) 0.8626(3)
C19 C -0.4130(6) 0.2009(3) 0.8776(4)
H12 H -0.3465 0.1689 0.8975
C20 C -0.3766(5) 0.2702(3) 0.8656(4)
H13 H -0.2887 0.2841 0.8766
C21 C -0.4764(5) 0.3173(3) 0.8369(3)
C22 C -0.6071(5) 0.2954(3) 0.8201(3)
H14 H -0.6752 0.3264 0.8001
C23 C -0.6319(5) 0.2244(3) 0.8345(3)
H15 H -0.7187 0.2087 0.8243
C24 C -0.4502(5) 0.3927(3) 0.8215(3)
O1B O 0.6178(3) 0.54239(17) 0.62006(19)
O2B O 0.9938(3) 0.45949(16) 0.25267(19)
O3B O 1.3078(3) 0.33926(17) 0.1311(2)
O4B O 1.3192(3) 0.59352(17) 0.1608(2)
C1B C 1.2721(5) 0.5267(2) 0.1738(3)
C2B C 1.1631(4) 0.5257(2) 0.2087(3)
H1B H 1.1280 0.5669 0.2251
C3B C 1.1078(4) 0.4605(2) 0.2185(3)
C4B C 1.1558(4) 0.3989(2) 0.1944(3)
H2B H 1.1160 0.3560 0.2010
C5B C 1.2673(5) 0.4029(2) 0.1595(3)
C6B C 1.3252(5) 0.4655(2) 0.1469(3)
H3B H 1.3968 0.4673 0.1214
O5B O 1.1191(3) 0.4319(2) 0.3729(2)
N1B N 0.6781(4) 0.4746(2) 0.4385(2)
C7B C 0.6697(5) 0.4897(3) 0.3603(3)
H4B H 0.5908 0.5075 0.3311
C8B C 0.7747(4) 0.4797(3) 0.3209(3)
H5B H 0.7663 0.4899 0.2665
C9B C 0.8923(4) 0.4538(2) 0.3662(3)
C10B C 0.9016(4) 0.4384(3) 0.4461(3)
H6B H 0.9796 0.4213 0.4771
C11B C 0.7900(4) 0.4491(2) 0.4798(3)
H7B H 0.7951 0.4378 0.5338
C12B C 1.0143(4) 0.4464(2) 0.3318(3)
O6B O 1.5225(4) 0.3528(2) 0.1899(2)
N2B N 1.4900(4) 0.1146(2) 0.0575(2)
C13B C 1.3720(5) 0.1460(2) 0.0393(3)
H8B H 1.3029 0.1223 0.0066
C14B C 1.3485(5) 0.2125(2) 0.0672(3)
H9B H 1.2656 0.2330 0.0536
C15B C 1.4531(5) 0.2480(2) 0.1165(3)
C16B C 1.5748(5) 0.2161(3) 0.1358(3)
H10B H 1.6455 0.2387 0.1683
C17B C 1.5892(5) 0.1489(2) 0.1051(3)
H11B H 1.6710 0.1271 0.1182
C18B C 1.4353(5) 0.3194(2) 0.1502(3)
O7B O 1.5330(4) 0.5643(2) 0.2018(3)
N3B N 1.5347(4) 0.8221(2) 0.1374(3)
C19B C 1.4130(6) 0.7991(3) 0.1224(4)
H12B H 1.3465 0.8311 0.1025
C20B C 1.3766(5) 0.7298(3) 0.1344(4)
H13B H 1.2887 0.7159 0.1234
C21B C 1.4764(5) 0.6827(3) 0.1631(3)
C22B C 1.6071(5) 0.7046(3) 0.1799(3)
H14B H 1.6752 0.6736 0.1999
C23B C 1.6319(5) 0.7756(3) 0.1655(3)
H15B H 1.7187 0.7913 0.1757
C24B C 1.4502(5) 0.6073(3) 0.1785(3)
Cd1A Cd -0.5000 1.0000 1.0000
Cd1A_2 Cd 1.5000 0.0000 0.0000
N2A N 0.4900(4) 0.3854(2) 0.5575(2)
N2C N 0.5100(4) 0.6146(2) 0.4425(2)
loop_
_geom_bond_atom_site_label_1
_geom_bond_atom_site_label_2
_geom_bond_site_symmetry_1
_geom_bond_site_symmetry_2
Cd1 O1 1_555 1_555
O2 C3 1_555 1_555
O3 C5 1_555 1_555
O4 C1 1_555 1_555
C1 C2 1_555 1_555
C2 H1 1_555 1_555
C3 C2 1_555 1_555
C4 C3 1_555 1_555
H2 C4 1_555 1_555
C5 C4 1_555 1_555
C6 C1 1_555 1_555
H3 C6 1_555 1_555
O5 C12 1_555 1_555
N1 Cd1 1_555 1_555
C7 N1 1_555 1_555
H4 C7 1_555 1_555
C8 C7 1_555 1_555
H5 C8 1_555 1_555
C9 C8 1_555 1_555
C10 C9 1_555 1_555
H6 C10 1_555 1_555
C11 N1 1_555 1_555
H7 C11 1_555 1_555
C12 O2 1_555 1_555
O6 C18 1_555 1_555
N2 C13 1_555 1_555
C13 H8 1_555 1_555
C14 C13 1_555 1_555
H9 C14 1_555 1_555
C15 C14 1_555 1_555
C16 C15 1_555 1_555
H10 C16 1_555 1_555
C17 N2 1_555 1_555
H11 C17 1_555 1_555
C18 O3 1_555 1_555
O7 C24 1_555 1_555
N3 C19 1_555 1_555
C19 H12 1_555 1_555
C20 C19 1_555 1_555
H13 C20 1_555 1_555
C21 C20 1_555 1_555
C22 C21 1_555 1_555
H14 C22 1_555 1_555
C23 N3 1_555 1_555
H15 C23 1_555 1_555
C24 O4 1_555 1_555
P1 F1 1_555 1_555
F2 P1 1_555 1_555
F3 P1 1_555 1_555
F4 P1 1_555 1_555
F5 P1 1_555 1_555
F6 P1 1_555 1_555
Cl1 C25 1_555 1_555
Cl2 C25 1_555 1_555
Cl3 C25 1_555 1_555
C25 H16 1_555 1_555
O8 O8B 1_555 1_555
O10 C26 1_555 1_555
O1B Cd1 1_555 1_555
O2B C3B 1_555 1_555
O3B C5B 1_555 1_555
O4B C1B 1_555 1_555
C1B C2B 1_555 1_555
C2B H1B 1_555 1_555
C3B C2B 1_555 1_555
C4B C3B 1_555 1_555
H2B C4B 1_555 1_555
C5B C4B 1_555 1_555
C6B C1B 1_555 1_555
H3B C6B 1_555 1_555
O5B C12B 1_555 1_555
N1B Cd1 1_555 1_555
C7B N1B 1_555 1_555
H4B C7B 1_555 1_555
C8B C7B 1_555 1_555
H5B C8B 1_555 1_555
C9B C8B 1_555 1_555
C10B C9B 1_555 1_555
H6B C10B 1_555 1_555
C11B N1B 1_555 1_555
H7B C11B 1_555 1_555
C12B O2B 1_555 1_555
O6B C18B 1_555 1_555
N2B C13B 1_555 1_555
C13B H8B 1_555 1_555
C14B C13B 1_555 1_555
H9B C14B 1_555 1_555
C15B C14B 1_555 1_555
C16B C15B 1_555 1_555
H10B C16B 1_555 1_555
C17B N2B 1_555 1_555
H11B C17B 1_555 1_555
C18B O3B 1_555 1_555
O7B C24B 1_555 1_555
N3B C19B 1_555 1_555
C19B H12B 1_555 1_555
C20B C19B 1_555 1_555
H13B C20B 1_555 1_555
C21B C20B 1_555 1_555
C22B C21B 1_555 1_555
H14B C22B 1_555 1_555
C23B N3B 1_555 1_555
H15B C23B 1_555 1_555
C24B O4B 1_555 1_555
Cd1A N2 1_555 1_555
Cd1A_2 N2B 1_555 1_555
N2A Cd1 1_555 1_555
N2C Cd1 1_555 1_555
C5 C6 1_555 1_555
C9 C12 1_555 1_555
C10 C11 1_555 1_555
C15 C18 1_555 1_555
C16 C17 1_555 1_555
C21 C24 1_555 1_555
C22 C23 1_555 1_555
C5B C6B 1_555 1_555
C9B C12B 1_555 1_555
C10B C11B 1_555 1_555
C15B C18B 1_555 1_555
C16B C17B 1_555 1_555
C21B C24B 1_555 1_555
C22B C23B 1_555 1_555

#END
