
#######################################################################
#
#                 Cambridge Crystallographic Data Centre
#                                CCDC 
#
#######################################################################
#
# If this CIF has been generated from an entry in the Cambridge 
# Structural Database, then it will include bibliographic, chemical, 
# crystal, experimental, refinement or atomic coordinate data resulting 
# from the CCDC's data processing and validation procedures.
#
#######################################################################

data_BIPYHG
_symmetry_cell_setting           monoclinic
_symmetry_space_group_name_H-M   'P 21/n'
_symmetry_Int_Tables_number      14
_space_group_name_Hall           '-P 2yn'
loop_
_symmetry_equiv_pos_site_id
_symmetry_equiv_pos_as_xyz
1 x,y,z
2 1/2-x,1/2+y,1/2-z
3 -x,-y,-z
4 1/2+x,1/2-y,1/2+z
_cell_length_a                   13.851(1)
_cell_length_b                   10.030(1)
_cell_length_c                   9.349(1)
_cell_angle_alpha                90
_cell_angle_beta                 100.35(1)
_cell_angle_gamma                90
_cell_volume                     1277.68
loop_
_atom_site_label
_atom_site_type_symbol
_atom_site_fract_x
_atom_site_fract_y
_atom_site_fract_z
Hg1 Hg 0.20491 0.15194 0.37945
O1 O 0.36130 0.18850 0.42540
O2 O 0.47810 0.18240 0.60930
O3 O 0.32910 0.16960 0.64130
N1 N 0.39150 0.17930 0.56280
O4 O 0.27450 -0.08850 0.48080
O5 O 0.29210 -0.27950 0.38070
O6 O 0.28360 -0.09950 0.25040
N2 N 0.28390 -0.15640 0.37050
N3 N 0.05970 0.05970 0.29720
N4 N 0.09390 0.25220 0.50300
C1 C 0.11660 0.34680 0.60630
C2 C 0.04640 0.40870 0.67190
C3 C -0.05090 0.37510 0.62380
C4 C -0.07580 0.27710 0.51410
C5 C 0.00060 0.21560 0.46110
C6 C -0.01890 0.10560 0.34900
C7 C -0.11260 0.05450 0.30210
C8 C -0.12400 -0.04920 0.20050
C9 C -0.04430 -0.09340 0.14520
C10 C 0.04680 -0.03890 0.19800
O5A O 0.20790 0.22050 0.11930
Hg1A Hg 0.29509 -0.34806 0.12055
loop_
_geom_bond_atom_site_label_1
_geom_bond_atom_site_label_2
_geom_bond_site_symmetry_1
_geom_bond_site_symmetry_2
Hg1 O1 1_555 1_555
O1 N1 1_555 1_555
O2 N1 1_555 1_555
O3 Hg1 1_555 1_555
N1 O3 1_555 1_555
O4 Hg1 1_555 1_555
O5 N2 1_555 1_555
O6 N2 1_555 1_555
N2 O4 1_555 1_555
N3 Hg1 1_555 1_555
N4 Hg1 1_555 1_555
C1 N4 1_555 1_555
C2 C1 1_555 1_555
C3 C2 1_555 1_555
C4 C3 1_555 1_555
C5 N4 1_555 1_555
C6 N3 1_555 1_555
C7 C6 1_555 1_555
C8 C7 1_555 1_555
C9 C8 1_555 1_555
C10 N3 1_555 1_555
O5A Hg1 1_555 1_555
Hg1A O5 1_555 1_555
C4 C5 1_555 1_555
C5 C6 1_555 1_555
C9 C10 1_555 1_555

#END
