
#######################################################################
#
#                 Cambridge Crystallographic Data Centre
#                                CCDC 
#
#######################################################################
#
# If this CIF has been generated from an entry in the Cambridge 
# Structural Database, then it will include bibliographic, chemical, 
# crystal, experimental, refinement or atomic coordinate data resulting 
# from the CCDC's data processing and validation procedures.
#
#######################################################################

data_BIQHIU
_symmetry_cell_setting           monoclinic
_symmetry_space_group_name_H-M   'C 2/c'
_symmetry_Int_Tables_number      15
_space_group_name_Hall           '-C 2yn'
loop_
_symmetry_equiv_pos_site_id
_symmetry_equiv_pos_as_xyz
1 x,y,z
2 -x,y,1/2-z
3 1/2+x,1/2+y,z
4 1/2-x,1/2+y,1/2-z
5 -x,-y,-z
6 x,-y,1/2+z
7 1/2-x,1/2-y,-z
8 1/2+x,1/2-y,1/2+z
_cell_length_a                   13.4237(18)
_cell_length_b                   20.496(2)
_cell_length_c                   23.570(4)
_cell_angle_alpha                90
_cell_angle_beta                 98.472(7)
_cell_angle_gamma                90
_cell_volume                     6414.1
loop_
_atom_site_label
_atom_site_type_symbol
_atom_site_fract_x
_atom_site_fract_y
_atom_site_fract_z
C1 C 0.6422(14) 0.4366(8) 0.4562(8)
C2 C 0.8074(11) 0.5104(8) 0.4597(7)
C3 C 0.8965(14) 0.4352(7) 0.5558(9)
C4 C 0.7253(11) 0.3633(8) 0.5471(7)
C5 C 0.8204(11) 0.3732(7) 0.4562(7)
C6 C 0.2884(12) 0.5039(7) 0.4448(7)
C7 C 0.6321(14) 0.6345(8) 0.2961(9)
C8 C 0.4610(13) 0.5715(8) 0.2991(8)
C9 C 0.4584(11) 0.7037(7) 0.3023(8)
C10 C 0.6281(14) 0.2678(7) 0.2976(9)
C11 C 0.4539(11) 0.3318(7) 0.2950(7)
C12 C 0.5471(11) 0.2037(8) 0.2007(7)
C13 C 0.8548(14) 0.4556(8) 0.3125(8)
H1 H 0.8515 0.4418 0.3498
C14 C 0.8506(13) 0.4084(8) 0.2704(8)
H2 H 0.8450 0.3644 0.2791
C15 C 0.8551(14) 0.4294(8) 0.2136(9)
C16 C 0.8597(13) 0.4951(8) 0.2052(8)
H3 H 0.8588 0.5107 0.1681
C17 C 0.8655(14) 0.5396(8) 0.2503(8)
H4 H 0.8710 0.5839 0.2427
C18 C 0.8545(14) 0.3801(9) 0.1677(9)
C19 C 0.8086(13) 0.3198(9) 0.1706(9)
H5 H 0.7787 0.3071 0.2020
C20 C 0.8103(15) 0.2804(9) 0.1240(9)
H6 H 0.7768 0.2407 0.1234
C21 C 0.8978(14) 0.3506(9) 0.0784(9)
H7 H 0.9285 0.3610 0.0467
C22 C 0.9002(13) 0.3970(9) 0.1216(9)
H8 H 0.9312 0.4373 0.1193
N1 N 0.5655(11) 0.4409(6) 0.4259(7)
N2 N 0.8240(10) 0.5527(7) 0.4320(7)
N3 N 0.9690(11) 0.4342(7) 0.5891(7)
N4 N 0.6971(10) 0.3200(6) 0.5701(6)
N5 N 0.8479(10) 0.3332(6) 0.4289(6)
N6 N 0.3281(10) 0.4690(6) 0.4164(7)
N7 N 0.7093(12) 0.6278(7) 0.3242(7)
N8 N 0.4431(11) 0.5284(7) 0.3253(7)
N9 N 0.4282(11) 0.7356(6) 0.3338(6)
N10 N 0.7062(11) 0.2675(7) 0.3270(8)
N11 N 0.4266(10) 0.3709(6) 0.3261(6)
N12 N 0.5750(10) 0.1682(6) 0.1691(6)
N13 N 0.8633(9) 0.5203(6) 0.3035(6)
N14 N 0.8563(12) 0.2947(7) 0.0795(8)
Fe1 Fe 0.76864(17) 0.43751(9) 0.50529(10)
Fe2 Fe 0.5000 0.63791(14) 0.2500
Fe3 Fe 0.5000 0.26663(14) 0.2500
Zn1 Zn 0.43806(14) 0.44892(8) 0.37325(8)
Zn2 Zn 0.88048(19) 0.59004(9) 0.36750(10)
Zn3 Zn 0.67697(14) 0.24496(8) 0.61762(8)
C1A C 0.3578(14) 0.4366(8) 0.0438(8)
C2A C 0.1926(11) 0.5104(8) 0.0403(7)
C3A C 0.1035(14) 0.4352(7) -0.0558(9)
C4A C 0.2747(11) 0.3633(8) -0.0471(7)
C5A C 0.1796(11) 0.3732(7) 0.0438(7)
C6A C 0.7116(12) 0.5039(7) 0.0552(7)
C7A C 0.3679(14) 0.6345(8) 0.2039(9)
C8A C 0.5390(13) 0.5715(8) 0.2009(8)
C9A C 0.5416(11) 0.7037(7) 0.1977(8)
C10A C 0.3719(14) 0.2678(7) 0.2024(9)
C11A C 0.5461(11) 0.3318(7) 0.2050(7)
C12A C 0.4529(11) 0.2037(8) 0.2993(7)
C13A C 0.1452(14) 0.4556(8) 0.1875(8)
H1A H 0.1485 0.4418 0.1502
C14A C 0.1494(13) 0.4084(8) 0.2296(8)
H2A H 0.1550 0.3644 0.2209
C15A C 0.1449(14) 0.4294(8) 0.2864(9)
C16A C 0.1403(13) 0.4951(8) 0.2948(8)
H3A H 0.1412 0.5107 0.3319
C17A C 0.1345(14) 0.5396(8) 0.2497(8)
H4A H 0.1290 0.5839 0.2573
C18A C 0.1455(14) 0.3801(9) 0.3323(9)
C19A C 0.1914(13) 0.3198(9) 0.3294(9)
H5A H 0.2213 0.3071 0.2980
C20A C 0.1897(15) 0.2804(9) 0.3760(9)
H6A H 0.2232 0.2407 0.3766
C21A C 0.1022(14) 0.3506(9) 0.4216(9)
H7A H 0.0715 0.3610 0.4533
C22A C 0.0998(13) 0.3970(9) 0.3784(9)
H8A H 0.0688 0.4373 0.3807
N1A N 0.4345(11) 0.4409(6) 0.0741(7)
N2A N 0.1760(10) 0.5527(7) 0.0680(7)
N3A N 0.0310(11) 0.4342(7) -0.0891(7)
N4A N 0.3029(10) 0.3200(6) -0.0701(6)
N5A N 0.1521(10) 0.3332(6) 0.0711(6)
N6A N 0.6719(10) 0.4690(6) 0.0836(7)
N7A N 0.2907(12) 0.6278(7) 0.1758(7)
N8A N 0.5569(11) 0.5284(7) 0.1747(7)
N9A N 0.5718(11) 0.7356(6) 0.1662(6)
N10A N 0.2938(11) 0.2675(7) 0.1730(8)
N11A N 0.5734(10) 0.3709(6) 0.1739(6)
N12A N 0.4250(10) 0.1682(6) 0.3309(6)
N13A N 0.1367(9) 0.5203(6) 0.1965(6)
N14A N 0.1437(12) 0.2947(7) 0.4205(8)
Fe1A Fe 0.23136(17) 0.43751(9) -0.00529(10)
Zn1A Zn 0.56194(14) 0.44892(8) 0.12675(8)
Zn2A Zn 0.11952(19) 0.59004(9) 0.13250(10)
Zn3A Zn 0.32303(14) 0.24496(8) -0.11762(8)
C6D C 0.7116(12) 0.4961(7) 0.5552(7)
C6E C 0.2884(12) 0.4961(7) -0.0552(7)
N3D N 1.0310(11) 0.5658(7) 0.4109(7)
N3E N -0.0310(11) 0.5658(7) 0.0891(7)
N5F N 0.6521(10) 0.1668(6) 0.5711(6)
N5G N 0.3479(10) 0.1668(6) -0.0711(6)
N9D N 0.5718(11) 0.2644(6) 0.6662(6)
N9E N 0.4282(11) 0.2644(6) -0.1662(6)
N10F N 0.7938(11) 0.2325(7) 0.6730(8)
N10G N 0.2062(11) 0.2325(7) -0.1730(8)
N12B N 0.0750(10) 0.6682(6) 0.1691(6)
N12C N 0.9250(10) 0.6682(6) 0.3309(6)
Fe1D Fe 0.23136(17) 0.56249(9) 0.49471(10)
Fe1E Fe 0.76864(17) 0.56249(9) 0.00529(10)
Zn2B Zn 0.38048(19) 0.09004(9) 0.36750(10)
Zn2C Zn 0.61952(19) 0.09004(9) 0.13250(10)
Zn2D Zn 1.11952(19) 0.40996(9) 0.63250(10)
Zn2E Zn -0.11952(19) 0.40996(9) -0.13250(10)
Zn3D Zn 0.32303(14) 0.75504(8) 0.38238(8)
Zn3E Zn 0.67697(14) 0.75504(8) 0.11762(8)
Zn3F Zn 0.82303(14) 0.25504(8) 0.38238(8)
Zn3G Zn 0.17697(14) 0.25504(8) 0.11762(8)
C23 C 0.865(3) 0.1740(13) -0.0007(13)
H9 H 0.8519 0.1481 -0.0354
H10 H 0.8012 0.1787 0.0133
C24 C 0.929(2) 0.1310(15) 0.0430(13)
H11 H 0.8983 0.0890 0.0442
H12 H 0.9354 0.1510 0.0802
H13 H 0.9952 0.1260 0.0322
O1 O 0.888(2) 0.2317(10) -0.0171(13)
H14 H 0.8947 0.2566 0.0104
O2 O 1.044(2) 0.7506(10) 0.4442(9)
H15 H 1.0372 0.7552 0.4796
H16 H 1.0883 0.7779 0.4353
loop_
_geom_bond_atom_site_label_1
_geom_bond_atom_site_label_2
_geom_bond_site_symmetry_1
_geom_bond_site_symmetry_2
C1 N1 1_555 1_555
C2 N2 1_555 1_555
C3 N3 1_555 1_555
C4 N4 1_555 1_555
C5 N5 1_555 1_555
C6 N6 1_555 1_555
C7 N7 1_555 1_555
C8 N8 1_555 1_555
C9 N9 1_555 1_555
C10 N10 1_555 1_555
C11 N11 1_555 1_555
C12 N12 1_555 1_555
C13 H1 1_555 1_555
C14 C13 1_555 1_555
H2 C14 1_555 1_555
C15 C14 1_555 1_555
C16 C15 1_555 1_555
H3 C16 1_555 1_555
C17 C16 1_555 1_555
H4 C17 1_555 1_555
C18 C15 1_555 1_555
C19 C18 1_555 1_555
H5 C19 1_555 1_555
C20 C19 1_555 1_555
H6 C20 1_555 1_555
C21 H7 1_555 1_555
C22 C18 1_555 1_555
H8 C22 1_555 1_555
N1 Zn1 1_555 1_555
N2 Zn2 1_555 1_555
N3 Zn2D 1_555 1_555
N4 Zn3 1_555 1_555
N5 Zn3F 1_555 1_555
N6 Zn1 1_555 1_555
N7 Zn2 1_555 1_555
N8 Zn1 1_555 1_555
N9 Zn3D 1_555 1_555
N10 Zn3F 1_555 1_555
N11 Zn1 1_555 1_555
N12 Zn2C 1_555 1_555
N13 C13 1_555 1_555
N14 C20 1_555 1_555
Fe1 C1 1_555 1_555
Fe2 C7 1_555 1_555
Fe3 C10 1_555 1_555
Zn2 N13 1_555 1_555
Zn3 N5F 1_555 1_555
C23 H9 1_555 1_555
H10 C23 1_555 1_555
C24 C23 1_555 1_555
H11 C24 1_555 1_555
H12 C24 1_555 1_555
H13 C24 1_555 1_555
O1 C23 1_555 1_555
H14 O1 1_555 1_555
O2 H15 1_555 1_555
H16 O2 1_555 1_555
C1A N1A 1_555 1_555
C2A N2A 1_555 1_555
C3A N3A 1_555 1_555
C4A N4A 1_555 1_555
C5A N5A 1_555 1_555
C6A N6A 1_555 1_555
C7A Fe2 1_555 1_555
C8A Fe2 1_555 1_555
C9A Fe2 1_555 1_555
C10A Fe3 1_555 1_555
C11A Fe3 1_555 1_555
C12A Fe3 1_555 1_555
C13A H1A 1_555 1_555
C14A C13A 1_555 1_555
H2A C14A 1_555 1_555
C15A C14A 1_555 1_555
C16A C15A 1_555 1_555
H3A C16A 1_555 1_555
C17A C16A 1_555 1_555
H4A C17A 1_555 1_555
C18A C15A 1_555 1_555
C19A C18A 1_555 1_555
H5A C19A 1_555 1_555
C20A C19A 1_555 1_555
H6A C20A 1_555 1_555
C21A H7A 1_555 1_555
C22A C18A 1_555 1_555
H8A C22A 1_555 1_555
N1A Zn1A 1_555 1_555
N2A Zn2A 1_555 1_555
N3A Zn2E 1_555 1_555
N4A Zn3A 1_555 1_555
N5A Zn3G 1_555 1_555
N6A Zn1A 1_555 1_555
N7A C7A 1_555 1_555
N8A C8A 1_555 1_555
N9A C9A 1_555 1_555
N10A C10A 1_555 1_555
N11A C11A 1_555 1_555
N12A C12A 1_555 1_555
N13A C13A 1_555 1_555
N14A C20A 1_555 1_555
Fe1A C1A 1_555 1_555
Zn1A N8A 1_555 1_555
Zn2A N7A 1_555 1_555
Zn3A N5G 1_555 1_555
C6D Fe1 1_555 1_555
C6E Fe1A 1_555 1_555
N3D Zn2 1_555 1_555
N3E Zn2A 1_555 1_555
N9D Zn3 1_555 1_555
N9E Zn3A 1_555 1_555
N10F Zn3 1_555 1_555
N10G Zn3A 1_555 1_555
N12B Zn2A 1_555 1_555
N12C Zn2 1_555 1_555
Fe1D C6 1_555 1_555
Fe1E C6A 1_555 1_555
Zn2B N12A 1_555 1_555
Zn3E N9A 1_555 1_555
Zn3G N10A 1_555 1_555
C2 Fe1 1_555 1_555
C3 Fe1 1_555 1_555
C4 Fe1 1_555 1_555
C5 Fe1 1_555 1_555
C8 Fe2 1_555 1_555
C9 Fe2 1_555 1_555
C11 Fe3 1_555 1_555
C12 Fe3 1_555 1_555
C17 N13 1_555 1_555
C21 C22 1_555 1_555
C21 N14 1_555 1_555
C2A Fe1A 1_555 1_555
C3A Fe1A 1_555 1_555
C4A Fe1A 1_555 1_555
C5A Fe1A 1_555 1_555
C17A N13A 1_555 1_555
C21A C22A 1_555 1_555
C21A N14A 1_555 1_555
N11A Zn1A 1_555 1_555
N13A Zn2A 1_555 1_555

#END
