
#######################################################################
#
#                 Cambridge Crystallographic Data Centre
#                                CCDC 
#
#######################################################################
#
# If this CIF has been generated from an entry in the Cambridge 
# Structural Database, then it will include bibliographic, chemical, 
# crystal, experimental, refinement or atomic coordinate data resulting 
# from the CCDC's data processing and validation procedures.
#
#######################################################################

data_BIQSIF
_symmetry_cell_setting           triclinic
_symmetry_space_group_name_H-M   'P -1'
_symmetry_Int_Tables_number      2
_space_group_name_Hall           '-P 1'
loop_
_symmetry_equiv_pos_site_id
_symmetry_equiv_pos_as_xyz
1 x,y,z
2 -x,-y,-z
_cell_length_a                   10.8867(6)
_cell_length_b                   12.0757(7)
_cell_length_c                   12.5026(7)
_cell_angle_alpha                102.870(5)
_cell_angle_beta                 111.691(5)
_cell_angle_gamma                105.909(5)
_cell_volume                     1368.79
loop_
_atom_site_label
_atom_site_type_symbol
_atom_site_fract_x
_atom_site_fract_y
_atom_site_fract_z
C11 C 0.5307(7) 0.5000(8) 0.4565(7)
C12 C 0.5441(10) 0.3952(10) 0.3967(8)
H9 H 0.5160 0.3234 0.4130
C13 C 0.5987(10) 0.3976(11) 0.3137(9)
H10 H 0.6050 0.3268 0.2722
C14 C 0.5743(9) 0.6023(10) 0.4267(9)
H11 H 0.5651 0.6739 0.4624
C15 C 0.6301(10) 0.5998(12) 0.3462(10)
H12 H 0.6605 0.6702 0.3284
N3 N 0.6419(7) 0.4993(9) 0.2928(7)
H13 H 0.6790 0.5003 0.2429
C11A C 0.4693(7) 0.5000(8) 0.5435(7)
C12A C 0.4559(10) 0.6048(10) 0.6033(8)
H9A H 0.4840 0.6766 0.5870
C13A C 0.4013(10) 0.6024(11) 0.6863(9)
H10A H 0.3950 0.6732 0.7278
C14A C 0.4257(9) 0.3977(10) 0.5733(9)
H11A H 0.4349 0.3261 0.5376
C15A C 0.3699(10) 0.4002(12) 0.6538(10)
H12A H 0.3395 0.3298 0.6716
N3A N 0.3581(7) 0.5007(9) 0.7072(7)
H13A H 0.3210 0.4997 0.7571
O23 O 0.528(2) 0.1572(19) 0.1024(19)
Cu1 Cu 1.44262(11) 1.05419(11) 0.33417(12)
Si1 Si 1.0000 0.5000 0.0000
Mo1 Mo 0.64561(6) 0.40821(6) -0.03897(6)
Mo2 Mo 0.79903(6) 0.67637(7) -0.09216(6)
Mo3 Mo 0.92322(7) 0.67608(6) 0.21187(6)
Mo4 Mo 1.28212(7) 0.73385(7) 0.27516(6)
Mo5 Mo 1.17062(7) 0.79067(7) -0.00553(6)
Mo6 Mo 1.07180(7) 0.45965(8) 0.28653(7)
C1 C 1.2501(8) 1.0789(8) 0.4362(8)
H1 H 1.3248 1.0891 0.5098
C2 C 1.1236(7) 1.0804(8) 0.4363(7)
H2 H 1.1155 1.0951 0.5092
C3 C 1.0079(7) 1.0596(7) 0.3251(7)
C4 C 1.0286(8) 1.0380(7) 0.2203(7)
H3 H 0.9532 1.0199 0.1438
C5 C 1.1588(8) 1.0430(7) 0.2291(8)
H4 H 1.1708 1.0318 0.1581
C6 C 0.6167(8) 0.9704(8) 0.2422(9)
H5 H 0.5294 0.9060 0.1847
C7 C 0.7406(8) 0.9665(8) 0.2386(8)
H6 H 0.7360 0.9000 0.1806
C8 C 0.8706(7) 1.0612(7) 0.3210(7)
C9 C 0.8688(8) 1.1591(8) 0.4029(7)
H7 H 0.9543 1.2262 0.4588
C10 C 0.7420(8) 1.1576(8) 0.4019(7)
H8 H 0.7438 1.2249 0.4568
N1 N 1.2704(6) 1.0634(6) 0.3353(6)
N2 N 0.6158(7) 1.0630(7) 0.3249(6)
O1 O 1.4099(5) 0.8535(5) 0.4021(5)
O2 O 1.1193(5) 0.4420(6) 0.4214(5)
O3 O 0.8794(6) 0.7486(5) 0.3128(5)
O4 O 0.8644(7) 0.7338(6) 0.0911(5)
O5 O 1.2556(6) 0.9239(5) -0.0118(6)
O6 O 1.1136(6) 0.7649(7) 0.2796(9)
O7 O 0.7373(6) 0.5240(6) 0.1169(5)
O8 O 0.6115(10) 0.3173(8) -0.2083(6)
O9 O 0.9725(6) 0.5555(8) 0.2922(10)
O10 O 1.2508(10) 0.8283(8) 0.1607(6)
O11 O 0.9999(6) 0.7968(8) -0.0277(6)
O12 O 1.2439(6) 0.6142(7) 0.3365(9)
O13 O 0.6922(10) 0.2884(8) 0.0076(6)
O14 O 1.0773(6) 0.6852(8) -0.1830(6)
O15 O 0.6597(7) 0.5426(6) -0.1059(5)
O16 O 0.4752(5) 0.3600(6) -0.0706(5)
O17 O 0.7143(6) 0.7688(6) -0.1226(6)
O18 O 0.8839(9) 0.5477(9) 0.0143(8)
O19 O 0.9765(9) 0.5982(9) -0.0707(8)
O20 O 1.0507(9) 0.5726(9) 0.1483(8)
O21 O 0.8430(9) 0.3849(9) -0.0581(8)
O22 O 0.8025(6) 0.6111(8) -0.2339(6)
O18A O 1.1161(9) 0.4523(9) -0.0143(8)
O19A O 1.0235(9) 0.4018(9) 0.0707(8)
O20A O 0.9493(9) 0.4274(9) -0.1483(8)
O21A O 1.1570(9) 0.6151(9) 0.0581(8)
Cu1A Cu 0.55738(11) -0.05419(11) -0.33417(12)
Mo1A Mo 1.35439(6) 0.59179(6) 0.03897(6)
Mo2A Mo 1.20097(6) 0.32363(7) 0.09216(6)
Mo3A Mo 1.07678(7) 0.32392(6) -0.21187(6)
Mo4A Mo 0.71788(7) 0.26615(7) -0.27516(6)
Mo5A Mo 0.82938(7) 0.20933(7) 0.00553(6)
Mo6A Mo 0.92820(7) 0.54035(8) -0.28653(7)
C1A C 0.7499(8) -0.0789(8) -0.4362(8)
H1A H 0.6752 -0.0891 -0.5098
C2A C 0.8764(7) -0.0804(8) -0.4363(7)
H2A H 0.8845 -0.0951 -0.5092
C3A C 0.9921(7) -0.0596(7) -0.3251(7)
C4A C 0.9714(8) -0.0380(7) -0.2203(7)
H3A H 1.0468 -0.0199 -0.1438
C5A C 0.8412(8) -0.0430(7) -0.2291(8)
H4A H 0.8292 -0.0318 -0.1581
C6A C 1.3833(8) 0.0296(8) -0.2422(9)
H5A H 1.4706 0.0940 -0.1847
C7A C 1.2594(8) 0.0335(8) -0.2386(8)
H6A H 1.2640 0.1000 -0.1806
C8A C 1.1294(7) -0.0612(7) -0.3210(7)
C9A C 1.1312(8) -0.1591(8) -0.4029(7)
H7A H 1.0457 -0.2262 -0.4588
C10A C 1.2580(8) -0.1576(8) -0.4019(7)
H8A H 1.2562 -0.2249 -0.4568
N1A N 0.7296(6) -0.0634(6) -0.3353(6)
N2A N 1.3842(7) -0.0630(7) -0.3249(6)
O1A O 0.5901(5) 0.1465(5) -0.4021(5)
O2A O 0.8807(5) 0.5580(6) -0.4214(5)
O3A O 1.1206(6) 0.2514(5) -0.3128(5)
O4A O 1.1356(7) 0.2662(6) -0.0911(5)
O5A O 0.7444(6) 0.0761(5) 0.0118(6)
O6A O 0.8864(6) 0.2351(7) -0.2796(9)
O7A O 1.2627(6) 0.4760(6) -0.1169(5)
O8A O 1.3885(10) 0.6827(8) 0.2083(6)
O9A O 1.0275(6) 0.4445(8) -0.2922(10)
O10A O 0.7492(10) 0.1717(8) -0.1607(6)
O11A O 1.0001(6) 0.2032(8) 0.0277(6)
O12A O 0.7561(6) 0.3858(7) -0.3365(9)
O13A O 1.3078(10) 0.7116(8) -0.0076(6)
O14A O 0.9227(6) 0.3148(8) 0.1830(6)
O15A O 1.3403(7) 0.4574(6) 0.1059(5)
O16A O 1.5248(5) 0.6400(6) 0.0706(5)
O17A O 1.2857(6) 0.2312(6) 0.1226(6)
O22A O 1.1975(6) 0.3889(8) 0.2339(6)
Cu1_2 Cu 0.44262(11) 1.05419(11) 0.33417(12)
Cu1A_2 Cu 1.55738(11) -0.05419(11) -0.33417(12)
N2_2 N 1.6158(7) 1.0630(7) 0.3249(6)
N2A_2 N 0.3842(7) -0.0630(7) -0.3249(6)
loop_
_geom_bond_atom_site_label_1
_geom_bond_atom_site_label_2
_geom_bond_site_symmetry_1
_geom_bond_site_symmetry_2
Cu1 N1 1_555 1_555
Si1 O18 1_555 1_555
Mo1 O7 1_555 1_555
Mo2 O4 1_555 1_555
Mo3 O3 1_555 1_555
Mo4 O1 1_555 1_555
Mo5 O5 1_555 1_555
Mo6 O2 1_555 1_555
C1 H1 1_555 1_555
C2 C1 1_555 1_555
H2 C2 1_555 1_555
C3 C2 1_555 1_555
C4 C3 1_555 1_555
H3 C4 1_555 1_555
C5 C4 1_555 1_555
H4 C5 1_555 1_555
C6 H5 1_555 1_555
C7 C6 1_555 1_555
H6 C7 1_555 1_555
C8 C3 1_555 1_555
C9 C8 1_555 1_555
H7 C9 1_555 1_555
C10 C9 1_555 1_555
H8 C10 1_555 1_555
N1 C1 1_555 1_555
N2 C6 1_555 1_555
O1 Cu1 1_555 1_555
O4 Mo3 1_555 1_555
O6 Mo3 1_555 1_555
O7 Mo3 1_555 1_555
O8 Mo1 1_555 1_555
O9 Mo3 1_555 1_555
O10 Cu1 1_555 1_555
O11 Mo2 1_555 1_555
O12 Mo4 1_555 1_555
O13 Mo1 1_555 1_555
O14 Mo5 1_555 1_555
O15 Mo1 1_555 1_555
O16 Mo1 1_555 1_555
O17 Mo2 1_555 1_555
O18 Mo1 1_555 1_555
O19 Si1 1_555 1_555
O20 Si1 1_555 1_555
O21 Si1 1_555 1_555
O22 Mo2 1_555 1_555
C11 C12 1_555 1_555
C12 H9 1_555 1_555
C13 C12 1_555 1_555
H10 C13 1_555 1_555
C14 C11 1_555 1_555
H11 C14 1_555 1_555
C15 C14 1_555 1_555
H12 C15 1_555 1_555
N3 C13 1_555 1_555
H13 N3 1_555 1_555
O18A Si1 1_555 1_555
O19A Si1 1_555 1_555
O20A Si1 1_555 1_555
O21A Si1 1_555 1_555
Cu1A N1A 1_555 1_555
Mo1A O18A 1_555 1_555
Mo2A O18A 1_555 1_555
Mo3A O18A 1_555 1_555
Mo4A O8 1_555 1_555
Mo5A O13 1_555 1_555
Mo6A O14 1_555 1_555
C1A H1A 1_555 1_555
C2A C1A 1_555 1_555
H2A C2A 1_555 1_555
C3A C2A 1_555 1_555
C4A C3A 1_555 1_555
H3A C4A 1_555 1_555
C5A C4A 1_555 1_555
H4A C5A 1_555 1_555
C6A H5A 1_555 1_555
C7A C6A 1_555 1_555
H6A C7A 1_555 1_555
C8A C3A 1_555 1_555
C9A C8A 1_555 1_555
H7A C9A 1_555 1_555
C10A C9A 1_555 1_555
H8A C10A 1_555 1_555
N1A C1A 1_555 1_555
N2A C6A 1_555 1_555
O1A Cu1A 1_555 1_555
O2A Mo6A 1_555 1_555
O3A Mo3A 1_555 1_555
O4A Mo2A 1_555 1_555
O5A Mo5A 1_555 1_555
O6A Mo3A 1_555 1_555
O7A Mo1A 1_555 1_555
O8A Mo4 1_555 1_555
O9A Mo3A 1_555 1_555
O10A Cu1A 1_555 1_555
O11A Mo2A 1_555 1_555
O12A Mo4A 1_555 1_555
O13A Mo5 1_555 1_555
O14A Mo6 1_555 1_555
O15A Mo1A 1_555 1_555
O16A Mo1A 1_555 1_555
O17A Mo2A 1_555 1_555
O22A Mo6 1_555 1_555
Cu1_2 N2 1_555 1_555
Cu1A_2 N2A 1_555 1_555
N2_2 Cu1 1_555 1_555
N2A_2 Cu1A 1_555 1_555
C11A C11 1_555 1_555
C12A C11A 1_555 1_555
H9A C12A 1_555 1_555
C13A C12A 1_555 1_555
H10A C13A 1_555 1_555
C14A C11A 1_555 1_555
H11A C14A 1_555 1_555
C15A C14A 1_555 1_555
H12A C15A 1_555 1_555
N3A C13A 1_555 1_555
H13A N3A 1_555 1_555
Mo1 O21 1_555 1_555
Mo2 O15 1_555 1_555
Mo2 O18 1_555 1_555
Mo2 O19 1_555 1_555
Mo3 O18 1_555 1_555
Mo3 O20 1_555 1_555
Mo4 O6 1_555 1_555
Mo4 O10 1_555 1_555
Mo4 O20 1_555 1_555
Mo4 O21A 1_555 1_555
Mo5 O10 1_555 1_555
Mo5 O11 1_555 1_555
Mo5 O19 1_555 1_555
Mo5 O21A 1_555 1_555
Mo6 O9 1_555 1_555
Mo6 O12 1_555 1_555
Mo6 O20 1_555 1_555
Mo6 O19A 1_555 1_555
C5 N1 1_555 1_555
C7 C8 1_555 1_555
C10 N2 1_555 1_555
O18 O19 1_555 1_555
O19 Mo6A 1_555 1_555
O21 Mo4A 1_555 1_555
O21 Mo5A 1_555 1_555
O22 Mo6A 1_555 1_555
C15 N3 1_555 1_555
O18A O19A 1_555 1_555
O19A Mo2A 1_555 1_555
O19A Mo5A 1_555 1_555
O20A Mo3A 1_555 1_555
O20A Mo4A 1_555 1_555
O20A Mo6A 1_555 1_555
O21A Mo1A 1_555 1_555
Mo1A O8A 1_555 1_555
Mo1A O13A 1_555 1_555
Mo2A O15A 1_555 1_555
Mo2A O22A 1_555 1_555
Mo3A O4A 1_555 1_555
Mo3A O7A 1_555 1_555
Mo4A O1A 1_555 1_555
Mo4A O6A 1_555 1_555
Mo4A O10A 1_555 1_555
Mo5A O10A 1_555 1_555
Mo5A O11A 1_555 1_555
Mo5A O14A 1_555 1_555
Mo6A O9A 1_555 1_555
Mo6A O12A 1_555 1_555
C5A N1A 1_555 1_555
C7A C8A 1_555 1_555
C10A N2A 1_555 1_555
C15A N3A 1_555 1_555

#END
