
#######################################################################
#
#                 Cambridge Crystallographic Data Centre
#                                CCDC 
#
#######################################################################
#
# If this CIF has been generated from an entry in the Cambridge 
# Structural Database, then it will include bibliographic, chemical, 
# crystal, experimental, refinement or atomic coordinate data resulting 
# from the CCDC's data processing and validation procedures.
#
#######################################################################

data_BIQSUR
_symmetry_cell_setting           tetragonal
_symmetry_space_group_name_H-M   'I 41/a'
_symmetry_Int_Tables_number      88
_space_group_name_Hall           '-I 4ad'
loop_
_symmetry_equiv_pos_site_id
_symmetry_equiv_pos_as_xyz
1 x,y,z
2 1/2-x,-y,1/2+z
3 3/4-y,1/4+x,1/4+z
4 3/4+y,3/4-x,3/4+z
5 1/2+x,1/2+y,1/2+z
6 -x,1/2-y,z
7 1/4-y,3/4+x,3/4+z
8 1/4+y,1/4-x,1/4+z
9 -x,-y,-z
10 1/2+x,y,1/2-z
11 1/4+y,3/4-x,3/4-z
12 1/4-y,1/4+x,1/4-z
13 1/2-x,1/2-y,1/2-z
14 x,1/2+y,-z
15 3/4+y,1/4-x,1/4-z
16 3/4-y,3/4+x,3/4-z
_cell_length_a                   27.35800(10)
_cell_length_b                   27.35800(10)
_cell_length_c                   15.58930(10)
_cell_angle_alpha                90
_cell_angle_beta                 90
_cell_angle_gamma                90
_cell_volume                     11668
loop_
_atom_site_label
_atom_site_type_symbol
_atom_site_fract_x
_atom_site_fract_y
_atom_site_fract_z
Pb1 Pb 0.118602(7) 0.723652(7) -0.024841(11)
Pb2 Pb 0.066034(7) 0.722826(7) 0.274607(12)
O1 O 0.09422(14) 0.76321(15) -0.1721(3)
O2 O 0.18271(14) 0.67394(14) 0.0207(2)
O3 O 0.07347(14) 0.70242(14) 0.4267(2)
O4 O 0.11838(14) 0.72870(14) 0.1573(2)
O5 O 0.02799(17) 0.65293(18) 0.1800(3)
O6 O 0.11048(14) 0.81879(14) -0.2719(2)
O7 O 0.20815(18) 0.59721(16) 0.0366(3)
O8 O 0.11903(19) 0.6719(2) 0.5294(3)
O9 O 0.17023(14) 0.77632(14) 0.0880(2)
N1 N 0.18539(15) 0.76837(15) -0.1101(3)
N2 N 0.14004(15) 0.65462(16) -0.1281(3)
N3 N 0.11940(16) 0.65210(15) 0.3051(3)
N4 N 0.14729(15) 0.76379(14) 0.3090(3)
C1 C 0.2309(2) 0.7689(2) -0.0780(4)
C2 C 0.1196(2) 0.6496(2) -0.2061(3)
C3 C 0.1377(2) 0.62596(19) 0.2404(4)
C4 C 0.16216(18) 0.77666(17) 0.3878(3)
C5 C 0.2693(2) 0.7908(2) -0.1193(4)
C6 C 0.1274(2) 0.6080(2) -0.2547(4)
C7 C 0.1653(2) 0.5849(2) 0.2546(4)
C8 C 0.20516(18) 0.80181(18) 0.4007(3)
C9 C 0.2607(2) 0.8128(2) -0.1976(4)
C10 C 0.1554(2) 0.5708(3) -0.2204(4)
C11 C 0.1760(2) 0.5722(2) 0.3382(4)
C12 C 0.23311(18) 0.81492(18) 0.3311(3)
C13 C 0.21356(19) 0.81374(19) -0.2337(3)
C14 C 0.1757(2) 0.5749(2) -0.1384(4)
C15 C 0.15945(19) 0.6001(2) 0.4069(4)
C16 C 0.21797(18) 0.80290(17) 0.2473(3)
C17 C 0.2067(2) 0.8376(2) -0.3194(4)
C18 C 0.2046(3) 0.5328(3) -0.1037(6)
C19 C 0.1718(2) 0.5859(3) 0.4983(5)
C20 C 0.24900(18) 0.81813(19) 0.1726(3)
C21 C 0.17657(17) 0.79074(17) -0.1855(3)
C22 C 0.16714(18) 0.6184(2) -0.0946(3)
C23 C 0.12993(18) 0.64042(19) 0.3864(3)
C24 C 0.17419(18) 0.77657(17) 0.2401(3)
C25 C 0.12301(18) 0.79085(18) -0.2125(3)
C26 C 0.18802(19) 0.6300(2) -0.0049(4)
C27 C 0.1056(2) 0.6736(2) 0.4535(4)
C28 C 0.15365(18) 0.75987(18) 0.1547(3)
H1 H 0.2367 0.7535 -0.0243
H2 H 0.0995 0.6750 -0.2282
H3 H 0.1315 0.6360 0.1831
H4 H 0.1426 0.7682 0.4359
H5 H -0.0018(6) 0.653(3) 0.176(3)
H6 H 0.0390(16) 0.654(3) 0.1322(18)
H7 H 0.3010 0.7909 -0.0947
H8 H 0.1138 0.6050 -0.3105
H9 H 0.1768 0.5657 0.2080
H10 H 0.2154 0.8100 0.4572
H11 H 0.2871 0.8274 -0.2277
H12 H 0.1609 0.5420 -0.2530
H13 H 0.1950 0.5438 0.3491
H14 H 0.2628 0.8322 0.3396
H15 H 0.2387 0.8451 -0.3444
H16 H 0.1881 0.8679 -0.3124
H17 H 0.1889 0.8154 -0.3576
H18 H 0.2038 0.5057 -0.1449
H19 H 0.1903 0.5220 -0.0492
H20 H 0.2385 0.5430 -0.0942
H21 H 0.1863 0.5531 0.4989
H22 H 0.1419 0.5859 0.5330
H23 H 0.1952 0.6094 0.5221
H24 H 0.2531 0.7904 0.1334
H25 H 0.2811 0.8287 0.1933
H26 H 0.2331 0.8452 0.1423
Pb1O Pb 0.026348(7) 0.868602(7) -0.225159(11)
Pb2J Pb -0.027174(7) 0.683966(7) 0.475393(12)
O3O O 0.04758(14) 0.82347(14) 0.3233(2)
O6J O 0.06879(14) 0.63952(14) 0.0219(2)
O10 O 0.0000 0.7500 -0.2499(5)
H27 H 0.0236(3) 0.750(4) -0.217(2)
H27E H -0.0236(3) 0.750(4) -0.217(2)
loop_
_geom_bond_atom_site_label_1
_geom_bond_atom_site_label_2
_geom_bond_site_symmetry_1
_geom_bond_site_symmetry_2
Pb1 O1 1_555 1_555
Pb2 O3 1_555 1_555
O1 C25 1_555 1_555
O2 Pb1 1_555 1_555
O3 C27 1_555 1_555
O4 Pb1 1_555 1_555
O5 Pb2 1_555 1_555
O6 C25 1_555 1_555
O7 C26 1_555 1_555
O8 C27 1_555 1_555
O9 Pb1 1_555 1_555
N1 Pb1 1_555 1_555
N2 Pb1 1_555 1_555
N3 Pb2 1_555 1_555
N4 Pb2 1_555 1_555
C1 N1 1_555 1_555
C2 N2 1_555 1_555
C3 N3 1_555 1_555
C4 N4 1_555 1_555
C5 C1 1_555 1_555
C6 C2 1_555 1_555
C7 C3 1_555 1_555
C8 C4 1_555 1_555
C9 C5 1_555 1_555
C10 C6 1_555 1_555
C11 C7 1_555 1_555
C12 C8 1_555 1_555
C13 C9 1_555 1_555
C14 C10 1_555 1_555
C15 C11 1_555 1_555
C16 C12 1_555 1_555
C17 C13 1_555 1_555
C18 C14 1_555 1_555
C19 C15 1_555 1_555
C20 C16 1_555 1_555
C21 N1 1_555 1_555
C22 N2 1_555 1_555
C23 N3 1_555 1_555
C24 N4 1_555 1_555
C25 C21 1_555 1_555
C26 O2 1_555 1_555
C27 C23 1_555 1_555
C28 O4 1_555 1_555
H1 C1 1_555 1_555
H2 C2 1_555 1_555
H3 C3 1_555 1_555
H4 C4 1_555 1_555
H5 O5 1_555 1_555
H6 O5 1_555 1_555
H7 C5 1_555 1_555
H8 C6 1_555 1_555
H9 C7 1_555 1_555
H10 C8 1_555 1_555
H11 C9 1_555 1_555
H12 C10 1_555 1_555
H13 C11 1_555 1_555
H14 C12 1_555 1_555
H15 C17 1_555 1_555
H16 C17 1_555 1_555
H17 C17 1_555 1_555
H18 C18 1_555 1_555
H19 C18 1_555 1_555
H20 C18 1_555 1_555
H21 C19 1_555 1_555
H22 C19 1_555 1_555
H23 C19 1_555 1_555
H24 C20 1_555 1_555
H25 C20 1_555 1_555
H26 C20 1_555 1_555
O10 H27 1_555 1_555
Pb1O O6 1_555 1_555
Pb2J O3 1_555 1_555
O3O Pb2 1_555 1_555
O6J Pb1 1_555 1_555
H27E O10 1_555 1_555
Pb2 O4 1_555 1_555
O9 C28 1_555 1_555
C13 C21 1_555 1_555
C14 C22 1_555 1_555
C15 C23 1_555 1_555
C16 C24 1_555 1_555
C22 C26 1_555 1_555
C24 C28 1_555 1_555

#END
