
#######################################################################
#
#                 Cambridge Crystallographic Data Centre
#                                CCDC 
#
#######################################################################
#
# If this CIF has been generated from an entry in the Cambridge 
# Structural Database, then it will include bibliographic, chemical, 
# crystal, experimental, refinement or atomic coordinate data resulting 
# from the CCDC's data processing and validation procedures.
#
#######################################################################

data_BIQSOL
_symmetry_cell_setting           orthorhombic
_symmetry_space_group_name_H-M   'P c c n'
_symmetry_Int_Tables_number      56
_space_group_name_Hall           '-P 2ab 2ac'
loop_
_symmetry_equiv_pos_site_id
_symmetry_equiv_pos_as_xyz
1 x,y,z
2 1/2-x,1/2-y,z
3 -x,1/2+y,1/2-z
4 1/2+x,-y,1/2-z
5 -x,-y,-z
6 1/2+x,1/2+y,-z
7 x,1/2-y,1/2+z
8 1/2-x,y,1/2+z
_cell_length_a                   17.921(4)
_cell_length_b                   22.213(4)
_cell_length_c                   22.262(5)
_cell_angle_alpha                90
_cell_angle_beta                 90
_cell_angle_gamma                90
_cell_volume                     8862.04
loop_
_atom_site_label
_atom_site_type_symbol
_atom_site_fract_x
_atom_site_fract_y
_atom_site_fract_z
Si1 Si 0.5000 0.5000 1.0000
Mo1 Mo 0.46185(7) 0.36378(5) 0.92315(6)
Mo2 Mo 0.48367(7) 0.36393(6) 1.08105(6)
Mo3 Mo 0.50358(6) 0.49717(5) 0.84226(5)
Mo4 Mo 0.64561(8) 0.42321(5) 0.92515(5)
Mo5 Mo 0.34569(8) 0.55440(6) 0.91872(6)
Mo6 Mo 0.32325(9) 0.43064(7) 1.01599(6)
O2 O 0.2397(5) 0.3976(5) 1.0175(5)
O3 O 0.5724(6) 0.3665(5) 0.9225(5)
O4 O 0.5832(6) 0.3784(5) 1.0884(6)
O5 O 0.7157(6) 0.3922(5) 0.8879(5)
O6 O 0.4725(7) 0.3034(5) 1.1233(5)
O7 O 0.3699(7) 0.3827(6) 0.9492(5)
O8 O 0.6882(9) 0.5058(5) 0.9337(5)
O9 O 0.4495(8) 0.2980(5) 0.8887(6)
O10 O 0.5949(6) 0.4658(5) 0.8589(5)
O11 O 0.3785(7) 0.3880(6) 1.0699(5)
O12 O 0.3996(7) 0.5191(5) 0.8571(6)
O13 O 0.3117(9) 0.4845(6) 0.9457(5)
O14 O 0.4701(6) 0.4257(5) 1.1459(6)
O15 O 0.5001(7) 0.4893(7) 0.7674(5)
O16 O 0.4857(7) 0.3356(7) 1.0058(5)
O17 O 0.4623(7) 0.4150(5) 0.8601(6)
O18 O 0.2749(6) 0.5851(6) 0.8822(5)
O19 O 0.5139(12) 0.4621(9) 0.9419(9)
O20 O 0.5177(11) 0.4681(9) 1.0606(8)
O21 O 0.4037(11) 0.5133(9) 1.0030(8)
O22 O 0.6683(9) 0.4080(5) 1.0027(5)
O23 O 0.4645(12) 0.4321(10) 1.0028(8)
O19D O 0.4861(12) 0.5379(9) 1.0581(9)
O20D O 0.4823(11) 0.5319(9) 0.9394(8)
O21D O 0.5963(11) 0.4867(9) 0.9970(8)
O23D O 0.5355(12) 0.5679(10) 0.9972(8)
Mo1D Mo 0.53815(7) 0.63622(5) 1.07685(6)
Mo2D Mo 0.51633(7) 0.63607(6) 0.91895(6)
Mo3D Mo 0.49642(6) 0.50283(5) 1.15774(5)
Mo4D Mo 0.35439(8) 0.57679(5) 1.07485(5)
Mo5D Mo 0.65431(8) 0.44560(6) 1.08128(6)
Mo6D Mo 0.67675(9) 0.56936(7) 0.98401(6)
O2D O 0.7603(5) 0.6024(5) 0.9825(5)
O3D O 0.4276(6) 0.6335(5) 1.0775(5)
O4D O 0.4168(6) 0.6216(5) 0.9116(6)
O5D O 0.2843(6) 0.6078(5) 1.1121(5)
O6D O 0.5275(7) 0.6966(5) 0.8767(5)
O7D O 0.6301(7) 0.6173(6) 1.0508(5)
O8D O 0.3118(9) 0.4942(5) 1.0663(5)
O9D O 0.5505(8) 0.7020(5) 1.1113(6)
O10D O 0.4051(6) 0.5342(5) 1.1411(5)
O11D O 0.6215(7) 0.6120(6) 0.9301(5)
O12D O 0.6004(7) 0.4809(5) 1.1429(6)
O13D O 0.6883(9) 0.5155(6) 1.0543(5)
O14D O 0.5299(6) 0.5743(5) 0.8541(6)
O15D O 0.4999(7) 0.5107(7) 1.2326(5)
O16D O 0.5143(7) 0.6644(7) 0.9942(5)
O17D O 0.5377(7) 0.5850(5) 1.1399(6)
O18D O 0.7251(6) 0.4149(6) 1.1178(5)
O22D O 0.3317(9) 0.5920(5) 0.9973(5)
O24 O 0.4089(6) 0.7511(5) 0.7552(5)
O25 O 0.4887(9) 0.3475(6) 0.7359(8)
O26 O 0.5133(9) 0.6507(6) 0.7382(7)
Cu1 Cu 0.2500 0.7500 0.75179(9)
Cu2 Cu 0.2500 0.2500 0.73910(8)
C1 C 0.3172(8) 0.5669(5) 0.7358(6)
H1 H 0.3625 0.5477 0.7290
C2 C 0.2537(7) 0.5338(5) 0.7441(5)
C3 C 0.2535(7) 0.4664(5) 0.7418(5)
C4 C 0.2039(7) 0.4344(5) 0.7051(6)
H2 H 0.1696 0.4547 0.6812
C5 C 0.2500 0.7500 1.0346(7)
C6 C 0.3026(8) 0.4333(5) 0.7771(6)
H3 H 0.3365 0.4527 0.8021
C7 C 0.2066(7) 0.3738(5) 0.7049(5)
H4 H 0.1744 0.3534 0.6793
C8 C 0.1874(11) 0.7543(7) 1.1301(6)
H5 H 0.1427 0.7581 1.1511
H6 H 0.3498 0.7147 0.9572
C9 C 0.2500 0.7500 0.9686(8)
C10 C 0.3085(9) 0.7284(7) 0.9368(6)
C11 C 0.3137(9) 0.6273(6) 0.7375(6)
H7 H 0.3570 0.6487 0.7291
C12 C 0.1916(9) 0.6263(6) 0.7608(6)
H8 H 0.1483 0.6467 0.7714
C13 C 0.3003(7) 0.3722(5) 0.7747(6)
H9 H 0.3334 0.3507 0.7987
H10 H 0.3467 0.7086 0.8535
C14 C 0.3069(10) 0.7266(7) 0.8735(7)
C15 C 0.1847(9) 0.7535(7) 1.0675(6)
H11 H 0.1389 0.7553 1.0479
H12 H 0.1714 0.3098 0.8399
H13 H 0.1473 0.2768 1.1381
H14 H 0.1427 0.2728 1.0353
C16 C 0.2028(8) 0.2842(6) 0.8613(5)
C17 C 0.1889(8) 0.2650(6) 1.1171(6)
C18 C 0.2500 0.2500 1.0227(7)
C19 C 0.1861(8) 0.2634(7) 1.0549(6)
C20 C 0.1889(8) 0.5652(5) 0.7568(5)
H15 H 0.1441 0.5449 0.7625
H16 H 0.1644 0.3085 0.9442
C21 C 0.2500 0.2500 0.9567(7)
C22 C 0.2007(8) 0.2854(6) 0.9238(5)
N1 N 0.2529(6) 0.3409(4) 0.7395(4)
N2 N 0.2525(8) 0.6582(4) 0.7503(4)
N3 N 0.2500 0.7500 0.8418(6)
N4 N 0.2500 0.7500 1.1612(6)
N5 N 0.2500 0.2500 0.8298(6)
N6 N 0.2500 0.2500 1.1484(6)
O1 O 0.1109(6) 0.2521(5) 0.7446(4)
C8A C 0.3126(11) 0.7457(7) 1.1301(6)
H5A H 0.3573 0.7419 1.1511
H6A H 0.1502 0.7853 0.9572
C10A C 0.1915(9) 0.7716(7) 0.9368(6)
H10A H 0.1533 0.7914 0.8535
C14A C 0.1931(10) 0.7734(7) 0.8735(7)
C15A C 0.3153(9) 0.7465(7) 1.0675(6)
H11A H 0.3611 0.7447 1.0479
H12A H 0.3286 0.1902 0.8399
H13A H 0.3527 0.2232 1.1381
H14A H 0.3573 0.2272 1.0353
C16A C 0.2972(8) 0.2158(6) 0.8613(5)
C17A C 0.3111(8) 0.2350(6) 1.1171(6)
C19A C 0.3139(8) 0.2366(7) 1.0549(6)
H16A H 0.3356 0.1915 0.9442
C22A C 0.2993(8) 0.2146(6) 0.9238(5)
C1A C 0.1828(8) -0.0669(5) 0.7358(6)
H1A H 0.1375 -0.0477 0.7290
C2A C 0.2463(7) -0.0338(5) 0.7441(5)
C3A C 0.2465(7) 0.0336(5) 0.7418(5)
C4A C 0.2961(7) 0.0656(5) 0.7051(6)
H2A H 0.3304 0.0453 0.6812
C6A C 0.1974(8) 0.0667(5) 0.7771(6)
H3A H 0.1635 0.0473 0.8021
C7A C 0.2934(7) 0.1262(5) 0.7049(5)
H4A H 0.3256 0.1466 0.6793
C11A C 0.1863(9) -0.1273(6) 0.7375(6)
H7A H 0.1430 -0.1487 0.7291
C12A C 0.3084(9) -0.1263(6) 0.7608(6)
H8A H 0.3517 -0.1467 0.7714
C13A C 0.1997(7) 0.1278(5) 0.7747(6)
H9A H 0.1666 0.1493 0.7987
C20A C 0.3111(8) -0.0652(5) 0.7568(5)
H15A H 0.3559 -0.0449 0.7625
N1A N 0.2471(6) 0.1591(4) 0.7395(4)
N2A N 0.2475(8) -0.1582(4) 0.7503(4)
O1A O 0.3891(6) 0.2479(5) 0.7446(4)
Cu1_2 Cu 0.2500 -0.2500 0.75179(9)
Cu1F Cu 0.2500 0.7500 1.25179(9)
Cu2F Cu 0.2500 0.2500 1.23910(8)
N2A_2 N 0.2475(8) 0.8418(4) 0.7503(4)
N4F N 0.2500 0.7500 0.6612(6)
N6F N 0.2500 0.2500 0.6484(6)
loop_
_geom_bond_atom_site_label_1
_geom_bond_atom_site_label_2
_geom_bond_site_symmetry_1
_geom_bond_site_symmetry_2
Cu1 N2 1_555 1_555
Cu2 N1 1_555 1_555
C1 H1 1_555 1_555
C2 C1 1_555 1_555
C3 C2 1_555 1_555
C4 C3 1_555 1_555
H2 C4 1_555 1_555
C5 C9 1_555 1_555
C6 C3 1_555 1_555
H3 C6 1_555 1_555
C7 C4 1_555 1_555
H4 C7 1_555 1_555
C8 H5 1_555 1_555
H6 C10 1_555 1_555
C9 C10 1_555 1_555
C10 C14 1_555 1_555
C11 C1 1_555 1_555
H7 C11 1_555 1_555
C12 H8 1_555 1_555
C13 C6 1_555 1_555
H9 C13 1_555 1_555
H10 C14 1_555 1_555
C14 N3 1_555 1_555
C15 C5 1_555 1_555
H11 C15 1_555 1_555
H12 C16 1_555 1_555
H13 C17 1_555 1_555
H14 C19 1_555 1_555
C16 C22 1_555 1_555
C17 C19 1_555 1_555
C18 C19 1_555 1_555
C20 C2 1_555 1_555
H15 C20 1_555 1_555
H16 C22 1_555 1_555
C21 C18 1_555 1_555
C22 C21 1_555 1_555
N1 C7 1_555 1_555
N2 C11 1_555 1_555
N3 Cu1 1_555 1_555
N4 C8 1_555 1_555
N5 Cu2 1_555 1_555
N6 C17 1_555 1_555
O1 Cu2 1_555 1_555
Si1 O19 1_555 1_555
Mo1 O3 1_555 1_555
Mo2 O4 1_555 1_555
Mo3 O10 1_555 1_555
Mo4 O3 1_555 1_555
Mo5 O12 1_555 1_555
Mo6 O2 1_555 1_555
O4 Mo5D 1_555 1_555
O5 Mo4 1_555 1_555
O6 Mo2 1_555 1_555
O7 Mo1 1_555 1_555
O8 Mo4 1_555 1_555
O9 Mo1 1_555 1_555
O10 Mo4 1_555 1_555
O11 Mo2 1_555 1_555
O12 Mo3 1_555 1_555
O13 Mo5 1_555 1_555
O14 Mo2 1_555 1_555
O15 Mo3 1_555 1_555
O16 Mo1 1_555 1_555
O17 Mo1 1_555 1_555
O18 Mo5 1_555 1_555
O19 Mo1 1_555 1_555
O20 Si1 1_555 1_555
O21 Si1 1_555 1_555
O22 Mo4 1_555 1_555
O23 Si1 1_555 1_555
C8A N4 1_555 1_555
H5A C8A 1_555 1_555
H6A C10A 1_555 1_555
C10A C9 1_555 1_555
H10A C14A 1_555 1_555
C14A N3 1_555 1_555
C15A C5 1_555 1_555
H11A C15A 1_555 1_555
H12A C16A 1_555 1_555
H13A C17A 1_555 1_555
H14A C19A 1_555 1_555
C16A N5 1_555 1_555
C17A N6 1_555 1_555
C19A C18 1_555 1_555
H16A C22A 1_555 1_555
C22A C21 1_555 1_555
C1A H1A 1_555 1_555
C2A C1A 1_555 1_555
C3A C2A 1_555 1_555
C4A C3A 1_555 1_555
H2A C4A 1_555 1_555
C6A C3A 1_555 1_555
H3A C6A 1_555 1_555
C7A C4A 1_555 1_555
H4A C7A 1_555 1_555
C11A C1A 1_555 1_555
H7A C11A 1_555 1_555
C12A H8A 1_555 1_555
C13A C6A 1_555 1_555
H9A C13A 1_555 1_555
C20A C2A 1_555 1_555
H15A C20A 1_555 1_555
N1A Cu2 1_555 1_555
N2A C11A 1_555 1_555
O1A Cu2 1_555 1_555
Cu1_2 N2A 1_555 1_555
Cu1F N4 1_555 1_555
Cu2F N6 1_555 1_555
N2A_2 Cu1 1_555 1_555
N4F Cu1 1_555 1_555
N6F Cu2 1_555 1_555
O19D Si1 1_555 1_555
O20D Si1 1_555 1_555
O21D Si1 1_555 1_555
O23D Si1 1_555 1_555
Mo1D O19D 1_555 1_555
Mo2D O20D 1_555 1_555
Mo3D O14 1_555 1_555
Mo4D O21 1_555 1_555
Mo5D O20 1_555 1_555
Mo6D O8 1_555 1_555
O2D Mo6D 1_555 1_555
O3D Mo1D 1_555 1_555
O4D Mo5 1_555 1_555
O5D Mo4D 1_555 1_555
O6D Mo2D 1_555 1_555
O7D Mo1D 1_555 1_555
O8D Mo6 1_555 1_555
O9D Mo1D 1_555 1_555
O10D Mo3D 1_555 1_555
O11D Mo2D 1_555 1_555
O12D Mo3D 1_555 1_555
O13D Mo5D 1_555 1_555
O14D Mo3 1_555 1_555
O15D Mo3D 1_555 1_555
O16D Mo1D 1_555 1_555
O17D Mo1D 1_555 1_555
O18D Mo5D 1_555 1_555
O22D Mo5 1_555 1_555
C8 C15 1_555 1_555
C12 C20 1_555 1_555
C12 N2 1_555 1_555
C13 N1 1_555 1_555
C16 N5 1_555 1_555
Mo1 O23 1_555 1_555
Mo2 O16 1_555 1_555
Mo2 O20 1_555 1_555
Mo2 O23 1_555 1_555
Mo3 O17 1_555 1_555
Mo3 O19 1_555 1_555
Mo3 O20D 1_555 1_555
Mo4 O19 1_555 1_555
Mo4 O21D 1_555 1_555
Mo5 O21 1_555 1_555
Mo5 O20D 1_555 1_555
Mo6 O7 1_555 1_555
Mo6 O11 1_555 1_555
Mo6 O13 1_555 1_555
Mo6 O21 1_555 1_555
Mo6 O23 1_555 1_555
O19 O23 1_555 1_555
O19 O20D 1_555 1_555
O20 O23 1_555 1_555
O20 O19D 1_555 1_555
O20 Mo3D 1_555 1_555
O22 Mo5D 1_555 1_555
C8A C15A 1_555 1_555
C10A C14A 1_555 1_555
C16A C22A 1_555 1_555
C17A C19A 1_555 1_555
C7A N1A 1_555 1_555
C12A C20A 1_555 1_555
C12A N2A 1_555 1_555
C13A N1A 1_555 1_555
O19D O23D 1_555 1_555
O19D Mo3D 1_555 1_555
O19D Mo4D 1_555 1_555
O20D O23D 1_555 1_555
O21D Mo5D 1_555 1_555
O21D Mo6D 1_555 1_555
O23D Mo1D 1_555 1_555
O23D Mo2D 1_555 1_555
O23D Mo6D 1_555 1_555
Mo2D O4D 1_555 1_555
Mo2D O14D 1_555 1_555
Mo2D O16D 1_555 1_555
Mo3D O17D 1_555 1_555
Mo4D O3D 1_555 1_555
Mo4D O8D 1_555 1_555
Mo4D O10D 1_555 1_555
Mo4D O22D 1_555 1_555
Mo5D O12D 1_555 1_555
Mo6D O7D 1_555 1_555
Mo6D O11D 1_555 1_555
Mo6D O13D 1_555 1_555

#END
