
#######################################################################
#
#                 Cambridge Crystallographic Data Centre
#                                CCDC 
#
#######################################################################
#
# If this CIF has been generated from an entry in the Cambridge 
# Structural Database, then it will include bibliographic, chemical, 
# crystal, experimental, refinement or atomic coordinate data resulting 
# from the CCDC's data processing and validation procedures.
#
#######################################################################

data_BIQTAY
_symmetry_cell_setting           monoclinic
_symmetry_space_group_name_H-M   'C 2/c'
_symmetry_Int_Tables_number      15
_space_group_name_Hall           '-C 2yn'
loop_
_symmetry_equiv_pos_site_id
_symmetry_equiv_pos_as_xyz
1 x,y,z
2 -x,y,1/2-z
3 1/2+x,1/2+y,z
4 1/2-x,1/2+y,1/2-z
5 -x,-y,-z
6 x,-y,1/2+z
7 1/2-x,1/2-y,-z
8 1/2+x,1/2-y,1/2+z
_cell_length_a                   26.202(5)
_cell_length_b                   13.8791(12)
_cell_length_c                   21.312(4)
_cell_angle_alpha                90
_cell_angle_beta                 114.94(2)
_cell_angle_gamma                90
_cell_volume                     7027.61
loop_
_atom_site_label
_atom_site_type_symbol
_atom_site_fract_x
_atom_site_fract_y
_atom_site_fract_z
Pb1 Pb 0.57385(2) 0.42660(3) 0.56595(2)
Pb2 Pb 0.44870(2) 0.26530(3) 0.42465(2)
N1 N 0.6756(4) 0.4387(8) 0.5661(5)
N2 N 0.6595(5) 0.4516(7) 0.6836(5)
C1 C 0.6838(7) 0.4345(12) 0.5085(8)
H1 H 0.6521 0.4267 0.4654
C2 C 0.7376(8) 0.4413(14) 0.5093(10)
H2 H 0.7433 0.4369 0.4682
C3 C 0.7803(8) 0.4543(13) 0.5714(13)
H3 H 0.8168 0.4609 0.5728
C4 C 0.7761(5) 0.4589(10) 0.6328(9)
C5 C 0.8203(7) 0.4658(12) 0.6977(10)
H4 H 0.8572 0.4678 0.6998
C6 C 0.8157(8) 0.4698(11) 0.7564(11)
H5 H 0.8479 0.4777 0.7990
C7 C 0.7598(7) 0.4616(9) 0.7544(8)
C8 C 0.7473(9) 0.4632(12) 0.8124(9)
H6 H 0.7774 0.4674 0.8572
C9 C 0.6962(9) 0.4591(11) 0.8071(8)
H7 H 0.6890 0.4595 0.8471
C10 C 0.6511(7) 0.4541(10) 0.7394(7)
H8 H 0.6135 0.4525 0.7351
C11 C 0.7130(5) 0.4554(8) 0.6885(7)
C12 C 0.7210(5) 0.4516(9) 0.6270(7)
N3 N 0.3382(5) 0.2881(8) 0.3697(7)
N4 N 0.3955(6) 0.2675(8) 0.2900(5)
C13 C 0.3093(8) 0.2916(13) 0.4091(11)
H9 H 0.3295 0.2901 0.4580
C14 C 0.2495(9) 0.2976(15) 0.3800(12)
H10 H 0.2283 0.3024 0.4067
C15 C 0.2267(9) 0.2958(14) 0.3116(13)
H11 H 0.1868 0.2992 0.2907
C16 C 0.2500(8) 0.2901(12) 0.2662(10)
C17 C 0.2245(8) 0.2912(13) 0.1958(11)
H12 H 0.1846 0.2962 0.1750
C18 C 0.2490(9) 0.2859(13) 0.1533(10)
H13 H 0.2280 0.2853 0.1045
C19 C 0.3098(8) 0.2812(12) 0.1851(9)
C20 C 0.3436(10) 0.2714(15) 0.1501(10)
H14 H 0.3258 0.2718 0.1009
C21 C 0.3980(9) 0.2616(15) 0.1797(9)
H15 H 0.4196 0.2561 0.1536
C22 C 0.4237(8) 0.2595(14) 0.2535(7)
H16 H 0.4633 0.2519 0.2766
C23 C 0.3386(7) 0.2798(10) 0.2595(7)
C24 C 0.3096(6) 0.2864(9) 0.3017(9)
O1 O 0.4612(3) 0.4105(5) 0.5194(4)
O2 O 0.4263(5) 0.2734(7) 0.5372(5)
O3 O 0.5383(4) 0.5513(6) 0.6286(4)
O4 O 0.4557(4) 0.6194(7) 0.5759(5)
C25 C 0.4419(6) 0.3577(10) 0.5551(7)
C26 C 0.4436(7) 0.3949(11) 0.6222(9)
C27 C 0.4243(10) 0.3248(14) 0.6609(11)
H17 H 0.4109 0.3600 0.6909
H18 H 0.4558 0.2830 0.6892
H19 H 0.3936 0.2855 0.6280
C28 C 0.4610(6) 0.4804(12) 0.6443(7)
H20 H 0.4572 0.4993 0.6850
C29 C 0.4872(7) 0.5559(9) 0.6140(6)
O5 O 0.5619(5) 0.2450(6) 0.5464(5)
O6 O 0.5665(4) 0.2924(7) 0.6469(5)
O7 O 0.5836(5) -0.0997(6) 0.5758(5)
O8 O 0.5194(5) -0.0884(7) 0.6115(5)
C30 C 0.5619(5) 0.2280(9) 0.6036(8)
C31 C 0.5524(5) 0.1246(10) 0.6209(7)
C32 C 0.5446(7) 0.1125(11) 0.6884(7)
H21 H 0.5493 0.0445 0.7022
H22 H 0.5068 0.1339 0.6808
H23 H 0.5727 0.1514 0.7252
C33 C 0.5534(8) -0.0508(11) 0.5906(7)
C34 C 0.5535(6) 0.0578(10) 0.5816(6)
H24 H 0.5546 0.0785 0.5396
Pb1D Pb 0.42615(2) 0.57340(3) 0.43405(2)
Pb2D Pb 0.55130(2) -0.26530(3) 0.57535(2)
Pb2D_2 Pb 0.55130(2) 0.73470(3) 0.57535(2)
O1D O 0.5388(3) 0.5895(5) 0.4806(4)
O3D O 0.4617(4) 0.4487(6) 0.3714(4)
O4D O 0.5443(4) 0.3806(7) 0.4241(5)
O7D O 0.4164(5) 0.0997(6) 0.4242(5)
O8D O 0.4806(5) 0.0884(7) 0.3885(5)
O9 O 0.6380(8) 0.1759(10) 0.4925(10)
H25 H 0.662(8) 0.218(12) 0.493(15)
H26 H 0.613(8) 0.208(14) 0.498(14)
O10 O 0.6553(10) -0.0298(19) 0.5291(11)
H27 H 0.6698 0.0279 0.5457
H28 H 0.6355 -0.0438 0.5537
O11 O 0.6375(13) -0.143(2) 0.4253(16)
H29 H 0.6185 -0.1212 0.3875
H30 H 0.6160 -0.1628 0.4445
loop_
_geom_bond_atom_site_label_1
_geom_bond_atom_site_label_2
_geom_bond_site_symmetry_1
_geom_bond_site_symmetry_2
Pb1 N1 1_555 1_555
Pb2 N3 1_555 1_555
N1 C1 1_555 1_555
N2 Pb1 1_555 1_555
C1 H1 1_555 1_555
C2 C1 1_555 1_555
H2 C2 1_555 1_555
C3 C2 1_555 1_555
H3 C3 1_555 1_555
C4 C3 1_555 1_555
C5 C4 1_555 1_555
H4 C5 1_555 1_555
C6 C5 1_555 1_555
H5 C6 1_555 1_555
C7 C6 1_555 1_555
C8 C7 1_555 1_555
H6 C8 1_555 1_555
C9 C8 1_555 1_555
H7 C9 1_555 1_555
C10 N2 1_555 1_555
H8 C10 1_555 1_555
C11 N2 1_555 1_555
C12 N1 1_555 1_555
N3 C13 1_555 1_555
N4 Pb2 1_555 1_555
C13 H9 1_555 1_555
C14 C13 1_555 1_555
H10 C14 1_555 1_555
C15 C14 1_555 1_555
H11 C15 1_555 1_555
C16 C15 1_555 1_555
C17 C16 1_555 1_555
H12 C17 1_555 1_555
C18 C17 1_555 1_555
H13 C18 1_555 1_555
C19 C18 1_555 1_555
C20 C19 1_555 1_555
H14 C20 1_555 1_555
C21 C20 1_555 1_555
H15 C21 1_555 1_555
C22 N4 1_555 1_555
H16 C22 1_555 1_555
C23 N4 1_555 1_555
C24 N3 1_555 1_555
O1 Pb1 1_555 1_555
O2 Pb2 1_555 1_555
O3 Pb1 1_555 1_555
O4 C29 1_555 1_555
C25 O1 1_555 1_555
C26 C25 1_555 1_555
C27 C26 1_555 1_555
H17 C27 1_555 1_555
H18 C27 1_555 1_555
H19 C27 1_555 1_555
C28 C26 1_555 1_555
H20 C28 1_555 1_555
C29 O3 1_555 1_555
O5 Pb1 1_555 1_555
O6 Pb1 1_555 1_555
O7 C33 1_555 1_555
O8 C33 1_555 1_555
C30 O5 1_555 1_555
C31 C30 1_555 1_555
C32 C31 1_555 1_555
H21 C32 1_555 1_555
H22 C32 1_555 1_555
H23 C32 1_555 1_555
C33 C34 1_555 1_555
C34 C31 1_555 1_555
H24 C34 1_555 1_555
O9 H25 1_555 1_555
H26 O9 1_555 1_555
O10 H27 1_555 1_555
H28 O10 1_555 1_555
O11 H29 1_555 1_555
H30 O11 1_555 1_555
Pb1D O1 1_555 1_555
Pb2D O7 1_555 1_555
Pb2D_2 O3 1_555 1_555
O1D Pb1 1_555 1_555
O3D Pb2 1_555 1_555
O4D Pb1 1_555 1_555
O7D Pb2 1_555 1_555
O8D Pb2 1_555 1_555
Pb2 O1 1_555 1_555
C4 C12 1_555 1_555
C7 C11 1_555 1_555
C9 C10 1_555 1_555
C11 C12 1_555 1_555
C16 C24 1_555 1_555
C19 C23 1_555 1_555
C21 C22 1_555 1_555
C23 C24 1_555 1_555
O2 C25 1_555 1_555
O4 Pb1D 1_555 1_555
C28 C29 1_555 1_555
O6 C30 1_555 1_555
O8 Pb2D 1_555 1_555
Pb1D O1D 1_555 1_555
Pb1D O3D 1_555 1_555
Pb2D_2 O1D 1_555 1_555

#END
