
#######################################################################
#
#                 Cambridge Crystallographic Data Centre
#                                CCDC 
#
#######################################################################
#
# If this CIF has been generated from an entry in the Cambridge 
# Structural Database, then it will include bibliographic, chemical, 
# crystal, experimental, refinement or atomic coordinate data resulting 
# from the CCDC's data processing and validation procedures.
#
#######################################################################

data_BIQVOO
_symmetry_cell_setting           monoclinic
_symmetry_space_group_name_H-M   'P 21/c'
_symmetry_Int_Tables_number      14
_space_group_name_Hall           '-P 2ybc'
loop_
_symmetry_equiv_pos_site_id
_symmetry_equiv_pos_as_xyz
1 x,y,z
2 -x,1/2+y,1/2-z
3 -x,-y,-z
4 x,1/2-y,1/2+z
_cell_length_a                   15.8652(9)
_cell_length_b                   13.5037(14)
_cell_length_c                   17.5937(6)
_cell_angle_alpha                90
_cell_angle_beta                 113.570(5)
_cell_angle_gamma                90
_cell_volume                     3454.79
loop_
_atom_site_label
_atom_site_type_symbol
_atom_site_fract_x
_atom_site_fract_y
_atom_site_fract_z
C9 C 0.3419(5) 0.5923(5) 0.4810(5)
F1 F 0.4083(3) 0.5700(4) 0.4563(4)
F2 F 0.3468(4) 0.5290(4) 0.5391(4)
F3 F 0.2621(3) 0.5820(4) 0.4181(4)
S1 S 0.35654(11) 0.71930(12) 0.51916(10)
O1 O 0.4441(3) 0.7171(4) 0.5884(3)
O2 O 0.3482(4) 0.7788(4) 0.4500(3)
N9 N 0.2801(4) 0.7288(4) 0.5534(3)
S2 S 0.17777(12) 0.76517(13) 0.50254(11)
O3 O 0.1484(3) 0.7695(3) 0.4155(3)
O4 O 0.1206(4) 0.7187(5) 0.5367(4)
C10 C 0.1830(6) 0.8937(6) 0.5342(5)
F4 F 0.2426(4) 0.9437(3) 0.5148(3)
F5 F 0.2076(3) 0.8999(5) 0.6153(3)
F6 F 0.1001(4) 0.9336(4) 0.4971(4)
C11 C 0.3193(4) 0.3022(5) 0.4044(4)
F7 F 0.3931(3) 0.3146(3) 0.4742(2)
F8 F 0.2923(3) 0.3903(3) 0.3696(3)
F9 F 0.3415(3) 0.2472(3) 0.3529(3)
S3 S 0.22715(10) 0.24082(11) 0.42411(9)
O5 O 0.1478(3) 0.2532(4) 0.3486(3)
O6 O 0.2608(3) 0.1427(3) 0.4494(3)
N10 N 0.2145(3) 0.3075(4) 0.4931(3)
S4 S 0.26142(10) 0.28567(12) 0.58855(9)
O7 O 0.3447(3) 0.2298(4) 0.6171(3)
O8 O 0.2596(3) 0.3746(4) 0.6323(3)
C12 C 0.1795(5) 0.2040(5) 0.6079(4)
F10 F 0.1606(5) 0.1261(4) 0.5614(4)
F11 F 0.2131(4) 0.1755(5) 0.6859(3)
F12 F 0.1021(3) 0.2492(4) 0.5944(4)
Ag1 Ag 0.96950(4) 0.49824(6) 0.31335(4)
Ag2 Ag 0.55656(4) 0.45466(4) 0.20232(3)
N1 N 1.0301(4) 0.6352(5) 0.2673(4)
C1 C 1.0834(10) 0.5967(11) 0.2208(10)
H1 H 1.1420 0.5705 0.2590
H2 H 1.0951 0.6494 0.1889
C2 C 1.0274(11) 0.5159(9) 0.1637(8)
H3 H 0.9658 0.5397 0.1311
H4 H 1.0555 0.4965 0.1261
H5 H 1.0791 0.4007 0.2409
H6 H 0.9838 0.3823 0.1833
H7 H 0.9943 0.6890 0.2604
H8 H 1.0873 0.6496 0.3039
N2 N 1.0232(5) 0.4284(5) 0.2150(4)
N3 N 1.0238(5) 0.4145(6) 0.4336(5)
H9 H 0.9832 0.3665 0.4306
H10 H 1.0765 0.3845 0.4387
C3 C 1.0405(6) 0.4683(8) 0.5037(5)
H11 H 1.0936 0.5104 0.5145
H12 H 1.0549 0.4237 0.5504
N4 N 0.8152(4) 0.5302(5) 0.2328(4)
H13 H 0.7884 0.5538 0.2655
H14 H 0.8111 0.5771 0.1951
C4 C 0.7663(5) 0.4419(6) 0.1901(4)
H15 H 0.7982 0.4130 0.1586
H16 H 0.7049 0.4601 0.1515
C5 C 0.7597(5) 0.3668(5) 0.2505(4)
H17 H 0.7346 0.3056 0.2213
H18 H 0.8207 0.3530 0.2920
N5 N 0.7012(4) 0.4023(4) 0.2912(3)
H19 H 0.7300 0.4529 0.3248
H20 H 0.6948 0.3533 0.3231
N6 N 0.5227(4) 0.6198(5) 0.2271(4)
H21 H 0.5746 0.6542 0.2547
H22 H 0.4899 0.6511 0.1791
C6 C 0.4642(14) 0.6076(14) 0.2816(13)
H23 H 0.5055 0.5978 0.3391
H24 H 0.4294 0.6676 0.2782
C7 C 0.4001(10) 0.5222(12) 0.2532(10)
H25 H 0.3619 0.5199 0.2846
H26 H 0.3602 0.5307 0.1951
H27 H 0.4081 0.3855 0.2383
H28 H 0.4761 0.4208 0.3175
N7 N 0.4471(4) 0.4352(6) 0.2632(4)
N8 N 0.4879(4) 0.3978(4) 0.0674(3)
H29 H 0.5269 0.3541 0.0601
H30 H 0.4375 0.3637 0.0630
C8 C 0.4600(4) 0.4680(5) -0.0024(4)
H31 H 0.4107 0.5096 -0.0014
H32 H 0.4371 0.4316 -0.0543
N3B N 0.9762(5) 0.5855(6) 0.5664(5)
H9B H 1.0168 0.6335 0.5694
H10B H 0.9235 0.6155 0.5613
C3B C 0.9595(6) 0.5317(8) 0.4963(5)
H11B H 0.9064 0.4896 0.4855
H12B H 0.9451 0.5763 0.4496
N8B N 0.5121(4) 0.6022(4) -0.0674(3)
H29B H 0.4731 0.6459 -0.0601
H30B H 0.5625 0.6363 -0.0630
C8B C 0.5400(4) 0.5320(5) 0.0024(4)
H31B H 0.5893 0.4904 0.0014
H32B H 0.5629 0.5684 0.0543
Ag1B Ag 0.03050(4) 0.50176(6) -0.31335(4)
Ag2B Ag 0.44344(4) 0.54534(4) -0.20232(3)
N1B N -0.0301(4) 0.3648(5) -0.2673(4)
C1B C -0.0834(10) 0.4033(11) -0.2208(10)
H1B H -0.1420 0.4295 -0.2590
H2B H -0.0951 0.3506 -0.1889
C2B C -0.0274(11) 0.4841(9) -0.1637(8)
H3B H 0.0342 0.4603 -0.1311
H4B H -0.0555 0.5035 -0.1261
H5B H -0.0791 0.5993 -0.2409
H6B H 0.0162 0.6177 -0.1833
H7B H 0.0057 0.3110 -0.2604
H8B H -0.0873 0.3504 -0.3039
N2B N -0.0232(5) 0.5716(5) -0.2150(4)
N4B N 0.1848(4) 0.4698(5) -0.2328(4)
H13B H 0.2116 0.4462 -0.2655
H14B H 0.1889 0.4229 -0.1951
C4B C 0.2337(5) 0.5581(6) -0.1901(4)
H15B H 0.2018 0.5870 -0.1586
H16B H 0.2951 0.5399 -0.1515
C5B C 0.2403(5) 0.6332(5) -0.2505(4)
H17B H 0.2654 0.6944 -0.2213
H18B H 0.1793 0.6470 -0.2920
N5B N 0.2988(4) 0.5977(4) -0.2912(3)
H19B H 0.2700 0.5471 -0.3248
H20B H 0.3052 0.6467 -0.3231
N6B N 0.4773(4) 0.3802(5) -0.2271(4)
H21B H 0.4254 0.3458 -0.2547
H22B H 0.5101 0.3489 -0.1791
C6B C 0.5358(14) 0.3924(14) -0.2816(13)
H23B H 0.4945 0.4022 -0.3391
H24B H 0.5706 0.3324 -0.2782
C7B C 0.5999(10) 0.4778(12) -0.2532(10)
H25B H 0.6381 0.4801 -0.2846
H26B H 0.6398 0.4693 -0.1951
H27B H 0.5919 0.6145 -0.2383
H28B H 0.5239 0.5792 -0.3175
N7B N 0.5529(4) 0.5648(6) -0.2632(4)
Ag1B_2 Ag 1.03050(4) 0.50176(6) 0.68665(4)
N3B_2 N -0.0238(5) 0.5855(6) -0.4336(5)
H33? H 0.9841 0.6742 0.2343
H34? H 1.0669 0.6712 0.3110
N11? N 1.0232(5) 0.4284(5) 0.2150(4)
N12? N 1.0301(4) 0.6352(5) 0.2673(4)
C13? C 1.0308(13) 0.6021(14) 0.1860(8)
H35? H 1.0606 0.6516 0.1652
H36? H 0.9684 0.5931 0.1454
C14? C 1.0826(12) 0.5056(11) 0.2003(13)
H37? H 1.0952 0.4886 0.1523
H38? H 1.1407 0.5109 0.2481
H39? H 1.0557 0.3728 0.2355
H40? H 0.9754 0.4134 0.1673
N13? N 0.4471(4) 0.4352(6) 0.2632(4)
N14? N 0.5227(4) 0.6198(5) 0.2271(4)
H41? H 0.5715 0.6443 0.2699
H42? H 0.5152 0.6566 0.1821
C15? C 0.452(3) 0.630(3) 0.243(2)
H43? H 0.3972 0.6290 0.1917
H44? H 0.4544 0.6933 0.2698
C16? C 0.447(2) 0.544(3) 0.301(2)
H45? H 0.3908 0.5522 0.3106
H46? H 0.4984 0.5500 0.3542
H47? H 0.3913 0.4190 0.2249
H48? H 0.4654 0.3889 0.3033
loop_
_geom_bond_atom_site_label_1
_geom_bond_atom_site_label_2
_geom_bond_site_symmetry_1
_geom_bond_site_symmetry_2
Ag1 N1 1_555 1_555
Ag2 N5 1_555 1_555
N1 C1 1_555 1_555
C1 H1 1_555 1_555
H2 C1 1_555 1_555
C2 C1 1_555 1_555
H3 C2 1_555 1_555
H4 C2 1_555 1_555
H5 N2 1_555 1_555
H6 N2 1_555 1_555
H7 N1 1_555 1_555
H8 N1 1_555 1_555
N2 Ag1 1_555 1_555
N3 Ag1 1_555 1_555
H9 N3 1_555 1_555
H10 N3 1_555 1_555
C3 N3 1_555 1_555
H11 C3 1_555 1_555
H12 C3 1_555 1_555
N4 Ag1 1_555 1_555
H13 N4 1_555 1_555
H14 N4 1_555 1_555
C4 N4 1_555 1_555
H15 C4 1_555 1_555
H16 C4 1_555 1_555
C5 C4 1_555 1_555
H17 C5 1_555 1_555
H18 C5 1_555 1_555
N5 C5 1_555 1_555
H19 N5 1_555 1_555
H20 N5 1_555 1_555
N6 Ag2 1_555 1_555
H21 N6 1_555 1_555
H22 N6 1_555 1_555
C6 N6 1_555 1_555
H23 C6 1_555 1_555
H24 C6 1_555 1_555
C7 C6 1_555 1_555
H25 C7 1_555 1_555
H26 C7 1_555 1_555
H27 N7 1_555 1_555
H28 N7 1_555 1_555
N7 Ag2 1_555 1_555
N8 Ag2 1_555 1_555
H29 N8 1_555 1_555
H30 N8 1_555 1_555
C8 N8 1_555 1_555
H31 C8 1_555 1_555
H32 C8 1_555 1_555
C9 F1 1_555 1_555
F2 C9 1_555 1_555
F3 C9 1_555 1_555
S1 C9 1_555 1_555
O1 S1 1_555 1_555
O2 S1 1_555 1_555
N9 S1 1_555 1_555
S2 N9 1_555 1_555
O3 S2 1_555 1_555
O4 S2 1_555 1_555
C10 S2 1_555 1_555
F4 C10 1_555 1_555
F5 C10 1_555 1_555
F6 C10 1_555 1_555
C11 F7 1_555 1_555
F8 C11 1_555 1_555
F9 C11 1_555 1_555
S3 C11 1_555 1_555
O5 S3 1_555 1_555
O6 S3 1_555 1_555
N10 S3 1_555 1_555
S4 N10 1_555 1_555
O7 S4 1_555 1_555
O8 S4 1_555 1_555
C12 S4 1_555 1_555
F10 C12 1_555 1_555
F11 C12 1_555 1_555
F12 C12 1_555 1_555
N3B H9B 1_555 1_555
H10B N3B 1_555 1_555
C3B C3 1_555 1_555
H11B C3B 1_555 1_555
H12B C3B 1_555 1_555
N8B H29B 1_555 1_555
H30B N8B 1_555 1_555
C8B C8 1_555 1_555
H31B C8B 1_555 1_555
H32B C8B 1_555 1_555
Ag1B N1B 1_555 1_555
Ag2B N8B 1_555 1_555
N1B C1B 1_555 1_555
C1B H1B 1_555 1_555
H2B C1B 1_555 1_555
C2B C1B 1_555 1_555
H3B C2B 1_555 1_555
H4B C2B 1_555 1_555
H5B N2B 1_555 1_555
H6B N2B 1_555 1_555
H7B N1B 1_555 1_555
H8B N1B 1_555 1_555
N2B Ag1B 1_555 1_555
N4B Ag1B 1_555 1_555
H13B N4B 1_555 1_555
H14B N4B 1_555 1_555
C4B N4B 1_555 1_555
H15B C4B 1_555 1_555
H16B C4B 1_555 1_555
C5B C4B 1_555 1_555
H17B C5B 1_555 1_555
H18B C5B 1_555 1_555
N5B Ag2B 1_555 1_555
H19B N5B 1_555 1_555
H20B N5B 1_555 1_555
N6B Ag2B 1_555 1_555
H21B N6B 1_555 1_555
H22B N6B 1_555 1_555
C6B N6B 1_555 1_555
H23B C6B 1_555 1_555
H24B C6B 1_555 1_555
C7B C6B 1_555 1_555
H25B C7B 1_555 1_555
H26B C7B 1_555 1_555
H27B N7B 1_555 1_555
H28B N7B 1_555 1_555
N7B Ag2B 1_555 1_555
Ag1B_2 N3B 1_555 1_555
N3B_2 Ag1B 1_555 1_555
C2 N2 1_555 1_555
C7 N7 1_555 1_555
N3B C3B 1_555 1_555
N8B C8B 1_555 1_555
C2B N2B 1_555 1_555
C5B N5B 1_555 1_555
C7B N7B 1_555 1_555

#END
