
#######################################################################
#
#                 Cambridge Crystallographic Data Centre
#                                CCDC 
#
#######################################################################
#
# If this CIF has been generated from an entry in the Cambridge 
# Structural Database, then it will include bibliographic, chemical, 
# crystal, experimental, refinement or atomic coordinate data resulting 
# from the CCDC's data processing and validation procedures.
#
#######################################################################

data_BIQYUX
_symmetry_cell_setting           triclinic
_symmetry_space_group_name_H-M   'P -1'
_symmetry_Int_Tables_number      2
_space_group_name_Hall           '-P 1'
loop_
_symmetry_equiv_pos_site_id
_symmetry_equiv_pos_as_xyz
1 x,y,z
2 -x,-y,-z
_cell_length_a                   9.9669(4)
_cell_length_b                   12.6485(5)
_cell_length_c                   15.0369(6)
_cell_angle_alpha                85.948(2)
_cell_angle_beta                 88.883(2)
_cell_angle_gamma                88.567(2)
_cell_volume                     1890.02
loop_
_atom_site_label
_atom_site_type_symbol
_atom_site_fract_x
_atom_site_fract_y
_atom_site_fract_z
Nd1 Nd -0.00534(3) 0.22846(3) 0.23990(2)
O1 O -0.1764(5) 0.2469(3) 0.1217(3)
N1 N -0.0354(5) 0.4120(4) 0.1563(3)
C1 C -0.1310(6) 0.4288(5) 0.0961(4)
Sr1 Sr -0.49850(6) 0.25412(5) -0.04401(4)
O2 O -0.2977(5) 0.3421(4) 0.0210(4)
N2 N -0.0173(6) 0.2031(5) 0.4121(4)
C2 C -0.1567(7) 0.5274(5) 0.0533(5)
H1 H -0.2256 0.5375 0.0106
Sr2 Sr 0.5000 0.0000 0.5000
O3 O 0.1431(5) 0.3723(4) 0.2814(3)
N3 N 0.0299(5) 0.0605(4) 0.1535(3)
C3 C -0.0801(8) 0.6101(5) 0.0742(5)
H2 H -0.0961 0.6790 0.0466
O4 O 0.2203(6) 0.5375(4) 0.2650(4)
C4 C 0.0208(8) 0.5930(5) 0.1358(5)
H3 H 0.0758 0.6496 0.1500
O5 O 0.1767(5) 0.1188(4) 0.3170(3)
C5 C 0.0405(7) 0.4924(5) 0.1764(4)
O6 O 0.2785(5) 0.0475(5) 0.4379(3)
C6 C -0.2099(7) 0.3327(5) 0.0777(4)
C7 C 0.1436(7) 0.4659(6) 0.2458(5)
O7 O -0.1912(5) 0.3189(4) 0.3160(3)
O8 O -0.3115(6) 0.3568(5) 0.4365(4)
C8 C 0.0731(7) 0.1416(6) 0.4572(5)
O9 O -0.1549(5) 0.0764(3) 0.2784(3)
C9 C 0.0633(9) 0.1192(8) 0.5471(5)
H4 H 0.1306 0.0771 0.5775
O10 O -0.2370(5) -0.0819(4) 0.2559(3)
C10 C -0.0447(10) 0.1582(9) 0.5926(6)
H5 H -0.0552 0.1420 0.6550
O11 O 0.1723(5) 0.2316(3) 0.1222(3)
C11 C -0.1393(10) 0.2221(8) 0.5462(6)
H6 H -0.2151 0.2506 0.5763
C12 C -0.1210(8) 0.2434(6) 0.4560(5)
O12 O 0.2938(5) 0.1582(4) 0.0160(3)
O13 O -0.4705(5) 0.0680(4) -0.0985(3)
C13 C 0.1860(7) 0.0993(6) 0.4000(5)
O14 O -0.6053(6) 0.3537(4) 0.0911(4)
C14 C -0.2171(8) 0.3124(6) 0.3991(5)
O15 O -0.4106(5) 0.1371(4) 0.1016(3)
C15 C -0.0461(6) -0.0251(5) 0.1724(4)
O16 O -0.6624(6) 0.2614(4) -0.1761(4)
C16 C -0.0246(7) -0.1185(5) 0.1311(4)
H7 H -0.0800 -0.1777 0.1448
O17 O -0.3211(6) 0.2667(5) -0.1755(4)
C17 C 0.0797(7) -0.1236(6) 0.0691(5)
H8 H 0.0976 -0.1872 0.0404
C18 C 0.1573(7) -0.0363(5) 0.0492(5)
H9 H 0.2285 -0.0384 0.0064
O18 O -0.5190(6) 0.4488(4) -0.1052(4)
C19 C 0.1298(6) 0.0545(5) 0.0926(4)
O19 O 0.6173(8) 0.1108(6) 0.3781(5)
C20 C -0.1566(6) -0.0097(5) 0.2400(4)
O20 O 0.525(2) -0.2258(16) 0.5103(13)
O21 O 0.5416(8) -0.1131(6) 0.3632(7)
C21 C 0.2069(6) 0.1551(5) 0.0748(4)
Nd1A Nd 1.00534(3) -0.22846(3) 0.76010(2)
O1A O 1.1764(5) -0.2469(3) 0.8783(3)
N1A N 1.0354(5) -0.4120(4) 0.8437(3)
C1A C 1.1310(6) -0.4288(5) 0.9039(4)
Sr1A Sr 1.49850(6) -0.25412(5) 1.04401(4)
O2A O 1.2977(5) -0.3421(4) 0.9790(4)
N2A N 1.0173(6) -0.2031(5) 0.5879(4)
C2A C 1.1567(7) -0.5274(5) 0.9467(5)
H1A H 1.2256 -0.5375 0.9894
O3A O 0.8569(5) -0.3723(4) 0.7186(3)
N3A N 0.9701(5) -0.0605(4) 0.8465(3)
C3A C 1.0801(8) -0.6101(5) 0.9258(5)
H2A H 1.0961 -0.6790 0.9534
O4A O 0.7797(6) -0.5375(4) 0.7350(4)
C4A C 0.9792(8) -0.5930(5) 0.8642(5)
H3A H 0.9242 -0.6496 0.8500
O5A O 0.8233(5) -0.1188(4) 0.6830(3)
C5A C 0.9595(7) -0.4924(5) 0.8236(4)
O6A O 0.7215(5) -0.0475(5) 0.5621(3)
C6A C 1.2099(7) -0.3327(5) 0.9223(4)
C7A C 0.8564(7) -0.4659(6) 0.7542(5)
O7A O 1.1912(5) -0.3189(4) 0.6840(3)
O8A O 1.3115(6) -0.3568(5) 0.5635(4)
C8A C 0.9269(7) -0.1416(6) 0.5428(5)
O9A O 1.1549(5) -0.0764(3) 0.7216(3)
C9A C 0.9367(9) -0.1192(8) 0.4529(5)
H4A H 0.8694 -0.0771 0.4225
O10A O 1.2370(5) 0.0819(4) 0.7441(3)
C10A C 1.0447(10) -0.1582(9) 0.4074(6)
H5A H 1.0552 -0.1420 0.3450
O11A O 0.8277(5) -0.2316(3) 0.8778(3)
C11A C 1.1393(10) -0.2221(8) 0.4538(6)
H6A H 1.2151 -0.2506 0.4237
C12A C 1.1210(8) -0.2434(6) 0.5440(5)
O12A O 0.7062(5) -0.1582(4) 0.9840(3)
O13A O 1.4705(5) -0.0680(4) 1.0985(3)
C13A C 0.8140(7) -0.0993(6) 0.6000(5)
O14A O 1.6053(6) -0.3537(4) 0.9089(4)
C14A C 1.2171(8) -0.3124(6) 0.6009(5)
O15A O 1.4106(5) -0.1371(4) 0.8984(3)
C15A C 1.0461(6) 0.0251(5) 0.8276(4)
O16A O 1.6624(6) -0.2614(4) 1.1761(4)
C16A C 1.0246(7) 0.1185(5) 0.8689(4)
H7A H 1.0800 0.1777 0.8552
O17A O 1.3211(6) -0.2667(5) 1.1755(4)
C17A C 0.9203(7) 0.1236(6) 0.9309(5)
H8A H 0.9024 0.1872 0.9596
C18A C 0.8427(7) 0.0363(5) 0.9508(5)
H9A H 0.7715 0.0384 0.9936
O18A O 1.5190(6) -0.4488(4) 1.1052(4)
C19A C 0.8702(6) -0.0545(5) 0.9074(4)
O19A O 0.3827(8) -0.1108(6) 0.6219(5)
C20A C 1.1566(6) 0.0097(5) 0.7600(4)
O20A O 0.475(2) 0.2258(16) 0.4897(13)
O21A O 0.4584(8) 0.1131(6) 0.6368(7)
C21A C 0.7931(6) -0.1551(5) 0.9252(4)
Sr1_2 Sr 0.50150(6) 0.25412(5) -0.04401(4)
Sr1A_2 Sr 0.49850(6) -0.25412(5) 1.04401(4)
O12_2 O -0.7062(5) 0.1582(4) 0.0160(3)
O12A_2 O 1.7062(5) -0.1582(4) 0.9840(3)
O22 O 0.4422(9) 0.1980(10) 0.2592(6)
O23 O 0.5629(13) 0.4004(10) 0.2523(8)
O24 O -0.6178(15) 0.3351(10) -0.3484(8)
O25 O 0.373(2) 0.3341(18) 0.3709(15)
O26 O -0.3192(6) 0.0707(5) -0.2583(4)
O27 O 0.218(2) 0.3660(19) 0.4663(13)
O28 O 0.620(3) 0.543(2) 0.288(2)
O29 O -0.4029(12) 0.4525(10) -0.3920(8)
O30 O -0.844(5) 0.404(2) -0.403(4)
loop_
_geom_bond_atom_site_label_1
_geom_bond_atom_site_label_2
_geom_bond_site_symmetry_1
_geom_bond_site_symmetry_2
Nd1 O1 1_555 1_555
O1 C6 1_555 1_555
N1 Nd1 1_555 1_555
C1 N1 1_555 1_555
Sr1 O2 1_555 1_555
O2 C6 1_555 1_555
N2 Nd1 1_555 1_555
C2 C1 1_555 1_555
H1 C2 1_555 1_555
Sr2 O6 1_555 1_555
O3 Nd1 1_555 1_555
N3 Nd1 1_555 1_555
C3 C2 1_555 1_555
H2 C3 1_555 1_555
O4 C7 1_555 1_555
C4 C3 1_555 1_555
H3 C4 1_555 1_555
O5 Nd1 1_555 1_555
C5 N1 1_555 1_555
O6 C13 1_555 1_555
C6 C1 1_555 1_555
C7 O3 1_555 1_555
O7 Nd1 1_555 1_555
O8 C14 1_555 1_555
C8 N2 1_555 1_555
O9 Nd1 1_555 1_555
C9 C8 1_555 1_555
H4 C9 1_555 1_555
O10 C20 1_555 1_555
C10 C9 1_555 1_555
H5 C10 1_555 1_555
O11 Nd1 1_555 1_555
C11 C10 1_555 1_555
H6 C11 1_555 1_555
C12 N2 1_555 1_555
O12 C21 1_555 1_555
O13 Sr1 1_555 1_555
C13 O5 1_555 1_555
O14 Sr1 1_555 1_555
C14 O7 1_555 1_555
O15 Sr1 1_555 1_555
C15 N3 1_555 1_555
O16 Sr1 1_555 1_555
C16 C15 1_555 1_555
H7 C16 1_555 1_555
O17 Sr1 1_555 1_555
C17 C16 1_555 1_555
H8 C17 1_555 1_555
C18 C17 1_555 1_555
H9 C18 1_555 1_555
O18 Sr1 1_555 1_555
C19 N3 1_555 1_555
O19 Sr2 1_555 1_555
C20 O9 1_555 1_555
O20 Sr2 1_555 1_555
O21 Sr2 1_555 1_555
C21 O11 1_555 1_555
Nd1A O1A 1_555 1_555
O1A C6A 1_555 1_555
N1A Nd1A 1_555 1_555
C1A N1A 1_555 1_555
Sr1A O2A 1_555 1_555
O2A C6A 1_555 1_555
N2A Nd1A 1_555 1_555
C2A C1A 1_555 1_555
H1A C2A 1_555 1_555
O3A Nd1A 1_555 1_555
N3A Nd1A 1_555 1_555
C3A C2A 1_555 1_555
H2A C3A 1_555 1_555
O4A C7A 1_555 1_555
C4A C3A 1_555 1_555
H3A C4A 1_555 1_555
O5A Nd1A 1_555 1_555
C5A N1A 1_555 1_555
O6A Sr2 1_555 1_555
C6A C1A 1_555 1_555
C7A O3A 1_555 1_555
O7A Nd1A 1_555 1_555
O8A C14A 1_555 1_555
C8A N2A 1_555 1_555
O9A Nd1A 1_555 1_555
C9A C8A 1_555 1_555
H4A C9A 1_555 1_555
O10A C20A 1_555 1_555
C10A C9A 1_555 1_555
H5A C10A 1_555 1_555
O11A Nd1A 1_555 1_555
C11A C10A 1_555 1_555
H6A C11A 1_555 1_555
C12A N2A 1_555 1_555
O12A C21A 1_555 1_555
O13A Sr1A 1_555 1_555
C13A O5A 1_555 1_555
O14A Sr1A 1_555 1_555
C14A O7A 1_555 1_555
O15A Sr1A 1_555 1_555
C15A N3A 1_555 1_555
O16A Sr1A 1_555 1_555
C16A C15A 1_555 1_555
H7A C16A 1_555 1_555
O17A Sr1A 1_555 1_555
C17A C16A 1_555 1_555
H8A C17A 1_555 1_555
C18A C17A 1_555 1_555
H9A C18A 1_555 1_555
O18A Sr1A 1_555 1_555
C19A N3A 1_555 1_555
O19A Sr2 1_555 1_555
C20A O9A 1_555 1_555
O20A Sr2 1_555 1_555
O21A Sr2 1_555 1_555
C21A O11A 1_555 1_555
Sr1_2 O12 1_555 1_555
Sr1A_2 O12A 1_555 1_555
O12_2 Sr1 1_555 1_555
O12A_2 Sr1A 1_555 1_555
C4 C5 1_555 1_555
C5 C7 1_555 1_555
C8 C13 1_555 1_555
C11 C12 1_555 1_555
C12 C14 1_555 1_555
C15 C20 1_555 1_555
C18 C19 1_555 1_555
C19 C21 1_555 1_555
C4A C5A 1_555 1_555
C5A C7A 1_555 1_555
O6A C13A 1_555 1_555
C8A C13A 1_555 1_555
C11A C12A 1_555 1_555
C12A C14A 1_555 1_555
C15A C20A 1_555 1_555
C18A C19A 1_555 1_555
C19A C21A 1_555 1_555

#END
