
#######################################################################
#
#                 Cambridge Crystallographic Data Centre
#                                CCDC 
#
#######################################################################
#
# If this CIF has been generated from an entry in the Cambridge 
# Structural Database, then it will include bibliographic, chemical, 
# crystal, experimental, refinement or atomic coordinate data resulting 
# from the CCDC's data processing and validation procedures.
#
#######################################################################

data_BIQZEG
_symmetry_cell_setting           triclinic
_symmetry_space_group_name_H-M   'P -1'
_symmetry_Int_Tables_number      2
_space_group_name_Hall           '-P 1'
loop_
_symmetry_equiv_pos_site_id
_symmetry_equiv_pos_as_xyz
1 x,y,z
2 -x,-y,-z
_cell_length_a                   9.308(2)
_cell_length_b                   9.526(2)
_cell_length_c                   9.956(2)
_cell_angle_alpha                75.430(10)
_cell_angle_beta                 65.800(10)
_cell_angle_gamma                83.320(10)
_cell_volume                     779.219
loop_
_atom_site_label
_atom_site_type_symbol
_atom_site_fract_x
_atom_site_fract_y
_atom_site_fract_z
Cu1 Cu -0.16234(3) 0.19824(3) -0.43843(3)
N1 N -0.2713(2) 0.1564(2) -0.5624(2)
C1 C -0.2336(3) 0.0378(3) -0.6189(3)
H1 H -0.1473(3) -0.0221(3) -0.6071(3)
C2 C -0.3137(4) -0.0018(3) -0.6932(3)
H2 H -0.2839(4) -0.0885(3) -0.7312(3)
C3 C -0.4358(4) 0.0839(3) -0.7121(3)
H3 H -0.4939(4) 0.0572(3) -0.7621(3)
C4 C -0.4730(4) 0.2096(3) -0.6581(3)
H4 H -0.5560(4) 0.2734(3) -0.6719(3)
C5 C -0.3896(3) 0.2416(3) -0.5838(3)
H5 H -0.4160(3) 0.3280(3) -0.5451(3)
N2 N -0.0571(2) 0.2539(2) -0.3153(2)
C6 C -0.1101(3) 0.1984(3) -0.1666(3)
H6 H -0.1942(3) 0.1301(3) -0.1211(3)
C7 C -0.0475(4) 0.2354(4) -0.0758(3)
H7 H -0.0871(4) 0.1928(4) 0.0307(3)
C8 C 0.0724(4) 0.3342(3) -0.1402(4)
H8 H 0.1156(4) 0.3641(3) -0.0794(4)
C9 C 0.1292(3) 0.3902(3) -0.2939(4)
H9 H 0.2137(3) 0.4582(3) -0.3419(4)
C10 C 0.0623(3) 0.3479(3) -0.3783(3)
H10 H 0.1029(3) 0.3865(3) -0.4855(3)
S1 S -0.63170(7) 0.16899(6) 0.01641(6)
O1 O -0.3668(2) 0.2033(2) -0.2722(2)
O2 O -0.3718(2) 0.4454(2) -0.3456(2)
C11 C -0.4218(3) 0.3303(3) -0.2547(3)
C12 C -0.5564(3) 0.3306(3) -0.1065(2)
C13 C -0.6285(3) 0.4464(3) -0.0464(3)
H11 H -0.6030(3) 0.5454(3) -0.0990(3)
C14 C -0.7451(3) 0.4044(3) 0.1019(3)
H12 H -0.8058(3) 0.4719(3) 0.1619(3)
C15 C -0.7617(3) 0.2583(2) 0.1502(2)
C16 C -0.8737(3) 0.1740(3) 0.2974(2)
O3 O -0.8637(2) 0.0404(2) 0.3256(2)
O4 O -0.9726(2) 0.2516(2) 0.3810(2)
O3A O -0.1363(2) -0.0404(2) -0.3256(2)
Cu1A Cu -0.83766(3) -0.19824(3) 0.43843(3)
Cu1_2 Cu -1.16234(3) 0.19824(3) 0.56157(3)
O4_2 O 0.0274(2) 0.2516(2) -0.6190(2)
loop_
_geom_bond_atom_site_label_1
_geom_bond_atom_site_label_2
_geom_bond_site_symmetry_1
_geom_bond_site_symmetry_2
Cu1 N1 1_555 1_555
N1 C1 1_555 1_555
C1 H1 1_555 1_555
C2 C1 1_555 1_555
H2 C2 1_555 1_555
C3 C2 1_555 1_555
H3 C3 1_555 1_555
C4 C3 1_555 1_555
H4 C4 1_555 1_555
C5 N1 1_555 1_555
H5 C5 1_555 1_555
N2 Cu1 1_555 1_555
C6 N2 1_555 1_555
H6 C6 1_555 1_555
C7 C6 1_555 1_555
H7 C7 1_555 1_555
C8 C7 1_555 1_555
H8 C8 1_555 1_555
C9 C8 1_555 1_555
H9 C9 1_555 1_555
C10 N2 1_555 1_555
H10 C10 1_555 1_555
S1 C12 1_555 1_555
O1 Cu1 1_555 1_555
O2 C11 1_555 1_555
C11 O1 1_555 1_555
C12 C11 1_555 1_555
C13 C12 1_555 1_555
H11 C13 1_555 1_555
C14 C13 1_555 1_555
H12 C14 1_555 1_555
C15 S1 1_555 1_555
C16 C15 1_555 1_555
O3 C16 1_555 1_555
O4 C16 1_555 1_555
O3A Cu1 1_555 1_555
Cu1A O3 1_555 1_555
Cu1_2 O4 1_555 1_555
O4_2 Cu1 1_555 1_555
C4 C5 1_555 1_555
C9 C10 1_555 1_555
C14 C15 1_555 1_555

#END
