
#######################################################################
#
#                 Cambridge Crystallographic Data Centre
#                                CCDC 
#
#######################################################################
#
# If this CIF has been generated from an entry in the Cambridge 
# Structural Database, then it will include bibliographic, chemical, 
# crystal, experimental, refinement or atomic coordinate data resulting 
# from the CCDC's data processing and validation procedures.
#
#######################################################################

data_BIQZIK
_symmetry_cell_setting           monoclinic
_symmetry_space_group_name_H-M   'P 21/c'
_symmetry_Int_Tables_number      14
_space_group_name_Hall           '-P 2ybc'
loop_
_symmetry_equiv_pos_site_id
_symmetry_equiv_pos_as_xyz
1 x,y,z
2 x,1/2-y,1/2+z
3 -x,-y,-z
4 -x,1/2+y,1/2-z
_cell_length_a                   12.7580(2)
_cell_length_b                   16.0342(3)
_cell_length_c                   18.19150(10)
_cell_angle_alpha                90
_cell_angle_beta                 103.5200(10)
_cell_angle_gamma                90
_cell_volume                     3618.21
loop_
_atom_site_label
_atom_site_type_symbol
_atom_site_fract_x
_atom_site_fract_y
_atom_site_fract_z
Cu1 Cu -0.49234(2) 0.03054(2) 0.149670(15)
N1 N -0.41917(15) -0.06685(11) 0.21041(11)
N2 N -0.36490(15) 0.01851(11) 0.10270(11)
S1 S -0.56602(4) 0.23891(4) -0.04291(3)
O1 O -0.56036(12) 0.10772(10) 0.06883(9)
O2 O -0.72580(12) 0.12843(11) 0.08845(10)
O3 O -0.50890(15) 0.33993(15) -0.16079(12)
O4 O -0.65675(14) 0.41865(11) -0.18912(9)
O5 O -0.41493(15) 0.12910(11) 0.22701(10)
H1 H -0.4033(25) 0.1683(17) 0.2062(17)
H2 H -0.4450(24) 0.1420(20) 0.2577(16)
O6 O -0.62624(13) 0.01748(11) 0.18564(9)
H3 H -0.6262(25) 0.0336(19) 0.2284(14)
H4 H -0.6685(23) 0.0489(19) 0.1565(16)
C1 C -0.4545(2) -0.1084(2) 0.2640(2)
H5 H -0.5205(2) -0.0937(2) 0.2737(2)
C2 C -0.3958(2) -0.1724(2) 0.3052(2)
H6 H -0.4222(2) -0.2006(2) 0.3417(2)
C3 C -0.2978(2) -0.1938(2) 0.2912(2)
H7 H -0.2570(2) -0.2364(2) 0.3187(2)
C4 C -0.2605(2) -0.15188(14) 0.23634(15)
H8 H -0.1945(2) -0.16586(14) 0.22622(15)
C5 C -0.3230(2) -0.08824(13) 0.19626(13)
C6 C -0.2925(2) -0.03997(12) 0.13529(12)
C7 C -0.1978(2) -0.05265(15) 0.11138(15)
H9 H -0.1482(2) -0.09266(15) 0.13459(15)
C8 C -0.1785(2) -0.0053(2) 0.0530(2)
H10 H -0.1158(2) -0.0134(2) 0.0361(2)
C9 C -0.2522(2) 0.0543(2) 0.0195(2)
H11 H -0.2403(2) 0.0867(2) -0.0202(2)
C10 C -0.3444(2) 0.0648(2) 0.04639(15)
H12 H -0.3939(2) 0.1054(2) 0.02449(15)
C11 C -0.6518(2) 0.14411(13) 0.05637(12)
C12 C -0.6688(2) 0.20952(13) -0.00236(12)
C13 C -0.7619(2) 0.25198(15) -0.03342(14)
H13 H -0.8263(2) 0.24419(15) -0.01863(14)
C14 C -0.7500(2) 0.30852(15) -0.08992(14)
H14 H -0.8057(2) 0.34170(15) -0.11682(14)
C15 C -0.6475(2) 0.30951(14) -0.10113(12)
C16 C -0.6010(2) 0.3597(2) -0.15481(12)
N3 N -0.03836(13) 0.50718(10) 0.23872(9)
N4 N 0.04927(14) 0.46111(11) 0.12893(9)
S2 S -0.07311(4) 0.25002(3) -0.06566(3)
O7 O -0.10189(11) 0.33316(9) 0.07850(8)
O8 O -0.28328(13) 0.33739(12) 0.04235(9)
O9 O -0.14931(11) 0.15231(9) -0.27003(7)
O10 O 0.01228(12) 0.17892(11) -0.19412(9)
O11 O -0.22671(14) 0.48594(10) 0.11144(9)
H15 H -0.2579(24) 0.5086(19) 0.1373(16)
H16 H -0.2613(24) 0.4491(18) 0.0910(17)
C17 C -0.0945(2) 0.53064(14) 0.28901(13)
H17 H -0.1539(2) 0.49916(14) 0.29344(13)
C18 C -0.0670(2) 0.6000(2) 0.33449(14)
H18 H -0.1069(2) 0.6148(2) 0.36920(14)
C19 C 0.0208(2) 0.6470(2) 0.32753(15)
H19 H 0.0404(2) 0.6942(2) 0.35724(15)
C20 C 0.0792(2) 0.62332(14) 0.27623(14)
H20 H 0.1390(2) 0.65405(14) 0.27137(14)
C21 C 0.0480(2) 0.55329(12) 0.23190(11)
C22 C 0.1011(2) 0.52362(12) 0.17245(11)
C23 C 0.1969(2) 0.55653(15) 0.16121(14)
H21 H 0.2326(2) 0.59862(15) 0.19248(14)
C24 C 0.2383(2) 0.5260(2) 0.1032(2)
H22 H 0.3023(2) 0.5474(2) 0.0949(2)
C25 C 0.1845(2) 0.4638(2) 0.0577(2)
H23 H 0.2108(2) 0.4433(2) 0.0177(2)
C26 C 0.0906(2) 0.4322(2) 0.07238(13)
H24 H 0.0548(2) 0.3894(2) 0.04206(13)
C27 C -0.1928(2) 0.31681(13) 0.03359(11)
C28 C -0.1906(2) 0.27098(12) -0.03749(10)
C29 C -0.2791(2) 0.24594(13) -0.09056(11)
H25 H -0.3494(2) 0.25255(13) -0.08534(11)
C30 C -0.2527(2) 0.20901(13) -0.15413(11)
H26 H -0.3038(2) 0.18777(13) -0.19487(11)
C31 C -0.14433(15) 0.20753(12) -0.14991(10)
C32 C -0.0868(2) 0.17745(12) -0.20799(11)
Cu2 Cu -0.07941(2) 0.414020(14) 0.162570(12)
O9A O -0.14931(11) 0.34769(9) 0.22997(7)
Cu2A Cu -0.07941(2) 0.085980(14) -0.337430(12)
O12 O -0.3562(2) 0.2745(2) 0.16339(14)
H27 H -0.3070(25) 0.2384(20) 0.1640(21)
H28 H -0.3525(25) 0.2844(20) 0.1192(14)
O13? O 0.5226(7) 0.5260(5) -0.0274(4)
O14? O 0.4625(12) 0.5726(9) -0.0659(8)
loop_
_geom_bond_atom_site_label_1
_geom_bond_atom_site_label_2
_geom_bond_site_symmetry_1
_geom_bond_site_symmetry_2
Cu1 N1 1_555 1_555
N1 C1 1_555 1_555
N2 Cu1 1_555 1_555
S1 C12 1_555 1_555
O1 Cu1 1_555 1_555
O2 C11 1_555 1_555
O3 C16 1_555 1_555
O4 C16 1_555 1_555
O5 Cu1 1_555 1_555
H1 O5 1_555 1_555
H2 O5 1_555 1_555
O6 Cu1 1_555 1_555
H3 O6 1_555 1_555
H4 O6 1_555 1_555
C1 H5 1_555 1_555
C2 C1 1_555 1_555
H6 C2 1_555 1_555
C3 C2 1_555 1_555
H7 C3 1_555 1_555
C4 C3 1_555 1_555
H8 C4 1_555 1_555
C5 N1 1_555 1_555
C6 N2 1_555 1_555
C7 C6 1_555 1_555
H9 C7 1_555 1_555
C8 C7 1_555 1_555
H10 C8 1_555 1_555
C9 C8 1_555 1_555
H11 C9 1_555 1_555
C10 N2 1_555 1_555
H12 C10 1_555 1_555
C11 O1 1_555 1_555
C12 C11 1_555 1_555
C13 C12 1_555 1_555
H13 C13 1_555 1_555
C14 C13 1_555 1_555
H14 C14 1_555 1_555
C15 S1 1_555 1_555
C16 C15 1_555 1_555
N3 C17 1_555 1_555
N4 C22 1_555 1_555
S2 C28 1_555 1_555
O7 C27 1_555 1_555
O8 C27 1_555 1_555
O9 C32 1_555 1_555
O10 C32 1_555 1_555
O11 H15 1_555 1_555
H16 O11 1_555 1_555
C17 H17 1_555 1_555
C18 C17 1_555 1_555
H18 C18 1_555 1_555
C19 C18 1_555 1_555
H19 C19 1_555 1_555
C20 C19 1_555 1_555
H20 C20 1_555 1_555
C21 N3 1_555 1_555
C22 C21 1_555 1_555
C23 C22 1_555 1_555
H21 C23 1_555 1_555
C24 C23 1_555 1_555
H22 C24 1_555 1_555
C25 C24 1_555 1_555
H23 C25 1_555 1_555
C26 N4 1_555 1_555
H24 C26 1_555 1_555
C27 C28 1_555 1_555
C28 C29 1_555 1_555
C29 H25 1_555 1_555
C30 C29 1_555 1_555
H26 C30 1_555 1_555
C31 S2 1_555 1_555
C32 C31 1_555 1_555
O12 H27 1_555 1_555
H28 O12 1_555 1_555
Cu2 N3 1_555 1_555
O9A Cu2 1_555 1_555
Cu2A O9 1_555 1_555
C4 C5 1_555 1_555
C5 C6 1_555 1_555
C9 C10 1_555 1_555
C14 C15 1_555 1_555
N4 Cu2 1_555 1_555
O7 Cu2 1_555 1_555
O11 Cu2 1_555 1_555
C20 C21 1_555 1_555
C25 C26 1_555 1_555
C30 C31 1_555 1_555

#END
