
#######################################################################
#
#                 Cambridge Crystallographic Data Centre
#                                CCDC 
#
#######################################################################
#
# If this CIF has been generated from an entry in the Cambridge 
# Structural Database, then it will include bibliographic, chemical, 
# crystal, experimental, refinement or atomic coordinate data resulting 
# from the CCDC's data processing and validation procedures.
#
#######################################################################

data_BIRGAM
_symmetry_cell_setting           orthorhombic
_symmetry_space_group_name_H-M   'P 21 21 21'
_symmetry_Int_Tables_number      19
_space_group_name_Hall           'P 2ac 2ab'
loop_
_symmetry_equiv_pos_site_id
_symmetry_equiv_pos_as_xyz
1 x,y,z
2 1/2-x,-y,1/2+z
3 -x,1/2+y,1/2-z
4 1/2+x,1/2-y,-z
_cell_length_a                   6.3507(8)
_cell_length_b                   17.116(2)
_cell_length_c                   18.492(2)
_cell_angle_alpha                90
_cell_angle_beta                 90
_cell_angle_gamma                90
_cell_volume                     2010.05
loop_
_atom_site_label
_atom_site_type_symbol
_atom_site_fract_x
_atom_site_fract_y
_atom_site_fract_z
O1 O 1.1555(7) 0.1367(2) -0.0719(2)
O2 O 0.8376(7) 0.0204(3) -0.0338(2)
O3 O 1.4137(10) -0.1962(3) 0.0110(3)
O4 O 1.9194(9) -0.1575(3) 0.0591(2)
O5 O 1.2653(7) 0.2129(3) 0.1849(3)
O6 O 1.3671(7) -0.0159(3) 0.0215(3)
O7 O 1.9262(7) -0.0912(2) 0.2427(2)
O8 O 2.2781(7) -0.0641(2) 0.1579(2)
O9 O 0.7178(7) 0.0349(2) 0.3257(2)
O10 O 0.8786(7) 0.1335(2) 0.3808(2)
O11 O 2.4805(6) -0.1250(2) 0.2716(2)
O12 O 2.2689(7) -0.2268(2) 0.2768(2)
O13 O 0.8963(6) 0.0699(2) 0.19730(19)
O14 O 1.7239(6) -0.0735(2) 0.1168(2)
C1 C 2.2233(10) -0.1416(3) 0.1770(3)
C2 C 2.3331(9) -0.1648(3) 0.2475(3)
C3 C 1.9827(10) -0.1450(4) 0.1875(3)
C4 C 1.8680(10) -0.1243(3) 0.1176(3)
C5 C 1.0929(9) 0.1220(3) 0.0013(3)
O15 O 0.8625(7) 0.2313(2) -0.0213(2)
O16 O 1.4629(7) 0.1068(2) 0.1777(2)
C6 C 1.3132(9) 0.1451(3) 0.2055(3)
C7 C 1.0228(9) 0.0362(3) 0.0072(3)
C8 C 1.2023(10) -0.0170(3) -0.0167(3)
O17 O 1.1873(11) -0.0544(3) -0.0730(3)
Cd1 Cd 0.55932(7) 0.24399(2) 0.12098(2)
Cd2 Cd 1.58478(6) -0.01168(2) 0.21952(2)
Cd3 Cd 1.64010(8) -0.09049(3) -0.00741(2)
O18 O 0.8248(7) 0.1664(2) 0.0815(2)
C9 C 1.1921(9) 0.1125(3) 0.2704(3)
C10 C 0.9136(10) 0.1778(3) 0.0208(3)
O19 O 1.2517(7) 0.0332(2) 0.2849(2)
C11 C 0.9544(9) 0.1184(3) 0.2572(3)
C12 C 0.8395(10) 0.0926(4) 0.3260(3)
O1C O 0.6555(7) 0.3633(2) 0.0719(2)
O2_2 O 1.8376(7) 0.0204(3) -0.0338(2)
O5_2 O 0.2653(7) 0.2129(3) 0.1849(3)
O8_2 O 1.2781(7) -0.0641(2) 0.1579(2)
O9_2 O 1.7178(7) 0.0349(2) 0.3257(2)
O10A O 1.6214(7) -0.1335(2) -0.1192(2)
O11_2 O 1.4805(6) -0.1250(2) 0.2716(2)
O12B O 0.7311(7) 0.2732(2) 0.2232(2)
O13_2 O 1.8963(6) 0.0699(2) 0.19730(19)
O15C O 0.3625(7) 0.2687(2) 0.0213(2)
O16_2 O 0.4629(7) 0.1068(2) 0.1777(2)
Cd1_2 Cd 1.55932(7) 0.24399(2) 0.12098(2)
Cd1B Cd 2.44068(7) -0.25601(2) 0.37902(2)
Cd1C Cd 1.05932(7) 0.25601(2) -0.12098(2)
Cd2_2 Cd 0.58478(6) -0.01168(2) 0.21952(2)
Cd2_3 Cd 2.58478(6) -0.01168(2) 0.21952(2)
Cd3_2 Cd 0.64010(8) -0.09049(3) -0.00741(2)
Cd3A Cd 0.85990(8) 0.09049(3) 0.49259(2)
O20 O 1.0524(9) 0.3650(4) 0.1103(3)
H1 H 1.140(15) 0.384(5) 0.093(5)
O21 O 1.540(5) -0.2797(19) 0.1159(15)
loop_
_geom_bond_atom_site_label_1
_geom_bond_atom_site_label_2
_geom_bond_site_symmetry_1
_geom_bond_site_symmetry_2
O1 C5 1_555 1_555
O2 C7 1_555 1_555
O3 Cd3 1_555 1_555
O4 C4 1_555 1_555
O5 C6 1_555 1_555
O6 C8 1_555 1_555
O7 C3 1_555 1_555
O8 C1 1_555 1_555
O9 C12 1_555 1_555
O10 C12 1_555 1_555
O11 C2 1_555 1_555
O12 C2 1_555 1_555
O13 C11 1_555 1_555
O14 C4 1_555 1_555
C1 C2 1_555 1_555
C3 C1 1_555 1_555
C4 C3 1_555 1_555
C5 C7 1_555 1_555
O15 C10 1_555 1_555
O16 C6 1_555 1_555
C6 C9 1_555 1_555
C7 C8 1_555 1_555
C8 O17 1_555 1_555
Cd1 O18 1_555 1_555
Cd2 O7 1_555 1_555
Cd3 O4 1_555 1_555
O18 C10 1_555 1_555
C9 O19 1_555 1_555
C10 C5 1_555 1_555
O19 Cd2 1_555 1_555
C11 C9 1_555 1_555
C12 C11 1_555 1_555
O20 H1 1_555 1_555
O1C Cd1 1_555 1_555
O2_2 Cd3 1_555 1_555
O5_2 Cd1 1_555 1_555
O8_2 Cd2 1_555 1_555
O9_2 Cd2 1_555 1_555
O10A Cd3 1_555 1_555
O11_2 Cd2 1_555 1_555
O12B Cd1 1_555 1_555
O13_2 Cd2 1_555 1_555
O15C Cd1 1_555 1_555
O16_2 Cd1 1_555 1_555
Cd1_2 O5 1_555 1_555
Cd1B O12 1_555 1_555
Cd1C O1 1_555 1_555
Cd2_2 O9 1_555 1_555
Cd2_3 O8 1_555 1_555
Cd3_2 O2 1_555 1_555
Cd3A O10 1_555 1_555
O6 Cd3 1_555 1_555
O11 Cd2_3 1_555 1_555
O13 Cd2_2 1_555 1_555
O14 Cd2 1_555 1_555
O14 Cd3 1_555 1_555
O15 Cd1C 1_555 1_555
O16 Cd2 1_555 1_555
O16 Cd1_2 1_555 1_555
O16_2 Cd2_2 1_555 1_555

#END
