
#######################################################################
#
#                 Cambridge Crystallographic Data Centre
#                                CCDC 
#
#######################################################################
#
# If this CIF has been generated from an entry in the Cambridge 
# Structural Database, then it will include bibliographic, chemical, 
# crystal, experimental, refinement or atomic coordinate data resulting 
# from the CCDC's data processing and validation procedures.
#
#######################################################################

data_BIRHUH
_symmetry_cell_setting           monoclinic
_symmetry_space_group_name_H-M   'P 21/n'
_symmetry_Int_Tables_number      14
_space_group_name_Hall           '-P 2yn'
loop_
_symmetry_equiv_pos_site_id
_symmetry_equiv_pos_as_xyz
1 x,y,z
2 1/2-x,1/2+y,1/2-z
3 -x,-y,-z
4 1/2+x,1/2-y,1/2+z
_cell_length_a                   19.6650(18)
_cell_length_b                   5.9143(7)
_cell_length_c                   20.995(2)
_cell_angle_alpha                90
_cell_angle_beta                 98.7100(10)
_cell_angle_gamma                90
_cell_volume                     2413.66
loop_
_atom_site_label
_atom_site_type_symbol
_atom_site_fract_x
_atom_site_fract_y
_atom_site_fract_z
Cd1 Cd 0.43736(4) 0.21633(11) 0.74183(3)
N1 N 0.7449(5) 0.0372(14) 1.1270(3)
N2 N 0.8243(4) 0.2035(13) 1.1965(3)
N3 N 0.6616(5) 0.1478(16) 0.8213(4)
N4 N 0.5538(4) 0.1268(16) 0.7747(3)
O1 O 0.4734(3) 0.5116(10) 0.6703(3)
O2 O 0.4641(4) 0.1586(11) 0.6366(3)
O3 O 0.4563(4) 0.4970(11) 0.8237(3)
O4 O 0.4285(4) 0.1605(12) 0.8586(3)
O5 O 0.4124(4) -0.1636(10) 0.7363(3)
H1 H 0.4279 -0.2361 0.7067
H2 H 0.4206 -0.2413 0.7707
C1 C 0.8115(6) 0.0456(17) 1.1511(4)
H3 H 0.8449 -0.0474 1.1379
C2 C 0.7618(6) 0.2960(17) 1.2008(5)
H4 H 0.7544 0.4120 1.2289
C3 C 0.7121(5) 0.1965(18) 1.1588(4)
H5 H 0.6653 0.2291 1.1527
C4 C 0.6021(6) 0.2518(17) 0.8080(5)
H6 H 0.5948 0.3992 0.8209
C5 C 0.5871(6) -0.072(2) 0.7634(5)
H7 H 0.5671 -0.1929 0.7391
C6 C 0.6530(6) -0.065(2) 0.7929(5)
H8 H 0.6858 -0.1788 0.7940
C7 C 0.7108(6) -0.1229(18) 1.0772(4)
H9 H 0.6624 -0.0853 1.0669
H10 H 0.7144 -0.2756 1.0943
C8 C 0.7255(5) 0.2280(18) 0.8600(5)
H11 H 0.7171 0.3723 0.8793
H12 H 0.7600 0.2509 0.8322
C9 C 0.7434(5) -0.1125(17) 1.0168(4)
C10 C 0.7214(6) 0.0536(17) 0.9694(4)
C11 C 0.7525(5) 0.0614(18) 0.9126(4)
C12 C 0.8055(6) -0.092(2) 0.9033(4)
C13 C 0.8252(6) -0.2522(19) 0.9506(5)
H13 H 0.8597 -0.3545 0.9449
C14 C 0.7946(6) -0.2651(17) 1.0070(5)
C15 C 0.6663(7) 0.2199(19) 0.9791(5)
H14 H 0.6240 0.1778 0.9528
H15 H 0.6601 0.2201 1.0236
H16 H 0.6796 0.3682 0.9671
C16 C 0.8391(7) -0.088(3) 0.8438(5)
H17 H 0.8709 -0.2115 0.8450
H18 H 0.8633 0.0523 0.8418
H19 H 0.8046 -0.1019 0.8064
C17 C 0.8225(7) -0.450(2) 1.0541(5)
H20 H 0.7922 -0.4698 1.0854
H21 H 0.8674 -0.4078 1.0754
H22 H 0.8256 -0.5889 1.0311
C18 C 0.4741(5) 0.3614(17) 0.6264(4)
C19 C 0.4881(5) 0.4383(14) 0.5610(4)
C20 C 0.4798(6) 0.2816(15) 0.5106(4)
H23 H 0.4665 0.1343 0.5182
C21 C 0.4910(5) 0.3430(16) 0.4497(4)
H24 H 0.4847 0.2388 0.4162
C22 C 0.4503(5) 0.3565(17) 0.8689(4)
C23 C 0.4746(5) 0.4354(14) 0.9368(4)
C24 C 0.5025(5) 0.6488(16) 0.9493(4)
H25 H 0.5039 0.7500 0.9156
C25 C 0.5286(5) 0.7120(15) 1.0123(4)
H26 H 0.5482 0.8542 1.0203
O1B O 0.5266(3) 0.4884(10) 0.3297(3)
O2B O 0.5359(4) 0.8414(11) 0.3634(3)
C18B C 0.5259(5) 0.6386(17) 0.3736(4)
C19B C 0.5119(5) 0.5617(14) 0.4390(4)
C20B C 0.5202(6) 0.7184(15) 0.4894(4)
H23B H 0.5335 0.8657 0.4818
C21B C 0.5090(5) 0.6570(16) 0.5503(4)
H24B H 0.5153 0.7612 0.5838
O3B O 0.5437(4) 0.5030(11) 1.1763(3)
O4B O 0.5715(4) 0.8395(12) 1.1414(3)
C22B C 0.5497(5) 0.6435(17) 1.1311(4)
C23B C 0.5254(5) 0.5646(14) 1.0632(4)
C24B C 0.4975(5) 0.3512(16) 1.0507(4)
H25B H 0.4961 0.2500 1.0844
C25B C 0.4714(5) 0.2880(15) 0.9877(4)
H26B H 0.4518 0.1458 0.9797
Cd1B Cd 0.56264(4) 0.78367(11) 0.25817(3)
N1B N 0.2551(5) 0.9628(14) -0.1270(3)
N2B N 0.1757(4) 0.7965(13) -0.1965(3)
N3B N 0.3384(5) 0.8522(16) 0.1787(4)
N4B N 0.4462(4) 0.8732(16) 0.2253(3)
O5B O 0.5876(4) 1.1636(10) 0.2637(3)
H1B H 0.5721 1.2361 0.2933
H2B H 0.5794 1.2413 0.2293
C1B C 0.1885(6) 0.9544(17) -0.1511(4)
H3B H 0.1551 1.0474 -0.1379
C2B C 0.2382(6) 0.7040(17) -0.2008(5)
H4B H 0.2456 0.5880 -0.2289
C3B C 0.2879(5) 0.8035(18) -0.1588(4)
H5B H 0.3347 0.7709 -0.1527
C4B C 0.3979(6) 0.7482(17) 0.1920(5)
H6B H 0.4052 0.6008 0.1791
C5B C 0.4129(6) 1.072(2) 0.2366(5)
H7B H 0.4329 1.1929 0.2609
C6B C 0.3470(6) 1.065(2) 0.2071(5)
H8B H 0.3142 1.1788 0.2060
C7B C 0.2892(6) 1.1229(18) -0.0772(4)
H9B H 0.3376 1.0853 -0.0669
H10B H 0.2856 1.2756 -0.0943
C8B C 0.2745(5) 0.7720(18) 0.1400(5)
H11B H 0.2829 0.6277 0.1207
H12B H 0.2400 0.7491 0.1678
C9B C 0.2566(5) 1.1125(17) -0.0168(4)
C10B C 0.2786(6) 0.9464(17) 0.0306(4)
C11B C 0.2475(5) 0.9386(18) 0.0874(4)
C12B C 0.1945(6) 1.092(2) 0.0967(4)
C13B C 0.1748(6) 1.2522(19) 0.0494(5)
H13B H 0.1403 1.3545 0.0551
C14B C 0.2054(6) 1.2651(17) -0.0070(5)
C15B C 0.3337(7) 0.7801(19) 0.0209(5)
H14B H 0.3760 0.8222 0.0472
H15B H 0.3399 0.7799 -0.0236
H16B H 0.3204 0.6318 0.0329
C16B C 0.1609(7) 1.088(3) 0.1562(5)
H17B H 0.1291 1.2115 0.1550
H18B H 0.1367 0.9477 0.1582
H19B H 0.1954 1.1019 0.1936
C17B C 0.1775(7) 1.450(2) -0.0541(5)
H20B H 0.2078 1.4698 -0.0854
H21B H 0.1326 1.4078 -0.0754
H22B H 0.1744 1.5889 -0.0311
Cd1A Cd 0.06264(4) 0.71633(11) -0.24183(3)
Cd1B_2 Cd 0.56264(4) 0.78367(11) 1.25817(3)
Cd1C Cd 0.93736(4) 0.28367(11) 1.24183(3)
N2A N 0.6757(4) 0.7035(13) 0.3035(3)
N2C N 0.3243(4) 0.2965(13) 0.6965(3)
O3B_2 O 0.5437(4) 0.5030(11) 0.1763(3)
O4B_2 O 0.5715(4) 0.8395(12) 0.1414(3)
loop_
_geom_bond_atom_site_label_1
_geom_bond_atom_site_label_2
_geom_bond_site_symmetry_1
_geom_bond_site_symmetry_2
Cd1 N4 1_555 1_555
N1 C1 1_555 1_555
N2 C1 1_555 1_555
N3 C4 1_555 1_555
N4 C4 1_555 1_555
O1 Cd1 1_555 1_555
O2 Cd1 1_555 1_555
O3 Cd1 1_555 1_555
O4 Cd1 1_555 1_555
O5 Cd1 1_555 1_555
H1 O5 1_555 1_555
H2 O5 1_555 1_555
C1 H3 1_555 1_555
C2 N2 1_555 1_555
H4 C2 1_555 1_555
C3 N1 1_555 1_555
H5 C3 1_555 1_555
C4 H6 1_555 1_555
C5 N4 1_555 1_555
H7 C5 1_555 1_555
C6 N3 1_555 1_555
H8 C6 1_555 1_555
C7 N1 1_555 1_555
H9 C7 1_555 1_555
H10 C7 1_555 1_555
C8 N3 1_555 1_555
H11 C8 1_555 1_555
H12 C8 1_555 1_555
C9 C7 1_555 1_555
C10 C9 1_555 1_555
C11 C8 1_555 1_555
C12 C11 1_555 1_555
C13 C12 1_555 1_555
H13 C13 1_555 1_555
C14 C9 1_555 1_555
C15 C10 1_555 1_555
H14 C15 1_555 1_555
H15 C15 1_555 1_555
H16 C15 1_555 1_555
C16 C12 1_555 1_555
H17 C16 1_555 1_555
H18 C16 1_555 1_555
H19 C16 1_555 1_555
C17 C14 1_555 1_555
H20 C17 1_555 1_555
H21 C17 1_555 1_555
H22 C17 1_555 1_555
C18 O1 1_555 1_555
C19 C18 1_555 1_555
C20 C19 1_555 1_555
H23 C20 1_555 1_555
C21 C20 1_555 1_555
H24 C21 1_555 1_555
C22 O3 1_555 1_555
C23 C22 1_555 1_555
C24 C23 1_555 1_555
H25 C24 1_555 1_555
C25 C24 1_555 1_555
H26 C25 1_555 1_555
O1B C18B 1_555 1_555
O2B C18B 1_555 1_555
C18B C19B 1_555 1_555
C19B C21 1_555 1_555
C20B C19B 1_555 1_555
H23B C20B 1_555 1_555
C21B C19 1_555 1_555
H24B C21B 1_555 1_555
O3B C22B 1_555 1_555
O4B C22B 1_555 1_555
C22B C23B 1_555 1_555
C23B C25 1_555 1_555
C24B C23B 1_555 1_555
H25B C24B 1_555 1_555
C25B C23 1_555 1_555
H26B C25B 1_555 1_555
Cd1B O1B 1_555 1_555
N1B C1B 1_555 1_555
N2B C1B 1_555 1_555
N3B C4B 1_555 1_555
N4B Cd1B 1_555 1_555
O5B Cd1B 1_555 1_555
H1B O5B 1_555 1_555
H2B O5B 1_555 1_555
C1B H3B 1_555 1_555
C2B N2B 1_555 1_555
H4B C2B 1_555 1_555
C3B N1B 1_555 1_555
H5B C3B 1_555 1_555
C4B N4B 1_555 1_555
H6B C4B 1_555 1_555
C5B N4B 1_555 1_555
H7B C5B 1_555 1_555
C6B N3B 1_555 1_555
H8B C6B 1_555 1_555
C7B N1B 1_555 1_555
H9B C7B 1_555 1_555
H10B C7B 1_555 1_555
C8B N3B 1_555 1_555
H11B C8B 1_555 1_555
H12B C8B 1_555 1_555
C9B C7B 1_555 1_555
C10B C9B 1_555 1_555
C11B C8B 1_555 1_555
C12B C11B 1_555 1_555
C13B C12B 1_555 1_555
H13B C13B 1_555 1_555
C14B C9B 1_555 1_555
C15B C10B 1_555 1_555
H14B C15B 1_555 1_555
H15B C15B 1_555 1_555
H16B C15B 1_555 1_555
C16B C12B 1_555 1_555
H17B C16B 1_555 1_555
H18B C16B 1_555 1_555
H19B C16B 1_555 1_555
C17B C14B 1_555 1_555
H20B C17B 1_555 1_555
H21B C17B 1_555 1_555
H22B C17B 1_555 1_555
Cd1A N2B 1_555 1_555
Cd1B_2 O3B 1_555 1_555
Cd1C N2 1_555 1_555
N2A Cd1B 1_555 1_555
N2C Cd1 1_555 1_555
O3B_2 Cd1B 1_555 1_555
O4B_2 Cd1B 1_555 1_555
O2 C18 1_555 1_555
O4 C22 1_555 1_555
C2 C3 1_555 1_555
C5 C6 1_555 1_555
C10 C11 1_555 1_555
C13 C14 1_555 1_555
O2B Cd1B 1_555 1_555
C20B C21B 1_555 1_555
O4B Cd1B_2 1_555 1_555
C24B C25B 1_555 1_555
C2B C3B 1_555 1_555
C5B C6B 1_555 1_555
C10B C11B 1_555 1_555
C13B C14B 1_555 1_555

#END
