
#######################################################################
#
#                 Cambridge Crystallographic Data Centre
#                                CCDC 
#
#######################################################################
#
# If this CIF has been generated from an entry in the Cambridge 
# Structural Database, then it will include bibliographic, chemical, 
# crystal, experimental, refinement or atomic coordinate data resulting 
# from the CCDC's data processing and validation procedures.
#
#######################################################################

data_BIRJIX
_symmetry_cell_setting           monoclinic
_symmetry_space_group_name_H-M   'C 2/c'
_symmetry_Int_Tables_number      15
_space_group_name_Hall           '-C 2yn'
loop_
_symmetry_equiv_pos_site_id
_symmetry_equiv_pos_as_xyz
1 x,y,z
2 1/2+x,1/2+y,z
3 -x,y,1/2-z
4 1/2-x,1/2+y,1/2-z
5 -x,-y,-z
6 1/2-x,1/2-y,-z
7 x,-y,1/2+z
8 1/2+x,1/2-y,1/2+z
_cell_length_a                   27.6883(16)
_cell_length_b                   13.3263(9)
_cell_length_c                   15.3649(10)
_cell_angle_alpha                90
_cell_angle_beta                 116.7630(10)
_cell_angle_gamma                90
_cell_volume                     5062.06
loop_
_atom_site_label
_atom_site_type_symbol
_atom_site_fract_x
_atom_site_fract_y
_atom_site_fract_z
Au1 Au 0.5000 0.86657(2) 0.7500
Au2 Au 0.2500 0.7500 0.0000
Au3 Au 0.432941(10) 1.201477(16) 0.363226(18)
Mn1 Mn 0.35903(3) 0.84351(6) 0.37698(5)
N1 N 0.43132(18) 0.7591(3) 0.3797(3)
N2 N 0.4715(2) 0.6138(4) 0.3837(4)
N3 N 0.34515(18) 0.6769(3) 0.3861(3)
N4 N 0.27841(18) 0.8232(3) 0.3837(3)
N5 N 0.21376(18) 0.7184(3) 0.3751(3)
N6 N 0.4061(2) 0.8652(4) 0.5379(3)
N7 N 0.3118(2) 0.8262(4) 0.2145(3)
N8 N 0.3738(2) 1.0004(4) 0.3558(4)
N9 N 0.4944(2) 1.4032(4) 0.3813(5)
C1 C 0.4809(2) 0.7789(4) 0.3812(4)
C2 C 0.5065(3) 0.8689(5) 0.3825(5)
C3 C 0.5569(3) 0.8625(6) 0.3860(6)
C4 C 0.5821(3) 0.7718(6) 0.3878(6)
C5 C 0.5575(3) 0.6818(6) 0.3875(6)
C6 C 0.5067(2) 0.6866(4) 0.3842(4)
C7 C 0.4278(2) 0.6598(4) 0.3828(4)
C8 C 0.3819(2) 0.6111(4) 0.3877(4)
C9 C 0.3745(3) 0.5079(5) 0.3929(5)
C10 C 0.3276(3) 0.4762(5) 0.3942(5)
C11 C 0.2896(3) 0.5439(4) 0.3917(5)
C12 C 0.2994(2) 0.6449(4) 0.3876(4)
C13 C 0.2643(2) 0.7279(4) 0.3837(4)
C14 C 0.1929(2) 0.8138(4) 0.3691(4)
C15 C 0.1431(2) 0.8473(5) 0.3584(5)
C16 C 0.1348(3) 0.9502(5) 0.3512(5)
C17 C 0.1760(3) 1.0165(5) 0.3576(5)
C18 C 0.2254(3) 0.9826(5) 0.3700(5)
C19 C 0.2342(2) 0.8785(4) 0.3754(4)
C20 C 0.4408(2) 0.8672(4) 0.6158(4)
C21 C 0.2882(2) 0.7984(5) 0.1368(4)
C22 C 0.3937(3) 1.0757(5) 0.3566(5)
C23 C 0.4729(2) 1.3295(4) 0.3741(5)
H1 H 0.4900 0.9306 0.3807
H2 H 0.5748 0.9220 0.3876
H3 H 0.6164 0.7719 0.3901
H4 H 0.5736 0.6206 0.3876
H5 H 0.4008 0.4630 0.3963
H6 H 0.3217 0.4080 0.3977
H7 H 0.2578 0.5221 0.3925
H8 H 0.1168 0.8022 0.3556
H9 H 0.1013 0.9754 0.3416
H10 H 0.1690 1.0852 0.3522
H11 H 0.2526 1.0271 0.3747
H12 H 0.4770 0.5434 0.3841
H13 H 0.1954 0.6575 0.3731
Au3D Au 0.567059(10) 0.798523(16) 0.636774(18)
Mn1D Mn 0.64097(3) 1.15649(6) 0.62302(5)
N1D N 0.56868(18) 1.2409(3) 0.6203(3)
N2D N 0.5285(2) 1.3862(4) 0.6163(4)
N3D N 0.65485(18) 1.3231(3) 0.6139(3)
N4D N 0.72159(18) 1.1768(3) 0.6163(3)
N5D N 0.78624(18) 1.2816(3) 0.6249(3)
N6D N 0.5939(2) 1.1348(4) 0.4621(3)
N7D N 0.6882(2) 1.1738(4) 0.7855(3)
N8D N 0.6262(2) 0.9996(4) 0.6442(4)
N9D N 0.5056(2) 0.5968(4) 0.6187(5)
C1D C 0.5191(2) 1.2211(4) 0.6188(4)
C2D C 0.4935(3) 1.1311(5) 0.6175(5)
C3D C 0.4431(3) 1.1375(6) 0.6140(6)
C4D C 0.4179(3) 1.2282(6) 0.6122(6)
C5D C 0.4425(3) 1.3182(6) 0.6125(6)
C6D C 0.4933(2) 1.3134(4) 0.6158(4)
C7D C 0.5722(2) 1.3402(4) 0.6172(4)
C8D C 0.6181(2) 1.3889(4) 0.6123(4)
C9D C 0.6255(3) 1.4921(5) 0.6071(5)
C10D C 0.6724(3) 1.5238(5) 0.6058(5)
C11D C 0.7104(3) 1.4561(4) 0.6083(5)
C12D C 0.7006(2) 1.3551(4) 0.6124(4)
C13D C 0.7357(2) 1.2721(4) 0.6163(4)
C14D C 0.8071(2) 1.1862(4) 0.6309(4)
C15D C 0.8569(2) 1.1527(5) 0.6416(5)
C16D C 0.8652(3) 1.0498(5) 0.6488(5)
C17D C 0.8240(3) 0.9835(5) 0.6424(5)
C18D C 0.7746(3) 1.0174(5) 0.6300(5)
C19D C 0.7658(2) 1.1215(4) 0.6246(4)
C20D C 0.5592(2) 1.1328(4) 0.3842(4)
C21D C 0.7118(2) 1.2016(5) 0.8632(4)
C22D C 0.6063(3) 0.9243(5) 0.6434(5)
C23D C 0.5271(2) 0.6705(4) 0.6259(5)
H1D H 0.5100 1.0694 0.6193
H2D H 0.4252 1.0780 0.6124
H3D H 0.3836 1.2281 0.6099
H4D H 0.4264 1.3794 0.6124
H5D H 0.5992 1.5370 0.6037
H6D H 0.6783 1.5920 0.6023
H7D H 0.7422 1.4779 0.6075
H8D H 0.8832 1.1978 0.6444
H9D H 0.8987 1.0246 0.6584
H10D H 0.8310 0.9148 0.6478
H11D H 0.7474 0.9729 0.6253
H12D H 0.5230 1.4566 0.6159
H13D H 0.8046 1.3425 0.6269
Au1D Au 0.5000 1.13343(2) 0.2500
Au2D Au 0.7500 1.2500 1.0000
Au3F Au 0.432941(10) 0.798523(16) 0.863226(18)
C20B C 0.5592(2) 0.8672(4) 0.8842(4)
C21E C 0.2118(2) 0.7016(5) -0.1368(4)
O1 O 0.1670(2) 0.5317(4) 0.3866(4)
loop_
_geom_bond_atom_site_label_1
_geom_bond_atom_site_label_2
_geom_bond_site_symmetry_1
_geom_bond_site_symmetry_2
Au1 C20 1_555 1_555
Au2 C21 1_555 1_555
Au3 C22 1_555 1_555
Mn1 N1 1_555 1_555
N1 C1 1_555 1_555
N2 C6 1_555 1_555
N3 Mn1 1_555 1_555
N4 Mn1 1_555 1_555
N5 C13 1_555 1_555
N6 Mn1 1_555 1_555
N7 Mn1 1_555 1_555
N8 Mn1 1_555 1_555
N9 C23 1_555 1_555
C1 C2 1_555 1_555
C2 C3 1_555 1_555
C3 C4 1_555 1_555
C4 C5 1_555 1_555
C5 C6 1_555 1_555
C6 C1 1_555 1_555
C7 N1 1_555 1_555
C8 N3 1_555 1_555
C9 C8 1_555 1_555
C10 C9 1_555 1_555
C11 C10 1_555 1_555
C12 N3 1_555 1_555
C13 N4 1_555 1_555
C14 N5 1_555 1_555
C15 C14 1_555 1_555
C16 C15 1_555 1_555
C17 C16 1_555 1_555
C18 C17 1_555 1_555
C19 N4 1_555 1_555
C20 N6 1_555 1_555
C21 N7 1_555 1_555
C22 N8 1_555 1_555
C23 Au3 1_555 1_555
H1 C2 1_555 1_555
H2 C3 1_555 1_555
H3 C4 1_555 1_555
H4 C5 1_555 1_555
H5 C9 1_555 1_555
H6 C10 1_555 1_555
H7 C11 1_555 1_555
H8 C15 1_555 1_555
H9 C16 1_555 1_555
H10 C17 1_555 1_555
H11 C18 1_555 1_555
H12 N2 1_555 1_555
H13 N5 1_555 1_555
Au3D Au1 1_555 1_555
Mn1D N1D 1_555 1_555
N1D C1D 1_555 1_555
N2D C6D 1_555 1_555
N3D Mn1D 1_555 1_555
N4D Mn1D 1_555 1_555
N5D C13D 1_555 1_555
N6D Mn1D 1_555 1_555
N7D Mn1D 1_555 1_555
N8D Mn1D 1_555 1_555
N9D C23D 1_555 1_555
C1D C2D 1_555 1_555
C2D C3D 1_555 1_555
C3D C4D 1_555 1_555
C4D C5D 1_555 1_555
C5D C6D 1_555 1_555
C6D C1D 1_555 1_555
C7D N1D 1_555 1_555
C8D N3D 1_555 1_555
C9D C8D 1_555 1_555
C10D C9D 1_555 1_555
C11D C10D 1_555 1_555
C12D N3D 1_555 1_555
C13D N4D 1_555 1_555
C14D N5D 1_555 1_555
C15D C14D 1_555 1_555
C16D C15D 1_555 1_555
C17D C16D 1_555 1_555
C18D C17D 1_555 1_555
C19D N4D 1_555 1_555
C20D N6D 1_555 1_555
C21D N7D 1_555 1_555
C22D Au3D 1_555 1_555
C23D Au3D 1_555 1_555
H1D C2D 1_555 1_555
H2D C3D 1_555 1_555
H3D C4D 1_555 1_555
H4D C5D 1_555 1_555
H5D C9D 1_555 1_555
H6D C10D 1_555 1_555
H7D C11D 1_555 1_555
H8D C15D 1_555 1_555
H9D C16D 1_555 1_555
H10D C17D 1_555 1_555
H11D C18D 1_555 1_555
H12D N2D 1_555 1_555
H13D N5D 1_555 1_555
Au1D Au3 1_555 1_555
Au2D C21D 1_555 1_555
Au3F Au1 1_555 1_555
C20B Au1 1_555 1_555
C21E Au2 1_555 1_555
N2 C7 1_555 1_555
C7 C8 1_555 1_555
C11 C12 1_555 1_555
C12 C13 1_555 1_555
C14 C19 1_555 1_555
C18 C19 1_555 1_555
N2D C7D 1_555 1_555
N8D C22D 1_555 1_555
C7D C8D 1_555 1_555
C11D C12D 1_555 1_555
C12D C13D 1_555 1_555
C14D C19D 1_555 1_555
C18D C19D 1_555 1_555
C20D Au1D 1_555 1_555

#END
