
#######################################################################
#
#                 Cambridge Crystallographic Data Centre
#                                CCDC 
#
#######################################################################
#
# If this CIF has been generated from an entry in the Cambridge 
# Structural Database, then it will include bibliographic, chemical, 
# crystal, experimental, refinement or atomic coordinate data resulting 
# from the CCDC's data processing and validation procedures.
#
#######################################################################

data_BIRLOF02
_symmetry_cell_setting           monoclinic
_symmetry_space_group_name_H-M   'P 21/n'
_symmetry_Int_Tables_number      14
_space_group_name_Hall           '-P 2yn'
loop_
_symmetry_equiv_pos_site_id
_symmetry_equiv_pos_as_xyz
1 x,y,z
2 1/2-x,1/2+y,1/2-z
3 -x,-y,-z
4 1/2+x,1/2-y,1/2+z
_cell_length_a                   9.2249(9)
_cell_length_b                   18.8564(13)
_cell_length_c                   10.4413(11)
_cell_angle_alpha                90
_cell_angle_beta                 100.292(10)
_cell_angle_gamma                90
_cell_volume                     1787.02
loop_
_atom_site_label
_atom_site_type_symbol
_atom_site_fract_x
_atom_site_fract_y
_atom_site_fract_z
C1 C 0.6766(5) -0.1127(2) 0.3261(4)
H1 H 0.5984 -0.1439 0.3259
C2 C 0.7950(5) -0.1347(2) 0.2702(4)
H2 H 0.7961 -0.1797 0.2343
C3 C 0.9099(5) -0.0889(2) 0.2688(4)
H3 H 0.9896 -0.1023 0.2309
C4 C 0.9060(4) -0.0227(2) 0.3243(3)
H4 H 0.9835 0.0091 0.3259
C5 C 0.7843(4) -0.00456(17) 0.3774(3)
C6 C 0.7630(3) 0.06337(16) 0.4398(3)
C7 C 0.7734(4) 0.17092(17) 0.5166(3)
C8 C 0.7424(4) 0.27921(19) 0.6808(4)
H5 H 0.6393 0.2665 0.6558
H6 H 0.7825 0.2542 0.7604
C9 C 0.7575(4) 0.35830(18) 0.7018(3)
C10 C 0.6814(4) 0.4049(2) 0.6123(4)
H7 H 0.6181 0.3880 0.5392
C11 C 0.7001(5) 0.4762(2) 0.6322(4)
H8 H 0.6496 0.5083 0.5729
C12 C 0.7941(4) 0.49985(19) 0.7404(4)
H9 H 0.8083 0.5484 0.7516
C13 C 0.8463(4) 0.38656(18) 0.8101(3)
H10 H 0.8953 0.3556 0.8725
Cu1 Cu 0.5000 0.0000 0.5000
N1 N 0.6700(3) -0.04973(15) 0.3795(3)
N2 N 0.8655(3) 0.45651(14) 0.8299(3)
N3 N 0.6485(3) 0.07467(13) 0.4961(2)
N4 N 0.8448(3) 0.12347(14) 0.4502(2)
N5 N 0.6536(3) 0.14235(14) 0.5465(3)
N6 N 0.9772(3) 0.13356(15) 0.4017(3)
H11 H 0.9584 0.1583 0.3288
H12 H 1.0380 0.1589 0.4576
S1 S 0.84258(12) 0.25513(5) 0.55270(10)
C1B C 0.3234(5) 0.1127(2) 0.6739(4)
H1B H 0.4016 0.1439 0.6741
C2B C 0.2050(5) 0.1347(2) 0.7298(4)
H2B H 0.2039 0.1797 0.7657
C3B C 0.0901(5) 0.0889(2) 0.7312(4)
H3B H 0.0104 0.1023 0.7691
C4B C 0.0940(4) 0.0227(2) 0.6757(3)
H4B H 0.0165 -0.0091 0.6741
C5B C 0.2157(4) 0.00456(17) 0.6226(3)
C6B C 0.2370(3) -0.06337(16) 0.5602(3)
C7B C 0.2266(4) -0.17092(17) 0.4834(3)
C8B C 0.2576(4) -0.27921(19) 0.3192(4)
H5B H 0.3607 -0.2665 0.3442
H6B H 0.2175 -0.2542 0.2396
C9B C 0.2425(4) -0.35830(18) 0.2982(3)
C10B C 0.3186(4) -0.4049(2) 0.3877(4)
H7B H 0.3819 -0.3880 0.4608
C11B C 0.2999(5) -0.4762(2) 0.3678(4)
H8B H 0.3504 -0.5083 0.4271
C12B C 0.2059(4) -0.49985(19) 0.2596(4)
H9B H 0.1917 -0.5484 0.2484
C13B C 0.1537(4) -0.38656(18) 0.1899(3)
H10B H 0.1047 -0.3556 0.1275
N1B N 0.3300(3) 0.04973(15) 0.6205(3)
N2B N 0.1345(3) -0.45651(14) 0.1701(3)
N3B N 0.3515(3) -0.07467(13) 0.5039(2)
N4B N 0.1552(3) -0.12347(14) 0.5498(2)
N5B N 0.3464(3) -0.14235(14) 0.4535(3)
N6B N 0.0228(3) -0.13356(15) 0.5983(3)
H11B H 0.0416 -0.1583 0.6712
H12B H -0.0380 -0.1589 0.5424
S1B S 0.15742(12) -0.25513(5) 0.44730(10)
Cu1A Cu 0.0000 -0.5000 0.0000
Cu1A_2 Cu 1.0000 0.5000 1.0000
N2A N 0.6345(3) -0.04349(14) 0.6701(3)
N2C N 0.3655(3) 0.04349(14) 0.3299(3)
C14 C 0.1660(5) 0.3734(3) 0.5721(5)
F1 F 0.2377(4) 0.43300(15) 0.6099(3)
F2 F 0.0560(4) 0.38908(18) 0.4768(4)
F3 F 0.1054(3) 0.35251(17) 0.6720(3)
O1 O 0.3568(4) 0.34327(17) 0.4327(3)
O2 O 0.3829(4) 0.29258(19) 0.6494(3)
O3 O 0.1942(3) 0.24951(15) 0.4781(3)
S2 S 0.28833(12) 0.30739(6) 0.52725(10)
loop_
_geom_bond_atom_site_label_1
_geom_bond_atom_site_label_2
_geom_bond_site_symmetry_1
_geom_bond_site_symmetry_2
C1 H1 1_555 1_555
C2 C1 1_555 1_555
H2 C2 1_555 1_555
C3 C2 1_555 1_555
H3 C3 1_555 1_555
C4 C3 1_555 1_555
H4 C4 1_555 1_555
C5 C4 1_555 1_555
C6 C5 1_555 1_555
C7 N4 1_555 1_555
C8 H5 1_555 1_555
H6 C8 1_555 1_555
C9 C8 1_555 1_555
C10 C9 1_555 1_555
H7 C10 1_555 1_555
C11 C10 1_555 1_555
H8 C11 1_555 1_555
C12 C11 1_555 1_555
H9 C12 1_555 1_555
C13 C9 1_555 1_555
H10 C13 1_555 1_555
Cu1 N1 1_555 1_555
N1 C1 1_555 1_555
N2 C12 1_555 1_555
N3 C6 1_555 1_555
N4 C6 1_555 1_555
N5 C7 1_555 1_555
N6 N4 1_555 1_555
H11 N6 1_555 1_555
H12 N6 1_555 1_555
S1 C7 1_555 1_555
C14 F1 1_555 1_555
F2 C14 1_555 1_555
F3 C14 1_555 1_555
O1 S2 1_555 1_555
O2 S2 1_555 1_555
O3 S2 1_555 1_555
S2 C14 1_555 1_555
C1B H1B 1_555 1_555
C2B C1B 1_555 1_555
H2B C2B 1_555 1_555
C3B C2B 1_555 1_555
H3B C3B 1_555 1_555
C4B C3B 1_555 1_555
H4B C4B 1_555 1_555
C5B C4B 1_555 1_555
C6B C5B 1_555 1_555
C7B N4B 1_555 1_555
C8B H5B 1_555 1_555
H6B C8B 1_555 1_555
C9B C8B 1_555 1_555
C10B C9B 1_555 1_555
H7B C10B 1_555 1_555
C11B C10B 1_555 1_555
H8B C11B 1_555 1_555
C12B C11B 1_555 1_555
H9B C12B 1_555 1_555
C13B C9B 1_555 1_555
H10B C13B 1_555 1_555
N1B Cu1 1_555 1_555
N2B C12B 1_555 1_555
N3B Cu1 1_555 1_555
N4B C6B 1_555 1_555
N5B C7B 1_555 1_555
N6B N4B 1_555 1_555
H11B N6B 1_555 1_555
H12B N6B 1_555 1_555
S1B C7B 1_555 1_555
Cu1A N2B 1_555 1_555
Cu1A_2 N2 1_555 1_555
N2A Cu1 1_555 1_555
N2C Cu1 1_555 1_555
C5 N1 1_555 1_555
C8 S1 1_555 1_555
C13 N2 1_555 1_555
Cu1 N3 1_555 1_555
N3 N5 1_555 1_555
C1B N1B 1_555 1_555
C5B N1B 1_555 1_555
C6B N3B 1_555 1_555
C8B S1B 1_555 1_555
C13B N2B 1_555 1_555
N3B N5B 1_555 1_555

#END
