
#######################################################################
#
#                 Cambridge Crystallographic Data Centre
#                                CCDC 
#
#######################################################################
#
# If this CIF has been generated from an entry in the Cambridge 
# Structural Database, then it will include bibliographic, chemical, 
# crystal, experimental, refinement or atomic coordinate data resulting 
# from the CCDC's data processing and validation procedures.
#
#######################################################################

data_BIRLOF
_symmetry_cell_setting           monoclinic
_symmetry_space_group_name_H-M   'P 21/n'
_symmetry_Int_Tables_number      14
_space_group_name_Hall           '-P 2yn'
loop_
_symmetry_equiv_pos_site_id
_symmetry_equiv_pos_as_xyz
1 x,y,z
2 1/2-x,1/2+y,1/2-z
3 -x,-y,-z
4 1/2+x,1/2-y,1/2+z
_cell_length_a                   9.2150(3)
_cell_length_b                   18.8491(5)
_cell_length_c                   10.4290(3)
_cell_angle_alpha                90
_cell_angle_beta                 100.392(3)
_cell_angle_gamma                90
_cell_volume                     1781.75
loop_
_atom_site_label
_atom_site_type_symbol
_atom_site_fract_x
_atom_site_fract_y
_atom_site_fract_z
C1 C 0.6785(3) -0.11414(14) 0.3256(3)
H1 H 0.6007 -0.1456 0.3257
C2 C 0.7970(4) -0.13581(15) 0.2704(3)
H2 H 0.7982 -0.1809 0.2343
C3 C 0.9123(3) -0.09019(15) 0.2695(3)
H3 H 0.9927 -0.1038 0.2327
C4 C 0.9076(3) -0.02329(14) 0.3242(2)
H4 H 0.9847 0.0086 0.3252
C5 C 0.7858(3) -0.00523(12) 0.3773(2)
C6 C 0.7640(3) 0.06304(12) 0.4386(2)
C7 C 0.7743(3) 0.17080(12) 0.5156(2)
C8 C 0.7435(3) 0.27959(13) 0.6805(3)
H5 H 0.6403 0.2668 0.6557
H6 H 0.7841 0.2546 0.7602
C9 C 0.7584(3) 0.35849(13) 0.7015(2)
C10 C 0.6815(3) 0.40526(14) 0.6117(3)
H7 H 0.6180 0.3883 0.5386
C11 C 0.6998(3) 0.47695(15) 0.6315(3)
H8 H 0.6489 0.5090 0.5721
C12 C 0.7944(3) 0.50086(13) 0.7402(3)
H9 H 0.8086 0.5495 0.7514
C13 C 0.8473(3) 0.38704(12) 0.8103(2)
H10 H 0.8963 0.3561 0.8729
Cu1 Cu 0.5000 0.0000 0.5000
N1 N 0.6710(2) -0.05031(10) 0.37840(19)
N2 N 0.8667(2) 0.45687(10) 0.83029(19)
N3 N 0.6495(2) 0.07460(9) 0.49525(18)
N4 N 0.8459(2) 0.12347(10) 0.44900(18)
N5 N 0.6544(2) 0.14236(10) 0.54545(19)
N6 N 0.9785(2) 0.13322(11) 0.4012(2)
H11 H 0.9598 0.1579 0.3283
H12 H 1.0393 0.1586 0.4571
S1 S 0.84381(8) 0.25553(3) 0.55123(7)
C1B C 0.3215(3) 0.11414(14) 0.6744(3)
H1B H 0.3993 0.1456 0.6743
C2B C 0.2030(4) 0.13581(15) 0.7296(3)
H2B H 0.2018 0.1809 0.7657
C3B C 0.0877(3) 0.09019(15) 0.7305(3)
H3B H 0.0073 0.1038 0.7673
C4B C 0.0924(3) 0.02329(14) 0.6758(2)
H4B H 0.0153 -0.0086 0.6748
C5B C 0.2142(3) 0.00523(12) 0.6227(2)
C6B C 0.2360(3) -0.06304(12) 0.5614(2)
C7B C 0.2257(3) -0.17080(12) 0.4844(2)
C8B C 0.2565(3) -0.27959(13) 0.3195(3)
H5B H 0.3597 -0.2668 0.3443
H6B H 0.2159 -0.2546 0.2398
C9B C 0.2416(3) -0.35849(13) 0.2985(2)
C10B C 0.3185(3) -0.40526(14) 0.3883(3)
H7B H 0.3820 -0.3883 0.4614
C11B C 0.3002(3) -0.47695(15) 0.3685(3)
H8B H 0.3511 -0.5090 0.4279
C12B C 0.2056(3) -0.50086(13) 0.2598(3)
H9B H 0.1914 -0.5495 0.2486
C13B C 0.1527(3) -0.38704(12) 0.1897(2)
H10B H 0.1037 -0.3561 0.1271
N1B N 0.3290(2) 0.05031(10) 0.62160(19)
N2B N 0.1333(2) -0.45687(10) 0.16971(19)
N3B N 0.3505(2) -0.07460(9) 0.50475(18)
N4B N 0.1541(2) -0.12347(10) 0.55100(18)
N5B N 0.3456(2) -0.14236(10) 0.45455(19)
N6B N 0.0215(2) -0.13322(11) 0.5988(2)
H11B H 0.0402 -0.1579 0.6717
H12B H -0.0393 -0.1586 0.5429
S1B S 0.15619(8) -0.25553(3) 0.44877(7)
Cu1A Cu 0.0000 -0.5000 0.0000
Cu1A_2 Cu 1.0000 0.5000 1.0000
N2A N 0.6333(2) -0.04313(10) 0.66971(19)
N2C N 0.3667(2) 0.04313(10) 0.33029(19)
C14 C 0.1659(4) 0.37390(18) 0.5728(3)
F1 F 0.2387(3) 0.43340(11) 0.6109(2)
F2 F 0.0562(3) 0.38947(13) 0.4769(2)
F3 F 0.1062(2) 0.35197(13) 0.6731(2)
O1 O 0.3575(3) 0.34344(12) 0.4321(2)
O2 O 0.3847(3) 0.29250(13) 0.6491(2)
O3 O 0.1944(3) 0.24943(11) 0.4766(2)
S2 S 0.28897(9) 0.30750(4) 0.52649(7)
loop_
_geom_bond_atom_site_label_1
_geom_bond_atom_site_label_2
_geom_bond_site_symmetry_1
_geom_bond_site_symmetry_2
C1 H1 1_555 1_555
C2 C1 1_555 1_555
H2 C2 1_555 1_555
C3 C2 1_555 1_555
H3 C3 1_555 1_555
C4 C3 1_555 1_555
H4 C4 1_555 1_555
C5 C4 1_555 1_555
C6 C5 1_555 1_555
C7 N4 1_555 1_555
C8 H5 1_555 1_555
H6 C8 1_555 1_555
C9 C8 1_555 1_555
C10 C9 1_555 1_555
H7 C10 1_555 1_555
C11 C10 1_555 1_555
H8 C11 1_555 1_555
C12 C11 1_555 1_555
H9 C12 1_555 1_555
C13 C9 1_555 1_555
H10 C13 1_555 1_555
Cu1 N1 1_555 1_555
N1 C1 1_555 1_555
N2 C12 1_555 1_555
N3 C6 1_555 1_555
N4 C6 1_555 1_555
N5 C7 1_555 1_555
N6 N4 1_555 1_555
H11 N6 1_555 1_555
H12 N6 1_555 1_555
S1 C7 1_555 1_555
C14 F1 1_555 1_555
F2 C14 1_555 1_555
F3 C14 1_555 1_555
O1 S2 1_555 1_555
O2 S2 1_555 1_555
O3 S2 1_555 1_555
S2 C14 1_555 1_555
C1B H1B 1_555 1_555
C2B C1B 1_555 1_555
H2B C2B 1_555 1_555
C3B C2B 1_555 1_555
H3B C3B 1_555 1_555
C4B C3B 1_555 1_555
H4B C4B 1_555 1_555
C5B C4B 1_555 1_555
C6B C5B 1_555 1_555
C7B N4B 1_555 1_555
C8B H5B 1_555 1_555
H6B C8B 1_555 1_555
C9B C8B 1_555 1_555
C10B C9B 1_555 1_555
H7B C10B 1_555 1_555
C11B C10B 1_555 1_555
H8B C11B 1_555 1_555
C12B C11B 1_555 1_555
H9B C12B 1_555 1_555
C13B C9B 1_555 1_555
H10B C13B 1_555 1_555
N1B Cu1 1_555 1_555
N2B C12B 1_555 1_555
N3B Cu1 1_555 1_555
N4B C6B 1_555 1_555
N5B C7B 1_555 1_555
N6B N4B 1_555 1_555
H11B N6B 1_555 1_555
H12B N6B 1_555 1_555
S1B C7B 1_555 1_555
Cu1A N2B 1_555 1_555
Cu1A_2 N2 1_555 1_555
N2A Cu1 1_555 1_555
N2C Cu1 1_555 1_555
C5 N1 1_555 1_555
C8 S1 1_555 1_555
C13 N2 1_555 1_555
Cu1 N3 1_555 1_555
N3 N5 1_555 1_555
C1B N1B 1_555 1_555
C5B N1B 1_555 1_555
C6B N3B 1_555 1_555
C8B S1B 1_555 1_555
C13B N2B 1_555 1_555
N3B N5B 1_555 1_555

#END
