
#######################################################################
#
#                 Cambridge Crystallographic Data Centre
#                                CCDC 
#
#######################################################################
#
# If this CIF has been generated from an entry in the Cambridge 
# Structural Database, then it will include bibliographic, chemical, 
# crystal, experimental, refinement or atomic coordinate data resulting 
# from the CCDC's data processing and validation procedures.
#
#######################################################################

data_BIRLOF03
_symmetry_cell_setting           monoclinic
_symmetry_space_group_name_H-M   'P 21/n'
_symmetry_Int_Tables_number      14
_space_group_name_Hall           '-P 2yn'
loop_
_symmetry_equiv_pos_site_id
_symmetry_equiv_pos_as_xyz
1 x,y,z
2 1/2-x,1/2+y,1/2-z
3 -x,-y,-z
4 1/2+x,1/2-y,1/2+z
_cell_length_a                   9.2121(8)
_cell_length_b                   18.8386(13)
_cell_length_c                   10.4187(10)
_cell_angle_alpha                90
_cell_angle_beta                 100.408(9)
_cell_angle_gamma                90
_cell_volume                     1778.34
loop_
_atom_site_label
_atom_site_type_symbol
_atom_site_fract_x
_atom_site_fract_y
_atom_site_fract_z
C1 C 0.6777(5) -0.1143(2) 0.3253(4)
H1 H 0.5995 -0.1456 0.3245
C2 C 0.7976(6) -0.1358(2) 0.2705(4)
H2 H 0.7997 -0.1811 0.2355
C3 C 0.9117(5) -0.0902(2) 0.2685(4)
H3 H 0.9914 -0.1035 0.2305
C4 C 0.9072(5) -0.0233(2) 0.3244(4)
H4 H 0.9847 0.0085 0.3261
C5 C 0.7854(4) -0.0054(2) 0.3770(4)
C6 C 0.7634(4) 0.06296(19) 0.4382(4)
C7 C 0.7745(4) 0.1709(2) 0.5154(4)
C8 C 0.7434(5) 0.2793(2) 0.6799(4)
H5 H 0.6402 0.2665 0.6548
H6 H 0.7840 0.2543 0.7597
C9 C 0.7584(4) 0.3588(2) 0.7011(4)
C10 C 0.6824(5) 0.4052(2) 0.6115(4)
H7 H 0.6198 0.3882 0.5378
C11 C 0.6998(5) 0.4771(2) 0.6321(4)
H8 H 0.6479 0.5093 0.5733
C12 C 0.7946(5) 0.5006(2) 0.7401(4)
H9 H 0.8093 0.5492 0.7511
C13 C 0.8472(4) 0.3868(2) 0.8100(4)
H10 H 0.8960 0.3557 0.8726
Cu1 Cu 0.5000 0.0000 0.5000
N1 N 0.6710(4) -0.05040(17) 0.3787(3)
N2 N 0.8668(3) 0.45710(17) 0.8304(3)
N3 N 0.6494(3) 0.07439(16) 0.4949(3)
N4 N 0.8457(3) 0.12342(16) 0.4488(3)
N5 N 0.6547(3) 0.14255(16) 0.5452(3)
N6 N 0.9785(3) 0.13320(17) 0.4014(3)
H11 H 0.9598 0.1579 0.3285
H12 H 1.0393 0.1586 0.4573
S1 S 0.84362(13) 0.25558(6) 0.55132(12)
C1B C 0.3223(5) 0.1143(2) 0.6747(4)
H1B H 0.4005 0.1456 0.6755
C2B C 0.2024(6) 0.1358(2) 0.7295(4)
H2B H 0.2003 0.1811 0.7645
C3B C 0.0883(5) 0.0902(2) 0.7315(4)
H3B H 0.0086 0.1035 0.7695
C4B C 0.0928(5) 0.0233(2) 0.6756(4)
H4B H 0.0153 -0.0085 0.6739
C5B C 0.2146(4) 0.0054(2) 0.6230(4)
C6B C 0.2366(4) -0.06296(19) 0.5618(4)
C7B C 0.2255(4) -0.1709(2) 0.4846(4)
C8B C 0.2566(5) -0.2793(2) 0.3201(4)
H5B H 0.3598 -0.2665 0.3452
H6B H 0.2160 -0.2543 0.2403
C9B C 0.2416(4) -0.3588(2) 0.2989(4)
C10B C 0.3176(5) -0.4052(2) 0.3885(4)
H7B H 0.3802 -0.3882 0.4622
C11B C 0.3002(5) -0.4771(2) 0.3679(4)
H8B H 0.3521 -0.5093 0.4267
C12B C 0.2054(5) -0.5006(2) 0.2599(4)
H9B H 0.1907 -0.5492 0.2489
C13B C 0.1528(4) -0.3868(2) 0.1900(4)
H10B H 0.1040 -0.3557 0.1274
N1B N 0.3290(4) 0.05040(17) 0.6213(3)
N2B N 0.1332(3) -0.45710(17) 0.1696(3)
N3B N 0.3506(3) -0.07439(16) 0.5051(3)
N4B N 0.1543(3) -0.12342(16) 0.5512(3)
N5B N 0.3453(3) -0.14255(16) 0.4548(3)
N6B N 0.0215(3) -0.13320(17) 0.5986(3)
H11B H 0.0402 -0.1579 0.6715
H12B H -0.0393 -0.1586 0.5427
S1B S 0.15638(13) -0.25558(6) 0.44868(12)
Cu1A Cu 0.0000 -0.5000 0.0000
Cu1A_2 Cu 1.0000 0.5000 1.0000
N2A N 0.6332(3) -0.04290(17) 0.6696(3)
N2C N 0.3668(3) 0.04290(17) 0.3304(3)
C14 C 0.1659(6) 0.3732(3) 0.5732(6)
F1 F 0.2384(4) 0.43325(16) 0.6111(3)
F2 F 0.0559(4) 0.38976(19) 0.4769(4)
F3 F 0.1060(3) 0.35198(19) 0.6726(3)
O1 O 0.3573(4) 0.34359(19) 0.4324(3)
O2 O 0.3841(4) 0.2926(2) 0.6496(3)
O3 O 0.1935(4) 0.24971(17) 0.4763(3)
S2 S 0.28914(14) 0.30750(7) 0.52684(12)
loop_
_geom_bond_atom_site_label_1
_geom_bond_atom_site_label_2
_geom_bond_site_symmetry_1
_geom_bond_site_symmetry_2
C1 H1 1_555 1_555
C2 C1 1_555 1_555
H2 C2 1_555 1_555
C3 C2 1_555 1_555
H3 C3 1_555 1_555
C4 C3 1_555 1_555
H4 C4 1_555 1_555
C5 C4 1_555 1_555
C6 C5 1_555 1_555
C7 N4 1_555 1_555
C8 H5 1_555 1_555
H6 C8 1_555 1_555
C9 C8 1_555 1_555
C10 C9 1_555 1_555
H7 C10 1_555 1_555
C11 C10 1_555 1_555
H8 C11 1_555 1_555
C12 C11 1_555 1_555
H9 C12 1_555 1_555
C13 C9 1_555 1_555
H10 C13 1_555 1_555
Cu1 N1 1_555 1_555
N1 C1 1_555 1_555
N2 C12 1_555 1_555
N3 C6 1_555 1_555
N4 C6 1_555 1_555
N5 C7 1_555 1_555
N6 N4 1_555 1_555
H11 N6 1_555 1_555
H12 N6 1_555 1_555
S1 C7 1_555 1_555
C14 F1 1_555 1_555
F2 C14 1_555 1_555
F3 C14 1_555 1_555
O1 S2 1_555 1_555
O2 S2 1_555 1_555
O3 S2 1_555 1_555
S2 C14 1_555 1_555
C1B H1B 1_555 1_555
C2B C1B 1_555 1_555
H2B C2B 1_555 1_555
C3B C2B 1_555 1_555
H3B C3B 1_555 1_555
C4B C3B 1_555 1_555
H4B C4B 1_555 1_555
C5B C4B 1_555 1_555
C6B C5B 1_555 1_555
C7B N4B 1_555 1_555
C8B H5B 1_555 1_555
H6B C8B 1_555 1_555
C9B C8B 1_555 1_555
C10B C9B 1_555 1_555
H7B C10B 1_555 1_555
C11B C10B 1_555 1_555
H8B C11B 1_555 1_555
C12B C11B 1_555 1_555
H9B C12B 1_555 1_555
C13B C9B 1_555 1_555
H10B C13B 1_555 1_555
N1B Cu1 1_555 1_555
N2B C12B 1_555 1_555
N3B Cu1 1_555 1_555
N4B C6B 1_555 1_555
N5B C7B 1_555 1_555
N6B N4B 1_555 1_555
H11B N6B 1_555 1_555
H12B N6B 1_555 1_555
S1B C7B 1_555 1_555
Cu1A N2B 1_555 1_555
Cu1A_2 N2 1_555 1_555
N2A Cu1 1_555 1_555
N2C Cu1 1_555 1_555
C5 N1 1_555 1_555
C8 S1 1_555 1_555
C13 N2 1_555 1_555
Cu1 N3 1_555 1_555
N3 N5 1_555 1_555
C1B N1B 1_555 1_555
C5B N1B 1_555 1_555
C6B N3B 1_555 1_555
C8B S1B 1_555 1_555
C13B N2B 1_555 1_555
N3B N5B 1_555 1_555

#END
