
#######################################################################
#
#                 Cambridge Crystallographic Data Centre
#                                CCDC 
#
#######################################################################
#
# If this CIF has been generated from an entry in the Cambridge 
# Structural Database, then it will include bibliographic, chemical, 
# crystal, experimental, refinement or atomic coordinate data resulting 
# from the CCDC's data processing and validation procedures.
#
#######################################################################

data_BIRNEX
_symmetry_cell_setting           monoclinic
_symmetry_space_group_name_H-M   'P 21'
_symmetry_Int_Tables_number      4
_space_group_name_Hall           'P 2yb'
loop_
_symmetry_equiv_pos_site_id
_symmetry_equiv_pos_as_xyz
1 x,y,z
2 -x,1/2+y,-z
_cell_length_a                   11.595(2)
_cell_length_b                   13.960(3)
_cell_length_c                   12.667(2)
_cell_angle_alpha                90
_cell_angle_beta                 102.092(3)
_cell_angle_gamma                90
_cell_volume                     2004.87
loop_
_atom_site_label
_atom_site_type_symbol
_atom_site_fract_x
_atom_site_fract_y
_atom_site_fract_z
Mn1 Mn 0.50265(8) 0.35887(14) 0.74152(8)
N1 N -0.2361(5) 0.0256(5) 0.4840(5)
N2 N 0.2345(5) 0.1367(5) 0.6178(6)
O1 O 0.6153(4) 0.3235(5) 0.6345(4)
N3 N 1.2355(5) 0.6828(5) 1.0416(5)
N4 N 0.7620(5) 0.5761(6) 0.8885(6)
C1 C -0.1156(6) 0.0533(6) 0.5190(6)
O2 O 1.3818(4) 0.3931(5) -0.1570(4)
N5 N -0.3947(5) -0.0467(5) 0.3862(5)
C2 C 1.1164(6) 0.6522(6) 1.0026(6)
N6 N 1.3899(5) 0.7597(5) 1.1341(5)
C3 C 0.8833(6) 0.6045(6) 0.9265(6)
N7 N 0.6101(5) 0.4856(6) 0.8166(5)
C4 C 0.4274(7) 0.1427(9) 0.6454(9)
H1 H 0.5055 0.1250 0.6487
C5 C 1.2039(6) 0.3731(7) 0.0440(6)
H2 H 1.1308 0.3608 -0.0003
C6 C 1.0349(7) 0.6718(7) 1.0638(7)
H3 H 1.0578 0.7021 1.1303
C7 C -0.0338(7) 0.0209(7) 0.4630(7)
H4 H -0.0562 -0.0186 0.4031
C8 C 0.7029(7) 0.3071(7) 0.4837(6)
C9 C 0.5730(7) 0.5615(7) 0.8671(8)
H5 H 0.4948 0.5726 0.8705
N8 N 0.3898(6) 0.2286(6) 0.6779(6)
C10 C 0.1140(6) 0.1100(7) 0.5844(6)
C11 C 1.3006(6) 0.3877(6) -0.0018(6)
C12 C 0.8015(7) 0.3245(7) 0.4391(7)
H6 H 0.8684 0.3521 0.4817
C13 C 0.2738(7) 0.2237(7) 0.6603(7)
H7 H 0.2252 0.2728 0.6749
O3 O 1.1906(5) 0.3866(9) -0.1847(5)
C14 C -0.4200(7) -0.0073(8) 0.4763(8)
H8 H -0.4939 -0.0095 0.4939
C15 C 0.7256(7) 0.4995(7) 0.8302(7)
H9 H 0.7754 0.4595 0.8016
C16 C 0.0831(7) 0.0485(7) 0.4980(7)
H10 H 0.1405 0.0255 0.4631
C17 C 0.9172(7) 0.6460(8) 1.0255(7)
H11 H 0.8618 0.6571 1.0677
C18 C 1.4256(7) 0.6967(8) 1.0672(7)
H12 H 1.5036 0.6882 1.0614
C19 C 0.8014(8) 0.3015(8) 0.3330(7)
C20 C 0.9659(7) 0.5847(9) 0.8666(8)
H13 H 0.9429 0.5547 0.7999
C21 C 0.3316(8) 0.0881(8) 0.6076(9)
H14 H 0.3326 0.0268 0.5791
C22 C 0.0332(6) 0.1406(9) 0.6384(7)
H15 H 0.0558 0.1798 0.6985
C23 C 1.2741(7) 0.7488(7) 1.1170(7)
H16 H 1.2254 0.7830 1.1532
C24 C 0.6654(6) 0.6201(8) 0.9125(8)
H17 H 0.6627 0.6767 0.9507
C25 C 1.0838(7) 0.6088(8) 0.9042(7)
H18 H 1.1395 0.5956 0.8631
C26 C 1.2914(6) 0.3832(9) -0.1226(6)
C27 C 0.7019(7) 0.3413(8) 0.5958(7)
C28 C -0.0837(7) 0.1138(9) 0.6048(7)
H19 H -0.1403 0.1371 0.6405
C29 C 0.6019(7) 0.2655(8) 0.4203(7)
H20 H 0.5345 0.2572 0.4482
C30 C 1.2137(7) 0.3765(8) 0.1543(6)
C31 C 0.9062(8) 0.3207(7) 0.2859(6)
C32 C -0.2836(7) -0.0241(8) 0.3926(7)
H21 H -0.2416 -0.0404 0.3402
C33 C 1.1098(7) 0.3541(9) 0.2042(6)
C34 C 1.3324(7) 0.6470(7) 1.0093(8)
H22 H 1.3343 0.5991 0.9587
C35 C 0.9995(7) 0.3937(8) 0.1548(7)
H23 H 0.9947 0.4312 0.0933
C36 C -0.3254(7) 0.0351(8) 0.5370(9)
H24 H -0.3217 0.0654 0.6030
C37 C 0.8985(7) 0.3789(8) 0.1943(7)
C38 C 0.6994(9) 0.2580(10) 0.2735(8)
H25 H 0.6960 0.2421 0.2016
C39 C 1.0109(7) 0.2846(8) 0.3325(7)
H26 H 1.0144 0.2488 0.3950
C40 C 1.1173(8) 0.2955(8) 0.2957(7)
C41 C 1.4095(8) 0.4096(9) 0.0650(7)
H27 H 1.4750 0.4204 0.0350
C42 C 1.4195(9) 0.4151(11) 0.1722(8)
H28 H 1.4919 0.4294 0.2168
O4 O 0.7847(6) 0.3961(10) 0.6406(6)
C43 C 0.6027(9) 0.2378(11) 0.3195(9)
H29 H 0.5384 0.2048 0.2797
C44 C 1.3215(9) 0.3993(11) 0.2162(7)
H30 H 1.3292 0.4045 0.2906
C45 C 0.7852(8) 0.4278(10) 0.1356(8)
H31 H 0.8018 0.4671 0.0784
H32 H 0.7545 0.4670 0.1857
H33 H 0.7279 0.3800 0.1060
C46 C 1.2246(8) 0.2460(10) 0.3479(8)
H34 H 1.2683 0.2278 0.2945
H35 H 1.2045 0.1898 0.3838
H36 H 1.2719 0.2878 0.3997
Mn1_2 Mn 1.50265(8) 0.35887(14) -0.25848(8)
Mn1A Mn -0.50265(8) -0.14113(14) 0.25848(8)
Mn1A_2 Mn 1.49735(8) 0.85887(14) 1.25848(8)
O2_2 O 0.3818(4) 0.3931(5) 0.8430(4)
N5A N 0.3947(5) 0.4533(5) 0.6138(5)
N6A N 0.6101(5) 0.2597(5) 0.8659(5)
O5 O 0.9624(9) 0.3413(8) 0.7816(9)
H37 H 0.9132 0.3626 0.7294
H38 H 1.0317 0.3590 0.7807
loop_
_geom_bond_atom_site_label_1
_geom_bond_atom_site_label_2
_geom_bond_site_symmetry_1
_geom_bond_site_symmetry_2
Mn1 O1 1_555 1_555
N1 C1 1_555 1_555
N2 C10 1_555 1_555
O1 C27 1_555 1_555
N3 C2 1_555 1_555
N4 C3 1_555 1_555
C1 C7 1_555 1_555
O2 C26 1_555 1_555
N5 C14 1_555 1_555
C2 C6 1_555 1_555
N6 C18 1_555 1_555
C3 C17 1_555 1_555
N7 Mn1 1_555 1_555
C4 H1 1_555 1_555
C5 H2 1_555 1_555
C6 H3 1_555 1_555
C7 H4 1_555 1_555
C8 C12 1_555 1_555
C9 N7 1_555 1_555
H5 C9 1_555 1_555
N8 Mn1 1_555 1_555
C10 C16 1_555 1_555
C11 C5 1_555 1_555
C12 H6 1_555 1_555
C13 N2 1_555 1_555
H7 C13 1_555 1_555
O3 C26 1_555 1_555
C14 H8 1_555 1_555
C15 N4 1_555 1_555
H9 C15 1_555 1_555
C16 C7 1_555 1_555
H10 C16 1_555 1_555
C17 C6 1_555 1_555
H11 C17 1_555 1_555
C18 H12 1_555 1_555
C19 C12 1_555 1_555
C20 C3 1_555 1_555
H13 C20 1_555 1_555
C21 N2 1_555 1_555
H14 C21 1_555 1_555
C22 C10 1_555 1_555
H15 C22 1_555 1_555
C23 N3 1_555 1_555
H16 C23 1_555 1_555
C24 N4 1_555 1_555
H17 C24 1_555 1_555
C25 C2 1_555 1_555
H18 C25 1_555 1_555
C26 C11 1_555 1_555
C27 C8 1_555 1_555
C28 C1 1_555 1_555
H19 C28 1_555 1_555
C29 C8 1_555 1_555
H20 C29 1_555 1_555
C30 C5 1_555 1_555
C31 C19 1_555 1_555
C32 N1 1_555 1_555
H21 C32 1_555 1_555
C33 C30 1_555 1_555
C34 N3 1_555 1_555
H22 C34 1_555 1_555
C35 C33 1_555 1_555
H23 C35 1_555 1_555
C36 N1 1_555 1_555
H24 C36 1_555 1_555
C37 C31 1_555 1_555
C38 C19 1_555 1_555
H25 C38 1_555 1_555
C39 C31 1_555 1_555
H26 C39 1_555 1_555
C40 C33 1_555 1_555
C41 C11 1_555 1_555
H27 C41 1_555 1_555
C42 C41 1_555 1_555
H28 C42 1_555 1_555
O4 C27 1_555 1_555
C43 C29 1_555 1_555
H29 C43 1_555 1_555
C44 C30 1_555 1_555
H30 C44 1_555 1_555
C45 C37 1_555 1_555
H31 C45 1_555 1_555
H32 C45 1_555 1_555
H33 C45 1_555 1_555
C46 C40 1_555 1_555
H34 C46 1_555 1_555
H35 C46 1_555 1_555
H36 C46 1_555 1_555
O5 H37 1_555 1_555
H38 O5 1_555 1_555
Mn1_2 O2 1_555 1_555
Mn1A N5 1_555 1_555
Mn1A_2 N6 1_555 1_555
O2_2 Mn1 1_555 1_555
N5A Mn1 1_555 1_555
N6A Mn1 1_555 1_555
N5 C32 1_555 1_555
N6 C23 1_555 1_555
N7 C15 1_555 1_555
C4 N8 1_555 1_555
C4 C21 1_555 1_555
C9 C24 1_555 1_555
N8 C13 1_555 1_555
C14 C36 1_555 1_555
C18 C34 1_555 1_555
C20 C25 1_555 1_555
C22 C28 1_555 1_555
C35 C37 1_555 1_555
C38 C43 1_555 1_555
C39 C40 1_555 1_555
C42 C44 1_555 1_555

#END
