
#######################################################################
#
#                 Cambridge Crystallographic Data Centre
#                                CCDC 
#
#######################################################################
#
# If this CIF has been generated from an entry in the Cambridge 
# Structural Database, then it will include bibliographic, chemical, 
# crystal, experimental, refinement or atomic coordinate data resulting 
# from the CCDC's data processing and validation procedures.
#
#######################################################################

data_BIRNAT
_symmetry_cell_setting           triclinic
_symmetry_space_group_name_H-M   'P -1'
_symmetry_Int_Tables_number      2
_space_group_name_Hall           '-P 1'
loop_
_symmetry_equiv_pos_site_id
_symmetry_equiv_pos_as_xyz
1 x,y,z
2 -x,-y,-z
_cell_length_a                   10.551(3)
_cell_length_b                   12.280(3)
_cell_length_c                   14.417(4)
_cell_angle_alpha                82.256(5)
_cell_angle_beta                 88.642(5)
_cell_angle_gamma                79.904(4)
_cell_volume                     1822.26
loop_
_atom_site_label
_atom_site_type_symbol
_atom_site_fract_x
_atom_site_fract_y
_atom_site_fract_z
Cd1 Cd 0.59945(4) 0.40978(3) 0.41098(3)
O1 O 0.4841(4) 0.3970(3) 0.5580(3)
O2 O 0.4170(4) 0.4254(3) 0.6977(3)
N1 N -0.2141(5) 0.4044(4) -0.5074(3)
O3 O 0.6634(4) 0.2202(3) 0.4126(3)
N2 N 0.4131(4) 0.3768(4) 0.3503(3)
O4 O 0.7313(4) 0.3133(4) 0.2862(3)
C1 C 0.4907(5) 0.2004(4) 0.7709(4)
H1 H 0.4597 0.2507 0.8124
N3 N -0.0814(5) 0.3792(4) -0.3888(3)
N4 N 0.2799(5) 0.3462(4) 0.2445(3)
C2 C 0.5601(5) 0.0943(4) 0.9768(4)
C3 C 0.8309(5) 0.1090(5) 0.2137(4)
H2 H 0.8507 0.1742 0.1806
C4 C 0.7605(5) 0.1151(5) 0.2975(4)
C5 C 0.5021(5) 0.2394(4) 0.6763(4)
C6 C -0.2013(6) 0.4058(5) -0.4179(5)
H3 H -0.2705 0.4239 -0.3783
C7 C 0.5251(5) 0.0879(5) 0.8044(4)
C8 C 0.5649(6) 0.0154(5) 0.7397(4)
H4 H 0.5860 -0.0606 0.7604
C9 C 0.5742(6) 0.0516(5) 0.6471(4)
H5 H 0.5996 0.0001 0.6056
C10 C -0.0321(6) 0.3708(5) -0.2951(4)
C11 C 0.2248(6) 0.3451(5) 0.1544(4)
C12 C 0.1180(6) 0.3460(5) -0.0200(4)
C13 C 0.0866(6) 0.3962(5) -0.2836(4)
H6 H 0.1350 0.4189 -0.3350
C14 C 0.5134(5) 0.0463(4) 0.9064(4)
C15 C 0.3839(6) 0.3911(5) 0.2610(4)
H7 H 0.4295 0.4280 0.2145
C16 C 0.4637(5) 0.3625(4) 0.6414(4)
C17 C 0.4536(5) -0.0465(5) 0.9305(4)
H8 H 0.4214 -0.0779 0.8828
C18 C 0.0652(6) 0.3536(5) -0.1156(4)
C19 C 0.9402(5) 0.0044(4) 0.0870(4)
C20 C 0.0413(6) 0.3676(5) 0.0569(4)
H9 H -0.0477 0.3823 0.0497
C21 C 0.8842(5) -0.0335(5) 0.0138(4)
H10 H 0.8052 -0.0568 0.0241
C22 C 0.5465(6) 0.1634(5) 0.6139(4)
H11 H 0.5571 0.1882 0.5508
C23 C -0.0078(6) 0.3574(6) -0.4672(5)
H12 H 0.0810 0.3363 -0.4707
C24 C -0.0965(7) 0.3742(5) -0.5391(4)
H13 H -0.0761 0.3655 -0.6011
C25 C -0.1037(6) 0.3365(5) -0.2189(5)
H14 H -0.1843 0.3185 -0.2276
C26 C 1.0602(6) 0.0380(5) 0.0724(4)
C27 C 0.7175(6) 0.2233(5) 0.3333(5)
C28 C 0.0927(6) 0.3679(5) 0.1431(4)
H15 H 0.0392 0.3834 0.1936
C29 C 0.8718(5) 0.0079(5) 0.1788(4)
C30 C 0.3034(6) 0.3198(6) 0.0804(5)
H16 H 0.3921 0.3016 0.0883
C31 C -0.0551(6) 0.3289(5) -0.1296(4)
H17 H -0.1040 0.3069 -0.0782
C32 C 0.2487(6) 0.3216(6) -0.0060(4)
H18 H 0.3023 0.3058 -0.0564
C33 C 0.1335(6) 0.3874(5) -0.1936(4)
H19 H 0.2145 0.4049 -0.1855
C34 C 0.7331(6) 0.0177(5) 0.3463(4)
H20 H 0.6873 0.0192 0.4022
C35 C 0.3260(7) 0.3175(6) 0.3930(4)
H21 H 0.3238 0.2937 0.4570
C36 C 0.7742(7) -0.0834(5) 0.3117(5)
H22 H 0.7569 -0.1493 0.3454
C37 C 0.2418(6) 0.2976(5) 0.3291(5)
H23 H 0.1733 0.2592 0.3407
C38 C 0.8395(6) -0.0867(5) 0.2289(4)
H24 H 0.8628 -0.1547 0.2059
C39 C 1.1321(6) 0.0692(5) 0.1509(4)
H25 H 1.1304 0.0150 0.2053
H26 H 1.0920 0.1414 0.1652
H27 H 1.2197 0.0711 0.1322
C40 C 0.6335(6) 0.1898(5) 0.9602(4)
H28 H 0.6898 0.1806 0.9074
H29 H 0.6834 0.1910 1.0147
H30 H 0.5740 0.2588 0.9477
O1A O 0.5159(4) -0.3970(3) 1.4420(3)
O2A O 0.5830(4) -0.4254(3) 1.3023(3)
C1A C 0.5093(5) -0.2004(4) 1.2291(4)
H1A H 0.5403 -0.2507 1.1876
C2A C 0.4399(5) -0.0943(4) 1.0232(4)
C5A C 0.4979(5) -0.2394(4) 1.3237(4)
C7A C 0.4749(5) -0.0879(5) 1.1956(4)
C8A C 0.4351(6) -0.0154(5) 1.2603(4)
H4A H 0.4140 0.0606 1.2396
C9A C 0.4258(6) -0.0516(5) 1.3529(4)
H5A H 0.4004 -0.0001 1.3944
C14A C 0.4866(5) -0.0463(4) 1.0936(4)
C16A C 0.5363(5) -0.3625(4) 1.3586(4)
C17A C 0.5464(5) 0.0465(5) 1.0695(4)
H8A H 0.5786 0.0779 1.1172
C22A C 0.4535(6) -0.1634(5) 1.3861(4)
H11A H 0.4429 -0.1882 1.4492
C40A C 0.3665(6) -0.1898(5) 1.0398(4)
H28A H 0.3102 -0.1806 1.0926
H29A H 0.3166 -0.1910 0.9853
H30A H 0.4260 -0.2588 1.0523
O3A O 1.3366(4) -0.2202(3) -0.4126(3)
O4A O 1.2687(4) -0.3133(4) -0.2862(3)
C3A C 1.1691(5) -0.1090(5) -0.2137(4)
H2A H 1.1493 -0.1742 -0.1806
C4A C 1.2395(5) -0.1151(5) -0.2975(4)
C19A C 1.0598(5) -0.0044(4) -0.0870(4)
C21A C 1.1158(5) 0.0335(5) -0.0138(4)
H10A H 1.1948 0.0568 -0.0241
C26A C 0.9398(6) -0.0380(5) -0.0724(4)
C27A C 1.2825(6) -0.2233(5) -0.3333(5)
C29A C 1.1282(5) -0.0079(5) -0.1788(4)
C34A C 1.2669(6) -0.0177(5) -0.3463(4)
H20A H 1.3127 -0.0192 -0.4022
C36A C 1.2258(7) 0.0834(5) -0.3117(5)
H22A H 1.2431 0.1493 -0.3454
C38A C 1.1605(6) 0.0867(5) -0.2289(4)
H24A H 1.1372 0.1547 -0.2059
C39A C 0.8679(6) -0.0692(5) -0.1509(4)
H25A H 0.8696 -0.0150 -0.2053
H26A H 0.9080 -0.1414 -0.1652
H27A H 0.7803 -0.0711 -0.1322
Cd1A Cd 0.40055(4) -0.40978(3) 1.58902(3)
N1A N 1.2141(5) -0.4044(4) 2.5074(3)
N2A N 0.5869(4) -0.3768(4) 1.6497(3)
N3A N 1.0814(5) -0.3792(4) 2.3888(3)
N4A N 0.7201(5) -0.3462(4) 1.7555(3)
C6A C 1.2013(6) -0.4058(5) 2.4179(5)
H3A H 1.2705 -0.4239 2.3783
C10A C 1.0321(6) -0.3708(5) 2.2951(4)
C11A C 0.7752(6) -0.3451(5) 1.8456(4)
C12A C 0.8820(6) -0.3460(5) 2.0200(4)
C13A C 0.9134(6) -0.3962(5) 2.2836(4)
H6A H 0.8650 -0.4189 2.3350
C15A C 0.6161(6) -0.3911(5) 1.7390(4)
H7A H 0.5705 -0.4280 1.7855
C18A C 0.9348(6) -0.3536(5) 2.1156(4)
C20A C 0.9587(6) -0.3676(5) 1.9431(4)
H9A H 1.0477 -0.3823 1.9503
C23A C 1.0078(6) -0.3574(6) 2.4672(5)
H12A H 0.9190 -0.3363 2.4707
C24A C 1.0965(7) -0.3742(5) 2.5391(4)
H13A H 1.0761 -0.3655 2.6011
C25A C 1.1037(6) -0.3365(5) 2.2189(5)
H14A H 1.1843 -0.3185 2.2276
C28A C 0.9073(6) -0.3679(5) 1.8569(4)
H15A H 0.9608 -0.3834 1.8064
C30A C 0.6966(6) -0.3198(6) 1.9196(5)
H16A H 0.6079 -0.3016 1.9117
C31A C 1.0551(6) -0.3289(5) 2.1296(4)
H17A H 1.1040 -0.3069 2.0782
C32A C 0.7513(6) -0.3216(6) 2.0060(4)
H18A H 0.6977 -0.3058 2.0564
C33A C 0.8665(6) -0.3874(5) 2.1936(4)
H19A H 0.7855 -0.4049 2.1855
C35A C 0.6740(7) -0.3175(6) 1.6070(4)
H21A H 0.6762 -0.2937 1.5430
C37A C 0.7582(6) -0.2976(5) 1.6709(5)
H23A H 0.8267 -0.2592 1.6593
Cd1_2 Cd -0.40055(4) 0.40978(3) -0.58902(3)
Cd1_3 Cd 0.59945(4) -0.59022(3) 1.41098(3)
Cd1A_2 Cd 0.40055(4) 0.59022(3) 0.58902(3)
Cd1A_3 Cd 1.40055(4) -0.40978(3) -0.41098(3)
Cd1A_4 Cd 1.40055(4) -0.40978(3) 2.58902(3)
O1_2 O 0.4841(4) -0.6030(3) 1.5580(3)
O1A_2 O 0.5159(4) 0.6030(3) 0.4420(3)
O2_2 O 0.4170(4) -0.5746(3) 1.6977(3)
O2A_2 O 0.5830(4) 0.5746(3) 0.3023(3)
N1_2 N 0.7859(5) 0.4044(4) 0.4926(3)
N1A_2 N 0.2141(5) -0.4044(4) 1.5074(3)
O3A_2 O 0.3366(4) -0.2202(3) 1.5874(3)
O4A_2 O 0.2687(4) -0.3133(4) 1.7138(3)
loop_
_geom_bond_atom_site_label_1
_geom_bond_atom_site_label_2
_geom_bond_site_symmetry_1
_geom_bond_site_symmetry_2
Cd1 O1 1_555 1_555
O1 C16 1_555 1_555
O2 C16 1_555 1_555
N1 C6 1_555 1_555
O3 Cd1 1_555 1_555
N2 Cd1 1_555 1_555
O4 Cd1 1_555 1_555
C1 H1 1_555 1_555
N3 C6 1_555 1_555
N4 C11 1_555 1_555
C2 C14 1_555 1_555
C3 H2 1_555 1_555
C4 C3 1_555 1_555
C5 C1 1_555 1_555
C6 H3 1_555 1_555
C7 C1 1_555 1_555
C8 C7 1_555 1_555
H4 C8 1_555 1_555
C9 C8 1_555 1_555
H5 C9 1_555 1_555
C10 N3 1_555 1_555
C11 C28 1_555 1_555
C12 C18 1_555 1_555
C13 C10 1_555 1_555
H6 C13 1_555 1_555
C14 C7 1_555 1_555
C15 N2 1_555 1_555
H7 C15 1_555 1_555
C16 C5 1_555 1_555
C17 C14 1_555 1_555
H8 C17 1_555 1_555
C18 C31 1_555 1_555
C19 C21 1_555 1_555
C20 C12 1_555 1_555
H9 C20 1_555 1_555
C21 H10 1_555 1_555
C22 C5 1_555 1_555
H11 C22 1_555 1_555
C23 N3 1_555 1_555
H12 C23 1_555 1_555
C24 N1 1_555 1_555
H13 C24 1_555 1_555
C25 C10 1_555 1_555
H14 C25 1_555 1_555
C26 C19 1_555 1_555
C27 O3 1_555 1_555
C28 C20 1_555 1_555
H15 C28 1_555 1_555
C29 C3 1_555 1_555
C30 C11 1_555 1_555
H16 C30 1_555 1_555
C31 C25 1_555 1_555
H17 C31 1_555 1_555
C32 C12 1_555 1_555
H18 C32 1_555 1_555
C33 C13 1_555 1_555
H19 C33 1_555 1_555
C34 C4 1_555 1_555
H20 C34 1_555 1_555
C35 N2 1_555 1_555
H21 C35 1_555 1_555
C36 C34 1_555 1_555
H22 C36 1_555 1_555
C37 N4 1_555 1_555
H23 C37 1_555 1_555
C38 C29 1_555 1_555
H24 C38 1_555 1_555
C39 C26 1_555 1_555
H25 C39 1_555 1_555
H26 C39 1_555 1_555
H27 C39 1_555 1_555
C40 C2 1_555 1_555
H28 C40 1_555 1_555
H29 C40 1_555 1_555
H30 C40 1_555 1_555
O1A C16A 1_555 1_555
O2A C16A 1_555 1_555
C1A H1A 1_555 1_555
C2A C17 1_555 1_555
C5A C1A 1_555 1_555
C7A C1A 1_555 1_555
C8A C7A 1_555 1_555
H4A C8A 1_555 1_555
C9A C8A 1_555 1_555
H5A C9A 1_555 1_555
C14A C2A 1_555 1_555
C16A C5A 1_555 1_555
C17A C2 1_555 1_555
H8A C17A 1_555 1_555
C22A C5A 1_555 1_555
H11A C22A 1_555 1_555
C40A C2A 1_555 1_555
H28A C40A 1_555 1_555
H29A C40A 1_555 1_555
H30A C40A 1_555 1_555
O3A C27A 1_555 1_555
O4A C27A 1_555 1_555
C3A H2A 1_555 1_555
C4A C3A 1_555 1_555
C19A C21A 1_555 1_555
C21A C26 1_555 1_555
H10A C21A 1_555 1_555
C26A C21 1_555 1_555
C27A C4A 1_555 1_555
C29A C3A 1_555 1_555
C34A C4A 1_555 1_555
H20A C34A 1_555 1_555
C36A C34A 1_555 1_555
H22A C36A 1_555 1_555
C38A C29A 1_555 1_555
H24A C38A 1_555 1_555
C39A C26A 1_555 1_555
H25A C39A 1_555 1_555
H26A C39A 1_555 1_555
H27A C39A 1_555 1_555
Cd1A O1A 1_555 1_555
N1A C6A 1_555 1_555
N2A Cd1A 1_555 1_555
N3A C6A 1_555 1_555
N4A C11A 1_555 1_555
C6A H3A 1_555 1_555
C10A N3A 1_555 1_555
C11A C28A 1_555 1_555
C12A C18A 1_555 1_555
C13A C10A 1_555 1_555
H6A C13A 1_555 1_555
C15A N2A 1_555 1_555
H7A C15A 1_555 1_555
C18A C31A 1_555 1_555
C20A C12A 1_555 1_555
H9A C20A 1_555 1_555
C23A N3A 1_555 1_555
H12A C23A 1_555 1_555
C24A N1A 1_555 1_555
H13A C24A 1_555 1_555
C25A C10A 1_555 1_555
H14A C25A 1_555 1_555
C28A C20A 1_555 1_555
H15A C28A 1_555 1_555
C30A C11A 1_555 1_555
H16A C30A 1_555 1_555
C31A C25A 1_555 1_555
H17A C31A 1_555 1_555
C32A C12A 1_555 1_555
H18A C32A 1_555 1_555
C33A C13A 1_555 1_555
H19A C33A 1_555 1_555
C35A N2A 1_555 1_555
H21A C35A 1_555 1_555
C37A N4A 1_555 1_555
H23A C37A 1_555 1_555
Cd1_2 N1 1_555 1_555
Cd1_3 O1A 1_555 1_555
Cd1A_2 O1 1_555 1_555
Cd1A_3 O3A 1_555 1_555
Cd1A_4 N1A 1_555 1_555
O1_2 Cd1A 1_555 1_555
O1A_2 Cd1 1_555 1_555
O2_2 Cd1A 1_555 1_555
O2A_2 Cd1 1_555 1_555
N1_2 Cd1 1_555 1_555
N1A_2 Cd1A 1_555 1_555
O3A_2 Cd1A 1_555 1_555
O4A_2 Cd1A 1_555 1_555
O2 Cd1A_2 1_555 1_555
O4 C27 1_555 1_555
N4 C15 1_555 1_555
C4 C27 1_555 1_555
C9 C22 1_555 1_555
C18 C33 1_555 1_555
C19 C29 1_555 1_555
C23 C24 1_555 1_555
C30 C32 1_555 1_555
C35 C37 1_555 1_555
C36 C38 1_555 1_555
O2A Cd1_3 1_555 1_555
C7A C14A 1_555 1_555
C9A C22A 1_555 1_555
C14A C17A 1_555 1_555
O4A Cd1A_3 1_555 1_555
C19A C26A 1_555 1_555
C19A C29A 1_555 1_555
C36A C38A 1_555 1_555
N4A C15A 1_555 1_555
C18A C33A 1_555 1_555
C23A C24A 1_555 1_555
C30A C32A 1_555 1_555
C35A C37A 1_555 1_555
Cd1_3 O1_2 1_555 1_555
Cd1A_2 O1A_2 1_555 1_555

#END
