
#######################################################################
#
#                 Cambridge Crystallographic Data Centre
#                                CCDC 
#
#######################################################################
#
# If this CIF has been generated from an entry in the Cambridge 
# Structural Database, then it will include bibliographic, chemical, 
# crystal, experimental, refinement or atomic coordinate data resulting 
# from the CCDC's data processing and validation procedures.
#
#######################################################################

data_BISCUD
_symmetry_cell_setting           triclinic
_symmetry_space_group_name_H-M   'P 1'
_symmetry_Int_Tables_number      1
_space_group_name_Hall           'P 1'
loop_
_symmetry_equiv_pos_site_id
_symmetry_equiv_pos_as_xyz
1 x,y,z
_cell_length_a                   10.3574(2)
_cell_length_b                   14.2352(2)
_cell_length_c                   19.0283(3)
_cell_angle_alpha                93.0020(10)
_cell_angle_beta                 98.9740(10)
_cell_angle_gamma                107.7390(10)
_cell_volume                     2624.5
loop_
_atom_site_label
_atom_site_type_symbol
_atom_site_fract_x
_atom_site_fract_y
_atom_site_fract_z
Cl1 Cl 0.2714(4) 1.0308(2) 0.96606(19)
C1 C 0.1245(15) 0.9956(10) 0.9027(7)
Cl2 Cl -0.0006(4) 0.8890(3) 0.9267(2)
H1 H 0.1482 0.9795 0.8559
H2 H 0.0872 1.0519 0.8979
C2 C 0.8032(7) 0.4174(5) 0.6071(3)
C3 C 0.3141(6) 0.8924(4) 0.3136(3)
H3 H 0.3200 0.9083 0.3655
H4 H 0.4070 0.9248 0.3029
C4 C 0.2199(7) 0.9435(4) 0.2755(4)
C5 C 0.2375(7) 1.0427(5) 0.3212(4)
C6 C 0.1840(9) 1.1051(5) 0.2704(5)
H5 H 0.2588 1.1648 0.2638
H6 H 0.1104 1.1258 0.2877
C7 C 0.1278(9) 1.0358(5) 0.2015(4)
H7 H 0.1125 1.0693 0.1576
C8 C 0.0016(8) 0.9563(6) 0.2152(5)
H8 H -0.0519 0.9159 0.1701
H9 H -0.0588 0.9860 0.2378
C9 C 0.0617(7) 0.8921(5) 0.2669(4)
H10 H 0.0306 0.8938 0.3134
H11 H 0.0346 0.8224 0.2457
C10 C 0.2355(7) 0.9805(4) 0.2020(4)
C11 C 0.1933(10) 0.8983(6) 0.1399(4)
H12 H 0.2613 0.8628 0.1431
H13 H 0.1890 0.9275 0.0944
H14 H 0.1026 0.8518 0.1423
C12 C 0.3847(8) 1.0479(6) 0.1999(4)
H15 H 0.4475 1.0083 0.2052
H16 H 0.4140 1.1016 0.2391
H17 H 0.3864 1.0762 0.1540
C13 C -0.2000(7) 0.2156(5) 0.3470(4)
H18 H -0.2190 0.1906 0.2957
H19 H -0.0986 0.2432 0.3614
C14 C -0.2474(7) 0.1264(4) 0.3878(3)
C15 C -0.2784(7) 0.0276(5) 0.3413(4)
C16 C -0.2770(8) -0.0505(5) 0.3896(4)
H20 H -0.2048 -0.0807 0.3830
H21 H -0.3675 -0.1031 0.3821
C17 C -0.2440(7) 0.0094(4) 0.4646(3)
H22 H -0.2064 -0.0230 0.5047
C18 C -0.3748(7) 0.0345(5) 0.4746(4)
H23 H -0.3663 0.0643 0.5240
H24 H -0.4573 -0.0253 0.4639
C19 C -0.3822(6) 0.1113(4) 0.4189(3)
H25 H -0.4649 0.0844 0.3809
H26 H -0.3839 0.1744 0.4425
C20 C -0.1446(7) 0.1109(4) 0.4521(4)
C21 C -0.0111(7) 0.1053(5) 0.4312(5)
H27 H 0.0437 0.1711 0.4215
H28 H -0.0323 0.0584 0.3883
H29 H 0.0413 0.0827 0.4705
C22 C -0.1083(8) 0.1910(5) 0.5151(4)
H30 H -0.0498 0.1745 0.5550
H31 H -0.1930 0.1946 0.5302
H32 H -0.0587 0.2552 0.5006
C23 C 0.2750(7) 0.8391(5) 0.7000(3)
H33 H 0.2853 0.8909 0.7391
H34 H 0.3607 0.8590 0.6799
C24 C 0.1607(6) 0.8436(4) 0.6426(3)
C25 C 0.0620(7) 0.8921(5) 0.6684(4)
C26 C -0.0137(7) 0.9230(5) 0.6029(4)
H35 H 0.0026 0.9954 0.6072
H36 H -0.1141 0.8879 0.5952
C27 C 0.0514(7) 0.8912(5) 0.5430(3)
H37 H 0.0419 0.9257 0.4989
C28 C -0.0076(8) 0.7778(5) 0.5303(4)
H38 H 0.0185 0.7520 0.4871
H39 H -0.1093 0.7552 0.5249
C29 C 0.0598(7) 0.7446(5) 0.5990(3)
H40 H 0.1110 0.6993 0.5870
H41 H -0.0108 0.7104 0.6267
C30 C 0.2028(7) 0.9094(4) 0.5807(3)
C31 C 0.2812(8) 1.0179(5) 0.6070(4)
H42 H 0.3773 1.0249 0.6266
H43 H 0.2386 1.0403 0.6443
H44 H 0.2780 1.0582 0.5670
C32 C 0.2884(8) 0.8716(6) 0.5347(4)
H45 H 0.2943 0.9066 0.4917
H46 H 0.2446 0.8003 0.5207
H47 H 0.3813 0.8835 0.5621
C33 C -0.0990(7) 0.3393(4) 1.0011(3)
H48 H -0.0009 0.3566 0.9962
H49 H -0.1044 0.3847 1.0409
C34 C -0.1437(7) 0.2354(5) 1.0219(4)
C35 C -0.0862(8) 0.1625(5) 0.9849(4)
C36 C -0.1110(10) 0.0722(5) 1.0283(5)
H50 H -0.1815 0.0130 1.0005
H51 H -0.0248 0.0564 1.0435
C37 C -0.1620(8) 0.1081(5) 1.0925(4)
H52 H -0.1469 0.0741 1.1362
C38 C -0.3112(9) 0.1027(7) 1.0667(6)
H53 H -0.3550 0.1152 1.1073
H54 H -0.3655 0.0370 1.0406
C39 C -0.2990(8) 0.1857(6) 1.0163(5)
H55 H -0.3430 0.1576 0.9666
H56 H -0.3431 0.2339 1.0321
C40 C -0.0857(8) 0.2210(5) 1.1016(3)
C41 C 0.0711(8) 0.2532(6) 1.1193(5)
H57 H 0.1083 0.3254 1.1200
H58 H 0.1057 0.2212 1.0828
H59 H 0.1001 0.2337 1.1662
C42 C -0.1331(12) 0.2781(6) 1.1580(4)
H60 H -0.1010 0.2623 1.2058
H61 H -0.2340 0.2587 1.1487
H62 H -0.0945 0.3495 1.1553
C43 C -0.2558(6) 0.5752(4) 0.3856(3)
H63 H -0.2530 0.5225 0.4138
C44 C -0.2079(7) 0.6860(4) 0.3132(3)
H64 H -0.1632 0.7266 0.2804
C45 C -0.3236(6) 0.6908(4) 0.3359(3)
H65 H -0.3745 0.7343 0.3223
C46 C -0.1492(6) 0.7053(4) 0.7843(3)
H66 H -0.0677 0.7524 0.7754
C47 C -0.2880(7) 0.5765(5) 0.8154(4)
H67 H -0.3225 0.5149 0.8340
C48 C -0.3658(7) 0.6294(5) 0.7851(4)
H68 H -0.4634 0.6121 0.7781
C49 C -0.4666(6) 0.5975(4) 0.4221(3)
H69 H -0.5025 0.5248 0.4234
H70 H -0.5421 0.6190 0.3969
C50 C -0.4230(6) 0.6478(4) 0.4978(3)
C51 C -0.4286(6) 0.7419(4) 0.5153(3)
H71 H -0.4582 0.7780 0.4790
C52 C -0.3907(7) 0.7835(5) 0.5862(4)
H72 H -0.3942 0.8483 0.5976
C53 C -0.3489(6) 0.7339(4) 0.6399(3)
C54 C -0.3384(7) 0.6396(5) 0.6223(3)
H73 H -0.3073 0.6042 0.6587
C55 C -0.3738(7) 0.5988(4) 0.5516(3)
H74 H -0.3642 0.5359 0.5398
C56 C -0.3147(6) 0.7794(4) 0.7169(3)
H75 H -0.2377 0.8424 0.7221
H76 H -0.3957 0.7950 0.7295
C57 C 0.2677(7) 0.5024(4) 0.2646(3)
H77 H 0.2788 0.5567 0.2366
C58 C 0.1892(7) 0.3920(5) 0.3341(4)
H78 H 0.1329 0.3541 0.3642
C59 C 0.3052(6) 0.3773(4) 0.3172(3)
H79 H 0.3447 0.3283 0.3330
C60 C 0.1719(6) 0.3886(5) -0.1295(3)
H80 H 0.0862 0.3419 -0.1254
C61 C 0.3248(7) 0.5192(5) -0.1512(3)
H81 H 0.3663 0.5822 -0.1663
C62 C 0.3943(7) 0.4602(5) -0.1214(3)
H82 H 0.4914 0.4739 -0.1112
C63 C 0.4758(6) 0.4578(5) 0.2380(3)
H83 H 0.5339 0.4217 0.2633
H84 H 0.5313 0.5287 0.2422
C64 C 0.4340(6) 0.4175(4) 0.1602(3)
C65 C 0.4403(7) 0.3251(4) 0.1380(3)
H85 H 0.4684 0.2859 0.1724
C66 C 0.4062(7) 0.2891(5) 0.0662(4)
H86 H 0.4146 0.2267 0.0516
C67 C 0.3595(6) 0.3439(4) 0.0150(3)
C68 C 0.3533(7) 0.4375(4) 0.0382(3)
H87 H 0.3237 0.4770 0.0046
C69 C 0.3902(6) 0.4719(4) 0.1098(3)
H88 H 0.3852 0.5352 0.1247
C70 C 0.3236(7) 0.3029(5) -0.0632(3)
H89 H 0.4012 0.2836 -0.0768
H90 H 0.2415 0.2429 -0.0705
C71 C -0.0403(6) 0.6099(4) 0.1549(3)
H91 H 0.0462 0.6609 0.1628
C72 C -0.2124(6) 0.4879(4) 0.1701(3)
H92 H -0.2697 0.4359 0.1914
C73 C -0.2468(7) 0.5146(5) 0.1041(3)
H93 H -0.3304 0.4858 0.0709
C74 C -0.7541(6) 0.7369(4) -0.0601(3)
H94 H -0.7338 0.7752 -0.0988
C75 C -0.8443(6) 0.6203(4) 0.0011(3)
H95 H -0.9016 0.5600 0.0136
C76 C -0.7434(7) 0.6879(5) 0.0467(3)
H96 H -0.7164 0.6845 0.0964
C77 C -0.1338(7) 0.6558(5) 0.0363(4)
H97 H -0.1551 0.6138 -0.0098
H98 H -0.0408 0.7046 0.0401
C78 C -0.2375(6) 0.7098(5) 0.0370(3)
C79 C -0.2747(8) 0.7396(6) 0.0988(4)
H99 H -0.2308 0.7272 0.1434
C80 C -0.3717(8) 0.7862(6) 0.0985(4)
H100 H -0.3950 0.8055 0.1421
C81 C -0.4374(6) 0.8055(5) 0.0325(4)
C82 C -0.3979(8) 0.7799(5) -0.0289(4)
H101 H -0.4394 0.7943 -0.0734
C83 C -0.2978(7) 0.7331(5) -0.0275(3)
H102 H -0.2704 0.7169 -0.0708
C84 C -0.5556(6) 0.8459(5) 0.0294(4)
H103 H -0.5537 0.8783 0.0771
H104 H -0.5481 0.8961 -0.0051
C85 C 0.0573(6) 0.4793(4) 0.4852(3)
H105 H -0.0277 0.4269 0.4786
C86 C 0.2217(6) 0.6065(4) 0.4690(3)
H106 H 0.2742 0.6607 0.4476
C87 C 0.2649(6) 0.5779(4) 0.5334(3)
H107 H 0.3498 0.6080 0.5653
C88 C 0.8066(6) 0.3739(5) 0.7159(3)
H108 H 0.7843 0.3370 0.7550
C89 C 0.9040(6) 0.4857(5) 0.6535(3)
H109 H 0.9650 0.5444 0.6410
H110 H 0.7808 0.4188 0.5568
C90 C 0.1634(7) 0.4353(5) 0.6022(3)
H111 H 0.0736 0.3823 0.5970
H112 H 0.1770 0.4773 0.6476
C91 C 0.2770(6) 0.3888(4) 0.6057(3)
C92 C 0.3104(8) 0.3514(6) 0.5457(4)
H113 H 0.2612 0.3545 0.4998
C93 C 0.4166(8) 0.3085(6) 0.5514(4)
H114 H 0.4375 0.2822 0.5093
C94 C 0.4889(7) 0.3041(5) 0.6154(4)
C95 C 0.4495(9) 0.3361(7) 0.6769(4)
H115 H 0.4937 0.3283 0.7228
C96 C 0.3456(9) 0.3793(7) 0.6707(4)
H116 H 0.3216 0.4028 0.7128
C97 C 0.6098(7) 0.2650(5) 0.6225(4)
H117 H 0.5986 0.2144 0.6567
H118 H 0.6123 0.2329 0.5755
Cd1 Cd 0.00298(10) 0.54722(7) 0.32111(6)
Cd2 Cd 0.02425(10) 0.55714(7) 0.82732(6)
N1 N -0.1651(5) 0.6134(4) 0.3449(3)
N2 N -0.3525(5) 0.6204(3) 0.3822(3)
N3 N -0.1512(5) 0.6251(4) 0.8153(3)
N4 N -0.2764(5) 0.7133(4) 0.7663(3)
N5 N 0.1667(5) 0.4713(4) 0.3003(3)
N6 N 0.3536(5) 0.4474(3) 0.2726(3)
N7 N 0.1858(5) 0.4747(4) -0.1562(3)
N8 N 0.2952(5) 0.3767(4) -0.1090(3)
N9 N -0.0821(5) 0.5473(4) 0.2017(3)
N10 N -0.1336(5) 0.5931(4) 0.0955(3)
N11 N -0.8535(5) 0.6504(4) -0.0668(3)
N12 N -0.6860(5) 0.7639(4) 0.0071(3)
N13 N 0.0921(5) 0.5462(4) 0.4396(3)
N14 N 0.1595(5) 0.4964(4) 0.5420(3)
N15 N 0.9054(5) 0.4579(4) 0.7218(3)
N16 N 0.7393(5) 0.3453(4) 0.6474(3)
O1 O 0.1487(5) 0.7133(3) 0.3204(3)
O2 O 0.3956(5) 0.7465(3) 0.3476(2)
O3 O 0.2832(6) 0.7336(3) 0.2252(3)
O4 O 0.2763(6) 1.0600(4) 0.3851(3)
O5 O -0.1750(5) 0.3915(3) 0.3175(2)
O6 O -0.2516(5) 0.3480(3) 0.4288(2)
O7 O -0.4079(5) 0.2816(3) 0.3166(3)
O8 O -0.2983(6) 0.0144(4) 0.2768(3)
O9 O 0.1381(5) 0.6952(3) 0.7656(2)
O10 O 0.2791(6) 0.6557(4) 0.6862(2)
O11 O 0.3870(5) 0.7582(4) 0.7991(2)
O12 O 0.0478(6) 0.9060(4) 0.7301(3)
O13 O -0.1047(5) 0.4580(3) 0.9049(2)
O14 O -0.2078(6) 0.2825(4) 0.8651(3)
O15 O -0.3230(6) 0.3695(5) 0.9359(3)
O16 O -0.0267(6) 0.1750(4) 0.9354(3)
S1 S 0.28231(17) 0.76098(11) 0.29881(9)
S2 S -0.26627(18) 0.31643(12) 0.35377(9)
S3 S 0.26894(18) 0.72711(13) 0.74042(9)
S4 S -0.1940(2) 0.36301(13) 0.92004(10)
Cd2_2 Cd -0.97575(10) 0.55714(7) -0.17268(6)
Cd2_3 Cd 0.02425(10) 0.55714(7) -0.17268(6)
Cd2_4 Cd 1.02425(10) 0.55714(7) 0.82732(6)
N7_2 N 0.1858(5) 0.4747(4) 0.8438(3)
N11_2 N 0.1465(5) 0.6504(4) 0.9332(3)
N15_2 N -0.0946(5) 0.4579(4) 0.7218(3)
C98 C 0.9098(16) 0.1141(12) 0.7586(8)
H119 H 0.8851 0.1564 0.7937
H120 H 0.9255 0.0576 0.7827
Cl3 Cl 0.7691(4) 0.0676(2) 0.68667(16)
Cl4 Cl 1.0606(5) 0.1818(4) 0.7340(3)
C101 C 0.481(2) 1.0850(17) 0.8213(19)
C102 C 0.564(3) 1.1631(15) 0.7806(14)
O18 O 0.5551(19) 1.0134(12) 0.8414(10)
O20 O 0.776(2) 0.9643(17) 0.8673(13)
C99? C 0.4969(19) 1.1007(19) 0.815(2)
C100? C 0.364(2) 1.1247(19) 0.7952(16)
O17? O 0.475(2) 1.0119(14) 0.8543(11)
O19? O 0.685(2) 0.9673(18) 0.8404(14)
loop_
_geom_bond_atom_site_label_1
_geom_bond_atom_site_label_2
_geom_bond_site_symmetry_1
_geom_bond_site_symmetry_2
Cl1 C1 1_555 1_555
C1 Cl2 1_555 1_555
H1 C1 1_555 1_555
H2 C1 1_555 1_555
C2 C89 1_555 1_555
C3 H3 1_555 1_555
H4 C3 1_555 1_555
C4 C3 1_555 1_555
C5 C4 1_555 1_555
C6 C5 1_555 1_555
H5 C6 1_555 1_555
H6 C6 1_555 1_555
C7 C6 1_555 1_555
H7 C7 1_555 1_555
C8 C7 1_555 1_555
H8 C8 1_555 1_555
H9 C8 1_555 1_555
C9 C4 1_555 1_555
H10 C9 1_555 1_555
H11 C9 1_555 1_555
C10 C4 1_555 1_555
C11 C10 1_555 1_555
H12 C11 1_555 1_555
H13 C11 1_555 1_555
H14 C11 1_555 1_555
C12 C10 1_555 1_555
H15 C12 1_555 1_555
H16 C12 1_555 1_555
H17 C12 1_555 1_555
C13 H18 1_555 1_555
H19 C13 1_555 1_555
C14 C13 1_555 1_555
C15 C14 1_555 1_555
C16 C15 1_555 1_555
H20 C16 1_555 1_555
H21 C16 1_555 1_555
C17 C16 1_555 1_555
H22 C17 1_555 1_555
C18 C17 1_555 1_555
H23 C18 1_555 1_555
H24 C18 1_555 1_555
C19 C14 1_555 1_555
H25 C19 1_555 1_555
H26 C19 1_555 1_555
C20 C14 1_555 1_555
C21 C20 1_555 1_555
H27 C21 1_555 1_555
H28 C21 1_555 1_555
H29 C21 1_555 1_555
C22 C20 1_555 1_555
H30 C22 1_555 1_555
H31 C22 1_555 1_555
H32 C22 1_555 1_555
C23 H33 1_555 1_555
H34 C23 1_555 1_555
C24 C23 1_555 1_555
C25 C24 1_555 1_555
C26 C25 1_555 1_555
H35 C26 1_555 1_555
H36 C26 1_555 1_555
C27 C26 1_555 1_555
H37 C27 1_555 1_555
C28 C27 1_555 1_555
H38 C28 1_555 1_555
H39 C28 1_555 1_555
C29 C24 1_555 1_555
H40 C29 1_555 1_555
H41 C29 1_555 1_555
C30 C24 1_555 1_555
C31 C30 1_555 1_555
H42 C31 1_555 1_555
H43 C31 1_555 1_555
H44 C31 1_555 1_555
C32 C30 1_555 1_555
H45 C32 1_555 1_555
H46 C32 1_555 1_555
H47 C32 1_555 1_555
C33 H48 1_555 1_555
H49 C33 1_555 1_555
C34 C33 1_555 1_555
C35 C34 1_555 1_555
C36 C35 1_555 1_555
H50 C36 1_555 1_555
H51 C36 1_555 1_555
C37 C36 1_555 1_555
H52 C37 1_555 1_555
C38 C37 1_555 1_555
H53 C38 1_555 1_555
H54 C38 1_555 1_555
C39 C34 1_555 1_555
H55 C39 1_555 1_555
H56 C39 1_555 1_555
C40 C34 1_555 1_555
C41 C40 1_555 1_555
H57 C41 1_555 1_555
H58 C41 1_555 1_555
H59 C41 1_555 1_555
C42 C40 1_555 1_555
H60 C42 1_555 1_555
H61 C42 1_555 1_555
H62 C42 1_555 1_555
C43 H63 1_555 1_555
C44 H64 1_555 1_555
C45 C44 1_555 1_555
H65 C45 1_555 1_555
C46 H66 1_555 1_555
C47 H67 1_555 1_555
C48 C47 1_555 1_555
H68 C48 1_555 1_555
C49 H69 1_555 1_555
H70 C49 1_555 1_555
C50 C49 1_555 1_555
C51 C50 1_555 1_555
H71 C51 1_555 1_555
C52 C51 1_555 1_555
H72 C52 1_555 1_555
C53 C52 1_555 1_555
C54 C53 1_555 1_555
H73 C54 1_555 1_555
C55 C50 1_555 1_555
H74 C55 1_555 1_555
C56 C53 1_555 1_555
H75 C56 1_555 1_555
H76 C56 1_555 1_555
C57 H77 1_555 1_555
C58 H78 1_555 1_555
C59 C58 1_555 1_555
H79 C59 1_555 1_555
C60 H80 1_555 1_555
C61 H81 1_555 1_555
C62 C61 1_555 1_555
H82 C62 1_555 1_555
C63 H83 1_555 1_555
H84 C63 1_555 1_555
C64 C63 1_555 1_555
C65 C64 1_555 1_555
H85 C65 1_555 1_555
C66 C65 1_555 1_555
H86 C66 1_555 1_555
C67 C66 1_555 1_555
C68 C67 1_555 1_555
H87 C68 1_555 1_555
C69 C64 1_555 1_555
H88 C69 1_555 1_555
C70 C67 1_555 1_555
H89 C70 1_555 1_555
H90 C70 1_555 1_555
C71 H91 1_555 1_555
C72 H92 1_555 1_555
C73 C72 1_555 1_555
H93 C73 1_555 1_555
C74 H94 1_555 1_555
C75 H95 1_555 1_555
C76 C75 1_555 1_555
H96 C76 1_555 1_555
C77 H97 1_555 1_555
H98 C77 1_555 1_555
C78 C77 1_555 1_555
C79 C78 1_555 1_555
H99 C79 1_555 1_555
C80 C79 1_555 1_555
H100 C80 1_555 1_555
C81 C80 1_555 1_555
C82 C81 1_555 1_555
H101 C82 1_555 1_555
C83 C78 1_555 1_555
H102 C83 1_555 1_555
C84 C81 1_555 1_555
H103 C84 1_555 1_555
H104 C84 1_555 1_555
C85 H105 1_555 1_555
C86 H106 1_555 1_555
C87 C86 1_555 1_555
H107 C87 1_555 1_555
C88 H108 1_555 1_555
C89 H109 1_555 1_555
H110 C2 1_555 1_555
C90 H111 1_555 1_555
H112 C90 1_555 1_555
C91 C90 1_555 1_555
C92 C91 1_555 1_555
H113 C92 1_555 1_555
C93 C92 1_555 1_555
H114 C93 1_555 1_555
C94 C93 1_555 1_555
C95 C94 1_555 1_555
H115 C95 1_555 1_555
C96 C91 1_555 1_555
H116 C96 1_555 1_555
C97 C94 1_555 1_555
H117 C97 1_555 1_555
H118 C97 1_555 1_555
Cd1 N1 1_555 1_555
Cd2 N3 1_555 1_555
N1 C43 1_555 1_555
N2 C43 1_555 1_555
N3 C46 1_555 1_555
N4 C46 1_555 1_555
N5 C57 1_555 1_555
N6 C57 1_555 1_555
N7 C60 1_555 1_555
N8 C60 1_555 1_555
N9 C71 1_555 1_555
N10 C71 1_555 1_555
N11 C74 1_555 1_555
N12 C74 1_555 1_555
N13 C85 1_555 1_555
N14 C85 1_555 1_555
N15 C88 1_555 1_555
N16 C2 1_555 1_555
O1 Cd1 1_555 1_555
O2 S1 1_555 1_555
O3 S1 1_555 1_555
O4 C5 1_555 1_555
O5 Cd1 1_555 1_555
O6 S2 1_555 1_555
O7 S2 1_555 1_555
O8 C15 1_555 1_555
O9 Cd2 1_555 1_555
O10 S3 1_555 1_555
O11 S3 1_555 1_555
O12 C25 1_555 1_555
O13 Cd2 1_555 1_555
O14 S4 1_555 1_555
O15 S4 1_555 1_555
O16 C35 1_555 1_555
S1 C3 1_555 1_555
S2 C13 1_555 1_555
S3 C23 1_555 1_555
S4 C33 1_555 1_555
C98 H119 1_555 1_555
H120 C98 1_555 1_555
Cl3 C98 1_555 1_555
Cl4 C98 1_555 1_555
C101 C102 1_555 1_555
O18 C101 1_555 1_555
Cd2_2 N11 1_555 1_555
Cd2_3 N7 1_555 1_555
Cd2_4 N15 1_555 1_555
N7_2 Cd2 1_555 1_555
N11_2 Cd2 1_555 1_555
N15_2 Cd2 1_555 1_555
C7 C10 1_555 1_555
C8 C9 1_555 1_555
C17 C20 1_555 1_555
C18 C19 1_555 1_555
C27 C30 1_555 1_555
C28 C29 1_555 1_555
C37 C40 1_555 1_555
C38 C39 1_555 1_555
C44 N1 1_555 1_555
C45 N2 1_555 1_555
C47 N3 1_555 1_555
C48 N4 1_555 1_555
C49 N2 1_555 1_555
C54 C55 1_555 1_555
C56 N4 1_555 1_555
C58 N5 1_555 1_555
C59 N6 1_555 1_555
C61 N7 1_555 1_555
C62 N8 1_555 1_555
C63 N6 1_555 1_555
C68 C69 1_555 1_555
C70 N8 1_555 1_555
C72 N9 1_555 1_555
C73 N10 1_555 1_555
C75 N11 1_555 1_555
C76 N12 1_555 1_555
C77 N10 1_555 1_555
C82 C83 1_555 1_555
C84 N12 1_555 1_555
C86 N13 1_555 1_555
C87 N14 1_555 1_555
C88 N16 1_555 1_555
C89 N15 1_555 1_555
C90 N14 1_555 1_555
C95 C96 1_555 1_555
C97 N16 1_555 1_555
Cd1 N5 1_555 1_555
Cd1 N9 1_555 1_555
Cd1 N13 1_555 1_555
O1 S1 1_555 1_555
O5 S2 1_555 1_555
O9 S3 1_555 1_555
O13 S4 1_555 1_555

#END
