
#######################################################################
#
#                 Cambridge Crystallographic Data Centre
#                                CCDC 
#
#######################################################################
#
# If this CIF has been generated from an entry in the Cambridge 
# Structural Database, then it will include bibliographic, chemical, 
# crystal, experimental, refinement or atomic coordinate data resulting 
# from the CCDC's data processing and validation procedures.
#
#######################################################################

data_BISCUD01
_symmetry_cell_setting           triclinic
_symmetry_space_group_name_H-M   'P 1'
_symmetry_Int_Tables_number      1
_space_group_name_Hall           'P 1'
loop_
_symmetry_equiv_pos_site_id
_symmetry_equiv_pos_as_xyz
1 x,y,z
_cell_length_a                   10.3479(2)
_cell_length_b                   14.2287(2)
_cell_length_c                   19.0288(2)
_cell_angle_alpha                93.0720(10)
_cell_angle_beta                 98.9160(10)
_cell_angle_gamma                107.7140(10)
_cell_volume                     2621.51
loop_
_atom_site_label
_atom_site_type_symbol
_atom_site_fract_x
_atom_site_fract_y
_atom_site_fract_z
Cl1 Cl 0.7283(3) -0.0303(2) 0.03371(16)
C1 C 0.8768(13) 0.0071(8) 0.0983(6)
Cl2 Cl 1.0010(4) 0.1111(2) 0.0740(2)
H1 H 0.8541 0.0239 0.1435
H2 H 0.9150 -0.0485 0.1015
C2 C 0.1967(6) 0.5827(4) 0.3934(3)
C3 C 0.6854(6) 0.1088(4) 0.6869(3)
H3 H 0.5931 0.0767 0.6985
H4 H 0.6776 0.0922 0.6349
C4 C 0.7806(6) 0.0577(4) 0.7242(3)
C5 C 0.7637(6) -0.0417(4) 0.6790(3)
C6 C 0.8161(8) -0.1047(5) 0.7293(4)
H5 H 0.8894 -0.1259 0.7121
H6 H 0.7407 -0.1641 0.7360
C7 C 0.8736(7) -0.0338(5) 0.7990(4)
H7 H 0.8893 -0.0670 0.8431
C8 C 0.9991(7) 0.0447(6) 0.7848(4)
H8 H 1.0588 0.0145 0.7620
H9 H 1.0533 0.0852 0.8298
C9 C 0.9395(6) 0.1087(4) 0.7336(4)
H10 H 0.9712 0.1073 0.6871
H11 H 0.9666 0.1784 0.7550
C10 C 0.7648(6) 0.0206(4) 0.7984(3)
C11 C 0.8091(9) 0.1033(5) 0.8605(3)
H12 H 0.7420 0.1396 0.8574
H13 H 0.9002 0.1490 0.8577
H14 H 0.8133 0.0742 0.9059
C12 C 0.6169(8) -0.0468(5) 0.8002(4)
H15 H 0.5536 -0.0074 0.7950
H16 H 0.6151 -0.0754 0.8459
H17 H 0.5881 -0.1002 0.7608
C13 C 1.2002(7) 0.7864(4) 0.6535(3)
H18 H 1.0986 0.7590 0.6395
H19 H 1.2200 0.8120 0.7047
C14 C 1.2474(5) 0.8744(4) 0.6121(3)
C15 C 1.2782(6) 0.9734(4) 0.6589(3)
C16 C 1.2775(7) 1.0519(4) 0.6099(4)
H20 H 1.3683 1.1043 0.6173
H21 H 1.2054 1.0826 0.6162
C17 C 1.2446(6) 0.9914(4) 0.5356(3)
H22 H 1.2073 1.0236 0.4954
C18 C 1.3763(6) 0.9659(4) 0.5256(3)
H23 H 1.4590 1.0256 0.5365
H24 H 1.3680 0.9360 0.4763
C19 C 1.3829(6) 0.8894(4) 0.5811(3)
H25 H 1.3847 0.8262 0.5575
H26 H 1.4654 0.9162 0.6192
C20 C 1.1449(6) 0.8901(4) 0.5477(3)
C21 C 1.0112(6) 0.8957(5) 0.5690(4)
H27 H 0.9598 0.8311 0.5822
H28 H 0.9553 0.9134 0.5286
H29 H 1.0325 0.9462 0.6099
C22 C 1.1093(7) 0.8096(5) 0.4855(3)
H30 H 1.0568 0.8280 0.4441
H31 H 1.0537 0.7466 0.4992
H32 H 1.1944 0.8023 0.4731
C23 C 0.7243(6) 0.1612(4) 0.2996(3)
H33 H 0.6384 0.1413 0.3197
H34 H 0.7139 0.1094 0.2604
C24 C 0.8407(6) 0.1567(4) 0.3579(3)
C25 C 0.9375(6) 0.1083(4) 0.3313(3)
C26 C 1.0138(6) 0.0767(5) 0.3967(3)
H35 H 1.1143 0.1113 0.4043
H36 H 0.9967 0.0041 0.3923
C27 C 0.9484(6) 0.1094(4) 0.4570(3)
H37 H 0.9574 0.0751 0.5012
C28 C 1.0080(7) 0.2233(4) 0.4694(3)
H38 H 1.1097 0.2457 0.4746
H39 H 0.9822 0.2495 0.5126
C29 C 0.9405(6) 0.2565(4) 0.4008(3)
H40 H 1.0110 0.2908 0.3730
H41 H 0.8887 0.3015 0.4128
C30 C 0.7989(6) 0.0914(4) 0.4194(3)
C31 C 0.7190(7) -0.0173(4) 0.3929(3)
H42 H 0.6264 -0.0225 0.3680
H43 H 0.7119 -0.0565 0.4337
H44 H 0.7676 -0.0425 0.3598
C32 C 0.7128(7) 0.1300(5) 0.4657(3)
H45 H 0.7082 0.0960 0.5091
H46 H 0.6194 0.1169 0.4386
H47 H 0.7558 0.2015 0.4788
C33 C 1.0981(6) 0.6613(4) -0.0007(3)
H48 H 1.1034 0.6155 -0.0404
H49 H 1.0001 0.6442 0.0043
C34 C 1.1428(6) 0.7645(4) -0.0217(3)
C35 C 1.0872(7) 0.8393(4) 0.0158(3)
C36 C 1.1104(9) 0.9291(5) -0.0273(4)
H50 H 1.1807 0.9886 0.0003
H51 H 1.0237 0.9443 -0.0423
C37 C 1.1620(7) 0.8921(4) -0.0923(3)
H52 H 1.1468 0.9259 -0.1361
C38 C 1.3110(8) 0.8991(6) -0.0662(5)
H53 H 1.3637 0.9647 -0.0395
H54 H 1.3562 0.8877 -0.1066
C39 C 1.2989(7) 0.8156(5) -0.0166(4)
H55 H 1.3431 0.8434 0.0332
H56 H 1.3435 0.7680 -0.0329
C40 C 1.0867(7) 0.7799(4) -0.1013(3)
C41 C 0.9282(7) 0.7475(5) -0.1186(4)
H57 H 0.8909 0.6754 -0.1188
H58 H 0.8987 0.7662 -0.1658
H59 H 0.8941 0.7802 -0.0823
C42 C 1.1311(10) 0.7228(6) -0.1578(4)
H60 H 1.1051 0.7430 -0.2050
H61 H 1.0856 0.6515 -0.1579
H62 H 1.2314 0.7372 -0.1470
C43 C 1.2553(6) 0.4257(4) 0.6141(3)
H63 H 1.2519 0.4780 0.5856
C44 C 1.2073(6) 0.3143(4) 0.6864(3)
H64 H 1.1620 0.2732 0.7188
C45 C 1.3239(6) 0.3101(4) 0.6641(3)
H65 H 1.3750 0.2666 0.6778
C46 C 1.1487(6) 0.2946(4) 0.2155(3)
H66 H 1.0671 0.2471 0.2240
C47 C 1.2889(6) 0.4242(4) 0.1851(3)
H67 H 1.3234 0.4858 0.1666
C48 C 1.3663(6) 0.3718(4) 0.2151(3)
H68 H 1.4640 0.3895 0.2223
C49 C 1.4680(5) 0.4031(4) 0.5781(3)
H69 H 1.5430 0.3807 0.6029
H70 H 1.5049 0.4758 0.5770
C50 C 1.4222(5) 0.3528(4) 0.5023(3)
C51 C 1.4292(5) 0.2587(4) 0.4850(3)
H71 H 1.4593 0.2229 0.5214
C52 C 1.3920(6) 0.2168(4) 0.4140(3)
H72 H 1.3963 0.1521 0.4026
C53 C 1.3489(5) 0.2671(4) 0.3598(3)
C54 C 1.3388(6) 0.3608(4) 0.3778(3)
H73 H 1.3071 0.3961 0.3416
C55 C 1.3752(6) 0.4022(4) 0.4485(3)
H74 H 1.3677 0.4659 0.4601
C56 C 1.3157(6) 0.2212(4) 0.2828(3)
H75 H 1.3972 0.2062 0.2704
H76 H 1.2391 0.1579 0.2776
C57 C 0.7327(6) 0.4986(4) 0.7357(3)
H77 H 0.7217 0.4445 0.7638
C58 C 0.8112(6) 0.6092(4) 0.6661(3)
H78 H 0.8676 0.6473 0.6361
C59 C 0.6946(6) 0.6234(4) 0.6831(3)
H79 H 0.6549 0.6723 0.6673
C60 C 0.8274(6) 0.6120(4) 1.1297(3)
H80 H 0.9130 0.6587 1.1253
C61 C 0.6746(6) 0.4810(5) 1.1511(3)
H81 H 0.6326 0.4175 1.1654
C62 C 0.6057(6) 0.5412(4) 1.1219(3)
H82 H 0.5086 0.5282 1.1121
C63 C 0.5248(5) 0.5431(4) 0.7620(3)
H83 H 0.4695 0.4721 0.7579
H84 H 0.4664 0.5788 0.7365
C64 C 0.5656(5) 0.5838(4) 0.8400(3)
C65 C 0.5591(6) 0.6762(4) 0.8624(3)
H85 H 0.5309 0.7156 0.8282
C66 C 0.5939(6) 0.7117(4) 0.9347(3)
H86 H 0.5860 0.7742 0.9496
C67 C 0.6399(6) 0.6569(4) 0.9854(3)
C68 C 0.6475(6) 0.5638(4) 0.9622(3)
H87 H 0.6787 0.5249 0.9958
C69 C 0.6096(5) 0.5288(4) 0.8906(3)
H88 H 0.6139 0.4652 0.8756
C70 C 0.6761(6) 0.6974(4) 1.0635(3)
H89 H 0.7582 0.7574 1.0709
H90 H 0.5986 0.7170 1.0772
C71 C 1.0400(6) 0.3909(4) 0.8451(3)
H91 H 0.9533 0.3401 0.8371
C72 C 1.2123(6) 0.5136(4) 0.8302(3)
H92 H 1.2692 0.5661 0.8091
C73 C 1.2465(6) 0.4863(4) 0.8962(3)
H93 H 1.3302 0.5151 0.9293
C74 C 1.7547(6) 0.2642(4) 1.0604(3)
H94 H 1.7351 0.2259 1.0991
C75 C 1.8444(6) 0.3805(4) 0.9993(3)
H95 H 1.9024 0.4409 0.9872
C76 C 1.7428(6) 0.3128(4) 0.9532(3)
H96 H 1.7158 0.3163 0.9036
C77 C 1.1335(6) 0.3452(5) 0.9642(3)
H97 H 1.0403 0.2966 0.9603
H98 H 1.1549 0.3873 1.0103
C78 C 1.2365(6) 0.2910(4) 0.9633(3)
C79 C 1.2744(7) 0.2614(5) 0.9014(3)
H99 H 1.2311 0.2742 0.8568
C80 C 1.3715(7) 0.2145(6) 0.9018(3)
H100 H 1.3947 0.1952 0.8581
C81 C 1.4368(6) 0.1950(4) 0.9670(3)
C82 C 1.3964(6) 0.2207(4) 1.0294(3)
H101 H 1.4373 0.2059 1.0739
C83 C 1.2972(6) 0.2678(4) 1.0277(3)
H102 H 1.2703 0.2845 1.0710
C84 C 1.5556(6) 0.1548(4) 0.9703(3)
H103 H 1.5477 0.1045 1.0048
H104 H 1.5542 0.1226 0.9227
C85 C 0.9429(5) 0.5213(4) 0.5151(3)
H105 H 1.0279 0.5737 0.5216
C86 C 0.7779(5) 0.3935(4) 0.5307(3)
H106 H 0.7251 0.3388 0.5516
C87 C 0.7366(5) 0.4235(4) 0.4668(3)
H107 H 0.6518 0.3937 0.4347
C88 C 0.1941(6) 0.6278(4) 0.2846(3)
H108 H 0.2161 0.6653 0.2457
C89 C 0.0960(6) 0.5137(4) 0.3469(3)
H109 H 0.0354 0.4546 0.3593
H110 H 0.2191 0.5806 0.4435
C90 C 0.8379(6) 0.5649(4) 0.3981(3)
H111 H 0.8244 0.5228 0.3527
H112 H 0.9278 0.6179 0.4033
C91 C 0.7234(6) 0.6120(4) 0.3944(3)
C92 C 0.6898(7) 0.6484(5) 0.4549(3)
H113 H 0.7384 0.6442 0.5007
C93 C 0.5838(8) 0.6918(6) 0.4495(4)
H114 H 0.5626 0.7179 0.4917
C94 C 0.5113(6) 0.6971(4) 0.3845(3)
C95 C 0.5499(8) 0.6644(6) 0.3236(4)
H115 H 0.5044 0.6715 0.2778
C96 C 0.6546(8) 0.6213(6) 0.3288(4)
H116 H 0.6786 0.5981 0.2865
C97 C 0.3908(6) 0.7358(4) 0.3775(3)
H117 H 0.3883 0.7682 0.4244
H118 H 0.4018 0.7863 0.3431
Cd1 Cd 0.99726(3) 0.45381(2) 0.679140(17)
Cd2 Cd 0.97565(3) 0.44347(2) 0.172906(17)
N1 N 1.1649(5) 0.3873(3) 0.6549(2)
N2 N 1.3532(4) 0.3806(3) 0.6183(2)
N3 N 1.1512(5) 0.3751(3) 0.1850(2)
N4 N 1.2766(5) 0.2874(3) 0.2336(2)
N5 N 0.8340(5) 0.5296(3) 0.6999(2)
N6 N 0.6461(4) 0.5533(3) 0.7275(2)
N7 N 0.8141(5) 0.5260(3) 1.1568(2)
N8 N 0.7045(5) 0.6240(3) 1.1096(2)
N9 N 1.0822(4) 0.4532(3) 0.7985(2)
N10 N 1.1339(5) 0.4077(3) 0.9052(2)
N11 N 1.8520(5) 0.3495(3) 1.0667(2)
N12 N 1.6856(5) 0.2367(3) 0.9930(2)
N13 N 0.9087(4) 0.4548(3) 0.5606(2)
N14 N 0.8407(4) 0.5044(3) 0.4581(2)
N15 N 0.0945(5) 0.5424(3) 0.2784(2)
N16 N 0.2610(5) 0.6555(3) 0.3528(2)
O1 O 0.8516(4) 0.2877(3) 0.6798(2)
O2 O 0.6044(4) 0.2542(3) 0.6527(2)
O3 O 0.7169(5) 0.2673(3) 0.7752(2)
O4 O 0.7237(5) -0.0594(3) 0.6152(3)
O5 O 1.1770(4) 0.6098(3) 0.6831(2)
O6 O 1.2521(5) 0.6529(3) 0.5712(2)
O7 O 1.4084(4) 0.7191(3) 0.6838(2)
O8 O 1.3001(6) 0.9869(4) 0.7236(2)
O9 O 0.8625(4) 0.3053(3) 0.23428(19)
O10 O 0.7208(5) 0.3448(3) 0.3137(2)
O11 O 0.6133(4) 0.2432(3) 0.2013(2)
O12 O 0.9530(5) 0.0948(3) 0.2697(2)
O13 O 1.1049(4) 0.5426(3) 0.0951(2)
O14 O 1.2070(5) 0.7182(3) 0.1351(2)
O15 O 1.3232(5) 0.6317(4) 0.0642(3)
O16 O 1.0275(6) 0.8265(4) 0.0653(2)
S1 S 0.71786(12) 0.23992(8) 0.70126(6)
S2 S 1.26692(13) 0.68453(9) 0.64655(7)
S3 S 0.73113(14) 0.27349(10) 0.25974(7)
S4 S 1.19338(15) 0.63824(10) 0.08037(7)
Cd2_2 Cd -0.02435(3) 0.44347(2) 0.172906(17)
Cd2_3 Cd 0.97565(3) 0.44347(2) 1.172906(17)
Cd2_4 Cd 1.97565(3) 0.44347(2) 1.172906(17)
N7_2 N 0.8141(5) 0.5260(3) 0.1568(2)
N11_2 N 0.8520(5) 0.3495(3) 0.0667(2)
N15_2 N 1.0945(5) 0.5424(3) 0.2784(2)
C98 C 0.0925(13) 0.8893(9) 0.2408(6)
H119 H 0.0767 0.9468 0.2180
H120 H 0.1175 0.8483 0.2049
Cl3 Cl 0.2314(3) 0.93299(19) 0.31374(13)
Cl4 Cl -0.0592(4) 0.8195(3) 0.2659(2)
C99 C 0.4912(12) 0.8963(10) 0.1878(9)
C100 C 0.6286(11) 0.8807(7) 0.2026(5)
O17 O 0.4920(17) 0.9879(10) 0.1556(9)
O20 O 0.294(2) 1.0512(16) 0.1402(12)
C101? C 0.341(4) 1.026(4) 0.1910(16)
C102? C 0.206(3) 1.007(4) 0.140(3)
O18? O 0.439(2) 0.9931(17) 0.1560(14)
O19? O 0.442(2) 0.8386(15) 0.2190(10)
loop_
_geom_bond_atom_site_label_1
_geom_bond_atom_site_label_2
_geom_bond_site_symmetry_1
_geom_bond_site_symmetry_2
Cl1 C1 1_555 1_555
C1 Cl2 1_555 1_555
H1 C1 1_555 1_555
H2 C1 1_555 1_555
C2 C89 1_555 1_555
C3 H3 1_555 1_555
H4 C3 1_555 1_555
C4 C3 1_555 1_555
C5 C4 1_555 1_555
C6 C5 1_555 1_555
H5 C6 1_555 1_555
H6 C6 1_555 1_555
C7 C6 1_555 1_555
H7 C7 1_555 1_555
C8 C7 1_555 1_555
H8 C8 1_555 1_555
H9 C8 1_555 1_555
C9 C4 1_555 1_555
H10 C9 1_555 1_555
H11 C9 1_555 1_555
C10 C4 1_555 1_555
C11 C10 1_555 1_555
H12 C11 1_555 1_555
H13 C11 1_555 1_555
H14 C11 1_555 1_555
C12 C10 1_555 1_555
H15 C12 1_555 1_555
H16 C12 1_555 1_555
H17 C12 1_555 1_555
C13 H18 1_555 1_555
H19 C13 1_555 1_555
C14 C13 1_555 1_555
C15 C14 1_555 1_555
C16 C15 1_555 1_555
H20 C16 1_555 1_555
H21 C16 1_555 1_555
C17 C16 1_555 1_555
H22 C17 1_555 1_555
C18 C17 1_555 1_555
H23 C18 1_555 1_555
H24 C18 1_555 1_555
C19 C14 1_555 1_555
H25 C19 1_555 1_555
H26 C19 1_555 1_555
C20 C14 1_555 1_555
C21 C20 1_555 1_555
H27 C21 1_555 1_555
H28 C21 1_555 1_555
H29 C21 1_555 1_555
C22 C20 1_555 1_555
H30 C22 1_555 1_555
H31 C22 1_555 1_555
H32 C22 1_555 1_555
C23 H33 1_555 1_555
H34 C23 1_555 1_555
C24 C23 1_555 1_555
C25 C24 1_555 1_555
C26 C25 1_555 1_555
H35 C26 1_555 1_555
H36 C26 1_555 1_555
C27 C26 1_555 1_555
H37 C27 1_555 1_555
C28 C27 1_555 1_555
H38 C28 1_555 1_555
H39 C28 1_555 1_555
C29 C24 1_555 1_555
H40 C29 1_555 1_555
H41 C29 1_555 1_555
C30 C24 1_555 1_555
C31 C30 1_555 1_555
H42 C31 1_555 1_555
H43 C31 1_555 1_555
H44 C31 1_555 1_555
C32 C30 1_555 1_555
H45 C32 1_555 1_555
H46 C32 1_555 1_555
H47 C32 1_555 1_555
C33 H48 1_555 1_555
H49 C33 1_555 1_555
C34 C33 1_555 1_555
C35 C34 1_555 1_555
C36 C35 1_555 1_555
H50 C36 1_555 1_555
H51 C36 1_555 1_555
C37 C36 1_555 1_555
H52 C37 1_555 1_555
C38 C37 1_555 1_555
H53 C38 1_555 1_555
H54 C38 1_555 1_555
C39 C34 1_555 1_555
H55 C39 1_555 1_555
H56 C39 1_555 1_555
C40 C34 1_555 1_555
C41 C40 1_555 1_555
H57 C41 1_555 1_555
H58 C41 1_555 1_555
H59 C41 1_555 1_555
C42 C40 1_555 1_555
H60 C42 1_555 1_555
H61 C42 1_555 1_555
H62 C42 1_555 1_555
C43 H63 1_555 1_555
C44 H64 1_555 1_555
C45 C44 1_555 1_555
H65 C45 1_555 1_555
C46 H66 1_555 1_555
C47 H67 1_555 1_555
C48 C47 1_555 1_555
H68 C48 1_555 1_555
C49 H69 1_555 1_555
H70 C49 1_555 1_555
C50 C49 1_555 1_555
C51 C50 1_555 1_555
H71 C51 1_555 1_555
C52 C51 1_555 1_555
H72 C52 1_555 1_555
C53 C52 1_555 1_555
C54 C53 1_555 1_555
H73 C54 1_555 1_555
C55 C50 1_555 1_555
H74 C55 1_555 1_555
C56 C53 1_555 1_555
H75 C56 1_555 1_555
H76 C56 1_555 1_555
C57 H77 1_555 1_555
C58 H78 1_555 1_555
C59 C58 1_555 1_555
H79 C59 1_555 1_555
C60 H80 1_555 1_555
C61 H81 1_555 1_555
C62 C61 1_555 1_555
H82 C62 1_555 1_555
C63 H83 1_555 1_555
H84 C63 1_555 1_555
C64 C63 1_555 1_555
C65 C64 1_555 1_555
H85 C65 1_555 1_555
C66 C65 1_555 1_555
H86 C66 1_555 1_555
C67 C66 1_555 1_555
C68 C67 1_555 1_555
H87 C68 1_555 1_555
C69 C64 1_555 1_555
H88 C69 1_555 1_555
C70 C67 1_555 1_555
H89 C70 1_555 1_555
H90 C70 1_555 1_555
C71 H91 1_555 1_555
C72 H92 1_555 1_555
C73 C72 1_555 1_555
H93 C73 1_555 1_555
C74 H94 1_555 1_555
C75 H95 1_555 1_555
C76 C75 1_555 1_555
H96 C76 1_555 1_555
C77 H97 1_555 1_555
H98 C77 1_555 1_555
C78 C77 1_555 1_555
C79 C78 1_555 1_555
H99 C79 1_555 1_555
C80 C79 1_555 1_555
H100 C80 1_555 1_555
C81 C80 1_555 1_555
C82 C81 1_555 1_555
H101 C82 1_555 1_555
C83 C78 1_555 1_555
H102 C83 1_555 1_555
C84 C81 1_555 1_555
H103 C84 1_555 1_555
H104 C84 1_555 1_555
C85 H105 1_555 1_555
C86 H106 1_555 1_555
C87 C86 1_555 1_555
H107 C87 1_555 1_555
C88 H108 1_555 1_555
C89 H109 1_555 1_555
H110 C2 1_555 1_555
C90 H111 1_555 1_555
H112 C90 1_555 1_555
C91 C90 1_555 1_555
C92 C91 1_555 1_555
H113 C92 1_555 1_555
C93 C92 1_555 1_555
H114 C93 1_555 1_555
C94 C93 1_555 1_555
C95 C94 1_555 1_555
H115 C95 1_555 1_555
C96 C91 1_555 1_555
H116 C96 1_555 1_555
C97 C94 1_555 1_555
H117 C97 1_555 1_555
H118 C97 1_555 1_555
Cd1 N1 1_555 1_555
Cd2 N3 1_555 1_555
N1 C43 1_555 1_555
N2 C43 1_555 1_555
N3 C46 1_555 1_555
N4 C46 1_555 1_555
N5 C57 1_555 1_555
N6 C57 1_555 1_555
N7 C60 1_555 1_555
N8 C60 1_555 1_555
N9 C71 1_555 1_555
N10 C71 1_555 1_555
N11 C74 1_555 1_555
N12 C74 1_555 1_555
N13 C85 1_555 1_555
N14 C85 1_555 1_555
N15 C88 1_555 1_555
N16 C2 1_555 1_555
O1 Cd1 1_555 1_555
O2 S1 1_555 1_555
O3 S1 1_555 1_555
O4 C5 1_555 1_555
O5 Cd1 1_555 1_555
O6 S2 1_555 1_555
O7 S2 1_555 1_555
O8 C15 1_555 1_555
O9 Cd2 1_555 1_555
O10 S3 1_555 1_555
O11 S3 1_555 1_555
O12 C25 1_555 1_555
O13 Cd2 1_555 1_555
O14 S4 1_555 1_555
O15 S4 1_555 1_555
O16 C35 1_555 1_555
S1 C3 1_555 1_555
S2 C13 1_555 1_555
S3 C23 1_555 1_555
S4 C33 1_555 1_555
C98 H119 1_555 1_555
H120 C98 1_555 1_555
Cl3 C98 1_555 1_555
Cl4 C98 1_555 1_555
C99 C100 1_555 1_555
O17 C99 1_555 1_555
Cd2_2 N15 1_555 1_555
Cd2_3 N7 1_555 1_555
Cd2_4 N11 1_555 1_555
N7_2 Cd2 1_555 1_555
N11_2 Cd2 1_555 1_555
N15_2 Cd2 1_555 1_555
C7 C10 1_555 1_555
C8 C9 1_555 1_555
C17 C20 1_555 1_555
C18 C19 1_555 1_555
C27 C30 1_555 1_555
C28 C29 1_555 1_555
C37 C40 1_555 1_555
C38 C39 1_555 1_555
C44 N1 1_555 1_555
C45 N2 1_555 1_555
C47 N3 1_555 1_555
C48 N4 1_555 1_555
C49 N2 1_555 1_555
C54 C55 1_555 1_555
C56 N4 1_555 1_555
C58 N5 1_555 1_555
C59 N6 1_555 1_555
C61 N7 1_555 1_555
C62 N8 1_555 1_555
C63 N6 1_555 1_555
C68 C69 1_555 1_555
C70 N8 1_555 1_555
C72 N9 1_555 1_555
C73 N10 1_555 1_555
C75 N11 1_555 1_555
C76 N12 1_555 1_555
C77 N10 1_555 1_555
C82 C83 1_555 1_555
C84 N12 1_555 1_555
C86 N13 1_555 1_555
C87 N14 1_555 1_555
C88 N16 1_555 1_555
C89 N15 1_555 1_555
C90 N14 1_555 1_555
C95 C96 1_555 1_555
C97 N16 1_555 1_555
Cd1 N5 1_555 1_555
Cd1 N9 1_555 1_555
Cd1 N13 1_555 1_555
O1 S1 1_555 1_555
O5 S2 1_555 1_555
O9 S3 1_555 1_555
O13 S4 1_555 1_555

#END
