
#######################################################################
#
#                 Cambridge Crystallographic Data Centre
#                                CCDC 
#
#######################################################################
#
# If this CIF has been generated from an entry in the Cambridge 
# Structural Database, then it will include bibliographic, chemical, 
# crystal, experimental, refinement or atomic coordinate data resulting 
# from the CCDC's data processing and validation procedures.
#
#######################################################################

data_BISPAU
_symmetry_cell_setting           monoclinic
_symmetry_space_group_name_H-M   'P 21/c'
_symmetry_Int_Tables_number      14
_space_group_name_Hall           '-P 2ybc'
loop_
_symmetry_equiv_pos_site_id
_symmetry_equiv_pos_as_xyz
1 x,y,z
2 -x,1/2+y,1/2-z
3 -x,-y,-z
4 x,1/2-y,1/2+z
_cell_length_a                   10.030(2)
_cell_length_b                   12.115(3)
_cell_length_c                   19.912(8)
_cell_angle_alpha                90
_cell_angle_beta                 94.10(5)
_cell_angle_gamma                90
_cell_volume                     2413.38
loop_
_atom_site_label
_atom_site_type_symbol
_atom_site_fract_x
_atom_site_fract_y
_atom_site_fract_z
Zn1 Zn 0.30090 0.44190 0.34430
N1 N 0.49270 0.47300 0.33080
N2 N 0.56020 0.55380 0.36450
N3 N 0.68800 0.55150 0.35030
C1 C 0.70510 0.46600 0.30580
C2 C 0.57990 0.41680 0.29360
C3 C 0.56360 0.32530 0.25080
C4 C 0.67440 0.28860 0.22090
C5 C 0.79920 0.33870 0.23410
C6 C 0.81780 0.42650 0.27610
H1 H 0.47800 0.29900 0.24400
H2 H 0.66000 0.23300 0.19100
H3 H 0.87100 0.31300 0.21100
H4 H 0.90700 0.46000 0.28600
Zn2 Zn 0.81220 0.66190 0.39370
N4 N 0.19640 0.56220 0.38490
N5 N 0.06470 0.56240 0.36990
N6 N 0.00370 0.61660 0.41740
C7 C 0.09950 0.65070 0.46560
C8 C 0.22210 0.61690 0.44440
C9 C 0.34250 0.63980 0.48260
C10 C 0.33200 0.69620 0.54120
C11 C 0.20880 0.72700 0.56370
C12 C 0.09070 0.70680 0.52680
H5 H 0.42200 0.61700 0.46900
H6 H 0.41100 0.70600 0.56800
H7 H 0.21300 0.77100 0.60100
H8 H 0.00400 0.72500 0.54100
N7 N 0.29000 0.32570 0.41570
N8 N 0.25690 0.36520 0.47480
N9 N 0.25960 0.28450 0.52030
C13 C 0.29660 0.18860 0.49000
C14 C 0.31550 0.21530 0.42320
C15 C 0.35210 0.13550 0.37690
C16 C 0.36740 0.02970 0.40080
C17 C 0.34870 0.00250 0.46840
C18 C 0.31520 0.08010 0.51410
H9 H 0.36400 0.14800 0.33200
H10 H 0.39200 -0.02700 0.37300
H11 H 0.36400 -0.07100 0.48400
H12 H 0.31700 0.06500 0.56300
N10 N 0.21350 0.39840 0.25510
N11 N 0.23160 0.29790 0.22900
N12 N 0.16880 0.29190 0.16790
C19 C 0.10690 0.39140 0.15370
C20 C 0.13750 0.45950 0.20890
C21 C 0.08890 0.56770 0.21070
C22 C 0.01020 0.60290 0.15590
C23 C -0.02020 0.53300 0.10020
C24 C 0.02610 0.42740 0.09730
H13 H 0.10100 0.61400 0.25300
H14 H -0.03500 0.67500 0.15500
H15 H -0.08000 0.56300 0.06400
H16 H 0.00500 0.37300 0.05800
N6_2 N 1.00370 0.61660 0.41740
N9B N 0.74040 0.71550 0.47970
N12A N 0.83120 0.79190 0.33210
Zn2A Zn 0.18780 0.16190 0.10630
Zn2B Zn 0.18780 0.33810 0.60630
Zn2_2 Zn -0.18780 0.66190 0.39370
loop_
_geom_bond_atom_site_label_1
_geom_bond_atom_site_label_2
_geom_bond_site_symmetry_1
_geom_bond_site_symmetry_2
Zn1 N1 1_555 1_555
N1 N2 1_555 1_555
N2 N3 1_555 1_555
N3 C1 1_555 1_555
C1 C2 1_555 1_555
C2 N1 1_555 1_555
C3 C2 1_555 1_555
C4 C3 1_555 1_555
C5 C4 1_555 1_555
C6 C1 1_555 1_555
H1 C3 1_555 1_555
H2 C4 1_555 1_555
H3 C5 1_555 1_555
H4 C6 1_555 1_555
Zn2 N3 1_555 1_555
N4 Zn1 1_555 1_555
N5 N4 1_555 1_555
N6 N5 1_555 1_555
C7 N6 1_555 1_555
C8 N4 1_555 1_555
C9 C8 1_555 1_555
C10 C9 1_555 1_555
C11 C10 1_555 1_555
C12 C7 1_555 1_555
H5 C9 1_555 1_555
H6 C10 1_555 1_555
H7 C11 1_555 1_555
H8 C12 1_555 1_555
N7 Zn1 1_555 1_555
N8 N7 1_555 1_555
N9 N8 1_555 1_555
C13 N9 1_555 1_555
C14 N7 1_555 1_555
C15 C14 1_555 1_555
C16 C15 1_555 1_555
C17 C16 1_555 1_555
C18 C13 1_555 1_555
H9 C15 1_555 1_555
H10 C16 1_555 1_555
H11 C17 1_555 1_555
H12 C18 1_555 1_555
N10 Zn1 1_555 1_555
N11 N10 1_555 1_555
N12 N11 1_555 1_555
C19 N12 1_555 1_555
C20 N10 1_555 1_555
C21 C20 1_555 1_555
C22 C21 1_555 1_555
C23 C22 1_555 1_555
C24 C19 1_555 1_555
H13 C21 1_555 1_555
H14 C22 1_555 1_555
H15 C23 1_555 1_555
H16 C24 1_555 1_555
N6_2 Zn2 1_555 1_555
N9B Zn2 1_555 1_555
N12A Zn2 1_555 1_555
Zn2A N12 1_555 1_555
Zn2B N9 1_555 1_555
Zn2_2 N6 1_555 1_555
C5 C6 1_555 1_555
C7 C8 1_555 1_555
C11 C12 1_555 1_555
C13 C14 1_555 1_555
C17 C18 1_555 1_555
C19 C20 1_555 1_555
C23 C24 1_555 1_555

#END
