
#######################################################################
#
#                 Cambridge Crystallographic Data Centre
#                                CCDC 
#
#######################################################################
#
# If this CIF has been generated from an entry in the Cambridge 
# Structural Database, then it will include bibliographic, chemical, 
# crystal, experimental, refinement or atomic coordinate data resulting 
# from the CCDC's data processing and validation procedures.
#
#######################################################################

data_BISRUQ
_symmetry_cell_setting           monoclinic
_symmetry_space_group_name_H-M   'P 21/n'
_symmetry_Int_Tables_number      14
_space_group_name_Hall           '-P 2yn'
loop_
_symmetry_equiv_pos_site_id
_symmetry_equiv_pos_as_xyz
1 x,y,z
2 1/2+x,1/2-y,1/2+z
3 -x,-y,-z
4 1/2-x,1/2+y,1/2-z
_cell_length_a                   8.643(11)
_cell_length_b                   18.98(2)
_cell_length_c                   17.09(2)
_cell_angle_alpha                90
_cell_angle_beta                 103.490(10)
_cell_angle_gamma                90
_cell_volume                     2726.17
loop_
_atom_site_label
_atom_site_type_symbol
_atom_site_fract_x
_atom_site_fract_y
_atom_site_fract_z
Cu1 Cu 0.09787(9) 0.17111(4) 0.79672(5)
N1 N 0.1950(6) 0.2200(3) 0.9040(3)
C1 C 0.0658(8) 0.2485(4) 0.9395(5)
H1 H 0.0097 0.2846 0.9037
H2 H 0.1146 0.2711 0.9901
C2 C -0.0545(8) 0.1960(4) 0.9547(5)
H3 H -0.1131 0.2173 0.9905
H4 H 0.0022 0.1557 0.9824
C3 C -0.1729(8) 0.1699(4) 0.8803(4)
H5 H -0.2564 0.1442 0.8972
H6 H -0.2217 0.2104 0.8496
N2 N -0.1058(6) 0.1241(3) 0.8268(3)
C4 C -0.2224(8) 0.1134(4) 0.7475(4)
H7 H -0.2902 0.0735 0.7516
H8 H -0.2895 0.1548 0.7350
C5 C -0.1416(9) 0.1007(4) 0.6815(5)
N3 N 0.0103(7) 0.1229(3) 0.6954(3)
C6 C 0.0946(9) 0.1226(4) 0.6398(5)
C7 C 0.2537(9) 0.1510(4) 0.6691(5)
H9 H 0.2920 0.1688 0.6238
H10 H 0.3245 0.1135 0.6938
N4 N 0.2592(6) 0.2086(3) 0.7286(4)
C8 C 0.4223(9) 0.2175(5) 0.7801(6)
H11 H 0.4916 0.2344 0.7469
H12 H 0.4617 0.1718 0.8011
C9 C 0.4327(8) 0.2679(5) 0.8502(6)
H13 H 0.4680 0.3130 0.8340
H14 H 0.5164 0.2508 0.8942
C10 C 0.2861(9) 0.2820(4) 0.8841(5)
H15 H 0.3203 0.3098 0.9327
H16 H 0.2131 0.3109 0.8456
C11 C -0.2178(12) 0.0754(5) 0.6061(6)
H17 H -0.3237 0.0612 0.5957
C12 C -0.1320(14) 0.0715(6) 0.5459(6)
H18 H -0.1781 0.0525 0.4957
C13 C 0.0237(13) 0.0968(5) 0.5628(6)
H19 H 0.0808 0.0966 0.5229
C14 C 0.3028(8) 0.1724(4) 0.9631(4)
H20 H 0.3982 0.1986 0.9875
H21 H 0.2496 0.1609 1.0055
C15 C 0.3518(7) 0.1055(3) 0.9306(4)
O1 O 0.4468(5) 0.0676(2) 0.9792(3)
O2 O 0.2975(5) 0.0896(2) 0.8574(3)
C16 C -0.0475(7) 0.0552(3) 0.8630(4)
H22 H 0.0343 0.0649 0.9112
H23 H 0.0044 0.0317 0.8256
C17 C -0.1656(8) 0.0009(4) 0.8865(4)
O3 O -0.1018(5) -0.0568(3) 0.9104(3)
O4 O -0.3066(5) 0.0195(3) 0.8820(3)
C18 C 0.1995(8) 0.2757(4) 0.6857(5)
H24 H 0.1969 0.2697 0.6291
H25 H 0.2758 0.3127 0.7061
C19 C 0.0363(8) 0.3005(4) 0.6931(4)
O5 O -0.0123(5) 0.3551(3) 0.6537(3)
O6 O -0.0356(5) 0.2683(2) 0.7382(3)
Ca1 Ca 0.44316(13) -0.03283(7) 0.88158(8)
O7 O 0.2292(5) -0.0710(3) 0.9408(3)
H29 H 0.145(5) -0.095(3) 0.923(3)
H30 H 0.226(7) -0.054(4) 0.987(2)
N6 N 0.2704(16) -0.0391(4) 0.7121(5)
O9 O 0.4077(11) -0.0123(4) 0.7320(5)
O10 O 0.2030(8) -0.0573(4) 0.7659(5)
O11 O 0.2006(16) -0.0453(5) 0.6414(5)
Ca1_2 Ca -0.55684(13) -0.03283(7) 0.88158(8)
Ca1B Ca 0.55684(13) 0.03283(7) 1.11842(8)
O1B O 0.5532(5) -0.0676(2) 1.0208(3)
Ca1C Ca 0.05684(13) 0.46717(7) 0.61842(8)
O4_2 O 0.6934(5) 0.0195(3) 0.8820(3)
O5C O 0.5123(5) -0.1449(3) 0.8463(3)
N5 N -0.167(2) 0.3860(9) 0.9646(8)
C20 C -0.2074(16) 0.3940(7) 0.8963(9)
C21 C -0.2437(16) 0.4081(6) 0.8114(8)
H26 H -0.1648 0.4392 0.7993
H27 H -0.3466 0.4298 0.7956
H28 H -0.2438 0.3647 0.7825
O8 O -0.3655(8) 0.2945(4) 0.6525(5)
H31 H -0.268(4) 0.284(4) 0.669(6)
H32 H -0.381(10) 0.336(3) 0.669(7)
loop_
_geom_bond_atom_site_label_1
_geom_bond_atom_site_label_2
_geom_bond_site_symmetry_1
_geom_bond_site_symmetry_2
Cu1 N1 1_555 1_555
N1 C1 1_555 1_555
C1 H1 1_555 1_555
H2 C1 1_555 1_555
C2 C1 1_555 1_555
H3 C2 1_555 1_555
H4 C2 1_555 1_555
C3 C2 1_555 1_555
H5 C3 1_555 1_555
H6 C3 1_555 1_555
N2 Cu1 1_555 1_555
C4 N2 1_555 1_555
H7 C4 1_555 1_555
H8 C4 1_555 1_555
C5 C4 1_555 1_555
N3 Cu1 1_555 1_555
C6 N3 1_555 1_555
C7 C6 1_555 1_555
H9 C7 1_555 1_555
H10 C7 1_555 1_555
N4 Cu1 1_555 1_555
C8 N4 1_555 1_555
H11 C8 1_555 1_555
H12 C8 1_555 1_555
C9 C8 1_555 1_555
H13 C9 1_555 1_555
H14 C9 1_555 1_555
C10 N1 1_555 1_555
H15 C10 1_555 1_555
H16 C10 1_555 1_555
C11 C5 1_555 1_555
H17 C11 1_555 1_555
C12 C11 1_555 1_555
H18 C12 1_555 1_555
C13 C6 1_555 1_555
H19 C13 1_555 1_555
C14 N1 1_555 1_555
H20 C14 1_555 1_555
H21 C14 1_555 1_555
C15 C14 1_555 1_555
O1 C15 1_555 1_555
O2 Cu1 1_555 1_555
C16 N2 1_555 1_555
H22 C16 1_555 1_555
H23 C16 1_555 1_555
C17 C16 1_555 1_555
O3 C17 1_555 1_555
O4 C17 1_555 1_555
C18 N4 1_555 1_555
H24 C18 1_555 1_555
H25 C18 1_555 1_555
C19 C18 1_555 1_555
O5 C19 1_555 1_555
O6 Cu1 1_555 1_555
Ca1 O1 1_555 1_555
N5 C20 1_555 1_555
C20 C21 1_555 1_555
C21 H26 1_555 1_555
H27 C21 1_555 1_555
H28 C21 1_555 1_555
O7 Ca1 1_555 1_555
H29 O7 1_555 1_555
H30 O7 1_555 1_555
O8 H31 1_555 1_555
H32 O8 1_555 1_555
N6 O9 1_555 1_555
O9 Ca1 1_555 1_555
O10 Ca1 1_555 1_555
O11 N6 1_555 1_555
Ca1_2 O4 1_555 1_555
Ca1B O1 1_555 1_555
O1B Ca1 1_555 1_555
Ca1C O5 1_555 1_555
O4_2 Ca1 1_555 1_555
O5C Ca1 1_555 1_555
C3 N2 1_555 1_555
C5 N3 1_555 1_555
C7 N4 1_555 1_555
C9 C10 1_555 1_555
C12 C13 1_555 1_555
C15 O2 1_555 1_555
O2 Ca1 1_555 1_555
C19 O6 1_555 1_555
N6 O10 1_555 1_555
Ca1B O1B 1_555 1_555

#END
