
#######################################################################
#
#                 Cambridge Crystallographic Data Centre
#                                CCDC 
#
#######################################################################
#
# If this CIF has been generated from an entry in the Cambridge 
# Structural Database, then it will include bibliographic, chemical, 
# crystal, experimental, refinement or atomic coordinate data resulting 
# from the CCDC's data processing and validation procedures.
#
#######################################################################

data_BISVUW
_symmetry_cell_setting           triclinic
_symmetry_space_group_name_H-M   'P -1'
_symmetry_Int_Tables_number      2
_space_group_name_Hall           '-P 1'
loop_
_symmetry_equiv_pos_site_id
_symmetry_equiv_pos_as_xyz
1 x,y,z
2 -x,-y,-z
_cell_length_a                   7.2540(15)
_cell_length_b                   7.7900(16)
_cell_length_c                   11.640(2)
_cell_angle_alpha                84.02(3)
_cell_angle_beta                 74.69(3)
_cell_angle_gamma                65.01(3)
_cell_volume                     575.004
loop_
_atom_site_label
_atom_site_type_symbol
_atom_site_fract_x
_atom_site_fract_y
_atom_site_fract_z
Br1 Br 0.21602(12) 0.14646(9) 0.16365(6)
Br2 Br 0.26173(12) 0.89122(9) -0.13701(6)
Ag1 Ag 0.26654(17) 0.99419(10) 0.49073(7)
C1 C 0.2230(11) 0.5169(9) 0.1406(6)
C2 C 0.1991(12) 0.5350(9) 0.2668(6)
C3 C 0.2461(12) 0.3584(9) 0.0812(6)
C4 C 0.2324(12) 0.6730(9) 0.0675(5)
H1 H 0.2190 0.7827 0.1040
C5 C 0.2791(12) 0.3539(9) -0.0398(6)
H2 H 0.2928 0.2437 -0.0757
C6 C 0.2941(12) 0.5078(9) -0.1153(6)
C7 C 0.2604(12) 0.6705(9) -0.0549(6)
C8 C 0.3287(12) 0.4898(9) -0.2406(6)
N1 N 0.1237(11) 0.8524(9) 0.3560(6)
N2 N 0.3810(12) 0.1755(9) -0.3276(5)
C9 C 0.3201(13) 0.6310(9) -0.3277(6)
C10 C 0.1590(12) 0.7088(9) 0.3136(6)
C11 C 0.3566(13) 0.3149(10) -0.2880(6)
C12 C 0.2084(13) 0.3893(10) 0.3522(6)
N3 N 0.3190(12) 0.7351(9) -0.4051(5)
N4 N 0.2155(12) 0.2787(9) 0.4255(6)
Ag1_2 Ag 0.26654(17) -0.00581(10) 0.49073(7)
Ag1_3 Ag 0.26654(17) 0.99419(10) -0.50927(7)
Ag1A Ag 0.73346(17) 0.00581(10) -0.49073(7)
N2A N 0.6190(12) 0.8245(9) 0.3276(5)
N3_2 N 0.3190(12) 0.7351(9) 0.5949(5)
N4_2 N 0.2155(12) 1.2787(9) 0.4255(6)
loop_
_geom_bond_atom_site_label_1
_geom_bond_atom_site_label_2
_geom_bond_site_symmetry_1
_geom_bond_site_symmetry_2
Br1 C3 1_555 1_555
Br2 C7 1_555 1_555
Ag1 N1 1_555 1_555
C1 C2 1_555 1_555
C2 C10 1_555 1_555
C3 C1 1_555 1_555
C4 C1 1_555 1_555
H1 C4 1_555 1_555
C5 C3 1_555 1_555
H2 C5 1_555 1_555
C6 C5 1_555 1_555
C7 C4 1_555 1_555
C8 C6 1_555 1_555
N1 C10 1_555 1_555
N2 C11 1_555 1_555
C9 C8 1_555 1_555
C11 C8 1_555 1_555
C12 C2 1_555 1_555
N3 C9 1_555 1_555
N4 C12 1_555 1_555
Ag1_2 N4 1_555 1_555
Ag1_3 N3 1_555 1_555
Ag1A N2 1_555 1_555
N2A Ag1 1_555 1_555
N3_2 Ag1 1_555 1_555
N4_2 Ag1 1_555 1_555
C6 C7 1_555 1_555

#END
