
#######################################################################
#
#                 Cambridge Crystallographic Data Centre
#                                CCDC 
#
#######################################################################
#
# If this CIF has been generated from an entry in the Cambridge 
# Structural Database, then it will include bibliographic, chemical, 
# crystal, experimental, refinement or atomic coordinate data resulting 
# from the CCDC's data processing and validation procedures.
#
#######################################################################

data_BISWOP03
_symmetry_cell_setting           triclinic
_symmetry_space_group_name_H-M   'P -1'
_symmetry_Int_Tables_number      2
_space_group_name_Hall           '-P 1'
loop_
_symmetry_equiv_pos_site_id
_symmetry_equiv_pos_as_xyz
1 x,y,z
2 -x,-y,-z
_cell_length_a                   8.9254(18)
_cell_length_b                   9.0881(18)
_cell_length_c                   9.652(2)
_cell_angle_alpha                110.363(4)
_cell_angle_beta                 97.535(4)
_cell_angle_gamma                105.761(4)
_cell_volume                     683.95
loop_
_atom_site_label
_atom_site_type_symbol
_atom_site_fract_x
_atom_site_fract_y
_atom_site_fract_z
Cu1 Cu 0.70909(4) 0.94816(5) 0.81400(4)
O1 O 0.8809(3) 1.1238(3) 0.9933(2)
O2 O 0.6038(3) 0.8577(3) 0.9495(2)
N1 N 0.5424(3) 0.7796(3) 0.6237(3)
C1 C 0.5585(4) 0.8037(4) 0.4958(3)
N2 N 0.7907(3) 1.0325(3) 0.6635(3)
C2 C 0.7020(4) 0.9466(4) 0.5182(3)
C3 C 0.7443(4) 0.9916(5) 0.4027(4)
H1 H 0.6820 0.9313 0.3028
C4 C 0.4491(4) 0.7028(4) 0.3567(4)
H2 H 0.4623 0.7226 0.2700
C5 C 0.9223(4) 1.1641(4) 0.6947(4)
H3 H 0.9840 1.2232 0.7949
C6 C 0.4158(4) 0.6519(4) 0.6134(4)
H4 H 0.4033 0.6342 0.7011
C7 C 0.8805(5) 1.1274(5) 0.4372(5)
H5 H 0.9114 1.1591 0.3606
C8 C 0.3206(5) 0.5728(5) 0.3481(4)
H6 H 0.2455 0.5033 0.2557
C9 C 0.9693(5) 1.2148(5) 0.5847(5)
H7 H 1.0605 1.3076 0.6100
C10 C 0.3053(4) 0.5474(5) 0.4784(4)
H8 H 0.2198 0.4594 0.4748
O3 O 0.4483(3) 0.8885(3) 1.1113(2)
O4 O 1.1013(3) 1.1779(3) 1.1666(2)
C11 C 0.9964(4) 1.0880(4) 1.0476(3)
C12 C 0.5139(4) 0.9265(4) 1.0185(3)
O1A O 1.1191(3) 0.8762(3) 1.0067(2)
C11A C 1.0036(4) 0.9120(4) 0.9524(3)
O4A O 0.8987(3) 0.8221(3) 0.8334(2)
O2A O 0.3962(3) 1.1423(3) 1.0505(2)
C12A C 0.4861(4) 1.0735(4) 0.9815(3)
O3A O 0.5517(3) 1.1115(3) 0.8887(2)
Cu1A Cu 0.29091(4) 1.05184(5) 1.18600(4)
N1A N 0.4576(3) 1.2204(3) 1.3763(3)
C1A C 0.4415(4) 1.1963(4) 1.5042(3)
N2A N 0.2093(3) 0.9675(3) 1.3365(3)
C2A C 0.2980(4) 1.0534(4) 1.4818(3)
C3A C 0.2557(4) 1.0084(5) 1.5973(4)
H1A H 0.3180 1.0687 1.6972
C4A C 0.5509(4) 1.2972(4) 1.6433(4)
H2A H 0.5377 1.2774 1.7300
C5A C 0.0777(4) 0.8359(4) 1.3053(4)
H3A H 0.0160 0.7768 1.2051
C6A C 0.5842(4) 1.3481(4) 1.3866(4)
H4A H 0.5967 1.3658 1.2989
C7A C 0.1195(5) 0.8726(5) 1.5628(5)
H5A H 0.0886 0.8409 1.6394
C8A C 0.6794(5) 1.4272(5) 1.6519(4)
H6A H 0.7545 1.4967 1.7443
C9A C 0.0307(5) 0.7852(5) 1.4153(5)
H7A H -0.0605 0.6924 1.3900
C10A C 0.6947(4) 1.4526(5) 1.5216(4)
H8A H 0.7802 1.5406 1.5252
Cu1A_2 Cu 1.29091(4) 1.05184(5) 1.18600(4)
O1A_2 O 0.1191(3) 0.8762(3) 1.0067(2)
O4_2 O 0.1013(3) 1.1779(3) 1.1666(2)
O5 O 0.6559(4) 0.6104(4) 1.0550(4)
H9 H 0.6320 0.6984 1.0190
H10 H 0.7041 0.5483 1.0647
O6 O 0.8754(5) 1.4559(4) 1.0644(7)
H11 H 0.8670 1.4153 0.9674
H12 H 0.8563 1.4226 1.1303
loop_
_geom_bond_atom_site_label_1
_geom_bond_atom_site_label_2
_geom_bond_site_symmetry_1
_geom_bond_site_symmetry_2
Cu1 O1 1_555 1_555
O1 C11 1_555 1_555
O2 Cu1 1_555 1_555
N1 Cu1 1_555 1_555
C1 N1 1_555 1_555
N2 Cu1 1_555 1_555
C2 C1 1_555 1_555
C3 C2 1_555 1_555
H1 C3 1_555 1_555
C4 C1 1_555 1_555
H2 C4 1_555 1_555
C5 N2 1_555 1_555
H3 C5 1_555 1_555
C6 N1 1_555 1_555
H4 C6 1_555 1_555
C7 C3 1_555 1_555
H5 C7 1_555 1_555
C8 C4 1_555 1_555
H6 C8 1_555 1_555
C9 C5 1_555 1_555
H7 C9 1_555 1_555
C10 C6 1_555 1_555
H8 C10 1_555 1_555
O3 C12 1_555 1_555
O4 C11 1_555 1_555
C11 C11A 1_555 1_555
C12 O2 1_555 1_555
O5 H9 1_555 1_555
H10 O5 1_555 1_555
O6 H11 1_555 1_555
H12 O6 1_555 1_555
O1A C11A 1_555 1_555
C11A O4A 1_555 1_555
O4A Cu1 1_555 1_555
O2A C12A 1_555 1_555
C12A C12 1_555 1_555
O3A Cu1 1_555 1_555
Cu1A O3 1_555 1_555
N1A Cu1A 1_555 1_555
C1A N1A 1_555 1_555
N2A Cu1A 1_555 1_555
C2A C1A 1_555 1_555
C3A C2A 1_555 1_555
H1A C3A 1_555 1_555
C4A C1A 1_555 1_555
H2A C4A 1_555 1_555
C5A N2A 1_555 1_555
H3A C5A 1_555 1_555
C6A N1A 1_555 1_555
H4A C6A 1_555 1_555
C7A C3A 1_555 1_555
H5A C7A 1_555 1_555
C8A C4A 1_555 1_555
H6A C8A 1_555 1_555
C9A C5A 1_555 1_555
H7A C9A 1_555 1_555
C10A C6A 1_555 1_555
H8A C10A 1_555 1_555
Cu1A_2 O4 1_555 1_555
O1A_2 Cu1A 1_555 1_555
O4_2 Cu1A 1_555 1_555
N2 C2 1_555 1_555
C7 C9 1_555 1_555
C8 C10 1_555 1_555
O1A Cu1A_2 1_555 1_555
O2A Cu1A 1_555 1_555
C12A O3A 1_555 1_555
N2A C2A 1_555 1_555
C7A C9A 1_555 1_555
C8A C10A 1_555 1_555

#END
