
#######################################################################
#
#                 Cambridge Crystallographic Data Centre
#                                CCDC 
#
#######################################################################
#
# If this CIF has been generated from an entry in the Cambridge 
# Structural Database, then it will include bibliographic, chemical, 
# crystal, experimental, refinement or atomic coordinate data resulting 
# from the CCDC's data processing and validation procedures.
#
#######################################################################

data_BISWOP01
_symmetry_cell_setting           triclinic
_symmetry_space_group_name_H-M   'P -1'
_symmetry_Int_Tables_number      2
_space_group_name_Hall           '-P 1'
loop_
_symmetry_equiv_pos_site_id
_symmetry_equiv_pos_as_xyz
1 x,y,z
2 -x,-y,-z
_cell_length_a                   9.110(1)
_cell_length_b                   9.675(1)
_cell_length_c                   8.922(1)
_cell_angle_alpha                97.54(1)
_cell_angle_beta                 105.80(1)
_cell_angle_gamma                110.26(1)
_cell_volume                     687.346
loop_
_atom_site_label
_atom_site_type_symbol
_atom_site_fract_x
_atom_site_fract_y
_atom_site_fract_z
O1 O 0.1422(2) 0.0503(1) 0.3961(2)
O2 O -0.1241(2) 0.0069(1) 0.1184(2)
N1 N 0.2204(2) 0.3764(2) 0.4578(2)
N2 N -0.0322(2) 0.3368(2) 0.2095(2)
C1 C 0.3479(3) 0.3863(2) 0.5836(2)
C2 C 0.4536(3) 0.5214(3) 0.6948(3)
C3 C 0.4274(3) 0.6518(2) 0.6789(3)
C4 C 0.2971(3) 0.6432(2) 0.5501(2)
C5 C 0.1964(2) 0.5039(2) 0.4412(2)
C6 C 0.0531(2) 0.4813(2) 0.2978(2)
C7 C 0.0093(3) 0.5984(2) 0.2562(3)
C8 C -0.1276(3) 0.5635(3) 0.1195(3)
C9 C -0.2144(3) 0.4157(3) 0.0303(3)
C10 C -0.1640(3) 0.3053(2) 0.0781(2)
O3 O 0.1114(2) -0.1113(1) 0.5520(2)
O4 O 0.1780(2) 0.1663(1) 0.1011(2)
C11 C 0.0727(2) -0.0187(2) 0.4858(2)
C12 C -0.0877(2) -0.0473(2) 0.0037(2)
H1 H 0.360(3) 0.310(3) 0.590(3)
H2 H 0.540(4) 0.516(3) 0.789(3)
H3 H 0.504(3) 0.752(3) 0.758(3)
H4 H 0.282(3) 0.728(3) 0.542(3)
H5 H 0.078(3) 0.698(3) 0.323(3)
H6 H -0.165(4) 0.641(4) 0.088(4)
H7 H -0.315(3) 0.384(3) -0.062(3)
H8 H -0.214(3) 0.216(3) 0.022(3)
Cu1 Cu 0.05167(3) 0.18595(2) 0.29095(2)
Cu1A Cu -0.05167(3) -0.18595(2) 0.70905(2)
C12A C 0.0877(2) 0.0473(2) -0.0037(2)
C11A C -0.0727(2) 0.0187(2) 0.5142(2)
O4A O -0.1780(2) -0.1663(1) -0.1011(2)
O3A O -0.1114(2) 0.1113(1) 0.4480(2)
O1A O -0.1422(2) -0.0503(1) 0.6039(2)
O2A O 0.1241(2) -0.0069(1) -0.1184(2)
Cu1A_2 Cu -0.05167(3) -0.18595(2) -0.29095(2)
O1A_2 O -0.1422(2) -0.0503(1) -0.3961(2)
N1A N -0.2204(2) -0.3764(2) -0.4578(2)
N2A N 0.0322(2) -0.3368(2) -0.2095(2)
O3_2 O 0.1114(2) -0.1113(1) -0.4480(2)
C1A C -0.3479(3) -0.3863(2) -0.5836(2)
C5A C -0.1964(2) -0.5039(2) -0.4412(2)
C2A C -0.4536(3) -0.5214(3) -0.6948(3)
H1A H -0.360(3) -0.310(3) -0.590(3)
C4A C -0.2971(3) -0.6432(2) -0.5501(2)
C6A C -0.0531(2) -0.4813(2) -0.2978(2)
C3A C -0.4274(3) -0.6518(2) -0.6789(3)
H2A H -0.540(4) -0.516(3) -0.789(3)
H4A H -0.282(3) -0.728(3) -0.542(3)
C7A C -0.0093(3) -0.5984(2) -0.2562(3)
H3A H -0.504(3) -0.752(3) -0.758(3)
C8A C 0.1276(3) -0.5635(3) -0.1195(3)
H5A H -0.078(3) -0.698(3) -0.323(3)
C9A C 0.2144(3) -0.4157(3) -0.0303(3)
H6A H 0.165(4) -0.641(4) -0.088(4)
C10A C 0.1640(3) -0.3053(2) -0.0781(2)
H7A H 0.315(3) -0.384(3) 0.062(3)
H8A H 0.214(3) -0.216(3) -0.022(3)
O5 O -0.3859(3) 0.0592(3) -0.3420(3)
H9 H -0.414(4) 0.016(3) -0.300(3)
H10 H -0.438(4) 0.018(4) -0.421(3)
O6 O 0.4575(3) 0.0633(5) 0.8780(4)
H11 H 0.422(3) -0.013(3) 0.827(3)
H12 H 0.434(4) 0.147(3) 0.851(3)
loop_
_geom_bond_atom_site_label_1
_geom_bond_atom_site_label_2
_geom_bond_site_symmetry_1
_geom_bond_site_symmetry_2
O1 C11 1_555 1_555
O2 C12 1_555 1_555
N1 C1 1_555 1_555
N2 C6 1_555 1_555
C1 C2 1_555 1_555
C2 C3 1_555 1_555
C3 C4 1_555 1_555
C4 C5 1_555 1_555
C5 N1 1_555 1_555
C6 C5 1_555 1_555
C7 C6 1_555 1_555
C8 C7 1_555 1_555
C9 C8 1_555 1_555
C10 N2 1_555 1_555
O3 C11 1_555 1_555
O4 Cu1 1_555 1_555
C11 C11A 1_555 1_555
C12 C12A 1_555 1_555
H1 C1 1_555 1_555
H2 C2 1_555 1_555
H3 C3 1_555 1_555
H4 C4 1_555 1_555
H5 C7 1_555 1_555
H6 C8 1_555 1_555
H7 C9 1_555 1_555
H8 C10 1_555 1_555
Cu1 O1 1_555 1_555
O5 H9 1_555 1_555
H10 O5 1_555 1_555
O6 H11 1_555 1_555
H12 O6 1_555 1_555
Cu1A O3 1_555 1_555
C12A O4 1_555 1_555
C11A O3A 1_555 1_555
O4A C12 1_555 1_555
O3A Cu1 1_555 1_555
O1A Cu1A 1_555 1_555
O2A C12A 1_555 1_555
Cu1A_2 O4A 1_555 1_555
O1A_2 Cu1A_2 1_555 1_555
N1A Cu1A_2 1_555 1_555
N2A Cu1A_2 1_555 1_555
O3_2 Cu1A_2 1_555 1_555
C1A N1A 1_555 1_555
C5A N1A 1_555 1_555
C2A C1A 1_555 1_555
H1A C1A 1_555 1_555
C4A C5A 1_555 1_555
C6A N2A 1_555 1_555
C3A C2A 1_555 1_555
H2A C2A 1_555 1_555
H4A C4A 1_555 1_555
C7A C6A 1_555 1_555
H3A C3A 1_555 1_555
C8A C7A 1_555 1_555
H5A C7A 1_555 1_555
C9A C8A 1_555 1_555
H6A C8A 1_555 1_555
C10A N2A 1_555 1_555
H7A C9A 1_555 1_555
H8A C10A 1_555 1_555
O2 Cu1 1_555 1_555
N1 Cu1 1_555 1_555
N2 Cu1 1_555 1_555
C9 C10 1_555 1_555
C11A O1A 1_555 1_555
O2A Cu1A_2 1_555 1_555
C5A C6A 1_555 1_555
C4A C3A 1_555 1_555
C9A C10A 1_555 1_555

#END
