
#######################################################################
#
#                 Cambridge Crystallographic Data Centre
#                                CCDC 
#
#######################################################################
#
# If this CIF has been generated from an entry in the Cambridge 
# Structural Database, then it will include bibliographic, chemical, 
# crystal, experimental, refinement or atomic coordinate data resulting 
# from the CCDC's data processing and validation procedures.
#
#######################################################################

data_BISWOP02
_symmetry_cell_setting           triclinic
_symmetry_space_group_name_H-M   'P -1'
_symmetry_Int_Tables_number      2
_space_group_name_Hall           '-P 1'
loop_
_symmetry_equiv_pos_site_id
_symmetry_equiv_pos_as_xyz
1 x,y,z
2 -x,-y,-z
_cell_length_a                   8.9271(18)
_cell_length_b                   9.094(4)
_cell_length_c                   9.659(2)
_cell_angle_alpha                110.33(3)
_cell_angle_beta                 97.52(2)
_cell_angle_gamma                105.74(2)
_cell_volume                     685.36
loop_
_atom_site_label
_atom_site_type_symbol
_atom_site_fract_x
_atom_site_fract_y
_atom_site_fract_z
Cu1 Cu 0.29086(9) 0.55184(10) 0.18621(8)
O1 O 0.1015(4) 0.6783(4) 0.1668(3)
O2 O 0.1190(4) 0.3762(4) 0.0063(3)
O3 O 0.4482(4) 0.3880(4) 0.1111(4)
O4 O 0.3966(4) 0.6425(4) 0.0510(4)
N1 N 0.2084(5) 0.4675(5) 0.3358(4)
N2 N 0.4589(5) 0.7215(5) 0.3760(4)
C1 C -0.0041(6) 0.5871(5) 0.0469(4)
C2 C 0.5136(5) 0.4272(6) 0.0192(5)
C3 C 0.0792(6) 0.3347(7) 0.3045(6)
H1 H 0.0136 0.3320 0.2341
C4 C 0.0301(8) 0.2851(8) 0.4163(7)
H2 H -0.0910 0.1897 0.3818
C5 C 0.1198(8) 0.3725(8) 0.5635(7)
H3 H 0.0776 0.3363 0.6433
C6 C 0.2564(7) 0.5088(7) 0.5978(6)
H4 H 0.3262 0.5612 0.6996
C7 C 0.2979(6) 0.5524(6) 0.4821(5)
C8 C 0.4408(6) 0.6955(6) 0.5040(5)
C9 C 0.5503(6) 0.7971(7) 0.6437(5)
H5 H 0.5479 0.7803 0.7374
C10 C 0.6793(7) 0.9268(7) 0.6523(6)
H6 H 0.7659 1.0150 0.7599
C11 C 0.6959(7) 0.9543(8) 0.5225(6)
H7 H 0.7834 1.0192 0.4986
C12 C 0.5823(6) 0.8462(7) 0.3853(6)
H8 H 0.5917 0.8760 0.2964
Cu1A Cu -0.29086(9) 0.44816(10) -0.18621(8)
Cu1A_2 Cu 0.70914(9) 0.44816(10) -0.18621(8)
O1A O -0.1015(4) 0.3217(4) -0.1668(3)
O1A_2 O 0.8985(4) 0.3217(4) -0.1668(3)
O2A O -0.1190(4) 0.6238(4) -0.0063(3)
O2A_2 O 0.8810(4) 0.6238(4) -0.0063(3)
O3A O 0.5518(4) 0.6120(4) -0.1111(4)
O4A O 0.6034(4) 0.3575(4) -0.0510(4)
N1A N 0.7916(5) 0.5325(5) -0.3358(4)
N2A N 0.5411(5) 0.2785(5) -0.3760(4)
C1A C 0.0041(6) 0.4129(5) -0.0469(4)
C2A C 0.4864(5) 0.5728(6) -0.0192(5)
C3A C 0.9208(6) 0.6653(7) -0.3045(6)
H1A H 0.9864 0.6680 -0.2341
C4A C 0.9699(8) 0.7149(8) -0.4163(7)
H2A H 1.0910 0.8103 -0.3818
C5A C 0.8802(8) 0.6275(8) -0.5635(7)
H3A H 0.9224 0.6637 -0.6433
C6A C 0.7436(7) 0.4912(7) -0.5978(6)
H4A H 0.6738 0.4388 -0.6996
C7A C 0.7021(6) 0.4476(6) -0.4821(5)
C8A C 0.5592(6) 0.3045(6) -0.5040(5)
C9A C 0.4497(6) 0.2029(7) -0.6437(5)
H5A H 0.4521 0.2197 -0.7374
C10A C 0.3207(7) 0.0732(7) -0.6523(6)
H6A H 0.2341 -0.0150 -0.7599
C11A C 0.3041(7) 0.0457(8) -0.5225(6)
H7A H 0.2166 -0.0192 -0.4986
C12A C 0.4177(6) 0.1538(7) -0.3853(6)
H8A H 0.4083 0.1240 -0.2964
O5 O 0.6604(6) 0.1130(6) 0.0547(6)
H9 H 0.6483 0.0605 0.0995
H10 H 0.5732 0.1046 -0.0082
O6 O 0.1223(7) 0.0446(7) 0.9337(10)
H11 H 0.2051 0.1321 0.9776
H12 H 0.1260 -0.0198 0.9385
loop_
_geom_bond_atom_site_label_1
_geom_bond_atom_site_label_2
_geom_bond_site_symmetry_1
_geom_bond_site_symmetry_2
Cu1 O1 1_555 1_555
O1 C1 1_555 1_555
O2 Cu1 1_555 1_555
O3 Cu1 1_555 1_555
O4 Cu1 1_555 1_555
N1 Cu1 1_555 1_555
N2 Cu1 1_555 1_555
C1 O2A 1_555 1_555
C2 O3 1_555 1_555
C3 N1 1_555 1_555
H1 C3 1_555 1_555
C4 C3 1_555 1_555
H2 C4 1_555 1_555
C5 C4 1_555 1_555
H3 C5 1_555 1_555
C6 C5 1_555 1_555
H4 C6 1_555 1_555
C7 N1 1_555 1_555
C8 N2 1_555 1_555
C9 C8 1_555 1_555
H5 C9 1_555 1_555
C10 C9 1_555 1_555
H6 C10 1_555 1_555
C11 C10 1_555 1_555
H7 C11 1_555 1_555
C12 N2 1_555 1_555
H8 C12 1_555 1_555
O5 H9 1_555 1_555
H10 O5 1_555 1_555
O6 H11 1_555 1_555
H12 O6 1_555 1_555
Cu1A O1A 1_555 1_555
Cu1A_2 O1A_2 1_555 1_555
O1A C1A 1_555 1_555
O2A Cu1A 1_555 1_555
O2A_2 Cu1A_2 1_555 1_555
O3A Cu1A_2 1_555 1_555
O4A C2 1_555 1_555
N1A Cu1A_2 1_555 1_555
N2A Cu1A_2 1_555 1_555
C1A O2 1_555 1_555
C2A O4 1_555 1_555
C3A N1A 1_555 1_555
H1A C3A 1_555 1_555
C4A C3A 1_555 1_555
H2A C4A 1_555 1_555
C5A C4A 1_555 1_555
H3A C5A 1_555 1_555
C6A C5A 1_555 1_555
H4A C6A 1_555 1_555
C7A N1A 1_555 1_555
C8A N2A 1_555 1_555
C9A C8A 1_555 1_555
H5A C9A 1_555 1_555
C10A C9A 1_555 1_555
H6A C10A 1_555 1_555
C11A C10A 1_555 1_555
H7A C11A 1_555 1_555
C12A N2A 1_555 1_555
H8A C12A 1_555 1_555
C1 C1A 1_555 1_555
C2 C2A 1_555 1_555
C6 C7 1_555 1_555
C7 C8 1_555 1_555
C11 C12 1_555 1_555
Cu1A_2 O4A 1_555 1_555
O3A C2A 1_555 1_555
C6A C7A 1_555 1_555
C7A C8A 1_555 1_555
C11A C12A 1_555 1_555

#END
