
#######################################################################
#
#                 Cambridge Crystallographic Data Centre
#                                CCDC 
#
#######################################################################
#
# If this CIF has been generated from an entry in the Cambridge 
# Structural Database, then it will include bibliographic, chemical, 
# crystal, experimental, refinement or atomic coordinate data resulting 
# from the CCDC's data processing and validation procedures.
#
#######################################################################

data_BISWOP
_symmetry_cell_setting           triclinic
_symmetry_space_group_name_H-M   'P -1'
_symmetry_Int_Tables_number      2
_space_group_name_Hall           '-P 1'
loop_
_symmetry_equiv_pos_site_id
_symmetry_equiv_pos_as_xyz
1 x,y,z
2 -x,-y,-z
_cell_length_a                   9.673(3)
_cell_length_b                   8.940(3)
_cell_length_c                   9.103(3)
_cell_angle_alpha                105.718(3)
_cell_angle_beta                 110.347(3)
_cell_angle_gamma                97.539(3)
_cell_volume                     687.968
loop_
_atom_site_label
_atom_site_type_symbol
_atom_site_fract_x
_atom_site_fract_y
_atom_site_fract_z
Cu1 Cu 0.31390 0.20900 0.44800
N1 N 0.16330 0.29100 0.53270
C1 C 0.19520 0.42190 0.66410
C2 C 0.08460 0.47010 0.71540
C3 C -0.06390 0.38010 0.62750
C4 C -0.09870 0.24400 0.49090
C5 C 0.01790 0.20090 0.44600
C6 C -0.00420 0.05930 0.30430
C7 C -0.14400 -0.04990 0.20350
C8 C -0.15220 -0.17940 0.07220
C9 C -0.02190 -0.19610 0.04550
C10 C 0.11470 -0.08380 0.15180
N2 N 0.12320 0.04250 0.27930
O1 O 0.49310 0.38120 0.62340
O2 O 0.33290 0.39900 0.32120
C11 C 0.51860 0.01390 0.42730
C12 C 0.54680 0.49620 0.58710
O3 O 0.44930 0.10380 0.35730
O4 O 0.38830 0.05130 0.61150
H1 H 0.31160 0.49240 0.73300
H2 H 0.11330 0.57690 0.82150
H3 H -0.15250 0.41520 0.66510
H4 H -0.21450 0.17270 0.41970
H5 H -0.24440 -0.03570 0.22700
H6 H -0.25970 -0.26510 -0.00950
H7 H -0.02610 -0.29550 -0.05610
H8 H 0.21690 -0.09790 0.13250
C12A C 0.45320 0.50380 0.41290
C11A C 0.48140 -0.01390 0.57270
O4A O 0.61170 -0.05130 0.38850
O2A O 0.66710 0.60100 0.67880
O1A O 0.50690 0.61880 0.37660
O3A O 0.55070 -0.10380 0.64270
Cu1A Cu 0.68610 -0.20900 0.55200
Cu1A_2 Cu 0.68610 0.79100 0.55200
N1A N 0.83670 -0.29100 0.46730
N2A N 0.87680 -0.04250 0.72070
O1A_2 O 0.50690 -0.38120 0.37660
O2A_2 O 0.66710 -0.39900 0.67880
C1A C 0.80480 -0.42190 0.33590
C5A C 0.98210 -0.20090 0.55400
C6A C 1.00420 -0.05930 0.69570
C10A C 0.88530 0.08380 0.84820
C2A C 0.91540 -0.47010 0.28460
H1A H 0.68840 -0.49240 0.26700
C4A C 1.09870 -0.24400 0.50910
C7A C 1.14400 0.04990 0.79650
C9A C 1.02190 0.19610 0.95450
H8A H 0.78310 0.09790 0.86750
C3A C 1.06390 -0.38010 0.37250
H2A H 0.88670 -0.57690 0.17850
H4A H 1.21450 -0.17270 0.58030
C8A C 1.15220 0.17940 0.92780
H5A H 1.24440 0.03570 0.77300
H7A H 1.02610 0.29550 1.05610
H3A H 1.15250 -0.41520 0.33490
H6A H 1.25970 0.26510 1.00950
O5 O 0.55640 0.15810 0.11170
H9 H 0.49730 0.04770 0.00760
H10 H 0.67540 0.16010 0.16790
O6 O 0.56450 0.37640 -0.04320
H11 H 0.67210 0.43670 -0.03620
H12 H 0.47690 0.35410 -0.16480
loop_
_geom_bond_atom_site_label_1
_geom_bond_atom_site_label_2
_geom_bond_site_symmetry_1
_geom_bond_site_symmetry_2
Cu1 N1 1_555 1_555
N1 C1 1_555 1_555
C1 C2 1_555 1_555
C2 C3 1_555 1_555
C3 C4 1_555 1_555
C4 C5 1_555 1_555
C5 N1 1_555 1_555
C6 C5 1_555 1_555
C7 C6 1_555 1_555
C8 C7 1_555 1_555
C9 C8 1_555 1_555
C10 C9 1_555 1_555
N2 Cu1 1_555 1_555
O1 Cu1 1_555 1_555
O2 Cu1 1_555 1_555
C11 O3 1_555 1_555
C12 O1 1_555 1_555
O3 Cu1 1_555 1_555
O4 Cu1 1_555 1_555
H1 C1 1_555 1_555
H2 C2 1_555 1_555
H3 C3 1_555 1_555
H4 C4 1_555 1_555
H5 C7 1_555 1_555
H6 C8 1_555 1_555
H7 C9 1_555 1_555
H8 C10 1_555 1_555
O5 H9 1_555 1_555
H10 O5 1_555 1_555
O6 H11 1_555 1_555
H12 O6 1_555 1_555
C12A O2 1_555 1_555
C11A C11 1_555 1_555
O4A C11 1_555 1_555
O2A C12 1_555 1_555
O1A C12A 1_555 1_555
O3A C11A 1_555 1_555
Cu1A O4A 1_555 1_555
Cu1A_2 O2A 1_555 1_555
N1A Cu1A 1_555 1_555
N2A Cu1A 1_555 1_555
O1A_2 Cu1A 1_555 1_555
O2A_2 Cu1A 1_555 1_555
C1A N1A 1_555 1_555
C5A N1A 1_555 1_555
C6A N2A 1_555 1_555
C10A N2A 1_555 1_555
C2A C1A 1_555 1_555
H1A C1A 1_555 1_555
C4A C5A 1_555 1_555
C7A C6A 1_555 1_555
C9A C10A 1_555 1_555
H8A C10A 1_555 1_555
C3A C2A 1_555 1_555
H2A C2A 1_555 1_555
H4A C4A 1_555 1_555
C8A C7A 1_555 1_555
H5A C7A 1_555 1_555
H7A C9A 1_555 1_555
H3A C3A 1_555 1_555
H6A C8A 1_555 1_555
C6 N2 1_555 1_555
C10 N2 1_555 1_555
C12 C12A 1_555 1_555
O4 C11A 1_555 1_555
O1A Cu1A_2 1_555 1_555
O3A Cu1A 1_555 1_555
C5A C6A 1_555 1_555
C4A C3A 1_555 1_555
C9A C8A 1_555 1_555

#END
