
#######################################################################
#
#                 Cambridge Crystallographic Data Centre
#                                CCDC 
#
#######################################################################
#
# If this CIF has been generated from an entry in the Cambridge 
# Structural Database, then it will include bibliographic, chemical, 
# crystal, experimental, refinement or atomic coordinate data resulting 
# from the CCDC's data processing and validation procedures.
#
#######################################################################

data_BITCUE
_symmetry_cell_setting           monoclinic
_symmetry_space_group_name_H-M   'P 2/c'
_symmetry_Int_Tables_number      13
_space_group_name_Hall           '-P 2yc'
loop_
_symmetry_equiv_pos_site_id
_symmetry_equiv_pos_as_xyz
1 x,y,z
2 -x,y,1/2-z
3 -x,-y,-z
4 x,-y,1/2+z
_cell_length_a                   6.7867(14)
_cell_length_b                   3.5336(7)
_cell_length_c                   22.719(4)
_cell_angle_alpha                90
_cell_angle_beta                 90.69(3)
_cell_angle_gamma                90
_cell_volume                     544.796
loop_
_atom_site_label
_atom_site_type_symbol
_atom_site_fract_x
_atom_site_fract_y
_atom_site_fract_z
Ag1 Ag 1.0000 0.4007(3) 0.2500
Cl1 Cl 0.8705(2) 0.2848(5) 0.07049(7)
N1 N 0.7327(8) 0.131(2) 0.2060(3)
N2 N 0.1647(8) -0.2992(18) 0.1717(3)
C1 C 0.4955(9) -0.016(2) 0.0635(3)
C2 C 0.4797(9) -0.045(2) 0.1257(3)
C3 C 0.6611(9) 0.123(2) 0.0325(3)
C4 C 0.6254(9) 0.051(2) 0.1681(3)
C5 C 0.6646(9) 0.139(2) -0.0276(3)
H1 H 0.7787 0.2368 -0.0460
C6 C 0.3042(9) -0.188(2) 0.1506(3)
Cl1B Cl 0.1295(2) -0.2848(5) -0.07049(7)
N1B N 0.2673(8) -0.131(2) -0.2060(3)
N2B N 0.8353(8) 0.2992(18) -0.1717(3)
C1B C 0.5045(9) 0.016(2) -0.0635(3)
C2B C 0.5203(9) 0.045(2) -0.1257(3)
C3B C 0.3389(9) -0.123(2) -0.0325(3)
C4B C 0.3746(9) -0.051(2) -0.1681(3)
C5B C 0.3354(9) -0.139(2) 0.0276(3)
H1B H 0.2213 -0.2368 0.0460
C6B C 0.6958(9) 0.188(2) -0.1506(3)
Ag1_2 Ag 0.0000 -0.5993(3) 0.2500
Ag1B Ag 0.0000 -0.4007(3) -0.2500
Ag1B_2 Ag 1.0000 0.5993(3) -0.2500
N1A N 1.2673(8) 0.131(2) 0.2940(3)
N2_2 N 1.1647(8) 0.7008(18) 0.1717(3)
N2A N 0.8353(8) 0.7008(18) 0.3283(3)
loop_
_geom_bond_atom_site_label_1
_geom_bond_atom_site_label_2
_geom_bond_site_symmetry_1
_geom_bond_site_symmetry_2
Ag1 N1 1_555 1_555
Cl1 C3 1_555 1_555
N1 C4 1_555 1_555
N2 C6 1_555 1_555
C1 C2 1_555 1_555
C2 C4 1_555 1_555
C3 C1 1_555 1_555
C5 C3 1_555 1_555
H1 C5 1_555 1_555
C6 C2 1_555 1_555
Cl1B C3B 1_555 1_555
N1B C4B 1_555 1_555
N2B C6B 1_555 1_555
C1B C5 1_555 1_555
C2B C1B 1_555 1_555
C3B C1B 1_555 1_555
C4B C2B 1_555 1_555
C5B C1 1_555 1_555
H1B C5B 1_555 1_555
C6B C2B 1_555 1_555
Ag1_2 N2 1_555 1_555
Ag1B N1B 1_555 1_555
Ag1B_2 N2B 1_555 1_555
N1A Ag1 1_555 1_555
N2_2 Ag1 1_555 1_555
N2A Ag1 1_555 1_555
C3B C5B 1_555 1_555

#END
