
#######################################################################
#
#                 Cambridge Crystallographic Data Centre
#                                CCDC 
#
#######################################################################
#
# If this CIF has been generated from an entry in the Cambridge 
# Structural Database, then it will include bibliographic, chemical, 
# crystal, experimental, refinement or atomic coordinate data resulting 
# from the CCDC's data processing and validation procedures.
#
#######################################################################

data_BITDAJ
_symmetry_cell_setting           monoclinic
_symmetry_space_group_name_H-M   'C 2/c'
_symmetry_Int_Tables_number      15
_space_group_name_Hall           '-C 2yn'
loop_
_symmetry_equiv_pos_site_id
_symmetry_equiv_pos_as_xyz
1 x,y,z
2 1/2+x,1/2+y,z
3 -x,y,1/2-z
4 1/2-x,1/2+y,1/2-z
5 -x,-y,-z
6 1/2-x,1/2-y,-z
7 x,-y,1/2+z
8 1/2+x,1/2-y,1/2+z
_cell_length_a                   40.824(7)
_cell_length_b                   6.908(1)
_cell_length_c                   8.038(1)
_cell_angle_alpha                90
_cell_angle_beta                 91.6(1)
_cell_angle_gamma                90
_cell_volume                     2265.93
loop_
_atom_site_label
_atom_site_type_symbol
_atom_site_fract_x
_atom_site_fract_y
_atom_site_fract_z
Fe1 Fe 0.50000 0.50000 0.50000
O1 O 0.46470 0.31010 0.57350
O2 O 0.50000 0.61970 0.75000
O3 O 0.44240 0.23010 0.32380
O4 O 0.36730 0.36670 0.41760
O5 O 0.46420 0.69990 0.41490
N1 N 0.38620 0.08640 0.47090
C1 C 0.44140 0.23660 0.48410
C2 C 0.41350 0.15720 0.57940
C3 C 0.36480 0.19230 0.40410
C4 C 0.33570 0.11840 0.31870
C5 C 0.31270 0.23030 0.23410
C6 C 0.28410 0.16430 0.15190
C7 C 0.28050 -0.03600 0.14660
C8 C 0.30240 -0.14280 0.20030
C9 C 0.33030 -0.08500 0.28830
O1D O 0.53530 0.68990 0.42650
O2D O 0.50000 0.38030 0.25000
O5D O 0.53580 0.30010 0.58510
Fe1B Fe 0.50000 0.50000 1.00000
C1D C 0.55860 0.76340 0.51590
O3D O 0.55760 0.76990 0.67620
C2D C 0.58650 0.84280 0.42060
N1D N 0.61380 0.91360 0.52910
C3D C 0.63520 0.80770 0.59590
O4D O 0.63270 0.63330 0.58240
C4D C 0.66430 0.88160 0.68130
C5D C 0.68730 0.76970 0.76590
C9D C 0.66970 1.08500 0.71170
C6D C 0.71590 0.83570 0.84810
C8D C 0.69760 1.14280 0.79970
C7D C 0.71950 1.03600 0.85340
O6 O 0.40090 0.32100 0.03760
loop_
_geom_bond_atom_site_label_1
_geom_bond_atom_site_label_2
_geom_bond_site_symmetry_1
_geom_bond_site_symmetry_2
Fe1 O1 1_555 1_555
O1 C1 1_555 1_555
O2 Fe1 1_555 1_555
O3 C1 1_555 1_555
O4 C3 1_555 1_555
O5 Fe1 1_555 1_555
N1 C2 1_555 1_555
C1 C2 1_555 1_555
C3 N1 1_555 1_555
C4 C3 1_555 1_555
C5 C4 1_555 1_555
C6 C5 1_555 1_555
C7 C6 1_555 1_555
C8 C7 1_555 1_555
C9 C4 1_555 1_555
O1D Fe1 1_555 1_555
O2D Fe1 1_555 1_555
O5D Fe1 1_555 1_555
Fe1B O2 1_555 1_555
C1D O1D 1_555 1_555
O3D C1D 1_555 1_555
C2D C1D 1_555 1_555
N1D C2D 1_555 1_555
C3D N1D 1_555 1_555
O4D C3D 1_555 1_555
C4D C3D 1_555 1_555
C5D C4D 1_555 1_555
C9D C4D 1_555 1_555
C6D C5D 1_555 1_555
C8D C9D 1_555 1_555
C7D C6D 1_555 1_555
C8 C9 1_555 1_555
C8D C7D 1_555 1_555

#END
