
#######################################################################
#
#                 Cambridge Crystallographic Data Centre
#                                CCDC 
#
#######################################################################
#
# If this CIF has been generated from an entry in the Cambridge 
# Structural Database, then it will include bibliographic, chemical, 
# crystal, experimental, refinement or atomic coordinate data resulting 
# from the CCDC's data processing and validation procedures.
#
#######################################################################

data_BITDOZ
_symmetry_cell_setting           orthorhombic
_symmetry_space_group_name_H-M   'P c c a'
_symmetry_Int_Tables_number      54
_space_group_name_Hall           '-P 2a 2ac'
loop_
_symmetry_equiv_pos_site_id
_symmetry_equiv_pos_as_xyz
1 x,y,z
2 1/2-x,-y,z
3 -x,y,1/2-z
4 1/2+x,-y,1/2-z
5 -x,-y,-z
6 1/2+x,y,-z
7 x,-y,1/2+z
8 1/2-x,y,1/2+z
_cell_length_a                   24.293(5)
_cell_length_b                   10.896(2)
_cell_length_c                   29.975(6)
_cell_angle_alpha                90
_cell_angle_beta                 90
_cell_angle_gamma                90
_cell_volume                     7934.28
loop_
_atom_site_label
_atom_site_type_symbol
_atom_site_fract_x
_atom_site_fract_y
_atom_site_fract_z
Mo1 Mo 0.36466(5) 0.28125(11) 0.57343(3)
Mo2 Mo 0.25449(4) 0.25698(7) 0.65762(3)
Mo3 Mo 0.35916(3) 0.50993(8) 0.49653(3)
Mo4 Mo 0.26258(4) 0.25910(7) 0.49637(3)
Mo5 Mo 0.35827(4) 0.52806(8) 0.65712(3)
Mo6 Mo 0.15291(6) 0.24729(11) 0.58027(4)
V1 V 0.2500 0.5000 0.71133(7)
V2 V 0.2500 0.5000 0.44270(7)
P1 P 0.2500 0.5000 0.57699(10)
O1 O 0.4144(4) 0.1880(8) 0.5836(2)
O2 O 0.1107(3) 0.1347(8) 0.5703(3)
O3 O 0.2690(3) 0.1560(7) 0.6982(2)
O4 O 0.3772(3) 0.4151(6) 0.6154(2)
O5 O 0.3838(3) 0.6635(6) 0.6287(2)
O6 O 0.4055(4) 0.5102(7) 0.6985(2)
O7 O 0.1988(3) 0.1784(6) 0.6279(2)
O8 O 0.4036(3) 0.5461(7) 0.4555(2)
O9 O 0.3016(3) 0.4012(6) 0.6789(2)
O10 O 0.2838(3) 0.5884(6) 0.60644(19)
O11 O 0.2891(3) 0.4253(6) 0.54790(19)
O12 O 0.3072(3) 0.2306(6) 0.6158(2)
O13 O 0.2544(3) 0.1543(6) 0.4556(2)
O14 O 0.2500 0.5000 0.7642(3)
O15 O 0.3939(3) 0.3841(6) 0.5251(2)
O16 O 0.3698(3) 0.6274(7) 0.5381(2)
O17 O 0.3236(3) 0.1988(6) 0.5256(2)
O18 O 0.2127(3) 0.2145(6) 0.5385(2)
O19 O 0.2500 0.5000 0.3882(3)
O20 O 0.3087(3) 0.3878(6) 0.46359(19)
O21 O 0.2938(3) 0.6137(6) 0.47497(19)
O22 O 0.3003(3) 0.6317(6) 0.6907(2)
N1 N 0.3206(4) 1.3096(7) 0.3283(3)
Cu1 Cu 0.31509(7) 0.48538(10) 0.32909(5)
N2 N 0.3320(4) 0.6581(7) 0.3297(3)
C1 C 0.3326(7) 0.7207(10) 0.3663(4)
H1 H 0.3314 0.6781 0.3931
C2 C 0.3223(6) 1.2466(9) 0.3653(4)
H2 H 0.3187 1.2895 0.3920
C3 C 0.3245(6) 1.1177(9) 0.2905(3)
H3 H 0.3252 1.0761 0.2634
C4 C 0.3351(6) 0.8499(9) 0.3679(3)
H4 H 0.3390 0.8897 0.3952
C5 C 0.3323(6) 0.7224(9) 0.2914(4)
H5 H 0.3325 0.6798 0.2646
C6 C 0.3292(7) 1.1191(9) 0.3678(3)
H6 H 0.3344 1.0807 0.3952
C7 C 0.3322(5) 0.8486(9) 0.2903(3)
H7 H 0.3324 0.8890 0.2630
C8 C 0.3199(6) 1.2435(9) 0.2908(4)
H8 H 0.3161 1.2843 0.2637
C9 C 0.3318(4) 0.9162(7) 0.3296(3)
C10 C 0.3281(4) 1.0526(8) 0.3295(3)
O10A O 0.2162(3) 0.4116(6) 0.60644(19)
O11A O 0.2109(3) 0.5747(6) 0.54790(19)
Mo1A Mo 0.13534(5) 0.71875(11) 0.57343(3)
Mo2A Mo 0.24551(4) 0.74302(7) 0.65762(3)
Mo3A Mo 0.14084(3) 0.49007(8) 0.49653(3)
Mo4A Mo 0.23742(4) 0.74090(7) 0.49637(3)
Mo5A Mo 0.14173(4) 0.47194(8) 0.65712(3)
Mo6A Mo 0.34709(6) 0.75271(11) 0.58027(4)
O1A O 0.0856(4) 0.8120(8) 0.5836(2)
O2A O 0.3893(3) 0.8653(8) 0.5703(3)
O3A O 0.2310(3) 0.8440(7) 0.6982(2)
O4A O 0.1228(3) 0.5849(6) 0.6154(2)
O5A O 0.1162(3) 0.3365(6) 0.6287(2)
O6A O 0.0945(4) 0.4898(7) 0.6985(2)
O7A O 0.3012(3) 0.8216(6) 0.6279(2)
O8A O 0.0964(3) 0.4539(7) 0.4555(2)
O9A O 0.1984(3) 0.5988(6) 0.6789(2)
O12A O 0.1928(3) 0.7694(6) 0.6158(2)
O13A O 0.2456(3) 0.8457(6) 0.4556(2)
O15A O 0.1061(3) 0.6159(6) 0.5251(2)
O16A O 0.1302(3) 0.3726(7) 0.5381(2)
O17A O 0.1764(3) 0.8012(6) 0.5256(2)
O18A O 0.2873(3) 0.7855(6) 0.5385(2)
O20A O 0.1913(3) 0.6122(6) 0.46359(19)
O21A O 0.2062(3) 0.3863(6) 0.47497(19)
O22A O 0.1997(3) 0.3683(6) 0.6907(2)
N1A N 0.1794(4) -0.3096(7) 0.3283(3)
Cu1A Cu 0.18491(7) 0.51462(10) 0.32909(5)
N2A N 0.1680(4) 0.3419(7) 0.3297(3)
C1A C 0.1674(7) 0.2793(10) 0.3663(4)
H1A H 0.1686 0.3219 0.3931
C2A C 0.1777(6) -0.2466(9) 0.3653(4)
H2A H 0.1813 -0.2895 0.3920
C3A C 0.1755(6) -0.1177(9) 0.2905(3)
H3A H 0.1748 -0.0761 0.2634
C4A C 0.1649(6) 0.1501(9) 0.3679(3)
H4A H 0.1610 0.1103 0.3952
C5A C 0.1677(6) 0.2776(9) 0.2914(4)
H5A H 0.1675 0.3202 0.2646
C6A C 0.1708(7) -0.1191(9) 0.3678(3)
H6A H 0.1656 -0.0807 0.3952
C7A C 0.1678(5) 0.1514(9) 0.2903(3)
H7A H 0.1676 0.1110 0.2630
C8A C 0.1801(6) -0.2435(9) 0.2908(4)
H8A H 0.1839 -0.2843 0.2637
C9A C 0.1682(4) 0.0838(7) 0.3296(3)
C10A C 0.1719(4) -0.0526(8) 0.3295(3)
O14F O 0.2500 0.5000 0.2642(3)
N1_2 N 0.3206(4) 0.3096(7) 0.3283(3)
N1A_2 N 0.1794(4) 0.6904(7) 0.3283(3)
Cu1_2 Cu 0.31509(7) 1.48538(10) 0.32909(5)
Cu1A_2 Cu 0.18491(7) -0.48538(10) 0.32909(5)
Cu1F Cu 0.31509(7) 0.51462(10) 0.82909(5)
Cu1G Cu 0.18491(7) 0.48538(10) 0.82909(5)
Cu2 Cu 0.0000 1.27580(17) 0.2500
Cu3 Cu 0.0000 2.0000 0.0000
N3 N -0.0231(4) 1.3791(8) 0.1976(3)
N4 N 0.0447(4) 1.1323(7) 0.2232(2)
N5 N -0.0107(7) 1.852(2) 0.0335(6)
C11 C 0.0238(4) 1.0215(9) 0.2350(3)
C12 C -0.0049(5) 1.4433(14) 0.1222(4)
H9 H 0.0088 1.4233 0.0942
C13 C 0.0218(5) 0.7960(10) 0.2353(4)
H10 H 0.0366 0.7223 0.2254
C14 C -0.0062(5) 1.3559(13) 0.1549(4)
H11 H 0.0049 1.2767 0.1477
C15 C -0.0455(5) 1.5799(12) 0.1723(4)
H12 H -0.0618 1.6549 0.1788
C16 C -0.0431(5) 1.4907(10) 0.2039(4)
H13 H -0.0566 1.5096 0.2321
C17 C 0.0443(5) 0.9110(10) 0.2203(4)
C18 C 0.0864(5) 1.1316(10) 0.1945(3)
H14 H 0.0998 1.2074 0.1852
C19 C 0.1120(5) 1.0262(11) 0.1768(4)
H15 H 0.1416 1.0308 0.1572
C20 C 0.0903(5) 0.9166(10) 0.1904(4)
H16 H 0.1057 0.8440 0.1800
C21 C -0.0248(14) 1.874(3) 0.0768(9)
H17 H -0.0285 1.9541 0.0870
C22 C -0.0339(14) 1.774(2) 0.1063(9)
H18 H -0.0497 1.7900 0.1340
C23 C -0.0013(6) 1.6379(18) 0.0528(5)
H19 H 0.0106 1.5609 0.0435
C24 C -0.0204(6) 1.6554(16) 0.0961(5)
C25 C -0.0235(5) 1.5590(13) 0.1301(4)
C26 C -0.0004(8) 1.736(2) 0.0236(6)
H20 H 0.0083 1.7193 -0.0060
N4B N -0.0447(4) 1.1323(7) 0.2768(2)
C11B C -0.0238(4) 1.0215(9) 0.2650(3)
C13B C -0.0218(5) 0.7960(10) 0.2647(4)
H10B H -0.0366 0.7223 0.2746
C17B C -0.0443(5) 0.9110(10) 0.2797(4)
C18B C -0.0864(5) 1.1316(10) 0.3055(3)
H14B H -0.0998 1.2074 0.3148
C19B C -0.1120(5) 1.0262(11) 0.3232(4)
H15B H -0.1416 1.0308 0.3428
C20B C -0.0903(5) 0.9166(10) 0.3096(4)
H16B H -0.1057 0.8440 0.3200
N3B N 0.0231(4) 1.3791(8) 0.3024(3)
N5B N 0.0107(7) 1.852(2) 0.4665(6)
C12B C 0.0049(5) 1.4433(14) 0.3778(4)
H9B H -0.0088 1.4233 0.4058
C14B C 0.0062(5) 1.3559(13) 0.3451(4)
H11B H -0.0049 1.2767 0.3523
C15B C 0.0455(5) 1.5799(12) 0.3277(4)
H12B H 0.0618 1.6549 0.3212
C16B C 0.0431(5) 1.4907(10) 0.2961(4)
H13B H 0.0566 1.5096 0.2679
C21B C 0.0248(14) 1.874(3) 0.4232(9)
H17B H 0.0285 1.9541 0.4130
C22B C 0.0339(14) 1.774(2) 0.3937(9)
H18B H 0.0497 1.7900 0.3660
C23B C 0.0013(6) 1.6379(18) 0.4472(5)
H19B H -0.0106 1.5609 0.4565
C24B C 0.0204(6) 1.6554(16) 0.4039(5)
C25B C 0.0235(5) 1.5590(13) 0.3699(4)
C26B C 0.0004(8) 1.736(2) 0.4764(6)
H20B H -0.0083 1.7193 0.5060
Cu3B Cu 0.0000 2.0000 0.5000
N5D N 0.0107(7) 2.148(2) -0.0335(6)
O23 O 0.2500 0.0000 0.5761(5)
O24 O 0.3694(7) -0.0242(14) 0.4757(5)
loop_
_geom_bond_atom_site_label_1
_geom_bond_atom_site_label_2
_geom_bond_site_symmetry_1
_geom_bond_site_symmetry_2
Mo1 O1 1_555 1_555
Mo2 O3 1_555 1_555
Mo3 O8 1_555 1_555
Mo4 O11 1_555 1_555
Mo5 O4 1_555 1_555
Mo6 O2 1_555 1_555
V1 O9 1_555 1_555
V2 O19 1_555 1_555
P1 O10 1_555 1_555
O4 Mo1 1_555 1_555
O5 Mo5 1_555 1_555
O6 Mo5 1_555 1_555
O7 Mo2 1_555 1_555
O9 Mo2 1_555 1_555
O10 Mo5 1_555 1_555
O11 Mo1 1_555 1_555
O12 Mo1 1_555 1_555
O13 Mo4 1_555 1_555
O14 V1 1_555 1_555
O15 Mo1 1_555 1_555
O16 Mo3 1_555 1_555
O17 Mo1 1_555 1_555
O18 Mo4 1_555 1_555
O19 Cu1 1_555 1_555
O20 Mo3 1_555 1_555
O21 Mo3 1_555 1_555
O22 Mo5 1_555 1_555
N1 C2 1_555 1_555
Cu1 N2 1_555 1_555
N2 C1 1_555 1_555
C1 H1 1_555 1_555
C2 H2 1_555 1_555
C3 H3 1_555 1_555
C4 C1 1_555 1_555
H4 C4 1_555 1_555
C5 N2 1_555 1_555
H5 C5 1_555 1_555
C6 C2 1_555 1_555
H6 C6 1_555 1_555
C7 C5 1_555 1_555
H7 C7 1_555 1_555
C8 N1 1_555 1_555
H8 C8 1_555 1_555
C9 C4 1_555 1_555
C10 C3 1_555 1_555
Cu2 N3 1_555 1_555
Cu3 N5 1_555 1_555
N3 C14 1_555 1_555
N4 Cu2 1_555 1_555
N5 C21 1_555 1_555
C11 N4 1_555 1_555
C12 H9 1_555 1_555
C13 H10 1_555 1_555
C14 C12 1_555 1_555
H11 C14 1_555 1_555
C15 H12 1_555 1_555
C16 N3 1_555 1_555
H13 C16 1_555 1_555
C17 C11 1_555 1_555
C18 N4 1_555 1_555
H14 C18 1_555 1_555
C19 C18 1_555 1_555
H15 C19 1_555 1_555
C20 C17 1_555 1_555
H16 C20 1_555 1_555
C21 H17 1_555 1_555
C22 C21 1_555 1_555
H18 C22 1_555 1_555
C23 H19 1_555 1_555
C24 C22 1_555 1_555
C25 C12 1_555 1_555
C26 N5 1_555 1_555
H20 C26 1_555 1_555
O10A Mo2 1_555 1_555
O11A P1 1_555 1_555
Mo1A O11A 1_555 1_555
Mo2A O10 1_555 1_555
Mo3A O11A 1_555 1_555
Mo4A O21 1_555 1_555
Mo5A O10A 1_555 1_555
Mo6A O5 1_555 1_555
O1A Mo1A 1_555 1_555
O2A Mo6A 1_555 1_555
O3A Mo2A 1_555 1_555
O4A Mo1A 1_555 1_555
O5A Mo6 1_555 1_555
O6A Mo5A 1_555 1_555
O7A Mo2A 1_555 1_555
O8A Mo3A 1_555 1_555
O9A V1 1_555 1_555
O12A Mo1A 1_555 1_555
O13A Mo4A 1_555 1_555
O15A Mo1A 1_555 1_555
O16A Mo6 1_555 1_555
O17A Mo1A 1_555 1_555
O18A Mo4A 1_555 1_555
O20A V2 1_555 1_555
O21A Mo4 1_555 1_555
O22A Mo2 1_555 1_555
N1A C2A 1_555 1_555
Cu1A O19 1_555 1_555
N2A Cu1A 1_555 1_555
C1A N2A 1_555 1_555
H1A C1A 1_555 1_555
C2A H2A 1_555 1_555
C3A H3A 1_555 1_555
C4A C1A 1_555 1_555
H4A C4A 1_555 1_555
C5A N2A 1_555 1_555
H5A C5A 1_555 1_555
C6A C2A 1_555 1_555
H6A C6A 1_555 1_555
C7A C5A 1_555 1_555
H7A C7A 1_555 1_555
C8A N1A 1_555 1_555
H8A C8A 1_555 1_555
C9A C4A 1_555 1_555
C10A C3A 1_555 1_555
O14F Cu1 1_555 1_555
N1_2 Cu1 1_555 1_555
N1A_2 Cu1A 1_555 1_555
Cu1_2 N1 1_555 1_555
Cu1A_2 N1A 1_555 1_555
Cu1F O14 1_555 1_555
Cu1G O14 1_555 1_555
N4B Cu2 1_555 1_555
C11B C11 1_555 1_555
C13B C13 1_555 1_555
H10B C13B 1_555 1_555
C17B C11B 1_555 1_555
C18B N4B 1_555 1_555
H14B C18B 1_555 1_555
C19B C18B 1_555 1_555
H15B C19B 1_555 1_555
C20B C17B 1_555 1_555
H16B C20B 1_555 1_555
N3B Cu2 1_555 1_555
N5B C21B 1_555 1_555
C12B H9B 1_555 1_555
C14B N3B 1_555 1_555
H11B C14B 1_555 1_555
C15B H12B 1_555 1_555
C16B N3B 1_555 1_555
H13B C16B 1_555 1_555
C21B H17B 1_555 1_555
C22B C21B 1_555 1_555
H18B C22B 1_555 1_555
C23B H19B 1_555 1_555
C24B C22B 1_555 1_555
C25B C12B 1_555 1_555
C26B N5B 1_555 1_555
H20B C26B 1_555 1_555
Cu3B N5B 1_555 1_555
N5D Cu3 1_555 1_555
Mo2 O12 1_555 1_555
Mo3 O11 1_555 1_555
Mo3 O15 1_555 1_555
Mo4 O17 1_555 1_555
Mo4 O20 1_555 1_555
Mo5 O9 1_555 1_555
Mo6 O7 1_555 1_555
Mo6 O18 1_555 1_555
Mo6 O10A 1_555 1_555
V1 O22 1_555 1_555
V1 O22A 1_555 1_555
V2 O20 1_555 1_555
V2 O21 1_555 1_555
V2 O21A 1_555 1_555
P1 O11 1_555 1_555
P1 O10A 1_555 1_555
O10 Mo6A 1_555 1_555
O16 Mo6A 1_555 1_555
O22 Mo2A 1_555 1_555
C3 C8 1_555 1_555
C6 C10 1_555 1_555
C7 C9 1_555 1_555
C9 C10 1_555 1_555
C13 C17 1_555 1_555
C15 C16 1_555 1_555
C15 C25 1_555 1_555
C19 C20 1_555 1_555
C23 C24 1_555 1_555
C23 C26 1_555 1_555
C24 C25 1_555 1_555
O11A Mo4A 1_555 1_555
Mo2A O9A 1_555 1_555
Mo2A O12A 1_555 1_555
Mo3A O15A 1_555 1_555
Mo3A O16A 1_555 1_555
Mo3A O20A 1_555 1_555
Mo3A O21A 1_555 1_555
Mo4A O17A 1_555 1_555
Mo4A O20A 1_555 1_555
Mo5A O4A 1_555 1_555
Mo5A O5A 1_555 1_555
Mo5A O9A 1_555 1_555
Mo5A O22A 1_555 1_555
Mo6A O7A 1_555 1_555
Mo6A O18A 1_555 1_555
Cu1A O14F 1_555 1_555
C3A C8A 1_555 1_555
C6A C10A 1_555 1_555
C7A C9A 1_555 1_555
C9A C10A 1_555 1_555
N4B C11B 1_555 1_555
C13B C17B 1_555 1_555
C19B C20B 1_555 1_555
C12B C14B 1_555 1_555
C15B C16B 1_555 1_555
C15B C25B 1_555 1_555
C23B C24B 1_555 1_555
C23B C26B 1_555 1_555
C24B C25B 1_555 1_555

#END
