
#######################################################################
#
#                 Cambridge Crystallographic Data Centre
#                                CCDC 
#
#######################################################################
#
# If this CIF has been generated from an entry in the Cambridge 
# Structural Database, then it will include bibliographic, chemical, 
# crystal, experimental, refinement or atomic coordinate data resulting 
# from the CCDC's data processing and validation procedures.
#
#######################################################################

data_BITLUL
_symmetry_cell_setting           orthorhombic
_symmetry_space_group_name_H-M   'P b c n'
_symmetry_Int_Tables_number      60
_space_group_name_Hall           '-P 2n 2ab'
loop_
_symmetry_equiv_pos_site_id
_symmetry_equiv_pos_as_xyz
1 x,y,z
2 1/2-x,1/2+y,z
3 x,-y,1/2+z
4 1/2-x,1/2-y,1/2+z
5 -x,-y,-z
6 1/2+x,1/2-y,-z
7 -x,y,1/2-z
8 1/2+x,1/2+y,1/2-z
_cell_length_a                   5.676(1)
_cell_length_b                   11.289(2)
_cell_length_c                   10.536(2)
_cell_angle_alpha                90
_cell_angle_beta                 90
_cell_angle_gamma                90
_cell_volume                     675.109
loop_
_atom_site_label
_atom_site_type_symbol
_atom_site_fract_x
_atom_site_fract_y
_atom_site_fract_z
U1 U 0.00000 0.18490 0.25000
O1 O 0.00000 -0.03320 0.25000
O2 O 0.26200 0.18620 0.17280
O3 O 0.37390 -0.13660 0.36260
O4 O 0.19810 0.11680 0.43520
C1 C 0.45450 -0.06000 0.43620
C2 C 0.37260 0.05260 0.46710
O2F O -0.26200 0.18620 0.32720
O3G O -0.12610 0.36340 0.13740
O4F O -0.19810 0.11680 0.06480
C1D C 0.54550 0.06000 0.56380
O3A O 0.12610 0.36340 0.36260
C2D C 0.62740 -0.05260 0.53290
O3D O 0.62610 0.13660 0.63740
U1A U 0.50000 -0.31510 0.25000
O4D O 0.80190 -0.11680 0.56480
U1C U 0.50000 0.31510 0.75000
U1B U 1.00000 -0.18490 0.75000
loop_
_geom_bond_atom_site_label_1
_geom_bond_atom_site_label_2
_geom_bond_site_symmetry_1
_geom_bond_site_symmetry_2
U1 O1 1_555 1_555
O2 U1 1_555 1_555
O3 C1 1_555 1_555
O4 U1 1_555 1_555
C1 C2 1_555 1_555
C2 O4 1_555 1_555
O2F U1 1_555 1_555
O3G U1 1_555 1_555
O4F U1 1_555 1_555
C1D C2 1_555 1_555
O3A U1 1_555 1_555
C2D C1 1_555 1_555
O3D C1D 1_555 1_555
U1A O3 1_555 1_555
O4D C2D 1_555 1_555
U1C O3D 1_555 1_555
U1B O4D 1_555 1_555
C1D C2D 1_555 1_555

#END
