
#######################################################################
#
#                 Cambridge Crystallographic Data Centre
#                                CCDC 
#
#######################################################################
#
# If this CIF has been generated from an entry in the Cambridge 
# Structural Database, then it will include bibliographic, chemical, 
# crystal, experimental, refinement or atomic coordinate data resulting 
# from the CCDC's data processing and validation procedures.
#
#######################################################################

data_BIVTIK
_symmetry_cell_setting           monoclinic
_symmetry_space_group_name_H-M   'P 21/n'
_symmetry_Int_Tables_number      14
_space_group_name_Hall           '-P 2yn'
loop_
_symmetry_equiv_pos_site_id
_symmetry_equiv_pos_as_xyz
1 x,y,z
2 1/2-x,1/2+y,1/2-z
3 -x,-y,-z
4 1/2+x,1/2-y,1/2+z
_cell_length_a                   11.8313(7)
_cell_length_b                   15.7956(8)
_cell_length_c                   15.0349(9)
_cell_angle_alpha                90
_cell_angle_beta                 104.773(3)
_cell_angle_gamma                90
_cell_volume                     2716.88
loop_
_atom_site_label
_atom_site_type_symbol
_atom_site_fract_x
_atom_site_fract_y
_atom_site_fract_z
Co1 Co 0.0000 0.0000 0.0000
O1 O 0.11571(14) 0.02186(10) -0.07724(11)
H1 H 0.183(3) 0.0100(17) -0.067(2)
H2 H 0.096(3) 0.028(2) -0.133(2)
N1 N -0.11690(15) 0.09371(10) -0.08518(11)
N2 N -0.41942(14) 0.39585(10) -0.40715(11)
C1 C -0.06733(19) 0.16295(13) -0.10968(15)
H5 H 0.016(2) 0.1688(15) -0.0844(16)
C2 C -0.12794(19) 0.22237(14) -0.16981(16)
H6 H -0.087(2) 0.2699(16) -0.1822(17)
C3 C -0.23280(19) 0.08645(14) -0.11881(16)
H7 H -0.269(2) 0.0396(17) -0.0995(17)
C4 C -0.30037(19) 0.14387(14) -0.17893(16)
H8 H -0.379(3) 0.1345(17) -0.1983(19)
C5 C -0.24670(18) 0.21272(12) -0.20805(14)
C6 C -0.31002(17) 0.27448(12) -0.27784(14)
C7 C -0.42403(19) 0.29957(14) -0.28422(15)
H9 H -0.465(2) 0.2780(15) -0.2428(16)
C8 C -0.47467(19) 0.35982(14) -0.34925(15)
H10 H -0.554(2) 0.3763(16) -0.3532(17)
C9 C -0.25450(19) 0.30876(14) -0.33994(15)
H11 H -0.180(2) 0.2908(16) -0.3421(17)
C10 C -0.31152(18) 0.36779(14) -0.40296(14)
H12 H -0.273(2) 0.3921(15) -0.4465(17)
Co1C Co -0.5000 0.5000 -0.5000
Co1C_2 Co 0.5000 -0.5000 0.5000
O1B O -0.11571(14) -0.02186(10) 0.07724(11)
H1B H -0.183(3) -0.0100(17) 0.067(2)
H2B H -0.096(3) -0.028(2) 0.133(2)
N1B N 0.11690(15) -0.09371(10) 0.08518(11)
N2B N 0.41942(14) -0.39585(10) 0.40715(11)
N2C N 0.08058(14) 0.10415(10) 0.09285(11)
N2A N -0.08058(14) -0.10415(10) -0.09285(11)
C1B C 0.06733(19) -0.16295(13) 0.10968(15)
H5B H -0.016(2) -0.1688(15) 0.0844(16)
C2B C 0.12794(19) -0.22237(14) 0.16981(16)
H6B H 0.087(2) -0.2699(16) 0.1822(17)
C3B C 0.23280(19) -0.08645(14) 0.11881(16)
H7B H 0.269(2) -0.0396(17) 0.0995(17)
C4B C 0.30037(19) -0.14387(14) 0.17893(16)
H8B H 0.379(3) -0.1345(17) 0.1983(19)
C5B C 0.24670(18) -0.21272(12) 0.20805(14)
C6B C 0.31002(17) -0.27448(12) 0.27784(14)
C7B C 0.42403(19) -0.29957(14) 0.28422(15)
H9B H 0.465(2) -0.2780(15) 0.2428(16)
C8B C 0.47467(19) -0.35982(14) 0.34925(15)
H10B H 0.554(2) -0.3763(16) 0.3532(17)
C9B C 0.25450(19) -0.30876(14) 0.33994(15)
H11B H 0.180(2) -0.2908(16) 0.3421(17)
C10B C 0.31152(18) -0.36779(14) 0.40296(14)
H12B H 0.273(2) -0.3921(15) 0.4465(17)
S1 S -0.02285(5) 0.28743(4) -0.52331(4)
O2 O -0.10767(17) 0.26331(17) -0.47571(15)
O3 O -0.04837(18) 0.25707(17) -0.61575(13)
O5 O -0.0007(2) 0.37756(14) -0.5186(2)
C16 C 0.11290(19) 0.24086(15) -0.46417(16)
C17 C 0.1667(2) 0.18946(18) -0.5159(2)
H17 H 0.128(3) 0.179(2) -0.580(2)
C18 C 0.2724(3) 0.1514(2) -0.4763(2)
H18 H 0.306(3) 0.116(2) -0.513(2)
C19 C 0.3242(3) 0.1639(2) -0.3848(3)
H19 H 0.393(3) 0.135(2) -0.354(2)
C20 C 0.2715(3) 0.2140(2) -0.3324(2)
H20 H 0.311(3) 0.220(2) -0.266(2)
C21 C 0.1644(2) 0.25433(15) -0.37011(17)
C22 C 0.1126(2) 0.30851(17) -0.31111(18)
H21 H 0.046(3) 0.3435(19) -0.340(2)
C23 C 0.1472(2) 0.31253(18) -0.22031(19)
H22 H 0.205(3) 0.2765(19) -0.188(2)
C24 C 0.1014(2) 0.36778(16) -0.15899(17)
C25 C 0.1397(2) 0.3565(2) -0.06407(19)
H23 H 0.193(3) 0.3138(19) -0.045(2)
C26 C 0.1003(2) 0.4071(2) -0.00345(19)
H24 H 0.126(3) 0.397(2) 0.061(2)
C27 C 0.0203(3) 0.43145(18) -0.18897(19)
H25 H -0.005(3) 0.443(2) -0.251(2)
C28 C -0.0199(3) 0.48167(18) -0.12818(19)
H26 H -0.079(3) 0.523(2) -0.149(2)
C29 C 0.0205(2) 0.47178(15) -0.03283(17)
S1B S 0.02285(5) 0.71257(4) 0.52331(4)
O2B O 0.10767(17) 0.73669(17) 0.47571(15)
O3B O 0.04837(18) 0.74293(17) 0.61575(13)
O5B O 0.0007(2) 0.62244(14) 0.5186(2)
C16B C -0.11290(19) 0.75914(15) 0.46417(16)
C17B C -0.1667(2) 0.81054(18) 0.5159(2)
H17B H -0.128(3) 0.821(2) 0.580(2)
C18B C -0.2724(3) 0.8486(2) 0.4763(2)
H18B H -0.306(3) 0.884(2) 0.513(2)
C19B C -0.3242(3) 0.8361(2) 0.3848(3)
H19B H -0.393(3) 0.865(2) 0.354(2)
C20B C -0.2715(3) 0.7860(2) 0.3324(2)
H20B H -0.311(3) 0.780(2) 0.266(2)
C21B C -0.1644(2) 0.74567(15) 0.37011(17)
C22B C -0.1126(2) 0.69149(17) 0.31111(18)
H21B H -0.046(3) 0.6565(19) 0.340(2)
C23B C -0.1472(2) 0.68747(18) 0.22031(19)
H22B H -0.205(3) 0.7235(19) 0.188(2)
C24B C -0.1014(2) 0.63222(16) 0.15899(17)
C25B C -0.1397(2) 0.6435(2) 0.06407(19)
H23B H -0.193(3) 0.6862(19) 0.045(2)
C26B C -0.1003(2) 0.5929(2) 0.00345(19)
H24B H -0.126(3) 0.603(2) -0.061(2)
C27B C -0.0203(3) 0.56855(18) 0.18897(19)
H25B H 0.005(3) 0.557(2) 0.251(2)
C28B C 0.0199(3) 0.51833(18) 0.12818(19)
H26B H 0.079(3) 0.477(2) 0.149(2)
C29B C -0.0205(2) 0.52822(15) 0.03283(17)
O4 O 0.3383(2) -0.00442(19) -0.0570(3)
H3 H 0.374(3) -0.045(3) -0.039(3)
H4 H 0.378(5) 0.043(4) -0.038(4)
N3 N 0.0540(2) 0.03362(18) -0.26071(14)
C11 C -0.0378(4) 0.0639(3) -0.3191(2)
H13 H -0.091(4) 0.092(3) -0.295(3)
C12 C -0.0618(4) 0.0525(3) -0.4132(2)
H14 H -0.131(5) 0.082(4) -0.452(4)
C13 C 0.1241(4) -0.0092(4) -0.2963(2)
H15 H 0.187(5) -0.013(3) -0.259(4)
C14 C 0.1064(4) -0.0241(4) -0.3893(2)
H16 H 0.160(5) -0.045(4) -0.404(4)
C15 C 0.0111(2) 0.00710(15) -0.44968(15)
N3B N -0.0540(2) -0.03362(18) -0.73929(14)
C11B C 0.0378(4) -0.0639(3) -0.6809(2)
H13B H 0.091(4) -0.092(3) -0.705(3)
C12B C 0.0618(4) -0.0525(3) -0.5868(2)
H14B H 0.131(5) -0.082(4) -0.548(4)
C13B C -0.1241(4) 0.0092(4) -0.7037(2)
H15B H -0.187(5) 0.013(3) -0.741(4)
C14B C -0.1064(4) 0.0241(4) -0.6107(2)
H16B H -0.160(5) 0.045(4) -0.596(4)
C15B C -0.0111(2) -0.00710(15) -0.55032(15)
loop_
_geom_bond_atom_site_label_1
_geom_bond_atom_site_label_2
_geom_bond_site_symmetry_1
_geom_bond_site_symmetry_2
Co1 O1 1_555 1_555
S1 O2 1_555 1_555
O1 H1 1_555 1_555
H2 O1 1_555 1_555
O3 S1 1_555 1_555
O4 H3 1_555 1_555
H4 O4 1_555 1_555
O5 S1 1_555 1_555
N1 Co1 1_555 1_555
N2 C8 1_555 1_555
N3 C11 1_555 1_555
C1 N1 1_555 1_555
H5 C1 1_555 1_555
C2 C1 1_555 1_555
H6 C2 1_555 1_555
C3 N1 1_555 1_555
H7 C3 1_555 1_555
C4 C3 1_555 1_555
H8 C4 1_555 1_555
C5 C2 1_555 1_555
C6 C5 1_555 1_555
C7 C6 1_555 1_555
H9 C7 1_555 1_555
C8 C7 1_555 1_555
H10 C8 1_555 1_555
C9 C6 1_555 1_555
H11 C9 1_555 1_555
C10 N2 1_555 1_555
H12 C10 1_555 1_555
C11 H13 1_555 1_555
C12 C11 1_555 1_555
H14 C12 1_555 1_555
C13 N3 1_555 1_555
H15 C13 1_555 1_555
C14 C13 1_555 1_555
H16 C14 1_555 1_555
C15 C12 1_555 1_555
C16 S1 1_555 1_555
C17 C16 1_555 1_555
H17 C17 1_555 1_555
C18 C17 1_555 1_555
H18 C18 1_555 1_555
C19 C18 1_555 1_555
H19 C19 1_555 1_555
C20 C19 1_555 1_555
H20 C20 1_555 1_555
C21 C16 1_555 1_555
C22 C21 1_555 1_555
H21 C22 1_555 1_555
C23 C22 1_555 1_555
H22 C23 1_555 1_555
C24 C23 1_555 1_555
C25 C24 1_555 1_555
H23 C25 1_555 1_555
C26 C25 1_555 1_555
H24 C26 1_555 1_555
C27 C24 1_555 1_555
H25 C27 1_555 1_555
C28 C27 1_555 1_555
H26 C28 1_555 1_555
C29 C26 1_555 1_555
Co1C N2 1_555 1_555
Co1C_2 N2B 1_555 1_555
S1B O2B 1_555 1_555
O1B Co1 1_555 1_555
H1B O1B 1_555 1_555
H2B O1B 1_555 1_555
O3B S1B 1_555 1_555
O5B S1B 1_555 1_555
N1B Co1 1_555 1_555
N2B C8B 1_555 1_555
N2C Co1 1_555 1_555
N2A Co1 1_555 1_555
N3B C11B 1_555 1_555
C1B N1B 1_555 1_555
H5B C1B 1_555 1_555
C2B C1B 1_555 1_555
H6B C2B 1_555 1_555
C3B N1B 1_555 1_555
H7B C3B 1_555 1_555
C4B C3B 1_555 1_555
H8B C4B 1_555 1_555
C5B C2B 1_555 1_555
C6B C5B 1_555 1_555
C7B C6B 1_555 1_555
H9B C7B 1_555 1_555
C8B C7B 1_555 1_555
H10B C8B 1_555 1_555
C9B C6B 1_555 1_555
H11B C9B 1_555 1_555
C10B N2B 1_555 1_555
H12B C10B 1_555 1_555
C11B H13B 1_555 1_555
C12B C11B 1_555 1_555
H14B C12B 1_555 1_555
C13B N3B 1_555 1_555
H15B C13B 1_555 1_555
C14B C13B 1_555 1_555
H16B C14B 1_555 1_555
C15B C15 1_555 1_555
C16B S1B 1_555 1_555
C17B C16B 1_555 1_555
H17B C17B 1_555 1_555
C18B C17B 1_555 1_555
H18B C18B 1_555 1_555
C19B C18B 1_555 1_555
H19B C19B 1_555 1_555
C20B C19B 1_555 1_555
H20B C20B 1_555 1_555
C21B C16B 1_555 1_555
C22B C21B 1_555 1_555
H21B C22B 1_555 1_555
C23B C22B 1_555 1_555
H22B C23B 1_555 1_555
C24B C23B 1_555 1_555
C25B C24B 1_555 1_555
H23B C25B 1_555 1_555
C26B C25B 1_555 1_555
H24B C26B 1_555 1_555
C27B C24B 1_555 1_555
H25B C27B 1_555 1_555
C28B C27B 1_555 1_555
H26B C28B 1_555 1_555
C29B C29 1_555 1_555
C4 C5 1_555 1_555
C9 C10 1_555 1_555
C14 C15 1_555 1_555
C20 C21 1_555 1_555
C28 C29 1_555 1_555
C4B C5B 1_555 1_555
C9B C10B 1_555 1_555
C12B C15B 1_555 1_555
C14B C15B 1_555 1_555
C20B C21B 1_555 1_555
C26B C29B 1_555 1_555
C28B C29B 1_555 1_555

#END
