
#######################################################################
#
#                 Cambridge Crystallographic Data Centre
#                                CCDC 
#
#######################################################################
#
# If this CIF has been generated from an entry in the Cambridge 
# Structural Database, then it will include bibliographic, chemical, 
# crystal, experimental, refinement or atomic coordinate data resulting 
# from the CCDC's data processing and validation procedures.
#
#######################################################################

data_BIVTEG
_symmetry_cell_setting           triclinic
_symmetry_space_group_name_H-M   'P -1'
_symmetry_Int_Tables_number      2
_space_group_name_Hall           '-P 1'
loop_
_symmetry_equiv_pos_site_id
_symmetry_equiv_pos_as_xyz
1 x,y,z
2 -x,-y,-z
_cell_length_a                   10.144
_cell_length_b                   10.6094(3)
_cell_length_c                   11.3345(5)
_cell_angle_alpha                84.816(15)
_cell_angle_beta                 75.745(12)
_cell_angle_gamma                67.251(9)
_cell_volume                     1090.29
loop_
_atom_site_label
_atom_site_type_symbol
_atom_site_fract_x
_atom_site_fract_y
_atom_site_fract_z
Co1 Co 0.0000 0.0000 0.0000
S1 S -0.22269(7) -0.19597(6) 0.07609(6)
O2 O -0.1668(3) -0.2953(2) -0.02124(19)
O3 O -0.3773(2) -0.1168(2) 0.0945(2)
O4 O -0.13748(19) -0.10910(17) 0.06040(16)
N1 N 0.1951(2) -0.19262(19) -0.02181(17)
N2 N -0.0201(2) 0.0015(2) -0.18344(17)
C1 C 0.3239(3) -0.1918(3) -0.0125(3)
H1 H 0.327(3) -0.106(3) -0.012(3)
C2 C 0.4440(3) -0.3083(3) -0.0042(3)
H2 H 0.530(4) -0.297(3) -0.001(3)
C3 C 0.4367(3) -0.4360(2) -0.0050(2)
C4 C 0.3039(3) -0.4373(3) -0.0152(3)
H3 H 0.288(4) -0.517(3) -0.013(3)
C5 C 0.1886(3) -0.3158(3) -0.0238(2)
H4 H 0.091(3) -0.315(3) -0.026(2)
C6 C 0.0060(5) -0.1106(3) -0.2419(3)
H5 H 0.035(4) -0.187(4) -0.197(3)
C7 C 0.0160(5) -0.1156(3) -0.3649(3)
H6 H 0.043(4) -0.197(4) -0.406(4)
C8 C -0.0076(3) 0.0013(3) -0.4335(2)
C9 C -0.0412(3) 0.1191(3) -0.3719(2)
H7 H -0.059(4) 0.205(3) -0.408(3)
C10 C -0.0455(3) 0.1155(3) -0.2496(2)
H8 H -0.069(3) 0.200(3) -0.204(3)
C11 C -0.1917(3) -0.2896(3) 0.2122(2)
C12 C -0.1158(4) -0.4295(3) 0.1992(3)
H9 H -0.083(4) -0.476(3) 0.116(3)
C13 C -0.0897(6) -0.5090(4) 0.2998(4)
H10 H -0.034(5) -0.602(5) 0.282(4)
C14 C -0.1420(5) -0.4494(4) 0.4138(4)
H11 H -0.126(4) -0.506(4) 0.483(3)
C15 C -0.2140(4) -0.3106(3) 0.4273(3)
H12 H -0.250(4) -0.263(4) 0.511(3)
C16 C -0.2399(3) -0.2249(3) 0.3267(3)
C17 C -0.3063(3) -0.0761(3) 0.3416(3)
H13 H -0.321(3) -0.031(3) 0.271(3)
C18 C -0.3333(3) -0.0086(3) 0.4428(3)
H14 H -0.314(4) -0.056(3) 0.520(3)
C19 C -0.3860(3) 0.1400(3) 0.4572(3)
C20 C -0.4005(4) 0.1946(4) 0.5687(3)
H15 H -0.383(4) 0.137(4) 0.628(3)
C21 C -0.4437(4) 0.3333(3) 0.5850(3)
H16 H -0.457(4) 0.366(4) 0.665(3)
C22 C -0.4757(3) 0.4249(3) 0.4918(3)
C23 C -0.4625(5) 0.3699(4) 0.3808(3)
H17 H -0.496(4) 0.429(4) 0.317(4)
C24 C -0.4197(5) 0.2310(4) 0.3643(3)
H18 H -0.414(5) 0.198(5) 0.288(4)
Co1_2 Co -1.0000 1.0000 1.0000
Co1_3 Co 1.0000 -1.0000 0.0000
Co1_4 Co 0.0000 0.0000 -1.0000
S1A S -0.77731(7) 1.19597(6) 0.92391(6)
O2A O -0.8332(3) 1.2953(2) 1.02124(19)
O3A O -0.6227(2) 1.1168(2) 0.9055(2)
O4A O -0.86252(19) 1.10910(17) 0.93960(16)
O4A_2 O 0.13748(19) 0.10910(17) -0.06040(16)
N1A N 0.8049(2) -0.80738(19) 0.02181(17)
N1A_2 N -0.1951(2) 0.19262(19) 0.02181(17)
N2A N 0.0201(2) -0.0015(2) -0.81656(17)
N2A_2 N 0.0201(2) -0.0015(2) 0.18344(17)
C1A C 0.6761(3) -0.8082(3) 0.0125(3)
H1A H 0.673(3) -0.894(3) 0.012(3)
C2A C 0.5560(3) -0.6917(3) 0.0042(3)
H2A H 0.470(4) -0.703(3) 0.001(3)
C3A C 0.5633(3) -0.5640(2) 0.0050(2)
C4A C 0.6961(3) -0.5627(3) 0.0152(3)
H3A H 0.712(4) -0.483(3) 0.013(3)
C5A C 0.8114(3) -0.6842(3) 0.0238(2)
H4A H 0.909(3) -0.685(3) 0.026(2)
C6A C -0.0060(5) 0.1106(3) -0.7581(3)
H5A H -0.035(4) 0.187(4) -0.803(3)
C7A C -0.0160(5) 0.1156(3) -0.6351(3)
H6A H -0.043(4) 0.197(4) -0.594(4)
C8A C 0.0076(3) -0.0013(3) -0.5665(2)
C9A C 0.0412(3) -0.1191(3) -0.6281(2)
H7A H 0.059(4) -0.205(3) -0.592(3)
C10A C 0.0455(3) -0.1155(3) -0.7504(2)
H8A H 0.069(3) -0.200(3) -0.796(3)
C11A C -0.8083(3) 1.2896(3) 0.7878(2)
C12A C -0.8842(4) 1.4295(3) 0.8008(3)
H9A H -0.917(4) 1.476(3) 0.884(3)
C13A C -0.9103(6) 1.5090(4) 0.7002(4)
H10A H -0.966(5) 1.602(5) 0.718(4)
C14A C -0.8580(5) 1.4494(4) 0.5862(4)
H11A H -0.874(4) 1.506(4) 0.517(3)
C15A C -0.7860(4) 1.3106(3) 0.5727(3)
H12A H -0.750(4) 1.263(4) 0.489(3)
C16A C -0.7601(3) 1.2249(3) 0.6733(3)
C17A C -0.6937(3) 1.0761(3) 0.6584(3)
H13A H -0.679(3) 1.031(3) 0.729(3)
C18A C -0.6667(3) 1.0086(3) 0.5572(3)
H14A H -0.686(4) 1.056(3) 0.480(3)
C19A C -0.6140(3) 0.8600(3) 0.5428(3)
C20A C -0.5995(4) 0.8054(4) 0.4313(3)
H15A H -0.617(4) 0.863(4) 0.372(3)
C21A C -0.5563(4) 0.6667(3) 0.4150(3)
H16A H -0.543(4) 0.634(4) 0.335(3)
C22A C -0.5243(3) 0.5751(3) 0.5082(3)
C23A C -0.5375(5) 0.6301(4) 0.6192(3)
H17A H -0.504(4) 0.571(4) 0.683(4)
C24A C -0.5803(5) 0.7690(4) 0.6357(3)
H18A H -0.586(5) 0.802(5) 0.712(4)
O1 O -0.6503(4) 0.1118(5) 0.2138(4)
loop_
_geom_bond_atom_site_label_1
_geom_bond_atom_site_label_2
_geom_bond_site_symmetry_1
_geom_bond_site_symmetry_2
Co1 O4 1_555 1_555
S1 O2 1_555 1_555
O3 S1 1_555 1_555
O4 S1 1_555 1_555
N1 Co1 1_555 1_555
N2 Co1 1_555 1_555
C1 N1 1_555 1_555
H1 C1 1_555 1_555
C2 C1 1_555 1_555
H2 C2 1_555 1_555
C3 C2 1_555 1_555
C4 C3 1_555 1_555
H3 C4 1_555 1_555
C5 N1 1_555 1_555
H4 C5 1_555 1_555
C6 N2 1_555 1_555
H5 C6 1_555 1_555
C7 C6 1_555 1_555
H6 C7 1_555 1_555
C8 C7 1_555 1_555
C9 C8 1_555 1_555
H7 C9 1_555 1_555
C10 N2 1_555 1_555
H8 C10 1_555 1_555
C11 S1 1_555 1_555
C12 C11 1_555 1_555
H9 C12 1_555 1_555
C13 C12 1_555 1_555
H10 C13 1_555 1_555
C14 C13 1_555 1_555
H11 C14 1_555 1_555
C15 C14 1_555 1_555
H12 C15 1_555 1_555
C16 C11 1_555 1_555
C17 C16 1_555 1_555
H13 C17 1_555 1_555
C18 C17 1_555 1_555
H14 C18 1_555 1_555
C19 C18 1_555 1_555
C20 C19 1_555 1_555
H15 C20 1_555 1_555
C21 C20 1_555 1_555
H16 C21 1_555 1_555
C22 C21 1_555 1_555
C23 C22 1_555 1_555
H17 C23 1_555 1_555
C24 C19 1_555 1_555
H18 C24 1_555 1_555
Co1_2 O4A 1_555 1_555
Co1_3 N1A 1_555 1_555
Co1_4 N2A 1_555 1_555
S1A O2A 1_555 1_555
O3A S1A 1_555 1_555
O4A S1A 1_555 1_555
O4A_2 Co1 1_555 1_555
N1A C1A 1_555 1_555
N1A_2 Co1 1_555 1_555
N2A C6A 1_555 1_555
N2A_2 Co1 1_555 1_555
C1A H1A 1_555 1_555
C2A C1A 1_555 1_555
H2A C2A 1_555 1_555
C3A C3 1_555 1_555
C4A C3A 1_555 1_555
H3A C4A 1_555 1_555
C5A N1A 1_555 1_555
H4A C5A 1_555 1_555
C6A H5A 1_555 1_555
C7A C6A 1_555 1_555
H6A C7A 1_555 1_555
C8A C8 1_555 1_555
C9A C8A 1_555 1_555
H7A C9A 1_555 1_555
C10A N2A 1_555 1_555
H8A C10A 1_555 1_555
C11A S1A 1_555 1_555
C12A C11A 1_555 1_555
H9A C12A 1_555 1_555
C13A C12A 1_555 1_555
H10A C13A 1_555 1_555
C14A C13A 1_555 1_555
H11A C14A 1_555 1_555
C15A C14A 1_555 1_555
H12A C15A 1_555 1_555
C16A C11A 1_555 1_555
C17A C16A 1_555 1_555
H13A C17A 1_555 1_555
C18A C17A 1_555 1_555
H14A C18A 1_555 1_555
C19A C18A 1_555 1_555
C20A C19A 1_555 1_555
H15A C20A 1_555 1_555
C21A C20A 1_555 1_555
H16A C21A 1_555 1_555
C22A C22 1_555 1_555
C23A C22A 1_555 1_555
H17A C23A 1_555 1_555
C24A C19A 1_555 1_555
H18A C24A 1_555 1_555
C4 C5 1_555 1_555
C9 C10 1_555 1_555
C15 C16 1_555 1_555
C23 C24 1_555 1_555
C2A C3A 1_555 1_555
C4A C5A 1_555 1_555
C7A C8A 1_555 1_555
C9A C10A 1_555 1_555
C15A C16A 1_555 1_555
C21A C22A 1_555 1_555
C23A C24A 1_555 1_555

#END
