
#######################################################################
#
#                 Cambridge Crystallographic Data Centre
#                                CCDC 
#
#######################################################################
#
# If this CIF has been generated from an entry in the Cambridge 
# Structural Database, then it will include bibliographic, chemical, 
# crystal, experimental, refinement or atomic coordinate data resulting 
# from the CCDC's data processing and validation procedures.
#
#######################################################################

data_BIVVEI
_symmetry_cell_setting           orthorhombic
_symmetry_space_group_name_H-M   'P b c n'
_symmetry_Int_Tables_number      60
_space_group_name_Hall           '-P 2n 2ab'
loop_
_symmetry_equiv_pos_site_id
_symmetry_equiv_pos_as_xyz
1 x,y,z
2 1/2-x,1/2-y,1/2+z
3 -x,y,1/2-z
4 1/2+x,1/2-y,-z
5 -x,-y,-z
6 1/2+x,1/2+y,1/2-z
7 x,-y,1/2+z
8 1/2-x,1/2+y,z
_cell_length_a                   26.1518(11)
_cell_length_b                   17.4539(9)
_cell_length_c                   10.3435(5)
_cell_angle_alpha                90
_cell_angle_beta                 90
_cell_angle_gamma                90
_cell_volume                     4721.3
loop_
_atom_site_label
_atom_site_type_symbol
_atom_site_fract_x
_atom_site_fract_y
_atom_site_fract_z
Zn1 Zn 0.309355(10) 0.583873(16) 0.07038(3)
N1 N 0.28225(7) 0.53267(12) 0.22600(19)
N2 N 0.28356(8) 0.46487(13) 0.4086(2)
N3 N 0.38523(7) 0.58701(11) 0.05614(19)
N4 N 0.45962(8) 0.59311(12) -0.0385(2)
H1 H 0.4823 0.5982 -0.0982
N5 N 0.28307(8) 0.69355(13) 0.0624(2)
N6 N 0.23381(9) 0.79366(15) 0.0841(3)
H2 H 0.2090 0.8221 0.1097
C1 C 0.30596(9) 0.51788(14) 0.3369(2)
H3 H 0.3358 0.5427 0.3621
C2 C 0.24247(12) 0.4425(2) 0.3369(3)
H4 H 0.2190 0.4048 0.3599
C3 C 0.24143(11) 0.4840(2) 0.2272(3)
H5 H 0.2168 0.4801 0.1626
C4 C 0.42281(9) 0.57625(15) 0.1466(3)
H6 H 0.4174 0.5676 0.2343
C5 C 0.46903(10) 0.58022(16) 0.0880(3)
H7 H 0.5009 0.5751 0.1270
C6 C 0.40909(10) 0.59668(14) -0.0549(2)
H8 H 0.3929 0.6049 -0.1338
C7 C 0.30176(13) 0.75221(19) -0.0118(4)
H9 H 0.3309 0.7498 -0.0633
C8 C 0.27125(15) 0.8142(2) 0.0016(4)
H10 H 0.2753 0.8616 -0.0381
C9 C 0.24218(10) 0.72172(17) 0.1185(3)
H11 H 0.2216 0.6945 0.1756
Zn1F Zn 0.309355(10) 0.416127(16) -0.42962(3)
Zn1F_2 Zn 0.309355(10) 0.416127(16) 0.57038(3)
N1F N 0.28225(7) 0.46733(12) -0.27400(19)
N2F N 0.28356(8) 0.53513(13) -0.0914(2)
N2_2 N 0.28356(8) 0.46487(13) -0.5914(2)
N3F N 0.38523(7) 0.41299(11) -0.44386(19)
N4F N 0.45962(8) 0.40689(12) -0.5385(2)
H1F H 0.4823 0.4018 -0.5982
N5F N 0.28307(8) 0.30645(13) -0.4376(2)
N6F N 0.23381(9) 0.20634(15) -0.4159(3)
H2F H 0.2090 0.1779 -0.3903
C1F C 0.30596(9) 0.48212(14) -0.1631(2)
H3F H 0.3358 0.4573 -0.1379
C2F C 0.24247(12) 0.5575(2) -0.1631(3)
H4F H 0.2190 0.5952 -0.1401
C3F C 0.24143(11) 0.5160(2) -0.2728(3)
H5F H 0.2168 0.5199 -0.3374
C4F C 0.42281(9) 0.42375(15) -0.3534(3)
H6F H 0.4174 0.4324 -0.2657
C5F C 0.46903(10) 0.41978(16) -0.4120(3)
H7F H 0.5009 0.4249 -0.3730
C6F C 0.40909(10) 0.40332(14) -0.5549(2)
H8F H 0.3929 0.3951 -0.6338
C7F C 0.30176(13) 0.24779(19) -0.5118(4)
H9F H 0.3309 0.2502 -0.5633
C8F C 0.27125(15) 0.1858(2) -0.4984(4)
H10F H 0.2753 0.1384 -0.5381
C9F C 0.24218(10) 0.27828(17) -0.3815(3)
H11F H 0.2216 0.3055 -0.3244
S1 S -0.09753(2) 0.85608(3) 0.41907(6)
O1 O -0.05132(6) 0.85727(10) 0.34048(16)
O2 O -0.14322(6) 0.86670(11) 0.3399(2)
O3 O -0.09439(8) 0.90676(11) 0.5296(2)
C10 C -0.10463(9) 0.76192(14) 0.4846(2)
C11 C -0.11971(10) 0.75745(17) 0.6139(3)
H12 H -0.1245 0.8022 0.6613
C12 C -0.12759(12) 0.68721(19) 0.6719(3)
H13 H -0.1375 0.6846 0.7581
C13 C -0.12073(12) 0.62152(19) 0.6019(3)
H14 H -0.1256 0.5742 0.6412
C14 C -0.10662(12) 0.62490(17) 0.4732(3)
H15 H -0.1027 0.5796 0.4269
C15 C -0.09818(10) 0.69487(15) 0.4113(3)
C16 C -0.08088(11) 0.69615(15) 0.2758(3)
H16 H -0.0710 0.7436 0.2436
C17 C -0.07780(16) 0.63954(17) 0.1964(3)
H17 H -0.0908 0.5930 0.2253
C18 C -0.05613(15) 0.63997(16) 0.0656(3)
C19 C -0.0534(3) 0.5740(2) -0.0075(4)
H18 H -0.0671 0.5290 0.0260
C20 C -0.0311(3) 0.57217(19) -0.1287(4)
H19 H -0.0292 0.5259 -0.1729
C21 C -0.03547(11) 0.70462(15) 0.0096(3)
H20 H -0.0357 0.7505 0.0554
C22 C -0.01458(11) 0.70310(15) -0.1121(3)
H21 H -0.0019 0.7484 -0.1467
C23 C -0.01163(12) 0.63714(14) -0.1853(3)
S1B S 0.09753(2) 0.85608(3) -0.91907(6)
O1B O 0.05132(6) 0.85727(10) -0.84048(16)
O2B O 0.14322(6) 0.86670(11) -0.8399(2)
O3B O 0.09439(8) 0.90676(11) -1.0296(2)
C10B C 0.10463(9) 0.76192(14) -0.9846(2)
C11B C 0.11971(10) 0.75745(17) -1.1139(3)
H12B H 0.1245 0.8022 -1.1613
C12B C 0.12759(12) 0.68721(19) -1.1719(3)
H13B H 0.1375 0.6846 -1.2581
C13B C 0.12073(12) 0.62152(19) -1.1019(3)
H14B H 0.1256 0.5742 -1.1412
C14B C 0.10662(12) 0.62490(17) -0.9732(3)
H15B H 0.1027 0.5796 -0.9269
C15B C 0.09818(10) 0.69487(15) -0.9113(3)
C16B C 0.08088(11) 0.69615(15) -0.7758(3)
H16B H 0.0710 0.7436 -0.7436
C17B C 0.07780(16) 0.63954(17) -0.6964(3)
H17B H 0.0908 0.5930 -0.7253
C18B C 0.05613(15) 0.63997(16) -0.5656(3)
C19B C 0.0534(3) 0.5740(2) -0.4925(4)
H18B H 0.0671 0.5290 -0.5260
C20B C 0.0311(3) 0.57217(19) -0.3713(4)
H19B H 0.0292 0.5259 -0.3271
C21B C 0.03547(11) 0.70462(15) -0.5096(3)
H20B H 0.0357 0.7505 -0.5554
C22B C 0.01458(11) 0.70310(15) -0.3879(3)
H21B H 0.0019 0.7484 -0.3533
C23B C 0.01163(12) 0.63714(14) -0.3147(3)
loop_
_geom_bond_atom_site_label_1
_geom_bond_atom_site_label_2
_geom_bond_site_symmetry_1
_geom_bond_site_symmetry_2
Zn1 N1 1_555 1_555
S1 O1 1_555 1_555
O2 S1 1_555 1_555
O3 S1 1_555 1_555
N1 C1 1_555 1_555
N2 C1 1_555 1_555
N3 Zn1 1_555 1_555
N4 H1 1_555 1_555
N5 Zn1 1_555 1_555
N6 H2 1_555 1_555
C1 H3 1_555 1_555
C2 N2 1_555 1_555
H4 C2 1_555 1_555
C3 N1 1_555 1_555
H5 C3 1_555 1_555
C4 N3 1_555 1_555
H6 C4 1_555 1_555
C5 N4 1_555 1_555
H7 C5 1_555 1_555
C6 N3 1_555 1_555
H8 C6 1_555 1_555
C7 N5 1_555 1_555
H9 C7 1_555 1_555
C8 N6 1_555 1_555
H10 C8 1_555 1_555
C9 N5 1_555 1_555
H11 C9 1_555 1_555
C10 S1 1_555 1_555
C11 C10 1_555 1_555
H12 C11 1_555 1_555
C12 C11 1_555 1_555
H13 C12 1_555 1_555
C13 C12 1_555 1_555
H14 C13 1_555 1_555
C14 C13 1_555 1_555
H15 C14 1_555 1_555
C15 C10 1_555 1_555
C16 C15 1_555 1_555
H16 C16 1_555 1_555
C17 C16 1_555 1_555
H17 C17 1_555 1_555
C18 C17 1_555 1_555
C19 C18 1_555 1_555
H18 C19 1_555 1_555
C20 C19 1_555 1_555
H19 C20 1_555 1_555
C21 C18 1_555 1_555
H20 C21 1_555 1_555
C22 C21 1_555 1_555
H21 C22 1_555 1_555
C23 C20 1_555 1_555
Zn1F N1F 1_555 1_555
Zn1F_2 N2 1_555 1_555
S1B O1B 1_555 1_555
O2B S1B 1_555 1_555
O3B S1B 1_555 1_555
N1F C1F 1_555 1_555
N2F Zn1 1_555 1_555
N2_2 Zn1F 1_555 1_555
N3F Zn1F 1_555 1_555
N4F H1F 1_555 1_555
N5F Zn1F 1_555 1_555
N6F H2F 1_555 1_555
C1F N2F 1_555 1_555
H3F C1F 1_555 1_555
C2F N2F 1_555 1_555
H4F C2F 1_555 1_555
C3F N1F 1_555 1_555
H5F C3F 1_555 1_555
C4F N3F 1_555 1_555
H6F C4F 1_555 1_555
C5F N4F 1_555 1_555
H7F C5F 1_555 1_555
C6F N3F 1_555 1_555
H8F C6F 1_555 1_555
C7F N5F 1_555 1_555
H9F C7F 1_555 1_555
C8F N6F 1_555 1_555
H10F C8F 1_555 1_555
C9F N5F 1_555 1_555
H11F C9F 1_555 1_555
C10B S1B 1_555 1_555
C11B C10B 1_555 1_555
H12B C11B 1_555 1_555
C12B C11B 1_555 1_555
H13B C12B 1_555 1_555
C13B C12B 1_555 1_555
H14B C13B 1_555 1_555
C14B C13B 1_555 1_555
H15B C14B 1_555 1_555
C15B C10B 1_555 1_555
C16B C15B 1_555 1_555
H16B C16B 1_555 1_555
C17B C16B 1_555 1_555
H17B C17B 1_555 1_555
C18B C17B 1_555 1_555
C19B C18B 1_555 1_555
H18B C19B 1_555 1_555
C20B C19B 1_555 1_555
H19B C20B 1_555 1_555
C21B C18B 1_555 1_555
H20B C21B 1_555 1_555
C22B C21B 1_555 1_555
H21B C22B 1_555 1_555
C23B C23 1_555 1_555
N4 C6 1_555 1_555
N6 C9 1_555 1_555
C2 C3 1_555 1_555
C4 C5 1_555 1_555
C7 C8 1_555 1_555
C14 C15 1_555 1_555
C22 C23 1_555 1_555
N4F C6F 1_555 1_555
N6F C9F 1_555 1_555
C2F C3F 1_555 1_555
C4F C5F 1_555 1_555
C7F C8F 1_555 1_555
C14B C15B 1_555 1_555
C20B C23B 1_555 1_555
C22B C23B 1_555 1_555

#END
