
#######################################################################
#
#                 Cambridge Crystallographic Data Centre
#                                CCDC 
#
#######################################################################
#
# If this CIF has been generated from an entry in the Cambridge 
# Structural Database, then it will include bibliographic, chemical, 
# crystal, experimental, refinement or atomic coordinate data resulting 
# from the CCDC's data processing and validation procedures.
#
#######################################################################

data_BIVXIO
_symmetry_cell_setting           triclinic
_symmetry_space_group_name_H-M   'P -1'
_symmetry_Int_Tables_number      2
_space_group_name_Hall           '-P 1'
loop_
_symmetry_equiv_pos_site_id
_symmetry_equiv_pos_as_xyz
1 x,y,z
2 -x,-y,-z
_cell_length_a                   4.9350(3)
_cell_length_b                   8.1072(5)
_cell_length_c                   9.5198(5)
_cell_angle_alpha                70.4350(10)
_cell_angle_beta                 79.5600(10)
_cell_angle_gamma                76.1370(10)
_cell_volume                     346.304
loop_
_atom_site_label
_atom_site_type_symbol
_atom_site_fract_x
_atom_site_fract_y
_atom_site_fract_z
Mn1 Mn 1.0000 0.0000 1.0000
O1 O 0.6281(2) 0.16651(13) 0.90776(10)
O2 O 0.2580(2) 0.15519(14) 0.80895(11)
N1 N 0.9674(2) 0.18419(16) 0.15129(13)
C1 C 0.5045(3) 0.17932(17) 0.79846(14)
C2 C 0.6687(3) 0.2285(2) 0.64735(15)
H1 H 0.8359 0.2657 0.6411
C3 C 0.5968(3) 0.22376(19) 0.52144(15)
H2 H 0.4250 0.1937 0.5243
C4 C 0.7755(3) 0.26376(18) 0.37709(15)
C5 C 0.9414(3) 0.3928(2) 0.33547(16)
H3 H 0.9321 0.4638 0.3959
C6 C 1.1200(3) 0.4144(2) 0.20384(17)
H4 H 1.2314 0.5005 0.1741
C7 C 1.1308(3) 0.3057(2) 0.11675(16)
H5 H 1.2571 0.3176 0.0303
C8 C 0.7918(3) 0.16719(19) 0.27820(15)
H6 H 0.6733 0.0859 0.3017
Mn1_2 Mn 0.0000 0.0000 1.0000
Mn1_3 Mn 1.0000 0.0000 0.0000
Mn1_4 Mn 2.0000 0.0000 1.0000
Mn1_5 Mn 1.0000 0.0000 2.0000
O1A O 1.3719(2) -0.16651(13) 1.09224(10)
O2A O 1.7420(2) -0.15519(14) 1.19105(11)
O2_2 O 1.2580(2) 0.15519(14) 0.80895(11)
O2A_2 O 0.7420(2) -0.15519(14) 1.19105(11)
N1A N 1.0326(2) -0.18419(16) 1.84871(13)
N1_2 N 0.9674(2) 0.18419(16) 1.15129(13)
N1A_2 N 1.0326(2) -0.18419(16) 0.84871(13)
C1A C 1.4955(3) -0.17932(17) 1.20154(14)
C2A C 1.3313(3) -0.2285(2) 1.35265(15)
H1A H 1.1641 -0.2657 1.3589
C3A C 1.4032(3) -0.22376(19) 1.47856(15)
H2A H 1.5750 -0.1937 1.4757
C4A C 1.2245(3) -0.26376(18) 1.62291(15)
C5A C 1.0586(3) -0.3928(2) 1.66453(16)
H3A H 1.0679 -0.4638 1.6041
C6A C 0.8800(3) -0.4144(2) 1.79616(17)
H4A H 0.7686 -0.5005 1.8259
C7A C 0.8692(3) -0.3057(2) 1.88325(16)
H5A H 0.7429 -0.3176 1.9697
C8A C 1.2082(3) -0.16719(19) 1.72180(15)
H6A H 1.3267 -0.0859 1.6983
loop_
_geom_bond_atom_site_label_1
_geom_bond_atom_site_label_2
_geom_bond_site_symmetry_1
_geom_bond_site_symmetry_2
Mn1 O1 1_555 1_555
O1 C1 1_555 1_555
O2 C1 1_555 1_555
N1 C7 1_555 1_555
C1 C2 1_555 1_555
C2 H1 1_555 1_555
C3 C2 1_555 1_555
H2 C3 1_555 1_555
C4 C3 1_555 1_555
C5 C4 1_555 1_555
H3 C5 1_555 1_555
C6 C5 1_555 1_555
H4 C6 1_555 1_555
C7 C6 1_555 1_555
H5 C7 1_555 1_555
C8 N1 1_555 1_555
H6 C8 1_555 1_555
Mn1_2 O2 1_555 1_555
Mn1_3 N1 1_555 1_555
Mn1_4 O2A 1_555 1_555
Mn1_5 N1A 1_555 1_555
O1A Mn1 1_555 1_555
O2A C1A 1_555 1_555
O2_2 Mn1 1_555 1_555
O2A_2 Mn1 1_555 1_555
N1A C7A 1_555 1_555
N1_2 Mn1 1_555 1_555
N1A_2 Mn1 1_555 1_555
C1A O1A 1_555 1_555
C2A C1A 1_555 1_555
H1A C2A 1_555 1_555
C3A C2A 1_555 1_555
H2A C3A 1_555 1_555
C4A C3A 1_555 1_555
C5A C4A 1_555 1_555
H3A C5A 1_555 1_555
C6A C5A 1_555 1_555
H4A C6A 1_555 1_555
C7A C6A 1_555 1_555
H5A C7A 1_555 1_555
C8A N1A 1_555 1_555
H6A C8A 1_555 1_555
C4 C8 1_555 1_555
C4A C8A 1_555 1_555

#END
