
#######################################################################
#
#                 Cambridge Crystallographic Data Centre
#                                CCDC 
#
#######################################################################
#
# If this CIF has been generated from an entry in the Cambridge 
# Structural Database, then it will include bibliographic, chemical, 
# crystal, experimental, refinement or atomic coordinate data resulting 
# from the CCDC's data processing and validation procedures.
#
#######################################################################

data_BIVXAG
_symmetry_cell_setting           triclinic
_symmetry_space_group_name_H-M   'P -1'
_symmetry_Int_Tables_number      2
_space_group_name_Hall           '-P 1'
loop_
_symmetry_equiv_pos_site_id
_symmetry_equiv_pos_as_xyz
1 x,y,z
2 -x,-y,-z
_cell_length_a                   8.6797(9)
_cell_length_b                   11.4092(12)
_cell_length_c                   12.0602(19)
_cell_angle_alpha                112.634(2)
_cell_angle_beta                 100.312(2)
_cell_angle_gamma                108.048(2)
_cell_volume                     985.702
loop_
_atom_site_label
_atom_site_type_symbol
_atom_site_fract_x
_atom_site_fract_y
_atom_site_fract_z
Co1 Co 0.06964(5) 0.33474(4) 0.21080(4)
Co2 Co 0.0000 0.5000 0.0000
O1 O -0.0704(3) 0.1879(2) 0.0200(2)
O2 O -0.0054(3) 0.3002(2) -0.0947(2)
O3 O 0.1988(3) 0.4703(2) 0.40630(19)
C1 C -0.0474(4) 0.1947(3) -0.0784(3)
N1 N 0.0685(4) 0.6019(3) 0.2777(3)
N2 N -0.0892(3) -0.1737(3) -0.2574(2)
N3 N 0.1758(3) 0.7130(3) 0.7534(2)
O4 O -0.7158(3) 0.3382(3) 0.1493(2)
N4 N -0.2698(3) 0.4030(3) -0.0281(2)
O5 O -0.4661(3) 0.5265(3) 0.2614(3)
C2 C -0.0863(4) -0.0565(3) -0.1699(3)
H1 H -0.0955 -0.0524 -0.0930
C3 C -0.5683(4) 0.4126(4) 0.1631(3)
C4 C -0.3333(4) 0.4409(3) 0.0672(3)
H2 H -0.2618 0.5200 0.1443
C5 C -0.0703(4) 0.0598(3) -0.1874(3)
C6 C 0.3099(5) 0.8370(4) 0.8308(3)
H3 H 0.3025 0.8952 0.9069
C7 C 0.1909(4) 0.6320(3) 0.6452(3)
H4 H 0.1017 0.5439 0.5922
C8 C 0.3310(4) 0.6710(3) 0.6071(3)
C9 C -0.5005(4) 0.3670(3) 0.0553(3)
C10 C 0.3295(4) 0.5806(3) 0.4774(3)
N5 N 0.0723(6) 0.6905(4) 0.3672(3)
C11 C 0.4665(4) 0.7985(4) 0.6881(3)
H5 H 0.5630 0.8279 0.6657
C12 C -0.6071(5) 0.2497(4) -0.0602(4)
H6 H -0.7195 0.1968 -0.0703
C13 C -0.3756(4) 0.2918(4) -0.1399(3)
H7 H -0.3341 0.2667 -0.2074
C14 C -0.0685(6) 0.0491(4) -0.3051(3)
H8 H -0.0585 0.1242 -0.3211
C15 C -0.5448(5) 0.2126(4) -0.1592(4)
H9 H -0.6149 0.1355 -0.2380
C16 C 0.4577(5) 0.8827(4) 0.8034(3)
H10 H 0.5495 0.9679 0.8610
N6 N 0.0637(3) 0.5076(3) 0.1849(2)
O6 O 0.4612(4) 0.6276(3) 0.4504(3)
C17 C -0.0819(7) -0.0746(4) -0.3987(4)
H11 H -0.0868 -0.0855 -0.4799
C18 C -0.0879(6) -0.1822(4) -0.3708(3)
H12 H -0.0911 -0.2635 -0.4332
Co1A Co -0.06964(5) 0.66526(4) -0.21080(4)
Co1A_2 Co -0.06964(5) -0.33474(4) -0.21080(4)
Co1A_3 Co -0.06964(5) 0.66526(4) 0.78920(4)
Co1_2 Co -0.93036(5) 0.33474(4) 0.21080(4)
Co1_3 Co 0.06964(5) 1.33474(4) 0.21080(4)
Co1A_4 Co 0.93036(5) 0.66526(4) -0.21080(4)
O1A O 0.0704(3) 0.8121(2) -0.0200(2)
O2A O 0.0054(3) 0.6998(2) 0.0947(2)
O3A O -0.1988(3) 0.5297(2) 0.59370(19)
O3A_2 O -0.1988(3) 0.5297(2) -0.40630(19)
C1A C 0.0474(4) 0.8053(3) 0.0784(3)
N1A N -0.0685(4) 0.3981(3) -0.2777(3)
N2A N 0.0892(3) 1.1737(3) 0.2574(2)
N2A_2 N 0.0892(3) 0.1737(3) 0.2574(2)
N2_2 N -0.0892(3) 0.8263(3) -0.2574(2)
N3A N -0.1758(3) 0.2870(3) 0.2466(2)
N3_2 N 0.1758(3) 0.7130(3) -0.2466(2)
O4A O 0.7158(3) 0.6618(3) -0.1493(2)
O4_2 O 0.2842(3) 0.3382(3) 0.1493(2)
O4A_2 O -0.2842(3) 0.6618(3) -0.1493(2)
N4A N 0.2698(3) 0.5970(3) 0.0281(2)
O5A O 0.4661(3) 0.4735(3) -0.2614(3)
C2A C 0.0863(4) 1.0565(3) 0.1699(3)
H1A H 0.0955 1.0524 0.0930
C3A C 0.5683(4) 0.5874(4) -0.1631(3)
C4A C 0.3333(4) 0.5591(3) -0.0672(3)
H2A H 0.2618 0.4800 -0.1443
C5A C 0.0703(4) 0.9402(3) 0.1874(3)
C6A C -0.3099(5) 0.1630(4) 0.1692(3)
H3A H -0.3025 0.1048 0.0931
C7A C -0.1909(4) 0.3680(3) 0.3548(3)
H4A H -0.1017 0.4561 0.4078
C8A C -0.3310(4) 0.3290(3) 0.3929(3)
C9A C 0.5005(4) 0.6330(3) -0.0553(3)
C10A C -0.3295(4) 0.4194(3) 0.5226(3)
N5A N -0.0723(6) 0.3095(4) -0.3672(3)
C11A C -0.4665(4) 0.2015(4) 0.3119(3)
H5A H -0.5630 0.1721 0.3343
C12A C 0.6071(5) 0.7503(4) 0.0602(4)
H6A H 0.7195 0.8032 0.0703
C13A C 0.3756(4) 0.7082(4) 0.1399(3)
H7A H 0.3341 0.7333 0.2074
C14A C 0.0685(6) 0.9509(4) 0.3051(3)
H8A H 0.0585 0.8758 0.3211
C15A C 0.5448(5) 0.7874(4) 0.1592(4)
H9A H 0.6149 0.8645 0.2380
C16A C -0.4577(5) 0.1173(4) 0.1966(3)
H10A H -0.5495 0.0321 0.1390
N6A N -0.0637(3) 0.4924(3) -0.1849(2)
O6A O -0.4612(4) 0.3724(3) 0.5496(3)
C17A C 0.0819(7) 1.0746(4) 0.3987(4)
H11A H 0.0868 1.0855 0.4799
C18A C 0.0879(6) 1.1822(4) 0.3708(3)
H12A H 0.0911 1.2635 0.4332
loop_
_geom_bond_atom_site_label_1
_geom_bond_atom_site_label_2
_geom_bond_site_symmetry_1
_geom_bond_site_symmetry_2
Co1 O1 1_555 1_555
Co2 O2 1_555 1_555
O1 C1 1_555 1_555
O2 C1 1_555 1_555
O3 Co1 1_555 1_555
C1 C5 1_555 1_555
N1 N5 1_555 1_555
N2 C2 1_555 1_555
N3 C6 1_555 1_555
O4 C3 1_555 1_555
N4 Co2 1_555 1_555
O5 C3 1_555 1_555
C2 H1 1_555 1_555
C3 C9 1_555 1_555
C4 N4 1_555 1_555
H2 C4 1_555 1_555
C5 C2 1_555 1_555
C6 H3 1_555 1_555
C7 N3 1_555 1_555
H4 C7 1_555 1_555
C8 C7 1_555 1_555
C9 C4 1_555 1_555
C10 O3 1_555 1_555
C11 C8 1_555 1_555
H5 C11 1_555 1_555
C12 C9 1_555 1_555
H6 C12 1_555 1_555
C13 N4 1_555 1_555
H7 C13 1_555 1_555
C14 C5 1_555 1_555
H8 C14 1_555 1_555
C15 C12 1_555 1_555
H9 C15 1_555 1_555
C16 C6 1_555 1_555
H10 C16 1_555 1_555
N6 Co1 1_555 1_555
O6 C10 1_555 1_555
C17 C14 1_555 1_555
H11 C17 1_555 1_555
C18 N2 1_555 1_555
H12 C18 1_555 1_555
Co1A O1A 1_555 1_555
Co1A_2 N2 1_555 1_555
Co1A_3 N3 1_555 1_555
Co1_2 O4 1_555 1_555
Co1_3 N2A 1_555 1_555
Co1A_4 O4A 1_555 1_555
O1A C1A 1_555 1_555
O2A Co2 1_555 1_555
O3A Co1A_3 1_555 1_555
O3A_2 Co1A 1_555 1_555
C1A O2A 1_555 1_555
N1A N5A 1_555 1_555
N2A C2A 1_555 1_555
N2A_2 Co1 1_555 1_555
N2_2 Co1A 1_555 1_555
N3A Co1 1_555 1_555
N3_2 Co1A 1_555 1_555
O4A C3A 1_555 1_555
O4_2 Co1 1_555 1_555
O4A_2 Co1A 1_555 1_555
N4A Co2 1_555 1_555
O5A C3A 1_555 1_555
C2A H1A 1_555 1_555
C3A C9A 1_555 1_555
C4A N4A 1_555 1_555
H2A C4A 1_555 1_555
C5A C1A 1_555 1_555
C6A N3A 1_555 1_555
H3A C6A 1_555 1_555
C7A N3A 1_555 1_555
H4A C7A 1_555 1_555
C8A C7A 1_555 1_555
C9A C4A 1_555 1_555
C10A O3A 1_555 1_555
C11A C8A 1_555 1_555
H5A C11A 1_555 1_555
C12A C9A 1_555 1_555
H6A C12A 1_555 1_555
C13A N4A 1_555 1_555
H7A C13A 1_555 1_555
C14A C5A 1_555 1_555
H8A C14A 1_555 1_555
C15A C12A 1_555 1_555
H9A C15A 1_555 1_555
C16A C6A 1_555 1_555
H10A C16A 1_555 1_555
N6A Co2 1_555 1_555
O6A C10A 1_555 1_555
C17A C14A 1_555 1_555
H11A C17A 1_555 1_555
C18A N2A 1_555 1_555
H12A C18A 1_555 1_555
Co2 N6 1_555 1_555
N1 N6 1_555 1_555
C8 C10 1_555 1_555
C11 C16 1_555 1_555
C13 C15 1_555 1_555
C17 C18 1_555 1_555
Co1A N6A 1_555 1_555
N1A N6A 1_555 1_555
C2A C5A 1_555 1_555
C8A C10A 1_555 1_555
C11A C16A 1_555 1_555
C13A C15A 1_555 1_555
C17A C18A 1_555 1_555

#END
