
#######################################################################
#
#                 Cambridge Crystallographic Data Centre
#                                CCDC 
#
#######################################################################
#
# If this CIF has been generated from an entry in the Cambridge 
# Structural Database, then it will include bibliographic, chemical, 
# crystal, experimental, refinement or atomic coordinate data resulting 
# from the CCDC's data processing and validation procedures.
#
#######################################################################

data_BIVZAI
_symmetry_cell_setting           orthorhombic
_symmetry_space_group_name_H-M   'C m c m'
_symmetry_Int_Tables_number      63
_space_group_name_Hall           '-C 2n 2'
loop_
_symmetry_equiv_pos_site_id
_symmetry_equiv_pos_as_xyz
1 x,y,z
2 1/2+x,1/2+y,z
3 -x,-y,1/2+z
4 x,-y,-z
5 -x,y,1/2-z
6 1/2-x,1/2-y,1/2+z
7 1/2+x,1/2-y,-z
8 1/2-x,1/2+y,1/2-z
9 -x,-y,-z
10 1/2-x,1/2-y,-z
11 x,y,1/2-z
12 -x,y,z
13 x,-y,1/2+z
14 1/2+x,1/2+y,1/2-z
15 1/2-x,1/2+y,z
16 1/2+x,1/2-y,1/2+z
_cell_length_a                   25.516(2)
_cell_length_b                   12.8382(11)
_cell_length_c                   11.8824(10)
_cell_angle_alpha                90
_cell_angle_beta                 90
_cell_angle_gamma                90
_cell_volume                     3892.43
loop_
_atom_site_label
_atom_site_type_symbol
_atom_site_fract_x
_atom_site_fract_y
_atom_site_fract_z
Cs1 Cs 0.0000 0.5000 0.5000
P1 P 0.06440(7) 0.60552(15) 0.2500
P2 P 0.0000 0.7061(2) 0.2500
Si1 Si 0.13533(8) 0.71241(15) 0.2500
C1 C 0.1922(3) 0.6111(7) 0.2500
C2 C 0.1880(4) 0.5414(12) 0.1479(16)
H1 H 0.1906 0.5836 0.0795
H2 H 0.1542 0.5051 0.1490
H3 H 0.2164 0.4901 0.1492
C3 C 0.2479(4) 0.6560(10) 0.2500
H4 H 0.2501 0.7002 0.3165
H5 H 0.2734 0.5990 0.2500
C4 C 0.1374(3) 0.7979(6) 0.1156(7)
C5 C 0.0934(5) 0.8783(14) 0.114(2)
H6 H 0.0596 0.8431 0.1239
H7 H 0.0937 0.9156 0.0424
H8 H 0.0986 0.9280 0.1760
C6 C 0.1874(3) 0.8592(8) 0.0996(9)
H9 H 0.1929 0.9050 0.1646
H10 H 0.1848 0.9014 0.0311
H11 H 0.2171 0.8111 0.0928
C7 C 0.1308(12) 0.7289(13) 0.0125(8)
H12 H 0.0985 0.6880 0.0198
H13 H 0.1608 0.6817 0.0063
H14 H 0.1287 0.7724 -0.0551
O1 O 0.0000 0.321(2) 0.2500
C8 C 0.0445(8) 0.2714(19) 0.2500
H15 H 0.0653 0.2893 0.3177
C9 C 0.0299(11) 0.1521(17) 0.2500
H16 H 0.0438 0.1169 0.1822
Cs1J Cs 0.0000 0.5000 0.0000
P1K P -0.06440(7) 0.60552(15) 0.2500
P1L P 0.06440(7) 0.39448(15) 0.7500
P1H P -0.06440(7) 0.39448(15) 0.7500
P2L P 0.0000 0.2939(2) 0.7500
Si1K Si -0.13533(8) 0.71241(15) 0.2500
C1K C -0.1922(3) 0.6111(7) 0.2500
C2K C -0.1880(4) 0.5414(12) 0.1479(16)
C2D C -0.1880(4) 0.5414(12) 0.3521(16)
C2J C 0.1880(4) 0.5414(12) 0.3521(16)
H1K H -0.1906 0.5836 0.0795
H1D H -0.1906 0.5836 0.4205
H1J H 0.1906 0.5836 0.4205
H2K H -0.1542 0.5051 0.1490
H2D H -0.1542 0.5051 0.3510
H2J H 0.1542 0.5051 0.3510
H3K H -0.2164 0.4901 0.1492
H3D H -0.2164 0.4901 0.3508
H3J H 0.2164 0.4901 0.3508
C3K C -0.2479(4) 0.6560(10) 0.2500
H4K H -0.2501 0.7002 0.3165
H4D H -0.2501 0.7002 0.1835
H4J H 0.2501 0.7002 0.1835
H5K H -0.2734 0.5990 0.2500
C4K C -0.1374(3) 0.7979(6) 0.1156(7)
C4D C -0.1374(3) 0.7979(6) 0.3844(7)
C4J C 0.1374(3) 0.7979(6) 0.3844(7)
C5K C -0.0934(5) 0.8783(14) 0.114(2)
C5D C -0.0934(5) 0.8783(14) 0.386(2)
C5J C 0.0934(5) 0.8783(14) 0.386(2)
H6K H -0.0596 0.8431 0.1239
H6D H -0.0596 0.8431 0.3761
H6J H 0.0596 0.8431 0.3761
H7K H -0.0937 0.9156 0.0424
H7D H -0.0937 0.9156 0.4576
H7J H 0.0937 0.9156 0.4576
H8K H -0.0986 0.9280 0.1760
H8D H -0.0986 0.9280 0.3240
H8J H 0.0986 0.9280 0.3240
C6K C -0.1874(3) 0.8592(8) 0.0996(9)
C6D C -0.1874(3) 0.8592(8) 0.4004(9)
C6J C 0.1874(3) 0.8592(8) 0.4004(9)
H9K H -0.1929 0.9050 0.1646
H9D H -0.1929 0.9050 0.3354
H9J H 0.1929 0.9050 0.3354
H10K H -0.1848 0.9014 0.0311
H10D H -0.1848 0.9014 0.4689
H10J H 0.1848 0.9014 0.4689
H11K H -0.2171 0.8111 0.0928
H11D H -0.2171 0.8111 0.4072
H11J H 0.2171 0.8111 0.4072
C7K C -0.1308(12) 0.7289(13) 0.0125(8)
C7D C -0.1308(12) 0.7289(13) 0.4875(8)
C7J C 0.1308(12) 0.7289(13) 0.4875(8)
H12K H -0.0985 0.6880 0.0198
H12D H -0.0985 0.6880 0.4802
H12J H 0.0985 0.6880 0.4802
H13K H -0.1608 0.6817 0.0063
H13D H -0.1608 0.6817 0.4937
H13J H 0.1608 0.6817 0.4937
H14K H -0.1287 0.7724 -0.0551
H14D H -0.1287 0.7724 0.5551
H14J H 0.1287 0.7724 0.5551
O1L O 0.0000 0.679(2) 0.7500
C8K C -0.0445(8) 0.2714(19) 0.2500
H15J H 0.0653 0.2893 0.1823
H15K H -0.0653 0.2893 0.3177
H15D H -0.0653 0.2893 0.1823
C9K C -0.0299(11) 0.1521(17) 0.2500
H16K H -0.0438 0.1169 0.1822
H16D H -0.0438 0.1169 0.3178
H16J H 0.0438 0.1169 0.3178
loop_
_geom_bond_atom_site_label_1
_geom_bond_atom_site_label_2
_geom_bond_site_symmetry_1
_geom_bond_site_symmetry_2
Cs1 P1 1_555 1_555
P1 P2 1_555 1_555
P2 Cs1 1_555 1_555
Si1 P1 1_555 1_555
C1 Si1 1_555 1_555
C2 C1 1_555 1_555
H1 C2 1_555 1_555
H2 C2 1_555 1_555
H3 C2 1_555 1_555
C3 C1 1_555 1_555
H4 C3 1_555 1_555
H5 C3 1_555 1_555
C4 Si1 1_555 1_555
C5 C4 1_555 1_555
H6 C5 1_555 1_555
H7 C5 1_555 1_555
H8 C5 1_555 1_555
C6 C4 1_555 1_555
H9 C6 1_555 1_555
H10 C6 1_555 1_555
H11 C6 1_555 1_555
C7 C4 1_555 1_555
H12 C7 1_555 1_555
H13 C7 1_555 1_555
H14 C7 1_555 1_555
O1 Cs1 1_555 1_555
C8 O1 1_555 1_555
H15 C8 1_555 1_555
C9 C8 1_555 1_555
H16 C9 1_555 1_555
Cs1J P1 1_555 1_555
P1K Cs1 1_555 1_555
P1L Cs1 1_555 1_555
P1H Cs1 1_555 1_555
P2L Cs1 1_555 1_555
Si1K P1K 1_555 1_555
C1K Si1K 1_555 1_555
C2K C1K 1_555 1_555
C2D C1K 1_555 1_555
C2J C1 1_555 1_555
H1K C2K 1_555 1_555
H1D C2D 1_555 1_555
H1J C2J 1_555 1_555
H2K C2K 1_555 1_555
H2D C2D 1_555 1_555
H2J C2J 1_555 1_555
H3K C2K 1_555 1_555
H3D C2D 1_555 1_555
H3J C2J 1_555 1_555
C3K C1K 1_555 1_555
H4K C3K 1_555 1_555
H4D C3K 1_555 1_555
H4J C3 1_555 1_555
H5K C3K 1_555 1_555
C4K Si1K 1_555 1_555
C4D Si1K 1_555 1_555
C4J Si1 1_555 1_555
C5K C4K 1_555 1_555
C5D C4D 1_555 1_555
C5J C4J 1_555 1_555
H6K C5K 1_555 1_555
H6D C5D 1_555 1_555
H6J C5J 1_555 1_555
H7K C5K 1_555 1_555
H7D C5D 1_555 1_555
H7J C5J 1_555 1_555
H8K C5K 1_555 1_555
H8D C5D 1_555 1_555
H8J C5J 1_555 1_555
C6K C4K 1_555 1_555
C6D C4D 1_555 1_555
C6J C4J 1_555 1_555
H9K C6K 1_555 1_555
H9D C6D 1_555 1_555
H9J C6J 1_555 1_555
H10K C6K 1_555 1_555
H10D C6D 1_555 1_555
H10J C6J 1_555 1_555
H11K C6K 1_555 1_555
H11D C6D 1_555 1_555
H11J C6J 1_555 1_555
C7K C4K 1_555 1_555
C7D C4D 1_555 1_555
C7J C4J 1_555 1_555
H12K C7K 1_555 1_555
H12D C7D 1_555 1_555
H12J C7J 1_555 1_555
H13K C7K 1_555 1_555
H13D C7D 1_555 1_555
H13J C7J 1_555 1_555
H14K C7K 1_555 1_555
H14D C7D 1_555 1_555
H14J C7J 1_555 1_555
O1L Cs1 1_555 1_555
C8K O1 1_555 1_555
H15J C8 1_555 1_555
H15K C8K 1_555 1_555
H15D C8K 1_555 1_555
C9K C9 1_555 1_555
H16K C9K 1_555 1_555
H16D C9K 1_555 1_555
H16J C9 1_555 1_555
P2 Cs1J 1_555 1_555
P2 P1K 1_555 1_555
O1 Cs1J 1_555 1_555
Cs1J P1K 1_555 1_555
P1L P2L 1_555 1_555
P1H P2L 1_555 1_555
C8K C9K 1_555 1_555

#END
