
#######################################################################
#
#                 Cambridge Crystallographic Data Centre
#                                CCDC 
#
#######################################################################
#
# If this CIF has been generated from an entry in the Cambridge 
# Structural Database, then it will include bibliographic, chemical, 
# crystal, experimental, refinement or atomic coordinate data resulting 
# from the CCDC's data processing and validation procedures.
#
#######################################################################

data_BIVZUC
_symmetry_cell_setting           monoclinic
_symmetry_space_group_name_H-M   'P 21/c'
_symmetry_Int_Tables_number      14
_space_group_name_Hall           '-P 2ybc'
loop_
_symmetry_equiv_pos_site_id
_symmetry_equiv_pos_as_xyz
1 x,y,z
2 -x,1/2+y,1/2-z
3 -x,-y,-z
4 x,1/2-y,1/2+z
_cell_length_a                   16.0642(11)
_cell_length_b                   19.6800(13)
_cell_length_c                   10.1155(7)
_cell_angle_alpha                90
_cell_angle_beta                 103.717(2)
_cell_angle_gamma                90
_cell_volume                     3106.74
loop_
_atom_site_label
_atom_site_type_symbol
_atom_site_fract_x
_atom_site_fract_y
_atom_site_fract_z
Ni1 Ni 0.5000 0.5000 0.5000
Ni2 Ni 0.0000 0.5000 -0.5000
N1 N 0.55210(19) 0.40564(15) 0.4831(3)
H1 H 0.592(2) 0.4049(19) 0.550(4)
N2 N 0.4134(2) 0.44609(16) 0.5849(3)
H2 H 0.379(3) 0.443(2) 0.515(4)
N3 N -0.0139(2) 0.39619(17) -0.5155(3)
H3 H -0.057(3) 0.392(2) -0.575(4)
N4 N 0.0972(2) 0.48510(17) -0.6027(3)
H4 H 0.139(3) 0.485(2) -0.533(4)
O1 O 0.40541(16) 0.48287(12) 0.3149(2)
O2 O 0.33828(19) 0.58056(13) 0.2474(3)
O3 O 0.10162(17) 0.48593(13) -0.3242(2)
O4 O 0.14005(19) 0.58600(14) -0.2252(3)
C1 C 0.4901(2) 0.35339(18) 0.5020(3)
H5 H 0.4454 0.3500 0.4174
C2 C 0.5295(3) 0.2828(2) 0.5359(4)
H6 H 0.5543 0.2677 0.4623
H7 H 0.5752 0.2855 0.6179
C3 C 0.4633(3) 0.2312(2) 0.5568(4)
H8 H 0.4206 0.2250 0.4722
H9 H 0.4910 0.1878 0.5828
C4 C 0.4200(4) 0.2550(2) 0.6667(4)
H10 H 0.3755 0.2229 0.6740
H11 H 0.4617 0.2560 0.7534
C5 C 0.3811(3) 0.3247(2) 0.6361(4)
H12 H 0.3568 0.3392 0.7107
H13 H 0.3350 0.3226 0.5545
C6 C 0.4477(2) 0.37678(18) 0.6157(3)
H14 H 0.4925 0.3790 0.7004
C7 C 0.3745(3) 0.4788(2) 0.6891(4)
H15 H 0.3237 0.4522 0.6943
C8 C 0.4345(3) 0.4787(3) 0.8292(4)
H16 H 0.4518 0.4329 0.8548
H17 H 0.4056 0.4974 0.8938
H18 H 0.4841 0.5056 0.8280
C9 C 0.3443(3) 0.5504(2) 0.6416(5)
H19 H 0.3072 0.5468 0.5510
H20 H 0.3095 0.5672 0.7009
C10 C 0.5879(3) 0.3963(2) 0.3629(4)
H21 H 0.6132 0.3514 0.3656
H22 H 0.5422 0.3995 0.2810
C11 C 0.0630(3) 0.3680(2) -0.5517(4)
H23 H 0.1097 0.3678 -0.4694
C12 C 0.0515(3) 0.2952(2) -0.6064(5)
H24 H 0.0374 0.2657 -0.5381
H25 H 0.0043 0.2938 -0.6865
C13 C 0.1326(4) 0.2697(3) -0.6429(7)
H26 H 0.1785 0.2671 -0.5611
H27 H 0.1228 0.2243 -0.6809
C14 C 0.1592(4) 0.3158(3) -0.7443(7)
H28 H 0.1161 0.3146 -0.8296
H29 H 0.2128 0.2998 -0.7614
C15 C 0.1703(3) 0.3883(3) -0.6924(6)
H30 H 0.1838 0.4173 -0.7618
H31 H 0.2178 0.3903 -0.6128
C16 C 0.0889(3) 0.4144(2) -0.6550(4)
H32 H 0.0425 0.4138 -0.7378
C17 C 0.1180(3) 0.5388(2) -0.6940(4)
H33 H 0.1758 0.5294 -0.7055
C18 C 0.0577(3) 0.5373(3) -0.8349(4)
H34 H 0.0571 0.4925 -0.8725
H35 H 0.0770 0.5693 -0.8929
H36 H 0.0009 0.5493 -0.8281
C19 C 0.1210(3) 0.6080(2) -0.6249(5)
H37 H 0.1613 0.6049 -0.5369
H38 H 0.1441 0.6406 -0.6787
C20 C -0.0376(3) 0.3636(2) -0.3973(4)
H39 H -0.0435 0.3150 -0.4126
H40 H 0.0077 0.3710 -0.3162
C21 C 0.3048(2) 0.48386(17) 0.1040(3)
C22 C 0.3531(2) 0.51962(19) 0.2315(3)
C23 C 0.3172(2) 0.41511(18) 0.0885(3)
H41 H 0.3559 0.3915 0.1558
C24 C 0.2726(3) 0.3810(2) -0.0261(4)
H42 H 0.2809 0.3346 -0.0352
C25 C 0.2154(2) 0.41612(18) -0.1275(4)
H43 H 0.1848 0.3931 -0.2039
C26 C 0.2037(2) 0.48512(18) -0.1154(3)
C27 C 0.1434(2) 0.52268(19) -0.2302(3)
C28 C 0.2488(2) 0.51948(18) 0.0008(3)
H44 H 0.2414 0.5660 0.0092
Ni2_2 Ni 1.0000 0.5000 1.5000
N1B N 0.44790(19) 0.59436(15) 0.5169(3)
H1B H 0.408(2) 0.5951(19) 0.450(4)
N2B N 0.5866(2) 0.55391(16) 0.4151(3)
H2B H 0.621(3) 0.557(2) 0.485(4)
N3B N 0.0139(2) 0.60381(17) -0.4845(3)
H3B H 0.057(3) 0.608(2) -0.425(4)
N4B N -0.0972(2) 0.51490(17) -0.3973(3)
H4B H -0.139(3) 0.515(2) -0.467(4)
O1B O 0.59459(16) 0.51713(12) 0.6851(2)
O2B O 0.66172(19) 0.41944(13) 0.7526(3)
O3B O 0.89838(17) 0.51407(13) 1.3242(2)
O3B_2 O -0.10162(17) 0.51407(13) -0.6758(2)
O4B O 0.85995(19) 0.41400(14) 1.2252(3)
C1B C 0.5099(2) 0.64661(18) 0.4980(3)
H5B H 0.5546 0.6500 0.5826
C2B C 0.4705(3) 0.7172(2) 0.4641(4)
H6B H 0.4457 0.7323 0.5377
H7B H 0.4248 0.7145 0.3821
C3B C 0.5367(3) 0.7688(2) 0.4432(4)
H8B H 0.5794 0.7750 0.5278
H9B H 0.5090 0.8122 0.4172
C4B C 0.5800(4) 0.7450(2) 0.3333(4)
H10B H 0.6245 0.7771 0.3260
H11B H 0.5383 0.7440 0.2466
C5B C 0.6189(3) 0.6753(2) 0.3639(4)
H12B H 0.6432 0.6608 0.2893
H13B H 0.6650 0.6774 0.4455
C6B C 0.5523(2) 0.62322(18) 0.3843(3)
H14B H 0.5075 0.6210 0.2996
C7B C 0.6255(3) 0.5212(2) 0.3109(4)
H15B H 0.6763 0.5478 0.3057
C8B C 0.5655(3) 0.5213(3) 0.1708(4)
H16B H 0.5482 0.5671 0.1452
H17B H 0.5944 0.5026 0.1062
H18B H 0.5159 0.4944 0.1720
C9B C 0.6557(3) 0.4496(2) 0.3584(5)
H19B H 0.6928 0.4532 0.4490
H20B H 0.6905 0.4328 0.2991
C10B C 0.4121(3) 0.6037(2) 0.6371(4)
H21B H 0.3868 0.6486 0.6344
H22B H 0.4578 0.6005 0.7190
C11B C -0.0630(3) 0.6320(2) -0.4483(4)
H23B H -0.1097 0.6322 -0.5306
C12B C -0.0515(3) 0.7048(2) -0.3936(5)
H24B H -0.0374 0.7343 -0.4619
H25B H -0.0043 0.7062 -0.3135
C13B C -0.1326(4) 0.7303(3) -0.3571(7)
H26B H -0.1785 0.7329 -0.4389
H27B H -0.1228 0.7757 -0.3191
C14B C -0.1592(4) 0.6842(3) -0.2557(7)
H28B H -0.1161 0.6854 -0.1704
H29B H -0.2128 0.7002 -0.2386
C15B C -0.1703(3) 0.6117(3) -0.3076(6)
H30B H -0.1838 0.5827 -0.2382
H31B H -0.2178 0.6097 -0.3872
C16B C -0.0889(3) 0.5856(2) -0.3450(4)
H32B H -0.0425 0.5862 -0.2622
C17B C -0.1180(3) 0.4612(2) -0.3060(4)
H33B H -0.1758 0.4706 -0.2945
C18B C -0.0577(3) 0.4627(3) -0.1651(4)
H34B H -0.0571 0.5075 -0.1275
H35B H -0.0770 0.4307 -0.1071
H36B H -0.0009 0.4507 -0.1719
C19B C -0.1210(3) 0.3920(2) -0.3751(5)
H37B H -0.1613 0.3951 -0.4631
H38B H -0.1441 0.3594 -0.3213
C20B C 0.0376(3) 0.6364(2) -0.6027(4)
H39B H 0.0435 0.6850 -0.5874
H40B H -0.0077 0.6290 -0.6838
C21B C 0.6952(2) 0.51614(17) 0.8960(3)
C22B C 0.6469(2) 0.48038(19) 0.7685(3)
C23B C 0.6828(2) 0.58489(18) 0.9115(3)
H41B H 0.6441 0.6085 0.8442
C24B C 0.7274(3) 0.6190(2) 1.0261(4)
H42B H 0.7191 0.6654 1.0352
C25B C 0.7846(2) 0.58388(18) 1.1275(4)
H43B H 0.8152 0.6069 1.2039
C26B C 0.7963(2) 0.51488(18) 1.1154(3)
C27B C 0.8566(2) 0.47732(19) 1.2302(3)
C28B C 0.7512(2) 0.48052(18) 0.9992(3)
H44B H 0.7586 0.4340 0.9908
O5 O 0.2770(4) 0.7063(3) 0.1267(6)
H45 H 0.2315(19) 0.6978(13) 0.147(3)
H46 H 0.3238(19) 0.7073(13) 0.110(3)
O6 O 0.2624(4) 0.6975(3) -0.1709(5)
H47 H 0.202(3) 0.714(2) -0.137(4)
O7 O 0.0912(5) 0.6825(4) 0.9629(7)
H48? H 0.209(7) 0.739(6) -0.300(12)
loop_
_geom_bond_atom_site_label_1
_geom_bond_atom_site_label_2
_geom_bond_site_symmetry_1
_geom_bond_site_symmetry_2
Ni1 N1 1_555 1_555
Ni2 N3 1_555 1_555
N1 H1 1_555 1_555
N2 Ni1 1_555 1_555
H2 N2 1_555 1_555
N3 H3 1_555 1_555
N4 Ni2 1_555 1_555
H4 N4 1_555 1_555
O1 Ni1 1_555 1_555
O2 C22 1_555 1_555
O3 Ni2 1_555 1_555
O4 C27 1_555 1_555
C1 N1 1_555 1_555
H5 C1 1_555 1_555
C2 C1 1_555 1_555
H6 C2 1_555 1_555
H7 C2 1_555 1_555
C3 C2 1_555 1_555
H8 C3 1_555 1_555
H9 C3 1_555 1_555
C4 C3 1_555 1_555
H10 C4 1_555 1_555
H11 C4 1_555 1_555
C5 C4 1_555 1_555
H12 C5 1_555 1_555
H13 C5 1_555 1_555
C6 N2 1_555 1_555
H14 C6 1_555 1_555
C7 N2 1_555 1_555
H15 C7 1_555 1_555
C8 C7 1_555 1_555
H16 C8 1_555 1_555
H17 C8 1_555 1_555
H18 C8 1_555 1_555
C9 C7 1_555 1_555
H19 C9 1_555 1_555
H20 C9 1_555 1_555
C10 N1 1_555 1_555
H21 C10 1_555 1_555
H22 C10 1_555 1_555
C11 N3 1_555 1_555
H23 C11 1_555 1_555
C12 C11 1_555 1_555
H24 C12 1_555 1_555
H25 C12 1_555 1_555
C13 C12 1_555 1_555
H26 C13 1_555 1_555
H27 C13 1_555 1_555
C14 C13 1_555 1_555
H28 C14 1_555 1_555
H29 C14 1_555 1_555
C15 C14 1_555 1_555
H30 C15 1_555 1_555
H31 C15 1_555 1_555
C16 N4 1_555 1_555
H32 C16 1_555 1_555
C17 N4 1_555 1_555
H33 C17 1_555 1_555
C18 C17 1_555 1_555
H34 C18 1_555 1_555
H35 C18 1_555 1_555
H36 C18 1_555 1_555
C19 C17 1_555 1_555
H37 C19 1_555 1_555
H38 C19 1_555 1_555
C20 N3 1_555 1_555
H39 C20 1_555 1_555
H40 C20 1_555 1_555
C21 C22 1_555 1_555
C22 O1 1_555 1_555
C23 C21 1_555 1_555
H41 C23 1_555 1_555
C24 C23 1_555 1_555
H42 C24 1_555 1_555
C25 C24 1_555 1_555
H43 C25 1_555 1_555
C26 C25 1_555 1_555
C27 O3 1_555 1_555
C28 C21 1_555 1_555
H44 C28 1_555 1_555
O5 H45 1_555 1_555
H46 O5 1_555 1_555
O6 H47 1_555 1_555
Ni2_2 O3B 1_555 1_555
N1B Ni1 1_555 1_555
H1B N1B 1_555 1_555
N2B Ni1 1_555 1_555
H2B N2B 1_555 1_555
N3B Ni2 1_555 1_555
H3B N3B 1_555 1_555
N4B Ni2 1_555 1_555
H4B N4B 1_555 1_555
O1B Ni1 1_555 1_555
O2B C22B 1_555 1_555
O3B C27B 1_555 1_555
O3B_2 Ni2 1_555 1_555
O4B C27B 1_555 1_555
C1B N1B 1_555 1_555
H5B C1B 1_555 1_555
C2B C1B 1_555 1_555
H6B C2B 1_555 1_555
H7B C2B 1_555 1_555
C3B C2B 1_555 1_555
H8B C3B 1_555 1_555
H9B C3B 1_555 1_555
C4B C3B 1_555 1_555
H10B C4B 1_555 1_555
H11B C4B 1_555 1_555
C5B C4B 1_555 1_555
H12B C5B 1_555 1_555
H13B C5B 1_555 1_555
C6B N2B 1_555 1_555
H14B C6B 1_555 1_555
C7B N2B 1_555 1_555
H15B C7B 1_555 1_555
C8B C7B 1_555 1_555
H16B C8B 1_555 1_555
H17B C8B 1_555 1_555
H18B C8B 1_555 1_555
C9B C10 1_555 1_555
H19B C9B 1_555 1_555
H20B C9B 1_555 1_555
C10B C9 1_555 1_555
H21B C10B 1_555 1_555
H22B C10B 1_555 1_555
C11B N3B 1_555 1_555
H23B C11B 1_555 1_555
C12B C11B 1_555 1_555
H24B C12B 1_555 1_555
H25B C12B 1_555 1_555
C13B C12B 1_555 1_555
H26B C13B 1_555 1_555
H27B C13B 1_555 1_555
C14B C13B 1_555 1_555
H28B C14B 1_555 1_555
H29B C14B 1_555 1_555
C15B C14B 1_555 1_555
H30B C15B 1_555 1_555
H31B C15B 1_555 1_555
C16B N4B 1_555 1_555
H32B C16B 1_555 1_555
C17B N4B 1_555 1_555
H33B C17B 1_555 1_555
C18B C17B 1_555 1_555
H34B C18B 1_555 1_555
H35B C18B 1_555 1_555
H36B C18B 1_555 1_555
C19B C20 1_555 1_555
H37B C19B 1_555 1_555
H38B C19B 1_555 1_555
C20B C19 1_555 1_555
H39B C20B 1_555 1_555
H40B C20B 1_555 1_555
C21B C22B 1_555 1_555
C22B O1B 1_555 1_555
C23B C21B 1_555 1_555
H41B C23B 1_555 1_555
C24B C23B 1_555 1_555
H42B C24B 1_555 1_555
C25B C24B 1_555 1_555
H43B C25B 1_555 1_555
C26B C25B 1_555 1_555
C27B C26B 1_555 1_555
C28B C21B 1_555 1_555
H44B C28B 1_555 1_555
C1 C6 1_555 1_555
C5 C6 1_555 1_555
C11 C16 1_555 1_555
C15 C16 1_555 1_555
C26 C27 1_555 1_555
C26 C28 1_555 1_555
N1B C10B 1_555 1_555
N3B C20B 1_555 1_555
C1B C6B 1_555 1_555
C5B C6B 1_555 1_555
C7B C9B 1_555 1_555
C11B C16B 1_555 1_555
C15B C16B 1_555 1_555
C17B C19B 1_555 1_555
C26B C28B 1_555 1_555

#END
