
#######################################################################
#
#                 Cambridge Crystallographic Data Centre
#                                CCDC 
#
#######################################################################
#
# If this CIF has been generated from an entry in the Cambridge 
# Structural Database, then it will include bibliographic, chemical, 
# crystal, experimental, refinement or atomic coordinate data resulting 
# from the CCDC's data processing and validation procedures.
#
#######################################################################

data_BIWBAL
_symmetry_cell_setting           triclinic
_symmetry_space_group_name_H-M   'P -1'
_symmetry_Int_Tables_number      2
_space_group_name_Hall           '-P 1'
loop_
_symmetry_equiv_pos_site_id
_symmetry_equiv_pos_as_xyz
1 x,y,z
2 -x,-y,-z
_cell_length_a                   9.9995(18)
_cell_length_b                   12.755(2)
_cell_length_c                   12.8119(18)
_cell_angle_alpha                93.00(2)
_cell_angle_beta                 102.16(2)
_cell_angle_gamma                106.77(2)
_cell_volume                     1518.27
loop_
_atom_site_label
_atom_site_type_symbol
_atom_site_fract_x
_atom_site_fract_y
_atom_site_fract_z
Ni1 Ni 0.5000 -0.5000 0.0000
Ni2 Ni 0.5000 0.0000 0.5000
N1 N 0.5323(8) -0.3347(6) 0.0005(7)
H1 H 0.5481 -0.3188 -0.0652
N2 N 0.2846(8) -0.5089(7) -0.0420(7)
H2 H 0.284(9) -0.514(7) 0.035(7)
N3 N 0.4886(7) 0.0345(6) 0.3434(6)
H3 H 0.518(8) 0.105(6) 0.359(7)
N4 N 0.2889(7) 0.0009(6) 0.4684(6)
H4 H 0.2398 -0.0720 0.4496
O1 O 0.4617(7) -0.4792(5) 0.1597(5)
O2 O 0.4565(8) -0.6384(6) 0.2211(5)
O3 O 0.4344(7) -0.1742(5) 0.4478(5)
O4 O 0.2006(7) -0.2350(5) 0.4327(6)
H5 H 0.136(10) -0.265(8) 0.387(8)
O5 O -0.0456(8) -0.6713(7) 0.3558(6)
O6 O 0.0453(6) -0.6706(5) 0.5276(6)
C1 C 0.4000(10) -0.3101(7) 0.0057(7)
H6 H 0.3890 -0.3155 0.0796
C2 C 0.3943(11) -0.1979(7) -0.0204(8)
H7 H 0.4095 -0.1888 -0.0921
H8 H 0.4717 -0.1423 0.0297
C3 C 0.2520(13) -0.1798(9) -0.0150(10)
H9 H 0.2424 -0.1796 0.0588
H10 H 0.2519 -0.1082 -0.0370
C4 C 0.1266(12) -0.2668(9) -0.0851(9)
H11 H 0.1267 -0.2586 -0.1600
H12 H 0.0383 -0.2574 -0.0725
C5 C 0.1316(10) -0.3829(9) -0.0630(9)
H13 H 0.1132 -0.3956 0.0073
H14 H 0.0558 -0.4368 -0.1159
C6 C 0.2741(9) -0.4003(7) -0.0667(8)
H15 H 0.2848 -0.3940 -0.1406
C7 C 0.1778(10) -0.6065(8) -0.1074(8)
H16 H 0.0835 -0.6062 -0.0973
C8 C 0.1728(12) -0.6045(10) -0.2249(9)
H17 H 0.1561 -0.5376 -0.2469
H18 H 0.0964 -0.6667 -0.2652
H19 H 0.2626 -0.6078 -0.2380
C9 C 0.2027(11) -0.7083(9) -0.0694(10)
H20 H 0.1209 -0.7699 -0.1070
H21 H 0.2015 -0.7054 0.0062
C10 C 0.6616(11) -0.2641(8) 0.0806(9)
H22 H 0.6737 -0.1873 0.0709
H23 H 0.6477 -0.2744 0.1524
C11 C 0.3384(8) 0.0094(7) 0.2889(7)
H24 H 0.2982 -0.0709 0.2718
C12 C 0.3123(10) 0.0595(8) 0.1852(7)
H25 H 0.3604 0.0332 0.1360
H26 H 0.3536 0.1391 0.1999
C13 C 0.1535(9) 0.0308(8) 0.1323(8)
H27 H 0.1416 0.0663 0.0674
H28 H 0.1138 -0.0483 0.1121
C14 C 0.0722(10) 0.0672(9) 0.2065(8)
H29 H 0.1028 0.1471 0.2195
H30 H -0.0299 0.0420 0.1731
C15 C 0.0997(9) 0.0204(9) 0.3115(8)
H31 H 0.0563 -0.0590 0.2988
H32 H 0.0531 0.0494 0.3602
C16 C 0.2576(8) 0.0465(7) 0.3646(7)
H33 H 0.2973 0.1270 0.3800
C17 C 0.2213(8) 0.0311(7) 0.5536(7)
H34 H 0.1169 -0.0020 0.5282
C18 C 0.2526(10) 0.1553(8) 0.5765(8)
H35 H 0.2220 0.1842 0.5111
H36 H 0.3540 0.1894 0.6046
H37 H 0.2017 0.1705 0.6282
C19 C 0.2685(9) -0.0181(8) 0.6523(8)
H38 H 0.2383 -0.0973 0.6329
H39 H 0.2146 -0.0040 0.7032
C20 C 0.5762(9) -0.0156(8) 0.2884(8)
H40 H 0.5370 -0.0953 0.2815
H41 H 0.5698 0.0062 0.2166
C21 C 0.4406(10) -0.5461(8) 0.2263(8)
C22 C 0.3884(9) -0.5115(7) 0.3228(7)
H42 H 0.4617 -0.5110 0.3872
C23 C 0.3703(9) -0.3978(6) 0.3274(7)
H43 H 0.2970 -0.3952 0.2654
H44 H 0.4598 -0.3439 0.3238
C24 C 0.3277(9) -0.3671(6) 0.4302(7)
H45 H 0.4042 -0.3697 0.4910
C25 C 0.3207(10) -0.2492(8) 0.4360(8)
C26 C 0.1922(8) -0.4540(6) 0.4384(7)
H46 H 0.1131 -0.4502 0.3816
H47 H 0.1704 -0.4379 0.5066
C27 C 0.2030(9) -0.5703(6) 0.4301(7)
H48 H 0.2728 -0.5772 0.4936
C28 C 0.0537(10) -0.6444(7) 0.4331(9)
C29 C 0.2504(9) -0.5972(7) 0.3312(7)
H49 H 0.1751 -0.6012 0.2680
H50 H 0.2655 -0.6690 0.3327
Ni2_2 Ni 0.5000 -1.0000 -0.5000
N1A N 0.4677(8) -0.6653(6) -0.0005(7)
H1A H 0.4519 -0.6812 0.0652
N2A N 0.7154(8) -0.4911(7) 0.0420(7)
H2A H 0.716(9) -0.486(7) -0.035(7)
N3A N 0.5114(7) -0.0345(6) 0.6566(6)
H3A H 0.482(8) -0.105(6) 0.641(7)
N4A N 0.7111(7) -0.0009(6) 0.5316(6)
H4A H 0.7602 0.0720 0.5504
O1A O 0.5383(7) -0.5208(5) -0.1597(5)
O2A O 0.5435(8) -0.3616(6) -0.2211(5)
O3A O 0.5656(7) -0.8258(5) -0.4478(5)
O3A_2 O 0.5656(7) 0.1742(5) 0.5522(5)
O4A O 0.7994(7) -0.7650(5) -0.4327(6)
H5A H 0.864(10) -0.735(8) -0.387(8)
O5A O 1.0456(8) -0.3287(7) -0.3558(6)
O6A O 0.9547(6) -0.3294(5) -0.5276(6)
C1A C 0.6000(10) -0.6899(7) -0.0057(7)
H6A H 0.6110 -0.6845 -0.0796
C2A C 0.6057(11) -0.8021(7) 0.0204(8)
H7A H 0.5905 -0.8112 0.0921
H8A H 0.5283 -0.8577 -0.0297
C3A C 0.7480(13) -0.8202(9) 0.0150(10)
H9A H 0.7576 -0.8204 -0.0588
H10A H 0.7481 -0.8918 0.0370
C4A C 0.8734(12) -0.7332(9) 0.0851(9)
H11A H 0.8733 -0.7414 0.1600
H12A H 0.9617 -0.7426 0.0725
C5A C 0.8684(10) -0.6171(9) 0.0630(9)
H13A H 0.8868 -0.6044 -0.0073
H14A H 0.9442 -0.5632 0.1159
C6A C 0.7259(9) -0.5997(7) 0.0667(8)
H15A H 0.7152 -0.6060 0.1406
C7A C 0.8222(10) -0.3935(8) 0.1074(8)
H16A H 0.9165 -0.3938 0.0973
C8A C 0.8272(12) -0.3955(10) 0.2249(9)
H17A H 0.8439 -0.4624 0.2469
H18A H 0.9036 -0.3333 0.2652
H19A H 0.7374 -0.3922 0.2380
C9A C 0.7973(11) -0.2917(9) 0.0694(10)
H20A H 0.8791 -0.2301 0.1070
H21A H 0.7985 -0.2946 -0.0062
C10A C 0.3384(11) -0.7359(8) -0.0806(9)
H22A H 0.3263 -0.8127 -0.0709
H23A H 0.3523 -0.7256 -0.1524
C11A C 0.6616(8) -0.0094(7) 0.7111(7)
H24A H 0.7018 0.0709 0.7282
C12A C 0.6877(10) -0.0595(8) 0.8148(7)
H25A H 0.6396 -0.0332 0.8640
H26A H 0.6464 -0.1391 0.8001
C13A C 0.8465(9) -0.0308(8) 0.8677(8)
H27A H 0.8584 -0.0663 0.9326
H28A H 0.8862 0.0483 0.8879
C14A C 0.9278(10) -0.0672(9) 0.7935(8)
H29A H 0.8972 -0.1471 0.7805
H30A H 1.0299 -0.0420 0.8269
C15A C 0.9003(9) -0.0204(9) 0.6885(8)
H31A H 0.9437 0.0590 0.7012
H32A H 0.9469 -0.0494 0.6398
C16A C 0.7424(8) -0.0465(7) 0.6354(7)
H33A H 0.7027 -0.1270 0.6200
C17A C 0.7787(8) -0.0311(7) 0.4464(7)
H34A H 0.8831 0.0020 0.4718
C18A C 0.7474(10) -0.1553(8) 0.4235(8)
H35A H 0.7780 -0.1842 0.4889
H36A H 0.6460 -0.1894 0.3954
H37A H 0.7983 -0.1705 0.3718
C19A C 0.7315(9) 0.0181(8) 0.3477(8)
H38A H 0.7617 0.0973 0.3671
H39A H 0.7854 0.0040 0.2968
C20A C 0.4238(9) 0.0156(8) 0.7116(8)
H40A H 0.4630 0.0953 0.7185
H41A H 0.4302 -0.0062 0.7834
C21A C 0.5594(10) -0.4539(8) -0.2263(8)
C22A C 0.6116(9) -0.4885(7) -0.3228(7)
H42A H 0.5383 -0.4890 -0.3872
C23A C 0.6297(9) -0.6022(6) -0.3274(7)
H43A H 0.7030 -0.6048 -0.2654
H44A H 0.5402 -0.6561 -0.3238
C24A C 0.6723(9) -0.6329(6) -0.4302(7)
H45A H 0.5958 -0.6303 -0.4910
C25A C 0.6793(10) -0.7508(8) -0.4360(8)
C26A C 0.8078(8) -0.5460(6) -0.4384(7)
H46A H 0.8869 -0.5498 -0.3816
H47A H 0.8296 -0.5621 -0.5066
C27A C 0.7970(9) -0.4297(6) -0.4301(7)
H48A H 0.7272 -0.4228 -0.4936
C28A C 0.9463(10) -0.3556(7) -0.4331(9)
C29A C 0.7496(9) -0.4028(7) -0.3312(7)
H49A H 0.8249 -0.3988 -0.2680
H50A H 0.7345 -0.3310 -0.3327
O7 O 0.3522(8) -0.2595(6) 0.6864(7)
H51 H 0.249(11) -0.309(8) 0.648(8)
H52 H 0.395(11) -0.312(9) 0.709(9)
loop_
_geom_bond_atom_site_label_1
_geom_bond_atom_site_label_2
_geom_bond_site_symmetry_1
_geom_bond_site_symmetry_2
Ni1 N1 1_555 1_555
Ni2 N3 1_555 1_555
N1 H1 1_555 1_555
N2 Ni1 1_555 1_555
H2 N2 1_555 1_555
N3 H3 1_555 1_555
N4 Ni2 1_555 1_555
H4 N4 1_555 1_555
O1 Ni1 1_555 1_555
O2 C21 1_555 1_555
O3 Ni2 1_555 1_555
O4 H5 1_555 1_555
O5 C28 1_555 1_555
O6 C28 1_555 1_555
C1 N1 1_555 1_555
H6 C1 1_555 1_555
C2 C1 1_555 1_555
H7 C2 1_555 1_555
H8 C2 1_555 1_555
C3 C2 1_555 1_555
H9 C3 1_555 1_555
H10 C3 1_555 1_555
C4 C3 1_555 1_555
H11 C4 1_555 1_555
H12 C4 1_555 1_555
C5 C4 1_555 1_555
H13 C5 1_555 1_555
H14 C5 1_555 1_555
C6 N2 1_555 1_555
H15 C6 1_555 1_555
C7 N2 1_555 1_555
H16 C7 1_555 1_555
C8 C7 1_555 1_555
H17 C8 1_555 1_555
H18 C8 1_555 1_555
H19 C8 1_555 1_555
C9 C7 1_555 1_555
H20 C9 1_555 1_555
H21 C9 1_555 1_555
C10 N1 1_555 1_555
H22 C10 1_555 1_555
H23 C10 1_555 1_555
C11 N3 1_555 1_555
H24 C11 1_555 1_555
C12 C11 1_555 1_555
H25 C12 1_555 1_555
H26 C12 1_555 1_555
C13 C12 1_555 1_555
H27 C13 1_555 1_555
H28 C13 1_555 1_555
C14 C13 1_555 1_555
H29 C14 1_555 1_555
H30 C14 1_555 1_555
C15 C14 1_555 1_555
H31 C15 1_555 1_555
H32 C15 1_555 1_555
C16 N4 1_555 1_555
H33 C16 1_555 1_555
C17 N4 1_555 1_555
H34 C17 1_555 1_555
C18 C17 1_555 1_555
H35 C18 1_555 1_555
H36 C18 1_555 1_555
H37 C18 1_555 1_555
C19 C17 1_555 1_555
H38 C19 1_555 1_555
H39 C19 1_555 1_555
C20 N3 1_555 1_555
H40 C20 1_555 1_555
H41 C20 1_555 1_555
C21 O1 1_555 1_555
C22 C21 1_555 1_555
H42 C22 1_555 1_555
C23 C22 1_555 1_555
H43 C23 1_555 1_555
H44 C23 1_555 1_555
C24 C23 1_555 1_555
H45 C24 1_555 1_555
C25 O3 1_555 1_555
C26 C24 1_555 1_555
H46 C26 1_555 1_555
H47 C26 1_555 1_555
C27 C26 1_555 1_555
H48 C27 1_555 1_555
C28 C27 1_555 1_555
C29 C22 1_555 1_555
H49 C29 1_555 1_555
H50 C29 1_555 1_555
O7 H51 1_555 1_555
H52 O7 1_555 1_555
Ni2_2 O3A 1_555 1_555
N1A Ni1 1_555 1_555
H1A N1A 1_555 1_555
N2A Ni1 1_555 1_555
H2A N2A 1_555 1_555
N3A Ni2 1_555 1_555
H3A N3A 1_555 1_555
N4A Ni2 1_555 1_555
H4A N4A 1_555 1_555
O1A Ni1 1_555 1_555
O2A C21A 1_555 1_555
O3A C25A 1_555 1_555
O3A_2 Ni2 1_555 1_555
O4A H5A 1_555 1_555
O5A C28A 1_555 1_555
O6A C28A 1_555 1_555
C1A N1A 1_555 1_555
H6A C1A 1_555 1_555
C2A C1A 1_555 1_555
H7A C2A 1_555 1_555
H8A C2A 1_555 1_555
C3A C2A 1_555 1_555
H9A C3A 1_555 1_555
H10A C3A 1_555 1_555
C4A C3A 1_555 1_555
H11A C4A 1_555 1_555
H12A C4A 1_555 1_555
C5A C4A 1_555 1_555
H13A C5A 1_555 1_555
H14A C5A 1_555 1_555
C6A N2A 1_555 1_555
H15A C6A 1_555 1_555
C7A N2A 1_555 1_555
H16A C7A 1_555 1_555
C8A C7A 1_555 1_555
H17A C8A 1_555 1_555
H18A C8A 1_555 1_555
H19A C8A 1_555 1_555
C9A C10 1_555 1_555
H20A C9A 1_555 1_555
H21A C9A 1_555 1_555
C10A C9 1_555 1_555
H22A C10A 1_555 1_555
H23A C10A 1_555 1_555
C11A N3A 1_555 1_555
H24A C11A 1_555 1_555
C12A C11A 1_555 1_555
H25A C12A 1_555 1_555
H26A C12A 1_555 1_555
C13A C12A 1_555 1_555
H27A C13A 1_555 1_555
H28A C13A 1_555 1_555
C14A C13A 1_555 1_555
H29A C14A 1_555 1_555
H30A C14A 1_555 1_555
C15A C14A 1_555 1_555
H31A C15A 1_555 1_555
H32A C15A 1_555 1_555
C16A N4A 1_555 1_555
H33A C16A 1_555 1_555
C17A N4A 1_555 1_555
H34A C17A 1_555 1_555
C18A C17A 1_555 1_555
H35A C18A 1_555 1_555
H36A C18A 1_555 1_555
H37A C18A 1_555 1_555
C19A C20 1_555 1_555
H38A C19A 1_555 1_555
H39A C19A 1_555 1_555
C20A C19 1_555 1_555
H40A C20A 1_555 1_555
H41A C20A 1_555 1_555
C21A O1A 1_555 1_555
C22A C21A 1_555 1_555
H42A C22A 1_555 1_555
C23A C22A 1_555 1_555
H43A C23A 1_555 1_555
H44A C23A 1_555 1_555
C24A C23A 1_555 1_555
H45A C24A 1_555 1_555
C25A O4A 1_555 1_555
C26A C24A 1_555 1_555
H46A C26A 1_555 1_555
H47A C26A 1_555 1_555
C27A C26A 1_555 1_555
H48A C27A 1_555 1_555
C28A C27A 1_555 1_555
C29A C22A 1_555 1_555
H49A C29A 1_555 1_555
H50A C29A 1_555 1_555
O4 C25 1_555 1_555
C1 C6 1_555 1_555
C5 C6 1_555 1_555
C11 C16 1_555 1_555
C15 C16 1_555 1_555
C24 C25 1_555 1_555
C27 C29 1_555 1_555
N1A C10A 1_555 1_555
N3A C20A 1_555 1_555
C1A C6A 1_555 1_555
C5A C6A 1_555 1_555
C7A C9A 1_555 1_555
C11A C16A 1_555 1_555
C15A C16A 1_555 1_555
C17A C19A 1_555 1_555
C24A C25A 1_555 1_555
C27A C29A 1_555 1_555

#END
