
#######################################################################
#
#                 Cambridge Crystallographic Data Centre
#                                CCDC 
#
#######################################################################
#
# If this CIF has been generated from an entry in the Cambridge 
# Structural Database, then it will include bibliographic, chemical, 
# crystal, experimental, refinement or atomic coordinate data resulting 
# from the CCDC's data processing and validation procedures.
#
#######################################################################

data_BIWFUJ
_symmetry_cell_setting           orthorhombic
_symmetry_space_group_name_H-M   'P b c a'
_symmetry_Int_Tables_number      61
_space_group_name_Hall           '-P 2ac 2ab'
loop_
_symmetry_equiv_pos_site_id
_symmetry_equiv_pos_as_xyz
1 x,y,z
2 1/2-x,-y,1/2+z
3 1/2+x,1/2-y,-z
4 -x,1/2+y,1/2-z
5 -x,-y,-z
6 1/2+x,y,1/2-z
7 1/2-x,1/2+y,z
8 x,1/2-y,1/2+z
_cell_length_a                   13.8183(6)
_cell_length_b                   13.5374(7)
_cell_length_c                   25.9622(12)
_cell_angle_alpha                90
_cell_angle_beta                 90
_cell_angle_gamma                90
_cell_volume                     4856.59
loop_
_atom_site_label
_atom_site_type_symbol
_atom_site_fract_x
_atom_site_fract_y
_atom_site_fract_z
C1 C 0.27598(19) 0.2738(2) 0.97239(10)
C2 C 0.28167(18) 0.3162(2) 0.91868(9)
C3 C 0.26262(19) 0.4153(2) 0.90908(10)
H1 H 0.2459 0.4581 0.9367
C4 C 0.2680(2) 0.4517(2) 0.85913(10)
H2 H 0.2544 0.5194 0.8526
C5 C 0.29322(18) 0.3895(2) 0.81873(10)
H3 H 0.2974 0.4149 0.7847
C6 C 0.31228(18) 0.2904(2) 0.82772(9)
C7 C 0.30592(18) 0.2545(2) 0.87782(9)
H4 H 0.3184 0.1866 0.8842
C8 C 0.33721(19) 0.2204(2) 0.78476(10)
C9 C 0.03016(19) 0.1621(2) 0.55321(10)
H5 H -0.0385 0.1816 0.5571
H6 H 0.0451 0.1603 0.5159
C10 C 0.0441(2) 0.0599(2) 0.57555(11)
H7 H 0.0077 0.0106 0.5551
H8 H 0.0205 0.0578 0.6115
C11 C 0.0634(2) 0.2546(2) 0.63349(10)
H9 H 0.0258 0.1971 0.6460
H10 H 0.0213 0.3136 0.6355
C12 C 0.15196(18) 0.2694(2) 0.66759(10)
H11 H 0.1824 0.3341 0.6603
H12 H 0.1332 0.2676 0.7044
C13 C 0.0862(2) 0.33010(19) 0.54811(11)
H13 H 0.0994 0.3147 0.5115
H14 H 0.0193 0.3560 0.5504
C14 C 0.15553(19) 0.4094(2) 0.56566(11)
H15 H 0.1335 0.4365 0.5991
H16 H 0.1558 0.4640 0.5403
C15 C 0.53169(19) 0.1518(2) 0.61854(10)
H17 H 0.5463 0.0802 0.6178
H18 H 0.5909 0.1878 0.6082
C16 C 0.45078(18) 0.1741(2) 0.58025(10)
H19 H 0.4493 0.2456 0.5722
H20 H 0.4615 0.1372 0.5478
C17 C 0.54645(19) 0.2780(2) 0.68740(11)
H21 H 0.6179 0.2727 0.6869
H22 H 0.5265 0.2934 0.7231
C18 C 0.51610(19) 0.3619(2) 0.65273(11)
H23 H 0.5355 0.4255 0.6685
H24 H 0.5495 0.3558 0.6191
C19 C 0.53681(19) 0.1060(2) 0.71014(10)
H25 H 0.5297 0.1336 0.7453
H26 H 0.6064 0.0926 0.7044
C20 C 0.4819(2) 0.0094(2) 0.70730(11)
H27 H 0.4931 -0.0213 0.6732
H28 H 0.5072 -0.0362 0.7339
N1 N 0.09261(15) 0.23754(16) 0.57854(8)
N2 N 0.50418(15) 0.18142(16) 0.67220(8)
O1 O 0.25245(14) 0.33406(14) 1.00740(7)
O2 O 0.29466(15) 0.18456(15) 0.97824(7)
O3 O 0.35318(16) 0.13262(15) 0.79611(7)
O4 O 0.34018(13) 0.25736(14) 0.73977(7)
O6 O 0.14384(15) 0.03954(16) 0.57380(9)
O7 O 0.21752(12) 0.19135(13) 0.65624(6)
O8 O 0.25123(14) 0.37119(14) 0.57108(7)
O9 O 0.36260(12) 0.14480(13) 0.60316(6)
O10 O 0.41406(14) 0.36130(15) 0.64474(8)
O11 O 0.38046(15) 0.02243(16) 0.71482(8)
Cu1 Cu 0.35601(2) 0.19557(2) 0.672318(11)
Cu2 Cu 0.23367(2) 0.18434(2) 0.581300(11)
H29 H 0.158(2) -0.013(2) 0.5793(12)
H31 H 0.375(2) 0.049(2) 0.7397(12)
H33 H 0.391(2) 0.406(2) 0.6611(11)
H34 H 0.275(3) 0.351(4) 0.5366(17)
O1G O 0.25245(14) 0.16594(14) 0.50740(7)
Cu2G Cu 0.23367(2) 0.31566(2) 1.081300(11)
O5 O 0.17837(18) 0.00547(18) 0.69698(8)
H30 H 0.182(2) 0.060(3) 0.6845(12)
H32 H 0.231(3) -0.011(3) 0.7009(15)
loop_
_geom_bond_atom_site_label_1
_geom_bond_atom_site_label_2
_geom_bond_site_symmetry_1
_geom_bond_site_symmetry_2
C1 C2 1_555 1_555
C2 C3 1_555 1_555
C3 H1 1_555 1_555
C4 C3 1_555 1_555
H2 C4 1_555 1_555
C5 C4 1_555 1_555
H3 C5 1_555 1_555
C6 C5 1_555 1_555
C7 C2 1_555 1_555
H4 C7 1_555 1_555
C8 C6 1_555 1_555
C9 H5 1_555 1_555
H6 C9 1_555 1_555
C10 C9 1_555 1_555
H7 C10 1_555 1_555
H8 C10 1_555 1_555
C11 H9 1_555 1_555
H10 C11 1_555 1_555
C12 C11 1_555 1_555
H11 C12 1_555 1_555
H12 C12 1_555 1_555
C13 H13 1_555 1_555
H14 C13 1_555 1_555
C14 C13 1_555 1_555
H15 C14 1_555 1_555
H16 C14 1_555 1_555
C15 H17 1_555 1_555
H18 C15 1_555 1_555
C16 C15 1_555 1_555
H19 C16 1_555 1_555
H20 C16 1_555 1_555
C17 H21 1_555 1_555
H22 C17 1_555 1_555
C18 C17 1_555 1_555
H23 C18 1_555 1_555
H24 C18 1_555 1_555
C19 H25 1_555 1_555
H26 C19 1_555 1_555
C20 C19 1_555 1_555
H27 C20 1_555 1_555
H28 C20 1_555 1_555
N1 C9 1_555 1_555
N2 C15 1_555 1_555
O1 C1 1_555 1_555
O2 C1 1_555 1_555
O3 C8 1_555 1_555
O4 C8 1_555 1_555
O5 H30 1_555 1_555
O6 C10 1_555 1_555
O7 C12 1_555 1_555
O8 C14 1_555 1_555
O9 C16 1_555 1_555
O10 C18 1_555 1_555
O11 C20 1_555 1_555
Cu1 N2 1_555 1_555
Cu2 N1 1_555 1_555
H29 O6 1_555 1_555
H31 O11 1_555 1_555
H32 O5 1_555 1_555
H33 O10 1_555 1_555
H34 O8 1_555 1_555
O1G Cu2 1_555 1_555
Cu2G O1 1_555 1_555
C6 C7 1_555 1_555
C11 N1 1_555 1_555
C13 N1 1_555 1_555
C17 N2 1_555 1_555
C19 N2 1_555 1_555
O4 Cu1 1_555 1_555
O6 Cu2 1_555 1_555
O7 Cu1 1_555 1_555
O7 Cu2 1_555 1_555
O8 Cu2 1_555 1_555
O9 Cu1 1_555 1_555
O9 Cu2 1_555 1_555
O10 Cu1 1_555 1_555
O11 Cu1 1_555 1_555

#END
