
#######################################################################
#
#                 Cambridge Crystallographic Data Centre
#                                CCDC 
#
#######################################################################
#
# If this CIF has been generated from an entry in the Cambridge 
# Structural Database, then it will include bibliographic, chemical, 
# crystal, experimental, refinement or atomic coordinate data resulting 
# from the CCDC's data processing and validation procedures.
#
#######################################################################

data_BIWTOR
_symmetry_cell_setting           orthorhombic
_symmetry_space_group_name_H-M   'P c a 21'
_symmetry_Int_Tables_number      29
_space_group_name_Hall           'P 2c -2ac'
loop_
_symmetry_equiv_pos_site_id
_symmetry_equiv_pos_as_xyz
1 x,y,z
2 -x,-y,1/2+z
3 1/2+x,-y,z
4 1/2-x,y,1/2+z
_cell_length_a                   14.9506(12)
_cell_length_b                   7.4209(6)
_cell_length_c                   11.9292(10)
_cell_angle_alpha                90
_cell_angle_beta                 90
_cell_angle_gamma                90
_cell_volume                     1323.51
loop_
_atom_site_label
_atom_site_type_symbol
_atom_site_fract_x
_atom_site_fract_y
_atom_site_fract_z
Cd1 Cd 0.28272(2) 0.17946(6) 0.80447(3)
S1 S 0.45207(9) 0.2095(2) 0.80986(16)
Se1 Se 0.22047(5) -0.11896(9) 0.70991(5)
Se2 Se 0.17490(4) 0.42784(8) 0.89357(5)
N1 N 0.4344(3) 0.4414(7) 0.9824(5)
N2 N 0.5012(4) 0.1889(7) 1.0258(4)
N3 N 0.2158(4) 0.0021(7) 0.4752(4)
N4 N 0.2183(4) 0.3489(7) 1.1309(4)
C1 C 0.4625(3) 0.2842(7) 0.9457(4)
C2 C 0.4062(6) 0.5913(8) 0.9122(9)
H1 H 0.4499 0.6858 0.9161
H2 H 0.3496 0.6358 0.9381
H3 H 0.4005 0.5511 0.8360
C3 C 0.5333(6) 0.0104(11) 1.0207(10)
H4 H 0.4942 -0.0672 1.0625
H5 H 0.5924 0.0053 1.0523
H6 H 0.5353 -0.0284 0.9440
C4 C 0.4589(6) 0.4685(13) 1.0978(7)
H7 H 0.4069 0.4972 1.1431
H8 H 0.5025 0.5646 1.1052
C5 C 0.4977(6) 0.2925(14) 1.1307(6)
H9 H 0.5571 0.3079 1.1619
H10 H 0.4602 0.2326 1.1856
C6 C 0.2178(4) -0.0401(7) 0.5658(4)
C7 C 0.2020(4) 0.3795(7) 1.0389(4)
Cd1C Cd 0.21728(2) 0.17946(6) 0.30447(3)
Cd1C_2 Cd 0.21728(2) 0.17946(6) 1.30447(3)
N3C N 0.2842(4) 0.0021(7) 0.9752(4)
N4C N 0.2817(4) 0.3489(7) 0.6309(4)
loop_
_geom_bond_atom_site_label_1
_geom_bond_atom_site_label_2
_geom_bond_site_symmetry_1
_geom_bond_site_symmetry_2
Cd1 S1 1_555 1_555
S1 C1 1_555 1_555
Se1 Cd1 1_555 1_555
Se2 Cd1 1_555 1_555
N1 C1 1_555 1_555
N2 C1 1_555 1_555
N3 C6 1_555 1_555
N4 C7 1_555 1_555
C2 N1 1_555 1_555
H1 C2 1_555 1_555
H2 C2 1_555 1_555
H3 C2 1_555 1_555
C3 N2 1_555 1_555
H4 C3 1_555 1_555
H5 C3 1_555 1_555
H6 C3 1_555 1_555
C4 N1 1_555 1_555
H7 C4 1_555 1_555
H8 C4 1_555 1_555
C5 N2 1_555 1_555
H9 C5 1_555 1_555
H10 C5 1_555 1_555
C6 Se1 1_555 1_555
C7 Se2 1_555 1_555
Cd1C N3 1_555 1_555
Cd1C_2 N4 1_555 1_555
N3C Cd1 1_555 1_555
N4C Cd1 1_555 1_555
C4 C5 1_555 1_555

#END
