
#######################################################################
#
#                 Cambridge Crystallographic Data Centre
#                                CCDC 
#
#######################################################################
#
# If this CIF has been generated from an entry in the Cambridge 
# Structural Database, then it will include bibliographic, chemical, 
# crystal, experimental, refinement or atomic coordinate data resulting 
# from the CCDC's data processing and validation procedures.
#
#######################################################################

data_BIWVEJ
_symmetry_cell_setting           triclinic
_symmetry_space_group_name_H-M   'P -1'
_symmetry_Int_Tables_number      2
_space_group_name_Hall           '-P 1'
loop_
_symmetry_equiv_pos_site_id
_symmetry_equiv_pos_as_xyz
1 x,y,z
2 -x,-y,-z
_cell_length_a                   7.562(3)
_cell_length_b                   8.745(4)
_cell_length_c                   11.263(4)
_cell_angle_alpha                104.320(6)
_cell_angle_beta                 90.046(5)
_cell_angle_gamma                110.010(6)
_cell_volume                     675.119
loop_
_atom_site_label
_atom_site_type_symbol
_atom_site_fract_x
_atom_site_fract_y
_atom_site_fract_z
Mn1 Mn 0.5000 0.0000 0.0000
Cl1 Cl 0.84734(9) 0.18902(8) 0.05445(6)
N1 N 0.7020(3) -0.2854(3) -0.31213(18)
N2 N 0.5582(3) -0.2722(3) -0.3746(2)
N3 N 0.5817(3) -0.1375(3) -0.17474(18)
N4 N 0.7145(3) -0.3240(3) -0.84690(18)
N5 N 0.5309(4) -0.4077(3) -0.8354(2)
N6 N 0.5615(3) -0.1802(3) -0.90368(19)
C1 C 0.9201(4) -0.3054(3) -0.4712(2)
C2 C 0.8527(4) -0.3750(3) -0.5941(2)
H1 H 0.7430 -0.4699 -0.6162
C3 C 0.9457(4) -0.3058(3) -0.6848(2)
C4 C 1.1101(4) -0.1653(4) -0.6503(3)
H2 H 1.1757 -0.1188 -0.7102
C5 C 1.1772(4) -0.0940(4) -0.5277(3)
H3 H 1.2870 0.0008 -0.5053
C6 C 1.0822(4) -0.1629(4) -0.4391(3)
H4 H 1.1269 -0.1134 -0.3567
C7 C 0.8163(4) -0.3817(4) -0.3739(3)
H5 H 0.7350 -0.4972 -0.4115
H6 H 0.9068 -0.3834 -0.3137
C8 C 0.8668(4) -0.3811(4) -0.8174(2)
H7 H 0.9674 -0.3497 -0.8698
H8 H 0.8183 -0.5031 -0.8344
C9 C 0.4908(4) -0.1832(4) -0.2876(2)
H9 H 0.3875 -0.1538 -0.3029
C10 C 0.7150(4) -0.2050(3) -0.1952(2)
H10 H 0.8050 -0.1967 -0.1353
C11 C 0.4454(4) -0.3166(4) -0.8712(3)
H11 H 0.3150 -0.3439 -0.8740
C12 C 0.7287(4) -0.1913(3) -0.8872(2)
H12 H 0.8418 -0.1156 -0.9020
Mn1_2 Mn 0.5000 0.0000 -1.0000
Mn1_3 Mn 0.5000 0.0000 1.0000
Cl1A Cl 0.15266(9) -0.18902(8) -0.05445(6)
N1A N 0.2980(3) 0.2854(3) 0.31213(18)
N2A N 0.4418(3) 0.2722(3) 0.3746(2)
N3A N 0.4183(3) 0.1375(3) 0.17474(18)
N4A N 0.2855(3) 0.3240(3) 0.84690(18)
N5A N 0.4691(4) 0.4077(3) 0.8354(2)
N6A N 0.4385(3) 0.1802(3) 0.90368(19)
N6_2 N 0.5615(3) -0.1802(3) 0.09632(19)
N6A_2 N 0.4385(3) 0.1802(3) -0.09632(19)
C1A C 0.0799(4) 0.3054(3) 0.4712(2)
C2A C 0.1473(4) 0.3750(3) 0.5941(2)
H1A H 0.2570 0.4699 0.6162
C3A C 0.0543(4) 0.3058(3) 0.6848(2)
C4A C -0.1101(4) 0.1653(4) 0.6503(3)
H2A H -0.1757 0.1188 0.7102
C5A C -0.1772(4) 0.0940(4) 0.5277(3)
H3A H -0.2870 -0.0008 0.5053
C6A C -0.0822(4) 0.1629(4) 0.4391(3)
H4A H -0.1269 0.1134 0.3567
C7A C 0.1837(4) 0.3817(4) 0.3739(3)
H5A H 0.2650 0.4972 0.4115
H6A H 0.0932 0.3834 0.3137
C8A C 0.1332(4) 0.3811(4) 0.8174(2)
H7A H 0.0326 0.3497 0.8698
H8A H 0.1817 0.5031 0.8344
C9A C 0.5092(4) 0.1832(4) 0.2876(2)
H9A H 0.6125 0.1538 0.3029
C10A C 0.2850(4) 0.2050(3) 0.1952(2)
H10A H 0.1950 0.1967 0.1353
C11A C 0.5546(4) 0.3166(4) 0.8712(3)
H11A H 0.6850 0.3439 0.8740
C12A C 0.2713(4) 0.1913(3) 0.8872(2)
H12A H 0.1582 0.1156 0.9020
loop_
_geom_bond_atom_site_label_1
_geom_bond_atom_site_label_2
_geom_bond_site_symmetry_1
_geom_bond_site_symmetry_2
Mn1 Cl1 1_555 1_555
N1 N2 1_555 1_555
N2 C9 1_555 1_555
N3 Mn1 1_555 1_555
N4 N5 1_555 1_555
N5 C11 1_555 1_555
N6 C11 1_555 1_555
C1 C2 1_555 1_555
C2 H1 1_555 1_555
C3 C2 1_555 1_555
C4 C3 1_555 1_555
H2 C4 1_555 1_555
C5 C4 1_555 1_555
H3 C5 1_555 1_555
C6 C1 1_555 1_555
H4 C6 1_555 1_555
C7 N1 1_555 1_555
H5 C7 1_555 1_555
H6 C7 1_555 1_555
C8 N4 1_555 1_555
H7 C8 1_555 1_555
H8 C8 1_555 1_555
C9 N3 1_555 1_555
H9 C9 1_555 1_555
C10 N1 1_555 1_555
H10 C10 1_555 1_555
C11 H11 1_555 1_555
C12 N4 1_555 1_555
H12 C12 1_555 1_555
Mn1_2 N6 1_555 1_555
Mn1_3 N6A 1_555 1_555
Cl1A Mn1 1_555 1_555
N1A N2A 1_555 1_555
N2A C9A 1_555 1_555
N3A Mn1 1_555 1_555
N4A N5A 1_555 1_555
N5A C11A 1_555 1_555
N6A C11A 1_555 1_555
N6_2 Mn1 1_555 1_555
N6A_2 Mn1 1_555 1_555
C1A C2A 1_555 1_555
C2A H1A 1_555 1_555
C3A C2A 1_555 1_555
C4A C3A 1_555 1_555
H2A C4A 1_555 1_555
C5A C4A 1_555 1_555
H3A C5A 1_555 1_555
C6A C1A 1_555 1_555
H4A C6A 1_555 1_555
C7A N1A 1_555 1_555
H5A C7A 1_555 1_555
H6A C7A 1_555 1_555
C8A N4A 1_555 1_555
H7A C8A 1_555 1_555
H8A C8A 1_555 1_555
C9A N3A 1_555 1_555
H9A C9A 1_555 1_555
C10A N1A 1_555 1_555
H10A C10A 1_555 1_555
C11A H11A 1_555 1_555
C12A N4A 1_555 1_555
H12A C12A 1_555 1_555
N3 C10 1_555 1_555
N6 C12 1_555 1_555
C1 C7 1_555 1_555
C3 C8 1_555 1_555
C5 C6 1_555 1_555
N3A C10A 1_555 1_555
N6A C12A 1_555 1_555
C1A C7A 1_555 1_555
C3A C8A 1_555 1_555
C5A C6A 1_555 1_555

#END
