
#######################################################################
#
#                 Cambridge Crystallographic Data Centre
#                                CCDC 
#
#######################################################################
#
# If this CIF has been generated from an entry in the Cambridge 
# Structural Database, then it will include bibliographic, chemical, 
# crystal, experimental, refinement or atomic coordinate data resulting 
# from the CCDC's data processing and validation procedures.
#
#######################################################################

data_BIWVIN
_symmetry_cell_setting           monoclinic
_symmetry_space_group_name_H-M   'P 21/c'
_symmetry_Int_Tables_number      14
_space_group_name_Hall           '-P 2ybc'
loop_
_symmetry_equiv_pos_site_id
_symmetry_equiv_pos_as_xyz
1 x,y,z
2 -x,1/2+y,1/2-z
3 -x,-y,-z
4 x,1/2-y,1/2+z
_cell_length_a                   10.782(2)
_cell_length_b                   8.7264(17)
_cell_length_c                   15.856(3)
_cell_angle_alpha                90
_cell_angle_beta                 101.282(4)
_cell_angle_gamma                90
_cell_volume                     1463.03
loop_
_atom_site_label
_atom_site_type_symbol
_atom_site_fract_x
_atom_site_fract_y
_atom_site_fract_z
Mn1 Mn 1.0000 0.0000 0.5000
S1 S 0.80659(6) 0.02277(7) 0.74482(4)
N1 N 0.61881(15) 0.14697(19) 0.36852(10)
N2 N 0.57861(17) 0.0635(2) 0.43054(12)
N3 N 0.79114(16) 0.05493(19) 0.44789(11)
N4 N 0.12237(15) 0.44395(18) 0.41965(11)
N5 N 0.14885(16) 0.4686(2) 0.50642(11)
N6 N 0.05811(15) 0.23814(18) 0.47589(10)
N7 N 0.97272(18) 0.0589(2) 0.63111(11)
C1 C 0.48025(18) 0.3748(2) 0.34005(12)
C2 C 0.35137(18) 0.3988(2) 0.33176(12)
H1 H 0.2935 0.3243 0.3036
C3 C 0.30559(19) 0.5316(2) 0.36437(12)
C4 C 0.39112(19) 0.6403(2) 0.40476(12)
H2 H 0.3612 0.7317 0.4265
C5 C 0.5199(2) 0.6158(2) 0.41336(13)
H3 H 0.5779 0.6903 0.4415
C6 C 0.5646(2) 0.4844(2) 0.38149(12)
H4 H 0.6531 0.4685 0.3878
C7 C 0.5288(2) 0.2313(3) 0.30408(13)
H5 H 0.4564 0.1638 0.2809
H6 H 0.5704 0.2597 0.2559
C8 C 0.16575(19) 0.5507(2) 0.36053(14)
H7 H 0.1479 0.6572 0.3762
H8 H 0.1193 0.5314 0.3012
C9 C 0.6847(2) 0.0100(2) 0.47582(15)
H9 H 0.6873 -0.0548 0.5242
C10 C 0.74367(19) 0.1411(2) 0.38050(13)
H10 H 0.7928 0.1920 0.3454
C11 C 0.10803(18) 0.3427(2) 0.53696(13)
H11 H 0.1129 0.3258 0.5967
C12 C 0.06920(18) 0.3072(2) 0.40321(13)
H12 H 0.0429 0.2649 0.3474
C13 C 0.90323(19) 0.0447(2) 0.67827(13)
Mn1_2 Mn 0.0000 0.0000 0.5000
Mn1_3 Mn 2.0000 0.0000 0.5000
S1B S 1.19341(6) -0.02277(7) 0.25518(4)
N1B N 1.38119(15) -0.14697(19) 0.63148(10)
N2B N 1.42139(17) -0.0635(2) 0.56946(12)
N3B N 1.20886(16) -0.05493(19) 0.55211(11)
N4B N 1.87763(15) -0.44395(18) 0.58035(11)
N5B N 1.85115(16) -0.4686(2) 0.49358(11)
N6B N 1.94189(15) -0.23814(18) 0.52411(10)
N6_2 N 1.05811(15) 0.23814(18) 0.47589(10)
N6B_2 N 0.94189(15) -0.23814(18) 0.52411(10)
N7B N 1.02728(18) -0.0589(2) 0.36889(11)
C1B C 1.51975(18) -0.3748(2) 0.65995(12)
C2B C 1.64863(18) -0.3988(2) 0.66824(12)
H1B H 1.7065 -0.3243 0.6964
C3B C 1.69441(19) -0.5316(2) 0.63563(12)
C4B C 1.60888(19) -0.6403(2) 0.59524(12)
H2B H 1.6388 -0.7317 0.5735
C5B C 1.4801(2) -0.6158(2) 0.58664(13)
H3B H 1.4221 -0.6903 0.5585
C6B C 1.4354(2) -0.4844(2) 0.61851(12)
H4B H 1.3469 -0.4685 0.6122
C7B C 1.4712(2) -0.2313(3) 0.69592(13)
H5B H 1.5436 -0.1638 0.7191
H6B H 1.4296 -0.2597 0.7441
C8B C 1.83425(19) -0.5507(2) 0.63947(14)
H7B H 1.8521 -0.6572 0.6238
H8B H 1.8807 -0.5314 0.6988
C9B C 1.3153(2) -0.0100(2) 0.52418(15)
H9B H 1.3127 0.0548 0.4758
C10B C 1.25633(19) -0.1411(2) 0.61950(13)
H10B H 1.2072 -0.1920 0.6546
C11B C 1.89197(18) -0.3427(2) 0.46304(13)
H11B H 1.8871 -0.3258 0.4033
C12B C 1.93080(18) -0.3072(2) 0.59679(13)
H12B H 1.9571 -0.2649 0.6526
C13B C 1.09677(19) -0.0447(2) 0.32173(13)
loop_
_geom_bond_atom_site_label_1
_geom_bond_atom_site_label_2
_geom_bond_site_symmetry_1
_geom_bond_site_symmetry_2
Mn1 N3 1_555 1_555
S1 C13 1_555 1_555
N1 N2 1_555 1_555
N2 C9 1_555 1_555
N3 C9 1_555 1_555
N4 N5 1_555 1_555
N5 C11 1_555 1_555
N6 C11 1_555 1_555
N7 Mn1 1_555 1_555
C1 C2 1_555 1_555
C2 H1 1_555 1_555
C3 C2 1_555 1_555
C4 C3 1_555 1_555
H2 C4 1_555 1_555
C5 C4 1_555 1_555
H3 C5 1_555 1_555
C6 C1 1_555 1_555
H4 C6 1_555 1_555
C7 N1 1_555 1_555
H5 C7 1_555 1_555
H6 C7 1_555 1_555
C8 N4 1_555 1_555
H7 C8 1_555 1_555
H8 C8 1_555 1_555
C9 H9 1_555 1_555
C10 N1 1_555 1_555
H10 C10 1_555 1_555
C11 H11 1_555 1_555
C12 N4 1_555 1_555
H12 C12 1_555 1_555
C13 N7 1_555 1_555
Mn1_2 N6 1_555 1_555
Mn1_3 N6B 1_555 1_555
S1B C13B 1_555 1_555
N1B N2B 1_555 1_555
N2B C9B 1_555 1_555
N3B Mn1 1_555 1_555
N4B N5B 1_555 1_555
N5B C11B 1_555 1_555
N6B C11B 1_555 1_555
N6_2 Mn1 1_555 1_555
N6B_2 Mn1 1_555 1_555
N7B Mn1 1_555 1_555
C1B C2B 1_555 1_555
C2B H1B 1_555 1_555
C3B C2B 1_555 1_555
C4B C3B 1_555 1_555
H2B C4B 1_555 1_555
C5B C4B 1_555 1_555
H3B C5B 1_555 1_555
C6B C1B 1_555 1_555
H4B C6B 1_555 1_555
C7B N1B 1_555 1_555
H5B C7B 1_555 1_555
H6B C7B 1_555 1_555
C8B N4B 1_555 1_555
H7B C8B 1_555 1_555
H8B C8B 1_555 1_555
C9B N3B 1_555 1_555
H9B C9B 1_555 1_555
C10B N1B 1_555 1_555
H10B C10B 1_555 1_555
C11B H11B 1_555 1_555
C12B N4B 1_555 1_555
H12B C12B 1_555 1_555
C13B N7B 1_555 1_555
N3 C10 1_555 1_555
N6 C12 1_555 1_555
C1 C7 1_555 1_555
C3 C8 1_555 1_555
C5 C6 1_555 1_555
N3B C10B 1_555 1_555
N6B C12B 1_555 1_555
C1B C7B 1_555 1_555
C3B C8B 1_555 1_555
C5B C6B 1_555 1_555

#END
