
#######################################################################
#
#                 Cambridge Crystallographic Data Centre
#                                CCDC 
#
#######################################################################
#
# If this CIF has been generated from an entry in the Cambridge 
# Structural Database, then it will include bibliographic, chemical, 
# crystal, experimental, refinement or atomic coordinate data resulting 
# from the CCDC's data processing and validation procedures.
#
#######################################################################

data_BIWVUZ
_symmetry_cell_setting           orthorhombic
_symmetry_space_group_name_H-M   'P n m a'
_symmetry_Int_Tables_number      62
_space_group_name_Hall           '-P 2ac 2n'
loop_
_symmetry_equiv_pos_site_id
_symmetry_equiv_pos_as_xyz
1 x,y,z
2 1/2-x,-y,1/2+z
3 -x,1/2+y,-z
4 1/2+x,1/2-y,1/2-z
5 -x,-y,-z
6 1/2+x,y,1/2-z
7 x,1/2-y,z
8 1/2-x,1/2+y,1/2+z
_cell_length_a                   7.8459(2)
_cell_length_b                   21.4036(6)
_cell_length_c                   17.4671(5)
_cell_angle_alpha                90
_cell_angle_beta                 90
_cell_angle_gamma                90
_cell_volume                     2933.26
loop_
_atom_site_label
_atom_site_type_symbol
_atom_site_fract_x
_atom_site_fract_y
_atom_site_fract_z
Co1 Co 0.81821(3) 0.605515(11) 0.077536(14)
Co2 Co 0.5000 0.5000 0.0000
N1 N 0.8019(3) 0.7500 0.02197(14)
N2 N 1.0646(3) 0.64455(9) 0.21886(15)
H1 H 1.1263 0.6459 0.2595
H2 H 1.0343 0.6091 0.2001
N3 N 0.9222(2) 0.69363(7) 0.11977(9)
N4 N 1.0689(4) 0.7500 0.21785(17)
O1 O 0.38549(19) 0.58432(6) 0.02901(10)
O2 O 0.57933(17) 0.63977(6) 0.09350(8)
O3 O 0.69940(18) 0.50739(7) 0.08255(8)
O4 O 0.80796(19) 0.55466(6) 0.18183(8)
O5 O 1.0477(2) 0.55730(8) 0.05588(11)
H3 H 1.0288 0.5276 0.0275
O6 O 0.8275(2) 0.46030(8) 0.42869(8)
O7 O 0.6851(2) 0.37447(7) 0.46053(8)
C1 C 1.0160(3) 0.69744(9) 0.18484(13)
C2 C 0.5870(3) 0.34938(10) 0.22266(13)
H4 H 0.5415 0.3127 0.2027
C3 C 0.1653(4) 0.7500 -0.0495(2)
H5 H 0.0813 0.7500 -0.0870
C4 C 0.7250(3) 0.45806(9) 0.28148(11)
H6 H 0.7719 0.4945 0.3013
C5 C 0.3538(2) 0.69373(9) 0.03414(12)
C6 C 0.4134(4) 0.7500 0.06348(17)
H7 H 0.4933 0.7500 0.1028
C7 C 0.7331(2) 0.50791(8) 0.15330(11)
C8 C 0.6243(3) 0.39881(9) 0.17428(12)
H8 H 0.6040 0.3952 0.1220
C9 C 0.4450(2) 0.63457(8) 0.05511(11)
C10 C 0.2275(3) 0.69391(10) -0.02173(13)
H9 H 0.1849 0.6563 -0.0404
C11 C 0.6918(2) 0.45370(9) 0.20360(11)
C12 C 0.8833(3) 0.7500 0.08821(15)
C13 C 0.6171(3) 0.35431(10) 0.30061(12)
H10 H 0.5894 0.3214 0.3330
C14 C 0.6887(2) 0.40838(9) 0.33020(11)
C15 C 0.7369(3) 0.41437(9) 0.41311(11)
H11 H 0.786(3) 0.7156(12) -0.0015(14)
H12 H 1.141(2) 0.5696(12) 0.0491(16)
Co1F Co 0.81821(3) 0.894485(11) 0.077536(14)
Co1A Co 0.68179(3) 0.394485(11) 0.577536(14)
Co1D Co 0.18179(3) 0.394485(11) -0.077536(14)
Co1E Co 0.31821(3) 0.605515(11) -0.577536(14)
Co2E Co 1.0000 0.5000 0.5000
Co2F Co 0.5000 1.0000 0.0000
Co2E_2 Co 0.0000 0.5000 -0.5000
N2F N 1.0646(3) 0.85545(9) 0.21886(15)
H1F H 1.1263 0.8541 0.2595
H2F H 1.0343 0.8909 0.2001
N3F N 0.9222(2) 0.80637(7) 0.11977(9)
O1F O 0.38549(19) 0.91568(6) 0.02901(10)
O1D O 0.61451(19) 0.41568(6) -0.02901(10)
O2F O 0.57933(17) 0.86023(6) 0.09350(8)
O3D O 0.30060(18) 0.49261(7) -0.08255(8)
O3F O 0.69940(18) 0.99261(7) 0.08255(8)
O4D O 0.19204(19) 0.44534(6) -0.18183(8)
O4F O 0.80796(19) 0.94534(6) 0.18183(8)
O5F O 1.0477(2) 0.94270(8) 0.05588(11)
H3F H 1.0288 0.9724 0.0275
O6D O 0.1725(2) 0.53970(8) -0.42869(8)
O6E O 0.3275(2) 0.46030(8) 0.07131(8)
O6A O 0.6725(2) 0.53970(8) -0.07131(8)
O7D O 0.3149(2) 0.62553(7) -0.46053(8)
O7A O 0.8149(2) 0.62553(7) -0.03947(8)
O7G O 0.8149(2) 0.87447(7) -0.03947(8)
C1F C 1.0160(3) 0.80256(9) 0.18484(13)
C2D C 0.4130(3) 0.65062(10) -0.22266(13)
H4D H 0.4585 0.6873 -0.2027
C4D C 0.2750(3) 0.54194(9) -0.28148(11)
H6D H 0.2281 0.5055 -0.3013
C5F C 0.3538(2) 0.80627(9) 0.03414(12)
C7D C 0.2669(2) 0.49209(8) -0.15330(11)
C8D C 0.3757(3) 0.60119(9) -0.17428(12)
H8D H 0.3960 0.6048 -0.1220
C9F C 0.4450(2) 0.86543(8) 0.05511(11)
C10F C 0.2275(3) 0.80609(10) -0.02173(13)
H9F H 0.1849 0.8437 -0.0404
C11D C 0.3082(2) 0.54630(9) -0.20360(11)
C13D C 0.3829(3) 0.64569(10) -0.30061(12)
H10D H 0.4106 0.6786 -0.3330
C14D C 0.3113(2) 0.59162(9) -0.33020(11)
C15D C 0.2631(3) 0.58563(9) -0.41311(11)
H11F H 0.786(3) 0.7844(12) -0.0015(14)
H12F H 1.141(2) 0.9304(12) 0.0491(16)
loop_
_geom_bond_atom_site_label_1
_geom_bond_atom_site_label_2
_geom_bond_site_symmetry_1
_geom_bond_site_symmetry_2
Co1 N3 1_555 1_555
Co2 O1 1_555 1_555
N1 C12 1_555 1_555
N2 H1 1_555 1_555
H2 N2 1_555 1_555
N3 C1 1_555 1_555
N4 C1 1_555 1_555
O1 C9 1_555 1_555
O2 Co1 1_555 1_555
O3 Co1 1_555 1_555
O4 Co1 1_555 1_555
O5 Co1 1_555 1_555
H3 O5 1_555 1_555
O6 C15 1_555 1_555
O7 C15 1_555 1_555
C1 N2 1_555 1_555
C2 H4 1_555 1_555
C3 H5 1_555 1_555
C4 H6 1_555 1_555
C5 C6 1_555 1_555
C6 H7 1_555 1_555
C7 O3 1_555 1_555
C8 C2 1_555 1_555
H8 C8 1_555 1_555
C9 O2 1_555 1_555
C10 C3 1_555 1_555
H9 C10 1_555 1_555
C11 C4 1_555 1_555
C12 N3 1_555 1_555
C13 C2 1_555 1_555
H10 C13 1_555 1_555
C14 C4 1_555 1_555
C15 C14 1_555 1_555
H11 N1 1_555 1_555
H12 O5 1_555 1_555
Co1F N3F 1_555 1_555
Co1A O7 1_555 1_555
Co1D O3D 1_555 1_555
Co1E O7D 1_555 1_555
Co2E O6 1_555 1_555
Co2F O1F 1_555 1_555
Co2E_2 O6D 1_555 1_555
N2F H1F 1_555 1_555
H2F N2F 1_555 1_555
N3F C12 1_555 1_555
O1F C9F 1_555 1_555
O1D Co2 1_555 1_555
O2F Co1F 1_555 1_555
O3D Co2 1_555 1_555
O3F Co1F 1_555 1_555
O4D Co1D 1_555 1_555
O4F Co1F 1_555 1_555
O5F Co1F 1_555 1_555
H3F O5F 1_555 1_555
O6D C15D 1_555 1_555
O6E Co2 1_555 1_555
O6A Co2 1_555 1_555
O7D C15D 1_555 1_555
O7A Co1 1_555 1_555
O7G Co1F 1_555 1_555
C1F N4 1_555 1_555
C2D H4D 1_555 1_555
C4D H6D 1_555 1_555
C5F C6 1_555 1_555
C7D O3D 1_555 1_555
C8D C2D 1_555 1_555
H8D C8D 1_555 1_555
C9F O2F 1_555 1_555
C10F C3 1_555 1_555
H9F C10F 1_555 1_555
C11D C4D 1_555 1_555
C13D C2D 1_555 1_555
H10D C13D 1_555 1_555
C14D C4D 1_555 1_555
C15D C14D 1_555 1_555
H11F N1 1_555 1_555
H12F O5F 1_555 1_555
Co2 O3 1_555 1_555
O4 C7 1_555 1_555
C5 C9 1_555 1_555
C5 C10 1_555 1_555
C7 C11 1_555 1_555
C8 C11 1_555 1_555
C13 C14 1_555 1_555
Co2F O3F 1_555 1_555
N2F C1F 1_555 1_555
N3F C1F 1_555 1_555
O4D C7D 1_555 1_555
C5F C9F 1_555 1_555
C5F C10F 1_555 1_555
C7D C11D 1_555 1_555
C8D C11D 1_555 1_555
C13D C14D 1_555 1_555

#END
