
#######################################################################
#
#                 Cambridge Crystallographic Data Centre
#                                CCDC 
#
#######################################################################
#
# If this CIF has been generated from an entry in the Cambridge 
# Structural Database, then it will include bibliographic, chemical, 
# crystal, experimental, refinement or atomic coordinate data resulting 
# from the CCDC's data processing and validation procedures.
#
#######################################################################

data_BIWVOT
_symmetry_cell_setting           monoclinic
_symmetry_space_group_name_H-M   'P 21/n'
_symmetry_Int_Tables_number      14
_space_group_name_Hall           '-P 2yn'
loop_
_symmetry_equiv_pos_site_id
_symmetry_equiv_pos_as_xyz
1 x,y,z
2 1/2-x,1/2+y,1/2-z
3 -x,-y,-z
4 1/2+x,1/2-y,1/2+z
_cell_length_a                   17.306(2)
_cell_length_b                   7.993(1)
_cell_length_c                   17.386(2)
_cell_angle_alpha                90
_cell_angle_beta                 97.43(1)
_cell_angle_gamma                90
_cell_volume                     2384.76
loop_
_atom_site_label
_atom_site_type_symbol
_atom_site_fract_x
_atom_site_fract_y
_atom_site_fract_z
Cu1 Cu 0.07734(3) 0.08005(6) 0.44974(3)
Cu2 Cu -0.07546(3) 0.29162(6) 0.45070(3)
O1 O -0.0104(1) 0.1784(3) 0.3777(1)
N1 N 0.1229(2) -0.0193(4) 0.3634(2)
N2 N -0.1484(2) 0.3822(4) 0.3649(2)
N3 N 0.0997(2) 0.5698(4) 0.4615(2)
N4 N 0.1288(2) 0.4496(4) 0.4567(2)
N5 N 0.1611(2) 0.3161(5) 0.4478(2)
N6 N 0.0134(2) 0.1908(4) 0.5187(2)
N7 N 0.0336(2) 0.2344(4) 0.5866(2)
N8 N 0.0483(3) 0.2739(6) 0.6490(3)
N9 N 0.1411(2) -0.0473(4) 0.5325(2)
N10 N 0.1808(2) 0.0159(4) 0.5857(2)
N11 N 0.2192(2) 0.0718(5) 0.6386(2)
C1 C 0.3062(3) 0.0808(6) 0.3800(3)
C2 C 0.3700(3) 0.1414(6) 0.3502(3)
C3 C 0.3925(3) 0.0729(6) 0.2843(3)
C4 C 0.3511(3) -0.0563(6) 0.2475(3)
C5 C 0.2875(3) -0.1212(6) 0.2777(3)
C6 C 0.2646(2) -0.0529(5) 0.3448(2)
C7 C 0.1960(2) -0.1257(5) 0.3788(2)
C8 C 0.0975(2) 0.0009(5) 0.2912(2)
C9 C 0.0297(2) 0.0928(5) 0.2573(2)
C10 C 0.0169(2) 0.0963(5) 0.1768(2)
C11 C -0.0445(2) 0.1801(5) 0.1359(2)
C12 C -0.0946(2) 0.2623(5) 0.1781(2)
C13 C -0.0846(2) 0.2618(5) 0.2588(2)
C14 C -0.0201(2) 0.1785(5) 0.3011(2)
C15 C -0.1414(2) 0.3566(5) 0.2930(2)
C16 C -0.2179(2) 0.4844(5) 0.3776(2)
C17 C -0.2854(2) 0.3766(5) 0.3921(2)
C18 C -0.3332(3) 0.3070(6) 0.3300(3)
C19 C -0.3955(3) 0.2043(6) 0.3425(3)
C20 C -0.4095(3) 0.1720(6) 0.4179(3)
C21 C -0.3627(3) 0.2407(6) 0.4793(3)
C22 C -0.3010(3) 0.3442(6) 0.4666(3)
C23 C -0.0573(3) 0.1837(6) 0.0480(2)
H1 H 0.2900 0.1317 0.4260
H2 H 0.3995 0.2334 0.3759
H3 H 0.4380 0.1163 0.2637
H4 H 0.3665 -0.1024 0.2001
H5 H 0.2587 -0.2143 0.2521
H6 H 0.1849 -0.2356 0.3564
H7 H 0.2099 -0.1362 0.4344
H8 H 0.1278 -0.0523 0.2548
H9 H 0.0529 0.0370 0.1481
H10 H -0.1384 0.3227 0.1508
H11 H -0.1809 0.4099 0.2564
H12 H -0.2332 0.5522 0.3319
H13 H -0.2042 0.5566 0.4221
H14 H -0.3232 0.3301 0.2774
H15 H -0.4286 0.1558 0.2990
H16 H -0.4527 0.1004 0.4271
H17 H -0.3727 0.2172 0.5318
H18 H -0.2687 0.3939 0.5104
H19 H -0.0167 0.1196 0.0280
H20 H -0.1077 0.1353 0.0296
H21 H -0.0557 0.2985 0.0302
Cu1B Cu -0.07734(3) -0.08005(6) 0.55026(3)
Cu2B Cu 0.07546(3) -0.29162(6) 0.54930(3)
Cu2B_2 Cu 0.07546(3) 0.70838(6) 0.54930(3)
N3B N -0.0997(2) 0.4302(4) 0.5385(2)
N6B N -0.0134(2) -0.1908(4) 0.4813(2)
N9B N -0.1411(2) 0.0473(4) 0.4675(2)
loop_
_geom_bond_atom_site_label_1
_geom_bond_atom_site_label_2
_geom_bond_site_symmetry_1
_geom_bond_site_symmetry_2
Cu1 O1 1_555 1_555
Cu2 O1 1_555 1_555
O1 C14 1_555 1_555
N1 Cu1 1_555 1_555
N2 Cu2 1_555 1_555
N3 N4 1_555 1_555
N4 N5 1_555 1_555
N5 Cu1 1_555 1_555
N6 Cu1 1_555 1_555
N7 N6 1_555 1_555
N8 N7 1_555 1_555
N9 Cu1 1_555 1_555
N10 N9 1_555 1_555
N11 N10 1_555 1_555
C1 C2 1_555 1_555
C2 C3 1_555 1_555
C3 C4 1_555 1_555
C4 C5 1_555 1_555
C5 C6 1_555 1_555
C6 C1 1_555 1_555
C7 N1 1_555 1_555
C8 N1 1_555 1_555
C9 C8 1_555 1_555
C10 C9 1_555 1_555
C11 C10 1_555 1_555
C12 C11 1_555 1_555
C13 C12 1_555 1_555
C14 C9 1_555 1_555
C15 N2 1_555 1_555
C16 N2 1_555 1_555
C17 C16 1_555 1_555
C18 C17 1_555 1_555
C19 C18 1_555 1_555
C20 C19 1_555 1_555
C21 C20 1_555 1_555
C22 C17 1_555 1_555
C23 C11 1_555 1_555
H1 C1 1_555 1_555
H2 C2 1_555 1_555
H3 C3 1_555 1_555
H4 C4 1_555 1_555
H5 C5 1_555 1_555
H6 C7 1_555 1_555
H7 C7 1_555 1_555
H8 C8 1_555 1_555
H9 C10 1_555 1_555
H10 C12 1_555 1_555
H11 C15 1_555 1_555
H12 C16 1_555 1_555
H13 C16 1_555 1_555
H14 C18 1_555 1_555
H15 C19 1_555 1_555
H16 C20 1_555 1_555
H17 C21 1_555 1_555
H18 C22 1_555 1_555
H19 C23 1_555 1_555
H20 C23 1_555 1_555
H21 C23 1_555 1_555
Cu1B N6 1_555 1_555
Cu2B N9 1_555 1_555
Cu2B_2 N3 1_555 1_555
N3B Cu2 1_555 1_555
N6B Cu1 1_555 1_555
N9B Cu2 1_555 1_555
Cu2 N6 1_555 1_555
C6 C7 1_555 1_555
C13 C14 1_555 1_555
C13 C15 1_555 1_555
C21 C22 1_555 1_555
Cu1B N6B 1_555 1_555
Cu1B N9B 1_555 1_555
Cu2B N6B 1_555 1_555

#END
