
#######################################################################
#
#                 Cambridge Crystallographic Data Centre
#                                CCDC 
#
#######################################################################
#
# If this CIF has been generated from an entry in the Cambridge 
# Structural Database, then it will include bibliographic, chemical, 
# crystal, experimental, refinement or atomic coordinate data resulting 
# from the CCDC's data processing and validation procedures.
#
#######################################################################

data_BIWVAF
_symmetry_cell_setting           monoclinic
_symmetry_space_group_name_H-M   'P 21/c'
_symmetry_Int_Tables_number      14
_space_group_name_Hall           '-P 2ybc'
loop_
_symmetry_equiv_pos_site_id
_symmetry_equiv_pos_as_xyz
1 x,y,z
2 -x,1/2+y,1/2-z
3 -x,-y,-z
4 x,1/2-y,1/2+z
_cell_length_a                   20.480(3)
_cell_length_b                   8.1579(12)
_cell_length_c                   20.692(3)
_cell_angle_alpha                90
_cell_angle_beta                 112.367(3)
_cell_angle_gamma                90
_cell_volume                     3197
loop_
_atom_site_label
_atom_site_type_symbol
_atom_site_fract_x
_atom_site_fract_y
_atom_site_fract_z
Mn1 Mn 0.23155(2) 0.45175(5) 0.36249(2)
O1 O 0.21912(15) 0.2124(3) 0.40137(13)
N1 N 0.14688(12) 0.2128(3) 0.15838(12)
N2 N 0.19457(13) 0.3030(3) 0.14229(13)
N3 N 0.20602(13) 0.3486(3) 0.25324(12)
N4 N -0.17783(12) 0.2531(3) -0.00407(12)
N5 N -0.21393(14) 0.1474(4) -0.05617(13)
N6 N -0.23091(13) 0.0869(3) 0.04221(13)
N7 N 0.29853(12) 0.9028(3) 0.29408(12)
N8 N 0.23116(13) 0.9087(3) 0.24550(13)
N9 N 0.24611(12) 0.6921(3) 0.31688(12)
N10 N 0.38877(12) 0.5769(3) 0.10416(12)
N11 N 0.33931(13) 0.5053(3) 0.12365(13)
N12 N 0.31547(13) 0.4611(3) 0.00978(13)
N13 N 0.46052(18) 0.2883(6) 0.45392(19)
N14 N 0.34425(14) 0.4094(3) 0.40360(14)
N15 N 0.52591(16) 0.1799(4) 0.57024(16)
N16 N -0.01257(17) 0.4229(7) 0.27324(19)
N17 N 0.11337(14) 0.4800(4) 0.32330(14)
N18 N -0.10020(14) 0.5047(3) 0.16231(14)
C1 C 0.04816(15) 0.1786(3) 0.04483(15)
C2 C -0.01557(16) 0.2374(4) 0.04441(15)
H1 H -0.0264 0.2241 0.0849
C3 C -0.06395(16) 0.3151(3) -0.01400(15)
C4 C -0.04718(17) 0.3344(4) -0.07220(15)
H2 H -0.0795 0.3881 -0.1124
C5 C 0.01616(18) 0.2764(4) -0.07257(16)
H3 H 0.0271 0.2902 -0.1129
C6 C 0.06351(17) 0.1986(4) -0.01437(16)
H4 H 0.1068 0.1585 -0.0149
C7 C 0.10006(16) 0.0951(4) 0.10889(16)
H5 H 0.0738 0.0326 0.1322
H6 H 0.1288 0.0165 0.0945
C8 C -0.13246(17) 0.3812(4) -0.01362(17)
H7 H -0.1221 0.4625 0.0245
H8 H -0.1580 0.4384 -0.0584
C9 C 0.22864(16) 0.3826(4) 0.20104(15)
H9 H 0.2659 0.4575 0.2063
C10 C 0.15494(16) 0.2408(4) 0.22363(15)
H10 H 0.1277 0.1903 0.2465
C11 C -0.24457(16) 0.0506(4) -0.02553(16)
H11 H -0.2741 -0.0381 -0.0491
C12 C -0.18885(16) 0.2159(4) 0.05291(15)
H12 H -0.1693 0.2738 0.0959
C13 C 0.37876(14) 1.0029(3) 0.23822(14)
C14 C 0.39868(15) 0.8496(4) 0.22233(15)
H13 H 0.3914 0.7553 0.2458
C15 C 0.42881(14) 0.8316(4) 0.17307(15)
C16 C 0.44099(16) 0.9698(4) 0.14043(16)
H14 H 0.4624 0.9590 0.1072
C17 C 0.42220(17) 1.1236(4) 0.15591(16)
H15 H 0.4309 1.2180 0.1336
C18 C 0.39062(15) 1.1391(4) 0.20413(15)
H16 H 0.3769 1.2445 0.2139
C19 C 0.35112(16) 1.0252(4) 0.29545(15)
H17 H 0.3912 1.0196 0.3412
H18 H 0.3298 1.1356 0.2911
C20 C 0.44885(15) 0.6645(4) 0.15564(16)
H19 H 0.4865 0.6766 0.1370
H20 H 0.4681 0.5985 0.1989
C21 C 0.20220(16) 0.7799(4) 0.26184(15)
H21 H 0.1542 0.7504 0.2370
C22 C 0.30606(16) 0.7747(4) 0.33541(15)
H22 H 0.3485 0.7459 0.3731
C23 C 0.29729(16) 0.4382(4) 0.06538(16)
H23 H 0.2566 0.3774 0.0623
C24 C 0.37380(16) 0.5489(4) 0.03724(16)
H24 H 0.4012 0.5868 0.0122
C25 C 0.39872(17) 0.3539(4) 0.43126(16)
C26 C 0.49281(16) 0.2355(4) 0.51770(19)
C27 C 0.05427(18) 0.4579(5) 0.29678(17)
C28 C -0.05597(17) 0.4693(4) 0.21255(17)
H25 H 0.185(2) 0.156(5) 0.3874(19)
H26 H 0.259(3) 0.159(7) 0.433(3)
Mn1A Mn -0.23155(2) -0.04825(5) 0.13751(2)
N6A N 0.23091(13) 0.5869(3) 0.45779(13)
loop_
_geom_bond_atom_site_label_1
_geom_bond_atom_site_label_2
_geom_bond_site_symmetry_1
_geom_bond_site_symmetry_2
Mn1 O1 1_555 1_555
O1 H25 1_555 1_555
N1 N2 1_555 1_555
N2 C9 1_555 1_555
N3 Mn1 1_555 1_555
N4 N5 1_555 1_555
N5 C11 1_555 1_555
N6 C11 1_555 1_555
N7 N8 1_555 1_555
N8 C21 1_555 1_555
N9 Mn1 1_555 1_555
N10 N11 1_555 1_555
N11 C23 1_555 1_555
N12 C23 1_555 1_555
N13 C25 1_555 1_555
N14 Mn1 1_555 1_555
N15 C26 1_555 1_555
N16 C27 1_555 1_555
N17 Mn1 1_555 1_555
N18 C28 1_555 1_555
C1 C2 1_555 1_555
C2 H1 1_555 1_555
C3 C2 1_555 1_555
C4 C3 1_555 1_555
H2 C4 1_555 1_555
C5 C4 1_555 1_555
H3 C5 1_555 1_555
C6 C1 1_555 1_555
H4 C6 1_555 1_555
C7 N1 1_555 1_555
H5 C7 1_555 1_555
H6 C7 1_555 1_555
C8 N4 1_555 1_555
H7 C8 1_555 1_555
H8 C8 1_555 1_555
C9 N3 1_555 1_555
H9 C9 1_555 1_555
C10 N1 1_555 1_555
H10 C10 1_555 1_555
C11 H11 1_555 1_555
C12 N4 1_555 1_555
H12 C12 1_555 1_555
C13 C14 1_555 1_555
C14 H13 1_555 1_555
C15 C14 1_555 1_555
C16 C15 1_555 1_555
H14 C16 1_555 1_555
C17 C16 1_555 1_555
H15 C17 1_555 1_555
C18 C13 1_555 1_555
H16 C18 1_555 1_555
C19 N7 1_555 1_555
H17 C19 1_555 1_555
H18 C19 1_555 1_555
C20 N10 1_555 1_555
H19 C20 1_555 1_555
H20 C20 1_555 1_555
C21 N9 1_555 1_555
H21 C21 1_555 1_555
C22 N7 1_555 1_555
H22 C22 1_555 1_555
C23 H23 1_555 1_555
C24 N10 1_555 1_555
H24 C24 1_555 1_555
C25 N14 1_555 1_555
C26 N13 1_555 1_555
C27 N17 1_555 1_555
C28 N16 1_555 1_555
H26 O1 1_555 1_555
Mn1A N6 1_555 1_555
N6A Mn1 1_555 1_555
N3 C10 1_555 1_555
N6 C12 1_555 1_555
N9 C22 1_555 1_555
N12 C24 1_555 1_555
C1 C7 1_555 1_555
C3 C8 1_555 1_555
C5 C6 1_555 1_555
C13 C19 1_555 1_555
C15 C20 1_555 1_555
C17 C18 1_555 1_555

#END
