
#######################################################################
#
#                 Cambridge Crystallographic Data Centre
#                                CCDC 
#
#######################################################################
#
# If this CIF has been generated from an entry in the Cambridge 
# Structural Database, then it will include bibliographic, chemical, 
# crystal, experimental, refinement or atomic coordinate data resulting 
# from the CCDC's data processing and validation procedures.
#
#######################################################################

data_BIWWOU
_symmetry_cell_setting           monoclinic
_symmetry_space_group_name_H-M   'C 2/c'
_symmetry_Int_Tables_number      15
_space_group_name_Hall           '-C 2yn'
loop_
_symmetry_equiv_pos_site_id
_symmetry_equiv_pos_as_xyz
1 x,y,z
2 1/2+x,1/2+y,z
3 -x,y,1/2-z
4 1/2-x,1/2+y,1/2-z
5 -x,-y,-z
6 1/2-x,1/2-y,-z
7 x,-y,1/2+z
8 1/2+x,1/2-y,1/2+z
_cell_length_a                   31.082(9)
_cell_length_b                   11.016(3)
_cell_length_c                   21.982(6)
_cell_angle_alpha                90
_cell_angle_beta                 132.331(6)
_cell_angle_gamma                90
_cell_volume                     5564.18
loop_
_atom_site_label
_atom_site_type_symbol
_atom_site_fract_x
_atom_site_fract_y
_atom_site_fract_z
Zn1 Zn 0.34175(2) 0.73200(4) 0.38597(3)
O1 O 0.39470(12) 0.6160(2) 0.47664(18)
C1 C 0.37830(19) 0.5065(4) 0.4711(3)
O2 O 0.32854(12) 0.4668(3) 0.41407(19)
C2 C 0.42368(18) 0.4230(3) 0.5378(3)
C3 C 0.48070(18) 0.4371(4) 0.5714(3)
H1 H 0.4902 0.5043 0.5554
C4 C 0.5238(2) 0.3541(4) 0.6282(3)
H2 H 0.5621 0.3628 0.6491
C5 C 0.5105(2) 0.2593(4) 0.6539(3)
H3 H 0.5399 0.2029 0.6932
C6 C 0.4548(2) 0.2459(4) 0.6230(3)
H4 H 0.4466 0.1813 0.6425
C7 C 0.4103(2) 0.3246(4) 0.5639(3)
C8 C 0.35044(19) 0.3027(4) 0.5319(3)
H5 H 0.3536 0.2594 0.5743
H6 H 0.3312 0.3817 0.5213
N1 N 0.31400(16) 0.2299(3) 0.4548(2)
H7 H 0.306(2) 0.261(4) 0.411(3)
H8 H 0.3342(18) 0.158(5) 0.467(3)
C9 C 0.25556(19) 0.1985(4) 0.4235(3)
H9 H 0.2344 0.2738 0.4140
H10 H 0.2600 0.1497 0.4653
C10 C 0.22100(19) 0.1275(4) 0.3445(3)
H11 H 0.2424 0.0520 0.3551
H12 H 0.1834 0.1040 0.3271
C11 C 0.20913(18) 0.1949(4) 0.2750(3)
O3 O 0.17656(13) 0.1427(3) 0.20553(18)
O4 O 0.23218(13) 0.2951(2) 0.28787(18)
O5 O 0.29008(12) 0.7977(2) 0.40097(18)
C12 C 0.23685(19) 0.7710(3) 0.3437(3)
O6 O 0.21945(12) 0.6977(2) 0.28798(18)
C13 C 0.19389(19) 0.8280(3) 0.3445(3)
C14 C 0.21056(19) 0.8512(4) 0.4204(3)
H13 H 0.2499 0.8391 0.4699
C15 C 0.1700(2) 0.8917(4) 0.4239(3)
H14 H 0.1812 0.9042 0.4758
C16 C 0.1139(2) 0.9138(4) 0.3530(3)
H15 H 0.0862 0.9406 0.3558
C17 C 0.0974(2) 0.8972(4) 0.2776(3)
H16 H 0.0587 0.9160 0.2289
C18 C 0.13646(19) 0.8533(3) 0.2715(3)
C19 C 0.11685(19) 0.8415(4) 0.1880(3)
H17 H 0.0822 0.8933 0.1484
H18 H 0.1481 0.8705 0.1904
N2 N 0.10214(18) 0.7129(3) 0.1585(2)
H19 H 0.075(2) 0.687(5) 0.151(3)
H20 H 0.134(2) 0.674(4) 0.198(3)
C20 C 0.0865(2) 0.6968(4) 0.0788(3)
H21 H 0.1200 0.7200 0.0848
H22 H 0.0535 0.7511 0.0372
C21 C 0.06958(19) 0.5666(4) 0.0493(3)
H23 H 0.0418 0.5394 0.0545
H24 H 0.0490 0.5644 -0.0098
C22 C 0.11918(19) 0.4780(4) 0.0943(3)
O7 O 0.10259(13) 0.3661(2) 0.07017(19)
O8 O 0.16950(13) 0.5117(2) 0.14746(19)
Cl1 Cl 0.15023(5) 0.48015(9) 0.32666(7)
O9 O 0.21188(14) 0.4951(3) 0.3867(2)
O10 O 0.13523(14) 0.3609(3) 0.3340(2)
O11 O 0.13101(16) 0.4933(3) 0.2471(2)
O12 O 0.12341(16) 0.5701(3) 0.3392(2)
Na1 Na 0.23757(7) 0.49724(13) 0.28843(11)
Zn1C Zn 0.15825(2) 0.23200(4) 0.11403(3)
O3C O 0.32344(13) 0.6427(3) 0.29447(18)
O7C O 0.39741(13) 0.8661(2) 0.42983(19)
O13 O 0.35227(15) 0.9946(3) 0.5112(2)
H25 H 0.361(2) 0.967(5) 0.553(3)
H26 H 0.332(2) 0.932(5) 0.472(3)
O14 O 0.00594(15) 0.3292(4) -0.1004(2)
H27 H 0.036(2) 0.335(5) -0.048(4)
C23 C 0.0206(3) 0.3378(6) -0.1489(4)
H28 H -0.0140 0.3215 -0.2066
H29 H 0.0509 0.2781 -0.1297
H30 H 0.0350 0.4196 -0.1439
loop_
_geom_bond_atom_site_label_1
_geom_bond_atom_site_label_2
_geom_bond_site_symmetry_1
_geom_bond_site_symmetry_2
Zn1 O1 1_555 1_555
O1 C1 1_555 1_555
C1 O2 1_555 1_555
O2 Na1 1_555 1_555
C2 C1 1_555 1_555
C3 C2 1_555 1_555
H1 C3 1_555 1_555
C4 C3 1_555 1_555
H2 C4 1_555 1_555
C5 C4 1_555 1_555
H3 C5 1_555 1_555
C6 C5 1_555 1_555
H4 C6 1_555 1_555
C7 C2 1_555 1_555
C8 C7 1_555 1_555
H5 C8 1_555 1_555
H6 C8 1_555 1_555
N1 C8 1_555 1_555
H7 N1 1_555 1_555
H8 N1 1_555 1_555
C9 N1 1_555 1_555
H9 C9 1_555 1_555
H10 C9 1_555 1_555
C10 C9 1_555 1_555
H11 C10 1_555 1_555
H12 C10 1_555 1_555
C11 C10 1_555 1_555
O3 C11 1_555 1_555
O4 C11 1_555 1_555
O5 Zn1 1_555 1_555
C12 O5 1_555 1_555
O6 C12 1_555 1_555
C13 C12 1_555 1_555
C14 C13 1_555 1_555
H13 C14 1_555 1_555
C15 C14 1_555 1_555
H14 C15 1_555 1_555
C16 C15 1_555 1_555
H15 C16 1_555 1_555
C17 C16 1_555 1_555
H16 C17 1_555 1_555
C18 C13 1_555 1_555
C19 C18 1_555 1_555
H17 C19 1_555 1_555
H18 C19 1_555 1_555
N2 C19 1_555 1_555
H19 N2 1_555 1_555
H20 N2 1_555 1_555
C20 N2 1_555 1_555
H21 C20 1_555 1_555
H22 C20 1_555 1_555
C21 C20 1_555 1_555
H23 C21 1_555 1_555
H24 C21 1_555 1_555
C22 C21 1_555 1_555
O7 C22 1_555 1_555
O8 C22 1_555 1_555
Cl1 O9 1_555 1_555
O9 Na1 1_555 1_555
O10 Cl1 1_555 1_555
O11 Cl1 1_555 1_555
O12 Cl1 1_555 1_555
Na1 O4 1_555 1_555
O13 H25 1_555 1_555
H26 O13 1_555 1_555
O14 H27 1_555 1_555
C23 O14 1_555 1_555
H28 C23 1_555 1_555
H29 C23 1_555 1_555
H30 C23 1_555 1_555
Zn1C O3 1_555 1_555
O3C Zn1 1_555 1_555
O7C Zn1 1_555 1_555
C6 C7 1_555 1_555
O6 Na1 1_555 1_555
C17 C18 1_555 1_555
O7 Zn1C 1_555 1_555
O8 Na1 1_555 1_555
O11 Na1 1_555 1_555

#END
