
#######################################################################
#
#                 Cambridge Crystallographic Data Centre
#                                CCDC 
#
#######################################################################
#
# If this CIF has been generated from an entry in the Cambridge 
# Structural Database, then it will include bibliographic, chemical, 
# crystal, experimental, refinement or atomic coordinate data resulting 
# from the CCDC's data processing and validation procedures.
#
#######################################################################

data_BIWXUB
_symmetry_cell_setting           monoclinic
_symmetry_space_group_name_H-M   'P 21/n'
_symmetry_Int_Tables_number      14
_space_group_name_Hall           '-P 2yn'
loop_
_symmetry_equiv_pos_site_id
_symmetry_equiv_pos_as_xyz
1 x,y,z
2 1/2-x,1/2+y,1/2-z
3 -x,-y,-z
4 1/2+x,1/2-y,1/2+z
_cell_length_a                   12.7529(5)
_cell_length_b                   15.9566(6)
_cell_length_c                   20.3402(8)
_cell_angle_alpha                90
_cell_angle_beta                 106.4000(10)
_cell_angle_gamma                90
_cell_volume                     3970.68
loop_
_atom_site_label
_atom_site_type_symbol
_atom_site_fract_x
_atom_site_fract_y
_atom_site_fract_z
Eu1 Eu 0.584467(17) 0.750573(13) 0.112751(11)
Ni1 Ni 1.0000 1.0000 0.0000
Ni2 Ni 0.15427(4) 0.50651(3) 0.17214(3)
O1 O 0.7361(2) 0.75279(19) 0.06694(16)
O2 O 0.8330(3) 0.63468(18) 0.08852(18)
O3 O 1.1234(3) 0.60092(18) -0.03322(15)
O4 O 1.1611(3) 0.7106(2) -0.08968(19)
O5 O 0.3923(2) 0.74508(18) 0.08292(17)
O6 O 0.3047(3) 0.86705(19) 0.06803(19)
O7 O 0.0279(3) 0.90375(17) 0.20292(17)
O8 O -0.0563(3) 0.7882(2) 0.22131(19)
O9 O 0.5440(3) 0.75262(19) 0.21897(17)
O10 O 0.4764(3) 0.62833(19) 0.23451(18)
O11 O 0.2081(2) 0.61777(17) 0.37745(15)
O12 O 0.1437(3) 0.74048(19) 0.40109(19)
O13 O 0.5330(3) 0.89682(19) 0.10603(17)
H1 H 0.5468 0.9324 0.1382
H2 H 0.4725 0.9157 0.0818
O14 O 0.5355(3) 0.6160(2) 0.0582(2)
H3 H 0.5400 0.5696 0.0785
H4 H 0.4787 0.6081 0.0250
O15 O 0.7025(3) 0.63805(19) 0.17348(17)
H5 H 0.7466 0.6311 0.1499
H6 H 0.7472 0.6435 0.2133
O16 O 0.5239(3) 0.7857(2) -0.00830(17)
H7 H 0.4612 0.7918 -0.0369
H8 H 0.5667 0.7787 -0.0322
O17 O 0.7289(3) 0.8330(2) 0.18943(17)
H9 H 0.7308 0.8457 0.2298
H10 H 0.7926 0.8176 0.1918
O18 O 1.1588(2) 0.98907(18) 0.05663(17)
H11 H 1.2023 0.9487 0.0614
H12 H 1.1966 1.0284 0.0793
O19 O 0.9590(3) 1.01064(18) 0.09062(16)
H13 H 0.9892 0.9796 0.1244
H14 H 0.8927 1.0115 0.0900
O20 O 0.3208(2) 0.50630(19) 0.21693(18)
H15 H 0.3635 0.5470 0.2242
H16 H 0.3539 0.4671 0.2417
N1 N 0.9780(3) 0.8673(2) -0.00146(18)
C1 C 0.9045(3) 0.8304(3) 0.0247(2)
H17 H 0.8561 0.8644 0.0392
C2 C 0.8964(3) 0.7446(3) 0.0314(2)
C3 C 0.9668(3) 0.6940(3) 0.0084(2)
H18 H 0.9651 0.6361 0.0132
C4 C 1.0398(3) 0.7307(2) -0.0221(2)
C5 C 1.0431(3) 0.8171(3) -0.0259(2)
H19 H 1.0924 0.8416 -0.0462
C6 C 0.8160(3) 0.7074(3) 0.0651(2)
C7 C 1.1150(4) 0.6775(3) -0.0504(2)
C8 C 0.2324(3) 0.6724(3) 0.1325(2)
H20 H 0.2787 0.6380 0.1166
C9 C 0.1699(3) 0.8092(3) 0.1493(2)
H21 H 0.1729 0.8671 0.1454
C10 C 0.0970(3) 0.7731(2) 0.1800(2)
C11 C 0.0953(3) 0.6867(3) 0.1846(2)
H22 H 0.0449 0.6621 0.2039
C12 C 0.3174(4) 0.7937(3) 0.0887(2)
C13 C 0.0173(3) 0.8255(3) 0.2038(2)
C14 C 0.4163(4) 0.8333(3) 0.2893(2)
H23 H 0.4636 0.8642 0.2713
C15 C 0.4173(3) 0.7470(3) 0.2838(2)
C16 C 0.3505(3) 0.7010(3) 0.3136(2)
H24 H 0.3522 0.6427 0.3130
C17 C 0.2810(3) 0.7427(2) 0.3444(2)
C18 C 0.2829(3) 0.8290(3) 0.3447(2)
H25 H 0.2344 0.8571 0.3636
C19 C 0.4851(4) 0.7048(3) 0.2432(2)
C20 C 0.2045(4) 0.6969(3) 0.3766(2)
O21 O 0.1285(3) 0.51529(19) 0.26700(16)
H26 H 0.0659 0.5120 0.2730
H27 H 0.1600 0.5501 0.2976
O22 O -0.0123(2) 0.51096(19) 0.12815(17)
H28 H -0.0419 0.4733 0.1000
H29 H -0.0533 0.5528 0.1190
O23 O 0.1769(3) 0.49096(18) 0.07468(16)
H30 H 0.1571 0.5268 0.0435
H31 H 0.2374 0.4735 0.0701
N2 N 0.1625(3) 0.6366(2) 0.16257(18)
N3 N 0.3507(3) 0.8751(2) 0.31937(18)
C21 C 0.2387(3) 0.7583(3) 0.1242(2)
Eu1B Eu 1.415533(17) 1.249427(13) -0.112751(11)
Ni2B Ni 1.84573(4) 1.49349(3) -0.17214(3)
Ni2A Ni 0.34573(4) 1.00651(3) 0.32786(3)
Ni2C Ni 1.65427(4) 0.99349(3) -0.32786(3)
O1B O 1.2639(2) 1.24721(19) -0.06694(16)
O2B O 1.1670(3) 1.36532(18) -0.08852(18)
O3B O 0.8766(3) 1.39908(18) 0.03322(15)
O4B O 0.8389(3) 1.2894(2) 0.08968(19)
O5B O 1.6077(2) 1.25492(18) -0.08292(17)
O6B O 1.6953(3) 1.13295(19) -0.06803(19)
O7B O 1.9721(3) 1.09625(17) -0.20292(17)
O8B O 2.0563(3) 1.2118(2) -0.22131(19)
O9B O 1.4560(3) 1.24738(19) -0.21897(17)
O10B O 1.5236(3) 1.37167(19) -0.23451(18)
O11B O 1.7919(2) 1.38223(17) -0.37745(15)
O12B O 1.8563(3) 1.25952(19) -0.40109(19)
O13B O 1.4670(3) 1.10318(19) -0.10603(17)
H1B H 1.4532 1.0676 -0.1382
H2B H 1.5275 1.0843 -0.0818
O14B O 1.4645(3) 1.3840(2) -0.0582(2)
H3B H 1.4600 1.4304 -0.0785
H4B H 1.5213 1.3919 -0.0250
O15B O 1.2975(3) 1.36195(19) -0.17348(17)
H5B H 1.2534 1.3689 -0.1499
H6B H 1.2528 1.3565 -0.2133
O16B O 1.4761(3) 1.2143(2) 0.00830(17)
H7B H 1.5388 1.2082 0.0369
H8B H 1.4333 1.2213 0.0322
O17B O 1.2711(3) 1.1670(2) -0.18943(17)
H9B H 1.2692 1.1543 -0.2298
H10B H 1.2074 1.1824 -0.1918
O18B O 0.8412(2) 1.01093(18) -0.05663(17)
H11B H 0.7977 1.0513 -0.0614
H12B H 0.8034 0.9716 -0.0793
O19B O 1.0410(3) 0.98936(18) -0.09062(16)
H13B H 1.0108 1.0204 -0.1244
H14B H 1.1073 0.9885 -0.0900
O20B O 1.6792(2) 1.49370(19) -0.21693(18)
H15B H 1.6365 1.4530 -0.2242
H16B H 1.6461 1.5329 -0.2417
N1B N 1.0220(3) 1.1327(2) 0.00146(18)
C1B C 1.0955(3) 1.1696(3) -0.0247(2)
H17B H 1.1439 1.1356 -0.0392
C2B C 1.1036(3) 1.2554(3) -0.0314(2)
C3B C 1.0332(3) 1.3060(3) -0.0084(2)
H18B H 1.0349 1.3639 -0.0132
C4B C 0.9602(3) 1.2693(2) 0.0221(2)
C5B C 0.9569(3) 1.1829(3) 0.0259(2)
H19B H 0.9076 1.1584 0.0462
C6B C 1.1840(3) 1.2926(3) -0.0651(2)
C7B C 0.8850(4) 1.3225(3) 0.0504(2)
C8B C 1.7676(3) 1.3276(3) -0.1325(2)
H20B H 1.7213 1.3620 -0.1166
C9B C 1.8301(3) 1.1908(3) -0.1493(2)
H21B H 1.8271 1.1329 -0.1454
C10B C 1.9030(3) 1.2269(2) -0.1800(2)
C11B C 1.9047(3) 1.3133(3) -0.1846(2)
H22B H 1.9551 1.3379 -0.2039
C12B C 1.6826(4) 1.2063(3) -0.0887(2)
C13B C 1.9827(3) 1.1745(3) -0.2038(2)
C14B C 1.5837(4) 1.1667(3) -0.2893(2)
H23B H 1.5364 1.1358 -0.2713
C15B C 1.5827(3) 1.2530(3) -0.2838(2)
C16B C 1.6495(3) 1.2990(3) -0.3136(2)
H24B H 1.6478 1.3573 -0.3130
C17B C 1.7190(3) 1.2573(2) -0.3444(2)
C18B C 1.7171(3) 1.1710(3) -0.3447(2)
H25B H 1.7656 1.1429 -0.3636
C19B C 1.5149(4) 1.2952(3) -0.2432(2)
C20B C 1.7955(4) 1.3031(3) -0.3766(2)
O21B O 1.8715(3) 1.48471(19) -0.26700(16)
H26B H 1.9341 1.4880 -0.2730
H27B H 1.8400 1.4499 -0.2976
O22B O 2.0123(2) 1.48904(19) -0.12815(17)
H28B H 2.0419 1.5267 -0.1000
H29B H 2.0533 1.4472 -0.1190
O23B O 1.8231(3) 1.50904(18) -0.07468(16)
H30B H 1.8429 1.4732 -0.0435
H31B H 1.7626 1.5265 -0.0701
N2B N 1.8375(3) 1.3634(2) -0.16257(18)
N3B N 1.6493(3) 1.1249(2) -0.31937(18)
N3A N 0.1493(3) 0.3751(2) 0.18063(18)
N3C N 1.8507(3) 1.6249(2) -0.18063(18)
C21B C 1.7613(3) 1.2417(3) -0.1242(2)
O24 O 0.6289(3) 0.1611(2) 0.20999(19)
H32 H 0.5808 0.1969 0.2135
H33 H 0.6385 0.1787 0.1718
O25 O 0.3766(4) 0.4121(3) 0.0694(2)
H34 H 0.4183 0.3726 0.0841
H35 H 0.3709 0.4176 0.0268
O26 O 0.7796(3) 0.3937(2) 0.18590(18)
H36 H 0.7887 0.3629 0.1539
H37 H 0.7200 0.4178 0.1662
O27 O 0.3978(4) 0.0426(2) 0.0313(2)
H38 H 0.3812 0.0694 0.0633
H39 H 0.4409 0.0764 0.0197
O28 O 0.6793(3) 0.1781(2) 0.09057(18)
H40 H 0.7331 0.2064 0.0872
H41 H 0.6926 0.1292 0.0788
O29 O 0.7444(3) 1.0088(3) 0.0872(2)
H42 H 0.7035 0.9900 0.0494
H43 H 0.7355 0.9730 0.1155
O30 O 0.9227(3) 0.4967(2) 0.27971(19)
H44 H 0.8987 0.5467 0.2792
H45 H 0.8756 0.4760 0.2448
O31 O 0.3452(3) 0.5531(3) 0.9741(2)
H46 H 0.3121 0.5110 0.9518
H47 H 0.2867 0.5797 0.9746
O32 O 0.6282(8) 0.5008(5) 0.2608(6)
H48 H 0.5799 0.4684 0.2774
H49 H 0.5828 0.5478 0.2531
O33 O 0.5714(7) 0.4662(5) 0.1425(7)
H50 H 0.5297 0.4216 0.1253
H51 H 0.5185 0.5041 0.1308
O34? O 0.5641(12) 0.4723(9) 0.1896(6)
loop_
_geom_bond_atom_site_label_1
_geom_bond_atom_site_label_2
_geom_bond_site_symmetry_1
_geom_bond_site_symmetry_2
Eu1 O1 1_555 1_555
Ni1 O18 1_555 1_555
Ni2 O20 1_555 1_555
O1 C6 1_555 1_555
O2 C6 1_555 1_555
O3 C7 1_555 1_555
O4 C7 1_555 1_555
O5 Eu1 1_555 1_555
O6 C12 1_555 1_555
O7 C13 1_555 1_555
O8 C13 1_555 1_555
O9 Eu1 1_555 1_555
O10 C19 1_555 1_555
O11 C20 1_555 1_555
O12 C20 1_555 1_555
O13 Eu1 1_555 1_555
H1 O13 1_555 1_555
H2 O13 1_555 1_555
O14 Eu1 1_555 1_555
H3 O14 1_555 1_555
H4 O14 1_555 1_555
O15 Eu1 1_555 1_555
H5 O15 1_555 1_555
H6 O15 1_555 1_555
O16 Eu1 1_555 1_555
H7 O16 1_555 1_555
H8 O16 1_555 1_555
O17 Eu1 1_555 1_555
H9 O17 1_555 1_555
H10 O17 1_555 1_555
O18 H11 1_555 1_555
H12 O18 1_555 1_555
O19 Ni1 1_555 1_555
H13 O19 1_555 1_555
H14 O19 1_555 1_555
O20 H15 1_555 1_555
H16 O20 1_555 1_555
N1 Ni1 1_555 1_555
C1 N1 1_555 1_555
H17 C1 1_555 1_555
C2 C1 1_555 1_555
C3 C2 1_555 1_555
H18 C3 1_555 1_555
C4 C3 1_555 1_555
C5 N1 1_555 1_555
H19 C5 1_555 1_555
C6 C2 1_555 1_555
C7 C4 1_555 1_555
C8 H20 1_555 1_555
C9 H21 1_555 1_555
C10 C9 1_555 1_555
C11 C10 1_555 1_555
H22 C11 1_555 1_555
C12 O5 1_555 1_555
C13 C10 1_555 1_555
C14 H23 1_555 1_555
C15 C14 1_555 1_555
C16 C15 1_555 1_555
H24 C16 1_555 1_555
C17 C16 1_555 1_555
C18 C17 1_555 1_555
H25 C18 1_555 1_555
C19 O9 1_555 1_555
C20 C17 1_555 1_555
O21 Ni2 1_555 1_555
H26 O21 1_555 1_555
H27 O21 1_555 1_555
O22 Ni2 1_555 1_555
H28 O22 1_555 1_555
H29 O22 1_555 1_555
O23 Ni2 1_555 1_555
H30 O23 1_555 1_555
H31 O23 1_555 1_555
N2 Ni2 1_555 1_555
N3 C14 1_555 1_555
C21 C8 1_555 1_555
O24 H32 1_555 1_555
H33 O24 1_555 1_555
O25 H34 1_555 1_555
H35 O25 1_555 1_555
O26 H36 1_555 1_555
H37 O26 1_555 1_555
O27 H38 1_555 1_555
H39 O27 1_555 1_555
O28 H40 1_555 1_555
H41 O28 1_555 1_555
O29 H42 1_555 1_555
H43 O29 1_555 1_555
O30 H44 1_555 1_555
H45 O30 1_555 1_555
O31 H46 1_555 1_555
H47 O31 1_555 1_555
O32 H48 1_555 1_555
H49 O32 1_555 1_555
O33 H50 1_555 1_555
H51 O33 1_555 1_555
Eu1B O1B 1_555 1_555
Ni2B O20B 1_555 1_555
Ni2A N3 1_555 1_555
Ni2C N3B 1_555 1_555
O1B C6B 1_555 1_555
O2B C6B 1_555 1_555
O3B C7B 1_555 1_555
O4B C7B 1_555 1_555
O5B Eu1B 1_555 1_555
O6B C12B 1_555 1_555
O7B C13B 1_555 1_555
O8B C13B 1_555 1_555
O9B Eu1B 1_555 1_555
O10B C19B 1_555 1_555
O11B C20B 1_555 1_555
O12B C20B 1_555 1_555
O13B Eu1B 1_555 1_555
H1B O13B 1_555 1_555
H2B O13B 1_555 1_555
O14B Eu1B 1_555 1_555
H3B O14B 1_555 1_555
H4B O14B 1_555 1_555
O15B Eu1B 1_555 1_555
H5B O15B 1_555 1_555
H6B O15B 1_555 1_555
O16B Eu1B 1_555 1_555
H7B O16B 1_555 1_555
H8B O16B 1_555 1_555
O17B Eu1B 1_555 1_555
H9B O17B 1_555 1_555
H10B O17B 1_555 1_555
O18B Ni1 1_555 1_555
H11B O18B 1_555 1_555
H12B O18B 1_555 1_555
O19B Ni1 1_555 1_555
H13B O19B 1_555 1_555
H14B O19B 1_555 1_555
O20B H15B 1_555 1_555
H16B O20B 1_555 1_555
N1B Ni1 1_555 1_555
C1B N1B 1_555 1_555
H17B C1B 1_555 1_555
C2B C1B 1_555 1_555
C3B C2B 1_555 1_555
H18B C3B 1_555 1_555
C4B C3B 1_555 1_555
C5B N1B 1_555 1_555
H19B C5B 1_555 1_555
C6B C2B 1_555 1_555
C7B C4B 1_555 1_555
C8B H20B 1_555 1_555
C9B H21B 1_555 1_555
C10B C9B 1_555 1_555
C11B C10B 1_555 1_555
H22B C11B 1_555 1_555
C12B O5B 1_555 1_555
C13B C10B 1_555 1_555
C14B H23B 1_555 1_555
C15B C14B 1_555 1_555
C16B C15B 1_555 1_555
H24B C16B 1_555 1_555
C17B C16B 1_555 1_555
C18B C17B 1_555 1_555
H25B C18B 1_555 1_555
C19B O9B 1_555 1_555
C20B C17B 1_555 1_555
O21B Ni2B 1_555 1_555
H26B O21B 1_555 1_555
H27B O21B 1_555 1_555
O22B Ni2B 1_555 1_555
H28B O22B 1_555 1_555
H29B O22B 1_555 1_555
O23B Ni2B 1_555 1_555
H30B O23B 1_555 1_555
H31B O23B 1_555 1_555
N2B Ni2B 1_555 1_555
N3B C14B 1_555 1_555
N3A Ni2 1_555 1_555
N3C Ni2B 1_555 1_555
C21B C8B 1_555 1_555
C4 C5 1_555 1_555
C8 N2 1_555 1_555
C9 C21 1_555 1_555
C11 N2 1_555 1_555
C12 C21 1_555 1_555
C15 C19 1_555 1_555
C18 N3 1_555 1_555
C4B C5B 1_555 1_555
C8B N2B 1_555 1_555
C9B C21B 1_555 1_555
C11B N2B 1_555 1_555
C12B C21B 1_555 1_555
C15B C19B 1_555 1_555
C18B N3B 1_555 1_555

#END
