
#######################################################################
#
#                 Cambridge Crystallographic Data Centre
#                                CCDC 
#
#######################################################################
#
# If this CIF has been generated from an entry in the Cambridge 
# Structural Database, then it will include bibliographic, chemical, 
# crystal, experimental, refinement or atomic coordinate data resulting 
# from the CCDC's data processing and validation procedures.
#
#######################################################################

data_BIWXOU10
_symmetry_cell_setting           monoclinic
_symmetry_space_group_name_H-M   'P 1 1 21/n'
_symmetry_Int_Tables_number      14
_space_group_name_Hall           '-P 2n'
loop_
_symmetry_equiv_pos_site_id
_symmetry_equiv_pos_as_xyz
1 x,y,z
2 1/2-x,1/2-y,1/2+z
3 -x,-y,-z
4 1/2+x,1/2+y,1/2-z
_cell_length_a                   22.181(4)
_cell_length_b                   22.347(5)
_cell_length_c                   8.985(1)
_cell_angle_alpha                90
_cell_angle_beta                 90
_cell_angle_gamma                108.12(1)
_cell_volume                     4232.8
loop_
_atom_site_label
_atom_site_type_symbol
_atom_site_fract_x
_atom_site_fract_y
_atom_site_fract_z
Nd1 Nd 0.24555(2) 0.02125(2) 0.11260(4)
P1 P 0.4189(1) 0.1068(2) 0.1689(4)
P2 P 0.1400(2) 0.1220(2) 0.1832(4)
P3 P 0.2083(2) -0.1135(1) -0.1577(4)
O1 O 0.3536(3) 0.0781(4) 0.1093(9)
O2 O 0.1896(4) 0.0942(4) 0.1354(9)
O3 O 0.2146(4) -0.0564(3) -0.0670(8)
N1 N 0.4483(4) 0.0631(5) 0.2736(11)
N2 N 0.4666(5) 0.1256(6) 0.0268(13)
N3 N 0.4186(5) 0.1655(5) 0.2776(13)
N4 N 0.1064(5) 0.1005(5) 0.3433(12)
N5 N 0.1727(5) 0.1982(5) 0.2041(13)
N6 N 0.0840(6) 0.1036(6) 0.0608(14)
N7 N 0.1871(5) -0.0996(5) -0.3270(11)
N8 N 0.1566(5) -0.1773(4) -0.0928(13)
N9 N 0.2750(6) -0.1283(5) -0.1650(15)
N10 N 0.2635(5) 0.0522(5) 0.3819(11)
N11 N 0.3002(6) 0.1084(5) 0.6123(12)
N12 N 0.2628(5) 0.0793(5) -0.1374(10)
N13 N 0.1416(5) -0.0485(5) 0.2157(13)
N14 N 0.0412(7) -0.1260(8) 0.2807(17)
N15 N 0.0001(7) -0.1806(7) 0.4943(19)
N16 N 0.2903(6) -0.0613(5) 0.2112(13)
N17 N 0.3367(8) -0.1405(6) 0.2864(18)
N18 N 0.4084(7) -0.1347(6) 0.4921(20)
C1 C 0.4790(7) 0.0188(7) 0.2084(18)
C2 C 0.4285(6) 0.0486(7) 0.4289(16)
C3 C 0.5352(8) 0.1620(8) 0.0500(19)
C4 C 0.4450(8) 0.1310(8) -0.1222(22)
C5 C 0.4715(7) 0.1983(7) 0.3772(18)
C6 C 0.3742(7) 0.2024(7) 0.2480(18)
C7 C 0.0516(8) 0.0451(8) 0.3620(20)
C8 C 0.1390(8) 0.1229(8) 0.4861(20)
C9 C 0.2288(7) 0.2329(7) 0.1142(19)
C10 C 0.1392(7) 0.2396(7) 0.2725(18)
C11 C 0.0275(9) 0.1278(9) 0.0794(24)
C12 C 0.0899(10) 0.0791(10) -0.0806(25)
C13 C 0.1464(7) -0.0593(7) -0.3520(17)
C14 C 0.1945(10) -0.1374(10) -0.4543(26)
C15 C 0.0958(9) -0.2074(9) -0.1584(23)
C16 C 0.1633(8) -0.1972(8) 0.0641(21)
C17 C 0.2828(9) -0.1919(9) -0.1578(23)
C18 C 0.3344(8) -0.0741(8) -0.1837(20)
C19 C 0.2787(6) 0.0762(6) 0.4944(14)
C20 C 0.2777(5) 0.0903(5) 0.7435(14)
C21 C 0.0968(7) -0.0847(7) 0.2518(17)
C22 C 0.0229(7) -0.1537(7) 0.3995(19)
C23 C 0.3139(7) -0.0968(7) 0.2511(17)
C24 C 0.3759(7) -0.1348(7) 0.3945(19)
N12_2 N 0.2628(5) 0.0793(5) 0.8626(10)
Nd1_2 Nd 0.24555(2) 0.02125(2) 1.11260(4)
loop_
_geom_bond_atom_site_label_1
_geom_bond_atom_site_label_2
_geom_bond_site_symmetry_1
_geom_bond_site_symmetry_2
Nd1 O1 1_555 1_555
P1 O1 1_555 1_555
P2 O2 1_555 1_555
P3 O3 1_555 1_555
O2 Nd1 1_555 1_555
O3 Nd1 1_555 1_555
N1 P1 1_555 1_555
N2 P1 1_555 1_555
N3 P1 1_555 1_555
N4 P2 1_555 1_555
N5 P2 1_555 1_555
N6 P2 1_555 1_555
N7 P3 1_555 1_555
N8 P3 1_555 1_555
N9 P3 1_555 1_555
N10 Nd1 1_555 1_555
N11 C19 1_555 1_555
N12 Nd1 1_555 1_555
N13 Nd1 1_555 1_555
N14 C21 1_555 1_555
N15 C22 1_555 1_555
N16 Nd1 1_555 1_555
N17 C23 1_555 1_555
N18 C24 1_555 1_555
C1 N1 1_555 1_555
C2 N1 1_555 1_555
C3 N2 1_555 1_555
C4 N2 1_555 1_555
C5 N3 1_555 1_555
C6 N3 1_555 1_555
C7 N4 1_555 1_555
C8 N4 1_555 1_555
C9 N5 1_555 1_555
C10 N5 1_555 1_555
C11 N6 1_555 1_555
C12 N6 1_555 1_555
C13 N7 1_555 1_555
C14 N7 1_555 1_555
C15 N8 1_555 1_555
C16 N8 1_555 1_555
C17 N9 1_555 1_555
C18 N9 1_555 1_555
C19 N10 1_555 1_555
C20 N11 1_555 1_555
C21 N13 1_555 1_555
C22 N14 1_555 1_555
C23 N16 1_555 1_555
C24 N17 1_555 1_555
N12_2 C20 1_555 1_555
Nd1_2 N12_2 1_555 1_555

#END
