
#######################################################################
#
#                 Cambridge Crystallographic Data Centre
#                                CCDC 
#
#######################################################################
#
# If this CIF has been generated from an entry in the Cambridge 
# Structural Database, then it will include bibliographic, chemical, 
# crystal, experimental, refinement or atomic coordinate data resulting 
# from the CCDC's data processing and validation procedures.
#
#######################################################################

data_BIWXOV
_symmetry_cell_setting           monoclinic
_symmetry_space_group_name_H-M   'P 21/n'
_symmetry_Int_Tables_number      14
_space_group_name_Hall           '-P 2yn'
loop_
_symmetry_equiv_pos_site_id
_symmetry_equiv_pos_as_xyz
1 x,y,z
2 1/2-x,1/2+y,1/2-z
3 -x,-y,-z
4 1/2+x,1/2-y,1/2+z
_cell_length_a                   12.7240(3)
_cell_length_b                   16.1284(5)
_cell_length_c                   20.3330(6)
_cell_angle_alpha                90
_cell_angle_beta                 107.0600(10)
_cell_angle_gamma                90
_cell_volume                     3989.09
loop_
_atom_site_label
_atom_site_type_symbol
_atom_site_fract_x
_atom_site_fract_y
_atom_site_fract_z
Eu1 Eu 0.414563(12) 0.250740(11) 0.387116(9)
Co1 Co 0.0000 0.5000 0.5000
Co2 Co 0.84395(3) 0.00632(3) 0.32776(2)
N1 N 0.0224(2) 0.36550(17) 0.50230(14)
N2 N 0.8361(2) 0.13781(16) 0.33779(14)
N3 N 0.6509(2) 0.37347(16) 0.18146(14)
O1 O 0.26226(17) 0.25241(13) 0.43256(12)
O2 O 0.16567(17) 0.13423(14) 0.41140(12)
O3 O -0.12570(17) 0.10244(14) 0.53398(12)
O4 O -0.15591(18) 0.21110(15) 0.59427(12)
O5 O 0.60877(17) 0.24567(14) 0.41856(13)
O6 O 0.69430(17) 0.36813(14) 0.43189(12)
O7 O 0.97510(17) 0.40226(14) 0.29899(12)
O8 O 1.05414(18) 0.28642(15) 0.27681(13)
O9 O 0.45677(18) 0.25151(14) 0.28107(12)
O10 O 0.52172(17) 0.12777(14) 0.26311(13)
O11 O 0.79263(17) 0.11859(13) 0.12169(12)
O12 O 0.85584(18) 0.24066(13) 0.09752(13)
O13 O 0.46759(17) 0.39543(14) 0.39523(12)
H1 H 0.5318 0.4085 0.4186
H2 H 0.4511 0.4343 0.3674
O14 O 0.46490(18) 0.11703(14) 0.44102(13)
H3 H 0.5233 0.1047 0.4704
H4 H 0.4516 0.0752 0.4161
O15 O 0.29615(17) 0.13875(14) 0.32694(12)
H5 H 0.2575 0.1430 0.2874
H6 H 0.2536 0.1250 0.3493
O16 O 0.47557(17) 0.28569(15) 0.50794(12)
H7 H 0.5337 0.2912 0.5280
H8 H 0.4440 0.2814 0.5351
O17 O 0.27072(17) 0.33016(14) 0.30910(12)
H9 H 0.2813 0.3483 0.2761
H10 H 0.2133 0.3188 0.3041
O18 O -0.16088(17) 0.48929(14) 0.44273(12)
H11 H -0.1996 0.4536 0.4393
H12 H -0.1923 0.5256 0.4207
O19 O 0.04047(17) 0.51092(14) 0.40830(12)
H13 H 0.0994 0.5148 0.4106
H14 H 0.0105 0.4811 0.3776
O20 O 0.87093(18) 0.01563(14) 0.23176(12)
H15 H 0.9333 0.0084 0.2329
H16 H 0.8412 0.0512 0.2027
O21 O 1.01270(17) 0.01168(14) 0.37364(12)
H17 H 1.0442 -0.0259 0.3986
H18 H 1.0499 0.0541 0.3876
O22 O 0.82088(18) -0.00935(14) 0.42628(12)
H19 H 0.7721 -0.0279 0.4314
H20 H 0.8396 0.0285 0.4573
O23 O 0.67628(17) 0.00619(14) 0.28192(12)
H21 H 0.6391 -0.0289 0.2557
H22 H 0.6416 0.0491 0.2766
C1 C 0.0945(3) 0.3293(2) 0.47493(18)
H23 H 0.1419 0.3629 0.4595
C2 C 0.1022(3) 0.2437(2) 0.46838(17)
C3 C 0.0322(2) 0.1939(2) 0.49241(17)
H24 H 0.0332 0.1366 0.4874
C4 C -0.0387(3) 0.2301(2) 0.52364(18)
C5 C -0.0414(2) 0.3160(2) 0.52714(17)
H25 H -0.0899 0.3403 0.5478
C6 C 0.1826(3) 0.2070(2) 0.43468(18)
C7 C -0.1138(3) 0.1782(2) 0.55308(18)
C8 C 0.7670(3) 0.1740(2) 0.36811(17)
H26 H 0.7207 0.1403 0.3843
C9 C 0.7615(3) 0.2590(2) 0.37642(18)
C10 C 0.8303(2) 0.3095(2) 0.35142(16)
H27 H 0.8277 0.3669 0.3555
C11 C 0.9023(3) 0.2733(2) 0.32044(18)
C12 C 0.9027(2) 0.1872(2) 0.31552(17)
H28 H 0.9521 0.1627 0.2956
C13 C 0.6825(3) 0.2945(2) 0.41205(18)
C14 C 0.9824(2) 0.3244(2) 0.29639(17)
C15 C 0.5856(3) 0.3321(2) 0.21155(17)
H29 H 0.5392 0.3626 0.2302
C16 C 0.5838(2) 0.2464(2) 0.21619(17)
C17 C 0.6505(2) 0.2005(2) 0.18604(17)
H30 H 0.6486 0.1428 0.1863
C18 C 0.7197(3) 0.2423(2) 0.15553(17)
C19 C 0.7179(3) 0.3278(2) 0.15554(17)
H31 H 0.7660 0.3556 0.1365
C20 C 0.5152(3) 0.2046(2) 0.25599(17)
C21 C 0.7956(3) 0.1975(2) 0.12238(17)
Eu1B Eu -0.414563(12) 0.749260(11) 0.612884(9)
Co2B Co -0.84395(3) 0.99368(3) 0.67224(2)
Co2A Co 0.65605(3) 0.50632(3) 0.17224(2)
Co2C Co -0.65605(3) 0.49368(3) 0.82776(2)
N1B N -0.0224(2) 0.63450(17) 0.49770(14)
N2B N -0.8361(2) 0.86219(16) 0.66221(14)
N3B N -0.6509(2) 0.62653(16) 0.81854(14)
N3A N 0.8491(2) -0.12653(16) 0.31854(14)
N3C N -0.8491(2) 1.12653(16) 0.68146(14)
O1B O -0.26226(17) 0.74759(13) 0.56744(12)
O2B O -0.16567(17) 0.86577(14) 0.58860(12)
O3B O 0.12570(17) 0.89756(14) 0.46602(12)
O4B O 0.15591(18) 0.78890(15) 0.40573(12)
O5B O -0.60877(17) 0.75433(14) 0.58144(13)
O6B O -0.69430(17) 0.63187(14) 0.56811(12)
O7B O -0.97510(17) 0.59774(14) 0.70101(12)
O8B O -1.05414(18) 0.71358(15) 0.72319(13)
O9B O -0.45677(18) 0.74849(14) 0.71893(12)
O10B O -0.52172(17) 0.87223(14) 0.73689(13)
O11B O -0.79263(17) 0.88141(13) 0.87831(12)
O12B O -0.85584(18) 0.75934(13) 0.90248(13)
O13B O -0.46759(17) 0.60457(14) 0.60477(12)
H1B H -0.5318 0.5915 0.5814
H2B H -0.4511 0.5657 0.6326
O14B O -0.46490(18) 0.88297(14) 0.55898(13)
H3B H -0.5233 0.8953 0.5296
H4B H -0.4516 0.9248 0.5839
O15B O -0.29615(17) 0.86125(14) 0.67306(12)
H5B H -0.2575 0.8570 0.7126
H6B H -0.2536 0.8750 0.6507
O16B O -0.47557(17) 0.71431(15) 0.49206(12)
H7B H -0.5337 0.7088 0.4720
H8B H -0.4440 0.7186 0.4649
O17B O -0.27072(17) 0.66984(14) 0.69090(12)
H9B H -0.2813 0.6517 0.7239
H10B H -0.2133 0.6812 0.6959
O18B O 0.16088(17) 0.51071(14) 0.55727(12)
H11B H 0.1996 0.5464 0.5607
H12B H 0.1923 0.4744 0.5793
O19B O -0.04047(17) 0.48908(14) 0.59170(12)
H13B H -0.0994 0.4852 0.5894
H14B H -0.0105 0.5189 0.6224
O20B O -0.87093(18) 0.98437(14) 0.76824(12)
H15B H -0.9333 0.9916 0.7671
H16B H -0.8412 0.9488 0.7973
O21B O -1.01270(17) 0.98832(14) 0.62636(12)
H17B H -1.0442 1.0259 0.6014
H18B H -1.0499 0.9459 0.6124
O22B O -0.82088(18) 1.00935(14) 0.57372(12)
H19B H -0.7721 1.0279 0.5686
H20B H -0.8396 0.9715 0.5427
O23B O -0.67628(17) 0.99381(14) 0.71808(12)
H21B H -0.6391 1.0289 0.7443
H22B H -0.6416 0.9509 0.7234
C1B C -0.0945(3) 0.6707(2) 0.52507(18)
H23B H -0.1419 0.6371 0.5405
C2B C -0.1022(3) 0.7563(2) 0.53162(17)
C3B C -0.0322(2) 0.8061(2) 0.50759(17)
H24B H -0.0332 0.8634 0.5126
C4B C 0.0387(3) 0.7699(2) 0.47636(18)
C5B C 0.0414(2) 0.6840(2) 0.47286(17)
H25B H 0.0899 0.6597 0.4522
C6B C -0.1826(3) 0.7930(2) 0.56532(18)
C7B C 0.1138(3) 0.8218(2) 0.44692(18)
C8B C -0.7670(3) 0.8260(2) 0.63189(17)
H26B H -0.7207 0.8597 0.6157
C9B C -0.7615(3) 0.7410(2) 0.62358(18)
C10B C -0.8303(2) 0.6905(2) 0.64858(16)
H27B H -0.8277 0.6331 0.6445
C11B C -0.9023(3) 0.7267(2) 0.67956(18)
C12B C -0.9027(2) 0.8128(2) 0.68448(17)
H28B H -0.9521 0.8373 0.7044
C13B C -0.6825(3) 0.7055(2) 0.58795(18)
C14B C -0.9824(2) 0.6756(2) 0.70361(17)
C15B C -0.5856(3) 0.6679(2) 0.78845(17)
H29B H -0.5392 0.6374 0.7698
C16B C -0.5838(2) 0.7536(2) 0.78381(17)
C17B C -0.6505(2) 0.7995(2) 0.81396(17)
H30B H -0.6486 0.8572 0.8137
C18B C -0.7197(3) 0.7577(2) 0.84447(17)
C19B C -0.7179(3) 0.6722(2) 0.84446(17)
H31B H -0.7660 0.6444 0.8635
C20B C -0.5152(3) 0.7954(2) 0.74401(17)
C21B C -0.7956(3) 0.8025(2) 0.87762(17)
O24 O 0.12630(18) 0.15858(14) 0.20932(12)
H32 H 0.1399 0.1737 0.1747
H33 H 0.1004 0.1944 0.2190
O25 O 0.87287(18) 0.40687(15) 0.06676(13)
H34 H 0.8678 0.4217 0.0283
H35 H 0.8623 0.3579 0.0696
O26 O 0.89364(19) 0.04556(15) 0.02683(14)
H36 H 0.8719 0.0719 0.0542
H37 H 0.9398 0.0749 0.0171
O27 O 0.25419(19) 0.51800(16) 0.41261(14)
H38 H 0.2453 0.4965 0.3762
H39 H 0.2977 0.4920 0.4454
O28 O 0.67966(18) 0.31943(15) 0.59175(12)
H40 H 0.6931 0.3689 0.5840
H41 H 0.7254 0.2899 0.5889
O29 O 0.07605(18) -0.00472(14) 0.21911(13)
H42 H 0.0989 0.0428 0.2197
H43 H 0.1195 -0.0229 0.2544
O30 O 0.21564(18) 0.89146(14) 0.31291(12)
H44 H 0.2686 0.9066 0.3336
H45 H 0.1986 0.8666 0.3390
O31 O 0.15650(18) 0.44578(16) 0.02074(14)
H46 H 0.1494 0.4625 0.0568
H47 H 0.2240 0.4331 0.0324
O32 O 0.1313(2) 0.50186(17) 0.26572(15)
H48 H 0.0807 0.5468 0.2634
H49 H 0.0788 0.4626 0.2745
O33 O 0.0774(2) 0.46834(18) 0.13036(16)
H50 H 0.0100 0.4443 0.1223
H51 H 0.1166 0.4725 0.1732
O34? O 0.0594(9) 0.4693(8) 0.1880(6)
loop_
_geom_bond_atom_site_label_1
_geom_bond_atom_site_label_2
_geom_bond_site_symmetry_1
_geom_bond_site_symmetry_2
Eu1 O1 1_555 1_555
Co1 N1 1_555 1_555
Co2 N2 1_555 1_555
N1 C1 1_555 1_555
N2 C8 1_555 1_555
N3 C15 1_555 1_555
O1 C6 1_555 1_555
O2 C6 1_555 1_555
O3 C7 1_555 1_555
O4 C7 1_555 1_555
O5 Eu1 1_555 1_555
O6 C13 1_555 1_555
O7 C14 1_555 1_555
O8 C14 1_555 1_555
O9 Eu1 1_555 1_555
O10 C20 1_555 1_555
O11 C21 1_555 1_555
O12 C21 1_555 1_555
O13 Eu1 1_555 1_555
H1 O13 1_555 1_555
H2 O13 1_555 1_555
O14 Eu1 1_555 1_555
H3 O14 1_555 1_555
H4 O14 1_555 1_555
O15 Eu1 1_555 1_555
H5 O15 1_555 1_555
H6 O15 1_555 1_555
O16 Eu1 1_555 1_555
H7 O16 1_555 1_555
H8 O16 1_555 1_555
O17 Eu1 1_555 1_555
H9 O17 1_555 1_555
H10 O17 1_555 1_555
O18 Co1 1_555 1_555
H11 O18 1_555 1_555
H12 O18 1_555 1_555
O19 Co1 1_555 1_555
H13 O19 1_555 1_555
H14 O19 1_555 1_555
O20 Co2 1_555 1_555
H15 O20 1_555 1_555
H16 O20 1_555 1_555
O21 Co2 1_555 1_555
H17 O21 1_555 1_555
H18 O21 1_555 1_555
O22 Co2 1_555 1_555
H19 O22 1_555 1_555
H20 O22 1_555 1_555
O23 Co2 1_555 1_555
H21 O23 1_555 1_555
H22 O23 1_555 1_555
C1 H23 1_555 1_555
C2 C1 1_555 1_555
C3 C2 1_555 1_555
H24 C3 1_555 1_555
C4 C3 1_555 1_555
C5 N1 1_555 1_555
H25 C5 1_555 1_555
C6 C2 1_555 1_555
C7 C4 1_555 1_555
C8 H26 1_555 1_555
C9 C8 1_555 1_555
C10 C9 1_555 1_555
H27 C10 1_555 1_555
C11 C10 1_555 1_555
C12 N2 1_555 1_555
H28 C12 1_555 1_555
C13 O5 1_555 1_555
C14 C11 1_555 1_555
C15 H29 1_555 1_555
C16 C15 1_555 1_555
C17 C16 1_555 1_555
H30 C17 1_555 1_555
C18 C17 1_555 1_555
C19 N3 1_555 1_555
H31 C19 1_555 1_555
C20 O9 1_555 1_555
C21 C18 1_555 1_555
O24 H32 1_555 1_555
H33 O24 1_555 1_555
O25 H34 1_555 1_555
H35 O25 1_555 1_555
O26 H36 1_555 1_555
H37 O26 1_555 1_555
O27 H38 1_555 1_555
H39 O27 1_555 1_555
O28 H40 1_555 1_555
H41 O28 1_555 1_555
O29 H42 1_555 1_555
H43 O29 1_555 1_555
O30 H44 1_555 1_555
H45 O30 1_555 1_555
O31 H46 1_555 1_555
H47 O31 1_555 1_555
O32 H48 1_555 1_555
H49 O32 1_555 1_555
O33 H50 1_555 1_555
H51 O33 1_555 1_555
Eu1B O1B 1_555 1_555
Co2B N2B 1_555 1_555
Co2A N3 1_555 1_555
Co2C N3B 1_555 1_555
N1B Co1 1_555 1_555
N2B C8B 1_555 1_555
N3B C15B 1_555 1_555
N3A Co2 1_555 1_555
N3C Co2B 1_555 1_555
O1B C6B 1_555 1_555
O2B C6B 1_555 1_555
O3B C7B 1_555 1_555
O4B C7B 1_555 1_555
O5B Eu1B 1_555 1_555
O6B C13B 1_555 1_555
O7B C14B 1_555 1_555
O8B C14B 1_555 1_555
O9B Eu1B 1_555 1_555
O10B C20B 1_555 1_555
O11B C21B 1_555 1_555
O12B C21B 1_555 1_555
O13B Eu1B 1_555 1_555
H1B O13B 1_555 1_555
H2B O13B 1_555 1_555
O14B Eu1B 1_555 1_555
H3B O14B 1_555 1_555
H4B O14B 1_555 1_555
O15B Eu1B 1_555 1_555
H5B O15B 1_555 1_555
H6B O15B 1_555 1_555
O16B Eu1B 1_555 1_555
H7B O16B 1_555 1_555
H8B O16B 1_555 1_555
O17B Eu1B 1_555 1_555
H9B O17B 1_555 1_555
H10B O17B 1_555 1_555
O18B Co1 1_555 1_555
H11B O18B 1_555 1_555
H12B O18B 1_555 1_555
O19B Co1 1_555 1_555
H13B O19B 1_555 1_555
H14B O19B 1_555 1_555
O20B Co2B 1_555 1_555
H15B O20B 1_555 1_555
H16B O20B 1_555 1_555
O21B Co2B 1_555 1_555
H17B O21B 1_555 1_555
H18B O21B 1_555 1_555
O22B Co2B 1_555 1_555
H19B O22B 1_555 1_555
H20B O22B 1_555 1_555
O23B Co2B 1_555 1_555
H21B O23B 1_555 1_555
H22B O23B 1_555 1_555
C1B N1B 1_555 1_555
H23B C1B 1_555 1_555
C2B C1B 1_555 1_555
C3B C2B 1_555 1_555
H24B C3B 1_555 1_555
C4B C3B 1_555 1_555
C5B N1B 1_555 1_555
H25B C5B 1_555 1_555
C6B C2B 1_555 1_555
C7B C4B 1_555 1_555
C8B H26B 1_555 1_555
C9B C8B 1_555 1_555
C10B C9B 1_555 1_555
H27B C10B 1_555 1_555
C11B C10B 1_555 1_555
C12B N2B 1_555 1_555
H28B C12B 1_555 1_555
C13B O5B 1_555 1_555
C14B C11B 1_555 1_555
C15B H29B 1_555 1_555
C16B C15B 1_555 1_555
C17B C16B 1_555 1_555
H30B C17B 1_555 1_555
C18B C17B 1_555 1_555
C19B N3B 1_555 1_555
H31B C19B 1_555 1_555
C20B O9B 1_555 1_555
C21B C18B 1_555 1_555
C4 C5 1_555 1_555
C9 C13 1_555 1_555
C11 C12 1_555 1_555
C16 C20 1_555 1_555
C18 C19 1_555 1_555
C4B C5B 1_555 1_555
C9B C13B 1_555 1_555
C11B C12B 1_555 1_555
C16B C20B 1_555 1_555
C18B C19B 1_555 1_555

#END
