
#######################################################################
#
#                 Cambridge Crystallographic Data Centre
#                                CCDC 
#
#######################################################################
#
# If this CIF has been generated from an entry in the Cambridge 
# Structural Database, then it will include bibliographic, chemical, 
# crystal, experimental, refinement or atomic coordinate data resulting 
# from the CCDC's data processing and validation procedures.
#
#######################################################################

data_BIWYAI
_symmetry_cell_setting           monoclinic
_symmetry_space_group_name_H-M   'P 21/n'
_symmetry_Int_Tables_number      14
_space_group_name_Hall           '-P 2yn'
loop_
_symmetry_equiv_pos_site_id
_symmetry_equiv_pos_as_xyz
1 x,y,z
2 1/2-x,1/2+y,1/2-z
3 -x,-y,-z
4 1/2+x,1/2-y,1/2+z
_cell_length_a                   12.6929(5)
_cell_length_b                   16.1217(6)
_cell_length_c                   20.3311(7)
_cell_angle_alpha                90
_cell_angle_beta                 107.060(2)
_cell_angle_gamma                90
_cell_volume                     3977.31
loop_
_atom_site_label
_atom_site_type_symbol
_atom_site_fract_x
_atom_site_fract_y
_atom_site_fract_z
Gd1 Gd 0.414237(11) 0.750866(9) 0.886662(7)
Co1 Co 0.0000 1.0000 1.0000
Co2 Co 0.84376(3) 0.50639(2) 0.82770(2)
O1 O 0.26247(16) 0.75270(12) 0.93174(11)
O2 O 0.16555(16) 0.63498(12) 0.91059(10)
O3 O -0.12516(16) 0.60240(12) 1.03394(10)
O4 O -0.15479(17) 0.71076(12) 1.09419(11)
O5 O 0.60769(16) 0.74549(12) 0.91834(11)
O6 O 0.69353(16) 0.86786(12) 0.93158(11)
O7 O 0.97521(16) 0.90207(11) 0.79958(10)
O8 O 1.05371(17) 0.78635(12) 0.77641(11)
O9 O 0.45750(16) 0.75171(12) 0.78146(11)
O10 O 0.52182(16) 0.62789(12) 0.76256(11)
O11 O 0.79316(16) 0.61883(11) 0.62172(10)
O12 O 0.85506(17) 0.74072(12) 0.59662(11)
O13 O 0.46711(16) 0.89486(12) 0.89510(11)
H1 H 0.4503 0.9312 0.8642
H2 H 0.5325 0.9059 0.9166
O14 O 0.46406(17) 0.61775(12) 0.94040(11)
H3 H 0.4457 0.5792 0.9131
H4 H 0.5256 0.6046 0.9665
O15 O 0.29619(16) 0.63965(12) 0.82640(10)
H5 H 0.2546 0.6244 0.8502
H6 H 0.2561 0.6454 0.7864
O16 O 0.47502(16) 0.78526(13) 1.00708(10)
H7 H 0.4382 0.7803 1.0351
H8 H 0.5395 0.7878 1.0330
O17 O 0.27102(16) 0.82989(12) 0.80875(11)
H9 H 0.2050 0.8210 0.8023
H10 H 0.2753 0.8461 0.7704
O18 O -0.16185(16) 0.98904(12) 0.94254(11)
H11 H -0.1947 1.0304 0.9228
H12 H -0.2055 0.9490 0.9382
O19 O 0.04042(16) 1.01130(12) 0.90834(10)
H13 H 0.0140 0.9792 0.8763
H14 H 0.1068 1.0166 0.9094
O20 O 0.87117(17) 0.51576(12) 0.73181(11)
H15 H 0.8406 0.5500 0.7009
H16 H 0.9367 0.5115 0.7305
O21 O 1.01279(16) 0.51151(12) 0.87350(11)
H17 H 1.0526 0.5545 0.8814
H18 H 1.0483 0.4750 0.8991
O22 O 0.82085(17) 0.49048(12) 0.92636(10)
H19 H 0.8396 0.5269 0.9570
H20 H 0.7611 0.4704 0.9313
O23 O 0.67532(16) 0.50637(12) 0.78241(11)
H21 H 0.6341 0.5488 0.7764
H22 H 0.6381 0.4685 0.7591
N1 N 0.02258(19) 0.86586(14) 1.00213(12)
N2 N 0.83605(19) 0.63782(14) 0.83787(12)
N3 N 0.65141(19) 0.87367(14) 0.68155(12)
C1 C 0.0951(2) 0.82917(17) 0.97483(15)
H23 H 0.1429 0.8628 0.9597
C2 C 0.1027(2) 0.74418(17) 0.96795(15)
C3 C 0.0330(2) 0.69368(18) 0.99201(14)
H24 H 0.0345 0.6364 0.9871
C4 C -0.0384(2) 0.72989(17) 1.02329(15)
C5 C -0.0411(2) 0.81595(17) 1.02704(15)
H25 H -0.0896 0.8402 1.0479
C6 C 0.1826(2) 0.70733(17) 0.93423(15)
C7 C -0.1127(2) 0.67817(17) 1.05276(15)
C8 C 0.7665(2) 0.67370(17) 0.86805(15)
H26 H 0.7198 0.6400 0.8840
C9 C 0.7614(2) 0.75914(17) 0.87647(15)
C10 C 0.8302(2) 0.80897(18) 0.85144(15)
H27 H 0.8278 0.8664 0.8555
C11 C 0.9022(2) 0.77294(17) 0.82059(15)
C12 C 0.9024(2) 0.68711(17) 0.81522(15)
H28 H 0.9514 0.6627 0.7948
C13 C 0.6824(2) 0.79421(17) 0.91185(15)
C14 C 0.9831(2) 0.82386(17) 0.79626(15)
C15 C 0.5858(2) 0.83235(17) 0.71175(15)
H29 H 0.5394 0.8628 0.7305
C16 C 0.5843(2) 0.74637(17) 0.71628(15)
C17 C 0.6505(2) 0.70109(17) 0.68595(15)
H30 H 0.6485 0.6434 0.6863
C18 C 0.7196(2) 0.74217(17) 0.65517(15)
C19 C 0.7179(2) 0.82788(17) 0.65554(15)
H31 H 0.7661 0.8557 0.6365
C20 C 0.5154(2) 0.70494(17) 0.75604(15)
C21 C 0.7958(2) 0.69735(17) 0.62215(14)
Gd1B Gd -0.414237(11) 1.249134(9) 1.113338(7)
Co2B Co -0.84376(3) 1.49361(2) 1.17230(2)
Co2A Co 0.65624(3) 1.00639(2) 0.67230(2)
Co2C Co -0.65624(3) 0.99361(2) 1.32770(2)
O1B O -0.26247(16) 1.24730(12) 1.06826(11)
O2B O -0.16555(16) 1.36502(12) 1.08941(10)
O3B O 0.12516(16) 1.39760(12) 0.96606(10)
O4B O 0.15479(17) 1.28924(12) 0.90581(11)
O5B O -0.60769(16) 1.25451(12) 1.08166(11)
O6B O -0.69353(16) 1.13214(12) 1.06842(11)
O7B O -0.97521(16) 1.09793(11) 1.20042(10)
O8B O -1.05371(17) 1.21365(12) 1.22359(11)
O9B O -0.45750(16) 1.24829(12) 1.21854(11)
O10B O -0.52182(16) 1.37211(12) 1.23744(11)
O11B O -0.79316(16) 1.38117(11) 1.37828(10)
O12B O -0.85506(17) 1.25928(12) 1.40338(11)
O13B O -0.46711(16) 1.10514(12) 1.10490(11)
H1B H -0.4503 1.0688 1.1358
H2B H -0.5325 1.0941 1.0834
O14B O -0.46406(17) 1.38225(12) 1.05960(11)
H3B H -0.4457 1.4208 1.0869
H4B H -0.5256 1.3954 1.0335
O15B O -0.29619(16) 1.36035(12) 1.17360(10)
H5B H -0.2546 1.3756 1.1498
H6B H -0.2561 1.3546 1.2136
O16B O -0.47502(16) 1.21474(13) 0.99292(10)
H7B H -0.4382 1.2197 0.9649
H8B H -0.5395 1.2122 0.9670
O17B O -0.27102(16) 1.17011(12) 1.19125(11)
H9B H -0.2050 1.1790 1.1977
H10B H -0.2753 1.1539 1.2296
O18B O 0.16185(16) 1.01096(12) 1.05746(11)
H11B H 0.1947 0.9696 1.0772
H12B H 0.2055 1.0510 1.0618
O19B O -0.04042(16) 0.98870(12) 1.09166(10)
H13B H -0.0140 1.0208 1.1237
H14B H -0.1068 0.9834 1.0906
O20B O -0.87117(17) 1.48424(12) 1.26819(11)
H15B H -0.8406 1.4500 1.2991
H16B H -0.9367 1.4885 1.2695
O21B O -1.01279(16) 1.48849(12) 1.12650(11)
H17B H -1.0526 1.4455 1.1186
H18B H -1.0483 1.5250 1.1009
O22B O -0.82085(17) 1.50952(12) 1.07364(10)
H19B H -0.8396 1.4731 1.0430
H20B H -0.7611 1.5296 1.0687
O23B O -0.67532(16) 1.49363(12) 1.21759(11)
H21B H -0.6341 1.4512 1.2236
H22B H -0.6381 1.5315 1.2409
N1B N -0.02258(19) 1.13414(14) 0.99787(12)
N2B N -0.83605(19) 1.36218(14) 1.16213(12)
N3B N -0.65141(19) 1.12633(14) 1.31845(12)
N3A N 0.84859(19) 0.37367(14) 0.81845(12)
N3C N -0.84859(19) 1.62633(14) 1.18155(12)
C1B C -0.0951(2) 1.17083(17) 1.02517(15)
H23B H -0.1429 1.1372 1.0403
C2B C -0.1027(2) 1.25582(17) 1.03205(15)
C3B C -0.0330(2) 1.30632(18) 1.00799(14)
H24B H -0.0345 1.3636 1.0129
C4B C 0.0384(2) 1.27011(17) 0.97671(15)
C5B C 0.0411(2) 1.18405(17) 0.97296(15)
H25B H 0.0896 1.1598 0.9521
C6B C -0.1826(2) 1.29267(17) 1.06577(15)
C7B C 0.1127(2) 1.32183(17) 0.94724(15)
C8B C -0.7665(2) 1.32630(17) 1.13195(15)
H26B H -0.7198 1.3600 1.1160
C9B C -0.7614(2) 1.24086(17) 1.12353(15)
C10B C -0.8302(2) 1.19103(18) 1.14856(15)
H27B H -0.8278 1.1336 1.1445
C11B C -0.9022(2) 1.22706(17) 1.17941(15)
C12B C -0.9024(2) 1.31289(17) 1.18478(15)
H28B H -0.9514 1.3373 1.2052
C13B C -0.6824(2) 1.20579(17) 1.08815(15)
C14B C -0.9831(2) 1.17614(17) 1.20374(15)
C15B C -0.5858(2) 1.16765(17) 1.28825(15)
H29B H -0.5394 1.1372 1.2695
C16B C -0.5843(2) 1.25363(17) 1.28372(15)
C17B C -0.6505(2) 1.29891(17) 1.31405(15)
H30B H -0.6485 1.3566 1.3137
C18B C -0.7196(2) 1.25783(17) 1.34483(15)
C19B C -0.7179(2) 1.17212(17) 1.34446(15)
H31B H -0.7661 1.1443 1.3635
C20B C -0.5154(2) 1.29506(17) 1.24396(15)
C21B C -0.7958(2) 1.30265(17) 1.37785(14)
O24 O 0.12589(17) 0.65901(12) 0.70885(11)
H32 H 0.0924 0.6987 0.7196
H33 H 0.1433 0.6751 0.6743
O25 O 0.87194(18) 0.90644(13) 0.56558(11)
H34 H 0.8650 0.8543 0.5672
H35 H 0.8732 0.9142 0.5238
O26 O 0.39375(18) 0.95417(13) 0.02627(12)
H36 H 0.3641 0.9303 0.0523
H37 H 0.4345 0.9206 0.0152
O27 O 0.67912(17) 0.81848(13) 0.09101(11)
H38 H 0.6894 0.8682 0.0860
H39 H 0.7308 0.7899 0.0879
O28 O 0.25391(18) 0.01927(14) 0.91257(12)
H40 H 0.2545 -0.0057 0.8773
H41 H 0.2974 -0.0063 0.9449
O29 O 0.07596(17) 0.49557(12) 0.71837(11)
H42 H 0.1018 0.5430 0.7161
H43 H 0.1213 0.4719 0.7523
O30 O 0.78511(17) 0.60890(13) 0.18671(11)
H44 H 0.7269 0.5874 0.1679
H45 H 0.7991 0.6399 0.1568
O31 O 0.65669(17) 0.55568(14) 0.01968(12)
H46 H 0.6456 0.5387 0.0559
H47 H 0.7246 0.5666 0.0323
O32 O 0.13186(19) 1.00109(14) 0.76563(12)
H48 H 0.0947 1.0492 0.7629
H49 H 0.0841 0.9661 0.7757
O33 O 0.07784(19) 0.96789(14) 0.63142(13)
H50 H 0.0106 0.9422 0.6151
H51 H 0.0889 0.9953 0.5971
O34? O 0.0683(12) 0.9723(8) 0.6881(6)
loop_
_geom_bond_atom_site_label_1
_geom_bond_atom_site_label_2
_geom_bond_site_symmetry_1
_geom_bond_site_symmetry_2
Gd1 O1 1_555 1_555
Co1 O18 1_555 1_555
Co2 O20 1_555 1_555
O1 C6 1_555 1_555
O2 C6 1_555 1_555
O3 C7 1_555 1_555
O4 C7 1_555 1_555
O5 Gd1 1_555 1_555
O6 C13 1_555 1_555
O7 C14 1_555 1_555
O8 C14 1_555 1_555
O9 Gd1 1_555 1_555
O10 C20 1_555 1_555
O11 C21 1_555 1_555
O12 C21 1_555 1_555
O13 Gd1 1_555 1_555
H1 O13 1_555 1_555
H2 O13 1_555 1_555
O14 Gd1 1_555 1_555
H3 O14 1_555 1_555
H4 O14 1_555 1_555
O15 Gd1 1_555 1_555
H5 O15 1_555 1_555
H6 O15 1_555 1_555
O16 Gd1 1_555 1_555
H7 O16 1_555 1_555
H8 O16 1_555 1_555
O17 Gd1 1_555 1_555
H9 O17 1_555 1_555
H10 O17 1_555 1_555
O18 H11 1_555 1_555
H12 O18 1_555 1_555
O19 Co1 1_555 1_555
H13 O19 1_555 1_555
H14 O19 1_555 1_555
O20 H15 1_555 1_555
H16 O20 1_555 1_555
O21 Co2 1_555 1_555
H17 O21 1_555 1_555
H18 O21 1_555 1_555
O22 Co2 1_555 1_555
H19 O22 1_555 1_555
H20 O22 1_555 1_555
O23 Co2 1_555 1_555
H21 O23 1_555 1_555
H22 O23 1_555 1_555
N1 Co1 1_555 1_555
N2 Co2 1_555 1_555
N3 C15 1_555 1_555
C1 N1 1_555 1_555
H23 C1 1_555 1_555
C2 C1 1_555 1_555
C3 C2 1_555 1_555
H24 C3 1_555 1_555
C4 C3 1_555 1_555
C5 N1 1_555 1_555
H25 C5 1_555 1_555
C6 C2 1_555 1_555
C7 C4 1_555 1_555
C8 N2 1_555 1_555
H26 C8 1_555 1_555
C9 C8 1_555 1_555
C10 C9 1_555 1_555
H27 C10 1_555 1_555
C11 C10 1_555 1_555
C12 N2 1_555 1_555
H28 C12 1_555 1_555
C13 O5 1_555 1_555
C14 C11 1_555 1_555
C15 H29 1_555 1_555
C16 C15 1_555 1_555
C17 C16 1_555 1_555
H30 C17 1_555 1_555
C18 C17 1_555 1_555
C19 N3 1_555 1_555
H31 C19 1_555 1_555
C20 O9 1_555 1_555
C21 C18 1_555 1_555
O24 H32 1_555 1_555
H33 O24 1_555 1_555
O25 H34 1_555 1_555
H35 O25 1_555 1_555
O26 H36 1_555 1_555
H37 O26 1_555 1_555
O27 H38 1_555 1_555
H39 O27 1_555 1_555
O28 H40 1_555 1_555
H41 O28 1_555 1_555
O29 H42 1_555 1_555
H43 O29 1_555 1_555
O30 H44 1_555 1_555
H45 O30 1_555 1_555
O31 H46 1_555 1_555
H47 O31 1_555 1_555
O32 H48 1_555 1_555
H49 O32 1_555 1_555
O33 H50 1_555 1_555
H51 O33 1_555 1_555
Gd1B O1B 1_555 1_555
Co2B O20B 1_555 1_555
Co2A N3 1_555 1_555
Co2C N3B 1_555 1_555
O1B C6B 1_555 1_555
O2B C6B 1_555 1_555
O3B C7B 1_555 1_555
O4B C7B 1_555 1_555
O5B Gd1B 1_555 1_555
O6B C13B 1_555 1_555
O7B C14B 1_555 1_555
O8B C14B 1_555 1_555
O9B Gd1B 1_555 1_555
O10B C20B 1_555 1_555
O11B C21B 1_555 1_555
O12B C21B 1_555 1_555
O13B Gd1B 1_555 1_555
H1B O13B 1_555 1_555
H2B O13B 1_555 1_555
O14B Gd1B 1_555 1_555
H3B O14B 1_555 1_555
H4B O14B 1_555 1_555
O15B Gd1B 1_555 1_555
H5B O15B 1_555 1_555
H6B O15B 1_555 1_555
O16B Gd1B 1_555 1_555
H7B O16B 1_555 1_555
H8B O16B 1_555 1_555
O17B Gd1B 1_555 1_555
H9B O17B 1_555 1_555
H10B O17B 1_555 1_555
O18B Co1 1_555 1_555
H11B O18B 1_555 1_555
H12B O18B 1_555 1_555
O19B Co1 1_555 1_555
H13B O19B 1_555 1_555
H14B O19B 1_555 1_555
O20B H15B 1_555 1_555
H16B O20B 1_555 1_555
O21B Co2B 1_555 1_555
H17B O21B 1_555 1_555
H18B O21B 1_555 1_555
O22B Co2B 1_555 1_555
H19B O22B 1_555 1_555
H20B O22B 1_555 1_555
O23B Co2B 1_555 1_555
H21B O23B 1_555 1_555
H22B O23B 1_555 1_555
N1B Co1 1_555 1_555
N2B Co2B 1_555 1_555
N3B C15B 1_555 1_555
N3A Co2 1_555 1_555
N3C Co2B 1_555 1_555
C1B N1B 1_555 1_555
H23B C1B 1_555 1_555
C2B C1B 1_555 1_555
C3B C2B 1_555 1_555
H24B C3B 1_555 1_555
C4B C3B 1_555 1_555
C5B N1B 1_555 1_555
H25B C5B 1_555 1_555
C6B C2B 1_555 1_555
C7B C4B 1_555 1_555
C8B N2B 1_555 1_555
H26B C8B 1_555 1_555
C9B C8B 1_555 1_555
C10B C9B 1_555 1_555
H27B C10B 1_555 1_555
C11B C10B 1_555 1_555
C12B N2B 1_555 1_555
H28B C12B 1_555 1_555
C13B O5B 1_555 1_555
C14B C11B 1_555 1_555
C15B H29B 1_555 1_555
C16B C15B 1_555 1_555
C17B C16B 1_555 1_555
H30B C17B 1_555 1_555
C18B C17B 1_555 1_555
C19B N3B 1_555 1_555
H31B C19B 1_555 1_555
C20B O9B 1_555 1_555
C21B C18B 1_555 1_555
C4 C5 1_555 1_555
C9 C13 1_555 1_555
C11 C12 1_555 1_555
C16 C20 1_555 1_555
C18 C19 1_555 1_555
C4B C5B 1_555 1_555
C9B C13B 1_555 1_555
C11B C12B 1_555 1_555
C16B C20B 1_555 1_555
C18B C19B 1_555 1_555

#END
