
#######################################################################
#
#                 Cambridge Crystallographic Data Centre
#                                CCDC 
#
#######################################################################
#
# If this CIF has been generated from an entry in the Cambridge 
# Structural Database, then it will include bibliographic, chemical, 
# crystal, experimental, refinement or atomic coordinate data resulting 
# from the CCDC's data processing and validation procedures.
#
#######################################################################

data_BIWYEM
_symmetry_cell_setting           monoclinic
_symmetry_space_group_name_H-M   'P 21/c'
_symmetry_Int_Tables_number      14
_space_group_name_Hall           '-P 2ybc'
loop_
_symmetry_equiv_pos_site_id
_symmetry_equiv_pos_as_xyz
1 x,y,z
2 -x,1/2+y,1/2-z
3 -x,-y,-z
4 x,1/2-y,1/2+z
_cell_length_a                   12.737(3)
_cell_length_b                   15.939(3)
_cell_length_c                   20.530(4)
_cell_angle_alpha                90
_cell_angle_beta                 109.60(3)
_cell_angle_gamma                90
_cell_volume                     3926.4
loop_
_atom_site_label
_atom_site_type_symbol
_atom_site_fract_x
_atom_site_fract_y
_atom_site_fract_z
Sm1 Sm 0.472530(17) 0.249559(15) 0.888961(12)
Ni1 Ni 1.0000 0.0000 1.0000
Ni2 Ni -0.01799(4) 0.49347(3) 0.82770(3)
O1 O 0.6714(2) 0.24822(19) 0.93557(15)
O2 O 0.7461(2) 0.36648(18) 0.91347(16)
O3 O 1.1609(2) 0.39818(19) 1.03345(15)
O4 O 1.2524(2) 0.2888(2) 1.09302(16)
O5 O 0.3088(2) 0.25544(18) 0.91891(16)
O6 O 0.2364(2) 0.13285(18) 0.93366(16)
O7 O -0.1761(2) 0.09678(18) 0.79729(16)
O8 O -0.2783(2) 0.2133(2) 0.77890(16)
O9 O 0.3261(2) 0.2474(2) 0.78059(16)
O10 O 0.2420(2) 0.37206(19) 0.76575(16)
O11 O -0.1703(2) 0.38109(18) 0.62204(15)
O12 O -0.2582(2) 0.25769(19) 0.60048(16)
O13 O 0.4258(2) 0.10255(19) 0.89582(15)
H1 H 0.4046 0.0628 0.8664
H2 H 0.3797 0.0924 0.9168
O14 O 0.4767(3) 0.3851(2) 0.94362(18)
H3 H 0.4911 0.4322 0.9305
H4 H 0.4435 0.4007 0.9711
O15 O 0.5311(2) 0.36306(18) 0.82840(16)
H5 H 0.5329 0.3560 0.7887
H6 H 0.5946 0.3790 0.8537
O16 O 0.5327(2) 0.2125(2) 1.01097(16)
H7 H 0.4946 0.2134 1.0381
H8 H 0.5980 0.2201 1.0387
O17 O 0.5409(2) 0.1659(2) 0.81211(16)
H9 H 0.5001 0.1498 0.7724
H10 H 0.5993 0.1825 0.8057
O18 O 1.1319(2) 0.01042(18) 1.09038(15)
H11 H 1.1964 0.0057 1.0883
H12 H 1.1358 -0.0238 1.1228
O19 O 1.0998(2) 0.01123(18) 0.94147(16)
H13 H 1.1164 -0.0277 0.9190
H14 H 1.1419 0.0506 0.9403
O20 O -0.1409(2) 0.48947(18) 0.87184(16)
H15 H -0.1674 0.4472 0.8843
H16 H -0.1458 0.5272 0.9002
O21 O -0.1383(2) 0.48542(18) 0.73268(15)
H17 H -0.1378 0.4522 0.7003
H18 H -0.2056 0.4864 0.7301
O22 O 0.1035(2) 0.49323(18) 0.78257(16)
H19 H 0.1140 0.5322 0.7583
H20 H 0.1402 0.4511 0.7795
O23 O 0.1021(2) 0.50988(18) 0.92537(15)
H21 H 0.1660 0.5290 0.9303
H22 H 0.1144 0.4727 0.9567
N1 N 0.9809(3) 0.1323(2) 1.00241(19)
N2 N 0.0000(3) 0.3639(2) 0.83809(18)
N3 N 0.0322(3) 0.1245(2) 0.68139(18)
C1 C 0.8812(4) 0.1696(3) 0.9760(2)
H23 H 0.8181 0.1358 0.9612
C2 C 0.8671(3) 0.2557(3) 0.9697(2)
C3 C 0.9617(3) 0.3060(3) 0.9935(2)
H24 H 0.9555 0.3640 0.9890
C4 C 1.0642(4) 0.2694(3) 1.0236(2)
C5 C 1.0706(3) 0.1822(3) 1.0272(2)
H25 H 1.1400 0.1573 1.0476
C6 C 0.7533(3) 0.2932(3) 0.9372(2)
C7 C 1.1681(3) 0.3219(3) 1.0521(2)
C8 C 0.1000(3) 0.3281(3) 0.8676(2)
H26 H 0.1626 0.3624 0.8827
C9 C 0.1137(3) 0.2428(3) 0.8764(2)
C10 C 0.0203(3) 0.1913(3) 0.8513(2)
H27 H 0.0274 0.1333 0.8553
C11 C -0.0830(3) 0.2275(3) 0.8204(2)
C12 C -0.0892(4) 0.3140(3) 0.8152(2)
H28 H -0.1587 0.3386 0.7948
C13 C 0.2283(3) 0.2066(3) 0.9126(2)
C14 C -0.1879(4) 0.1756(3) 0.7961(2)
C15 C 0.1278(3) 0.1668(3) 0.7114(2)
H29 H 0.1933 0.1362 0.7298
C16 C 0.1337(3) 0.2530(3) 0.7162(2)
C17 C 0.0368(3) 0.2990(3) 0.6865(2)
H30 H 0.0389 0.3574 0.6868
C18 C -0.0629(3) 0.2570(3) 0.6563(2)
C19 C -0.0611(4) 0.1707(3) 0.6560(2)
H31 H -0.1284 0.1425 0.6372
C20 C 0.2427(4) 0.2954(3) 0.7570(2)
C21 C -0.1724(3) 0.3016(3) 0.6237(2)
Sm1B Sm 1.527470(17) -0.249559(15) 1.111039(12)
Ni2B Ni 2.01799(4) -0.49347(3) 1.17230(3)
Ni2A Ni 0.01799(4) -0.00653(3) 0.67230(3)
Ni2C Ni 1.98201(4) 0.00653(3) 1.32770(3)
O1B O 1.3286(2) -0.24822(19) 1.06443(15)
O2B O 1.2539(2) -0.36648(18) 1.08653(16)
O3B O 0.8391(2) -0.39818(19) 0.96655(15)
O4B O 0.7476(2) -0.2888(2) 0.90698(16)
O5B O 1.6912(2) -0.25544(18) 1.08109(16)
O6B O 1.7636(2) -0.13285(18) 1.06634(16)
O7B O 2.1761(2) -0.09678(18) 1.20271(16)
O8B O 2.2783(2) -0.2133(2) 1.22110(16)
O9B O 1.6739(2) -0.2474(2) 1.21941(16)
O10B O 1.7580(2) -0.37206(19) 1.23425(16)
O11B O 2.1703(2) -0.38109(18) 1.37796(15)
O12B O 2.2582(2) -0.25769(19) 1.39952(16)
O13B O 1.5742(2) -0.10255(19) 1.10418(15)
H1B H 1.5954 -0.0628 1.1336
H2B H 1.6203 -0.0924 1.0832
O14B O 1.5233(3) -0.3851(2) 1.05638(18)
H3B H 1.5089 -0.4322 1.0695
H4B H 1.5565 -0.4007 1.0289
O15B O 1.4689(2) -0.36306(18) 1.17160(16)
H5B H 1.4671 -0.3560 1.2113
H6B H 1.4054 -0.3790 1.1463
O16B O 1.4673(2) -0.2125(2) 0.98903(16)
H7B H 1.5054 -0.2134 0.9619
H8B H 1.4020 -0.2201 0.9613
O17B O 1.4591(2) -0.1659(2) 1.18789(16)
H9B H 1.4999 -0.1498 1.2276
H10B H 1.4007 -0.1825 1.1943
O18B O 0.8681(2) -0.01042(18) 0.90962(15)
H11B H 0.8036 -0.0057 0.9117
H12B H 0.8642 0.0238 0.8772
O19B O 0.9002(2) -0.01123(18) 1.05853(16)
H13B H 0.8836 0.0277 1.0810
H14B H 0.8581 -0.0506 1.0597
O20B O 2.1409(2) -0.48947(18) 1.12816(16)
H15B H 2.1674 -0.4472 1.1157
H16B H 2.1458 -0.5272 1.0998
O21B O 2.1383(2) -0.48542(18) 1.26732(15)
H17B H 2.1378 -0.4522 1.2997
H18B H 2.2056 -0.4864 1.2699
O22B O 1.8965(2) -0.49323(18) 1.21743(16)
H19B H 1.8860 -0.5322 1.2417
H20B H 1.8598 -0.4511 1.2205
O23B O 1.8979(2) -0.50988(18) 1.07463(15)
H21B H 1.8340 -0.5290 1.0697
H22B H 1.8856 -0.4727 1.0433
N1B N 1.0191(3) -0.1323(2) 0.99759(19)
N2B N 2.0000(3) -0.3639(2) 1.16191(18)
N3B N 1.9678(3) -0.1245(2) 1.31861(18)
N3A N -0.0322(3) 0.6245(2) 0.81861(18)
N3C N 2.0322(3) -0.6245(2) 1.18139(18)
C1B C 1.1188(4) -0.1696(3) 1.0240(2)
H23B H 1.1819 -0.1358 1.0388
C2B C 1.1329(3) -0.2557(3) 1.0303(2)
C3B C 1.0383(3) -0.3060(3) 1.0065(2)
H24B H 1.0445 -0.3640 1.0110
C4B C 0.9358(4) -0.2694(3) 0.9764(2)
C5B C 0.9294(3) -0.1822(3) 0.9728(2)
H25B H 0.8600 -0.1573 0.9524
C6B C 1.2467(3) -0.2932(3) 1.0628(2)
C7B C 0.8319(3) -0.3219(3) 0.9479(2)
C8B C 1.9000(3) -0.3281(3) 1.1324(2)
H26B H 1.8374 -0.3624 1.1173
C9B C 1.8863(3) -0.2428(3) 1.1236(2)
C10B C 1.9797(3) -0.1913(3) 1.1487(2)
H27B H 1.9726 -0.1333 1.1447
C11B C 2.0830(3) -0.2275(3) 1.1796(2)
C12B C 2.0892(4) -0.3140(3) 1.1848(2)
H28B H 2.1587 -0.3386 1.2052
C13B C 1.7717(3) -0.2066(3) 1.0874(2)
C14B C 2.1879(4) -0.1756(3) 1.2039(2)
C15B C 1.8722(3) -0.1668(3) 1.2886(2)
H29B H 1.8067 -0.1362 1.2702
C16B C 1.8663(3) -0.2530(3) 1.2838(2)
C17B C 1.9632(3) -0.2990(3) 1.3135(2)
H30B H 1.9611 -0.3574 1.3132
C18B C 2.0629(3) -0.2570(3) 1.3437(2)
C19B C 2.0611(4) -0.1707(3) 1.3440(2)
H31B H 2.1284 -0.1425 1.3628
C20B C 1.7573(4) -0.2954(3) 1.2430(2)
C21B C 2.1724(3) -0.3016(3) 1.3763(2)
O24 O 0.6443(2) -0.00407(19) 0.21984(16)
H32 H 0.6356 -0.0248 0.2567
H33 H 0.6175 0.0441 0.2173
O25 O 0.6951(3) 0.4123(2) 0.07156(18)
H34 H 0.7063 0.3607 0.0734
H35 H 0.6636 0.4273 0.0299
O26 O 0.4179(2) 0.65937(19) 0.28843(16)
H36 H 0.4636 0.6765 0.3271
H37 H 0.3681 0.6964 0.2808
O27 O 0.3688(3) 0.4509(2) 0.02475(19)
H38 H 0.4096 0.4399 0.0642
H39 H 0.3077 0.4417 0.0319
O28 O 0.4075(3) 0.3930(2) 0.18733(16)
H40 H 0.4461 0.4187 0.1689
H41 H 0.3609 0.3645 0.1566
O29 O 0.4109(2) 0.1762(2) 0.09289(16)
H42 H 0.3553 0.2059 0.0902
H43 H 0.3888 0.1264 0.0911
O30 O 0.6352(2) 0.04458(19) 0.02903(17)
H44 H 0.6884 0.0693 0.0595
H45 H 0.5826 0.0758 0.0299
O31 O 0.3426(3) 1.0099(2) 0.08807(18)
H46 H 0.3479 0.9886 0.0509
H47 H 0.3628 0.9708 0.1160
O32 O 0.6360(5) 0.5025(4) 0.2656(3)
H48 H 0.6833 0.4639 0.2538
H49 H 0.6892 0.5458 0.2709
O33 O 0.5552(5) 0.4680(4) 0.1321(3)
H50 H 0.5231 0.4191 0.1330
H51 H 0.6178 0.4498 0.1236
O34? O 0.6246(5) 0.4710(4) 0.1875(3)
loop_
_geom_bond_atom_site_label_1
_geom_bond_atom_site_label_2
_geom_bond_site_symmetry_1
_geom_bond_site_symmetry_2
Sm1 O1 1_555 1_555
Ni1 O18 1_555 1_555
Ni2 O20 1_555 1_555
O1 C6 1_555 1_555
O2 C6 1_555 1_555
O3 C7 1_555 1_555
O4 C7 1_555 1_555
O5 Sm1 1_555 1_555
O6 C13 1_555 1_555
O7 C14 1_555 1_555
O8 C14 1_555 1_555
O9 Sm1 1_555 1_555
O10 C20 1_555 1_555
O11 C21 1_555 1_555
O12 C21 1_555 1_555
O13 Sm1 1_555 1_555
H1 O13 1_555 1_555
H2 O13 1_555 1_555
O14 Sm1 1_555 1_555
H3 O14 1_555 1_555
H4 O14 1_555 1_555
O15 Sm1 1_555 1_555
H5 O15 1_555 1_555
H6 O15 1_555 1_555
O16 Sm1 1_555 1_555
H7 O16 1_555 1_555
H8 O16 1_555 1_555
O17 Sm1 1_555 1_555
H9 O17 1_555 1_555
H10 O17 1_555 1_555
O18 H11 1_555 1_555
H12 O18 1_555 1_555
O19 Ni1 1_555 1_555
H13 O19 1_555 1_555
H14 O19 1_555 1_555
O20 H15 1_555 1_555
H16 O20 1_555 1_555
O21 Ni2 1_555 1_555
H17 O21 1_555 1_555
H18 O21 1_555 1_555
O22 Ni2 1_555 1_555
H19 O22 1_555 1_555
H20 O22 1_555 1_555
O23 Ni2 1_555 1_555
H21 O23 1_555 1_555
H22 O23 1_555 1_555
N1 Ni1 1_555 1_555
N2 Ni2 1_555 1_555
N3 C15 1_555 1_555
C1 N1 1_555 1_555
H23 C1 1_555 1_555
C2 C1 1_555 1_555
C3 C2 1_555 1_555
H24 C3 1_555 1_555
C4 C3 1_555 1_555
C5 N1 1_555 1_555
H25 C5 1_555 1_555
C6 C2 1_555 1_555
C7 C4 1_555 1_555
C8 N2 1_555 1_555
H26 C8 1_555 1_555
C9 C8 1_555 1_555
C10 C9 1_555 1_555
H27 C10 1_555 1_555
C11 C10 1_555 1_555
C12 N2 1_555 1_555
H28 C12 1_555 1_555
C13 O5 1_555 1_555
C14 C11 1_555 1_555
C15 H29 1_555 1_555
C16 C15 1_555 1_555
C17 C16 1_555 1_555
H30 C17 1_555 1_555
C18 C17 1_555 1_555
C19 N3 1_555 1_555
H31 C19 1_555 1_555
C20 O9 1_555 1_555
C21 C18 1_555 1_555
O24 H32 1_555 1_555
H33 O24 1_555 1_555
O25 H34 1_555 1_555
H35 O25 1_555 1_555
O26 H36 1_555 1_555
H37 O26 1_555 1_555
O27 H38 1_555 1_555
H39 O27 1_555 1_555
O28 H40 1_555 1_555
H41 O28 1_555 1_555
O29 H42 1_555 1_555
H43 O29 1_555 1_555
O30 H44 1_555 1_555
H45 O30 1_555 1_555
O31 H46 1_555 1_555
H47 O31 1_555 1_555
O32 H48 1_555 1_555
H49 O32 1_555 1_555
O33 H50 1_555 1_555
H51 O33 1_555 1_555
Sm1B O1B 1_555 1_555
Ni2B O20B 1_555 1_555
Ni2A N3 1_555 1_555
Ni2C N3B 1_555 1_555
O1B C6B 1_555 1_555
O2B C6B 1_555 1_555
O3B C7B 1_555 1_555
O4B C7B 1_555 1_555
O5B Sm1B 1_555 1_555
O6B C13B 1_555 1_555
O7B C14B 1_555 1_555
O8B C14B 1_555 1_555
O9B Sm1B 1_555 1_555
O10B C20B 1_555 1_555
O11B C21B 1_555 1_555
O12B C21B 1_555 1_555
O13B Sm1B 1_555 1_555
H1B O13B 1_555 1_555
H2B O13B 1_555 1_555
O14B Sm1B 1_555 1_555
H3B O14B 1_555 1_555
H4B O14B 1_555 1_555
O15B Sm1B 1_555 1_555
H5B O15B 1_555 1_555
H6B O15B 1_555 1_555
O16B Sm1B 1_555 1_555
H7B O16B 1_555 1_555
H8B O16B 1_555 1_555
O17B Sm1B 1_555 1_555
H9B O17B 1_555 1_555
H10B O17B 1_555 1_555
O18B Ni1 1_555 1_555
H11B O18B 1_555 1_555
H12B O18B 1_555 1_555
O19B Ni1 1_555 1_555
H13B O19B 1_555 1_555
H14B O19B 1_555 1_555
O20B H15B 1_555 1_555
H16B O20B 1_555 1_555
O21B Ni2B 1_555 1_555
H17B O21B 1_555 1_555
H18B O21B 1_555 1_555
O22B Ni2B 1_555 1_555
H19B O22B 1_555 1_555
H20B O22B 1_555 1_555
O23B Ni2B 1_555 1_555
H21B O23B 1_555 1_555
H22B O23B 1_555 1_555
N1B Ni1 1_555 1_555
N2B Ni2B 1_555 1_555
N3B C15B 1_555 1_555
N3A Ni2 1_555 1_555
N3C Ni2B 1_555 1_555
C1B N1B 1_555 1_555
H23B C1B 1_555 1_555
C2B C1B 1_555 1_555
C3B C2B 1_555 1_555
H24B C3B 1_555 1_555
C4B C3B 1_555 1_555
C5B N1B 1_555 1_555
H25B C5B 1_555 1_555
C6B C2B 1_555 1_555
C7B C4B 1_555 1_555
C8B N2B 1_555 1_555
H26B C8B 1_555 1_555
C9B C8B 1_555 1_555
C10B C9B 1_555 1_555
H27B C10B 1_555 1_555
C11B C10B 1_555 1_555
C12B N2B 1_555 1_555
H28B C12B 1_555 1_555
C13B O5B 1_555 1_555
C14B C11B 1_555 1_555
C15B H29B 1_555 1_555
C16B C15B 1_555 1_555
C17B C16B 1_555 1_555
H30B C17B 1_555 1_555
C18B C17B 1_555 1_555
C19B N3B 1_555 1_555
H31B C19B 1_555 1_555
C20B O9B 1_555 1_555
C21B C18B 1_555 1_555
C4 C5 1_555 1_555
C9 C13 1_555 1_555
C11 C12 1_555 1_555
C16 C20 1_555 1_555
C18 C19 1_555 1_555
C4B C5B 1_555 1_555
C9B C13B 1_555 1_555
C11B C12B 1_555 1_555
C16B C20B 1_555 1_555
C18B C19B 1_555 1_555

#END
