
#######################################################################
#
#                 Cambridge Crystallographic Data Centre
#                                CCDC 
#
#######################################################################
#
# If this CIF has been generated from an entry in the Cambridge 
# Structural Database, then it will include bibliographic, chemical, 
# crystal, experimental, refinement or atomic coordinate data resulting 
# from the CCDC's data processing and validation procedures.
#
#######################################################################

data_BIXCES
_symmetry_cell_setting           monoclinic
_symmetry_space_group_name_H-M   'C 2/c'
_symmetry_Int_Tables_number      15
_space_group_name_Hall           '-C 2yn'
loop_
_symmetry_equiv_pos_site_id
_symmetry_equiv_pos_as_xyz
1 x,y,z
2 -x,y,1/2-z
3 1/2+x,1/2+y,z
4 1/2-x,1/2+y,1/2-z
5 -x,-y,-z
6 x,-y,1/2+z
7 1/2-x,1/2-y,-z
8 1/2+x,1/2-y,1/2+z
_cell_length_a                   18.233(3)
_cell_length_b                   10.4511(14)
_cell_length_c                   20.898(3)
_cell_angle_alpha                90
_cell_angle_beta                 93.081(2)
_cell_angle_gamma                90
_cell_volume                     3976.46
loop_
_atom_site_label
_atom_site_type_symbol
_atom_site_fract_x
_atom_site_fract_y
_atom_site_fract_z
Ni1 Ni 0.268905(17) 0.54699(3) 0.182666(15)
N1 N 0.32496(12) 0.5816(2) 0.09987(10)
N2 N 0.28959(13) 0.7444(2) 0.19247(10)
H1 H 0.2611(14) 0.785(3) 0.2153(12)
N3 N 0.36272(12) 0.5344(2) 0.24201(10)
C1 C 0.35626(14) 0.4973(3) 0.06188(13)
H2 H 0.3570 0.4098 0.0742
C2 C 0.38752(19) 0.5306(3) 0.00586(15)
H3 H 0.4081 0.4675 -0.0205
C3 C 0.3881(2) 0.6591(4) -0.01100(16)
H4 H 0.4104 0.6858 -0.0488
C4 C 0.3559(2) 0.7475(3) 0.02769(14)
H5 H 0.3549 0.8356 0.0164
C5 C 0.32516(16) 0.7061(3) 0.08312(13)
C6 C 0.28692(17) 0.7966(3) 0.12672(13)
H6 H 0.3113 0.8813 0.1267
H7 H 0.2352 0.8081 0.1109
C7 C 0.36221(15) 0.7644(3) 0.22740(13)
H8 H 0.3986 0.7900 0.1963
H9 H 0.3579 0.8355 0.2583
C8 C 0.38960(14) 0.6485(3) 0.26261(12)
C9 C 0.44319(15) 0.6562(3) 0.31322(13)
H10 H 0.4603 0.7371 0.3285
C10 C 0.47052(16) 0.5456(3) 0.34028(14)
H11 H 0.5066 0.5490 0.3748
C11 C 0.44528(17) 0.4286(3) 0.31707(14)
H12 H 0.4652 0.3508 0.3340
C12 C 0.39053(15) 0.4277(3) 0.26882(13)
H13 H 0.3718 0.3476 0.2540
O1 O 0.10542(10) 0.6298(2) 0.23059(9)
O2 O 0.21205(10) 0.54161(17) 0.26559(9)
O3 O 0.23373(10) 0.85118(19) 0.33165(9)
O4 O 0.33763(11) 0.83428(19) 0.39241(9)
C13 C 0.12750(14) 0.6080(2) 0.34231(12)
C14 C 0.05291(15) 0.5936(3) 0.35230(14)
H14 H 0.0194 0.5791 0.3166
C15 C 0.02663(16) 0.5999(3) 0.41350(14)
H15 H -0.0242 0.5889 0.4197
C16 C 0.07535(17) 0.6224(3) 0.46512(14)
H16 H 0.0583 0.6260 0.5072
C17 C 0.14927(16) 0.6398(3) 0.45535(13)
H17 H 0.1820 0.6574 0.4912
C18 C 0.17708(14) 0.6323(2) 0.39446(12)
C19 C 0.15014(14) 0.5928(2) 0.27372(12)
C20 C 0.25815(15) 0.6559(2) 0.38849(12)
H18 H 0.2762 0.5963 0.3561
H19 H 0.2842 0.6354 0.4300
C21 C 0.27836(14) 0.7920(2) 0.36970(11)
O5 O 0.17249(11) 0.58304(19) 0.12623(9)
H20 H 0.1641(16) 0.5069(14) 0.1137(14)
H21 H 0.1416(13) 0.598(3) 0.1542(11)
Ni1C Ni 0.231095(17) 1.04699(3) 0.317334(15)
O3C O 0.26627(10) 0.35118(19) 0.16835(9)
loop_
_geom_bond_atom_site_label_1
_geom_bond_atom_site_label_2
_geom_bond_site_symmetry_1
_geom_bond_site_symmetry_2
Ni1 N1 1_555 1_555
N1 C1 1_555 1_555
N2 Ni1 1_555 1_555
H1 N2 1_555 1_555
N3 Ni1 1_555 1_555
C1 H2 1_555 1_555
C2 C1 1_555 1_555
H3 C2 1_555 1_555
C3 C2 1_555 1_555
H4 C3 1_555 1_555
C4 C3 1_555 1_555
H5 C4 1_555 1_555
C5 N1 1_555 1_555
C6 N2 1_555 1_555
H6 C6 1_555 1_555
H7 C6 1_555 1_555
C7 N2 1_555 1_555
H8 C7 1_555 1_555
H9 C7 1_555 1_555
C8 N3 1_555 1_555
C9 C8 1_555 1_555
H10 C9 1_555 1_555
C10 C9 1_555 1_555
H11 C10 1_555 1_555
C11 C10 1_555 1_555
H12 C11 1_555 1_555
C12 N3 1_555 1_555
H13 C12 1_555 1_555
O1 C19 1_555 1_555
O2 Ni1 1_555 1_555
O3 C21 1_555 1_555
O4 C21 1_555 1_555
C13 C14 1_555 1_555
C14 H14 1_555 1_555
C15 C14 1_555 1_555
H15 C15 1_555 1_555
C16 C15 1_555 1_555
H16 C16 1_555 1_555
C17 C16 1_555 1_555
H17 C17 1_555 1_555
C18 C13 1_555 1_555
C19 O2 1_555 1_555
C20 C18 1_555 1_555
H18 C20 1_555 1_555
H19 C20 1_555 1_555
C21 C20 1_555 1_555
O5 Ni1 1_555 1_555
H20 O5 1_555 1_555
H21 O5 1_555 1_555
Ni1C O3 1_555 1_555
O3C Ni1 1_555 1_555
C4 C5 1_555 1_555
C5 C6 1_555 1_555
C7 C8 1_555 1_555
C11 C12 1_555 1_555
C13 C19 1_555 1_555
C17 C18 1_555 1_555

#END
