
#######################################################################
#
#                 Cambridge Crystallographic Data Centre
#                                CCDC 
#
#######################################################################
#
# If this CIF has been generated from an entry in the Cambridge 
# Structural Database, then it will include bibliographic, chemical, 
# crystal, experimental, refinement or atomic coordinate data resulting 
# from the CCDC's data processing and validation procedures.
#
#######################################################################

data_BIXHAT
_symmetry_cell_setting           triclinic
_symmetry_space_group_name_H-M   'P -1'
_symmetry_Int_Tables_number      2
_space_group_name_Hall           '-P 1'
loop_
_symmetry_equiv_pos_site_id
_symmetry_equiv_pos_as_xyz
1 x,y,z
2 -x,-y,-z
_cell_length_a                   8.28368(13)
_cell_length_b                   11.45842(18)
_cell_length_c                   12.57923(20)
_cell_angle_alpha                74.9663(14)
_cell_angle_beta                 77.5238(13)
_cell_angle_gamma                78.6965(13)
_cell_volume                     1113.42
loop_
_atom_site_label
_atom_site_type_symbol
_atom_site_fract_x
_atom_site_fract_y
_atom_site_fract_z
F1 F 0.40736(9) 0.89843(6) 0.18475(6)
F2 F 0.66713(9) 0.89327(6) 0.10942(6)
F3 F 0.48989(10) 0.87050(6) 0.01697(6)
F4 F 0.65509(8) -0.06232(6) 0.63472(6)
F5 F 0.48903(9) -0.19193(6) 0.65276(6)
F6 F 0.49314(9) -0.11681(6) 0.79112(6)
N1 N 0.52839(11) 0.65946(8) 0.27473(8)
N2 N 0.62374(12) 0.63134(9) 0.09668(8)
N3 N 0.75780(15) 0.32354(10) 0.10121(9)
N4 N 0.58242(12) 0.36817(9) 0.45872(8)
N5 N 0.39573(12) 0.13081(9) 0.61261(8)
N6 N 0.21646(12) -0.00759(9) 0.64164(8)
N7 N -0.17611(12) 0.16254(9) 0.59196(8)
N8 N 0.17522(13) 0.42562(10) 0.52498(10)
C1 C 0.55822(14) 0.70795(10) 0.16430(9)
C2 C 0.63774(14) 0.52122(10) 0.17043(10)
C3 C 0.58038(13) 0.53773(10) 0.27888(9)
C4 C 0.70365(15) 0.41064(11) 0.13326(10)
C5 C 0.57879(13) 0.44547(10) 0.37993(9)
C6 C 0.52988(15) 0.84265(11) 0.11841(9)
C7 C 0.36886(14) 0.01358(10) 0.64221(9)
C8 C 0.13564(14) 0.10741(11) 0.60774(9)
C9 C 0.24409(14) 0.19159(10) 0.58999(9)
C10 C -0.03691(15) 0.13471(10) 0.59769(9)
C11 C 0.20836(14) 0.32135(11) 0.55378(10)
C12 C 0.50124(15) -0.08936(10) 0.68008(10)
Li1 Li 0.5766(2) 0.23544(17) 0.60327(16)
N1A N 0.47161(11) 0.34054(8) 0.72527(8)
N7_2 N 0.82389(12) 0.16254(9) 0.59196(8)
Li1_2 Li -0.4234(2) 0.23544(17) 0.60327(16)
Li1A Li 0.4234(2) 0.76456(17) 0.39673(16)
N9 N 0.11943(12) 0.41002(10) 0.23050(8)
N10 N 0.08625(12) 0.23771(9) 0.20479(8)
C13 C 0.16604(15) 0.33353(11) 0.16199(10)
H1 H 0.2436 0.3457 0.0938
C14 C -0.01543(15) 0.25266(11) 0.30415(10)
H2 H -0.0866 0.1977 0.3521
C15 C 0.00537(15) 0.36046(12) 0.32044(10)
H3 H -0.0483 0.3955 0.3821
C16 C 0.10044(17) 0.13407(12) 0.15358(11)
H4 H 0.1535 0.0600 0.1998
H5 H 0.1685 0.1505 0.0787
H6 H -0.0112 0.1224 0.1479
C17 C 0.16924(16) 0.53147(12) 0.20979(11)
H7 H 0.2726 0.5362 0.1530
H8 H 0.1941 0.5429 0.2796
C18 C 0.03351(16) 0.63319(12) 0.16934(11)
H9 H -0.0694 0.6298 0.2266
H10 H 0.0073 0.6215 0.1000
C19 C 0.08938(18) 0.75752(12) 0.14676(11)
H11 H 0.1241 0.7663 0.2136
H12 H -0.0036 0.8220 0.1279
H13 H 0.1836 0.7643 0.0842
loop_
_geom_bond_atom_site_label_1
_geom_bond_atom_site_label_2
_geom_bond_site_symmetry_1
_geom_bond_site_symmetry_2
F1 C6 1_555 1_555
F2 C6 1_555 1_555
F3 C6 1_555 1_555
F4 C12 1_555 1_555
F5 C12 1_555 1_555
F6 C12 1_555 1_555
N1 C1 1_555 1_555
N2 C1 1_555 1_555
N3 C4 1_555 1_555
N4 C5 1_555 1_555
N5 C7 1_555 1_555
N6 C7 1_555 1_555
N7 C10 1_555 1_555
N8 C11 1_555 1_555
C1 C6 1_555 1_555
C2 N2 1_555 1_555
C3 N1 1_555 1_555
C4 C2 1_555 1_555
C5 C3 1_555 1_555
C7 C12 1_555 1_555
C8 N6 1_555 1_555
C9 N5 1_555 1_555
C10 C8 1_555 1_555
C11 C9 1_555 1_555
Li1 N4 1_555 1_555
N9 C13 1_555 1_555
N10 C13 1_555 1_555
C13 H1 1_555 1_555
C14 N10 1_555 1_555
H2 C14 1_555 1_555
C15 N9 1_555 1_555
H3 C15 1_555 1_555
C16 N10 1_555 1_555
H4 C16 1_555 1_555
H5 C16 1_555 1_555
H6 C16 1_555 1_555
C17 N9 1_555 1_555
H7 C17 1_555 1_555
H8 C17 1_555 1_555
C18 C17 1_555 1_555
H9 C18 1_555 1_555
H10 C18 1_555 1_555
C19 C18 1_555 1_555
H11 C19 1_555 1_555
H12 C19 1_555 1_555
H13 C19 1_555 1_555
N1A Li1 1_555 1_555
N7_2 Li1 1_555 1_555
Li1_2 N7 1_555 1_555
Li1A N1 1_555 1_555
N5 Li1 1_555 1_555
C2 C3 1_555 1_555
C8 C9 1_555 1_555
C14 C15 1_555 1_555

#END
