
#######################################################################
#
#                 Cambridge Crystallographic Data Centre
#                                CCDC 
#
#######################################################################
#
# If this CIF has been generated from an entry in the Cambridge 
# Structural Database, then it will include bibliographic, chemical, 
# crystal, experimental, refinement or atomic coordinate data resulting 
# from the CCDC's data processing and validation procedures.
#
#######################################################################

data_BIXHEX
_symmetry_cell_setting           triclinic
_symmetry_space_group_name_H-M   'P -1'
_symmetry_Int_Tables_number      2
_space_group_name_Hall           '-P 1'
loop_
_symmetry_equiv_pos_site_id
_symmetry_equiv_pos_as_xyz
1 x,y,z
2 -x,-y,-z
_cell_length_a                   8.42410(11)
_cell_length_b                   11.66815(17)
_cell_length_c                   12.85431(18)
_cell_angle_alpha                73.0547(13)
_cell_angle_beta                 74.4505(12)
_cell_angle_gamma                76.7560(12)
_cell_volume                     1148.67
loop_
_atom_site_label
_atom_site_type_symbol
_atom_site_fract_x
_atom_site_fract_y
_atom_site_fract_z
F1 F 0.42315(9) 0.89973(7) 0.18574(6)
F2 F 0.68087(9) 0.90079(7) 0.10196(6)
F3 F 0.50854(11) 0.87223(7) 0.01907(6)
F4 F 0.64896(10) -0.05836(7) 0.63479(7)
F5 F 0.48819(10) -0.18469(7) 0.65073(7)
F6 F 0.47905(10) -0.11600(7) 0.78996(6)
N1 N 0.54819(13) 0.66286(9) 0.27512(8)
N2 N 0.65447(14) 0.63753(10) 0.09800(9)
N3 N 0.77871(18) 0.32851(11) 0.10742(10)
N4 N 0.58428(13) 0.36848(9) 0.45798(9)
N5 N 0.38941(13) 0.13512(9) 0.61377(8)
N6 N 0.21376(13) 0.00016(10) 0.64178(9)
N7 N -0.17683(14) 0.16840(10) 0.59712(9)
N8 N 0.17258(14) 0.43108(10) 0.52894(10)
C1 C 0.58467(15) 0.71241(11) 0.16497(10)
C2 C 0.66474(16) 0.52710(11) 0.17197(10)
C3 C 0.60076(15) 0.54198(11) 0.27969(10)
C4 C 0.72888(18) 0.41650(13) 0.13656(11)
C5 C 0.58937(15) 0.44784(11) 0.38034(10)
C6 C 0.54936(16) 0.84641(12) 0.11784(10)
C7 C 0.36394(16) 0.01919(11) 0.64220(10)
C8 C 0.13306(16) 0.11551(12) 0.60927(10)
C9 C 0.23926(16) 0.19774(11) 0.59203(10)
C10 C -0.03833(17) 0.14283(11) 0.60126(10)
C11 C 0.20441(15) 0.32717(12) 0.55685(11)
C12 C 0.49497(16) -0.08500(12) 0.67916(11)
Li1 Li 0.5702(3) 0.23517(19) 0.60449(18)
N1A N 0.45181(13) 0.33714(9) 0.72488(8)
N7_2 N 0.82317(14) 0.16840(10) 0.59712(9)
Li1_2 Li -0.4298(3) 0.23517(19) 0.60449(18)
Li1A Li 0.4298(3) 0.76483(19) 0.39551(18)
N9 N 0.13556(14) 0.38767(10) 0.24351(9)
N10 N 0.08862(14) 0.22548(10) 0.21704(9)
C13 C 0.17804(16) 0.31470(12) 0.17481(11)
H1 H 0.2591 0.3248 0.1067
C14 C -0.01608(16) 0.24208(12) 0.31589(11)
H2 H -0.0940 0.1916 0.3633
C15 C 0.01298(16) 0.34375(12) 0.33272(11)
H3 H -0.0406 0.3784 0.3942
C16 C 0.10007(18) 0.12542(12) 0.16678(11)
H4 H 0.1590 0.1457 0.0886
H5 H -0.0125 0.1122 0.1711
H6 H 0.1614 0.0513 0.2070
C17 C 0.20345(18) 0.49933(13) 0.22447(12)
H7 H 0.3137 0.4943 0.1722
H8 H 0.2207 0.5051 0.2959
C18 C 0.09033(17) 0.61359(12) 0.17728(11)
H9 H -0.0155 0.6248 0.2327
H10 H 0.0636 0.6057 0.1095
C19 C 0.17767(18) 0.72301(12) 0.14874(12)
H11 H 0.2065 0.7284 0.2168
H12 H 0.2833 0.7104 0.0935
C20 C 0.07344(19) 0.84240(13) 0.10214(12)
H13 H 0.0422 0.8374 0.0356
H14 H 0.1386 0.9082 0.0823
H15 H -0.0277 0.8586 0.1584
loop_
_geom_bond_atom_site_label_1
_geom_bond_atom_site_label_2
_geom_bond_site_symmetry_1
_geom_bond_site_symmetry_2
F1 C6 1_555 1_555
F2 C6 1_555 1_555
F3 C6 1_555 1_555
F4 C12 1_555 1_555
F5 C12 1_555 1_555
F6 C12 1_555 1_555
N1 C1 1_555 1_555
N2 C1 1_555 1_555
N3 C4 1_555 1_555
N4 C5 1_555 1_555
N5 C7 1_555 1_555
N6 C7 1_555 1_555
N7 C10 1_555 1_555
N8 C11 1_555 1_555
C1 C6 1_555 1_555
C2 N2 1_555 1_555
C3 N1 1_555 1_555
C4 C2 1_555 1_555
C5 C3 1_555 1_555
C7 C12 1_555 1_555
C8 N6 1_555 1_555
C9 N5 1_555 1_555
C10 C8 1_555 1_555
C11 C9 1_555 1_555
Li1 N4 1_555 1_555
N9 C13 1_555 1_555
N10 C13 1_555 1_555
C13 H1 1_555 1_555
C14 N10 1_555 1_555
H2 C14 1_555 1_555
C15 N9 1_555 1_555
H3 C15 1_555 1_555
C16 N10 1_555 1_555
H4 C16 1_555 1_555
H5 C16 1_555 1_555
H6 C16 1_555 1_555
C17 N9 1_555 1_555
H7 C17 1_555 1_555
H8 C17 1_555 1_555
C18 C17 1_555 1_555
H9 C18 1_555 1_555
H10 C18 1_555 1_555
C19 C18 1_555 1_555
H11 C19 1_555 1_555
H12 C19 1_555 1_555
C20 C19 1_555 1_555
H13 C20 1_555 1_555
H14 C20 1_555 1_555
H15 C20 1_555 1_555
N1A Li1 1_555 1_555
N7_2 Li1 1_555 1_555
Li1_2 N7 1_555 1_555
Li1A N1 1_555 1_555
N5 Li1 1_555 1_555
C2 C3 1_555 1_555
C8 C9 1_555 1_555
C14 C15 1_555 1_555

#END
