
#######################################################################
#
#                 Cambridge Crystallographic Data Centre
#                                CCDC 
#
#######################################################################
#
# If this CIF has been generated from an entry in the Cambridge 
# Structural Database, then it will include bibliographic, chemical, 
# crystal, experimental, refinement or atomic coordinate data resulting 
# from the CCDC's data processing and validation procedures.
#
#######################################################################

data_BIXXUD
_symmetry_cell_setting           rhombohedral
_symmetry_space_group_name_H-M   'R -3'
_symmetry_Int_Tables_number      148
_space_group_name_Hall           '-R 3'
loop_
_symmetry_equiv_pos_site_id
_symmetry_equiv_pos_as_xyz
1 x,y,z
2 -y,x-y,z
3 -x+y,-x,z
4 2/3+x,1/3+y,1/3+z
5 2/3-y,1/3+x-y,1/3+z
6 2/3-x+y,1/3-x,1/3+z
7 1/3+x,2/3+y,2/3+z
8 1/3-y,2/3+x-y,2/3+z
9 1/3-x+y,2/3-x,2/3+z
10 -x,-y,-z
11 y,-x+y,-z
12 x-y,x,-z
13 1/3-x,2/3-y,2/3-z
14 1/3+y,2/3-x+y,2/3-z
15 1/3+x-y,2/3+x,2/3-z
16 2/3-x,1/3-y,1/3-z
17 2/3+y,1/3-x+y,1/3-z
18 2/3+x-y,1/3+x,1/3-z
_cell_length_a                   22.0842(2)
_cell_length_b                   22.0842(2)
_cell_length_c                   28.0921(6)
_cell_angle_alpha                90
_cell_angle_beta                 90
_cell_angle_gamma                120
_cell_volume                     11865.3
loop_
_atom_site_label
_atom_site_type_symbol
_atom_site_fract_x
_atom_site_fract_y
_atom_site_fract_z
Si1 Si 0.6667 0.3333 0.1503(2)
W1 W 0.71508(2) 0.43470(2) 0.255271(18)
W2 W 0.51147(2) 0.33955(2) 0.148829(18)
W3 W 0.60949(2) 0.38708(2) 0.049199(18)
W4 W 0.66337(2) 0.49074(2) 0.146506(18)
La1 La 0.64247(3) 0.66089(3) 0.19302(3)
O1 O 0.6274(4) 0.3737(4) 0.1306(3)
O2 O 0.6667 0.3333 0.2083(5)
O3 O 0.7477(4) 0.3750(4) 0.2817(3)
O4 O 0.7456(4) 0.4990(5) 0.2955(3)
O5 O 0.6738(4) 0.4677(4) 0.2096(3)
O6 O 0.4294(4) 0.3278(4) 0.1551(3)
O7 O 0.5637(4) 0.4379(4) 0.1575(3)
O8 O 0.6750(4) 0.5735(4) 0.1521(3)
O9 O 0.6420(4) 0.4761(4) 0.0802(3)
O10 O 0.5225(4) 0.3563(4) 0.0809(3)
O11 O 0.4921(4) 0.2458(4) 0.1350(3)
O12 O 0.5916(4) 0.4065(4) -0.0050(3)
O13 O 0.5881(4) 0.2936(4) 0.0428(3)
O14 O 0.5313(4) 0.3236(4) 0.2105(3)
O15 O 0.5324(4) 0.5674(4) 0.1561(3)
O16 O 0.4329(4) 0.4677(4) 0.1539(3)
O17 O 0.3570(4) 0.3642(4) 0.2255(3)
O18 O 0.3969(4) 0.3280(4) 0.2847(3)
O19 O 0.6776(4) 0.7143(5) 0.2750(3)
O20 O 0.7503(4) 0.7596(4) 0.3355(3)
O21 O 0.8672(5) 0.7808(5) 0.3594(3)
H1 H 0.8282 0.7732 0.3518
O22 O 0.9405(5) 0.7466(5) 0.3356(4)
O23 O 0.5373(4) 0.6565(5) 0.2382(4)
N1 N 0.5730(5) 0.5394(4) 0.2390(3)
N2 N 0.5232(5) 0.4476(5) 0.2854(4)
H2 H 0.5179 0.4198 0.3085
N3 N 0.7491(5) 0.6533(5) 0.2403(4)
N4 N 0.8494(5) 0.6639(5) 0.2634(4)
H3 H 0.8853 0.6585 0.2643
C1 C 0.5813(6) 0.5102(6) 0.2772(5)
H4 H 0.6213 0.5297 0.2960
C2 C 0.5064(6) 0.4932(6) 0.2212(4)
C3 C 0.4739(5) 0.4356(6) 0.2509(4)
C4 C 0.4885(6) 0.5097(6) 0.1751(5)
C5 C 0.4038(6) 0.3707(6) 0.2530(5)
C6 C 0.7968(6) 0.6347(6) 0.2325(5)
H5 H 0.7938 0.6047 0.2083
C7 C 0.8358(6) 0.7038(6) 0.2930(5)
C8 C 0.7741(6) 0.6966(6) 0.2787(5)
C9 C 0.7309(6) 0.7263(6) 0.2975(5)
C10 C 0.8865(7) 0.7466(6) 0.3309(5)
O1A O 0.6263(4) 0.2537(6) 0.1306(3)
O1B O 0.7463(6) 0.3726(4) 0.1306(3)
W1A W 0.56530(2) 0.28038(3) 0.255271(18)
W2A W 0.66045(2) 0.17192(3) 0.148829(18)
W3A W 0.61292(2) 0.22241(3) 0.049199(18)
W4A W 0.50926(2) 0.17263(3) 0.146506(18)
La1A La 0.33911(3) -0.01842(4) 0.19302(3)
O3A O 0.6250(4) 0.3727(6) 0.2817(3)
O4A O 0.5010(5) 0.2466(6) 0.2955(3)
O5A O 0.5323(4) 0.2061(6) 0.2096(3)
O6A O 0.6722(4) 0.1016(6) 0.1551(3)
O7A O 0.5621(4) 0.1258(6) 0.1575(3)
O8A O 0.4265(4) 0.1015(6) 0.1521(3)
O9A O 0.5239(4) 0.1659(6) 0.0802(3)
O10A O 0.6437(4) 0.1662(6) 0.0809(3)
O11A O 0.7542(4) 0.2463(6) 0.1350(3)
O12A O 0.5935(4) 0.1851(6) -0.0050(3)
O13A O 0.7064(4) 0.2945(6) 0.0428(3)
O14A O 0.6764(4) 0.2077(6) 0.2105(3)
O15A O 0.4326(4) -0.0350(6) 0.1561(3)
O16A O 0.5323(4) -0.0348(6) 0.1539(3)
O17A O 0.6358(4) -0.0072(6) 0.2255(3)
O18A O 0.6720(4) 0.0689(6) 0.2847(3)
O19A O 0.2857(5) -0.0367(6) 0.2750(3)
O20A O 0.2404(4) -0.0093(6) 0.3355(3)
O21A O 0.2192(5) 0.0864(7) 0.3594(3)
H1A H 0.2268 0.0550 0.3518
O22A O 0.2534(5) 0.1939(7) 0.3356(4)
O23A O 0.3435(5) -0.1192(6) 0.2382(4)
N1A N 0.4606(4) 0.0336(6) 0.2390(3)
N2A N 0.5524(5) 0.0756(7) 0.2854(4)
H2A H 0.5802 0.0981 0.3085
N3A N 0.3467(5) 0.0958(7) 0.2403(4)
N4A N 0.3361(5) 0.1855(7) 0.2634(4)
H3A H 0.3415 0.2268 0.2643
C1A C 0.4898(6) 0.0711(8) 0.2772(5)
H4A H 0.4703 0.0916 0.2960
C2A C 0.5068(6) 0.0132(8) 0.2212(4)
C3A C 0.5644(6) 0.0383(8) 0.2509(4)
C4A C 0.4903(6) -0.0212(8) 0.1751(5)
C5A C 0.6293(6) 0.0331(8) 0.2530(5)
C6A C 0.3653(6) 0.1621(8) 0.2325(5)
H5A H 0.3953 0.1891 0.2083
C7A C 0.2962(6) 0.1320(8) 0.2930(5)
C8A C 0.3034(6) 0.0775(8) 0.2787(5)
C9A C 0.2737(6) 0.0046(8) 0.2975(5)
C10A C 0.2534(6) 0.1399(9) 0.3309(5)
W1B W 0.71962(3) 0.28492(2) 0.255271(18)
W2B W 0.82808(3) 0.48853(2) 0.148829(18)
W3B W 0.77759(3) 0.39051(2) 0.049199(18)
W4B W 0.82737(3) 0.33663(2) 0.146506(18)
La1B La 1.01842(4) 0.35753(3) 0.19302(3)
O3B O 0.6273(6) 0.2523(4) 0.2817(3)
O4B O 0.7534(6) 0.2544(4) 0.2955(3)
O5B O 0.7939(6) 0.3262(4) 0.2096(3)
O6B O 0.8984(6) 0.5706(4) 0.1551(3)
O7B O 0.8742(6) 0.4363(4) 0.1575(3)
O8B O 0.8985(6) 0.3250(4) 0.1521(3)
O9B O 0.8341(6) 0.3580(4) 0.0802(3)
O10B O 0.8338(6) 0.4775(4) 0.0809(3)
O11B O 0.7537(6) 0.5079(4) 0.1350(3)
O12B O 0.8149(6) 0.4084(4) -0.0050(3)
O13B O 0.7055(6) 0.4119(4) 0.0428(3)
O14B O 0.7923(6) 0.4687(4) 0.2105(3)
O15B O 1.0350(6) 0.4676(4) 0.1561(3)
O16B O 1.0348(6) 0.5671(4) 0.1539(3)
O17B O 1.0072(6) 0.6430(4) 0.2255(3)
O18B O 0.9311(6) 0.6031(4) 0.2847(3)
O19B O 1.0367(6) 0.3224(4) 0.2750(3)
O20B O 1.0093(6) 0.2497(4) 0.3355(3)
O21B O 0.9136(7) 0.1328(5) 0.3594(3)
H1B H 0.9450 0.1718 0.3518
O22B O 0.8061(7) 0.0595(5) 0.3356(4)
O23B O 1.1192(6) 0.4627(4) 0.2382(4)
N1B N 0.9664(6) 0.4270(5) 0.2390(3)
N2B N 0.9244(7) 0.4768(5) 0.2854(4)
H2B H 0.9019 0.4821 0.3085
N3B N 0.9042(7) 0.2509(5) 0.2403(4)
N4B N 0.8145(7) 0.1506(5) 0.2634(4)
H3B H 0.7732 0.1147 0.2643
C1B C 0.9289(8) 0.4187(6) 0.2772(5)
H4B H 0.9084 0.3787 0.2960
C2B C 0.9868(8) 0.4936(6) 0.2212(4)
C3B C 0.9617(8) 0.5261(5) 0.2509(4)
C4B C 1.0212(8) 0.5115(6) 0.1751(5)
C5B C 0.9669(8) 0.5962(6) 0.2530(5)
C6B C 0.8379(8) 0.2032(6) 0.2325(5)
H5B H 0.8109 0.2062 0.2083
C7B C 0.8680(8) 0.1642(6) 0.2930(5)
C8B C 0.9225(8) 0.2259(6) 0.2787(5)
C9B C 0.9954(8) 0.2691(6) 0.2975(5)
C10B C 0.8601(9) 0.1135(7) 0.3309(5)
La1O La 1.02420(3) 0.67244(3) 0.14031(3)
La1P La 0.32756(3) 0.35175(4) 0.14031(3)
La1Q La 0.64825(4) -0.02420(3) 0.14031(3)
O6O O 0.2373(4) 0.0055(4) 0.1782(3)
O6P O 0.9945(4) 0.2317(6) 0.1782(3)
O6Q O 0.7683(6) 0.7627(4) 0.1782(3)
O16O O 0.2338(4) -0.1344(4) 0.1794(3)
O16P O 1.1344(4) 0.3681(6) 0.1794(3)
O16Q O 0.6319(6) 0.7662(4) 0.1794(3)
O17O O 0.3097(4) -0.0309(4) 0.1078(3)
O17P O 1.0309(4) 0.3405(6) 0.1078(3)
O17Q O 0.6595(6) 0.6903(4) 0.1078(3)
K1 K 0.24482(19) 0.29378(18) 0.28609(16)
K2 K 0.4443(9) 0.5908(8) 0.1007(6)
O24 O 0.1761(16) 0.3650(16) 0.2937(11)
O25 O 0.425(3) 0.714(3) 0.081(2)
loop_
_geom_bond_atom_site_label_1
_geom_bond_atom_site_label_2
_geom_bond_site_symmetry_1
_geom_bond_site_symmetry_2
Si1 O1 1_555 1_555
W1 O2 1_555 1_555
W2 O1 1_555 1_555
W3 O1 1_555 1_555
W4 O1 1_555 1_555
La1 O8 1_555 1_555
O2 Si1 1_555 1_555
O3 W1 1_555 1_555
O4 W1 1_555 1_555
O5 W1 1_555 1_555
O6 W2 1_555 1_555
O7 W2 1_555 1_555
O8 W4 1_555 1_555
O9 W3 1_555 1_555
O10 W2 1_555 1_555
O11 W2 1_555 1_555
O12 W3 1_555 1_555
O13 W3 1_555 1_555
O14 W2 1_555 1_555
O15 La1 1_555 1_555
O16 C4 1_555 1_555
O17 C5 1_555 1_555
O18 C5 1_555 1_555
O19 La1 1_555 1_555
O20 C9 1_555 1_555
O21 H1 1_555 1_555
O22 C10 1_555 1_555
O23 La1 1_555 1_555
N1 La1 1_555 1_555
N2 H2 1_555 1_555
N3 La1 1_555 1_555
N4 H3 1_555 1_555
C1 N1 1_555 1_555
H4 C1 1_555 1_555
C2 N1 1_555 1_555
C3 N2 1_555 1_555
C4 O15 1_555 1_555
C5 C3 1_555 1_555
C6 N3 1_555 1_555
H5 C6 1_555 1_555
C7 N4 1_555 1_555
C8 N3 1_555 1_555
C9 O19 1_555 1_555
C10 O21 1_555 1_555
O1A Si1 1_555 1_555
O1B Si1 1_555 1_555
W1A O2 1_555 1_555
W2A O1A 1_555 1_555
W3A O13 1_555 1_555
W4A O11 1_555 1_555
La1A O8A 1_555 1_555
O3A W1 1_555 1_555
O4A W1A 1_555 1_555
O5A W1A 1_555 1_555
O6A W2A 1_555 1_555
O7A W2A 1_555 1_555
O8A W4A 1_555 1_555
O9A W3A 1_555 1_555
O10A W2A 1_555 1_555
O11A W2A 1_555 1_555
O12A W3A 1_555 1_555
O13A W3A 1_555 1_555
O14A W2A 1_555 1_555
O15A La1A 1_555 1_555
O16A C4A 1_555 1_555
O17A C5A 1_555 1_555
O18A C5A 1_555 1_555
O19A La1A 1_555 1_555
O20A C9A 1_555 1_555
O21A H1A 1_555 1_555
O22A C10A 1_555 1_555
O23A La1A 1_555 1_555
N1A La1A 1_555 1_555
N2A H2A 1_555 1_555
N3A La1A 1_555 1_555
N4A H3A 1_555 1_555
C1A N1A 1_555 1_555
H4A C1A 1_555 1_555
C2A N1A 1_555 1_555
C3A N2A 1_555 1_555
C4A O15A 1_555 1_555
C5A C3A 1_555 1_555
C6A N3A 1_555 1_555
H5A C6A 1_555 1_555
C7A N4A 1_555 1_555
C8A N3A 1_555 1_555
C9A O19A 1_555 1_555
C10A O21A 1_555 1_555
W1B O2 1_555 1_555
W2B O1B 1_555 1_555
W3B O1B 1_555 1_555
W4B O1B 1_555 1_555
La1B O8B 1_555 1_555
O3B W1A 1_555 1_555
O4B W1B 1_555 1_555
O5B W1B 1_555 1_555
O6B W2B 1_555 1_555
O7B W2B 1_555 1_555
O8B W4B 1_555 1_555
O9B W3B 1_555 1_555
O10B W2B 1_555 1_555
O11B W4 1_555 1_555
O12B W3B 1_555 1_555
O13B W3 1_555 1_555
O14B W1 1_555 1_555
O15B La1B 1_555 1_555
O16B C4B 1_555 1_555
O17B C5B 1_555 1_555
O18B C5B 1_555 1_555
O19B La1B 1_555 1_555
O20B C9B 1_555 1_555
O21B H1B 1_555 1_555
O22B C10B 1_555 1_555
O23B La1B 1_555 1_555
N1B La1B 1_555 1_555
N2B H2B 1_555 1_555
N3B La1B 1_555 1_555
N4B H3B 1_555 1_555
C1B N1B 1_555 1_555
H4B C1B 1_555 1_555
C2B N1B 1_555 1_555
C3B N2B 1_555 1_555
C4B O15B 1_555 1_555
C5B C3B 1_555 1_555
C6B N3B 1_555 1_555
H5B C6B 1_555 1_555
C7B N4B 1_555 1_555
C8B N3B 1_555 1_555
C9B O19B 1_555 1_555
C10B O21B 1_555 1_555
La1O O6B 1_555 1_555
La1P O6 1_555 1_555
La1Q O6A 1_555 1_555
O6O La1A 1_555 1_555
O6P La1B 1_555 1_555
O6Q La1 1_555 1_555
O16O La1A 1_555 1_555
O16P La1B 1_555 1_555
O16Q La1 1_555 1_555
O17O La1A 1_555 1_555
O17P La1B 1_555 1_555
O17Q La1 1_555 1_555
W3 O10 1_555 1_555
W4 O5 1_555 1_555
W4 O7 1_555 1_555
W4 O9 1_555 1_555
O3 W1B 1_555 1_555
O14 W1A 1_555 1_555
O16 La1P 1_555 1_555
O17 La1P 1_555 1_555
N2 C1 1_555 1_555
N4 C6 1_555 1_555
C2 C3 1_555 1_555
C2 C4 1_555 1_555
C7 C8 1_555 1_555
C7 C10 1_555 1_555
C8 C9 1_555 1_555
O1A W3A 1_555 1_555
O1A W4A 1_555 1_555
W1A O3A 1_555 1_555
W3A O10A 1_555 1_555
W4A O5A 1_555 1_555
W4A O7A 1_555 1_555
W4A O9A 1_555 1_555
O11A W4B 1_555 1_555
O13A W3B 1_555 1_555
O14A W1B 1_555 1_555
O16A La1Q 1_555 1_555
O17A La1Q 1_555 1_555
N2A C1A 1_555 1_555
N4A C6A 1_555 1_555
C2A C3A 1_555 1_555
C2A C4A 1_555 1_555
C7A C8A 1_555 1_555
C7A C10A 1_555 1_555
C8A C9A 1_555 1_555
W1B O3B 1_555 1_555
W2B O11B 1_555 1_555
W2B O14B 1_555 1_555
W3B O10B 1_555 1_555
W3B O13B 1_555 1_555
W4B O5B 1_555 1_555
W4B O7B 1_555 1_555
W4B O9B 1_555 1_555
O16B La1O 1_555 1_555
O17B La1O 1_555 1_555
N2B C1B 1_555 1_555
N4B C6B 1_555 1_555
C2B C3B 1_555 1_555
C2B C4B 1_555 1_555
C7B C8B 1_555 1_555
C7B C10B 1_555 1_555
C8B C9B 1_555 1_555

#END
