
#######################################################################
#
#                 Cambridge Crystallographic Data Centre
#                                CCDC 
#
#######################################################################
#
# If this CIF has been generated from an entry in the Cambridge 
# Structural Database, then it will include bibliographic, chemical, 
# crystal, experimental, refinement or atomic coordinate data resulting 
# from the CCDC's data processing and validation procedures.
#
#######################################################################

data_BIXXIR
_symmetry_cell_setting           monoclinic
_symmetry_space_group_name_H-M   'P 21/c'
_symmetry_Int_Tables_number      14
_space_group_name_Hall           '-P 2ybc'
loop_
_symmetry_equiv_pos_site_id
_symmetry_equiv_pos_as_xyz
1 x,y,z
2 -x,1/2+y,1/2-z
3 -x,-y,-z
4 x,1/2-y,1/2+z
_cell_length_a                   13.685(5)
_cell_length_b                   13.144(4)
_cell_length_c                   22.649(7)
_cell_angle_alpha                90
_cell_angle_beta                 100.551(5)
_cell_angle_gamma                90
_cell_volume                     4005.12
loop_
_atom_site_label
_atom_site_type_symbol
_atom_site_fract_x
_atom_site_fract_y
_atom_site_fract_z
O35 O 0.796(8) 0.206(7) 0.445(4)
O36 O 1.096(3) 0.340(3) 0.3239(16)
O37 O 0.787(4) 0.689(4) 0.104(2)
O38 O 0.912(3) 0.588(3) 0.4008(18)
O39 O -0.074(6) 0.386(6) 0.068(3)
O40 O 0.485(2) -0.054(2) 0.4353(13)
O41 O 0.377(6) 0.000(6) 0.476(4)
Si1 Si 0.5000 0.5000 0.5000
W1 W 0.23809(11) 0.48897(11) 0.47599(7)
W2 W 0.35508(10) 0.68963(9) 0.41363(6)
W3 W 0.36624(11) 0.44240(10) 0.35741(6)
W4 W 0.50929(10) 0.25307(9) 0.44144(6)
W5 W 0.38202(9) 0.30063(8) 0.56149(6)
W6 W 0.37210(10) 0.54721(10) 0.62070(6)
La1 La 0.27569(12) 0.40167(11) 0.17655(8)
La2 La 0.78086(11) 0.40149(11) 0.22202(8)
O1 O 0.403(3) 0.527(3) 0.4564(17)
O2 O 0.502(3) 0.615(3) 0.4841(17)
O3 O 0.507(3) 0.427(2) 0.4403(16)
O4 O 0.597(3) 0.533(3) 0.4727(18)
O5 O 0.132(2) 0.4813(15) 0.4693(12)
O6 O 0.258(2) 0.433(2) 0.3993(12)
O7 O 0.270(2) 0.358(2) 0.5137(13)
O8 O 0.269(3) 0.539(3) 0.5563(18)
O9 O 0.256(2) 0.625(2) 0.4425(14)
O10 O 0.2932(16) 0.7804(17) 0.3726(10)
O11 O 0.483(2) 0.7223(19) 0.3977(12)
O12 O 0.3562(18) 0.5791(18) 0.3563(11)
O13 O 0.402(3) 0.312(3) 0.3913(19)
O14 O 0.5164(17) 0.1342(15) 0.4146(11)
O15 O 0.608(2) 0.245(3) 0.5111(13)
O16 O 0.412(2) 0.236(2) 0.4921(12)
O17 O 0.333(2) 0.205(2) 0.5916(12)
O18 O 0.368(2) 0.403(2) 0.6201(12)
O19 O 0.3128(18) 0.5645(16) 0.6776(10)
O20 O 0.509(2) 0.539(2) 0.6593(13)
O21 O 0.397(2) 0.683(2) 0.5959(14)
O22 O 0.3033(15) 0.4129(15) 0.2897(9)
O23 O 0.127(3) 0.338(3) 0.0876(18)
O24 O 0.277(3) 0.515(3) 0.0840(16)
O25 O 0.4477(14) 0.4772(13) 0.1883(9)
O26 O 0.6088(15) 0.4527(14) 0.1929(9)
O27 O 0.7904(17) 0.7332(17) 0.2903(10)
O28 O 0.7828(14) 0.5810(14) 0.2505(9)
O29 O 0.768(2) 0.489(2) 0.1191(12)
O30 O 0.9038(18) 0.4038(19) 0.3249(11)
O31 O 0.7224(15) 0.2414(14) 0.2643(9)
O32 O 0.7397(14) 0.0830(13) 0.2969(9)
O33 O 1.0538(15) -0.0454(15) 0.2974(9)
O34 O 0.8936(14) -0.0661(14) 0.3064(9)
N1 N 0.4697(17) 0.6625(16) 0.2349(10)
H1 H 0.4091 0.6435 0.2234
N2 N 0.5947(17) 0.7626(17) 0.2739(10)
N3 N 0.8915(17) 0.2392(17) 0.2238(10)
N4 N 1.015(2) 0.1318(19) 0.2344(12)
H2 H 1.0701 0.1043 0.2296
C1 C 0.498(2) 0.748(2) 0.2600(14)
H3 H 0.4534 0.7974 0.2677
C2 C 0.5523(17) 0.6071(17) 0.2298(11)
C3 C 0.6312(18) 0.6706(18) 0.2541(11)
C4 C 0.736(2) 0.662(2) 0.2660(14)
C5 C 0.5336(19) 0.5037(18) 0.2003(12)
C6 C 0.988(2) 0.221(2) 0.2151(15)
H4 H 1.0265 0.2662 0.1979
C7 C 0.866(2) 0.155(2) 0.2516(13)
C8 C 0.949(2) 0.0855(19) 0.2628(15)
C9 C 0.966(2) -0.016(2) 0.2876(17)
C10 C 0.774(2) 0.158(2) 0.2721(13)
O1B O 0.597(3) 0.473(3) 0.5436(17)
O2B O 0.498(3) 0.385(3) 0.5159(17)
O3B O 0.493(3) 0.573(2) 0.5597(16)
O4B O 0.403(3) 0.467(3) 0.5273(18)
W1B W 0.76191(11) 0.51103(11) 0.52401(7)
W2B W 0.64492(10) 0.31037(9) 0.58637(6)
W3B W 0.63376(11) 0.55760(10) 0.64259(6)
W4B W 0.49071(10) 0.74693(9) 0.55856(6)
W5B W 0.61798(9) 0.69937(8) 0.43851(6)
W6B W 0.62790(10) 0.45279(10) 0.37930(6)
La1B La 0.72431(12) 0.59833(11) 0.82345(8)
La2B La 0.21914(11) 0.59851(11) 0.77798(8)
O5B O 0.868(2) 0.5187(15) 0.5307(12)
O6B O 0.742(2) 0.567(2) 0.6007(12)
O7B O 0.730(2) 0.642(2) 0.4863(13)
O8B O 0.731(3) 0.461(3) 0.4437(18)
O9B O 0.744(2) 0.375(2) 0.5575(14)
O10B O 0.7068(16) 0.2196(17) 0.6274(10)
O11B O 0.517(2) 0.2777(19) 0.6023(12)
O12B O 0.6438(18) 0.4209(18) 0.6437(11)
O13B O 0.598(3) 0.688(3) 0.6087(19)
O14B O 0.4836(17) 0.8658(15) 0.5854(11)
O15B O 0.392(2) 0.755(3) 0.4889(13)
O16B O 0.588(2) 0.764(2) 0.5079(12)
O17B O 0.667(2) 0.795(2) 0.4084(12)
O18B O 0.632(2) 0.597(2) 0.3799(12)
O19B O 0.6872(18) 0.4355(16) 0.3224(10)
O20B O 0.491(2) 0.461(2) 0.3407(13)
O21B O 0.603(2) 0.317(2) 0.4041(14)
O22B O 0.6967(15) 0.5871(15) 0.7103(9)
O23B O 0.873(3) 0.662(3) 0.9124(18)
O24B O 0.723(3) 0.485(3) 0.9160(16)
O25B O 0.5523(14) 0.5228(13) 0.8117(9)
O26B O 0.3912(15) 0.5473(14) 0.8071(9)
O27B O 0.2096(17) 0.2668(17) 0.7097(10)
O28B O 0.2172(14) 0.4190(14) 0.7495(9)
O29B O 0.232(2) 0.511(2) 0.8809(12)
O30B O 0.0962(18) 0.5962(19) 0.6751(11)
O31B O 0.2776(15) 0.7586(14) 0.7357(9)
O32B O 0.2603(14) 0.9170(13) 0.7031(9)
O33B O -0.0538(15) 1.0454(15) 0.7026(9)
O34B O 0.1064(14) 1.0661(14) 0.6936(9)
N1B N 0.5303(17) 0.3375(16) 0.7651(10)
H1B H 0.5909 0.3565 0.7766
N2B N 0.4053(17) 0.2374(17) 0.7261(10)
N3B N 0.1085(17) 0.7608(17) 0.7762(10)
N4B N -0.015(2) 0.8682(19) 0.7656(12)
H2B H -0.0701 0.8957 0.7704
C1B C 0.502(2) 0.252(2) 0.7400(14)
H3B H 0.5466 0.2026 0.7323
C2B C 0.4477(17) 0.3929(17) 0.7702(11)
C3B C 0.3688(18) 0.3294(18) 0.7459(11)
C4B C 0.264(2) 0.338(2) 0.7340(14)
C5B C 0.4664(19) 0.4963(18) 0.7997(12)
C6B C 0.012(2) 0.779(2) 0.7849(15)
H4B H -0.0265 0.7338 0.8021
C7B C 0.134(2) 0.845(2) 0.7484(13)
C8B C 0.051(2) 0.9145(19) 0.7372(15)
C9B C 0.034(2) 1.016(2) 0.7124(17)
C10B C 0.226(2) 0.842(2) 0.7279(13)
La1A La 0.72431(12) -0.09833(11) 0.32345(8)
La1A_2 La 0.72431(12) 0.90167(11) 0.32345(8)
La1C La 0.27569(12) 0.09833(11) 0.67655(8)
La1C_2 La 0.27569(12) 1.09833(11) 0.67655(8)
La2A La 0.21914(11) 0.90149(11) 0.27798(8)
La2A_2 La 1.21914(11) -0.09851(11) 0.27798(8)
La2C La -0.21914(11) 1.09851(11) 0.72202(8)
La2C_2 La 0.78086(11) 0.09851(11) 0.72202(8)
O10A O 0.7068(16) 0.2804(17) 0.1274(10)
O10C O 0.2932(16) 0.7196(17) 0.8726(10)
O17A O 0.667(2) 0.705(2) 0.9084(12)
O17C O 0.333(2) 0.295(2) 0.0916(12)
O27A O 0.2096(17) 0.2332(17) 0.2097(10)
O27C O 0.7904(17) 0.7668(17) 0.7903(10)
O32A O 0.2603(14) 0.5830(13) 0.2031(9)
O32C O 0.7397(14) 0.4170(13) 0.7969(9)
O33A O 0.9462(15) 0.4546(15) 0.2026(9)
O33C O 0.0538(15) 0.5454(15) 0.7974(9)
O34A O 0.1064(14) 0.4339(14) 0.1936(9)
O34C O 0.8936(14) 0.5661(14) 0.8064(9)
N2A N 0.4053(17) 0.2626(17) 0.2261(10)
N2C N 0.5947(17) 0.7374(17) 0.7739(10)
loop_
_geom_bond_atom_site_label_1
_geom_bond_atom_site_label_2
_geom_bond_site_symmetry_1
_geom_bond_site_symmetry_2
Si1 O1 1_555 1_555
W1 O1 1_555 1_555
W2 O1 1_555 1_555
W3 O1 1_555 1_555
W4 O3 1_555 1_555
W5 O7 1_555 1_555
W6 O8 1_555 1_555
La1 O22 1_555 1_555
La2 O26 1_555 1_555
O1 O2 1_555 1_555
O2 Si1 1_555 1_555
O3 Si1 1_555 1_555
O4 Si1 1_555 1_555
O5 W1 1_555 1_555
O6 W1 1_555 1_555
O7 W1 1_555 1_555
O8 W1 1_555 1_555
O9 W1 1_555 1_555
O10 W2 1_555 1_555
O11 W2 1_555 1_555
O12 W2 1_555 1_555
O13 W3 1_555 1_555
O14 W4 1_555 1_555
O15 W4 1_555 1_555
O16 W4 1_555 1_555
O17 W5 1_555 1_555
O18 W5 1_555 1_555
O19 W6 1_555 1_555
O20 W6 1_555 1_555
O21 W6 1_555 1_555
O22 W3 1_555 1_555
O23 La1 1_555 1_555
O24 La1 1_555 1_555
O25 La1 1_555 1_555
O26 C5 1_555 1_555
O27 C4 1_555 1_555
O28 La2 1_555 1_555
O29 La2 1_555 1_555
O30 La2 1_555 1_555
O31 La2 1_555 1_555
O32 C10 1_555 1_555
O33 C9 1_555 1_555
O34 C9 1_555 1_555
N1 H1 1_555 1_555
N2 C1 1_555 1_555
N3 La2 1_555 1_555
N4 H2 1_555 1_555
C1 N1 1_555 1_555
H3 C1 1_555 1_555
C2 N1 1_555 1_555
C3 N2 1_555 1_555
C4 O28 1_555 1_555
C5 O25 1_555 1_555
C6 N3 1_555 1_555
H4 C6 1_555 1_555
C7 N3 1_555 1_555
C8 N4 1_555 1_555
C9 C8 1_555 1_555
C10 O31 1_555 1_555
O1B Si1 1_555 1_555
O2B Si1 1_555 1_555
O3B Si1 1_555 1_555
O4B Si1 1_555 1_555
W1B O4 1_555 1_555
W2B O15 1_555 1_555
W3B O20 1_555 1_555
W4B O2 1_555 1_555
W5B O2 1_555 1_555
W6B O3 1_555 1_555
La1B O22B 1_555 1_555
La2B O19 1_555 1_555
O5B W1B 1_555 1_555
O6B W1B 1_555 1_555
O7B W1B 1_555 1_555
O8B W1B 1_555 1_555
O9B W1B 1_555 1_555
O10B W2B 1_555 1_555
O11B W5 1_555 1_555
O12B W2B 1_555 1_555
O13B W3B 1_555 1_555
O14B W4B 1_555 1_555
O15B W2 1_555 1_555
O16B W4B 1_555 1_555
O17B W5B 1_555 1_555
O18B W5B 1_555 1_555
O19B La2 1_555 1_555
O20B W3 1_555 1_555
O21B W4 1_555 1_555
O22B W3B 1_555 1_555
O23B La1B 1_555 1_555
O24B La1B 1_555 1_555
O25B La1B 1_555 1_555
O26B La2B 1_555 1_555
O27B C4B 1_555 1_555
O28B La2B 1_555 1_555
O29B La2B 1_555 1_555
O30B La2B 1_555 1_555
O31B La2B 1_555 1_555
O32B C10B 1_555 1_555
O33B C9B 1_555 1_555
O34B C9B 1_555 1_555
N1B H1B 1_555 1_555
N2B C1B 1_555 1_555
N3B La2B 1_555 1_555
N4B H2B 1_555 1_555
C1B N1B 1_555 1_555
H3B C1B 1_555 1_555
C2B N1B 1_555 1_555
C3B N2B 1_555 1_555
C4B O28B 1_555 1_555
C5B O25B 1_555 1_555
C6B N3B 1_555 1_555
H4B C6B 1_555 1_555
C7B N3B 1_555 1_555
C8B N4B 1_555 1_555
C9B C8B 1_555 1_555
C10B O31B 1_555 1_555
La1A O32 1_555 1_555
La1A_2 O27 1_555 1_555
La1C O17 1_555 1_555
La1C_2 O32B 1_555 1_555
La2A O10 1_555 1_555
La2A_2 O33 1_555 1_555
La2C O33B 1_555 1_555
La2C_2 O10B 1_555 1_555
O10A La2 1_555 1_555
O10C La2B 1_555 1_555
O17A La1B 1_555 1_555
O17C La1 1_555 1_555
O27A La1 1_555 1_555
O27C La1B 1_555 1_555
O32A La1 1_555 1_555
O32C La1B 1_555 1_555
O33A La2 1_555 1_555
O33C La2B 1_555 1_555
O34A La1 1_555 1_555
O34C La1B 1_555 1_555
N2A La1 1_555 1_555
N2C La1B 1_555 1_555
W1 O4B 1_555 1_555
W2 O9 1_555 1_555
W3 O3 1_555 1_555
W3 O6 1_555 1_555
W3 O12 1_555 1_555
W4 O13 1_555 1_555
W4 O2B 1_555 1_555
W5 O16 1_555 1_555
W5 O2B 1_555 1_555
W5 O4B 1_555 1_555
W6 O18 1_555 1_555
W6 O3B 1_555 1_555
W6 O4B 1_555 1_555
O1 O4B 1_555 1_555
O2 O4 1_555 1_555
O4 O1B 1_555 1_555
O4 W5B 1_555 1_555
O4 W6B 1_555 1_555
O11 W5B 1_555 1_555
O21 W4B 1_555 1_555
O34 La1A 1_555 1_555
N2 La1A_2 1_555 1_555
N4 C6 1_555 1_555
C2 C3 1_555 1_555
C2 C5 1_555 1_555
C3 C4 1_555 1_555
C7 C8 1_555 1_555
C7 C10 1_555 1_555
O1B O2B 1_555 1_555
O1B W1B 1_555 1_555
O1B W2B 1_555 1_555
O1B W3B 1_555 1_555
O2B O4B 1_555 1_555
O3B W3B 1_555 1_555
O3B W4B 1_555 1_555
W2B O9B 1_555 1_555
W2B O11B 1_555 1_555
W3B O6B 1_555 1_555
W3B O12B 1_555 1_555
W4B O13B 1_555 1_555
W4B O15B 1_555 1_555
W5B O7B 1_555 1_555
W5B O16B 1_555 1_555
W6B O8B 1_555 1_555
W6B O18B 1_555 1_555
W6B O19B 1_555 1_555
W6B O20B 1_555 1_555
W6B O21B 1_555 1_555
O17B La1A_2 1_555 1_555
O26B C5B 1_555 1_555
O27B La1C 1_555 1_555
O34B La1C_2 1_555 1_555
N2B La1C 1_555 1_555
N4B C6B 1_555 1_555
C2B C3B 1_555 1_555
C2B C5B 1_555 1_555
C3B C4B 1_555 1_555
C7B C8B 1_555 1_555
C7B C10B 1_555 1_555

#END
