
#######################################################################
#
#                 Cambridge Crystallographic Data Centre
#                                CCDC 
#
#######################################################################
#
# If this CIF has been generated from an entry in the Cambridge 
# Structural Database, then it will include bibliographic, chemical, 
# crystal, experimental, refinement or atomic coordinate data resulting 
# from the CCDC's data processing and validation procedures.
#
#######################################################################

data_BIXYUE
_symmetry_cell_setting           monoclinic
_symmetry_space_group_name_H-M   'P 21/c'
_symmetry_Int_Tables_number      14
_space_group_name_Hall           '-P 2ybc'
loop_
_symmetry_equiv_pos_site_id
_symmetry_equiv_pos_as_xyz
1 x,y,z
2 -x,1/2+y,1/2-z
3 -x,-y,-z
4 x,1/2-y,1/2+z
_cell_length_a                   27.8832(18)
_cell_length_b                   15.6042(10)
_cell_length_c                   16.1085(11)
_cell_angle_alpha                90
_cell_angle_beta                 98.205(3)
_cell_angle_gamma                90
_cell_volume                     6936.99
loop_
_atom_site_label
_atom_site_type_symbol
_atom_site_fract_x
_atom_site_fract_y
_atom_site_fract_z
C1 C 0.4347(4) 0.6259(7) 0.3258(7)
H1 H 0.4272 0.5819 0.2852
C2 C 0.4777(4) 0.6223(8) 0.3800(7)
H2 H 0.4996 0.5761 0.3772
C3 C 0.4885(4) 0.6865(6) 0.4382(6)
C4 C 0.4574(4) 0.7546(7) 0.4427(7)
H3 H 0.4653 0.7989 0.4827
C5 C 0.4150(4) 0.7571(7) 0.3882(7)
H4 H 0.3936 0.8042 0.3906
C6 C 0.4023(3) 0.6927(6) 0.3295(6)
C7 C 0.3538(3) 0.6979(6) 0.2760(6)
C8 C 0.3341(4) 0.6264(6) 0.2314(6)
H5 H 0.3521 0.5745 0.2378
C9 C 0.2903(3) 0.6255(6) 0.1786(6)
C10 C 0.2712(3) 0.5412(5) 0.1435(6)
C11 C 0.2232(4) 0.5358(6) 0.1067(7)
H6 H 0.2046 0.5868 0.0967
C12 C 0.2019(4) 0.4582(6) 0.0845(7)
H7 H 0.1689 0.4552 0.0599
C13 C 0.2294(4) 0.3842(6) 0.0985(7)
C14 C 0.2780(4) 0.3875(6) 0.1292(7)
H8 H 0.2968 0.3365 0.1356
C15 C 0.2989(4) 0.4658(6) 0.1504(8)
H9 H 0.3327 0.4689 0.1699
C16 C 0.3227(4) 1.1277(6) 0.1097(6)
H10 H 0.2989 1.1274 0.0612
C17 C 0.3559(4) 1.1945(6) 0.1214(6)
H11 H 0.3558 1.2381 0.0801
C18 C 0.3888(4) 1.1967(6) 0.1932(6)
C19 C 0.3899(4) 1.1321(6) 0.2527(6)
H12 H 0.4128 1.1341 0.3023
C20 C 0.3576(3) 1.0656(6) 0.2394(6)
H13 H 0.3584 1.0214 0.2801
C21 C 0.3237(3) 1.0621(6) 0.1669(6)
C22 C 0.2875(3) 0.9900(6) 0.1576(6)
C23 C 0.2452(3) 0.9964(6) 0.0998(6)
H14 H 0.2385 1.0497 0.0720
C24 C 0.2126(3) 0.9305(6) 0.0804(6)
C25 C 0.1661(3) 0.9453(6) 0.0236(6)
C26 C 0.1382(4) 0.8755(6) -0.0077(7)
H15 H 0.1502 0.8191 0.0039
C27 C 0.0938(4) 0.8865(7) -0.0550(8)
H16 H 0.0757 0.8381 -0.0775
C28 C 0.0754(4) 0.9677(6) -0.0698(7)
C29 C 0.1027(4) 1.0380(7) -0.0439(8)
H17 H 0.0907 1.0941 -0.0575
C30 C 0.1477(4) 1.0264(6) 0.0023(8)
H18 H 0.1668 1.0753 0.0201
C31 C 0.1851(4) 1.1464(6) 0.3509(6)
H19 H 0.2084 1.1471 0.4001
C32 C 0.1534(4) 1.2137(7) 0.3346(7)
H20 H 0.1547 1.2604 0.3727
C33 C 0.1198(4) 1.2137(6) 0.2637(6)
C34 C 0.1177(4) 1.1453(7) 0.2077(6)
H21 H 0.0945 1.1449 0.1584
C35 C 0.1496(4) 1.0785(6) 0.2245(6)
H22 H 0.1484 1.0322 0.1860
C36 C 0.1834(4) 1.0770(6) 0.2960(6)
C37 C 0.2180(3) 1.0037(6) 0.3130(6)
C38 C 0.2602(3) 1.0121(6) 0.3721(6)
H23 H 0.2691 1.0674 0.3936
C39 C 0.2891(3) 0.9430(6) 0.3999(6)
C40 C 0.3351(3) 0.9589(6) 0.4596(6)
C41 C 0.3566(4) 0.8923(6) 0.5085(6)
H24 H 0.3411 0.8379 0.5058
C42 C 0.3997(4) 0.9027(6) 0.5608(6)
H25 H 0.4129 0.8575 0.5964
C43 C 0.4235(4) 0.9811(6) 0.5606(6)
C44 C 0.4031(4) 1.0484(6) 0.5128(7)
H26 H 0.4193 1.1020 0.5139
C45 C 0.3592(4) 1.0374(6) 0.4634(6)
H27 H 0.3449 1.0841 0.4311
C46 C 0.2104(4) 0.4660(6) 0.3088(7)
H28 H 0.1783 0.4693 0.2796
C47 C 0.2332(4) 0.3875(6) 0.3213(7)
H29 H 0.2168 0.3366 0.3011
C48 C 0.2798(4) 0.3834(6) 0.3631(7)
C49 C 0.3039(4) 0.4562(6) 0.3946(7)
H30 H 0.3359 0.4527 0.4241
C50 C 0.2807(3) 0.5342(6) 0.3826(6)
H31 H 0.2969 0.5846 0.4046
C51 C 0.2345(3) 0.5404(5) 0.3391(6)
C52 C 0.2131(3) 0.6271(6) 0.3155(6)
C53 C 0.1658(3) 0.6328(6) 0.2741(7)
H32 H 0.1458 0.5833 0.2722
C54 C 0.1465(3) 0.7066(6) 0.2359(7)
C55 C 0.0953(3) 0.7059(6) 0.1913(7)
C56 C 0.0798(4) 0.7734(7) 0.1383(8)
H33 H 0.1010 0.8203 0.1339
C57 C 0.0347(4) 0.7743(7) 0.0921(8)
H34 H 0.0247 0.8214 0.0564
C58 C 0.0038(4) 0.7062(7) 0.0979(7)
C59 C 0.0172(4) 0.6398(8) 0.1508(8)
H35 H -0.0043 0.5933 0.1547
C60 C 0.0624(4) 0.6405(8) 0.1988(8)
H36 H 0.0712 0.5954 0.2376
C61 C 0.1405(5) 0.6410(7) -0.0908(8)
H37 H 0.1554 0.6479 -0.1399
C62 C 0.0743(7) 0.5828(15) -0.0261(12)
H38 H 0.0645 0.5225 -0.0273
H39 H 0.0456 0.6194 -0.0280
H40 H 0.0964 0.5943 0.0257
C63 C 0.0769(6) 0.5692(13) -0.1792(10)
H41 H 0.0445 0.5938 -0.1935
H42 H 0.0745 0.5066 -0.1769
H43 H 0.0970 0.5855 -0.2219
C64 C 0.3626(4) 0.8280(7) 0.0879(7)
H44 H 0.3573 0.7901 0.1317
C65 C 0.4094(5) 0.9442(8) 0.0417(9)
H45 H 0.3925 0.9273 -0.0134
H46 H 0.4444 0.9466 0.0398
H47 H 0.3980 1.0007 0.0567
C66 C 0.4286(5) 0.8844(10) 0.1840(9)
H48 H 0.4318 0.9435 0.2046
H49 H 0.4608 0.8609 0.1800
H50 H 0.4128 0.8495 0.2228
N1 N 0.0988(4) 0.6012(8) -0.0984(7)
N2 N 0.3999(3) 0.8833(6) 0.1026(6)
O1 O 0.2802(3) 0.8652(4) 0.3808(4)
O2 O 0.2059(3) 0.9368(4) 0.2720(4)
O3 O 0.2414(3) 0.6916(4) 0.3332(4)
O4 O 0.1695(3) 0.7756(5) 0.2315(5)
O5 O 0.2193(3) 0.8547(5) 0.1087(4)
O6 O 0.2986(3) 0.9252(5) 0.2038(4)
O7 O 0.2642(3) 0.6910(4) 0.1594(4)
O8 O 0.3329(3) 0.7693(4) 0.2746(5)
O9 O 0.1620(3) 0.6702(5) -0.0245(6)
O10 O 0.3351(3) 0.8234(5) 0.0218(5)
K1 K 0.24858(8) 0.74561(14) -0.00593(13)
I1 I 0.55170(3) 0.68198(6) 0.52617(5)
I2 I 0.19721(3) 0.26276(5) 0.08091(5)
I3 I 0.43576(3) 1.30145(5) 0.21197(5)
I4 I 0.00439(3) 0.98341(6) -0.13229(5)
I5 I 0.07254(3) 1.31780(6) 0.23975(6)
I6 I 0.49234(3) 0.99325(5) 0.63242(5)
I7 I 0.31547(3) 0.26523(5) 0.36813(6)
I8 I -0.06336(3) 0.70248(6) 0.02124(6)
Tb1 Tb 0.251678(17) 0.81206(3) 0.24524(3)
O1C O 0.2802(3) 0.6348(4) -0.1192(4)
O3C O 0.2414(3) 0.8084(4) -0.1668(4)
K1C K 0.24858(8) 0.75439(14) 0.49407(13)
loop_
_geom_bond_atom_site_label_1
_geom_bond_atom_site_label_2
_geom_bond_site_symmetry_1
_geom_bond_site_symmetry_2
C1 H1 1_555 1_555
C2 C1 1_555 1_555
H2 C2 1_555 1_555
C3 C2 1_555 1_555
C4 C3 1_555 1_555
H3 C4 1_555 1_555
C5 C4 1_555 1_555
H4 C5 1_555 1_555
C6 C1 1_555 1_555
C7 C6 1_555 1_555
C8 C7 1_555 1_555
H5 C8 1_555 1_555
C9 C8 1_555 1_555
C10 C9 1_555 1_555
C11 C10 1_555 1_555
H6 C11 1_555 1_555
C12 C11 1_555 1_555
H7 C12 1_555 1_555
C13 C12 1_555 1_555
C14 C13 1_555 1_555
H8 C14 1_555 1_555
C15 C10 1_555 1_555
H9 C15 1_555 1_555
C16 H10 1_555 1_555
C17 C16 1_555 1_555
H11 C17 1_555 1_555
C18 C17 1_555 1_555
C19 C18 1_555 1_555
H12 C19 1_555 1_555
C20 C19 1_555 1_555
H13 C20 1_555 1_555
C21 C16 1_555 1_555
C22 C21 1_555 1_555
C23 C22 1_555 1_555
H14 C23 1_555 1_555
C24 C23 1_555 1_555
C25 C24 1_555 1_555
C26 C25 1_555 1_555
H15 C26 1_555 1_555
C27 C26 1_555 1_555
H16 C27 1_555 1_555
C28 C27 1_555 1_555
C29 C28 1_555 1_555
H17 C29 1_555 1_555
C30 C25 1_555 1_555
H18 C30 1_555 1_555
C31 H19 1_555 1_555
C32 C31 1_555 1_555
H20 C32 1_555 1_555
C33 C32 1_555 1_555
C34 C33 1_555 1_555
H21 C34 1_555 1_555
C35 C34 1_555 1_555
H22 C35 1_555 1_555
C36 C31 1_555 1_555
C37 C36 1_555 1_555
C38 C37 1_555 1_555
H23 C38 1_555 1_555
C39 C38 1_555 1_555
C40 C39 1_555 1_555
C41 C40 1_555 1_555
H24 C41 1_555 1_555
C42 C41 1_555 1_555
H25 C42 1_555 1_555
C43 C42 1_555 1_555
C44 C43 1_555 1_555
H26 C44 1_555 1_555
C45 C40 1_555 1_555
H27 C45 1_555 1_555
C46 H28 1_555 1_555
C47 C46 1_555 1_555
H29 C47 1_555 1_555
C48 C47 1_555 1_555
C49 C48 1_555 1_555
H30 C49 1_555 1_555
C50 C49 1_555 1_555
H31 C50 1_555 1_555
C51 C46 1_555 1_555
C52 C51 1_555 1_555
C53 C52 1_555 1_555
H32 C53 1_555 1_555
C54 C53 1_555 1_555
C55 C54 1_555 1_555
C56 C55 1_555 1_555
H33 C56 1_555 1_555
C57 C56 1_555 1_555
H34 C57 1_555 1_555
C58 C57 1_555 1_555
C59 C58 1_555 1_555
H35 C59 1_555 1_555
C60 C55 1_555 1_555
H36 C60 1_555 1_555
C61 H37 1_555 1_555
C62 H38 1_555 1_555
H39 C62 1_555 1_555
H40 C62 1_555 1_555
C63 H41 1_555 1_555
H42 C63 1_555 1_555
H43 C63 1_555 1_555
C64 H44 1_555 1_555
C65 H45 1_555 1_555
H46 C65 1_555 1_555
H47 C65 1_555 1_555
C66 H48 1_555 1_555
H49 C66 1_555 1_555
H50 C66 1_555 1_555
N1 C61 1_555 1_555
N2 C64 1_555 1_555
O1 C39 1_555 1_555
O2 C37 1_555 1_555
O3 C52 1_555 1_555
O4 C54 1_555 1_555
O5 C24 1_555 1_555
O6 C22 1_555 1_555
O7 C9 1_555 1_555
O8 C7 1_555 1_555
O9 C61 1_555 1_555
O10 C64 1_555 1_555
K1 O5 1_555 1_555
I1 C3 1_555 1_555
I2 C13 1_555 1_555
I3 C18 1_555 1_555
I4 C28 1_555 1_555
I5 C33 1_555 1_555
I6 C43 1_555 1_555
I7 C48 1_555 1_555
I8 C58 1_555 1_555
Tb1 O1 1_555 1_555
O1C K1 1_555 1_555
O3C K1 1_555 1_555
K1C O1 1_555 1_555
C5 C6 1_555 1_555
C14 C15 1_555 1_555
C20 C21 1_555 1_555
C29 C30 1_555 1_555
C35 C36 1_555 1_555
C44 C45 1_555 1_555
C50 C51 1_555 1_555
C59 C60 1_555 1_555
C62 N1 1_555 1_555
C63 N1 1_555 1_555
C65 N2 1_555 1_555
C66 N2 1_555 1_555
O2 Tb1 1_555 1_555
O3 Tb1 1_555 1_555
O3 K1C 1_555 1_555
O4 Tb1 1_555 1_555
O5 Tb1 1_555 1_555
O6 Tb1 1_555 1_555
O7 K1 1_555 1_555
O7 Tb1 1_555 1_555
O8 Tb1 1_555 1_555
O9 K1 1_555 1_555
O10 K1 1_555 1_555

#END
