
#######################################################################
#
#                 Cambridge Crystallographic Data Centre
#                                CCDC 
#
#######################################################################
#
# If this CIF has been generated from an entry in the Cambridge 
# Structural Database, then it will include bibliographic, chemical, 
# crystal, experimental, refinement or atomic coordinate data resulting 
# from the CCDC's data processing and validation procedures.
#
#######################################################################

data_BIXYAK
_symmetry_cell_setting           rhombohedral
_symmetry_space_group_name_H-M   'R -3'
_symmetry_Int_Tables_number      148
_space_group_name_Hall           '-R 3'
loop_
_symmetry_equiv_pos_site_id
_symmetry_equiv_pos_as_xyz
1 x,y,z
2 -y,x-y,z
3 -x+y,-x,z
4 2/3+x,1/3+y,1/3+z
5 2/3-y,1/3+x-y,1/3+z
6 2/3-x+y,1/3-x,1/3+z
7 1/3+x,2/3+y,2/3+z
8 1/3-y,2/3+x-y,2/3+z
9 1/3-x+y,2/3-x,2/3+z
10 -x,-y,-z
11 y,-x+y,-z
12 x-y,x,-z
13 1/3-x,2/3-y,2/3-z
14 1/3+y,2/3-x+y,2/3-z
15 1/3+x-y,2/3+x,2/3-z
16 2/3-x,1/3-y,1/3-z
17 2/3+y,1/3-x+y,1/3-z
18 2/3+x-y,1/3+x,1/3-z
_cell_length_a                   22.1520(4)
_cell_length_b                   22.1520(4)
_cell_length_c                   28.2012(12)
_cell_angle_alpha                90
_cell_angle_beta                 90
_cell_angle_gamma                120
_cell_volume                     11984.6
loop_
_atom_site_label
_atom_site_type_symbol
_atom_site_fract_x
_atom_site_fract_y
_atom_site_fract_z
Si1 Si 0.6667 0.3333 0.15046(11)
W1 W 0.714373(13) 0.434301(12) 0.255217(8)
W2 W 0.511856(12) 0.339814(12) 0.149015(8)
W3 W 0.608834(13) 0.386433(13) 0.049846(9)
W4 W 0.663034(13) 0.490219(12) 0.146193(9)
Ce1 Ce 0.642807(18) 0.660812(18) 0.192614(13)
O1 O 0.6266(2) 0.3738(2) 0.13090(15)
O2 O 0.6667 0.3333 0.2082(3)
O3 O 0.7473(2) 0.3753(2) 0.28111(15)
O4 O 0.7454(3) 0.4999(2) 0.29561(16)
O5 O 0.6743(2) 0.4672(2) 0.20932(15)
O6 O 0.4291(2) 0.3268(2) 0.15606(17)
O7 O 0.5635(2) 0.4376(2) 0.15739(16)
O8 O 0.6751(2) 0.5730(2) 0.15174(16)
O9 O 0.6424(2) 0.4770(2) 0.07999(16)
O10 O 0.5220(2) 0.3563(2) 0.08148(16)
O11 O 0.4927(2) 0.2468(2) 0.13524(15)
O12 O 0.5908(3) 0.4056(3) -0.00476(16)
O13 O 0.5890(2) 0.2935(2) 0.04352(16)
O14 O 0.5322(2) 0.3234(2) 0.21056(15)
O15 O 0.5328(2) 0.5675(2) 0.15600(18)
O16 O 0.4332(3) 0.4666(2) 0.15366(18)
O17 O 0.3574(2) 0.3648(3) 0.22557(17)
O18 O 0.3976(3) 0.3283(3) 0.28429(19)
O19 O 0.6782(3) 0.7141(3) 0.27454(18)
O20 O 0.7502(3) 0.7597(3) 0.33546(17)
O21 O 0.8673(3) 0.7807(3) 0.35862(19)
H1 H 0.8284 0.7732 0.3511
O22 O 0.9401(3) 0.7465(3) 0.3361(2)
O23 O 0.5382(3) 0.6567(3) 0.23858(19)
N1 N 0.5731(3) 0.5390(3) 0.23862(19)
N2 N 0.5234(3) 0.4478(3) 0.28487(19)
H2 H 0.5180 0.4197 0.3077
N3 N 0.7498(3) 0.6531(3) 0.2392(2)
N4 N 0.8494(3) 0.6633(3) 0.2626(2)
H3 H 0.8853 0.6579 0.2632
C1 C 0.5806(3) 0.5093(3) 0.2774(2)
H4 H 0.6201 0.5287 0.2966
C2 C 0.5071(3) 0.4933(3) 0.2213(2)
C3 C 0.4751(3) 0.4361(3) 0.2510(2)
C4 C 0.4882(3) 0.5089(3) 0.1744(2)
C5 C 0.4047(3) 0.3713(3) 0.2534(2)
C6 C 0.7969(4) 0.6343(4) 0.2318(3)
H5 H 0.7938 0.6041 0.2078
C7 C 0.8356(4) 0.7035(4) 0.2932(2)
C8 C 0.7739(3) 0.6966(3) 0.2779(2)
C9 C 0.7318(4) 0.7266(4) 0.2970(2)
C10 C 0.8852(4) 0.7458(4) 0.3312(3)
O1A O 0.6262(2) 0.2528(3) 0.13090(15)
O1B O 0.7472(3) 0.3734(2) 0.13090(15)
W1A W 0.565699(12) 0.280072(18) 0.255217(8)
W2A W 0.660186(12) 0.172042(17) 0.149015(8)
W3A W 0.613567(13) 0.222401(18) 0.049846(9)
W4A W 0.509781(12) 0.172815(18) 0.146193(9)
Ce1A Ce 0.339188(18) -0.018005(25) 0.192614(13)
O3A O 0.6247(2) 0.3720(3) 0.28111(15)
O4A O 0.5001(2) 0.2455(4) 0.29561(16)
O5A O 0.5328(2) 0.2071(3) 0.20932(15)
O6A O 0.6732(2) 0.1023(3) 0.15606(17)
O7A O 0.5624(2) 0.1259(3) 0.15739(16)
O8A O 0.4270(2) 0.1021(3) 0.15174(16)
O9A O 0.5230(2) 0.1654(3) 0.07999(16)
O10A O 0.6437(2) 0.1657(3) 0.08148(16)
O11A O 0.7532(2) 0.2459(3) 0.13524(15)
O12A O 0.5944(3) 0.1852(4) -0.00476(16)
O13A O 0.7065(2) 0.2955(3) 0.04352(16)
O14A O 0.6766(2) 0.2088(3) 0.21056(15)
O15A O 0.4325(2) -0.0347(3) 0.15600(18)
O16A O 0.5334(2) -0.0334(4) 0.15366(18)
O17A O 0.6352(3) -0.0074(4) 0.22557(17)
O18A O 0.6717(3) 0.0693(4) 0.28429(19)
O19A O 0.2859(3) -0.0359(4) 0.27454(18)
O20A O 0.2403(3) -0.0095(4) 0.33546(17)
O21A O 0.2193(3) 0.0866(4) 0.35862(19)
H1A H 0.2268 0.0552 0.3511
O22A O 0.2535(3) 0.1936(4) 0.3361(2)
O23A O 0.3433(3) -0.1185(4) 0.23858(19)
N1A N 0.4610(3) 0.0341(4) 0.23862(19)
N2A N 0.5522(3) 0.0756(4) 0.28487(19)
H2A H 0.5803 0.0983 0.3077
N3A N 0.3469(3) 0.0967(4) 0.2392(2)
N4A N 0.3367(3) 0.1861(4) 0.2626(2)
H3A H 0.3421 0.2274 0.2632
C1A C 0.4907(3) 0.0713(4) 0.2774(2)
H4A H 0.4713 0.0914 0.2966
C2A C 0.5067(3) 0.0138(4) 0.2213(2)
C3A C 0.5639(3) 0.0390(4) 0.2510(2)
C4A C 0.4911(3) -0.0207(4) 0.1744(2)
C5A C 0.6287(3) 0.0334(4) 0.2534(2)
C6A C 0.3657(4) 0.1626(6) 0.2318(3)
H5A H 0.3959 0.1897 0.2078
C7A C 0.2965(4) 0.1321(6) 0.2932(2)
C8A C 0.3034(3) 0.0773(4) 0.2779(2)
C9A C 0.2734(4) 0.0052(6) 0.2970(2)
C10A C 0.2542(4) 0.1394(6) 0.3312(3)
W1B W 0.719928(18) 0.285627(13) 0.255217(8)
W2B W 0.827958(17) 0.488144(12) 0.149015(8)
W3B W 0.777599(18) 0.391166(13) 0.049846(9)
W4B W 0.827185(18) 0.336966(13) 0.146193(9)
Ce1B Ce 1.018005(25) 0.357193(18) 0.192614(13)
O3B O 0.6280(3) 0.2527(2) 0.28111(15)
O4B O 0.7545(4) 0.2546(3) 0.29561(16)
O5B O 0.7929(3) 0.3257(2) 0.20932(15)
O6B O 0.8977(3) 0.5709(2) 0.15606(17)
O7B O 0.8741(3) 0.4365(2) 0.15739(16)
O8B O 0.8979(3) 0.3249(2) 0.15174(16)
O9B O 0.8346(3) 0.3576(2) 0.07999(16)
O10B O 0.8343(3) 0.4780(2) 0.08148(16)
O11B O 0.7541(3) 0.5073(2) 0.13524(15)
O12B O 0.8148(4) 0.4092(3) -0.00476(16)
O13B O 0.7045(3) 0.4110(2) 0.04352(16)
O14B O 0.7912(3) 0.4678(2) 0.21056(15)
O15B O 1.0347(3) 0.4672(2) 0.15600(18)
O16B O 1.0334(4) 0.5668(3) 0.15366(18)
O17B O 1.0074(4) 0.6426(2) 0.22557(17)
O18B O 0.9307(4) 0.6024(3) 0.28429(19)
O19B O 1.0359(4) 0.3218(3) 0.27454(18)
O20B O 1.0095(4) 0.2498(3) 0.33546(17)
O21B O 0.9134(4) 0.1327(3) 0.35862(19)
H1B H 0.9448 0.1716 0.3511
O22B O 0.8064(4) 0.0599(3) 0.3361(2)
O23B O 1.1185(4) 0.4618(3) 0.23858(19)
N1B N 0.9659(4) 0.4269(3) 0.23862(19)
N2B N 0.9244(4) 0.4766(3) 0.28487(19)
H2B H 0.9017 0.4820 0.3077
N3B N 0.9033(4) 0.2502(3) 0.2392(2)
N4B N 0.8139(4) 0.1506(3) 0.2626(2)
H3B H 0.7726 0.1147 0.2632
C1B C 0.9287(4) 0.4194(3) 0.2774(2)
H4B H 0.9086 0.3799 0.2966
C2B C 0.9862(4) 0.4929(3) 0.2213(2)
C3B C 0.9610(4) 0.5249(3) 0.2510(2)
C4B C 1.0207(4) 0.5118(3) 0.1744(2)
C5B C 0.9666(4) 0.5953(3) 0.2534(2)
C6B C 0.8374(6) 0.2031(4) 0.2318(3)
H5B H 0.8103 0.2062 0.2078
C7B C 0.8679(6) 0.1644(4) 0.2932(2)
C8B C 0.9227(4) 0.2261(3) 0.2779(2)
C9B C 0.9948(6) 0.2682(4) 0.2970(2)
C10B C 0.8606(6) 0.1148(4) 0.3312(3)
Ce1O Ce 1.023860(18) 0.672521(18) 0.140719(13)
Ce1P Ce 0.327479(18) 0.351338(25) 0.140719(13)
Ce1Q Ce 0.648662(25) -0.023860(18) 0.140719(13)
O6O O 0.2376(2) 0.0065(2) 0.17727(17)
O6P O 0.9935(2) 0.2310(3) 0.17727(17)
O6Q O 0.7690(3) 0.7624(2) 0.17727(17)
O16O O 0.2335(3) -0.1333(2) 0.17967(18)
O16P O 1.1333(2) 0.3667(4) 0.17967(18)
O16Q O 0.6333(4) 0.7665(3) 0.17967(18)
O17O O 0.3093(2) -0.0315(3) 0.10776(17)
O17P O 1.0315(3) 0.3407(4) 0.10776(17)
O17Q O 0.6593(4) 0.6907(2) 0.10776(17)
K1 K 0.24565(11) 0.29378(11) 0.28600(8)
K2 K 0.4450(5) 0.5893(5) 0.0988(3)
O24 O 0.1757(9) 0.3623(9) 0.2922(6)
O25 O 0.4256(16) 0.7155(16) 0.0771(11)
O26 O 0.4034(16) 0.5936(16) 0.2011(11)
loop_
_geom_bond_atom_site_label_1
_geom_bond_atom_site_label_2
_geom_bond_site_symmetry_1
_geom_bond_site_symmetry_2
Si1 O1 1_555 1_555
W1 O2 1_555 1_555
W2 O1 1_555 1_555
W3 O1 1_555 1_555
W4 O1 1_555 1_555
Ce1 O8 1_555 1_555
O2 Si1 1_555 1_555
O3 W1 1_555 1_555
O4 W1 1_555 1_555
O5 W1 1_555 1_555
O6 W2 1_555 1_555
O7 W2 1_555 1_555
O8 W4 1_555 1_555
O9 W3 1_555 1_555
O10 W2 1_555 1_555
O11 W2 1_555 1_555
O12 W3 1_555 1_555
O13 W3 1_555 1_555
O14 W2 1_555 1_555
O15 Ce1 1_555 1_555
O16 C4 1_555 1_555
O17 C5 1_555 1_555
O18 C5 1_555 1_555
O19 Ce1 1_555 1_555
O20 C9 1_555 1_555
O21 H1 1_555 1_555
O22 C10 1_555 1_555
O23 Ce1 1_555 1_555
N1 Ce1 1_555 1_555
N2 H2 1_555 1_555
N3 Ce1 1_555 1_555
N4 H3 1_555 1_555
C1 N1 1_555 1_555
H4 C1 1_555 1_555
C2 N1 1_555 1_555
C3 N2 1_555 1_555
C4 O15 1_555 1_555
C5 C3 1_555 1_555
C6 N3 1_555 1_555
H5 C6 1_555 1_555
C7 N4 1_555 1_555
C8 N3 1_555 1_555
C9 O19 1_555 1_555
C10 O21 1_555 1_555
O1A Si1 1_555 1_555
O1B Si1 1_555 1_555
W1A O2 1_555 1_555
W2A O1A 1_555 1_555
W3A O13 1_555 1_555
W4A O11 1_555 1_555
Ce1A O8A 1_555 1_555
O3A W1 1_555 1_555
O4A W1A 1_555 1_555
O5A W1A 1_555 1_555
O6A W2A 1_555 1_555
O7A W2A 1_555 1_555
O8A W4A 1_555 1_555
O9A W3A 1_555 1_555
O10A W2A 1_555 1_555
O11A W2A 1_555 1_555
O12A W3A 1_555 1_555
O13A W3A 1_555 1_555
O14A W2A 1_555 1_555
O15A Ce1A 1_555 1_555
O16A C4A 1_555 1_555
O17A C5A 1_555 1_555
O18A C5A 1_555 1_555
O19A Ce1A 1_555 1_555
O20A C9A 1_555 1_555
O21A H1A 1_555 1_555
O22A C10A 1_555 1_555
O23A Ce1A 1_555 1_555
N1A Ce1A 1_555 1_555
N2A H2A 1_555 1_555
N3A Ce1A 1_555 1_555
N4A H3A 1_555 1_555
C1A N1A 1_555 1_555
H4A C1A 1_555 1_555
C2A N1A 1_555 1_555
C3A N2A 1_555 1_555
C4A O15A 1_555 1_555
C5A C3A 1_555 1_555
C6A N3A 1_555 1_555
H5A C6A 1_555 1_555
C7A N4A 1_555 1_555
C8A N3A 1_555 1_555
C9A O19A 1_555 1_555
C10A O21A 1_555 1_555
W1B O2 1_555 1_555
W2B O1B 1_555 1_555
W3B O1B 1_555 1_555
W4B O1B 1_555 1_555
Ce1B O8B 1_555 1_555
O3B W1A 1_555 1_555
O4B W1B 1_555 1_555
O5B W1B 1_555 1_555
O6B W2B 1_555 1_555
O7B W2B 1_555 1_555
O8B W4B 1_555 1_555
O9B W3B 1_555 1_555
O10B W2B 1_555 1_555
O11B W4 1_555 1_555
O12B W3B 1_555 1_555
O13B W3 1_555 1_555
O14B W1 1_555 1_555
O15B Ce1B 1_555 1_555
O16B C4B 1_555 1_555
O17B C5B 1_555 1_555
O18B C5B 1_555 1_555
O19B Ce1B 1_555 1_555
O20B C9B 1_555 1_555
O21B H1B 1_555 1_555
O22B C10B 1_555 1_555
O23B Ce1B 1_555 1_555
N1B Ce1B 1_555 1_555
N2B H2B 1_555 1_555
N3B Ce1B 1_555 1_555
N4B H3B 1_555 1_555
C1B N1B 1_555 1_555
H4B C1B 1_555 1_555
C2B N1B 1_555 1_555
C3B N2B 1_555 1_555
C4B O15B 1_555 1_555
C5B C3B 1_555 1_555
C6B N3B 1_555 1_555
H5B C6B 1_555 1_555
C7B N4B 1_555 1_555
C8B N3B 1_555 1_555
C9B O19B 1_555 1_555
C10B O21B 1_555 1_555
Ce1O O6B 1_555 1_555
Ce1P O6 1_555 1_555
Ce1Q O6A 1_555 1_555
O6O Ce1A 1_555 1_555
O6P Ce1B 1_555 1_555
O6Q Ce1 1_555 1_555
O16O Ce1A 1_555 1_555
O16P Ce1B 1_555 1_555
O16Q Ce1 1_555 1_555
O17O Ce1A 1_555 1_555
O17P Ce1B 1_555 1_555
O17Q Ce1 1_555 1_555
W3 O10 1_555 1_555
W4 O5 1_555 1_555
W4 O7 1_555 1_555
W4 O9 1_555 1_555
O3 W1B 1_555 1_555
O14 W1A 1_555 1_555
O16 Ce1P 1_555 1_555
O17 Ce1P 1_555 1_555
N2 C1 1_555 1_555
N4 C6 1_555 1_555
C2 C3 1_555 1_555
C2 C4 1_555 1_555
C7 C8 1_555 1_555
C7 C10 1_555 1_555
C8 C9 1_555 1_555
O1A W3A 1_555 1_555
O1A W4A 1_555 1_555
W1A O3A 1_555 1_555
W3A O10A 1_555 1_555
W4A O5A 1_555 1_555
W4A O7A 1_555 1_555
W4A O9A 1_555 1_555
O11A W4B 1_555 1_555
O13A W3B 1_555 1_555
O14A W1B 1_555 1_555
O16A Ce1Q 1_555 1_555
O17A Ce1Q 1_555 1_555
N2A C1A 1_555 1_555
N4A C6A 1_555 1_555
C2A C3A 1_555 1_555
C2A C4A 1_555 1_555
C7A C8A 1_555 1_555
C7A C10A 1_555 1_555
C8A C9A 1_555 1_555
W1B O3B 1_555 1_555
W2B O11B 1_555 1_555
W2B O14B 1_555 1_555
W3B O10B 1_555 1_555
W3B O13B 1_555 1_555
W4B O5B 1_555 1_555
W4B O7B 1_555 1_555
W4B O9B 1_555 1_555
O16B Ce1O 1_555 1_555
O17B Ce1O 1_555 1_555
N2B C1B 1_555 1_555
N4B C6B 1_555 1_555
C2B C3B 1_555 1_555
C2B C4B 1_555 1_555
C7B C8B 1_555 1_555
C7B C10B 1_555 1_555
C8B C9B 1_555 1_555

#END
