
#######################################################################
#
#                 Cambridge Crystallographic Data Centre
#                                CCDC 
#
#######################################################################
#
# If this CIF has been generated from an entry in the Cambridge 
# Structural Database, then it will include bibliographic, chemical, 
# crystal, experimental, refinement or atomic coordinate data resulting 
# from the CCDC's data processing and validation procedures.
#
#######################################################################

data_BIXZIT
_symmetry_cell_setting           monoclinic
_symmetry_space_group_name_H-M   'P 21/c'
_symmetry_Int_Tables_number      14
_space_group_name_Hall           '-P 2ybc'
loop_
_symmetry_equiv_pos_site_id
_symmetry_equiv_pos_as_xyz
1 x,y,z
2 -x,1/2+y,1/2-z
3 -x,-y,-z
4 x,1/2-y,1/2+z
_cell_length_a                   27.930(6)
_cell_length_b                   15.618(3)
_cell_length_c                   16.149(3)
_cell_angle_alpha                90
_cell_angle_beta                 98.19(3)
_cell_angle_gamma                90
_cell_volume                     6972.52
loop_
_atom_site_label
_atom_site_type_symbol
_atom_site_fract_x
_atom_site_fract_y
_atom_site_fract_z
C1 C 0.43471(18) 0.6259(3) 0.3249(3)
H1 H 0.4271 0.5816 0.2849
C2 C 0.47824(19) 0.6231(4) 0.3785(4)
H2 H 0.5007 0.5781 0.3744
C3 C 0.48834(17) 0.6870(3) 0.4381(3)
C4 C 0.45740(18) 0.7553(3) 0.4413(3)
H3 H 0.4654 0.8001 0.4805
C5 C 0.41452(18) 0.7579(3) 0.3865(3)
H4 H 0.3932 0.8050 0.3883
C6 C 0.40212(16) 0.6925(3) 0.3288(3)
C7 C 0.35354(16) 0.6987(3) 0.2754(3)
C8 C 0.33415(16) 0.6262(3) 0.2317(3)
H5 H 0.3519 0.5742 0.2391
C9 C 0.29028(17) 0.6257(3) 0.1781(3)
C10 C 0.27094(17) 0.5413(3) 0.1429(3)
C11 C 0.22258(18) 0.5362(3) 0.1071(3)
H6 H 0.2039 0.5870 0.0980
C12 C 0.20140(18) 0.4572(3) 0.0844(3)
H7 H 0.1684 0.4538 0.0602
C13 C 0.22903(18) 0.3842(3) 0.0976(3)
C14 C 0.27779(18) 0.3878(3) 0.1288(3)
H8 H 0.2966 0.3370 0.1353
C15 C 0.29870(18) 0.4665(3) 0.1504(3)
H9 H 0.3323 0.4697 0.1705
C16 C 0.32291(16) 1.1279(3) 0.1097(3)
H10 H 0.2998 1.1268 0.0605
C17 C 0.35566(18) 1.1940(3) 0.1219(3)
H11 H 0.3553 1.2378 0.0811
C18 C 0.38913(17) 1.1965(3) 0.1939(3)
C19 C 0.39072(17) 1.1317(3) 0.2538(3)
H12 H 0.4139 1.1333 0.3029
C20 C 0.35787(16) 1.0649(3) 0.2403(3)
H13 H 0.3589 1.0201 0.2803
C21 C 0.32317(15) 1.0623(3) 0.1688(3)
C22 C 0.28781(16) 0.9896(3) 0.1584(3)
C23 C 0.24556(16) 0.9977(3) 0.1006(3)
H14 H 0.2388 1.0514 0.0738
C24 C 0.21281(17) 0.9303(3) 0.0805(3)
C25 C 0.16650(16) 0.9452(3) 0.0233(3)
C26 C 0.13862(19) 0.8751(3) -0.0067(3)
H15 H 0.1507 0.8189 0.0056
C27 C 0.09331(19) 0.8854(3) -0.0545(4)
H16 H 0.0751 0.8368 -0.0757
C28 C 0.07527(17) 0.9666(3) -0.0706(3)
C29 C 0.1028(2) 1.0371(3) -0.0448(3)
H17 H 0.0907 1.0930 -0.0584
C30 C 0.14796(19) 1.0265(3) 0.0009(3)
H18 H 0.1670 1.0756 0.0177
C31 C 0.18490(17) 1.1473(3) 0.3500(3)
H19 H 0.2079 1.1483 0.3994
C32 C 0.15293(18) 1.2147(3) 0.3335(3)
H20 H 0.1539 1.2614 0.3713
C33 C 0.11939(17) 1.2138(3) 0.2611(3)
C34 C 0.11745(17) 1.1456(3) 0.2063(3)
H21 H 0.0944 1.1452 0.1569
C35 C 0.14935(17) 1.0777(3) 0.2237(3)
H22 H 0.1478 1.0304 0.1864
C36 C 0.18390(16) 1.0781(3) 0.2957(3)
C37 C 0.21773(16) 1.0034(3) 0.3116(3)
C38 C 0.25986(16) 1.0122(3) 0.3711(3)
H23 H 0.2684 1.0677 0.3924
C39 C 0.28931(16) 0.9433(3) 0.3999(3)
C40 C 0.33488(16) 0.9588(3) 0.4592(3)
C41 C 0.35591(17) 0.8919(3) 0.5083(3)
H24 H 0.3402 0.8379 0.5064
C42 C 0.39965(16) 0.9030(3) 0.5603(3)
H25 H 0.4132 0.8573 0.5948
C43 C 0.42329(16) 0.9805(3) 0.5615(3)
C44 C 0.40333(17) 1.0490(3) 0.5137(3)
H26 H 0.4197 1.1025 0.5152
C45 C 0.35896(17) 1.0378(3) 0.4639(3)
H27 H 0.3446 1.0847 0.4321
C46 C 0.21086(18) 0.4657(3) 0.3092(3)
H28 H 0.1788 0.4687 0.2803
C47 C 0.23369(18) 0.3869(3) 0.3210(3)
H29 H 0.2174 0.3361 0.3006
C48 C 0.28029(19) 0.3832(3) 0.3629(3)
C49 C 0.30395(19) 0.4554(3) 0.3957(3)
H30 H 0.3356 0.4512 0.4260
C50 C 0.28130(18) 0.5351(3) 0.3842(3)
H31 H 0.2975 0.5851 0.4068
C51 C 0.23462(17) 0.5412(3) 0.3395(3)
C52 C 0.21383(17) 0.6272(3) 0.3158(3)
C53 C 0.16652(17) 0.6331(3) 0.2743(3)
H32 H 0.1467 0.5835 0.2722
C54 C 0.14661(17) 0.7076(3) 0.2356(3)
C55 C 0.09555(17) 0.7070(3) 0.1919(3)
C56 C 0.07993(19) 0.7749(3) 0.1397(4)
H33 H 0.1010 0.8221 0.1358
C57 C 0.03439(19) 0.7753(4) 0.0930(4)
H34 H 0.0242 0.8223 0.0574
C58 C 0.00403(17) 0.7070(4) 0.0989(3)
C59 C 0.0175(2) 0.6408(4) 0.1527(4)
H35 H -0.0043 0.5951 0.1581
C60 C 0.0632(2) 0.6410(4) 0.1993(4)
H36 H 0.0726 0.5951 0.2368
C61 C 0.14012(19) 0.6406(3) -0.0902(4)
H37 H 0.1551 0.6469 -0.1391
C62 C 0.0742(3) 0.5838(6) -0.0262(6)
H38 H 0.0717 0.5218 -0.0184
H39 H 0.0417 0.6089 -0.0354
H40 H 0.0928 0.6092 0.0238
C63 C 0.0763(3) 0.5677(6) -0.1786(5)
H41 H 0.0444 0.5939 -0.1939
H42 H 0.0727 0.5054 -0.1750
H43 H 0.0969 0.5814 -0.2211
C64 C 0.36264(18) 0.8288(3) 0.0877(3)
H44 H 0.3570 0.7914 0.1317
C65 C 0.4101(2) 0.9445(4) 0.0420(4)
H45 H 0.3924 0.9296 -0.0130
H46 H 0.4449 0.9447 0.0391
H47 H 0.4000 1.0014 0.0583
C66 C 0.4297(2) 0.8848(4) 0.1848(4)
H48 H 0.4287 0.9424 0.2085
H49 H 0.4631 0.8702 0.1785
H50 H 0.4174 0.8433 0.2221
N1 N 0.09835(16) 0.6006(3) -0.0981(3)
N2 N 0.39961(14) 0.8824(3) 0.1029(3)
O1 O 0.21959(11) 0.85435(19) 0.10919(19)
O2 O 0.29870(11) 0.92510(19) 0.2050(2)
O3 O 0.26376(11) 0.69144(19) 0.15971(19)
O4 O 0.33244(11) 0.76963(19) 0.2743(2)
O5 O 0.27997(11) 0.86493(19) 0.38023(19)
O6 O 0.20627(11) 0.93617(19) 0.2703(2)
O7 O 0.24207(11) 0.69168(19) 0.3329(2)
O8 O 0.16984(11) 0.7763(2) 0.2313(2)
O9 O 0.33520(13) 0.8232(2) 0.0220(2)
O10 O 0.16143(13) 0.6705(2) -0.0249(3)
K1 K 0.24845(3) 0.74553(6) -0.00625(6)
I1 I 0.551508(12) 0.68201(2) 0.52563(2)
I2 I 0.196973(12) 0.26257(2) 0.07981(2)
I3 I 0.435918(13) 1.30147(2) 0.21273(2)
I4 I 0.004384(12) 0.98288(3) -0.13215(2)
I5 I 0.072464(14) 1.31862(2) 0.23816(3)
I6 I 0.492210(11) 0.99309(2) 0.63226(2)
I7 I 0.315854(13) 0.26507(2) 0.36872(3)
I8 I -0.063374(13) 0.70312(3) 0.02231(3)
Dy1 Dy 0.251621(7) 0.812188(12) 0.245298(13)
O5C O 0.27997(11) 0.63507(19) -0.11977(19)
O7C O 0.24207(11) 0.80832(19) -0.1671(2)
K1C K 0.24845(3) 0.75447(6) 0.49375(6)
loop_
_geom_bond_atom_site_label_1
_geom_bond_atom_site_label_2
_geom_bond_site_symmetry_1
_geom_bond_site_symmetry_2
C1 H1 1_555 1_555
C2 C1 1_555 1_555
H2 C2 1_555 1_555
C3 C2 1_555 1_555
C4 C3 1_555 1_555
H3 C4 1_555 1_555
C5 C4 1_555 1_555
H4 C5 1_555 1_555
C6 C1 1_555 1_555
C7 C6 1_555 1_555
C8 C7 1_555 1_555
H5 C8 1_555 1_555
C9 C8 1_555 1_555
C10 C9 1_555 1_555
C11 C10 1_555 1_555
H6 C11 1_555 1_555
C12 C11 1_555 1_555
H7 C12 1_555 1_555
C13 C12 1_555 1_555
C14 C13 1_555 1_555
H8 C14 1_555 1_555
C15 C10 1_555 1_555
H9 C15 1_555 1_555
C16 H10 1_555 1_555
C17 C16 1_555 1_555
H11 C17 1_555 1_555
C18 C17 1_555 1_555
C19 C18 1_555 1_555
H12 C19 1_555 1_555
C20 C19 1_555 1_555
H13 C20 1_555 1_555
C21 C16 1_555 1_555
C22 C21 1_555 1_555
C23 C22 1_555 1_555
H14 C23 1_555 1_555
C24 C23 1_555 1_555
C25 C24 1_555 1_555
C26 C25 1_555 1_555
H15 C26 1_555 1_555
C27 C26 1_555 1_555
H16 C27 1_555 1_555
C28 C27 1_555 1_555
C29 C28 1_555 1_555
H17 C29 1_555 1_555
C30 C25 1_555 1_555
H18 C30 1_555 1_555
C31 H19 1_555 1_555
C32 C31 1_555 1_555
H20 C32 1_555 1_555
C33 C32 1_555 1_555
C34 C33 1_555 1_555
H21 C34 1_555 1_555
C35 C34 1_555 1_555
H22 C35 1_555 1_555
C36 C31 1_555 1_555
C37 C36 1_555 1_555
C38 C37 1_555 1_555
H23 C38 1_555 1_555
C39 C38 1_555 1_555
C40 C39 1_555 1_555
C41 C40 1_555 1_555
H24 C41 1_555 1_555
C42 C41 1_555 1_555
H25 C42 1_555 1_555
C43 C42 1_555 1_555
C44 C43 1_555 1_555
H26 C44 1_555 1_555
C45 C40 1_555 1_555
H27 C45 1_555 1_555
C46 H28 1_555 1_555
C47 C46 1_555 1_555
H29 C47 1_555 1_555
C48 C47 1_555 1_555
C49 C48 1_555 1_555
H30 C49 1_555 1_555
C50 C49 1_555 1_555
H31 C50 1_555 1_555
C51 C46 1_555 1_555
C52 C51 1_555 1_555
C53 C52 1_555 1_555
H32 C53 1_555 1_555
C54 C53 1_555 1_555
C55 C54 1_555 1_555
C56 C55 1_555 1_555
H33 C56 1_555 1_555
C57 C56 1_555 1_555
H34 C57 1_555 1_555
C58 C57 1_555 1_555
C59 C58 1_555 1_555
H35 C59 1_555 1_555
C60 C55 1_555 1_555
H36 C60 1_555 1_555
C61 H37 1_555 1_555
C62 H38 1_555 1_555
H39 C62 1_555 1_555
H40 C62 1_555 1_555
C63 H41 1_555 1_555
H42 C63 1_555 1_555
H43 C63 1_555 1_555
C64 H44 1_555 1_555
C65 H45 1_555 1_555
H46 C65 1_555 1_555
H47 C65 1_555 1_555
C66 H48 1_555 1_555
H49 C66 1_555 1_555
H50 C66 1_555 1_555
N1 C61 1_555 1_555
N2 C64 1_555 1_555
O1 C24 1_555 1_555
O2 C22 1_555 1_555
O3 C9 1_555 1_555
O4 C7 1_555 1_555
O5 C39 1_555 1_555
O6 C37 1_555 1_555
O7 C52 1_555 1_555
O8 C54 1_555 1_555
O9 C64 1_555 1_555
O10 C61 1_555 1_555
K1 O1 1_555 1_555
I1 C3 1_555 1_555
I2 C13 1_555 1_555
I3 C18 1_555 1_555
I4 C28 1_555 1_555
I5 C33 1_555 1_555
I6 C43 1_555 1_555
I7 C48 1_555 1_555
I8 C58 1_555 1_555
Dy1 O1 1_555 1_555
O5C K1 1_555 1_555
O7C K1 1_555 1_555
K1C O5 1_555 1_555
C5 C6 1_555 1_555
C14 C15 1_555 1_555
C20 C21 1_555 1_555
C29 C30 1_555 1_555
C35 C36 1_555 1_555
C44 C45 1_555 1_555
C50 C51 1_555 1_555
C59 C60 1_555 1_555
C62 N1 1_555 1_555
C63 N1 1_555 1_555
C65 N2 1_555 1_555
C66 N2 1_555 1_555
O2 Dy1 1_555 1_555
O3 K1 1_555 1_555
O3 Dy1 1_555 1_555
O4 Dy1 1_555 1_555
O5 Dy1 1_555 1_555
O6 Dy1 1_555 1_555
O7 Dy1 1_555 1_555
O7 K1C 1_555 1_555
O8 Dy1 1_555 1_555
O9 K1 1_555 1_555
O10 K1 1_555 1_555

#END
