
#######################################################################
#
#                 Cambridge Crystallographic Data Centre
#                                CCDC 
#
#######################################################################
#
# If this CIF has been generated from an entry in the Cambridge 
# Structural Database, then it will include bibliographic, chemical, 
# crystal, experimental, refinement or atomic coordinate data resulting 
# from the CCDC's data processing and validation procedures.
#
#######################################################################

data_BIYDUJ01
_symmetry_cell_setting           orthorhombic
_symmetry_space_group_name_H-M   'P n n a'
_symmetry_Int_Tables_number      52
_space_group_name_Hall           '-P 2a 2bc'
loop_
_symmetry_equiv_pos_site_id
_symmetry_equiv_pos_as_xyz
1 x,y,z
2 1/2-x,-y,z
3 1/2-x,1/2+y,1/2-z
4 x,1/2-y,1/2-z
5 -x,-y,-z
6 1/2+x,y,-z
7 1/2+x,1/2-y,1/2+z
8 -x,1/2+y,1/2+z
_cell_length_a                   18.3648(6)
_cell_length_b                   13.6854(4)
_cell_length_c                   16.2307(5)
_cell_angle_alpha                90
_cell_angle_beta                 90
_cell_angle_gamma                90
_cell_volume                     4079.26
loop_
_atom_site_label
_atom_site_type_symbol
_atom_site_fract_x
_atom_site_fract_y
_atom_site_fract_z
Ni1 Ni 0.40120(3) 0.7500 0.2500
Ni2 Ni 0.30375(3) 1.2500 -0.2500
O1 O 0.40227(13) 0.85107(18) 0.15702(15)
O2 O 0.47212(16) 0.97029(19) 0.20840(16)
O3 O 0.47738(13) 0.67042(18) 0.18162(14)
H1 H 0.4641 0.6460 0.1359
H2 H 0.5098 0.6385 0.2076
O4 O 0.31836(13) 1.12320(17) -0.18739(15)
O5 O 0.38556(13) 1.24747(18) -0.14815(16)
N1 N 0.31611(16) 0.6725(2) 0.19146(19)
N2 N -0.22102(16) 0.6955(2) 0.17686(17)
C1 C 0.43168(19) 0.9349(3) 0.1550(2)
C2 C 0.41469(19) 0.9949(3) 0.0791(2)
C3 C 0.3652(2) 0.9610(3) 0.0219(2)
H3 H 0.3414 0.9020 0.0309
C4 C 0.3506(2) 1.0141(3) -0.0486(2)
H4 H 0.3181 0.9896 -0.0874
C5 C 0.38408(18) 1.1037(3) -0.0621(2)
C6 C 0.4334(2) 1.1384(3) -0.0052(2)
H5 H 0.4566 1.1979 -0.0140
C7 C 0.4484(2) 1.0841(3) 0.0654(2)
H6 H 0.4813 1.1081 0.1039
C8 C 0.2613(2) 0.6346(3) 0.2356(2)
H7 H 0.2673 0.6285 0.2923
C9 C 0.1966(2) 0.6041(3) 0.2013(3)
H8 H 0.1601 0.5788 0.2349
C10 C 0.1856(2) 0.6111(3) 0.1175(3)
C11 C 0.2427(2) 0.6470(3) 0.0723(3)
H9 H 0.2386 0.6519 0.0153
C12 C 0.3063(2) 0.6759(3) 0.1104(2)
H10 H 0.3442 0.6989 0.0777
C13 C 0.1147(2) 0.5802(3) 0.0782(3)
H11 H 0.1111 0.5096 0.0807
H12 H 0.1156 0.5988 0.0205
C14 C 0.04729(19) 0.6240(3) 0.1179(3)
H13 H 0.0438 0.6025 0.1747
H14 H 0.0508 0.6947 0.1176
C15 C -0.0200(2) 0.5925(3) 0.0712(3)
H15 H -0.0163 0.6156 0.0148
H16 H -0.0217 0.5217 0.0697
C16 C -0.0897(2) 0.6299(3) 0.1079(2)
C17 C -0.1289(3) 0.5737(4) 0.1613(3)
H17 H -0.1126 0.5116 0.1753
C18 C -0.1176(2) 0.7201(3) 0.0904(3)
H18 H -0.0926 0.7617 0.0551
C19 C -0.1823(2) 0.7496(3) 0.1246(3)
H19 H -0.2001 0.8109 0.1104
C20 C -0.1924(3) 0.6089(3) 0.1942(3)
H20 H -0.2173 0.5693 0.2313
C21 C 0.36312(19) 1.1611(3) -0.1370(2)
Ni2G Ni -0.30375(3) 0.7500 0.2500
Ni2_2 Ni 0.30375(3) 0.2500 0.7500
O1C O 0.40227(13) 0.64893(18) 0.34298(15)
O2C O 0.47212(16) 0.52971(19) 0.29160(16)
O3C O 0.47738(13) 0.82958(18) 0.31838(14)
H1C H 0.4641 0.8540 0.3641
H2C H 0.5098 0.8615 0.2924
O4C O 0.31836(13) 0.37680(17) 0.68739(15)
O4C_2 O 0.31836(13) 1.37680(17) -0.31261(15)
O5C O 0.38556(13) 0.25253(18) 0.64815(16)
O5C_2 O 0.38556(13) 1.25253(18) -0.35185(16)
N1C N 0.31611(16) 0.8275(2) 0.30854(19)
N2C N -0.22102(16) 0.8045(2) 0.32314(17)
N2G N 0.22102(16) 1.1955(2) -0.32314(17)
N2D N 0.22102(16) 1.3045(2) -0.17686(17)
C1C C 0.43168(19) 0.5651(3) 0.3450(2)
C2C C 0.41469(19) 0.5051(3) 0.4209(2)
C3C C 0.3652(2) 0.5390(3) 0.4781(2)
H3C H 0.3414 0.5980 0.4691
C4C C 0.3506(2) 0.4859(3) 0.5486(2)
H4C H 0.3181 0.5104 0.5874
C5C C 0.38408(18) 0.3963(3) 0.5621(2)
C6C C 0.4334(2) 0.3616(3) 0.5052(2)
H5C H 0.4566 0.3021 0.5140
C7C C 0.4484(2) 0.4159(3) 0.4346(2)
H6C H 0.4813 0.3919 0.3961
C8C C 0.2613(2) 0.8654(3) 0.2644(2)
H7C H 0.2673 0.8715 0.2077
C9C C 0.1966(2) 0.8959(3) 0.2987(3)
H8C H 0.1601 0.9212 0.2651
C10C C 0.1856(2) 0.8889(3) 0.3825(3)
C11C C 0.2427(2) 0.8530(3) 0.4277(3)
H9C H 0.2386 0.8481 0.4847
C12C C 0.3063(2) 0.8241(3) 0.3896(2)
H10C H 0.3442 0.8011 0.4223
C13C C 0.1147(2) 0.9198(3) 0.4218(3)
H11C H 0.1111 0.9904 0.4193
H12C H 0.1156 0.9012 0.4795
C14C C 0.04729(19) 0.8760(3) 0.3821(3)
H13C H 0.0438 0.8975 0.3253
H14C H 0.0508 0.8053 0.3824
C15C C -0.0200(2) 0.9075(3) 0.4288(3)
H15C H -0.0163 0.8844 0.4852
H16C H -0.0217 0.9783 0.4303
C16C C -0.0897(2) 0.8701(3) 0.3921(2)
C17C C -0.1289(3) 0.9263(4) 0.3387(3)
H17C H -0.1126 0.9884 0.3247
C18C C -0.1176(2) 0.7799(3) 0.4096(3)
H18C H -0.0926 0.7383 0.4449
C19C C -0.1823(2) 0.7504(3) 0.3754(3)
H19C H -0.2001 0.6891 0.3896
C20C C -0.1924(3) 0.8911(3) 0.3058(3)
H20C H -0.2173 0.9307 0.2687
C21C C 0.36312(19) 0.3389(3) 0.6370(2)
loop_
_geom_bond_atom_site_label_1
_geom_bond_atom_site_label_2
_geom_bond_site_symmetry_1
_geom_bond_site_symmetry_2
Ni1 O1 1_555 1_555
Ni2 O4 1_555 1_555
O1 C1 1_555 1_555
O2 C1 1_555 1_555
O3 Ni1 1_555 1_555
H1 O3 1_555 1_555
H2 O3 1_555 1_555
O4 C21 1_555 1_555
O5 Ni2 1_555 1_555
N1 Ni1 1_555 1_555
N2 C19 1_555 1_555
C1 C2 1_555 1_555
C2 C3 1_555 1_555
C3 H3 1_555 1_555
C4 C3 1_555 1_555
H4 C4 1_555 1_555
C5 C4 1_555 1_555
C6 C5 1_555 1_555
H5 C6 1_555 1_555
C7 C2 1_555 1_555
H6 C7 1_555 1_555
C8 N1 1_555 1_555
H7 C8 1_555 1_555
C9 C8 1_555 1_555
H8 C9 1_555 1_555
C10 C9 1_555 1_555
C11 C10 1_555 1_555
H9 C11 1_555 1_555
C12 N1 1_555 1_555
H10 C12 1_555 1_555
C13 C10 1_555 1_555
H11 C13 1_555 1_555
H12 C13 1_555 1_555
C14 C13 1_555 1_555
H13 C14 1_555 1_555
H14 C14 1_555 1_555
C15 C14 1_555 1_555
H15 C15 1_555 1_555
H16 C15 1_555 1_555
C16 C15 1_555 1_555
C17 C16 1_555 1_555
H17 C17 1_555 1_555
C18 C16 1_555 1_555
H18 C18 1_555 1_555
C19 C18 1_555 1_555
H19 C19 1_555 1_555
C20 N2 1_555 1_555
H20 C20 1_555 1_555
C21 O5 1_555 1_555
Ni2G N2 1_555 1_555
Ni2_2 O4C 1_555 1_555
O1C Ni1 1_555 1_555
O2C C1C 1_555 1_555
O3C Ni1 1_555 1_555
H1C O3C 1_555 1_555
H2C O3C 1_555 1_555
O4C C21C 1_555 1_555
O4C_2 Ni2 1_555 1_555
O5C Ni2_2 1_555 1_555
O5C_2 Ni2 1_555 1_555
N1C Ni1 1_555 1_555
N2C Ni2G 1_555 1_555
N2G Ni2 1_555 1_555
N2D Ni2 1_555 1_555
C1C O1C 1_555 1_555
C2C C1C 1_555 1_555
C3C C2C 1_555 1_555
H3C C3C 1_555 1_555
C4C C3C 1_555 1_555
H4C C4C 1_555 1_555
C5C C4C 1_555 1_555
C6C C5C 1_555 1_555
H5C C6C 1_555 1_555
C7C C2C 1_555 1_555
H6C C7C 1_555 1_555
C8C N1C 1_555 1_555
H7C C8C 1_555 1_555
C9C C8C 1_555 1_555
H8C C9C 1_555 1_555
C10C C9C 1_555 1_555
C11C C10C 1_555 1_555
H9C C11C 1_555 1_555
C12C N1C 1_555 1_555
H10C C12C 1_555 1_555
C13C C10C 1_555 1_555
H11C C13C 1_555 1_555
H12C C13C 1_555 1_555
C14C C13C 1_555 1_555
H13C C14C 1_555 1_555
H14C C14C 1_555 1_555
C15C C14C 1_555 1_555
H15C C15C 1_555 1_555
H16C C15C 1_555 1_555
C16C C15C 1_555 1_555
C17C C16C 1_555 1_555
H17C C17C 1_555 1_555
C18C C16C 1_555 1_555
H18C C18C 1_555 1_555
C19C N2C 1_555 1_555
H19C C19C 1_555 1_555
C20C N2C 1_555 1_555
H20C C20C 1_555 1_555
C21C O5C 1_555 1_555
C5 C21 1_555 1_555
C6 C7 1_555 1_555
C11 C12 1_555 1_555
C17 C20 1_555 1_555
C5C C21C 1_555 1_555
C6C C7C 1_555 1_555
C11C C12C 1_555 1_555
C17C C20C 1_555 1_555
C18C C19C 1_555 1_555

#END
