
#######################################################################
#
#                 Cambridge Crystallographic Data Centre
#                                CCDC 
#
#######################################################################
#
# If this CIF has been generated from an entry in the Cambridge 
# Structural Database, then it will include bibliographic, chemical, 
# crystal, experimental, refinement or atomic coordinate data resulting 
# from the CCDC's data processing and validation procedures.
#
#######################################################################

data_BIYDUJ
_symmetry_cell_setting           orthorhombic
_symmetry_space_group_name_H-M   'P n n a'
_symmetry_Int_Tables_number      52
_space_group_name_Hall           '-P 2a 2bc'
loop_
_symmetry_equiv_pos_site_id
_symmetry_equiv_pos_as_xyz
1 x,y,z
2 1/2-x,-y,z
3 1/2-x,1/2+y,1/2-z
4 x,1/2-y,1/2-z
5 -x,-y,-z
6 1/2+x,y,-z
7 1/2+x,1/2-y,1/2+z
8 -x,1/2+y,1/2+z
_cell_length_a                   18.350(4)
_cell_length_b                   13.447(3)
_cell_length_c                   16.394(3)
_cell_angle_alpha                90
_cell_angle_beta                 90
_cell_angle_gamma                90
_cell_volume                     4045.26
loop_
_atom_site_label
_atom_site_type_symbol
_atom_site_fract_x
_atom_site_fract_y
_atom_site_fract_z
Ni1 Ni 0.40023(3) 0.7500 0.2500
Ni2 Ni 0.30492(3) 0.2500 -0.2500
O1 O 0.40103(13) 0.64828(17) 0.15772(14)
O2 O 0.47550(14) 0.83254(19) 0.18209(15)
H1 H 0.5147(12) 0.804(3) 0.175(2)
H2 H 0.486(2) 0.8795(19) 0.2115(19)
O3 O 0.47243(15) 0.52706(18) 0.20698(14)
O4 O 0.32033(13) 0.37798(18) -0.18733(13)
O5 O 0.38752(13) 0.25133(18) -0.14911(14)
N1 N 0.31550(17) 0.8287(2) 0.19226(17)
N2 N -0.22186(16) 0.8060(2) 0.17753(16)
C1 C 0.3061(2) 0.8247(3) 0.1115(2)
H3 H 0.3449 0.8002 0.0788
C2 C 0.2428(2) 0.8543(3) 0.0736(2)
H4 H 0.2390 0.8501 0.0160
C3 C 0.1846(2) 0.8902(3) 0.1183(2)
C4 C 0.1954(2) 0.8964(3) 0.2021(2)
H5 H 0.1579 0.9219 0.2360
C5 C 0.2599(2) 0.8661(3) 0.2360(2)
H6 H 0.2657 0.8717 0.2934
C6 C -0.1857(2) 0.7516(3) 0.1234(2)
H7 H -0.2052 0.6888 0.1083
C7 C -0.1216(2) 0.7817(3) 0.0885(2)
H8 H -0.0977 0.7397 0.0503
C8 C -0.0915(2) 0.8718(3) 0.1081(2)
C9 C -0.1281(3) 0.9274(3) 0.1656(3)
H9 H -0.1092 0.9900 0.1821
C10 C -0.1917(3) 0.8927(3) 0.1989(3)
H10 H -0.2155 0.9321 0.2390
C11 C 0.1144(2) 0.9210(3) 0.0784(3)
H11 H 0.1157 0.9008 0.0204
H12 H 0.1107 0.9944 0.0802
C12 C 0.0467(2) 0.8766(3) 0.1181(2)
H13 H 0.0431 0.8996 0.1753
H14 H 0.0506 0.8032 0.1185
C13 C -0.0216(2) 0.9079(3) 0.0712(2)
H15 H -0.0230 0.9814 0.0682
H16 H -0.0180 0.8823 0.0147
C14 C 0.41509(19) 0.5035(2) 0.07843(19)
C15 C 0.3646(2) 0.5390(3) 0.0227(2)
H17 H 0.3397 0.5996 0.0332
C16 C 0.3503(2) 0.4867(3) -0.0484(2)
H18 H 0.3167 0.5122 -0.0872
C17 C 0.38547(18) 0.3959(2) -0.06276(19)
C18 C 0.4357(2) 0.3611(3) -0.0067(2)
H19 H 0.4604 0.3002 -0.0167
C19 C 0.4501(2) 0.4141(3) 0.0635(2)
H20 H 0.4843 0.3891 0.1019
C20 C 0.43164(19) 0.5642(2) 0.1543(2)
C21 C 0.36534(19) 0.3389(3) -0.13730(19)
Ni2G Ni -0.30492(3) 0.7500 0.2500
Ni2_2 Ni 0.30492(3) 1.2500 0.7500
O1C O 0.40103(13) 0.85172(17) 0.34228(14)
O2C O 0.47550(14) 0.66746(19) 0.31791(15)
H1C H 0.5147(12) 0.696(3) 0.325(2)
H2C H 0.486(2) 0.6205(19) 0.2885(19)
O3C O 0.47243(15) 0.97294(18) 0.29302(14)
O4C O 0.32033(13) 1.12202(18) 0.68733(13)
O4C_2 O 0.32033(13) 0.12202(18) -0.31267(13)
O5C O 0.38752(13) 1.24867(18) 0.64911(14)
O5C_2 O 0.38752(13) 0.24867(18) -0.35089(14)
N1C N 0.31550(17) 0.6713(2) 0.30774(17)
N2C N -0.22186(16) 0.6940(2) 0.32247(16)
N2G N 0.22186(16) 0.3060(2) -0.32247(16)
N2D N 0.22186(16) 0.1940(2) -0.17753(16)
C1C C 0.3061(2) 0.6753(3) 0.3885(2)
H3C H 0.3449 0.6998 0.4212
C2C C 0.2428(2) 0.6457(3) 0.4264(2)
H4C H 0.2390 0.6499 0.4840
C3C C 0.1846(2) 0.6098(3) 0.3817(2)
C4C C 0.1954(2) 0.6036(3) 0.2979(2)
H5C H 0.1579 0.5781 0.2640
C5C C 0.2599(2) 0.6339(3) 0.2640(2)
H6C H 0.2657 0.6283 0.2066
C6C C -0.1857(2) 0.7484(3) 0.3766(2)
H7C H -0.2052 0.8112 0.3917
C7C C -0.1216(2) 0.7183(3) 0.4115(2)
H8C H -0.0977 0.7603 0.4497
C8C C -0.0915(2) 0.6282(3) 0.3919(2)
C9C C -0.1281(3) 0.5726(3) 0.3344(3)
H9C H -0.1092 0.5100 0.3179
C10C C -0.1917(3) 0.6073(3) 0.3011(3)
H10C H -0.2155 0.5679 0.2610
C11C C 0.1144(2) 0.5790(3) 0.4216(3)
H11C H 0.1157 0.5992 0.4796
H12C H 0.1107 0.5056 0.4198
C12C C 0.0467(2) 0.6234(3) 0.3819(2)
H13C H 0.0431 0.6004 0.3247
H14C H 0.0506 0.6968 0.3815
C13C C -0.0216(2) 0.5921(3) 0.4288(2)
H15C H -0.0230 0.5186 0.4318
H16C H -0.0180 0.6177 0.4853
C14C C 0.41509(19) 0.9965(2) 0.42157(19)
C15C C 0.3646(2) 0.9610(3) 0.4773(2)
H17C H 0.3397 0.9004 0.4668
C16C C 0.3503(2) 1.0133(3) 0.5484(2)
H18C H 0.3167 0.9878 0.5872
C17C C 0.38547(18) 1.1041(2) 0.56276(19)
C18C C 0.4357(2) 1.1389(3) 0.5067(2)
H19C H 0.4604 1.1998 0.5167
C19C C 0.4501(2) 1.0859(3) 0.4365(2)
H20C H 0.4843 1.1109 0.3981
C20C C 0.43164(19) 0.9358(2) 0.3457(2)
C21C C 0.36534(19) 1.1611(3) 0.63730(19)
loop_
_geom_bond_atom_site_label_1
_geom_bond_atom_site_label_2
_geom_bond_site_symmetry_1
_geom_bond_site_symmetry_2
Ni1 O1 1_555 1_555
Ni2 O4 1_555 1_555
O1 C20 1_555 1_555
O2 Ni1 1_555 1_555
H1 O2 1_555 1_555
H2 O2 1_555 1_555
O3 C20 1_555 1_555
O4 C21 1_555 1_555
O5 Ni2 1_555 1_555
N1 Ni1 1_555 1_555
N2 C6 1_555 1_555
C1 N1 1_555 1_555
H3 C1 1_555 1_555
C2 C1 1_555 1_555
H4 C2 1_555 1_555
C3 C2 1_555 1_555
C4 C3 1_555 1_555
H5 C4 1_555 1_555
C5 N1 1_555 1_555
H6 C5 1_555 1_555
C6 H7 1_555 1_555
C7 C6 1_555 1_555
H8 C7 1_555 1_555
C8 C7 1_555 1_555
C9 C8 1_555 1_555
H9 C9 1_555 1_555
C10 N2 1_555 1_555
H10 C10 1_555 1_555
C11 C3 1_555 1_555
H11 C11 1_555 1_555
H12 C11 1_555 1_555
C12 C11 1_555 1_555
H13 C12 1_555 1_555
H14 C12 1_555 1_555
C13 C8 1_555 1_555
H15 C13 1_555 1_555
H16 C13 1_555 1_555
C14 C15 1_555 1_555
C15 H17 1_555 1_555
C16 C15 1_555 1_555
H18 C16 1_555 1_555
C17 C16 1_555 1_555
C18 C17 1_555 1_555
H19 C18 1_555 1_555
C19 C14 1_555 1_555
H20 C19 1_555 1_555
C20 C14 1_555 1_555
C21 O5 1_555 1_555
Ni2G N2 1_555 1_555
Ni2_2 O4C 1_555 1_555
O1C Ni1 1_555 1_555
O2C Ni1 1_555 1_555
H1C O2C 1_555 1_555
H2C O2C 1_555 1_555
O3C C20C 1_555 1_555
O4C C21C 1_555 1_555
O4C_2 Ni2 1_555 1_555
O5C Ni2_2 1_555 1_555
O5C_2 Ni2 1_555 1_555
N1C Ni1 1_555 1_555
N2C Ni2G 1_555 1_555
N2G Ni2 1_555 1_555
N2D Ni2 1_555 1_555
C1C N1C 1_555 1_555
H3C C1C 1_555 1_555
C2C C1C 1_555 1_555
H4C C2C 1_555 1_555
C3C C2C 1_555 1_555
C4C C3C 1_555 1_555
H5C C4C 1_555 1_555
C5C N1C 1_555 1_555
H6C C5C 1_555 1_555
C6C N2C 1_555 1_555
H7C C6C 1_555 1_555
C7C C6C 1_555 1_555
H8C C7C 1_555 1_555
C8C C7C 1_555 1_555
C9C C8C 1_555 1_555
H9C C9C 1_555 1_555
C10C N2C 1_555 1_555
H10C C10C 1_555 1_555
C11C C3C 1_555 1_555
H11C C11C 1_555 1_555
H12C C11C 1_555 1_555
C12C C11C 1_555 1_555
H13C C12C 1_555 1_555
H14C C12C 1_555 1_555
C13C C8C 1_555 1_555
H15C C13C 1_555 1_555
H16C C13C 1_555 1_555
C14C C15C 1_555 1_555
C15C H17C 1_555 1_555
C16C C15C 1_555 1_555
H18C C16C 1_555 1_555
C17C C16C 1_555 1_555
C18C C17C 1_555 1_555
H19C C18C 1_555 1_555
C19C C14C 1_555 1_555
H20C C19C 1_555 1_555
C20C O1C 1_555 1_555
C21C O5C 1_555 1_555
C4 C5 1_555 1_555
C9 C10 1_555 1_555
C12 C13 1_555 1_555
C17 C21 1_555 1_555
C18 C19 1_555 1_555
C4C C5C 1_555 1_555
C9C C10C 1_555 1_555
C12C C13C 1_555 1_555
C14C C20C 1_555 1_555
C17C C21C 1_555 1_555
C18C C19C 1_555 1_555

#END
