
#######################################################################
#
#                 Cambridge Crystallographic Data Centre
#                                CCDC 
#
#######################################################################
#
# If this CIF has been generated from an entry in the Cambridge 
# Structural Database, then it will include bibliographic, chemical, 
# crystal, experimental, refinement or atomic coordinate data resulting 
# from the CCDC's data processing and validation procedures.
#
#######################################################################

data_BIYDIX
_symmetry_cell_setting           triclinic
_symmetry_space_group_name_H-M   'P -1'
_symmetry_Int_Tables_number      2
_space_group_name_Hall           '-P 1'
loop_
_symmetry_equiv_pos_site_id
_symmetry_equiv_pos_as_xyz
1 x,y,z
2 -x,-y,-z
_cell_length_a                   13.2706(5)
_cell_length_b                   14.2519(7)
_cell_length_c                   14.5083(10)
_cell_angle_alpha                89.686(9)
_cell_angle_beta                 88.043(9)
_cell_angle_gamma                70.808(5)
_cell_volume                     2589.91
loop_
_atom_site_label
_atom_site_type_symbol
_atom_site_fract_x
_atom_site_fract_y
_atom_site_fract_z
Co1 Co 0.48199(7) 0.22267(6) 0.25012(6)
Co2 Co 0.69073(8) 0.05612(7) 0.10651(7)
Co3 Co 0.82486(8) -0.05436(6) 0.29354(6)
Co4 Co 0.63037(7) 0.09745(6) 0.44854(6)
S1 S 0.78372(13) 0.14521(11) 0.00375(10)
S2 S 1.00698(13) -0.04034(11) 0.30313(11)
S3 S 0.69893(12) 0.20690(11) 0.53983(10)
S4 S 0.47415(12) 0.39550(11) 0.23876(11)
S5 S 0.72836(14) 0.54233(12) 0.01952(11)
S6 S 1.19539(13) 0.13687(12) 0.04435(11)
S7 S 1.10709(13) 0.21976(12) 0.52970(12)
S8 S 0.67608(14) 0.58374(12) 0.45445(12)
S9 S 0.56819(16) -0.01217(12) 0.27799(15)
O1 O 0.6089(4) 0.1982(3) 0.1551(3)
O2 O 0.8227(4) 0.0347(3) 0.1813(3)
O3 O 0.7867(3) 0.0515(3) 0.3933(3)
O4 O 0.5753(3) 0.2219(3) 0.3643(3)
O5 O 0.6798(6) 0.6205(5) 0.0857(5)
O6 O 0.6922(5) 0.5704(4) -0.0732(4)
O7 O 0.8442(5) 0.5059(5) 0.0199(5)
O8 O 1.1603(5) 0.2438(4) 0.0351(4)
O9 O 1.2239(4) 0.0888(4) -0.0460(3)
O10 O 1.2803(5) 0.0977(5) 0.1092(4)
O11 O 1.0492(5) 0.3204(4) 0.5494(7)
O12 O 1.1849(5) 0.2083(6) 0.4544(4)
O13 O 1.1594(5) 0.1641(4) 0.6075(4)
O14 O 0.5934(6) 0.6706(4) 0.4234(5)
O15 O 0.7728(6) 0.5644(6) 0.3976(6)
O16 O 0.6946(6) 0.5853(4) 0.5513(4)
O23 O 0.3771(5) 0.2393(4) 0.1443(4)
H12 H 0.3595 0.1904 0.1261
H13 H 0.38 0.2735 0.0966
O24 O 0.3483(5) 0.2514(5) 0.3408(4)
H14 H 0.3647 0.2028 0.378
H15 H 0.3108 0.3097 0.358
O25 O 0.4744(4) 0.1424(4) 0.5088(4)
H16 H 0.4904 0.0903 0.5416
H17 H 0.4444 0.198 0.5355
O26 O 0.6717(6) -0.0096(5) 0.5548(6)
H18 H 0.6178 -0.0287 0.5502
H19 H 0.7321 -0.0551 0.5509
O27 O 0.8651(8) -0.1771(4) 0.2047(4)
H20 H 0.851 -0.2286 0.2221
H21 H 0.8514 -0.1581 0.1496
O28 O 0.5624(6) 0.0618(6) 0.0298(8)
H22 H 0.5991 0.0061 0.006
H23 H 0.5482 0.1069 -0.0109
O29 O 0.5356(6) -0.1041(5) 0.2719(5)
O30 O 0.4793(4) 0.0786(4) 0.2561(4)
O31 O 0.6794(5) -0.0238(5) 0.2348(5)
O32 O 0.5865(6) -0.0092(5) 0.3879(5)
C1 C 0.6316(5) 0.2771(4) 0.1205(4)
C2 C 0.5779(5) 0.3735(4) 0.1498(4)
C3 C 0.6032(5) 0.4543(5) 0.1171(4)
H24 H 0.5641 0.5179 0.1381
C4 C 0.6863(5) 0.4410(4) 0.0534(4)
C5 C 0.7402(5) 0.3466(5) 0.0190(4)
H25 H 0.7947 0.3374 -0.0256
C6 C 0.7128(5) 0.2656(4) 0.0510(4)
C7 C 0.9057(5) 0.0576(4) 0.1510(4)
C8 C 0.9033(5) 0.1100(4) 0.0666(4)
C9 C 0.9913(5) 0.1331(5) 0.0354(4)
H26 H 0.9885 0.1678 -0.0195
C10 C 1.0847(5) 0.1051(5) 0.0851(4)
C11 C 1.0893(6) 0.0522(5) 0.1669(4)
H27 H 1.1519 0.0322 0.1995
C12 C 1.0011(6) 0.0294(5) 0.1997(4)
C13 C 0.8600(5) 0.0875(4) 0.4247(4)
C14 C 0.9669(5) 0.0556(5) 0.3898(4)
C15 C 1.0410(5) 0.0940(5) 0.4221(4)
H28 H 1.1108 0.0713 0.3981
C16 C 1.0124(5) 0.1668(4) 0.4906(4)
C17 C 0.9074(5) 0.2001(5) 0.5275(4)
H29 H 0.8881 0.248 0.574
C18 C 0.8334(5) 0.1612(4) 0.4944(4)
C19 C 0.5905(5) 0.3057(4) 0.3887(4)
C20 C 0.6480(5) 0.3114(4) 0.4680(4)
C21 C 0.6683(5) 0.3984(5) 0.4903(4)
H30 H 0.706 0.4005 0.5427
C22 C 0.6325(5) 0.4819(4) 0.4351(4)
C23 C 0.5721(5) 0.4795(5) 0.3602(4)
H31 H 0.5455 0.5358 0.3241
C24 C 0.5506(5) 0.3934(5) 0.3383(4)
Co2A Co 1.30927(8) -0.05612(7) -0.10651(7)
Co3A Co 1.17514(8) 0.05436(6) 0.70646(6)
O9A O 0.7761(4) -0.0888(4) 0.0460(3)
O13A O 0.8406(5) -0.1641(4) 0.3925(4)
Co5 Co 1.04721(8) 0.44466(10) 0.26572(8)
O17 O 0.9139(5) 0.4075(5) 0.3079(5)
H1 H 0.8897 0.4482 0.3523
O18 O 1.0169(6) 0.4291(10) 0.1291(5)
H2 H 0.9602 0.4488 0.0987
H3 H 1.0645 0.3864 0.0966
O19 O 1.1394(6) 0.2957(7) 0.2586(8)
H4 H 1.1483 0.2562 0.3039
H5 H 1.1911 0.2713 0.2201
O20 O 1.0798(5) 0.4553(5) 0.4033(4)
H6 H 1.0576 0.4208 0.4418
H7 H 1.1322 0.4663 0.4276
O21 O 0.9540(6) 0.5922(6) 0.2742(7)
H8 H 0.9698 0.6287 0.2336
H9 H 0.9545 0.6208 0.3253
O22 O 1.1831(5) 0.4846(8) 0.2337(5)
H10 H 1.2297 0.5076 0.2541
H11 H 1.1943 0.4751 0.1759
C25 C 0.8741(10) 0.3349(9) 0.2750(8)
H32 H 0.8686 0.3404 0.2093
H33 H 0.8049 0.3443 0.303
H34 H 0.9217 0.2703 0.2903
O35 O 0.7253(7) 0.7100(6) 0.2416(5)
O36 O 0.9956(12) 0.3541(11) -0.0850(10)
O37 O 0.3154(8) -0.0346(12) 0.2741(10)
O38 O 0.4769(18) 0.1861(16) -0.0810(15)
O33? O 0.5995(12) -0.0206(10) 0.1667(9)
O34? O 0.6393(9) -0.0022(10) 0.3269(9)
loop_
_geom_bond_atom_site_label_1
_geom_bond_atom_site_label_2
_geom_bond_site_symmetry_1
_geom_bond_site_symmetry_2
Co1 S4 1_555 1_555
Co2 S1 1_555 1_555
Co3 S2 1_555 1_555
Co4 S3 1_555 1_555
Co5 O17 1_555 1_555
S1 C6 1_555 1_555
S2 C12 1_555 1_555
S3 C18 1_555 1_555
S4 C2 1_555 1_555
S5 O5 1_555 1_555
S6 O8 1_555 1_555
S7 O11 1_555 1_555
S8 O14 1_555 1_555
S9 O29 1_555 1_555
O1 Co1 1_555 1_555
O2 Co2 1_555 1_555
O3 Co3 1_555 1_555
O4 Co1 1_555 1_555
O6 S5 1_555 1_555
O7 S5 1_555 1_555
O9 S6 1_555 1_555
O10 S6 1_555 1_555
O12 S7 1_555 1_555
O13 S7 1_555 1_555
O15 S8 1_555 1_555
O16 S8 1_555 1_555
O17 H1 1_555 1_555
O18 Co5 1_555 1_555
H2 O18 1_555 1_555
H3 O18 1_555 1_555
O19 Co5 1_555 1_555
H4 O19 1_555 1_555
H5 O19 1_555 1_555
O20 Co5 1_555 1_555
H6 O20 1_555 1_555
H7 O20 1_555 1_555
O21 Co5 1_555 1_555
H8 O21 1_555 1_555
H9 O21 1_555 1_555
O22 Co5 1_555 1_555
H10 O22 1_555 1_555
H11 O22 1_555 1_555
O23 Co1 1_555 1_555
H12 O23 1_555 1_555
H13 O23 1_555 1_555
O24 Co1 1_555 1_555
H14 O24 1_555 1_555
H15 O24 1_555 1_555
O25 Co4 1_555 1_555
H16 O25 1_555 1_555
H17 O25 1_555 1_555
O26 Co4 1_555 1_555
H18 O26 1_555 1_555
H19 O26 1_555 1_555
O27 Co3 1_555 1_555
H20 O27 1_555 1_555
H21 O27 1_555 1_555
O28 Co2 1_555 1_555
H22 O28 1_555 1_555
H23 O28 1_555 1_555
O30 Co1 1_555 1_555
O31 Co2 1_555 1_555
O32 Co4 1_555 1_555
C1 O1 1_555 1_555
C2 C1 1_555 1_555
C3 C2 1_555 1_555
H24 C3 1_555 1_555
C4 S5 1_555 1_555
C5 C4 1_555 1_555
H25 C5 1_555 1_555
C6 C1 1_555 1_555
C7 O2 1_555 1_555
C8 S1 1_555 1_555
C9 C8 1_555 1_555
H26 C9 1_555 1_555
C10 S6 1_555 1_555
C11 C10 1_555 1_555
H27 C11 1_555 1_555
C12 C7 1_555 1_555
C13 O3 1_555 1_555
C14 S2 1_555 1_555
C15 C14 1_555 1_555
H28 C15 1_555 1_555
C16 S7 1_555 1_555
C17 C16 1_555 1_555
H29 C17 1_555 1_555
C18 C13 1_555 1_555
C19 O4 1_555 1_555
C20 S3 1_555 1_555
C21 C20 1_555 1_555
H30 C21 1_555 1_555
C22 S8 1_555 1_555
C23 C22 1_555 1_555
H31 C23 1_555 1_555
C24 S4 1_555 1_555
C25 O17 1_555 1_555
H32 C25 1_555 1_555
H33 C25 1_555 1_555
H34 C25 1_555 1_555
Co2A O9 1_555 1_555
Co3A O13 1_555 1_555
O9A Co2 1_555 1_555
O13A Co3 1_555 1_555
Co2 O1 1_555 1_555
Co3 O2 1_555 1_555
Co3 O31 1_555 1_555
Co4 O3 1_555 1_555
Co4 O4 1_555 1_555
S9 O30 1_555 1_555
S9 O31 1_555 1_555
S9 O32 1_555 1_555
C3 C4 1_555 1_555
C5 C6 1_555 1_555
C7 C8 1_555 1_555
C9 C10 1_555 1_555
C11 C12 1_555 1_555
C13 C14 1_555 1_555
C15 C16 1_555 1_555
C17 C18 1_555 1_555
C19 C20 1_555 1_555
C19 C24 1_555 1_555
C21 C22 1_555 1_555
C23 C24 1_555 1_555

#END
