
#######################################################################
#
#                 Cambridge Crystallographic Data Centre
#                                CCDC 
#
#######################################################################
#
# If this CIF has been generated from an entry in the Cambridge 
# Structural Database, then it will include bibliographic, chemical, 
# crystal, experimental, refinement or atomic coordinate data resulting 
# from the CCDC's data processing and validation procedures.
#
#######################################################################

data_BIYFAR
_symmetry_cell_setting           triclinic
_symmetry_space_group_name_H-M   'P -1'
_symmetry_Int_Tables_number      2
_space_group_name_Hall           '-P 1'
loop_
_symmetry_equiv_pos_site_id
_symmetry_equiv_pos_as_xyz
1 x,y,z
2 -x,-y,-z
_cell_length_a                   11.860(2)
_cell_length_b                   18.029(4)
_cell_length_c                   20.069(4)
_cell_angle_alpha                106.94(3)
_cell_angle_beta                 92.27(3)
_cell_angle_gamma                97.02(3)
_cell_volume                     4061.46
loop_
_atom_site_label
_atom_site_type_symbol
_atom_site_fract_x
_atom_site_fract_y
_atom_site_fract_z
Co1 Co 0.21674(17) 0.80559(12) 0.28385(10)
Co2 Co 0.28478(18) 0.19476(12) 0.21630(10)
O1 O 0.1575(10) 0.6935(6) 0.2731(6)
O2 O 0.3410(8) 0.7047(5) 0.2571(5)
O3 O 0.3397(8) 0.3088(5) 0.2267(5)
O4 O 0.1586(11) 0.2956(7) 0.2432(6)
O5 O 0.3396(10) 0.8891(6) 0.3331(5)
O6 O 0.2718(10) 0.8393(6) 0.4144(5)
O7 O 0.1616(9) 0.1098(6) 0.1642(5)
O8 O 0.2265(10) 0.1630(7) 0.0866(5)
N1 N 0.0647(10) 0.8451(7) 0.3096(5)
N2 N -0.2664(11) 0.8204(8) 0.6873(6)
N3 N 0.5664(12) 0.8499(8) -0.1890(7)
C1 C 0.2525(13) 0.5777(8) 0.2550(7)
C2 C 0.1693(14) 0.5387(10) 0.2844(8)
H1 H 0.1123 0.5662 0.3084
C3 C 0.1683(14) 0.4590(9) 0.2791(8)
H2 H 0.1116 0.4323 0.2992
C4 C 0.2521(13) 0.4211(9) 0.2438(8)
C5 C 0.3327(13) 0.4575(9) 0.2131(7)
H3 H 0.3878 0.4293 0.1877
C6 C 0.3334(13) 0.5336(9) 0.2189(7)
H4 H 0.3906 0.5587 0.1978
C7 C 0.2445(13) 0.6620(9) 0.2627(7)
C8 C 0.2409(15) 0.3361(10) 0.2384(8)
C9 C 0.4218(14) 0.9423(9) 0.4513(8)
C10 C 0.4920(13) 1.0008(9) 0.4326(8)
H5 H 0.4870 1.0008 0.3853
C11 C 0.4305(13) 0.9408(8) 0.5192(7)
H6 H 0.3857 0.9016 0.5333
C12 C 0.3392(13) 0.8869(9) 0.3964(7)
C13 C 0.0729(12) 0.0540(8) 0.0520(7)
C14 C 0.0676(13) 0.0546(9) -0.0182(8)
H7 H 0.1176 0.0929 -0.0305
C15 C 0.0045(13) -0.0037(9) 0.0681(8)
H8 H 0.0080 -0.0076 0.1143
C16 C 0.1563(15) 0.1135(10) 0.1028(9)
C17 C -0.0321(14) 0.7982(10) 0.2948(8)
H9 H -0.0335 0.7463 0.2650
C18 C -0.1326(12) 0.8213(8) 0.3210(7)
H10 H -0.2013 0.7855 0.3096
C19 C -0.1325(17) 0.8990(11) 0.3652(9)
C20 C -0.0283(15) 0.9465(10) 0.3770(8)
H11 H -0.0233 0.9992 0.4059
C21 C 0.0669(16) 0.9205(11) 0.3489(9)
H12 H 0.1360 0.9556 0.3568
N7 N 0.2353(8) 0.8195(6) 0.1863(4)
C22 C 0.1450(8) 0.8186(7) 0.1410(5)
H13 H 0.0693 0.8064 0.1522
C23 C 0.1641(10) 0.8352(8) 0.0796(6)
H14 H 0.1016 0.8346 0.0483
C24 C 0.2735(10) 0.8528(8) 0.0635(6)
C25 C 0.3638(8) 0.8537(7) 0.1087(6)
H15 H 0.4396 0.8659 0.0975
C26 C 0.3447(8) 0.8371(5) 0.1701(5)
H16 H 0.4073 0.8377 0.2015
C27 C -0.3518(12) 0.8178(9) 0.6429(7)
H17 H -0.4272 0.8072 0.6553
C28 C -0.3373(15) 0.8298(11) 0.5797(8)
H18 H -0.4027 0.8266 0.5495
C29 C -0.2317(18) 0.8463(12) 0.5584(10)
C30 C -0.1430(14) 0.8502(9) 0.6062(8)
H19 H -0.0667 0.8635 0.5965
C31 C -0.1649(14) 0.8349(9) 0.6669(8)
H20 H -0.1013 0.8348 0.6971
C32 C 0.5612(13) 0.9235(8) -0.1480(7)
H21 H 0.6290 0.9602 -0.1372
C33 C 0.4618(15) 0.9481(10) -0.1211(8)
H22 H 0.4621 1.0009 -0.0936
C34 C 0.3631(12) 0.8965(9) -0.1341(7)
C35 C 0.3675(17) 0.8243(12) -0.1767(9)
H23 H 0.2999 0.7876 -0.1893
C36 C 0.4666(14) 0.8026(10) -0.2022(8)
H24 H 0.4652 0.7504 -0.2313
C73 C -0.2239(13) 0.8405(7) 0.4802(7)
H49 H -0.2893 0.8047 0.4512
H50 H -0.1523 0.8214 0.4633
C74 C -0.2261(11) 0.9236(7) 0.4780(6)
H51 H -0.2921 0.9446 0.5018
H52 H -0.1557 0.9573 0.5028
C75 C -0.2351(17) 0.9245(12) 0.4011(7)
H53 H -0.2430 0.9781 0.3998
H54 H -0.3040 0.8892 0.3761
C76 C 0.2585(12) 0.9200(8) -0.1019(7)
H55 H 0.2716 0.9771 -0.0780
H56 H 0.1965 0.9099 -0.1393
C77 C 0.2194(11) 0.8771(9) -0.0489(6)
H57 H 0.2083 0.8198 -0.0713
H58 H 0.1462 0.8927 -0.0315
C78 C 0.3098(11) 0.8991(9) 0.0105(6)
H59 H 0.3837 0.8858 -0.0073
H60 H 0.3185 0.9562 0.0342
Co1A Co 0.78326(17) 1.19441(12) 0.71615(10)
Co1A_2 Co -0.21674(17) 0.19441(12) 0.71615(10)
Co1A_3 Co 0.78326(17) 0.19441(12) -0.28385(10)
Co2A Co -0.28478(18) 0.80524(12) 0.78370(10)
Co2A_2 Co 0.71522(18) 0.80524(12) -0.21630(10)
Co2A_3 Co -0.28478(18) -0.19476(12) -0.21630(10)
O1A O -0.1575(10) 0.3065(6) 0.7269(6)
O2A O -0.3410(8) 0.2953(5) 0.7429(5)
O3A O -0.3397(8) 0.6912(5) 0.7733(5)
O3A_2 O -0.3397(8) -0.3088(5) -0.2267(5)
O4A O -0.1586(11) 0.7044(7) 0.7568(6)
O5A O 0.6604(10) 1.1109(6) 0.6669(5)
O5A_2 O -0.3396(10) 0.1109(6) 0.6669(5)
O6A O 0.7282(10) 1.1607(6) 0.5856(5)
O7A O -0.1616(9) -0.1098(6) -0.1642(5)
O8A O -0.2265(10) -0.1630(7) -0.0866(5)
N1A N -0.0647(10) 0.1549(7) 0.6904(5)
N2A N 0.2664(11) 0.1796(8) 0.3127(6)
N2_2 N -0.2664(11) -0.1796(8) -0.3127(6)
N3A N 0.4336(12) 0.1501(8) 0.1890(7)
N3_2 N -0.4336(12) -0.1501(8) -0.1890(7)
C1A C -0.2525(13) 0.4223(8) 0.7450(7)
C2A C -0.1693(14) 0.4613(10) 0.7156(8)
H1A H -0.1123 0.4338 0.6916
C3A C -0.1683(14) 0.5410(9) 0.7209(8)
H2A H -0.1116 0.5677 0.7008
C4A C -0.2521(13) 0.5789(9) 0.7562(8)
C5A C -0.3327(13) 0.5425(9) 0.7869(7)
H3A H -0.3878 0.5707 0.8123
C6A C -0.3334(13) 0.4664(9) 0.7811(7)
H4A H -0.3906 0.4413 0.8022
C7A C -0.2445(13) 0.3380(9) 0.7373(7)
C8A C -0.2409(15) 0.6639(10) 0.7616(8)
C9A C 0.5782(14) 1.0577(9) 0.5487(8)
C10A C 0.5080(13) 0.9992(9) 0.5674(8)
H5A H 0.5130 0.9992 0.6147
C11A C 0.5695(13) 1.0592(8) 0.4808(7)
H6A H 0.6143 1.0984 0.4667
C12A C 0.6608(13) 1.1131(9) 0.6036(7)
C13A C -0.0729(12) -0.0540(8) -0.0520(7)
C14A C -0.0676(13) -0.0546(9) 0.0182(8)
H7A H -0.1176 -0.0929 0.0305
C15A C -0.0045(13) 0.0037(9) -0.0681(8)
H8A H -0.0080 0.0076 -0.1143
C16A C -0.1563(15) -0.1135(10) -0.1028(9)
C17A C 0.0321(14) 0.2018(10) 0.7052(8)
H9A H 0.0335 0.2537 0.7350
C18A C 0.1326(12) 0.1787(8) 0.6790(7)
H10A H 0.2013 0.2145 0.6904
C19A C 0.1325(17) 0.1010(11) 0.6348(9)
C20A C 0.0283(15) 0.0535(10) 0.6230(8)
H11A H 0.0233 0.0008 0.5941
C21A C -0.0669(16) 0.0795(11) 0.6511(9)
H12A H -0.1360 0.0444 0.6432
N7A N 0.7647(8) 0.1805(6) -0.1863(4)
N7A_2 N -0.2353(8) 0.1805(6) 0.8137(4)
C22A C 0.8550(8) 0.1814(7) -0.1410(5)
H13A H 0.9307 0.1936 -0.1522
C23A C 0.8359(10) 0.1648(8) -0.0796(6)
H14A H 0.8984 0.1654 -0.0483
C24A C 0.7265(10) 0.1472(8) -0.0635(6)
C25A C 0.6362(8) 0.1463(7) -0.1087(6)
H15A H 0.5604 0.1341 -0.0975
C26A C 0.6553(8) 0.1629(5) -0.1701(5)
H16A H 0.5927 0.1623 -0.2015
C27A C 0.3518(12) 0.1822(9) 0.3571(7)
H17A H 0.4272 0.1928 0.3447
C28A C 0.3373(15) 0.1702(11) 0.4203(8)
H18A H 0.4027 0.1734 0.4505
C29A C 0.2317(18) 0.1537(12) 0.4416(10)
C30A C 0.1430(14) 0.1498(9) 0.3938(8)
H19A H 0.0667 0.1365 0.4035
C31A C 0.1649(14) 0.1651(9) 0.3331(8)
H20A H 0.1013 0.1652 0.3029
C32A C 0.4388(13) 0.0765(8) 0.1480(7)
H21A H 0.3710 0.0398 0.1372
C33A C 0.5382(15) 0.0519(10) 0.1211(8)
H22A H 0.5379 -0.0009 0.0936
C34A C 0.6369(12) 0.1035(9) 0.1341(7)
C35A C 0.6325(17) 0.1757(12) 0.1767(9)
H23A H 0.7001 0.2124 0.1893
C36A C 0.5334(14) 0.1974(10) 0.2022(8)
H24A H 0.5348 0.2496 0.2313
C73A C 0.2239(13) 0.1595(7) 0.5198(7)
H49A H 0.2893 0.1953 0.5488
H50A H 0.1523 0.1786 0.5367
C74A C 0.2261(11) 0.0764(7) 0.5220(6)
H51A H 0.2921 0.0554 0.4982
H52A H 0.1557 0.0427 0.4972
C75A C 0.2351(17) 0.0755(12) 0.5989(7)
H53A H 0.2430 0.0219 0.6002
H54A H 0.3040 0.1108 0.6239
C76A C 0.7415(12) 0.0800(8) 0.1019(7)
H55A H 0.7284 0.0229 0.0780
H56A H 0.8035 0.0901 0.1393
C77A C 0.7806(11) 0.1229(9) 0.0489(6)
H57A H 0.7917 0.1802 0.0713
H58A H 0.8538 0.1073 0.0315
C78A C 0.6902(11) 0.1009(9) -0.0105(6)
H59A H 0.6163 0.1142 0.0073
H60A H 0.6815 0.0438 -0.0342
Co3 Co 0.16571(17) 0.69425(12) 0.59699(10)
Co4 Co 0.33519(18) 0.30501(12) 0.90285(10)
O9 O 0.3649(8) 0.3910(5) 0.8580(5)
O10 O 0.1836(9) 0.3393(6) 0.8260(5)
O11 O 0.1409(11) 0.6109(7) 0.6420(6)
O12 O 0.3146(11) 0.6626(7) 0.6745(6)
O13 O 0.2331(9) 0.8080(6) 0.6183(5)
O14 O 0.1122(10) 0.7965(6) 0.6969(5)
O15 O 0.2650(9) 1.1920(6) 0.8781(5)
O16 O 0.3889(10) 1.2050(6) 0.8020(5)
N4 N 0.2590(12) 0.6530(8) 0.5151(6)
N5 N 1.0051(9) 0.6795(6) 0.5501(6)
N6 N 0.2410(10) 0.3469(7) 0.9872(6)
C37 C 0.2584(12) 0.4420(8) 0.7872(7)
C38 C 0.1584(15) 0.4443(10) 0.7453(8)
H25 H 0.0952 0.4050 0.7413
C39 C 0.1466(11) 0.4990(7) 0.7105(6)
H26 H 0.0785 0.4986 0.6838
C40 C 0.2394(15) 0.5528(9) 0.7172(8)
C41 C 0.3398(13) 0.5588(8) 0.7537(7)
H27 H 0.4015 0.5985 0.7557
C42 C 0.3464(16) 0.5020(10) 0.7886(8)
H28 H 0.4157 0.5044 0.8151
C43 C 0.2708(15) 0.3876(9) 0.8273(8)
C44 C 0.2364(15) 0.6129(10) 0.6778(8)
C45 C 0.2216(15) 0.9224(9) 0.7145(8)
C46 C 0.3268(12) 0.9636(9) 0.7080(7)
H29 H 0.3789 0.9365 0.6786
C47 C 0.1473(13) 0.9662(9) 0.7587(7)
H30 H 0.0742 0.9412 0.7638
C48 C 0.1899(14) 0.8373(10) 0.6754(8)
C49 C 0.2854(13) 1.0789(9) 0.7861(8)
C50 C 0.3565(15) 1.0414(9) 0.7426(8)
H31 H 0.4270 1.0684 0.7359
C51 C 0.1796(14) 1.0461(9) 0.7953(7)
H32 H 0.1300 1.0756 0.8249
C52 C 0.3189(13) 1.1631(9) 0.8238(7)
C53 C 0.3099(12) 0.6981(8) 0.4853(7)
H33 H 0.2933 0.7504 0.4979
C54 C 0.3895(12) 0.6784(8) 0.4346(7)
H34 H 0.4240 0.7151 0.4133
C55 C 0.4136(12) 0.6044(9) 0.4185(7)
C56 C 0.3600(14) 0.5497(10) 0.4476(8)
H35 H 0.3734 0.4967 0.4356
C57 C 0.2880(14) 0.5792(10) 0.4940(8)
H36 H 0.2513 0.5436 0.5157
C58 C 0.9798(12) 0.6782(9) 0.4858(7)
H37 H 1.0398 0.6904 0.4591
C59 C 0.8709(12) 0.6600(10) 0.4551(7)
H38 H 0.8564 0.6623 0.4089
C60 C 0.7808(12) 0.6383(11) 0.4915(8)
C61 C 0.8078(13) 0.6445(9) 0.5589(8)
H39 H 0.7500 0.6354 0.5881
C62 C 0.9179(11) 0.6639(8) 0.5843(6)
H40 H 0.9338 0.6664 0.6317
C63 C 0.2208(15) 0.4211(10) 1.0026(8)
H41 H 0.2594 0.4571 0.9819
C64 C 0.1376(14) 0.4435(10) 1.0521(7)
H42 H 0.1221 0.4959 1.0624
C65 C 0.0792(15) 0.3981(11) 1.0856(8)
C66 C 0.1097(17) 0.3207(12) 1.0675(9)
H43 H 0.0735 0.2851 1.0894
C67 C 0.1863(15) 0.2950(11) 1.0212(8)
H44 H 0.2035 0.2430 1.0116
N8 N -0.5024(8) 0.3208(6) 0.9488(5)
C68 C -0.4130(9) 0.3382(6) 0.9117(5)
H45 H -0.4271 0.3400 0.8653
C69 C -0.3031(9) 0.3531(7) 0.9419(7)
H46 H -0.2414 0.3651 0.9163
C70 C -0.2826(10) 0.3506(8) 1.0091(7)
C71 C -0.3720(11) 0.3332(8) 1.0462(6)
H47 H -0.3579 0.3315 1.0926
C72 C -0.4820(10) 0.3183(6) 1.0161(5)
H48 H -0.5437 0.3063 1.0417
C79 C 0.5082(12) 0.5803(11) 0.3679(8)
H61 H 0.4811 0.5288 0.3333
H62 H 0.5236 0.6192 0.3421
C80 C 0.6191(17) 0.5754(12) 0.4079(12)
H65 H 0.6046 0.5365 0.4338
H66 H 0.6773 0.5586 0.3747
C81 C 0.6617(16) 0.6560(11) 0.4587(10)
H67 H 0.6080 0.6723 0.4950
H68 H 0.6756 0.6963 0.4343
C84 C -0.0086(12) 0.4234(11) 1.1306(8)
H73 H -0.0113 0.4797 1.1367
H74 H 0.0111 0.4178 1.1771
C85 C -0.1273(18) 0.3774(18) 1.1029(13)
H77 H -0.1256 0.3206 1.0942
H78 H -0.1835 0.3942 1.1374
C86 C -0.1599(15) 0.3943(17) 1.0349(12)
H79 H -0.1059 0.3752 0.9995
H80 H -0.1583 0.4513 1.0431
Co3_2 Co -0.83429(17) 0.69425(12) 0.59699(10)
Co3_3 Co 1.16571(17) 0.69425(12) 0.59699(10)
Co3_4 Co 0.16571(17) -0.30575(12) 0.59699(10)
Co4_2 Co 0.33519(18) 1.30501(12) 0.90285(10)
Co4_3 Co -0.66481(18) 0.30501(12) 0.90285(10)
Co4_4 Co 1.33519(18) 0.30501(12) 0.90285(10)
O9_2 O 1.3649(8) 0.3910(5) 0.8580(5)
O10_2 O 1.1836(9) 0.3393(6) 0.8260(5)
O11_2 O 1.1409(11) 0.6109(7) 0.6420(6)
O11_3 O 0.1409(11) -0.3891(7) 0.6420(6)
O12_2 O 1.3146(11) 0.6626(7) 0.6745(6)
O13_2 O 0.2331(9) -0.1920(6) 0.6183(5)
O14_2 O 0.1122(10) -0.2035(6) 0.6969(5)
O15_2 O 0.2650(9) 0.1920(6) 0.8781(5)
O15_3 O 1.2650(9) 0.1920(6) 0.8781(5)
O16_2 O 0.3889(10) 0.2050(6) 0.8020(5)
N4_2 N -0.7410(12) 0.6530(8) 0.5151(6)
N4_3 N 0.2590(12) -0.3470(8) 0.5151(6)
N5_2 N 0.0051(9) 0.6795(6) 0.5501(6)
N5_3 N 0.0051(9) -0.3205(6) 0.5501(6)
N6_2 N 1.2410(10) 0.3469(7) 0.9872(6)
C37_2 C 1.2584(12) 0.4420(8) 0.7872(7)
C38_2 C 1.1584(15) 0.4443(10) 0.7453(8)
H25_2 H 1.0952 0.4050 0.7413
C39_2 C 1.1466(11) 0.4990(7) 0.7105(6)
H26_2 H 1.0785 0.4986 0.6838
C40_2 C 1.2394(15) 0.5528(9) 0.7172(8)
C41_2 C 1.3398(13) 0.5588(8) 0.7537(7)
H27_2 H 1.4015 0.5985 0.7557
C42_2 C 1.3464(16) 0.5020(10) 0.7886(8)
H28_2 H 1.4157 0.5044 0.8151
C43_2 C 1.2708(15) 0.3876(9) 0.8273(8)
C44_2 C 1.2364(15) 0.6129(10) 0.6778(8)
C45_2 C 0.2216(15) -0.0776(9) 0.7145(8)
C46_2 C 0.3268(12) -0.0364(9) 0.7080(7)
H29_2 H 0.3789 -0.0635 0.6786
C47_2 C 0.1473(13) -0.0338(9) 0.7587(7)
H30_2 H 0.0742 -0.0588 0.7638
C48_2 C 0.1899(14) -0.1627(10) 0.6754(8)
C49_2 C 0.2854(13) 0.0789(9) 0.7861(8)
C50_2 C 0.3565(15) 0.0414(9) 0.7426(8)
H31_2 H 0.4270 0.0684 0.7359
C51_2 C 0.1796(14) 0.0461(9) 0.7953(7)
H32_2 H 0.1300 0.0756 0.8249
C52_2 C 0.3189(13) 0.1631(9) 0.8238(7)
C53_2 C -0.6901(12) 0.6981(8) 0.4853(7)
H33_2 H -0.7067 0.7504 0.4979
C54_2 C -0.6105(12) 0.6784(8) 0.4346(7)
H34_2 H -0.5760 0.7151 0.4133
C55_2 C -0.5864(12) 0.6044(9) 0.4185(7)
C56_2 C -0.6400(14) 0.5497(10) 0.4476(8)
H35_2 H -0.6266 0.4967 0.4356
C57_2 C -0.7120(14) 0.5792(10) 0.4940(8)
H36_2 H -0.7487 0.5436 0.5157
C58_2 C -0.0202(12) 0.6782(9) 0.4858(7)
H37_2 H 0.0398 0.6904 0.4591
C59_2 C -0.1291(12) 0.6600(10) 0.4551(7)
H38_2 H -0.1436 0.6623 0.4089
C60_2 C -0.2192(12) 0.6383(11) 0.4915(8)
C61_2 C -0.1922(13) 0.6445(9) 0.5589(8)
H39_2 H -0.2500 0.6354 0.5881
C62_2 C -0.0821(11) 0.6639(8) 0.5843(6)
H40_2 H -0.0662 0.6664 0.6317
C63_2 C 1.2208(15) 0.4211(10) 1.0026(8)
H41_2 H 1.2594 0.4571 0.9819
C64_2 C 1.1376(14) 0.4435(10) 1.0521(7)
H42_2 H 1.1221 0.4959 1.0624
C65_2 C 1.0792(15) 0.3981(11) 1.0856(8)
C66_2 C 1.1097(17) 0.3207(12) 1.0675(9)
H43_2 H 1.0735 0.2851 1.0894
C67_2 C 1.1863(15) 0.2950(11) 1.0212(8)
H44_2 H 1.2035 0.2430 1.0116
N8_2 N 0.4976(8) 0.3208(6) 0.9488(5)
N8_3 N 1.4976(8) 0.3208(6) 0.9488(5)
C68_2 C 0.5870(9) 0.3382(6) 0.9117(5)
H45_2 H 0.5729 0.3400 0.8653
C69_2 C 0.6969(9) 0.3531(7) 0.9419(7)
H46_2 H 0.7586 0.3651 0.9163
C70_2 C 0.7174(10) 0.3506(8) 1.0091(7)
C71_2 C 0.6280(11) 0.3332(8) 1.0462(6)
H47_2 H 0.6421 0.3315 1.0926
C72_2 C 0.5180(10) 0.3183(6) 1.0161(5)
H48_2 H 0.4563 0.3063 1.0417
C79_2 C -0.4918(12) 0.5803(11) 0.3679(8)
H61_2 H -0.5189 0.5288 0.3333
H62_2 H -0.4764 0.6192 0.3421
C80_2 C -0.3809(17) 0.5754(12) 0.4079(12)
H65_2 H -0.3954 0.5365 0.4338
H66_2 H -0.3227 0.5586 0.3747
C81_2 C -0.3383(16) 0.6560(11) 0.4587(10)
H67_2 H -0.3920 0.6723 0.4950
H68_2 H -0.3244 0.6963 0.4343
C84_2 C 0.9914(12) 0.4234(11) 1.1306(8)
H73_2 H 0.9887 0.4797 1.1367
H74_2 H 1.0111 0.4178 1.1771
C85_2 C 0.8727(18) 0.3774(18) 1.1029(13)
H77_2 H 0.8744 0.3206 1.0942
H78_2 H 0.8165 0.3942 1.1374
C86_2 C 0.8401(15) 0.3943(17) 1.0349(12)
H79_2 H 0.8941 0.3752 0.9995
H80_2 H 0.8417 0.4513 1.0431
O17 O -0.0372(12) 0.3716(8) 0.8663(6)
O18 O 0.5363(10) 0.6286(7) 0.6315(5)
O19 O 0.3812(12) 0.1302(8) -0.0187(7)
O20 O 0.1132(11) 0.8698(7) 0.5201(6)
O21 O 0.0653(12) 0.7516(9) 0.8178(6)
O22 O 0.4342(14) 0.2492(10) 0.6837(7)
H63? H 0.5107 0.5235 0.3582
H64? H 0.4878 0.5898 0.3230
C82? C 0.6274(16) 0.6249(15) 0.3966(12)
H69? H 0.6812 0.6160 0.3596
H70? H 0.6244 0.6818 0.4152
C83? C 0.664(2) 0.5922(17) 0.4549(13)
H71? H 0.6712 0.5360 0.4352
H72? H 0.6060 0.5971 0.4895
H75? H 1.0163 0.4767 1.1628
H76? H 0.9728 0.3872 1.1587
C87? C 0.887(2) 0.4233(17) 1.0823(14)
H81? H 0.8300 0.4514 1.1106
H82? H 0.9105 0.4514 1.0484
C88? C 0.833(2) 0.3398(18) 1.043(2)
H83? H 0.8196 0.3079 1.0752
H84? H 0.8814 0.3143 1.0066
loop_
_geom_bond_atom_site_label_1
_geom_bond_atom_site_label_2
_geom_bond_site_symmetry_1
_geom_bond_site_symmetry_2
Co1 O1 1_555 1_555
Co2 O3 1_555 1_555
Co3 O11 1_555 1_555
Co4 O9 1_555 1_555
O1 C7 1_555 1_555
O2 C7 1_555 1_555
O3 C8 1_555 1_555
O4 C8 1_555 1_555
O5 Co1 1_555 1_555
O6 C12 1_555 1_555
O7 Co2 1_555 1_555
O8 C16 1_555 1_555
O9 C43 1_555 1_555
O10 C43 1_555 1_555
O11 C44 1_555 1_555
O12 C44 1_555 1_555
O13 Co3 1_555 1_555
O14 C48 1_555 1_555
O15 C52 1_555 1_555
O16 C52 1_555 1_555
N1 Co1 1_555 1_555
N2 C27 1_555 1_555
N3 C32 1_555 1_555
N4 Co3 1_555 1_555
N5 C58 1_555 1_555
N6 Co4 1_555 1_555
C1 C2 1_555 1_555
C2 H1 1_555 1_555
C3 C2 1_555 1_555
H2 C3 1_555 1_555
C4 C3 1_555 1_555
C5 C4 1_555 1_555
H3 C5 1_555 1_555
C6 C1 1_555 1_555
H4 C6 1_555 1_555
C7 C1 1_555 1_555
C8 C4 1_555 1_555
C9 C10 1_555 1_555
C10 H5 1_555 1_555
C11 C9 1_555 1_555
H6 C11 1_555 1_555
C12 O5 1_555 1_555
C13 C14 1_555 1_555
C14 H7 1_555 1_555
C15 C13 1_555 1_555
H8 C15 1_555 1_555
C16 O7 1_555 1_555
C17 N1 1_555 1_555
H9 C17 1_555 1_555
C18 C17 1_555 1_555
H10 C18 1_555 1_555
C19 C18 1_555 1_555
C20 C19 1_555 1_555
H11 C20 1_555 1_555
C21 N1 1_555 1_555
H12 C21 1_555 1_555
N7 Co1 1_555 1_555
C22 N7 1_555 1_555
H13 C22 1_555 1_555
C23 C22 1_555 1_555
H14 C23 1_555 1_555
C24 C23 1_555 1_555
C25 C24 1_555 1_555
H15 C25 1_555 1_555
C26 N7 1_555 1_555
H16 C26 1_555 1_555
C27 H17 1_555 1_555
C28 C27 1_555 1_555
H18 C28 1_555 1_555
C29 C28 1_555 1_555
C30 C29 1_555 1_555
H19 C30 1_555 1_555
C31 N2 1_555 1_555
H20 C31 1_555 1_555
C32 H21 1_555 1_555
C33 C32 1_555 1_555
H22 C33 1_555 1_555
C34 C33 1_555 1_555
C35 C34 1_555 1_555
H23 C35 1_555 1_555
C36 N3 1_555 1_555
H24 C36 1_555 1_555
C37 C38 1_555 1_555
C38 H25 1_555 1_555
C39 C38 1_555 1_555
H26 C39 1_555 1_555
C40 C39 1_555 1_555
C41 C40 1_555 1_555
H27 C41 1_555 1_555
C42 C37 1_555 1_555
H28 C42 1_555 1_555
C43 C37 1_555 1_555
C44 C40 1_555 1_555
C45 C46 1_555 1_555
C46 H29 1_555 1_555
C47 C45 1_555 1_555
H30 C47 1_555 1_555
C48 O13 1_555 1_555
C49 C50 1_555 1_555
C50 C46 1_555 1_555
H31 C50 1_555 1_555
C51 C47 1_555 1_555
H32 C51 1_555 1_555
C52 C49 1_555 1_555
C53 N4 1_555 1_555
H33 C53 1_555 1_555
C54 C53 1_555 1_555
H34 C54 1_555 1_555
C55 C54 1_555 1_555
C56 C55 1_555 1_555
H35 C56 1_555 1_555
C57 N4 1_555 1_555
H36 C57 1_555 1_555
C58 H37 1_555 1_555
C59 C58 1_555 1_555
H38 C59 1_555 1_555
C60 C59 1_555 1_555
C61 C60 1_555 1_555
H39 C61 1_555 1_555
C62 N5 1_555 1_555
H40 C62 1_555 1_555
C63 N6 1_555 1_555
H41 C63 1_555 1_555
C64 C63 1_555 1_555
H42 C64 1_555 1_555
C65 C64 1_555 1_555
C66 C65 1_555 1_555
H43 C66 1_555 1_555
C67 N6 1_555 1_555
H44 C67 1_555 1_555
N8 C68 1_555 1_555
C68 H45 1_555 1_555
C69 C68 1_555 1_555
H46 C69 1_555 1_555
C70 C69 1_555 1_555
C71 C70 1_555 1_555
H47 C71 1_555 1_555
C72 N8 1_555 1_555
H48 C72 1_555 1_555
C73 C29 1_555 1_555
H49 C73 1_555 1_555
H50 C73 1_555 1_555
C74 C73 1_555 1_555
H51 C74 1_555 1_555
H52 C74 1_555 1_555
C75 C19 1_555 1_555
H53 C75 1_555 1_555
H54 C75 1_555 1_555
C76 C34 1_555 1_555
H55 C76 1_555 1_555
H56 C76 1_555 1_555
C77 C76 1_555 1_555
H57 C77 1_555 1_555
H58 C77 1_555 1_555
C78 C24 1_555 1_555
H59 C78 1_555 1_555
H60 C78 1_555 1_555
C79 C55 1_555 1_555
H61 C79 1_555 1_555
H62 C79 1_555 1_555
C80 C79 1_555 1_555
H65 C80 1_555 1_555
H66 C80 1_555 1_555
C81 C60 1_555 1_555
H67 C81 1_555 1_555
H68 C81 1_555 1_555
C84 C65 1_555 1_555
H73 C84 1_555 1_555
H74 C84 1_555 1_555
C85 C84 1_555 1_555
H77 C85 1_555 1_555
H78 C85 1_555 1_555
C86 C70 1_555 1_555
H79 C86 1_555 1_555
H80 C86 1_555 1_555
Co1A O5A 1_555 1_555
Co1A_2 O1A 1_555 1_555
Co1A_3 N7A 1_555 1_555
Co2A N2 1_555 1_555
Co2A_2 N3 1_555 1_555
Co2A_3 O3A_2 1_555 1_555
Co3_2 N4_2 1_555 1_555
Co3_3 N5 1_555 1_555
Co3_4 O11_3 1_555 1_555
Co4_2 O15 1_555 1_555
Co4_3 N8 1_555 1_555
Co4_4 O9_2 1_555 1_555
O1A C7A 1_555 1_555
O2A C7A 1_555 1_555
O3A Co2A 1_555 1_555
O4A C8A 1_555 1_555
O5A C12A 1_555 1_555
O5A_2 Co1A_2 1_555 1_555
O6A C12A 1_555 1_555
O7A Co2A_3 1_555 1_555
O8A C16A 1_555 1_555
O9_2 C43_2 1_555 1_555
O10_2 C43_2 1_555 1_555
O11_2 Co3_3 1_555 1_555
O12_2 C44_2 1_555 1_555
O13_2 Co3_4 1_555 1_555
O14_2 C48_2 1_555 1_555
O15_2 Co4 1_555 1_555
O15_3 Co4_4 1_555 1_555
O16_2 C52_2 1_555 1_555
N1A Co1A_2 1_555 1_555
N2A Co2 1_555 1_555
N2_2 Co2A_3 1_555 1_555
N3A Co2 1_555 1_555
N3_2 Co2A_3 1_555 1_555
N4_2 C53_2 1_555 1_555
N4_3 Co3_4 1_555 1_555
N5_2 Co3 1_555 1_555
N5_3 Co3_4 1_555 1_555
N6_2 Co4_4 1_555 1_555
C1A C2A 1_555 1_555
C2A H1A 1_555 1_555
C3A C2A 1_555 1_555
H2A C3A 1_555 1_555
C4A C3A 1_555 1_555
C5A C4A 1_555 1_555
H3A C5A 1_555 1_555
C6A C1A 1_555 1_555
H4A C6A 1_555 1_555
C7A C1A 1_555 1_555
C8A O3A 1_555 1_555
C9A C10A 1_555 1_555
C10A C11 1_555 1_555
H5A C10A 1_555 1_555
C11A C10 1_555 1_555
H6A C11A 1_555 1_555
C12A C9A 1_555 1_555
C13A C14A 1_555 1_555
C14A C15 1_555 1_555
H7A C14A 1_555 1_555
C15A C14 1_555 1_555
H8A C15A 1_555 1_555
C16A O7A 1_555 1_555
C17A N1A 1_555 1_555
H9A C17A 1_555 1_555
C18A C17A 1_555 1_555
H10A C18A 1_555 1_555
C19A C18A 1_555 1_555
C20A C19A 1_555 1_555
H11A C20A 1_555 1_555
C21A N1A 1_555 1_555
H12A C21A 1_555 1_555
N7A C22A 1_555 1_555
N7A_2 Co1A_2 1_555 1_555
C22A H13A 1_555 1_555
C23A C22A 1_555 1_555
H14A C23A 1_555 1_555
C24A C23A 1_555 1_555
C25A C24A 1_555 1_555
H15A C25A 1_555 1_555
C26A N7A 1_555 1_555
H16A C26A 1_555 1_555
C27A N2A 1_555 1_555
H17A C27A 1_555 1_555
C28A C27A 1_555 1_555
H18A C28A 1_555 1_555
C29A C28A 1_555 1_555
C30A C29A 1_555 1_555
H19A C30A 1_555 1_555
C31A N2A 1_555 1_555
H20A C31A 1_555 1_555
C32A N3A 1_555 1_555
H21A C32A 1_555 1_555
C33A C32A 1_555 1_555
H22A C33A 1_555 1_555
C34A C33A 1_555 1_555
C35A C34A 1_555 1_555
H23A C35A 1_555 1_555
C36A N3A 1_555 1_555
H24A C36A 1_555 1_555
C37_2 C38_2 1_555 1_555
C38_2 H25_2 1_555 1_555
C39_2 C38_2 1_555 1_555
H26_2 C39_2 1_555 1_555
C40_2 C39_2 1_555 1_555
C41_2 C40_2 1_555 1_555
H27_2 C41_2 1_555 1_555
C42_2 C37_2 1_555 1_555
H28_2 C42_2 1_555 1_555
C43_2 C37_2 1_555 1_555
C44_2 O11_2 1_555 1_555
C45_2 C46_2 1_555 1_555
C46_2 H29_2 1_555 1_555
C47_2 C45_2 1_555 1_555
H30_2 C47_2 1_555 1_555
C48_2 O13_2 1_555 1_555
C49_2 C50_2 1_555 1_555
C50_2 C46_2 1_555 1_555
H31_2 C50_2 1_555 1_555
C51_2 C47_2 1_555 1_555
H32_2 C51_2 1_555 1_555
C52_2 O15_2 1_555 1_555
C53_2 H33_2 1_555 1_555
C54_2 C53_2 1_555 1_555
H34_2 C54_2 1_555 1_555
C55_2 C54_2 1_555 1_555
C56_2 C55_2 1_555 1_555
H35_2 C56_2 1_555 1_555
C57_2 N4_2 1_555 1_555
H36_2 C57_2 1_555 1_555
C58_2 N5_2 1_555 1_555
H37_2 C58_2 1_555 1_555
C59_2 C58_2 1_555 1_555
H38_2 C59_2 1_555 1_555
C60_2 C59_2 1_555 1_555
C61_2 C60_2 1_555 1_555
H39_2 C61_2 1_555 1_555
C62_2 N5_2 1_555 1_555
H40_2 C62_2 1_555 1_555
C63_2 N6_2 1_555 1_555
H41_2 C63_2 1_555 1_555
C64_2 C63_2 1_555 1_555
H42_2 C64_2 1_555 1_555
C65_2 C64_2 1_555 1_555
C66_2 C65_2 1_555 1_555
H43_2 C66_2 1_555 1_555
C67_2 N6_2 1_555 1_555
H44_2 C67_2 1_555 1_555
N8_2 Co4 1_555 1_555
N8_3 Co4_4 1_555 1_555
C68_2 N8_2 1_555 1_555
H45_2 C68_2 1_555 1_555
C69_2 C68_2 1_555 1_555
H46_2 C69_2 1_555 1_555
C70_2 C69_2 1_555 1_555
C71_2 C70_2 1_555 1_555
H47_2 C71_2 1_555 1_555
C72_2 N8_2 1_555 1_555
H48_2 C72_2 1_555 1_555
C73A C29A 1_555 1_555
H49A C73A 1_555 1_555
H50A C73A 1_555 1_555
C74A C73A 1_555 1_555
H51A C74A 1_555 1_555
H52A C74A 1_555 1_555
C75A C19A 1_555 1_555
H53A C75A 1_555 1_555
H54A C75A 1_555 1_555
C76A C34A 1_555 1_555
H55A C76A 1_555 1_555
H56A C76A 1_555 1_555
C77A C76A 1_555 1_555
H57A C77A 1_555 1_555
H58A C77A 1_555 1_555
C78A C24A 1_555 1_555
H59A C78A 1_555 1_555
H60A C78A 1_555 1_555
C79_2 C55_2 1_555 1_555
H61_2 C79_2 1_555 1_555
H62_2 C79_2 1_555 1_555
C80_2 C79_2 1_555 1_555
H65_2 C80_2 1_555 1_555
H66_2 C80_2 1_555 1_555
C81_2 C60_2 1_555 1_555
H67_2 C81_2 1_555 1_555
H68_2 C81_2 1_555 1_555
C84_2 C65_2 1_555 1_555
H73_2 C84_2 1_555 1_555
H74_2 C84_2 1_555 1_555
C85_2 C84_2 1_555 1_555
H77_2 C85_2 1_555 1_555
H78_2 C85_2 1_555 1_555
C86_2 C70_2 1_555 1_555
H79_2 C86_2 1_555 1_555
H80_2 C86_2 1_555 1_555
C5 C6 1_555 1_555
C9 C12 1_555 1_555
C13 C16 1_555 1_555
C20 C21 1_555 1_555
C25 C26 1_555 1_555
C30 C31 1_555 1_555
C35 C36 1_555 1_555
C41 C42 1_555 1_555
C45 C48 1_555 1_555
C49 C51 1_555 1_555
C56 C57 1_555 1_555
C61 C62 1_555 1_555
C66 C67 1_555 1_555
C71 C72 1_555 1_555
C74 C75 1_555 1_555
C77 C78 1_555 1_555
C80 C81 1_555 1_555
C85 C86 1_555 1_555
C4A C8A 1_555 1_555
C5A C6A 1_555 1_555
C9A C11A 1_555 1_555
C13A C15A 1_555 1_555
C13A C16A 1_555 1_555
C20A C21A 1_555 1_555
C25A C26A 1_555 1_555
C30A C31A 1_555 1_555
C35A C36A 1_555 1_555
C40_2 C44_2 1_555 1_555
C41_2 C42_2 1_555 1_555
C45_2 C48_2 1_555 1_555
C49_2 C51_2 1_555 1_555
C49_2 C52_2 1_555 1_555
C56_2 C57_2 1_555 1_555
C61_2 C62_2 1_555 1_555
C66_2 C67_2 1_555 1_555
C71_2 C72_2 1_555 1_555
C74A C75A 1_555 1_555
C77A C78A 1_555 1_555
C80_2 C81_2 1_555 1_555
C85_2 C86_2 1_555 1_555

#END
