
#######################################################################
#
#                 Cambridge Crystallographic Data Centre
#                                CCDC 
#
#######################################################################
#
# If this CIF has been generated from an entry in the Cambridge 
# Structural Database, then it will include bibliographic, chemical, 
# crystal, experimental, refinement or atomic coordinate data resulting 
# from the CCDC's data processing and validation procedures.
#
#######################################################################

data_BIYGUM
_symmetry_cell_setting           triclinic
_symmetry_space_group_name_H-M   'P 1'
_symmetry_Int_Tables_number      1
_space_group_name_Hall           'P 1'
loop_
_symmetry_equiv_pos_site_id
_symmetry_equiv_pos_as_xyz
1 x,y,z
_cell_length_a                   8.1906(6)
_cell_length_b                   8.2536(6)
_cell_length_c                   16.5123(13)
_cell_angle_alpha                101.6920(10)
_cell_angle_beta                 92.7130(10)
_cell_angle_gamma                111.2220(10)
_cell_volume                     1010.03
loop_
_atom_site_label
_atom_site_type_symbol
_atom_site_fract_x
_atom_site_fract_y
_atom_site_fract_z
Cu1 Cu 0.38015(8) 0.01240(8) 0.70791(5)
S1 S 0.9652(2) 0.9940(2) 0.63396(11)
N1 N 0.2305(7) -0.1951(7) 0.7511(3)
N2 N 0.3807(7) -0.1860(7) 0.6150(3)
O1 O 0.5332(6) 0.1964(6) 0.6570(3)
O2 O 0.5343(8) 0.4432(7) 0.7421(3)
O3 O 0.9569(7) 1.0418(6) 0.7224(3)
O4 O 1.1451(6) 1.0504(6) 0.6158(3)
O5 O 0.8570(7) 1.0540(7) 0.5857(4)
O11 O 0.3272(7) 0.1839(6) 0.7954(3)
O12 O 0.6423(7) 0.0428(7) 0.7932(3)
C1 C 0.1540(10) -0.1880(10) 0.8195(5)
H1 H 0.1747 -0.0761 0.8535
C2 C 0.0448(10) -0.3376(11) 0.8436(5)
H2 H -0.0067 -0.3276 0.8925
C3 C 0.0158(11) -0.5015(10) 0.7922(5)
H3 H -0.0591 -0.6050 0.8056
C4 C 0.0945(10) -0.5140(9) 0.7227(5)
H4 H 0.0761 -0.6254 0.6888
C5 C 0.2043(9) -0.3574(9) 0.7020(4)
C6 C 0.2928(9) -0.3528(8) 0.6263(4)
C7 C 0.2874(10) -0.5002(9) 0.5679(5)
H5 H 0.2277 -0.6143 0.5758
C8 C 0.3696(10) -0.4800(10) 0.4980(5)
H6 H 0.3681 -0.5792 0.4590
C9 C 0.4536(10) -0.3114(10) 0.4870(5)
H7 H 0.5074 -0.2938 0.4394
C10 C 0.4571(9) -0.1670(10) 0.5480(4)
H8 H 0.5163 -0.0521 0.5409
C11 C 0.5789(9) 0.3623(9) 0.6798(4)
C12 C 0.6970(8) 0.4727(8) 0.6263(4)
C13 C 0.7409(9) 0.3878(9) 0.5536(4)
H9 H 0.6970 0.2636 0.5373
C14 C 0.8486(9) 0.4879(10) 0.5062(4)
H10 H 0.8754 0.4314 0.4570
C15 C 0.9177(9) 0.6714(9) 0.5310(4)
H11 H 0.9912 0.7389 0.4987
C16 C 0.8775(8) 0.7550(8) 0.6039(4)
C17 C 0.7662(8) 0.6590(8) 0.6509(4)
H12 H 0.7366 0.7171 0.6989
H25 H 0.388(8) 0.262(9) 0.771(5)
H26 H 0.219(3) 0.169(12) 0.786(6)
H27 H 0.698(11) 0.018(10) 0.754(4)
H28 H 0.647(12) 0.148(5) 0.798(5)
Cu1_2 Cu 1.38015(8) 1.01240(8) 0.70791(5)
O4_2 O 0.1451(6) 0.0504(6) 0.6158(3)
Cu2 Cu 0.49006(8) 0.70372(8) 0.09183(5)
S2 S 1.1232(2) 1.7653(2) 0.17385(12)
N3 N 0.5473(7) 0.5943(7) 0.1820(3)
N4 N 0.3127(7) 0.4520(7) 0.0490(3)
O6 O 0.6736(6) 0.9385(5) 0.1417(3)
O7 O 0.6278(7) 1.1029(7) 0.0588(3)
O8 O 1.0647(8) 1.8841(7) 0.2299(5)
O9 O 1.0547(7) 1.7301(7) 0.0863(4)
O10 O 1.3139(6) 1.8231(6) 0.1858(3)
O13 O 0.7080(7) 0.6515(7) 0.0061(3)
O14 O 0.3861(7) 0.7895(6) 0.0069(3)
C18 C 0.6686(9) 0.6777(9) 0.2477(4)
H13 H 0.7396 0.7973 0.2530
C19 C 0.6942(9) 0.5945(10) 0.3089(4)
H14 H 0.7804 0.6569 0.3547
C20 C 0.5901(10) 0.4182(10) 0.3007(5)
H15 H 0.6051 0.3590 0.3410
C21 C 0.4630(9) 0.3291(9) 0.2323(5)
H16 H 0.3910 0.2094 0.2259
C22 C 0.4442(8) 0.4206(8) 0.1732(4)
C23 C 0.3098(8) 0.3414(9) 0.0983(4)
C24 C 0.1885(10) 0.1649(9) 0.0780(5)
H17 H 0.1885 0.0881 0.1122
C25 C 0.0699(11) 0.1062(9) 0.0074(5)
H18 H -0.0140 -0.0101 -0.0063
C26 C 0.0756(10) 0.2211(10) -0.0433(5)
H19 H -0.0020 0.1826 -0.0924
C27 C 0.1991(9) 0.3953(9) -0.0197(4)
H20 H 0.2018 0.4741 -0.0531
C28 C 0.7084(9) 1.0828(9) 0.1211(4)
C29 C 0.8509(8) 1.2461(8) 0.1746(4)
C30 C 0.9282(9) 1.2340(8) 0.2493(4)
H21 H 0.8918 1.1252 0.2646
C31 C 1.0576(10) 1.3820(10) 0.3002(4)
H22 H 1.1064 1.3737 0.3504
C32 C 1.1166(10) 1.5462(9) 0.2765(5)
H23 H 1.2043 1.6467 0.3108
C33 C 1.0435(9) 1.5562(8) 0.2022(4)
C34 C 0.9106(8) 1.4092(8) 0.1514(4)
H24 H 0.8608 1.4188 0.1017
H29 H 0.802(7) 0.685(10) 0.039(5)
H30 H 0.707(11) 0.738(7) -0.014(5)
H31 H 0.286(4) 0.776(9) 0.023(3)
H32 H 0.455(8) 0.898(4) 0.027(5)
Cu2_2 Cu 1.49006(8) 1.70372(8) 0.09183(5)
O10_2 O 0.3139(6) 0.8231(6) 0.1858(3)
O15 O 0.5118(10) 0.0076(11) 0.3537(4)
H33 H 0.615(6) 0.022(12) 0.374(5)
H34 H 0.476(10) -0.078(9) 0.311(4)
O16 O 0.6522(13) 0.3064(10) 0.9414(4)
H35 H 0.720(9) 0.283(13) 0.974(4)
H36 H 0.560(8) 0.301(16) 0.964(5)
O17 O 0.6292(12) 0.7661(9) 0.8592(4)
H37 H 0.617(10) 0.684(9) 0.816(4)
H38 H 0.528(5) 0.752(12) 0.874(6)
O18 O 0.8591(12) 0.0508(13) 0.4163(5)
H39 H 0.938(10) 0.012(13) 0.400(4)
H40 H 0.856(11) 0.053(13) 0.4678(17)
O19 O 0.2262(15) 0.0517(17) 0.4330(9)
H41 H 0.208(10) -0.059(3) 0.424(7)
H42 H 0.337(3) 0.111(8) 0.442(7)
loop_
_geom_bond_atom_site_label_1
_geom_bond_atom_site_label_2
_geom_bond_site_symmetry_1
_geom_bond_site_symmetry_2
Cu1 N1 1_555 1_555
Cu2 N3 1_555 1_555
S1 O3 1_555 1_555
S2 O8 1_555 1_555
N1 C1 1_555 1_555
N2 Cu1 1_555 1_555
N3 C18 1_555 1_555
N4 Cu2 1_555 1_555
O1 Cu1 1_555 1_555
O2 C11 1_555 1_555
O4 S1 1_555 1_555
O5 S1 1_555 1_555
O6 Cu2 1_555 1_555
O7 C28 1_555 1_555
O9 S2 1_555 1_555
O10 S2 1_555 1_555
O11 Cu1 1_555 1_555
O12 Cu1 1_555 1_555
O13 Cu2 1_555 1_555
O14 Cu2 1_555 1_555
O15 H33 1_555 1_555
O16 H35 1_555 1_555
O17 H37 1_555 1_555
O18 H39 1_555 1_555
O19 H41 1_555 1_555
C1 H1 1_555 1_555
C2 C1 1_555 1_555
H2 C2 1_555 1_555
C3 C2 1_555 1_555
H3 C3 1_555 1_555
C4 C3 1_555 1_555
H4 C4 1_555 1_555
C5 N1 1_555 1_555
C6 N2 1_555 1_555
C7 C6 1_555 1_555
H5 C7 1_555 1_555
C8 C7 1_555 1_555
H6 C8 1_555 1_555
C9 C8 1_555 1_555
H7 C9 1_555 1_555
C10 N2 1_555 1_555
H8 C10 1_555 1_555
C11 O1 1_555 1_555
C12 C11 1_555 1_555
C13 C12 1_555 1_555
H9 C13 1_555 1_555
C14 C13 1_555 1_555
H10 C14 1_555 1_555
C15 C14 1_555 1_555
H11 C15 1_555 1_555
C16 S1 1_555 1_555
C17 C12 1_555 1_555
H12 C17 1_555 1_555
C18 H13 1_555 1_555
C19 C18 1_555 1_555
H14 C19 1_555 1_555
C20 C19 1_555 1_555
H15 C20 1_555 1_555
C21 C20 1_555 1_555
H16 C21 1_555 1_555
C22 N3 1_555 1_555
C23 N4 1_555 1_555
C24 C23 1_555 1_555
H17 C24 1_555 1_555
C25 C24 1_555 1_555
H18 C25 1_555 1_555
C26 C25 1_555 1_555
H19 C26 1_555 1_555
C27 N4 1_555 1_555
H20 C27 1_555 1_555
C28 O6 1_555 1_555
C29 C28 1_555 1_555
C30 C29 1_555 1_555
H21 C30 1_555 1_555
C31 C30 1_555 1_555
H22 C31 1_555 1_555
C32 C31 1_555 1_555
H23 C32 1_555 1_555
C33 S2 1_555 1_555
C34 C29 1_555 1_555
H24 C34 1_555 1_555
H25 O11 1_555 1_555
H26 O11 1_555 1_555
H27 O12 1_555 1_555
H28 O12 1_555 1_555
H29 O13 1_555 1_555
H30 O13 1_555 1_555
H31 O14 1_555 1_555
H32 O14 1_555 1_555
H34 O15 1_555 1_555
H36 O16 1_555 1_555
H38 O17 1_555 1_555
H40 O18 1_555 1_555
H42 O19 1_555 1_555
Cu1_2 O4 1_555 1_555
Cu2_2 O10 1_555 1_555
O4_2 Cu1 1_555 1_555
O10_2 Cu2 1_555 1_555
C4 C5 1_555 1_555
C5 C6 1_555 1_555
C9 C10 1_555 1_555
C15 C16 1_555 1_555
C16 C17 1_555 1_555
C21 C22 1_555 1_555
C22 C23 1_555 1_555
C26 C27 1_555 1_555
C32 C33 1_555 1_555
C33 C34 1_555 1_555

#END
