
#######################################################################
#
#                 Cambridge Crystallographic Data Centre
#                                CCDC 
#
#######################################################################
#
# If this CIF has been generated from an entry in the Cambridge 
# Structural Database, then it will include bibliographic, chemical, 
# crystal, experimental, refinement or atomic coordinate data resulting 
# from the CCDC's data processing and validation procedures.
#
#######################################################################

data_BIYHUN01
_symmetry_cell_setting           triclinic
_symmetry_space_group_name_H-M   'P -1'
_symmetry_Int_Tables_number      2
_space_group_name_Hall           '-P 1'
loop_
_symmetry_equiv_pos_site_id
_symmetry_equiv_pos_as_xyz
1 x,y,z
2 -x,-y,-z
_cell_length_a                   8.998(2)
_cell_length_b                   10.226(2)
_cell_length_c                   11.376(3)
_cell_angle_alpha                64.307(3)
_cell_angle_beta                 77.871(3)
_cell_angle_gamma                74.480(4)
_cell_volume                     903.507
loop_
_atom_site_label
_atom_site_type_symbol
_atom_site_fract_x
_atom_site_fract_y
_atom_site_fract_z
Zn1 Zn 0.13919(4) -0.19943(4) 0.59025(3)
S1 S 0.34291(13) 0.36299(11) 0.25091(9)
S2 S 0.36531(12) 0.40423(9) -0.03168(8)
S3 S 0.39039(11) 0.23208(9) -0.20519(8)
O1 O 0.2342(2) -0.0138(2) 0.51294(19)
O2 O 0.0949(2) 0.1874(2) 0.37140(19)
O3 O 0.1803(3) 0.5365(3) -0.3067(2)
O4 O 0.3652(3) 0.6620(2) -0.4090(2)
N1 N 0.3796(3) 0.1522(3) 0.1612(3)
N2 N 0.3930(3) 0.1251(3) 0.0503(3)
N3 N 0.1217(3) -0.2071(3) 0.4085(2)
N4 N 0.1313(3) -0.2099(3) -0.2165(2)
C1 C 0.2122(3) 0.1164(3) 0.4282(3)
C2 C 0.3481(4) 0.1940(4) 0.3969(3)
H1 H 0.4436 0.1254 0.3883
H2 H 0.3517 0.2160 0.4709
C3 C 0.3651(3) 0.2905(4) 0.1336(3)
C4 C 0.3874(3) 0.2437(3) -0.0572(3)
C5 C 0.4442(4) 0.4028(3) -0.3223(3)
H3 H 0.5315 0.4156 -0.2936
H4 H 0.4798 0.3937 -0.4056
C6 C 0.3188(4) 0.5425(3) -0.3457(3)
C7 C 0.1972(4) -0.1253(4) 0.2991(3)
H5 H 0.2526 -0.0634 0.3042
C8 C 0.1985(4) -0.1265(4) 0.1792(3)
H6 H 0.2531 -0.0656 0.1060
C9 C 0.1200(3) -0.2171(3) 0.1655(3)
C10 C 0.0415(4) -0.3049(4) 0.2802(3)
H7 H -0.0131 -0.3691 0.2781
C11 C 0.0456(4) -0.2956(4) 0.3962(3)
H8 H -0.0081 -0.3548 0.4713
C12 C 0.1231(3) -0.2185(3) 0.0357(3)
C13 C 0.0328(3) -0.2933(3) 0.0110(3)
H9 H -0.0319 -0.3488 0.0788
C14 C 0.0395(4) -0.2850(3) -0.1139(3)
H10 H -0.0235 -0.3346 -0.1279
C15 C 0.2204(4) -0.1411(4) -0.1922(3)
H11 H 0.2865 -0.0892 -0.2614
C16 C 0.2202(4) -0.1426(4) -0.0711(3)
H12 H 0.2852 -0.0926 -0.0602
Zn1A Zn -0.13919(4) 0.19943(4) 0.40975(3)
Zn1_2 Zn 0.13919(4) 0.80057(4) -0.40975(3)
Zn1_3 Zn 0.13919(4) -0.19943(4) -0.40975(3)
O2A O -0.0949(2) -0.1874(2) 0.62860(19)
O3_2 O 0.1803(3) -0.4635(3) 0.6933(2)
O4_2 O 0.3652(3) -0.3380(2) 0.5910(2)
N4_2 N 0.1313(3) -0.2099(3) 0.7835(2)
loop_
_geom_bond_atom_site_label_1
_geom_bond_atom_site_label_2
_geom_bond_site_symmetry_1
_geom_bond_site_symmetry_2
Zn1 O1 1_555 1_555
S1 C2 1_555 1_555
S2 C3 1_555 1_555
S3 C4 1_555 1_555
O1 C1 1_555 1_555
O2 C1 1_555 1_555
O3 C6 1_555 1_555
O4 C6 1_555 1_555
N1 N2 1_555 1_555
N2 C4 1_555 1_555
N3 Zn1 1_555 1_555
N4 C14 1_555 1_555
C1 C2 1_555 1_555
C2 H1 1_555 1_555
H2 C2 1_555 1_555
C3 S1 1_555 1_555
C4 S2 1_555 1_555
C5 S3 1_555 1_555
H3 C5 1_555 1_555
H4 C5 1_555 1_555
C6 C5 1_555 1_555
C7 N3 1_555 1_555
H5 C7 1_555 1_555
C8 C7 1_555 1_555
H6 C8 1_555 1_555
C9 C8 1_555 1_555
C10 C9 1_555 1_555
H7 C10 1_555 1_555
C11 N3 1_555 1_555
H8 C11 1_555 1_555
C12 C9 1_555 1_555
C13 C12 1_555 1_555
H9 C13 1_555 1_555
C14 C13 1_555 1_555
H10 C14 1_555 1_555
C15 N4 1_555 1_555
H11 C15 1_555 1_555
C16 C12 1_555 1_555
H12 C16 1_555 1_555
Zn1A O2 1_555 1_555
Zn1_2 O3 1_555 1_555
Zn1_3 N4 1_555 1_555
O2A Zn1 1_555 1_555
O3_2 Zn1 1_555 1_555
O4_2 Zn1 1_555 1_555
N4_2 Zn1 1_555 1_555
O4 Zn1_2 1_555 1_555
N1 C3 1_555 1_555
C10 C11 1_555 1_555
C15 C16 1_555 1_555

#END
