
#######################################################################
#
#                 Cambridge Crystallographic Data Centre
#                                CCDC 
#
#######################################################################
#
# If this CIF has been generated from an entry in the Cambridge 
# Structural Database, then it will include bibliographic, chemical, 
# crystal, experimental, refinement or atomic coordinate data resulting 
# from the CCDC's data processing and validation procedures.
#
#######################################################################

data_BIYHOH
_symmetry_cell_setting           monoclinic
_symmetry_space_group_name_H-M   'C 2/c'
_symmetry_Int_Tables_number      15
_space_group_name_Hall           '-C 2yn'
loop_
_symmetry_equiv_pos_site_id
_symmetry_equiv_pos_as_xyz
1 x,y,z
2 1/2+x,1/2+y,z
3 -x,y,1/2-z
4 1/2-x,1/2+y,1/2-z
5 -x,-y,-z
6 1/2-x,1/2-y,-z
7 x,-y,1/2+z
8 1/2+x,1/2-y,1/2+z
_cell_length_a                   16.535(3)
_cell_length_b                   8.7301(17)
_cell_length_c                   13.871(3)
_cell_angle_alpha                90
_cell_angle_beta                 120.26(3)
_cell_angle_gamma                90
_cell_volume                     1729.49
loop_
_atom_site_label
_atom_site_type_symbol
_atom_site_fract_x
_atom_site_fract_y
_atom_site_fract_z
H1 H 0.237(3) -0.263(5) -0.335(4)
H2 H 0.510(3) 0.323(6) -0.011(4)
H3 H 0.457(3) 0.410(5) -0.109(4)
H4 H 0.413(2) -0.466(4) -0.329(3)
H5 H 0.367(2) -0.300(4) -0.381(3)
H6 H 0.234(2) -0.418(4) -0.544(3)
H7 H 0.262(2) -0.593(4) -0.497(3)
C1 C 0.37157(19) -0.3794(4) -0.3291(2)
C2 C 0.23079(18) -0.5029(4) -0.4910(2)
Pr1 Pr 0.414330(9) 0.081130(17) -0.171730(11)
O1 O 0.08508(13) -0.5749(3) -0.64973(15)
O2 O 0.23151(13) -0.5712(3) -0.24744(17)
O3 O 0.32831(14) -0.6925(2) -0.28958(17)
O4 O 0.41698(18) -0.4009(3) -0.13791(19)
O5 O 0.21201(14) -0.3295(2) -0.37095(18)
O6 O 0.08281(13) -0.5363(2) -0.49592(16)
O7 O 0.44461(15) -0.1797(2) -0.19277(19)
O8 O 0.48353(19) 0.3157(3) -0.0738(2)
C3 C 0.27917(17) -0.5800(3) -0.2955(2)
C4 C 0.41404(18) -0.3142(3) -0.2112(2)
C5 C 0.27369(18) -0.4454(3) -0.3707(2)
C6 C 0.12723(18) -0.5405(3) -0.5479(2)
H1C H 0.263(3) 0.237(5) -0.165(4)
Pr1G Pr -0.085670(9) -0.581130(17) -0.671730(11)
Pr1C Pr 0.085670(9) -0.418870(17) -0.328270(11)
Pr1_2 Pr 0.414330(9) -0.918870(17) -0.171730(11)
Pr1E Pr 0.085670(9) -0.581130(17) -0.828270(11)
O1G O 0.58508(13) 0.0749(3) -0.14973(15)
O1E O 0.41492(13) 0.0749(3) -0.35027(15)
O2C O 0.26849(13) -0.0712(3) -0.25256(17)
O3_2 O 0.32831(14) 0.3075(2) -0.28958(17)
O5C O 0.28799(14) 0.1705(2) -0.12905(18)
O6G O 0.58281(13) 0.0363(2) 0.00408(16)
O6C O 0.41719(13) -0.0363(2) -0.00408(16)
loop_
_geom_bond_atom_site_label_1
_geom_bond_atom_site_label_2
_geom_bond_site_symmetry_1
_geom_bond_site_symmetry_2
H1 O5 1_555 1_555
H2 O8 1_555 1_555
H3 O8 1_555 1_555
H4 C1 1_555 1_555
H5 C1 1_555 1_555
H6 C2 1_555 1_555
H7 C2 1_555 1_555
C1 C4 1_555 1_555
C2 C5 1_555 1_555
Pr1 O7 1_555 1_555
O1 C6 1_555 1_555
O2 C3 1_555 1_555
O3 C3 1_555 1_555
O4 C4 1_555 1_555
O5 C5 1_555 1_555
O6 C6 1_555 1_555
O7 C4 1_555 1_555
O8 Pr1 1_555 1_555
C3 C5 1_555 1_555
C5 C1 1_555 1_555
C6 C2 1_555 1_555
H1C O5C 1_555 1_555
Pr1G O1 1_555 1_555
Pr1C O2 1_555 1_555
Pr1_2 O3 1_555 1_555
Pr1E O1 1_555 1_555
O1G Pr1 1_555 1_555
O1E Pr1 1_555 1_555
O2C Pr1 1_555 1_555
O3_2 Pr1 1_555 1_555
O5C Pr1 1_555 1_555
O6G Pr1 1_555 1_555
O6C Pr1 1_555 1_555
O5 Pr1C 1_555 1_555
O6 Pr1G 1_555 1_555
O6 Pr1C 1_555 1_555

#END
