
#######################################################################
#
#                 Cambridge Crystallographic Data Centre
#                                CCDC 
#
#######################################################################
#
# If this CIF has been generated from an entry in the Cambridge 
# Structural Database, then it will include bibliographic, chemical, 
# crystal, experimental, refinement or atomic coordinate data resulting 
# from the CCDC's data processing and validation procedures.
#
#######################################################################

data_BIYHUN
_symmetry_cell_setting           triclinic
_symmetry_space_group_name_H-M   'P -1'
_symmetry_Int_Tables_number      2
_space_group_name_Hall           '-P 1'
loop_
_symmetry_equiv_pos_site_id
_symmetry_equiv_pos_as_xyz
1 x,y,z
2 -x,-y,-z
_cell_length_a                   8.9883(10)
_cell_length_b                   10.2196(11)
_cell_length_c                   11.3783(12)
_cell_angle_alpha                64.298(2)
_cell_angle_beta                 77.896(2)
_cell_angle_gamma                74.408(2)
_cell_volume                     901.874
loop_
_atom_site_label
_atom_site_type_symbol
_atom_site_fract_x
_atom_site_fract_y
_atom_site_fract_z
Zn1 Zn 0.63932(5) 0.80063(4) 0.59020(4)
O1 O 0.6801(3) 0.5369(3) 0.6930(3)
O2 O 0.8651(3) 0.6618(3) 0.5905(2)
O3 O 0.5948(3) 0.1870(3) 1.3712(2)
O4 O 0.7338(3) -0.0139(3) 1.5131(2)
N1 N 0.6215(3) 0.7926(3) 0.4086(3)
N2 N 0.6322(3) 0.7897(3) -0.2165(3)
N3 N 0.8795(4) 0.1521(3) 1.1614(3)
N4 N 0.8926(4) 0.1250(3) 1.0504(3)
C1 C 0.6963(5) 0.8749(5) 0.2998(4)
H1 H 0.7510 0.9373 0.3050
C2 C 0.6980(5) 0.8734(5) 0.1792(4)
H2 H 0.7523 0.9344 0.1058
C3 C 0.6199(4) 0.7825(4) 0.1661(3)
C4 C 0.5419(5) 0.6957(5) 0.2805(4)
H3 H 0.4869 0.6317 0.2783
C5 C 0.5458(5) 0.7041(4) 0.3967(4)
H4 H 0.4924 0.6445 0.4717
C6 C 0.7206(5) 0.8588(5) -0.1928(4)
H5 H 0.7863 0.9112 -0.2620
C7 C 0.7202(5) 0.8569(5) -0.0707(4)
H6 H 0.7854 0.9065 -0.0594
C8 C 0.6229(4) 0.7814(4) 0.0356(3)
C9 C 0.5327(4) 0.7064(4) 0.0117(3)
H7 H 0.4678 0.6512 0.0795
C10 C 0.5401(5) 0.7146(4) -0.1137(3)
H8 H 0.4773 0.6649 -0.1278
C11 C 0.8645(4) 0.2908(4) 1.1343(4)
C12 C 0.8872(4) 0.2436(4) 0.9432(4)
C13 C 0.8473(5) 0.1941(4) 1.3968(4)
H9 H 0.8505 0.2163 1.4708
H10 H 0.9430 0.1254 1.3885
C14 C 0.7125(4) 0.1169(4) 1.4278(3)
C15 C 0.9438(5) 0.4034(4) 0.6777(4)
H11 H 0.9798 0.3944 0.5945
H12 H 1.0309 0.4164 0.7067
C16 C 0.8181(5) 0.5429(4) 0.6540(3)
S1 S 0.86531(15) 0.40417(11) 0.96823(10)
S2 S 0.84283(16) 0.36280(12) 1.25095(10)
S3 S 0.89025(14) 0.23199(11) 0.79483(10)
Zn1A Zn 0.36068(5) 0.19937(4) 1.40980(4)
Zn1_2 Zn 0.63932(5) -0.19937(4) 1.59020(4)
Zn1_3 Zn 0.63932(5) 0.80063(4) -0.40980(4)
O3A O 0.4052(3) 0.8130(3) 0.6288(2)
O4_2 O 0.7338(3) 0.9861(3) 0.5131(2)
N2_2 N 0.6322(3) 0.7897(3) 0.7835(3)
loop_
_geom_bond_atom_site_label_1
_geom_bond_atom_site_label_2
_geom_bond_site_symmetry_1
_geom_bond_site_symmetry_2
Zn1 O1 1_555 1_555
O1 C16 1_555 1_555
O2 Zn1 1_555 1_555
O3 C14 1_555 1_555
O4 C14 1_555 1_555
N1 Zn1 1_555 1_555
N2 C6 1_555 1_555
N3 N4 1_555 1_555
N4 C12 1_555 1_555
C1 N1 1_555 1_555
H1 C1 1_555 1_555
C2 C1 1_555 1_555
H2 C2 1_555 1_555
C3 C2 1_555 1_555
C4 C3 1_555 1_555
H3 C4 1_555 1_555
C5 N1 1_555 1_555
H4 C5 1_555 1_555
C6 H5 1_555 1_555
C7 C6 1_555 1_555
H6 C7 1_555 1_555
C8 C3 1_555 1_555
C9 C8 1_555 1_555
H7 C9 1_555 1_555
C10 N2 1_555 1_555
H8 C10 1_555 1_555
C11 N3 1_555 1_555
C12 S1 1_555 1_555
C13 H9 1_555 1_555
H10 C13 1_555 1_555
C14 C13 1_555 1_555
C15 H11 1_555 1_555
H12 C15 1_555 1_555
C16 O2 1_555 1_555
S1 C11 1_555 1_555
S2 C11 1_555 1_555
S3 C12 1_555 1_555
Zn1A O3 1_555 1_555
Zn1_2 O4 1_555 1_555
Zn1_3 N2 1_555 1_555
O3A Zn1 1_555 1_555
O4_2 Zn1 1_555 1_555
N2_2 Zn1 1_555 1_555
C4 C5 1_555 1_555
C7 C8 1_555 1_555
C9 C10 1_555 1_555
C13 S2 1_555 1_555
C15 C16 1_555 1_555
C15 S3 1_555 1_555

#END
