
#######################################################################
#
#                 Cambridge Crystallographic Data Centre
#                                CCDC 
#
#######################################################################
#
# If this CIF has been generated from an entry in the Cambridge 
# Structural Database, then it will include bibliographic, chemical, 
# crystal, experimental, refinement or atomic coordinate data resulting 
# from the CCDC's data processing and validation procedures.
#
#######################################################################

data_BIYHEX
_symmetry_cell_setting           monoclinic
_symmetry_space_group_name_H-M   'C 2/c'
_symmetry_Int_Tables_number      15
_space_group_name_Hall           '-C 2yn'
loop_
_symmetry_equiv_pos_site_id
_symmetry_equiv_pos_as_xyz
1 x,y,z
2 1/2+x,1/2+y,z
3 -x,y,1/2-z
4 1/2-x,1/2+y,1/2-z
5 -x,-y,-z
6 1/2-x,1/2-y,-z
7 x,-y,1/2+z
8 1/2+x,1/2-y,1/2+z
_cell_length_a                   16.610(3)
_cell_length_b                   8.7503(18)
_cell_length_c                   13.915(3)
_cell_angle_alpha                90
_cell_angle_beta                 120.32(3)
_cell_angle_gamma                90
_cell_volume                     1745.81
loop_
_atom_site_label
_atom_site_type_symbol
_atom_site_fract_x
_atom_site_fract_y
_atom_site_fract_z
H1 H 0.546(4) 0.407(8) 0.110(4)
H2 H 0.488(4) 0.326(7) 0.014(5)
H3 H 0.740(3) -0.582(5) 0.494(3)
H4 H 0.757(3) -0.268(6) 0.336(3)
H5 H 0.587(3) -0.470(5) 0.330(3)
H6 H 0.632(3) -0.303(4) 0.378(3)
H7 H 0.762(2) -0.421(5) 0.539(3)
Ce1 Ce 0.585867(14) 0.08135(2) 0.172140(15)
C1 C 0.7694(3) -0.5025(5) 0.4904(3)
O1 O 0.5563(2) -0.1801(3) 0.1937(2)
O2 O 0.76766(17) -0.5713(3) 0.24736(19)
O3 O 0.91459(16) -0.5746(3) 0.64915(17)
O4 O 0.5166(2) 0.3165(4) 0.0734(3)
O5 O 0.67175(19) -0.6909(3) 0.2901(2)
O6 O 0.78734(19) -0.3296(3) 0.3705(2)
O7 O 0.91672(17) -0.5357(3) 0.49569(18)
C2 C 0.7208(2) -0.5801(5) 0.2955(2)
O8 O 0.5819(2) -0.4004(4) 0.1380(2)
C3 C 0.7261(3) -0.4452(4) 0.3704(3)
C4 C 0.6291(3) -0.3800(5) 0.3292(3)
C5 C 0.8725(3) -0.5400(4) 0.5474(3)
C6 C 0.5857(3) -0.3146(4) 0.2117(3)
H4C H 0.743(3) 0.232(6) 0.164(3)
Ce1C Ce 0.914133(14) -0.41865(2) 0.327860(15)
Ce1G Ce 1.085867(14) -0.58135(2) 0.672140(15)
Ce1E Ce 0.914133(14) -0.58135(2) 0.827860(15)
Ce1_2 Ce 0.585867(14) -0.91865(2) 0.172140(15)
O2C O 0.73234(17) -0.0713(3) 0.25264(19)
O3G O 0.41459(16) 0.0746(3) 0.14915(17)
O3E O 0.58541(16) 0.0746(3) 0.35085(17)
O5_2 O 0.67175(19) 0.3091(3) 0.2901(2)
O6C O 0.71266(19) 0.1704(3) 0.1295(2)
O7G O 0.41672(17) 0.0357(3) -0.00431(18)
O7C O 0.58328(17) -0.0357(3) 0.00431(18)
loop_
_geom_bond_atom_site_label_1
_geom_bond_atom_site_label_2
_geom_bond_site_symmetry_1
_geom_bond_site_symmetry_2
H1 O4 1_555 1_555
H2 O4 1_555 1_555
H3 C1 1_555 1_555
H4 O6 1_555 1_555
H5 C4 1_555 1_555
H6 C4 1_555 1_555
H7 C1 1_555 1_555
Ce1 O1 1_555 1_555
C1 C3 1_555 1_555
O1 C6 1_555 1_555
O2 C2 1_555 1_555
O3 C5 1_555 1_555
O4 Ce1 1_555 1_555
O5 C2 1_555 1_555
O6 C3 1_555 1_555
O7 C5 1_555 1_555
C2 C3 1_555 1_555
O8 C6 1_555 1_555
C3 C4 1_555 1_555
C4 C6 1_555 1_555
C5 C1 1_555 1_555
H4C O6C 1_555 1_555
Ce1C O2 1_555 1_555
Ce1G O3 1_555 1_555
Ce1E O3 1_555 1_555
Ce1_2 O5 1_555 1_555
O2C Ce1 1_555 1_555
O3G Ce1 1_555 1_555
O3E Ce1 1_555 1_555
O5_2 Ce1 1_555 1_555
O6C Ce1 1_555 1_555
O7G Ce1 1_555 1_555
O7C Ce1 1_555 1_555
O6 Ce1C 1_555 1_555
O7 Ce1C 1_555 1_555
O7 Ce1G 1_555 1_555

#END
