
#######################################################################
#
#                 Cambridge Crystallographic Data Centre
#                                CCDC 
#
#######################################################################
#
# If this CIF has been generated from an entry in the Cambridge 
# Structural Database, then it will include bibliographic, chemical, 
# crystal, experimental, refinement or atomic coordinate data resulting 
# from the CCDC's data processing and validation procedures.
#
#######################################################################

data_BIYHAT
_symmetry_cell_setting           monoclinic
_symmetry_space_group_name_H-M   'P 21/n'
_symmetry_Int_Tables_number      14
_space_group_name_Hall           '-P 2yn'
loop_
_symmetry_equiv_pos_site_id
_symmetry_equiv_pos_as_xyz
1 x,y,z
2 1/2-x,1/2+y,1/2-z
3 -x,-y,-z
4 1/2+x,1/2-y,1/2+z
_cell_length_a                   9.2316(7)
_cell_length_b                   19.1836(14)
_cell_length_c                   10.6121(8)
_cell_angle_alpha                90.00
_cell_angle_beta                 91.365(2)
_cell_angle_gamma                90.00
_cell_volume                     1878.82
loop_
_atom_site_label
_atom_site_type_symbol
_atom_site_fract_x
_atom_site_fract_y
_atom_site_fract_z
Cu1 Cu 0.27977(5) 0.83471(2) 0.98887(4)
S1 S -0.54273(9) 0.87655(5) 0.71115(8)
N1 N 0.3482(3) 0.73640(14) 1.0028(3)
N2 N 0.4762(3) 0.85206(15) 1.0650(3)
O1 O 0.0844(3) 0.80701(13) 0.9329(2)
O2 O 0.0032(3) 0.91048(14) 0.8675(3)
O3 O -0.6636(3) 0.85093(15) 0.7841(2)
O4 O -0.5027(3) 0.94716(14) 0.7405(3)
O5 O -0.5683(3) 0.86375(16) 0.5787(2)
O6 O 0.2202(3) 0.93199(15) 1.0190(3)
C1 C 0.5321(4) 0.9143(2) 1.0941(4)
H1 H 0.4746 0.9538 1.0834
C2 C 0.6711(4) 0.9219(2) 1.1392(4)
H2 H 0.7068 0.9659 1.1600
C3 C 0.7576(4) 0.8641(2) 1.1536(4)
H3 H 0.8532 0.8685 1.1820
C4 C 0.6999(4) 0.7993(2) 1.1251(4)
H4 H 0.7560 0.7593 1.1356
C5 C 0.5581(4) 0.79446(18) 1.0808(3)
C6 C 0.4851(4) 0.72870(18) 1.0480(3)
C7 C 0.5485(4) 0.66375(19) 1.0612(4)
H5 H 0.6432 0.6592 1.0920
C8 C 0.4683(5) 0.6061(2) 1.0276(4)
H6 H 0.5088 0.5618 1.0355
C9 C 0.3289(5) 0.6135(2) 0.9826(4)
H7 H 0.2738 0.5747 0.9598
C10 C 0.2724(4) 0.6794(2) 0.9719(3)
H8 H 0.1775 0.6846 0.9418
C11 C -0.0102(4) 0.84629(18) 0.8819(3)
C12 C -0.1476(4) 0.81240(18) 0.8367(3)
C13 C -0.2646(4) 0.85386(19) 0.7992(3)
H9 H -0.2565 0.9022 0.8025
C14 C -0.3926(4) 0.82371(17) 0.7571(3)
C15 C -0.4041(4) 0.75153(19) 0.7500(3)
H10 H -0.4893 0.7312 0.7193
C16 C -0.2896(4) 0.71026(19) 0.7884(3)
H11 H -0.2977 0.6620 0.7841
C17 C -0.1619(4) 0.74046(19) 0.8335(3)
H12 H -0.0858 0.7123 0.8618
H13 H 0.147(3) 0.932(3) 0.969(3)
H18 H 0.195(4) 0.935(3) 1.0941(13)
Cu1_2 Cu -0.72023(5) 0.83471(2) 0.98887(4)
O3_2 O 0.3364(3) 0.85093(15) 0.7841(2)
O7 O 0.3249(4) 0.9634(2) 0.4031(4)
H14 H 0.395(3) 0.985(2) 0.369(5)
H17 H 0.358(4) 0.933(2) 0.455(4)
O8 O 0.0951(4) 0.96425(15) 1.2374(3)
H15 H 0.056(5) 1.0047(13) 1.234(3)
H16 H 0.154(5) 0.964(2) 1.300(3)
loop_
_geom_bond_atom_site_label_1
_geom_bond_atom_site_label_2
_geom_bond_site_symmetry_1
_geom_bond_site_symmetry_2
Cu1 N1 1_555 1_555
S1 O3 1_555 1_555
N1 C6 1_555 1_555
N2 Cu1 1_555 1_555
O1 Cu1 1_555 1_555
O2 C11 1_555 1_555
O3 Cu1_2 1_555 1_555
O4 S1 1_555 1_555
O5 S1 1_555 1_555
O6 Cu1 1_555 1_555
O7 H14 1_555 1_555
O8 H15 1_555 1_555
C1 N2 1_555 1_555
H1 C1 1_555 1_555
C2 C1 1_555 1_555
H2 C2 1_555 1_555
C3 C2 1_555 1_555
H3 C3 1_555 1_555
C4 C3 1_555 1_555
H4 C4 1_555 1_555
C5 N2 1_555 1_555
C6 C5 1_555 1_555
C7 C6 1_555 1_555
H5 C7 1_555 1_555
C8 C7 1_555 1_555
H6 C8 1_555 1_555
C9 C8 1_555 1_555
H7 C9 1_555 1_555
C10 N1 1_555 1_555
H8 C10 1_555 1_555
C11 O1 1_555 1_555
C12 C11 1_555 1_555
C13 C12 1_555 1_555
H9 C13 1_555 1_555
C14 S1 1_555 1_555
C15 C14 1_555 1_555
H10 C15 1_555 1_555
C16 C15 1_555 1_555
H11 C16 1_555 1_555
C17 C12 1_555 1_555
H12 C17 1_555 1_555
H13 O6 1_555 1_555
H16 O8 1_555 1_555
H17 O7 1_555 1_555
H18 O6 1_555 1_555
O3_2 Cu1 1_555 1_555
C4 C5 1_555 1_555
C9 C10 1_555 1_555
C13 C14 1_555 1_555
C16 C17 1_555 1_555

#END
