
#######################################################################
#
#                 Cambridge Crystallographic Data Centre
#                                CCDC 
#
#######################################################################
#
# If this CIF has been generated from an entry in the Cambridge 
# Structural Database, then it will include bibliographic, chemical, 
# crystal, experimental, refinement or atomic coordinate data resulting 
# from the CCDC's data processing and validation procedures.
#
#######################################################################

data_BIYJAV
_symmetry_cell_setting           monoclinic
_symmetry_space_group_name_H-M   'P 21/c'
_symmetry_Int_Tables_number      14
_space_group_name_Hall           '-P 2ybc'
loop_
_symmetry_equiv_pos_site_id
_symmetry_equiv_pos_as_xyz
1 x,y,z
2 -x,1/2+y,1/2-z
3 -x,-y,-z
4 x,1/2-y,1/2+z
_cell_length_a                   12.5059(19)
_cell_length_b                   8.4799(13)
_cell_length_c                   15.665(2)
_cell_angle_alpha                90
_cell_angle_beta                 113.53
_cell_angle_gamma                90
_cell_volume                     1523.12
loop_
_atom_site_label
_atom_site_type_symbol
_atom_site_fract_x
_atom_site_fract_y
_atom_site_fract_z
Cd1 Cd 0.03031(3) 0.95393(3) 0.20366(2)
S1 S -0.63703(11) 0.90925(16) -0.19828(9)
S2 S -0.39745(11) 0.92737(14) -0.04163(9)
S3 S -0.78554(10) 0.71975(14) -0.37560(8)
O1 O -0.0642(3) 0.8521(4) 0.0436(2)
O2 O 0.0685(4) 1.1543(4) 0.1283(3)
O3 O -0.1726(3) 0.9380(4) 0.1147(3)
O4 O -0.9405(3) 0.8167(3) -0.2737(2)
O5 O -0.9686(3) 1.0594(3) -0.3248(3)
N1 N 0.2128(3) 0.9882(4) 0.3235(3)
N2 N -0.4676(4) 0.7338(5) -0.1894(3)
N3 N -0.5618(4) 0.6895(5) -0.2700(3)
C1 C -0.1620(4) 0.8782(6) 0.0465(3)
C2 C -0.2689(4) 0.8256(6) -0.0365(3)
H1 H -0.2796 0.7130 -0.0324
H2 H -0.2574 0.8458 -0.0932
C3 C -0.4946(4) 0.8462(5) -0.1462(3)
C4 C -0.6541(4) 0.7690(5) -0.2822(3)
C5 C -0.8702(4) 0.8972(5) -0.3899(3)
H3 H -0.8192 0.9864 -0.3839
H4 H -0.9295 0.8984 -0.4529
C6 C -0.9296(4) 0.9225(5) -0.3244(3)
C7 C 0.2465(4) 0.8921(6) 0.3969(3)
H5 H 0.1927 0.8196 0.4007
C8 C 0.3556(4) 0.8940(6) 0.4670(4)
H6 H 0.3734 0.8255 0.5172
C9 C 0.4402(4) 0.9982(5) 0.4636(3)
C10 C 0.4036(4) 1.0994(6) 0.3876(3)
H7 H 0.4554 1.1733 0.3820
C11 C 0.2918(5) 1.0918(6) 0.3206(4)
H8 H 0.2702 1.1620 0.2710
H9 H 0.053(5) 1.244(6) 0.138(4)
H10 H 0.060(5) 1.148(6) 0.075(4)
Cd1C Cd 1.03031(3) 0.54607(3) 0.70366(2)
Cd1C_2 Cd -0.96969(3) 0.54607(3) -0.29634(2)
Cd1B Cd -1.03031(3) 1.04607(3) -0.20366(2)
Cd1B_2 Cd 0.96969(3) 1.04607(3) 0.79634(2)
Cd1A Cd -0.03031(3) 0.45393(3) 0.29634(2)
S1C S 0.36297(11) 0.59075(16) 0.30172(9)
S2C S 0.60255(11) 0.57263(14) 0.45837(9)
S3C S 0.21446(10) 0.78025(14) 0.12440(8)
O1C O 0.9358(3) 0.6479(4) 0.5436(2)
O2C O 1.0685(4) 0.3457(4) 0.6283(3)
O3C O 0.8274(3) 0.5620(4) 0.6147(3)
O4C O 0.0595(3) 0.6833(3) 0.2263(2)
O4_2 O 1.0595(3) 0.8167(3) 0.7263(2)
O5C O 0.0314(3) 0.4406(3) 0.1752(3)
O5B O -0.0314(3) 0.9406(3) 0.3248(3)
O5A O 0.9686(3) 0.5594(3) 0.8248(3)
N1B N 0.7872(3) 1.0118(4) 0.6765(3)
N1C N 1.2128(3) 0.5118(4) 0.8235(3)
N2C N 0.5324(4) 0.7662(5) 0.3106(3)
N3C N 0.4382(4) 0.8105(5) 0.2300(3)
C1C C 0.8380(4) 0.6218(6) 0.5465(3)
C2C C 0.7311(4) 0.6744(6) 0.4635(3)
H1C H 0.7204 0.7870 0.4676
H2C H 0.7426 0.6542 0.4068
C3C C 0.5054(4) 0.6538(5) 0.3538(3)
C4C C 0.3459(4) 0.7310(5) 0.2178(3)
C5C C 0.1298(4) 0.6028(5) 0.1101(3)
H3C H 0.1808 0.5136 0.1161
H4C H 0.0705 0.6016 0.0471
C6C C 0.0704(4) 0.5775(5) 0.1756(3)
C7B C 0.7535(4) 1.1079(6) 0.6031(3)
H5B H 0.8073 1.1804 0.5993
C8B C 0.6444(4) 1.1060(6) 0.5330(4)
H6B H 0.6266 1.1745 0.4828
C9B C 0.5598(4) 1.0018(5) 0.5364(3)
C10B C 0.5964(4) 0.9006(6) 0.6124(3)
H7B H 0.5446 0.8267 0.6180
C11B C 0.7082(5) 0.9082(6) 0.6794(4)
H8B H 0.7298 0.8380 0.7290
H9C H 1.053(5) 0.256(6) 0.638(4)
H10C H 1.060(5) 0.352(6) 0.575(4)
loop_
_geom_bond_atom_site_label_1
_geom_bond_atom_site_label_2
_geom_bond_site_symmetry_1
_geom_bond_site_symmetry_2
Cd1 O1 1_555 1_555
S1 C3 1_555 1_555
S2 C2 1_555 1_555
S3 C4 1_555 1_555
O1 C1 1_555 1_555
O2 Cd1 1_555 1_555
O3 Cd1 1_555 1_555
O4 C6 1_555 1_555
O5 C6 1_555 1_555
N1 Cd1 1_555 1_555
N2 N3 1_555 1_555
N3 C4 1_555 1_555
C1 O3 1_555 1_555
C2 C1 1_555 1_555
H1 C2 1_555 1_555
H2 C2 1_555 1_555
C3 S2 1_555 1_555
C4 S1 1_555 1_555
C5 S3 1_555 1_555
H3 C5 1_555 1_555
H4 C5 1_555 1_555
C6 C5 1_555 1_555
C7 N1 1_555 1_555
H5 C7 1_555 1_555
C8 C7 1_555 1_555
H6 C8 1_555 1_555
C9 C8 1_555 1_555
C10 C9 1_555 1_555
H7 C10 1_555 1_555
C11 N1 1_555 1_555
H8 C11 1_555 1_555
H9 O2 1_555 1_555
H10 O2 1_555 1_555
Cd1C O1C 1_555 1_555
Cd1C_2 O4 1_555 1_555
Cd1B O5 1_555 1_555
Cd1B_2 N1B 1_555 1_555
Cd1A O5C 1_555 1_555
S1C C3C 1_555 1_555
S2C C2C 1_555 1_555
S3C C4C 1_555 1_555
O1C C1C 1_555 1_555
O2C Cd1C 1_555 1_555
O3C Cd1C 1_555 1_555
O4C Cd1 1_555 1_555
O4_2 Cd1C 1_555 1_555
O5C C6C 1_555 1_555
O5B Cd1 1_555 1_555
O5A Cd1C 1_555 1_555
N1B C7B 1_555 1_555
N1C Cd1C 1_555 1_555
N2C N3C 1_555 1_555
N3C C4C 1_555 1_555
C1C O3C 1_555 1_555
C2C C1C 1_555 1_555
H1C C2C 1_555 1_555
H2C C2C 1_555 1_555
C3C S2C 1_555 1_555
C4C S1C 1_555 1_555
C5C S3C 1_555 1_555
H3C C5C 1_555 1_555
H4C C5C 1_555 1_555
C6C O4C 1_555 1_555
C7B H5B 1_555 1_555
C8B C7B 1_555 1_555
H6B C8B 1_555 1_555
C9B C9 1_555 1_555
C10B C9B 1_555 1_555
H7B C10B 1_555 1_555
C11B N1B 1_555 1_555
H8B C11B 1_555 1_555
H9C O2C 1_555 1_555
H10C O2C 1_555 1_555
N2 C3 1_555 1_555
C10 C11 1_555 1_555
N2C C3C 1_555 1_555
C5C C6C 1_555 1_555
C8B C9B 1_555 1_555
C10B C11B 1_555 1_555

#END
