
#######################################################################
#
#                 Cambridge Crystallographic Data Centre
#                                CCDC 
#
#######################################################################
#
# If this CIF has been generated from an entry in the Cambridge 
# Structural Database, then it will include bibliographic, chemical, 
# crystal, experimental, refinement or atomic coordinate data resulting 
# from the CCDC's data processing and validation procedures.
#
#######################################################################

data_BIYJID
_symmetry_cell_setting           orthorhombic
_symmetry_space_group_name_H-M   'P b c a'
_symmetry_Int_Tables_number      61
_space_group_name_Hall           '-P 2ac 2ab'
loop_
_symmetry_equiv_pos_site_id
_symmetry_equiv_pos_as_xyz
1 x,y,z
2 1/2-x,-y,1/2+z
3 -x,1/2+y,1/2-z
4 1/2+x,1/2-y,-z
5 -x,-y,-z
6 1/2+x,y,1/2-z
7 x,1/2-y,1/2+z
8 1/2-x,1/2+y,z
_cell_length_a                   18.1391(15)
_cell_length_b                   9.0707(8)
_cell_length_c                   22.8882(19)
_cell_angle_alpha                90
_cell_angle_beta                 90
_cell_angle_gamma                90
_cell_volume                     3765.89
loop_
_atom_site_label
_atom_site_type_symbol
_atom_site_fract_x
_atom_site_fract_y
_atom_site_fract_z
Mn1 Mn 0.176410(16) 0.66216(3) 0.330732(13)
S1 S 0.44274(3) 0.64412(7) 0.40265(3)
S2 S 0.41618(4) 0.90426(6) 0.48781(3)
S3 S 0.41459(4) 0.98521(7) 0.61580(3)
O1 O 0.29741(8) 0.68442(15) 0.33503(6)
O2 O 0.55893(8) 0.86826(18) 0.66532(7)
N1 N 0.18554(10) 0.6501(2) 0.23221(8)
N2 N 0.18087(9) 0.8013(2) -0.07208(8)
C1 C 0.14065(12) 0.5771(2) 0.19597(9)
H1 H 0.1082 0.5088 0.2119
C2 C 0.18735(11) 0.6995(2) 0.11096(9)
C3 C 0.18580(11) 0.7338(2) 0.04785(9)
O3 O 0.30506(9) 0.92718(17) 0.33935(8)
O4 O 0.14676(11) 0.89239(19) 0.31190(9)
C4 C 0.23582(12) 0.8488(3) -0.03805(10)
H2 H 0.2728 0.9056 -0.0549
C5 C 0.42229(12) 0.8539(2) 0.56109(11)
N3 N 0.43880(12) 0.6375(2) 0.51768(10)
C6 C 0.13983(12) 0.5973(2) 0.13671(9)
H3 H 0.1076 0.5430 0.1136
C7 C 0.24047(12) 0.8179(3) 0.02079(9)
H4 H 0.2801 0.8532 0.0425
C8 C 0.43128(12) 0.7202(2) 0.47211(11)
C9 C 0.33280(11) 0.8021(2) 0.34263(9)
O5 O 0.50653(10) 0.6826(2) 0.71378(9)
N4 N 0.43381(11) 0.7148(2) 0.56966(9)
C10 C 0.41507(12) 0.7915(3) 0.35410(11)
H5 H 0.4317 0.8843 0.3705
H6 H 0.4401 0.7784 0.3170
C11 C 0.42878(13) 0.8710(3) 0.67944(11)
H7 H 0.4194 0.9305 0.7138
H8 H 0.3922 0.7930 0.6789
C12 C 0.12764(12) 0.7223(2) -0.04608(9)
H9 H 0.0885 0.6893 -0.0688
C13 C 0.50479(12) 0.8000(2) 0.68618(10)
C14 C 0.23476(12) 0.7739(3) 0.14866(10)
H10 H 0.2684 0.8417 0.1339
C15 C 0.12794(12) 0.6876(2) 0.01233(9)
H11 H 0.0894 0.6331 0.0282
C16 C 0.23164(13) 0.7471(3) 0.20753(10)
H12 H 0.2634 0.7993 0.2318
H13 H 0.1016(17) 0.895(3) 0.3026(12)
H14 H 0.1611(17) 0.979(4) 0.3210(14)
Mn1C Mn 0.676410(16) 0.83784(3) 0.669268(13)
Mn1F Mn 0.176410(16) 0.83784(3) -0.169268(13)
Mn1G Mn 0.323590(16) 1.16216(3) 0.330732(13)
O2C O 0.05893(8) 0.63174(18) 0.33468(7)
N2F N 0.18087(9) 0.6987(2) 0.42792(8)
O3G O 0.19494(9) 0.42718(17) 0.33935(8)
loop_
_geom_bond_atom_site_label_1
_geom_bond_atom_site_label_2
_geom_bond_site_symmetry_1
_geom_bond_site_symmetry_2
Mn1 O1 1_555 1_555
S1 C8 1_555 1_555
S2 C5 1_555 1_555
S3 C5 1_555 1_555
O1 C9 1_555 1_555
O2 C13 1_555 1_555
N1 Mn1 1_555 1_555
N2 C4 1_555 1_555
C1 N1 1_555 1_555
H1 C1 1_555 1_555
C2 C3 1_555 1_555
C3 C7 1_555 1_555
O3 C9 1_555 1_555
O4 Mn1 1_555 1_555
C4 H2 1_555 1_555
C5 N4 1_555 1_555
N3 C8 1_555 1_555
C6 C1 1_555 1_555
H3 C6 1_555 1_555
C7 C4 1_555 1_555
H4 C7 1_555 1_555
C8 S2 1_555 1_555
C9 C10 1_555 1_555
O5 C13 1_555 1_555
N4 N3 1_555 1_555
C10 S1 1_555 1_555
H5 C10 1_555 1_555
H6 C10 1_555 1_555
C11 S3 1_555 1_555
H7 C11 1_555 1_555
H8 C11 1_555 1_555
C12 N2 1_555 1_555
H9 C12 1_555 1_555
C13 C11 1_555 1_555
C14 C2 1_555 1_555
H10 C14 1_555 1_555
C15 C3 1_555 1_555
H11 C15 1_555 1_555
C16 N1 1_555 1_555
H12 C16 1_555 1_555
H13 O4 1_555 1_555
H14 O4 1_555 1_555
Mn1C O2 1_555 1_555
Mn1F N2 1_555 1_555
Mn1G O3 1_555 1_555
O2C Mn1 1_555 1_555
N2F Mn1 1_555 1_555
O3G Mn1 1_555 1_555
C2 C6 1_555 1_555
C12 C15 1_555 1_555
C14 C16 1_555 1_555

#END
