
#######################################################################
#
#                 Cambridge Crystallographic Data Centre
#                                CCDC 
#
#######################################################################
#
# If this CIF has been generated from an entry in the Cambridge 
# Structural Database, then it will include bibliographic, chemical, 
# crystal, experimental, refinement or atomic coordinate data resulting 
# from the CCDC's data processing and validation procedures.
#
#######################################################################

data_BIYJOJ
_symmetry_cell_setting           orthorhombic
_symmetry_space_group_name_H-M   'P b c a'
_symmetry_Int_Tables_number      61
_space_group_name_Hall           '-P 2ac 2ab'
loop_
_symmetry_equiv_pos_site_id
_symmetry_equiv_pos_as_xyz
1 x,y,z
2 1/2-x,-y,1/2+z
3 -x,1/2+y,1/2-z
4 1/2+x,1/2-y,-z
5 -x,-y,-z
6 1/2+x,y,1/2-z
7 x,1/2-y,1/2+z
8 1/2-x,1/2+y,z
_cell_length_a                   18.067(2)
_cell_length_b                   9.0287(10)
_cell_length_c                   22.546(3)
_cell_angle_alpha                90
_cell_angle_beta                 90
_cell_angle_gamma                90
_cell_volume                     3677.74
loop_
_atom_site_label
_atom_site_type_symbol
_atom_site_fract_x
_atom_site_fract_y
_atom_site_fract_z
Co1 Co 0.17647(4) -0.18087(7) 0.33185(3)
S1 S 0.05965(8) 0.33872(16) 0.40034(7)
S2 S 0.08666(9) 0.08930(16) 0.49225(7)
S3 S 0.08477(8) 0.02403(17) 0.62366(7)
O1 O -0.06254(18) 0.1470(4) 0.66681(15)
O2 O 0.20704(18) 0.2903(4) 0.33674(14)
O3 O 0.19856(18) 0.0459(4) 0.34091(16)
N1 N 0.1841(2) -0.1668(5) 0.23707(17)
C1 C 0.1845(3) -0.2342(5) 0.0481(2)
N2 N 0.1784(2) -0.2915(4) -0.07407(16)
C2 C 0.0703(3) 0.2716(6) 0.4717(2)
C3 C 0.2385(3) -0.3172(6) 0.0197(2)
H1 H 0.2784 -0.3541 0.0411
O4 O -0.0121(2) 0.3382(5) 0.71528(18)
C4 C 0.2331(3) -0.3450(6) -0.0403(2)
H2 H 0.2692 -0.4036 -0.0581
C5 C 0.1256(3) -0.1854(6) 0.0133(2)
H3 H 0.0866 -0.1338 0.0305
C6 C 0.0671(3) 0.1445(6) 0.6853(2)
H4 H 0.0740 0.0877 0.7214
H5 H 0.1045 0.2217 0.6850
O5 O 0.1512(2) -0.4056(4) 0.31590(18)
C7 C 0.1861(3) -0.2049(5) 0.1133(2)
N3 N 0.0618(3) 0.3594(5) 0.5166(2)
C8 C 0.1396(3) -0.0904(6) 0.2016(2)
H6 H 0.1071 -0.0230 0.2188
C9 C 0.1386(3) -0.1050(6) 0.1406(2)
H7 H 0.1063 -0.0482 0.1179
C10 C -0.0092(3) 0.2193(6) 0.6885(2)
C11 C 0.0884(3) 0.1846(6) 0.3549(2)
H8 H 0.0715 0.0939 0.3736
H9 H 0.0635 0.1922 0.3169
C12 C 0.1709(3) 0.1713(6) 0.34377(19)
C13 C 0.0782(3) 0.1496(6) 0.5652(2)
N4 N 0.0661(3) 0.2890(5) 0.5713(2)
C14 C 0.1257(3) -0.2143(5) -0.0471(2)
H10 H 0.0868 -0.1777 -0.0699
C15 C 0.2337(3) -0.2811(6) 0.1499(2)
H11 H 0.2679 -0.3468 0.1339
C16 C 0.2304(3) -0.2601(7) 0.2106(2)
H12 H 0.2626 -0.3145 0.2343
H13 H 0.109(3) -0.404(7) 0.303(3)
H14 H 0.171(5) -0.516(12) 0.331(4)
Co1D Co -0.17647(4) 0.18087(7) 0.66815(3)
Co1F Co 0.17647(4) -0.31913(7) -0.16815(3)
Co1G Co 0.32353(4) 0.31913(7) 0.33185(3)
O1D O 0.06254(18) -0.1470(4) 0.33319(15)
O2G O 0.29296(18) -0.2097(4) 0.33674(14)
N2F N 0.1784(2) -0.2085(4) 0.42593(16)
loop_
_geom_bond_atom_site_label_1
_geom_bond_atom_site_label_2
_geom_bond_site_symmetry_1
_geom_bond_site_symmetry_2
Co1 O3 1_555 1_555
S1 C2 1_555 1_555
S2 C2 1_555 1_555
S3 C6 1_555 1_555
O1 C10 1_555 1_555
O2 C12 1_555 1_555
O3 C12 1_555 1_555
N1 Co1 1_555 1_555
C1 C3 1_555 1_555
N2 C4 1_555 1_555
C2 N3 1_555 1_555
C3 H1 1_555 1_555
O4 C10 1_555 1_555
C4 C3 1_555 1_555
H2 C4 1_555 1_555
C5 C1 1_555 1_555
H3 C5 1_555 1_555
C6 H4 1_555 1_555
H5 C6 1_555 1_555
O5 Co1 1_555 1_555
C7 C1 1_555 1_555
N3 N4 1_555 1_555
C8 N1 1_555 1_555
H6 C8 1_555 1_555
C9 C7 1_555 1_555
H7 C9 1_555 1_555
C10 C6 1_555 1_555
C11 S1 1_555 1_555
H8 C11 1_555 1_555
H9 C11 1_555 1_555
C12 C11 1_555 1_555
C13 S2 1_555 1_555
N4 C13 1_555 1_555
C14 N2 1_555 1_555
H10 C14 1_555 1_555
C15 C7 1_555 1_555
H11 C15 1_555 1_555
C16 N1 1_555 1_555
H12 C16 1_555 1_555
H13 O5 1_555 1_555
H14 O5 1_555 1_555
Co1D O1 1_555 1_555
Co1F N2 1_555 1_555
Co1G O2 1_555 1_555
O1D Co1 1_555 1_555
O2G Co1 1_555 1_555
N2F Co1 1_555 1_555
S3 C13 1_555 1_555
C5 C14 1_555 1_555
C8 C9 1_555 1_555
C15 C16 1_555 1_555

#END
