
#######################################################################
#
#                 Cambridge Crystallographic Data Centre
#                                CCDC 
#
#######################################################################
#
# If this CIF has been generated from an entry in the Cambridge 
# Structural Database, then it will include bibliographic, chemical, 
# crystal, experimental, refinement or atomic coordinate data resulting 
# from the CCDC's data processing and validation procedures.
#
#######################################################################

data_BIYJEZ
_symmetry_cell_setting           orthorhombic
_symmetry_space_group_name_H-M   'P b c a'
_symmetry_Int_Tables_number      61
_space_group_name_Hall           '-P 2ac 2ab'
loop_
_symmetry_equiv_pos_site_id
_symmetry_equiv_pos_as_xyz
1 x,y,z
2 1/2-x,-y,1/2+z
3 -x,1/2+y,1/2-z
4 1/2+x,1/2-y,-z
5 -x,-y,-z
6 1/2+x,y,1/2-z
7 x,1/2-y,1/2+z
8 1/2-x,1/2+y,z
_cell_length_a                   18.052(2)
_cell_length_b                   9.0691(11)
_cell_length_c                   22.509(3)
_cell_angle_alpha                90
_cell_angle_beta                 90
_cell_angle_gamma                90
_cell_volume                     3685.07
loop_
_atom_site_label
_atom_site_type_symbol
_atom_site_fract_x
_atom_site_fract_y
_atom_site_fract_z
Zn1 Zn 0.175631(15) 0.31720(3) 0.330463(11)
S1 S 0.08638(4) 0.58924(7) 0.49088(3)
S2 S 0.08534(4) 0.52443(8) 0.62243(4)
S3 S 0.05881(4) 0.83712(8) 0.39892(4)
O1 O 0.19815(10) 0.54736(19) 0.33827(8)
O2 O 0.14935(13) 0.0923(2) 0.31421(10)
O3 O 0.20592(10) 0.79133(17) 0.33467(7)
O4 O -0.00970(11) 0.8390(2) 0.71455(10)
O5 O -0.06122(9) 0.64818(19) 0.66717(8)
N1 N 0.06709(14) 0.7886(2) 0.56998(11)
N2 N 0.06232(14) 0.8593(2) 0.51576(11)
N3 N 0.17824(11) 0.2911(2) 0.42436(9)
N4 N 0.18435(11) 0.1686(2) 0.73594(9)
C1 C 0.07896(14) 0.6487(3) 0.56419(13)
C2 C 0.07023(14) 0.7710(3) 0.47089(13)
C3 C 0.08774(14) 0.6842(3) 0.35315(13)
H1 H 0.0712 0.5936 0.3718
H2 H 0.0628 0.6918 0.3151
C4 C 0.17067(13) 0.6727(3) 0.34198(10)
C5 C 0.06887(16) 0.6460(3) 0.68432(13)
H3 H 0.0770 0.5905 0.7206
H4 H 0.1058 0.7236 0.6831
C6 C -0.00752(14) 0.7187(3) 0.68846(11)
C7 C 0.23023(15) 0.2636(3) 0.70926(11)
H5 H 0.2618 0.3193 0.7330
C8 C 0.23349(15) 0.2836(3) 0.64897(11)
H6 H 0.2673 0.3498 0.6329
C9 C 0.18628(13) 0.2050(3) 0.61175(11)
C10 C 0.13919(13) 0.1044(3) 0.63934(10)
H7 H 0.1074 0.0466 0.6166
C11 C 0.13962(14) 0.0904(3) 0.70048(11)
H8 H 0.1072 0.0233 0.7179
C12 C 0.12539(14) 0.2130(3) 0.45188(11)
H9 H 0.0863 0.1767 0.4293
C13 C 0.12611(14) 0.1839(3) 0.51196(11)
H10 H 0.0877 0.1303 0.5291
C14 C 0.18398(13) 0.2345(3) 0.54682(10)
C15 C 0.23835(14) 0.3176(3) 0.51834(11)
H11 H 0.2779 0.3558 0.5399
C16 C 0.23332(14) 0.3430(3) 0.45794(11)
H12 H 0.2701 0.3990 0.4398
H13 H 0.163(2) 0.020(4) 0.3226(15)
H14 H 0.103(2) 0.088(4) 0.3064(15)
Zn1G Zn 0.324369(15) 0.81720(3) 0.330463(11)
Zn1D Zn -0.175631(15) 0.68280(3) 0.669537(11)
Zn1F Zn 0.175631(15) 0.18280(3) 0.830463(11)
O3G O 0.29408(10) 0.29133(17) 0.33467(7)
O5D O 0.06122(9) 0.35182(19) 0.33283(8)
N4F N 0.18435(11) 0.3314(2) 0.23594(9)
loop_
_geom_bond_atom_site_label_1
_geom_bond_atom_site_label_2
_geom_bond_site_symmetry_1
_geom_bond_site_symmetry_2
Zn1 O1 1_555 1_555
S1 C1 1_555 1_555
S2 C1 1_555 1_555
S3 C2 1_555 1_555
O1 C4 1_555 1_555
O2 Zn1 1_555 1_555
O3 C4 1_555 1_555
O4 C6 1_555 1_555
O5 C6 1_555 1_555
N1 N2 1_555 1_555
N2 C2 1_555 1_555
N3 Zn1 1_555 1_555
N4 C7 1_555 1_555
C1 N1 1_555 1_555
C2 S1 1_555 1_555
C3 S3 1_555 1_555
H1 C3 1_555 1_555
H2 C3 1_555 1_555
C4 C3 1_555 1_555
C5 S2 1_555 1_555
H3 C5 1_555 1_555
H4 C5 1_555 1_555
C6 C5 1_555 1_555
C7 H5 1_555 1_555
C8 C7 1_555 1_555
H6 C8 1_555 1_555
C9 C8 1_555 1_555
C10 C9 1_555 1_555
H7 C10 1_555 1_555
C11 N4 1_555 1_555
H8 C11 1_555 1_555
C12 N3 1_555 1_555
H9 C12 1_555 1_555
C13 C12 1_555 1_555
H10 C13 1_555 1_555
C14 C9 1_555 1_555
C15 C14 1_555 1_555
H11 C15 1_555 1_555
C16 N3 1_555 1_555
H12 C16 1_555 1_555
H13 O2 1_555 1_555
H14 O2 1_555 1_555
Zn1G O3 1_555 1_555
Zn1D O5 1_555 1_555
Zn1F N4 1_555 1_555
O3G Zn1 1_555 1_555
O5D Zn1 1_555 1_555
N4F Zn1 1_555 1_555
C10 C11 1_555 1_555
C13 C14 1_555 1_555
C15 C16 1_555 1_555

#END
