
#######################################################################
#
#                 Cambridge Crystallographic Data Centre
#                                CCDC 
#
#######################################################################
#
# If this CIF has been generated from an entry in the Cambridge 
# Structural Database, then it will include bibliographic, chemical, 
# crystal, experimental, refinement or atomic coordinate data resulting 
# from the CCDC's data processing and validation procedures.
#
#######################################################################

data_BIYKEA
_symmetry_cell_setting           monoclinic
_symmetry_space_group_name_H-M   'C 2/c'
_symmetry_Int_Tables_number      15
_space_group_name_Hall           '-C 2yn'
loop_
_symmetry_equiv_pos_site_id
_symmetry_equiv_pos_as_xyz
1 x,y,z
2 1/2+x,1/2+y,z
3 -x,y,1/2-z
4 1/2-x,1/2+y,1/2-z
5 -x,-y,-z
6 1/2-x,1/2-y,-z
7 x,-y,1/2+z
8 1/2+x,1/2-y,1/2+z
_cell_length_a                   27.189(5)
_cell_length_b                   11.293(2)
_cell_length_c                   18.569(4)
_cell_angle_alpha                90
_cell_angle_beta                 96.50(3)
_cell_angle_gamma                90
_cell_volume                     5664.88
loop_
_atom_site_label
_atom_site_type_symbol
_atom_site_fract_x
_atom_site_fract_y
_atom_site_fract_z
C1 C -0.02819(16) -0.0201(5) 0.3517(3)
H1 H -0.0596 0.0101 0.3306
H2 H -0.0266 -0.0170 0.4036
H3 H -0.0246 -0.1007 0.3366
C3 C 0.05882(12) 0.0191(3) 0.35458(18)
C5 C 0.07128(15) -0.0680(3) 0.4058(2)
H4 H 0.0468 -0.1115 0.4248
C6 C 0.12113(17) -0.0897(4) 0.4284(2)
H5 H 0.1297 -0.1490 0.4622
C7 C 0.15737(15) -0.0255(3) 0.4018(2)
H6 H 0.1904 -0.0406 0.4183
C8 C 0.14550(12) 0.0636(3) 0.34957(18)
C9 C 0.09530(12) 0.0839(3) 0.32469(17)
C10 C 0.18538(12) 0.1341(4) 0.32830(19)
H7 H 0.2165 0.1201 0.3532
C11 C 0.22965(14) 0.2753(6) 0.2684(2)
H8 H 0.2447 0.2364 0.2298
H9 H 0.2525 0.2693 0.3124
C12 C 0.22158(19) 0.4029(5) 0.2496(3)
H10 H 0.1982 0.4359 0.2799
H11 H 0.2526 0.4451 0.2604
C13 C -0.08537(15) 0.3112(4) 0.0811(3)
H12 H -0.1068 0.2862 0.1158
H13 H -0.0948 0.2722 0.0357
H14 H -0.0881 0.3953 0.0745
C14 C -0.00031(14) 0.3072(3) 0.06089(18)
C15 C -0.01114(18) 0.3286(3) -0.0128(2)
H15 H -0.0435 0.3223 -0.0346
C16 C 0.0267(2) 0.3595(4) -0.0539(2)
H16 H 0.0197 0.3711 -0.1036
C17 C 0.07419(19) 0.3727(3) -0.0216(2)
H17 H 0.0990 0.3965 -0.0491
C18 C 0.08574(15) 0.3505(3) 0.05316(19)
C19 C 0.04860(13) 0.3132(3) 0.09426(17)
C20 C 0.13475(15) 0.3821(3) 0.0858(2)
H18 H 0.1547 0.4212 0.0559
C21 C 0.20257(16) 0.4225(5) 0.1720(3)
H19 H 0.2266 0.3928 0.1417
H20 H 0.1988 0.5069 0.1632
C22 C 0.24899(13) 0.0028(3) 0.06070(18)
C23 C 0.20427(12) -0.0410(3) 0.07511(18)
C24 C 0.26405(15) 0.1209(4) 0.0795(2)
C25 C 0.17067(13) 0.0293(3) 0.1099(2)
Cu1 Cu 0.123010(12) 0.25182(4) 0.213712(19)
Sm1 Sm 0.0000 0.24513(2) 0.2500
N1 N 0.18320(10) 0.2138(3) 0.27930(16)
N3 N 0.15407(12) 0.3629(3) 0.15108(19)
N4 N 0.27662(19) 0.2157(4) 0.0939(3)
N5 N 0.14359(12) 0.0857(3) 0.13838(19)
N6 N 0.0000 0.5068(4) 0.2500
Ni1 Ni 0.2500 -0.2500 0.0000
O1 O 0.01076(8) 0.0501(2) 0.32827(13)
O2 O 0.08069(8) 0.16678(19) 0.27523(12)
O3 O 0.05723(8) 0.2860(2) 0.16461(11)
O4 O -0.03509(8) 0.2810(2) 0.10687(12)
O5 O 0.03485(12) 0.4487(2) 0.28335(16)
O6 O 0.0000 0.6150(4) 0.2500
S1 S 0.29026(3) -0.08531(8) 0.02015(5)
S2 S 0.18739(3) -0.18561(8) 0.05239(5)
C1B C 0.02819(16) -0.0201(5) 0.1483(3)
H1B H 0.0596 0.0101 0.1694
H2B H 0.0266 -0.0170 0.0964
H3B H 0.0246 -0.1007 0.1634
C3B C -0.05882(12) 0.0191(3) 0.14542(18)
C5B C -0.07128(15) -0.0680(3) 0.0942(2)
H4B H -0.0468 -0.1115 0.0752
C6B C -0.12113(17) -0.0897(4) 0.0716(2)
H5B H -0.1297 -0.1490 0.0378
C7B C -0.15737(15) -0.0255(3) 0.0982(2)
H6B H -0.1904 -0.0406 0.0817
C8B C -0.14550(12) 0.0636(3) 0.15043(18)
C9B C -0.09530(12) 0.0839(3) 0.17531(17)
C10B C -0.18538(12) 0.1341(4) 0.17170(19)
H7B H -0.2165 0.1201 0.1468
C11B C -0.22965(14) 0.2753(6) 0.2316(2)
H8B H -0.2447 0.2364 0.2702
H9B H -0.2525 0.2693 0.1876
C12B C -0.22158(19) 0.4029(5) 0.2504(3)
H10B H -0.1982 0.4359 0.2201
H11B H -0.2526 0.4451 0.2396
C13B C 0.08537(15) 0.3112(4) 0.4189(3)
H12B H 0.1068 0.2862 0.3842
H13B H 0.0948 0.2722 0.4643
H14B H 0.0881 0.3953 0.4255
C14B C 0.00031(14) 0.3072(3) 0.43911(18)
C15B C 0.01114(18) 0.3286(3) 0.5128(2)
H15B H 0.0435 0.3223 0.5346
C16B C -0.0267(2) 0.3595(4) 0.5539(2)
H16B H -0.0197 0.3711 0.6036
C17B C -0.07419(19) 0.3727(3) 0.5216(2)
H17B H -0.0990 0.3965 0.5491
C18B C -0.08574(15) 0.3505(3) 0.44684(19)
C19B C -0.04860(13) 0.3132(3) 0.40574(17)
C20B C -0.13475(15) 0.3821(3) 0.4142(2)
H18B H -0.1547 0.4212 0.4441
C21B C -0.20257(16) 0.4225(5) 0.3280(3)
H19B H -0.2266 0.3928 0.3583
H20B H -0.1988 0.5069 0.3368
C22B C -0.24899(13) 0.0028(3) 0.43930(18)
C23B C -0.20427(12) -0.0410(3) 0.42489(18)
C24B C -0.26405(15) 0.1209(4) 0.4205(2)
C25B C -0.17067(13) 0.0293(3) 0.3901(2)
Cu1B Cu -0.123010(12) 0.25182(4) 0.286288(19)
N1B N -0.18320(10) 0.2138(3) 0.22070(16)
N3B N -0.15407(12) 0.3629(3) 0.34892(19)
N4B N -0.27662(19) 0.2157(4) 0.4061(3)
N5B N -0.14359(12) 0.0857(3) 0.36162(19)
Ni1G Ni -0.2500 -0.2500 0.5000
O1B O -0.01076(8) 0.0501(2) 0.17173(13)
O2B O -0.08069(8) 0.16678(19) 0.22477(12)
O3B O -0.05723(8) 0.2860(2) 0.33539(11)
O4B O 0.03509(8) 0.2810(2) 0.39313(12)
O5B O -0.03485(12) 0.4487(2) 0.21665(16)
S1B S -0.29026(3) -0.08531(8) 0.47985(5)
S1E S 0.20974(3) -0.41469(8) -0.02015(5)
S2B S -0.18739(3) -0.18561(8) 0.44761(5)
S2E S 0.31261(3) -0.31439(8) -0.05239(5)
C2 C 0.1098(3) 0.6747(9) 0.2046(7)
C4 C 0.1191(5) 0.730(2) 0.2661(11)
N2 N 0.1034(4) 0.6320(12) 0.1484(8)
loop_
_geom_bond_atom_site_label_1
_geom_bond_atom_site_label_2
_geom_bond_site_symmetry_1
_geom_bond_site_symmetry_2
C1 H1 1_555 1_555
H2 C1 1_555 1_555
H3 C1 1_555 1_555
C2 C4 1_555 1_555
C3 C5 1_555 1_555
C5 H4 1_555 1_555
C6 C5 1_555 1_555
H5 C6 1_555 1_555
C7 C6 1_555 1_555
H6 C7 1_555 1_555
C8 C7 1_555 1_555
C9 C3 1_555 1_555
C10 C8 1_555 1_555
H7 C10 1_555 1_555
C11 H8 1_555 1_555
H9 C11 1_555 1_555
C12 C11 1_555 1_555
H10 C12 1_555 1_555
H11 C12 1_555 1_555
C13 H12 1_555 1_555
H13 C13 1_555 1_555
H14 C13 1_555 1_555
C14 C15 1_555 1_555
C15 H15 1_555 1_555
C16 C15 1_555 1_555
H16 C16 1_555 1_555
C17 C16 1_555 1_555
H17 C17 1_555 1_555
C18 C17 1_555 1_555
C19 C14 1_555 1_555
C20 C18 1_555 1_555
H18 C20 1_555 1_555
C21 C12 1_555 1_555
H19 C21 1_555 1_555
H20 C21 1_555 1_555
C22 C23 1_555 1_555
C23 C25 1_555 1_555
C24 C22 1_555 1_555
C25 N5 1_555 1_555
Cu1 N1 1_555 1_555
Sm1 O1 1_555 1_555
N1 C10 1_555 1_555
N2 C2 1_555 1_555
N3 C20 1_555 1_555
N4 C24 1_555 1_555
N5 Cu1 1_555 1_555
N6 O5 1_555 1_555
Ni1 S1 1_555 1_555
O1 C1 1_555 1_555
O2 C9 1_555 1_555
O3 C19 1_555 1_555
O4 C13 1_555 1_555
O5 Sm1 1_555 1_555
O6 N6 1_555 1_555
S1 C22 1_555 1_555
S2 C23 1_555 1_555
C1B H1B 1_555 1_555
H2B C1B 1_555 1_555
H3B C1B 1_555 1_555
C3B C5B 1_555 1_555
C5B H4B 1_555 1_555
C6B C5B 1_555 1_555
H5B C6B 1_555 1_555
C7B C6B 1_555 1_555
H6B C7B 1_555 1_555
C8B C7B 1_555 1_555
C9B C3B 1_555 1_555
C10B C8B 1_555 1_555
H7B C10B 1_555 1_555
C11B H8B 1_555 1_555
H9B C11B 1_555 1_555
C12B C11B 1_555 1_555
H10B C12B 1_555 1_555
H11B C12B 1_555 1_555
C13B H12B 1_555 1_555
H13B C13B 1_555 1_555
H14B C13B 1_555 1_555
C14B C15B 1_555 1_555
C15B H15B 1_555 1_555
C16B C15B 1_555 1_555
H16B C16B 1_555 1_555
C17B C16B 1_555 1_555
H17B C17B 1_555 1_555
C18B C17B 1_555 1_555
C19B C14B 1_555 1_555
C20B C18B 1_555 1_555
H18B C20B 1_555 1_555
C21B C12B 1_555 1_555
H19B C21B 1_555 1_555
H20B C21B 1_555 1_555
C22B C23B 1_555 1_555
C23B C25B 1_555 1_555
C24B C22B 1_555 1_555
C25B N5B 1_555 1_555
Cu1B N1B 1_555 1_555
N1B C10B 1_555 1_555
N3B C20B 1_555 1_555
N4B C24B 1_555 1_555
N5B Cu1B 1_555 1_555
Ni1G S1B 1_555 1_555
O1B Sm1 1_555 1_555
O2B Sm1 1_555 1_555
O3B Sm1 1_555 1_555
O4B Sm1 1_555 1_555
O5B Sm1 1_555 1_555
S1B C22B 1_555 1_555
S1E Ni1 1_555 1_555
S2B C23B 1_555 1_555
S2E Ni1 1_555 1_555
C3 O1 1_555 1_555
C8 C9 1_555 1_555
C11 N1 1_555 1_555
C14 O4 1_555 1_555
C18 C19 1_555 1_555
C21 N3 1_555 1_555
Cu1 N3 1_555 1_555
Cu1 O2 1_555 1_555
Cu1 O3 1_555 1_555
Sm1 O2 1_555 1_555
Sm1 O3 1_555 1_555
Sm1 O4 1_555 1_555
N6 O5B 1_555 1_555
Ni1 S2 1_555 1_555
C1B O1B 1_555 1_555
C3B O1B 1_555 1_555
C8B C9B 1_555 1_555
C9B O2B 1_555 1_555
C11B N1B 1_555 1_555
C13B O4B 1_555 1_555
C14B O4B 1_555 1_555
C18B C19B 1_555 1_555
C19B O3B 1_555 1_555
C21B N3B 1_555 1_555
Cu1B N3B 1_555 1_555
Cu1B O2B 1_555 1_555
Cu1B O3B 1_555 1_555
Ni1G S2B 1_555 1_555

#END
