
#######################################################################
#
#                 Cambridge Crystallographic Data Centre
#                                CCDC 
#
#######################################################################
#
# If this CIF has been generated from an entry in the Cambridge 
# Structural Database, then it will include bibliographic, chemical, 
# crystal, experimental, refinement or atomic coordinate data resulting 
# from the CCDC's data processing and validation procedures.
#
#######################################################################

data_BIYLIG
_symmetry_cell_setting           monoclinic
_symmetry_space_group_name_H-M   'C 2/m'
_symmetry_Int_Tables_number      12
_space_group_name_Hall           '-C 2y'
loop_
_symmetry_equiv_pos_site_id
_symmetry_equiv_pos_as_xyz
1 x,y,z
2 -x,y,-z
3 1/2+x,1/2+y,z
4 1/2-x,1/2+y,-z
5 -x,-y,-z
6 x,-y,z
7 1/2-x,1/2-y,-z
8 1/2+x,1/2-y,z
_cell_length_a                   11.7387(3)
_cell_length_b                   17.6207(5)
_cell_length_c                   6.8343(2)
_cell_angle_alpha                90
_cell_angle_beta                 115.936(2)
_cell_angle_gamma                90
_cell_volume                     1271.26
loop_
_atom_site_label
_atom_site_type_symbol
_atom_site_fract_x
_atom_site_fract_y
_atom_site_fract_z
Cu1 Cu 0.0000 0.40467(3) 0.5000
Br1 Br 0.11542(3) 0.5000 0.36553(5)
C1 C 0.2283(2) 0.32022(13) 0.7374(4)
C2 C 0.1788(2) 0.39398(14) 0.9642(4)
H1 H 0.1219 0.4260 0.9909
C3 C 0.2947(2) 0.37619(15) 1.1340(4)
H2 H 0.3189 0.3955 1.2764
C4 C 0.3736(2) 0.32924(16) 1.0876(4)
H3 H 0.4544 0.3171 1.2009
N1 N 0.14496(18) 0.36708(11) 0.7630(3)
N2 N 0.34095(19) 0.29998(13) 0.8889(3)
S1 S 0.17168(5) 0.28563(3) 0.46970(9)
C1F C 0.2717(2) 0.17978(13) 0.2626(4)
C2F C 0.3212(2) 0.10602(14) 0.0358(4)
H1F H 0.3781 0.0740 0.0091
C3F C 0.2053(2) 0.12381(15) -0.1340(4)
H2F H 0.1811 0.1045 -0.2764
C4F C 0.1264(2) 0.17076(16) -0.0876(4)
H3F H 0.0456 0.1829 -0.2009
N1F N 0.35504(18) 0.13292(11) 0.2370(3)
N2F N 0.15905(19) 0.20002(13) 0.1111(3)
S1F S 0.32832(5) 0.21437(3) 0.53030(9)
Cu1D Cu 0.0000 0.59533(3) 0.5000
Cu1F Cu 0.5000 0.09533(3) 0.5000
Br1A Br -0.11542(3) 0.5000 0.63447(5)
N1A N -0.14496(18) 0.36708(11) 0.2370(3)
S1A S -0.17168(5) 0.28563(3) 0.53030(9)
C5 C 0.437(2) 0.5000 0.702(3)
N3 N 0.450(2) 0.5000 0.546(3)
C6 C 0.437(2) 0.5000 0.912(3)
loop_
_geom_bond_atom_site_label_1
_geom_bond_atom_site_label_2
_geom_bond_site_symmetry_1
_geom_bond_site_symmetry_2
Cu1 Br1 1_555 1_555
Br1 Cu1D 1_555 1_555
C1 N1 1_555 1_555
C2 H1 1_555 1_555
C3 C2 1_555 1_555
H2 C3 1_555 1_555
C4 C3 1_555 1_555
H3 C4 1_555 1_555
N1 Cu1 1_555 1_555
N2 C1 1_555 1_555
S1 Cu1 1_555 1_555
C5 N3 1_555 1_555
C6 C5 1_555 1_555
C1F N1F 1_555 1_555
C2F H1F 1_555 1_555
C3F C2F 1_555 1_555
H2F C3F 1_555 1_555
C4F C3F 1_555 1_555
H3F C4F 1_555 1_555
N1F C2F 1_555 1_555
N2F C1F 1_555 1_555
S1F S1 1_555 1_555
Cu1D Br1A 1_555 1_555
Cu1F N1F 1_555 1_555
Br1A Cu1 1_555 1_555
N1A Cu1 1_555 1_555
S1A Cu1 1_555 1_555
C1 S1 1_555 1_555
C2 N1 1_555 1_555
C4 N2 1_555 1_555
C1F S1F 1_555 1_555
C4F N2F 1_555 1_555
S1F Cu1F 1_555 1_555

#END
