
#######################################################################
#
#                 Cambridge Crystallographic Data Centre
#                                CCDC 
#
#######################################################################
#
# If this CIF has been generated from an entry in the Cambridge 
# Structural Database, then it will include bibliographic, chemical, 
# crystal, experimental, refinement or atomic coordinate data resulting 
# from the CCDC's data processing and validation procedures.
#
#######################################################################

data_BIYLUS
_symmetry_cell_setting           monoclinic
_symmetry_space_group_name_H-M   'C 2/m'
_symmetry_Int_Tables_number      12
_space_group_name_Hall           '-C 2y'
loop_
_symmetry_equiv_pos_site_id
_symmetry_equiv_pos_as_xyz
1 x,y,z
2 -x,y,-z
3 1/2+x,1/2+y,z
4 1/2-x,1/2+y,-z
5 -x,-y,-z
6 x,-y,z
7 1/2-x,1/2-y,-z
8 1/2+x,1/2-y,z
_cell_length_a                   11.8630(7)
_cell_length_b                   17.7321(12)
_cell_length_c                   6.8669(5)
_cell_angle_alpha                90
_cell_angle_beta                 115.977(7)
_cell_angle_gamma                90
_cell_volume                     1298.56
loop_
_atom_site_label
_atom_site_type_symbol
_atom_site_fract_x
_atom_site_fract_y
_atom_site_fract_z
Cu1 Cu 1.0000 0.90457(4) 1.0000
C1 C 0.7719(3) 0.8202(2) 0.7646(6)
N1 N 0.6599(3) 0.8007(2) 0.6133(5)
C2 C 0.6274(4) 0.8304(3) 0.4155(7)
H1 H 0.5489 0.8189 0.3051
C3 C 0.7051(4) 0.8770(3) 0.3695(6)
H2 H 0.6816 0.8964 0.2314
C4 C 0.8203(4) 0.8934(2) 0.5396(6)
H3 H 0.8757 0.9242 0.5139
N2 N 0.8546(3) 0.86659(19) 0.7391(5)
S1 S 0.82775(9) 0.78506(6) 1.03002(15)
Br1 Br 1.11354(5) 1.0000 0.86296(8)
C1F C 0.7281(3) 0.6798(2) 1.2354(6)
N1F N 0.8401(3) 0.6993(2) 1.3867(5)
C2F C 0.8726(4) 0.6696(3) 1.5845(7)
H1F H 0.9511 0.6811 1.6949
C3F C 0.7949(4) 0.6230(3) 1.6305(6)
H2F H 0.8184 0.6036 1.7686
C4F C 0.6797(4) 0.6066(2) 1.4604(6)
H3F H 0.6243 0.5758 1.4861
N2F N 0.6454(3) 0.63341(19) 1.2609(5)
S1F S 0.67225(9) 0.71494(6) 0.96998(15)
Cu1D Cu 1.0000 1.09543(4) 1.0000
Cu1F Cu 0.5000 0.59543(4) 1.0000
N2A N 1.1454(3) 0.86659(19) 1.2609(5)
Br1A Br 0.88646(5) 1.0000 1.13704(8)
O1 O 1.436(2) 1.0000 1.160(5)
C5 C 1.434(3) 1.0000 1.349(6)
loop_
_geom_bond_atom_site_label_1
_geom_bond_atom_site_label_2
_geom_bond_site_symmetry_1
_geom_bond_site_symmetry_2
Cu1 N2 1_555 1_555
C1 N1 1_555 1_555
N1 C2 1_555 1_555
C2 H1 1_555 1_555
C3 C2 1_555 1_555
H2 C3 1_555 1_555
C4 C3 1_555 1_555
H3 C4 1_555 1_555
N2 C1 1_555 1_555
S1 C1 1_555 1_555
Br1 Cu1 1_555 1_555
O1 C5 1_555 1_555
C1F N1F 1_555 1_555
N1F C2F 1_555 1_555
C2F H1F 1_555 1_555
C3F C2F 1_555 1_555
H2F C3F 1_555 1_555
C4F C3F 1_555 1_555
H3F C4F 1_555 1_555
N2F C1F 1_555 1_555
S1F S1 1_555 1_555
Cu1D Br1 1_555 1_555
Cu1F N2F 1_555 1_555
N2A Cu1 1_555 1_555
Br1A Cu1 1_555 1_555
C4 N2 1_555 1_555
C1F S1F 1_555 1_555
C4F N2F 1_555 1_555
Cu1D Br1A 1_555 1_555

#END
