
#######################################################################
#
#                 Cambridge Crystallographic Data Centre
#                                CCDC 
#
#######################################################################
#
# If this CIF has been generated from an entry in the Cambridge 
# Structural Database, then it will include bibliographic, chemical, 
# crystal, experimental, refinement or atomic coordinate data resulting 
# from the CCDC's data processing and validation procedures.
#
#######################################################################

data_BIYLEC
_symmetry_cell_setting           triclinic
_symmetry_space_group_name_H-M   'P -1'
_symmetry_Int_Tables_number      2
_space_group_name_Hall           '-P 1'
loop_
_symmetry_equiv_pos_site_id
_symmetry_equiv_pos_as_xyz
1 x,y,z
2 -x,-y,-z
_cell_length_a                   10.2879(2)
_cell_length_b                   11.1306(2)
_cell_length_c                   12.9529(4)
_cell_angle_alpha                115.4240(10)
_cell_angle_beta                 108.043(2)
_cell_angle_gamma                93.960(2)
_cell_volume                     1237.97
loop_
_atom_site_label
_atom_site_type_symbol
_atom_site_fract_x
_atom_site_fract_y
_atom_site_fract_z
Cu1 Cu -0.04665(4) 0.05730(4) 0.10514(4)
Cu2 Cu 0.36022(4) 0.23514(4) 0.62327(3)
Br1 Br 0.12947(3) 0.18320(3) 0.07358(2)
Br2 Br 0.19829(3) 0.16589(3) 0.69757(3)
Br3 Br 0.54022(3) 0.25690(3) 0.54486(3)
C1 C 0.1538(3) 0.1160(3) 0.3603(2)
C2 C 0.2331(3) -0.0361(3) 0.4259(3)
H1 H 0.2878 -0.0550 0.4888
C3 C 0.1549(3) -0.1433(3) 0.3108(3)
H2 H 0.1583 -0.2352 0.2916
C4 C 0.0712(3) -0.1115(3) 0.2243(3)
H3 H 0.0121 -0.1838 0.1454
C5 C 0.1092(3) 0.4361(3) 0.6110(2)
C6 C 0.0573(3) 0.5531(3) 0.7788(3)
H4 H 0.0841 0.6179 0.8633
C7 C -0.0832(3) 0.4861(3) 0.7086(3)
H5 H -0.1531 0.5035 0.7434
C8 C -0.1172(3) 0.3931(3) 0.5861(3)
H6 H -0.2128 0.3465 0.5364
C9 C -0.4133(3) 0.3159(3) -0.1365(2)
C10 C -0.2904(3) 0.5286(3) 0.0143(3)
H7 H -0.2134 0.5873 0.0890
C11 C -0.3820(3) 0.5867(3) -0.0436(3)
H8 H -0.3722 0.6830 -0.0083
C12 C -0.4870(3) 0.4980(3) -0.1544(3)
H9 H -0.5507 0.5339 -0.1975
C13 C -0.3230(3) 0.1357(3) 0.0456(2)
C14 C -0.4634(3) 0.1855(3) 0.1548(3)
H10 H -0.5479 0.2085 0.1637
C15 C -0.3665(3) 0.1706(3) 0.2474(3)
H11 H -0.3830 0.1825 0.3190
C16 C -0.2444(3) 0.1378(3) 0.2315(3)
H12 H -0.1755 0.1282 0.2942
N1 N 0.0705(2) 0.0179(2) 0.2481(2)
N2 N 0.2343(2) 0.0952(2) 0.4519(2)
N3 N 0.1562(2) 0.5283(2) 0.7298(2)
N4 N -0.0210(2) 0.3655(2) 0.5342(2)
N5 N -0.5028(2) 0.3608(2) -0.2042(2)
N6 N -0.3066(2) 0.3933(2) -0.0311(2)
N7 N -0.2204(2) 0.1191(2) 0.1300(2)
N8 N -0.4418(2) 0.1683(2) 0.0523(2)
S1 S 0.15666(7) 0.28149(6) 0.37377(6)
S2 S 0.25084(6) 0.41284(6) 0.55749(6)
S3 S -0.28181(6) 0.10561(7) -0.08616(6)
S4 S -0.45093(6) 0.13535(6) -0.19681(6)
Cu1A Cu 0.04665(4) -0.05730(4) -0.10514(4)
Cu2_2 Cu -0.63978(4) 0.23514(4) -0.37673(3)
Br1A Br -0.12947(3) -0.18320(3) -0.07358(2)
N5_2 N 0.4972(2) 0.3608(2) 0.7958(2)
loop_
_geom_bond_atom_site_label_1
_geom_bond_atom_site_label_2
_geom_bond_site_symmetry_1
_geom_bond_site_symmetry_2
Cu1 Br1 1_555 1_555
Cu2 Br2 1_555 1_555
Br1 Cu1A 1_555 1_555
Br3 Cu2 1_555 1_555
C1 N1 1_555 1_555
C2 H1 1_555 1_555
C3 C2 1_555 1_555
H2 C3 1_555 1_555
C4 C3 1_555 1_555
H3 C4 1_555 1_555
C5 N3 1_555 1_555
C6 H4 1_555 1_555
C7 C6 1_555 1_555
H5 C7 1_555 1_555
C8 C7 1_555 1_555
H6 C8 1_555 1_555
C9 N5 1_555 1_555
C10 H7 1_555 1_555
C11 C10 1_555 1_555
H8 C11 1_555 1_555
C12 C11 1_555 1_555
H9 C12 1_555 1_555
C13 N7 1_555 1_555
C14 H10 1_555 1_555
C15 C14 1_555 1_555
H11 C15 1_555 1_555
C16 C15 1_555 1_555
H12 C16 1_555 1_555
N1 Cu1 1_555 1_555
N2 Cu2 1_555 1_555
N3 C6 1_555 1_555
N4 C5 1_555 1_555
N5 C12 1_555 1_555
N6 C9 1_555 1_555
N7 Cu1 1_555 1_555
N8 C13 1_555 1_555
S1 C1 1_555 1_555
S2 Cu2 1_555 1_555
S3 C13 1_555 1_555
S4 C9 1_555 1_555
Cu1A Br1A 1_555 1_555
Cu2_2 N5 1_555 1_555
Br1A Cu1 1_555 1_555
N5_2 Cu2 1_555 1_555
C1 N2 1_555 1_555
C2 N2 1_555 1_555
C4 N1 1_555 1_555
C5 S2 1_555 1_555
C8 N4 1_555 1_555
C10 N6 1_555 1_555
C14 N8 1_555 1_555
C16 N7 1_555 1_555
S1 S2 1_555 1_555
S3 S4 1_555 1_555

#END
