
#######################################################################
#
#                 Cambridge Crystallographic Data Centre
#                                CCDC 
#
#######################################################################
#
# If this CIF has been generated from an entry in the Cambridge 
# Structural Database, then it will include bibliographic, chemical, 
# crystal, experimental, refinement or atomic coordinate data resulting 
# from the CCDC's data processing and validation procedures.
#
#######################################################################

data_BIYNEE
_symmetry_cell_setting           monoclinic
_symmetry_space_group_name_H-M   'P 21/c'
_symmetry_Int_Tables_number      14
_space_group_name_Hall           '-P 2ybc'
loop_
_symmetry_equiv_pos_site_id
_symmetry_equiv_pos_as_xyz
1 x,y,z
2 -x,1/2+y,1/2-z
3 -x,-y,-z
4 x,1/2-y,1/2+z
_cell_length_a                   27.7920(12)
_cell_length_b                   15.6681(7)
_cell_length_c                   16.1391(7)
_cell_angle_alpha                90
_cell_angle_beta                 98.016(2)
_cell_angle_gamma                90
_cell_volume                     6959.07
loop_
_atom_site_label
_atom_site_type_symbol
_atom_site_fract_x
_atom_site_fract_y
_atom_site_fract_z
C1 C 0.17681(19) 0.6290(3) 0.3913(3)
H1 H 0.1998 0.6276 0.4407
C2 C 0.1445(2) 0.6949(3) 0.3796(3)
H2 H 0.1446 0.7383 0.4207
C3 C 0.11159(19) 0.6976(3) 0.3071(3)
C4 C 0.10998(19) 0.6335(3) 0.2476(3)
H3 H 0.0868 0.6356 0.1984
C5 C 0.14256(19) 0.5664(3) 0.2608(3)
H4 H 0.1415 0.5219 0.2206
C6 C 0.17704(18) 0.5637(3) 0.3326(3)
C7 C 0.21206(18) 0.4911(3) 0.3426(3)
C8 C 0.25492(13) 0.4982(2) 0.40029(19)
H5 H 0.2617 0.5516 0.4272
C9 C 0.28772(13) 0.4323(2) 0.42027(19)
C10 C 0.33436(19) 0.4471(3) 0.4770(3)
C11 C 0.3615(2) 0.3770(4) 0.5097(3)
H6 H 0.3491 0.3211 0.4989
C12 C 0.4065(2) 0.3877(4) 0.5577(3)
H7 H 0.4242 0.3397 0.5815
C13 C 0.42510(19) 0.4685(4) 0.5706(3)
C14 C 0.3993(2) 0.5389(4) 0.5408(3)
H8 H 0.4124 0.5945 0.5510
C15 C 0.3534(2) 0.5276(4) 0.4951(3)
H9 H 0.3347 0.5763 0.4759
C16 C 0.1999(2) -0.0339(3) 0.3458(3)
H10 H 0.1664 -0.0310 0.3241
C17 C 0.2207(2) -0.1113(4) 0.3674(3)
H11 H 0.2017 -0.1619 0.3608
C18 C 0.2699(2) -0.1155(3) 0.3990(3)
C19 C 0.2975(2) -0.0422(4) 0.4147(3)
H12 H 0.3304 -0.0455 0.4403
C20 C 0.2763(2) 0.0359(3) 0.3924(3)
H13 H 0.2950 0.0865 0.4023
C21 C 0.22783(19) 0.0416(3) 0.3554(3)
C22 C 0.20870(19) 0.1255(3) 0.3209(3)
C23 C 0.16428(19) 0.1271(3) 0.2673(3)
H14 H 0.1461 0.0756 0.2604
C24 C 0.14500(19) 0.1988(3) 0.2234(3)
C25 C 0.09668(19) 0.1927(3) 0.1698(3)
C26 C 0.0845(2) 0.2575(4) 0.1125(3)
H15 H 0.1058 0.3047 0.1111
C27 C 0.0420(2) 0.2548(4) 0.0574(3)
H16 H 0.0344 0.2990 0.0175
C28 C 0.0105(2) 0.1874(4) 0.0609(3)
C29 C 0.0211(2) 0.1235(4) 0.1193(3)
H17 H -0.0010 0.0776 0.1220
C30 C 0.0638(2) 0.1267(4) 0.1737(3)
H18 H 0.0709 0.0831 0.2145
C31 C 0.14032(19) 0.5380(3) 0.0358(3)
H19 H 0.1546 0.5846 0.0679
C32 C 0.09588(19) 0.5494(4) -0.0142(3)
H20 H 0.0796 0.6028 -0.0160
C33 C 0.07601(18) 0.4815(3) -0.0610(3)
C34 C 0.0995(2) 0.4036(3) -0.0604(3)
H21 H 0.0858 0.3582 -0.0950
C35 C 0.1430(2) 0.3926(3) -0.0087(3)
H22 H 0.1587 0.3386 -0.0063
C36 C 0.16447(18) 0.4597(3) 0.0400(3)
C37 C 0.21058(18) 0.4436(3) 0.0987(3)
C38 C 0.24034(18) 0.5123(3) 0.1274(3)
H23 H 0.2314 0.5675 0.1064
C39 C 0.28275(18) 0.5045(3) 0.1856(3)
C40 C 0.31638(18) 0.5783(3) 0.2009(3)
C41 C 0.3511(2) 0.5788(4) 0.2725(3)
H24 H 0.3527 0.5319 0.3101
C42 C 0.38343(19) 0.6466(4) 0.2897(3)
H25 H 0.4067 0.6465 0.3388
C43 C 0.3810(2) 0.7143(3) 0.2338(3)
C44 C 0.3475(2) 0.7138(4) 0.1621(3)
H26 H 0.3466 0.7600 0.1237
C45 C 0.31545(19) 0.6474(3) 0.1458(3)
H27 H 0.2923 0.6483 0.0966
C46 C 0.2909(2) -0.0336(3) 0.1901(3)
H28 H 0.3232 -0.0309 0.2184
C47 C 0.2683(2) -0.1117(4) 0.1783(3)
H29 H 0.2849 -0.1622 0.1984
C48 C 0.2212(2) -0.1160(3) 0.1368(3)
C49 C 0.1971(2) -0.0439(3) 0.1053(3)
H30 H 0.1651 -0.0478 0.0757
C50 C 0.2202(2) 0.0352(3) 0.1172(3)
H31 H 0.2039 0.0853 0.0952
C51 C 0.26736(19) 0.0414(3) 0.1616(3)
C52 C 0.2881(2) 0.1278(3) 0.1850(3)
C53 C 0.33504(19) 0.1330(4) 0.2286(3)
H32 H 0.3546 0.0831 0.2328
C54 C 0.35486(19) 0.2079(4) 0.2666(3)
C55 C 0.40564(19) 0.2060(4) 0.3112(3)
C56 C 0.4208(2) 0.2718(4) 0.3650(4)
H33 H 0.3996 0.3187 0.3691
C57 C 0.4656(2) 0.2716(4) 0.4128(4)
H34 H 0.4750 0.3173 0.4503
C58 C 0.49644(19) 0.2054(4) 0.4061(3)
C59 C 0.4843(2) 0.1399(4) 0.3516(4)
H35 H 0.5065 0.0949 0.3461
C60 C 0.4386(2) 0.1406(4) 0.3041(3)
H36 H 0.4297 0.0953 0.2659
C61 C 0.1370(2) 0.3291(4) 0.4133(3)
H37 H 0.1429 0.2920 0.3693
C62 C 0.0899(2) 0.4443(4) 0.4588(4)
H38 H 0.1089 0.4307 0.5130
H39 H 0.0552 0.4428 0.4638
H40 H 0.0987 0.5015 0.4412
C63 C 0.0704(2) 0.3861(5) 0.3168(4)
H41 H 0.0827 0.3453 0.2788
H42 H 0.0714 0.4439 0.2937
H43 H 0.0368 0.3716 0.3230
C64 C 0.3603(2) 0.1439(4) 0.5884(3)
H44 H 0.3463 0.1554 0.6376
C65 C 0.4238(3) 0.0722(6) 0.6780(4)
H45 H 0.4059 0.0939 0.7218
H46 H 0.4573 0.0932 0.6879
H47 H 0.4239 0.0097 0.6791
C66 C 0.4258(3) 0.0813(6) 0.5270(5)
H48 H 0.4312 0.0196 0.5248
H49 H 0.4571 0.1111 0.5331
H50 H 0.4059 0.0998 0.4752
N1 N 0.10021(17) 0.3828(3) 0.3976(3)
N2 N 0.40086(18) 0.1013(3) 0.5978(3)
O1 O 0.28090(13) 0.3559(2) 0.39256(19)
O2 O 0.20121(12) 0.4268(2) 0.29691(19)
O3 O 0.23489(13) 0.1909(2) 0.34066(19)
O4 O 0.16597(13) 0.2700(2) 0.2254(2)
O5 O 0.22007(13) 0.3666(2) 0.11840(19)
O6 O 0.29455(12) 0.4375(2) 0.22753(19)
O7 O 0.26031(13) 0.1919(2) 0.16677(19)
O8 O 0.33185(13) 0.2762(2) 0.2691(2)
O9 O 0.16426(15) 0.3230(3) 0.4793(2)
O10 O 0.33850(15) 0.1705(3) 0.5226(2)
I1 I 0.064339(15) 0.80255(3) 0.28831(2)
I2 I 0.496300(14) 0.48465(3) 0.63248(2)
I3 I 0.302159(15) -0.23644(2) 0.41564(2)
I4 I -0.052400(14) 0.18187(3) -0.02736(2)
I5 I 0.007060(13) 0.49378(3) -0.13224(2)
I6 I 0.427983(16) 0.81841(3) 0.25559(2)
I7 I 0.185648(15) -0.23354(3) 0.13143(3)
I8 I 0.563825(14) 0.20147(3) 0.48389(2)
K1 K 0.25100(4) 0.24574(7) 0.50559(6)
Eu1 Eu 0.248480(9) 0.312693(16) 0.254806(13)
O5C O 0.22007(13) 0.1334(2) 0.61840(19)
O7C O 0.26031(13) 0.3081(2) 0.66677(19)
K1C K 0.25100(4) 0.25426(7) 0.00559(6)
loop_
_geom_bond_atom_site_label_1
_geom_bond_atom_site_label_2
_geom_bond_site_symmetry_1
_geom_bond_site_symmetry_2
C1 H1 1_555 1_555
C2 C1 1_555 1_555
H2 C2 1_555 1_555
C3 C2 1_555 1_555
C4 C3 1_555 1_555
H3 C4 1_555 1_555
C5 C4 1_555 1_555
H4 C5 1_555 1_555
C6 C1 1_555 1_555
C7 C6 1_555 1_555
C8 C7 1_555 1_555
H5 C8 1_555 1_555
C9 C8 1_555 1_555
C10 C9 1_555 1_555
C11 C10 1_555 1_555
H6 C11 1_555 1_555
C12 C11 1_555 1_555
H7 C12 1_555 1_555
C13 C12 1_555 1_555
C14 C13 1_555 1_555
H8 C14 1_555 1_555
C15 C10 1_555 1_555
H9 C15 1_555 1_555
C16 H10 1_555 1_555
C17 C16 1_555 1_555
H11 C17 1_555 1_555
C18 C17 1_555 1_555
C19 C18 1_555 1_555
H12 C19 1_555 1_555
C20 C19 1_555 1_555
H13 C20 1_555 1_555
C21 C16 1_555 1_555
C22 C21 1_555 1_555
C23 C22 1_555 1_555
H14 C23 1_555 1_555
C24 C23 1_555 1_555
C25 C24 1_555 1_555
C26 C25 1_555 1_555
H15 C26 1_555 1_555
C27 C26 1_555 1_555
H16 C27 1_555 1_555
C28 C27 1_555 1_555
C29 C28 1_555 1_555
H17 C29 1_555 1_555
C30 C25 1_555 1_555
H18 C30 1_555 1_555
C31 H19 1_555 1_555
C32 C31 1_555 1_555
H20 C32 1_555 1_555
C33 C32 1_555 1_555
C34 C33 1_555 1_555
H21 C34 1_555 1_555
C35 C34 1_555 1_555
H22 C35 1_555 1_555
C36 C31 1_555 1_555
C37 C36 1_555 1_555
C38 C37 1_555 1_555
H23 C38 1_555 1_555
C39 C38 1_555 1_555
C40 C39 1_555 1_555
C41 C40 1_555 1_555
H24 C41 1_555 1_555
C42 C41 1_555 1_555
H25 C42 1_555 1_555
C43 C42 1_555 1_555
C44 C43 1_555 1_555
H26 C44 1_555 1_555
C45 C40 1_555 1_555
H27 C45 1_555 1_555
C46 H28 1_555 1_555
C47 C46 1_555 1_555
H29 C47 1_555 1_555
C48 C47 1_555 1_555
C49 C48 1_555 1_555
H30 C49 1_555 1_555
C50 C49 1_555 1_555
H31 C50 1_555 1_555
C51 C46 1_555 1_555
C52 C51 1_555 1_555
C53 C52 1_555 1_555
H32 C53 1_555 1_555
C54 C53 1_555 1_555
C55 C54 1_555 1_555
C56 C55 1_555 1_555
H33 C56 1_555 1_555
C57 C56 1_555 1_555
H34 C57 1_555 1_555
C58 C57 1_555 1_555
C59 C58 1_555 1_555
H35 C59 1_555 1_555
C60 C55 1_555 1_555
H36 C60 1_555 1_555
C61 H37 1_555 1_555
C62 H38 1_555 1_555
H39 C62 1_555 1_555
H40 C62 1_555 1_555
C63 H41 1_555 1_555
H42 C63 1_555 1_555
H43 C63 1_555 1_555
C64 H44 1_555 1_555
C65 H45 1_555 1_555
H46 C65 1_555 1_555
H47 C65 1_555 1_555
C66 H48 1_555 1_555
H49 C66 1_555 1_555
H50 C66 1_555 1_555
N1 C61 1_555 1_555
N2 C64 1_555 1_555
O1 C9 1_555 1_555
O2 C7 1_555 1_555
O3 C22 1_555 1_555
O4 C24 1_555 1_555
O5 C37 1_555 1_555
O6 C39 1_555 1_555
O7 C52 1_555 1_555
O8 C54 1_555 1_555
O9 C61 1_555 1_555
O10 C64 1_555 1_555
I1 C3 1_555 1_555
I2 C13 1_555 1_555
I3 C18 1_555 1_555
I4 C28 1_555 1_555
I5 C33 1_555 1_555
I6 C43 1_555 1_555
I7 C48 1_555 1_555
I8 C58 1_555 1_555
K1 O1 1_555 1_555
Eu1 O1 1_555 1_555
O5C K1 1_555 1_555
O7C K1 1_555 1_555
K1C O5 1_555 1_555
C5 C6 1_555 1_555
C14 C15 1_555 1_555
C20 C21 1_555 1_555
C29 C30 1_555 1_555
C35 C36 1_555 1_555
C44 C45 1_555 1_555
C50 C51 1_555 1_555
C59 C60 1_555 1_555
C62 N1 1_555 1_555
C63 N1 1_555 1_555
C65 N2 1_555 1_555
C66 N2 1_555 1_555
O2 Eu1 1_555 1_555
O3 K1 1_555 1_555
O3 Eu1 1_555 1_555
O4 Eu1 1_555 1_555
O5 Eu1 1_555 1_555
O6 Eu1 1_555 1_555
O7 Eu1 1_555 1_555
O7 K1C 1_555 1_555
O8 Eu1 1_555 1_555
O9 K1 1_555 1_555
O10 K1 1_555 1_555

#END
