
#######################################################################
#
#                 Cambridge Crystallographic Data Centre
#                                CCDC 
#
#######################################################################
#
# If this CIF has been generated from an entry in the Cambridge 
# Structural Database, then it will include bibliographic, chemical, 
# crystal, experimental, refinement or atomic coordinate data resulting 
# from the CCDC's data processing and validation procedures.
#
#######################################################################

data_BIYNAA
_symmetry_cell_setting           monoclinic
_symmetry_space_group_name_H-M   'C 2/c'
_symmetry_Int_Tables_number      15
_space_group_name_Hall           '-C 2yn'
loop_
_symmetry_equiv_pos_site_id
_symmetry_equiv_pos_as_xyz
1 x,y,z
2 -x,y,1/2-z
3 1/2+x,1/2+y,z
4 1/2-x,1/2+y,1/2-z
5 -x,-y,-z
6 x,-y,1/2+z
7 1/2-x,1/2-y,-z
8 1/2+x,1/2-y,1/2+z
_cell_length_a                   27.2585(17)
_cell_length_b                   15.8412(17)
_cell_length_c                   16.1606(12)
_cell_angle_alpha                90
_cell_angle_beta                 96.334(6)
_cell_angle_gamma                90
_cell_volume                     6935.67
loop_
_atom_site_label
_atom_site_type_symbol
_atom_site_fract_x
_atom_site_fract_y
_atom_site_fract_z
C1 C 0.39222(19) 0.7164(3) 0.0265(3)
H1 H 0.4077 0.6714 0.0556
C2 C 0.34753(19) 0.7029(3) -0.0219(3)
H2 H 0.3331 0.6496 -0.0252
C3 C 0.32502(19) 0.7703(3) -0.0652(3)
C4 C 0.34687(19) 0.8483(3) -0.0625(3)
H3 H 0.3322 0.8925 -0.0941
C5 C 0.39083(19) 0.8612(3) -0.0127(3)
H4 H 0.4049 0.9147 -0.0096
C6 C 0.41426(18) 0.7954(3) 0.0327(3)
C7 C 0.46062(18) 0.8131(3) 0.0888(3)
C8 C 0.49259(18) 0.7464(3) 0.1123(3)
H5 H 0.4848 0.6932 0.0903
C9 C 0.53600(18) 0.7551(3) 0.1675(3)
C10 C 0.57130(17) 0.6822(3) 0.1786(3)
C11 C 0.60545(18) 0.6792(3) 0.2491(3)
H6 H 0.6066 0.7228 0.2878
C12 C 0.63780(19) 0.6121(3) 0.2625(3)
H7 H 0.6603 0.6102 0.3101
C13 C 0.63638(19) 0.5478(3) 0.2044(3)
C14 C 0.60330(19) 0.5505(4) 0.1338(3)
H8 H 0.6029 0.5075 0.0946
C15 C 0.57057(18) 0.6171(3) 0.1212(3)
H9 H 0.5479 0.6182 0.0737
C16 C 0.45103(19) 1.2866(3) 0.3281(3)
H10 H 0.4184 1.2841 0.3046
C17 C 0.4728(2) 1.3641(3) 0.3443(4)
H11 H 0.4551 1.4136 0.3321
C18 C 0.5214(2) 1.3674(3) 0.3791(3)
C19 C 0.5472(2) 1.2957(3) 0.4008(3)
H12 H 0.5793 1.2991 0.4268
C20 C 0.5253(2) 1.2178(3) 0.3840(3)
H13 H 0.5431 1.1689 0.3981
C21 C 0.47716(19) 1.2115(3) 0.3463(3)
C22 C 0.45755(19) 1.1271(3) 0.3166(3)
C23 C 0.41306(19) 1.1236(3) 0.2661(3)
H14 H 0.3949 1.1733 0.2588
C24 C 0.39343(19) 1.0515(3) 0.2254(3)
C25 C 0.34435(19) 1.0551(3) 0.1738(3)
C26 C 0.3329(2) 0.9902(4) 0.1179(4)
H15 H 0.3545 0.9449 0.1165
C27 C 0.2899(2) 0.9916(4) 0.0643(4)
H16 H 0.2827 0.9477 0.0268
C28 C 0.25774(19) 1.0580(4) 0.0665(3)
C29 C 0.2672(2) 1.1222(4) 0.1234(4)
H17 H 0.2448 1.1661 0.1261
C30 C 0.3107(2) 1.1201(4) 0.1766(4)
H18 H 0.3175 1.1634 0.2150
C31 C 0.6144(2) 0.9152(4) 0.0850(4)
H19 H 0.6086 0.9511 0.1284
C32 C 0.6804(3) 0.8547(5) 0.1789(4)
H20 H 0.7144 0.8649 0.1722
H21 H 0.6769 0.7994 0.2018
H22 H 0.6692 0.8962 0.2159
C33 C 0.6614(2) 0.8001(4) 0.0374(4)
H23 H 0.6513 0.7451 0.0535
H24 H 0.6962 0.7997 0.0325
H25 H 0.6438 0.8150 -0.0153
N1 N 0.65112(16) 0.8604(3) 0.0988(3)
O1 O 0.46792(13) 0.8895(2) 0.1117(2)
O2 O 0.54749(12) 0.8200(2) 0.2107(2)
O3 O 0.48448(12) 1.0621(2) 0.3380(2)
O4 O 0.41467(13) 0.9810(2) 0.2287(2)
O5 O 0.58737(15) 0.9224(2) 0.0194(3)
K1 K 0.5000 1.0000 0.0000
I1 I 0.255458(13) 0.75433(2) -0.13298(2)
I2 I 0.682950(15) 0.44324(2) 0.22276(2)
I3 I 0.556051(15) 1.48592(2) 0.38950(3)
I4 I 0.195109(15) 1.06149(3) -0.02065(3)
Nd1 Nd 0.5000 0.93974(2) 0.2500
C1A C 0.60778(19) 0.7164(3) 0.4735(3)
H1A H 0.5923 0.6714 0.4444
C2A C 0.65247(19) 0.7029(3) 0.5219(3)
H2A H 0.6669 0.6496 0.5252
C3A C 0.67498(19) 0.7703(3) 0.5652(3)
C4A C 0.65313(19) 0.8483(3) 0.5625(3)
H3A H 0.6678 0.8925 0.5941
C5A C 0.60917(19) 0.8612(3) 0.5127(3)
H4A H 0.5951 0.9147 0.5096
C6A C 0.58574(18) 0.7954(3) 0.4673(3)
C7A C 0.53938(18) 0.8131(3) 0.4112(3)
C8A C 0.50741(18) 0.7464(3) 0.3877(3)
H5A H 0.5152 0.6932 0.4097
C9A C 0.46400(18) 0.7551(3) 0.3325(3)
C10A C 0.42870(17) 0.6822(3) 0.3214(3)
C11A C 0.39455(18) 0.6792(3) 0.2509(3)
H6A H 0.3934 0.7228 0.2122
C12A C 0.36220(19) 0.6121(3) 0.2375(3)
H7A H 0.3397 0.6102 0.1899
C13A C 0.36362(19) 0.5478(3) 0.2956(3)
C14A C 0.39670(19) 0.5505(4) 0.3662(3)
H8A H 0.3971 0.5075 0.4054
C15A C 0.42943(18) 0.6171(3) 0.3788(3)
H9A H 0.4521 0.6182 0.4263
C16A C 0.54897(19) 1.2866(3) 0.1719(3)
H10A H 0.5816 1.2841 0.1954
C17A C 0.5272(2) 1.3641(3) 0.1557(4)
H11A H 0.5449 1.4136 0.1679
C18A C 0.4786(2) 1.3674(3) 0.1209(3)
C19A C 0.4528(2) 1.2957(3) 0.0992(3)
H12A H 0.4207 1.2991 0.0732
C20A C 0.4747(2) 1.2178(3) 0.1160(3)
H13A H 0.4569 1.1689 0.1019
C21A C 0.52284(19) 1.2115(3) 0.1537(3)
C22A C 0.54245(19) 1.1271(3) 0.1834(3)
C23A C 0.58694(19) 1.1236(3) 0.2339(3)
H14A H 0.6051 1.1733 0.2412
C24A C 0.60657(19) 1.0515(3) 0.2746(3)
C25A C 0.65565(19) 1.0551(3) 0.3262(3)
C26A C 0.6671(2) 0.9902(4) 0.3821(4)
H15A H 0.6455 0.9449 0.3835
C27A C 0.7101(2) 0.9916(4) 0.4357(4)
H16A H 0.7173 0.9477 0.4732
C28A C 0.74226(19) 1.0580(4) 0.4335(3)
C29A C 0.7328(2) 1.1222(4) 0.3766(4)
H17A H 0.7552 1.1661 0.3739
C30A C 0.6893(2) 1.1201(4) 0.3234(4)
H18A H 0.6825 1.1634 0.2850
O1A O 0.53208(13) 0.8895(2) 0.3883(2)
O2A O 0.45251(12) 0.8200(2) 0.2893(2)
O3A O 0.51552(12) 1.0621(2) 0.1620(2)
O4A O 0.58533(13) 0.9810(2) 0.2713(2)
I1A I 0.744542(13) 0.75433(2) 0.63298(2)
I2A I 0.317050(15) 0.44324(2) 0.27724(2)
I3A I 0.443949(15) 1.48592(2) 0.11050(3)
I4A I 0.804891(15) 1.06149(3) 0.52065(3)
C31D C 0.3856(2) 1.0848(4) -0.0850(4)
H19D H 0.3914 1.0489 -0.1284
C32D C 0.3196(3) 1.1453(5) -0.1789(4)
H20D H 0.2856 1.1351 -0.1722
H21D H 0.3231 1.2006 -0.2018
H22D H 0.3308 1.1038 -0.2159
C33D C 0.3386(2) 1.1999(4) -0.0374(4)
H23D H 0.3487 1.2549 -0.0535
H24D H 0.3038 1.2003 -0.0325
H25D H 0.3562 1.1850 0.0153
N1D N 0.34888(16) 1.1396(3) -0.0988(3)
O5D O 0.41263(15) 1.0776(2) -0.0194(3)
O1D O 0.53208(13) 1.1105(2) -0.1117(2)
O3E O 0.48448(12) 0.9379(2) -0.1620(2)
K1A K 0.5000 1.0000 0.5000
loop_
_geom_bond_atom_site_label_1
_geom_bond_atom_site_label_2
_geom_bond_site_symmetry_1
_geom_bond_site_symmetry_2
C1 H1 1_555 1_555
C2 C1 1_555 1_555
H2 C2 1_555 1_555
C3 C2 1_555 1_555
C4 C3 1_555 1_555
H3 C4 1_555 1_555
C5 C4 1_555 1_555
H4 C5 1_555 1_555
C6 C1 1_555 1_555
C7 C6 1_555 1_555
C8 C7 1_555 1_555
H5 C8 1_555 1_555
C9 C8 1_555 1_555
C10 C9 1_555 1_555
C11 C10 1_555 1_555
H6 C11 1_555 1_555
C12 C11 1_555 1_555
H7 C12 1_555 1_555
C13 C12 1_555 1_555
C14 C13 1_555 1_555
H8 C14 1_555 1_555
C15 C10 1_555 1_555
H9 C15 1_555 1_555
C16 H10 1_555 1_555
C17 C16 1_555 1_555
H11 C17 1_555 1_555
C18 C17 1_555 1_555
C19 C18 1_555 1_555
H12 C19 1_555 1_555
C20 C19 1_555 1_555
H13 C20 1_555 1_555
C21 C16 1_555 1_555
C22 C21 1_555 1_555
C23 C22 1_555 1_555
H14 C23 1_555 1_555
C24 C23 1_555 1_555
C25 C24 1_555 1_555
C26 C25 1_555 1_555
H15 C26 1_555 1_555
C27 C26 1_555 1_555
H16 C27 1_555 1_555
C28 C27 1_555 1_555
C29 C28 1_555 1_555
H17 C29 1_555 1_555
C30 C25 1_555 1_555
H18 C30 1_555 1_555
C31 H19 1_555 1_555
C32 H20 1_555 1_555
H21 C32 1_555 1_555
H22 C32 1_555 1_555
C33 H23 1_555 1_555
H24 C33 1_555 1_555
H25 C33 1_555 1_555
N1 C31 1_555 1_555
O1 C7 1_555 1_555
O2 C9 1_555 1_555
O3 C22 1_555 1_555
O4 C24 1_555 1_555
O5 C31 1_555 1_555
K1 O1 1_555 1_555
I1 C3 1_555 1_555
I2 C13 1_555 1_555
I3 C18 1_555 1_555
I4 C28 1_555 1_555
Nd1 O1 1_555 1_555
C1A H1A 1_555 1_555
C2A C1A 1_555 1_555
H2A C2A 1_555 1_555
C3A C2A 1_555 1_555
C4A C3A 1_555 1_555
H3A C4A 1_555 1_555
C5A C4A 1_555 1_555
H4A C5A 1_555 1_555
C6A C1A 1_555 1_555
C7A C6A 1_555 1_555
C8A C7A 1_555 1_555
H5A C8A 1_555 1_555
C9A C8A 1_555 1_555
C10A C9A 1_555 1_555
C11A C10A 1_555 1_555
H6A C11A 1_555 1_555
C12A C11A 1_555 1_555
H7A C12A 1_555 1_555
C13A C12A 1_555 1_555
C14A C13A 1_555 1_555
H8A C14A 1_555 1_555
C15A C10A 1_555 1_555
H9A C15A 1_555 1_555
C16A H10A 1_555 1_555
C17A C16A 1_555 1_555
H11A C17A 1_555 1_555
C18A C17A 1_555 1_555
C19A C18A 1_555 1_555
H12A C19A 1_555 1_555
C20A C19A 1_555 1_555
H13A C20A 1_555 1_555
C21A C16A 1_555 1_555
C22A C21A 1_555 1_555
C23A C22A 1_555 1_555
H14A C23A 1_555 1_555
C24A C23A 1_555 1_555
C25A C24A 1_555 1_555
C26A C25A 1_555 1_555
H15A C26A 1_555 1_555
C27A C26A 1_555 1_555
H16A C27A 1_555 1_555
C28A C27A 1_555 1_555
C29A C28A 1_555 1_555
H17A C29A 1_555 1_555
C30A C25A 1_555 1_555
H18A C30A 1_555 1_555
O1A Nd1 1_555 1_555
O2A Nd1 1_555 1_555
O3A K1 1_555 1_555
O4A Nd1 1_555 1_555
I1A C3A 1_555 1_555
I2A C13A 1_555 1_555
I3A C18A 1_555 1_555
I4A C28A 1_555 1_555
C31D H19D 1_555 1_555
C32D H20D 1_555 1_555
H21D C32D 1_555 1_555
H22D C32D 1_555 1_555
C33D H23D 1_555 1_555
H24D C33D 1_555 1_555
H25D C33D 1_555 1_555
N1D C31D 1_555 1_555
O5D K1 1_555 1_555
O1D K1 1_555 1_555
O3E K1 1_555 1_555
K1A O3 1_555 1_555
C5 C6 1_555 1_555
C14 C15 1_555 1_555
C20 C21 1_555 1_555
C29 C30 1_555 1_555
C32 N1 1_555 1_555
C33 N1 1_555 1_555
O2 Nd1 1_555 1_555
O3 Nd1 1_555 1_555
O4 Nd1 1_555 1_555
O5 K1 1_555 1_555
Nd1 O3A 1_555 1_555
C5A C6A 1_555 1_555
C7A O1A 1_555 1_555
C9A O2A 1_555 1_555
C14A C15A 1_555 1_555
C20A C21A 1_555 1_555
C22A O3A 1_555 1_555
C24A O4A 1_555 1_555
C29A C30A 1_555 1_555
O1A K1A 1_555 1_555
C31D O5D 1_555 1_555
C32D N1D 1_555 1_555
C33D N1D 1_555 1_555

#END
