
#######################################################################
#
#                 Cambridge Crystallographic Data Centre
#                                CCDC 
#
#######################################################################
#
# If this CIF has been generated from an entry in the Cambridge 
# Structural Database, then it will include bibliographic, chemical, 
# crystal, experimental, refinement or atomic coordinate data resulting 
# from the CCDC's data processing and validation procedures.
#
#######################################################################

data_BIYPAA
_symmetry_cell_setting           triclinic
_symmetry_space_group_name_H-M   'P -1'
_symmetry_Int_Tables_number      2
_space_group_name_Hall           '-P 1'
loop_
_symmetry_equiv_pos_site_id
_symmetry_equiv_pos_as_xyz
1 x,y,z
2 -x,-y,-z
_cell_length_a                   9.31(1)
_cell_length_b                   8.06(1)
_cell_length_c                   4.783(5)
_cell_angle_alpha                83.8(1)
_cell_angle_beta                 100.1(1)
_cell_angle_gamma                115.2(1)
_cell_volume                     319.495
loop_
_atom_site_label
_atom_site_type_symbol
_atom_site_fract_x
_atom_site_fract_y
_atom_site_fract_z
Hg1 Hg 0.50000 0.50000 0.50000
C1 C 0.24100 0.34300 0.05500
C2 C 0.07300 0.28400 -0.09100
O1 O 0.26600 0.42000 0.29100
O2 O 0.33900 0.31900 -0.05200
F1 F -0.03800 0.22300 0.08400
F2 F 0.03300 0.15000 -0.27100
F3 F 0.05200 0.41800 -0.24700
C3 C 0.35500 0.01400 0.50200
C4 C 0.62400 0.15200 0.40100
O3 O 0.50800 0.17400 0.54600
O1A O 0.73400 0.58000 0.70900
O2A O 0.66100 0.68100 0.05200
O3A O 0.49200 0.82600 0.45400
O2_2 O 0.33900 0.31900 0.94800
C4A C 0.37600 -0.15200 0.59900
C3A C 0.64500 -0.01400 0.49800
C1A C 0.75900 0.65700 0.94500
O3A_2 O 0.49200 -0.17400 0.45400
C2A C 0.92700 0.71600 1.09100
O2A_2 O 0.66100 0.68100 1.05200
F1A F 1.03800 0.77700 0.91600
F2A F 0.96700 0.85000 1.27100
F3A F 0.94800 0.58200 1.24700
Hg1_2 Hg 0.50000 0.50000 -0.50000
Hg1_3 Hg 0.50000 -0.50000 0.50000
Hg1_4 Hg 0.50000 0.50000 1.50000
loop_
_geom_bond_atom_site_label_1
_geom_bond_atom_site_label_2
_geom_bond_site_symmetry_1
_geom_bond_site_symmetry_2
Hg1 O1 1_555 1_555
C1 C2 1_555 1_555
C2 F1 1_555 1_555
O1 C1 1_555 1_555
O2 C1 1_555 1_555
F2 C2 1_555 1_555
F3 C2 1_555 1_555
C3 O3 1_555 1_555
C4 O3 1_555 1_555
O3 Hg1 1_555 1_555
O1A Hg1 1_555 1_555
O2A Hg1 1_555 1_555
O3A Hg1 1_555 1_555
O2_2 Hg1 1_555 1_555
C4A C3 1_555 1_555
C3A C4 1_555 1_555
C1A O1A 1_555 1_555
O3A_2 C4A 1_555 1_555
C2A C1A 1_555 1_555
O2A_2 C1A 1_555 1_555
F1A C2A 1_555 1_555
F2A C2A 1_555 1_555
F3A C2A 1_555 1_555
Hg1_2 O2 1_555 1_555
Hg1_3 O3A_2 1_555 1_555
Hg1_4 O2A_2 1_555 1_555
C3A O3A_2 1_555 1_555

#END
