
#######################################################################
#
#                 Cambridge Crystallographic Data Centre
#                                CCDC 
#
#######################################################################
#
# If this CIF has been generated from an entry in the Cambridge 
# Structural Database, then it will include bibliographic, chemical, 
# crystal, experimental, refinement or atomic coordinate data resulting 
# from the CCDC's data processing and validation procedures.
#
#######################################################################

data_BIYSAE
_symmetry_cell_setting           triclinic
_symmetry_space_group_name_H-M   'P -1'
_symmetry_Int_Tables_number      2
_space_group_name_Hall           '-P 1'
loop_
_symmetry_equiv_pos_site_id
_symmetry_equiv_pos_as_xyz
1 x,y,z
2 -x,-y,-z
_cell_length_a                   7.5728(4)
_cell_length_b                   7.8142(4)
_cell_length_c                   18.5052(9)
_cell_angle_alpha                89.9980(10)
_cell_angle_beta                 90.0020(10)
_cell_angle_gamma                90.0020(10)
_cell_volume                     1095.05
loop_
_atom_site_label
_atom_site_type_symbol
_atom_site_fract_x
_atom_site_fract_y
_atom_site_fract_z
Sn1 Sn 0.25000(7) 0.97979(6) 0.77655(3)
Sn2 Sn 0.24998(7) 0.47992(6) 0.72355(3)
O1 O 0.2503(10) 1.0587(6) 0.6711(3)
O2 O 0.2491(11) 0.7519(6) 0.7111(3)
O3 O 0.2500(9) 1.5577(6) 0.8291(3)
O4 O 0.2494(10) 1.2507(6) 0.7877(3)
N1 N 0.2508(11) 0.7765(8) 0.6362(4)
N2 N 0.2512(11) 1.2762(9) 0.8637(4)
F1 F 0.2482(17) 0.7172(8) 0.4944(4)
F2 F 0.2504(10) 1.1692(9) 0.3365(3)
F3 F 0.2480(12) 1.2141(8) 1.0049(3)
F4 F 0.2517(12) 1.6692(10) 1.1627(3)
C1 C 0.2475(16) 0.8836(11) 0.4840(5)
C2 C 0.2490(14) 0.9379(13) 0.4136(4)
H1 H 0.2492 0.8624 0.3747
C3 C 0.2501(13) 1.1098(14) 0.4051(5)
C4 C 0.2498(16) 1.2228(14) 0.4577(5)
H2 H 0.2510 1.3393 0.4474
C5 C 0.2477(16) 1.1637(11) 0.5311(5)
H3 H 0.2450 1.2420 0.5689
C6 C 0.2498(13) 0.9894(11) 0.5455(4)
C7 C 0.2497(12) 0.9339(10) 0.6217(4)
C8 C 0.5030(14) 0.9414(14) 0.8209(6)
H4 H 0.5467 0.8312 0.8065
H5 H 0.4961 0.9465 0.8727
H6 H 0.5815 1.0288 0.8038
C9 C -0.0020(14) 0.9417(14) 0.8209(6)
H7 H -0.0779 1.0346 0.8071
H8 H 0.0066 0.9371 0.8726
H9 H -0.0500 0.8360 0.8032
C10 C 0.5030(14) 0.4415(14) 0.6797(7)
H10 H 0.5887 0.5014 0.7084
H11 H 0.5059 0.4842 0.6311
H12 H 0.5299 0.3215 0.6796
C11 C -0.0025(14) 0.4413(14) 0.6795(7)
H13 H -0.0894 0.4930 0.7103
H14 H -0.0253 0.3207 0.6757
H15 H -0.0081 0.4924 0.6324
C12 C 0.2500(11) 1.4369(9) 0.8788(4)
C13 C 0.2492(11) 1.4904(11) 0.9570(5)
C14 C 0.2490(13) 1.3825(12) 1.0117(5)
C15 C 0.2492(16) 1.4412(13) 1.0831(6)
H16 H 0.2486 1.3645 1.1216
C16 C 0.2504(17) 1.6093(14) 1.0949(7)
C17 C 0.2492(17) 1.7250(15) 1.0407(6)
H17 H 0.2489 1.8421 1.0498
C18 C 0.2485(14) 1.6623(12) 0.9725(5)
H18 H 0.2475 1.7395 0.9343
Sn2_2 Sn 0.24998(7) 1.47992(6) 0.72355(3)
O3_2 O 0.2500(9) 0.5577(6) 0.8291(3)
O4_2 O 0.2494(10) 0.2507(6) 0.7877(3)
loop_
_geom_bond_atom_site_label_1
_geom_bond_atom_site_label_2
_geom_bond_site_symmetry_1
_geom_bond_site_symmetry_2
Sn1 O1 1_555 1_555
Sn2 O2 1_555 1_555
O1 C7 1_555 1_555
O2 Sn1 1_555 1_555
O3 C12 1_555 1_555
O4 Sn1 1_555 1_555
N1 O2 1_555 1_555
N2 O4 1_555 1_555
F1 C1 1_555 1_555
F2 C3 1_555 1_555
F3 C14 1_555 1_555
F4 C16 1_555 1_555
C1 C2 1_555 1_555
C2 H1 1_555 1_555
C3 C2 1_555 1_555
C4 C3 1_555 1_555
H2 C4 1_555 1_555
C5 C4 1_555 1_555
H3 C5 1_555 1_555
C6 C1 1_555 1_555
C7 N1 1_555 1_555
C8 Sn1 1_555 1_555
H4 C8 1_555 1_555
H5 C8 1_555 1_555
H6 C8 1_555 1_555
C9 Sn1 1_555 1_555
H7 C9 1_555 1_555
H8 C9 1_555 1_555
H9 C9 1_555 1_555
C10 Sn2 1_555 1_555
H10 C10 1_555 1_555
H11 C10 1_555 1_555
H12 C10 1_555 1_555
C11 Sn2 1_555 1_555
H13 C11 1_555 1_555
H14 C11 1_555 1_555
H15 C11 1_555 1_555
C12 N2 1_555 1_555
C13 C12 1_555 1_555
C14 C13 1_555 1_555
C15 C14 1_555 1_555
H16 C15 1_555 1_555
C16 C15 1_555 1_555
C17 C16 1_555 1_555
H17 C17 1_555 1_555
C18 C13 1_555 1_555
H18 C18 1_555 1_555
Sn2_2 O3 1_555 1_555
O3_2 Sn2 1_555 1_555
O4_2 Sn2 1_555 1_555
O4 Sn2_2 1_555 1_555
C5 C6 1_555 1_555
C6 C7 1_555 1_555
C17 C18 1_555 1_555

#END
