
#######################################################################
#
#                 Cambridge Crystallographic Data Centre
#                                CCDC 
#
#######################################################################
#
# If this CIF has been generated from an entry in the Cambridge 
# Structural Database, then it will include bibliographic, chemical, 
# crystal, experimental, refinement or atomic coordinate data resulting 
# from the CCDC's data processing and validation procedures.
#
#######################################################################

data_BIYTEJ
_symmetry_cell_setting           hexagonal
_symmetry_space_group_name_H-M   'P 61'
_symmetry_Int_Tables_number      169
_space_group_name_Hall           'P 61'
loop_
_symmetry_equiv_pos_site_id
_symmetry_equiv_pos_as_xyz
1 x,y,z
2 -y,x-y,1/3+z
3 -x+y,-x,2/3+z
4 -x,-y,1/2+z
5 y,-x+y,5/6+z
6 x-y,x,1/6+z
_cell_length_a                   14.163(2)
_cell_length_b                   14.163(2)
_cell_length_c                   11.568(2)
_cell_angle_alpha                90
_cell_angle_beta                 90
_cell_angle_gamma                120
_cell_volume                     2009.55
loop_
_atom_site_label
_atom_site_type_symbol
_atom_site_fract_x
_atom_site_fract_y
_atom_site_fract_z
Zn1 Zn 0.68099(4) 0.53273(4) 0.02883(4)
N1 N 0.7395(3) 0.4943(3) -0.1211(3)
N2 N 0.6788(3) 0.4731(4) -0.2189(4)
N3 N 0.7065(3) 0.4225(4) -0.2926(3)
N4 N 0.7844(3) 0.4075(3) -0.2449(3)
N5 N 0.9205(3) 0.3834(3) -0.1144(4)
N6 N 1.0192(3) 0.4997(4) 0.0841(4)
N7 N 0.8341(3) 0.6028(3) 0.0980(3)
N8 N 0.8644(4) 0.6911(4) 0.1686(4)
N9 N 0.9648(4) 0.7301(4) 0.2002(5)
N10 N 1.0036(3) 0.6686(3) 0.1545(3)
C1 C 0.8033(3) 0.4525(3) -0.1396(4)
C2 C 0.8874(3) 0.4491(4) -0.0684(4)
C3 C 0.9389(3) 0.5087(4) 0.0322(4)
C4 C 0.9221(3) 0.5917(4) 0.0913(4)
C5 C 0.9996(5) 0.3742(5) -0.0621(6)
H1 H 1.0232 0.3290 -0.0932
C6 C 1.0470(5) 0.4325(5) 0.0395(6)
H2 H 1.1001 0.4230 0.0763
Zn1B Zn 0.85174(6) 0.31901(4) -0.30450(4)
Zn1E Zn 1.14826(6) 0.68099(4) 0.19550(4)
N4A N 0.5925(3) 0.3769(4) 0.0884(3)
N5A N 0.6166(3) 0.5371(4) 0.2189(4)
N10D N 0.6686(3) 0.6650(4) -0.0122(3)
loop_
_geom_bond_atom_site_label_1
_geom_bond_atom_site_label_2
_geom_bond_site_symmetry_1
_geom_bond_site_symmetry_2
Zn1 N1 1_555 1_555
N1 N2 1_555 1_555
N2 N3 1_555 1_555
N3 N4 1_555 1_555
N4 C1 1_555 1_555
N5 C2 1_555 1_555
N6 C3 1_555 1_555
N7 Zn1 1_555 1_555
N8 N7 1_555 1_555
N9 N8 1_555 1_555
N10 N9 1_555 1_555
C1 N1 1_555 1_555
C2 C1 1_555 1_555
C3 C2 1_555 1_555
C4 N7 1_555 1_555
C5 N5 1_555 1_555
H1 C5 1_555 1_555
C6 N6 1_555 1_555
H2 C6 1_555 1_555
Zn1B N4 1_555 1_555
Zn1E N10 1_555 1_555
N4A Zn1 1_555 1_555
N5A Zn1 1_555 1_555
N10D Zn1 1_555 1_555
N5 Zn1B 1_555 1_555
N10 C4 1_555 1_555
C3 C4 1_555 1_555
C5 C6 1_555 1_555

#END
