
#######################################################################
#
#                 Cambridge Crystallographic Data Centre
#                                CCDC 
#
#######################################################################
#
# If this CIF has been generated from an entry in the Cambridge 
# Structural Database, then it will include bibliographic, chemical, 
# crystal, experimental, refinement or atomic coordinate data resulting 
# from the CCDC's data processing and validation procedures.
#
#######################################################################

data_BIYVAI
_symmetry_cell_setting           monoclinic
_symmetry_space_group_name_H-M   'P 21'
_symmetry_Int_Tables_number      4
_space_group_name_Hall           'P 2yb'
loop_
_symmetry_equiv_pos_site_id
_symmetry_equiv_pos_as_xyz
1 x,y,z
2 -x,1/2+y,-z
_cell_length_a                   9.2879(3)
_cell_length_b                   11.9733(3)
_cell_length_c                   16.3513(5)
_cell_angle_alpha                90
_cell_angle_beta                 101.7090(16)
_cell_angle_gamma                90
_cell_volume                     1780.54
loop_
_atom_site_label
_atom_site_type_symbol
_atom_site_fract_x
_atom_site_fract_y
_atom_site_fract_z
Cd1 Cd -0.06727(3) 0.49945(2) 0.647858(18)
Cd2 Cd 0.36495(3) 0.50636(4) 0.121466(19)
O1 O 0.3224(4) 0.3700(3) 0.2108(2)
O2 O 0.2134(5) 0.5242(3) 0.2376(3)
O3 O 0.4869(4) 0.3677(3) 0.0658(2)
O4 O 0.5380(5) 0.5310(2) 0.0159(3)
O5 O 0.8362(4) 0.5315(3) -0.2113(3)
O6 O 0.9014(4) 0.3689(3) -0.2558(2)
O7 O 0.0273(5) 0.5204(3) 0.5120(2)
O8 O -0.0115(4) 0.3570(3) 0.5642(2)
N1 N 0.1087(4) 0.1891(3) 0.3675(3)
N2 N 0.6849(4) 0.1949(3) -0.0992(2)
C1 C 0.1679(5) 0.2488(4) 0.3129(3)
H1 H 0.1997 0.2102 0.2689
C2 C 0.1848(5) 0.3636(4) 0.3175(3)
C3 C 0.1425(5) 0.4197(4) 0.3827(3)
H2 H 0.1550 0.4983 0.3880
C4 C 0.0814(5) 0.3600(4) 0.4405(3)
C5 C 0.0660(5) 0.2454(4) 0.4304(3)
H3 H 0.0236 0.2045 0.4693
C6 C 0.2436(6) 0.4256(4) 0.2501(3)
C7 C 0.0295(6) 0.4178(4) 0.5109(3)
C8 C 0.7564(5) 0.2520(4) -0.1496(3)
H4 H 0.7993 0.2119 -0.1887
C9 C 0.7698(5) 0.3676(4) -0.1464(3)
C10 C 0.7056(5) 0.4268(4) -0.0898(3)
H5 H 0.7136 0.5059 -0.0863
C11 C 0.6293(5) 0.3678(3) -0.0384(3)
C12 C 0.6230(5) 0.2525(4) -0.0449(3)
H6 H 0.5726 0.2123 -0.0092
C13 C 0.5474(6) 0.4273(4) 0.0194(4)
C14 C 0.8426(6) 0.4291(4) -0.2081(3)
O9 O 0.1768(4) 0.5160(4) 0.7026(2)
C15 C 0.2558(6) 0.5781(4) 0.7543(3)
C16 C 0.1901(6) 0.6462(5) 0.8158(4)
H7 H 0.0887 0.6220 0.8139
H8 H 0.1909 0.7254 0.8011
H9 H 0.2483 0.6351 0.8723
N3 N 0.3988(4) 0.5863(3) 0.7566(3)
C17 C 0.4645(5) 0.5212(4) 0.6980(3)
H10 H 0.5026 0.4507 0.7242
H11 H 0.5452 0.5637 0.6826
H12 H 0.3898 0.5055 0.6477
C18 C 0.4955(6) 0.6569(4) 0.8168(4)
H13 H 0.4595 0.7341 0.8115
H14 H 0.5954 0.6543 0.8059
H15 H 0.4966 0.6299 0.8735
O10 O -0.3119(4) 0.4625(3) 0.5801(2)
C19 C -0.3391(7) 0.3735(7) 0.5362(5)
C20 C -0.3229(8) 0.2569(5) 0.5807(5)
H16 H -0.4195 0.2209 0.5731
H17 H -0.2830 0.2672 0.6405
H18 H -0.2561 0.2098 0.5565
N4 N -0.3878(7) 0.3755(6) 0.4609(4)
C21 C -0.3965(10) 0.4881(8) 0.4215(4)
H19 H -0.4149 0.5443 0.4618
H20 H -0.4768 0.4893 0.3723
H21 H -0.3035 0.5048 0.4046
C22 C -0.4130(10) 0.2724(8) 0.4088(6)
H22 H -0.3181 0.2384 0.4059
H23 H -0.4656 0.2916 0.3523
H24 H -0.4717 0.2193 0.4339
O11 O 0.5558(4) 0.5744(3) 0.2197(3)
C23 C 0.6907(7) 0.5706(4) 0.2388(4)
C24 C 0.7745(7) 0.4682(4) 0.2177(4)
H25 H 0.7049 0.4139 0.1870
H26 H 0.8283 0.4340 0.2695
H27 H 0.8442 0.4909 0.1832
N5 N 0.7702(5) 0.6518(4) 0.2791(3)
C25 C 0.9286(6) 0.6489(4) 0.3093(4)
H28 H 0.9506 0.6227 0.3673
H29 H 0.9691 0.7240 0.3064
H30 H 0.9729 0.5979 0.2745
C26 C 0.6930(7) 0.7488(4) 0.3056(4)
H31 H 0.5979 0.7584 0.2674
H32 H 0.7526 0.8162 0.3047
H33 H 0.6773 0.7364 0.3624
O12 O 0.1642(4) 0.4551(3) 0.0178(2)
C27 C 0.1504(10) 0.3636(6) -0.0136(7)
N6 N 0.1171(8) 0.2810(5) -0.0227(6)
C28 C 0.1078(6) 0.1723(4) -0.0582(4)
H34 H 0.0699 0.1775 -0.1186
H35 H 0.0413 0.1263 -0.0328
H36 H 0.2057 0.1382 -0.0477
C29 C 0.0360(7) 0.2828(7) 0.0677(4)
H37 H 0.0458 0.3576 0.0925
H38 H 0.0862 0.2285 0.1086
H39 H -0.0684 0.2632 0.0516
C30 C 0.2328(7) 0.3580(7) -0.1067(4)
H40 H 0.2991 0.2937 -0.1026
H41 H 0.2883 0.4268 -0.1104
H42 H 0.1548 0.3506 -0.1567
Cd1_2 Cd 0.93273(3) 0.49945(2) -0.352142(18)
Cd1A Cd 0.06727(3) -0.00055(2) 0.352142(18)
Cd2A Cd 0.63505(3) 0.00636(4) -0.121466(19)
O5_2 O -0.1638(4) 0.5315(3) 0.7887(3)
O6_2 O -0.0986(4) 0.3689(3) 0.7442(2)
N1A N -0.1087(4) 0.6891(3) 0.6325(3)
N2A N 0.3151(4) 0.6949(3) 0.0992(2)
loop_
_geom_bond_atom_site_label_1
_geom_bond_atom_site_label_2
_geom_bond_site_symmetry_1
_geom_bond_site_symmetry_2
Cd1 O7 1_555 1_555
Cd2 O1 1_555 1_555
O1 C6 1_555 1_555
O2 Cd2 1_555 1_555
O3 Cd2 1_555 1_555
O4 Cd2 1_555 1_555
O5 C14 1_555 1_555
O6 C14 1_555 1_555
O7 C7 1_555 1_555
O8 Cd1 1_555 1_555
N1 C1 1_555 1_555
N2 C8 1_555 1_555
C1 H1 1_555 1_555
C2 C1 1_555 1_555
C3 C2 1_555 1_555
H2 C3 1_555 1_555
C4 C3 1_555 1_555
C5 N1 1_555 1_555
H3 C5 1_555 1_555
C6 O2 1_555 1_555
C7 O8 1_555 1_555
C8 H4 1_555 1_555
C9 C8 1_555 1_555
C10 C9 1_555 1_555
H5 C10 1_555 1_555
C11 C10 1_555 1_555
C12 N2 1_555 1_555
H6 C12 1_555 1_555
C13 O3 1_555 1_555
C14 C9 1_555 1_555
O9 Cd1 1_555 1_555
C15 O9 1_555 1_555
C16 C15 1_555 1_555
H7 C16 1_555 1_555
H8 C16 1_555 1_555
H9 C16 1_555 1_555
N3 C15 1_555 1_555
C17 N3 1_555 1_555
H10 C17 1_555 1_555
H11 C17 1_555 1_555
H12 C17 1_555 1_555
C18 N3 1_555 1_555
H13 C18 1_555 1_555
H14 C18 1_555 1_555
H15 C18 1_555 1_555
O10 Cd1 1_555 1_555
C19 O10 1_555 1_555
C20 C19 1_555 1_555
H16 C20 1_555 1_555
H17 C20 1_555 1_555
H18 C20 1_555 1_555
N4 C19 1_555 1_555
C21 N4 1_555 1_555
H19 C21 1_555 1_555
H20 C21 1_555 1_555
H21 C21 1_555 1_555
C22 N4 1_555 1_555
H22 C22 1_555 1_555
H23 C22 1_555 1_555
H24 C22 1_555 1_555
O11 Cd2 1_555 1_555
C23 O11 1_555 1_555
C24 C23 1_555 1_555
H25 C24 1_555 1_555
H26 C24 1_555 1_555
H27 C24 1_555 1_555
N5 C23 1_555 1_555
C25 N5 1_555 1_555
H28 C25 1_555 1_555
H29 C25 1_555 1_555
H30 C25 1_555 1_555
C26 N5 1_555 1_555
H31 C26 1_555 1_555
H32 C26 1_555 1_555
H33 C26 1_555 1_555
O12 Cd2 1_555 1_555
C27 O12 1_555 1_555
N6 C27 1_555 1_555
C28 N6 1_555 1_555
H34 C28 1_555 1_555
H35 C28 1_555 1_555
H36 C28 1_555 1_555
C29 N6 1_555 1_555
H37 C29 1_555 1_555
H38 C29 1_555 1_555
H39 C29 1_555 1_555
C30 C27 1_555 1_555
H40 C30 1_555 1_555
H41 C30 1_555 1_555
H42 C30 1_555 1_555
Cd1_2 O5 1_555 1_555
Cd1A N1 1_555 1_555
Cd2A N2 1_555 1_555
O5_2 Cd1 1_555 1_555
O6_2 Cd1 1_555 1_555
N1A Cd1 1_555 1_555
N2A Cd2 1_555 1_555
O4 C13 1_555 1_555
O6 Cd1_2 1_555 1_555
C2 C6 1_555 1_555
C4 C5 1_555 1_555
C4 C7 1_555 1_555
C11 C12 1_555 1_555
C11 C13 1_555 1_555

#END
