
#######################################################################
#
#                 Cambridge Crystallographic Data Centre
#                                CCDC 
#
#######################################################################
#
# If this CIF has been generated from an entry in the Cambridge 
# Structural Database, then it will include bibliographic, chemical, 
# crystal, experimental, refinement or atomic coordinate data resulting 
# from the CCDC's data processing and validation procedures.
#
#######################################################################

data_BIYXEN
_symmetry_cell_setting           monoclinic
_symmetry_space_group_name_H-M   'P 21'
_symmetry_Int_Tables_number      4
_space_group_name_Hall           'P 2yb'
loop_
_symmetry_equiv_pos_site_id
_symmetry_equiv_pos_as_xyz
1 x,y,z
2 -x,1/2+y,-z
_cell_length_a                   8.6881(11)
_cell_length_b                   10.3529(8)
_cell_length_c                   9.8686(11)
_cell_angle_alpha                90
_cell_angle_beta                 108.2022(14)
_cell_angle_gamma                90
_cell_volume                     843.233
loop_
_atom_site_label
_atom_site_type_symbol
_atom_site_fract_x
_atom_site_fract_y
_atom_site_fract_z
Mo1 Mo -0.056910(19) 0.591229(16) 0.808774(16)
Mo2 Mo 0.113206(19) 0.533750(19) 0.613333(16)
Zn1 Zn -0.46728(3) 0.59442(3) 0.84366(3)
S1 S -0.07812(7) 0.40574(6) 0.67221(6)
S2 S 0.16158(6) 0.70395(5) 0.77534(6)
S3 S -0.22984(6) 0.46976(5) 0.93439(5)
S4 S 0.39318(6) 0.59322(6) 0.60271(5)
O1 O -0.2167(2) 0.68209(17) 0.71583(17)
O2 O 0.00101(19) 0.60344(18) 0.45909(16)
O3 O 0.2203(2) 0.45050(18) 1.21945(17)
O4 O 0.13324(19) 0.49461(16) 0.98677(16)
O5 O 0.4690(2) 0.2383(2) 0.7999(2)
O6 O 0.2865(2) 0.39663(18) 0.77426(17)
O7 O -0.3954(2) 0.77830(18) 0.9006(2)
O8 O -0.54704(19) 0.55572(18) 1.00931(17)
N1 N -0.0163(2) 0.70357(19) 1.01408(19)
N2 N 0.1744(2) 0.3658(2) 0.4962(2)
C1 C 0.0084(2) 0.6095(2) 1.1320(2)
C2 C 0.1322(2) 0.5110(2) 1.1161(2)
C3 C -0.1525(2) 0.5421(2) 1.1147(2)
C4 C 0.3455(2) 0.3284(2) 0.5675(2)
C5 C 0.3694(2) 0.3165(2) 0.7269(2)
C6 C 0.4534(2) 0.4378(2) 0.5447(2)
H1 H 0.0683 0.7596 1.0256
H2 H -0.1027 0.7551 1.0124
H3 H 0.1090 0.2957 0.4919
H4 H 0.1624 0.3890 0.4039
H5 H -0.2299 0.6042 1.1334
H6 H -0.1366 0.4727 1.1869
H7 H 0.0460 0.6482 1.2291
H8 H 0.4318 0.4416 0.4403
H9 H 0.5706 0.4243 0.5928
H10 H 0.3821 0.2458 0.5359
H11 H -0.3638 0.8290 0.8487
H12 H -0.4303 0.8035 0.9659
H13 H -0.5293 0.6197 1.0646
H14 H -0.6424 0.5281 0.9816
Zn1_2 Zn 0.53272(3) 0.59442(3) 0.84366(3)
S4_2 S -0.60682(6) 0.59322(6) 0.60271(5)
loop_
_geom_bond_atom_site_label_1
_geom_bond_atom_site_label_2
_geom_bond_site_symmetry_1
_geom_bond_site_symmetry_2
Mo1 Mo2 1_555 1_555
Mo2 S1 1_555 1_555
Zn1 S3 1_555 1_555
S1 Mo1 1_555 1_555
S2 Mo1 1_555 1_555
S3 Mo1 1_555 1_555
S4 Mo2 1_555 1_555
O1 Mo1 1_555 1_555
O2 Mo2 1_555 1_555
O3 C2 1_555 1_555
O4 Mo1 1_555 1_555
O5 C5 1_555 1_555
O6 Mo2 1_555 1_555
O7 Zn1 1_555 1_555
O8 Zn1 1_555 1_555
N1 Mo1 1_555 1_555
N2 Mo2 1_555 1_555
C1 N1 1_555 1_555
C2 O4 1_555 1_555
C3 S3 1_555 1_555
C4 N2 1_555 1_555
C5 O6 1_555 1_555
C6 S4 1_555 1_555
H1 N1 1_555 1_555
H2 N1 1_555 1_555
H3 N2 1_555 1_555
H4 N2 1_555 1_555
H5 C3 1_555 1_555
H6 C3 1_555 1_555
H7 C1 1_555 1_555
H8 C6 1_555 1_555
H9 C6 1_555 1_555
H10 C4 1_555 1_555
H11 O7 1_555 1_555
H12 O7 1_555 1_555
H13 O8 1_555 1_555
H14 O8 1_555 1_555
Zn1_2 S4 1_555 1_555
S4_2 Zn1 1_555 1_555
Mo2 S2 1_555 1_555
C1 C2 1_555 1_555
C1 C3 1_555 1_555
C4 C5 1_555 1_555
C4 C6 1_555 1_555

#END
