
#######################################################################
#
#                 Cambridge Crystallographic Data Centre
#                                CCDC 
#
#######################################################################
#
# If this CIF has been generated from an entry in the Cambridge 
# Structural Database, then it will include bibliographic, chemical, 
# crystal, experimental, refinement or atomic coordinate data resulting 
# from the CCDC's data processing and validation procedures.
#
#######################################################################

data_BIYYUE01
_symmetry_cell_setting           monoclinic
_symmetry_space_group_name_H-M   'P 21/n'
_symmetry_Int_Tables_number      14
_space_group_name_Hall           '-P 2yn'
loop_
_symmetry_equiv_pos_site_id
_symmetry_equiv_pos_as_xyz
1 x,y,z
2 1/2-x,1/2+y,1/2-z
3 -x,-y,-z
4 1/2+x,1/2-y,1/2+z
_cell_length_a                   7.595(4)
_cell_length_b                   11.207(5)
_cell_length_c                   9.837(5)
_cell_angle_alpha                90
_cell_angle_beta                 103.131(6)
_cell_angle_gamma                90
_cell_volume                     815.405
loop_
_atom_site_label
_atom_site_type_symbol
_atom_site_fract_x
_atom_site_fract_y
_atom_site_fract_z
Mn1 Mn 0.22410(5) 0.67155(3) 0.51193(4)
C1 C 0.4355(3) 0.83926(18) 0.7249(2)
C2 C 0.3412(3) 0.92485(18) 0.6110(2)
C3 C 0.1579(3) 0.9494(2) 0.3951(3)
H1 H 0.0883 0.9177 0.3129
C4 C 0.1756(3) 1.0714(2) 0.4086(3)
H2 H 0.1190 1.1226 0.3376
C5 C 0.2806(3) 1.1141(2) 0.5313(3)
H3 H 0.2927 1.1961 0.5442
C6 C 0.5493(3) 0.54745(18) 0.4645(2)
N1 N 0.2383(2) 0.87494(17) 0.49740(18)
N2 N 0.3663(3) 1.04121(16) 0.6334(2)
O1 O 0.5561(2) 0.88170(15) 0.81923(17)
O2 O 0.3846(2) 0.73328(14) 0.71195(18)
O3 O 0.4740(2) 0.64652(13) 0.43859(19)
O4 O 0.6967(2) 0.51688(14) 0.43823(18)
O5 O -0.0082(2) 0.64828(15) 0.6034(2)
H4 H -0.081(3) 0.611(2) 0.546(2)
H5 H 0.020(4) 0.626(3) 0.6829(19)
Mn1C Mn -0.27590(5) 0.82845(3) 0.01193(4)
Mn1C_2 Mn 0.72410(5) 0.82845(3) 1.01193(4)
Mn1B Mn 0.77590(5) 0.32845(3) 0.48807(4)
C1C C -0.0645(3) 0.66074(18) 0.2249(2)
C2C C -0.1588(3) 0.57515(18) 0.1110(2)
C3C C -0.3421(3) 0.5506(2) -0.1049(3)
H1C H -0.4117 0.5823 -0.1871
C4C C -0.3244(3) 0.4286(2) -0.0914(3)
H2C H -0.3810 0.3774 -0.1624
C5C C -0.2194(3) 0.3859(2) 0.0313(3)
H3C H -0.2073 0.3039 0.0442
C6B C 0.4507(3) 0.45255(18) 0.5355(2)
N1C N -0.2617(2) 0.62506(17) -0.00260(18)
N2C N -0.1337(3) 0.45879(16) 0.1334(2)
O1C O 0.0561(2) 0.61830(15) 0.31923(17)
O1_2 O -0.4439(2) 0.88170(15) -0.18077(17)
O2C O -0.1154(2) 0.76672(14) 0.21195(18)
O3B O 0.5260(2) 0.35348(13) 0.56141(19)
O3C O -0.0260(2) 0.85348(13) -0.06141(19)
O4B O 0.3033(2) 0.48312(14) 0.56177(18)
O4A O -0.1967(2) 1.01688(14) 0.06177(18)
O5C O -0.5082(2) 0.85172(15) 0.1034(2)
H4C H -0.581(3) 0.889(2) 0.046(2)
H5C H -0.480(4) 0.874(3) 0.1829(19)
loop_
_geom_bond_atom_site_label_1
_geom_bond_atom_site_label_2
_geom_bond_site_symmetry_1
_geom_bond_site_symmetry_2
Mn1 N1 1_555 1_555
C1 C2 1_555 1_555
C2 N1 1_555 1_555
C3 H1 1_555 1_555
C4 C3 1_555 1_555
H2 C4 1_555 1_555
C5 C4 1_555 1_555
H3 C5 1_555 1_555
C6 O3 1_555 1_555
N1 C3 1_555 1_555
N2 C2 1_555 1_555
O1 C1 1_555 1_555
O2 Mn1 1_555 1_555
O3 Mn1 1_555 1_555
O4 C6 1_555 1_555
O5 Mn1 1_555 1_555
H4 O5 1_555 1_555
H5 O5 1_555 1_555
Mn1C N1C 1_555 1_555
Mn1C_2 O1 1_555 1_555
Mn1B O4 1_555 1_555
C1C C2C 1_555 1_555
C2C N1C 1_555 1_555
C3C H1C 1_555 1_555
C4C C3C 1_555 1_555
H2C C4C 1_555 1_555
C5C C4C 1_555 1_555
H3C C5C 1_555 1_555
C6B C6 1_555 1_555
N1C C3C 1_555 1_555
N2C C2C 1_555 1_555
O1C Mn1 1_555 1_555
O1_2 Mn1C 1_555 1_555
O2C Mn1C 1_555 1_555
O3B Mn1B 1_555 1_555
O3C Mn1C 1_555 1_555
O4B Mn1 1_555 1_555
O4A Mn1C 1_555 1_555
O5C Mn1C 1_555 1_555
H4C O5C 1_555 1_555
H5C O5C 1_555 1_555
C1 O2 1_555 1_555
C5 N2 1_555 1_555
C1C O1C 1_555 1_555
C1C O2C 1_555 1_555
C5C N2C 1_555 1_555
C6B O3B 1_555 1_555
C6B O4B 1_555 1_555

#END
