
#######################################################################
#
#                 Cambridge Crystallographic Data Centre
#                                CCDC 
#
#######################################################################
#
# If this CIF has been generated from an entry in the Cambridge 
# Structural Database, then it will include bibliographic, chemical, 
# crystal, experimental, refinement or atomic coordinate data resulting 
# from the CCDC's data processing and validation procedures.
#
#######################################################################

data_BIZHID
_symmetry_cell_setting           orthorhombic
_symmetry_space_group_name_H-M   'C m c 21'
_symmetry_Int_Tables_number      36
_space_group_name_Hall           'C 2n -2'
loop_
_symmetry_equiv_pos_site_id
_symmetry_equiv_pos_as_xyz
1 x,y,z
2 -x,-y,1/2+z
3 x,-y,1/2+z
4 -x,y,z
5 1/2+x,1/2+y,z
6 1/2-x,1/2-y,1/2+z
7 1/2+x,1/2-y,1/2+z
8 1/2-x,1/2+y,z
_cell_length_a                   18.0714(16)
_cell_length_b                   15.1311(14)
_cell_length_c                   6.5878(6)
_cell_angle_alpha                90
_cell_angle_beta                 90
_cell_angle_gamma                90
_cell_volume                     1801.37
loop_
_atom_site_label
_atom_site_type_symbol
_atom_site_fract_x
_atom_site_fract_y
_atom_site_fract_z
Cu1 Cu 0.5000 0.86197(4) 0.45440(10)
S1 S 0.5000 1.16933(10) 0.5395(2)
S2 S 0.5000 0.57386(12) 0.7277(3)
N1 N 0.5000 0.9909(3) 0.4339(8)
N2 N 0.5000 0.7386(3) 0.5363(8)
N3 N 0.38795(14) 0.86615(18) 0.4764(7)
N4 N 0.15952(17) 0.8911(3) 0.5442(7)
H1 H 0.138(3) 0.909(3) 0.446(12)
C1 C 0.5000 1.0653(3) 0.4772(8)
C2 C 0.5000 0.6708(4) 0.6147(8)
C3 C 0.3455(2) 0.9096(3) 0.3399(6)
H2 H 0.3688 0.9358 0.2293
C4 C 0.2707(2) 0.9170(3) 0.3551(6)
H3 H 0.2444 0.9465 0.2544
C5 C 0.2333(2) 0.8809(3) 0.5204(6)
C6 C 0.2771(2) 0.8361(3) 0.6618(6)
H4 H 0.2554 0.8106 0.7756
C7 C 0.3517(2) 0.8297(3) 0.6329(6)
H5 H 0.3791 0.7982 0.7279
C8 C 0.1179(2) 0.8584(3) 0.7154(10)
H6 H 0.0676 0.8783 0.7054
H7 H 0.1394 0.8803 0.8388
H8 H 0.1190 0.7950 0.7157
N3C N 0.61205(14) 0.86615(18) 0.4764(7)
N4C N 0.84048(17) 0.8911(3) 0.5442(7)
H1C H 0.862(3) 0.909(3) 0.446(12)
C3C C 0.6545(2) 0.9096(3) 0.3399(6)
H2C H 0.6312 0.9358 0.2293
C4C C 0.7293(2) 0.9170(3) 0.3551(6)
H3C H 0.7556 0.9465 0.2544
C5C C 0.7667(2) 0.8809(3) 0.5204(6)
C6C C 0.7229(2) 0.8361(3) 0.6618(6)
H4C H 0.7446 0.8106 0.7756
C7C C 0.6483(2) 0.8297(3) 0.6329(6)
H5C H 0.6209 0.7982 0.7279
C8C C 0.8821(2) 0.8584(3) 0.7154(10)
H6C H 0.9324 0.8783 0.7054
H7C H 0.8606 0.8803 0.8388
H8C H 0.8810 0.7950 0.7157
Cu1A Cu 0.5000 1.13803(4) 0.95440(10)
S1A S 0.5000 0.83067(10) 0.0395(2)
loop_
_geom_bond_atom_site_label_1
_geom_bond_atom_site_label_2
_geom_bond_site_symmetry_1
_geom_bond_site_symmetry_2
Cu1 N1 1_555 1_555
S1 C1 1_555 1_555
S2 C2 1_555 1_555
N1 C1 1_555 1_555
N2 Cu1 1_555 1_555
N3 Cu1 1_555 1_555
N4 H1 1_555 1_555
C2 N2 1_555 1_555
C3 N3 1_555 1_555
H2 C3 1_555 1_555
C4 C3 1_555 1_555
H3 C4 1_555 1_555
C5 N4 1_555 1_555
C6 C5 1_555 1_555
H4 C6 1_555 1_555
C7 N3 1_555 1_555
H5 C7 1_555 1_555
C8 N4 1_555 1_555
H6 C8 1_555 1_555
H7 C8 1_555 1_555
H8 C8 1_555 1_555
N3C Cu1 1_555 1_555
N4C H1C 1_555 1_555
C3C N3C 1_555 1_555
H2C C3C 1_555 1_555
C4C C3C 1_555 1_555
H3C C4C 1_555 1_555
C5C N4C 1_555 1_555
C6C C5C 1_555 1_555
H4C C6C 1_555 1_555
C7C N3C 1_555 1_555
H5C C7C 1_555 1_555
C8C N4C 1_555 1_555
H6C C8C 1_555 1_555
H7C C8C 1_555 1_555
H8C C8C 1_555 1_555
Cu1A S1 1_555 1_555
S1A Cu1 1_555 1_555
C4 C5 1_555 1_555
C6 C7 1_555 1_555
C4C C5C 1_555 1_555
C6C C7C 1_555 1_555

#END
