
#######################################################################
#
#                 Cambridge Crystallographic Data Centre
#                                CCDC 
#
#######################################################################
#
# If this CIF has been generated from an entry in the Cambridge 
# Structural Database, then it will include bibliographic, chemical, 
# crystal, experimental, refinement or atomic coordinate data resulting 
# from the CCDC's data processing and validation procedures.
#
#######################################################################

data_BIZHID01
_symmetry_cell_setting           orthorhombic
_symmetry_space_group_name_H-M   'C m c 21'
_symmetry_Int_Tables_number      36
_space_group_name_Hall           'C 2n -2'
loop_
_symmetry_equiv_pos_site_id
_symmetry_equiv_pos_as_xyz
1 x,y,z
2 -x,-y,1/2+z
3 x,-y,1/2+z
4 -x,y,z
5 1/2+x,1/2+y,z
6 1/2-x,1/2-y,1/2+z
7 1/2+x,1/2-y,1/2+z
8 1/2-x,1/2+y,z
_cell_length_a                   17.930(6)
_cell_length_b                   14.618(4)
_cell_length_c                   6.513(3)
_cell_angle_alpha                90
_cell_angle_beta                 90
_cell_angle_gamma                90
_cell_volume                     1707.06
loop_
_atom_site_label
_atom_site_type_symbol
_atom_site_fract_x
_atom_site_fract_y
_atom_site_fract_z
Cu1 Cu 0.5000 0.86476(4) 0.68020(11)
S1 S 0.5000 1.17975(8) 0.5787(2)
S2 S 0.5000 0.57095(9) 0.3739(2)
N1 N 0.5000 0.9987(3) 0.7168(7)
N2 N 0.5000 0.7383(3) 0.5821(8)
N3 N 0.38778(15) 0.86919(17) 0.6512(6)
N4 N 0.15813(16) 0.8931(2) 0.5735(6)
H1 H 0.130(2) 0.911(3) 0.671(10)
C1 C 0.5000 1.0736(3) 0.6601(10)
C2 C 0.5000 0.6687(3) 0.4955(9)
C3 C 0.34440(19) 0.9107(2) 0.7948(6)
H2 H 0.3677 0.9360 0.9128
C4 C 0.2685(2) 0.9176(2) 0.7764(7)
H3 H 0.2402 0.9457 0.8824
C5 C 0.2320(2) 0.8831(2) 0.6000(6)
C6 C 0.27787(19) 0.8393(2) 0.4539(6)
H4 H 0.2567 0.8137 0.3332
C7 C 0.3532(2) 0.8339(2) 0.4873(6)
H5 H 0.3827 0.8032 0.3877
C8 C 0.1190(2) 0.8603(2) 0.3933(8)
H6 H 0.1418 0.8866 0.2699
H7 H 0.0665 0.8787 0.4008
H8 H 0.1223 0.7935 0.3872
N3C N 0.61222(15) 0.86919(17) 0.6512(6)
N4C N 0.84187(16) 0.8931(2) 0.5735(6)
H1C H 0.870(2) 0.911(3) 0.671(10)
C3C C 0.65560(19) 0.9107(2) 0.7948(6)
H2C H 0.6323 0.9360 0.9128
C4C C 0.7315(2) 0.9176(2) 0.7764(7)
H3C H 0.7598 0.9457 0.8824
C5C C 0.7680(2) 0.8831(2) 0.6000(6)
C6C C 0.72213(19) 0.8393(2) 0.4539(6)
H4C H 0.7433 0.8137 0.3332
C7C C 0.6468(2) 0.8339(2) 0.4873(6)
H5C H 0.6173 0.8032 0.3877
C8C C 0.8810(2) 0.8603(2) 0.3933(8)
H6C H 0.8582 0.8866 0.2699
H7C H 0.9335 0.8787 0.4008
H8C H 0.8777 0.7935 0.3872
Cu1A Cu 0.5000 1.13524(4) 0.18020(11)
S1A S 0.5000 0.82025(8) 1.0787(2)
loop_
_geom_bond_atom_site_label_1
_geom_bond_atom_site_label_2
_geom_bond_site_symmetry_1
_geom_bond_site_symmetry_2
Cu1 N1 1_555 1_555
S1 C1 1_555 1_555
S2 C2 1_555 1_555
N1 C1 1_555 1_555
N2 Cu1 1_555 1_555
N3 Cu1 1_555 1_555
N4 H1 1_555 1_555
C2 N2 1_555 1_555
C3 N3 1_555 1_555
H2 C3 1_555 1_555
C4 C3 1_555 1_555
H3 C4 1_555 1_555
C5 N4 1_555 1_555
C6 C5 1_555 1_555
H4 C6 1_555 1_555
C7 N3 1_555 1_555
H5 C7 1_555 1_555
C8 N4 1_555 1_555
H6 C8 1_555 1_555
H7 C8 1_555 1_555
H8 C8 1_555 1_555
N3C Cu1 1_555 1_555
N4C H1C 1_555 1_555
C3C N3C 1_555 1_555
H2C C3C 1_555 1_555
C4C C3C 1_555 1_555
H3C C4C 1_555 1_555
C5C N4C 1_555 1_555
C6C C5C 1_555 1_555
H4C C6C 1_555 1_555
C7C N3C 1_555 1_555
H5C C7C 1_555 1_555
C8C N4C 1_555 1_555
H6C C8C 1_555 1_555
H7C C8C 1_555 1_555
H8C C8C 1_555 1_555
Cu1A S1 1_555 1_555
S1A Cu1 1_555 1_555
C4 C5 1_555 1_555
C6 C7 1_555 1_555
C4C C5C 1_555 1_555
C6C C7C 1_555 1_555

#END
