
#######################################################################
#
#                 Cambridge Crystallographic Data Centre
#                                CCDC 
#
#######################################################################
#
# If this CIF has been generated from an entry in the Cambridge 
# Structural Database, then it will include bibliographic, chemical, 
# crystal, experimental, refinement or atomic coordinate data resulting 
# from the CCDC's data processing and validation procedures.
#
#######################################################################

data_BIZJOK
_symmetry_cell_setting           monoclinic
_symmetry_space_group_name_H-M   'C 2/c'
_symmetry_Int_Tables_number      15
_space_group_name_Hall           '-C 2yn'
loop_
_symmetry_equiv_pos_site_id
_symmetry_equiv_pos_as_xyz
1 x,y,z
2 1/2+x,1/2+y,z
3 -x,y,1/2-z
4 1/2-x,1/2+y,1/2-z
5 -x,-y,-z
6 1/2-x,1/2-y,-z
7 x,-y,1/2+z
8 1/2+x,1/2-y,1/2+z
_cell_length_a                   21.789(2)
_cell_length_b                   6.3833(4)
_cell_length_c                   13.8073(13)
_cell_angle_alpha                90
_cell_angle_beta                 107.468(11)
_cell_angle_gamma                90
_cell_volume                     1831.84
loop_
_atom_site_label
_atom_site_type_symbol
_atom_site_fract_x
_atom_site_fract_y
_atom_site_fract_z
Cd1 Cd 0.500023(9) 0.16621(3) 0.893760(14)
Cl1 Cl 0.5000 0.5000 1.0000
Cl2 Cl 0.5000 -0.10287(16) 0.7500
Cl3 Cl 0.59084(3) 0.00467(13) 1.04472(5)
N1 N 0.57722(12) 0.3547(4) 0.83723(19)
N2 N 0.57513(12) 0.3622(4) 0.73589(18)
N3 N 0.64474(11) 0.5896(5) 0.81943(18)
N4 N 0.73062(17) 1.0614(6) 0.8613(3)
N5 N 0.78008(14) 0.9138(7) 0.8890(3)
N6 N 0.68965(12) 0.7476(5) 0.8409(2)
C1 C 0.61885(15) 0.4937(6) 0.8863(2)
H1 H 0.6293 0.5229 0.9561
C2 C 0.61582(14) 0.5062(5) 0.7263(2)
H2 H 0.6237 0.5451 0.6655
C3 C 0.67754(19) 0.9566(6) 0.8332(4)
H3 H 0.6363 1.0166 0.8106
C4 C 0.75511(15) 0.7283(7) 0.8765(3)
H4 H 0.7781 0.6015 0.8896
Cd1D Cd 0.499977(9) 0.83379(3) 1.106240(14)
Cd1B Cd 0.499977(9) 0.16621(3) 0.606240(14)
Cd1D_2 Cd 0.499977(9) -0.16621(3) 1.106240(14)
Cl2F Cl 0.5000 1.10287(16) 1.2500
Cl3D Cl 0.40916(3) -0.00467(13) 0.95528(5)
Cl3_2 Cl 0.59084(3) 1.00467(13) 1.04472(5)
Cl3D_2 Cl 0.40916(3) 0.99533(13) 0.95528(5)
N1B N 0.42278(12) 0.3547(4) 0.66277(19)
N1D N 0.42278(12) 0.6453(4) 1.16277(19)
N2B N 0.42487(12) 0.3622(4) 0.76411(18)
N2F N 0.57513(12) 0.6378(4) 1.23589(18)
N3B N 0.35526(11) 0.5896(5) 0.68057(18)
N4B N 0.26938(17) 1.0614(6) 0.6387(3)
N5B N 0.21992(14) 0.9138(7) 0.6110(3)
N6B N 0.31035(12) 0.7476(5) 0.6591(2)
C1B C 0.38115(15) 0.4937(6) 0.6137(2)
H1B H 0.3707 0.5229 0.5439
C2B C 0.38418(14) 0.5062(5) 0.7737(2)
H2B H 0.3763 0.5451 0.8345
C3B C 0.32246(19) 0.9566(6) 0.6668(4)
H3B H 0.3637 1.0166 0.6894
C4B C 0.24489(15) 0.7283(7) 0.6235(3)
H4B H 0.2219 0.6015 0.6104
loop_
_geom_bond_atom_site_label_1
_geom_bond_atom_site_label_2
_geom_bond_site_symmetry_1
_geom_bond_site_symmetry_2
Cd1 Cl1 1_555 1_555
Cl1 Cd1D 1_555 1_555
Cl2 Cd1 1_555 1_555
Cl3 Cd1 1_555 1_555
N1 Cd1 1_555 1_555
N2 N1 1_555 1_555
N3 N6 1_555 1_555
N4 N5 1_555 1_555
N5 C4 1_555 1_555
N6 C3 1_555 1_555
C1 N1 1_555 1_555
H1 C1 1_555 1_555
C2 N2 1_555 1_555
H2 C2 1_555 1_555
C3 N4 1_555 1_555
H3 C3 1_555 1_555
C4 N6 1_555 1_555
H4 C4 1_555 1_555
Cd1D Cl2F 1_555 1_555
Cd1B Cl2 1_555 1_555
Cd1D_2 Cl3 1_555 1_555
Cl3D Cd1 1_555 1_555
Cl3_2 Cd1D 1_555 1_555
Cl3D_2 Cd1D 1_555 1_555
N1B Cd1B 1_555 1_555
N1D Cd1D 1_555 1_555
N2B Cd1 1_555 1_555
N2F Cd1D 1_555 1_555
N3B N6B 1_555 1_555
N4B N5B 1_555 1_555
N5B C4B 1_555 1_555
N6B C3B 1_555 1_555
C1B N1B 1_555 1_555
H1B C1B 1_555 1_555
C2B N2B 1_555 1_555
H2B C2B 1_555 1_555
C3B N4B 1_555 1_555
H3B C3B 1_555 1_555
C4B N6B 1_555 1_555
H4B C4B 1_555 1_555
N2 Cd1B 1_555 1_555
N3 C1 1_555 1_555
N3 C2 1_555 1_555
Cd1D_2 Cl3D 1_555 1_555
N1B N2B 1_555 1_555
N3B C1B 1_555 1_555
N3B C2B 1_555 1_555

#END
