
#######################################################################
#
#                 Cambridge Crystallographic Data Centre
#                                CCDC 
#
#######################################################################
#
# If this CIF has been generated from an entry in the Cambridge 
# Structural Database, then it will include bibliographic, chemical, 
# crystal, experimental, refinement or atomic coordinate data resulting 
# from the CCDC's data processing and validation procedures.
#
#######################################################################

data_BIZKOL
_symmetry_cell_setting           monoclinic
_symmetry_space_group_name_H-M   'I 2/a'
_symmetry_Int_Tables_number      15
_space_group_name_Hall           '-I 2ya'
loop_
_symmetry_equiv_pos_site_id
_symmetry_equiv_pos_as_xyz
1 x,y,z
2 1/2+x,1/2+y,1/2+z
3 1/2-x,y,-z
4 -x,1/2+y,1/2-z
5 -x,-y,-z
6 1/2-x,1/2-y,1/2-z
7 1/2+x,-y,z
8 x,1/2-y,1/2+z
_cell_length_a                   21.834(6)
_cell_length_b                   12.948(4)
_cell_length_c                   23.502(10)
_cell_angle_alpha                90
_cell_angle_beta                 97.039(4)
_cell_angle_gamma                90
_cell_volume                     6594.09
loop_
_atom_site_label
_atom_site_type_symbol
_atom_site_fract_x
_atom_site_fract_y
_atom_site_fract_z
Cu1 Cu 0.290850(9) 0.282786(15) 0.617923(8)
N1 N 0.16281(7) 0.49507(10) 0.54648(6)
N2 N 0.23106(6) 0.39187(10) 0.59648(6)
N3 N 0.18214(6) 0.15744(11) 0.41895(6)
N4 N 0.15085(6) 0.04506(11) 0.48138(6)
N5 N 0.39076(7) 0.25593(15) 0.78175(7)
N6 N 0.34544(7) 0.29116(12) 0.69369(6)
C1 C 0.17362(7) 0.32091(13) 0.50766(7)
H1 H 0.1595 0.3422 0.4706
C2 C 0.17790(8) 0.22007(12) 0.51753(7)
H2 H 0.1867 0.1978 0.5553
C3 C 0.27702(8) 0.24514(16) 0.76595(8)
H3 H 0.2768 0.2243 0.8038
C4 C 0.18837(8) 0.55167(13) 0.59280(7)
C5 C 0.18933(7) 0.40004(12) 0.55032(7)
C6 C 0.23097(8) 0.48698(13) 0.62415(7)
C7 C 0.26569(9) 0.52153(16) 0.67409(8)
H4 H 0.2943 0.4791 0.6953
C8 C 0.25561(11) 0.62187(17) 0.69073(9)
H5 H 0.2784 0.6478 0.7236
C9 C 0.21214(12) 0.68520(16) 0.65945(10)
H6 H 0.2064 0.7519 0.6725
C10 C 0.17763(10) 0.65250(14) 0.61011(9)
H7 H 0.1487 0.6950 0.5893
C11 C 0.11490(9) 0.53181(15) 0.50168(8)
H8 H 0.0883 0.5803 0.5184
H9 H 0.0898 0.4737 0.4869
C12 C 0.14148(14) 0.5832(2) 0.45331(11)
H10 H 0.1689 0.6374 0.4681
H11 H 0.1087 0.6118 0.4270
H12 H 0.1639 0.5334 0.4337
C13 C 0.15102(8) -0.00746(13) 0.43050(8)
C14 C 0.16961(7) 0.14295(12) 0.47263(7)
C15 C 0.17065(8) 0.06296(13) 0.39174(7)
C16 C 0.17902(10) 0.03166(16) 0.33650(8)
H13 H 0.1925 0.0776 0.3103
C17 C 0.16656(11) -0.06967(17) 0.32229(10)
H14 H 0.1719 -0.0926 0.2857
C18 C 0.14611(10) -0.13884(16) 0.36108(10)
H15 H 0.1380 -0.2067 0.3497
C19 C 0.13755(9) -0.10983(14) 0.41581(9)
H16 H 0.1235 -0.1560 0.4416
C20 C 0.13061(9) 0.00225(14) 0.53360(8)
H17 H 0.0940 -0.0396 0.5235
H18 H 0.1197 0.0583 0.5578
C21 C 0.18003(12) -0.0629(2) 0.56642(11)
H19 H 0.1915 -0.1176 0.5423
H20 H 0.1647 -0.0917 0.5995
H21 H 0.2155 -0.0208 0.5784
C22 C 0.43703(9) 0.27983(17) 0.74982(9)
C23 C 0.33633(8) 0.26430(14) 0.74665(7)
C24 C 0.40860(9) 0.30155(16) 0.69479(8)
C25 C 0.44357(10) 0.3284(2) 0.65143(10)
H22 H 0.4251 0.3432 0.6146
C26 C 0.50635(11) 0.3323(3) 0.66515(12)
H23 H 0.5308 0.3496 0.6368
C27 C 0.53447(11) 0.3112(3) 0.72012(13)
H24 H 0.5772 0.3155 0.7277
C28 C 0.50084(10) 0.2841(2) 0.76379(11)
H25 H 0.5197 0.2694 0.8005
C29 C 0.40102(11) 0.2191(2) 0.84102(9)
H26 H 0.3635 0.2278 0.8587
H27 H 0.4331 0.2603 0.8624
C30 C 0.41966(14) 0.1076(3) 0.84414(14)
H28 H 0.3867 0.0660 0.8254
H29 H 0.4282 0.0870 0.8836
H30 H 0.4560 0.0982 0.8254
Cu1B Cu 0.209150(9) 0.282786(15) 0.382077(8)
Cu1E Cu 0.209150(9) 0.217214(15) 0.882077(8)
N1B N 0.33719(7) 0.49507(10) 0.45352(6)
N2B N 0.26894(6) 0.39187(10) 0.40352(6)
N3B N 0.31786(6) 0.15744(11) 0.58105(6)
N4B N 0.34915(6) 0.04506(11) 0.51862(6)
N5E N 0.10924(7) 0.24407(15) 0.71825(7)
N6E N 0.15456(7) 0.20884(12) 0.80631(6)
N6B N 0.15456(7) 0.29116(12) 0.30631(6)
C1B C 0.32638(7) 0.32091(13) 0.49234(7)
H1B H 0.3405 0.3422 0.5294
C2B C 0.32210(8) 0.22007(12) 0.48247(7)
H2B H 0.3133 0.1978 0.4447
C3E C 0.22298(8) 0.25486(16) 0.73405(8)
H3E H 0.2232 0.2757 0.6962
C4B C 0.31163(8) 0.55167(13) 0.40720(7)
C5B C 0.31067(7) 0.40004(12) 0.44968(7)
C6B C 0.26903(8) 0.48698(13) 0.37585(7)
C7B C 0.23431(9) 0.52153(16) 0.32591(8)
H4B H 0.2057 0.4791 0.3047
C8B C 0.24439(11) 0.62187(17) 0.30927(9)
H5B H 0.2216 0.6478 0.2764
C9B C 0.28786(12) 0.68520(16) 0.34055(10)
H6B H 0.2936 0.7519 0.3275
C10B C 0.32237(10) 0.65250(14) 0.38989(9)
H7B H 0.3513 0.6950 0.4107
C11B C 0.38510(9) 0.53181(15) 0.49832(8)
H8B H 0.4117 0.5803 0.4816
H9B H 0.4102 0.4737 0.5131
C12B C 0.35852(14) 0.5832(2) 0.54669(11)
H10B H 0.3311 0.6374 0.5319
H11B H 0.3913 0.6118 0.5730
H12B H 0.3361 0.5334 0.5663
C13B C 0.34898(8) -0.00746(13) 0.56950(8)
C14B C 0.33039(7) 0.14295(12) 0.52737(7)
C15B C 0.32935(8) 0.06296(13) 0.60826(7)
C16B C 0.32098(10) 0.03166(16) 0.66350(8)
H13B H 0.3075 0.0776 0.6897
C17B C 0.33344(11) -0.06967(17) 0.67771(10)
H14B H 0.3281 -0.0926 0.7143
C18B C 0.35389(10) -0.13884(16) 0.63892(10)
H15B H 0.3620 -0.2067 0.6503
C19B C 0.36245(9) -0.10983(14) 0.58419(9)
H16B H 0.3765 -0.1560 0.5584
C20B C 0.36939(9) 0.00225(14) 0.46640(8)
H17B H 0.4060 -0.0396 0.4765
H18B H 0.3803 0.0583 0.4422
C21B C 0.31997(12) -0.0629(2) 0.43358(11)
H19B H 0.3085 -0.1176 0.4577
H20B H 0.3353 -0.0917 0.4005
H21B H 0.2845 -0.0208 0.4216
C22E C 0.06297(9) 0.22017(17) 0.75018(9)
C23E C 0.16367(8) 0.23570(14) 0.75335(7)
C24E C 0.09140(9) 0.19845(16) 0.80521(8)
C25E C 0.05643(10) 0.1716(2) 0.84857(10)
H22E H 0.0749 0.1568 0.8854
C26E C -0.00635(11) 0.1677(3) 0.83485(12)
H23E H -0.0308 0.1504 0.8632
C27E C -0.03447(11) 0.1888(3) 0.77988(13)
H24E H -0.0772 0.1845 0.7723
C28E C -0.00084(10) 0.2159(2) 0.73621(11)
H25E H -0.0197 0.2306 0.6995
C29E C 0.09898(11) 0.2809(2) 0.65898(9)
H26E H 0.1365 0.2722 0.6413
H27E H 0.0669 0.2397 0.6376
C30E C 0.08034(14) 0.3924(3) 0.65586(14)
H28E H 0.1133 0.4340 0.6746
H29E H 0.0718 0.4130 0.6164
H30E H 0.0440 0.4018 0.6746
N7 N 0.3841(2) 0.5218(5) 0.7969(2)
C31 C 0.4325(2) 0.5296(4) 0.8181(2)
C32 C 0.4933(2) 0.5380(4) 0.8462(2)
H31 H 0.5067 0.4720 0.8616
H32 H 0.4943 0.5875 0.8767
H33 H 0.5203 0.5603 0.8193
Cl1 Cl 0.50228(2) 0.23206(4) 0.49950(3)
O1 O 0.56385(7) 0.22805(12) 0.52523(8)
O2 O 0.4636(3) 0.1939(14) 0.5391(3)
O3 O 0.4956(4) 0.1681(11) 0.4506(4)
O4 O 0.4852(6) 0.3337(5) 0.4842(9)
O5? O 0.4673(3) 0.1629(7) 0.5295(5)
O6? O 0.5213(7) 0.2831(16) 0.4364(4)
O7? O 0.4987(4) 0.2028(11) 0.4420(2)
O8? O 0.4760(6) 0.1496(10) 0.4800(8)
O9? O 0.4785(3) 0.3324(4) 0.5044(6)
O10? O 0.4711(6) 0.3147(14) 0.5154(7)
loop_
_geom_bond_atom_site_label_1
_geom_bond_atom_site_label_2
_geom_bond_site_symmetry_1
_geom_bond_site_symmetry_2
Cu1 N2 1_555 1_555
N1 C4 1_555 1_555
N2 C5 1_555 1_555
N3 C14 1_555 1_555
N4 C13 1_555 1_555
N5 C22 1_555 1_555
N6 Cu1 1_555 1_555
C1 H1 1_555 1_555
C2 C1 1_555 1_555
H2 C2 1_555 1_555
C3 H3 1_555 1_555
C4 C6 1_555 1_555
C5 N1 1_555 1_555
C6 N2 1_555 1_555
C7 C6 1_555 1_555
H4 C7 1_555 1_555
C8 C7 1_555 1_555
H5 C8 1_555 1_555
C9 C8 1_555 1_555
H6 C9 1_555 1_555
C10 C4 1_555 1_555
H7 C10 1_555 1_555
C11 N1 1_555 1_555
H8 C11 1_555 1_555
H9 C11 1_555 1_555
C12 C11 1_555 1_555
H10 C12 1_555 1_555
H11 C12 1_555 1_555
H12 C12 1_555 1_555
C13 C15 1_555 1_555
C14 N4 1_555 1_555
C15 N3 1_555 1_555
C16 C15 1_555 1_555
H13 C16 1_555 1_555
C17 C16 1_555 1_555
H14 C17 1_555 1_555
C18 C17 1_555 1_555
H15 C18 1_555 1_555
C19 C13 1_555 1_555
H16 C19 1_555 1_555
C20 N4 1_555 1_555
H17 C20 1_555 1_555
H18 C20 1_555 1_555
C21 C20 1_555 1_555
H19 C21 1_555 1_555
H20 C21 1_555 1_555
H21 C21 1_555 1_555
C22 C24 1_555 1_555
C23 N5 1_555 1_555
C24 N6 1_555 1_555
C25 C24 1_555 1_555
H22 C25 1_555 1_555
C26 C25 1_555 1_555
H23 C26 1_555 1_555
C27 C26 1_555 1_555
H24 C27 1_555 1_555
C28 C22 1_555 1_555
H25 C28 1_555 1_555
C29 N5 1_555 1_555
H26 C29 1_555 1_555
H27 C29 1_555 1_555
C30 C29 1_555 1_555
H28 C30 1_555 1_555
H29 C30 1_555 1_555
H30 C30 1_555 1_555
N7 C31 1_555 1_555
C31 C32 1_555 1_555
C32 H31 1_555 1_555
H32 C32 1_555 1_555
H33 C32 1_555 1_555
Cl1 O1 1_555 1_555
O2 Cl1 1_555 1_555
O3 Cl1 1_555 1_555
O4 Cl1 1_555 1_555
Cu1B N3 1_555 1_555
Cu1E N6E 1_555 1_555
N1B C4B 1_555 1_555
N2B Cu1B 1_555 1_555
N3B Cu1 1_555 1_555
N4B C13B 1_555 1_555
N5E C22E 1_555 1_555
N6E C23E 1_555 1_555
N6B Cu1B 1_555 1_555
C1B H1B 1_555 1_555
C2B C1B 1_555 1_555
H2B C2B 1_555 1_555
C3E C3 1_555 1_555
H3E C3E 1_555 1_555
C4B C6B 1_555 1_555
C5B N1B 1_555 1_555
C6B N2B 1_555 1_555
C7B C6B 1_555 1_555
H4B C7B 1_555 1_555
C8B C7B 1_555 1_555
H5B C8B 1_555 1_555
C9B C8B 1_555 1_555
H6B C9B 1_555 1_555
C10B C4B 1_555 1_555
H7B C10B 1_555 1_555
C11B N1B 1_555 1_555
H8B C11B 1_555 1_555
H9B C11B 1_555 1_555
C12B C11B 1_555 1_555
H10B C12B 1_555 1_555
H11B C12B 1_555 1_555
H12B C12B 1_555 1_555
C13B C15B 1_555 1_555
C14B N3B 1_555 1_555
C15B N3B 1_555 1_555
C16B C15B 1_555 1_555
H13B C16B 1_555 1_555
C17B C16B 1_555 1_555
H14B C17B 1_555 1_555
C18B C17B 1_555 1_555
H15B C18B 1_555 1_555
C19B C13B 1_555 1_555
H16B C19B 1_555 1_555
C20B N4B 1_555 1_555
H17B C20B 1_555 1_555
H18B C20B 1_555 1_555
C21B C20B 1_555 1_555
H19B C21B 1_555 1_555
H20B C21B 1_555 1_555
H21B C21B 1_555 1_555
C22E C24E 1_555 1_555
C23E N5E 1_555 1_555
C24E N6E 1_555 1_555
C25E C24E 1_555 1_555
H22E C25E 1_555 1_555
C26E C25E 1_555 1_555
H23E C26E 1_555 1_555
C27E C26E 1_555 1_555
H24E C27E 1_555 1_555
C28E C22E 1_555 1_555
H25E C28E 1_555 1_555
C29E N5E 1_555 1_555
H26E C29E 1_555 1_555
H27E C29E 1_555 1_555
C30E C29E 1_555 1_555
H28E C30E 1_555 1_555
H29E C30E 1_555 1_555
H30E C30E 1_555 1_555
N6 C23 1_555 1_555
C1 C5 1_555 1_555
C2 C14 1_555 1_555
C3 C23 1_555 1_555
C9 C10 1_555 1_555
C18 C19 1_555 1_555
C27 C28 1_555 1_555
N2B C5B 1_555 1_555
N4B C14B 1_555 1_555
C1B C5B 1_555 1_555
C2B C14B 1_555 1_555
C3E C23E 1_555 1_555
C9B C10B 1_555 1_555
C18B C19B 1_555 1_555
C27E C28E 1_555 1_555

#END
