
#######################################################################
#
#                 Cambridge Crystallographic Data Centre
#                                CCDC 
#
#######################################################################
#
# If this CIF has been generated from an entry in the Cambridge 
# Structural Database, then it will include bibliographic, chemical, 
# crystal, experimental, refinement or atomic coordinate data resulting 
# from the CCDC's data processing and validation procedures.
#
#######################################################################

data_BIZQEH
_symmetry_cell_setting           triclinic
_symmetry_space_group_name_H-M   'P -1'
_symmetry_Int_Tables_number      2
_space_group_name_Hall           '-P 1'
loop_
_symmetry_equiv_pos_site_id
_symmetry_equiv_pos_as_xyz
1 x,y,z
2 -x,-y,-z
_cell_length_a                   8.5730(17)
_cell_length_b                   10.614(2)
_cell_length_c                   14.846(3)
_cell_angle_alpha                77.34(3)
_cell_angle_beta                 81.99(3)
_cell_angle_gamma                82.67(3)
_cell_volume                     1298.59
loop_
_atom_site_label
_atom_site_type_symbol
_atom_site_fract_x
_atom_site_fract_y
_atom_site_fract_z
C1 C -0.3154(5) 0.3643(5) -0.2263(4)
H1 H -0.3426 0.3983 -0.1729
C2 C -0.4234(5) 0.2962(5) -0.2518(4)
H2 H -0.5216 0.2863 -0.2169
C3 C -0.3834(5) 0.2430(5) -0.3297(4)
H3 H -0.4535 0.1956 -0.3476
C4 C -0.2354(5) 0.2616(4) -0.3817(3)
C5 C -0.1352(4) 0.3338(4) -0.3517(3)
C6 C 0.0188(5) 0.3602(4) -0.4043(3)
C7 C 0.2494(5) 0.4561(4) -0.4195(3)
H4 H 0.3127 0.5051 -0.3977
C8 C 0.3056(5) 0.4109(5) -0.5002(3)
H5 H 0.4043 0.4298 -0.5314
C9 C 0.2145(5) 0.3383(4) -0.5334(3)
H6 H 0.2496 0.3085 -0.5879
C10 C 0.0686(5) 0.3099(4) -0.4842(3)
C11 C -0.0314(5) 0.2284(4) -0.5137(3)
C12 C -0.1837(5) 0.2049(4) -0.4643(3)
C13 C -0.2187(5) 0.0752(4) -0.5624(3)
C14 C -0.3088(5) -0.0088(5) -0.5907(4)
H7 H -0.4085 -0.0250 -0.5597
C15 C -0.2492(5) -0.0660(4) -0.6635(3)
H8 H -0.3096 -0.1204 -0.6821
C16 C -0.0994(6) -0.0448(4) -0.7108(3)
H9 H -0.0602 -0.0862 -0.7596
C17 C -0.0108(6) 0.0360(5) -0.6856(3)
H10 H 0.0884 0.0508 -0.7178
C18 C -0.0681(5) 0.0979(4) -0.6110(3)
C19 C -0.2088(4) 0.6812(4) -0.1441(3)
C20 C -0.3374(4) 0.7958(4) -0.1547(3)
H11 H -0.2888 0.8723 -0.1496
C21 C -0.4043(5) 0.8279(4) -0.2488(3)
H12 H -0.3173 0.8322 -0.2983
H13 H -0.4648 0.9125 -0.2559
C22 C -0.5100(4) 0.7275(4) -0.2577(3)
H14 H -0.5559 0.7551 -0.3158
H15 H -0.4464 0.6453 -0.2590
C23 C -0.6420(4) 0.7087(4) -0.1774(3)
H16 H -0.7047 0.7930 -0.1790
C24 C -0.7540(5) 0.6135(4) -0.1871(3)
C25 C -0.5739(5) 0.6720(4) -0.0842(3)
H17 H -0.5112 0.5885 -0.0797
H18 H -0.6598 0.6641 -0.0340
C26 C -0.4706(5) 0.7740(5) -0.0744(3)
H19 H -0.5359 0.8553 -0.0726
H20 H -0.4248 0.7465 -0.0161
C27 C -0.0343(5) -0.2648(4) 0.0992(3)
C28 C -0.0165(5) -0.1393(4) 0.0286(3)
H21 H 0.0018 -0.1609 -0.0332
C29 C 0.1322(5) -0.0823(4) 0.0430(3)
H22 H 0.1198 -0.0632 0.1047
H23 H 0.2236 -0.1456 0.0383
C30 C -0.1596(5) -0.0421(4) 0.0298(3)
H24 H -0.1834 -0.0213 0.0910
H25 H -0.2499 -0.0794 0.0172
N1 N -0.1746(4) 0.3837(3) -0.2743(2)
N2 N 0.1085(4) 0.4322(3) -0.3718(2)
N3 N -0.2766(4) 0.1304(4) -0.4881(3)
N4 N 0.0267(4) 0.1751(3) -0.5858(2)
O1 O -0.1606(4) 0.6459(3) -0.0659(2)
O2 O -0.1563(3) 0.6326(3) -0.2134(2)
O3 O -0.8227(4) 0.5473(4) -0.1177(3)
O4 O -0.7807(4) 0.6065(3) -0.2666(2)
O5 O -0.1267(4) -0.2712(3) 0.1720(2)
O6 O 0.0573(3) -0.3643(3) 0.0822(2)
Mn1 Mn 0.02437(7) 0.48168(6) -0.22819(4)
Mn2 Mn 0.0000 0.5000 0.0000
C1A C 0.3154(5) 0.6357(5) 0.2263(4)
H1A H 0.3426 0.6017 0.1729
C2A C 0.4234(5) 0.7038(5) 0.2518(4)
H2A H 0.5216 0.7137 0.2169
C3A C 0.3834(5) 0.7570(5) 0.3297(4)
H3A H 0.4535 0.8044 0.3476
C4A C 0.2354(5) 0.7384(4) 0.3817(3)
C5A C 0.1352(4) 0.6662(4) 0.3517(3)
C6A C -0.0188(5) 0.6398(4) 0.4043(3)
C7A C -0.2494(5) 0.5439(4) 0.4195(3)
H4A H -0.3127 0.4949 0.3977
C8A C -0.3056(5) 0.5891(5) 0.5002(3)
H5A H -0.4043 0.5702 0.5314
C9A C -0.2145(5) 0.6617(4) 0.5334(3)
H6A H -0.2496 0.6915 0.5879
C10A C -0.0686(5) 0.6901(4) 0.4842(3)
C11A C 0.0314(5) 0.7716(4) 0.5137(3)
C12A C 0.1837(5) 0.7951(4) 0.4643(3)
C13A C 0.2187(5) 0.9248(4) 0.5624(3)
C14A C 0.3088(5) 1.0088(5) 0.5907(4)
H7A H 0.4085 1.0250 0.5597
C15A C 0.2492(5) 1.0660(4) 0.6635(3)
H8A H 0.3096 1.1204 0.6821
C16A C 0.0994(6) 1.0448(4) 0.7108(3)
H9A H 0.0602 1.0862 0.7596
C17A C 0.0108(6) 0.9640(5) 0.6856(3)
H10A H -0.0884 0.9492 0.7178
C18A C 0.0681(5) 0.9021(4) 0.6110(3)
C19A C 0.2088(4) 0.3188(4) 0.1441(3)
C20A C 0.3374(4) 0.2042(4) 0.1547(3)
H11A H 0.2888 0.1277 0.1496
C21A C 0.4043(5) 0.1721(4) 0.2488(3)
H12A H 0.3173 0.1678 0.2983
H13A H 0.4648 0.0875 0.2559
C22A C 0.5100(4) 0.2725(4) 0.2577(3)
H14A H 0.5559 0.2449 0.3158
H15A H 0.4464 0.3547 0.2590
C23A C 0.6420(4) 0.2913(4) 0.1774(3)
H16A H 0.7047 0.2070 0.1790
C24A C 0.7540(5) 0.3865(4) 0.1871(3)
C25A C 0.5739(5) 0.3280(4) 0.0842(3)
H17A H 0.5112 0.4115 0.0797
H18A H 0.6598 0.3359 0.0340
C26A C 0.4706(5) 0.2260(5) 0.0744(3)
H19A H 0.5359 0.1447 0.0726
H20A H 0.4248 0.2535 0.0161
C27A C 0.0343(5) 0.2648(4) -0.0992(3)
C28A C 0.0165(5) 0.1393(4) -0.0286(3)
H21A H -0.0018 0.1609 0.0332
C29A C -0.1322(5) 0.0823(4) -0.0430(3)
H22A H -0.1198 0.0632 -0.1047
H23A H -0.2236 0.1456 -0.0383
C30A C 0.1596(5) 0.0421(4) -0.0298(3)
H24A H 0.1834 0.0213 -0.0910
H25A H 0.2499 0.0794 -0.0172
N1A N 0.1746(4) 0.6163(3) 0.2743(2)
N2A N -0.1085(4) 0.5678(3) 0.3718(2)
N3A N 0.2766(4) 0.8696(4) 0.4881(3)
N4A N -0.0267(4) 0.8249(3) 0.5858(2)
O1A O 0.1606(4) 0.3541(3) 0.0659(2)
O2A O 0.1563(3) 0.3674(3) 0.2134(2)
O3_2 O 0.1773(4) 0.5473(4) -0.1177(3)
O3A O -0.1773(4) 0.4527(4) 0.1177(3)
O3A_2 O 0.8227(4) 0.4527(4) 0.1177(3)
O4_2 O 0.2193(4) 0.6065(3) -0.2666(2)
O4A O -0.2193(4) 0.3935(3) 0.2666(2)
O4A_2 O 0.7807(4) 0.3935(3) 0.2666(2)
O5A O 0.1267(4) 0.2712(3) -0.1720(2)
O5_2 O -0.1267(4) 0.7288(3) 0.1720(2)
O6A O -0.0573(3) 0.3643(3) -0.0822(2)
O6_2 O 0.0573(3) 0.6357(3) 0.0822(2)
Mn1A Mn -0.02437(7) -0.48168(6) 0.22819(4)
Mn1A_2 Mn -0.02437(7) 0.51832(6) 0.22819(4)
Mn1_2 Mn -0.97563(7) 0.48168(6) -0.22819(4)
Mn1A_3 Mn 0.97563(7) 0.51832(6) 0.22819(4)
Mn2_2 Mn 0.0000 -0.5000 0.0000
Mn2_3 Mn 1.0000 0.5000 0.0000
Mn2_4 Mn -1.0000 0.5000 0.0000
loop_
_geom_bond_atom_site_label_1
_geom_bond_atom_site_label_2
_geom_bond_site_symmetry_1
_geom_bond_site_symmetry_2
C1 H1 1_555 1_555
C2 C1 1_555 1_555
H2 C2 1_555 1_555
C3 C2 1_555 1_555
H3 C3 1_555 1_555
C4 C3 1_555 1_555
C5 C4 1_555 1_555
C6 C5 1_555 1_555
C7 H4 1_555 1_555
C8 C7 1_555 1_555
H5 C8 1_555 1_555
C9 C8 1_555 1_555
H6 C9 1_555 1_555
C10 C6 1_555 1_555
C11 C10 1_555 1_555
C12 C4 1_555 1_555
C13 C14 1_555 1_555
C14 H7 1_555 1_555
C15 C14 1_555 1_555
H8 C15 1_555 1_555
C16 C15 1_555 1_555
H9 C16 1_555 1_555
C17 C16 1_555 1_555
H10 C17 1_555 1_555
C18 C13 1_555 1_555
C19 C20 1_555 1_555
C20 H11 1_555 1_555
C21 C20 1_555 1_555
H12 C21 1_555 1_555
H13 C21 1_555 1_555
C22 C21 1_555 1_555
H14 C22 1_555 1_555
H15 C22 1_555 1_555
C23 C22 1_555 1_555
H16 C23 1_555 1_555
C24 C23 1_555 1_555
C25 C23 1_555 1_555
H17 C25 1_555 1_555
H18 C25 1_555 1_555
C26 C20 1_555 1_555
H19 C26 1_555 1_555
H20 C26 1_555 1_555
C27 C28 1_555 1_555
C28 H21 1_555 1_555
C29 C28 1_555 1_555
H22 C29 1_555 1_555
H23 C29 1_555 1_555
C30 C28 1_555 1_555
H24 C30 1_555 1_555
H25 C30 1_555 1_555
N1 C1 1_555 1_555
N2 C6 1_555 1_555
N3 C12 1_555 1_555
N4 C11 1_555 1_555
O1 C19 1_555 1_555
O2 C19 1_555 1_555
O3 C24 1_555 1_555
O4 C24 1_555 1_555
O5 C27 1_555 1_555
O6 C27 1_555 1_555
Mn1 N1 1_555 1_555
Mn2 O1 1_555 1_555
C1A H1A 1_555 1_555
C2A C1A 1_555 1_555
H2A C2A 1_555 1_555
C3A C2A 1_555 1_555
H3A C3A 1_555 1_555
C4A C3A 1_555 1_555
C5A C4A 1_555 1_555
C6A C5A 1_555 1_555
C7A H4A 1_555 1_555
C8A C7A 1_555 1_555
H5A C8A 1_555 1_555
C9A C8A 1_555 1_555
H6A C9A 1_555 1_555
C10A C6A 1_555 1_555
C11A C10A 1_555 1_555
C12A C4A 1_555 1_555
C13A C14A 1_555 1_555
C14A H7A 1_555 1_555
C15A C14A 1_555 1_555
H8A C15A 1_555 1_555
C16A C15A 1_555 1_555
H9A C16A 1_555 1_555
C17A C16A 1_555 1_555
H10A C17A 1_555 1_555
C18A C13A 1_555 1_555
C19A C20A 1_555 1_555
C20A H11A 1_555 1_555
C21A C20A 1_555 1_555
H12A C21A 1_555 1_555
H13A C21A 1_555 1_555
C22A C21A 1_555 1_555
H14A C22A 1_555 1_555
H15A C22A 1_555 1_555
C23A C22A 1_555 1_555
H16A C23A 1_555 1_555
C24A C23A 1_555 1_555
C25A C23A 1_555 1_555
H17A C25A 1_555 1_555
H18A C25A 1_555 1_555
C26A C20A 1_555 1_555
H19A C26A 1_555 1_555
H20A C26A 1_555 1_555
C27A C28A 1_555 1_555
C28A H21A 1_555 1_555
C29A C30 1_555 1_555
H22A C29A 1_555 1_555
H23A C29A 1_555 1_555
C30A C29 1_555 1_555
H24A C30A 1_555 1_555
H25A C30A 1_555 1_555
N1A C1A 1_555 1_555
N2A C6A 1_555 1_555
N3A C12A 1_555 1_555
N4A C11A 1_555 1_555
O1A Mn2 1_555 1_555
O2A C19A 1_555 1_555
O3_2 Mn1 1_555 1_555
O3A Mn2 1_555 1_555
O3A_2 C24A 1_555 1_555
O4_2 Mn1 1_555 1_555
O4A Mn1A_2 1_555 1_555
O4A_2 C24A 1_555 1_555
O5A Mn1 1_555 1_555
O5_2 Mn1A_2 1_555 1_555
O6A Mn1 1_555 1_555
O6_2 Mn2 1_555 1_555
Mn1A O5 1_555 1_555
Mn1A_2 N1A 1_555 1_555
Mn1_2 O3 1_555 1_555
Mn1A_3 O3A_2 1_555 1_555
Mn2_2 O6 1_555 1_555
Mn2_3 O3A_2 1_555 1_555
Mn2_4 O3 1_555 1_555
C5 N1 1_555 1_555
C7 N2 1_555 1_555
C9 C10 1_555 1_555
C11 C12 1_555 1_555
C13 N3 1_555 1_555
C17 C18 1_555 1_555
C18 N4 1_555 1_555
C25 C26 1_555 1_555
N2 Mn1 1_555 1_555
O2 Mn1 1_555 1_555
O4 Mn1_2 1_555 1_555
O6 Mn1A 1_555 1_555
Mn2 O3_2 1_555 1_555
Mn2 O6A 1_555 1_555
C5A N1A 1_555 1_555
C7A N2A 1_555 1_555
C9A C10A 1_555 1_555
C11A C12A 1_555 1_555
C13A N3A 1_555 1_555
C17A C18A 1_555 1_555
C18A N4A 1_555 1_555
C19A O1A 1_555 1_555
C25A C26A 1_555 1_555
C27A O5A 1_555 1_555
C27A O6A 1_555 1_555
C28A C29A 1_555 1_555
C28A C30A 1_555 1_555
N2A Mn1A_2 1_555 1_555
O2A Mn1A_2 1_555 1_555
O3A Mn1A_2 1_555 1_555
O4A_2 Mn1A_3 1_555 1_555
O6_2 Mn1A_2 1_555 1_555

#END
