
#######################################################################
#
#                 Cambridge Crystallographic Data Centre
#                                CCDC 
#
#######################################################################
#
# If this CIF has been generated from an entry in the Cambridge 
# Structural Database, then it will include bibliographic, chemical, 
# crystal, experimental, refinement or atomic coordinate data resulting 
# from the CCDC's data processing and validation procedures.
#
#######################################################################

data_BIZQUX
_symmetry_cell_setting           monoclinic
_symmetry_space_group_name_H-M   'P 21/n'
_symmetry_Int_Tables_number      14
_space_group_name_Hall           '-P 2yn'
loop_
_symmetry_equiv_pos_site_id
_symmetry_equiv_pos_as_xyz
1 x,y,z
2 1/2-x,1/2+y,1/2-z
3 -x,-y,-z
4 1/2+x,1/2-y,1/2+z
_cell_length_a                   10.8308(9)
_cell_length_b                   22.0864(18)
_cell_length_c                   17.0949(13)
_cell_angle_alpha                90
_cell_angle_beta                 90.420(2)
_cell_angle_gamma                90
_cell_volume                     4089.22
loop_
_atom_site_label
_atom_site_type_symbol
_atom_site_fract_x
_atom_site_fract_y
_atom_site_fract_z
Ag1 Ag -0.39868(2) 0.346050(14) -0.158000(17)
Ag2 Ag -0.50966(3) 0.172130(17) 0.133410(18)
C1 C -0.2657(3) 0.2966(2) 0.5453(2)
C2 C -0.3605(3) 0.25831(17) 0.4271(2)
H1 H -0.2906 0.2348 0.4189
C3 C -0.3664(3) 0.29593(18) 0.4907(2)
C4 C -0.4701(4) 0.33254(19) 0.5033(3)
H2 H -0.4725 0.3587 0.5458
C5 C -0.5677(4) 0.3293(2) 0.4522(3)
H3 H -0.6374 0.3529 0.4603
C6 C -0.5627(3) 0.29061(19) 0.3882(2)
H4 H -0.6297 0.2884 0.3540
C7 C -0.4595(3) 0.25543(16) 0.37478(18)
C14 C -0.1831(4) 0.34519(17) -0.0213(2)
C15 C -0.0829(3) 0.33697(16) 0.0341(2)
C16 C 0.0166(4) 0.37697(19) 0.0335(2)
H11 H 0.0211 0.4073 -0.0041
C17 C -0.0889(3) 0.29088(16) 0.08766(18)
H12 H -0.1547 0.2638 0.0865
C18 C 0.1075(4) 0.3710(2) 0.0888(3)
H13 H 0.1734 0.3980 0.0895
C19 C 0.1024(3) 0.3255(2) 0.1435(2)
H14 H 0.1651 0.3218 0.1806
C20 C -0.4544(3) 0.21674(16) 0.30567(19)
H15 H -0.5220 0.2146 0.2719
C21 C 0.0039(3) 0.28494(17) 0.14378(19)
C22 C 0.0014(3) 0.23774(17) 0.20353(19)
H16 H 0.0642 0.2365 0.2409
C23 C -0.5077(6) 0.1410(3) -0.1031(3)
C24 C -0.2646(3) 0.11968(15) 0.21347(18)
C25 C -0.2459(3) 0.07787(16) 0.14852(18)
C26 C -0.3409(3) 0.05818(19) 0.0994(2)
H17 H -0.4208 0.0722 0.1074
C27 C -0.3184(4) 0.0186(2) 0.0398(3)
H18 H -0.3830 0.0073 0.0067
C28 C -0.2042(4) -0.0046(2) 0.0275(2)
H19 H -0.1903 -0.0318 -0.0131
C29 C -0.1085(4) 0.0132(2) 0.0771(2)
H20 H -0.0299 -0.0028 0.0704
C30 C -0.1290(3) 0.05391(18) 0.1354(2)
H21 H -0.0635 0.0660 0.1672
C31 C -0.1657(3) 0.12271(15) 0.27589(17)
C32 C -0.1734(3) 0.08034(16) 0.34254(19)
C33 C -0.1263(3) 0.09625(19) 0.4156(2)
H22 H -0.0918 0.1344 0.4230
C34 C -0.1303(4) 0.0559(2) 0.4768(2)
H23 H -0.0965 0.0666 0.5251
C35 C -0.2307(4) 0.0244(2) 0.3338(2)
H24 H -0.2667 0.0137 0.2862
C36 C -0.2340(6) -0.0154(2) 0.3967(3)
H25 H -0.2709 -0.0532 0.3907
C37 C -0.1834(5) 0.0004(2) 0.4673(3)
H26 H -0.1853 -0.0268 0.5089
C38 C -0.1562(8) 0.4793(3) -0.2207(4)
F1 F -0.0470(6) 0.4644(4) -0.2083(5)
F2 F -0.2219(7) 0.4824(2) -0.1582(3)
F3 F -0.5577(5) 0.1478(2) -0.1718(3)
F4 F -0.4249(5) 0.09921(18) -0.1111(2)
F5 F -0.5909(5) 0.12066(18) -0.0549(3)
F6 F -0.1607(6) 0.5347(2) -0.2491(3)
N1 N -0.3630(2) 0.15286(13) 0.22112(16)
N2 N -0.3579(2) 0.18602(13) 0.29151(16)
N3 N -0.1854(3) 0.2954(2) 0.5884(2)
N4 N -0.2621(3) 0.35361(16) -0.0629(2)
N5 N -0.0727(2) 0.15834(13) 0.26968(15)
N6 N -0.0839(2) 0.19828(13) 0.20622(15)
O1 O -0.2173(4) 0.37030(17) -0.2487(2)
O2 O -0.3463(4) 0.4471(3) -0.3019(4)
O3 O -0.1460(3) 0.43076(19) -0.3559(2)
O4 O -0.3891(3) 0.19487(16) 0.00631(17)
O5 O -0.3533(2) 0.22633(15) -0.12695(17)
O6 O -0.5434(3) 0.25197(15) -0.0644(2)
S1 S -0.22795(10) 0.42631(6) -0.29102(8)
S2 S -0.44163(9) 0.21130(5) -0.06805(6)
Ag1C Ag 0.10132(2) 0.153950(14) 0.342000(17)
Ag2C Ag -0.00966(3) 0.327870(17) 0.633410(18)
N3C N -0.6854(3) 0.2046(2) 0.0884(2)
N5C N -0.5727(2) 0.34166(13) -0.23032(15)
C8 C -0.8301(5) 0.1599(3) -0.2822(4)
H5 H -0.7529 0.1772 -0.2735
C9 C -0.9020(6) 0.1804(3) -0.3439(4)
H6 H -0.8712 0.2100 -0.3771
C10 C -1.0162(6) 0.1579(3) -0.3565(4)
H7 H -1.0650 0.1726 -0.3973
C11 C -1.0582(6) 0.1141(4) -0.3097(4)
H8 H -1.1370 0.0986 -0.3183
C12 C -0.9878(5) 0.0917(3) -0.2493(4)
H9 H -1.0180 0.0607 -0.2180
C13 C -0.8689(5) 0.1160(3) -0.2349(3)
H10 H -0.8197 0.1018 -0.1940
loop_
_geom_bond_atom_site_label_1
_geom_bond_atom_site_label_2
_geom_bond_site_symmetry_1
_geom_bond_site_symmetry_2
Ag1 N4 1_555 1_555
Ag2 N1 1_555 1_555
C1 C3 1_555 1_555
C2 H1 1_555 1_555
C3 C2 1_555 1_555
C4 C3 1_555 1_555
H2 C4 1_555 1_555
C5 C4 1_555 1_555
H3 C5 1_555 1_555
C6 C5 1_555 1_555
H4 C6 1_555 1_555
C7 C2 1_555 1_555
C8 H5 1_555 1_555
C9 C8 1_555 1_555
H6 C9 1_555 1_555
C10 C9 1_555 1_555
H7 C10 1_555 1_555
C11 C10 1_555 1_555
H8 C11 1_555 1_555
C12 C11 1_555 1_555
H9 C12 1_555 1_555
C13 C8 1_555 1_555
H10 C13 1_555 1_555
C14 C15 1_555 1_555
C15 C16 1_555 1_555
C16 H11 1_555 1_555
C17 C15 1_555 1_555
H12 C17 1_555 1_555
C18 C16 1_555 1_555
H13 C18 1_555 1_555
C19 C18 1_555 1_555
H14 C19 1_555 1_555
C20 C7 1_555 1_555
H15 C20 1_555 1_555
C21 C17 1_555 1_555
C22 C21 1_555 1_555
H16 C22 1_555 1_555
C23 F3 1_555 1_555
C24 C25 1_555 1_555
C25 C26 1_555 1_555
C26 H17 1_555 1_555
C27 C26 1_555 1_555
H18 C27 1_555 1_555
C28 C27 1_555 1_555
H19 C28 1_555 1_555
C29 C28 1_555 1_555
H20 C29 1_555 1_555
C30 C25 1_555 1_555
H21 C30 1_555 1_555
C31 C24 1_555 1_555
C32 C31 1_555 1_555
C33 C32 1_555 1_555
H22 C33 1_555 1_555
C34 C33 1_555 1_555
H23 C34 1_555 1_555
C35 C32 1_555 1_555
H24 C35 1_555 1_555
C36 C35 1_555 1_555
H25 C36 1_555 1_555
C37 C34 1_555 1_555
H26 C37 1_555 1_555
C38 F1 1_555 1_555
F2 C38 1_555 1_555
F4 C23 1_555 1_555
F5 C23 1_555 1_555
F6 C38 1_555 1_555
N1 C24 1_555 1_555
N2 C20 1_555 1_555
N3 C1 1_555 1_555
N4 C14 1_555 1_555
N5 C31 1_555 1_555
N6 C22 1_555 1_555
O1 Ag1 1_555 1_555
O2 S1 1_555 1_555
O3 S1 1_555 1_555
O4 Ag2 1_555 1_555
O5 S2 1_555 1_555
O6 S2 1_555 1_555
S1 C38 1_555 1_555
S2 C23 1_555 1_555
Ag1C N5 1_555 1_555
Ag2C N3 1_555 1_555
N3C Ag2 1_555 1_555
N5C Ag1 1_555 1_555
C6 C7 1_555 1_555
C12 C13 1_555 1_555
C19 C21 1_555 1_555
C29 C30 1_555 1_555
C36 C37 1_555 1_555
N1 N2 1_555 1_555
N5 N6 1_555 1_555
O1 S1 1_555 1_555
O4 S2 1_555 1_555

#END
