
#######################################################################
#
#                 Cambridge Crystallographic Data Centre
#                                CCDC 
#
#######################################################################
#
# If this CIF has been generated from an entry in the Cambridge 
# Structural Database, then it will include bibliographic, chemical, 
# crystal, experimental, refinement or atomic coordinate data resulting 
# from the CCDC's data processing and validation procedures.
#
#######################################################################

data_BIZSAF
_symmetry_cell_setting           triclinic
_symmetry_space_group_name_H-M   'P -1'
_symmetry_Int_Tables_number      2
_space_group_name_Hall           '-P 1'
loop_
_symmetry_equiv_pos_site_id
_symmetry_equiv_pos_as_xyz
1 x,y,z
2 -x,-y,-z
_cell_length_a                   6.5409(17)
_cell_length_b                   7.850(2)
_cell_length_c                   9.410(3)
_cell_angle_alpha                99.668(6)
_cell_angle_beta                 97.164(6)
_cell_angle_gamma                107.566(5)
_cell_volume                     446.116
loop_
_atom_site_label
_atom_site_type_symbol
_atom_site_fract_x
_atom_site_fract_y
_atom_site_fract_z
Cd1 Cd 0.0000 -0.5000 -0.5000
Cd2 Cd 0.0000 0.0000 -0.5000
O1 O 0.1884(5) -0.5400(4) -0.2934(3)
O2 O 0.0598(6) -0.8326(4) -0.2717(3)
O3 O 0.3130(5) -0.4505(5) 0.3892(3)
O4 O 0.3676(5) 0.1301(5) -0.5222(4)
H1 H 0.4361 0.2055 -0.4454
H2 H 0.4127 0.0951 -0.6055
N1 N 0.1164(6) -0.2003(5) -0.3890(4)
N2 N 0.2664(6) -0.1360(5) -0.2869(4)
N3 N 0.4108(8) -0.0717(6) -0.1922(6)
N4 N 0.2847(6) -0.4995(5) 0.2437(4)
C1 C 0.3105(6) -0.3712(6) 0.1625(5)
H3 H 0.3534 -0.2471 0.2095
C2 C 0.2752(6) -0.4192(6) 0.0126(5)
H4 H 0.2954 -0.3286 -0.0431
C3 C 0.2086(6) -0.6041(6) -0.0570(4)
C4 C 0.1925(7) -0.7329(6) 0.0312(5)
H5 H 0.1547 -0.8577 -0.0127
C5 C 0.2314(7) -0.6784(6) 0.1804(5)
H6 H 0.2211 -0.7655 0.2391
C6 C 0.1483(7) -0.6632(6) -0.2218(5)
Cd1_2 Cd 0.0000 -0.5000 -1.5000
Cd1_3 Cd 0.0000 -0.5000 0.5000
Cd2_2 Cd 0.0000 -1.0000 -0.5000
O1A O -0.1884(5) -0.4600(4) -0.7066(3)
O2_2 O 0.0598(6) 0.1674(4) -0.2717(3)
O2A O -0.0598(6) -0.1674(4) -0.7283(3)
O3A O -0.3130(5) -0.5495(5) -0.3892(3)
O3_2 O 0.3130(5) -0.4505(5) -0.6108(3)
O3A_2 O -0.3130(5) -0.5495(5) -1.3892(3)
O4A O -0.3676(5) -0.1301(5) -0.4778(4)
H1A H -0.4361 -0.2055 -0.5546
H2A H -0.4127 -0.0951 -0.3945
N1A N -0.1164(6) -0.7997(5) -0.6110(4)
N1A_2 N -0.1164(6) 0.2003(5) -0.6110(4)
N2A N -0.2664(6) -0.8640(5) -0.7131(4)
N3A N -0.4108(8) -0.9283(6) -0.8078(6)
N4A N -0.2847(6) -0.5005(5) -1.2437(4)
C1A C -0.3105(6) -0.6288(6) -1.1625(5)
H3A H -0.3534 -0.7529 -1.2095
C2A C -0.2752(6) -0.5808(6) -1.0126(5)
H4A H -0.2954 -0.6714 -0.9569
C3A C -0.2086(6) -0.3959(6) -0.9430(4)
C4A C -0.1925(7) -0.2671(6) -1.0312(5)
H5A H -0.1547 -0.1423 -0.9873
C5A C -0.2314(7) -0.3216(6) -1.1804(5)
H6A H -0.2211 -0.2345 -1.2391
C6A C -0.1483(7) -0.3368(6) -0.7782(5)
loop_
_geom_bond_atom_site_label_1
_geom_bond_atom_site_label_2
_geom_bond_site_symmetry_1
_geom_bond_site_symmetry_2
Cd1 O1 1_555 1_555
Cd2 O4 1_555 1_555
O1 C6 1_555 1_555
O2 C6 1_555 1_555
O3 N4 1_555 1_555
O4 H1 1_555 1_555
H2 O4 1_555 1_555
N1 Cd1 1_555 1_555
N2 N1 1_555 1_555
N3 N2 1_555 1_555
N4 C1 1_555 1_555
C1 H3 1_555 1_555
C2 C1 1_555 1_555
H4 C2 1_555 1_555
C3 C2 1_555 1_555
C4 C3 1_555 1_555
H5 C4 1_555 1_555
C5 N4 1_555 1_555
H6 C5 1_555 1_555
C6 C3 1_555 1_555
Cd1_2 O3A_2 1_555 1_555
Cd1_3 O3 1_555 1_555
Cd2_2 O2 1_555 1_555
O1A Cd1 1_555 1_555
O2_2 Cd2 1_555 1_555
O2A Cd2 1_555 1_555
O3A Cd1 1_555 1_555
O3_2 Cd1 1_555 1_555
O3A_2 N4A 1_555 1_555
O4A Cd2 1_555 1_555
H1A O4A 1_555 1_555
H2A O4A 1_555 1_555
N1A Cd1 1_555 1_555
N1A_2 Cd2 1_555 1_555
N2A N1A 1_555 1_555
N3A N2A 1_555 1_555
N4A C1A 1_555 1_555
C1A H3A 1_555 1_555
C2A C1A 1_555 1_555
H4A C2A 1_555 1_555
C3A C2A 1_555 1_555
C4A C3A 1_555 1_555
H5A C4A 1_555 1_555
C5A N4A 1_555 1_555
H6A C5A 1_555 1_555
C6A O1A 1_555 1_555
Cd2 N1 1_555 1_555
C4 C5 1_555 1_555
Cd2_2 N1A 1_555 1_555
O2A C6A 1_555 1_555
C3A C6A 1_555 1_555
C4A C5A 1_555 1_555

#END
