
#######################################################################
#
#                 Cambridge Crystallographic Data Centre
#                                CCDC 
#
#######################################################################
#
# If this CIF has been generated from an entry in the Cambridge 
# Structural Database, then it will include bibliographic, chemical, 
# crystal, experimental, refinement or atomic coordinate data resulting 
# from the CCDC's data processing and validation procedures.
#
#######################################################################

data_BIZSEJ01
_symmetry_cell_setting           monoclinic
_symmetry_space_group_name_H-M   'P 21'
_symmetry_Int_Tables_number      4
_space_group_name_Hall           'P 2yb'
loop_
_symmetry_equiv_pos_site_id
_symmetry_equiv_pos_as_xyz
1 x,y,z
2 -x,1/2+y,-z
_cell_length_a                   5.1549(5)
_cell_length_b                   9.5031(8)
_cell_length_c                   13.6385(13)
_cell_angle_alpha                90
_cell_angle_beta                 94.790(3)
_cell_angle_gamma                90
_cell_volume                     665.783
loop_
_atom_site_label
_atom_site_type_symbol
_atom_site_fract_x
_atom_site_fract_y
_atom_site_fract_z
Zn1 Zn 0.40425(17) 0.03468(12) 0.62487(7)
S1 S 0.1254(5) 0.1148(3) 0.21548(17)
S2 S 0.4931(4) 0.0482(3) 0.06292(15)
S3 S 0.9019(4) -0.1633(3) 0.00171(17)
O1 O 0.1689(10) 0.0308(10) 0.4981(4)
O2 O 0.4673(13) 0.1128(8) 0.4040(5)
O3 O 0.4581(11) -0.1251(7) -0.1545(5)
O4 O 0.6675(10) 0.0215(9) -0.2489(4)
O5 O 0.2440(11) -0.1651(7) 0.6617(4)
H1 H 0.2701 -0.1890 0.7207
H2 H 0.2709 -0.2328 0.6252
O6 O 0.1318(12) 0.1310(8) 0.7073(5)
H3 H 0.1714 0.1910 0.7505
H4 H -0.0138 0.0969 0.7148
O7 O 0.5582(12) 0.2328(7) 0.6052(5)
H5 H 0.5304 0.3000 0.6420
H6 H 0.6916 0.2479 0.5746
O8 O 0.7066(12) -0.0791(7) 0.5535(5)
H7 H 0.7987 -0.1304 0.5916
H8 H 0.7988 -0.0279 0.5213
N1 N 0.4499(16) -0.1084(10) 0.2124(6)
N2 N 0.6302(16) -0.1761(9) 0.1582(5)
C1 C 0.2504(16) 0.0612(9) 0.4160(6)
C2 C 0.0622(15) 0.0274(13) 0.3279(6)
H9 H -0.1121 0.0520 0.3437
H10 H 0.0653 -0.0733 0.3167
C3 C 0.3620(17) 0.0077(10) 0.1724(6)
C4 C 0.6676(16) -0.1063(10) 0.0779(7)
C5 C 0.8774(15) -0.0367(10) -0.0963(6)
H11 H 0.8732 0.0564 -0.0673
H12 H 1.0345 -0.0426 -0.1305
C6 C 0.6445(16) -0.0500(10) -0.1722(6)
Zn1_2 Zn 0.40425(17) 0.03468(12) -0.37513(7)
O4_2 O 0.6675(10) 0.0215(9) 0.7511(4)
loop_
_geom_bond_atom_site_label_1
_geom_bond_atom_site_label_2
_geom_bond_site_symmetry_1
_geom_bond_site_symmetry_2
Zn1 O1 1_555 1_555
S1 C2 1_555 1_555
S2 C3 1_555 1_555
S3 C4 1_555 1_555
O1 C1 1_555 1_555
O2 C1 1_555 1_555
O3 C6 1_555 1_555
O4 C6 1_555 1_555
O5 Zn1 1_555 1_555
H1 O5 1_555 1_555
H2 O5 1_555 1_555
O6 Zn1 1_555 1_555
H3 O6 1_555 1_555
H4 O6 1_555 1_555
O7 Zn1 1_555 1_555
H5 O7 1_555 1_555
H6 O7 1_555 1_555
O8 Zn1 1_555 1_555
H7 O8 1_555 1_555
H8 O8 1_555 1_555
N1 N2 1_555 1_555
N2 C4 1_555 1_555
C1 C2 1_555 1_555
C2 H9 1_555 1_555
H10 C2 1_555 1_555
C3 S1 1_555 1_555
C4 S2 1_555 1_555
C5 S3 1_555 1_555
H11 C5 1_555 1_555
H12 C5 1_555 1_555
C6 C5 1_555 1_555
Zn1_2 O4 1_555 1_555
O4_2 Zn1 1_555 1_555
N1 C3 1_555 1_555

#END
