
#######################################################################
#
#                 Cambridge Crystallographic Data Centre
#                                CCDC 
#
#######################################################################
#
# If this CIF has been generated from an entry in the Cambridge 
# Structural Database, then it will include bibliographic, chemical, 
# crystal, experimental, refinement or atomic coordinate data resulting 
# from the CCDC's data processing and validation procedures.
#
#######################################################################

data_BIZVEM
_symmetry_cell_setting           monoclinic
_symmetry_space_group_name_H-M   'C 2/c'
_symmetry_Int_Tables_number      15
_space_group_name_Hall           '-C 2yn'
loop_
_symmetry_equiv_pos_site_id
_symmetry_equiv_pos_as_xyz
1 x,y,z
2 1/2+x,1/2+y,z
3 -x,y,1/2-z
4 1/2-x,1/2+y,1/2-z
5 -x,-y,-z
6 1/2-x,1/2-y,-z
7 x,-y,1/2+z
8 1/2+x,1/2-y,1/2+z
_cell_length_a                   19.696(8)
_cell_length_b                   7.1340(18)
_cell_length_c                   14.932(6)
_cell_angle_alpha                90
_cell_angle_beta                 114.39(2)
_cell_angle_gamma                90
_cell_volume                     1910.87
loop_
_atom_site_label
_atom_site_type_symbol
_atom_site_fract_x
_atom_site_fract_y
_atom_site_fract_z
Zn1 Zn 1.0000 -0.31787(9) 0.2500
Zn2 Zn 1.0000 -1.0000 0.5000
C1 C 0.9761(2) -0.6497(5) 0.3649(3)
C2 C 0.8990(2) -0.6830(6) 0.2905(3)
C3 C 0.8527(2) -0.5269(6) 0.2629(3)
H1 H 0.8693 -0.4141 0.2959
C4 C 0.7821(3) -0.5370(6) 0.1866(4)
H2 H 0.7514 -0.4319 0.1693
C5 C 0.7577(3) -0.7022(7) 0.1370(4)
H3 H 0.7104 -0.7090 0.0858
C6 C 0.8032(3) -0.8593(6) 0.1630(3)
H4 H 0.7864 -0.9701 0.1279
C7 C 0.8733(2) -0.8541(6) 0.2405(3)
C8 C 0.9165(2) -1.0327(5) 0.2671(3)
N1 N 1.0151(2) -0.7427(5) 0.4466(2)
N2 N 1.0788(2) -0.6467(5) 0.4939(3)
N3 N 1.0792(2) -0.5001(5) 0.4424(3)
N4 N 1.01491(19) -0.4982(4) 0.3598(2)
O1 O 0.91662(17) -1.1326(4) 0.1958(2)
O2 O 0.94994(17) -1.0846(4) 0.3536(2)
O3 O 0.89412(16) -0.9010(4) 0.4984(2)
H5 H 0.8913 -0.9319 0.5497
H6 H 0.8872 -0.7939 0.5035
Zn1_2 Zn 1.0000 -1.31787(9) 0.2500
Zn2F Zn 1.0000 -1.0000 0.0000
C1B C 1.0239(2) -0.6497(5) 0.1351(3)
C2B C 1.1010(2) -0.6830(6) 0.2095(3)
C3B C 1.1473(2) -0.5269(6) 0.2371(3)
H1B H 1.1307 -0.4141 0.2041
C4B C 1.2179(3) -0.5370(6) 0.3134(4)
H2B H 1.2486 -0.4319 0.3307
C5B C 1.2423(3) -0.7022(7) 0.3630(4)
H3B H 1.2896 -0.7090 0.4142
C6B C 1.1968(3) -0.8593(6) 0.3370(3)
H4B H 1.2136 -0.9701 0.3721
C7B C 1.1267(2) -0.8541(6) 0.2595(3)
C8B C 1.0835(2) -1.0327(5) 0.2329(3)
N1D N 0.9849(2) -1.2573(5) 0.5534(2)
N1B N 0.9849(2) -0.7427(5) 0.0534(2)
N2B N 0.9212(2) -0.6467(5) 0.0061(3)
N3B N 0.9208(2) -0.5001(5) 0.0576(3)
N4B N 0.98509(19) -0.4982(4) 0.1402(2)
O1_2 O 0.91662(17) -0.1326(4) 0.1958(2)
O1B O 1.08338(17) -1.1326(4) 0.3042(2)
O1B_2 O 1.08338(17) -0.1326(4) 0.3042(2)
O2D O 1.05006(17) -0.9154(4) 0.6464(2)
O2B O 1.05006(17) -1.0846(4) 0.1464(2)
O3D O 1.10588(16) -1.0990(4) 0.5016(2)
H5D H 1.1087 -1.0681 0.4503
H6D H 1.1128 -1.2061 0.4965
loop_
_geom_bond_atom_site_label_1
_geom_bond_atom_site_label_2
_geom_bond_site_symmetry_1
_geom_bond_site_symmetry_2
Zn1 N4 1_555 1_555
Zn2 N1 1_555 1_555
C1 C2 1_555 1_555
C2 C3 1_555 1_555
C3 H1 1_555 1_555
C4 C3 1_555 1_555
H2 C4 1_555 1_555
C5 C4 1_555 1_555
H3 C5 1_555 1_555
C6 C5 1_555 1_555
H4 C6 1_555 1_555
C7 C2 1_555 1_555
C8 C7 1_555 1_555
N1 C1 1_555 1_555
N2 N1 1_555 1_555
N3 N2 1_555 1_555
N4 C1 1_555 1_555
O1 C8 1_555 1_555
O2 Zn2 1_555 1_555
O3 Zn2 1_555 1_555
H5 O3 1_555 1_555
H6 O3 1_555 1_555
Zn1_2 O1 1_555 1_555
Zn2F N1B 1_555 1_555
C1B C2B 1_555 1_555
C2B C3B 1_555 1_555
C3B H1B 1_555 1_555
C4B C3B 1_555 1_555
H2B C4B 1_555 1_555
C5B C4B 1_555 1_555
H3B C5B 1_555 1_555
C6B C5B 1_555 1_555
H4B C6B 1_555 1_555
C7B C2B 1_555 1_555
C8B C7B 1_555 1_555
N1D Zn2 1_555 1_555
N1B C1B 1_555 1_555
N2B N1B 1_555 1_555
N3B N2B 1_555 1_555
N4B Zn1 1_555 1_555
O1_2 Zn1 1_555 1_555
O1B Zn1_2 1_555 1_555
O1B_2 Zn1 1_555 1_555
O2D Zn2 1_555 1_555
O2B Zn2F 1_555 1_555
O3D Zn2 1_555 1_555
H5D O3D 1_555 1_555
H6D O3D 1_555 1_555
C6 C7 1_555 1_555
C8 O2 1_555 1_555
N3 N4 1_555 1_555
C1B N4B 1_555 1_555
C6B C7B 1_555 1_555
C8B O1B 1_555 1_555
C8B O2B 1_555 1_555
N3B N4B 1_555 1_555

#END
