
#######################################################################
#
#                 Cambridge Crystallographic Data Centre
#                                CCDC 
#
#######################################################################
#
# If this CIF has been generated from an entry in the Cambridge 
# Structural Database, then it will include bibliographic, chemical, 
# crystal, experimental, refinement or atomic coordinate data resulting 
# from the CCDC's data processing and validation procedures.
#
#######################################################################

data_BIZVIQ
_symmetry_cell_setting           orthorhombic
_symmetry_space_group_name_H-M   'P b c a'
_symmetry_Int_Tables_number      61
_space_group_name_Hall           '-P 2ac 2ab'
loop_
_symmetry_equiv_pos_site_id
_symmetry_equiv_pos_as_xyz
1 x,y,z
2 1/2-x,-y,1/2+z
3 -x,1/2+y,1/2-z
4 1/2+x,1/2-y,-z
5 -x,-y,-z
6 1/2+x,y,1/2-z
7 x,1/2-y,1/2+z
8 1/2-x,1/2+y,z
_cell_length_a                   5.9616(12)
_cell_length_b                   14.935(3)
_cell_length_c                   22.142(4)
_cell_angle_alpha                90
_cell_angle_beta                 90
_cell_angle_gamma                90
_cell_volume                     1971.45
loop_
_atom_site_label
_atom_site_type_symbol
_atom_site_fract_x
_atom_site_fract_y
_atom_site_fract_z
Hg1 Hg 0.04378(5) 0.284473(18) 0.188615(12)
Cl1 Cl 0.0758(3) 0.43434(12) 0.15855(8)
Cl2 Cl 0.0860(3) 0.26914(14) 0.30526(7)
S1 S 0.1319(3) 0.13004(11) 0.15897(7)
C1 C 0.0764(12) 0.1286(5) 0.0799(3)
C2 C -0.1212(14) 0.1616(5) 0.0562(3)
H1 H -0.2335 0.1856 0.0820
C3 C -0.1532(14) 0.1592(5) -0.0055(3)
H2 H -0.2899 0.1802 -0.0223
C4 C 0.0143(15) 0.1260(6) -0.0432(4)
H3 H -0.0072 0.1256 -0.0857
C5 C 0.2088(15) 0.0941(5) -0.0191(3)
H4 H 0.3216 0.0711 -0.0451
C6 C 0.2443(13) 0.0948(4) 0.0425(3)
H5 H 0.3804 0.0728 0.0591
C7 C -0.0891(15) 0.0613(6) 0.1887(3)
H6 H -0.2345 0.0881 0.1787
H7 H -0.0737 0.0570 0.2327
H8 H -0.0796 0.0013 0.1709
Hg1E Hg 0.54378(5) 0.284473(18) 0.311385(12)
Cl2E Cl -0.4140(3) 0.26914(14) 0.19474(7)
loop_
_geom_bond_atom_site_label_1
_geom_bond_atom_site_label_2
_geom_bond_site_symmetry_1
_geom_bond_site_symmetry_2
Hg1 Cl1 1_555 1_555
Cl2 Hg1 1_555 1_555
S1 Hg1 1_555 1_555
C1 S1 1_555 1_555
C2 C1 1_555 1_555
H1 C2 1_555 1_555
C3 C2 1_555 1_555
H2 C3 1_555 1_555
C4 C3 1_555 1_555
H3 C4 1_555 1_555
C5 C4 1_555 1_555
H4 C5 1_555 1_555
C6 C1 1_555 1_555
H5 C6 1_555 1_555
C7 S1 1_555 1_555
H6 C7 1_555 1_555
H7 C7 1_555 1_555
H8 C7 1_555 1_555
Hg1E Cl2 1_555 1_555
Cl2E Hg1 1_555 1_555
C5 C6 1_555 1_555

#END
