
#######################################################################
#
#                 Cambridge Crystallographic Data Centre
#                                CCDC 
#
#######################################################################
#
# If this CIF has been generated from an entry in the Cambridge 
# Structural Database, then it will include bibliographic, chemical, 
# crystal, experimental, refinement or atomic coordinate data resulting 
# from the CCDC's data processing and validation procedures.
#
#######################################################################

data_BIZVOW
_symmetry_cell_setting           monoclinic
_symmetry_space_group_name_H-M   'P 2/n'
_symmetry_Int_Tables_number      13
_space_group_name_Hall           '-P 2yac'
loop_
_symmetry_equiv_pos_site_id
_symmetry_equiv_pos_as_xyz
1 x,y,z
2 1/2-x,y,1/2-z
3 -x,-y,-z
4 1/2+x,-y,1/2+z
_cell_length_a                   15.698(3)
_cell_length_b                   6.7028(13)
_cell_length_c                   21.428(4)
_cell_angle_alpha                90
_cell_angle_beta                 102.45(3)
_cell_angle_gamma                90
_cell_volume                     2201.65
loop_
_atom_site_label
_atom_site_type_symbol
_atom_site_fract_x
_atom_site_fract_y
_atom_site_fract_z
C1 C -0.2232(4) 0.0149(8) 0.1740(2)
H1 H -0.2657 -0.0638 0.1861
C2 C -0.1358(3) -0.0462(8) 0.1917(3)
H2 H -0.1206 -0.1597 0.2166
C3 C -0.0734(4) 0.0645(8) 0.1717(3)
H3 H -0.0152 0.0255 0.1819
C4 C -0.0985(3) 0.2375(7) 0.1356(2)
C5 C -0.1855(3) 0.2937(7) 0.1223(2)
C6 C -0.0339(3) 0.3643(8) 0.1135(2)
C7 C -0.0599(4) 0.5492(8) 0.0840(2)
C8 C -0.1533(4) 0.6054(7) 0.0703(2)
C9 C -0.2141(3) 0.4772(7) 0.0878(2)
C10 C -0.3272(4) 0.6892(8) 0.0431(3)
H4 H -0.3866 0.7174 0.0328
C11 C -0.1835(4) 0.7825(8) 0.0393(3)
H5 H -0.1441 0.8716 0.0279
C12 C -0.2688(4) 0.8258(8) 0.0259(3)
H6 H -0.2888 0.9446 0.0055
C13 C 0.0803(4) 0.6155(10) 0.0777(3)
C14 C 0.1439(5) 0.7468(10) 0.0625(3)
H7 H 0.1280 0.8737 0.0466
C15 C 0.2290(5) 0.6847(13) 0.0715(3)
H8 H 0.2708 0.7707 0.0618
C16 C 0.2537(4) 0.4954(12) 0.0950(3)
H9 H 0.3116 0.4562 0.0998
C17 C 0.1943(4) 0.3640(12) 0.1113(3)
H10 H 0.2119 0.2383 0.1275
C18 C 0.1052(4) 0.4256(9) 0.1028(3)
C19 C -1.0216(3) -0.4399(7) 0.3397(3)
C20 C -0.9599(3) -0.3172(7) 0.3096(2)
C21 C -0.9935(3) 0.0024(7) 0.3645(2)
C22 C -0.9394(3) -0.1208(7) 0.3274(2)
C23 C -0.8716(3) -0.0235(7) 0.3067(2)
H11 H -0.8585 0.1084 0.3183
C24 C -0.8230(3) -0.1245(7) 0.2682(2)
C25 C -0.8484(3) -0.3156(7) 0.2475(2)
H12 H -0.8201 -0.3808 0.2195
C26 C -0.9164(3) -0.4114(7) 0.2685(2)
H13 H -0.9324 -0.5402 0.2546
C27 C -0.7500 -0.0130(11) 0.2500
N1 N -0.2482(3) 0.1804(6) 0.1405(2)
N2 N -0.3005(3) 0.5206(6) 0.0737(2)
N3 N -0.0054(3) 0.6766(7) 0.0669(2)
N4 N 0.0483(3) 0.2994(7) 0.1226(2)
O1 O -1.0763(2) -0.5496(5) 0.30568(18)
O2 O -1.0089(2) -0.4395(5) 0.40004(17)
O3 O -0.4199(3) 0.2021(6) -0.00419(19)
H14 H -0.437(4) 0.287(6) -0.033(2)
H15 H -0.447(3) 0.096(5) -0.016(3)
O4 O -0.4264(2) -0.0182(6) 0.1491(2)
O5 O -0.7500 0.1681(8) 0.2500
O7 O -0.5460(3) 0.1233(6) 0.0948(2)
Cd1 Cd -0.39415(2) 0.27952(5) 0.103910(18)
C1A C -1.2768(4) 0.0149(8) 0.3260(2)
H1A H -1.2343 -0.0638 0.3139
C2A C -1.3642(3) -0.0462(8) 0.3083(3)
H2A H -1.3794 -0.1597 0.2834
C3A C -1.4266(4) 0.0645(8) 0.3283(3)
H3A H -1.4848 0.0255 0.3181
C4A C -1.4015(3) 0.2375(7) 0.3644(2)
C5A C -1.3145(3) 0.2937(7) 0.3777(2)
C6A C -1.4661(3) 0.3643(8) 0.3865(2)
C7A C -1.4401(4) 0.5492(8) 0.4160(2)
C8A C -1.3467(4) 0.6054(7) 0.4297(2)
C9A C -1.2859(3) 0.4772(7) 0.4122(2)
C10A C -1.1728(4) 0.6892(8) 0.4569(3)
H4A H -1.1134 0.7174 0.4672
C11A C -1.3165(4) 0.7825(8) 0.4607(3)
H5A H -1.3559 0.8716 0.4721
C12A C -1.2312(4) 0.8258(8) 0.4741(3)
H6A H -1.2112 0.9446 0.4945
C13A C -1.5803(4) 0.6155(10) 0.4223(3)
C14A C -1.6439(5) 0.7468(10) 0.4375(3)
H7A H -1.6280 0.8737 0.4534
C15A C -1.7290(5) 0.6847(13) 0.4285(3)
H8A H -1.7708 0.7707 0.4382
C16A C -1.7537(4) 0.4954(12) 0.4050(3)
H9A H -1.8116 0.4562 0.4002
C17A C -1.6943(4) 0.3640(12) 0.3887(3)
H10A H -1.7119 0.2383 0.3725
C18A C -1.6052(4) 0.4256(9) 0.3972(3)
C19A C -0.4784(3) -0.4399(7) 0.1603(3)
C20A C -0.5401(3) -0.3172(7) 0.1904(2)
C21A C -0.5065(3) 0.0024(7) 0.1355(2)
C22A C -0.5606(3) -0.1208(7) 0.1726(2)
C23A C -0.6284(3) -0.0235(7) 0.1933(2)
H11A H -0.6415 0.1084 0.1817
C24A C -0.6770(3) -0.1245(7) 0.2318(2)
C25A C -0.6516(3) -0.3156(7) 0.2525(2)
H12A H -0.6799 -0.3808 0.2805
C26A C -0.5836(3) -0.4114(7) 0.2315(2)
H13A H -0.5676 -0.5402 0.2454
N1A N -1.2518(3) 0.1804(6) 0.3595(2)
N2A N -1.1995(3) 0.5206(6) 0.4263(2)
N3A N -1.4946(3) 0.6766(7) 0.4331(2)
N4A N -1.5483(3) 0.2994(7) 0.3774(2)
O1_2 O -1.0763(2) 0.4504(5) 0.30568(18)
O1A O -0.4237(2) 0.4504(5) 0.19432(18)
O1A_2 O -0.4237(2) -0.5496(5) 0.19432(18)
O2_2 O -1.0089(2) 0.5605(5) 0.40004(17)
O2A O -0.4911(2) 0.5605(5) 0.09996(17)
O2A_2 O -0.4911(2) -0.4395(5) 0.09996(17)
O3A O -1.0801(3) 0.2021(6) 0.50419(19)
H14A H -1.063(4) 0.287(6) 0.533(2)
H15A H -1.053(3) 0.096(5) 0.516(3)
O4A O -1.0736(2) -0.0182(6) 0.3509(2)
O7A O -0.9540(3) 0.1233(6) 0.4052(2)
Cd1A Cd -1.10585(2) 0.27952(5) 0.396090(18)
Cd1A_2 Cd -1.10585(2) -0.72048(5) 0.396090(18)
Cd1_2 Cd -0.39415(2) -0.72048(5) 0.103910(18)
O6 O -0.2500 -0.3982(12) 0.2500
H16 H -0.292(7) -0.479(19) 0.240(8)
H16A H -0.208(7) -0.479(19) 0.260(8)
H17? H -0.236(14) -0.40(2) 0.2906(11)
loop_
_geom_bond_atom_site_label_1
_geom_bond_atom_site_label_2
_geom_bond_site_symmetry_1
_geom_bond_site_symmetry_2
C1 H1 1_555 1_555
C2 C1 1_555 1_555
H2 C2 1_555 1_555
C3 C2 1_555 1_555
H3 C3 1_555 1_555
C4 C3 1_555 1_555
C5 C4 1_555 1_555
C6 C4 1_555 1_555
C7 C6 1_555 1_555
C8 C7 1_555 1_555
C9 C5 1_555 1_555
C10 H4 1_555 1_555
C11 C8 1_555 1_555
H5 C11 1_555 1_555
C12 C10 1_555 1_555
H6 C12 1_555 1_555
C13 C14 1_555 1_555
C14 H7 1_555 1_555
C15 C14 1_555 1_555
H8 C15 1_555 1_555
C16 C15 1_555 1_555
H9 C16 1_555 1_555
C17 C16 1_555 1_555
H10 C17 1_555 1_555
C18 C13 1_555 1_555
C19 C20 1_555 1_555
C20 C22 1_555 1_555
C21 C22 1_555 1_555
C22 C23 1_555 1_555
C23 H11 1_555 1_555
C24 C23 1_555 1_555
C25 C24 1_555 1_555
H12 C25 1_555 1_555
C26 C20 1_555 1_555
H13 C26 1_555 1_555
C27 C24 1_555 1_555
N1 C1 1_555 1_555
N2 C9 1_555 1_555
N3 C7 1_555 1_555
N4 C6 1_555 1_555
O1 C19 1_555 1_555
O2 C19 1_555 1_555
O3 H14 1_555 1_555
H15 O3 1_555 1_555
O4 Cd1 1_555 1_555
O5 C27 1_555 1_555
O6 H16 1_555 1_555
O7 Cd1 1_555 1_555
Cd1 N1 1_555 1_555
C1A H1A 1_555 1_555
C2A C1A 1_555 1_555
H2A C2A 1_555 1_555
C3A C2A 1_555 1_555
H3A C3A 1_555 1_555
C4A C3A 1_555 1_555
C5A C4A 1_555 1_555
C6A C4A 1_555 1_555
C7A C6A 1_555 1_555
C8A C7A 1_555 1_555
C9A C5A 1_555 1_555
C10A H4A 1_555 1_555
C11A C8A 1_555 1_555
H5A C11A 1_555 1_555
C12A C10A 1_555 1_555
H6A C12A 1_555 1_555
C13A C14A 1_555 1_555
C14A H7A 1_555 1_555
C15A C14A 1_555 1_555
H8A C15A 1_555 1_555
C16A C15A 1_555 1_555
H9A C16A 1_555 1_555
C17A C16A 1_555 1_555
H10A C17A 1_555 1_555
C18A C13A 1_555 1_555
C19A C20A 1_555 1_555
C20A C22A 1_555 1_555
C21A O4 1_555 1_555
C22A C21A 1_555 1_555
C23A C22A 1_555 1_555
H11A C23A 1_555 1_555
C24A C27 1_555 1_555
C25A C24A 1_555 1_555
H12A C25A 1_555 1_555
C26A C20A 1_555 1_555
H13A C26A 1_555 1_555
N1A C1A 1_555 1_555
N2A C9A 1_555 1_555
N3A C7A 1_555 1_555
N4A C6A 1_555 1_555
O1_2 Cd1A 1_555 1_555
O1A Cd1 1_555 1_555
O1A_2 C19A 1_555 1_555
O2_2 Cd1A 1_555 1_555
O2A Cd1 1_555 1_555
O2A_2 C19A 1_555 1_555
O3A H14A 1_555 1_555
H15A O3A 1_555 1_555
O4A C21 1_555 1_555
H16A O6 1_555 1_555
O7A C21 1_555 1_555
Cd1A N1A 1_555 1_555
Cd1A_2 O1 1_555 1_555
Cd1_2 O1A_2 1_555 1_555
C5 N1 1_555 1_555
C8 C9 1_555 1_555
C10 N2 1_555 1_555
C11 C12 1_555 1_555
C13 N3 1_555 1_555
C17 C18 1_555 1_555
C18 N4 1_555 1_555
C25 C26 1_555 1_555
N2 Cd1 1_555 1_555
O2 Cd1A_2 1_555 1_555
O3 Cd1 1_555 1_555
O7 C21A 1_555 1_555
C5A N1A 1_555 1_555
C8A C9A 1_555 1_555
C10A N2A 1_555 1_555
C11A C12A 1_555 1_555
C13A N3A 1_555 1_555
C17A C18A 1_555 1_555
C18A N4A 1_555 1_555
C23A C24A 1_555 1_555
C25A C26A 1_555 1_555
N2A Cd1A 1_555 1_555
O2A_2 Cd1_2 1_555 1_555
O3A Cd1A 1_555 1_555
O4A Cd1A 1_555 1_555
O7A Cd1A 1_555 1_555

#END
