
#######################################################################
#
#                 Cambridge Crystallographic Data Centre
#                                CCDC 
#
#######################################################################
#
# If this CIF has been generated from an entry in the Cambridge 
# Structural Database, then it will include bibliographic, chemical, 
# crystal, experimental, refinement or atomic coordinate data resulting 
# from the CCDC's data processing and validation procedures.
#
#######################################################################

data_BMPYCV
_symmetry_cell_setting           monoclinic
_symmetry_space_group_name_H-M   'P 21/a'
_symmetry_Int_Tables_number      14
_space_group_name_Hall           '-P 2yab'
loop_
_symmetry_equiv_pos_site_id
_symmetry_equiv_pos_as_xyz
1 x,y,z
2 1/2-x,1/2+y,-z
3 -x,-y,-z
4 1/2+x,1/2-y,z
_cell_length_a                   13.900(2)
_cell_length_b                   14.416(2)
_cell_length_c                   4.097(1)
_cell_angle_alpha                90
_cell_angle_beta                 93.49(2)
_cell_angle_gamma                90
_cell_volume                     819.444
loop_
_atom_site_label
_atom_site_type_symbol
_atom_site_fract_x
_atom_site_fract_y
_atom_site_fract_z
Cu1 Cu 0.00000 0.00000 0.00000
Br1 Br -0.10160 0.09490 -0.37800
N1 N 0.10170 0.10000 0.02680
C1 C 0.19240 0.08290 -0.07250
C2 C 0.26070 0.15150 -0.05350
C3 C 0.36060 0.13270 -0.16280
C4 C 0.23830 0.23730 0.06470
C5 C 0.14760 0.25440 0.16390
C6 C 0.12290 0.34890 0.29410
C7 C 0.07930 0.18580 0.14500
Br1_2 Br -0.10160 0.09490 0.62200
Br1B Br 0.10160 -0.09490 0.37800
Br1B_2 Br 0.10160 -0.09490 -0.62200
N1B N -0.10170 -0.10000 -0.02680
Cu1_2 Cu 0.00000 0.00000 -1.00000
Cu1_3 Cu 0.00000 0.00000 1.00000
C1B C -0.19240 -0.08290 0.07250
C7B C -0.07930 -0.18580 -0.14500
C2B C -0.26070 -0.15150 0.05350
C5B C -0.14760 -0.25440 -0.16390
C3B C -0.36060 -0.13270 0.16280
C4B C -0.23830 -0.23730 -0.06470
C6B C -0.12290 -0.34890 -0.29410
loop_
_geom_bond_atom_site_label_1
_geom_bond_atom_site_label_2
_geom_bond_site_symmetry_1
_geom_bond_site_symmetry_2
Cu1 Br1 1_555 1_555
Br1 Cu1_2 1_555 1_555
N1 Cu1 1_555 1_555
C1 N1 1_555 1_555
C2 C1 1_555 1_555
C3 C2 1_555 1_555
C4 C2 1_555 1_555
C5 C4 1_555 1_555
C6 C5 1_555 1_555
C7 N1 1_555 1_555
Br1_2 Cu1 1_555 1_555
Br1B Cu1 1_555 1_555
Br1B_2 Cu1 1_555 1_555
N1B Cu1 1_555 1_555
Cu1_3 Br1B 1_555 1_555
C1B N1B 1_555 1_555
C7B N1B 1_555 1_555
C2B C1B 1_555 1_555
C5B C7B 1_555 1_555
C3B C2B 1_555 1_555
C4B C2B 1_555 1_555
C6B C5B 1_555 1_555
C5 C7 1_555 1_555
C5B C4B 1_555 1_555

#END
