
#######################################################################
#
#                 Cambridge Crystallographic Data Centre
#                                CCDC 
#
#######################################################################
#
# If this CIF has been generated from an entry in the Cambridge 
# Structural Database, then it will include bibliographic, chemical, 
# crystal, experimental, refinement or atomic coordinate data resulting 
# from the CCDC's data processing and validation procedures.
#
#######################################################################

data_BOBBUQ
_symmetry_cell_setting           cubic
_symmetry_space_group_name_H-M   'I m -3 m'
_symmetry_Int_Tables_number      229
_space_group_name_Hall           '-I 4 2 3'
loop_
_symmetry_equiv_pos_site_id
_symmetry_equiv_pos_as_xyz
1 x,y,z
2 z,x,y
3 y,z,x
4 y,x,-z
5 y,-x,z
6 -y,x,z
7 x,z,-y
8 -x,z,y
9 x,-z,y
10 z,y,-x
11 z,-y,x
12 -z,y,x
13 1/2+x,1/2+y,1/2+z
14 1/2+z,1/2+x,1/2+y
15 1/2+y,1/2+z,1/2+x
16 1/2+y,1/2+x,1/2-z
17 1/2+y,1/2-x,1/2+z
18 1/2-y,1/2+x,1/2+z
19 1/2+x,1/2+z,1/2-y
20 1/2-x,1/2+z,1/2+y
21 1/2+x,1/2-z,1/2+y
22 1/2+z,1/2+y,1/2-x
23 1/2+z,1/2-y,1/2+x
24 1/2-z,1/2+y,1/2+x
25 -x,-y,z
26 -x,y,-z
27 x,-y,-z
28 z,-x,-y
29 -z,-x,y
30 -z,x,-y
31 -y,z,-x
32 y,-z,-x
33 -y,-z,x
34 -y,-x,-z
35 -x,-z,-y
36 -z,-y,-x
37 1/2-x,1/2-y,1/2+z
38 1/2-x,1/2+y,1/2-z
39 1/2+x,1/2-y,1/2-z
40 1/2+z,1/2-x,1/2-y
41 1/2-z,1/2-x,1/2+y
42 1/2-z,1/2+x,1/2-y
43 1/2-y,1/2+z,1/2-x
44 1/2+y,1/2-z,1/2-x
45 1/2-y,1/2-z,1/2+x
46 1/2-y,1/2-x,1/2-z
47 1/2-x,1/2-z,1/2-y
48 1/2-z,1/2-y,1/2-x
49 -x,-y,-z
50 -z,-x,-y
51 -y,-z,-x
52 -y,-x,z
53 -y,x,-z
54 y,-x,-z
55 -x,-z,y
56 x,-z,-y
57 -x,z,-y
58 -z,-y,x
59 -z,y,-x
60 z,-y,-x
61 1/2-x,1/2-y,1/2-z
62 1/2-z,1/2-x,1/2-y
63 1/2-y,1/2-z,1/2-x
64 1/2-y,1/2-x,1/2+z
65 1/2-y,1/2+x,1/2-z
66 1/2+y,1/2-x,1/2-z
67 1/2-x,1/2-z,1/2+y
68 1/2+x,1/2-z,1/2-y
69 1/2-x,1/2+z,1/2-y
70 1/2-z,1/2-y,1/2+x
71 1/2-z,1/2+y,1/2-x
72 1/2+z,1/2-y,1/2-x
73 x,y,-z
74 x,-y,z
75 -x,y,z
76 -z,x,y
77 z,x,-y
78 z,-x,y
79 y,-z,x
80 -y,z,x
81 y,z,-x
82 y,x,z
83 x,z,y
84 z,y,x
85 1/2+x,1/2+y,1/2-z
86 1/2+x,1/2-y,1/2+z
87 1/2-x,1/2+y,1/2+z
88 1/2-z,1/2+x,1/2+y
89 1/2+z,1/2+x,1/2-y
90 1/2+z,1/2-x,1/2+y
91 1/2+y,1/2-z,1/2+x
92 1/2-y,1/2+z,1/2+x
93 1/2+y,1/2+z,1/2-x
94 1/2+y,1/2+x,1/2+z
95 1/2+x,1/2+z,1/2+y
96 1/2+z,1/2+y,1/2+x
_cell_length_a                   29.1071(12)
_cell_length_b                   29.1071(12)
_cell_length_c                   29.1071(12)
_cell_angle_alpha                90
_cell_angle_beta                 90
_cell_angle_gamma                90
_cell_volume                     24660.2
loop_
_atom_site_label
_atom_site_type_symbol
_atom_site_fract_x
_atom_site_fract_y
_atom_site_fract_z
Mn1 Mn 0.5000 0.0000 0.09438(4)
Mn2 Mn 0.4035(12) 0.0000 0.1575(12)
Cl1 Cl 0.5000 0.0000 0.0000
O1 O 0.5000 0.0000 0.1675(3)
N1 N 0.44886(9) 0.05617(10) 0.08856(10)
N2 N 0.41874(10) 0.06691(10) 0.12099(11)
N3 N 0.23662(14) 0.17929(17) 0.23662(14)
N4 N 0.4542(6) 0.0344(6) 0.2292(6)
C1 C 0.40045(17) 0.10668(14) 0.10668(14)
C2 C 0.36479(19) 0.13172(15) 0.13172(15)
C3 C 0.34727(15) 0.11493(16) 0.17230(15)
H1 H 0.3596 0.0875 0.1850
C4 C 0.31236(16) 0.13718(17) 0.19465(16)
H2 H 0.3007 0.1250 0.2226
C5 C 0.2940(2) 0.17705(17) 0.17705(17)
C6 C 0.2539(2) 0.19899(16) 0.19899(16)
C7 C 0.4592(6) 0.0000 0.1920(6)
C8 C 0.4791(5) 0.0792(5) 0.2399(6)
Mn1H Mn 0.5000 -0.09438(4) 0.0000
Mn1F Mn 0.5000 0.09438(4) 0.0000
Mn1TB Mn 0.5000 0.0000 -0.09438(4)
Mn1O Mn 0.5000 0.0000 0.40562(4)
Mn1A Mn 0.09438(4) 0.5000 0.0000
Mn1D Mn 0.0000 0.5000 0.09438(4)
Mn1B Mn 0.0000 0.09438(4) 0.5000
Mn1I Mn 0.09438(4) 0.0000 0.5000
Mn1A_2 Mn 0.09438(4) -0.5000 0.0000
Mn1D_2 Mn 0.0000 -0.5000 0.09438(4)
Mn1ZB Mn 0.0000 -0.09438(4) 0.5000
Mn1WB Mn 0.90562(4) 0.5000 0.0000
Mn1D_3 Mn 1.0000 0.5000 0.09438(4)
Mn1B_2 Mn 1.0000 0.09438(4) 0.5000
Mn1K Mn 0.90562(4) 0.0000 0.5000
Mn1WB_2 Mn 0.90562(4) -0.5000 0.0000
Mn1D_4 Mn 1.0000 -0.5000 0.09438(4)
Mn1ZB_2 Mn 1.0000 -0.09438(4) 0.5000
Mn2F Mn 0.4035(12) 0.1575(12) 0.0000
Mn2A Mn 0.1575(12) 0.4035(12) 0.0000
Mn2E Mn 0.0000 0.4035(12) 0.1575(12)
Mn2B Mn 0.0000 0.1575(12) 0.4035(12)
Mn2J Mn 0.1575(12) 0.0000 0.4035(12)
Mn2H Mn 0.4035(12) -0.1575(12) 0.0000
Mn2YB Mn 0.1575(12) -0.4035(12) 0.0000
Mn2D Mn 0.0000 -0.4035(12) 0.1575(12)
Mn2ZB Mn 0.0000 -0.1575(12) 0.4035(12)
Mn2VB Mn 0.5965(12) 0.0000 0.1575(12)
Mn2G Mn 0.5965(12) 0.1575(12) 0.0000
Mn2WB Mn 0.8425(12) 0.4035(12) 0.0000
Mn2E_2 Mn 1.0000 0.4035(12) 0.1575(12)
Mn2B_2 Mn 1.0000 0.1575(12) 0.4035(12)
Mn2K Mn 0.8425(12) 0.0000 0.4035(12)
Mn2BB Mn 0.5965(12) -0.1575(12) 0.0000
Mn2WA Mn 0.8425(12) -0.4035(12) 0.0000
Mn2D_2 Mn 1.0000 -0.4035(12) 0.1575(12)
Mn2ZB_2 Mn 1.0000 -0.1575(12) 0.4035(12)
Mn2MB Mn 0.5000 0.0965(12) 0.3425(12)
Mn2O Mn 0.5000 -0.0965(12) 0.3425(12)
Cl1M Cl 0.5000 0.0000 0.5000
Cl1A Cl 0.0000 0.5000 0.0000
Cl1B Cl 0.0000 0.0000 0.5000
O1O O 0.5000 0.0000 0.3325(3)
O1H O 0.5000 -0.1675(3) 0.0000
O1N O 0.5000 -0.3325(3) 0.0000
O1F O 0.5000 0.1675(3) 0.0000
O1LC O 0.5000 0.3325(3) 0.0000
O1TB O 0.5000 0.0000 -0.1675(3)
O1P O 0.5000 0.0000 -0.3325(3)
O1A O 0.1675(3) 0.5000 0.0000
O1W O 0.3325(3) 0.5000 0.0000
O1D O 0.0000 0.5000 0.1675(3)
O1FC O 0.0000 0.5000 0.3325(3)
O1B O 0.0000 0.1675(3) 0.5000
N1DC N 0.44886(9) 0.08856(10) 0.05617(10)
N1A N 0.08856(10) 0.44886(9) 0.05617(10)
N1CC N 0.05617(10) 0.44886(9) 0.08856(10)
N1B N 0.05617(10) 0.08856(10) 0.44886(9)
N1EC N 0.08856(10) 0.05617(10) 0.44886(9)
N1UB N 0.44886(9) -0.05617(10) 0.08856(10)
N1H N 0.44886(9) -0.08856(10) 0.05617(10)
N1YB N 0.08856(10) -0.44886(9) 0.05617(10)
N1D N 0.05617(10) -0.44886(9) 0.08856(10)
N1ZB N 0.05617(10) -0.08856(10) 0.44886(9)
N1J N 0.08856(10) -0.05617(10) 0.44886(9)
N1VB N 0.55114(9) 0.05617(10) 0.08856(10)
N1G N 0.55114(9) 0.08856(10) 0.05617(10)
N1WB N 0.91144(10) 0.44886(9) 0.05617(10)
N1E N 0.94383(10) 0.44886(9) 0.08856(10)
N1AC N 0.94383(10) 0.08856(10) 0.44886(9)
N1K N 0.91144(10) 0.05617(10) 0.44886(9)
N1X N 0.55114(9) -0.05617(10) 0.08856(10)
N1BB N 0.55114(9) -0.08856(10) 0.05617(10)
N1BA N 0.91144(10) -0.44886(9) 0.05617(10)
N1YA N 0.94383(10) -0.44886(9) 0.08856(10)
N1FA N 0.94383(10) -0.08856(10) 0.44886(9)
N1EB N 0.91144(10) -0.05617(10) 0.44886(9)
N1CB N 0.44886(9) -0.08856(10) -0.05617(10)
N1Z N 0.44886(9) -0.05617(10) -0.08856(10)
N1GB N 0.08856(10) -0.05617(10) -0.44886(9)
N1EA N 0.05617(10) -0.08856(10) -0.44886(9)
N1AB N 0.05617(10) -0.44886(9) -0.08856(10)
N1AA N 0.08856(10) -0.44886(9) -0.05617(10)
N1HA N 0.55114(9) -0.08856(10) -0.05617(10)
N1VA N 0.55114(9) -0.05617(10) -0.08856(10)
N1IA N 0.91144(10) -0.05617(10) -0.44886(9)
N1XA N 0.94383(10) -0.08856(10) -0.44886(9)
N1GA N 0.94383(10) -0.44886(9) -0.08856(10)
N1WA N 0.91144(10) -0.44886(9) -0.05617(10)
N1DB N 0.55114(9) 0.08856(10) -0.05617(10)
N1Y N 0.55114(9) 0.05617(10) -0.08856(10)
N1FB N 0.91144(10) 0.05617(10) -0.44886(9)
N1DA N 0.94383(10) 0.08856(10) -0.44886(9)
N1ZA N 0.94383(10) 0.44886(9) -0.08856(10)
N1CA N 0.91144(10) 0.44886(9) -0.05617(10)
N1F N 0.44886(9) 0.08856(10) -0.05617(10)
N1TB N 0.44886(9) 0.05617(10) -0.08856(10)
N1I N 0.08856(10) 0.05617(10) -0.44886(9)
N1BC N 0.05617(10) 0.08856(10) -0.44886(9)
N1C N 0.05617(10) 0.44886(9) -0.08856(10)
N1XB N 0.08856(10) 0.44886(9) -0.05617(10)
N1SA N 0.44383(10) 0.05114(9) 0.41144(10)
N1IB N 0.41144(10) 0.05114(9) 0.44383(10)
N1TA N 0.05114(9) 0.41144(10) 0.44383(10)
N1HB N 0.05114(9) 0.44383(10) 0.41144(10)
N1UA N 0.41144(10) 0.44383(10) 0.05114(9)
N1JB N 0.44383(10) 0.41144(10) 0.05114(9)
N1MB N 0.55617(10) 0.05114(9) 0.41144(10)
N1MA N 0.58856(10) 0.05114(9) 0.44383(10)
N1OB N 0.94886(9) 0.41144(10) 0.44383(10)
N1LA N 0.94886(9) 0.44383(10) 0.41144(10)
N1SB N 0.58856(10) 0.44383(10) 0.05114(9)
N1QA N 0.55617(10) 0.41144(10) 0.05114(9)
N1LB N 0.44383(10) -0.05114(9) 0.41144(10)
N1OA N 0.41144(10) -0.05114(9) 0.44383(10)
N1PB N 0.05114(9) -0.41144(10) 0.44383(10)
N1KA N 0.05114(9) -0.44383(10) 0.41144(10)
N1RB N 0.41144(10) -0.44383(10) 0.05114(9)
N1PA N 0.44383(10) -0.41144(10) 0.05114(9)
N1O N 0.55617(10) -0.05114(9) 0.41144(10)
N1JC N 0.58856(10) -0.05114(9) 0.44383(10)
N1R N 0.94886(9) -0.41144(10) 0.44383(10)
N1FC N 0.94886(9) -0.44383(10) 0.41144(10)
N1U N 0.58856(10) -0.44383(10) 0.05114(9)
N1NC N 0.55617(10) -0.41144(10) 0.05114(9)
N1YB_2 N 0.08856(10) 0.55114(9) 0.05617(10)
N1D_2 N 0.05617(10) 0.55114(9) 0.08856(10)
N1ZB_2 N 0.05617(10) 0.91144(10) 0.44886(9)
N1J_2 N 0.08856(10) 0.94383(10) 0.44886(9)
N1UB_2 N 0.44886(9) 0.94383(10) 0.08856(10)
N1H_2 N 0.44886(9) 0.91144(10) 0.05617(10)
N1AA_2 N 0.08856(10) 0.55114(9) -0.05617(10)
N1AB_2 N 0.05617(10) 0.55114(9) -0.08856(10)
N1EA_2 N 0.05617(10) 0.91144(10) -0.44886(9)
N1GB_2 N 0.08856(10) 0.94383(10) -0.44886(9)
N1Z_2 N 0.44886(9) 0.94383(10) -0.08856(10)
N1CB_2 N 0.44886(9) 0.91144(10) -0.05617(10)
N1E_2 N -0.05617(10) 0.44886(9) 0.08856(10)
N1WB_2 N -0.08856(10) 0.44886(9) 0.05617(10)
N1G_2 N -0.44886(9) 0.08856(10) 0.05617(10)
N1VB_2 N -0.44886(9) 0.05617(10) 0.08856(10)
N1K_2 N -0.08856(10) 0.05617(10) 0.44886(9)
N1AC_2 N -0.05617(10) 0.08856(10) 0.44886(9)
N1YA_2 N -0.05617(10) 0.55114(9) 0.08856(10)
N1BA_2 N -0.08856(10) 0.55114(9) 0.05617(10)
N1BB_2 N -0.44886(9) 0.91144(10) 0.05617(10)
N1X_2 N -0.44886(9) 0.94383(10) 0.08856(10)
N1EB_2 N -0.08856(10) 0.94383(10) 0.44886(9)
N1FA_2 N -0.05617(10) 0.91144(10) 0.44886(9)
N2DC N 0.41874(10) 0.12099(11) 0.06691(10)
N2A N 0.12099(11) 0.41874(10) 0.06691(10)
N2CC N 0.06691(10) 0.41874(10) 0.12099(11)
N2B N 0.06691(10) 0.12099(11) 0.41874(10)
N2EC N 0.12099(11) 0.06691(10) 0.41874(10)
N2UB N 0.41874(10) -0.06691(10) 0.12099(11)
N2H N 0.41874(10) -0.12099(11) 0.06691(10)
N2YB N 0.12099(11) -0.41874(10) 0.06691(10)
N2D N 0.06691(10) -0.41874(10) 0.12099(11)
N2ZB N 0.06691(10) -0.12099(11) 0.41874(10)
N2J N 0.12099(11) -0.06691(10) 0.41874(10)
N2VB N 0.58126(10) 0.06691(10) 0.12099(11)
N2G N 0.58126(10) 0.12099(11) 0.06691(10)
N2WB N 0.87901(11) 0.41874(10) 0.06691(10)
N2E N 0.93309(10) 0.41874(10) 0.12099(11)
N2AC N 0.93309(10) 0.12099(11) 0.41874(10)
N2K N 0.87901(11) 0.06691(10) 0.41874(10)
N2X N 0.58126(10) -0.06691(10) 0.12099(11)
N2BB N 0.58126(10) -0.12099(11) 0.06691(10)
N2BA N 0.87901(11) -0.41874(10) 0.06691(10)
N2YA N 0.93309(10) -0.41874(10) 0.12099(11)
N2FA N 0.93309(10) -0.12099(11) 0.41874(10)
N2EB N 0.87901(11) -0.06691(10) 0.41874(10)
N2CB N 0.41874(10) -0.12099(11) -0.06691(10)
N2Z N 0.41874(10) -0.06691(10) -0.12099(11)
N2GB N 0.12099(11) -0.06691(10) -0.41874(10)
N2EA N 0.06691(10) -0.12099(11) -0.41874(10)
N2AB N 0.06691(10) -0.41874(10) -0.12099(11)
N2AA N 0.12099(11) -0.41874(10) -0.06691(10)
N2HA N 0.58126(10) -0.12099(11) -0.06691(10)
N2VA N 0.58126(10) -0.06691(10) -0.12099(11)
N2IA N 0.87901(11) -0.06691(10) -0.41874(10)
N2XA N 0.93309(10) -0.12099(11) -0.41874(10)
N2GA N 0.93309(10) -0.41874(10) -0.12099(11)
N2WA N 0.87901(11) -0.41874(10) -0.06691(10)
N2DB N 0.58126(10) 0.12099(11) -0.06691(10)
N2Y N 0.58126(10) 0.06691(10) -0.12099(11)
N2FB N 0.87901(11) 0.06691(10) -0.41874(10)
N2DA N 0.93309(10) 0.12099(11) -0.41874(10)
N2ZA N 0.93309(10) 0.41874(10) -0.12099(11)
N2CA N 0.87901(11) 0.41874(10) -0.06691(10)
N2F N 0.41874(10) 0.12099(11) -0.06691(10)
N2TB N 0.41874(10) 0.06691(10) -0.12099(11)
N2I N 0.12099(11) 0.06691(10) -0.41874(10)
N2BC N 0.06691(10) 0.12099(11) -0.41874(10)
N2C N 0.06691(10) 0.41874(10) -0.12099(11)
N2XB N 0.12099(11) 0.41874(10) -0.06691(10)
N2SA N 0.43309(10) 0.08126(10) 0.37901(11)
N2IB N 0.37901(11) 0.08126(10) 0.43309(10)
N2TA N 0.08126(10) 0.37901(11) 0.43309(10)
N2HB N 0.08126(10) 0.43309(10) 0.37901(11)
N2UA N 0.37901(11) 0.43309(10) 0.08126(10)
N2JB N 0.43309(10) 0.37901(11) 0.08126(10)
N2MB N 0.56691(10) 0.08126(10) 0.37901(11)
N2MA N 0.62099(11) 0.08126(10) 0.43309(10)
N2OB N 0.91874(10) 0.37901(11) 0.43309(10)
N2LA N 0.91874(10) 0.43309(10) 0.37901(11)
N2SB N 0.62099(11) 0.43309(10) 0.08126(10)
N2QA N 0.56691(10) 0.37901(11) 0.08126(10)
N2LB N 0.43309(10) -0.08126(10) 0.37901(11)
N2OA N 0.37901(11) -0.08126(10) 0.43309(10)
N2PB N 0.08126(10) -0.37901(11) 0.43309(10)
N2KA N 0.08126(10) -0.43309(10) 0.37901(11)
N2RB N 0.37901(11) -0.43309(10) 0.08126(10)
N2PA N 0.43309(10) -0.37901(11) 0.08126(10)
N2O N 0.56691(10) -0.08126(10) 0.37901(11)
N2JC N 0.62099(11) -0.08126(10) 0.43309(10)
N2R N 0.91874(10) -0.37901(11) 0.43309(10)
N2FC N 0.91874(10) -0.43309(10) 0.37901(11)
N2U N 0.62099(11) -0.43309(10) 0.08126(10)
N2NC N 0.56691(10) -0.37901(11) 0.08126(10)
N2YB_2 N 0.12099(11) 0.58126(10) 0.06691(10)
N2D_2 N 0.06691(10) 0.58126(10) 0.12099(11)
N2ZB_2 N 0.06691(10) 0.87901(11) 0.41874(10)
N2J_2 N 0.12099(11) 0.93309(10) 0.41874(10)
N2UB_2 N 0.41874(10) 0.93309(10) 0.12099(11)
N2H_2 N 0.41874(10) 0.87901(11) 0.06691(10)
N2AA_2 N 0.12099(11) 0.58126(10) -0.06691(10)
N2AB_2 N 0.06691(10) 0.58126(10) -0.12099(11)
N2EA_2 N 0.06691(10) 0.87901(11) -0.41874(10)
N2GB_2 N 0.12099(11) 0.93309(10) -0.41874(10)
N2Z_2 N 0.41874(10) 0.93309(10) -0.12099(11)
N2CB_2 N 0.41874(10) 0.87901(11) -0.06691(10)
N2E_2 N -0.06691(10) 0.41874(10) 0.12099(11)
N2WB_2 N -0.12099(11) 0.41874(10) 0.06691(10)
N2G_2 N -0.41874(10) 0.12099(11) 0.06691(10)
N2VB_2 N -0.41874(10) 0.06691(10) 0.12099(11)
N2K_2 N -0.12099(11) 0.06691(10) 0.41874(10)
N2AC_2 N -0.06691(10) 0.12099(11) 0.41874(10)
N2YA_2 N -0.06691(10) 0.58126(10) 0.12099(11)
N2BA_2 N -0.12099(11) 0.58126(10) 0.06691(10)
N2BB_2 N -0.41874(10) 0.87901(11) 0.06691(10)
N2X_2 N -0.41874(10) 0.93309(10) 0.12099(11)
N2EB_2 N -0.12099(11) 0.93309(10) 0.41874(10)
N2FA_2 N -0.06691(10) 0.87901(11) 0.41874(10)
N3B N 0.17929(17) 0.23662(14) 0.23662(14)
N3A N 0.23662(14) 0.23662(14) 0.17929(17)
N3J N 0.23662(14) -0.17929(17) 0.23662(14)
N3D N 0.17929(17) -0.23662(14) 0.23662(14)
N3H N 0.23662(14) -0.23662(14) 0.17929(17)
N3K N 0.76338(14) 0.17929(17) 0.23662(14)
N3E N 0.82071(17) 0.23662(14) 0.23662(14)
N3G N 0.76338(14) 0.23662(14) 0.17929(17)
N3EB N 0.76338(14) -0.17929(17) 0.23662(14)
N3YA N 0.82071(17) -0.23662(14) 0.23662(14)
N3BB N 0.76338(14) -0.23662(14) 0.17929(17)
N3CB N 0.23662(14) -0.23662(14) -0.17929(17)
N3AB N 0.17929(17) -0.23662(14) -0.23662(14)
N3GB N 0.23662(14) -0.17929(17) -0.23662(14)
N3WA N 0.76338(14) -0.23662(14) -0.17929(17)
N3XA N 0.82071(17) -0.23662(14) -0.23662(14)
N3VA N 0.76338(14) -0.17929(17) -0.23662(14)
N3DB N 0.76338(14) 0.23662(14) -0.17929(17)
N3ZA N 0.82071(17) 0.23662(14) -0.23662(14)
N3FB N 0.76338(14) 0.17929(17) -0.23662(14)
N3F N 0.23662(14) 0.23662(14) -0.17929(17)
N3C N 0.17929(17) 0.23662(14) -0.23662(14)
N3I N 0.23662(14) 0.17929(17) -0.23662(14)
N3JB N 0.32071(17) 0.26338(14) 0.26338(14)
N3HB N 0.26338(14) 0.32071(17) 0.26338(14)
N3IB N 0.26338(14) 0.26338(14) 0.32071(17)
N3MB N 0.67929(17) 0.26338(14) 0.26338(14)
N3SB N 0.73662(14) 0.32071(17) 0.26338(14)
N3OB N 0.73662(14) 0.26338(14) 0.32071(17)
N3LB N 0.32071(17) -0.26338(14) 0.26338(14)
N3RB N 0.26338(14) -0.32071(17) 0.26338(14)
N3PB N 0.26338(14) -0.26338(14) 0.32071(17)
N3O N 0.67929(17) -0.26338(14) 0.26338(14)
N3U N 0.73662(14) -0.32071(17) 0.26338(14)
N3R N 0.73662(14) -0.26338(14) 0.32071(17)
N3H_2 N 0.23662(14) 0.76338(14) 0.17929(17)
N3J_2 N 0.23662(14) 0.82071(17) 0.23662(14)
N3D_2 N 0.17929(17) 0.76338(14) 0.23662(14)
N3CB_2 N 0.23662(14) 0.76338(14) -0.17929(17)
N3GB_2 N 0.23662(14) 0.82071(17) -0.23662(14)
N3AB_2 N 0.17929(17) 0.76338(14) -0.23662(14)
N3E_2 N -0.17929(17) 0.23662(14) 0.23662(14)
N3K_2 N -0.23662(14) 0.17929(17) 0.23662(14)
N3G_2 N -0.23662(14) 0.23662(14) 0.17929(17)
N3YA_2 N -0.17929(17) 0.76338(14) 0.23662(14)
N3EB_2 N -0.23662(14) 0.82071(17) 0.23662(14)
N3BB_2 N -0.23662(14) 0.76338(14) 0.17929(17)
N4SA N 0.4656(6) 0.0458(6) 0.2708(6)
N4LB N 0.4656(6) -0.0458(6) 0.2708(6)
N4UB N 0.4542(6) -0.0344(6) 0.2292(6)
N4VB N 0.5458(6) 0.0344(6) 0.2292(6)
N4MB N 0.5344(6) 0.0458(6) 0.2708(6)
N4X N 0.5458(6) -0.0344(6) 0.2292(6)
N4O N 0.5344(6) -0.0458(6) 0.2708(6)
N4H N 0.4542(6) -0.2292(6) 0.0344(6)
N4PA N 0.4656(6) -0.2708(6) 0.0458(6)
N4MC N 0.4656(6) -0.2708(6) -0.0458(6)
N4CB N 0.4542(6) -0.2292(6) -0.0344(6)
N4BB N 0.5458(6) -0.2292(6) 0.0344(6)
N4NC N 0.5344(6) -0.2708(6) 0.0458(6)
N4HA N 0.5458(6) -0.2292(6) -0.0344(6)
N4N N 0.5344(6) -0.2708(6) -0.0458(6)
N4G N 0.5458(6) 0.2292(6) 0.0344(6)
N4QA N 0.5344(6) 0.2708(6) 0.0458(6)
N4LC N 0.5344(6) 0.2708(6) -0.0458(6)
N4DB N 0.5458(6) 0.2292(6) -0.0344(6)
N4DC N 0.4542(6) 0.2292(6) 0.0344(6)
N4JB N 0.4656(6) 0.2708(6) 0.0458(6)
N4F N 0.4542(6) 0.2292(6) -0.0344(6)
N4RA N 0.4656(6) 0.2708(6) -0.0458(6)
N4TB N 0.4542(6) 0.0344(6) -0.2292(6)
N4KB N 0.4656(6) 0.0458(6) -0.2708(6)
N4Q N 0.4656(6) -0.0458(6) -0.2708(6)
N4Z N 0.4542(6) -0.0344(6) -0.2292(6)
N4Y N 0.5458(6) 0.0344(6) -0.2292(6)
N4P N 0.5344(6) 0.0458(6) -0.2708(6)
N4VA N 0.5458(6) -0.0344(6) -0.2292(6)
N4OC N 0.5344(6) -0.0458(6) -0.2708(6)
N4A N 0.2292(6) 0.4542(6) 0.0344(6)
N4UA N 0.2708(6) 0.4656(6) 0.0458(6)
N4QB N 0.2708(6) 0.4656(6) -0.0458(6)
N4XB N 0.2292(6) 0.4542(6) -0.0344(6)
N4YB N 0.2292(6) 0.5458(6) 0.0344(6)
N4RB N 0.2708(6) 0.5344(6) 0.0458(6)
N4AA N 0.2292(6) 0.5458(6) -0.0344(6)
N4W N 0.2708(6) 0.5344(6) -0.0458(6)
N4CC N 0.0344(6) 0.4542(6) 0.2292(6)
N4HB N 0.0458(6) 0.4656(6) 0.2708(6)
N4LA N -0.0458(6) 0.4656(6) 0.2708(6)
N4E N -0.0344(6) 0.4542(6) 0.2292(6)
N4D N 0.0344(6) 0.5458(6) 0.2292(6)
N4KA N 0.0458(6) 0.5344(6) 0.2708(6)
N4YA N -0.0344(6) 0.5458(6) 0.2292(6)
N4FC N -0.0458(6) 0.5344(6) 0.2708(6)
N4B N 0.0344(6) 0.2292(6) 0.4542(6)
N4TA N 0.0458(6) 0.2708(6) 0.4656(6)
C1A C 0.10668(14) 0.40045(17) 0.10668(14)
C1B C 0.10668(14) 0.10668(14) 0.40045(17)
C1H C 0.40045(17) -0.10668(14) 0.10668(14)
C1D C 0.10668(14) -0.40045(17) 0.10668(14)
C1J C 0.10668(14) -0.10668(14) 0.40045(17)
C1G C 0.59955(17) 0.10668(14) 0.10668(14)
C1E C 0.89332(14) 0.40045(17) 0.10668(14)
C1K C 0.89332(14) 0.10668(14) 0.40045(17)
C1BB C 0.59955(17) -0.10668(14) 0.10668(14)
C1YA C 0.89332(14) -0.40045(17) 0.10668(14)
C1EB C 0.89332(14) -0.10668(14) 0.40045(17)
C1CB C 0.40045(17) -0.10668(14) -0.10668(14)
C1GB C 0.10668(14) -0.10668(14) -0.40045(17)
C1AB C 0.10668(14) -0.40045(17) -0.10668(14)
C1VA C 0.59955(17) -0.10668(14) -0.10668(14)
C1XA C 0.89332(14) -0.10668(14) -0.40045(17)
C1WA C 0.89332(14) -0.40045(17) -0.10668(14)
C1DB C 0.59955(17) 0.10668(14) -0.10668(14)
C1FB C 0.89332(14) 0.10668(14) -0.40045(17)
C1ZA C 0.89332(14) 0.40045(17) -0.10668(14)
C1F C 0.40045(17) 0.10668(14) -0.10668(14)
C1I C 0.10668(14) 0.10668(14) -0.40045(17)
C1C C 0.10668(14) 0.40045(17) -0.10668(14)
C1IB C 0.39332(14) 0.09955(17) 0.39332(14)
C1HB C 0.09955(17) 0.39332(14) 0.39332(14)
C1JB C 0.39332(14) 0.39332(14) 0.09955(17)
C1MB C 0.60668(14) 0.09955(17) 0.39332(14)
C1OB C 0.90045(17) 0.39332(14) 0.39332(14)
C1SB C 0.60668(14) 0.39332(14) 0.09955(17)
C1LB C 0.39332(14) -0.09955(17) 0.39332(14)
C1PB C 0.09955(17) -0.39332(14) 0.39332(14)
C1RB C 0.39332(14) -0.39332(14) 0.09955(17)
C1O C 0.60668(14) -0.09955(17) 0.39332(14)
C1R C 0.90045(17) -0.39332(14) 0.39332(14)
C1U C 0.60668(14) -0.39332(14) 0.09955(17)
C1D_2 C 0.10668(14) 0.59955(17) 0.10668(14)
C1J_2 C 0.10668(14) 0.89332(14) 0.40045(17)
C1H_2 C 0.40045(17) 0.89332(14) 0.10668(14)
C1AB_2 C 0.10668(14) 0.59955(17) -0.10668(14)
C1GB_2 C 0.10668(14) 0.89332(14) -0.40045(17)
C1CB_2 C 0.40045(17) 0.89332(14) -0.10668(14)
C1E_2 C -0.10668(14) 0.40045(17) 0.10668(14)
C1G_2 C -0.40045(17) 0.10668(14) 0.10668(14)
C1K_2 C -0.10668(14) 0.10668(14) 0.40045(17)
C1YA_2 C -0.10668(14) 0.59955(17) 0.10668(14)
C1BB_2 C -0.40045(17) 0.89332(14) 0.10668(14)
C1EB_2 C -0.10668(14) 0.89332(14) 0.40045(17)
C2A C 0.13172(15) 0.36479(19) 0.13172(15)
C2B C 0.13172(15) 0.13172(15) 0.36479(19)
C2H C 0.36479(19) -0.13172(15) 0.13172(15)
C2D C 0.13172(15) -0.36479(19) 0.13172(15)
C2J C 0.13172(15) -0.13172(15) 0.36479(19)
C2G C 0.63521(19) 0.13172(15) 0.13172(15)
C2E C 0.86828(15) 0.36479(19) 0.13172(15)
C2K C 0.86828(15) 0.13172(15) 0.36479(19)
C2BB C 0.63521(19) -0.13172(15) 0.13172(15)
C2YA C 0.86828(15) -0.36479(19) 0.13172(15)
C2EB C 0.86828(15) -0.13172(15) 0.36479(19)
C2CB C 0.36479(19) -0.13172(15) -0.13172(15)
C2GB C 0.13172(15) -0.13172(15) -0.36479(19)
C2AB C 0.13172(15) -0.36479(19) -0.13172(15)
C2VA C 0.63521(19) -0.13172(15) -0.13172(15)
C2XA C 0.86828(15) -0.13172(15) -0.36479(19)
C2WA C 0.86828(15) -0.36479(19) -0.13172(15)
C2DB C 0.63521(19) 0.13172(15) -0.13172(15)
C2FB C 0.86828(15) 0.13172(15) -0.36479(19)
C2ZA C 0.86828(15) 0.36479(19) -0.13172(15)
C2F C 0.36479(19) 0.13172(15) -0.13172(15)
C2I C 0.13172(15) 0.13172(15) -0.36479(19)
C2C C 0.13172(15) 0.36479(19) -0.13172(15)
C2IB C 0.36828(15) 0.13521(19) 0.36828(15)
C2HB C 0.13521(19) 0.36828(15) 0.36828(15)
C2JB C 0.36828(15) 0.36828(15) 0.13521(19)
C2MB C 0.63172(15) 0.13521(19) 0.36828(15)
C2OB C 0.86479(19) 0.36828(15) 0.36828(15)
C2SB C 0.63172(15) 0.36828(15) 0.13521(19)
C2LB C 0.36828(15) -0.13521(19) 0.36828(15)
C2PB C 0.13521(19) -0.36828(15) 0.36828(15)
C2RB C 0.36828(15) -0.36828(15) 0.13521(19)
C2O C 0.63172(15) -0.13521(19) 0.36828(15)
C2R C 0.86479(19) -0.36828(15) 0.36828(15)
C2U C 0.63172(15) -0.36828(15) 0.13521(19)
C2D_2 C 0.13172(15) 0.63521(19) 0.13172(15)
C2J_2 C 0.13172(15) 0.86828(15) 0.36479(19)
C2H_2 C 0.36479(19) 0.86828(15) 0.13172(15)
C2AB_2 C 0.13172(15) 0.63521(19) -0.13172(15)
C2GB_2 C 0.13172(15) 0.86828(15) -0.36479(19)
C2CB_2 C 0.36479(19) 0.86828(15) -0.13172(15)
C2E_2 C -0.13172(15) 0.36479(19) 0.13172(15)
C2G_2 C -0.36479(19) 0.13172(15) 0.13172(15)
C2K_2 C -0.13172(15) 0.13172(15) 0.36479(19)
C2YA_2 C -0.13172(15) 0.63521(19) 0.13172(15)
C2BB_2 C -0.36479(19) 0.86828(15) 0.13172(15)
C2EB_2 C -0.13172(15) 0.86828(15) 0.36479(19)
C3DC C 0.34727(15) 0.17230(15) 0.11493(16)
C3A C 0.17230(15) 0.34727(15) 0.11493(16)
C3CC C 0.11493(16) 0.34727(15) 0.17230(15)
C3B C 0.11493(16) 0.17230(15) 0.34727(15)
C3EC C 0.17230(15) 0.11493(16) 0.34727(15)
C3UB C 0.34727(15) -0.11493(16) 0.17230(15)
C3H C 0.34727(15) -0.17230(15) 0.11493(16)
C3YB C 0.17230(15) -0.34727(15) 0.11493(16)
C3D C 0.11493(16) -0.34727(15) 0.17230(15)
C3ZB C 0.11493(16) -0.17230(15) 0.34727(15)
C3J C 0.17230(15) -0.11493(16) 0.34727(15)
C3VB C 0.65273(15) 0.11493(16) 0.17230(15)
C3G C 0.65273(15) 0.17230(15) 0.11493(16)
C3WB C 0.82770(15) 0.34727(15) 0.11493(16)
C3E C 0.88507(16) 0.34727(15) 0.17230(15)
C3AC C 0.88507(16) 0.17230(15) 0.34727(15)
C3K C 0.82770(15) 0.11493(16) 0.34727(15)
C3X C 0.65273(15) -0.11493(16) 0.17230(15)
C3BB C 0.65273(15) -0.17230(15) 0.11493(16)
C3BA C 0.82770(15) -0.34727(15) 0.11493(16)
C3YA C 0.88507(16) -0.34727(15) 0.17230(15)
C3FA C 0.88507(16) -0.17230(15) 0.34727(15)
C3EB C 0.82770(15) -0.11493(16) 0.34727(15)
C3CB C 0.34727(15) -0.17230(15) -0.11493(16)
C3Z C 0.34727(15) -0.11493(16) -0.17230(15)
C3GB C 0.17230(15) -0.11493(16) -0.34727(15)
C3EA C 0.11493(16) -0.17230(15) -0.34727(15)
C3AB C 0.11493(16) -0.34727(15) -0.17230(15)
C3AA C 0.17230(15) -0.34727(15) -0.11493(16)
C3HA C 0.65273(15) -0.17230(15) -0.11493(16)
C3VA C 0.65273(15) -0.11493(16) -0.17230(15)
C3IA C 0.82770(15) -0.11493(16) -0.34727(15)
C3XA C 0.88507(16) -0.17230(15) -0.34727(15)
C3GA C 0.88507(16) -0.34727(15) -0.17230(15)
C3WA C 0.82770(15) -0.34727(15) -0.11493(16)
C3DB C 0.65273(15) 0.17230(15) -0.11493(16)
C3Y C 0.65273(15) 0.11493(16) -0.17230(15)
C3FB C 0.82770(15) 0.11493(16) -0.34727(15)
C3DA C 0.88507(16) 0.17230(15) -0.34727(15)
C3ZA C 0.88507(16) 0.34727(15) -0.17230(15)
C3CA C 0.82770(15) 0.34727(15) -0.11493(16)
C3F C 0.34727(15) 0.17230(15) -0.11493(16)
C3TB C 0.34727(15) 0.11493(16) -0.17230(15)
C3I C 0.17230(15) 0.11493(16) -0.34727(15)
C3BC C 0.11493(16) 0.17230(15) -0.34727(15)
C3C C 0.11493(16) 0.34727(15) -0.17230(15)
C3XB C 0.17230(15) 0.34727(15) -0.11493(16)
C3SA C 0.38507(16) 0.15273(15) 0.32770(15)
C3IB C 0.32770(15) 0.15273(15) 0.38507(16)
C3TA C 0.15273(15) 0.32770(15) 0.38507(16)
C3HB C 0.15273(15) 0.38507(16) 0.32770(15)
C3UA C 0.32770(15) 0.38507(16) 0.15273(15)
C3JB C 0.38507(16) 0.32770(15) 0.15273(15)
C3MB C 0.61493(16) 0.15273(15) 0.32770(15)
C3MA C 0.67230(15) 0.15273(15) 0.38507(16)
C3OB C 0.84727(15) 0.32770(15) 0.38507(16)
C3LA C 0.84727(15) 0.38507(16) 0.32770(15)
C3SB C 0.67230(15) 0.38507(16) 0.15273(15)
C3QA C 0.61493(16) 0.32770(15) 0.15273(15)
C3LB C 0.38507(16) -0.15273(15) 0.32770(15)
C3OA C 0.32770(15) -0.15273(15) 0.38507(16)
C3PB C 0.15273(15) -0.32770(15) 0.38507(16)
C3KA C 0.15273(15) -0.38507(16) 0.32770(15)
C3RB C 0.32770(15) -0.38507(16) 0.15273(15)
C3PA C 0.38507(16) -0.32770(15) 0.15273(15)
C3O C 0.61493(16) -0.15273(15) 0.32770(15)
C3JC C 0.67230(15) -0.15273(15) 0.38507(16)
C3R C 0.84727(15) -0.32770(15) 0.38507(16)
C3FC C 0.84727(15) -0.38507(16) 0.32770(15)
C3U C 0.67230(15) -0.38507(16) 0.15273(15)
C3NC C 0.61493(16) -0.32770(15) 0.15273(15)
C3YB_2 C 0.17230(15) 0.65273(15) 0.11493(16)
C3D_2 C 0.11493(16) 0.65273(15) 0.17230(15)
C3ZB_2 C 0.11493(16) 0.82770(15) 0.34727(15)
C3J_2 C 0.17230(15) 0.88507(16) 0.34727(15)
C3UB_2 C 0.34727(15) 0.88507(16) 0.17230(15)
C3H_2 C 0.34727(15) 0.82770(15) 0.11493(16)
C3AA_2 C 0.17230(15) 0.65273(15) -0.11493(16)
C3AB_2 C 0.11493(16) 0.65273(15) -0.17230(15)
C3EA_2 C 0.11493(16) 0.82770(15) -0.34727(15)
C3GB_2 C 0.17230(15) 0.88507(16) -0.34727(15)
C3Z_2 C 0.34727(15) 0.88507(16) -0.17230(15)
C3CB_2 C 0.34727(15) 0.82770(15) -0.11493(16)
C3E_2 C -0.11493(16) 0.34727(15) 0.17230(15)
C3WB_2 C -0.17230(15) 0.34727(15) 0.11493(16)
C3G_2 C -0.34727(15) 0.17230(15) 0.11493(16)
C3VB_2 C -0.34727(15) 0.11493(16) 0.17230(15)
C3K_2 C -0.17230(15) 0.11493(16) 0.34727(15)
C3AC_2 C -0.11493(16) 0.17230(15) 0.34727(15)
C3YA_2 C -0.11493(16) 0.65273(15) 0.17230(15)
C3BA_2 C -0.17230(15) 0.65273(15) 0.11493(16)
C3BB_2 C -0.34727(15) 0.82770(15) 0.11493(16)
C3X_2 C -0.34727(15) 0.88507(16) 0.17230(15)
C3EB_2 C -0.17230(15) 0.88507(16) 0.34727(15)
C3FA_2 C -0.11493(16) 0.82770(15) 0.34727(15)
H1CC H 0.0875 0.3596 0.1850
H1A H 0.1850 0.3596 0.0875
H1EC H 0.1850 0.0875 0.3596
H1B H 0.0875 0.1850 0.3596
H1DC H 0.3596 0.1850 0.0875
H1UB H 0.3596 -0.0875 0.1850
H1D H 0.0875 -0.3596 0.1850
H1YB H 0.1850 -0.3596 0.0875
H1J H 0.1850 -0.0875 0.3596
H1ZB H 0.0875 -0.1850 0.3596
H1H H 0.3596 -0.1850 0.0875
H1VB H 0.6404 0.0875 0.1850
H1E H 0.9125 0.3596 0.1850
H1WB H 0.8150 0.3596 0.0875
H1K H 0.8150 0.0875 0.3596
H1AC H 0.9125 0.1850 0.3596
H1G H 0.6404 0.1850 0.0875
H1X H 0.6404 -0.0875 0.1850
H1YA H 0.9125 -0.3596 0.1850
H1BA H 0.8150 -0.3596 0.0875
H1EB H 0.8150 -0.0875 0.3596
H1FA H 0.9125 -0.1850 0.3596
H1BB H 0.6404 -0.1850 0.0875
H1CB H 0.3596 -0.1850 -0.0875
H1EA H 0.0875 -0.1850 -0.3596
H1GB H 0.1850 -0.0875 -0.3596
H1AA H 0.1850 -0.3596 -0.0875
H1AB H 0.0875 -0.3596 -0.1850
H1Z H 0.3596 -0.0875 -0.1850
H1HA H 0.6404 -0.1850 -0.0875
H1XA H 0.9125 -0.1850 -0.3596
H1IA H 0.8150 -0.0875 -0.3596
H1WA H 0.8150 -0.3596 -0.0875
H1GA H 0.9125 -0.3596 -0.1850
H1VA H 0.6404 -0.0875 -0.1850
H1DB H 0.6404 0.1850 -0.0875
H1DA H 0.9125 0.1850 -0.3596
H1FB H 0.8150 0.0875 -0.3596
H1CA H 0.8150 0.3596 -0.0875
H1ZA H 0.9125 0.3596 -0.1850
H1Y H 0.6404 0.0875 -0.1850
H1F H 0.3596 0.1850 -0.0875
H1BC H 0.0875 0.1850 -0.3596
H1I H 0.1850 0.0875 -0.3596
H1XB H 0.1850 0.3596 -0.0875
H1C H 0.0875 0.3596 -0.1850
H1TB H 0.3596 0.0875 -0.1850
H1SA H 0.4125 0.1404 0.3150
H1HB H 0.1404 0.4125 0.3150
H1TA H 0.1404 0.3150 0.4125
H1JB H 0.4125 0.3150 0.1404
H1UA H 0.3150 0.4125 0.1404
H1IB H 0.3150 0.1404 0.4125
H1MB H 0.5875 0.1404 0.3150
H1LA H 0.8596 0.4125 0.3150
H1OB H 0.8596 0.3150 0.4125
H1QA H 0.5875 0.3150 0.1404
H1SB H 0.6850 0.4125 0.1404
H1MA H 0.6850 0.1404 0.4125
H1LB H 0.4125 -0.1404 0.3150
H1KA H 0.1404 -0.4125 0.3150
H1PB H 0.1404 -0.3150 0.4125
H1PA H 0.4125 -0.3150 0.1404
H1RB H 0.3150 -0.4125 0.1404
H1OA H 0.3150 -0.1404 0.4125
H1O H 0.5875 -0.1404 0.3150
H1FC H 0.8596 -0.4125 0.3150
H1R H 0.8596 -0.3150 0.4125
H1NC H 0.5875 -0.3150 0.1404
H1U H 0.6850 -0.4125 0.1404
H1JC H 0.6850 -0.1404 0.4125
H1YB_2 H 0.1850 0.6404 0.0875
H1J_2 H 0.1850 0.9125 0.3596
H1ZB_2 H 0.0875 0.8150 0.3596
H1H_2 H 0.3596 0.8150 0.0875
H1UB_2 H 0.3596 0.9125 0.1850
H1D_2 H 0.0875 0.6404 0.1850
H1AA_2 H 0.1850 0.6404 -0.0875
H1GB_2 H 0.1850 0.9125 -0.3596
H1EA_2 H 0.0875 0.8150 -0.3596
H1CB_2 H 0.3596 0.8150 -0.0875
H1Z_2 H 0.3596 0.9125 -0.1850
H1AB_2 H 0.0875 0.6404 -0.1850
H1E_2 H -0.0875 0.3596 0.1850
H1VB_2 H -0.3596 0.0875 0.1850
H1G_2 H -0.3596 0.1850 0.0875
H1AC_2 H -0.0875 0.1850 0.3596
H1K_2 H -0.1850 0.0875 0.3596
H1WB_2 H -0.1850 0.3596 0.0875
H1YA_2 H -0.0875 0.6404 0.1850
H1X_2 H -0.3596 0.9125 0.1850
H1BB_2 H -0.3596 0.8150 0.0875
H1FA_2 H -0.0875 0.8150 0.3596
H1EB_2 H -0.1850 0.9125 0.3596
H1BA_2 H -0.1850 0.6404 0.0875
C4DC C 0.31236(16) 0.19465(16) 0.13718(17)
C4A C 0.19465(16) 0.31236(16) 0.13718(17)
C4CC C 0.13718(17) 0.31236(16) 0.19465(16)
C4B C 0.13718(17) 0.19465(16) 0.31236(16)
C4EC C 0.19465(16) 0.13718(17) 0.31236(16)
C4UB C 0.31236(16) -0.13718(17) 0.19465(16)
C4H C 0.31236(16) -0.19465(16) 0.13718(17)
C4YB C 0.19465(16) -0.31236(16) 0.13718(17)
C4D C 0.13718(17) -0.31236(16) 0.19465(16)
C4ZB C 0.13718(17) -0.19465(16) 0.31236(16)
C4J C 0.19465(16) -0.13718(17) 0.31236(16)
C4VB C 0.68764(16) 0.13718(17) 0.19465(16)
C4G C 0.68764(16) 0.19465(16) 0.13718(17)
C4WB C 0.80535(16) 0.31236(16) 0.13718(17)
C4E C 0.86282(17) 0.31236(16) 0.19465(16)
C4AC C 0.86282(17) 0.19465(16) 0.31236(16)
C4K C 0.80535(16) 0.13718(17) 0.31236(16)
C4X C 0.68764(16) -0.13718(17) 0.19465(16)
C4BB C 0.68764(16) -0.19465(16) 0.13718(17)
C4BA C 0.80535(16) -0.31236(16) 0.13718(17)
C4YA C 0.86282(17) -0.31236(16) 0.19465(16)
C4FA C 0.86282(17) -0.19465(16) 0.31236(16)
C4EB C 0.80535(16) -0.13718(17) 0.31236(16)
C4CB C 0.31236(16) -0.19465(16) -0.13718(17)
C4Z C 0.31236(16) -0.13718(17) -0.19465(16)
C4GB C 0.19465(16) -0.13718(17) -0.31236(16)
C4EA C 0.13718(17) -0.19465(16) -0.31236(16)
C4AB C 0.13718(17) -0.31236(16) -0.19465(16)
C4AA C 0.19465(16) -0.31236(16) -0.13718(17)
C4HA C 0.68764(16) -0.19465(16) -0.13718(17)
C4VA C 0.68764(16) -0.13718(17) -0.19465(16)
C4IA C 0.80535(16) -0.13718(17) -0.31236(16)
C4XA C 0.86282(17) -0.19465(16) -0.31236(16)
C4GA C 0.86282(17) -0.31236(16) -0.19465(16)
C4WA C 0.80535(16) -0.31236(16) -0.13718(17)
C4DB C 0.68764(16) 0.19465(16) -0.13718(17)
C4Y C 0.68764(16) 0.13718(17) -0.19465(16)
C4FB C 0.80535(16) 0.13718(17) -0.31236(16)
C4DA C 0.86282(17) 0.19465(16) -0.31236(16)
C4ZA C 0.86282(17) 0.31236(16) -0.19465(16)
C4CA C 0.80535(16) 0.31236(16) -0.13718(17)
C4F C 0.31236(16) 0.19465(16) -0.13718(17)
C4TB C 0.31236(16) 0.13718(17) -0.19465(16)
C4I C 0.19465(16) 0.13718(17) -0.31236(16)
C4BC C 0.13718(17) 0.19465(16) -0.31236(16)
C4C C 0.13718(17) 0.31236(16) -0.19465(16)
C4XB C 0.19465(16) 0.31236(16) -0.13718(17)
C4SA C 0.36282(17) 0.18764(16) 0.30535(16)
C4IB C 0.30535(16) 0.18764(16) 0.36282(17)
C4TA C 0.18764(16) 0.30535(16) 0.36282(17)
C4HB C 0.18764(16) 0.36282(17) 0.30535(16)
C4UA C 0.30535(16) 0.36282(17) 0.18764(16)
C4JB C 0.36282(17) 0.30535(16) 0.18764(16)
C4MB C 0.63718(17) 0.18764(16) 0.30535(16)
C4MA C 0.69465(16) 0.18764(16) 0.36282(17)
C4OB C 0.81236(16) 0.30535(16) 0.36282(17)
C4LA C 0.81236(16) 0.36282(17) 0.30535(16)
C4SB C 0.69465(16) 0.36282(17) 0.18764(16)
C4QA C 0.63718(17) 0.30535(16) 0.18764(16)
C4LB C 0.36282(17) -0.18764(16) 0.30535(16)
C4OA C 0.30535(16) -0.18764(16) 0.36282(17)
C4PB C 0.18764(16) -0.30535(16) 0.36282(17)
C4KA C 0.18764(16) -0.36282(17) 0.30535(16)
C4RB C 0.30535(16) -0.36282(17) 0.18764(16)
C4PA C 0.36282(17) -0.30535(16) 0.18764(16)
C4O C 0.63718(17) -0.18764(16) 0.30535(16)
C4JC C 0.69465(16) -0.18764(16) 0.36282(17)
C4R C 0.81236(16) -0.30535(16) 0.36282(17)
C4FC C 0.81236(16) -0.36282(17) 0.30535(16)
C4U C 0.69465(16) -0.36282(17) 0.18764(16)
C4NC C 0.63718(17) -0.30535(16) 0.18764(16)
C4YB_2 C 0.19465(16) 0.68764(16) 0.13718(17)
C4D_2 C 0.13718(17) 0.68764(16) 0.19465(16)
C4ZB_2 C 0.13718(17) 0.80535(16) 0.31236(16)
C4J_2 C 0.19465(16) 0.86282(17) 0.31236(16)
C4UB_2 C 0.31236(16) 0.86282(17) 0.19465(16)
C4H_2 C 0.31236(16) 0.80535(16) 0.13718(17)
C4AA_2 C 0.19465(16) 0.68764(16) -0.13718(17)
C4AB_2 C 0.13718(17) 0.68764(16) -0.19465(16)
C4EA_2 C 0.13718(17) 0.80535(16) -0.31236(16)
C4GB_2 C 0.19465(16) 0.86282(17) -0.31236(16)
C4Z_2 C 0.31236(16) 0.86282(17) -0.19465(16)
C4CB_2 C 0.31236(16) 0.80535(16) -0.13718(17)
C4E_2 C -0.13718(17) 0.31236(16) 0.19465(16)
C4WB_2 C -0.19465(16) 0.31236(16) 0.13718(17)
C4G_2 C -0.31236(16) 0.19465(16) 0.13718(17)
C4VB_2 C -0.31236(16) 0.13718(17) 0.19465(16)
C4K_2 C -0.19465(16) 0.13718(17) 0.31236(16)
C4AC_2 C -0.13718(17) 0.19465(16) 0.31236(16)
C4YA_2 C -0.13718(17) 0.68764(16) 0.19465(16)
C4BA_2 C -0.19465(16) 0.68764(16) 0.13718(17)
C4BB_2 C -0.31236(16) 0.80535(16) 0.13718(17)
C4X_2 C -0.31236(16) 0.86282(17) 0.19465(16)
C4EB_2 C -0.19465(16) 0.86282(17) 0.31236(16)
C4FA_2 C -0.13718(17) 0.80535(16) 0.31236(16)
H2DC H 0.3007 0.2226 0.1250
H2A H 0.2226 0.3007 0.1250
H2CC H 0.1250 0.3007 0.2226
H2B H 0.1250 0.2226 0.3007
H2EC H 0.2226 0.1250 0.3007
H2UB H 0.3007 -0.1250 0.2226
H2H H 0.3007 -0.2226 0.1250
H2YB H 0.2226 -0.3007 0.1250
H2D H 0.1250 -0.3007 0.2226
H2ZB H 0.1250 -0.2226 0.3007
H2J H 0.2226 -0.1250 0.3007
H2VB H 0.6993 0.1250 0.2226
H2G H 0.6993 0.2226 0.1250
H2WB H 0.7774 0.3007 0.1250
H2E H 0.8750 0.3007 0.2226
H2AC H 0.8750 0.2226 0.3007
H2K H 0.7774 0.1250 0.3007
H2X H 0.6993 -0.1250 0.2226
H2BB H 0.6993 -0.2226 0.1250
H2BA H 0.7774 -0.3007 0.1250
H2YA H 0.8750 -0.3007 0.2226
H2FA H 0.8750 -0.2226 0.3007
H2EB H 0.7774 -0.1250 0.3007
H2CB H 0.3007 -0.2226 -0.1250
H2Z H 0.3007 -0.1250 -0.2226
H2GB H 0.2226 -0.1250 -0.3007
H2EA H 0.1250 -0.2226 -0.3007
H2AB H 0.1250 -0.3007 -0.2226
H2AA H 0.2226 -0.3007 -0.1250
H2HA H 0.6993 -0.2226 -0.1250
H2VA H 0.6993 -0.1250 -0.2226
H2IA H 0.7774 -0.1250 -0.3007
H2XA H 0.8750 -0.2226 -0.3007
H2GA H 0.8750 -0.3007 -0.2226
H2WA H 0.7774 -0.3007 -0.1250
H2DB H 0.6993 0.2226 -0.1250
H2Y H 0.6993 0.1250 -0.2226
H2FB H 0.7774 0.1250 -0.3007
H2DA H 0.8750 0.2226 -0.3007
H2ZA H 0.8750 0.3007 -0.2226
H2CA H 0.7774 0.3007 -0.1250
H2F H 0.3007 0.2226 -0.1250
H2TB H 0.3007 0.1250 -0.2226
H2I H 0.2226 0.1250 -0.3007
H2BC H 0.1250 0.2226 -0.3007
H2C H 0.1250 0.3007 -0.2226
H2XB H 0.2226 0.3007 -0.1250
H2SA H 0.3750 0.1993 0.2774
H2IB H 0.2774 0.1993 0.3750
H2TA H 0.1993 0.2774 0.3750
H2HB H 0.1993 0.3750 0.2774
H2UA H 0.2774 0.3750 0.1993
H2JB H 0.3750 0.2774 0.1993
H2MB H 0.6250 0.1993 0.2774
H2MA H 0.7226 0.1993 0.3750
H2OB H 0.8007 0.2774 0.3750
H2LA H 0.8007 0.3750 0.2774
H2SB H 0.7226 0.3750 0.1993
H2QA H 0.6250 0.2774 0.1993
H2LB H 0.3750 -0.1993 0.2774
H2OA H 0.2774 -0.1993 0.3750
H2PB H 0.1993 -0.2774 0.3750
H2KA H 0.1993 -0.3750 0.2774
H2RB H 0.2774 -0.3750 0.1993
H2PA H 0.3750 -0.2774 0.1993
H2O H 0.6250 -0.1993 0.2774
H2JC H 0.7226 -0.1993 0.3750
H2R H 0.8007 -0.2774 0.3750
H2FC H 0.8007 -0.3750 0.2774
H2U H 0.7226 -0.3750 0.1993
H2NC H 0.6250 -0.2774 0.1993
H2YB_2 H 0.2226 0.6993 0.1250
H2D_2 H 0.1250 0.6993 0.2226
H2ZB_2 H 0.1250 0.7774 0.3007
H2J_2 H 0.2226 0.8750 0.3007
H2UB_2 H 0.3007 0.8750 0.2226
H2H_2 H 0.3007 0.7774 0.1250
H2AA_2 H 0.2226 0.6993 -0.1250
H2AB_2 H 0.1250 0.6993 -0.2226
H2EA_2 H 0.1250 0.7774 -0.3007
H2GB_2 H 0.2226 0.8750 -0.3007
H2Z_2 H 0.3007 0.8750 -0.2226
H2CB_2 H 0.3007 0.7774 -0.1250
H2E_2 H -0.1250 0.3007 0.2226
H2WB_2 H -0.2226 0.3007 0.1250
H2G_2 H -0.3007 0.2226 0.1250
H2VB_2 H -0.3007 0.1250 0.2226
H2K_2 H -0.2226 0.1250 0.3007
H2AC_2 H -0.1250 0.2226 0.3007
H2YA_2 H -0.1250 0.6993 0.2226
H2BA_2 H -0.2226 0.6993 0.1250
H2BB_2 H -0.3007 0.7774 0.1250
H2X_2 H -0.3007 0.8750 0.2226
H2EB_2 H -0.2226 0.8750 0.3007
H2FA_2 H -0.1250 0.7774 0.3007
C5A C 0.17705(17) 0.2940(2) 0.17705(17)
C5B C 0.17705(17) 0.17705(17) 0.2940(2)
C5H C 0.2940(2) -0.17705(17) 0.17705(17)
C5D C 0.17705(17) -0.2940(2) 0.17705(17)
C5J C 0.17705(17) -0.17705(17) 0.2940(2)
C5G C 0.7060(2) 0.17705(17) 0.17705(17)
C5E C 0.82295(17) 0.2940(2) 0.17705(17)
C5K C 0.82295(17) 0.17705(17) 0.2940(2)
C5BB C 0.7060(2) -0.17705(17) 0.17705(17)
C5YA C 0.82295(17) -0.2940(2) 0.17705(17)
C5EB C 0.82295(17) -0.17705(17) 0.2940(2)
C5CB C 0.2940(2) -0.17705(17) -0.17705(17)
C5GB C 0.17705(17) -0.17705(17) -0.2940(2)
C5AB C 0.17705(17) -0.2940(2) -0.17705(17)
C5VA C 0.7060(2) -0.17705(17) -0.17705(17)
C5XA C 0.82295(17) -0.17705(17) -0.2940(2)
C5WA C 0.82295(17) -0.2940(2) -0.17705(17)
C5DB C 0.7060(2) 0.17705(17) -0.17705(17)
C5FB C 0.82295(17) 0.17705(17) -0.2940(2)
C5ZA C 0.82295(17) 0.2940(2) -0.17705(17)
C5F C 0.2940(2) 0.17705(17) -0.17705(17)
C5I C 0.17705(17) 0.17705(17) -0.2940(2)
C5C C 0.17705(17) 0.2940(2) -0.17705(17)
C5IB C 0.32295(17) 0.2060(2) 0.32295(17)
C5HB C 0.2060(2) 0.32295(17) 0.32295(17)
C5JB C 0.32295(17) 0.32295(17) 0.2060(2)
C5MB C 0.67705(17) 0.2060(2) 0.32295(17)
C5OB C 0.7940(2) 0.32295(17) 0.32295(17)
C5SB C 0.67705(17) 0.32295(17) 0.2060(2)
C5LB C 0.32295(17) -0.2060(2) 0.32295(17)
C5PB C 0.2060(2) -0.32295(17) 0.32295(17)
C5RB C 0.32295(17) -0.32295(17) 0.2060(2)
C5O C 0.67705(17) -0.2060(2) 0.32295(17)
C5R C 0.7940(2) -0.32295(17) 0.32295(17)
C5U C 0.67705(17) -0.32295(17) 0.2060(2)
C5D_2 C 0.17705(17) 0.7060(2) 0.17705(17)
C5J_2 C 0.17705(17) 0.82295(17) 0.2940(2)
C5H_2 C 0.2940(2) 0.82295(17) 0.17705(17)
C5AB_2 C 0.17705(17) 0.7060(2) -0.17705(17)
C5GB_2 C 0.17705(17) 0.82295(17) -0.2940(2)
C5CB_2 C 0.2940(2) 0.82295(17) -0.17705(17)
C5E_2 C -0.17705(17) 0.2940(2) 0.17705(17)
C5G_2 C -0.2940(2) 0.17705(17) 0.17705(17)
C5K_2 C -0.17705(17) 0.17705(17) 0.2940(2)
C5YA_2 C -0.17705(17) 0.7060(2) 0.17705(17)
C5BB_2 C -0.2940(2) 0.82295(17) 0.17705(17)
C5EB_2 C -0.17705(17) 0.82295(17) 0.2940(2)
C6B C 0.19899(16) 0.19899(16) 0.2539(2)
C6A C 0.19899(16) 0.2539(2) 0.19899(16)
C6H C 0.2539(2) -0.19899(16) 0.19899(16)
C6J C 0.19899(16) -0.19899(16) 0.2539(2)
C6D C 0.19899(16) -0.2539(2) 0.19899(16)
C6G C 0.7461(2) 0.19899(16) 0.19899(16)
C6K C 0.80101(16) 0.19899(16) 0.2539(2)
C6E C 0.80101(16) 0.2539(2) 0.19899(16)
C6BB C 0.7461(2) -0.19899(16) 0.19899(16)
C6EB C 0.80101(16) -0.19899(16) 0.2539(2)
C6YA C 0.80101(16) -0.2539(2) 0.19899(16)
C6CB C 0.2539(2) -0.19899(16) -0.19899(16)
C6AB C 0.19899(16) -0.2539(2) -0.19899(16)
C6GB C 0.19899(16) -0.19899(16) -0.2539(2)
C6VA C 0.7461(2) -0.19899(16) -0.19899(16)
C6WA C 0.80101(16) -0.2539(2) -0.19899(16)
C6XA C 0.80101(16) -0.19899(16) -0.2539(2)
C6DB C 0.7461(2) 0.19899(16) -0.19899(16)
C6ZA C 0.80101(16) 0.2539(2) -0.19899(16)
C6FB C 0.80101(16) 0.19899(16) -0.2539(2)
C6F C 0.2539(2) 0.19899(16) -0.19899(16)
C6C C 0.19899(16) 0.2539(2) -0.19899(16)
C6I C 0.19899(16) 0.19899(16) -0.2539(2)
C6IB C 0.30101(16) 0.2461(2) 0.30101(16)
C6JB C 0.30101(16) 0.30101(16) 0.2461(2)
C6HB C 0.2461(2) 0.30101(16) 0.30101(16)
C6MB C 0.69899(16) 0.2461(2) 0.30101(16)
C6SB C 0.69899(16) 0.30101(16) 0.2461(2)
C6OB C 0.7539(2) 0.30101(16) 0.30101(16)
C6LB C 0.30101(16) -0.2461(2) 0.30101(16)
C6RB C 0.30101(16) -0.30101(16) 0.2461(2)
C6PB C 0.2461(2) -0.30101(16) 0.30101(16)
C6O C 0.69899(16) -0.2461(2) 0.30101(16)
C6U C 0.69899(16) -0.30101(16) 0.2461(2)
C6R C 0.7539(2) -0.30101(16) 0.30101(16)
C6D_2 C 0.19899(16) 0.7461(2) 0.19899(16)
C6H_2 C 0.2539(2) 0.80101(16) 0.19899(16)
C6J_2 C 0.19899(16) 0.80101(16) 0.2539(2)
C6AB_2 C 0.19899(16) 0.7461(2) -0.19899(16)
C6CB_2 C 0.2539(2) 0.80101(16) -0.19899(16)
C6GB_2 C 0.19899(16) 0.80101(16) -0.2539(2)
C6E_2 C -0.19899(16) 0.2539(2) 0.19899(16)
C6K_2 C -0.19899(16) 0.19899(16) 0.2539(2)
C6G_2 C -0.2539(2) 0.19899(16) 0.19899(16)
C6YA_2 C -0.19899(16) 0.7461(2) 0.19899(16)
C6EB_2 C -0.19899(16) 0.80101(16) 0.2539(2)
C6BB_2 C -0.2539(2) 0.80101(16) 0.19899(16)
C7MB C 0.5000 0.0408(6) 0.3080(6)
C7O C 0.5000 -0.0408(6) 0.3080(6)
C7VB C 0.5408(6) 0.0000 0.1920(6)
C7H C 0.4592(6) -0.1920(6) 0.0000
C7NC C 0.5000 -0.3080(6) 0.0408(6)
C7N C 0.5000 -0.3080(6) -0.0408(6)
C7BB C 0.5408(6) -0.1920(6) 0.0000
C7G C 0.5408(6) 0.1920(6) 0.0000
C7JB C 0.5000 0.3080(6) 0.0408(6)
C7LC C 0.5000 0.3080(6) -0.0408(6)
C7F C 0.4592(6) 0.1920(6) 0.0000
C7TB C 0.4592(6) 0.0000 -0.1920(6)
C7P C 0.5000 0.0408(6) -0.3080(6)
C7Q C 0.5000 -0.0408(6) -0.3080(6)
C7VA C 0.5408(6) 0.0000 -0.1920(6)
C7A C 0.1920(6) 0.4592(6) 0.0000
C7RB C 0.3080(6) 0.5000 0.0408(6)
C7W C 0.3080(6) 0.5000 -0.0408(6)
C7YB C 0.1920(6) 0.5408(6) 0.0000
C7E C 0.0000 0.4592(6) 0.1920(6)
C7HB C 0.0408(6) 0.5000 0.3080(6)
C7FC C -0.0408(6) 0.5000 0.3080(6)
C7D C 0.0000 0.5408(6) 0.1920(6)
C7B C 0.0000 0.1920(6) 0.4592(6)
C8UB C 0.4791(5) -0.0792(5) 0.2399(6)
C8LB C 0.4208(5) -0.0209(5) 0.2601(6)
C8SA C 0.4208(5) 0.0209(5) 0.2601(6)
C8VB C 0.5209(5) 0.0792(5) 0.2399(6)
C8MB C 0.5792(5) 0.0209(5) 0.2601(6)
C8O C 0.5792(5) -0.0209(5) 0.2601(6)
C8X C 0.5209(5) -0.0792(5) 0.2399(6)
C8H C 0.4791(5) -0.2399(6) 0.0792(5)
C8CB C 0.4791(5) -0.2399(6) -0.0792(5)
C8MC C 0.4208(5) -0.2601(6) -0.0209(5)
C8PA C 0.4208(5) -0.2601(6) 0.0209(5)
C8BB C 0.5209(5) -0.2399(6) 0.0792(5)
C8NC C 0.5792(5) -0.2601(6) 0.0209(5)
C8N C 0.5792(5) -0.2601(6) -0.0209(5)
C8HA C 0.5209(5) -0.2399(6) -0.0792(5)
C8G C 0.5209(5) 0.2399(6) 0.0792(5)
C8DB C 0.5209(5) 0.2399(6) -0.0792(5)
C8LC C 0.5792(5) 0.2601(6) -0.0209(5)
C8QA C 0.5792(5) 0.2601(6) 0.0209(5)
C8DC C 0.4791(5) 0.2399(6) 0.0792(5)
C8JB C 0.4208(5) 0.2601(6) 0.0209(5)
C8RA C 0.4208(5) 0.2601(6) -0.0209(5)
C8F C 0.4791(5) 0.2399(6) -0.0792(5)
C8TB C 0.4791(5) 0.0792(5) -0.2399(6)
C8Z C 0.4791(5) -0.0792(5) -0.2399(6)
C8Q C 0.4208(5) -0.0209(5) -0.2601(6)
C8KB C 0.4208(5) 0.0209(5) -0.2601(6)
C8Y C 0.5209(5) 0.0792(5) -0.2399(6)
C8P C 0.5792(5) 0.0209(5) -0.2601(6)
C8OC C 0.5792(5) -0.0209(5) -0.2601(6)
C8VA C 0.5209(5) -0.0792(5) -0.2399(6)
C8A C 0.2399(6) 0.4791(5) 0.0792(5)
C8XB C 0.2399(6) 0.4791(5) -0.0792(5)
C8QB C 0.2601(6) 0.4208(5) -0.0209(5)
C8UA C 0.2601(6) 0.4208(5) 0.0209(5)
C8YB C 0.2399(6) 0.5209(5) 0.0792(5)
C8RB C 0.2601(6) 0.5792(5) 0.0209(5)
C8W C 0.2601(6) 0.5792(5) -0.0209(5)
C8AA C 0.2399(6) 0.5209(5) -0.0792(5)
C8CC C 0.0792(5) 0.4791(5) 0.2399(6)
C8E C -0.0792(5) 0.4791(5) 0.2399(6)
C8LA C -0.0209(5) 0.4208(5) 0.2601(6)
C8HB C 0.0209(5) 0.4208(5) 0.2601(6)
C8D C 0.0792(5) 0.5209(5) 0.2399(6)
C8KA C 0.0209(5) 0.5792(5) 0.2601(6)
C8FC C -0.0209(5) 0.5792(5) 0.2601(6)
C8YA C -0.0792(5) 0.5209(5) 0.2399(6)
C8B C 0.0792(5) 0.2399(6) 0.4791(5)
N5 N 0.380(2) 0.0000 0.0000
loop_
_geom_bond_atom_site_label_1
_geom_bond_atom_site_label_2
_geom_bond_site_symmetry_1
_geom_bond_site_symmetry_2
Mn1 Cl1 1_555 1_555
Mn2 N2 1_555 1_555
Cl1 Mn1H 1_555 1_555
O1 Mn1 1_555 1_555
N1 Mn1 1_555 1_555
N2 N1 1_555 1_555
N3 C6 1_555 1_555
N4 C7 1_555 1_555
C1 N2 1_555 1_555
C2 C1 1_555 1_555
C3 C2 1_555 1_555
H1 C3 1_555 1_555
C4 C3 1_555 1_555
H2 C4 1_555 1_555
C5 C4 1_555 1_555
C6 C5 1_555 1_555
C7 Mn2 1_555 1_555
C8 N4 1_555 1_555
Mn1H O1H 1_555 1_555
Mn1F Cl1 1_555 1_555
Mn1TB Cl1 1_555 1_555
Mn1O Cl1M 1_555 1_555
Mn1A Cl1A 1_555 1_555
Mn1D Cl1A 1_555 1_555
Mn1B Cl1B 1_555 1_555
Mn1I Cl1B 1_555 1_555
Mn1A_2 N1YB 1_555 1_555
Mn1D_2 N1D 1_555 1_555
Mn1ZB Cl1B 1_555 1_555
Mn1WB N1WB 1_555 1_555
Mn1D_3 N1E 1_555 1_555
Mn1B_2 N1AC 1_555 1_555
Mn1K N1K 1_555 1_555
Mn1WB_2 N1BA 1_555 1_555
Mn1D_4 N1YA 1_555 1_555
Mn1ZB_2 N1FA 1_555 1_555
Mn2F N2DC 1_555 1_555
Mn2A N2A 1_555 1_555
Mn2E N2CC 1_555 1_555
Mn2B N2B 1_555 1_555
Mn2J N2EC 1_555 1_555
Mn2H N2H 1_555 1_555
Mn2YB N2YB 1_555 1_555
Mn2D N2D 1_555 1_555
Mn2ZB N2ZB 1_555 1_555
Mn2VB N2VB 1_555 1_555
Mn2G N2G 1_555 1_555
Mn2WB N2WB 1_555 1_555
Mn2E_2 N2E 1_555 1_555
Mn2B_2 N2AC 1_555 1_555
Mn2K N2K 1_555 1_555
Mn2BB N2BB 1_555 1_555
Mn2WA N2BA 1_555 1_555
Mn2D_2 N2YA 1_555 1_555
Mn2ZB_2 N2FA 1_555 1_555
Mn2MB N2SA 1_555 1_555
Mn2O N2LB 1_555 1_555
O1O Mn1O 1_555 1_555
O1H C7H 1_555 1_555
O1N C7NC 1_555 1_555
O1F Mn1F 1_555 1_555
O1LC C7JB 1_555 1_555
O1TB Mn1TB 1_555 1_555
O1P C7P 1_555 1_555
O1A Mn1A 1_555 1_555
O1W C7RB 1_555 1_555
O1D Mn1D 1_555 1_555
O1FC C7HB 1_555 1_555
O1B Mn1B 1_555 1_555
N1DC N1 1_555 1_555
N1A Mn1A 1_555 1_555
N1CC Mn1D 1_555 1_555
N1B Mn1B 1_555 1_555
N1EC Mn1I 1_555 1_555
N1UB Mn1 1_555 1_555
N1H Mn1H 1_555 1_555
N1YB N1D 1_555 1_555
N1D N2D 1_555 1_555
N1ZB Mn1ZB 1_555 1_555
N1J Mn1I 1_555 1_555
N1VB Mn1 1_555 1_555
N1G Mn1F 1_555 1_555
N1WB N1E 1_555 1_555
N1E N2E 1_555 1_555
N1AC N1K 1_555 1_555
N1K N2K 1_555 1_555
N1X Mn1 1_555 1_555
N1BB Mn1H 1_555 1_555
N1BA N1YA 1_555 1_555
N1YA N2YA 1_555 1_555
N1FA N1EB 1_555 1_555
N1EB Mn1K 1_555 1_555
N1CB Mn1H 1_555 1_555
N1Z Mn1TB 1_555 1_555
N1GB N1EA 1_555 1_555
N1EA N2EA 1_555 1_555
N1AB N1AA 1_555 1_555
N1AA Mn1A_2 1_555 1_555
N1HA Mn1H 1_555 1_555
N1VA Mn1TB 1_555 1_555
N1IA N1XA 1_555 1_555
N1XA N2XA 1_555 1_555
N1GA N1WA 1_555 1_555
N1WA Mn1WB_2 1_555 1_555
N1DB Mn1F 1_555 1_555
N1Y Mn1TB 1_555 1_555
N1FB N1DA 1_555 1_555
N1DA N2DA 1_555 1_555
N1ZA N1CA 1_555 1_555
N1CA Mn1WB 1_555 1_555
N1F Mn1F 1_555 1_555
N1TB Mn1TB 1_555 1_555
N1I N1BC 1_555 1_555
N1BC N2BC 1_555 1_555
N1C N1XB 1_555 1_555
N1XB Mn1A 1_555 1_555
N1SA Mn1O 1_555 1_555
N1IB N1SA 1_555 1_555
N1TA N1HB 1_555 1_555
N1HB N2HB 1_555 1_555
N1UA N1JB 1_555 1_555
N1JB N2JB 1_555 1_555
N1MB Mn1O 1_555 1_555
N1MA N1MB 1_555 1_555
N1OB N1LA 1_555 1_555
N1LA N2LA 1_555 1_555
N1SB N1QA 1_555 1_555
N1QA N2QA 1_555 1_555
N1LB Mn1O 1_555 1_555
N1OA N1LB 1_555 1_555
N1PB N1KA 1_555 1_555
N1KA N2KA 1_555 1_555
N1RB N1PA 1_555 1_555
N1PA N2PA 1_555 1_555
N1O Mn1O 1_555 1_555
N1JC N1O 1_555 1_555
N1R N1FC 1_555 1_555
N1FC N2FC 1_555 1_555
N1U N1NC 1_555 1_555
N1NC N2NC 1_555 1_555
N1YB_2 Mn1A 1_555 1_555
N1D_2 Mn1D 1_555 1_555
N1ZB_2 N1J_2 1_555 1_555
N1J_2 N2J_2 1_555 1_555
N1UB_2 N1H_2 1_555 1_555
N1H_2 N2H_2 1_555 1_555
N1AA_2 Mn1A 1_555 1_555
N1AB_2 N1AA_2 1_555 1_555
N1EA_2 N1GB_2 1_555 1_555
N1GB_2 N2GB_2 1_555 1_555
N1Z_2 N1CB_2 1_555 1_555
N1CB_2 N2CB_2 1_555 1_555
N1E_2 Mn1D 1_555 1_555
N1WB_2 N1E_2 1_555 1_555
N1G_2 N1VB_2 1_555 1_555
N1VB_2 N2VB_2 1_555 1_555
N1K_2 N1AC_2 1_555 1_555
N1AC_2 Mn1B 1_555 1_555
N1YA_2 Mn1D 1_555 1_555
N1BA_2 N1YA_2 1_555 1_555
N1BB_2 N1X_2 1_555 1_555
N1X_2 N2X_2 1_555 1_555
N1EB_2 N1FA_2 1_555 1_555
N1FA_2 N2FA_2 1_555 1_555
N2DC C1 1_555 1_555
N2A N1A 1_555 1_555
N2CC N1CC 1_555 1_555
N2B N1B 1_555 1_555
N2EC N1EC 1_555 1_555
N2UB Mn2 1_555 1_555
N2H N1H 1_555 1_555
N2YB N1YB 1_555 1_555
N2D C1D 1_555 1_555
N2ZB N1ZB 1_555 1_555
N2J Mn2J 1_555 1_555
N2VB N1VB 1_555 1_555
N2G N1G 1_555 1_555
N2WB N1WB 1_555 1_555
N2E C1E 1_555 1_555
N2AC N1AC 1_555 1_555
N2K C1K 1_555 1_555
N2X Mn2VB 1_555 1_555
N2BB N1BB 1_555 1_555
N2BA N1BA 1_555 1_555
N2YA C1YA 1_555 1_555
N2FA N1FA 1_555 1_555
N2EB Mn2K 1_555 1_555
N2CB Mn2H 1_555 1_555
N2Z N1Z 1_555 1_555
N2GB N1GB 1_555 1_555
N2EA C1GB 1_555 1_555
N2AB N1AB 1_555 1_555
N2AA Mn2YB 1_555 1_555
N2HA Mn2BB 1_555 1_555
N2VA N1VA 1_555 1_555
N2IA N1IA 1_555 1_555
N2XA C1XA 1_555 1_555
N2GA N1GA 1_555 1_555
N2WA Mn2WA 1_555 1_555
N2DB Mn2G 1_555 1_555
N2Y N1Y 1_555 1_555
N2FB N1FB 1_555 1_555
N2DA C1FB 1_555 1_555
N2ZA N1ZA 1_555 1_555
N2CA Mn2WB 1_555 1_555
N2F Mn2F 1_555 1_555
N2TB N1TB 1_555 1_555
N2I N1I 1_555 1_555
N2BC C1I 1_555 1_555
N2C N1C 1_555 1_555
N2XB Mn2A 1_555 1_555
N2SA N1SA 1_555 1_555
N2IB N1IB 1_555 1_555
N2TA N1TA 1_555 1_555
N2HB C1HB 1_555 1_555
N2UA N1UA 1_555 1_555
N2JB C1JB 1_555 1_555
N2MB Mn2MB 1_555 1_555
N2MA N1MA 1_555 1_555
N2OB N1OB 1_555 1_555
N2LA C1OB 1_555 1_555
N2SB N1SB 1_555 1_555
N2QA C1SB 1_555 1_555
N2LB N1LB 1_555 1_555
N2OA N1OA 1_555 1_555
N2PB N1PB 1_555 1_555
N2KA C1PB 1_555 1_555
N2RB N1RB 1_555 1_555
N2PA C1RB 1_555 1_555
N2O Mn2O 1_555 1_555
N2JC N1JC 1_555 1_555
N2R N1R 1_555 1_555
N2FC C1R 1_555 1_555
N2U N1U 1_555 1_555
N2NC C1U 1_555 1_555
N2YB_2 N1YB_2 1_555 1_555
N2D_2 N1D_2 1_555 1_555
N2ZB_2 N1ZB_2 1_555 1_555
N2J_2 C1J_2 1_555 1_555
N2UB_2 N1UB_2 1_555 1_555
N2H_2 C1H_2 1_555 1_555
N2AA_2 N1AA_2 1_555 1_555
N2AB_2 N1AB_2 1_555 1_555
N2EA_2 N1EA_2 1_555 1_555
N2GB_2 C1GB_2 1_555 1_555
N2Z_2 N1Z_2 1_555 1_555
N2CB_2 C1CB_2 1_555 1_555
N2E_2 Mn2E 1_555 1_555
N2WB_2 N1WB_2 1_555 1_555
N2G_2 N1G_2 1_555 1_555
N2VB_2 C1G_2 1_555 1_555
N2K_2 N1K_2 1_555 1_555
N2AC_2 Mn2B 1_555 1_555
N2YA_2 N1YA_2 1_555 1_555
N2BA_2 N1BA_2 1_555 1_555
N2BB_2 N1BB_2 1_555 1_555
N2X_2 C1BB_2 1_555 1_555
N2EB_2 N1EB_2 1_555 1_555
N2FA_2 C1EB_2 1_555 1_555
N3B C6B 1_555 1_555
N3A C6 1_555 1_555
N3J C6H 1_555 1_555
N3D C6J 1_555 1_555
N3H C6H 1_555 1_555
N3K C6G 1_555 1_555
N3E C6K 1_555 1_555
N3G C6G 1_555 1_555
N3EB C6BB 1_555 1_555
N3YA C6EB 1_555 1_555
N3BB C6BB 1_555 1_555
N3CB C6CB 1_555 1_555
N3AB C6AB 1_555 1_555
N3GB C6CB 1_555 1_555
N3WA C6VA 1_555 1_555
N3XA C6WA 1_555 1_555
N3VA C6VA 1_555 1_555
N3DB C6DB 1_555 1_555
N3ZA C6ZA 1_555 1_555
N3FB C6DB 1_555 1_555
N3F C6F 1_555 1_555
N3C C6C 1_555 1_555
N3I C6F 1_555 1_555
N3JB C6IB 1_555 1_555
N3HB C6JB 1_555 1_555
N3IB C6IB 1_555 1_555
N3MB C6MB 1_555 1_555
N3SB C6SB 1_555 1_555
N3OB C6MB 1_555 1_555
N3LB C6LB 1_555 1_555
N3RB C6RB 1_555 1_555
N3PB C6LB 1_555 1_555
N3O C6O 1_555 1_555
N3U C6U 1_555 1_555
N3R C6O 1_555 1_555
N3H_2 C6D_2 1_555 1_555
N3J_2 C6H_2 1_555 1_555
N3D_2 C6D_2 1_555 1_555
N3CB_2 C6AB_2 1_555 1_555
N3GB_2 C6CB_2 1_555 1_555
N3AB_2 C6AB_2 1_555 1_555
N3E_2 C6E_2 1_555 1_555
N3K_2 C6K_2 1_555 1_555
N3G_2 C6E_2 1_555 1_555
N3YA_2 C6YA_2 1_555 1_555
N3EB_2 C6EB_2 1_555 1_555
N3BB_2 C6YA_2 1_555 1_555
N4SA N4 1_555 1_555
N4LB N4UB 1_555 1_555
N4UB C7 1_555 1_555
N4VB N4MB 1_555 1_555
N4MB C7MB 1_555 1_555
N4X N4O 1_555 1_555
N4O C7O 1_555 1_555
N4H N4PA 1_555 1_555
N4PA C7NC 1_555 1_555
N4MC N4CB 1_555 1_555
N4CB C7H 1_555 1_555
N4BB N4NC 1_555 1_555
N4NC C7NC 1_555 1_555
N4HA N4N 1_555 1_555
N4N C7N 1_555 1_555
N4G N4QA 1_555 1_555
N4QA C7JB 1_555 1_555
N4LC N4DB 1_555 1_555
N4DB C7G 1_555 1_555
N4DC N4JB 1_555 1_555
N4JB C7JB 1_555 1_555
N4F N4RA 1_555 1_555
N4RA C7LC 1_555 1_555
N4TB N4KB 1_555 1_555
N4KB C7P 1_555 1_555
N4Q N4Z 1_555 1_555
N4Z C7TB 1_555 1_555
N4Y N4P 1_555 1_555
N4P C7P 1_555 1_555
N4VA N4OC 1_555 1_555
N4OC C7Q 1_555 1_555
N4A N4UA 1_555 1_555
N4UA C7RB 1_555 1_555
N4QB N4XB 1_555 1_555
N4XB C7A 1_555 1_555
N4YB N4RB 1_555 1_555
N4RB C7RB 1_555 1_555
N4AA N4W 1_555 1_555
N4W C7W 1_555 1_555
N4CC N4HB 1_555 1_555
N4HB C7HB 1_555 1_555
N4LA N4E 1_555 1_555
N4E C7E 1_555 1_555
N4D N4KA 1_555 1_555
N4KA C7HB 1_555 1_555
N4YA N4FC 1_555 1_555
N4FC C7FC 1_555 1_555
N4B N4TA 1_555 1_555
N4TA C8B 1_555 1_555
C1A N2A 1_555 1_555
C1B N2B 1_555 1_555
C1H N2UB 1_555 1_555
C1D N2YB 1_555 1_555
C1J N2ZB 1_555 1_555
C1G N2VB 1_555 1_555
C1E N2WB 1_555 1_555
C1K N2AC 1_555 1_555
C1BB N2X 1_555 1_555
C1YA N2BA 1_555 1_555
C1EB N2FA 1_555 1_555
C1CB N2CB 1_555 1_555
C1GB N2GB 1_555 1_555
C1AB N2AB 1_555 1_555
C1VA N2HA 1_555 1_555
C1XA N2IA 1_555 1_555
C1WA N2GA 1_555 1_555
C1DB N2DB 1_555 1_555
C1FB N2FB 1_555 1_555
C1ZA N2ZA 1_555 1_555
C1F N2F 1_555 1_555
C1I N2I 1_555 1_555
C1C N2C 1_555 1_555
C1IB N2SA 1_555 1_555
C1HB N2TA 1_555 1_555
C1JB N2UA 1_555 1_555
C1MB N2MB 1_555 1_555
C1OB N2OB 1_555 1_555
C1SB N2SB 1_555 1_555
C1LB N2LB 1_555 1_555
C1PB N2PB 1_555 1_555
C1RB N2RB 1_555 1_555
C1O N2O 1_555 1_555
C1R N2R 1_555 1_555
C1U N2U 1_555 1_555
C1D_2 N2YB_2 1_555 1_555
C1J_2 N2ZB_2 1_555 1_555
C1H_2 N2UB_2 1_555 1_555
C1AB_2 N2AA_2 1_555 1_555
C1GB_2 N2EA_2 1_555 1_555
C1CB_2 N2Z_2 1_555 1_555
C1E_2 N2E_2 1_555 1_555
C1G_2 N2G_2 1_555 1_555
C1K_2 N2K_2 1_555 1_555
C1YA_2 N2YA_2 1_555 1_555
C1BB_2 N2BB_2 1_555 1_555
C1EB_2 N2EB_2 1_555 1_555
C2A C1A 1_555 1_555
C2B C1B 1_555 1_555
C2H C1H 1_555 1_555
C2D C1D 1_555 1_555
C2J C1J 1_555 1_555
C2G C1G 1_555 1_555
C2E C1E 1_555 1_555
C2K C1K 1_555 1_555
C2BB C1BB 1_555 1_555
C2YA C1YA 1_555 1_555
C2EB C1EB 1_555 1_555
C2CB C1CB 1_555 1_555
C2GB C1GB 1_555 1_555
C2AB C1AB 1_555 1_555
C2VA C1VA 1_555 1_555
C2XA C1XA 1_555 1_555
C2WA C1WA 1_555 1_555
C2DB C1DB 1_555 1_555
C2FB C1FB 1_555 1_555
C2ZA C1ZA 1_555 1_555
C2F C1F 1_555 1_555
C2I C1I 1_555 1_555
C2C C1C 1_555 1_555
C2IB C1IB 1_555 1_555
C2HB C1HB 1_555 1_555
C2JB C1JB 1_555 1_555
C2MB C1MB 1_555 1_555
C2OB C1OB 1_555 1_555
C2SB C1SB 1_555 1_555
C2LB C1LB 1_555 1_555
C2PB C1PB 1_555 1_555
C2RB C1RB 1_555 1_555
C2O C1O 1_555 1_555
C2R C1R 1_555 1_555
C2U C1U 1_555 1_555
C2D_2 C1D_2 1_555 1_555
C2J_2 C1J_2 1_555 1_555
C2H_2 C1H_2 1_555 1_555
C2AB_2 C1AB_2 1_555 1_555
C2GB_2 C1GB_2 1_555 1_555
C2CB_2 C1CB_2 1_555 1_555
C2E_2 C1E_2 1_555 1_555
C2G_2 C1G_2 1_555 1_555
C2K_2 C1K_2 1_555 1_555
C2YA_2 C1YA_2 1_555 1_555
C2BB_2 C1BB_2 1_555 1_555
C2EB_2 C1EB_2 1_555 1_555
C3DC C2 1_555 1_555
C3A C2A 1_555 1_555
C3CC C2A 1_555 1_555
C3B C2B 1_555 1_555
C3EC C2B 1_555 1_555
C3UB C2H 1_555 1_555
C3H C2H 1_555 1_555
C3YB C2D 1_555 1_555
C3D C2D 1_555 1_555
C3ZB C2J 1_555 1_555
C3J C2J 1_555 1_555
C3VB C2G 1_555 1_555
C3G C2G 1_555 1_555
C3WB C2E 1_555 1_555
C3E C2E 1_555 1_555
C3AC C2K 1_555 1_555
C3K C2K 1_555 1_555
C3X C2BB 1_555 1_555
C3BB C2BB 1_555 1_555
C3BA C2YA 1_555 1_555
C3YA C2YA 1_555 1_555
C3FA C2EB 1_555 1_555
C3EB C2EB 1_555 1_555
C3CB C2CB 1_555 1_555
C3Z C2CB 1_555 1_555
C3GB C2GB 1_555 1_555
C3EA C2GB 1_555 1_555
C3AB C2AB 1_555 1_555
C3AA C2AB 1_555 1_555
C3HA C2VA 1_555 1_555
C3VA C2VA 1_555 1_555
C3IA C2XA 1_555 1_555
C3XA C2XA 1_555 1_555
C3GA C2WA 1_555 1_555
C3WA C2WA 1_555 1_555
C3DB C2DB 1_555 1_555
C3Y C2DB 1_555 1_555
C3FB C2FB 1_555 1_555
C3DA C2FB 1_555 1_555
C3ZA C2ZA 1_555 1_555
C3CA C2ZA 1_555 1_555
C3F C2F 1_555 1_555
C3TB C2F 1_555 1_555
C3I C2I 1_555 1_555
C3BC C2I 1_555 1_555
C3C C2C 1_555 1_555
C3XB C2C 1_555 1_555
C3SA C2IB 1_555 1_555
C3IB C2IB 1_555 1_555
C3TA C2HB 1_555 1_555
C3HB C2HB 1_555 1_555
C3UA C2JB 1_555 1_555
C3JB C2JB 1_555 1_555
C3MB C2MB 1_555 1_555
C3MA C2MB 1_555 1_555
C3OB C2OB 1_555 1_555
C3LA C2OB 1_555 1_555
C3SB C2SB 1_555 1_555
C3QA C2SB 1_555 1_555
C3LB C2LB 1_555 1_555
C3OA C2LB 1_555 1_555
C3PB C2PB 1_555 1_555
C3KA C2PB 1_555 1_555
C3RB C2RB 1_555 1_555
C3PA C2RB 1_555 1_555
C3O C2O 1_555 1_555
C3JC C2O 1_555 1_555
C3R C2R 1_555 1_555
C3FC C2R 1_555 1_555
C3U C2U 1_555 1_555
C3NC C2U 1_555 1_555
C3YB_2 C2D_2 1_555 1_555
C3D_2 C2D_2 1_555 1_555
C3ZB_2 C2J_2 1_555 1_555
C3J_2 C2J_2 1_555 1_555
C3UB_2 C2H_2 1_555 1_555
C3H_2 C2H_2 1_555 1_555
C3AA_2 C2AB_2 1_555 1_555
C3AB_2 C2AB_2 1_555 1_555
C3EA_2 C2GB_2 1_555 1_555
C3GB_2 C2GB_2 1_555 1_555
C3Z_2 C2CB_2 1_555 1_555
C3CB_2 C2CB_2 1_555 1_555
C3E_2 C2E_2 1_555 1_555
C3WB_2 C2E_2 1_555 1_555
C3G_2 C2G_2 1_555 1_555
C3VB_2 C2G_2 1_555 1_555
C3K_2 C2K_2 1_555 1_555
C3AC_2 C2K_2 1_555 1_555
C3YA_2 C2YA_2 1_555 1_555
C3BA_2 C2YA_2 1_555 1_555
C3BB_2 C2BB_2 1_555 1_555
C3X_2 C2BB_2 1_555 1_555
C3EB_2 C2EB_2 1_555 1_555
C3FA_2 C2EB_2 1_555 1_555
H1CC C3CC 1_555 1_555
H1A C3A 1_555 1_555
H1EC C3EC 1_555 1_555
H1B C3B 1_555 1_555
H1DC C3DC 1_555 1_555
H1UB C3UB 1_555 1_555
H1D C3D 1_555 1_555
H1YB C3YB 1_555 1_555
H1J C3J 1_555 1_555
H1ZB C3ZB 1_555 1_555
H1H C3H 1_555 1_555
H1VB C3VB 1_555 1_555
H1E C3E 1_555 1_555
H1WB C3WB 1_555 1_555
H1K C3K 1_555 1_555
H1AC C3AC 1_555 1_555
H1G C3G 1_555 1_555
H1X C3X 1_555 1_555
H1YA C3YA 1_555 1_555
H1BA C3BA 1_555 1_555
H1EB C3EB 1_555 1_555
H1FA C3FA 1_555 1_555
H1BB C3BB 1_555 1_555
H1CB C3CB 1_555 1_555
H1EA C3EA 1_555 1_555
H1GB C3GB 1_555 1_555
H1AA C3AA 1_555 1_555
H1AB C3AB 1_555 1_555
H1Z C3Z 1_555 1_555
H1HA C3HA 1_555 1_555
H1XA C3XA 1_555 1_555
H1IA C3IA 1_555 1_555
H1WA C3WA 1_555 1_555
H1GA C3GA 1_555 1_555
H1VA C3VA 1_555 1_555
H1DB C3DB 1_555 1_555
H1DA C3DA 1_555 1_555
H1FB C3FB 1_555 1_555
H1CA C3CA 1_555 1_555
H1ZA C3ZA 1_555 1_555
H1Y C3Y 1_555 1_555
H1F C3F 1_555 1_555
H1BC C3BC 1_555 1_555
H1I C3I 1_555 1_555
H1XB C3XB 1_555 1_555
H1C C3C 1_555 1_555
H1TB C3TB 1_555 1_555
H1SA C3SA 1_555 1_555
H1HB C3HB 1_555 1_555
H1TA C3TA 1_555 1_555
H1JB C3JB 1_555 1_555
H1UA C3UA 1_555 1_555
H1IB C3IB 1_555 1_555
H1MB C3MB 1_555 1_555
H1LA C3LA 1_555 1_555
H1OB C3OB 1_555 1_555
H1QA C3QA 1_555 1_555
H1SB C3SB 1_555 1_555
H1MA C3MA 1_555 1_555
H1LB C3LB 1_555 1_555
H1KA C3KA 1_555 1_555
H1PB C3PB 1_555 1_555
H1PA C3PA 1_555 1_555
H1RB C3RB 1_555 1_555
H1OA C3OA 1_555 1_555
H1O C3O 1_555 1_555
H1FC C3FC 1_555 1_555
H1R C3R 1_555 1_555
H1NC C3NC 1_555 1_555
H1U C3U 1_555 1_555
H1JC C3JC 1_555 1_555
H1YB_2 C3YB_2 1_555 1_555
H1J_2 C3J_2 1_555 1_555
H1ZB_2 C3ZB_2 1_555 1_555
H1H_2 C3H_2 1_555 1_555
H1UB_2 C3UB_2 1_555 1_555
H1D_2 C3D_2 1_555 1_555
H1AA_2 C3AA_2 1_555 1_555
H1GB_2 C3GB_2 1_555 1_555
H1EA_2 C3EA_2 1_555 1_555
H1CB_2 C3CB_2 1_555 1_555
H1Z_2 C3Z_2 1_555 1_555
H1AB_2 C3AB_2 1_555 1_555
H1E_2 C3E_2 1_555 1_555
H1VB_2 C3VB_2 1_555 1_555
H1G_2 C3G_2 1_555 1_555
H1AC_2 C3AC_2 1_555 1_555
H1K_2 C3K_2 1_555 1_555
H1WB_2 C3WB_2 1_555 1_555
H1YA_2 C3YA_2 1_555 1_555
H1X_2 C3X_2 1_555 1_555
H1BB_2 C3BB_2 1_555 1_555
H1FA_2 C3FA_2 1_555 1_555
H1EB_2 C3EB_2 1_555 1_555
H1BA_2 C3BA_2 1_555 1_555
C4DC C5 1_555 1_555
C4A C3A 1_555 1_555
C4CC C3CC 1_555 1_555
C4B C3B 1_555 1_555
C4EC C3EC 1_555 1_555
C4UB C3UB 1_555 1_555
C4H C3H 1_555 1_555
C4YB C3YB 1_555 1_555
C4D C3D 1_555 1_555
C4ZB C3ZB 1_555 1_555
C4J C3J 1_555 1_555
C4VB C3VB 1_555 1_555
C4G C3G 1_555 1_555
C4WB C3WB 1_555 1_555
C4E C3E 1_555 1_555
C4AC C3AC 1_555 1_555
C4K C3K 1_555 1_555
C4X C3X 1_555 1_555
C4BB C3BB 1_555 1_555
C4BA C3BA 1_555 1_555
C4YA C3YA 1_555 1_555
C4FA C3FA 1_555 1_555
C4EB C3EB 1_555 1_555
C4CB C3CB 1_555 1_555
C4Z C3Z 1_555 1_555
C4GB C3GB 1_555 1_555
C4EA C3EA 1_555 1_555
C4AB C3AB 1_555 1_555
C4AA C3AA 1_555 1_555
C4HA C3HA 1_555 1_555
C4VA C3VA 1_555 1_555
C4IA C3IA 1_555 1_555
C4XA C3XA 1_555 1_555
C4GA C3GA 1_555 1_555
C4WA C3WA 1_555 1_555
C4DB C3DB 1_555 1_555
C4Y C3Y 1_555 1_555
C4FB C3FB 1_555 1_555
C4DA C3DA 1_555 1_555
C4ZA C3ZA 1_555 1_555
C4CA C3CA 1_555 1_555
C4F C3F 1_555 1_555
C4TB C3TB 1_555 1_555
C4I C3I 1_555 1_555
C4BC C3BC 1_555 1_555
C4C C3C 1_555 1_555
C4XB C3XB 1_555 1_555
C4SA C3SA 1_555 1_555
C4IB C3IB 1_555 1_555
C4TA C3TA 1_555 1_555
C4HB C3HB 1_555 1_555
C4UA C3UA 1_555 1_555
C4JB C3JB 1_555 1_555
C4MB C3MB 1_555 1_555
C4MA C3MA 1_555 1_555
C4OB C3OB 1_555 1_555
C4LA C3LA 1_555 1_555
C4SB C3SB 1_555 1_555
C4QA C3QA 1_555 1_555
C4LB C3LB 1_555 1_555
C4OA C3OA 1_555 1_555
C4PB C3PB 1_555 1_555
C4KA C3KA 1_555 1_555
C4RB C3RB 1_555 1_555
C4PA C3PA 1_555 1_555
C4O C3O 1_555 1_555
C4JC C3JC 1_555 1_555
C4R C3R 1_555 1_555
C4FC C3FC 1_555 1_555
C4U C3U 1_555 1_555
C4NC C3NC 1_555 1_555
C4YB_2 C3YB_2 1_555 1_555
C4D_2 C3D_2 1_555 1_555
C4ZB_2 C3ZB_2 1_555 1_555
C4J_2 C3J_2 1_555 1_555
C4UB_2 C3UB_2 1_555 1_555
C4H_2 C3H_2 1_555 1_555
C4AA_2 C3AA_2 1_555 1_555
C4AB_2 C3AB_2 1_555 1_555
C4EA_2 C3EA_2 1_555 1_555
C4GB_2 C3GB_2 1_555 1_555
C4Z_2 C3Z_2 1_555 1_555
C4CB_2 C3CB_2 1_555 1_555
C4E_2 C3E_2 1_555 1_555
C4WB_2 C3WB_2 1_555 1_555
C4G_2 C3G_2 1_555 1_555
C4VB_2 C3VB_2 1_555 1_555
C4K_2 C3K_2 1_555 1_555
C4AC_2 C3AC_2 1_555 1_555
C4YA_2 C3YA_2 1_555 1_555
C4BA_2 C3BA_2 1_555 1_555
C4BB_2 C3BB_2 1_555 1_555
C4X_2 C3X_2 1_555 1_555
C4EB_2 C3EB_2 1_555 1_555
C4FA_2 C3FA_2 1_555 1_555
H2DC C4DC 1_555 1_555
H2A C4A 1_555 1_555
H2CC C4CC 1_555 1_555
H2B C4B 1_555 1_555
H2EC C4EC 1_555 1_555
H2UB C4UB 1_555 1_555
H2H C4H 1_555 1_555
H2YB C4YB 1_555 1_555
H2D C4D 1_555 1_555
H2ZB C4ZB 1_555 1_555
H2J C4J 1_555 1_555
H2VB C4VB 1_555 1_555
H2G C4G 1_555 1_555
H2WB C4WB 1_555 1_555
H2E C4E 1_555 1_555
H2AC C4AC 1_555 1_555
H2K C4K 1_555 1_555
H2X C4X 1_555 1_555
H2BB C4BB 1_555 1_555
H2BA C4BA 1_555 1_555
H2YA C4YA 1_555 1_555
H2FA C4FA 1_555 1_555
H2EB C4EB 1_555 1_555
H2CB C4CB 1_555 1_555
H2Z C4Z 1_555 1_555
H2GB C4GB 1_555 1_555
H2EA C4EA 1_555 1_555
H2AB C4AB 1_555 1_555
H2AA C4AA 1_555 1_555
H2HA C4HA 1_555 1_555
H2VA C4VA 1_555 1_555
H2IA C4IA 1_555 1_555
H2XA C4XA 1_555 1_555
H2GA C4GA 1_555 1_555
H2WA C4WA 1_555 1_555
H2DB C4DB 1_555 1_555
H2Y C4Y 1_555 1_555
H2FB C4FB 1_555 1_555
H2DA C4DA 1_555 1_555
H2ZA C4ZA 1_555 1_555
H2CA C4CA 1_555 1_555
H2F C4F 1_555 1_555
H2TB C4TB 1_555 1_555
H2I C4I 1_555 1_555
H2BC C4BC 1_555 1_555
H2C C4C 1_555 1_555
H2XB C4XB 1_555 1_555
H2SA C4SA 1_555 1_555
H2IB C4IB 1_555 1_555
H2TA C4TA 1_555 1_555
H2HB C4HB 1_555 1_555
H2UA C4UA 1_555 1_555
H2JB C4JB 1_555 1_555
H2MB C4MB 1_555 1_555
H2MA C4MA 1_555 1_555
H2OB C4OB 1_555 1_555
H2LA C4LA 1_555 1_555
H2SB C4SB 1_555 1_555
H2QA C4QA 1_555 1_555
H2LB C4LB 1_555 1_555
H2OA C4OA 1_555 1_555
H2PB C4PB 1_555 1_555
H2KA C4KA 1_555 1_555
H2RB C4RB 1_555 1_555
H2PA C4PA 1_555 1_555
H2O C4O 1_555 1_555
H2JC C4JC 1_555 1_555
H2R C4R 1_555 1_555
H2FC C4FC 1_555 1_555
H2U C4U 1_555 1_555
H2NC C4NC 1_555 1_555
H2YB_2 C4YB_2 1_555 1_555
H2D_2 C4D_2 1_555 1_555
H2ZB_2 C4ZB_2 1_555 1_555
H2J_2 C4J_2 1_555 1_555
H2UB_2 C4UB_2 1_555 1_555
H2H_2 C4H_2 1_555 1_555
H2AA_2 C4AA_2 1_555 1_555
H2AB_2 C4AB_2 1_555 1_555
H2EA_2 C4EA_2 1_555 1_555
H2GB_2 C4GB_2 1_555 1_555
H2Z_2 C4Z_2 1_555 1_555
H2CB_2 C4CB_2 1_555 1_555
H2E_2 C4E_2 1_555 1_555
H2WB_2 C4WB_2 1_555 1_555
H2G_2 C4G_2 1_555 1_555
H2VB_2 C4VB_2 1_555 1_555
H2K_2 C4K_2 1_555 1_555
H2AC_2 C4AC_2 1_555 1_555
H2YA_2 C4YA_2 1_555 1_555
H2BA_2 C4BA_2 1_555 1_555
H2BB_2 C4BB_2 1_555 1_555
H2X_2 C4X_2 1_555 1_555
H2EB_2 C4EB_2 1_555 1_555
H2FA_2 C4FA_2 1_555 1_555
C5A C4A 1_555 1_555
C5B C4B 1_555 1_555
C5H C4UB 1_555 1_555
C5D C4YB 1_555 1_555
C5J C4ZB 1_555 1_555
C5G C4VB 1_555 1_555
C5E C4WB 1_555 1_555
C5K C4AC 1_555 1_555
C5BB C4X 1_555 1_555
C5YA C4BA 1_555 1_555
C5EB C4FA 1_555 1_555
C5CB C4CB 1_555 1_555
C5GB C4GB 1_555 1_555
C5AB C4AB 1_555 1_555
C5VA C4HA 1_555 1_555
C5XA C4IA 1_555 1_555
C5WA C4GA 1_555 1_555
C5DB C4DB 1_555 1_555
C5FB C4FB 1_555 1_555
C5ZA C4ZA 1_555 1_555
C5F C4F 1_555 1_555
C5I C4I 1_555 1_555
C5C C4C 1_555 1_555
C5IB C4SA 1_555 1_555
C5HB C4TA 1_555 1_555
C5JB C4UA 1_555 1_555
C5MB C4MB 1_555 1_555
C5OB C4OB 1_555 1_555
C5SB C4SB 1_555 1_555
C5LB C4LB 1_555 1_555
C5PB C4PB 1_555 1_555
C5RB C4RB 1_555 1_555
C5O C4O 1_555 1_555
C5R C4R 1_555 1_555
C5U C4U 1_555 1_555
C5D_2 C4YB_2 1_555 1_555
C5J_2 C4ZB_2 1_555 1_555
C5H_2 C4UB_2 1_555 1_555
C5AB_2 C4AA_2 1_555 1_555
C5GB_2 C4EA_2 1_555 1_555
C5CB_2 C4Z_2 1_555 1_555
C5E_2 C4E_2 1_555 1_555
C5G_2 C4G_2 1_555 1_555
C5K_2 C4K_2 1_555 1_555
C5YA_2 C4YA_2 1_555 1_555
C5BB_2 C4BB_2 1_555 1_555
C5EB_2 C4EB_2 1_555 1_555
C6B N3 1_555 1_555
C6A N3B 1_555 1_555
C6H C5H 1_555 1_555
C6J N3J 1_555 1_555
C6D N3D 1_555 1_555
C6G C5G 1_555 1_555
C6K N3K 1_555 1_555
C6E N3E 1_555 1_555
C6BB C5BB 1_555 1_555
C6EB N3EB 1_555 1_555
C6YA N3YA 1_555 1_555
C6CB C5CB 1_555 1_555
C6AB N3CB 1_555 1_555
C6GB N3AB 1_555 1_555
C6VA C5VA 1_555 1_555
C6WA N3WA 1_555 1_555
C6XA N3XA 1_555 1_555
C6DB C5DB 1_555 1_555
C6ZA N3DB 1_555 1_555
C6FB N3ZA 1_555 1_555
C6F C5F 1_555 1_555
C6C N3F 1_555 1_555
C6I N3C 1_555 1_555
C6IB C5IB 1_555 1_555
C6JB N3JB 1_555 1_555
C6HB N3HB 1_555 1_555
C6MB C5MB 1_555 1_555
C6SB N3MB 1_555 1_555
C6OB N3SB 1_555 1_555
C6LB C5LB 1_555 1_555
C6RB N3LB 1_555 1_555
C6PB N3RB 1_555 1_555
C6O C5O 1_555 1_555
C6U N3O 1_555 1_555
C6R N3U 1_555 1_555
C6D_2 C5D_2 1_555 1_555
C6H_2 N3H_2 1_555 1_555
C6J_2 N3J_2 1_555 1_555
C6AB_2 C5AB_2 1_555 1_555
C6CB_2 N3CB_2 1_555 1_555
C6GB_2 N3GB_2 1_555 1_555
C6E_2 C5E_2 1_555 1_555
C6K_2 N3E_2 1_555 1_555
C6G_2 N3K_2 1_555 1_555
C6YA_2 C5YA_2 1_555 1_555
C6EB_2 N3YA_2 1_555 1_555
C6BB_2 N3EB_2 1_555 1_555
C7MB Mn2MB 1_555 1_555
C7O Mn2O 1_555 1_555
C7VB O1 1_555 1_555
C7H Mn2H 1_555 1_555
C7N O1N 1_555 1_555
C7BB Mn2BB 1_555 1_555
C7G Mn2G 1_555 1_555
C7LC O1LC 1_555 1_555
C7F Mn2F 1_555 1_555
C7TB O1TB 1_555 1_555
C7Q O1P 1_555 1_555
C7VA O1TB 1_555 1_555
C7A Mn2A 1_555 1_555
C7W O1W 1_555 1_555
C7YB O1A 1_555 1_555
C7E Mn2E 1_555 1_555
C7FC O1FC 1_555 1_555
C7D O1D 1_555 1_555
C7B Mn2B 1_555 1_555
C8UB N4LB 1_555 1_555
C8LB N4LB 1_555 1_555
C8SA N4 1_555 1_555
C8VB C8 1_555 1_555
C8MB N4VB 1_555 1_555
C8O N4X 1_555 1_555
C8X N4X 1_555 1_555
C8H N4H 1_555 1_555
C8CB N4MC 1_555 1_555
C8MC N4MC 1_555 1_555
C8PA N4H 1_555 1_555
C8BB N4BB 1_555 1_555
C8NC N4BB 1_555 1_555
C8N N4HA 1_555 1_555
C8HA N4HA 1_555 1_555
C8G N4G 1_555 1_555
C8DB N4LC 1_555 1_555
C8LC N4LC 1_555 1_555
C8QA N4G 1_555 1_555
C8DC N4DC 1_555 1_555
C8JB N4DC 1_555 1_555
C8RA N4F 1_555 1_555
C8F N4F 1_555 1_555
C8TB N4TB 1_555 1_555
C8Z N4Q 1_555 1_555
C8Q N4Q 1_555 1_555
C8KB N4TB 1_555 1_555
C8Y N4Y 1_555 1_555
C8P N4Y 1_555 1_555
C8OC N4VA 1_555 1_555
C8VA N4VA 1_555 1_555
C8A N4A 1_555 1_555
C8XB N4QB 1_555 1_555
C8QB N4QB 1_555 1_555
C8UA N4A 1_555 1_555
C8YB N4YB 1_555 1_555
C8RB N4YB 1_555 1_555
C8W N4AA 1_555 1_555
C8AA N4AA 1_555 1_555
C8CC N4CC 1_555 1_555
C8E N4LA 1_555 1_555
C8LA N4LA 1_555 1_555
C8HB N4CC 1_555 1_555
C8D N4D 1_555 1_555
C8KA N4D 1_555 1_555
C8FC N4YA 1_555 1_555
C8YA N4YA 1_555 1_555
C8B N4B 1_555 1_555
O1 C7 1_555 1_555
C8 N4SA 1_555 1_555
Mn1F N1DC 1_555 1_555
Mn2VB C7VB 1_555 1_555
O1O C7MB 1_555 1_555
O1O C7O 1_555 1_555
O1H C7BB 1_555 1_555
O1F C7G 1_555 1_555
O1F C7F 1_555 1_555
O1A C7A 1_555 1_555
O1D C7E 1_555 1_555
O1B C7B 1_555 1_555
N1DC N2DC 1_555 1_555
N1A N1CC 1_555 1_555
N1B N1EC 1_555 1_555
N1UB N1H 1_555 1_555
N1UB N2UB 1_555 1_555
N1ZB N1J 1_555 1_555
N1J N2J 1_555 1_555
N1VB N1G 1_555 1_555
N1X N1BB 1_555 1_555
N1X N2X 1_555 1_555
N1EB N2EB 1_555 1_555
N1CB N1Z 1_555 1_555
N1CB N2CB 1_555 1_555
N1AA N2AA 1_555 1_555
N1HA N1VA 1_555 1_555
N1HA N2HA 1_555 1_555
N1WA N2WA 1_555 1_555
N1DB N1Y 1_555 1_555
N1DB N2DB 1_555 1_555
N1CA N2CA 1_555 1_555
N1F N1TB 1_555 1_555
N1F N2F 1_555 1_555
N1XB N2XB 1_555 1_555
N1MB N2MB 1_555 1_555
N1O N2O 1_555 1_555
N1YB_2 N1D_2 1_555 1_555
N1E_2 N2E_2 1_555 1_555
N1AC_2 N2AC_2 1_555 1_555
N2CC C1A 1_555 1_555
N2EC C1B 1_555 1_555
N2H C1H 1_555 1_555
N2J C1J 1_555 1_555
N2G C1G 1_555 1_555
N2BB C1BB 1_555 1_555
N2EB C1EB 1_555 1_555
N2Z C1CB 1_555 1_555
N2AA C1AB 1_555 1_555
N2VA C1VA 1_555 1_555
N2WA C1WA 1_555 1_555
N2Y C1DB 1_555 1_555
N2CA C1ZA 1_555 1_555
N2TB C1F 1_555 1_555
N2XB C1C 1_555 1_555
N2IB C1IB 1_555 1_555
N2MA C1MB 1_555 1_555
N2OA C1LB 1_555 1_555
N2JC C1O 1_555 1_555
N2D_2 C1D_2 1_555 1_555
N2AB_2 C1AB_2 1_555 1_555
N2WB_2 C1E_2 1_555 1_555
N2AC_2 C1K_2 1_555 1_555
N2BA_2 C1YA_2 1_555 1_555
N3A C6A 1_555 1_555
N3H C6D 1_555 1_555
N3G C6E 1_555 1_555
N3BB C6YA 1_555 1_555
N3GB C6GB 1_555 1_555
N3VA C6XA 1_555 1_555
N3FB C6FB 1_555 1_555
N3I C6I 1_555 1_555
N3IB C6HB 1_555 1_555
N3OB C6OB 1_555 1_555
N3PB C6PB 1_555 1_555
N3R C6R 1_555 1_555
N3D_2 C6J_2 1_555 1_555
N3AB_2 C6GB_2 1_555 1_555
N3G_2 C6G_2 1_555 1_555
N3BB_2 C6BB_2 1_555 1_555
N4SA C7MB 1_555 1_555
N4SA C8SA 1_555 1_555
N4LB C7O 1_555 1_555
N4UB C8UB 1_555 1_555
N4UB C8LB 1_555 1_555
N4VB C7VB 1_555 1_555
N4VB C8VB 1_555 1_555
N4MB C8VB 1_555 1_555
N4MB C8MB 1_555 1_555
N4X C7VB 1_555 1_555
N4O C8O 1_555 1_555
N4O C8X 1_555 1_555
N4H C7H 1_555 1_555
N4PA C8H 1_555 1_555
N4PA C8PA 1_555 1_555
N4MC C7N 1_555 1_555
N4CB C8CB 1_555 1_555
N4CB C8MC 1_555 1_555
N4BB C7BB 1_555 1_555
N4NC C8BB 1_555 1_555
N4NC C8NC 1_555 1_555
N4HA C7BB 1_555 1_555
N4N C8N 1_555 1_555
N4N C8HA 1_555 1_555
N4G C7G 1_555 1_555
N4QA C8G 1_555 1_555
N4QA C8QA 1_555 1_555
N4LC C7LC 1_555 1_555
N4DB C8DB 1_555 1_555
N4DB C8LC 1_555 1_555
N4DC C7F 1_555 1_555
N4JB C8DC 1_555 1_555
N4JB C8JB 1_555 1_555
N4F C7F 1_555 1_555
N4RA C8RA 1_555 1_555
N4RA C8F 1_555 1_555
N4TB C7TB 1_555 1_555
N4KB C8TB 1_555 1_555
N4KB C8KB 1_555 1_555
N4Q C7Q 1_555 1_555
N4Z C8Z 1_555 1_555
N4Z C8Q 1_555 1_555
N4Y C7VA 1_555 1_555
N4P C8Y 1_555 1_555
N4P C8P 1_555 1_555
N4VA C7VA 1_555 1_555
N4OC C8OC 1_555 1_555
N4OC C8VA 1_555 1_555
N4A C7A 1_555 1_555
N4UA C8A 1_555 1_555
N4UA C8UA 1_555 1_555
N4QB C7W 1_555 1_555
N4XB C8XB 1_555 1_555
N4XB C8QB 1_555 1_555
N4YB C7YB 1_555 1_555
N4RB C8YB 1_555 1_555
N4RB C8RB 1_555 1_555
N4AA C7YB 1_555 1_555
N4W C8W 1_555 1_555
N4W C8AA 1_555 1_555
N4CC C7E 1_555 1_555
N4HB C8CC 1_555 1_555
N4HB C8HB 1_555 1_555
N4LA C7FC 1_555 1_555
N4E C8E 1_555 1_555
N4E C8LA 1_555 1_555
N4D C7D 1_555 1_555
N4KA C8D 1_555 1_555
N4KA C8KA 1_555 1_555
N4YA C7D 1_555 1_555
N4FC C8FC 1_555 1_555
N4FC C8YA 1_555 1_555
N4B C7B 1_555 1_555
C3DC C4DC 1_555 1_555
C4CC C5A 1_555 1_555
C4EC C5B 1_555 1_555
C4H C5H 1_555 1_555
C4D C5D 1_555 1_555
C4J C5J 1_555 1_555
C4G C5G 1_555 1_555
C4E C5E 1_555 1_555
C4K C5K 1_555 1_555
C4BB C5BB 1_555 1_555
C4YA C5YA 1_555 1_555
C4EB C5EB 1_555 1_555
C4Z C5CB 1_555 1_555
C4EA C5GB 1_555 1_555
C4AA C5AB 1_555 1_555
C4VA C5VA 1_555 1_555
C4XA C5XA 1_555 1_555
C4WA C5WA 1_555 1_555
C4Y C5DB 1_555 1_555
C4DA C5FB 1_555 1_555
C4CA C5ZA 1_555 1_555
C4TB C5F 1_555 1_555
C4BC C5I 1_555 1_555
C4XB C5C 1_555 1_555
C4IB C5IB 1_555 1_555
C4HB C5HB 1_555 1_555
C4JB C5JB 1_555 1_555
C4MA C5MB 1_555 1_555
C4LA C5OB 1_555 1_555
C4QA C5SB 1_555 1_555
C4OA C5LB 1_555 1_555
C4KA C5PB 1_555 1_555
C4PA C5RB 1_555 1_555
C4JC C5O 1_555 1_555
C4FC C5R 1_555 1_555
C4NC C5U 1_555 1_555
C4D_2 C5D_2 1_555 1_555
C4J_2 C5J_2 1_555 1_555
C4H_2 C5H_2 1_555 1_555
C4AB_2 C5AB_2 1_555 1_555
C4GB_2 C5GB_2 1_555 1_555
C4CB_2 C5CB_2 1_555 1_555
C4WB_2 C5E_2 1_555 1_555
C4VB_2 C5G_2 1_555 1_555
C4AC_2 C5K_2 1_555 1_555
C4BA_2 C5YA_2 1_555 1_555
C4X_2 C5BB_2 1_555 1_555
C4FA_2 C5EB_2 1_555 1_555
C5A C6A 1_555 1_555
C5B C6B 1_555 1_555
C5D C6D 1_555 1_555
C5J C6J 1_555 1_555
C5E C6E 1_555 1_555
C5K C6K 1_555 1_555
C5YA C6YA 1_555 1_555
C5EB C6EB 1_555 1_555
C5GB C6GB 1_555 1_555
C5AB C6AB 1_555 1_555
C5XA C6XA 1_555 1_555
C5WA C6WA 1_555 1_555
C5FB C6FB 1_555 1_555
C5ZA C6ZA 1_555 1_555
C5I C6I 1_555 1_555
C5C C6C 1_555 1_555
C5HB C6HB 1_555 1_555
C5JB C6JB 1_555 1_555
C5OB C6OB 1_555 1_555
C5SB C6SB 1_555 1_555
C5PB C6PB 1_555 1_555
C5RB C6RB 1_555 1_555
C5R C6R 1_555 1_555
C5U C6U 1_555 1_555
C5J_2 C6J_2 1_555 1_555
C5H_2 C6H_2 1_555 1_555
C5GB_2 C6GB_2 1_555 1_555
C5CB_2 C6CB_2 1_555 1_555
C5G_2 C6G_2 1_555 1_555
C5K_2 C6K_2 1_555 1_555
C5BB_2 C6BB_2 1_555 1_555
C5EB_2 C6EB_2 1_555 1_555
C8UB C8X 1_555 1_555
C8LB C8SA 1_555 1_555
C8MB C8O 1_555 1_555
C8H C8BB 1_555 1_555
C8CB C8HA 1_555 1_555
C8MC C8PA 1_555 1_555
C8NC C8N 1_555 1_555
C8G C8DC 1_555 1_555
C8DB C8F 1_555 1_555
C8LC C8QA 1_555 1_555
C8JB C8RA 1_555 1_555
C8TB C8Y 1_555 1_555
C8Z C8VA 1_555 1_555
C8Q C8KB 1_555 1_555
C8P C8OC 1_555 1_555
C8A C8YB 1_555 1_555
C8XB C8AA 1_555 1_555
C8QB C8UA 1_555 1_555
C8RB C8W 1_555 1_555
C8CC C8D 1_555 1_555
C8E C8YA 1_555 1_555
C8LA C8HB 1_555 1_555
C8KA C8FC 1_555 1_555

#END
