
#######################################################################
#
#                 Cambridge Crystallographic Data Centre
#                                CCDC 
#
#######################################################################
#
# If this CIF has been generated from an entry in the Cambridge 
# Structural Database, then it will include bibliographic, chemical, 
# crystal, experimental, refinement or atomic coordinate data resulting 
# from the CCDC's data processing and validation procedures.
#
#######################################################################

data_BOBGIJ
_symmetry_cell_setting           monoclinic
_symmetry_space_group_name_H-M   'P 21/n'
_symmetry_Int_Tables_number      14
_space_group_name_Hall           '-P 2yn'
loop_
_symmetry_equiv_pos_site_id
_symmetry_equiv_pos_as_xyz
1 x,y,z
2 1/2-x,1/2+y,1/2-z
3 -x,-y,-z
4 1/2+x,1/2-y,1/2+z
_cell_length_a                   15.0358(10)
_cell_length_b                   34.679(2)
_cell_length_c                   21.8823(14)
_cell_angle_alpha                90
_cell_angle_beta                 94.823(1)
_cell_angle_gamma                90
_cell_volume                     11369.6
loop_
_atom_site_label
_atom_site_type_symbol
_atom_site_fract_x
_atom_site_fract_y
_atom_site_fract_z
C1 C 0.3488(4) 0.2332(2) 0.6855(3)
H1 H 0.3653 0.2574 0.7008
C2 C 0.3502(5) 0.1729(2) 0.6638(4)
H2 H 0.3686 0.1474 0.6613
C3 C 0.2008(4) 0.2533(2) 0.6345(3)
H3 H 0.1548 0.2589 0.6589
C4 C 0.2087(4) 0.2723(2) 0.5724(3)
C5 C 0.2802(5) 0.2959(3) 0.5626(4)
H4 H 0.3258 0.2990 0.5936
C6 C 0.2850(5) 0.3148(3) 0.5083(4)
H5 H 0.3339 0.3307 0.5037
C7 C 0.2724(5) 0.1871(3) 0.6392(4)
H6 H 0.2272 0.1734 0.6171
C8 C 0.1417(5) 0.2690(3) 0.5259(4)
H7 H 0.0920 0.2539 0.5317
C9 C 0.3772(4) 0.3604(2) 0.3953(3)
H8 H 0.3737 0.3808 0.4226
C10 C 0.4487(5) 0.3506(2) 0.3655(3)
H9 H 0.5037 0.3631 0.3693
C11 C 0.3441(4) 0.3105(2) 0.3381(3)
H10 H 0.3129 0.2899 0.3193
C12 C 0.2215(4) 0.3322(2) 0.4011(3)
H11 H 0.1706 0.3428 0.3805
C13 C 0.2198(4) 0.3114(2) 0.4595(3)
C14 C 0.1471(5) 0.2880(3) 0.4706(4)
H12 H 0.1009 0.2851 0.4399
C15 C 0.6024(5) 0.1470(2) 0.6349(3)
H13 H 0.5499 0.1327 0.6329
C16 C 0.6740(5) 0.1391(2) 0.6053(3)
H14 H 0.6803 0.1184 0.5791
C17 C 0.7011(4) 0.1906(2) 0.6588(3)
H15 H 0.7305 0.2120 0.6764
C18 C 0.8241(5) 0.1702(2) 0.5961(3)
H16 H 0.8757 0.1605 0.6170
C19 C 0.8255(4) 0.1900(2) 0.5372(3)
C20 C 0.7527(5) 0.1910(3) 0.4928(4)
H17 H 0.6992 0.1797 0.5016
C21 C 0.7576(5) 0.2080(3) 0.4372(4)
H18 H 0.7075 0.2084 0.4092
C22 C 0.8356(4) 0.2248(2) 0.4216(3)
C23 C 0.9077(4) 0.2244(2) 0.4645(4)
H19 H 0.9608 0.2360 0.4553
C24 C 0.9029(4) 0.2072(2) 0.5206(4)
H20 H 0.9534 0.2070 0.5483
C25 C 0.8448(4) 0.2407(3) 0.3582(3)
H21 H 0.8894 0.2331 0.3338
C26 C 0.6957(4) 0.2621(2) 0.3103(3)
H22 H 0.6755 0.2377 0.2983
C27 C 0.7803(5) 0.3081(3) 0.3477(4)
H23 H 0.8284 0.3217 0.3666
C28 C 0.7032(5) 0.3232(2) 0.3245(4)
H24 H 0.6883 0.3493 0.3241
C29 C 0.9216(5) 0.6023(2) 1.3681(3)
H25 H 0.9753 0.6158 1.3713
C30 C 0.8503(5) 0.6115(2) 1.3976(3)
H26 H 0.8449 0.6321 1.4243
C31 C 0.8220(4) 0.5605(2) 1.3414(3)
H27 H 0.7921 0.5395 1.3228
C32 C 1.3043(4) 0.4183(2) 1.5979(3)
H28 H 1.3549 0.4080 1.6193
C33 C 1.2391(5) 0.4345(3) 1.4899(4)
H29 H 1.1902 0.4188 1.4950
C34 C 1.2442(5) 0.4531(3) 1.4348(4)
H30 H 1.1983 0.4497 1.4041
C35 C 1.3059(4) 0.4386(2) 1.5391(3)
C36 C 1.3781(5) 0.4607(2) 1.5262(4)
H31 H 1.4258 0.4631 1.5559
C37 C 1.2671(9) 1.1175(3) 0.9747(5)
H32 H 1.3256 1.1195 0.9642
C38 C 1.2171(7) 1.0931(3) 0.9339(5)
C39 C 1.2631(6) 1.0745(3) 0.8905(5)
H33 H 1.3236 1.0797 0.8890
C40 C 1.2236(5) 1.0491(2) 0.8501(4)
H34 H 1.2576 1.0365 0.8226
C41 C 1.1329(4) 1.0415(2) 0.8492(3)
C42 C 1.0827(5) 1.0602(2) 0.8898(4)
H35 H 1.0215 1.0562 0.8890
C43 C 1.1261(7) 1.0854(3) 0.9323(4)
H36 H 1.0927 1.0976 0.9606
C44 C 1.0895(4) 1.0116(2) 0.8065(3)
C45 C 1.3824(5) 0.4795(3) 1.4704(4)
H37 H 1.4325 0.4943 1.4647
C46 C 1.3161(4) 0.4771(2) 1.4232(3)
C47 C 0.5328(4) 0.3603(2) 0.1763(3)
C48 C 0.5354(4) 0.39519(19) 0.1368(3)
C49 C 0.5182(4) 0.3927(2) 0.0732(3)
H38 H 0.5103 0.3687 0.0546
C50 C 0.5127(4) 0.4259(2) 0.0376(3)
H39 H 0.5017 0.4238 -0.0048
C51 C 0.5234(4) 0.4625(2) 0.0639(3)
C52 C 0.5437(4) 0.4643(2) 0.1270(3)
H40 H 0.5537 0.4882 0.1455
C53 C 0.5496(4) 0.4315(2) 0.1631(4)
H41 H 0.5632 0.4337 0.2052
C54 C 0.5132(4) 0.4982(2) 0.0294(3)
H42 H 0.5266 0.5208 0.0509
C55 C 1.4369(4) 1.2398(2) 1.1918(3)
C56 C 1.3946(4) 1.21108(19) 1.1479(3)
C57 C 1.3039(5) 1.2030(2) 1.1467(4)
H43 H 1.2701 1.2144 1.1755
C58 C 1.2640(6) 1.1789(3) 1.1042(5)
H44 H 1.2032 1.1740 1.1048
C59 C 1.2558(8) 1.1372(3) 1.0205(5)
H45 H 1.1974 1.1358 1.0315
C60 C 1.3100(8) 1.1611(3) 1.0601(5)
C61 C 1.3996(7) 1.1684(3) 1.0620(4)
H46 H 1.4325 1.1567 1.0331
C62 C 1.4440(5) 1.1929(2) 1.1056(3)
H47 H 1.5053 1.1968 1.1062
C63 C 0.5160(4) 0.1372(2) 0.8205(3)
C64 C 0.5076(4) 0.1023(2) 0.8599(3)
C65 C 0.4960(6) 0.0660(2) 0.8343(4)
H48 H 0.4931 0.0630 0.7919
C66 C 0.4946(4) 0.0375(2) 0.9344(4)
C67 C 0.4887(5) 0.0339(2) 0.8715(4)
H49 H 0.4796 0.0097 0.8538
C68 C 0.4921(5) 0.0015(2) 0.9707(3)
H50 H 0.4778 -0.0211 0.9491
C69 C 0.5063(4) 0.0744(2) 0.9603(3)
H51 H 0.5105 0.0772 1.0027
C70 C 0.5118(4) 0.1067(2) 0.9231(3)
H52 H 0.5182 0.1311 0.9405
C71 C 0.6081(4) 0.25881(19) 0.8037(3)
C72 C 0.6396(4) 0.29015(19) 0.8472(3)
C73 C 0.7297(4) 0.2962(2) 0.8640(4)
H53 H 0.7719 0.2819 0.8450
C74 C 0.7580(5) 0.3229(3) 0.9082(4)
H54 H 0.8188 0.3264 0.9181
C75 C 0.6973(4) 0.3445(2) 0.9382(3)
C76 C 0.6068(4) 0.3386(2) 0.9215(3)
H55 H 0.5647 0.3526 0.9410
C77 C 0.5784(4) 0.3122(2) 0.8763(3)
H56 H 0.5177 0.3092 0.8653
C78 C 0.7240(4) 0.3724(2) 0.9849(3)
H57 H 0.6774 0.3859 1.0006
C79 C 0.8040(4) 0.3816(2) 1.0086(3)
H58 H 0.8508 0.3685 0.9927
C80 C 0.8291(4) 0.4094(2) 1.0560(3)
C81 C 0.9184(4) 0.4147(2) 1.0747(4)
H59 H 0.9606 0.4005 1.0555
C82 C 0.8867(4) 0.46239(19) 1.1482(3)
C83 C 0.9473(4) 0.4400(2) 1.1204(3)
H60 H 1.0079 0.4420 1.1326
C84 C 0.7969(4) 0.4571(2) 1.1319(4)
H61 H 0.7550 0.4713 1.1512
C85 C 0.7691(5) 0.4306(2) 1.0869(4)
H62 H 0.7082 0.4270 1.0771
C86 C 0.9174(4) 0.4923(2) 1.1949(3)
C87 C 1.0059(4) 0.6125(2) 1.1769(3)
C88 C 1.0071(4) 0.64706(19) 1.1364(3)
C89 C 0.9921(4) 0.6445(2) 1.0733(3)
H63 H 0.9848 0.6203 1.0551
C90 C 0.9879(4) 0.67642(19) 1.0372(3)
H64 H 0.9762 0.6741 0.9950
C91 C 1.0012(4) 0.7133(2) 1.0641(3)
C92 C 1.0180(4) 0.7159(2) 1.1265(3)
H65 H 1.0270 0.7401 1.1445
C93 C 1.0218(4) 0.6833(2) 1.1633(3)
H66 H 1.0340 0.6856 1.2055
C94 C 0.9954(4) 0.7491(2) 1.0275(3)
H67 H 1.0086 0.7719 1.0488
C95 C 0.9741(4) 0.7525(2) 0.9691(3)
H68 H 0.9592 0.7300 0.9477
C96 C 0.9711(4) 0.7883(2) 0.9331(3)
C97 C 0.9621(5) 0.7860(2) 0.8700(4)
H69 H 0.9528 0.7620 0.8513
C98 C 0.9669(5) 0.8187(2) 0.8338(3)
H70 H 0.9616 0.8166 0.7913
C99 C 0.9796(4) 0.85489(19) 0.8611(3)
C100 C 0.9854(4) 0.8579(2) 0.9241(3)
H71 H 0.9916 0.8820 0.9427
C101 C 0.9820(4) 0.8250(2) 0.9597(3)
H72 H 0.9870 0.8272 1.0022
C102 C 0.9882(4) 0.8897(2) 0.8207(4)
C103 C 1.1456(5) 0.8888(2) 0.6067(3)
H73 H 1.1496 0.8681 0.5802
C104 C 1.1790(4) 0.9403(2) 0.6623(3)
H74 H 1.2106 0.9611 0.6801
C105 C 1.2997(4) 0.9182(2) 0.5995(3)
H75 H 1.3504 0.9071 0.6196
C106 C 1.3003(4) 0.9397(2) 0.5398(3)
C107 C 1.3788(4) 0.9574(2) 0.5255(3)
H76 H 1.4285 0.9572 0.5539
C108 C 1.3839(5) 0.9754(3) 0.4692(4)
H77 H 1.4370 0.9873 0.4607
C109 C 1.3119(4) 0.9762(2) 0.4254(3)
C110 C 0.8276(4) 0.9877(2) 0.6872(3)
H78 H 0.8464 1.0125 0.6980
C111 C 0.7464(5) 0.9404(3) 0.6492(4)
H79 H 0.7001 0.9261 0.6294
C112 C 0.8246(5) 0.9267(3) 0.6747(4)
H80 H 0.8415 0.9009 0.6757
C113 C 1.3212(4) 0.9924(3) 0.3623(4)
H81 H 1.3669 0.9853 0.3385
C114 C 1.2336(4) 0.9587(3) 0.4410(4)
H82 H 1.1838 0.9591 0.4127
C115 C 1.2272(4) 0.9409(3) 0.4963(4)
H83 H 1.1736 0.9296 0.5048
C116 C 1.1749(5) 0.5764(2) 1.3362(4)
H84 H 1.1571 0.6020 1.3391
C117 C 1.2528(5) 0.5619(3) 1.3606(5)
H85 H 1.2980 0.5753 1.3832
C118 C 1.1754(4) 0.5171(2) 1.3131(3)
H86 H 1.1588 0.4932 1.2967
C119 C 1.3231(4) 0.4950(2) 1.3624(3)
H87 H 1.3678 0.4889 1.3372
C120 C 1.0752(5) 0.8988(2) 0.6379(3)
H88 H 1.0209 0.8858 0.6358
N1 N 0.4275(3) 0.31955(16) 0.3291(3)
N2 N 0.3977(3) 0.20174(18) 0.6930(3)
N3 N 0.2721(4) 0.22528(18) 0.6525(3)
N4 N 0.3108(3) 0.33484(17) 0.3778(3)
N5 N 0.6190(4) 0.18001(17) 0.6690(3)
N6 N 0.7358(4) 0.16640(19) 0.6201(3)
N7 N 0.7762(3) 0.2695(2) 0.3390(3)
N8 N 0.6495(3) 0.29370(17) 0.3014(3)
N9 N 1.2524(3) 0.52373(19) 1.3455(3)
N10 N 1.1259(3) 0.54782(16) 1.3067(3)
N11 N 0.9045(3) 0.57010(16) 1.3323(3)
N12 N 1.2138(3) 0.41582(18) 1.6196(3)
N13 N 1.0957(3) 0.93115(16) 0.6736(3)
N14 N 1.2110(4) 0.91635(17) 0.6227(3)
N15 N 0.8757(3) 0.95673(18) 0.6988(3)
N16 N 1.2516(4) 1.0204(2) 0.3418(3)
O1 O 0.5057(3) 0.17023(14) 0.8412(2)
O2 O 0.5356(4) 0.13171(16) 0.7664(3)
O4 O 0.5260(3) 0.25799(13) 0.7867(2)
O6 O 0.6616(3) 0.23447(14) 0.7878(2)
O8 O 0.9992(3) 0.49273(13) 1.2133(2)
O10 O 0.8636(3) 0.51719(14) 1.2113(2)
O11 O 1.0162(3) 0.57942(14) 1.1556(2)
O12 O 0.9925(3) 0.61761(14) 1.2326(2)
O13 O 0.5223(3) 0.36571(13) 0.2321(2)
O14 O 0.5382(3) 0.32724(14) 0.1541(2)
O15 O 1.5200(3) 1.23857(13) 1.2052(2)
O16 O 1.3884(3) 1.26549(14) 1.2122(2)
O17 O 0.9828(3) 0.92271(14) 0.8435(2)
O18 O 1.0022(4) 0.88419(15) 0.7658(3)
O19 O 1.1371(3) 0.98584(15) 0.7865(2)
O20 O 1.0056(3) 1.01252(13) 0.7939(2)
Cd1 Cd 0.99020(3) 0.552830(14) 1.25694(2)
Cd2 Cd 1.01078(3) 0.950654(14) 0.74775(2)
Cd3 Cd 0.53327(3) 0.197558(14) 0.74445(2)
Cd4 Cd 0.51250(3) 0.300304(14) 0.25348(2)
C29B C 1.0784(5) 0.3977(2) 1.6319(3)
H25B H 1.0247 0.3842 1.6287
C30B C 1.1497(5) 0.3885(2) 1.6024(3)
H26B H 1.1551 0.3679 1.5757
C31B C 1.1780(4) 0.4395(2) 1.6586(3)
H27B H 1.2079 0.4605 1.6772
C32B C 0.6957(4) 0.5817(2) 1.4021(3)
H28B H 0.6451 0.5920 1.3807
C33B C 0.7609(5) 0.5655(3) 1.5101(4)
H29B H 0.8098 0.5812 1.5050
C34B C 0.7558(5) 0.5469(3) 1.5652(4)
H30B H 0.8017 0.5503 1.5959
C35B C 0.6941(4) 0.5614(2) 1.4609(3)
C36B C 0.6219(5) 0.5393(2) 1.4738(4)
H31B H 0.5742 0.5369 1.4441
C45B C 0.6176(5) 0.5205(3) 1.5296(4)
H37B H 0.5675 0.5057 1.5353
C46B C 0.6839(4) 0.5229(2) 1.5768(3)
C47B C 0.4672(4) 0.6397(2) -0.1763(3)
C48B C 0.4646(4) 0.60481(19) -0.1368(3)
C49B C 0.4818(4) 0.6073(2) -0.0732(3)
H38B H 0.4897 0.6313 -0.0546
C50B C 0.4873(4) 0.5741(2) -0.0376(3)
H39B H 0.4983 0.5762 0.0048
C51B C 0.4766(4) 0.5375(2) -0.0639(3)
C52B C 0.4563(4) 0.5357(2) -0.1270(3)
H40B H 0.4463 0.5118 -0.1455
C53B C 0.4504(4) 0.5685(2) -0.1631(4)
H41B H 0.4368 0.5663 -0.2052
C54B C 0.4868(4) 0.5018(2) -0.0294(3)
H42B H 0.4734 0.4792 -0.0509
C63B C 0.4840(4) -0.1372(2) 1.1795(3)
C64B C 0.4924(4) -0.1023(2) 1.1401(3)
C65B C 0.5040(6) -0.0660(2) 1.1657(4)
H48B H 0.5069 -0.0630 1.2081
C66B C 0.5054(4) -0.0375(2) 1.0656(4)
C67B C 0.5113(5) -0.0339(2) 1.1285(4)
H49B H 0.5204 -0.0097 1.1462
C68B C 0.5079(5) -0.0015(2) 1.0293(3)
H50B H 0.5222 0.0211 1.0509
C69B C 0.4937(4) -0.0744(2) 1.0397(3)
H51B H 0.4895 -0.0772 0.9973
C70B C 0.4882(4) -0.1067(2) 1.0769(3)
H52B H 0.4818 -0.1311 1.0595
C87B C 0.9941(4) 1.3875(2) -0.1769(3)
C88B C 0.9929(4) 1.35294(19) -0.1364(3)
C89B C 1.0079(4) 1.3555(2) -0.0733(3)
H63B H 1.0152 1.3797 -0.0551
C90B C 1.0121(4) 1.32358(19) -0.0372(3)
H64B H 1.0238 1.3259 0.0050
C91B C 0.9988(4) 1.2867(2) -0.0641(3)
C92B C 0.9820(4) 1.2841(2) -0.1265(3)
H65B H 0.9730 1.2599 -0.1445
C93B C 0.9782(4) 1.3167(2) -0.1633(3)
H66B H 0.9660 1.3144 -0.2055
C94B C 1.0046(4) 1.2509(2) -0.0275(3)
H67B H 0.9914 1.2281 -0.0488
C95B C 1.0259(4) 1.2475(2) 0.0309(3)
H68B H 1.0408 1.2700 0.0523
C96B C 1.0289(4) 1.2117(2) 0.0669(3)
C97B C 1.0379(5) 1.2140(2) 0.1300(4)
H69B H 1.0472 1.2380 0.1487
C98B C 1.0331(5) 1.1813(2) 0.1662(3)
H70B H 1.0384 1.1834 0.2087
C99B C 1.0204(4) 1.14511(19) 0.1389(3)
C100B C 1.0146(4) 1.1421(2) 0.0759(3)
H71B H 1.0084 1.1180 0.0573
C101B C 1.0180(4) 1.1750(2) 0.0403(3)
H72B H 1.0130 1.1728 -0.0022
C102B C 1.0118(4) 1.1103(2) 0.1793(4)
C103B C 0.8544(5) 1.1112(2) 0.3933(3)
H73B H 0.8504 1.1319 0.4198
C104B C 0.8210(4) 1.0597(2) 0.3377(3)
H74B H 0.7894 1.0389 0.3199
C105B C 0.7003(4) 1.0818(2) 0.4005(3)
H75B H 0.6496 1.0929 0.3804
C106B C 0.6997(4) 1.0603(2) 0.4602(3)
C107B C 0.6212(4) 1.0426(2) 0.4745(3)
H76B H 0.5715 1.0428 0.4461
C108B C 0.6161(5) 1.0246(3) 0.5308(4)
H77B H 0.5630 1.0127 0.5393
C109B C 0.6881(4) 1.0238(2) 0.5746(3)
C110B C 1.1724(4) 1.0123(2) 0.3128(3)
H78B H 1.1536 0.9875 0.3020
C111B C 1.2536(5) 1.0596(3) 0.3508(4)
H79B H 1.2999 1.0739 0.3706
C112B C 1.1754(5) 1.0733(3) 0.3253(4)
H80B H 1.1585 1.0991 0.3243
C113B C 0.6788(4) 1.0076(3) 0.6377(4)
H81B H 0.6331 1.0147 0.6615
C114B C 0.7664(4) 1.0413(3) 0.5590(4)
H82B H 0.8162 1.0409 0.5873
C115B C 0.7728(4) 1.0591(3) 0.5037(4)
H83B H 0.8264 1.0704 0.4952
C116B C 0.8251(5) 0.4236(2) 1.6638(4)
H84B H 0.8429 0.3980 1.6609
C117B C 0.7472(5) 0.4381(3) 1.6394(5)
H85B H 0.7020 0.4247 1.6168
C118B C 0.8246(4) 0.4829(2) 1.6869(3)
H86B H 0.8412 0.5068 1.7033
C119B C 0.6769(4) 0.5050(2) 1.6376(3)
H87B H 0.6322 0.5111 1.6628
C120B C 0.9248(5) 1.1012(2) 0.3621(3)
H88B H 0.9791 1.1142 0.3642
N9B N 0.7476(3) 0.47627(19) 1.6545(3)
N10B N 0.8741(3) 0.45218(16) 1.6933(3)
N11B N 1.0955(3) 0.42990(16) 1.6677(3)
N12B N 0.7862(3) 0.58418(18) 1.3804(3)
N13B N 0.9043(3) 1.06885(16) 0.3264(3)
N14B N 0.7890(4) 1.08365(17) 0.3773(3)
N15B N 1.1243(3) 1.04327(18) 0.3012(3)
N16B N 0.7484(4) 0.9796(2) 0.6582(3)
O1B O 0.4943(3) -0.17023(14) 1.1588(2)
O2B O 0.4644(4) -0.13171(16) 1.2336(3)
O8B O 1.0008(3) 0.50727(13) 1.7867(2)
O10B O 1.1364(3) 0.48281(14) 1.7887(2)
O11B O 0.9838(3) 0.42058(14) 1.8444(2)
O11B_2 O 0.9838(3) 1.42058(14) -0.1556(2)
O12B O 1.0075(3) 0.38239(14) 1.7674(2)
O12B_2 O 1.0075(3) 1.38239(14) -0.2326(2)
O13B O 0.4777(3) 0.63429(13) -0.2321(2)
O14B O 0.4618(3) 0.67276(14) -0.1541(2)
O15_2 O 0.5200(3) 0.23857(13) 0.2052(2)
O16_2 O 0.3884(3) 0.26549(14) 0.2122(2)
O17B O 1.0172(3) 1.07729(14) 0.1565(2)
O18B O 0.9978(4) 1.11581(15) 0.2342(3)
O19B O 0.8629(3) 1.01416(15) 0.2135(2)
O20B O 0.9944(3) 0.98748(13) 0.2061(2)
Cd1B Cd 1.00980(3) 0.447170(14) 1.74306(2)
Cd1B_2 Cd 1.00980(3) 1.447170(14) -0.25694(2)
Cd2B Cd 0.98922(3) 1.049346(14) 0.25225(2)
Cd3B Cd 0.46673(3) -0.197558(14) 1.25555(2)
Cd4_2 Cd 1.51250(3) 1.300304(14) 1.25348(2)
Cd4B Cd 0.48750(3) 0.699696(14) -0.25348(2)
O3 O 0.8653(3) 0.67450(15) 1.2624(3)
O5 O 0.8920(4) 1.07705(15) 0.7608(3)
O7 O 0.6730(5) 0.6739(2) 1.2714(4)
O9 O 0.6966(5) 1.0743(2) 0.7643(4)
loop_
_geom_bond_atom_site_label_1
_geom_bond_atom_site_label_2
_geom_bond_site_symmetry_1
_geom_bond_site_symmetry_2
C1 H1 1_555 1_555
C2 H2 1_555 1_555
C3 H3 1_555 1_555
C4 C3 1_555 1_555
C5 C4 1_555 1_555
H4 C5 1_555 1_555
C6 C5 1_555 1_555
H5 C6 1_555 1_555
C7 C2 1_555 1_555
H6 C7 1_555 1_555
C8 C4 1_555 1_555
H7 C8 1_555 1_555
C9 H8 1_555 1_555
C10 C9 1_555 1_555
H9 C10 1_555 1_555
C11 H10 1_555 1_555
C12 H11 1_555 1_555
C13 C6 1_555 1_555
C14 C8 1_555 1_555
H12 C14 1_555 1_555
C15 H13 1_555 1_555
C16 C15 1_555 1_555
H14 C16 1_555 1_555
C17 H15 1_555 1_555
C18 H16 1_555 1_555
C19 C18 1_555 1_555
C20 C19 1_555 1_555
H17 C20 1_555 1_555
C21 C20 1_555 1_555
H18 C21 1_555 1_555
C22 C21 1_555 1_555
C23 C22 1_555 1_555
H19 C23 1_555 1_555
C24 C19 1_555 1_555
H20 C24 1_555 1_555
C25 C22 1_555 1_555
H21 C25 1_555 1_555
C26 H22 1_555 1_555
C27 H23 1_555 1_555
C28 C27 1_555 1_555
H24 C28 1_555 1_555
C29 H25 1_555 1_555
C30 C29 1_555 1_555
H26 C30 1_555 1_555
C31 H27 1_555 1_555
C32 H28 1_555 1_555
C33 H29 1_555 1_555
C34 C33 1_555 1_555
H30 C34 1_555 1_555
C35 C32 1_555 1_555
C36 C35 1_555 1_555
H31 C36 1_555 1_555
C37 H32 1_555 1_555
C38 C37 1_555 1_555
C39 C38 1_555 1_555
H33 C39 1_555 1_555
C40 C39 1_555 1_555
H34 C40 1_555 1_555
C41 C40 1_555 1_555
C42 C41 1_555 1_555
H35 C42 1_555 1_555
C43 C38 1_555 1_555
H36 C43 1_555 1_555
C44 C41 1_555 1_555
C45 C36 1_555 1_555
H37 C45 1_555 1_555
C46 C34 1_555 1_555
C47 C48 1_555 1_555
C48 C49 1_555 1_555
C49 H38 1_555 1_555
C50 C49 1_555 1_555
H39 C50 1_555 1_555
C51 C50 1_555 1_555
C52 C51 1_555 1_555
H40 C52 1_555 1_555
C53 C48 1_555 1_555
H41 C53 1_555 1_555
C54 C51 1_555 1_555
H42 C54 1_555 1_555
C55 C56 1_555 1_555
C56 C57 1_555 1_555
C57 H43 1_555 1_555
C58 C57 1_555 1_555
H44 C58 1_555 1_555
C59 C37 1_555 1_555
H45 C59 1_555 1_555
C60 C58 1_555 1_555
C61 C60 1_555 1_555
H46 C61 1_555 1_555
C62 C56 1_555 1_555
H47 C62 1_555 1_555
C63 C64 1_555 1_555
C64 C65 1_555 1_555
C65 H48 1_555 1_555
C66 C67 1_555 1_555
C67 C65 1_555 1_555
H49 C67 1_555 1_555
C68 C66 1_555 1_555
H50 C68 1_555 1_555
C69 C66 1_555 1_555
H51 C69 1_555 1_555
C70 C64 1_555 1_555
H52 C70 1_555 1_555
C71 C72 1_555 1_555
C72 C73 1_555 1_555
C73 H53 1_555 1_555
C74 C73 1_555 1_555
H54 C74 1_555 1_555
C75 C74 1_555 1_555
C76 C75 1_555 1_555
H55 C76 1_555 1_555
C77 C72 1_555 1_555
H56 C77 1_555 1_555
C78 C75 1_555 1_555
H57 C78 1_555 1_555
C79 C78 1_555 1_555
H58 C79 1_555 1_555
C80 C79 1_555 1_555
C81 C80 1_555 1_555
H59 C81 1_555 1_555
C82 C83 1_555 1_555
C83 C81 1_555 1_555
H60 C83 1_555 1_555
C84 C82 1_555 1_555
H61 C84 1_555 1_555
C85 C80 1_555 1_555
H62 C85 1_555 1_555
C86 C82 1_555 1_555
C87 C88 1_555 1_555
C88 C89 1_555 1_555
C89 H63 1_555 1_555
C90 C89 1_555 1_555
H64 C90 1_555 1_555
C91 C90 1_555 1_555
C92 C91 1_555 1_555
H65 C92 1_555 1_555
C93 C88 1_555 1_555
H66 C93 1_555 1_555
C94 C91 1_555 1_555
H67 C94 1_555 1_555
C95 C94 1_555 1_555
H68 C95 1_555 1_555
C96 C95 1_555 1_555
C97 C96 1_555 1_555
H69 C97 1_555 1_555
C98 C97 1_555 1_555
H70 C98 1_555 1_555
C99 C98 1_555 1_555
C100 C99 1_555 1_555
H71 C100 1_555 1_555
C101 C96 1_555 1_555
H72 C101 1_555 1_555
C102 C99 1_555 1_555
C103 H73 1_555 1_555
C104 H74 1_555 1_555
C105 H75 1_555 1_555
C106 C105 1_555 1_555
C107 C106 1_555 1_555
H76 C107 1_555 1_555
C108 C107 1_555 1_555
H77 C108 1_555 1_555
C109 C108 1_555 1_555
C110 H78 1_555 1_555
C111 H79 1_555 1_555
C112 C111 1_555 1_555
H80 C112 1_555 1_555
C113 C109 1_555 1_555
H81 C113 1_555 1_555
C114 C109 1_555 1_555
H82 C114 1_555 1_555
C115 C106 1_555 1_555
H83 C115 1_555 1_555
C116 H84 1_555 1_555
C117 C116 1_555 1_555
H85 C117 1_555 1_555
C118 H86 1_555 1_555
C119 C46 1_555 1_555
H87 C119 1_555 1_555
C120 C103 1_555 1_555
H88 C120 1_555 1_555
N1 C10 1_555 1_555
N2 C1 1_555 1_555
N3 C1 1_555 1_555
N4 C9 1_555 1_555
N5 C15 1_555 1_555
N6 C16 1_555 1_555
N7 C25 1_555 1_555
N8 C26 1_555 1_555
N9 C117 1_555 1_555
N10 C116 1_555 1_555
N11 C29 1_555 1_555
N12 C32 1_555 1_555
N13 C104 1_555 1_555
N14 C103 1_555 1_555
N15 C110 1_555 1_555
N16 C113 1_555 1_555
O1 C63 1_555 1_555
O2 C63 1_555 1_555
O4 C71 1_555 1_555
O6 C71 1_555 1_555
O8 C86 1_555 1_555
O10 C86 1_555 1_555
O11 C87 1_555 1_555
O12 C87 1_555 1_555
O13 C47 1_555 1_555
O14 C47 1_555 1_555
O15 C55 1_555 1_555
O16 C55 1_555 1_555
O17 C102 1_555 1_555
O18 C102 1_555 1_555
O19 C44 1_555 1_555
O20 C44 1_555 1_555
Cd1 N10 1_555 1_555
Cd2 N13 1_555 1_555
Cd3 N2 1_555 1_555
Cd4 N1 1_555 1_555
C29B H25B 1_555 1_555
C30B N12 1_555 1_555
H26B C30B 1_555 1_555
C31B N12 1_555 1_555
H27B C31B 1_555 1_555
C32B H28B 1_555 1_555
C33B H29B 1_555 1_555
C34B C33B 1_555 1_555
H30B C34B 1_555 1_555
C35B C32B 1_555 1_555
C36B C35B 1_555 1_555
H31B C36B 1_555 1_555
C45B C36B 1_555 1_555
H37B C45B 1_555 1_555
C46B C34B 1_555 1_555
C47B C48B 1_555 1_555
C48B C49B 1_555 1_555
C49B H38B 1_555 1_555
C50B C49B 1_555 1_555
H39B C50B 1_555 1_555
C51B C50B 1_555 1_555
C52B C51B 1_555 1_555
H40B C52B 1_555 1_555
C53B C48B 1_555 1_555
H41B C53B 1_555 1_555
C54B C54 1_555 1_555
H42B C54B 1_555 1_555
C63B C64B 1_555 1_555
C64B C65B 1_555 1_555
C65B H48B 1_555 1_555
C66B C67B 1_555 1_555
C67B C65B 1_555 1_555
H49B C67B 1_555 1_555
C68B C68 1_555 1_555
H50B C68B 1_555 1_555
C69B C66B 1_555 1_555
H51B C69B 1_555 1_555
C70B C64B 1_555 1_555
H52B C70B 1_555 1_555
C87B C88B 1_555 1_555
C88B C89B 1_555 1_555
C89B H63B 1_555 1_555
C90B C89B 1_555 1_555
H64B C90B 1_555 1_555
C91B C90B 1_555 1_555
C92B C91B 1_555 1_555
H65B C92B 1_555 1_555
C93B C88B 1_555 1_555
H66B C93B 1_555 1_555
C94B C91B 1_555 1_555
H67B C94B 1_555 1_555
C95B C94B 1_555 1_555
H68B C95B 1_555 1_555
C96B C95B 1_555 1_555
C97B C96B 1_555 1_555
H69B C97B 1_555 1_555
C98B C97B 1_555 1_555
H70B C98B 1_555 1_555
C99B C98B 1_555 1_555
C100B C99B 1_555 1_555
H71B C100B 1_555 1_555
C101B C96B 1_555 1_555
H72B C101B 1_555 1_555
C102B C99B 1_555 1_555
C103B H73B 1_555 1_555
C104B H74B 1_555 1_555
C105B H75B 1_555 1_555
C106B C105B 1_555 1_555
C107B C106B 1_555 1_555
H76B C107B 1_555 1_555
C108B C107B 1_555 1_555
H77B C108B 1_555 1_555
C109B C108B 1_555 1_555
C110B N16 1_555 1_555
H78B C110B 1_555 1_555
C111B N16 1_555 1_555
H79B C111B 1_555 1_555
C112B C111B 1_555 1_555
H80B C112B 1_555 1_555
C113B C109B 1_555 1_555
H81B C113B 1_555 1_555
C114B C109B 1_555 1_555
H82B C114B 1_555 1_555
C115B C106B 1_555 1_555
H83B C115B 1_555 1_555
C116B H84B 1_555 1_555
C117B C116B 1_555 1_555
H85B C117B 1_555 1_555
C118B H86B 1_555 1_555
C119B C46B 1_555 1_555
H87B C119B 1_555 1_555
C120B C103B 1_555 1_555
H88B C120B 1_555 1_555
N9B C117B 1_555 1_555
N10B C116B 1_555 1_555
N11B C29B 1_555 1_555
N12B C30 1_555 1_555
N13B C104B 1_555 1_555
N14B C103B 1_555 1_555
N15B C110B 1_555 1_555
N16B C110 1_555 1_555
O1B C63B 1_555 1_555
O2B C63B 1_555 1_555
O8B Cd1B 1_555 1_555
O10B Cd1B 1_555 1_555
O11B Cd1B 1_555 1_555
O11B_2 C87B 1_555 1_555
O12B Cd1B 1_555 1_555
O12B_2 C87B 1_555 1_555
O13B C47B 1_555 1_555
O14B C47B 1_555 1_555
O15_2 Cd4 1_555 1_555
O16_2 Cd4 1_555 1_555
O17B C102B 1_555 1_555
O18B C102B 1_555 1_555
O19B Cd2B 1_555 1_555
O20B Cd2B 1_555 1_555
Cd1B N10B 1_555 1_555
Cd1B_2 O11B_2 1_555 1_555
Cd2B N13B 1_555 1_555
Cd3B O1B 1_555 1_555
Cd4_2 O15 1_555 1_555
Cd4B O13B 1_555 1_555
C2 N2 1_555 1_555
C3 N3 1_555 1_555
C7 N3 1_555 1_555
C11 N1 1_555 1_555
C11 N4 1_555 1_555
C12 C13 1_555 1_555
C12 N4 1_555 1_555
C13 C14 1_555 1_555
C17 N5 1_555 1_555
C17 N6 1_555 1_555
C18 N6 1_555 1_555
C23 C24 1_555 1_555
C26 N7 1_555 1_555
C27 N7 1_555 1_555
C28 N8 1_555 1_555
C31 N11 1_555 1_555
C31 N12B 1_555 1_555
C33 C35 1_555 1_555
C42 C43 1_555 1_555
C45 C46 1_555 1_555
C52 C53 1_555 1_555
C59 C60 1_555 1_555
C61 C62 1_555 1_555
C69 C70 1_555 1_555
C76 C77 1_555 1_555
C84 C85 1_555 1_555
C92 C93 1_555 1_555
C100 C101 1_555 1_555
C104 N14 1_555 1_555
C105 N14 1_555 1_555
C111 N16B 1_555 1_555
C112 N15 1_555 1_555
C114 C115 1_555 1_555
C118 N9 1_555 1_555
C118 N10 1_555 1_555
C119 N9 1_555 1_555
C120 N13 1_555 1_555
N5 Cd3 1_555 1_555
N8 Cd4 1_555 1_555
N11 Cd1 1_555 1_555
N15 Cd2 1_555 1_555
O1 Cd3 1_555 1_555
O2 Cd3 1_555 1_555
O4 Cd3 1_555 1_555
O6 Cd3 1_555 1_555
O8 Cd1 1_555 1_555
O10 Cd1 1_555 1_555
O11 Cd1 1_555 1_555
O12 Cd1 1_555 1_555
O13 Cd4 1_555 1_555
O14 Cd4 1_555 1_555
O16 Cd4_2 1_555 1_555
O17 Cd2 1_555 1_555
O18 Cd2 1_555 1_555
O19 Cd2 1_555 1_555
O20 Cd2 1_555 1_555
C29B C30B 1_555 1_555
C31B N11B 1_555 1_555
C32B N12B 1_555 1_555
C33B C35B 1_555 1_555
C45B C46B 1_555 1_555
C51B C54B 1_555 1_555
C52B C53B 1_555 1_555
C66B C68B 1_555 1_555
C69B C70B 1_555 1_555
C92B C93B 1_555 1_555
C100B C101B 1_555 1_555
C104B N14B 1_555 1_555
C105B N14B 1_555 1_555
C112B N15B 1_555 1_555
C113B N16B 1_555 1_555
C114B C115B 1_555 1_555
C118B N9B 1_555 1_555
C118B N10B 1_555 1_555
C119B N9B 1_555 1_555
C120B N13B 1_555 1_555
N11B Cd1B 1_555 1_555
N15B Cd2B 1_555 1_555
O2B Cd3B 1_555 1_555
O12B_2 Cd1B_2 1_555 1_555
O14B Cd4B 1_555 1_555
O17B Cd2B 1_555 1_555
O18B Cd2B 1_555 1_555

#END
