
#######################################################################
#
#                 Cambridge Crystallographic Data Centre
#                                CCDC 
#
#######################################################################
#
# If this CIF has been generated from an entry in the Cambridge 
# Structural Database, then it will include bibliographic, chemical, 
# crystal, experimental, refinement or atomic coordinate data resulting 
# from the CCDC's data processing and validation procedures.
#
#######################################################################

data_BOBJAE
_symmetry_cell_setting           triclinic
_symmetry_space_group_name_H-M   'P -1'
_symmetry_Int_Tables_number      2
_space_group_name_Hall           '-P 1'
loop_
_symmetry_equiv_pos_site_id
_symmetry_equiv_pos_as_xyz
1 x,y,z
2 -x,-y,-z
_cell_length_a                   14.674(3)
_cell_length_b                   16.276(3)
_cell_length_c                   18.847(4)
_cell_angle_alpha                83.63(3)
_cell_angle_beta                 82.24(3)
_cell_angle_gamma                76.43(3)
_cell_volume                     4320.87
loop_
_atom_site_label
_atom_site_type_symbol
_atom_site_fract_x
_atom_site_fract_y
_atom_site_fract_z
Tb1 Tb 0.75728(3) 0.29787(3) 0.29505(2)
P1 P 0.67549(17) 0.09097(17) 0.32283(14)
O1 O 0.7185(4) 0.2775(4) 0.4165(3)
N1 N 0.6992(5) 0.3015(5) 0.5379(4)
C1 C 0.7366(5) 0.3100(6) 0.4683(5)
Tb2 Tb 0.80936(3) 0.67624(3) 0.25135(2)
P2 P 0.86802(17) -0.11539(16) 0.20812(14)
O2 O 0.8569(4) 0.3624(4) 0.3468(3)
N2 N 0.7347(5) 0.3447(5) 0.5834(4)
C2 C 0.8035(6) 0.3630(5) 0.4696(4)
O3 O 0.9558(4) 0.6647(4) 0.1879(3)
N3 N 1.1035(4) 0.5940(5) 0.1369(4)
C3 C 0.7957(6) 0.3814(6) 0.5434(5)
O4 O 0.9026(4) 0.5592(3) 0.3095(3)
N4 N 1.1707(5) 0.5199(5) 0.1512(4)
C4 C 0.8461(6) 0.4321(6) 0.5783(5)
H1 H 0.8244 0.4318 0.6287
H2 H 0.8338 0.4894 0.5569
H3 H 0.9126 0.4080 0.5718
O5 O 0.8992(4) 0.2108(4) 0.2597(3)
N5 N 1.0560(4) 0.1722(5) 0.2123(4)
C5 C 0.6278(6) 0.2562(6) 0.5666(5)
N6 N 1.1201(5) 0.2072(5) 0.1620(4)
C6 C 0.6142(7) 0.2398(6) 0.6407(5)
H4 H 0.6524 0.2548 0.6704
O6 O 0.8211(4) 0.3702(4) 0.1941(3)
N7 N 0.5577(5) 0.7228(5) 0.1307(4)
C7 C 0.5411(7) 0.2000(7) 0.6691(6)
H5 H 0.5300 0.1889 0.7186
O7 O 0.6896(3) 0.7304(3) 0.1771(3)
N8 N 0.5283(5) 0.6630(5) 0.0952(4)
C8 C 0.4862(8) 0.1772(7) 0.6263(7)
H6 H 0.4387 0.1499 0.6465
O8 O 0.8218(4) 0.5742(4) 0.1701(3)
N9 N 0.5023(5) 0.3557(5) 0.1701(4)
C9 C 0.4995(7) 0.1937(6) 0.5549(6)
H7 H 0.4602 0.1790 0.5260
O9 O 0.6397(4) 0.3112(4) 0.2210(3)
O10 O 0.6504(4) 0.4265(4) 0.3176(3)
N10 N 0.4256(5) 0.4278(5) 0.1719(4)
C10 C 0.5718(6) 0.2326(6) 0.5236(5)
H8 H 0.5820 0.2426 0.4739
O11 O 0.8039(4) 0.7129(3) 0.3657(3)
C11 C 0.8622(6) 0.3845(5) 0.4075(5)
N11 N 0.7862(5) 0.6910(5) 0.4923(4)
O12 O 0.6874(4) 0.6219(4) 0.3146(3)
N12 N 0.7315(5) 0.6527(5) 0.5457(4)
C12 C 0.9401(5) 0.4299(5) 0.4154(4)
H9 H 0.9112 0.4872 0.4279
H10 H 0.9747 0.4008 0.4547
O13 O 0.7264(4) 0.1625(3) 0.3075(3)
C13 C 1.0096(5) 0.4342(6) 0.3477(5)
H11 H 1.0709 0.4334 0.3620
H12 H 1.0159 0.3837 0.3229
O14 O 0.8125(4) -0.1808(3) 0.2342(3)
C14 C 0.9824(5) 0.5116(5) 0.2955(5)
C15 C 1.0246(5) 0.6030(6) 0.1870(5)
C16 C 1.0456(6) 0.5284(5) 0.2353(5)
C17 C 1.1364(6) 0.4828(6) 0.2097(5)
C18 C 1.1963(6) 0.4001(6) 0.2383(5)
H13 H 1.2545 0.3867 0.2074
H14 H 1.1630 0.3556 0.2397
H15 H 1.2095 0.4055 0.2858
C19 C 1.1230(6) 0.6507(6) 0.0781(5)
C20 C 1.0535(6) 0.7118(6) 0.0456(5)
H16 H 0.9904 0.7169 0.0636
C21 C 1.0775(7) 0.7646(6) -0.0128(5)
H17 H 1.0302 0.8046 -0.0335
C22 C 1.1685(8) 0.7595(7) -0.0405(6)
H18 H 1.1833 0.7950 -0.0805
C23 C 1.2403(7) 0.7001(7) -0.0084(6)
H19 H 1.3030 0.6967 -0.0269
C24 C 1.2186(6) 0.6469(6) 0.0504(5)
H20 H 1.2666 0.6085 0.0719
C25 C 0.9694(6) 0.2283(5) 0.2202(4)
C26 C 0.9773(6) 0.2985(6) 0.1713(5)
C27 C 1.0739(5) 0.2820(6) 0.1363(5)
C28 C 1.1228(6) 0.3334(6) 0.0820(5)
H21 H 1.1875 0.3044 0.0722
H22 H 1.1200 0.3871 0.0998
H23 H 1.0928 0.3425 0.0387
C29 C 1.0877(6) 0.0924(6) 0.2504(5)
C30 C 1.1807(6) 0.0519(7) 0.2373(6)
H24 H 1.2214 0.0763 0.2039
C31 C 1.2139(7) -0.0260(7) 0.2741(6)
H25 H 1.2763 -0.0549 0.2644
C32 C 1.1529(8) -0.0602(7) 0.3257(6)
H26 H 1.1753 -0.1104 0.3530
C33 C 1.0608(7) -0.0201(6) 0.3361(6)
H27 H 1.0195 -0.0445 0.3690
C34 C 1.0278(6) 0.0549(6) 0.2992(5)
H28 H 0.9642 0.0813 0.3068
C35 C 0.9013(6) 0.3662(6) 0.1574(4)
C36 C 0.9057(6) 0.4341(6) 0.0952(5)
H29 H 0.9361 0.4068 0.0523
H30 H 0.9446 0.4708 0.1059
C37 C 0.8092(6) 0.4885(6) 0.0799(5)
H31 H 0.8145 0.5143 0.0310
H32 H 0.7651 0.4519 0.0830
C38 C 0.7701(7) 0.5563(6) 0.1289(5)
C39 C 0.6483(7) 0.6879(7) 0.1472(5)
C40 C 0.6773(6) 0.6056(6) 0.1244(4)
C41 C 0.5990(6) 0.5953(6) 0.0912(5)
C42 C 0.5859(6) 0.5233(6) 0.0528(5)
H33 H 0.5206 0.5208 0.0595
H34 H 0.6231 0.4709 0.0719
H35 H 0.6058 0.5322 0.0024
C43 C 0.5025(6) 0.8061(6) 0.1297(5)
C44 C 0.5434(6) 0.8720(7) 0.1410(5)
H36 H 0.6045 0.8608 0.1536
C45 C 0.4916(7) 0.9539(7) 0.1330(5)
H37 H 0.5199 0.9987 0.1362
C46 C 0.3996(7) 0.9704(7) 0.1207(6)
H38 H 0.3636 1.0257 0.1182
C47 C 0.3616(7) 0.9043(8) 0.1122(6)
H39 H 0.2988 0.9153 0.1036
C48 C 0.4120(6) 0.8219(7) 0.1157(5)
H40 H 0.3845 0.7779 0.1085
C49 C 0.5670(8) 0.3648(6) 0.2139(5)
C50 C 0.5301(6) 0.4419(6) 0.2444(5)
C51 C 0.4440(6) 0.4775(6) 0.2159(5)
C52 C 0.3738(6) 0.5587(6) 0.2263(5)
H41 H 0.3224 0.5621 0.1988
H42 H 0.4034 0.6053 0.2107
H43 H 0.3504 0.5612 0.2763
C53 C 0.4992(6) 0.2880(6) 0.1307(5)
C54 C 0.4198(6) 0.2925(7) 0.0968(5)
H44 H 0.3691 0.3390 0.1005
C55 C 0.4177(9) 0.2260(8) 0.0571(5)
H45 H 0.3650 0.2294 0.0336
C56 C 0.4879(7) 0.1579(7) 0.0514(5)
H46 H 0.4836 0.1136 0.0258
C57 C 0.5682(7) 0.1544(7) 0.0846(5)
H47 H 0.6189 0.1080 0.0798
C58 C 0.5733(7) 0.2195(6) 0.1248(5)
H48 H 0.6267 0.2165 0.1475
C59 C 0.5755(6) 0.4699(6) 0.2959(5)
C60 C 0.5318(5) 0.5521(5) 0.3303(5)
H49 H 0.4651 0.5544 0.3438
H50 H 0.5369 0.5989 0.2945
C61 C 0.5745(5) 0.5653(5) 0.3959(5)
H51 H 0.5260 0.5996 0.4272
H52 H 0.5951 0.5106 0.4219
C62 C 0.6570(6) 0.6075(5) 0.3793(6)
C63 C 0.7674(5) 0.6810(5) 0.4246(5)
C64 C 0.6974(5) 0.6300(5) 0.4370(4)
C65 C 0.6778(6) 0.6187(6) 0.5122(5)
C66 C 0.6104(6) 0.5712(7) 0.5578(5)
H53 H 0.6165 0.5728 0.6077
H54 H 0.6252 0.5134 0.5460
H55 H 0.5468 0.5974 0.5487
C67 C 0.8536(6) 0.7316(5) 0.5115(5)
C68 C 0.9279(7) 0.7489(6) 0.4615(5)
H56 H 0.9339 0.7335 0.4148
C69 C 0.9915(7) 0.7886(6) 0.4820(5)
H57 H 1.0397 0.8020 0.4486
C70 C 0.9841(7) 0.8089(6) 0.5527(6)
H58 H 1.0287 0.8338 0.5672
C71 C 0.9112(8) 0.7919(7) 0.6006(6)
H59 H 0.9056 0.8073 0.6473
C72 C 0.8460(7) 0.7529(6) 0.5819(5)
H60 H 0.7975 0.7408 0.6156
C73 C 0.7213(6) 0.0082(6) 0.2612(5)
H61 H 0.6899 -0.0383 0.2752
H62 H 0.7073 0.0308 0.2130
C74 C 0.8300(6) -0.0258(6) 0.2607(5)
H63 H 0.8454 -0.0423 0.3094
H64 H 0.8625 0.0184 0.2405
C75 C 0.5527(6) 0.1248(7) 0.3138(5)
C76 C 0.5024(6) 0.0738(7) 0.2876(5)
H65 H 0.5305 0.0175 0.2800
C77 C 0.4100(7) 0.1076(8) 0.2728(6)
H66 H 0.3785 0.0731 0.2540
C78 C 0.3641(7) 0.1869(8) 0.2843(6)
H67 H 0.3032 0.2082 0.2719
C79 C 0.4107(7) 0.2361(8) 0.3152(6)
H68 H 0.3796 0.2907 0.3261
C80 C 0.5022(7) 0.2054(7) 0.3299(5)
H69 H 0.5313 0.2396 0.3514
C81 C 0.6913(7) 0.0407(7) 0.4123(5)
C82 C 0.6327(9) -0.0087(8) 0.4478(7)
H70 H 0.5818 -0.0167 0.4269
C83 C 0.6513(11) -0.0469(9) 0.5162(8)
H71 H 0.6141 -0.0827 0.5401
C84 C 0.7200(11) -0.0327(10) 0.5468(8)
H72 H 0.7307 -0.0576 0.5926
C85 C 0.7779(10) 0.0199(10) 0.5112(7)
H73 H 0.8254 0.0310 0.5341
C86 C 0.7655(9) 0.0528(9) 0.4469(7)
H74 H 0.8064 0.0852 0.4230
C87 C 0.9922(6) -0.1548(6) 0.2135(6)
C88 C 1.0189(8) -0.2082(7) 0.2747(6)
H75 H 0.9739 -0.2178 0.3125
C89 C 1.1100(9) -0.2449(8) 0.2778(7)
H76 H 1.1274 -0.2763 0.3201
C90 C 1.1762(8) -0.2389(8) 0.2244(7)
H77 H 1.2376 -0.2702 0.2271
C91 C 1.1532(8) -0.1853(9) 0.1640(7)
H78 H 1.1999 -0.1786 0.1267
C92 C 1.0595(6) -0.1409(6) 0.1590(5)
H79 H 1.0437 -0.1029 0.1196
C93 C 0.8512(6) -0.0800(6) 0.1163(5)
C94 C 0.8209(7) -0.1315(7) 0.0737(6)
H80 H 0.8028 -0.1806 0.0944
C95 C 0.8181(7) -0.1091(8) 0.0011(6)
H81 H 0.7995 -0.1440 -0.0274
C96 C 0.8427(8) -0.0357(8) -0.0294(6)
H82 H 0.8397 -0.0206 -0.0782
C97 C 0.8719(8) 0.0155(7) 0.0121(6)
H83 H 0.8884 0.0653 -0.0087
C98 C 0.8764(7) -0.0062(7) 0.0826(6)
H84 H 0.8970 0.0287 0.1098
Tb2_2 Tb 0.80936(3) -0.32376(3) 0.25135(2)
O14_2 O 0.8125(4) 0.8192(3) 0.2342(3)
loop_
_geom_bond_atom_site_label_1
_geom_bond_atom_site_label_2
_geom_bond_site_symmetry_1
_geom_bond_site_symmetry_2
Tb1 O1 1_555 1_555
P1 O13 1_555 1_555
O1 C1 1_555 1_555
N1 C1 1_555 1_555
C1 C2 1_555 1_555
Tb2 O3 1_555 1_555
P2 O14 1_555 1_555
O2 Tb1 1_555 1_555
N2 N1 1_555 1_555
C2 C3 1_555 1_555
O3 C15 1_555 1_555
N3 N4 1_555 1_555
C3 N2 1_555 1_555
O4 Tb2 1_555 1_555
N4 C17 1_555 1_555
C4 C3 1_555 1_555
H1 C4 1_555 1_555
H2 C4 1_555 1_555
H3 C4 1_555 1_555
O5 Tb1 1_555 1_555
N5 N6 1_555 1_555
C5 N1 1_555 1_555
N6 C27 1_555 1_555
C6 C5 1_555 1_555
H4 C6 1_555 1_555
O6 Tb1 1_555 1_555
N7 N8 1_555 1_555
C7 C6 1_555 1_555
H5 C7 1_555 1_555
O7 Tb2 1_555 1_555
N8 C41 1_555 1_555
C8 C7 1_555 1_555
H6 C8 1_555 1_555
O8 Tb2 1_555 1_555
N9 N10 1_555 1_555
C9 C8 1_555 1_555
H7 C9 1_555 1_555
O9 Tb1 1_555 1_555
O10 Tb1 1_555 1_555
N10 C51 1_555 1_555
C10 C5 1_555 1_555
H8 C10 1_555 1_555
O11 Tb2 1_555 1_555
C11 O2 1_555 1_555
N11 N12 1_555 1_555
O12 Tb2 1_555 1_555
N12 C65 1_555 1_555
C12 C11 1_555 1_555
H9 C12 1_555 1_555
H10 C12 1_555 1_555
O13 Tb1 1_555 1_555
C13 C12 1_555 1_555
H11 C13 1_555 1_555
H12 C13 1_555 1_555
O14 Tb2_2 1_555 1_555
C14 O4 1_555 1_555
C15 N3 1_555 1_555
C16 C14 1_555 1_555
C17 C16 1_555 1_555
C18 C17 1_555 1_555
H13 C18 1_555 1_555
H14 C18 1_555 1_555
H15 C18 1_555 1_555
C19 N3 1_555 1_555
C20 C19 1_555 1_555
H16 C20 1_555 1_555
C21 C20 1_555 1_555
H17 C21 1_555 1_555
C22 C21 1_555 1_555
H18 C22 1_555 1_555
C23 C22 1_555 1_555
H19 C23 1_555 1_555
C24 C19 1_555 1_555
H20 C24 1_555 1_555
C25 O5 1_555 1_555
C26 C25 1_555 1_555
C27 C26 1_555 1_555
C28 C27 1_555 1_555
H21 C28 1_555 1_555
H22 C28 1_555 1_555
H23 C28 1_555 1_555
C29 N5 1_555 1_555
C30 C29 1_555 1_555
H24 C30 1_555 1_555
C31 C30 1_555 1_555
H25 C31 1_555 1_555
C32 C31 1_555 1_555
H26 C32 1_555 1_555
C33 C32 1_555 1_555
H27 C33 1_555 1_555
C34 C29 1_555 1_555
H28 C34 1_555 1_555
C35 O6 1_555 1_555
C36 C35 1_555 1_555
H29 C36 1_555 1_555
H30 C36 1_555 1_555
C37 C36 1_555 1_555
H31 C37 1_555 1_555
H32 C37 1_555 1_555
C38 O8 1_555 1_555
C39 N7 1_555 1_555
C40 C38 1_555 1_555
C41 C40 1_555 1_555
C42 C41 1_555 1_555
H33 C42 1_555 1_555
H34 C42 1_555 1_555
H35 C42 1_555 1_555
C43 N7 1_555 1_555
C44 C43 1_555 1_555
H36 C44 1_555 1_555
C45 C44 1_555 1_555
H37 C45 1_555 1_555
C46 C45 1_555 1_555
H38 C46 1_555 1_555
C47 C46 1_555 1_555
H39 C47 1_555 1_555
C48 C43 1_555 1_555
H40 C48 1_555 1_555
C49 N9 1_555 1_555
C50 C49 1_555 1_555
C51 C50 1_555 1_555
C52 C51 1_555 1_555
H41 C52 1_555 1_555
H42 C52 1_555 1_555
H43 C52 1_555 1_555
C53 N9 1_555 1_555
C54 C53 1_555 1_555
H44 C54 1_555 1_555
C55 C54 1_555 1_555
H45 C55 1_555 1_555
C56 C55 1_555 1_555
H46 C56 1_555 1_555
C57 C56 1_555 1_555
H47 C57 1_555 1_555
C58 C53 1_555 1_555
H48 C58 1_555 1_555
C59 O10 1_555 1_555
C60 C59 1_555 1_555
H49 C60 1_555 1_555
H50 C60 1_555 1_555
C61 C60 1_555 1_555
H51 C61 1_555 1_555
H52 C61 1_555 1_555
C62 O12 1_555 1_555
C63 O11 1_555 1_555
C64 C62 1_555 1_555
C65 C64 1_555 1_555
C66 C65 1_555 1_555
H53 C66 1_555 1_555
H54 C66 1_555 1_555
H55 C66 1_555 1_555
C67 N11 1_555 1_555
C68 C67 1_555 1_555
H56 C68 1_555 1_555
C69 C68 1_555 1_555
H57 C69 1_555 1_555
C70 C69 1_555 1_555
H58 C70 1_555 1_555
C71 C70 1_555 1_555
H59 C71 1_555 1_555
C72 C67 1_555 1_555
H60 C72 1_555 1_555
C73 P1 1_555 1_555
H61 C73 1_555 1_555
H62 C73 1_555 1_555
C74 P2 1_555 1_555
H63 C74 1_555 1_555
H64 C74 1_555 1_555
C75 P1 1_555 1_555
C76 C75 1_555 1_555
H65 C76 1_555 1_555
C77 C76 1_555 1_555
H66 C77 1_555 1_555
C78 C77 1_555 1_555
H67 C78 1_555 1_555
C79 C78 1_555 1_555
H68 C79 1_555 1_555
C80 C75 1_555 1_555
H69 C80 1_555 1_555
C81 P1 1_555 1_555
C82 C81 1_555 1_555
H70 C82 1_555 1_555
C83 C82 1_555 1_555
H71 C83 1_555 1_555
C84 C83 1_555 1_555
H72 C84 1_555 1_555
C85 C84 1_555 1_555
H73 C85 1_555 1_555
C86 C81 1_555 1_555
H74 C86 1_555 1_555
C87 P2 1_555 1_555
C88 C87 1_555 1_555
H75 C88 1_555 1_555
C89 C88 1_555 1_555
H76 C89 1_555 1_555
C90 C89 1_555 1_555
H77 C90 1_555 1_555
C91 C90 1_555 1_555
H78 C91 1_555 1_555
C92 C87 1_555 1_555
H79 C92 1_555 1_555
C93 P2 1_555 1_555
C94 C93 1_555 1_555
H80 C94 1_555 1_555
C95 C94 1_555 1_555
H81 C95 1_555 1_555
C96 C95 1_555 1_555
H82 C96 1_555 1_555
C97 C96 1_555 1_555
H83 C97 1_555 1_555
C98 C93 1_555 1_555
H84 C98 1_555 1_555
O14_2 Tb2 1_555 1_555
C2 C11 1_555 1_555
N5 C25 1_555 1_555
O7 C39 1_555 1_555
C9 C10 1_555 1_555
O9 C49 1_555 1_555
N11 C63 1_555 1_555
C13 C14 1_555 1_555
C15 C16 1_555 1_555
C23 C24 1_555 1_555
C26 C35 1_555 1_555
C33 C34 1_555 1_555
C37 C38 1_555 1_555
C39 C40 1_555 1_555
C47 C48 1_555 1_555
C50 C59 1_555 1_555
C57 C58 1_555 1_555
C61 C62 1_555 1_555
C63 C64 1_555 1_555
C71 C72 1_555 1_555
C73 C74 1_555 1_555
C79 C80 1_555 1_555
C85 C86 1_555 1_555
C91 C92 1_555 1_555
C97 C98 1_555 1_555

#END
