
#######################################################################
#
#                 Cambridge Crystallographic Data Centre
#                                CCDC 
#
#######################################################################
#
# If this CIF has been generated from an entry in the Cambridge 
# Structural Database, then it will include bibliographic, chemical, 
# crystal, experimental, refinement or atomic coordinate data resulting 
# from the CCDC's data processing and validation procedures.
#
#######################################################################

data_BOBQIU
_symmetry_cell_setting           monoclinic
_symmetry_space_group_name_H-M   'P 21/c'
_symmetry_Int_Tables_number      14
_space_group_name_Hall           '-P 2ybc'
loop_
_symmetry_equiv_pos_site_id
_symmetry_equiv_pos_as_xyz
1 x,y,z
2 -x,1/2+y,1/2-z
3 -x,-y,-z
4 x,1/2-y,1/2+z
_cell_length_a                   7.107(3)
_cell_length_b                   17.2400(7)
_cell_length_c                   12.1314(18)
_cell_angle_alpha                90
_cell_angle_beta                 125.491(12)
_cell_angle_gamma                90
_cell_volume                     1210.23
loop_
_atom_site_label
_atom_site_type_symbol
_atom_site_fract_x
_atom_site_fract_y
_atom_site_fract_z
Cu1 Cu -0.00923(2) 0.097957(7) 0.130500(13)
V1 V 0.49869(3) 0.022985(10) 0.135120(18)
F1 F 0.27266(12) 0.09657(4) 0.09825(8)
F2 F -0.29593(12) 0.10212(4) 0.15931(7)
O1 O 0.07963(14) -0.01122(5) 0.19406(8)
H1 H 0.123(3) -0.0295(10) 0.1510(16)
H2 H -0.045(2) -0.0315(10) 0.1647(17)
F3 F 0.65384(11) -0.04657(4) 0.08362(7)
F4 F -0.24136(11) 0.05715(4) -0.05367(7)
O2 O 0.61807(15) -0.00247(5) 0.28822(8)
N1 N 0.20130(16) 0.14398(5) 0.31368(9)
N2 N -0.05848(16) 0.20805(5) 0.07538(9)
C1 C 0.06785(18) 0.25832(6) 0.17887(11)
C2 C 0.4566(2) 0.22343(7) 0.55560(12)
H3 H 0.543 0.2501 0.6374
C3 C 0.3317(2) 0.26400(7) 0.43435(12)
H4 H 0.3324 0.3179 0.4335
C4 C -0.1889(2) 0.23494(7) -0.05128(11)
H5 H -0.2751 0.2 -0.1221
C5 C 0.3209(2) 0.10526(7) 0.43067(11)
H6 H 0.3162 0.0513 0.4292
C6 C -0.0688(2) 0.36505(7) 0.02506(12)
H7 H -0.0724 0.4178 0.0079
C7 C 0.4520(2) 0.14311(7) 0.55438(12)
H8 H 0.5351 0.1151 0.6349
C8 C 0.20597(18) 0.22224(6) 0.31443(11)
C9 C 0.0676(2) 0.33733(6) 0.15670(12)
H9 H 0.1575 0.3711 0.229
C10 C -0.2001(2) 0.31323(7) -0.08102(12)
H10 H -0.2935 0.3306 -0.17
V1_2 V -0.50131(3) 0.022985(10) 0.135120(18)
V1B V -0.49869(3) -0.022985(10) -0.135120(18)
V1B_2 V 0.50131(3) -0.022985(10) -0.135120(18)
F2_2 F 0.70407(12) 0.10212(4) 0.15931(7)
F3B F 0.34616(11) 0.04657(4) -0.08362(7)
F4B F 0.24136(11) -0.05715(4) 0.05367(7)
loop_
_geom_bond_atom_site_label_1
_geom_bond_atom_site_label_2
_geom_bond_site_symmetry_1
_geom_bond_site_symmetry_2
Cu1 F1 1_555 1_555
V1 F1 1_555 1_555
F2 Cu1 1_555 1_555
O1 Cu1 1_555 1_555
H1 O1 1_555 1_555
H2 O1 1_555 1_555
F3 V1 1_555 1_555
F4 Cu1 1_555 1_555
O2 V1 1_555 1_555
N1 Cu1 1_555 1_555
N2 Cu1 1_555 1_555
C1 N2 1_555 1_555
C2 H3 1_555 1_555
C3 C2 1_555 1_555
H4 C3 1_555 1_555
C4 N2 1_555 1_555
H5 C4 1_555 1_555
C5 N1 1_555 1_555
H6 C5 1_555 1_555
C6 H7 1_555 1_555
C7 C2 1_555 1_555
H8 C7 1_555 1_555
C8 N1 1_555 1_555
C9 C1 1_555 1_555
H9 C9 1_555 1_555
C10 C4 1_555 1_555
H10 C10 1_555 1_555
V1_2 F2 1_555 1_555
V1B F4 1_555 1_555
V1B_2 F3 1_555 1_555
F2_2 V1 1_555 1_555
F3B V1 1_555 1_555
F4B V1 1_555 1_555
C1 C8 1_555 1_555
C3 C8 1_555 1_555
C5 C7 1_555 1_555
C6 C9 1_555 1_555
C6 C10 1_555 1_555
V1B_2 F3B 1_555 1_555

#END
