
#######################################################################
#
#                 Cambridge Crystallographic Data Centre
#                                CCDC 
#
#######################################################################
#
# If this CIF has been generated from an entry in the Cambridge 
# Structural Database, then it will include bibliographic, chemical, 
# crystal, experimental, refinement or atomic coordinate data resulting 
# from the CCDC's data processing and validation procedures.
#
#######################################################################

data_BOBYEX
_symmetry_cell_setting           triclinic
_symmetry_space_group_name_H-M   'P -1'
_symmetry_Int_Tables_number      2
_space_group_name_Hall           '-P 1'
loop_
_symmetry_equiv_pos_site_id
_symmetry_equiv_pos_as_xyz
1 x,y,z
2 -x,-y,-z
_cell_length_a                   11.2171(5)
_cell_length_b                   14.3433(7)
_cell_length_c                   14.8236(7)
_cell_angle_alpha                92.2170(10)
_cell_angle_beta                 90.4880(10)
_cell_angle_gamma                93.7800(10)
_cell_volume                     2377.86
loop_
_atom_site_label
_atom_site_type_symbol
_atom_site_fract_x
_atom_site_fract_y
_atom_site_fract_z
Cu1 Cu 0.53133(5) 0.68052(4) 0.32137(4)
Cu2 Cu 0.35031(5) 0.66802(4) 0.19216(4)
Cu3 Cu 0.36208(5) 0.82067(4) 0.31672(4)
Cu4 Cu 0.53548(5) 0.81119(4) 0.18346(4)
I1 I 0.30256(3) 0.65156(2) 0.370758(19)
I2 I 0.57941(3) 0.627288(19) 0.155276(19)
I3 I 0.59841(3) 0.867260(19) 0.348467(19)
I4 I 0.30843(3) 0.836947(19) 0.137764(19)
S1 S 0.61163(10) 0.60494(8) 0.44068(8)
S2 S 0.78110(10) 0.44723(7) 0.87334(7)
S3 S 0.24601(10) 0.93827(8) 0.36983(7)
S4 S 0.38534(10) 1.10881(8) -0.06263(8)
C1 C 0.7735(4) 0.4906(3) 0.3730(3)
H1 H 0.7286 0.4911 0.3153
H2 H 0.7353 0.4410 0.4098
C2 C 0.9044(5) 0.4688(3) 0.3539(4)
H3 H 0.9466 0.4605 0.4116
H4 H 0.9054 0.4096 0.3173
C3 C 0.9692(5) 0.5472(4) 0.3035(4)
H5 H 1.0537 0.5331 0.2950
H6 H 0.9320 0.5514 0.2432
C4 C 0.9638(4) 0.6402(4) 0.3557(4)
H7 H 1.0067 0.6376 0.4141
H8 H 1.0040 0.6905 0.3209
C5 C 0.8352(4) 0.6625(3) 0.3729(4)
H9 H 0.7944 0.6707 0.3145
H10 H 0.8341 0.7219 0.4090
C6 C 0.7685(4) 0.5846(3) 0.4229(3)
H11 H 0.8077 0.5805 0.4833
C7 C 0.6221(4) 0.6976(3) 0.5291(3)
H12 H 0.6875 0.7441 0.5146
H13 H 0.5466 0.7297 0.5303
C8 C 0.6451(4) 0.6610(3) 0.6215(3)
C9 C 0.5516(4) 0.6336(3) 0.6749(3)
H14 H 0.4723 0.6383 0.6534
C10 C 0.5695(4) 0.5991(3) 0.7600(3)
H15 H 0.5029 0.5798 0.7954
C11 C 0.6840(4) 0.5930(3) 0.7930(3)
C12 C 0.7803(4) 0.6211(3) 0.7404(3)
H16 H 0.8595 0.6170 0.7625
C13 C 0.7613(4) 0.6554(3) 0.6555(3)
H17 H 0.8278 0.6752 0.6201
C14 C 0.7039(4) 0.5549(3) 0.8858(3)
H18 H 0.6262 0.5422 0.9156
H19 H 0.7525 0.6015 0.9238
C15 C 0.8144(4) 0.4237(3) 0.9912(3)
H20 H 0.8423 0.4841 1.0230
C16 C 0.7062(4) 0.3821(3) 1.0407(3)
H21 H 0.6729 0.3252 1.0070
H22 H 0.6437 0.4277 1.0436
C17 C 0.7409(5) 0.3572(3) 1.1361(3)
H23 H 0.7674 0.4150 1.1714
H24 H 0.6703 0.3278 1.1662
C18 C 0.8404(5) 0.2906(4) 1.1344(4)
H25 H 0.8123 0.2311 1.1026
H26 H 0.8629 0.2767 1.1969
C19 C 0.9492(5) 0.3338(4) 1.0863(4)
H27 H 1.0126 0.2890 1.0841
H28 H 0.9808 0.3908 1.1207
C20 C 0.9171(4) 0.3592(3) 0.9902(3)
H29 H 0.9877 0.3907 0.9619
H30 H 0.8937 0.3015 0.9537
C21 C 0.2705(5) 0.8778(3) 0.5471(3)
H31 H 0.3450 0.9180 0.5563
H32 H 0.2916 0.8170 0.5200
C22 C 0.2096(5) 0.8623(4) 0.6388(3)
H33 H 0.2616 0.8270 0.6775
H34 H 0.1989 0.9236 0.6696
C23 C 0.0891(5) 0.8088(4) 0.6266(4)
H35 H 0.1009 0.7450 0.6018
H36 H 0.0508 0.8028 0.6862
C24 C 0.0075(5) 0.8563(4) 0.5642(4)
H37 H -0.0114 0.9175 0.5918
H38 H -0.0683 0.8175 0.5555
C25 C 0.0662(4) 0.8711(3) 0.4728(3)
H39 H 0.0761 0.8097 0.4421
H40 H 0.0136 0.9063 0.4346
C26 C 0.1865(4) 0.9241(3) 0.4832(3)
H41 H 0.1732 0.9878 0.5095
C27 C 0.3435(4) 1.0451(3) 0.3836(3)
H42 H 0.3073 1.0904 0.4254
H43 H 0.4220 1.0308 0.4088
C28 C 0.3593(4) 1.0860(3) 0.2913(3)
C29 C 0.2640(4) 1.1239(3) 0.2493(3)
H44 H 0.1891 1.1248 0.2786
C30 C 0.2778(4) 1.1604(3) 0.1648(3)
H45 H 0.2122 1.1867 0.1366
C31 C 0.3863(4) 1.1593(3) 0.1208(3)
C32 C 0.4805(4) 1.1218(3) 0.1635(3)
H46 H 0.5556 1.1207 0.1344
C33 C 0.4670(4) 1.0858(3) 0.2482(3)
H47 H 0.5331 1.0607 0.2770
C34 C 0.4018(4) 1.1982(3) 0.0278(3)
H48 H 0.4821 1.2309 0.0243
H49 H 0.3419 1.2448 0.0189
C35 C 0.2235(4) 1.0872(3) -0.0716(3)
H50 H 0.1908 1.0816 -0.0094
C36 C 0.1632(4) 1.1654(3) -0.1173(4)
H51 H 0.2018 1.1771 -0.1760
H52 H 0.1741 1.2236 -0.0791
C37 C 0.0292(4) 1.1408(4) -0.1330(4)
H53 H -0.0055 1.1904 -0.1675
H54 H -0.0115 1.1378 -0.0741
C38 C 0.0082(5) 1.0464(4) -0.1853(4)
H55 H -0.0787 1.0297 -0.1907
H56 H 0.0407 1.0516 -0.2469
C39 C 0.0678(5) 0.9707(3) -0.1375(4)
H57 H 0.0295 0.9617 -0.0783
H58 H 0.0556 0.9113 -0.1735
C40 C 0.1997(4) 0.9931(3) -0.1229(4)
H59 H 0.2399 0.9950 -0.1820
H60 H 0.2334 0.9432 -0.0882
Cu2A Cu 0.64969(5) 0.33198(4) 0.80784(4)
Cu4A Cu 0.46452(5) 1.18881(4) -0.18346(4)
S2A S 0.21890(10) 0.55277(7) 0.12666(7)
S4A S 0.61466(10) 0.89119(8) 0.06263(8)
loop_
_geom_bond_atom_site_label_1
_geom_bond_atom_site_label_2
_geom_bond_site_symmetry_1
_geom_bond_site_symmetry_2
Cu1 I1 1_555 1_555
Cu2 I1 1_555 1_555
Cu3 I1 1_555 1_555
Cu4 I2 1_555 1_555
I2 Cu1 1_555 1_555
I3 Cu1 1_555 1_555
I4 Cu2 1_555 1_555
S1 Cu1 1_555 1_555
S2 C14 1_555 1_555
S3 Cu3 1_555 1_555
S4 C34 1_555 1_555
C1 H1 1_555 1_555
H2 C1 1_555 1_555
C2 C1 1_555 1_555
H3 C2 1_555 1_555
H4 C2 1_555 1_555
C3 C2 1_555 1_555
H5 C3 1_555 1_555
H6 C3 1_555 1_555
C4 C3 1_555 1_555
H7 C4 1_555 1_555
H8 C4 1_555 1_555
C5 C4 1_555 1_555
H9 C5 1_555 1_555
H10 C5 1_555 1_555
C6 S1 1_555 1_555
H11 C6 1_555 1_555
C7 S1 1_555 1_555
H12 C7 1_555 1_555
H13 C7 1_555 1_555
C8 C7 1_555 1_555
C9 C8 1_555 1_555
H14 C9 1_555 1_555
C10 C9 1_555 1_555
H15 C10 1_555 1_555
C11 C10 1_555 1_555
C12 C11 1_555 1_555
H16 C12 1_555 1_555
C13 C8 1_555 1_555
H17 C13 1_555 1_555
C14 C11 1_555 1_555
H18 C14 1_555 1_555
H19 C14 1_555 1_555
C15 S2 1_555 1_555
H20 C15 1_555 1_555
C16 C15 1_555 1_555
H21 C16 1_555 1_555
H22 C16 1_555 1_555
C17 C16 1_555 1_555
H23 C17 1_555 1_555
H24 C17 1_555 1_555
C18 C17 1_555 1_555
H25 C18 1_555 1_555
H26 C18 1_555 1_555
C19 C18 1_555 1_555
H27 C19 1_555 1_555
H28 C19 1_555 1_555
C20 C15 1_555 1_555
H29 C20 1_555 1_555
H30 C20 1_555 1_555
C21 H31 1_555 1_555
H32 C21 1_555 1_555
C22 C21 1_555 1_555
H33 C22 1_555 1_555
H34 C22 1_555 1_555
C23 C22 1_555 1_555
H35 C23 1_555 1_555
H36 C23 1_555 1_555
C24 C23 1_555 1_555
H37 C24 1_555 1_555
H38 C24 1_555 1_555
C25 C24 1_555 1_555
H39 C25 1_555 1_555
H40 C25 1_555 1_555
C26 S3 1_555 1_555
H41 C26 1_555 1_555
C27 S3 1_555 1_555
H42 C27 1_555 1_555
H43 C27 1_555 1_555
C28 C27 1_555 1_555
C29 C28 1_555 1_555
H44 C29 1_555 1_555
C30 C29 1_555 1_555
H45 C30 1_555 1_555
C31 C30 1_555 1_555
C32 C31 1_555 1_555
H46 C32 1_555 1_555
C33 C28 1_555 1_555
H47 C33 1_555 1_555
C34 C31 1_555 1_555
H48 C34 1_555 1_555
H49 C34 1_555 1_555
C35 S4 1_555 1_555
H50 C35 1_555 1_555
C36 C35 1_555 1_555
H51 C36 1_555 1_555
H52 C36 1_555 1_555
C37 C36 1_555 1_555
H53 C37 1_555 1_555
H54 C37 1_555 1_555
C38 C37 1_555 1_555
H55 C38 1_555 1_555
H56 C38 1_555 1_555
C39 C38 1_555 1_555
H57 C39 1_555 1_555
H58 C39 1_555 1_555
C40 C35 1_555 1_555
H59 C40 1_555 1_555
H60 C40 1_555 1_555
Cu2A S2 1_555 1_555
Cu4A S4 1_555 1_555
S2A Cu2 1_555 1_555
S4A Cu4 1_555 1_555
Cu2 I2 1_555 1_555
Cu3 I3 1_555 1_555
Cu3 I4 1_555 1_555
Cu4 I3 1_555 1_555
Cu4 I4 1_555 1_555
C1 C6 1_555 1_555
C5 C6 1_555 1_555
C12 C13 1_555 1_555
C19 C20 1_555 1_555
C21 C26 1_555 1_555
C25 C26 1_555 1_555
C32 C33 1_555 1_555
C39 C40 1_555 1_555

#END
