
#######################################################################
#
#                 Cambridge Crystallographic Data Centre
#                                CCDC 
#
#######################################################################
#
# If this CIF has been generated from an entry in the Cambridge 
# Structural Database, then it will include bibliographic, chemical, 
# crystal, experimental, refinement or atomic coordinate data resulting 
# from the CCDC's data processing and validation procedures.
#
#######################################################################

data_BOBYAT
_symmetry_cell_setting           monoclinic
_symmetry_space_group_name_H-M   'P 21/n'
_symmetry_Int_Tables_number      14
_space_group_name_Hall           '-P 2yn'
loop_
_symmetry_equiv_pos_site_id
_symmetry_equiv_pos_as_xyz
1 x,y,z
2 1/2-x,1/2+y,1/2-z
3 -x,-y,-z
4 1/2+x,1/2-y,1/2+z
_cell_length_a                   11.8523(9)
_cell_length_b                   8.6406(7)
_cell_length_c                   20.0139(16)
_cell_angle_alpha                90
_cell_angle_beta                 92.853(2)
_cell_angle_gamma                90
_cell_volume                     2047.1
loop_
_atom_site_label
_atom_site_type_symbol
_atom_site_fract_x
_atom_site_fract_y
_atom_site_fract_z
Cu1 Cu 0.95283(4) 0.93808(5) 0.44160(2)
I1 I 0.86220(2) 0.88239(3) 0.556057(12)
S1 S 1.01619(7) 0.68890(11) 0.41456(4)
S2 S 0.66326(8) 0.58394(11) 0.13246(5)
C1 C 1.1299(3) 0.7880(4) 0.30630(18)
H1 H 1.1324 0.7891 0.2569
H2 H 1.0991 0.8887 0.3204
C2 C 1.2500(3) 0.7700(5) 0.3367(2)
H3 H 1.2495 0.7849 0.3858
H4 H 1.2989 0.8507 0.3183
C3 C 1.2984(3) 0.6103(5) 0.3218(2)
H5 H 1.3067 0.5994 0.2731
H6 H 1.3741 0.5997 0.3445
C4 C 1.2208(3) 0.4833(5) 0.3460(2)
H7 H 1.2516 0.3810 0.3340
H8 H 1.2188 0.4882 0.3953
C5 C 1.1022(3) 0.4989(5) 0.31563(19)
H9 H 1.0538 0.4191 0.3352
H10 H 1.1032 0.4793 0.2669
C6 C 1.0504(3) 0.6585(4) 0.32693(18)
H11 H 0.9788 0.6664 0.2985
C7 C 0.9018(3) 0.5494(4) 0.42355(18)
H12 H 0.9307 0.4444 0.4144
H13 H 0.8792 0.5511 0.4705
C8 C 0.7988(3) 0.5785(4) 0.37833(18)
C9 C 0.7092(3) 0.6666(4) 0.40025(19)
H14 H 0.7135 0.7099 0.4439
C10 C 0.6135(3) 0.6913(5) 0.35842(18)
H15 H 0.5528 0.7514 0.3737
C11 C 0.6062(3) 0.6287(4) 0.29444(19)
H16 H 0.5417 0.6489 0.2657
C12 C 0.6932(3) 0.5364(4) 0.27233(17)
C13 C 0.7882(3) 0.5126(4) 0.31444(18)
H17 H 0.8477 0.4498 0.2995
C14 C 0.6803(3) 0.4564(4) 0.20483(18)
H18 H 0.6139 0.3870 0.2052
H19 H 0.7477 0.3908 0.1992
C15 C 0.8051(3) 0.5968(4) 0.09920(18)
H20 H 0.8231 0.4958 0.0778
C16 C 0.8982(3) 0.6342(5) 0.15251(18)
H21 H 0.9032 0.5504 0.1863
H22 H 0.8800 0.7318 0.1755
C17 C 1.0117(3) 0.6505(5) 0.1196(2)
H23 H 1.0711 0.6779 0.1540
H24 H 1.0322 0.5501 0.0997
C18 C 1.0065(3) 0.7738(5) 0.0655(2)
H25 H 1.0795 0.7770 0.0435
H26 H 0.9943 0.8762 0.0861
C19 C 0.9115(3) 0.7413(5) 0.01322(19)
H27 H 0.9064 0.8277 -0.0193
H28 H 0.9290 0.6457 -0.0115
C20 C 0.7982(3) 0.7224(4) 0.04514(19)
H29 H 0.7396 0.6942 0.0103
H30 H 0.7762 0.8219 0.0653
Cu1B Cu 1.04717(4) 1.06192(5) 0.55840(2)
Cu1A Cu 0.54717(4) 0.43808(5) 0.05840(2)
I1B I 1.13780(2) 1.11761(3) 0.443943(12)
S2A S 0.83674(8) 1.08394(11) 0.36754(5)
loop_
_geom_bond_atom_site_label_1
_geom_bond_atom_site_label_2
_geom_bond_site_symmetry_1
_geom_bond_site_symmetry_2
Cu1 I1 1_555 1_555
I1 Cu1B 1_555 1_555
S1 Cu1 1_555 1_555
S2 C14 1_555 1_555
C1 H1 1_555 1_555
H2 C1 1_555 1_555
C2 C1 1_555 1_555
H3 C2 1_555 1_555
H4 C2 1_555 1_555
C3 C2 1_555 1_555
H5 C3 1_555 1_555
H6 C3 1_555 1_555
C4 C3 1_555 1_555
H7 C4 1_555 1_555
H8 C4 1_555 1_555
C5 C4 1_555 1_555
H9 C5 1_555 1_555
H10 C5 1_555 1_555
C6 S1 1_555 1_555
H11 C6 1_555 1_555
C7 S1 1_555 1_555
H12 C7 1_555 1_555
H13 C7 1_555 1_555
C8 C7 1_555 1_555
C9 C8 1_555 1_555
H14 C9 1_555 1_555
C10 C9 1_555 1_555
H15 C10 1_555 1_555
C11 C10 1_555 1_555
H16 C11 1_555 1_555
C12 C11 1_555 1_555
C13 C8 1_555 1_555
H17 C13 1_555 1_555
C14 C12 1_555 1_555
H18 C14 1_555 1_555
H19 C14 1_555 1_555
C15 S2 1_555 1_555
H20 C15 1_555 1_555
C16 C15 1_555 1_555
H21 C16 1_555 1_555
H22 C16 1_555 1_555
C17 C16 1_555 1_555
H23 C17 1_555 1_555
H24 C17 1_555 1_555
C18 C17 1_555 1_555
H25 C18 1_555 1_555
H26 C18 1_555 1_555
C19 C18 1_555 1_555
H27 C19 1_555 1_555
H28 C19 1_555 1_555
C20 C15 1_555 1_555
H29 C20 1_555 1_555
H30 C20 1_555 1_555
Cu1B I1B 1_555 1_555
Cu1A S2 1_555 1_555
I1B Cu1 1_555 1_555
S2A Cu1 1_555 1_555
C1 C6 1_555 1_555
C5 C6 1_555 1_555
C12 C13 1_555 1_555
C19 C20 1_555 1_555

#END
