
#######################################################################
#
#                 Cambridge Crystallographic Data Centre
#                                CCDC 
#
#######################################################################
#
# If this CIF has been generated from an entry in the Cambridge 
# Structural Database, then it will include bibliographic, chemical, 
# crystal, experimental, refinement or atomic coordinate data resulting 
# from the CCDC's data processing and validation procedures.
#
#######################################################################

data_BOCCIG
_symmetry_cell_setting           monoclinic
_symmetry_space_group_name_H-M   'P 21/c'
_symmetry_Int_Tables_number      14
_space_group_name_Hall           '-P 2ybc'
loop_
_symmetry_equiv_pos_site_id
_symmetry_equiv_pos_as_xyz
1 x,y,z
2 -x,1/2+y,1/2-z
3 -x,-y,-z
4 x,1/2-y,1/2+z
_cell_length_a                   14.854(3)
_cell_length_b                   10.015(3)
_cell_length_c                   7.720(2)
_cell_angle_alpha                90
_cell_angle_beta                 92.73(2)
_cell_angle_gamma                90
_cell_volume                     1147.15
loop_
_atom_site_label
_atom_site_type_symbol
_atom_site_fract_x
_atom_site_fract_y
_atom_site_fract_z
Cd1 Cd 0.28105(2) 0.34928(3) 0.80957(5)
I1 I 0.164399(19) 0.16782(3) 0.95652(4)
I2 I 0.39198(2) 0.39464(3) 1.14848(4)
N1 N 0.2053(3) 0.5552(4) 0.8255(5)
N2 N 0.3881(2) 0.4563(4) 0.6640(5)
H1 H 0.4391 0.4564 0.7318
H2 H 0.3990 0.4075 0.5693
C1 C 0.1162(3) 0.5495(6) 0.8539(6)
H3 H 0.0909 0.4666 0.8759
C2 C 0.0617(4) 0.6587(6) 0.8519(7)
H4 H 0.0010 0.6509 0.8748
C3 C 0.0987(4) 0.7824(6) 0.8148(8)
H5 H 0.0635 0.8592 0.8122
C4 C 0.1885(4) 0.7883(5) 0.7824(6)
H6 H 0.2145 0.8699 0.7562
C5 C 0.2409(3) 0.6740(4) 0.7883(6)
C6 C 0.3400(3) 0.6814(4) 0.7564(6)
H7 H 0.3737 0.6558 0.8620
H8 H 0.3553 0.7735 0.7317
C7 C 0.3706(3) 0.5935(5) 0.6076(6)
H9 H 0.3244 0.5935 0.5146
H10 H 0.4251 0.6308 0.5624
Cd1C Cd 0.28105(2) 0.15072(3) 1.30957(5)
I1C I 0.164399(19) 0.33218(3) 0.45652(4)
I2C I 0.39198(2) 0.10536(3) 0.64848(4)
loop_
_geom_bond_atom_site_label_1
_geom_bond_atom_site_label_2
_geom_bond_site_symmetry_1
_geom_bond_site_symmetry_2
Cd1 I1 1_555 1_555
I1 Cd1C 1_555 1_555
I2 Cd1 1_555 1_555
N1 Cd1 1_555 1_555
N2 Cd1 1_555 1_555
H1 N2 1_555 1_555
H2 N2 1_555 1_555
C1 N1 1_555 1_555
H3 C1 1_555 1_555
C2 C1 1_555 1_555
H4 C2 1_555 1_555
C3 C2 1_555 1_555
H5 C3 1_555 1_555
C4 C3 1_555 1_555
H6 C4 1_555 1_555
C5 N1 1_555 1_555
C6 C5 1_555 1_555
H7 C6 1_555 1_555
H8 C6 1_555 1_555
C7 N2 1_555 1_555
H9 C7 1_555 1_555
H10 C7 1_555 1_555
Cd1C I2 1_555 1_555
I1C Cd1 1_555 1_555
I2C Cd1 1_555 1_555
C4 C5 1_555 1_555
C6 C7 1_555 1_555

#END
