
#######################################################################
#
#                 Cambridge Crystallographic Data Centre
#                                CCDC 
#
#######################################################################
#
# If this CIF has been generated from an entry in the Cambridge 
# Structural Database, then it will include bibliographic, chemical, 
# crystal, experimental, refinement or atomic coordinate data resulting 
# from the CCDC's data processing and validation procedures.
#
#######################################################################

data_BOCCOM
_symmetry_cell_setting           monoclinic
_symmetry_space_group_name_H-M   'P 21/n'
_symmetry_Int_Tables_number      14
_space_group_name_Hall           '-P 2yn'
loop_
_symmetry_equiv_pos_site_id
_symmetry_equiv_pos_as_xyz
1 x,y,z
2 1/2-x,1/2+y,1/2-z
3 -x,-y,-z
4 1/2+x,1/2-y,1/2+z
_cell_length_a                   8.035(3)
_cell_length_b                   6.683(3)
_cell_length_c                   19.877(8)
_cell_angle_alpha                90
_cell_angle_beta                 100.536(7)
_cell_angle_gamma                90
_cell_volume                     1049.36
loop_
_atom_site_label
_atom_site_type_symbol
_atom_site_fract_x
_atom_site_fract_y
_atom_site_fract_z
Cd1 Cd 0.43652(10) 0.67618(16) 0.27058(4)
I1 I 0.53667(11) 0.73336(12) 0.14299(4)
I2 I 0.07594(10) 0.73340(11) 0.22070(4)
N1 N 0.4120(12) 0.7295(12) 0.3858(4)
N2 N 0.7086(15) 0.7334(15) 0.3332(6)
H1 H 0.7788 0.6411 0.3208
H2 H 0.7437 0.8540 0.3213
C1 C 0.2640(19) 0.731(2) 0.4065(7)
H3 H 0.1647 0.7212 0.3742
C2 C 0.254(2) 0.7474(18) 0.4768(8)
H4 H 0.1499 0.7523 0.4907
C3 C 0.401(2) 0.7560(16) 0.5236(7)
H5 H 0.3984 0.7650 0.5701
C4 C 0.5558(16) 0.7508(14) 0.5003(6)
H6 H 0.6571 0.7584 0.5315
C5 C 0.5574(13) 0.7346(15) 0.4315(5)
C6 C 0.7253(19) 0.728(2) 0.4068(7)
H7 H 0.7936 0.8412 0.4260
H8 H 0.7850 0.6071 0.4238
Cd1A Cd 0.06348(10) 1.17618(16) 0.22942(4)
I2A I 0.42406(10) 0.23340(11) 0.27930(4)
loop_
_geom_bond_atom_site_label_1
_geom_bond_atom_site_label_2
_geom_bond_site_symmetry_1
_geom_bond_site_symmetry_2
Cd1 I1 1_555 1_555
I2 Cd1 1_555 1_555
N1 Cd1 1_555 1_555
N2 Cd1 1_555 1_555
H1 N2 1_555 1_555
H2 N2 1_555 1_555
C1 N1 1_555 1_555
H3 C1 1_555 1_555
C2 C1 1_555 1_555
H4 C2 1_555 1_555
C3 C2 1_555 1_555
H5 C3 1_555 1_555
C4 C3 1_555 1_555
H6 C4 1_555 1_555
C5 N1 1_555 1_555
C6 N2 1_555 1_555
H7 C6 1_555 1_555
H8 C6 1_555 1_555
Cd1A I2 1_555 1_555
I2A Cd1 1_555 1_555
C4 C5 1_555 1_555
C5 C6 1_555 1_555

#END
