
#######################################################################
#
#                 Cambridge Crystallographic Data Centre
#                                CCDC 
#
#######################################################################
#
# If this CIF has been generated from an entry in the Cambridge 
# Structural Database, then it will include bibliographic, chemical, 
# crystal, experimental, refinement or atomic coordinate data resulting 
# from the CCDC's data processing and validation procedures.
#
#######################################################################

data_BOCMEL
_symmetry_cell_setting           monoclinic
_symmetry_space_group_name_H-M   'C 2/c'
_symmetry_Int_Tables_number      15
_space_group_name_Hall           '-C 2yn'
loop_
_symmetry_equiv_pos_site_id
_symmetry_equiv_pos_as_xyz
1 x,y,z
2 -x,y,1/2-z
3 1/2+x,1/2+y,z
4 1/2-x,1/2+y,1/2-z
5 -x,-y,-z
6 x,-y,1/2+z
7 1/2-x,1/2-y,-z
8 1/2+x,1/2-y,1/2+z
_cell_length_a                   40.30(3)
_cell_length_b                   16.942(3)
_cell_length_c                   24.464(13)
_cell_angle_alpha                90
_cell_angle_beta                 120.98(2)
_cell_angle_gamma                90
_cell_volume                     14320.4
loop_
_atom_site_label
_atom_site_type_symbol
_atom_site_fract_x
_atom_site_fract_y
_atom_site_fract_z
O1 O -0.0036(2) -0.3361(4) 1.0016(3)
N1 N -0.2272(3) -0.1143(6) 0.8211(5)
N2 N -0.1530(2) 0.0615(5) 0.6877(4)
N3 N -0.2160(3) -0.2515(5) 0.6910(4)
N4 N -0.1228(2) -0.2204(5) 0.8690(4)
N5 N -0.1227(3) -0.1674(6) 0.7032(5)
N6 N -0.0883(3) -0.0046(5) 0.8713(5)
N7 N -0.2573(3) -0.0315(5) 0.6400(4)
N8 N -0.1911(2) 0.0822(6) 0.8203(4)
C1 C -0.2071(3) -0.1030(6) 0.8008(5)
C2 C -0.1612(3) 0.0109(6) 0.7106(4)
C3 C -0.2014(3) -0.1920(7) 0.7123(5)
C4 C -0.1405(3) -0.1714(6) 0.8323(5)
C5 C -0.1391(3) -0.1355(6) 0.7240(5)
C6 C -0.1170(3) -0.0319(6) 0.8338(5)
C7 C -0.2271(3) -0.0492(6) 0.6807(5)
C8 C -0.1837(3) 0.0257(7) 0.7985(5)
C9 C -0.0350(3) 0.2491(6) 0.7057(4)
N9 N -0.0550(2) 0.1941(5) 0.6828(4)
C10 C -0.0595(3) 0.3921(6) 0.6968(5)
N10 N -0.0913(3) 0.4131(5) 0.6704(4)
C11 C 0.0000 0.4757(11) 0.7500
N11 N 0.0000 0.5441(10) 0.7500
C12 C -0.0048(3) 0.3546(7) 0.8336(5)
N12 N -0.0066(3) 0.3628(7) 0.8794(4)
N13 N -0.0716(2) 0.0130(5) 0.6945(4)
N14 N -0.0690(2) 0.1064(5) 0.7875(4)
N15 N -0.1123(3) 0.2425(5) 0.7219(5)
N16 N -0.1531(2) 0.1998(5) 0.5976(4)
N17 N -0.1249(2) 0.0676(5) 0.5847(4)
Mo1 Mo 0.0000 0.35179(7) 0.7500
Mo2 Mo -0.17185(3) -0.08156(5) 0.76023(4)
Mn1 Mn -0.10536(4) 0.12678(9) 0.67848(7)
Mn2 Mn -0.06617(4) -0.28089(9) 0.93427(7)
Mn3 Mn -0.26165(4) -0.34119(9) 0.67876(7)
C13 C -0.0462(3) -0.0108(7) 0.7606(6)
H1 H -0.0235 -0.0371 0.7654
H2 H -0.0597 -0.0474 0.7731
C14 C -0.0343(3) 0.0622(8) 0.8023(5)
H3 H -0.0204 0.0470 0.8469
H4 H -0.0173 0.0947 0.7946
C15 C -0.0623(3) 0.1817(7) 0.8189(5)
H5 H -0.0428 0.2107 0.8153
H6 H -0.0528 0.1736 0.8639
C16 C -0.0995(4) 0.2287(7) 0.7890(6)
H7 H -0.1192 0.1997 0.7922
H8 H -0.0953 0.2786 0.8110
C17 C -0.1523(3) 0.2675(7) 0.6846(6)
H9 H -0.1553 0.3187 0.6993
H10 H -0.1687 0.2300 0.6898
C18 C -0.1642(4) 0.2725(7) 0.6151(6)
H11 H -0.1920 0.2799 0.5888
H12 H -0.1516 0.3170 0.6084
C19 C -0.1982(4) 0.2214(9) 0.4820(6)
H13 H -0.2201 0.2319 0.4864
H14 H -0.2062 0.1896 0.4447
H15 H -0.1877 0.2703 0.4778
C20 C -0.1672(3) 0.1770(8) 0.5411(6)
C21 C -0.1522(3) 0.1008(8) 0.5313(5)
C22 C -0.1641(4) 0.0668(10) 0.4715(6)
H16 H -0.1831 0.0901 0.4338
C23 C -0.1463(5) -0.0024(10) 0.4716(7)
H17 H -0.1540 -0.0266 0.4328
C24 C -0.1179(4) -0.0372(9) 0.5262(6)
H18 H -0.1054 -0.0827 0.5249
C25 C -0.1084(4) -0.0012(7) 0.5846(6)
C26 C -0.0793(3) -0.0314(7) 0.6478(6)
C27 C -0.0620(4) -0.1133(7) 0.6520(7)
H19 H -0.0452 -0.1272 0.6960
H20 H -0.0476 -0.1126 0.6307
H21 H -0.0825 -0.1514 0.6320
N18 N -0.0455(3) -0.2643(6) 0.8634(4)
N19 N -0.0427(3) -0.1526(5) 0.9477(4)
N20 N -0.0614(3) -0.2392(5) 1.0283(4)
N21 N -0.0925(2) -0.3775(5) 0.9650(4)
N22 N -0.0779(2) -0.3909(5) 0.8759(4)
C28 C -0.0301(4) -0.1867(7) 0.8648(7)
H22 H -0.0504 -0.1532 0.8333
H23 H -0.0100 -0.1909 0.8543
C29 C -0.0132(4) -0.1498(8) 0.9313(6)
H24 H 0.0094 -0.1791 0.9622
H25 H -0.0056 -0.0956 0.9309
C30 C -0.0290(4) -0.1285(7) 1.0129(6)
H26 H -0.0254 -0.0717 1.0168
H27 H -0.0043 -0.1534 1.0416
C31 C -0.0579(4) -0.1520(7) 1.0301(6)
H28 H -0.0500 -0.1330 1.0725
H29 H -0.0829 -0.1288 1.0003
C32 C -0.0965(3) -0.2692(7) 1.0261(5)
H30 H -0.1193 -0.2450 0.9909
H31 H -0.0956 -0.2557 1.0653
C33 C -0.0986(3) -0.3585(7) 1.0177(5)
H32 H -0.0789 -0.3837 1.0567
H33 H -0.1238 -0.3775 1.0082
C34 C -0.1116(3) -0.5159(7) 0.9630(6)
H34 H -0.1080 -0.5057 1.0042
H35 H -0.0969 -0.5617 0.9652
H36 H -0.1385 -0.5250 0.9328
C35 C -0.0979(3) -0.4464(7) 0.9423(5)
C36 C -0.0902(3) -0.4567(6) 0.8898(5)
C37 C -0.0939(3) -0.5269(7) 0.8576(6)
H37 H -0.1015 -0.5732 0.8686
C38 C -0.0861(3) -0.5260(8) 0.8083(6)
H38 H -0.0892 -0.5718 0.7851
C39 C -0.0740(3) -0.4589(8) 0.7941(5)
H39 H -0.0689 -0.4578 0.7612
C40 C -0.0694(3) -0.3914(6) 0.8297(5)
C41 C -0.0537(3) -0.3162(7) 0.8209(5)
C42 C -0.0478(4) -0.3051(8) 0.7651(6)
H40 H -0.0715 -0.3165 0.7261
H41 H -0.0279 -0.3402 0.7694
H42 H -0.0403 -0.2515 0.7643
N23 N -0.2245(3) -0.4412(5) 0.6774(5)
N24 N -0.2267(2) -0.3912(5) 0.7809(4)
N25 N -0.2715(3) -0.2528(5) 0.7398(4)
N26 N -0.3086(2) -0.2550(5) 0.6086(4)
N27 N -0.2761(2) -0.3657(5) 0.5784(4)
C43 C -0.1980(3) -0.4790(7) 0.7371(6)
H43 H -0.1741 -0.4919 0.7388
H44 H -0.2093 -0.5274 0.7416
C44 C -0.1902(3) -0.4215(8) 0.7909(5)
H45 H -0.1762 -0.4484 0.8316
H46 H -0.1743 -0.3781 0.7914
C45 C -0.2228(3) -0.3288(7) 0.8267(5)
H47 H -0.2039 -0.2898 0.8313
H48 H -0.2142 -0.3518 0.8682
C46 C -0.2623(3) -0.2903(8) 0.8007(5)
H49 H -0.2816 -0.3295 0.7937
H50 H -0.2613 -0.2510 0.8304
C47 C -0.3117(3) -0.2241(7) 0.7024(6)
H51 H -0.3157 -0.1818 0.7252
H52 H -0.3295 -0.2666 0.6961
C48 C -0.3196(3) -0.1944(7) 0.6384(6)
H53 H -0.3468 -0.1820 0.6113
H54 H -0.3048 -0.1467 0.6443
C49 C -0.3371(5) -0.1860(8) 0.5061(7)
H55 H -0.3383 -0.1414 0.5292
H56 H -0.3629 -0.2026 0.4752
H57 H -0.3237 -0.1715 0.4847
C50 C -0.3160(3) -0.2526(6) 0.5517(5)
C51 C -0.3004(3) -0.3189(6) 0.5307(5)
C52 C -0.3105(4) -0.3310(9) 0.4680(6)
H58 H -0.3284 -0.2986 0.4354
C53 C -0.2932(4) -0.3929(10) 0.4561(6)
H59 H -0.2988 -0.4025 0.4148
C54 C -0.2677(4) -0.4403(8) 0.5048(7)
H60 H -0.2559 -0.4821 0.4967
C55 C -0.2593(3) -0.4259(7) 0.5677(5)
C56 C -0.2305(3) -0.4711(6) 0.6258(6)
C57 C -0.2144(4) -0.5484(6) 0.6184(6)
H61 H -0.1880 -0.5411 0.6297
H62 H -0.2294 -0.5659 0.5750
H63 H -0.2155 -0.5874 0.6459
C9A C 0.0350(3) 0.2491(6) 0.7943(4)
N9A N 0.0550(2) 0.1941(5) 0.8172(4)
Mn1A Mn 0.10536(4) 0.12678(9) 0.82152(7)
N2A N 0.1530(2) 0.0615(5) 0.8123(4)
C2A C 0.1612(3) 0.0109(6) 0.7894(4)
Mo2A Mo 0.17185(3) -0.08156(5) 0.73977(4)
C1A C 0.2071(3) -0.1030(6) 0.6992(5)
N1A N 0.2272(3) -0.1143(6) 0.6789(5)
C3A C 0.2014(3) -0.1920(7) 0.7877(5)
N3A N 0.2160(3) -0.2515(5) 0.8090(4)
Mn3A Mn 0.26165(4) -0.34119(9) 0.82124(7)
N8B N 0.3089(2) -0.4178(6) 0.8203(4)
N23A N 0.2245(3) -0.4412(5) 0.8226(5)
C43A C 0.1980(3) -0.4790(7) 0.7629(6)
H43A H 0.1741 -0.4919 0.7612
H44A H 0.2093 -0.5274 0.7584
C44A C 0.1902(3) -0.4215(8) 0.7091(5)
N24A N 0.2267(2) -0.3912(5) 0.7191(4)
N25A N 0.2715(3) -0.2528(5) 0.7602(4)
C46A C 0.2623(3) -0.2903(8) 0.6993(5)
C45A C 0.2228(3) -0.3288(7) 0.6733(5)
H47A H 0.2039 -0.2898 0.6687
H48A H 0.2142 -0.3518 0.6318
H49A H 0.2816 -0.3295 0.7063
H50A H 0.2613 -0.2510 0.6696
C47A C 0.3117(3) -0.2241(7) 0.7976(6)
H51A H 0.3157 -0.1818 0.7748
H52A H 0.3295 -0.2666 0.8039
C48A C 0.3196(3) -0.1944(7) 0.8616(6)
N26A N 0.3086(2) -0.2550(5) 0.8914(4)
N27A N 0.2761(2) -0.3657(5) 0.9216(4)
C51A C 0.3004(3) -0.3189(6) 0.9693(5)
C50A C 0.3160(3) -0.2526(6) 0.9483(5)
C49A C 0.3371(5) -0.1860(8) 0.9939(7)
H55A H 0.3383 -0.1414 0.9708
H56A H 0.3629 -0.2026 1.0248
H57A H 0.3237 -0.1715 1.0153
C52A C 0.3105(4) -0.3310(9) 1.0320(6)
H58A H 0.3284 -0.2986 1.0646
C53A C 0.2932(4) -0.3929(10) 1.0439(6)
H59A H 0.2988 -0.4025 1.0852
C54A C 0.2677(4) -0.4403(8) 0.9952(7)
H60A H 0.2559 -0.4821 1.0033
C55A C 0.2593(3) -0.4259(7) 0.9323(5)
C56A C 0.2305(3) -0.4711(6) 0.8742(6)
C57A C 0.2144(4) -0.5484(6) 0.8816(6)
H61A H 0.1880 -0.5411 0.8703
H62A H 0.2294 -0.5659 0.9250
H63A H 0.2155 -0.5874 0.8541
H53A H 0.3468 -0.1820 0.8887
H54A H 0.3048 -0.1467 0.8557
H45A H 0.1762 -0.4484 0.6684
H46A H 0.1743 -0.3781 0.7086
C4A C 0.1405(3) -0.1714(6) 0.6677(5)
C5A C 0.1391(3) -0.1355(6) 0.7760(5)
N5A N 0.1227(3) -0.1674(6) 0.7968(5)
C6A C 0.1170(3) -0.0319(6) 0.6662(5)
N6A N 0.0883(3) -0.0046(5) 0.6287(5)
C7A C 0.2271(3) -0.0492(6) 0.8193(5)
N7A N 0.2573(3) -0.0315(5) 0.8600(4)
C8A C 0.1837(3) 0.0257(7) 0.7015(5)
N13A N 0.0716(2) 0.0130(5) 0.8055(4)
C13A C 0.0462(3) -0.0108(7) 0.7394(6)
H1A H 0.0235 -0.0371 0.7346
H2A H 0.0597 -0.0474 0.7269
C14A C 0.0343(3) 0.0622(8) 0.6977(5)
N14A N 0.0690(2) 0.1064(5) 0.7125(4)
N15A N 0.1123(3) 0.2425(5) 0.7781(5)
C16A C 0.0995(4) 0.2287(7) 0.7110(6)
C15A C 0.0623(3) 0.1817(7) 0.6811(5)
H5A H 0.0428 0.2107 0.6847
H6A H 0.0528 0.1736 0.6361
H7A H 0.1192 0.1997 0.7078
H8A H 0.0953 0.2786 0.6890
C17A C 0.1523(3) 0.2675(7) 0.8154(6)
H9A H 0.1553 0.3187 0.8007
H10A H 0.1687 0.2300 0.8102
C18A C 0.1642(4) 0.2725(7) 0.8849(6)
N16A N 0.1531(2) 0.1998(5) 0.9024(4)
N17A N 0.1249(2) 0.0676(5) 0.9153(4)
C21A C 0.1522(3) 0.1008(8) 0.9687(5)
C20A C 0.1672(3) 0.1770(8) 0.9589(6)
C19A C 0.1982(4) 0.2214(9) 1.0180(6)
H13A H 0.2201 0.2319 1.0136
H14A H 0.2062 0.1896 1.0553
H15A H 0.1877 0.2703 1.0222
C22A C 0.1641(4) 0.0668(10) 1.0285(6)
H16A H 0.1831 0.0901 1.0662
C23A C 0.1463(5) -0.0024(10) 1.0284(7)
H17A H 0.1540 -0.0266 1.0672
C24A C 0.1179(4) -0.0372(9) 0.9738(6)
H18A H 0.1054 -0.0827 0.9751
C25A C 0.1084(4) -0.0012(7) 0.9154(6)
C26A C 0.0793(3) -0.0314(7) 0.8522(6)
C27A C 0.0620(4) -0.1133(7) 0.8480(7)
H19A H 0.0452 -0.1272 0.8040
H20A H 0.0476 -0.1126 0.8693
H21A H 0.0825 -0.1514 0.8680
H11A H 0.1920 0.2799 0.9112
H12A H 0.1516 0.3170 0.8916
H3A H 0.0204 0.0470 0.6531
H4A H 0.0173 0.0947 0.7054
C10A C 0.0595(3) 0.3921(6) 0.8032(5)
N10A N 0.0913(3) 0.4131(5) 0.8296(4)
C12A C 0.0048(3) 0.3546(7) 0.6664(5)
N12A N 0.0066(3) 0.3628(7) 0.6206(4)
Mn3C Mn -0.23835(4) 0.15881(9) 0.82124(7)
N8C N -0.3089(2) -0.4178(6) 0.6797(4)
N8A N 0.1911(2) 0.0822(6) 0.6797(4)
N4A N 0.1228(2) -0.2204(5) 0.6310(4)
Mn2A Mn 0.06617(4) -0.28089(9) 0.56573(7)
Mn3B Mn 0.23835(4) 0.15881(9) 0.67876(7)
O1A O 0.0036(2) -0.3361(4) 0.4984(3)
N18A N 0.0455(3) -0.2643(6) 0.6366(4)
N19A N 0.0427(3) -0.1526(5) 0.5523(4)
N20A N 0.0614(3) -0.2392(5) 0.4717(4)
N21A N 0.0925(2) -0.3775(5) 0.5350(4)
N22A N 0.0779(2) -0.3909(5) 0.6241(4)
C29A C 0.0132(4) -0.1498(8) 0.5687(6)
C30A C 0.0290(4) -0.1285(7) 0.4871(6)
C28A C 0.0301(4) -0.1867(7) 0.6352(7)
C41A C 0.0537(3) -0.3162(7) 0.6791(5)
C36A C 0.0902(3) -0.4567(6) 0.6102(5)
C40A C 0.0694(3) -0.3914(6) 0.6703(5)
C33A C 0.0986(3) -0.3585(7) 0.4823(5)
C35A C 0.0979(3) -0.4464(7) 0.5577(5)
H24A H -0.0094 -0.1791 0.5378
H25A H 0.0056 -0.0956 0.5691
C37A C 0.0939(3) -0.5269(7) 0.6424(6)
H22A H 0.0504 -0.1532 0.6667
H23A H 0.0100 -0.1909 0.6457
C42A C 0.0478(4) -0.3051(8) 0.7349(6)
H26A H 0.0254 -0.0717 0.4832
H27A H 0.0043 -0.1534 0.4584
C31A C 0.0579(4) -0.1520(7) 0.4699(6)
C32A C 0.0965(3) -0.2692(7) 0.4739(5)
H32A H 0.0789 -0.3837 0.4433
H33A H 0.1238 -0.3775 0.4918
C34A C 0.1116(3) -0.5159(7) 0.5370(6)
H37A H 0.1015 -0.5732 0.6314
C38A C 0.0861(3) -0.5260(8) 0.6917(6)
C39A C 0.0740(3) -0.4589(8) 0.7059(5)
H40A H 0.0715 -0.3165 0.7739
H41A H 0.0279 -0.3402 0.7306
H42A H 0.0403 -0.2515 0.7357
H39A H 0.0689 -0.4578 0.7388
H38A H 0.0892 -0.5718 0.7149
H34A H 0.1080 -0.5057 0.4958
H35A H 0.0969 -0.5617 0.5348
H36A H 0.1385 -0.5250 0.5672
H30A H 0.1193 -0.2450 0.5091
H31A H 0.0956 -0.2557 0.4347
H28A H 0.0500 -0.1330 0.4275
H29A H 0.0829 -0.1288 0.4997
O2 O 0.1925(2) 0.4582(5) 0.0182(4)
O3 O 0.2338(3) 0.8754(6) 0.4336(5)
O4 O 0.1353(3) 0.4558(5) 0.4004(4)
O5 O 0.1057(3) 0.8576(6) 0.0816(5)
O6 O 0.1552(3) 0.6685(5) 0.8397(5)
O7 O 0.0149(3) 0.4657(6) 0.4438(5)
O8 O 0.0578(4) 0.4021(9) 0.3803(6)
O9 O 0.0743(3) 0.2915(6) 0.5397(9)
O10 O 0.0618(7) 0.2713(16) 0.4268(14)
loop_
_geom_bond_atom_site_label_1
_geom_bond_atom_site_label_2
_geom_bond_site_symmetry_1
_geom_bond_site_symmetry_2
O1 Mn2 1_555 1_555
N1 C1 1_555 1_555
N2 C2 1_555 1_555
N3 C3 1_555 1_555
N4 C4 1_555 1_555
N5 C5 1_555 1_555
N6 C6 1_555 1_555
N7 C7 1_555 1_555
N8 C8 1_555 1_555
C1 Mo2 1_555 1_555
C2 Mo2 1_555 1_555
C3 Mo2 1_555 1_555
C4 Mo2 1_555 1_555
C5 Mo2 1_555 1_555
C6 Mo2 1_555 1_555
C7 Mo2 1_555 1_555
C8 Mo2 1_555 1_555
C9 N9 1_555 1_555
N9 Mn1 1_555 1_555
C10 N10 1_555 1_555
C11 N11 1_555 1_555
C12 N12 1_555 1_555
N13 Mn1 1_555 1_555
N14 Mn1 1_555 1_555
N15 Mn1 1_555 1_555
N16 Mn1 1_555 1_555
N17 Mn1 1_555 1_555
Mo1 C9 1_555 1_555
Mn1 N2 1_555 1_555
Mn2 N4 1_555 1_555
Mn3 N3 1_555 1_555
C13 N13 1_555 1_555
H1 C13 1_555 1_555
H2 C13 1_555 1_555
C14 N14 1_555 1_555
H3 C14 1_555 1_555
H4 C14 1_555 1_555
C15 N14 1_555 1_555
H5 C15 1_555 1_555
H6 C15 1_555 1_555
C16 N15 1_555 1_555
H7 C16 1_555 1_555
H8 C16 1_555 1_555
C17 N15 1_555 1_555
H9 C17 1_555 1_555
H10 C17 1_555 1_555
C18 N16 1_555 1_555
H11 C18 1_555 1_555
H12 C18 1_555 1_555
C19 H13 1_555 1_555
H14 C19 1_555 1_555
H15 C19 1_555 1_555
C20 N16 1_555 1_555
C21 N17 1_555 1_555
C22 C21 1_555 1_555
H16 C22 1_555 1_555
C23 C22 1_555 1_555
H17 C23 1_555 1_555
C24 C23 1_555 1_555
H18 C24 1_555 1_555
C25 N17 1_555 1_555
C26 N13 1_555 1_555
C27 C26 1_555 1_555
H19 C27 1_555 1_555
H20 C27 1_555 1_555
H21 C27 1_555 1_555
N18 Mn2 1_555 1_555
N19 Mn2 1_555 1_555
N20 Mn2 1_555 1_555
N21 Mn2 1_555 1_555
N22 Mn2 1_555 1_555
C28 N18 1_555 1_555
H22 C28 1_555 1_555
H23 C28 1_555 1_555
C29 N19 1_555 1_555
H24 C29 1_555 1_555
H25 C29 1_555 1_555
C30 N19 1_555 1_555
H26 C30 1_555 1_555
H27 C30 1_555 1_555
C31 N20 1_555 1_555
H28 C31 1_555 1_555
H29 C31 1_555 1_555
C32 N20 1_555 1_555
H30 C32 1_555 1_555
H31 C32 1_555 1_555
C33 N21 1_555 1_555
H32 C33 1_555 1_555
H33 C33 1_555 1_555
C34 H34 1_555 1_555
H35 C34 1_555 1_555
H36 C34 1_555 1_555
C35 N21 1_555 1_555
C36 N22 1_555 1_555
C37 C36 1_555 1_555
H37 C37 1_555 1_555
C38 C37 1_555 1_555
H38 C38 1_555 1_555
C39 C38 1_555 1_555
H39 C39 1_555 1_555
C40 N22 1_555 1_555
C41 N18 1_555 1_555
C42 C41 1_555 1_555
H40 C42 1_555 1_555
H41 C42 1_555 1_555
H42 C42 1_555 1_555
N23 Mn3 1_555 1_555
N24 Mn3 1_555 1_555
N25 Mn3 1_555 1_555
N26 Mn3 1_555 1_555
N27 Mn3 1_555 1_555
C43 N23 1_555 1_555
H43 C43 1_555 1_555
H44 C43 1_555 1_555
C44 N24 1_555 1_555
H45 C44 1_555 1_555
H46 C44 1_555 1_555
C45 N24 1_555 1_555
H47 C45 1_555 1_555
H48 C45 1_555 1_555
C46 N25 1_555 1_555
H49 C46 1_555 1_555
H50 C46 1_555 1_555
C47 N25 1_555 1_555
H51 C47 1_555 1_555
H52 C47 1_555 1_555
C48 N26 1_555 1_555
H53 C48 1_555 1_555
H54 C48 1_555 1_555
C49 H55 1_555 1_555
H56 C49 1_555 1_555
H57 C49 1_555 1_555
C50 N26 1_555 1_555
C51 N27 1_555 1_555
C52 C51 1_555 1_555
H58 C52 1_555 1_555
C53 C52 1_555 1_555
H59 C53 1_555 1_555
C54 C53 1_555 1_555
H60 C54 1_555 1_555
C55 N27 1_555 1_555
C56 N23 1_555 1_555
C57 C56 1_555 1_555
H61 C57 1_555 1_555
H62 C57 1_555 1_555
H63 C57 1_555 1_555
C9A Mo1 1_555 1_555
N9A C9A 1_555 1_555
Mn1A N9A 1_555 1_555
N2A Mn1A 1_555 1_555
C2A N2A 1_555 1_555
Mo2A C2A 1_555 1_555
C1A Mo2A 1_555 1_555
N1A C1A 1_555 1_555
C3A Mo2A 1_555 1_555
N3A C3A 1_555 1_555
Mn3A N3A 1_555 1_555
N8B Mn3A 1_555 1_555
N23A Mn3A 1_555 1_555
C43A N23A 1_555 1_555
H43A C43A 1_555 1_555
H44A C43A 1_555 1_555
C44A C43A 1_555 1_555
N24A Mn3A 1_555 1_555
N25A Mn3A 1_555 1_555
C46A N25A 1_555 1_555
C45A N24A 1_555 1_555
H47A C45A 1_555 1_555
H48A C45A 1_555 1_555
H49A C46A 1_555 1_555
H50A C46A 1_555 1_555
C47A N25A 1_555 1_555
H51A C47A 1_555 1_555
H52A C47A 1_555 1_555
C48A C47A 1_555 1_555
N26A Mn3A 1_555 1_555
N27A Mn3A 1_555 1_555
C51A N27A 1_555 1_555
C50A N26A 1_555 1_555
C49A C50A 1_555 1_555
H55A C49A 1_555 1_555
H56A C49A 1_555 1_555
H57A C49A 1_555 1_555
C52A C51A 1_555 1_555
H58A C52A 1_555 1_555
C53A C52A 1_555 1_555
H59A C53A 1_555 1_555
C54A C53A 1_555 1_555
H60A C54A 1_555 1_555
C55A N27A 1_555 1_555
C56A N23A 1_555 1_555
C57A C56A 1_555 1_555
H61A C57A 1_555 1_555
H62A C57A 1_555 1_555
H63A C57A 1_555 1_555
H53A C48A 1_555 1_555
H54A C48A 1_555 1_555
H45A C44A 1_555 1_555
H46A C44A 1_555 1_555
C4A Mo2A 1_555 1_555
C5A Mo2A 1_555 1_555
N5A C5A 1_555 1_555
C6A Mo2A 1_555 1_555
N6A C6A 1_555 1_555
C7A Mo2A 1_555 1_555
N7A C7A 1_555 1_555
C8A Mo2A 1_555 1_555
N13A Mn1A 1_555 1_555
C13A N13A 1_555 1_555
H1A C13A 1_555 1_555
H2A C13A 1_555 1_555
C14A C13A 1_555 1_555
N14A Mn1A 1_555 1_555
N15A Mn1A 1_555 1_555
C16A N15A 1_555 1_555
C15A N14A 1_555 1_555
H5A C15A 1_555 1_555
H6A C15A 1_555 1_555
H7A C16A 1_555 1_555
H8A C16A 1_555 1_555
C17A N15A 1_555 1_555
H9A C17A 1_555 1_555
H10A C17A 1_555 1_555
C18A C17A 1_555 1_555
N16A Mn1A 1_555 1_555
N17A Mn1A 1_555 1_555
C21A N17A 1_555 1_555
C20A N16A 1_555 1_555
C19A C20A 1_555 1_555
H13A C19A 1_555 1_555
H14A C19A 1_555 1_555
H15A C19A 1_555 1_555
C22A C21A 1_555 1_555
H16A C22A 1_555 1_555
C23A C22A 1_555 1_555
H17A C23A 1_555 1_555
C24A C23A 1_555 1_555
H18A C24A 1_555 1_555
C25A N17A 1_555 1_555
C26A N13A 1_555 1_555
C27A C26A 1_555 1_555
H19A C27A 1_555 1_555
H20A C27A 1_555 1_555
H21A C27A 1_555 1_555
H11A C18A 1_555 1_555
H12A C18A 1_555 1_555
H3A C14A 1_555 1_555
H4A C14A 1_555 1_555
C10A Mo1 1_555 1_555
N10A C10A 1_555 1_555
C12A Mo1 1_555 1_555
N12A C12A 1_555 1_555
Mn3C N8 1_555 1_555
N8C Mn3 1_555 1_555
N8A C8A 1_555 1_555
N4A C4A 1_555 1_555
Mn2A N4A 1_555 1_555
Mn3B N8A 1_555 1_555
O1A Mn2A 1_555 1_555
N18A Mn2A 1_555 1_555
N19A Mn2A 1_555 1_555
N20A Mn2A 1_555 1_555
N21A Mn2A 1_555 1_555
N22A Mn2A 1_555 1_555
C29A N19A 1_555 1_555
C30A N19A 1_555 1_555
C28A N18A 1_555 1_555
C41A N18A 1_555 1_555
C36A N22A 1_555 1_555
C40A N22A 1_555 1_555
C33A N21A 1_555 1_555
C35A N21A 1_555 1_555
H24A C29A 1_555 1_555
H25A C29A 1_555 1_555
C37A C36A 1_555 1_555
H22A C28A 1_555 1_555
H23A C28A 1_555 1_555
C42A C41A 1_555 1_555
H26A C30A 1_555 1_555
H27A C30A 1_555 1_555
C31A N20A 1_555 1_555
C32A N20A 1_555 1_555
H32A C33A 1_555 1_555
H33A C33A 1_555 1_555
C34A C35A 1_555 1_555
H37A C37A 1_555 1_555
C38A C37A 1_555 1_555
C39A C40A 1_555 1_555
H40A C42A 1_555 1_555
H41A C42A 1_555 1_555
H42A C42A 1_555 1_555
H39A C39A 1_555 1_555
H38A C38A 1_555 1_555
H34A C34A 1_555 1_555
H35A C34A 1_555 1_555
H36A C34A 1_555 1_555
H30A C32A 1_555 1_555
H31A C32A 1_555 1_555
H28A C31A 1_555 1_555
H29A C31A 1_555 1_555
C10 Mo1 1_555 1_555
C11 Mo1 1_555 1_555
C12 Mo1 1_555 1_555
C13 C14 1_555 1_555
C15 C16 1_555 1_555
C17 C18 1_555 1_555
C19 C20 1_555 1_555
C20 C21 1_555 1_555
C24 C25 1_555 1_555
C25 C26 1_555 1_555
C28 C29 1_555 1_555
C30 C31 1_555 1_555
C32 C33 1_555 1_555
C34 C35 1_555 1_555
C35 C36 1_555 1_555
C39 C40 1_555 1_555
C40 C41 1_555 1_555
C43 C44 1_555 1_555
C45 C46 1_555 1_555
C47 C48 1_555 1_555
C49 C50 1_555 1_555
C50 C51 1_555 1_555
C54 C55 1_555 1_555
C55 C56 1_555 1_555
C44A N24A 1_555 1_555
C46A C45A 1_555 1_555
C48A N26A 1_555 1_555
C51A C50A 1_555 1_555
C54A C55A 1_555 1_555
C55A C56A 1_555 1_555
C14A N14A 1_555 1_555
C16A C15A 1_555 1_555
C18A N16A 1_555 1_555
C21A C20A 1_555 1_555
C24A C25A 1_555 1_555
C25A C26A 1_555 1_555
C29A C28A 1_555 1_555
C30A C31A 1_555 1_555
C41A C40A 1_555 1_555
C36A C35A 1_555 1_555
C33A C32A 1_555 1_555
C38A C39A 1_555 1_555

#END
