
#######################################################################
#
#                 Cambridge Crystallographic Data Centre
#                                CCDC 
#
#######################################################################
#
# If this CIF has been generated from an entry in the Cambridge 
# Structural Database, then it will include bibliographic, chemical, 
# crystal, experimental, refinement or atomic coordinate data resulting 
# from the CCDC's data processing and validation procedures.
#
#######################################################################

data_BOCPOA
_symmetry_cell_setting           monoclinic
_symmetry_space_group_name_H-M   'P 2/c'
_symmetry_Int_Tables_number      13
_space_group_name_Hall           '-P 2yc'
loop_
_symmetry_equiv_pos_site_id
_symmetry_equiv_pos_as_xyz
1 x,y,z
2 -x,y,1/2-z
3 -x,-y,-z
4 x,-y,1/2+z
_cell_length_a                   12.285(3)
_cell_length_b                   4.8482(10)
_cell_length_c                   15.271(3)
_cell_angle_alpha                90
_cell_angle_beta                 98.00(3)
_cell_angle_gamma                90
_cell_volume                     900.691
loop_
_atom_site_label
_atom_site_type_symbol
_atom_site_fract_x
_atom_site_fract_y
_atom_site_fract_z
Hg1 Hg 0.5000 -0.01536(4) 0.2500
Cl1 Cl 0.61049(9) -0.1178(2) 0.38614(6)
C1 C 0.1775(4) 0.9118(11) 0.3998(3)
C2 C 0.3948(4) 0.3872(9) 0.3923(3)
H1 H 0.4536 0.3071 0.4310
C3 C 0.2446(3) 0.7051(9) 0.3688(3)
C4 C 0.2249(4) 0.6136(9) 0.2821(3)
H2 H 0.1656 0.6871 0.2425
C5 C 0.1230(4) 1.0887(10) 0.4276(3)
C6 C 0.0599(3) 1.2960(8) 0.4641(3)
C7 C 0.3310(4) 0.5860(11) 0.4251(3)
H3 H 0.3457 0.6411 0.4853
C8 C 0.2929(4) 0.4134(11) 0.2537(3)
H4 H 0.2795 0.3527 0.1940
C9 C 0.1000(4) 1.4112(11) 0.5461(3)
H5 H 0.1682 1.3511 0.5772
C10 C -0.0398(4) 1.3864(10) 0.4180(3)
H6 H -0.0665 1.3092 0.3619
N1 N 0.3772(3) 0.3030(7) 0.3080(2)
C1B C -0.1775(4) 2.0882(11) 0.6002(3)
C2B C -0.3948(4) 2.6128(9) 0.6077(3)
H1B H -0.4536 2.6929 0.5690
C3B C -0.2446(3) 2.2949(9) 0.6312(3)
C4B C -0.2249(4) 2.3864(9) 0.7179(3)
H2B H -0.1656 2.3129 0.7575
C5B C -0.1230(4) 1.9113(10) 0.5724(3)
C6B C -0.0599(3) 1.7040(8) 0.5359(3)
C7B C -0.3310(4) 2.4140(11) 0.5749(3)
H3B H -0.3457 2.3589 0.5147
C8B C -0.2929(4) 2.5866(11) 0.7463(3)
H4B H -0.2795 2.6473 0.8060
C9B C -0.1000(4) 1.5888(11) 0.4539(3)
H5B H -0.1682 1.6489 0.4228
C10B C 0.0398(4) 1.6136(10) 0.5820(3)
H6B H 0.0665 1.6908 0.6381
N1B N -0.3772(3) 2.6970(7) 0.6920(2)
Cl1A Cl 0.38951(9) -0.1178(2) 0.11386(6)
Hg1B Hg -0.5000 3.01536(4) 0.7500
N1A N 0.6228(3) 0.3030(7) 0.1920(2)
loop_
_geom_bond_atom_site_label_1
_geom_bond_atom_site_label_2
_geom_bond_site_symmetry_1
_geom_bond_site_symmetry_2
Hg1 Cl1 1_555 1_555
C1 C3 1_555 1_555
C2 H1 1_555 1_555
C3 C4 1_555 1_555
C4 H2 1_555 1_555
C5 C1 1_555 1_555
C6 C5 1_555 1_555
C7 C2 1_555 1_555
H3 C7 1_555 1_555
C8 C4 1_555 1_555
H4 C8 1_555 1_555
C9 C6 1_555 1_555
H5 C9 1_555 1_555
C10 C6 1_555 1_555
H6 C10 1_555 1_555
N1 Hg1 1_555 1_555
C1B C3B 1_555 1_555
C2B H1B 1_555 1_555
C3B C4B 1_555 1_555
C4B H2B 1_555 1_555
C5B C1B 1_555 1_555
C6B C5B 1_555 1_555
C7B C2B 1_555 1_555
H3B C7B 1_555 1_555
C8B C4B 1_555 1_555
H4B C8B 1_555 1_555
C9B C10 1_555 1_555
H5B C9B 1_555 1_555
C10B C9 1_555 1_555
H6B C10B 1_555 1_555
N1B C2B 1_555 1_555
Cl1A Hg1 1_555 1_555
Hg1B N1B 1_555 1_555
N1A Hg1 1_555 1_555
C2 N1 1_555 1_555
C3 C7 1_555 1_555
C8 N1 1_555 1_555
C3B C7B 1_555 1_555
C6B C9B 1_555 1_555
C6B C10B 1_555 1_555
C8B N1B 1_555 1_555

#END
