
#######################################################################
#
#                 Cambridge Crystallographic Data Centre
#                                CCDC 
#
#######################################################################
#
# If this CIF has been generated from an entry in the Cambridge 
# Structural Database, then it will include bibliographic, chemical, 
# crystal, experimental, refinement or atomic coordinate data resulting 
# from the CCDC's data processing and validation procedures.
#
#######################################################################

data_BOCTET
_symmetry_cell_setting           orthorhombic
_symmetry_space_group_name_H-M   'P c c n'
_symmetry_Int_Tables_number      56
_space_group_name_Hall           '-P 2ab 2ac'
loop_
_symmetry_equiv_pos_site_id
_symmetry_equiv_pos_as_xyz
1 x,y,z
2 1/2-x,1/2-y,z
3 -x,1/2+y,1/2-z
4 1/2+x,-y,1/2-z
5 -x,-y,-z
6 1/2+x,1/2+y,-z
7 x,1/2-y,1/2+z
8 1/2-x,y,1/2+z
_cell_length_a                   22.928(1)
_cell_length_b                   14.8182(7)
_cell_length_c                   21.085(1)
_cell_angle_alpha                90
_cell_angle_beta                 90
_cell_angle_gamma                90
_cell_volume                     7163.66
loop_
_atom_site_label
_atom_site_type_symbol
_atom_site_fract_x
_atom_site_fract_y
_atom_site_fract_z
I1 I 0.7500 0.2500 0.214488(11)
Cu1 Cu 0.650336(13) 0.26488(2) 0.135485(14)
P1 P 0.69431(3) 0.25860(4) 0.04326(3)
O1 O 0.57420(9) 0.32350(16) -0.11815(10)
N1 N 0.74574(9) 0.17529(14) 0.03151(10)
N2 N 0.65056(9) 0.26807(15) -0.01903(10)
N3 N 0.59330(9) 0.16883(15) 0.17183(10)
N4 N 0.39521(9) -0.13040(14) 0.32284(10)
C1 C 0.73873(11) 0.07547(17) 0.03449(12)
C2 C 0.72040(14) 0.04244(19) -0.03114(13)
H1 H 0.6828 0.0694 -0.0425
H2 H 0.7167 -0.0234 -0.0306
H3 H 0.7499 0.0601 -0.0624
C3 C 0.79685(12) 0.03179(18) 0.05220(14)
H4 H 0.8264 0.0479 0.0206
H5 H 0.7923 -0.0339 0.0534
H6 H 0.8092 0.0534 0.0940
C4 C 0.69235(12) 0.04969(18) 0.08296(13)
H7 H 0.7034 0.0731 0.1247
H8 H 0.6890 -0.0162 0.0850
H9 H 0.6548 0.0755 0.0703
C5 C 0.66965(13) 0.2698(2) -0.08519(12)
H10 H 0.6641 0.2094 -0.1043
H11 H 0.7117 0.2847 -0.0871
C6 C 0.63541(12) 0.3388(2) -0.12217(14)
H12 H 0.6444 0.3998 -0.1057
H13 H 0.6475 0.3367 -0.1672
C7 C 0.55611(12) 0.3289(2) -0.05318(14)
H14 H 0.5134 0.3194 -0.0505
H15 H 0.5649 0.3898 -0.0364
C8 C 0.58697(11) 0.2586(2) -0.01336(13)
H16 H 0.5754 0.2657 0.0316
H17 H 0.5751 0.1976 -0.0275
C9 C 0.60925(11) 0.11236(17) 0.21871(12)
H18 H 0.6490 0.1115 0.2313
C10 C 0.57064(11) 0.05547(17) 0.24957(12)
H19 H 0.5836 0.0188 0.2837
C11 C 0.51257(11) 0.05249(17) 0.23020(12)
C12 C 0.49624(12) 0.10882(19) 0.18081(13)
H20 H 0.4573 0.1077 0.1654
C13 C 0.53680(12) 0.16694(19) 0.15396(13)
H21 H 0.5242 0.2071 0.1216
C14 C 0.39955(11) -0.12743(18) 0.25913(12)
H22 H 0.3764 -0.1679 0.2349
C15 C 0.43587(11) -0.06856(18) 0.22721(13)
H23 H 0.4370 -0.0683 0.1822
C16 C 0.47097(11) -0.00936(18) 0.26185(12)
C17 C 0.46686(11) -0.01192(18) 0.32767(13)
H24 H 0.4900 0.0271 0.3530
C18 C 0.42850(11) -0.07219(18) 0.35588(13)
H25 H 0.4256 -0.0724 0.4008
Cu1A Cu 0.849664(13) 0.23512(2) 0.135485(14)
Cu1B Cu 0.349664(13) -0.23512(2) 0.364515(14)
Cu1B_2 Cu 0.349664(13) 0.76488(2) 0.364515(14)
P1A P 0.80569(3) 0.24140(4) 0.04326(3)
O1A O 0.92580(9) 0.17650(16) -0.11815(10)
N1A N 0.75426(9) 0.32471(14) 0.03151(10)
N2A N 0.84944(9) 0.23193(15) -0.01903(10)
N3B N 0.40670(9) 0.66883(15) 0.32817(10)
N3A N 0.90670(9) 0.33117(15) 0.17183(10)
N4B N 0.60479(9) 0.36960(14) 0.17716(10)
N4C N 0.89521(9) 0.13040(14) 0.17716(10)
C1A C 0.76127(11) 0.42453(17) 0.03449(12)
C2A C 0.77960(14) 0.45756(19) -0.03114(13)
H1A H 0.8172 0.4306 -0.0425
H2A H 0.7833 0.5234 -0.0306
H3A H 0.7501 0.4399 -0.0624
C3A C 0.70315(12) 0.46821(18) 0.05220(14)
H4A H 0.6736 0.4521 0.0206
H5A H 0.7077 0.5339 0.0534
H6A H 0.6908 0.4466 0.0940
C4A C 0.80765(12) 0.45031(18) 0.08296(13)
H7A H 0.7966 0.4269 0.1247
H8A H 0.8110 0.5162 0.0850
H9A H 0.8452 0.4245 0.0703
C5A C 0.83035(13) 0.2302(2) -0.08519(12)
H10A H 0.8359 0.2906 -0.1043
H11A H 0.7883 0.2153 -0.0871
C6A C 0.86459(12) 0.1612(2) -0.12217(14)
H12A H 0.8556 0.1002 -0.1057
H13A H 0.8525 0.1633 -0.1672
C7A C 0.94389(12) 0.1711(2) -0.05318(14)
H14A H 0.9866 0.1806 -0.0505
H15A H 0.9351 0.1102 -0.0364
C8A C 0.91303(11) 0.2414(2) -0.01336(13)
H16A H 0.9246 0.2343 0.0316
H17A H 0.9249 0.3024 -0.0275
C9B C 0.39075(11) 0.61236(17) 0.28129(12)
H18B H 0.3510 0.6115 0.2687
C10B C 0.42936(11) 0.55547(17) 0.25043(12)
H19B H 0.4164 0.5188 0.2163
C11B C 0.48743(11) 0.55249(17) 0.26980(12)
C12B C 0.50376(12) 0.60882(19) 0.31919(13)
H20B H 0.5427 0.6077 0.3346
C13B C 0.46320(12) 0.66694(19) 0.34604(13)
H21B H 0.4758 0.7071 0.3784
C14B C 0.60045(11) 0.37257(18) 0.24087(12)
H22B H 0.6236 0.3321 0.2651
C15B C 0.56413(11) 0.43144(18) 0.27279(13)
H23B H 0.5630 0.4317 0.3178
C16B C 0.52903(11) 0.49064(18) 0.23815(12)
C17B C 0.53314(11) 0.48808(18) 0.17233(13)
H24B H 0.5100 0.5271 0.1470
C18B C 0.57150(11) 0.42781(18) 0.14412(13)
H25B H 0.5744 0.4276 0.0992
I2 I 0.7500 0.7500 0.456611(12)
I3 I 0.574553(8) 0.859385(15) 0.429589(9)
Cu2 Cu 0.661904(15) 0.78866(2) 0.379947(16)
P2 P 0.69514(3) 0.76410(4) 0.28287(3)
O2 O 0.56837(9) 0.75411(15) 0.12068(10)
N5 N 0.74138(9) 0.67575(14) 0.27105(10)
N6 N 0.65064(10) 0.76795(15) 0.22069(11)
C19 C 0.72981(12) 0.57810(17) 0.28032(13)
C20 C 0.78435(13) 0.5316(2) 0.30526(17)
H26 H 0.7944 0.5565 0.3469
H27 H 0.8167 0.5417 0.2757
H28 H 0.7771 0.4667 0.3092
C21 C 0.71391(15) 0.5378(2) 0.21599(14)
H29 H 0.7101 0.4722 0.2200
H30 H 0.7446 0.5520 0.1852
H31 H 0.6768 0.5634 0.2015
C22 C 0.68004(12) 0.56395(19) 0.32690(13)
H32 H 0.6902 0.5913 0.3678
H33 H 0.6733 0.4992 0.3327
H34 H 0.6446 0.5923 0.3103
C23 C 0.59256(12) 0.80916(19) 0.22571(14)
H35 H 0.5941 0.8726 0.2111
H36 H 0.5795 0.8086 0.2704
C24 C 0.55000(13) 0.7558(2) 0.18481(14)
H37 H 0.5472 0.6932 0.2010
H38 H 0.5108 0.7836 0.1875
C25 C 0.62341(12) 0.7092(2) 0.11581(14)
H39 H 0.6355 0.7069 0.0708
H40 H 0.6194 0.6465 0.1313
C26 C 0.67004(12) 0.7577(2) 0.15432(12)
H41 H 0.7068 0.7227 0.1530
H42 H 0.6776 0.8179 0.1357
I3A I 0.925447(8) 0.640615(15) 0.429589(9)
Cu2A Cu 0.838096(15) 0.71134(2) 0.379947(16)
P2A P 0.80486(3) 0.73590(4) 0.28287(3)
O2A O 0.93163(9) 0.74589(15) 0.12068(10)
N5A N 0.75862(9) 0.82425(14) 0.27105(10)
N6A N 0.84936(10) 0.73205(15) 0.22069(11)
C19A C 0.77019(12) 0.92190(17) 0.28032(13)
C20A C 0.71565(13) 0.9684(2) 0.30526(17)
H26A H 0.7056 0.9435 0.3469
H27A H 0.6833 0.9583 0.2757
H28A H 0.7229 1.0333 0.3092
C21A C 0.78609(15) 0.9622(2) 0.21599(14)
H29A H 0.7899 1.0278 0.2200
H30A H 0.7554 0.9480 0.1852
H31A H 0.8232 0.9366 0.2015
C22A C 0.81996(12) 0.93605(19) 0.32690(13)
H32A H 0.8098 0.9087 0.3678
H33A H 0.8267 1.0008 0.3327
H34A H 0.8554 0.9077 0.3103
C23A C 0.90744(12) 0.69084(19) 0.22571(14)
H35A H 0.9059 0.6274 0.2111
H36A H 0.9205 0.6914 0.2704
C24A C 0.95000(13) 0.7442(2) 0.18481(14)
H37A H 0.9528 0.8068 0.2010
H38A H 0.9892 0.7164 0.1875
C25A C 0.87659(12) 0.7908(2) 0.11581(14)
H39A H 0.8645 0.7931 0.0708
H40A H 0.8806 0.8535 0.1313
C26A C 0.82996(12) 0.7423(2) 0.15432(12)
H41A H 0.7932 0.7773 0.1530
H42A H 0.8224 0.6821 0.1357
N7 N 0.55923(17) 0.4734(2) 0.43591(16)
C27 C 0.56675(18) 0.5342(3) 0.46868(18)
C28 C 0.5744(2) 0.6098(3) 0.5111(2)
H43 H 0.5536 0.5981 0.5508
H44 H 0.5588 0.6645 0.4912
H45 H 0.6160 0.6180 0.5199
loop_
_geom_bond_atom_site_label_1
_geom_bond_atom_site_label_2
_geom_bond_site_symmetry_1
_geom_bond_site_symmetry_2
I1 Cu1 1_555 1_555
Cu1 P1 1_555 1_555
P1 N1 1_555 1_555
O1 C6 1_555 1_555
N1 C1 1_555 1_555
N2 P1 1_555 1_555
N3 Cu1 1_555 1_555
N4 C14 1_555 1_555
C1 C2 1_555 1_555
C2 H1 1_555 1_555
H2 C2 1_555 1_555
H3 C2 1_555 1_555
C3 C1 1_555 1_555
H4 C3 1_555 1_555
H5 C3 1_555 1_555
H6 C3 1_555 1_555
C4 C1 1_555 1_555
H7 C4 1_555 1_555
H8 C4 1_555 1_555
H9 C4 1_555 1_555
C5 N2 1_555 1_555
H10 C5 1_555 1_555
H11 C5 1_555 1_555
C6 C5 1_555 1_555
H12 C6 1_555 1_555
H13 C6 1_555 1_555
C7 O1 1_555 1_555
H14 C7 1_555 1_555
H15 C7 1_555 1_555
C8 N2 1_555 1_555
H16 C8 1_555 1_555
H17 C8 1_555 1_555
C9 N3 1_555 1_555
H18 C9 1_555 1_555
C10 C9 1_555 1_555
H19 C10 1_555 1_555
C11 C10 1_555 1_555
C12 C11 1_555 1_555
H20 C12 1_555 1_555
C13 N3 1_555 1_555
H21 C13 1_555 1_555
C14 H22 1_555 1_555
C15 C14 1_555 1_555
H23 C15 1_555 1_555
C16 C11 1_555 1_555
C17 C16 1_555 1_555
H24 C17 1_555 1_555
C18 N4 1_555 1_555
H25 C18 1_555 1_555
I2 Cu2 1_555 1_555
I3 Cu2 1_555 1_555
Cu2 P2 1_555 1_555
P2 N5 1_555 1_555
O2 C24 1_555 1_555
N5 C19 1_555 1_555
N6 P2 1_555 1_555
C19 C20 1_555 1_555
C20 H26 1_555 1_555
H27 C20 1_555 1_555
H28 C20 1_555 1_555
C21 C19 1_555 1_555
H29 C21 1_555 1_555
H30 C21 1_555 1_555
H31 C21 1_555 1_555
C22 C19 1_555 1_555
H32 C22 1_555 1_555
H33 C22 1_555 1_555
H34 C22 1_555 1_555
C23 N6 1_555 1_555
H35 C23 1_555 1_555
H36 C23 1_555 1_555
C24 C23 1_555 1_555
H37 C24 1_555 1_555
H38 C24 1_555 1_555
C25 O2 1_555 1_555
H39 C25 1_555 1_555
H40 C25 1_555 1_555
C26 N6 1_555 1_555
H41 C26 1_555 1_555
H42 C26 1_555 1_555
N7 C27 1_555 1_555
C27 C28 1_555 1_555
C28 H43 1_555 1_555
H44 C28 1_555 1_555
H45 C28 1_555 1_555
Cu1A I1 1_555 1_555
Cu1B N4 1_555 1_555
Cu1B_2 N3B 1_555 1_555
P1A N1 1_555 1_555
O1A C6A 1_555 1_555
N1A P1 1_555 1_555
N2A P1A 1_555 1_555
N3B C9B 1_555 1_555
N3A Cu1A 1_555 1_555
N4B Cu1 1_555 1_555
N4C Cu1A 1_555 1_555
C1A N1A 1_555 1_555
C2A C1A 1_555 1_555
H1A C2A 1_555 1_555
H2A C2A 1_555 1_555
H3A C2A 1_555 1_555
C3A C1A 1_555 1_555
H4A C3A 1_555 1_555
H5A C3A 1_555 1_555
H6A C3A 1_555 1_555
C4A C1A 1_555 1_555
H7A C4A 1_555 1_555
H8A C4A 1_555 1_555
H9A C4A 1_555 1_555
C5A N2A 1_555 1_555
H10A C5A 1_555 1_555
H11A C5A 1_555 1_555
C6A C5A 1_555 1_555
H12A C6A 1_555 1_555
H13A C6A 1_555 1_555
C7A O1A 1_555 1_555
H14A C7A 1_555 1_555
H15A C7A 1_555 1_555
C8A N2A 1_555 1_555
H16A C8A 1_555 1_555
H17A C8A 1_555 1_555
C9B H18B 1_555 1_555
C10B C9B 1_555 1_555
H19B C10B 1_555 1_555
C11B C10B 1_555 1_555
C12B C11B 1_555 1_555
H20B C12B 1_555 1_555
C13B N3B 1_555 1_555
H21B C13B 1_555 1_555
C14B N4B 1_555 1_555
H22B C14B 1_555 1_555
C15B C14B 1_555 1_555
H23B C15B 1_555 1_555
C16B C11B 1_555 1_555
C17B C16B 1_555 1_555
H24B C17B 1_555 1_555
C18B N4B 1_555 1_555
H25B C18B 1_555 1_555
I3A Cu2A 1_555 1_555
Cu2A I2 1_555 1_555
P2A N5 1_555 1_555
O2A C24A 1_555 1_555
N5A P2 1_555 1_555
N6A P2A 1_555 1_555
C19A N5A 1_555 1_555
C20A C19A 1_555 1_555
H26A C20A 1_555 1_555
H27A C20A 1_555 1_555
H28A C20A 1_555 1_555
C21A C19A 1_555 1_555
H29A C21A 1_555 1_555
H30A C21A 1_555 1_555
H31A C21A 1_555 1_555
C22A C19A 1_555 1_555
H32A C22A 1_555 1_555
H33A C22A 1_555 1_555
H34A C22A 1_555 1_555
C23A N6A 1_555 1_555
H35A C23A 1_555 1_555
H36A C23A 1_555 1_555
C24A C23A 1_555 1_555
H37A C24A 1_555 1_555
H38A C24A 1_555 1_555
C25A O2A 1_555 1_555
H39A C25A 1_555 1_555
H40A C25A 1_555 1_555
C26A N6A 1_555 1_555
H41A C26A 1_555 1_555
H42A C26A 1_555 1_555
C7 C8 1_555 1_555
C12 C13 1_555 1_555
C15 C16 1_555 1_555
C17 C18 1_555 1_555
C25 C26 1_555 1_555
Cu1A P1A 1_555 1_555
P1A N1A 1_555 1_555
C7A C8A 1_555 1_555
C12B C13B 1_555 1_555
C15B C16B 1_555 1_555
C17B C18B 1_555 1_555
Cu2A P2A 1_555 1_555
P2A N5A 1_555 1_555
C25A C26A 1_555 1_555

#END
