
#######################################################################
#
#                 Cambridge Crystallographic Data Centre
#                                CCDC 
#
#######################################################################
#
# If this CIF has been generated from an entry in the Cambridge 
# Structural Database, then it will include bibliographic, chemical, 
# crystal, experimental, refinement or atomic coordinate data resulting 
# from the CCDC's data processing and validation procedures.
#
#######################################################################

data_BODGOR
_symmetry_cell_setting           triclinic
_symmetry_space_group_name_H-M   'P -1'
_symmetry_Int_Tables_number      2
_space_group_name_Hall           '-P 1'
loop_
_symmetry_equiv_pos_site_id
_symmetry_equiv_pos_as_xyz
1 x,y,z
2 -x,-y,-z
_cell_length_a                   11.6465(1)
_cell_length_b                   14.5947(2)
_cell_length_c                   19.2504(2)
_cell_angle_alpha                98.9173(6)
_cell_angle_beta                 105.1056(6)
_cell_angle_gamma                112.3198(6)
_cell_volume                     2801.73
loop_
_atom_site_label
_atom_site_type_symbol
_atom_site_fract_x
_atom_site_fract_y
_atom_site_fract_z
Cl6 Cl 0.03842(10) 0.35336(8) 1.02453(5)
N11 N 0.1674(5) 0.5339(4) 0.4829(3)
C39 C 0.2524(4) 0.5210(3) 0.5172(3)
C40 C 0.3576(6) 0.5006(5) 0.5591(4)
H41 H 0.4280 0.5637 0.5941
H42 H 0.3238 0.4524 0.5858
H43 H 0.3907 0.4717 0.5252
N12 N 0.5662(9) 0.2430(6) 0.7269(4)
C41 C 0.5942(8) 0.2291(5) 0.7834(4)
C42 C 0.6283(10) 0.2078(6) 0.8543(4)
H44 H 0.7205 0.2496 0.8835
H45 H 0.5753 0.2226 0.8809
H46 H 0.6092 0.1361 0.8457
N14 N 0.3095(16) 0.8495(15) 0.4493(8)
C45 C 0.3721(17) 0.8056(15) 0.4455(8)
C46 C 0.4369(19) 0.7393(16) 0.4376(10)
H50 H 0.5307 0.7824 0.4575
H51 H 0.4147 0.6883 0.4640
H52 H 0.4107 0.7056 0.3852
O2 O 0.1848(3) 0.5729(3) 1.00678(19)
H3 H 0.1411 0.6066 1.0049
H4 H 0.1395 0.5142 1.0086
O3 O 0.6041(6) 0.1695(4) 1.0257(3)
H5 H 0.5374 0.1917 1.0068
H6 H 0.6007 0.1559 1.0657
O4 O 0.3289(3) 0.6153(4) 0.9178(2)
H7 H 0.2841 0.6085 0.9455
H8 H 0.2894 0.6236 0.8785
O5 O 0.3514(5) 0.0583(4) 0.9159(3)
H9 H 0.3205 0.0098 0.9335
H10 H 0.3735 0.0384 0.8810
O6 O 0.8645(8) 0.9263(6) 0.5933(3)
H12 H 0.7824 0.9004 0.5787
H13 H 0.8936 0.9213 0.6360
O7 O 0.5146(8) 0.6607(5) 0.3898(4)
H14 H 0.5547 0.6876 0.4356
H15 H 0.4584 0.6005 0.3810
O8 O 0.6469(7) 0.7497(6) 0.5423(4)
O9 O -0.1059(9) 0.0702(7) 1.0660(6)
Ru1 Ru 0.13180(2) 0.240923(18) 0.763112(12)
Cu1 Cu 0.62868(3) 0.26787(3) 1.277638(19)
Cu2 Cu 0.12074(3) 0.26799(3) 1.26044(2)
Cl1 Cl 0.54621(8) 0.21017(7) 1.36770(5)
Cl2 Cl 0.73146(8) 0.42552(7) 1.26020(6)
Cl3 Cl 0.59155(8) 0.11888(6) 1.17897(5)
Cl4 Cl 0.28618(8) 0.42482(7) 1.33549(5)
Cl5 Cl 0.02499(12) 0.09424(7) 1.24021(8)
N1 N -0.0439(2) 0.1338(2) 0.76672(15)
N2 N 0.1883(2) 0.2361(2) 0.86823(14)
N3 N 0.3293(2) 0.34916(19) 0.80239(14)
N4 N 0.0509(2) 0.3453(2) 0.77274(13)
N5 N 0.0786(2) 0.24882(19) 0.65856(14)
N6 N 0.1838(2) 0.1356(2) 0.71006(14)
N7 N 0.2420(3) 0.2547(2) 1.20528(14)
N8 N 0.4498(2) 0.2580(2) 1.21458(14)
N9 N 0.8102(2) 0.2777(2) 1.33328(14)
N10 N 0.0072(2) 0.2785(2) 1.32178(14)
C1 C -0.1633(3) 0.0898(3) 0.71157(19)
C2 C -0.2771(3) 0.0296(3) 0.7237(2)
C3 C -0.2694(3) 0.0153(3) 0.7933(2)
C4 C -0.1475(3) 0.0611(3) 0.85074(19)
C5 C -0.0356(3) 0.1203(2) 0.83613(16)
C6 C 0.0983(3) 0.1749(2) 0.89354(16)
C7 C 0.1339(3) 0.1719(2) 0.96705(17)
C8 C 0.2659(3) 0.2344(2) 1.01545(16)
C9 C 0.3582(3) 0.2968(2) 0.98849(16)
C10 C 0.3160(3) 0.2969(2) 0.91380(17)
C11 C 0.3967(3) 0.3598(2) 0.87577(17)
C12 C 0.5298(3) 0.4269(3) 0.91037(19)
C13 C 0.5980(3) 0.4826(3) 0.8697(2)
C14 C 0.5303(3) 0.4705(3) 0.7956(2)
C15 C 0.3958(3) 0.4030(3) 0.76394(18)
C16 C 0.0267(3) 0.3823(3) 0.83359(18)
C17 C -0.0461(4) 0.4383(3) 0.83065(19)
C18 C -0.0978(4) 0.4575(3) 0.7643(2)
C19 C -0.0751(3) 0.4184(2) 0.70071(18)
C20 C -0.0018(3) 0.3617(2) 0.70651(16)
C21 C 0.0209(3) 0.3119(2) 0.64243(16)
C22 C -0.0132(3) 0.3222(2) 0.57021(17)
C23 C 0.0114(3) 0.2658(2) 0.51504(16)
C24 C 0.0695(3) 0.2003(2) 0.53276(16)
C25 C 0.1024(3) 0.1932(2) 0.60571(17)
C26 C 0.1623(3) 0.1283(2) 0.63510(17)
C27 C 0.1961(4) 0.0643(3) 0.59190(19)
C28 C 0.2520(4) 0.0055(3) 0.6250(2)
C29 C 0.2731(4) 0.0130(3) 0.6998(2)
C30 C 0.2384(3) 0.0783(2) 0.7404(2)
C31 C 0.3017(3) 0.2401(2) 1.09605(16)
C32 C 0.2110(3) 0.2404(3) 1.13131(17)
C33 C 0.3590(3) 0.2609(2) 1.24411(15)
C34 C 0.4223(3) 0.2503(2) 1.14105(17)
C35 C -0.0295(3) 0.2722(2) 0.43705(16)
C36 C 0.0469(3) 0.2734(2) 1.39241(17)
C37 C -0.1089(3) 0.2804(3) 1.29436(16)
C38 C 0.8510(3) 0.2748(2) 1.40423(16)
O1 O -0.0227(2) 0.2741(2) 1.16016(14)
H1 H -0.0728 0.2125 1.1372
H2 H -0.0005 0.3061 1.1301
H11 H -0.1695 0.1002 0.6629
H16 H -0.3613 -0.0016 0.6836
H17 H -0.3477 -0.0265 0.8020
H18 H -0.1404 0.0523 0.8998
H19 H 0.0701 0.1280 0.9850
H20 H 0.4487 0.3385 1.0207
H21 H 0.5748 0.4349 0.9620
H22 H 0.6908 0.5287 0.8926
H23 H 0.5752 0.5084 0.7665
H24 H 0.3493 0.3946 0.7125
H25 H 0.0612 0.3693 0.8801
H26 H -0.0608 0.4641 0.8749
H27 H -0.1485 0.4964 0.7619
H28 H -0.1094 0.4307 0.6539
H29 H -0.0525 0.3676 0.5586
H30 H 0.0864 0.1611 0.4952
H31 H 0.1813 0.0606 0.5399
H32 H 0.2752 -0.0397 0.5959
H33 H 0.3114 -0.0269 0.7235
H34 H 0.2541 0.0831 0.7926
H35 H 0.1243 0.2297 1.1017
H36 H 0.3792 0.2678 1.2968
H37 H 0.4880 0.2520 1.1192
H38 H 0.1297 0.2706 1.4125
H39 H -0.1365 0.2839 1.2437
H40 H 0.7957 0.2745 1.4335
N9_2 N -0.1898(2) 0.2777(2) 1.33328(14)
C35_2 C -0.0295(3) 0.2722(2) 1.43705(16)
C35_3 C 0.9705(3) 0.2722(2) 1.43705(16)
C36_2 C 0.0469(3) 0.2734(2) 0.39241(17)
C37_2 C 0.8911(3) 0.2804(3) 1.29436(16)
C38_2 C -0.1490(3) 0.2748(2) 0.40423(16)
N13? N 0.3175(14) 0.9661(14) 0.4696(6)
C43? C 0.3899(19) 0.9329(19) 0.4680(8)
C44? C 0.488(2) 0.8949(19) 0.4715(10)
O10? O -0.1694(9) 0.0950(6) 1.0390(5)
H47? H 0.4795 0.8622 0.4219
H48? H 0.5747 0.9520 0.4955
H49? H 0.4770 0.8459 0.5002
loop_
_geom_bond_atom_site_label_1
_geom_bond_atom_site_label_2
_geom_bond_site_symmetry_1
_geom_bond_site_symmetry_2
Ru1 N1 1_555 1_555
Cu1 Cl1 1_555 1_555
Cu2 Cl4 1_555 1_555
Cl2 Cu1 1_555 1_555
Cl3 Cu1 1_555 1_555
Cl5 Cu2 1_555 1_555
N1 C1 1_555 1_555
N2 Ru1 1_555 1_555
N3 Ru1 1_555 1_555
N4 Ru1 1_555 1_555
N5 Ru1 1_555 1_555
N6 Ru1 1_555 1_555
N7 Cu2 1_555 1_555
N8 Cu1 1_555 1_555
N9 Cu1 1_555 1_555
N10 Cu2 1_555 1_555
N11 C39 1_555 1_555
N12 C41 1_555 1_555
N14 C45 1_555 1_555
C1 C2 1_555 1_555
C2 C3 1_555 1_555
C3 C4 1_555 1_555
C4 C5 1_555 1_555
C5 N1 1_555 1_555
C6 N2 1_555 1_555
C7 C6 1_555 1_555
C8 C7 1_555 1_555
C9 C8 1_555 1_555
C10 N2 1_555 1_555
C11 N3 1_555 1_555
C12 C11 1_555 1_555
C13 C12 1_555 1_555
C14 C13 1_555 1_555
C15 N3 1_555 1_555
C16 N4 1_555 1_555
C17 C16 1_555 1_555
C18 C17 1_555 1_555
C19 C18 1_555 1_555
C20 N4 1_555 1_555
C21 N5 1_555 1_555
C22 C21 1_555 1_555
C23 C22 1_555 1_555
C24 C23 1_555 1_555
C25 N5 1_555 1_555
C26 N6 1_555 1_555
C27 C26 1_555 1_555
C28 C27 1_555 1_555
C29 C28 1_555 1_555
C30 N6 1_555 1_555
C31 C8 1_555 1_555
C32 N7 1_555 1_555
C33 N7 1_555 1_555
C34 N8 1_555 1_555
C35 C23 1_555 1_555
C36 N10 1_555 1_555
C37 N10 1_555 1_555
C38 N9 1_555 1_555
C39 C40 1_555 1_555
C40 H41 1_555 1_555
C41 C42 1_555 1_555
C42 H44 1_555 1_555
C45 C46 1_555 1_555
C46 H50 1_555 1_555
O1 Cu2 1_555 1_555
O2 H3 1_555 1_555
O3 H5 1_555 1_555
O4 H7 1_555 1_555
O5 H9 1_555 1_555
O6 H12 1_555 1_555
O7 H14 1_555 1_555
H1 O1 1_555 1_555
H2 O1 1_555 1_555
H4 O2 1_555 1_555
H6 O3 1_555 1_555
H8 O4 1_555 1_555
H10 O5 1_555 1_555
H11 C1 1_555 1_555
H13 O6 1_555 1_555
H15 O7 1_555 1_555
H16 C2 1_555 1_555
H17 C3 1_555 1_555
H18 C4 1_555 1_555
H19 C7 1_555 1_555
H20 C9 1_555 1_555
H21 C12 1_555 1_555
H22 C13 1_555 1_555
H23 C14 1_555 1_555
H24 C15 1_555 1_555
H25 C16 1_555 1_555
H26 C17 1_555 1_555
H27 C18 1_555 1_555
H28 C19 1_555 1_555
H29 C22 1_555 1_555
H30 C24 1_555 1_555
H31 C27 1_555 1_555
H32 C28 1_555 1_555
H33 C29 1_555 1_555
H34 C30 1_555 1_555
H35 C32 1_555 1_555
H36 C33 1_555 1_555
H37 C34 1_555 1_555
H38 C36 1_555 1_555
H39 C37 1_555 1_555
H40 C38 1_555 1_555
H42 C40 1_555 1_555
H43 C40 1_555 1_555
H45 C42 1_555 1_555
H46 C42 1_555 1_555
H51 C46 1_555 1_555
H52 C46 1_555 1_555
N9_2 C37 1_555 1_555
C35_2 C36 1_555 1_555
C35_3 C38 1_555 1_555
C36_2 C35 1_555 1_555
C37_2 N9 1_555 1_555
C38_2 C35 1_555 1_555
N8 C33 1_555 1_555
C5 C6 1_555 1_555
C9 C10 1_555 1_555
C10 C11 1_555 1_555
C14 C15 1_555 1_555
C19 C20 1_555 1_555
C20 C21 1_555 1_555
C24 C25 1_555 1_555
C25 C26 1_555 1_555
C29 C30 1_555 1_555
C31 C32 1_555 1_555
C31 C34 1_555 1_555

#END
