
#######################################################################
#
#                 Cambridge Crystallographic Data Centre
#                                CCDC 
#
#######################################################################
#
# If this CIF has been generated from an entry in the Cambridge 
# Structural Database, then it will include bibliographic, chemical, 
# crystal, experimental, refinement or atomic coordinate data resulting 
# from the CCDC's data processing and validation procedures.
#
#######################################################################

data_BODJIN
_symmetry_cell_setting           monoclinic
_symmetry_space_group_name_H-M   'B 1 1 2/b'
_symmetry_Int_Tables_number      15
_space_group_name_Hall           '-B 2n'
loop_
_symmetry_equiv_pos_site_id
_symmetry_equiv_pos_as_xyz
1 x,y,z
2 1/2+x,y,1/2+z
3 -x,1/2-y,z
4 1/2-x,1/2-y,1/2+z
5 -x,-y,-z
6 1/2-x,-y,1/2-z
7 x,1/2+y,-z
8 1/2+x,1/2+y,1/2-z
_cell_length_a                   8.833(3)
_cell_length_b                   12.931(5)
_cell_length_c                   12.097(3)
_cell_angle_alpha                90
_cell_angle_beta                 90
_cell_angle_gamma                109.18(5)
_cell_volume                     1305.02
loop_
_atom_site_label
_atom_site_type_symbol
_atom_site_fract_x
_atom_site_fract_y
_atom_site_fract_z
Cd1 Cd 0.25000 0.50000 0.25000
O1 O 0.46130 0.43180 0.25360
O2 O 0.65760 0.38850 0.18970
O3 O 0.55090 0.48710 0.09180
O4 O 0.30560 0.60450 0.09390
N1 N 0.55640 0.43560 0.17780
N2 N -0.10700 0.28950 0.00110
N3 N 0.10000 0.34180 0.14460
C1 C -0.00810 0.37830 0.07130
C2 C 0.20370 0.30010 0.07250
C3 C 0.00000 0.25000 -0.06840
C4 C 0.00000 0.25000 0.21370
H1 H 0.06100 0.43900 0.02500
H2 H -0.07100 0.41100 0.11500
H3 H 0.27500 0.27300 0.12000
H4 H 0.26300 0.36100 0.02700
H5 H -0.06300 0.19200 -0.11800
H6 H -0.06800 0.27600 0.26100
H7 H 0.34100 0.59100 0.04900
H8 H 0.25700 0.63900 0.07800
O1E O 0.03870 0.56820 0.24640
O4E O 0.19440 0.39550 0.40610
N3E N 0.40000 0.65820 0.35540
C2B C -0.20370 0.19990 0.07250
N2B N 0.10700 0.21050 0.00110
H5B H 0.06300 0.30800 -0.11800
N3B N -0.10000 0.15820 0.14460
H6B H 0.06800 0.22400 0.26100
N1E N -0.05640 0.56440 0.32220
H7E H 0.15900 0.40900 0.45100
H8E H 0.24300 0.36100 0.42200
C1E C 0.50810 0.62170 0.42870
C2E C 0.29630 0.69990 0.42750
C4E C 0.50000 0.75000 0.28630
H3B H -0.27500 0.22700 0.12000
H4B H -0.26300 0.13900 0.02700
C1B C 0.00810 0.12170 0.07130
Cd1B Cd -0.25000 0.00000 0.25000
O2E O -0.15760 0.61150 0.31030
O3E O -0.05090 0.51290 0.40820
N2E N 0.60700 0.71050 0.49890
H1E H 0.43900 0.56100 0.47500
H2E H 0.57100 0.58900 0.38500
N2G N 0.39300 0.78950 0.49890
H3E H 0.22500 0.72700 0.38000
H4E H 0.23700 0.63900 0.47300
N3G N 0.60000 0.84180 0.35540
H6E H 0.56800 0.72400 0.23900
H6G H 0.43200 0.77600 0.23900
H1B H -0.06100 0.06100 0.02500
H2B H 0.07100 0.08900 0.11500
O1B O -0.46130 0.06820 0.25360
O1G O -0.03870 -0.06820 0.24640
O4B O -0.30560 -0.10450 0.09390
O4G O -0.19440 0.10450 0.40610
N3G_2 N -0.40000 -0.15820 0.35540
C2G C 0.70370 0.80010 0.42750
C3E C 0.50000 0.75000 0.56840
C1G C 0.49190 0.87830 0.42870
Cd1B_2 Cd 0.75000 1.00000 0.25000
N1B N -0.55640 0.06440 0.17780
N1G N 0.05640 -0.06440 0.32220
H7B H -0.34100 -0.09100 0.04900
H8B H -0.25700 -0.13900 0.07800
H7G H -0.15900 0.09100 0.45100
H8G H -0.24300 0.13900 0.42200
H3G H 0.77500 0.77300 0.38000
H4G H 0.76300 0.86100 0.47300
H5E H 0.56300 0.80800 0.61800
H5G H 0.43700 0.69200 0.61800
H1G H 0.56100 0.93900 0.47500
H2G H 0.42900 0.91100 0.38500
O2B O -0.65760 0.11150 0.18970
O3B O -0.55090 0.01290 0.09180
O2G O 0.15760 -0.11150 0.31030
O3G O 0.05090 -0.01290 0.40820
loop_
_geom_bond_atom_site_label_1
_geom_bond_atom_site_label_2
_geom_bond_site_symmetry_1
_geom_bond_site_symmetry_2
Cd1 O1 1_555 1_555
O1 N1 1_555 1_555
O2 N1 1_555 1_555
O3 N1 1_555 1_555
O4 Cd1 1_555 1_555
N2 C1 1_555 1_555
N3 Cd1 1_555 1_555
C1 N3 1_555 1_555
C2 N3 1_555 1_555
C3 N2 1_555 1_555
C4 N3 1_555 1_555
H1 C1 1_555 1_555
H2 C1 1_555 1_555
H3 C2 1_555 1_555
H4 C2 1_555 1_555
H5 C3 1_555 1_555
H6 C4 1_555 1_555
H7 O4 1_555 1_555
H8 O4 1_555 1_555
O1E Cd1 1_555 1_555
O4E Cd1 1_555 1_555
N3E Cd1 1_555 1_555
C2B N2 1_555 1_555
N2B C2 1_555 1_555
H5B C3 1_555 1_555
N3B C4 1_555 1_555
H6B C4 1_555 1_555
N1E O1E 1_555 1_555
H7E O4E 1_555 1_555
H8E O4E 1_555 1_555
C1E N3E 1_555 1_555
C2E N3E 1_555 1_555
C4E N3E 1_555 1_555
H3B C2B 1_555 1_555
H4B C2B 1_555 1_555
C1B N2B 1_555 1_555
Cd1B N3B 1_555 1_555
O2E N1E 1_555 1_555
O3E N1E 1_555 1_555
N2E C1E 1_555 1_555
H1E C1E 1_555 1_555
H2E C1E 1_555 1_555
N2G C2E 1_555 1_555
H3E C2E 1_555 1_555
H4E C2E 1_555 1_555
N3G C4E 1_555 1_555
H6E C4E 1_555 1_555
H6G C4E 1_555 1_555
H1B C1B 1_555 1_555
H2B C1B 1_555 1_555
O1B Cd1B 1_555 1_555
O1G Cd1B 1_555 1_555
O4B Cd1B 1_555 1_555
O4G Cd1B 1_555 1_555
N3G_2 Cd1B 1_555 1_555
C2G N2E 1_555 1_555
C3E N2E 1_555 1_555
C1G N2G 1_555 1_555
Cd1B_2 N3G 1_555 1_555
N1B O1B 1_555 1_555
N1G O1G 1_555 1_555
H7B O4B 1_555 1_555
H8B O4B 1_555 1_555
H7G O4G 1_555 1_555
H8G O4G 1_555 1_555
H3G C2G 1_555 1_555
H4G C2G 1_555 1_555
H5E C3E 1_555 1_555
H5G C3E 1_555 1_555
H1G C1G 1_555 1_555
H2G C1G 1_555 1_555
O2B N1B 1_555 1_555
O3B N1B 1_555 1_555
O2G N1G 1_555 1_555
O3G N1G 1_555 1_555
C3 N2B 1_555 1_555
C2B N3B 1_555 1_555
N3B C1B 1_555 1_555
N2G C3E 1_555 1_555
N3G C2G 1_555 1_555
N3G C1G 1_555 1_555

#END
