
#######################################################################
#
#                 Cambridge Crystallographic Data Centre
#                                CCDC 
#
#######################################################################
#
# If this CIF has been generated from an entry in the Cambridge 
# Structural Database, then it will include bibliographic, chemical, 
# crystal, experimental, refinement or atomic coordinate data resulting 
# from the CCDC's data processing and validation procedures.
#
#######################################################################

data_BODJUA
_symmetry_cell_setting           triclinic
_symmetry_space_group_name_H-M   'P -1'
_symmetry_Int_Tables_number      2
_space_group_name_Hall           '-P 1'
loop_
_symmetry_equiv_pos_site_id
_symmetry_equiv_pos_as_xyz
1 x,y,z
2 -x,-y,-z
_cell_length_a                   9.6449(13)
_cell_length_b                   12.4087(17)
_cell_length_c                   14.0021(19)
_cell_angle_alpha                103.029(2)
_cell_angle_beta                 98.029(2)
_cell_angle_gamma                91.023(2)
_cell_volume                     1614.52
loop_
_atom_site_label
_atom_site_type_symbol
_atom_site_fract_x
_atom_site_fract_y
_atom_site_fract_z
Ag1 Ag -0.48704(3) 0.54202(2) 0.78878(2)
P1 P -0.35182(9) 0.38837(7) 0.80650(6)
N1 N -0.3059(3) 0.3650(2) 0.6149(2)
H1 H -0.3152 0.3039 0.5676
N2 N -0.7014(3) 0.5259(2) 0.6861(2)
N3 N -0.4885(3) 0.7180(2) 0.8760(2)
C1 C -0.4707(4) 0.4509(2) 0.5107(2)
C2 C -0.3615(4) 0.4601(3) 0.5930(2)
C3 C -0.3132(4) 0.5639(3) 0.6492(2)
H2 H -0.2401 0.5701 0.7036
C4 C -0.3709(4) 0.6605(3) 0.6269(3)
H3 H -0.3358 0.7311 0.6661
C5 C -0.5231(4) 0.3461(3) 0.4507(3)
H4 H -0.4845 0.2804 0.4644
C6 C -0.2339(3) 0.3608(3) 0.7106(2)
H5 H -0.1542 0.4165 0.7295
H6 H -0.1957 0.2868 0.7075
C7 C -0.4598(3) 0.2618(3) 0.7911(2)
C8 C -0.5785(4) 0.2729(3) 0.8380(3)
H7 H -0.6008 0.3443 0.8720
C9 C -0.6636(4) 0.1828(4) 0.8360(3)
H8 H -0.7445 0.1919 0.8681
C10 C -0.6318(4) 0.0791(4) 0.7876(3)
H9 H -0.6894 0.0162 0.7876
C11 C -0.5167(4) 0.0665(3) 0.7394(3)
H10 H -0.4961 -0.0051 0.7048
C12 C -0.4296(4) 0.1578(3) 0.7405(3)
H11 H -0.3502 0.1486 0.7067
C13 C -0.2327(3) 0.3933(3) 0.9207(2)
C14 C -0.1529(4) 0.3044(3) 0.9341(3)
H12 H -0.1581 0.2399 0.8818
C15 C -0.0663(4) 0.3083(3) 1.0220(3)
H13 H -0.0121 0.2469 1.0301
C16 C -0.0588(4) 0.4017(3) 1.0983(3)
H14 H -0.0004 0.4044 1.1594
C17 C -0.1361(4) 0.4910(3) 1.0855(3)
H15 H -0.1298 0.5555 1.1378
C18 C -0.2227(4) 0.4876(3) 0.9974(3)
H16 H -0.2754 0.5497 0.9892
C19 C -0.7674(4) 0.6127(3) 0.6670(3)
H17 H -0.7328 0.6841 0.7047
C20 C -0.8833(4) 0.6064(3) 0.5957(3)
H18 H -0.9257 0.6722 0.5856
C21 C -0.9379(3) 0.5051(3) 0.5391(2)
C22 C -0.8676(4) 0.4137(3) 0.5575(3)
H19 H -0.8991 0.3415 0.5202
C23 C -0.7530(4) 0.4275(3) 0.6295(3)
H20 H -0.7069 0.3632 0.6400
C24 C -0.6012(4) 0.7572(3) 0.9134(3)
H21 H -0.6801 0.7078 0.9067
C25 C -0.6094(4) 0.8664(3) 0.9617(3)
H22 H -0.6934 0.8904 0.9861
C26 C -0.4973(4) 0.9408(3) 0.9747(2)
C27 C -0.3792(4) 0.8988(3) 0.9374(3)
H23 H -0.2977 0.9460 0.9451
C28 C -0.3785(4) 0.7898(3) 0.8893(3)
H24 H -0.2957 0.7638 0.8641
Ag1A Ag -0.51296(3) 0.45798(2) 0.21122(2)
Ag1A_2 Ag -1.51296(3) 0.45798(2) 0.21122(2)
Ag1A_3 Ag -0.51296(3) 1.45798(2) 1.21122(2)
P1A P -0.64818(9) 0.61163(7) 0.19350(6)
N1A N -0.6941(3) 0.6350(2) 0.3851(2)
H1A H -0.6848 0.6961 0.4324
N2A N -1.2986(3) 0.4741(2) 0.3139(2)
N2A_2 N -0.2986(3) 0.4741(2) 0.3139(2)
N3A N -0.5115(3) 1.2820(2) 1.1240(2)
N3A_2 N -0.5115(3) 0.2820(2) 0.1240(2)
C1A C -0.5293(4) 0.5491(2) 0.4893(2)
C2A C -0.6385(4) 0.5399(3) 0.4070(2)
C3A C -0.6868(4) 0.4361(3) 0.3508(2)
H2A H -0.7599 0.4299 0.2964
C4A C -0.6291(4) 0.3395(3) 0.3731(3)
H3A H -0.6642 0.2689 0.3339
C5A C -0.4769(4) 0.6539(3) 0.5493(3)
H4A H -0.5155 0.7196 0.5356
C6A C -0.7661(3) 0.6392(3) 0.2894(2)
H5A H -0.8458 0.5835 0.2705
H6A H -0.8043 0.7132 0.2925
C7A C -0.5402(3) 0.7382(3) 0.2089(2)
C8A C -0.4215(4) 0.7271(3) 0.1620(3)
H7A H -0.3992 0.6557 0.1280
C9A C -0.3364(4) 0.8172(4) 0.1640(3)
H8A H -0.2555 0.8081 0.1319
C10A C -0.3682(4) 0.9209(4) 0.2124(3)
H9A H -0.3106 0.9838 0.2124
C11A C -0.4833(4) 0.9335(3) 0.2606(3)
H10A H -0.5039 1.0051 0.2952
C12A C -0.5704(4) 0.8422(3) 0.2595(3)
H11A H -0.6498 0.8514 0.2933
C13A C -0.7673(3) 0.6067(3) 0.0793(2)
C14A C -0.8471(4) 0.6956(3) 0.0659(3)
H12A H -0.8419 0.7601 0.1182
C15A C -0.9337(4) 0.6917(3) -0.0220(3)
H13A H -0.9879 0.7531 -0.0301
C16A C -0.9412(4) 0.5983(3) -0.0983(3)
H14A H -0.9996 0.5956 -0.1594
C17A C -0.8639(4) 0.5090(3) -0.0855(3)
H15A H -0.8702 0.4445 -0.1378
C18A C -0.7773(4) 0.5124(3) 0.0026(3)
H16A H -0.7246 0.4503 0.0108
C19A C -1.2326(4) 0.3873(3) 0.3330(3)
H17A H -1.2672 0.3159 0.2953
C20A C -1.1167(4) 0.3936(3) 0.4043(3)
H18A H -1.0743 0.3278 0.4144
C21A C -1.0621(3) 0.4949(3) 0.4609(2)
C22A C -1.1324(4) 0.5863(3) 0.4425(3)
H19A H -1.1009 0.6585 0.4798
C23A C -1.2470(4) 0.5725(3) 0.3705(3)
H20A H -1.2931 0.6368 0.3600
C24A C -0.3988(4) 1.2428(3) 1.0866(3)
H21A H -0.3199 1.2922 1.0933
C25A C -0.3906(4) 1.1336(3) 1.0383(3)
H22A H -0.3066 1.1096 1.0139
C26A C -0.5027(4) 1.0592(3) 1.0253(2)
C27A C -0.6208(4) 1.1012(3) 1.0626(3)
H23A H -0.7023 1.0540 1.0549
C28A C -0.6215(4) 1.2102(3) 1.1107(3)
H24A H -0.7043 1.2362 1.1359
S1 S -1.00577(9) -0.14344(8) 0.75167(7)
F1 F -1.0422(4) 0.0111(3) 0.9057(2)
F2 F -1.1993(3) -0.0027(3) 0.7835(3)
F3 F -0.9994(3) 0.0735(2) 0.7824(2)
O2 O -0.8598(3) -0.1368(3) 0.7874(3)
O3 O -1.0881(3) -0.2180(2) 0.7879(2)
O4 O -1.0389(3) -0.1481(2) 0.6477(2)
C32 C -1.0629(5) -0.0097(4) 0.8084(3)
O1 O -0.6781(3) -0.1351(2) 0.4871(2)
N4 N -0.7696(3) 0.0317(2) 0.5332(2)
C29 C -0.6723(4) 0.0909(3) 0.4913(3)
H25 H -0.6073 0.0392 0.4600
H26 H -0.6194 0.1486 0.5439
H27 H -0.7242 0.1251 0.4414
C30 C -0.8733(4) 0.0964(3) 0.5832(3)
H28 H -0.9324 0.0480 0.6090
H29 H -0.9317 0.1306 0.5362
H30 H -0.8257 0.1544 0.6382
C31 C -0.7620(4) -0.0749(3) 0.5292(3)
H31 H -0.8261 -0.1079 0.5611
loop_
_geom_bond_atom_site_label_1
_geom_bond_atom_site_label_2
_geom_bond_site_symmetry_1
_geom_bond_site_symmetry_2
Ag1 P1 1_555 1_555
P1 C6 1_555 1_555
S1 O2 1_555 1_555
F1 C32 1_555 1_555
F2 C32 1_555 1_555
F3 C32 1_555 1_555
O1 C31 1_555 1_555
O3 S1 1_555 1_555
O4 S1 1_555 1_555
N1 H1 1_555 1_555
N2 Ag1 1_555 1_555
N3 Ag1 1_555 1_555
N4 C29 1_555 1_555
C1 C2 1_555 1_555
C2 N1 1_555 1_555
C3 C2 1_555 1_555
H2 C3 1_555 1_555
C4 C3 1_555 1_555
H3 C4 1_555 1_555
C5 C1 1_555 1_555
H4 C5 1_555 1_555
C6 N1 1_555 1_555
H5 C6 1_555 1_555
H6 C6 1_555 1_555
C7 P1 1_555 1_555
C8 C7 1_555 1_555
H7 C8 1_555 1_555
C9 C8 1_555 1_555
H8 C9 1_555 1_555
C10 C9 1_555 1_555
H9 C10 1_555 1_555
C11 C10 1_555 1_555
H10 C11 1_555 1_555
C12 C7 1_555 1_555
H11 C12 1_555 1_555
C13 P1 1_555 1_555
C14 C13 1_555 1_555
H12 C14 1_555 1_555
C15 C14 1_555 1_555
H13 C15 1_555 1_555
C16 C15 1_555 1_555
H14 C16 1_555 1_555
C17 C16 1_555 1_555
H15 C17 1_555 1_555
C18 C13 1_555 1_555
H16 C18 1_555 1_555
C19 N2 1_555 1_555
H17 C19 1_555 1_555
C20 C19 1_555 1_555
H18 C20 1_555 1_555
C21 C20 1_555 1_555
C22 C21 1_555 1_555
H19 C22 1_555 1_555
C23 N2 1_555 1_555
H20 C23 1_555 1_555
C24 N3 1_555 1_555
H21 C24 1_555 1_555
C25 C24 1_555 1_555
H22 C25 1_555 1_555
C26 C25 1_555 1_555
C27 C26 1_555 1_555
H23 C27 1_555 1_555
C28 N3 1_555 1_555
H24 C28 1_555 1_555
C29 H25 1_555 1_555
H26 C29 1_555 1_555
H27 C29 1_555 1_555
C30 N4 1_555 1_555
H28 C30 1_555 1_555
H29 C30 1_555 1_555
H30 C30 1_555 1_555
C31 N4 1_555 1_555
H31 C31 1_555 1_555
C32 S1 1_555 1_555
Ag1A P1A 1_555 1_555
Ag1A_2 N2A 1_555 1_555
Ag1A_3 N3A 1_555 1_555
P1A C6A 1_555 1_555
N1A H1A 1_555 1_555
N2A C19A 1_555 1_555
N2A_2 Ag1A 1_555 1_555
N3A C24A 1_555 1_555
N3A_2 Ag1A 1_555 1_555
C1A C1 1_555 1_555
C2A N1A 1_555 1_555
C3A C2A 1_555 1_555
H2A C3A 1_555 1_555
C4A C5 1_555 1_555
H3A C4A 1_555 1_555
C5A C4 1_555 1_555
H4A C5A 1_555 1_555
C6A N1A 1_555 1_555
H5A C6A 1_555 1_555
H6A C6A 1_555 1_555
C7A P1A 1_555 1_555
C8A C7A 1_555 1_555
H7A C8A 1_555 1_555
C9A C8A 1_555 1_555
H8A C9A 1_555 1_555
C10A C9A 1_555 1_555
H9A C10A 1_555 1_555
C11A C10A 1_555 1_555
H10A C11A 1_555 1_555
C12A C7A 1_555 1_555
H11A C12A 1_555 1_555
C13A P1A 1_555 1_555
C14A C13A 1_555 1_555
H12A C14A 1_555 1_555
C15A C14A 1_555 1_555
H13A C15A 1_555 1_555
C16A C15A 1_555 1_555
H14A C16A 1_555 1_555
C17A C16A 1_555 1_555
H15A C17A 1_555 1_555
C18A C13A 1_555 1_555
H16A C18A 1_555 1_555
C19A H17A 1_555 1_555
C20A C19A 1_555 1_555
H18A C20A 1_555 1_555
C21A C21 1_555 1_555
C22A C21A 1_555 1_555
H19A C22A 1_555 1_555
C23A N2A 1_555 1_555
H20A C23A 1_555 1_555
C24A H21A 1_555 1_555
C25A C24A 1_555 1_555
H22A C25A 1_555 1_555
C26A C26 1_555 1_555
C27A C26A 1_555 1_555
H23A C27A 1_555 1_555
C28A N3A 1_555 1_555
H24A C28A 1_555 1_555
C11 C12 1_555 1_555
C17 C18 1_555 1_555
C22 C23 1_555 1_555
C27 C28 1_555 1_555
C1A C2A 1_555 1_555
C1A C5A 1_555 1_555
C3A C4A 1_555 1_555
C11A C12A 1_555 1_555
C17A C18A 1_555 1_555
C20A C21A 1_555 1_555
C22A C23A 1_555 1_555
C25A C26A 1_555 1_555
C27A C28A 1_555 1_555

#END
