
#######################################################################
#
#                 Cambridge Crystallographic Data Centre
#                                CCDC 
#
#######################################################################
#
# If this CIF has been generated from an entry in the Cambridge 
# Structural Database, then it will include bibliographic, chemical, 
# crystal, experimental, refinement or atomic coordinate data resulting 
# from the CCDC's data processing and validation procedures.
#
#######################################################################

data_BODJEK
_symmetry_cell_setting           monoclinic
_symmetry_space_group_name_H-M   'P 21/n'
_symmetry_Int_Tables_number      14
_space_group_name_Hall           '-P 2yn'
loop_
_symmetry_equiv_pos_site_id
_symmetry_equiv_pos_as_xyz
1 x,y,z
2 1/2-x,1/2+y,1/2-z
3 -x,-y,-z
4 1/2+x,1/2-y,1/2+z
_cell_length_a                   11.0034(4)
_cell_length_b                   18.8661(7)
_cell_length_c                   15.7613(7)
_cell_angle_alpha                90
_cell_angle_beta                 102.728(4)
_cell_angle_gamma                90
_cell_volume                     3191.51
loop_
_atom_site_label
_atom_site_type_symbol
_atom_site_fract_x
_atom_site_fract_y
_atom_site_fract_z
Cu1 Cu -0.33313(4) -0.06047(2) -0.23201(3)
P1 P -0.23909(9) 0.04077(5) -0.23415(7)
N1 N -0.3210(3) 0.09146(18) -0.4016(2)
H1 H -0.2681 0.1098 -0.4280
N2 N -0.4173(3) -0.12859(17) -0.3252(2)
N3 N -0.7341(3) -0.37068(16) -0.6412(2)
N4 N -0.4825(3) -0.0361(2) -0.1730(3)
C1 C -0.3905(4) 0.0153(2) -0.5248(3)
H2 H -0.3173 0.0254 -0.5427
C2 C -0.5224(4) 0.0285(2) -0.4252(3)
H3 H -0.5392 0.0479 -0.3747
C3 C -0.4098(4) 0.0450(2) -0.4475(3)
C4 C -0.3131(4) 0.1104(2) -0.3119(3)
H4 H -0.3964 0.1195 -0.3034
H5 H -0.2656 0.1539 -0.2993
C5 C -0.0812(4) 0.0396(2) -0.2506(3)
C6 C -0.0072(4) 0.0996(2) -0.2417(3)
H6 H -0.0360 0.1415 -0.2219
C7 C 0.1091(5) 0.0982(3) -0.2617(4)
H7 H 0.1576 0.1391 -0.2555
C8 C 0.1536(5) 0.0362(4) -0.2909(4)
H8 H 0.2316 0.0356 -0.3047
C9 C 0.0823(5) -0.0248(3) -0.2996(4)
H9 H 0.1120 -0.0665 -0.3192
C10 C -0.0343(4) -0.0234(3) -0.2789(4)
H10 H -0.0818 -0.0646 -0.2838
C11 C -0.2245(4) 0.0833(2) -0.1288(3)
C12 C -0.1292(4) 0.0669(3) -0.0577(3)
H11 H -0.0654 0.0372 -0.0661
C13 C -0.1251(5) 0.0925(3) 0.0238(3)
H12 H -0.0599 0.0799 0.0697
C14 C -0.2170(5) 0.1367(3) 0.0380(4)
H13 H -0.2141 0.1545 0.0935
C15 C -0.3120(6) 0.1546(3) -0.0287(4)
H14 H -0.3747 0.1845 -0.0189
C16 C -0.3164(5) 0.1285(3) -0.1118(4)
H15 H -0.3822 0.1414 -0.1570
C17 C -0.5212(4) -0.1620(2) -0.3172(3)
H16 H -0.5536 -0.1528 -0.2685
C18 C -0.5821(4) -0.2093(2) -0.3781(3)
H17 H -0.6555 -0.2303 -0.3708
C19 C -0.5361(3) -0.2260(2) -0.4497(3)
C20 C -0.4273(3) -0.1916(2) -0.4586(3)
H18 H -0.3921 -0.2008 -0.5060
C21 C -0.3736(4) -0.1438(2) -0.3955(3)
H19 H -0.3019 -0.1205 -0.4023
C22 C -0.6026(3) -0.27631(19) -0.5166(3)
C23 C -0.5955(4) -0.2715(2) -0.6022(3)
H20 H -0.5459 -0.2370 -0.6198
C24 C -0.6631(4) -0.3185(2) -0.6626(3)
H21 H -0.6591 -0.3137 -0.7206
C25 C -0.7338(4) -0.3764(2) -0.5575(3)
H22 H -0.7781 -0.4138 -0.5406
C26 C -0.6731(4) -0.3312(2) -0.4933(3)
H23 H -0.6791 -0.3373 -0.4358
C27 C -0.5472(4) -0.0060(2) -0.1374(3)
C28 C -0.6281(5) 0.0319(3) -0.0941(4)
H24 H -0.6942 0.0013 -0.0859
H25 H -0.6628 0.0719 -0.1288
H26 H -0.5819 0.0481 -0.0386
Cu1B Cu -0.66687(4) 0.06047(2) -0.76799(3)
Cu1C Cu -0.83313(4) -0.43953(2) -0.73201(3)
Cu1C_2 Cu 0.16687(4) -0.43953(2) 0.26799(3)
P1B P -0.76091(9) -0.04077(5) -0.76585(7)
N1B N -0.6790(3) -0.09146(18) -0.5984(2)
H1B H -0.7319 -0.1098 -0.5720
N2C N 0.0827(3) -0.37141(17) 0.1748(2)
N2B N -0.5827(3) 0.12859(17) -0.6748(2)
N3C N -0.2341(3) -0.12932(16) -0.1412(2)
N3A N -0.7659(3) 0.12932(16) -0.8588(2)
N4B N -0.5175(3) 0.0361(2) -0.8270(3)
C1B C -0.6095(4) -0.0153(2) -0.4752(3)
H2B H -0.6827 -0.0254 -0.4573
C2B C -0.4776(4) -0.0285(2) -0.5748(3)
H3B H -0.4608 -0.0479 -0.6253
C3B C -0.5902(4) -0.0450(2) -0.5525(3)
C4B C -0.6869(4) -0.1104(2) -0.6881(3)
H4B H -0.6036 -0.1195 -0.6966
H5B H -0.7344 -0.1539 -0.7007
C5B C -0.9188(4) -0.0396(2) -0.7494(3)
C6B C -0.9928(4) -0.0996(2) -0.7583(3)
H6B H -0.9640 -0.1415 -0.7781
C7B C -1.1091(5) -0.0982(3) -0.7383(4)
H7B H -1.1576 -0.1391 -0.7445
C8B C -1.1536(5) -0.0362(4) -0.7091(4)
H8B H -1.2316 -0.0356 -0.6953
C9B C -1.0823(5) 0.0248(3) -0.7004(4)
H9B H -1.1120 0.0665 -0.6808
C10B C -0.9657(4) 0.0234(3) -0.7211(4)
H10B H -0.9182 0.0646 -0.7162
C11B C -0.7755(4) -0.0833(2) -0.8712(3)
C12B C -0.8708(4) -0.0669(3) -0.9423(3)
H11B H -0.9346 -0.0372 -0.9339
C13B C -0.8749(5) -0.0925(3) -1.0238(3)
H12B H -0.9401 -0.0799 -1.0697
C14B C -0.7830(5) -0.1367(3) -1.0380(4)
H13B H -0.7859 -0.1545 -1.0935
C15B C -0.6880(6) -0.1546(3) -0.9713(4)
H14B H -0.6253 -0.1845 -0.9811
C16B C -0.6836(5) -0.1285(3) -0.8882(4)
H15B H -0.6178 -0.1414 -0.8430
C17C C -0.0212(4) -0.3380(2) 0.1828(3)
H16C H -0.0536 -0.3472 0.2315
C18C C -0.0821(4) -0.2907(2) 0.1219(3)
H17C H -0.1555 -0.2697 0.1292
C19C C -0.0361(3) -0.2740(2) 0.0503(3)
C20C C 0.0727(3) -0.3084(2) 0.0414(3)
H18C H 0.1079 -0.2992 -0.0060
C21C C 0.1264(4) -0.3562(2) 0.1045(3)
H19C H 0.1981 -0.3795 0.0977
C22C C -0.1026(3) -0.22369(19) -0.0166(3)
C23C C -0.0955(4) -0.2285(2) -0.1022(3)
H20C H -0.0459 -0.2630 -0.1198
C24C C -0.1631(4) -0.1815(2) -0.1626(3)
H21C H -0.1591 -0.1863 -0.2206
C25C C -0.2338(4) -0.1236(2) -0.0575(3)
H22C H -0.2781 -0.0862 -0.0406
C26C C -0.1731(4) -0.1688(2) 0.0067(3)
H23C H -0.1791 -0.1627 0.0642
C27B C -0.4528(4) 0.0060(2) -0.8626(3)
C28B C -0.3719(5) -0.0319(3) -0.9059(4)
H24B H -0.3058 -0.0013 -0.9141
H25B H -0.3372 -0.0719 -0.8712
H26B H -0.4181 -0.0481 -0.9614
O1 O -0.0951(4) 0.0965(3) 0.5228(3)
C29 C -0.0428(6) 0.2150(3) 0.5656(5)
H27 H -0.1228 0.2150 0.5805
H28 H -0.0410 0.2511 0.5230
H29 H 0.0209 0.2244 0.6167
C30 C -0.0200(5) 0.1443(4) 0.5291(4)
C31 C 0.1005(5) 0.1342(4) 0.5011(4)
H30 H 0.1038 0.0871 0.4786
H31 H 0.1689 0.1409 0.5501
H32 H 0.1062 0.1681 0.4567
Cl1 Cl -0.11962(10) 0.26385(7) 0.27466(9)
O2 O -0.0138(4) 0.2193(2) 0.2909(3)
O3 O -0.1006(3) 0.3194(2) 0.2174(3)
O4 O -0.2286(4) 0.2260(2) 0.2360(3)
O5 O -0.1362(3) 0.29344(18) 0.3548(2)
loop_
_geom_bond_atom_site_label_1
_geom_bond_atom_site_label_2
_geom_bond_site_symmetry_1
_geom_bond_site_symmetry_2
Cu1 P1 1_555 1_555
P1 C4 1_555 1_555
N1 H1 1_555 1_555
N2 Cu1 1_555 1_555
N3 C24 1_555 1_555
N4 Cu1 1_555 1_555
C1 H2 1_555 1_555
C2 H3 1_555 1_555
C3 N1 1_555 1_555
C4 N1 1_555 1_555
H4 C4 1_555 1_555
H5 C4 1_555 1_555
C5 P1 1_555 1_555
C6 C5 1_555 1_555
H6 C6 1_555 1_555
C7 C6 1_555 1_555
H7 C7 1_555 1_555
C8 C7 1_555 1_555
H8 C8 1_555 1_555
C9 C8 1_555 1_555
H9 C9 1_555 1_555
C10 C5 1_555 1_555
H10 C10 1_555 1_555
C11 P1 1_555 1_555
C12 C11 1_555 1_555
H11 C12 1_555 1_555
C13 C12 1_555 1_555
H12 C13 1_555 1_555
C14 C13 1_555 1_555
H13 C14 1_555 1_555
C15 C14 1_555 1_555
H14 C15 1_555 1_555
C16 C11 1_555 1_555
H15 C16 1_555 1_555
C17 N2 1_555 1_555
H16 C17 1_555 1_555
C18 C17 1_555 1_555
H17 C18 1_555 1_555
C19 C18 1_555 1_555
C20 C19 1_555 1_555
H18 C20 1_555 1_555
C21 N2 1_555 1_555
H19 C21 1_555 1_555
C22 C19 1_555 1_555
C23 C22 1_555 1_555
H20 C23 1_555 1_555
C24 C23 1_555 1_555
H21 C24 1_555 1_555
C25 N3 1_555 1_555
H22 C25 1_555 1_555
C26 C22 1_555 1_555
H23 C26 1_555 1_555
C27 N4 1_555 1_555
C28 C27 1_555 1_555
H24 C28 1_555 1_555
H25 C28 1_555 1_555
H26 C28 1_555 1_555
O1 C30 1_555 1_555
C29 H27 1_555 1_555
H28 C29 1_555 1_555
H29 C29 1_555 1_555
C30 C29 1_555 1_555
C31 C30 1_555 1_555
H30 C31 1_555 1_555
H31 C31 1_555 1_555
H32 C31 1_555 1_555
Cl1 O2 1_555 1_555
O3 Cl1 1_555 1_555
O4 Cl1 1_555 1_555
O5 Cl1 1_555 1_555
Cu1B P1B 1_555 1_555
Cu1C N3 1_555 1_555
Cu1C_2 N2C 1_555 1_555
P1B C4B 1_555 1_555
N1B H1B 1_555 1_555
N2C C17C 1_555 1_555
N2B Cu1B 1_555 1_555
N3C Cu1 1_555 1_555
N3A Cu1B 1_555 1_555
N4B Cu1B 1_555 1_555
C1B C2 1_555 1_555
H2B C1B 1_555 1_555
C2B C1 1_555 1_555
H3B C2B 1_555 1_555
C3B N1B 1_555 1_555
C4B N1B 1_555 1_555
H4B C4B 1_555 1_555
H5B C4B 1_555 1_555
C5B P1B 1_555 1_555
C6B C5B 1_555 1_555
H6B C6B 1_555 1_555
C7B C6B 1_555 1_555
H7B C7B 1_555 1_555
C8B C7B 1_555 1_555
H8B C8B 1_555 1_555
C9B C8B 1_555 1_555
H9B C9B 1_555 1_555
C10B C5B 1_555 1_555
H10B C10B 1_555 1_555
C11B P1B 1_555 1_555
C12B C11B 1_555 1_555
H11B C12B 1_555 1_555
C13B C12B 1_555 1_555
H12B C13B 1_555 1_555
C14B C13B 1_555 1_555
H13B C14B 1_555 1_555
C15B C14B 1_555 1_555
H14B C15B 1_555 1_555
C16B C11B 1_555 1_555
H15B C16B 1_555 1_555
C17C H16C 1_555 1_555
C18C C17C 1_555 1_555
H17C C18C 1_555 1_555
C19C C18C 1_555 1_555
C20C C19C 1_555 1_555
H18C C20C 1_555 1_555
C21C N2C 1_555 1_555
H19C C21C 1_555 1_555
C22C C19C 1_555 1_555
C23C C22C 1_555 1_555
H20C C23C 1_555 1_555
C24C N3C 1_555 1_555
H21C C24C 1_555 1_555
C25C N3C 1_555 1_555
H22C C25C 1_555 1_555
C26C C22C 1_555 1_555
H23C C26C 1_555 1_555
C27B N4B 1_555 1_555
C28B C27B 1_555 1_555
H24B C28B 1_555 1_555
H25B C28B 1_555 1_555
H26B C28B 1_555 1_555
C1 C3 1_555 1_555
C2 C3 1_555 1_555
C9 C10 1_555 1_555
C15 C16 1_555 1_555
C20 C21 1_555 1_555
C25 C26 1_555 1_555
C1B C3B 1_555 1_555
C2B C3B 1_555 1_555
C9B C10B 1_555 1_555
C15B C16B 1_555 1_555
C20C C21C 1_555 1_555
C23C C24C 1_555 1_555
C25C C26C 1_555 1_555

#END
