
#######################################################################
#
#                 Cambridge Crystallographic Data Centre
#                                CCDC 
#
#######################################################################
#
# If this CIF has been generated from an entry in the Cambridge 
# Structural Database, then it will include bibliographic, chemical, 
# crystal, experimental, refinement or atomic coordinate data resulting 
# from the CCDC's data processing and validation procedures.
#
#######################################################################

data_BODKUB
_symmetry_cell_setting           triclinic
_symmetry_space_group_name_H-M   'P -1'
_symmetry_Int_Tables_number      2
_space_group_name_Hall           '-P 1'
loop_
_symmetry_equiv_pos_site_id
_symmetry_equiv_pos_as_xyz
1 x,y,z
2 -x,-y,-z
_cell_length_a                   6.9628(3)
_cell_length_b                   11.0010(3)
_cell_length_c                   11.5319(5)
_cell_angle_alpha                79.856(1)
_cell_angle_beta                 73.862(2)
_cell_angle_gamma                76.865(2)
_cell_volume                     820.265
loop_
_atom_site_label
_atom_site_type_symbol
_atom_site_fract_x
_atom_site_fract_y
_atom_site_fract_z
La1 La 0.666434(16) 0.467805(9) 0.243269(9)
N1 N 0.8962(3) 0.26612(16) 0.13068(16)
C1 C 0.9839(3) 0.28824(19) 0.01134(19)
C2 C 1.1260(3) 0.1984(2) -0.05363(19)
H1 H 1.1869 0.2175 -0.1376
C3 C 1.1771(3) 0.0796(2) 0.0075(2)
C4 C 1.0821(3) 0.0543(2) 0.12961(19)
H2 H 1.1125 -0.0268 0.1725
C5 C 0.9409(3) 0.15048(19) 0.18826(19)
C6 C 0.8276(3) 0.13036(19) 0.31751(19)
C7 C 0.8481(3) 0.01382(19) 0.38811(19)
H3 H 0.9335 -0.0578 0.3531
C8 C 0.7430(3) 0.00270(19) 0.51015(19)
C9 C 0.6207(3) 0.10987(19) 0.55777(19)
H4 H 0.5523 0.1070 0.6416
C10 C 0.6006(3) 0.22111(19) 0.48028(19)
N2 N 0.7001(3) 0.23236(16) 0.36277(16)
C11 C 0.4604(3) 0.33967(19) 0.52408(19)
O1 O 0.4162(2) 0.42620(14) 0.44211(14)
O2 O 0.3989(2) 0.34346(14) 0.63651(14)
C12 C 0.7670(3) -0.12561(19) 0.58599(19)
O3 O 0.6734(2) -0.13562(15) 0.69648(14)
O4 O 0.8810(3) -0.21469(15) 0.53235(15)
C13 C 1.3300(3) -0.0224(2) -0.05696(19)
O5 O 1.3814(3) -0.12481(16) -0.00506(16)
O6 O 1.3979(3) 0.01404(16) -0.17259(16)
H5 H 1.485(6) -0.043(4) -0.205(4)
C14 C 0.9165(3) 0.41794(19) -0.04957(19)
O7 O 1.0153(2) 0.44672(14) -0.15695(14)
O8 O 0.7668(2) 0.48816(14) 0.00914(14)
O9 O 0.4150(3) 0.37054(16) 0.18727(16)
H6 H 0.393(5) 0.2984(16) 0.210(3)
H7 H 0.354(4) 0.400(3) 0.133(2)
O10 O 0.4341(3) 0.65079(16) 0.15858(17)
H8 H 0.457(5) 0.701(3) 0.0955(19)
H9 H 0.325(3) 0.683(3) 0.203(2)
O11 O 0.8887(3) 0.43355(16) 0.39586(15)
H10 H 0.975(4) 0.372(2) 0.412(3)
H11 H 0.831(4) 0.464(3) 0.4607(17)
La1A La 0.333566(16) 0.532195(9) 0.756731(9)
La1A_2 La 1.333566(16) 0.532195(9) -0.243269(9)
O2A O 0.6011(2) 0.65654(14) 0.36349(14)
O7A O 0.9847(2) 0.55328(14) 0.15695(14)
O12 O 0.0695(3) 0.7073(2) 0.3083(2)
H12 H 0.009(6) 0.653(3) 0.299(4)
H13 H 0.006(5) 0.733(4) 0.376(2)
loop_
_geom_bond_atom_site_label_1
_geom_bond_atom_site_label_2
_geom_bond_site_symmetry_1
_geom_bond_site_symmetry_2
La1 N1 1_555 1_555
N1 C1 1_555 1_555
C1 C2 1_555 1_555
C2 H1 1_555 1_555
C3 C2 1_555 1_555
C4 C3 1_555 1_555
H2 C4 1_555 1_555
C5 N1 1_555 1_555
C6 C5 1_555 1_555
C7 C6 1_555 1_555
H3 C7 1_555 1_555
C8 C7 1_555 1_555
C9 C8 1_555 1_555
H4 C9 1_555 1_555
C10 C9 1_555 1_555
N2 La1 1_555 1_555
C11 C10 1_555 1_555
O1 La1 1_555 1_555
O2 C11 1_555 1_555
C12 C8 1_555 1_555
O3 C12 1_555 1_555
O4 C12 1_555 1_555
C13 C3 1_555 1_555
O5 C13 1_555 1_555
O6 C13 1_555 1_555
H5 O6 1_555 1_555
C14 C1 1_555 1_555
O7 C14 1_555 1_555
O8 La1 1_555 1_555
O9 La1 1_555 1_555
H6 O9 1_555 1_555
H7 O9 1_555 1_555
O10 La1 1_555 1_555
H8 O10 1_555 1_555
H9 O10 1_555 1_555
O11 La1 1_555 1_555
H10 O11 1_555 1_555
H11 O11 1_555 1_555
O12 H12 1_555 1_555
H13 O12 1_555 1_555
La1A O2 1_555 1_555
La1A_2 O7 1_555 1_555
O2A La1 1_555 1_555
O7A La1 1_555 1_555
C4 C5 1_555 1_555
C6 N2 1_555 1_555
C10 N2 1_555 1_555
C11 O1 1_555 1_555
C14 O8 1_555 1_555

#END
