
#######################################################################
#
#                 Cambridge Crystallographic Data Centre
#                                CCDC 
#
#######################################################################
#
# If this CIF has been generated from an entry in the Cambridge 
# Structural Database, then it will include bibliographic, chemical, 
# crystal, experimental, refinement or atomic coordinate data resulting 
# from the CCDC's data processing and validation procedures.
#
#######################################################################

data_BODKEL
_symmetry_cell_setting           monoclinic
_symmetry_space_group_name_H-M   'P 21/n'
_symmetry_Int_Tables_number      14
_space_group_name_Hall           '-P 2yn'
loop_
_symmetry_equiv_pos_site_id
_symmetry_equiv_pos_as_xyz
1 x,y,z
2 1/2-x,1/2+y,1/2-z
3 -x,-y,-z
4 1/2+x,1/2-y,1/2+z
_cell_length_a                   8.6449(2)
_cell_length_b                   6.1356(1)
_cell_length_c                   28.8664(5)
_cell_angle_alpha                90
_cell_angle_beta                 98.332(1)
_cell_angle_gamma                90
_cell_volume                     1514.96
loop_
_atom_site_label
_atom_site_type_symbol
_atom_site_fract_x
_atom_site_fract_y
_atom_site_fract_z
Ba1 Ba 0.159830(15) 0.18227(2) 0.046836(5)
Cl1 Cl 0.01923(6) 0.35642(9) 0.14955(2)
Cl2 Cl -0.03110(6) 0.80898(9) 0.174468(19)
P1 P -0.09965(6) 0.66425(10) 0.07421(2)
P2 P 0.24176(7) 0.69587(9) 0.12708(2)
O1 O 0.45618(19) 0.2934(3) 0.03397(7)
H1 H 0.5275 0.2565 0.0184
H2 H 0.4954 0.3923 0.0518
O2 O 0.28695(18) -0.2020(3) 0.01086(6)
H3 H 0.2240 -0.2744 -0.0096
H4 H 0.3055 -0.2814 0.0354
O3 O 0.62222(19) 0.5878(3) 0.24195(6)
O4 O -0.08471(18) 0.4613(3) 0.04639(6)
O5 O -0.06351(18) 0.8736(3) 0.05123(6)
O6 O -0.27083(18) 0.6676(3) 0.08775(6)
O7 O 0.27943(18) 0.5437(3) 0.08933(6)
O8 O 0.25142(17) 0.9352(3) 0.11915(5)
N1 N 0.3463(2) 0.6296(3) 0.17684(7)
C1 C 0.0318(3) 0.6353(4) 0.13102(8)
C2 C 0.3819(3) 0.7837(4) 0.21584(8)
H5 H 0.3325 0.7340 0.2429
H6 H 0.3395 0.9293 0.2063
C3 C 0.5570(3) 0.7977(4) 0.22970(9)
H7 H 0.6050 0.8580 0.2033
H8 H 0.5812 0.8977 0.2567
C4 C 0.5912(3) 0.4410(4) 0.20317(9)
H9 H 0.6379 0.2971 0.2122
H10 H 0.6406 0.4972 0.1767
C5 C 0.4164(3) 0.4147(4) 0.18775(9)
H11 H 0.3976 0.3199 0.1597
H12 H 0.3678 0.3453 0.2131
C6 C -0.3528(3) 0.8719(4) 0.09201(9)
H13 H -0.2776 0.9846 0.1043
H14 H -0.4299 0.8525 0.1134
H15 H -0.4062 0.9162 0.0612
Ba1_2 Ba 0.159830(15) 1.18227(2) 0.046836(5)
Ba1B Ba -0.159830(15) 0.81773(2) -0.046836(5)
O5_2 O -0.06351(18) -0.1264(3) 0.05123(6)
O5B O 0.06351(18) 0.1264(3) -0.05123(6)
O8_2 O 0.25142(17) -0.0648(3) 0.11915(5)
loop_
_geom_bond_atom_site_label_1
_geom_bond_atom_site_label_2
_geom_bond_site_symmetry_1
_geom_bond_site_symmetry_2
Ba1 O1 1_555 1_555
Cl1 C1 1_555 1_555
Cl2 C1 1_555 1_555
P1 O4 1_555 1_555
P2 O7 1_555 1_555
O1 H1 1_555 1_555
H2 O1 1_555 1_555
O2 Ba1 1_555 1_555
H3 O2 1_555 1_555
H4 O2 1_555 1_555
O3 C3 1_555 1_555
O4 Ba1 1_555 1_555
O5 P1 1_555 1_555
O6 P1 1_555 1_555
O7 Ba1 1_555 1_555
O8 P2 1_555 1_555
N1 P2 1_555 1_555
C1 P1 1_555 1_555
C2 N1 1_555 1_555
H5 C2 1_555 1_555
H6 C2 1_555 1_555
C3 C2 1_555 1_555
H7 C3 1_555 1_555
H8 C3 1_555 1_555
C4 O3 1_555 1_555
H9 C4 1_555 1_555
H10 C4 1_555 1_555
C5 N1 1_555 1_555
H11 C5 1_555 1_555
H12 C5 1_555 1_555
C6 O6 1_555 1_555
H13 C6 1_555 1_555
H14 C6 1_555 1_555
H15 C6 1_555 1_555
Ba1_2 O5 1_555 1_555
Ba1B O5 1_555 1_555
O5_2 Ba1 1_555 1_555
O5B Ba1 1_555 1_555
O8_2 Ba1 1_555 1_555
P2 C1 1_555 1_555
O8 Ba1_2 1_555 1_555
C4 C5 1_555 1_555

#END
