
#######################################################################
#
#                 Cambridge Crystallographic Data Centre
#                                CCDC 
#
#######################################################################
#
# If this CIF has been generated from an entry in the Cambridge 
# Structural Database, then it will include bibliographic, chemical, 
# crystal, experimental, refinement or atomic coordinate data resulting 
# from the CCDC's data processing and validation procedures.
#
#######################################################################

data_BODKAH01
_symmetry_cell_setting           orthorhombic
_symmetry_space_group_name_H-M   'P 21 21 21'
_symmetry_Int_Tables_number      19
_space_group_name_Hall           'P 2ac 2ab'
loop_
_symmetry_equiv_pos_site_id
_symmetry_equiv_pos_as_xyz
1 x,y,z
2 1/2-x,-y,1/2+z
3 1/2+x,1/2-y,-z
4 -x,1/2+y,1/2-z
_cell_length_a                   13.523(2)
_cell_length_b                   18.277(3)
_cell_length_c                   18.648(3)
_cell_angle_alpha                90
_cell_angle_beta                 90
_cell_angle_gamma                90
_cell_volume                     4609.04
loop_
_atom_site_label
_atom_site_type_symbol
_atom_site_fract_x
_atom_site_fract_y
_atom_site_fract_z
Cu1 Cu 0.18414(5) -0.32971(4) -0.69058(4)
P1 P 0.05750(11) -0.39101(8) -0.73991(9)
P2 P -0.16849(11) -0.14385(8) -0.25687(9)
N1 N -0.0703(4) -0.3910(3) -0.6255(3)
H1 H -0.0749 -0.4339 -0.6043
N2 N -0.0538(4) -0.2241(3) -0.3429(3)
H2 H -0.0320 -0.1837 -0.3630
N3 N 0.1869(3) -0.3312(2) -0.5794(2)
N4 N 0.1825(3) -0.2176(2) -0.6706(2)
C1 C -0.0586(4) -0.2863(3) -0.3856(3)
C2 C -0.0602(4) -0.3552(3) -0.3573(4)
H3 H -0.0584 -0.3617 -0.3067
C3 C -0.0646(4) -0.4160(3) -0.4023(3)
H4 H -0.0668 -0.4636 -0.3818
C4 C -0.0659(4) -0.4089(3) -0.4739(3)
H5 H -0.0688 -0.4513 -0.5032
C5 C -0.0629(4) -0.3392(3) -0.5063(3)
C6 C -0.0597(4) -0.2758(3) -0.4621(3)
C7 C -0.0575(4) -0.2060(3) -0.4949(4)
H6 H -0.0580 -0.1633 -0.4659
C8 C -0.0546(4) -0.1996(3) -0.5672(4)
H7 H -0.0513 -0.1522 -0.5879
C9 C -0.0563(4) -0.2608(3) -0.6121(4)
H8 H -0.0523 -0.2547 -0.6626
C10 C -0.0636(4) -0.3296(3) -0.5836(3)
C11 C -0.0702(4) -0.3884(3) -0.7025(3)
H9 H -0.1035 -0.3430 -0.7186
H10 H -0.1083 -0.4305 -0.7214
C12 C 0.0282(4) -0.3717(3) -0.8329(3)
C13 C 0.0347(5) -0.3013(4) -0.8570(4)
H11 H 0.0603 -0.2645 -0.8261
C14 C 0.0046(6) -0.2824(4) -0.9255(4)
H12 H 0.0089 -0.2330 -0.9411
C15 C -0.0317(6) -0.3353(5) -0.9711(4)
H13 H -0.0542 -0.3223 -1.0176
C16 C -0.0350(6) -0.4066(5) -0.9492(4)
H14 H -0.0577 -0.4437 -0.9808
C17 C -0.0054(5) -0.4239(4) -0.8810(4)
H15 H -0.0080 -0.4735 -0.8661
C18 C 0.0873(4) -0.4889(3) -0.7387(3)
C19 C 0.0447(5) -0.5358(3) -0.6910(4)
H16 H -0.0035 -0.5183 -0.6582
C20 C 0.0713(6) -0.6088(3) -0.6903(4)
H17 H 0.0395 -0.6413 -0.6579
C21 C 0.1408(6) -0.6342(4) -0.7340(4)
H18 H 0.1616 -0.6837 -0.7311
C22 C 0.1817(7) -0.5881(4) -0.7831(5)
H19 H 0.2285 -0.6064 -0.8165
C23 C 0.1561(5) -0.5159(4) -0.7847(4)
H20 H 0.1867 -0.4841 -0.8183
C24 C -0.0813(5) -0.2203(3) -0.2691(4)
H21 H -0.0219 -0.2125 -0.2391
H22 H -0.1128 -0.2668 -0.2543
C25 C -0.1617(4) -0.1338(3) -0.1597(3)
C26 C -0.1166(5) -0.0762(4) -0.1242(4)
H23 H -0.0872 -0.0380 -0.1513
C27 C -0.1135(5) -0.0732(4) -0.0499(4)
H24 H -0.0814 -0.0338 -0.0263
C28 C -0.1574(6) -0.1278(4) -0.0112(4)
H25 H -0.1574 -0.1256 0.0397
C29 C -0.2018(7) -0.1860(4) -0.0458(4)
H26 H -0.2301 -0.2247 -0.0186
C30 C -0.2051(6) -0.1883(4) -0.1193(4)
H27 H -0.2375 -0.2278 -0.1427
C31 C -0.0962(5) -0.0674(3) -0.2921(3)
C32 C 0.0048(5) -0.0605(4) -0.2840(4)
H28 H 0.0403 -0.0964 -0.2577
C33 C 0.0542(7) -0.0030(5) -0.3133(5)
H29 H 0.1240 0.0000 -0.3080
C34 C 0.0066(8) 0.0494(5) -0.3494(5)
H30 H 0.0422 0.0903 -0.3675
C35 C -0.0938(9) 0.0444(5) -0.3605(5)
H31 H -0.1273 0.0806 -0.3878
C36 C -0.1456(6) -0.0139(4) -0.3315(4)
H32 H -0.2151 -0.0174 -0.3385
C37 C 0.1814(4) -0.1615(3) -0.7154(3)
H33 H 0.1786 -0.1710 -0.7654
C38 C 0.1842(4) -0.0884(3) -0.6922(4)
H34 H 0.1835 -0.0497 -0.7263
C39 C 0.1880(4) -0.0732(3) -0.6218(4)
H35 H 0.1908 -0.0239 -0.6059
C40 C 0.1876(4) -0.1302(3) -0.5720(3)
C41 C 0.1864(4) -0.2022(3) -0.5997(3)
C42 C 0.1900(4) -0.1190(3) -0.4957(3)
H36 H 0.1917 -0.0707 -0.4771
C43 C 0.1898(4) -0.1765(3) -0.4504(3)
H37 H 0.1909 -0.1678 -0.4002
C44 C 0.1881(4) -0.2505(3) -0.4759(3)
C45 C 0.1872(4) -0.2622(3) -0.5505(3)
C46 C 0.1870(4) -0.3112(3) -0.4305(3)
H38 H 0.1867 -0.3051 -0.3799
C47 C 0.1864(5) -0.3795(3) -0.4600(3)
H39 H 0.1862 -0.4215 -0.4300
C48 C 0.1860(5) -0.3874(3) -0.5347(3)
H40 H 0.1851 -0.4354 -0.5542
Cu1B Cu -0.31586(5) -0.17029(4) -0.30942(4)
P2B P 0.33151(11) -0.35615(8) -0.74313(9)
N5 N -0.3355(6) -0.3069(4) -0.8415(5)
C49 C -0.3934(10) -0.2823(8) -0.9037(7)
H41 H -0.3974 -0.2288 -0.9036
H42 H -0.4601 -0.3030 -0.9011
H43 H -0.3611 -0.2988 -0.9479
C50 C -0.2905(11) -0.3740(8) -0.8503(8)
H44 H -0.2713 -0.3934 -0.8034
H45 H -0.2315 -0.3683 -0.8804
H46 H -0.3367 -0.4079 -0.8735
C51 C -0.3283(8) -0.2676(7) -0.7845(6)
H47 H -0.3605 -0.2214 -0.7845
O5 O -0.2848(6) -0.2843(5) -0.7324(5)
Cl1 Cl -0.20209(14) -0.58520(8) -0.57959(10)
O1 O -0.2513(12) -0.6396(4) -0.6089(5)
O2 O -0.2501(6) -0.5667(4) -0.5177(4)
O3 O -0.1991(4) -0.5243(2) -0.6273(3)
O4 O -0.1119(7) -0.6073(8) -0.5667(8)
loop_
_geom_bond_atom_site_label_1
_geom_bond_atom_site_label_2
_geom_bond_site_symmetry_1
_geom_bond_site_symmetry_2
Cu1 P1 1_555 1_555
P1 C11 1_555 1_555
P2 C24 1_555 1_555
N1 H1 1_555 1_555
N2 H2 1_555 1_555
N3 Cu1 1_555 1_555
N4 Cu1 1_555 1_555
C1 N2 1_555 1_555
C2 C1 1_555 1_555
H3 C2 1_555 1_555
C3 C2 1_555 1_555
H4 C3 1_555 1_555
C4 C3 1_555 1_555
H5 C4 1_555 1_555
C5 C4 1_555 1_555
C6 C1 1_555 1_555
C7 C6 1_555 1_555
H6 C7 1_555 1_555
C8 C7 1_555 1_555
H7 C8 1_555 1_555
C9 C8 1_555 1_555
H8 C9 1_555 1_555
C10 N1 1_555 1_555
C11 N1 1_555 1_555
H9 C11 1_555 1_555
H10 C11 1_555 1_555
C12 P1 1_555 1_555
C13 C12 1_555 1_555
H11 C13 1_555 1_555
C14 C13 1_555 1_555
H12 C14 1_555 1_555
C15 C14 1_555 1_555
H13 C15 1_555 1_555
C16 C15 1_555 1_555
H14 C16 1_555 1_555
C17 C12 1_555 1_555
H15 C17 1_555 1_555
C18 P1 1_555 1_555
C19 C18 1_555 1_555
H16 C19 1_555 1_555
C20 C19 1_555 1_555
H17 C20 1_555 1_555
C21 C20 1_555 1_555
H18 C21 1_555 1_555
C22 C21 1_555 1_555
H19 C22 1_555 1_555
C23 C18 1_555 1_555
H20 C23 1_555 1_555
C24 N2 1_555 1_555
H21 C24 1_555 1_555
H22 C24 1_555 1_555
C25 P2 1_555 1_555
C26 C25 1_555 1_555
H23 C26 1_555 1_555
C27 C26 1_555 1_555
H24 C27 1_555 1_555
C28 C27 1_555 1_555
H25 C28 1_555 1_555
C29 C28 1_555 1_555
H26 C29 1_555 1_555
C30 C25 1_555 1_555
H27 C30 1_555 1_555
C31 P2 1_555 1_555
C32 C31 1_555 1_555
H28 C32 1_555 1_555
C33 C32 1_555 1_555
H29 C33 1_555 1_555
C34 C33 1_555 1_555
H30 C34 1_555 1_555
C35 C34 1_555 1_555
H31 C35 1_555 1_555
C36 C31 1_555 1_555
H32 C36 1_555 1_555
C37 N4 1_555 1_555
H33 C37 1_555 1_555
C38 C37 1_555 1_555
H34 C38 1_555 1_555
C39 C38 1_555 1_555
H35 C39 1_555 1_555
C40 C39 1_555 1_555
C41 N4 1_555 1_555
C42 C40 1_555 1_555
H36 C42 1_555 1_555
C43 C42 1_555 1_555
H37 C43 1_555 1_555
C44 C43 1_555 1_555
C45 N3 1_555 1_555
C46 C44 1_555 1_555
H38 C46 1_555 1_555
C47 C46 1_555 1_555
H39 C47 1_555 1_555
C48 N3 1_555 1_555
H40 C48 1_555 1_555
N5 C49 1_555 1_555
C49 H41 1_555 1_555
H42 C49 1_555 1_555
H43 C49 1_555 1_555
C50 N5 1_555 1_555
H44 C50 1_555 1_555
H45 C50 1_555 1_555
H46 C50 1_555 1_555
C51 N5 1_555 1_555
H47 C51 1_555 1_555
Cl1 O1 1_555 1_555
O2 Cl1 1_555 1_555
O3 Cl1 1_555 1_555
O4 Cl1 1_555 1_555
O5 C51 1_555 1_555
Cu1B P2 1_555 1_555
P2B Cu1 1_555 1_555
C5 C6 1_555 1_555
C5 C10 1_555 1_555
C9 C10 1_555 1_555
C16 C17 1_555 1_555
C22 C23 1_555 1_555
C29 C30 1_555 1_555
C35 C36 1_555 1_555
C40 C41 1_555 1_555
C41 C45 1_555 1_555
C44 C45 1_555 1_555
C47 C48 1_555 1_555

#END
