
#######################################################################
#
#                 Cambridge Crystallographic Data Centre
#                                CCDC 
#
#######################################################################
#
# If this CIF has been generated from an entry in the Cambridge 
# Structural Database, then it will include bibliographic, chemical, 
# crystal, experimental, refinement or atomic coordinate data resulting 
# from the CCDC's data processing and validation procedures.
#
#######################################################################

data_BODLAI
_symmetry_cell_setting           triclinic
_symmetry_space_group_name_H-M   'P -1'
_symmetry_Int_Tables_number      2
_space_group_name_Hall           '-P 1'
loop_
_symmetry_equiv_pos_site_id
_symmetry_equiv_pos_as_xyz
1 x,y,z
2 -x,-y,-z
_cell_length_a                   7.2471(5)
_cell_length_b                   9.9563(6)
_cell_length_c                   11.0922(7)
_cell_angle_alpha                71.432(1)
_cell_angle_beta                 75.006(1)
_cell_angle_gamma                78.665(1)
_cell_volume                     727.14
loop_
_atom_site_label
_atom_site_type_symbol
_atom_site_fract_x
_atom_site_fract_y
_atom_site_fract_z
La1 La -0.64962(4) 0.47067(3) 0.26928(2)
N1 N -0.7670(5) 0.2385(4) 0.4753(4)
C1 C -0.8664(6) 0.2674(5) 0.5853(4)
C2 C -0.9510(7) 0.1652(5) 0.6942(4)
H1 H -1.0244 0.1903 0.7700
C3 C -0.9244(7) 0.0263(5) 0.6878(4)
C4 C -0.8172(7) -0.0059(5) 0.5745(4)
H2 H -0.7956 -0.1012 0.5691
C5 C -0.7419(7) 0.1034(5) 0.4691(4)
C6 C -0.6227(7) 0.0766(5) 0.3470(4)
C7 C -0.5804(7) -0.0576(5) 0.3243(4)
H3 H -0.6294 -0.1383 0.3894
C8 C -0.4669(6) -0.0729(5) 0.2068(4)
C9 C -0.4003(7) 0.0485(5) 0.1138(5)
H4 H -0.3253 0.0429 0.0312
C10 C -0.4448(7) 0.1772(5) 0.1434(4)
N2 N -0.5523(5) 0.1926(4) 0.2567(4)
C11 C -0.3733(6) 0.3125(5) 0.0471(4)
O1 O -0.3831(5) 0.4147(3) 0.0954(3)
O2 O -0.3128(5) 0.3145(3) -0.0683(3)
C12 C -0.4151(7) -0.2200(5) 0.1828(4)
O3 O -0.2899(5) -0.2353(3) 0.0839(3)
O4 O -0.5034(5) -0.3184(3) 0.2651(3)
C13 C -1.0013(7) -0.0953(5) 0.8001(5)
O5 O -0.9566(5) -0.2175(3) 0.7923(3)
O6 O -1.1102(5) -0.0572(4) 0.8976(3)
H5 H -1.147(8) -0.128(4) 0.955(3)
C14 C -0.8740(6) 0.4188(5) 0.5880(4)
O7 O -0.9938(5) 0.4607(3) 0.6758(3)
O8 O -0.7549(5) 0.4936(3) 0.5003(3)
O9 O -0.8067(5) 0.4144(4) 0.1187(3)
H6 H -0.886(6) 0.362(5) 0.125(5)
H7 H -0.762(7) 0.445(5) 0.0411(18)
O10 O -0.3559(5) 0.3536(4) 0.3717(3)
H8 H -0.256(4) 0.334(6) 0.322(4)
H9 H -0.330(7) 0.402(5) 0.412(5)
La1A La -0.35038(4) 0.52933(3) -0.26928(2)
La1_2 La -0.64962(4) -0.52933(3) 0.26928(2)
La1A_2 La -1.35038(4) 0.52933(3) 0.73072(2)
O2A O -0.6872(5) 0.6855(3) 0.0683(3)
O4_2 O -0.5034(5) 0.6816(3) 0.2651(3)
O7A O -1.0062(5) 0.5393(3) 0.3242(3)
loop_
_geom_bond_atom_site_label_1
_geom_bond_atom_site_label_2
_geom_bond_site_symmetry_1
_geom_bond_site_symmetry_2
La1 N1 1_555 1_555
N1 C1 1_555 1_555
C1 C2 1_555 1_555
C2 H1 1_555 1_555
C3 C2 1_555 1_555
C4 C3 1_555 1_555
H2 C4 1_555 1_555
C5 N1 1_555 1_555
C6 C5 1_555 1_555
C7 C6 1_555 1_555
H3 C7 1_555 1_555
C8 C7 1_555 1_555
C9 C8 1_555 1_555
H4 C9 1_555 1_555
C10 C9 1_555 1_555
N2 La1 1_555 1_555
C11 C10 1_555 1_555
O1 La1 1_555 1_555
O2 C11 1_555 1_555
C12 C8 1_555 1_555
O3 C12 1_555 1_555
O4 C12 1_555 1_555
C13 C3 1_555 1_555
O5 C13 1_555 1_555
O6 C13 1_555 1_555
H5 O6 1_555 1_555
C14 C1 1_555 1_555
O7 C14 1_555 1_555
O8 La1 1_555 1_555
O9 La1 1_555 1_555
H6 O9 1_555 1_555
H7 O9 1_555 1_555
O10 La1 1_555 1_555
H8 O10 1_555 1_555
H9 O10 1_555 1_555
La1A O2 1_555 1_555
La1_2 O4 1_555 1_555
La1A_2 O7 1_555 1_555
O2A La1 1_555 1_555
O4_2 La1 1_555 1_555
O7A La1 1_555 1_555
C4 C5 1_555 1_555
C6 N2 1_555 1_555
C10 N2 1_555 1_555
C11 O1 1_555 1_555
C14 O8 1_555 1_555

#END
