
#######################################################################
#
#                 Cambridge Crystallographic Data Centre
#                                CCDC 
#
#######################################################################
#
# If this CIF has been generated from an entry in the Cambridge 
# Structural Database, then it will include bibliographic, chemical, 
# crystal, experimental, refinement or atomic coordinate data resulting 
# from the CCDC's data processing and validation procedures.
#
#######################################################################

data_BODLAJ
_symmetry_cell_setting           triclinic
_symmetry_space_group_name_H-M   'P -1'
_symmetry_Int_Tables_number      2
_space_group_name_Hall           '-P 1'
loop_
_symmetry_equiv_pos_site_id
_symmetry_equiv_pos_as_xyz
1 x,y,z
2 -x,-y,-z
_cell_length_a                   5.7727(8)
_cell_length_b                   10.3421(15)
_cell_length_c                   13.1675(19)
_cell_angle_alpha                87.175(2)
_cell_angle_beta                 78.856(2)
_cell_angle_gamma                81.474(2)
_cell_volume                     762.605
loop_
_atom_site_label
_atom_site_type_symbol
_atom_site_fract_x
_atom_site_fract_y
_atom_site_fract_z
Co1 Co 0.5000 0.0000 0.0000
O1 O 0.8245(8) 0.0527(5) -0.0875(4)
H1 H 0.9116 0.0861 -0.0468
H2 H 0.7974 0.1148 -0.1372
O2 O 0.2947(8) 0.1293(4) -0.0851(4)
O3 O 0.5742(10) 0.1838(6) -0.2164(4)
O4 O -0.0339(10) 0.3206(5) -0.1427(5)
N1 N 0.4646(10) 0.1467(5) 0.1144(5)
N2 N 0.1474(11) 0.4777(6) 0.4001(5)
C1 C 0.3664(14) 0.1882(7) -0.1687(6)
C2 C 0.1723(15) 0.2740(8) -0.2163(7)
H3 H 0.2401 0.3498 -0.2528
H4 H 0.1244 0.2227 -0.2684
C3 C -0.0057(15) 0.4091(8) -0.0716(8)
C4 C -0.2010(14) 0.4424(8) 0.0052(8)
H5 H -0.3397 0.4018 0.0088
C5 C 0.6335(14) 0.1602(8) 0.1688(7)
H6 H 0.7780 0.1009 0.1571
C6 C 0.2635(13) 0.2314(7) 0.1348(6)
H7 H 0.1390 0.2231 0.0988
C7 C 0.3746(14) 0.4588(9) 0.3307(6)
H8 H 0.5028 0.4440 0.3719
H9 H 0.3944 0.5396 0.2883
C8 C 0.1075(14) 0.6027(8) 0.4482(6)
H10 H 0.1156 0.6725 0.3939
H11 H 0.2350 0.6077 0.4878
C9 C 0.1316(15) 0.3748(8) 0.4801(6)
H12 H 0.2605 0.3745 0.5200
H13 H 0.1524 0.2886 0.4475
C10 C 0.1974(15) 0.4660(8) -0.0770(7)
H14 H 0.3332 0.4424 -0.1295
C11 C 0.2273(13) 0.3304(7) 0.2053(6)
H15 H 0.0812 0.3883 0.2166
C12 C 0.4032(13) 0.3448(7) 0.2590(6)
C13 C 0.6070(14) 0.2550(8) 0.2401(7)
H16 H 0.7311 0.2593 0.2773
O2A O -0.2947(8) 0.8707(4) 0.0851(4)
O3A O -0.5742(10) 0.8162(6) 0.2164(4)
O4A O 0.0339(10) 0.6794(5) 0.1427(5)
C1A C -0.3664(14) 0.8118(7) 0.1687(6)
C2A C -0.1723(15) 0.7260(8) 0.2163(7)
H3A H -0.2401 0.6502 0.2528
H4A H -0.1244 0.7773 0.2684
C3A C 0.0057(15) 0.5909(8) 0.0716(8)
C4A C 0.2010(14) 0.5576(8) -0.0052(8)
H5A H 0.3397 0.5982 -0.0088
C10A C -0.1974(15) 0.5340(8) 0.0770(7)
H14A H -0.3332 0.5576 0.1295
N1A N -0.4646(10) 0.8533(5) 0.8856(5)
N2A N -0.1474(11) 0.5223(6) 0.5999(5)
C5A C -0.6335(14) 0.8398(8) 0.8312(7)
H6A H -0.7780 0.8991 0.8429
C6A C -0.2635(13) 0.7686(7) 0.8652(6)
H7A H -0.1390 0.7769 0.9012
C7A C -0.3746(14) 0.5412(9) 0.6693(6)
H8A H -0.5028 0.5560 0.6281
H9A H -0.3944 0.4604 0.7117
C8A C -0.1075(14) 0.3973(8) 0.5518(6)
H10A H -0.1156 0.3275 0.6061
H11A H -0.2350 0.3923 0.5122
C9A C -0.1316(15) 0.6252(8) 0.5199(6)
H12A H -0.2605 0.6255 0.4800
H13A H -0.1524 0.7114 0.5525
C11A C -0.2273(13) 0.6696(7) 0.7947(6)
H15A H -0.0812 0.6117 0.7834
C12A C -0.4032(13) 0.6552(7) 0.7410(6)
C13A C -0.6070(14) 0.7450(8) 0.7599(7)
H16A H -0.7311 0.7407 0.7227
O1A O 0.1755(8) -0.0527(5) 0.0875(4)
H1A H 0.0884 -0.0861 0.0468
H2A H 0.2026 -0.1148 0.1372
Co1_2 Co -0.5000 1.0000 0.0000
Co1_3 Co -0.5000 1.0000 1.0000
O2A_2 O 0.7053(8) -0.1293(4) 0.0851(4)
N1A_2 N 0.5354(10) -0.1467(5) -0.1144(5)
loop_
_geom_bond_atom_site_label_1
_geom_bond_atom_site_label_2
_geom_bond_site_symmetry_1
_geom_bond_site_symmetry_2
Co1 O1 1_555 1_555
O1 H1 1_555 1_555
H2 O1 1_555 1_555
O2 Co1 1_555 1_555
O3 C1 1_555 1_555
O4 C2 1_555 1_555
N1 Co1 1_555 1_555
N2 C7 1_555 1_555
C1 O2 1_555 1_555
C2 C1 1_555 1_555
H3 C2 1_555 1_555
H4 C2 1_555 1_555
C3 O4 1_555 1_555
C4 C3 1_555 1_555
H5 C4 1_555 1_555
C5 N1 1_555 1_555
H6 C5 1_555 1_555
C6 N1 1_555 1_555
H7 C6 1_555 1_555
C7 H8 1_555 1_555
H9 C7 1_555 1_555
C8 N2 1_555 1_555
H10 C8 1_555 1_555
H11 C8 1_555 1_555
C9 N2 1_555 1_555
H12 C9 1_555 1_555
H13 C9 1_555 1_555
C10 C3 1_555 1_555
H14 C10 1_555 1_555
C11 C6 1_555 1_555
H15 C11 1_555 1_555
C12 C7 1_555 1_555
C13 C5 1_555 1_555
H16 C13 1_555 1_555
O2A C1A 1_555 1_555
O3A C1A 1_555 1_555
O4A C2A 1_555 1_555
C1A C2A 1_555 1_555
C2A H3A 1_555 1_555
H4A C2A 1_555 1_555
C3A O4A 1_555 1_555
C4A C10 1_555 1_555
H5A C4A 1_555 1_555
C10A C4 1_555 1_555
H14A C10A 1_555 1_555
N1A C5A 1_555 1_555
N2A C7A 1_555 1_555
C5A H6A 1_555 1_555
C6A N1A 1_555 1_555
H7A C6A 1_555 1_555
C7A H8A 1_555 1_555
H9A C7A 1_555 1_555
C8A C9 1_555 1_555
H10A C8A 1_555 1_555
H11A C8A 1_555 1_555
C9A C8 1_555 1_555
H12A C9A 1_555 1_555
H13A C9A 1_555 1_555
C11A C6A 1_555 1_555
H15A C11A 1_555 1_555
C12A C7A 1_555 1_555
C13A C5A 1_555 1_555
H16A C13A 1_555 1_555
O1A Co1 1_555 1_555
H1A O1A 1_555 1_555
H2A O1A 1_555 1_555
Co1_2 O2A 1_555 1_555
Co1_3 N1A 1_555 1_555
O2A_2 Co1 1_555 1_555
N1A_2 Co1 1_555 1_555
C11 C12 1_555 1_555
C12 C13 1_555 1_555
C3A C4A 1_555 1_555
C3A C10A 1_555 1_555
N2A C8A 1_555 1_555
N2A C9A 1_555 1_555
C11A C12A 1_555 1_555
C12A C13A 1_555 1_555

#END
