
#######################################################################
#
#                 Cambridge Crystallographic Data Centre
#                                CCDC 
#
#######################################################################
#
# If this CIF has been generated from an entry in the Cambridge 
# Structural Database, then it will include bibliographic, chemical, 
# crystal, experimental, refinement or atomic coordinate data resulting 
# from the CCDC's data processing and validation procedures.
#
#######################################################################

data_BODLIQ
_symmetry_cell_setting           monoclinic
_symmetry_space_group_name_H-M   'P 21/c'
_symmetry_Int_Tables_number      14
_space_group_name_Hall           '-P 2ybc'
loop_
_symmetry_equiv_pos_site_id
_symmetry_equiv_pos_as_xyz
1 x,y,z
2 -x,1/2+y,1/2-z
3 -x,-y,-z
4 x,1/2-y,1/2+z
_cell_length_a                   8.2797(4)
_cell_length_b                   16.7532(9)
_cell_length_c                   12.7089(6)
_cell_angle_alpha                90
_cell_angle_beta                 97.578(1)
_cell_angle_gamma                90
_cell_volume                     1747.47
loop_
_atom_site_label
_atom_site_type_symbol
_atom_site_fract_x
_atom_site_fract_y
_atom_site_fract_z
Eu1 Eu 0.413742(13) 0.728233(6) 0.410989(8)
N1 N 0.4365(2) 0.61344(11) 0.27894(15)
C1 C 0.5052(3) 0.63325(14) 0.19297(18)
C2 C 0.5719(3) 0.57731(14) 0.13180(18)
H1 H 0.6224 0.5934 0.0723
C3 C 0.5640(3) 0.49719(14) 0.15828(18)
C4 C 0.4840(3) 0.47539(13) 0.24390(17)
H2 H 0.4713 0.4208 0.2612
C5 C 0.4234(3) 0.53547(14) 0.30329(18)
C6 C 0.3420(3) 0.52134(14) 0.40040(18)
C7 C 0.3097(3) 0.44593(14) 0.43826(18)
H3 H 0.3411 0.3992 0.4038
C8 C 0.2299(3) 0.44049(14) 0.52833(18)
C9 C 0.1794(3) 0.51001(14) 0.57301(18)
H4 H 0.1173 0.5078 0.6307
C10 C 0.2205(3) 0.58249(14) 0.53263(18)
N2 N 0.3042(2) 0.58875(12) 0.44972(15)
C11 C 0.1704(3) 0.66108(14) 0.57848(18)
C12 C 0.2020(3) 0.36085(15) 0.58006(18)
O1 O 0.2195(2) 0.72378(9) 0.53564(13)
O2 O 0.0852(2) 0.65840(10) 0.65112(14)
O3 O 0.3129(2) 0.30942(10) 0.57846(13)
C13 C 0.6493(3) 0.43663(14) 0.09630(18)
O4 O 0.5978(2) 0.36600(11) 0.09413(12)
O5 O 0.7628(2) 0.46231(11) 0.05073(16)
C14 C 0.5122(3) 0.72205(14) 0.17005(19)
O6 O 0.5532(2) 0.74221(11) 0.08233(12)
O7 O 0.4768(2) 0.76886(9) 0.24036(13)
O8 O 0.1484(2) 0.74124(12) 0.31295(15)
H5 H 0.068(3) 0.7171(18) 0.326(3)
H6 H 0.120(4) 0.7683(16) 0.2600(19)
O9 O 0.0759(2) 0.35387(11) 0.62158(16)
Eu1B Eu 0.586258(13) 0.271767(6) 0.589011(8)
Eu1A Eu 0.586258(13) 0.228233(6) 0.089011(8)
Eu1C Eu 0.413742(13) 0.771767(6) -0.089011(8)
O3B O 0.6871(2) 0.69058(10) 0.42154(13)
O4A O 0.4022(2) 0.86600(11) 0.40587(12)
O6C O 0.5532(2) 0.75779(11) 0.58233(12)
N3 N 0.9912(3) 0.35465(17) 0.0129(3)
H7 H 0.908(4) 0.389(2) 0.024(2)
H8 H 0.952(4) 0.308(2) 0.027(3)
C15 C 1.0306(5) 0.3629(2) -0.0965(3)
H9 H 0.9330 0.3521 -0.1470
H10 H 1.1164 0.3248 -0.1080
H11 H 1.0686 0.4174 -0.1073
C16 C 1.1295(4) 0.3708(2) 0.0958(3)
H12 H 1.0938 0.3651 0.1660
H13 H 1.1692 0.4252 0.0876
H14 H 1.2174 0.3327 0.0891
loop_
_geom_bond_atom_site_label_1
_geom_bond_atom_site_label_2
_geom_bond_site_symmetry_1
_geom_bond_site_symmetry_2
Eu1 N1 1_555 1_555
N1 C1 1_555 1_555
C1 C2 1_555 1_555
C2 H1 1_555 1_555
C3 C2 1_555 1_555
C4 C3 1_555 1_555
H2 C4 1_555 1_555
C5 N1 1_555 1_555
C6 C5 1_555 1_555
C7 C6 1_555 1_555
H3 C7 1_555 1_555
C8 C7 1_555 1_555
C9 C8 1_555 1_555
H4 C9 1_555 1_555
C10 C9 1_555 1_555
N2 Eu1 1_555 1_555
C11 C10 1_555 1_555
C12 C8 1_555 1_555
O1 Eu1 1_555 1_555
O2 C11 1_555 1_555
O3 C12 1_555 1_555
C13 C3 1_555 1_555
O4 C13 1_555 1_555
O5 C13 1_555 1_555
C14 C1 1_555 1_555
O6 C14 1_555 1_555
O7 Eu1 1_555 1_555
O8 Eu1 1_555 1_555
H5 O8 1_555 1_555
H6 O8 1_555 1_555
N3 H7 1_555 1_555
H8 N3 1_555 1_555
C15 N3 1_555 1_555
H9 C15 1_555 1_555
H10 C15 1_555 1_555
H11 C15 1_555 1_555
C16 N3 1_555 1_555
H12 C16 1_555 1_555
H13 C16 1_555 1_555
H14 C16 1_555 1_555
O9 C12 1_555 1_555
Eu1B O3 1_555 1_555
Eu1A O4 1_555 1_555
Eu1C O6 1_555 1_555
O3B Eu1 1_555 1_555
O4A Eu1 1_555 1_555
O6C Eu1 1_555 1_555
C4 C5 1_555 1_555
C6 N2 1_555 1_555
C10 N2 1_555 1_555
C11 O1 1_555 1_555
C14 O7 1_555 1_555

#END
