
#######################################################################
#
#                 Cambridge Crystallographic Data Centre
#                                CCDC 
#
#######################################################################
#
# If this CIF has been generated from an entry in the Cambridge 
# Structural Database, then it will include bibliographic, chemical, 
# crystal, experimental, refinement or atomic coordinate data resulting 
# from the CCDC's data processing and validation procedures.
#
#######################################################################

data_BODLEM
_symmetry_cell_setting           orthorhombic
_symmetry_space_group_name_H-M   'P n m a'
_symmetry_Int_Tables_number      62
_space_group_name_Hall           '-P 2ac 2n'
loop_
_symmetry_equiv_pos_site_id
_symmetry_equiv_pos_as_xyz
1 x,y,z
2 1/2-x,-y,1/2+z
3 1/2+x,1/2-y,1/2-z
4 -x,1/2+y,-z
5 -x,-y,-z
6 1/2+x,y,1/2-z
7 1/2-x,1/2+y,1/2+z
8 x,1/2-y,z
_cell_length_a                   21.9566(10)
_cell_length_b                   6.6188(3)
_cell_length_c                   11.3669(5)
_cell_angle_alpha                90
_cell_angle_beta                 90
_cell_angle_gamma                90
_cell_volume                     1651.91
loop_
_atom_site_label
_atom_site_type_symbol
_atom_site_fract_x
_atom_site_fract_y
_atom_site_fract_z
O9 O 0.0405(6) -0.331(2) 0.2232(11)
O10 O 0.0792(6) -0.832(2) 1.0856(11)
Eu1 Eu 0.13148(3) -0.7500 0.46646(6)
N1 N 0.2448(6) -0.7500 0.4223(11)
C1 C 0.2625(7) -0.7500 0.3093(13)
C2 C 0.3226(7) -0.7500 0.2749(14)
H1 H 0.3336 -0.7500 0.1941
C3 C 0.3670(8) -0.7500 0.3631(14)
C4 C 0.3487(7) -0.7500 0.4815(15)
H2 H 0.3782 -0.7500 0.5427
C5 C 0.2870(7) -0.7500 0.5075(14)
C6 C 0.2641(7) -0.7500 0.6295(14)
C7 C 0.3016(6) -0.7500 0.7267(12)
H3 H 0.3445 -0.7500 0.7168
C8 C 0.2769(7) -0.7500 0.8392(13)
C9 C 0.2143(7) -0.7500 0.8502(15)
H4 H 0.1960 -0.7500 0.9259
C10 C 0.1784(7) -0.7500 0.7494(13)
N2 N 0.2031(5) -0.7500 0.6403(11)
C11 C 0.1093(8) -0.785(5) 0.7506(16)
O1 O 0.0839(5) -0.7500 0.6510(10)
O2 O 0.0829(6) -0.7500 0.8457(12)
C12 C 0.3205(7) -0.7500 0.9430(13)
O3 O 0.1623(4) -0.4165(14) 0.4806(7)
C13 C 0.4330(9) -0.7500 0.3346(17)
O4 O 0.4675(7) -0.7500 0.4264(13)
H5 H 0.5049(11) -0.7500 0.410(6)
O5 O 0.4515(7) -0.7500 0.2322(14)
C14 C 0.2102(7) -0.7500 0.2218(13)
O6 O 0.2222(5) -0.7500 0.1155(9)
O7 O 0.1567(4) -0.7500 0.2650(9)
O8 O 0.0438(4) -0.9614(16) 0.4052(11)
C11G C 0.1093(8) -0.715(5) 0.7506(16)
C12F C 0.1795(7) -0.2500 0.4430(13)
O3G O 0.1623(4) -1.0835(14) 0.4806(7)
O3F O 0.3377(4) -0.9165(14) 0.9806(7)
O3A O 0.3377(4) -0.5835(14) 0.9806(7)
O8G O 0.0438(4) -0.5386(16) 0.4052(11)
loop_
_geom_bond_atom_site_label_1
_geom_bond_atom_site_label_2
_geom_bond_site_symmetry_1
_geom_bond_site_symmetry_2
Eu1 N1 1_555 1_555
N1 C1 1_555 1_555
C1 C2 1_555 1_555
C2 H1 1_555 1_555
C3 C2 1_555 1_555
C4 C3 1_555 1_555
H2 C4 1_555 1_555
C5 N1 1_555 1_555
C6 C5 1_555 1_555
C7 C6 1_555 1_555
H3 C7 1_555 1_555
C8 C7 1_555 1_555
C9 C8 1_555 1_555
H4 C9 1_555 1_555
C10 C9 1_555 1_555
N2 Eu1 1_555 1_555
C11 C10 1_555 1_555
O1 Eu1 1_555 1_555
O2 C11 1_555 1_555
C12 C8 1_555 1_555
O3 Eu1 1_555 1_555
C13 C3 1_555 1_555
O4 C13 1_555 1_555
H5 O4 1_555 1_555
O5 C13 1_555 1_555
C14 C1 1_555 1_555
O6 C14 1_555 1_555
O7 Eu1 1_555 1_555
O8 Eu1 1_555 1_555
C11G C10 1_555 1_555
C12F O3 1_555 1_555
O3G Eu1 1_555 1_555
O3F C12 1_555 1_555
O3A C12 1_555 1_555
O8G Eu1 1_555 1_555
C4 C5 1_555 1_555
C6 N2 1_555 1_555
C10 N2 1_555 1_555
C11 O1 1_555 1_555
C11 C11G 1_555 1_555
O1 C11G 1_555 1_555
O2 C11G 1_555 1_555
C14 O7 1_555 1_555

#END
