
#######################################################################
#
#                 Cambridge Crystallographic Data Centre
#                                CCDC 
#
#######################################################################
#
# If this CIF has been generated from an entry in the Cambridge 
# Structural Database, then it will include bibliographic, chemical, 
# crystal, experimental, refinement or atomic coordinate data resulting 
# from the CCDC's data processing and validation procedures.
#
#######################################################################

data_BODXUO
_symmetry_cell_setting           monoclinic
_symmetry_space_group_name_H-M   'P 21/n'
_symmetry_Int_Tables_number      14
_space_group_name_Hall           '-P 2yn'
loop_
_symmetry_equiv_pos_site_id
_symmetry_equiv_pos_as_xyz
1 x,y,z
2 1/2-x,1/2+y,1/2-z
3 -x,-y,-z
4 1/2+x,1/2-y,1/2+z
_cell_length_a                   12.4333(12)
_cell_length_b                   13.2963(13)
_cell_length_c                   13.4678(13)
_cell_angle_alpha                90
_cell_angle_beta                 107.302(2)
_cell_angle_gamma                90
_cell_volume                     2125.71
loop_
_atom_site_label
_atom_site_type_symbol
_atom_site_fract_x
_atom_site_fract_y
_atom_site_fract_z
C1 C 0.8602(3) -0.0051(3) 0.5362(3)
H1 H 0.9031 0.0417 0.5133
C2 C 0.8953(3) -0.0982(3) 0.5707(3)
H2 H 0.9649 -0.1269 0.5756
C3 C 0.7252(3) -0.0736(2) 0.5778(2)
H3 H 0.6563 -0.0844 0.5900
C4 C 0.8032(3) -0.2439(2) 0.6383(3)
H4 H 0.7251 -0.2618 0.6284
H5 H 0.8415 -0.2439 0.7124
C5 C 0.8567(3) -0.3229(2) 0.5864(3)
H6 H 0.9378 -0.3139 0.6083
H7 H 0.8296 -0.3145 0.5115
C6 C 0.8283(3) -0.4286(2) 0.6151(3)
H8 H 0.8501 -0.4350 0.6902
H9 H 0.7476 -0.4390 0.5886
C7 C 0.8881(3) -0.5087(2) 0.5710(3)
H10 H 0.8729 -0.4976 0.4969
H11 H 0.9688 -0.5026 0.6032
C8 C 0.8290(3) -0.7543(2) 0.6582(3)
H12 H 0.8355 -0.8065 0.7055
C9 C 0.8852(3) -0.6663(3) 0.6787(3)
H13 H 0.9361 -0.6467 0.7414
C10 C 0.7784(3) -0.6684(2) 0.5198(3)
H14 H 0.7425 -0.6485 0.4518
C11 C 0.7032(3) 0.1201(2) 0.2780(2)
C12 C 0.7860(3) 0.1580(2) 0.2242(2)
C13 C 0.7889(3) 0.2589(2) 0.2055(2)
H15 H 0.7422 0.3019 0.2283
C14 C 0.8607(3) 0.2987(2) 0.1530(2)
H16 H 0.8600 0.3675 0.1406
C15 C 0.9325(3) 0.2377(2) 0.1195(2)
C16 C 1.0032(3) 0.2830(2) 0.0578(2)
C17 C 0.9364(2) 0.1324(2) 0.1423(2)
C18 C 0.8616(2) 0.0919(2) 0.1945(2)
C19 C 0.8694(3) -0.0119(2) 0.2198(2)
H17 H 0.8210 -0.0392 0.2537
C20 C 0.9464(3) -0.0725(2) 0.1954(3)
H18 H 0.9498 -0.1405 0.2122
C21 C 1.0198(3) -0.0325(2) 0.1454(3)
H19 H 1.0726 -0.0741 0.1297
C22 C 1.0157(3) 0.0669(2) 0.1191(2)
H20 H 1.0654 0.0919 0.0855
N1 N 0.7527(2) 0.01088(18) 0.53973(19)
N2 N 0.8080(2) -0.14176(18) 0.5969(2)
N3 N 0.7615(2) -0.75545(18) 0.55819(19)
N4 N 0.8522(2) -0.61152(18) 0.5884(2)
O1 O 0.52652(18) 0.04164(14) 0.37897(16)
O2 O 0.64808(18) 0.04152(15) 0.24672(16)
O3 O 0.69376(19) 0.17397(15) 0.35253(16)
O4 O 1.05886(17) 0.36336(14) 0.09325(16)
O5 O 1.00720(18) 0.24461(15) -0.02514(16)
Co1 Co 0.64866(3) 0.13565(3) 0.48175(3)
H21 H 0.560(2) 0.036(2) 0.3341(19)
H22 H 0.507(2) -0.0142(15) 0.394(2)
N3_2 N 0.7615(2) 0.24455(18) 0.55819(19)
O4C O 0.55886(17) 0.13664(14) 0.59325(16)
O5C O 0.50720(18) 0.25539(15) 0.47486(16)
Co1_2 Co 0.64866(3) -0.86435(3) 0.48175(3)
Co1C Co 1.14866(3) 0.36435(3) -0.01825(3)
loop_
_geom_bond_atom_site_label_1
_geom_bond_atom_site_label_2
_geom_bond_site_symmetry_1
_geom_bond_site_symmetry_2
C1 H1 1_555 1_555
C2 C1 1_555 1_555
H2 C2 1_555 1_555
C3 H3 1_555 1_555
C4 H4 1_555 1_555
H5 C4 1_555 1_555
C5 C4 1_555 1_555
H6 C5 1_555 1_555
H7 C5 1_555 1_555
C6 C5 1_555 1_555
H8 C6 1_555 1_555
H9 C6 1_555 1_555
C7 C6 1_555 1_555
H10 C7 1_555 1_555
H11 C7 1_555 1_555
C8 H12 1_555 1_555
C9 C8 1_555 1_555
H13 C9 1_555 1_555
C10 H14 1_555 1_555
C11 C12 1_555 1_555
C12 C13 1_555 1_555
C13 H15 1_555 1_555
C14 C13 1_555 1_555
H16 C14 1_555 1_555
C15 C14 1_555 1_555
C16 C15 1_555 1_555
C17 C15 1_555 1_555
C18 C12 1_555 1_555
C19 C18 1_555 1_555
H17 C19 1_555 1_555
C20 C19 1_555 1_555
H18 C20 1_555 1_555
C21 C20 1_555 1_555
H19 C21 1_555 1_555
C22 C17 1_555 1_555
H20 C22 1_555 1_555
N1 C1 1_555 1_555
N2 C2 1_555 1_555
N3 C8 1_555 1_555
N4 C7 1_555 1_555
O1 Co1 1_555 1_555
O2 C11 1_555 1_555
O3 C11 1_555 1_555
O4 C16 1_555 1_555
O5 C16 1_555 1_555
Co1 N1 1_555 1_555
H21 O1 1_555 1_555
H22 O1 1_555 1_555
N3_2 Co1 1_555 1_555
O4C Co1 1_555 1_555
O5C Co1 1_555 1_555
Co1_2 N3 1_555 1_555
Co1C O4 1_555 1_555
C3 N1 1_555 1_555
C3 N2 1_555 1_555
C4 N2 1_555 1_555
C9 N4 1_555 1_555
C10 N3 1_555 1_555
C10 N4 1_555 1_555
C17 C18 1_555 1_555
C21 C22 1_555 1_555
O3 Co1 1_555 1_555
O5 Co1C 1_555 1_555

#END
