
#######################################################################
#
#                 Cambridge Crystallographic Data Centre
#                                CCDC 
#
#######################################################################
#
# If this CIF has been generated from an entry in the Cambridge 
# Structural Database, then it will include bibliographic, chemical, 
# crystal, experimental, refinement or atomic coordinate data resulting 
# from the CCDC's data processing and validation procedures.
#
#######################################################################

data_BODYID
_symmetry_cell_setting           orthorhombic
_symmetry_space_group_name_H-M   'P c a 21'
_symmetry_Int_Tables_number      29
_space_group_name_Hall           'P 2c -2ac'
loop_
_symmetry_equiv_pos_site_id
_symmetry_equiv_pos_as_xyz
1 x,y,z
2 -x,-y,1/2+z
3 1/2+x,-y,z
4 1/2-x,y,1/2+z
_cell_length_a                   19.572(4)
_cell_length_b                   19.552(4)
_cell_length_c                   10.156(2)
_cell_angle_alpha                90
_cell_angle_beta                 90
_cell_angle_gamma                90
_cell_volume                     3886.41
loop_
_atom_site_label
_atom_site_type_symbol
_atom_site_fract_x
_atom_site_fract_y
_atom_site_fract_z
Cu1 Cu 0.52043(2) 0.95738(2) 0.14176(4)
Cu2 Cu 0.48673(2) 0.54363(2) 0.20991(4)
S1 S 0.37080(5) 1.00783(5) 0.13483(11)
S2 S 0.64189(5) 0.50815(5) 0.20604(13)
O1 O 0.42043(14) 0.94756(14) 0.1447(4)
O2 O 0.58543(14) 0.56278(15) 0.2115(4)
O3 O 0.39237(16) 0.55223(16) 0.1579(3)
N1 N 0.46627(17) 0.62890(17) 0.3240(3)
O4 O 0.51192(16) 0.99808(16) -0.0720(3)
N2 N 0.52985(17) 0.87025(16) 0.0273(3)
O5 O 0.49096(16) 0.50252(16) 0.4224(3)
O6 O 0.61729(15) 0.94479(15) 0.1735(3)
C1 C 0.51420(19) 0.8091(2) 0.1042(4)
C2 C 0.6709(3) 0.4996(3) 0.3714(6)
H1 H 0.6780 0.5442 0.4086
H2 H 0.7130 0.4745 0.3725
H3 H 0.6372 0.4756 0.4221
C3 C 0.4993(2) 0.5502(2) 0.5017(4)
C4 C 0.56500(19) 0.7692(2) 0.1603(4)
H4 H 0.6105 0.7814 0.1486
C5 C 0.5034(2) 0.6236(2) 0.4502(4)
H5 H 0.4835 0.6546 0.5141
H6 H 0.5509 0.6363 0.4375
C6 C 0.4932(2) 0.9510(2) -0.1460(4)
C7 C 0.48257(19) 0.6917(2) 0.2526(4)
C8 C 0.48558(19) 0.8789(2) -0.0912(4)
H7 H 0.4383 0.8707 -0.0676
H8 H 0.4985 0.8458 -0.1579
C9 C 0.43076(19) 0.7324(2) 0.1992(4)
H9 H 0.3853 0.7203 0.2122
C10 C 0.6026(2) 0.8729(2) -0.0142(4)
H10 H 0.6061 0.8984 -0.0959
H11 H 0.6187 0.8268 -0.0306
O7 O 0.70962(15) 0.89674(16) 0.0847(4)
O8 O 0.29285(15) 0.59639(16) 0.2230(4)
C11 C 0.44627(19) 0.79111(19) 0.1268(4)
H12 H 0.4113 0.8182 0.0935
C12 C 0.5495(2) 0.7118(2) 0.2329(4)
H13 H 0.5846 0.6860 0.2694
C13 C 0.3549(2) 0.5884(2) 0.2332(4)
C14 C 0.3914(2) 0.6207(2) 0.3506(4)
H14 H 0.3715 0.6651 0.3690
H15 H 0.3851 0.5921 0.4277
C15 C 0.6477(2) 0.9064(2) 0.0892(4)
C16 C 0.3344(3) 1.0029(3) -0.0244(5)
H16 H 0.3674 1.0173 -0.0885
H17 H 0.2950 1.0320 -0.0287
H18 H 0.3210 0.9565 -0.0421
C19 C 0.7136(3) 0.5535(3) 0.1451(6)
H25 H 0.7066 0.5644 0.0540
H26 H 0.7538 0.5258 0.1539
H27 H 0.7194 0.5950 0.1945
C22 C 0.2987(3) 0.9815(3) 0.2271(7)
H34 H 0.2835 0.9377 0.1962
H35 H 0.2627 1.0144 0.2167
H36 H 0.3109 0.9783 0.3185
O13 O 0.50617(16) 0.54423(14) 0.6247(3)
O14 O 0.47773(15) 0.95618(14) -0.2672(3)
Cu1A Cu 0.47957(2) 1.04262(2) -0.35824(4)
Cu2A Cu 0.51327(2) 0.45637(2) 0.70991(4)
O13A O 0.49383(16) 0.45577(14) 0.1247(3)
O14A O 0.52227(15) 1.04382(14) 0.2328(3)
S3 S 0.59035(6) 0.17971(6) 0.08589(12)
C17 C 0.5062(2) 0.1685(3) 0.0225(5)
H19 H 0.4751 0.1977 0.0694
H20 H 0.4925 0.1217 0.0334
H21 H 0.5056 0.1801 -0.0693
O11 O 0.6140(2) 0.24830(18) 0.0368(4)
C20 C 0.6314(3) 0.1172(3) -0.0129(6)
H28 H 0.6196 0.1244 -0.1036
H29 H 0.6168 0.0725 0.0139
H30 H 0.6800 0.1210 -0.0024
S4 S 0.44185(6) 0.32144(6) 0.26543(12)
O10 O 0.42248(18) 0.24926(16) 0.2925(4)
C18 C 0.5200(3) 0.3382(3) 0.3494(6)
H22 H 0.5162 0.3232 0.4391
H23 H 0.5293 0.3864 0.3473
H24 H 0.5565 0.3139 0.3069
C21 C 0.3890(3) 0.3734(3) 0.3672(7)
H31 H 0.3438 0.3753 0.3308
H32 H 0.4077 0.4188 0.3717
H33 H 0.3871 0.3542 0.4542
S5 S 0.31643(6) 0.77429(7) 0.88058(13)
O9 O 0.30493(18) 0.83205(19) 0.9750(4)
C23 C 0.2522(3) 0.7817(3) 0.7587(7)
H37 H 0.2085 0.7874 0.8004
H38 H 0.2516 0.7411 0.7056
H39 H 0.2615 0.8207 0.7041
C24 C 0.2826(3) 0.6982(3) 0.9521(6)
H40 H 0.3129 0.6823 1.0197
H41 H 0.2780 0.6637 0.8854
H42 H 0.2386 0.7078 0.9897
S6 S 0.73559(6) 0.73705(7) 0.45450(13)
O12 O 0.7095(2) 0.6710(2) 0.3966(5)
C25 C 0.6622(3) 0.7849(3) 0.5036(5)
H43 H 0.6322 0.7905 0.4295
H44 H 0.6763 0.8290 0.5352
H45 H 0.6386 0.7608 0.5724
C26 C 0.7587(3) 0.7905(3) 0.3184(5)
H46 H 0.8012 0.7750 0.2818
H47 H 0.7637 0.8369 0.3481
H48 H 0.7237 0.7883 0.2523
loop_
_geom_bond_atom_site_label_1
_geom_bond_atom_site_label_2
_geom_bond_site_symmetry_1
_geom_bond_site_symmetry_2
Cu1 O1 1_555 1_555
Cu2 O2 1_555 1_555
S1 O1 1_555 1_555
S2 O2 1_555 1_555
S3 C17 1_555 1_555
S4 O10 1_555 1_555
O3 Cu2 1_555 1_555
N1 Cu2 1_555 1_555
O4 Cu1 1_555 1_555
N2 Cu1 1_555 1_555
O5 Cu2 1_555 1_555
O6 Cu1 1_555 1_555
C1 N2 1_555 1_555
C2 S2 1_555 1_555
H1 C2 1_555 1_555
H2 C2 1_555 1_555
H3 C2 1_555 1_555
C3 O5 1_555 1_555
C4 C1 1_555 1_555
H4 C4 1_555 1_555
C5 N1 1_555 1_555
H5 C5 1_555 1_555
H6 C5 1_555 1_555
C6 O4 1_555 1_555
C7 N1 1_555 1_555
C8 N2 1_555 1_555
H7 C8 1_555 1_555
H8 C8 1_555 1_555
C9 C7 1_555 1_555
H9 C9 1_555 1_555
C10 N2 1_555 1_555
H10 C10 1_555 1_555
H11 C10 1_555 1_555
O7 C15 1_555 1_555
O8 C13 1_555 1_555
C11 C1 1_555 1_555
H12 C11 1_555 1_555
C12 C4 1_555 1_555
H13 C12 1_555 1_555
C13 O3 1_555 1_555
C14 N1 1_555 1_555
H14 C14 1_555 1_555
H15 C14 1_555 1_555
C15 O6 1_555 1_555
C16 S1 1_555 1_555
H16 C16 1_555 1_555
H17 C16 1_555 1_555
H18 C16 1_555 1_555
S5 O9 1_555 1_555
S6 O12 1_555 1_555
C17 H19 1_555 1_555
H20 C17 1_555 1_555
H21 C17 1_555 1_555
O11 S3 1_555 1_555
C18 S4 1_555 1_555
H22 C18 1_555 1_555
H23 C18 1_555 1_555
H24 C18 1_555 1_555
C19 S2 1_555 1_555
H25 C19 1_555 1_555
H26 C19 1_555 1_555
H27 C19 1_555 1_555
C20 S3 1_555 1_555
H28 C20 1_555 1_555
H29 C20 1_555 1_555
H30 C20 1_555 1_555
C21 S4 1_555 1_555
H31 C21 1_555 1_555
H32 C21 1_555 1_555
H33 C21 1_555 1_555
C22 S1 1_555 1_555
H34 C22 1_555 1_555
H35 C22 1_555 1_555
H36 C22 1_555 1_555
C23 S5 1_555 1_555
H37 C23 1_555 1_555
H38 C23 1_555 1_555
H39 C23 1_555 1_555
C24 S5 1_555 1_555
H40 C24 1_555 1_555
H41 C24 1_555 1_555
H42 C24 1_555 1_555
C25 S6 1_555 1_555
H43 C25 1_555 1_555
H44 C25 1_555 1_555
H45 C25 1_555 1_555
C26 S6 1_555 1_555
H46 C26 1_555 1_555
H47 C26 1_555 1_555
H48 C26 1_555 1_555
O13 C3 1_555 1_555
O14 C6 1_555 1_555
Cu1A O14 1_555 1_555
Cu2A O13 1_555 1_555
O13A Cu2 1_555 1_555
O14A Cu1 1_555 1_555
C3 C5 1_555 1_555
C6 C8 1_555 1_555
C7 C12 1_555 1_555
C9 C11 1_555 1_555
C10 C15 1_555 1_555
C13 C14 1_555 1_555

#END
