
#######################################################################
#
#                 Cambridge Crystallographic Data Centre
#                                CCDC 
#
#######################################################################
#
# If this CIF has been generated from an entry in the Cambridge 
# Structural Database, then it will include bibliographic, chemical, 
# crystal, experimental, refinement or atomic coordinate data resulting 
# from the CCDC's data processing and validation procedures.
#
#######################################################################

data_BODYOJ
_symmetry_cell_setting           monoclinic
_symmetry_space_group_name_H-M   'C c'
_symmetry_Int_Tables_number      9
_space_group_name_Hall           'C -2yc'
loop_
_symmetry_equiv_pos_site_id
_symmetry_equiv_pos_as_xyz
1 x,y,z
2 x,-y,1/2+z
3 1/2+x,1/2+y,z
4 1/2+x,1/2-y,1/2+z
_cell_length_a                   23.600(3)
_cell_length_b                   10.2073(12)
_cell_length_c                   13.4027(16)
_cell_angle_alpha                90
_cell_angle_beta                 92.586(2)
_cell_angle_gamma                90
_cell_volume                     3225.32
loop_
_atom_site_label
_atom_site_type_symbol
_atom_site_fract_x
_atom_site_fract_y
_atom_site_fract_z
Zn1 Zn 0.388836(16) 0.53018(3) 0.25491(2)
O1 O 0.59824(16) 0.5887(5) 0.2030(3)
O2 O 0.6569(2) 0.5870(7) 0.5332(3)
O3 O 0.11076(17) 0.7314(5) 0.3862(3)
O4 O 0.18351(19) 0.4919(6) 0.1326(3)
O5 O 0.38384(13) 0.3804(2) 0.1634(2)
O6 O 0.36645(16) 0.2679(3) 0.3004(2)
O7 O 0.39491(19) -0.2115(3) 0.3031(3)
O8 O 0.39642(13) -0.3220(2) 0.1624(2)
N1 N 0.45672(14) 0.5057(3) 0.3557(3)
N2 N 0.63022(15) 0.5893(4) 0.2823(3)
N3 N 0.65685(17) 0.5863(5) 0.4389(3)
N4 N 0.31666(13) 0.5631(3) 0.3321(2)
N5 N 0.11430(15) 0.6576(4) 0.3106(3)
N6 N 0.14886(17) 0.5458(4) 0.1881(3)
C1 C 0.45125(17) 0.4353(4) 0.4395(3)
H1 H 0.4161 0.3990 0.4518
C2 C 0.49581(19) 0.4148(5) 0.5080(3)
H2 H 0.4902 0.3686 0.5666
C3 C 0.54827(18) 0.4632(4) 0.4889(3)
H3 H 0.5787 0.4496 0.5342
C4 C 0.55584(17) 0.5330(4) 0.4009(3)
C5 C 0.50790(17) 0.5549(4) 0.3374(3)
H4 H 0.5118 0.6055 0.2804
C6 C 0.61301(17) 0.5732(4) 0.3748(3)
C7 C 0.7099(2) 0.6266(5) 0.3864(4)
C8 C 0.7614(2) 0.5590(7) 0.4353(5)
H5 H 0.7564 0.4657 0.4317
H6 H 0.7657 0.5853 0.5040
H7 H 0.7947 0.5832 0.4011
C9 C 0.7139(3) 0.7747(7) 0.3979(6)
H8 H 0.7499 0.8043 0.3762
H9 H 0.7102 0.7978 0.4668
H10 H 0.6840 0.8154 0.3580
C10 C 0.69410(19) 0.5854(5) 0.2805(4)
C11 C 0.7101(3) 0.4389(6) 0.2590(6)
H11 H 0.6984 0.3844 0.3127
H12 H 0.7504 0.4317 0.2536
H13 H 0.6913 0.4110 0.1976
C12 C 0.7142(2) 0.6728(6) 0.1964(5)
H14 H 0.6972 0.6440 0.1338
H15 H 0.7548 0.6675 0.1941
H16 H 0.7033 0.7618 0.2085
C13 C 0.31968(17) 0.5874(4) 0.4298(3)
H17 H 0.3549 0.5837 0.4637
C14 C 0.27281(18) 0.6177(5) 0.4827(3)
H18 H 0.2764 0.6321 0.5512
C15 C 0.22096(18) 0.6265(4) 0.4336(3)
H19 H 0.1889 0.6484 0.4679
C16 C 0.21694(16) 0.6020(4) 0.3305(3)
C17 C 0.26605(16) 0.5714(4) 0.2827(3)
H20 H 0.2639 0.5560 0.2142
C18 C 0.16112(17) 0.6024(4) 0.2764(3)
C19 C 0.0870(2) 0.5534(5) 0.1580(4)
C20 C 0.0842(5) 0.6246(11) 0.0580(8)
H21 H 0.0494 0.6025 0.0219
H22 H 0.1158 0.5988 0.0198
H23 H 0.0856 0.7175 0.0691
C21 C 0.0656(4) 0.4235(10) 0.1311(9)
H24 H 0.0623 0.3720 0.1905
H25 H 0.0913 0.3815 0.0879
H26 H 0.0290 0.4316 0.0973
C22 C 0.0628(2) 0.6264(6) 0.2445(4)
C23 C 0.0215(4) 0.5602(11) 0.3060(8)
H27 H 0.0353 0.4744 0.3237
H28 H -0.0141 0.5527 0.2690
H29 H 0.0164 0.6102 0.3656
C24 C 0.0365(4) 0.7587(9) 0.2138(7)
H30 H 0.0021 0.7442 0.1744
H31 H 0.0628 0.8070 0.1753
H32 H 0.0283 0.8077 0.2725
C25 C 0.37692(17) 0.2722(4) 0.2112(3)
C26 C 0.38441(15) 0.1481(3) 0.1529(3)
C27 C 0.39771(17) 0.1488(3) 0.0525(3)
H33 H 0.4009 0.2282 0.0192
C28 C 0.4063(2) 0.0321(4) 0.0016(3)
H34 H 0.4141 0.0334 -0.0658
C29 C 0.40297(17) -0.0864(3) 0.0521(3)
H35 H 0.4084 -0.1645 0.0181
C30 C 0.39171(15) -0.0893(3) 0.1530(3)
C31 C 0.38173(15) 0.0287(3) 0.2022(3)
H36 H 0.3731 0.0272 0.2692
C32 C 0.39419(19) -0.2154(4) 0.2123(4)
Zn1_2 Zn 0.388836(16) -0.46982(3) 0.25491(2)
O8_2 O 0.39642(13) 0.6780(2) 0.1624(2)
loop_
_geom_bond_atom_site_label_1
_geom_bond_atom_site_label_2
_geom_bond_site_symmetry_1
_geom_bond_site_symmetry_2
Zn1 O5 1_555 1_555
O1 N2 1_555 1_555
O2 N3 1_555 1_555
O3 N5 1_555 1_555
O4 N6 1_555 1_555
O5 C25 1_555 1_555
O6 C25 1_555 1_555
O7 C32 1_555 1_555
O8 C32 1_555 1_555
N1 Zn1 1_555 1_555
N2 C6 1_555 1_555
N3 C6 1_555 1_555
N4 Zn1 1_555 1_555
N5 C18 1_555 1_555
N6 C18 1_555 1_555
C1 N1 1_555 1_555
H1 C1 1_555 1_555
C2 C1 1_555 1_555
H2 C2 1_555 1_555
C3 C2 1_555 1_555
H3 C3 1_555 1_555
C4 C3 1_555 1_555
C5 N1 1_555 1_555
H4 C5 1_555 1_555
C6 C4 1_555 1_555
C7 N3 1_555 1_555
C8 C7 1_555 1_555
H5 C8 1_555 1_555
H6 C8 1_555 1_555
H7 C8 1_555 1_555
C9 C7 1_555 1_555
H8 C9 1_555 1_555
H9 C9 1_555 1_555
H10 C9 1_555 1_555
C10 N2 1_555 1_555
C11 C10 1_555 1_555
H11 C11 1_555 1_555
H12 C11 1_555 1_555
H13 C11 1_555 1_555
C12 C10 1_555 1_555
H14 C12 1_555 1_555
H15 C12 1_555 1_555
H16 C12 1_555 1_555
C13 N4 1_555 1_555
H17 C13 1_555 1_555
C14 C13 1_555 1_555
H18 C14 1_555 1_555
C15 C14 1_555 1_555
H19 C15 1_555 1_555
C16 C15 1_555 1_555
C17 N4 1_555 1_555
H20 C17 1_555 1_555
C18 C16 1_555 1_555
C19 N6 1_555 1_555
C20 C19 1_555 1_555
H21 C20 1_555 1_555
H22 C20 1_555 1_555
H23 C20 1_555 1_555
C21 C19 1_555 1_555
H24 C21 1_555 1_555
H25 C21 1_555 1_555
H26 C21 1_555 1_555
C22 N5 1_555 1_555
C23 C22 1_555 1_555
H27 C23 1_555 1_555
H28 C23 1_555 1_555
H29 C23 1_555 1_555
C24 C22 1_555 1_555
H30 C24 1_555 1_555
H31 C24 1_555 1_555
H32 C24 1_555 1_555
C25 C26 1_555 1_555
C26 C27 1_555 1_555
C27 H33 1_555 1_555
C28 C27 1_555 1_555
H34 C28 1_555 1_555
C29 C28 1_555 1_555
H35 C29 1_555 1_555
C30 C29 1_555 1_555
C31 C26 1_555 1_555
H36 C31 1_555 1_555
C32 C30 1_555 1_555
Zn1_2 O8 1_555 1_555
O8_2 Zn1 1_555 1_555
C4 C5 1_555 1_555
C7 C10 1_555 1_555
C16 C17 1_555 1_555
C19 C22 1_555 1_555
C30 C31 1_555 1_555

#END
