
#######################################################################
#
#                 Cambridge Crystallographic Data Centre
#                                CCDC 
#
#######################################################################
#
# If this CIF has been generated from an entry in the Cambridge 
# Structural Database, then it will include bibliographic, chemical, 
# crystal, experimental, refinement or atomic coordinate data resulting 
# from the CCDC's data processing and validation procedures.
#
#######################################################################

data_BODZEZ
_symmetry_cell_setting           triclinic
_symmetry_space_group_name_H-M   'P -1'
_symmetry_Int_Tables_number      2
_space_group_name_Hall           '-P 1'
loop_
_symmetry_equiv_pos_site_id
_symmetry_equiv_pos_as_xyz
1 x,y,z
2 -x,-y,-z
_cell_length_a                   12.80(1)
_cell_length_b                   16.65(1)
_cell_length_c                   8.659(9)
_cell_angle_alpha                104.6(1)
_cell_angle_beta                 93.7(2)
_cell_angle_gamma                107.5(1)
_cell_volume                     1683.36
loop_
_atom_site_label
_atom_site_type_symbol
_atom_site_fract_x
_atom_site_fract_y
_atom_site_fract_z
Nd1 Nd 0.53520 0.09674 0.37241
Nd2 Nd 0.52037 0.38004 0.44354
S1 S 0.73080 0.30460 0.95640
S2 S 0.94660 0.13550 0.22490
S3 S 0.29180 0.19490 -0.14490
S4 S 0.12460 -0.07450 0.31420
S5 S 0.21690 0.36110 0.79390
S6 S 0.09420 0.39600 0.15060
O1 O 0.55940 0.26180 0.54560
O2 O 0.58880 0.16710 0.66390
O3 O 0.66190 0.07510 0.16380
O4 O 0.72770 0.19260 0.36760
O5 O 0.48220 0.15550 0.17750
O6 O 0.44080 0.27420 0.17740
O7 O 0.39180 0.00230 0.52410
O8 O 0.34960 0.10000 0.43600
O9 O 0.46760 0.42000 0.70770
O10 O 0.42880 0.54380 0.76130
O11 O 0.38360 0.45030 0.41930
O12 O 0.30060 0.53750 0.35360
O13 O 0.68790 0.34910 0.33380
O14 O 0.33300 0.26870 0.46260
O15 O 0.41620 -0.04120 0.17520
C1 C 0.58720 0.24210 0.67090
C2 C 0.61880 0.31550 0.83150
C3 C 0.83680 0.32880 0.83400
C4 C 0.73510 0.14650 0.22660
C5 C 0.83870 0.17920 0.15650
C6 C 0.99590 0.20440 0.43160
C7 C 0.43490 0.19970 0.11560
C8 C 0.38100 0.15140 -0.05940
C9 C 0.17840 0.16540 -0.03930
C10 C 0.32040 0.03550 0.49390
C11 C 0.20150 -0.00240 0.51150
C12 C 0.12470 -0.01080 0.20360
C13 C 0.41990 0.47070 0.78060
C14 C 0.34780 0.43780 0.90360
C15 C 0.15070 0.43800 0.74870
C16 C 0.30330 0.46260 0.34140
C17 C 0.21390 0.38100 0.23920
C18 C 0.03830 0.44170 0.32430
H1 H 0.71600 0.30000 0.36800
H2 H 0.38600 0.22000 0.46500
H3 H 0.38500 -0.08900 0.18200
H4 H 0.39500 -0.06600 0.05300
H5 H 0.55700 0.28900 0.87200
H6 H 0.61000 0.39000 0.86300
H7 H 0.77100 0.28800 0.72800
H8 H 0.84500 0.22800 0.14200
H9 H 0.80000 0.17300 0.02700
H10 H 0.33600 0.10600 -0.04200
H11 H 0.18700 0.10300 -0.01000
H12 H 0.16000 -0.01400 0.59400
H13 H 0.19600 0.01200 0.16800
H14 H 0.06000 0.00900 0.18600
H15 H 0.33700 0.48000 1.01700
H16 H 0.41100 0.40400 0.94000
H17 H 0.20600 0.49100 0.69200
H18 H 0.22600 0.41200 0.12300
H19 H 0.19100 0.35300 0.31300
O7A O 0.60820 -0.00230 0.47590
O11A O 0.61640 0.54970 0.58070
Nd1A Nd 0.46480 -0.09674 0.62759
Nd2A Nd 0.47963 0.61996 0.55646
O10A O 0.57120 0.45620 0.23870
O12A O 0.69940 0.46250 0.64640
loop_
_geom_bond_atom_site_label_1
_geom_bond_atom_site_label_2
_geom_bond_site_symmetry_1
_geom_bond_site_symmetry_2
Nd1 O1 1_555 1_555
Nd2 O1 1_555 1_555
S1 C2 1_555 1_555
S2 C5 1_555 1_555
S3 C8 1_555 1_555
S4 C11 1_555 1_555
S5 C14 1_555 1_555
S6 C17 1_555 1_555
O1 C1 1_555 1_555
O2 Nd1 1_555 1_555
O3 Nd1 1_555 1_555
O4 Nd1 1_555 1_555
O5 Nd1 1_555 1_555
O6 Nd2 1_555 1_555
O7 Nd1 1_555 1_555
O8 Nd1 1_555 1_555
O9 Nd2 1_555 1_555
O10 C13 1_555 1_555
O11 Nd2 1_555 1_555
O12 C16 1_555 1_555
O13 Nd2 1_555 1_555
O14 Nd2 1_555 1_555
O15 Nd1 1_555 1_555
C1 O2 1_555 1_555
C2 C1 1_555 1_555
C3 S1 1_555 1_555
C4 O3 1_555 1_555
C5 C4 1_555 1_555
C6 S2 1_555 1_555
C7 O5 1_555 1_555
C8 C7 1_555 1_555
C9 S3 1_555 1_555
C10 O7 1_555 1_555
C11 C10 1_555 1_555
C12 S4 1_555 1_555
C13 O9 1_555 1_555
C14 C13 1_555 1_555
C15 S5 1_555 1_555
C16 O11 1_555 1_555
C17 C16 1_555 1_555
C18 S6 1_555 1_555
H1 O13 1_555 1_555
H2 O14 1_555 1_555
H3 O15 1_555 1_555
H4 O15 1_555 1_555
H5 C2 1_555 1_555
H6 C2 1_555 1_555
H7 C3 1_555 1_555
H8 C5 1_555 1_555
H9 C5 1_555 1_555
H10 C8 1_555 1_555
H11 C9 1_555 1_555
H12 C11 1_555 1_555
H13 C12 1_555 1_555
H14 C12 1_555 1_555
H15 C14 1_555 1_555
H16 C14 1_555 1_555
H17 C15 1_555 1_555
H18 C17 1_555 1_555
H19 C17 1_555 1_555
O7A Nd1 1_555 1_555
O11A Nd2 1_555 1_555
Nd1A O7 1_555 1_555
Nd2A O10 1_555 1_555
O10A Nd2 1_555 1_555
O12A Nd2 1_555 1_555
O4 C4 1_555 1_555
O6 C7 1_555 1_555
O8 C10 1_555 1_555
O11 Nd2A 1_555 1_555
O12 Nd2A 1_555 1_555
O7A Nd1A 1_555 1_555
O11A Nd2A 1_555 1_555

#END
