
#######################################################################
#
#                 Cambridge Crystallographic Data Centre
#                                CCDC 
#
#######################################################################
#
# If this CIF has been generated from an entry in the Cambridge 
# Structural Database, then it will include bibliographic, chemical, 
# crystal, experimental, refinement or atomic coordinate data resulting 
# from the CCDC's data processing and validation procedures.
#
#######################################################################

data_BOFBEE
_symmetry_cell_setting           orthorhombic
_symmetry_space_group_name_H-M   'P b c n'
_symmetry_Int_Tables_number      60
_space_group_name_Hall           '-P 2n 2ab'
loop_
_symmetry_equiv_pos_site_id
_symmetry_equiv_pos_as_xyz
1 x,y,z
2 1/2-x,1/2-y,1/2+z
3 -x,y,1/2-z
4 1/2+x,1/2-y,-z
5 -x,-y,-z
6 1/2+x,1/2+y,1/2-z
7 x,-y,1/2+z
8 1/2-x,1/2+y,z
_cell_length_a                   24.588(5)
_cell_length_b                   10.377(2)
_cell_length_c                   13.022(3)
_cell_angle_alpha                90
_cell_angle_beta                 90
_cell_angle_gamma                90
_cell_volume                     3322.56
loop_
_atom_site_label
_atom_site_type_symbol
_atom_site_fract_x
_atom_site_fract_y
_atom_site_fract_z
Cu1 Cu 0.23076(3) 0.09786(7) 0.68634(6)
Br1 Br 0.40923(3) 0.20721(9) 0.80819(7)
Br2 Br 0.48560(4) 0.15561(12) 0.40016(9)
O1 O 0.30805(18) 0.0957(4) 0.7139(3)
N1 N 0.2443(2) -0.0009(5) 0.5562(4)
N2 N 0.1487(2) 0.1231(5) 0.6539(4)
N3 N 0.2259(3) 0.2490(6) 0.7826(4)
N4 N 0.2578(2) 0.3364(6) 0.7833(4)
N5 N 0.2874(2) 0.4228(5) 0.7877(4)
C1 C 0.3375(3) 0.0750(6) 0.5398(5)
C2 C 0.3448(3) 0.1090(6) 0.6436(5)
C3 C 0.3969(3) 0.1591(7) 0.6691(6)
C4 C 0.4373(3) 0.1730(7) 0.5980(7)
H1 H 0.4710 0.2054 0.6178
C5 C 0.4285(3) 0.1398(7) 0.4987(7)
C6 C 0.3803(3) 0.0902(7) 0.4682(6)
H2 H 0.3752 0.0660 0.4001
C7 C 0.2886(3) 0.0089(6) 0.5058(5)
H3 H 0.2898 -0.0298 0.4414
C8 C 0.2037(3) -0.0923(7) 0.5183(6)
H4 H 0.2014 -0.1641 0.5658
H5 H 0.2157 -0.1260 0.4527
C9 C 0.1482(3) -0.0351(8) 0.5054(6)
H6 H 0.1248 -0.0992 0.4743
H7 H 0.1508 0.0368 0.4581
C10 C 0.1221(3) 0.0112(8) 0.6025(6)
H8 H 0.0847 0.0346 0.5871
H9 H 0.1210 -0.0599 0.6507
C11 C 0.1167(3) 0.1471(8) 0.7484(6)
H10 H 0.0796 0.1646 0.7304
H11 H 0.1316 0.2199 0.7842
H12 H 0.1182 0.0725 0.7918
C12 C 0.1463(3) 0.2408(8) 0.5864(7)
H13 H 0.1702 0.2294 0.5287
H14 H 0.1575 0.3150 0.6250
H15 H 0.1098 0.2531 0.5623
Cu1G Cu 0.26924(3) 0.59786(7) 0.68634(6)
N5G N 0.2126(2) -0.0772(5) 0.7877(4)
loop_
_geom_bond_atom_site_label_1
_geom_bond_atom_site_label_2
_geom_bond_site_symmetry_1
_geom_bond_site_symmetry_2
Cu1 O1 1_555 1_555
Br1 C3 1_555 1_555
Br2 C5 1_555 1_555
O1 C2 1_555 1_555
N1 Cu1 1_555 1_555
N2 Cu1 1_555 1_555
N3 Cu1 1_555 1_555
N4 N3 1_555 1_555
N5 N4 1_555 1_555
C1 C2 1_555 1_555
C2 C3 1_555 1_555
C3 C4 1_555 1_555
C4 H1 1_555 1_555
C5 C4 1_555 1_555
C6 C1 1_555 1_555
H2 C6 1_555 1_555
C7 N1 1_555 1_555
H3 C7 1_555 1_555
C8 N1 1_555 1_555
H4 C8 1_555 1_555
H5 C8 1_555 1_555
C9 C8 1_555 1_555
H6 C9 1_555 1_555
H7 C9 1_555 1_555
C10 N2 1_555 1_555
H8 C10 1_555 1_555
H9 C10 1_555 1_555
C11 N2 1_555 1_555
H10 C11 1_555 1_555
H11 C11 1_555 1_555
H12 C11 1_555 1_555
C12 N2 1_555 1_555
H13 C12 1_555 1_555
H14 C12 1_555 1_555
H15 C12 1_555 1_555
Cu1G N5 1_555 1_555
N5G Cu1 1_555 1_555
C1 C7 1_555 1_555
C5 C6 1_555 1_555
C9 C10 1_555 1_555

#END
