
#######################################################################
#
#                 Cambridge Crystallographic Data Centre
#                                CCDC 
#
#######################################################################
#
# If this CIF has been generated from an entry in the Cambridge 
# Structural Database, then it will include bibliographic, chemical, 
# crystal, experimental, refinement or atomic coordinate data resulting 
# from the CCDC's data processing and validation procedures.
#
#######################################################################

data_BOFBII
_symmetry_cell_setting           monoclinic
_symmetry_space_group_name_H-M   'C 2/m'
_symmetry_Int_Tables_number      12
_space_group_name_Hall           '-C 2y'
loop_
_symmetry_equiv_pos_site_id
_symmetry_equiv_pos_as_xyz
1 x,y,z
2 1/2+x,1/2+y,z
3 -x,y,-z
4 1/2-x,1/2+y,-z
5 -x,-y,-z
6 1/2-x,1/2-y,-z
7 x,-y,z
8 1/2+x,1/2-y,z
_cell_length_a                   12.020(5)
_cell_length_b                   11.190(8)
_cell_length_c                   11.067(10)
_cell_angle_alpha                90
_cell_angle_beta                 121.78(2)
_cell_angle_gamma                90
_cell_volume                     1265.38
loop_
_atom_site_label
_atom_site_type_symbol
_atom_site_fract_x
_atom_site_fract_y
_atom_site_fract_z
Na1 Na 0.5000 0.0000 0.5000
C4 C 0.029(2) 0.3918(8) 0.0632(17)
H1 H 0.0490 0.3187 0.1143
N1 N 0.0656(15) 0.5000 0.1346(14)
H3 H 0.1139 0.5000 0.2281
C4B C -0.029(2) 0.3918(8) -0.0632(17)
C4D C -0.029(2) 0.6082(8) -0.0632(17)
C4F C 0.029(2) 0.6082(8) 0.0632(17)
H1B H -0.0490 0.3187 -0.1143
H1F H 0.0490 0.6813 0.1143
H1D H -0.0490 0.6813 -0.1143
N1D N -0.0656(15) 0.5000 -0.1346(14)
H3D H -0.1139 0.5000 -0.2281
O6 O 0.3186(5) 0.2265(4) 0.1532(6)
H4 H 0.271(6) 0.278(5) 0.161(10)
H5 H 0.397(3) 0.250(7) 0.194(9)
Bi1 Bi 0.143179(14) 0.0000 0.339872(16)
O1 O 0.0340(3) 0.1196(2) 0.1142(3)
O2 O 0.3386(2) 0.1292(2) 0.4939(3)
O3 O -0.0641(3) 0.0000 0.3155(4)
O4 O 0.4097(2) 0.2934(2) 0.6252(3)
O5 O -0.1683(3) 0.0000 0.4312(4)
C1 C 0.0000 0.0686(4) 0.0000
C2 C 0.3219(3) 0.2277(3) 0.5340(3)
C3 C -0.0657(4) 0.0000 0.4278(5)
O7 O 0.3211(4) 0.0000 0.2573(5)
H6 H 0.327(6) 0.063(3) 0.220(6)
Bi1D Bi -0.143179(14) 0.0000 -0.339872(16)
Bi1E Bi 0.356821(14) 0.5000 0.660128(16)
Bi1D_2 Bi -0.143179(14) 0.0000 0.660128(16)
Bi1E_2 Bi 0.356821(14) -0.5000 0.660128(16)
O1B O -0.0340(3) 0.1196(2) -0.1142(3)
O1F O 0.0340(3) -0.1196(2) 0.1142(3)
O1D O -0.0340(3) -0.1196(2) -0.1142(3)
O2E O 0.1614(2) 0.3708(2) 0.5061(3)
O2F O 0.3386(2) -0.1292(2) 0.4939(3)
O2C O 0.1614(2) -0.3708(2) 0.5061(3)
O2D O -0.3386(2) -0.1292(2) -0.4939(3)
O2B O -0.3386(2) 0.1292(2) -0.4939(3)
O3D O 0.0641(3) 0.0000 0.6845(4)
O3D_2 O 0.0641(3) 0.0000 -0.3155(4)
O4E O 0.0903(2) 0.2066(2) 0.3748(3)
O4F O 0.4097(2) -0.2934(2) 0.6252(3)
O4C O 0.0903(2) -0.2066(2) 0.3748(3)
O4A O -0.0903(2) -0.2066(2) -0.3748(3)
O4G O -0.0903(2) 0.2066(2) -0.3748(3)
O5D O 0.1683(3) 0.0000 0.5688(4)
O5_2 O -0.1683(3) 0.0000 -0.5688(4)
C1F C 0.0000 -0.0686(4) 0.0000
C2E C 0.1781(3) 0.2723(3) 0.4660(3)
C2F C 0.3219(3) -0.2277(3) 0.5340(3)
C2C C 0.1781(3) -0.2723(3) 0.4660(3)
C3D C 0.0657(4) 0.0000 0.5722(5)
O7D O -0.3211(4) 0.0000 -0.2573(5)
H6F H 0.327(6) -0.063(3) 0.220(6)
H6B H -0.327(6) 0.063(3) -0.220(6)
H6D H -0.327(6) -0.063(3) -0.220(6)
C5? C 0.4344(15) 0.0000 0.8654(14)
H2? H 0.3822 0.0000 0.7645
loop_
_geom_bond_atom_site_label_1
_geom_bond_atom_site_label_2
_geom_bond_site_symmetry_1
_geom_bond_site_symmetry_2
Bi1 O1 1_555 1_555
O1 C1 1_555 1_555
O2 Bi1 1_555 1_555
O3 Bi1 1_555 1_555
O4 C2 1_555 1_555
O5 C3 1_555 1_555
C1 O1B 1_555 1_555
C2 O2 1_555 1_555
C3 O3 1_555 1_555
C4 H1 1_555 1_555
N1 C4 1_555 1_555
H3 N1 1_555 1_555
O6 H4 1_555 1_555
H5 O6 1_555 1_555
O7 Bi1 1_555 1_555
H6 O7 1_555 1_555
Bi1D O1B 1_555 1_555
Bi1E O4 1_555 1_555
Bi1D_2 O5 1_555 1_555
Bi1E_2 O2C 1_555 1_555
O1F Bi1 1_555 1_555
O1D Bi1D 1_555 1_555
O2E Bi1E 1_555 1_555
O2F Bi1 1_555 1_555
O2C C2C 1_555 1_555
O2D Bi1D 1_555 1_555
O2B Bi1D 1_555 1_555
O3D Bi1D_2 1_555 1_555
O3D_2 Bi1D 1_555 1_555
O4E Bi1 1_555 1_555
O4F Bi1E_2 1_555 1_555
O4C Bi1 1_555 1_555
O4A Bi1D 1_555 1_555
O4G Bi1D 1_555 1_555
O5D Bi1 1_555 1_555
O5_2 Bi1D 1_555 1_555
C1F C1 1_555 1_555
C2E C2 1_555 1_555
C2F O2F 1_555 1_555
C2C O4C 1_555 1_555
C3D C3 1_555 1_555
C4B C4 1_555 1_555
C4D C4F 1_555 1_555
C4F N1 1_555 1_555
H1B C4B 1_555 1_555
H1F C4F 1_555 1_555
H1D C4D 1_555 1_555
N1D C4B 1_555 1_555
H3D N1D 1_555 1_555
O7D Bi1D 1_555 1_555
H6F O7 1_555 1_555
H6B O7D 1_555 1_555
H6D O7D 1_555 1_555
O1F C1F 1_555 1_555
O1D C1F 1_555 1_555
O2E C2E 1_555 1_555
O3D C3D 1_555 1_555
O4E C2E 1_555 1_555
O4F C2F 1_555 1_555
O5D C3D 1_555 1_555
C2F C2C 1_555 1_555
C4D N1D 1_555 1_555

#END
