
#######################################################################
#
#                 Cambridge Crystallographic Data Centre
#                                CCDC 
#
#######################################################################
#
# If this CIF has been generated from an entry in the Cambridge 
# Structural Database, then it will include bibliographic, chemical, 
# crystal, experimental, refinement or atomic coordinate data resulting 
# from the CCDC's data processing and validation procedures.
#
#######################################################################

data_BOFDUX
_symmetry_cell_setting           monoclinic
_symmetry_space_group_name_H-M   'C 2/c'
_symmetry_Int_Tables_number      15
_space_group_name_Hall           '-C 2yn'
loop_
_symmetry_equiv_pos_site_id
_symmetry_equiv_pos_as_xyz
1 x,y,z
2 -x,y,1/2-z
3 1/2+x,1/2+y,z
4 1/2-x,1/2+y,1/2-z
5 -x,-y,-z
6 x,-y,1/2+z
7 1/2-x,1/2-y,-z
8 1/2+x,1/2-y,1/2+z
_cell_length_a                   23.986(5)
_cell_length_b                   13.948(3)
_cell_length_c                   21.765(4)
_cell_angle_alpha                90
_cell_angle_beta                 109.18(3)
_cell_angle_gamma                90
_cell_volume                     6877.43
loop_
_atom_site_label
_atom_site_type_symbol
_atom_site_fract_x
_atom_site_fract_y
_atom_site_fract_z
Cu1 Cu 0.30621(2) 0.97432(3) 0.15313(2)
Cu2 Cu 0.32203(2) 0.84167(4) 0.25346(2)
I1 I 0.223166(12) 0.85346(2) 0.154108(13)
I2 I 0.365252(12) 1.00556(2) 0.281956(13)
N1 N 0.27997(13) 1.1248(2) 0.12406(14)
P1 P 0.35353(5) 0.97837(7) 0.07982(5)
P2 P 0.15909(5) 1.19683(8) 0.20183(5)
C1 C 0.33206(17) 0.8939(3) 0.00852(18)
C2 C 0.34420(19) 0.9301(3) -0.05271(18)
H1 H 0.3282 0.8843 -0.0883
H2 H 0.3869 0.9364 -0.0435
H3 H 0.3253 0.9927 -0.0653
C3 C 0.26538(18) 0.8795(3) -0.00848(19)
H4 H 0.2450 0.9405 -0.0230
H5 H 0.2567 0.8568 0.0300
H6 H 0.2517 0.8319 -0.0434
C4 C 0.36213(19) 0.7970(3) 0.02959(19)
H7 H 0.3556 0.7761 0.0697
H8 H 0.4046 0.8034 0.0374
H9 H 0.3455 0.7496 -0.0048
C5 C 0.43546(17) 0.9947(3) 0.11386(18)
C6 C 0.46039(17) 0.9122(3) 0.16109(18)
H10 H 0.4519 0.8512 0.1375
H11 H 0.4421 0.9126 0.1953
H12 H 0.5032 0.9199 0.1808
C7 C 0.46841(18) 1.0009(3) 0.06399(19)
H13 H 0.5101 1.0159 0.0866
H14 H 0.4507 1.0514 0.0323
H15 H 0.4654 0.9393 0.0415
C8 C 0.44672(18) 1.0880(3) 0.15274(19)
H16 H 0.4245 1.0875 0.1833
H17 H 0.4339 1.1424 0.1229
H18 H 0.4890 1.0940 0.1769
C9 C 0.32498(17) 1.0944(3) 0.04107(17)
H19 H 0.3555 1.1248 0.0261
H20 H 0.2900 1.0822 0.0022
C10 C 0.30802(16) 1.1628(3) 0.08479(18)
C11 C 0.32080(18) 1.2586(3) 0.08519(19)
H21 H 0.3406 1.2832 0.0573
C12 C 0.30442(19) 1.3191(3) 0.1269(2)
H22 H 0.3137 1.3854 0.1286
C13 C 0.27457(18) 1.2820(3) 0.1657(2)
H23 H 0.2633 1.3223 0.1948
C14 C 0.26095(17) 1.1840(3) 0.16189(18)
C15 C 0.22887(16) 1.1392(3) 0.20271(19)
H24 H 0.2558 1.1377 0.2483
H25 H 0.2201 1.0718 0.1884
C16 C 0.13292(17) 1.1161(3) 0.25633(19)
C17 C 0.18564(18) 1.0981(3) 0.31796(19)
H26 H 0.2065 1.1585 0.3329
H27 H 0.2126 1.0521 0.3084
H28 H 0.1716 1.0720 0.3520
C18 C 0.08642(19) 1.1718(3) 0.2761(2)
H29 H 0.0523 1.1851 0.2374
H30 H 0.1034 1.2325 0.2966
H31 H 0.0738 1.1336 0.3070
C19 C 0.10775(19) 1.0190(3) 0.2277(2)
H32 H 0.0990 0.9806 0.2610
H33 H 0.1367 0.9852 0.2127
H34 H 0.0714 1.0290 0.1909
C20 C 0.10879(18) 1.1879(3) 0.11461(19)
C21 C 0.1253(2) 1.2708(3) 0.07738(19)
H35 H 0.0971 1.2734 0.0331
H36 H 0.1651 1.2605 0.0756
H37 H 0.1241 1.3314 0.0997
C22 C 0.11335(19) 1.0930(3) 0.08099(19)
H38 H 0.0992 1.0405 0.1019
H39 H 0.1546 1.0814 0.0846
H40 H 0.0891 1.0965 0.0350
C23 C 0.04498(19) 1.2049(3) 0.1117(2)
H41 H 0.0428 1.2640 0.1352
H42 H 0.0316 1.1507 0.1319
H43 H 0.0197 1.2109 0.0662
Cu2C Cu 0.17797(2) 1.34167(4) 0.24654(2)
P2C P 0.34091(5) 0.69683(8) 0.29817(5)
loop_
_geom_bond_atom_site_label_1
_geom_bond_atom_site_label_2
_geom_bond_site_symmetry_1
_geom_bond_site_symmetry_2
Cu1 I1 1_555 1_555
Cu2 I1 1_555 1_555
I2 Cu1 1_555 1_555
N1 Cu1 1_555 1_555
P1 Cu1 1_555 1_555
P2 C15 1_555 1_555
C1 P1 1_555 1_555
C2 C1 1_555 1_555
H1 C2 1_555 1_555
H2 C2 1_555 1_555
H3 C2 1_555 1_555
C3 C1 1_555 1_555
H4 C3 1_555 1_555
H5 C3 1_555 1_555
H6 C3 1_555 1_555
C4 C1 1_555 1_555
H7 C4 1_555 1_555
H8 C4 1_555 1_555
H9 C4 1_555 1_555
C5 P1 1_555 1_555
C6 C5 1_555 1_555
H10 C6 1_555 1_555
H11 C6 1_555 1_555
H12 C6 1_555 1_555
C7 C5 1_555 1_555
H13 C7 1_555 1_555
H14 C7 1_555 1_555
H15 C7 1_555 1_555
C8 C5 1_555 1_555
H16 C8 1_555 1_555
H17 C8 1_555 1_555
H18 C8 1_555 1_555
C9 P1 1_555 1_555
H19 C9 1_555 1_555
H20 C9 1_555 1_555
C10 N1 1_555 1_555
C11 C10 1_555 1_555
H21 C11 1_555 1_555
C12 C11 1_555 1_555
H22 C12 1_555 1_555
C13 C12 1_555 1_555
H23 C13 1_555 1_555
C14 N1 1_555 1_555
C15 C14 1_555 1_555
H24 C15 1_555 1_555
H25 C15 1_555 1_555
C16 P2 1_555 1_555
C17 C16 1_555 1_555
H26 C17 1_555 1_555
H27 C17 1_555 1_555
H28 C17 1_555 1_555
C18 C16 1_555 1_555
H29 C18 1_555 1_555
H30 C18 1_555 1_555
H31 C18 1_555 1_555
C19 C16 1_555 1_555
H32 C19 1_555 1_555
H33 C19 1_555 1_555
H34 C19 1_555 1_555
C20 P2 1_555 1_555
C21 C20 1_555 1_555
H35 C21 1_555 1_555
H36 C21 1_555 1_555
H37 C21 1_555 1_555
C22 C20 1_555 1_555
H38 C22 1_555 1_555
H39 C22 1_555 1_555
H40 C22 1_555 1_555
C23 C20 1_555 1_555
H41 C23 1_555 1_555
H42 C23 1_555 1_555
H43 C23 1_555 1_555
Cu2C P2 1_555 1_555
P2C Cu2 1_555 1_555
Cu2 I2 1_555 1_555
C9 C10 1_555 1_555
C13 C14 1_555 1_555

#END
