
#######################################################################
#
#                 Cambridge Crystallographic Data Centre
#                                CCDC 
#
#######################################################################
#
# If this CIF has been generated from an entry in the Cambridge 
# Structural Database, then it will include bibliographic, chemical, 
# crystal, experimental, refinement or atomic coordinate data resulting 
# from the CCDC's data processing and validation procedures.
#
#######################################################################

data_BOFDOQ
_symmetry_cell_setting           orthorhombic
_symmetry_space_group_name_H-M   'P 21 21 2'
_symmetry_Int_Tables_number      18
_space_group_name_Hall           'P 2 2ab'
loop_
_symmetry_equiv_pos_site_id
_symmetry_equiv_pos_as_xyz
1 x,y,z
2 -x,-y,z
3 1/2-x,1/2+y,-z
4 1/2+x,1/2-y,-z
_cell_length_a                   5.1990(4)
_cell_length_b                   12.6951(9)
_cell_length_c                   14.4281(10)
_cell_angle_alpha                90
_cell_angle_beta                 90
_cell_angle_gamma                90
_cell_volume                     952.281
loop_
_atom_site_label
_atom_site_type_symbol
_atom_site_fract_x
_atom_site_fract_y
_atom_site_fract_z
Ag1 Ag 1.0000 0.0000 0.51441(2)
N1 N 0.5000 0.0000 0.6154(2)
O1 O 0.7032(5) 0.0179(2) 0.6564(2)
O2 O 0.5166(5) 0.35419(17) 0.15831(15)
C1 C 0.7397(5) 0.3453(2) 0.1829(2)
C2 C 0.9066(5) 0.4539(2) 0.0564(2)
H1 H 0.7307 0.4816 0.0556
N2 N 0.9397(4) 0.39031(19) 0.13966(17)
H2 H 1.0918 0.3814 0.1617
C3 C 0.8094(6) 0.2760(2) 0.2638(2)
C4 C 0.9145(7) 0.4517(3) -0.1184(2)
H3 H 0.9561 0.4082 -0.1716
H4 H 0.7364 0.4735 -0.1241
C5 C 0.9470(7) 0.3872(2) -0.0302(2)
H5 H 1.1185 0.3571 -0.0289
H6 H 0.8243 0.3297 -0.0304
C6 C 0.7157(7) 0.2016(3) 0.4109(2)
H7 H 0.6095 0.1993 0.4627
C7 C 0.6527(7) 0.2712(3) 0.3409(2)
H8 H 0.5078 0.3138 0.3456
N3 N 0.9202(5) 0.1372(2) 0.4089(2)
O3 O 0.5000 0.0000 0.5295(3)
C8 C 1.0671(6) 0.1430(3) 0.3342(3)
H9 H 1.2090 0.0986 0.3306
C9 C 1.0228(9) 0.2113(3) 0.2608(2)
H10 H 1.1346 0.2135 0.2105
Ag1_2 Ag 0.0000 0.0000 0.51441(2)
Ag1_3 Ag 1.0000 1.0000 0.51441(2)
O1A O 0.2968(5) -0.0179(2) 0.6564(2)
O1A_2 O 1.2968(5) -0.0179(2) 0.6564(2)
O2A O 1.4834(5) 0.64581(17) 0.15831(15)
C1A C 1.2603(5) 0.6547(2) 0.1829(2)
C2A C 1.0934(5) 0.5461(2) 0.0564(2)
H1A H 1.2693 0.5184 0.0556
N2A N 1.0603(4) 0.60969(19) 0.13966(17)
H2A H 0.9082 0.6186 0.1617
C3A C 1.1906(6) 0.7240(2) 0.2638(2)
C4A C 1.0855(7) 0.5483(3) -0.1184(2)
H3A H 1.0439 0.5918 -0.1716
H4A H 1.2636 0.5265 -0.1241
C5A C 1.0530(7) 0.6128(2) -0.0302(2)
H5A H 0.8815 0.6429 -0.0289
H6A H 1.1757 0.6703 -0.0304
C6A C 1.2843(7) 0.7984(3) 0.4109(2)
H7A H 1.3905 0.8007 0.4627
C7A C 1.3473(7) 0.7288(3) 0.3409(2)
H8A H 1.4922 0.6862 0.3456
N3A N 1.0798(5) 0.8628(2) 0.4089(2)
N3A_2 N 1.0798(5) -0.1372(2) 0.4089(2)
C8A C 0.9329(6) 0.8570(3) 0.3342(3)
H9A H 0.7910 0.9014 0.3306
C9A C 0.9772(9) 0.7887(3) 0.2608(2)
H10A H 0.8654 0.7865 0.2105
loop_
_geom_bond_atom_site_label_1
_geom_bond_atom_site_label_2
_geom_bond_site_symmetry_1
_geom_bond_site_symmetry_2
Ag1 O1 1_555 1_555
N1 O1 1_555 1_555
O2 C1 1_555 1_555
C1 N2 1_555 1_555
C2 H1 1_555 1_555
N2 C2 1_555 1_555
H2 N2 1_555 1_555
C3 C1 1_555 1_555
C4 H3 1_555 1_555
H4 C4 1_555 1_555
C5 C2 1_555 1_555
H5 C5 1_555 1_555
H6 C5 1_555 1_555
C6 H7 1_555 1_555
C7 C3 1_555 1_555
H8 C7 1_555 1_555
N3 Ag1 1_555 1_555
O3 N1 1_555 1_555
C8 N3 1_555 1_555
H9 C8 1_555 1_555
C9 C3 1_555 1_555
H10 C9 1_555 1_555
Ag1_2 O1A 1_555 1_555
Ag1_3 N3A 1_555 1_555
O1A N1 1_555 1_555
O1A_2 Ag1 1_555 1_555
O2A C1A 1_555 1_555
C1A N2A 1_555 1_555
C2A C2 1_555 1_555
H1A C2A 1_555 1_555
N2A C2A 1_555 1_555
H2A N2A 1_555 1_555
C3A C1A 1_555 1_555
C4A C4 1_555 1_555
H3A C4A 1_555 1_555
H4A C4A 1_555 1_555
C5A C2A 1_555 1_555
H5A C5A 1_555 1_555
H6A C5A 1_555 1_555
C6A H7A 1_555 1_555
C7A C3A 1_555 1_555
H8A C7A 1_555 1_555
N3A C6A 1_555 1_555
N3A_2 Ag1 1_555 1_555
C8A N3A 1_555 1_555
H9A C8A 1_555 1_555
C9A C3A 1_555 1_555
H10A C9A 1_555 1_555
C4 C5 1_555 1_555
C6 C7 1_555 1_555
C6 N3 1_555 1_555
C8 C9 1_555 1_555
C4A C5A 1_555 1_555
C6A C7A 1_555 1_555
C8A C9A 1_555 1_555

#END
