
#######################################################################
#
#                 Cambridge Crystallographic Data Centre
#                                CCDC 
#
#######################################################################
#
# If this CIF has been generated from an entry in the Cambridge 
# Structural Database, then it will include bibliographic, chemical, 
# crystal, experimental, refinement or atomic coordinate data resulting 
# from the CCDC's data processing and validation procedures.
#
#######################################################################

data_BOFFAE
_symmetry_cell_setting           orthorhombic
_symmetry_space_group_name_H-M   'P 21 21 2'
_symmetry_Int_Tables_number      18
_space_group_name_Hall           'P 2 2ab'
loop_
_symmetry_equiv_pos_site_id
_symmetry_equiv_pos_as_xyz
1 x,y,z
2 -x,-y,z
3 1/2-x,1/2+y,-z
4 1/2+x,1/2-y,-z
_cell_length_a                   15.0824(9)
_cell_length_b                   25.3484(15)
_cell_length_c                   5.0566(3)
_cell_angle_alpha                90
_cell_angle_beta                 90
_cell_angle_gamma                90
_cell_volume                     1933.21
loop_
_atom_site_label
_atom_site_type_symbol
_atom_site_fract_x
_atom_site_fract_y
_atom_site_fract_z
C1 C 1.2294(2) 0.69720(14) 0.1302(8)
H1 H 1.2209 0.6803 0.3005
H2 H 1.2369 0.6696 -0.0009
C2 C 1.3132(2) 0.73032(16) 0.1403(9)
H3 H 1.3627 0.7086 0.1954
H4 H 1.3261 0.7441 -0.0343
C3 C 1.3013(3) 0.77546(16) 0.3329(9)
H5 H 1.3539 0.7975 0.3315
H6 H 1.2938 0.7616 0.5102
N1 N 1.07060(19) 0.69445(11) 0.0759(6)
H7 H 1.0454 0.6900 0.2268
C4 C 0.9194(2) 0.94676(15) -0.0704(8)
H8 H 0.9379 0.9690 -0.2058
C5 C 1.0142(3) 0.83610(14) 0.3418(8)
C6 C 0.8685(3) 0.88320(14) 0.3262(8)
H9 H 0.8495 0.8624 0.4666
C7 C 0.9529(2) 0.87761(14) 0.2281(7)
C8 C 1.1366(2) 0.77581(13) 0.2446(7)
H10 H 1.1238 0.7625 0.4224
C9 C 0.8118(3) 0.91991(15) 0.2153(8)
H11 H 0.7544 0.9228 0.2807
C10 C 0.9796(3) 0.91062(13) 0.0284(8)
H12 H 1.0369 0.9087 -0.0390
C11 C 1.1468(2) 0.72899(13) 0.0628(7)
H13 H 1.1526 0.7420 -0.1189
C12 C 0.9658(2) 0.62971(14) -0.0705(7)
C13 C 1.2211(2) 0.80842(14) 0.2593(8)
H14 H 1.2314 0.8250 0.0893
H15 H 1.2134 0.8361 0.3895
C14 C 0.9063(2) 0.63655(15) 0.1335(8)
H16 H 0.9103 0.6661 0.2421
C15 C 0.9565(3) 0.58505(14) -0.2245(8)
H17 H 0.9941 0.5792 -0.3673
C16 C 0.8906(3) 0.54920(15) -0.1636(8)
H18 H 0.8864 0.5186 -0.2642
O1 O 1.06042(18) 0.67699(11) -0.3602(5)
C17 C 1.0372(2) 0.66915(14) -0.1319(7)
O2 O 1.01750(19) 0.82834(10) 0.5822(5)
N2 N 0.8370(2) 0.95152(11) 0.0163(6)
N3 N 1.06335(19) 0.81007(11) 0.1657(6)
H19 H 1.0515 0.8136 0.0002
C18 C 0.8414(2) 0.59983(14) 0.1758(8)
H20 H 0.8012 0.6056 0.3124
N4 N 0.8327(2) 0.55627(11) 0.0317(6)
Zn1 Zn 0.74903(3) 0.998423(18) -0.18055(8)
Cl1 Cl 0.64358(7) 0.94101(4) -0.3011(2)
Cl2 Cl 0.83261(7) 1.04209(4) -0.4748(2)
N4B N 0.6673(2) 1.05627(11) -0.0317(6)
Zn1B Zn 0.75097(3) 0.498423(18) 0.18055(8)
loop_
_geom_bond_atom_site_label_1
_geom_bond_atom_site_label_2
_geom_bond_site_symmetry_1
_geom_bond_site_symmetry_2
C1 H1 1_555 1_555
H2 C1 1_555 1_555
C2 C1 1_555 1_555
H3 C2 1_555 1_555
H4 C2 1_555 1_555
C3 C2 1_555 1_555
H5 C3 1_555 1_555
H6 C3 1_555 1_555
N1 H7 1_555 1_555
C4 H8 1_555 1_555
C5 C7 1_555 1_555
C6 H9 1_555 1_555
C7 C6 1_555 1_555
C8 H10 1_555 1_555
C9 C6 1_555 1_555
H11 C9 1_555 1_555
C10 C4 1_555 1_555
H12 C10 1_555 1_555
C11 C1 1_555 1_555
H13 C11 1_555 1_555
C12 C14 1_555 1_555
C13 C3 1_555 1_555
H14 C13 1_555 1_555
H15 C13 1_555 1_555
C14 H16 1_555 1_555
C15 C12 1_555 1_555
H17 C15 1_555 1_555
C16 C15 1_555 1_555
H18 C16 1_555 1_555
O1 C17 1_555 1_555
C17 N1 1_555 1_555
O2 C5 1_555 1_555
N2 C4 1_555 1_555
N3 C5 1_555 1_555
H19 N3 1_555 1_555
C18 C14 1_555 1_555
H20 C18 1_555 1_555
N4 C16 1_555 1_555
Zn1 N2 1_555 1_555
Cl1 Zn1 1_555 1_555
Cl2 Zn1 1_555 1_555
N4B Zn1 1_555 1_555
Zn1B N4 1_555 1_555
N1 C11 1_555 1_555
C7 C10 1_555 1_555
C8 C11 1_555 1_555
C8 C13 1_555 1_555
C8 N3 1_555 1_555
C9 N2 1_555 1_555
C12 C17 1_555 1_555
C18 N4 1_555 1_555

#END
