
#######################################################################
#
#                 Cambridge Crystallographic Data Centre
#                                CCDC 
#
#######################################################################
#
# If this CIF has been generated from an entry in the Cambridge 
# Structural Database, then it will include bibliographic, chemical, 
# crystal, experimental, refinement or atomic coordinate data resulting 
# from the CCDC's data processing and validation procedures.
#
#######################################################################

data_BOFFEI
_symmetry_cell_setting           monoclinic
_symmetry_space_group_name_H-M   'P 21/c'
_symmetry_Int_Tables_number      14
_space_group_name_Hall           '-P 2ybc'
loop_
_symmetry_equiv_pos_site_id
_symmetry_equiv_pos_as_xyz
1 x,y,z
2 -x,1/2+y,1/2-z
3 -x,-y,-z
4 x,1/2-y,1/2+z
_cell_length_a                   8.244(3)
_cell_length_b                   17.049(5)
_cell_length_c                   8.136(3)
_cell_angle_alpha                90
_cell_angle_beta                 108.623(5)
_cell_angle_gamma                90
_cell_volume                     1083.66
loop_
_atom_site_label
_atom_site_type_symbol
_atom_site_fract_x
_atom_site_fract_y
_atom_site_fract_z
Pb1 Pb 0.60657(5) 0.751151(16) 0.86176(4)
Cl1 Cl 0.8617(3) 0.79483(14) 0.7312(3)
O1 O 0.2838(9) 0.7828(4) 0.7384(9)
O2 O 0.4437(9) 0.8248(4) 0.5823(8)
N1 N 0.1761(11) 0.9009(4) 0.3474(9)
N2 N 0.2616(14) 1.0142(5) -0.1967(11)
N3 N 0.3219(13) 1.0742(5) -0.2712(10)
N4 N 0.3822(12) 1.1295(4) -0.1565(10)
N5 N 0.3671(11) 1.1083(4) -0.0021(9)
C1 C 0.3029(14) 0.8183(5) 0.6086(12)
C2 C 0.1414(14) 0.8538(5) 0.4856(11)
H1 H 0.0617 0.8121 0.4328
H2 H 0.0880 0.8869 0.5506
C3 C 0.1274(14) 0.8756(5) 0.1830(12)
H3 H 0.0692 0.8282 0.1540
C4 C 0.1631(15) 0.9194(5) 0.0570(12)
H4 H 0.1287 0.9017 -0.0571
C5 C 0.2507(13) 0.9903(5) 0.0993(11)
C6 C 0.2990(15) 1.0142(6) 0.2716(12)
H5 H 0.3577 1.0612 0.3045
C7 C 0.2606(14) 0.9693(5) 0.3916(11)
H6 H 0.2932 0.9860 0.5064
C8 C 0.2916(13) 1.0376(5) -0.0318(11)
Pb1A Pb 0.39343(5) 1.251151(16) -0.36176(4)
Pb1B Pb 0.39343(5) 1.248849(16) 0.13824(4)
N4A N 0.6178(12) 0.6295(4) 0.6565(10)
N5B N 0.6329(11) 0.8917(4) 1.0021(9)
loop_
_geom_bond_atom_site_label_1
_geom_bond_atom_site_label_2
_geom_bond_site_symmetry_1
_geom_bond_site_symmetry_2
Pb1 Cl1 1_555 1_555
O1 Pb1 1_555 1_555
O2 Pb1 1_555 1_555
N1 C2 1_555 1_555
N2 N3 1_555 1_555
N3 N4 1_555 1_555
N4 N5 1_555 1_555
N5 C8 1_555 1_555
C1 O1 1_555 1_555
C2 C1 1_555 1_555
H1 C2 1_555 1_555
H2 C2 1_555 1_555
C3 N1 1_555 1_555
H3 C3 1_555 1_555
C4 C3 1_555 1_555
H4 C4 1_555 1_555
C5 C4 1_555 1_555
C6 C5 1_555 1_555
H5 C6 1_555 1_555
C7 N1 1_555 1_555
H6 C7 1_555 1_555
C8 N2 1_555 1_555
Pb1A N4 1_555 1_555
Pb1B N5 1_555 1_555
N4A Pb1 1_555 1_555
N5B Pb1 1_555 1_555
O2 C1 1_555 1_555
C5 C8 1_555 1_555
C6 C7 1_555 1_555

#END
