
#######################################################################
#
#                 Cambridge Crystallographic Data Centre
#                                CCDC 
#
#######################################################################
#
# If this CIF has been generated from an entry in the Cambridge 
# Structural Database, then it will include bibliographic, chemical, 
# crystal, experimental, refinement or atomic coordinate data resulting 
# from the CCDC's data processing and validation procedures.
#
#######################################################################

data_BOFFAF
_symmetry_cell_setting           monoclinic
_symmetry_space_group_name_H-M   'C 2/c'
_symmetry_Int_Tables_number      15
_space_group_name_Hall           '-C 2yn'
loop_
_symmetry_equiv_pos_site_id
_symmetry_equiv_pos_as_xyz
1 x,y,z
2 -x,y,1/2-z
3 1/2+x,1/2+y,z
4 1/2-x,1/2+y,1/2-z
5 -x,-y,-z
6 x,-y,1/2+z
7 1/2-x,1/2-y,-z
8 1/2+x,1/2-y,1/2+z
_cell_length_a                   15.3727(11)
_cell_length_b                   16.4442(12)
_cell_length_c                   14.2397(11)
_cell_angle_alpha                90
_cell_angle_beta                 122.2500(10)
_cell_angle_gamma                90
_cell_volume                     3044.35
loop_
_atom_site_label
_atom_site_type_symbol
_atom_site_fract_x
_atom_site_fract_y
_atom_site_fract_z
Cu1 Cu 0.0000 0.16910(4) 0.2500
Cu2 Cu 0.18739(3) 0.21848(3) 0.36417(4)
I1 I 0.178557(17) 0.160792(14) 0.537351(17)
I2 I 0.0000 0.315814(19) 0.2500
N1 N 0.0000 0.0520(2) 0.2500
P1 P 0.20938(7) 0.12865(5) 0.25767(7)
C1 C 0.0000 -0.1162(3) 0.2500
H1 H 0.0000 -0.1739 0.2500
C2 C 0.0494(3) -0.0735(2) 0.2075(3)
H2 H 0.0823 -0.1017 0.1766
C3 C 0.0502(2) 0.0103(2) 0.2107(3)
C4 C 0.1026(2) 0.0584(2) 0.1648(3)
H3 H 0.0492 0.0909 0.1018
H4 H 0.1298 0.0191 0.1339
C5 C 0.2232(3) 0.1818(2) 0.1492(3)
C6 C 0.1398(3) 0.2484(2) 0.0984(3)
H5 H 0.1523 0.2876 0.1562
H6 H 0.0719 0.2235 0.0679
H7 H 0.1421 0.2764 0.0391
C7 C 0.2110(3) 0.1265(2) 0.0558(3)
H8 H 0.2260 0.1576 0.0074
H9 H 0.1404 0.1059 0.0123
H10 H 0.2589 0.0807 0.0882
C8 C 0.3281(3) 0.2248(2) 0.2043(3)
H11 H 0.3306 0.2589 0.1494
H12 H 0.3830 0.1841 0.2332
H13 H 0.3374 0.2588 0.2655
C9 C 0.3232(3) 0.0608(2) 0.3460(3)
C10 C 0.3614(3) 0.0120(2) 0.2829(3)
H14 H 0.3900 0.0493 0.2525
H15 H 0.3038 -0.0181 0.2221
H16 H 0.4147 -0.0263 0.3337
C11 C 0.4107(3) 0.1130(2) 0.4348(3)
H17 H 0.3880 0.1405 0.4791
H18 H 0.4303 0.1537 0.3991
H19 H 0.4700 0.0784 0.4832
C12 C 0.2913(3) 0.0007(2) 0.4049(3)
H20 H 0.3526 -0.0267 0.4649
H21 H 0.2441 -0.0399 0.3515
H22 H 0.2569 0.0302 0.4360
P1A P -0.20938(7) 0.12865(5) 0.24233(7)
C2A C -0.0494(3) -0.0735(2) 0.2925(3)
H2A H -0.0823 -0.1017 0.3234
C3A C -0.0502(2) 0.0103(2) 0.2893(3)
C4A C -0.1026(2) 0.0584(2) 0.3352(3)
H3A H -0.0492 0.0909 0.3982
H4A H -0.1298 0.0191 0.3661
C5A C -0.2232(3) 0.1818(2) 0.3508(3)
C6A C -0.1398(3) 0.2484(2) 0.4016(3)
H5A H -0.1523 0.2876 0.3438
H6A H -0.0719 0.2235 0.4321
H7A H -0.1421 0.2764 0.4609
C7A C -0.2110(3) 0.1265(2) 0.4442(3)
H8A H -0.2260 0.1576 0.4926
H9A H -0.1404 0.1059 0.4877
H10A H -0.2589 0.0807 0.4118
C8A C -0.3281(3) 0.2248(2) 0.2957(3)
H11A H -0.3306 0.2589 0.3506
H12A H -0.3830 0.1841 0.2668
H13A H -0.3374 0.2588 0.2345
C9A C -0.3232(3) 0.0608(2) 0.1540(3)
C10A C -0.3614(3) 0.0120(2) 0.2171(3)
H14A H -0.3900 0.0493 0.2475
H15A H -0.3038 -0.0181 0.2779
H16A H -0.4147 -0.0263 0.1663
C11A C -0.4107(3) 0.1130(2) 0.0652(3)
H17A H -0.3880 0.1405 0.0209
H18A H -0.4303 0.1537 0.1009
H19A H -0.4700 0.0784 0.0168
C12A C -0.2913(3) 0.0007(2) 0.0951(3)
H20A H -0.3526 -0.0267 0.0351
H21A H -0.2441 -0.0399 0.1485
H22A H -0.2569 0.0302 0.0640
Cu2A Cu -0.18739(3) 0.21848(3) 0.13583(4)
I1A I -0.178557(17) 0.160792(14) -0.037351(17)
Cu2F Cu 0.31261(3) 0.28152(3) 0.63583(4)
Cu2G Cu -0.31261(3) 0.28152(3) -0.13583(4)
I1F I 0.321443(17) 0.339208(14) 0.462649(17)
I1G I -0.321443(17) 0.339208(14) 0.037351(17)
loop_
_geom_bond_atom_site_label_1
_geom_bond_atom_site_label_2
_geom_bond_site_symmetry_1
_geom_bond_site_symmetry_2
Cu1 I2 1_555 1_555
Cu2 I1 1_555 1_555
I1 Cu2F 1_555 1_555
I2 Cu2 1_555 1_555
N1 Cu1 1_555 1_555
P1 Cu2 1_555 1_555
C1 H1 1_555 1_555
C2 C1 1_555 1_555
H2 C2 1_555 1_555
C3 N1 1_555 1_555
C4 P1 1_555 1_555
H3 C4 1_555 1_555
H4 C4 1_555 1_555
C5 P1 1_555 1_555
C6 C5 1_555 1_555
H5 C6 1_555 1_555
H6 C6 1_555 1_555
H7 C6 1_555 1_555
C7 C5 1_555 1_555
H8 C7 1_555 1_555
H9 C7 1_555 1_555
H10 C7 1_555 1_555
C8 C5 1_555 1_555
H11 C8 1_555 1_555
H12 C8 1_555 1_555
H13 C8 1_555 1_555
C9 P1 1_555 1_555
C10 C9 1_555 1_555
H14 C10 1_555 1_555
H15 C10 1_555 1_555
H16 C10 1_555 1_555
C11 C9 1_555 1_555
H17 C11 1_555 1_555
H18 C11 1_555 1_555
H19 C11 1_555 1_555
C12 C9 1_555 1_555
H20 C12 1_555 1_555
H21 C12 1_555 1_555
H22 C12 1_555 1_555
P1A C4A 1_555 1_555
C2A C1 1_555 1_555
H2A C2A 1_555 1_555
C3A N1 1_555 1_555
C4A C3A 1_555 1_555
H3A C4A 1_555 1_555
H4A C4A 1_555 1_555
C5A P1A 1_555 1_555
C6A C5A 1_555 1_555
H5A C6A 1_555 1_555
H6A C6A 1_555 1_555
H7A C6A 1_555 1_555
C7A C5A 1_555 1_555
H8A C7A 1_555 1_555
H9A C7A 1_555 1_555
H10A C7A 1_555 1_555
C8A C5A 1_555 1_555
H11A C8A 1_555 1_555
H12A C8A 1_555 1_555
H13A C8A 1_555 1_555
C9A P1A 1_555 1_555
C10A C9A 1_555 1_555
H14A C10A 1_555 1_555
H15A C10A 1_555 1_555
H16A C10A 1_555 1_555
C11A C9A 1_555 1_555
H17A C11A 1_555 1_555
H18A C11A 1_555 1_555
H19A C11A 1_555 1_555
C12A C9A 1_555 1_555
H20A C12A 1_555 1_555
H21A C12A 1_555 1_555
H22A C12A 1_555 1_555
Cu2A I2 1_555 1_555
I1A Cu2A 1_555 1_555
Cu2F I1F 1_555 1_555
Cu2G I1A 1_555 1_555
I1F Cu2 1_555 1_555
I1G Cu2A 1_555 1_555
C2 C3 1_555 1_555
C3 C4 1_555 1_555
P1A Cu2A 1_555 1_555
C2A C3A 1_555 1_555
Cu2G I1G 1_555 1_555

#END
