
#######################################################################
#
#                 Cambridge Crystallographic Data Centre
#                                CCDC 
#
#######################################################################
#
# If this CIF has been generated from an entry in the Cambridge 
# Structural Database, then it will include bibliographic, chemical, 
# crystal, experimental, refinement or atomic coordinate data resulting 
# from the CCDC's data processing and validation procedures.
#
#######################################################################

data_BOFGOT
_symmetry_cell_setting           triclinic
_symmetry_space_group_name_H-M   'P -1'
_symmetry_Int_Tables_number      2
_space_group_name_Hall           '-P 1'
loop_
_symmetry_equiv_pos_site_id
_symmetry_equiv_pos_as_xyz
1 x,y,z
2 -x,-y,-z
_cell_length_a                   9.7160(9)
_cell_length_b                   10.2635(9)
_cell_length_c                   12.3619(11)
_cell_angle_alpha                93.8920(10)
_cell_angle_beta                 96.0970(10)
_cell_angle_gamma                99.2170(10)
_cell_volume                     1205.4
loop_
_atom_site_label
_atom_site_type_symbol
_atom_site_fract_x
_atom_site_fract_y
_atom_site_fract_z
Co1 Co 0.49580(3) 0.85737(3) 0.84723(2)
O1 O 0.62400(18) 0.75450(16) 0.72993(13)
O2 O 0.39832(17) 0.68965(16) 0.73399(13)
O3 O 0.62922(14) 1.01828(15) 0.92540(12)
O4 O 0.69091(14) 1.11212(15) 1.09560(12)
N1 N 0.56401(19) 0.73886(18) 0.96850(15)
N2 N 0.6662(2) 0.5911(2) 1.05229(17)
N3 N 0.45931(19) 0.97943(19) 0.71752(15)
N4 N 0.3525(2) 1.0439(2) 0.56834(17)
C1 C 0.6350(2) 0.6413(2) 0.9574(2)
H1 H 0.6606 0.6105 0.8912
C2 C 0.5515(3) 0.7523(3) 1.0783(2)
H2 H 0.5065 0.8147 1.1118
C3 C 0.6134(3) 0.6624(3) 1.1300(2)
H3 H 0.6192 0.6511 1.2042
C4 C 0.7445(3) 0.4828(3) 1.0700(2)
H4 H 0.7406 0.4304 1.0010
H5 H 0.6988 0.4259 1.1198
C5 C 0.8960(3) 0.5267(3) 1.1155(2)
C6 C 0.9723(3) 0.6499(3) 1.1049(2)
H6 H 0.9295 0.7119 1.0684
C7 C 1.1116(3) 0.6816(3) 1.1482(3)
H7 H 1.1620 0.7649 1.1409
C8 C 1.1766(3) 0.5904(3) 1.2022(3)
H8 H 1.2700 0.6127 1.2324
C9 C 1.1031(3) 0.4670(3) 1.2111(2)
H9 H 1.1470 0.4048 1.2463
C10 C 0.9639(3) 0.4350(3) 1.1679(2)
H10 H 0.9147 0.3508 1.1739
C11 C 0.5354(3) 1.0929(3) 0.6888(2)
H11 H 0.6200 1.1361 0.7268
C12 C 0.4712(3) 1.1342(3) 0.5975(2)
H12 H 0.5020 1.2088 0.5623
C13 C 0.3496(3) 0.9541(3) 0.6419(2)
H13 H 0.2781 0.8816 0.6400
C14 C 0.2448(3) 1.0444(3) 0.4754(2)
H14 H 0.1912 0.9557 0.4592
H15 H 0.2909 1.0675 0.4118
C15 C 0.1460(3) 1.1390(3) 0.4953(2)
C16 C 0.0649(3) 1.1748(3) 0.4071(2)
H16 H 0.0716 1.1385 0.3372
C17 C -0.0260(3) 1.2636(4) 0.4211(3)
H17 H -0.0810 1.2851 0.3608
C18 C -0.0356(4) 1.3193(4) 0.5212(4)
H18 H -0.0955 1.3804 0.5301
C19 C 0.0443(4) 1.2848(4) 0.6103(3)
H19 H 0.0379 1.3226 0.6797
C20 C 0.1338(3) 1.1942(3) 0.5972(3)
H20 H 0.1861 1.1706 0.6580
C21 C 0.5106(3) 0.6825(2) 0.69288(18)
C22 C 0.5051(2) 0.5859(2) 0.59413(17)
C23 C 0.6267(2) 0.5715(2) 0.54778(19)
H21 H 0.7125 0.6195 0.5794
C24 C 0.3788(2) 0.5139(2) 0.54518(19)
H22 H 0.2964 0.5228 0.5749
C25 C 0.7158(2) 1.0519(2) 1.00973(17)
C26 C 0.8626(2) 1.0233(2) 1.00540(17)
C27 C 0.8985(2) 0.9607(2) 0.91212(18)
H23 H 0.8308 0.9341 0.8524
C28 C 0.9657(2) 1.0626(2) 1.09303(18)
H24 H 0.9435 1.1051 1.1561
Co1A Co 0.50420(3) 0.14263(3) 0.15277(2)
Co1A_2 Co 0.50420(3) 1.14263(3) 1.15277(2)
Co1A_3 Co 1.50420(3) 1.14263(3) 1.15277(2)
Co1_2 Co 1.49580(3) 0.85737(3) 0.84723(2)
O1A O 0.37600(18) 0.24550(16) 0.27007(13)
O2A O 0.60168(17) 0.31035(16) 0.26601(13)
O3A O 1.37078(14) 0.98172(15) 1.07460(12)
O3A_2 O 0.37078(14) -0.01828(15) 0.07460(12)
O4A O 1.30909(14) 0.88788(15) 0.90440(12)
O4A_2 O 0.30909(14) 0.88788(15) 0.90440(12)
O4_2 O 0.69091(14) 0.11212(15) 0.09560(12)
N1A N 0.43599(19) 0.26114(18) 0.03150(15)
N2A N 0.3338(2) 0.4089(2) -0.05229(17)
N3A N 0.54069(19) 0.02057(19) 0.28248(15)
N4A N 0.6475(2) -0.0439(2) 0.43166(17)
C1A C 0.3650(2) 0.3587(2) 0.0426(2)
H1A H 0.3394 0.3895 0.1088
C2A C 0.4485(3) 0.2477(3) -0.0783(2)
H2A H 0.4935 0.1853 -0.1118
C3A C 0.3866(3) 0.3376(3) -0.1300(2)
H3A H 0.3808 0.3489 -0.2042
C4A C 0.2555(3) 0.5172(3) -0.0700(2)
H4A H 0.2594 0.5696 -0.0010
H5A H 0.3012 0.5741 -0.1198
C5A C 0.1040(3) 0.4733(3) -0.1155(2)
C6A C 0.0277(3) 0.3501(3) -0.1049(2)
H6A H 0.0705 0.2881 -0.0684
C7A C -0.1116(3) 0.3184(3) -0.1482(3)
H7A H -0.1620 0.2351 -0.1409
C8A C -0.1766(3) 0.4096(3) -0.2022(3)
H8A H -0.2700 0.3873 -0.2324
C9A C -0.1031(3) 0.5330(3) -0.2111(2)
H9A H -0.1470 0.5952 -0.2463
C10A C 0.0361(3) 0.5650(3) -0.1679(2)
H10A H 0.0853 0.6492 -0.1739
C11A C 0.4646(3) -0.0929(3) 0.3112(2)
H11A H 0.3800 -0.1361 0.2732
C12A C 0.5288(3) -0.1342(3) 0.4025(2)
H12A H 0.4980 -0.2088 0.4377
C13A C 0.6504(3) 0.0459(3) 0.3581(2)
H13A H 0.7219 0.1184 0.3600
C14A C 0.7552(3) -0.0444(3) 0.5246(2)
H14A H 0.8088 0.0443 0.5408
H15A H 0.7091 -0.0675 0.5882
C15A C 0.8540(3) -0.1390(3) 0.5047(2)
C16A C 0.9351(3) -0.1748(3) 0.5929(2)
H16A H 0.9284 -0.1385 0.6628
C17A C 1.0260(3) -0.2636(4) 0.5789(3)
H17A H 1.0810 -0.2851 0.6392
C18A C 1.0356(4) -0.3193(4) 0.4788(4)
H18A H 1.0955 -0.3804 0.4699
C19A C 0.9557(4) -0.2848(4) 0.3897(3)
H19A H 0.9621 -0.3226 0.3203
C20A C 0.8662(3) -0.1942(3) 0.4028(3)
H20A H 0.8139 -0.1706 0.3420
C21A C 0.4894(3) 0.3175(2) 0.30712(18)
C22A C 0.4949(2) 0.4141(2) 0.40587(17)
C23A C 0.3733(2) 0.4285(2) 0.45222(19)
H21A H 0.2875 0.3805 0.4206
C24A C 0.6212(2) 0.4861(2) 0.45482(19)
H22A H 0.7036 0.4772 0.4251
C25A C 1.2842(2) 0.9481(2) 0.99027(17)
C26A C 1.1374(2) 0.9767(2) 0.99460(17)
C27A C 1.1015(2) 1.0393(2) 1.08788(18)
H23A H 1.1692 1.0659 1.1476
C28A C 1.0343(2) 0.9374(2) 0.90697(18)
H24A H 1.0565 0.8949 0.8439
loop_
_geom_bond_atom_site_label_1
_geom_bond_atom_site_label_2
_geom_bond_site_symmetry_1
_geom_bond_site_symmetry_2
Co1 O1 1_555 1_555
O1 C21 1_555 1_555
O2 Co1 1_555 1_555
O3 Co1 1_555 1_555
O4 C25 1_555 1_555
N1 Co1 1_555 1_555
N2 C1 1_555 1_555
N3 Co1 1_555 1_555
N4 C12 1_555 1_555
C1 N1 1_555 1_555
H1 C1 1_555 1_555
C2 N1 1_555 1_555
H2 C2 1_555 1_555
C3 N2 1_555 1_555
H3 C3 1_555 1_555
C4 N2 1_555 1_555
H4 C4 1_555 1_555
H5 C4 1_555 1_555
C5 C4 1_555 1_555
C6 C5 1_555 1_555
H6 C6 1_555 1_555
C7 C6 1_555 1_555
H7 C7 1_555 1_555
C8 C7 1_555 1_555
H8 C8 1_555 1_555
C9 C8 1_555 1_555
H9 C9 1_555 1_555
C10 C5 1_555 1_555
H10 C10 1_555 1_555
C11 N3 1_555 1_555
H11 C11 1_555 1_555
C12 C11 1_555 1_555
H12 C12 1_555 1_555
C13 N3 1_555 1_555
H13 C13 1_555 1_555
C14 N4 1_555 1_555
H14 C14 1_555 1_555
H15 C14 1_555 1_555
C15 C14 1_555 1_555
C16 C15 1_555 1_555
H16 C16 1_555 1_555
C17 C16 1_555 1_555
H17 C17 1_555 1_555
C18 C17 1_555 1_555
H18 C18 1_555 1_555
C19 C18 1_555 1_555
H19 C19 1_555 1_555
C20 C15 1_555 1_555
H20 C20 1_555 1_555
C21 O2 1_555 1_555
C22 C21 1_555 1_555
C23 C22 1_555 1_555
H21 C23 1_555 1_555
C24 C22 1_555 1_555
H22 C24 1_555 1_555
C25 O3 1_555 1_555
C26 C25 1_555 1_555
C27 C26 1_555 1_555
H23 C27 1_555 1_555
C28 C26 1_555 1_555
H24 C28 1_555 1_555
Co1A O1A 1_555 1_555
Co1A_2 O4 1_555 1_555
Co1A_3 O3A 1_555 1_555
Co1_2 O4A 1_555 1_555
O1A C21A 1_555 1_555
O2A Co1A 1_555 1_555
O3A C25A 1_555 1_555
O3A_2 Co1A 1_555 1_555
O4A C25A 1_555 1_555
O4A_2 Co1 1_555 1_555
O4_2 Co1A 1_555 1_555
N1A Co1A 1_555 1_555
N2A C1A 1_555 1_555
N3A Co1A 1_555 1_555
N4A C12A 1_555 1_555
C1A N1A 1_555 1_555
H1A C1A 1_555 1_555
C2A N1A 1_555 1_555
H2A C2A 1_555 1_555
C3A N2A 1_555 1_555
H3A C3A 1_555 1_555
C4A N2A 1_555 1_555
H4A C4A 1_555 1_555
H5A C4A 1_555 1_555
C5A C4A 1_555 1_555
C6A C5A 1_555 1_555
H6A C6A 1_555 1_555
C7A C6A 1_555 1_555
H7A C7A 1_555 1_555
C8A C7A 1_555 1_555
H8A C8A 1_555 1_555
C9A C8A 1_555 1_555
H9A C9A 1_555 1_555
C10A C5A 1_555 1_555
H10A C10A 1_555 1_555
C11A N3A 1_555 1_555
H11A C11A 1_555 1_555
C12A C11A 1_555 1_555
H12A C12A 1_555 1_555
C13A N3A 1_555 1_555
H13A C13A 1_555 1_555
C14A N4A 1_555 1_555
H14A C14A 1_555 1_555
H15A C14A 1_555 1_555
C15A C14A 1_555 1_555
C16A C15A 1_555 1_555
H16A C16A 1_555 1_555
C17A C16A 1_555 1_555
H17A C17A 1_555 1_555
C18A C17A 1_555 1_555
H18A C18A 1_555 1_555
C19A C18A 1_555 1_555
H19A C19A 1_555 1_555
C20A C15A 1_555 1_555
H20A C20A 1_555 1_555
C21A O2A 1_555 1_555
C22A C21A 1_555 1_555
C23A C24 1_555 1_555
H21A C23A 1_555 1_555
C24A C23 1_555 1_555
H22A C24A 1_555 1_555
C25A C26A 1_555 1_555
C26A C27A 1_555 1_555
C27A C28 1_555 1_555
H23A C27A 1_555 1_555
C28A C27 1_555 1_555
H24A C28A 1_555 1_555
N4 C13 1_555 1_555
C2 C3 1_555 1_555
C9 C10 1_555 1_555
C19 C20 1_555 1_555
N4A C13A 1_555 1_555
C2A C3A 1_555 1_555
C9A C10A 1_555 1_555
C19A C20A 1_555 1_555
C22A C23A 1_555 1_555
C22A C24A 1_555 1_555
C26A C28A 1_555 1_555

#END
