
#######################################################################
#
#                 Cambridge Crystallographic Data Centre
#                                CCDC 
#
#######################################################################
#
# If this CIF has been generated from an entry in the Cambridge 
# Structural Database, then it will include bibliographic, chemical, 
# crystal, experimental, refinement or atomic coordinate data resulting 
# from the CCDC's data processing and validation procedures.
#
#######################################################################

data_BOFGUZ
_symmetry_cell_setting           monoclinic
_symmetry_space_group_name_H-M   'P 21/n'
_symmetry_Int_Tables_number      14
_space_group_name_Hall           '-P 2yn'
loop_
_symmetry_equiv_pos_site_id
_symmetry_equiv_pos_as_xyz
1 x,y,z
2 1/2-x,1/2+y,1/2-z
3 -x,-y,-z
4 1/2+x,1/2-y,1/2+z
_cell_length_a                   9.9900(16)
_cell_length_b                   15.153(3)
_cell_length_c                   20.307(3)
_cell_angle_alpha                90
_cell_angle_beta                 94.152(2)
_cell_angle_gamma                90
_cell_volume                     3065.97
loop_
_atom_site_label
_atom_site_type_symbol
_atom_site_fract_x
_atom_site_fract_y
_atom_site_fract_z
C1 C 1.0304(5) 0.1484(3) 0.2110(2)
C2 C 0.9625(5) 0.1428(4) 0.2777(2)
C3 C 1.2275(5) -0.1284(3) 0.2059(2)
C4 C 1.2642(5) -0.0783(3) 0.2703(2)
C5 C 0.7683(5) -0.1298(3) 0.2740(3)
C6 C 0.7234(5) -0.0845(3) 0.2080(3)
C7 C 1.2775(5) 0.0456(4) 0.0900(2)
H1 H 1.2581 0.0478 0.1340
C8 C 1.4008(5) 0.0175(4) 0.0750(2)
H2 H 1.4639 0.0005 0.1086
C9 C 1.4329(6) 0.0142(3) 0.0090(3)
C10 C 1.3339(6) 0.0404(4) -0.0381(3)
H3 H 1.3504 0.0402 -0.0826
C11 C 1.2124(5) 0.0665(3) -0.0191(2)
H4 H 1.1468 0.0824 -0.0518
C12 C 0.7824(5) 0.1770(4) -0.0097(3)
H5 H 0.8346 0.1660 -0.0449
C13 C 0.6555(6) 0.2118(4) -0.0229(3)
H6 H 0.6238 0.2252 -0.0659
C14 C 0.5749(6) 0.2266(4) 0.0305(3)
C15 C 0.6301(5) 0.2059(4) 0.0924(3)
H7 H 0.5803 0.2152 0.1287
C16 C 0.7566(6) 0.1721(4) 0.1019(3)
H8 H 0.7901 0.1582 0.1446
C17 C 0.2328(6) 0.3161(4) 0.0582(3)
H9 H 0.1833 0.3305 0.0937
C18 C 0.3608(5) 0.2851(3) 0.0708(2)
H10 H 0.3966 0.2796 0.1142
C19 C 0.4380(6) 0.2617(4) 0.0188(2)
C20 C 0.3809(5) 0.2734(4) -0.0434(2)
H11 H 0.4287 0.2597 -0.0796
C21 C 0.2509(5) 0.3058(3) -0.0526(2)
H12 H 0.2140 0.3136 -0.0956
C22 C -0.2529(5) 0.4339(4) -0.0665(3)
H13 H -0.2205 0.4242 -0.1076
C23 C -0.3813(5) 0.4671(3) -0.0634(2)
H14 H -0.4337 0.4793 -0.1021
C24 C -0.4320(5) 0.4820(3) -0.0021(3)
C25 C -0.3477(5) 0.4615(3) 0.0539(2)
H15 H -0.3761 0.4700 0.0960
C26 C -0.2221(6) 0.4285(4) 0.0453(3)
H16 H -0.1676 0.4145 0.0829
Cu1 Cu 1.01062(7) 0.11160(5) 0.06484(3)
Cu2 Cu 0.00038(7) 0.37070(5) -0.01888(3)
N1 N 1.1820(4) 0.0706(3) 0.04311(19)
N2 N 0.8341(4) 0.1582(3) 0.0517(2)
N3 N 0.1760(5) 0.3266(3) -0.0028(2)
N4 N -0.1735(5) 0.4153(3) -0.0121(2)
O1 O 1.0432(4) 0.0773(2) 0.18013(17)
O2 O 1.0652(3) 0.2218(2) 0.19229(16)
O3 O 0.9283(3) 0.0680(2) 0.29549(16)
O4 O 0.9421(4) 0.2133(2) 0.30523(16)
O5 O 1.3158(4) -0.1724(3) 0.18165(18)
O6 O 1.1084(4) -0.1193(3) 0.18079(18)
O7 O 1.3810(4) -0.0867(2) 0.29482(18)
O8 O 1.1749(4) -0.0346(2) 0.29450(18)
O9 O 0.6795(4) -0.1679(3) 0.30378(18)
O10 O 0.8899(4) -0.1254(3) 0.29312(18)
O11 O 0.6035(4) -0.0913(3) 0.18904(18)
O12 O 0.8114(4) -0.0445(2) 0.17962(17)
Zn1 Zn 0.99150(6) -0.03546(4) 0.23616(3)
Zn2 Zn 1.00402(5) 0.32358(4) 0.25493(3)
C1B C 1.9696(5) -0.1484(3) -0.2110(2)
C2B C 2.0375(5) -0.1428(4) -0.2777(2)
C3A C 1.2725(5) 0.3716(3) 0.2941(2)
C4A C 1.2358(5) 0.4217(3) 0.2297(2)
C5A C 0.7317(5) 0.3702(3) 0.2260(3)
C6A C 0.7766(5) 0.4155(3) 0.2920(3)
C7B C 1.7225(5) -0.0456(4) -0.0900(2)
H1B H 1.7419 -0.0478 -0.1340
C8B C 1.5992(5) -0.0175(4) -0.0750(2)
H2B H 1.5361 -0.0005 -0.1086
C9B C 1.5671(6) -0.0142(3) -0.0090(3)
C10B C 1.6661(6) -0.0404(4) 0.0381(3)
H3B H 1.6496 -0.0402 0.0826
C11B C 1.7876(5) -0.0665(3) 0.0191(2)
H4B H 1.8532 -0.0824 0.0518
C12B C 2.2176(5) -0.1770(4) 0.0097(3)
H5B H 2.1654 -0.1660 0.0449
C13B C 2.3445(6) -0.2118(4) 0.0229(3)
H6B H 2.3762 -0.2252 0.0659
C14B C 2.4251(6) -0.2266(4) -0.0305(3)
C15B C 2.3699(5) -0.2059(4) -0.0924(3)
H7B H 2.4197 -0.2152 -0.1287
C16B C 2.2434(6) -0.1721(4) -0.1019(3)
H8B H 2.2099 -0.1582 -0.1446
C17B C 2.7672(6) -0.3161(4) -0.0582(3)
H9B H 2.8167 -0.3305 -0.0937
C18B C 2.6392(5) -0.2851(3) -0.0708(2)
H10B H 2.6034 -0.2796 -0.1142
C19B C 2.5620(6) -0.2617(4) -0.0188(2)
C20B C 2.6191(5) -0.2734(4) 0.0434(2)
H11B H 2.5713 -0.2597 0.0796
C21B C 2.7491(5) -0.3058(3) 0.0526(2)
H12B H 2.7860 -0.3136 0.0956
C22B C -0.7471(5) 0.5661(4) 0.0665(3)
H13B H -0.7795 0.5758 0.1076
C23B C -0.6187(5) 0.5329(3) 0.0634(2)
H14B H -0.5663 0.5207 0.1021
C24B C -0.5680(5) 0.5180(3) 0.0021(3)
C25B C -0.6523(5) 0.5385(3) -0.0539(2)
H15B H -0.6239 0.5300 -0.0960
C26B C -0.7779(6) 0.5715(4) -0.0453(3)
H16B H -0.8324 0.5855 -0.0829
Cu1B Cu 1.98938(7) -0.11160(5) -0.06484(3)
Cu2B Cu 2.99962(7) -0.37070(5) 0.01888(3)
Cu2B_2 Cu -1.00038(7) 0.62930(5) 0.01888(3)
N1B N 1.8180(4) -0.0706(3) -0.04311(19)
N2B N 2.1659(4) -0.1582(3) -0.0517(2)
N3B N 2.8240(5) -0.3266(3) 0.0028(2)
N4B N -0.8265(5) 0.5847(3) 0.0121(2)
N4B_2 N 3.1735(5) -0.4153(3) 0.0121(2)
O1B O 1.9568(4) -0.0773(2) -0.18013(17)
O2B O 1.9348(3) -0.2218(2) -0.19229(16)
O3B O 2.0717(3) -0.0680(2) -0.29549(16)
O4B O 2.0579(4) -0.2133(2) -0.30523(16)
O5A O 1.1842(4) 0.3276(3) 0.31835(18)
O5C O 1.8158(4) -0.3276(3) -0.31835(18)
O6A O 1.3916(4) 0.3807(3) 0.31921(18)
O6B O 1.8916(4) 0.1193(3) -0.18079(18)
O7A O 1.1190(4) 0.4133(2) 0.20518(18)
O7C O 1.8810(4) -0.4133(2) -0.20518(18)
O8A O 1.3251(4) 0.4654(2) 0.20550(18)
O8B O 1.8251(4) 0.0346(2) -0.29450(18)
O9A O 0.8205(4) 0.3321(3) 0.19622(18)
O9C O 2.1795(4) -0.3321(3) -0.19622(18)
O10A O 0.6101(4) 0.3746(3) 0.20688(18)
O10B O 2.1101(4) 0.1254(3) -0.29312(18)
O11A O 0.8965(4) 0.4087(3) 0.31096(18)
O11C O 2.1035(4) -0.4087(3) -0.31096(18)
O12A O 0.6886(4) 0.4555(2) 0.32038(17)
O12B O 2.1886(4) 0.0445(2) -0.17962(17)
Zn1B Zn 2.00850(6) 0.03546(4) -0.23616(3)
Zn1A Zn 1.50850(6) 0.46454(4) 0.26384(3)
Zn1A_2 Zn 0.50850(6) 0.46454(4) 0.26384(3)
Zn2B Zn 1.99598(5) -0.32358(4) -0.25493(3)
Zn2A Zn 1.49598(5) -0.17642(4) 0.24507(3)
Zn2A_2 Zn 0.49598(5) -0.17642(4) 0.24507(3)
C27 C -0.0427(6) 0.3313(4) -0.2015(3)
H17 H -0.1298 0.3597 -0.2072
H18 H -0.0363 0.2877 -0.2361
C28 C 0.0676(5) 0.3981(3) -0.2036(2)
H19 H 0.1557 0.3711 -0.1984
H20 H 0.0597 0.4328 -0.2438
O13 O -0.0249(4) 0.2907(3) -0.13770(19)
H21 H -0.0856 0.2520 -0.1342
O14 O 0.0390(4) 0.4475(2) -0.1483(2)
H22 H 0.0349 0.5018 -0.1588
loop_
_geom_bond_atom_site_label_1
_geom_bond_atom_site_label_2
_geom_bond_site_symmetry_1
_geom_bond_site_symmetry_2
C1 C2 1_555 1_555
C2 O3 1_555 1_555
C3 C4 1_555 1_555
C4 O7 1_555 1_555
C5 C6 1_555 1_555
C6 O11 1_555 1_555
C7 H1 1_555 1_555
C8 C7 1_555 1_555
H2 C8 1_555 1_555
C9 C8 1_555 1_555
C10 C9 1_555 1_555
H3 C10 1_555 1_555
C11 C10 1_555 1_555
H4 C11 1_555 1_555
C12 H5 1_555 1_555
C13 C12 1_555 1_555
H6 C13 1_555 1_555
C14 C13 1_555 1_555
C15 C14 1_555 1_555
H7 C15 1_555 1_555
C16 C15 1_555 1_555
H8 C16 1_555 1_555
C17 H9 1_555 1_555
C18 C17 1_555 1_555
H10 C18 1_555 1_555
C19 C14 1_555 1_555
C20 C19 1_555 1_555
H11 C20 1_555 1_555
C21 C20 1_555 1_555
H12 C21 1_555 1_555
C22 H13 1_555 1_555
C23 C22 1_555 1_555
H14 C23 1_555 1_555
C24 C23 1_555 1_555
C25 C24 1_555 1_555
H15 C25 1_555 1_555
C26 C25 1_555 1_555
H16 C26 1_555 1_555
C27 H17 1_555 1_555
H18 C27 1_555 1_555
C28 C27 1_555 1_555
H19 C28 1_555 1_555
H20 C28 1_555 1_555
Cu1 N1 1_555 1_555
Cu2 N3 1_555 1_555
N1 C7 1_555 1_555
N2 C12 1_555 1_555
N3 C17 1_555 1_555
N4 C22 1_555 1_555
O1 C1 1_555 1_555
O2 C1 1_555 1_555
O3 Zn1 1_555 1_555
O4 C2 1_555 1_555
O5 C3 1_555 1_555
O6 C3 1_555 1_555
O7 Zn2A 1_555 1_555
O8 C4 1_555 1_555
O9 C5 1_555 1_555
O10 C5 1_555 1_555
O11 Zn2A_2 1_555 1_555
O12 C6 1_555 1_555
O13 C27 1_555 1_555
H21 O13 1_555 1_555
O14 C28 1_555 1_555
H22 O14 1_555 1_555
Zn1 O1 1_555 1_555
Zn2 O2 1_555 1_555
C1B C2B 1_555 1_555
C2B O3B 1_555 1_555
C3A C4A 1_555 1_555
C4A O7A 1_555 1_555
C5A C6A 1_555 1_555
C6A O11A 1_555 1_555
C7B H1B 1_555 1_555
C8B C7B 1_555 1_555
H2B C8B 1_555 1_555
C9B C9 1_555 1_555
C10B C9B 1_555 1_555
H3B C10B 1_555 1_555
C11B C10B 1_555 1_555
H4B C11B 1_555 1_555
C12B H5B 1_555 1_555
C13B C12B 1_555 1_555
H6B C13B 1_555 1_555
C14B C13B 1_555 1_555
C15B C14B 1_555 1_555
H7B C15B 1_555 1_555
C16B C15B 1_555 1_555
H8B C16B 1_555 1_555
C17B H9B 1_555 1_555
C18B C17B 1_555 1_555
H10B C18B 1_555 1_555
C19B C14B 1_555 1_555
C20B C19B 1_555 1_555
H11B C20B 1_555 1_555
C21B C20B 1_555 1_555
H12B C21B 1_555 1_555
C22B H13B 1_555 1_555
C23B C22B 1_555 1_555
H14B C23B 1_555 1_555
C24B C24 1_555 1_555
C25B C24B 1_555 1_555
H15B C25B 1_555 1_555
C26B C25B 1_555 1_555
H16B C26B 1_555 1_555
Cu1B N1B 1_555 1_555
Cu2B N3B 1_555 1_555
Cu2B_2 N4B 1_555 1_555
N1B C7B 1_555 1_555
N2B C12B 1_555 1_555
N3B C17B 1_555 1_555
N4B C22B 1_555 1_555
N4B_2 Cu2B 1_555 1_555
O1B C1B 1_555 1_555
O2B C1B 1_555 1_555
O3B Zn1B 1_555 1_555
O4B C2B 1_555 1_555
O5A Zn2 1_555 1_555
O5C Zn2B 1_555 1_555
O6A C3A 1_555 1_555
O6B Zn1B 1_555 1_555
O7A Zn2 1_555 1_555
O7C Zn2B 1_555 1_555
O8A C4A 1_555 1_555
O8B Zn1B 1_555 1_555
O9A Zn2 1_555 1_555
O9C Zn2B 1_555 1_555
O10A C5A 1_555 1_555
O10B Zn1B 1_555 1_555
O11A Zn2 1_555 1_555
O11C Zn2B 1_555 1_555
O12A C6A 1_555 1_555
O12B Zn1B 1_555 1_555
Zn1B O1B 1_555 1_555
Zn1A O6A 1_555 1_555
Zn1A_2 O10A 1_555 1_555
Zn2B O2B 1_555 1_555
Zn2A O5 1_555 1_555
Zn2A_2 O9 1_555 1_555
C11 N1 1_555 1_555
C16 N2 1_555 1_555
C18 C19 1_555 1_555
C21 N3 1_555 1_555
C26 N4 1_555 1_555
Cu1 N2 1_555 1_555
Cu1 O1 1_555 1_555
Cu2 N4 1_555 1_555
O4 Zn2 1_555 1_555
O6 Zn1 1_555 1_555
O8 Zn1 1_555 1_555
O10 Zn1 1_555 1_555
O12 Zn1 1_555 1_555
C3A O5A 1_555 1_555
C5A O9A 1_555 1_555
C8B C9B 1_555 1_555
C11B N1B 1_555 1_555
C16B N2B 1_555 1_555
C18B C19B 1_555 1_555
C21B N3B 1_555 1_555
C23B C24B 1_555 1_555
C26B N4B 1_555 1_555
Cu1B N2B 1_555 1_555
Cu1B O1B 1_555 1_555
O4B Zn2B 1_555 1_555
O8A Zn1A 1_555 1_555
O12A Zn1A_2 1_555 1_555

#END
