
#######################################################################
#
#                 Cambridge Crystallographic Data Centre
#                                CCDC 
#
#######################################################################
#
# If this CIF has been generated from an entry in the Cambridge 
# Structural Database, then it will include bibliographic, chemical, 
# crystal, experimental, refinement or atomic coordinate data resulting 
# from the CCDC's data processing and validation procedures.
#
#######################################################################

data_BOFGIN
_symmetry_cell_setting           monoclinic
_symmetry_space_group_name_H-M   'C 2/c'
_symmetry_Int_Tables_number      15
_space_group_name_Hall           '-C 2yn'
loop_
_symmetry_equiv_pos_site_id
_symmetry_equiv_pos_as_xyz
1 x,y,z
2 1/2+x,1/2+y,z
3 -x,y,1/2-z
4 1/2-x,1/2+y,1/2-z
5 -x,-y,-z
6 1/2-x,1/2-y,-z
7 x,-y,1/2+z
8 1/2+x,1/2-y,1/2+z
_cell_length_a                   30.777(6)
_cell_length_b                   12.182(3)
_cell_length_c                   16.545(3)
_cell_angle_alpha                90
_cell_angle_beta                 110.950(2)
_cell_angle_gamma                90
_cell_volume                     5793.07
loop_
_atom_site_label
_atom_site_type_symbol
_atom_site_fract_x
_atom_site_fract_y
_atom_site_fract_z
Cd1 Cd 0.118620(8) 0.824413(18) 0.340282(14)
Cd2 Cd 0.0000 0.72728(3) 0.2500
O1 O 0.13883(8) 0.69532(19) 0.25720(14)
O2 O 0.06385(7) 0.73328(17) 0.20592(13)
O3 O 0.03834(8) 0.3873(2) -0.14500(14)
O4 O 0.10999(8) 0.3195(2) -0.07583(15)
O5 O 0.03910(7) 0.87055(19) 0.33688(13)
O6 O 0.09990(8) 0.9429(2) 0.43694(15)
O7 O 0.11837(9) 0.9711(2) 0.25028(16)
N1 N 0.19279(9) 0.8631(2) 0.42472(16)
N2 N 0.24886(9) 0.9109(2) 0.54609(18)
N3 N 0.09267(15) 1.1398(3) 0.1951(2)
C1 C 0.09230(10) 0.6037(2) 0.12894(18)
C2 C 0.05377(11) 0.6096(3) 0.0538(2)
H1 H 0.0308 0.6614 0.0491
C3 C 0.04891(11) 0.5395(3) -0.0145(2)
H2 H 0.0229 0.5452 -0.0649
C4 C 0.08246(11) 0.4605(3) -0.0087(2)
C5 C 0.12104(12) 0.4545(3) 0.0670(2)
H3 H 0.1438 0.4019 0.0723
C6 C 0.12608(11) 0.5253(3) 0.1341(2)
H4 H 0.1525 0.5209 0.1839
C7 C 0.09866(11) 0.6812(3) 0.20252(19)
C8 C 0.07650(12) 0.3818(3) -0.0827(2)
C9 C 0.05734(11) 0.9229(3) 0.4069(2)
C10 C 0.02727(11) 0.9637(3) 0.4544(2)
C11 C 0.04455(11) 1.0402(3) 0.5200(2)
H5 H 0.0745 1.0675 0.5334
C12 C -0.01724(11) 0.9237(3) 0.4343(2)
H6 H -0.0290 0.8726 0.3901
C13 C 0.09095(18) 1.0465(4) 0.2358(3)
H7 H 0.0662 1.0384 0.2551
C14 C 0.0576(3) 1.2242(5) 0.1786(5)
H8 H 0.0346 1.2021 0.2022
H9 H 0.0430 1.2350 0.1173
H10 H 0.0718 1.2915 0.2053
C15 C 0.1300(2) 1.1563(4) 0.1623(3)
H11 H 0.1488 1.0913 0.1721
H12 H 0.1489 1.2171 0.1918
H13 H 0.1171 1.1715 0.1014
C16 C 0.20306(11) 0.8983(3) 0.5047(2)
H14 H 0.1809 0.9128 0.5296
C17 C 0.23511(12) 0.8532(3) 0.4146(2)
H15 H 0.2394 0.8296 0.3644
C18 C 0.26944(12) 0.8829(3) 0.4885(2)
H16 H 0.3011 0.8841 0.4983
C19 C 0.27134(13) 0.9492(3) 0.6360(2)
H17 H 0.3044 0.9331 0.6555
H18 H 0.2584 0.9098 0.6730
C20 C 0.26456(13) 1.0707(3) 0.6438(2)
C21 C 0.22973(16) 1.1062(4) 0.6706(3)
H19 H 0.2126 1.0550 0.6883
C22 C 0.21922(18) 1.2188(5) 0.6718(3)
H20 H 0.1952 1.2411 0.6898
C23 C 0.24384(19) 1.2935(4) 0.6471(3)
H21 H 0.2364 1.3675 0.6476
C24 C 0.28129(16) 1.2620(3) 0.6202(3)
C25 C 0.3072(2) 1.3390(4) 0.5958(3)
H22 H 0.2999 1.4130 0.5960
C26 C 0.3425(2) 1.3087(5) 0.5718(4)
H23 H 0.3593 1.3617 0.5550
C27 C 0.3543(2) 1.1988(5) 0.5716(4)
H24 H 0.3794 1.1791 0.5556
C28 C 0.32980(15) 1.1198(4) 0.5944(3)
H25 H 0.3379 1.0464 0.5932
C29 C 0.29189(14) 1.1481(3) 0.6201(2)
Cd1B Cd -0.118620(8) 0.824413(18) 0.159718(14)
Cd1F Cd 0.118620(8) 0.175587(18) -0.159718(14)
Cd1D Cd -0.118620(8) 1.175587(18) 0.659718(14)
Cd1D_2 Cd -0.118620(8) 0.175587(18) 0.659718(14)
Cd2F Cd 0.0000 0.27272(3) -0.2500
Cd2F_2 Cd 0.0000 1.27272(3) 0.7500
Cd2F_3 Cd 0.0000 0.27272(3) 0.7500
O1B O -0.13883(8) 0.69532(19) 0.24280(14)
O2B O -0.06385(7) 0.73328(17) 0.29408(13)
O3B O -0.03834(8) 0.3873(2) 0.64500(14)
O3F O 0.03834(8) 0.6127(2) 0.35500(14)
O3D O -0.03834(8) 0.6127(2) 0.14500(14)
O4B O -0.10999(8) 0.3195(2) 0.57583(15)
O4F O 0.10999(8) 0.6805(2) 0.42417(15)
O4D O -0.10999(8) 0.6805(2) 0.07583(15)
O5D O -0.03910(7) 1.12945(19) 0.66312(13)
O5B O -0.03910(7) 0.87055(19) 0.16312(13)
O6D O -0.09990(8) 1.0571(2) 0.56306(15)
O6B O -0.09990(8) 0.9429(2) 0.06306(15)
O7B O -0.11837(9) 0.9711(2) 0.24972(16)
N1B N -0.19279(9) 0.8631(2) 0.07528(16)
N2B N -0.24886(9) 0.9109(2) -0.04609(18)
N3B N -0.09267(15) 1.1398(3) 0.3049(2)
C1B C -0.09230(10) 0.6037(2) 0.37106(18)
C2B C -0.05377(11) 0.6096(3) 0.4462(2)
H1B H -0.0308 0.6614 0.4509
C3B C -0.04891(11) 0.5395(3) 0.5145(2)
H2B H -0.0229 0.5452 0.5649
C4B C -0.08246(11) 0.4605(3) 0.5087(2)
C5B C -0.12104(12) 0.4545(3) 0.4330(2)
H3B H -0.1438 0.4019 0.4277
C6B C -0.12608(11) 0.5253(3) 0.3659(2)
H4B H -0.1525 0.5209 0.3161
C7B C -0.09866(11) 0.6812(3) 0.29748(19)
C8B C -0.07650(12) 0.3818(3) 0.5827(2)
C9D C -0.05734(11) 1.0771(3) 0.5931(2)
C10D C -0.02727(11) 1.0363(3) 0.5456(2)
C11D C -0.04455(11) 0.9598(3) 0.4800(2)
H5D H -0.0745 0.9325 0.4666
C12D C 0.01724(11) 1.0763(3) 0.5657(2)
H6D H 0.0290 1.1274 0.6099
C13B C -0.09095(18) 1.0465(4) 0.2642(3)
H7B H -0.0662 1.0384 0.2449
C14B C -0.0576(3) 1.2242(5) 0.3214(5)
H8B H -0.0346 1.2021 0.2978
H9B H -0.0430 1.2350 0.3827
H10B H -0.0718 1.2915 0.2947
C15B C -0.1300(2) 1.1563(4) 0.3377(3)
H11B H -0.1488 1.0913 0.3279
H12B H -0.1489 1.2171 0.3082
H13B H -0.1171 1.1715 0.3986
C16B C -0.20306(11) 0.8983(3) -0.0047(2)
H14B H -0.1809 0.9128 -0.0296
C17B C -0.23511(12) 0.8532(3) 0.0854(2)
H15B H -0.2394 0.8296 0.1356
C18B C -0.26944(12) 0.8829(3) 0.0115(2)
H16B H -0.3011 0.8841 0.0017
C19B C -0.27134(13) 0.9492(3) -0.1360(2)
H17B H -0.3044 0.9331 -0.1555
H18B H -0.2584 0.9098 -0.1730
C20B C -0.26456(13) 1.0707(3) -0.1438(2)
C21B C -0.22973(16) 1.1062(4) -0.1706(3)
H19B H -0.2126 1.0550 -0.1883
C22B C -0.21922(18) 1.2188(5) -0.1718(3)
H20B H -0.1952 1.2411 -0.1898
C23B C -0.24384(19) 1.2935(4) -0.1471(3)
H21B H -0.2364 1.3675 -0.1476
C24B C -0.28129(16) 1.2620(3) -0.1202(3)
C25B C -0.3072(2) 1.3390(4) -0.0958(3)
H22B H -0.2999 1.4130 -0.0960
C26B C -0.3425(2) 1.3087(5) -0.0718(4)
H23B H -0.3593 1.3617 -0.0550
C27B C -0.3543(2) 1.1988(5) -0.0716(4)
H24B H -0.3794 1.1791 -0.0556
C28B C -0.32980(15) 1.1198(4) -0.0944(3)
H25B H -0.3379 1.0464 -0.0932
C29B C -0.29189(14) 1.1481(3) -0.1201(2)
O8 O 0.0000 0.4116(11) 0.2500
loop_
_geom_bond_atom_site_label_1
_geom_bond_atom_site_label_2
_geom_bond_site_symmetry_1
_geom_bond_site_symmetry_2
Cd1 O1 1_555 1_555
Cd2 O2 1_555 1_555
O1 C7 1_555 1_555
O2 Cd1 1_555 1_555
O3 C8 1_555 1_555
O4 C8 1_555 1_555
O5 Cd1 1_555 1_555
O6 Cd1 1_555 1_555
O7 Cd1 1_555 1_555
N1 Cd1 1_555 1_555
N2 C16 1_555 1_555
N3 C13 1_555 1_555
C1 C2 1_555 1_555
C2 H1 1_555 1_555
C3 C2 1_555 1_555
H2 C3 1_555 1_555
C4 C3 1_555 1_555
C5 C4 1_555 1_555
H3 C5 1_555 1_555
C6 C1 1_555 1_555
H4 C6 1_555 1_555
C7 O2 1_555 1_555
C8 C4 1_555 1_555
C9 O5 1_555 1_555
C10 C9 1_555 1_555
C11 C10 1_555 1_555
H5 C11 1_555 1_555
C12 C10 1_555 1_555
H6 C12 1_555 1_555
C13 O7 1_555 1_555
H7 C13 1_555 1_555
C14 N3 1_555 1_555
H8 C14 1_555 1_555
H9 C14 1_555 1_555
H10 C14 1_555 1_555
C15 N3 1_555 1_555
H11 C15 1_555 1_555
H12 C15 1_555 1_555
H13 C15 1_555 1_555
C16 N1 1_555 1_555
H14 C16 1_555 1_555
C17 N1 1_555 1_555
H15 C17 1_555 1_555
C18 N2 1_555 1_555
H16 C18 1_555 1_555
C19 N2 1_555 1_555
H17 C19 1_555 1_555
H18 C19 1_555 1_555
C20 C19 1_555 1_555
C21 C20 1_555 1_555
H19 C21 1_555 1_555
C22 C21 1_555 1_555
H20 C22 1_555 1_555
C23 C22 1_555 1_555
H21 C23 1_555 1_555
C24 C23 1_555 1_555
C25 C24 1_555 1_555
H22 C25 1_555 1_555
C26 C25 1_555 1_555
H23 C26 1_555 1_555
C27 C26 1_555 1_555
H24 C27 1_555 1_555
C28 C27 1_555 1_555
H25 C28 1_555 1_555
C29 C20 1_555 1_555
Cd1B O1B 1_555 1_555
Cd1F O4 1_555 1_555
Cd1D O5D 1_555 1_555
Cd1D_2 O4B 1_555 1_555
Cd2F O3 1_555 1_555
Cd2F_2 O5D 1_555 1_555
Cd2F_3 O3B 1_555 1_555
O1B C7B 1_555 1_555
O2B Cd2 1_555 1_555
O3B C8B 1_555 1_555
O3F Cd2 1_555 1_555
O3D Cd2 1_555 1_555
O4B C8B 1_555 1_555
O4F Cd1 1_555 1_555
O4D Cd1B 1_555 1_555
O5D C9D 1_555 1_555
O5B Cd2 1_555 1_555
O6D Cd1D 1_555 1_555
O6B Cd1B 1_555 1_555
O7B Cd1B 1_555 1_555
N1B Cd1B 1_555 1_555
N2B C16B 1_555 1_555
N3B C13B 1_555 1_555
C1B C2B 1_555 1_555
C2B H1B 1_555 1_555
C3B C2B 1_555 1_555
H2B C3B 1_555 1_555
C4B C3B 1_555 1_555
C5B C4B 1_555 1_555
H3B C5B 1_555 1_555
C6B C1B 1_555 1_555
H4B C6B 1_555 1_555
C7B O2B 1_555 1_555
C8B C4B 1_555 1_555
C9D O6D 1_555 1_555
C10D C9D 1_555 1_555
C11D C12 1_555 1_555
H5D C11D 1_555 1_555
C12D C11 1_555 1_555
H6D C12D 1_555 1_555
C13B O7B 1_555 1_555
H7B C13B 1_555 1_555
C14B N3B 1_555 1_555
H8B C14B 1_555 1_555
H9B C14B 1_555 1_555
H10B C14B 1_555 1_555
C15B N3B 1_555 1_555
H11B C15B 1_555 1_555
H12B C15B 1_555 1_555
H13B C15B 1_555 1_555
C16B N1B 1_555 1_555
H14B C16B 1_555 1_555
C17B N1B 1_555 1_555
H15B C17B 1_555 1_555
C18B N2B 1_555 1_555
H16B C18B 1_555 1_555
C19B N2B 1_555 1_555
H17B C19B 1_555 1_555
H18B C19B 1_555 1_555
C20B C19B 1_555 1_555
C21B C20B 1_555 1_555
H19B C21B 1_555 1_555
C22B C21B 1_555 1_555
H20B C22B 1_555 1_555
C23B C22B 1_555 1_555
H21B C23B 1_555 1_555
C24B C23B 1_555 1_555
C25B C24B 1_555 1_555
H22B C25B 1_555 1_555
C26B C25B 1_555 1_555
H23B C26B 1_555 1_555
C27B C26B 1_555 1_555
H24B C27B 1_555 1_555
C28B C27B 1_555 1_555
H25B C28B 1_555 1_555
C29B C20B 1_555 1_555
Cd2 O5 1_555 1_555
O6 C9 1_555 1_555
C1 C7 1_555 1_555
C5 C6 1_555 1_555
C17 C18 1_555 1_555
C24 C29 1_555 1_555
C28 C29 1_555 1_555
Cd1B O2B 1_555 1_555
Cd1B O5B 1_555 1_555
C1B C7B 1_555 1_555
C5B C6B 1_555 1_555
C10D C11D 1_555 1_555
C10D C12D 1_555 1_555
C17B C18B 1_555 1_555
C24B C29B 1_555 1_555
C28B C29B 1_555 1_555

#END
