
#######################################################################
#
#                 Cambridge Crystallographic Data Centre
#                                CCDC 
#
#######################################################################
#
# If this CIF has been generated from an entry in the Cambridge 
# Structural Database, then it will include bibliographic, chemical, 
# crystal, experimental, refinement or atomic coordinate data resulting 
# from the CCDC's data processing and validation procedures.
#
#######################################################################

data_BOFJIQ
_symmetry_cell_setting           orthorhombic
_symmetry_space_group_name_H-M   'P b c n'
_symmetry_Int_Tables_number      60
_space_group_name_Hall           '-P 2n 2ab'
loop_
_symmetry_equiv_pos_site_id
_symmetry_equiv_pos_as_xyz
1 x,y,z
2 1/2-x,1/2-y,1/2+z
3 1/2+x,1/2-y,-z
4 -x,y,1/2-z
5 -x,-y,-z
6 1/2+x,1/2+y,1/2-z
7 1/2-x,1/2+y,z
8 x,-y,1/2+z
_cell_length_a                   15.9593(12)
_cell_length_b                   5.9540(4)
_cell_length_c                   18.5850(13)
_cell_angle_alpha                90
_cell_angle_beta                 90
_cell_angle_gamma                90
_cell_volume                     1765.98
loop_
_atom_site_label
_atom_site_type_symbol
_atom_site_fract_x
_atom_site_fract_y
_atom_site_fract_z
Zn1 Zn 1.0000 -0.60653(5) 0.7500
Zn2 Zn 1.175128(13) 0.08161(3) 0.853886(12)
O1 O 1.07067(8) -0.3365(2) 0.79879(7)
O2 O 1.07311(8) -0.1054(2) 0.89423(8)
O3 O 0.86695(8) -0.3541(2) 1.09436(7)
O4 O 0.75103(8) -0.5367(2) 1.05643(7)
O5 O 0.79966(9) -1.0020(2) 0.82157(8)
O6 O 0.89271(8) -0.8396(2) 0.74605(7)
O7 O 1.22452(8) -0.2144(2) 0.80173(8)
N1 N 0.94507(10) -0.5657(3) 0.84684(8)
C1 C 0.96932(11) -0.3958(3) 0.88936(11)
C2 C 1.04336(11) -0.2663(3) 0.85872(10)
C3 C 0.93076(11) -0.3548(3) 0.95490(11)
C4 C 0.86584(10) -0.4980(3) 0.97606(10)
C5 C 0.84007(11) -0.6726(3) 0.93098(11)
C6 C 0.88152(11) -0.6996(3) 0.86584(10)
C7 C 0.82376(11) -0.4597(3) 1.04835(10)
C8 C 0.85588(11) -0.8651(3) 0.80755(10)
H1 H 0.7970(15) -0.766(4) 0.9442(13)
H2 H 0.9468(15) -0.233(4) 0.9826(14)
H3 H 1.232(2) -0.176(7) 0.762(2)
H4 H 1.1736(17) -0.283(5) 0.8006(15)
Zn2C Zn 0.824872(13) 0.08161(3) 0.646114(12)
Zn2D Zn 0.824872(13) -0.08161(3) 1.146114(12)
Zn2B Zn 0.675128(13) -0.58161(3) 1.146114(12)
Zn2C_2 Zn 0.824872(13) -0.91839(3) 0.646114(12)
Zn2F Zn 1.324872(13) -0.41839(3) 0.853886(12)
Zn2G Zn 1.175128(13) -0.08161(3) 0.353886(12)
Zn2A Zn 1.324872(13) -0.58161(3) 0.353886(12)
Zn2_2 Zn 1.175128(13) -0.91839(3) 0.853886(12)
Zn2F_2 Zn 1.324872(13) 0.58161(3) 0.853886(12)
O1C O 0.92933(8) -0.3365(2) 0.70121(7)
O2C O 0.92689(8) -0.1054(2) 0.60577(8)
O3C O 1.13305(8) -0.3541(2) 0.40564(7)
O3D O 1.13305(8) 0.3541(2) 0.90564(7)
O3G O 0.86695(8) 0.3541(2) 0.59436(7)
O4C O 1.24897(8) -0.5367(2) 0.44357(7)
O4B O 1.25103(8) 0.0367(2) 0.94357(7)
O4A O 0.74897(8) 0.0367(2) 0.55643(7)
O5C O 1.20034(9) -1.0020(2) 0.67843(8)
O6C O 1.10729(8) -0.8396(2) 0.75395(7)
O6C_2 O 1.10729(8) 0.1604(2) 0.75395(7)
O6_2 O 0.89271(8) 0.1604(2) 0.74605(7)
O7F O 1.27548(8) 0.2856(2) 0.80173(8)
O7E O 0.72452(8) 0.2856(2) 0.69827(8)
O7C O 0.77548(8) -0.2144(2) 0.69827(8)
N1C N 1.05493(10) -0.5657(3) 0.65316(8)
C1C C 1.03068(11) -0.3958(3) 0.61064(11)
C2C C 0.95664(11) -0.2663(3) 0.64128(10)
C3C C 1.06924(11) -0.3548(3) 0.54510(11)
C4C C 1.13416(10) -0.4980(3) 0.52394(10)
C5C C 1.15993(11) -0.6726(3) 0.56902(11)
C6C C 1.11848(11) -0.6996(3) 0.63416(10)
C7C C 1.17624(11) -0.4597(3) 0.45165(10)
C8C C 1.14412(11) -0.8651(3) 0.69245(10)
H1C H 1.2030(15) -0.766(4) 0.5558(13)
H2C H 1.0532(15) -0.233(4) 0.5174(14)
H3F H 1.268(2) 0.324(7) 0.762(2)
H3E H 0.732(2) 0.324(7) 0.738(2)
H3C H 0.768(2) -0.176(7) 0.738(2)
H4F H 1.3264(17) 0.217(5) 0.8006(15)
H4E H 0.6736(17) 0.217(5) 0.6994(15)
H4C H 0.8264(17) -0.283(5) 0.6994(15)
loop_
_geom_bond_atom_site_label_1
_geom_bond_atom_site_label_2
_geom_bond_site_symmetry_1
_geom_bond_site_symmetry_2
Zn1 O1 1_555 1_555
Zn2 O2 1_555 1_555
O1 C2 1_555 1_555
O2 C2 1_555 1_555
O3 C7 1_555 1_555
O4 C7 1_555 1_555
O5 C8 1_555 1_555
O6 Zn1 1_555 1_555
O7 Zn2 1_555 1_555
N1 Zn1 1_555 1_555
C1 N1 1_555 1_555
C2 C1 1_555 1_555
C3 C1 1_555 1_555
C4 C3 1_555 1_555
C5 C4 1_555 1_555
C6 N1 1_555 1_555
C7 C4 1_555 1_555
C8 O6 1_555 1_555
H1 C5 1_555 1_555
H2 C3 1_555 1_555
H3 O7 1_555 1_555
H4 O7 1_555 1_555
Zn2C O2C 1_555 1_555
Zn2D O3 1_555 1_555
Zn2B O4 1_555 1_555
Zn2C_2 O6 1_555 1_555
Zn2F O7 1_555 1_555
Zn2G O3C 1_555 1_555
Zn2A O4C 1_555 1_555
Zn2_2 O6C 1_555 1_555
Zn2F_2 O7F 1_555 1_555
O1C Zn1 1_555 1_555
O2C C2C 1_555 1_555
O3C C7C 1_555 1_555
O3D Zn2 1_555 1_555
O3G Zn2C 1_555 1_555
O4C C7C 1_555 1_555
O4B Zn2 1_555 1_555
O4A Zn2C 1_555 1_555
O5C C8C 1_555 1_555
O6C Zn1 1_555 1_555
O6C_2 Zn2 1_555 1_555
O6_2 Zn2C 1_555 1_555
O7F Zn2 1_555 1_555
O7E Zn2C 1_555 1_555
O7C Zn2C 1_555 1_555
N1C Zn1 1_555 1_555
C1C N1C 1_555 1_555
C2C O1C 1_555 1_555
C3C C1C 1_555 1_555
C4C C3C 1_555 1_555
C5C C4C 1_555 1_555
C6C N1C 1_555 1_555
C7C C4C 1_555 1_555
C8C O6C 1_555 1_555
H1C C5C 1_555 1_555
H2C C3C 1_555 1_555
H3F O7F 1_555 1_555
H3E O7E 1_555 1_555
H3C O7C 1_555 1_555
H4F O7F 1_555 1_555
H4E O7E 1_555 1_555
H4C O7C 1_555 1_555
C5 C6 1_555 1_555
C6 C8 1_555 1_555
C1C C2C 1_555 1_555
C5C C6C 1_555 1_555
C6C C8C 1_555 1_555

#END
