
#######################################################################
#
#                 Cambridge Crystallographic Data Centre
#                                CCDC 
#
#######################################################################
#
# If this CIF has been generated from an entry in the Cambridge 
# Structural Database, then it will include bibliographic, chemical, 
# crystal, experimental, refinement or atomic coordinate data resulting 
# from the CCDC's data processing and validation procedures.
#
#######################################################################

data_BOFKAJ
_symmetry_cell_setting           monoclinic
_symmetry_space_group_name_H-M   'P 21/n'
_symmetry_Int_Tables_number      14
_space_group_name_Hall           '-P 2yn'
loop_
_symmetry_equiv_pos_site_id
_symmetry_equiv_pos_as_xyz
1 x,y,z
2 1/2-x,1/2+y,1/2-z
3 -x,-y,-z
4 1/2+x,1/2-y,1/2+z
_cell_length_a                   10.617(3)
_cell_length_b                   9.427(3)
_cell_length_c                   25.735(9)
_cell_angle_alpha                90.00
_cell_angle_beta                 96.036(6)
_cell_angle_gamma                90.00
_cell_volume                     2561.45
loop_
_atom_site_label
_atom_site_type_symbol
_atom_site_fract_x
_atom_site_fract_y
_atom_site_fract_z
Ag1 Ag 0.12880(7) 0.16593(6) 1.01775(3)
Ag2 Ag 0.39830(7) 1.12050(8) 0.98610(3)
N1 N 0.0742(6) 0.2762(6) 0.9355(2)
N2 N 0.1804(6) 0.4051(6) 1.0235(2)
N3 N 0.3417(7) 1.0595(7) 0.9071(3)
N4 N -0.0315(7) 1.2604(8) 0.5541(3)
O1 O -0.0452(7) 0.6408(7) 0.7964(2)
O2 O -0.1175(8) 0.4333(8) 0.7605(3)
O3 O 0.3412(6) 0.9010(6) 1.0446(2)
O4 O 0.1382(5) 0.9302(5) 1.0142(2)
C1 C 0.0196(8) 0.2145(9) 0.8925(3)
H1 H 0.0094 0.1167 0.8938
C2 C -0.0223(8) 0.2778(9) 0.8476(3)
H2 H -0.0581 0.2250 0.8193
C3 C -0.0114(8) 0.4212(9) 0.8442(3)
C4 C 0.0483(7) 0.4933(8) 0.8884(3)
H3 H 0.0615 0.5908 0.8877
C5 C 0.0871(7) 0.4136(8) 0.9331(3)
C6 C 0.1451(6) 0.4899(7) 0.9823(3)
C7 C 0.1569(7) 0.6401(7) 0.9849(3)
H4 H 0.1248 0.6958 0.9567
C8 C 0.2155(6) 0.7022(7) 1.0289(3)
C9 C 0.2574(7) 0.6180(7) 1.0714(3)
H5 H 0.2991 0.6570 1.1017
C10 C 0.2345(7) 0.4710(8) 1.0670(3)
H6 H 0.2583 0.4150 1.0961
C11 C -0.0613(9) 0.5105(12) 0.7972(3)
C12 C 0.2343(9) 0.8565(9) 1.0298(3)
C13 C 0.2437(8) 0.9662(10) 0.8950(3)
H7 H 0.1970 0.9378 0.9218
C14 C 0.2101(8) 0.9120(9) 0.8459(3)
H8 H 0.1440 0.8472 0.8402
C15 C 0.2765(8) 0.9558(9) 0.8050(4)
C16 C 0.3746(8) 1.0546(9) 0.8171(3)
H9 H 0.4199 1.0883 0.7906
C17 C 0.4041(9) 1.1015(10) 0.8668(4)
H10 H 0.4705 1.1656 0.8733
C18 C 0.2476(10) 0.8859(10) 0.7517(3)
H11 H 0.1840 0.8130 0.7540
H12 H 0.3237 0.8402 0.7421
C19 C 0.1990(16) 0.9932(17) 0.7078(5)
H13 H 0.2238 1.0866 0.7211
H14 H 0.2484 0.9752 0.6789
C20 C -0.0576(9) 1.2938(9) 0.6027(4)
H15 H -0.1071 1.3740 0.6061
C21 C -0.0199(10) 1.2239(12) 0.6462(4)
H16 H -0.0412 1.2582 0.6780
C22 C 0.0768(9) 1.0667(11) 0.5970(7)
H17 H 0.1243 0.9845 0.5946
C23 C 0.0358(9) 1.1493(11) 0.5511(5)
H18 H 0.0588 1.1210 0.5188
C24 C 0.0921(11) 1.004(2) 0.6893(8)
H19 H 0.0676 0.9107 0.6757
H20 H 0.0425 1.0209 0.7183
C25 C 0.0433(12) 1.1135(17) 0.6453(6)
O7 O 0.0925(7) 0.1700(7) 1.1184(2)
H23 H 0.035(8) 0.247(16) 1.130(4)
H24 H 0.164(8) 0.246(12) 1.152(4)
Ag1_2 Ag 0.12880(7) 1.16593(6) 1.01775(3)
Ag2_2 Ag 0.39830(7) 0.12050(8) 0.98610(3)
Ag2B Ag 0.60170(7) 0.87950(8) 1.01390(3)
Ag2C Ag -0.10170(7) 1.37950(8) 0.48610(3)
N4C N 0.4685(7) 1.2396(8) 1.0541(3)
O4_2 O 0.1382(5) -0.0698(5) 1.0142(2)
O5 O 0.3447(9) 0.7090(9) 0.2092(3)
H21 H 0.2662(18) 0.704(15) 0.209(3)
H26 H 0.385(7) 0.735(11) 0.2377(18)
O6 O 0.2577(9) 0.9774(9) 0.1680(3)
H22 H 0.25(2) 0.887(3) 0.173(8)
H25 H 0.26(2) 1.025(17) 0.195(4)
loop_
_geom_bond_atom_site_label_1
_geom_bond_atom_site_label_2
_geom_bond_site_symmetry_1
_geom_bond_site_symmetry_2
Ag1 N1 1_555 1_555
Ag2 N3 1_555 1_555
N1 C1 1_555 1_555
N2 Ag1 1_555 1_555
N3 C13 1_555 1_555
N4 C20 1_555 1_555
O1 C11 1_555 1_555
O2 C11 1_555 1_555
O3 Ag2 1_555 1_555
O4 C12 1_555 1_555
C1 H1 1_555 1_555
C2 C1 1_555 1_555
H2 C2 1_555 1_555
C3 C2 1_555 1_555
C4 C3 1_555 1_555
H3 C4 1_555 1_555
C5 N1 1_555 1_555
C6 N2 1_555 1_555
C7 C6 1_555 1_555
H4 C7 1_555 1_555
C8 C7 1_555 1_555
C9 C8 1_555 1_555
H5 C9 1_555 1_555
C10 N2 1_555 1_555
H6 C10 1_555 1_555
C11 C3 1_555 1_555
C12 O3 1_555 1_555
C13 H7 1_555 1_555
C14 C13 1_555 1_555
H8 C14 1_555 1_555
C15 C14 1_555 1_555
C16 C15 1_555 1_555
H9 C16 1_555 1_555
C17 N3 1_555 1_555
H10 C17 1_555 1_555
C18 C15 1_555 1_555
H11 C18 1_555 1_555
H12 C18 1_555 1_555
C19 C18 1_555 1_555
H13 C19 1_555 1_555
H14 C19 1_555 1_555
C20 H15 1_555 1_555
C21 C20 1_555 1_555
H16 C21 1_555 1_555
C22 H17 1_555 1_555
C23 N4 1_555 1_555
H18 C23 1_555 1_555
C24 C19 1_555 1_555
H19 C24 1_555 1_555
H20 C24 1_555 1_555
C25 C21 1_555 1_555
O5 H21 1_555 1_555
O6 H22 1_555 1_555
O7 Ag1 1_555 1_555
H23 O7 1_555 1_555
H24 O7 1_555 1_555
H25 O6 1_555 1_555
H26 O5 1_555 1_555
Ag1_2 Ag2 1_555 1_555
Ag2_2 Ag1 1_555 1_555
Ag2B Ag2 1_555 1_555
Ag2C N4 1_555 1_555
N4C Ag2 1_555 1_555
O4_2 Ag1 1_555 1_555
O4 Ag1_2 1_555 1_555
C4 C5 1_555 1_555
C5 C6 1_555 1_555
C8 C12 1_555 1_555
C9 C10 1_555 1_555
C16 C17 1_555 1_555
C22 C23 1_555 1_555
C22 C25 1_555 1_555
C24 C25 1_555 1_555

#END
