
#######################################################################
#
#                 Cambridge Crystallographic Data Centre
#                                CCDC 
#
#######################################################################
#
# If this CIF has been generated from an entry in the Cambridge 
# Structural Database, then it will include bibliographic, chemical, 
# crystal, experimental, refinement or atomic coordinate data resulting 
# from the CCDC's data processing and validation procedures.
#
#######################################################################

data_BOFSUL
_symmetry_cell_setting           monoclinic
_symmetry_space_group_name_H-M   'P 21/c'
_symmetry_Int_Tables_number      14
_space_group_name_Hall           '-P 2ybc'
loop_
_symmetry_equiv_pos_site_id
_symmetry_equiv_pos_as_xyz
1 x,y,z
2 -x,1/2+y,1/2-z
3 -x,-y,-z
4 x,1/2-y,1/2+z
_cell_length_a                   17.332(4)
_cell_length_b                   5.2591(11)
_cell_length_c                   14.009(3)
_cell_angle_alpha                90
_cell_angle_beta                 100.37(3)
_cell_angle_gamma                90
_cell_volume                     1256.07
loop_
_atom_site_label
_atom_site_type_symbol
_atom_site_fract_x
_atom_site_fract_y
_atom_site_fract_z
Na1 Na 0.00796(4) -0.05352(15) -0.36792(5)
P1 P 0.19558(3) -0.34064(9) -0.32702(3)
N1 N 0.25953(9) -0.1072(3) -0.29465(11)
H1 H 0.2462 0.0412 -0.3176
O1 O 0.13141(7) -0.2293(3) -0.40183(9)
O2 O 0.17345(7) -0.4754(3) -0.24248(9)
O3 O 0.24236(7) -0.5523(2) -0.37689(9)
O4 O -0.10232(8) 0.2335(3) -0.39438(12)
H2 H -0.1189(14) 0.225(5) -0.452(2)
H3 H -0.1341(14) 0.175(5) -0.3640(18)
C1 C 0.33360(10) -0.1273(4) -0.23328(13)
C2 C 0.38995(11) 0.0585(4) -0.23824(14)
H4 H 0.3788 0.1914 -0.2824
C3 C 0.46266(11) 0.0463(4) -0.17762(15)
H5 H 0.5000 0.1712 -0.1814
C4 C 0.48004(11) -0.1499(4) -0.11166(14)
H6 H 0.5286 -0.1570 -0.0707
C5 C 0.42426(12) -0.3354(4) -0.10748(14)
H7 H 0.4357 -0.4687 -0.0636
C6 C 0.35148(11) -0.3260(4) -0.16763(14)
H8 H 0.3146 -0.4526 -0.1641
C7 C 0.28512(11) -0.4788(4) -0.45230(14)
H9 H 0.3373 -0.4213 -0.4235
H10 H 0.2582 -0.3404 -0.4902
C8 C 0.29054(15) -0.7019(4) -0.51579(16)
H11 H 0.3188 -0.6552 -0.5661
H12 H 0.2387 -0.7570 -0.5444
H13 H 0.3176 -0.8376 -0.4779
O5 O -0.06084(9) -0.2486(3) -0.52189(10)
H14 H -0.104(2) -0.183(6) -0.539(2)
H15 H -0.0714(17) -0.400(7) -0.532(2)
O6 O -0.06148(9) -0.3372(3) -0.27843(10)
H16 H -0.0739(13) -0.449(5) -0.3168(18)
H17 H -0.0987(17) -0.250(6) -0.268(2)
Na1B Na -0.00796(4) 0.05352(15) -0.63208(5)
Na1A Na -0.00796(4) -0.55352(15) -0.13208(5)
O5B O 0.06084(9) 0.2486(3) -0.47811(10)
H14B H 0.104(2) 0.183(6) -0.461(2)
H15B H 0.0714(17) 0.400(7) -0.468(2)
O6A O 0.06148(9) 0.1628(3) -0.22157(10)
H16A H 0.0739(13) 0.051(5) -0.1832(18)
H17A H 0.0987(17) 0.250(6) -0.232(2)
loop_
_geom_bond_atom_site_label_1
_geom_bond_atom_site_label_2
_geom_bond_site_symmetry_1
_geom_bond_site_symmetry_2
Na1 O1 1_555 1_555
P1 N1 1_555 1_555
N1 H1 1_555 1_555
O1 P1 1_555 1_555
O2 P1 1_555 1_555
O3 P1 1_555 1_555
O4 Na1 1_555 1_555
H2 O4 1_555 1_555
H3 O4 1_555 1_555
C1 N1 1_555 1_555
C2 C1 1_555 1_555
H4 C2 1_555 1_555
C3 C2 1_555 1_555
H5 C3 1_555 1_555
C4 C3 1_555 1_555
H6 C4 1_555 1_555
C5 C4 1_555 1_555
H7 C5 1_555 1_555
C6 C1 1_555 1_555
H8 C6 1_555 1_555
C7 O3 1_555 1_555
H9 C7 1_555 1_555
H10 C7 1_555 1_555
C8 C7 1_555 1_555
H11 C8 1_555 1_555
H12 C8 1_555 1_555
H13 C8 1_555 1_555
O5 Na1 1_555 1_555
H14 O5 1_555 1_555
H15 O5 1_555 1_555
O6 Na1 1_555 1_555
H16 O6 1_555 1_555
H17 O6 1_555 1_555
Na1B O5 1_555 1_555
Na1A O6 1_555 1_555
O5B Na1 1_555 1_555
H14B O5B 1_555 1_555
H15B O5B 1_555 1_555
O6A Na1 1_555 1_555
H16A O6A 1_555 1_555
H17A O6A 1_555 1_555
C5 C6 1_555 1_555
Na1B O5B 1_555 1_555

#END
