
#######################################################################
#
#                 Cambridge Crystallographic Data Centre
#                                CCDC 
#
#######################################################################
#
# If this CIF has been generated from an entry in the Cambridge 
# Structural Database, then it will include bibliographic, chemical, 
# crystal, experimental, refinement or atomic coordinate data resulting 
# from the CCDC's data processing and validation procedures.
#
#######################################################################

data_BOFTAS
_symmetry_cell_setting           monoclinic
_symmetry_space_group_name_H-M   'P 21/n'
_symmetry_Int_Tables_number      14
_space_group_name_Hall           '-P 2yn'
loop_
_symmetry_equiv_pos_site_id
_symmetry_equiv_pos_as_xyz
1 x,y,z
2 1/2-x,1/2+y,1/2-z
3 -x,-y,-z
4 1/2+x,1/2-y,1/2+z
_cell_length_a                   7.4485(8)
_cell_length_b                   17.4102(19)
_cell_length_c                   7.6509(9)
_cell_angle_alpha                90
_cell_angle_beta                 116.6880(10)
_cell_angle_gamma                90
_cell_volume                     886.468
loop_
_atom_site_label
_atom_site_type_symbol
_atom_site_fract_x
_atom_site_fract_y
_atom_site_fract_z
Mn1 Mn 0.5000 1.0000 0.5000
S1 S 0.65941(14) 0.89771(5) 0.94564(13)
O1 O 0.4931(4) 0.92302(17) 0.7611(4)
O2 O 0.8422(4) 0.94184(16) 0.9916(4)
O3 O 0.6018(5) 0.89731(17) 1.1046(4)
O4 O 0.7291(5) 0.9436(2) 0.4921(4)
H1 H 0.7114 0.9406 0.3785
H2 H 0.8495 0.9411 0.5706
N1 N 0.8133(5) 0.57368(19) 0.7847(5)
H3 H 0.8601 0.5771 0.6950
H4 H 0.6918 0.5512 0.7253
C1 C 0.7134(6) 0.8009(2) 0.9110(5)
C2 C 0.8724(6) 0.7854(2) 0.8697(6)
H5 H 0.9547 0.8250 0.8669
C3 C 0.9088(6) 0.7106(2) 0.8325(6)
H6 H 1.0167 0.6997 0.8065
C4 C 0.7828(6) 0.6515(2) 0.8344(5)
C5 C 0.6261(6) 0.6673(2) 0.8804(6)
H7 H 0.5452 0.6276 0.8857
C6 C 0.5900(6) 0.7421(2) 0.9184(6)
H8 H 0.4847 0.7529 0.9485
Mn1C Mn 1.0000 0.5000 1.0000
Mn1C_2 Mn 0.0000 1.5000 0.0000
S1B S 0.34059(14) 1.10229(5) 0.05436(13)
O1B O 0.5069(4) 1.07698(17) 0.2389(4)
O2B O 0.1578(4) 1.05816(16) 0.0084(4)
O3B O 0.3982(5) 1.10269(17) -0.1046(4)
O4B O 0.2709(5) 1.0564(2) 0.5079(4)
H1B H 0.2886 1.0594 0.6215
H2B H 0.1505 1.0589 0.4294
N1B N 0.1867(5) 1.42632(19) 0.2153(5)
N1C N 0.3133(5) 0.92632(19) 0.2847(5)
N1A N 0.6867(5) 1.07368(19) 0.7153(5)
H3B H 0.1399 1.4229 0.3050
H3C H 0.3601 0.9229 0.1950
H3A H 0.6399 1.0771 0.8050
H4B H 0.3082 1.4488 0.2747
H4C H 0.1918 0.9488 0.2253
H4A H 0.8082 1.0512 0.7747
C1B C 0.2866(6) 1.1991(2) 0.0890(5)
C2B C 0.1276(6) 1.2146(2) 0.1303(6)
H5B H 0.0453 1.1750 0.1331
C3B C 0.0912(6) 1.2894(2) 0.1675(6)
H6B H -0.0167 1.3003 0.1935
C4B C 0.2172(6) 1.3485(2) 0.1656(5)
C5B C 0.3739(6) 1.3327(2) 0.1196(6)
H7B H 0.4548 1.3724 0.1143
C6B C 0.4100(6) 1.2579(2) 0.0816(6)
H8B H 0.5153 1.2471 0.0515
O5 O 0.1093(5) 0.9329(2) 0.7587(5)
H9 H 0.2066 0.9285 0.7362
H10 H 0.1188 0.9679 0.8342
loop_
_geom_bond_atom_site_label_1
_geom_bond_atom_site_label_2
_geom_bond_site_symmetry_1
_geom_bond_site_symmetry_2
Mn1 O1 1_555 1_555
S1 O1 1_555 1_555
O2 S1 1_555 1_555
O3 S1 1_555 1_555
O4 Mn1 1_555 1_555
H1 O4 1_555 1_555
H2 O4 1_555 1_555
N1 H3 1_555 1_555
H4 N1 1_555 1_555
C1 S1 1_555 1_555
C2 C1 1_555 1_555
H5 C2 1_555 1_555
C3 C2 1_555 1_555
H6 C3 1_555 1_555
C4 N1 1_555 1_555
C5 C4 1_555 1_555
H7 C5 1_555 1_555
C6 C1 1_555 1_555
H8 C6 1_555 1_555
O5 H9 1_555 1_555
H10 O5 1_555 1_555
Mn1C N1 1_555 1_555
Mn1C_2 N1B 1_555 1_555
S1B O1B 1_555 1_555
O1B Mn1 1_555 1_555
O2B S1B 1_555 1_555
O3B S1B 1_555 1_555
O4B Mn1 1_555 1_555
H1B O4B 1_555 1_555
H2B O4B 1_555 1_555
N1B H3B 1_555 1_555
N1C Mn1 1_555 1_555
N1A Mn1 1_555 1_555
H3C N1C 1_555 1_555
H3A N1A 1_555 1_555
H4B N1B 1_555 1_555
H4C N1C 1_555 1_555
H4A N1A 1_555 1_555
C1B S1B 1_555 1_555
C2B C1B 1_555 1_555
H5B C2B 1_555 1_555
C3B C2B 1_555 1_555
H6B C3B 1_555 1_555
C4B N1B 1_555 1_555
C5B C4B 1_555 1_555
H7B C5B 1_555 1_555
C6B C1B 1_555 1_555
H8B C6B 1_555 1_555
C3 C4 1_555 1_555
C5 C6 1_555 1_555
C3B C4B 1_555 1_555
C5B C6B 1_555 1_555

#END
