
#######################################################################
#
#                 Cambridge Crystallographic Data Centre
#                                CCDC 
#
#######################################################################
#
# If this CIF has been generated from an entry in the Cambridge 
# Structural Database, then it will include bibliographic, chemical, 
# crystal, experimental, refinement or atomic coordinate data resulting 
# from the CCDC's data processing and validation procedures.
#
#######################################################################

data_BOFVOJ
_symmetry_cell_setting           monoclinic
_symmetry_space_group_name_H-M   'C 2/c'
_symmetry_Int_Tables_number      15
_space_group_name_Hall           '-C 2yn'
loop_
_symmetry_equiv_pos_site_id
_symmetry_equiv_pos_as_xyz
1 x,y,z
2 -x,y,1/2-z
3 1/2+x,1/2+y,z
4 1/2-x,1/2+y,1/2-z
5 -x,-y,-z
6 x,-y,1/2+z
7 1/2-x,1/2-y,-z
8 1/2+x,1/2-y,1/2+z
_cell_length_a                   23.4011(10)
_cell_length_b                   18.6423(6)
_cell_length_c                   20.2408(10)
_cell_angle_alpha                90
_cell_angle_beta                 113.497(7)
_cell_angle_gamma                90
_cell_volume                     8097.88
loop_
_atom_site_label
_atom_site_type_symbol
_atom_site_fract_x
_atom_site_fract_y
_atom_site_fract_z
Fe1 Fe 0.26957(4) 0.29343(4) 0.20875(4)
Fe2 Fe 0.0000 0.08858(5) 0.2500
Co1 Co 0.19112(4) 0.04114(4) 0.19609(4)
N1 N 0.3464(7) 0.2611(6) 0.1687(9)
N2 N 0.3453(5) 0.2239(5) 0.2983(8)
H1 H 0.3293 0.1776 0.2897
N3 N 0.2411(5) 0.2966(5) 0.3044(5)
H2 H 0.2524 0.3428 0.3222
N4 N 0.1779(5) 0.3515(5) 0.1728(6)
C1 C 0.1074(7) 0.4361(8) 0.0989(10)
H3 H 0.0874 0.4342 0.1332
H4 H 0.0771 0.4231 0.0508
H5 H 0.1227 0.4849 0.0978
C2 C 0.1583(5) 0.3871(4) 0.1207(6)
N5 N 0.2483(5) 0.3390(4) 0.0992(5)
C3 C 0.1982(5) 0.3775(4) 0.0724(4)
C4 C 0.1675(6) 0.4182(5) 0.0074(5)
H6 H 0.1313 0.4475 -0.0094
C5 C 0.2187(14) 0.3951(9) -0.0281(9)
H7 H 0.2096 0.4133 -0.0751
C6 C 0.2717(6) 0.3539(6) 0.0003(5)
H8 H 0.2989 0.3442 -0.0230
C7 C 0.2797(6) 0.3289(5) 0.0670(4)
C8 C 0.3398(4) 0.2783(4) 0.1120(6)
C9 C 0.3706(6) 0.2724(6) 0.0627(6)
H9 H 0.4079 0.2424 0.0843
H10 H 0.3826 0.3202 0.0527
H11 H 0.3420 0.2504 0.0176
C10 C 0.3885(5) 0.2204(6) 0.2032(8)
H12 H 0.4282 0.2371 0.2019
H13 H 0.3796 0.1716 0.1823
C11 C 0.3942(7) 0.2192(7) 0.2930(7)
H14 H 0.4147 0.1740 0.3162
H15 H 0.4212 0.2594 0.3197
C12 C 0.3481(5) 0.2392(5) 0.3631(5)
H16 H 0.3751 0.2816 0.3824
H17 H 0.3664 0.1983 0.3959
C13 C 0.2718(5) 0.2575(6) 0.3591(5)
H18 H 0.2494 0.2118 0.3559
H19 H 0.2752 0.2825 0.4037
C14 C 0.1793(5) 0.2970(5) 0.2844(7)
H20 H 0.1696 0.3145 0.3249
H21 H 0.1633 0.2474 0.2732
C15 C 0.1435(5) 0.3483(5) 0.2131(6)
H22 H 0.1018 0.3283 0.1840
H23 H 0.1379 0.3972 0.2288
C16 C 0.0000 0.3534(5) 0.2500
H24 H 0.0000 0.4043 0.2500
C17 C -0.0369(3) 0.3165(3) 0.1893(4)
H25 H -0.0622 0.3412 0.1466
C18 C -0.0363(3) 0.2411(3) 0.1918(3)
C19 C -0.0753(3) 0.1956(4) 0.1314(3)
C20 C -0.1175(4) 0.2298(4) 0.0600(3)
H26 H -0.1407 0.1922 0.0261
H27 H -0.0920 0.2566 0.0401
H28 H -0.1468 0.2625 0.0681
C21 C -0.1049(4) 0.0756(4) 0.0905(4)
H29 H -0.0865 0.0695 0.0544
H30 H -0.1485 0.0919 0.0652
C22 C -0.1033(4) 0.0073(4) 0.1271(4)
H31 H -0.1186 -0.0316 0.0909
H32 H -0.1311 0.0101 0.1531
C23 C -0.0326(3) -0.0733(3) 0.2205(4)
H33 H -0.0386 -0.1163 0.1897
H34 H -0.0639 -0.0742 0.2419
C24 C 0.1202(3) 0.0689(2) 0.2095(3)
C25 C 0.3195(3) 0.4455(3) 0.2793(3)
C26 C 0.2063(3) 0.1371(3) 0.1780(3)
C27 C 0.1371(4) 0.0271(3) 0.0985(4)
C28 C 0.2422(4) 0.0555(4) 0.2941(5)
N6 N 0.3137(6) 0.0027(8) 0.1876(9)
C29 C 0.2663(8) 0.0161(6) 0.1897(9)
N7 N 0.0000 0.2055(3) 0.2500
N8 N -0.0695(2) 0.1281(3) 0.1442(2)
N9 N -0.0401(3) -0.0092(2) 0.1779(3)
H35 H -0.0163 -0.0156 0.1508
N10 N 0.0756(3) 0.0829(2) 0.2160(3)
N11 N 0.1009(4) 0.0206(3) 0.0403(3)
N12 N 0.2715(5) 0.0666(4) 0.3533(5)
N13 N 0.3210(2) 0.3875(2) 0.2612(3)
N14 N 0.2186(2) 0.1948(2) 0.1714(2)
C17A C 0.0369(3) 0.3165(3) 0.3107(4)
H25A H 0.0622 0.3412 0.3534
C18A C 0.0363(3) 0.2411(3) 0.3082(3)
C19A C 0.0753(3) 0.1956(4) 0.3686(3)
C20A C 0.1175(4) 0.2298(4) 0.4400(3)
H26A H 0.1407 0.1922 0.4739
H27A H 0.0920 0.2566 0.4599
H28A H 0.1468 0.2625 0.4319
C21A C 0.1049(4) 0.0756(4) 0.4095(4)
H29A H 0.0865 0.0695 0.4456
H30A H 0.1485 0.0919 0.4348
N8A N 0.0695(2) 0.1281(3) 0.3558(2)
C22A C 0.1033(4) 0.0073(4) 0.3729(4)
H31A H 0.1186 -0.0316 0.4091
H32A H 0.1311 0.0101 0.3469
C23A C 0.0326(3) -0.0733(3) 0.2795(4)
H33A H 0.0386 -0.1163 0.3103
H34A H 0.0639 -0.0742 0.2581
N9A N 0.0401(3) -0.0092(2) 0.3221(3)
H35A H 0.0163 -0.0156 0.3492
Fe1A Fe -0.26957(4) 0.29343(4) 0.29125(4)
Co1A Co -0.19112(4) 0.04114(4) 0.30391(4)
N1A N -0.3464(7) 0.2611(6) 0.3313(9)
N2A N -0.3453(5) 0.2239(5) 0.2017(8)
H1A H -0.3293 0.1776 0.2103
N3A N -0.2411(5) 0.2966(5) 0.1956(5)
H2A H -0.2524 0.3428 0.1778
N4A N -0.1779(5) 0.3515(5) 0.3272(6)
C1A C -0.1074(7) 0.4361(8) 0.4011(10)
H3A H -0.0874 0.4342 0.3668
H4A H -0.0771 0.4231 0.4492
H5A H -0.1227 0.4849 0.4022
C2A C -0.1583(5) 0.3871(4) 0.3793(6)
N5A N -0.2483(5) 0.3390(4) 0.4008(5)
C3A C -0.1982(5) 0.3775(4) 0.4276(4)
C4A C -0.1675(6) 0.4182(5) 0.4926(5)
H6A H -0.1313 0.4475 0.5094
C5A C -0.2187(14) 0.3951(9) 0.5281(9)
H7A H -0.2096 0.4133 0.5751
C6A C -0.2717(6) 0.3539(6) 0.4997(5)
H8A H -0.2989 0.3442 0.5230
C7A C -0.2797(6) 0.3289(5) 0.4330(4)
C8A C -0.3398(4) 0.2783(4) 0.3880(6)
C9A C -0.3706(6) 0.2724(6) 0.4373(6)
H9A H -0.4079 0.2424 0.4157
H10A H -0.3826 0.3202 0.4473
H11A H -0.3420 0.2504 0.4824
C10A C -0.3885(5) 0.2204(6) 0.2968(8)
H12A H -0.4282 0.2371 0.2981
H13A H -0.3796 0.1716 0.3177
C11A C -0.3942(7) 0.2192(7) 0.2070(7)
H14A H -0.4147 0.1740 0.1838
H15A H -0.4212 0.2594 0.1803
C12A C -0.3481(5) 0.2392(5) 0.1369(5)
H16A H -0.3751 0.2816 0.1176
H17A H -0.3664 0.1983 0.1041
C13A C -0.2718(5) 0.2575(6) 0.1409(5)
H18A H -0.2494 0.2118 0.1441
H19A H -0.2752 0.2825 0.0963
C14A C -0.1793(5) 0.2970(5) 0.2156(7)
H20A H -0.1696 0.3145 0.1751
H21A H -0.1633 0.2474 0.2268
C15A C -0.1435(5) 0.3483(5) 0.2869(6)
H22A H -0.1018 0.3283 0.3160
H23A H -0.1379 0.3972 0.2712
C24A C -0.1202(3) 0.0689(2) 0.2905(3)
C25A C -0.3195(3) 0.4455(3) 0.2207(3)
C26A C -0.2063(3) 0.1371(3) 0.3220(3)
C27A C -0.1371(4) 0.0271(3) 0.4015(4)
C28A C -0.2422(4) 0.0555(4) 0.2059(5)
N6A N -0.3137(6) 0.0027(8) 0.3124(9)
C29A C -0.2663(8) 0.0161(6) 0.3103(9)
N10A N -0.0756(3) 0.0829(2) 0.2840(3)
N11A N -0.1009(4) 0.0206(3) 0.4597(3)
N12A N -0.2715(5) 0.0666(4) 0.1467(5)
N13A N -0.3210(2) 0.3875(2) 0.2388(3)
N14A N -0.2186(2) 0.1948(2) 0.3286(2)
Co1B Co -0.30888(4) 0.54114(4) 0.19609(4)
Co1C Co 0.30888(4) 0.54114(4) 0.30391(4)
C25B C -0.1805(3) -0.0545(3) 0.2793(3)
C25C C 0.1805(3) -0.0545(3) 0.2207(3)
C34 C 0.0415(4) 0.2097(4) 0.0623(5)
O2 O 0.0042(2) 0.2193(3) -0.0129(3)
O3 O -0.0078(3) 0.0805(2) -0.0669(2)
O4 O -0.0019(3) 0.3638(3) -0.0403(3)
O5 O 0.0078(4) 0.4597(4) -0.1372(4)
O6 O 0.0566(4) 0.5835(4) -0.0415(4)
O7 O 0.1871(5) 0.6039(3) -0.0074(4)
O8 O 0.0761(5) 0.4738(5) -0.2189(6)
O9 O 0.1052(9) 0.5335(10) -0.1186(9)
N15? N 0.3552(6) 0.2337(5) 0.2332(7)
N16? N 0.2904(6) 0.2417(6) 0.3174(6)
H36? H 0.2788 0.1940 0.3069
N17? N 0.1974(6) 0.3353(7) 0.2537(7)
H37? H 0.2140 0.3755 0.2822
N18? N 0.1958(6) 0.3551(7) 0.1261(7)
H38? H 0.1296 0.4401 0.0080
H39? H 0.1563 0.3863 -0.0344
H40? H 0.1955 0.4558 0.0042
N19? N 0.2909(5) 0.3056(5) 0.1192(6)
H41? H 0.2409 0.3831 -0.0343
C30? C 0.3288(10) 0.3185(10) 0.0024(9)
H42? H 0.3397 0.3255 -0.0376
H43? H 0.4070 0.2465 0.0673
C31? C 0.4335(7) 0.1918(9) 0.1904(11)
H44? H 0.4237 0.1941 0.1386
H45? H 0.4385 0.1415 0.2059
H46? H 0.4722 0.2179 0.2169
H47? H 0.3916 0.1728 0.3154
H48? H 0.4164 0.2587 0.3260
H49? H 0.3763 0.2796 0.3654
H50? H 0.3676 0.1922 0.3812
H51? H 0.2508 0.2208 0.3768
H52? H 0.2594 0.3080 0.3610
H53? H 0.1799 0.3122 0.3315
H54? H 0.1819 0.2448 0.2773
H55? H 0.1261 0.3261 0.1647
H56? H 0.1241 0.3937 0.2190
H57? H 0.1653 0.4302 0.1516
H58? H 0.1163 0.3652 0.1040
N20? N 0.2811(12) -0.0229(10) 0.1314(15)
C32? C 0.2474(11) -0.0007(12) 0.1509(14)
C33? C 0.0042(2) 0.2193(3) -0.0129(3)
O1? O 0.0415(4) 0.2097(4) 0.0623(5)
loop_
_geom_bond_atom_site_label_1
_geom_bond_atom_site_label_2
_geom_bond_site_symmetry_1
_geom_bond_site_symmetry_2
Fe1 N1 1_555 1_555
Fe2 N7 1_555 1_555
Co1 C24 1_555 1_555
N1 C8 1_555 1_555
N2 Fe1 1_555 1_555
H1 N2 1_555 1_555
N3 Fe1 1_555 1_555
H2 N3 1_555 1_555
N4 Fe1 1_555 1_555
C1 H3 1_555 1_555
H4 C1 1_555 1_555
H5 C1 1_555 1_555
C2 N4 1_555 1_555
N5 Fe1 1_555 1_555
C3 C2 1_555 1_555
C4 C3 1_555 1_555
H6 C4 1_555 1_555
C5 C4 1_555 1_555
H7 C5 1_555 1_555
C6 C5 1_555 1_555
H8 C6 1_555 1_555
C7 N5 1_555 1_555
C8 C7 1_555 1_555
C9 C8 1_555 1_555
H9 C9 1_555 1_555
H10 C9 1_555 1_555
H11 C9 1_555 1_555
C10 N1 1_555 1_555
H12 C10 1_555 1_555
H13 C10 1_555 1_555
C11 N2 1_555 1_555
H14 C11 1_555 1_555
H15 C11 1_555 1_555
C12 N2 1_555 1_555
H16 C12 1_555 1_555
H17 C12 1_555 1_555
C13 N3 1_555 1_555
H18 C13 1_555 1_555
H19 C13 1_555 1_555
C14 N3 1_555 1_555
H20 C14 1_555 1_555
H21 C14 1_555 1_555
C15 N4 1_555 1_555
H22 C15 1_555 1_555
H23 C15 1_555 1_555
C16 H24 1_555 1_555
C17 C16 1_555 1_555
H25 C17 1_555 1_555
C18 C17 1_555 1_555
C19 C18 1_555 1_555
C20 C19 1_555 1_555
H26 C20 1_555 1_555
H27 C20 1_555 1_555
H28 C20 1_555 1_555
C21 H29 1_555 1_555
H30 C21 1_555 1_555
C22 C21 1_555 1_555
H31 C22 1_555 1_555
H32 C22 1_555 1_555
C23 H33 1_555 1_555
H34 C23 1_555 1_555
C24 N10 1_555 1_555
C25 N13 1_555 1_555
C26 Co1 1_555 1_555
C27 Co1 1_555 1_555
C28 Co1 1_555 1_555
N6 C29 1_555 1_555
C29 Co1 1_555 1_555
N7 C18 1_555 1_555
N8 Fe2 1_555 1_555
N9 Fe2 1_555 1_555
H35 N9 1_555 1_555
N10 Fe2 1_555 1_555
N11 C27 1_555 1_555
N12 C28 1_555 1_555
N13 Fe1 1_555 1_555
N14 Fe1 1_555 1_555
C34 O2 1_555 1_555
C17A C16 1_555 1_555
H25A C17A 1_555 1_555
C18A N7 1_555 1_555
C19A C18A 1_555 1_555
C20A C19A 1_555 1_555
H26A C20A 1_555 1_555
H27A C20A 1_555 1_555
H28A C20A 1_555 1_555
C21A H29A 1_555 1_555
H30A C21A 1_555 1_555
N8A Fe2 1_555 1_555
C22A C21A 1_555 1_555
H31A C22A 1_555 1_555
H32A C22A 1_555 1_555
C23A C23 1_555 1_555
H33A C23A 1_555 1_555
H34A C23A 1_555 1_555
N9A Fe2 1_555 1_555
H35A N9A 1_555 1_555
Fe1A N1A 1_555 1_555
Co1A C24A 1_555 1_555
N1A C8A 1_555 1_555
N2A Fe1A 1_555 1_555
H1A N2A 1_555 1_555
N3A Fe1A 1_555 1_555
H2A N3A 1_555 1_555
N4A Fe1A 1_555 1_555
C1A H3A 1_555 1_555
H4A C1A 1_555 1_555
H5A C1A 1_555 1_555
C2A N4A 1_555 1_555
N5A Fe1A 1_555 1_555
C3A C2A 1_555 1_555
C4A C3A 1_555 1_555
H6A C4A 1_555 1_555
C5A C4A 1_555 1_555
H7A C5A 1_555 1_555
C6A C5A 1_555 1_555
H8A C6A 1_555 1_555
C7A N5A 1_555 1_555
C8A C7A 1_555 1_555
C9A C8A 1_555 1_555
H9A C9A 1_555 1_555
H10A C9A 1_555 1_555
H11A C9A 1_555 1_555
C10A N1A 1_555 1_555
H12A C10A 1_555 1_555
H13A C10A 1_555 1_555
C11A N2A 1_555 1_555
H14A C11A 1_555 1_555
H15A C11A 1_555 1_555
C12A N2A 1_555 1_555
H16A C12A 1_555 1_555
H17A C12A 1_555 1_555
C13A N3A 1_555 1_555
H18A C13A 1_555 1_555
H19A C13A 1_555 1_555
C14A N3A 1_555 1_555
H20A C14A 1_555 1_555
H21A C14A 1_555 1_555
C15A N4A 1_555 1_555
H22A C15A 1_555 1_555
H23A C15A 1_555 1_555
C24A N10A 1_555 1_555
C25A N13A 1_555 1_555
C26A Co1A 1_555 1_555
C27A Co1A 1_555 1_555
C28A Co1A 1_555 1_555
N6A C29A 1_555 1_555
C29A Co1A 1_555 1_555
N10A Fe2 1_555 1_555
N11A C27A 1_555 1_555
N12A C28A 1_555 1_555
N13A Fe1A 1_555 1_555
N14A Fe1A 1_555 1_555
Co1B C25A 1_555 1_555
Co1C C25 1_555 1_555
C25B Co1A 1_555 1_555
C25C Co1 1_555 1_555
C1 C2 1_555 1_555
N5 C3 1_555 1_555
C6 C7 1_555 1_555
C10 C11 1_555 1_555
C12 C13 1_555 1_555
C14 C15 1_555 1_555
C19 N8 1_555 1_555
C21 N8 1_555 1_555
C22 N9 1_555 1_555
C23 N9 1_555 1_555
C26 N14 1_555 1_555
C17A C18A 1_555 1_555
C19A N8A 1_555 1_555
C21A N8A 1_555 1_555
C22A N9A 1_555 1_555
C23A N9A 1_555 1_555
C1A C2A 1_555 1_555
N5A C3A 1_555 1_555
C6A C7A 1_555 1_555
C10A C11A 1_555 1_555
C12A C13A 1_555 1_555
C14A C15A 1_555 1_555
C26A N14A 1_555 1_555

#END
