
#######################################################################
#
#                 Cambridge Crystallographic Data Centre
#                                CCDC 
#
#######################################################################
#
# If this CIF has been generated from an entry in the Cambridge 
# Structural Database, then it will include bibliographic, chemical, 
# crystal, experimental, refinement or atomic coordinate data resulting 
# from the CCDC's data processing and validation procedures.
#
#######################################################################

data_BOFVID
_symmetry_cell_setting           monoclinic
_symmetry_space_group_name_H-M   'C 2/c'
_symmetry_Int_Tables_number      15
_space_group_name_Hall           '-C 2yn'
loop_
_symmetry_equiv_pos_site_id
_symmetry_equiv_pos_as_xyz
1 x,y,z
2 -x,y,1/2-z
3 1/2+x,1/2+y,z
4 1/2-x,1/2+y,1/2-z
5 -x,-y,-z
6 x,-y,1/2+z
7 1/2-x,1/2-y,-z
8 1/2+x,1/2-y,1/2+z
_cell_length_a                   26.3472(3)
_cell_length_b                   16.6908(4)
_cell_length_c                   19.5461(5)
_cell_angle_alpha                90
_cell_angle_beta                 108.890(2)
_cell_angle_gamma                90
_cell_volume                     8132.57
loop_
_atom_site_label
_atom_site_type_symbol
_atom_site_fract_x
_atom_site_fract_y
_atom_site_fract_z
Co1 Co 0.5000 0.40852(4) 0.2500
Co2 Co 0.747779(17) 0.21565(3) 0.21944(2)
Fe1 Fe 0.643573(17) 0.47845(3) 0.14710(2)
O1 O 0.48124(9) 0.51864(14) 0.17918(13)
O2 O 0.76240(11) 0.25342(16) 0.33610(14)
N1 N 0.5000 0.2811(2) 0.2500
O3 O 0.67259(11) 0.18744(17) 0.25210(16)
N2 N 0.46753(11) 0.36937(18) 0.13695(15)
N3 N 0.71881(11) 0.33176(18) 0.19213(16)
N4 N 0.78236(13) 0.20209(18) 0.13630(17)
N5 N 0.72343(11) 0.60100(17) 0.24309(16)
N6 N 0.56709(12) 0.62527(19) 0.11558(18)
N7 N 0.57082(13) 0.3541(2) 0.04399(18)
N8 N 0.83030(12) 0.25846(18) 0.26219(18)
N9 N 0.69202(15) 0.5329(2) 0.03004(18)
C1 C 0.69414(13) 0.55258(19) 0.21143(18)
N10 N 0.57828(11) 0.42113(17) 0.24352(15)
C2 C 0.46391(13) 0.2946(2) 0.12251(18)
C3 C 0.47667(16) 0.5909(2) 0.2157(2)
H1 H 0.4431 0.5921 0.2261
H2 H 0.4781 0.6372 0.1863
N11 N 0.68456(13) 0.17047(19) 0.12462(19)
C4 C 0.48174(13) 0.2415(2) 0.18708(19)
C5 C 0.45276(15) 0.4308(2) 0.08025(19)
H3 H 0.4223 0.4129 0.0401
H4 H 0.4825 0.4407 0.0624
C6 C 0.4444(2) 0.2567(3) 0.0484(2)
H5 H 0.4343 0.2979 0.0123
H6 H 0.4140 0.2233 0.0447
H7 H 0.4726 0.2248 0.0412
C7 C 0.83365(16) 0.2203(2) 0.1488(2)
C8 C 0.69305(12) 0.3886(2) 0.17593(17)
C9 C 0.48067(15) 0.1573(2) 0.1854(2)
H8 H 0.4673 0.1299 0.1419
C10 C 0.60651(12) 0.44343(19) 0.21323(16)
C11 C 0.59411(13) 0.5691(2) 0.12457(18)
C12 C 0.43862(15) 0.5069(2) 0.11255(19)
H9 H 0.4362 0.5520 0.0803
H10 H 0.4046 0.5009 0.1212
C13 C 0.59576(13) 0.4035(2) 0.08042(18)
C14 C 0.8584(2) 0.2051(3) 0.0958(3)
H11 H 0.8942 0.2181 0.1039
C15 C 0.67385(14) 0.5121(2) 0.07315(19)
C16 C 0.7270(2) 0.2179(3) 0.3700(2)
H12 H 0.7298 0.2453 0.4149
H13 H 0.7356 0.1618 0.3804
C17 C 0.75264(19) 0.1681(2) 0.0727(2)
C18 C 0.86029(15) 0.2546(2) 0.2222(3)
C19 C 0.81822(18) 0.2486(3) 0.3789(2)
H14 H 0.8293 0.1931 0.3881
H15 H 0.8245 0.2755 0.4250
C20 C 0.69650(19) 0.1507(2) 0.0687(2)
C21 C 0.84892(17) 0.2893(3) 0.3357(2)
H16 H 0.8432 0.3468 0.3354
H17 H 0.8870 0.2790 0.3575
C22 C 0.6595(3) 0.1112(4) 0.0020(3)
H18 H 0.6248 0.1039 0.0073
H19 H 0.6738 0.0600 -0.0047
H20 H 0.6561 0.1445 -0.0393
C23 C 0.62477(16) 0.2017(3) 0.1927(3)
H21 H 0.6206 0.2584 0.1816
H22 H 0.5936 0.1832 0.2041
C24 C 0.91774(17) 0.2817(3) 0.2437(3)
H23 H 0.9286 0.3019 0.2923
H24 H 0.9211 0.3233 0.2115
H25 H 0.9401 0.2373 0.2409
C25 C 0.6721(2) 0.2266(3) 0.3176(3)
H26 H 0.6460 0.2017 0.3362
H27 H 0.6630 0.2828 0.3085
C26 C 0.63078(17) 0.1560(3) 0.1300(3)
H28 H 0.6260 0.0993 0.1365
H29 H 0.6036 0.1730 0.0858
C27 C 0.7755(3) 0.1514(3) 0.0195(3)
H30 H 0.7553 0.1276 -0.0238
C28 C 0.8277(3) 0.1703(3) 0.0316(3)
H31 H 0.8431 0.1597 -0.0040
C29 C 0.5000 0.1162(3) 0.2500
H32 H 0.5000 0.0604 0.2500
O1A O 0.51876(9) 0.51864(14) 0.32082(13)
N2A N 0.53247(11) 0.36937(18) 0.36305(15)
C2A C 0.53609(13) 0.2946(2) 0.37749(18)
C3A C 0.52333(16) 0.5909(2) 0.2843(2)
H1A H 0.5569 0.5921 0.2739
H2A H 0.5219 0.6372 0.3137
C4A C 0.51826(13) 0.2415(2) 0.31292(19)
C5A C 0.54724(15) 0.4308(2) 0.41975(19)
H3A H 0.5777 0.4129 0.4599
H4A H 0.5175 0.4407 0.4376
C6A C 0.5556(2) 0.2567(3) 0.4516(2)
H5A H 0.5657 0.2979 0.4877
H6A H 0.5860 0.2233 0.4553
H7A H 0.5274 0.2248 0.4588
C9A C 0.51933(15) 0.1573(2) 0.3146(2)
H8A H 0.5327 0.1299 0.3581
C12A C 0.56138(15) 0.5069(2) 0.38745(19)
H9A H 0.5638 0.5520 0.4197
H10A H 0.5954 0.5009 0.3788
Co2A Co 0.252221(17) 0.21565(3) 0.28056(2)
Fe1A Fe 0.356427(17) 0.47845(3) 0.35290(2)
O2A O 0.23760(11) 0.25342(16) 0.16390(14)
O3A O 0.32741(11) 0.18744(17) 0.24790(16)
N3A N 0.28119(11) 0.33176(18) 0.30787(16)
N4A N 0.21764(13) 0.20209(18) 0.36370(17)
N5A N 0.27657(11) 0.60100(17) 0.25691(16)
N6A N 0.43291(12) 0.62527(19) 0.38442(18)
N7A N 0.42918(13) 0.3541(2) 0.45601(18)
N8A N 0.16970(12) 0.25846(18) 0.23781(18)
N9A N 0.30798(15) 0.5329(2) 0.46996(18)
C1A C 0.30586(13) 0.55258(19) 0.28857(18)
N10A N 0.42172(11) 0.42113(17) 0.25648(15)
N11A N 0.31544(13) 0.17047(19) 0.37538(19)
C7A C 0.16635(16) 0.2203(2) 0.3512(2)
C8A C 0.30695(12) 0.3886(2) 0.32407(17)
C10A C 0.39349(12) 0.44343(19) 0.28677(16)
C11A C 0.40589(13) 0.5691(2) 0.37543(18)
C13A C 0.40424(13) 0.4035(2) 0.41958(18)
C14A C 0.1416(2) 0.2051(3) 0.4042(3)
H11A H 0.1058 0.2181 0.3961
C15A C 0.32615(14) 0.5121(2) 0.42685(19)
C16A C 0.2730(2) 0.2179(3) 0.1300(2)
H12A H 0.2702 0.2453 0.0851
H13A H 0.2644 0.1618 0.1196
C17A C 0.24736(19) 0.1681(2) 0.4273(2)
C18A C 0.13971(15) 0.2546(2) 0.2778(3)
C19A C 0.18178(18) 0.2486(3) 0.1211(2)
H14A H 0.1707 0.1931 0.1119
H15A H 0.1755 0.2755 0.0750
C20A C 0.30350(19) 0.1507(2) 0.4313(2)
C21A C 0.15108(17) 0.2893(3) 0.1643(2)
H16A H 0.1568 0.3468 0.1646
H17A H 0.1130 0.2790 0.1425
C22A C 0.3405(3) 0.1112(4) 0.4980(3)
H18A H 0.3752 0.1039 0.4927
H19A H 0.3262 0.0600 0.5047
H20A H 0.3439 0.1445 0.5393
C23A C 0.37523(16) 0.2017(3) 0.3073(3)
H21A H 0.3794 0.2584 0.3184
H22A H 0.4064 0.1832 0.2959
C24A C 0.08226(17) 0.2817(3) 0.2563(3)
H23A H 0.0714 0.3019 0.2077
H24A H 0.0789 0.3233 0.2885
H25A H 0.0599 0.2373 0.2591
C25A C 0.3279(2) 0.2266(3) 0.1824(3)
H26A H 0.3540 0.2017 0.1638
H27A H 0.3370 0.2828 0.1915
C26A C 0.36922(17) 0.1560(3) 0.3700(3)
H28A H 0.3740 0.0993 0.3635
H29A H 0.3964 0.1730 0.4142
C27A C 0.2245(3) 0.1514(3) 0.4805(3)
H30A H 0.2447 0.1276 0.5238
C28A C 0.1723(3) 0.1703(3) 0.4684(3)
H31A H 0.1569 0.1597 0.5040
Co2B Co 0.247779(17) 0.71565(3) 0.21944(2)
Co2C Co 0.752221(17) 0.71565(3) 0.28056(2)
N5B N 0.22343(11) 0.10100(17) 0.24309(16)
N5C N 0.77657(11) 0.10100(17) 0.25691(16)
O4 O 0.51713(10) 0.26101(16) -0.07739(15)
O5 O 0.35588(19) 0.1010(3) 0.0417(3)
O6 O 0.7354(3) 0.5517(3) -0.1200(3)
H33 H 0.7438 0.5791 -0.1495
C30 C 0.75223(15) 0.5902(3) -0.05207(19)
H34 H 0.7896 0.5795 -0.0282
H35 H 0.7317 0.5703 -0.0231
H36 H 0.7468 0.6469 -0.0588
O7 O 0.5035(3) 0.1026(3) -0.0667(4)
H37 H 0.4958 0.1502 -0.0735
C31 C 0.5203(7) 0.0696(8) -0.1306(12)
H38 H 0.5558 0.0879 -0.1259
H39 H 0.4957 0.0885 -0.1754
H40 H 0.5198 0.0121 -0.1298
O8 O 0.6158(8) -0.0150(6) 0.2486(9)
H41 H 0.5849 -0.0011 0.2265
C32 C 0.6289(5) 0.0059(8) 0.3292(7)
H42 H 0.6646 -0.0119 0.3554
H43 H 0.6038 -0.0203 0.3480
H44 H 0.6266 0.0628 0.3345
O10 O 0.4300(4) 0.0374(4) -0.0153(8)
O9? O 0.6810(5) -0.0088(7) 0.3239(6)
H45? H 0.6946 -0.0502 0.3443
C33? C 0.6687(10) -0.0182(16) 0.2418(7)
H46? H 0.6949 0.0107 0.2271
H47? H 0.6336 0.0028 0.2169
H48? H 0.6699 -0.0739 0.2301
loop_
_geom_bond_atom_site_label_1
_geom_bond_atom_site_label_2
_geom_bond_site_symmetry_1
_geom_bond_site_symmetry_2
Co1 O1 1_555 1_555
Co2 O2 1_555 1_555
Fe1 C1 1_555 1_555
O1 C3 1_555 1_555
O2 C16 1_555 1_555
N1 Co1 1_555 1_555
O3 Co2 1_555 1_555
N2 Co1 1_555 1_555
N3 Co2 1_555 1_555
N4 Co2 1_555 1_555
N5 C1 1_555 1_555
N6 C11 1_555 1_555
N7 C13 1_555 1_555
N8 Co2 1_555 1_555
N9 C15 1_555 1_555
N10 Co1 1_555 1_555
C2 N2 1_555 1_555
C3 H1 1_555 1_555
H2 C3 1_555 1_555
N11 Co2 1_555 1_555
C4 N1 1_555 1_555
C5 N2 1_555 1_555
H3 C5 1_555 1_555
H4 C5 1_555 1_555
C6 C2 1_555 1_555
H5 C6 1_555 1_555
H6 C6 1_555 1_555
H7 C6 1_555 1_555
C7 N4 1_555 1_555
C8 Fe1 1_555 1_555
C9 C4 1_555 1_555
H8 C9 1_555 1_555
C10 Fe1 1_555 1_555
C11 Fe1 1_555 1_555
C12 O1 1_555 1_555
H9 C12 1_555 1_555
H10 C12 1_555 1_555
C13 Fe1 1_555 1_555
C14 C7 1_555 1_555
H11 C14 1_555 1_555
C15 Fe1 1_555 1_555
C16 H12 1_555 1_555
H13 C16 1_555 1_555
C17 N4 1_555 1_555
C18 N8 1_555 1_555
C19 O2 1_555 1_555
H14 C19 1_555 1_555
H15 C19 1_555 1_555
C20 N11 1_555 1_555
C21 N8 1_555 1_555
H16 C21 1_555 1_555
H17 C21 1_555 1_555
C22 C20 1_555 1_555
H18 C22 1_555 1_555
H19 C22 1_555 1_555
H20 C22 1_555 1_555
C23 O3 1_555 1_555
H21 C23 1_555 1_555
H22 C23 1_555 1_555
C24 C18 1_555 1_555
H23 C24 1_555 1_555
H24 C24 1_555 1_555
H25 C24 1_555 1_555
C25 O3 1_555 1_555
H26 C25 1_555 1_555
H27 C25 1_555 1_555
C26 N11 1_555 1_555
H28 C26 1_555 1_555
H29 C26 1_555 1_555
C27 C17 1_555 1_555
H30 C27 1_555 1_555
C28 C14 1_555 1_555
H31 C28 1_555 1_555
C29 C9 1_555 1_555
H32 C29 1_555 1_555
O6 H33 1_555 1_555
C30 O6 1_555 1_555
H34 C30 1_555 1_555
H35 C30 1_555 1_555
H36 C30 1_555 1_555
O7 H37 1_555 1_555
C31 O7 1_555 1_555
H38 C31 1_555 1_555
H39 C31 1_555 1_555
H40 C31 1_555 1_555
O8 H41 1_555 1_555
C32 O8 1_555 1_555
H42 C32 1_555 1_555
H43 C32 1_555 1_555
H44 C32 1_555 1_555
O1A Co1 1_555 1_555
N2A Co1 1_555 1_555
C2A N2A 1_555 1_555
C3A C3 1_555 1_555
H1A C3A 1_555 1_555
H2A C3A 1_555 1_555
C4A N1 1_555 1_555
C5A N2A 1_555 1_555
H3A C5A 1_555 1_555
H4A C5A 1_555 1_555
C6A C2A 1_555 1_555
H5A C6A 1_555 1_555
H6A C6A 1_555 1_555
H7A C6A 1_555 1_555
C9A C29 1_555 1_555
H8A C9A 1_555 1_555
C12A O1A 1_555 1_555
H9A C12A 1_555 1_555
H10A C12A 1_555 1_555
Co2A O2A 1_555 1_555
Fe1A C1A 1_555 1_555
O2A C16A 1_555 1_555
O3A Co2A 1_555 1_555
N3A Co2A 1_555 1_555
N4A Co2A 1_555 1_555
N5A C1A 1_555 1_555
N6A C11A 1_555 1_555
N7A C13A 1_555 1_555
N8A Co2A 1_555 1_555
N9A C15A 1_555 1_555
N10A Co1 1_555 1_555
N11A Co2A 1_555 1_555
C7A N4A 1_555 1_555
C8A Fe1A 1_555 1_555
C10A Fe1A 1_555 1_555
C11A Fe1A 1_555 1_555
C13A Fe1A 1_555 1_555
C14A C7A 1_555 1_555
H11A C14A 1_555 1_555
C15A Fe1A 1_555 1_555
C16A H12A 1_555 1_555
H13A C16A 1_555 1_555
C17A N4A 1_555 1_555
C18A N8A 1_555 1_555
C19A O2A 1_555 1_555
H14A C19A 1_555 1_555
H15A C19A 1_555 1_555
C20A N11A 1_555 1_555
C21A N8A 1_555 1_555
H16A C21A 1_555 1_555
H17A C21A 1_555 1_555
C22A C20A 1_555 1_555
H18A C22A 1_555 1_555
H19A C22A 1_555 1_555
H20A C22A 1_555 1_555
C23A O3A 1_555 1_555
H21A C23A 1_555 1_555
H22A C23A 1_555 1_555
C24A C18A 1_555 1_555
H23A C24A 1_555 1_555
H24A C24A 1_555 1_555
H25A C24A 1_555 1_555
C25A O3A 1_555 1_555
H26A C25A 1_555 1_555
H27A C25A 1_555 1_555
C26A N11A 1_555 1_555
H28A C26A 1_555 1_555
H29A C26A 1_555 1_555
C27A C17A 1_555 1_555
H30A C27A 1_555 1_555
C28A C14A 1_555 1_555
H31A C28A 1_555 1_555
Co2B N5A 1_555 1_555
Co2C N5 1_555 1_555
N5B Co2A 1_555 1_555
N5C Co2 1_555 1_555
N3 C8 1_555 1_555
N10 C10 1_555 1_555
C2 C4 1_555 1_555
C5 C12 1_555 1_555
C7 C18 1_555 1_555
C16 C25 1_555 1_555
C17 C20 1_555 1_555
C19 C21 1_555 1_555
C23 C26 1_555 1_555
C27 C28 1_555 1_555
O1A C3A 1_555 1_555
C2A C4A 1_555 1_555
C4A C9A 1_555 1_555
C5A C12A 1_555 1_555
N3A C8A 1_555 1_555
N10A C10A 1_555 1_555
C7A C18A 1_555 1_555
C16A C25A 1_555 1_555
C17A C20A 1_555 1_555
C19A C21A 1_555 1_555
C23A C26A 1_555 1_555
C27A C28A 1_555 1_555

#END
