
#######################################################################
#
#                 Cambridge Crystallographic Data Centre
#                                CCDC 
#
#######################################################################
#
# If this CIF has been generated from an entry in the Cambridge 
# Structural Database, then it will include bibliographic, chemical, 
# crystal, experimental, refinement or atomic coordinate data resulting 
# from the CCDC's data processing and validation procedures.
#
#######################################################################

data_BOFWEA
_symmetry_cell_setting           monoclinic
_symmetry_space_group_name_H-M   'C 2'
_symmetry_Int_Tables_number      5
_space_group_name_Hall           'C 2y'
loop_
_symmetry_equiv_pos_site_id
_symmetry_equiv_pos_as_xyz
1 x,y,z
2 -x,y,-z
3 1/2+x,1/2+y,z
4 1/2-x,1/2+y,-z
_cell_length_a                   22.797(8)
_cell_length_b                   10.984(4)
_cell_length_c                   11.892(4)
_cell_angle_alpha                90
_cell_angle_beta                 118.293(7)
_cell_angle_gamma                90
_cell_volume                     2622.04
loop_
_atom_site_label
_atom_site_type_symbol
_atom_site_fract_x
_atom_site_fract_y
_atom_site_fract_z
C1 C 0.2675(6) 0.957(2) 0.6572(13)
H1 H 0.2645 0.9711 0.7315
C2 C 0.2251(8) 1.0233(15) 0.5464(18)
H2 H 0.1951 1.0803 0.5469
C3 C 0.2300(8) 1.0001(16) 0.440(2)
H3 H 0.2025 1.0422 0.3653
C4 C 0.2737(10) 0.9172(15) 0.4372(16)
H4 H 0.2757 0.9036 0.3619
C5 C 0.3156(8) 0.8526(13) 0.5471(15)
H5 H 0.3454 0.7954 0.5459
C6 C 0.3120(6) 0.8754(12) 0.6601(13)
C7 C 0.3595(6) 0.8072(11) 0.7785(12)
C8 C 0.4109(5) 0.7825(10) 1.0069(12)
H6 H 0.4520 0.7675 1.0020
C9 C 0.3866(6) 0.6581(10) 1.0319(11)
C10 C 0.4289(6) 0.8656(11) 1.1244(13)
H7 H 0.4717 0.8392 1.1923
H8 H 0.4347 0.9478 1.1014
C11 C 0.3806(6) 0.8706(12) 1.1779(12)
H9 H 0.4009 0.9172 1.2566
H10 H 0.3738 0.7885 1.1994
C12 C 0.3126(6) 0.9263(9) 1.0899(10)
C13 C 0.4116(6) 0.4126(10) 0.8797(10)
H11 H 0.4167 0.4967 0.8873
C14 C 0.4444(6) 0.3529(12) 0.8281(11)
H12 H 0.4704 0.3964 0.8009
C15 C 0.4402(5) 0.2288(12) 0.8149(9)
C16 C 0.4007(6) 0.1743(10) 0.8568(12)
H13 H 0.3942 0.0905 0.8478
C17 C 0.3695(6) 0.2414(13) 0.9133(11)
H14 H 0.3455 0.2007 0.9468
C18 C 0.4724(6) 0.1559(11) 0.7520(10)
H15 H 0.4554 0.0733 0.7393
H16 H 0.5200 0.1525 0.8089
C19 C 0.4604(6) 0.2077(12) 0.6225(10)
H17 H 0.4797 0.2885 0.6354
H18 H 0.4827 0.1566 0.5880
C20 C 0.3859(6) 0.2150(12) 0.5260(10)
H19 H 0.3673 0.1335 0.5099
H20 H 0.3633 0.2622 0.5629
C21 C 0.3727(5) 0.2723(11) 0.4001(10)
C22 C 0.3330(6) 0.2162(11) 0.2847(9)
H21 H 0.3151 0.1399 0.2836
C23 C 0.3197(5) 0.2710(10) 0.1730(9)
H22 H 0.2919 0.2318 0.0968
C24 C 0.3837(5) 0.4345(11) 0.2783(10)
H23 H 0.4025 0.5096 0.2779
C25 C 0.3967(5) 0.3831(11) 0.3928(10)
H24 H 0.4228 0.4256 0.4678
N1 N 0.3636(4) 0.8409(8) 0.8872(9)
H25 H 0.3382 0.8981 0.8886
N2 N 0.3733(4) 0.3626(8) 0.9201(7)
N3 N 0.3453(4) 0.3803(8) 0.1687(7)
O1 O 0.3279(4) 0.6287(6) 0.9584(7)
O2 O 0.4275(4) 0.5911(8) 1.1135(8)
O3 O 0.3939(5) 0.7218(10) 0.7704(8)
O4 O 0.3031(4) 0.9933(6) 1.0001(8)
O5 O 0.2672(4) 0.8997(7) 1.1207(8)
Zn1 Zn 0.32203(6) 0.45656(11) 0.99659(10)
N3_2 N 0.3453(4) 0.3803(8) 1.1687(7)
O5C O 0.2328(4) 0.3997(7) 0.8793(8)
Zn1_2 Zn 0.32203(6) 0.45656(11) -0.00341(10)
Zn1C Zn 0.17797(6) 0.95656(11) 1.00341(10)
O6 O 0.4583(4) 0.6065(9) 0.6548(8)
H26 H 0.4286 0.5916 0.6766
H27 H 0.4781 0.5400 0.6579
O7 O 0.5000 0.726(3) 0.5000
O8 O 0.5000 0.942(4) 0.5000
H28 H 0.5252 0.9749 0.4727
H28A H 0.4748 0.9749 0.5273
H29? H 0.5000 0.8644 0.5000
H30? H 0.4694 0.7242 0.5244
H31? H 0.4825 0.7194 0.4188
loop_
_geom_bond_atom_site_label_1
_geom_bond_atom_site_label_2
_geom_bond_site_symmetry_1
_geom_bond_site_symmetry_2
C1 H1 1_555 1_555
C2 C1 1_555 1_555
H2 C2 1_555 1_555
C3 C2 1_555 1_555
H3 C3 1_555 1_555
C4 C3 1_555 1_555
H4 C4 1_555 1_555
C5 C4 1_555 1_555
H5 C5 1_555 1_555
C6 C1 1_555 1_555
C7 C6 1_555 1_555
C8 H6 1_555 1_555
C9 C8 1_555 1_555
C10 C8 1_555 1_555
H7 C10 1_555 1_555
H8 C10 1_555 1_555
C11 C10 1_555 1_555
H9 C11 1_555 1_555
H10 C11 1_555 1_555
C12 C11 1_555 1_555
C13 H11 1_555 1_555
C14 C13 1_555 1_555
H12 C14 1_555 1_555
C15 C14 1_555 1_555
C16 C15 1_555 1_555
H13 C16 1_555 1_555
C17 C16 1_555 1_555
H14 C17 1_555 1_555
C18 C15 1_555 1_555
H15 C18 1_555 1_555
H16 C18 1_555 1_555
C19 C18 1_555 1_555
H17 C19 1_555 1_555
H18 C19 1_555 1_555
C20 C19 1_555 1_555
H19 C20 1_555 1_555
H20 C20 1_555 1_555
C21 C20 1_555 1_555
C22 C21 1_555 1_555
H21 C22 1_555 1_555
C23 C22 1_555 1_555
H22 C23 1_555 1_555
C24 H23 1_555 1_555
C25 C21 1_555 1_555
H24 C25 1_555 1_555
N1 C7 1_555 1_555
H25 N1 1_555 1_555
N2 C13 1_555 1_555
N3 C23 1_555 1_555
O1 C9 1_555 1_555
O2 C9 1_555 1_555
O3 C7 1_555 1_555
O4 C12 1_555 1_555
O5 C12 1_555 1_555
Zn1 N2 1_555 1_555
O6 H26 1_555 1_555
H27 O6 1_555 1_555
O8 H28 1_555 1_555
N3_2 Zn1 1_555 1_555
O5C Zn1 1_555 1_555
Zn1_2 N3 1_555 1_555
Zn1C O5 1_555 1_555
H28A O8 1_555 1_555
C5 C6 1_555 1_555
C8 N1 1_555 1_555
C17 N2 1_555 1_555
C24 C25 1_555 1_555
C24 N3 1_555 1_555
O1 Zn1 1_555 1_555

#END
