
#######################################################################
#
#                 Cambridge Crystallographic Data Centre
#                                CCDC 
#
#######################################################################
#
# If this CIF has been generated from an entry in the Cambridge 
# Structural Database, then it will include bibliographic, chemical, 
# crystal, experimental, refinement or atomic coordinate data resulting 
# from the CCDC's data processing and validation procedures.
#
#######################################################################

data_BOFZON
_symmetry_cell_setting           monoclinic
_symmetry_space_group_name_H-M   'C 2/c'
_symmetry_Int_Tables_number      15
_space_group_name_Hall           '-C 2yn'
loop_
_symmetry_equiv_pos_site_id
_symmetry_equiv_pos_as_xyz
1 x,y,z
2 -x,y,1/2-z
3 1/2+x,1/2+y,z
4 1/2-x,1/2+y,1/2-z
5 -x,-y,-z
6 x,-y,1/2+z
7 1/2-x,1/2-y,-z
8 1/2+x,1/2-y,1/2+z
_cell_length_a                   7.3085(14)
_cell_length_b                   15.6985(15)
_cell_length_c                   18.966(4)
_cell_angle_alpha                90
_cell_angle_beta                 99.412(7)
_cell_angle_gamma                90
_cell_volume                     2146.72
loop_
_atom_site_label
_atom_site_type_symbol
_atom_site_fract_x
_atom_site_fract_y
_atom_site_fract_z
Ag1 Ag 0.55879(5) -0.57979(3) -0.03441(2)
O1 O 0.4864(6) -0.4559(3) -0.1197(2)
O2 O 0.3803(7) -0.3376(3) -0.0749(2)
N1 N 0.8587(7) -0.5898(3) -0.0528(3)
N2 N 0.8325(7) -0.5021(3) -0.1523(3)
H1 H 0.7115 -0.5004 -0.1540
H2 H 0.8841 -0.4741 -0.1841
C1 C 0.4707(7) -0.3297(3) -0.1888(3)
C2 C 0.4421(7) -0.3785(4) -0.1231(3)
C3 C 0.5000 -0.3748(5) -0.2500
H3 H 0.5000 -0.4353 -0.2500
C4 C 0.4686(9) -0.2423(4) -0.1895(3)
H4 H 0.4453 -0.2119 -0.1485
C5 C 0.9725(8) -0.6376(4) -0.0043(3)
H5 H 0.9194 -0.6693 0.0299
C6 C 0.5000 -0.1979(6) -0.2500
H6 H 0.5000 -0.1373 -0.2500
C7 C 0.9378(8) -0.5471(3) -0.1013(3)
C8 C 1.1603(8) -0.6419(4) -0.0027(3)
H7 H 1.2326 -0.6755 0.0314
C9 C 1.1340(8) -0.5515(4) -0.0986(3)
H8 H 1.1874 -0.5209 -0.1320
N3 N 1.2417(7) -0.5971(3) -0.0508(3)
O1A O 0.5136(6) -0.4559(3) -0.3803(2)
O2A O 0.6197(7) -0.3376(3) -0.4251(2)
C1A C 0.5293(7) -0.3297(3) -0.3112(3)
C2A C 0.5579(7) -0.3785(4) -0.3769(3)
C4A C 0.5314(9) -0.2423(4) -0.3105(3)
H4A H 0.5547 -0.2119 -0.3515
Ag1A Ag 0.44121(5) -0.57979(3) -0.46559(2)
N1A N 0.1413(7) -0.5898(3) -0.4472(3)
N2A N 0.1675(7) -0.5021(3) -0.3477(3)
H1A H 0.2885 -0.5004 -0.3460
H2A H 0.1159 -0.4741 -0.3159
C5A C 0.0275(8) -0.6376(4) -0.4957(3)
H5A H 0.0806 -0.6693 -0.5299
C7A C 0.0622(8) -0.5471(3) -0.3987(3)
C8A C -0.1603(8) -0.6419(4) -0.4973(3)
H7A H -0.2326 -0.6755 -0.5314
C9A C -0.1340(8) -0.5515(4) -0.4014(3)
H8A H -0.1874 -0.5209 -0.3680
N3A N -0.2417(7) -0.5971(3) -0.4492(3)
Ag1_2 Ag 1.55879(5) -0.57979(3) -0.03441(2)
Ag1A_2 Ag -0.55879(5) -0.57979(3) -0.46559(2)
Ag1D Ag 0.44121(5) -0.42021(3) 0.03441(2)
Ag1E Ag 0.55879(5) -0.42021(3) -0.53441(2)
O2D O 0.6197(7) -0.6624(3) 0.0749(2)
O2E O 0.3803(7) -0.6624(3) -0.5749(2)
N3_2 N 0.2417(7) -0.5971(3) -0.0508(3)
N3A_2 N 0.7583(7) -0.5971(3) -0.4492(3)
O3 O 1.0000 -0.3907(5) -0.2500
N4 N 1.0000 -0.2475(6) -0.2500
loop_
_geom_bond_atom_site_label_1
_geom_bond_atom_site_label_2
_geom_bond_site_symmetry_1
_geom_bond_site_symmetry_2
Ag1 O1 1_555 1_555
O1 C2 1_555 1_555
O2 C2 1_555 1_555
N1 Ag1 1_555 1_555
N2 H1 1_555 1_555
H2 N2 1_555 1_555
C1 C2 1_555 1_555
C3 C1 1_555 1_555
H3 C3 1_555 1_555
C4 C1 1_555 1_555
H4 C4 1_555 1_555
C5 N1 1_555 1_555
H5 C5 1_555 1_555
C6 C4 1_555 1_555
H6 C6 1_555 1_555
C7 N1 1_555 1_555
C8 C5 1_555 1_555
H7 C8 1_555 1_555
C9 C7 1_555 1_555
H8 C9 1_555 1_555
N3 C8 1_555 1_555
O1A C2A 1_555 1_555
O2A C2A 1_555 1_555
C1A C3 1_555 1_555
C2A C1A 1_555 1_555
C4A C6 1_555 1_555
H4A C4A 1_555 1_555
Ag1A O1A 1_555 1_555
N1A Ag1A 1_555 1_555
N2A H1A 1_555 1_555
H2A N2A 1_555 1_555
C5A N1A 1_555 1_555
H5A C5A 1_555 1_555
C7A N1A 1_555 1_555
C8A C5A 1_555 1_555
H7A C8A 1_555 1_555
C9A C7A 1_555 1_555
H8A C9A 1_555 1_555
N3A C8A 1_555 1_555
Ag1_2 N3 1_555 1_555
Ag1A_2 N3A 1_555 1_555
Ag1D Ag1 1_555 1_555
Ag1E O2A 1_555 1_555
O2D Ag1 1_555 1_555
O2E Ag1A 1_555 1_555
N3_2 Ag1 1_555 1_555
N3A_2 Ag1A 1_555 1_555
O2 Ag1D 1_555 1_555
N2 C7 1_555 1_555
C9 N3 1_555 1_555
C1A C4A 1_555 1_555
Ag1A Ag1E 1_555 1_555
N2A C7A 1_555 1_555
C9A N3A 1_555 1_555

#END
