
#######################################################################
#
#                 Cambridge Crystallographic Data Centre
#                                CCDC 
#
#######################################################################
#
# If this CIF has been generated from an entry in the Cambridge 
# Structural Database, then it will include bibliographic, chemical, 
# crystal, experimental, refinement or atomic coordinate data resulting 
# from the CCDC's data processing and validation procedures.
#
#######################################################################

data_BOFZUT
_symmetry_cell_setting           triclinic
_symmetry_space_group_name_H-M   'P -1'
_symmetry_Int_Tables_number      2
_space_group_name_Hall           '-P 1'
loop_
_symmetry_equiv_pos_site_id
_symmetry_equiv_pos_as_xyz
1 x,y,z
2 -x,-y,-z
_cell_length_a                   9.832(2)
_cell_length_b                   10.173(4)
_cell_length_c                   11.258(3)
_cell_angle_alpha                82.46609
_cell_angle_beta                 78.897(4)
_cell_angle_gamma                76.00535
_cell_volume                     1067.93
loop_
_atom_site_label
_atom_site_type_symbol
_atom_site_fract_x
_atom_site_fract_y
_atom_site_fract_z
Ag1 Ag 0.03593(7) 0.62540(6) 0.94838(7)
Ag2 Ag 0.08233(8) 1.33811(7) 0.78130(7)
Ag3 Ag 0.37110(10) 1.20842(8) 0.61630(9)
C1 C 0.3346(10) 1.4540(9) 0.7835(9)
N1 N 0.0690(8) 1.5155(8) 0.3453(7)
C2 C 0.2618(11) 1.4702(10) 0.4524(9)
H1 H 0.3337(11) 1.5024(10) 0.4776(9)
O1 O 0.2078(7) 1.4997(6) 0.7690(6)
C3 C 0.0561(11) 1.3915(10) 0.3765(9)
H2 H -0.0156(11) 1.3604(10) 0.3497(9)
C4 C 0.3857(9) 1.6845(9) 0.7310(8)
H3 H 0.3058(9) 1.7086(9) 0.6904(8)
C5 C 0.1742(12) 1.5554(10) 0.3803(10)
H4 H 0.1884(12) 1.6446(10) 0.3547(10)
N2 N 0.2482(9) 1.3407(8) 0.4888(7)
C6 C 0.4211(9) 1.5541(9) 0.7870(8)
C7 C 0.4649(9) 1.7819(8) 0.7326(9)
O2 O 0.7915(7) 1.4499(7) 0.9401(6)
O3 O 0.8163(7) 1.6637(7) 0.9072(7)
O4 O 0.3211(8) 1.9496(7) 0.6169(8)
N3 N 0.0844(9) 1.1216(8) 0.8285(8)
O5 O 0.3921(8) 1.3274(7) 0.7943(8)
N4 N 0.0765(9) 0.8475(8) 0.8820(9)
C8 C 0.7551(10) 1.5726(9) 0.9031(9)
C9 C 0.6229(9) 1.6116(9) 0.8451(8)
C10 C 0.1707(11) 1.0376(10) 0.8989(10)
C11 C 0.5822(10) 1.7453(9) 0.7917(9)
H5 H 0.6351(10) 1.8107(9) 0.7961(9)
C12 C 0.1654(11) 0.8995(10) 0.9270(10)
C13 C 0.5448(9) 1.5176(9) 0.8433(9)
H6 H 0.5730(9) 1.4277(9) 0.8796(9)
C14 C 0.1478(10) 1.3000(9) 0.4509(9)
N5 N 0.1295(13) 1.1759(10) 0.4818(11)
H7 H 0.0616(13) 1.1495(10) 0.4571(11)
H8 H 0.1851(13) 1.1190(10) 0.5274(11)
C15 C -0.0047(11) 1.0658(10) 0.7832(10)
H9 H -0.0652(11) 1.1207(10) 0.7308(10)
C16 C 0.4221(10) 1.9220(9) 0.6755(9)
C17 C -0.0089(11) 0.9322(10) 0.8116(10)
H10 H -0.0750(11) 0.8977(10) 0.7802(10)
N6 N 0.2688(9) 1.0796(8) 0.9439(8)
H11 H 0.3520(9) 1.038(7) 0.912(6)
H12 H 0.259(6) 1.1657(17) 0.925(7)
O6 O 0.4840(9) 2.0106(7) 0.6925(8)
Ag1_2 Ag 0.03593(7) 1.62540(6) 0.94838(7)
Ag1_3 Ag 1.03593(7) 1.62540(6) 0.94838(7)
Ag1A Ag -0.03593(7) 0.37460(6) 1.05162(7)
Ag1A_2 Ag -0.03593(7) 1.37460(6) 1.05162(7)
Ag1A_3 Ag 0.96407(7) 1.37460(6) 1.05162(7)
Ag2A Ag -0.08233(8) 0.66189(7) 1.21870(7)
Ag2A_2 Ag -0.08233(8) 1.66189(7) 0.21870(7)
Ag3_2 Ag 0.37110(10) 2.20842(8) 0.61630(9)
N1A N -0.0690(8) 1.4845(8) 0.6547(7)
O1_2 O 0.2078(7) 0.4997(6) 0.7690(6)
O2A O 0.2085(7) 0.5501(7) 1.0599(6)
O3_2 O -0.1837(7) 0.6637(7) 0.9072(7)
O6_2 O 0.4840(9) 1.0106(7) 0.6925(8)
loop_
_geom_bond_atom_site_label_1
_geom_bond_atom_site_label_2
_geom_bond_site_symmetry_1
_geom_bond_site_symmetry_2
Ag1 N4 1_555 1_555
Ag2 Ag3 1_555 1_555
Ag3 N2 1_555 1_555
C1 O1 1_555 1_555
N1 C3 1_555 1_555
C2 H1 1_555 1_555
O1 Ag2 1_555 1_555
C3 H2 1_555 1_555
C4 H3 1_555 1_555
C5 N1 1_555 1_555
H4 C5 1_555 1_555
N2 C2 1_555 1_555
C6 C1 1_555 1_555
C7 C4 1_555 1_555
O2 C8 1_555 1_555
O3 C8 1_555 1_555
O4 C16 1_555 1_555
N3 Ag2 1_555 1_555
O5 Ag3 1_555 1_555
N4 C12 1_555 1_555
C8 C9 1_555 1_555
C9 C11 1_555 1_555
C10 N3 1_555 1_555
C11 C7 1_555 1_555
H5 C11 1_555 1_555
C12 C10 1_555 1_555
C13 C6 1_555 1_555
H6 C13 1_555 1_555
C14 C3 1_555 1_555
N5 C14 1_555 1_555
H7 N5 1_555 1_555
H8 N5 1_555 1_555
C15 N3 1_555 1_555
H9 C15 1_555 1_555
C16 C7 1_555 1_555
C17 N4 1_555 1_555
H10 C17 1_555 1_555
N6 C10 1_555 1_555
H11 N6 1_555 1_555
H12 N6 1_555 1_555
O6 C16 1_555 1_555
Ag1_2 O1 1_555 1_555
Ag1_3 O3 1_555 1_555
Ag1A Ag1 1_555 1_555
Ag1A_2 Ag2 1_555 1_555
Ag1A_3 O2 1_555 1_555
Ag2A Ag1 1_555 1_555
Ag2A_2 N1 1_555 1_555
Ag3_2 O6 1_555 1_555
N1A Ag2 1_555 1_555
O1_2 Ag1 1_555 1_555
O2A Ag1 1_555 1_555
O3_2 Ag1 1_555 1_555
O6_2 Ag3 1_555 1_555
C1 O5 1_555 1_555
C2 C5 1_555 1_555
C4 C6 1_555 1_555
N2 C14 1_555 1_555
C9 C13 1_555 1_555
C15 C17 1_555 1_555
Ag1_2 Ag1A_2 1_555 1_555
Ag1_3 Ag1A_3 1_555 1_555

#END
