
#######################################################################
#
#                 Cambridge Crystallographic Data Centre
#                                CCDC 
#
#######################################################################
#
# If this CIF has been generated from an entry in the Cambridge 
# Structural Database, then it will include bibliographic, chemical, 
# crystal, experimental, refinement or atomic coordinate data resulting 
# from the CCDC's data processing and validation procedures.
#
#######################################################################

data_BOFZIH
_symmetry_cell_setting           tetragonal
_symmetry_space_group_name_H-M   'P -4 21 c'
_symmetry_Int_Tables_number      114
_space_group_name_Hall           'P -4 2n'
loop_
_symmetry_equiv_pos_site_id
_symmetry_equiv_pos_as_xyz
1 x,y,z
2 y,-x,-z
3 -y,x,-z
4 1/2+x,1/2-y,1/2-z
5 1/2-x,1/2+y,1/2-z
6 -x,-y,z
7 1/2-y,1/2-x,1/2+z
8 1/2+y,1/2+x,1/2+z
_cell_length_a                   19.574(1)
_cell_length_b                   19.574(1)
_cell_length_c                   6.949(5)
_cell_angle_alpha                90
_cell_angle_beta                 90
_cell_angle_gamma                90
_cell_volume                     2662.45
loop_
_atom_site_label
_atom_site_type_symbol
_atom_site_fract_x
_atom_site_fract_y
_atom_site_fract_z
Ag1 Ag 0.22648(4) 0.80011(4) 0.68902(16)
Ag2 Ag 0.28920(4) 0.67588(5) 0.78827(16)
O1 O 0.1845(4) 0.6697(5) 0.9229(14)
O2 O 0.1337(4) 0.7680(4) 0.8358(15)
C1 C 0.3551(6) 0.4507(6) 0.799(2)
H1 H 0.3919(6) 0.4259(6) 0.751(2)
C2 C 0.3561(7) 0.5212(6) 0.790(3)
N1 N 0.3047(5) 0.5594(5) 0.8581(15)
C3 C 0.1338(6) 0.7086(6) 0.9095(18)
C4 C 0.0010(6) 0.5984(7) 1.159(2)
H2 H -0.0004(6) 0.5609(7) 1.241(2)
C5 C 0.2527(6) 0.5265(6) 0.9345(18)
H3 H 0.2163(6) 0.5519(6) 0.9827(18)
C6 C 0.0056(6) 0.7144(6) 0.9318(16)
H4 H 0.0072(6) 0.7543(6) 0.8594(16)
C7 C 0.0645(6) 0.6224(6) 1.0901(19)
H5 H 0.1046(6) 0.5988(6) 1.1175(19)
C8 C 0.0659(6) 0.6815(6) 0.9811(16)
C9 C 0.4126(12) 0.5582(11) 0.683(5)
H6 H 0.454(3) 0.533(7) 0.69(3)
H7 H 0.401(6) 0.562(12) 0.549(9)
H8 H 0.419(10) 0.603(5) 0.74(3)
N2 N 0.3016(6) 0.4174(5) 0.8763(15)
C10 C 0.2497(6) 0.4566(7) 0.946(2)
H9 H 0.2119(6) 0.4358(7) 1.002(2)
O3 O -0.1176(4) 0.7756(4) 0.8310(13)
O4 O -0.1769(4) 0.6922(4) 0.9785(12)
C11 C -0.1217(6) 0.7218(7) 0.9271(18)
C12 C -0.0585(6) 0.6297(6) 1.106(2)
H10 H -0.1000(6) 0.6120(6) 1.147(2)
C13 C -0.0575(6) 0.6883(6) 0.9895(15)
Ag1C Ag -0.27352(4) 0.69989(4) 0.81098(16)
Ag1D Ag 0.27352(4) 0.30011(4) 0.81098(16)
Ag1G Ag 0.30011(4) 0.72648(4) 1.18902(16)
Ag2C Ag -0.21080(4) 0.82412(5) 0.71173(16)
Ag2G Ag 0.17588(5) 0.78920(4) 0.28827(16)
N2D N 0.1984(6) 0.9174(5) 0.6237(15)
O3C O 0.3824(4) 0.7244(4) 0.6690(13)
O4C O 0.3231(4) 0.8078(4) 0.5215(12)
loop_
_geom_bond_atom_site_label_1
_geom_bond_atom_site_label_2
_geom_bond_site_symmetry_1
_geom_bond_site_symmetry_2
Ag1 Ag2 1_555 1_555
Ag2 O1 1_555 1_555
O1 C3 1_555 1_555
O2 Ag1 1_555 1_555
C1 H1 1_555 1_555
C2 C1 1_555 1_555
N1 Ag2 1_555 1_555
C3 O2 1_555 1_555
C4 H2 1_555 1_555
C5 N1 1_555 1_555
H3 C5 1_555 1_555
C6 H4 1_555 1_555
C7 C4 1_555 1_555
H5 C7 1_555 1_555
C8 C3 1_555 1_555
C9 C2 1_555 1_555
H6 C9 1_555 1_555
H7 C9 1_555 1_555
H8 C9 1_555 1_555
N2 C1 1_555 1_555
C10 C5 1_555 1_555
H9 C10 1_555 1_555
O3 C11 1_555 1_555
O4 C11 1_555 1_555
C11 C13 1_555 1_555
C12 C4 1_555 1_555
H10 C12 1_555 1_555
C13 C6 1_555 1_555
Ag1C O4 1_555 1_555
Ag1D N2 1_555 1_555
Ag1G Ag2 1_555 1_555
Ag2C O3 1_555 1_555
Ag2G Ag1 1_555 1_555
N2D Ag1 1_555 1_555
O3C Ag2 1_555 1_555
O4C Ag1 1_555 1_555
C2 N1 1_555 1_555
C6 C8 1_555 1_555
C7 C8 1_555 1_555
N2 C10 1_555 1_555
C12 C13 1_555 1_555
Ag1C Ag2C 1_555 1_555

#END
