
#######################################################################
#
#                 Cambridge Crystallographic Data Centre
#                                CCDC 
#
#######################################################################
#
# If this CIF has been generated from an entry in the Cambridge 
# Structural Database, then it will include bibliographic, chemical, 
# crystal, experimental, refinement or atomic coordinate data resulting 
# from the CCDC's data processing and validation procedures.
#
#######################################################################

data_BOGFIM
_symmetry_cell_setting           monoclinic
_symmetry_space_group_name_H-M   'P 21'
_symmetry_Int_Tables_number      4
_space_group_name_Hall           'P 2yb'
loop_
_symmetry_equiv_pos_site_id
_symmetry_equiv_pos_as_xyz
1 x,y,z
2 -x,1/2+y,-z
_cell_length_a                   18.417(4)
_cell_length_b                   17.404(2)
_cell_length_c                   23.429(8)
_cell_angle_alpha                90
_cell_angle_beta                 104.86(3)
_cell_angle_gamma                90
_cell_volume                     7258.53
loop_
_atom_site_label
_atom_site_type_symbol
_atom_site_fract_x
_atom_site_fract_y
_atom_site_fract_z
O2 O 0.96065 0.57006 0.68400
C1 C 0.92476 0.61059 0.70733
C2 C 0.97857 0.64685 0.76490
C3 C 0.45180 0.75515 0.73292
C4 C 0.40714 0.71855 0.68715
C5 C 0.43160 0.64199 0.67256
C6 C 0.64442 0.66026 0.77194
C7 C 0.29949 0.27718 0.79863
Cu1 Cu 0.66030 0.21550 0.62215
O3 O 0.68921 0.25523 0.70594
O4 O 0.77005 0.25893 0.72011
C8 C 0.81856 0.23476 0.77600
N1 N 0.89466 0.25835 0.78825
C9 C 0.92089 0.29989 0.77010
C10 C 0.90971 0.33591 0.70038
C11 C 0.81299 0.33320 0.67924
C12 C 0.79496 0.18490 0.80669
C13 C 0.92846 0.35845 0.65528
O5 O 0.97471 0.42427 0.69338
C14 C 0.78029 0.33486 0.62338
N2 N 0.70609 0.30581 0.56555
C15 C 0.62709 0.37275 0.54012
C16 C 0.65630 0.29795 0.52626
O6 O 0.62605 0.20369 0.53595
C17 C 0.65402 0.41551 0.60053
N3 N 0.65252 0.50501 0.62432
N4 N 0.73496 0.47627 0.66121
C18 C 0.72954 0.39276 0.63048
C19 C 0.62636 0.24010 0.48138
C20 C 0.69827 0.53031 0.67265
Cu2 Cu 0.54028 0.55446 0.60005
C21 C 0.38127 0.55493 0.63092
N5 N 0.42980 0.57948 0.56758
C22 C 0.37647 0.44235 0.54167
C23 C 0.40075 0.51963 0.52351
O7 O 0.44051 0.49111 0.43922
O8 O 0.51131 0.53175 0.50674
C24 C 0.43368 0.50835 0.48125
C25 C 0.38223 0.44597 0.60395
N6 N 0.35756 0.38675 0.64789
C26 C 0.35173 0.42282 0.69134
N7 N 0.34646 0.49483 0.69111
C27 C 0.36827 0.49904 0.64437
Cu3 Cu 0.33341 0.27682 0.62754
O9 O 0.35140 0.25339 0.70485
C28 C 0.33544 0.17349 0.73712
C29 C 0.31892 0.18050 0.77833
N8 N 0.28847 0.11958 0.77990
C30 C 0.31378 0.06341 0.77161
C31 C 0.34063 0.05123 0.72760
C32 C 0.35584 0.11651 0.70515
C33 C 0.39366 0.10828 0.66417
N9 N 0.34707 0.16047 0.61328
C34 C 0.46118 0.19818 0.56907
C35 C 0.36219 0.20309 0.54137
O10 O 0.29091 0.28344 0.52780
C36 C 0.48933 0.17546 0.61445
N10 N 0.57415 0.17463 0.63714
N11 N 0.51719 0.09425 0.71418
C37 C 0.34979 -0.03926 0.71324
O11 O 0.41289 -0.03510 0.71008
C38 C 0.58348 0.14932 0.69636
C39 C 0.47408 0.12240 0.66857
O1 O 0.97509 0.25688 0.45291
loop_
_geom_bond_atom_site_label_1
_geom_bond_atom_site_label_2
_geom_bond_site_symmetry_1
_geom_bond_site_symmetry_2
O2 C1 1_555 1_555
C1 C2 1_555 1_555
C3 C4 1_555 1_555
C4 C5 1_555 1_555
Cu1 O3 1_555 1_555
O3 O4 1_555 1_555
O4 C8 1_555 1_555
C8 N1 1_555 1_555
N1 C9 1_555 1_555
C9 C10 1_555 1_555
C10 C11 1_555 1_555
C11 C14 1_555 1_555
C12 C8 1_555 1_555
C13 C10 1_555 1_555
O5 C13 1_555 1_555
C14 N2 1_555 1_555
N2 Cu1 1_555 1_555
C15 C16 1_555 1_555
C16 N2 1_555 1_555
O6 Cu1 1_555 1_555
C17 C15 1_555 1_555
N3 C17 1_555 1_555
N4 N3 1_555 1_555
C18 C14 1_555 1_555
C19 C16 1_555 1_555
C20 N3 1_555 1_555
Cu2 N3 1_555 1_555
C21 C27 1_555 1_555
N5 Cu2 1_555 1_555
C22 C23 1_555 1_555
C23 N5 1_555 1_555
O7 C24 1_555 1_555
O8 Cu2 1_555 1_555
C24 C23 1_555 1_555
C25 C22 1_555 1_555
N6 C25 1_555 1_555
C26 N6 1_555 1_555
N7 C26 1_555 1_555
C27 C25 1_555 1_555
Cu3 N6 1_555 1_555
O9 Cu3 1_555 1_555
C28 O9 1_555 1_555
C29 C28 1_555 1_555
N8 C28 1_555 1_555
C30 N8 1_555 1_555
C31 C30 1_555 1_555
C32 C28 1_555 1_555
C33 C32 1_555 1_555
N9 Cu3 1_555 1_555
C34 C36 1_555 1_555
C35 Cu3 1_555 1_555
O10 Cu3 1_555 1_555
C36 N10 1_555 1_555
N10 Cu1 1_555 1_555
N11 C38 1_555 1_555
C37 C31 1_555 1_555
O11 C37 1_555 1_555
C38 N10 1_555 1_555
C39 C33 1_555 1_555
O6 C19 1_555 1_555
C17 C18 1_555 1_555
N4 C18 1_555 1_555
N4 C20 1_555 1_555
O8 C24 1_555 1_555
N7 C27 1_555 1_555
C29 N8 1_555 1_555
C31 C32 1_555 1_555
C33 N9 1_555 1_555
C36 C39 1_555 1_555
N11 C39 1_555 1_555

#END
