
#######################################################################
#
#                 Cambridge Crystallographic Data Centre
#                                CCDC 
#
#######################################################################
#
# If this CIF has been generated from an entry in the Cambridge 
# Structural Database, then it will include bibliographic, chemical, 
# crystal, experimental, refinement or atomic coordinate data resulting 
# from the CCDC's data processing and validation procedures.
#
#######################################################################

data_BOGJEO01
_symmetry_cell_setting           monoclinic
_symmetry_space_group_name_H-M   'P 21/c'
_symmetry_Int_Tables_number      14
_space_group_name_Hall           '-P 2ybc'
loop_
_symmetry_equiv_pos_site_id
_symmetry_equiv_pos_as_xyz
1 x,y,z
2 -x,1/2+y,1/2-z
3 -x,-y,-z
4 x,1/2-y,1/2+z
_cell_length_a                   21.86(2)
_cell_length_b                   16.453(16)
_cell_length_c                   7.184(7)
_cell_angle_alpha                90
_cell_angle_beta                 97.643(11)
_cell_angle_gamma                90
_cell_volume                     2560.86
loop_
_atom_site_label
_atom_site_type_symbol
_atom_site_fract_x
_atom_site_fract_y
_atom_site_fract_z
C1 C 1.24857(13) 0.62390(18) 0.3156(4)
C2 C 1.30538(13) 0.6619(2) 0.2990(4)
C3 C 1.30927(13) 0.7457(2) 0.3062(4)
H1 H 1.3465 0.7713 0.2939
C4 C 1.25765(12) 0.79206(18) 0.3317(4)
H2 H 1.2608 0.8484 0.3358
C5 C 1.20120(12) 0.75546(17) 0.3514(3)
C6 C 1.19814(12) 0.67055(17) 0.3421(4)
H3 H 1.1610 0.6449 0.3541
C7 C 1.14811(12) 0.80587(16) 0.3818(3)
H4 H 1.1546 0.8617 0.3836
C8 C 1.09159(11) 0.78140(16) 0.4072(4)
H5 H 1.0829 0.7261 0.3993
C9 C 1.04231(11) 0.83728(15) 0.4472(4)
C10 C 0.98457(12) 0.80487(17) 0.4747(4)
H6 H 0.9796 0.7489 0.4635
C11 C 0.93404(12) 0.85034(15) 0.5175(4)
C12 C 0.87710(12) 0.80896(17) 0.5536(4)
H7 H 0.8741 0.7528 0.5397
C13 C 0.82937(11) 0.85044(17) 0.6061(4)
H8 H 0.8352 0.9062 0.6189
C14 C 0.76944(12) 0.82053(16) 0.6461(4)
C15 C 0.72475(12) 0.87746(17) 0.6840(4)
H9 H 0.7348 0.9324 0.6875
C16 C 0.66620(12) 0.85398(18) 0.7162(4)
C17 C 0.65053(12) 0.77084(18) 0.7117(4)
C18 C 0.69482(13) 0.71406(18) 0.6747(4)
H10 H 0.6851 0.6590 0.6719
C19 C 0.75318(12) 0.73867(17) 0.6420(4)
H11 H 0.7819 0.6998 0.6168
C20 C 1.19255(19) 0.5002(2) 0.3070(9)
H12 H 1.1785 0.5098 0.4262
H13 H 1.1983 0.4429 0.2905
H14 H 1.1624 0.5201 0.2083
C21 C 1.41134(15) 0.6429(3) 0.2606(6)
H15 H 1.4243 0.6768 0.3692
H16 H 1.4099 0.6762 0.1486
C22 C 1.45618(17) 0.5731(3) 0.2523(7)
H17 H 1.4569 0.5403 0.3631
H18 H 1.4967 0.5943 0.2453
H19 H 1.4433 0.5406 0.1433
C23 C 0.63579(19) 0.9896(2) 0.7788(8)
H20 H 0.6713 0.9952 0.8720
H21 H 0.6017 1.0186 0.8184
H22 H 0.6449 1.0114 0.6616
C24 C 0.57431(14) 0.6686(2) 0.7398(5)
H23 H 0.6027 0.6373 0.8271
H24 H 0.5748 0.6468 0.6145
C25 C 0.50995(16) 0.6646(3) 0.7940(6)
H25 H 0.5101 0.6868 0.9176
H26 H 0.4965 0.6090 0.7931
H27 H 0.4823 0.6954 0.7059
Cu1 Cu 1.0000 1.0000 0.5000
O1 O 1.24863(10) 0.54058(14) 0.3010(4)
O2 O 1.35290(10) 0.60964(16) 0.2731(4)
O3 O 1.05562(8) 0.91304(11) 0.4570(3)
O4 O 0.93378(8) 0.92830(11) 0.5308(3)
O5 O 0.62026(9) 0.90596(14) 0.7556(4)
O6 O 0.59191(8) 0.75310(13) 0.7457(3)
C26 C 0.9630(3) 0.9467(4) 0.0179(6)
H28 H 0.9344 0.9539 -0.0962
H29 H 0.9509 0.8978 0.0791
C27 C 0.9784(3) 1.0652(3) 0.0311(6)
H30 H 0.9788 1.1148 0.1042
H31 H 0.9500 1.0733 -0.0829
O7 O 0.9575(2) 1.0071(3) 0.1260(9)
C26B C 1.0370(3) 1.0533(4) -0.0179(6)
H28B H 1.0656 1.0461 0.0962
H29B H 1.0491 1.1022 -0.0791
C27B C 1.0216(3) 0.9348(3) -0.0311(6)
H30B H 1.0212 0.8852 -0.1042
H31B H 1.0500 0.9267 0.0829
O7B O 1.0425(2) 0.9929(3) -0.1260(9)
C1B C 0.75143(13) 1.37610(18) 0.6844(4)
C2B C 0.69462(13) 1.3381(2) 0.7010(4)
C3B C 0.69073(13) 1.2543(2) 0.6938(4)
H1B H 0.6535 1.2287 0.7061
C4B C 0.74235(12) 1.20794(18) 0.6683(4)
H2B H 0.7392 1.1516 0.6642
C5B C 0.79880(12) 1.24454(17) 0.6486(3)
C6B C 0.80186(12) 1.32945(17) 0.6579(4)
H3B H 0.8390 1.3551 0.6459
C7B C 0.85189(12) 1.19413(16) 0.6182(3)
H4B H 0.8454 1.1383 0.6164
C8B C 0.90841(11) 1.21860(16) 0.5928(4)
H5B H 0.9171 1.2739 0.6007
C9B C 0.95769(11) 1.16272(15) 0.5528(4)
C10B C 1.01543(12) 1.19513(17) 0.5253(4)
H6B H 1.0204 1.2511 0.5365
C11B C 1.06596(12) 1.14966(15) 0.4825(4)
C12B C 1.12290(12) 1.19104(17) 0.4464(4)
H7B H 1.1259 1.2472 0.4603
C13B C 1.17063(11) 1.14956(17) 0.3939(4)
H8B H 1.1648 1.0938 0.3811
C14B C 1.23056(12) 1.17947(16) 0.3539(4)
C15B C 1.27525(12) 1.12254(17) 0.3160(4)
H9B H 1.2652 1.0676 0.3125
C16B C 1.33380(12) 1.14602(18) 0.2838(4)
C17B C 1.34947(12) 1.22916(18) 0.2883(4)
C18B C 1.30518(13) 1.28594(18) 0.3253(4)
H10B H 1.3149 1.3410 0.3281
C19B C 1.24682(12) 1.26133(17) 0.3580(4)
H11B H 1.2181 1.3002 0.3832
C20B C 0.80745(19) 1.4998(2) 0.6930(9)
H12B H 0.8215 1.4902 0.5738
H13B H 0.8017 1.5571 0.7095
H14B H 0.8376 1.4799 0.7917
C21B C 0.58866(15) 1.3571(3) 0.7394(6)
H15B H 0.5757 1.3232 0.6308
H16B H 0.5901 1.3238 0.8514
C22B C 0.54382(17) 1.4269(3) 0.7477(7)
H17B H 0.5431 1.4597 0.6369
H18B H 0.5033 1.4057 0.7547
H19B H 0.5567 1.4594 0.8567
C23B C 1.36421(19) 1.0104(2) 0.2212(8)
H20B H 1.3287 1.0048 0.1280
H21B H 1.3983 0.9814 0.1816
H22B H 1.3551 0.9886 0.3384
C24B C 1.42569(14) 1.3314(2) 0.2602(5)
H23B H 1.3973 1.3627 0.1729
H24B H 1.4252 1.3532 0.3855
C25B C 1.49005(16) 1.3354(3) 0.2060(6)
H25B H 1.4899 1.3132 0.0824
H26B H 1.5035 1.3910 0.2069
H27B H 1.5177 1.3046 0.2941
O1B O 0.75137(10) 1.45942(14) 0.6990(4)
O2B O 0.64710(10) 1.39036(16) 0.7269(4)
O3B O 0.94438(8) 1.08696(11) 0.5430(3)
O4B O 1.06622(8) 1.07170(11) 0.4692(3)
O5B O 1.37974(9) 1.09404(14) 0.2444(4)
O6B O 1.40809(8) 1.24690(13) 0.2543(3)
Cu1_2 Cu 1.0000 1.0000 -0.5000
O7B_2 O 1.0425(2) 0.9929(3) 0.8740(9)
loop_
_geom_bond_atom_site_label_1
_geom_bond_atom_site_label_2
_geom_bond_site_symmetry_1
_geom_bond_site_symmetry_2
C1 C2 1_555 1_555
C2 C3 1_555 1_555
C3 H1 1_555 1_555
C4 C3 1_555 1_555
H2 C4 1_555 1_555
C5 C4 1_555 1_555
C6 C1 1_555 1_555
H3 C6 1_555 1_555
C7 C5 1_555 1_555
H4 C7 1_555 1_555
C8 C7 1_555 1_555
H5 C8 1_555 1_555
C9 C8 1_555 1_555
C10 C9 1_555 1_555
H6 C10 1_555 1_555
C11 C10 1_555 1_555
C12 C11 1_555 1_555
H7 C12 1_555 1_555
C13 C12 1_555 1_555
H8 C13 1_555 1_555
C14 C13 1_555 1_555
C15 C14 1_555 1_555
H9 C15 1_555 1_555
C16 C15 1_555 1_555
C17 C16 1_555 1_555
C18 C17 1_555 1_555
H10 C18 1_555 1_555
C19 C14 1_555 1_555
H11 C19 1_555 1_555
C20 H12 1_555 1_555
H13 C20 1_555 1_555
H14 C20 1_555 1_555
C21 H15 1_555 1_555
H16 C21 1_555 1_555
C22 C21 1_555 1_555
H17 C22 1_555 1_555
H18 C22 1_555 1_555
H19 C22 1_555 1_555
C23 H20 1_555 1_555
H21 C23 1_555 1_555
H22 C23 1_555 1_555
C24 H23 1_555 1_555
H24 C24 1_555 1_555
C25 C24 1_555 1_555
H25 C25 1_555 1_555
H26 C25 1_555 1_555
H27 C25 1_555 1_555
Cu1 O3 1_555 1_555
O1 C1 1_555 1_555
O2 C2 1_555 1_555
O3 C9 1_555 1_555
O4 C11 1_555 1_555
O5 C16 1_555 1_555
O6 C17 1_555 1_555
C26 H28 1_555 1_555
H29 C26 1_555 1_555
C27 H30 1_555 1_555
H31 C27 1_555 1_555
O7 Cu1 1_555 1_555
C26B C27 1_555 1_555
H28B C26B 1_555 1_555
H29B C26B 1_555 1_555
C27B C26 1_555 1_555
H30B C27B 1_555 1_555
H31B C27B 1_555 1_555
O7B C26B 1_555 1_555
C1B C2B 1_555 1_555
C2B C3B 1_555 1_555
C3B H1B 1_555 1_555
C4B C3B 1_555 1_555
H2B C4B 1_555 1_555
C5B C4B 1_555 1_555
C6B C1B 1_555 1_555
H3B C6B 1_555 1_555
C7B C5B 1_555 1_555
H4B C7B 1_555 1_555
C8B C7B 1_555 1_555
H5B C8B 1_555 1_555
C9B C8B 1_555 1_555
C10B C9B 1_555 1_555
H6B C10B 1_555 1_555
C11B C10B 1_555 1_555
C12B C11B 1_555 1_555
H7B C12B 1_555 1_555
C13B C12B 1_555 1_555
H8B C13B 1_555 1_555
C14B C13B 1_555 1_555
C15B C14B 1_555 1_555
H9B C15B 1_555 1_555
C16B C15B 1_555 1_555
C17B C16B 1_555 1_555
C18B C17B 1_555 1_555
H10B C18B 1_555 1_555
C19B C14B 1_555 1_555
H11B C19B 1_555 1_555
C20B H12B 1_555 1_555
H13B C20B 1_555 1_555
H14B C20B 1_555 1_555
C21B H15B 1_555 1_555
H16B C21B 1_555 1_555
C22B C21B 1_555 1_555
H17B C22B 1_555 1_555
H18B C22B 1_555 1_555
H19B C22B 1_555 1_555
C23B H20B 1_555 1_555
H21B C23B 1_555 1_555
H22B C23B 1_555 1_555
C24B H23B 1_555 1_555
H24B C24B 1_555 1_555
C25B C24B 1_555 1_555
H25B C25B 1_555 1_555
H26B C25B 1_555 1_555
H27B C25B 1_555 1_555
O1B C1B 1_555 1_555
O2B C2B 1_555 1_555
O3B Cu1 1_555 1_555
O4B Cu1 1_555 1_555
O5B C16B 1_555 1_555
O6B C17B 1_555 1_555
Cu1_2 O7B 1_555 1_555
O7B_2 Cu1 1_555 1_555
C5 C6 1_555 1_555
C18 C19 1_555 1_555
C20 O1 1_555 1_555
C21 O2 1_555 1_555
C23 O5 1_555 1_555
C24 O6 1_555 1_555
Cu1 O4 1_555 1_555
C26 O7 1_555 1_555
C27 O7 1_555 1_555
C27B O7B 1_555 1_555
C5B C6B 1_555 1_555
C9B O3B 1_555 1_555
C11B O4B 1_555 1_555
C18B C19B 1_555 1_555
C20B O1B 1_555 1_555
C21B O2B 1_555 1_555
C23B O5B 1_555 1_555
C24B O6B 1_555 1_555

#END
