
#######################################################################
#
#                 Cambridge Crystallographic Data Centre
#                                CCDC 
#
#######################################################################
#
# If this CIF has been generated from an entry in the Cambridge 
# Structural Database, then it will include bibliographic, chemical, 
# crystal, experimental, refinement or atomic coordinate data resulting 
# from the CCDC's data processing and validation procedures.
#
#######################################################################

data_BOGLAL
_symmetry_cell_setting           triclinic
_symmetry_space_group_name_H-M   'P -1'
_symmetry_Int_Tables_number      2
_space_group_name_Hall           '-P 1'
loop_
_symmetry_equiv_pos_site_id
_symmetry_equiv_pos_as_xyz
1 x,y,z
2 -x,-y,-z
_cell_length_a                   6.8097(6)
_cell_length_b                   9.3837(8)
_cell_length_c                   10.4556(10)
_cell_angle_alpha                85.279(3)
_cell_angle_beta                 75.434(3)
_cell_angle_gamma                69.180(3)
_cell_volume                     604.397
loop_
_atom_site_label
_atom_site_type_symbol
_atom_site_fract_x
_atom_site_fract_y
_atom_site_fract_z
U1 U 1.256709(14) 0.834195(10) 0.199071(9)
O1 O 1.1653(6) 0.9861(4) 0.3124(4)
O2 O 1.3469(5) 0.6798(3) 0.0885(3)
C1 C 1.0268(6) 0.6789(4) 0.4789(3)
N1 N 0.7911(5) 0.6579(3) 0.6894(3)
H1 H 0.9091 0.6059 0.7122
C2 C 0.8029(5) 0.7152(3) 0.5668(3)
C3 C 0.6151(6) 0.8005(4) 0.5294(4)
H2 H 0.6204 0.8409 0.4449
C4 C 0.4177(6) 0.8253(5) 0.6200(5)
H3 H 0.2895 0.8830 0.5966
C5 C 0.4131(8) 0.7637(5) 0.7445(5)
H4 H 0.2816 0.7800 0.8057
C6 C 0.6017(7) 0.6789(5) 0.7777(4)
H5 H 0.5993 0.6356 0.8611
S1 S 1.20719(12) 1.12224(9) -0.06879(8)
O3 O 1.2815(4) 0.9917(4) 0.0144(3)
O4 O 1.0777(6) 1.2602(4) 0.0039(4)
O5 O 1.0364(4) 0.7279(3) 0.3624(3)
O6 O 1.1795(5) 0.6017(4) 0.5269(3)
O7 O 1.0852(3) 1.0846(3) -0.1505(2)
O8 O 1.3994(4) 1.1415(4) -0.1600(3)
O9 O 1.4809(4) 0.6523(3) 0.3318(3)
H6 H 1.579(8) 0.603(6) 0.308(5)
H7 H 1.419(7) 0.608(5) 0.401(5)
U1A U 0.743291(14) 1.165805(10) -0.199071(9)
U1A_2 U 1.743291(14) 1.165805(10) -0.199071(9)
O7A O 0.9148(3) 0.9154(3) 0.1505(2)
O8A O 1.6006(4) 0.8585(4) 0.1600(3)
O10 O 0.8890(6) 1.4950(4) 0.1790(3)
H8 H 0.875(9) 1.570(7) 0.135(6)
H9 H 0.916(10) 1.428(7) 0.131(6)
loop_
_geom_bond_atom_site_label_1
_geom_bond_atom_site_label_2
_geom_bond_site_symmetry_1
_geom_bond_site_symmetry_2
U1 O1 1_555 1_555
O2 U1 1_555 1_555
C1 C2 1_555 1_555
N1 H1 1_555 1_555
C2 N1 1_555 1_555
C3 C2 1_555 1_555
H2 C3 1_555 1_555
C4 C3 1_555 1_555
H3 C4 1_555 1_555
C5 C4 1_555 1_555
H4 C5 1_555 1_555
C6 N1 1_555 1_555
H5 C6 1_555 1_555
S1 O3 1_555 1_555
O3 U1 1_555 1_555
O4 S1 1_555 1_555
O5 U1 1_555 1_555
O6 C1 1_555 1_555
O7 S1 1_555 1_555
O8 S1 1_555 1_555
O9 U1 1_555 1_555
H6 O9 1_555 1_555
H7 O9 1_555 1_555
O10 H8 1_555 1_555
H9 O10 1_555 1_555
U1A O7 1_555 1_555
U1A_2 O8 1_555 1_555
O7A U1 1_555 1_555
O8A U1 1_555 1_555
C1 O5 1_555 1_555
C5 C6 1_555 1_555

#END
