
#######################################################################
#
#                 Cambridge Crystallographic Data Centre
#                                CCDC 
#
#######################################################################
#
# If this CIF has been generated from an entry in the Cambridge 
# Structural Database, then it will include bibliographic, chemical, 
# crystal, experimental, refinement or atomic coordinate data resulting 
# from the CCDC's data processing and validation procedures.
#
#######################################################################

data_BOGNUH
_symmetry_cell_setting           monoclinic
_symmetry_space_group_name_H-M   'P 21/n'
_symmetry_Int_Tables_number      14
_space_group_name_Hall           '-P 2yn'
loop_
_symmetry_equiv_pos_site_id
_symmetry_equiv_pos_as_xyz
1 x,y,z
2 1/2-x,1/2+y,1/2-z
3 -x,-y,-z
4 1/2+x,1/2-y,1/2+z
_cell_length_a                   6.9440(5)
_cell_length_b                   13.760(1)
_cell_length_c                   12.733(1)
_cell_angle_alpha                90
_cell_angle_beta                 97.280(9)
_cell_angle_gamma                90
_cell_volume                     1206.82
loop_
_atom_site_label
_atom_site_type_symbol
_atom_site_fract_x
_atom_site_fract_y
_atom_site_fract_z
Cu1 Cu 0.08687(8) 0.88405(3) 0.03705(4)
Cu2 Cu 0.26367(8) 1.16874(3) 0.08951(4)
S1 S 0.1294(1) 1.02589(7) 0.13774(8)
N1 N 0.4851(7) 0.8534(3) -0.0412(3)
N2 N -0.1470(6) 0.7203(3) 0.1224(3)
N3 N -0.0626(5) 1.1253(2) 0.2724(3)
N4 N -0.1999(5) 0.9814(2) 0.2107(3)
C1 C 0.3346(6) 0.8665(2) -0.0143(3)
C2 C -0.0753(6) 0.7822(3) 0.0826(3)
C3 C 0.2632(7) 1.3057(3) 0.1652(3)
C4 C 0.1022(7) 1.2564(3) 0.1842(3)
C5 C 0.0865(7) 1.2014(3) 0.2848(3)
C6 C -0.0592(6) 1.0471(3) 0.2135(3)
C7 C -0.3742(7) 0.9926(4) 0.2634(4)
C8 C -0.3524(8) 0.9741(4) 0.3785(4)
C9 C -0.2053(10) 0.9357(5) 0.4349(5)
H1 H 0.368(7) 1.307(3) 0.216(3)
H2 H 0.254(8) 1.350(3) 0.110(4)
H3 H -0.015(8) 1.262(3) 0.142(4)
H4 H 0.219(8) 1.173(3) 0.313(4)
H5 H 0.047(7) 1.248(3) 0.341(4)
H6 H -0.164(7) 1.135(3) 0.303(3)
H7 H -0.203(7) 0.935(3) 0.168(4)
H8 H -0.461(8) 0.954(4) 0.232(4)
H9 H -0.429(9) 1.067(5) 0.249(6)
H10 H -0.480(9) 0.990(5) 0.415(6)
H11 H -0.104(9) 0.917(5) 0.406(6)
H12 H -0.218(10) 0.936(6) 0.508(7)
Cu2B Cu 0.73633(8) 0.83126(3) -0.08951(4)
N1B N 0.5149(7) 1.1466(3) 0.0412(3)
loop_
_geom_bond_atom_site_label_1
_geom_bond_atom_site_label_2
_geom_bond_site_symmetry_1
_geom_bond_site_symmetry_2
Cu1 S1 1_555 1_555
Cu2 S1 1_555 1_555
S1 C6 1_555 1_555
N1 C1 1_555 1_555
N2 C2 1_555 1_555
N3 C5 1_555 1_555
N4 C6 1_555 1_555
C1 Cu1 1_555 1_555
C2 Cu1 1_555 1_555
C3 Cu2 1_555 1_555
C4 Cu2 1_555 1_555
C5 C4 1_555 1_555
C6 N3 1_555 1_555
C7 N4 1_555 1_555
C8 C7 1_555 1_555
C9 C8 1_555 1_555
H1 C3 1_555 1_555
H2 C3 1_555 1_555
H3 C4 1_555 1_555
H4 C5 1_555 1_555
H5 C5 1_555 1_555
H6 N3 1_555 1_555
H7 N4 1_555 1_555
H8 C7 1_555 1_555
H9 C7 1_555 1_555
H10 C8 1_555 1_555
H11 C9 1_555 1_555
H12 C9 1_555 1_555
Cu2B N1 1_555 1_555
N1B Cu2 1_555 1_555
C3 C4 1_555 1_555

#END
