
#######################################################################
#
#                 Cambridge Crystallographic Data Centre
#                                CCDC 
#
#######################################################################
#
# If this CIF has been generated from an entry in the Cambridge 
# Structural Database, then it will include bibliographic, chemical, 
# crystal, experimental, refinement or atomic coordinate data resulting 
# from the CCDC's data processing and validation procedures.
#
#######################################################################

data_BOGWOK
_symmetry_cell_setting           cubic
_symmetry_space_group_name_H-M   'I -4 3 d'
_symmetry_Int_Tables_number      220
_space_group_name_Hall           'I -4bd 2c 3'
loop_
_symmetry_equiv_pos_site_id
_symmetry_equiv_pos_as_xyz
1 x,y,z
2 1/2-x,-y,1/2+z
3 -x,1/2+y,1/2-z
4 1/2+x,1/2-y,-z
5 z,x,y
6 1/2+z,1/2-x,-y
7 1/2-z,-x,1/2+y
8 -z,1/2+x,1/2-y
9 y,z,x
10 -y,1/2+z,1/2-x
11 1/2+y,1/2-z,-x
12 1/2-y,-z,1/2+x
13 1/4+y,1/4+x,1/4+z
14 1/4-y,3/4-x,3/4+z
15 3/4+y,1/4-x,3/4-z
16 3/4-y,3/4+x,1/4-z
17 1/4+x,1/4+z,1/4+y
18 3/4-x,3/4+z,1/4-y
19 1/4-x,3/4-z,3/4+y
20 3/4+x,1/4-z,3/4-y
21 1/4+z,1/4+y,1/4+x
22 3/4+z,1/4-y,3/4-x
23 3/4-z,3/4+y,1/4-x
24 1/4-z,3/4-y,3/4+x
25 1/2+x,1/2+y,1/2+z
26 -x,1/2-y,z
27 1/2-x,y,-z
28 x,-y,1/2-z
29 1/2+z,1/2+x,1/2+y
30 z,-x,1/2-y
31 -z,1/2-x,y
32 1/2-z,x,-y
33 1/2+y,1/2+z,1/2+x
34 1/2-y,z,-x
35 y,-z,1/2-x
36 -y,1/2-z,x
37 3/4+y,3/4+x,3/4+z
38 3/4-y,1/4-x,1/4+z
39 1/4+y,3/4-x,1/4-z
40 1/4-y,1/4+x,3/4-z
41 3/4+x,3/4+z,3/4+y
42 1/4-x,1/4+z,3/4-y
43 3/4-x,1/4-z,1/4+y
44 1/4+x,3/4-z,1/4-y
45 3/4+z,3/4+y,3/4+x
46 1/4+z,3/4-y,1/4-x
47 1/4-z,1/4+y,3/4-x
48 3/4-z,1/4-y,1/4+x
_cell_length_a                   21.4035(1)
_cell_length_b                   21.4035(1)
_cell_length_c                   21.4035(1)
_cell_angle_alpha                90
_cell_angle_beta                 90
_cell_angle_gamma                90
_cell_volume                     9805.15
loop_
_atom_site_label
_atom_site_type_symbol
_atom_site_fract_x
_atom_site_fract_y
_atom_site_fract_z
O1 O 0.0524(7) 0.6137(7) 0.8589(7)
H7 H 0.0886 0.6243 0.8500
H8 H 0.0383 0.6247 0.8154
C1 C 0.13273(12) 0.59130(13) 1.14503(13)
C2 C 0.18972(15) 0.55992(15) 1.17027(16)
H1 H 0.1849 0.5154 1.1673
H2 H 0.1954 0.5715 1.2132
H3 H 0.2256 0.5727 1.1465
C3 C 0.0051(2) 0.78121(16) 0.92158(14)
C4 C -0.0021(5) 0.8087(4) 0.8593(4)
H4 H -0.030(3) 0.793(4) 0.828(3)
H5 H 0.036(3) 0.813(4) 0.836(4)
H6 H -0.016(4) 0.8511(15) 0.863(5)
N1 N 0.00672(13) 0.79975(12) 0.98136(12)
Cd1 Cd 0.0000 0.7500 1.1250
Cd2 Cd 0.030440(9) 0.903150(9) 1.015590(9)
N3 N 0.11230(10) 0.64687(10) 1.16413(11)
N4 N 0.06170(11) 0.65923(11) 1.12848(11)
N5 N 0.05231(11) 0.61259(10) 1.09066(11)
N6 N 0.09585(11) 0.56862(10) 1.10032(11)
N7 N 0.0000 0.7500 1.01613(16)
S1 S 0.05049(3) 1.05049(3) 1.05049(3)
O2 O -0.03918(9) 0.96082(9) 0.96082(9)
H9 H -0.0607 0.9408 0.9408
O3 O 0.04201(14) 0.98820(12) 1.07854(12)
O4 O 0.08954(12) 1.08954(12) 1.08954(12)
C1O C 0.15870(13) 0.88273(12) 1.10497(13)
C1Y C -0.13273(12) 0.90870(13) 1.14503(13)
C1LA C -0.15870(13) 0.61727(12) 1.10497(13)
C1CA C 0.14503(13) 0.86727(12) 0.90870(13)
C1G C -0.14503(13) 0.63273(12) 0.90870(13)
C1NA C -0.11727(12) 0.89503(13) 1.34130(13)
C1R C 0.11727(12) 0.60497(13) 1.34130(13)
C1OA C 0.11727(12) 0.39503(13) 1.15870(13)
C1J C 0.09130(13) 0.35497(13) 0.86727(12)
C1F C 0.35497(13) 0.86727(12) 1.09130(13)
C1T C 0.39503(13) 0.84130(13) 1.38273(12)
C2O C 0.19008(15) 0.93972(15) 1.07973(16)
C2Y C -0.18972(15) 0.94008(15) 1.17027(16)
C2LA C -0.19008(15) 0.56028(15) 1.07973(16)
C2CA C 0.17027(16) 0.81028(15) 0.94008(15)
C2G C -0.17027(16) 0.68972(15) 0.94008(15)
C2NA C -0.06028(15) 0.92027(16) 1.30992(15)
C2R C 0.06028(15) 0.57973(16) 1.30992(15)
C2OA C 0.06028(15) 0.42027(16) 1.19008(15)
C2J C 0.05992(15) 0.32973(16) 0.81028(15)
C2F C 0.32973(16) 0.81028(15) 1.05992(15)
C2T C 0.42027(16) 0.80992(15) 1.43972(15)
H1O H 0.2346 0.9349 1.0827
H1Y H -0.1849 0.9846 1.1673
H1LA H -0.2346 0.5651 1.0827
H1CA H 0.1673 0.8151 0.9846
H1G H -0.1673 0.6849 0.9846
H1NA H -0.0651 0.9173 1.2654
H1R H 0.0651 0.5827 1.2654
H1OA H 0.0651 0.4173 1.2346
H1J H 0.0154 0.3327 0.8151
H1F H 0.3327 0.8151 1.0154
H1T H 0.4173 0.7654 1.4349
H2O H 0.1785 0.9454 1.0368
H2Y H -0.1954 0.9285 1.2132
H2LA H -0.1785 0.5546 1.0368
H2CA H 0.2132 0.8046 0.9285
H2G H -0.2132 0.6954 0.9285
H2NA H -0.0546 0.9632 1.3215
H2R H 0.0546 0.5368 1.3215
H2OA H 0.0546 0.4632 1.1785
H2J H 0.0715 0.2868 0.8046
H2F H 0.2868 0.8046 1.0715
H2T H 0.4632 0.8215 1.4454
H3O H 0.1773 0.9756 1.1035
H3Y H -0.2256 0.9273 1.1465
H3LA H -0.1773 0.5244 1.1035
H3CA H 0.1465 0.7744 0.9273
H3G H -0.1465 0.7256 0.9273
H3NA H -0.0244 0.8965 1.3227
H3R H 0.0244 0.6035 1.3227
H3OA H 0.0244 0.3965 1.1773
H3J H 0.0727 0.3535 0.7744
H3F H 0.3535 0.7744 1.0727
H3T H 0.3965 0.8227 1.4756
C3Y C -0.0051(2) 0.71879(16) 0.92158(14)
C3O C -0.03121(16) 0.7551(2) 1.32842(14)
C3LA C 0.03121(16) 0.7449(2) 1.32842(14)
C3IA C 0.21879(16) 0.57842(14) 1.0051(2)
C3J C 0.28121(16) 0.57842(14) 0.9949(2)
C3SA C 0.17158(14) 0.96879(16) 1.2449(2)
C3T C 0.17158(14) 1.03121(16) 1.2551(2)
C3H C -0.21879(16) 0.92158(14) 1.0051(2)
C3GA C -0.28121(16) 0.92158(14) 0.9949(2)
C3V C -0.17158(14) 0.53121(16) 1.2449(2)
C3UA C -0.17158(14) 0.46879(16) 1.2551(2)
C4Y C 0.0021(5) 0.6913(4) 0.8593(4)
C4O C -0.0587(4) 0.7479(5) 1.3907(4)
C4LA C 0.0587(4) 0.7521(5) 1.3907(4)
C4IA C 0.1913(4) 0.6407(4) 0.9979(5)
C4J C 0.3087(4) 0.6407(4) 1.0021(5)
C4SA C 0.1093(4) 0.9413(4) 1.2521(5)
C4T C 0.1093(4) 1.0587(4) 1.2479(5)
C4H C -0.1913(4) 0.8593(4) 0.9979(5)
C4GA C -0.3087(4) 0.8593(4) 1.0021(5)
C4V C -0.1093(4) 0.5587(4) 1.2521(5)
C4UA C -0.1093(4) 0.4413(4) 1.2479(5)
H4Y H 0.030(3) 0.707(4) 0.828(3)
H4O H -0.043(4) 0.720(3) 1.422(3)
H4LA H 0.043(4) 0.780(3) 1.422(3)
H4IA H 0.207(4) 0.672(3) 0.970(3)
H4J H 0.293(4) 0.672(3) 1.030(3)
H4SA H 0.078(3) 0.957(4) 1.280(3)
H4T H 0.078(3) 1.043(4) 1.220(3)
H4H H -0.207(4) 0.828(3) 0.970(3)
H4GA H -0.293(4) 0.828(3) 1.030(3)
H4V H -0.078(3) 0.543(4) 1.280(3)
H4UA H -0.078(3) 0.457(4) 1.220(3)
H5Y H -0.036(3) 0.687(4) 0.836(4)
H5O H -0.063(4) 0.786(3) 1.414(4)
H5LA H 0.063(4) 0.714(3) 1.414(4)
H5IA H 0.187(4) 0.664(4) 1.036(3)
H5J H 0.313(4) 0.664(4) 0.964(3)
H5SA H 0.086(4) 0.937(4) 1.214(3)
H5T H 0.086(4) 1.063(4) 1.286(3)
H5H H -0.187(4) 0.836(4) 1.036(3)
H5GA H -0.313(4) 0.836(4) 0.964(3)
H5V H -0.086(4) 0.563(4) 1.214(3)
H5UA H -0.086(4) 0.437(4) 1.286(3)
H6Y H 0.016(4) 0.6489(15) 0.863(5)
H6O H -0.1011(15) 0.734(4) 1.387(5)
H6LA H 0.1011(15) 0.766(4) 1.387(5)
H6IA H 0.1489(15) 0.637(5) 0.984(4)
H6J H 0.3511(15) 0.637(5) 1.016(4)
H6SA H 0.113(5) 0.8989(15) 1.266(4)
H6T H 0.113(5) 1.1011(15) 1.234(4)
H6H H -0.1489(15) 0.863(5) 0.984(4)
H6GA H -0.3511(15) 0.863(5) 1.016(4)
H6V H -0.113(5) 0.6011(15) 1.266(4)
H6UA H -0.113(5) 0.3989(15) 1.234(4)
N1Y N -0.00672(13) 0.70025(12) 0.98136(12)
N1O N -0.04975(12) 0.75672(13) 1.26864(12)
N1LA N 0.04975(12) 0.74328(13) 1.26864(12)
N1IA N 0.20025(12) 0.51864(12) 1.00672(13)
N1J N 0.29975(12) 0.51864(12) 0.99328(13)
N1SA N 0.23136(12) 0.95025(12) 1.24328(13)
N1T N 0.23136(12) 1.04975(12) 1.25672(13)
N1H N -0.20025(12) 0.98136(12) 1.00672(13)
N1GA N -0.29975(12) 0.98136(12) 0.99328(13)
N1V N -0.23136(12) 0.54975(12) 1.24328(13)
N1UA N -0.23136(12) 0.45025(12) 1.25672(13)
Cd1D Cd 0.1250 1.0000 0.7500
Cd1G Cd -0.1250 0.5000 0.7500
Cd1K Cd -0.2500 0.8750 1.5000
Cd1I Cd 0.2500 0.6250 1.5000
Cd1J Cd 0.2500 0.3750 1.0000
Cd1F Cd 0.3750 1.0000 1.2500
Cd1H Cd -0.2500 1.1250 1.0000
Cd1E Cd -0.3750 0.5000 1.2500
Cd2Y Cd -0.030440(9) 0.596850(9) 1.015590(9)
Cd2O Cd -0.153150(9) 0.780440(9) 1.234410(9)
Cd2LA Cd 0.153150(9) 0.719560(9) 1.234410(9)
Cd2IA Cd 0.096850(9) 0.484410(9) 1.030440(9)
Cd2SA Cd 0.265590(9) 0.846850(9) 1.219560(9)
Cd2H Cd -0.096850(9) 1.015590(9) 1.030440(9)
Cd2V Cd -0.265590(9) 0.653150(9) 1.219560(9)
Cd2J Cd 0.403150(9) 0.484410(9) 0.969560(9)
Cd2T Cd 0.265590(9) 1.153150(9) 1.280440(9)
Cd2GA Cd -0.403150(9) 1.015590(9) 0.969560(9)
Cd2UA Cd -0.265590(9) 0.346850(9) 1.280440(9)
Cd2D Cd 0.015590(9) 1.030440(9) 0.903150(9)
Cd2W Cd 0.234410(9) 0.846850(9) 0.780440(9)
Cd2RA Cd -0.234410(9) 0.653150(9) 0.780440(9)
Cd2DA Cd -0.015590(9) 0.469560(9) 0.903150(9)
Cd2HA Cd -0.096850(9) 0.984410(9) 1.469560(9)
Cd2Q Cd -0.280440(9) 0.765590(9) 1.346850(9)
Cd2I Cd 0.096850(9) 0.515590(9) 1.469560(9)
Cd2QA Cd 0.280440(9) 0.734410(9) 1.346850(9)
Cd2P Cd 0.280440(9) 0.265590(9) 1.153150(9)
Cd2L Cd 0.153150(9) 0.280440(9) 1.265590(9)
Cd2OA Cd 0.219560(9) 0.265590(9) 0.846850(9)
Cd2EA Cd 0.484410(9) 1.030440(9) 1.096850(9)
Cd2Z Cd 0.469560(9) 0.903150(9) 0.984410(9)
Cd2F Cd 0.484410(9) 0.969560(9) 1.403150(9)
N3O N 0.10313(10) 0.86230(10) 1.08587(11)
N3Y N -0.11230(10) 0.85313(10) 1.16413(11)
N3LA N -0.10313(10) 0.63770(10) 1.08587(11)
N3CA N 0.16413(11) 0.88770(10) 0.85313(10)
N3G N -0.16413(11) 0.61230(10) 0.85313(10)
N3NA N -0.13770(10) 0.91413(11) 1.39687(10)
N3R N 0.13770(10) 0.58587(11) 1.39687(10)
N3OA N 0.13770(10) 0.41413(11) 1.10313(10)
N3J N 0.14687(10) 0.33587(11) 0.88770(10)
N3F N 0.33587(11) 0.88770(10) 1.14687(10)
N3T N 0.41413(11) 0.89687(10) 1.36230(10)
N3S N -0.13770(10) 1.08587(11) 1.10313(10)
N3BA N -0.33587(11) 0.61230(10) 1.14687(10)
N3P N 0.36230(10) 0.41413(11) 0.89687(10)
N3EA N 0.33587(11) 1.11230(10) 1.35313(10)
N3PA N -0.36230(10) 1.08587(11) 0.89687(10)
N3E N -0.33587(11) 0.38770(10) 1.35313(10)
N4O N 0.09077(11) 0.81170(11) 1.12152(11)
N4Y N -0.06170(11) 0.84077(11) 1.12848(11)
N4LA N -0.09077(11) 0.68830(11) 1.12152(11)
N4CA N 0.12848(11) 0.93830(11) 0.84077(11)
N4G N -0.12848(11) 0.56170(11) 0.84077(11)
N4NA N -0.18830(11) 0.87848(11) 1.40923(11)
N4R N 0.18830(11) 0.62152(11) 1.40923(11)
N4OA N 0.18830(11) 0.37848(11) 1.09077(11)
N4J N 0.15923(11) 0.37152(11) 0.93830(11)
N4F N 0.37152(11) 0.93830(11) 1.15923(11)
N4T N 0.37848(11) 0.90923(11) 1.31170(11)
N4D N 0.12848(11) 1.06170(11) 0.65923(11)
N4W N 0.12152(11) 1.09077(11) 0.81170(11)
N4TA N 0.12152(11) 0.90923(11) 0.68830(11)
N4U N -0.12152(11) 0.59077(11) 0.68830(11)
N4DA N -0.12848(11) 0.43830(11) 0.65923(11)
N4RA N -0.12152(11) 0.40923(11) 0.81170(11)
N5O N 0.13741(10) 0.80231(11) 1.15934(11)
N5Y N -0.05231(11) 0.88741(10) 1.09066(11)
N5LA N -0.13741(10) 0.69769(11) 1.15934(11)
N5CA N 0.09066(11) 0.94769(11) 0.88741(10)
N5G N -0.09066(11) 0.55231(11) 0.88741(10)
N5NA N -0.19769(11) 0.84066(11) 1.36259(10)
N5R N 0.19769(11) 0.65934(11) 1.36259(10)
N5OA N 0.19769(11) 0.34066(11) 1.13741(10)
N5J N 0.11259(10) 0.40934(11) 0.94769(11)
N5F N 0.40934(11) 0.94769(11) 1.11259(10)
N5T N 0.34066(11) 0.86259(10) 1.30231(11)
N5GA N -0.11259(10) 1.09066(11) 0.94769(11)
N5UA N -0.34066(11) 0.63741(10) 1.30231(11)
N5IA N 0.38741(10) 0.40934(11) 1.05231(11)
N5SA N 0.34066(11) 1.13741(10) 1.19769(11)
N5H N -0.38741(10) 1.09066(11) 1.05231(11)
N5V N -0.34066(11) 0.36259(10) 1.19769(11)
N6O N 0.18138(10) 0.84585(11) 1.14968(11)
N6Y N -0.09585(11) 0.93138(10) 1.10032(11)
N6LA N -0.18138(10) 0.65415(11) 1.14968(11)
N6CA N 0.10032(11) 0.90415(11) 0.93138(10)
N6G N -0.10032(11) 0.59585(11) 0.93138(10)
N6NA N -0.15415(11) 0.85032(11) 1.31862(10)
N6R N 0.15415(11) 0.64968(11) 1.31862(10)
N6OA N 0.15415(11) 0.35032(11) 1.18138(10)
N6J N 0.06862(10) 0.39968(11) 0.90415(11)
N6F N 0.39968(11) 0.90415(11) 1.06862(10)
N6T N 0.35032(11) 0.81862(10) 1.34585(11)
N6Z N 0.40415(11) 0.56862(10) 0.89968(11)
N6KA N 0.18138(10) 1.15415(11) 1.35032(11)
N6C N -0.40415(11) 0.93138(10) 0.89968(11)
N6L N -0.18138(10) 0.34585(11) 1.35032(11)
N7O N 0.0000 0.7500 1.23387(16)
N7J N 0.2500 0.48387(16) 1.0000
N7T N 0.26613(16) 1.0000 1.2500
N7H N -0.2500 1.01613(16) 1.0000
N7V N -0.26613(16) 0.5000 1.2500
N7D N 0.01613(16) 1.0000 0.7500
N7W N 0.23387(16) 1.0000 0.7500
N7G N -0.01613(16) 0.5000 0.7500
N7U N -0.23387(16) 0.5000 0.7500
S1Y S -0.05049(3) 0.44951(3) 1.05049(3)
S1O S -0.30049(3) 0.80049(3) 1.19951(3)
S1LA S 0.30049(3) 0.69951(3) 1.19951(3)
O2Y O 0.03918(9) 0.53918(9) 0.96082(9)
O2O O -0.21082(9) 0.71082(9) 1.28918(9)
O2LA O 0.21082(9) 0.78918(9) 1.28918(9)
O2C O 0.46082(9) 0.53918(9) 1.03918(9)
O2L O 0.21082(9) 1.21082(9) 1.21082(9)
O2Z O -0.46082(9) 0.96082(9) 1.03918(9)
O2KA O -0.21082(9) 0.28918(9) 1.21082(9)
H9Y H 0.0607 0.5592 0.9408
H9O H -0.1908 0.6893 1.3092
H9LA H 0.1908 0.8107 1.3092
H9C H 0.4393 0.5592 1.0592
H9L H 0.1908 1.1893 1.1908
H9Z H -0.4393 0.9408 1.0592
H9KA H -0.1908 0.3107 1.1908
O3D O 0.07854(12) 1.04201(14) 0.98820(12)
O3H O -0.01180(12) 1.07854(12) 1.04201(14)
O3Y O -0.04201(14) 0.51180(12) 1.07854(12)
O3DA O -0.07854(12) 0.45799(14) 0.98820(12)
O3IA O 0.01180(12) 0.42146(12) 1.04201(14)
O3O O -0.23820(12) 0.79201(14) 1.17146(12)
O3Q O -0.29201(14) 0.82854(12) 1.26180(12)
O3V O -0.32854(12) 0.73820(12) 1.20799(14)
O3LA O 0.23820(12) 0.70799(14) 1.17146(12)
O3QA O 0.29201(14) 0.67146(12) 1.26180(12)
O3SA O 0.32854(12) 0.76180(12) 1.20799(14)
O3J O 0.48820(12) 0.42146(12) 0.95799(14)
O3T O 0.32854(12) 1.23820(12) 1.29201(14)
O3GA O -0.48820(12) 1.07854(12) 0.95799(14)
O3UA O -0.32854(12) 0.26180(12) 1.29201(14)
O4Y O -0.08954(12) 0.41046(12) 1.08954(12)
O4O O -0.33954(12) 0.83954(12) 1.16046(12)
O4LA O 0.33954(12) 0.66046(12) 1.16046(12)
N2? N 0.0051(2) 0.78121(16) 0.92158(14)
loop_
_geom_bond_atom_site_label_1
_geom_bond_atom_site_label_2
_geom_bond_site_symmetry_1
_geom_bond_site_symmetry_2
C1 C2 1_555 1_555
C2 H1 1_555 1_555
H2 C2 1_555 1_555
H3 C2 1_555 1_555
C3 C4 1_555 1_555
C4 H4 1_555 1_555
H5 C4 1_555 1_555
H6 C4 1_555 1_555
N1 C3 1_555 1_555
O1 H7 1_555 1_555
H8 O1 1_555 1_555
Cd1 N4 1_555 1_555
Cd2 N1 1_555 1_555
N3 C1 1_555 1_555
N4 N3 1_555 1_555
N5 N4 1_555 1_555
N6 C1 1_555 1_555
N7 N1 1_555 1_555
S1 O3 1_555 1_555
O2 Cd2 1_555 1_555
H9 O2 1_555 1_555
O3 Cd2 1_555 1_555
O4 S1 1_555 1_555
C1O C2O 1_555 1_555
C1Y C2Y 1_555 1_555
C1LA C2LA 1_555 1_555
C1CA C2CA 1_555 1_555
C1G C2G 1_555 1_555
C1NA C2NA 1_555 1_555
C1R C2R 1_555 1_555
C1OA C2OA 1_555 1_555
C1J C2J 1_555 1_555
C1F C2F 1_555 1_555
C1T C2T 1_555 1_555
C2O H1O 1_555 1_555
C2Y H1Y 1_555 1_555
C2LA H1LA 1_555 1_555
C2CA H1CA 1_555 1_555
C2G H1G 1_555 1_555
C2NA H1NA 1_555 1_555
C2R H1R 1_555 1_555
C2OA H1OA 1_555 1_555
C2J H1J 1_555 1_555
C2F H1F 1_555 1_555
C2T H1T 1_555 1_555
H2O C2O 1_555 1_555
H2Y C2Y 1_555 1_555
H2LA C2LA 1_555 1_555
H2CA C2CA 1_555 1_555
H2G C2G 1_555 1_555
H2NA C2NA 1_555 1_555
H2R C2R 1_555 1_555
H2OA C2OA 1_555 1_555
H2J C2J 1_555 1_555
H2F C2F 1_555 1_555
H2T C2T 1_555 1_555
H3O C2O 1_555 1_555
H3Y C2Y 1_555 1_555
H3LA C2LA 1_555 1_555
H3CA C2CA 1_555 1_555
H3G C2G 1_555 1_555
H3NA C2NA 1_555 1_555
H3R C2R 1_555 1_555
H3OA C2OA 1_555 1_555
H3J C2J 1_555 1_555
H3F C2F 1_555 1_555
H3T C2T 1_555 1_555
C3Y C3 1_555 1_555
C3O C3LA 1_555 1_555
C3LA C4LA 1_555 1_555
C3IA C3J 1_555 1_555
C3J C4J 1_555 1_555
C3SA C3T 1_555 1_555
C3T C4T 1_555 1_555
C3H C3GA 1_555 1_555
C3GA C4GA 1_555 1_555
C3V C3UA 1_555 1_555
C3UA C4UA 1_555 1_555
C4Y C3Y 1_555 1_555
C4O C3O 1_555 1_555
C4LA H4LA 1_555 1_555
C4IA C3IA 1_555 1_555
C4J H4J 1_555 1_555
C4SA C3SA 1_555 1_555
C4T H4T 1_555 1_555
C4H C3H 1_555 1_555
C4GA H4GA 1_555 1_555
C4V C3V 1_555 1_555
C4UA H4UA 1_555 1_555
H4Y C4Y 1_555 1_555
H4O C4O 1_555 1_555
H4IA C4IA 1_555 1_555
H4SA C4SA 1_555 1_555
H4H C4H 1_555 1_555
H4V C4V 1_555 1_555
H5Y C4Y 1_555 1_555
H5O C4O 1_555 1_555
H5LA C4LA 1_555 1_555
H5IA C4IA 1_555 1_555
H5J C4J 1_555 1_555
H5SA C4SA 1_555 1_555
H5T C4T 1_555 1_555
H5H C4H 1_555 1_555
H5GA C4GA 1_555 1_555
H5V C4V 1_555 1_555
H5UA C4UA 1_555 1_555
H6Y C4Y 1_555 1_555
H6O C4O 1_555 1_555
H6LA C4LA 1_555 1_555
H6IA C4IA 1_555 1_555
H6J C4J 1_555 1_555
H6SA C4SA 1_555 1_555
H6T C4T 1_555 1_555
H6H C4H 1_555 1_555
H6GA C4GA 1_555 1_555
H6V C4V 1_555 1_555
H6UA C4UA 1_555 1_555
N1Y N7 1_555 1_555
N1O C3O 1_555 1_555
N1LA C3LA 1_555 1_555
N1IA C3IA 1_555 1_555
N1J C3J 1_555 1_555
N1SA C3SA 1_555 1_555
N1T C3T 1_555 1_555
N1H C3H 1_555 1_555
N1GA C3GA 1_555 1_555
N1V C3V 1_555 1_555
N1UA C3UA 1_555 1_555
Cd1D N4CA 1_555 1_555
Cd1G N4G 1_555 1_555
Cd1K N4NA 1_555 1_555
Cd1I N4R 1_555 1_555
Cd1J N4OA 1_555 1_555
Cd1F N4F 1_555 1_555
Cd1H N7H 1_555 1_555
Cd1E N7V 1_555 1_555
Cd2Y N5 1_555 1_555
Cd2O N1O 1_555 1_555
Cd2LA N3 1_555 1_555
Cd2IA N6 1_555 1_555
Cd2SA N1SA 1_555 1_555
Cd2H O2 1_555 1_555
Cd2V N1V 1_555 1_555
Cd2J N1J 1_555 1_555
Cd2T N1T 1_555 1_555
Cd2GA N1GA 1_555 1_555
Cd2UA N1UA 1_555 1_555
Cd2D O2 1_555 1_555
Cd2W N3CA 1_555 1_555
Cd2RA N3G 1_555 1_555
Cd2DA N5G 1_555 1_555
Cd2HA N3NA 1_555 1_555
Cd2Q N5NA 1_555 1_555
Cd2I N3R 1_555 1_555
Cd2QA N5R 1_555 1_555
Cd2P N5OA 1_555 1_555
Cd2L N6OA 1_555 1_555
Cd2OA N3J 1_555 1_555
Cd2EA N5F 1_555 1_555
Cd2Z N6F 1_555 1_555
Cd2F N3T 1_555 1_555
N3O Cd2 1_555 1_555
N3Y C1Y 1_555 1_555
N3LA C1LA 1_555 1_555
N3CA C1CA 1_555 1_555
N3G C1G 1_555 1_555
N3NA C1NA 1_555 1_555
N3R C1R 1_555 1_555
N3OA C1OA 1_555 1_555
N3J C1J 1_555 1_555
N3F C1F 1_555 1_555
N3T C1T 1_555 1_555
N3S Cd2H 1_555 1_555
N3BA Cd2V 1_555 1_555
N3P Cd2J 1_555 1_555
N3EA Cd2T 1_555 1_555
N3PA Cd2GA 1_555 1_555
N3E Cd2UA 1_555 1_555
N4O Cd1 1_555 1_555
N4Y Cd1 1_555 1_555
N4LA Cd1 1_555 1_555
N4CA N3CA 1_555 1_555
N4G N3G 1_555 1_555
N4NA N3NA 1_555 1_555
N4R N3R 1_555 1_555
N4OA N3OA 1_555 1_555
N4J Cd1J 1_555 1_555
N4F N3F 1_555 1_555
N4T Cd1F 1_555 1_555
N4D Cd1D 1_555 1_555
N4W Cd1D 1_555 1_555
N4TA Cd1D 1_555 1_555
N4U Cd1G 1_555 1_555
N4DA Cd1G 1_555 1_555
N4RA Cd1G 1_555 1_555
N5O Cd2LA 1_555 1_555
N5Y Cd2 1_555 1_555
N5LA Cd2O 1_555 1_555
N5CA Cd2D 1_555 1_555
N5G N4G 1_555 1_555
N5NA N4NA 1_555 1_555
N5R N4R 1_555 1_555
N5OA N4OA 1_555 1_555
N5J Cd2IA 1_555 1_555
N5F N4F 1_555 1_555
N5T Cd2SA 1_555 1_555
N5GA Cd2H 1_555 1_555
N5UA Cd2V 1_555 1_555
N5IA Cd2J 1_555 1_555
N5SA Cd2T 1_555 1_555
N5H Cd2GA 1_555 1_555
N5V Cd2UA 1_555 1_555
N6O C1O 1_555 1_555
N6Y C1Y 1_555 1_555
N6LA C1LA 1_555 1_555
N6CA Cd2 1_555 1_555
N6G C1G 1_555 1_555
N6NA C1NA 1_555 1_555
N6R C1R 1_555 1_555
N6OA C1OA 1_555 1_555
N6J C1J 1_555 1_555
N6F C1F 1_555 1_555
N6T C1T 1_555 1_555
N6Z Cd2J 1_555 1_555
N6KA Cd2T 1_555 1_555
N6C Cd2GA 1_555 1_555
N6L Cd2UA 1_555 1_555
N7O Cd1 1_555 1_555
N7J N1IA 1_555 1_555
N7T N1SA 1_555 1_555
N7H N1H 1_555 1_555
N7V N1V 1_555 1_555
N7D Cd1D 1_555 1_555
N7W Cd1D 1_555 1_555
N7G Cd1G 1_555 1_555
N7U Cd1G 1_555 1_555
S1Y O3Y 1_555 1_555
S1O O3O 1_555 1_555
S1LA O3LA 1_555 1_555
O2Y Cd2Y 1_555 1_555
O2O Cd2O 1_555 1_555
O2LA Cd2LA 1_555 1_555
O2C Cd2J 1_555 1_555
O2L Cd2T 1_555 1_555
O2Z Cd2GA 1_555 1_555
O2KA Cd2UA 1_555 1_555
H9Y O2Y 1_555 1_555
H9O O2O 1_555 1_555
H9LA O2LA 1_555 1_555
H9C O2C 1_555 1_555
H9L O2L 1_555 1_555
H9Z O2Z 1_555 1_555
H9KA O2KA 1_555 1_555
O3D S1 1_555 1_555
O3H S1 1_555 1_555
O3Y Cd2Y 1_555 1_555
O3DA Cd2DA 1_555 1_555
O3IA Cd2IA 1_555 1_555
O3O Cd2O 1_555 1_555
O3Q Cd2Q 1_555 1_555
O3V Cd2V 1_555 1_555
O3LA Cd2LA 1_555 1_555
O3QA Cd2QA 1_555 1_555
O3SA Cd2SA 1_555 1_555
O3J Cd2J 1_555 1_555
O3T Cd2T 1_555 1_555
O3GA Cd2GA 1_555 1_555
O3UA Cd2UA 1_555 1_555
O4Y S1Y 1_555 1_555
O4O S1O 1_555 1_555
O4LA S1LA 1_555 1_555
Cd1 N7 1_555 1_555
N5 N6 1_555 1_555
C1O N3O 1_555 1_555
C1CA N6CA 1_555 1_555
C3Y N1Y 1_555 1_555
N1Y Cd2Y 1_555 1_555
N1O N7O 1_555 1_555
N1LA Cd2LA 1_555 1_555
N1LA N7O 1_555 1_555
N1IA Cd2IA 1_555 1_555
N1J N7J 1_555 1_555
N1T N7T 1_555 1_555
N1H Cd2H 1_555 1_555
N1GA N7H 1_555 1_555
N1UA N7V 1_555 1_555
Cd1J N7J 1_555 1_555
Cd1F N7T 1_555 1_555
Cd2Y N3LA 1_555 1_555
Cd2Y N6G 1_555 1_555
Cd2O N3Y 1_555 1_555
Cd2O N6NA 1_555 1_555
Cd2LA N6R 1_555 1_555
Cd2IA N3OA 1_555 1_555
Cd2IA O2Y 1_555 1_555
Cd2SA N3F 1_555 1_555
Cd2SA N6O 1_555 1_555
Cd2SA O2LA 1_555 1_555
Cd2H N6Y 1_555 1_555
Cd2H O3H 1_555 1_555
Cd2V N6LA 1_555 1_555
Cd2V O2O 1_555 1_555
Cd2D O3D 1_555 1_555
Cd2DA N6J 1_555 1_555
Cd2DA O2Y 1_555 1_555
Cd2Q O2O 1_555 1_555
Cd2QA N6T 1_555 1_555
Cd2QA O2LA 1_555 1_555
N3O N4O 1_555 1_555
N3Y N4Y 1_555 1_555
N3LA N4LA 1_555 1_555
N3J N4J 1_555 1_555
N3T N4T 1_555 1_555
N4O N5O 1_555 1_555
N4Y N5Y 1_555 1_555
N4LA N5LA 1_555 1_555
N4CA N5CA 1_555 1_555
N4J N5J 1_555 1_555
N4T N5T 1_555 1_555
N5O N6O 1_555 1_555
N5Y N6Y 1_555 1_555
N5LA N6LA 1_555 1_555
N5CA N6CA 1_555 1_555
N5G N6G 1_555 1_555
N5NA N6NA 1_555 1_555
N5R N6R 1_555 1_555
N5OA N6OA 1_555 1_555
N5J N6J 1_555 1_555
N5F N6F 1_555 1_555
N5T N6T 1_555 1_555
S1Y O3DA 1_555 1_555
S1Y O3IA 1_555 1_555
S1O O3Q 1_555 1_555
S1O O3V 1_555 1_555
S1LA O3QA 1_555 1_555
S1LA O3SA 1_555 1_555

#END
