
#######################################################################
#
#                 Cambridge Crystallographic Data Centre
#                                CCDC 
#
#######################################################################
#
# If this CIF has been generated from an entry in the Cambridge 
# Structural Database, then it will include bibliographic, chemical, 
# crystal, experimental, refinement or atomic coordinate data resulting 
# from the CCDC's data processing and validation procedures.
#
#######################################################################

data_BOGXIF
_symmetry_cell_setting           rhombohedral
_symmetry_space_group_name_H-M   'R -3'
_symmetry_Int_Tables_number      148
_space_group_name_Hall           '-R 3'
loop_
_symmetry_equiv_pos_site_id
_symmetry_equiv_pos_as_xyz
1 x,y,z
2 -y,x-y,z
3 -x+y,-x,z
4 2/3+x,1/3+y,1/3+z
5 2/3-y,1/3+x-y,1/3+z
6 2/3-x+y,1/3-x,1/3+z
7 1/3+x,2/3+y,2/3+z
8 1/3-y,2/3+x-y,2/3+z
9 1/3-x+y,2/3-x,2/3+z
10 -x,-y,-z
11 y,-x+y,-z
12 x-y,x,-z
13 1/3-x,2/3-y,2/3-z
14 1/3+y,2/3-x+y,2/3-z
15 1/3+x-y,2/3+x,2/3-z
16 2/3-x,1/3-y,1/3-z
17 2/3+y,1/3-x+y,1/3-z
18 2/3+x-y,1/3+x,1/3-z
_cell_length_a                   19.6891(8)
_cell_length_b                   19.6891(8)
_cell_length_c                   14.1971(7)
_cell_angle_alpha                90
_cell_angle_beta                 90
_cell_angle_gamma                120.00
_cell_volume                     4766.31
loop_
_atom_site_label
_atom_site_type_symbol
_atom_site_fract_x
_atom_site_fract_y
_atom_site_fract_z
Cu1 Cu -0.41529(2) -0.45150(2) -0.56227(2)
N1 N -0.49408(14) -0.45326(14) -0.38704(16)
N2 N -0.42517(13) -0.41422(14) -0.43926(16)
N3 N -0.41069(14) -0.34461(14) -0.31021(15)
C1 C -0.48241(17) -0.40974(17) -0.31053(19)
C2 C -0.5410(2) -0.4303(2) -0.2334(2)
H1 H -0.5191 -0.4388 -0.1747
H2 H -0.5887 -0.4804 -0.2495
C3 C -0.5640(3) -0.3691(3) -0.2152(4)
H3 H -0.6009 -0.3857 -0.1624
H4 H -0.5888 -0.3626 -0.2716
H5 H -0.5171 -0.3191 -0.1997
C4 C -0.37782(17) -0.35027(16) -0.39094(19)
C5 C -0.29668(17) -0.29141(19) -0.4211(2)
H6 H -0.2927 -0.2394 -0.4264
H7 H -0.2867 -0.3059 -0.4842
C6 C -0.2341(2) -0.2852(3) -0.3537(3)
H8 H -0.1823 -0.2456 -0.3769
H9 H -0.2366 -0.3361 -0.3495
H10 H -0.2430 -0.2699 -0.2913
Cu1I Cu -0.58471(2) -0.54850(2) -0.43773(2)
Cu1E Cu -0.36954(3) -0.25138(2) -0.22894(2)
N1I N -0.50592(14) -0.54674(14) -0.61296(16)
N3G N -0.32206(14) -0.39941(20) -0.64354(15)
loop_
_geom_bond_atom_site_label_1
_geom_bond_atom_site_label_2
_geom_bond_site_symmetry_1
_geom_bond_site_symmetry_2
Cu1 N2 1_555 1_555
N1 N2 1_555 1_555
N2 C4 1_555 1_555
N3 C1 1_555 1_555
C1 N1 1_555 1_555
C2 C1 1_555 1_555
H1 C2 1_555 1_555
H2 C2 1_555 1_555
C3 C2 1_555 1_555
H3 C3 1_555 1_555
H4 C3 1_555 1_555
H5 C3 1_555 1_555
C4 N3 1_555 1_555
C5 C4 1_555 1_555
H6 C5 1_555 1_555
H7 C5 1_555 1_555
C6 C5 1_555 1_555
H8 C6 1_555 1_555
H9 C6 1_555 1_555
H10 C6 1_555 1_555
Cu1I N1 1_555 1_555
Cu1E N3 1_555 1_555
N1I Cu1 1_555 1_555
N3G Cu1 1_555 1_555

#END
