
#######################################################################
#
#                 Cambridge Crystallographic Data Centre
#                                CCDC 
#
#######################################################################
#
# If this CIF has been generated from an entry in the Cambridge 
# Structural Database, then it will include bibliographic, chemical, 
# crystal, experimental, refinement or atomic coordinate data resulting 
# from the CCDC's data processing and validation procedures.
#
#######################################################################

data_BOHFAF
_symmetry_cell_setting           tetragonal
_symmetry_space_group_name_H-M   'P 42/n'
_symmetry_Int_Tables_number      86
_space_group_name_Hall           '-P 4bc'
loop_
_symmetry_equiv_pos_site_id
_symmetry_equiv_pos_as_xyz
1 x,y,z
2 -y,1/2+x,1/2+z
3 1/2-x,1/2-y,z
4 1/2+y,-x,1/2+z
5 -x,-y,-z
6 y,1/2-x,1/2-z
7 1/2+x,1/2+y,-z
8 1/2-y,x,1/2-z
_cell_length_a                   12.594(3)
_cell_length_b                   12.594(3)
_cell_length_c                   7.683(2)
_cell_angle_alpha                90
_cell_angle_beta                 90
_cell_angle_gamma                90
_cell_volume                     1218.59
loop_
_atom_site_label
_atom_site_type_symbol
_atom_site_fract_x
_atom_site_fract_y
_atom_site_fract_z
Co1 Co 0.25000 0.25000 0.75000
Si1 Si 0.25000 0.25000 0.25000
F1 F 0.25000 0.25000 0.47110
F2 F 0.37730 0.21380 0.24960
N1 N 0.10080 0.17630 0.75810
N2 N -0.04610 0.11130 0.87160
C1 C 0.04520 0.16460 0.90210
C2 C 0.04280 0.12680 0.63000
C3 C -0.04730 0.08730 0.69560
C4 C -0.12630 0.08520 0.99450
C5 C -0.12930 0.12220 1.15070
H1 H 0.06700 0.19400 1.02100
H2 H 0.06600 0.12400 0.50200
H3 H -0.10400 0.04500 0.63200
H4 H -0.18400 0.03500 0.95400
H5 H -0.18900 0.09900 1.23600
H6 H -0.07400 0.17100 1.19900
F1E F 0.25000 0.25000 1.02890
N1E N 0.17630 0.39920 0.74190
N1B N 0.39920 0.32370 0.75810
N1G N 0.32370 0.10080 0.74190
F1E_2 F 0.25000 0.25000 0.02890
F2E F 0.21380 0.12270 0.25040
F2B F 0.12270 0.28620 0.24960
F2G F 0.28620 0.37730 0.25040
C1E C 0.16460 0.45480 0.59790
C2E C 0.12680 0.45720 0.87000
C1B C 0.45480 0.33540 0.90210
C2B C 0.45720 0.37320 0.63000
C1G C 0.33540 0.04520 0.59790
C2G C 0.37320 0.04280 0.87000
N2E N 0.11130 0.54610 0.62840
H1E H 0.19400 0.43300 0.47900
C3E C 0.08730 0.54730 0.80440
H2E H 0.12400 0.43400 0.99800
N2B N 0.54610 0.38870 0.87160
H1B H 0.43300 0.30600 1.02100
C3B C 0.54730 0.41270 0.69560
H2B H 0.43400 0.37600 0.50200
N2G N 0.38870 -0.04610 0.62840
H1G H 0.30600 0.06700 0.47900
C3G C 0.41270 -0.04730 0.80440
H2G H 0.37600 0.06600 0.99800
C4E C 0.08520 0.62630 0.50550
H3E H 0.04500 0.60400 0.86800
C4B C 0.62630 0.41480 0.99450
H3B H 0.60400 0.45500 0.63200
C4G C 0.41480 -0.12630 0.50550
H3G H 0.45500 -0.10400 0.86800
C5E C 0.12220 0.62930 0.34930
H4E H 0.03500 0.68400 0.54600
C5B C 0.62930 0.37780 1.15070
H4B H 0.68400 0.46500 0.95400
C5G C 0.37780 -0.12930 0.34930
H4G H 0.46500 -0.18400 0.54600
H5E H 0.09900 0.68900 0.26400
H6E H 0.17100 0.57400 0.30100
H5B H 0.68900 0.40100 1.23600
H6B H 0.57400 0.32900 1.19900
H5G H 0.40100 -0.18900 0.26400
H6G H 0.32900 -0.07400 0.30100
Co1_2 Co 0.25000 0.25000 -0.25000
loop_
_geom_bond_atom_site_label_1
_geom_bond_atom_site_label_2
_geom_bond_site_symmetry_1
_geom_bond_site_symmetry_2
Co1 F1 1_555 1_555
Si1 F1 1_555 1_555
F2 Si1 1_555 1_555
N1 Co1 1_555 1_555
N2 C1 1_555 1_555
C1 N1 1_555 1_555
C2 N1 1_555 1_555
C3 N2 1_555 1_555
C4 N2 1_555 1_555
C5 C4 1_555 1_555
H1 C1 1_555 1_555
H2 C2 1_555 1_555
H3 C3 1_555 1_555
H4 C4 1_555 1_555
H5 C5 1_555 1_555
H6 C5 1_555 1_555
F1E Co1 1_555 1_555
N1E Co1 1_555 1_555
N1B Co1 1_555 1_555
N1G Co1 1_555 1_555
F1E_2 Si1 1_555 1_555
F2E Si1 1_555 1_555
F2B Si1 1_555 1_555
F2G Si1 1_555 1_555
C1E N1E 1_555 1_555
C2E N1E 1_555 1_555
C1B N1B 1_555 1_555
C2B N1B 1_555 1_555
C1G N1G 1_555 1_555
C2G N1G 1_555 1_555
N2E C1E 1_555 1_555
H1E C1E 1_555 1_555
C3E C2E 1_555 1_555
H2E C2E 1_555 1_555
N2B C1B 1_555 1_555
H1B C1B 1_555 1_555
C3B C2B 1_555 1_555
H2B C2B 1_555 1_555
N2G C1G 1_555 1_555
H1G C1G 1_555 1_555
C3G C2G 1_555 1_555
H2G C2G 1_555 1_555
C4E N2E 1_555 1_555
H3E C3E 1_555 1_555
C4B N2B 1_555 1_555
H3B C3B 1_555 1_555
C4G N2G 1_555 1_555
H3G C3G 1_555 1_555
C5E C4E 1_555 1_555
H4E C4E 1_555 1_555
C5B C4B 1_555 1_555
H4B C4B 1_555 1_555
C5G C4G 1_555 1_555
H4G C4G 1_555 1_555
H5E C5E 1_555 1_555
H6E C5E 1_555 1_555
H5B C5B 1_555 1_555
H6B C5B 1_555 1_555
H5G C5G 1_555 1_555
H6G C5G 1_555 1_555
Co1_2 F1E_2 1_555 1_555
C2 C3 1_555 1_555
N2E C3E 1_555 1_555
N2B C3B 1_555 1_555
N2G C3G 1_555 1_555

#END
