
#######################################################################
#
#                 Cambridge Crystallographic Data Centre
#                                CCDC 
#
#######################################################################
#
# If this CIF has been generated from an entry in the Cambridge 
# Structural Database, then it will include bibliographic, chemical, 
# crystal, experimental, refinement or atomic coordinate data resulting 
# from the CCDC's data processing and validation procedures.
#
#######################################################################

data_BOHLAM
_symmetry_cell_setting           triclinic
_symmetry_space_group_name_H-M   'P -1'
_symmetry_Int_Tables_number      2
_space_group_name_Hall           '-P 1'
loop_
_symmetry_equiv_pos_site_id
_symmetry_equiv_pos_as_xyz
1 x,y,z
2 -x,-y,-z
_cell_length_a                   5.5313(5)
_cell_length_b                   12.7904(12)
_cell_length_c                   14.9226(15)
_cell_angle_alpha                113.0760(10)
_cell_angle_beta                 95.423(2)
_cell_angle_gamma                97.642(2)
_cell_volume                     950.108
loop_
_atom_site_label
_atom_site_type_symbol
_atom_site_fract_x
_atom_site_fract_y
_atom_site_fract_z
C1 C 0.7765(3) 0.52700(13) 0.37041(11)
C2 C 0.6808(3) 0.54843(13) 0.28208(11)
C3 C 0.4374(3) 0.50489(15) 0.23629(12)
H1 H 0.3352 0.4584 0.2575
C4 C 0.3453(3) 0.53031(15) 0.15914(12)
H2 H 0.1830 0.5001 0.1272
C5 C 0.4997(3) 0.60132(14) 0.13090(12)
C6 C 0.7447(3) 0.64401(15) 0.17326(13)
H3 H 0.8458 0.6904 0.1516
C7 C 0.8354(3) 0.61582(15) 0.24875(12)
H4 H 1.0008 0.6420 0.2775
C8 C 0.0740(3) 0.25303(14) 0.34873(12)
C9 C 0.0938(3) 0.21940(13) 0.24096(12)
C10 C -0.0780(3) 0.24160(15) 0.17988(13)
H5 H -0.2032 0.2800 0.2061
C11 C -0.0659(3) 0.20752(16) 0.08064(14)
H6 H -0.1801 0.2233 0.0400
C12 C 0.1189(3) 0.14975(15) 0.04336(13)
C13 C 0.2942(3) 0.12693(16) 0.10179(13)
H7 H 0.4174 0.0875 0.0748
C14 C 0.2825(3) 0.16403(15) 0.20134(13)
H8 H 0.4026 0.1517 0.2423
C15 C 0.5226(3) 0.18264(16) 0.61196(14)
H9 H 0.3832 0.2121 0.6328
C16 C 0.8121(4) 0.08241(19) 0.59140(17)
C17 C 0.8391(4) 0.15097(17) 0.54277(15)
H10 H 0.9640 0.1545 0.5059
C18 C 0.5053(5) 0.0487(2) 0.69717(19)
H11 H 0.3663 0.0820 0.7212
H12 H 0.6286 0.0613 0.7520
H13 H 0.4527 -0.0328 0.6585
N1 N 0.3990(3) 0.63297(13) 0.05227(11)
N2 N 0.1307(4) 0.10875(15) -0.06356(12)
N3 N 0.6552(3) 0.21503(12) 0.55568(11)
N4 N 0.6092(3) 0.10285(13) 0.63607(12)
O1 O 0.6130(2) 0.50059(10) 0.41663(8)
O2 O 1.0019(2) 0.53646(10) 0.39286(8)
O3 O 0.1789(3) 0.60443(16) 0.02188(13)
O4 O 0.5399(3) 0.68367(15) 0.01866(12)
O5 O 0.2617(2) 0.26004(11) 0.40568(9)
O6 O -0.1339(2) 0.26870(11) 0.37313(9)
O7 O -0.0226(3) 0.13259(15) -0.11391(11)
O8 O 0.2911(4) 0.05449(15) -0.09577(12)
Ca1 Ca 0.64485(5) 0.36741(3) 0.48971(2)
H14 H 0.903(5) 0.032(2) 0.5972(18)
O1A O 0.3870(2) 0.49941(10) 0.58337(8)
O2A O 0.9981(2) 0.46354(10) 0.60714(8)
O6_2 O 0.8661(2) 0.26870(11) 0.37313(9)
Ca1A Ca 0.35515(5) 0.63259(3) 0.51029(2)
Ca1A_2 Ca 1.35515(5) 0.63259(3) 0.51029(2)
Ca1_2 Ca -0.35515(5) 0.36741(3) 0.48971(2)
loop_
_geom_bond_atom_site_label_1
_geom_bond_atom_site_label_2
_geom_bond_site_symmetry_1
_geom_bond_site_symmetry_2
C1 C2 1_555 1_555
C2 C3 1_555 1_555
C3 H1 1_555 1_555
C4 C3 1_555 1_555
H2 C4 1_555 1_555
C5 C4 1_555 1_555
C6 C5 1_555 1_555
H3 C6 1_555 1_555
C7 C2 1_555 1_555
H4 C7 1_555 1_555
C8 C9 1_555 1_555
C9 C10 1_555 1_555
C10 H5 1_555 1_555
C11 C10 1_555 1_555
H6 C11 1_555 1_555
C12 C11 1_555 1_555
C13 C12 1_555 1_555
H7 C13 1_555 1_555
C14 C9 1_555 1_555
H8 C14 1_555 1_555
C15 H9 1_555 1_555
C16 C17 1_555 1_555
C17 H10 1_555 1_555
C18 H11 1_555 1_555
H12 C18 1_555 1_555
H13 C18 1_555 1_555
N1 C5 1_555 1_555
N2 C12 1_555 1_555
N3 C15 1_555 1_555
N4 C15 1_555 1_555
O1 C1 1_555 1_555
O2 C1 1_555 1_555
O3 N1 1_555 1_555
O4 N1 1_555 1_555
O5 C8 1_555 1_555
O6 C8 1_555 1_555
O7 N2 1_555 1_555
O8 N2 1_555 1_555
Ca1 N3 1_555 1_555
H14 C16 1_555 1_555
O1A Ca1 1_555 1_555
O2A Ca1 1_555 1_555
O6_2 Ca1 1_555 1_555
Ca1A O1 1_555 1_555
Ca1A_2 O2 1_555 1_555
Ca1_2 O6 1_555 1_555
C6 C7 1_555 1_555
C13 C14 1_555 1_555
C16 N4 1_555 1_555
C17 N3 1_555 1_555
C18 N4 1_555 1_555
O1 Ca1 1_555 1_555
O5 Ca1 1_555 1_555
O1A Ca1A 1_555 1_555

#END
