
#######################################################################
#
#                 Cambridge Crystallographic Data Centre
#                                CCDC 
#
#######################################################################
#
# If this CIF has been generated from an entry in the Cambridge 
# Structural Database, then it will include bibliographic, chemical, 
# crystal, experimental, refinement or atomic coordinate data resulting 
# from the CCDC's data processing and validation procedures.
#
#######################################################################

data_BOHMIV
_symmetry_cell_setting           orthorhombic
_symmetry_space_group_name_H-M   'F d d 2'
_symmetry_Int_Tables_number      43
_space_group_name_Hall           'F 2 -2d'
loop_
_symmetry_equiv_pos_site_id
_symmetry_equiv_pos_as_xyz
1 x,y,z
2 -x,-y,z
3 1/4-x,1/4+y,1/4+z
4 1/4+x,1/4-y,1/4+z
5 x,1/2+y,1/2+z
6 -x,1/2-y,1/2+z
7 1/4-x,3/4+y,3/4+z
8 1/4+x,3/4-y,3/4+z
9 1/2+x,y,1/2+z
10 1/2-x,-y,1/2+z
11 3/4-x,1/4+y,3/4+z
12 3/4+x,1/4-y,3/4+z
13 1/2+x,1/2+y,z
14 1/2-x,1/2-y,z
15 3/4-x,3/4+y,1/4+z
16 3/4+x,3/4-y,1/4+z
_cell_length_a                   39.306(9)
_cell_length_b                   48.696(11)
_cell_length_c                   9.505(2)
_cell_angle_alpha                90
_cell_angle_beta                 90
_cell_angle_gamma                90
_cell_volume                     18193
loop_
_atom_site_label
_atom_site_type_symbol
_atom_site_fract_x
_atom_site_fract_y
_atom_site_fract_z
C1 C 0.8504(2) 0.05326(17) 0.3078(9)
C2 C 0.8211(2) 0.04832(18) 0.3860(10)
H1 H 0.8001 0.0527 0.3469
C3 C 0.8396(2) 0.09906(18) -0.2524(10)
H2 H 0.8189 0.1043 -0.2912
C4 C 0.8221(2) 0.03723(19) 0.5190(9)
H3 H 0.8019 0.0336 0.5665
C5 C 0.8396(2) 0.08933(18) -0.1249(9)
H4 H 0.8192 0.0877 -0.0761
C6 C 0.8531(2) 0.03130(19) 0.5834(8)
C7 C 0.8705(2) 0.08115(17) -0.0599(9)
C8 C 0.8826(2) 0.03727(17) 0.5081(10)
H5 H 0.9037 0.0340 0.5493
C9 C 0.8996(2) 0.08450(18) -0.1443(10)
H6 H 0.9208 0.0797 -0.1080
C10 C 0.8812(2) 0.04785(18) 0.3744(9)
H7 H 0.9014 0.0515 0.3270
C11 C 0.8977(2) 0.0946(2) -0.2768(10)
H8 H 0.9174 0.0963 -0.3304
C12 C 0.8740(2) 0.06977(18) 0.0789(9)
H9 H 0.8958 0.0659 0.1106
C13 C 0.8481(2) 0.06441(17) 0.1655(9)
H10 H 0.8263 0.0681 0.1318
C42 C 0.8245(2) 0.0131(2) 0.7894(10)
H32 H 0.8122 0.0294 0.8154
H33 H 0.8305 0.0031 0.8726
H34 H 0.8104 0.0019 0.7304
C43 C 0.8861(2) 0.0146(2) 0.7857(9)
H35 H 0.9038 0.0122 0.7172
H36 H 0.8837 -0.0019 0.8399
H37 H 0.8918 0.0295 0.8470
C44 C 0.8656(3) 0.1130(2) -0.4750(10)
H38 H 0.8584 0.0987 -0.5380
H39 H 0.8876 0.1196 -0.5036
H40 H 0.8495 0.1278 -0.4775
N1 N 0.8677(2) 0.10201(15) -0.3315(7)
N2 N 0.85443(18) 0.02055(17) 0.7152(8)
C14 C 0.8849(2) -0.07129(17) 0.9277(9)
C15 C 0.8538(2) -0.07878(19) 0.9832(10)
H11 H 0.8344 -0.0770 0.9280
C16 C 0.8536(3) -0.0271(2) 0.3319(9)
H12 H 0.8355 -0.0247 0.2701
C17 C 0.8507(2) -0.08876(18) 1.1168(9)
H13 H 0.8293 -0.0928 1.1520
C18 C 0.8474(2) -0.03790(19) 0.4605(10)
H14 H 0.8251 -0.0420 0.4863
C19 C 0.8792(2) -0.09297(18) 1.2009(9)
C20 C 0.8734(2) -0.04291(18) 0.5538(10)
C21 C 0.9107(2) -0.08566(18) 1.1468(8)
H15 H 0.9302 -0.0880 1.2010
C22 C 0.9056(2) -0.0349(2) 0.5070(10)
H16 H 0.9243 -0.0372 0.5660
C23 C 0.9133(2) -0.07517(17) 1.0163(10)
H17 H 0.9347 -0.0702 0.9831
C24 C 0.9104(2) -0.0238(2) 0.3775(11)
H18 H 0.9321 -0.0187 0.3493
C25 C 0.8903(2) -0.06026(18) 0.7859(10)
H19 H 0.9127 -0.0566 0.7606
C26 C 0.8667(2) -0.05488(19) 0.6893(9)
H20 H 0.8442 -0.0592 0.7110
C45 C 0.8433(2) -0.1102(2) 1.3932(11)
H41 H 0.8296 -0.0939 1.3953
H42 H 0.8460 -0.1171 1.4871
H43 H 0.8323 -0.1239 1.3363
C46 C 0.9054(2) -0.1088(2) 1.4214(9)
H44 H 0.9203 -0.1216 1.3753
H45 H 0.8984 -0.1162 1.5103
H46 H 0.9173 -0.0918 1.4364
C47 C 0.8902(3) -0.0085(2) 0.1506(11)
H47 H 0.8899 0.0112 0.1559
H48 H 0.8725 -0.0146 0.0881
H49 H 0.9118 -0.0146 0.1159
N3 N 0.8844(2) -0.02001(16) 0.2908(7)
N4 N 0.87602(19) -0.10395(18) 1.3347(7)
C27 C 0.9983(2) 0.1243(2) 0.3545(9)
C28 C 0.9642(2) 0.1205(2) 0.4249(8)
C29 C 1.00660(19) 0.04820(17) 0.6310(8)
C30 C 0.9754(2) 0.03103(18) 0.5844(9)
C31 C 1.0116(2) 0.03638(18) 1.1393(9)
C32 C 0.9749(2) 0.04495(18) 1.0955(9)
O1 O 0.94751(17) 0.14072(14) 0.4670(7)
O2 O 1.01178(19) 0.14744(14) 0.3454(8)
O3 O 1.01221(14) 0.10200(13) 0.3111(6)
O4 O 0.95430(14) 0.09584(13) 0.4359(6)
O5 O 0.96412(15) 0.03714(12) 0.4634(6)
O6 O 1.01615(13) 0.06584(11) 0.5407(6)
O7 O 1.02017(15) 0.04339(12) 0.7423(6)
O8 O 0.96451(14) 0.01344(13) 0.6622(6)
O9 O 0.96093(14) 0.06088(12) 1.1850(6)
O10 O 1.02126(13) 0.04485(12) 1.2595(6)
O11 O 0.96337(15) 0.03732(12) 0.9840(6)
O12 O 1.02829(13) 0.02172(12) 1.0590(6)
Fe1 Fe 0.98746(3) 0.06819(2) 0.36388(13)
Ni1 Ni 1.0000 0.0000 0.8627(2)
C27A C 1.0017(2) -0.1243(2) 0.3545(9)
C28A C 1.0358(2) -0.1205(2) 0.4249(8)
C29A C 0.99340(19) -0.04820(17) 0.6310(8)
C30A C 1.0246(2) -0.03103(18) 0.5844(9)
C31A C 0.9884(2) -0.03638(18) 1.1393(9)
C32A C 1.0251(2) -0.04495(18) 1.0955(9)
O1A O 1.05249(17) -0.14072(14) 0.4670(7)
O2A O 0.98822(19) -0.14744(14) 0.3454(8)
O3A O 0.98779(14) -0.10200(13) 0.3111(6)
O4A O 1.04570(14) -0.09584(13) 0.4359(6)
O5A O 1.03588(15) -0.03714(12) 0.4634(6)
O6A O 0.98385(13) -0.06584(11) 0.5407(6)
O7A O 0.97983(15) -0.04339(12) 0.7423(6)
O8A O 1.03549(14) -0.01344(13) 0.6622(6)
O9A O 1.03907(14) -0.06088(12) 1.1850(6)
O9_2 O 0.96093(14) 0.06088(12) 0.1850(6)
O9A_2 O 1.03907(14) -0.06088(12) 0.1850(6)
O10A O 0.97874(13) -0.04485(12) 1.2595(6)
O10_2 O 1.02126(13) 0.04485(12) 0.2595(6)
O10A_2 O 0.97874(13) -0.04485(12) 0.2595(6)
O11A O 1.03663(15) -0.03732(12) 0.9840(6)
O12A O 0.97171(13) -0.02172(12) 1.0590(6)
Fe1A Fe 1.01254(3) -0.06819(2) 0.36388(13)
Fe1_2 Fe 0.98746(3) 0.06819(2) 1.36388(13)
Fe1A_2 Fe 1.01254(3) -0.06819(2) 1.36388(13)
C33 C 0.7709(3) -0.0032(3) 0.1721(14)
H21 H 0.7677 0.0039 0.2619
C34 C 0.7675(2) -0.0332(2) 0.1568(10)
C35 C 0.7678(2) -0.0456(2) 0.0274(11)
H22 H 0.7725 -0.0351 -0.0520
C36 C 0.7614(2) -0.0729(2) 0.0120(10)
H23 H 0.7621 -0.0807 -0.0770
C37 C 0.7536(2) -0.0896(2) 0.1324(10)
C38 C 0.7545(2) -0.0771(2) 0.2617(10)
H24 H 0.7508 -0.0875 0.3422
C39 C 0.7608(2) -0.0494(2) 0.2749(10)
H25 H 0.7606 -0.0414 0.3637
C40 C 0.7473(3) -0.1350(2) 0.2384(13)
H26 H 0.7694 -0.1336 0.2806
H27 H 0.7434 -0.1536 0.2086
H28 H 0.7303 -0.1298 0.3060
C41 C 0.7429(4) -0.1298(3) -0.0179(14)
H29 H 0.7319 -0.1179 -0.0846
H30 H 0.7298 -0.1463 -0.0073
H31 H 0.7653 -0.1343 -0.0510
N5 N 0.7453(2) -0.11622(16) 0.1139(9)
O14 O 0.7771(2) 0.01275(18) 0.0819(10)
O13 O 0.72300(19) 0.05235(15) 0.1581(8)
loop_
_geom_bond_atom_site_label_1
_geom_bond_atom_site_label_2
_geom_bond_site_symmetry_1
_geom_bond_site_symmetry_2
C1 C2 1_555 1_555
C2 H1 1_555 1_555
C3 H2 1_555 1_555
C4 C2 1_555 1_555
H3 C4 1_555 1_555
C5 C3 1_555 1_555
H4 C5 1_555 1_555
C6 C4 1_555 1_555
C7 C5 1_555 1_555
C8 C6 1_555 1_555
H5 C8 1_555 1_555
C9 C7 1_555 1_555
H6 C9 1_555 1_555
C10 C1 1_555 1_555
H7 C10 1_555 1_555
C11 C9 1_555 1_555
H8 C11 1_555 1_555
C12 C7 1_555 1_555
H9 C12 1_555 1_555
C13 C1 1_555 1_555
H10 C13 1_555 1_555
C14 C15 1_555 1_555
C15 H11 1_555 1_555
C16 H12 1_555 1_555
C17 C15 1_555 1_555
H13 C17 1_555 1_555
C18 C16 1_555 1_555
H14 C18 1_555 1_555
C19 C17 1_555 1_555
C20 C18 1_555 1_555
C21 C19 1_555 1_555
H15 C21 1_555 1_555
C22 C20 1_555 1_555
H16 C22 1_555 1_555
C23 C14 1_555 1_555
H17 C23 1_555 1_555
C24 C22 1_555 1_555
H18 C24 1_555 1_555
C25 C14 1_555 1_555
H19 C25 1_555 1_555
C26 C20 1_555 1_555
H20 C26 1_555 1_555
C27 C28 1_555 1_555
C28 O1 1_555 1_555
C29 C30 1_555 1_555
C30 O5 1_555 1_555
C31 C32 1_555 1_555
C32 O9 1_555 1_555
C33 H21 1_555 1_555
C34 C33 1_555 1_555
C35 C34 1_555 1_555
H22 C35 1_555 1_555
C36 C35 1_555 1_555
H23 C36 1_555 1_555
C37 C36 1_555 1_555
C38 C37 1_555 1_555
H24 C38 1_555 1_555
C39 C34 1_555 1_555
H25 C39 1_555 1_555
C40 H26 1_555 1_555
H27 C40 1_555 1_555
H28 C40 1_555 1_555
C41 H29 1_555 1_555
H30 C41 1_555 1_555
H31 C41 1_555 1_555
C42 H32 1_555 1_555
H33 C42 1_555 1_555
H34 C42 1_555 1_555
C43 H35 1_555 1_555
H36 C43 1_555 1_555
H37 C43 1_555 1_555
C44 H38 1_555 1_555
H39 C44 1_555 1_555
H40 C44 1_555 1_555
C45 H41 1_555 1_555
H42 C45 1_555 1_555
H43 C45 1_555 1_555
C46 H44 1_555 1_555
H45 C46 1_555 1_555
H46 C46 1_555 1_555
C47 H47 1_555 1_555
H48 C47 1_555 1_555
H49 C47 1_555 1_555
N1 C3 1_555 1_555
N2 C6 1_555 1_555
N3 C16 1_555 1_555
N4 C19 1_555 1_555
N5 C37 1_555 1_555
O2 C27 1_555 1_555
O3 C27 1_555 1_555
O4 C28 1_555 1_555
O5 Fe1 1_555 1_555
O6 C29 1_555 1_555
O7 C29 1_555 1_555
O8 C30 1_555 1_555
O9 Fe1_2 1_555 1_555
O10 C31 1_555 1_555
O11 C32 1_555 1_555
O12 C31 1_555 1_555
Fe1 O3 1_555 1_555
Ni1 O7 1_555 1_555
O14 C33 1_555 1_555
C27A C28A 1_555 1_555
C28A O1A 1_555 1_555
C29A C30A 1_555 1_555
C30A O5A 1_555 1_555
C31A C32A 1_555 1_555
C32A O9A 1_555 1_555
O2A C27A 1_555 1_555
O3A C27A 1_555 1_555
O4A C28A 1_555 1_555
O5A Fe1A 1_555 1_555
O6A C29A 1_555 1_555
O7A Ni1 1_555 1_555
O8A Ni1 1_555 1_555
O9A Fe1A_2 1_555 1_555
O9_2 Fe1 1_555 1_555
O9A_2 Fe1A 1_555 1_555
O10A C31A 1_555 1_555
O10_2 Fe1 1_555 1_555
O10A_2 Fe1A 1_555 1_555
O11A C32A 1_555 1_555
O12A Ni1 1_555 1_555
Fe1A O3A 1_555 1_555
Fe1_2 O10 1_555 1_555
Fe1A_2 O10A 1_555 1_555
C8 C10 1_555 1_555
C11 N1 1_555 1_555
C12 C13 1_555 1_555
C21 C23 1_555 1_555
C24 N3 1_555 1_555
C25 C26 1_555 1_555
C38 C39 1_555 1_555
C40 N5 1_555 1_555
C41 N5 1_555 1_555
C42 N2 1_555 1_555
C43 N2 1_555 1_555
C44 N1 1_555 1_555
C45 N4 1_555 1_555
C46 N4 1_555 1_555
C47 N3 1_555 1_555
O4 Fe1 1_555 1_555
O6 Fe1 1_555 1_555
O8 Ni1 1_555 1_555
O12 Ni1 1_555 1_555
C29A O7A 1_555 1_555
C30A O8A 1_555 1_555
C31A O12A 1_555 1_555
O4A Fe1A 1_555 1_555
O6A Fe1A 1_555 1_555

#END
