
#######################################################################
#
#                 Cambridge Crystallographic Data Centre
#                                CCDC 
#
#######################################################################
#
# If this CIF has been generated from an entry in the Cambridge 
# Structural Database, then it will include bibliographic, chemical, 
# crystal, experimental, refinement or atomic coordinate data resulting 
# from the CCDC's data processing and validation procedures.
#
#######################################################################

data_BOHMAN
_symmetry_cell_setting           triclinic
_symmetry_space_group_name_H-M   'P -1'
_symmetry_Int_Tables_number      2
_space_group_name_Hall           '-P 1'
loop_
_symmetry_equiv_pos_site_id
_symmetry_equiv_pos_as_xyz
1 x,y,z
2 -x,-y,-z
_cell_length_a                   7.0084(6)
_cell_length_b                   10.1467(9)
_cell_length_c                   15.2168(14)
_cell_angle_alpha                93.711(7)
_cell_angle_beta                 94.531(7)
_cell_angle_gamma                104.345(7)
_cell_volume                     1041.1
loop_
_atom_site_label
_atom_site_type_symbol
_atom_site_fract_x
_atom_site_fract_y
_atom_site_fract_z
Cu1 Cu 0.78788(8) 0.90971(5) 0.53234(3)
N1 N 0.7330(6) 0.7992(4) 0.7064(3)
N2 N 0.7484(5) 0.7721(4) 0.6216(3)
C1 C 0.7506(6) 0.6456(4) 0.5900(3)
N3 N 0.7576(6) 0.5442(4) 0.6407(3)
C2 C 0.7620(6) 0.5714(4) 0.7276(3)
C3 C 0.7326(7) 0.7000(5) 0.7607(3)
C4 C 0.7581(6) 0.6272(4) 0.4939(3)
N4 N 0.7733(5) 0.7430(4) 0.4524(3)
C5 C 0.7875(7) 0.7394(5) 0.3646(3)
H1 H 0.8002 0.8193 0.3364
C6 C 0.7837(8) 0.6194(5) 0.3159(3)
H2 H 0.7916 0.6182 0.2551
C7 C 0.7679(7) 0.5006(5) 0.3577(3)
H3 H 0.7669 0.4193 0.3256
C8 C 0.7535(7) 0.5045(4) 0.4486(3)
H4 H 0.7409 0.4257 0.4780
C9 C 0.8062(7) 0.4681(5) 0.7834(3)
C10 C 0.7189(8) 0.3300(5) 0.7595(3)
H5 H 0.6275 0.3040 0.7098
C11 C 0.7678(9) 0.2307(5) 0.8097(4)
H6 H 0.7048 0.1390 0.7951
C12 C 0.9100(9) 0.2689(5) 0.8812(4)
H7 H 0.9443 0.2028 0.9143
C13 C 1.0012(8) 0.4060(5) 0.9033(3)
H8 H 1.0996 0.4310 0.9504
C14 C 0.9489(8) 0.5056(5) 0.8570(3)
H9 H 1.0075 0.5973 0.8742
C15 C 0.6938(7) 0.7351(5) 0.8525(3)
C16 C 0.7794(8) 0.8664(5) 0.8927(4)
H10 H 0.8666 0.9290 0.8634
C17 C 0.7348(9) 0.9032(6) 0.9758(4)
H11 H 0.7935 0.9903 1.0027
C18 C 0.6034(9) 0.8116(6) 1.0195(4)
H12 H 0.5720 0.8374 1.0752
C19 C 0.5190(9) 0.6818(6) 0.9802(4)
H13 H 0.4316 0.6200 1.0100
C20 C 0.5625(8) 0.6422(5) 0.8970(4)
H14 H 0.5046 0.5544 0.8710
O1 O 0.7647(5) 1.0643(3) 0.6102(2)
H15 H 0.7222 1.1194 0.5658
H16 H 0.6436 1.0308 0.6397
S1 S 0.72099(16) 1.10575(11) 0.39318(8)
O2 O 0.8630(4) 1.0360(3) 0.4410(2)
O3 O 0.5819(5) 1.0033(4) 0.3313(2)
O4 O 0.6190(5) 1.1616(4) 0.4607(2)
O5 O 0.8399(5) 1.2114(4) 0.3458(3)
Cu1A Cu 1.21212(8) 1.09029(5) 0.46766(3)
Cu1A_2 Cu 0.21212(8) 1.09029(5) 0.46766(3)
O2A O 1.1370(4) 0.9640(3) 0.5590(2)
O4A O 0.3810(5) 0.8384(4) 0.5393(2)
O6 O 0.7686(8) 1.1445(7) 0.1543(4)
H17 H 0.6553 1.1594 0.1386
H18 H 0.7901 1.1639 0.2099
loop_
_geom_bond_atom_site_label_1
_geom_bond_atom_site_label_2
_geom_bond_site_symmetry_1
_geom_bond_site_symmetry_2
Cu1 N2 1_555 1_555
N1 N2 1_555 1_555
N2 C1 1_555 1_555
C1 N3 1_555 1_555
N3 C2 1_555 1_555
C2 C3 1_555 1_555
C3 N1 1_555 1_555
C4 C1 1_555 1_555
N4 Cu1 1_555 1_555
C5 N4 1_555 1_555
H1 C5 1_555 1_555
C6 C5 1_555 1_555
H2 C6 1_555 1_555
C7 C6 1_555 1_555
H3 C7 1_555 1_555
C8 C4 1_555 1_555
H4 C8 1_555 1_555
C9 C2 1_555 1_555
C10 C9 1_555 1_555
H5 C10 1_555 1_555
C11 C10 1_555 1_555
H6 C11 1_555 1_555
C12 C11 1_555 1_555
H7 C12 1_555 1_555
C13 C12 1_555 1_555
H8 C13 1_555 1_555
C14 C9 1_555 1_555
H9 C14 1_555 1_555
C15 C3 1_555 1_555
C16 C15 1_555 1_555
H10 C16 1_555 1_555
C17 C16 1_555 1_555
H11 C17 1_555 1_555
C18 C17 1_555 1_555
H12 C18 1_555 1_555
C19 C18 1_555 1_555
H13 C19 1_555 1_555
C20 C15 1_555 1_555
H14 C20 1_555 1_555
O1 Cu1 1_555 1_555
H15 O1 1_555 1_555
H16 O1 1_555 1_555
S1 O2 1_555 1_555
O2 Cu1 1_555 1_555
O3 S1 1_555 1_555
O4 S1 1_555 1_555
O5 S1 1_555 1_555
O6 H17 1_555 1_555
H18 O6 1_555 1_555
Cu1A O2 1_555 1_555
Cu1A_2 O4 1_555 1_555
O2A Cu1 1_555 1_555
O4A Cu1 1_555 1_555
C4 N4 1_555 1_555
C7 C8 1_555 1_555
C13 C14 1_555 1_555
C19 C20 1_555 1_555
Cu1A O2A 1_555 1_555

#END
