
#######################################################################
#
#                 Cambridge Crystallographic Data Centre
#                                CCDC 
#
#######################################################################
#
# If this CIF has been generated from an entry in the Cambridge 
# Structural Database, then it will include bibliographic, chemical, 
# crystal, experimental, refinement or atomic coordinate data resulting 
# from the CCDC's data processing and validation procedures.
#
#######################################################################

data_BOHMER
_symmetry_cell_setting           monoclinic
_symmetry_space_group_name_H-M   'P 21/n'
_symmetry_Int_Tables_number      14
_space_group_name_Hall           '-P 2yn'
loop_
_symmetry_equiv_pos_site_id
_symmetry_equiv_pos_as_xyz
1 x,y,z
2 1/2-x,1/2+y,1/2-z
3 -x,-y,-z
4 1/2+x,1/2-y,1/2+z
_cell_length_a                   7.6430(10)
_cell_length_b                   18.850(2)
_cell_length_c                   15.7150(10)
_cell_angle_alpha                90
_cell_angle_beta                 100.870(10)
_cell_angle_gamma                90
_cell_volume                     2223.45
loop_
_atom_site_label
_atom_site_type_symbol
_atom_site_fract_x
_atom_site_fract_y
_atom_site_fract_z
Sn1 Sn -0.07366(4) -0.002620(14) 0.333860(18)
C1 C -0.3320(5) 0.0022(2) 0.3635(3)
H1 H -0.3944 -0.0411 0.3458
H2 H -0.3959 0.0414 0.3333
H3 H -0.3231 0.0085 0.4248
C2 C 0.1308(5) -0.07726(19) 0.3717(3)
H4 H 0.1986 -0.0644 0.4274
H5 H 0.2075 -0.0780 0.3299
H6 H 0.0796 -0.1234 0.3752
C3 C 0.0946(5) 0.0268(2) 0.1633(3)
S1 S -0.01457(16) 0.08179(5) 0.22805(7)
C4 C 0.0331(5) -0.0390(2) 0.1283(2)
C5 C -0.1226(6) -0.0784(2) 0.1488(3)
O1 O -0.1771(3) -0.06981(13) 0.21814(17)
O2 O -0.1929(4) -0.12413(14) 0.09355(17)
C6 C 0.1274(6) -0.0722(2) 0.0715(3)
H7 H 0.0856 -0.1152 0.0467
C7 C 0.2783(7) -0.0440(3) 0.0508(3)
H8 H 0.3395 -0.0678 0.0136
C8 C 0.3383(7) 0.0208(3) 0.0863(3)
H9 H 0.4408 0.0410 0.0729
C9 C 0.2477(6) 0.0551(2) 0.1408(3)
H10 H 0.2895 0.0987 0.1637
Sn2 Sn -0.18424(4) 0.277160(15) 0.376870(18)
C10 C 0.0158(6) 0.3073(2) 0.3080(3)
H11 H -0.0210 0.2952 0.2480
H12 H 0.1245 0.2828 0.3313
H13 H 0.0350 0.3576 0.3134
C11 C -0.4339(5) 0.2385(2) 0.3137(3)
H14 H -0.4652 0.2600 0.2575
H15 H -0.5226 0.2499 0.3474
H16 H -0.4276 0.1879 0.3074
C12 C 0.1404(5) 0.24129(19) 0.5314(2)
S2 S -0.07586(13) 0.27654(6) 0.53182(6)
C13 C 0.1745(5) 0.1785(2) 0.4900(2)
C14 C 0.0330(6) 0.1340(2) 0.4357(3)
O3 O -0.1022(4) 0.16150(13) 0.38982(17)
O4 O 0.0608(3) 0.06740(14) 0.43822(16)
C15 C 0.3502(5) 0.1562(2) 0.4956(3)
H17 H 0.3735 0.1145 0.4681
C16 C 0.4890(6) 0.1947(3) 0.5410(3)
H18 H 0.6057 0.1796 0.5434
C17 C 0.4557(6) 0.2556(2) 0.5829(3)
H19 H 0.5497 0.2813 0.6146
C18 C 0.2830(6) 0.2788(2) 0.5783(2)
H20 H 0.2617 0.3201 0.6069
O2A O -0.3071(4) 0.37587(14) 0.40645(17)
Sn2A Sn -0.31576(4) -0.222840(15) 0.123130(18)
loop_
_geom_bond_atom_site_label_1
_geom_bond_atom_site_label_2
_geom_bond_site_symmetry_1
_geom_bond_site_symmetry_2
Sn1 C1 1_555 1_555
C1 H1 1_555 1_555
H2 C1 1_555 1_555
H3 C1 1_555 1_555
C2 Sn1 1_555 1_555
H4 C2 1_555 1_555
H5 C2 1_555 1_555
H6 C2 1_555 1_555
C3 S1 1_555 1_555
S1 Sn1 1_555 1_555
C4 C3 1_555 1_555
C5 C4 1_555 1_555
O1 Sn1 1_555 1_555
O2 C5 1_555 1_555
C6 C4 1_555 1_555
H7 C6 1_555 1_555
C7 C6 1_555 1_555
H8 C7 1_555 1_555
C8 C7 1_555 1_555
H9 C8 1_555 1_555
C9 C3 1_555 1_555
H10 C9 1_555 1_555
Sn2 C10 1_555 1_555
C10 H11 1_555 1_555
H12 C10 1_555 1_555
H13 C10 1_555 1_555
C11 Sn2 1_555 1_555
H14 C11 1_555 1_555
H15 C11 1_555 1_555
H16 C11 1_555 1_555
C12 S2 1_555 1_555
S2 Sn2 1_555 1_555
C13 C12 1_555 1_555
C14 C13 1_555 1_555
O3 Sn2 1_555 1_555
O4 Sn1 1_555 1_555
C15 C13 1_555 1_555
H17 C15 1_555 1_555
C16 C15 1_555 1_555
H18 C16 1_555 1_555
C17 C16 1_555 1_555
H19 C17 1_555 1_555
C18 C12 1_555 1_555
H20 C18 1_555 1_555
O2A Sn2 1_555 1_555
Sn2A O2 1_555 1_555
C5 O1 1_555 1_555
C8 C9 1_555 1_555
C14 O3 1_555 1_555
C14 O4 1_555 1_555
C17 C18 1_555 1_555

#END
