
#######################################################################
#
#                 Cambridge Crystallographic Data Centre
#                                CCDC 
#
#######################################################################
#
# If this CIF has been generated from an entry in the Cambridge 
# Structural Database, then it will include bibliographic, chemical, 
# crystal, experimental, refinement or atomic coordinate data resulting 
# from the CCDC's data processing and validation procedures.
#
#######################################################################

data_BOHNIW
_symmetry_cell_setting           monoclinic
_symmetry_space_group_name_H-M   'P 21'
_symmetry_Int_Tables_number      4
_space_group_name_Hall           'P 2yb'
loop_
_symmetry_equiv_pos_site_id
_symmetry_equiv_pos_as_xyz
1 x,y,z
2 -x,1/2+y,-z
_cell_length_a                   12.075(4)
_cell_length_b                   25.569(9)
_cell_length_c                   15.854(5)
_cell_angle_alpha                90
_cell_angle_beta                 90.87(3)
_cell_angle_gamma                90
_cell_volume                     4894.29
loop_
_atom_site_label
_atom_site_type_symbol
_atom_site_fract_x
_atom_site_fract_y
_atom_site_fract_z
Pb1 Pb 0.30210(8) 0.16916(5) 0.95061(5)
Pb2 Pb 0.24129(8) 0.11543(4) 0.71206(6)
C1 C 0.039(5) -0.0098(16) 0.934(3)
H1 H 0.0397 -0.0451 0.9130
H2 H -0.0049 -0.0081 0.9836
H3 H 0.1130 0.0013 0.9465
C2 C -0.123(2) 0.0018(18) 0.843(2)
H4 H -0.1133 -0.0344 0.8290
H5 H -0.1544 0.0199 0.7952
H6 H -0.1722 0.0047 0.8899
C3 C -0.011(2) 0.0259(10) 0.8665(19)
H7 H 0.0352 0.0227 0.8167
C4 C -0.018(3) 0.0846(11) 0.888(2)
H8 H -0.0680 0.0890 0.9352
C5 C 0.0949(19) 0.1069(11) 0.9132(14)
N1 N -0.0631(16) 0.1109(11) 0.8182(15)
H9 H -0.0682 0.1448 0.8298
H10 H -0.1303 0.0982 0.8065
H11 H -0.0198 0.1063 0.7738
O1 O 0.1308(17) 0.1038(8) 0.9871(11)
O2 O 0.1487(15) 0.1251(8) 0.8547(11)
C6 C 0.406(3) 0.3489(11) 0.782(2)
H12 H 0.3698 0.3800 0.7623
H13 H 0.4800 0.3572 0.8006
H14 H 0.3656 0.3348 0.8289
C7 C 0.463(4) 0.3309(17) 0.6330(19)
H15 H 0.4633 0.3047 0.5896
H16 H 0.5372 0.3415 0.6461
H17 H 0.4208 0.3606 0.6137
C8 C 0.410(3) 0.3086(10) 0.7115(15)
H18 H 0.3328 0.3001 0.6964
C9 C 0.464(2) 0.2583(9) 0.7417(16)
H19 H 0.5391 0.2666 0.7617
C10 C 0.400(2) 0.2353(10) 0.8153(16)
N2 N 0.472(2) 0.2181(11) 0.6751(13)
H20 H 0.5097 0.2309 0.6320
H21 H 0.4043 0.2090 0.6576
H22 H 0.5070 0.1901 0.6957
O3 O 0.4161(16) 0.2498(8) 0.8874(11)
O4 O 0.3316(15) 0.1976(7) 0.7983(10)
C11 C 0.089(5) 0.353(2) 0.935(2)
H23 H 0.1178 0.3871 0.9237
H24 H 0.0105 0.3525 0.9233
H25 H 0.1249 0.3275 0.9008
C12 C 0.228(3) 0.348(3) 1.053(4)
H26 H 0.2528 0.3817 1.0352
H27 H 0.2734 0.3213 1.0282
H28 H 0.2352 0.3456 1.1138
C13 C 0.109(2) 0.3399(10) 1.027(2)
H29 H 0.0661 0.3654 1.0593
C14 C 0.067(2) 0.2865(10) 1.0539(19)
H30 H -0.0045 0.2807 1.0255
C15 C 0.143(3) 0.2424(11) 1.0289(18)
N3 N 0.049(2) 0.2828(10) 1.1495(18)
H31 H 0.0243 0.2509 1.1622
H32 H -0.0014 0.3064 1.1646
H33 H 0.1122 0.2888 1.1769
O5 O 0.1526(16) 0.2327(8) 0.9541(11)
O6 O 0.1965(15) 0.2188(11) 1.0879(12)
C16 C -0.036(4) -0.0422(16) 0.623(2)
H34 H -0.0229 -0.0787 0.6133
H35 H -0.1131 -0.0369 0.6350
H36 H 0.0080 -0.0308 0.6706
C17 C 0.111(2) -0.0266(14) 0.522(2)
H37 H 0.1323 -0.0076 0.4728
H38 H 0.1132 -0.0634 0.5108
H39 H 0.1610 -0.0185 0.5679
C18 C -0.006(2) -0.0111(9) 0.5459(18)
H40 H -0.0547 -0.0228 0.4999
C19 C -0.022(2) 0.0470(10) 0.5545(17)
H41 H -0.0926 0.0535 0.5824
C20 C 0.073(3) 0.0716(12) 0.6073(18)
N4 N -0.024(2) 0.0748(11) 0.4652(14)
H42 H -0.0773 0.0610 0.4330
H43 H 0.0412 0.0702 0.4406
H44 H -0.0363 0.1088 0.4719
O7 O 0.0635(17) 0.0674(8) 0.6860(11)
O8 O 0.1483(15) 0.0970(7) 0.5696(10)
C21 C 0.036(3) 0.3517(14) 0.578(3)
H45 H 0.0679 0.3856 0.5870
H46 H -0.0362 0.3505 0.6026
H47 H 0.0293 0.3451 0.5184
C22 C 0.116(3) 0.3252(13) 0.7106(18)
H48 H 0.1452 0.3599 0.7162
H49 H 0.1638 0.3011 0.7400
H50 H 0.0434 0.3239 0.7343
C23 C 0.109(2) 0.3105(8) 0.6184(17)
H51 H 0.1833 0.3122 0.5940
C24 C 0.063(2) 0.2557(9) 0.6080(16)
H52 H 0.0463 0.2501 0.5480
C25 C 0.142(3) 0.2156(14) 0.6354(18)
N5 N -0.034(2) 0.2496(14) 0.653(2)
H53 H -0.0600 0.2173 0.6453
H54 H -0.0842 0.2726 0.6343
H55 H -0.0204 0.2550 0.7074
O9 O 0.2375(14) 0.2092(11) 0.6067(11)
O10 O 0.1123(16) 0.1832(8) 0.6919(12)
Pb3 Pb 0.29763(8) 0.16370(5) 0.45078(5)
Pb4 Pb 0.36558(8) 0.21117(4) 1.21381(6)
C26 C 0.754(4) 0.312(3) 1.455(6)
H56 H 0.7616 0.3487 1.4647
H57 H 0.8056 0.3009 1.4132
H58 H 0.7673 0.2932 1.5064
C27 C 0.563(5) 0.3325(16) 1.364(3)
H59 H 0.5707 0.3689 1.3780
H60 H 0.4874 0.3220 1.3705
H61 H 0.5853 0.3268 1.3071
C28 C 0.636(3) 0.3004(13) 1.423(2)
H62 H 0.5953 0.3038 1.4758
C29 C 0.629(2) 0.2418(12) 1.4095(19)
H63 H 0.6772 0.2253 1.4523
C30 C 0.5102(18) 0.2205(9) 1.4223(16)
N6 N 0.668(2) 0.2233(13) 1.3243(16)
H64 H 0.6647 0.1885 1.3219
H65 H 0.7380 0.2335 1.3169
H66 H 0.6252 0.2369 1.2839
O11 O 0.4722(14) 0.2195(9) 1.4917(10)
O12 O 0.4525(13) 0.2058(9) 1.3571(10)
C31 C 0.217(5) -0.020(2) 1.286(2)
H67 H 0.2443 -0.0520 1.2620
H68 H 0.1542 -0.0277 1.3204
H69 H 0.2741 -0.0042 1.3200
C32 C 0.126(5) -0.009(2) 1.142(2)
H70 H 0.1587 -0.0424 1.1323
H71 H 0.1344 0.0128 1.0932
H72 H 0.0488 -0.0130 1.1538
C33 C 0.183(4) 0.0167(13) 1.216(2)
H73 H 0.2551 0.0247 1.1921
C34 C 0.143(2) 0.0709(12) 1.2371(17)
H74 H 0.0654 0.0669 1.2538
C35 C 0.203(2) 0.0957(9) 1.3130(16)
N7 N 0.1413(18) 0.1076(10) 1.1641(12)
H75 H 0.1055 0.0929 1.1207
H76 H 0.2105 0.1149 1.1494
H77 H 0.1070 0.1370 1.1785
O13 O 0.1833(14) 0.0850(9) 1.3844(10)
O14 O 0.2778(15) 0.1317(9) 1.2925(10)
C36 C 0.407(3) -0.0281(16) 0.489(4)
H78 H 0.3528 -0.0014 0.4769
H79 H 0.3918 -0.0440 0.5421
H80 H 0.4031 -0.0542 0.4451
C37 C 0.616(6) -0.0403(19) 0.516(4)
H81 H 0.6846 -0.0213 0.5161
H82 H 0.6199 -0.0686 0.4765
H83 H 0.6034 -0.0540 0.5715
C38 C 0.522(3) -0.0040(13) 0.491(3)
H84 H 0.5367 0.0077 0.4334
C39 C 0.536(3) 0.0433(9) 0.5469(16)
H85 H 0.6102 0.0568 0.5338
C40 C 0.4518(19) 0.0910(12) 0.524(2)
N8 N 0.538(2) 0.0354(11) 0.6398(16)
H86 H 0.5853 0.0097 0.6529
H87 H 0.4708 0.0270 0.6568
H88 H 0.5602 0.0648 0.6652
O15 O 0.4476(17) 0.1006(8) 0.4470(13)
O16 O 0.3999(17) 0.1069(10) 0.5793(11)
C41 C 0.734(4) 0.364(2) 1.032(3)
H89 H 0.7272 0.4014 1.0362
H90 H 0.7430 0.3545 0.9740
H91 H 0.7977 0.3527 1.0642
C42 C 0.523(5) 0.364(3) 1.045(7)
H92 H 0.5302 0.4015 1.0502
H93 H 0.4672 0.3521 1.0829
H94 H 0.5009 0.3557 0.9880
C43 C 0.632(3) 0.3385(11) 1.066(2)
H95 H 0.6393 0.3444 1.1267
C44 C 0.632(2) 0.2797(11) 1.060(2)
H96 H 0.7025 0.2666 1.0834
C45 C 0.537(2) 0.2568(12) 1.1099(16)
N9 N 0.623(2) 0.2633(11) 0.9755(14)
H97 H 0.6785 0.2765 0.9461
H98 H 0.5588 0.2745 0.9537
H99 H 0.6252 0.2286 0.9733
O17 O 0.5362(17) 0.2602(8) 1.1893(13)
O18 O 0.4584(16) 0.2307(10) 1.0716(11)
C46 C 0.602(4) -0.013(2) 1.067(5)
H100 H 0.5848 -0.0498 1.0707
H101 H 0.6723 -0.0067 1.0942
H102 H 0.6044 -0.0028 1.0094
C47 C 0.486(5) -0.001(2) 1.199(4)
H103 H 0.4286 0.0200 1.2226
H104 H 0.5513 0.0011 1.2348
H105 H 0.4619 -0.0369 1.1965
C48 C 0.513(3) 0.0180(11) 1.112(3)
H106 H 0.4447 0.0157 1.0776
C49 C 0.554(3) 0.0739(11) 1.107(2)
H107 H 0.5764 0.0823 1.0497
C50 C 0.470(2) 0.1154(13) 1.1401(18)
N10 N 0.6491(19) 0.0805(11) 1.1664(19)
H108 H 0.7033 0.0587 1.1522
H109 H 0.6277 0.0735 1.2186
H110 H 0.6735 0.1133 1.1638
O19 O 0.3728(16) 0.1136(13) 1.1028(12)
O20 O 0.4951(16) 0.1458(10) 1.1940(13)
Pb3_2 Pb 0.29763(8) 0.16370(5) 1.45078(5)
O11_2 O 0.4722(14) 0.2195(9) 0.4917(10)
O12_2 O 0.4525(13) 0.2058(9) 0.3571(10)
O13_2 O 0.1833(14) 0.0850(9) 0.3844(10)
O14_2 O 0.2778(15) 0.1317(9) 0.2925(10)
Cl1 Cl 0.5954(8) 0.1260(4) 0.8427(5)
O21 O 0.6796(19) 0.0898(10) 0.8481(19)
O22 O 0.533(2) 0.1263(14) 0.9155(13)
O23 O 0.644(3) 0.1762(9) 0.833(2)
O24 O 0.5283(15) 0.1173(11) 0.7720(12)
Cl2 Cl 0.3131(8) -0.0244(4) 0.7724(7)
O25 O 0.4201(18) -0.0404(15) 0.797(2)
O26 O 0.277(3) 0.0105(14) 0.8339(19)
O27 O 0.245(3) -0.0674(11) 0.766(2)
O28 O 0.316(2) 0.0015(11) 0.6954(14)
Cl3 Cl -0.1780(10) -0.0048(4) 0.3076(8)
O29 O -0.250(4) -0.0461(14) 0.311(3)
O30 O -0.175(3) 0.0179(17) 0.2288(17)
O31 O -0.070(2) -0.0217(16) 0.330(2)
O32 O -0.207(2) 0.0332(11) 0.3676(18)
Cl4 Cl 0.2220(7) 0.3180(4) 0.3433(6)
O33 O 0.252(2) 0.2764(11) 0.394(2)
O34 O 0.1053(14) 0.3227(15) 0.339(2)
O35 O 0.261(3) 0.3102(15) 0.2620(14)
O36 O 0.265(3) 0.3643(9) 0.376(2)
Cl5 Cl 0.7728(7) 0.3265(4) 0.7891(7)
O37 O 0.781(3) 0.2869(11) 0.849(2)
O38 O 0.8696(19) 0.3564(13) 0.794(3)
O39 O 0.760(3) 0.3072(17) 0.7080(15)
O40 O 0.6811(19) 0.3581(12) 0.808(2)
Cl6 Cl -0.2404(6) 0.1494(4) 0.5976(6)
O41 O -0.298(3) 0.1953(14) 0.607(3)
O42 O -0.1285(15) 0.1561(13) 0.615(3)
O43 O -0.281(4) 0.1097(14) 0.6474(19)
O44 O -0.250(3) 0.1332(15) 0.5117(13)
Cl7 Cl -0.0217(6) 0.1918(3) 0.3372(5)
O45 O 0.0299(18) 0.1897(10) 0.4162(10)
O46 O 0.0603(16) 0.1963(10) 0.2751(13)
O47 O -0.078(2) 0.1450(8) 0.3231(12)
O48 O -0.0915(17) 0.2342(9) 0.3315(19)
Cl8 Cl -0.1527(6) 0.1674(5) 1.0759(5)
O49 O -0.055(2) 0.1886(14) 1.107(2)
O50 O -0.174(3) 0.1872(14) 0.9951(12)
O51 O -0.141(3) 0.1131(7) 1.072(2)
O52 O -0.240(2) 0.1800(12) 1.128(2)
O53 O -0.0302(16) 0.2238(11) 0.8330(13)
O54 O 0.649(3) -0.0463(17) 0.724(2)
O55 O 0.064(4) -0.1378(18) 0.777(2)
O56 O 0.6372(17) 0.1132(11) 0.3398(15)
loop_
_geom_bond_atom_site_label_1
_geom_bond_atom_site_label_2
_geom_bond_site_symmetry_1
_geom_bond_site_symmetry_2
Pb1 O1 1_555 1_555
Pb2 O2 1_555 1_555
C1 H1 1_555 1_555
H2 C1 1_555 1_555
H3 C1 1_555 1_555
C2 H4 1_555 1_555
H5 C2 1_555 1_555
H6 C2 1_555 1_555
C3 C1 1_555 1_555
H7 C3 1_555 1_555
C4 C3 1_555 1_555
H8 C4 1_555 1_555
C5 C4 1_555 1_555
N1 C4 1_555 1_555
H9 N1 1_555 1_555
H10 N1 1_555 1_555
H11 N1 1_555 1_555
O1 C5 1_555 1_555
O2 Pb1 1_555 1_555
C6 H12 1_555 1_555
H13 C6 1_555 1_555
H14 C6 1_555 1_555
C7 H15 1_555 1_555
H16 C7 1_555 1_555
H17 C7 1_555 1_555
C8 C6 1_555 1_555
H18 C8 1_555 1_555
C9 C8 1_555 1_555
H19 C9 1_555 1_555
C10 C9 1_555 1_555
N2 C9 1_555 1_555
H20 N2 1_555 1_555
H21 N2 1_555 1_555
H22 N2 1_555 1_555
O3 Pb1 1_555 1_555
O4 Pb1 1_555 1_555
C11 H23 1_555 1_555
H24 C11 1_555 1_555
H25 C11 1_555 1_555
C12 H26 1_555 1_555
H27 C12 1_555 1_555
H28 C12 1_555 1_555
C13 C11 1_555 1_555
H29 C13 1_555 1_555
C14 C13 1_555 1_555
H30 C14 1_555 1_555
C15 C14 1_555 1_555
N3 C14 1_555 1_555
H31 N3 1_555 1_555
H32 N3 1_555 1_555
H33 N3 1_555 1_555
O5 Pb1 1_555 1_555
O6 Pb1 1_555 1_555
C16 H34 1_555 1_555
H35 C16 1_555 1_555
H36 C16 1_555 1_555
C17 H37 1_555 1_555
H38 C17 1_555 1_555
H39 C17 1_555 1_555
C18 C16 1_555 1_555
H40 C18 1_555 1_555
C19 C18 1_555 1_555
H41 C19 1_555 1_555
C20 C19 1_555 1_555
N4 C19 1_555 1_555
H42 N4 1_555 1_555
H43 N4 1_555 1_555
H44 N4 1_555 1_555
O7 Pb2 1_555 1_555
O8 Pb2 1_555 1_555
C21 H45 1_555 1_555
H46 C21 1_555 1_555
H47 C21 1_555 1_555
C22 H48 1_555 1_555
H49 C22 1_555 1_555
H50 C22 1_555 1_555
C23 C21 1_555 1_555
H51 C23 1_555 1_555
C24 C23 1_555 1_555
H52 C24 1_555 1_555
C25 C24 1_555 1_555
N5 C24 1_555 1_555
H53 N5 1_555 1_555
H54 N5 1_555 1_555
H55 N5 1_555 1_555
O9 Pb2 1_555 1_555
O10 Pb2 1_555 1_555
Pb3 O9 1_555 1_555
Pb4 O6 1_555 1_555
C26 H56 1_555 1_555
H57 C26 1_555 1_555
H58 C26 1_555 1_555
C27 H59 1_555 1_555
H60 C27 1_555 1_555
H61 C27 1_555 1_555
C28 C26 1_555 1_555
H62 C28 1_555 1_555
C29 C28 1_555 1_555
H63 C29 1_555 1_555
C30 C29 1_555 1_555
N6 C29 1_555 1_555
H64 N6 1_555 1_555
H65 N6 1_555 1_555
H66 N6 1_555 1_555
O11 C30 1_555 1_555
O12 Pb4 1_555 1_555
C31 H67 1_555 1_555
H68 C31 1_555 1_555
H69 C31 1_555 1_555
C32 H70 1_555 1_555
H71 C32 1_555 1_555
H72 C32 1_555 1_555
C33 C31 1_555 1_555
H73 C33 1_555 1_555
C34 C33 1_555 1_555
H74 C34 1_555 1_555
C35 C34 1_555 1_555
N7 C34 1_555 1_555
H75 N7 1_555 1_555
H76 N7 1_555 1_555
H77 N7 1_555 1_555
O13 C35 1_555 1_555
O14 Pb4 1_555 1_555
C36 H78 1_555 1_555
H79 C36 1_555 1_555
H80 C36 1_555 1_555
C37 H81 1_555 1_555
H82 C37 1_555 1_555
H83 C37 1_555 1_555
C38 C36 1_555 1_555
H84 C38 1_555 1_555
C39 C38 1_555 1_555
H85 C39 1_555 1_555
C40 C39 1_555 1_555
N8 C39 1_555 1_555
H86 N8 1_555 1_555
H87 N8 1_555 1_555
H88 N8 1_555 1_555
O15 Pb3 1_555 1_555
O16 Pb2 1_555 1_555
C41 H89 1_555 1_555
H90 C41 1_555 1_555
H91 C41 1_555 1_555
C42 H92 1_555 1_555
H93 C42 1_555 1_555
H94 C42 1_555 1_555
C43 C41 1_555 1_555
H95 C43 1_555 1_555
C44 C43 1_555 1_555
H96 C44 1_555 1_555
C45 C44 1_555 1_555
N9 C44 1_555 1_555
H97 N9 1_555 1_555
H98 N9 1_555 1_555
H99 N9 1_555 1_555
O17 Pb4 1_555 1_555
O18 Pb4 1_555 1_555
C46 H100 1_555 1_555
H101 C46 1_555 1_555
H102 C46 1_555 1_555
C47 H103 1_555 1_555
H104 C47 1_555 1_555
H105 C47 1_555 1_555
C48 C46 1_555 1_555
H106 C48 1_555 1_555
C49 C48 1_555 1_555
H107 C49 1_555 1_555
C50 C49 1_555 1_555
N10 C49 1_555 1_555
H108 N10 1_555 1_555
H109 N10 1_555 1_555
H110 N10 1_555 1_555
O19 Pb1 1_555 1_555
O20 Pb4 1_555 1_555
Cl1 O21 1_555 1_555
O22 Cl1 1_555 1_555
O23 Cl1 1_555 1_555
O24 Cl1 1_555 1_555
Cl2 O25 1_555 1_555
O26 Cl2 1_555 1_555
O27 Cl2 1_555 1_555
O28 Cl2 1_555 1_555
Cl3 O29 1_555 1_555
O30 Cl3 1_555 1_555
O31 Cl3 1_555 1_555
O32 Cl3 1_555 1_555
Cl4 O33 1_555 1_555
O34 Cl4 1_555 1_555
O35 Cl4 1_555 1_555
O36 Cl4 1_555 1_555
Cl5 O37 1_555 1_555
O38 Cl5 1_555 1_555
O39 Cl5 1_555 1_555
O40 Cl5 1_555 1_555
Cl6 O41 1_555 1_555
O42 Cl6 1_555 1_555
O43 Cl6 1_555 1_555
O44 Cl6 1_555 1_555
Cl7 O45 1_555 1_555
O46 Cl7 1_555 1_555
O47 Cl7 1_555 1_555
O48 Cl7 1_555 1_555
Cl8 O49 1_555 1_555
O50 Cl8 1_555 1_555
O51 Cl8 1_555 1_555
O52 Cl8 1_555 1_555
Pb3_2 O11 1_555 1_555
O11_2 Pb3 1_555 1_555
O12_2 Pb3 1_555 1_555
O13_2 Pb3 1_555 1_555
O14_2 Pb3 1_555 1_555
Pb2 O4 1_555 1_555
C2 C3 1_555 1_555
C5 O2 1_555 1_555
C7 C8 1_555 1_555
C10 O3 1_555 1_555
C10 O4 1_555 1_555
C12 C13 1_555 1_555
C15 O5 1_555 1_555
C15 O6 1_555 1_555
C17 C18 1_555 1_555
C20 O7 1_555 1_555
C20 O8 1_555 1_555
C22 C23 1_555 1_555
C25 O9 1_555 1_555
C25 O10 1_555 1_555
Pb3 O16 1_555 1_555
C27 C28 1_555 1_555
C30 O12 1_555 1_555
O12 Pb3_2 1_555 1_555
C32 C33 1_555 1_555
C35 O14 1_555 1_555
O13 Pb3_2 1_555 1_555
O14 Pb3_2 1_555 1_555
C37 C38 1_555 1_555
C40 O15 1_555 1_555
C40 O16 1_555 1_555
C42 C43 1_555 1_555
C45 O17 1_555 1_555
C45 O18 1_555 1_555
C47 C48 1_555 1_555
C50 O19 1_555 1_555
C50 O20 1_555 1_555

#END
