
#######################################################################
#
#                 Cambridge Crystallographic Data Centre
#                                CCDC 
#
#######################################################################
#
# If this CIF has been generated from an entry in the Cambridge 
# Structural Database, then it will include bibliographic, chemical, 
# crystal, experimental, refinement or atomic coordinate data resulting 
# from the CCDC's data processing and validation procedures.
#
#######################################################################

data_BOHNES
_symmetry_cell_setting           monoclinic
_symmetry_space_group_name_H-M   'C 2'
_symmetry_Int_Tables_number      5
_space_group_name_Hall           'C 2y'
loop_
_symmetry_equiv_pos_site_id
_symmetry_equiv_pos_as_xyz
1 x,y,z
2 -x,y,-z
3 1/2+x,1/2+y,z
4 1/2-x,1/2+y,-z
_cell_length_a                   19.8637(12)
_cell_length_b                   5.2297(4)
_cell_length_c                   19.6208(16)
_cell_angle_alpha                90
_cell_angle_beta                 98.644(4)
_cell_angle_gamma                90
_cell_volume                     2015.08
loop_
_atom_site_label
_atom_site_type_symbol
_atom_site_fract_x
_atom_site_fract_y
_atom_site_fract_z
Pb1 Pb 0.295714(13) 0.67739(7) 0.596034(13)
C1 C 0.0194(6) 0.394(3) 0.6861(6)
H1 H 0.0640 0.3319 0.7040
H2 H -0.0061 0.2617 0.6600
H3 H -0.0037 0.4445 0.7236
C2 C -0.0452(4) 0.725(3) 0.6110(5)
H4 H -0.0689 0.7713 0.6484
H5 H -0.0704 0.5949 0.5836
H6 H -0.0407 0.8725 0.5829
C3 C 0.0256(4) 0.623(3) 0.6399(4)
H7 H 0.0513 0.7579 0.6670
C4 C 0.0637(3) 0.546(3) 0.5804(4)
H8 H 0.0417 0.3958 0.5580
H9 H 0.0591 0.6829 0.5468
C5 C 0.1396(4) 0.4869(19) 0.6011(4)
H10 H 0.1447 0.3692 0.6404
C6 C 0.1651(4) 0.353(2) 0.5405(4)
N1 N 0.1806(3) 0.718(2) 0.6212(3)
H11 H 0.1819 0.7459 0.6666
H12 H 0.1606 0.8541 0.5985
O1 O 0.2125(3) 0.4614(14) 0.5130(3)
O2 O 0.1389(3) 0.1488(18) 0.5192(3)
N2 N 0.3036(4) 1.183(3) 0.6975(4)
O3 O 0.2812(3) 1.170(2) 0.6316(3)
O4 O 0.3097(5) 1.402(2) 0.7224(4)
O5 O 0.3177(5) 0.993(3) 0.7316(4)
Pb1C Pb 0.204286(13) 0.17739(7) 0.403966(13)
O1C O 0.2875(3) 0.9614(14) 0.4870(3)
Pb2 Pb 0.301038(13) 0.01742(7) 0.093168(13)
C7 C 0.0214(5) -0.139(3) 0.1911(6)
H13 H 0.0010 -0.0618 0.2273
H14 H 0.0636 -0.2190 0.2102
H15 H -0.0089 -0.2661 0.1682
C8 C -0.0316(5) 0.187(3) 0.1096(6)
H16 H -0.0525 0.2615 0.1459
H17 H -0.0615 0.0603 0.0860
H18 H -0.0231 0.3178 0.0776
C9 C 0.0348(4) 0.063(3) 0.1398(4)
H19 H 0.0653 0.1931 0.1634
C10 C 0.0684(4) -0.058(2) 0.0812(4)
H20 H 0.0413 -0.2031 0.0627
H21 H 0.0678 0.0667 0.0444
C11 C 0.1422(4) -0.146(2) 0.1038(4)
H22 H 0.1429 -0.2654 0.1425
C12 C 0.1661(4) -0.291(2) 0.0431(4)
N3 N 0.1888(3) 0.065(2) 0.1257(3)
H23 H 0.1931 0.0791 0.1719
H24 H 0.1701 0.2109 0.1074
O6 O 0.2133(3) -0.1896(16) 0.0140(3)
O7 O 0.1367(3) -0.497(2) 0.0240(3)
N4 N 0.3135(4) 0.501(3) 0.1960(4)
O8 O 0.2918(3) 0.510(2) 0.1313(3)
O9 O 0.3204(5) 0.713(3) 0.2264(5)
O10 O 0.3269(5) 0.293(2) 0.2235(4)
Pb2C Pb 0.198962(13) -0.48258(7) -0.093168(13)
O6C O 0.2867(3) 0.3104(16) -0.0140(3)
loop_
_geom_bond_atom_site_label_1
_geom_bond_atom_site_label_2
_geom_bond_site_symmetry_1
_geom_bond_site_symmetry_2
Pb1 N1 1_555 1_555
C1 H1 1_555 1_555
H2 C1 1_555 1_555
H3 C1 1_555 1_555
C2 H4 1_555 1_555
H5 C2 1_555 1_555
H6 C2 1_555 1_555
C3 C1 1_555 1_555
H7 C3 1_555 1_555
C4 C3 1_555 1_555
H8 C4 1_555 1_555
H9 C4 1_555 1_555
C5 C4 1_555 1_555
H10 C5 1_555 1_555
C6 C5 1_555 1_555
N1 C5 1_555 1_555
H11 N1 1_555 1_555
H12 N1 1_555 1_555
O1 Pb1 1_555 1_555
O2 C6 1_555 1_555
N2 O3 1_555 1_555
O3 Pb1 1_555 1_555
O4 N2 1_555 1_555
O5 N2 1_555 1_555
Pb2 N3 1_555 1_555
C7 H13 1_555 1_555
H14 C7 1_555 1_555
H15 C7 1_555 1_555
C8 H16 1_555 1_555
H17 C8 1_555 1_555
H18 C8 1_555 1_555
C9 C7 1_555 1_555
H19 C9 1_555 1_555
C10 C9 1_555 1_555
H20 C10 1_555 1_555
H21 C10 1_555 1_555
C11 C10 1_555 1_555
H22 C11 1_555 1_555
C12 C11 1_555 1_555
N3 C11 1_555 1_555
H23 N3 1_555 1_555
H24 N3 1_555 1_555
O6 Pb2 1_555 1_555
O7 C12 1_555 1_555
N4 O8 1_555 1_555
O8 Pb2 1_555 1_555
O9 N4 1_555 1_555
O10 N4 1_555 1_555
Pb1C O1 1_555 1_555
O1C Pb1 1_555 1_555
Pb2C O6 1_555 1_555
O6C Pb2 1_555 1_555
C2 C3 1_555 1_555
C6 O1 1_555 1_555
C8 C9 1_555 1_555
C12 O6 1_555 1_555

#END
