
#######################################################################
#
#                 Cambridge Crystallographic Data Centre
#                                CCDC 
#
#######################################################################
#
# If this CIF has been generated from an entry in the Cambridge 
# Structural Database, then it will include bibliographic, chemical, 
# crystal, experimental, refinement or atomic coordinate data resulting 
# from the CCDC's data processing and validation procedures.
#
#######################################################################

data_BOHSIB
_symmetry_cell_setting           triclinic
_symmetry_space_group_name_H-M   'P -1'
_symmetry_Int_Tables_number      2
_space_group_name_Hall           '-P 1'
loop_
_symmetry_equiv_pos_site_id
_symmetry_equiv_pos_as_xyz
1 x,y,z
2 -x,-y,-z
_cell_length_a                   10.1796(18)
_cell_length_b                   12.077(2)
_cell_length_c                   15.613(3)
_cell_angle_alpha                67.474(11)
_cell_angle_beta                 80.870(13)
_cell_angle_gamma                67.409(9)
_cell_volume                     1636.81
loop_
_atom_site_label
_atom_site_type_symbol
_atom_site_fract_x
_atom_site_fract_y
_atom_site_fract_z
Cu1 Cu 0.31736(4) 0.28526(4) 0.24867(3)
Cu2 Cu 0.50782(4) 0.12974(4) 0.40973(3)
N1 N 0.4498(3) 0.3769(3) 0.17664(19)
N2 N 0.4152(3) 0.1730(3) 0.1741(2)
C1 C 0.4638(5) 0.4802(4) 0.1798(3)
H1 H 0.4023 0.5224 0.2175
C2 C 0.5685(6) 0.5271(5) 0.1280(3)
H2 H 0.5756 0.5998 0.1313
C3 C 0.6600(5) 0.4668(5) 0.0728(3)
H3 H 0.7304 0.4975 0.0388
C4 C 0.6476(4) 0.3583(5) 0.0672(3)
C5 C 0.7374(5) 0.2844(7) 0.0115(3)
H4 H 0.8099 0.3097 -0.0247
C6 C 0.7190(5) 0.1815(7) 0.0106(4)
H5 H 0.7793 0.1361 -0.0255
C7 C 0.6086(5) 0.1399(5) 0.0642(3)
C8 C 0.5860(6) 0.0296(5) 0.0695(4)
H6 H 0.6434 -0.0201 0.0353
C9 C 0.4811(7) -0.0038(5) 0.1241(4)
H7 H 0.4659 -0.0764 0.1271
C10 C 0.3955(5) 0.0692(4) 0.1759(3)
H8 H 0.3228 0.0452 0.2128
C11 C 0.5203(4) 0.2076(4) 0.1192(2)
C12 C 0.5397(4) 0.3175(4) 0.1210(2)
N3 N 0.6351(4) 0.2324(3) 0.3690(2)
N4 N 0.6524(3) 0.0243(3) 0.3417(2)
C13 C 0.6241(5) 0.3350(4) 0.3882(3)
H9 H 0.5492 0.3671 0.4250
C14 C 0.7278(7) 0.3942(5) 0.3518(4)
H10 H 0.7214 0.4643 0.3659
C15 C 0.8357(6) 0.3496(5) 0.2968(4)
H11 H 0.9012 0.3906 0.2720
C16 C 0.8487(5) 0.2434(5) 0.2773(3)
C17 C 0.9607(5) 0.1856(6) 0.2213(3)
H12 H 1.0288 0.2230 0.1940
C18 C 0.9695(5) 0.0816(7) 0.2077(3)
H13 H 1.0435 0.0479 0.1711
C19 C 0.8675(4) 0.0190(5) 0.2480(3)
C20 C 0.8713(5) -0.0918(5) 0.2386(3)
H14 H 0.9443 -0.1322 0.2047
C21 C 0.7675(5) -0.1412(5) 0.2794(3)
H15 H 0.7689 -0.2149 0.2726
C22 C 0.6587(4) -0.0815(4) 0.3316(3)
H16 H 0.5893 -0.1170 0.3598
C23 C 0.7548(4) 0.0752(4) 0.3007(2)
C24 C 0.7452(4) 0.1873(4) 0.3154(2)
O1 O 0.1389(3) 0.4068(3) 0.1520(2)
H17 H 0.1480 0.3833 0.1113
H18 H 0.0856 0.4747 0.1387
O2 O 0.2314(3) 0.1617(3) 0.33174(18)
O3 O 0.3889(2) 0.0239(2) 0.44156(17)
C25 C 0.2737(3) 0.0615(3) 0.4008(2)
C26 C 0.1803(4) -0.0179(3) 0.4352(2)
H19 H 0.2348 -0.1026 0.4763
H20 H 0.1520 -0.0276 0.3828
C27 C 0.0483(3) 0.0395(3) 0.4861(2)
H21 H -0.0037 0.1263 0.4467
H22 H 0.0758 0.0435 0.5413
O4 O 0.2453(3) 0.3894(3) 0.3261(2)
O5 O 0.3630(4) 0.2531(3) 0.4553(2)
C28 C 0.2688(5) 0.3530(4) 0.4108(3)
C29 C 0.1785(7) 0.4363(6) 0.4643(5)
H23 H 0.2143 0.3981 0.5270
H24 H 0.1899 0.5190 0.4364
C30 C 0.0457(12) 0.4549(11) 0.4690(8)
H25 H 0.0331 0.3727 0.4962
H26 H 0.0081 0.4957 0.4067
Cu1A Cu -0.31736(4) -0.28526(4) 0.75133(3)
Cu1A_2 Cu -0.31736(4) 0.71474(4) 0.75133(3)
Cu2A Cu -0.50782(4) -0.12974(4) 0.59027(3)
Cu2A_2 Cu 0.49218(4) -0.12974(4) 0.59027(3)
Cu2_2 Cu -0.49218(4) 0.12974(4) 0.40973(3)
Cu2A_3 Cu -0.50782(4) 0.87026(4) 0.59027(3)
N1A N -0.4498(3) -0.3769(3) 0.82336(19)
N2A N -0.4152(3) -0.1730(3) 0.8259(2)
C1A C -0.4638(5) -0.4802(4) 0.8202(3)
H1A H -0.4023 -0.5224 0.7825
C2A C -0.5685(6) -0.5271(5) 0.8720(3)
H2A H -0.5756 -0.5998 0.8687
C3A C -0.6600(5) -0.4668(5) 0.9272(3)
H3A H -0.7304 -0.4975 0.9612
C4A C -0.6476(4) -0.3583(5) 0.9328(3)
C5A C -0.7374(5) -0.2844(7) 0.9885(3)
H4A H -0.8099 -0.3097 1.0247
C6A C -0.7190(5) -0.1815(7) 0.9894(4)
H5A H -0.7793 -0.1361 1.0255
C7A C -0.6086(5) -0.1399(5) 0.9358(3)
C8A C -0.5860(6) -0.0296(5) 0.9305(4)
H6A H -0.6434 0.0201 0.9647
C9A C -0.4811(7) 0.0038(5) 0.8759(4)
H7A H -0.4659 0.0764 0.8729
C10A C -0.3955(5) -0.0692(4) 0.8241(3)
H8A H -0.3228 -0.0452 0.7872
C11A C -0.5203(4) -0.2076(4) 0.8808(2)
C12A C -0.5397(4) -0.3175(4) 0.8790(2)
N3A N -0.6351(4) -0.2324(3) 0.6310(2)
N4A N -0.6524(3) -0.0243(3) 0.6583(2)
C13A C -0.6241(5) -0.3350(4) 0.6118(3)
H9A H -0.5492 -0.3671 0.5750
C14A C -0.7278(7) -0.3942(5) 0.6482(4)
H10A H -0.7214 -0.4643 0.6341
C15A C -0.8357(6) -0.3496(5) 0.7032(4)
H11A H -0.9012 -0.3906 0.7280
C16A C -0.8487(5) -0.2434(5) 0.7227(3)
C17A C -0.9607(5) -0.1856(6) 0.7787(3)
H12A H -1.0288 -0.2230 0.8060
C18A C -0.9695(5) -0.0816(7) 0.7923(3)
H13A H -1.0435 -0.0479 0.8289
C19A C -0.8675(4) -0.0190(5) 0.7520(3)
C20A C -0.8713(5) 0.0918(5) 0.7614(3)
H14A H -0.9443 0.1322 0.7953
C21A C -0.7675(5) 0.1412(5) 0.7206(3)
H15A H -0.7689 0.2149 0.7274
C22A C -0.6587(4) 0.0815(4) 0.6684(3)
H16A H -0.5893 0.1170 0.6402
C23A C -0.7548(4) -0.0752(4) 0.6993(2)
C24A C -0.7452(4) -0.1873(4) 0.6846(2)
O1A O -0.1389(3) -0.4068(3) 0.8480(2)
H17A H -0.1480 -0.3833 0.8887
H18A H -0.0856 -0.4747 0.8613
O2A O -0.2314(3) -0.1617(3) 0.66826(18)
O3A O -0.3889(2) -0.0239(2) 0.55844(17)
O3A_2 O 0.6111(2) -0.0239(2) 0.55844(17)
O3_2 O -0.6111(2) 0.0239(2) 0.44156(17)
C25A C -0.2737(3) -0.0615(3) 0.5992(2)
C26A C -0.1803(4) 0.0179(3) 0.5648(2)
H19A H -0.2348 0.1026 0.5237
H20A H -0.1520 0.0276 0.6172
C27A C -0.0483(3) -0.0395(3) 0.5139(2)
H21A H 0.0037 -0.1263 0.5533
H22A H -0.0758 -0.0435 0.4587
O4A O -0.2453(3) 0.6106(3) 0.6739(2)
O4A_2 O -0.2453(3) -0.3894(3) 0.6739(2)
O5A O -0.3630(4) 0.7469(3) 0.5447(2)
O5A_2 O -0.3630(4) -0.2531(3) 0.5447(2)
C28A C -0.2688(5) 0.6470(4) 0.5892(3)
C29A C -0.1785(7) 0.5637(6) 0.5357(5)
H23A H -0.2143 0.6019 0.4730
H24A H -0.1899 0.4810 0.5636
C30A C -0.0457(12) 0.5451(11) 0.5310(8)
H25A H -0.0331 0.6273 0.5038
H26A H -0.0081 0.5043 0.5933
Cl1 Cl 0.6438(3) 0.27346(17) 0.67680(16)
O6 O 0.5957(11) 0.3908(8) 0.6576(11)
O8 O 0.678(2) 0.234(2) 0.7773(16)
O9 O 0.8066(15) 0.2366(13) 0.6417(10)
O12 O 0.5669(14) 0.2311(13) 0.6292(10)
Cl2 Cl 0.13546(11) 0.28478(9) -0.05412(8)
O14 O 0.0454(11) 0.3306(9) -0.1310(6)
O16 O 0.2775(10) 0.2654(9) -0.0904(8)
O17 O 0.1280(9) 0.1607(7) 0.0077(6)
O19 O 0.0669(6) 0.3647(4) -0.0014(3)
O7? O 0.739(3) 0.170(2) 0.7376(16)
O10? O 0.705(4) 0.329(3) 0.581(2)
O11? O 0.6009(12) 0.1867(11) 0.6697(8)
O13? O 0.0986(12) 0.3603(10) -0.1480(7)
O15? O 0.2825(7) 0.2576(7) -0.0432(6)
O18? O 0.1016(9) 0.1731(7) -0.0320(7)
loop_
_geom_bond_atom_site_label_1
_geom_bond_atom_site_label_2
_geom_bond_site_symmetry_1
_geom_bond_site_symmetry_2
Cu1 N1 1_555 1_555
Cu2 N3 1_555 1_555
N1 C1 1_555 1_555
N2 Cu1 1_555 1_555
C1 H1 1_555 1_555
C2 C1 1_555 1_555
H2 C2 1_555 1_555
C3 C2 1_555 1_555
H3 C3 1_555 1_555
C4 C3 1_555 1_555
C5 C4 1_555 1_555
H4 C5 1_555 1_555
C6 C5 1_555 1_555
H5 C6 1_555 1_555
C7 C6 1_555 1_555
C8 C7 1_555 1_555
H6 C8 1_555 1_555
C9 C8 1_555 1_555
H7 C9 1_555 1_555
C10 N2 1_555 1_555
H8 C10 1_555 1_555
C11 N2 1_555 1_555
C12 N1 1_555 1_555
N3 C13 1_555 1_555
N4 Cu2 1_555 1_555
C13 H9 1_555 1_555
C14 C13 1_555 1_555
H10 C14 1_555 1_555
C15 C14 1_555 1_555
H11 C15 1_555 1_555
C16 C15 1_555 1_555
C17 C16 1_555 1_555
H12 C17 1_555 1_555
C18 C17 1_555 1_555
H13 C18 1_555 1_555
C19 C18 1_555 1_555
C20 C19 1_555 1_555
H14 C20 1_555 1_555
C21 C20 1_555 1_555
H15 C21 1_555 1_555
C22 N4 1_555 1_555
H16 C22 1_555 1_555
C23 N4 1_555 1_555
C24 N3 1_555 1_555
O1 Cu1 1_555 1_555
H17 O1 1_555 1_555
H18 O1 1_555 1_555
O2 Cu1 1_555 1_555
O3 Cu2 1_555 1_555
C25 O2 1_555 1_555
C26 C25 1_555 1_555
H19 C26 1_555 1_555
H20 C26 1_555 1_555
C27 C26 1_555 1_555
H21 C27 1_555 1_555
H22 C27 1_555 1_555
O4 Cu1 1_555 1_555
O5 Cu2 1_555 1_555
C28 O4 1_555 1_555
C29 C28 1_555 1_555
H23 C29 1_555 1_555
H24 C29 1_555 1_555
Cl1 O6 1_555 1_555
O8 Cl1 1_555 1_555
O9 Cl1 1_555 1_555
O12 Cl1 1_555 1_555
Cl2 O14 1_555 1_555
O16 Cl2 1_555 1_555
O17 Cl2 1_555 1_555
O19 Cl2 1_555 1_555
C30 C29 1_555 1_555
H25 C30 1_555 1_555
H26 C30 1_555 1_555
Cu1A N1A 1_555 1_555
Cu1A_2 O4A 1_555 1_555
Cu2A N3A 1_555 1_555
Cu2A_2 O3 1_555 1_555
Cu2_2 O3A 1_555 1_555
Cu2A_3 O5A 1_555 1_555
N1A C1A 1_555 1_555
N2A Cu1A 1_555 1_555
C1A H1A 1_555 1_555
C2A C1A 1_555 1_555
H2A C2A 1_555 1_555
C3A C2A 1_555 1_555
H3A C3A 1_555 1_555
C4A C3A 1_555 1_555
C5A C4A 1_555 1_555
H4A C5A 1_555 1_555
C6A C5A 1_555 1_555
H5A C6A 1_555 1_555
C7A C6A 1_555 1_555
C8A C7A 1_555 1_555
H6A C8A 1_555 1_555
C9A C8A 1_555 1_555
H7A C9A 1_555 1_555
C10A N2A 1_555 1_555
H8A C10A 1_555 1_555
C11A N2A 1_555 1_555
C12A N1A 1_555 1_555
N3A C13A 1_555 1_555
N4A Cu2A 1_555 1_555
C13A H9A 1_555 1_555
C14A C13A 1_555 1_555
H10A C14A 1_555 1_555
C15A C14A 1_555 1_555
H11A C15A 1_555 1_555
C16A C15A 1_555 1_555
C17A C16A 1_555 1_555
H12A C17A 1_555 1_555
C18A C17A 1_555 1_555
H13A C18A 1_555 1_555
C19A C18A 1_555 1_555
C20A C19A 1_555 1_555
H14A C20A 1_555 1_555
C21A C20A 1_555 1_555
H15A C21A 1_555 1_555
C22A N4A 1_555 1_555
H16A C22A 1_555 1_555
C23A N4A 1_555 1_555
C24A N3A 1_555 1_555
O1A Cu1A 1_555 1_555
H17A O1A 1_555 1_555
H18A O1A 1_555 1_555
O2A Cu1A 1_555 1_555
O3A Cu2A 1_555 1_555
O3A_2 Cu2 1_555 1_555
O3_2 Cu2A 1_555 1_555
C25A O2A 1_555 1_555
C26A C25A 1_555 1_555
H19A C26A 1_555 1_555
H20A C26A 1_555 1_555
C27A C27 1_555 1_555
H21A C27A 1_555 1_555
H22A C27A 1_555 1_555
O4A C28A 1_555 1_555
O4A_2 Cu1A 1_555 1_555
O5A C28A 1_555 1_555
O5A_2 Cu2A 1_555 1_555
C28A C29A 1_555 1_555
C29A H23A 1_555 1_555
H24A C29A 1_555 1_555
C30A C30 1_555 1_555
H25A C30A 1_555 1_555
H26A C30A 1_555 1_555
C4 C12 1_555 1_555
C7 C11 1_555 1_555
C9 C10 1_555 1_555
C11 C12 1_555 1_555
C16 C24 1_555 1_555
C19 C23 1_555 1_555
C21 C22 1_555 1_555
C23 C24 1_555 1_555
O3 C25 1_555 1_555
O5 C28 1_555 1_555
Cu2A_2 O3A_2 1_555 1_555
Cu2_2 O3_2 1_555 1_555
C4A C12A 1_555 1_555
C7A C11A 1_555 1_555
C9A C10A 1_555 1_555
C11A C12A 1_555 1_555
C16A C24A 1_555 1_555
C19A C23A 1_555 1_555
C21A C22A 1_555 1_555
C23A C24A 1_555 1_555
O3A C25A 1_555 1_555
C26A C27A 1_555 1_555
C29A C30A 1_555 1_555

#END
