
#######################################################################
#
#                 Cambridge Crystallographic Data Centre
#                                CCDC 
#
#######################################################################
#
# If this CIF has been generated from an entry in the Cambridge 
# Structural Database, then it will include bibliographic, chemical, 
# crystal, experimental, refinement or atomic coordinate data resulting 
# from the CCDC's data processing and validation procedures.
#
#######################################################################

data_BOHVID
_symmetry_cell_setting           monoclinic
_symmetry_space_group_name_H-M   'P 21'
_symmetry_Int_Tables_number      4
_space_group_name_Hall           'P 2yb'
loop_
_symmetry_equiv_pos_site_id
_symmetry_equiv_pos_as_xyz
1 x,y,z
2 -x,1/2+y,-z
_cell_length_a                   8.196(4)
_cell_length_b                   7.275(3)
_cell_length_c                   7.740(4)
_cell_angle_alpha                90
_cell_angle_beta                 103.37(4)
_cell_angle_gamma                90
_cell_volume                     448.996
loop_
_atom_site_label
_atom_site_type_symbol
_atom_site_fract_x
_atom_site_fract_y
_atom_site_fract_z
Cd1 Cd 0.00237 0.00000 -0.00388
Cl1 Cl 0.21250 -0.24940 -0.05020
Cl2 Cl 0.23150 0.24890 0.11730
O1 O -0.02730 0.10250 -0.29730
O2 O -0.00810 -0.09170 0.27800
O3 O 0.58830 0.15080 -0.37280
N1 N 0.27050 0.41070 -0.41530
C1 C 0.03890 0.25110 -0.32920
C2 C 0.16450 0.24130 -0.44840
C3 C 0.29170 0.08420 -0.40600
C4 C 0.45300 0.16450 -0.28560
C5 C 0.41190 0.36590 -0.25900
H1 H 0.08800 0.22200 -0.58100
H2 H 0.31700 0.02900 -0.52700
H3 H 0.24400 -0.02700 -0.33800
H4 H 0.49200 0.09200 -0.16000
H5 H 0.37400 0.38300 -0.13600
H6 H 0.51900 0.45200 -0.25700
H7 H 0.19900 0.52500 -0.38600
H8 H 0.31800 0.44200 -0.53000
Cl1A Cl -0.21250 0.25060 0.05020
Cl2A Cl -0.23150 -0.25110 -0.11730
Cd1A Cd -0.00237 -0.50000 0.00388
Cd1A_2 Cd -0.00237 0.50000 0.00388
C1A C -0.03890 -0.24890 0.32920
O2A O 0.00810 0.40830 -0.27800
Cl1A_2 Cl -0.21250 -0.74940 0.05020
Cl2_2 Cl 0.23150 -0.75110 0.11730
O1A O 0.02730 -0.39750 0.29730
O2A_2 O 0.00810 -0.59170 -0.27800
C2A C -0.16450 -0.25870 0.44840
N1A N -0.27050 -0.08930 0.41530
C3A C -0.29170 -0.41580 0.40600
H1A H -0.08800 -0.27800 0.58100
C5A C -0.41190 -0.13410 0.25900
H7A H -0.19900 0.02500 0.38600
H8A H -0.31800 -0.05800 0.53000
C4A C -0.45300 -0.33550 0.28560
H2A H -0.31700 -0.47100 0.52700
H3A H -0.24400 -0.52700 0.33800
H5A H -0.37400 -0.11700 0.13600
H6A H -0.51900 -0.04800 0.25700
O3A O -0.58830 -0.34920 0.37280
H4A H -0.49200 -0.40800 0.16000
loop_
_geom_bond_atom_site_label_1
_geom_bond_atom_site_label_2
_geom_bond_site_symmetry_1
_geom_bond_site_symmetry_2
Cd1 Cl1 1_555 1_555
Cl1 Cd1A 1_555 1_555
Cl2 Cd1 1_555 1_555
O1 Cd1 1_555 1_555
O2 Cd1 1_555 1_555
O3 C4 1_555 1_555
N1 C2 1_555 1_555
C1 O1 1_555 1_555
C2 C1 1_555 1_555
C3 C2 1_555 1_555
C4 C3 1_555 1_555
C5 N1 1_555 1_555
H1 C2 1_555 1_555
H2 C3 1_555 1_555
H3 C3 1_555 1_555
H4 C4 1_555 1_555
H5 C5 1_555 1_555
H6 C5 1_555 1_555
H7 N1 1_555 1_555
H8 N1 1_555 1_555
Cl1A Cd1 1_555 1_555
Cl2A Cd1 1_555 1_555
Cd1A Cl2A 1_555 1_555
Cd1A_2 Cl2 1_555 1_555
C1A O2 1_555 1_555
O2A C1 1_555 1_555
Cl1A_2 Cd1A 1_555 1_555
Cl2_2 Cd1A 1_555 1_555
O1A Cd1A 1_555 1_555
O2A_2 Cd1A 1_555 1_555
C2A C1A 1_555 1_555
N1A C2A 1_555 1_555
C3A C2A 1_555 1_555
H1A C2A 1_555 1_555
C5A N1A 1_555 1_555
H7A N1A 1_555 1_555
H8A N1A 1_555 1_555
C4A C3A 1_555 1_555
H2A C3A 1_555 1_555
H3A C3A 1_555 1_555
H5A C5A 1_555 1_555
H6A C5A 1_555 1_555
O3A C4A 1_555 1_555
H4A C4A 1_555 1_555
C4 C5 1_555 1_555
Cl1A Cd1A_2 1_555 1_555
Cd1A_2 O2A 1_555 1_555
C1A O1A 1_555 1_555
C5A C4A 1_555 1_555

#END
