
#######################################################################
#
#                 Cambridge Crystallographic Data Centre
#                                CCDC 
#
#######################################################################
#
# If this CIF has been generated from an entry in the Cambridge 
# Structural Database, then it will include bibliographic, chemical, 
# crystal, experimental, refinement or atomic coordinate data resulting 
# from the CCDC's data processing and validation procedures.
#
#######################################################################

data_BOHVEA
_symmetry_cell_setting           monoclinic
_symmetry_space_group_name_H-M   'P 21/c'
_symmetry_Int_Tables_number      14
_space_group_name_Hall           '-P 2ybc'
loop_
_symmetry_equiv_pos_site_id
_symmetry_equiv_pos_as_xyz
1 x,y,z
2 -x,1/2+y,1/2-z
3 -x,-y,-z
4 x,1/2-y,1/2+z
_cell_length_a                   11.604(9)
_cell_length_b                   9.302(7)
_cell_length_c                   9.161(7)
_cell_angle_alpha                90
_cell_angle_beta                 98.626(13)
_cell_angle_gamma                90
_cell_volume                     977.657
loop_
_atom_site_label
_atom_site_type_symbol
_atom_site_fract_x
_atom_site_fract_y
_atom_site_fract_z
Co1 Co 0.84370(4) 0.58345(5) 0.57507(5)
C1 C 0.8809(3) 0.8064(3) 0.7966(4)
C2 C 0.7759(3) 0.7269(4) 0.8291(4)
C3 C 0.7726(4) 0.2872(4) 0.4692(5)
H1 H 0.8491 0.2839 0.4502
C4 C 0.7049(4) 0.1639(5) 0.4418(6)
H2 H 0.7386 0.0801 0.4124
C5 C 0.5900(4) 0.1640(4) 0.4574(5)
C6 C 0.5541(4) 0.2874(4) 0.5220(6)
H3 H 0.4796 0.2922 0.5476
C7 C 0.6284(4) 0.4037(5) 0.5487(5)
H4 H 0.6010 0.4858 0.5900
C8 C 0.5117(4) 0.0343(5) 0.4319(5)
H5 H 0.4382 0.0632 0.3745
H6 H 0.5475 -0.0355 0.3741
N1 N 0.9376(3) 0.7782(3) 0.6838(3)
N2 N 1.0264(3) 0.8687(3) 0.6976(3)
N3 N 1.0218(2) 0.9495(3) 0.8150(3)
N4 N 0.9306(2) 0.9095(3) 0.8814(3)
N5 N 0.7366(3) 0.4045(3) 0.5185(4)
O1 O 0.7360(2) 0.7677(3) 0.9406(3)
O2 O 0.7444(2) 0.6258(3) 0.7441(3)
Co1A Co 1.15630(4) 0.08345(5) 0.92493(5)
Co1A_2 Co 1.15630(4) 1.08345(5) 0.92493(5)
Co1C Co 0.84370(4) 0.91655(5) 1.07507(5)
Co1B Co 0.15630(4) -0.58345(5) 0.42493(5)
Co1B_2 Co 1.15630(4) 0.41655(5) 0.42493(5)
C1A C 1.1191(3) 0.3064(3) 0.7034(4)
C2A C 1.2241(3) 0.2269(4) 0.6709(4)
C3B C 0.2274(4) -0.2872(4) 0.5308(5)
H1B H 0.1509 -0.2839 0.5498
C4B C 0.2951(4) -0.1639(5) 0.5582(6)
H2B H 0.2614 -0.0801 0.5876
C5B C 0.4100(4) -0.1640(4) 0.5426(5)
C6B C 0.4459(4) -0.2874(4) 0.4780(6)
H3B H 0.5204 -0.2922 0.4524
C7B C 0.3716(4) -0.4037(5) 0.4513(5)
H4B H 0.3990 -0.4858 0.4100
C8B C 0.4883(4) -0.0343(5) 0.5681(5)
H5B H 0.5618 -0.0632 0.6255
H6B H 0.4525 0.0355 0.6259
N1A N 1.0624(3) 0.2782(3) 0.8162(3)
N2A N 0.9736(3) 0.3687(3) 0.8024(3)
N3A N 0.9782(2) 0.4495(3) 0.6850(3)
N3_2 N 1.0218(2) -0.0505(3) 0.8150(3)
N4A N 1.0694(2) 0.4095(3) 0.6186(3)
N4C N 0.9306(2) 0.5905(3) 0.3814(3)
N4B N 1.0694(2) 0.0905(3) 1.1186(3)
N5B N 0.2634(3) -0.4045(3) 0.4815(4)
N5A N 1.2634(3) -0.0955(3) 0.9815(4)
O1A O 1.2640(2) 0.2677(3) 0.5594(3)
O1C O 0.7360(2) 0.7323(3) 0.4406(3)
O1B O 1.2640(2) 0.2323(3) 1.0594(3)
O2A O 1.2556(2) 0.1258(3) 0.7559(3)
loop_
_geom_bond_atom_site_label_1
_geom_bond_atom_site_label_2
_geom_bond_site_symmetry_1
_geom_bond_site_symmetry_2
Co1 N1 1_555 1_555
C1 C2 1_555 1_555
C2 O1 1_555 1_555
C3 H1 1_555 1_555
C4 C3 1_555 1_555
H2 C4 1_555 1_555
C5 C4 1_555 1_555
C6 C5 1_555 1_555
H3 C6 1_555 1_555
C7 C6 1_555 1_555
H4 C7 1_555 1_555
C8 C5 1_555 1_555
H5 C8 1_555 1_555
H6 C8 1_555 1_555
N1 C1 1_555 1_555
N2 N1 1_555 1_555
N3 N2 1_555 1_555
N4 C1 1_555 1_555
N5 Co1 1_555 1_555
O1 Co1C 1_555 1_555
O2 Co1 1_555 1_555
Co1A N1A 1_555 1_555
Co1A_2 N3 1_555 1_555
Co1C N4 1_555 1_555
Co1B N5B 1_555 1_555
Co1B_2 N4A 1_555 1_555
C1A C2A 1_555 1_555
C2A O1A 1_555 1_555
C3B H1B 1_555 1_555
C4B C3B 1_555 1_555
H2B C4B 1_555 1_555
C5B C4B 1_555 1_555
C6B C5B 1_555 1_555
H3B C6B 1_555 1_555
C7B C6B 1_555 1_555
H4B C7B 1_555 1_555
C8B C8 1_555 1_555
H5B C8B 1_555 1_555
H6B C8B 1_555 1_555
N1A C1A 1_555 1_555
N2A N1A 1_555 1_555
N3A Co1 1_555 1_555
N3_2 Co1A 1_555 1_555
N4A C1A 1_555 1_555
N4C Co1 1_555 1_555
N4B Co1A 1_555 1_555
N5B C3B 1_555 1_555
N5A Co1A 1_555 1_555
O1A Co1B_2 1_555 1_555
O1C Co1 1_555 1_555
O1B Co1A 1_555 1_555
O2A Co1A 1_555 1_555
C2 O2 1_555 1_555
C3 N5 1_555 1_555
C7 N5 1_555 1_555
N3 N4 1_555 1_555
C2A O2A 1_555 1_555
C5B C8B 1_555 1_555
C7B N5B 1_555 1_555
N2A N3A 1_555 1_555
N3A N4A 1_555 1_555

#END
