
#######################################################################
#
#                 Cambridge Crystallographic Data Centre
#                                CCDC 
#
#######################################################################
#
# If this CIF has been generated from an entry in the Cambridge 
# Structural Database, then it will include bibliographic, chemical, 
# crystal, experimental, refinement or atomic coordinate data resulting 
# from the CCDC's data processing and validation procedures.
#
#######################################################################

data_BOHVIE
_symmetry_cell_setting           monoclinic
_symmetry_space_group_name_H-M   'P 21/c'
_symmetry_Int_Tables_number      14
_space_group_name_Hall           '-P 2ybc'
loop_
_symmetry_equiv_pos_site_id
_symmetry_equiv_pos_as_xyz
1 x,y,z
2 -x,1/2+y,1/2-z
3 -x,-y,-z
4 x,1/2-y,1/2+z
_cell_length_a                   11.833(2)
_cell_length_b                   9.7295(17)
_cell_length_c                   9.2017(16)
_cell_angle_alpha                90
_cell_angle_beta                 101.990(2)
_cell_angle_gamma                90
_cell_volume                     1036.27
loop_
_atom_site_label
_atom_site_type_symbol
_atom_site_fract_x
_atom_site_fract_y
_atom_site_fract_z
Mn1 Mn 0.16307(5) 0.42597(7) 0.93055(9)
C1 C 0.1219(3) 0.1969(5) 0.7067(6)
C2 C 0.2283(3) 0.2690(5) 0.6822(6)
C3 C 0.2376(4) 0.7226(6) 1.0398(8)
H1 H 0.1645 0.7228 1.0620
C4 C 0.3032(5) 0.8480(8) 1.0627(9)
H2 H 0.2706 0.9286 1.0896
C5 C 0.4159(4) 0.8453(6) 1.0437(8)
C6 C 0.4517(4) 0.7204(6) 0.9877(8)
H3 H 0.5252 0.7155 0.9665
C7 C 0.3811(4) 0.6051(6) 0.9633(8)
H4 H 0.4086 0.5248 0.9280
C8 C 0.4915(5) 0.9686(7) 1.0703(8)
H5 H 0.4572 1.0359 1.1258
H6 H 0.5660 0.9427 1.1300
N1 N 0.0659(3) 0.2334(4) 0.8142(5)
N2 N -0.0245(3) 0.1464(5) 0.7954(5)
N3 N -0.0201(3) 0.0625(4) 0.6823(5)
N4 N 0.0723(3) 0.0953(4) 0.6276(5)
N5 N 0.2739(3) 0.6075(5) 0.9897(6)
O1 O 0.2721(2) 0.2234(4) 0.5811(4)
O2 O 0.2609(2) 0.3693(4) 0.7632(4)
Mn1A Mn -0.16307(5) 0.92597(7) 0.56945(9)
Mn1A_2 Mn -0.16307(5) -0.07403(7) 0.56945(9)
Mn1C Mn 0.16307(5) 0.07403(7) 0.43055(9)
Mn1B Mn 0.83693(5) 1.57403(7) 1.06945(9)
Mn1B_2 Mn -0.16307(5) 0.57403(7) 1.06945(9)
C1A C -0.1219(3) 0.6969(5) 0.7933(6)
C2A C -0.2283(3) 0.7690(5) 0.8178(6)
C3B C 0.7624(4) 1.2774(6) 0.9602(8)
H1B H 0.8355 1.2772 0.9380
C4B C 0.6968(5) 1.1520(8) 0.9373(9)
H2B H 0.7294 1.0714 0.9104
C5B C 0.5841(4) 1.1547(6) 0.9563(8)
C6B C 0.5483(4) 1.2796(6) 1.0123(8)
H3B H 0.4748 1.2845 1.0335
C7B C 0.6189(4) 1.3949(6) 1.0367(8)
H4B H 0.5914 1.4752 1.0720
C8B C 0.5085(5) 1.0314(7) 0.9297(8)
H5B H 0.5428 0.9641 0.8742
H6B H 0.4340 1.0573 0.8700
N1A N -0.0659(3) 0.7334(4) 0.6858(5)
N2A N 0.0245(3) 0.6464(5) 0.7046(5)
N3A N 0.0201(3) 0.5625(4) 0.8177(5)
N3_2 N -0.0201(3) 1.0625(4) 0.6823(5)
N4A N -0.0723(3) 0.5953(4) 0.8724(5)
N4C N 0.0723(3) 0.4047(4) 1.1276(5)
N4B N -0.0723(3) 0.9047(4) 0.3724(5)
N5B N 0.7261(3) 1.3925(5) 1.0103(6)
N5A N -0.2739(3) 1.1075(5) 0.5103(6)
O1A O -0.2721(2) 0.7234(4) 0.9189(4)
O1C O 0.2721(2) 0.2766(4) 1.0811(4)
O1B O -0.2721(2) 0.7766(4) 0.4189(4)
O2A O -0.2609(2) 0.8693(4) 0.7368(4)
loop_
_geom_bond_atom_site_label_1
_geom_bond_atom_site_label_2
_geom_bond_site_symmetry_1
_geom_bond_site_symmetry_2
Mn1 N1 1_555 1_555
C1 C2 1_555 1_555
C2 O1 1_555 1_555
C3 H1 1_555 1_555
C4 C3 1_555 1_555
H2 C4 1_555 1_555
C5 C4 1_555 1_555
C6 C5 1_555 1_555
H3 C6 1_555 1_555
C7 C6 1_555 1_555
H4 C7 1_555 1_555
C8 C5 1_555 1_555
H5 C8 1_555 1_555
H6 C8 1_555 1_555
N1 C1 1_555 1_555
N2 N1 1_555 1_555
N3 N2 1_555 1_555
N4 C1 1_555 1_555
N5 Mn1 1_555 1_555
O1 Mn1C 1_555 1_555
O2 Mn1 1_555 1_555
Mn1A N1A 1_555 1_555
Mn1A_2 N3 1_555 1_555
Mn1C N4 1_555 1_555
Mn1B N5B 1_555 1_555
Mn1B_2 N4A 1_555 1_555
C1A C2A 1_555 1_555
C2A O1A 1_555 1_555
C3B H1B 1_555 1_555
C4B C3B 1_555 1_555
H2B C4B 1_555 1_555
C5B C4B 1_555 1_555
C6B C5B 1_555 1_555
H3B C6B 1_555 1_555
C7B C6B 1_555 1_555
H4B C7B 1_555 1_555
C8B C8 1_555 1_555
H5B C8B 1_555 1_555
H6B C8B 1_555 1_555
N1A C1A 1_555 1_555
N2A N1A 1_555 1_555
N3A Mn1 1_555 1_555
N3_2 Mn1A 1_555 1_555
N4A C1A 1_555 1_555
N4C Mn1 1_555 1_555
N4B Mn1A 1_555 1_555
N5B C3B 1_555 1_555
N5A Mn1A 1_555 1_555
O1A Mn1B_2 1_555 1_555
O1C Mn1 1_555 1_555
O1B Mn1A 1_555 1_555
O2A Mn1A 1_555 1_555
C2 O2 1_555 1_555
C3 N5 1_555 1_555
C7 N5 1_555 1_555
N3 N4 1_555 1_555
C2A O2A 1_555 1_555
C5B C8B 1_555 1_555
C7B N5B 1_555 1_555
N2A N3A 1_555 1_555
N3A N4A 1_555 1_555

#END
