
#######################################################################
#
#                 Cambridge Crystallographic Data Centre
#                                CCDC 
#
#######################################################################
#
# If this CIF has been generated from an entry in the Cambridge 
# Structural Database, then it will include bibliographic, chemical, 
# crystal, experimental, refinement or atomic coordinate data resulting 
# from the CCDC's data processing and validation procedures.
#
#######################################################################

data_BOHYUT
_symmetry_cell_setting           triclinic
_symmetry_space_group_name_H-M   'P -1'
_symmetry_Int_Tables_number      2
_space_group_name_Hall           '-P 1'
loop_
_symmetry_equiv_pos_site_id
_symmetry_equiv_pos_as_xyz
1 x,y,z
2 -x,-y,-z
_cell_length_a                   6.5262(15)
_cell_length_b                   11.608(3)
_cell_length_c                   12.552(3)
_cell_angle_alpha                70.908(4)
_cell_angle_beta                 83.942(5)
_cell_angle_gamma                81.274(4)
_cell_volume                     886.593
loop_
_atom_site_label
_atom_site_type_symbol
_atom_site_fract_x
_atom_site_fract_y
_atom_site_fract_z
La1 La -0.21615(12) 0.46301(7) 0.90402(7)
C1 C -0.344(2) 1.0607(12) 0.7976(12)
C2 C -0.554(2) 1.0713(13) 0.8237(14)
H1 H -0.6061 1.0172 0.8898
C3 C -0.692(2) 1.1622(13) 0.7525(13)
H2 H -0.8334 1.1678 0.7722
C4 C -0.616(2) 1.2437(13) 0.6523(12)
C5 C -0.403(2) 1.2300(14) 0.6281(15)
H3 H -0.3474 1.2825 0.5619
C6 C -0.274(2) 1.1426(14) 0.6980(14)
H4 H -0.1319 1.1374 0.6785
C7 C -0.192(2) 0.9613(13) 0.8756(13)
H5 H -0.0515 0.9689 0.8430
H6 H -0.1999 0.9746 0.9484
C8 C -0.241(2) 0.8345(12) 0.8922(15)
H7 H -0.3788 0.8260 0.9291
H8 H -0.2431 0.8238 0.8189
C9 C -0.091(2) 0.7361(12) 0.9606(12)
C10 C -0.759(2) 1.3418(13) 0.5744(13)
H9 H -0.8927 1.3128 0.5793
H10 H -0.7017 1.3575 0.4972
C11 C -0.790(2) 1.4620(13) 0.6038(13)
H11 H -0.6564 1.4814 0.6149
H12 H -0.8498 1.5282 0.5409
C12 C -0.930(2) 1.4538(12) 0.7081(13)
C13 C -0.151(2) 0.0764(15) 1.4301(12)
C14 C 0.025(3) 0.1196(14) 1.4435(14)
H13 H 0.0437 0.2010 1.4056
C15 C -0.176(2) -0.0429(14) 1.4866(13)
H14 H -0.2949 -0.0735 1.4784
C16 C -0.333(3) 0.156(2) 1.3617(14)
H15 H -0.4274 0.1013 1.3561
H16 H -0.4067 0.2073 1.4039
C17 C -0.281(2) 0.2332(14) 1.2493(13)
H17 H -0.2412 0.1815 1.2016
H18 H -0.1599 0.2714 1.2521
C18 C -0.450(2) 0.3345(12) 1.1930(11)
O1 O -0.0900(13) 0.6257(8) 0.9594(8)
O2 O 0.0322(16) 0.7562(8) 1.0201(9)
O3 O -0.8699(15) 1.4868(9) 0.7861(9)
O4 O -1.1037(15) 1.4209(10) 0.7153(9)
O5 O -0.4215(14) 0.3977(8) 1.0894(8)
O6 O -0.6156(15) 0.3508(9) 1.2477(8)
O7 O -0.4927(14) 0.3577(9) 0.8584(9)
La1A La 0.21615(12) 0.53699(7) 1.09598(7)
La1_2 La -1.21615(12) 1.46301(7) 0.90402(7)
La1A_2 La -0.78385(12) 0.53699(7) 1.09598(7)
La1_3 La 0.78385(12) -0.53699(7) 1.90402(7)
La1A_3 La 0.21615(12) -0.46301(7) 2.09598(7)
La1A_4 La 1.21615(12) -0.46301(7) 1.09598(7)
C1A C 0.344(2) -0.0607(12) 1.2024(12)
C2A C 0.554(2) -0.0713(13) 1.1763(14)
H1A H 0.6061 -0.0172 1.1102
C3A C 0.692(2) -0.1622(13) 1.2475(13)
H2A H 0.8334 -0.1678 1.2278
C4A C 0.616(2) -0.2437(13) 1.3477(12)
C5A C 0.403(2) -0.2300(14) 1.3719(15)
H3A H 0.3474 -0.2825 1.4381
C6A C 0.274(2) -0.1426(14) 1.3020(14)
H4A H 0.1319 -0.1374 1.3215
C7A C 0.192(2) 0.0387(13) 1.1244(13)
H5A H 0.0515 0.0311 1.1570
H6A H 0.1999 0.0254 1.0516
C8A C 0.241(2) 0.1655(12) 1.1078(15)
H7A H 0.3788 0.1740 1.0709
H8A H 0.2431 0.1762 1.1811
C9A C 0.091(2) 0.2639(12) 1.0394(12)
C10A C 0.759(2) -0.3418(13) 1.4256(13)
H9A H 0.8927 -0.3128 1.4207
H10A H 0.7017 -0.3575 1.5028
C11A C 0.790(2) -0.4620(13) 1.3962(13)
H11A H 0.6564 -0.4814 1.3851
H12A H 0.8498 -0.5282 1.4591
C12A C 0.930(2) -0.4538(12) 1.2919(13)
C13A C 0.151(2) -0.0764(15) 1.5699(12)
C14A C -0.025(3) -0.1196(14) 1.5565(14)
H13A H -0.0437 -0.2010 1.5944
C15A C 0.176(2) 0.0429(14) 1.5134(13)
H14A H 0.2949 0.0735 1.5216
C16A C 0.333(3) -0.156(2) 1.6383(14)
H15A H 0.4274 -0.1013 1.6439
H16A H 0.4067 -0.2073 1.5961
C17A C 0.281(2) -0.2332(14) 1.7507(13)
H17A H 0.2412 -0.1815 1.7984
H18A H 0.1599 -0.2714 1.7479
C18A C 0.450(2) -0.3345(12) 1.8070(11)
O1A O 0.0900(13) 0.3743(8) 1.0406(8)
O2A O -0.0322(16) 0.2438(8) 0.9799(9)
O3A O 0.8699(15) -0.4868(9) 1.2139(9)
O3_2 O 0.1301(15) 0.4868(9) 0.7861(9)
O3A_2 O -0.1301(15) 0.5132(9) 1.2139(9)
O4A O 1.1037(15) -0.4209(10) 1.2847(9)
O4_2 O -0.1037(15) 0.4209(10) 0.7153(9)
O4A_2 O 0.1037(15) 0.5791(10) 1.2847(9)
O5A O 0.4215(14) -0.3977(8) 1.9106(8)
O5A_2 O -0.5785(14) 0.6023(8) 0.9106(8)
O5A_3 O 0.4215(14) 0.6023(8) 0.9106(8)
O5_2 O 0.5785(14) 0.3977(8) 1.0894(8)
O6A O 0.6156(15) -0.3508(9) 1.7523(8)
O6A_2 O -0.3844(15) 0.6492(9) 0.7523(8)
O6_2 O 0.3844(15) 0.3508(9) 1.2477(8)
O7A O 0.4927(14) 0.6423(9) 1.1416(9)
loop_
_geom_bond_atom_site_label_1
_geom_bond_atom_site_label_2
_geom_bond_site_symmetry_1
_geom_bond_site_symmetry_2
La1 O1 1_555 1_555
C1 C2 1_555 1_555
C2 H1 1_555 1_555
C3 C2 1_555 1_555
H2 C3 1_555 1_555
C4 C3 1_555 1_555
C5 C4 1_555 1_555
H3 C5 1_555 1_555
C6 C1 1_555 1_555
H4 C6 1_555 1_555
C7 C1 1_555 1_555
H5 C7 1_555 1_555
H6 C7 1_555 1_555
C8 C7 1_555 1_555
H7 C8 1_555 1_555
H8 C8 1_555 1_555
C9 C8 1_555 1_555
C10 C4 1_555 1_555
H9 C10 1_555 1_555
H10 C10 1_555 1_555
C11 C10 1_555 1_555
H11 C11 1_555 1_555
H12 C11 1_555 1_555
C12 C11 1_555 1_555
C13 C14 1_555 1_555
C14 H13 1_555 1_555
C15 C13 1_555 1_555
H14 C15 1_555 1_555
C16 C13 1_555 1_555
H15 C16 1_555 1_555
H16 C16 1_555 1_555
C17 C16 1_555 1_555
H17 C17 1_555 1_555
H18 C17 1_555 1_555
C18 C17 1_555 1_555
O1 C9 1_555 1_555
O2 C9 1_555 1_555
O3 C12 1_555 1_555
O4 C12 1_555 1_555
O5 La1 1_555 1_555
O6 C18 1_555 1_555
O7 La1 1_555 1_555
La1A O1 1_555 1_555
La1_2 O3 1_555 1_555
La1A_2 O5 1_555 1_555
La1_3 O5A 1_555 1_555
La1A_3 O5A 1_555 1_555
La1A_4 O3A 1_555 1_555
C1A C2A 1_555 1_555
C2A H1A 1_555 1_555
C3A C2A 1_555 1_555
H2A C3A 1_555 1_555
C4A C3A 1_555 1_555
C5A C4A 1_555 1_555
H3A C5A 1_555 1_555
C6A C1A 1_555 1_555
H4A C6A 1_555 1_555
C7A C1A 1_555 1_555
H5A C7A 1_555 1_555
H6A C7A 1_555 1_555
C8A C7A 1_555 1_555
H7A C8A 1_555 1_555
H8A C8A 1_555 1_555
C9A C8A 1_555 1_555
C10A C4A 1_555 1_555
H9A C10A 1_555 1_555
H10A C10A 1_555 1_555
C11A C10A 1_555 1_555
H11A C11A 1_555 1_555
H12A C11A 1_555 1_555
C12A C11A 1_555 1_555
C13A C14A 1_555 1_555
C14A C15 1_555 1_555
H13A C14A 1_555 1_555
C15A C14 1_555 1_555
H14A C15A 1_555 1_555
C16A C13A 1_555 1_555
H15A C16A 1_555 1_555
H16A C16A 1_555 1_555
C17A C16A 1_555 1_555
H17A C17A 1_555 1_555
H18A C17A 1_555 1_555
C18A C17A 1_555 1_555
O1A La1 1_555 1_555
O2A La1 1_555 1_555
O3A C12A 1_555 1_555
O3_2 La1 1_555 1_555
O3A_2 La1A 1_555 1_555
O4A La1A_4 1_555 1_555
O4_2 La1 1_555 1_555
O4A_2 La1A 1_555 1_555
O5A C18A 1_555 1_555
O5A_2 La1 1_555 1_555
O5A_3 La1A 1_555 1_555
O5_2 La1A 1_555 1_555
O6A La1_3 1_555 1_555
O6A_2 La1 1_555 1_555
O6_2 La1A 1_555 1_555
O7A La1A 1_555 1_555
C5 C6 1_555 1_555
C18 O5 1_555 1_555
O2 La1A 1_555 1_555
O4 La1_2 1_555 1_555
O6 La1A_2 1_555 1_555
La1A O1A 1_555 1_555
La1A_2 O5A_2 1_555 1_555
C5A C6A 1_555 1_555
C9A O1A 1_555 1_555
C9A O2A 1_555 1_555
C12A O4A 1_555 1_555
C13A C15A 1_555 1_555
C18A O6A 1_555 1_555

#END
