
#######################################################################
#
#                 Cambridge Crystallographic Data Centre
#                                CCDC 
#
#######################################################################
#
# If this CIF has been generated from an entry in the Cambridge 
# Structural Database, then it will include bibliographic, chemical, 
# crystal, experimental, refinement or atomic coordinate data resulting 
# from the CCDC's data processing and validation procedures.
#
#######################################################################

data_BOHYCU
_symmetry_cell_setting           orthorhombic
_symmetry_space_group_name_H-M   'P b c a'
_symmetry_Int_Tables_number      61
_space_group_name_Hall           '-P 2ac 2ab'
loop_
_symmetry_equiv_pos_site_id
_symmetry_equiv_pos_as_xyz
1 x,y,z
2 1/2-x,1/2+y,z
3 x,1/2-y,1/2+z
4 1/2-x,-y,1/2+z
5 -x,-y,-z
6 1/2+x,1/2-y,-z
7 -x,1/2+y,1/2-z
8 1/2+x,y,1/2-z
_cell_length_a                   9.299(2)
_cell_length_b                   16.165(3)
_cell_length_c                   28.656(6)
_cell_angle_alpha                90
_cell_angle_beta                 90
_cell_angle_gamma                90
_cell_volume                     4307.52
loop_
_atom_site_label
_atom_site_type_symbol
_atom_site_fract_x
_atom_site_fract_y
_atom_site_fract_z
Cl1 Cl -0.00860 0.06450 0.09300
Cl2 Cl 0.31410 0.05320 -0.01610
Cl3 Cl -0.03030 -0.13380 0.03030
Cl4 Cl 0.37430 -0.16870 -0.02300
Cl5 Cl 0.36100 -0.08300 0.10380
Cu2 Cu 0.40470 -0.05440 0.02750
Cu3 Cu 0.15140 -0.03490 0.07750
Cu4 Cu 0.13450 -0.04500 -0.02290
Cu4D Cu -0.13450 0.04500 0.02290
Cu2D Cu 0.59530 0.05440 -0.02750
Cl2D Cl 0.68590 -0.05320 0.01610
Cl1D Cl 0.00860 -0.06450 -0.09300
Cu1 Cu 0.07020 0.22750 0.10650
C1 C 0.33500 0.17380 0.13210
C2 C -0.39720 0.37520 0.15780
C3 C -0.48570 0.41360 0.19250
C4 C -0.45920 0.40130 0.23940
C5 C -0.34580 0.35160 0.25280
C6 C -0.25620 0.31690 0.22110
C7 C 0.45230 0.14110 0.16070
C8 C 0.56590 0.09590 0.14090
C9 C 0.67630 0.06620 0.17100
C10 C 0.66920 0.08260 0.21990
C11 C 0.55480 0.12600 0.23730
C12 C 0.44620 0.15620 0.20980
C13 C -0.17910 0.28980 0.13890
C14 C -0.28150 0.32730 0.17320
H1 H 0.57000 0.08400 0.10400
H2 H -0.16300 0.28300 0.23300
H3 H 0.25600 0.26800 0.04500
H4 H 0.19800 0.17200 0.03400
H5 H 0.44000 0.16100 0.07200
H6 H -0.05300 0.31000 0.04200
H7 H -0.12800 0.21500 0.04500
H8 H -0.29000 0.32400 0.08300
H9 H 0.76300 0.03200 0.15600
H10 H 0.75000 0.06200 0.24400
H11 H 0.55300 0.13600 0.27500
H12 H 0.36100 0.19000 0.22600
H13 H -0.41600 0.38300 0.12100
H14 H -0.57400 0.45200 0.18400
H15 H -0.52500 0.43000 0.26500
H16 H -0.32700 0.33800 0.28900
N1 N 0.22910 0.21240 0.05980
N2 N 0.34860 0.17950 0.08570
N3 N -0.08920 0.26470 0.06410
N4 N -0.20020 0.29680 0.09370
O1 O 0.21840 0.19600 0.15110
O2 O -0.06760 0.25650 0.15420
loop_
_geom_bond_atom_site_label_1
_geom_bond_atom_site_label_2
_geom_bond_site_symmetry_1
_geom_bond_site_symmetry_2
Cl1 Cu3 1_555 1_555
Cl2 Cu2 1_555 1_555
Cl3 Cu3 1_555 1_555
Cl4 Cu2 1_555 1_555
Cl5 Cu2 1_555 1_555
Cu1 N1 1_555 1_555
Cu2 Cl2D 1_555 1_555
Cu3 Cl5 1_555 1_555
Cu4 Cl2 1_555 1_555
C1 C7 1_555 1_555
C2 C3 1_555 1_555
C3 C4 1_555 1_555
C4 C5 1_555 1_555
C5 C6 1_555 1_555
C6 C14 1_555 1_555
C7 C8 1_555 1_555
C8 C9 1_555 1_555
C9 C10 1_555 1_555
C10 C11 1_555 1_555
C11 C12 1_555 1_555
C12 C7 1_555 1_555
C13 C14 1_555 1_555
C14 C2 1_555 1_555
H1 C8 1_555 1_555
H2 C6 1_555 1_555
H3 N1 1_555 1_555
H4 N1 1_555 1_555
H5 N2 1_555 1_555
H6 N3 1_555 1_555
H7 N3 1_555 1_555
H8 N4 1_555 1_555
H9 C9 1_555 1_555
H10 C10 1_555 1_555
H11 C11 1_555 1_555
H12 C12 1_555 1_555
H13 C2 1_555 1_555
H14 C3 1_555 1_555
H15 C4 1_555 1_555
H16 C5 1_555 1_555
N1 N2 1_555 1_555
N2 C1 1_555 1_555
N3 Cu1 1_555 1_555
N4 C13 1_555 1_555
O1 Cu1 1_555 1_555
O2 Cu1 1_555 1_555
Cu4D Cl1 1_555 1_555
Cu2D Cl2 1_555 1_555
Cl2D Cu2D 1_555 1_555
Cl1D Cu4 1_555 1_555
Cl3 Cu4 1_555 1_555
C1 O1 1_555 1_555
C13 O2 1_555 1_555
N3 N4 1_555 1_555

#END
