
#######################################################################
#
#                 Cambridge Crystallographic Data Centre
#                                CCDC 
#
#######################################################################
#
# If this CIF has been generated from an entry in the Cambridge 
# Structural Database, then it will include bibliographic, chemical, 
# crystal, experimental, refinement or atomic coordinate data resulting 
# from the CCDC's data processing and validation procedures.
#
#######################################################################

data_BOHZAA
_symmetry_cell_setting           triclinic
_symmetry_space_group_name_H-M   'P -1'
_symmetry_Int_Tables_number      2
_space_group_name_Hall           '-P 1'
loop_
_symmetry_equiv_pos_site_id
_symmetry_equiv_pos_as_xyz
1 x,y,z
2 -x,-y,-z
_cell_length_a                   6.2642(5)
_cell_length_b                   11.61790(10)
_cell_length_c                   12.8199(2)
_cell_angle_alpha                70.418(12)
_cell_angle_beta                 84.950(15)
_cell_angle_gamma                81.833(15)
_cell_volume                     869.298
loop_
_atom_site_label
_atom_site_type_symbol
_atom_site_fract_x
_atom_site_fract_y
_atom_site_fract_z
Eu1 Eu 0.22005(3) 0.537155(19) 0.089458(17)
O1 O 0.0924(5) 0.3801(3) 0.0399(2)
O2 O -0.0459(5) 0.2505(3) -0.0184(3)
O3 O 0.8836(5) -0.4903(3) 0.2030(3)
O4 O 1.1240(5) -0.4146(3) 0.2661(3)
O5 O 0.5812(5) 0.4025(3) 0.0864(2)
O6 O 0.3788(5) 0.3620(3) 0.2394(3)
O7 O 0.4955(5) 0.6428(3) 0.1288(3)
C1 C 0.0880(7) 0.2704(4) 0.0389(4)
C2 C 0.2413(8) 0.1677(4) 0.1087(4)
H1 H 0.2456 0.1783 0.1804
H2 H 0.3849 0.1745 0.0738
C3 C 0.1860(8) 0.0402(4) 0.1267(4)
H3 H 0.1872 0.0277 0.0555
H4 H 0.0411 0.0333 0.1599
C4 C 0.3417(7) -0.0595(4) 0.2007(4)
C5 C 0.5603(8) -0.0757(5) 0.1701(4)
H5 H 0.6121 -0.0242 0.1030
C6 C 0.7013(8) -0.1671(5) 0.2381(4)
H6 H 0.8464 -0.1760 0.2160
C7 C 0.6285(7) -0.2460(4) 0.3393(4)
C8 C 0.4136(8) -0.2281(5) 0.3682(4)
H7 H 0.3609 -0.2791 0.4353
C9 C 0.2722(8) -0.1361(5) 0.3003(4)
H8 H 0.1276 -0.1265 0.3231
C10 C 0.7787(8) -0.3476(5) 0.4132(4)
H9 H 0.7231 -0.3662 0.4894
H10 H 0.9190 -0.3196 0.4087
C11 C 0.8055(8) -0.4656(5) 0.3815(4)
H11 H 0.8677 -0.5339 0.4424
H12 H 0.6644 -0.4834 0.3700
C12 C 0.9475(7) -0.4553(4) 0.2779(4)
C13 C 0.5502(7) 0.3386(4) 0.1886(4)
C14 C 0.7214(7) 0.2363(4) 0.2457(4)
H13 H 0.7494 0.1791 0.2043
H14 H 0.8539 0.2713 0.2436
C15 C 0.6654(9) 0.1682(6) 0.3604(4)
H15 H 0.5502 0.1205 0.3605
H16 H 0.6074 0.2274 0.3971
C16 C 0.8429(8) 0.0816(5) 0.4300(4)
C17 C 1.0291(9) 0.1213(5) 0.4480(4)
H17 H 1.0527 0.2029 0.4126
C18 C 0.8180(8) -0.0415(5) 0.4817(4)
H18 H 0.6961 -0.0713 0.4691
Eu1A Eu -0.22005(3) 0.462845(19) -0.089458(17)
Eu1_2 Eu 1.22005(3) -0.462845(19) 0.089458(17)
Eu1A_2 Eu 0.77995(3) 0.462845(19) -0.089458(17)
Eu1A_3 Eu 1.77995(3) -0.537155(19) 0.910542(17)
Eu1_3 Eu 1.22005(3) -0.462845(19) 1.089458(17)
Eu1A_4 Eu -1.22005(3) 1.462845(19) -0.089458(17)
O1A O -0.0924(5) 0.6199(3) -0.0399(2)
O2A O 0.0459(5) 0.7495(3) 0.0184(3)
O3A O -0.8836(5) 1.4903(3) -0.2030(3)
O3_2 O -0.1164(5) 0.5097(3) 0.2030(3)
O3A_2 O 0.1164(5) 0.4903(3) -0.2030(3)
O4A O -1.1240(5) 1.4146(3) -0.2661(3)
O4_2 O 0.1240(5) 0.5854(3) 0.2661(3)
O4A_2 O -0.1240(5) 0.4146(3) -0.2661(3)
O5A O 1.4188(5) -0.4025(3) 0.9136(2)
O5A_2 O 0.4188(5) 0.5975(3) -0.0864(2)
O5A_3 O -0.5812(5) 0.5975(3) -0.0864(2)
O5_2 O -0.4188(5) 0.4025(3) 0.0864(2)
O6A O 1.6212(5) -0.3620(3) 0.7606(3)
O6A_2 O -0.3788(5) 0.6380(3) -0.2394(3)
O7A O -0.4955(5) 0.3572(3) -0.1288(3)
C1A C -0.0880(7) 0.7296(4) -0.0389(4)
C2A C -0.2413(8) 0.8323(4) -0.1087(4)
H1A H -0.2456 0.8217 -0.1804
H2A H -0.3849 0.8255 -0.0738
C3A C -0.1860(8) 0.9598(4) -0.1267(4)
H3A H -0.1872 0.9723 -0.0555
H4A H -0.0411 0.9667 -0.1599
C4A C -0.3417(7) 1.0595(4) -0.2007(4)
C5A C -0.5603(8) 1.0757(5) -0.1701(4)
H5A H -0.6121 1.0242 -0.1030
C6A C -0.7013(8) 1.1671(5) -0.2381(4)
H6A H -0.8464 1.1760 -0.2160
C7A C -0.6285(7) 1.2460(4) -0.3393(4)
C8A C -0.4136(8) 1.2281(5) -0.3682(4)
H7A H -0.3609 1.2791 -0.4353
C9A C -0.2722(8) 1.1361(5) -0.3003(4)
H8A H -0.1276 1.1265 -0.3231
C10A C -0.7787(8) 1.3476(5) -0.4132(4)
H9A H -0.7231 1.3662 -0.4894
H10A H -0.9190 1.3196 -0.4087
C11A C -0.8055(8) 1.4656(5) -0.3815(4)
H11A H -0.8677 1.5339 -0.4424
H12A H -0.6644 1.4834 -0.3700
C12A C -0.9475(7) 1.4553(4) -0.2779(4)
C13A C 1.4498(7) -0.3386(4) 0.8114(4)
C14A C 1.2786(7) -0.2363(4) 0.7543(4)
H13A H 1.2506 -0.1791 0.7957
H14A H 1.1461 -0.2713 0.7564
C15A C 1.3346(9) -0.1682(6) 0.6396(4)
H15A H 1.4498 -0.1205 0.6395
H16A H 1.3926 -0.2274 0.6029
C16A C 1.1571(8) -0.0816(5) 0.5700(4)
C17A C 0.9709(9) -0.1213(5) 0.5520(4)
H17A H 0.9473 -0.2029 0.5874
C18A C 1.1820(8) 0.0415(5) 0.5183(4)
H18A H 1.3039 0.0713 0.5309
loop_
_geom_bond_atom_site_label_1
_geom_bond_atom_site_label_2
_geom_bond_site_symmetry_1
_geom_bond_site_symmetry_2
Eu1 O1 1_555 1_555
O1 C1 1_555 1_555
O2 C1 1_555 1_555
O3 C12 1_555 1_555
O4 C12 1_555 1_555
O5 Eu1 1_555 1_555
O6 Eu1 1_555 1_555
O7 Eu1 1_555 1_555
C1 C2 1_555 1_555
C2 H1 1_555 1_555
H2 C2 1_555 1_555
C3 C2 1_555 1_555
H3 C3 1_555 1_555
H4 C3 1_555 1_555
C4 C3 1_555 1_555
C5 C4 1_555 1_555
H5 C5 1_555 1_555
C6 C5 1_555 1_555
H6 C6 1_555 1_555
C7 C6 1_555 1_555
C8 C7 1_555 1_555
H7 C8 1_555 1_555
C9 C4 1_555 1_555
H8 C9 1_555 1_555
C10 C7 1_555 1_555
H9 C10 1_555 1_555
H10 C10 1_555 1_555
C11 C10 1_555 1_555
H11 C11 1_555 1_555
H12 C11 1_555 1_555
C12 C11 1_555 1_555
C13 O5 1_555 1_555
C14 C13 1_555 1_555
H13 C14 1_555 1_555
H14 C14 1_555 1_555
C15 C14 1_555 1_555
H15 C15 1_555 1_555
H16 C15 1_555 1_555
C16 C15 1_555 1_555
C17 C16 1_555 1_555
H17 C17 1_555 1_555
C18 C16 1_555 1_555
H18 C18 1_555 1_555
Eu1A O1 1_555 1_555
Eu1_2 O3 1_555 1_555
Eu1A_2 O5 1_555 1_555
Eu1A_3 O5A 1_555 1_555
Eu1_3 O5A 1_555 1_555
Eu1A_4 O3A 1_555 1_555
O1A Eu1 1_555 1_555
O2A Eu1 1_555 1_555
O3A C12A 1_555 1_555
O3_2 Eu1 1_555 1_555
O3A_2 Eu1A 1_555 1_555
O4A Eu1A_4 1_555 1_555
O4_2 Eu1 1_555 1_555
O4A_2 Eu1A 1_555 1_555
O5A C13A 1_555 1_555
O5A_2 Eu1 1_555 1_555
O5A_3 Eu1A 1_555 1_555
O5_2 Eu1A 1_555 1_555
O6A Eu1A_3 1_555 1_555
O6A_2 Eu1A 1_555 1_555
O7A Eu1A 1_555 1_555
C1A O1A 1_555 1_555
C2A C1A 1_555 1_555
H1A C2A 1_555 1_555
H2A C2A 1_555 1_555
C3A C2A 1_555 1_555
H3A C3A 1_555 1_555
H4A C3A 1_555 1_555
C4A C3A 1_555 1_555
C5A C4A 1_555 1_555
H5A C5A 1_555 1_555
C6A C5A 1_555 1_555
H6A C6A 1_555 1_555
C7A C6A 1_555 1_555
C8A C7A 1_555 1_555
H7A C8A 1_555 1_555
C9A C4A 1_555 1_555
H8A C9A 1_555 1_555
C10A C7A 1_555 1_555
H9A C10A 1_555 1_555
H10A C10A 1_555 1_555
C11A C10A 1_555 1_555
H11A C11A 1_555 1_555
H12A C11A 1_555 1_555
C12A O4A 1_555 1_555
C13A O6A 1_555 1_555
C14A C13A 1_555 1_555
H13A C14A 1_555 1_555
H14A C14A 1_555 1_555
C15A C14A 1_555 1_555
H15A C15A 1_555 1_555
H16A C15A 1_555 1_555
C16A C15A 1_555 1_555
C17A C18 1_555 1_555
H17A C17A 1_555 1_555
C18A C17 1_555 1_555
H18A C18A 1_555 1_555
O2 Eu1A 1_555 1_555
O4 Eu1_2 1_555 1_555
O6 C13 1_555 1_555
C8 C9 1_555 1_555
Eu1A O1A 1_555 1_555
Eu1A_2 O5A_2 1_555 1_555
O2A C1A 1_555 1_555
C8A C9A 1_555 1_555
C11A C12A 1_555 1_555
C16A C17A 1_555 1_555
C16A C18A 1_555 1_555

#END
