
#######################################################################
#
#                 Cambridge Crystallographic Data Centre
#                                CCDC 
#
#######################################################################
#
# If this CIF has been generated from an entry in the Cambridge 
# Structural Database, then it will include bibliographic, chemical, 
# crystal, experimental, refinement or atomic coordinate data resulting 
# from the CCDC's data processing and validation procedures.
#
#######################################################################

data_BOJCOT
_symmetry_cell_setting           triclinic
_symmetry_space_group_name_H-M   'P -1'
_symmetry_Int_Tables_number      2
_space_group_name_Hall           '-P 1'
loop_
_symmetry_equiv_pos_site_id
_symmetry_equiv_pos_as_xyz
1 x,y,z
2 -x,-y,-z
_cell_length_a                   12.5330(7)
_cell_length_b                   13.2410(7)
_cell_length_c                   14.6756(6)
_cell_angle_alpha                94.455(4)
_cell_angle_beta                 99.593(4)
_cell_angle_gamma                109.179(5)
_cell_volume                     2245.02
loop_
_atom_site_label
_atom_site_type_symbol
_atom_site_fract_x
_atom_site_fract_y
_atom_site_fract_z
Rh1 Rh -0.05230(7) 0.00291(7) 0.06091(5)
Mo1 Mo -0.53997(7) 0.04537(7) 0.45991(6)
O1 O -0.4215(6) 0.1912(6) 0.5349(5)
O2 O -0.3376(6) 0.0959(6) 0.6220(5)
O3 O -0.4333(6) 0.0531(6) 0.3605(5)
O4 O -0.3496(6) -0.0434(6) 0.4438(5)
O5 O -0.1790(7) -0.1330(6) -0.0103(5)
O6 O 0.0260(6) -0.0908(6) 0.1278(5)
O7 O -0.0823(7) -0.1380(6) -0.1258(5)
O8 O 0.1252(6) -0.0965(6) 0.0123(5)
N1 N -0.1517(7) 0.0061(7) 0.1722(6)
C1 C -0.3452(9) 0.1846(10) 0.6018(7)
C2 C -0.2564(11) 0.2878(10) 0.6549(8)
C3 C -0.2914(13) 0.3547(11) 0.7131(9)
C4 C -0.2040(18) 0.4504(12) 0.7605(10)
C5 C -0.0916(18) 0.4808(14) 0.7483(12)
C6 C -0.0631(14) 0.4113(13) 0.6902(10)
C7 C -0.1425(12) 0.3161(12) 0.6436(9)
C8 C -0.4162(14) 0.3220(13) 0.7254(11)
C9 C -0.4340(16) 0.269(2) 0.8092(18)
C10 C -0.459(2) 0.418(2) 0.727(2)
C11 C -0.003(2) 0.5888(15) 0.7945(15)
C12 C 0.019(2) 0.6115(15) 0.8886(14)
C13 C -0.011(2) 0.6750(14) 0.7372(13)
C14 C -0.1042(11) 0.2434(14) 0.5805(10)
C15 C -0.077(2) 0.292(2) 0.4922(13)
C16 C -0.0003(14) 0.2187(15) 0.6290(11)
C17 C -0.3580(8) 0.0056(9) 0.3773(7)
C18 C -0.2860(9) 0.0071(9) 0.3059(7)
C19 C -0.2878(10) 0.0672(10) 0.2353(8)
C20 C -0.2201(10) 0.0664(10) 0.1695(8)
C21 C -0.2170(10) -0.0536(11) 0.3091(8)
C22 C -0.1508(11) -0.0511(10) 0.2406(8)
C23 C -0.1678(11) -0.1736(10) -0.0874(9)
C24 C -0.2640(12) -0.2721(12) -0.1379(10)
C25 C 0.0968(10) -0.1218(9) 0.0886(8)
C26 C 0.1537(11) -0.1901(11) 0.1384(8)
O9 O -0.6761(8) 0.1388(7) 0.3770(6)
C27 C -0.7970(12) 0.0756(13) 0.3412(10)
C28 C -0.8641(16) 0.1097(16) 0.4022(16)
C29 C -0.7875(15) 0.2144(14) 0.4539(12)
C30 C -0.6762(12) 0.2370(11) 0.4247(11)
H1 H -0.22340 0.49630 0.80290
H2 H 0.01440 0.43030 0.68220
H3 H -0.46500 0.26820 0.66990
H4 H -0.38430 0.31850 0.86490
H5 H -0.51490 0.25030 0.81430
H6 H -0.41440 0.20330 0.80400
H7 H -0.39590 0.48310 0.75970
H8 H -0.48520 0.42820 0.66300
H9 H -0.52310 0.40320 0.76010
H10 H 0.06990 0.58020 0.78350
H11 H 0.09040 0.67370 0.90960
H12 H -0.04500 0.62840 0.90830
H13 H 0.02750 0.54880 0.91610
H14 H -0.08710 0.68210 0.73320
H15 H 0.04910 0.74360 0.76640
H16 H -0.00060 0.65580 0.67420
H17 H -0.16990 0.17330 0.56060
H18 H -0.14700 0.29610 0.45470
H19 H -0.01830 0.36410 0.50980
H20 H -0.04720 0.24550 0.45560
H21 H 0.02310 0.17570 0.58390
H22 H 0.06370 0.28650 0.65390
H23 H -0.02070 0.17800 0.68020
H24 H -0.33560 0.11000 0.23080
H25 H -0.22210 0.10970 0.12110
H26 H -0.21360 -0.09720 0.35720
H27 H -0.10260 -0.09360 0.24410
H28 H -0.32800 -0.25150 -0.16850
H29 H -0.23680 -0.30840 -0.18510
H30 H -0.29060 -0.32130 -0.09330
H31 H 0.20030 -0.21270 0.09930
H32 H 0.09470 -0.25410 0.15120
H33 H 0.20340 -0.14860 0.19740
H34 H -0.80990 -0.00230 0.34070
H35 H -0.82110 0.08790 0.27640
H36 H -0.93420 0.11650 0.36480
H37 H -0.88760 0.05690 0.44560
H38 H -0.77730 0.21200 0.52200
H39 H -0.82010 0.27130 0.43930
H40 H -0.66620 0.29290 0.38270
H41 H -0.61190 0.26380 0.48000
Rh1A Rh 0.05230(7) -0.00291(7) -0.06091(5)
Mo1A Mo -0.46003(7) -0.04537(7) 0.54009(6)
O2A O -0.6624(6) -0.0959(6) 0.3780(5)
O4A O -0.6504(6) 0.0434(6) 0.5562(5)
O7A O 0.0823(7) 0.1380(6) 0.1258(5)
O8A O -0.1252(6) 0.0965(6) -0.0123(5)
O10 O -0.7789(16) -0.4685(16) -0.3526(16)
C31 C -0.751(3) -0.506(2) -0.428(3)
C32 C -0.6302(19) -0.4323(17) -0.4341(16)
C33 C -0.593(2) -0.3562(17) -0.3424(17)
C34 C -0.693(2) -0.372(3) -0.303(2)
H42 H -0.80750 -0.50660 -0.48460
H43 H -0.75230 -0.58040 -0.42480
H44 H -0.57800 -0.47400 -0.43830
H45 H -0.63240 -0.39260 -0.48840
H46 H -0.53290 -0.37210 -0.29940
H47 H -0.56170 -0.28040 -0.35370
H48 H -0.67420 -0.37900 -0.23580
H49 H -0.71960 -0.31020 -0.30870
O11 O -0.6640(15) 0.4811(17) 0.9954(12)
C35 C -0.765(2) 0.480(3) 0.9649(16)
C36 C -0.828(2) 0.383(2) 0.8979(19)
C37 C -0.738(2) 0.348(2) 0.8665(17)
C38 C -0.631(2) 0.425(3) 0.923(2)
H50 H -0.76200 0.54460 0.93460
H51 H -0.80560 0.48070 1.01750
H52 H -0.87690 0.39890 0.84450
H53 H -0.87830 0.32630 0.92760
H54 H -0.74700 0.27310 0.87830
H55 H -0.74020 0.35140 0.79900
H56 H -0.58920 0.47680 0.88500
H57 H -0.57970 0.38760 0.95110
O12 O -0.4954(15) 0.8313(13) 0.8546(12)
C39 C -0.409(2) 0.9343(17) 0.8562(15)
C40 C -0.426(3) 0.991(3) 0.951(3)
C41 C -0.453(5) 0.877(5) 1.006(4)
C42 C -0.538(2) 0.790(2) 0.9234(18)
H58 H -0.42690 0.96940 0.80140
H59 H -0.33080 0.93030 0.86180
H60 H -0.49270 1.01660 0.94030
H61 H -0.35570 1.05080 0.98390
H62 H -0.38220 0.86080 1.02720
H63 H -0.49080 0.88300 1.05920
H64 H -0.53230 0.71770 0.92810
H65 H -0.61850 0.78610 0.91910
loop_
_geom_bond_atom_site_label_1
_geom_bond_atom_site_label_2
_geom_bond_site_symmetry_1
_geom_bond_site_symmetry_2
Rh1 O5 1_555 1_555
Mo1 O1 1_555 1_555
O1 C1 1_555 1_555
O2 C1 1_555 1_555
O3 Mo1 1_555 1_555
O4 C17 1_555 1_555
O5 C23 1_555 1_555
O6 Rh1 1_555 1_555
O7 C23 1_555 1_555
O8 C25 1_555 1_555
N1 Rh1 1_555 1_555
C1 C2 1_555 1_555
C2 C3 1_555 1_555
C3 C4 1_555 1_555
C4 C5 1_555 1_555
C5 C6 1_555 1_555
C6 C7 1_555 1_555
C7 C2 1_555 1_555
C8 C3 1_555 1_555
C9 C8 1_555 1_555
C10 C8 1_555 1_555
C11 C5 1_555 1_555
C12 C11 1_555 1_555
C13 C11 1_555 1_555
C14 C7 1_555 1_555
C15 C14 1_555 1_555
C16 C14 1_555 1_555
C17 O3 1_555 1_555
C18 C17 1_555 1_555
C19 C18 1_555 1_555
C20 N1 1_555 1_555
C21 C18 1_555 1_555
C22 N1 1_555 1_555
C23 C24 1_555 1_555
C24 H28 1_555 1_555
C25 O6 1_555 1_555
C26 C25 1_555 1_555
O9 Mo1 1_555 1_555
C27 O9 1_555 1_555
C28 C27 1_555 1_555
C29 C28 1_555 1_555
C30 O9 1_555 1_555
O10 C31 1_555 1_555
C31 C32 1_555 1_555
C32 C33 1_555 1_555
C33 C34 1_555 1_555
C34 O10 1_555 1_555
O11 C35 1_555 1_555
C35 C36 1_555 1_555
C36 C37 1_555 1_555
C37 C38 1_555 1_555
C38 O11 1_555 1_555
O12 C39 1_555 1_555
C39 C40 1_555 1_555
C40 C41 1_555 1_555
C41 C42 1_555 1_555
C42 O12 1_555 1_555
H1 C4 1_555 1_555
H2 C6 1_555 1_555
H3 C8 1_555 1_555
H4 C9 1_555 1_555
H5 C9 1_555 1_555
H6 C9 1_555 1_555
H7 C10 1_555 1_555
H8 C10 1_555 1_555
H9 C10 1_555 1_555
H10 C11 1_555 1_555
H11 C12 1_555 1_555
H12 C12 1_555 1_555
H13 C12 1_555 1_555
H14 C13 1_555 1_555
H15 C13 1_555 1_555
H16 C13 1_555 1_555
H17 C14 1_555 1_555
H18 C15 1_555 1_555
H19 C15 1_555 1_555
H20 C15 1_555 1_555
H21 C16 1_555 1_555
H22 C16 1_555 1_555
H23 C16 1_555 1_555
H24 C19 1_555 1_555
H25 C20 1_555 1_555
H26 C21 1_555 1_555
H27 C22 1_555 1_555
H29 C24 1_555 1_555
H30 C24 1_555 1_555
H31 C26 1_555 1_555
H32 C26 1_555 1_555
H33 C26 1_555 1_555
H34 C27 1_555 1_555
H35 C27 1_555 1_555
H36 C28 1_555 1_555
H37 C28 1_555 1_555
H38 C29 1_555 1_555
H39 C29 1_555 1_555
H40 C30 1_555 1_555
H41 C30 1_555 1_555
H42 C31 1_555 1_555
H43 C31 1_555 1_555
H44 C32 1_555 1_555
H45 C32 1_555 1_555
H46 C33 1_555 1_555
H47 C33 1_555 1_555
H48 C34 1_555 1_555
H49 C34 1_555 1_555
H50 C35 1_555 1_555
H51 C35 1_555 1_555
H52 C36 1_555 1_555
H53 C36 1_555 1_555
H54 C37 1_555 1_555
H55 C37 1_555 1_555
H56 C38 1_555 1_555
H57 C38 1_555 1_555
H58 C39 1_555 1_555
H59 C39 1_555 1_555
H60 C40 1_555 1_555
H61 C40 1_555 1_555
H62 C41 1_555 1_555
H63 C41 1_555 1_555
H64 C42 1_555 1_555
H65 C42 1_555 1_555
Rh1A Rh1 1_555 1_555
Mo1A Mo1 1_555 1_555
O2A Mo1 1_555 1_555
O4A Mo1 1_555 1_555
O7A Rh1 1_555 1_555
O8A Rh1 1_555 1_555
O2 Mo1A 1_555 1_555
O4 Mo1A 1_555 1_555
O7 Rh1A 1_555 1_555
O8 Rh1A 1_555 1_555
C19 C20 1_555 1_555
C21 C22 1_555 1_555
C29 C30 1_555 1_555

#END
