
#######################################################################
#
#                 Cambridge Crystallographic Data Centre
#                                CCDC 
#
#######################################################################
#
# If this CIF has been generated from an entry in the Cambridge 
# Structural Database, then it will include bibliographic, chemical, 
# crystal, experimental, refinement or atomic coordinate data resulting 
# from the CCDC's data processing and validation procedures.
#
#######################################################################

data_BOJDEK
_symmetry_cell_setting           triclinic
_symmetry_space_group_name_H-M   'P -1'
_symmetry_Int_Tables_number      2
_space_group_name_Hall           '-P 1'
loop_
_symmetry_equiv_pos_site_id
_symmetry_equiv_pos_as_xyz
1 x,y,z
2 -x,-y,-z
_cell_length_a                   10.2601(2)
_cell_length_b                   12.4052(2)
_cell_length_c                   20.8198(1)
_cell_angle_alpha                78.823(1)
_cell_angle_beta                 88.892(1)
_cell_angle_gamma                72.169(1)
_cell_volume                     2472.5
loop_
_atom_site_label
_atom_site_type_symbol
_atom_site_fract_x
_atom_site_fract_y
_atom_site_fract_z
Pb1 Pb 0.50124(7) 0.17466(6) 0.45456(4)
C1 C 0.765(2) 0.1449(14) 0.5159(10)
C2 C 0.9047(8) 0.1126(10) 0.5494(5)
C3 C 0.9246(9) 0.0438(11) 0.6118(5)
H1 H 0.8512 0.0256 0.6329
C4 C 1.0543(11) 0.0021(10) 0.6426(4)
H2 H 1.0676 -0.0439 0.6844
C5 C 1.1640(8) 0.0293(11) 0.6110(5)
H3 H 1.2508 0.0014 0.6317
C6 C 1.1441(9) 0.0981(11) 0.5486(5)
C7 C 1.0145(11) 0.1398(10) 0.5178(4)
H4 H 1.0012 0.1858 0.4761
C8 C 1.2591(18) 0.1311(17) 0.5138(10)
C9 C 0.401(3) 0.440(2) 0.3370(13)
H5 H 0.4404 0.3892 0.3095
C10 C 0.342(3) 0.555(2) 0.3082(13)
H6 H 0.3340 0.5787 0.2629
C11 C 0.296(3) 0.631(3) 0.3481(13)
H7 H 0.2585 0.7095 0.3306
C12 C 0.305(2) 0.592(2) 0.4142(13)
H8 H 0.2738 0.6447 0.4417
C13 C 0.3587(19) 0.4753(18) 0.4411(12)
C14 C 0.3709(18) 0.4253(15) 0.5123(9)
C15 C 0.324(2) 0.4970(17) 0.5581(11)
H9 H 0.2850 0.5763 0.5440
C16 C 0.3364(19) 0.449(2) 0.6238(12)
H10 H 0.3090 0.4949 0.6550
C17 C 0.391(2) 0.330(2) 0.6425(11)
H11 H 0.3947 0.2941 0.6864
C18 C 0.438(2) 0.2656(19) 0.5965(9)
H12 H 0.4793 0.1865 0.6100
N1 N 0.4070(17) 0.3972(15) 0.4012(9)
N2 N 0.4273(16) 0.3115(14) 0.5315(8)
O1 O 0.7421(14) 0.2210(12) 0.4624(7)
O2 O 0.6798(12) 0.1001(11) 0.5407(7)
O3 O 1.2356(13) 0.2093(13) 0.4651(7)
O4 O 1.3832(12) 0.0751(11) 0.5375(7)
Pb1_2 Pb 1.50124(7) 0.17466(6) 0.45456(4)
O3_2 O 0.2356(13) 0.2093(13) 0.4651(7)
O4_2 O 0.3832(12) 0.0751(11) 0.5375(7)
Pb2 Pb 0.86653(7) 0.87179(7) 0.22962(4)
C19 C 0.605(2) 0.9083(17) 0.1669(10)
C20 C 0.4628(9) 0.9464(10) 0.1363(5)
C21 C 0.4379(9) 1.0176(11) 0.0745(6)
H13 H 0.5082 1.0412 0.0535
C22 C 0.3080(11) 1.0535(11) 0.0443(5)
H14 H 0.2914 1.1011 0.0029
C23 C 0.2030(9) 1.0181(12) 0.0757(6)
H15 H 0.1161 1.0421 0.0554
C24 C 0.2279(10) 0.9469(11) 0.1374(6)
C25 C 0.3578(11) 0.9111(10) 0.1677(4)
H16 H 0.3744 0.8634 0.2090
C26 C 0.1134(19) 0.9073(15) 0.1708(11)
C27 C 0.960(3) 0.640(3) 0.3624(11)
H17 H 0.9349 0.7011 0.3846
C28 C 1.011(3) 0.529(3) 0.3984(14)
H18 H 1.0225 0.5162 0.4437
C29 C 1.044(3) 0.441(3) 0.3665(17)
H19 H 1.0778 0.3652 0.3900
C30 C 1.029(3) 0.461(2) 0.2983(13)
H20 H 1.0515 0.4006 0.2759
C31 C 0.979(2) 0.5756(19) 0.2644(12)
C32 C 0.9624(17) 0.6062(17) 0.1927(9)
C33 C 0.988(2) 0.523(2) 0.1543(13)
H21 H 1.0151 0.4455 0.1739
C34 C 0.975(2) 0.556(2) 0.0873(13)
H22 H 0.9890 0.5006 0.0614
C35 C 0.941(2) 0.670(2) 0.0590(10)
H23 H 0.9328 0.6930 0.0137
C36 C 0.9182(19) 0.750(2) 0.0980(9)
H24 H 0.8949 0.8278 0.0785
N3 N 0.9448(17) 0.6645(15) 0.2962(8)
N4 N 0.9286(14) 0.7192(13) 0.1636(8)
O5 O 0.6946(12) 0.9504(12) 0.1397(7)
O6 O 0.6304(14) 0.8343(12) 0.2205(7)
O7 O 0.1377(13) 0.8371(12) 0.2221(7)
O8 O -0.0047(13) 0.9516(12) 0.1425(7)
Pb2_2 Pb -0.13347(7) 0.87179(7) 0.22962(4)
O7_2 O 1.1377(13) 0.8371(12) 0.2221(7)
O8_2 O 0.9953(13) 0.9516(12) 0.1425(7)
Pb3 Pb 0.79378(7) 0.18987(6) 0.11512(4)
C37 C 0.538(2) 0.1998(15) 0.1745(11)
C38 C 0.4102(9) 0.1865(11) 0.2087(6)
C39 C 0.4203(10) 0.1459(13) 0.2760(6)
H25 H 0.5037 0.1278 0.2989
C40 C 0.3058(13) 0.1325(14) 0.3093(5)
H26 H 0.3126 0.1053 0.3544
C41 C 0.1812(10) 0.1595(13) 0.2752(6)
H27 H 0.1046 0.1505 0.2975
C42 C 0.1711(9) 0.2001(11) 0.2078(6)
C43 C 0.2856(11) 0.2135(11) 0.1745(4)
H28 H 0.2788 0.2407 0.1295
C44 C 0.0378(19) 0.2217(13) 0.1721(9)
C45 C 0.689(2) 0.438(2) 0.1707(11)
H29 H 0.7084 0.3819 0.2089
C46 C 0.642(2) 0.555(2) 0.1762(15)
H30 H 0.6311 0.5753 0.2170
C47 C 0.611(3) 0.640(3) 0.1183(14)
H31 H 0.5851 0.7179 0.1193
C48 C 0.623(2) 0.6012(17) 0.0601(12)
H32 H 0.5953 0.6544 0.0209
C49 C 0.6731(17) 0.4862(17) 0.0589(10)
C50 C 0.6881(18) 0.4442(16) -0.0036(10)
C51 C 0.6630(19) 0.5166(17) -0.0641(9)
H33 H 0.6321 0.5961 -0.0668
C52 C 0.683(2) 0.474(2) -0.1202(12)
H34 H 0.6678 0.5232 -0.1610
C53 C 0.726(2) 0.354(2) -0.1149(10)
H35 H 0.7398 0.3204 -0.1518
C54 C 0.747(2) 0.288(2) -0.0535(10)
H36 H 0.7723 0.2078 -0.0493
N5 N 0.7065(14) 0.4048(13) 0.1135(8)
N6 N 0.7323(16) 0.3302(13) -0.0001(8)
O9 O 0.5306(15) 0.2348(13) 0.1145(7)
O10 O 0.6469(14) 0.1758(15) 0.2094(8)
O11 O -0.0622(12) 0.1983(13) 0.2036(7)
O12 O 0.0275(14) 0.2611(13) 0.1098(8)
Pb3_2 Pb -0.20622(7) 0.18987(6) 0.11512(4)
O11_2 O 0.9378(12) 0.1983(13) 0.2036(7)
O12_2 O 1.0275(14) 0.2611(13) 0.1098(8)
O13 O 0.764(5) 0.292(2) 0.3254(12)
loop_
_geom_bond_atom_site_label_1
_geom_bond_atom_site_label_2
_geom_bond_site_symmetry_1
_geom_bond_site_symmetry_2
Pb1 N1 1_555 1_555
Pb2 N3 1_555 1_555
Pb3 N5 1_555 1_555
C1 C2 1_555 1_555
C2 C3 1_555 1_555
C3 H1 1_555 1_555
C4 C3 1_555 1_555
H2 C4 1_555 1_555
C5 C4 1_555 1_555
H3 C5 1_555 1_555
C6 C5 1_555 1_555
C7 C2 1_555 1_555
H4 C7 1_555 1_555
C8 C6 1_555 1_555
C9 H5 1_555 1_555
C10 C9 1_555 1_555
H6 C10 1_555 1_555
C11 C10 1_555 1_555
H7 C11 1_555 1_555
C12 C11 1_555 1_555
H8 C12 1_555 1_555
C13 C12 1_555 1_555
C14 C13 1_555 1_555
C15 C14 1_555 1_555
H9 C15 1_555 1_555
C16 C15 1_555 1_555
H10 C16 1_555 1_555
C17 C16 1_555 1_555
H11 C17 1_555 1_555
C18 C17 1_555 1_555
H12 C18 1_555 1_555
C19 C20 1_555 1_555
C20 C21 1_555 1_555
C21 H13 1_555 1_555
C22 C21 1_555 1_555
H14 C22 1_555 1_555
C23 C22 1_555 1_555
H15 C23 1_555 1_555
C24 C23 1_555 1_555
C25 C20 1_555 1_555
H16 C25 1_555 1_555
C26 C24 1_555 1_555
C27 H17 1_555 1_555
C28 C27 1_555 1_555
H18 C28 1_555 1_555
C29 C28 1_555 1_555
H19 C29 1_555 1_555
C30 C29 1_555 1_555
H20 C30 1_555 1_555
C31 C30 1_555 1_555
C32 C31 1_555 1_555
C33 C32 1_555 1_555
H21 C33 1_555 1_555
C34 C33 1_555 1_555
H22 C34 1_555 1_555
C35 C34 1_555 1_555
H23 C35 1_555 1_555
C36 C35 1_555 1_555
H24 C36 1_555 1_555
C37 C38 1_555 1_555
C38 C39 1_555 1_555
C39 H25 1_555 1_555
C40 C39 1_555 1_555
H26 C40 1_555 1_555
C41 C40 1_555 1_555
H27 C41 1_555 1_555
C42 C41 1_555 1_555
C43 C38 1_555 1_555
H28 C43 1_555 1_555
C44 C42 1_555 1_555
C45 H29 1_555 1_555
C46 C45 1_555 1_555
H30 C46 1_555 1_555
C47 C46 1_555 1_555
H31 C47 1_555 1_555
C48 C47 1_555 1_555
H32 C48 1_555 1_555
C49 C48 1_555 1_555
C50 C49 1_555 1_555
C51 C50 1_555 1_555
H33 C51 1_555 1_555
C52 C51 1_555 1_555
H34 C52 1_555 1_555
C53 C52 1_555 1_555
H35 C53 1_555 1_555
C54 C53 1_555 1_555
H36 C54 1_555 1_555
N1 C9 1_555 1_555
N2 Pb1 1_555 1_555
N3 C27 1_555 1_555
N4 Pb2 1_555 1_555
N5 C45 1_555 1_555
N6 Pb3 1_555 1_555
O1 Pb1 1_555 1_555
O2 Pb1 1_555 1_555
O3 C8 1_555 1_555
O4 C8 1_555 1_555
O5 Pb2 1_555 1_555
O6 Pb2 1_555 1_555
O7 C26 1_555 1_555
O8 C26 1_555 1_555
O9 Pb3 1_555 1_555
O10 Pb3 1_555 1_555
O11 C44 1_555 1_555
O12 C44 1_555 1_555
Pb1_2 O3 1_555 1_555
Pb2_2 O7 1_555 1_555
Pb3_2 O11 1_555 1_555
O3_2 Pb1 1_555 1_555
O4_2 Pb1 1_555 1_555
O7_2 Pb2 1_555 1_555
O8_2 Pb2 1_555 1_555
O11_2 Pb3 1_555 1_555
O12_2 Pb3 1_555 1_555
C1 O1 1_555 1_555
C1 O2 1_555 1_555
C6 C7 1_555 1_555
C13 N1 1_555 1_555
C14 N2 1_555 1_555
C18 N2 1_555 1_555
C19 O5 1_555 1_555
C19 O6 1_555 1_555
C24 C25 1_555 1_555
C31 N3 1_555 1_555
C32 N4 1_555 1_555
C36 N4 1_555 1_555
C37 O9 1_555 1_555
C37 O10 1_555 1_555
C42 C43 1_555 1_555
C49 N5 1_555 1_555
C50 N6 1_555 1_555
C54 N6 1_555 1_555
O4 Pb1_2 1_555 1_555
O8 Pb2_2 1_555 1_555
O12 Pb3_2 1_555 1_555

#END
