
#######################################################################
#
#                 Cambridge Crystallographic Data Centre
#                                CCDC 
#
#######################################################################
#
# If this CIF has been generated from an entry in the Cambridge 
# Structural Database, then it will include bibliographic, chemical, 
# crystal, experimental, refinement or atomic coordinate data resulting 
# from the CCDC's data processing and validation procedures.
#
#######################################################################

data_BOJKAM04
_symmetry_cell_setting           orthorhombic
_symmetry_space_group_name_H-M   'P 21 21 21'
_symmetry_Int_Tables_number      19
_space_group_name_Hall           'P 2ac 2ab'
loop_
_symmetry_equiv_pos_site_id
_symmetry_equiv_pos_as_xyz
1 x,y,z
2 1/2+x,1/2-y,-z
3 -x,1/2+y,1/2-z
4 1/2-x,-y,1/2+z
_cell_length_a                   11.0545(3)
_cell_length_b                   9.1007(2)
_cell_length_c                   7.6581(2)
_cell_angle_alpha                90
_cell_angle_beta                 90
_cell_angle_gamma                90
_cell_volume                     770.433
loop_
_atom_site_label
_atom_site_type_symbol
_atom_site_fract_x
_atom_site_fract_y
_atom_site_fract_z
Ni1 Ni 0.09706(3) 0.04331(4) 0.13290(5)
C1 C 0.2782(3) 0.2551(3) 0.1488(4)
C2 C 0.2198(3) 0.2723(3) -0.0300(4)
C3 C 0.1193(3) 0.3878(3) -0.0222(4)
C4 C 0.0169(3) 0.3586(3) 0.1035(4)
O1 O 0.2489(2) 0.1448(2) 0.2399(3)
O2 O 0.3493(2) 0.3525(3) 0.1983(4)
O3 O 0.0052(2) 0.2383(2) 0.1818(3)
O4 O -0.05631(17) 0.4652(2) 0.1240(3)
O5 O 0.1808(2) -0.1591(2) 0.0873(3)
O6 O -0.0643(2) -0.0363(3) 0.0425(4)
N1 N 0.1710(2) 0.1301(3) -0.0858(3)
H1 H 0.2278 0.0745 -0.1249
H2 H 0.1169 0.1418 -0.1653
H3 H 0.2813 0.3042 -0.1140
H4 H 0.1561 0.4805 0.0105
H5 H 0.0848 0.3961 -0.1382
H6 H 0.185(4) -0.160(4) -0.0197(14)
H7 H 0.126(3) -0.218(3) 0.109(5)
H8 H -0.108(4) 0.008(3) -0.027(4)
H9 H -0.063(3) -0.1207(18) 0.005(5)
Ni1B Ni -0.09706(3) 0.54331(4) 0.36710(5)
O4B O 0.05631(17) -0.0348(2) 0.3760(3)
O7 O 0.0374(3) 0.1973(3) 0.5931(4)
H10 H -0.027(2) 0.184(4) 0.643(6)
H11 H 0.042(3) 0.131(3) 0.522(5)
loop_
_geom_bond_atom_site_label_1
_geom_bond_atom_site_label_2
_geom_bond_site_symmetry_1
_geom_bond_site_symmetry_2
Ni1 O1 1_555 1_555
C1 C2 1_555 1_555
C2 C3 1_555 1_555
C3 C4 1_555 1_555
C4 O3 1_555 1_555
O1 C1 1_555 1_555
O2 C1 1_555 1_555
O3 Ni1 1_555 1_555
O4 C4 1_555 1_555
O5 Ni1 1_555 1_555
O6 Ni1 1_555 1_555
N1 Ni1 1_555 1_555
H1 N1 1_555 1_555
H2 N1 1_555 1_555
H3 C2 1_555 1_555
H4 C3 1_555 1_555
H5 C3 1_555 1_555
H6 O5 1_555 1_555
H7 O5 1_555 1_555
H8 O6 1_555 1_555
H9 O6 1_555 1_555
O7 H10 1_555 1_555
H11 O7 1_555 1_555
Ni1B O4 1_555 1_555
O4B Ni1 1_555 1_555
C2 N1 1_555 1_555

#END
