
#######################################################################
#
#                 Cambridge Crystallographic Data Centre
#                                CCDC 
#
#######################################################################
#
# If this CIF has been generated from an entry in the Cambridge 
# Structural Database, then it will include bibliographic, chemical, 
# crystal, experimental, refinement or atomic coordinate data resulting 
# from the CCDC's data processing and validation procedures.
#
#######################################################################

data_BOJKAM
_symmetry_cell_setting           orthorhombic
_symmetry_space_group_name_H-M   'P 21 21 21'
_symmetry_Int_Tables_number      19
_space_group_name_Hall           'P 2ac 2ab'
loop_
_symmetry_equiv_pos_site_id
_symmetry_equiv_pos_as_xyz
1 x,y,z
2 1/2+x,1/2-y,-z
3 -x,1/2+y,1/2-z
4 1/2-x,-y,1/2+z
_cell_length_a                   12.306(2)
_cell_length_b                   8.996(2)
_cell_length_c                   7.596(1)
_cell_angle_alpha                90
_cell_angle_beta                 90
_cell_angle_gamma                90
_cell_volume                     840.913
loop_
_atom_site_label
_atom_site_type_symbol
_atom_site_fract_x
_atom_site_fract_y
_atom_site_fract_z
Ni1 Ni 0.07910 0.06390 0.12520
O1 O 0.21000 0.12900 0.28020
O2 O 0.34900 0.28600 0.27470
C1 C 0.26990 0.22330 0.20400
C2 C 0.24010 0.26540 0.01550
N1 N 0.18230 0.13940 -0.06630
C3 C 0.16910 0.40580 0.01780
C4 C 0.06200 0.39780 0.11620
O3 O 0.01830 0.27490 0.15230
O4 O 0.02130 0.52070 0.16300
O5 O 0.13640 -0.15380 0.11150
O6 O -0.04320 0.01170 -0.04990
H1 H 0.30810 0.28610 -0.05240
H2 H 0.14060 0.17320 -0.17190
H3 H 0.23470 0.05980 -0.10150
H4 H 0.21300 0.48720 0.07240
H5 H 0.15230 0.43190 -0.10730
H6 H 0.13230 -0.17350 -0.01790
H7 H 0.10410 -0.19050 0.19420
H8 H -0.07530 0.07010 -0.13360
H9 H -0.07240 -0.07560 -0.06140
O4B O -0.02130 0.02070 0.33700
Ni1B Ni -0.07910 0.56390 0.37480
O7 O 0.09360 0.21940 0.58480
H10 H 0.16430 0.19600 0.51370
H11 H 0.04860 0.16140 0.53610
loop_
_geom_bond_atom_site_label_1
_geom_bond_atom_site_label_2
_geom_bond_site_symmetry_1
_geom_bond_site_symmetry_2
Ni1 O1 1_555 1_555
O1 C1 1_555 1_555
O2 C1 1_555 1_555
C1 C2 1_555 1_555
C2 N1 1_555 1_555
N1 Ni1 1_555 1_555
C3 C2 1_555 1_555
C4 C3 1_555 1_555
O3 Ni1 1_555 1_555
O4 C4 1_555 1_555
O5 Ni1 1_555 1_555
O6 Ni1 1_555 1_555
H1 C2 1_555 1_555
H2 N1 1_555 1_555
H3 N1 1_555 1_555
H4 C3 1_555 1_555
H5 C3 1_555 1_555
H6 O5 1_555 1_555
H7 O5 1_555 1_555
H8 O6 1_555 1_555
H9 O6 1_555 1_555
O7 H10 1_555 1_555
H11 O7 1_555 1_555
O4B Ni1 1_555 1_555
Ni1B O4 1_555 1_555
C4 O3 1_555 1_555

#END
