
#######################################################################
#
#                 Cambridge Crystallographic Data Centre
#                                CCDC 
#
#######################################################################
#
# If this CIF has been generated from an entry in the Cambridge 
# Structural Database, then it will include bibliographic, chemical, 
# crystal, experimental, refinement or atomic coordinate data resulting 
# from the CCDC's data processing and validation procedures.
#
#######################################################################

data_BOJKAM06
_symmetry_cell_setting           orthorhombic
_symmetry_space_group_name_H-M   'P 21 21 21'
_symmetry_Int_Tables_number      19
_space_group_name_Hall           'P 2ac 2ab'
loop_
_symmetry_equiv_pos_site_id
_symmetry_equiv_pos_as_xyz
1 x,y,z
2 1/2+x,1/2-y,-z
3 -x,1/2+y,1/2-z
4 1/2-x,-y,1/2+z
_cell_length_a                   10.7512(4)
_cell_length_b                   9.0127(2)
_cell_length_c                   7.5587(3)
_cell_angle_alpha                90
_cell_angle_beta                 90
_cell_angle_gamma                90
_cell_volume                     732.418
loop_
_atom_site_label
_atom_site_type_symbol
_atom_site_fract_x
_atom_site_fract_y
_atom_site_fract_z
Ni1 Ni 0.09759(3) 0.03990(4) 0.12937(5)
C1 C 0.2793(3) 0.2563(3) 0.1416(4)
C2 C 0.2190(3) 0.2724(3) -0.0392(4)
C3 C 0.1161(3) 0.3874(3) -0.0308(4)
C4 C 0.0137(3) 0.3571(3) 0.1014(4)
O1 O 0.2545(2) 0.1423(2) 0.2323(3)
O2 O 0.3480(3) 0.3584(3) 0.1950(4)
O3 O 0.0042(2) 0.2361(2) 0.1816(3)
O4 O -0.06321(18) 0.4631(2) 0.1221(3)
O5 O 0.1840(2) -0.1634(2) 0.0815(3)
O6 O -0.0706(2) -0.0420(2) 0.0506(4)
N1 N 0.1692(3) 0.1281(3) -0.0933(4)
H1 H 0.2278 0.0727 -0.1346
H2 H 0.1126 0.1390 -0.1725
H3 H 0.2816 0.3043 -0.1244
H4 H 0.1535 0.4820 -0.0010
H5 H 0.0784 0.3937 -0.1473
H6 H 0.205(4) -0.171(5) -0.022(2)
H7 H 0.135(3) -0.232(3) 0.095(5)
H8 H -0.102(5) 0.006(3) -0.029(4)
H9 H -0.059(4) -0.124(2) 0.007(5)
Ni1B Ni -0.09759(3) 0.53990(4) 0.37063(5)
O4B O 0.06321(18) -0.0369(2) 0.3779(3)
O7 O 0.0342(3) 0.1951(3) 0.5885(4)
H10 H -0.026(3) 0.173(4) 0.650(6)
H11 H 0.037(4) 0.130(4) 0.513(5)
loop_
_geom_bond_atom_site_label_1
_geom_bond_atom_site_label_2
_geom_bond_site_symmetry_1
_geom_bond_site_symmetry_2
Ni1 O1 1_555 1_555
C1 C2 1_555 1_555
C2 C3 1_555 1_555
C3 C4 1_555 1_555
C4 O3 1_555 1_555
O1 C1 1_555 1_555
O2 C1 1_555 1_555
O3 Ni1 1_555 1_555
O4 C4 1_555 1_555
O5 Ni1 1_555 1_555
O6 Ni1 1_555 1_555
N1 Ni1 1_555 1_555
H1 N1 1_555 1_555
H2 N1 1_555 1_555
H3 C2 1_555 1_555
H4 C3 1_555 1_555
H5 C3 1_555 1_555
H6 O5 1_555 1_555
H7 O5 1_555 1_555
H8 O6 1_555 1_555
H9 O6 1_555 1_555
O7 H10 1_555 1_555
H11 O7 1_555 1_555
Ni1B O4 1_555 1_555
O4B Ni1 1_555 1_555
C2 N1 1_555 1_555

#END
