
#######################################################################
#
#                 Cambridge Crystallographic Data Centre
#                                CCDC 
#
#######################################################################
#
# If this CIF has been generated from an entry in the Cambridge 
# Structural Database, then it will include bibliographic, chemical, 
# crystal, experimental, refinement or atomic coordinate data resulting 
# from the CCDC's data processing and validation procedures.
#
#######################################################################

data_BOJKAM03
_symmetry_cell_setting           orthorhombic
_symmetry_space_group_name_H-M   'P 21 21 21'
_symmetry_Int_Tables_number      19
_space_group_name_Hall           'P 2ac 2ab'
loop_
_symmetry_equiv_pos_site_id
_symmetry_equiv_pos_as_xyz
1 x,y,z
2 1/2+x,1/2-y,-z
3 -x,1/2+y,1/2-z
4 1/2-x,-y,1/2+z
_cell_length_a                   11.2103(4)
_cell_length_b                   9.1455(2)
_cell_length_c                   7.7024(3)
_cell_angle_alpha                90
_cell_angle_beta                 90
_cell_angle_gamma                90
_cell_volume                     789.679
loop_
_atom_site_label
_atom_site_type_symbol
_atom_site_fract_x
_atom_site_fract_y
_atom_site_fract_z
Ni1 Ni 0.09646(3) 0.04542(3) 0.13456(4)
C1 C 0.2775(2) 0.2541(2) 0.1521(3)
C2 C 0.2197(2) 0.2724(2) -0.0260(3)
C3 C 0.1217(2) 0.3880(2) -0.0181(4)
C4 C 0.0188(2) 0.3604(2) 0.1053(3)
N1 N 0.1715(2) 0.1312(2) -0.0821(3)
O1 O 0.24583(18) 0.1453(2) 0.2443(3)
O2 O 0.3497(2) 0.3490(2) 0.2009(3)
O3 O 0.00580(19) 0.23982(18) 0.1815(3)
O4 O -0.05218(17) 0.46678(18) 0.1245(3)
O5 O 0.17931(19) -0.15640(19) 0.0911(3)
O6 O -0.06175(18) -0.0332(2) 0.0385(3)
H1 H 0.2275 0.0754 -0.1200
H2 H 0.1188 0.1430 -0.1620
H3 H 0.2807 0.3038 -0.1091
H4 H 0.1589 0.4794 0.0153
H5 H 0.0887 0.3972 -0.1341
H6 H 0.198(3) -0.175(4) -0.009(2)
H7 H 0.121(2) -0.207(3) 0.108(4)
H8 H -0.091(4) 0.017(3) -0.039(4)
H9 H -0.066(4) -0.1167(16) 0.000(4)
Ni1B Ni -0.09646(3) 0.54542(3) 0.36544(4)
O4B O 0.05218(17) -0.03322(18) 0.3755(3)
O7 O 0.0383(2) 0.1989(2) 0.5951(3)
H10 H -0.024(2) 0.186(4) 0.649(5)
H11 H 0.041(3) 0.130(3) 0.528(4)
loop_
_geom_bond_atom_site_label_1
_geom_bond_atom_site_label_2
_geom_bond_site_symmetry_1
_geom_bond_site_symmetry_2
Ni1 N1 1_555 1_555
C1 C2 1_555 1_555
C2 C3 1_555 1_555
C3 C4 1_555 1_555
C4 O3 1_555 1_555
N1 C2 1_555 1_555
O1 Ni1 1_555 1_555
O2 C1 1_555 1_555
O3 Ni1 1_555 1_555
O4 C4 1_555 1_555
O5 Ni1 1_555 1_555
O6 Ni1 1_555 1_555
H1 N1 1_555 1_555
H2 N1 1_555 1_555
H3 C2 1_555 1_555
H4 C3 1_555 1_555
H5 C3 1_555 1_555
H6 O5 1_555 1_555
H7 O5 1_555 1_555
H8 O6 1_555 1_555
H9 O6 1_555 1_555
O7 H10 1_555 1_555
H11 O7 1_555 1_555
Ni1B O4 1_555 1_555
O4B Ni1 1_555 1_555
C1 O1 1_555 1_555

#END
