
#######################################################################
#
#                 Cambridge Crystallographic Data Centre
#                                CCDC 
#
#######################################################################
#
# If this CIF has been generated from an entry in the Cambridge 
# Structural Database, then it will include bibliographic, chemical, 
# crystal, experimental, refinement or atomic coordinate data resulting 
# from the CCDC's data processing and validation procedures.
#
#######################################################################

data_BOJKAM02
_symmetry_cell_setting           orthorhombic
_symmetry_space_group_name_H-M   'P 21 21 21'
_symmetry_Int_Tables_number      19
_space_group_name_Hall           'P 2ac 2ab'
loop_
_symmetry_equiv_pos_site_id
_symmetry_equiv_pos_as_xyz
1 x,y,z
2 1/2+x,1/2-y,-z
3 -x,1/2+y,1/2-z
4 1/2-x,-y,1/2+z
_cell_length_a                   12.1614(4)
_cell_length_b                   8.9501(2)
_cell_length_c                   7.5626(3)
_cell_angle_alpha                90
_cell_angle_beta                 90
_cell_angle_gamma                90
_cell_volume                     823.157
loop_
_atom_site_label
_atom_site_type_symbol
_atom_site_fract_x
_atom_site_fract_y
_atom_site_fract_z
Ni1 Ni 0.07982(4) 0.06499(4) 0.12374(7)
C1 C 0.2733(3) 0.2247(3) 0.2056(5)
C2 C 0.2441(3) 0.2655(3) 0.0170(5)
C3 C 0.1724(3) 0.4072(3) 0.0136(6)
C4 C 0.0651(3) 0.4006(3) 0.1174(6)
O1 O 0.2104(2) 0.1312(3) 0.2833(4)
O2 O 0.3525(2) 0.2880(3) 0.2798(4)
O3 O 0.0178(2) 0.2776(2) 0.1463(5)
O4 O 0.0245(3) 0.5241(2) 0.1650(5)
O5 O 0.1383(2) -0.1532(2) 0.1159(5)
O6 O -0.0409(3) 0.0109(3) -0.0553(6)
N1 N 0.1854(3) 0.1396(3) -0.0650(5)
H1 H 0.2308 0.0702 -0.0945
H2 H 0.1499 0.1689 -0.1569
H3 H 0.3120 0.2844 -0.0492
H4 H 0.2159 0.4886 0.0614
H5 H 0.1544 0.4282 -0.1088
H6 H 0.144(3) -0.201(4) 0.024(3)
H7 H 0.091(3) -0.198(4) 0.172(5)
H8 H -0.075(4) 0.057(4) -0.131(6)
H9 H -0.064(4) -0.075(2) -0.065(7)
Ni1B Ni -0.07982(4) 0.56499(4) 0.37626(7)
O4B O -0.0245(3) 0.0241(2) 0.3350(5)
O7 O 0.0936(3) 0.2182(3) 0.5868(5)
H10 H 0.127(3) 0.195(6) 0.497(4)
H11 H 0.0296(14) 0.197(5) 0.564(6)
loop_
_geom_bond_atom_site_label_1
_geom_bond_atom_site_label_2
_geom_bond_site_symmetry_1
_geom_bond_site_symmetry_2
Ni1 O1 1_555 1_555
C1 C2 1_555 1_555
C2 C3 1_555 1_555
C3 C4 1_555 1_555
C4 O3 1_555 1_555
O1 C1 1_555 1_555
O2 C1 1_555 1_555
O3 Ni1 1_555 1_555
O4 C4 1_555 1_555
O5 Ni1 1_555 1_555
O6 Ni1 1_555 1_555
N1 Ni1 1_555 1_555
H1 N1 1_555 1_555
H2 N1 1_555 1_555
H3 C2 1_555 1_555
H4 C3 1_555 1_555
H5 C3 1_555 1_555
H6 O5 1_555 1_555
H7 O5 1_555 1_555
H8 O6 1_555 1_555
H9 O6 1_555 1_555
O7 H10 1_555 1_555
H11 O7 1_555 1_555
Ni1B O4 1_555 1_555
O4B Ni1 1_555 1_555
C2 N1 1_555 1_555

#END
