
#######################################################################
#
#                 Cambridge Crystallographic Data Centre
#                                CCDC 
#
#######################################################################
#
# If this CIF has been generated from an entry in the Cambridge 
# Structural Database, then it will include bibliographic, chemical, 
# crystal, experimental, refinement or atomic coordinate data resulting 
# from the CCDC's data processing and validation procedures.
#
#######################################################################

data_BOJKAM09
_symmetry_cell_setting           orthorhombic
_symmetry_space_group_name_H-M   'P 21 21 21'
_symmetry_Int_Tables_number      19
_space_group_name_Hall           'P 2ac 2ab'
loop_
_symmetry_equiv_pos_site_id
_symmetry_equiv_pos_as_xyz
1 x,y,z
2 1/2+x,1/2-y,-z
3 -x,1/2+y,1/2-z
4 1/2-x,-y,1/2+z
_cell_length_a                   10.4702(9)
_cell_length_b                   8.9832(6)
_cell_length_c                   7.4977(8)
_cell_angle_alpha                90
_cell_angle_beta                 90
_cell_angle_gamma                90
_cell_volume                     705.203
loop_
_atom_site_label
_atom_site_type_symbol
_atom_site_fract_x
_atom_site_fract_y
_atom_site_fract_z
Ni1 Ni 0.09702(7) 0.03814(8) 0.12491(12)
C1 C 0.2805(5) 0.2569(5) 0.1333(8)
C2 C 0.2178(5) 0.2708(5) -0.0489(8)
C3 C 0.1121(6) 0.3863(5) -0.0384(8)
C4 C 0.0097(5) 0.3573(5) 0.0978(9)
N1 N 0.1655(5) 0.1264(5) -0.1016(9)
O1 O 0.2613(5) 0.1397(4) 0.2218(7)
O2 O 0.3459(5) 0.3636(5) 0.1891(7)
O3 O 0.0039(5) 0.2358(4) 0.1814(7)
O4 O -0.0675(3) 0.4636(4) 0.1235(7)
O5 O 0.1892(5) -0.1630(5) 0.0736(7)
O6 O -0.0770(4) -0.0453(5) 0.0581(6)
H1 H 0.2264 0.0721 -0.1407
H2 H 0.1086 0.1383 -0.1760
H3 H 0.2817 0.3039 -0.1319
H4 H 0.1524 0.4825 -0.0067
H5 H 0.0749 0.3936 -0.1526
H6 H 0.210(7) -0.147(8) -0.030(3)
H7 H 0.127(4) -0.218(7) 0.064(8)
H8 H -0.064(7) -0.001(6) -0.036(4)
H9 H -0.113(7) -0.122(5) 0.028(8)
Ni1B Ni -0.09702(7) 0.53814(8) 0.37509(12)
O4B O 0.0675(3) -0.0364(4) 0.3765(7)
O7 O 0.0293(5) 0.1941(5) 0.5827(8)
H10 H -0.028(5) 0.213(8) 0.653(8)
H11 H -0.008(6) 0.165(9) 0.493(6)
loop_
_geom_bond_atom_site_label_1
_geom_bond_atom_site_label_2
_geom_bond_site_symmetry_1
_geom_bond_site_symmetry_2
Ni1 N1 1_555 1_555
C1 C2 1_555 1_555
C2 C3 1_555 1_555
C3 C4 1_555 1_555
C4 O3 1_555 1_555
N1 C2 1_555 1_555
O1 Ni1 1_555 1_555
O2 C1 1_555 1_555
O3 Ni1 1_555 1_555
O4 C4 1_555 1_555
O5 Ni1 1_555 1_555
O6 Ni1 1_555 1_555
H1 N1 1_555 1_555
H2 N1 1_555 1_555
H3 C2 1_555 1_555
H4 C3 1_555 1_555
H5 C3 1_555 1_555
H6 O5 1_555 1_555
H7 O5 1_555 1_555
H8 O6 1_555 1_555
H9 O6 1_555 1_555
O7 H10 1_555 1_555
H11 O7 1_555 1_555
Ni1B O4 1_555 1_555
O4B Ni1 1_555 1_555
C1 O1 1_555 1_555

#END
