
#######################################################################
#
#                 Cambridge Crystallographic Data Centre
#                                CCDC 
#
#######################################################################
#
# If this CIF has been generated from an entry in the Cambridge 
# Structural Database, then it will include bibliographic, chemical, 
# crystal, experimental, refinement or atomic coordinate data resulting 
# from the CCDC's data processing and validation procedures.
#
#######################################################################

data_BOJLOC
_symmetry_cell_setting           monoclinic
_symmetry_space_group_name_H-M   'P 21/n'
_symmetry_Int_Tables_number      14
_space_group_name_Hall           '-P 2yn'
loop_
_symmetry_equiv_pos_site_id
_symmetry_equiv_pos_as_xyz
1 x,y,z
2 1/2-x,1/2+y,1/2-z
3 -x,-y,-z
4 1/2+x,1/2-y,1/2+z
_cell_length_a                   6.4123(13)
_cell_length_b                   9.7238(19)
_cell_length_c                   10.596(2)
_cell_angle_alpha                90
_cell_angle_beta                 95.12(3)
_cell_angle_gamma                90
_cell_volume                     658.045
loop_
_atom_site_label
_atom_site_type_symbol
_atom_site_fract_x
_atom_site_fract_y
_atom_site_fract_z
Mn1 Mn 0.03219(6) 0.66376(4) 0.86690(3)
N1 N -0.1346(4) 0.66363(19) 1.0479(2)
N2 N -0.1489(4) 0.5597(2) 1.1314(2)
N3 N -0.2257(4) 0.6042(2) 1.2329(2)
N4 N -0.2690(4) 0.7399(2) 1.2197(2)
N5 N -0.2171(4) 0.9040(2) 1.0617(2)
H1 H -0.2182 0.9700 1.1156
N6 N -0.3078(4) 1.0549(2) 0.8919(2)
N7 N -0.2822(4) 1.0504(2) 0.7663(2)
N8 N -0.1900(4) 0.9370(2) 0.7383(2)
N9 N -0.1488(4) 0.8616(2) 0.8457(2)
C1 C -0.2074(4) 0.7725(3) 1.1068(2)
C2 C -0.2253(4) 0.9373(2) 0.9359(2)
O1 O 0.3183(3) 0.6918(2) 0.9936(2)
H2 H 0.352(6) 0.7646(18) 1.034(3)
H3 H 0.334(6) 0.627(2) 1.047(3)
Mn1B Mn -0.03219(6) 0.33624(4) 1.13310(3)
Mn1C Mn -0.46781(6) 0.83624(4) 1.36690(3)
Mn1A Mn -0.53219(6) 1.16376(4) 0.63310(3)
N2B N 0.1489(4) 0.4403(2) 0.8686(2)
N4C N 0.2310(4) 0.7601(2) 0.7197(2)
N7A N -0.2178(4) 0.5504(2) 0.7337(2)
loop_
_geom_bond_atom_site_label_1
_geom_bond_atom_site_label_2
_geom_bond_site_symmetry_1
_geom_bond_site_symmetry_2
Mn1 N1 1_555 1_555
N1 N2 1_555 1_555
N2 N3 1_555 1_555
N3 N4 1_555 1_555
N4 C1 1_555 1_555
N5 H1 1_555 1_555
N6 N7 1_555 1_555
N7 N8 1_555 1_555
N8 N9 1_555 1_555
N9 Mn1 1_555 1_555
C1 N1 1_555 1_555
C2 N5 1_555 1_555
O1 Mn1 1_555 1_555
H2 O1 1_555 1_555
H3 O1 1_555 1_555
Mn1B N2 1_555 1_555
Mn1C N4 1_555 1_555
Mn1A N7 1_555 1_555
N2B Mn1 1_555 1_555
N4C Mn1 1_555 1_555
N7A Mn1 1_555 1_555
N5 C1 1_555 1_555
N6 C2 1_555 1_555
N9 C2 1_555 1_555

#END
