
#######################################################################
#
#                 Cambridge Crystallographic Data Centre
#                                CCDC 
#
#######################################################################
#
# If this CIF has been generated from an entry in the Cambridge 
# Structural Database, then it will include bibliographic, chemical, 
# crystal, experimental, refinement or atomic coordinate data resulting 
# from the CCDC's data processing and validation procedures.
#
#######################################################################

data_BOJLIW
_symmetry_cell_setting           orthorhombic
_symmetry_space_group_name_H-M   'I b a m'
_symmetry_Int_Tables_number      72
_space_group_name_Hall           '-I 2 2c'
loop_
_symmetry_equiv_pos_site_id
_symmetry_equiv_pos_as_xyz
1 x,y,z
2 1/2+x,1/2+y,1/2+z
3 -x,-y,z
4 1/2-x,1/2+y,-z
5 1/2+x,1/2-y,-z
6 1/2-x,1/2-y,1/2+z
7 -x,y,1/2-z
8 x,-y,1/2-z
9 -x,-y,-z
10 1/2-x,1/2-y,1/2-z
11 x,y,-z
12 1/2+x,1/2-y,z
13 1/2-x,1/2+y,z
14 1/2+x,1/2+y,1/2-z
15 x,-y,1/2+z
16 -x,y,1/2+z
_cell_length_a                   9.286(3)
_cell_length_b                   11.406(4)
_cell_length_c                   25.703(8)
_cell_angle_alpha                90
_cell_angle_beta                 90
_cell_angle_gamma                90
_cell_volume                     2722.36
loop_
_atom_site_label
_atom_site_type_symbol
_atom_site_fract_x
_atom_site_fract_y
_atom_site_fract_z
Mn1 Mn 0.0000 0.5000 0.0000
Mn2 Mn 0.5000 0.5000 0.176271(13)
N1 N 0.33489(14) 0.43581(12) 0.11825(5)
N2 N 0.24409(16) 0.50344(10) 0.09019(6)
N3 N 0.16391(13) 0.43645(13) 0.06099(5)
N4 N 0.19808(15) 0.32308(11) 0.06762(5)
N5 N 0.36353(15) 0.22502(12) 0.12157(5)
H1 H 0.3324 0.1598 0.1091
N6 N 0.52328(16) 0.12043(17) 0.17635(5)
H2 H 0.4975 0.0504 0.1682
N7 N 0.62781(14) 0.15201(12) 0.21091(5)
N8 N 0.63446(15) 0.26468(13) 0.21259(5)
N9 N 0.53582(18) 0.31197(12) 0.17922(5)
C1 C 0.30252(17) 0.32608(13) 0.10349(6)
C2 C 0.46943(19) 0.21984(15) 0.15776(6)
O1 O 0.3486(2) 0.5000 0.2500
H3 H 0.2485 0.5000 0.2500
O2 O -0.1030(3) 0.33254(18) 0.0000
H4 H -0.1944(11) 0.328(3) 0.0000
H5 H -0.080(3) 0.2603(13) 0.0000
Mn2J Mn 0.5000 0.5000 -0.176271(13)
Mn2F Mn 0.5000 0.5000 0.323729(13)
Mn2J_2 Mn -0.5000 0.5000 -0.176271(13)
Mn2_2 Mn -0.5000 0.5000 0.176271(13)
N1J N 0.33489(14) 0.43581(12) -0.11825(5)
N1H N -0.33489(14) 0.56419(12) -0.11825(5)
N1B N -0.33489(14) 0.56419(12) 0.11825(5)
N1B_2 N 0.66511(14) 0.56419(12) 0.11825(5)
N1H_2 N 0.66511(14) 0.56419(12) -0.11825(5)
N2J N 0.24409(16) 0.50344(10) -0.09019(6)
N2H N -0.24409(16) 0.49656(10) -0.09019(6)
N2B N -0.24409(16) 0.49656(10) 0.09019(6)
N3J N 0.16391(13) 0.43645(13) -0.06099(5)
N3H N -0.16391(13) 0.56355(13) -0.06099(5)
N3B N -0.16391(13) 0.56355(13) 0.06099(5)
N4J N 0.19808(15) 0.32308(11) -0.06762(5)
N4H N -0.19808(15) 0.67692(11) -0.06762(5)
N4B N -0.19808(15) 0.67692(11) 0.06762(5)
N5J N 0.36353(15) 0.22502(12) -0.12157(5)
N5H N -0.36353(15) 0.77498(12) -0.12157(5)
N5B N -0.36353(15) 0.77498(12) 0.12157(5)
H1J H 0.3324 0.1598 -0.1091
H1H H -0.3324 0.8402 -0.1091
H1B H -0.3324 0.8402 0.1091
N6J N 0.52328(16) 0.12043(17) -0.17635(5)
N6H N -0.52328(16) 0.87957(17) -0.17635(5)
N6B N -0.52328(16) 0.87957(17) 0.17635(5)
H2J H 0.4975 0.0504 -0.1682
H2H H -0.4975 0.9496 -0.1682
H2B H -0.4975 0.9496 0.1682
N7J N 0.62781(14) 0.15201(12) -0.21091(5)
N7H N -0.62781(14) 0.84799(12) -0.21091(5)
N7B N -0.62781(14) 0.84799(12) 0.21091(5)
N8J N 0.63446(15) 0.26468(13) -0.21259(5)
N8H N -0.63446(15) 0.73532(13) -0.21259(5)
N8B N -0.63446(15) 0.73532(13) 0.21259(5)
N9J N 0.53582(18) 0.31197(12) -0.17922(5)
N9H N -0.53582(18) 0.68803(12) -0.17922(5)
N9B N -0.53582(18) 0.68803(12) 0.17922(5)
N9B_2 N 0.46418(18) 0.68803(12) 0.17922(5)
N9H_2 N 0.46418(18) 0.68803(12) -0.17922(5)
C1J C 0.30252(17) 0.32608(13) -0.10349(6)
C1H C -0.30252(17) 0.67392(13) -0.10349(6)
C1B C -0.30252(17) 0.67392(13) 0.10349(6)
C2J C 0.46943(19) 0.21984(15) -0.15776(6)
C2H C -0.46943(19) 0.78016(15) -0.15776(6)
C2B C -0.46943(19) 0.78016(15) 0.15776(6)
O1B O 0.6514(2) 0.5000 0.2500
O1J O 0.3486(2) 0.5000 -0.2500
O1O O 0.6514(2) 0.5000 -0.2500
H3B H 0.7515 0.5000 0.2500
H3J H 0.2485 0.5000 -0.2500
H3O H 0.7515 0.5000 -0.2500
O2H O 0.1030(3) 0.66746(18) 0.0000
H4H H 0.1944(11) 0.672(3) 0.0000
H5H H 0.080(3) 0.7397(13) 0.0000
O3 O 0.0452(4) 0.1246(3) 0.0000
H6 H 0.108(3) 0.152(4) 0.0212(13)
H6J H 0.108(3) 0.152(4) -0.0212(13)
loop_
_geom_bond_atom_site_label_1
_geom_bond_atom_site_label_2
_geom_bond_site_symmetry_1
_geom_bond_site_symmetry_2
Mn1 N3 1_555 1_555
Mn2 N1 1_555 1_555
N1 N2 1_555 1_555
N2 N3 1_555 1_555
N3 N4 1_555 1_555
N4 C1 1_555 1_555
N5 H1 1_555 1_555
N6 H2 1_555 1_555
N7 N6 1_555 1_555
N8 N7 1_555 1_555
N9 Mn2 1_555 1_555
C1 N1 1_555 1_555
C2 N5 1_555 1_555
O1 Mn2 1_555 1_555
H3 O1 1_555 1_555
O2 Mn1 1_555 1_555
H4 O2 1_555 1_555
H5 O2 1_555 1_555
O3 H6 1_555 1_555
Mn2J N1J 1_555 1_555
Mn2F O1 1_555 1_555
Mn2J_2 N1H 1_555 1_555
Mn2_2 N1B 1_555 1_555
N1J N2J 1_555 1_555
N1H N2H 1_555 1_555
N1B N2B 1_555 1_555
N1B_2 Mn2 1_555 1_555
N1H_2 Mn2J 1_555 1_555
N2J N3J 1_555 1_555
N2H N3H 1_555 1_555
N2B N3B 1_555 1_555
N3J Mn1 1_555 1_555
N3H Mn1 1_555 1_555
N3B Mn1 1_555 1_555
N4J N3J 1_555 1_555
N4H N3H 1_555 1_555
N4B N3B 1_555 1_555
N5J H1J 1_555 1_555
N5H H1H 1_555 1_555
N5B H1B 1_555 1_555
N6J H2J 1_555 1_555
N6H H2H 1_555 1_555
N6B H2B 1_555 1_555
N7J N6J 1_555 1_555
N7H N6H 1_555 1_555
N7B N6B 1_555 1_555
N8J N7J 1_555 1_555
N8H N7H 1_555 1_555
N8B N7B 1_555 1_555
N9J Mn2J 1_555 1_555
N9H Mn2J_2 1_555 1_555
N9B Mn2_2 1_555 1_555
N9B_2 Mn2 1_555 1_555
N9H_2 Mn2J 1_555 1_555
C1J N1J 1_555 1_555
C1H N1H 1_555 1_555
C1B N1B 1_555 1_555
C2J N5J 1_555 1_555
C2H N5H 1_555 1_555
C2B N5B 1_555 1_555
O1B Mn2 1_555 1_555
O1J Mn2J 1_555 1_555
O1O Mn2J 1_555 1_555
H3B O1B 1_555 1_555
H3J O1J 1_555 1_555
H3O O1O 1_555 1_555
O2H Mn1 1_555 1_555
H4H O2H 1_555 1_555
H5H O2H 1_555 1_555
H6J O3 1_555 1_555
N5 C1 1_555 1_555
N6 C2 1_555 1_555
N8 N9 1_555 1_555
N9 C2 1_555 1_555
Mn2F O1B 1_555 1_555
N4J C1J 1_555 1_555
N4H C1H 1_555 1_555
N4B C1B 1_555 1_555
N5J C1J 1_555 1_555
N5H C1H 1_555 1_555
N5B C1B 1_555 1_555
N6J C2J 1_555 1_555
N6H C2H 1_555 1_555
N6B C2B 1_555 1_555
N8J N9J 1_555 1_555
N8H N9H 1_555 1_555
N8B N9B 1_555 1_555
N9J C2J 1_555 1_555
N9H C2H 1_555 1_555
N9B C2B 1_555 1_555

#END
