
#######################################################################
#
#                 Cambridge Crystallographic Data Centre
#                                CCDC 
#
#######################################################################
#
# If this CIF has been generated from an entry in the Cambridge 
# Structural Database, then it will include bibliographic, chemical, 
# crystal, experimental, refinement or atomic coordinate data resulting 
# from the CCDC's data processing and validation procedures.
#
#######################################################################

data_BOJLOC01
_symmetry_cell_setting           monoclinic
_symmetry_space_group_name_H-M   'P 21/n'
_symmetry_Int_Tables_number      14
_space_group_name_Hall           '-P 2yn'
loop_
_symmetry_equiv_pos_site_id
_symmetry_equiv_pos_as_xyz
1 x,y,z
2 1/2-x,1/2+y,1/2-z
3 -x,-y,-z
4 1/2+x,1/2-y,1/2+z
_cell_length_a                   6.4026(7)
_cell_length_b                   9.7202(9)
_cell_length_c                   10.5861(9)
_cell_angle_alpha                90
_cell_angle_beta                 95.079(5)
_cell_angle_gamma                90
_cell_volume                     656.234
loop_
_atom_site_label
_atom_site_type_symbol
_atom_site_fract_x
_atom_site_fract_y
_atom_site_fract_z
Mn1 Mn 0.53216(5) 0.16384(3) -0.63311(3)
N1 N 0.3660(3) 0.16380(18) -0.45239(17)
N2 N 0.3519(3) 0.05948(19) -0.36849(17)
N3 N 0.2746(3) 0.10407(19) -0.26678(17)
N4 N 0.2314(3) 0.23997(19) -0.27988(16)
N5 N 0.2819(3) 0.4040(2) -0.43806(17)
H1 H 0.256(5) 0.461(3) -0.389(3)
N6 N 0.3516(3) 0.36192(19) -0.65426(17)
N7 N 0.3103(3) 0.4367(2) -0.76177(17)
N8 N 0.2181(3) 0.5507(2) -0.73399(18)
N9 N 0.1922(3) 0.55535(19) -0.60838(18)
O1 O 0.8188(3) 0.1917(2) -0.50656(17)
H2 H 0.825(6) 0.139(4) -0.442(4)
H3 H 0.832(6) 0.267(5) -0.474(4)
C1 C 0.2927(3) 0.2726(2) -0.39348(19)
C2 C 0.2744(3) 0.4376(2) -0.5642(2)
Mn1B Mn 0.46784(5) -0.16384(3) -0.36689(3)
Mn1C Mn 0.03216(5) 0.33616(3) -0.13311(3)
Mn1A Mn -0.03216(5) 0.66384(3) -0.86689(3)
N2B N 0.6481(3) -0.05948(19) -0.63151(17)
N4C N 0.7314(3) 0.26003(19) -0.77988(16)
N8A N 0.2819(3) 0.0507(2) -0.76601(18)
loop_
_geom_bond_atom_site_label_1
_geom_bond_atom_site_label_2
_geom_bond_site_symmetry_1
_geom_bond_site_symmetry_2
Mn1 N1 1_555 1_555
N1 N2 1_555 1_555
N2 N3 1_555 1_555
N3 N4 1_555 1_555
N4 C1 1_555 1_555
N5 H1 1_555 1_555
N6 Mn1 1_555 1_555
N7 N6 1_555 1_555
N8 N7 1_555 1_555
N9 N8 1_555 1_555
O1 Mn1 1_555 1_555
H2 O1 1_555 1_555
H3 O1 1_555 1_555
C1 N1 1_555 1_555
C2 N5 1_555 1_555
Mn1B N2 1_555 1_555
Mn1C N4 1_555 1_555
Mn1A N8 1_555 1_555
N2B Mn1 1_555 1_555
N4C Mn1 1_555 1_555
N8A Mn1 1_555 1_555
N5 C1 1_555 1_555
N6 C2 1_555 1_555
N9 C2 1_555 1_555

#END
