
#######################################################################
#
#                 Cambridge Crystallographic Data Centre
#                                CCDC 
#
#######################################################################
#
# If this CIF has been generated from an entry in the Cambridge 
# Structural Database, then it will include bibliographic, chemical, 
# crystal, experimental, refinement or atomic coordinate data resulting 
# from the CCDC's data processing and validation procedures.
#
#######################################################################

data_BOJMIY
_symmetry_cell_setting           triclinic
_symmetry_space_group_name_H-M   'P -1'
_symmetry_Int_Tables_number      2
_space_group_name_Hall           '-P 1'
loop_
_symmetry_equiv_pos_site_id
_symmetry_equiv_pos_as_xyz
1 x,y,z
2 -x,-y,-z
_cell_length_a                   10.1347(8)
_cell_length_b                   10.8117(8)
_cell_length_c                   13.1228(10)
_cell_angle_alpha                104.7052(8)
_cell_angle_beta                 91.9422(9)
_cell_angle_gamma                109.1931(8)
_cell_volume                     1302.62
loop_
_atom_site_label
_atom_site_type_symbol
_atom_site_fract_x
_atom_site_fract_y
_atom_site_fract_z
S1 S -0.88074(4) -0.77646(4) 0.62149(3)
S2 S -0.35011(4) -0.59612(4) 0.56162(3)
P1 P -0.57652(4) -0.51296(4) 0.71956(3)
F1 F -0.26595(13) 0.14309(11) 1.01540(10)
F2 F -0.09788(12) 0.07090(12) 1.03699(12)
F3 F -0.26323(16) 0.04126(12) 1.13400(9)
O1 O -0.95629(14) -0.71171(14) 0.56979(10)
O2 O -0.96203(14) -0.91478(12) 0.62009(10)
O3 O -0.74535(12) -0.76605(12) 0.58334(9)
O4 O -0.47350(12) -0.67532(12) 0.48458(9)
O5 O -0.32493(13) -0.45050(11) 0.59589(9)
O6 O -0.22425(12) -0.62257(13) 0.52775(10)
O7 O -1.00606(14) -0.63539(14) 0.37280(11)
H1 H -0.932(2) -0.583(3) 0.397(2)
O8 O -1.21097(15) -0.91201(15) 0.42226(15)
H2 H -1.174(3) -0.963(3) 0.415(2)
C1 C -0.72324(16) -0.56333(15) 0.79934(12)
C2 C -0.84517(16) -0.67838(15) 0.75728(12)
C3 C -0.95258(17) -0.71766(17) 0.81829(13)
H3 H -1.0327 -0.7974 0.7884
C4 C -0.94398(17) -0.64159(17) 0.92239(14)
H4 H -1.0172 -0.6691 0.9640
C5 C -0.82723(17) -0.52507(17) 0.96473(13)
H5 H -0.8213 -0.4705 1.0352
C6 C -0.71854(17) -0.48771(16) 0.90430(13)
H6 H -0.6385 -0.4083 0.9352
C7 C -0.46598(16) -0.35031(15) 0.81433(12)
C8 C -0.49182(17) -0.23380(16) 0.80650(14)
H7 H -0.5598 -0.2410 0.7516
C9 C -0.41918(17) -0.10712(16) 0.87811(14)
H8 H -0.4393 -0.0289 0.8731
C10 C -0.31747(17) -0.09556(16) 0.95662(13)
C11 C -0.28749(17) -0.21001(17) 0.96401(13)
H9 H -0.2166 -0.2017 1.0172
C12 C -0.36164(17) -0.33604(16) 0.89337(13)
H10 H -0.3413 -0.4140 0.8987
C13 C -0.23650(18) 0.03895(17) 1.03480(14)
C14 C -0.48047(15) -0.62507(15) 0.74266(12)
C15 C -0.50355(16) -0.68302(16) 0.82734(12)
H11 H -0.5696 -0.6646 0.8731
C16 C -0.43251(17) -0.76677(16) 0.84630(13)
H12 H -0.4505 -0.8050 0.9043
C17 C -0.33558(17) -0.79450(17) 0.78072(14)
H13 H -0.2868 -0.8517 0.7935
C18 C -0.30998(17) -0.73827(16) 0.69615(13)
H14 H -0.2430 -0.7566 0.6513
C19 C -0.38201(16) -0.65517(15) 0.67687(12)
C20 C -1.0498(3) -0.6094(2) 0.27990(18)
H15 H -0.9945 -0.6350 0.2237
H16 H -1.0353 -0.5120 0.2944
H17 H -1.1499 -0.6630 0.2569
C21 C -1.3555(2) -0.9798(2) 0.4004(2)
H18 H -1.3794 -1.0369 0.3266
H19 H -1.4034 -0.9130 0.4110
H20 H -1.3859 -1.0374 0.4482
O9 O -0.79852(14) -0.87201(14) 0.35302(10)
H21 H -0.846(3) -0.929(3) 0.373(2)
C22 C -0.87768(19) -0.87547(19) 0.26003(14)
H22 H -0.8863 -0.9579 0.2036
H23 H -0.8295 -0.7947 0.2367
H24 H -0.9717 -0.8762 0.2758
Li1 Li -0.6731(3) -0.7039(3) 0.4590(2)
Li2 Li -1.1048(3) -0.7236(3) 0.4699(2)
O5A O -0.67507(13) -0.54950(11) 0.40411(9)
O6_2 O -1.22425(12) -0.62257(13) 0.52775(10)
Li1A Li -0.3269(3) -0.2961(3) 0.5410(2)
Li2_2 Li -0.1048(3) -0.7236(3) 0.4699(2)
loop_
_geom_bond_atom_site_label_1
_geom_bond_atom_site_label_2
_geom_bond_site_symmetry_1
_geom_bond_site_symmetry_2
S1 O1 1_555 1_555
S2 O4 1_555 1_555
P1 C1 1_555 1_555
F1 C13 1_555 1_555
F2 C13 1_555 1_555
F3 C13 1_555 1_555
O1 Li2 1_555 1_555
O2 S1 1_555 1_555
O3 S1 1_555 1_555
O4 Li1 1_555 1_555
O5 S2 1_555 1_555
O6 S2 1_555 1_555
O7 H1 1_555 1_555
O8 H2 1_555 1_555
C1 C2 1_555 1_555
C2 S1 1_555 1_555
C3 C2 1_555 1_555
H3 C3 1_555 1_555
C4 C3 1_555 1_555
H4 C4 1_555 1_555
C5 C4 1_555 1_555
H5 C5 1_555 1_555
C6 C1 1_555 1_555
H6 C6 1_555 1_555
C7 P1 1_555 1_555
C8 C7 1_555 1_555
H7 C8 1_555 1_555
C9 C8 1_555 1_555
H8 C9 1_555 1_555
C10 C9 1_555 1_555
C11 C10 1_555 1_555
H9 C11 1_555 1_555
C12 C7 1_555 1_555
H10 C12 1_555 1_555
C13 C10 1_555 1_555
C14 P1 1_555 1_555
C15 C14 1_555 1_555
H11 C15 1_555 1_555
C16 C15 1_555 1_555
H12 C16 1_555 1_555
C17 C16 1_555 1_555
H13 C17 1_555 1_555
C18 C17 1_555 1_555
H14 C18 1_555 1_555
C19 S2 1_555 1_555
C20 O7 1_555 1_555
H15 C20 1_555 1_555
H16 C20 1_555 1_555
H17 C20 1_555 1_555
C21 O8 1_555 1_555
H18 C21 1_555 1_555
H19 C21 1_555 1_555
H20 C21 1_555 1_555
O9 H21 1_555 1_555
C22 O9 1_555 1_555
H22 C22 1_555 1_555
H23 C22 1_555 1_555
H24 C22 1_555 1_555
Li1 O3 1_555 1_555
Li2 O7 1_555 1_555
O5A Li1 1_555 1_555
O6_2 Li2 1_555 1_555
Li1A O5 1_555 1_555
Li2_2 O6 1_555 1_555
O8 Li2 1_555 1_555
C5 C6 1_555 1_555
C11 C12 1_555 1_555
C14 C19 1_555 1_555
C18 C19 1_555 1_555
O9 Li1 1_555 1_555

#END
