
#######################################################################
#
#                 Cambridge Crystallographic Data Centre
#                                CCDC 
#
#######################################################################
#
# If this CIF has been generated from an entry in the Cambridge 
# Structural Database, then it will include bibliographic, chemical, 
# crystal, experimental, refinement or atomic coordinate data resulting 
# from the CCDC's data processing and validation procedures.
#
#######################################################################

data_BOJRID
_symmetry_cell_setting           monoclinic
_symmetry_space_group_name_H-M   'P 21/n'
_symmetry_Int_Tables_number      14
_space_group_name_Hall           '-P 2yn'
loop_
_symmetry_equiv_pos_site_id
_symmetry_equiv_pos_as_xyz
1 x,y,z
2 1/2-x,1/2+y,1/2-z
3 -x,-y,-z
4 1/2+x,1/2-y,1/2+z
_cell_length_a                   10.176(2)
_cell_length_b                   29.092(6)
_cell_length_c                   12.453(3)
_cell_angle_alpha                90
_cell_angle_beta                 112.994(4)
_cell_angle_gamma                90
_cell_volume                     3393.67
loop_
_atom_site_label
_atom_site_type_symbol
_atom_site_fract_x
_atom_site_fract_y
_atom_site_fract_z
Br1 Br -0.04823(3) 1.039583(10) 0.13901(3)
C1 C 0.3144(5) 0.97159(16) 0.3064(4)
H1 H 0.2755 0.9966 0.3300
C2 C 0.4027(5) 0.94456(15) 0.3882(4)
H2 H 0.4207 0.9503 0.4661
C3 C 0.4687(4) 0.90782(14) 0.3589(3)
C4 C 0.4283(5) 0.90033(16) 0.2430(4)
H3 H 0.4638 0.8749 0.2176
C5 C 0.3357(4) 0.92976(15) 0.1627(4)
H4 H 0.3145 0.9238 0.0843
C6 C 0.5721(4) 0.86822(14) 0.5588(3)
H5 H 0.5068 0.8837 0.5811
C7 C 0.6649(4) 0.83834(15) 0.6345(3)
H6 H 0.6603 0.8334 0.7067
C8 C 0.7669(4) 0.81493(14) 0.6068(3)
C9 C 0.7710(4) 0.82427(15) 0.4968(4)
H7 H 0.8391 0.8098 0.4761
C10 C 0.5720(4) 0.87662(14) 0.4457(3)
C11 C 0.6751(4) 0.85478(16) 0.4185(4)
H8 H 0.6808 0.8604 0.3469
C12 C 0.9046(4) 0.78861(13) 0.8057(3)
C13 C 0.9895(4) 0.83573(15) 0.9788(3)
H9 H 1.0187 0.8643 1.0135
C14 C 0.9468(4) 0.75527(15) 0.9926(3)
H10 H 0.9469 0.7293 1.0361
C15 C 1.0333(4) 0.80303(16) 1.1774(3)
C16 C 0.9883(4) 0.79782(14) 1.0481(3)
C17 C 0.9474(5) 0.83112(14) 0.8591(3)
H11 H 0.9478 0.8566 0.8142
C18 C 1.0525(5) 0.7736(2) 1.3632(4)
H12 H 1.0332 0.7500 1.4054
C19 C 1.0095(4) 0.76777(18) 1.2453(4)
H13 H 0.9648 0.7407 1.2101
C20 C 0.9057(4) 0.75190(15) 0.8736(4)
H14 H 0.8776 0.7234 0.8383
C21 C 0.9257(4) 0.74838(13) 0.6419(3)
C22 C 1.2390(4) 0.61636(15) 0.6144(4)
H15 H 1.2730 0.6256 0.6920
C23 C 1.0555(4) 0.67667(13) 0.5679(3)
C24 C 0.9126(4) 0.68542(14) 0.5146(3)
H16 H 0.8578 0.6672 0.4517
C25 C 1.1280(4) 0.63871(14) 0.5357(3)
C26 C 1.1326(4) 0.70549(15) 0.6588(4)
H17 H 1.2303 0.7008 0.6971
C27 C 0.8463(4) 0.71996(15) 0.5497(3)
H18 H 0.7484 0.7243 0.5118
C28 C 1.0696(4) 0.74085(14) 0.6947(4)
H19 H 1.1255 0.7599 0.7554
C29 C 1.0858(5) 0.62359(17) 0.4203(4)
H20 H 1.0117 0.6383 0.3607
C30 C 1.1544(5) 0.58696(18) 0.3958(4)
H21 H 1.1215 0.5775 0.3184
C31 C 1.3053(5) 0.57953(15) 0.5835(4)
H22 H 1.3816 0.5651 0.6418
C32 C 1.1084(5) 0.84152(19) 1.2372(4)
H23 H 1.1316 0.8650 1.1971
C33 C 1.1478(6) 0.8444(2) 1.3555(4)
H24 H 1.1960 0.8707 1.3929
Cu1 Cu 0.14166(6) 1.008023(19) 0.06352(5)
N1 N 0.2759(4) 0.96498(12) 0.1874(3)
N2 N 0.8590(3) 0.78346(11) 0.6812(3)
N3 N 1.1213(5) 0.81131(18) 1.4227(4)
N4 N 1.2637(3) 0.56372(12) 0.4723(3)
Br1B Br 0.04823(3) 0.960417(10) -0.13901(3)
Cu1A Cu 1.35834(6) 0.508023(19) 0.43648(5)
Cu1B Cu -0.14166(6) 0.991977(19) -0.06352(5)
N4A N 0.2363(3) 1.06372(12) 0.0277(3)
loop_
_geom_bond_atom_site_label_1
_geom_bond_atom_site_label_2
_geom_bond_site_symmetry_1
_geom_bond_site_symmetry_2
Br1 Cu1 1_555 1_555
C1 H1 1_555 1_555
C2 C1 1_555 1_555
H2 C2 1_555 1_555
C3 C2 1_555 1_555
C4 C3 1_555 1_555
H3 C4 1_555 1_555
C5 C4 1_555 1_555
H4 C5 1_555 1_555
C6 H5 1_555 1_555
C7 C6 1_555 1_555
H6 C7 1_555 1_555
C8 C7 1_555 1_555
C9 C8 1_555 1_555
H7 C9 1_555 1_555
C10 C3 1_555 1_555
C11 C9 1_555 1_555
H8 C11 1_555 1_555
C12 C17 1_555 1_555
C13 H9 1_555 1_555
C14 H10 1_555 1_555
C15 C16 1_555 1_555
C16 C13 1_555 1_555
C17 C13 1_555 1_555
H11 C17 1_555 1_555
C18 H12 1_555 1_555
C19 C15 1_555 1_555
H13 C19 1_555 1_555
C20 C12 1_555 1_555
H14 C20 1_555 1_555
C21 C27 1_555 1_555
C22 H15 1_555 1_555
C23 C24 1_555 1_555
C24 H16 1_555 1_555
C25 C22 1_555 1_555
C26 C23 1_555 1_555
H17 C26 1_555 1_555
C27 C24 1_555 1_555
H18 C27 1_555 1_555
C28 C21 1_555 1_555
H19 C28 1_555 1_555
C29 C25 1_555 1_555
H20 C29 1_555 1_555
C30 C29 1_555 1_555
H21 C30 1_555 1_555
C31 C22 1_555 1_555
H22 C31 1_555 1_555
C32 C15 1_555 1_555
H23 C32 1_555 1_555
C33 C32 1_555 1_555
H24 C33 1_555 1_555
Cu1 N1 1_555 1_555
N1 C1 1_555 1_555
N2 C8 1_555 1_555
N3 C18 1_555 1_555
N4 C30 1_555 1_555
Br1B Cu1 1_555 1_555
Cu1A N4 1_555 1_555
Cu1B Br1 1_555 1_555
N4A Cu1 1_555 1_555
C5 N1 1_555 1_555
C6 C10 1_555 1_555
C10 C11 1_555 1_555
C12 N2 1_555 1_555
C14 C16 1_555 1_555
C14 C20 1_555 1_555
C18 C19 1_555 1_555
C21 N2 1_555 1_555
C23 C25 1_555 1_555
C26 C28 1_555 1_555
C31 N4 1_555 1_555
C33 N3 1_555 1_555
Cu1 Cu1B 1_555 1_555
Br1B Cu1B 1_555 1_555

#END
