
#######################################################################
#
#                 Cambridge Crystallographic Data Centre
#                                CCDC 
#
#######################################################################
#
# If this CIF has been generated from an entry in the Cambridge 
# Structural Database, then it will include bibliographic, chemical, 
# crystal, experimental, refinement or atomic coordinate data resulting 
# from the CCDC's data processing and validation procedures.
#
#######################################################################

data_BOJSUO
_symmetry_cell_setting           triclinic
_symmetry_space_group_name_H-M   'P -1'
_symmetry_Int_Tables_number      2
_space_group_name_Hall           '-P 1'
loop_
_symmetry_equiv_pos_site_id
_symmetry_equiv_pos_as_xyz
1 x,y,z
2 -x,-y,-z
_cell_length_a                   10.907(3)
_cell_length_b                   12.875(4)
_cell_length_c                   7.943(2)
_cell_angle_alpha                108.64(2)
_cell_angle_beta                 103.00(2)
_cell_angle_gamma                102.29(2)
_cell_volume                     979.614
loop_
_atom_site_label
_atom_site_type_symbol
_atom_site_fract_x
_atom_site_fract_y
_atom_site_fract_z
Re1 Re 0.01269 0.13949 0.13337
O1 O 0.01135 0.19723 -0.03087
O2 O 0.15509 0.22513 0.31232
O3 O -0.11227 0.17252 0.21388
O4 O 0.11170 0.02321 0.04164
O9 O 0.00614 0.04428 0.35999
C1 C 0.11773 0.01853 0.45462
C2 C -0.11664 -0.02993 0.35070
H1 H 0.19100 0.03200 0.06100
H3 H 0.19700 0.07000 0.46100
H4 H 0.11400 -0.05800 0.38500
H5 H -0.12600 -0.10800 0.27800
H6 H -0.18900 -0.01100 0.29000
O4A O -0.11170 -0.02321 -0.04164
Re1A Re -0.01269 -0.13949 -0.13337
C2A C 0.11664 0.02993 0.64930
C1A C -0.11773 -0.01853 0.54538
H1A H -0.19100 -0.03200 -0.06100
O1A O -0.01135 -0.19723 0.03087
O2A O -0.15509 -0.22513 -0.31232
O3A O 0.11227 -0.17252 -0.21388
O9A O -0.00614 -0.04428 -0.35999
O9A_2 O -0.00614 -0.04428 0.64001
H5A H 0.12600 0.10800 0.72200
H6A H 0.18900 0.01100 0.71000
H3A H -0.19700 -0.07000 0.53900
H4A H -0.11400 0.05800 0.61500
Re1A_2 Re -0.01269 -0.13949 0.86663
Re2 Re 0.46187 0.35737 -0.02697
O5 O 0.43663 0.29470 -0.26066
O6 O 0.58117 0.30826 0.07541
O7 O 0.31718 0.28831 -0.00586
O8 O 0.60915 0.50761 0.03421
O10 O 0.49065 0.45694 0.30804
C3 C 0.61762 0.51713 0.45366
C4 C 0.38980 0.49810 0.36922
H2 H 0.68800 0.50000 0.06200
H7 H 0.68400 0.48800 0.41400
H8 H 0.64100 0.59700 0.47700
H9 H 0.41100 0.57900 0.39100
H10 H 0.30700 0.45900 0.27300
O8A O 0.39085 0.49239 -0.03421
Re2A Re 0.53813 0.64263 0.02697
C4A C 0.61020 0.50190 0.63078
C3A C 0.38238 0.48287 0.54634
H2A H 0.31200 0.50000 -0.06200
O5A O 0.56337 0.70530 0.26066
O6A O 0.41883 0.69174 -0.07541
O7A O 0.68282 0.71169 0.00586
O10A O 0.50935 0.54306 -0.30804
O10A_2 O 0.50935 0.54306 0.69196
H9A H 0.58900 0.42100 0.60900
H10A H 0.69300 0.54100 0.72700
H7A H 0.31600 0.51200 0.58600
H8A H 0.35900 0.40300 0.52300
Re2A_2 Re 0.53813 0.64263 1.02697
C5 C 0.52985 -0.03332 0.25225
C6 C 0.38475 -0.04341 0.20154
C7 C 0.44311 0.15892 0.29545
C8 C 0.58776 0.16468 0.33731
O11 O 0.60795 0.07463 0.39626
O12 O 0.36223 0.04957 0.14940
H19 H 0.35600 0.04000 0.30800
H20 H 0.43000 0.22000 0.25800
H21 H 0.41900 0.16800 0.40700
H22 H 0.64300 0.23700 0.43200
H23 H 0.61300 0.15600 0.22600
O13 O 0.11791 0.58321 0.38786
O14 O -0.14017 0.53282 0.15439
C9 C 0.04666 0.47237 0.25002
C10 C -0.09841 0.44699 0.20985
C11 C -0.07030 0.64641 0.29569
C12 C 0.07671 0.66834 0.33528
H11 H 0.06700 0.46700 0.13700
H12 H 0.07500 0.41700 0.29000
H13 H -0.13000 0.44700 0.32000
H14 H -0.14300 0.37300 0.11300
H15 H -0.09600 0.70300 0.25600
H16 H -0.09100 0.65200 0.40900
H17 H 0.09800 0.66900 0.22500
H18 H 0.12200 0.74200 0.43300
loop_
_geom_bond_atom_site_label_1
_geom_bond_atom_site_label_2
_geom_bond_site_symmetry_1
_geom_bond_site_symmetry_2
Re1 O1 1_555 1_555
Re2 O5 1_555 1_555
O2 Re1 1_555 1_555
O3 Re1 1_555 1_555
O4 Re1 1_555 1_555
O6 Re2 1_555 1_555
O7 Re2 1_555 1_555
O8 Re2 1_555 1_555
O9 Re1 1_555 1_555
C1 O9 1_555 1_555
C2 O9 1_555 1_555
O10 Re2 1_555 1_555
C3 O10 1_555 1_555
C4 O10 1_555 1_555
C5 C6 1_555 1_555
C6 O12 1_555 1_555
C7 C8 1_555 1_555
C8 O11 1_555 1_555
O11 C5 1_555 1_555
O12 C7 1_555 1_555
O13 C9 1_555 1_555
O14 C10 1_555 1_555
C9 C10 1_555 1_555
C10 H13 1_555 1_555
C11 O14 1_555 1_555
C12 O13 1_555 1_555
H1 O4 1_555 1_555
H2 O8 1_555 1_555
H3 C1 1_555 1_555
H4 C1 1_555 1_555
H5 C2 1_555 1_555
H6 C2 1_555 1_555
H7 C3 1_555 1_555
H8 C3 1_555 1_555
H9 C4 1_555 1_555
H10 C4 1_555 1_555
H11 C9 1_555 1_555
H12 C9 1_555 1_555
H14 C10 1_555 1_555
H15 C11 1_555 1_555
H16 C11 1_555 1_555
H17 C12 1_555 1_555
H18 C12 1_555 1_555
H19 C6 1_555 1_555
H20 C7 1_555 1_555
H21 C7 1_555 1_555
H22 C8 1_555 1_555
H23 C8 1_555 1_555
O4A Re1 1_555 1_555
Re1A O4 1_555 1_555
C2A C1 1_555 1_555
C1A C2 1_555 1_555
H1A O4A 1_555 1_555
O1A Re1A 1_555 1_555
O2A Re1A 1_555 1_555
O3A Re1A 1_555 1_555
O9A Re1A 1_555 1_555
O9A_2 C2A 1_555 1_555
H5A C2A 1_555 1_555
H6A C2A 1_555 1_555
H3A C1A 1_555 1_555
H4A C1A 1_555 1_555
O8A Re2 1_555 1_555
Re2A O8 1_555 1_555
C4A C3 1_555 1_555
C3A C4 1_555 1_555
H2A O8A 1_555 1_555
O5A Re2A 1_555 1_555
O6A Re2A 1_555 1_555
O7A Re2A 1_555 1_555
O10A Re2A 1_555 1_555
O10A_2 C4A 1_555 1_555
H9A C4A 1_555 1_555
H10A C4A 1_555 1_555
H7A C3A 1_555 1_555
H8A C3A 1_555 1_555
Re1A_2 O9A_2 1_555 1_555
Re2A_2 O10A_2 1_555 1_555
C11 C12 1_555 1_555
O4A Re1A 1_555 1_555
C1A O9A_2 1_555 1_555
O8A Re2A 1_555 1_555
C3A O10A_2 1_555 1_555

#END
