
#######################################################################
#
#                 Cambridge Crystallographic Data Centre
#                                CCDC 
#
#######################################################################
#
# If this CIF has been generated from an entry in the Cambridge 
# Structural Database, then it will include bibliographic, chemical, 
# crystal, experimental, refinement or atomic coordinate data resulting 
# from the CCDC's data processing and validation procedures.
#
#######################################################################

data_BOJWOO
_symmetry_cell_setting           monoclinic
_symmetry_space_group_name_H-M   'C 2/c'
_symmetry_Int_Tables_number      15
_space_group_name_Hall           '-C 2yn'
loop_
_symmetry_equiv_pos_site_id
_symmetry_equiv_pos_as_xyz
1 x,y,z
2 -x,y,1/2-z
3 1/2+x,1/2+y,z
4 1/2-x,1/2+y,1/2-z
5 -x,-y,-z
6 x,-y,1/2+z
7 1/2-x,1/2-y,-z
8 1/2+x,1/2-y,1/2+z
_cell_length_a                   26.9050(15)
_cell_length_b                   8.4640(4)
_cell_length_c                   24.2743(13)
_cell_angle_alpha                90
_cell_angle_beta                 107.2100(10)
_cell_angle_gamma                90
_cell_volume                     5280.34
loop_
_atom_site_label
_atom_site_type_symbol
_atom_site_fract_x
_atom_site_fract_y
_atom_site_fract_z
C1 C 0.0742(2) 0.6993(6) 0.4114(2)
C2 C 0.06572(19) 0.5698(5) 0.37181(19)
C3 C 0.09615(19) 0.4380(5) 0.3932(2)
C4 C 0.13161(19) 0.4278(6) 0.4494(2)
C5 C 0.1367(2) 0.5527(6) 0.4855(2)
C6 C 0.1073(2) 0.6895(5) 0.4652(2)
C7 C 0.09848(19) 0.2930(5) 0.3624(2)
C8 C 0.13629(19) 0.1880(5) 0.4030(2)
C9 C 0.1522(2) 0.0369(6) 0.3963(2)
C10 C 0.1883(2) -0.0362(6) 0.4423(2)
C11 C 0.2082(2) 0.0427(6) 0.4937(2)
C12 C 0.1915(2) 0.1940(6) 0.5012(2)
C13 C 0.15590(19) 0.2690(6) 0.4560(2)
C14 C 0.0693(2) 0.2196(6) 0.17766(19)
C15 C 0.1056(2) 0.3408(6) 0.18333(19)
C16 C 0.1039(2) 0.4956(6) 0.20871(19)
C17 C 0.14888(18) 0.5866(6) 0.20200(19)
C18 C 0.17757(19) 0.4887(6) 0.17545(19)
C19 C 0.15021(19) 0.3341(6) 0.1629(2)
C20 C 0.1587(2) 0.1990(6) 0.1367(2)
C21 C 0.1233(2) 0.0755(6) 0.1296(2)
C22 C 0.0811(2) 0.0833(6) 0.1491(2)
C23 C 0.2218(2) 0.5445(7) 0.1662(2)
C24 C 0.2378(2) 0.6995(7) 0.1820(2)
C25 C 0.2095(2) 0.7940(6) 0.2066(2)
C26 C 0.1647(2) 0.7387(6) 0.2170(2)
Cs1 Cs 0.00000 0.89912(6) 0.25000
Er1 Er 0.00000 0.40074(4) 0.25000
F1 F 0.04760(12) 0.8349(3) 0.39416(12)
F2 F 0.11339(13) 0.8142(3) 0.50144(12)
F3 F 0.16916(13) 0.5548(4) 0.53963(12)
F4 F 0.13293(12) -0.0431(3) 0.34706(12)
F5 F 0.20468(13) -0.1828(3) 0.43654(14)
F6 F 0.24369(12) -0.0272(4) 0.53712(13)
F7 F 0.21132(12) 0.2632(4) 0.55251(12)
F8 F 0.19981(13) 0.1778(4) 0.11639(13)
F9 F 0.25260(12) 0.4558(4) 0.14415(13)
F10 F 0.28148(12) 0.7545(4) 0.17362(13)
F11 F 0.22391(13) 0.9457(4) 0.21900(13)
F12 F 0.13763(12) 0.8350(3) 0.24176(13)
F13 F 0.04937(12) -0.0437(3) 0.14306(12)
F14 F 0.13212(14) -0.0570(3) 0.10281(13)
O1 O 0.03124(12) 0.5787(4) 0.32185(13)
O2 O 0.07368(14) 0.2605(4) 0.31189(14)
O3 O 0.07208(13) 0.5431(4) 0.23242(14)
O4 O 0.02829(13) 0.2265(4) 0.19440(14)
C1A C -0.0742(2) 0.6993(6) 0.0886(2)
C2A C -0.06572(19) 0.5698(5) 0.12819(19)
C3A C -0.09615(19) 0.4380(5) 0.1068(2)
C4A C -0.13161(19) 0.4278(6) 0.0506(2)
C5A C -0.1367(2) 0.5527(6) 0.0145(2)
C6A C -0.1073(2) 0.6895(5) 0.0348(2)
C7A C -0.09848(19) 0.2930(5) 0.1376(2)
C8A C -0.13629(19) 0.1880(5) 0.0970(2)
C9A C -0.1522(2) 0.0369(6) 0.1037(2)
C10A C -0.1883(2) -0.0362(6) 0.0577(2)
C11A C -0.2082(2) 0.0427(6) 0.0063(2)
C12A C -0.1915(2) 0.1940(6) -0.0012(2)
C13A C -0.15590(19) 0.2690(6) 0.0440(2)
C14A C -0.0693(2) 0.2196(6) 0.32234(19)
C15A C -0.1056(2) 0.3408(6) 0.31667(19)
C16A C -0.1039(2) 0.4956(6) 0.29129(19)
C17A C -0.14888(18) 0.5866(6) 0.29800(19)
C18A C -0.17757(19) 0.4887(6) 0.32455(19)
C19A C -0.15021(19) 0.3341(6) 0.3371(2)
C20A C -0.1587(2) 0.1990(6) 0.3633(2)
C21A C -0.1233(2) 0.0755(6) 0.3704(2)
C22A C -0.0811(2) 0.0833(6) 0.3509(2)
C23A C -0.2218(2) 0.5445(7) 0.3338(2)
C24A C -0.2378(2) 0.6995(7) 0.3180(2)
C25A C -0.2095(2) 0.7940(6) 0.2934(2)
C26A C -0.1647(2) 0.7387(6) 0.2830(2)
F1A F -0.04760(12) 0.8349(3) 0.10584(12)
F2A F -0.11339(13) 0.8142(3) -0.00144(12)
F3A F -0.16916(13) 0.5548(4) -0.03963(12)
F4A F -0.13293(12) -0.0431(3) 0.15294(12)
F5A F -0.20468(13) -0.1828(3) 0.06346(14)
F6A F -0.24369(12) -0.0272(4) -0.03712(13)
F7A F -0.21132(12) 0.2632(4) -0.05251(12)
F8A F -0.19981(13) 0.1778(4) 0.38361(13)
F9A F -0.25260(12) 0.4558(4) 0.35585(13)
F10A F -0.28148(12) 0.7545(4) 0.32638(13)
F11A F -0.22391(13) 0.9457(4) 0.28100(13)
F12A F -0.13763(12) 0.8350(3) 0.25824(13)
F13A F -0.04937(12) -0.0437(3) 0.35694(12)
F14A F -0.13212(14) -0.0570(3) 0.39719(13)
O1A O -0.03124(12) 0.5787(4) 0.17815(13)
O2A O -0.07368(14) 0.2605(4) 0.18811(14)
O3A O -0.07208(13) 0.5431(4) 0.26758(14)
O4A O -0.02829(13) 0.2265(4) 0.30560(14)
Cs1_2 Cs 0.00000 -0.10088(6) 0.25000
F4_2 F 0.13293(12) 0.9569(3) 0.34706(12)
F4A_2 F -0.13293(12) 0.9569(3) 0.15294(12)
F13_2 F 0.04937(12) 0.9563(3) 0.14306(12)
F13A_2 F -0.04937(12) 0.9563(3) 0.35694(12)
O4_2 O 0.02829(13) 1.2265(4) 0.19440(14)
O4A_2 O -0.02829(13) 1.2265(4) 0.30560(14)
C27 C 0.9671(3) 0.2955(8) -0.0129(3)
H1 H 0.9779 0.2651 -0.047
H2 H 0.9308 0.3337 -0.0267
C28 C 1.0018(3) 0.4288(7) 0.0186(3)
H3 H 0.9915 0.4579 0.0532
H4 H 1.0383 0.3918 0.0316
C29 C 0.9694(3) 0.1473(9) 0.0257(4)
H5 H 1.0029 0.094 0.0319
H6 H 0.9412 0.0747 0.0066
H7 H 0.9655 0.1799 0.063
C27D C 1.0329(3) 0.7045(8) 0.0129(3)
H1D H 1.0221 0.7349 0.047
H2D H 1.0692 0.6663 0.0267
C28D C 0.9982(3) 0.5712(7) -0.0186(3)
H3D H 1.0085 0.5421 -0.0532
H4D H 0.9617 0.6082 -0.0316
C29D C 1.0306(3) 0.8527(9) -0.0257(4)
H5D H 0.9971 0.906 -0.0319
H6D H 1.0588 0.9253 -0.0066
H7D H 1.0345 0.8201 -0.063
loop_
_geom_bond_atom_site_label_1
_geom_bond_atom_site_label_2
_geom_bond_site_symmetry_1
_geom_bond_site_symmetry_2
C1 C2 1_555 1_555
C2 C3 1_555 1_555
C3 C4 1_555 1_555
C4 C5 1_555 1_555
C5 C6 1_555 1_555
C6 C1 1_555 1_555
C7 C3 1_555 1_555
C8 C7 1_555 1_555
C9 C8 1_555 1_555
C10 C9 1_555 1_555
C11 C10 1_555 1_555
C12 C11 1_555 1_555
C13 C4 1_555 1_555
C14 C15 1_555 1_555
C15 C16 1_555 1_555
C16 C17 1_555 1_555
C17 C18 1_555 1_555
C18 C19 1_555 1_555
C19 C15 1_555 1_555
C20 C19 1_555 1_555
C21 C20 1_555 1_555
C22 C14 1_555 1_555
C23 C18 1_555 1_555
C24 C23 1_555 1_555
C25 C24 1_555 1_555
C26 C17 1_555 1_555
Cs1 F1 1_555 1_555
Er1 O1 1_555 1_555
F1 C1 1_555 1_555
F2 C6 1_555 1_555
F3 C5 1_555 1_555
F4 C9 1_555 1_555
F5 C10 1_555 1_555
F6 C11 1_555 1_555
F7 C12 1_555 1_555
F8 C20 1_555 1_555
F9 C23 1_555 1_555
F10 C24 1_555 1_555
F11 C25 1_555 1_555
F12 C26 1_555 1_555
F13 C22 1_555 1_555
F14 C21 1_555 1_555
O1 C2 1_555 1_555
O2 C7 1_555 1_555
O3 C16 1_555 1_555
O4 C14 1_555 1_555
C27 H1 1_555 1_555
H2 C27 1_555 1_555
C28 C27 1_555 1_555
H3 C28 1_555 1_555
H4 C28 1_555 1_555
C29 C27 1_555 1_555
H5 C29 1_555 1_555
H6 C29 1_555 1_555
H7 C29 1_555 1_555
C1A C2A 1_555 1_555
C2A C3A 1_555 1_555
C3A C4A 1_555 1_555
C4A C5A 1_555 1_555
C5A C6A 1_555 1_555
C6A C1A 1_555 1_555
C7A C3A 1_555 1_555
C8A C7A 1_555 1_555
C9A C8A 1_555 1_555
C10A C9A 1_555 1_555
C11A C10A 1_555 1_555
C12A C11A 1_555 1_555
C13A C4A 1_555 1_555
C14A C15A 1_555 1_555
C15A C16A 1_555 1_555
C16A C17A 1_555 1_555
C17A C18A 1_555 1_555
C18A C19A 1_555 1_555
C19A C15A 1_555 1_555
C20A C19A 1_555 1_555
C21A C20A 1_555 1_555
C22A C14A 1_555 1_555
C23A C18A 1_555 1_555
C24A C23A 1_555 1_555
C25A C24A 1_555 1_555
C26A C17A 1_555 1_555
F1A Cs1 1_555 1_555
F2A C6A 1_555 1_555
F3A C5A 1_555 1_555
F4A C9A 1_555 1_555
F5A C10A 1_555 1_555
F6A C11A 1_555 1_555
F7A C12A 1_555 1_555
F8A C20A 1_555 1_555
F9A C23A 1_555 1_555
F10A C24A 1_555 1_555
F11A C25A 1_555 1_555
F12A C26A 1_555 1_555
F13A C22A 1_555 1_555
F14A C21A 1_555 1_555
O1A Cs1 1_555 1_555
O2A Er1 1_555 1_555
O3A Cs1 1_555 1_555
O4A Er1 1_555 1_555
Cs1_2 F4 1_555 1_555
F4_2 Cs1 1_555 1_555
F4A_2 Cs1 1_555 1_555
F13_2 Cs1 1_555 1_555
F13A_2 Cs1 1_555 1_555
O4_2 Cs1 1_555 1_555
O4A_2 Cs1 1_555 1_555
C27D H1D 1_555 1_555
H2D C27D 1_555 1_555
C28D C28 1_555 1_555
H3D C28D 1_555 1_555
H4D C28D 1_555 1_555
C29D C27D 1_555 1_555
H5D C29D 1_555 1_555
H6D C29D 1_555 1_555
H7D C29D 1_555 1_555
C8 C13 1_555 1_555
C12 C13 1_555 1_555
C21 C22 1_555 1_555
C25 C26 1_555 1_555
Cs1 O1 1_555 1_555
Cs1 O3 1_555 1_555
Er1 O2 1_555 1_555
Er1 O3 1_555 1_555
Er1 O4 1_555 1_555
Er1 O1A 1_555 1_555
Er1 O3A 1_555 1_555
F13 Cs1_2 1_555 1_555
O4 Cs1_2 1_555 1_555
C1A F1A 1_555 1_555
C2A O1A 1_555 1_555
C7A O2A 1_555 1_555
C8A C13A 1_555 1_555
C12A C13A 1_555 1_555
C14A O4A 1_555 1_555
C16A O3A 1_555 1_555
C21A C22A 1_555 1_555
C25A C26A 1_555 1_555
F4A Cs1_2 1_555 1_555
F13A Cs1_2 1_555 1_555
O4A Cs1_2 1_555 1_555
C27D C28D 1_555 1_555

#END
