
#######################################################################
#
#                 Cambridge Crystallographic Data Centre
#                                CCDC 
#
#######################################################################
#
# If this CIF has been generated from an entry in the Cambridge 
# Structural Database, then it will include bibliographic, chemical, 
# crystal, experimental, refinement or atomic coordinate data resulting 
# from the CCDC's data processing and validation procedures.
#
#######################################################################

data_BOJWII
_symmetry_cell_setting           orthorhombic
_symmetry_space_group_name_H-M   'P n n a'
_symmetry_Int_Tables_number      52
_space_group_name_Hall           '-P 2a 2bc'
loop_
_symmetry_equiv_pos_site_id
_symmetry_equiv_pos_as_xyz
1 x,y,z
2 x,1/2-y,1/2-z
3 1/2-x,1/2+y,1/2-z
4 1/2-x,-y,z
5 -x,-y,-z
6 -x,1/2+y,1/2+z
7 1/2+x,1/2-y,1/2+z
8 1/2+x,y,-z
_cell_length_a                   26.1476(11)
_cell_length_b                   14.1409(6)
_cell_length_c                   14.6773(6)
_cell_angle_alpha                90
_cell_angle_beta                 90
_cell_angle_gamma                90
_cell_volume                     5426.94
loop_
_atom_site_label
_atom_site_type_symbol
_atom_site_fract_x
_atom_site_fract_y
_atom_site_fract_z
C1 C 0.27077(9) 0.59996(14) 0.36771(15)
C2 C 0.24289(9) 0.62774(14) 0.44598(15)
C3 C 0.26185(9) 0.61967(15) 0.53222(15)
C4 C 0.31075(9) 0.58315(15) 0.54730(15)
C5 C 0.33979(9) 0.55803(15) 0.47416(16)
C6 C 0.32198(9) 0.56719(15) 0.38333(15)
C7 C 0.35254(9) 0.54685(14) 0.30325(15)
C8 C 0.41106(9) 0.56397(16) 0.29972(15)
C9 C 0.44129(10) 0.47005(16) 0.29310(16)
C10 C 0.49924(10) 0.47113(17) 0.31602(16)
C11 C 0.53341(10) 0.53920(18) 0.26192(19)
C12 C 0.20191(9) 0.63481(14) 0.02081(15)
C13 C 0.15278(9) 0.66224(15) -0.00948(15)
C14 C 0.14069(9) 0.67023(15) -0.09974(16)
C15 C 0.17765(10) 0.65212(15) -0.16695(15)
C16 C 0.22596(9) 0.63127(15) -0.14100(15)
C17 C 0.24011(9) 0.62301(14) -0.04839(15)
C18 C 0.29173(9) 0.60346(14) -0.01808(15)
C19 C 0.33950(10) 0.63461(14) -0.07332(15)
C20 C 0.38635(9) 0.65355(15) -0.01111(16)
C21 C 0.43057(10) 0.70867(15) -0.05789(16)
C22 C 0.48297(10) 0.69878(16) -0.00994(18)
O1 O 0.24909(6) 0.60575(10) 0.28866(10)
O2 O 0.33481(6) 0.52160(11) 0.22935(10)
O3 O 0.21039(6) 0.62506(10) 0.10743(10)
O4 O 0.30177(6) 0.56407(10) 0.05468(10)
F1 F 0.19405(5) 0.65711(9) 0.43449(9)
F2 F 0.23270(6) 0.64228(9) 0.60359(9)
F3 F 0.32742(6) 0.57077(10) 0.63259(9)
F4 F 0.38497(5) 0.51713(9) 0.49084(9)
F5 F 0.42086(6) 0.61455(9) 0.22354(9)
F6 F 0.42768(5) 0.61542(9) 0.37079(9)
F7 F 0.41932(6) 0.40734(9) 0.35114(10)
F8 F 0.43547(6) 0.43519(10) 0.20848(10)
F9 F 0.51621(6) 0.38258(10) 0.29955(10)
F10 F 0.50480(6) 0.48925(11) 0.40512(10)
F11 F 0.52668(7) 0.52785(11) 0.17321(10)
F12 F 0.58170(6) 0.52164(13) 0.28208(13)
F13 F 0.52287(6) 0.62850(10) 0.28346(12)
F14 F 0.11667(5) 0.67924(10) 0.05363(9)
F15 F 0.09362(5) 0.69289(10) -0.12538(10)
F16 F 0.16375(6) 0.65346(10) -0.25475(9)
F17 F 0.26067(5) 0.61192(10) -0.20606(9)
F18 F 0.35203(5) 0.56566(9) -0.13320(9)
F19 F 0.32987(5) 0.71499(9) -0.12055(9)
F20 F 0.40501(5) 0.57071(9) 0.01921(10)
F21 F 0.37080(5) 0.70572(9) 0.06083(9)
F22 F 0.43594(6) 0.67863(10) -0.14437(10)
F23 F 0.41836(6) 0.80100(9) -0.05969(10)
F24 F 0.50268(6) 0.61347(10) -0.02405(11)
F25 F 0.47847(6) 0.71309(10) 0.07869(10)
F26 F 0.51500(6) 0.76252(11) -0.04410(12)
Cs1 Cs 0.340326(8) 0.25000 0.25000
Er1 Er 0.25000 0.50000 0.173199(9)
C1A C 0.27077(9) -0.09996(14) 0.13229(15)
C2A C 0.24289(9) -0.12774(14) 0.05402(15)
C3A C 0.26185(9) -0.11967(15) -0.03222(15)
C4A C 0.31075(9) -0.08315(15) -0.04730(15)
C5A C 0.33979(9) -0.05803(15) 0.02584(16)
C6A C 0.32198(9) -0.06719(15) 0.11667(15)
C7A C 0.35254(9) -0.04685(14) 0.19675(15)
C8A C 0.41106(9) -0.06397(16) 0.20028(15)
C9A C 0.44129(10) 0.02995(16) 0.20690(16)
C10A C 0.49924(10) 0.02887(17) 0.18398(16)
C11A C 0.53341(10) -0.03920(18) 0.23808(19)
O1A O 0.24909(6) -0.10575(10) 0.21134(10)
O2A O 0.33481(6) -0.02160(11) 0.27065(10)
F1A F 0.19405(5) -0.15711(9) 0.06551(9)
F2A F 0.23270(6) -0.14228(9) -0.10359(9)
F3A F 0.32742(6) -0.07077(10) -0.13259(9)
F4A F 0.38497(5) -0.01713(9) 0.00916(9)
F5A F 0.42086(6) -0.11455(9) 0.27646(9)
F6A F 0.42768(5) -0.11542(9) 0.12921(9)
F7A F 0.41932(6) 0.09266(9) 0.14886(10)
F8A F 0.43547(6) 0.06481(10) 0.29152(10)
F9A F 0.51621(6) 0.11742(10) 0.20045(10)
F10A F 0.50480(6) 0.01075(11) 0.09488(10)
F11A F 0.52668(7) -0.02785(11) 0.32679(10)
F12A F 0.58170(6) -0.02164(13) 0.21792(13)
F13A F 0.52287(6) -0.12850(10) 0.21654(12)
C12C C 0.29809(9) 0.36519(14) 0.02081(15)
C13C C 0.34722(9) 0.33776(15) -0.00948(15)
C14C C 0.35931(9) 0.32977(15) -0.09974(16)
C15C C 0.32235(10) 0.34788(15) -0.16695(15)
C16C C 0.27404(9) 0.36873(15) -0.14100(15)
C17C C 0.25989(9) 0.37699(14) -0.04839(15)
C18C C 0.20827(9) 0.39654(14) -0.01808(15)
C19C C 0.16050(10) 0.36539(14) -0.07332(15)
C20C C 0.11365(9) 0.34645(15) -0.01111(16)
C21C C 0.06943(10) 0.29133(15) -0.05789(16)
C22C C 0.01703(10) 0.30122(16) -0.00994(18)
O3C O 0.28961(6) 0.37494(10) 0.10743(10)
O4C O 0.19823(6) 0.43593(10) 0.05468(10)
F14C F 0.38333(5) 0.32076(10) 0.05363(9)
F15C F 0.40638(5) 0.30711(10) -0.12538(10)
F16C F 0.33625(6) 0.34654(10) -0.25475(9)
F17C F 0.23933(5) 0.38808(10) -0.20606(9)
F18C F 0.14797(5) 0.43434(9) -0.13320(9)
F19C F 0.17013(5) 0.28501(9) -0.12055(9)
F20C F 0.09499(5) 0.42929(9) 0.01921(10)
F21C F 0.12920(5) 0.29428(9) 0.06083(9)
F22C F 0.06406(6) 0.32137(10) -0.14437(10)
F23C F 0.08164(6) 0.19900(9) -0.05969(10)
F24C F -0.00268(6) 0.38653(10) -0.02405(11)
F25C F 0.02153(6) 0.28691(10) 0.07869(10)
F26C F -0.01500(6) 0.23748(11) -0.04410(12)
O1B O 0.25091(6) 0.10575(10) 0.21134(10)
O1C O 0.25091(6) 0.39425(10) 0.28866(10)
O2C O 0.16519(6) 0.47840(11) 0.22935(10)
O3B O 0.28961(6) 0.12506(10) 0.39257(10)
F1B F 0.30595(5) 0.15711(9) 0.06551(9)
F1C F 0.30595(5) 0.34289(9) 0.43449(9)
F14B F 0.38333(5) 0.17924(10) 0.44637(9)
Cs1B Cs 0.159674(8) -0.25000 0.25000
Cs1B_2 Cs 0.159674(8) 0.75000 0.25000
Er1A Er 0.25000 0.00000 0.326801(9)
loop_
_geom_bond_atom_site_label_1
_geom_bond_atom_site_label_2
_geom_bond_site_symmetry_1
_geom_bond_site_symmetry_2
C1 C2 1_555 1_555
C2 C3 1_555 1_555
C3 C4 1_555 1_555
C4 C5 1_555 1_555
C5 C6 1_555 1_555
C6 C1 1_555 1_555
C7 C6 1_555 1_555
C8 C7 1_555 1_555
C9 C8 1_555 1_555
C10 C9 1_555 1_555
C11 C10 1_555 1_555
C12 C13 1_555 1_555
C13 C14 1_555 1_555
C14 C15 1_555 1_555
C15 C16 1_555 1_555
C16 C17 1_555 1_555
C17 C12 1_555 1_555
C18 C17 1_555 1_555
C19 C18 1_555 1_555
C20 C19 1_555 1_555
C21 C20 1_555 1_555
C22 C21 1_555 1_555
O1 C1 1_555 1_555
O2 C7 1_555 1_555
O3 C12 1_555 1_555
O4 C18 1_555 1_555
F1 C2 1_555 1_555
F2 C3 1_555 1_555
F3 C4 1_555 1_555
F4 C5 1_555 1_555
F5 C8 1_555 1_555
F6 C8 1_555 1_555
F7 C9 1_555 1_555
F8 C9 1_555 1_555
F9 C10 1_555 1_555
F10 C10 1_555 1_555
F11 C11 1_555 1_555
F12 C11 1_555 1_555
F13 C11 1_555 1_555
F14 C13 1_555 1_555
F15 C14 1_555 1_555
F16 C15 1_555 1_555
F17 C16 1_555 1_555
F18 C19 1_555 1_555
F19 C19 1_555 1_555
F20 C20 1_555 1_555
F21 C20 1_555 1_555
F22 C21 1_555 1_555
F23 C21 1_555 1_555
F24 C22 1_555 1_555
F25 C22 1_555 1_555
F26 C22 1_555 1_555
Cs1 F7 1_555 1_555
Er1 O1 1_555 1_555
C1A C2A 1_555 1_555
C2A C3A 1_555 1_555
C3A C4A 1_555 1_555
C4A C5A 1_555 1_555
C5A C6A 1_555 1_555
C6A C1A 1_555 1_555
C7A C6A 1_555 1_555
C8A C7A 1_555 1_555
C9A C8A 1_555 1_555
C10A C9A 1_555 1_555
C11A C10A 1_555 1_555
O1A C1A 1_555 1_555
O2A C7A 1_555 1_555
F1A C2A 1_555 1_555
F2A C3A 1_555 1_555
F3A C4A 1_555 1_555
F4A C5A 1_555 1_555
F5A C8A 1_555 1_555
F6A C8A 1_555 1_555
F7A Cs1 1_555 1_555
F8A Cs1 1_555 1_555
F9A C10A 1_555 1_555
F10A C10A 1_555 1_555
F11A C11A 1_555 1_555
F12A C11A 1_555 1_555
F13A C11A 1_555 1_555
C12C C13C 1_555 1_555
C13C C14C 1_555 1_555
C14C C15C 1_555 1_555
C15C C16C 1_555 1_555
C16C C17C 1_555 1_555
C17C C12C 1_555 1_555
C18C C17C 1_555 1_555
C19C C18C 1_555 1_555
C20C C19C 1_555 1_555
C21C C20C 1_555 1_555
C22C C21C 1_555 1_555
O3C Cs1 1_555 1_555
O4C Er1 1_555 1_555
F14C Cs1 1_555 1_555
F15C C14C 1_555 1_555
F16C C15C 1_555 1_555
F17C C16C 1_555 1_555
F18C C19C 1_555 1_555
F19C C19C 1_555 1_555
F20C C20C 1_555 1_555
F21C C20C 1_555 1_555
F22C C21C 1_555 1_555
F23C C21C 1_555 1_555
F24C C22C 1_555 1_555
F25C C22C 1_555 1_555
F26C C22C 1_555 1_555
O1B Cs1 1_555 1_555
O1C Cs1 1_555 1_555
O2C Er1 1_555 1_555
O3B Cs1 1_555 1_555
F1B Cs1 1_555 1_555
F1C Cs1 1_555 1_555
F14B Cs1 1_555 1_555
Cs1B O1A 1_555 1_555
Cs1B_2 O1 1_555 1_555
Er1A O1A 1_555 1_555
O2 Er1 1_555 1_555
O3 Er1 1_555 1_555
O3 Cs1B_2 1_555 1_555
O4 Er1 1_555 1_555
F1 Cs1B_2 1_555 1_555
F8 Cs1 1_555 1_555
F14 Cs1B_2 1_555 1_555
Er1 O3C 1_555 1_555
Er1 O1C 1_555 1_555
C9A F7A 1_555 1_555
C9A F8A 1_555 1_555
O2A Er1A 1_555 1_555
F1A Cs1B 1_555 1_555
C12C O3C 1_555 1_555
C13C F14C 1_555 1_555
C18C O4C 1_555 1_555
O1B Er1A 1_555 1_555
O3B Er1A 1_555 1_555

#END
