
#######################################################################
#
#                 Cambridge Crystallographic Data Centre
#                                CCDC 
#
#######################################################################
#
# If this CIF has been generated from an entry in the Cambridge 
# Structural Database, then it will include bibliographic, chemical, 
# crystal, experimental, refinement or atomic coordinate data resulting 
# from the CCDC's data processing and validation procedures.
#
#######################################################################

data_BOJXAA
_symmetry_cell_setting           monoclinic
_symmetry_space_group_name_H-M   'C 2/c'
_symmetry_Int_Tables_number      15
_space_group_name_Hall           '-C 2yn'
loop_
_symmetry_equiv_pos_site_id
_symmetry_equiv_pos_as_xyz
1 x,y,z
2 1/2+x,1/2+y,z
3 -x,y,1/2-z
4 1/2-x,1/2+y,1/2-z
5 -x,-y,-z
6 1/2-x,1/2-y,-z
7 x,-y,1/2+z
8 1/2+x,1/2-y,1/2+z
_cell_length_a                   13.822(5)
_cell_length_b                   9.082(3)
_cell_length_c                   16.965(6)
_cell_angle_alpha                90
_cell_angle_beta                 96.934(5)
_cell_angle_gamma                90
_cell_volume                     2114.06
loop_
_atom_site_label
_atom_site_type_symbol
_atom_site_fract_x
_atom_site_fract_y
_atom_site_fract_z
Ag1 Ag 0.18717(2) 0.02291(3) 0.262497(18)
S1 S 0.0000 0.05422(14) 0.2500
S2 S 0.26035(6) 0.28512(9) 0.30678(5)
O1 O 0.2574(2) -0.0953(3) 0.38981(16)
O2 O 0.3330(2) -0.3091(3) 0.39744(17)
N1 N 0.0382(2) 0.3267(3) 0.19761(17)
H1 H 0.0617 0.2930 0.1565
N2 N 0.3647(2) 0.3947(3) 0.43884(17)
H2 H 0.3591 0.4837 0.4216
N3 N 0.3515(2) 0.1563(3) 0.43867(18)
H3 H 0.3364 0.0693 0.4213
C1 C 0.0000 0.2445(5) 0.2500
C2 C 0.0354(3) 0.4824(4) 0.2186(2)
H4 H 0.0110 0.5421 0.1731
H5 H 0.0993 0.5179 0.2403
C3 C 0.4148(3) 0.3535(4) 0.5163(2)
H6 H 0.3836 0.3971 0.5590
H7 H 0.4826 0.3834 0.5217
C4 C 0.4053(3) 0.1861(4) 0.5162(2)
H8 H 0.4688 0.1391 0.5217
H9 H 0.3695 0.1528 0.5587
C5 C 0.3286(2) 0.2775(3) 0.39814(19)
C6 C 0.2578(3) -0.2325(4) 0.39596(19)
C7 C 0.1620(3) -0.3085(5) 0.4012(3)
H10 H 0.1636 -0.4053 0.3787
H11 H 0.1103 -0.2526 0.3723
H12 H 0.1509 -0.3159 0.4558
Ag1C Ag 0.31283(2) -0.47709(3) 0.237503(18)
Ag1B Ag -0.18717(2) 0.02291(3) 0.237503(18)
Ag1C_2 Ag 0.31283(2) 0.52291(3) 0.237503(18)
S1A S 0.5000 -0.44578(14) 0.2500
S2C S 0.23965(6) -0.21488(9) 0.19322(5)
S2_2 S 0.26035(6) -0.71488(9) 0.30678(5)
O1C O 0.2426(2) -0.5953(3) 0.11019(16)
O2C O 0.1670(2) -0.8091(3) 0.10256(17)
N1B N -0.0382(2) 0.3267(3) 0.30239(17)
H1B H -0.0617 0.2930 0.3435
N2C N 0.1353(2) -0.1053(3) 0.06116(17)
H2C H 0.1409 -0.0163 0.0784
N3C N 0.1485(2) -0.3437(3) 0.06133(18)
H3C H 0.1636 -0.4307 0.0787
C2B C -0.0354(3) 0.4824(4) 0.2814(2)
H4B H -0.0110 0.5421 0.3269
H5B H -0.0993 0.5179 0.2597
C3C C 0.0852(3) -0.1465(4) -0.0163(2)
H6C H 0.1164 -0.1029 -0.0590
H7C H 0.0174 -0.1166 -0.0217
C4C C 0.0947(3) -0.3139(4) -0.0162(2)
H8C H 0.0312 -0.3609 -0.0217
H9C H 0.1305 -0.3472 -0.0587
C5C C 0.1714(2) -0.2225(3) 0.10186(19)
C6C C 0.2422(3) -0.7325(4) 0.10404(19)
C7C C 0.3380(3) -0.8085(5) 0.0988(3)
H10C H 0.3364 -0.9053 0.1213
H11C H 0.3897 -0.7526 0.1277
H12C H 0.3491 -0.8159 0.0442
loop_
_geom_bond_atom_site_label_1
_geom_bond_atom_site_label_2
_geom_bond_site_symmetry_1
_geom_bond_site_symmetry_2
Ag1 S1 1_555 1_555
S1 C1 1_555 1_555
S2 Ag1 1_555 1_555
O1 Ag1 1_555 1_555
O2 C6 1_555 1_555
N1 H1 1_555 1_555
N2 H2 1_555 1_555
N3 H3 1_555 1_555
C1 N1 1_555 1_555
C2 N1 1_555 1_555
H4 C2 1_555 1_555
H5 C2 1_555 1_555
C3 N2 1_555 1_555
H6 C3 1_555 1_555
H7 C3 1_555 1_555
C4 N3 1_555 1_555
H8 C4 1_555 1_555
H9 C4 1_555 1_555
C5 S2 1_555 1_555
C6 O1 1_555 1_555
C7 C6 1_555 1_555
H10 C7 1_555 1_555
H11 C7 1_555 1_555
H12 C7 1_555 1_555
Ag1C S1A 1_555 1_555
Ag1B S1 1_555 1_555
Ag1C_2 S2 1_555 1_555
S2C Ag1 1_555 1_555
S2_2 Ag1C 1_555 1_555
O1C Ag1C 1_555 1_555
O2C C6C 1_555 1_555
N1B C1 1_555 1_555
H1B N1B 1_555 1_555
N2C H2C 1_555 1_555
N3C H3C 1_555 1_555
C2B C2 1_555 1_555
H4B C2B 1_555 1_555
H5B C2B 1_555 1_555
C3C N2C 1_555 1_555
H6C C3C 1_555 1_555
H7C C3C 1_555 1_555
C4C N3C 1_555 1_555
H8C C4C 1_555 1_555
H9C C4C 1_555 1_555
C5C S2C 1_555 1_555
C6C O1C 1_555 1_555
C7C C6C 1_555 1_555
H10C C7C 1_555 1_555
H11C C7C 1_555 1_555
H12C C7C 1_555 1_555
N2 C5 1_555 1_555
N3 C5 1_555 1_555
C3 C4 1_555 1_555
Ag1C S2C 1_555 1_555
N1B C2B 1_555 1_555
N2C C5C 1_555 1_555
N3C C5C 1_555 1_555
C3C C4C 1_555 1_555

#END
