
#######################################################################
#
#                 Cambridge Crystallographic Data Centre
#                                CCDC 
#
#######################################################################
#
# If this CIF has been generated from an entry in the Cambridge 
# Structural Database, then it will include bibliographic, chemical, 
# crystal, experimental, refinement or atomic coordinate data resulting 
# from the CCDC's data processing and validation procedures.
#
#######################################################################

data_BOJXAZ
_symmetry_cell_setting           orthorhombic
_symmetry_space_group_name_H-M   'P b c a'
_symmetry_Int_Tables_number      61
_space_group_name_Hall           '-P 2ac 2ab'
loop_
_symmetry_equiv_pos_site_id
_symmetry_equiv_pos_as_xyz
1 x,y,z
2 1/2-x,1/2+y,z
3 x,1/2-y,1/2+z
4 1/2-x,-y,1/2+z
5 -x,-y,-z
6 1/2+x,1/2-y,-z
7 -x,1/2+y,1/2-z
8 1/2+x,y,1/2-z
_cell_length_a                   10.632(2)
_cell_length_b                   12.360(5)
_cell_length_c                   13.055(3)
_cell_angle_alpha                90
_cell_angle_beta                 90
_cell_angle_gamma                90
_cell_volume                     1715.58
loop_
_atom_site_label
_atom_site_type_symbol
_atom_site_fract_x
_atom_site_fract_y
_atom_site_fract_z
N1 N 0.25100 0.20700 0.03200
N2 N 0.20700 0.30100 0.07600
N3 N 0.26800 0.38200 0.03100
N4 N 0.33900 0.34500 -0.05100
C1 C 0.32300 0.24000 -0.04100
N5 N 0.38600 0.16700 -0.11100
O1 O 0.43100 0.20000 -0.18900
O2 O 0.39900 0.07200 -0.07700
Hg1 Hg 0.23100 0.04400 0.09800
N6 N 0.04100 0.00500 0.16600
N7 N -0.04800 -0.06500 0.11900
N8 N -0.14700 -0.05800 0.19400
N9 N -0.12200 0.01700 0.26800
C2 C -0.01400 0.05200 0.24500
N10 N 0.05800 0.13000 0.30100
O3 O 0.00100 0.15800 0.37500
O4 O 0.14900 0.16200 0.28300
Hg1A Hg 0.26900 0.54400 0.09800
N3A N 0.23200 -0.11800 0.03100
N9G N 0.37800 0.01700 0.23200
Hg1G Hg -0.26900 0.04400 0.40200
loop_
_geom_bond_atom_site_label_1
_geom_bond_atom_site_label_2
_geom_bond_site_symmetry_1
_geom_bond_site_symmetry_2
N1 N2 1_555 1_555
N2 N3 1_555 1_555
N3 N4 1_555 1_555
N4 C1 1_555 1_555
C1 N1 1_555 1_555
N5 C1 1_555 1_555
O1 N5 1_555 1_555
O2 N5 1_555 1_555
Hg1 N1 1_555 1_555
N6 Hg1 1_555 1_555
N7 N6 1_555 1_555
N8 N7 1_555 1_555
N9 N8 1_555 1_555
C2 N6 1_555 1_555
N10 C2 1_555 1_555
O3 N10 1_555 1_555
O4 N10 1_555 1_555
Hg1A N3 1_555 1_555
N3A Hg1 1_555 1_555
N9G Hg1 1_555 1_555
Hg1G N9 1_555 1_555
N9 C2 1_555 1_555

#END
