
#######################################################################
#
#                 Cambridge Crystallographic Data Centre
#                                CCDC 
#
#######################################################################
#
# If this CIF has been generated from an entry in the Cambridge 
# Structural Database, then it will include bibliographic, chemical, 
# crystal, experimental, refinement or atomic coordinate data resulting 
# from the CCDC's data processing and validation procedures.
#
#######################################################################

data_BOJXEE
_symmetry_cell_setting           orthorhombic
_symmetry_space_group_name_H-M   'P 21 21 21'
_symmetry_Int_Tables_number      19
_space_group_name_Hall           'P 2ac 2ab'
loop_
_symmetry_equiv_pos_site_id
_symmetry_equiv_pos_as_xyz
1 x,y,z
2 1/2-x,-y,1/2+z
3 1/2+x,1/2-y,-z
4 -x,1/2+y,1/2-z
_cell_length_a                   7.993(6)
_cell_length_b                   7.993
_cell_length_c                   10.548(7)
_cell_angle_alpha                90
_cell_angle_beta                 90
_cell_angle_gamma                90
_cell_volume                     673.891
loop_
_atom_site_label
_atom_site_type_symbol
_atom_site_fract_x
_atom_site_fract_y
_atom_site_fract_z
Ag1 Ag 0.04804(5) 0.76303(5) 0.63730(4)
Cl1 Cl 0.29418(16) 0.65364(19) 0.51619(12)
S1 S 0.10481(16) 1.02861(17) 0.75229(12)
N1 N 0.3548(6) 1.0703(6) 0.5852(4)
H1 H 0.3324 0.9785 0.5462
N2 N 0.3444(6) 1.2591(7) 0.7293(4)
H2 H 0.3038 1.3182 0.7901
C1 C 0.4863(7) 1.1845(7) 0.5479(6)
H3 H 0.4557 1.2470 0.4725
H4 H 0.5906 1.1259 0.5326
C2 C 0.4988(6) 1.2979(7) 0.6630(5)
H5 H 0.5960 1.2710 0.7142
H6 H 0.5034 1.4148 0.6386
C3 C 0.2745(6) 1.1227(6) 0.6847(4)
Ag1B Ag 0.54804(5) 0.73697(5) 0.36270(4)
Ag1C Ag -0.04804(5) 1.26303(5) 0.86270(4)
Cl1B Cl -0.20582(16) 0.84636(19) 0.48381(12)
S1C S -0.10481(16) 0.52861(17) 0.74771(12)
loop_
_geom_bond_atom_site_label_1
_geom_bond_atom_site_label_2
_geom_bond_site_symmetry_1
_geom_bond_site_symmetry_2
Ag1 Cl1 1_555 1_555
Cl1 Ag1B 1_555 1_555
S1 Ag1 1_555 1_555
N1 H1 1_555 1_555
N2 H2 1_555 1_555
C1 N1 1_555 1_555
H3 C1 1_555 1_555
H4 C1 1_555 1_555
C2 N2 1_555 1_555
H5 C2 1_555 1_555
H6 C2 1_555 1_555
C3 S1 1_555 1_555
Ag1C S1 1_555 1_555
Cl1B Ag1 1_555 1_555
S1C Ag1 1_555 1_555
N1 C3 1_555 1_555
N2 C3 1_555 1_555
C1 C2 1_555 1_555

#END
