
#######################################################################
#
#                 Cambridge Crystallographic Data Centre
#                                CCDC 
#
#######################################################################
#
# If this CIF has been generated from an entry in the Cambridge 
# Structural Database, then it will include bibliographic, chemical, 
# crystal, experimental, refinement or atomic coordinate data resulting 
# from the CCDC's data processing and validation procedures.
#
#######################################################################

data_BOJYIK
_symmetry_cell_setting           triclinic
_symmetry_space_group_name_H-M   'P -1'
_symmetry_Int_Tables_number      2
_space_group_name_Hall           '-P 1'
loop_
_symmetry_equiv_pos_site_id
_symmetry_equiv_pos_as_xyz
1 x,y,z
2 -x,-y,-z
_cell_length_a                   8.5790(17)
_cell_length_b                   10.184(2)
_cell_length_c                   11.107(2)
_cell_angle_alpha                64.78(3)
_cell_angle_beta                 71.73(3)
_cell_angle_gamma                79.30(3)
_cell_volume                     832.113
loop_
_atom_site_label
_atom_site_type_symbol
_atom_site_fract_x
_atom_site_fract_y
_atom_site_fract_z
Tb1 Tb 0.131995(15) 0.938604(13) 0.155155(13)
O1 O 0.3967(3) 0.8017(3) 0.1938(2)
O2 O 0.1768(3) 0.7631(3) 0.3700(2)
O3 O 0.1293(3) 0.7074(3) 0.1466(3)
O4 O 0.0309(3) 0.8683(2) -0.0224(2)
O5 O -0.0584(3) 1.0200(3) 0.3278(2)
O6 O -0.1568(3) 0.8792(2) 0.2670(2)
O7 O 0.2737(3) 1.1011(3) 0.1756(3)
O8 O 0.3163(3) 1.0391(3) -0.0684(2)
H1 H 0.3631 1.1089 -0.0741
H2 H 0.3885 0.9735 -0.0812
N1 N 0.3488(5) 1.2699(4) 0.2237(5)
C1 C 0.4168(4) 0.6113(3) 0.4114(3)
C2 C 0.3367(4) 0.5371(4) 0.5487(4)
H3 H 0.2264 0.5613 0.5818
C3 C 0.5811(4) 0.5725(4) 0.3628(4)
H4 H 0.6359 0.6202 0.2706
C4 C 0.3250(4) 0.7319(3) 0.3194(3)
C5 C 0.0315(4) 0.6157(3) 0.0220(3)
C6 C 0.0391(4) 0.6328(3) -0.1099(3)
H5 H 0.0652 0.7214 -0.1835
C7 C -0.0076(4) 0.4829(3) 0.1325(3)
H6 H -0.0126 0.4716 0.2212
C8 C 0.0647(4) 0.7383(3) 0.0504(3)
C9 C -0.3440(4) 0.9807(3) 0.4189(3)
C10 C -0.4752(4) 0.9122(4) 0.4284(4)
H7 H -0.4586 0.8533 0.3800
C11 C -0.3682(4) 1.0696(4) 0.4905(4)
H8 H -0.2809 1.1163 0.4843
C12 C -0.1760(4) 0.9584(3) 0.3333(3)
C13 C 0.2493(5) 1.1713(4) 0.2466(5)
H9 H 0.1560 1.1547 0.3207
C14 C 0.4997(8) 1.2918(7) 0.1135(8)
H10 H 0.5067 1.2289 0.0674
H11 H 0.5923 1.2699 0.1514
H12 H 0.4999 1.3912 0.0486
C15 C 0.3090(10) 1.3547(6) 0.3084(8)
H13 H 0.2056 1.3276 0.3758
H14 H 0.3016 1.4563 0.2507
H15 H 0.3936 1.3359 0.3543
O1A O 0.6033(3) 0.1983(3) 0.8062(2)
O2A O 0.8232(3) 0.2369(3) 0.6300(2)
C1A C 0.5832(4) 0.3887(3) 0.5886(3)
C2A C 0.6633(4) 0.4629(4) 0.4513(4)
H3A H 0.7736 0.4387 0.4182
C3A C 0.4189(4) 0.4275(4) 0.6372(4)
H4A H 0.3641 0.3798 0.7294
C4A C 0.6750(4) 0.2681(3) 0.6806(3)
O3A O -0.1293(3) 0.2926(3) -0.1466(3)
O4A O -0.0309(3) 0.1317(2) 0.0224(2)
C5A C -0.0315(4) 0.3843(3) -0.0220(3)
C6A C -0.0391(4) 0.3672(3) 0.1099(3)
H5A H -0.0652 0.2786 0.1835
C7A C 0.0076(4) 0.5171(3) -0.1325(3)
H6A H 0.0126 0.5284 -0.2212
C8A C -0.0647(4) 0.2617(3) -0.0504(3)
O5A O -0.9416(3) 0.9800(3) 0.6722(2)
O6A O -0.8432(3) 1.1208(2) 0.7330(2)
C9A C -0.6560(4) 1.0193(3) 0.5811(3)
C10A C -0.5248(4) 1.0878(4) 0.5716(4)
H7A H -0.5414 1.1467 0.6200
C11A C -0.6318(4) 0.9304(4) 0.5095(4)
H8A H -0.7191 0.8837 0.5157
C12A C -0.8240(4) 1.0416(3) 0.6667(3)
Tb1A Tb -1.131995(15) 1.061396(13) 0.844845(13)
O7A O -1.2737(3) 0.8989(3) 0.8244(3)
O8A O -1.3163(3) 0.9609(3) 1.0684(2)
H1A H -1.3631 0.8911 1.0741
H2A H -1.3885 1.0265 1.0812
N1A N -1.3488(5) 0.7301(4) 0.7763(5)
C13A C -1.2493(5) 0.8287(4) 0.7534(5)
H9A H -1.1560 0.8453 0.6793
C14A C -1.4997(8) 0.7082(7) 0.8865(8)
H10A H -1.5067 0.7711 0.9326
H11A H -1.5923 0.7301 0.8486
H12A H -1.4999 0.6088 0.9514
C15A C -1.3090(10) 0.6453(6) 0.6916(8)
H13A H -1.2056 0.6724 0.6242
H14A H -1.3016 0.5437 0.7493
H15A H -1.3936 0.6641 0.6457
Tb1_2 Tb 0.131995(15) -0.061396(13) 0.155155(13)
Tb1A_2 Tb -0.131995(15) 0.061396(13) -0.155155(13)
Tb1A_3 Tb -0.131995(15) 1.061396(13) -0.155155(13)
Tb1A_4 Tb 0.868005(15) 0.061396(13) 0.844845(13)
O1A_2 O -1.3967(3) 1.1983(3) 0.8062(2)
O2A_2 O -1.1768(3) 1.2369(3) 0.6300(2)
O3A_2 O -1.1293(3) 1.2926(3) 0.8534(3)
O4_2 O -0.9691(3) 0.8683(2) 0.9776(2)
O4A_2 O -1.0309(3) 1.1317(2) 1.0224(2)
O4A_3 O -0.0309(3) 1.1317(2) 0.0224(2)
loop_
_geom_bond_atom_site_label_1
_geom_bond_atom_site_label_2
_geom_bond_site_symmetry_1
_geom_bond_site_symmetry_2
Tb1 O1 1_555 1_555
O1 C4 1_555 1_555
O2 Tb1 1_555 1_555
O3 Tb1 1_555 1_555
O4 Tb1 1_555 1_555
O5 Tb1 1_555 1_555
O6 Tb1 1_555 1_555
O7 Tb1 1_555 1_555
O8 Tb1 1_555 1_555
H1 O8 1_555 1_555
H2 O8 1_555 1_555
N1 C13 1_555 1_555
C1 C2 1_555 1_555
C2 H3 1_555 1_555
C3 C1 1_555 1_555
H4 C3 1_555 1_555
C4 O2 1_555 1_555
C5 C6 1_555 1_555
C6 H5 1_555 1_555
C7 C5 1_555 1_555
H6 C7 1_555 1_555
C8 O3 1_555 1_555
C9 C10 1_555 1_555
C10 H7 1_555 1_555
C11 C9 1_555 1_555
H8 C11 1_555 1_555
C12 O5 1_555 1_555
C13 O7 1_555 1_555
H9 C13 1_555 1_555
C14 N1 1_555 1_555
H10 C14 1_555 1_555
H11 C14 1_555 1_555
H12 C14 1_555 1_555
C15 N1 1_555 1_555
H13 C15 1_555 1_555
H14 C15 1_555 1_555
H15 C15 1_555 1_555
O1A C4A 1_555 1_555
O2A C4A 1_555 1_555
C1A C2A 1_555 1_555
C2A C3 1_555 1_555
H3A C2A 1_555 1_555
C3A C2 1_555 1_555
H4A C3A 1_555 1_555
C4A C1A 1_555 1_555
O3A C8A 1_555 1_555
O4A C8A 1_555 1_555
C5A C6A 1_555 1_555
C6A C7 1_555 1_555
H5A C6A 1_555 1_555
C7A C6 1_555 1_555
H6A C7A 1_555 1_555
C8A C5A 1_555 1_555
O5A C12A 1_555 1_555
O6A C12A 1_555 1_555
C9A C10A 1_555 1_555
C10A C11 1_555 1_555
H7A C10A 1_555 1_555
C11A C10 1_555 1_555
H8A C11A 1_555 1_555
C12A C9A 1_555 1_555
Tb1A O5A 1_555 1_555
O7A Tb1A 1_555 1_555
O8A Tb1A 1_555 1_555
H1A O8A 1_555 1_555
H2A O8A 1_555 1_555
N1A C13A 1_555 1_555
C13A O7A 1_555 1_555
H9A C13A 1_555 1_555
C14A N1A 1_555 1_555
H10A C14A 1_555 1_555
H11A C14A 1_555 1_555
H12A C14A 1_555 1_555
C15A N1A 1_555 1_555
H13A C15A 1_555 1_555
H14A C15A 1_555 1_555
H15A C15A 1_555 1_555
Tb1_2 O4A 1_555 1_555
Tb1A_2 O3A 1_555 1_555
Tb1A_3 O4 1_555 1_555
Tb1A_4 O1A 1_555 1_555
O1A_2 Tb1A 1_555 1_555
O2A_2 Tb1A 1_555 1_555
O3A_2 Tb1A 1_555 1_555
O4_2 Tb1A 1_555 1_555
O4A_2 Tb1A 1_555 1_555
O4A_3 Tb1 1_555 1_555
O4 C8 1_555 1_555
O6 C12 1_555 1_555
C1 C4 1_555 1_555
C5 C8 1_555 1_555
C9 C12 1_555 1_555
O2A Tb1A_4 1_555 1_555
C1A C3A 1_555 1_555
O4A Tb1A_2 1_555 1_555
C5A C7A 1_555 1_555
O6A Tb1A 1_555 1_555
C9A C11A 1_555 1_555
Tb1A_3 O4A_3 1_555 1_555

#END
