
#######################################################################
#
#                 Cambridge Crystallographic Data Centre
#                                CCDC 
#
#######################################################################
#
# If this CIF has been generated from an entry in the Cambridge 
# Structural Database, then it will include bibliographic, chemical, 
# crystal, experimental, refinement or atomic coordinate data resulting 
# from the CCDC's data processing and validation procedures.
#
#######################################################################

data_BOKFOX
_symmetry_cell_setting           triclinic
_symmetry_space_group_name_H-M   'P -1'
_symmetry_Int_Tables_number      2
_space_group_name_Hall           '-P 1'
loop_
_symmetry_equiv_pos_site_id
_symmetry_equiv_pos_as_xyz
1 x,y,z
2 -x,-y,-z
_cell_length_a                   7.8583(9)
_cell_length_b                   11.4586(19)
_cell_length_c                   12.488(2)
_cell_angle_alpha                103.624(9)
_cell_angle_beta                 91.611(6)
_cell_angle_gamma                100.448(4)
_cell_volume                     1071.77
loop_
_atom_site_label
_atom_site_type_symbol
_atom_site_fract_x
_atom_site_fract_y
_atom_site_fract_z
Cu1 Cu 0.5000 0.5000 0.5000
O1 O 0.4793(3) 0.6434(2) 0.44862(19)
O3 O 0.6883(4) 0.7678(3) 0.5703(2)
O5 O 0.4412(3) 0.5950(2) 0.71121(18)
O6 O 0.2686(3) 0.4987(2) 0.55967(16)
N1 N 0.5786(4) 1.0086(2) 0.3002(2)
N2 N -0.1323(3) 0.6320(2) 0.84560(19)
C1 C 0.5816(4) 0.8387(3) 0.4223(2)
C2 C 0.4574(4) 0.8202(3) 0.3368(3)
H1 H 0.3730 0.7490 0.3198
C3 C 0.4571(5) 0.9056(3) 0.2766(3)
H2 H 0.3725 0.8923 0.2192
C4 C 0.7000(5) 1.0303(3) 0.3842(3)
H3 H 0.7821 1.1027 0.4004
C5 C 0.7037(4) 0.9465(3) 0.4462(3)
H4 H 0.7881 0.9621 0.5042
C6 C 0.5865(4) 0.7430(3) 0.4877(3)
C7 C 0.5752(6) 1.1041(3) 0.2358(3)
H5 H 0.4882 1.1516 0.2633
H6 H 0.6869 1.1594 0.2481
C8 C 0.5358(5) 1.0500(3) 0.1139(3)
C9 C 0.6685(6) 1.0226(4) 0.0464(3)
H7 H 0.7819 1.0374 0.0770
C10 C 0.3675(5) 1.0263(4) 0.0654(3)
H8 H 0.2774 1.0438 0.1095
C11 C 0.1383(4) 0.5703(3) 0.7258(2)
C12 C -0.0209(4) 0.5621(4) 0.6746(3)
H9 H -0.0386 0.5349 0.5981
C13 C -0.1551(4) 0.5942(4) 0.7364(3)
H10 H -0.2629 0.5893 0.7012
C14 C 0.0203(4) 0.6350(4) 0.8984(3)
H11 H 0.0330 0.6576 0.9752
C15 C 0.1571(4) 0.6051(4) 0.8400(3)
H12 H 0.2628 0.6081 0.8769
C16 C 0.2964(4) 0.5522(3) 0.6615(2)
C17 C -0.2737(4) 0.6771(3) 0.9099(3)
H13 H -0.3469 0.7064 0.8625
H14 H -0.2225 0.7460 0.9703
C18 C -0.3852(3) 0.5826(3) 0.9567(2)
C19 C -0.4691(5) 0.6218(3) 1.0500(3)
H15 H -0.4481 0.7046 1.0854
C20 C -0.4158(5) 0.4598(3) 0.9077(3)
H16 H -0.3588 0.4308 0.8455
Cu1_2 Cu 0.5000 1.5000 -0.5000
Cu1_3 Cu -1.5000 0.5000 1.5000
O1A O 0.5207(3) 1.3566(2) -0.44862(19)
O1A_2 O 0.5207(3) 0.3566(2) 0.55138(19)
O3A O 0.3117(4) 1.2322(3) -0.5703(2)
O5A O -1.4412(3) 0.4050(2) 1.28879(18)
O6A O -1.2686(3) 0.5013(2) 1.44033(16)
O6A_2 O 0.7314(3) 0.5013(2) 0.44033(16)
N1A N 0.4214(4) 0.9914(2) -0.3002(2)
N2A N -0.8677(3) 0.3680(2) 1.15440(19)
C1A C 0.4184(4) 1.1613(3) -0.4223(2)
C2A C 0.5426(4) 1.1798(3) -0.3368(3)
H1A H 0.6270 1.2510 -0.3198
C3A C 0.5429(5) 1.0944(3) -0.2766(3)
H2A H 0.6275 1.1077 -0.2192
C4A C 0.3000(5) 0.9697(3) -0.3842(3)
H3A H 0.2179 0.8973 -0.4004
C5A C 0.2963(4) 1.0535(3) -0.4462(3)
H4A H 0.2119 1.0379 -0.5042
C6A C 0.4135(4) 1.2570(3) -0.4877(3)
C7A C 0.4248(6) 0.8959(3) -0.2358(3)
H5A H 0.5118 0.8484 -0.2633
H6A H 0.3131 0.8406 -0.2481
C8A C 0.4642(5) 0.9500(3) -0.1139(3)
C9A C 0.3315(6) 0.9774(4) -0.0464(3)
H7A H 0.2181 0.9626 -0.0770
C10A C 0.6325(5) 0.9737(4) -0.0654(3)
H8A H 0.7226 0.9562 -0.1095
C11A C -1.1383(4) 0.4297(3) 1.2742(2)
C12A C -0.9791(4) 0.4379(4) 1.3254(3)
H9A H -0.9614 0.4651 1.4019
C13A C -0.8449(4) 0.4058(4) 1.2636(3)
H10A H -0.7371 0.4107 1.2988
C14A C -1.0203(4) 0.3650(4) 1.1016(3)
H11A H -1.0330 0.3424 1.0248
C15A C -1.1571(4) 0.3949(4) 1.1600(3)
H12A H -1.2628 0.3919 1.1231
C16A C -1.2964(4) 0.4478(3) 1.3385(2)
C17A C -0.7263(4) 0.3229(3) 1.0901(3)
H13A H -0.6531 0.2936 1.1375
H14A H -0.7775 0.2540 1.0297
C18A C -0.6148(3) 0.4174(3) 1.0433(2)
C19A C -0.5309(5) 0.3782(3) 0.9500(3)
H15A H -0.5519 0.2954 0.9146
C20A C -0.5842(5) 0.5402(3) 1.0923(3)
H16A H -0.6412 0.5692 1.1545
Cl1 Cl 0.02763(13) 0.21269(10) 0.76892(8)
O7 O -0.0866(5) 0.2806(4) 0.8286(3)
O8 O 0.1140(7) 0.1519(4) 0.8337(4)
O9 O 0.1607(6) 0.2956(4) 0.7322(4)
O10 O -0.0625(4) 0.1242(3) 0.6770(3)
O2 O 0.0518(4) 0.1236(3) 0.2488(3)
O4 O 0.9281(9) 1.2753(5) 0.4999(5)
loop_
_geom_bond_atom_site_label_1
_geom_bond_atom_site_label_2
_geom_bond_site_symmetry_1
_geom_bond_site_symmetry_2
Cu1 O1 1_555 1_555
Cl1 O7 1_555 1_555
O1 C6 1_555 1_555
O3 C6 1_555 1_555
O5 C16 1_555 1_555
O6 Cu1 1_555 1_555
O8 Cl1 1_555 1_555
O9 Cl1 1_555 1_555
O10 Cl1 1_555 1_555
N1 C3 1_555 1_555
N2 C13 1_555 1_555
C1 C2 1_555 1_555
C2 H1 1_555 1_555
C3 C2 1_555 1_555
H2 C3 1_555 1_555
C4 N1 1_555 1_555
H3 C4 1_555 1_555
C5 C1 1_555 1_555
H4 C5 1_555 1_555
C6 C1 1_555 1_555
C7 N1 1_555 1_555
H5 C7 1_555 1_555
H6 C7 1_555 1_555
C8 C7 1_555 1_555
C9 C8 1_555 1_555
H7 C9 1_555 1_555
C10 C8 1_555 1_555
H8 C10 1_555 1_555
C11 C12 1_555 1_555
C12 H9 1_555 1_555
C13 C12 1_555 1_555
H10 C13 1_555 1_555
C14 N2 1_555 1_555
H11 C14 1_555 1_555
C15 C11 1_555 1_555
H12 C15 1_555 1_555
C16 O6 1_555 1_555
C17 N2 1_555 1_555
H13 C17 1_555 1_555
H14 C17 1_555 1_555
C18 C17 1_555 1_555
C19 C18 1_555 1_555
H15 C19 1_555 1_555
C20 C18 1_555 1_555
H16 C20 1_555 1_555
Cu1_2 O1A 1_555 1_555
Cu1_3 O6A 1_555 1_555
O1A C6A 1_555 1_555
O1A_2 Cu1 1_555 1_555
O3A C6A 1_555 1_555
O5A C16A 1_555 1_555
O6A C16A 1_555 1_555
O6A_2 Cu1 1_555 1_555
N1A C3A 1_555 1_555
N2A C13A 1_555 1_555
C1A C2A 1_555 1_555
C2A H1A 1_555 1_555
C3A C2A 1_555 1_555
H2A C3A 1_555 1_555
C4A N1A 1_555 1_555
H3A C4A 1_555 1_555
C5A C1A 1_555 1_555
H4A C5A 1_555 1_555
C6A C1A 1_555 1_555
C7A N1A 1_555 1_555
H5A C7A 1_555 1_555
H6A C7A 1_555 1_555
C8A C7A 1_555 1_555
C9A C10 1_555 1_555
H7A C9A 1_555 1_555
C10A C9 1_555 1_555
H8A C10A 1_555 1_555
C11A C12A 1_555 1_555
C12A H9A 1_555 1_555
C13A C12A 1_555 1_555
H10A C13A 1_555 1_555
C14A N2A 1_555 1_555
H11A C14A 1_555 1_555
C15A C11A 1_555 1_555
H12A C15A 1_555 1_555
C16A C11A 1_555 1_555
C17A N2A 1_555 1_555
H13A C17A 1_555 1_555
H14A C17A 1_555 1_555
C18A C17A 1_555 1_555
C19A C20 1_555 1_555
H15A C19A 1_555 1_555
C20A C19 1_555 1_555
H16A C20A 1_555 1_555
C4 C5 1_555 1_555
C11 C16 1_555 1_555
C14 C15 1_555 1_555
C4A C5A 1_555 1_555
C8A C9A 1_555 1_555
C8A C10A 1_555 1_555
C14A C15A 1_555 1_555
C18A C19A 1_555 1_555
C18A C20A 1_555 1_555

#END
