
#######################################################################
#
#                 Cambridge Crystallographic Data Centre
#                                CCDC 
#
#######################################################################
#
# If this CIF has been generated from an entry in the Cambridge 
# Structural Database, then it will include bibliographic, chemical, 
# crystal, experimental, refinement or atomic coordinate data resulting 
# from the CCDC's data processing and validation procedures.
#
#######################################################################

data_BOKJES
_symmetry_cell_setting           monoclinic
_symmetry_space_group_name_H-M   'C 2/c'
_symmetry_Int_Tables_number      15
_space_group_name_Hall           '-C 2yn'
loop_
_symmetry_equiv_pos_site_id
_symmetry_equiv_pos_as_xyz
1 x,y,z
2 -x,y,1/2-z
3 1/2+x,1/2+y,z
4 1/2-x,1/2+y,1/2-z
5 -x,-y,-z
6 x,-y,1/2+z
7 1/2-x,1/2-y,-z
8 1/2+x,1/2-y,1/2+z
_cell_length_a                   11.476(7)
_cell_length_b                   11.641(7)
_cell_length_c                   14.064(13)
_cell_angle_alpha                90
_cell_angle_beta                 90.701(14)
_cell_angle_gamma                90
_cell_volume                     1878.7
loop_
_atom_site_label
_atom_site_type_symbol
_atom_site_fract_x
_atom_site_fract_y
_atom_site_fract_z
Cd1 Cd 1.0000 0.19978(5) 0.2500
O1 O 0.4757(5) 0.5517(5) 0.3602(4)
O2 O 0.6585(5) 0.5978(4) 0.3348(4)
N1 N 0.7357(4) 0.3863(5) 0.4092(4)
N2 N 0.8943(5) 0.3183(5) 0.3423(4)
C1 C 0.8174(7) 0.4160(6) 0.5756(5)
H1 H 0.7498 0.4423 0.6041
C2 C 0.9206(8) 0.4061(7) 0.6259(5)
H2 H 0.9224 0.4257 0.6900
C3 C 1.0228(8) 0.3675(7) 0.5834(6)
H3 H 1.0917 0.3658 0.6188
C4 C 1.0234(6) 0.3321(6) 0.4900(5)
H4 H 1.0909 0.3032 0.4628
C5 C 0.9202(5) 0.3407(5) 0.4375(5)
C6 C 0.8189(6) 0.3852(5) 0.4805(4)
C7 C 0.7836(6) 0.3459(5) 0.3291(4)
C8 C 0.6168(6) 0.4225(6) 0.4193(5)
H5 H 0.6015 0.4330 0.4864
H6 H 0.5663 0.3613 0.3965
C9 C 0.5842(6) 0.5333(6) 0.3667(5)
C10 C 0.7180(7) 0.3343(7) 0.2375(5)
H7 H 0.7622 0.2882 0.1943
H8 H 0.7054 0.4090 0.2105
H9 H 0.6443 0.2981 0.2489
O1A O 1.5243(5) 0.5517(5) 0.1398(4)
O2A O 1.3415(5) 0.5978(4) 0.1652(4)
N1A N 1.2643(4) 0.3863(5) 0.0908(4)
N2A N 1.1057(5) 0.3183(5) 0.1577(4)
C1A C 1.1826(7) 0.4160(6) -0.0756(5)
H1A H 1.2502 0.4423 -0.1041
C2A C 1.0794(8) 0.4061(7) -0.1259(5)
H2A H 1.0776 0.4257 -0.1900
C3A C 0.9772(8) 0.3675(7) -0.0834(6)
H3A H 0.9083 0.3658 -0.1188
C4A C 0.9766(6) 0.3321(6) 0.0100(5)
H4A H 0.9091 0.3032 0.0372
C5A C 1.0798(5) 0.3407(5) 0.0625(5)
C6A C 1.1811(6) 0.3852(5) 0.0195(4)
C7A C 1.2164(6) 0.3459(5) 0.1709(4)
C8A C 1.3832(6) 0.4225(6) 0.0807(5)
H5A H 1.3985 0.4330 0.0136
H6A H 1.4337 0.3613 0.1035
C9A C 1.4158(6) 0.5333(6) 0.1333(5)
C10A C 1.2820(7) 0.3343(7) 0.2625(5)
H7A H 1.2378 0.2882 0.3057
H8A H 1.2946 0.4090 0.2895
H9A H 1.3557 0.2981 0.2511
Cd1B Cd 0.5000 0.69978(5) 0.2500
Cd1B_2 Cd 1.5000 0.69978(5) 0.2500
O1B O 0.9757(5) 0.0517(5) 0.3602(4)
O1C O 1.0243(5) 0.0517(5) 0.1398(4)
O2B O 1.1585(5) 0.0978(4) 0.3348(4)
O2C O 0.8415(5) 0.0978(4) 0.1652(4)
loop_
_geom_bond_atom_site_label_1
_geom_bond_atom_site_label_2
_geom_bond_site_symmetry_1
_geom_bond_site_symmetry_2
Cd1 N2 1_555 1_555
O1 C9 1_555 1_555
O2 C9 1_555 1_555
N1 C6 1_555 1_555
N2 C5 1_555 1_555
C1 H1 1_555 1_555
C2 C1 1_555 1_555
H2 C2 1_555 1_555
C3 C2 1_555 1_555
H3 C3 1_555 1_555
C4 C3 1_555 1_555
H4 C4 1_555 1_555
C5 C4 1_555 1_555
C6 C1 1_555 1_555
C7 N1 1_555 1_555
C8 N1 1_555 1_555
H5 C8 1_555 1_555
H6 C8 1_555 1_555
C9 C8 1_555 1_555
C10 C7 1_555 1_555
H7 C10 1_555 1_555
H8 C10 1_555 1_555
H9 C10 1_555 1_555
O1A C9A 1_555 1_555
O2A C9A 1_555 1_555
N1A C6A 1_555 1_555
N2A Cd1 1_555 1_555
C1A H1A 1_555 1_555
C2A C1A 1_555 1_555
H2A C2A 1_555 1_555
C3A C2A 1_555 1_555
H3A C3A 1_555 1_555
C4A C3A 1_555 1_555
H4A C4A 1_555 1_555
C5A N2A 1_555 1_555
C6A C1A 1_555 1_555
C7A N1A 1_555 1_555
C8A N1A 1_555 1_555
H5A C8A 1_555 1_555
H6A C8A 1_555 1_555
C9A C8A 1_555 1_555
C10A C7A 1_555 1_555
H7A C10A 1_555 1_555
H8A C10A 1_555 1_555
H9A C10A 1_555 1_555
Cd1B O1 1_555 1_555
Cd1B_2 O1A 1_555 1_555
O1B Cd1 1_555 1_555
O1C Cd1 1_555 1_555
O2B Cd1 1_555 1_555
O2C Cd1 1_555 1_555
O2 Cd1B 1_555 1_555
N2 C7 1_555 1_555
C5 C6 1_555 1_555
O2A Cd1B_2 1_555 1_555
N2A C7A 1_555 1_555
C4A C5A 1_555 1_555
C5A C6A 1_555 1_555

#END
