
#######################################################################
#
#                 Cambridge Crystallographic Data Centre
#                                CCDC 
#
#######################################################################
#
# If this CIF has been generated from an entry in the Cambridge 
# Structural Database, then it will include bibliographic, chemical, 
# crystal, experimental, refinement or atomic coordinate data resulting 
# from the CCDC's data processing and validation procedures.
#
#######################################################################

data_BOKQEZ
_symmetry_cell_setting           rhombohedral
_symmetry_space_group_name_H-M   'R -3 c'
_symmetry_Int_Tables_number      167
_space_group_name_Hall           '-R 3 2"c'
loop_
_symmetry_equiv_pos_site_id
_symmetry_equiv_pos_as_xyz
1 x,y,z
2 -y,x-y,z
3 -x+y,-x,z
4 x-y,-y,1/2-z
5 -x,-x+y,1/2-z
6 y,x,1/2-z
7 2/3+x,1/3+y,1/3+z
8 2/3-y,1/3+x-y,1/3+z
9 2/3-x+y,1/3-x,1/3+z
10 2/3+x-y,1/3-y,5/6-z
11 2/3-x,1/3-x+y,5/6-z
12 2/3+y,1/3+x,5/6-z
13 1/3+x,2/3+y,2/3+z
14 1/3-y,2/3+x-y,2/3+z
15 1/3-x+y,2/3-x,2/3+z
16 1/3+x-y,2/3-y,1/6-z
17 1/3-x,2/3-x+y,1/6-z
18 1/3+y,2/3+x,1/6-z
19 -x,-y,-z
20 y,-x+y,-z
21 x-y,x,-z
22 -x+y,y,1/2+z
23 x,x-y,1/2+z
24 -y,-x,1/2+z
25 1/3-x,2/3-y,2/3-z
26 1/3+y,2/3-x+y,2/3-z
27 1/3+x-y,2/3+x,2/3-z
28 1/3-x+y,2/3+y,1/6+z
29 1/3+x,2/3+x-y,1/6+z
30 1/3-y,2/3-x,1/6+z
31 2/3-x,1/3-y,1/3-z
32 2/3+y,1/3-x+y,1/3-z
33 2/3+x-y,1/3+x,1/3-z
34 2/3-x+y,1/3+y,5/6+z
35 2/3+x,1/3+x-y,5/6+z
36 2/3-y,1/3-x,5/6+z
_cell_length_a                   15.2429(11)
_cell_length_b                   15.2429(11)
_cell_length_c                   56.173(4)
_cell_angle_alpha                90
_cell_angle_beta                 90
_cell_angle_gamma                120
_cell_volume                     11303
loop_
_atom_site_label
_atom_site_type_symbol
_atom_site_fract_x
_atom_site_fract_y
_atom_site_fract_z
Mn1 Mn 0.40347(4) 0.19865(4) 0.081769(8)
Mn2 Mn 0.6667 0.3333 0.054996(17)
C1 C 0.4850(3) 0.1382(3) 0.03773(6)
C2 C 0.4196(3) 0.0670(3) 0.01905(6)
C3 C 0.3283(5) -0.0169(5) 0.02183(8)
H1 H 0.2956 -0.0382 0.0364
C4 C 0.2876(5) -0.0691(5) 0.00028(9)
H2 H 0.2252 -0.1281 -0.0010
C5 C 0.3507(3) -0.0226(3) -0.01854(6)
C6 C 0.3370(3) -0.0581(3) -0.04397(6)
O1 O 0.55850(18) 0.3333 0.0833
O2 O 0.4560(2) 0.1166(2) 0.05920(4)
O3 O 0.5644(2) 0.2131(2) 0.03156(5)
O4 O 0.2490(2) -0.1245(2) -0.04973(5)
O5 O 0.4136(2) -0.0183(2) -0.05687(4)
O6 O 0.2496(3) 0.0645(3) 0.08005(9)
S1 S 0.45918(7) 0.08350(7) -0.009874(14)
Mn1A Mn 0.80135(4) 0.20482(6) 0.081769(8)
C1A C 0.8618(3) 0.3468(4) 0.03773(6)
C2A C 0.9330(3) 0.3526(4) 0.01905(6)
C3A C 1.0169(5) 0.3452(7) 0.02183(8)
H1A H 1.0382 0.3338 0.0364
C4A C 1.0691(5) 0.3567(7) 0.00028(9)
H2A H 1.1281 0.3533 -0.0010
C5A C 1.0226(3) 0.3733(4) -0.01854(6)
C6A C 1.0581(3) 0.3951(4) -0.04397(6)
O1A O 0.6667 0.22520(18) 0.0833
O2A O 0.8834(2) 0.3394(3) 0.05920(4)
O3A O 0.7869(2) 0.3513(3) 0.03156(5)
O4A O 1.1245(2) 0.3735(3) -0.04973(5)
O5A O 1.0183(2) 0.4319(3) -0.05687(4)
O6A O 0.9355(3) 0.1851(4) 0.08005(9)
S1A S 0.91650(7) 0.37568(10) -0.009874(14)
Mn1B Mn 0.79518(6) 0.59653(4) 0.081769(8)
C1B C 0.6532(4) 0.5150(3) 0.03773(6)
C2B C 0.6474(4) 0.5804(3) 0.01905(6)
C3B C 0.6548(7) 0.6717(5) 0.02183(8)
H1B H 0.6662 0.7044 0.0364
C4B C 0.6433(7) 0.7124(5) 0.00028(9)
H2B H 0.6467 0.7748 -0.0010
C5B C 0.6267(4) 0.6493(3) -0.01854(6)
C6B C 0.6049(4) 0.6630(3) -0.04397(6)
O1B O 0.77480(18) 0.44150(18) 0.0833
O2B O 0.6606(3) 0.5440(2) 0.05920(4)
O3B O 0.6487(3) 0.4356(2) 0.03156(5)
O4B O 0.6265(3) 0.7510(2) -0.04973(5)
O5B O 0.5681(3) 0.5864(2) -0.05687(4)
O6B O 0.8149(4) 0.7504(3) 0.08005(9)
S1B S 0.62432(10) 0.54082(7) -0.009874(14)
Mn1O Mn 0.53815(6) 0.46802(4) 0.084898(8)
Mn2O Mn 0.6667 0.3334 0.111671(17)
C1O C 0.6801(4) 0.5285(3) 0.12894(6)
C2O C 0.6859(4) 0.5997(3) 0.14762(6)
C3O C 0.6785(7) 0.6836(5) 0.14484(8)
H1O H 0.6671 0.7049 0.1303
C4O C 0.6900(7) 0.7358(5) 0.16639(9)
H2O H 0.6866 0.7948 0.1677
C5O C 0.7066(4) 0.6893(3) 0.18521(6)
C6O C 0.7284(4) 0.7248(3) 0.21064(6)
O2O O 0.6727(3) 0.5501(2) 0.10747(4)
O3O O 0.6846(3) 0.4536(2) 0.13511(5)
O4O O 0.7068(3) 0.7912(2) 0.21640(5)
O5O O 0.7652(3) 0.6850(2) 0.22354(4)
O6O O 0.5184(4) 0.6022(3) 0.08662(9)
S1O S 0.70901(10) 0.58317(7) 0.176541(14)
Mn1P Mn 0.92986(4) 0.46185(6) 0.084898(8)
C1P C 0.8483(3) 0.3199(4) 0.12894(6)
C2P C 0.9137(3) 0.3141(4) 0.14762(6)
C3P C 1.0050(5) 0.3215(7) 0.14484(8)
H1P H 1.0377 0.3329 0.1303
C4P C 1.0457(5) 0.3100(7) 0.16639(9)
H2P H 1.1081 0.3134 0.1677
C5P C 0.9826(3) 0.2934(4) 0.18521(6)
C6P C 0.9963(3) 0.2716(4) 0.21064(6)
O2P O 0.8773(2) 0.3273(3) 0.10747(4)
O3P O 0.7689(2) 0.3154(3) 0.13511(5)
O4P O 1.0843(2) 0.2932(3) 0.21640(5)
O5P O 0.9197(2) 0.2348(3) 0.22354(4)
O6P O 1.0837(3) 0.4816(4) 0.08662(9)
S1P S 0.87415(7) 0.29099(10) 0.176541(14)
Mn1Q Mn 0.53198(4) 0.07014(4) 0.084898(8)
C1Q C 0.4715(3) 0.1517(3) 0.12894(6)
C2Q C 0.4003(3) 0.0863(3) 0.14762(6)
C3Q C 0.3164(5) -0.0050(5) 0.14484(8)
H1Q H 0.2951 -0.0377 0.1303
C4Q C 0.2642(5) -0.0457(5) 0.16639(9)
H2Q H 0.2052 -0.1081 0.1677
C5Q C 0.3107(3) 0.0174(3) 0.18521(6)
C6Q C 0.2752(3) 0.0037(3) 0.21064(6)
O2Q O 0.4499(2) 0.1227(2) 0.10747(4)
O3Q O 0.5464(2) 0.2311(2) 0.13511(5)
O4Q O 0.2088(2) -0.0843(2) 0.21640(5)
O5Q O 0.3150(2) 0.0803(2) 0.22354(4)
O6Q O 0.3978(3) -0.0837(3) 0.08662(9)
S1Q S 0.41683(7) 0.12585(7) 0.176541(14)
Mn1R Mn 0.59653(4) 0.80135(4) -0.081769(8)
Mn1S Mn 0.19865(4) -0.20482(6) -0.081769(8)
Mn1T Mn 1.20482(6) 0.40347(4) -0.081769(8)
Mn1DA Mn 0.26320(4) 0.13468(4) 0.251564(8)
Mn1EA Mn 0.86532(4) 0.12851(6) 0.251564(8)
Mn1FA Mn 0.87149(6) 0.73680(4) 0.251564(8)
Mn1GA Mn 0.46185(6) 0.53198(4) -0.084898(8)
Mn1HA Mn 1.07014(4) 0.53815(6) -0.084898(8)
Mn1IA Mn 0.46802(4) -0.07014(4) -0.084898(8)
Mn1AA Mn 0.12851(6) -0.13468(4) 0.248436(8)
Mn1BA Mn 0.73680(4) 0.87149(6) 0.248436(8)
Mn1CA Mn 1.13468(4) 0.26320(4) 0.248436(8)
O4R O 0.7510(2) 0.1245(2) 0.04973(5)
O4S O 0.8755(2) 0.6265(3) 0.04973(5)
O4T O 0.3735(3) 0.2490(2) 0.04973(5)
O4AA O 0.9598(3) 0.5422(2) 0.11694(5)
O4BA O 0.5823(2) 0.0402(3) 0.11694(5)
O4CA O 0.4578(2) 0.4177(2) 0.11694(5)
O5R O 0.5864(2) 0.0183(2) 0.05687(4)
O5S O 0.9817(2) 0.5681(3) 0.05687(4)
O5T O 0.4319(3) 0.4136(2) 0.05687(4)
O5AA O 0.9014(3) 0.6484(2) 0.10980(4)
O5BA O 0.7469(2) 0.0986(3) 0.10980(4)
O5CA O 0.3516(2) 0.2531(2) 0.10980(4)
loop_
_geom_bond_atom_site_label_1
_geom_bond_atom_site_label_2
_geom_bond_site_symmetry_1
_geom_bond_site_symmetry_2
Mn1 O1 1_555 1_555
Mn2 O1 1_555 1_555
C1 C2 1_555 1_555
C2 C3 1_555 1_555
C3 H1 1_555 1_555
C4 C3 1_555 1_555
H2 C4 1_555 1_555
C5 C4 1_555 1_555
C6 C5 1_555 1_555
O1 Mn1O 1_555 1_555
O2 Mn1 1_555 1_555
O3 Mn2 1_555 1_555
O4 C6 1_555 1_555
O5 C6 1_555 1_555
O6 Mn1 1_555 1_555
S1 C2 1_555 1_555
Mn1A O1A 1_555 1_555
C1A C2A 1_555 1_555
C2A C3A 1_555 1_555
C3A H1A 1_555 1_555
C4A C3A 1_555 1_555
H2A C4A 1_555 1_555
C5A C4A 1_555 1_555
C6A C5A 1_555 1_555
O1A Mn2 1_555 1_555
O2A Mn1A 1_555 1_555
O3A Mn2 1_555 1_555
O4A C6A 1_555 1_555
O5A C6A 1_555 1_555
O6A Mn1A 1_555 1_555
S1A C2A 1_555 1_555
Mn1B O1B 1_555 1_555
C1B C2B 1_555 1_555
C2B C3B 1_555 1_555
C3B H1B 1_555 1_555
C4B C3B 1_555 1_555
H2B C4B 1_555 1_555
C5B C4B 1_555 1_555
C6B C5B 1_555 1_555
O1B Mn2 1_555 1_555
O2B Mn1B 1_555 1_555
O3B Mn2 1_555 1_555
O4B C6B 1_555 1_555
O5B C6B 1_555 1_555
O6B Mn1B 1_555 1_555
S1B C2B 1_555 1_555
Mn1O O2B 1_555 1_555
Mn2O O1 1_555 1_555
C1O C2O 1_555 1_555
C2O C3O 1_555 1_555
C3O H1O 1_555 1_555
C4O C3O 1_555 1_555
H2O C4O 1_555 1_555
C5O C4O 1_555 1_555
C6O C5O 1_555 1_555
O2O Mn1B 1_555 1_555
O3O Mn2O 1_555 1_555
O4O C6O 1_555 1_555
O5O C6O 1_555 1_555
O6O Mn1O 1_555 1_555
S1O C2O 1_555 1_555
Mn1P O2A 1_555 1_555
C1P C2P 1_555 1_555
C2P C3P 1_555 1_555
C3P H1P 1_555 1_555
C4P C3P 1_555 1_555
H2P C4P 1_555 1_555
C5P C4P 1_555 1_555
C6P C5P 1_555 1_555
O2P Mn1A 1_555 1_555
O3P Mn2O 1_555 1_555
O4P C6P 1_555 1_555
O5P C6P 1_555 1_555
O6P Mn1P 1_555 1_555
S1P C2P 1_555 1_555
Mn1Q O2 1_555 1_555
C1Q C2Q 1_555 1_555
C2Q C3Q 1_555 1_555
C3Q H1Q 1_555 1_555
C4Q C3Q 1_555 1_555
H2Q C4Q 1_555 1_555
C5Q C4Q 1_555 1_555
C6Q C5Q 1_555 1_555
O2Q Mn1 1_555 1_555
O3Q Mn2O 1_555 1_555
O4Q C6Q 1_555 1_555
O5Q C6Q 1_555 1_555
O6Q Mn1Q 1_555 1_555
S1Q C2Q 1_555 1_555
Mn1R O4B 1_555 1_555
Mn1S O4 1_555 1_555
Mn1T O4A 1_555 1_555
Mn1DA O5Q 1_555 1_555
Mn1EA O5P 1_555 1_555
Mn1FA O5O 1_555 1_555
Mn1GA O5B 1_555 1_555
Mn1HA O5A 1_555 1_555
Mn1IA O5 1_555 1_555
Mn1AA O4Q 1_555 1_555
Mn1BA O4O 1_555 1_555
Mn1CA O4P 1_555 1_555
O4R Mn1A 1_555 1_555
O4S Mn1B 1_555 1_555
O4T Mn1 1_555 1_555
O4AA Mn1P 1_555 1_555
O4BA Mn1Q 1_555 1_555
O4CA Mn1O 1_555 1_555
O5R Mn1Q 1_555 1_555
O5S Mn1P 1_555 1_555
O5T Mn1O 1_555 1_555
O5AA Mn1B 1_555 1_555
O5BA Mn1A 1_555 1_555
O5CA Mn1 1_555 1_555
C1 O2 1_555 1_555
C1 O3 1_555 1_555
C5 S1 1_555 1_555
C1A O2A 1_555 1_555
C1A O3A 1_555 1_555
C5A S1A 1_555 1_555
O1A Mn2O 1_555 1_555
O1A Mn1Q 1_555 1_555
C1B O2B 1_555 1_555
C1B O3B 1_555 1_555
C5B S1B 1_555 1_555
O1B Mn2O 1_555 1_555
O1B Mn1P 1_555 1_555
Mn1O O2O 1_555 1_555
C1O O2O 1_555 1_555
C1O O3O 1_555 1_555
C5O S1O 1_555 1_555
Mn1P O2P 1_555 1_555
C1P O2P 1_555 1_555
C1P O3P 1_555 1_555
C5P S1P 1_555 1_555
Mn1Q O2Q 1_555 1_555
C1Q O2Q 1_555 1_555
C1Q O3Q 1_555 1_555
C5Q S1Q 1_555 1_555

#END
