
#######################################################################
#
#                 Cambridge Crystallographic Data Centre
#                                CCDC 
#
#######################################################################
#
# If this CIF has been generated from an entry in the Cambridge 
# Structural Database, then it will include bibliographic, chemical, 
# crystal, experimental, refinement or atomic coordinate data resulting 
# from the CCDC's data processing and validation procedures.
#
#######################################################################

data_BOKSEA
_symmetry_cell_setting           monoclinic
_symmetry_space_group_name_H-M   'P 21/c'
_symmetry_Int_Tables_number      14
_space_group_name_Hall           '-P 2ybc'
loop_
_symmetry_equiv_pos_site_id
_symmetry_equiv_pos_as_xyz
1 x,y,z
2 -x,1/2+y,1/2-z
3 -x,-y,-z
4 x,1/2-y,1/2+z
_cell_length_a                   11.8098(2)
_cell_length_b                   21.7410(1)
_cell_length_c                   10.0143(2)
_cell_angle_alpha                90
_cell_angle_beta                 103.368(1)
_cell_angle_gamma                90
_cell_volume                     2501.57
loop_
_atom_site_label
_atom_site_type_symbol
_atom_site_fract_x
_atom_site_fract_y
_atom_site_fract_z
La1 La 0.14824(3) 0.086623(14) 0.32831(3)
Co1 Co -0.26523(6) 0.13130(3) -0.06175(7)
O1 O -0.0768(3) 0.04812(18) 0.2622(4)
O2 O -0.1324(3) 0.09756(17) 0.0626(4)
O3 O -0.6835(3) 0.0920(2) 0.2262(4)
O4 O -0.7029(3) 0.0541(2) 0.0138(4)
O5 O 0.7442(3) 0.20271(17) 1.0459(4)
O6 O 0.6630(4) 0.2957(2) 1.0479(5)
O7 O 0.3460(3) 0.08597(19) 0.5265(4)
O8 O 0.2530(4) 0.17405(19) 0.4736(4)
O9 O 0.2750(3) -0.06162(16) 0.1795(4)
O10 O 0.2012(3) -0.02416(17) 0.3497(4)
O11 O 0.0021(3) -0.33320(17) 0.1390(4)
O12 O -0.0834(3) -0.31266(17) 0.3074(4)
O13 O 0.0900(3) 0.0466(2) 0.0833(4)
O14 O 0.1015(3) 0.05154(18) 0.5522(4)
N1 N -0.3500(3) 0.0915(2) 0.0581(4)
N2 N 0.5993(4) 0.1685(2) 0.8269(4)
N3 N 0.1678(3) -0.16495(19) 0.1734(4)
C1 C -0.2784(5) 0.0702(3) 0.1748(6)
C2 C -0.3214(5) 0.0494(3) 0.2830(6)
H1 H -0.2716 0.0342 0.3619
C3 C -0.4417(5) 0.0516(3) 0.2720(6)
H2 H -0.4728 0.0407 0.3459
C4 C -0.5127(5) 0.0701(2) 0.1509(6)
C5 C -0.4643(4) 0.0894(3) 0.0447(5)
H3 H -0.5131 0.1013 -0.0381
C6 C -0.1526(5) 0.0714(2) 0.1697(6)
C7 C -0.6447(5) 0.0720(3) 0.1272(6)
C8 C 0.5800(5) 0.2251(3) 0.8718(6)
C9 C 0.4840(5) 0.2589(3) 0.8107(7)
H4 H 0.4729 0.2982 0.8421
C10 C 0.4036(6) 0.2333(3) 0.7011(7)
H5 H 0.3382 0.2556 0.6578
C11 C 0.4216(5) 0.1742(3) 0.6567(6)
C12 C 0.5226(4) 0.1435(3) 0.7217(5)
H6 H 0.5371 0.1045 0.6912
C13 C 0.6678(5) 0.2444(3) 0.9992(6)
C14 C 0.3345(5) 0.1421(3) 0.5441(6)
C15 C 0.1509(4) -0.1253(2) 0.2698(5)
C16 C 0.0837(5) -0.1394(2) 0.3601(6)
H7 H 0.0764 -0.1118 0.4285
C17 C 0.0268(5) -0.1956(3) 0.3477(6)
H8 H -0.0230 -0.2051 0.4043
C18 C 0.0444(4) -0.2367(2) 0.2515(5)
C19 C 0.1166(4) -0.2202(2) 0.1639(5)
H9 H 0.1291 -0.2481 0.0983
C20 C 0.2131(5) -0.0659(2) 0.2687(6)
C21 C -0.0155(4) -0.2985(2) 0.2321(5)
H11 H 0.1264 0.0817 0.6085
H13 H 0.0958 0.0134 0.5813
H14 H 0.1235 0.0556 0.0195
H17 H 0.0923 0.0072 0.0882
La1_2 La -0.85176(3) 0.086623(14) 0.32831(3)
La1A La -0.14824(3) -0.413377(14) 0.17169(3)
Co1_2 Co 0.73477(6) 0.13130(3) 0.93825(7)
Co1B Co 0.26523(6) -0.13130(3) 0.06175(7)
O3_2 O 0.3165(3) 0.0920(2) 0.2262(4)
O5_2 O -0.2558(3) 0.20271(17) 0.0459(4)
O9B O -0.2750(3) 0.06162(16) -0.1795(4)
O11A O -0.0021(3) 0.16680(17) 0.3610(4)
O12A O 0.0834(3) 0.18734(17) 0.1926(4)
N2_2 N -0.4007(4) 0.1685(2) -0.1731(4)
N3B N -0.1678(3) 0.16495(19) -0.1734(4)
O15 O 0.1816(4) 0.2965(2) 0.4598(5)
H12 H 0.2032 0.2609 0.4656
H16 H 0.2175 0.3275 0.4499
O16 O 0.2087(5) 0.3858(2) 0.2751(5)
H10 H 0.2794 0.3934 0.3007
H15 H 0.1881 0.3648 0.2048
loop_
_geom_bond_atom_site_label_1
_geom_bond_atom_site_label_2
_geom_bond_site_symmetry_1
_geom_bond_site_symmetry_2
La1 O1 1_555 1_555
Co1 O2 1_555 1_555
O1 C6 1_555 1_555
O2 C6 1_555 1_555
O3 C7 1_555 1_555
O4 C7 1_555 1_555
O5 C13 1_555 1_555
O6 C13 1_555 1_555
O7 La1 1_555 1_555
O8 La1 1_555 1_555
O9 C20 1_555 1_555
O10 La1 1_555 1_555
O11 C21 1_555 1_555
O12 C21 1_555 1_555
O13 La1 1_555 1_555
O14 La1 1_555 1_555
O15 H12 1_555 1_555
O16 H10 1_555 1_555
N1 Co1 1_555 1_555
N2 C8 1_555 1_555
N3 C15 1_555 1_555
C1 N1 1_555 1_555
C2 C1 1_555 1_555
H1 C2 1_555 1_555
C3 C2 1_555 1_555
H2 C3 1_555 1_555
C4 C3 1_555 1_555
C5 N1 1_555 1_555
H3 C5 1_555 1_555
C6 C1 1_555 1_555
C7 C4 1_555 1_555
C8 C9 1_555 1_555
C9 H4 1_555 1_555
C10 C9 1_555 1_555
H5 C10 1_555 1_555
C11 C10 1_555 1_555
C12 N2 1_555 1_555
H6 C12 1_555 1_555
C13 C8 1_555 1_555
C14 O7 1_555 1_555
C15 C16 1_555 1_555
C16 H7 1_555 1_555
C17 C16 1_555 1_555
H8 C17 1_555 1_555
C18 C17 1_555 1_555
C19 N3 1_555 1_555
H9 C19 1_555 1_555
C20 O10 1_555 1_555
C21 C18 1_555 1_555
H11 O14 1_555 1_555
H13 O14 1_555 1_555
H14 O13 1_555 1_555
H15 O16 1_555 1_555
H16 O15 1_555 1_555
H17 O13 1_555 1_555
La1_2 O3 1_555 1_555
La1A O11 1_555 1_555
Co1_2 O5 1_555 1_555
Co1B O9 1_555 1_555
O3_2 La1 1_555 1_555
O5_2 Co1 1_555 1_555
O9B Co1 1_555 1_555
O11A La1 1_555 1_555
O12A La1 1_555 1_555
N2_2 Co1 1_555 1_555
N3B Co1 1_555 1_555
O8 C14 1_555 1_555
O12 La1A 1_555 1_555
N2 Co1_2 1_555 1_555
N3 Co1B 1_555 1_555
C4 C5 1_555 1_555
C11 C12 1_555 1_555
C11 C14 1_555 1_555
C15 C20 1_555 1_555
C18 C19 1_555 1_555

#END
