
#######################################################################
#
#                 Cambridge Crystallographic Data Centre
#                                CCDC 
#
#######################################################################
#
# If this CIF has been generated from an entry in the Cambridge 
# Structural Database, then it will include bibliographic, chemical, 
# crystal, experimental, refinement or atomic coordinate data resulting 
# from the CCDC's data processing and validation procedures.
#
#######################################################################

data_BOKSOK01
_symmetry_cell_setting           triclinic
_symmetry_space_group_name_H-M   'P -1'
_symmetry_Int_Tables_number      2
_space_group_name_Hall           '-P 1'
loop_
_symmetry_equiv_pos_site_id
_symmetry_equiv_pos_as_xyz
1 x,y,z
2 -x,-y,-z
_cell_length_a                   8.6670(4)
_cell_length_b                   8.7207(4)
_cell_length_c                   17.4947(9)
_cell_angle_alpha                95.686(2)
_cell_angle_beta                 103.610(2)
_cell_angle_gamma                95.517(2)
_cell_volume                     1269.04
loop_
_atom_site_label
_atom_site_type_symbol
_atom_site_fract_x
_atom_site_fract_y
_atom_site_fract_z
Fe1 Fe 0.0000 0.5000 0.5000
Fe2 Fe -0.5000 0.0000 0.0000
S1 S -0.31297(17) 0.67110(16) 0.26910(8)
S2 S -0.7997(2) -0.1653(2) 0.18143(11)
N1 N -0.1805(5) 0.3945(5) 0.5416(2)
N2 N -0.5971(5) 0.2196(5) 0.0110(2)
N3 N -0.2699(5) 0.2335(5) 0.4196(2)
N4 N -0.2758(5) 0.1358(5) 0.0736(2)
N5 N -0.4321(5) 0.2787(5) 0.1400(2)
C1 C -0.3460(6) 0.2375(6) 0.2781(3)
H1 H -0.2426 0.2179 0.2731
N6 N -0.1516(5) 0.5508(5) 0.4049(3)
N7 N -0.6142(5) 0.2775(5) 0.2182(2)
N8 N 0.0121(5) 0.2829(5) 0.4466(2)
N9 N -0.5347(5) 0.2564(5) 0.3572(2)
C2 C -0.5531(6) 0.3206(6) 0.0775(3)
N10 N -0.5781(6) -0.0634(5) 0.0985(3)
C3 C -0.1226(6) 0.1825(6) 0.4153(3)
C4 C -0.1453(6) 0.3561(6) 0.1675(3)
H2 H -0.1539 0.4413 0.2038
C5 C 0.0097(6) 0.2049(7) 0.0999(3)
H3 H 0.1091 0.1822 0.0905
C6 C 0.0015(6) 0.3296(6) 0.1537(3)
H4 H 0.0956 0.3964 0.1809
C7 C -0.2910(6) 0.2833(6) 0.4966(3)
C8 C -0.4149(6) 0.2125(7) 0.5234(3)
H5 H -0.4923 0.1351 0.4896
C9 C -0.1189(6) 0.0333(6) 0.3809(3)
H6 H -0.2158 -0.0341 0.3601
C10 C -0.3866(6) 0.2400(6) 0.3493(3)
C11 C 0.1512(6) 0.2298(7) 0.4444(3)
H7 H 0.2475 0.2962 0.4686
C12 C -0.4632(6) 0.2650(6) 0.2135(3)
C13 C -0.7108(7) 0.2563(6) -0.0496(3)
H8 H -0.7390 0.1895 -0.0983
C14 C -0.2792(6) 0.2550(6) 0.1268(3)
C15 C -0.6386(6) 0.2685(6) 0.2894(3)
H9 H -0.7462 0.2711 0.2928
C16 C -0.1890(7) 0.4324(7) 0.6172(3)
H10 H -0.1089 0.5080 0.6506
C17 C -0.2195(6) 0.6007(6) 0.3484(3)
C18 C -0.6174(6) 0.4585(6) 0.0864(3)
H11 H -0.5789 0.5298 0.1334
C19 C -0.7868(7) 0.3856(7) -0.0433(3)
H12 H -0.8715 0.4036 -0.0857
C20 C -0.7392(7) 0.4902(6) 0.0253(3)
H13 H -0.7891 0.5817 0.0304
C21 C -0.3069(7) 0.3678(7) 0.6480(3)
H14 H -0.3089 0.3983 0.7014
C22 C -0.1316(6) 0.1147(6) 0.0603(3)
H15 H -0.1270 0.0326 0.0213
C23 C 0.0240(7) -0.0174(7) 0.3767(3)
H16 H 0.0283 -0.1188 0.3524
C24 C 0.1625(6) 0.0851(7) 0.4092(3)
H17 H 0.2640 0.0551 0.4071
C25 C -0.4239(7) 0.2565(7) 0.5998(3)
H18 H -0.5088 0.2113 0.6193
C26 C -0.6691(7) -0.1066(6) 0.1342(3)
Fe2_2 Fe 0.5000 1.0000 1.0000
S1A S 0.31297(17) 0.32890(16) 0.73090(8)
S2A S -0.2003(2) 0.1653(2) -0.18143(11)
N1A N 0.1805(5) 0.6055(5) 0.4584(2)
N2A N 0.5971(5) 0.7804(5) 0.9890(2)
N2A_2 N -0.4029(5) -0.2196(5) -0.0110(2)
N3A N 0.2699(5) 0.7665(5) 0.5804(2)
N4A N 0.2758(5) 0.8642(5) 0.9264(2)
N4A_2 N -0.7242(5) -0.1358(5) -0.0736(2)
N5A N 0.4321(5) 0.7213(5) 0.8600(2)
C1A C 0.3460(6) 0.7625(6) 0.7219(3)
H1A H 0.2426 0.7821 0.7269
N6A N 0.1516(5) 0.4492(5) 0.5951(3)
N7A N 0.6142(5) 0.7225(5) 0.7818(2)
N8A N -0.0121(5) 0.7171(5) 0.5534(2)
N9A N 0.5347(5) 0.7436(5) 0.6428(2)
C2A C 0.5531(6) 0.6794(6) 0.9225(3)
N10A N -0.4219(6) 0.0634(5) -0.0985(3)
C3A C 0.1226(6) 0.8175(6) 0.5847(3)
C4A C 0.1453(6) 0.6439(6) 0.8325(3)
H2A H 0.1539 0.5587 0.7962
C5A C -0.0097(6) 0.7951(7) 0.9001(3)
H3A H -0.1091 0.8178 0.9095
C6A C -0.0015(6) 0.6704(6) 0.8463(3)
H4A H -0.0956 0.6036 0.8191
C7A C 0.2910(6) 0.7167(6) 0.5034(3)
C8A C 0.4149(6) 0.7875(7) 0.4766(3)
H5A H 0.4923 0.8649 0.5104
C9A C 0.1189(6) 0.9667(6) 0.6191(3)
H6A H 0.2158 1.0341 0.6399
C10A C 0.3866(6) 0.7600(6) 0.6507(3)
C11A C -0.1512(6) 0.7702(7) 0.5556(3)
H7A H -0.2475 0.7038 0.5314
C12A C 0.4632(6) 0.7350(6) 0.7865(3)
C13A C 0.7108(7) 0.7437(6) 1.0496(3)
H8A H 0.7390 0.8105 1.0983
C14A C 0.2792(6) 0.7450(6) 0.8732(3)
C15A C 0.6386(6) 0.7315(6) 0.7106(3)
H9A H 0.7462 0.7289 0.7072
C16A C 0.1890(7) 0.5676(7) 0.3828(3)
H10A H 0.1089 0.4920 0.3494
C17A C 0.2195(6) 0.3993(6) 0.6516(3)
C18A C 0.6174(6) 0.5415(6) 0.9136(3)
H11A H 0.5789 0.4702 0.8666
C19A C 0.7868(7) 0.6144(7) 1.0433(3)
H12A H 0.8715 0.5964 1.0857
C20A C 0.7392(7) 0.5098(6) 0.9747(3)
H13A H 0.7891 0.4183 0.9696
C21A C 0.3069(7) 0.6322(7) 0.3520(3)
H14A H 0.3089 0.6017 0.2986
C22A C 0.1316(6) 0.8853(6) 0.9397(3)
H15A H 0.1270 0.9674 0.9787
C23A C -0.0240(7) 1.0174(7) 0.6233(3)
H16A H -0.0283 1.1188 0.6476
C24A C -0.1625(6) 0.9149(7) 0.5908(3)
H17A H -0.2640 0.9449 0.5929
C25A C 0.4239(7) 0.7435(7) 0.4002(3)
H18A H 0.5088 0.7887 0.3807
C26A C -0.3309(7) 0.1066(6) -0.1342(3)
loop_
_geom_bond_atom_site_label_1
_geom_bond_atom_site_label_2
_geom_bond_site_symmetry_1
_geom_bond_site_symmetry_2
Fe1 N1 1_555 1_555
Fe2 N2 1_555 1_555
S1 C17 1_555 1_555
S2 C26 1_555 1_555
N1 C7 1_555 1_555
N2 C2 1_555 1_555
N3 C3 1_555 1_555
N4 Fe2 1_555 1_555
N5 C2 1_555 1_555
C1 H1 1_555 1_555
N6 Fe1 1_555 1_555
N7 C12 1_555 1_555
N8 Fe1 1_555 1_555
N9 C10 1_555 1_555
C2 C18 1_555 1_555
N10 Fe2 1_555 1_555
C3 N8 1_555 1_555
C4 H2 1_555 1_555
C5 H3 1_555 1_555
C6 C4 1_555 1_555
H4 C6 1_555 1_555
C7 N3 1_555 1_555
C8 C7 1_555 1_555
H5 C8 1_555 1_555
C9 C3 1_555 1_555
H6 C9 1_555 1_555
C10 N3 1_555 1_555
C11 N8 1_555 1_555
H7 C11 1_555 1_555
C12 N5 1_555 1_555
C13 N2 1_555 1_555
H8 C13 1_555 1_555
C14 N4 1_555 1_555
C15 N7 1_555 1_555
H9 C15 1_555 1_555
C16 N1 1_555 1_555
H10 C16 1_555 1_555
C17 N6 1_555 1_555
C18 H11 1_555 1_555
C19 C13 1_555 1_555
H12 C19 1_555 1_555
C20 C18 1_555 1_555
H13 C20 1_555 1_555
C21 C16 1_555 1_555
H14 C21 1_555 1_555
C22 N4 1_555 1_555
H15 C22 1_555 1_555
C23 C9 1_555 1_555
H16 C23 1_555 1_555
C24 C11 1_555 1_555
H17 C24 1_555 1_555
C25 C8 1_555 1_555
H18 C25 1_555 1_555
C26 N10 1_555 1_555
Fe2_2 N2A 1_555 1_555
S1A C17A 1_555 1_555
S2A C26A 1_555 1_555
N1A Fe1 1_555 1_555
N2A C2A 1_555 1_555
N2A_2 Fe2 1_555 1_555
N3A C3A 1_555 1_555
N4A Fe2_2 1_555 1_555
N4A_2 Fe2 1_555 1_555
N5A C2A 1_555 1_555
C1A H1A 1_555 1_555
N6A Fe1 1_555 1_555
N7A C12A 1_555 1_555
N8A Fe1 1_555 1_555
N9A C10A 1_555 1_555
C2A C18A 1_555 1_555
N10A Fe2 1_555 1_555
C3A N8A 1_555 1_555
C4A H2A 1_555 1_555
C5A H3A 1_555 1_555
C6A C4A 1_555 1_555
H4A C6A 1_555 1_555
C7A N1A 1_555 1_555
C8A C7A 1_555 1_555
H5A C8A 1_555 1_555
C9A C3A 1_555 1_555
H6A C9A 1_555 1_555
C10A N3A 1_555 1_555
C11A N8A 1_555 1_555
H7A C11A 1_555 1_555
C12A N5A 1_555 1_555
C13A N2A 1_555 1_555
H8A C13A 1_555 1_555
C14A N4A 1_555 1_555
C15A N7A 1_555 1_555
H9A C15A 1_555 1_555
C16A N1A 1_555 1_555
H10A C16A 1_555 1_555
C17A N6A 1_555 1_555
C18A H11A 1_555 1_555
C19A C13A 1_555 1_555
H12A C19A 1_555 1_555
C20A C18A 1_555 1_555
H13A C20A 1_555 1_555
C21A C16A 1_555 1_555
H14A C21A 1_555 1_555
C22A N4A 1_555 1_555
H15A C22A 1_555 1_555
C23A C9A 1_555 1_555
H16A C23A 1_555 1_555
C24A C11A 1_555 1_555
H17A C24A 1_555 1_555
C25A C8A 1_555 1_555
H18A C25A 1_555 1_555
C26A N10A 1_555 1_555
N5 C14 1_555 1_555
C1 C10 1_555 1_555
C1 C12 1_555 1_555
N9 C15 1_555 1_555
C4 C14 1_555 1_555
C5 C6 1_555 1_555
C5 C22 1_555 1_555
C19 C20 1_555 1_555
C21 C25 1_555 1_555
C23 C24 1_555 1_555
N3A C7A 1_555 1_555
N5A C14A 1_555 1_555
C1A C10A 1_555 1_555
C1A C12A 1_555 1_555
N9A C15A 1_555 1_555
C4A C14A 1_555 1_555
C5A C6A 1_555 1_555
C5A C22A 1_555 1_555
C19A C20A 1_555 1_555
C21A C25A 1_555 1_555
C23A C24A 1_555 1_555

#END
