
#######################################################################
#
#                 Cambridge Crystallographic Data Centre
#                                CCDC 
#
#######################################################################
#
# If this CIF has been generated from an entry in the Cambridge 
# Structural Database, then it will include bibliographic, chemical, 
# crystal, experimental, refinement or atomic coordinate data resulting 
# from the CCDC's data processing and validation procedures.
#
#######################################################################

data_BOKSOK02
_symmetry_cell_setting           triclinic
_symmetry_space_group_name_H-M   'P -1'
_symmetry_Int_Tables_number      2
_space_group_name_Hall           '-P 1'
loop_
_symmetry_equiv_pos_site_id
_symmetry_equiv_pos_as_xyz
1 x,y,z
2 -x,-y,-z
_cell_length_a                   8.564(3)
_cell_length_b                   8.675(3)
_cell_length_c                   17.473(5)
_cell_angle_alpha                103.984(4)
_cell_angle_beta                 95.446(5)
_cell_angle_gamma                96.526(5)
_cell_volume                     1241.36
loop_
_atom_site_label
_atom_site_type_symbol
_atom_site_fract_x
_atom_site_fract_y
_atom_site_fract_z
Fe1 Fe -0.5000 -1.0000 -0.5000
Fe2 Fe 0.0000 -0.5000 0.0000
S1 S -0.66230(11) -0.68137(11) -0.26774(5)
S2 S 0.17445(13) -0.22043(15) -0.18435(7)
N1 N -0.5487(3) -0.8495(4) -0.40508(17)
N2 N -0.3978(3) -0.8226(3) -0.54099(17)
N3 N -0.2312(4) -0.7251(3) -0.41992(16)
N4 N -0.2827(3) -1.0095(3) -0.44891(16)
N5 N -0.2490(4) -0.4597(3) -0.35683(17)
N6 N -0.2683(4) -0.3793(3) -0.21688(17)
N7 N -0.1296(4) -0.7124(4) -0.06928(17)
N8 N -0.2704(4) -0.5611(3) -0.13874(16)
N9 N -0.2082(4) -0.4027(4) -0.00748(17)
N10 N 0.0631(4) -0.4268(4) -0.09462(18)
C1 C -0.5966(4) -0.7795(4) -0.3485(2)
C2 C -0.4387(4) -0.8164(4) -0.6175(2)
H1 H -0.5146 -0.8996 -0.6509
C3 C -0.3754(4) -0.6957(4) -0.6484(2)
H2 H -0.4090 -0.6943 -0.7017
C4 C -0.2614(4) -0.5755(4) -0.6006(2)
H3 H -0.2161 -0.4902 -0.6204
C5 C -0.2153(4) -0.5824(4) -0.5238(2)
H4 H -0.1365 -0.5027 -0.4901
C6 C -0.2858(4) -0.7075(4) -0.4966(2)
C7 C -0.2300(4) -1.1502(4) -0.4477(2)
H5 H -0.2979 -1.2475 -0.4726
C8 C -0.0811(4) -1.1582(4) -0.4115(2)
H6 H -0.0499 -1.2591 -0.4099
C9 C 0.0221(4) -1.0180(4) -0.3776(2)
H7 H 0.1248 -1.0210 -0.3527
C10 C -0.0281(4) -0.8739(4) -0.3810(2)
H8 H 0.0406 -0.7757 -0.3594
C11 C -0.1809(4) -0.8742(4) -0.41668(19)
C12 C -0.2356(4) -0.6080(4) -0.3499(2)
C13 C -0.2306(4) -0.6476(4) -0.2775(2)
H9 H -0.2104 -0.7506 -0.2727
C14 C -0.2562(4) -0.5306(4) -0.2128(2)
C15 C -0.2597(4) -0.3544(4) -0.2886(2)
H10 H -0.2615 -0.2467 -0.2916
C16 C -0.1108(5) -0.8560(4) -0.0542(2)
H11 H -0.0307 -0.8578 -0.0131
C17 C -0.2003(5) -0.9981(5) -0.0948(2)
H12 H -0.1789 -1.0963 -0.0840
C18 C -0.3230(5) -0.9959(4) -0.1522(2)
H13 H -0.3889 -1.0923 -0.1806
C19 C -0.3476(5) -0.8505(4) -0.1674(2)
H14 H -0.4316 -0.8452 -0.2059
C20 C -0.2477(4) -0.7126(4) -0.1255(2)
C21 C -0.2459(5) -0.2952(5) 0.0547(2)
H15 H -0.1794 -0.2723 0.1039
C22 C -0.3757(5) -0.2165(5) 0.0508(2)
H16 H -0.3942 -0.1360 0.0952
C23 C -0.4794(5) -0.2571(4) -0.0193(2)
H17 H -0.5709 -0.2056 -0.0235
C24 C -0.4473(5) -0.3729(4) -0.0823(2)
H18 H -0.5183 -0.4058 -0.1303
C25 C -0.3093(5) -0.4411(4) -0.0748(2)
C26 C 0.1090(5) -0.3420(5) -0.1320(2)
Fe2_2 Fe -1.0000 -1.5000 -1.0000
S1A S -0.33770(11) -1.31863(11) -0.73226(5)
S2A S -0.17445(13) -0.77957(15) 0.18435(7)
N1A N -0.4513(3) -1.1505(4) -0.59492(17)
N2A N -0.6022(3) -1.1774(3) -0.45901(17)
N3A N -0.7688(4) -1.2749(3) -0.58008(16)
N4A N -0.7173(3) -0.9905(3) -0.55109(16)
N5A N -0.7510(4) -1.5403(3) -0.64317(17)
N6A N -0.7317(4) -1.6207(3) -0.78312(17)
N7A N -0.8704(4) -1.2876(4) -0.93072(17)
N7A_2 N 0.1296(4) -0.2876(4) 0.06928(17)
N8A N -0.7296(4) -1.4389(3) -0.86126(16)
N9A N -0.7918(4) -1.5973(4) -0.99252(17)
N9A_2 N 0.2082(4) -0.5973(4) 0.00748(17)
N10A N -0.0631(4) -0.5732(4) 0.09462(18)
C1A C -0.4034(4) -1.2205(4) -0.6515(2)
C2A C -0.5613(4) -1.1836(4) -0.3825(2)
H1A H -0.4854 -1.1004 -0.3491
C3A C -0.6246(4) -1.3043(4) -0.3516(2)
H2A H -0.5910 -1.3057 -0.2983
C4A C -0.7386(4) -1.4245(4) -0.3994(2)
H3A H -0.7839 -1.5098 -0.3796
C5A C -0.7847(4) -1.4176(4) -0.4762(2)
H4A H -0.8635 -1.4973 -0.5099
C6A C -0.7142(4) -1.2925(4) -0.5034(2)
C7A C -0.7700(4) -0.8498(4) -0.5523(2)
H5A H -0.7021 -0.7525 -0.5274
C8A C -0.9189(4) -0.8418(4) -0.5885(2)
H6A H -0.9501 -0.7409 -0.5901
C9A C -1.0221(4) -0.9820(4) -0.6224(2)
H7A H -1.1248 -0.9790 -0.6473
C10A C -0.9719(4) -1.1261(4) -0.6190(2)
H8A H -1.0406 -1.2243 -0.6406
C11A C -0.8191(4) -1.1258(4) -0.58332(19)
C12A C -0.7644(4) -1.3920(4) -0.6501(2)
C13A C -0.7694(4) -1.3524(4) -0.7225(2)
H9A H -0.7896 -1.2494 -0.7273
C14A C -0.7438(4) -1.4694(4) -0.7872(2)
C15A C -0.7403(4) -1.6456(4) -0.7114(2)
H10A H -0.7385 -1.7533 -0.7084
C16A C -0.8892(5) -1.1440(4) -0.9458(2)
H11A H -0.9693 -1.1422 -0.9869
C17A C -0.7997(5) -1.0019(5) -0.9052(2)
H12A H -0.8211 -0.9037 -0.9160
C18A C -0.6770(5) -1.0041(4) -0.8478(2)
H13A H -0.6111 -0.9077 -0.8194
C19A C -0.6524(5) -1.1495(4) -0.8326(2)
H14A H -0.5684 -1.1548 -0.7941
C20A C -0.7523(4) -1.2874(4) -0.8745(2)
C21A C -0.7541(5) -1.7048(5) -1.0547(2)
H15A H -0.8206 -1.7277 -1.1039
C22A C -0.6243(5) -1.7835(5) -1.0508(2)
H16A H -0.6058 -1.8640 -1.0952
C23A C -0.5206(5) -1.7429(4) -0.9807(2)
H17A H -0.4291 -1.7944 -0.9765
C24A C -0.5527(5) -1.6271(4) -0.9177(2)
H18A H -0.4817 -1.5942 -0.8697
C25A C -0.6907(5) -1.5589(4) -0.9252(2)
C26A C -0.1090(5) -0.6580(5) 0.1320(2)
loop_
_geom_bond_atom_site_label_1
_geom_bond_atom_site_label_2
_geom_bond_site_symmetry_1
_geom_bond_site_symmetry_2
Fe1 N1 1_555 1_555
Fe2 N7 1_555 1_555
S1 C1 1_555 1_555
S2 C26 1_555 1_555
N1 C1 1_555 1_555
N2 Fe1 1_555 1_555
N3 C6 1_555 1_555
N4 Fe1 1_555 1_555
N5 C12 1_555 1_555
N6 C14 1_555 1_555
N7 C16 1_555 1_555
N8 C14 1_555 1_555
N9 Fe2 1_555 1_555
N10 Fe2 1_555 1_555
C2 N2 1_555 1_555
H1 C2 1_555 1_555
C3 C2 1_555 1_555
H2 C3 1_555 1_555
C4 C3 1_555 1_555
H3 C4 1_555 1_555
C5 C4 1_555 1_555
H4 C5 1_555 1_555
C6 N2 1_555 1_555
C7 N4 1_555 1_555
H5 C7 1_555 1_555
C8 C7 1_555 1_555
H6 C8 1_555 1_555
C9 C8 1_555 1_555
H7 C9 1_555 1_555
C10 C9 1_555 1_555
H8 C10 1_555 1_555
C11 N3 1_555 1_555
C12 N3 1_555 1_555
C13 C12 1_555 1_555
H9 C13 1_555 1_555
C14 C13 1_555 1_555
C15 N5 1_555 1_555
H10 C15 1_555 1_555
C16 H11 1_555 1_555
C17 C16 1_555 1_555
H12 C17 1_555 1_555
C18 C17 1_555 1_555
H13 C18 1_555 1_555
C19 C18 1_555 1_555
H14 C19 1_555 1_555
C20 N7 1_555 1_555
C21 N9 1_555 1_555
H15 C21 1_555 1_555
C22 C21 1_555 1_555
H16 C22 1_555 1_555
C23 C22 1_555 1_555
H17 C23 1_555 1_555
C24 C23 1_555 1_555
H18 C24 1_555 1_555
C25 N8 1_555 1_555
C26 N10 1_555 1_555
Fe2_2 N7A 1_555 1_555
S1A C1A 1_555 1_555
S2A C26A 1_555 1_555
N1A Fe1 1_555 1_555
N2A Fe1 1_555 1_555
N3A C6A 1_555 1_555
N4A Fe1 1_555 1_555
N5A C12A 1_555 1_555
N6A C14A 1_555 1_555
N7A C16A 1_555 1_555
N7A_2 Fe2 1_555 1_555
N8A C14A 1_555 1_555
N9A Fe2_2 1_555 1_555
N9A_2 Fe2 1_555 1_555
N10A Fe2 1_555 1_555
C1A N1A 1_555 1_555
C2A N2A 1_555 1_555
H1A C2A 1_555 1_555
C3A C2A 1_555 1_555
H2A C3A 1_555 1_555
C4A C3A 1_555 1_555
H3A C4A 1_555 1_555
C5A C4A 1_555 1_555
H4A C5A 1_555 1_555
C6A N2A 1_555 1_555
C7A N4A 1_555 1_555
H5A C7A 1_555 1_555
C8A C7A 1_555 1_555
H6A C8A 1_555 1_555
C9A C8A 1_555 1_555
H7A C9A 1_555 1_555
C10A C9A 1_555 1_555
H8A C10A 1_555 1_555
C11A N3A 1_555 1_555
C12A N3A 1_555 1_555
C13A C12A 1_555 1_555
H9A C13A 1_555 1_555
C14A C13A 1_555 1_555
C15A N5A 1_555 1_555
H10A C15A 1_555 1_555
C16A H11A 1_555 1_555
C17A C16A 1_555 1_555
H12A C17A 1_555 1_555
C18A C17A 1_555 1_555
H13A C18A 1_555 1_555
C19A C18A 1_555 1_555
H14A C19A 1_555 1_555
C20A N7A 1_555 1_555
C21A N9A 1_555 1_555
H15A C21A 1_555 1_555
C22A C21A 1_555 1_555
H16A C22A 1_555 1_555
C23A C22A 1_555 1_555
H17A C23A 1_555 1_555
C24A C23A 1_555 1_555
H18A C24A 1_555 1_555
C25A N8A 1_555 1_555
C26A N10A 1_555 1_555
N4 C11 1_555 1_555
N6 C15 1_555 1_555
N8 C20 1_555 1_555
N9 C25 1_555 1_555
C5 C6 1_555 1_555
C10 C11 1_555 1_555
C19 C20 1_555 1_555
C24 C25 1_555 1_555
N4A C11A 1_555 1_555
N6A C15A 1_555 1_555
N8A C20A 1_555 1_555
N9A C25A 1_555 1_555
C5A C6A 1_555 1_555
C10A C11A 1_555 1_555
C19A C20A 1_555 1_555
C24A C25A 1_555 1_555

#END
