
#######################################################################
#
#                 Cambridge Crystallographic Data Centre
#                                CCDC 
#
#######################################################################
#
# If this CIF has been generated from an entry in the Cambridge 
# Structural Database, then it will include bibliographic, chemical, 
# crystal, experimental, refinement or atomic coordinate data resulting 
# from the CCDC's data processing and validation procedures.
#
#######################################################################

data_BOKWII
_symmetry_cell_setting           monoclinic
_symmetry_space_group_name_H-M   'C 2/c'
_symmetry_Int_Tables_number      15
_space_group_name_Hall           '-C 2yn'
loop_
_symmetry_equiv_pos_site_id
_symmetry_equiv_pos_as_xyz
1 x,y,z
2 1/2+x,1/2+y,z
3 -x,y,1/2-z
4 1/2-x,1/2+y,1/2-z
5 -x,-y,-z
6 1/2-x,1/2-y,-z
7 x,-y,1/2+z
8 1/2+x,1/2-y,1/2+z
_cell_length_a                   10.1880(3)
_cell_length_b                   11.7851(3)
_cell_length_c                   21.5830(4)
_cell_angle_alpha                90
_cell_angle_beta                 94.844(1)
_cell_angle_gamma                90
_cell_volume                     2582.14
loop_
_atom_site_label
_atom_site_type_symbol
_atom_site_fract_x
_atom_site_fract_y
_atom_site_fract_z
Cd1 Cd 0.5000 0.132898(12) 0.2500
O1 O 0.31648(13) 0.13666(10) 0.18439(6)
O2 O 0.60325(13) 0.12290(11) 0.16002(6)
O3 O 0.6018(2) 0.12635(18) -0.00623(10)
F1 F 0.13233(15) 0.27333(14) 0.11616(8)
F2 F 0.09074(12) 0.09460(15) 0.11362(6)
F3 F 0.16360(12) 0.17501(14) 0.03434(6)
N1 N 0.5000 0.33137(16) 0.2500
N2 N 0.5000 0.93409(16) 0.2500
C1 C 0.31502(16) 0.14899(14) 0.12597(8)
C2 C 0.41490(18) 0.14530(16) 0.08666(9)
H1 H 0.3905 0.1547 0.0430
C3 C 0.55141(17) 0.12855(13) 0.10520(9)
C4 C 0.63881(18) 0.11801(15) 0.05501(9)
C5 C 0.7211(4) 0.1131(3) -0.03552(13)
H2 H 0.7286 0.1133 -0.0782
C6 C 0.8201(3) 0.1005(2) 0.00824(17)
H3 H 0.9082 0.0914 0.0012
C7 C 0.77082(16) 0.10294(18) 0.06579(9)
H4 H 0.8185 0.0957 0.1043
C8 C 0.17540(18) 0.17259(19) 0.09643(9)
C9 C 0.60185(17) 0.39095(15) 0.27672(10)
H5 H 0.6755 0.3501 0.2963
C10 C 0.60640(17) 0.50826(14) 0.27716(10)
H6 H 0.6824 0.5467 0.2963
C11 C 0.5000 0.57084(18) 0.2500
C12 C 0.59544(18) 0.87493(13) 0.28201(9)
H7 H 0.6644 0.9160 0.3053
C13 C 0.59933(17) 0.75747(14) 0.28320(9)
H8 H 0.6702 0.7188 0.3066
C14 C 0.5000 0.69571(17) 0.2500
Cd1_2 Cd 0.5000 1.132898(12) 0.2500
O1B O 0.68352(13) 0.13666(10) 0.31561(6)
O2B O 0.39675(13) 0.12290(11) 0.33998(6)
O3B O 0.3982(2) 0.12635(18) 0.50623(10)
F1B F 0.86767(15) 0.27333(14) 0.38384(8)
F2B F 0.90926(12) 0.09460(15) 0.38638(6)
F3B F 0.83640(12) 0.17501(14) 0.46566(6)
N2_2 N 0.5000 -0.06591(16) 0.2500
C1B C 0.68498(16) 0.14899(14) 0.37403(8)
C2B C 0.58510(18) 0.14530(16) 0.41334(9)
H1B H 0.6095 0.1547 0.4570
C3B C 0.44859(17) 0.12855(13) 0.39480(9)
C4B C 0.36119(18) 0.11801(15) 0.44499(9)
C5B C 0.2789(4) 0.1131(3) 0.53552(13)
H2B H 0.2714 0.1133 0.5782
C6B C 0.1799(3) 0.1005(2) 0.49176(17)
H3B H 0.0918 0.0914 0.4988
C7B C 0.22918(16) 0.10294(18) 0.43421(9)
H4B H 0.1815 0.0957 0.3957
C8B C 0.82460(18) 0.17259(19) 0.40357(9)
C9B C 0.39815(17) 0.39095(15) 0.22328(10)
H5B H 0.3245 0.3501 0.2037
C10B C 0.39360(17) 0.50826(14) 0.22284(10)
H6B H 0.3176 0.5467 0.2037
C12B C 0.40456(18) 0.87493(13) 0.21799(9)
H7B H 0.3356 0.9160 0.1947
C13B C 0.40067(17) 0.75747(14) 0.21680(9)
H8B H 0.3298 0.7188 0.1934
loop_
_geom_bond_atom_site_label_1
_geom_bond_atom_site_label_2
_geom_bond_site_symmetry_1
_geom_bond_site_symmetry_2
Cd1 O1 1_555 1_555
O1 C1 1_555 1_555
O2 Cd1 1_555 1_555
O3 C4 1_555 1_555
F1 C8 1_555 1_555
F2 C8 1_555 1_555
F3 C8 1_555 1_555
N1 Cd1 1_555 1_555
N2 C12 1_555 1_555
C1 C2 1_555 1_555
C2 H1 1_555 1_555
C3 O2 1_555 1_555
C4 C3 1_555 1_555
C5 O3 1_555 1_555
H2 C5 1_555 1_555
C6 C5 1_555 1_555
H3 C6 1_555 1_555
C7 C4 1_555 1_555
H4 C7 1_555 1_555
C8 C1 1_555 1_555
C9 N1 1_555 1_555
H5 C9 1_555 1_555
C10 C9 1_555 1_555
H6 C10 1_555 1_555
C11 C10 1_555 1_555
C12 H7 1_555 1_555
C13 C12 1_555 1_555
H8 C13 1_555 1_555
C14 C11 1_555 1_555
Cd1_2 N2 1_555 1_555
O1B Cd1 1_555 1_555
O2B Cd1 1_555 1_555
O3B C4B 1_555 1_555
F1B C8B 1_555 1_555
F2B C8B 1_555 1_555
F3B C8B 1_555 1_555
N2_2 Cd1 1_555 1_555
C1B O1B 1_555 1_555
C2B C1B 1_555 1_555
H1B C2B 1_555 1_555
C3B O2B 1_555 1_555
C4B C3B 1_555 1_555
C5B O3B 1_555 1_555
H2B C5B 1_555 1_555
C6B C5B 1_555 1_555
H3B C6B 1_555 1_555
C7B C4B 1_555 1_555
H4B C7B 1_555 1_555
C8B C1B 1_555 1_555
C9B N1 1_555 1_555
H5B C9B 1_555 1_555
C10B C11 1_555 1_555
H6B C10B 1_555 1_555
C12B N2 1_555 1_555
H7B C12B 1_555 1_555
C13B C14 1_555 1_555
H8B C13B 1_555 1_555
C2 C3 1_555 1_555
C6 C7 1_555 1_555
C13 C14 1_555 1_555
C2B C3B 1_555 1_555
C6B C7B 1_555 1_555
C9B C10B 1_555 1_555
C12B C13B 1_555 1_555

#END
