
#######################################################################
#
#                 Cambridge Crystallographic Data Centre
#                                CCDC 
#
#######################################################################
#
# If this CIF has been generated from an entry in the Cambridge 
# Structural Database, then it will include bibliographic, chemical, 
# crystal, experimental, refinement or atomic coordinate data resulting 
# from the CCDC's data processing and validation procedures.
#
#######################################################################

data_BOKXUV
_symmetry_cell_setting           monoclinic
_symmetry_space_group_name_H-M   'P 21/c'
_symmetry_Int_Tables_number      14
_space_group_name_Hall           '-P 2ybc'
loop_
_symmetry_equiv_pos_site_id
_symmetry_equiv_pos_as_xyz
1 x,y,z
2 -x,1/2+y,1/2-z
3 -x,-y,-z
4 x,1/2-y,1/2+z
_cell_length_a                   7.0892(10)
_cell_length_b                   8.5423(12)
_cell_length_c                   19.542(3)
_cell_angle_alpha                90
_cell_angle_beta                 99.289(2)
_cell_angle_gamma                90
_cell_volume                     1167.91
loop_
_atom_site_label
_atom_site_type_symbol
_atom_site_fract_x
_atom_site_fract_y
_atom_site_fract_z
Mn1 Mn 0.40633(4) 0.39920(4) 0.142039(15)
C1 C 0.2335(3) 0.0906(3) 0.38252(11)
C2 C 0.2094(3) 0.1630(3) 0.31183(10)
C3 C 0.0463(3) 0.2780(3) 0.22026(11)
H1 H -0.0561 0.3159 0.1888
C4 C 0.3308(3) 0.2149(3) 0.26868(10)
C5 C 0.5442(3) 0.2163(3) 0.27297(11)
C6 C 0.7208(4) 0.0466(4) 0.10283(15)
H2 H 0.6976 0.0167 0.1465
C7 C 0.8793(4) -0.0088(3) 0.07912(14)
H3 H 0.9630 -0.0750 0.1070
C8 C 0.9175(3) 0.0328(3) 0.01358(12)
C9 C 0.7931(4) 0.1396(3) -0.02259(14)
H4 H 0.8159 0.1753 -0.0655
C10 C 0.6363(4) 0.1943(3) 0.00335(15)
H5 H 0.5562 0.2677 -0.0217
N1 N 0.0298(3) 0.2059(2) 0.28007(9)
N2 N 0.2263(2) 0.2880(2) 0.21209(9)
N3 N 0.5984(3) 0.1430(2) 0.06409(12)
O1 O 0.3737(2) 0.0059(2) 0.40264(8)
O2 O 0.1063(2) 0.1240(2) 0.41752(8)
O3 O 0.6482(2) 0.13196(19) 0.31593(8)
O4 O 0.6078(2) 0.3062(2) 0.23125(8)
O5 O 0.4388(2) 0.1874(2) 0.08612(11)
O6 O 0.1800(3) 0.4408(3) 0.05977(10)
H6 H 0.174(4) 0.414(3) 0.0235(15)
H7 H -0.073(4) 0.187(3) 0.2980(13)
H8 H 0.089(5) 0.503(4) 0.0626(16)
Mn1A Mn 0.59367(4) 0.89920(4) 0.357961(15)
Mn1A_2 Mn 0.59367(4) -0.10080(4) 0.357961(15)
Mn1B Mn 1.59367(4) -0.39920(4) -0.142039(15)
C1A C 0.7665(3) 0.5906(3) 0.11748(11)
C2A C 0.7906(3) 0.6630(3) 0.18817(10)
C3A C 0.9537(3) 0.7780(3) 0.27974(11)
H1A H 1.0561 0.8159 0.3112
C4A C 0.6692(3) 0.7149(3) 0.23132(10)
C5A C 0.4558(3) 0.7163(3) 0.22703(11)
C6B C 1.2792(4) -0.0466(4) -0.10283(15)
H2B H 1.3024 -0.0167 -0.1465
C7B C 1.1207(4) 0.0088(3) -0.07912(14)
H3B H 1.0370 0.0750 -0.1070
C8B C 1.0825(3) -0.0328(3) -0.01358(12)
C9B C 1.2069(4) -0.1396(3) 0.02259(14)
H4B H 1.1841 -0.1753 0.0655
C10B C 1.3637(4) -0.1943(3) -0.00335(15)
H5B H 1.4438 -0.2677 0.0217
N1A N 0.9702(3) 0.7059(2) 0.21993(9)
N2A N 0.7737(2) 0.7880(2) 0.28791(9)
N3B N 1.4016(3) -0.1430(2) -0.06409(12)
O1A O 0.6263(2) 0.5059(2) 0.09736(8)
O1_2 O 0.3737(2) 1.0059(2) 0.40264(8)
O2A O 0.8937(2) 0.6240(2) 0.08248(8)
O3A O 0.3518(2) 0.63196(19) 0.18407(8)
O3_2 O 0.6482(2) 1.13196(19) 0.31593(8)
O4A O 0.3922(2) 0.8062(2) 0.26875(8)
O5B O 1.5612(2) -0.1874(2) -0.08612(11)
O5A O 0.5612(2) 0.6874(2) 0.41388(11)
O6A O 0.8200(3) 0.9408(3) 0.44023(10)
H6A H 0.826(4) 0.914(3) 0.4765(15)
H7A H 1.073(4) 0.687(3) 0.2020(13)
H8A H 0.911(5) 1.003(4) 0.4374(16)
loop_
_geom_bond_atom_site_label_1
_geom_bond_atom_site_label_2
_geom_bond_site_symmetry_1
_geom_bond_site_symmetry_2
Mn1 N2 1_555 1_555
C1 C2 1_555 1_555
C2 C4 1_555 1_555
C3 H1 1_555 1_555
C4 C5 1_555 1_555
C5 O3 1_555 1_555
C6 H2 1_555 1_555
C7 C6 1_555 1_555
H3 C7 1_555 1_555
C8 C7 1_555 1_555
C9 C8 1_555 1_555
H4 C9 1_555 1_555
C10 C9 1_555 1_555
H5 C10 1_555 1_555
N1 C2 1_555 1_555
N2 C3 1_555 1_555
N3 C6 1_555 1_555
O1 C1 1_555 1_555
O2 C1 1_555 1_555
O3 Mn1A_2 1_555 1_555
O4 Mn1 1_555 1_555
O5 Mn1 1_555 1_555
O6 Mn1 1_555 1_555
H6 O6 1_555 1_555
H7 N1 1_555 1_555
H8 O6 1_555 1_555
Mn1A N2A 1_555 1_555
Mn1A_2 O1 1_555 1_555
Mn1B O5B 1_555 1_555
C1A C2A 1_555 1_555
C2A C4A 1_555 1_555
C3A H1A 1_555 1_555
C4A C5A 1_555 1_555
C5A O3A 1_555 1_555
C6B H2B 1_555 1_555
C7B C6B 1_555 1_555
H3B C7B 1_555 1_555
C8B C8 1_555 1_555
C9B C8B 1_555 1_555
H4B C9B 1_555 1_555
C10B C9B 1_555 1_555
H5B C10B 1_555 1_555
N1A C2A 1_555 1_555
N2A C3A 1_555 1_555
N3B C6B 1_555 1_555
O1A Mn1 1_555 1_555
O1_2 Mn1A 1_555 1_555
O2A C1A 1_555 1_555
O3A Mn1 1_555 1_555
O3_2 Mn1A 1_555 1_555
O4A Mn1A 1_555 1_555
O5B N3B 1_555 1_555
O5A Mn1A 1_555 1_555
O6A Mn1A 1_555 1_555
H6A O6A 1_555 1_555
H7A N1A 1_555 1_555
H8A O6A 1_555 1_555
C3 N1 1_555 1_555
C4 N2 1_555 1_555
C5 O4 1_555 1_555
C10 N3 1_555 1_555
N3 O5 1_555 1_555
C1A O1A 1_555 1_555
C3A N1A 1_555 1_555
C4A N2A 1_555 1_555
C5A O4A 1_555 1_555
C7B C8B 1_555 1_555
C10B N3B 1_555 1_555

#END
