
#######################################################################
#
#                 Cambridge Crystallographic Data Centre
#                                CCDC 
#
#######################################################################
#
# If this CIF has been generated from an entry in the Cambridge 
# Structural Database, then it will include bibliographic, chemical, 
# crystal, experimental, refinement or atomic coordinate data resulting 
# from the CCDC's data processing and validation procedures.
#
#######################################################################

data_BOKXIK
_symmetry_cell_setting           triclinic
_symmetry_space_group_name_H-M   'P -1'
_symmetry_Int_Tables_number      2
_space_group_name_Hall           '-P 1'
loop_
_symmetry_equiv_pos_site_id
_symmetry_equiv_pos_as_xyz
1 x,y,z
2 -x,-y,-z
_cell_length_a                   7.9661(3)
_cell_length_b                   8.33650(10)
_cell_length_c                   14.9320(10)
_cell_angle_alpha                76.996(12)
_cell_angle_beta                 89.811(14)
_cell_angle_gamma                63.693(9)
_cell_volume                     860.834
loop_
_atom_site_label
_atom_site_type_symbol
_atom_site_fract_x
_atom_site_fract_y
_atom_site_fract_z
Cu1 Cu 1.0000 0.5000 0.5000
Cu2 Cu 1.0000 0.5000 1.0000
Cl1 Cl 0.7349(3) 0.7650(3) 0.49435(16)
Cl2 Cl 0.7257(3) 0.7449(3) 0.93388(18)
S1 S 1.1694(3) 0.5759(3) 0.74047(15)
O1 O 1.0775(10) 0.7730(8) 0.7197(5)
N1 N 1.0785(8) 0.5045(8) 0.6625(4)
N2 N 1.0905(8) 0.4924(8) 0.8382(4)
O2 O 1.3699(8) 0.4750(9) 0.7486(4)
N3 N 0.9052(8) 0.3355(8) 0.9598(4)
C1 C 0.9022(10) 0.3291(9) 0.8691(5)
C2 C 0.8098(10) 0.2470(9) 0.8322(5)
C3 C 1.0011(10) 0.4149(9) 0.8112(5)
C4 C 0.8900(9) 0.3391(9) 0.6738(5)
C5 C 0.7189(11) 0.1678(11) 0.8940(6)
H1 H 0.6526 0.1141 0.8719
C6 C 0.9908(10) 0.4245(9) 0.7095(5)
C7 C 0.7167(12) 0.1665(11) 0.6949(6)
H2 H 0.6582 0.1055 0.7320
N4 N 0.8873(9) 0.3520(8) 0.5805(4)
C8 C 0.8054(9) 0.2502(9) 0.7317(5)
C9 C 0.7242(11) 0.1667(11) 0.9836(5)
H3 H 0.6658 0.1104 1.0241
C10 C 0.8213(12) 0.2540(11) 1.0147(6)
H4 H 0.8262 0.2537 1.0770
C11 C 0.7171(13) 0.1758(12) 0.5996(6)
H5 H 0.6617 0.1176 0.5731
C12 C 0.7995(12) 0.2710(12) 0.5465(6)
H6 H 0.7941 0.2799 0.4833
Cl1A Cl 1.2651(3) 0.2350(3) 0.50565(16)
S1A S 0.8306(3) 0.4241(3) 0.25953(15)
O1A O 0.9225(10) 0.2270(8) 0.2803(5)
N1A N 0.9215(8) 0.4955(8) 0.3375(4)
N2A N 0.9095(8) 0.5076(8) 0.1618(4)
O2A O 0.6301(8) 0.5250(9) 0.2514(4)
N3A N 1.0948(8) 0.6645(8) 0.0402(4)
C1A C 1.0978(10) 0.6709(9) 0.1309(5)
C2A C 1.1902(10) 0.7530(9) 0.1678(5)
C3A C 0.9989(10) 0.5851(9) 0.1888(5)
C4A C 1.1100(9) 0.6609(9) 0.3262(5)
C5A C 1.2811(11) 0.8322(11) 0.1060(6)
H1A H 1.3474 0.8859 0.1281
C6A C 1.0092(10) 0.5755(9) 0.2905(5)
C7A C 1.2833(12) 0.8335(11) 0.3051(6)
H2A H 1.3418 0.8945 0.2680
N4A N 1.1127(9) 0.6480(8) 0.4195(4)
C8A C 1.1946(9) 0.7498(9) 0.2683(5)
C9A C 1.2758(11) 0.8333(11) 0.0164(5)
H3A H 1.3342 0.8896 -0.0241
C10A C 1.1787(12) 0.7460(11) -0.0147(6)
H4A H 1.1738 0.7463 -0.0770
C11A C 1.2829(13) 0.8242(12) 0.4004(6)
H5A H 1.3383 0.8824 0.4269
C12A C 1.2005(12) 0.7290(12) 0.4535(6)
H6A H 1.2059 0.7201 0.5167
Cl2A Cl 1.2743(3) 0.2551(3) 1.06612(18)
Cu2_2 Cu 1.0000 0.5000 0.0000
N2A_2 N 0.9095(8) 0.5076(8) 1.1618(4)
N3A_2 N 1.0948(8) 0.6645(8) 1.0402(4)
C13 C 1.3747(14) -0.0466(13) 0.7495(7)
N5 N 1.2748(12) 0.0539(11) 0.7871(6)
C14 C 1.5069(15) -0.1829(14) 0.7014(7)
loop_
_geom_bond_atom_site_label_1
_geom_bond_atom_site_label_2
_geom_bond_site_symmetry_1
_geom_bond_site_symmetry_2
Cu1 Cl1 1_555 1_555
Cu2 Cl2 1_555 1_555
S1 O1 1_555 1_555
N1 Cu1 1_555 1_555
N2 Cu2 1_555 1_555
O2 S1 1_555 1_555
N3 Cu2 1_555 1_555
C1 N3 1_555 1_555
C2 C1 1_555 1_555
C3 N2 1_555 1_555
C4 C6 1_555 1_555
C5 C2 1_555 1_555
H1 C5 1_555 1_555
C6 N1 1_555 1_555
C7 H2 1_555 1_555
N4 Cu1 1_555 1_555
C8 C2 1_555 1_555
C9 C5 1_555 1_555
H3 C9 1_555 1_555
C10 N3 1_555 1_555
H4 C10 1_555 1_555
C11 C7 1_555 1_555
H5 C11 1_555 1_555
C12 N4 1_555 1_555
H6 C12 1_555 1_555
C13 N5 1_555 1_555
C14 C13 1_555 1_555
Cl1A Cu1 1_555 1_555
S1A O1A 1_555 1_555
N1A Cu1 1_555 1_555
N2A S1A 1_555 1_555
O2A S1A 1_555 1_555
N3A C1A 1_555 1_555
C1A C2A 1_555 1_555
C2A C5A 1_555 1_555
C3A N2A 1_555 1_555
C4A C6A 1_555 1_555
C5A H1A 1_555 1_555
C6A N1A 1_555 1_555
C7A H2A 1_555 1_555
N4A Cu1 1_555 1_555
C8A C2A 1_555 1_555
C9A C5A 1_555 1_555
H3A C9A 1_555 1_555
C10A N3A 1_555 1_555
H4A C10A 1_555 1_555
C11A C7A 1_555 1_555
H5A C11A 1_555 1_555
C12A N4A 1_555 1_555
H6A C12A 1_555 1_555
Cl2A Cu2 1_555 1_555
Cu2_2 N2A 1_555 1_555
N2A_2 Cu2 1_555 1_555
N3A_2 Cu2 1_555 1_555
S1 N1 1_555 1_555
S1 N2 1_555 1_555
C1 C3 1_555 1_555
C3 C6 1_555 1_555
C4 N4 1_555 1_555
C4 C8 1_555 1_555
C7 C8 1_555 1_555
C9 C10 1_555 1_555
C11 C12 1_555 1_555
S1A N1A 1_555 1_555
N3A Cu2_2 1_555 1_555
C1A C3A 1_555 1_555
C3A C6A 1_555 1_555
C4A N4A 1_555 1_555
C4A C8A 1_555 1_555
C7A C8A 1_555 1_555
C9A C10A 1_555 1_555
C11A C12A 1_555 1_555

#END
