
#######################################################################
#
#                 Cambridge Crystallographic Data Centre
#                                CCDC 
#
#######################################################################
#
# If this CIF has been generated from an entry in the Cambridge 
# Structural Database, then it will include bibliographic, chemical, 
# crystal, experimental, refinement or atomic coordinate data resulting 
# from the CCDC's data processing and validation procedures.
#
#######################################################################

data_BOKXOP
_symmetry_cell_setting           monoclinic
_symmetry_space_group_name_H-M   'C 2/c'
_symmetry_Int_Tables_number      15
_space_group_name_Hall           '-C 2yn'
loop_
_symmetry_equiv_pos_site_id
_symmetry_equiv_pos_as_xyz
1 x,y,z
2 1/2+x,1/2+y,z
3 -x,y,1/2-z
4 1/2-x,1/2+y,1/2-z
5 -x,-y,-z
6 1/2-x,1/2-y,-z
7 x,-y,1/2+z
8 1/2+x,1/2-y,1/2+z
_cell_length_a                   20.050(2)
_cell_length_b                   23.265(2)
_cell_length_c                   11.5154(16)
_cell_angle_alpha                90
_cell_angle_beta                 118.870(2)
_cell_angle_gamma                90
_cell_volume                     4703.93
loop_
_atom_site_label
_atom_site_type_symbol
_atom_site_fract_x
_atom_site_fract_y
_atom_site_fract_z
Zn1 Zn 0.26221(2) 0.182728(16) 0.64582(4)
N1 N 0.27233(15) 0.13304(11) 0.5104(3)
N2 N 0.24482(15) 0.13128(11) -0.2265(3)
O1 O 0.35213(11) 0.23050(10) 0.7462(2)
O2 O 0.42939(12) 0.15535(12) 0.8309(2)
O3 O 0.68356(12) 0.25836(10) 1.0707(2)
O4 O 0.60196(13) 0.33012(11) 0.9739(2)
S1 S 0.29981(6) 0.01186(4) 0.22567(9)
S2 S 0.20272(6) 0.01415(4) 0.04861(10)
C1 C 0.41798(19) 0.20781(18) 0.8155(3)
C2 C 0.48175(17) 0.24862(14) 0.8767(3)
H1 H 0.4698 0.2876 0.8659
C3 C 0.55405(17) 0.23483(15) 0.9451(3)
H2 H 0.5670 0.1961 0.9604
C4 C 0.61625(19) 0.27837(18) 0.9995(3)
C5 C 0.33103(19) 0.09743(15) 0.5458(4)
H3 H 0.3686 0.0972 0.6343
C6 C 0.33973(19) 0.06109(16) 0.4606(4)
H4 H 0.3820 0.0371 0.4908
C7 C 0.28462(19) 0.06075(14) 0.3290(3)
C8 C 0.2245(2) 0.09788(16) 0.2885(4)
H5 H 0.1872 0.0995 0.1999
C9 C 0.2201(2) 0.13301(16) 0.3814(4)
H6 H 0.1789 0.1579 0.3531
C10 C 0.29735(19) 0.12629(15) -0.0998(3)
H7 H 0.3424 0.1470 -0.0703
C11 C 0.28909(19) 0.09233(15) -0.0097(3)
H8 H 0.3277 0.0905 0.0780
C12 C 0.22333(19) 0.06124(14) -0.0505(3)
C13 C 0.16858(19) 0.06586(16) -0.1821(4)
H9 H 0.1233 0.0453 -0.2145
C14 C 0.1815(2) 0.10092(15) -0.2645(4)
H10 H 0.1437 0.1037 -0.3525
Zn1_2 Zn 0.26221(2) 0.182728(16) -0.35418(4)
Zn1G Zn 0.76221(2) 0.317272(16) 1.14582(4)
N2_2 N 0.24482(15) 0.13128(11) 0.7735(3)
O3G O 0.18356(12) 0.24164(10) 0.5707(2)
loop_
_geom_bond_atom_site_label_1
_geom_bond_atom_site_label_2
_geom_bond_site_symmetry_1
_geom_bond_site_symmetry_2
Zn1 N1 1_555 1_555
N1 C5 1_555 1_555
N2 C10 1_555 1_555
O1 Zn1 1_555 1_555
O2 C1 1_555 1_555
O3 C4 1_555 1_555
O4 C4 1_555 1_555
S1 S2 1_555 1_555
S2 C12 1_555 1_555
C1 O1 1_555 1_555
C2 C1 1_555 1_555
H1 C2 1_555 1_555
C3 C2 1_555 1_555
H2 C3 1_555 1_555
C4 C3 1_555 1_555
C5 H3 1_555 1_555
C6 C5 1_555 1_555
H4 C6 1_555 1_555
C7 S1 1_555 1_555
C8 C7 1_555 1_555
H5 C8 1_555 1_555
C9 N1 1_555 1_555
H6 C9 1_555 1_555
C10 H7 1_555 1_555
C11 C10 1_555 1_555
H8 C11 1_555 1_555
C12 C11 1_555 1_555
C13 C12 1_555 1_555
H9 C13 1_555 1_555
C14 N2 1_555 1_555
H10 C14 1_555 1_555
Zn1_2 N2 1_555 1_555
Zn1G O3 1_555 1_555
N2_2 Zn1 1_555 1_555
O3G Zn1 1_555 1_555
C6 C7 1_555 1_555
C8 C9 1_555 1_555
C13 C14 1_555 1_555

#END
