
#######################################################################
#
#                 Cambridge Crystallographic Data Centre
#                                CCDC 
#
#######################################################################
#
# If this CIF has been generated from an entry in the Cambridge 
# Structural Database, then it will include bibliographic, chemical, 
# crystal, experimental, refinement or atomic coordinate data resulting 
# from the CCDC's data processing and validation procedures.
#
#######################################################################

data_BOKXEF
_symmetry_cell_setting           monoclinic
_symmetry_space_group_name_H-M   'C 2/c'
_symmetry_Int_Tables_number      15
_space_group_name_Hall           '-C 2yn'
loop_
_symmetry_equiv_pos_site_id
_symmetry_equiv_pos_as_xyz
1 x,y,z
2 1/2+x,1/2+y,z
3 -x,y,1/2-z
4 1/2-x,1/2+y,1/2-z
5 -x,-y,-z
6 1/2-x,1/2-y,-z
7 x,-y,1/2+z
8 1/2+x,1/2-y,1/2+z
_cell_length_a                   26.1294(13)
_cell_length_b                   10.1675(4)
_cell_length_c                   19.8705(9)
_cell_angle_alpha                90
_cell_angle_beta                 93.769(2)
_cell_angle_gamma                90
_cell_volume                     5267.59
loop_
_atom_site_label
_atom_site_type_symbol
_atom_site_fract_x
_atom_site_fract_y
_atom_site_fract_z
Co1 Co 0.0000 0.73423(4) 0.7500
S1 S 0.00303(3) 1.23537(5) 0.97030(3)
O1 O 0.08090(7) 0.74346(16) 0.75529(9)
N1 N 0.16539(9) 0.7110(3) 0.74525(14)
N2 N 0.00159(7) 0.88729(17) 0.82542(9)
N3 N 0.00427(7) 1.58340(17) 0.82602(9)
C1 C 0.11680(10) 0.6809(3) 0.73345(13)
C2 C 0.18181(16) 0.8235(5) 0.7855(2)
C3 C 0.20463(15) 0.6320(5) 0.7152(3)
C4 C 0.03605(10) 0.8943(2) 0.87786(11)
C5 C 0.03861(10) 0.9999(2) 0.92274(11)
C6 C 0.00377(9) 1.1010(2) 0.91284(11)
C7 C -0.03221(10) 1.0947(2) 0.85872(12)
C8 C -0.03196(9) 0.9869(2) 0.81679(12)
C9 C 0.00352(9) 1.3693(2) 0.91329(10)
C10 C 0.03539(10) 1.3702(2) 0.86046(12)
C11 C 0.03421(10) 1.4773(2) 0.81815(12)
C12 C -0.02530(9) 1.5831(2) 0.87857(11)
C13 C -0.02708(9) 1.4783(2) 0.92304(11)
H1 H 0.0587(14) 0.822(4) 0.8830(19)
H2 H -0.0444(14) 1.660(4) 0.8847(18)
H3 H -0.0497(14) 1.481(4) 0.9597(19)
H4 H 0.0562(14) 1.478(4) 0.7798(19)
H5 H 0.0663(15) 1.005(4) 0.9603(19)
H6 H -0.0541(14) 1.167(4) 0.8518(18)
H7 H 0.0573(15) 1.296(4) 0.8539(19)
H8 H -0.0581(14) 0.980(4) 0.7775(19)
H9 H 0.1126(14) 0.602(3) 0.7073(17)
H18 H 0.1920 0.5509 0.6961
H19 H 0.2205(17) 0.677(4) 0.6793(17)
H20 H 0.2306(8) 0.610(3) 0.7506(11)
H21 H 0.1994 0.8779 0.7547
H22 H 0.1536(8) 0.876(3) 0.7990(11)
H23 H 0.2067 0.8060 0.8202
Co1_2 Co 0.0000 1.73423(4) 0.7500
Co1_3 Co 0.0000 -0.26577(4) 0.7500
S1_2 S 0.00303(3) 0.23537(5) 0.97030(3)
O1B O -0.08090(7) 0.74346(16) 0.74471(9)
N1B N -0.16539(9) 0.7110(3) 0.75475(14)
N2_2 N 0.00159(7) -0.11271(17) 0.82542(9)
N2B N -0.00159(7) 0.88729(17) 0.67458(9)
N3_2 N 0.00427(7) 0.58340(17) 0.82602(9)
N3B N -0.00427(7) 0.58340(17) 0.67398(9)
C1B C -0.11680(10) 0.6809(3) 0.76655(13)
C2B C -0.18181(16) 0.8235(5) 0.7145(2)
C3B C -0.20463(15) 0.6320(5) 0.7848(3)
C4_2 C 0.03605(10) -0.1057(2) 0.87786(11)
C5_2 C 0.03861(10) -0.0001(2) 0.92274(11)
C6_2 C 0.00377(9) 0.1010(2) 0.91284(11)
C7_2 C -0.03221(10) 0.0947(2) 0.85872(12)
C8_2 C -0.03196(9) -0.0131(2) 0.81679(12)
C9_2 C 0.00352(9) 0.3693(2) 0.91329(10)
C10_2 C 0.03539(10) 0.3702(2) 0.86046(12)
C11_2 C 0.03421(10) 0.4773(2) 0.81815(12)
C12_2 C -0.02530(9) 0.5831(2) 0.87857(11)
C13_2 C -0.02708(9) 0.4783(2) 0.92304(11)
H1_2 H 0.0587(14) -0.178(4) 0.8830(19)
H2_2 H -0.0444(14) 0.660(4) 0.8847(18)
H3_2 H -0.0497(14) 0.481(4) 0.9597(19)
H4_2 H 0.0562(14) 0.478(4) 0.7798(19)
H5_2 H 0.0663(15) 0.005(4) 0.9603(19)
H6_2 H -0.0541(14) 0.167(4) 0.8518(18)
H7_2 H 0.0573(15) 0.296(4) 0.8539(19)
H8_2 H -0.0581(14) -0.020(4) 0.7775(19)
H9B H -0.1126(14) 0.602(3) 0.7927(17)
H18B H -0.1920 0.5509 0.8039
H19B H -0.2205(17) 0.677(4) 0.8207(17)
H20B H -0.2306(8) 0.610(3) 0.7494(11)
H21B H -0.1994 0.8779 0.7453
H22B H -0.1536(8) 0.876(3) 0.7010(11)
H23B H -0.2067 0.8060 0.6798
Cl1 Cl 0.14873(3) 0.25383(8) 0.74687(5)
O2 O 0.11809(17) 0.1587(4) 0.7786(2)
O3 O 0.11281(12) 0.3398(3) 0.7107(2)
O4 O 0.17748(18) 0.3225(5) 0.7965(2)
O5 O 0.17754(16) 0.1914(5) 0.70056(18)
S2 S 0.27220(4) 0.51238(13) 1.05522(5)
N4 N 0.37400(12) 0.2875(4) 0.91864(18)
N5 N 0.12336(13) 0.6508(4) 0.9469(2)
C14 C 0.35448(13) 0.4022(4) 0.89994(19)
C15 C 0.32266(13) 0.4766(3) 0.93756(17)
C16 C 0.30951(11) 0.4264(3) 0.99925(15)
C17 C 0.33037(13) 0.3074(4) 1.0202(2)
C18 C 0.36160(16) 0.2439(4) 0.9778(3)
C19 C 0.21685(12) 0.5647(3) 1.00780(15)
C20 C 0.13905(16) 0.6838(4) 1.0094(3)
C21 C 0.15464(15) 0.5728(4) 0.9151(2)
C22 C 0.20130(14) 0.5275(4) 0.94289(17)
C23 C 0.18413(14) 0.6453(3) 1.0420(2)
H10 H 0.3082(14) 0.556(4) 0.9204(19)
H11 H 0.1934(14) 0.672(4) 1.087(2)
H12 H 0.3236(16) 0.274(4) 1.061(2)
H13 H 0.3731(15) 0.172(4) 0.991(2)
H14 H 0.2209(15) 0.474(4) 0.920(2)
H15 H 0.3625(14) 0.437(4) 0.857(2)
H16 H 0.1144(16) 0.738(4) 1.033(2)
H17 H 0.1419(10) 0.553(2) 0.8665(14)
loop_
_geom_bond_atom_site_label_1
_geom_bond_atom_site_label_2
_geom_bond_site_symmetry_1
_geom_bond_site_symmetry_2
Co1 O1 1_555 1_555
S1 C6 1_555 1_555
O1 C1 1_555 1_555
N1 C1 1_555 1_555
N2 Co1 1_555 1_555
N3 C11 1_555 1_555
C1 H9 1_555 1_555
C2 N1 1_555 1_555
C3 N1 1_555 1_555
C4 N2 1_555 1_555
C5 C4 1_555 1_555
C6 C5 1_555 1_555
C7 C6 1_555 1_555
C8 N2 1_555 1_555
C9 S1 1_555 1_555
C10 C9 1_555 1_555
C11 C10 1_555 1_555
C12 N3 1_555 1_555
C13 C9 1_555 1_555
Cl1 O2 1_555 1_555
O3 Cl1 1_555 1_555
O4 Cl1 1_555 1_555
O5 Cl1 1_555 1_555
S2 C16 1_555 1_555
N4 C14 1_555 1_555
N5 C20 1_555 1_555
C14 C15 1_555 1_555
C15 C16 1_555 1_555
C16 C17 1_555 1_555
C17 C18 1_555 1_555
C18 N4 1_555 1_555
C19 S2 1_555 1_555
C20 C23 1_555 1_555
C21 N5 1_555 1_555
C22 C19 1_555 1_555
C23 C19 1_555 1_555
H1 C4 1_555 1_555
H2 C12 1_555 1_555
H3 C13 1_555 1_555
H4 C11 1_555 1_555
H5 C5 1_555 1_555
H6 C7 1_555 1_555
H7 C10 1_555 1_555
H8 C8 1_555 1_555
H10 C15 1_555 1_555
H11 C23 1_555 1_555
H12 C17 1_555 1_555
H13 C18 1_555 1_555
H14 C22 1_555 1_555
H15 C14 1_555 1_555
H16 C20 1_555 1_555
H17 C21 1_555 1_555
H18 C3 1_555 1_555
H19 C3 1_555 1_555
H20 C3 1_555 1_555
H21 C2 1_555 1_555
H22 C2 1_555 1_555
H23 C2 1_555 1_555
Co1_2 N3 1_555 1_555
Co1_3 N2_2 1_555 1_555
S1_2 C6_2 1_555 1_555
O1B Co1 1_555 1_555
N1B C1B 1_555 1_555
N2_2 C4_2 1_555 1_555
N2B Co1 1_555 1_555
N3_2 Co1 1_555 1_555
N3B Co1 1_555 1_555
C1B O1B 1_555 1_555
C2B N1B 1_555 1_555
C3B N1B 1_555 1_555
C4_2 C5_2 1_555 1_555
C5_2 C6_2 1_555 1_555
C6_2 C7_2 1_555 1_555
C7_2 C8_2 1_555 1_555
C8_2 N2_2 1_555 1_555
C9_2 S1_2 1_555 1_555
C10_2 C9_2 1_555 1_555
C11_2 N3_2 1_555 1_555
C12_2 N3_2 1_555 1_555
C13_2 C9_2 1_555 1_555
H1_2 C4_2 1_555 1_555
H2_2 C12_2 1_555 1_555
H3_2 C13_2 1_555 1_555
H4_2 C11_2 1_555 1_555
H5_2 C5_2 1_555 1_555
H6_2 C7_2 1_555 1_555
H7_2 C10_2 1_555 1_555
H8_2 C8_2 1_555 1_555
H9B C1B 1_555 1_555
H18B C3B 1_555 1_555
H19B C3B 1_555 1_555
H20B C3B 1_555 1_555
H21B C2B 1_555 1_555
H22B C2B 1_555 1_555
H23B C2B 1_555 1_555
C7 C8 1_555 1_555
C12 C13 1_555 1_555
C21 C22 1_555 1_555
C10_2 C11_2 1_555 1_555
C12_2 C13_2 1_555 1_555

#END
