
#######################################################################
#
#                 Cambridge Crystallographic Data Centre
#                                CCDC 
#
#######################################################################
#
# If this CIF has been generated from an entry in the Cambridge 
# Structural Database, then it will include bibliographic, chemical, 
# crystal, experimental, refinement or atomic coordinate data resulting 
# from the CCDC's data processing and validation procedures.
#
#######################################################################

data_BOLBEJ01
_symmetry_cell_setting           monoclinic
_symmetry_space_group_name_H-M   'P 21/c'
_symmetry_Int_Tables_number      14
_space_group_name_Hall           '-P 2ybc'
loop_
_symmetry_equiv_pos_site_id
_symmetry_equiv_pos_as_xyz
1 x,y,z
2 x,1/2-y,1/2+z
3 -x,-y,-z
4 -x,1/2+y,1/2-z
_cell_length_a                   10.203(3)
_cell_length_b                   6.638(2)
_cell_length_c                   11.153(3)
_cell_angle_alpha                90
_cell_angle_beta                 95.649(4)
_cell_angle_gamma                90
_cell_volume                     751.697
loop_
_atom_site_label
_atom_site_type_symbol
_atom_site_fract_x
_atom_site_fract_y
_atom_site_fract_z
In1 In 0.262069(18) 0.15256(3) 0.474835(17)
O1 O 0.0552(2) 0.1536(3) 0.3896(2)
O2 O 0.3882(2) 0.1189(3) 0.64663(18)
O3 O 0.4627(2) 0.2188(3) 0.95143(18)
O4 O -0.14744(19) 0.0483(4) 0.41373(19)
O5 O 0.26289(19) 0.2423(4) 0.78378(18)
O6 O 0.2039(3) 0.4472(4) 0.5318(2)
O7 O 0.3302(2) -0.1285(4) 0.4062(2)
O8 O 0.5949(2) 0.1058(4) 0.81918(19)
C1 C -0.0273(3) 0.0579(5) 0.4434(3)
C2 C 0.3677(3) 0.1747(4) 0.7501(3)
C3 C 0.4871(3) 0.1639(4) 0.8475(3)
H1 H 0.251(4) 0.505(7) 0.559(4)
H2 H 0.144(7) 0.446(10) 0.558(6)
H3 H 0.396(4) -0.184(6) 0.449(4)
H4 H 0.348(6) -0.115(8) 0.349(5)
C1B C 0.0273(3) -0.0579(5) 0.5566(3)
O1B O -0.0552(2) -0.1536(3) 0.6104(2)
O4B O 0.14744(19) -0.0483(4) 0.58627(19)
O2A O 0.3882(2) 0.3811(3) 0.14663(18)
O3A O 0.4627(2) 0.2812(3) 0.45143(18)
O5A O 0.26289(19) 0.2577(4) 0.28378(18)
O8A O 0.5949(2) 0.3942(4) 0.31918(19)
C2A C 0.3677(3) 0.3253(4) 0.2501(3)
C3A C 0.4871(3) 0.3361(4) 0.3475(3)
In1B In -0.262069(18) -0.15256(3) 0.525165(17)
O6B O -0.2039(3) -0.4472(4) 0.4682(2)
H1B H -0.251(4) -0.505(7) 0.441(4)
H2B H -0.144(7) -0.446(10) 0.442(6)
O7B O -0.3302(2) 0.1285(4) 0.5938(2)
H3B H -0.396(4) 0.184(6) 0.551(4)
H4B H -0.348(6) 0.115(8) 0.651(5)
In1A In 0.262069(18) 0.34744(3) 0.974835(17)
In1A_2 In 0.262069(18) 0.34744(3) -0.025165(17)
O2B O -0.3882(2) -0.1189(3) 0.35337(18)
O3C O -0.4627(2) -0.2812(3) 0.54857(18)
O5C O -0.26289(19) -0.2577(4) 0.71622(18)
O9 O 0.9884(4) 0.1490(5) 0.1379(3)
H5 H 1.005(7) 0.123(11) 0.195(7)
H6 H 0.919(4) 0.135(6) 0.134(4)
loop_
_geom_bond_atom_site_label_1
_geom_bond_atom_site_label_2
_geom_bond_site_symmetry_1
_geom_bond_site_symmetry_2
In1 O1 1_555 1_555
O1 C1 1_555 1_555
O2 In1 1_555 1_555
O3 C3 1_555 1_555
O4 C1 1_555 1_555
O5 C2 1_555 1_555
O6 In1 1_555 1_555
O7 In1 1_555 1_555
O8 C3 1_555 1_555
O9 H5 1_555 1_555
C1 C1B 1_555 1_555
C2 O2 1_555 1_555
C3 C2 1_555 1_555
H1 O6 1_555 1_555
H2 O6 1_555 1_555
H3 O7 1_555 1_555
H4 O7 1_555 1_555
H6 O9 1_555 1_555
C1B O1B 1_555 1_555
O1B In1B 1_555 1_555
O4B In1 1_555 1_555
O2A C2A 1_555 1_555
O3A In1 1_555 1_555
O5A In1 1_555 1_555
O8A C3A 1_555 1_555
C2A O5A 1_555 1_555
C3A O3A 1_555 1_555
In1B O4 1_555 1_555
O6B In1B 1_555 1_555
H1B O6B 1_555 1_555
H2B O6B 1_555 1_555
O7B In1B 1_555 1_555
H3B O7B 1_555 1_555
H4B O7B 1_555 1_555
In1A O3 1_555 1_555
In1A_2 O2A 1_555 1_555
O2B In1B 1_555 1_555
O3C In1B 1_555 1_555
O5C In1B 1_555 1_555
O5 In1A 1_555 1_555
C1B O4B 1_555 1_555
C2A C3A 1_555 1_555

#END
