
#######################################################################
#
#                 Cambridge Crystallographic Data Centre
#                                CCDC 
#
#######################################################################
#
# If this CIF has been generated from an entry in the Cambridge 
# Structural Database, then it will include bibliographic, chemical, 
# crystal, experimental, refinement or atomic coordinate data resulting 
# from the CCDC's data processing and validation procedures.
#
#######################################################################

data_BOLFUE
_symmetry_cell_setting           monoclinic
_symmetry_space_group_name_H-M   'P 21/c'
_symmetry_Int_Tables_number      14
_space_group_name_Hall           '-P 2ybc'
loop_
_symmetry_equiv_pos_site_id
_symmetry_equiv_pos_as_xyz
1 x,y,z
2 -x,1/2+y,1/2-z
3 -x,-y,-z
4 x,1/2-y,1/2+z
_cell_length_a                   9.8234(14)
_cell_length_b                   21.045(3)
_cell_length_c                   10.7594(16)
_cell_angle_alpha                90
_cell_angle_beta                 101.182(3)
_cell_angle_gamma                90
_cell_volume                     2182.1
loop_
_atom_site_label
_atom_site_type_symbol
_atom_site_fract_x
_atom_site_fract_y
_atom_site_fract_z
Sn1 Sn 0.30760(13) 0.26338(6) 0.78304(12)
S1 S 0.4624(4) 0.3091(2) 0.9731(4)
S2 S 0.5771(5) 0.2713(3) 0.7501(5)
N1 N 0.7281(15) 0.3256(7) 0.9561(15)
O1 O 1.1572(12) 0.2753(6) 0.9048(12)
O2 O 1.0247(12) 0.2326(8) 0.7385(12)
C1 C 0.6062(19) 0.3039(8) 0.8986(18)
C2 C 0.8504(17) 0.3200(8) 0.8933(17)
H1 H 0.9179 0.3541 0.9248
H2 H 0.8199 0.3258 0.8007
C3 C 0.9210(17) 0.2553(8) 0.9195(16)
H3 H 0.9561 0.2502 1.0116
H4 H 0.8532 0.2210 0.8909
C4 C 1.0404(19) 0.2510(8) 0.8492(18)
C5 C 0.7558(18) 0.3537(9) 1.0837(17)
H5 H 0.8377 0.3327 1.1358
H6 H 0.6752 0.3462 1.1246
C6 C 0.7822(17) 0.4242(9) 1.0780(18)
C7 C 0.687(2) 0.4620(10) 1.007(2)
H7 H 0.6044 0.4438 0.9590
C8 C 0.707(2) 0.5264(10) 1.003(2)
H8 H 0.6369 0.5523 0.9538
C9 C 0.825(2) 0.5539(11) 1.068(3)
H9 H 0.8399 0.5983 1.0628
C10 C 0.922(2) 0.5159(11) 1.141(2)
H10 H 1.0039 0.5340 1.1897
C11 C 0.9000(19) 0.4505(9) 1.144(2)
H11 H 0.9686 0.4241 1.1928
C12 C 0.310(2) 0.1641(8) 0.7703(19)
H12 H 0.2464 0.1504 0.6933
H13 H 0.2813 0.1456 0.8446
H14 H 0.4044 0.1498 0.7669
C13 C 0.238(2) 0.3355(8) 0.6503(18)
H15 H 0.2506 0.3218 0.5661
H16 H 0.2918 0.3743 0.6745
H17 H 0.1396 0.3439 0.6483
Sn1_2 Sn 1.30760(13) 0.26338(6) 0.78304(12)
O1_2 O 0.1572(12) 0.2753(6) 0.9048(12)
O2_2 O 0.0247(12) 0.2326(8) 0.7385(12)
C14 C 0.703(3) 0.4886(11) 0.636(2)
H18 H 0.6990 0.5138 0.7081
C15 C 0.767(3) 0.5121(9) 0.541(3)
H19 H 0.8068 0.5533 0.5483
C16 C 0.773(3) 0.4751(12) 0.435(2)
H20 H 0.8164 0.4911 0.3699
C17 C 0.714(3) 0.4147(11) 0.424(2)
H21 H 0.7182 0.3894 0.3514
C18 C 0.650(3) 0.3912(9) 0.519(3)
H22 H 0.6104 0.3500 0.5112
C19 C 0.645(3) 0.4282(12) 0.625(2)
H23 H 0.6008 0.4122 0.6896
loop_
_geom_bond_atom_site_label_1
_geom_bond_atom_site_label_2
_geom_bond_site_symmetry_1
_geom_bond_site_symmetry_2
Sn1 S1 1_555 1_555
S1 C1 1_555 1_555
S2 Sn1 1_555 1_555
N1 C1 1_555 1_555
O1 C4 1_555 1_555
O2 C4 1_555 1_555
C1 S2 1_555 1_555
C2 N1 1_555 1_555
H1 C2 1_555 1_555
H2 C2 1_555 1_555
C3 C2 1_555 1_555
H3 C3 1_555 1_555
H4 C3 1_555 1_555
C4 C3 1_555 1_555
C5 N1 1_555 1_555
H5 C5 1_555 1_555
H6 C5 1_555 1_555
C6 C5 1_555 1_555
C7 C6 1_555 1_555
H7 C7 1_555 1_555
C8 C7 1_555 1_555
H8 C8 1_555 1_555
C9 C8 1_555 1_555
H9 C9 1_555 1_555
C10 C9 1_555 1_555
H10 C10 1_555 1_555
C11 C6 1_555 1_555
H11 C11 1_555 1_555
C12 Sn1 1_555 1_555
H12 C12 1_555 1_555
H13 C12 1_555 1_555
H14 C12 1_555 1_555
C13 Sn1 1_555 1_555
H15 C13 1_555 1_555
H16 C13 1_555 1_555
H17 C13 1_555 1_555
C14 H18 1_555 1_555
C15 C14 1_555 1_555
H19 C15 1_555 1_555
C16 C15 1_555 1_555
H20 C16 1_555 1_555
C17 C16 1_555 1_555
H21 C17 1_555 1_555
C18 C17 1_555 1_555
H22 C18 1_555 1_555
C19 C14 1_555 1_555
H23 C19 1_555 1_555
Sn1_2 O1 1_555 1_555
O1_2 Sn1 1_555 1_555
O2_2 Sn1 1_555 1_555
O2 Sn1_2 1_555 1_555
C10 C11 1_555 1_555
C18 C19 1_555 1_555

#END
