
#######################################################################
#
#                 Cambridge Crystallographic Data Centre
#                                CCDC 
#
#######################################################################
#
# If this CIF has been generated from an entry in the Cambridge 
# Structural Database, then it will include bibliographic, chemical, 
# crystal, experimental, refinement or atomic coordinate data resulting 
# from the CCDC's data processing and validation procedures.
#
#######################################################################

data_BOLGUF
_symmetry_cell_setting           triclinic
_symmetry_space_group_name_H-M   'P -1'
_symmetry_Int_Tables_number      2
_space_group_name_Hall           '-P 1'
loop_
_symmetry_equiv_pos_site_id
_symmetry_equiv_pos_as_xyz
1 x,y,z
2 -x,-y,-z
_cell_length_a                   6.6531(13)
_cell_length_b                   6.7992(14)
_cell_length_c                   9.4844(19)
_cell_angle_alpha                81.78(3)
_cell_angle_beta                 76.26(3)
_cell_angle_gamma                73.29(3)
_cell_volume                     397.87
loop_
_atom_site_label
_atom_site_type_symbol
_atom_site_fract_x
_atom_site_fract_y
_atom_site_fract_z
Y1 Y 0.17877(4) 0.18523(4) 0.53067(3)
Cl1 Cl 0.57723(11) 0.21004(10) 0.42290(9)
Cl2 Cl -0.11454(11) -0.00899(11) 0.68592(8)
Cl3 Cl -0.11057(13) 0.49771(11) 0.67157(8)
N1 N 0.2953(5) 0.2089(5) 0.7544(3)
C1 C 0.3303(6) 0.6015(5) 0.9307(4)
C2 C 0.4299(5) 0.3924(5) 0.9192(4)
C3 C 0.5987(6) 0.2896(5) 0.9877(4)
C4 C 0.3575(6) 0.2846(5) 0.8288(4)
H1 H 0.222(7) 0.663(7) 0.881(5)
H2 H 0.661(7) 0.152(7) 0.978(5)
Y1A Y 0.82123(4) -0.18523(4) 0.46933(3)
Y1A_2 Y -0.17877(4) -0.18523(4) 0.46933(3)
Y1A_3 Y -0.17877(4) 0.81477(4) 0.46933(3)
Y1A_4 Y 0.82123(4) 0.81477(4) 1.46933(3)
Cl1A Cl 0.42277(11) -0.21004(10) 0.57710(9)
Cl2A Cl 0.11454(11) 0.00899(11) 0.31408(8)
Cl2A_2 Cl 1.11454(11) 0.00899(11) 0.31408(8)
Cl2_2 Cl 0.88546(11) -0.00899(11) 0.68592(8)
Cl3A Cl 0.11057(13) 0.50229(11) 0.32843(8)
Cl3A_2 Cl 1.11057(13) -0.49771(11) 0.32843(8)
Cl3_2 Cl 0.88943(13) -0.50229(11) 0.67157(8)
N1A N 0.7047(5) 0.7911(5) 1.2456(3)
N1A_2 N 0.7047(5) -0.2089(5) 0.2456(3)
C1A C 0.6697(6) 0.3985(5) 1.0693(4)
C2A C 0.5701(5) 0.6076(5) 1.0808(4)
C3A C 0.4013(6) 0.7104(5) 1.0123(4)
C4A C 0.6425(6) 0.7154(5) 1.1712(4)
H1A H 0.778(7) 0.337(7) 1.119(5)
H2A H 0.339(7) 0.848(7) 1.022(5)
loop_
_geom_bond_atom_site_label_1
_geom_bond_atom_site_label_2
_geom_bond_site_symmetry_1
_geom_bond_site_symmetry_2
Y1 Cl1 1_555 1_555
Cl1 Y1A 1_555 1_555
Cl2 Y1 1_555 1_555
Cl3 Y1 1_555 1_555
N1 Y1 1_555 1_555
C1 C2 1_555 1_555
C2 C3 1_555 1_555
C3 H2 1_555 1_555
C4 N1 1_555 1_555
H1 C1 1_555 1_555
Y1A Cl1A 1_555 1_555
Y1A_2 Cl2 1_555 1_555
Y1A_3 Cl3 1_555 1_555
Y1A_4 N1A 1_555 1_555
Cl1A Y1 1_555 1_555
Cl2A Y1 1_555 1_555
Cl2A_2 Y1A 1_555 1_555
Cl2_2 Y1A 1_555 1_555
Cl3A Y1 1_555 1_555
Cl3A_2 Y1A 1_555 1_555
Cl3_2 Y1A 1_555 1_555
N1A C4A 1_555 1_555
N1A_2 Y1A 1_555 1_555
C1A C3 1_555 1_555
C2A C1A 1_555 1_555
C3A C1 1_555 1_555
C4A C2A 1_555 1_555
H1A C1A 1_555 1_555
H2A C3A 1_555 1_555
C2 C4 1_555 1_555
Y1A_2 Cl2A 1_555 1_555
Y1A_3 Cl3A 1_555 1_555
C2A C3A 1_555 1_555

#END
