
#######################################################################
#
#                 Cambridge Crystallographic Data Centre
#                                CCDC 
#
#######################################################################
#
# If this CIF has been generated from an entry in the Cambridge 
# Structural Database, then it will include bibliographic, chemical, 
# crystal, experimental, refinement or atomic coordinate data resulting 
# from the CCDC's data processing and validation procedures.
#
#######################################################################

data_BOLHEQ
_symmetry_cell_setting           orthorhombic
_symmetry_space_group_name_H-M   'P n m a'
_symmetry_Int_Tables_number      62
_space_group_name_Hall           '-P 2ac 2n'
loop_
_symmetry_equiv_pos_site_id
_symmetry_equiv_pos_as_xyz
1 x,y,z
2 1/2-x,-y,1/2+z
3 1/2+x,1/2-y,1/2-z
4 -x,1/2+y,-z
5 -x,-y,-z
6 1/2+x,y,1/2-z
7 1/2-x,1/2+y,1/2+z
8 x,1/2-y,z
_cell_length_a                   7.0900(14)
_cell_length_b                   22.140(4)
_cell_length_c                   6.3246(13)
_cell_angle_alpha                90
_cell_angle_beta                 90
_cell_angle_gamma                90
_cell_volume                     992.789
loop_
_atom_site_label
_atom_site_type_symbol
_atom_site_fract_x
_atom_site_fract_y
_atom_site_fract_z
Tb1 Tb 0.00157(4) 0.2500 0.45280(4)
Cl1 Cl 0.29428(15) 0.17748(5) 0.31980(15)
Cl2 Cl 0.1701(2) 0.2500 0.8380(2)
N1 N -0.0328(5) 0.14316(18) 0.6237(6)
C1 C -0.0169(6) 0.0494(2) 0.8675(7)
C2 C -0.0294(6) 0.1012(2) 0.7299(7)
C3 C -0.0812(6) -0.0072(2) 0.8000(6)
C4 C 0.0652(7) 0.0570(2) 1.0680(7)
H1 H 0.108(9) 0.096(3) 1.110(9)
H2 H -0.129(7) -0.012(2) 0.661(9)
Tb1E Tb 0.50157(4) 0.2500 0.04720(4)
Tb1E_2 Tb 0.50157(4) 0.2500 1.04720(4)
Tb1D Tb -0.00157(4) -0.2500 1.54720(4)
Tb1E_3 Tb -0.49843(4) 0.2500 0.04720(4)
Cl1E Cl -0.20572(15) 0.17748(5) 0.18020(15)
Cl1G Cl 0.29428(15) 0.32252(5) 0.31980(15)
Cl1B Cl -0.20572(15) 0.32252(5) 0.18020(15)
Cl2E Cl -0.3299(2) 0.2500 0.6620(2)
N1D N 0.0328(5) -0.14316(18) 1.3763(6)
N1G N -0.0328(5) 0.35684(18) 0.6237(6)
C1D C 0.0169(6) -0.0494(2) 1.1325(7)
C2D C 0.0294(6) -0.1012(2) 1.2701(7)
C3D C 0.0812(6) 0.0072(2) 1.2000(6)
C4D C -0.0652(7) -0.0570(2) 0.9320(7)
H1D H -0.108(9) -0.096(3) 0.890(9)
H2D H 0.129(7) 0.012(2) 1.339(9)
loop_
_geom_bond_atom_site_label_1
_geom_bond_atom_site_label_2
_geom_bond_site_symmetry_1
_geom_bond_site_symmetry_2
Tb1 Cl1 1_555 1_555
Cl1 Tb1E 1_555 1_555
Cl2 Tb1 1_555 1_555
N1 Tb1 1_555 1_555
C1 C2 1_555 1_555
C2 N1 1_555 1_555
C3 C1 1_555 1_555
C4 C1 1_555 1_555
H1 C4 1_555 1_555
H2 C3 1_555 1_555
Tb1E Cl1G 1_555 1_555
Tb1E_2 Cl2 1_555 1_555
Tb1D N1D 1_555 1_555
Tb1E_3 Cl1E 1_555 1_555
Cl1E Tb1 1_555 1_555
Cl1G Tb1 1_555 1_555
Cl1B Tb1 1_555 1_555
Cl2E Tb1 1_555 1_555
N1D C2D 1_555 1_555
N1G Tb1 1_555 1_555
C1D C2D 1_555 1_555
C3D C4 1_555 1_555
C4D C3 1_555 1_555
H1D C4D 1_555 1_555
H2D C3D 1_555 1_555
Tb1E_3 Cl1B 1_555 1_555
C1D C3D 1_555 1_555
C1D C4D 1_555 1_555

#END
