
#######################################################################
#
#                 Cambridge Crystallographic Data Centre
#                                CCDC 
#
#######################################################################
#
# If this CIF has been generated from an entry in the Cambridge 
# Structural Database, then it will include bibliographic, chemical, 
# crystal, experimental, refinement or atomic coordinate data resulting 
# from the CCDC's data processing and validation procedures.
#
#######################################################################

data_BOLHOA
_symmetry_cell_setting           orthorhombic
_symmetry_space_group_name_H-M   'P n m a'
_symmetry_Int_Tables_number      62
_space_group_name_Hall           '-P 2ac 2n'
loop_
_symmetry_equiv_pos_site_id
_symmetry_equiv_pos_as_xyz
1 x,y,z
2 1/2-x,-y,1/2+z
3 1/2+x,1/2-y,1/2-z
4 -x,1/2+y,-z
5 -x,-y,-z
6 1/2+x,y,1/2-z
7 1/2-x,1/2+y,1/2+z
8 x,1/2-y,z
_cell_length_a                   7.1162(14)
_cell_length_b                   22.147(4)
_cell_length_c                   6.3448(13)
_cell_angle_alpha                90
_cell_angle_beta                 90
_cell_angle_gamma                90
_cell_volume                     999.956
loop_
_atom_site_label
_atom_site_type_symbol
_atom_site_fract_x
_atom_site_fract_y
_atom_site_fract_z
Gd1 Gd 0.49946(5) 0.2500 1.04755(5)
Cl1 Cl 0.20621(18) 0.17704(6) 1.1798(2)
Cl2 Cl 0.3322(3) 0.2500 0.6606(3)
N1 N 0.5339(7) 0.1430(2) 0.8765(9)
C1 C 0.5170(8) 0.0491(3) 0.6328(10)
C2 C 0.5305(8) 0.1010(2) 0.7696(10)
C3 C 0.4361(9) 0.0572(3) 0.4330(10)
C4 C 0.5817(8) -0.0075(3) 0.6994(9)
H1 H 0.632(9) -0.013(3) 0.846(11)
H2 H 0.397(11) 0.098(3) 0.376(12)
Gd1E Gd -0.00054(5) 0.2500 1.45245(5)
Gd1E_2 Gd -0.00054(5) 0.2500 0.45245(5)
Gd1D Gd 0.50054(5) -0.2500 -0.04755(5)
Gd1E_3 Gd 0.99946(5) 0.2500 1.45245(5)
Cl1E Cl 0.70621(18) 0.17704(6) 1.3202(2)
Cl1G Cl 0.20621(18) 0.32296(6) 1.1798(2)
Cl1B Cl 0.70621(18) 0.32296(6) 1.3202(2)
Cl2E Cl 0.8322(3) 0.2500 0.8394(3)
N1D N 0.4661(7) -0.1430(2) 0.1235(9)
N1G N 0.5339(7) 0.3570(2) 0.8765(9)
C1D C 0.4830(8) -0.0491(3) 0.3672(10)
C2D C 0.4695(8) -0.1010(2) 0.2304(10)
C3D C 0.5639(9) -0.0572(3) 0.5670(10)
C4D C 0.4183(8) 0.0075(3) 0.3006(9)
H1D H 0.368(9) 0.013(3) 0.154(11)
H2D H 0.603(11) -0.098(3) 0.624(12)
loop_
_geom_bond_atom_site_label_1
_geom_bond_atom_site_label_2
_geom_bond_site_symmetry_1
_geom_bond_site_symmetry_2
Gd1 Cl1 1_555 1_555
Cl1 Gd1E 1_555 1_555
Cl2 Gd1 1_555 1_555
N1 Gd1 1_555 1_555
C1 C2 1_555 1_555
C2 N1 1_555 1_555
C3 C1 1_555 1_555
C4 C1 1_555 1_555
H1 C4 1_555 1_555
H2 C3 1_555 1_555
Gd1E Cl1G 1_555 1_555
Gd1E_2 Cl2 1_555 1_555
Gd1D N1D 1_555 1_555
Gd1E_3 Cl1E 1_555 1_555
Cl1E Gd1 1_555 1_555
Cl1G Gd1 1_555 1_555
Cl1B Gd1 1_555 1_555
Cl2E Gd1 1_555 1_555
N1D C2D 1_555 1_555
N1G Gd1 1_555 1_555
C1D C2D 1_555 1_555
C3D C4 1_555 1_555
C4D C3 1_555 1_555
H1D C4D 1_555 1_555
H2D C3D 1_555 1_555
Gd1E_3 Cl1B 1_555 1_555
C1D C3D 1_555 1_555
C1D C4D 1_555 1_555

#END
