
#######################################################################
#
#                 Cambridge Crystallographic Data Centre
#                                CCDC 
#
#######################################################################
#
# If this CIF has been generated from an entry in the Cambridge 
# Structural Database, then it will include bibliographic, chemical, 
# crystal, experimental, refinement or atomic coordinate data resulting 
# from the CCDC's data processing and validation procedures.
#
#######################################################################

data_BOLKAO
_symmetry_cell_setting           monoclinic
_symmetry_space_group_name_H-M   'C 2/c'
_symmetry_Int_Tables_number      15
_space_group_name_Hall           '-C 2yn'
loop_
_symmetry_equiv_pos_site_id
_symmetry_equiv_pos_as_xyz
1 x,y,z
2 1/2+x,1/2+y,z
3 -x,y,1/2-z
4 1/2-x,1/2+y,1/2-z
5 -x,-y,-z
6 1/2-x,1/2-y,-z
7 x,-y,1/2+z
8 1/2+x,1/2-y,1/2+z
_cell_length_a                   12.94(4)
_cell_length_b                   12.70(4)
_cell_length_c                   10.40(2)
_cell_angle_alpha                90
_cell_angle_beta                 96.0(3)
_cell_angle_gamma                90
_cell_volume                     1699.75
loop_
_atom_site_label
_atom_site_type_symbol
_atom_site_fract_x
_atom_site_fract_y
_atom_site_fract_z
Cu1 Cu 0.00000 0.00000 0.00000
O1 O -0.07770 0.12720 0.04920
O2 O -0.14550 0.18590 -0.14770
O3 O 0.00000 -0.02840 0.25000
C1 C 0.14620 0.14020 0.15420
C2 C 0.40200 0.15710 0.05050
C3 C 0.43190 0.10990 -0.05300
C4 C 0.36020 0.04850 -0.13610
C5 C 0.25940 0.03130 -0.10630
C6 C 0.23120 0.07530 -0.00200
C7 C 0.30030 0.14480 0.08270
C8 C -0.12860 0.19070 -0.02390
N1 N 0.13180 0.08130 0.05090
N2 N 0.24330 0.17880 0.17500
H1 H 0.08600 0.15600 0.21400
H2 H 0.45000 0.19990 0.10500
H3 H 0.50700 0.11400 -0.07800
H4 H 0.38700 0.01900 -0.21800
H5 H 0.21100 -0.01100 -0.16200
H6 H 0.26600 0.22400 0.24900
O1D O 0.07770 -0.12720 -0.04920
O3D O 0.00000 0.02840 -0.25000
N1D N -0.13180 -0.08130 -0.05090
Cu1B Cu 0.00000 0.00000 0.50000
C8D C 0.12860 -0.19070 0.02390
C1D C -0.14620 -0.14020 -0.15420
C6D C -0.23120 -0.07530 0.00200
O2D O 0.14550 -0.18590 0.14770
N2D N -0.24330 -0.17880 -0.17500
H1D H -0.08600 -0.15600 -0.21400
C5D C -0.25940 -0.03130 0.10630
C7D C -0.30030 -0.14480 -0.08270
H6D H -0.26600 -0.22400 -0.24900
C4D C -0.36020 -0.04850 0.13610
H5D H -0.21100 0.01100 0.16200
C2D C -0.40200 -0.15710 -0.05050
C3D C -0.43190 -0.10990 0.05300
H4D H -0.38700 -0.01900 0.21800
H2D H -0.45000 -0.19990 -0.10500
H3D H -0.50700 -0.11400 0.07800
loop_
_geom_bond_atom_site_label_1
_geom_bond_atom_site_label_2
_geom_bond_site_symmetry_1
_geom_bond_site_symmetry_2
Cu1 O1 1_555 1_555
O1 C8 1_555 1_555
O2 C8 1_555 1_555
O3 Cu1 1_555 1_555
C1 N1 1_555 1_555
C2 C3 1_555 1_555
C3 C4 1_555 1_555
C4 C5 1_555 1_555
C5 C6 1_555 1_555
C6 C7 1_555 1_555
C7 C2 1_555 1_555
N1 Cu1 1_555 1_555
N2 C1 1_555 1_555
H1 C1 1_555 1_555
H2 C2 1_555 1_555
H3 C3 1_555 1_555
H4 C4 1_555 1_555
H5 C5 1_555 1_555
H6 N2 1_555 1_555
O1D Cu1 1_555 1_555
O3D Cu1 1_555 1_555
N1D Cu1 1_555 1_555
Cu1B O3 1_555 1_555
C8D O1D 1_555 1_555
C1D N1D 1_555 1_555
C6D N1D 1_555 1_555
O2D C8D 1_555 1_555
N2D C1D 1_555 1_555
H1D C1D 1_555 1_555
C5D C6D 1_555 1_555
C7D C6D 1_555 1_555
H6D N2D 1_555 1_555
C4D C5D 1_555 1_555
H5D C5D 1_555 1_555
C2D C7D 1_555 1_555
C3D C4D 1_555 1_555
H4D C4D 1_555 1_555
H2D C2D 1_555 1_555
H3D C3D 1_555 1_555
C6 N1 1_555 1_555
C7 N2 1_555 1_555
N2D C7D 1_555 1_555
C2D C3D 1_555 1_555

#END
