
#######################################################################
#
#                 Cambridge Crystallographic Data Centre
#                                CCDC 
#
#######################################################################
#
# If this CIF has been generated from an entry in the Cambridge 
# Structural Database, then it will include bibliographic, chemical, 
# crystal, experimental, refinement or atomic coordinate data resulting 
# from the CCDC's data processing and validation procedures.
#
#######################################################################

data_BOLPIC
_symmetry_cell_setting           triclinic
_symmetry_space_group_name_H-M   'P -1'
_symmetry_Int_Tables_number      2
_space_group_name_Hall           '-P 1'
loop_
_symmetry_equiv_pos_site_id
_symmetry_equiv_pos_as_xyz
1 x,y,z
2 -x,-y,-z
_cell_length_a                   6.3281(19)
_cell_length_b                   12.218(2)
_cell_length_c                   14.468(2)
_cell_angle_alpha                112.071(4)
_cell_angle_beta                 99.440(5)
_cell_angle_gamma                97.528(19)
_cell_volume                     999.644
loop_
_atom_site_label
_atom_site_type_symbol
_atom_site_fract_x
_atom_site_fract_y
_atom_site_fract_z
Zn1 Zn 0.5000 0.5000 1.0000
Zn2 Zn 0.94313(3) 0.435606(16) 0.891179(14)
O1 O 0.79983(17) 0.44249(10) 1.00533(9)
H1 H 0.794(3) 0.3726(10) 1.0131(16)
Si1 Si 0.28753(7) 0.76563(4) 0.51276(3)
C1 C 0.3878(3) 0.68373(14) 0.59240(12)
C2 C 0.2619(3) 0.66440(16) 0.65759(13)
H2 H 0.1243 0.6876 0.6561
C3 C 0.3301(3) 0.61255(15) 0.72448(13)
H3 H 0.2407 0.6010 0.7681
C4 C 0.5309(3) 0.57760(14) 0.72712(12)
C5 C 0.6564(3) 0.59306(17) 0.66139(14)
H4 H 0.7916 0.5672 0.6614
C6 C 0.5863(3) 0.64605(18) 0.59542(14)
H5 H 0.6755 0.6568 0.5514
C7 C 0.6145(3) 0.52982(14) 0.80476(12)
O2 O 0.5094(2) 0.53185(14) 0.86977(10)
O3 O 0.7913(2) 0.49214(12) 0.79756(9)
C8 C 0.2608(3) 0.91467(14) 0.60997(13)
C9 C 0.0686(3) 0.95782(16) 0.60132(14)
H6 H -0.0513 0.9112 0.5447
C10 C 0.0473(3) 1.06668(16) 0.67287(14)
H7 H -0.0863 1.0934 0.6649
C11 C 0.2194(3) 1.13704(14) 0.75612(12)
C12 C 0.4140(3) 1.09593(15) 0.76710(14)
H8 H 0.5335 1.1429 0.8237
C13 C 0.4319(3) 0.98633(15) 0.69498(14)
H9 H 0.5646 0.9590 0.7036
C14 C 0.1965(3) 1.25603(14) 0.83145(12)
O4 O 0.0131(2) 1.28453(11) 0.81366(10)
O5 O 0.3506(2) 1.31725(11) 0.90695(10)
C15 C 0.4817(3) 0.79026(18) 0.43565(15)
H10 H 0.4939 0.7121 0.3856
H11 H 0.6260 0.8333 0.4811
H12 H 0.4277 0.8384 0.3996
C16 C 0.0196(3) 0.67860(16) 0.42446(13)
H13 H 0.0387 0.6018 0.3750
H14 H -0.0383 0.7253 0.3878
H15 H -0.0834 0.6626 0.4639
Zn1_2 Zn 0.5000 1.5000 1.0000
Zn1_3 Zn 0.5000 -0.5000 1.0000
Zn2A Zn 0.05687(3) 0.564394(16) 1.108821(14)
Zn2A_2 Zn 1.05687(3) 0.564394(16) 1.108821(14)
Zn2_2 Zn -0.05687(3) 1.435606(16) 0.891179(14)
Zn2_3 Zn 0.94313(3) -0.564394(16) 0.891179(14)
Zn2_4 Zn -0.05687(3) 0.435606(16) 0.891179(14)
O1A O 0.20017(17) 0.55751(10) 0.99467(9)
O1A_2 O 1.20017(17) 0.55751(10) 0.99467(9)
O1_2 O -0.20017(17) 0.44249(10) 1.00533(9)
H1A H 0.206(3) 0.6274(10) 0.9869(16)
H1A_2 H 1.206(3) 0.6274(10) 0.9869(16)
H1_2 H -0.206(3) 0.3726(10) 1.0131(16)
Si1_2 Si 0.28753(7) -0.23437(4) 0.51276(3)
C1_2 C 0.3878(3) -0.31627(14) 0.59240(12)
C2_2 C 0.2619(3) -0.33560(16) 0.65759(13)
H2_2 H 0.1243 -0.3124 0.6561
C3_2 C 0.3301(3) -0.38745(15) 0.72448(13)
H3_2 H 0.2407 -0.3990 0.7681
C4_2 C 0.5309(3) -0.42240(14) 0.72712(12)
C5_2 C 0.6564(3) -0.40694(17) 0.66139(14)
H4_2 H 0.7916 -0.4328 0.6614
C6_2 C 0.5863(3) -0.35395(18) 0.59542(14)
H5_2 H 0.6755 -0.3432 0.5514
C7_2 C 0.6145(3) -0.47018(14) 0.80476(12)
O2_2 O 0.5094(2) -0.46815(14) 0.86977(10)
O2A O 0.4906(2) 0.46815(14) 1.13023(10)
O3_2 O 0.7913(2) -0.50786(12) 0.79756(9)
O3A O 0.2087(2) 0.50786(12) 1.20244(9)
C8_2 C 0.2608(3) -0.08533(14) 0.60997(13)
C9_2 C 0.0686(3) -0.04218(16) 0.60132(14)
H6_2 H -0.0513 -0.0888 0.5447
C10_2 C 0.0473(3) 0.06668(16) 0.67287(14)
H7_2 H -0.0863 0.0934 0.6649
C11_2 C 0.2194(3) 0.13704(14) 0.75612(12)
C12_2 C 0.4140(3) 0.09593(15) 0.76710(14)
H8_2 H 0.5335 0.1429 0.8237
C13_2 C 0.4319(3) -0.01367(15) 0.69498(14)
H9_2 H 0.5646 -0.0410 0.7036
C14_2 C 0.1965(3) 0.25603(14) 0.83145(12)
O4_2 O 0.0131(2) 0.28453(11) 0.81366(10)
O4_3 O 1.0131(2) 0.28453(11) 0.81366(10)
O4A O -0.0131(2) 0.71547(11) 1.18634(10)
O5_2 O 0.3506(2) 0.31725(11) 0.90695(10)
O5A O 0.6494(2) 0.68275(11) 1.09305(10)
C15_2 C 0.4817(3) -0.20974(18) 0.43565(15)
H10_2 H 0.4939 -0.2879 0.3856
H11_2 H 0.6260 -0.1667 0.4811
H12_2 H 0.4277 -0.1616 0.3996
C16_2 C 0.0196(3) -0.32140(16) 0.42446(13)
H13_2 H 0.0387 -0.3982 0.3750
H14_2 H -0.0383 -0.2747 0.3878
H15_2 H -0.0834 -0.3374 0.4639
O6 O 0.8315(2) 0.23638(13) 1.04559(12)
C17 C 1.0141(3) 0.21243(17) 1.04546(15)
H16 H 1.1013 0.2429 1.0093
N1 N 1.0998(3) 0.14718(15) 1.09191(13)
C18 C 0.9857(5) 0.1039(2) 1.15427(17)
H17 H 0.8390 0.1221 1.1486
H18 H 1.0676 0.1440 1.2260
H19 H 0.9731 0.0164 1.1305
C19 C 1.3169(4) 0.1227(2) 1.0881(2)
H20 H 1.3839 0.1628 1.0495
H21 H 1.3059 0.0353 1.0542
H22 H 1.4075 0.1534 1.1579
loop_
_geom_bond_atom_site_label_1
_geom_bond_atom_site_label_2
_geom_bond_site_symmetry_1
_geom_bond_site_symmetry_2
Zn1 O1 1_555 1_555
Zn2 O1 1_555 1_555
O1 H1 1_555 1_555
Si1 C1 1_555 1_555
C1 C2 1_555 1_555
C2 H2 1_555 1_555
C3 C2 1_555 1_555
H3 C3 1_555 1_555
C4 C3 1_555 1_555
C5 C4 1_555 1_555
H4 C5 1_555 1_555
C6 C1 1_555 1_555
H5 C6 1_555 1_555
C7 C4 1_555 1_555
O2 Zn1 1_555 1_555
O3 Zn2 1_555 1_555
C8 Si1 1_555 1_555
C9 C8 1_555 1_555
H6 C9 1_555 1_555
C10 C9 1_555 1_555
H7 C10 1_555 1_555
C11 C10 1_555 1_555
C12 C11 1_555 1_555
H8 C12 1_555 1_555
C13 C8 1_555 1_555
H9 C13 1_555 1_555
C14 C11 1_555 1_555
O4 C14 1_555 1_555
O5 C14 1_555 1_555
C15 Si1 1_555 1_555
H10 C15 1_555 1_555
H11 C15 1_555 1_555
H12 C15 1_555 1_555
C16 Si1 1_555 1_555
H13 C16 1_555 1_555
H14 C16 1_555 1_555
H15 C16 1_555 1_555
O6 C17 1_555 1_555
C17 H16 1_555 1_555
N1 C17 1_555 1_555
C18 N1 1_555 1_555
H17 C18 1_555 1_555
H18 C18 1_555 1_555
H19 C18 1_555 1_555
C19 N1 1_555 1_555
H20 C19 1_555 1_555
H21 C19 1_555 1_555
H22 C19 1_555 1_555
Zn1_2 O5 1_555 1_555
Zn1_3 O2_2 1_555 1_555
Zn2A O1A 1_555 1_555
Zn2A_2 O1 1_555 1_555
Zn2_2 O4 1_555 1_555
Zn2_3 O3_2 1_555 1_555
Zn2_4 O1A 1_555 1_555
O1A Zn1 1_555 1_555
O1A_2 Zn2 1_555 1_555
O1_2 Zn2A 1_555 1_555
H1A O1A 1_555 1_555
H1A_2 O1A_2 1_555 1_555
H1_2 O1_2 1_555 1_555
Si1_2 C1_2 1_555 1_555
C1_2 C2_2 1_555 1_555
C2_2 H2_2 1_555 1_555
C3_2 C2_2 1_555 1_555
H3_2 C3_2 1_555 1_555
C4_2 C3_2 1_555 1_555
C5_2 C4_2 1_555 1_555
H4_2 C5_2 1_555 1_555
C6_2 C1_2 1_555 1_555
H5_2 C6_2 1_555 1_555
C7_2 C4_2 1_555 1_555
O2_2 C7_2 1_555 1_555
O2A Zn1 1_555 1_555
O3_2 C7_2 1_555 1_555
O3A Zn2A 1_555 1_555
C8_2 Si1_2 1_555 1_555
C9_2 C8_2 1_555 1_555
H6_2 C9_2 1_555 1_555
C10_2 C9_2 1_555 1_555
H7_2 C10_2 1_555 1_555
C11_2 C10_2 1_555 1_555
C12_2 C11_2 1_555 1_555
H8_2 C12_2 1_555 1_555
C13_2 C8_2 1_555 1_555
H9_2 C13_2 1_555 1_555
C14_2 C11_2 1_555 1_555
O4_2 Zn2_4 1_555 1_555
O4_3 Zn2 1_555 1_555
O4A Zn2A 1_555 1_555
O5_2 Zn1 1_555 1_555
O5A Zn1 1_555 1_555
C15_2 Si1_2 1_555 1_555
H10_2 C15_2 1_555 1_555
H11_2 C15_2 1_555 1_555
H12_2 C15_2 1_555 1_555
C16_2 Si1_2 1_555 1_555
H13_2 C16_2 1_555 1_555
H14_2 C16_2 1_555 1_555
H15_2 C16_2 1_555 1_555
C5 C6 1_555 1_555
C7 O2 1_555 1_555
C7 O3 1_555 1_555
C12 C13 1_555 1_555
Zn2A_2 O1A_2 1_555 1_555
Zn2_4 O1_2 1_555 1_555
C5_2 C6_2 1_555 1_555
C12_2 C13_2 1_555 1_555
C14_2 O4_2 1_555 1_555
C14_2 O5_2 1_555 1_555

#END
