
#######################################################################
#
#                 Cambridge Crystallographic Data Centre
#                                CCDC 
#
#######################################################################
#
# If this CIF has been generated from an entry in the Cambridge 
# Structural Database, then it will include bibliographic, chemical, 
# crystal, experimental, refinement or atomic coordinate data resulting 
# from the CCDC's data processing and validation procedures.
#
#######################################################################

data_BOLQEA
_symmetry_cell_setting           orthorhombic
_symmetry_space_group_name_H-M   'P 21 2 21'
_symmetry_Int_Tables_number      18
_space_group_name_Hall           'P 2ac 2ac'
loop_
_symmetry_equiv_pos_site_id
_symmetry_equiv_pos_as_xyz
1 x,y,z
2 -x,y,-z
3 1/2+x,-y,1/2-z
4 1/2-x,-y,1/2+z
_cell_length_a                   6.5827(6)
_cell_length_b                   7.8919(7)
_cell_length_c                   15.4217(14)
_cell_angle_alpha                90
_cell_angle_beta                 90
_cell_angle_gamma                90
_cell_volume                     801.157
loop_
_atom_site_label
_atom_site_type_symbol
_atom_site_fract_x
_atom_site_fract_y
_atom_site_fract_z
Ni1 Ni 0.22465(8) 0.74966(13) 0.30588(3)
O1 O 0.4150(10) 0.5650(6) 0.2570(4)
O2 O 0.5338(11) 0.4286(6) 0.1411(3)
O3 O 0.4229(11) 0.9329(7) 0.2581(4)
O4 O 0.5430(11) 1.0636(7) 0.1415(4)
N1 N 0.1057(6) 0.7515(13) 0.1823(3)
N2 N 0.3888(6) 0.7569(11) 0.4233(2)
C1 C 0.4396(15) 0.5454(11) 0.1776(5)
C2 C 0.2829(11) 0.6621(8) 0.1304(4)
H1 H 0.2283 0.6045 0.0792
C3 C 0.4058(12) 0.8158(8) 0.1034(4)
H2 H 0.3367 0.8708 0.0555
H3 H 0.5368 0.7775 0.0823
C4 C 0.4423(18) 0.9521(8) 0.1778(5)
C5 C 0.5900(8) 0.7383(15) 0.4234(3)
H4 H 0.6572 0.7166 0.3716
C6 C 0.2996(8) 0.7507(11) 0.5006(3)
H5 H 0.1586 0.7547 0.5037
N2A N 0.6112(6) 0.7569(11) 0.5767(2)
C5A C 0.4100(8) 0.7383(15) 0.5766(3)
H4A H 0.3428 0.7166 0.6284
C6A C 0.7004(8) 0.7507(11) 0.4994(3)
H5A H 0.8414 0.7547 0.4963
Ni1A Ni 0.77535(8) 0.74966(13) 0.69412(3)
O1A O 0.5850(10) 0.5650(6) 0.7430(4)
O2A O 0.4662(11) 0.4286(6) 0.8589(3)
O3A O 0.5771(11) 0.9329(7) 0.7419(4)
O4A O 0.4570(11) 1.0636(7) 0.8585(4)
N1A N 0.8943(6) 0.7515(13) 0.8177(3)
C1A C 0.5604(15) 0.5454(11) 0.8224(5)
C2A C 0.7171(11) 0.6621(8) 0.8696(4)
H1A H 0.7717 0.6045 0.9208
C3A C 0.5942(12) 0.8158(8) 0.8966(4)
H2A H 0.6633 0.8708 0.9445
H3A H 0.4632 0.7775 0.9177
C4A C 0.5577(18) 0.9521(8) 0.8222(5)
Ni1B Ni 0.72465(8) 0.25034(13) 0.19412(3)
Ni1B_2 Ni 0.72465(8) 1.25034(13) 0.19412(3)
Ni1C Ni 0.27535(8) 0.25034(13) 0.80588(3)
Ni1C_2 Ni 0.27535(8) 1.25034(13) 0.80588(3)
O2B O 0.0338(11) 0.5714(6) 0.3589(3)
O2C O 0.9662(11) 0.5714(6) 0.6411(3)
O4B O 0.0430(11) 0.9364(7) 0.3585(4)
O4C O 0.9570(11) 0.9364(7) 0.6415(4)
loop_
_geom_bond_atom_site_label_1
_geom_bond_atom_site_label_2
_geom_bond_site_symmetry_1
_geom_bond_site_symmetry_2
Ni1 O1 1_555 1_555
O1 C1 1_555 1_555
O2 C1 1_555 1_555
O3 Ni1 1_555 1_555
O4 C4 1_555 1_555
N1 Ni1 1_555 1_555
N2 Ni1 1_555 1_555
C1 C2 1_555 1_555
C2 N1 1_555 1_555
H1 C2 1_555 1_555
C3 C2 1_555 1_555
H2 C3 1_555 1_555
H3 C3 1_555 1_555
C4 O3 1_555 1_555
C5 N2 1_555 1_555
H4 C5 1_555 1_555
C6 N2 1_555 1_555
H5 C6 1_555 1_555
N2A C5A 1_555 1_555
C5A C6 1_555 1_555
H4A C5A 1_555 1_555
C6A C5 1_555 1_555
H5A C6A 1_555 1_555
Ni1A N2A 1_555 1_555
O1A Ni1A 1_555 1_555
O2A C1A 1_555 1_555
O3A Ni1A 1_555 1_555
O4A C4A 1_555 1_555
N1A Ni1A 1_555 1_555
C1A O1A 1_555 1_555
C2A N1A 1_555 1_555
H1A C2A 1_555 1_555
C3A C2A 1_555 1_555
H2A C3A 1_555 1_555
H3A C3A 1_555 1_555
C4A O3A 1_555 1_555
Ni1B O2 1_555 1_555
Ni1B_2 O4 1_555 1_555
Ni1C O2A 1_555 1_555
Ni1C_2 O4A 1_555 1_555
O2B Ni1 1_555 1_555
O2C Ni1A 1_555 1_555
O4B Ni1 1_555 1_555
O4C Ni1A 1_555 1_555
C3 C4 1_555 1_555
N2A C6A 1_555 1_555
C1A C2A 1_555 1_555
C3A C4A 1_555 1_555

#END
