
#######################################################################
#
#                 Cambridge Crystallographic Data Centre
#                                CCDC 
#
#######################################################################
#
# If this CIF has been generated from an entry in the Cambridge 
# Structural Database, then it will include bibliographic, chemical, 
# crystal, experimental, refinement or atomic coordinate data resulting 
# from the CCDC's data processing and validation procedures.
#
#######################################################################

data_BOLQUP
_symmetry_cell_setting           orthorhombic
_symmetry_space_group_name_H-M   'F d d d'
_symmetry_Int_Tables_number      70
_space_group_name_Hall           '-F 2uv 2vw'
loop_
_symmetry_equiv_pos_site_id
_symmetry_equiv_pos_as_xyz
1 x,y,z
2 1/4-x,1/4-y,z
3 x,1/4-y,1/4-z
4 1/4-x,y,1/4-z
5 x,1/2+y,1/2+z
6 1/2+x,y,1/2+z
7 1/2+x,1/2+y,z
8 1/4-x,3/4-y,1/2+z
9 x,3/4-y,3/4-z
10 1/4-x,1/2+y,3/4-z
11 3/4-x,1/4-y,1/2+z
12 1/2+x,1/4-y,3/4-z
13 3/4-x,y,3/4-z
14 3/4-x,3/4-y,z
15 1/2+x,3/4-y,1/4-z
16 3/4-x,1/2+y,1/4-z
17 -x,-y,-z
18 3/4+x,3/4+y,-z
19 -x,3/4+y,3/4+z
20 3/4+x,-y,3/4+z
21 -x,1/2-y,1/2-z
22 1/2-x,-y,1/2-z
23 1/2-x,1/2-y,-z
24 3/4+x,1/4+y,1/2-z
25 -x,1/4+y,1/4+z
26 3/4+x,1/2-y,1/4+z
27 1/4+x,3/4+y,1/2-z
28 1/2-x,3/4+y,1/4+z
29 1/4+x,-y,1/4+z
30 1/4+x,1/4+y,-z
31 1/2-x,1/4+y,3/4+z
32 1/4+x,1/2-y,3/4+z
_cell_length_a                   16.181(3)
_cell_length_b                   17.327(3)
_cell_length_c                   27.663(6)
_cell_angle_alpha                90
_cell_angle_beta                 90
_cell_angle_gamma                90
_cell_volume                     7755.83
loop_
_atom_site_label
_atom_site_type_symbol
_atom_site_fract_x
_atom_site_fract_y
_atom_site_fract_z
C1 C 0.65871(13) 0.22631(12) 0.03657(7)
H1 H 0.6918 0.1841 0.0252
H2 H 0.6503 0.2625 0.0108
H3 H 0.6062 0.2072 0.0474
C2 C 0.70201(10) 0.26562(10) 0.07765(6)
C3 C 0.71645(12) 0.34440(11) 0.07601(7)
H4 H 0.6969 0.3710 0.0491
C4 C 0.75795(13) 0.38744(11) 0.11141(7)
C5 C 0.7721(2) 0.47200(13) 0.10341(10)
H5 H 0.7411 0.5011 0.1267
H6 H 0.7545 0.4858 0.0714
H7 H 0.8299 0.4833 0.1070
C6 C 0.82956(11) 0.38863(11) 0.19226(6)
H8 H 0.8282 0.4450 0.1892
C7 C 0.78511(12) 0.36532(13) 0.23869(7)
H9 H 0.7790 0.3096 0.2394
H10 H 0.7302 0.3879 0.2389
C8 C 0.83196(15) 0.39160(14) 0.28373(7)
H11 H 0.8349 0.4475 0.2843
H12 H 0.8027 0.3747 0.3124
N1 N 0.78592(9) 0.35436(9) 0.15135(5)
H13 H 0.7771 0.3055 0.1535
O1 O 0.72402(8) 0.22462(7) 0.11434(4)
Cl1 Cl 0.84744(4) 0.15408(3) 0.193500(19)
Zn1 Zn 0.781274(17) 0.1250 0.1250
C1M C 1.09129(13) 0.52369(12) 0.03657(7)
H1M H 1.0582 0.5659 0.0252
H2M H 1.0997 0.4875 0.0108
H3M H 1.1438 0.5428 0.0474
C2M C 1.04799(10) 0.48438(10) 0.07765(6)
C3M C 1.03355(12) 0.40560(11) 0.07601(7)
H4M H 1.0531 0.3790 0.0491
C4M C 0.99205(13) 0.36256(11) 0.11141(7)
C5M C 0.9779(2) 0.27800(13) 0.10341(10)
H5M H 1.0089 0.2489 0.1267
H6M H 0.9955 0.2642 0.0714
H7M H 0.9201 0.2667 0.1070
C6M C 0.92044(11) 0.36137(11) 0.19226(6)
H8M H 0.9218 0.3050 0.1892
C7M C 0.96489(12) 0.38468(13) 0.23869(7)
H9M H 0.9710 0.4404 0.2394
H10M H 1.0198 0.3621 0.2389
C8M C 0.91804(15) 0.35840(14) 0.28373(7)
H11M H 0.9151 0.3025 0.2843
H12M H 0.9473 0.3753 0.3124
N1M N 0.96408(9) 0.39564(9) 0.15135(5)
H13M H 0.9729 0.4445 0.1535
O1M O 1.02598(8) 0.52538(7) 0.11434(4)
O1B O 0.72402(8) 0.02538(7) 0.13566(4)
Cl1B Cl 0.84744(4) 0.09592(3) 0.056500(19)
Zn1M Zn 0.968726(17) 0.6250 0.1250
loop_
_geom_bond_atom_site_label_1
_geom_bond_atom_site_label_2
_geom_bond_site_symmetry_1
_geom_bond_site_symmetry_2
C1 H1 1_555 1_555
H2 C1 1_555 1_555
H3 C1 1_555 1_555
C2 C1 1_555 1_555
C3 C2 1_555 1_555
H4 C3 1_555 1_555
C4 C3 1_555 1_555
C5 C4 1_555 1_555
H5 C5 1_555 1_555
H6 C5 1_555 1_555
H7 C5 1_555 1_555
C6 H8 1_555 1_555
C7 C6 1_555 1_555
H9 C7 1_555 1_555
H10 C7 1_555 1_555
C8 C7 1_555 1_555
H11 C8 1_555 1_555
H12 C8 1_555 1_555
N1 C4 1_555 1_555
H13 N1 1_555 1_555
O1 C2 1_555 1_555
Cl1 Zn1 1_555 1_555
Zn1 O1 1_555 1_555
C1M H1M 1_555 1_555
H2M C1M 1_555 1_555
H3M C1M 1_555 1_555
C2M C1M 1_555 1_555
C3M C2M 1_555 1_555
H4M C3M 1_555 1_555
C4M C3M 1_555 1_555
C5M C4M 1_555 1_555
H5M C5M 1_555 1_555
H6M C5M 1_555 1_555
H7M C5M 1_555 1_555
C6M C6 1_555 1_555
H8M C6M 1_555 1_555
C7M C6M 1_555 1_555
H9M C7M 1_555 1_555
H10M C7M 1_555 1_555
C8M C8 1_555 1_555
H11M C8M 1_555 1_555
H12M C8M 1_555 1_555
N1M C4M 1_555 1_555
H13M N1M 1_555 1_555
O1M C2M 1_555 1_555
O1B Zn1 1_555 1_555
Cl1B Zn1 1_555 1_555
Zn1M O1M 1_555 1_555
C6 N1 1_555 1_555
C6M N1M 1_555 1_555
C7M C8M 1_555 1_555

#END
