
#######################################################################
#
#                 Cambridge Crystallographic Data Centre
#                                CCDC 
#
#######################################################################
#
# If this CIF has been generated from an entry in the Cambridge 
# Structural Database, then it will include bibliographic, chemical, 
# crystal, experimental, refinement or atomic coordinate data resulting 
# from the CCDC's data processing and validation procedures.
#
#######################################################################

data_BOLQOJ
_symmetry_cell_setting           orthorhombic
_symmetry_space_group_name_H-M   'P 21 21 21'
_symmetry_Int_Tables_number      19
_space_group_name_Hall           'P 2ac 2ab'
loop_
_symmetry_equiv_pos_site_id
_symmetry_equiv_pos_as_xyz
1 x,y,z
2 1/2-x,-y,1/2+z
3 -x,1/2+y,1/2-z
4 1/2+x,1/2-y,-z
_cell_length_a                   8.904(4)
_cell_length_b                   13.909(6)
_cell_length_c                   17.082(8)
_cell_angle_alpha                90
_cell_angle_beta                 90
_cell_angle_gamma                90
_cell_volume                     2115.53
loop_
_atom_site_label
_atom_site_type_symbol
_atom_site_fract_x
_atom_site_fract_y
_atom_site_fract_z
C1 C 0.5610(5) -0.1955(4) 1.3022(3)
H1 H 0.5887 -0.2194 1.3529
H2 H 0.5113 -0.2454 1.2732
H3 H 0.4944 -0.1417 1.3081
C2 C 0.7288(5) -0.2028(3) 1.1862(2)
H4 H 0.6642 -0.2505 1.1682
C3 C 0.8556(6) -0.2152(4) 1.0559(3)
H5 H 0.8588 -0.1631 1.0190
H6 H 0.7683 -0.2539 1.0461
H7 H 0.9442 -0.2540 1.0503
C4 C 1.0865(4) -0.0810(3) 1.1207(3)
H8 H 1.0725 -0.0932 1.0647
C5 C 1.2262(5) -0.1356(3) 1.1472(3)
H9 H 1.2158 -0.2031 1.1338
H10 H 1.2360 -0.1308 1.2037
C6 C 1.1010(5) 0.0264(3) 1.1320(3)
H11 H 1.1025 0.0398 1.1883
C7 C 1.2470(5) 0.0650(3) 1.0961(3)
H12 H 1.2572 0.1327 1.1087
H13 H 1.2422 0.0590 1.0396
C8 C 1.3669(5) -0.0948(4) 1.1082(4)
H14 H 1.4545 -0.1296 1.1264
H15 H 1.3597 -0.1033 1.0519
C9 C 0.9175(7) 0.1816(4) 1.2063(3)
H16 H 0.8863 0.1364 1.2456
H17 H 0.8642 0.2410 1.2132
H18 H 1.0235 0.1930 1.2111
C10 C 0.8848(4) 0.1423(3) 1.1283(2)
C11 C 0.7599(5) 0.1773(3) 1.0851(2)
H19 H 0.7022 0.2251 1.1084
C12 C 0.7169(4) 0.1468(3) 1.0124(2)
C13 C 1.3849(6) 0.0104(4) 1.1266(4)
H20 H 1.4751 0.0350 1.1020
H21 H 1.3941 0.0193 1.1828
C14 C 0.8486(4) -0.1758(3) 1.1371(2)
C15 C 0.6999(4) -0.1642(3) 1.2587(3)
C16 C 0.5777(5) 0.1868(3) 0.9750(3)
H22 H 0.6013 0.2097 0.9234
H23 H 0.5398 0.2389 1.0061
H24 H 0.5029 0.1373 0.9715
N1 N 0.9539(3) -0.1154(2) 1.16147(19)
H25 H 0.9418 -0.0934 1.2081
N2 N 0.9707(3) 0.0746(2) 1.09796(18)
H26 H 0.9466 0.0563 1.0515
O1 O 0.7862(3) -0.1017(2) 1.29096(16)
O2 O 0.7916(3) 0.0835(2) 0.97481(16)
Cl1 Cl 0.9694(3) 0.06381(15) 1.39400(13)
Cl2 Cl 0.5515(2) 0.08186(12) 1.35967(11)
Zn1 Zn 0.75211(7) -0.00947(3) 1.37818(2)
O2A O 0.7084(3) -0.0835(2) 1.47481(16)
Zn1A Zn 0.74789(7) 0.00947(3) 0.87818(2)
O3 O 0.2541(10) 0.0523(8) 0.8562(6)
loop_
_geom_bond_atom_site_label_1
_geom_bond_atom_site_label_2
_geom_bond_site_symmetry_1
_geom_bond_site_symmetry_2
C1 H1 1_555 1_555
H2 C1 1_555 1_555
H3 C1 1_555 1_555
C2 H4 1_555 1_555
C3 H5 1_555 1_555
H6 C3 1_555 1_555
H7 C3 1_555 1_555
C4 H8 1_555 1_555
C5 C4 1_555 1_555
H9 C5 1_555 1_555
H10 C5 1_555 1_555
C6 C4 1_555 1_555
H11 C6 1_555 1_555
C7 C6 1_555 1_555
H12 C7 1_555 1_555
H13 C7 1_555 1_555
C8 C5 1_555 1_555
H14 C8 1_555 1_555
H15 C8 1_555 1_555
C9 H16 1_555 1_555
H17 C9 1_555 1_555
H18 C9 1_555 1_555
C10 C9 1_555 1_555
C11 C10 1_555 1_555
H19 C11 1_555 1_555
C12 C11 1_555 1_555
C13 C7 1_555 1_555
H20 C13 1_555 1_555
H21 C13 1_555 1_555
C14 C2 1_555 1_555
C15 C1 1_555 1_555
C16 C12 1_555 1_555
H22 C16 1_555 1_555
H23 C16 1_555 1_555
H24 C16 1_555 1_555
N1 C4 1_555 1_555
H25 N1 1_555 1_555
N2 C6 1_555 1_555
H26 N2 1_555 1_555
O1 C15 1_555 1_555
O2 C12 1_555 1_555
Cl1 Zn1 1_555 1_555
Cl2 Zn1 1_555 1_555
Zn1 O1 1_555 1_555
O2A Zn1 1_555 1_555
Zn1A O2 1_555 1_555
C2 C15 1_555 1_555
C3 C14 1_555 1_555
C8 C13 1_555 1_555
C10 N2 1_555 1_555
C14 N1 1_555 1_555

#END
