
#######################################################################
#
#                 Cambridge Crystallographic Data Centre
#                                CCDC 
#
#######################################################################
#
# If this CIF has been generated from an entry in the Cambridge 
# Structural Database, then it will include bibliographic, chemical, 
# crystal, experimental, refinement or atomic coordinate data resulting 
# from the CCDC's data processing and validation procedures.
#
#######################################################################

data_BOLYUY
_symmetry_cell_setting           triclinic
_symmetry_space_group_name_H-M   'P -1'
_symmetry_Int_Tables_number      2
_space_group_name_Hall           '-P 1'
loop_
_symmetry_equiv_pos_site_id
_symmetry_equiv_pos_as_xyz
1 x,y,z
2 -x,-y,-z
_cell_length_a                   7.1376(14)
_cell_length_b                   7.3606(15)
_cell_length_c                   10.987(2)
_cell_angle_alpha                97.21(3)
_cell_angle_beta                 91.51(3)
_cell_angle_gamma                100.33(3)
_cell_volume                     562.672
loop_
_atom_site_label
_atom_site_type_symbol
_atom_site_fract_x
_atom_site_fract_y
_atom_site_fract_z
Mn1 Mn 0.26733(5) 0.77651(5) 0.48831(3)
O1 O 0.2525(2) 0.5723(2) 0.61542(16)
O2 O 0.5456(3) 0.6737(3) 0.70244(18)
C1 C 0.3850(3) 0.5746(3) 0.6952(2)
C2 C 0.3334(3) 0.4534(3) 0.7954(2)
C3 C 0.2856(4) 0.5397(4) 0.9075(2)
H1 H 0.2904 0.6679 0.9186
C4 C 0.2310(4) 0.4384(4) 1.0026(2)
H2 H 0.1964 0.4958 1.0767
C5 C 0.2297(4) 0.2495(4) 0.9840(2)
C6 C 0.2771(4) 0.1593(3) 0.8751(2)
H3 H 0.2762 0.0318 0.8661
C7 C 0.3265(3) 0.2610(3) 0.7786(2)
C8 C 0.3719(3) 0.1573(3) 0.6587(2)
O3 O 0.4655(2) 0.2508(2) 0.58487(16)
O4 O 0.3130(3) -0.0152(2) 0.64214(17)
N1 N 0.1705(4) 0.1390(3) 1.0832(2)
O5 O 0.2191(4) -0.0119(3) 1.0822(2)
O6 O 0.0708(3) 0.2006(3) 1.16156(19)
O7 O -0.0371(3) 0.7643(3) 0.5023(2)
H4 H -0.108(5) 0.681(5) 0.476(4)
H5 H -0.086(5) 0.840(5) 0.551(3)
O8 O 0.1613(3) 0.5562(3) 0.3312(2)
H6 H 0.041(5) 0.493(5) 0.330(3)
H7 H 0.229(5) 0.479(5) 0.314(3)
O9 O 0.2453(3) 0.9953(3) 0.36037(19)
H8 H 0.333(5) 1.083(5) 0.348(3)
H9 H 0.193(5) 0.958(5) 0.297(3)
Mn1_2 Mn 0.26733(5) -0.22349(5) 0.48831(3)
Mn1A Mn 0.73267(5) 0.22349(5) 0.51169(3)
O3A O 0.5345(2) 0.7492(2) 0.41513(16)
O4_2 O 0.3130(3) 0.9848(2) 0.64214(17)
loop_
_geom_bond_atom_site_label_1
_geom_bond_atom_site_label_2
_geom_bond_site_symmetry_1
_geom_bond_site_symmetry_2
Mn1 O1 1_555 1_555
O1 C1 1_555 1_555
O2 C1 1_555 1_555
C1 C2 1_555 1_555
C2 C3 1_555 1_555
C3 H1 1_555 1_555
C4 C3 1_555 1_555
H2 C4 1_555 1_555
C5 C4 1_555 1_555
C6 C5 1_555 1_555
H3 C6 1_555 1_555
C7 C2 1_555 1_555
C8 C7 1_555 1_555
O3 C8 1_555 1_555
O4 C8 1_555 1_555
N1 C5 1_555 1_555
O5 N1 1_555 1_555
O6 N1 1_555 1_555
O7 Mn1 1_555 1_555
H4 O7 1_555 1_555
H5 O7 1_555 1_555
O8 Mn1 1_555 1_555
H6 O8 1_555 1_555
H7 O8 1_555 1_555
O9 Mn1 1_555 1_555
H8 O9 1_555 1_555
H9 O9 1_555 1_555
Mn1_2 O4 1_555 1_555
Mn1A O3 1_555 1_555
O3A Mn1 1_555 1_555
O4_2 Mn1 1_555 1_555
C6 C7 1_555 1_555

#END
