
#######################################################################
#
#                 Cambridge Crystallographic Data Centre
#                                CCDC 
#
#######################################################################
#
# If this CIF has been generated from an entry in the Cambridge 
# Structural Database, then it will include bibliographic, chemical, 
# crystal, experimental, refinement or atomic coordinate data resulting 
# from the CCDC's data processing and validation procedures.
#
#######################################################################

data_BOLYOS
_symmetry_cell_setting           orthorhombic
_symmetry_space_group_name_H-M   'P b c a'
_symmetry_Int_Tables_number      61
_space_group_name_Hall           '-P 2ac 2ab'
loop_
_symmetry_equiv_pos_site_id
_symmetry_equiv_pos_as_xyz
1 x,y,z
2 1/2-x,-y,1/2+z
3 -x,1/2+y,1/2-z
4 1/2+x,1/2-y,-z
5 -x,-y,-z
6 1/2+x,y,1/2-z
7 x,1/2-y,1/2+z
8 1/2-x,1/2+y,z
_cell_length_a                   7.3077(15)
_cell_length_b                   14.802(3)
_cell_length_c                   19.825(4)
_cell_angle_alpha                90
_cell_angle_beta                 90
_cell_angle_gamma                90
_cell_volume                     2144.44
loop_
_atom_site_label
_atom_site_type_symbol
_atom_site_fract_x
_atom_site_fract_y
_atom_site_fract_z
Mn1 Mn 0.51004(4) 0.35522(2) 0.529616(14)
O1 O 0.36063(17) 0.25435(10) 0.58626(7)
O2 O 0.07709(19) 0.25032(9) 0.54388(6)
C1 C 0.1961(3) 0.23361(12) 0.58918(9)
C2 C 0.1345(2) 0.18715(13) 0.65363(9)
C3 C 0.0911(3) 0.09512(13) 0.65760(9)
C4 C 0.0489(3) 0.05637(14) 0.71980(10)
H1 H 0.0166 -0.0043 0.7215
C5 C 0.0539(3) 0.10569(16) 0.77886(10)
H2 H 0.0294 0.0779 0.8200
C6 C 0.0958(3) 0.19671(15) 0.77633(10)
H3 H 0.0994 0.2312 0.8155
C7 C 0.1322(3) 0.23525(13) 0.71427(9)
C8 C 0.0935(3) 0.03441(13) 0.59650(9)
O3 O 0.1645(2) 0.06377(10) 0.54242(6)
O4 O 0.0257(2) -0.04264(10) 0.60349(7)
N1 N 0.1662(2) 0.33303(12) 0.71337(8)
O5 O 0.2429(3) 0.36682(12) 0.76246(8)
O6 O 0.1139(2) 0.37685(10) 0.66492(7)
O7 O 0.7563(2) 0.32739(13) 0.58638(8)
H4 H 0.778(4) 0.3542(19) 0.6205(14)
H5 H 0.858(4) 0.2978(19) 0.5738(13)
O8 O 0.2569(2) 0.39567(13) 0.47518(9)
H6 H 0.180(4) 0.365(2) 0.4843(14)
H7 H 0.236(4) 0.448(2) 0.4880(14)
Mn1C Mn 0.01004(4) 0.14478(2) 0.470384(14)
Mn1G Mn -0.01004(4) -0.14478(2) 0.529616(14)
O2C O 0.57709(19) 0.24968(9) 0.45612(6)
O3C O 0.6645(2) 0.43623(10) 0.45758(6)
O4G O 0.4743(2) 0.45736(10) 0.60349(7)
loop_
_geom_bond_atom_site_label_1
_geom_bond_atom_site_label_2
_geom_bond_site_symmetry_1
_geom_bond_site_symmetry_2
Mn1 O1 1_555 1_555
O1 C1 1_555 1_555
O2 C1 1_555 1_555
C1 C2 1_555 1_555
C2 C3 1_555 1_555
C3 C4 1_555 1_555
C4 H1 1_555 1_555
C5 C4 1_555 1_555
H2 C5 1_555 1_555
C6 C5 1_555 1_555
H3 C6 1_555 1_555
C7 C2 1_555 1_555
C8 C3 1_555 1_555
O3 C8 1_555 1_555
O4 C8 1_555 1_555
N1 C7 1_555 1_555
O5 N1 1_555 1_555
O6 N1 1_555 1_555
O7 Mn1 1_555 1_555
H4 O7 1_555 1_555
H5 O7 1_555 1_555
O8 Mn1 1_555 1_555
H6 O8 1_555 1_555
H7 O8 1_555 1_555
Mn1C O2 1_555 1_555
Mn1G O4 1_555 1_555
O2C Mn1 1_555 1_555
O3C Mn1 1_555 1_555
O4G Mn1 1_555 1_555
C6 C7 1_555 1_555
O3 Mn1C 1_555 1_555

#END
