
#######################################################################
#
#                 Cambridge Crystallographic Data Centre
#                                CCDC 
#
#######################################################################
#
# If this CIF has been generated from an entry in the Cambridge 
# Structural Database, then it will include bibliographic, chemical, 
# crystal, experimental, refinement or atomic coordinate data resulting 
# from the CCDC's data processing and validation procedures.
#
#######################################################################

data_BOMCEN
_symmetry_cell_setting           monoclinic
_symmetry_space_group_name_H-M   'P 21/c'
_symmetry_Int_Tables_number      14
_space_group_name_Hall           '-P 2ybc'
loop_
_symmetry_equiv_pos_site_id
_symmetry_equiv_pos_as_xyz
1 x,y,z
2 -x,1/2+y,1/2-z
3 -x,-y,-z
4 x,1/2-y,1/2+z
_cell_length_a                   9.2320(16)
_cell_length_b                   29.275(5)
_cell_length_c                   11.5877(15)
_cell_angle_alpha                90
_cell_angle_beta                 117.052(10)
_cell_angle_gamma                90
_cell_volume                     2789.14
loop_
_atom_site_label
_atom_site_type_symbol
_atom_site_fract_x
_atom_site_fract_y
_atom_site_fract_z
C1 C 0.0467(3) 0.30490(8) 0.8033(2)
C2 C 0.0159(3) 0.35244(8) 0.7473(2)
C3 C 0.0089(3) 0.38926(8) 0.8215(2)
H1 H 0.0321 0.3843 0.9074
C4 C -0.0317(3) 0.43291(8) 0.7706(2)
H2 H -0.0376 0.4568 0.8211
C5 C -0.0635(3) 0.44033(8) 0.6429(2)
C6 C -0.0488(3) 0.40491(8) 0.5689(2)
H3 H -0.0638 0.4104 0.4851
C7 C -0.0116(3) 0.36135(8) 0.6209(2)
H4 H -0.0049 0.3376 0.5703
C8 C -0.0627(3) 0.65441(8) 0.8151(2)
C9 C -0.0762(3) 0.60754(8) 0.7571(2)
C10 C -0.2280(3) 0.58787(9) 0.6833(3)
H5 H -0.3215 0.6037 0.6704
C11 C -0.2416(3) 0.54488(9) 0.6287(3)
H6 H -0.3434 0.5319 0.5799
C12 C -0.1024(3) 0.52169(8) 0.6475(2)
C13 C 0.0501(3) 0.54023(8) 0.7221(2)
H7 H 0.1432 0.5241 0.7357
C14 C 0.0624(3) 0.58312(8) 0.7762(2)
H8 H 0.1645 0.5958 0.8259
C15 C 0.3099(3) 0.72944(8) 0.5450(3)
H9 H 0.3146 0.7362 0.4683
C16 C 0.4327(3) 0.71056(8) 0.6514(2)
H10 H 0.5349 0.7021 0.6616
C17 C 0.2202(3) 0.72226(8) 0.6856(2)
H11 H 0.1531 0.7225 0.7259
C18 C 0.3603(3) 0.29597(8) 0.7138(2)
H12 H 0.3547 0.2929 0.7916
C19 C 0.3039(3) 0.29154(9) 0.5122(3)
H13 H 0.2521 0.2843 0.4245
C20 C 0.4420(3) 0.31702(9) 0.5724(3)
H14 H 0.5005 0.3305 0.5340
C21 C 0.4588(3) 0.68323(8) 0.8655(2)
H15 H 0.5653 0.6969 0.9145
H16 H 0.3980 0.6876 0.9143
C22 C 0.6130(3) 0.34321(9) 0.8024(3)
H17 H 0.7091 0.3391 0.7898
H18 H 0.6353 0.3299 0.8855
C23 C 0.5819(3) 0.39372(8) 0.8059(2)
C24 C 0.4377(3) 0.41486(9) 0.7215(3)
H19 H 0.3543 0.3976 0.6590
C25 C 0.4172(3) 0.46138(9) 0.7297(2)
H20 H 0.3200 0.4750 0.6721
C26 C 0.5394(3) 0.48819(8) 0.8228(2)
C27 C 0.6837(3) 0.46640(9) 0.9081(3)
H21 H 0.7670 0.4834 0.9714
C28 C 0.7042(3) 0.42015(8) 0.8994(2)
H22 H 0.8012 0.4064 0.9569
C29 C 0.5182(3) 0.53803(8) 0.8332(2)
C30 C 0.4218(3) 0.56375(8) 0.7237(2)
H23 H 0.3698 0.5494 0.6434
C31 C 0.4022(3) 0.61028(8) 0.7325(2)
H24 H 0.3369 0.6268 0.6582
C32 C 0.4787(3) 0.63270(8) 0.8509(2)
C33 C 0.5760(3) 0.60721(9) 0.9605(2)
H25 H 0.6290 0.6217 1.0405
C34 C 0.5946(3) 0.56062(9) 0.9521(2)
H26 H 0.6589 0.5441 1.0266
Mn1 Mn 0.05199(4) 0.232354(11) 0.57408(3)
N1 N 0.1770(3) 0.73712(6) 0.5671(2)
N2 N 0.2534(3) 0.27826(7) 0.6026(2)
N3 N 0.3749(2) 0.70656(7) 0.74100(19)
N4 N 0.4778(3) 0.31886(7) 0.7007(2)
O1 O 0.0364(2) 0.27147(5) 0.73131(17)
O2 O 0.0814(2) 0.30132(6) 0.92119(16)
O3 O -0.1918(2) 0.67620(5) 0.79149(16)
O4 O 0.0765(2) 0.67085(6) 0.88654(17)
O5 O -0.1195(2) 0.48125(6) 0.57864(17)
Mn1A Mn -0.05199(4) 0.732354(11) 0.92592(3)
Mn1B Mn -0.05199(4) 0.767646(11) 0.42592(3)
Mn1C Mn 0.05199(4) 0.267646(11) 1.07408(3)
N1B N -0.1770(3) 0.26288(6) 0.4329(2)
O2C O 0.0814(2) 0.19868(6) 0.42119(16)
O3A O 0.1918(2) 0.17620(5) 0.70851(16)
O4A O -0.0765(2) 0.17085(6) 0.61346(17)
loop_
_geom_bond_atom_site_label_1
_geom_bond_atom_site_label_2
_geom_bond_site_symmetry_1
_geom_bond_site_symmetry_2
C1 C2 1_555 1_555
C2 C3 1_555 1_555
C3 H1 1_555 1_555
C4 C3 1_555 1_555
H2 C4 1_555 1_555
C5 C4 1_555 1_555
C6 C5 1_555 1_555
H3 C6 1_555 1_555
C7 C2 1_555 1_555
H4 C7 1_555 1_555
C8 C9 1_555 1_555
C9 C10 1_555 1_555
C10 H5 1_555 1_555
C11 C10 1_555 1_555
H6 C11 1_555 1_555
C12 C11 1_555 1_555
C13 C12 1_555 1_555
H7 C13 1_555 1_555
C14 C9 1_555 1_555
H8 C14 1_555 1_555
C15 H9 1_555 1_555
C16 C15 1_555 1_555
H10 C16 1_555 1_555
C17 H11 1_555 1_555
C18 H12 1_555 1_555
C19 H13 1_555 1_555
C20 C19 1_555 1_555
H14 C20 1_555 1_555
C21 H15 1_555 1_555
H16 C21 1_555 1_555
C22 H17 1_555 1_555
H18 C22 1_555 1_555
C23 C22 1_555 1_555
C24 C23 1_555 1_555
H19 C24 1_555 1_555
C25 C24 1_555 1_555
H20 C25 1_555 1_555
C26 C25 1_555 1_555
C27 C26 1_555 1_555
H21 C27 1_555 1_555
C28 C23 1_555 1_555
H22 C28 1_555 1_555
C29 C26 1_555 1_555
C30 C29 1_555 1_555
H23 C30 1_555 1_555
C31 C30 1_555 1_555
H24 C31 1_555 1_555
C32 C21 1_555 1_555
C33 C32 1_555 1_555
H25 C33 1_555 1_555
C34 C29 1_555 1_555
H26 C34 1_555 1_555
Mn1 N2 1_555 1_555
N1 C15 1_555 1_555
N2 C18 1_555 1_555
N3 C16 1_555 1_555
N4 C18 1_555 1_555
O1 C1 1_555 1_555
O2 C1 1_555 1_555
O3 C8 1_555 1_555
O4 C8 1_555 1_555
O5 C5 1_555 1_555
Mn1A O3 1_555 1_555
Mn1B N1 1_555 1_555
Mn1C O2 1_555 1_555
N1B Mn1 1_555 1_555
O2C Mn1 1_555 1_555
O3A Mn1 1_555 1_555
O4A Mn1 1_555 1_555
C6 C7 1_555 1_555
C12 O5 1_555 1_555
C13 C14 1_555 1_555
C17 N1 1_555 1_555
C17 N3 1_555 1_555
C19 N2 1_555 1_555
C20 N4 1_555 1_555
C21 N3 1_555 1_555
C22 N4 1_555 1_555
C27 C28 1_555 1_555
C31 C32 1_555 1_555
C33 C34 1_555 1_555
Mn1 O1 1_555 1_555
O4 Mn1A 1_555 1_555

#END
