
#######################################################################
#
#                 Cambridge Crystallographic Data Centre
#                                CCDC 
#
#######################################################################
#
# If this CIF has been generated from an entry in the Cambridge 
# Structural Database, then it will include bibliographic, chemical, 
# crystal, experimental, refinement or atomic coordinate data resulting 
# from the CCDC's data processing and validation procedures.
#
#######################################################################

data_BOMCUB
_symmetry_cell_setting           hexagonal
_symmetry_space_group_name_H-M   'P 62 2 2'
_symmetry_Int_Tables_number      180
_space_group_name_Hall           "P 62 2' (0,0,4)"
loop_
_symmetry_equiv_pos_site_id
_symmetry_equiv_pos_as_xyz
1 x,y,z
2 -y,x-y,2/3+z
3 -x+y,-x,1/3+z
4 y,x,2/3-z
5 x-y,-y,-z
6 -x,-x+y,1/3-z
7 -x,-y,z
8 y,-x+y,2/3+z
9 x-y,x,1/3+z
10 -y,-x,2/3-z
11 -x+y,y,-z
12 x,x-y,1/3-z
_cell_length_a                   9.025(1)
_cell_length_b                   9.025(1)
_cell_length_c                   11.343(1)
_cell_angle_alpha                90
_cell_angle_beta                 90
_cell_angle_gamma                120
_cell_volume                     800.116
loop_
_atom_site_label
_atom_site_type_symbol
_atom_site_fract_x
_atom_site_fract_y
_atom_site_fract_z
In1 In 0.50000 0.50000 0.33330
O1 O 0.26810 0.34680 0.43860
O2 O 0.44690 0.68830 0.44460
C1 C 0.21090 0.42190 0.50000
C2 C 0.30980 0.61950 0.50000
O1C O 0.34680 0.26810 0.22807
O1F O 0.73190 0.65320 0.43860
O1I O 0.65320 0.73190 0.22807
O2C O 0.68830 0.44690 0.22207
O2F O 0.55310 0.31170 0.44460
O2I O 0.31170 0.55310 0.22207
O1J O 0.07870 0.34680 0.56140
O2J O 0.24140 0.68830 0.55540
C1C C 0.42190 0.21090 0.16667
C2C C 0.61950 0.30980 0.16667
In1B In 0.00000 0.50000 0.66663
O1G O 0.34680 0.07870 0.10527
O2G O 0.68830 0.24140 0.11127
In1A In 0.50000 0.00000 -0.00003
N1 N 0.00000 0.00000 0.00000
H1 H 0.10420 0.07630 -0.05260
H1D H 0.02790 -0.07630 0.05260
H1F H -0.10420 -0.07630 -0.05260
H1J H -0.02790 0.07630 0.05260
O3 O 0.24800 0.00000 0.50000
H2 H 0.35990 0.09440 0.48320
H2D H 0.26550 -0.09440 0.51680
loop_
_geom_bond_atom_site_label_1
_geom_bond_atom_site_label_2
_geom_bond_site_symmetry_1
_geom_bond_site_symmetry_2
In1 O1 1_555 1_555
O1 C1 1_555 1_555
O2 In1 1_555 1_555
C1 C2 1_555 1_555
C2 O2 1_555 1_555
N1 H1 1_555 1_555
O3 H2 1_555 1_555
O1C In1 1_555 1_555
O1F In1 1_555 1_555
O1I In1 1_555 1_555
O2C In1 1_555 1_555
O2F In1 1_555 1_555
O2I In1 1_555 1_555
O1J C1 1_555 1_555
O2J C2 1_555 1_555
C1C O1C 1_555 1_555
C2C O2C 1_555 1_555
In1B O1J 1_555 1_555
O1G C1C 1_555 1_555
O2G C2C 1_555 1_555
In1A O1G 1_555 1_555
H1D N1 1_555 1_555
H1F N1 1_555 1_555
H1J N1 1_555 1_555
H2D O3 1_555 1_555
O2J In1B 1_555 1_555
C1C C2C 1_555 1_555
O2G In1A 1_555 1_555

#END
