
#######################################################################
#
#                 Cambridge Crystallographic Data Centre
#                                CCDC 
#
#######################################################################
#
# If this CIF has been generated from an entry in the Cambridge 
# Structural Database, then it will include bibliographic, chemical, 
# crystal, experimental, refinement or atomic coordinate data resulting 
# from the CCDC's data processing and validation procedures.
#
#######################################################################

data_BOMDOY
_symmetry_cell_setting           triclinic
_symmetry_space_group_name_H-M   'P -1'
_symmetry_Int_Tables_number      2
_space_group_name_Hall           '-P 1'
loop_
_symmetry_equiv_pos_site_id
_symmetry_equiv_pos_as_xyz
1 x,y,z
2 -x,-y,-z
_cell_length_a                   10.4973(9)
_cell_length_b                   10.7315(9)
_cell_length_c                   11.7907(11)
_cell_angle_alpha                76.9920(10)
_cell_angle_beta                 83.050(2)
_cell_angle_gamma                66.0220(10)
_cell_volume                     1181.82
loop_
_atom_site_label
_atom_site_type_symbol
_atom_site_fract_x
_atom_site_fract_y
_atom_site_fract_z
Tb1 Tb 0.990352(12) 0.249953(13) 0.097750(12)
O1 O 0.8463(2) 0.2376(2) 0.2704(2)
O2 O 0.7399(2) 0.3844(2) 0.1162(2)
O3 O 0.2291(2) 0.2794(3) 0.4059(2)
O4 O 0.0086(2) 0.5605(2) 0.8470(2)
O5 O -0.0302(2) 0.3689(2) 0.90914(19)
O6 O 0.8759(2) -0.0704(2) 0.0106(2)
O7 O 0.8721(2) 0.1063(2) 0.0829(2)
N1 N 1.2438(2) 0.2210(3) 0.0835(2)
N2 N 1.1504(3) 0.0473(3) 0.2405(3)
C1 C 1.2902(3) 0.3074(3) 0.0125(3)
H1 H 1.2252 0.3904 -0.0262
C2 C 1.4321(4) 0.2821(4) -0.0086(4)
H2 H 1.4595 0.3456 -0.0618
C3 C 1.5280(3) 0.1650(4) 0.0489(4)
H3 H 1.6224 0.1478 0.0371
C4 C 1.4844(3) 0.0686(4) 0.1272(3)
C5 C 1.5791(4) -0.0598(4) 0.1890(4)
H4 H 1.6746 -0.0828 0.1776
C6 C 1.5332(4) -0.1475(4) 0.2628(4)
H5 H 1.5975 -0.2306 0.3020
C7 C 1.3872(4) -0.1169(4) 0.2834(4)
C8 C 1.3339(4) -0.2043(4) 0.3620(4)
H6 H 1.3938 -0.2903 0.4007
C9 C 1.1936(5) -0.1622(4) 0.3810(4)
H7 H 1.1572 -0.2172 0.4358
C10 C 1.1044(4) -0.0362(4) 0.3181(4)
H8 H 1.0086 -0.0098 0.3312
C11 C 1.2903(3) 0.0096(3) 0.2234(3)
C12 C 1.3403(3) 0.1020(3) 0.1421(3)
C13 C 0.9270(3) 0.0105(3) 0.0272(3)
C14 C 0.7363(3) 0.3122(3) 0.2157(3)
C15 C 0.6007(3) 0.3096(3) 0.2675(3)
C16 C 0.5998(4) 0.2073(4) 0.3625(3)
H9 H 0.6836 0.1440 0.3954
C17 C 0.4761(4) 0.1978(4) 0.4093(4)
H10 H 0.4761 0.1281 0.4726
C18 C 0.3527(3) 0.2933(4) 0.3603(3)
C19 C 0.3515(4) 0.3924(4) 0.2658(4)
H11 H 0.2674 0.4546 0.2326
C20 C 0.4756(3) 0.4007(4) 0.2189(3)
H12 H 0.4746 0.4686 0.1538
C21 C 0.1798(3) 0.3227(3) 0.5098(3)
C22 C 0.1833(3) 0.4409(3) 0.5339(3)
H13 H 0.2241 0.4929 0.4803
C23 C 0.1265(3) 0.4821(3) 0.6371(3)
H14 H 0.1276 0.5631 0.6521
C24 C 0.0677(3) 0.4045(3) 0.7192(3)
C25 C 0.0655(3) 0.2843(3) 0.6945(3)
H15 H 0.0268 0.2308 0.7487
C26 C 0.1204(3) 0.2448(3) 0.5906(3)
H16 H 0.1177 0.1651 0.5742
C27 C 0.0107(3) 0.4486(3) 0.8327(3)
O6A O 1.1241(2) 0.0704(2) -0.0106(2)
O7A O 1.1279(2) -0.1063(2) -0.0829(2)
C13A C 1.0730(3) -0.0105(3) -0.0272(3)
Tb1A Tb 0.009648(12) 0.750047(13) 0.902250(12)
O1A O 0.1537(2) 0.7624(2) 0.7296(2)
O2A O 0.2601(2) 0.6156(2) 0.8838(2)
O3A O 0.7709(2) 0.7206(3) 0.5941(2)
O4A O 0.9914(2) 0.4395(2) 0.1530(2)
O5A O 1.0302(2) 0.6311(2) 0.09086(19)
N1A N -0.2438(2) 0.7790(3) 0.9165(2)
N2A N -0.1504(3) 0.9527(3) 0.7595(3)
C1A C -0.2902(3) 0.6926(3) 0.9875(3)
H1A H -0.2252 0.6096 1.0262
C2A C -0.4321(4) 0.7179(4) 1.0086(4)
H2A H -0.4595 0.6544 1.0618
C3A C -0.5280(3) 0.8350(4) 0.9511(4)
H3A H -0.6224 0.8522 0.9629
C4A C -0.4844(3) 0.9314(4) 0.8728(3)
C5A C -0.5791(4) 1.0598(4) 0.8110(4)
H4A H -0.6746 1.0828 0.8224
C6A C -0.5332(4) 1.1475(4) 0.7372(4)
H5A H -0.5975 1.2306 0.6980
C7A C -0.3872(4) 1.1169(4) 0.7166(4)
C8A C -0.3339(4) 1.2043(4) 0.6380(4)
H6A H -0.3938 1.2903 0.5993
C9A C -0.1936(5) 1.1622(4) 0.6190(4)
H7A H -0.1572 1.2172 0.5642
C10A C -0.1044(4) 1.0362(4) 0.6819(4)
H8A H -0.0086 1.0098 0.6688
C11A C -0.2903(3) 0.9904(3) 0.7766(3)
C12A C -0.3403(3) 0.8980(3) 0.8579(3)
C14A C 0.2637(3) 0.6878(3) 0.7843(3)
C15A C 0.3993(3) 0.6904(3) 0.7325(3)
C16A C 0.4002(4) 0.7927(4) 0.6375(3)
H9A H 0.3164 0.8560 0.6046
C17A C 0.5239(4) 0.8022(4) 0.5907(4)
H10A H 0.5239 0.8719 0.5274
C18A C 0.6473(3) 0.7067(4) 0.6397(3)
C19A C 0.6485(4) 0.6076(4) 0.7342(4)
H11A H 0.7326 0.5454 0.7674
C20A C 0.5244(3) 0.5993(4) 0.7811(3)
H12A H 0.5254 0.5314 0.8462
C21A C 0.8202(3) 0.6773(3) 0.4902(3)
C22A C 0.8167(3) 0.5591(3) 0.4661(3)
H13A H 0.7759 0.5071 0.5197
C23A C 0.8735(3) 0.5179(3) 0.3629(3)
H14A H 0.8724 0.4369 0.3479
C24A C 0.9323(3) 0.5955(3) 0.2808(3)
C25A C 0.9345(3) 0.7157(3) 0.3055(3)
H15A H 0.9732 0.7692 0.2513
C26A C 0.8796(3) 0.7552(3) 0.4094(3)
H16A H 0.8823 0.8349 0.4258
C27A C 0.9893(3) 0.5514(3) 0.1673(3)
Tb1_2 Tb -0.009648(12) 0.249953(13) 1.097750(12)
Tb1A_2 Tb 1.009648(12) -0.249953(13) -0.097750(12)
Tb1A_3 Tb 1.009648(12) 0.750047(13) -0.097750(12)
O5_2 O 0.9698(2) 0.3689(2) -0.09086(19)
O5A_2 O 0.0302(2) 0.6311(2) 1.09086(19)
O6_2 O -0.1241(2) 0.9296(2) 1.0106(2)
O7A_2 O 0.1279(2) 0.8937(2) 0.9171(2)
loop_
_geom_bond_atom_site_label_1
_geom_bond_atom_site_label_2
_geom_bond_site_symmetry_1
_geom_bond_site_symmetry_2
Tb1 O1 1_555 1_555
O1 C14 1_555 1_555
O2 Tb1 1_555 1_555
O3 C18 1_555 1_555
O4 C27 1_555 1_555
O5 C27 1_555 1_555
O6 C13 1_555 1_555
O7 Tb1 1_555 1_555
N1 Tb1 1_555 1_555
N2 Tb1 1_555 1_555
C1 N1 1_555 1_555
H1 C1 1_555 1_555
C2 C1 1_555 1_555
H2 C2 1_555 1_555
C3 C2 1_555 1_555
H3 C3 1_555 1_555
C4 C3 1_555 1_555
C5 C4 1_555 1_555
H4 C5 1_555 1_555
C6 C5 1_555 1_555
H5 C6 1_555 1_555
C7 C6 1_555 1_555
C8 C7 1_555 1_555
H6 C8 1_555 1_555
C9 C8 1_555 1_555
H7 C9 1_555 1_555
C10 N2 1_555 1_555
H8 C10 1_555 1_555
C11 N2 1_555 1_555
C12 N1 1_555 1_555
C13 O7 1_555 1_555
C14 O2 1_555 1_555
C15 C14 1_555 1_555
C16 C15 1_555 1_555
H9 C16 1_555 1_555
C17 C16 1_555 1_555
H10 C17 1_555 1_555
C18 C17 1_555 1_555
C19 C18 1_555 1_555
H11 C19 1_555 1_555
C20 C15 1_555 1_555
H12 C20 1_555 1_555
C21 O3 1_555 1_555
C22 C21 1_555 1_555
H13 C22 1_555 1_555
C23 C22 1_555 1_555
H14 C23 1_555 1_555
C24 C23 1_555 1_555
C25 C24 1_555 1_555
H15 C25 1_555 1_555
C26 C21 1_555 1_555
H16 C26 1_555 1_555
C27 C24 1_555 1_555
O6A Tb1 1_555 1_555
O7A C13A 1_555 1_555
C13A C13 1_555 1_555
Tb1A O4 1_555 1_555
O1A Tb1A 1_555 1_555
O2A Tb1A 1_555 1_555
O3A C18A 1_555 1_555
O4A Tb1 1_555 1_555
O5A C27A 1_555 1_555
N1A Tb1A 1_555 1_555
N2A Tb1A 1_555 1_555
C1A N1A 1_555 1_555
H1A C1A 1_555 1_555
C2A C1A 1_555 1_555
H2A C2A 1_555 1_555
C3A C2A 1_555 1_555
H3A C3A 1_555 1_555
C4A C3A 1_555 1_555
C5A C4A 1_555 1_555
H4A C5A 1_555 1_555
C6A C5A 1_555 1_555
H5A C6A 1_555 1_555
C7A C6A 1_555 1_555
C8A C7A 1_555 1_555
H6A C8A 1_555 1_555
C9A C8A 1_555 1_555
H7A C9A 1_555 1_555
C10A N2A 1_555 1_555
H8A C10A 1_555 1_555
C11A N2A 1_555 1_555
C12A N1A 1_555 1_555
C14A O1A 1_555 1_555
C15A C14A 1_555 1_555
C16A C15A 1_555 1_555
H9A C16A 1_555 1_555
C17A C16A 1_555 1_555
H10A C17A 1_555 1_555
C18A C17A 1_555 1_555
C19A C18A 1_555 1_555
H11A C19A 1_555 1_555
C20A C15A 1_555 1_555
H12A C20A 1_555 1_555
C21A O3A 1_555 1_555
C22A C21A 1_555 1_555
H13A C22A 1_555 1_555
C23A C22A 1_555 1_555
H14A C23A 1_555 1_555
C24A C23A 1_555 1_555
C25A C24A 1_555 1_555
H15A C25A 1_555 1_555
C26A C21A 1_555 1_555
H16A C26A 1_555 1_555
C27A O4A 1_555 1_555
Tb1_2 O5 1_555 1_555
Tb1A_2 O6 1_555 1_555
Tb1A_3 O5A 1_555 1_555
O5_2 Tb1 1_555 1_555
O5A_2 Tb1A 1_555 1_555
O6_2 Tb1A 1_555 1_555
O7A_2 Tb1A 1_555 1_555
C4 C12 1_555 1_555
C7 C11 1_555 1_555
C9 C10 1_555 1_555
C11 C12 1_555 1_555
C19 C20 1_555 1_555
C25 C26 1_555 1_555
O6A C13A 1_555 1_555
O7A Tb1A_2 1_555 1_555
O2A C14A 1_555 1_555
C4A C12A 1_555 1_555
C7A C11A 1_555 1_555
C9A C10A 1_555 1_555
C11A C12A 1_555 1_555
C19A C20A 1_555 1_555
C24A C27A 1_555 1_555
C25A C26A 1_555 1_555

#END
