
#######################################################################
#
#                 Cambridge Crystallographic Data Centre
#                                CCDC 
#
#######################################################################
#
# If this CIF has been generated from an entry in the Cambridge 
# Structural Database, then it will include bibliographic, chemical, 
# crystal, experimental, refinement or atomic coordinate data resulting 
# from the CCDC's data processing and validation procedures.
#
#######################################################################

data_BOMDIS
_symmetry_cell_setting           triclinic
_symmetry_space_group_name_H-M   'P -1'
_symmetry_Int_Tables_number      2
_space_group_name_Hall           '-P 1'
loop_
_symmetry_equiv_pos_site_id
_symmetry_equiv_pos_as_xyz
1 x,y,z
2 -x,-y,-z
_cell_length_a                   10.5419(8)
_cell_length_b                   10.7871(7)
_cell_length_c                   11.8223(8)
_cell_angle_alpha                76.9420(10)
_cell_angle_beta                 83.0650(10)
_cell_angle_gamma                65.9260(10)
_cell_volume                     1195.1
loop_
_atom_site_label
_atom_site_type_symbol
_atom_site_fract_x
_atom_site_fract_y
_atom_site_fract_z
Eu1 Eu 0.98944(3) 0.25073(3) 0.09871(2)
O1 O 0.8442(4) 0.2385(5) 0.2726(4)
O2 O 0.7370(4) 0.3853(4) 0.1186(4)
O3 O 0.2290(5) 0.2790(5) 0.4055(4)
O4 O 0.0086(5) 0.5575(4) 0.8458(4)
O5 O -0.0324(4) 0.3687(5) 0.9070(3)
O6 O 0.8754(4) -0.0690(4) 0.0083(4)
O7 O 0.8719(4) 0.1056(5) 0.0816(4)
N1 N 1.2448(5) 0.2195(5) 0.0850(4)
N2 N 1.1533(5) 0.0483(6) 0.2426(5)
C1 C 1.2924(6) 0.3078(7) 0.0145(6)
H1 H 1.2279 0.3919 -0.0225
C2 C 1.4317(7) 0.2813(7) -0.0066(6)
H2 H 1.4590 0.3448 -0.0593
C3 C 1.5284(7) 0.1635(7) 0.0491(6)
H3 H 1.6225 0.1452 0.0356
C4 C 1.4854(6) 0.0705(7) 0.1265(6)
C5 C 1.5801(7) -0.0584(8) 0.1889(6)
H4 H 1.6752 -0.0803 0.1801
C6 C 1.5329(8) -0.1482(8) 0.2602(7)
H5 H 1.5966 -0.2335 0.2959
C7 C 1.3888(7) -0.1162(7) 0.2822(6)
C8 C 1.3376(9) -0.2013(8) 0.3630(7)
H6 H 1.3986 -0.2842 0.4046
C9 C 1.1961(10) -0.1626(9) 0.3811(8)
H7 H 1.1601 -0.2202 0.4326
C10 C 1.1091(8) -0.0362(8) 0.3210(7)
H8 H 1.0139 -0.0085 0.3362
C11 C 1.2912(6) 0.0082(6) 0.2247(5)
C12 C 1.3400(6) 0.1005(6) 0.1430(5)
C13 C 0.9279(6) 0.0096(6) 0.0265(5)
C14 C 0.7340(6) 0.3119(6) 0.2171(5)
C15 C 0.5985(6) 0.3069(6) 0.2693(5)
C16 C 0.5988(7) 0.2060(8) 0.3626(6)
H9 H 0.6824 0.1419 0.3948
C17 C 0.4744(8) 0.1991(8) 0.4095(6)
H10 H 0.4743 0.1311 0.4739
C18 C 0.3522(7) 0.2918(7) 0.3614(6)
C19 C 0.3504(7) 0.3926(8) 0.2662(6)
H11 H 0.2670 0.4551 0.2326
C20 C 0.4746(7) 0.3992(7) 0.2216(6)
H12 H 0.4746 0.4678 0.1577
C21 C 0.1781(6) 0.3214(7) 0.5095(5)
C22 C 0.1844(6) 0.4379(6) 0.5333(5)
H13 H 0.2268 0.4877 0.4797
C23 C 0.1279(6) 0.4815(6) 0.6368(5)
H14 H 0.1299 0.5617 0.6518
C24 C 0.0676(6) 0.4032(6) 0.7186(5)
C25 C 0.0648(7) 0.2851(7) 0.6934(5)
H15 H 0.0255 0.2325 0.7474
C26 C 0.1193(7) 0.2443(7) 0.5896(6)
H16 H 0.1164 0.1649 0.5736
C27 C 0.0112(6) 0.4477(6) 0.8330(5)
O6A O 1.1246(4) 0.0690(4) -0.0083(4)
O7A O 1.1281(4) -0.1056(5) -0.0816(4)
C13A C 1.0721(6) -0.0096(6) -0.0265(5)
Eu1A Eu 0.01056(3) 0.74927(3) 0.90129(2)
O1A O 0.1558(4) 0.7615(5) 0.7274(4)
O2A O 0.2630(4) 0.6147(4) 0.8814(4)
O3A O 0.7710(5) 0.7210(5) 0.5945(4)
O4A O 0.9914(5) 0.4425(4) 0.1542(4)
O5A O 1.0324(4) 0.6313(5) 0.0930(3)
N1A N -0.2448(5) 0.7805(5) 0.9150(4)
N2A N -0.1533(5) 0.9517(6) 0.7574(5)
C1A C -0.2924(6) 0.6922(7) 0.9855(6)
H1A H -0.2279 0.6081 1.0225
C2A C -0.4317(7) 0.7187(7) 1.0066(6)
H2A H -0.4590 0.6552 1.0593
C3A C -0.5284(7) 0.8365(7) 0.9509(6)
H3A H -0.6225 0.8548 0.9644
C4A C -0.4854(6) 0.9295(7) 0.8735(6)
C5A C -0.5801(7) 1.0584(8) 0.8111(6)
H4A H -0.6752 1.0803 0.8199
C6A C -0.5329(8) 1.1482(8) 0.7398(7)
H5A H -0.5966 1.2335 0.7041
C7A C -0.3888(7) 1.1162(7) 0.7178(6)
C8A C -0.3376(9) 1.2013(8) 0.6370(7)
H6A H -0.3986 1.2842 0.5954
C9A C -0.1961(10) 1.1626(9) 0.6189(8)
H7A H -0.1601 1.2202 0.5674
C10A C -0.1091(8) 1.0362(8) 0.6790(7)
H8A H -0.0139 1.0085 0.6638
C11A C -0.2912(6) 0.9918(6) 0.7753(5)
C12A C -0.3400(6) 0.8995(6) 0.8570(5)
C14A C 0.2660(6) 0.6881(6) 0.7829(5)
C15A C 0.4015(6) 0.6931(6) 0.7307(5)
C16A C 0.4012(7) 0.7940(8) 0.6374(6)
H9A H 0.3176 0.8581 0.6052
C17A C 0.5256(8) 0.8009(8) 0.5905(6)
H10A H 0.5257 0.8689 0.5261
C18A C 0.6478(7) 0.7082(7) 0.6386(6)
C19A C 0.6496(7) 0.6074(8) 0.7338(6)
H11A H 0.7330 0.5449 0.7674
C20A C 0.5254(7) 0.6008(7) 0.7784(6)
H12A H 0.5254 0.5322 0.8423
C21A C 0.8219(6) 0.6786(7) 0.4905(5)
C22A C 0.8156(6) 0.5621(6) 0.4667(5)
H13A H 0.7732 0.5123 0.5203
C23A C 0.8721(6) 0.5185(6) 0.3632(5)
H14A H 0.8701 0.4383 0.3482
C24A C 0.9324(6) 0.5968(6) 0.2814(5)
C25A C 0.9352(7) 0.7149(7) 0.3066(5)
H15A H 0.9745 0.7675 0.2526
C26A C 0.8807(7) 0.7557(7) 0.4104(6)
H16A H 0.8836 0.8351 0.4264
C27A C 0.9888(6) 0.5523(6) 0.1670(5)
Eu1_2 Eu -0.01056(3) 0.25073(3) 1.09871(2)
Eu1A_2 Eu 1.01056(3) -0.25073(3) -0.09871(2)
Eu1A_3 Eu 1.01056(3) 0.74927(3) -0.09871(2)
O5_2 O 0.9676(4) 0.3687(5) -0.0930(3)
O5A_2 O 0.0324(4) 0.6313(5) 1.0930(3)
O6_2 O -0.1246(4) 0.9310(4) 1.0083(4)
O7A_2 O 0.1281(4) 0.8944(5) 0.9184(4)
loop_
_geom_bond_atom_site_label_1
_geom_bond_atom_site_label_2
_geom_bond_site_symmetry_1
_geom_bond_site_symmetry_2
Eu1 O1 1_555 1_555
O1 C14 1_555 1_555
O2 Eu1 1_555 1_555
O3 C18 1_555 1_555
O4 C27 1_555 1_555
O5 C27 1_555 1_555
O6 C13 1_555 1_555
O7 Eu1 1_555 1_555
N1 Eu1 1_555 1_555
N2 Eu1 1_555 1_555
C1 N1 1_555 1_555
H1 C1 1_555 1_555
C2 C1 1_555 1_555
H2 C2 1_555 1_555
C3 C2 1_555 1_555
H3 C3 1_555 1_555
C4 C3 1_555 1_555
C5 C4 1_555 1_555
H4 C5 1_555 1_555
C6 C5 1_555 1_555
H5 C6 1_555 1_555
C7 C6 1_555 1_555
C8 C7 1_555 1_555
H6 C8 1_555 1_555
C9 C8 1_555 1_555
H7 C9 1_555 1_555
C10 N2 1_555 1_555
H8 C10 1_555 1_555
C11 N2 1_555 1_555
C12 N1 1_555 1_555
C13 O7 1_555 1_555
C14 O2 1_555 1_555
C15 C14 1_555 1_555
C16 C15 1_555 1_555
H9 C16 1_555 1_555
C17 C16 1_555 1_555
H10 C17 1_555 1_555
C18 C17 1_555 1_555
C19 C18 1_555 1_555
H11 C19 1_555 1_555
C20 C15 1_555 1_555
H12 C20 1_555 1_555
C21 O3 1_555 1_555
C22 C21 1_555 1_555
H13 C22 1_555 1_555
C23 C22 1_555 1_555
H14 C23 1_555 1_555
C24 C23 1_555 1_555
C25 C24 1_555 1_555
H15 C25 1_555 1_555
C26 C21 1_555 1_555
H16 C26 1_555 1_555
C27 C24 1_555 1_555
O6A Eu1 1_555 1_555
O7A C13A 1_555 1_555
C13A C13 1_555 1_555
Eu1A O4 1_555 1_555
O1A Eu1A 1_555 1_555
O2A Eu1A 1_555 1_555
O3A C18A 1_555 1_555
O4A Eu1 1_555 1_555
O5A C27A 1_555 1_555
N1A Eu1A 1_555 1_555
N2A Eu1A 1_555 1_555
C1A N1A 1_555 1_555
H1A C1A 1_555 1_555
C2A C1A 1_555 1_555
H2A C2A 1_555 1_555
C3A C2A 1_555 1_555
H3A C3A 1_555 1_555
C4A C3A 1_555 1_555
C5A C4A 1_555 1_555
H4A C5A 1_555 1_555
C6A C5A 1_555 1_555
H5A C6A 1_555 1_555
C7A C6A 1_555 1_555
C8A C7A 1_555 1_555
H6A C8A 1_555 1_555
C9A C8A 1_555 1_555
H7A C9A 1_555 1_555
C10A N2A 1_555 1_555
H8A C10A 1_555 1_555
C11A N2A 1_555 1_555
C12A N1A 1_555 1_555
C14A O1A 1_555 1_555
C15A C14A 1_555 1_555
C16A C15A 1_555 1_555
H9A C16A 1_555 1_555
C17A C16A 1_555 1_555
H10A C17A 1_555 1_555
C18A C17A 1_555 1_555
C19A C18A 1_555 1_555
H11A C19A 1_555 1_555
C20A C15A 1_555 1_555
H12A C20A 1_555 1_555
C21A O3A 1_555 1_555
C22A C21A 1_555 1_555
H13A C22A 1_555 1_555
C23A C22A 1_555 1_555
H14A C23A 1_555 1_555
C24A C23A 1_555 1_555
C25A C24A 1_555 1_555
H15A C25A 1_555 1_555
C26A C21A 1_555 1_555
H16A C26A 1_555 1_555
C27A O4A 1_555 1_555
Eu1_2 O5 1_555 1_555
Eu1A_2 O6 1_555 1_555
Eu1A_3 O5A 1_555 1_555
O5_2 Eu1 1_555 1_555
O5A_2 Eu1A 1_555 1_555
O6_2 Eu1A 1_555 1_555
O7A_2 Eu1A 1_555 1_555
C4 C12 1_555 1_555
C7 C11 1_555 1_555
C9 C10 1_555 1_555
C11 C12 1_555 1_555
C19 C20 1_555 1_555
C25 C26 1_555 1_555
O6A C13A 1_555 1_555
O7A Eu1A_2 1_555 1_555
O2A C14A 1_555 1_555
C4A C12A 1_555 1_555
C7A C11A 1_555 1_555
C9A C10A 1_555 1_555
C11A C12A 1_555 1_555
C19A C20A 1_555 1_555
C24A C27A 1_555 1_555
C25A C26A 1_555 1_555

#END
