
#######################################################################
#
#                 Cambridge Crystallographic Data Centre
#                                CCDC 
#
#######################################################################
#
# If this CIF has been generated from an entry in the Cambridge 
# Structural Database, then it will include bibliographic, chemical, 
# crystal, experimental, refinement or atomic coordinate data resulting 
# from the CCDC's data processing and validation procedures.
#
#######################################################################

data_BOMDUE
_symmetry_cell_setting           triclinic
_symmetry_space_group_name_H-M   'P -1'
_symmetry_Int_Tables_number      2
_space_group_name_Hall           '-P 1'
loop_
_symmetry_equiv_pos_site_id
_symmetry_equiv_pos_as_xyz
1 x,y,z
2 -x,-y,-z
_cell_length_a                   10.5261(12)
_cell_length_b                   10.7578(13)
_cell_length_c                   11.8168(13)
_cell_angle_alpha                76.911(2)
_cell_angle_beta                 83.003(2)
_cell_angle_gamma                65.981(2)
_cell_volume                     1189.83
loop_
_atom_site_label
_atom_site_type_symbol
_atom_site_fract_x
_atom_site_fract_y
_atom_site_fract_z
Gd1 Gd 0.99003(4) 0.25009(4) 0.09840(3)
O1 O 0.8440(5) 0.2372(6) 0.2707(4)
O2 O 0.7380(5) 0.3844(5) 0.1169(4)
O3 O 0.2286(5) 0.2783(6) 0.4059(4)
O4 O 0.0091(5) 0.5595(5) 0.8467(4)
O5 O -0.0318(5) 0.3695(5) 0.9076(4)
O6 O 0.8744(5) -0.0675(5) 0.0080(4)
O7 O 0.8720(5) 0.1068(5) 0.0823(5)
N1 N 1.2450(6) 0.2192(6) 0.0853(5)
N2 N 1.1515(6) 0.0480(6) 0.2413(5)
C1 C 1.2914(7) 0.3075(8) 0.0130(7)
H1 H 1.2261 0.3900 -0.0256
C2 C 1.4320(8) 0.2835(9) -0.0083(7)
H2 H 1.4593 0.3483 -0.0595
C3 C 1.5276(8) 0.1632(8) 0.0477(7)
H3 H 1.6220 0.1436 0.0337
C4 C 1.4847(7) 0.0688(8) 0.1262(7)
C5 C 1.5774(8) -0.0570(9) 0.1895(7)
H4 H 1.6725 -0.0784 0.1796
C6 C 1.5333(9) -0.1472(9) 0.2638(7)
H5 H 1.5980 -0.2306 0.3019
C7 C 1.3863(8) -0.1160(9) 0.2850(7)
C8 C 1.3356(10) -0.2046(10) 0.3621(9)
H6 H 1.3962 -0.2909 0.3995
C9 C 1.1940(9) -0.1623(10) 0.3821(9)
H7 H 1.1575 -0.2172 0.4367
C10 C 1.1065(9) -0.0360(9) 0.3194(8)
H8 H 1.0110 -0.0089 0.3331
C11 C 1.2919(8) 0.0086(8) 0.2261(7)
C12 C 1.3396(7) 0.1014(7) 0.1431(6)
C13 C 0.9273(6) 0.0121(7) 0.0257(6)
C14 C 0.7360(7) 0.3114(7) 0.2154(7)
C15 C 0.6003(7) 0.3086(7) 0.2680(6)
C16 C 0.5979(7) 0.2088(8) 0.3613(7)
H9 H 0.6810 0.1452 0.3949
C17 C 0.4739(8) 0.2009(9) 0.4069(7)
H10 H 0.4743 0.1310 0.4700
C18 C 0.3525(7) 0.2929(8) 0.3610(7)
C19 C 0.3499(8) 0.3919(9) 0.2666(7)
H11 H 0.2662 0.4542 0.2332
C20 C 0.4759(8) 0.3983(8) 0.2205(7)
H12 H 0.4753 0.4659 0.1553
C21 C 0.1793(7) 0.3218(8) 0.5103(6)
C22 C 0.1847(7) 0.4389(8) 0.5345(6)
H13 H 0.2270 0.4898 0.4814
C23 C 0.1270(7) 0.4806(7) 0.6380(6)
H14 H 0.1289 0.5606 0.6539
C24 C 0.0671(7) 0.4042(6) 0.7173(5)
C25 C 0.0673(7) 0.2861(8) 0.6920(7)
H15 H 0.0298 0.2323 0.7469
C26 C 0.1201(7) 0.2444(7) 0.5898(6)
H16 H 0.1164 0.1651 0.5740
C27 C 0.0107(7) 0.4482(8) 0.8316(6)
O6A O 1.1256(5) 0.0675(5) -0.0080(4)
O7A O 1.1280(5) -0.1068(5) -0.0823(5)
C13A C 1.0727(6) -0.0121(7) -0.0257(6)
Gd1A Gd 0.00997(4) 0.74991(4) 0.90160(3)
O1A O 0.1560(5) 0.7628(6) 0.7293(4)
O2A O 0.2620(5) 0.6156(5) 0.8831(4)
O3A O 0.7714(5) 0.7217(6) 0.5941(4)
O4A O 0.9909(5) 0.4405(5) 0.1533(4)
O5A O 1.0318(5) 0.6305(5) 0.0924(4)
N1A N -0.2450(6) 0.7808(6) 0.9147(5)
N2A N -0.1515(6) 0.9520(6) 0.7587(5)
C1A C -0.2914(7) 0.6925(8) 0.9870(7)
H1A H -0.2261 0.6100 1.0256
C2A C -0.4320(8) 0.7165(9) 1.0083(7)
H2A H -0.4593 0.6517 1.0595
C3A C -0.5276(8) 0.8368(8) 0.9523(7)
H3A H -0.6220 0.8564 0.9663
C4A C -0.4847(7) 0.9312(8) 0.8738(7)
C5A C -0.5774(8) 1.0570(9) 0.8105(7)
H4A H -0.6725 1.0784 0.8204
C6A C -0.5333(9) 1.1472(9) 0.7362(7)
H5A H -0.5980 1.2306 0.6981
C7A C -0.3863(8) 1.1160(9) 0.7150(7)
C8A C -0.3356(10) 1.2046(10) 0.6379(9)
H6A H -0.3962 1.2909 0.6005
C9A C -0.1940(9) 1.1623(10) 0.6179(9)
H7A H -0.1575 1.2172 0.5633
C10A C -0.1065(9) 1.0360(9) 0.6806(8)
H8A H -0.0110 1.0089 0.6669
C11A C -0.2919(8) 0.9914(8) 0.7739(7)
C12A C -0.3396(7) 0.8986(7) 0.8569(6)
C14A C 0.2640(7) 0.6886(7) 0.7846(7)
C15A C 0.3997(7) 0.6914(7) 0.7320(6)
C16A C 0.4021(7) 0.7912(8) 0.6387(7)
H9A H 0.3190 0.8548 0.6051
C17A C 0.5261(8) 0.7991(9) 0.5931(7)
H10A H 0.5257 0.8690 0.5300
C18A C 0.6475(7) 0.7071(8) 0.6390(7)
C19A C 0.6501(8) 0.6081(9) 0.7334(7)
H11A H 0.7338 0.5458 0.7668
C20A C 0.5241(8) 0.6017(8) 0.7795(7)
H12A H 0.5247 0.5341 0.8447
C21A C 0.8207(7) 0.6782(8) 0.4897(6)
C22A C 0.8153(7) 0.5611(8) 0.4655(6)
H13A H 0.7730 0.5102 0.5186
C23A C 0.8730(7) 0.5194(7) 0.3620(6)
H14A H 0.8711 0.4394 0.3461
C24A C 0.9329(7) 0.5958(6) 0.2827(5)
C25A C 0.9327(7) 0.7139(8) 0.3080(7)
H15A H 0.9702 0.7677 0.2531
C26A C 0.8799(7) 0.7556(7) 0.4102(6)
H16A H 0.8836 0.8349 0.4260
C27A C 0.9893(7) 0.5518(8) 0.1684(6)
Gd1_2 Gd -0.00997(4) 0.25009(4) 1.09840(3)
Gd1A_2 Gd 1.00997(4) -0.25009(4) -0.09840(3)
Gd1A_3 Gd 1.00997(4) 0.74991(4) -0.09840(3)
O5_2 O 0.9682(5) 0.3695(5) -0.0924(4)
O5A_2 O 0.0318(5) 0.6305(5) 1.0924(4)
O6_2 O -0.1256(5) 0.9325(5) 1.0080(4)
O7A_2 O 0.1280(5) 0.8932(5) 0.9177(5)
loop_
_geom_bond_atom_site_label_1
_geom_bond_atom_site_label_2
_geom_bond_site_symmetry_1
_geom_bond_site_symmetry_2
Gd1 O1 1_555 1_555
O1 C14 1_555 1_555
O2 Gd1 1_555 1_555
O3 C18 1_555 1_555
O4 C27 1_555 1_555
O5 C27 1_555 1_555
O6 C13 1_555 1_555
O7 Gd1 1_555 1_555
N1 Gd1 1_555 1_555
N2 Gd1 1_555 1_555
C1 N1 1_555 1_555
H1 C1 1_555 1_555
C2 C1 1_555 1_555
H2 C2 1_555 1_555
C3 C2 1_555 1_555
H3 C3 1_555 1_555
C4 C3 1_555 1_555
C5 C4 1_555 1_555
H4 C5 1_555 1_555
C6 C5 1_555 1_555
H5 C6 1_555 1_555
C7 C6 1_555 1_555
C8 C7 1_555 1_555
H6 C8 1_555 1_555
C9 C8 1_555 1_555
H7 C9 1_555 1_555
C10 N2 1_555 1_555
H8 C10 1_555 1_555
C11 N2 1_555 1_555
C12 N1 1_555 1_555
C13 O7 1_555 1_555
C14 O2 1_555 1_555
C15 C14 1_555 1_555
C16 C15 1_555 1_555
H9 C16 1_555 1_555
C17 C16 1_555 1_555
H10 C17 1_555 1_555
C18 C17 1_555 1_555
C19 C18 1_555 1_555
H11 C19 1_555 1_555
C20 C15 1_555 1_555
H12 C20 1_555 1_555
C21 O3 1_555 1_555
C22 C21 1_555 1_555
H13 C22 1_555 1_555
C23 C22 1_555 1_555
H14 C23 1_555 1_555
C24 C23 1_555 1_555
C25 C24 1_555 1_555
H15 C25 1_555 1_555
C26 C21 1_555 1_555
H16 C26 1_555 1_555
C27 C24 1_555 1_555
O6A Gd1 1_555 1_555
O7A C13A 1_555 1_555
C13A C13 1_555 1_555
Gd1A O4 1_555 1_555
O1A Gd1A 1_555 1_555
O2A Gd1A 1_555 1_555
O3A C18A 1_555 1_555
O4A Gd1 1_555 1_555
O5A C27A 1_555 1_555
N1A Gd1A 1_555 1_555
N2A Gd1A 1_555 1_555
C1A N1A 1_555 1_555
H1A C1A 1_555 1_555
C2A C1A 1_555 1_555
H2A C2A 1_555 1_555
C3A C2A 1_555 1_555
H3A C3A 1_555 1_555
C4A C3A 1_555 1_555
C5A C4A 1_555 1_555
H4A C5A 1_555 1_555
C6A C5A 1_555 1_555
H5A C6A 1_555 1_555
C7A C6A 1_555 1_555
C8A C7A 1_555 1_555
H6A C8A 1_555 1_555
C9A C8A 1_555 1_555
H7A C9A 1_555 1_555
C10A N2A 1_555 1_555
H8A C10A 1_555 1_555
C11A N2A 1_555 1_555
C12A N1A 1_555 1_555
C14A O1A 1_555 1_555
C15A C14A 1_555 1_555
C16A C15A 1_555 1_555
H9A C16A 1_555 1_555
C17A C16A 1_555 1_555
H10A C17A 1_555 1_555
C18A C17A 1_555 1_555
C19A C18A 1_555 1_555
H11A C19A 1_555 1_555
C20A C15A 1_555 1_555
H12A C20A 1_555 1_555
C21A O3A 1_555 1_555
C22A C21A 1_555 1_555
H13A C22A 1_555 1_555
C23A C22A 1_555 1_555
H14A C23A 1_555 1_555
C24A C23A 1_555 1_555
C25A C24A 1_555 1_555
H15A C25A 1_555 1_555
C26A C21A 1_555 1_555
H16A C26A 1_555 1_555
C27A O4A 1_555 1_555
Gd1_2 O5 1_555 1_555
Gd1A_2 O6 1_555 1_555
Gd1A_3 O5A 1_555 1_555
O5_2 Gd1 1_555 1_555
O5A_2 Gd1A 1_555 1_555
O6_2 Gd1A 1_555 1_555
O7A_2 Gd1A 1_555 1_555
C4 C12 1_555 1_555
C7 C11 1_555 1_555
C9 C10 1_555 1_555
C11 C12 1_555 1_555
C19 C20 1_555 1_555
C25 C26 1_555 1_555
O6A C13A 1_555 1_555
O7A Gd1A_2 1_555 1_555
O2A C14A 1_555 1_555
C4A C12A 1_555 1_555
C7A C11A 1_555 1_555
C9A C10A 1_555 1_555
C11A C12A 1_555 1_555
C19A C20A 1_555 1_555
C24A C27A 1_555 1_555
C25A C26A 1_555 1_555

#END
