
#######################################################################
#
#                 Cambridge Crystallographic Data Centre
#                                CCDC 
#
#######################################################################
#
# If this CIF has been generated from an entry in the Cambridge 
# Structural Database, then it will include bibliographic, chemical, 
# crystal, experimental, refinement or atomic coordinate data resulting 
# from the CCDC's data processing and validation procedures.
#
#######################################################################

data_BOMHOC
_symmetry_cell_setting           monoclinic
_symmetry_space_group_name_H-M   'P 21/c'
_symmetry_Int_Tables_number      14
_space_group_name_Hall           '-P 2ybc'
loop_
_symmetry_equiv_pos_site_id
_symmetry_equiv_pos_as_xyz
1 x,y,z
2 -x,1/2+y,1/2-z
3 -x,-y,-z
4 x,1/2-y,1/2+z
_cell_length_a                   8.1300(3)
_cell_length_b                   12.0041(4)
_cell_length_c                   22.0078(7)
_cell_angle_alpha                90
_cell_angle_beta                 96.0970(10)
_cell_angle_gamma                90
_cell_volume                     2135.67
loop_
_atom_site_label
_atom_site_type_symbol
_atom_site_fract_x
_atom_site_fract_y
_atom_site_fract_z
Cd1 Cd 0.5000 0.0000 0.0000
N1 N 0.4424(4) -0.3083(3) 0.47953(14)
N2 N 0.4790(5) -0.0304(3) 0.10394(17)
C1 C 0.4032(5) -0.0489(4) 0.22579(16)
C2 C 0.3599(5) -0.0626(4) 0.28999(16)
H1 H 0.3974 -0.1355 0.3046
H2 H 0.2404 -0.0614 0.2891
C3 C 0.3868(5) -0.0956(3) 0.42778(15)
C4 C 0.5668(5) -0.2387(3) 0.47284(17)
H3 H 0.6738 -0.2624 0.4857
C5 C 0.5107(7) 0.0307(5) 0.2087(2)
H4 H 0.5599 0.0803 0.2377
C6 C 0.3738(6) -0.1055(4) 0.12136(17)
H5 H 0.3236 -0.1534 0.0918
C7 C 0.5465(6) 0.0377(4) 0.14846(19)
H6 H 0.6206 0.0919 0.1384
C8 C 0.2880(5) -0.2698(4) 0.46164(17)
H7 H 0.1986 -0.3156 0.4672
C9 C 0.2563(5) -0.1670(3) 0.43575(17)
H8 H 0.1480 -0.1452 0.4236
C10 C 0.5462(5) -0.1334(3) 0.44800(18)
H9 H 0.6375 -0.0879 0.4447
C11 C 0.3343(6) -0.1173(4) 0.17978(17)
H10 H 0.2597 -0.1723 0.1886
C12 C 0.3549(10) 0.0170(4) 0.3972(3)
H11 H 0.4019 0.0751 0.4243
H12 H 0.2365 0.0295 0.3900
C13 C 0.4312(7) 0.0240(4) 0.3355(2)
H13 H 0.4112 0.0976 0.3182
H14 H 0.5500 0.0135 0.3430
Cl1 Cl 0.7920(5) -0.0275(3) 0.00620(17)
N1B N 0.5576(4) 0.3083(3) -0.47953(14)
N2B N 0.5210(5) 0.0304(3) -0.10394(17)
C1B C 0.5968(5) 0.0489(4) -0.22579(16)
C2B C 0.6401(5) 0.0626(4) -0.28999(16)
H1B H 0.6026 0.1355 -0.3046
H2B H 0.7596 0.0614 -0.2891
C3B C 0.6132(5) 0.0956(3) -0.42778(15)
C4B C 0.4332(5) 0.2387(3) -0.47284(17)
H3B H 0.3262 0.2624 -0.4857
C5B C 0.4893(7) -0.0307(5) -0.2087(2)
H4B H 0.4401 -0.0803 -0.2377
C6B C 0.6262(6) 0.1055(4) -0.12136(17)
H5B H 0.6764 0.1534 -0.0918
C7B C 0.4535(6) -0.0377(4) -0.14846(19)
H6B H 0.3794 -0.0919 -0.1384
C8B C 0.7120(5) 0.2698(4) -0.46164(17)
H7B H 0.8014 0.3156 -0.4672
C9B C 0.7437(5) 0.1670(3) -0.43575(17)
H8B H 0.8520 0.1452 -0.4236
C10B C 0.4538(5) 0.1334(3) -0.44800(18)
H9B H 0.3625 0.0879 -0.4447
C11B C 0.6657(6) 0.1173(4) -0.17978(17)
H10B H 0.7403 0.1723 -0.1886
C12B C 0.6451(10) -0.0170(4) -0.3972(3)
H11B H 0.5981 -0.0751 -0.4243
H12B H 0.7635 -0.0295 -0.3900
C13B C 0.5688(7) -0.0240(4) -0.3355(2)
H13B H 0.5888 -0.0976 -0.3182
H14B H 0.4500 -0.0135 -0.3430
Cl1B Cl 0.2080(5) 0.0275(3) -0.00620(17)
Cd1A Cd 0.5000 -0.5000 0.5000
Cd1A_2 Cd 0.5000 0.5000 -0.5000
N1A N 0.5576(4) 0.1917(3) 0.02047(14)
N1C N 0.4424(4) -0.1917(3) -0.02047(14)
O1 O 0.8790(4) 0.8444(3) 0.91137(13)
H15 H 0.8912 0.8764 0.9445
O2 O 0.7543(4) 0.7076(3) 0.83149(13)
H16 H 0.7641 0.7424 0.8637
C14 C 0.9155(4) 0.7752(3) 0.68711(17)
C15 C 0.9433(5) 0.8534(3) 0.80950(17)
C16 C 1.0257(5) 0.9067(3) 0.76634(17)
H17 H 1.0910 0.9683 0.7780
C17 C 0.8418(5) 0.7590(3) 0.79051(17)
C18 C 0.8289(5) 0.7223(3) 0.73139(18)
H18 H 0.7619 0.6613 0.7201
C19 C 0.9600(5) 0.8943(3) 0.87416(18)
C20 C 1.0141(5) 0.8704(3) 0.70436(16)
C21 C 0.9055(5) 0.7384(4) 0.62538(19)
H19 H 0.8393 0.6776 0.6131
C22 C 1.0995(5) 0.9236(4) 0.65976(19)
H20 H 1.1645 0.9858 0.6704
C23 C 0.9913(6) 0.7909(4) 0.5842(2)
H21 H 0.9859 0.7644 0.5444
C24 C 1.0872(6) 0.8841(5) 0.6011(2)
H22 H 1.1437 0.9201 0.5722
O3 O 1.0561(6) 0.9714(3) 0.88757(18)
loop_
_geom_bond_atom_site_label_1
_geom_bond_atom_site_label_2
_geom_bond_site_symmetry_1
_geom_bond_site_symmetry_2
Cd1 N2 1_555 1_555
N1 C4 1_555 1_555
N2 C6 1_555 1_555
C1 C2 1_555 1_555
C2 H1 1_555 1_555
H2 C2 1_555 1_555
C3 C9 1_555 1_555
C4 H3 1_555 1_555
C5 C1 1_555 1_555
H4 C5 1_555 1_555
C6 H5 1_555 1_555
C7 N2 1_555 1_555
H6 C7 1_555 1_555
C8 N1 1_555 1_555
H7 C8 1_555 1_555
C9 C8 1_555 1_555
H8 C9 1_555 1_555
C10 C3 1_555 1_555
H9 C10 1_555 1_555
C11 C1 1_555 1_555
H10 C11 1_555 1_555
C12 C3 1_555 1_555
H11 C12 1_555 1_555
H12 C12 1_555 1_555
C13 C2 1_555 1_555
H13 C13 1_555 1_555
H14 C13 1_555 1_555
Cl1 Cd1 1_555 1_555
O1 H15 1_555 1_555
O2 H16 1_555 1_555
C14 C18 1_555 1_555
C15 C16 1_555 1_555
C16 H17 1_555 1_555
C17 O2 1_555 1_555
C18 C17 1_555 1_555
H18 C18 1_555 1_555
C19 O1 1_555 1_555
C20 C14 1_555 1_555
C21 C14 1_555 1_555
H19 C21 1_555 1_555
C22 C20 1_555 1_555
H20 C22 1_555 1_555
C23 C21 1_555 1_555
H21 C23 1_555 1_555
C24 C22 1_555 1_555
H22 C24 1_555 1_555
O3 C19 1_555 1_555
N1B C4B 1_555 1_555
N2B Cd1 1_555 1_555
C1B C2B 1_555 1_555
C2B H1B 1_555 1_555
H2B C2B 1_555 1_555
C3B C9B 1_555 1_555
C4B H3B 1_555 1_555
C5B C1B 1_555 1_555
H4B C5B 1_555 1_555
C6B N2B 1_555 1_555
H5B C6B 1_555 1_555
C7B N2B 1_555 1_555
H6B C7B 1_555 1_555
C8B N1B 1_555 1_555
H7B C8B 1_555 1_555
C9B C8B 1_555 1_555
H8B C9B 1_555 1_555
C10B C3B 1_555 1_555
H9B C10B 1_555 1_555
C11B C1B 1_555 1_555
H10B C11B 1_555 1_555
C12B C3B 1_555 1_555
H11B C12B 1_555 1_555
H12B C12B 1_555 1_555
C13B C2B 1_555 1_555
H13B C13B 1_555 1_555
H14B C13B 1_555 1_555
Cl1B Cd1 1_555 1_555
Cd1A N1 1_555 1_555
Cd1A_2 N1B 1_555 1_555
N1A Cd1 1_555 1_555
N1C Cd1 1_555 1_555
C4 C10 1_555 1_555
C5 C7 1_555 1_555
C6 C11 1_555 1_555
C12 C13 1_555 1_555
C15 C17 1_555 1_555
C15 C19 1_555 1_555
C16 C20 1_555 1_555
C23 C24 1_555 1_555
C4B C10B 1_555 1_555
C5B C7B 1_555 1_555
C6B C11B 1_555 1_555
C12B C13B 1_555 1_555

#END
