
#######################################################################
#
#                 Cambridge Crystallographic Data Centre
#                                CCDC 
#
#######################################################################
#
# If this CIF has been generated from an entry in the Cambridge 
# Structural Database, then it will include bibliographic, chemical, 
# crystal, experimental, refinement or atomic coordinate data resulting 
# from the CCDC's data processing and validation procedures.
#
#######################################################################

data_BOMXEH
_symmetry_cell_setting           monoclinic
_symmetry_space_group_name_H-M   'P 21/c'
_symmetry_Int_Tables_number      14
_space_group_name_Hall           '-P 2ybc'
loop_
_symmetry_equiv_pos_site_id
_symmetry_equiv_pos_as_xyz
1 x,y,z
2 -x,1/2+y,1/2-z
3 -x,-y,-z
4 x,1/2-y,1/2+z
_cell_length_a                   13.525(3)
_cell_length_b                   24.889(5)
_cell_length_c                   18.843(4)
_cell_angle_alpha                90
_cell_angle_beta                 109.908(4)
_cell_angle_gamma                90
_cell_volume                     5963.95
loop_
_atom_site_label
_atom_site_type_symbol
_atom_site_fract_x
_atom_site_fract_y
_atom_site_fract_z
Tb1 Tb 0.36619(3) 0.454988(12) 0.392271(19)
Tb2 Tb -0.22068(4) 0.460050(17) 0.23277(3)
Co1 Co 0.18333(8) 0.22813(4) 0.14116(6)
Co2 Co 0.41601(8) 0.78630(4) 0.55321(5)
O1 O 0.5740(5) 0.3780(3) 0.3419(4)
O2 O 0.4076(5) 0.3798(2) 0.3371(3)
O3 O 0.4009(5) 0.1712(3) 0.0690(4)
O4 O 0.2466(4) 0.1879(2) 0.0825(3)
O5 O 0.0291(6) 0.3131(3) -0.0353(4)
O6 O 0.1503(5) 0.2852(2) 0.0715(3)
O7 O -0.0890(6) 0.0573(3) 0.1055(4)
O8 O -0.2058(5) 0.0634(3) -0.0103(4)
O9 O 0.2132(5) 0.1716(2) 0.2123(3)
O10 O 0.1799(9) 0.1445(3) 0.3145(5)
O11 O 0.0287(9) 0.4205(4) 0.2183(8)
O12 O -0.1020(7) 0.3908(5) 0.2506(5)
O13 O 0.1423(6) 0.8037(3) 0.3976(4)
O14 O 0.2896(4) 0.8199(2) 0.4941(3)
O15 O 0.3685(5) 0.5485(2) 0.4005(3)
O16 O 0.5000(4) 0.5755(2) 0.5009(3)
O17 O 0.5428(4) 0.7507(2) 0.6066(3)
O18 O 0.7044(5) 0.7358(2) 0.6045(4)
O19 O 0.3818(6) 0.9181(3) 0.3166(4)
O20 O 0.5431(7) 0.9462(3) 0.3266(5)
O21 O 0.3399(4) 0.7571(2) 0.6128(3)
O22 O 0.2674(6) 0.7839(3) 0.6968(4)
O23 O 0.6559(6) 0.9720(3) 0.6541(4)
O24 O 0.6866(7) 0.9726(3) 0.7761(4)
O25 O 0.3308(5) 0.4768(3) 0.2611(3)
O26 O 0.5299(4) 0.4808(2) 0.3769(3)
O27 O 0.2852(5) 0.3751(2) 0.4273(4)
O28 O 0.1826(5) 0.4743(3) 0.3388(4)
O29 O 0.3101(4) 0.4783(2) 0.4987(3)
O30 O -0.1186(9) 0.5330(5) 0.2099(8)
O31 O -0.2267(8) 0.4392(5) 0.1089(5)
O32 O -0.0825(7) 0.4825(4) 0.3521(5)
O33 O -0.2470(5) 0.4153(3) 0.3339(4)
N1 N 0.3218(5) 0.2585(2) 0.1862(3)
N2 N 0.0513(5) 0.1994(2) 0.0799(4)
N3 N 0.1214(5) 0.2625(3) 0.2070(4)
N4 N 0.3680(5) 0.7270(2) 0.4851(3)
N5 N 0.4942(5) 0.8178(2) 0.4961(3)
N6 N 0.4522(5) 0.8440(2) 0.6272(4)
C1 C 0.3534(6) 0.2978(3) 0.2370(4)
H1 H 0.3043 0.3128 0.2574
C2 C 0.4539(6) 0.3174(3) 0.2609(4)
C3 C 0.5261(6) 0.2959(3) 0.2318(5)
H2 H 0.5963 0.3089 0.2477
C4 C 0.4947(6) 0.2548(3) 0.1787(4)
H3 H 0.5427 0.2394 0.1576
C5 C 0.3924(6) 0.2369(3) 0.1576(4)
C6 C 0.4826(6) 0.3620(3) 0.3176(4)
C7 C 0.3472(6) 0.1951(3) 0.0981(5)
C8 C 0.0814(6) 0.3111(3) 0.2014(5)
H4 H 0.0892 0.3348 0.1641
C9 C 0.0277(6) 0.3290(4) 0.2484(5)
C10 C 0.0163(8) 0.2945(5) 0.3000(6)
H5 H -0.0246 0.3048 0.3299
C11 C 0.0634(8) 0.2436(5) 0.3106(5)
H6 H 0.0595 0.2200 0.3492
C12 C 0.1160(6) 0.2294(4) 0.2619(5)
C13 C 0.1735(8) 0.1774(4) 0.2646(6)
C14 C -0.0192(8) 0.3842(5) 0.2369(6)
C15 C 0.0071(6) 0.1517(3) 0.0863(5)
H7 H 0.0415 0.1292 0.1282
C16 C -0.0868(6) 0.1347(3) 0.0337(5)
C17 C -0.1390(7) 0.1682(4) -0.0255(5)
H8 H -0.2056 0.1580 -0.0602
C18 C -0.0937(7) 0.2170(4) -0.0342(5)
H9 H -0.1275 0.2400 -0.0756
C19 C 0.0000(6) 0.2309(3) 0.0183(5)
C20 C 0.0610(7) 0.2808(3) 0.0159(5)
C21 C -0.1306(7) 0.0805(4) 0.0442(5)
C22 C 0.4125(5) 0.6785(3) 0.4900(4)
H10 H 0.4764 0.6715 0.5301
C23 C 0.3675(5) 0.6379(3) 0.4378(4)
C24 C 0.2757(6) 0.6498(3) 0.3785(4)
H11 H 0.2451 0.6242 0.3399
C25 C 0.2295(6) 0.6998(3) 0.3764(5)
H12 H 0.1655 0.7082 0.3372
C26 C 0.2760(6) 0.7371(3) 0.4305(4)
C27 C 0.4154(5) 0.5834(3) 0.4468(4)
C28 C 0.2299(7) 0.7907(3) 0.4387(5)
C29 C 0.4589(7) 0.8538(3) 0.4411(4)
H13 H 0.3866 0.8635 0.4240
C30 C 0.5259(7) 0.8777(3) 0.4080(5)
C31 C 0.6309(8) 0.8639(4) 0.4363(6)
H14 H 0.6792 0.8815 0.4176
C32 C 0.6679(7) 0.8240(4) 0.4927(5)
H15 H 0.7395 0.8130 0.5105
C33 C 0.5948(6) 0.8015(3) 0.5208(4)
C34 C 0.6208(6) 0.7596(3) 0.5823(5)
C35 C 0.4790(8) 0.9188(4) 0.3451(5)
C36 C 0.5231(7) 0.8818(3) 0.6377(5)
H16 H 0.5576 0.8861 0.6018
C37 C 0.5496(7) 0.9161(3) 0.7007(5)
C38 C 0.4976(8) 0.9110(4) 0.7504(5)
H17 H 0.5148 0.9333 0.7938
C39 C 0.4181(8) 0.8722(4) 0.7369(5)
H18 H 0.3779 0.8692 0.7694
C40 C 0.3994(7) 0.8388(3) 0.6765(4)
C41 C 0.3288(7) 0.7909(3) 0.6618(5)
C42 C 0.6332(9) 0.9560(3) 0.7098(6)
Tb1B Tb 0.63381(3) 0.545012(12) 0.607729(19)
Tb2A Tb 0.22068(4) 0.960050(17) 0.26723(3)
Tb2C Tb 0.77932(4) 1.039950(17) 0.73277(3)
O16B O 0.5000(4) 0.4245(2) 0.4991(3)
O19A O -0.3818(6) 0.4181(3) 0.1834(4)
O23C O -0.3441(6) 0.5280(3) 0.1541(4)
O24C O -0.3134(7) 0.5274(3) 0.2761(4)
O34 O 0.2121(7) 0.4236(3) 0.5812(4)
O35 O 1.0642(8) 1.0919(6) 0.9337(6)
O36 O 0.757(3) 0.3015(17) 0.227(2)
O37 O 0.1116(19) 0.8572(10) 0.6909(13)
O38 O 0.886(3) 0.9220(13) 0.5184(18)
loop_
_geom_bond_atom_site_label_1
_geom_bond_atom_site_label_2
_geom_bond_site_symmetry_1
_geom_bond_site_symmetry_2
Tb1 O2 1_555 1_555
Tb2 O12 1_555 1_555
Co1 O4 1_555 1_555
Co2 O14 1_555 1_555
O1 C6 1_555 1_555
O2 C6 1_555 1_555
O3 C7 1_555 1_555
O4 C7 1_555 1_555
O5 C20 1_555 1_555
O6 Co1 1_555 1_555
O7 C21 1_555 1_555
O8 C21 1_555 1_555
O9 Co1 1_555 1_555
O10 C13 1_555 1_555
O11 C14 1_555 1_555
O12 C14 1_555 1_555
O13 C28 1_555 1_555
O14 C28 1_555 1_555
O15 Tb1 1_555 1_555
O16 C27 1_555 1_555
O17 Co2 1_555 1_555
O18 C34 1_555 1_555
O19 C35 1_555 1_555
O20 C35 1_555 1_555
O21 Co2 1_555 1_555
O22 C41 1_555 1_555
O23 C42 1_555 1_555
O24 C42 1_555 1_555
O25 Tb1 1_555 1_555
O26 Tb1 1_555 1_555
O27 Tb1 1_555 1_555
O28 Tb1 1_555 1_555
O29 Tb1 1_555 1_555
O30 Tb2 1_555 1_555
O31 Tb2 1_555 1_555
O32 Tb2 1_555 1_555
O33 Tb2 1_555 1_555
N1 Co1 1_555 1_555
N2 Co1 1_555 1_555
N3 Co1 1_555 1_555
N4 Co2 1_555 1_555
N5 Co2 1_555 1_555
N6 Co2 1_555 1_555
C1 N1 1_555 1_555
H1 C1 1_555 1_555
C2 C1 1_555 1_555
C3 C2 1_555 1_555
H2 C3 1_555 1_555
C4 C3 1_555 1_555
H3 C4 1_555 1_555
C5 N1 1_555 1_555
C6 C2 1_555 1_555
C7 C5 1_555 1_555
C8 N3 1_555 1_555
H4 C8 1_555 1_555
C9 C8 1_555 1_555
C10 C9 1_555 1_555
H5 C10 1_555 1_555
C11 C10 1_555 1_555
H6 C11 1_555 1_555
C12 N3 1_555 1_555
C13 O9 1_555 1_555
C14 C9 1_555 1_555
C15 N2 1_555 1_555
H7 C15 1_555 1_555
C16 C15 1_555 1_555
C17 C16 1_555 1_555
H8 C17 1_555 1_555
C18 C17 1_555 1_555
H9 C18 1_555 1_555
C19 N2 1_555 1_555
C20 O6 1_555 1_555
C21 C16 1_555 1_555
C22 N4 1_555 1_555
H10 C22 1_555 1_555
C23 C22 1_555 1_555
C24 C23 1_555 1_555
H11 C24 1_555 1_555
C25 C24 1_555 1_555
H12 C25 1_555 1_555
C26 N4 1_555 1_555
C27 O15 1_555 1_555
C28 C26 1_555 1_555
C29 N5 1_555 1_555
H13 C29 1_555 1_555
C30 C29 1_555 1_555
C31 C30 1_555 1_555
H14 C31 1_555 1_555
C32 C31 1_555 1_555
H15 C32 1_555 1_555
C33 N5 1_555 1_555
C34 O17 1_555 1_555
C35 C30 1_555 1_555
C36 N6 1_555 1_555
H16 C36 1_555 1_555
C37 C36 1_555 1_555
C38 C37 1_555 1_555
H17 C38 1_555 1_555
C39 C38 1_555 1_555
H18 C39 1_555 1_555
C40 N6 1_555 1_555
C41 O21 1_555 1_555
C42 C37 1_555 1_555
Tb1B O16 1_555 1_555
Tb2A O19 1_555 1_555
Tb2C O23 1_555 1_555
O16B Tb1 1_555 1_555
O19A Tb2 1_555 1_555
O23C Tb2 1_555 1_555
O24C Tb2 1_555 1_555
O24 Tb2C 1_555 1_555
C4 C5 1_555 1_555
C11 C12 1_555 1_555
C12 C13 1_555 1_555
C18 C19 1_555 1_555
C19 C20 1_555 1_555
C23 C27 1_555 1_555
C25 C26 1_555 1_555
C32 C33 1_555 1_555
C33 C34 1_555 1_555
C39 C40 1_555 1_555
C40 C41 1_555 1_555

#END
