
#######################################################################
#
#                 Cambridge Crystallographic Data Centre
#                                CCDC 
#
#######################################################################
#
# If this CIF has been generated from an entry in the Cambridge 
# Structural Database, then it will include bibliographic, chemical, 
# crystal, experimental, refinement or atomic coordinate data resulting 
# from the CCDC's data processing and validation procedures.
#
#######################################################################

data_BOMXIL
_symmetry_cell_setting           orthorhombic
_symmetry_space_group_name_H-M   'P 21 21 21'
_symmetry_Int_Tables_number      19
_space_group_name_Hall           'P 2ac 2ab'
loop_
_symmetry_equiv_pos_site_id
_symmetry_equiv_pos_as_xyz
1 x,y,z
2 1/2-x,-y,1/2+z
3 1/2+x,1/2-y,-z
4 -x,1/2+y,1/2-z
_cell_length_a                   8.8874(5)
_cell_length_b                   13.7594(7)
_cell_length_c                   17.0043(9)
_cell_angle_alpha                90
_cell_angle_beta                 90
_cell_angle_gamma                90
_cell_volume                     2079.38
loop_
_atom_site_label
_atom_site_type_symbol
_atom_site_fract_x
_atom_site_fract_y
_atom_site_fract_z
C1 C 0.0781(4) 0.1866(3) 0.0253(2)
H1 H 0.0003 0.1384 0.0223
H2 H 0.0465 0.2442 -0.0020
H3 H 0.0975 0.2020 0.0794
C2 C 0.2192(3) 0.1478(2) -0.01205(18)
C3 C 0.2605(4) 0.1794(2) -0.08547(17)
H4 H 0.2022 0.2274 -0.1089
C4 C 0.3864(3) 0.1436(2) -0.12800(18)
C5 C 0.4187(5) 0.1840(3) -0.2073(2)
H5 H 0.5249 0.1949 -0.2126
H6 H 0.3661 0.2444 -0.2138
H7 H 0.3861 0.1387 -0.2468
C6 C 0.6047(4) 0.0293(3) -0.1325(2)
H8 H 0.6058 0.0420 -0.1892
C7 C 0.7495(4) 0.0686(3) -0.0966(2)
H9 H 0.7444 0.0632 -0.0398
H10 H 0.7600 0.1368 -0.1098
C8 C 0.8875(4) 0.0122(4) -0.1270(3)
H11 H 0.8965 0.0206 -0.1834
H12 H 0.9781 0.0375 -0.1026
C9 C 0.0603(4) -0.1958(3) -0.2999(2)
H13 H -0.0107 -0.1433 -0.2996
H14 H 0.0171 -0.2513 -0.2741
H15 H 0.0849 -0.2124 -0.3532
C10 C 0.2007(3) -0.1654(2) -0.25722(19)
C11 C 0.2310(4) -0.2041(2) -0.18390(18)
H16 H 0.1668 -0.2521 -0.1651
C12 C 0.3523(4) -0.1759(2) -0.13560(18)
C13 C 0.3591(5) -0.2135(3) -0.0533(2)
H17 H 0.4529 -0.2467 -0.0453
H18 H 0.2773 -0.2578 -0.0447
H19 H 0.3514 -0.1602 -0.0171
C14 C 0.5893(3) -0.0807(2) -0.1192(2)
H20 H 0.5751 -0.0924 -0.0628
C15 C 0.7291(4) -0.1353(3) -0.1461(2)
H21 H 0.7381 -0.1304 -0.2028
H22 H 0.7190 -0.2035 -0.1327
C16 C 0.8707(4) -0.0946(4) -0.1077(3)
H23 H 0.8648 -0.1030 -0.0512
H24 H 0.9580 -0.1299 -0.1266
N1 N 0.4731(3) 0.07660(19) -0.09802(14)
H25 H 0.4496 0.0577 -0.0514
N2 N 0.4568(3) -0.11538(19) -0.16084(15)
H26 H 0.4451 -0.0937 -0.2079
O1 O 0.2962(3) 0.08513(19) 0.02590(13)
O2 O 0.2866(3) -0.10211(19) -0.28989(13)
Cl1 Cl 0.45552(19) -0.07996(10) 0.14217(8)
Cl2 Cl 0.0391(2) -0.06770(12) 0.10325(10)
Zn1 Zn 0.25179(6) 0.01036(3) 0.122506(18)
O2A O 0.2134(3) 0.10211(19) 0.21011(13)
Zn1A Zn 0.24821(6) -0.01036(3) -0.377494(18)
O3 O -0.2375(10) 0.0541(6) 0.1506(6)
loop_
_geom_bond_atom_site_label_1
_geom_bond_atom_site_label_2
_geom_bond_site_symmetry_1
_geom_bond_site_symmetry_2
C1 H1 1_555 1_555
H2 C1 1_555 1_555
H3 C1 1_555 1_555
C2 C1 1_555 1_555
C3 C2 1_555 1_555
H4 C3 1_555 1_555
C4 C3 1_555 1_555
C5 C4 1_555 1_555
H5 C5 1_555 1_555
H6 C5 1_555 1_555
H7 C5 1_555 1_555
C6 H8 1_555 1_555
C7 C6 1_555 1_555
H9 C7 1_555 1_555
H10 C7 1_555 1_555
C8 C7 1_555 1_555
H11 C8 1_555 1_555
H12 C8 1_555 1_555
C9 H13 1_555 1_555
H14 C9 1_555 1_555
H15 C9 1_555 1_555
C10 C9 1_555 1_555
C11 C10 1_555 1_555
H16 C11 1_555 1_555
C12 C11 1_555 1_555
C13 C12 1_555 1_555
H17 C13 1_555 1_555
H18 C13 1_555 1_555
H19 C13 1_555 1_555
C14 C6 1_555 1_555
H20 C14 1_555 1_555
C15 C14 1_555 1_555
H21 C15 1_555 1_555
H22 C15 1_555 1_555
C16 C8 1_555 1_555
H23 C16 1_555 1_555
H24 C16 1_555 1_555
N1 C4 1_555 1_555
H25 N1 1_555 1_555
N2 C12 1_555 1_555
H26 N2 1_555 1_555
O1 C2 1_555 1_555
O2 C10 1_555 1_555
Cl1 Zn1 1_555 1_555
Cl2 Zn1 1_555 1_555
Zn1 O1 1_555 1_555
O2A Zn1 1_555 1_555
Zn1A O2 1_555 1_555
C6 N1 1_555 1_555
C14 N2 1_555 1_555
C15 C16 1_555 1_555

#END
