
#######################################################################
#
#                 Cambridge Crystallographic Data Centre
#                                CCDC 
#
#######################################################################
#
# If this CIF has been generated from an entry in the Cambridge 
# Structural Database, then it will include bibliographic, chemical, 
# crystal, experimental, refinement or atomic coordinate data resulting 
# from the CCDC's data processing and validation procedures.
#
#######################################################################

data_BOMXOR
_symmetry_cell_setting           orthorhombic
_symmetry_space_group_name_H-M   'P 21 21 2'
_symmetry_Int_Tables_number      18
_space_group_name_Hall           'P 2 2ab'
loop_
_symmetry_equiv_pos_site_id
_symmetry_equiv_pos_as_xyz
1 x,y,z
2 -x,-y,z
3 1/2-x,1/2+y,-z
4 1/2+x,1/2-y,-z
_cell_length_a                   15.9694(14)
_cell_length_b                   43.457(4)
_cell_length_c                   9.0848(8)
_cell_angle_alpha                90
_cell_angle_beta                 90
_cell_angle_gamma                90
_cell_volume                     6304.69
loop_
_atom_site_label
_atom_site_type_symbol
_atom_site_fract_x
_atom_site_fract_y
_atom_site_fract_z
C1 C 0.5361(4) -0.0112(2) -0.8494(7)
H1 H 0.5701 -0.0079 -0.9365
H2 H 0.5147 -0.0321 -0.8525
C2 C 0.6076(5) -0.05439(13) -0.3481(8)
H3 H 0.5528 -0.0590 -0.3103
H4 H 0.6490 -0.0649 -0.2903
H5 H 0.6113 -0.0611 -0.4486
Cl1 Cl 0.58470(13) 0.10155(5) -0.0377(2)
Cl2 Cl 0.57714(13) 0.10495(6) -0.4530(2)
Cl3 Cl 0.91925(12) 0.24966(5) 0.04607(16)
Cl4 Cl 1.02751(11) 0.23263(4) -0.3258(2)
Cl5 Cl 0.69274(14) 0.43698(6) -0.0632(3)
Cl6 Cl 0.6916(2) 0.42584(6) -0.4857(3)
C3 C 0.5894(4) -0.00701(16) -0.7131(6)
H6 H 0.6149 0.0133 -0.7156
H7 H 0.6342 -0.0221 -0.7141
C4 C 0.5397(3) -0.01040(12) -0.5709(6)
H8 H 0.5218 -0.0319 -0.5615
C5 C 0.6225(3) -0.02047(12) -0.3403(6)
C6 C 0.6683(3) -0.00858(12) -0.2240(6)
H9 H 0.6930 -0.0226 -0.1600
C7 C 0.6804(3) 0.02238(13) -0.1949(6)
C8 C 0.7252(4) 0.03119(14) -0.0576(6)
H10 H 0.7618 0.0482 -0.0776
H11 H 0.7576 0.0140 -0.0230
H12 H 0.6853 0.0370 0.0162
C9 C 0.8206(4) 0.09186(13) -0.4504(5)
H13 H 0.8037 0.0709 -0.4354
H14 H 0.8764 0.0923 -0.4893
H15 H 0.7830 0.1016 -0.5188
C10 C 0.8182(3) 0.10871(11) -0.3069(5)
C11 C 0.8849(3) 0.12693(11) -0.2620(6)
H16 H 0.9331 0.1266 -0.3194
C12 C 0.8853(3) 0.14559(12) -0.1382(5)
C13 C 0.9609(4) 0.16465(15) -0.1068(7)
H17 H 0.9595 0.1830 -0.1658
H18 H 1.0104 0.1531 -0.1299
H19 H 0.9616 0.1702 -0.0045
C14 C 0.8049(3) 0.16700(12) 0.0773(5)
H20 H 0.8485 0.1829 0.0797
C15 C 0.8084(4) 0.14879(14) 0.2213(6)
H21 H 0.7698 0.1316 0.2163
H22 H 0.8644 0.1406 0.2352
C16 C 0.7855(6) 0.16933(17) 0.3515(7)
H23 H 0.7854 0.1572 0.4411
H24 H 0.8273 0.1854 0.3620
C17 C 0.7006(5) 0.18377(16) 0.3302(7)
H25 H 0.6582 0.1678 0.3265
H26 H 0.6881 0.1971 0.4131
C18 C 0.6982(4) 0.20214(14) 0.1908(6)
H27 H 0.7372 0.2192 0.1984
H28 H 0.6425 0.2106 0.1777
C19 C 0.7206(3) 0.18263(12) 0.0568(5)
H29 H 0.6778 0.1667 0.0452
C20 C 0.5814(3) 0.18855(14) -0.1584(7)
H30 H 0.5870 0.1673 -0.1851
H31 H 0.5406 0.1982 -0.2209
H32 H 0.5637 0.1901 -0.0577
C21 C 0.6652(3) 0.20457(12) -0.1767(6)
C22 C 0.6784(3) 0.22324(12) -0.2999(6)
H33 H 0.6348 0.2254 -0.3671
C23 C 0.7514(4) 0.23857(12) -0.3277(6)
C24 C 0.7589(5) 0.25987(16) -0.4594(7)
H34 H 0.7741 0.2801 -0.4265
H35 H 0.7061 0.2608 -0.5099
H36 H 0.8011 0.2522 -0.5250
C25 C 0.9831(4) 0.30889(14) -0.4544(6)
H37 H 1.0300 0.2958 -0.4327
H38 H 1.0017 0.3263 -0.5104
H39 H 0.9425 0.2976 -0.5105
C26 C 0.9441(3) 0.31974(13) -0.3132(6)
C27 C 0.9391(3) 0.35051(12) -0.2829(5)
H40 H 0.9643 0.3639 -0.3491
C28 C 0.8989(3) 0.36352(12) -0.1598(6)
C29 C 0.8922(4) 0.39801(12) -0.1498(6)
H41 H 0.8351 0.4037 -0.1310
H42 H 0.9103 0.4070 -0.2410
H43 H 0.9271 0.4053 -0.0711
C30 C 0.8220(3) 0.35553(12) 0.0757(5)
H44 H 0.8002 0.3764 0.0602
C31 C 0.8805(3) 0.35629(13) 0.2092(6)
H45 H 0.9064 0.3363 0.2215
H46 H 0.9245 0.3713 0.1925
C32 C 0.8334(4) 0.36456(14) 0.3464(6)
H47 H 0.8113 0.3853 0.3368
H48 H 0.8715 0.3643 0.4295
C33 C 0.7623(4) 0.34258(15) 0.3756(6)
H49 H 0.7320 0.3491 0.4627
H50 H 0.7845 0.3221 0.3936
C34 C 0.7031(3) 0.34172(12) 0.2444(6)
H51 H 0.6602 0.3264 0.2619
H52 H 0.6758 0.3615 0.2349
C35 C 0.7481(3) 0.33423(11) 0.1019(5)
H53 H 0.7692 0.3131 0.1082
C36 C 0.6565(4) 0.28202(12) -0.0332(6)
H54 H 0.7131 0.2748 -0.0420
H55 H 0.6200 0.2687 -0.0878
H56 H 0.6403 0.2820 0.0685
C37 C 0.6503(3) 0.31408(11) -0.0933(6)
C38 C 0.6030(3) 0.31996(12) -0.2185(6)
H57 H 0.5756 0.3035 -0.2627
C39 C 0.5944(3) 0.34808(15) -0.2803(6)
C40 C 0.5438(4) 0.35283(17) -0.4215(7)
H58 H 0.4955 0.3652 -0.4005
H59 H 0.5263 0.3332 -0.4592
H60 H 0.5780 0.3630 -0.4934
C41 C 0.4601(4) 0.41671(13) -0.0695(6)
H61 H 0.4717 0.3955 -0.0919
H62 H 0.4069 0.4182 -0.0207
H63 H 0.5031 0.4247 -0.0064
C42 C 0.4577(3) 0.43483(11) -0.2081(5)
C43 C 0.3902(3) 0.45286(11) -0.2467(5)
H64 H 0.3434 0.4520 -0.1858
C44 C 0.3856(3) 0.47223(11) -0.3683(5)
C45 C 0.3082(4) 0.49149(16) -0.3924(7)
H65 H 0.3173 0.5118 -0.3537
H66 H 0.2616 0.4821 -0.3430
H67 H 0.2967 0.4928 -0.4959
C46 C 0.4564(3) 0.49356(12) -0.5952(5)
H68 H 0.4162 0.5105 -0.5883
C47 C 0.4387(4) 0.47505(13) -0.7358(6)
H69 H 0.4748 0.4571 -0.7387
H70 H 0.3811 0.4680 -0.7351
C48 C 0.4537(5) 0.49429(17) -0.8687(6)
H71 H 0.4160 0.5118 -0.8684
H72 H 0.4429 0.4823 -0.9568
N1 N 0.5906(2) -0.00255(10) -0.4440(5)
H73 H 0.6017 0.0167 -0.4347
N2 N 0.8204(3) 0.14667(9) -0.0502(5)
H74 H 0.7812 0.1337 -0.0694
N3 N 0.7232(2) 0.20071(9) -0.0769(4)
H75 H 0.7694 0.2103 -0.0929
N4 N 0.8654(3) 0.34615(9) -0.0572(5)
H76 H 0.8698 0.3266 -0.0705
N5 N 0.6914(2) 0.33629(9) -0.0254(4)
H77 H 0.6839 0.3545 -0.0604
N6 N 0.4477(2) 0.47363(9) -0.4637(4)
H78 H 0.4888 0.4613 -0.4474
O2 O 0.6527(2) 0.04364(8) -0.2812(4)
O3 O 0.7522(2) 0.10635(8) -0.2285(4)
O4 O 0.8164(2) 0.23572(9) -0.2426(4)
O5 O 0.9131(2) 0.29924(8) -0.2257(4)
O6 O 0.6286(3) 0.37272(9) -0.2260(4)
O7 O 0.5218(2) 0.43334(9) -0.2925(4)
Zn1 Zn 0.63999(4) 0.088438(13) -0.25298(7)
Zn2 Zn 0.92569(4) 0.254596(15) -0.19884(7)
Zn3 Zn 0.63679(4) 0.417412(16) -0.26740(10)
C1A C 0.4639(4) 0.0112(2) -0.8494(7)
H1A H 0.4299 0.0079 -0.9365
H2A H 0.4853 0.0321 -0.8525
C2A C 0.3924(5) 0.05439(13) -0.3481(8)
H3A H 0.4472 0.0590 -0.3103
H4A H 0.3510 0.0649 -0.2903
H5A H 0.3887 0.0611 -0.4486
Cl1A Cl 0.41530(13) -0.10155(5) -0.0377(2)
Cl2A Cl 0.42286(13) -0.10495(6) -0.4530(2)
Cl3A Cl 0.08075(12) -0.24966(5) 0.04607(16)
Cl4A Cl -0.02751(11) -0.23263(4) -0.3258(2)
Cl5A Cl 0.30726(14) 0.56302(6) -0.0632(3)
Cl6A Cl 0.3084(2) 0.57416(6) -0.4857(3)
C3A C 0.4106(4) 0.00701(16) -0.7131(6)
H6A H 0.3851 -0.0133 -0.7156
H7A H 0.3658 0.0221 -0.7141
C4A C 0.4603(3) 0.01040(12) -0.5709(6)
H8A H 0.4782 0.0319 -0.5615
C5A C 0.3775(3) 0.02047(12) -0.3403(6)
C6A C 0.3317(3) 0.00858(12) -0.2240(6)
H9A H 0.3070 0.0226 -0.1600
C7A C 0.3196(3) -0.02238(13) -0.1949(6)
C8A C 0.2748(4) -0.03119(14) -0.0576(6)
H10A H 0.2382 -0.0482 -0.0776
H11A H 0.2424 -0.0140 -0.0230
H12A H 0.3147 -0.0370 0.0162
C9A C 0.1794(4) -0.09186(13) -0.4504(5)
H13A H 0.1963 -0.0709 -0.4354
H14A H 0.1236 -0.0923 -0.4893
H15A H 0.2170 -0.1016 -0.5188
C10A C 0.1818(3) -0.10871(11) -0.3069(5)
C11A C 0.1151(3) -0.12693(11) -0.2620(6)
H16A H 0.0669 -0.1266 -0.3194
C12A C 0.1147(3) -0.14559(12) -0.1382(5)
C13A C 0.0391(4) -0.16465(15) -0.1068(7)
H17A H 0.0405 -0.1830 -0.1658
H18A H -0.0104 -0.1531 -0.1299
H19A H 0.0384 -0.1702 -0.0045
C14A C 0.1951(3) -0.16700(12) 0.0773(5)
H20A H 0.1515 -0.1829 0.0797
C15A C 0.1916(4) -0.14879(14) 0.2213(6)
H21A H 0.2302 -0.1316 0.2163
H22A H 0.1356 -0.1406 0.2352
C16A C 0.2145(6) -0.16933(17) 0.3515(7)
H23A H 0.2146 -0.1572 0.4411
H24A H 0.1727 -0.1854 0.3620
C17A C 0.2994(5) -0.18377(16) 0.3302(7)
H25A H 0.3418 -0.1678 0.3265
H26A H 0.3119 -0.1971 0.4131
C18A C 0.3018(4) -0.20214(14) 0.1908(6)
H27A H 0.2628 -0.2192 0.1984
H28A H 0.3575 -0.2106 0.1777
C19A C 0.2794(3) -0.18263(12) 0.0568(5)
H29A H 0.3222 -0.1667 0.0452
C20A C 0.4186(3) -0.18855(14) -0.1584(7)
H30A H 0.4130 -0.1673 -0.1851
H31A H 0.4594 -0.1982 -0.2209
H32A H 0.4363 -0.1901 -0.0577
C21A C 0.3348(3) -0.20457(12) -0.1767(6)
C22A C 0.3216(3) -0.22324(12) -0.2999(6)
H33A H 0.3652 -0.2254 -0.3671
C23A C 0.2486(4) -0.23857(12) -0.3277(6)
C24A C 0.2411(5) -0.25987(16) -0.4594(7)
H34A H 0.2259 -0.2801 -0.4265
H35A H 0.2939 -0.2608 -0.5099
H36A H 0.1989 -0.2522 -0.5250
C25A C 0.0169(4) -0.30889(14) -0.4544(6)
H37A H -0.0300 -0.2958 -0.4327
H38A H -0.0017 -0.3263 -0.5104
H39A H 0.0575 -0.2976 -0.5105
C26A C 0.0559(3) -0.31974(13) -0.3132(6)
C27A C 0.0609(3) -0.35051(12) -0.2829(5)
H40A H 0.0357 -0.3639 -0.3491
C28A C 0.1011(3) -0.36352(12) -0.1598(6)
C29A C 0.1078(4) -0.39801(12) -0.1498(6)
H41A H 0.1649 -0.4037 -0.1310
H42A H 0.0897 -0.4070 -0.2410
H43A H 0.0729 -0.4053 -0.0711
C30A C 0.1780(3) -0.35553(12) 0.0757(5)
H44A H 0.1998 -0.3764 0.0602
C31A C 0.1195(3) -0.35629(13) 0.2092(6)
H45A H 0.0936 -0.3363 0.2215
H46A H 0.0755 -0.3713 0.1925
C32A C 0.1666(4) -0.36456(14) 0.3464(6)
H47A H 0.1887 -0.3853 0.3368
H48A H 0.1285 -0.3643 0.4295
C33A C 0.2377(4) -0.34258(15) 0.3756(6)
H49A H 0.2680 -0.3491 0.4627
H50A H 0.2155 -0.3221 0.3936
C34A C 0.2969(3) -0.34172(12) 0.2444(6)
H51A H 0.3398 -0.3264 0.2619
H52A H 0.3242 -0.3615 0.2349
C35A C 0.2519(3) -0.33423(11) 0.1019(5)
H53A H 0.2308 -0.3131 0.1082
C36A C 0.3435(4) -0.28202(12) -0.0332(6)
H54A H 0.2869 -0.2748 -0.0420
H55A H 0.3800 -0.2687 -0.0878
H56A H 0.3597 -0.2820 0.0685
C37A C 0.3497(3) -0.31408(11) -0.0933(6)
C38A C 0.3970(3) -0.31996(12) -0.2185(6)
H57A H 0.4244 -0.3035 -0.2627
C39A C 0.4056(3) -0.34808(15) -0.2803(6)
C40A C 0.4562(4) -0.35283(17) -0.4215(7)
H58A H 0.5045 -0.3652 -0.4005
H59A H 0.4737 -0.3332 -0.4592
H60A H 0.4220 -0.3630 -0.4934
C41A C 0.5399(4) 0.58329(13) -0.0695(6)
H61A H 0.5283 0.6045 -0.0919
H62A H 0.5931 0.5818 -0.0207
H63A H 0.4969 0.5753 -0.0064
C42A C 0.5423(3) 0.56517(11) -0.2081(5)
C43A C 0.6098(3) 0.54714(11) -0.2467(5)
H64A H 0.6566 0.5480 -0.1858
C44A C 0.6144(3) 0.52777(11) -0.3683(5)
C45A C 0.6918(4) 0.50851(16) -0.3924(7)
H65A H 0.6827 0.4882 -0.3537
H66A H 0.7384 0.5179 -0.3430
H67A H 0.7033 0.5072 -0.4959
C46A C 0.5436(3) 0.50644(12) -0.5952(5)
H68A H 0.5838 0.4895 -0.5883
C47A C 0.5613(4) 0.52495(13) -0.7358(6)
H69A H 0.5252 0.5429 -0.7387
H70A H 0.6189 0.5320 -0.7351
C48A C 0.5463(5) 0.50571(17) -0.8687(6)
H71A H 0.5840 0.4882 -0.8684
H72A H 0.5571 0.5177 -0.9568
N1A N 0.4094(2) 0.00255(10) -0.4440(5)
H73A H 0.3983 -0.0167 -0.4347
N2A N 0.1796(3) -0.14667(9) -0.0502(5)
H74A H 0.2188 -0.1337 -0.0694
N3A N 0.2768(2) -0.20071(9) -0.0769(4)
H75A H 0.2306 -0.2103 -0.0929
N4A N 0.1346(3) -0.34615(9) -0.0572(5)
H76A H 0.1302 -0.3266 -0.0705
N5A N 0.3086(2) -0.33629(9) -0.0254(4)
H77A H 0.3161 -0.3545 -0.0604
N6A N 0.5523(2) 0.52637(9) -0.4637(4)
H78A H 0.5112 0.5387 -0.4474
O2A O 0.3473(2) -0.04364(8) -0.2812(4)
O3A O 0.2478(2) -0.10635(8) -0.2285(4)
O4A O 0.1836(2) -0.23572(9) -0.2426(4)
O5A O 0.0869(2) -0.29924(8) -0.2257(4)
O6A O 0.3714(3) -0.37272(9) -0.2260(4)
O6A_2 O 0.3714(3) 0.62728(9) -0.2260(4)
O7A O 0.4782(2) 0.56666(9) -0.2925(4)
Zn1A Zn 0.36001(4) -0.088438(13) -0.25298(7)
Zn2A Zn 0.07431(4) -0.254596(15) -0.19884(7)
Zn3A Zn 0.36321(4) -0.417412(16) -0.26740(10)
Zn3A_2 Zn 0.36321(4) 0.582588(16) -0.26740(10)
O1 O 0.6495(7) 0.0721(2) -0.7264(11)
loop_
_geom_bond_atom_site_label_1
_geom_bond_atom_site_label_2
_geom_bond_site_symmetry_1
_geom_bond_site_symmetry_2
C1 H1 1_555 1_555
H2 C1 1_555 1_555
C2 H3 1_555 1_555
H4 C2 1_555 1_555
H5 C2 1_555 1_555
Cl1 Zn1 1_555 1_555
Cl2 Zn1 1_555 1_555
Cl3 Zn2 1_555 1_555
Cl4 Zn2 1_555 1_555
Cl5 Zn3 1_555 1_555
Cl6 Zn3 1_555 1_555
C3 C1 1_555 1_555
H6 C3 1_555 1_555
H7 C3 1_555 1_555
C4 C3 1_555 1_555
H8 C4 1_555 1_555
C5 C2 1_555 1_555
C6 C5 1_555 1_555
H9 C6 1_555 1_555
C7 C6 1_555 1_555
C8 C7 1_555 1_555
H10 C8 1_555 1_555
H11 C8 1_555 1_555
H12 C8 1_555 1_555
C9 H13 1_555 1_555
H14 C9 1_555 1_555
H15 C9 1_555 1_555
C10 C9 1_555 1_555
C11 C10 1_555 1_555
H16 C11 1_555 1_555
C12 C11 1_555 1_555
C13 C12 1_555 1_555
H17 C13 1_555 1_555
H18 C13 1_555 1_555
H19 C13 1_555 1_555
C14 H20 1_555 1_555
C15 C14 1_555 1_555
H21 C15 1_555 1_555
H22 C15 1_555 1_555
C16 C15 1_555 1_555
H23 C16 1_555 1_555
H24 C16 1_555 1_555
C17 C16 1_555 1_555
H25 C17 1_555 1_555
H26 C17 1_555 1_555
C18 C17 1_555 1_555
H27 C18 1_555 1_555
H28 C18 1_555 1_555
C19 C14 1_555 1_555
H29 C19 1_555 1_555
C20 H30 1_555 1_555
H31 C20 1_555 1_555
H32 C20 1_555 1_555
C21 C20 1_555 1_555
C22 C21 1_555 1_555
H33 C22 1_555 1_555
C23 C22 1_555 1_555
C24 C23 1_555 1_555
H34 C24 1_555 1_555
H35 C24 1_555 1_555
H36 C24 1_555 1_555
C25 H37 1_555 1_555
H38 C25 1_555 1_555
H39 C25 1_555 1_555
C26 C25 1_555 1_555
C27 C26 1_555 1_555
H40 C27 1_555 1_555
C28 C27 1_555 1_555
C29 C28 1_555 1_555
H41 C29 1_555 1_555
H42 C29 1_555 1_555
H43 C29 1_555 1_555
C30 H44 1_555 1_555
C31 C30 1_555 1_555
H45 C31 1_555 1_555
H46 C31 1_555 1_555
C32 C31 1_555 1_555
H47 C32 1_555 1_555
H48 C32 1_555 1_555
C33 C32 1_555 1_555
H49 C33 1_555 1_555
H50 C33 1_555 1_555
C34 C33 1_555 1_555
H51 C34 1_555 1_555
H52 C34 1_555 1_555
C35 C30 1_555 1_555
H53 C35 1_555 1_555
C36 H54 1_555 1_555
H55 C36 1_555 1_555
H56 C36 1_555 1_555
C37 C36 1_555 1_555
C38 C37 1_555 1_555
H57 C38 1_555 1_555
C39 C38 1_555 1_555
C40 C39 1_555 1_555
H58 C40 1_555 1_555
H59 C40 1_555 1_555
H60 C40 1_555 1_555
C41 H61 1_555 1_555
H62 C41 1_555 1_555
H63 C41 1_555 1_555
C42 C41 1_555 1_555
C43 C42 1_555 1_555
H64 C43 1_555 1_555
C44 C43 1_555 1_555
C45 C44 1_555 1_555
H65 C45 1_555 1_555
H66 C45 1_555 1_555
H67 C45 1_555 1_555
C46 H68 1_555 1_555
C47 C46 1_555 1_555
H69 C47 1_555 1_555
H70 C47 1_555 1_555
C48 C47 1_555 1_555
H71 C48 1_555 1_555
H72 C48 1_555 1_555
N1 C4 1_555 1_555
H73 N1 1_555 1_555
N2 C12 1_555 1_555
H74 N2 1_555 1_555
N3 C19 1_555 1_555
H75 N3 1_555 1_555
N4 C28 1_555 1_555
H76 N4 1_555 1_555
N5 C35 1_555 1_555
H77 N5 1_555 1_555
N6 C44 1_555 1_555
H78 N6 1_555 1_555
O2 C7 1_555 1_555
O3 C10 1_555 1_555
O4 C23 1_555 1_555
O5 C26 1_555 1_555
O6 C39 1_555 1_555
O7 C42 1_555 1_555
Zn1 O2 1_555 1_555
Zn2 O4 1_555 1_555
Zn3 O6 1_555 1_555
C1A C1 1_555 1_555
H1A C1A 1_555 1_555
H2A C1A 1_555 1_555
C2A H3A 1_555 1_555
H4A C2A 1_555 1_555
H5A C2A 1_555 1_555
Cl1A Zn1A 1_555 1_555
Cl2A Zn1A 1_555 1_555
Cl3A Zn2A 1_555 1_555
Cl4A Zn2A 1_555 1_555
Cl5A Zn3A_2 1_555 1_555
Cl6A Zn3A_2 1_555 1_555
C3A C1A 1_555 1_555
H6A C3A 1_555 1_555
H7A C3A 1_555 1_555
C4A C4 1_555 1_555
H8A C4A 1_555 1_555
C5A C2A 1_555 1_555
C6A C5A 1_555 1_555
H9A C6A 1_555 1_555
C7A C6A 1_555 1_555
C8A C7A 1_555 1_555
H10A C8A 1_555 1_555
H11A C8A 1_555 1_555
H12A C8A 1_555 1_555
C9A H13A 1_555 1_555
H14A C9A 1_555 1_555
H15A C9A 1_555 1_555
C10A C9A 1_555 1_555
C11A C10A 1_555 1_555
H16A C11A 1_555 1_555
C12A C11A 1_555 1_555
C13A C12A 1_555 1_555
H17A C13A 1_555 1_555
H18A C13A 1_555 1_555
H19A C13A 1_555 1_555
C14A H20A 1_555 1_555
C15A C14A 1_555 1_555
H21A C15A 1_555 1_555
H22A C15A 1_555 1_555
C16A C15A 1_555 1_555
H23A C16A 1_555 1_555
H24A C16A 1_555 1_555
C17A C16A 1_555 1_555
H25A C17A 1_555 1_555
H26A C17A 1_555 1_555
C18A C17A 1_555 1_555
H27A C18A 1_555 1_555
H28A C18A 1_555 1_555
C19A C14A 1_555 1_555
H29A C19A 1_555 1_555
C20A H30A 1_555 1_555
H31A C20A 1_555 1_555
H32A C20A 1_555 1_555
C21A C20A 1_555 1_555
C22A C21A 1_555 1_555
H33A C22A 1_555 1_555
C23A C22A 1_555 1_555
C24A C23A 1_555 1_555
H34A C24A 1_555 1_555
H35A C24A 1_555 1_555
H36A C24A 1_555 1_555
C25A H37A 1_555 1_555
H38A C25A 1_555 1_555
H39A C25A 1_555 1_555
C26A C25A 1_555 1_555
C27A C26A 1_555 1_555
H40A C27A 1_555 1_555
C28A C27A 1_555 1_555
C29A C28A 1_555 1_555
H41A C29A 1_555 1_555
H42A C29A 1_555 1_555
H43A C29A 1_555 1_555
C30A H44A 1_555 1_555
C31A C30A 1_555 1_555
H45A C31A 1_555 1_555
H46A C31A 1_555 1_555
C32A C31A 1_555 1_555
H47A C32A 1_555 1_555
H48A C32A 1_555 1_555
C33A C32A 1_555 1_555
H49A C33A 1_555 1_555
H50A C33A 1_555 1_555
C34A C33A 1_555 1_555
H51A C34A 1_555 1_555
H52A C34A 1_555 1_555
C35A C30A 1_555 1_555
H53A C35A 1_555 1_555
C36A H54A 1_555 1_555
H55A C36A 1_555 1_555
H56A C36A 1_555 1_555
C37A C36A 1_555 1_555
C38A C37A 1_555 1_555
H57A C38A 1_555 1_555
C39A C38A 1_555 1_555
C40A C39A 1_555 1_555
H58A C40A 1_555 1_555
H59A C40A 1_555 1_555
H60A C40A 1_555 1_555
C41A H61A 1_555 1_555
H62A C41A 1_555 1_555
H63A C41A 1_555 1_555
C42A C41A 1_555 1_555
C43A C42A 1_555 1_555
H64A C43A 1_555 1_555
C44A C43A 1_555 1_555
C45A C44A 1_555 1_555
H65A C45A 1_555 1_555
H66A C45A 1_555 1_555
H67A C45A 1_555 1_555
C46A C46 1_555 1_555
H68A C46A 1_555 1_555
C47A C46A 1_555 1_555
H69A C47A 1_555 1_555
H70A C47A 1_555 1_555
C48A C48 1_555 1_555
H71A C48A 1_555 1_555
H72A C48A 1_555 1_555
N1A C4A 1_555 1_555
H73A N1A 1_555 1_555
N2A C12A 1_555 1_555
H74A N2A 1_555 1_555
N3A C19A 1_555 1_555
H75A N3A 1_555 1_555
N4A C28A 1_555 1_555
H76A N4A 1_555 1_555
N5A C35A 1_555 1_555
H77A N5A 1_555 1_555
N6A C44A 1_555 1_555
H78A N6A 1_555 1_555
O2A C7A 1_555 1_555
O3A C10A 1_555 1_555
O4A C23A 1_555 1_555
O5A C26A 1_555 1_555
O6A C39A 1_555 1_555
O6A_2 Zn3A_2 1_555 1_555
O7A C42A 1_555 1_555
Zn1A O2A 1_555 1_555
Zn2A O4A 1_555 1_555
Zn3A O6A 1_555 1_555
Zn3A_2 O7A 1_555 1_555
C5 N1 1_555 1_555
C14 N2 1_555 1_555
C18 C19 1_555 1_555
C21 N3 1_555 1_555
C30 N4 1_555 1_555
C34 C35 1_555 1_555
C37 N5 1_555 1_555
C46 N6 1_555 1_555
O3 Zn1 1_555 1_555
O5 Zn2 1_555 1_555
O7 Zn3 1_555 1_555
C3A C4A 1_555 1_555
C5A N1A 1_555 1_555
C14A N2A 1_555 1_555
C18A C19A 1_555 1_555
C21A N3A 1_555 1_555
C30A N4A 1_555 1_555
C34A C35A 1_555 1_555
C37A N5A 1_555 1_555
C46A N6A 1_555 1_555
C47A C48A 1_555 1_555
O3A Zn1A 1_555 1_555
O5A Zn2A 1_555 1_555

#END
