
#######################################################################
#
#                 Cambridge Crystallographic Data Centre
#                                CCDC 
#
#######################################################################
#
# If this CIF has been generated from an entry in the Cambridge 
# Structural Database, then it will include bibliographic, chemical, 
# crystal, experimental, refinement or atomic coordinate data resulting 
# from the CCDC's data processing and validation procedures.
#
#######################################################################

data_BONKUK
_symmetry_cell_setting           tetragonal
_symmetry_space_group_name_H-M   'I 41 2 2'
_symmetry_Int_Tables_number      98
_space_group_name_Hall           'I 4bw 2bw'
loop_
_symmetry_equiv_pos_site_id
_symmetry_equiv_pos_as_xyz
1 x,y,z
2 -x,-y,z
3 x,1/2-y,1/4-z
4 -x,1/2+y,1/4-z
5 -y,-x,-z
6 y,x,-z
7 y,1/2-x,1/4+z
8 -y,1/2+x,1/4+z
9 1/2+x,1/2+y,1/2+z
10 1/2-x,1/2-y,1/2+z
11 1/2+x,-y,3/4-z
12 1/2-x,y,3/4-z
13 1/2-y,1/2-x,1/2-z
14 1/2+y,1/2+x,1/2-z
15 1/2+y,-x,3/4+z
16 1/2-y,x,3/4+z
_cell_length_a                   7.419(2)
_cell_length_b                   7.419(2)
_cell_length_c                   19.935(4)
_cell_angle_alpha                90
_cell_angle_beta                 90
_cell_angle_gamma                90
_cell_volume                     1097.25
loop_
_atom_site_label
_atom_site_type_symbol
_atom_site_fract_x
_atom_site_fract_y
_atom_site_fract_z
Co1 Co 0.00000 0.50000 0.2500
Cl1 Cl 0.22958(9) 0.72958(9) 0.2500
N1 N 0.1448(3) 0.1585(4) 0.0762(1)
C1 C 0.0626(6) 0.25000 0.125
H1 H -0.070(6) 0.25000 0.125
C2 C 0.3251(4) 0.1613(5) 0.0760(2)
H2 H 0.382(5) 0.104(5) 0.038(2)
C3 C 0.4226(6) 0.25000 0.125
H3 H 0.569(7) 0.25000 0.125
N1B N 0.1448(3) 0.3415(4) 0.1738(1)
Co1B Co 0.00000 0.00000 0.0000
Cl1A Cl -0.22958(9) 0.27042(9) 0.2500
N1C N -0.1448(3) 0.6585(4) 0.1738(1)
C1C C -0.0626(6) 0.75000 0.125
N1A N -0.1448(3) 0.8415(4) 0.0762(1)
Co1B_2 Co 0.00000 1.00000 0.0000
C2A C -0.3251(4) 0.8387(5) 0.0760(2)
H2A H -0.382(5) 0.896(5) 0.038(2)
C3A C -0.4226(6) 0.75000 0.125
C2C C -0.3251(4) 0.6613(5) 0.1740(2)
H2C H -0.382(5) 0.604(5) 0.212(2)
H3A H -0.569(7) 0.75000 0.125
H1C H 0.070(6) 0.75000 0.125
N1G N -0.1585(4) 0.6448(3) 0.3262(1)
N1F N 0.1585(4) 0.3552(3) 0.3262(1)
C2B C 0.3251(4) 0.3387(5) 0.1740(2)
H2B H 0.382(5) 0.396(5) 0.212(2)
loop_
_geom_bond_atom_site_label_1
_geom_bond_atom_site_label_2
_geom_bond_site_symmetry_1
_geom_bond_site_symmetry_2
Co1 Cl1 1_555 1_555
N1 C1 1_555 1_555
C1 H1 1_555 1_555
C2 N1 1_555 1_555
H2 C2 1_555 1_555
C3 C2 1_555 1_555
H3 C3 1_555 1_555
N1B Co1 1_555 1_555
Co1B N1 1_555 1_555
Cl1A Co1 1_555 1_555
N1C Co1 1_555 1_555
C1C N1C 1_555 1_555
N1A C1C 1_555 1_555
Co1B_2 N1A 1_555 1_555
C2A N1A 1_555 1_555
H2A C2A 1_555 1_555
C3A C2A 1_555 1_555
C2C N1C 1_555 1_555
H2C C2C 1_555 1_555
H3A C3A 1_555 1_555
H1C C1C 1_555 1_555
N1G Co1 1_555 1_555
N1F Co1 1_555 1_555
C2B C3 1_555 1_555
H2B C2B 1_555 1_555
C1 N1B 1_555 1_555
N1B C2B 1_555 1_555
C3A C2C 1_555 1_555

#END
