
#######################################################################
#
#                 Cambridge Crystallographic Data Centre
#                                CCDC 
#
#######################################################################
#
# If this CIF has been generated from an entry in the Cambridge 
# Structural Database, then it will include bibliographic, chemical, 
# crystal, experimental, refinement or atomic coordinate data resulting 
# from the CCDC's data processing and validation procedures.
#
#######################################################################

data_BONMIB
_symmetry_cell_setting           triclinic
_symmetry_space_group_name_H-M   'P -1'
_symmetry_Int_Tables_number      2
_space_group_name_Hall           '-P 1'
loop_
_symmetry_equiv_pos_site_id
_symmetry_equiv_pos_as_xyz
1 x,y,z
2 -x,-y,-z
_cell_length_a                   8.2621(10)
_cell_length_b                   8.3419(10)
_cell_length_c                   19.247(2)
_cell_angle_alpha                101.726(2)
_cell_angle_beta                 92.286(2)
_cell_angle_gamma                92.437(2)
_cell_volume                     1296.08
loop_
_atom_site_label
_atom_site_type_symbol
_atom_site_fract_x
_atom_site_fract_y
_atom_site_fract_z
C1 C 0.5866(4) 0.5576(5) 0.1913(2)
C2 C 0.6563(5) 0.6308(5) 0.2613(2)
C3 C 0.8203(5) 0.6120(5) 0.2343(2)
C4 C 0.7477(5) 0.5424(5) 0.1628(2)
C5 C 0.2461(4) 0.9823(5) 0.2297(2)
C6 C 0.1610(5) 1.0152(5) 0.1660(2)
C7 C 0.1727(5) 1.1908(5) 0.1983(2)
C8 C 0.2585(5) 1.1584(5) 0.2614(2)
Cd1 Cd 0.20042(3) 0.58677(3) 0.213477(14)
O1 O 0.4453(3) 0.5188(4) 0.16326(15)
O2 O 0.6029(3) 0.6868(4) 0.32095(14)
O3 O 0.9582(3) 0.6460(4) 0.26271(15)
O4 O 0.7967(3) 0.4917(4) 0.10227(15)
O5 O 0.2900(4) 0.8551(3) 0.24996(16)
O6 O 0.1051(4) 0.9307(4) 0.10906(15)
O7 O 0.1231(3) 1.3154(3) 0.17825(15)
O8 O 0.3176(4) 1.2423(3) 0.31827(15)
O11 O 0.1102(3) 0.6038(4) 0.10232(15)
H14 H 0.0167 0.5557 0.0931
H15 H 0.1053 0.7041 0.0998
O12 O 0.2960(3) 0.5633(3) 0.32260(14)
H16 H 0.3883 0.6138 0.3319
H17 H 0.3043 0.4625 0.3235
C1_2 C -0.4134(4) 0.5576(5) 0.1913(2)
C2_2 C -0.3437(5) 0.6308(5) 0.2613(2)
C3_2 C -0.1797(5) 0.6120(5) 0.2343(2)
C4_2 C -0.2523(5) 0.5424(5) 0.1628(2)
C5_2 C 0.2461(4) -0.0177(5) 0.2297(2)
C6_2 C 0.1610(5) 0.0152(5) 0.1660(2)
C7_2 C 0.1727(5) 0.1908(5) 0.1983(2)
C8_2 C 0.2585(5) 0.1584(5) 0.2614(2)
Cd1_2 Cd -0.79958(3) 0.58677(3) 0.213477(14)
Cd1_3 Cd 1.20042(3) 0.58677(3) 0.213477(14)
Cd1_4 Cd 0.20042(3) 1.58677(3) 0.213477(14)
Cd1_5 Cd 0.20042(3) -0.41323(3) 0.213477(14)
O1_2 O -0.5547(3) 0.5188(4) 0.16326(15)
O2_2 O -0.3971(3) 0.6868(4) 0.32095(14)
O3_2 O -0.0418(3) 0.6460(4) 0.26271(15)
O3_3 O -1.0418(3) 0.6460(4) 0.26271(15)
O4_2 O -0.2033(3) 0.4917(4) 0.10227(15)
O5_2 O 0.2900(4) -0.1449(3) 0.24996(16)
O5_3 O -0.7100(4) 0.8551(3) 0.24996(16)
O6_2 O 0.1051(4) -0.0693(4) 0.10906(15)
O7_2 O 0.1231(3) 0.3154(3) 0.17825(15)
O7_3 O -0.8769(3) 0.3154(3) 0.17825(15)
O8_2 O 0.3176(4) 0.2423(3) 0.31827(15)
O11_2 O -0.8898(3) 0.6038(4) 0.10232(15)
H14_2 H -0.9833 0.5557 0.0931
H15_2 H -0.8947 0.7041 0.0998
O12_2 O -0.7040(3) 0.5633(3) 0.32260(14)
H16_2 H -0.6117 0.6138 0.3319
H17_2 H -0.6957 0.4625 0.3235
C9 C 0.3852(4) 0.4440(4) 0.49500(19)
C10 C 0.4510(4) 0.6102(4) 0.4957(2)
C11 C 0.0469(5) 0.8320(5) 0.6170(2)
H1 H -0.0296 0.8665 0.5871
C12 C 0.1024(5) 0.9398(5) 0.6784(2)
H2 H 0.0616 1.0436 0.6897
C13 C 0.2196(5) 0.8934(5) 0.7235(2)
C14 C 0.2747(6) 0.7372(5) 0.7025(2)
H3 H 0.3547 0.7007 0.7300
C15 C 0.2120(5) 0.6363(5) 0.6413(2)
H4 H 0.2505 0.5316 0.6288
C16 C 0.2790(6) 1.0082(6) 0.7902(2)
H5 H 0.1963 1.0860 0.8042
H6 H 0.3744 1.0697 0.7801
C17 C 0.3209(6) 0.9315(5) 0.8519(2)
H7 H 0.4151 0.8667 0.8418
H8 H 0.2312 0.8590 0.8593
C18 C 0.3567(6) 1.0634(6) 0.9186(2)
C19 C 0.5026(6) 1.1498(6) 0.9326(3)
H9 H 0.5849 1.1259 0.9011
C20 C 0.5298(6) 1.2707(7) 0.9921(3)
H10 H 0.6303 1.3274 1.0015
C21 C 0.2667(6) 1.2282(7) 1.0240(3)
H11 H 0.1852 1.2580 1.0554
C22 C 0.2366(6) 1.1044(6) 0.9659(2)
H12 H 0.1357 1.0481 0.9583
Cd2 Cd 0.0000 0.5000 0.5000
Cd3 Cd 0.5000 1.0000 0.5000
N1 N 0.0985(4) 0.6805(4) 0.59860(17)
N2 N 0.4113(5) 1.3061(5) 1.03606(19)
H13 H 0.4317 1.3923 1.0696
O9 O 0.2458(3) 0.3752(3) 0.48930(14)
O10 O 0.3880(3) 0.7411(3) 0.49018(15)
O13 O 0.3739(5) 1.0070(4) 0.39391(17)
H18 H 0.4211 0.9456 0.3609
H19 H 0.3781 1.1049 0.3875
O14 O 0.7219(3) 0.8945(4) 0.44485(16)
H20 H 0.7739 0.8431 0.4717
H21 H 0.6920 0.8294 0.4061
O15 O 0.0637(4) 0.6990(4) 0.43256(17)
H22 H 0.0485 0.6570 0.3886
H23 H 0.1623 0.7328 0.4415
C9A C 0.6148(4) 0.5560(4) 0.50500(19)
C10A C 0.5490(4) 0.3898(4) 0.5043(2)
C11A C -0.0469(5) 0.1680(5) 0.3830(2)
H1A H 0.0296 0.1335 0.4129
C12A C -0.1024(5) 0.0602(5) 0.3216(2)
H2A H -0.0616 -0.0436 0.3103
C13A C -0.2196(5) 0.1066(5) 0.2765(2)
C14A C -0.2747(6) 0.2628(5) 0.2975(2)
H3A H -0.3547 0.2993 0.2700
C15A C -0.2120(5) 0.3637(5) 0.3587(2)
H4A H -0.2505 0.4684 0.3712
C16A C -0.2790(6) -0.0082(6) 0.2098(2)
H5A H -0.1963 -0.0860 0.1958
H6A H -0.3744 -0.0697 0.2199
C17A C -0.3209(6) 0.0685(5) 0.1481(2)
H7A H -0.4151 0.1333 0.1582
H8A H -0.2312 0.1410 0.1407
C18A C -0.3567(6) -0.0634(6) 0.0814(2)
C19A C -0.5026(6) -0.1498(6) 0.0674(3)
H9A H -0.5849 -0.1259 0.0989
C20A C -0.5298(6) -0.2707(7) 0.0079(3)
H10A H -0.6303 -0.3274 -0.0015
C21A C -0.2667(6) -0.2282(7) -0.0240(3)
H11A H -0.1852 -0.2580 -0.0554
C22A C -0.2366(6) -0.1044(6) 0.0341(2)
H12A H -0.1357 -0.0481 0.0417
Cd2_2 Cd 1.0000 0.5000 0.5000
Cd3_2 Cd 0.5000 0.0000 0.5000
N1A N -0.0985(4) 0.3195(4) 0.40140(17)
N2A N -0.4113(5) -0.3061(5) -0.03606(19)
H13A H -0.4317 -0.3923 -0.0696
O9A O 0.7542(3) 0.6248(3) 0.51070(14)
O9A_2 O -0.2458(3) 0.6248(3) 0.51070(14)
O10A O 0.6120(3) 0.2589(3) 0.50982(15)
O10A_2 O 0.6120(3) 1.2589(3) 0.50982(15)
O13A O 0.6261(5) 0.9930(4) 0.60609(17)
H18A H 0.5789 1.0544 0.6391
H19A H 0.6219 0.8951 0.6125
O14A O 0.2781(3) 1.1055(4) 0.55515(16)
H20A H 0.2261 1.1569 0.5283
H21A H 0.3080 1.1706 0.5939
O15A O -0.0637(4) 0.3010(4) 0.56744(17)
H22A H -0.0485 0.3430 0.6114
H23A H -0.1623 0.2672 0.5585
loop_
_geom_bond_atom_site_label_1
_geom_bond_atom_site_label_2
_geom_bond_site_symmetry_1
_geom_bond_site_symmetry_2
C1 C2 1_555 1_555
C2 C3 1_555 1_555
C3 C4 1_555 1_555
C4 C1 1_555 1_555
C5 C6 1_555 1_555
C6 C7 1_555 1_555
C7 C8 1_555 1_555
C8 C5 1_555 1_555
C9 C10 1_555 1_555
C10 O10 1_555 1_555
C11 H1 1_555 1_555
C12 C11 1_555 1_555
H2 C12 1_555 1_555
C13 C12 1_555 1_555
C14 C13 1_555 1_555
H3 C14 1_555 1_555
C15 C14 1_555 1_555
H4 C15 1_555 1_555
C16 C13 1_555 1_555
H5 C16 1_555 1_555
H6 C16 1_555 1_555
C17 C16 1_555 1_555
H7 C17 1_555 1_555
H8 C17 1_555 1_555
C18 C17 1_555 1_555
C19 C18 1_555 1_555
H9 C19 1_555 1_555
C20 C19 1_555 1_555
H10 C20 1_555 1_555
C21 H11 1_555 1_555
C22 C18 1_555 1_555
H12 C22 1_555 1_555
Cd1 O1 1_555 1_555
Cd2 N1 1_555 1_555
Cd3 O10 1_555 1_555
N1 C11 1_555 1_555
N2 C20 1_555 1_555
H13 N2 1_555 1_555
O1 C1 1_555 1_555
O2 C2 1_555 1_555
O3 C3 1_555 1_555
O4 C4 1_555 1_555
O5 C5 1_555 1_555
O6 C6 1_555 1_555
O7 C7 1_555 1_555
O8 C8 1_555 1_555
O9 C9 1_555 1_555
O11 Cd1 1_555 1_555
H14 O11 1_555 1_555
H15 O11 1_555 1_555
O12 Cd1 1_555 1_555
H16 O12 1_555 1_555
H17 O12 1_555 1_555
O13 Cd3 1_555 1_555
H18 O13 1_555 1_555
H19 O13 1_555 1_555
O14 Cd3 1_555 1_555
H20 O14 1_555 1_555
H21 O14 1_555 1_555
O15 Cd2 1_555 1_555
H22 O15 1_555 1_555
H23 O15 1_555 1_555
C1_2 C2_2 1_555 1_555
C2_2 C3_2 1_555 1_555
C3_2 C4_2 1_555 1_555
C4_2 C1_2 1_555 1_555
C5_2 C6_2 1_555 1_555
C6_2 C7_2 1_555 1_555
C7_2 C8_2 1_555 1_555
C8_2 C5_2 1_555 1_555
C9A C10 1_555 1_555
C10A C9 1_555 1_555
C11A H1A 1_555 1_555
C12A C11A 1_555 1_555
H2A C12A 1_555 1_555
C13A C12A 1_555 1_555
C14A C13A 1_555 1_555
H3A C14A 1_555 1_555
C15A C14A 1_555 1_555
H4A C15A 1_555 1_555
C16A C13A 1_555 1_555
H5A C16A 1_555 1_555
H6A C16A 1_555 1_555
C17A C16A 1_555 1_555
H7A C17A 1_555 1_555
H8A C17A 1_555 1_555
C18A C17A 1_555 1_555
C19A C18A 1_555 1_555
H9A C19A 1_555 1_555
C20A C19A 1_555 1_555
H10A C20A 1_555 1_555
C21A H11A 1_555 1_555
C22A C18A 1_555 1_555
H12A C22A 1_555 1_555
Cd1_2 O1_2 1_555 1_555
Cd1_3 O3 1_555 1_555
Cd1_4 O7 1_555 1_555
Cd1_5 O5_2 1_555 1_555
Cd2_2 O9A 1_555 1_555
Cd3_2 O10A 1_555 1_555
N1A Cd2 1_555 1_555
N2A C20A 1_555 1_555
H13A N2A 1_555 1_555
O1_2 C1_2 1_555 1_555
O2_2 C2_2 1_555 1_555
O3_2 Cd1 1_555 1_555
O3_3 Cd1_2 1_555 1_555
O4_2 C4_2 1_555 1_555
O5_2 C5_2 1_555 1_555
O5_3 Cd1_2 1_555 1_555
O6_2 C6_2 1_555 1_555
O7_2 Cd1 1_555 1_555
O7_3 Cd1_2 1_555 1_555
O8_2 C8_2 1_555 1_555
O9A C9A 1_555 1_555
O9A_2 Cd2 1_555 1_555
O10A C10A 1_555 1_555
O10A_2 Cd3 1_555 1_555
O11_2 Cd1_2 1_555 1_555
H14_2 O11_2 1_555 1_555
H15_2 O11_2 1_555 1_555
O12_2 Cd1_2 1_555 1_555
H16_2 O12_2 1_555 1_555
H17_2 O12_2 1_555 1_555
O13A Cd3 1_555 1_555
H18A O13A 1_555 1_555
H19A O13A 1_555 1_555
O14A Cd3 1_555 1_555
H20A O14A 1_555 1_555
H21A O14A 1_555 1_555
O15A Cd2 1_555 1_555
H22A O15A 1_555 1_555
H23A O15A 1_555 1_555
C15 N1 1_555 1_555
C21 C22 1_555 1_555
C21 N2 1_555 1_555
Cd1 O5 1_555 1_555
Cd2 O9 1_555 1_555
C3_2 O3_2 1_555 1_555
C7_2 O7_2 1_555 1_555
C9A C10A 1_555 1_555
C11A N1A 1_555 1_555
C15A N1A 1_555 1_555
C21A C22A 1_555 1_555
C21A N2A 1_555 1_555

#END
