
#######################################################################
#
#                 Cambridge Crystallographic Data Centre
#                                CCDC 
#
#######################################################################
#
# If this CIF has been generated from an entry in the Cambridge 
# Structural Database, then it will include bibliographic, chemical, 
# crystal, experimental, refinement or atomic coordinate data resulting 
# from the CCDC's data processing and validation procedures.
#
#######################################################################

data_BONMOH
_symmetry_cell_setting           triclinic
_symmetry_space_group_name_H-M   'P -1'
_symmetry_Int_Tables_number      2
_space_group_name_Hall           '-P 1'
loop_
_symmetry_equiv_pos_site_id
_symmetry_equiv_pos_as_xyz
1 x,y,z
2 -x,-y,-z
_cell_length_a                   8.0087(16)
_cell_length_b                   8.1857(16)
_cell_length_c                   8.3767(17)
_cell_angle_alpha                85.300(2)
_cell_angle_beta                 71.493(2)
_cell_angle_gamma                83.153(2)
_cell_volume                     516.469
loop_
_atom_site_label
_atom_site_type_symbol
_atom_site_fract_x
_atom_site_fract_y
_atom_site_fract_z
C1 C 0.5429(4) 0.1065(4) 0.5239(4)
C2 C 0.6259(4) -0.0601(4) 0.4817(4)
C3 C 0.4476(4) 0.5243(4) 0.9024(4)
C4 C 0.6272(4) 0.4812(4) 0.9134(4)
Cd1 Cd 0.5000 0.5000 0.5000
O1 O 0.5969(3) 0.2351(2) 0.5538(3)
O2 O 0.7785(3) -0.1312(3) 0.4577(3)
O3 O 0.3800(3) 0.5545(3) 0.7845(2)
O4 O 0.7777(3) 0.4595(3) 0.8119(3)
O5 O 0.7778(3) 0.5409(3) 0.4881(3)
H1 H 0.7790 0.6387 0.5144
H2 H 0.8114 0.4731 0.5569
C1A C 0.4571(4) -0.1065(4) 0.4761(4)
C2A C 0.3741(4) 0.0601(4) 0.5183(4)
C3A C 0.5524(4) 0.4757(4) 1.0976(4)
C4A C 0.3728(4) 0.5188(4) 1.0866(4)
Cd1_2 Cd 0.5000 -0.5000 0.5000
Cd1_3 Cd 0.5000 0.5000 1.5000
O1A O 0.4031(3) -0.2351(2) 0.4462(3)
O1A_2 O 0.4031(3) 0.7649(2) 0.4462(3)
O2A O 0.2215(3) 0.1312(3) 0.5423(3)
O3A O 0.6200(3) 0.4455(3) 1.2155(2)
O3A_2 O 0.6200(3) 0.4455(3) 0.2155(2)
O4A O 0.2223(3) 0.5405(3) 1.1881(3)
O5A O 0.2222(3) 0.4591(3) 0.5119(3)
H1A H 0.2210 0.3613 0.4856
H2A H 0.1886 0.5269 0.4431
C5 C 1.0093(5) 0.8264(5) 0.7377(5)
H3 H 1.0805 0.8207 0.6259
C6 C 0.8601(4) 0.9331(5) 0.7789(4)
H4 H 0.8324 1.0045 0.6967
C7 C 0.7501(4) 0.9349(4) 0.9430(4)
C8 C 0.5792(4) 1.0466(4) 0.9925(5)
H5 H 0.5852 1.1365 0.9085
H6 H 0.5641 1.0934 1.0995
C9 C 0.7987(5) 0.8290(5) 1.0613(4)
H7 H 0.7256 0.8259 1.1725
C10 C 0.9534(5) 0.7291(5) 1.0156(5)
H8 H 0.9879 0.6607 1.0961
N1 N 1.0541(3) 0.7301(4) 0.8565(4)
H9 H 1.1513 0.6665 0.8288
C5A C -0.0093(5) 1.1736(5) 1.2623(5)
H3A H -0.0805 1.1793 1.3741
C6A C 0.1399(4) 1.0669(5) 1.2211(4)
H4A H 0.1676 0.9955 1.3033
C7A C 0.2499(4) 1.0651(4) 1.0570(4)
C8A C 0.4208(4) 0.9534(4) 1.0075(5)
H5A H 0.4148 0.8635 1.0915
H6A H 0.4359 0.9066 0.9005
C9A C 0.2013(5) 1.1710(5) 0.9387(4)
H7A H 0.2744 1.1741 0.8275
C10A C 0.0466(5) 1.2709(5) 0.9844(5)
H8A H 0.0121 1.3393 0.9039
N1A N -0.0541(3) 1.2699(4) 1.1435(4)
H9A H -0.1513 1.3335 1.1712
loop_
_geom_bond_atom_site_label_1
_geom_bond_atom_site_label_2
_geom_bond_site_symmetry_1
_geom_bond_site_symmetry_2
C1 C2 1_555 1_555
C2 O2 1_555 1_555
C3 C4 1_555 1_555
C4 O4 1_555 1_555
Cd1 O1 1_555 1_555
O1 C1 1_555 1_555
O3 C3 1_555 1_555
O5 Cd1 1_555 1_555
H1 O5 1_555 1_555
H2 O5 1_555 1_555
C5 H3 1_555 1_555
C6 C5 1_555 1_555
H4 C6 1_555 1_555
C7 C6 1_555 1_555
C8 C7 1_555 1_555
H5 C8 1_555 1_555
H6 C8 1_555 1_555
C9 C7 1_555 1_555
H7 C9 1_555 1_555
C10 C9 1_555 1_555
H8 C10 1_555 1_555
N1 C5 1_555 1_555
H9 N1 1_555 1_555
C1A C2 1_555 1_555
C2A C1 1_555 1_555
C3A C4 1_555 1_555
C4A C3 1_555 1_555
Cd1_2 O1A 1_555 1_555
Cd1_3 O3A 1_555 1_555
O1A C1A 1_555 1_555
O1A_2 Cd1 1_555 1_555
O2A C2A 1_555 1_555
O3A C3A 1_555 1_555
O3A_2 Cd1 1_555 1_555
O4A C4A 1_555 1_555
O5A Cd1 1_555 1_555
H1A O5A 1_555 1_555
H2A O5A 1_555 1_555
C5A H3A 1_555 1_555
C6A C5A 1_555 1_555
H4A C6A 1_555 1_555
C7A C6A 1_555 1_555
C8A C8 1_555 1_555
H5A C8A 1_555 1_555
H6A C8A 1_555 1_555
C9A C7A 1_555 1_555
H7A C9A 1_555 1_555
C10A C9A 1_555 1_555
H8A C10A 1_555 1_555
N1A C5A 1_555 1_555
H9A N1A 1_555 1_555
Cd1 O3 1_555 1_555
C10 N1 1_555 1_555
C1A C2A 1_555 1_555
C3A C4A 1_555 1_555
C7A C8A 1_555 1_555
C10A N1A 1_555 1_555

#END
