
#######################################################################
#
#                 Cambridge Crystallographic Data Centre
#                                CCDC 
#
#######################################################################
#
# If this CIF has been generated from an entry in the Cambridge 
# Structural Database, then it will include bibliographic, chemical, 
# crystal, experimental, refinement or atomic coordinate data resulting 
# from the CCDC's data processing and validation procedures.
#
#######################################################################

data_BONMAT
_symmetry_cell_setting           orthorhombic
_symmetry_space_group_name_H-M   'F d d 2'
_symmetry_Int_Tables_number      43
_space_group_name_Hall           'F 2 -2d'
loop_
_symmetry_equiv_pos_site_id
_symmetry_equiv_pos_as_xyz
1 x,y,z
2 -x,-y,z
3 1/4-x,1/4+y,1/4+z
4 1/4+x,1/4-y,1/4+z
5 x,1/2+y,1/2+z
6 -x,1/2-y,1/2+z
7 1/4-x,3/4+y,3/4+z
8 1/4+x,3/4-y,3/4+z
9 1/2+x,y,1/2+z
10 1/2-x,-y,1/2+z
11 3/4-x,1/4+y,3/4+z
12 3/4+x,1/4-y,3/4+z
13 1/2+x,1/2+y,z
14 1/2-x,1/2-y,z
15 3/4-x,3/4+y,1/4+z
16 3/4+x,3/4-y,1/4+z
_cell_length_a                   37.129(7)
_cell_length_b                   14.135(4)
_cell_length_c                   26.074(3)
_cell_angle_alpha                90
_cell_angle_beta                 90
_cell_angle_gamma                90
_cell_volume                     13684.1
loop_
_atom_site_label
_atom_site_type_symbol
_atom_site_fract_x
_atom_site_fract_y
_atom_site_fract_z
Ni1 Ni 0.269528(16) 0.13562(4) 0.25024(2)
O1 O 0.2500 0.2500 0.29271(18)
O2 O 0.29389(10) 0.2251(3) 0.19709(14)
O3 O 0.27927(10) 0.3757(2) 0.21409(15)
O4 O 0.43306(10) 0.3840(3) 0.04025(15)
C1 C 0.32979(14) 0.3451(4) 0.1623(2)
N1 N 0.46131(13) -0.2095(4) 0.0998(2)
O5 O 0.43668(12) 0.5126(3) 0.08885(19)
N2 N 0.32826(15) -0.0614(4) 0.1639(2)
N3 N 0.28904(12) 0.0286(3) 0.20500(19)
N4 N 0.50021(13) -0.2913(4) 0.05474(19)
C2 C 0.37735(16) 0.3128(4) 0.1017(2)
H1 H 0.3893 0.2703 0.0805
C3 C 0.38894(14) 0.4057(4) 0.1041(2)
C4 C 0.34080(16) 0.4386(4) 0.1638(2)
H2 H 0.3275 0.4816 0.1832
C5 C 0.34801(16) 0.2818(4) 0.1306(2)
H3 H 0.3406 0.2190 0.1288
C6 C 0.36283(18) -0.0992(5) 0.1478(3)
C7 C 0.29813(13) 0.3110(4) 0.19387(19)
C8 C 0.32298(17) 0.0069(5) 0.2002(3)
H4 H 0.3414 0.0346 0.2192
C9 C 0.37064(16) 0.4700(4) 0.1378(3)
H5 H 0.3789 0.5316 0.1420
C10 C 0.46568(14) -0.2740(4) 0.0634(2)
H6 H 0.4469 -0.3035 0.0461
C11 C 0.42255(14) 0.4411(4) 0.0757(2)
C12 C 0.4249(2) -0.0824(6) 0.1382(3)
H7 H 0.4456 -0.0472 0.1441
C13 C 0.3920(2) -0.0454(6) 0.1512(3)
H8 H 0.3902 0.0169 0.1623
C14 C 0.42772(16) -0.1701(5) 0.1166(3)
C15 C 0.39598(19) -0.2264(5) 0.1131(4)
H9 H 0.3970 -0.2879 0.1005
C16 C 0.3638(2) -0.1876(6) 0.1290(3)
H10 H 0.3426 -0.2227 0.1266
C17 C 0.51783(19) -0.2378(6) 0.0888(3)
H11 H 0.5428 -0.2337 0.0914
C18 C 0.2945(2) -0.0843(6) 0.1451(3)
H12 H 0.2889 -0.1292 0.1202
C19 C 0.2717(2) -0.0283(6) 0.1703(3)
H13 H 0.2470 -0.0279 0.1649
C20 C 0.4942(2) -0.1903(6) 0.1190(3)
H14 H 0.4996 -0.1523 0.1471
Ni1M Ni 0.230472(16) 0.36438(4) 0.25024(2)
Ni1J Ni 0.480472(16) 0.38562(4) 0.00024(2)
Ni1G Ni 0.519528(16) -0.38562(4) 0.00024(2)
Ni1K Ni 0.019528(16) 0.11438(4) 0.00024(2)
Ni1O Ni 0.019528(16) -0.38562(4) 0.50024(2)
O2M O 0.20611(10) 0.2749(3) 0.19709(14)
O3M O 0.22073(10) 0.1243(2) 0.21409(15)
O4M O 0.06694(10) 0.1160(3) 0.04025(15)
O4N O 0.31694(10) 0.1340(3) 0.29025(15)
O4O O 0.18306(10) 0.3660(3) 0.29025(15)
C1M C 0.17021(14) 0.1549(4) 0.1623(2)
N1O N 0.21131(13) -0.0405(4) 0.3498(2)
O5M O 0.06332(12) -0.0126(3) 0.08885(19)
N2O N 0.07826(15) -0.1886(4) 0.4139(2)
N3O N 0.03904(12) -0.2786(3) 0.45500(19)
N3M N 0.21096(12) 0.4714(3) 0.20500(19)
N4O N 0.25021(13) 0.0413(4) 0.30474(19)
N4N N 0.24979(13) 0.4587(4) 0.30474(19)
C2M C 0.12265(16) 0.1872(4) 0.1017(2)
H1M H 0.1107 0.2297 0.0805
C3M C 0.11106(14) 0.0943(4) 0.1041(2)
C4M C 0.15920(16) 0.0614(4) 0.1638(2)
H2M H 0.1725 0.0184 0.1832
C5M C 0.15199(16) 0.2182(4) 0.1306(2)
H3M H 0.1594 0.2810 0.1288
C6O C 0.11283(18) -0.1508(5) 0.3978(3)
C7M C 0.20187(13) 0.1890(4) 0.19387(19)
C8O C 0.07298(17) -0.2569(5) 0.4502(3)
H4O H 0.0914 -0.2846 0.4692
C9M C 0.12936(16) 0.0300(4) 0.1378(3)
H5M H 0.1211 -0.0316 0.1420
C10O C 0.21568(14) 0.0240(4) 0.3134(2)
H6O H 0.1969 0.0535 0.2961
C11M C 0.07745(14) 0.0589(4) 0.0757(2)
C12O C 0.1749(2) -0.1676(6) 0.3882(3)
H7O H 0.1956 -0.2028 0.3941
C13O C 0.1420(2) -0.2046(6) 0.4012(3)
H8O H 0.1402 -0.2669 0.4123
C14O C 0.17772(16) -0.0799(5) 0.3666(3)
C15O C 0.14598(19) -0.0236(5) 0.3631(4)
H9O H 0.1470 0.0379 0.3505
C16O C 0.1138(2) -0.0624(6) 0.3790(3)
H10O H 0.0926 -0.0273 0.3766
C17O C 0.26783(19) -0.0122(6) 0.3388(3)
H11O H 0.2928 -0.0163 0.3414
C18O C 0.0445(2) -0.1657(6) 0.3951(3)
H12O H 0.0389 -0.1208 0.3702
C19O C 0.0217(2) -0.2217(6) 0.4203(3)
H13O H -0.0030 -0.2221 0.4149
C20O C 0.2442(2) -0.0597(6) 0.3690(3)
H14O H 0.2496 -0.0977 0.3971
loop_
_geom_bond_atom_site_label_1
_geom_bond_atom_site_label_2
_geom_bond_site_symmetry_1
_geom_bond_site_symmetry_2
Ni1 O1 1_555 1_555
O1 Ni1M 1_555 1_555
O2 Ni1 1_555 1_555
O3 C7 1_555 1_555
O4 C11 1_555 1_555
C1 C4 1_555 1_555
N1 C10 1_555 1_555
O5 C11 1_555 1_555
N2 C6 1_555 1_555
N3 Ni1 1_555 1_555
N4 C10 1_555 1_555
C2 H1 1_555 1_555
C3 C2 1_555 1_555
C4 H2 1_555 1_555
C5 C1 1_555 1_555
H3 C5 1_555 1_555
C6 C13 1_555 1_555
C7 O2 1_555 1_555
C8 N2 1_555 1_555
H4 C8 1_555 1_555
C9 C3 1_555 1_555
H5 C9 1_555 1_555
C10 H6 1_555 1_555
C11 C3 1_555 1_555
C12 H7 1_555 1_555
C13 C12 1_555 1_555
H8 C13 1_555 1_555
C14 N1 1_555 1_555
C15 C14 1_555 1_555
H9 C15 1_555 1_555
C16 C6 1_555 1_555
H10 C16 1_555 1_555
C17 N4 1_555 1_555
H11 C17 1_555 1_555
C18 N2 1_555 1_555
H12 C18 1_555 1_555
C19 N3 1_555 1_555
H13 C19 1_555 1_555
C20 N1 1_555 1_555
H14 C20 1_555 1_555
Ni1M O3 1_555 1_555
Ni1J O4 1_555 1_555
Ni1G N4 1_555 1_555
Ni1K O4M 1_555 1_555
Ni1O N3O 1_555 1_555
O2M Ni1M 1_555 1_555
O3M Ni1 1_555 1_555
O4M C11M 1_555 1_555
O4N Ni1 1_555 1_555
O4O Ni1M 1_555 1_555
C1M C4M 1_555 1_555
N1O C10O 1_555 1_555
O5M C11M 1_555 1_555
N2O C6O 1_555 1_555
N3O C8O 1_555 1_555
N3M Ni1M 1_555 1_555
N4O Ni1 1_555 1_555
N4N Ni1M 1_555 1_555
C2M H1M 1_555 1_555
C3M C2M 1_555 1_555
C4M H2M 1_555 1_555
C5M C1M 1_555 1_555
H3M C5M 1_555 1_555
C6O C13O 1_555 1_555
C7M O2M 1_555 1_555
C8O N2O 1_555 1_555
H4O C8O 1_555 1_555
C9M C3M 1_555 1_555
H5M C9M 1_555 1_555
C10O N4O 1_555 1_555
H6O C10O 1_555 1_555
C11M C3M 1_555 1_555
C12O H7O 1_555 1_555
C13O C12O 1_555 1_555
H8O C13O 1_555 1_555
C14O N1O 1_555 1_555
C15O C14O 1_555 1_555
H9O C15O 1_555 1_555
C16O C6O 1_555 1_555
H10O C16O 1_555 1_555
C17O N4O 1_555 1_555
H11O C17O 1_555 1_555
C18O N2O 1_555 1_555
H12O C18O 1_555 1_555
C19O N3O 1_555 1_555
H13O C19O 1_555 1_555
C20O N1O 1_555 1_555
H14O C20O 1_555 1_555
C1 C7 1_555 1_555
N3 C8 1_555 1_555
C2 C5 1_555 1_555
C4 C9 1_555 1_555
C12 C14 1_555 1_555
C15 C16 1_555 1_555
C17 C20 1_555 1_555
C18 C19 1_555 1_555
O3M C7M 1_555 1_555
C1M C7M 1_555 1_555
C2M C5M 1_555 1_555
C4M C9M 1_555 1_555
C12O C14O 1_555 1_555
C15O C16O 1_555 1_555
C17O C20O 1_555 1_555
C18O C19O 1_555 1_555

#END
