
#######################################################################
#
#                 Cambridge Crystallographic Data Centre
#                                CCDC 
#
#######################################################################
#
# If this CIF has been generated from an entry in the Cambridge 
# Structural Database, then it will include bibliographic, chemical, 
# crystal, experimental, refinement or atomic coordinate data resulting 
# from the CCDC's data processing and validation procedures.
#
#######################################################################

data_BONNIC
_symmetry_cell_setting           monoclinic
_symmetry_space_group_name_H-M   'C c'
_symmetry_Int_Tables_number      9
_space_group_name_Hall           'C -2yc'
loop_
_symmetry_equiv_pos_site_id
_symmetry_equiv_pos_as_xyz
1 x,y,z
2 x,-y,1/2+z
3 1/2+x,1/2+y,z
4 1/2+x,1/2-y,1/2+z
_cell_length_a                   14.6453(12)
_cell_length_b                   16.9993(13)
_cell_length_c                   10.4297(8)
_cell_angle_alpha                90
_cell_angle_beta                 120.913(1)
_cell_angle_gamma                90
_cell_volume                     2227.73
loop_
_atom_site_label
_atom_site_type_symbol
_atom_site_fract_x
_atom_site_fract_y
_atom_site_fract_z
Cd1 Cd 0.979209(14) 0.954043(7) 0.749061(16)
N1 N 0.91772(15) 1.08306(11) 0.7188(2)
N2 N 1.01632(16) 0.83498(11) 0.6781(2)
N3 N 0.6588(2) 0.47187(15) -0.0696(3)
O1 O 0.99556(14) 1.01376(10) 0.56117(19)
O2 O 0.94470(14) 1.11540(9) 0.40513(18)
O3 O 0.80262(14) 1.26586(10) 0.34479(18)
O4 O 0.97424(15) 1.29092(10) 0.5061(2)
C1 C 0.87625(19) 1.11510(14) 0.7950(3)
H1 H 0.8751 1.0848 0.8707
C2 C 0.8353(2) 1.19014(13) 0.7679(3)
H2 H 0.8048 1.2109 0.8220
C3 C 0.83964(19) 1.23463(14) 0.6600(3)
H3 H 0.8124 1.2868 0.6402
C4 C 0.88386(18) 1.20328(13) 0.5801(2)
C5 C 0.8884(2) 1.25653(17) 0.4658(3)
C6 C 0.91992(18) 1.12569(13) 0.6109(2)
C7 C 0.95757(19) 1.08103(14) 0.5202(3)
C8 C 1.0668(2) 0.82881(14) 0.6028(3)
H4 H 1.0920 0.8755 0.5811
C9 C 1.0843(2) 0.75724(17) 0.5544(3)
H5 H 1.1178 0.7557 0.4970
C10 C 1.05216(19) 0.68755(14) 0.5909(3)
C11 C 1.0025(2) 0.69489(15) 0.6720(3)
H6 H 0.9803 0.6491 0.7008
C12 C 0.9846(2) 0.76800(14) 0.7119(3)
H7 H 0.9483 0.7712 0.7655
C13 C 1.0652(2) 0.60893(14) 0.5359(3)
H8 H 1.0800 0.5680 0.6117
H9 H 1.1261 0.6108 0.5196
C14 C 0.9636(2) 0.58835(15) 0.3897(3)
H10 H 0.9465 0.6321 0.3182
H11 H 0.9044 0.5839 0.4092
C15 C 0.9699(2) 0.51194(14) 0.3169(3)
H12 H 1.0256 0.5168 0.2904
H13 H 0.9895 0.4679 0.3884
C16 C 0.8642(2) 0.49504(14) 0.1783(3)
C17 C 0.8216(2) 0.54472(13) 0.0535(3)
H14 H 0.8626 0.5873 0.0508
C18 C 0.7202(2) 0.53165(14) -0.0653(3)
H15 H 0.6925 0.5666 -0.1480
C19 C 0.7016(2) 0.42186(15) 0.0470(3)
H16 H 0.6609 0.3775 0.0436
C20 C 0.8017(2) 0.43171(14) 0.1715(3)
H17 H 0.8278 0.3954 0.2521
O5 O 0.78978(19) 0.93909(13) 0.5793(3)
H18 H 0.768(2) 0.8939(8) 0.567(3)
H19 H 0.772(3) 0.9583(16) 0.497(2)
Cd1B Cd 0.479209(14) 0.454043(7) -0.250939(16)
Cd1A Cd 0.979209(14) 1.045957(7) 0.249061(16)
N3B N 1.1588(2) 0.97187(15) 0.9304(3)
O2A O 0.94470(14) 0.88460(9) 0.90513(18)
O6 O 0.70025(18) 0.79123(13) 0.5427(2)
H20 H 0.6360(8) 0.787(2) 0.510(3)
H21 H 0.732(2) 0.7729(19) 0.6282(18)
O7 O 0.71761(17) 1.03030(12) 0.3188(2)
H22 H 0.740(3) 1.0319(15) 0.261(3)
H23 H 0.686(2) 1.0710(12) 0.313(3)
O8 O 0.63127(16) 1.17677(12) 0.2976(2)
H24 H 0.6800(15) 1.2065(15) 0.313(3)
H25 H 0.5807(15) 1.1841(17) 0.2130(18)
loop_
_geom_bond_atom_site_label_1
_geom_bond_atom_site_label_2
_geom_bond_site_symmetry_1
_geom_bond_site_symmetry_2
Cd1 N1 1_555 1_555
N1 C1 1_555 1_555
N2 Cd1 1_555 1_555
N3 C18 1_555 1_555
O1 Cd1 1_555 1_555
O2 C7 1_555 1_555
O3 C5 1_555 1_555
O4 C5 1_555 1_555
C1 H1 1_555 1_555
C2 C1 1_555 1_555
H2 C2 1_555 1_555
C3 C2 1_555 1_555
H3 C3 1_555 1_555
C4 C3 1_555 1_555
C5 C4 1_555 1_555
C6 N1 1_555 1_555
C7 O1 1_555 1_555
C8 N2 1_555 1_555
H4 C8 1_555 1_555
C9 C8 1_555 1_555
H5 C9 1_555 1_555
C10 C9 1_555 1_555
C11 C10 1_555 1_555
H6 C11 1_555 1_555
C12 N2 1_555 1_555
H7 C12 1_555 1_555
C13 C10 1_555 1_555
H8 C13 1_555 1_555
H9 C13 1_555 1_555
C14 C13 1_555 1_555
H10 C14 1_555 1_555
H11 C14 1_555 1_555
C15 C14 1_555 1_555
H12 C15 1_555 1_555
H13 C15 1_555 1_555
C16 C15 1_555 1_555
C17 C16 1_555 1_555
H14 C17 1_555 1_555
C18 C17 1_555 1_555
H15 C18 1_555 1_555
C19 N3 1_555 1_555
H16 C19 1_555 1_555
C20 C16 1_555 1_555
H17 C20 1_555 1_555
O5 Cd1 1_555 1_555
H18 O5 1_555 1_555
H19 O5 1_555 1_555
O6 H20 1_555 1_555
H21 O6 1_555 1_555
O7 H22 1_555 1_555
H23 O7 1_555 1_555
O8 H24 1_555 1_555
H25 O8 1_555 1_555
Cd1B N3 1_555 1_555
Cd1A O2 1_555 1_555
N3B Cd1 1_555 1_555
O2A Cd1 1_555 1_555
C4 C6 1_555 1_555
C6 C7 1_555 1_555
C11 C12 1_555 1_555
C19 C20 1_555 1_555

#END
