
#######################################################################
#
#                 Cambridge Crystallographic Data Centre
#                                CCDC 
#
#######################################################################
#
# If this CIF has been generated from an entry in the Cambridge 
# Structural Database, then it will include bibliographic, chemical, 
# crystal, experimental, refinement or atomic coordinate data resulting 
# from the CCDC's data processing and validation procedures.
#
#######################################################################

data_BONNAU
_symmetry_cell_setting           monoclinic
_symmetry_space_group_name_H-M   'P 21/c'
_symmetry_Int_Tables_number      14
_space_group_name_Hall           '-P 2ybc'
loop_
_symmetry_equiv_pos_site_id
_symmetry_equiv_pos_as_xyz
1 x,y,z
2 -x,1/2+y,1/2-z
3 -x,-y,-z
4 x,1/2-y,1/2+z
_cell_length_a                   9.9445(3)
_cell_length_b                   22.9894(9)
_cell_length_c                   15.6684(7)
_cell_angle_alpha                90
_cell_angle_beta                 93.096(3)
_cell_angle_gamma                90
_cell_volume                     3576.85
loop_
_atom_site_label
_atom_site_type_symbol
_atom_site_fract_x
_atom_site_fract_y
_atom_site_fract_z
U1 U 0.77130(3) 0.838950(13) 0.362933(19)
U2 U 0.37599(3) 0.587056(12) 0.386878(18)
O1 O 0.7766(6) 0.8693(3) 0.4661(4)
O2 O 0.7663(6) 0.8096(3) 0.2589(4)
O3 O 0.5259(5) 0.5844(2) 0.3330(4)
O4 O 0.2247(6) 0.5942(2) 0.4386(4)
O5 O 0.6319(6) 0.9198(2) 0.3063(4)
O6 O 0.5253(5) 0.8460(2) 0.3587(4)
O7 O 0.0201(6) 0.8461(3) 0.3620(4)
O8 O -0.0974(6) 0.9209(3) 0.3144(5)
O9 O 0.6625(5) 0.7481(2) 0.4098(4)
O10 O 0.8840(6) 0.7505(3) 0.4177(4)
O11 O 0.5095(6) 0.5868(2) 0.5141(4)
O12 O 0.6066(6) 0.5108(2) 0.5766(4)
O13 O 0.4162(5) 0.6899(2) 0.4199(4)
H1 H 0.4873 0.7132 0.4161
H2 H 0.3451 0.7197 0.4165
O14 O 0.2856(5) 0.6430(2) 0.2685(3)
H3 H 0.3430 0.6586 0.2354
H4 H 0.2077 0.6430 0.2465
O15 O 0.2639(6) 0.5256(2) 0.2736(4)
H5 H 0.2191 0.5404 0.2346
H6 H 0.2900 0.4891 0.2635
C1 C 0.3945(10) 0.9271(5) 0.3073(8)
H9 H 0.3993 0.9594 0.3482
C2 C 0.2704(8) 0.8939(4) 0.3290(7)
H10 H 0.2788 0.8823 0.3886
H11 H 0.2639 0.8588 0.2946
C3 C 0.1421(11) 0.9293(6) 0.3137(8)
H12 H 0.1478 0.9599 0.3573
C4 C 0.1343(14) 0.9607(7) 0.2311(9)
H13 H 0.0570 0.9865 0.2293
H14 H 0.1207 0.9328 0.1850
C5 C 0.2578(12) 0.9955(6) 0.2169(10)
H15 H 0.2675 1.0259 0.2597
H16 H 0.2495 1.0138 0.1611
C6 C 0.3840(13) 0.9558(7) 0.2224(8)
H17 H 0.3769 0.9266 0.1777
H18 H 0.4641 0.9788 0.2145
C7 C 0.5224(9) 0.8955(4) 0.3238(6)
C8 C 0.0160(9) 0.8970(4) 0.3297(7)
C9 C 0.7761(8) 0.6607(3) 0.4587(5)
H19 H 0.7125 0.6381 0.4220
C10 C 0.7242(9) 0.6616(4) 0.5485(6)
H20 H 0.6336 0.6774 0.5460
H21 H 0.7808 0.6870 0.5844
C11 C 0.7226(9) 0.6007(4) 0.5888(6)
H22 H 0.7099 0.6068 0.6497
C12 C 0.8600(10) 0.5721(4) 0.5838(8)
H23 H 0.9252 0.5932 0.6203
H24 H 0.8554 0.5327 0.6053
C13 C 0.9076(10) 0.5708(4) 0.4942(9)
H25 H 0.8468 0.5470 0.4586
H26 H 0.9963 0.5532 0.4948
C14 C 0.9138(9) 0.6320(4) 0.4561(7)
H27 H 0.9803 0.6551 0.4886
H28 H 0.9403 0.6298 0.3976
C15 C 0.7746(8) 0.7222(4) 0.4269(6)
C16 C 0.6049(8) 0.5636(3) 0.5557(5)
U1_2 U -0.22870(3) 0.838950(13) 0.362933(19)
U2B U 0.62401(3) 0.412944(12) 0.613122(18)
O7_2 O 1.0201(6) 0.8461(3) 0.3620(4)
O8_2 O 0.9026(6) 0.9209(3) 0.3144(5)
O12B O 0.3934(6) 0.4892(2) 0.4234(4)
O16 O 0.4727(8) 0.6912(4) 0.1719(5)
O17 O 0.3513(11) 0.6026(4) 0.0665(6)
O18 O 0.1146(10) 0.5654(4) 0.1341(6)
O19 O 0.0331(9) 0.6717(5) 0.2077(6)
O20 O 0.2201(17) 0.7570(6) 0.1900(9)
C17 C 0.5248(16) 0.6725(9) 0.0954(10)
H29 H 0.6217 0.6778 0.0976
H30 H 0.4859 0.6950 0.0478
C18 C 0.4899(17) 0.6082(9) 0.0835(12)
H31 H 0.5377 0.5923 0.0364
H32 H 0.5170 0.5867 0.1349
C19 C 0.2939(17) 0.5439(6) 0.0612(8)
H33 H 0.3249 0.5211 0.1105
H34 H 0.3213 0.5244 0.0100
C20 C 0.1427(17) 0.5501(9) 0.0586(12)
H35 H 0.1128 0.5794 0.0172
H36 H 0.0995 0.5135 0.0433
C21 C -0.0247(16) 0.5924(7) 0.1422(13)
H37 H -0.0894 0.5732 0.1031
H38 H -0.0533 0.5868 0.1999
C22 C -0.0212(18) 0.6566(7) 0.1222(12)
H39 H 0.0393 0.6661 0.0777
H40 H -0.1098 0.6729 0.1089
C23 C -0.018(3) 0.7251(10) 0.2373(15)
H41 H 0.0054 0.7331 0.2970
H42 H -0.1142 0.7302 0.2247
C24 C 0.0685(13) 0.7562(7) 0.1762(10)
H43 H 0.0389 0.7964 0.1739
H44 H 0.0480 0.7398 0.1200
C25 C 0.3050(14) 0.7753(8) 0.1610(11)
H45 H 0.3010 0.8166 0.1738
H46 H 0.2841 0.7720 0.1000
C26 C 0.4502(14) 0.7599(7) 0.1726(11)
H47 H 0.4865 0.7757 0.2265
H48 H 0.4989 0.7775 0.1272
O21 O 0.1862(7) 0.7521(3) 0.4233(5)
H7 H 0.1776 0.7891 0.4066
H8 H 0.0928 0.7419 0.4324
loop_
_geom_bond_atom_site_label_1
_geom_bond_atom_site_label_2
_geom_bond_site_symmetry_1
_geom_bond_site_symmetry_2
U1 O1 1_555 1_555
U2 O3 1_555 1_555
O2 U1 1_555 1_555
O4 U2 1_555 1_555
O5 U1 1_555 1_555
O6 U1 1_555 1_555
O7 C8 1_555 1_555
O8 C8 1_555 1_555
O9 U1 1_555 1_555
O10 U1 1_555 1_555
O11 U2 1_555 1_555
O12 C16 1_555 1_555
O13 U2 1_555 1_555
H1 O13 1_555 1_555
H2 O13 1_555 1_555
O14 U2 1_555 1_555
H3 O14 1_555 1_555
H4 O14 1_555 1_555
O15 U2 1_555 1_555
H5 O15 1_555 1_555
H6 O15 1_555 1_555
O16 C17 1_555 1_555
O17 C18 1_555 1_555
O18 C20 1_555 1_555
O19 C22 1_555 1_555
O20 C24 1_555 1_555
O21 H7 1_555 1_555
H8 O21 1_555 1_555
C1 H9 1_555 1_555
C2 C1 1_555 1_555
H10 C2 1_555 1_555
H11 C2 1_555 1_555
C3 C2 1_555 1_555
H12 C3 1_555 1_555
C4 C3 1_555 1_555
H13 C4 1_555 1_555
H14 C4 1_555 1_555
C5 C4 1_555 1_555
H15 C5 1_555 1_555
H16 C5 1_555 1_555
C6 C1 1_555 1_555
H17 C6 1_555 1_555
H18 C6 1_555 1_555
C7 O5 1_555 1_555
C8 C3 1_555 1_555
C9 H19 1_555 1_555
C10 C9 1_555 1_555
H20 C10 1_555 1_555
H21 C10 1_555 1_555
C11 C10 1_555 1_555
H22 C11 1_555 1_555
C12 C11 1_555 1_555
H23 C12 1_555 1_555
H24 C12 1_555 1_555
C13 C12 1_555 1_555
H25 C13 1_555 1_555
H26 C13 1_555 1_555
C14 C9 1_555 1_555
H27 C14 1_555 1_555
H28 C14 1_555 1_555
C15 O9 1_555 1_555
C16 O11 1_555 1_555
C17 H29 1_555 1_555
H30 C17 1_555 1_555
C18 C17 1_555 1_555
H31 C18 1_555 1_555
H32 C18 1_555 1_555
C19 O17 1_555 1_555
H33 C19 1_555 1_555
H34 C19 1_555 1_555
C20 C19 1_555 1_555
H35 C20 1_555 1_555
H36 C20 1_555 1_555
C21 O18 1_555 1_555
H37 C21 1_555 1_555
H38 C21 1_555 1_555
C22 C21 1_555 1_555
H39 C22 1_555 1_555
H40 C22 1_555 1_555
C23 O19 1_555 1_555
H41 C23 1_555 1_555
H42 C23 1_555 1_555
C24 C23 1_555 1_555
H43 C24 1_555 1_555
H44 C24 1_555 1_555
C25 O20 1_555 1_555
H45 C25 1_555 1_555
H46 C25 1_555 1_555
C26 O16 1_555 1_555
H47 C26 1_555 1_555
H48 C26 1_555 1_555
U1_2 O7 1_555 1_555
U2B O12 1_555 1_555
O7_2 U1 1_555 1_555
O8_2 U1 1_555 1_555
O12B U2 1_555 1_555
O6 C7 1_555 1_555
O8 U1_2 1_555 1_555
O10 C15 1_555 1_555
C1 C7 1_555 1_555
C5 C6 1_555 1_555
C9 C15 1_555 1_555
C11 C16 1_555 1_555
C13 C14 1_555 1_555
C25 C26 1_555 1_555

#END
