
#######################################################################
#
#                 Cambridge Crystallographic Data Centre
#                                CCDC 
#
#######################################################################
#
# If this CIF has been generated from an entry in the Cambridge 
# Structural Database, then it will include bibliographic, chemical, 
# crystal, experimental, refinement or atomic coordinate data resulting 
# from the CCDC's data processing and validation procedures.
#
#######################################################################

data_BONNOI
_symmetry_cell_setting           tetragonal
_symmetry_space_group_name_H-M   'P 43 21 2'
_symmetry_Int_Tables_number      96
_space_group_name_Hall           'P 4nw 2abw'
loop_
_symmetry_equiv_pos_site_id
_symmetry_equiv_pos_as_xyz
1 x,y,z
2 -x,-y,1/2+z
3 1/2-y,1/2+x,3/4+z
4 1/2+y,1/2-x,1/4+z
5 1/2-x,1/2+y,3/4-z
6 1/2+x,1/2-y,1/4-z
7 y,x,-z
8 -y,-x,1/2-z
_cell_length_a                   12.5412(9)
_cell_length_b                   12.5412(9)
_cell_length_c                   27.227(4)
_cell_angle_alpha                90
_cell_angle_beta                 90
_cell_angle_gamma                90
_cell_volume                     4282.31
loop_
_atom_site_label
_atom_site_type_symbol
_atom_site_fract_x
_atom_site_fract_y
_atom_site_fract_z
Zn1 Zn 0.76603(7) 0.22990(7) 0.03753(3)
N1 N 0.7096(5) 0.1600(5) 0.10493(19)
N2 N 0.7806(6) 0.0969(5) -0.0081(2)
N3 N 0.7888(5) -0.6452(5) -0.0140(2)
O1 O 0.6043(4) 0.2483(5) 0.03295(17)
O2 O 0.4508(5) 0.2368(7) 0.07115(18)
O3 O 0.4145(4) 0.2520(5) 0.18518(18)
O4 O 0.3739(5) 0.0875(6) 0.1595(2)
C1 C 0.6032(6) 0.1733(6) 0.1117(3)
C2 C 0.5464(6) 0.2240(7) 0.0687(3)
C3 C 0.5531(6) 0.1444(6) 0.1558(2)
C4 C 0.4352(7) 0.1605(8) 0.1656(3)
C5 C 0.6188(7) 0.0937(7) 0.1906(3)
H1 H 0.5884 0.0698 0.2206
C6 C 0.7231(8) 0.0781(7) 0.1826(3)
H2 H 0.7664 0.0432 0.2063
C7 C 0.7658(7) 0.1141(6) 0.1393(3)
H3 H 0.8401 0.1051 0.1340
C8 C 0.8723(8) 0.0692(8) -0.0279(3)
H4 H 0.9340 0.1096 -0.0200
C9 C 0.8827(10) -0.0171(9) -0.0600(3)
H5 H 0.9507 -0.0342 -0.0732
C10 C 0.7982(10) -0.0756(8) -0.0722(3)
C11 C 0.7024(9) -0.0485(8) -0.0500(3)
H6 H 0.6406 -0.0899 -0.0566
C12 C 0.6955(8) 0.0372(7) -0.0186(3)
H7 H 0.6287 0.0542 -0.0041
C13 C 0.8098(9) -0.1707(8) -0.1041(3)
H8 H 0.7450 -0.1792 -0.1245
H9 H 0.8713 -0.1606 -0.1264
C14 C 0.8262(9) -0.2671(7) -0.0746(3)
H10 H 0.7666 -0.2744 -0.0510
H11 H 0.8929 -0.2596 -0.0555
C15 C 0.8329(9) -0.3711(8) -0.1069(3)
H12 H 0.7758 -0.3702 -0.1320
H13 H 0.9025 -0.3736 -0.1240
C16 C 0.8207(9) -0.4691(7) -0.0744(3)
C17 C 0.7233(8) -0.4909(7) -0.0524(3)
H14 H 0.6646 -0.4445 -0.0578
C18 C 0.7106(7) -0.5797(7) -0.0227(3)
H15 H 0.6430 -0.5931 -0.0082
C19 C 0.8829(6) -0.6281(6) -0.0358(3)
H16 H 0.9388 -0.6776 -0.0300
C20 C 0.9032(7) -0.5419(7) -0.0663(3)
H17 H 0.9710 -0.5326 -0.0812
Zn1_2 Zn 0.76603(7) -0.77010(7) 0.03753(3)
Zn1E Zn 0.26603(7) 0.27010(7) 0.21247(3)
N3_2 N 0.7888(5) 0.3548(5) -0.0140(2)
O3E O 0.9145(4) 0.2480(5) 0.06482(18)
O5 O 0.7517(7) -0.6389(7) 0.2109(3)
H18 H 0.8008 -0.6830 0.2089
O6 O 0.6708(9) -0.5080(12) 0.1056(5)
H19 H 0.7220 -0.4777 0.0932
H20 H 0.6228 -0.5134 0.0851
O7 O 0.4873(7) -0.5330(6) 0.0512(4)
H21 H 0.5021 -0.6013 0.0449
O8 O 0.5744(13) -0.5957(13) 0.1729(6)
loop_
_geom_bond_atom_site_label_1
_geom_bond_atom_site_label_2
_geom_bond_site_symmetry_1
_geom_bond_site_symmetry_2
Zn1 N1 1_555 1_555
N1 C1 1_555 1_555
N2 Zn1 1_555 1_555
N3 C18 1_555 1_555
O1 Zn1 1_555 1_555
O2 C2 1_555 1_555
O3 C4 1_555 1_555
O4 C4 1_555 1_555
C1 C2 1_555 1_555
C2 O1 1_555 1_555
C3 C1 1_555 1_555
C4 C3 1_555 1_555
C5 C3 1_555 1_555
H1 C5 1_555 1_555
C6 C5 1_555 1_555
H2 C6 1_555 1_555
C7 N1 1_555 1_555
H3 C7 1_555 1_555
C8 N2 1_555 1_555
H4 C8 1_555 1_555
C9 C8 1_555 1_555
H5 C9 1_555 1_555
C10 C9 1_555 1_555
C11 C10 1_555 1_555
H6 C11 1_555 1_555
C12 N2 1_555 1_555
H7 C12 1_555 1_555
C13 C10 1_555 1_555
H8 C13 1_555 1_555
H9 C13 1_555 1_555
C14 C13 1_555 1_555
H10 C14 1_555 1_555
H11 C14 1_555 1_555
C15 C14 1_555 1_555
H12 C15 1_555 1_555
H13 C15 1_555 1_555
C16 C15 1_555 1_555
C17 C16 1_555 1_555
H14 C17 1_555 1_555
C18 C17 1_555 1_555
H15 C18 1_555 1_555
C19 N3 1_555 1_555
H16 C19 1_555 1_555
C20 C16 1_555 1_555
H17 C20 1_555 1_555
O5 H18 1_555 1_555
O6 H19 1_555 1_555
H20 O6 1_555 1_555
O7 H21 1_555 1_555
Zn1_2 N3 1_555 1_555
Zn1E O3 1_555 1_555
N3_2 Zn1 1_555 1_555
O3E Zn1 1_555 1_555
C6 C7 1_555 1_555
C11 C12 1_555 1_555
C19 C20 1_555 1_555

#END
