
#######################################################################
#
#                 Cambridge Crystallographic Data Centre
#                                CCDC 
#
#######################################################################
#
# If this CIF has been generated from an entry in the Cambridge 
# Structural Database, then it will include bibliographic, chemical, 
# crystal, experimental, refinement or atomic coordinate data resulting 
# from the CCDC's data processing and validation procedures.
#
#######################################################################

data_BONRUT
_symmetry_cell_setting           monoclinic
_symmetry_space_group_name_H-M   'C 2/c'
_symmetry_Int_Tables_number      15
_space_group_name_Hall           '-C 2yn'
loop_
_symmetry_equiv_pos_site_id
_symmetry_equiv_pos_as_xyz
1 x,y,z
2 -x,y,1/2-z
3 1/2+x,1/2+y,z
4 1/2-x,1/2+y,1/2-z
5 -x,-y,-z
6 x,-y,1/2+z
7 1/2-x,1/2-y,-z
8 1/2+x,1/2-y,1/2+z
_cell_length_a                   21.284(11)
_cell_length_b                   5.350(3)
_cell_length_c                   22.979(11)
_cell_angle_alpha                90
_cell_angle_beta                 90.612(8)
_cell_angle_gamma                90
_cell_volume                     2616.46
loop_
_atom_site_label
_atom_site_type_symbol
_atom_site_fract_x
_atom_site_fract_y
_atom_site_fract_z
O1 O 0.22892(10) -0.0360(4) 0.22333(9)
O2 O 0.12120(11) -0.1184(4) 0.20654(10)
Cd1 Cd 0.171248(10) 0.60985(4) 0.268369(8)
S1 S 0.17300(3) 0.04685(14) 0.18754(3)
O3 O 0.15796(11) 0.3087(4) 0.20024(9)
O4 O 0.18533(11) 0.0190(5) 0.12606(8)
N1 N 0.17632(11) 0.8029(5) 0.35842(10)
N2 N 0.09921(12) 0.4174(5) 0.32691(11)
N3 N 0.06000(13) 0.2839(6) 0.53515(11)
N4 N 0.12202(14) 0.5995(6) 0.56063(12)
C1 C 0.21287(15) 0.9936(6) 0.37231(13)
H1 H 0.2329 1.0800 0.3427
C2 C 0.22261(16) 1.0705(6) 0.42969(15)
H2 H 0.2487 1.2055 0.4381
C3 C 0.19349(16) 0.9457(6) 0.47305(14)
H3 H 0.1997 0.9943 0.5115
C4 C 0.15411(13) 0.7436(6) 0.45991(12)
C5 C 0.14654(13) 0.6767(6) 0.40089(12)
C6 C 0.10453(13) 0.4727(6) 0.38405(12)
C7 C 0.07148(14) 0.3372(6) 0.42636(13)
C8 C 0.08264(15) 0.3996(6) 0.48587(14)
C9 C 0.12158(16) 0.5947(6) 0.50076(13)
C10 C 0.03026(16) 0.1477(6) 0.40763(15)
H4 H 0.0075 0.0560 0.4346
C11 C 0.02402(16) 0.0994(6) 0.34935(16)
H5 H -0.0038 -0.0223 0.3360
C12 C 0.06007(14) 0.2354(7) 0.31035(13)
H6 H 0.0567 0.1977 0.2709
C13 C 0.08525(18) 0.4129(6) 0.57763(14)
H7 H 0.0781 0.3771 0.6166
H8 H 0.1366(13) 0.701(6) 0.5788(12)
O1_2 O 0.22892(10) 0.9640(4) 0.22333(9)
O1C O 0.27108(10) 0.4640(4) 0.27667(9)
O2_2 O 0.12120(11) 0.8816(4) 0.20654(10)
Cd1_2 Cd 0.171248(10) -0.39015(4) 0.268369(8)
Cd1C Cd 0.328752(10) 0.10985(4) 0.231631(8)
loop_
_geom_bond_atom_site_label_1
_geom_bond_atom_site_label_2
_geom_bond_site_symmetry_1
_geom_bond_site_symmetry_2
O1 S1 1_555 1_555
O2 S1 1_555 1_555
Cd1 O3 1_555 1_555
S1 O3 1_555 1_555
O4 S1 1_555 1_555
N1 Cd1 1_555 1_555
N2 Cd1 1_555 1_555
N3 C8 1_555 1_555
N4 C9 1_555 1_555
C1 N1 1_555 1_555
H1 C1 1_555 1_555
C2 C1 1_555 1_555
H2 C2 1_555 1_555
C3 C2 1_555 1_555
H3 C3 1_555 1_555
C4 C3 1_555 1_555
C5 N1 1_555 1_555
C6 N2 1_555 1_555
C7 C6 1_555 1_555
C8 C7 1_555 1_555
C9 C4 1_555 1_555
C10 C7 1_555 1_555
H4 C10 1_555 1_555
C11 C10 1_555 1_555
H5 C11 1_555 1_555
C12 N2 1_555 1_555
H6 C12 1_555 1_555
C13 N3 1_555 1_555
H7 C13 1_555 1_555
H8 N4 1_555 1_555
O1_2 Cd1 1_555 1_555
O1C Cd1 1_555 1_555
O2_2 Cd1 1_555 1_555
Cd1_2 O1 1_555 1_555
Cd1C O1 1_555 1_555
O2 Cd1_2 1_555 1_555
N4 C13 1_555 1_555
C4 C5 1_555 1_555
C5 C6 1_555 1_555
C8 C9 1_555 1_555
C11 C12 1_555 1_555
O1C Cd1C 1_555 1_555

#END
