
#######################################################################
#
#                 Cambridge Crystallographic Data Centre
#                                CCDC 
#
#######################################################################
#
# If this CIF has been generated from an entry in the Cambridge 
# Structural Database, then it will include bibliographic, chemical, 
# crystal, experimental, refinement or atomic coordinate data resulting 
# from the CCDC's data processing and validation procedures.
#
#######################################################################

data_BONTOO
_symmetry_cell_setting           monoclinic
_symmetry_space_group_name_H-M   'P 21/c'
_symmetry_Int_Tables_number      14
_space_group_name_Hall           '-P 2ybc'
loop_
_symmetry_equiv_pos_site_id
_symmetry_equiv_pos_as_xyz
1 x,y,z
2 -x,1/2+y,1/2-z
3 -x,-y,-z
4 x,1/2-y,1/2+z
_cell_length_a                   7.859(2)
_cell_length_b                   26.512(7)
_cell_length_c                   9.813(3)
_cell_angle_alpha                90
_cell_angle_beta                 115.54(2)
_cell_angle_gamma                90
_cell_volume                     1844.82
loop_
_atom_site_label
_atom_site_type_symbol
_atom_site_fract_x
_atom_site_fract_y
_atom_site_fract_z
Zn1 Zn 0.00996(5) -0.249461(12) 0.81089(4)
Zn2 Zn 0.10376(5) -0.104058(11) 0.82503(4)
O1 O -0.3087(3) -0.24157(6) 0.6763(2)
O2 O -0.0162(3) -0.09955(7) 0.5911(2)
H1 H 0.0592 -0.1098 0.5602
H2 H -0.1182 -0.1133 0.5366
O3 O -0.0413(3) -0.17496(7) 0.8096(2)
O4 O -0.2348(3) -0.11060(8) 0.7579(3)
O5 O -0.6906(4) -0.13678(11) 0.6373(3)
O6 O -0.6595(3) -0.14472(8) 0.8724(2)
O7 O -0.7545(3) -0.25054(8) 0.5024(2)
O8 O -0.8953(3) -0.25675(7) 0.6539(2)
O9 O -0.0965(3) -0.31106(8) 0.8568(2)
O10 O -0.3248(3) -0.34454(8) 0.9037(2)
N1 N 0.1580(4) -0.08535(9) 1.0476(3)
N2 N 0.1875(4) -0.02794(9) 0.8395(3)
C1 C -0.3745(4) -0.19203(9) 0.6904(3)
H3 H -0.4648 -0.1800 0.5911
C2 C -0.4722(4) -0.19723(10) 0.7948(3)
H4 H -0.3776 -0.1950 0.9000
C3 C -0.5526(4) -0.25188(9) 0.7620(3)
H5 H -0.5539 -0.2669 0.8528
C4 C -0.4100(4) -0.27952(10) 0.7186(3)
H6 H -0.4818 -0.3001 0.6291
C5 C -0.2092(4) -0.15632(10) 0.7556(3)
C6 C -0.6195(4) -0.15584(10) 0.7642(3)
C7 C -0.7486(4) -0.25297(9) 0.6321(3)
C8 C -0.2664(4) -0.31403(10) 0.8386(3)
C9 C 0.1433(5) -0.11727(13) 1.1475(4)
H7 H 0.0944 -0.1493 1.1150
C10 C 0.1970(6) -0.10478(16) 1.2953(4)
H8 H 0.1886 -0.1281 1.3628
C11 C 0.2633(7) -0.05720(18) 1.3418(5)
H9 H 0.3015 -0.0480 1.4422
C12 C 0.2740(6) -0.02247(15) 1.2399(4)
H10 H 0.3143 0.0104 1.2694
C13 C 0.2226(4) -0.03842(11) 1.0920(3)
C14 C 0.2408(4) -0.00609(11) 0.9757(3)
C15 C 0.3117(5) 0.04267(11) 1.0024(4)
H11 H 0.3476 0.0575 1.0967
C16 C 0.3282(5) 0.06882(12) 0.8877(5)
H12 H 0.3752 0.1016 0.9042
C17 C 0.2758(5) 0.04674(13) 0.7496(4)
H13 H 0.2884 0.0638 0.6716
C18 C 0.2038(5) -0.00148(12) 0.7291(4)
H14 H 0.1648 -0.0164 0.6346
Zn1C Zn -0.99004(5) -0.250539(12) 0.31089(4)
Zn1_2 Zn -0.99004(5) -0.249461(12) 0.81089(4)
Zn2_2 Zn -0.89624(5) -0.104058(11) 0.82503(4)
O6_2 O 0.3405(3) -0.14472(8) 0.8724(2)
O7C O 0.2455(3) -0.24946(8) 1.0024(2)
O8_2 O 0.1047(3) -0.25675(7) 0.6539(2)
loop_
_geom_bond_atom_site_label_1
_geom_bond_atom_site_label_2
_geom_bond_site_symmetry_1
_geom_bond_site_symmetry_2
Zn1 O1 1_555 1_555
Zn2 O2 1_555 1_555
O1 C1 1_555 1_555
O2 H1 1_555 1_555
H2 O2 1_555 1_555
O3 Zn1 1_555 1_555
O4 Zn2 1_555 1_555
O5 C6 1_555 1_555
O6 C6 1_555 1_555
O7 C7 1_555 1_555
O8 C7 1_555 1_555
O9 Zn1 1_555 1_555
O10 C8 1_555 1_555
N1 Zn2 1_555 1_555
N2 Zn2 1_555 1_555
C1 H3 1_555 1_555
C2 C1 1_555 1_555
H4 C2 1_555 1_555
C3 C2 1_555 1_555
H5 C3 1_555 1_555
C4 O1 1_555 1_555
H6 C4 1_555 1_555
C5 O3 1_555 1_555
C6 C2 1_555 1_555
C7 C3 1_555 1_555
C8 O9 1_555 1_555
C9 N1 1_555 1_555
H7 C9 1_555 1_555
C10 C9 1_555 1_555
H8 C10 1_555 1_555
C11 C10 1_555 1_555
H9 C11 1_555 1_555
C12 C11 1_555 1_555
H10 C12 1_555 1_555
C13 N1 1_555 1_555
C14 N2 1_555 1_555
C15 C14 1_555 1_555
H11 C15 1_555 1_555
C16 C15 1_555 1_555
H12 C16 1_555 1_555
C17 C16 1_555 1_555
H13 C17 1_555 1_555
C18 N2 1_555 1_555
H14 C18 1_555 1_555
Zn1C O7 1_555 1_555
Zn1_2 O8 1_555 1_555
Zn2_2 O6 1_555 1_555
O6_2 Zn2 1_555 1_555
O7C Zn1 1_555 1_555
O8_2 Zn1 1_555 1_555
Zn2 O3 1_555 1_555
O4 C5 1_555 1_555
C1 C5 1_555 1_555
C3 C4 1_555 1_555
C4 C8 1_555 1_555
C12 C13 1_555 1_555
C13 C14 1_555 1_555
C17 C18 1_555 1_555

#END
