
#######################################################################
#
#                 Cambridge Crystallographic Data Centre
#                                CCDC 
#
#######################################################################
#
# If this CIF has been generated from an entry in the Cambridge 
# Structural Database, then it will include bibliographic, chemical, 
# crystal, experimental, refinement or atomic coordinate data resulting 
# from the CCDC's data processing and validation procedures.
#
#######################################################################

data_BONTUU
_symmetry_cell_setting           triclinic
_symmetry_space_group_name_H-M   'P -1'
_symmetry_Int_Tables_number      2
_space_group_name_Hall           '-P 1'
loop_
_symmetry_equiv_pos_site_id
_symmetry_equiv_pos_as_xyz
1 x,y,z
2 -x,-y,-z
_cell_length_a                   6.4623(2)
_cell_length_b                   11.4945(5)
_cell_length_c                   13.3377(5)
_cell_angle_alpha                88.919(2)
_cell_angle_beta                 80.536(2)
_cell_angle_gamma                80.3040(10)
_cell_volume                     963.252
loop_
_atom_site_label
_atom_site_type_symbol
_atom_site_fract_x
_atom_site_fract_y
_atom_site_fract_z
Zn1 Zn 0.07886(14) 0.64896(7) 0.80599(6)
N1 N -0.0821(10) 0.6232(5) 0.6813(5)
O1 O 0.6308(8) 0.2263(4) 0.8574(4)
O2 O 1.0065(10) -0.0076(6) 0.8451(5)
H1 H 1.0473 0.0478 0.8126
C1 C 0.4549(12) 0.2355(6) 0.8020(5)
H2 H 0.4875 0.2796 0.7395
Zn2 Zn 0.70641(14) 0.04081(7) 0.91193(7)
N2 N 0.2336(10) 0.7465(5) 0.6910(5)
O3 O 0.2774(9) 0.1095(5) 0.7252(4)
C2 C 0.2600(11) 0.3055(6) 0.8695(5)
H3 H 0.1393 0.2631 0.8748
O4 O 0.5485(9) 0.0225(5) 0.7986(4)
C3 C 0.3300(11) 0.3111(6) 0.9749(5)
H4 H 0.2660 0.3864 1.0090
O5 O 0.3196(10) 0.4713(5) 0.7603(5)
C4 C 0.5734(12) 0.3049(6) 0.9432(5)
H5 H 0.6049 0.3833 0.9232
O6 O 0.0253(9) 0.4905(5) 0.8721(4)
C5 C 0.4234(11) 0.1134(7) 0.7743(5)
O7 O 0.1632(9) 0.2278(5) 1.1254(4)
C6 C 0.1986(12) 0.4300(6) 0.8296(6)
O8 O 0.3471(9) 0.1045(4) 1.0049(4)
C7 C 0.2738(11) 0.2089(6) 1.0412(5)
O9 O 0.7773(9) 0.1473(5) 1.0227(4)
C8 C 0.7009(12) 0.2559(7) 1.0258(6)
O10 O 0.7152(10) 0.3278(5) 1.0913(5)
C9 C -0.2350(13) 0.5609(7) 0.6758(6)
H6 H -0.2889 0.5233 0.7343
C10 C -0.3194(14) 0.5483(8) 0.5883(7)
H7 H -0.4253 0.5027 0.5883
C11 C -0.2421(14) 0.6055(8) 0.5004(7)
H8 H -0.2952 0.5986 0.4405
C12 C -0.0828(12) 0.6737(8) 0.5043(6)
C13 C 0.0036(14) 0.7393(9) 0.4167(7)
H9 H -0.0484 0.7371 0.3558
C14 C 0.1575(15) 0.8026(8) 0.4235(7)
H10 H 0.2071 0.8461 0.3679
C15 C 0.2470(14) 0.8043(7) 0.5150(6)
C16 C 0.4163(15) 0.8623(7) 0.5235(7)
H11 H 0.4799 0.9008 0.4678
C17 C 0.4878(14) 0.8624(7) 0.6139(7)
H12 H 0.6013 0.9005 0.6200
C18 C 0.3912(13) 0.8056(7) 0.6971(6)
H13 H 0.4383 0.8090 0.7591
C19 C 0.1602(13) 0.7461(6) 0.6011(6)
C20 C -0.0063(12) 0.6779(7) 0.5948(6)
H14 H 1.102(9) -0.032(6) 0.880(6)
Zn1A Zn -0.07886(14) 0.35104(7) 1.19401(6)
Zn1A_2 Zn 0.92114(14) 0.35104(7) 1.19401(6)
Zn2A Zn 0.29359(14) -0.04081(7) 1.08807(7)
O7A O -0.1632(9) 0.7722(5) 0.8746(4)
O8A O 0.6529(9) -0.1045(4) 0.9951(4)
O10A O 0.2848(10) 0.6722(5) 0.9087(5)
loop_
_geom_bond_atom_site_label_1
_geom_bond_atom_site_label_2
_geom_bond_site_symmetry_1
_geom_bond_site_symmetry_2
Zn1 N1 1_555 1_555
N1 C9 1_555 1_555
O1 C1 1_555 1_555
O2 H1 1_555 1_555
C1 H2 1_555 1_555
Zn2 O1 1_555 1_555
N2 Zn1 1_555 1_555
O3 C5 1_555 1_555
C2 C1 1_555 1_555
H3 C2 1_555 1_555
O4 Zn2 1_555 1_555
C3 C2 1_555 1_555
H4 C3 1_555 1_555
O5 Zn1 1_555 1_555
C4 O1 1_555 1_555
H5 C4 1_555 1_555
O6 Zn1 1_555 1_555
C5 C1 1_555 1_555
O7 C7 1_555 1_555
C6 C2 1_555 1_555
O8 Zn2 1_555 1_555
C7 C3 1_555 1_555
O9 Zn2 1_555 1_555
C8 C4 1_555 1_555
O10 C8 1_555 1_555
C9 H6 1_555 1_555
C10 C9 1_555 1_555
H7 C10 1_555 1_555
C11 C10 1_555 1_555
H8 C11 1_555 1_555
C12 C11 1_555 1_555
C13 C12 1_555 1_555
H9 C13 1_555 1_555
C14 C13 1_555 1_555
H10 C14 1_555 1_555
C15 C14 1_555 1_555
C16 C15 1_555 1_555
H11 C16 1_555 1_555
C17 C16 1_555 1_555
H12 C17 1_555 1_555
C18 N2 1_555 1_555
H13 C18 1_555 1_555
C19 N2 1_555 1_555
C20 N1 1_555 1_555
H14 O2 1_555 1_555
Zn1A O7 1_555 1_555
Zn1A_2 O10 1_555 1_555
Zn2A O8 1_555 1_555
O7A Zn1 1_555 1_555
O8A Zn2 1_555 1_555
O10A Zn1 1_555 1_555
O2 Zn2 1_555 1_555
O4 C5 1_555 1_555
C3 C4 1_555 1_555
O5 C6 1_555 1_555
O6 C6 1_555 1_555
O8 C7 1_555 1_555
O9 C8 1_555 1_555
C12 C20 1_555 1_555
C15 C19 1_555 1_555
C17 C18 1_555 1_555
C19 C20 1_555 1_555
Zn2A O8A 1_555 1_555

#END
