
#######################################################################
#
#                 Cambridge Crystallographic Data Centre
#                                CCDC 
#
#######################################################################
#
# If this CIF has been generated from an entry in the Cambridge 
# Structural Database, then it will include bibliographic, chemical, 
# crystal, experimental, refinement or atomic coordinate data resulting 
# from the CCDC's data processing and validation procedures.
#
#######################################################################

data_BONVEH
_symmetry_cell_setting           monoclinic
_symmetry_space_group_name_H-M   'P 21/n'
_symmetry_Int_Tables_number      14
_space_group_name_Hall           '-P 2yn'
loop_
_symmetry_equiv_pos_site_id
_symmetry_equiv_pos_as_xyz
1 x,y,z
2 1/2-x,1/2+y,1/2-z
3 -x,-y,-z
4 1/2+x,1/2-y,1/2+z
_cell_length_a                   12.249(5)
_cell_length_b                   13.351(5)
_cell_length_c                   14.806(5)
_cell_angle_alpha                90
_cell_angle_beta                 94.588(8)
_cell_angle_gamma                90
_cell_volume                     2413.56
loop_
_atom_site_label
_atom_site_type_symbol
_atom_site_fract_x
_atom_site_fract_y
_atom_site_fract_z
In1 In 0.246859(14) 0.342406(16) -0.004077(11)
C1 C 0.1014(2) 0.5337(2) -0.19356(19)
C2 C 0.1626(2) 0.5868(2) -0.25305(19)
H1 H 0.2385 0.5813 -0.2487
C3 C 0.1098(3) 0.6482(2) -0.3189(2)
C4 C -0.0036(3) 0.6566(2) -0.3251(2)
H2 H -0.0389 0.6967 -0.3698
C5 C -0.0647(3) 0.6052(3) -0.2645(2)
H3 H -0.1405 0.6118 -0.2681
C6 C -0.0123(3) 0.5443(2) -0.1989(2)
H4 H -0.0530 0.5102 -0.1582
C7 C 0.1563(2) 0.4652(2) -0.12432(18)
C8 C 0.1750(3) 0.7084(2) -0.3803(2)
C9 C 0.3950(2) 0.5315(2) 0.18919(19)
C10 C 0.3317(2) 0.5871(2) 0.2449(2)
H5 H 0.2557 0.5832 0.2374
C11 C 0.3816(3) 0.6484(2) 0.3118(2)
C12 C 0.4946(3) 0.6543(2) 0.3230(3)
H6 H 0.5281 0.6946 0.3684
C13 C 0.5583(3) 0.6001(3) 0.2664(3)
H7 H 0.6342 0.6050 0.2734
C14 C 0.5083(3) 0.5389(3) 0.1996(2)
H8 H 0.5508 0.5027 0.1618
C15 C 0.3417(3) 0.4631(2) 0.11905(19)
C16 C 0.3132(3) 0.7095(2) 0.3714(2)
O1 O 0.09926(18) 0.41063(17) -0.07799(15)
O2 O 0.25911(18) 0.46141(19) -0.11289(15)
O3 O 0.1232(2) 0.75404(18) -0.44632(15)
O4 O 0.2751(2) 0.7176(2) -0.36676(18)
O5 O 0.23905(18) 0.46132(18) 0.10464(15)
O6 O 0.39940(18) 0.40688(17) 0.07433(15)
O7 O 0.3638(2) 0.7511(2) 0.43935(16)
O8 O 0.2134(3) 0.7184(2) 0.3535(2)
In1A In 0.253141(14) 0.842406(16) -0.495923(11)
In1A_2 In 0.253141(14) 0.842406(16) 0.504077(11)
O3A O 0.3768(2) 0.25404(18) -0.05368(15)
O4A O 0.2249(2) 0.2176(2) -0.13324(18)
O7A O 0.1362(2) 0.2511(2) 0.06065(16)
O8A O 0.2866(3) 0.2184(2) 0.1465(2)
C17 C 0.0007(4) 0.6072(3) -0.5932(3)
H9 H 0.0232 0.5957 -0.5304
H10 H 0.0594 0.5896 -0.6294
H11 H -0.0623 0.5668 -0.6107
C18 C -0.0616(5) 0.7392(4) -0.6997(3)
H12 H -0.0792 0.8093 -0.7029
H13 H -0.1251 0.7007 -0.7199
H14 H -0.0035 0.7254 -0.7377
N1 N -0.0267(3) 0.7126(3) -0.6068(2)
H15 H -0.0226 0.7555 -0.5633
O9 O -0.2236(5) 0.6870(5) -0.5433(5)
N2 N -0.3430(6) 0.6404(7) -0.4596(4)
C19 C -0.2879(10) 0.7144(6) -0.4880(6)
C20 C -0.2988(7) 0.5327(5) -0.4848(5)
H16 H -0.2406 0.5400 -0.5240
H17 H -0.3572 0.4945 -0.5150
H18 H -0.2718 0.4986 -0.4304
C21 C -0.4376(7) 0.6439(7) -0.3988(5)
H19 H -0.4568 0.7124 -0.3883
H20 H -0.4159 0.6121 -0.3421
H21 H -0.4997 0.6095 -0.4279
C22 C -0.3429(6) 0.8076(5) -0.4646(5)
H22 H -0.3027 0.8640 -0.4848
H23 H -0.3461 0.8112 -0.4001
H24 H -0.4159 0.8086 -0.4935
loop_
_geom_bond_atom_site_label_1
_geom_bond_atom_site_label_2
_geom_bond_site_symmetry_1
_geom_bond_site_symmetry_2
In1 O1 1_555 1_555
C1 C2 1_555 1_555
C2 H1 1_555 1_555
C3 C2 1_555 1_555
C4 C3 1_555 1_555
H2 C4 1_555 1_555
C5 C4 1_555 1_555
H3 C5 1_555 1_555
C6 C1 1_555 1_555
H4 C6 1_555 1_555
C7 C1 1_555 1_555
C8 C3 1_555 1_555
C9 C10 1_555 1_555
C10 H5 1_555 1_555
C11 C10 1_555 1_555
C12 C11 1_555 1_555
H6 C12 1_555 1_555
C13 C12 1_555 1_555
H7 C13 1_555 1_555
C14 C9 1_555 1_555
H8 C14 1_555 1_555
C15 C9 1_555 1_555
C16 C11 1_555 1_555
O1 C7 1_555 1_555
O2 In1 1_555 1_555
O3 C8 1_555 1_555
O4 C8 1_555 1_555
O5 In1 1_555 1_555
O6 In1 1_555 1_555
O7 C16 1_555 1_555
O8 C16 1_555 1_555
C17 H9 1_555 1_555
H10 C17 1_555 1_555
H11 C17 1_555 1_555
C18 H12 1_555 1_555
H13 C18 1_555 1_555
H14 C18 1_555 1_555
N1 C17 1_555 1_555
H15 N1 1_555 1_555
O9 C19 1_555 1_555
N2 C19 1_555 1_555
C19 C22 1_555 1_555
C20 N2 1_555 1_555
H16 C20 1_555 1_555
H17 C20 1_555 1_555
H18 C20 1_555 1_555
C21 N2 1_555 1_555
H19 C21 1_555 1_555
H20 C21 1_555 1_555
H21 C21 1_555 1_555
C22 H22 1_555 1_555
H23 C22 1_555 1_555
H24 C22 1_555 1_555
In1A O3 1_555 1_555
In1A_2 O7 1_555 1_555
O3A In1 1_555 1_555
O4A In1 1_555 1_555
O7A In1 1_555 1_555
O8A In1 1_555 1_555
C5 C6 1_555 1_555
C7 O2 1_555 1_555
C13 C14 1_555 1_555
C15 O5 1_555 1_555
C15 O6 1_555 1_555
O4 In1A 1_555 1_555
O8 In1A_2 1_555 1_555
C18 N1 1_555 1_555

#END
