
#######################################################################
#
#                 Cambridge Crystallographic Data Centre
#                                CCDC 
#
#######################################################################
#
# If this CIF has been generated from an entry in the Cambridge 
# Structural Database, then it will include bibliographic, chemical, 
# crystal, experimental, refinement or atomic coordinate data resulting 
# from the CCDC's data processing and validation procedures.
#
#######################################################################

data_BONVUW
_symmetry_cell_setting           triclinic
_symmetry_space_group_name_H-M   'P -1'
_symmetry_Int_Tables_number      2
_space_group_name_Hall           '-P 1'
loop_
_symmetry_equiv_pos_site_id
_symmetry_equiv_pos_as_xyz
1 x,y,z
2 -x,-y,-z
_cell_length_a                   8.271(7)
_cell_length_b                   10.068(9)
_cell_length_c                   20.350(15)
_cell_angle_alpha                94.463(10)
_cell_angle_beta                 93.164(7)
_cell_angle_gamma                113.543(9)
_cell_volume                     1541.91
loop_
_atom_site_label
_atom_site_type_symbol
_atom_site_fract_x
_atom_site_fract_y
_atom_site_fract_z
Zn1 Zn 0.19577(9) 0.19591(8) 0.32653(4)
Zn2 Zn 0.14009(10) 0.31802(8) 0.14424(4)
O1 O 0.4822(5) 0.2364(5) 0.3191(2)
O2 O 0.8856(6) 0.2615(5) 0.1594(2)
O3 O 0.1870(5) -0.0070(5) 0.2911(2)
O4 O 0.2650(6) 0.2975(5) 0.2367(2)
C1 C 0.8314(8) 0.1649(7) 0.3197(3)
C2 C 0.8333(8) 0.3225(7) 0.2056(3)
O5 O 0.9465(6) 0.1299(6) 0.2928(3)
C3 C 0.4232(8) 0.3325(7) 0.2184(3)
N1 N 0.1346(7) 0.1102(6) 0.1052(3)
O6 O 0.4623(7) 0.3764(6) 0.1631(3)
N2 N 0.2477(7) 0.3988(6) 0.3827(3)
O7 O 0.2083(6) 0.5409(5) 0.1662(2)
H1 H 0.1357 0.5532 0.1890
O8 O 0.9152(6) 0.4490(5) 0.2327(3)
C4 C 0.6516(7) 0.2277(7) 0.2274(3)
H2 H 0.5740 0.1726 0.1877
N3 N 0.1944(8) 0.3522(7) 0.0442(3)
C5 C 0.5604(8) 0.3134(7) 0.2641(3)
H3 H 0.6501 0.4099 0.2814
C6 C 0.5025(7) 0.0993(6) 0.3158(3)
H4 H 0.5370 0.0868 0.3610
C7 C 0.2057(9) 0.1170(8) 0.0465(3)
O9 O 0.3323(7) -0.1509(5) 0.2773(3)
C8 C 0.6578(8) 0.1166(7) 0.2757(3)
H5 H 0.6345 0.0233 0.2500
O10 O 0.8477(7) 0.2255(6) 0.3758(3)
C9 C 0.2490(9) 0.3935(7) 0.4490(4)
C10 C 0.3275(8) -0.0308(7) 0.2924(3)
C11 C 0.2337(9) 0.2451(8) 0.0133(3)
N4 N 0.2235(8) 0.1475(6) 0.4294(3)
C12 C 0.2419(9) 0.2612(8) 0.4730(3)
C13 C 0.2446(11) 0.2511(9) 0.5427(4)
C14 C 0.2489(10) 0.0064(9) 0.0157(4)
C15 C 0.3451(11) 0.1408(11) -0.0784(4)
H6 H 0.3942 0.1502 -0.1187
C16 C 0.3209(12) 0.3810(10) -0.0795(4)
H7 H 0.3661 0.3936 -0.1205
C17 C 0.2990(9) 0.2539(9) -0.0496(4)
C18 C 0.2575(15) 0.6326(10) 0.4671(5)
H8 H 0.2588 0.7111 0.4948
C19 C 0.2541(11) 0.5069(9) 0.4937(4)
C20 C 0.2138(13) 0.0233(10) 0.4520(5)
H9 H 0.2009 -0.0548 0.4214
C21 C 0.1070(10) -0.0058(9) 0.1355(4)
H10 H 0.0589 -0.0115 0.1760
C22 C 0.2495(11) 0.5193(8) 0.3594(4)
H11 H 0.2442 0.5227 0.3138
C23 C 0.3183(10) 0.0225(11) -0.0480(4)
H12 H 0.3448 -0.0514 -0.0682
C24 C 0.2157(12) -0.1157(9) 0.0513(5)
H13 H 0.2421 -0.1922 0.0341
C25 C 0.2755(13) 0.4881(10) -0.0483(4)
H14 H 0.2854 0.5701 -0.0688
C26 C 0.2158(12) 0.4695(10) 0.0134(4)
H15 H 0.1890 0.5422 0.0347
C27 C 0.2573(13) 0.4929(11) 0.5633(5)
H16 H 0.2621 0.5700 0.5928
C28 C 0.2534(13) 0.3708(10) 0.5867(4)
H17 H 0.2564 0.3646 0.6321
C29 C 0.1459(12) -0.1222(9) 0.1102(5)
H18 H 0.1241 -0.2026 0.1335
C30 C 0.2587(16) 0.6386(10) 0.3994(5)
H19 H 0.2658 0.7225 0.3813
C31 C 0.2331(13) 0.1164(10) 0.5637(5)
H20 H 0.2333 0.1035 0.6085
C32 C 0.2217(11) 0.0060(9) 0.5175(4)
H21 H 0.2195 -0.0809 0.5309
H22 H 0.3033 0.6009 0.1842
Zn1_2 Zn 1.19577(9) 0.19591(8) 0.32653(4)
Zn2_2 Zn 1.14009(10) 0.31802(8) 0.14424(4)
O2_2 O -0.1144(6) 0.2615(5) 0.1594(2)
O5_2 O -0.0535(6) 0.1299(6) 0.2928(3)
O11 O -0.1224(7) -0.2678(6) 0.2543(4)
H23 H -0.0843 -0.3317 0.2478
H25 H -0.2236 -0.3091 0.2658
O12 O 0.5250(8) -0.2984(7) 0.2372(4)
H24 H 0.5417 -0.2143 0.2316
H26 H 0.6117 -0.3085 0.2228
loop_
_geom_bond_atom_site_label_1
_geom_bond_atom_site_label_2
_geom_bond_site_symmetry_1
_geom_bond_site_symmetry_2
Zn1 O1 1_555 1_555
Zn2 O4 1_555 1_555
O1 C5 1_555 1_555
O2 C2 1_555 1_555
O3 Zn1 1_555 1_555
O4 Zn1 1_555 1_555
C1 O5 1_555 1_555
C2 O8 1_555 1_555
O5 Zn1_2 1_555 1_555
C3 O4 1_555 1_555
N1 Zn2 1_555 1_555
O6 Zn2 1_555 1_555
N2 Zn1 1_555 1_555
O7 Zn2 1_555 1_555
H1 O7 1_555 1_555
C4 C2 1_555 1_555
H2 C4 1_555 1_555
N3 Zn2 1_555 1_555
C5 C3 1_555 1_555
H3 C5 1_555 1_555
C6 O1 1_555 1_555
H4 C6 1_555 1_555
C7 N1 1_555 1_555
O9 C10 1_555 1_555
C8 C1 1_555 1_555
H5 C8 1_555 1_555
O10 C1 1_555 1_555
C9 N2 1_555 1_555
C10 O3 1_555 1_555
C11 N3 1_555 1_555
N4 Zn1 1_555 1_555
C12 C9 1_555 1_555
C13 C12 1_555 1_555
C14 C7 1_555 1_555
C15 H6 1_555 1_555
C16 H7 1_555 1_555
C17 C11 1_555 1_555
C18 H8 1_555 1_555
C19 C9 1_555 1_555
C20 N4 1_555 1_555
H9 C20 1_555 1_555
C21 N1 1_555 1_555
H10 C21 1_555 1_555
C22 N2 1_555 1_555
H11 C22 1_555 1_555
C23 C14 1_555 1_555
H12 C23 1_555 1_555
C24 C14 1_555 1_555
H13 C24 1_555 1_555
C25 C16 1_555 1_555
H14 C25 1_555 1_555
C26 N3 1_555 1_555
H15 C26 1_555 1_555
C27 C19 1_555 1_555
H16 C27 1_555 1_555
C28 C13 1_555 1_555
H17 C28 1_555 1_555
C29 C21 1_555 1_555
H18 C29 1_555 1_555
C30 C18 1_555 1_555
H19 C30 1_555 1_555
O11 H23 1_555 1_555
O12 H24 1_555 1_555
C31 C13 1_555 1_555
H20 C31 1_555 1_555
C32 C20 1_555 1_555
H21 C32 1_555 1_555
H22 O7 1_555 1_555
H25 O11 1_555 1_555
H26 O12 1_555 1_555
Zn2_2 O2 1_555 1_555
O2_2 Zn2 1_555 1_555
O5_2 Zn1 1_555 1_555
C3 O6 1_555 1_555
C4 C5 1_555 1_555
C4 C8 1_555 1_555
C6 C8 1_555 1_555
C6 C10 1_555 1_555
C7 C11 1_555 1_555
N4 C12 1_555 1_555
C15 C17 1_555 1_555
C15 C23 1_555 1_555
C16 C17 1_555 1_555
C18 C19 1_555 1_555
C22 C30 1_555 1_555
C24 C29 1_555 1_555
C25 C26 1_555 1_555
C27 C28 1_555 1_555
C31 C32 1_555 1_555

#END
