
#######################################################################
#
#                 Cambridge Crystallographic Data Centre
#                                CCDC 
#
#######################################################################
#
# If this CIF has been generated from an entry in the Cambridge 
# Structural Database, then it will include bibliographic, chemical, 
# crystal, experimental, refinement or atomic coordinate data resulting 
# from the CCDC's data processing and validation procedures.
#
#######################################################################

data_BONVOQ
_symmetry_cell_setting           monoclinic
_symmetry_space_group_name_H-M   'P 21/c'
_symmetry_Int_Tables_number      14
_space_group_name_Hall           '-P 2ybc'
loop_
_symmetry_equiv_pos_site_id
_symmetry_equiv_pos_as_xyz
1 x,y,z
2 -x,1/2+y,1/2-z
3 -x,-y,-z
4 x,1/2-y,1/2+z
_cell_length_a                   15.0260(7)
_cell_length_b                   9.3791(4)
_cell_length_c                   15.4347(7)
_cell_angle_alpha                90
_cell_angle_beta                 117.5380(10)
_cell_angle_gamma                90
_cell_volume                     1928.78
loop_
_atom_site_label
_atom_site_type_symbol
_atom_site_fract_x
_atom_site_fract_y
_atom_site_fract_z
Zn1 Zn 0.212995(6) 0.458998(10) 0.479484(6)
Zn2 Zn 0.536880(6) 0.157782(11) 0.693991(6)
C1 C 0.34404(5) 0.27617(9) 0.64607(5)
C2 C 0.49188(5) 0.10060(9) 0.86412(5)
H1 H 0.4821 0.0124 0.8927
C3 C 0.27206(5) 0.11129(9) 0.83360(5)
C4 C 0.60410(6) 0.11990(9) 0.89644(6)
C5 C -0.01252(6) 0.45263(10) 0.38841(6)
C6 C 0.14485(6) 0.75960(11) 0.40775(7)
H2 H 0.2132 0.7794 0.4379
C7 C 0.48941(6) 0.37118(9) 0.89768(6)
C8 C 0.43972(5) 0.22471(9) 0.88912(5)
H3 H 0.4382 0.2032 0.9506
C9 C -0.11104(6) 0.40759(11) 0.35470(7)
H4 H -0.1639 0.4713 0.3238
C10 C 0.01524(6) 0.59987(10) 0.37467(6)
C11 C -0.05470(7) 0.70324(12) 0.32107(8)
H5 H -0.1229 0.6822 0.2919
C12 C -0.12963(7) 0.26693(12) 0.36764(7)
H6 H -0.1951 0.2346 0.3453
C13 C 0.33194(5) 0.21547(9) 0.80402(5)
H7 H 0.3002 0.3097 0.7899
C14 C -0.04966(7) 0.17538(12) 0.41410(8)
H8 H -0.0603 0.0799 0.4228
C15 C 0.04700(7) 0.22811(11) 0.44766(7)
H9 H 0.1010 0.1667 0.4801
C16 C -0.02259(8) 0.83758(12) 0.31126(8)
H10 H -0.0688 0.9074 0.2750
C17 C 0.07858(7) 0.86662(11) 0.35578(7)
H11 H 0.1019 0.9566 0.3510
C18 C 0.34552(5) 0.16227(9) 0.71751(5)
H12 H 0.2922 0.0932 0.6811
O1 O 0.24421(4) 0.16418(7) 0.89322(4)
O3 O 0.25490(5) -0.01205(7) 0.80136(4)
O4 O 0.62302(5) 0.24593(8) 0.63984(4)
H15 H 0.6511 0.3169 0.6719
H16 H 0.6256(7) 0.2444(11) 0.5889(4)
O5 O 0.63174(4) 0.16727(7) 0.83686(4)
O6 O 0.44042(4) 0.08814(6) 0.75885(4)
O7 O 0.41781(4) 0.28669(7) 0.62831(4)
O8 O 0.26460(4) 0.34820(7) 0.60602(4)
O9 O 0.66120(4) 0.08355(7) 0.98289(4)
O10 O 0.44067(5) 0.45948(7) 0.83050(5)
O11 O 0.57219(5) 0.39146(8) 0.96936(5)
N1 N 0.11471(5) 0.62843(8) 0.41650(5)
N2 N 0.06525(5) 0.36388(8) 0.43503(5)
Zn1A Zn 0.787005(6) -0.041002(10) 1.020516(6)
Zn1C Zn 0.212995(6) 0.041002(10) 0.979484(6)
Zn2A Zn 0.463120(6) 0.657782(11) 0.806009(6)
O1C O 0.24421(4) 0.33582(7) 0.39322(4)
O9A O 0.33880(4) 0.58355(7) 0.51711(4)
O10A O 0.55933(5) -0.04052(7) 0.66950(5)
O2 O 0.25949(6) 0.06285(9) 0.47647(8)
H13 H 0.2543(9) 0.0848(13) 0.4228(5)
H14 H 0.3164(6) 0.0224(12) 0.5035(8)
loop_
_geom_bond_atom_site_label_1
_geom_bond_atom_site_label_2
_geom_bond_site_symmetry_1
_geom_bond_site_symmetry_2
Zn1 O8 1_555 1_555
Zn2 O4 1_555 1_555
C1 C18 1_555 1_555
C2 H1 1_555 1_555
C3 C13 1_555 1_555
C4 C2 1_555 1_555
C5 C9 1_555 1_555
C6 H2 1_555 1_555
C7 C8 1_555 1_555
C8 C2 1_555 1_555
H3 C8 1_555 1_555
C9 H4 1_555 1_555
C10 C5 1_555 1_555
C11 C10 1_555 1_555
H5 C11 1_555 1_555
C12 C9 1_555 1_555
H6 C12 1_555 1_555
C13 C8 1_555 1_555
H7 C13 1_555 1_555
C14 C12 1_555 1_555
H8 C14 1_555 1_555
C15 C14 1_555 1_555
H9 C15 1_555 1_555
C16 C11 1_555 1_555
H10 C16 1_555 1_555
C17 C6 1_555 1_555
H11 C17 1_555 1_555
C18 C13 1_555 1_555
H12 C18 1_555 1_555
O1 C3 1_555 1_555
O2 H13 1_555 1_555
H14 O2 1_555 1_555
O3 C3 1_555 1_555
O4 H15 1_555 1_555
H16 O4 1_555 1_555
O5 Zn2 1_555 1_555
O6 Zn2 1_555 1_555
O7 Zn2 1_555 1_555
O8 C1 1_555 1_555
O9 C4 1_555 1_555
O10 C7 1_555 1_555
O11 C7 1_555 1_555
N1 Zn1 1_555 1_555
N2 Zn1 1_555 1_555
Zn1A O9 1_555 1_555
Zn1C O1 1_555 1_555
Zn2A O10 1_555 1_555
O1C Zn1 1_555 1_555
O9A Zn1 1_555 1_555
O10A Zn2 1_555 1_555
C1 O7 1_555 1_555
C2 O6 1_555 1_555
C4 O5 1_555 1_555
C5 N2 1_555 1_555
C6 N1 1_555 1_555
C10 N1 1_555 1_555
C15 N2 1_555 1_555
C16 C17 1_555 1_555
C18 O6 1_555 1_555

#END
