
#######################################################################
#
#                 Cambridge Crystallographic Data Centre
#                                CCDC 
#
#######################################################################
#
# If this CIF has been generated from an entry in the Cambridge 
# Structural Database, then it will include bibliographic, chemical, 
# crystal, experimental, refinement or atomic coordinate data resulting 
# from the CCDC's data processing and validation procedures.
#
#######################################################################

data_BONXIM
_symmetry_cell_setting           monoclinic
_symmetry_space_group_name_H-M   'P 21/c'
_symmetry_Int_Tables_number      14
_space_group_name_Hall           '-P 2ybc'
loop_
_symmetry_equiv_pos_site_id
_symmetry_equiv_pos_as_xyz
1 x,y,z
2 -x,1/2+y,1/2-z
3 -x,-y,-z
4 x,1/2-y,1/2+z
_cell_length_a                   7.0814(9)
_cell_length_b                   8.4329(11)
_cell_length_c                   19.147(2)
_cell_angle_alpha                90
_cell_angle_beta                 99.495(2)
_cell_angle_gamma                90
_cell_volume                     1127.73
loop_
_atom_site_label
_atom_site_type_symbol
_atom_site_fract_x
_atom_site_fract_y
_atom_site_fract_z
Zn1 Zn 0.40321(4) 0.60600(3) 0.142448(13)
N1 N 0.2363(3) 0.7189(3) 0.20747(10)
N2 N 0.0399(3) 0.8057(3) 0.27605(11)
O1 O 0.6162(2) 0.6950(2) 0.22794(9)
O2 O 0.6610(3) 0.8798(2) 0.31132(9)
O3 O 0.3950(3) 0.9979(2) 0.40363(9)
O4 O 0.1158(3) 0.8920(2) 0.41558(10)
O5 O 0.4342(3) 0.8164(2) 0.08679(12)
O6 O 0.1866(3) 0.5580(3) 0.06141(9)
C1 C 0.0552(3) 0.7303(3) 0.21553(12)
H1 H -0.0477 0.6914 0.1836
C2 C 0.3409(3) 0.7943(3) 0.26490(11)
C3 C 0.2207(3) 0.8491(3) 0.30842(12)
C4 C 0.5549(3) 0.7909(3) 0.26903(12)
C5 C 0.2474(4) 0.9205(3) 0.38099(12)
N3 N 0.5960(3) 0.8584(3) 0.06544(13)
C6 C 0.7131(5) 0.9632(4) 0.10268(16)
H2 H 0.6857 0.9997 0.1457
C7 C 0.8729(5) 1.0179(4) 0.07869(15)
H3 H 0.9532 1.0897 0.1060
C8 C 0.9171(4) 0.9678(3) 0.01391(13)
C9 C 0.7965(4) 0.8536(4) -0.02118(15)
H4 H 0.8231 0.8126 -0.0636
C10 C 0.6389(4) 0.7992(4) 0.00480(15)
H5 H 0.5617 0.7213 -0.0196
H6 H 0.095(3) 0.506(4) 0.0683(15)
H7 H 0.180(5) 0.583(4) 0.0200(7)
H8 H -0.050(5) 0.830(4) 0.2907(15)
Zn1A Zn 0.59679(4) 0.10600(3) 0.357552(13)
Zn1A_2 Zn 0.59679(4) 1.10600(3) 0.357552(13)
Zn1B Zn 1.59679(4) 1.39400(3) -0.142448(13)
N1A N 0.7637(3) 0.2189(3) 0.29253(10)
N2A N 0.9601(3) 0.3057(3) 0.22395(11)
O1A O 0.3838(2) 0.1950(2) 0.27206(9)
O2A O 0.3390(3) 0.3798(2) 0.18868(9)
O2_2 O 0.6610(3) -0.1202(2) 0.31132(9)
O3A O 0.6050(3) 0.4979(2) 0.09637(9)
O3_2 O 0.3950(3) -0.0021(2) 0.40363(9)
O4A O 0.8842(3) 0.3920(2) 0.08442(10)
O5B O 1.5658(3) 1.1836(2) -0.08679(12)
O5A O 0.5658(3) 0.3164(2) 0.41321(12)
O6A O 0.8134(3) 0.0580(3) 0.43859(9)
C1A C 0.9448(3) 0.2303(3) 0.28447(12)
H1A H 1.0477 0.1914 0.3164
C2A C 0.6591(3) 0.2943(3) 0.23510(11)
C3A C 0.7793(3) 0.3491(3) 0.19158(12)
C4A C 0.4451(3) 0.2909(3) 0.23097(12)
C5A C 0.7526(4) 0.4205(3) 0.11901(12)
N3B N 1.4040(3) 1.1416(3) -0.06544(13)
C6B C 1.2869(5) 1.0368(4) -0.10268(16)
H2B H 1.3143 1.0003 -0.1457
C7B C 1.1271(5) 0.9821(4) -0.07869(15)
H3B H 1.0468 0.9103 -0.1060
C8B C 1.0829(4) 1.0322(3) -0.01391(13)
C9B C 1.2035(4) 1.1464(4) 0.02118(15)
H4B H 1.1769 1.1874 0.0636
C10B C 1.3611(4) 1.2008(4) -0.00480(15)
H5B H 1.4383 1.2787 0.0196
H6A H 0.905(3) 0.006(4) 0.4317(15)
H7A H 0.820(5) 0.083(4) 0.4800(7)
H8A H 1.050(5) 0.330(4) 0.2093(15)
loop_
_geom_bond_atom_site_label_1
_geom_bond_atom_site_label_2
_geom_bond_site_symmetry_1
_geom_bond_site_symmetry_2
Zn1 N1 1_555 1_555
N1 C1 1_555 1_555
N2 C1 1_555 1_555
O1 Zn1 1_555 1_555
O2 C4 1_555 1_555
O3 C5 1_555 1_555
O4 C5 1_555 1_555
O5 Zn1 1_555 1_555
O6 Zn1 1_555 1_555
C1 H1 1_555 1_555
C2 N1 1_555 1_555
C3 N2 1_555 1_555
C4 O1 1_555 1_555
C5 C3 1_555 1_555
N3 O5 1_555 1_555
C6 N3 1_555 1_555
H2 C6 1_555 1_555
C7 C6 1_555 1_555
H3 C7 1_555 1_555
C8 C7 1_555 1_555
C9 C8 1_555 1_555
H4 C9 1_555 1_555
C10 N3 1_555 1_555
H5 C10 1_555 1_555
H6 O6 1_555 1_555
H7 O6 1_555 1_555
H8 N2 1_555 1_555
Zn1A N1A 1_555 1_555
Zn1A_2 O2 1_555 1_555
Zn1B O5B 1_555 1_555
N1A C1A 1_555 1_555
N2A C1A 1_555 1_555
O1A Zn1A 1_555 1_555
O2A Zn1 1_555 1_555
O2_2 Zn1A 1_555 1_555
O3A Zn1 1_555 1_555
O3_2 Zn1A 1_555 1_555
O4A C5A 1_555 1_555
O5B N3B 1_555 1_555
O5A Zn1A 1_555 1_555
O6A Zn1A 1_555 1_555
C1A H1A 1_555 1_555
C2A N1A 1_555 1_555
C3A N2A 1_555 1_555
C4A O1A 1_555 1_555
C5A O3A 1_555 1_555
N3B C6B 1_555 1_555
C6B H2B 1_555 1_555
C7B C6B 1_555 1_555
H3B C7B 1_555 1_555
C8B C8 1_555 1_555
C9B C8B 1_555 1_555
H4B C9B 1_555 1_555
C10B N3B 1_555 1_555
H5B C10B 1_555 1_555
H6A O6A 1_555 1_555
H7A O6A 1_555 1_555
H8A N2A 1_555 1_555
O3 Zn1A_2 1_555 1_555
C2 C3 1_555 1_555
C2 C4 1_555 1_555
C9 C10 1_555 1_555
O2A C4A 1_555 1_555
C2A C3A 1_555 1_555
C2A C4A 1_555 1_555
C3A C5A 1_555 1_555
C7B C8B 1_555 1_555
C9B C10B 1_555 1_555

#END
