
#######################################################################
#
#                 Cambridge Crystallographic Data Centre
#                                CCDC 
#
#######################################################################
#
# If this CIF has been generated from an entry in the Cambridge 
# Structural Database, then it will include bibliographic, chemical, 
# crystal, experimental, refinement or atomic coordinate data resulting 
# from the CCDC's data processing and validation procedures.
#
#######################################################################

data_BONXOS
_symmetry_cell_setting           monoclinic
_symmetry_space_group_name_H-M   'P 21/c'
_symmetry_Int_Tables_number      14
_space_group_name_Hall           '-P 2ybc'
loop_
_symmetry_equiv_pos_site_id
_symmetry_equiv_pos_as_xyz
1 x,y,z
2 -x,1/2+y,1/2-z
3 -x,-y,-z
4 x,1/2-y,1/2+z
_cell_length_a                   7.0867(16)
_cell_length_b                   8.398(2)
_cell_length_c                   19.073(5)
_cell_angle_alpha                90
_cell_angle_beta                 99.872(4)
_cell_angle_gamma                90
_cell_volume                     1118.31
loop_
_atom_site_label
_atom_site_type_symbol
_atom_site_fract_x
_atom_site_fract_y
_atom_site_fract_z
Co1 Co 0.90523(5) 0.38914(4) 0.142553(18)
C1 C 1.0492(4) 0.2000(3) 0.26769(14)
C2 C 0.8368(4) 0.1984(3) 0.26341(14)
C3 C 0.7442(4) 0.0757(3) 0.38042(14)
C4 C 0.7155(4) 0.1448(3) 0.30735(14)
C5 C 0.5506(4) 0.2625(4) 0.21347(15)
H1 H 0.4474 0.3012 0.1812
N1 N 1.0947(4) 0.1406(3) 0.06419(15)
C6 C 1.1413(5) 0.2034(4) 0.00480(18)
H2 H 1.0665 0.2841 -0.0191
C7 C 1.2991(5) 0.1489(4) -0.02077(18)
H3 H 1.3275 0.1920 -0.0627
C8 C 1.4165(4) 0.0324(3) 0.01378(16)
C9 C 1.3697(5) -0.0222(4) 0.07766(18)
H4 H 1.4482 -0.0964 0.1047
C10 C 1.2092(5) 0.0325(4) 0.10104(19)
H5 H 1.1795 -0.0066 0.1435
H6 H 0.441(6) 0.171(5) 0.291(2)
N2 N 0.7315(3) 0.2731(3) 0.20559(12)
N3 N 0.5361(3) 0.1883(3) 0.27451(12)
O1 O 0.6918(3) 0.4450(3) 0.06064(11)
H7 H 0.7013 0.5553 0.0485
H8 H 0.5701 0.4257 0.0747
O2 O 0.9341(3) 0.1818(3) 0.08576(13)
O3 O 1.1106(3) 0.2959(3) 0.22662(11)
O4 O 1.1555(3) 0.1091(2) 0.30912(11)
O5 O 0.6128(3) 0.1045(3) 0.41492(11)
O6 O 0.8913(3) -0.0011(3) 0.40356(10)
Co1A Co 1.09477(5) 0.88914(4) 0.357447(18)
Co1A_2 Co 1.09477(5) -0.11086(4) 0.357447(18)
Co1B Co 2.09477(5) -0.38914(4) -0.142553(18)
C1A C 0.9508(4) 0.7000(3) 0.23231(14)
C2A C 1.1632(4) 0.6984(3) 0.23659(14)
C3A C 1.2558(4) 0.5757(3) 0.11958(14)
C4A C 1.2845(4) 0.6448(3) 0.19265(14)
C5A C 1.4494(4) 0.7625(4) 0.28653(15)
H1A H 1.5526 0.8012 0.3188
N1B N 1.9053(4) -0.1406(3) -0.06419(15)
C6B C 1.8587(5) -0.2034(4) -0.00480(18)
H2B H 1.9335 -0.2841 0.0191
C7B C 1.7009(5) -0.1489(4) 0.02077(18)
H3B H 1.6725 -0.1920 0.0627
C8B C 1.5835(4) -0.0324(3) -0.01378(16)
C9B C 1.6303(5) 0.0222(4) -0.07766(18)
H4B H 1.5518 0.0964 -0.1047
C10B C 1.7908(5) -0.0325(4) -0.10104(19)
H5B H 1.8205 0.0066 -0.1435
H6A H 1.559(6) 0.671(5) 0.209(2)
N2A N 1.2685(3) 0.7731(3) 0.29441(12)
N3A N 1.4639(3) 0.6883(3) 0.22549(12)
O1A O 1.3082(3) 0.9450(3) 0.43936(11)
H7A H 1.2987 1.0553 0.4515
H8A H 1.4299 0.9257 0.4253
O2B O 2.0659(3) -0.1818(3) -0.08576(13)
O2A O 1.0659(3) 0.6818(3) 0.41424(13)
O3A O 0.8894(3) 0.7959(3) 0.27338(11)
O4A O 0.8445(3) 0.6091(2) 0.19088(11)
O4_2 O 1.1555(3) 1.1091(2) 0.30912(11)
O5A O 1.3872(3) 0.6045(3) 0.08508(11)
O6A O 1.1087(3) 0.4989(3) 0.09644(10)
O6_2 O 0.8913(3) 0.9989(3) 0.40356(10)
loop_
_geom_bond_atom_site_label_1
_geom_bond_atom_site_label_2
_geom_bond_site_symmetry_1
_geom_bond_site_symmetry_2
Co1 N2 1_555 1_555
C1 C2 1_555 1_555
C2 C4 1_555 1_555
C3 C4 1_555 1_555
C4 N3 1_555 1_555
C5 H1 1_555 1_555
N1 C6 1_555 1_555
C6 H2 1_555 1_555
C7 C6 1_555 1_555
H3 C7 1_555 1_555
C8 C7 1_555 1_555
C9 C8 1_555 1_555
H4 C9 1_555 1_555
C10 N1 1_555 1_555
H5 C10 1_555 1_555
H6 N3 1_555 1_555
N2 C2 1_555 1_555
N3 C5 1_555 1_555
O1 Co1 1_555 1_555
H7 O1 1_555 1_555
H8 O1 1_555 1_555
O2 Co1 1_555 1_555
O3 Co1 1_555 1_555
O4 C1 1_555 1_555
O5 C3 1_555 1_555
O6 C3 1_555 1_555
Co1A N2A 1_555 1_555
Co1A_2 O4 1_555 1_555
Co1B O2B 1_555 1_555
C1A C2A 1_555 1_555
C2A C4A 1_555 1_555
C3A C4A 1_555 1_555
C4A N3A 1_555 1_555
C5A H1A 1_555 1_555
N1B C6B 1_555 1_555
C6B H2B 1_555 1_555
C7B C6B 1_555 1_555
H3B C7B 1_555 1_555
C8B C8 1_555 1_555
C9B C8B 1_555 1_555
H4B C9B 1_555 1_555
C10B N1B 1_555 1_555
H5B C10B 1_555 1_555
H6A N3A 1_555 1_555
N2A C2A 1_555 1_555
N3A C5A 1_555 1_555
O1A Co1A 1_555 1_555
H7A O1A 1_555 1_555
H8A O1A 1_555 1_555
O2B N1B 1_555 1_555
O2A Co1A 1_555 1_555
O3A Co1A 1_555 1_555
O4A Co1 1_555 1_555
O4_2 Co1A 1_555 1_555
O5A C3A 1_555 1_555
O6A Co1 1_555 1_555
O6_2 Co1A 1_555 1_555
C1 O3 1_555 1_555
C5 N2 1_555 1_555
N1 O2 1_555 1_555
C9 C10 1_555 1_555
O6 Co1A_2 1_555 1_555
C1A O3A 1_555 1_555
C1A O4A 1_555 1_555
C3A O6A 1_555 1_555
C5A N2A 1_555 1_555
C7B C8B 1_555 1_555
C9B C10B 1_555 1_555

#END
