
#######################################################################
#
#                 Cambridge Crystallographic Data Centre
#                                CCDC 
#
#######################################################################
#
# If this CIF has been generated from an entry in the Cambridge 
# Structural Database, then it will include bibliographic, chemical, 
# crystal, experimental, refinement or atomic coordinate data resulting 
# from the CCDC's data processing and validation procedures.
#
#######################################################################

data_BONYIO
_symmetry_cell_setting           triclinic
_symmetry_space_group_name_H-M   'P -1'
_symmetry_Int_Tables_number      2
_space_group_name_Hall           '-P 1'
loop_
_symmetry_equiv_pos_site_id
_symmetry_equiv_pos_as_xyz
1 x,y,z
2 -x,-y,-z
_cell_length_a                   7.7951(16)
_cell_length_b                   9.7463(19)
_cell_length_c                   12.128(2)
_cell_angle_alpha                97.41(3)
_cell_angle_beta                 97.53(3)
_cell_angle_gamma                110.51(3)
_cell_volume                     840.244
loop_
_atom_site_label
_atom_site_type_symbol
_atom_site_fract_x
_atom_site_fract_y
_atom_site_fract_z
Cd1 Cd 0.00644(5) 0.20293(4) 0.05027(3)
O1 O 0.2345(6) 0.4672(4) 0.0329(3)
O2 O 0.2574(6) 0.3529(5) 0.1764(4)
O3 O 0.8156(6) 0.9268(5) 0.0366(3)
O4 O 0.9129(7) 1.0848(5) 0.1995(4)
O5 O -0.1875(8) 0.3342(6) 0.0957(4)
N1 N -0.1523(7) 0.1668(5) -0.1287(4)
I1 I 0.80656(7) 0.73079(5) 0.53635(3)
C1 C 0.4816(8) 0.5949(6) 0.1926(5)
C2 C 0.5476(8) 0.6004(6) 0.3056(5)
H1 H 0.4894 0.5223 0.3412
C3 C 0.7010(8) 0.7230(6) 0.3657(5)
C4 C 0.7886(8) 0.8416(6) 0.3147(5)
H2 H 0.8882 0.9250 0.3560
C5 C 0.7241(8) 0.8330(6) 0.2001(4)
C6 C 0.5749(7) 0.7107(6) 0.1394(5)
H3 H 0.5359 0.7050 0.0626
C7 C 0.3138(7) 0.4646(6) 0.1293(5)
C8 C 0.8232(7) 0.9564(6) 0.1420(5)
C9 C -0.4157(9) 0.0705(8) -0.4805(5)
H4 H -0.4494 0.1532 -0.4980
H5 H -0.3212 0.0651 -0.5237
C10 C -0.3311(8) 0.1043(7) -0.3564(5)
C11 C -0.3797(10) 0.0011(8) -0.2861(5)
H6 H -0.4728 -0.0924 -0.3143
C12 C -0.2901(10) 0.0368(8) -0.1746(6)
H7 H -0.3279 -0.0337 -0.1289
C13 C -0.1085(9) 0.2676(7) -0.1951(5)
H8 H -0.0174 0.3612 -0.1641
C14 C -0.1918(9) 0.2402(7) -0.3081(5)
H9 H -0.1536 0.3136 -0.3514
C15 C -0.2622(13) 0.3424(10) 0.1930(7)
H10 H -0.3957 0.3069 0.1727
H11 H -0.2151 0.4441 0.2323
H12 H -0.2274 0.2820 0.2412
N1A N -0.8477(7) -0.1668(5) -0.8713(4)
C9A C -0.5843(9) -0.0705(8) -0.5195(5)
H4A H -0.5506 -0.1532 -0.5020
H5A H -0.6788 -0.0651 -0.4763
C10A C -0.6689(8) -0.1043(7) -0.6436(5)
C11A C -0.6203(10) -0.0011(8) -0.7139(5)
H6A H -0.5272 0.0924 -0.6857
C12A C -0.7099(10) -0.0368(8) -0.8254(6)
H7A H -0.6721 0.0337 -0.8711
C13A C -0.8915(9) -0.2676(7) -0.8049(5)
H8A H -0.9826 -0.3612 -0.8359
C14A C -0.8082(9) -0.2402(7) -0.6919(5)
H9A H -0.8464 -0.3136 -0.6486
Cd1A Cd -1.00644(5) -0.20293(4) -1.05027(3)
O1A O -1.2345(6) -0.4672(4) -1.0329(3)
O2A O -1.2574(6) -0.3529(5) -1.1764(4)
O3A O -1.8156(6) -0.9268(5) -1.0366(3)
O4A O -1.9129(7) -1.0848(5) -1.1995(4)
O5A O -0.8125(8) -0.3342(6) -1.0957(4)
I1A I -1.80656(7) -0.73079(5) -1.53635(3)
C1A C -1.4816(8) -0.5949(6) -1.1926(5)
C2A C -1.5476(8) -0.6004(6) -1.3056(5)
H1A H -1.4894 -0.5223 -1.3412
C3A C -1.7010(8) -0.7230(6) -1.3657(5)
C4A C -1.7886(8) -0.8416(6) -1.3147(5)
H2A H -1.8882 -0.9250 -1.3560
C5A C -1.7241(8) -0.8330(6) -1.2001(4)
C6A C -1.5749(7) -0.7107(6) -1.1394(5)
H3A H -1.5359 -0.7050 -1.0626
C7A C -1.3138(7) -0.4646(6) -1.1293(5)
C8A C -1.8232(7) -0.9564(6) -1.1420(5)
C15A C -0.7378(13) -0.3424(10) -1.1930(7)
H10A H -0.6043 -0.3069 -1.1727
H11A H -0.7849 -0.4441 -1.2323
H12A H -0.7726 -0.2820 -1.2412
Cd1_2 Cd -1.99356(5) -0.79707(4) -0.94973(3)
Cd1_3 Cd 1.00644(5) 1.20293(4) 0.05027(3)
Cd1A_2 Cd -2.00644(5) -1.20293(4) -1.05027(3)
Cd1A_3 Cd 0.99356(5) 0.79707(4) -0.05027(3)
O3_2 O -1.1844(6) -0.0732(5) -0.9634(3)
O3_3 O -0.1844(6) -0.0732(5) 0.0366(3)
O3A_2 O -0.8156(6) 0.0732(5) -1.0366(3)
O3A_3 O 0.1844(6) 0.0732(5) -0.0366(3)
O4_2 O -0.0871(7) 0.0848(5) 0.1995(4)
O4A_2 O -0.9129(7) -0.0848(5) -1.1995(4)
loop_
_geom_bond_atom_site_label_1
_geom_bond_atom_site_label_2
_geom_bond_site_symmetry_1
_geom_bond_site_symmetry_2
Cd1 O1 1_555 1_555
O1 C7 1_555 1_555
O2 Cd1 1_555 1_555
O3 C8 1_555 1_555
O4 C8 1_555 1_555
O5 Cd1 1_555 1_555
N1 Cd1 1_555 1_555
I1 C3 1_555 1_555
C1 C2 1_555 1_555
C2 H1 1_555 1_555
C3 C2 1_555 1_555
C4 C3 1_555 1_555
H2 C4 1_555 1_555
C5 C4 1_555 1_555
C6 C1 1_555 1_555
H3 C6 1_555 1_555
C7 O2 1_555 1_555
C8 C5 1_555 1_555
C9 H4 1_555 1_555
H5 C9 1_555 1_555
C10 C9 1_555 1_555
C11 C10 1_555 1_555
H6 C11 1_555 1_555
C12 N1 1_555 1_555
H7 C12 1_555 1_555
C13 N1 1_555 1_555
H8 C13 1_555 1_555
C14 C10 1_555 1_555
H9 C14 1_555 1_555
C15 O5 1_555 1_555
H10 C15 1_555 1_555
H11 C15 1_555 1_555
H12 C15 1_555 1_555
N1A C12A 1_555 1_555
C9A C9 1_555 1_555
H4A C9A 1_555 1_555
H5A C9A 1_555 1_555
C10A C9A 1_555 1_555
C11A C10A 1_555 1_555
H6A C11A 1_555 1_555
C12A C11A 1_555 1_555
H7A C12A 1_555 1_555
C13A N1A 1_555 1_555
H8A C13A 1_555 1_555
C14A C10A 1_555 1_555
H9A C14A 1_555 1_555
Cd1A N1A 1_555 1_555
O1A Cd1A 1_555 1_555
O2A Cd1A 1_555 1_555
O3A C8A 1_555 1_555
O4A C8A 1_555 1_555
O5A Cd1A 1_555 1_555
I1A C3A 1_555 1_555
C1A C2A 1_555 1_555
C2A H1A 1_555 1_555
C3A C2A 1_555 1_555
C4A C3A 1_555 1_555
H2A C4A 1_555 1_555
C5A C4A 1_555 1_555
C6A C1A 1_555 1_555
H3A C6A 1_555 1_555
C7A O1A 1_555 1_555
C8A C5A 1_555 1_555
C15A O5A 1_555 1_555
H10A C15A 1_555 1_555
H11A C15A 1_555 1_555
H12A C15A 1_555 1_555
Cd1_2 O3A 1_555 1_555
Cd1_3 O3 1_555 1_555
Cd1A_2 O3A 1_555 1_555
Cd1A_3 O3 1_555 1_555
O3_2 Cd1A 1_555 1_555
O3_3 Cd1 1_555 1_555
O3A_2 Cd1A 1_555 1_555
O3A_3 Cd1 1_555 1_555
O4_2 Cd1 1_555 1_555
O4A_2 Cd1A 1_555 1_555
O4 Cd1_3 1_555 1_555
C1 C7 1_555 1_555
C5 C6 1_555 1_555
C11 C12 1_555 1_555
C13 C14 1_555 1_555
C13A C14A 1_555 1_555
O2A C7A 1_555 1_555
O4A Cd1A_2 1_555 1_555
C1A C7A 1_555 1_555
C5A C6A 1_555 1_555

#END
