
#######################################################################
#
#                 Cambridge Crystallographic Data Centre
#                                CCDC 
#
#######################################################################
#
# If this CIF has been generated from an entry in the Cambridge 
# Structural Database, then it will include bibliographic, chemical, 
# crystal, experimental, refinement or atomic coordinate data resulting 
# from the CCDC's data processing and validation procedures.
#
#######################################################################

data_BOPCIT
_symmetry_cell_setting           triclinic
_symmetry_space_group_name_H-M   'P 1'
_symmetry_Int_Tables_number      1
_space_group_name_Hall           'P 1'
loop_
_symmetry_equiv_pos_site_id
_symmetry_equiv_pos_as_xyz
1 x,y,z
_cell_length_a                   21.064(4)
_cell_length_b                   6.7136(5)
_cell_length_c                   5.1000(4)
_cell_angle_alpha                81.887(7)
_cell_angle_beta                 92.748(9)
_cell_angle_gamma                89.856(9)
_cell_volume                     713.147
loop_
_atom_site_label
_atom_site_type_symbol
_atom_site_fract_x
_atom_site_fract_y
_atom_site_fract_z
Mg1 Mg -0.3294(3) 0.1200(11) 0.379(2)
N1 N -0.5726(5) 0.6307(14) -0.554(2)
O1 O -0.5133(5) 0.3783(13) -0.105(2)
O2 O -0.4336(5) 0.3509(15) 0.280(2)
H1 H -0.4530 0.3048 0.1592
O3 O -0.3581(6) 0.797(2) 0.343(3)
O4 O -0.3472(6) 0.4921(16) 0.573(3)
H2 H -0.3241 0.5497 0.6715
F1 F -0.7980(6) 0.3062(18) 0.170(3)
O5 O -0.3738(11) 0.091(3) -0.157(5)
H3 H -0.401(12) 0.20(2) -0.14(2)
O6 O -0.2451(10) 0.047(2) 0.654(5)
H4 H -0.229(7) 0.147(12) 0.75(3)
H5 H -0.250(4) -0.05(3) 0.81(2)
C1 C -0.7530(8) 0.338(3) 0.007(4)
C2 C -0.7391(8) 0.523(3) -0.100(4)
H6 H -0.7620 0.6312 -0.0569
C3 C -0.6895(7) 0.557(2) -0.280(3)
H7 H -0.6793 0.6883 -0.3502
C4 C -0.6566(7) 0.397(2) -0.351(3)
C5 C -0.6704(7) 0.207(3) -0.244(4)
H8 H -0.6473 0.0992 -0.2884
C6 C -0.7214(10) 0.172(3) -0.061(4)
H9 H -0.7325 0.0418 0.0094
C7 C -0.6042(5) 0.4252(17) -0.540(2)
H10 H -0.6212 0.4082 -0.7151
H11 H -0.5723 0.3212 -0.4864
C8 C -0.5886(7) 0.783(2) -0.755(2)
H12 H -0.6164 0.7767 -0.9005
C9 C -0.5549(7) 0.946(2) -0.694(3)
H13 H -0.5568 1.0731 -0.7949
C10 C -0.5183(6) 0.8968(19) -0.468(3)
H14 H -0.4913 0.9805 -0.3844
C11 C -0.5300(5) 0.6914(17) -0.386(2)
C12 C -0.5000(6) 0.5643(19) -0.159(3)
C13 C -0.4525(6) 0.651(2) 0.003(3)
H15 H -0.4436 0.7873 -0.0348
C14 C -0.4216(6) 0.541(2) 0.205(3)
C15 C -0.3719(7) 0.625(2) 0.379(3)
N2 N -0.0429(5) 0.5125(15) 1.003(2)
O7 O -0.1038(5) 0.7449(15) 0.550(2)
O8 O -0.1883(5) 0.8004(14) 0.173(2)
H16 H -0.1582 0.8328 0.2653
O9 O -0.2597(5) 0.3319(13) 0.094(2)
O10 O -0.2692(5) 0.6350(15) -0.133(2)
F2 F 0.1831(6) 0.831(2) 0.267(3)
C16 C 0.1322(8) 0.797(3) 0.452(4)
C17 C 0.1201(7) 0.600(3) 0.549(3)
H17 H 0.1427 0.4939 0.4984
C18 C 0.0731(6) 0.570(2) 0.723(3)
H18 H 0.0643 0.4399 0.8014
C19 C 0.0378(5) 0.7332(18) 0.784(3)
C20 C 0.0538(7) 0.925(2) 0.668(3)
H19 H 0.0310 1.0347 0.7082
C21 C 0.0991(9) 0.956(3) 0.505(4)
H20 H 0.1085 1.0860 0.4262
C22 C -0.0149(7) 0.7011(19) 0.986(3)
H21 H 0.0030 0.7192 1.1594
H22 H -0.0476 0.8033 0.9360
C23 C -0.0272(6) 0.3533(19) 1.187(3)
H23 H 0.0031 0.3579 1.3250
C24 C -0.0604(7) 0.186(2) 1.150(3)
H24 H -0.0581 0.0602 1.2543
C25 C -0.0994(6) 0.2437(19) 0.917(3)
H25 H -0.1276 0.1590 0.8417
C26 C -0.0901(6) 0.4398(19) 0.819(3)
C27 C -0.1190(6) 0.5674(19) 0.605(3)
C28 C -0.1664(5) 0.4815(19) 0.434(3)
H26 H -0.1754 0.3449 0.4660
C29 C -0.1975(6) 0.6002(18) 0.228(2)
C30 C -0.2460(6) 0.514(2) 0.051(3)
Mg1_2 Mg -0.3294(3) 1.1200(11) 0.379(2)
Mg1_3 Mg -0.3294(3) 0.1200(11) -0.621(2)
O3_2 O -0.3581(6) -0.203(2) 0.343(3)
O5_2 O -0.3738(11) 0.091(3) 0.843(5)
H3_2 H -0.401(12) 0.20(2) 0.86(2)
loop_
_geom_bond_atom_site_label_1
_geom_bond_atom_site_label_2
_geom_bond_site_symmetry_1
_geom_bond_site_symmetry_2
Mg1 O2 1_555 1_555
N1 C7 1_555 1_555
O1 C12 1_555 1_555
O2 H1 1_555 1_555
O3 C15 1_555 1_555
O4 Mg1 1_555 1_555
H2 O4 1_555 1_555
F1 C1 1_555 1_555
O5 Mg1 1_555 1_555
H3 O5 1_555 1_555
O6 Mg1 1_555 1_555
H4 O6 1_555 1_555
H5 O6 1_555 1_555
C1 C2 1_555 1_555
C2 H6 1_555 1_555
C3 C2 1_555 1_555
H7 C3 1_555 1_555
C4 C3 1_555 1_555
C5 C4 1_555 1_555
H8 C5 1_555 1_555
C6 C1 1_555 1_555
H9 C6 1_555 1_555
C7 C4 1_555 1_555
H10 C7 1_555 1_555
H11 C7 1_555 1_555
C8 N1 1_555 1_555
H12 C8 1_555 1_555
C9 C8 1_555 1_555
H13 C9 1_555 1_555
C10 C9 1_555 1_555
H14 C10 1_555 1_555
C11 N1 1_555 1_555
C12 C11 1_555 1_555
C13 C12 1_555 1_555
H15 C13 1_555 1_555
C14 O2 1_555 1_555
C15 O4 1_555 1_555
N2 C22 1_555 1_555
O7 C27 1_555 1_555
O8 H16 1_555 1_555
O9 Mg1 1_555 1_555
O10 C30 1_555 1_555
F2 C16 1_555 1_555
C16 C17 1_555 1_555
C17 H17 1_555 1_555
C18 C17 1_555 1_555
H18 C18 1_555 1_555
C19 C18 1_555 1_555
C20 C19 1_555 1_555
H19 C20 1_555 1_555
C21 C16 1_555 1_555
H20 C21 1_555 1_555
C22 C19 1_555 1_555
H21 C22 1_555 1_555
H22 C22 1_555 1_555
C23 N2 1_555 1_555
H23 C23 1_555 1_555
C24 C23 1_555 1_555
H24 C24 1_555 1_555
C25 C24 1_555 1_555
H25 C25 1_555 1_555
C26 N2 1_555 1_555
C27 C26 1_555 1_555
C28 C27 1_555 1_555
H26 C28 1_555 1_555
C29 O8 1_555 1_555
C30 O9 1_555 1_555
Mg1_2 O3 1_555 1_555
Mg1_3 O5 1_555 1_555
O3_2 Mg1 1_555 1_555
O5_2 Mg1 1_555 1_555
H3_2 O5_2 1_555 1_555
C5 C6 1_555 1_555
C10 C11 1_555 1_555
C13 C14 1_555 1_555
C14 C15 1_555 1_555
C20 C21 1_555 1_555
C25 C26 1_555 1_555
C28 C29 1_555 1_555
C29 C30 1_555 1_555

#END
