
#######################################################################
#
#                 Cambridge Crystallographic Data Centre
#                                CCDC 
#
#######################################################################
#
# If this CIF has been generated from an entry in the Cambridge 
# Structural Database, then it will include bibliographic, chemical, 
# crystal, experimental, refinement or atomic coordinate data resulting 
# from the CCDC's data processing and validation procedures.
#
#######################################################################

data_BOPDAM
_symmetry_cell_setting           monoclinic
_symmetry_space_group_name_H-M   'P 21/c'
_symmetry_Int_Tables_number      14
_space_group_name_Hall           '-P 2ybc'
loop_
_symmetry_equiv_pos_site_id
_symmetry_equiv_pos_as_xyz
1 x,y,z
2 -x,1/2+y,1/2-z
3 -x,-y,-z
4 x,1/2-y,1/2+z
_cell_length_a                   18.345(4)
_cell_length_b                   10.668(2)
_cell_length_c                   8.9212(18)
_cell_angle_alpha                90
_cell_angle_beta                 91.86(3)
_cell_angle_gamma                90
_cell_volume                     1745
loop_
_atom_site_label
_atom_site_type_symbol
_atom_site_fract_x
_atom_site_fract_y
_atom_site_fract_z
Ba1 Ba 0.247274(12) 0.25789(2) 0.01687(2)
O1 O 0.16660(14) 0.3257(3) 0.2511(3)
O2 O 0.10912(15) 0.3800(3) 0.4551(3)
C1 C 0.1157(2) 0.3772(4) 0.3181(4)
C2 C 0.0580(2) 0.4392(4) 0.2167(4)
H1 H 0.0810 0.5021 0.1556
H2 H 0.0364 0.3767 0.1500
C3 C -0.0588(2) 0.5578(4) 0.2084(4)
H3 H -0.0944 0.5944 0.2717
H4 H -0.0817 0.4952 0.1456
H5 H -0.0383 0.6218 0.1470
N1 N -0.00008(18) 0.4990(3) 0.3029(3)
H6 H -0.0203(19) 0.445(4) 0.362(4)
H7 H 0.0179(19) 0.561(4) 0.368(4)
O3 O 0.33072(16) 0.3490(3) 0.3103(3)
O4 O 0.38529(15) 0.3596(3) 0.0936(3)
C4 C 0.3814(2) 0.3806(4) 0.2296(5)
C5 C 0.4449(2) 0.4482(4) 0.3078(4)
H8 H 0.4266 0.5181 0.3650
H9 H 0.4697 0.3912 0.3772
C6 C 0.5607(2) 0.5617(5) 0.2655(5)
H10 H 0.5915 0.5893 0.1871
H11 H 0.5876 0.5064 0.3316
H12 H 0.5443 0.6329 0.3209
N2 N 0.49712(19) 0.4947(3) 0.1991(3)
H13 H 0.5145(19) 0.429(4) 0.144(4)
H14 H 0.473(2) 0.542(4) 0.137(4)
O5 O 0.22814(16) 0.5073(2) -0.0571(3)
O6 O 0.25950(15) 0.4208(3) -0.2711(3)
C7 C 0.2460(2) 0.5114(4) -0.1901(5)
C8 C 0.2508(2) 0.6405(3) -0.2618(4)
H15 H 0.2967 0.6479 -0.3121
H16 H 0.2116 0.6499 -0.3365
C9 C 0.2479(2) 0.8702(4) -0.2130(5)
H17 H 0.2444 0.9303 -0.1334
H18 H 0.2077 0.8813 -0.2833
H19 H 0.2929 0.8822 -0.2631
N3 N 0.24578(16) 0.7410(3) -0.1495(3)
H20 H 0.2829 0.7324 -0.0818
H21 H 0.2039 0.7315 -0.1008
Ba1C Ba 0.247274(12) 0.24211(2) 0.51687(2)
Ba1C_2 Ba 0.247274(12) 0.24211(2) -0.48313(2)
O1C O 0.16660(14) 0.1743(3) -0.2489(3)
O2C O 0.10912(15) 0.1200(3) -0.0449(3)
O3C O 0.33072(16) 0.1510(3) -0.1897(3)
O6C O 0.25950(15) 0.0792(3) 0.2289(3)
Br1 Br 0.41335(2) 0.72399(4) 0.00318(4)
Br2 Br 0.08289(2) 0.76908(4) 0.00234(4)
loop_
_geom_bond_atom_site_label_1
_geom_bond_atom_site_label_2
_geom_bond_site_symmetry_1
_geom_bond_site_symmetry_2
Ba1 O1 1_555 1_555
O1 C1 1_555 1_555
O2 C1 1_555 1_555
C1 C2 1_555 1_555
C2 H1 1_555 1_555
H2 C2 1_555 1_555
C3 H3 1_555 1_555
H4 C3 1_555 1_555
H5 C3 1_555 1_555
N1 C2 1_555 1_555
H6 N1 1_555 1_555
H7 N1 1_555 1_555
O3 Ba1 1_555 1_555
O4 Ba1 1_555 1_555
C4 O3 1_555 1_555
C5 C4 1_555 1_555
H8 C5 1_555 1_555
H9 C5 1_555 1_555
C6 H10 1_555 1_555
H11 C6 1_555 1_555
H12 C6 1_555 1_555
N2 C5 1_555 1_555
H13 N2 1_555 1_555
H14 N2 1_555 1_555
O5 Ba1 1_555 1_555
O6 Ba1 1_555 1_555
C7 O5 1_555 1_555
C8 C7 1_555 1_555
H15 C8 1_555 1_555
H16 C8 1_555 1_555
C9 H17 1_555 1_555
H18 C9 1_555 1_555
H19 C9 1_555 1_555
N3 C8 1_555 1_555
H20 N3 1_555 1_555
H21 N3 1_555 1_555
Ba1C O1 1_555 1_555
Ba1C_2 O6 1_555 1_555
O1C Ba1 1_555 1_555
O2C Ba1 1_555 1_555
O3C Ba1 1_555 1_555
O6C Ba1 1_555 1_555
O2 Ba1C 1_555 1_555
C3 N1 1_555 1_555
O3 Ba1C 1_555 1_555
O4 C4 1_555 1_555
C6 N2 1_555 1_555
O6 C7 1_555 1_555
C9 N3 1_555 1_555
Ba1C O6C 1_555 1_555
Ba1C_2 O1C 1_555 1_555
Ba1C_2 O3C 1_555 1_555

#END
