
#######################################################################
#
#                 Cambridge Crystallographic Data Centre
#                                CCDC 
#
#######################################################################
#
# If this CIF has been generated from an entry in the Cambridge 
# Structural Database, then it will include bibliographic, chemical, 
# crystal, experimental, refinement or atomic coordinate data resulting 
# from the CCDC's data processing and validation procedures.
#
#######################################################################

data_BOPHAR
_symmetry_cell_setting           triclinic
_symmetry_space_group_name_H-M   'P -1'
_symmetry_Int_Tables_number      2
_space_group_name_Hall           '-P 1'
loop_
_symmetry_equiv_pos_site_id
_symmetry_equiv_pos_as_xyz
1 x,y,z
2 -x,-y,-z
_cell_length_a                   9.5418(4)
_cell_length_b                   11.2720(8)
_cell_length_c                   12.7837(7)
_cell_angle_alpha                112.512(6)
_cell_angle_beta                 90.364(4)
_cell_angle_gamma                91.241(5)
_cell_volume                     1269.72
loop_
_atom_site_label
_atom_site_type_symbol
_atom_site_fract_x
_atom_site_fract_y
_atom_site_fract_z
Zn1 Zn 0.8623(3) 0.5102(3) 0.0606(3)
O1 O 0.686(2) 0.476(2) 0.1245(17)
O2 O 0.613(2) 0.586(2) 0.2987(18)
O3 O 0.835(2) 0.087(2) 0.438(2)
O4 O 0.634(2) -0.013(2) 0.369(2)
O5 O 1.095(2) -0.318(2) 0.0261(19)
O6 O 0.888(2) -0.2949(19) 0.1129(19)
O7 O 0.004(2) 0.510(2) 0.1806(18)
O8 O 0.207(2) 0.487(2) 0.0887(17)
C1 C 0.650(3) 0.485(3) 0.223(2)
C2 C 0.654(3) 0.364(3) 0.248(2)
C3 C 0.772(3) 0.288(3) 0.215(2)
H1 H 0.8355 0.3047 0.1673
C4 C 0.796(3) 0.188(3) 0.251(2)
C5 C 0.700(3) 0.165(3) 0.324(2)
C6 C 0.577(3) 0.235(3) 0.349(2)
H2 H 0.5106 0.2147 0.3928
C7 C 0.551(3) 0.333(3) 0.312(2)
C8 C 0.725(3) 0.072(3) 0.380(3)
C9 C 0.919(3) 0.104(3) 0.205(2)
C10 C 1.044(3) 0.155(3) 0.184(3)
H3 H 1.0555 0.2437 0.2062
C11 C 1.154(3) 0.076(3) 0.132(3)
H4 H 1.2373 0.1119 0.1182
C12 C 1.139(3) -0.055(3) 0.099(3)
H5 H 1.2121 -0.1080 0.0631
C13 C 1.015(3) -0.108(3) 0.120(2)
C14 C 0.906(3) -0.028(3) 0.172(2)
H6 H 0.8229 -0.0639 0.1854
C15 C 0.995(3) -0.251(3) 0.085(2)
C16 C 0.412(3) 0.397(3) 0.335(2)
C17 C 0.348(3) 0.430(3) 0.441(2)
H7 H 0.3933 0.4145 0.4988
C18 C 0.217(3) 0.485(3) 0.458(3)
H8 H 0.1766 0.5085 0.5292
C19 C 0.147(3) 0.505(3) 0.373(3)
H9 H 0.0588 0.5399 0.3852
C20 C 0.208(3) 0.472(3) 0.267(2)
C21 C 0.340(3) 0.419(3) 0.250(2)
H10 H 0.3818 0.3981 0.1797
C22 C 0.134(3) 0.492(3) 0.172(2)
Zn1_2 Zn -0.1377(3) 0.5102(3) 0.0606(3)
Zn1_3 Zn 0.8623(3) -0.4898(3) 0.0606(3)
Zn1A Zn 0.1377(3) 0.4898(3) -0.0606(3)
Zn1A_2 Zn 1.1377(3) -0.5102(3) -0.0606(3)
O5A O 0.905(2) 0.318(2) -0.0261(19)
O6_2 O 0.888(2) 0.7051(19) 0.1129(19)
O7_2 O 1.004(2) 0.510(2) 0.1806(18)
O8A O 0.793(2) 0.513(2) -0.0887(17)
N1 N 0.889(5) 0.890(5) 0.496(4)
H11 H 0.9698 0.9037 0.5353
H12 H 0.8759 0.9593 0.4782
C23 C 0.91(4) 0.78(3) 0.39(2)
H13 H 0.9996 0.7827 0.3634
H14 H 0.8397 0.7834 0.3349
H15 H 0.8915 0.7025 0.4032
C24 C 0.78(3) 0.89(3) 0.57(2)
H16 H 0.7954 0.9523 0.6419
H17 H 0.7776 0.8037 0.5748
H18 H 0.6915 0.8984 0.5379
N3 N 0.512(5) 0.766(5) 0.223(6)
H27 H 0.5540 0.6998 0.2324
H28 H 0.5612 0.8379 0.2647
C27 C 0.37(2) 0.775(19) 0.268(18)
H29 H 0.3795 0.7929 0.3479
H30 H 0.3222 0.6958 0.2304
H31 H 0.3255 0.8437 0.2570
C28 C 0.52(2) 0.75(2) 0.104(16)
H32 H 0.6184 0.7299 0.0806
H33 H 0.4955 0.8248 0.0949
H34 H 0.4629 0.6774 0.0589
N2? N 0.766(8) 0.823(6) 0.450(6)
H19? H 0.6995 0.7596 0.4304
H20? H 0.7323 0.8862 0.4316
C25? C 0.88(5) 0.78(3) 0.39(2)
H21? H 0.8538 0.7456 0.3085
H22? H 0.9158 0.7075 0.4048
H23? H 0.9496 0.8439 0.4039
C26? C 0.78(5) 0.87(4) 0.58(3)
H24? H 0.6954 0.8965 0.6152
H25? H 0.8451 0.9504 0.6043
H26? H 0.8265 0.8106 0.6015
N4? N 0.442(13) 0.690(13) 0.173(14)
H35? H 0.5098 0.6690 0.2116
H36? H 0.3876 0.6194 0.1390
C29? C 0.35(5) 0.79(5) 0.26(3)
H37? H 0.3026 0.7528 0.3068
H38? H 0.2828 0.8229 0.2231
H39? H 0.4092 0.8618 0.3096
C30? C 0.50(4) 0.72(5) 0.09(3)
H40? H 0.5291 0.6414 0.0336
H41? H 0.5838 0.7725 0.1249
H42? H 0.4377 0.7638 0.0653
loop_
_geom_bond_atom_site_label_1
_geom_bond_atom_site_label_2
_geom_bond_site_symmetry_1
_geom_bond_site_symmetry_2
Zn1 O1 1_555 1_555
O1 C1 1_555 1_555
O2 C1 1_555 1_555
O3 C8 1_555 1_555
O4 C8 1_555 1_555
O5 C15 1_555 1_555
O6 C15 1_555 1_555
O7 C22 1_555 1_555
O8 C22 1_555 1_555
C1 C2 1_555 1_555
C2 C3 1_555 1_555
C3 H1 1_555 1_555
C4 C3 1_555 1_555
C5 C4 1_555 1_555
C6 C5 1_555 1_555
H2 C6 1_555 1_555
C7 C2 1_555 1_555
C8 C5 1_555 1_555
C9 C4 1_555 1_555
C10 C9 1_555 1_555
H3 C10 1_555 1_555
C11 C10 1_555 1_555
H4 C11 1_555 1_555
C12 C11 1_555 1_555
H5 C12 1_555 1_555
C13 C12 1_555 1_555
C14 C9 1_555 1_555
H6 C14 1_555 1_555
C15 C13 1_555 1_555
C16 C7 1_555 1_555
C17 C16 1_555 1_555
H7 C17 1_555 1_555
C18 C17 1_555 1_555
H8 C18 1_555 1_555
C19 C18 1_555 1_555
H9 C19 1_555 1_555
C20 C19 1_555 1_555
C21 C16 1_555 1_555
H10 C21 1_555 1_555
C22 C20 1_555 1_555
N1 H11 1_555 1_555
H12 N1 1_555 1_555
C23 N1 1_555 1_555
H13 C23 1_555 1_555
H14 C23 1_555 1_555
H15 C23 1_555 1_555
C24 N1 1_555 1_555
H16 C24 1_555 1_555
H17 C24 1_555 1_555
H18 C24 1_555 1_555
N3 H27 1_555 1_555
H28 N3 1_555 1_555
C27 N3 1_555 1_555
H29 C27 1_555 1_555
H30 C27 1_555 1_555
H31 C27 1_555 1_555
C28 N3 1_555 1_555
H32 C28 1_555 1_555
H33 C28 1_555 1_555
H34 C28 1_555 1_555
Zn1_2 O7 1_555 1_555
Zn1_3 O6 1_555 1_555
Zn1A O8 1_555 1_555
Zn1A_2 O5 1_555 1_555
O5A Zn1 1_555 1_555
O6_2 Zn1 1_555 1_555
O7_2 Zn1 1_555 1_555
O8A Zn1 1_555 1_555
C6 C7 1_555 1_555
C13 C14 1_555 1_555
C20 C21 1_555 1_555

#END
