
#######################################################################
#
#                 Cambridge Crystallographic Data Centre
#                                CCDC 
#
#######################################################################
#
# If this CIF has been generated from an entry in the Cambridge 
# Structural Database, then it will include bibliographic, chemical, 
# crystal, experimental, refinement or atomic coordinate data resulting 
# from the CCDC's data processing and validation procedures.
#
#######################################################################

data_BOPTOQ
_symmetry_cell_setting           triclinic
_symmetry_space_group_name_H-M   'P -1'
_symmetry_Int_Tables_number      2
_space_group_name_Hall           '-P 1'
loop_
_symmetry_equiv_pos_site_id
_symmetry_equiv_pos_as_xyz
1 x,y,z
2 -x,-y,-z
_cell_length_a                   10.840(2)
_cell_length_b                   11.755(2)
_cell_length_c                   13.315(3)
_cell_angle_alpha                104.01(3)
_cell_angle_beta                 103.38(3)
_cell_angle_gamma                114.99(3)
_cell_volume                     1380.49
loop_
_atom_site_label
_atom_site_type_symbol
_atom_site_fract_x
_atom_site_fract_y
_atom_site_fract_z
O23 O -1.0931(11) -0.7879(10) 0.2974(7)
H9 H -1.1817 -0.8539 0.2642
H10 H -1.0770 -0.7568 0.3665
Si1 Si -0.5000 0.0000 0.5000
W1 W -0.60985(3) 0.14134(3) 0.70338(2)
W2 W -0.48032(3) -0.08253(3) 0.73785(2)
W3 W -0.23532(3) 0.24493(3) 0.76358(3)
W4 W -0.62828(3) 0.22413(2) 0.46741(2)
W5 W -0.87565(2) -0.10614(3) 0.43879(2)
W6 W -0.74797(3) -0.33060(3) 0.47379(2)
Cu1 Cu 0.00173(9) 0.59052(12) 0.85906(14)
O1 O -0.4676(5) -0.1194(6) 0.8523(4)
O2 O -0.6611(7) 0.2101(7) 0.7999(5)
O3 O -0.1039(5) 0.3640(5) 0.8899(4)
O4 O -0.1172(8) 0.1881(6) 0.7047(5)
O5 O -0.8665(6) -0.4884(6) 0.4591(6)
O6 O -0.6625(5) -0.2366(8) 0.6299(5)
O7 O -0.4031(6) 0.2523(6) 0.7703(9)
C1 C -0.2597(8) 0.5899(8) 0.7684(8)
H1 H -0.2353 0.5855 0.7056
O8 O -0.7886(8) -0.0022(6) 0.5948(4)
C2 C -0.4273(6) 0.5933(6) 0.8579(6)
C3 C -0.3947(7) 0.5801(7) 0.7617(7)
H2 H -0.4612 0.5653 0.6947
O9 O -0.2080(7) 0.3571(6) 0.6820(5)
C4 C -0.5682(6) 0.5887(6) 0.8571(6)
C5 C -0.1975(8) 0.6172(9) 0.9603(9)
H3 H -0.1324 0.6296 1.0267
O10 O -0.4707(8) 0.0593(7) 0.6340(6)
N1 N -0.1625(6) 0.6055(7) 0.8638(7)
O11 O -0.5904(7) 0.0085(7) 0.7478(11)
C6 C -0.3292(8) 0.6102(8) 0.9549(8)
H4 H -0.3525 0.6170 1.0182
O12 O -0.3054(7) 0.0905(6) 0.8015(10)
O13 O -1.0537(6) -0.1607(7) 0.4083(5)
N2 N -0.8248(6) 0.5925(7) 0.8540(7)
O14 O -0.8086(8) 0.0612(6) 0.4174(4)
O15 O -0.6090(7) 0.2450(6) 0.6164(5)
O16 O -0.6841(7) 0.3330(5) 0.4498(6)
O17 O -0.6742(8) -0.1297(7) 0.4357(6)
C7 C -0.5708(8) 0.6735(9) 0.9512(6)
H5 H -0.4862 0.7327 1.0153
C8 C -0.7012(9) 0.5084(9) 0.7628(7)
H6 H -0.7052 0.4507 0.6989
O18 O -0.3900(8) -0.0484(7) 0.4813(6)
O19 O -0.3810(7) -0.1539(9) 0.6752(5)
O20 O -0.4211(5) 0.3339(9) 0.5200(5)
C9 C -0.7020(7) 0.6652(8) 0.9446(6)
H7 H -0.7056 0.7146 1.0089
C10 C -0.8184(8) 0.5137(9) 0.7636(9)
H8 H -0.9029 0.4606 0.6987
O21 O -0.8697(8) -0.2525(6) 0.4735(5)
O22 O -0.4890(8) 0.1175(7) 0.4581(6)
W1A W -0.39015(3) -0.14134(3) 0.29662(2)
W2A W -0.51968(3) 0.08253(3) 0.26215(2)
W3A W -0.76468(3) -0.24493(3) 0.23642(3)
W4A W -0.37172(3) -0.22413(2) 0.53259(2)
W5A W -0.12435(2) 0.10614(3) 0.56121(2)
W6A W -0.25203(3) 0.33060(3) 0.52621(2)
Cu1A Cu -1.00173(9) -0.59052(12) 0.14094(14)
Cu1_2 Cu -0.99827(9) 0.59052(12) 0.85906(14)
Cu1_3 Cu 1.00173(9) 0.59052(12) 0.85906(14)
O1A O -0.5324(5) 0.1194(6) 0.1477(4)
O2A O -0.3389(7) -0.2101(7) 0.2001(5)
O3A O -0.8961(5) -0.3640(5) 0.1101(4)
O4A O -0.8828(8) -0.1881(6) 0.2953(5)
O5A O -0.1335(6) 0.4884(6) 0.5409(6)
O6A O -0.3375(5) 0.2366(8) 0.3701(5)
O7A O -0.5969(6) -0.2523(6) 0.2297(9)
C1_2 C 0.7403(8) 0.5899(8) 0.7684(8)
H1_2 H 0.7647 0.5855 0.7056
O8A O -0.2114(8) 0.0022(6) 0.4052(4)
C2_2 C 0.5727(6) 0.5933(6) 0.8579(6)
C3_2 C 0.6053(7) 0.5801(7) 0.7617(7)
H2_2 H 0.5388 0.5653 0.6947
O9A O -0.7920(7) -0.3571(6) 0.3180(5)
C4_2 C 0.4318(6) 0.5887(6) 0.8571(6)
C5_2 C 0.8025(8) 0.6172(9) 0.9603(9)
H3_2 H 0.8676 0.6296 1.0267
O10A O -0.5293(8) -0.0593(7) 0.3660(6)
N1_2 N 0.8375(6) 0.6055(7) 0.8638(7)
N1A N -0.8375(6) -0.6055(7) 0.1362(7)
O11A O -0.4096(7) -0.0085(7) 0.2522(11)
C6_2 C 0.6708(8) 0.6102(8) 0.9549(8)
H4_2 H 0.6475 0.6170 1.0182
O12A O -0.6946(7) -0.0905(6) 0.1985(10)
O13A O 0.0537(6) 0.1607(7) 0.5917(5)
N2_2 N 0.1752(6) 0.5925(7) 0.8540(7)
N2A N -1.1752(6) -0.5925(7) 0.1460(7)
O14A O -0.1914(8) -0.0612(6) 0.5826(4)
O15A O -0.3910(7) -0.2450(6) 0.3836(5)
O16A O -0.3159(7) -0.3330(5) 0.5502(6)
O17A O -0.3258(8) 0.1297(7) 0.5643(6)
C7_2 C 0.4292(8) 0.6735(9) 0.9512(6)
H5_2 H 0.5138 0.7327 1.0153
C8_2 C 0.2988(9) 0.5084(9) 0.7628(7)
H6_2 H 0.2948 0.4507 0.6989
O18A O -0.6100(8) 0.0484(7) 0.5187(6)
O19A O -0.6190(7) 0.1539(9) 0.3248(5)
O20A O -0.5789(5) -0.3339(9) 0.4800(5)
C9_2 C 0.2980(7) 0.6652(8) 0.9446(6)
H7_2 H 0.2944 0.7146 1.0089
C10_2 C 0.1816(8) 0.5137(9) 0.7636(9)
H8_2 H 0.0971 0.4606 0.6987
O21A O -0.1303(8) 0.2525(6) 0.5265(5)
O22A O -0.5110(8) -0.1175(7) 0.5419(6)
loop_
_geom_bond_atom_site_label_1
_geom_bond_atom_site_label_2
_geom_bond_site_symmetry_1
_geom_bond_site_symmetry_2
Si1 O10 1_555 1_555
W1 O2 1_555 1_555
W2 O1 1_555 1_555
W3 O3 1_555 1_555
W4 O14 1_555 1_555
W5 O8 1_555 1_555
W6 O5 1_555 1_555
Cu1 O3 1_555 1_555
O4 W3 1_555 1_555
O6 W2 1_555 1_555
O7 W1 1_555 1_555
C1 H1 1_555 1_555
O8 W1 1_555 1_555
C2 C3 1_555 1_555
C3 C1 1_555 1_555
H2 C3 1_555 1_555
O9 W3 1_555 1_555
C4 C2 1_555 1_555
C5 H3 1_555 1_555
O10 W1 1_555 1_555
N1 Cu1 1_555 1_555
O11 W1 1_555 1_555
C6 C2 1_555 1_555
H4 C6 1_555 1_555
O12 W2 1_555 1_555
O13 W5 1_555 1_555
N2 C9 1_555 1_555
O14 W5 1_555 1_555
O15 W1 1_555 1_555
O16 W4 1_555 1_555
O17 Si1 1_555 1_555
C7 C4 1_555 1_555
H5 C7 1_555 1_555
C8 C4 1_555 1_555
H6 C8 1_555 1_555
O18 Si1 1_555 1_555
O19 W2 1_555 1_555
O20 W4 1_555 1_555
C9 C7 1_555 1_555
H7 C9 1_555 1_555
C10 N2 1_555 1_555
H8 C10 1_555 1_555
O21 W5 1_555 1_555
O22 Si1 1_555 1_555
O23 H9 1_555 1_555
H10 O23 1_555 1_555
W1A O18 1_555 1_555
W2A O22 1_555 1_555
W3A O17 1_555 1_555
W4A O18 1_555 1_555
W5A O4 1_555 1_555
W6A O9 1_555 1_555
Cu1A O3A 1_555 1_555
Cu1_2 N2 1_555 1_555
Cu1_3 N1_2 1_555 1_555
O1A W2A 1_555 1_555
O2A W1A 1_555 1_555
O3A W3A 1_555 1_555
O4A W5 1_555 1_555
O5A W6A 1_555 1_555
O6A W2A 1_555 1_555
O7A W1A 1_555 1_555
C1_2 H1_2 1_555 1_555
O8A W1A 1_555 1_555
C2_2 C3_2 1_555 1_555
C3_2 C1_2 1_555 1_555
H2_2 C3_2 1_555 1_555
O9A W6 1_555 1_555
C4_2 C2_2 1_555 1_555
C5_2 H3_2 1_555 1_555
O10A Si1 1_555 1_555
N1_2 C1_2 1_555 1_555
N1A Cu1A 1_555 1_555
O11A W1A 1_555 1_555
C6_2 C2_2 1_555 1_555
H4_2 C6_2 1_555 1_555
O12A W2A 1_555 1_555
O13A W5A 1_555 1_555
N2_2 Cu1 1_555 1_555
N2A Cu1A 1_555 1_555
O14A W4A 1_555 1_555
O15A W1A 1_555 1_555
O16A W4A 1_555 1_555
O17A Si1 1_555 1_555
C7_2 C4_2 1_555 1_555
H5_2 C7_2 1_555 1_555
C8_2 C4_2 1_555 1_555
H6_2 C8_2 1_555 1_555
O18A Si1 1_555 1_555
O19A W4 1_555 1_555
O20A W6 1_555 1_555
C9_2 N2_2 1_555 1_555
H7_2 C9_2 1_555 1_555
C10_2 N2_2 1_555 1_555
H8_2 C10_2 1_555 1_555
O21A W5A 1_555 1_555
O22A Si1 1_555 1_555
W1 O18A 1_555 1_555
W2 O10 1_555 1_555
W2 O11 1_555 1_555
W2 O22A 1_555 1_555
W3 O7 1_555 1_555
W3 O10 1_555 1_555
W3 O12 1_555 1_555
W3 O17A 1_555 1_555
W4 O15 1_555 1_555
W4 O22 1_555 1_555
W4 O18A 1_555 1_555
W5 O17 1_555 1_555
W5 O18A 1_555 1_555
W6 O6 1_555 1_555
W6 O17 1_555 1_555
W6 O21 1_555 1_555
W6 O22A 1_555 1_555
C1 N1 1_555 1_555
C5 N1 1_555 1_555
C5 C6 1_555 1_555
C8 C10 1_555 1_555
O18 W5A 1_555 1_555
O18 O22A 1_555 1_555
O19 W4A 1_555 1_555
O20 W6A 1_555 1_555
O22 W6A 1_555 1_555
O22 O18A 1_555 1_555
W1A O10A 1_555 1_555
W2A O10A 1_555 1_555
W2A O11A 1_555 1_555
W2A O19A 1_555 1_555
W3A O4A 1_555 1_555
W3A O7A 1_555 1_555
W3A O9A 1_555 1_555
W3A O10A 1_555 1_555
W3A O12A 1_555 1_555
W4A O15A 1_555 1_555
W4A O20A 1_555 1_555
W4A O22A 1_555 1_555
W5A O8A 1_555 1_555
W5A O14A 1_555 1_555
W5A O17A 1_555 1_555
W6A O6A 1_555 1_555
W6A O17A 1_555 1_555
W6A O21A 1_555 1_555
C5_2 N1_2 1_555 1_555
C5_2 C6_2 1_555 1_555
C7_2 C9_2 1_555 1_555
C8_2 C10_2 1_555 1_555

#END
