
#######################################################################
#
#                 Cambridge Crystallographic Data Centre
#                                CCDC 
#
#######################################################################
#
# If this CIF has been generated from an entry in the Cambridge 
# Structural Database, then it will include bibliographic, chemical, 
# crystal, experimental, refinement or atomic coordinate data resulting 
# from the CCDC's data processing and validation procedures.
#
#######################################################################

data_BOPTOQ01
_symmetry_cell_setting           triclinic
_symmetry_space_group_name_H-M   'P -1'
_symmetry_Int_Tables_number      2
_space_group_name_Hall           '-P 1'
loop_
_symmetry_equiv_pos_site_id
_symmetry_equiv_pos_as_xyz
1 x,y,z
2 -x,-y,-z
_cell_length_a                   10.8597(5)
_cell_length_b                   11.8517(6)
_cell_length_c                   13.3478(10)
_cell_angle_alpha                104.2500(10)
_cell_angle_beta                 103.2530(10)
_cell_angle_gamma                114.8830(10)
_cell_volume                     1398.11
loop_
_atom_site_label
_atom_site_type_symbol
_atom_site_fract_x
_atom_site_fract_y
_atom_site_fract_z
Si1 Si 0.5000 -1.0000 -0.5000
W1 W 0.51930(7) -1.08111(7) -0.26203(5)
W2 W 0.87519(6) -0.89466(6) -0.43914(4)
W3 W 0.76459(7) -0.75633(6) -0.23658(5)
W4 W 0.25280(7) -1.32817(6) -0.52600(5)
W5 W 0.62856(6) -1.22240(6) -0.46698(4)
W6 W 0.39033(6) -0.85856(6) -0.29662(5)
O1 O 0.7879(16) -0.9970(11) -0.5949(9)
O2 O 0.869(3) -0.7515(18) -0.4754(12)
O3 O 0.6100(13) -1.2426(12) -0.6162(9)
O4 O 0.8080(15) -1.0596(12) -0.4185(9)
O5 O 0.6865(18) -1.3285(13) -0.4487(11)
O6 O 0.3410(13) -1.2325(17) -0.3676(10)
O7 O 0.1367(14) -1.4845(11) -0.5400(13)
O8 O 0.3374(15) -0.7936(13) -0.2000(10)
O9 O 0.5305(14) -1.1171(14) -0.1465(9)
O10 O 0.8916(11) -0.6392(11) -0.1099(8)
O11 O 0.4222(12) -1.3388(19) -0.5217(11)
O12 O 0.5279(17) -0.9435(15) -0.3657(13)
O13 O 0.6968(14) -0.9115(15) -0.2020(19)
O14 O 0.6217(13) -1.1513(17) -0.3254(10)
O15 O 0.6717(19) -0.8738(17) -0.4369(14)
O16 O 0.879(3) -0.8150(19) -0.2965(13)
O17 O 0.789(3) -0.6453(19) -0.3197(13)
O18 O 0.4853(19) -1.1167(17) -0.4549(13)
O19 O 0.5985(13) -0.7453(14) -0.2268(17)
O20 O 1.0539(12) -0.8393(15) -0.4091(12)
O21 O 0.4144(14) -0.9865(14) -0.246(2)
O22 O 0.3883(18) -0.9554(16) -0.4825(13)
W1A W 0.48070(7) -0.91889(7) -0.73797(5)
W2A W 0.12481(6) -1.10534(6) -0.56086(4)
W3A W 0.23541(7) -1.24367(6) -0.76342(5)
W4A W 0.74720(7) -0.67183(6) -0.47400(5)
W5A W 0.37144(6) -0.77760(6) -0.53302(4)
W6A W 0.60967(6) -1.14144(6) -0.70338(5)
O1A O 0.2121(16) -1.0030(11) -0.4051(9)
O2A O 0.131(3) -1.2485(18) -0.5246(12)
O3A O 0.3900(13) -0.7574(12) -0.3838(9)
O4A O 0.1920(15) -0.9404(12) -0.5815(9)
O5A O 0.3135(18) -0.6715(13) -0.5513(11)
O6A O 0.6590(13) -0.7675(17) -0.6324(10)
O7A O 0.8633(14) -0.5155(11) -0.4600(13)
O8A O 0.6626(15) -1.2064(13) -0.8000(10)
O9A O 0.4695(14) -0.8829(14) -0.8535(9)
O10A O 0.1084(11) -1.3608(11) -0.8901(8)
O11A O 0.5778(12) -0.6612(19) -0.4783(11)
O12A O 0.4721(17) -1.0565(15) -0.6343(13)
O13A O 0.3032(14) -1.0885(15) -0.7980(19)
O14A O 0.3783(13) -0.8487(17) -0.6746(10)
O15A O 0.3283(19) -1.1262(17) -0.5631(14)
O16A O 0.121(3) -1.1850(19) -0.7035(13)
O17A O 0.211(3) -1.3547(19) -0.6803(13)
O18A O 0.5147(19) -0.8833(17) -0.5451(13)
O19A O 0.4015(13) -1.2547(14) -0.7732(17)
O20A O -0.0539(12) -1.1607(15) -0.5909(12)
O21A O 0.5856(14) -1.0135(14) -0.754(2)
O22A O 0.6117(18) -1.0446(16) -0.5175(13)
O23 O 1.092(3) -0.214(3) -0.304(2)
O24 O 1.065(3) -0.072(3) -0.129(2)
Cu1 Cu 1.0014(2) -0.4110(3) -0.1418(3)
C1 C 0.3039(19) -0.4897(19) -0.2404(15)
H1 H 0.3019 -0.5442 -0.3048
C2 C 0.6070(15) -0.4217(15) -0.2387(13)
H2 H 0.5398 -0.4390 -0.3060
C3 C 0.4314(13) -0.4117(14) -0.1449(12)
C4 C 0.7373(17) -0.4105(15) -0.2330(15)
H3 H 0.7616 -0.4129 -0.2956
C5 C 0.8033(18) -0.382(2) -0.0479(15)
H4 H 0.8726 -0.3662 0.0175
C6 C 0.5727(13) -0.4071(15) -0.1427(12)
C7 C 0.6692(17) -0.3891(17) -0.0432(15)
H5 H 0.6486 -0.3823 0.0212
C8 C 0.1821(19) -0.484(2) -0.237(2)
H6 H 0.0978 -0.5357 -0.3022
C9 C 0.4245(16) -0.3314(18) -0.0542(12)
H7 H 0.5089 -0.2731 0.0097
C10 C 0.296(2) -0.336(2) -0.0569(15)
H8 H 0.2942 -0.2850 0.0072
N1 N 0.8354(13) -0.3955(14) -0.1382(14)
N2 N 0.1752(13) -0.4107(14) -0.1477(14)
Cu1_2 Cu 2.0014(2) -0.4110(3) -0.1418(3)
Cu1_3 Cu 0.0014(2) -0.4110(3) -0.1418(3)
C1_2 C 1.3039(19) -0.4897(19) -0.2404(15)
H1_2 H 1.3019 -0.5442 -0.3048
C2_2 C 1.6070(15) -0.4217(15) -0.2387(13)
H2_2 H 1.5398 -0.4390 -0.3060
C3_2 C 1.4314(13) -0.4117(14) -0.1449(12)
C4_2 C 1.7373(17) -0.4105(15) -0.2330(15)
H3_2 H 1.7616 -0.4129 -0.2956
C5_2 C 1.8033(18) -0.382(2) -0.0479(15)
H4_2 H 1.8726 -0.3662 0.0175
C6_2 C 1.5727(13) -0.4071(15) -0.1427(12)
C7_2 C 1.6692(17) -0.3891(17) -0.0432(15)
H5_2 H 1.6486 -0.3823 0.0212
C8_2 C 1.1821(19) -0.484(2) -0.237(2)
H6_2 H 1.0978 -0.5357 -0.3022
C9_2 C 1.4245(16) -0.3314(18) -0.0542(12)
H7_2 H 1.5089 -0.2731 0.0097
C10_2 C 1.296(2) -0.336(2) -0.0569(15)
H8_2 H 1.2942 -0.2850 0.0072
N1_2 N 1.8354(13) -0.3955(14) -0.1382(14)
N2_2 N 1.1752(13) -0.4107(14) -0.1477(14)
N2_3 N 2.1752(13) -0.4107(14) -0.1477(14)
loop_
_geom_bond_atom_site_label_1
_geom_bond_atom_site_label_2
_geom_bond_site_symmetry_1
_geom_bond_site_symmetry_2
Cu1 N1 1_555 1_555
Si1 O12 1_555 1_555
W1 O6 1_555 1_555
W2 O1 1_555 1_555
W3 O10 1_555 1_555
W4 O6 1_555 1_555
W5 O3 1_555 1_555
W6 O8 1_555 1_555
O1 W6A 1_555 1_555
O2 W2 1_555 1_555
O3 W6A 1_555 1_555
O4 W2 1_555 1_555
O5 W5 1_555 1_555
O7 W4 1_555 1_555
O9 W1 1_555 1_555
O11 W4 1_555 1_555
O12 W1 1_555 1_555
O13 W1 1_555 1_555
O14 W1 1_555 1_555
O15 Si1 1_555 1_555
O16 W2 1_555 1_555
O17 W3 1_555 1_555
O18 Si1 1_555 1_555
O19 W3 1_555 1_555
O20 W2 1_555 1_555
O21 W1 1_555 1_555
O22 Si1 1_555 1_555
C1 H1 1_555 1_555
C2 H2 1_555 1_555
C3 C1 1_555 1_555
C4 C2 1_555 1_555
H3 C4 1_555 1_555
C5 H4 1_555 1_555
C6 C2 1_555 1_555
C7 C5 1_555 1_555
H5 C7 1_555 1_555
C8 C1 1_555 1_555
H6 C8 1_555 1_555
C9 C3 1_555 1_555
H7 C9 1_555 1_555
C10 C9 1_555 1_555
H8 C10 1_555 1_555
N1 C4 1_555 1_555
N2 C8 1_555 1_555
Cu1_2 N1_2 1_555 1_555
Cu1_3 N2 1_555 1_555
W1A O6A 1_555 1_555
W2A O22 1_555 1_555
W3A O10A 1_555 1_555
W4A O2 1_555 1_555
W5A O22 1_555 1_555
W6A O8A 1_555 1_555
O1A W6 1_555 1_555
O2A W4 1_555 1_555
O3A W6 1_555 1_555
O4A W2A 1_555 1_555
O5A W5A 1_555 1_555
O6A W4A 1_555 1_555
O7A W4A 1_555 1_555
O9A W1A 1_555 1_555
O11A W4A 1_555 1_555
O12A Si1 1_555 1_555
O13A W1A 1_555 1_555
O14A W1A 1_555 1_555
O15A Si1 1_555 1_555
O16A W2A 1_555 1_555
O17A W4 1_555 1_555
O18A Si1 1_555 1_555
O19A W3A 1_555 1_555
O20A W2A 1_555 1_555
O21A W1A 1_555 1_555
O22A Si1 1_555 1_555
C1_2 H1_2 1_555 1_555
C2_2 H2_2 1_555 1_555
C3_2 C1_2 1_555 1_555
C4_2 C2_2 1_555 1_555
H3_2 C4_2 1_555 1_555
C5_2 H4_2 1_555 1_555
C6_2 C2_2 1_555 1_555
C7_2 C5_2 1_555 1_555
H5_2 C7_2 1_555 1_555
C8_2 C1_2 1_555 1_555
H6_2 C8_2 1_555 1_555
C9_2 C3_2 1_555 1_555
H7_2 C9_2 1_555 1_555
C10_2 C9_2 1_555 1_555
H8_2 C10_2 1_555 1_555
N1_2 C4_2 1_555 1_555
N2_2 Cu1 1_555 1_555
N2_3 Cu1_2 1_555 1_555
W1 O18 1_555 1_555
W2 O15 1_555 1_555
W2 O22A 1_555 1_555
W3 O12 1_555 1_555
W3 O13 1_555 1_555
W3 O15 1_555 1_555
W3 O16 1_555 1_555
W4 O18 1_555 1_555
W4 O15A 1_555 1_555
W5 O4 1_555 1_555
W5 O11 1_555 1_555
W5 O14 1_555 1_555
W5 O18 1_555 1_555
W5 O22A 1_555 1_555
W6 O12 1_555 1_555
W6 O19 1_555 1_555
W6 O21 1_555 1_555
W6 O22 1_555 1_555
O15 W4A 1_555 1_555
O17 W4A 1_555 1_555
C3 C6 1_555 1_555
C5 N1 1_555 1_555
C6 C7 1_555 1_555
C10 N2 1_555 1_555
W1A O12A 1_555 1_555
W1A O18A 1_555 1_555
W2A O1A 1_555 1_555
W2A O2A 1_555 1_555
W2A O15A 1_555 1_555
W3A O12A 1_555 1_555
W3A O13A 1_555 1_555
W3A O15A 1_555 1_555
W3A O16A 1_555 1_555
W3A O17A 1_555 1_555
W4A O18A 1_555 1_555
W5A O3A 1_555 1_555
W5A O4A 1_555 1_555
W5A O11A 1_555 1_555
W5A O14A 1_555 1_555
W5A O18A 1_555 1_555
W6A O12A 1_555 1_555
W6A O19A 1_555 1_555
W6A O21A 1_555 1_555
W6A O22A 1_555 1_555
C3_2 C6_2 1_555 1_555
C5_2 N1_2 1_555 1_555
C6_2 C7_2 1_555 1_555
C8_2 N2_2 1_555 1_555
C10_2 N2_2 1_555 1_555

#END
