
#######################################################################
#
#                 Cambridge Crystallographic Data Centre
#                                CCDC 
#
#######################################################################
#
# If this CIF has been generated from an entry in the Cambridge 
# Structural Database, then it will include bibliographic, chemical, 
# crystal, experimental, refinement or atomic coordinate data resulting 
# from the CCDC's data processing and validation procedures.
#
#######################################################################

data_BOPVIM
_symmetry_cell_setting           orthorhombic
_symmetry_space_group_name_H-M   'P c c n'
_symmetry_Int_Tables_number      56
_space_group_name_Hall           '-P 2ab 2ac'
loop_
_symmetry_equiv_pos_site_id
_symmetry_equiv_pos_as_xyz
1 x,y,z
2 1/2-x,1/2-y,z
3 1/2+x,-y,1/2-z
4 -x,1/2+y,1/2-z
5 -x,-y,-z
6 1/2+x,1/2+y,-z
7 1/2-x,y,1/2+z
8 x,1/2-y,1/2+z
_cell_length_a                   11.2787(8)
_cell_length_b                   16.1931(10)
_cell_length_c                   9.2169(7)
_cell_angle_alpha                90
_cell_angle_beta                 90
_cell_angle_gamma                90
_cell_volume                     1683.35
loop_
_atom_site_label
_atom_site_type_symbol
_atom_site_fract_x
_atom_site_fract_y
_atom_site_fract_z
Pb1 Pb 0.2500 0.7500 0.04077(3)
O1 O 0.2051(4) 0.6632(2) 0.2576(4)
C1 C 0.1222(4) 0.4289(3) 0.4534(5)
C2 C 0.0223(4) 0.3860(3) 0.3939(5)
N1 N -0.0211(3) 0.3147(3) 0.4537(4)
O2 O 0.1158(3) 0.6182(2) 0.0603(3)
C3 C 0.0048(4) 0.4899(3) 0.2070(5)
H1 H -0.0339 0.5102 0.1226
C4 C 0.1584(4) 0.5042(3) 0.3869(5)
H2 H 0.2234 0.5337 0.4267
C5 C 0.0340(5) 0.2861(4) 0.5713(6)
H3 H 0.0049 0.2368 0.6141
C6 C 0.1018(4) 0.5351(3) 0.2671(5)
C7 C -0.0333(4) 0.4177(3) 0.2692(5)
H4 H -0.0982 0.3888 0.2275
C8 C 0.1762(4) 0.3947(3) 0.5770(6)
H5 H 0.2433 0.4204 0.6199
C9 C 0.1303(5) 0.3237(3) 0.6345(6)
H6 H 0.1653 0.3001 0.7187
C10 C 0.1419(4) 0.6098(3) 0.1899(5)
Pb1B Pb -0.2500 0.2500 0.45923(3)
Pb1B_2 Pb 0.7500 1.2500 0.45923(3)
O1A O 0.2949(4) 0.8368(2) 0.2576(4)
C1A C 0.3778(4) 1.0711(3) 0.4534(5)
C2A C 0.4777(4) 1.1140(3) 0.3939(5)
N1A N 0.5211(3) 1.1853(3) 0.4537(4)
N1B N 0.4789(3) 0.6853(3) 0.0463(4)
N1C N 0.0211(3) 0.8147(3) 0.0463(4)
O2A O 0.3842(3) 0.8818(2) 0.0603(3)
C3A C 0.4952(4) 1.0101(3) 0.2070(5)
H1A H 0.5339 0.9898 0.1226
C4A C 0.3416(4) 0.9958(3) 0.3869(5)
H2A H 0.2766 0.9663 0.4267
C5A C 0.4660(5) 1.2139(4) 0.5713(6)
H3A H 0.4951 1.2632 0.6141
C6A C 0.3982(4) 0.9649(3) 0.2671(5)
C7A C 0.5333(4) 1.0823(3) 0.2692(5)
H4A H 0.5982 1.1112 0.2275
C8A C 0.3238(4) 1.1053(3) 0.5770(6)
H5A H 0.2567 1.0796 0.6199
C9A C 0.3697(5) 1.1763(3) 0.6345(6)
H6A H 0.3347 1.1999 0.7187
C10A C 0.3581(4) 0.8902(3) 0.1899(5)
loop_
_geom_bond_atom_site_label_1
_geom_bond_atom_site_label_2
_geom_bond_site_symmetry_1
_geom_bond_site_symmetry_2
Pb1 O1 1_555 1_555
O1 C10 1_555 1_555
C1 C2 1_555 1_555
C2 N1 1_555 1_555
N1 C5 1_555 1_555
O2 Pb1 1_555 1_555
C3 H1 1_555 1_555
C4 C1 1_555 1_555
H2 C4 1_555 1_555
C5 H3 1_555 1_555
C6 C3 1_555 1_555
C7 C2 1_555 1_555
H4 C7 1_555 1_555
C8 C1 1_555 1_555
H5 C8 1_555 1_555
C9 C5 1_555 1_555
H6 C9 1_555 1_555
C10 O2 1_555 1_555
Pb1B N1 1_555 1_555
Pb1B_2 N1A 1_555 1_555
O1A Pb1 1_555 1_555
C1A C2A 1_555 1_555
C2A N1A 1_555 1_555
N1A C5A 1_555 1_555
N1B Pb1 1_555 1_555
N1C Pb1 1_555 1_555
O2A Pb1 1_555 1_555
C3A H1A 1_555 1_555
C4A C1A 1_555 1_555
H2A C4A 1_555 1_555
C5A H3A 1_555 1_555
C6A C3A 1_555 1_555
C7A C2A 1_555 1_555
H4A C7A 1_555 1_555
C8A C1A 1_555 1_555
H5A C8A 1_555 1_555
C9A C5A 1_555 1_555
H6A C9A 1_555 1_555
C10A O1A 1_555 1_555
C3 C7 1_555 1_555
C4 C6 1_555 1_555
C6 C10 1_555 1_555
C8 C9 1_555 1_555
O2A C10A 1_555 1_555
C3A C7A 1_555 1_555
C4A C6A 1_555 1_555
C6A C10A 1_555 1_555
C8A C9A 1_555 1_555

#END
