
#######################################################################
#
#                 Cambridge Crystallographic Data Centre
#                                CCDC 
#
#######################################################################
#
# If this CIF has been generated from an entry in the Cambridge 
# Structural Database, then it will include bibliographic, chemical, 
# crystal, experimental, refinement or atomic coordinate data resulting 
# from the CCDC's data processing and validation procedures.
#
#######################################################################

data_BOPWIO
_symmetry_cell_setting           monoclinic
_symmetry_space_group_name_H-M   'P 21/c'
_symmetry_Int_Tables_number      14
_space_group_name_Hall           '-P 2ybc'
loop_
_symmetry_equiv_pos_site_id
_symmetry_equiv_pos_as_xyz
1 x,y,z
2 -x,1/2+y,1/2-z
3 -x,-y,-z
4 x,1/2-y,1/2+z
_cell_length_a                   21.7025(2)
_cell_length_b                   10.03560(10)
_cell_length_c                   14.03430(10)
_cell_angle_alpha                90
_cell_angle_beta                 91.7110(10)
_cell_angle_gamma                90
_cell_volume                     3055.27
loop_
_atom_site_label
_atom_site_type_symbol
_atom_site_fract_x
_atom_site_fract_y
_atom_site_fract_z
Ho1 Ho 0.759096(6) 0.565383(14) 0.271696(9)
Ho2 Ho 0.749385(6) 0.752423(13) 0.027001(9)
O1 O 0.75101(17) 0.3320(3) 0.2487(2)
O2 O 0.71838(10) 0.5382(3) 0.11361(14)
O3 O 0.65035(12) 0.5170(3) 0.29930(19)
O4 O 0.69847(9) 0.6272(2) 0.40959(15)
O5 O 0.81002(11) 0.7629(2) -0.13828(18)
O6 O 0.28741(14) 0.2642(3) 0.2777(3)
O7 O 0.80809(10) 0.4550(2) 0.39878(15)
O8 O 0.81111(11) 0.5669(2) 0.53460(16)
O9 O 0.30999(12) 0.4037(3) 0.38730(18)
O10 O 0.78404(12) 0.5769(2) -0.07143(17)
O11 O 0.65671(10) 0.6333(2) 0.00990(18)
O12 O 1.13967(12) 0.4876(3) -0.21468(19)
O13 O 1.17742(10) 0.3219(2) -0.13534(17)
C1 C 0.64874(14) 0.5754(4) 0.3765(2)
C2 C 0.59130(14) 0.5876(4) 0.4336(2)
H1 H 0.5876 0.6813 0.4547
H2 H 0.5966 0.5319 0.4915
C3 C 0.53161(14) 0.5481(3) 0.3832(2)
C4 C 0.48822(15) 0.6423(3) 0.3566(2)
H3 H 0.4963 0.7337 0.3695
C5 C 0.51788(16) 0.4158(4) 0.3648(2)
H4 H 0.5468 0.3487 0.3829
C6 C 0.82818(13) 0.4757(3) 0.4817(2)
C7 C 0.87797(14) 0.3841(3) 0.5220(2)
H5 H 0.8710 0.3677 0.5904
H6 H 0.8761 0.2974 0.4884
C8 C 0.94097(14) 0.4461(3) 0.5107(2)
C9 C 0.98335(15) 0.4507(4) 0.5869(2)
H7 H 0.9720 0.4173 0.6473
C10 C 0.95840(15) 0.4969(4) 0.4235(2)
H8 H 0.9300 0.4957 0.3707
C11 C 1.13514(14) 0.4075(4) -0.1484(2)
C12 C 1.08297(17) 0.4078(6) -0.0817(3)
H9 H 1.0793 0.3172 -0.0545
H10 H 1.0937 0.4689 -0.0283
C13 C 1.02059(16) 0.4480(4) -0.1228(2)
C14 C 0.97549(18) 0.3536(4) -0.1372(3)
H11 H 0.9849 0.2626 -0.1251
C15 C 0.80821(13) 0.6373(3) -0.1391(2)
C16 C 0.83705(15) 0.5594(3) -0.2179(2)
H12 H 0.8381 0.6145 -0.2764
H13 H 0.8122 0.4787 -0.2323
C17 C 0.90212(14) 0.5194(3) -0.1873(2)
C18 C 0.94761(15) 0.6143(4) -0.1752(3)
H14 H 0.9385 0.7051 -0.1886
C19 C 0.91703(16) 0.3877(4) -0.1688(3)
H15 H 0.8867 0.3203 -0.1780
C20 C 1.00650(16) 0.5788(4) -0.1436(3)
H16 H 1.0374 0.6454 -0.1363
C21 C 0.66695(14) 0.5423(3) 0.0681(2)
C22 C 0.62002(15) 0.4353(3) 0.0836(2)
H17 H 0.6349 0.3511 0.0556
H18 H 0.6162 0.4210 0.1529
C23 C 0.55768(14) 0.4667(3) 0.0409(2)
C24 C 0.54366(15) 0.4413(3) -0.0548(2)
H19 H 0.5737 0.4006 -0.0932
C25 C 0.51300(14) 0.5259(3) 0.0947(2)
H20 H 0.5215 0.5442 0.1602
C26 C 0.31709(13) 0.3624(3) 0.3053(2)
C27 C 0.36011(15) 0.4349(4) 0.2417(2)
H21 H 0.3392 0.5156 0.2162
H22 H 0.3697 0.3769 0.1870
C28 C 0.41967(14) 0.4754(3) 0.2924(2)
C29 C 0.46268(15) 0.3797(3) 0.3204(2)
H23 H 0.4541 0.2882 0.3089
C30 C 0.43322(15) 0.6067(3) 0.3115(2)
H24 H 0.4043 0.6739 0.2935
H25 H 0.730(5) 0.252(8) 0.288(8)
H26 H 0.744(3) 0.271(5) 0.186(3)
O2B O 0.28162(10) 0.4618(3) -0.11361(14)
O11B O 0.34329(10) 0.3667(2) -0.00990(18)
C21B C 0.33305(14) 0.4577(3) -0.0681(2)
C22B C 0.37998(15) 0.5647(3) -0.0836(2)
H17B H 0.3651 0.6489 -0.0556
H18B H 0.3838 0.5790 -0.1529
C23B C 0.44232(14) 0.5333(3) -0.0409(2)
C24B C 0.45634(15) 0.5587(3) 0.0548(2)
H19B H 0.4263 0.5994 0.0932
C25B C 0.48700(14) 0.4741(3) -0.0947(2)
H20B H 0.4785 0.4558 -0.1602
O7B O 1.19191(10) 0.5450(2) 0.60122(15)
C6B C 1.17182(13) 0.5243(3) 0.5183(2)
C7B C 1.12203(14) 0.6159(3) 0.4780(2)
H5B H 1.1290 0.6323 0.4096
H6B H 1.1239 0.7026 0.5116
C8B C 1.05903(14) 0.5539(3) 0.4893(2)
C9B C 1.01665(15) 0.5493(4) 0.4131(2)
H7B H 1.0280 0.5827 0.3527
C10B C 1.04160(15) 0.5031(4) 0.5765(2)
H8B H 1.0700 0.5043 0.6293
O8B O 1.18889(11) 0.4331(2) 0.46540(16)
Ho1B Ho 0.240904(6) 0.434617(14) -0.271696(9)
Ho2B Ho 0.250615(6) 0.247577(13) -0.027001(9)
O1B O 0.24899(17) 0.6680(3) -0.2487(2)
O3B O 0.34965(12) 0.4830(3) -0.29930(19)
O4B O 0.30153(9) 0.3728(2) -0.40959(15)
O5B O 0.18998(11) 0.2371(2) 0.13828(18)
O6B O 0.71259(14) 0.7358(3) -0.2777(3)
O9B O 0.69001(12) 0.5963(3) -0.38730(18)
O10B O 0.21596(12) 0.4231(2) 0.07143(17)
O12B O -0.13967(12) 0.5124(3) 0.21468(19)
O13B O -0.17742(10) 0.6781(2) 0.13534(17)
C1B C 0.35126(14) 0.4246(4) -0.3765(2)
C2B C 0.40870(14) 0.4124(4) -0.4336(2)
H1B H 0.4124 0.3187 -0.4547
H2B H 0.4034 0.4681 -0.4915
C3B C 0.46839(14) 0.4519(3) -0.3832(2)
C4B C 0.51178(15) 0.3577(3) -0.3566(2)
H3B H 0.5037 0.2663 -0.3695
C5B C 0.48212(16) 0.5842(4) -0.3648(2)
H4B H 0.4532 0.6513 -0.3829
C11B C -0.13514(14) 0.5925(4) 0.1484(2)
C12B C -0.08297(17) 0.5922(6) 0.0817(3)
H9B H -0.0793 0.6828 0.0545
H10B H -0.0937 0.5311 0.0283
C13B C -0.02059(16) 0.5520(4) 0.1228(2)
C14B C 0.02451(18) 0.6464(4) 0.1372(3)
H11B H 0.0151 0.7374 0.1251
C15B C 0.19179(13) 0.3627(3) 0.1391(2)
C16B C 0.16295(15) 0.4406(3) 0.2179(2)
H12B H 0.1619 0.3855 0.2764
H13B H 0.1878 0.5213 0.2323
C17B C 0.09788(14) 0.4806(3) 0.1873(2)
C18B C 0.05239(15) 0.3857(4) 0.1752(3)
H14B H 0.0615 0.2949 0.1886
C19B C 0.08297(16) 0.6123(4) 0.1688(3)
H15B H 0.1133 0.6797 0.1780
C20B C -0.00650(16) 0.4212(4) 0.1436(3)
H16B H -0.0374 0.3546 0.1363
C26B C 0.68291(13) 0.6376(3) -0.3053(2)
C27B C 0.63989(15) 0.5651(4) -0.2417(2)
H21B H 0.6608 0.4844 -0.2162
H22B H 0.6303 0.6231 -0.1870
C28B C 0.58033(14) 0.5246(3) -0.2924(2)
C29B C 0.53732(15) 0.6203(3) -0.3204(2)
H23B H 0.5459 0.7118 -0.3089
C30B C 0.56678(15) 0.3933(3) -0.3115(2)
H24B H 0.5957 0.3261 -0.2935
H25B H 0.270(5) 0.748(8) -0.288(8)
H26B H 0.256(3) 0.729(5) -0.186(3)
Ho1_2 Ho -0.240904(6) 0.565383(14) 0.271696(9)
Ho1A Ho 0.240904(6) 0.065383(14) 0.228304(9)
Ho1B_2 Ho 1.240904(6) 0.434617(14) -0.271696(9)
Ho1B_3 Ho 1.240904(6) 0.434617(14) 0.728304(9)
Ho1C Ho 0.759096(6) 0.934617(14) -0.228304(9)
Ho2_2 Ho -0.250615(6) 0.752423(13) 0.027001(9)
Ho2A Ho 0.250615(6) 0.252423(13) -0.527001(9)
Ho2A_2 Ho 0.250615(6) 0.252423(13) 0.472999(9)
Ho2A_3 Ho 1.250615(6) 0.252423(13) 0.472999(9)
Ho2B_2 Ho 1.250615(6) 0.247577(13) -0.027001(9)
Ho2C Ho 0.749385(6) 0.747577(13) -0.472999(9)
Ho2C_2 Ho 0.749385(6) 0.747577(13) 0.527001(9)
O4A O 0.30153(9) 0.1272(2) 0.09041(15)
O4C O 0.69847(9) 0.8728(2) -0.09041(15)
O5A O 0.18998(11) 0.2629(2) -0.36172(18)
O5C O 0.81002(11) 0.7371(2) 0.36172(18)
O6A O 0.71259(14) 0.7642(3) 0.2223(3)
O6C O 0.28741(14) 0.2358(3) -0.2223(3)
O7B_2 O 0.19191(10) 0.5450(2) -0.39878(15)
O8A O 0.18889(11) 0.0669(2) -0.03460(16)
O8C O 0.81111(11) 0.9331(2) 0.03460(16)
O9A O 0.69001(12) 0.9037(3) 0.11270(18)
O9C O 0.30999(12) 0.0963(3) -0.11270(18)
O12_2 O 0.13967(12) 0.4876(3) -0.21468(19)
O12B_2 O 0.86033(12) 0.5124(3) 0.21468(19)
O13_2 O 0.17742(10) 0.3219(2) -0.13534(17)
O13B_2 O 0.82258(10) 0.6781(2) 0.13534(17)
O14 O 0.72250(19) 0.1768(3) 0.0935(2)
H27 H 0.719(5) 0.232(8) 0.027(4)
H28 H 0.707(3) 0.076(3) 0.091(5)
O15 O 0.7386(2) 0.1830(3) 0.4146(2)
H29 H 0.761(3) 0.089(4) 0.427(4)
H30 H 0.774(5) 0.253(10) 0.391(10)
loop_
_geom_bond_atom_site_label_1
_geom_bond_atom_site_label_2
_geom_bond_site_symmetry_1
_geom_bond_site_symmetry_2
Ho1 O1 1_555 1_555
Ho2 O2 1_555 1_555
O1 H25 1_555 1_555
O2 Ho1 1_555 1_555
O3 Ho1 1_555 1_555
O4 Ho1 1_555 1_555
O5 Ho2 1_555 1_555
O6 C26 1_555 1_555
O7 Ho1 1_555 1_555
O8 C6 1_555 1_555
O9 C26 1_555 1_555
O10 Ho2 1_555 1_555
O11 Ho2 1_555 1_555
O12 C11 1_555 1_555
O13 C11 1_555 1_555
C1 O3 1_555 1_555
C2 C1 1_555 1_555
H1 C2 1_555 1_555
H2 C2 1_555 1_555
C3 C2 1_555 1_555
C4 C3 1_555 1_555
H3 C4 1_555 1_555
C5 C3 1_555 1_555
H4 C5 1_555 1_555
C6 O7 1_555 1_555
C7 C6 1_555 1_555
H5 C7 1_555 1_555
H6 C7 1_555 1_555
C8 C7 1_555 1_555
C9 C8 1_555 1_555
H7 C9 1_555 1_555
C10 C8 1_555 1_555
H8 C10 1_555 1_555
C11 C12 1_555 1_555
C12 H9 1_555 1_555
H10 C12 1_555 1_555
C13 C12 1_555 1_555
C14 C13 1_555 1_555
H11 C14 1_555 1_555
C15 O5 1_555 1_555
C16 C15 1_555 1_555
H12 C16 1_555 1_555
H13 C16 1_555 1_555
C17 C16 1_555 1_555
C18 C17 1_555 1_555
H14 C18 1_555 1_555
C19 C14 1_555 1_555
H15 C19 1_555 1_555
C20 C13 1_555 1_555
H16 C20 1_555 1_555
C21 O2 1_555 1_555
C22 C21 1_555 1_555
H17 C22 1_555 1_555
H18 C22 1_555 1_555
C23 C22 1_555 1_555
C24 C23 1_555 1_555
H19 C24 1_555 1_555
C25 C23 1_555 1_555
H20 C25 1_555 1_555
C26 C27 1_555 1_555
C27 H21 1_555 1_555
H22 C27 1_555 1_555
C28 C27 1_555 1_555
C29 C5 1_555 1_555
H23 C29 1_555 1_555
C30 C4 1_555 1_555
H24 C30 1_555 1_555
H26 O1 1_555 1_555
O14 H27 1_555 1_555
H28 O14 1_555 1_555
O15 H29 1_555 1_555
H30 O15 1_555 1_555
O2B C21B 1_555 1_555
O11B C21B 1_555 1_555
C21B C22B 1_555 1_555
C22B H17B 1_555 1_555
H18B C22B 1_555 1_555
C23B C22B 1_555 1_555
C24B C25 1_555 1_555
H19B C24B 1_555 1_555
C25B C24 1_555 1_555
H20B C25B 1_555 1_555
O7B C6B 1_555 1_555
C6B C7B 1_555 1_555
C7B H5B 1_555 1_555
H6B C7B 1_555 1_555
C8B C7B 1_555 1_555
C9B C10 1_555 1_555
H7B C9B 1_555 1_555
C10B C9 1_555 1_555
H8B C10B 1_555 1_555
O8B C6B 1_555 1_555
Ho1B O2B 1_555 1_555
Ho2B O2B 1_555 1_555
O1B Ho1B 1_555 1_555
O3B Ho1B 1_555 1_555
O4B Ho1B 1_555 1_555
O5B Ho2B 1_555 1_555
O6B C26B 1_555 1_555
O9B C26B 1_555 1_555
O10B Ho2B 1_555 1_555
O12B C11B 1_555 1_555
O13B C11B 1_555 1_555
C1B O3B 1_555 1_555
C2B C1B 1_555 1_555
H1B C2B 1_555 1_555
H2B C2B 1_555 1_555
C3B C2B 1_555 1_555
C4B C3B 1_555 1_555
H3B C4B 1_555 1_555
C5B C3B 1_555 1_555
H4B C5B 1_555 1_555
C11B C12B 1_555 1_555
C12B H9B 1_555 1_555
H10B C12B 1_555 1_555
C13B C12B 1_555 1_555
C14B C13B 1_555 1_555
H11B C14B 1_555 1_555
C15B O5B 1_555 1_555
C16B C15B 1_555 1_555
H12B C16B 1_555 1_555
H13B C16B 1_555 1_555
C17B C16B 1_555 1_555
C18B C17B 1_555 1_555
H14B C18B 1_555 1_555
C19B C14B 1_555 1_555
H15B C19B 1_555 1_555
C20B C13B 1_555 1_555
H16B C20B 1_555 1_555
C26B C27B 1_555 1_555
C27B H21B 1_555 1_555
H22B C27B 1_555 1_555
C28B C27B 1_555 1_555
C29B C5B 1_555 1_555
H23B C29B 1_555 1_555
C30B C4B 1_555 1_555
H24B C30B 1_555 1_555
H25B O1B 1_555 1_555
H26B O1B 1_555 1_555
Ho1_2 O12B 1_555 1_555
Ho1A O6 1_555 1_555
Ho1B_2 O12 1_555 1_555
Ho1B_3 O7B 1_555 1_555
Ho1C O5 1_555 1_555
Ho2_2 O13B 1_555 1_555
Ho2A O4B 1_555 1_555
Ho2A_2 O9 1_555 1_555
Ho2A_3 O8B 1_555 1_555
Ho2B_2 O13 1_555 1_555
Ho2C O9B 1_555 1_555
Ho2C_2 O4 1_555 1_555
O4A Ho2B 1_555 1_555
O4C Ho2 1_555 1_555
O5A Ho1B 1_555 1_555
O5C Ho1 1_555 1_555
O6A Ho1 1_555 1_555
O6C Ho1B 1_555 1_555
O7B_2 Ho1B 1_555 1_555
O8A Ho2B 1_555 1_555
O8C Ho2 1_555 1_555
O9A Ho2 1_555 1_555
O9C Ho2B 1_555 1_555
O12_2 Ho1B 1_555 1_555
O12B_2 Ho1 1_555 1_555
O13_2 Ho1B 1_555 1_555
O13B_2 Ho1 1_555 1_555
Ho2 O13B_2 1_555 1_555
O4 C1 1_555 1_555
O8 Ho2C_2 1_555 1_555
O10 C15 1_555 1_555
O11 C21 1_555 1_555
O13 Ho1B_2 1_555 1_555
C17 C19 1_555 1_555
C18 C20 1_555 1_555
C28 C29 1_555 1_555
C28 C30 1_555 1_555
O11B Ho2B 1_555 1_555
C23B C24B 1_555 1_555
C23B C25B 1_555 1_555
C8B C9B 1_555 1_555
C8B C10B 1_555 1_555
Ho2B O13_2 1_555 1_555
O4B C1B 1_555 1_555
O5B Ho1A 1_555 1_555
O6B Ho1C 1_555 1_555
O10B C15B 1_555 1_555
O13B Ho1_2 1_555 1_555
C17B C19B 1_555 1_555
C18B C20B 1_555 1_555
C28B C29B 1_555 1_555
C28B C30B 1_555 1_555
Ho1A O4A 1_555 1_555
Ho1C O4C 1_555 1_555
Ho2A O5A 1_555 1_555
Ho2C_2 O5C 1_555 1_555

#END
