
#######################################################################
#
#                 Cambridge Crystallographic Data Centre
#                                CCDC 
#
#######################################################################
#
# If this CIF has been generated from an entry in the Cambridge 
# Structural Database, then it will include bibliographic, chemical, 
# crystal, experimental, refinement or atomic coordinate data resulting 
# from the CCDC's data processing and validation procedures.
#
#######################################################################

data_BOQJOI
_symmetry_cell_setting           monoclinic
_symmetry_space_group_name_H-M   'P 21'
_symmetry_Int_Tables_number      4
_space_group_name_Hall           'P 2yb'
loop_
_symmetry_equiv_pos_site_id
_symmetry_equiv_pos_as_xyz
1 x,y,z
2 -x,1/2+y,-z
_cell_length_a                   6.3978(4)
_cell_length_b                   21.3089(14)
_cell_length_c                   13.6408(10)
_cell_angle_alpha                90
_cell_angle_beta                 98.903(2)
_cell_angle_gamma                90
_cell_volume                     1837.25
loop_
_atom_site_label
_atom_site_type_symbol
_atom_site_fract_x
_atom_site_fract_y
_atom_site_fract_z
C1 C 0.1015(10) 0.4972(3) 0.9736(4)
C2 C 0.2141(8) 0.5354(2) 1.0602(3)
C3 C 0.0979(9) 0.5762(3) 1.1065(4)
H1 H -0.0459 0.5809 1.0837
C4 C 0.1921(8) 0.6106(3) 1.1872(4)
H2 H 0.1131 0.6388 1.2185
C5 C 0.4039(7) 0.6025(2) 1.2205(3)
C6 C 0.5240(8) 0.5616(2) 1.1752(4)
H3 H 0.6672 0.5563 1.1989
C7 C 0.4259(8) 0.5280(2) 1.0927(4)
H4 H 0.5047 0.5005 1.0599
C8 C 0.4626(7) 0.6057(2) 1.4287(3)
C9 C 0.2716(10) 0.6174(3) 1.4624(4)
H5 H 0.1786 0.6474 1.4313
C10 C 0.2223(8) 0.5845(2) 1.5414(4)
H6 H 0.0982 0.5936 1.5662
C11 C 0.3587(8) 0.5364(2) 1.5864(4)
C12 C 0.5455(8) 0.5256(2) 1.5514(4)
H7 H 0.6371 0.4948 1.5808
C13 C 0.6003(9) 0.5601(3) 1.4727(5)
H8 H 0.7277 0.5526 1.4499
C14 C 0.2873(8) 0.4974(2) 1.6649(4)
C15 C 0.3815(8) 0.3222(2) 0.9061(4)
H9 H 0.4598 0.3559 0.9355
C16 C 0.1491(10) 0.2680(3) 0.8163(4)
H10 H 0.0326 0.2570 0.7699
C17 C 0.2768(9) 0.2274(3) 0.8698(5)
H11 H 0.2656 0.1839 0.8683
C18 C 0.6080(8) 0.2379(3) 0.9925(4)
C19 C 0.5873(9) 0.1865(3) 1.0500(4)
H12 H 0.4548 0.1685 1.0500
C20 C 0.7617(9) 0.1612(3) 1.1078(5)
H13 H 0.7482 0.1255 1.1456
C21 C 0.9566(8) 0.1889(2) 1.1096(4)
C22 C 0.9775(9) 0.2401(3) 1.0521(5)
H14 H 1.1098 0.2583 1.0523
C23 C 0.8003(9) 0.2653(3) 0.9932(5)
H15 H 0.8133 0.3006 0.9545
C24 C 1.1404(10) 0.1269(3) 1.2423(4)
H16 H 1.2747 0.1054 1.2595
H17 H 1.0304 0.0954 1.2278
C25 C 1.2566(8) 0.2055(2) 1.3636(4)
C26 C 1.2173(10) 0.2372(3) 1.4456(5)
H18 H 1.0922 0.2296 1.4703
C27 C 1.3595(8) 0.2806(3) 1.4926(4)
H19 H 1.3277 0.3039 1.5460
C28 C 1.5495(9) 0.2883(3) 1.4584(4)
C29 C 1.5937(8) 0.2561(3) 1.3765(4)
H20 H 1.7222 0.2618 1.3539
C30 C 1.4438(9) 0.2150(3) 1.3282(4)
H21 H 1.4701 0.1939 1.2717
C31 C 1.8255(10) 0.3717(3) 1.4616(4)
H22 H 1.8199 0.3776 1.3937
C32 C 1.7609(9) 0.3387(2) 1.6056(4)
H23 H 1.7006 0.3171 1.6534
C33 C 1.9546(9) 0.4008(3) 1.5352(4)
H24 H 2.0566 0.4304 1.5260
N1 N 0.2131(7) 0.3280(2) 0.8389(3)
N2 N 0.4277(6) 0.26208(18) 0.9275(3)
N3 N 1.7045(7) 0.33169(19) 1.5074(3)
N4 N 1.9140(7) 0.3806(2) 1.6251(3)
O1 O -0.0926(8) 0.5013(4) 0.9568(5)
O2 O 0.2133(7) 0.4659(2) 0.9254(3)
O3 O 0.4148(7) 0.70636(16) 1.3195(3)
O4 O 0.7499(6) 0.64500(18) 1.3280(3)
O5 O 0.3929(6) 0.44827(18) 1.6936(3)
O6 O 0.1190(6) 0.51075(17) 1.6953(3)
O7 O 1.1457(6) 0.16433(17) 1.1580(3)
O8 O 1.1006(7) 0.1640(2) 1.3235(3)
O9 O -0.2515(5) 0.4168(3) 0.8263(2)
S1 S 0.5237(2) 0.64712(6) 1.32491(9)
Cd1 Cd 0.07832(5) 0.419793(16) 0.77794(2)
N4_2 N -0.0860(7) 0.3806(2) 0.6251(3)
O5_2 O 0.3929(6) 0.44827(18) 0.6936(3)
O6_2 O 0.1190(6) 0.51075(17) 0.6953(3)
Cd1_2 Cd 0.07832(5) 0.419793(16) 1.77794(2)
Cd1_3 Cd 2.07832(5) 0.419793(16) 1.77794(2)
C34 C -0.038(2) 0.4095(9) 0.1841(10)
H25 H -0.0857 0.3915 0.1226
C35 C 0.311(3) 0.3775(6) 0.1732(13)
H26 H 0.2323 0.3619 0.1124
H27 H 0.3783 0.3431 0.2111
H28 H 0.4172 0.4064 0.1583
C36 C 0.237(4) 0.4374(12) 0.3120(10)
H29 H 0.3874 0.4302 0.3242
H30 H 0.1746 0.4204 0.3658
H31 H 0.2103 0.4816 0.3069
N5 N 0.1603(14) 0.4114(4) 0.2336(6)
O10 O -0.152(2) 0.4402(11) 0.2451(13)
loop_
_geom_bond_atom_site_label_1
_geom_bond_atom_site_label_2
_geom_bond_site_symmetry_1
_geom_bond_site_symmetry_2
C1 C2 1_555 1_555
C2 C3 1_555 1_555
C3 H1 1_555 1_555
C4 C3 1_555 1_555
H2 C4 1_555 1_555
C5 C4 1_555 1_555
C6 C5 1_555 1_555
H3 C6 1_555 1_555
C7 C2 1_555 1_555
H4 C7 1_555 1_555
C8 C9 1_555 1_555
C9 H5 1_555 1_555
C10 C9 1_555 1_555
H6 C10 1_555 1_555
C11 C10 1_555 1_555
C12 C11 1_555 1_555
H7 C12 1_555 1_555
C13 C8 1_555 1_555
H8 C13 1_555 1_555
C14 C11 1_555 1_555
C15 H9 1_555 1_555
C16 H10 1_555 1_555
C17 C16 1_555 1_555
H11 C17 1_555 1_555
C18 C19 1_555 1_555
C19 H12 1_555 1_555
C20 C19 1_555 1_555
H13 C20 1_555 1_555
C21 C20 1_555 1_555
C22 C21 1_555 1_555
H14 C22 1_555 1_555
C23 C18 1_555 1_555
H15 C23 1_555 1_555
C24 H16 1_555 1_555
H17 C24 1_555 1_555
C25 C26 1_555 1_555
C26 H18 1_555 1_555
C27 C26 1_555 1_555
H19 C27 1_555 1_555
C28 C27 1_555 1_555
C29 C28 1_555 1_555
H20 C29 1_555 1_555
C30 C25 1_555 1_555
H21 C30 1_555 1_555
C31 H22 1_555 1_555
C32 H23 1_555 1_555
C33 C31 1_555 1_555
H24 C33 1_555 1_555
N1 C15 1_555 1_555
N2 C15 1_555 1_555
N3 C28 1_555 1_555
N4 C32 1_555 1_555
O1 C1 1_555 1_555
O2 C1 1_555 1_555
O3 S1 1_555 1_555
O4 S1 1_555 1_555
O5 C14 1_555 1_555
O6 C14 1_555 1_555
O7 C21 1_555 1_555
O8 C24 1_555 1_555
O9 Cd1 1_555 1_555
S1 C5 1_555 1_555
Cd1 N1 1_555 1_555
C34 H25 1_555 1_555
C35 H26 1_555 1_555
H27 C35 1_555 1_555
H28 C35 1_555 1_555
C36 H29 1_555 1_555
H30 C36 1_555 1_555
H31 C36 1_555 1_555
N5 C34 1_555 1_555
O10 C34 1_555 1_555
N4_2 Cd1 1_555 1_555
O5_2 Cd1 1_555 1_555
O6_2 Cd1 1_555 1_555
Cd1_2 O5 1_555 1_555
Cd1_3 N4 1_555 1_555
C6 C7 1_555 1_555
C8 S1 1_555 1_555
C12 C13 1_555 1_555
C16 N1 1_555 1_555
C17 N2 1_555 1_555
C18 N2 1_555 1_555
C22 C23 1_555 1_555
C24 O7 1_555 1_555
C25 O8 1_555 1_555
C29 C30 1_555 1_555
C31 N3 1_555 1_555
C32 N3 1_555 1_555
C33 N4 1_555 1_555
O2 Cd1 1_555 1_555
O6 Cd1_2 1_555 1_555
C35 N5 1_555 1_555
C36 N5 1_555 1_555

#END
