
#######################################################################
#
#                 Cambridge Crystallographic Data Centre
#                                CCDC 
#
#######################################################################
#
# If this CIF has been generated from an entry in the Cambridge 
# Structural Database, then it will include bibliographic, chemical, 
# crystal, experimental, refinement or atomic coordinate data resulting 
# from the CCDC's data processing and validation procedures.
#
#######################################################################

data_BOQKEZ
_symmetry_cell_setting           orthorhombic
_symmetry_space_group_name_H-M   'P n a 21'
_symmetry_Int_Tables_number      33
_space_group_name_Hall           'P 2c -2n'
loop_
_symmetry_equiv_pos_site_id
_symmetry_equiv_pos_as_xyz
1 x,y,z
2 -x,-y,1/2+z
3 1/2-x,1/2+y,1/2+z
4 1/2+x,1/2-y,z
_cell_length_a                   14.6526(12)
_cell_length_b                   10.0981(9)
_cell_length_c                   16.1913(13)
_cell_angle_alpha                90
_cell_angle_beta                 90
_cell_angle_gamma                90
_cell_volume                     2395.72
loop_
_atom_site_label
_atom_site_type_symbol
_atom_site_fract_x
_atom_site_fract_y
_atom_site_fract_z
C1 C 0.5963(3) 0.6443(4) 0.2043(3)
C2 C 0.6584(3) 0.7146(4) 0.1438(2)
C3 C 0.6288(3) 0.7441(4) 0.0643(2)
H1 H 0.5694 0.7238 0.0485
C4 C 0.6872(3) 0.8032(4) 0.0090(2)
H2 H 0.6662 0.8258 -0.0434
C5 C 0.7768(3) 0.8293(4) 0.0302(2)
C6 C 0.8066(3) 0.8006(4) 0.1092(3)
H3 H 0.8665 0.8189 0.1244
C7 C 0.7470(3) 0.7443(4) 0.1658(2)
H4 H 0.7671 0.7265 0.2192
C8 C 0.8403(3) 0.8887(4) -0.0321(2)
C9 C 0.4692(3) 0.1890(5) 0.3125(3)
H5 H 0.4789 0.1610 0.3665
C10 C 0.4390(3) 0.1117(5) 0.2507(3)
H6 H 0.4245 0.0222 0.2540
C11 C 0.4616(3) 0.3118(4) 0.2054(3)
H7 H 0.4653 0.3849 0.1706
C12 C 0.4080(3) 0.1518(4) 0.0992(3)
C13 C 0.4104(4) 0.0209(4) 0.0757(3)
H8 H 0.4306 -0.0432 0.1127
C14 C 0.3828(4) -0.0156(5) -0.0031(3)
H9 H 0.3835 -0.1041 -0.0190
C15 C 0.3546(4) 0.0803(5) -0.0574(3)
C16 C 0.3548(3) 0.2112(4) -0.0358(3)
H10 H 0.3376 0.2754 -0.0739
C17 C 0.3808(3) 0.2476(5) 0.0430(3)
H11 H 0.3799 0.3364 0.0584
C18 C 0.2516(3) -0.0365(4) -0.1467(5)
H12 H 0.2104 -0.0018 -0.1883
H13 H 0.2184 -0.0406 -0.0950
C19 C 0.2990(2) -0.1846(4) -0.2514(2)
C20 C 0.2924(3) -0.3132(4) -0.2788(2)
H14 H 0.2728 -0.3793 -0.2429
C21 C 0.3143(3) -0.3446(4) -0.3585(3)
H15 H 0.3088 -0.4313 -0.3771
C22 C 0.3450(3) -0.2459(4) -0.4112(2)
C23 C 0.3515(3) -0.1167(4) -0.3841(2)
H16 H 0.3724 -0.0510 -0.4196
C24 C 0.3270(3) -0.0854(4) -0.3044(3)
H17 H 0.3292 0.0020 -0.2863
C25 C 0.3680(3) -0.2013(4) -0.5634(2)
H18 H 0.3379 -0.1205 -0.5682
C26 C 0.4132(3) -0.2668(4) -0.6231(3)
H19 H 0.4198 -0.2377 -0.6773
C27 C 0.4246(2) -0.3859(4) -0.5143(2)
H20 H 0.4402 -0.4536 -0.4780
O1 O 0.3241(3) 0.0501(4) -0.1378(2)
N1 N 0.4834(2) 0.3146(3) 0.2843(2)
N2 N 0.4336(2) 0.1914(3) 0.1808(2)
N3 N 0.3754(2) -0.2787(3) -0.49360(19)
N4 N 0.4478(2) -0.3823(3) -0.5924(2)
O2 O 0.5198(2) 0.6079(4) 0.1840(2)
O3 O 0.6305(2) 0.6210(3) 0.27390(17)
O4 O 0.8077(2) 0.9636(3) -0.08665(18)
O5 O 0.9240(2) 0.8635(3) -0.02799(19)
O6 O 0.27734(18) -0.1636(3) -0.16904(17)
Cd1 Cd 0.550672(15) 0.48476(2) 0.34706(3)
N4_2 N 0.4478(2) 0.6177(3) 0.4076(2)
O4B O 0.6923(2) 0.4636(3) 0.41335(18)
O5B O 0.5760(2) 0.3635(3) 0.47201(19)
Cd1_2 Cd 0.550672(15) -0.51524(2) -0.65294(3)
Cd1B Cd 0.949328(15) 0.98476(2) -0.15294(3)
loop_
_geom_bond_atom_site_label_1
_geom_bond_atom_site_label_2
_geom_bond_site_symmetry_1
_geom_bond_site_symmetry_2
C1 C2 1_555 1_555
C2 C3 1_555 1_555
C3 H1 1_555 1_555
C4 C3 1_555 1_555
H2 C4 1_555 1_555
C5 C4 1_555 1_555
C6 C5 1_555 1_555
H3 C6 1_555 1_555
C7 C2 1_555 1_555
H4 C7 1_555 1_555
C8 C5 1_555 1_555
C9 H5 1_555 1_555
C10 C9 1_555 1_555
H6 C10 1_555 1_555
C11 H7 1_555 1_555
C12 C13 1_555 1_555
C13 H8 1_555 1_555
C14 C13 1_555 1_555
H9 C14 1_555 1_555
C15 C14 1_555 1_555
C16 C15 1_555 1_555
H10 C16 1_555 1_555
C17 C12 1_555 1_555
H11 C17 1_555 1_555
C18 H12 1_555 1_555
H13 C18 1_555 1_555
C19 C20 1_555 1_555
C20 H14 1_555 1_555
C21 C20 1_555 1_555
H15 C21 1_555 1_555
C22 C21 1_555 1_555
C23 C22 1_555 1_555
H16 C23 1_555 1_555
C24 C19 1_555 1_555
H17 C24 1_555 1_555
C25 H18 1_555 1_555
C26 C25 1_555 1_555
H19 C26 1_555 1_555
C27 H20 1_555 1_555
O1 C15 1_555 1_555
N1 C9 1_555 1_555
N2 C10 1_555 1_555
N3 C22 1_555 1_555
N4 C26 1_555 1_555
O2 C1 1_555 1_555
O3 C1 1_555 1_555
O4 C8 1_555 1_555
O5 C8 1_555 1_555
O6 C18 1_555 1_555
Cd1 N1 1_555 1_555
N4_2 Cd1 1_555 1_555
O4B Cd1 1_555 1_555
O5B Cd1 1_555 1_555
Cd1_2 N4 1_555 1_555
Cd1B O4 1_555 1_555
C6 C7 1_555 1_555
C11 N1 1_555 1_555
C11 N2 1_555 1_555
C12 N2 1_555 1_555
C16 C17 1_555 1_555
C18 O1 1_555 1_555
C19 O6 1_555 1_555
C23 C24 1_555 1_555
C25 N3 1_555 1_555
C27 N3 1_555 1_555
C27 N4 1_555 1_555
O3 Cd1 1_555 1_555
O5 Cd1B 1_555 1_555

#END
