
#######################################################################
#
#                 Cambridge Crystallographic Data Centre
#                                CCDC 
#
#######################################################################
#
# If this CIF has been generated from an entry in the Cambridge 
# Structural Database, then it will include bibliographic, chemical, 
# crystal, experimental, refinement or atomic coordinate data resulting 
# from the CCDC's data processing and validation procedures.
#
#######################################################################

data_BOQKAV
_symmetry_cell_setting           triclinic
_symmetry_space_group_name_H-M   'P -1'
_symmetry_Int_Tables_number      2
_space_group_name_Hall           '-P 1'
loop_
_symmetry_equiv_pos_site_id
_symmetry_equiv_pos_as_xyz
1 x,y,z
2 -x,-y,-z
_cell_length_a                   10.1545(6)
_cell_length_b                   11.6885(7)
_cell_length_c                   12.5788(7)
_cell_angle_alpha                83.2000(10)
_cell_angle_beta                 88.4990(10)
_cell_angle_gamma                69.2730(10)
_cell_volume                     1386.34
loop_
_atom_site_label
_atom_site_type_symbol
_atom_site_fract_x
_atom_site_fract_y
_atom_site_fract_z
C1 C 0.6837(6) 0.2116(4) 0.8032(3)
C2 C 0.7931(6) 0.1241(4) 0.8816(3)
C3 C 0.7565(9) 0.0349(5) 0.9534(4)
H1 H 0.6669 0.0318 0.9465
C4 C 0.8447(8) -0.0455(5) 1.0309(5)
H2 H 0.8160 -0.0990 1.0785
C5 C 0.9773(6) -0.0423(4) 1.0339(4)
C6 C 0.9207(7) 0.1292(5) 0.8860(4)
H3 H 0.9458 0.1860 0.8398
C7 C 0.5271(3) 0.3346(2) 0.4324(2)
C8 C 0.5026(3) 0.2133(2) 0.4438(2)
C9 C 0.4176(3) 0.1906(2) 0.3668(2)
H4 H 0.3772 0.2505 0.3099
C10 C 0.3947(3) 0.0817(2) 0.3758(2)
H5 H 0.3381 0.0680 0.3254
C11 C 0.4569(3) -0.0106(2) 0.4614(2)
C12 C 0.5626(3) 0.1261(2) 0.5275(2)
H6 H 0.6170 0.1423 0.5780
C13 C -0.3358(5) -0.4213(4) 1.0984(3)
H7 H -0.3305 -0.3457 1.1092
C14 C -0.3857(4) -0.5844(3) 1.1186(3)
H8 H -0.4214 -0.6447 1.1462
C15 C -0.3115(5) -0.5865(4) 1.0278(3)
H9 H -0.2871 -0.6477 0.9823
C16 C -0.2002(4) -0.4435(3) 0.9309(2)
C17 C -0.1667(5) -0.5043(4) 0.8420(3)
H10 H -0.1973 -0.5693 0.8349
C18 C -0.0872(5) -0.4690(3) 0.7624(3)
H11 H -0.0623 -0.5121 0.7030
C19 C -0.0449(3) -0.3714(3) 0.7702(2)
C20 C -0.0841(6) -0.3060(4) 0.8561(3)
H12 H -0.0604 -0.2366 0.8600
C21 C -0.1597(6) -0.3443(5) 0.9375(3)
H13 H -0.1833 -0.3021 0.9974
C22 C 0.0988(4) -0.2600(3) 0.6963(3)
H14 H 0.1763 -0.2723 0.6470
H15 H 0.1359 -0.2718 0.7686
C23 C 0.0498(3) -0.0453(3) 0.6618(2)
C24 C -0.0417(3) 0.0679(3) 0.6167(3)
H16 H -0.1325 0.0761 0.5969
C25 C 0.0002(3) 0.1686(3) 0.6008(3)
H17 H -0.0624 0.2446 0.5715
C26 C 0.1365(3) 0.1557(3) 0.6290(2)
C27 C 0.2272(3) 0.0430(3) 0.6739(2)
H18 H 0.3186 0.0344 0.6926
C28 C 0.1846(3) -0.0574(3) 0.6917(3)
H19 H 0.2461 -0.1327 0.7237
C29 C 0.1408(3) 0.3546(3) 0.5300(2)
H20 H 0.0721 0.3684 0.4776
C30 C 0.2190(3) 0.4251(3) 0.5418(2)
H21 H 0.2127 0.4968 0.4980
C31 C 0.2852(3) 0.2749(3) 0.6678(2)
H22 H 0.3322 0.2224 0.7271
N1 N -0.2788(3) -0.4820(3) 1.0153(2)
N2 N -0.4003(4) -0.4804(3) 1.1634(2)
N3 N 0.3092(2) 0.3748(2) 0.62825(19)
N4 N 0.1832(2) 0.2582(2) 0.61119(18)
O1 O 0.7094(3) 0.3005(3) 0.7517(2)
O2 O 0.5726(5) 0.1940(3) 0.7932(3)
O3 O 0.5954(2) 0.35817(19) 0.50280(18)
O4 O 0.4759(3) 0.40505(19) 0.34826(18)
O5 O 0.0321(3) -0.3435(2) 0.68529(18)
O6 O -0.0016(2) -0.1398(2) 0.6736(2)
Cd1 Cd 0.50100(2) 0.414498(15) 0.672166(14)
C1A C 1.3163(6) -0.2116(4) 1.1968(3)
C2A C 1.2069(6) -0.1241(4) 1.1184(3)
C3A C 1.2435(9) -0.0349(5) 1.0466(4)
H1A H 1.3331 -0.0318 1.0535
C4A C 1.1553(8) 0.0455(5) 0.9691(5)
H2A H 1.1840 0.0990 0.9215
C5A C 1.0227(6) 0.0423(4) 0.9661(4)
C6A C 1.0793(7) -0.1292(5) 1.1140(4)
H3A H 1.0542 -0.1860 1.1602
O1A O 1.2906(3) -0.3005(3) 1.2483(2)
O2A O 1.4274(5) -0.1940(3) 1.2068(3)
C7A C 0.4729(3) -0.3346(2) 0.5676(2)
C8A C 0.4974(3) -0.2133(2) 0.5562(2)
C9A C 0.5824(3) -0.1906(2) 0.6332(2)
H4A H 0.6228 -0.2505 0.6901
C10A C 0.6053(3) -0.0817(2) 0.6242(2)
H5A H 0.6619 -0.0680 0.6746
C11A C 0.5431(3) 0.0106(2) 0.5386(2)
C12A C 0.4374(3) -0.1261(2) 0.4725(2)
H6A H 0.3830 -0.1423 0.4220
O3A O 0.4046(2) -0.35817(19) 0.49720(18)
O4A O 0.5241(3) -0.40505(19) 0.65174(18)
C13A C 0.3358(5) 0.4213(4) 0.9016(3)
H7A H 0.3305 0.3457 0.8908
C14A C 0.3857(4) 0.5844(3) 0.8814(3)
H8A H 0.4214 0.6447 0.8538
C15A C 0.3115(5) 0.5865(4) 0.9722(3)
H9A H 0.2871 0.6477 1.0177
C16A C 0.2002(4) 0.4435(3) 1.0691(2)
C17A C 0.1667(5) 0.5043(4) 1.1580(3)
H10A H 0.1973 0.5693 1.1651
C18A C 0.0872(5) 0.4690(3) 1.2376(3)
H11A H 0.0623 0.5121 1.2970
C19A C 0.0449(3) 0.3714(3) 1.2298(2)
C20A C 0.0841(6) 0.3060(4) 1.1439(3)
H12A H 0.0604 0.2366 1.1400
C21A C 0.1597(6) 0.3443(5) 1.0625(3)
H13A H 0.1833 0.3021 1.0026
C22A C -0.0988(4) 0.2600(3) 1.3037(3)
H14A H -0.1763 0.2723 1.3530
H15A H -0.1359 0.2718 1.2314
C23A C -0.0498(3) 0.0453(3) 1.3382(2)
C24A C 0.0417(3) -0.0679(3) 1.3833(3)
H16A H 0.1325 -0.0761 1.4031
C25A C -0.0002(3) -0.1686(3) 1.3992(3)
H17A H 0.0624 -0.2446 1.4285
C26A C -0.1365(3) -0.1557(3) 1.3710(2)
C27A C -0.2272(3) -0.0430(3) 1.3261(2)
H18A H -0.3186 -0.0344 1.3074
C28A C -0.1846(3) 0.0574(3) 1.3083(3)
H19A H -0.2461 0.1327 1.2763
C29A C -0.1408(3) -0.3546(3) 1.4700(2)
H20A H -0.0721 -0.3684 1.5224
C30A C -0.2190(3) -0.4251(3) 1.4582(2)
H21A H -0.2127 -0.4968 1.5020
C31A C -0.2852(3) -0.2749(3) 1.3322(2)
H22A H -0.3322 -0.2224 1.2729
N1A N 0.2788(3) 0.4820(3) 0.9847(2)
N2A N 0.4003(4) 0.4804(3) 0.8366(2)
N3A N -0.3092(2) -0.3748(2) 1.37175(19)
N4A N -0.1832(2) -0.2582(2) 1.38881(18)
O5A O -0.0321(3) 0.3435(2) 1.31471(18)
O6A O 0.0016(2) 0.1398(2) 1.3264(2)
Cd1A Cd -0.50100(2) -0.414498(15) 1.327834(14)
O1A_2 O -0.7094(3) -0.3005(3) 1.2483(2)
O2A_2 O -0.5726(5) -0.1940(3) 1.2068(3)
O3A_2 O -0.5954(2) -0.35817(19) 1.49720(18)
O4_2 O -0.5241(3) -0.59495(19) 1.34826(18)
O4A_2 O 0.5241(3) 0.59495(19) 0.65174(18)
Cd1_2 Cd 0.50100(2) -0.585502(15) 0.672166(14)
Cd1A_2 Cd 0.49900(2) -0.414498(15) 0.327834(14)
Cd1A_3 Cd 0.49900(2) 0.585502(15) 0.327834(14)
Cd1A_4 Cd 1.49900(2) -0.414498(15) 1.327834(14)
O7 O 0.4355(13) 0.0855(14) 0.9023(10)
loop_
_geom_bond_atom_site_label_1
_geom_bond_atom_site_label_2
_geom_bond_site_symmetry_1
_geom_bond_site_symmetry_2
C1 C2 1_555 1_555
C2 C3 1_555 1_555
C3 H1 1_555 1_555
C4 C3 1_555 1_555
H2 C4 1_555 1_555
C5 C4 1_555 1_555
C6 C2 1_555 1_555
H3 C6 1_555 1_555
C7 C8 1_555 1_555
C8 C9 1_555 1_555
C9 H4 1_555 1_555
C10 C9 1_555 1_555
H5 C10 1_555 1_555
C11 C10 1_555 1_555
C12 C8 1_555 1_555
H6 C12 1_555 1_555
C13 H7 1_555 1_555
C14 H8 1_555 1_555
C15 C14 1_555 1_555
H9 C15 1_555 1_555
C16 C17 1_555 1_555
C17 H10 1_555 1_555
C18 C17 1_555 1_555
H11 C18 1_555 1_555
C19 C18 1_555 1_555
C20 C19 1_555 1_555
H12 C20 1_555 1_555
C21 C16 1_555 1_555
H13 C21 1_555 1_555
C22 H14 1_555 1_555
H15 C22 1_555 1_555
C23 C24 1_555 1_555
C24 H16 1_555 1_555
C25 C24 1_555 1_555
H17 C25 1_555 1_555
C26 C25 1_555 1_555
C27 C26 1_555 1_555
H18 C27 1_555 1_555
C28 C23 1_555 1_555
H19 C28 1_555 1_555
C29 H20 1_555 1_555
C30 C29 1_555 1_555
H21 C30 1_555 1_555
C31 H22 1_555 1_555
N1 C13 1_555 1_555
N2 C13 1_555 1_555
N3 C30 1_555 1_555
N4 C26 1_555 1_555
O1 C1 1_555 1_555
O2 C1 1_555 1_555
O3 C7 1_555 1_555
O4 C7 1_555 1_555
O5 C19 1_555 1_555
O6 C22 1_555 1_555
Cd1 N3 1_555 1_555
C1A C2A 1_555 1_555
C2A C3A 1_555 1_555
C3A H1A 1_555 1_555
C4A C3A 1_555 1_555
H2A C4A 1_555 1_555
C5A C5 1_555 1_555
C6A C5 1_555 1_555
H3A C6A 1_555 1_555
O1A C1A 1_555 1_555
O2A C1A 1_555 1_555
C7A C8A 1_555 1_555
C8A C9A 1_555 1_555
C9A H4A 1_555 1_555
C10A C9A 1_555 1_555
H5A C10A 1_555 1_555
C11A C11 1_555 1_555
C12A C11 1_555 1_555
H6A C12A 1_555 1_555
O3A C7A 1_555 1_555
O4A C7A 1_555 1_555
C13A H7A 1_555 1_555
C14A H8A 1_555 1_555
C15A C14A 1_555 1_555
H9A C15A 1_555 1_555
C16A C17A 1_555 1_555
C17A H10A 1_555 1_555
C18A C17A 1_555 1_555
H11A C18A 1_555 1_555
C19A C18A 1_555 1_555
C20A C19A 1_555 1_555
H12A C20A 1_555 1_555
C21A C16A 1_555 1_555
H13A C21A 1_555 1_555
C22A H14A 1_555 1_555
H15A C22A 1_555 1_555
C23A C24A 1_555 1_555
C24A H16A 1_555 1_555
C25A C24A 1_555 1_555
H17A C25A 1_555 1_555
C26A C25A 1_555 1_555
C27A C26A 1_555 1_555
H18A C27A 1_555 1_555
C28A C23A 1_555 1_555
H19A C28A 1_555 1_555
C29A H20A 1_555 1_555
C30A C29A 1_555 1_555
H21A C30A 1_555 1_555
C31A H22A 1_555 1_555
N1A C13A 1_555 1_555
N2A Cd1 1_555 1_555
N3A C30A 1_555 1_555
N4A C26A 1_555 1_555
O5A C19A 1_555 1_555
O6A C22A 1_555 1_555
Cd1A N2 1_555 1_555
O1A_2 Cd1A 1_555 1_555
O2A_2 Cd1A 1_555 1_555
O3A_2 Cd1A 1_555 1_555
O4_2 Cd1A 1_555 1_555
O4A_2 Cd1 1_555 1_555
Cd1_2 O4A 1_555 1_555
Cd1A_2 O3A 1_555 1_555
Cd1A_3 O4 1_555 1_555
Cd1A_4 O1A 1_555 1_555
C6 C5A 1_555 1_555
C12 C11A 1_555 1_555
C14 N2 1_555 1_555
C15 N1 1_555 1_555
C16 N1 1_555 1_555
C20 C21 1_555 1_555
C22 O5 1_555 1_555
C23 O6 1_555 1_555
C27 C28 1_555 1_555
C29 N4 1_555 1_555
C31 N3 1_555 1_555
C31 N4 1_555 1_555
O1 Cd1 1_555 1_555
O2 Cd1 1_555 1_555
O3 Cd1 1_555 1_555
C2A C6A 1_555 1_555
C4A C5A 1_555 1_555
O2A Cd1A_4 1_555 1_555
C8A C12A 1_555 1_555
C10A C11A 1_555 1_555
C13A N2A 1_555 1_555
C14A N2A 1_555 1_555
C15A N1A 1_555 1_555
C16A N1A 1_555 1_555
C20A C21A 1_555 1_555
C22A O5A 1_555 1_555
C23A O6A 1_555 1_555
C27A C28A 1_555 1_555
C29A N4A 1_555 1_555
C31A N3A 1_555 1_555
C31A N4A 1_555 1_555
N3A Cd1A 1_555 1_555

#END
