
#######################################################################
#
#                 Cambridge Crystallographic Data Centre
#                                CCDC 
#
#######################################################################
#
# If this CIF has been generated from an entry in the Cambridge 
# Structural Database, then it will include bibliographic, chemical, 
# crystal, experimental, refinement or atomic coordinate data resulting 
# from the CCDC's data processing and validation procedures.
#
#######################################################################

data_BOQKID
_symmetry_cell_setting           monoclinic
_symmetry_space_group_name_H-M   'P 21/n'
_symmetry_Int_Tables_number      14
_space_group_name_Hall           '-P 2yn'
loop_
_symmetry_equiv_pos_site_id
_symmetry_equiv_pos_as_xyz
1 x,y,z
2 1/2-x,1/2+y,1/2-z
3 -x,-y,-z
4 1/2+x,1/2-y,1/2+z
_cell_length_a                   11.6078(14)
_cell_length_b                   12.2950(14)
_cell_length_c                   20.705(2)
_cell_angle_alpha                90
_cell_angle_beta                 101.496(2)
_cell_angle_gamma                90
_cell_volume                     2895.69
loop_
_atom_site_label
_atom_site_type_symbol
_atom_site_fract_x
_atom_site_fract_y
_atom_site_fract_z
C1 C 0.6573(3) -0.1511(2) 0.61682(14)
C2 C 0.6109(3) -0.2541(2) 0.58153(13)
C3 C 0.4945(3) -0.2618(3) 0.54843(16)
H1 H 0.4449 -0.2020 0.5469
C4 C 0.4519(3) -0.3578(3) 0.51783(16)
H2 H 0.3732 -0.3617 0.4971
C5 C 0.5228(3) -0.4485(2) 0.51705(14)
C6 C 0.6406(3) -0.4376(3) 0.5478(2)
H3 H 0.6921 -0.4952 0.5466
C7 C 0.6822(3) -0.3426(3) 0.57988(19)
H4 H 0.7608 -0.3386 0.6009
C8 C 0.8079(3) 0.2229(3) 0.62755(16)
C9 C 0.8634(3) 0.3069(2) 0.59018(15)
C10 C 0.8732(4) 0.2897(3) 0.52625(17)
H5 H 0.8443 0.2253 0.5057
C11 C 0.9240(4) 0.3641(3) 0.49147(16)
H6 H 0.9275 0.3490 0.4479
C12 C 0.9701(3) 0.4604(2) 0.51893(15)
C13 C 0.9590(3) 0.4791(3) 0.58313(18)
H7 H 0.9881 0.5436 0.6036
C14 C 0.9059(3) 0.4044(3) 0.61814(17)
H8 H 0.8989 0.4203 0.6611
C15 C 0.5605(2) 0.1667(2) 0.76816(13)
H9 H 0.6188 0.2156 0.7870
C16 C 0.4706(3) 0.0325(3) 0.71380(17)
H10 H 0.4561 -0.0290 0.6873
C17 C 0.3902(3) 0.0843(3) 0.74084(17)
H11 H 0.3116 0.0652 0.7371
C18 C 0.3944(3) 0.2496(3) 0.81214(13)
C19 C 0.2745(3) 0.2472(3) 0.80829(16)
H12 H 0.2283 0.1994 0.7793
C20 C 0.2229(3) 0.3152(3) 0.84712(16)
H13 H 0.1423 0.3109 0.8453
C21 C 0.2891(3) 0.3896(3) 0.88874(14)
C22 C 0.4076(3) 0.3976(3) 0.88931(18)
H14 H 0.4524 0.4508 0.9146
C23 C 0.4609(3) 0.3255(3) 0.85174(18)
H15 H 0.5416 0.3290 0.8536
C24 C 0.2900(4) 0.5158(3) 0.97704(18)
H16 H 0.2388 0.5362 1.0068
H17 H 0.3554 0.4751 1.0021
C25 C 0.2526(3) 0.6878(3) 0.92270(16)
C26 C 0.2997(3) 0.7744(3) 0.89523(19)
H18 H 0.3805 0.7781 0.8976
C27 C 0.2284(3) 0.8557(3) 0.86419(18)
H19 H 0.2609 0.9133 0.8449
C28 C 0.1076(3) 0.8523(3) 0.86154(14)
C29 C 0.0603(3) 0.7659(3) 0.88885(15)
H20 H -0.0203 0.7629 0.8870
C30 C 0.1324(3) 0.6822(3) 0.91947(16)
H21 H 0.1000 0.6232 0.9376
C31 C 0.0647(4) 1.0444(3) 0.8239(2)
H22 H 0.1350 1.0769 0.8442
C32 C -0.0261(4) 1.0930(3) 0.78450(19)
H23 H -0.0284 1.1660 0.7725
C33 C -0.0761(3) 0.9280(3) 0.79320(15)
H24 H -0.1197 0.8640 0.7895
N1 N 0.5778(2) 0.0837(2) 0.73097(12)
N2 N 0.4473(2) 0.1721(2) 0.77563(11)
N3 N 0.0340(2) 0.9371(2) 0.82871(13)
N4 N -0.1150(3) 1.0200(2) 0.76437(14)
O1 O 0.7573(2) -0.14871(18) 0.65197(12)
O2 O 0.5929(2) -0.0682(2) 0.60945(14)
O3 O 0.7960(3) 0.1293(2) 0.60337(13)
O4 O 0.7798(3) 0.2458(2) 0.68035(14)
O5 O 0.2275(2) 0.44895(19) 0.92703(12)
O6 O 0.3329(2) 0.6102(2) 0.95232(12)
Cd1 Cd 0.72829(2) 0.039354(17) 0.681433(10)
C1B C 0.3427(3) -0.8489(2) 0.38318(14)
C2B C 0.3891(3) -0.7459(2) 0.41847(13)
C3B C 0.5055(3) -0.7382(3) 0.45157(16)
H1B H 0.5551 -0.7980 0.4531
C4B C 0.5481(3) -0.6422(3) 0.48217(16)
H2B H 0.6268 -0.6383 0.5029
C5B C 0.4772(3) -0.5515(2) 0.48295(14)
C6B C 0.3594(3) -0.5624(3) 0.4522(2)
H3B H 0.3079 -0.5048 0.4534
C7B C 0.3178(3) -0.6574(3) 0.42012(19)
H4B H 0.2392 -0.6614 0.3991
O1B O 0.2427(2) -0.85129(18) 0.34803(12)
O2B O 0.4071(2) -0.9318(2) 0.39055(14)
C8B C 1.1921(3) 0.7771(3) 0.37245(16)
C9B C 1.1366(3) 0.6931(2) 0.40982(15)
C10B C 1.1268(4) 0.7103(3) 0.47375(17)
H5B H 1.1557 0.7747 0.4943
C11B C 1.0760(4) 0.6359(3) 0.50853(16)
H6B H 1.0725 0.6510 0.5521
C12B C 1.0299(3) 0.5396(2) 0.48107(15)
C13B C 1.0410(3) 0.5209(3) 0.41687(18)
H7B H 1.0119 0.4564 0.3964
C14B C 1.0941(3) 0.5956(3) 0.38186(17)
H8B H 1.1011 0.5797 0.3389
O3B O 1.2040(3) 0.8707(2) 0.39663(13)
O4B O 1.2202(3) 0.7542(2) 0.31965(14)
C15B C 0.4395(2) -1.1667(2) 0.23184(13)
H9B H 0.3812 -1.2156 0.2130
C16B C 0.5294(3) -1.0325(3) 0.28620(17)
H10B H 0.5439 -0.9710 0.3127
C17B C 0.6098(3) -1.0843(3) 0.25916(17)
H11B H 0.6884 -1.0652 0.2629
C18B C 0.6056(3) -1.2496(3) 0.18786(13)
C19B C 0.7255(3) -1.2472(3) 0.19171(16)
H12B H 0.7717 -1.1994 0.2207
C20B C 0.7771(3) -1.3152(3) 0.15288(16)
H13B H 0.8577 -1.3109 0.1547
C21B C 0.7109(3) -1.3896(3) 0.11126(14)
C22B C 0.5924(3) -1.3976(3) 0.11069(18)
H14B H 0.5476 -1.4508 0.0854
C23B C 0.5391(3) -1.3255(3) 0.14826(18)
H15B H 0.4584 -1.3290 0.1464
C24B C 0.7100(4) -1.5158(3) 0.02296(18)
H16B H 0.7612 -1.5362 -0.0068
H17B H 0.6446 -1.4751 -0.0021
C25B C 0.7474(3) -1.6878(3) 0.07730(16)
C26B C 0.7003(3) -1.7744(3) 0.10477(19)
H18B H 0.6195 -1.7781 0.1024
C27B C 0.7716(3) -1.8557(3) 0.13581(18)
H19B H 0.7391 -1.9133 0.1551
C28B C 0.8924(3) -1.8523(3) 0.13846(14)
C29B C 0.9397(3) -1.7659(3) 0.11115(15)
H20B H 1.0203 -1.7629 0.1130
C30B C 0.8676(3) -1.6822(3) 0.08053(16)
H21B H 0.9000 -1.6232 0.0624
C31B C 0.9353(4) -2.0444(3) 0.1761(2)
H22B H 0.8650 -2.0769 0.1558
C32B C 1.0261(4) -2.0930(3) 0.21550(19)
H23B H 1.0284 -2.1660 0.2275
C33B C 1.0761(3) -1.9280(3) 0.20680(15)
H24B H 1.1197 -1.8640 0.2105
N1B N 0.4222(2) -1.0837(2) 0.26903(12)
N2B N 0.5527(2) -1.1721(2) 0.22437(11)
N3B N 0.9660(2) -1.9371(2) 0.17129(13)
N4B N 1.1150(3) -2.0200(2) 0.23563(14)
O5B O 0.7725(2) -1.44895(19) 0.07297(12)
O6B O 0.6671(2) -1.6102(2) 0.04768(12)
Cd1B Cd 0.27171(2) -1.039354(17) 0.318567(10)
N4_2 N 0.8850(3) 0.0200(2) 0.76437(14)
N4B_2 N 0.1150(3) -1.0200(2) 0.23563(14)
O3B_2 O 0.2040(3) -1.1293(2) 0.39663(13)
O4B_2 O 0.2202(3) -1.2458(2) 0.31965(14)
Cd1_2 Cd -0.27171(2) 1.039354(17) 0.681433(10)
Cd1B_2 Cd 1.27171(2) -2.039354(17) 0.318567(10)
Cd1B_3 Cd 1.27171(2) 0.960646(17) 0.318567(10)
loop_
_geom_bond_atom_site_label_1
_geom_bond_atom_site_label_2
_geom_bond_site_symmetry_1
_geom_bond_site_symmetry_2
C1 C2 1_555 1_555
C2 C3 1_555 1_555
C3 H1 1_555 1_555
C4 C3 1_555 1_555
H2 C4 1_555 1_555
C5 C4 1_555 1_555
C6 C5 1_555 1_555
H3 C6 1_555 1_555
C7 C2 1_555 1_555
H4 C7 1_555 1_555
C8 C9 1_555 1_555
C9 C10 1_555 1_555
C10 H5 1_555 1_555
C11 C10 1_555 1_555
H6 C11 1_555 1_555
C12 C11 1_555 1_555
C13 C12 1_555 1_555
H7 C13 1_555 1_555
C14 C9 1_555 1_555
H8 C14 1_555 1_555
C15 H9 1_555 1_555
C16 H10 1_555 1_555
C17 C16 1_555 1_555
H11 C17 1_555 1_555
C18 C19 1_555 1_555
C19 H12 1_555 1_555
C20 C19 1_555 1_555
H13 C20 1_555 1_555
C21 C20 1_555 1_555
C22 C21 1_555 1_555
H14 C22 1_555 1_555
C23 C18 1_555 1_555
H15 C23 1_555 1_555
C24 H16 1_555 1_555
H17 C24 1_555 1_555
C25 C26 1_555 1_555
C26 H18 1_555 1_555
C27 C26 1_555 1_555
H19 C27 1_555 1_555
C28 C27 1_555 1_555
C29 C28 1_555 1_555
H20 C29 1_555 1_555
C30 C25 1_555 1_555
H21 C30 1_555 1_555
C31 H22 1_555 1_555
C32 C31 1_555 1_555
H23 C32 1_555 1_555
C33 H24 1_555 1_555
N1 C15 1_555 1_555
N2 C15 1_555 1_555
N3 C28 1_555 1_555
N4 C32 1_555 1_555
O1 C1 1_555 1_555
O2 C1 1_555 1_555
O3 C8 1_555 1_555
O4 C8 1_555 1_555
O5 C21 1_555 1_555
O6 C24 1_555 1_555
Cd1 N1 1_555 1_555
C1B C2B 1_555 1_555
C2B C3B 1_555 1_555
C3B H1B 1_555 1_555
C4B C3B 1_555 1_555
H2B C4B 1_555 1_555
C5B C5 1_555 1_555
C6B C5B 1_555 1_555
H3B C6B 1_555 1_555
C7B C2B 1_555 1_555
H4B C7B 1_555 1_555
O1B C1B 1_555 1_555
O2B C1B 1_555 1_555
C8B C9B 1_555 1_555
C9B C10B 1_555 1_555
C10B H5B 1_555 1_555
C11B C10B 1_555 1_555
H6B C11B 1_555 1_555
C12B C12 1_555 1_555
C13B C12B 1_555 1_555
H7B C13B 1_555 1_555
C14B C9B 1_555 1_555
H8B C14B 1_555 1_555
O3B C8B 1_555 1_555
O4B C8B 1_555 1_555
C15B H9B 1_555 1_555
C16B H10B 1_555 1_555
C17B C16B 1_555 1_555
H11B C17B 1_555 1_555
C18B C19B 1_555 1_555
C19B H12B 1_555 1_555
C20B C19B 1_555 1_555
H13B C20B 1_555 1_555
C21B C20B 1_555 1_555
C22B C21B 1_555 1_555
H14B C22B 1_555 1_555
C23B C18B 1_555 1_555
H15B C23B 1_555 1_555
C24B H16B 1_555 1_555
H17B C24B 1_555 1_555
C25B C26B 1_555 1_555
C26B H18B 1_555 1_555
C27B C26B 1_555 1_555
H19B C27B 1_555 1_555
C28B C27B 1_555 1_555
C29B C28B 1_555 1_555
H20B C29B 1_555 1_555
C30B C25B 1_555 1_555
H21B C30B 1_555 1_555
C31B H22B 1_555 1_555
C32B C31B 1_555 1_555
H23B C32B 1_555 1_555
C33B H24B 1_555 1_555
N1B C15B 1_555 1_555
N2B C15B 1_555 1_555
N3B C28B 1_555 1_555
N4B C32B 1_555 1_555
O5B C21B 1_555 1_555
O6B C24B 1_555 1_555
Cd1B O1B 1_555 1_555
N4_2 Cd1 1_555 1_555
N4B_2 Cd1B 1_555 1_555
O3B_2 Cd1B 1_555 1_555
O4B_2 Cd1B 1_555 1_555
Cd1_2 N4 1_555 1_555
Cd1B_2 N4B 1_555 1_555
Cd1B_3 O3B 1_555 1_555
C6 C7 1_555 1_555
C13 C14 1_555 1_555
C16 N1 1_555 1_555
C17 N2 1_555 1_555
C18 N2 1_555 1_555
C22 C23 1_555 1_555
C24 O5 1_555 1_555
C25 O6 1_555 1_555
C29 C30 1_555 1_555
C31 N3 1_555 1_555
C33 N3 1_555 1_555
C33 N4 1_555 1_555
O1 Cd1 1_555 1_555
O2 Cd1 1_555 1_555
O3 Cd1 1_555 1_555
O4 Cd1 1_555 1_555
C4B C5B 1_555 1_555
C6B C7B 1_555 1_555
O2B Cd1B 1_555 1_555
C11B C12B 1_555 1_555
C13B C14B 1_555 1_555
O4B Cd1B_3 1_555 1_555
C16B N1B 1_555 1_555
C17B N2B 1_555 1_555
C18B N2B 1_555 1_555
C22B C23B 1_555 1_555
C24B O5B 1_555 1_555
C25B O6B 1_555 1_555
C29B C30B 1_555 1_555
C31B N3B 1_555 1_555
C33B N3B 1_555 1_555
C33B N4B 1_555 1_555
N1B Cd1B 1_555 1_555

#END
