
#######################################################################
#
#                 Cambridge Crystallographic Data Centre
#                                CCDC 
#
#######################################################################
#
# If this CIF has been generated from an entry in the Cambridge 
# Structural Database, then it will include bibliographic, chemical, 
# crystal, experimental, refinement or atomic coordinate data resulting 
# from the CCDC's data processing and validation procedures.
#
#######################################################################

data_BOQLEZ
_symmetry_cell_setting           triclinic
_symmetry_space_group_name_H-M   'P -1'
_symmetry_Int_Tables_number      2
_space_group_name_Hall           '-P 1'
loop_
_symmetry_equiv_pos_site_id
_symmetry_equiv_pos_as_xyz
1 x,y,z
2 -x,-y,-z
_cell_length_a                   7.5296(3)
_cell_length_b                   7.6976(3)
_cell_length_c                   17.6101(8)
_cell_angle_alpha                84.707(3)
_cell_angle_beta                 78.411(4)
_cell_angle_gamma                69.760(4)
_cell_volume                     937.843
loop_
_atom_site_label
_atom_site_type_symbol
_atom_site_fract_x
_atom_site_fract_y
_atom_site_fract_z
K1 K 0.85456(3) 0.79881(3) 0.000869(14)
K2 K 1.33735(4) 0.85542(4) -0.430183(15)
N1 N 0.99130(13) 0.92092(12) -0.22695(5)
O1 O 0.93432(13) 0.50152(13) 0.10264(5)
O2 O 1.46615(12) 1.03111(13) -0.31590(6)
N2 N 1.14226(13) 0.94430(12) -0.27391(5)
N3 N 1.09581(15) 1.05647(13) -0.15562(6)
O3 O 1.27248(14) 1.19668(14) -0.50835(6)
N4 N 1.37357(14) 1.07657(14) -0.25098(7)
N5 N 0.95958(14) 0.98567(13) -0.15646(5)
C1 C 0.97188(15) 0.67153(14) -0.29789(6)
N6 N 1.26826(15) 0.77578(16) -0.02676(6)
C2 C 0.86129(16) 0.84151(16) -0.25226(7)
C3 C 1.20105(15) 1.02790(14) -0.22682(6)
N7 N 0.98788(17) 0.66194(14) -0.37402(6)
N8 N 1.06497(17) 0.51079(14) -0.26642(6)
O4 O 1.41522(14) 1.15740(15) -0.20434(7)
N9 N 1.14375(17) 0.39493(14) -0.32635(6)
N10 N 1.09732(17) 0.48404(15) -0.39011(6)
N11 N 1.64012(13) 0.45644(12) -0.21868(5)
N12 N 1.53935(16) 0.57169(15) -0.32223(6)
N13 N 1.73307(14) 0.32199(13) -0.26803(5)
N14 N 1.52445(15) 0.60736(14) -0.24885(6)
N15 N 1.71819(19) 0.30485(16) -0.40337(6)
O5 O 1.83896(19) 0.15067(15) -0.40698(6)
C4 C 1.66470(18) 0.40065(16) -0.33074(6)
N16 N 1.34151(14) 0.61593(15) -0.06521(6)
N17 N 1.56923(14) 0.73871(14) -0.07223(6)
C5 C 1.52452(15) 0.59820(15) -0.09185(6)
N18 N 1.40414(16) 0.84818(15) -0.03078(7)
C6 C 1.66316(18) 0.43712(16) -0.13667(6)
O6 O 1.6341(2) 0.38730(17) -0.45546(6)
H1 H 0.7821(19) 0.9370(18) -0.2848(8)
H2 H 1.793(2) 0.4290(19) -0.1370(8)
H3 H 0.782(2) 0.816(2) -0.2049(9)
H4 H 1.644(2) 0.323(2) -0.1179(9)
H5 H 0.838(3) 0.479(2) 0.0967(10)
H6 H 0.920(3) 0.511(2) 0.1512(11)
H7 H 1.225(3) 1.281(3) -0.4822(12)
H8 H 1.210(3) 1.224(3) -0.5420(12)
K1A K 1.14544(3) 0.20119(3) -0.000869(14)
K1_2 K 1.85456(3) 0.79881(3) 0.000869(14)
K1A_2 K 1.14544(3) 1.20119(3) -0.000869(14)
K2A K 1.66265(4) 1.14458(4) -0.569817(15)
K2A_2 K 1.66265(4) 0.14458(4) -0.569817(15)
O1A O 1.06568(13) 0.49848(13) -0.10264(5)
O3A O 1.72752(14) 0.80332(14) -0.49165(6)
N17_2 N 0.56923(14) 0.73871(14) -0.07223(6)
N18A N 0.59586(16) 1.15182(15) 0.03078(7)
O6A O 1.3659(2) 0.61270(17) -0.54454(6)
H5A H 1.162(3) 0.521(2) -0.0967(10)
H6A H 1.080(3) 0.489(2) -0.1512(11)
H7A H 1.775(3) 0.719(3) -0.5178(12)
H8A H 1.790(3) 0.776(3) -0.4580(12)
loop_
_geom_bond_atom_site_label_1
_geom_bond_atom_site_label_2
_geom_bond_site_symmetry_1
_geom_bond_site_symmetry_2
K1 O1 1_555 1_555
K2 O2 1_555 1_555
N1 N2 1_555 1_555
O1 H5 1_555 1_555
O2 N4 1_555 1_555
N2 K2 1_555 1_555
N3 N5 1_555 1_555
O3 K2 1_555 1_555
N4 C3 1_555 1_555
N5 K1 1_555 1_555
C1 C2 1_555 1_555
N6 K1 1_555 1_555
C2 N1 1_555 1_555
C3 N2 1_555 1_555
N7 C1 1_555 1_555
N8 C1 1_555 1_555
O4 N4 1_555 1_555
N9 N8 1_555 1_555
N10 N7 1_555 1_555
N11 N13 1_555 1_555
N12 K2 1_555 1_555
N13 C4 1_555 1_555
N14 N11 1_555 1_555
N15 O5 1_555 1_555
C4 N12 1_555 1_555
N16 N6 1_555 1_555
N17 C5 1_555 1_555
C5 N16 1_555 1_555
N18 N6 1_555 1_555
C6 N11 1_555 1_555
O6 N15 1_555 1_555
H1 C2 1_555 1_555
H2 C6 1_555 1_555
H3 C2 1_555 1_555
H4 C6 1_555 1_555
H6 O1 1_555 1_555
H7 O3 1_555 1_555
H8 O3 1_555 1_555
K1A O1 1_555 1_555
K1_2 N17 1_555 1_555
K1A_2 N18 1_555 1_555
K2A O3 1_555 1_555
K2A_2 O6 1_555 1_555
O1A K1 1_555 1_555
O3A K2 1_555 1_555
N17_2 K1 1_555 1_555
N18A K1 1_555 1_555
O6A K2 1_555 1_555
H5A O1A 1_555 1_555
H6A O1A 1_555 1_555
H7A O3A 1_555 1_555
H8A O3A 1_555 1_555
N1 N5 1_555 1_555
N3 C3 1_555 1_555
N9 N10 1_555 1_555
N12 N14 1_555 1_555
N15 C4 1_555 1_555
N17 N18 1_555 1_555
C5 C6 1_555 1_555
K1A O1A 1_555 1_555
K2A O3A 1_555 1_555

#END
