
#######################################################################
#
#                 Cambridge Crystallographic Data Centre
#                                CCDC 
#
#######################################################################
#
# If this CIF has been generated from an entry in the Cambridge 
# Structural Database, then it will include bibliographic, chemical, 
# crystal, experimental, refinement or atomic coordinate data resulting 
# from the CCDC's data processing and validation procedures.
#
#######################################################################

data_BOQLID
_symmetry_cell_setting           triclinic
_symmetry_space_group_name_H-M   'P -1'
_symmetry_Int_Tables_number      2
_space_group_name_Hall           '-P 1'
loop_
_symmetry_equiv_pos_site_id
_symmetry_equiv_pos_as_xyz
1 x,y,z
2 -x,-y,-z
_cell_length_a                   7.5518(4)
_cell_length_b                   7.5556(4)
_cell_length_c                   18.2305(9)
_cell_angle_alpha                78.960(5)
_cell_angle_beta                 85.340(4)
_cell_angle_gamma                71.073(5)
_cell_volume                     965.547
loop_
_atom_site_label
_atom_site_type_symbol
_atom_site_fract_x
_atom_site_fract_y
_atom_site_fract_z
Rb1 Rb -0.29272(3) 1.15832(3) -0.003402(13)
Rb2 Rb -0.64561(4) 1.32420(4) -0.427350(13)
O1 O 0.0073(3) 1.0511(3) -0.11450(12)
O2 O -0.4729(2) 1.4564(2) -0.30339(11)
N1 N -0.9136(3) 1.3414(3) -0.06428(11)
N2 N -1.0611(3) 1.6308(3) -0.21715(10)
O3 O -0.3477(3) 1.4007(3) -0.19458(12)
O4 O -0.2930(3) 1.2662(3) -0.51150(13)
O5 O -1.3529(3) 1.8308(3) -0.40345(11)
N3 N -0.5934(2) 0.9835(2) -0.22467(10)
N4 N -0.8447(3) 0.9824(3) -0.37175(11)
N5 N -0.5685(3) 1.1358(3) -0.26771(10)
N6 N -0.4557(3) 1.0843(3) -0.15337(11)
N7 N -1.1920(3) 1.7246(3) -0.26693(11)
C1 C -0.6748(3) 0.8564(3) -0.25152(13)
H1 H -0.5816 0.7757 -0.2810
H2 H -0.7108 0.7752 -0.2091
N8 N -1.0070(3) 1.0598(3) -0.27006(12)
N9 N -1.1175(3) 1.1378(3) -0.33001(12)
N10 N -1.1974(3) 1.7127(4) -0.39846(13)
N11 N -0.5272(3) 0.9475(3) -0.15641(11)
N12 N -0.9397(3) 1.5326(3) -0.31636(12)
N13 N -1.0218(3) 1.0920(3) -0.39041(12)
C2 C -0.8432(3) 0.9667(3) -0.29831(13)
N14 N -0.6705(3) 1.4070(3) -0.03635(12)
N15 N -0.9088(3) 1.5161(3) -0.24440(11)
C3 C -1.0861(3) 1.6525(3) -0.13807(12)
H3 H -1.0977 1.7821 -0.1341
H4 H -1.2003 1.6277 -0.1180
N16 N -0.7504(3) 1.2731(3) -0.02794(12)
N17 N -0.7787(3) 1.5651(3) -0.07880(12)
N18 N -0.4308(3) 1.3625(3) -0.24096(13)
O6 O -1.1096(3) 1.6331(4) -0.44865(11)
C4 C -1.1099(3) 1.6585(3) -0.32652(13)
C5 C -0.9242(3) 1.5186(3) -0.09372(12)
C6 C -0.4825(3) 1.1917(3) -0.22069(13)
H5 H -0.016(5) 1.077(5) -0.160(2)
H6 H 0.021(4) 1.148(4) -0.1076(15)
H7 H -0.260(4) 1.205(4) -0.5412(14)
H8 H -0.205(6) 1.217(6) -0.485(2)
Rb1A Rb 0.29272(3) 0.84168(3) 0.003402(13)
Rb1A_2 Rb -0.70728(3) 0.84168(3) 0.003402(13)
Rb1A_3 Rb -0.70728(3) 1.84168(3) 0.003402(13)
Rb2A Rb -0.35439(4) 1.67580(4) -0.572650(13)
Rb2A_2 Rb -1.35439(4) 1.67580(4) -0.572650(13)
O1A O -0.0073(3) 0.9489(3) 0.11450(12)
O4A O -0.7070(3) 1.7338(3) -0.48850(13)
N16A N -0.2496(3) 0.7269(3) 0.02794(12)
N17A N -0.2213(3) 1.4349(3) 0.07880(12)
O6A O -0.8904(3) 1.3669(4) -0.55135(11)
H5A H 0.016(5) 0.923(5) 0.160(2)
H6A H -0.021(4) 0.852(4) 0.1076(15)
H7A H -0.740(4) 1.795(4) -0.4588(14)
H8A H -0.795(6) 1.783(6) -0.515(2)
loop_
_geom_bond_atom_site_label_1
_geom_bond_atom_site_label_2
_geom_bond_site_symmetry_1
_geom_bond_site_symmetry_2
Rb1 O1 1_555 1_555
Rb2 O2 1_555 1_555
O1 H5 1_555 1_555
O2 N18 1_555 1_555
N1 N16 1_555 1_555
N2 N7 1_555 1_555
O3 N18 1_555 1_555
O4 Rb2 1_555 1_555
O5 N10 1_555 1_555
N3 N5 1_555 1_555
N4 N13 1_555 1_555
N5 Rb2 1_555 1_555
N6 N11 1_555 1_555
N7 C4 1_555 1_555
C1 N3 1_555 1_555
H1 C1 1_555 1_555
H2 C1 1_555 1_555
N8 N9 1_555 1_555
N9 N13 1_555 1_555
N10 O6 1_555 1_555
N11 N3 1_555 1_555
N12 Rb2 1_555 1_555
C2 N4 1_555 1_555
N14 Rb1 1_555 1_555
N15 N2 1_555 1_555
C3 N2 1_555 1_555
H3 C3 1_555 1_555
H4 C3 1_555 1_555
N16 N14 1_555 1_555
N17 N14 1_555 1_555
N18 C6 1_555 1_555
O6 Rb2A_2 1_555 1_555
C4 N10 1_555 1_555
C5 N1 1_555 1_555
C6 N5 1_555 1_555
H6 O1 1_555 1_555
H7 O4 1_555 1_555
H8 O4 1_555 1_555
Rb1A O1 1_555 1_555
Rb1A_2 N16 1_555 1_555
Rb1A_3 N17 1_555 1_555
Rb2A O4 1_555 1_555
O1A Rb1 1_555 1_555
O4A Rb2 1_555 1_555
N16A Rb1 1_555 1_555
N17A Rb1 1_555 1_555
O6A Rb2 1_555 1_555
H5A O1A 1_555 1_555
H6A O1A 1_555 1_555
H7A O4A 1_555 1_555
H8A O4A 1_555 1_555
N6 C6 1_555 1_555
C1 C2 1_555 1_555
N8 C2 1_555 1_555
N12 N15 1_555 1_555
N12 C4 1_555 1_555
C3 C5 1_555 1_555
N17 C5 1_555 1_555
Rb1A O1A 1_555 1_555
Rb2A O4A 1_555 1_555

#END
