
#######################################################################
#
#                 Cambridge Crystallographic Data Centre
#                                CCDC 
#
#######################################################################
#
# If this CIF has been generated from an entry in the Cambridge 
# Structural Database, then it will include bibliographic, chemical, 
# crystal, experimental, refinement or atomic coordinate data resulting 
# from the CCDC's data processing and validation procedures.
#
#######################################################################

data_BOQNEB
_symmetry_cell_setting           monoclinic
_symmetry_space_group_name_H-M   'C 2/c'
_symmetry_Int_Tables_number      15
_space_group_name_Hall           '-C 2yn'
loop_
_symmetry_equiv_pos_site_id
_symmetry_equiv_pos_as_xyz
1 x,y,z
2 -x,y,1/2-z
3 1/2+x,1/2+y,z
4 1/2-x,1/2+y,1/2-z
5 -x,-y,-z
6 x,-y,1/2+z
7 1/2-x,1/2-y,-z
8 1/2+x,1/2-y,1/2+z
_cell_length_a                   29.138(11)
_cell_length_b                   9.961(4)
_cell_length_c                   19.959(8)
_cell_angle_alpha                90
_cell_angle_beta                 112.053(7)
_cell_angle_gamma                90
_cell_volume                     5369.14
loop_
_atom_site_label
_atom_site_type_symbol
_atom_site_fract_x
_atom_site_fract_y
_atom_site_fract_z
C28 C 0.0718(6) 0.9476(15) 0.4731(9)
H18 H 0.0847 0.9202 0.5240
H19 H 0.0502 1.0258 0.4668
H20 H 0.0994 0.9709 0.4586
O6 O 0.0446(5) 0.8411(11) 0.4300(7)
H22 H 0.0362 0.8615 0.3861
Ag1 Ag 0.0000 0.63654(14) 0.2500
Ag2 Ag 0.21987(4) 0.37268(9) 0.41371(6)
N1 N 0.0239(4) 0.4150(10) 0.3868(6)
N2 N -0.0310(4) 0.5998(11) 0.3334(6)
N3 N 0.1215(4) 0.2407(10) 0.2574(6)
N4 N 0.2110(4) 0.2343(10) 0.3136(6)
N5 N 0.1561(4) 0.6849(9) 0.3637(6)
N6 N 0.2389(4) 0.5918(9) 0.4085(5)
N7 N 0.3301(4) 0.2508(11) 0.4911(7)
N8 N 0.0000 0.978(2) 0.2500
O1 O 0.3017(4) 0.2992(9) 0.5177(5)
O2 O 0.3428(4) 0.3195(9) 0.4503(6)
O3 O 0.3414(4) 0.1342(10) 0.5021(6)
O4 O -0.0173(10) 0.870(2) 0.2689(19)
O5 O 0.0206(5) 1.0326(14) 0.3065(7)
C1 C -0.0713(5) 0.6653(15) 0.3338(8)
H1 H -0.0819 0.7441 0.3055
C2 C -0.0973(6) 0.621(2) 0.3741(11)
H2 H -0.1243 0.6737 0.3748
C3 C -0.0864(7) 0.507(2) 0.4126(11)
H3 H -0.1072 0.4718 0.4354
C4 C -0.0430(6) 0.4433(19) 0.4171(9)
C5 C -0.0155(6) 0.3290(17) 0.4548(9)
H4 H -0.0237 0.2733 0.4874
C6 C 0.0235(6) 0.3147(14) 0.4361(8)
H5 H 0.0478 0.2461 0.4537
C7 C -0.0169(6) 0.4923(15) 0.3772(8)
C8 C 0.2511(6) 0.1667(13) 0.3125(8)
H6 H 0.2830 0.1932 0.3450
C9 C 0.2473(7) 0.0588(14) 0.2651(9)
H7 H 0.2766 0.0137 0.2676
C10 C 0.2038(7) 0.0177(15) 0.2167(8)
H8 H 0.2021 -0.0525 0.1837
C11 C 0.1606(6) 0.0821(11) 0.2163(7)
C12 C 0.1093(6) 0.0677(13) 0.1808(8)
H9 H 0.0931 0.0016 0.1455
C13 C 0.0860(6) 0.1654(12) 0.2055(8)
H10 H 0.0513 0.1787 0.1894
C14 C 0.1675(5) 0.1931(11) 0.2650(7)
C15 C 0.2880(5) 0.6288(12) 0.4374(7)
H11 H 0.3123 0.5602 0.4541
C16 C 0.3032(6) 0.7572(15) 0.4431(8)
H12 H 0.3376 0.7758 0.4586
C17 C 0.2699(7) 0.8630(13) 0.4270(7)
H13 H 0.2809 0.9535 0.4356
C18 C 0.2200(6) 0.8315(12) 0.3979(7)
C19 C 0.1770(5) 0.9075(12) 0.3782(7)
H14 H 0.1748 1.0027 0.3786
C20 C 0.1370(6) 0.8160(13) 0.3572(8)
H15 H 0.1030 0.8391 0.3414
C21 C 0.2081(4) 0.6940(11) 0.3901(6)
C22 C 0.0619(5) 0.4335(12) 0.3591(7)
C23 C 0.0729(5) 0.3334(12) 0.3207(7)
H16 H 0.0538 0.2533 0.3105
C24 C 0.1113(4) 0.3467(10) 0.2964(7)
C25 C 0.1378(5) 0.4659(12) 0.3087(7)
C26 C 0.1271(5) 0.5676(11) 0.3465(7)
C27 C 0.0886(4) 0.5561(12) 0.3739(7)
H17 H 0.0812 0.6264 0.4004
H21 H 0.167(5) 0.475(15) 0.302(8)
Ag2A Ag -0.21987(4) 0.37268(9) 0.08629(6)
Ag2F Ag 0.28013(4) 0.12732(9) 0.58629(6)
N1A N -0.0239(4) 0.4150(10) 0.1132(6)
N2A N 0.0310(4) 0.5998(11) 0.1666(6)
N3A N -0.1215(4) 0.2407(10) 0.2426(6)
N4A N -0.2110(4) 0.2343(10) 0.1864(6)
N5A N -0.1561(4) 0.6849(9) 0.1363(6)
N6A N -0.2389(4) 0.5918(9) 0.0915(5)
N7F N 0.1699(4) 0.2492(11) 0.5089(7)
O1F O 0.1983(4) 0.2008(9) 0.4823(5)
O1A O -0.3017(4) 0.2992(9) -0.0177(5)
O1G O -0.1983(4) 0.2008(9) 0.0177(5)
O2F O 0.1572(4) 0.1805(9) 0.5497(6)
O3F O 0.1586(4) 0.3658(10) 0.4979(6)
O4A O 0.0173(10) 0.870(2) 0.2311(19)
O5A O -0.0206(5) 1.0326(14) 0.1935(7)
C1A C 0.0713(5) 0.6653(15) 0.1662(8)
H1A H 0.0819 0.7441 0.1945
C2A C 0.0973(6) 0.621(2) 0.1259(11)
H2A H 0.1243 0.6737 0.1252
C3A C 0.0864(7) 0.507(2) 0.0874(11)
H3A H 0.1072 0.4718 0.0646
C4A C 0.0430(6) 0.4433(19) 0.0829(9)
C5A C 0.0155(6) 0.3290(17) 0.0452(9)
H4A H 0.0237 0.2733 0.0126
C6A C -0.0235(6) 0.3147(14) 0.0639(8)
H5A H -0.0478 0.2461 0.0463
C7A C 0.0169(6) 0.4923(15) 0.1228(8)
C8A C -0.2511(6) 0.1667(13) 0.1875(8)
H6A H -0.2830 0.1932 0.1550
C9A C -0.2473(7) 0.0588(14) 0.2349(9)
H7A H -0.2766 0.0137 0.2324
C10A C -0.2038(7) 0.0177(15) 0.2833(8)
H8A H -0.2021 -0.0525 0.3163
C11A C -0.1606(6) 0.0821(11) 0.2837(7)
C12A C -0.1093(6) 0.0677(13) 0.3192(8)
H9A H -0.0931 0.0016 0.3545
C13A C -0.0860(6) 0.1654(12) 0.2945(8)
H10A H -0.0513 0.1787 0.3106
C14A C -0.1675(5) 0.1931(11) 0.2350(7)
C15A C -0.2880(5) 0.6288(12) 0.0626(7)
H11A H -0.3123 0.5602 0.0459
C16A C -0.3032(6) 0.7572(15) 0.0569(8)
H12A H -0.3376 0.7758 0.0414
C17A C -0.2699(7) 0.8630(13) 0.0730(7)
H13A H -0.2809 0.9535 0.0644
C18A C -0.2200(6) 0.8315(12) 0.1021(7)
C19A C -0.1770(5) 0.9075(12) 0.1218(7)
H14A H -0.1748 1.0027 0.1214
C20A C -0.1370(6) 0.8160(13) 0.1428(8)
H15A H -0.1030 0.8391 0.1586
C21A C -0.2081(4) 0.6940(11) 0.1099(6)
C22A C -0.0619(5) 0.4335(12) 0.1409(7)
C23A C -0.0729(5) 0.3334(12) 0.1793(7)
H16A H -0.0538 0.2533 0.1895
C24A C -0.1113(4) 0.3467(10) 0.2036(7)
C25A C -0.1378(5) 0.4659(12) 0.1913(7)
C26A C -0.1271(5) 0.5676(11) 0.1535(7)
C27A C -0.0886(4) 0.5561(12) 0.1261(7)
H17A H -0.0812 0.6264 0.0996
H21A H -0.167(5) 0.475(15) 0.198(8)
loop_
_geom_bond_atom_site_label_1
_geom_bond_atom_site_label_2
_geom_bond_site_symmetry_1
_geom_bond_site_symmetry_2
Ag1 N2 1_555 1_555
Ag2 N4 1_555 1_555
N1 C6 1_555 1_555
N2 C1 1_555 1_555
N3 C13 1_555 1_555
N4 C8 1_555 1_555
N5 C20 1_555 1_555
N6 Ag2 1_555 1_555
N7 O1 1_555 1_555
N8 O4 1_555 1_555
O1 Ag2 1_555 1_555
O2 N7 1_555 1_555
O3 N7 1_555 1_555
O4 Ag1 1_555 1_555
O5 N8 1_555 1_555
C1 H1 1_555 1_555
C2 C1 1_555 1_555
H2 C2 1_555 1_555
C3 C2 1_555 1_555
H3 C3 1_555 1_555
C4 C3 1_555 1_555
C5 C4 1_555 1_555
H4 C5 1_555 1_555
C6 C5 1_555 1_555
H5 C6 1_555 1_555
C7 N1 1_555 1_555
C8 H6 1_555 1_555
C9 C8 1_555 1_555
H7 C9 1_555 1_555
C10 C9 1_555 1_555
H8 C10 1_555 1_555
C11 C10 1_555 1_555
C12 C11 1_555 1_555
H9 C12 1_555 1_555
C13 C12 1_555 1_555
H10 C13 1_555 1_555
C14 N3 1_555 1_555
C15 N6 1_555 1_555
H11 C15 1_555 1_555
C16 C15 1_555 1_555
H12 C16 1_555 1_555
C17 C16 1_555 1_555
H13 C17 1_555 1_555
C18 C17 1_555 1_555
C19 C18 1_555 1_555
H14 C19 1_555 1_555
C20 C19 1_555 1_555
H15 C20 1_555 1_555
C21 N5 1_555 1_555
C22 N1 1_555 1_555
C23 C22 1_555 1_555
H16 C23 1_555 1_555
C24 N3 1_555 1_555
C25 C24 1_555 1_555
C26 N5 1_555 1_555
C27 C22 1_555 1_555
H17 C27 1_555 1_555
C28 H18 1_555 1_555
H19 C28 1_555 1_555
H20 C28 1_555 1_555
H21 C25 1_555 1_555
O6 C28 1_555 1_555
H22 O6 1_555 1_555
Ag2A N4A 1_555 1_555
Ag2F O1 1_555 1_555
N1A C6A 1_555 1_555
N2A Ag1 1_555 1_555
N3A C13A 1_555 1_555
N4A C8A 1_555 1_555
N5A C20A 1_555 1_555
N6A Ag2A 1_555 1_555
N7F O1F 1_555 1_555
O1F Ag2 1_555 1_555
O1A Ag2A 1_555 1_555
O1G Ag2A 1_555 1_555
O2F N7F 1_555 1_555
O3F N7F 1_555 1_555
O4A Ag1 1_555 1_555
O5A N8 1_555 1_555
C1A N2A 1_555 1_555
H1A C1A 1_555 1_555
C2A C1A 1_555 1_555
H2A C2A 1_555 1_555
C3A C2A 1_555 1_555
H3A C3A 1_555 1_555
C4A C3A 1_555 1_555
C5A C4A 1_555 1_555
H4A C5A 1_555 1_555
C6A C5A 1_555 1_555
H5A C6A 1_555 1_555
C7A N1A 1_555 1_555
C8A H6A 1_555 1_555
C9A C8A 1_555 1_555
H7A C9A 1_555 1_555
C10A C9A 1_555 1_555
H8A C10A 1_555 1_555
C11A C10A 1_555 1_555
C12A C11A 1_555 1_555
H9A C12A 1_555 1_555
C13A C12A 1_555 1_555
H10A C13A 1_555 1_555
C14A N3A 1_555 1_555
C15A N6A 1_555 1_555
H11A C15A 1_555 1_555
C16A C15A 1_555 1_555
H12A C16A 1_555 1_555
C17A C16A 1_555 1_555
H13A C17A 1_555 1_555
C18A C17A 1_555 1_555
C19A C18A 1_555 1_555
H14A C19A 1_555 1_555
C20A C19A 1_555 1_555
H15A C20A 1_555 1_555
C21A N5A 1_555 1_555
C22A N1A 1_555 1_555
C23A C22A 1_555 1_555
H16A C23A 1_555 1_555
C24A N3A 1_555 1_555
C25A C24A 1_555 1_555
C26A N5A 1_555 1_555
C27A C22A 1_555 1_555
H17A C27A 1_555 1_555
H21A C25A 1_555 1_555
N2 C7 1_555 1_555
N4 C14 1_555 1_555
N6 C21 1_555 1_555
N8 O4A 1_555 1_555
O4 O4A 1_555 1_555
C4 C7 1_555 1_555
C11 C14 1_555 1_555
C18 C21 1_555 1_555
C23 C24 1_555 1_555
C25 C26 1_555 1_555
C26 C27 1_555 1_555
Ag2F O1F 1_555 1_555
N2A C7A 1_555 1_555
N4A C14A 1_555 1_555
N6A C21A 1_555 1_555
C4A C7A 1_555 1_555
C11A C14A 1_555 1_555
C18A C21A 1_555 1_555
C23A C24A 1_555 1_555
C25A C26A 1_555 1_555
C26A C27A 1_555 1_555

#END
