
#######################################################################
#
#                 Cambridge Crystallographic Data Centre
#                                CCDC 
#
#######################################################################
#
# If this CIF has been generated from an entry in the Cambridge 
# Structural Database, then it will include bibliographic, chemical, 
# crystal, experimental, refinement or atomic coordinate data resulting 
# from the CCDC's data processing and validation procedures.
#
#######################################################################

data_BOQNIF
_symmetry_cell_setting           triclinic
_symmetry_space_group_name_H-M   'P -1'
_symmetry_Int_Tables_number      2
_space_group_name_Hall           '-P 1'
loop_
_symmetry_equiv_pos_site_id
_symmetry_equiv_pos_as_xyz
1 x,y,z
2 -x,-y,-z
_cell_length_a                   10.365(5)
_cell_length_b                   10.660(5)
_cell_length_c                   12.142(6)
_cell_angle_alpha                100.933(8)
_cell_angle_beta                 94.262(8)
_cell_angle_gamma                115.538(7)
_cell_volume                     1169.95
loop_
_atom_site_label
_atom_site_type_symbol
_atom_site_fract_x
_atom_site_fract_y
_atom_site_fract_z
Ag1 Ag 1.31854(10) 1.03317(10) 0.39678(10)
Ag2 Ag 1.23314(10) 1.03274(10) 0.73400(9)
O1 O 1.0328(9) 0.8573(9) 0.3832(9)
O2 O 1.1850(8) 0.9730(8) 0.5366(7)
O3 O 0.9612(10) 0.8316(9) 0.5411(8)
O4 O 1.5289(10) 0.9052(10) 0.3341(9)
O5 O 1.2998(10) 0.7934(9) 0.2999(8)
O6 O 1.4245(12) 0.7323(10) 0.1891(9)
N1 N 1.2404(10) 1.1522(10) 0.2557(8)
N2 N 1.0021(10) 1.1223(10) 0.1935(8)
N3 N 1.1940(9) 1.3515(9) 0.2878(7)
N4 N 1.4231(9) 1.3805(9) 0.3379(8)
N5 N 1.5184(9) 1.2277(9) 0.3991(8)
N6 N 1.0596(10) 0.9360(9) 0.1509(8)
N7 N 0.7966(10) 0.8234(10) 0.1171(8)
N8 N 0.9660(9) 1.3251(9) 0.2337(8)
N9 N 0.7247(10) 1.1255(10) 0.1784(8)
N10 N 1.0562(13) 0.8848(11) 0.4857(11)
C1 C 1.2781(12) 1.2900(13) 0.2922(10)
C2 C 1.1002(12) 1.0751(11) 0.2070(10)
C3 C 1.0574(13) 1.2660(13) 0.2412(9)
C4 C 1.4840(12) 1.5277(12) 0.3418(11)
H1 H 1.4330 1.5758 0.3169
C5 C 1.6229(14) 1.5878(13) 0.3855(11)
H2 H 1.6887 1.6864 0.3964
C6 C 1.6587(11) 1.4842(12) 0.4133(11)
C7 C 1.7808(13) 1.4822(13) 0.4618(10)
H3 H 1.8697 1.5678 0.4868
C8 C 1.7716(12) 1.3518(13) 0.4735(10)
H4 H 1.8567 1.3463 0.5012
C9 C 1.6424(14) 1.2326(13) 0.4456(10)
H5 H 1.6392 1.1468 0.4599
C10 C 1.5323(12) 1.3546(12) 0.3832(10)
C11 C 1.1551(13) 0.8835(14) 0.1232(11)
H6 H 1.2567 0.9350 0.1510
C12 C 1.0923(13) 0.7544(13) 0.0543(11)
H7 H 1.1390 0.6998 0.0231
C13 C 0.9404(14) 0.7124(13) 0.0355(10)
C14 C 0.8173(15) 0.5928(12) -0.0278(10)
H8 H 0.8226 0.5130 -0.0737
C15 C 0.6862(13) 0.5965(12) -0.0202(10)
H9 H 0.5988 0.5212 -0.0660
C16 C 0.6829(13) 0.7089(14) 0.0535(11)
H10 H 0.5901 0.7041 0.0594
C17 C 0.9200(13) 0.8263(12) 0.0994(10)
C18 C 1.0197(13) 1.4744(11) 0.2526(10)
H11 H 1.1178 1.5434 0.2817
C19 C 0.9096(12) 1.5040(12) 0.2227(10)
H12 H 0.9172 1.5969 0.2268
C20 C 0.7805(13) 1.3724(12) 0.1840(9)
C21 C 0.6377(11) 1.3351(12) 0.1409(11)
H13 H 0.6079 1.4046 0.1282
C22 C 0.5426(12) 1.1932(13) 0.1179(10)
H14 H 0.4433 1.1622 0.0888
C23 C 0.5889(13) 1.0921(12) 0.1363(10)
H15 H 0.5190 0.9940 0.1176
C24 C 0.8173(12) 1.2635(12) 0.1949(10)
N11 N 1.4180(13) 0.8075(11) 0.2720(10)
Ag2A Ag 1.76686(10) 0.96726(10) 0.26600(9)
Ag2A_2 Ag 0.76686(10) 0.96726(10) 0.26600(9)
O4A O 1.4711(10) 1.0948(10) 0.6659(9)
N2A N 0.9979(10) 0.8777(10) 0.8065(8)
N7A N 1.2034(10) 1.1766(10) 0.8829(8)
N9A N 1.2753(10) 0.8745(10) 0.8216(8)
loop_
_geom_bond_atom_site_label_1
_geom_bond_atom_site_label_2
_geom_bond_site_symmetry_1
_geom_bond_site_symmetry_2
Ag1 O1 1_555 1_555
Ag2 O2 1_555 1_555
O1 N10 1_555 1_555
O2 Ag1 1_555 1_555
O3 N10 1_555 1_555
O4 N11 1_555 1_555
O5 Ag1 1_555 1_555
O6 N11 1_555 1_555
N1 Ag1 1_555 1_555
N2 C2 1_555 1_555
N3 C1 1_555 1_555
N4 C1 1_555 1_555
N5 Ag1 1_555 1_555
N6 C2 1_555 1_555
N7 C16 1_555 1_555
N8 C3 1_555 1_555
N9 C23 1_555 1_555
N10 O2 1_555 1_555
C1 N1 1_555 1_555
C2 N1 1_555 1_555
C3 N2 1_555 1_555
C4 N4 1_555 1_555
H1 C4 1_555 1_555
C5 C4 1_555 1_555
H2 C5 1_555 1_555
C6 C5 1_555 1_555
C7 C6 1_555 1_555
H3 C7 1_555 1_555
C8 C7 1_555 1_555
H4 C8 1_555 1_555
C9 N5 1_555 1_555
H5 C9 1_555 1_555
C10 N4 1_555 1_555
C11 N6 1_555 1_555
H6 C11 1_555 1_555
C12 C11 1_555 1_555
H7 C12 1_555 1_555
C13 C12 1_555 1_555
C14 C13 1_555 1_555
H8 C14 1_555 1_555
C15 C14 1_555 1_555
H9 C15 1_555 1_555
C16 C15 1_555 1_555
H10 C16 1_555 1_555
C17 N6 1_555 1_555
C18 N8 1_555 1_555
H11 C18 1_555 1_555
C19 C18 1_555 1_555
H12 C19 1_555 1_555
C20 C19 1_555 1_555
C21 C20 1_555 1_555
H13 C21 1_555 1_555
C22 C21 1_555 1_555
H14 C22 1_555 1_555
C23 C22 1_555 1_555
H15 C23 1_555 1_555
C24 N8 1_555 1_555
N11 O5 1_555 1_555
Ag2A O4 1_555 1_555
Ag2A_2 N2 1_555 1_555
O4A Ag2 1_555 1_555
N2A Ag2 1_555 1_555
N7A Ag2 1_555 1_555
N9A Ag2 1_555 1_555
N3 C3 1_555 1_555
N5 C10 1_555 1_555
N7 C17 1_555 1_555
N7 Ag2A_2 1_555 1_555
N9 C24 1_555 1_555
N9 Ag2A_2 1_555 1_555
C6 C10 1_555 1_555
C8 C9 1_555 1_555
C13 C17 1_555 1_555
C20 C24 1_555 1_555

#END
