
#######################################################################
#
#                 Cambridge Crystallographic Data Centre
#                                CCDC 
#
#######################################################################
#
# If this CIF has been generated from an entry in the Cambridge 
# Structural Database, then it will include bibliographic, chemical, 
# crystal, experimental, refinement or atomic coordinate data resulting 
# from the CCDC's data processing and validation procedures.
#
#######################################################################

data_BOQPUU
_symmetry_cell_setting           monoclinic
_symmetry_space_group_name_H-M   'P 21/c'
_symmetry_Int_Tables_number      14
_space_group_name_Hall           '-P 2ybc'
loop_
_symmetry_equiv_pos_site_id
_symmetry_equiv_pos_as_xyz
1 x,y,z
2 -x,1/2+y,1/2-z
3 -x,-y,-z
4 x,1/2-y,1/2+z
_cell_length_a                   8.398(3)
_cell_length_b                   4.9346(18)
_cell_length_c                   14.205(4)
_cell_angle_alpha                90
_cell_angle_beta                 95.64(2)
_cell_angle_gamma                90
_cell_volume                     585.816
loop_
_atom_site_label
_atom_site_type_symbol
_atom_site_fract_x
_atom_site_fract_y
_atom_site_fract_z
Zn1 Zn 0.89213(7) 0.93432(13) 0.70672(4)
N1 N 0.8186(6) 0.9924(10) 0.5686(3)
C1 C 0.9464(9) 1.1076(14) 0.5127(5)
H1 H 0.89690 1.19350 0.45570
H2 H 1.00700 1.24400 0.55000
H3 H 0.73880 1.12490 0.56700
H4 H 0.77940 0.83100 0.54450
Zn2 Zn 1.57480(7) 0.92257(13) 0.81257(4)
O1 O 1.1077(4) 0.7933(8) 0.7349(3)
O2 O 1.2463(4) 1.2087(9) 0.7248(3)
O3 O 1.3884(4) 0.7905(8) 0.7306(3)
O4 O 1.4428(11) 0.9020(17) 0.9155(3)
O5 O 1.6207(7) 0.9395(17) 0.9486(5)
O6 O 1.3450(4) 0.9877(19) 0.9676(8)
B1 B 1.2476(7) 0.9295(14) 0.7301(5)
B2 B 1.50000 1.00000 1.00000
N1B N 1.1814(6) 1.0076(10) 0.4314(3)
C1B C 1.0536(9) 0.8924(14) 0.4873(5)
H1B H 1.10310 0.80650 0.54430
H2B H 0.99300 0.75600 0.45000
H3B H 1.26120 0.87510 0.43300
H4B H 1.22060 1.16900 0.45550
O4B O 1.5572(11) 1.0980(17) 1.0845(3)
O5B O 1.3793(7) 1.0605(17) 1.0514(5)
O6B O 1.6550(4) 1.0123(19) 1.0324(8)
Zn1B Zn 1.10787(7) 1.06568(13) 0.29328(4)
Zn2B Zn 0.42520(7) 1.07743(13) 0.18743(4)
O1B O 0.8923(4) 1.2067(8) 0.2651(3)
O2B O 0.7537(4) 0.7913(9) 0.2752(3)
O3B O 0.6116(4) 1.2095(8) 0.2694(3)
B1B B 0.7524(7) 1.0705(14) 0.2699(5)
Zn1A Zn 1.10787(7) 0.43432(13) 0.79328(4)
Zn1A_2 Zn 1.10787(7) 1.43432(13) 0.79328(4)
Zn1C Zn 0.89213(7) 0.56568(13) 0.20672(4)
Zn1C_2 Zn 0.89213(7) 1.56568(13) 0.20672(4)
Zn2A Zn 1.42520(7) 0.42257(13) 0.68743(4)
Zn2A_2 Zn 1.42520(7) 1.42257(13) 0.68743(4)
Zn2B_2 Zn 1.42520(7) 1.07743(13) 1.18743(4)
Zn2C Zn 0.57480(7) 0.57743(13) 0.31257(4)
Zn2C_2 Zn 0.57480(7) 1.57743(13) 0.31257(4)
O1A O 0.8923(4) 1.2933(8) 0.7651(3)
O1C O 1.1077(4) 0.7067(8) 0.2349(3)
O2A O 0.7537(4) 0.7087(9) 0.7752(3)
O2A_2 O 1.7537(4) 0.7087(9) 0.7752(3)
O2C O 0.2463(4) 1.2913(9) 0.2248(3)
O2C_2 O 1.2463(4) 1.2913(9) 0.2248(3)
O3A O 1.6116(4) 1.2905(8) 0.7694(3)
O3C O 0.3884(4) 0.7095(8) 0.2306(3)
O4B_2 O 0.5572(11) 1.0980(17) 0.0845(3)
O5B_2 O 0.3793(7) 1.0605(17) 0.0514(5)
loop_
_geom_bond_atom_site_label_1
_geom_bond_atom_site_label_2
_geom_bond_site_symmetry_1
_geom_bond_site_symmetry_2
Zn1 N1 1_555 1_555
N1 C1 1_555 1_555
C1 H1 1_555 1_555
H2 C1 1_555 1_555
H3 N1 1_555 1_555
H4 N1 1_555 1_555
Zn2 O3 1_555 1_555
O1 Zn1 1_555 1_555
O2 B1 1_555 1_555
O3 B1 1_555 1_555
O4 Zn2 1_555 1_555
O5 Zn2 1_555 1_555
O6 O4 1_555 1_555
B1 O1 1_555 1_555
B2 O4 1_555 1_555
N1B C1B 1_555 1_555
C1B C1 1_555 1_555
H1B C1B 1_555 1_555
H2B C1B 1_555 1_555
H3B N1B 1_555 1_555
H4B N1B 1_555 1_555
O4B B2 1_555 1_555
O5B O6 1_555 1_555
O6B O5 1_555 1_555
Zn1B N1B 1_555 1_555
Zn2B O3B 1_555 1_555
O1B Zn1B 1_555 1_555
O2B B1B 1_555 1_555
O3B B1B 1_555 1_555
B1B O1B 1_555 1_555
Zn1A O1 1_555 1_555
Zn1A_2 O2 1_555 1_555
Zn1C O2B 1_555 1_555
Zn1C_2 O1B 1_555 1_555
Zn2A O3 1_555 1_555
Zn2A_2 O2 1_555 1_555
Zn2B_2 O4B 1_555 1_555
Zn2C O2B 1_555 1_555
Zn2C_2 O3B 1_555 1_555
O1A Zn1 1_555 1_555
O1C Zn1B 1_555 1_555
O2A Zn1 1_555 1_555
O2A_2 Zn2 1_555 1_555
O2C Zn2B 1_555 1_555
O2C_2 Zn1B 1_555 1_555
O3A Zn2 1_555 1_555
O3C Zn2B 1_555 1_555
O4B_2 Zn2B 1_555 1_555
O5B_2 Zn2B 1_555 1_555
O4 O5 1_555 1_555
O5 B2 1_555 1_555
O6 B2 1_555 1_555
B2 O5B 1_555 1_555
B2 O6B 1_555 1_555
O4B O5B 1_555 1_555
O4B O6B 1_555 1_555
O5B Zn2B_2 1_555 1_555
Zn1A_2 O1A 1_555 1_555
Zn1C O1C 1_555 1_555
Zn2A_2 O3A 1_555 1_555
Zn2C O3C 1_555 1_555
O4B_2 O5B_2 1_555 1_555

#END
