
#######################################################################
#
#                 Cambridge Crystallographic Data Centre
#                                CCDC 
#
#######################################################################
#
# If this CIF has been generated from an entry in the Cambridge 
# Structural Database, then it will include bibliographic, chemical, 
# crystal, experimental, refinement or atomic coordinate data resulting 
# from the CCDC's data processing and validation procedures.
#
#######################################################################

data_BOQSIK01
_symmetry_cell_setting           monoclinic
_symmetry_space_group_name_H-M   'P 21/c'
_symmetry_Int_Tables_number      14
_space_group_name_Hall           '-P 2ybc'
loop_
_symmetry_equiv_pos_site_id
_symmetry_equiv_pos_as_xyz
1 x,y,z
2 -x,1/2+y,1/2-z
3 -x,-y,-z
4 x,1/2-y,1/2+z
_cell_length_a                   9.9989(3)
_cell_length_b                   21.3969(7)
_cell_length_c                   10.9470(4)
_cell_angle_alpha                90
_cell_angle_beta                 110.356(2)
_cell_angle_gamma                90
_cell_volume                     2195.8
loop_
_atom_site_label
_atom_site_type_symbol
_atom_site_fract_x
_atom_site_fract_y
_atom_site_fract_z
Co1 Co 0.27900(3) 0.369206(15) 0.05355(3)
N1 N -0.1716(2) -0.06662(10) -0.4169(2)
N2 N -0.5695(2) 0.16294(10) 0.4794(2)
O1 O 0.17981(19) 0.28946(8) 0.03546(19)
O2 O 0.0387(2) 0.34565(9) 0.1089(2)
O3 O -0.0529(2) 0.07569(9) -0.0438(2)
O4 O -0.2734(2) 0.17628(10) 0.2089(2)
O5 O 0.4383(3) 0.46349(12) 0.1567(2)
O6 O 0.3574(2) 0.38561(11) 0.2415(2)
C1 C -0.0024(3) 0.23610(11) 0.0824(2)
C2 C 0.0197(3) 0.18328(12) 0.0198(3)
H1 H 0.0880 0.1831 -0.0202
C3 C -0.0614(3) 0.13031(12) 0.0174(3)
C4 C -0.1598(3) 0.13006(13) 0.0799(3)
H2 H -0.2146 0.0946 0.0772
C5 C -0.1766(3) 0.18251(13) 0.1464(3)
C6 C -0.1002(3) 0.23627(13) 0.1466(3)
H3 H -0.1140 0.2720 0.1890
C7 C -0.0357(3) -0.05140(13) -0.3873(3)
H4 H 0.0175 -0.0721 -0.4296
C8 C 0.0303(3) -0.00643(14) -0.2970(3)
H5 H 0.1253 0.0036 -0.2815
C9 C -0.0428(3) 0.02383(12) -0.2295(3)
C10 C -0.1838(3) 0.00874(16) -0.2610(3)
H6 H -0.2384 0.0284 -0.2187
C11 C -0.2441(3) -0.03497(16) -0.3542(3)
H7 H -0.3408 -0.0434 -0.3756
C12 C -0.6001(4) 0.21379(16) 0.4048(4)
H8 H -0.6834 0.2354 0.3966
C13 C -0.5155(4) 0.23592(16) 0.3395(4)
H9 H -0.5419 0.2717 0.2884
C14 C -0.3925(3) 0.20546(13) 0.3494(3)
C15 C -0.3582(3) 0.15413(15) 0.4288(3)
H10 H -0.2740 0.1325 0.4404
C16 C -0.4480(3) 0.13453(13) 0.4914(3)
H11 H -0.4223 0.0996 0.5450
C17 C 0.0759(3) 0.29495(12) 0.0767(3)
C18 C 0.0238(3) 0.07336(14) -0.1302(3)
H12 H 0.1230 0.0634 -0.0829
H13 H 0.0194 0.1135 -0.1725
C19 C -0.2973(3) 0.22758(14) 0.2774(3)
H14 H -0.3431 0.2610 0.2178
H15 H -0.2077 0.2430 0.3384
C20 C 0.4619(3) 0.46995(14) 0.3801(3)
C21 C 0.5072(3) 0.53172(15) 0.3925(3)
H16 H 0.5124 0.5531 0.3203
C22 C 0.4556(3) 0.43847(15) 0.4884(3)
H17 H 0.4260 0.3970 0.4809
C23 C 0.4176(3) 0.43868(16) 0.2499(3)
O5B O 0.5617(3) 0.53651(12) 0.8433(2)
O6B O 0.6426(2) 0.61439(11) 0.7585(2)
C20B C 0.5381(3) 0.53005(14) 0.6199(3)
C21B C 0.4928(3) 0.46828(15) 0.6075(3)
H16B H 0.4876 0.4469 0.6797
C22B C 0.5444(3) 0.56153(15) 0.5116(3)
H17B H 0.5740 0.6030 0.5191
C23B C 0.5824(3) 0.56132(16) 0.7501(3)
Co1B Co 0.72100(3) 0.630794(15) 0.94645(3)
N1B N 1.1716(2) 1.06662(10) 1.4169(2)
N2B N 1.5695(2) 0.83706(10) 0.5206(2)
O1B O 0.82019(19) 0.71054(8) 0.96454(19)
O2B O 0.9613(2) 0.65435(9) 0.8911(2)
O3B O 1.0529(2) 0.92431(9) 1.0438(2)
O4B O 1.2734(2) 0.82372(10) 0.7911(2)
C1B C 1.0024(3) 0.76390(11) 0.9176(2)
C2B C 0.9803(3) 0.81672(12) 0.9802(3)
H1B H 0.9120 0.8169 1.0202
C3B C 1.0614(3) 0.86969(12) 0.9826(3)
C4B C 1.1598(3) 0.86994(13) 0.9201(3)
H2B H 1.2146 0.9054 0.9228
C5B C 1.1766(3) 0.81749(13) 0.8536(3)
C6B C 1.1002(3) 0.76373(13) 0.8534(3)
H3B H 1.1140 0.7280 0.8110
C7B C 1.0357(3) 1.05140(13) 1.3873(3)
H4B H 0.9825 1.0721 1.4296
C8B C 0.9697(3) 1.00643(14) 1.2970(3)
H5B H 0.8747 0.9964 1.2815
C9B C 1.0428(3) 0.97617(12) 1.2295(3)
C10B C 1.1838(3) 0.99126(16) 1.2610(3)
H6B H 1.2384 0.9716 1.2187
C11B C 1.2441(3) 1.03497(16) 1.3542(3)
H7B H 1.3408 1.0434 1.3756
C12B C 1.6001(4) 0.78621(16) 0.5952(4)
H8B H 1.6834 0.7646 0.6034
C13B C 1.5155(4) 0.76408(16) 0.6605(4)
H9B H 1.5419 0.7283 0.7116
C14B C 1.3925(3) 0.79454(13) 0.6506(3)
C15B C 1.3582(3) 0.84587(15) 0.5712(3)
H10B H 1.2740 0.8675 0.5596
C16B C 1.4480(3) 0.86547(13) 0.5086(3)
H11B H 1.4223 0.9004 0.4550
C17B C 0.9241(3) 0.70505(12) 0.9233(3)
C18B C 0.9762(3) 0.92664(14) 1.1302(3)
H12B H 0.8770 0.9366 1.0829
H13B H 0.9806 0.8865 1.1725
C19B C 1.2973(3) 0.77242(14) 0.7226(3)
H14B H 1.3431 0.7390 0.7822
H15B H 1.2077 0.7570 0.6616
Co1A Co -0.27900(3) -0.130794(15) -0.55355(3)
Co1A_2 Co 1.72100(3) 0.869206(15) 0.44645(3)
Co1C Co -0.72100(3) 0.130794(15) 0.55355(3)
Co1C_2 Co 1.27900(3) 1.130794(15) 1.55355(3)
N1A N 0.1716(2) 0.43338(10) -0.0831(2)
N1C N 0.8284(2) 0.56662(10) 1.0831(2)
N2A N 0.5695(2) 0.66294(10) 1.0206(2)
N2C N 0.4305(2) 0.33706(10) -0.0206(2)
loop_
_geom_bond_atom_site_label_1
_geom_bond_atom_site_label_2
_geom_bond_site_symmetry_1
_geom_bond_site_symmetry_2
Co1 O1 1_555 1_555
N1 C7 1_555 1_555
N2 C12 1_555 1_555
O1 C17 1_555 1_555
O2 C17 1_555 1_555
O3 C3 1_555 1_555
O4 C5 1_555 1_555
O5 C23 1_555 1_555
O6 Co1 1_555 1_555
C1 C2 1_555 1_555
C2 H1 1_555 1_555
C3 C2 1_555 1_555
C4 C3 1_555 1_555
H2 C4 1_555 1_555
C5 C4 1_555 1_555
C6 C1 1_555 1_555
H3 C6 1_555 1_555
C7 H4 1_555 1_555
C8 C7 1_555 1_555
H5 C8 1_555 1_555
C9 C8 1_555 1_555
C10 C9 1_555 1_555
H6 C10 1_555 1_555
C11 N1 1_555 1_555
H7 C11 1_555 1_555
C12 H8 1_555 1_555
C13 C12 1_555 1_555
H9 C13 1_555 1_555
C14 C13 1_555 1_555
C15 C14 1_555 1_555
H10 C15 1_555 1_555
C16 N2 1_555 1_555
H11 C16 1_555 1_555
C17 C1 1_555 1_555
C18 O3 1_555 1_555
H12 C18 1_555 1_555
H13 C18 1_555 1_555
C19 O4 1_555 1_555
H14 C19 1_555 1_555
H15 C19 1_555 1_555
C20 C21 1_555 1_555
C21 H16 1_555 1_555
C22 C20 1_555 1_555
H17 C22 1_555 1_555
C23 O6 1_555 1_555
O5B C23B 1_555 1_555
O6B C23B 1_555 1_555
C20B C21B 1_555 1_555
C21B C22 1_555 1_555
H16B C21B 1_555 1_555
C22B C21 1_555 1_555
H17B C22B 1_555 1_555
C23B C20B 1_555 1_555
Co1B O6B 1_555 1_555
N1B C7B 1_555 1_555
N2B C12B 1_555 1_555
O1B Co1B 1_555 1_555
O2B C17B 1_555 1_555
O3B C3B 1_555 1_555
O4B C5B 1_555 1_555
C1B C2B 1_555 1_555
C2B H1B 1_555 1_555
C3B C2B 1_555 1_555
C4B C3B 1_555 1_555
H2B C4B 1_555 1_555
C5B C4B 1_555 1_555
C6B C1B 1_555 1_555
H3B C6B 1_555 1_555
C7B H4B 1_555 1_555
C8B C7B 1_555 1_555
H5B C8B 1_555 1_555
C9B C8B 1_555 1_555
C10B C9B 1_555 1_555
H6B C10B 1_555 1_555
C11B N1B 1_555 1_555
H7B C11B 1_555 1_555
C12B H8B 1_555 1_555
C13B C12B 1_555 1_555
H9B C13B 1_555 1_555
C14B C13B 1_555 1_555
C15B C14B 1_555 1_555
H10B C15B 1_555 1_555
C16B N2B 1_555 1_555
H11B C16B 1_555 1_555
C17B O1B 1_555 1_555
C18B O3B 1_555 1_555
H12B C18B 1_555 1_555
H13B C18B 1_555 1_555
C19B O4B 1_555 1_555
H14B C19B 1_555 1_555
H15B C19B 1_555 1_555
Co1A N1 1_555 1_555
Co1A_2 N2B 1_555 1_555
Co1C N2 1_555 1_555
Co1C_2 N1B 1_555 1_555
N1A Co1 1_555 1_555
N1C Co1B 1_555 1_555
N2A Co1B 1_555 1_555
N2C Co1 1_555 1_555
C5 C6 1_555 1_555
C9 C18 1_555 1_555
C10 C11 1_555 1_555
C14 C19 1_555 1_555
C15 C16 1_555 1_555
C20 C23 1_555 1_555
C20B C22B 1_555 1_555
C1B C17B 1_555 1_555
C5B C6B 1_555 1_555
C9B C18B 1_555 1_555
C10B C11B 1_555 1_555
C14B C19B 1_555 1_555
C15B C16B 1_555 1_555

#END
