
#######################################################################
#
#                 Cambridge Crystallographic Data Centre
#                                CCDC 
#
#######################################################################
#
# If this CIF has been generated from an entry in the Cambridge 
# Structural Database, then it will include bibliographic, chemical, 
# crystal, experimental, refinement or atomic coordinate data resulting 
# from the CCDC's data processing and validation procedures.
#
#######################################################################

data_BOQSUW
_symmetry_cell_setting           monoclinic
_symmetry_space_group_name_H-M   'C 2/c'
_symmetry_Int_Tables_number      15
_space_group_name_Hall           '-C 2yn'
loop_
_symmetry_equiv_pos_site_id
_symmetry_equiv_pos_as_xyz
1 x,y,z
2 1/2+x,1/2+y,z
3 -x,y,1/2-z
4 1/2-x,1/2+y,1/2-z
5 -x,-y,-z
6 1/2-x,1/2-y,-z
7 x,-y,1/2+z
8 1/2+x,1/2-y,1/2+z
_cell_length_a                   18.3525(7)
_cell_length_b                   6.2310(3)
_cell_length_c                   12.1581(4)
_cell_angle_alpha                90
_cell_angle_beta                 99.836(3)
_cell_angle_gamma                90
_cell_volume                     1369.9
loop_
_atom_site_label
_atom_site_type_symbol
_atom_site_fract_x
_atom_site_fract_y
_atom_site_fract_z
Ag1 Ag 0.2085(3) 0.0366(8) -0.0556(4)
S1 S 0.3276(3) -0.0641(8) 0.1092(4)
N1 N 0.1182(3) 0.0420(8) 0.0481(4)
C1 C 0.0292(3) 0.2199(8) 0.1391(4)
C2 C 0.0681(3) -0.1338(8) 0.1931(4)
C3 C 0.0761(3) 0.2132(8) 0.0619(4)
C4 C 0.0245(3) 0.0436(8) 0.2078(4)
C5 C 0.1138(3) -0.1272(8) 0.1149(4)
N2 N 0.2661(3) -0.0645(8) 0.3044(4)
C6 C 0.2909(3) -0.0623(8) 0.2248(4)
H1 H 0.000090 0.345930 0.145450
H2 H 0.065860 -0.259390 0.238200
H3 H 0.078230 0.339420 0.017270
H4 H 0.143700 -0.251650 0.108800
Ag1F Ag 0.2085(3) -0.0366(8) -0.5556(4)
Ag1F_2 Ag 0.2085(3) -0.0366(8) 0.4444(4)
Ag1B Ag -0.2085(3) 0.0366(8) 0.5556(4)
S1F S 0.3276(3) 0.0641(8) -0.3908(4)
N1B N -0.1182(3) 0.0420(8) 0.4519(4)
N1F N 0.1182(3) -0.0420(8) -0.4519(4)
C1B C -0.0292(3) 0.2199(8) 0.3609(4)
C2B C -0.0681(3) -0.1338(8) 0.3069(4)
C3B C -0.0761(3) 0.2132(8) 0.4381(4)
C4B C -0.0245(3) 0.0436(8) 0.2922(4)
C5B C -0.1138(3) -0.1272(8) 0.3851(4)
N2F N 0.2661(3) 0.0645(8) -0.1956(4)
N2_2 N 0.2661(3) -0.0645(8) -0.6956(4)
C6F C 0.2909(3) 0.0623(8) -0.2752(4)
H1B H -0.000090 0.345930 0.354550
H2B H -0.065860 -0.259390 0.261800
H3B H -0.078230 0.339420 0.482730
H4B H -0.143700 -0.251650 0.391200
loop_
_geom_bond_atom_site_label_1
_geom_bond_atom_site_label_2
_geom_bond_site_symmetry_1
_geom_bond_site_symmetry_2
Ag1 S1 1_555 1_555
S1 C6 1_555 1_555
N1 Ag1 1_555 1_555
C1 C3 1_555 1_555
C2 C4 1_555 1_555
C3 N1 1_555 1_555
C4 C1 1_555 1_555
C5 N1 1_555 1_555
N2 C6 1_555 1_555
H1 C1 1_555 1_555
H2 C2 1_555 1_555
H3 C3 1_555 1_555
H4 C5 1_555 1_555
Ag1F S1F 1_555 1_555
Ag1F_2 N2 1_555 1_555
Ag1B N1B 1_555 1_555
S1F C6F 1_555 1_555
N1B C3B 1_555 1_555
N1F Ag1F 1_555 1_555
C1B C3B 1_555 1_555
C2B C4B 1_555 1_555
C3B H3B 1_555 1_555
C4B C4 1_555 1_555
C5B N1B 1_555 1_555
N2F Ag1 1_555 1_555
N2_2 Ag1F 1_555 1_555
C6F N2F 1_555 1_555
H1B C1B 1_555 1_555
H2B C2B 1_555 1_555
H4B C5B 1_555 1_555
C2 C5 1_555 1_555
C1B C4B 1_555 1_555
C2B C5B 1_555 1_555

#END
