
#######################################################################
#
#                 Cambridge Crystallographic Data Centre
#                                CCDC 
#
#######################################################################
#
# If this CIF has been generated from an entry in the Cambridge 
# Structural Database, then it will include bibliographic, chemical, 
# crystal, experimental, refinement or atomic coordinate data resulting 
# from the CCDC's data processing and validation procedures.
#
#######################################################################

data_BOQSIK
_symmetry_cell_setting           monoclinic
_symmetry_space_group_name_H-M   'P 21/c'
_symmetry_Int_Tables_number      14
_space_group_name_Hall           '-P 2ybc'
loop_
_symmetry_equiv_pos_site_id
_symmetry_equiv_pos_as_xyz
1 x,y,z
2 -x,1/2+y,1/2-z
3 -x,-y,-z
4 x,1/2-y,1/2+z
_cell_length_a                   9.985(5)
_cell_length_b                   21.438(5)
_cell_length_c                   10.936(5)
_cell_angle_alpha                90
_cell_angle_beta                 110.570(5)
_cell_angle_gamma                90
_cell_volume                     2191.69
loop_
_atom_site_label
_atom_site_type_symbol
_atom_site_fract_x
_atom_site_fract_y
_atom_site_fract_z
Co1 Co 0.27878(4) 1.13053(2) 0.55269(4)
C1 C 0.0030(3) 0.76376(15) -0.0815(3)
O1 O 0.0512(3) 0.92411(11) 0.0429(2)
O2 O -0.0379(3) 0.65409(11) -0.1080(2)
O3 O -0.1791(2) 0.70994(10) -0.0346(2)
O4 O 0.2736(3) 0.82358(13) -0.2083(3)
C2 C -0.0204(3) 0.81669(15) -0.0196(3)
H1 H -0.0888 0.8169 0.0201
C3 C 0.6020(4) 0.78620(19) -0.4032(4)
H2 H 0.6856 0.7646 -0.3950
O5 O 0.3572(3) 1.11430(14) 0.7407(2)
C4 C 0.1002(3) 0.76325(16) -0.1455(3)
H3 H 0.1139 0.7274 -0.1876
N1 N 0.5705(3) 0.83689(13) -0.4783(3)
C5 C 0.1597(4) 0.86999(17) -0.0798(3)
H4 H 0.2143 0.9055 -0.0769
N2 N 0.1711(3) 1.06648(13) 0.4161(3)
C6 C 0.3937(4) 0.79482(17) -0.3477(3)
C7 C 0.4628(3) 1.02972(18) 0.8805(3)
C8 C 0.0603(4) 0.86917(17) -0.0183(3)
C9 C -0.0752(4) 0.70466(17) -0.0762(3)
C10 C 0.4182(4) 1.0619(2) 0.7496(4)
C11 C -0.0313(4) 1.00650(18) 0.2966(4)
H5 H -0.1270 0.9972 0.2801
O6 O 0.4388(3) 1.03658(14) 0.6559(3)
C12 C 0.0359(4) 1.05071(16) 0.3876(3)
H6 H -0.0164 1.0707 0.4316
C13 C 0.1770(4) 0.81730(17) -0.1457(3)
C14 C 0.0426(4) 0.97564(16) 0.2289(3)
C15 C 0.3582(4) 0.84563(19) -0.4277(4)
H7 H 0.2736 0.8671 -0.4395
C16 C 0.2993(4) 0.77244(18) -0.2757(4)
H8 H 0.2100 0.7564 -0.3367
H9 H 0.3464 0.7394 -0.2152
C17 C 0.4480(4) 0.86495(16) -0.4907(3)
H10 H 0.4214 0.8996 -0.5451
C18 C -0.0255(4) 0.92629(17) 0.1297(4)
H11 H -0.0211 0.8862 0.1721
H12 H -0.1251 0.9364 0.0826
C19 C 0.1825(4) 0.9910(2) 0.2591(4)
H13 H 0.2368 0.9718 0.2160
C20 C 0.5069(4) 0.96856(19) 0.8923(3)
H14 H 0.5117 0.9473 0.8199
C21 C 0.4559(4) 1.06137(18) 0.9884(4)
H15 H 0.4263 1.1028 0.9806
C22 C 0.2431(4) 1.0348(2) 0.3528(4)
H16 H 0.3400 1.0432 0.3743
C23 C 0.5174(4) 0.7641(2) -0.3372(4)
H17 H 0.5440 0.7286 -0.2856
Co1B Co 0.72122(4) 0.86947(2) 1.44731(4)
Co1A Co -0.27878(4) 0.63053(2) -0.05269(4)
Co1B_2 Co 0.72122(4) 0.86947(2) -0.55269(4)
Co1C Co 1.27878(4) 1.36947(2) 0.05269(4)
C1B C 0.9970(3) 1.23624(15) 0.0815(3)
O1B O 0.9488(3) 1.07589(11) -0.0429(2)
O2B O 1.0379(3) 1.34591(11) 0.1080(2)
O3B O 1.1791(2) 1.29006(10) 0.0346(2)
O3A O 0.1791(2) 1.20994(10) 0.5346(2)
O3C O 0.8209(2) 0.79006(10) -0.5346(2)
O4B O 0.7264(3) 1.17642(13) 0.2083(3)
C2B C 1.0204(3) 1.18331(15) 0.0196(3)
H1B H 1.0888 1.1831 -0.0201
C3B C 0.3980(4) 1.21380(19) 0.4032(4)
H2B H 0.3144 1.2354 0.3950
O5B O 0.6428(3) 0.88570(14) 1.2593(2)
O5B_2 O 0.6428(3) 0.88570(14) -0.7407(2)
C4B C 0.8998(3) 1.23675(16) 0.1455(3)
H3B H 0.8861 1.2726 0.1876
N1B N 0.4295(3) 1.16311(13) 0.4783(3)
C5B C 0.8403(4) 1.13001(17) 0.0798(3)
H4B H 0.7857 1.0945 0.0769
N2B N 0.8289(3) 0.93352(13) -0.4161(3)
C6B C 0.6063(4) 1.20518(17) 0.3477(3)
C7B C 0.5372(3) 0.97028(18) 1.1195(3)
C8B C 0.9397(4) 1.13083(17) 0.0183(3)
C9B C 1.0752(4) 1.29534(17) 0.0762(3)
C10B C 0.5818(4) 0.9381(2) 1.2504(4)
C11B C 1.0313(4) 0.99350(18) -0.2966(4)
H5B H 1.1270 1.0028 -0.2801
O6B O 0.5612(3) 0.96342(14) 1.3441(3)
C12B C 0.9641(4) 0.94929(16) -0.3876(3)
H6B H 1.0164 0.9293 -0.4316
C13B C 0.8230(4) 1.18270(17) 0.1457(3)
C14B C 0.9574(4) 1.02436(16) -0.2289(3)
C15B C 0.6418(4) 1.15437(19) 0.4277(4)
H7B H 0.7264 1.1329 0.4395
C16B C 0.7007(4) 1.22756(18) 0.2757(4)
H8B H 0.7900 1.2436 0.3367
H9B H 0.6536 1.2606 0.2152
C17B C 0.5520(4) 1.13505(16) 0.4907(3)
H10B H 0.5786 1.1004 0.5451
C18B C 1.0255(4) 1.07371(17) -0.1297(4)
H11B H 1.0211 1.1138 -0.1721
H12B H 1.1251 1.0636 -0.0826
C19B C 0.8175(4) 1.0090(2) -0.2591(4)
H13B H 0.7632 1.0282 -0.2160
C20B C 0.4931(4) 1.03144(19) 1.1077(3)
H14B H 0.4883 1.0527 1.1801
C21B C 0.5441(4) 0.93863(18) 1.0116(4)
H15B H 0.5737 0.8972 1.0194
C22B C 0.7569(4) 0.9652(2) -0.3528(4)
H16B H 0.6600 0.9568 -0.3743
C23B C 0.4826(4) 1.2359(2) 0.3372(4)
H17B H 0.4560 1.2714 0.2856
loop_
_geom_bond_atom_site_label_1
_geom_bond_atom_site_label_2
_geom_bond_site_symmetry_1
_geom_bond_site_symmetry_2
Co1 O5 1_555 1_555
C1 C2 1_555 1_555
O1 C8 1_555 1_555
O2 C9 1_555 1_555
O3 C9 1_555 1_555
O4 C13 1_555 1_555
C2 H1 1_555 1_555
C3 H2 1_555 1_555
O5 C10 1_555 1_555
C4 C1 1_555 1_555
H3 C4 1_555 1_555
N1 C3 1_555 1_555
C5 H4 1_555 1_555
N2 Co1 1_555 1_555
C6 C15 1_555 1_555
C7 C10 1_555 1_555
C8 C2 1_555 1_555
C9 C1 1_555 1_555
C10 O6 1_555 1_555
C11 H5 1_555 1_555
C12 N2 1_555 1_555
H6 C12 1_555 1_555
C13 C4 1_555 1_555
C14 C11 1_555 1_555
C15 H7 1_555 1_555
C16 O4 1_555 1_555
H8 C16 1_555 1_555
H9 C16 1_555 1_555
C17 N1 1_555 1_555
H10 C17 1_555 1_555
C18 O1 1_555 1_555
H11 C18 1_555 1_555
H12 C18 1_555 1_555
C19 C14 1_555 1_555
H13 C19 1_555 1_555
C20 C7 1_555 1_555
H14 C20 1_555 1_555
C21 C7 1_555 1_555
H15 C21 1_555 1_555
C22 N2 1_555 1_555
H16 C22 1_555 1_555
C23 C3 1_555 1_555
H17 C23 1_555 1_555
Co1B O5B 1_555 1_555
Co1A O3 1_555 1_555
Co1B_2 N1 1_555 1_555
Co1C O3B 1_555 1_555
C1B C2B 1_555 1_555
O1B C8B 1_555 1_555
O2B C9B 1_555 1_555
O3B C9B 1_555 1_555
O3A Co1 1_555 1_555
O3C Co1B_2 1_555 1_555
O4B C13B 1_555 1_555
C2B H1B 1_555 1_555
C3B H2B 1_555 1_555
O5B C10B 1_555 1_555
O5B_2 Co1B_2 1_555 1_555
C4B C1B 1_555 1_555
H3B C4B 1_555 1_555
N1B Co1 1_555 1_555
C5B H4B 1_555 1_555
N2B Co1B_2 1_555 1_555
C6B C15B 1_555 1_555
C7B C10B 1_555 1_555
C8B C2B 1_555 1_555
C9B C1B 1_555 1_555
C10B O6B 1_555 1_555
C11B H5B 1_555 1_555
C12B N2B 1_555 1_555
H6B C12B 1_555 1_555
C13B C4B 1_555 1_555
C14B C11B 1_555 1_555
C15B H7B 1_555 1_555
C16B O4B 1_555 1_555
H8B C16B 1_555 1_555
H9B C16B 1_555 1_555
C17B N1B 1_555 1_555
H10B C17B 1_555 1_555
C18B O1B 1_555 1_555
H11B C18B 1_555 1_555
H12B C18B 1_555 1_555
C19B C14B 1_555 1_555
H13B C19B 1_555 1_555
C20B C21 1_555 1_555
H14B C20B 1_555 1_555
C21B C20 1_555 1_555
H15B C21B 1_555 1_555
C22B N2B 1_555 1_555
H16B C22B 1_555 1_555
C23B C3B 1_555 1_555
H17B C23B 1_555 1_555
C5 C8 1_555 1_555
C5 C13 1_555 1_555
C6 C16 1_555 1_555
C6 C23 1_555 1_555
C11 C12 1_555 1_555
C14 C18 1_555 1_555
C15 C17 1_555 1_555
C19 C22 1_555 1_555
C3B N1B 1_555 1_555
C5B C8B 1_555 1_555
C5B C13B 1_555 1_555
C6B C16B 1_555 1_555
C6B C23B 1_555 1_555
C7B C20B 1_555 1_555
C7B C21B 1_555 1_555
C11B C12B 1_555 1_555
C14B C18B 1_555 1_555
C15B C17B 1_555 1_555
C19B C22B 1_555 1_555

#END
