
#######################################################################
#
#                 Cambridge Crystallographic Data Centre
#                                CCDC 
#
#######################################################################
#
# If this CIF has been generated from an entry in the Cambridge 
# Structural Database, then it will include bibliographic, chemical, 
# crystal, experimental, refinement or atomic coordinate data resulting 
# from the CCDC's data processing and validation procedures.
#
#######################################################################

data_BOQSOQ
_symmetry_cell_setting           triclinic
_symmetry_space_group_name_H-M   'P -1'
_symmetry_Int_Tables_number      2
_space_group_name_Hall           '-P 1'
loop_
_symmetry_equiv_pos_site_id
_symmetry_equiv_pos_as_xyz
1 x,y,z
2 -x,-y,-z
_cell_length_a                   7.285(5)
_cell_length_b                   10.405(5)
_cell_length_c                   14.356(5)
_cell_angle_alpha                83.810(5)
_cell_angle_beta                 76.997(5)
_cell_angle_gamma                77.190(5)
_cell_volume                     1031.97
loop_
_atom_site_label
_atom_site_type_symbol
_atom_site_fract_x
_atom_site_fract_y
_atom_site_fract_z
Cd1 Cd 0.11810(3) 0.05271(2) 0.060229(14)
C1 C 0.3819(5) 0.1564(4) 0.1676(3)
H1 H 0.4479 0.1676 0.1048
O1 O 0.1155(4) 0.0375(3) 0.84196(19)
O2 O -0.2698(4) 0.1566(2) -0.03837(19)
O3 O 0.2930(4) 0.1157(3) 0.92155(17)
C2 C -0.3725(5) 0.3791(3) 0.0009(2)
O4 O 0.3467(4) 0.1578(3) 0.50173(18)
N1 N 0.2217(4) 0.1084(3) 0.18282(19)
C3 C -0.5470(5) 0.3893(3) -0.0268(2)
H2 H -0.5790 0.3149 -0.0443
O5 O -0.1016(4) 0.2370(3) 0.0453(2)
O6 O 0.7683(5) 0.3083(3) 0.65402(18)
C4 C -0.2356(5) 0.2470(3) 0.0024(2)
C5 C 0.3584(5) 0.1456(3) 0.7523(2)
C6 C -0.3282(5) 0.4903(3) 0.0281(2)
H3 H -0.2127 0.4836 0.0476
C7 C 0.4462(6) 0.2024(5) 0.4113(3)
H4 H 0.5811 0.1598 0.4015
H5 H 0.4371 0.2970 0.4098
C8 C 0.3078(5) 0.1314(4) 0.6675(3)
H6 H 0.2040 0.0925 0.6686
C9 C 0.6146(5) 0.2465(4) 0.6647(3)
C10 C 0.9491(6) 0.4376(4) 0.7073(3)
C11 C 0.4099(6) 0.1743(4) 0.5812(2)
C12 C 0.5149(5) 0.2034(4) 0.7518(2)
H7 H 0.5506 0.2125 0.8086
C13 C 0.4539(6) 0.1898(4) 0.2391(3)
H8 H 0.5644 0.2250 0.2247
C14 C 0.5681(6) 0.2309(4) 0.5789(3)
H9 H 0.6405 0.2575 0.5209
C15 C 0.3617(5) 0.1711(4) 0.3334(2)
C16 C 0.2474(5) 0.0961(3) 0.8462(2)
C17 C 1.0563(7) 0.4454(5) 0.6151(3)
H10 H 1.0380 0.3980 0.5678
C18 C 0.1954(6) 0.1213(5) 0.3503(3)
H11 H 0.1278 0.1081 0.4126
N2 N 1.2293(7) 0.5941(4) 0.6572(3)
C19 C 0.1323(6) 0.0920(5) 0.2742(3)
H12 H 0.0204 0.0585 0.2866
C20 C 1.1898(8) 0.5240(6) 0.5947(4)
H13 H 1.2587 0.5288 0.5319
C21 C 1.1259(8) 0.5854(5) 0.7444(4)
H14 H 1.1475 0.6340 0.7901
C22 C 0.8027(7) 0.3532(5) 0.7370(3)
H15 H 0.8491 0.2784 0.7780
H16 H 0.6842 0.4037 0.7726
C23 C 0.9890(8) 0.5104(5) 0.7728(3)
H17 H 0.9225 0.5082 0.8362
Cd1A Cd -0.11810(3) -0.05271(2) 0.939771(14)
Cd1A_2 Cd -0.11810(3) -0.05271(2) -0.060229(14)
Cd1_2 Cd 0.11810(3) 0.05271(2) 1.060229(14)
Cd1_3 Cd -0.88190(3) 1.05271(2) 0.060229(14)
Cd1A_3 Cd -1.11810(3) 0.94729(2) -0.060229(14)
C1A C -0.3819(5) -0.1564(4) 0.8324(3)
H1A H -0.4479 -0.1676 0.8952
O1A O -0.1155(4) -0.0375(3) 0.15804(19)
O2A O -0.7302(4) 0.8434(2) 0.03837(19)
O2A_2 O 0.2698(4) -0.1566(2) 0.03837(19)
O2_2 O -0.2698(4) 0.1566(2) 0.96163(19)
O3A O -0.2930(4) -0.1157(3) 0.07845(17)
O3_2 O 0.2930(4) 0.1157(3) -0.07845(17)
O3A_2 O -0.2930(4) -0.1157(3) 1.07845(17)
C2A C -0.6275(5) 0.6209(3) -0.0009(2)
O4A O -0.3467(4) -0.1578(3) 0.49827(18)
N1A N -0.2217(4) -0.1084(3) 0.81718(19)
C3A C -0.4530(5) 0.6107(3) 0.0268(2)
H2A H -0.4210 0.6851 0.0443
O5A O -0.8984(4) 0.7630(3) -0.0453(2)
O5A_2 O 0.1016(4) -0.2370(3) 0.9547(2)
O6A O -0.7683(5) -0.3083(3) 0.34598(18)
C4A C -0.7644(5) 0.7530(3) -0.0024(2)
C5A C -0.3584(5) -0.1456(3) 0.2477(2)
C6A C -0.6718(5) 0.5097(3) -0.0281(2)
H3A H -0.7873 0.5164 -0.0476
C7A C -0.4462(6) -0.2024(5) 0.5887(3)
H4A H -0.5811 -0.1598 0.5985
H5A H -0.4371 -0.2970 0.5902
C8A C -0.3078(5) -0.1314(4) 0.3325(3)
H6A H -0.2040 -0.0925 0.3314
C9A C -0.6146(5) -0.2465(4) 0.3353(3)
C10A C -0.9491(6) -0.4376(4) 0.2927(3)
C11A C -0.4099(6) -0.1743(4) 0.4188(2)
C12A C -0.5149(5) -0.2034(4) 0.2482(2)
H7A H -0.5506 -0.2125 0.1914
C13A C -0.4539(6) -0.1898(4) 0.7609(3)
H8A H -0.5644 -0.2250 0.7753
C14A C -0.5681(6) -0.2309(4) 0.4211(3)
H9A H -0.6405 -0.2575 0.4791
C15A C -0.3617(5) -0.1711(4) 0.6666(2)
C16A C -0.2474(5) -0.0961(3) 0.1538(2)
C17A C -1.0563(7) -0.4454(5) 0.3849(3)
H10A H -1.0380 -0.3980 0.4322
C18A C -0.1954(6) -0.1213(5) 0.6497(3)
H11A H -0.1278 -0.1081 0.5874
N2A N -1.2293(7) -0.5941(4) 0.3428(3)
C19A C -0.1323(6) -0.0920(5) 0.7258(3)
H12A H -0.0204 -0.0585 0.7134
C20A C -1.1898(8) -0.5240(6) 0.4053(4)
H13A H -1.2587 -0.5288 0.4681
C21A C -1.1259(8) -0.5854(5) 0.2556(4)
H14A H -1.1475 -0.6340 0.2099
C22A C -0.8027(7) -0.3532(5) 0.2630(3)
H15A H -0.8491 -0.2784 0.2220
H16A H -0.6842 -0.4037 0.2274
C23A C -0.9890(8) -0.5104(5) 0.2272(3)
H17A H -0.9225 -0.5082 0.1638
loop_
_geom_bond_atom_site_label_1
_geom_bond_atom_site_label_2
_geom_bond_site_symmetry_1
_geom_bond_site_symmetry_2
Cd1 N1 1_555 1_555
C1 H1 1_555 1_555
O1 C16 1_555 1_555
O2 C4 1_555 1_555
O3 C16 1_555 1_555
C2 C3 1_555 1_555
O4 C7 1_555 1_555
N1 C1 1_555 1_555
C3 H2 1_555 1_555
O5 Cd1 1_555 1_555
O6 C9 1_555 1_555
C4 C2 1_555 1_555
C5 C8 1_555 1_555
C6 C2 1_555 1_555
H3 C6 1_555 1_555
C7 H4 1_555 1_555
H5 C7 1_555 1_555
C8 H6 1_555 1_555
C9 C12 1_555 1_555
C10 C17 1_555 1_555
C11 O4 1_555 1_555
C12 C5 1_555 1_555
H7 C12 1_555 1_555
C13 C1 1_555 1_555
H8 C13 1_555 1_555
C14 C9 1_555 1_555
H9 C14 1_555 1_555
C15 C7 1_555 1_555
C16 C5 1_555 1_555
C17 H10 1_555 1_555
C18 C15 1_555 1_555
H11 C18 1_555 1_555
N2 C20 1_555 1_555
C19 N1 1_555 1_555
H12 C19 1_555 1_555
C20 C17 1_555 1_555
H13 C20 1_555 1_555
C21 N2 1_555 1_555
H14 C21 1_555 1_555
C22 O6 1_555 1_555
H15 C22 1_555 1_555
H16 C22 1_555 1_555
C23 C10 1_555 1_555
H17 C23 1_555 1_555
Cd1A O1 1_555 1_555
Cd1A_2 O2 1_555 1_555
Cd1_2 O3 1_555 1_555
Cd1_3 O2A 1_555 1_555
Cd1A_3 O5A 1_555 1_555
C1A H1A 1_555 1_555
O1A Cd1 1_555 1_555
O2A C4A 1_555 1_555
O2A_2 Cd1 1_555 1_555
O2_2 Cd1A 1_555 1_555
O3A Cd1A_2 1_555 1_555
O3_2 Cd1 1_555 1_555
O3A_2 Cd1A 1_555 1_555
C2A C3A 1_555 1_555
O4A C7A 1_555 1_555
N1A Cd1A 1_555 1_555
C3A C6 1_555 1_555
H2A C3A 1_555 1_555
O5A C4A 1_555 1_555
O5A_2 Cd1A 1_555 1_555
O6A C9A 1_555 1_555
C4A C2A 1_555 1_555
C5A C8A 1_555 1_555
C6A C3 1_555 1_555
H3A C6A 1_555 1_555
C7A H4A 1_555 1_555
H5A C7A 1_555 1_555
C8A H6A 1_555 1_555
C9A C12A 1_555 1_555
C10A C17A 1_555 1_555
C11A O4A 1_555 1_555
C12A C5A 1_555 1_555
H7A C12A 1_555 1_555
C13A C1A 1_555 1_555
H8A C13A 1_555 1_555
C14A C9A 1_555 1_555
H9A C14A 1_555 1_555
C15A C7A 1_555 1_555
C16A O1A 1_555 1_555
C17A H10A 1_555 1_555
C18A C15A 1_555 1_555
H11A C18A 1_555 1_555
N2A C20A 1_555 1_555
C19A N1A 1_555 1_555
H12A C19A 1_555 1_555
C20A C17A 1_555 1_555
H13A C20A 1_555 1_555
C21A N2A 1_555 1_555
H14A C21A 1_555 1_555
C22A O6A 1_555 1_555
H15A C22A 1_555 1_555
H16A C22A 1_555 1_555
C23A C10A 1_555 1_555
H17A C23A 1_555 1_555
O5 C4 1_555 1_555
C8 C11 1_555 1_555
C10 C22 1_555 1_555
C11 C14 1_555 1_555
C13 C15 1_555 1_555
C18 C19 1_555 1_555
C21 C23 1_555 1_555
C1A N1A 1_555 1_555
O3A C16A 1_555 1_555
C2A C6A 1_555 1_555
C5A C16A 1_555 1_555
C8A C11A 1_555 1_555
C10A C22A 1_555 1_555
C11A C14A 1_555 1_555
C13A C15A 1_555 1_555
C18A C19A 1_555 1_555
C21A C23A 1_555 1_555

#END
