
#######################################################################
#
#                 Cambridge Crystallographic Data Centre
#                                CCDC 
#
#######################################################################
#
# If this CIF has been generated from an entry in the Cambridge 
# Structural Database, then it will include bibliographic, chemical, 
# crystal, experimental, refinement or atomic coordinate data resulting 
# from the CCDC's data processing and validation procedures.
#
#######################################################################

data_BOQTEH
_symmetry_cell_setting           monoclinic
_symmetry_space_group_name_H-M   'P 21/c'
_symmetry_Int_Tables_number      14
_space_group_name_Hall           '-P 2ybc'
loop_
_symmetry_equiv_pos_site_id
_symmetry_equiv_pos_as_xyz
1 x,y,z
2 -x,1/2+y,1/2-z
3 -x,-y,-z
4 x,1/2-y,1/2+z
_cell_length_a                   4.1453(2)
_cell_length_b                   20.6722(9)
_cell_length_c                   9.3478(4)
_cell_angle_alpha                90
_cell_angle_beta                 108.35(18)
_cell_angle_gamma                90
_cell_volume                     760.304
loop_
_atom_site_label
_atom_site_type_symbol
_atom_site_fract_x
_atom_site_fract_y
_atom_site_fract_z
Ag1 Ag -0.139(12) 0.157(3) 0.695(6)
S1 S -0.516(12) 0.147(3) 0.870(6)
C1 C -0.090(12) -0.001(3) 0.627(6)
N1 N -0.052(12) 0.057(3) 0.572(6)
C2 C -0.183(12) -0.006(3) 0.761(6)
C3 C -0.401(12) 0.213(3) 0.972(6)
C4 C -0.182(12) -0.123(3) 0.742(6)
C5 C -0.040(12) -0.059(3) 0.553(6)
C6 C -0.092(12) -0.120(3) 0.614(6)
C7 C -0.225(12) -0.065(3) 0.817(6)
N2 N -0.316(12) 0.258(3) 1.046(6)
H1 H -0.244(12) 0.030(3) 0.798(6)
H2 H -0.218280 -0.163740 0.781150
H3 H -0.060740 -0.159090 0.564790
H4 H -0.288(12) -0.065(3) 0.910(6)
Ag1_2 Ag 0.861(12) 0.157(3) 0.695(6)
Ag1_3 Ag -1.139(12) 0.157(3) 0.695(6)
Ag1C Ag -0.139(12) 0.343(3) 1.195(6)
Ag1B Ag 0.139(12) -0.157(3) 0.305(6)
Ag1C_2 Ag 0.861(12) 0.343(3) 1.195(6)
S1_2 S 0.484(12) 0.147(3) 0.870(6)
S1_3 S 1.484(12) 0.147(3) 0.870(6)
C1B C 0.090(12) 0.001(3) 0.373(6)
N1B N 0.052(12) -0.057(3) 0.428(6)
N1_2 N 0.948(12) 0.057(3) 0.572(6)
C2B C 0.183(12) 0.006(3) 0.239(6)
C3_2 C 0.599(12) 0.213(3) 0.972(6)
C4B C 0.182(12) 0.123(3) 0.258(6)
C5B C 0.040(12) 0.059(3) 0.447(6)
C6B C 0.092(12) 0.120(3) 0.386(6)
C7B C 0.225(12) 0.065(3) 0.183(6)
N2_2 N 0.684(12) 0.258(3) 1.046(6)
N2C N -0.316(12) 0.242(3) 0.546(6)
N2C_2 N 0.684(12) 0.242(3) 0.546(6)
H1B H 0.244(12) -0.030(3) 0.202(6)
H2B H 0.218280 0.163740 0.218850
H3B H 0.060740 0.159090 0.435210
H4B H 0.288(12) 0.065(3) 0.090(6)
loop_
_geom_bond_atom_site_label_1
_geom_bond_atom_site_label_2
_geom_bond_site_symmetry_1
_geom_bond_site_symmetry_2
Ag1 S1 1_555 1_555
S1 C3 1_555 1_555
C1 N1 1_555 1_555
N1 Ag1 1_555 1_555
C2 C1 1_555 1_555
C3 N2 1_555 1_555
C4 C6 1_555 1_555
C5 C1 1_555 1_555
C6 C5 1_555 1_555
C7 C2 1_555 1_555
N2 Ag1C 1_555 1_555
H1 C2 1_555 1_555
H2 C4 1_555 1_555
H3 C6 1_555 1_555
H4 C7 1_555 1_555
Ag1_2 S1_2 1_555 1_555
Ag1_3 S1 1_555 1_555
Ag1B N1B 1_555 1_555
Ag1C_2 N2_2 1_555 1_555
S1_2 Ag1 1_555 1_555
S1_3 Ag1_2 1_555 1_555
C1B N1B 1_555 1_555
N1B C5 1_555 1_555
N1_2 Ag1_2 1_555 1_555
C2B C1B 1_555 1_555
C3_2 S1_2 1_555 1_555
C4B C6B 1_555 1_555
C5B N1 1_555 1_555
C6B C5B 1_555 1_555
C7B C2B 1_555 1_555
N2_2 C3_2 1_555 1_555
N2C Ag1 1_555 1_555
N2C_2 Ag1_2 1_555 1_555
H1B C2B 1_555 1_555
H2B C4B 1_555 1_555
H3B C6B 1_555 1_555
H4B C7B 1_555 1_555
C4 C7 1_555 1_555
C1B C5B 1_555 1_555
C4B C7B 1_555 1_555

#END
