
#######################################################################
#
#                 Cambridge Crystallographic Data Centre
#                                CCDC 
#
#######################################################################
#
# If this CIF has been generated from an entry in the Cambridge 
# Structural Database, then it will include bibliographic, chemical, 
# crystal, experimental, refinement or atomic coordinate data resulting 
# from the CCDC's data processing and validation procedures.
#
#######################################################################

data_BOQTAD
_symmetry_cell_setting           triclinic
_symmetry_space_group_name_H-M   'P -1'
_symmetry_Int_Tables_number      2
_space_group_name_Hall           '-P 1'
loop_
_symmetry_equiv_pos_site_id
_symmetry_equiv_pos_as_xyz
1 x,y,z
2 -x,-y,-z
_cell_length_a                   5.9315(2)
_cell_length_b                   7.3747(3)
_cell_length_c                   9.6990(4)
_cell_angle_alpha                99.676(2)
_cell_angle_beta                 106.843(2)
_cell_angle_gamma                97.072(2)
_cell_volume                     393.594
loop_
_atom_site_label
_atom_site_type_symbol
_atom_site_fract_x
_atom_site_fract_y
_atom_site_fract_z
Ag1 Ag -0.1869(8) 0.0069(6) 0.3341(5)
S1 S 0.0743(8) -0.2677(6) 0.4033(5)
N1 N 0.0319(8) 0.1814(6) 0.2329(5)
C1 C 0.3454(8) 0.3805(6) 0.1197(5)
N2 N 0.4566(8) -0.1376(6) 0.3087(5)
C2 C 0.5193(8) 0.4862(6) 0.0679(5)
C3 C 0.1126(8) 0.2991(6) 0.0339(5)
C4 C 0.4164(8) 0.3587(6) 0.2652(5)
C5 C -0.0381(8) 0.2017(6) 0.0926(5)
C6 C 0.2997(8) -0.1899(6) 0.3483(5)
C7 C 0.2554(8) 0.2607(6) 0.3155(5)
H1 H 0.676420 0.542030 0.134330
H2 H 0.055500 0.309610 -0.067230
H3 H 0.576250 0.412460 0.328660
H4 H -0.198030 0.148660 0.029040
H5 H 0.312960 0.249840 0.416490
Ag1A Ag 0.1869(8) -0.0069(6) 0.6659(5)
Ag1_2 Ag 0.8131(8) 0.0069(6) 0.3341(5)
Ag1A_2 Ag 1.1869(8) 0.9931(6) -0.3341(5)
Ag1A_3 Ag -0.8131(8) -0.0069(6) 0.6659(5)
S1A S -0.0743(8) 0.2677(6) 0.5967(5)
N1A N 0.9681(8) 0.8186(6) -0.2329(5)
N1A_2 N -0.0319(8) -0.1814(6) 0.7671(5)
C1A C 0.6546(8) 0.6195(6) -0.1197(5)
N2A N -0.4566(8) 0.1376(6) 0.6913(5)
N2_2 N -0.5434(8) -0.1376(6) 0.3087(5)
N2A_2 N 0.5434(8) 0.1376(6) 0.6913(5)
C2A C 0.4807(8) 0.5138(6) -0.0679(5)
C3A C 0.8874(8) 0.7009(6) -0.0339(5)
C4A C 0.5836(8) 0.6413(6) -0.2652(5)
C5A C 1.0381(8) 0.7983(6) -0.0926(5)
C6A C -0.2997(8) 0.1899(6) 0.6517(5)
C7A C 0.7446(8) 0.7393(6) -0.3155(5)
H1A H 0.323580 0.457970 -0.134330
H2A H 0.944500 0.690390 0.067230
H3A H 0.423750 0.587540 -0.328660
H4A H 1.198030 0.851340 -0.029040
H5A H 0.687040 0.750160 -0.416490
loop_
_geom_bond_atom_site_label_1
_geom_bond_atom_site_label_2
_geom_bond_site_symmetry_1
_geom_bond_site_symmetry_2
Ag1 S1 1_555 1_555
S1 C6 1_555 1_555
N1 Ag1 1_555 1_555
C1 C2 1_555 1_555
N2 C6 1_555 1_555
C2 H1 1_555 1_555
C3 C1 1_555 1_555
C4 C1 1_555 1_555
C5 N1 1_555 1_555
C7 N1 1_555 1_555
H2 C3 1_555 1_555
H3 C4 1_555 1_555
H4 C5 1_555 1_555
H5 C7 1_555 1_555
Ag1A S1 1_555 1_555
Ag1_2 N2 1_555 1_555
Ag1A_2 N1A 1_555 1_555
Ag1A_3 N2A 1_555 1_555
S1A Ag1 1_555 1_555
N1A C5A 1_555 1_555
N1A_2 Ag1A 1_555 1_555
C1A C2A 1_555 1_555
N2A C6A 1_555 1_555
N2_2 Ag1 1_555 1_555
N2A_2 Ag1A 1_555 1_555
C2A C2 1_555 1_555
C3A C1A 1_555 1_555
C4A C1A 1_555 1_555
C5A C3A 1_555 1_555
C6A S1A 1_555 1_555
C7A N1A 1_555 1_555
H1A C2A 1_555 1_555
H2A C3A 1_555 1_555
H3A C4A 1_555 1_555
H4A C5A 1_555 1_555
H5A C7A 1_555 1_555
C3 C5 1_555 1_555
C4 C7 1_555 1_555
Ag1A S1A 1_555 1_555
C4A C7A 1_555 1_555

#END
