
#######################################################################
#
#                 Cambridge Crystallographic Data Centre
#                                CCDC 
#
#######################################################################
#
# If this CIF has been generated from an entry in the Cambridge 
# Structural Database, then it will include bibliographic, chemical, 
# crystal, experimental, refinement or atomic coordinate data resulting 
# from the CCDC's data processing and validation procedures.
#
#######################################################################

data_BOQVOU
_symmetry_cell_setting           monoclinic
_symmetry_space_group_name_H-M   'P 21/c'
_symmetry_Int_Tables_number      14
_space_group_name_Hall           '-P 2ybc'
loop_
_symmetry_equiv_pos_site_id
_symmetry_equiv_pos_as_xyz
1 x,y,z
2 -x,1/2+y,1/2-z
3 -x,-y,-z
4 x,1/2-y,1/2+z
_cell_length_a                   5.335(4)
_cell_length_b                   18.437(14)
_cell_length_c                   16.471(12)
_cell_angle_alpha                90
_cell_angle_beta                 90.488(10)
_cell_angle_gamma                90
_cell_volume                     1620.05
loop_
_atom_site_label
_atom_site_type_symbol
_atom_site_fract_x
_atom_site_fract_y
_atom_site_fract_z
C1 C 0.7221(8) 0.4614(2) 0.8070(3)
C2 C 0.5387(8) 0.4522(2) 0.7364(2)
H1 H 0.3756 0.4709 0.7514
H2 H 0.5972 0.4794 0.6898
C3 C 0.5170(8) 0.3726(2) 0.7145(2)
C4 C 0.3242(8) 0.3298(3) 0.7424(3)
H3 H 0.1969 0.3509 0.7726
C5 C 0.3160(8) 0.2560(3) 0.7265(3)
H4 H 0.1816 0.2287 0.7451
C6 C 0.5044(8) 0.2223(2) 0.6834(3)
C7 C 0.6951(8) 0.2653(3) 0.6536(3)
H5 H 0.8217 0.2442 0.6231
C8 C 0.7004(9) 0.3396(3) 0.6686(3)
H6 H 0.8294 0.3675 0.6474
C9 C 0.4973(8) 0.1417(2) 0.6677(3)
H7 H 0.4140 0.1172 0.7121
H8 H 0.6666 0.1229 0.6641
C10 C 0.3563(8) 0.1277(2) 0.5887(3)
C11 C 0.7911(9) 0.2559(3) 0.8834(3)
H9 H 0.6457 0.2754 0.8608
C12 C 1.1225(9) 0.2471(3) 0.9490(3)
H10 H 1.2617 0.2568 0.9816
C13 C 1.2333(10) 0.1183(3) 0.9115(3)
H11 H 1.3964 0.1285 0.9354
H12 H 1.2586 0.1037 0.8556
C14 C 1.1121(9) 0.0566(2) 0.9575(3)
C15 C 1.1714(10) 0.0439(3) 1.0372(3)
H13 H 1.2887 0.0734 1.0631
C16 C 0.9402(10) 0.0122(3) 0.9197(3)
H14 H 0.8984 0.0196 0.8654
Cd1 Cd 0.87305(6) 0.407414(17) 0.988934(19)
N1 N 0.9426(7) 0.2942(2) 0.9332(2)
N2 N 0.8628(8) 0.1894(2) 0.8691(3)
N3 N 1.0803(7) 0.1848(2) 0.9129(2)
O1 O 0.9359(5) 0.48341(19) 0.79251(17)
O2 O 0.6464(5) 0.44314(18) 0.87691(17)
O3 O 0.1204(5) 0.12561(17) 0.59325(17)
O4 O 0.4741(5) 0.12244(17) 0.52390(18)
O5 O 0.8284(5) 0.51414(17) 1.06899(18)
H15 H 0.685(5) 0.531(2) 1.076(3)
H16 H 0.893(7) 0.505(2) 1.1141(16)
C11B C 1.2089(9) -0.2559(3) 1.1166(3)
H9B H 1.3543 -0.2754 1.1392
C12B C 0.8775(9) -0.2471(3) 1.0510(3)
H10B H 0.7383 -0.2568 1.0184
C13B C 0.7667(10) -0.1183(3) 1.0885(3)
H11B H 0.6036 -0.1285 1.0646
H12B H 0.7414 -0.1037 1.1444
C14B C 0.8879(9) -0.0566(2) 1.0425(3)
C15B C 0.8286(10) -0.0439(3) 0.9628(3)
H13B H 0.7113 -0.0734 0.9369
C16B C 1.0598(10) -0.0122(3) 1.0803(3)
H14B H 1.1016 -0.0196 1.1346
N1B N 1.0574(7) -0.2942(2) 1.0668(2)
N2B N 1.1372(8) -0.1894(2) 1.1309(3)
N3B N 0.9197(7) -0.1848(2) 1.0871(2)
C1B C 1.2779(8) -0.4614(2) 1.1930(3)
C2B C 1.4613(8) -0.4522(2) 1.2636(2)
H1B H 1.6244 -0.4709 1.2486
H2B H 1.4028 -0.4794 1.3102
C3B C 1.4830(8) -0.3726(2) 1.2855(2)
C4B C 1.6758(8) -0.3298(3) 1.2576(3)
H3B H 1.8031 -0.3509 1.2274
C5B C 1.6840(8) -0.2560(3) 1.2735(3)
H4B H 1.8184 -0.2287 1.2549
C6B C 1.4956(8) -0.2223(2) 1.3166(3)
C7B C 1.3049(8) -0.2653(3) 1.3464(3)
H5B H 1.1783 -0.2442 1.3769
C8B C 1.2996(9) -0.3396(3) 1.3314(3)
H6B H 1.1706 -0.3675 1.3526
C9B C 1.5027(8) -0.1417(2) 1.3323(3)
H7B H 1.5860 -0.1172 1.2879
H8B H 1.3334 -0.1229 1.3359
C10B C 1.6437(8) -0.1277(2) 1.4113(3)
Cd1B Cd 1.12695(6) -0.407414(17) 1.011066(19)
O1B O 1.0641(5) -0.48341(19) 1.20749(17)
O2B O 1.3536(5) -0.44314(18) 1.12309(17)
O3B O 1.8796(5) -0.12561(17) 1.40675(17)
O4B O 1.5259(5) -0.12244(17) 1.47610(18)
O5B O 1.1716(5) -0.51414(17) 0.93101(18)
H15B H 1.315(5) -0.531(2) 0.924(3)
H16B H 1.107(7) -0.505(2) 0.8859(16)
Cd1_2 Cd 0.87305(6) -0.592586(17) 0.988934(19)
Cd1A Cd 1.12695(6) -0.092586(17) 1.511066(19)
Cd1A_2 Cd 2.12695(6) -0.092586(17) 1.511066(19)
Cd1B_2 Cd 1.12695(6) 0.592586(17) 1.011066(19)
Cd1C Cd -0.12695(6) 0.092586(17) 0.488934(19)
Cd1C_2 Cd 0.87305(6) 0.092586(17) 0.488934(19)
O3A O 0.8796(5) -0.37439(17) 0.90675(17)
O3C O 1.1204(5) 0.37439(17) 1.09325(17)
O4A O 1.5259(5) -0.37756(17) 0.97610(18)
O4C O 0.4741(5) 0.37756(17) 1.02390(18)
O5_2 O 0.8284(5) -0.48586(17) 1.06899(18)
O5B_2 O 1.1716(5) 0.48586(17) 0.93101(18)
loop_
_geom_bond_atom_site_label_1
_geom_bond_atom_site_label_2
_geom_bond_site_symmetry_1
_geom_bond_site_symmetry_2
C1 C2 1_555 1_555
C2 H1 1_555 1_555
H2 C2 1_555 1_555
C3 C2 1_555 1_555
C4 C3 1_555 1_555
H3 C4 1_555 1_555
C5 C4 1_555 1_555
H4 C5 1_555 1_555
C6 C5 1_555 1_555
C7 C6 1_555 1_555
H5 C7 1_555 1_555
C8 C3 1_555 1_555
H6 C8 1_555 1_555
C9 C6 1_555 1_555
H7 C9 1_555 1_555
H8 C9 1_555 1_555
C10 C9 1_555 1_555
C11 H9 1_555 1_555
C12 H10 1_555 1_555
C13 H11 1_555 1_555
H12 C13 1_555 1_555
C14 C13 1_555 1_555
C15 C14 1_555 1_555
H13 C15 1_555 1_555
C16 C14 1_555 1_555
H14 C16 1_555 1_555
Cd1 N1 1_555 1_555
N1 C11 1_555 1_555
N2 C11 1_555 1_555
N3 C12 1_555 1_555
O1 C1 1_555 1_555
O2 C1 1_555 1_555
O3 C10 1_555 1_555
O4 C10 1_555 1_555
O5 Cd1 1_555 1_555
H15 O5 1_555 1_555
H16 O5 1_555 1_555
C11B H9B 1_555 1_555
C12B H10B 1_555 1_555
C13B H11B 1_555 1_555
H12B C13B 1_555 1_555
C14B C13B 1_555 1_555
C15B C16 1_555 1_555
H13B C15B 1_555 1_555
C16B C15 1_555 1_555
H14B C16B 1_555 1_555
N1B C11B 1_555 1_555
N2B C11B 1_555 1_555
N3B C12B 1_555 1_555
C1B C2B 1_555 1_555
C2B H1B 1_555 1_555
H2B C2B 1_555 1_555
C3B C2B 1_555 1_555
C4B C3B 1_555 1_555
H3B C4B 1_555 1_555
C5B C4B 1_555 1_555
H4B C5B 1_555 1_555
C6B C5B 1_555 1_555
C7B C6B 1_555 1_555
H5B C7B 1_555 1_555
C8B C3B 1_555 1_555
H6B C8B 1_555 1_555
C9B C6B 1_555 1_555
H7B C9B 1_555 1_555
H8B C9B 1_555 1_555
C10B C9B 1_555 1_555
Cd1B N1B 1_555 1_555
O1B C1B 1_555 1_555
O2B C1B 1_555 1_555
O3B C10B 1_555 1_555
O4B C10B 1_555 1_555
O5B Cd1B 1_555 1_555
H15B O5B 1_555 1_555
H16B O5B 1_555 1_555
Cd1_2 O5B 1_555 1_555
Cd1A O4B 1_555 1_555
Cd1A_2 O3B 1_555 1_555
Cd1B_2 O5 1_555 1_555
Cd1C O3 1_555 1_555
Cd1C_2 O4 1_555 1_555
O3A Cd1B 1_555 1_555
O3C Cd1 1_555 1_555
O4A Cd1B 1_555 1_555
O4C Cd1 1_555 1_555
O5_2 Cd1B 1_555 1_555
O5B_2 Cd1 1_555 1_555
C7 C8 1_555 1_555
C12 N1 1_555 1_555
C13 N3 1_555 1_555
Cd1 O2 1_555 1_555
N2 N3 1_555 1_555
C12B N1B 1_555 1_555
C13B N3B 1_555 1_555
C14B C15B 1_555 1_555
C14B C16B 1_555 1_555
N2B N3B 1_555 1_555
C7B C8B 1_555 1_555
Cd1B O2B 1_555 1_555
Cd1_2 O5_2 1_555 1_555
Cd1B_2 O5B_2 1_555 1_555

#END
