
#######################################################################
#
#                 Cambridge Crystallographic Data Centre
#                                CCDC 
#
#######################################################################
#
# If this CIF has been generated from an entry in the Cambridge 
# Structural Database, then it will include bibliographic, chemical, 
# crystal, experimental, refinement or atomic coordinate data resulting 
# from the CCDC's data processing and validation procedures.
#
#######################################################################

data_BOQVOT
_symmetry_cell_setting           monoclinic
_symmetry_space_group_name_H-M   'C c'
_symmetry_Int_Tables_number      9
_space_group_name_Hall           'C -2yc'
loop_
_symmetry_equiv_pos_site_id
_symmetry_equiv_pos_as_xyz
1 x,y,z
2 x,-y,1/2+z
3 1/2+x,1/2+y,z
4 1/2+x,1/2-y,1/2+z
_cell_length_a                   20.351(4)
_cell_length_b                   11.855(2)
_cell_length_c                   14.893(3)
_cell_angle_alpha                90
_cell_angle_beta                 102.53(3)
_cell_angle_gamma                90
_cell_volume                     3507.52
loop_
_atom_site_label
_atom_site_type_symbol
_atom_site_fract_x
_atom_site_fract_y
_atom_site_fract_z
Cd1 Cd 0.032931(15) 0.66972(3) 0.930520(19)
Cd2 Cd -0.057830(16) 0.19535(3) 1.17226(2)
O1 O 0.0241(4) 0.6685(4) 1.0910(4)
O2 O 0.1108(3) 0.5647(4) 1.0728(3)
O3 O 0.0052(2) 0.4070(3) 1.1348(3)
O4 O 0.00619(16) 0.3251(3) 1.2676(2)
O5 O -0.01705(19) 0.8396(3) 0.9370(3)
O6 O -0.08346(19) 0.8845(3) 0.8007(2)
O7 O -0.1519(2) 0.9338(4) 0.9831(3)
O8 O -0.11982(19) 1.0384(3) 1.1090(3)
N1 N 0.1326(2) 0.6611(4) 1.2684(3)
N2 N 0.0829(2) 0.4892(3) 1.3600(3)
N3 N -0.0071(3) 1.0893(4) 0.8647(3)
N4 N -0.0538(3) 1.1781(3) 1.0138(4)
N5 N 0.0458(2) 0.1011(4) 1.1787(4)
N6 N 0.3465(2) -0.1942(4) 1.1566(4)
N7 N 0.1314(2) 0.7752(4) 0.9279(4)
N8 N 0.4274(3) 1.0792(4) 0.9097(3)
C1 C 0.0721(4) 0.6052(5) 1.1192(4)
C2 C 0.0904(3) 0.5841(4) 1.2224(3)
C3 C 0.0663(2) 0.4957(4) 1.2685(3)
C4 C 0.1247(3) 0.5679(4) 1.4040(4)
H1 H 0.1374 0.5647 1.4678
C5 C 0.1490(3) 0.6508(4) 1.3605(4)
H2 H 0.1782 0.7031 1.3947
C6 C 0.0225(3) 0.4034(4) 1.2184(4)
C7 C -0.0505(3) 0.9055(4) 0.8798(4)
C8 C -0.0451(3) 1.0287(4) 0.9087(4)
C9 C -0.0709(3) 1.0727(4) 0.9810(4)
C10 C -0.0152(3) 1.2379(5) 0.9682(4)
H3 H -0.0023 1.3107 0.9879
C11 C 0.0060(4) 1.1946(5) 0.8927(5)
H4 H 0.0300 1.2408 0.8608
C12 C -0.1179(3) 1.0093(4) 1.0285(4)
C13 C 0.0484(3) -0.0114(5) 1.1757(5)
C14 C 0.1057(3) -0.0705(4) 1.1676(4)
C15 C 0.1645(3) -0.0144(4) 1.1641(4)
C16 C 0.1619(3) 0.1032(4) 1.1673(5)
C17 C 0.1038(3) 0.1551(5) 1.1745(5)
C18 C 0.2278(3) -0.0754(4) 1.1599(4)
C19 C 0.2317(3) -0.1924(5) 1.1659(6)
C20 C 0.2907(4) -0.2469(5) 1.1650(6)
C21 C 0.3429(3) -0.0832(5) 1.1497(4)
C22 C 0.2864(3) -0.0214(4) 1.1514(5)
C23 C 0.1897(4) 0.7268(5) 0.9266(6)
H5 H 0.1919 0.6485 0.9303
C24 C 0.2477(3) 0.7843(5) 0.9202(5)
H6 H 0.2872 0.7450 0.9204
C25 C 0.2464(3) 0.8993(4) 0.9135(4)
C26 C 0.1856(3) 0.9513(5) 0.9138(5)
H7 H 0.1821 1.0295 0.9100
C27 C 0.1296(3) 0.8869(5) 0.9198(4)
H8 H 0.0889 0.9236 0.9182
C28 C 0.3081(3) 0.9646(4) 0.9079(4)
C29 C 0.3578(3) 0.9185(4) 0.8702(4)
H9 H 0.3521 0.8469 0.8441
C30 C 0.4158(3) 0.9777(5) 0.8709(4)
H10 H 0.4482 0.9458 0.8432
C31 C 0.3791(3) 1.1262(5) 0.9420(5)
H11 H 0.3861 1.1986 0.9663
C32 C 0.3184(3) 1.0740(4) 0.9421(4)
H12 H 0.2851 1.1113 0.9645
H21 H 0.0102 -0.0526 1.1790
H22 H 0.1045 -0.1494 1.1647
H23 H 0.1999 0.1449 1.1649
H24 H 0.1041 0.2332 1.1768
H25 H 0.1937 -0.2344 1.1703
H26 H 0.2916 -0.3262 1.1701
H27 H 0.3815 -0.0450 1.1423
H28 H 0.2876 0.0564 1.1471
Cd1A Cd 0.032931(15) 0.33028(3) 1.430520(19)
Cd1B Cd 0.532931(15) 1.16972(3) 0.930520(19)
Cd2A Cd -0.057830(16) 0.80465(3) 0.67226(2)
Cd2_2 Cd -0.057830(16) 1.19535(3) 1.17226(2)
Cd2B Cd 0.442170(16) -0.30465(3) 1.17226(2)
O4A O 0.00619(16) 0.6749(3) 0.7676(2)
O6A O -0.08346(19) 0.1155(3) 1.3007(2)
O8_2 O -0.11982(19) 0.0384(3) 1.1090(3)
N2A N 0.0829(2) 0.5108(3) 0.8600(3)
N4_2 N -0.0538(3) 0.1781(3) 1.0138(4)
N6B N -0.1535(2) 0.3058(4) 1.1566(4)
N8B N -0.0726(3) 0.5792(4) 0.9097(3)
O9 O 0.1918(3) 0.3891(5) 0.1683(4)
H13 H 0.1539 0.3576 0.1795
H14 H 0.1832 0.4572 0.1406
O10 O 0.2718(3) 0.2833(4) 0.0602(4)
H15 H 0.2295 0.2512 0.0104
H19 H 0.2362 0.3364 0.0826
O11 O 0.4181(6) 0.1871(7) 0.1903(6)
H18 H 0.4348 0.2440 0.2333
H20 H 0.4455 0.1428 0.1805
O12 O 0.2958(7) 0.4795(12) 0.2961(10)
H16 H 0.3160 0.4340 0.2656
H17 H 0.2722 0.4390 0.3356
loop_
_geom_bond_atom_site_label_1
_geom_bond_atom_site_label_2
_geom_bond_site_symmetry_1
_geom_bond_site_symmetry_2
Cd1 O1 1_555 1_555
Cd2 O4 1_555 1_555
O1 C1 1_555 1_555
O2 Cd1 1_555 1_555
O3 C6 1_555 1_555
O4 C6 1_555 1_555
O5 Cd1 1_555 1_555
O6 C7 1_555 1_555
O7 C12 1_555 1_555
O8 C12 1_555 1_555
O9 H13 1_555 1_555
O10 H15 1_555 1_555
O11 H18 1_555 1_555
O12 H16 1_555 1_555
N1 C2 1_555 1_555
N2 C3 1_555 1_555
N3 C8 1_555 1_555
N4 C9 1_555 1_555
N5 Cd2 1_555 1_555
N6 C20 1_555 1_555
N7 Cd1 1_555 1_555
N8 C30 1_555 1_555
C1 O2 1_555 1_555
C2 C1 1_555 1_555
C3 C2 1_555 1_555
C4 N2 1_555 1_555
H1 C4 1_555 1_555
C5 N1 1_555 1_555
H2 C5 1_555 1_555
C6 C3 1_555 1_555
C7 O5 1_555 1_555
C8 C7 1_555 1_555
C9 C8 1_555 1_555
C10 N4 1_555 1_555
H3 C10 1_555 1_555
C11 N3 1_555 1_555
H4 C11 1_555 1_555
C12 C9 1_555 1_555
C13 N5 1_555 1_555
C14 C13 1_555 1_555
C15 C14 1_555 1_555
C16 C15 1_555 1_555
C17 N5 1_555 1_555
C18 C15 1_555 1_555
C19 C18 1_555 1_555
C20 C19 1_555 1_555
C21 N6 1_555 1_555
C22 C18 1_555 1_555
C23 N7 1_555 1_555
H5 C23 1_555 1_555
C24 C23 1_555 1_555
H6 C24 1_555 1_555
C25 C24 1_555 1_555
C26 C25 1_555 1_555
H7 C26 1_555 1_555
C27 N7 1_555 1_555
H8 C27 1_555 1_555
C28 C25 1_555 1_555
C29 C28 1_555 1_555
H9 C29 1_555 1_555
C30 C29 1_555 1_555
H10 C30 1_555 1_555
C31 N8 1_555 1_555
H11 C31 1_555 1_555
C32 C28 1_555 1_555
H12 C32 1_555 1_555
H14 O9 1_555 1_555
H17 O12 1_555 1_555
H19 O10 1_555 1_555
H20 O11 1_555 1_555
H21 C13 1_555 1_555
H22 C14 1_555 1_555
H23 C16 1_555 1_555
H24 C17 1_555 1_555
H25 C19 1_555 1_555
H26 C20 1_555 1_555
H27 C21 1_555 1_555
H28 C22 1_555 1_555
Cd1A O4 1_555 1_555
Cd1B N8 1_555 1_555
Cd2A O6 1_555 1_555
Cd2_2 O8 1_555 1_555
Cd2B N6 1_555 1_555
O4A Cd1 1_555 1_555
O6A Cd2 1_555 1_555
O8_2 Cd2 1_555 1_555
N2A Cd1 1_555 1_555
N4_2 Cd2 1_555 1_555
N6B Cd2 1_555 1_555
N8B Cd1 1_555 1_555
N2 Cd1A 1_555 1_555
N4 Cd2_2 1_555 1_555
C4 C5 1_555 1_555
C10 C11 1_555 1_555
C16 C17 1_555 1_555
C21 C22 1_555 1_555
C26 C27 1_555 1_555
C31 C32 1_555 1_555
Cd2A O4A 1_555 1_555

#END
