
#######################################################################
#
#                 Cambridge Crystallographic Data Centre
#                                CCDC 
#
#######################################################################
#
# If this CIF has been generated from an entry in the Cambridge 
# Structural Database, then it will include bibliographic, chemical, 
# crystal, experimental, refinement or atomic coordinate data resulting 
# from the CCDC's data processing and validation procedures.
#
#######################################################################

data_BOQVEK
_symmetry_cell_setting           monoclinic
_symmetry_space_group_name_H-M   'P 21/c'
_symmetry_Int_Tables_number      14
_space_group_name_Hall           '-P 2ybc'
loop_
_symmetry_equiv_pos_site_id
_symmetry_equiv_pos_as_xyz
1 x,y,z
2 -x,1/2+y,1/2-z
3 -x,-y,-z
4 x,1/2-y,1/2+z
_cell_length_a                   11.229(4)
_cell_length_b                   38.713(11)
_cell_length_c                   8.792(3)
_cell_angle_alpha                90
_cell_angle_beta                 95.63(2)
_cell_angle_gamma                90
_cell_volume                     3803.52
loop_
_atom_site_label
_atom_site_type_symbol
_atom_site_fract_x
_atom_site_fract_y
_atom_site_fract_z
Ag1 Ag 0.32203(12) -0.00455(3) -0.02970(15)
Ag2 Ag 0.0000 0.0000 1.0000
O1 O 0.0977(8) 0.1849(2) 0.7988(9)
O2 O 0.5006(7) 0.1859(2) 0.8489(9)
O3 O 0.2997(7) 0.25258(17) 1.1620(8)
O4 O 0.3025(12) 0.1362(3) 0.4691(14)
O5 O 0.3042(7) 0.16773(17) 0.2557(8)
O6 O 0.0225(7) 0.17926(18) 1.1259(8)
O7 O 0.0179(11) 0.1648(3) 1.3681(12)
O8 O 0.5863(7) 0.17979(18) 1.1873(8)
O9 O 0.5859(8) 0.1618(2) 1.4268(9)
N1 N 0.2999(8) 0.18163(19) 0.8334(9)
N2 N 0.1935(8) 0.2192(2) 0.9799(9)
N3 N 0.4037(8) 0.21985(19) 1.0052(9)
N4 N 0.3166(9) 0.0446(3) 0.0881(11)
N5 N -0.0095(10) 0.0529(2) 1.0820(16)
N6 N 0.6714(10) 0.0555(3) 1.1247(13)
C1 C 0.1912(11) 0.1942(2) 0.8688(12)
C2 C 0.4078(12) 0.1949(3) 0.8930(12)
C3 C 0.3020(10) 0.2317(3) 1.0553(12)
C4 C 0.2987(11) 0.1537(2) 0.7228(11)
H1 H 0.2257 0.1397 0.7284
H2 H 0.3689 0.1386 0.7488
C5 C 0.3016(11) 0.1673(2) 0.5603(12)
H3 H 0.2301 0.1815 0.5291
H4 H 0.3743 0.1813 0.5510
C6 C 0.3068(11) 0.1405(3) 0.3197(11)
C7 C 0.3090(9) 0.1058(3) 0.2428(11)
C8 C 0.3208(12) 0.1059(3) 0.0915(12)
H5 H 0.3272 0.1269 0.0370
C9 C 0.3235(13) 0.0734(3) 0.0168(13)
H6 H 0.3307 0.0730 -0.0900
C10 C 0.3042(15) 0.0466(3) 0.2343(15)
H7 H 0.2960 0.0255 0.2875
C11 C 0.3022(15) 0.0760(3) 0.3156(15)
H8 H 0.2960 0.0753 0.4225
C12 C 0.0822(10) 0.2326(3) 1.0307(12)
H9 H 0.0174 0.2302 0.9465
H10 H 0.0921 0.2575 1.0540
C13 C 0.0460(11) 0.2144(3) 1.1690(13)
H11 H 0.1111 0.2156 1.2534
H12 H -0.0266 0.2252 1.2036
C14 C 0.0126(11) 0.1574(3) 1.2350(16)
C15 C -0.0020(11) 0.1209(3) 1.1791(15)
C16 C -0.0169(14) 0.0940(4) 1.2746(17)
H13 H -0.0247 0.0986 1.3794
C17 C -0.0210(15) 0.0618(4) 1.2260(19)
H14 H -0.0327 0.0439 1.2973
C18 C 0.0022(12) 0.0786(4) 0.9838(17)
H15 H 0.0085 0.0731 0.8796
C19 C 0.0054(10) 0.1127(3) 1.0267(14)
H16 H 0.0127 0.1304 0.9533
C20 C 0.5174(9) 0.2330(3) 1.0847(13)
H17 H 0.5815 0.2310 1.0156
H18 H 0.5079 0.2578 1.1084
C21 C 0.5531(10) 0.2143(2) 1.2261(12)
H19 H 0.6217 0.2261 1.2837
H20 H 0.4860 0.2136 1.2910
C22 C 0.5992(10) 0.1562(3) 1.2969(14)
C23 C 0.6277(9) 0.1214(3) 1.2357(12)
C24 C 0.6371(15) 0.0935(3) 1.3272(14)
H21 H 0.6251 0.0954 1.4323
C25 C 0.6648(17) 0.0616(3) 1.2651(17)
H22 H 0.6800 0.0429 1.3342
C26 C 0.6614(13) 0.0829(4) 1.0388(16)
H23 H 0.6689 0.0795 0.9332
C27 C 0.6415(13) 0.1157(3) 1.0835(13)
H24 H 0.6371 0.1342 1.0123
Ag1B Ag -0.32203(12) 0.00455(3) 2.02970(15)
O1B O -0.0977(8) -0.1849(2) 1.2012(9)
O2B O -0.5006(7) -0.1859(2) 1.1511(9)
O3B O -0.2997(7) -0.25258(17) 0.8380(8)
O4B O -0.3025(12) -0.1362(3) 1.5309(14)
O5B O -0.3042(7) -0.16773(17) 1.7443(8)
O6B O -0.0225(7) -0.17926(18) 0.8741(8)
O7B O -0.0179(11) -0.1648(3) 0.6319(12)
O8B O -0.5863(7) -0.17979(18) 0.8127(8)
O9B O -0.5859(8) -0.1618(2) 0.5732(9)
N1B N -0.2999(8) -0.18163(19) 1.1666(9)
N2B N -0.1935(8) -0.2192(2) 1.0201(9)
N3B N -0.4037(8) -0.21985(19) 0.9948(9)
N4B N -0.3166(9) -0.0446(3) 1.9119(11)
N5B N 0.0095(10) -0.0529(2) 0.9180(16)
N6B N -0.6714(10) -0.0555(3) 0.8753(13)
C1B C -0.1912(11) -0.1942(2) 1.1312(12)
C2B C -0.4078(12) -0.1949(3) 1.1070(12)
C3B C -0.3020(10) -0.2317(3) 0.9447(12)
C4B C -0.2987(11) -0.1537(2) 1.2772(11)
H1B H -0.2257 -0.1397 1.2716
H2B H -0.3689 -0.1386 1.2512
C5B C -0.3016(11) -0.1673(2) 1.4397(12)
H3B H -0.2301 -0.1815 1.4709
H4B H -0.3743 -0.1813 1.4490
C6B C -0.3068(11) -0.1405(3) 1.6803(11)
C7B C -0.3090(9) -0.1058(3) 1.7572(11)
C8B C -0.3208(12) -0.1059(3) 1.9085(12)
H5B H -0.3272 -0.1269 1.9630
C9B C -0.3235(13) -0.0734(3) 1.9832(13)
H6B H -0.3307 -0.0730 2.0900
C10B C -0.3042(15) -0.0466(3) 1.7657(15)
H7B H -0.2960 -0.0255 1.7125
C11B C -0.3022(15) -0.0760(3) 1.6844(15)
H8B H -0.2960 -0.0753 1.5775
C12B C -0.0822(10) -0.2326(3) 0.9693(12)
H9B H -0.0174 -0.2302 1.0535
H10B H -0.0921 -0.2575 0.9460
C13B C -0.0460(11) -0.2144(3) 0.8310(13)
H11B H -0.1111 -0.2156 0.7466
H12B H 0.0266 -0.2252 0.7964
C14B C -0.0126(11) -0.1574(3) 0.7650(16)
C15B C 0.0020(11) -0.1209(3) 0.8209(15)
C16B C 0.0169(14) -0.0940(4) 0.7254(17)
H13B H 0.0247 -0.0986 0.6206
C17B C 0.0210(15) -0.0618(4) 0.7740(19)
H14B H 0.0327 -0.0439 0.7027
C18B C -0.0022(12) -0.0786(4) 1.0162(17)
H15B H -0.0085 -0.0731 1.1204
C19B C -0.0054(10) -0.1127(3) 0.9733(14)
H16B H -0.0127 -0.1304 1.0467
C20B C -0.5174(9) -0.2330(3) 0.9153(13)
H17B H -0.5815 -0.2310 0.9844
H18B H -0.5079 -0.2578 0.8916
C21B C -0.5531(10) -0.2143(2) 0.7739(12)
H19B H -0.6217 -0.2261 0.7163
H20B H -0.4860 -0.2136 0.7090
C22B C -0.5992(10) -0.1562(3) 0.7031(14)
C23B C -0.6277(9) -0.1214(3) 0.7643(12)
C24B C -0.6371(15) -0.0935(3) 0.6728(14)
H21B H -0.6251 -0.0954 0.5677
C25B C -0.6648(17) -0.0616(3) 0.7349(17)
H22B H -0.6800 -0.0429 0.6658
C26B C -0.6614(13) -0.0829(4) 0.9612(16)
H23B H -0.6689 -0.0795 1.0668
C27B C -0.6415(13) -0.1157(3) 0.9165(13)
H24B H -0.6371 -0.1342 0.9877
Ag1_2 Ag -0.67797(12) -0.00455(3) 0.97030(15)
Ag1B_2 Ag 0.67797(12) 0.00455(3) 1.02970(15)
N6_2 N -0.3286(10) 0.0555(3) 2.1247(13)
N6B_2 N 0.3286(10) -0.0555(3) -0.1247(13)
S1 S -0.2469(4) 0.29022(10) 1.1995(5)
O10 O -0.1904(9) 0.2619(3) 1.2970(12)
C28 C -0.1529(12) 0.2979(5) 1.0673(15)
H25 H -0.1573 0.2789 0.9934
H26 H -0.0710 0.2998 1.1168
H27 H -0.1752 0.3196 1.0143
C29 C -0.2163(13) 0.3276(4) 1.3069(19)
H28 H -0.2644 0.3277 1.3940
H29 H -0.2361 0.3479 1.2429
H30 H -0.1311 0.3281 1.3442
O11 O 0.4984(15) 0.0217(5) -0.1888(19)
O12 O 0.4925(11) 0.0201(3) -0.4610(14)
O13 O 0.483(2) 0.0706(5) -0.326(2)
N7 N 0.492(2) 0.0365(7) -0.296(3)
O11B O 0.5016(15) -0.0217(5) -0.8112(19)
O12B O 0.5075(11) -0.0201(3) -0.5390(14)
O13B O 0.517(2) -0.0706(5) -0.674(2)
N7B N 0.508(2) -0.0365(7) -0.704(3)
O14 O 0.188(2) 0.0152(4) -0.4673(17)
O15 O 0.128(3) 0.0160(4) -0.2393(18)
O16 O 0.152(2) 0.0642(3) -0.359(2)
N8 N 0.163(2) 0.0319(3) -0.3513(17)
O17 O 0.191(2) -0.0332(5) 0.230(2)
H31 H 0.1297 -0.0206 0.2208
C30 C 0.180(3) -0.0580(9) 0.345(3)
H32 H 0.2532 -0.0719 0.3594
H33 H 0.1116 -0.0731 0.3155
H34 H 0.1677 -0.0462 0.4411
loop_
_geom_bond_atom_site_label_1
_geom_bond_atom_site_label_2
_geom_bond_site_symmetry_1
_geom_bond_site_symmetry_2
Ag1 N4 1_555 1_555
Ag2 N5 1_555 1_555
O1 C1 1_555 1_555
O2 C2 1_555 1_555
O3 C3 1_555 1_555
O4 C5 1_555 1_555
O5 C6 1_555 1_555
O6 C13 1_555 1_555
O7 C14 1_555 1_555
O8 C21 1_555 1_555
O9 C22 1_555 1_555
N1 C1 1_555 1_555
N2 C1 1_555 1_555
N3 C2 1_555 1_555
N4 C9 1_555 1_555
N5 C17 1_555 1_555
N6 C25 1_555 1_555
C2 N1 1_555 1_555
C3 N2 1_555 1_555
C4 N1 1_555 1_555
H1 C4 1_555 1_555
H2 C4 1_555 1_555
C5 C4 1_555 1_555
H3 C5 1_555 1_555
H4 C5 1_555 1_555
C6 O4 1_555 1_555
C7 C6 1_555 1_555
C8 C7 1_555 1_555
H5 C8 1_555 1_555
C9 C8 1_555 1_555
H6 C9 1_555 1_555
C10 N4 1_555 1_555
H7 C10 1_555 1_555
C11 C7 1_555 1_555
H8 C11 1_555 1_555
C12 N2 1_555 1_555
H9 C12 1_555 1_555
H10 C12 1_555 1_555
C13 C12 1_555 1_555
H11 C13 1_555 1_555
H12 C13 1_555 1_555
C14 O6 1_555 1_555
C15 C14 1_555 1_555
C16 C15 1_555 1_555
H13 C16 1_555 1_555
C17 C16 1_555 1_555
H14 C17 1_555 1_555
C18 N5 1_555 1_555
H15 C18 1_555 1_555
C19 C15 1_555 1_555
H16 C19 1_555 1_555
C20 N3 1_555 1_555
H17 C20 1_555 1_555
H18 C20 1_555 1_555
C21 C20 1_555 1_555
H19 C21 1_555 1_555
H20 C21 1_555 1_555
C22 O8 1_555 1_555
C23 C22 1_555 1_555
C24 C23 1_555 1_555
H21 C24 1_555 1_555
C25 C24 1_555 1_555
H22 C25 1_555 1_555
C26 N6 1_555 1_555
H23 C26 1_555 1_555
C27 C23 1_555 1_555
H24 C27 1_555 1_555
S1 O10 1_555 1_555
C28 S1 1_555 1_555
H25 C28 1_555 1_555
H26 C28 1_555 1_555
H27 C28 1_555 1_555
C29 S1 1_555 1_555
H28 C29 1_555 1_555
H29 C29 1_555 1_555
H30 C29 1_555 1_555
O11 N7 1_555 1_555
O12 N7 1_555 1_555
O13 N7 1_555 1_555
O14 N8 1_555 1_555
O15 N8 1_555 1_555
O16 N8 1_555 1_555
O17 H31 1_555 1_555
C30 O17 1_555 1_555
H32 C30 1_555 1_555
H33 C30 1_555 1_555
H34 C30 1_555 1_555
Ag1B N4B 1_555 1_555
O1B C1B 1_555 1_555
O2B C2B 1_555 1_555
O3B C3B 1_555 1_555
O4B C5B 1_555 1_555
O5B C6B 1_555 1_555
O6B C13B 1_555 1_555
O7B C14B 1_555 1_555
O8B C21B 1_555 1_555
O9B C22B 1_555 1_555
N1B C1B 1_555 1_555
N2B C1B 1_555 1_555
N3B C2B 1_555 1_555
N4B C9B 1_555 1_555
N5B Ag2 1_555 1_555
N6B C25B 1_555 1_555
C2B N1B 1_555 1_555
C3B N2B 1_555 1_555
C4B N1B 1_555 1_555
H1B C4B 1_555 1_555
H2B C4B 1_555 1_555
C5B C4B 1_555 1_555
H3B C5B 1_555 1_555
H4B C5B 1_555 1_555
C6B O4B 1_555 1_555
C7B C6B 1_555 1_555
C8B C7B 1_555 1_555
H5B C8B 1_555 1_555
C9B C8B 1_555 1_555
H6B C9B 1_555 1_555
C10B N4B 1_555 1_555
H7B C10B 1_555 1_555
C11B C7B 1_555 1_555
H8B C11B 1_555 1_555
C12B N2B 1_555 1_555
H9B C12B 1_555 1_555
H10B C12B 1_555 1_555
C13B C12B 1_555 1_555
H11B C13B 1_555 1_555
H12B C13B 1_555 1_555
C14B O6B 1_555 1_555
C15B C14B 1_555 1_555
C16B C15B 1_555 1_555
H13B C16B 1_555 1_555
C17B N5B 1_555 1_555
H14B C17B 1_555 1_555
C18B N5B 1_555 1_555
H15B C18B 1_555 1_555
C19B C15B 1_555 1_555
H16B C19B 1_555 1_555
C20B N3B 1_555 1_555
H17B C20B 1_555 1_555
H18B C20B 1_555 1_555
C21B C20B 1_555 1_555
H19B C21B 1_555 1_555
H20B C21B 1_555 1_555
C22B O8B 1_555 1_555
C23B C22B 1_555 1_555
C24B C23B 1_555 1_555
H21B C24B 1_555 1_555
C25B C24B 1_555 1_555
H22B C25B 1_555 1_555
C26B N6B 1_555 1_555
H23B C26B 1_555 1_555
C27B C23B 1_555 1_555
H24B C27B 1_555 1_555
Ag1_2 N6B 1_555 1_555
Ag1B_2 N6 1_555 1_555
N6_2 Ag1B 1_555 1_555
N6B_2 Ag1 1_555 1_555
O11B N7B 1_555 1_555
O12B N7B 1_555 1_555
O13B N7B 1_555 1_555
N3 C3 1_555 1_555
C10 C11 1_555 1_555
C18 C19 1_555 1_555
C26 C27 1_555 1_555
N3B C3B 1_555 1_555
C10B C11B 1_555 1_555
C16B C17B 1_555 1_555
C18B C19B 1_555 1_555
C26B C27B 1_555 1_555

#END
