
#######################################################################
#
#                 Cambridge Crystallographic Data Centre
#                                CCDC 
#
#######################################################################
#
# If this CIF has been generated from an entry in the Cambridge 
# Structural Database, then it will include bibliographic, chemical, 
# crystal, experimental, refinement or atomic coordinate data resulting 
# from the CCDC's data processing and validation procedures.
#
#######################################################################

data_BOQVUZ
_symmetry_cell_setting           triclinic
_symmetry_space_group_name_H-M   'P -1'
_symmetry_Int_Tables_number      2
_space_group_name_Hall           '-P 1'
loop_
_symmetry_equiv_pos_site_id
_symmetry_equiv_pos_as_xyz
1 x,y,z
2 -x,-y,-z
_cell_length_a                   9.9219(12)
_cell_length_b                   10.4708(12)
_cell_length_c                   12.2067(14)
_cell_angle_alpha                100.083(2)
_cell_angle_beta                 106.406(2)
_cell_angle_gamma                103.400(2)
_cell_volume                     1143.42
loop_
_atom_site_label
_atom_site_type_symbol
_atom_site_fract_x
_atom_site_fract_y
_atom_site_fract_z
K1 K 1.0000 0.5000 0.5000
Cl1 Cl 1.0000 1.0000 1.0000
Mo1 Mo 0.59902(8) 0.50947(7) 0.30065(6)
Mo2 Mo 0.78559(7) 0.79290(7) 0.50419(6)
Mo3 Mo 0.57091(7) 0.35713(7) 0.50521(6)
Mo4 Mo 0.74993(7) 0.63342(7) 0.70669(6)
Cu1 Cu 0.77026(11) 0.87184(11) 0.99121(9)
O1 O 0.9002(7) 0.5811(6) 0.7071(6)
O2 O 0.7297(6) 0.3174(6) 0.5151(6)
O3 O 0.7583(7) 0.4664(7) 0.3168(6)
O4 O 0.5554(6) 0.7925(6) 0.4970(5)
O5 O 0.3901(6) 0.5509(6) 0.3294(5)
O6 O 0.9409(7) 0.7461(7) 0.5095(6)
O7 O 0.7956(6) 0.7999(6) 0.6646(5)
O8 O 0.6728(6) 0.7028(6) 0.3422(5)
O9 O 0.4878(6) 0.3467(6) 0.3384(5)
O10 O 0.6418(6) 0.5667(5) 0.5061(5)
O11 O 0.8320(7) 0.9608(6) 0.5054(6)
O12 O 0.5152(7) 0.4748(7) 0.1524(5)
O13 O 0.7705(7) 0.6933(6) 0.8525(5)
N1 N 0.5665(8) 0.8120(7) 1.0019(6)
N2 N 0.6678(8) 0.9479(8) 0.8644(6)
N3 N 0.8655(8) 0.8002(8) 1.1190(6)
C1 C 0.5195(9) 0.9098(9) 0.8412(7)
C2 C 0.5212(11) 0.7456(9) 1.0746(9)
H1 H 0.5906 0.7280 1.1346
C3 C 0.7204(10) 1.0165(10) 0.7973(9)
H2 H 0.8218 1.0439 0.8140
C4 C 0.4644(9) 0.8381(8) 0.9153(7)
C5 C 0.9960(10) 0.7854(11) 1.2907(8)
H3 H 1.0502 0.8088 1.3709
C6 C 0.4207(10) 0.9378(9) 0.7468(8)
C7 C 0.4816(11) 1.0094(10) 0.6757(8)
H4 H 0.4207 1.0286 0.6115
C8 C 0.3138(10) 0.7972(10) 0.8969(9)
C9 C 0.2664(11) 0.8914(11) 0.7279(9)
H5 H 0.2000 0.9060 0.6639
C10 C 0.9344(11) 0.8637(12) 1.2340(9)
H6 H 0.9379 0.9514 1.2688
C11 C 0.2161(11) 0.8276(10) 0.8005(10)
H7 H 0.1157 0.8023 0.7883
C12 C 0.6322(12) 1.0506(11) 0.7023(9)
H8 H 0.6743 1.1002 0.6578
C13 C 0.3726(12) 0.7014(11) 1.0639(10)
H9 H 0.3441 0.6549 1.1158
C14 C 0.2705(12) 0.7272(11) 0.9771(11)
H10 H 0.1716 0.6989 0.9700
N4 N 0.9683(16) 0.6669(14) 1.2146(12)
H11 H 0.9972 0.5986 1.2298
C15 C 0.8851(16) 0.6753(12) 1.1077(10)
H12 H 0.8478 0.6063 1.0380
K1_2 K 0.0000 0.5000 0.5000
Cl1_2 Cl 0.0000 0.0000 0.0000
Mo1A Mo 0.40098(8) 0.49053(7) 0.69935(6)
Mo2A Mo 0.21441(7) 0.20710(7) 0.49581(6)
Mo3A Mo 0.42909(7) 0.64287(7) 0.49479(6)
Mo4A Mo 0.25007(7) 0.36658(7) 0.29331(6)
Cu1A Cu 1.22974(11) 1.12816(11) 1.00879(9)
Cu1A_2 Cu 0.22974(11) 0.12816(11) 0.00879(9)
O1A O 1.0998(7) 0.4189(6) 0.2929(6)
O1A_2 O 0.0998(7) 0.4189(6) 0.2929(6)
O2A O 1.2703(6) 0.6826(6) 0.4849(6)
O2A_2 O 0.2703(6) 0.6826(6) 0.4849(6)
O3A O 1.2417(7) 0.5336(7) 0.6832(6)
O3A_2 O 0.2417(7) 0.5336(7) 0.6832(6)
O4A O 0.4446(6) 0.2075(6) 0.5030(5)
O5A O 0.6099(6) 0.4491(6) 0.6706(5)
O6A O 1.0591(7) 0.2539(7) 0.4905(6)
O6A_2 O 0.0591(7) 0.2539(7) 0.4905(6)
O7A O 0.2044(6) 0.2001(6) 0.3354(5)
O8A O 0.3272(6) 0.2972(6) 0.6578(5)
O9A O 0.5122(6) 0.6533(6) 0.6616(5)
O10A O 0.3582(6) 0.4333(5) 0.4939(5)
O11A O 0.1680(7) 0.0392(6) 0.4946(6)
O12A O 0.4848(7) 0.5252(7) 0.8476(5)
O13A O 0.2295(7) 0.3067(6) 0.1475(5)
N1A N 0.4335(8) 0.1880(7) -0.0019(6)
N2A N 0.3322(8) 0.0521(8) 0.1356(6)
N3A N 0.1345(8) 0.1998(8) -0.1190(6)
C1A C 0.4805(9) 0.0902(9) 0.1588(7)
C2A C 0.4788(11) 0.2544(9) -0.0746(9)
H1A H 0.4094 0.2720 -0.1346
C3A C 0.2796(10) -0.0165(10) 0.2027(9)
H2A H 0.1782 -0.0439 0.1860
C4A C 0.5356(9) 0.1619(8) 0.0847(7)
C5A C 0.0040(10) 0.2146(11) -0.2907(8)
H3A H -0.0502 0.1912 -0.3709
C6A C 0.5793(10) 0.0622(9) 0.2532(8)
C7A C 0.5184(11) -0.0094(10) 0.3243(8)
H4A H 0.5793 -0.0286 0.3885
C8A C 0.6862(10) 0.2028(10) 0.1031(9)
C9A C 0.7336(11) 0.1086(11) 0.2721(9)
H5A H 0.8000 0.0940 0.3361
C10A C 0.0656(11) 0.1363(12) -0.2340(9)
H6A H 0.0621 0.0486 -0.2688
C11A C 0.7839(11) 0.1724(10) 0.1995(10)
H7A H 0.8843 0.1977 0.2117
C12A C 0.3678(12) -0.0506(11) 0.2977(9)
H8A H 0.3257 -0.1002 0.3422
C13A C 0.6274(12) 0.2986(11) -0.0639(10)
H9A H 0.6559 0.3451 -0.1158
C14A C 0.7295(12) 0.2728(11) 0.0229(11)
H10A H 0.8284 0.3011 0.0300
N4A N 0.0317(16) 0.3331(14) -0.2146(12)
H11A H 0.0028 0.4014 -0.2298
C15A C 0.1149(16) 0.3247(12) -0.1077(10)
H12A H 0.1522 0.3937 -0.0380
loop_
_geom_bond_atom_site_label_1
_geom_bond_atom_site_label_2
_geom_bond_site_symmetry_1
_geom_bond_site_symmetry_2
K1 O1 1_555 1_555
Cl1 Cu1 1_555 1_555
Mo1 O3 1_555 1_555
Mo2 O4 1_555 1_555
Mo3 O2 1_555 1_555
Mo4 O1 1_555 1_555
Cu1 O13 1_555 1_555
O2 K1 1_555 1_555
O3 K1 1_555 1_555
O4 Mo3A 1_555 1_555
O5 Mo1 1_555 1_555
O6 K1 1_555 1_555
O7 Mo2 1_555 1_555
O8 Mo1 1_555 1_555
O9 Mo1 1_555 1_555
O10 Mo1 1_555 1_555
O11 Mo2 1_555 1_555
O12 Mo1 1_555 1_555
O13 Mo4 1_555 1_555
N1 Cu1 1_555 1_555
N2 Cu1 1_555 1_555
N3 Cu1 1_555 1_555
C1 N2 1_555 1_555
C2 N1 1_555 1_555
H1 C2 1_555 1_555
C3 N2 1_555 1_555
H2 C3 1_555 1_555
C4 N1 1_555 1_555
C5 H3 1_555 1_555
C6 C1 1_555 1_555
C7 C6 1_555 1_555
H4 C7 1_555 1_555
C8 C4 1_555 1_555
C9 C6 1_555 1_555
H5 C9 1_555 1_555
C10 N3 1_555 1_555
H6 C10 1_555 1_555
C11 C8 1_555 1_555
H7 C11 1_555 1_555
C12 C3 1_555 1_555
H8 C12 1_555 1_555
C13 C2 1_555 1_555
H9 C13 1_555 1_555
C14 C8 1_555 1_555
H10 C14 1_555 1_555
N4 C5 1_555 1_555
H11 N4 1_555 1_555
C15 N3 1_555 1_555
H12 C15 1_555 1_555
K1_2 O1A_2 1_555 1_555
Cl1_2 Cu1A_2 1_555 1_555
Mo1A O3A_2 1_555 1_555
Mo2A O4A 1_555 1_555
Mo3A O5 1_555 1_555
Mo4A O5 1_555 1_555
Cu1A Cl1 1_555 1_555
Cu1A_2 O13A 1_555 1_555
O1A K1 1_555 1_555
O1A_2 Mo4A 1_555 1_555
O2A K1 1_555 1_555
O2A_2 K1_2 1_555 1_555
O3A K1 1_555 1_555
O3A_2 K1_2 1_555 1_555
O4A Mo3 1_555 1_555
O5A Mo3 1_555 1_555
O6A K1 1_555 1_555
O6A_2 K1_2 1_555 1_555
O7A Mo2A 1_555 1_555
O8A Mo1A 1_555 1_555
O9A Mo4 1_555 1_555
O10A Mo3 1_555 1_555
O11A Mo2A 1_555 1_555
O12A Mo1A 1_555 1_555
O13A Mo4A 1_555 1_555
N1A Cu1A_2 1_555 1_555
N2A Cu1A_2 1_555 1_555
N3A Cu1A_2 1_555 1_555
C1A N2A 1_555 1_555
C2A N1A 1_555 1_555
H1A C2A 1_555 1_555
C3A N2A 1_555 1_555
H2A C3A 1_555 1_555
C4A N1A 1_555 1_555
C5A H3A 1_555 1_555
C6A C1A 1_555 1_555
C7A C6A 1_555 1_555
H4A C7A 1_555 1_555
C8A C4A 1_555 1_555
C9A C6A 1_555 1_555
H5A C9A 1_555 1_555
C10A N3A 1_555 1_555
H6A C10A 1_555 1_555
C11A C8A 1_555 1_555
H7A C11A 1_555 1_555
C12A C3A 1_555 1_555
H8A C12A 1_555 1_555
C13A C2A 1_555 1_555
H9A C13A 1_555 1_555
C14A C8A 1_555 1_555
H10A C14A 1_555 1_555
N4A C5A 1_555 1_555
H11A N4A 1_555 1_555
C15A N3A 1_555 1_555
H12A C15A 1_555 1_555
Mo2 O6 1_555 1_555
Mo2 O8 1_555 1_555
Mo2 O10 1_555 1_555
Mo3 O9 1_555 1_555
Mo3 O10 1_555 1_555
Mo4 O7 1_555 1_555
Mo4 O10 1_555 1_555
Mo4 O5A 1_555 1_555
O9 Mo4A 1_555 1_555
O10 Mo3A 1_555 1_555
C1 C4 1_555 1_555
C5 C10 1_555 1_555
C7 C12 1_555 1_555
C9 C11 1_555 1_555
C13 C14 1_555 1_555
N4 C15 1_555 1_555
Mo1A O5A 1_555 1_555
Mo1A O9A 1_555 1_555
Mo1A O10A 1_555 1_555
Mo2A O6A_2 1_555 1_555
Mo2A O8A 1_555 1_555
Mo2A O10A 1_555 1_555
Mo3A O2A_2 1_555 1_555
Mo3A O9A 1_555 1_555
Mo3A O10A 1_555 1_555
Mo4A O7A 1_555 1_555
Mo4A O10A 1_555 1_555
C1A C4A 1_555 1_555
C5A C10A 1_555 1_555
C7A C12A 1_555 1_555
C9A C11A 1_555 1_555
C13A C14A 1_555 1_555
N4A C15A 1_555 1_555

#END
