
#######################################################################
#
#                 Cambridge Crystallographic Data Centre
#                                CCDC 
#
#######################################################################
#
# If this CIF has been generated from an entry in the Cambridge 
# Structural Database, then it will include bibliographic, chemical, 
# crystal, experimental, refinement or atomic coordinate data resulting 
# from the CCDC's data processing and validation procedures.
#
#######################################################################

data_BOQVAG
_symmetry_cell_setting           monoclinic
_symmetry_space_group_name_H-M   'P 21/n'
_symmetry_Int_Tables_number      14
_space_group_name_Hall           '-P 2yn'
loop_
_symmetry_equiv_pos_site_id
_symmetry_equiv_pos_as_xyz
1 x,y,z
2 1/2-x,1/2+y,1/2-z
3 -x,-y,-z
4 1/2+x,1/2-y,1/2+z
_cell_length_a                   18.1141(3)
_cell_length_b                   8.98710(10)
_cell_length_c                   29.2132(4)
_cell_angle_alpha                90
_cell_angle_beta                 102.1890(10)
_cell_angle_gamma                90
_cell_volume                     4648.5
loop_
_atom_site_label
_atom_site_type_symbol
_atom_site_fract_x
_atom_site_fract_y
_atom_site_fract_z
Cl1 Cl -0.1713(6) -0.1643(11) 0.9953(4)
O12 O -0.1120(8) -0.0744(18) 1.0191(6)
O13 O -0.1417(10) -0.2817(18) 0.9729(7)
O14 O -0.2202(12) -0.078(2) 0.9616(8)
O15 O -0.2116(13) -0.223(3) 1.0274(8)
Cl2 Cl 0.9327(2) 0.2199(3) 0.90657(12)
O16 O 0.8889(6) 0.3410(11) 0.9178(4)
O17 O 1.0076(7) 0.2333(13) 0.9321(6)
O18 O 0.9051(9) 0.0812(12) 0.9157(7)
O19 O 0.9357(10) 0.2239(14) 0.8592(5)
O20 O 0.5138(8) 0.065(2) 0.9295(4)
H37 H 0.5371 0.0633 0.9075
H38 H 0.4847 0.0329 0.9236
Ag1 Ag -0.24472(6) 0.57257(11) 0.88622(3)
O1 O 0.0022(5) 0.9490(8) 0.7582(3)
O2 O 0.0241(4) 0.7080(8) 0.7446(3)
O3 O 0.2523(4) 0.7177(7) 0.7476(2)
O4 O 0.1640(4) -0.1718(7) 0.8249(3)
O5 O 0.1239(4) 0.0313(7) 0.8579(2)
O6 O 0.0690(5) 0.3743(8) 0.7523(3)
O7 O 0.4348(7) 0.5997(16) 0.9266(4)
O8 O 0.3221(4) 0.6993(8) 0.8994(3)
O9 O 0.2799(5) 0.3813(8) 0.8659(3)
N1 N -0.1591(5) 0.6542(10) 0.8472(3)
N2 N 0.1588(5) 0.5494(8) 0.7480(3)
N3 N 0.0433(8) -0.3663(11) 0.9514(4)
N4 N 0.1688(5) 0.3926(8) 0.8129(3)
N5 N 0.2886(7) 0.5033(13) 1.0523(4)
N6 N 0.2696(5) 0.5501(8) 0.8067(3)
C1 C -0.1232(7) 0.5579(12) 0.8248(4)
H1 H -0.1316 0.4544 0.8278
C2 C -0.0734(7) 0.6045(12) 0.7970(4)
H2 H -0.0484 0.5344 0.7813
C3 C -0.0616(6) 0.7577(11) 0.7931(4)
C4 C -0.0977(7) 0.8559(12) 0.8176(5)
H3 H -0.0895 0.9600 0.8159
C5 C -0.1449(7) 0.8016(13) 0.8441(4)
H4 H -0.1688 0.8697 0.8611
C6 C -0.0094(6) 0.8184(12) 0.7633(4)
C7 C 0.0747(6) 0.7538(12) 0.7147(4)
H5 H 0.1124 0.8264 0.7309
H6 H 0.0462 0.7991 0.6854
C8 C 0.1127(6) 0.6113(11) 0.7046(4)
H7 H 0.0738 0.5379 0.6904
H8 H 0.1452 0.6314 0.6820
C9 C 0.2286(6) 0.6137(10) 0.7665(4)
C10 C 0.0722(8) -0.4301(12) 0.9186(5)
H9 H 0.0722 -0.5357 0.9171
C11 C 0.1023(8) -0.3524(11) 0.8866(4)
H10 H 0.1234 -0.4029 0.8638
C12 C 0.1011(6) -0.2002(10) 0.8882(4)
C13 C 0.0729(9) -0.1332(12) 0.9222(5)
H11 H 0.0709 -0.0278 0.9241
C14 C 0.0472(12) -0.2213(15) 0.9541(6)
H12 H 0.0314 -0.1741 0.9795
C15 C 0.1331(6) -0.1159(10) 0.8533(4)
C16 C 0.1531(7) 0.1266(10) 0.8255(4)
H13 H 0.1281 0.1045 0.7927
H14 H 0.2083 0.1130 0.8291
C17 C 0.1353(7) 0.2797(10) 0.8386(4)
H15 H 0.0798 0.2930 0.8320
H16 H 0.1545 0.2938 0.8727
C18 C 0.1280(7) 0.4346(11) 0.7697(4)
C19 C 0.3579(9) 0.459(2) 1.0474(6)
H17 H 0.3887 0.4016 1.0714
C20 C 0.3845(10) 0.496(3) 1.0076(6)
H18 H 0.4319 0.4584 1.0037
C21 C 0.3416(7) 0.5877(16) 0.9729(4)
C22 C 0.2737(8) 0.6343(14) 0.9797(4)
H19 H 0.2421 0.6959 0.9574
C23 C 0.2514(8) 0.5893(15) 1.0204(5)
H20 H 0.2043 0.6256 1.0251
C24 C 0.3728(8) 0.6290(17) 0.9319(4)
C25 C 0.3467(7) 0.7383(12) 0.8566(4)
H21 H 0.3985 0.7796 0.8648
H22 H 0.3131 0.8167 0.8399
C26 C 0.3461(6) 0.6078(11) 0.8246(4)
H23 H 0.3684 0.6378 0.7979
H24 H 0.3779 0.5276 0.8417
C27 C 0.2412(7) 0.4358(11) 0.8307(4)
Ag2 Ag -0.02960(13) -0.4815(2) 0.99123(9)
S1 S -0.3973(2) 0.8117(4) 0.82149(14)
O10 O -0.3263(6) 0.8037(10) 0.8577(4)
C28 C -0.3802(8) 0.7354(14) 0.7695(4)
H25 H -0.3421 0.7952 0.7586
H26 H -0.4271 0.7351 0.7456
H27 H -0.3617 0.6331 0.7753
C29 C -0.4540(8) 0.6678(18) 0.8344(5)
H28 H -0.4556 0.5875 0.8116
H29 H -0.5052 0.7052 0.8330
H30 H -0.4330 0.6299 0.8659
S2 S -0.3316(2) 0.2476(4) 0.81978(15)
O11 O -0.3088(8) 0.4059(10) 0.8208(4)
C30 C -0.3064(10) 0.1827(18) 0.8769(6)
H31 H -0.2553 0.1406 0.8824
H32 H -0.3421 0.1056 0.8820
H33 H -0.3074 0.2652 0.8987
C31 C -0.2649(9) 0.1526(18) 0.7957(6)
H34 H -0.2593 0.2019 0.7667
H35 H -0.2816 0.0498 0.7889
H36 H -0.2162 0.1527 0.8181
Ag1B Ag 0.24472(6) 0.42743(11) 1.11378(3)
N3B N -0.0433(8) -0.6337(11) 1.0486(4)
N5B N -0.2886(7) 0.4967(13) 0.9477(4)
Ag2B Ag 0.02960(13) -0.5185(2) 1.00877(9)
loop_
_geom_bond_atom_site_label_1
_geom_bond_atom_site_label_2
_geom_bond_site_symmetry_1
_geom_bond_site_symmetry_2
Ag1 N1 1_555 1_555
O1 C6 1_555 1_555
O2 C6 1_555 1_555
O3 C9 1_555 1_555
O4 C15 1_555 1_555
O5 C15 1_555 1_555
O6 C18 1_555 1_555
O7 C24 1_555 1_555
O8 C24 1_555 1_555
O9 C27 1_555 1_555
N1 C1 1_555 1_555
N2 C8 1_555 1_555
N3 C10 1_555 1_555
N4 C17 1_555 1_555
N5 C19 1_555 1_555
N6 C9 1_555 1_555
C1 H1 1_555 1_555
C2 C1 1_555 1_555
H2 C2 1_555 1_555
C3 C2 1_555 1_555
C4 C3 1_555 1_555
H3 C4 1_555 1_555
C5 N1 1_555 1_555
H4 C5 1_555 1_555
C6 C3 1_555 1_555
C7 O2 1_555 1_555
H5 C7 1_555 1_555
H6 C7 1_555 1_555
C8 C7 1_555 1_555
H7 C8 1_555 1_555
H8 C8 1_555 1_555
C9 N2 1_555 1_555
C10 H9 1_555 1_555
C11 C10 1_555 1_555
H10 C11 1_555 1_555
C12 C11 1_555 1_555
C13 C12 1_555 1_555
H11 C13 1_555 1_555
C14 N3 1_555 1_555
H12 C14 1_555 1_555
C15 C12 1_555 1_555
C16 O5 1_555 1_555
H13 C16 1_555 1_555
H14 C16 1_555 1_555
C17 C16 1_555 1_555
H15 C17 1_555 1_555
H16 C17 1_555 1_555
C18 N2 1_555 1_555
C19 H17 1_555 1_555
C20 C19 1_555 1_555
H18 C20 1_555 1_555
C21 C20 1_555 1_555
C22 C21 1_555 1_555
H19 C22 1_555 1_555
C23 N5 1_555 1_555
H20 C23 1_555 1_555
C24 C21 1_555 1_555
C25 O8 1_555 1_555
H21 C25 1_555 1_555
H22 C25 1_555 1_555
C26 N6 1_555 1_555
H23 C26 1_555 1_555
H24 C26 1_555 1_555
C27 N4 1_555 1_555
Ag2 N3 1_555 1_555
S1 O10 1_555 1_555
O10 Ag1 1_555 1_555
C28 S1 1_555 1_555
H25 C28 1_555 1_555
H26 C28 1_555 1_555
H27 C28 1_555 1_555
C29 S1 1_555 1_555
H28 C29 1_555 1_555
H29 C29 1_555 1_555
H30 C29 1_555 1_555
S2 O11 1_555 1_555
O11 Ag1 1_555 1_555
C30 S2 1_555 1_555
H31 C30 1_555 1_555
H32 C30 1_555 1_555
H33 C30 1_555 1_555
C31 S2 1_555 1_555
H34 C31 1_555 1_555
H35 C31 1_555 1_555
H36 C31 1_555 1_555
Cl1 O12 1_555 1_555
O13 Cl1 1_555 1_555
O14 Cl1 1_555 1_555
O15 Cl1 1_555 1_555
Cl2 O16 1_555 1_555
O17 Cl2 1_555 1_555
O18 Cl2 1_555 1_555
O19 Cl2 1_555 1_555
O20 H37 1_555 1_555
H38 O20 1_555 1_555
Ag1B N5 1_555 1_555
N3B Ag2 1_555 1_555
N5B Ag1 1_555 1_555
Ag2B N3 1_555 1_555
N4 C18 1_555 1_555
N6 C27 1_555 1_555
C4 C5 1_555 1_555
C13 C14 1_555 1_555
C22 C23 1_555 1_555
C25 C26 1_555 1_555
Ag2 Ag2B 1_555 1_555
N3B Ag2B 1_555 1_555

#END
