
#######################################################################
#
#                 Cambridge Crystallographic Data Centre
#                                CCDC 
#
#######################################################################
#
# If this CIF has been generated from an entry in the Cambridge 
# Structural Database, then it will include bibliographic, chemical, 
# crystal, experimental, refinement or atomic coordinate data resulting 
# from the CCDC's data processing and validation procedures.
#
#######################################################################

data_BOQWAG
_symmetry_cell_setting           orthorhombic
_symmetry_space_group_name_H-M   'P b c a'
_symmetry_Int_Tables_number      61
_space_group_name_Hall           '-P 2ac 2ab'
loop_
_symmetry_equiv_pos_site_id
_symmetry_equiv_pos_as_xyz
1 x,y,z
2 1/2-x,-y,1/2+z
3 -x,1/2+y,1/2-z
4 1/2+x,1/2-y,-z
5 -x,-y,-z
6 1/2+x,y,1/2-z
7 x,1/2-y,1/2+z
8 1/2-x,1/2+y,z
_cell_length_a                   15.1527(2)
_cell_length_b                   15.9920(2)
_cell_length_c                   17.3776(2)
_cell_angle_alpha                90
_cell_angle_beta                 90
_cell_angle_gamma                90
_cell_volume                     4210.97
loop_
_atom_site_label
_atom_site_type_symbol
_atom_site_fract_x
_atom_site_fract_y
_atom_site_fract_z
U1 U 0.246247(7) 0.030812(8) 0.573023(7)
O1 O 0.27146(17) 0.14886(17) 0.66034(16)
O2 O 0.14094(17) 0.14229(16) 0.60787(16)
O3 O 0.10669(17) 0.47706(16) 1.00187(16)
O4 O 0.20019(17) 0.57621(15) 0.98025(14)
O5 O 0.60521(17) 0.53128(16) 0.87018(15)
O6 O 0.63234(17) 0.43023(16) 0.95084(16)
O7 O 0.09704(16) 0.40342(17) 0.79016(16)
O8 O 0.32751(19) 0.57775(17) 0.83511(18)
O9 O 0.3756(2) 0.3031(2) 0.7915(2)
O10 O 0.28764(18) 0.09266(15) 0.49656(14)
O11 O 0.20599(18) -0.03247(16) 0.64854(14)
N1 N 0.23448(18) 0.35112(18) 0.79136(17)
N2 N 0.2091(2) 0.49260(17) 0.81691(16)
N3 N 0.35331(18) 0.43978(19) 0.81659(17)
C1 C 0.1952(3) 0.1800(2) 0.6498(2)
C2 C 0.1720(3) 0.2624(2) 0.6863(2)
H5 H 0.1087 0.2705 0.6833
H6 H 0.2000 0.3070 0.6574
C3 C 0.2008(3) 0.2681(2) 0.7703(2)
H7 H 0.1509 0.2546 0.8030
H8 H 0.2464 0.2268 0.7798
C4 C 0.1462(2) 0.5637(2) 0.8205(2)
H9 H 0.1121 0.5651 0.7733
H10 H 0.1793 0.6155 0.8236
C5 C 0.0832(2) 0.5589(2) 0.8885(2)
H11 H 0.0538 0.6123 0.8949
H12 H 0.0385 0.5169 0.8785
C6 C 0.1316(2) 0.5372(2) 0.9612(2)
C7 C 0.4486(2) 0.4537(3) 0.8194(2)
H13 H 0.4610 0.5111 0.8048
H14 H 0.4772 0.4173 0.7823
C8 C 0.4864(2) 0.4374(3) 0.8980(2)
H15 H 0.4500 0.4650 0.9362
H16 H 0.4844 0.3778 0.9082
C9 C 0.5796(2) 0.4671(2) 0.9065(2)
C10 C 0.1748(2) 0.4147(2) 0.79878(19)
C11 C 0.2983(3) 0.5085(2) 0.82374(19)
C12 C 0.3249(2) 0.3602(2) 0.7991(2)
U1F U 0.246247(7) 0.469188(8) 1.073023(7)
U1B U 0.753753(7) 0.530812(8) 0.926977(7)
O3F O 0.10669(17) 0.02294(16) 0.50187(16)
O4F O 0.20019(17) -0.07621(15) 0.48025(14)
O5B O 0.39479(17) 0.03128(16) 0.62982(15)
O6B O 0.36766(17) -0.06977(16) 0.54916(16)
O12 O 0.7321(3) 0.2357(3) 0.5261(5)
H1 H 0.757(3) 0.1881(17) 0.529(5)
H2 H 0.769(3) 0.272(3) 0.512(5)
N4 N 0.4405(3) 0.2185(3) 0.6143(3)
H3 H 0.399(3) 0.200(4) 0.642(3)
N5 N 0.5562(3) 0.2479(4) 0.5542(3)
H4 H 0.6083(16) 0.244(4) 0.536(3)
C13 C 0.4345(4) 0.2983(4) 0.5936(3)
H17 H 0.3875 0.3341 0.6037
C14 C 0.5078(4) 0.3172(3) 0.5561(3)
H18 H 0.5225 0.3689 0.5351
C15 C 0.5139(4) 0.1888(3) 0.5915(4)
H19 H 0.5341 0.1347 0.5998
loop_
_geom_bond_atom_site_label_1
_geom_bond_atom_site_label_2
_geom_bond_site_symmetry_1
_geom_bond_site_symmetry_2
U1 O1 1_555 1_555
O1 C1 1_555 1_555
O2 U1 1_555 1_555
O3 C6 1_555 1_555
O4 C6 1_555 1_555
O5 C9 1_555 1_555
O6 C9 1_555 1_555
O7 C10 1_555 1_555
O8 C11 1_555 1_555
O9 C12 1_555 1_555
O10 U1 1_555 1_555
O11 U1 1_555 1_555
O12 H1 1_555 1_555
H2 O12 1_555 1_555
N1 C3 1_555 1_555
N2 C4 1_555 1_555
N3 C7 1_555 1_555
N4 H3 1_555 1_555
N5 H4 1_555 1_555
C1 O2 1_555 1_555
C2 C1 1_555 1_555
H5 C2 1_555 1_555
H6 C2 1_555 1_555
C3 C2 1_555 1_555
H7 C3 1_555 1_555
H8 C3 1_555 1_555
C4 H9 1_555 1_555
H10 C4 1_555 1_555
C5 C4 1_555 1_555
H11 C5 1_555 1_555
H12 C5 1_555 1_555
C6 C5 1_555 1_555
C7 H13 1_555 1_555
H14 C7 1_555 1_555
C8 C7 1_555 1_555
H15 C8 1_555 1_555
H16 C8 1_555 1_555
C9 C8 1_555 1_555
C10 N1 1_555 1_555
C11 N2 1_555 1_555
C12 N1 1_555 1_555
C13 N4 1_555 1_555
H17 C13 1_555 1_555
C14 N5 1_555 1_555
H18 C14 1_555 1_555
C15 N4 1_555 1_555
H19 C15 1_555 1_555
U1F O3 1_555 1_555
U1B O5 1_555 1_555
O3F U1 1_555 1_555
O4F U1 1_555 1_555
O5B U1 1_555 1_555
O6B U1 1_555 1_555
O4 U1F 1_555 1_555
O6 U1B 1_555 1_555
N2 C10 1_555 1_555
N3 C11 1_555 1_555
N3 C12 1_555 1_555
N5 C15 1_555 1_555
C13 C14 1_555 1_555

#END
