
#######################################################################
#
#                 Cambridge Crystallographic Data Centre
#                                CCDC 
#
#######################################################################
#
# If this CIF has been generated from an entry in the Cambridge 
# Structural Database, then it will include bibliographic, chemical, 
# crystal, experimental, refinement or atomic coordinate data resulting 
# from the CCDC's data processing and validation procedures.
#
#######################################################################

data_BOQWIO01
_symmetry_cell_setting           monoclinic
_symmetry_space_group_name_H-M   'P 21/c'
_symmetry_Int_Tables_number      14
_space_group_name_Hall           '-P 2ybc'
loop_
_symmetry_equiv_pos_site_id
_symmetry_equiv_pos_as_xyz
1 x,y,z
2 -x,1/2+y,1/2-z
3 -x,-y,-z
4 x,1/2-y,1/2+z
_cell_length_a                   9.554(6)
_cell_length_b                   6.043(4)
_cell_length_c                   23.249(12)
_cell_angle_alpha                90
_cell_angle_beta                 112.62(2)
_cell_angle_gamma                90
_cell_volume                     1239.02
loop_
_atom_site_label
_atom_site_type_symbol
_atom_site_fract_x
_atom_site_fract_y
_atom_site_fract_z
Zn1 Zn 0.08706(4) -0.12289(5) 0.166718(15)
O1 O 0.0277(2) 0.0671(3) 0.09144(10)
O2 O 0.2555(2) 0.0265(4) 0.23074(10)
N1 N 0.0991(3) 0.3155(4) 0.31707(11)
N2 N 0.1437(3) 0.6001(4) 0.13316(11)
N3 N 0.0998(3) 0.1480(4) 0.27980(11)
C1 C 0.2634(4) 0.4215(6) -0.01152(15)
H1 H 0.2879 0.3746 -0.0455
N4 N 0.0846(3) 0.2724(4) 0.09707(11)
C2 C 0.2729(4) 0.6424(5) 0.36129(15)
H2 H 0.2170 0.7103 0.3826
C3 C 0.4053(4) 0.7316(6) 0.36188(15)
H3 H 0.4426 0.8639 0.3848
N5 N 0.0756(3) 0.4105(4) 0.13899(11)
N6 N 0.2223(3) 0.1702(4) 0.26723(11)
C4 C 0.2242(3) 0.4447(5) 0.32746(13)
C5 C 0.1558(3) 0.3618(5) 0.06177(12)
C6 C 0.1867(4) 0.2807(5) 0.01131(13)
H4 H 0.1562 0.1374 -0.0057
C7 C 0.2750(3) 0.7150(5) 0.06174(14)
H5 H 0.3047 0.8591 0.0782
C8 C 0.4882(3) 0.6337(6) 0.32963(14)
H6 H 0.5793 0.7020 0.3314
C9 C 0.3084(4) 0.6363(6) 0.01350(15)
H7 H 0.3632 0.7276 -0.0038
C10 C 0.3061(3) 0.3515(5) 0.29547(13)
C11 C 0.1947(3) 0.5734(5) 0.08588(13)
C12 C 0.4408(3) 0.4431(5) 0.29592(14)
H8 H 0.4962 0.3770 0.2741
Zn1A Zn -0.08706(4) 0.37711(5) 0.333282(15)
Zn1_2 Zn 0.08706(4) 0.87711(5) 0.166718(15)
N1A N -0.0991(3) -0.1845(4) 0.18293(11)
N2_2 N 0.1437(3) -0.3999(4) 0.13316(11)
loop_
_geom_bond_atom_site_label_1
_geom_bond_atom_site_label_2
_geom_bond_site_symmetry_1
_geom_bond_site_symmetry_2
Zn1 O1 1_555 1_555
O1 N4 1_555 1_555
O2 Zn1 1_555 1_555
N1 N3 1_555 1_555
N2 N5 1_555 1_555
N3 N6 1_555 1_555
C1 H1 1_555 1_555
N4 N5 1_555 1_555
C2 H2 1_555 1_555
C3 C2 1_555 1_555
H3 C3 1_555 1_555
N6 O2 1_555 1_555
C4 N1 1_555 1_555
C5 N4 1_555 1_555
C6 C1 1_555 1_555
H4 C6 1_555 1_555
C7 H5 1_555 1_555
C8 C3 1_555 1_555
H6 C8 1_555 1_555
C9 C1 1_555 1_555
H7 C9 1_555 1_555
C10 N6 1_555 1_555
C11 N2 1_555 1_555
C12 C8 1_555 1_555
H8 C12 1_555 1_555
Zn1A N1 1_555 1_555
Zn1_2 N2 1_555 1_555
N1A Zn1 1_555 1_555
N2_2 Zn1 1_555 1_555
C2 C4 1_555 1_555
C4 C10 1_555 1_555
C5 C6 1_555 1_555
C5 C11 1_555 1_555
C7 C9 1_555 1_555
C7 C11 1_555 1_555
C10 C12 1_555 1_555

#END
