
#######################################################################
#
#                 Cambridge Crystallographic Data Centre
#                                CCDC 
#
#######################################################################
#
# If this CIF has been generated from an entry in the Cambridge 
# Structural Database, then it will include bibliographic, chemical, 
# crystal, experimental, refinement or atomic coordinate data resulting 
# from the CCDC's data processing and validation procedures.
#
#######################################################################

data_BOQWIO
_symmetry_cell_setting           monoclinic
_symmetry_space_group_name_H-M   'P 21/n'
_symmetry_Int_Tables_number      14
_space_group_name_Hall           '-P 2yn'
loop_
_symmetry_equiv_pos_site_id
_symmetry_equiv_pos_as_xyz
1 x,y,z
2 1/2-x,1/2+y,1/2-z
3 -x,-y,-z
4 1/2+x,1/2-y,1/2+z
_cell_length_a                   21.459(14)
_cell_length_b                   6.033(4)
_cell_length_c                   9.536(6)
_cell_angle_alpha                90
_cell_angle_beta                 91.60(2)
_cell_angle_gamma                90
_cell_volume                     1234.07
loop_
_atom_site_label
_atom_site_type_symbol
_atom_site_fract_x
_atom_site_fract_y
_atom_site_fract_z
Zn1 Zn 0.833307(16) 0.12246(6) 0.91996(4)
O1 O 0.90862(10) 0.9325(3) 0.9358(2)
N1 N 0.90290(10) 0.7286(4) 0.9871(2)
N2 N 0.86100(12) 0.5890(4) 0.9362(3)
N3 N 0.86694(12) 0.3999(4) 1.0098(3)
O2 O 0.76918(10) -0.0270(4) 1.0247(2)
N4 N 0.73294(11) -0.1707(4) 0.9549(2)
N5 N 0.72041(12) -0.1483(4) 0.8197(3)
N6 N 0.68294(11) -0.3157(4) 0.7817(2)
C1 C 0.93808(14) 0.2850(5) 1.2132(3)
C2 C 0.98628(16) 0.3640(6) 1.2951(4)
C3 C 1.01144(16) 0.5772(6) 1.2746(4)
C4 C 0.98862(14) 0.7184(6) 1.1760(4)
C5 C 0.91410(13) 0.4265(5) 1.1088(3)
C6 C 0.93853(13) 0.6382(4) 1.0944(3)
C7 C 0.63860(16) -0.6424(5) 0.9124(4)
C8 C 0.63811(16) -0.7313(6) 1.0435(4)
C9 C 0.67036(16) -0.6333(6) 1.1584(4)
C10 C 0.70393(15) -0.4423(6) 1.1457(3)
C11 C 0.67240(13) -0.4450(5) 0.8964(3)
C12 C 0.70451(13) -0.3513(5) 1.0110(3)
H1 H 0.9208(15) 0.152(6) 1.226(3)
H2 H 1.0022(19) 0.258(8) 1.363(4)
H3 H 1.038(2) 0.617(7) 1.326(5)
H4 H 1.0026(19) 0.852(7) 1.162(4)
H5 H 0.6181(19) -0.712(7) 0.835(4)
H6 H 0.6172(18) -0.865(6) 1.053(4)
H7 H 0.6725(17) -0.708(7) 1.248(4)
H8 H 0.7259(17) -0.375(5) 1.221(4)
Zn1_2 Zn 0.833307(16) 1.12246(6) 0.91996(4)
Zn1A Zn 0.666693(16) -0.37754(6) 0.58004(4)
O1_2 O 0.90862(10) -0.0675(3) 0.9358(2)
N6A N 0.81706(11) 0.1843(4) 0.7183(2)
loop_
_geom_bond_atom_site_label_1
_geom_bond_atom_site_label_2
_geom_bond_site_symmetry_1
_geom_bond_site_symmetry_2
Zn1 N3 1_555 1_555
O1 N1 1_555 1_555
N1 N2 1_555 1_555
N2 N3 1_555 1_555
N3 C5 1_555 1_555
O2 Zn1 1_555 1_555
N4 O2 1_555 1_555
N5 N4 1_555 1_555
N6 N5 1_555 1_555
C1 C2 1_555 1_555
C2 C3 1_555 1_555
C3 C4 1_555 1_555
C4 C6 1_555 1_555
C5 C1 1_555 1_555
C6 N1 1_555 1_555
C7 C8 1_555 1_555
C8 C9 1_555 1_555
C9 C10 1_555 1_555
C10 C12 1_555 1_555
C11 N6 1_555 1_555
C12 N4 1_555 1_555
H1 C1 1_555 1_555
H2 C2 1_555 1_555
H3 C3 1_555 1_555
H4 C4 1_555 1_555
H5 C7 1_555 1_555
H6 C8 1_555 1_555
H7 C9 1_555 1_555
H8 C10 1_555 1_555
Zn1_2 O1 1_555 1_555
Zn1A N6 1_555 1_555
O1_2 Zn1 1_555 1_555
N6A Zn1 1_555 1_555
C5 C6 1_555 1_555
C7 C11 1_555 1_555
C11 C12 1_555 1_555

#END
