
#######################################################################
#
#                 Cambridge Crystallographic Data Centre
#                                CCDC 
#
#######################################################################
#
# If this CIF has been generated from an entry in the Cambridge 
# Structural Database, then it will include bibliographic, chemical, 
# crystal, experimental, refinement or atomic coordinate data resulting 
# from the CCDC's data processing and validation procedures.
#
#######################################################################

data_BOQWOV
_symmetry_cell_setting           triclinic
_symmetry_space_group_name_H-M   'P -1'
_symmetry_Int_Tables_number      2
_space_group_name_Hall           '-P 1'
loop_
_symmetry_equiv_pos_site_id
_symmetry_equiv_pos_as_xyz
1 x,y,z
2 -x,-y,-z
_cell_length_a                   7.9038(6)
_cell_length_b                   9.2715(7)
_cell_length_c                   9.2904(7)
_cell_angle_alpha                61.6440(10)
_cell_angle_beta                 72.4620(10)
_cell_angle_gamma                82.7940(10)
_cell_volume                     571.139
loop_
_atom_site_label
_atom_site_type_symbol
_atom_site_fract_x
_atom_site_fract_y
_atom_site_fract_z
Zn1 Zn 0.48829(3) 0.16750(3) 0.17370(3)
O1 O 0.65668(19) 0.35940(18) -0.03149(18)
O2 O 0.34450(19) 0.14024(18) 0.03428(19)
O3 O 0.66061(19) 0.63274(18) -0.17773(18)
O4 O 0.66702(19) -0.00745(18) 0.59037(18)
O5 O 0.36089(19) 0.00945(19) -0.11847(19)
O6 O 0.65392(19) 0.14048(18) 0.32268(18)
C1 C 0.5919(2) 0.4966(2) -0.0599(2)
C2 C 0.4146(2) 0.0436(2) -0.0241(2)
C3 C 0.5932(2) 0.0388(2) 0.4744(2)
O1A O 0.34332(19) 0.64060(18) 0.03149(18)
O3A O 0.33939(19) 0.36726(18) 0.17773(18)
C1A C 0.4081(2) 0.5034(2) 0.0599(2)
O2A O 0.65550(19) -0.14024(18) -0.03428(19)
O5A O 0.63911(19) -0.00945(19) 0.11847(19)
C2A C 0.5854(2) -0.0436(2) 0.0241(2)
O4A O 0.33298(19) 0.00745(18) 0.40963(18)
O6A O 0.34608(19) -0.14048(18) 0.67732(18)
C3A C 0.4068(2) -0.0388(2) 0.5256(2)
Zn1A Zn 0.51171(3) -0.16750(3) -0.17370(3)
Zn1A_2 Zn 0.51171(3) -0.16750(3) 0.82630(3)
Zn1A_3 Zn 0.51171(3) 0.83250(3) -0.17370(3)
O1A_2 O 0.34332(19) -0.35940(18) 0.03149(18)
O3_2 O 0.66061(19) -0.36726(18) -0.17773(18)
O4_2 O 0.66702(19) -0.00745(18) -0.40963(18)
O6A_2 O 0.34608(19) -0.14048(18) -0.32268(18)
K1 K 0.98031(6) 0.23888(6) 0.05498(5)
O7 O 0.9014(2) 0.4579(2) 0.2088(2)
O8 O 1.0376(2) 0.3506(2) 0.4149(2)
C4 C 0.5782(3) 0.4989(3) 0.4280(3)
C5 C 0.8960(3) 0.4103(3) 0.3561(3)
C6 C 0.7342(3) 0.4075(3) 0.4940(3)
O7A O 0.0986(2) 0.5421(2) 0.7912(2)
O8A O -0.0376(2) 0.6494(2) 0.5851(2)
C4A C 0.4218(3) 0.5011(3) 0.5720(3)
C5A C 0.1040(3) 0.5897(3) 0.6439(3)
C6A C 0.2658(3) 0.5925(3) 0.5060(3)
O9 O 1.0111(4) 0.0175(5) 0.3565(4)
O10 O 1.0496(3) 0.1533(4) -0.2070(3)
loop_
_geom_bond_atom_site_label_1
_geom_bond_atom_site_label_2
_geom_bond_site_symmetry_1
_geom_bond_site_symmetry_2
Zn1 O1 1_555 1_555
O1 C1 1_555 1_555
O2 Zn1 1_555 1_555
O3 C1 1_555 1_555
O4 C3 1_555 1_555
O5 C2 1_555 1_555
O6 Zn1 1_555 1_555
C1 C1A 1_555 1_555
C2 O2 1_555 1_555
C3 O6 1_555 1_555
O7 C5 1_555 1_555
O8 C5 1_555 1_555
C4 C6 1_555 1_555
C5 C6 1_555 1_555
O1A C1A 1_555 1_555
O3A Zn1 1_555 1_555
C1A O3A 1_555 1_555
O2A C2A 1_555 1_555
O5A Zn1 1_555 1_555
C2A C2 1_555 1_555
O4A Zn1 1_555 1_555
O6A C3A 1_555 1_555
C3A C3 1_555 1_555
Zn1A O5 1_555 1_555
Zn1A_2 O4 1_555 1_555
Zn1A_3 O3 1_555 1_555
O1A_2 Zn1A 1_555 1_555
O3_2 Zn1A 1_555 1_555
O4_2 Zn1A 1_555 1_555
O6A_2 Zn1A 1_555 1_555
O7A C5A 1_555 1_555
O8A C5A 1_555 1_555
C4A C4 1_555 1_555
C5A C6A 1_555 1_555
C6A C4A 1_555 1_555
O1A Zn1A_3 1_555 1_555
O2A Zn1A 1_555 1_555
O5A C2A 1_555 1_555
O4A C3A 1_555 1_555
O6A Zn1A_2 1_555 1_555

#END
