
#######################################################################
#
#                 Cambridge Crystallographic Data Centre
#                                CCDC 
#
#######################################################################
#
# If this CIF has been generated from an entry in the Cambridge 
# Structural Database, then it will include bibliographic, chemical, 
# crystal, experimental, refinement or atomic coordinate data resulting 
# from the CCDC's data processing and validation procedures.
#
#######################################################################

data_BOQXIP
_symmetry_cell_setting           monoclinic
_symmetry_space_group_name_H-M   'P 21/n'
_symmetry_Int_Tables_number      14
_space_group_name_Hall           '-P 2yn'
loop_
_symmetry_equiv_pos_site_id
_symmetry_equiv_pos_as_xyz
1 x,y,z
2 1/2-x,1/2+y,1/2-z
3 -x,-y,-z
4 1/2+x,1/2-y,1/2+z
_cell_length_a                   10.3797(2)
_cell_length_b                   22.5140(5)
_cell_length_c                   13.6832(3)
_cell_angle_alpha                90
_cell_angle_beta                 101.1580(10)
_cell_angle_gamma                90
_cell_volume                     3137.16
loop_
_atom_site_label
_atom_site_type_symbol
_atom_site_fract_x
_atom_site_fract_y
_atom_site_fract_z
Np1 Np -0.383460(6) 0.287784(3) 1.321220(5)
Np2 Np 0.093340(6) 0.421310(3) 1.277670(5)
O1 O -0.34650(14) 0.31054(7) 1.20105(11)
O2 O -0.07650(13) 0.36317(7) 1.32852(11)
O3 O -0.15359(13) 0.28522(7) 1.39923(11)
O4 O -0.41923(14) 0.26259(7) 1.44030(11)
O5 O 0.10295(14) 0.36704(7) 1.17989(11)
O6 O 0.07387(13) 0.47599(7) 1.37407(11)
O7 O -0.57256(14) 0.35389(7) 1.30022(12)
O8 O 0.16592(14) 0.34233(7) 1.40715(12)
O9 O -0.67464(14) 0.43822(7) 1.32609(13)
O10 O -0.34476(14) 0.39077(7) 1.39311(13)
N1 N 0.12473(16) 0.50981(8) 1.16152(13)
N2 N -0.11668(15) 0.46836(8) 1.17352(12)
N3 N -0.57468(16) 0.21978(8) 1.23941(13)
N4 N -0.32180(16) 0.18225(8) 1.27089(13)
C1 C -0.06183(17) 0.31757(9) 1.38248(14)
C2 C -0.11169(18) 0.51925(9) 1.12204(14)
C3 C -0.23493(18) 0.44537(10) 1.17744(15)
C4 C 0.02094(19) 0.54224(9) 1.11602(14)
C5 C -0.7818(2) 0.14602(11) 1.15640(18)
C6 C -0.70029(19) 0.23604(10) 1.23613(17)
C7 C -0.57458(17) 0.40534(9) 1.33416(15)
C8 C -0.8065(2) 0.20071(10) 1.19518(18)
C9 C 0.07661(18) 0.29946(10) 1.43062(17)
C10 C -0.1947(2) 0.16693(10) 1.28169(17)
C11 C -0.55132(18) 0.16639(9) 1.20235(14)
C12 C 0.2685(2) 0.57932(11) 1.10276(17)
C13 C -0.34733(19) 0.52476(10) 1.08177(16)
C14 C -0.2253(2) 0.54852(10) 1.07613(16)
C15 C -0.4486(2) 0.43184(10) 1.3905(2)
C16 C -0.41190(19) 0.14939(9) 1.20943(15)
C17 C 0.0369(2) 0.59458(11) 1.06511(17)
C18 C -0.35224(19) 0.47166(10) 1.13227(16)
C19 C 0.2454(2) 0.52846(10) 1.15369(17)
C20 C -0.6537(2) 0.12825(11) 1.16082(17)
C21 C -0.2426(2) 0.08846(11) 1.1650(2)
C22 C 0.1628(2) 0.61284(11) 1.05815(18)
C23 C -0.3744(2) 0.10234(10) 1.15540(18)
C24 C -0.1511(2) 0.12076(10) 1.23045(18)
H1 H -0.466(3) 0.4338(13) 1.460(2)
H2 H -0.063(3) 0.1125(13) 1.241(2)
H3 H -0.216(3) 0.5856(15) 1.043(2)
H4 H -0.236(3) 0.4133(14) 1.213(2)
H5 H -0.853(3) 0.1212(16) 1.132(3)
H6 H 0.092(3) 0.2589(18) 1.405(3)
H7 H -0.716(3) 0.2752(15) 1.261(2)
H8 H 0.239(4) 0.335(2) 1.441(3)
H9 H -0.436(3) 0.4546(14) 1.138(2)
H10 H 0.312(3) 0.5065(14) 1.189(2)
H11 H 0.077(3) 0.2927(13) 1.503(2)
H12 H -0.428(3) 0.5458(15) 1.049(2)
H13 H -0.216(3) 0.0589(13) 1.128(2)
H14 H -0.634(3) 0.0917(17) 1.138(3)
H15 H -0.894(3) 0.2160(15) 1.188(3)
H16 H -0.032(3) 0.6188(17) 1.033(3)
H17 H -0.143(3) 0.1889(13) 1.324(2)
H18 H 0.357(3) 0.5896(16) 1.098(3)
H19 H 0.174(3) 0.6491(15) 1.028(2)
H20 H -0.437(3) 0.0805(15) 1.105(3)
H21 H -0.434(3) 0.4709(16) 1.357(2)
H22 H -0.282(4) 0.407(2) 1.407(3)
Np2_2 Np -0.906660(6) 0.421310(3) 1.277670(5)
O9_2 O 0.32536(14) 0.43822(7) 1.32609(13)
O11 O 0.25675(17) 0.32457(8) 1.04309(14)
H23 H 0.214(4) 0.300(2) 1.020(3)
H24 H 0.226(4) 0.333(2) 1.095(3)
O12 O -0.10864(15) 0.18098(8) 1.02224(13)
H25 H -0.120(3) 0.2049(17) 1.061(3)
H26 H -0.057(3) 0.1941(14) 0.995(2)
O13 O 0.01050(19) 0.15100(9) 0.50676(14)
H27 H -0.050(4) 0.1606(19) 0.522(3)
H28 H 0.062(4) 0.1627(18) 0.558(3)
O14 O -0.65471(17) 0.03588(8) 0.95383(14)
H29 H -0.638(3) 0.0163(17) 1.005(3)
H30 H -0.592(4) 0.0348(19) 0.936(3)
O15 O -0.61019(19) 0.22150(9) 0.64130(16)
H31 H -0.678(3) 0.2081(14) 0.656(2)
H32 H -0.551(4) 0.200(2) 0.654(3)
loop_
_geom_bond_atom_site_label_1
_geom_bond_atom_site_label_2
_geom_bond_site_symmetry_1
_geom_bond_site_symmetry_2
Np1 O1 1_555 1_555
Np2 O2 1_555 1_555
O2 C1 1_555 1_555
O3 Np1 1_555 1_555
O4 Np1 1_555 1_555
O5 Np2 1_555 1_555
O6 Np2 1_555 1_555
O7 Np1 1_555 1_555
O8 Np2 1_555 1_555
O9 C7 1_555 1_555
O10 Np1 1_555 1_555
N1 Np2 1_555 1_555
N2 Np2 1_555 1_555
N3 Np1 1_555 1_555
N4 Np1 1_555 1_555
C1 O3 1_555 1_555
C2 N2 1_555 1_555
C3 N2 1_555 1_555
C4 N1 1_555 1_555
C5 C8 1_555 1_555
C6 N3 1_555 1_555
C7 O7 1_555 1_555
C8 C6 1_555 1_555
C9 O8 1_555 1_555
C10 N4 1_555 1_555
C11 N3 1_555 1_555
C12 C19 1_555 1_555
C13 C14 1_555 1_555
C14 C2 1_555 1_555
C15 O10 1_555 1_555
C16 N4 1_555 1_555
C17 C4 1_555 1_555
C18 C3 1_555 1_555
C19 N1 1_555 1_555
C20 C5 1_555 1_555
C21 C23 1_555 1_555
C22 C12 1_555 1_555
C23 C16 1_555 1_555
C24 C10 1_555 1_555
H1 C15 1_555 1_555
H2 C24 1_555 1_555
H3 C14 1_555 1_555
H4 C3 1_555 1_555
H5 C5 1_555 1_555
H6 C9 1_555 1_555
H7 C6 1_555 1_555
H8 O8 1_555 1_555
H9 C18 1_555 1_555
H10 C19 1_555 1_555
H11 C9 1_555 1_555
H12 C13 1_555 1_555
H13 C21 1_555 1_555
H14 C20 1_555 1_555
H15 C8 1_555 1_555
H16 C17 1_555 1_555
H17 C10 1_555 1_555
H18 C12 1_555 1_555
H19 C22 1_555 1_555
H20 C23 1_555 1_555
H21 C15 1_555 1_555
H22 O10 1_555 1_555
O11 H23 1_555 1_555
H24 O11 1_555 1_555
O12 H25 1_555 1_555
H26 O12 1_555 1_555
O13 H27 1_555 1_555
H28 O13 1_555 1_555
O14 H29 1_555 1_555
H30 O14 1_555 1_555
O15 H31 1_555 1_555
H32 O15 1_555 1_555
Np2_2 O9 1_555 1_555
O9_2 Np2 1_555 1_555
C1 C9 1_555 1_555
C2 C4 1_555 1_555
C7 C15 1_555 1_555
C11 C16 1_555 1_555
C11 C20 1_555 1_555
C13 C18 1_555 1_555
C17 C22 1_555 1_555
C21 C24 1_555 1_555

#END
