
#######################################################################
#
#                 Cambridge Crystallographic Data Centre
#                                CCDC 
#
#######################################################################
#
# If this CIF has been generated from an entry in the Cambridge 
# Structural Database, then it will include bibliographic, chemical, 
# crystal, experimental, refinement or atomic coordinate data resulting 
# from the CCDC's data processing and validation procedures.
#
#######################################################################

data_BORBAM
_symmetry_cell_setting           monoclinic
_symmetry_space_group_name_H-M   'P 21/c'
_symmetry_Int_Tables_number      14
_space_group_name_Hall           '-P 2ybc'
loop_
_symmetry_equiv_pos_site_id
_symmetry_equiv_pos_as_xyz
1 x,y,z
2 -x,1/2+y,1/2-z
3 -x,-y,-z
4 x,1/2-y,1/2+z
_cell_length_a                   11.526(3)
_cell_length_b                   6.0798(14)
_cell_length_c                   8.726(2)
_cell_angle_alpha                90
_cell_angle_beta                 110.605(4)
_cell_angle_gamma                90
_cell_volume                     572.364
loop_
_atom_site_label
_atom_site_type_symbol
_atom_site_fract_x
_atom_site_fract_y
_atom_site_fract_z
Mn1 Mn 0.0000 1.0000 0.5000
S1 S 0.39407(4) 1.10241(9) 0.25218(6)
O1 O 0.09321(14) 1.3104(3) 0.5965(2)
H1 H 0.1806 1.3281 0.6516
H2 H 0.0609 1.3728 0.6622
O2 O 0.16075(11) 0.8859(2) 0.44457(15)
O3 O 0.07052(12) 0.6562(3) 0.23853(16)
N1 N 0.39444(12) 0.7779(3) 0.45602(17)
H3 H 0.4267 0.7174 0.5538
C1 C 0.44327(15) 0.9607(3) 0.4274(2)
C2 C 0.28870(15) 0.6658(3) 0.3403(2)
H4 H 0.2952 0.5070 0.3658
H5 H 0.2863 0.7018 0.2328
C3 C 0.16378(15) 0.7448(3) 0.34175(19)
Mn1A Mn 0.0000 0.5000 0.0000
Mn1_2 Mn 1.0000 1.0000 0.5000
Mn1A_2 Mn 1.0000 1.5000 1.0000
S1B S 0.60593(4) 0.89759(9) 0.74782(6)
O1B O -0.09321(14) 0.6896(3) 0.4035(2)
H1B H -0.1806 0.6719 0.3484
H2B H -0.0609 0.6272 0.3378
O2B O 0.83925(11) 1.1141(2) 0.55543(15)
O2B_2 O -0.16075(11) 1.1141(2) 0.55543(15)
O3B O 0.92948(12) 1.3438(3) 0.76147(16)
O3A O -0.07052(12) 1.1562(3) 0.26147(16)
O3C O 0.07052(12) 0.8438(3) 0.73853(16)
N1B N 0.60556(12) 1.2221(3) 0.54398(17)
H3B H 0.5733 1.2826 0.4462
C1B C 0.55673(15) 1.0393(3) 0.5726(2)
C2B C 0.71130(15) 1.3342(3) 0.6597(2)
H4B H 0.7048 1.4930 0.6342
H5B H 0.7137 1.2982 0.7672
C3B C 0.83622(15) 1.2552(3) 0.65825(19)
loop_
_geom_bond_atom_site_label_1
_geom_bond_atom_site_label_2
_geom_bond_site_symmetry_1
_geom_bond_site_symmetry_2
Mn1 O1 1_555 1_555
S1 C1 1_555 1_555
O1 H1 1_555 1_555
H2 O1 1_555 1_555
O2 Mn1 1_555 1_555
O3 C3 1_555 1_555
N1 H3 1_555 1_555
C1 N1 1_555 1_555
C2 N1 1_555 1_555
H4 C2 1_555 1_555
H5 C2 1_555 1_555
C3 O2 1_555 1_555
Mn1A O3 1_555 1_555
Mn1_2 O2B 1_555 1_555
Mn1A_2 O3B 1_555 1_555
S1B C1B 1_555 1_555
O1B Mn1 1_555 1_555
H1B O1B 1_555 1_555
H2B O1B 1_555 1_555
O2B C3B 1_555 1_555
O2B_2 Mn1 1_555 1_555
O3B C3B 1_555 1_555
O3A Mn1 1_555 1_555
O3C Mn1 1_555 1_555
N1B H3B 1_555 1_555
C1B C1 1_555 1_555
C2B N1B 1_555 1_555
H4B C2B 1_555 1_555
H5B C2B 1_555 1_555
C3B C2B 1_555 1_555
C2 C3 1_555 1_555
N1B C1B 1_555 1_555

#END
