
#######################################################################
#
#                 Cambridge Crystallographic Data Centre
#                                CCDC 
#
#######################################################################
#
# If this CIF has been generated from an entry in the Cambridge 
# Structural Database, then it will include bibliographic, chemical, 
# crystal, experimental, refinement or atomic coordinate data resulting 
# from the CCDC's data processing and validation procedures.
#
#######################################################################

data_BORBEQ
_symmetry_cell_setting           orthorhombic
_symmetry_space_group_name_H-M   'P 21 21 21'
_symmetry_Int_Tables_number      19
_space_group_name_Hall           'P 2ac 2ab'
loop_
_symmetry_equiv_pos_site_id
_symmetry_equiv_pos_as_xyz
1 x,y,z
2 1/2-x,-y,1/2+z
3 -x,1/2+y,1/2-z
4 1/2+x,1/2-y,-z
_cell_length_a                   15.330(3)
_cell_length_b                   15.453(3)
_cell_length_c                   16.660(3)
_cell_angle_alpha                90
_cell_angle_beta                 90
_cell_angle_gamma                90
_cell_volume                     3946.66
loop_
_atom_site_label
_atom_site_type_symbol
_atom_site_fract_x
_atom_site_fract_y
_atom_site_fract_z
Ni1 Ni 0.60839(4) 0.90619(4) 0.10019(4)
Na1 Na 0.19561(15) 1.20633(15) 0.21686(14)
C1 C 0.4760(4) 0.9667(4) 0.2202(4)
C2 C 0.3775(4) 0.9681(4) 0.2141(5)
H1 H 0.3524 0.9485 0.2643
H2 H 0.3588 0.9291 0.1720
C3 C 0.3451(4) 1.0610(4) 0.1954(4)
H3 H 0.3650 1.0781 0.1418
C4 C 0.3771(4) 1.1246(4) 0.2557(4)
H4 H 0.3503 1.1119 0.3077
C5 C 0.4776(4) 1.1216(4) 0.2645(4)
H5 H 0.4950 1.1598 0.3087
C6 C 0.5070(4) 1.0311(5) 0.2831(4)
H6 H 0.4846 1.0142 0.3352
H7 H 0.5702 1.0297 0.2857
C7 C 0.5072(5) 0.8731(4) 0.2421(4)
C8 C 0.7285(4) 1.0267(4) 0.0156(4)
C9 C 0.7296(5) 1.1229(5) 0.0059(4)
H8 H 0.7891 1.1434 0.0117
H9 H 0.6951 1.1488 0.0485
C10 C 0.6946(5) 1.1523(4) -0.0734(4)
H10 H 0.6326 1.1369 -0.0767
C11 C 0.7429(4) 1.1092(4) -0.1427(4)
H11 H 0.8036 1.1289 -0.1426
C12 C 0.7414(4) 1.0113(4) -0.1338(4)
H12 H 0.7765 0.9856 -0.1768
C13 C 0.7779(4) 0.9840(5) -0.0542(4)
H13 H 0.8390 0.9998 -0.0514
H14 H 0.7738 0.9215 -0.0493
C14 C 0.7683(4) 0.9967(4) 0.0984(4)
C15 C 0.5430(3) 0.7773(4) -0.0222(4)
C16 C 0.5425(3) 0.7908(4) -0.1129(4)
H15 H 0.5615 0.7382 -0.1394
H16 H 0.5829 0.8366 -0.1269
C17 C 0.4505(3) 0.8147(4) -0.1416(3)
H17 H 0.4332 0.8705 -0.1186
C18 C 0.3861(4) 0.7459(4) -0.1177(3)
H18 H 0.4000 0.6923 -0.1464
C19 C 0.3879(4) 0.7281(4) -0.0277(4)
H19 H 0.3497 0.6788 -0.0164
C20 C 0.4798(4) 0.7061(5) 0.0008(4)
H20 H 0.4798 0.6989 0.0587
H21 H 0.4983 0.6519 -0.0232
C21 C 0.6391(4) 0.7539(4) 0.0047(4)
O1 O 0.5154(3) 0.9885(3) 0.1430(3)
H22 H 0.5245 1.0407 0.1410
O2 O 0.2518(3) 1.0616(3) 0.1977(4)
H23 H 0.2339 1.1104 0.1875
O3 O 0.3491(3) 1.2076(3) 0.2294(3)
H24 H 0.3764 1.2452 0.2534
O4 O 0.5180(3) 1.1504(3) 0.1928(3)
H25 H 0.5261 1.1091 0.1629
O5 O 0.5671(3) 0.8408(3) 0.1972(3)
O6 O 0.4741(4) 0.8379(4) 0.3005(4)
O7 O 0.6385(3) 0.9966(3) 0.0162(3)
H26 H 0.6234 0.9846 -0.0297
O8 O 0.7033(5) 1.2437(3) -0.0829(3)
H27 H 0.6775 1.2684 -0.0464
O9 O 0.7022(3) 1.1354(3) -0.2172(3)
H28 H 0.7245 1.1090 -0.2546
O10 O 0.6546(3) 0.9781(3) -0.1386(3)
H29 H 0.6329 0.9772 -0.0936
O11 O 0.7206(3) 0.9554(3) 0.1477(3)
O12 O 0.8455(4) 1.0162(5) 0.1083(4)
O13 O 0.5205(2) 0.8570(3) 0.0177(3)
H30 H 0.4679 0.8580 0.0264
O14 O 0.4485(3) 0.8195(4) -0.2285(3)
H31 H 0.4745 0.8630 -0.2434
O15 O 0.3022(3) 0.7759(3) -0.1434(3)
H32 H 0.2640 0.7519 -0.1170
O16 O 0.3577(3) 0.8015(4) 0.0182(3)
H33 H 0.3990 0.8337 0.0279
O17 O 0.6747(2) 0.8061(3) 0.0540(3)
O18 O 0.6725(3) 0.6895(3) -0.0247(4)
Na1C Na 0.69561(15) 1.29367(15) -0.21686(14)
Na1A Na 0.30439(15) 0.79367(15) -0.28314(14)
O8C O 0.2033(5) 1.2563(3) 0.0829(3)
H27C H 0.1775 1.2316 0.0464
O9C O 0.2022(3) 1.3646(3) 0.2172(3)
H28C H 0.2245 1.3910 0.2546
O14A O 0.0515(3) 1.1805(4) 0.2715(3)
H31A H 0.0255 1.1370 0.2566
O15A O 0.1978(3) 1.2241(3) 0.3566(3)
H32A H 0.2360 1.2481 0.3830
O19 O 0.9584(4) 0.0229(5) 0.2333(3)
O20 O 0.1673(18) 0.9701(19) 0.085(3)
O21 O 0.7704(18) 0.776(2) 0.774(4)
O22 O 0.5022(14) 0.457(3) 0.979(3)
O23? O 0.553(2) 0.3108(16) 0.0249(12)
loop_
_geom_bond_atom_site_label_1
_geom_bond_atom_site_label_2
_geom_bond_site_symmetry_1
_geom_bond_site_symmetry_2
Ni1 O1 1_555 1_555
Na1 O2 1_555 1_555
C1 C2 1_555 1_555
C2 H1 1_555 1_555
H2 C2 1_555 1_555
C3 C2 1_555 1_555
H3 C3 1_555 1_555
C4 C3 1_555 1_555
H4 C4 1_555 1_555
C5 C4 1_555 1_555
H5 C5 1_555 1_555
C6 C1 1_555 1_555
H6 C6 1_555 1_555
H7 C6 1_555 1_555
C7 C1 1_555 1_555
C8 C9 1_555 1_555
C9 H8 1_555 1_555
H9 C9 1_555 1_555
C10 C9 1_555 1_555
H10 C10 1_555 1_555
C11 C10 1_555 1_555
H11 C11 1_555 1_555
C12 C11 1_555 1_555
H12 C12 1_555 1_555
C13 C8 1_555 1_555
H13 C13 1_555 1_555
H14 C13 1_555 1_555
C14 C8 1_555 1_555
C15 C16 1_555 1_555
C16 H15 1_555 1_555
H16 C16 1_555 1_555
C17 C16 1_555 1_555
H17 C17 1_555 1_555
C18 C17 1_555 1_555
H18 C18 1_555 1_555
C19 C18 1_555 1_555
H19 C19 1_555 1_555
C20 C15 1_555 1_555
H20 C20 1_555 1_555
H21 C20 1_555 1_555
C21 C15 1_555 1_555
O1 C1 1_555 1_555
H22 O1 1_555 1_555
O2 C3 1_555 1_555
H23 O2 1_555 1_555
O3 Na1 1_555 1_555
H24 O3 1_555 1_555
O4 C5 1_555 1_555
H25 O4 1_555 1_555
O5 Ni1 1_555 1_555
O6 C7 1_555 1_555
O7 Ni1 1_555 1_555
H26 O7 1_555 1_555
O8 C10 1_555 1_555
H27 O8 1_555 1_555
O9 C11 1_555 1_555
H28 O9 1_555 1_555
O10 C12 1_555 1_555
H29 O10 1_555 1_555
O11 Ni1 1_555 1_555
O12 C14 1_555 1_555
O13 Ni1 1_555 1_555
H30 O13 1_555 1_555
O14 C17 1_555 1_555
H31 O14 1_555 1_555
O15 C18 1_555 1_555
H32 O15 1_555 1_555
O16 C19 1_555 1_555
H33 O16 1_555 1_555
O17 Ni1 1_555 1_555
O18 C21 1_555 1_555
Na1C O8 1_555 1_555
Na1A O14 1_555 1_555
O8C Na1 1_555 1_555
H27C O8C 1_555 1_555
O9C Na1 1_555 1_555
H28C O9C 1_555 1_555
O14A Na1 1_555 1_555
H31A O14A 1_555 1_555
O15A Na1 1_555 1_555
H32A O15A 1_555 1_555
C4 O3 1_555 1_555
C5 C6 1_555 1_555
C7 O5 1_555 1_555
C8 O7 1_555 1_555
C12 C13 1_555 1_555
C14 O11 1_555 1_555
C15 O13 1_555 1_555
C19 C20 1_555 1_555
C21 O17 1_555 1_555
O9 Na1C 1_555 1_555
O15 Na1A 1_555 1_555

#END
