
#######################################################################
#
#                 Cambridge Crystallographic Data Centre
#                                CCDC 
#
#######################################################################
#
# If this CIF has been generated from an entry in the Cambridge 
# Structural Database, then it will include bibliographic, chemical, 
# crystal, experimental, refinement or atomic coordinate data resulting 
# from the CCDC's data processing and validation procedures.
#
#######################################################################

data_BORDOC
_symmetry_cell_setting           monoclinic
_symmetry_space_group_name_H-M   'P 21/n'
_symmetry_Int_Tables_number      14
_space_group_name_Hall           '-P 2yn'
loop_
_symmetry_equiv_pos_site_id
_symmetry_equiv_pos_as_xyz
1 x,y,z
2 1/2-x,1/2+y,1/2-z
3 -x,-y,-z
4 1/2+x,1/2-y,1/2+z
_cell_length_a                   9.6303(8)
_cell_length_b                   14.319(1)
_cell_length_c                   15.917(1)
_cell_angle_alpha                90
_cell_angle_beta                 97.727(4)
_cell_angle_gamma                90
_cell_volume                     2174.97
loop_
_atom_site_label
_atom_site_type_symbol
_atom_site_fract_x
_atom_site_fract_y
_atom_site_fract_z
Pb1 Pb 0.89978(4) 0.88027(3) 0.18834(3)
S1 S 0.9753(3) 1.0343(2) 0.10948(19)
Cl1 Cl 0.9935(4) 0.7918(2) 0.06286(19)
O1 O 0.6888(8) 1.2426(5) 0.2287(5)
N1 N 0.8376(10) 1.1924(6) 0.1077(5)
H1 H 0.7817 1.2327 0.1281
H2 H 0.8692 1.2039 0.0594
N2 N 0.8196(9) 1.1029(5) 0.2239(5)
N3 N 0.8551(9) 1.0251(6) 0.2753(5)
C1 C 0.8731(11) 1.1164(8) 0.1487(6)
C2 C 0.7880(11) 1.0370(8) 0.3443(7)
C3 C 0.7109(12) 1.1216(8) 0.3386(7)
H3 H 0.6553 1.1439 0.3794
C4 C 0.7301(11) 1.1675(8) 0.2625(7)
C5 C 0.7990(12) 0.9690(8) 0.4131(6)
C6 C 0.6847(14) 0.9569(9) 0.4590(7)
H4 H 0.6005 0.9911 0.4437
C7 C 0.6957(16) 0.8962(8) 0.5249(9)
H5 H 0.6178 0.8882 0.5550
C8 C 0.8175(18) 0.8452(10) 0.5500(8)
H6 H 0.8232 0.8032 0.5966
C9 C 0.9301(14) 0.8573(9) 0.5052(8)
H7 H 1.0142 0.8233 0.5214
C10 C 0.9217(13) 0.9192(9) 0.4363(8)
H8 H 0.9992 0.9268 0.4058
C11 C 1.0966(13) 0.8565(10) 0.2696(8)
C12 C 1.1394(15) 0.7652(10) 0.2888(8)
H9 H 1.0836 0.7132 0.2684
C13 C 1.2718(17) 0.7535(14) 0.3407(10)
H10 H 1.3042 0.6931 0.3587
C14 C 1.3508(16) 0.8313(14) 0.3639(9)
H11 H 1.4392 0.8232 0.3976
C15 C 1.3104(15) 0.9168(13) 0.3417(11)
H12 H 1.3705 0.9678 0.3591
C16 C 1.1804(14) 0.9341(11) 0.2931(9)
H13 H 1.1509 0.9956 0.2769
C17 C 0.6811(13) 0.8820(8) 0.1329(7)
C18 C 0.6517(15) 0.8773(9) 0.0438(7)
H14 H 0.7245 0.8710 0.0094
C19 C 0.5116(18) 0.8822(10) 0.0082(9)
H15 H 0.4884 0.8763 -0.0515
C20 C 0.4055(15) 0.8954(10) 0.0574(9)
H16 H 0.3107 0.8994 0.0317
C21 C 0.4387(14) 0.9027(12) 0.1440(9)
H17 H 0.3666 0.9114 0.1786
C22 C 0.5761(12) 0.8972(9) 0.1805(8)
H18 H 0.5982 0.9043 0.2402
Pb1A Pb 0.60022(4) 1.38027(3) 0.31166(3)
O1A O 0.8112(8) 0.7426(5) 0.2713(5)
loop_
_geom_bond_atom_site_label_1
_geom_bond_atom_site_label_2
_geom_bond_site_symmetry_1
_geom_bond_site_symmetry_2
Pb1 S1 1_555 1_555
S1 C1 1_555 1_555
Cl1 Pb1 1_555 1_555
O1 C4 1_555 1_555
N1 H1 1_555 1_555
H2 N1 1_555 1_555
N2 N3 1_555 1_555
N3 Pb1 1_555 1_555
C1 N1 1_555 1_555
C2 N3 1_555 1_555
C3 C2 1_555 1_555
H3 C3 1_555 1_555
C4 N2 1_555 1_555
C5 C2 1_555 1_555
C6 C5 1_555 1_555
H4 C6 1_555 1_555
C7 C6 1_555 1_555
H5 C7 1_555 1_555
C8 C7 1_555 1_555
H6 C8 1_555 1_555
C9 C8 1_555 1_555
H7 C9 1_555 1_555
C10 C5 1_555 1_555
H8 C10 1_555 1_555
C11 Pb1 1_555 1_555
C12 C11 1_555 1_555
H9 C12 1_555 1_555
C13 C12 1_555 1_555
H10 C13 1_555 1_555
C14 C13 1_555 1_555
H11 C14 1_555 1_555
C15 C14 1_555 1_555
H12 C15 1_555 1_555
C16 C11 1_555 1_555
H13 C16 1_555 1_555
C17 Pb1 1_555 1_555
C18 C17 1_555 1_555
H14 C18 1_555 1_555
C19 C18 1_555 1_555
H15 C19 1_555 1_555
C20 C19 1_555 1_555
H16 C20 1_555 1_555
C21 C20 1_555 1_555
H17 C21 1_555 1_555
C22 C17 1_555 1_555
H18 C22 1_555 1_555
Pb1A O1 1_555 1_555
O1A Pb1 1_555 1_555
N2 C1 1_555 1_555
C3 C4 1_555 1_555
C9 C10 1_555 1_555
C15 C16 1_555 1_555
C21 C22 1_555 1_555

#END
