
#######################################################################
#
#                 Cambridge Crystallographic Data Centre
#                                CCDC 
#
#######################################################################
#
# If this CIF has been generated from an entry in the Cambridge 
# Structural Database, then it will include bibliographic, chemical, 
# crystal, experimental, refinement or atomic coordinate data resulting 
# from the CCDC's data processing and validation procedures.
#
#######################################################################

data_BORFEU
_symmetry_cell_setting           monoclinic
_symmetry_space_group_name_H-M   'P 21/n'
_symmetry_Int_Tables_number      14
_space_group_name_Hall           '-P 2yn'
loop_
_symmetry_equiv_pos_site_id
_symmetry_equiv_pos_as_xyz
1 x,y,z
2 1/2-x,1/2+y,1/2-z
3 -x,-y,-z
4 1/2+x,1/2-y,1/2+z
_cell_length_a                   14.5484(10)
_cell_length_b                   11.1144(7)
_cell_length_c                   33.732(2)
_cell_angle_alpha                90
_cell_angle_beta                 100.966(1)
_cell_angle_gamma                90
_cell_volume                     5354.76
loop_
_atom_site_label
_atom_site_type_symbol
_atom_site_fract_x
_atom_site_fract_y
_atom_site_fract_z
Cd1 Cd 0.88269(6) 1.09588(6) 0.10817(2)
I1 I 0.98707(6) 1.29047(7) 0.12973(2)
I2 I 0.94425(6) 0.86982(6) 0.10468(2)
S1 S 0.6836(3) 0.5459(3) 0.19710(9)
S2 S 0.6634(3) 0.6974(3) 0.03905(9)
N1 N 0.6814(5) 0.7850(7) 0.1967(2)
N2 N 0.6106(7) 0.6792(8) 0.2448(3)
N3 N 0.7767(5) 1.0962(7) 0.1499(2)
N4 N 0.6608(6) 0.4650(8) 0.0198(2)
N5 N 0.5924(7) 0.6074(8) -0.0300(3)
N6 N 0.7700(6) 0.1252(8) 0.0518(2)
C1 C 0.6555(7) 0.6855(9) 0.2143(3)
C2 C 0.5878(8) 0.7853(11) 0.2597(3)
H1 H 0.5553 0.7856 0.2810
C3 C 0.6116(7) 0.8939(9) 0.2442(3)
H2 H 0.5975 0.9667 0.2552
C4 C 0.6570(7) 0.8900(9) 0.2118(3)
C5 C 0.6820(7) 1.0009(8) 0.1920(3)
C6 C 0.6427(8) 1.1101(9) 0.1979(3)
H3 H 0.5982 1.1152 0.2143
C7 C 0.6691(8) 1.2129(9) 0.1797(3)
H4 H 0.6416 1.2871 0.1827
C8 C 0.7368(8) 1.2006(9) 0.1572(3)
H5 H 0.7570 1.2699 0.1460
C9 C 0.7489(7) 1.0004(8) 0.1678(3)
H6 H 0.7766 0.9271 0.1637
C10 C 0.7441(8) 0.5781(9) 0.1566(3)
H7 H 0.7864 0.6452 0.1643
H8 H 0.7813 0.5087 0.1522
C11 C 0.6762(8) 0.6090(10) 0.1171(3)
H9 H 0.6343 0.5418 0.1090
H10 H 0.6388 0.6784 0.1213
C12 C 0.7306(8) 0.6359(10) 0.0847(3)
H11 H 0.7600 0.5622 0.0781
H12 H 0.7802 0.6922 0.0953
C13 C 0.6361(8) 0.5738(10) 0.0063(3)
C14 C 0.5702(8) 0.5168(13) -0.0565(4)
H13 H 0.5387 0.5345 -0.0825
C15 C 0.5926(8) 0.3979(10) -0.0465(3)
H14 H 0.5772 0.3360 -0.0651
C16 C 0.6380(7) 0.3765(9) -0.0081(3)
C17 C 0.6689(7) 0.2531(9) 0.0050(3)
C18 C 0.6320(8) 0.1541(11) -0.0155(3)
H15 H 0.5843 0.1627 -0.0380
C19 C 0.6647(9) 0.0405(10) -0.0035(4)
H16 H 0.6404 -0.0274 -0.0179
C20 C 0.7322(9) 0.0307(10) 0.0294(4)
H17 H 0.7544 -0.0459 0.0373
C21 C 0.7363(7) 0.2312(9) 0.0395(3)
H18 H 0.7594 0.2974 0.0552
N6_2 N 0.7700(6) 1.1252(8) 0.0518(2)
Cd1_2 Cd 0.88269(6) 0.09588(6) 0.10817(2)
Cd2 Cd 0.34276(6) 0.11986(7) 0.14575(2)
I3 I 0.41430(5) 0.34279(6) 0.16362(2)
I4 I 0.41238(6) -0.10553(6) 0.14779(3)
S3 S 0.1762(2) 0.7096(2) 0.06242(9)
S4 S 0.0861(3) 0.5487(3) 0.20488(9)
N7 N 0.1600(5) 0.4751(7) 0.0465(2)
N8 N 0.1094(6) 0.6167(8) -0.0072(3)
N9 N 0.2264(6) 0.1363(7) 0.0906(2)
N10 N 0.0989(5) 0.7888(7) 0.2101(2)
N11 N -0.0380(7) 0.6888(8) 0.2229(2)
N12 N 0.2372(6) 1.1072(7) 0.1898(2)
C22 C 0.1451(7) 0.5858(10) 0.0315(3)
C23 C 0.0850(8) 0.5217(12) -0.0319(3)
H19 H 0.0596 0.5366 -0.0589
C24 C 0.0956(7) 0.4050(9) -0.0193(3)
H20 H 0.0779 0.3416 -0.0371
C25 C 0.1337(7) 0.3844(8) 0.0209(3)
C26 C 0.1457(7) 0.2621(8) 0.0374(3)
C27 C 0.0961(8) 0.1640(10) 0.0207(3)
H21 H 0.0513 0.1716 -0.0028
C28 C 0.1129(9) 0.0575(11) 0.0386(4)
H22 H 0.0815 -0.0101 0.0266
C29 C 0.1747(8) 0.0453(9) 0.0738(3)
H23 H 0.1809 -0.0292 0.0866
C30 C 0.2093(6) 0.2436(8) 0.0724(3)
H24 H 0.2428 0.3097 0.0844
C31 C 0.2167(7) 0.6443(8) 0.1113(3)
H25 H 0.2519 0.5718 0.1082
H26 H 0.2590 0.7004 0.1276
C32 C 0.1396(8) 0.6135(8) 0.1330(3)
H27 H 0.1032 0.5476 0.1192
H28 H 0.0984 0.6823 0.1324
C33 C 0.1773(7) 0.5777(9) 0.1769(3)
H29 H 0.2170 0.6418 0.1901
H30 H 0.2155 0.5061 0.1773
C34 C 0.0421(8) 0.6943(9) 0.2123(3)
C35 C -0.0752(7) 0.7992(11) 0.2287(3)
H31 H -0.1353 0.8039 0.2344
C36 C -0.0263(7) 0.9012(9) 0.2264(3)
H32 H -0.0519 0.9753 0.2310
C37 C 0.0602(7) 0.8952(9) 0.2174(3)
C38 C 0.1185(7) 1.0034(9) 0.2170(3)
C39 C 0.1083(8) 1.1024(9) 0.2406(3)
H33 H 0.0653 1.1011 0.2577
C40 C 0.1623(8) 1.2030(9) 0.2385(3)
H34 H 0.1565 1.2700 0.2543
C41 C 0.2248(7) 1.2029(10) 0.2126(3)
H35 H 0.2601 1.2718 0.2109
C42 C 0.1859(7) 1.0108(9) 0.1923(3)
H36 H 0.1947 0.9439 0.1769
N12_2 N 0.2372(6) 0.1072(7) 0.1898(2)
Cd2_2 Cd 0.34276(6) 1.11986(7) 0.14575(2)
C43 C 0.5292(9) 0.1296(14) 0.0805(4)
H37 H 0.5648 0.1915 0.0705
H38 H 0.5400 0.0541 0.0683
H39 H 0.5482 0.1237 0.1092
O1 O 0.4336(8) 0.1582(7) 0.0707(3)
H40 H 0.4111 0.1801 0.0911
loop_
_geom_bond_atom_site_label_1
_geom_bond_atom_site_label_2
_geom_bond_site_symmetry_1
_geom_bond_site_symmetry_2
Cd1 I1 1_555 1_555
Cd2 I3 1_555 1_555
I2 Cd1 1_555 1_555
I4 Cd2 1_555 1_555
S1 C1 1_555 1_555
S2 C12 1_555 1_555
S3 C22 1_555 1_555
S4 C33 1_555 1_555
N1 C1 1_555 1_555
N2 C1 1_555 1_555
N3 Cd1 1_555 1_555
N4 C13 1_555 1_555
N5 C13 1_555 1_555
N6 C20 1_555 1_555
N7 C22 1_555 1_555
N8 C22 1_555 1_555
N9 Cd2 1_555 1_555
N10 C34 1_555 1_555
N11 C34 1_555 1_555
N12 C41 1_555 1_555
C2 N2 1_555 1_555
H1 C2 1_555 1_555
C3 C2 1_555 1_555
H2 C3 1_555 1_555
C4 N1 1_555 1_555
C5 C4 1_555 1_555
C6 C5 1_555 1_555
H3 C6 1_555 1_555
C7 C6 1_555 1_555
H4 C7 1_555 1_555
C8 N3 1_555 1_555
H5 C8 1_555 1_555
C9 N3 1_555 1_555
H6 C9 1_555 1_555
C10 S1 1_555 1_555
H7 C10 1_555 1_555
H8 C10 1_555 1_555
C11 C10 1_555 1_555
H9 C11 1_555 1_555
H10 C11 1_555 1_555
C12 C11 1_555 1_555
H11 C12 1_555 1_555
H12 C12 1_555 1_555
C13 S2 1_555 1_555
C14 N5 1_555 1_555
H13 C14 1_555 1_555
C15 C14 1_555 1_555
H14 C15 1_555 1_555
C16 N4 1_555 1_555
C17 C16 1_555 1_555
C18 C17 1_555 1_555
H15 C18 1_555 1_555
C19 C18 1_555 1_555
H16 C19 1_555 1_555
C20 C19 1_555 1_555
H17 C20 1_555 1_555
C21 N6 1_555 1_555
H18 C21 1_555 1_555
C23 N8 1_555 1_555
H19 C23 1_555 1_555
C24 C23 1_555 1_555
H20 C24 1_555 1_555
C25 N7 1_555 1_555
C26 C25 1_555 1_555
C27 C26 1_555 1_555
H21 C27 1_555 1_555
C28 C27 1_555 1_555
H22 C28 1_555 1_555
C29 N9 1_555 1_555
H23 C29 1_555 1_555
C30 N9 1_555 1_555
H24 C30 1_555 1_555
C31 S3 1_555 1_555
H25 C31 1_555 1_555
H26 C31 1_555 1_555
C32 C31 1_555 1_555
H27 C32 1_555 1_555
H28 C32 1_555 1_555
C33 C32 1_555 1_555
H29 C33 1_555 1_555
H30 C33 1_555 1_555
C34 S4 1_555 1_555
C35 N11 1_555 1_555
H31 C35 1_555 1_555
C36 C35 1_555 1_555
H32 C36 1_555 1_555
C37 N10 1_555 1_555
C38 C37 1_555 1_555
C39 C38 1_555 1_555
H33 C39 1_555 1_555
C40 C39 1_555 1_555
H34 C40 1_555 1_555
C41 C40 1_555 1_555
H35 C41 1_555 1_555
C42 N12 1_555 1_555
H36 C42 1_555 1_555
C43 H37 1_555 1_555
H38 C43 1_555 1_555
H39 C43 1_555 1_555
O1 C43 1_555 1_555
H40 O1 1_555 1_555
N6_2 Cd1 1_555 1_555
N12_2 Cd2 1_555 1_555
Cd1_2 N6 1_555 1_555
Cd2_2 N12 1_555 1_555
C3 C4 1_555 1_555
C5 C9 1_555 1_555
C7 C8 1_555 1_555
C15 C16 1_555 1_555
C17 C21 1_555 1_555
C24 C25 1_555 1_555
C26 C30 1_555 1_555
C28 C29 1_555 1_555
C36 C37 1_555 1_555
C38 C42 1_555 1_555

#END
