
#######################################################################
#
#                 Cambridge Crystallographic Data Centre
#                                CCDC 
#
#######################################################################
#
# If this CIF has been generated from an entry in the Cambridge 
# Structural Database, then it will include bibliographic, chemical, 
# crystal, experimental, refinement or atomic coordinate data resulting 
# from the CCDC's data processing and validation procedures.
#
#######################################################################

data_BORGEV
_symmetry_cell_setting           monoclinic
_symmetry_space_group_name_H-M   'C 2/c'
_symmetry_Int_Tables_number      15
_space_group_name_Hall           '-C 2yn'
loop_
_symmetry_equiv_pos_site_id
_symmetry_equiv_pos_as_xyz
1 x,y,z
2 -x,y,1/2-z
3 1/2+x,1/2+y,z
4 1/2-x,1/2+y,1/2-z
5 -x,-y,-z
6 x,-y,1/2+z
7 1/2-x,1/2-y,-z
8 1/2+x,1/2-y,1/2+z
_cell_length_a                   16.419(3)
_cell_length_b                   6.8503(14)
_cell_length_c                   22.834(5)
_cell_angle_alpha                90
_cell_angle_beta                 102.607(4)
_cell_angle_gamma                90
_cell_volume                     2506.34
loop_
_atom_site_label
_atom_site_type_symbol
_atom_site_fract_x
_atom_site_fract_y
_atom_site_fract_z
Cd1 Cd 0.5000 0.64020(9) 0.2500
I1 I 0.53526(3) 0.46462(8) 0.153790(19)
N1 N 0.3361(3) 0.9727(6) 0.0332(2)
N2 N 0.2352(3) 1.0029(6) -0.0584(2)
N3 N 0.3982(3) 0.8624(7) 0.21453(19)
S1 S 0.38586(11) 0.9436(3) -0.06984(7)
C1 C 0.3045(3) 1.0013(7) 0.1298(2)
C2 C 0.2762(3) 1.0040(7) 0.0641(2)
C3 C 0.3118(4) 0.9760(7) -0.0257(3)
C4 C 0.1775(4) 1.0318(8) -0.0267(3)
H1 H 0.1225 1.0508 -0.0471
C5 C 0.1950(4) 1.0350(8) 0.0349(3)
H2 H 0.1534 1.0573 0.0559
C6 C 0.2720(4) 1.1175(9) 0.1673(3)
H3 H 0.2286 1.2029 0.1517
C7 C 0.3677(4) 0.8744(8) 0.1554(2)
H4 H 0.3900 0.7933 0.1303
C8 C 0.3652(4) 0.9795(9) 0.2500(3)
H5 H 0.3856 0.9725 0.2912
C9 C 0.4816(4) 0.9065(8) -0.0146(3)
H6 H 0.4708 0.8189 0.0162
H7 H 0.5220 0.8441 -0.0337
C10 C 0.3032(4) 1.1085(10) 0.2282(3)
H8 H 0.2821 1.1894 0.2541
Cd1D Cd 0.5000 1.35980(9) -0.2500
I1A I 0.46474(3) 0.46462(8) 0.346210(19)
N1D N 0.6639(3) 1.0273(6) -0.0332(2)
N2D N 0.7648(3) 0.9971(6) 0.0584(2)
N3D N 0.6018(3) 1.1376(7) -0.21453(19)
N3A N 0.6018(3) 0.8624(7) 0.28547(19)
S1D S 0.61414(11) 1.0564(3) 0.06984(7)
C1D C 0.6955(3) 0.9987(7) -0.1298(2)
C2D C 0.7238(3) 0.9960(7) -0.0641(2)
C3D C 0.6882(4) 1.0240(7) 0.0257(3)
C4D C 0.8225(4) 0.9682(8) 0.0267(3)
H1D H 0.8775 0.9492 0.0471
C5D C 0.8050(4) 0.9650(8) -0.0349(3)
H2D H 0.8466 0.9427 -0.0559
C6D C 0.7280(4) 0.8825(9) -0.1673(3)
H3D H 0.7714 0.7971 -0.1517
C7D C 0.6323(4) 1.1256(8) -0.1554(2)
H4D H 0.6100 1.2067 -0.1303
C8D C 0.6348(4) 1.0205(9) -0.2500(3)
H5D H 0.6144 1.0275 -0.2912
C9D C 0.5184(4) 1.0935(8) 0.0146(3)
H6D H 0.5292 1.1811 -0.0162
H7D H 0.4780 1.1559 0.0337
C10D C 0.6968(4) 0.8915(10) -0.2282(3)
H8D H 0.7179 0.8106 -0.2541
loop_
_geom_bond_atom_site_label_1
_geom_bond_atom_site_label_2
_geom_bond_site_symmetry_1
_geom_bond_site_symmetry_2
Cd1 I1 1_555 1_555
N1 C2 1_555 1_555
N2 C3 1_555 1_555
N3 Cd1 1_555 1_555
S1 C3 1_555 1_555
C1 C2 1_555 1_555
C2 C5 1_555 1_555
C3 N1 1_555 1_555
C4 N2 1_555 1_555
H1 C4 1_555 1_555
C5 C4 1_555 1_555
H2 C5 1_555 1_555
C6 C1 1_555 1_555
H3 C6 1_555 1_555
C7 N3 1_555 1_555
H4 C7 1_555 1_555
C8 N3 1_555 1_555
H5 C8 1_555 1_555
C9 S1 1_555 1_555
H6 C9 1_555 1_555
H7 C9 1_555 1_555
C10 C6 1_555 1_555
H8 C10 1_555 1_555
Cd1D N3D 1_555 1_555
I1A Cd1 1_555 1_555
N1D C2D 1_555 1_555
N2D C3D 1_555 1_555
N3D C7D 1_555 1_555
N3A Cd1 1_555 1_555
S1D C3D 1_555 1_555
C1D C2D 1_555 1_555
C2D C5D 1_555 1_555
C3D N1D 1_555 1_555
C4D N2D 1_555 1_555
H1D C4D 1_555 1_555
C5D C4D 1_555 1_555
H2D C5D 1_555 1_555
C6D C1D 1_555 1_555
H3D C6D 1_555 1_555
C7D C1D 1_555 1_555
H4D C7D 1_555 1_555
C8D N3D 1_555 1_555
H5D C8D 1_555 1_555
C9D C9 1_555 1_555
H6D C9D 1_555 1_555
H7D C9D 1_555 1_555
C10D C6D 1_555 1_555
H8D C10D 1_555 1_555
C1 C7 1_555 1_555
C8 C10 1_555 1_555
S1D C9D 1_555 1_555
C8D C10D 1_555 1_555

#END
