
#######################################################################
#
#                 Cambridge Crystallographic Data Centre
#                                CCDC 
#
#######################################################################
#
# If this CIF has been generated from an entry in the Cambridge 
# Structural Database, then it will include bibliographic, chemical, 
# crystal, experimental, refinement or atomic coordinate data resulting 
# from the CCDC's data processing and validation procedures.
#
#######################################################################

data_BORLAW
_symmetry_cell_setting           monoclinic
_symmetry_space_group_name_H-M   'C 2/m'
_symmetry_Int_Tables_number      12
_space_group_name_Hall           '-C 2y'
loop_
_symmetry_equiv_pos_site_id
_symmetry_equiv_pos_as_xyz
1 x,y,z
2 -x,y,-z
3 1/2+x,1/2+y,z
4 1/2-x,1/2+y,-z
5 -x,-y,-z
6 x,-y,z
7 1/2-x,1/2-y,-z
8 1/2+x,1/2-y,z
_cell_length_a                   15.5448(18)
_cell_length_b                   9.5424(11)
_cell_length_c                   6.0670(7)
_cell_angle_alpha                90
_cell_angle_beta                 92.525(2)
_cell_angle_gamma                90
_cell_volume                     899.073
loop_
_atom_site_label
_atom_site_type_symbol
_atom_site_fract_x
_atom_site_fract_y
_atom_site_fract_z
Co1 Co 1.0000 1.0000 1.0000
O1 O 1.13687(13) 1.0000 1.0135(3)
O2 O 0.99156(10) 1.16058(17) 1.2348(2)
C1 C 1.05401(19) 1.5000 1.3240(5)
C2 C 1.02693(12) 1.3736(2) 1.4107(3)
C3 C 1.05179(14) 1.2404(2) 1.2979(4)
Na1 Na 1.25040(17) 1.2327(2) 1.4837(4)
O3 O 1.1321(3) 1.2392(4) 1.2262(6)
O4 O 1.3190(4) 1.1887(5) 1.1892(11)
H1 H 1.313(4) 1.096(4) 1.159(9)
H2 H 1.375(2) 1.198(7) 1.186(7)
O5 O 1.20582(15) 1.0000 1.5979(4)
H3 H 1.092(3) 1.5000 1.206(8)
H4 H 1.195(3) 1.0000 1.731(4)
H5 H 1.149(2) 1.073(3) 1.095(5)
H6 H 1.157(2) 1.0000 1.523(6)
O6 O 1.1271(3) 1.2048(4) 1.3060(6)
O7 O 1.3251(4) 1.1340(5) 1.1850(11)
H7 H 1.323(4) 1.177(6) 1.055(5)
H8 H 1.380(2) 1.114(7) 1.201(6)
Co1_2 Co 1.0000 2.0000 1.0000
Co1_3 Co 1.0000 1.0000 2.0000
Co1_4 Co 1.0000 2.0000 2.0000
O1A O 0.86313(13) 1.0000 0.9865(3)
O2E O 0.99156(10) 1.83942(17) 1.2348(2)
O2A O 1.00844(10) 1.16058(17) 1.7652(2)
O2D O 1.00844(10) 1.83942(17) 1.7652(2)
O2A_2 O 1.00844(10) 1.16058(17) 0.7652(2)
O2E_2 O 0.99156(10) 0.83942(17) 1.2348(2)
O2D_2 O 1.00844(10) 0.83942(17) 0.7652(2)
C1A C 0.94599(19) 1.5000 1.6760(5)
C2E C 1.02693(12) 1.6264(2) 1.4107(3)
C2D C 0.97307(12) 1.6264(2) 1.5893(3)
C2A C 0.97307(12) 1.3736(2) 1.5893(3)
C3E C 1.05179(14) 1.7596(2) 1.2979(4)
C3A C 0.94821(14) 1.2404(2) 1.7021(4)
C3D C 0.94821(14) 1.7596(2) 1.7021(4)
Na1E Na 1.25040(17) 1.7673(2) 1.4837(4)
Na1A Na 0.74960(17) 1.2327(2) 1.5163(4)
Na1D Na 0.74960(17) 1.7673(2) 1.5163(4)
Na1F Na 1.24960(17) 1.2673(2) 1.5163(4)
Na1C Na 1.24960(17) 0.7327(2) 1.5163(4)
Na1E_2 Na 1.25040(17) 0.7673(2) 1.4837(4)
Na1C_2 Na 1.24960(17) 1.7327(2) 1.5163(4)
Na1G Na 0.75040(17) 1.2673(2) 1.4837(4)
Na1B Na 0.75040(17) 1.7327(2) 1.4837(4)
O3E O 1.1321(3) 1.7608(4) 1.2262(6)
O3A O 0.8679(3) 1.2392(4) 1.7738(6)
O3D O 0.8679(3) 1.7608(4) 1.7738(6)
O3F O 1.3679(3) 1.2608(4) 1.7738(6)
O3C O 1.3679(3) 1.7392(4) 1.7738(6)
O3G O 0.6321(3) 1.2608(4) 1.2262(6)
O3B O 0.6321(3) 1.7392(4) 1.2262(6)
O4F O 1.1810(4) 1.3113(5) 1.8108(11)
O4E O 1.3190(4) 1.8113(5) 1.1892(11)
O4C O 1.1810(4) 1.6887(5) 1.8108(11)
O4A O 0.6810(4) 1.1887(5) 1.8108(11)
O4G O 0.8190(4) 1.3113(5) 1.1892(11)
O4D O 0.6810(4) 1.8113(5) 1.8108(11)
O4B O 0.8190(4) 1.6887(5) 1.1892(11)
H1F H 1.187(4) 1.404(4) 1.841(9)
H1E H 1.313(4) 1.904(4) 1.159(9)
H1C H 1.187(4) 1.596(4) 1.841(9)
H1A H 0.687(4) 1.096(4) 1.841(9)
H1G H 0.813(4) 1.404(4) 1.159(9)
H1D H 0.687(4) 1.904(4) 1.841(9)
H1B H 0.813(4) 1.596(4) 1.159(9)
H2F H 1.125(2) 1.302(7) 1.814(7)
H2E H 1.375(2) 1.802(7) 1.186(7)
H2C H 1.125(2) 1.698(7) 1.814(7)
H2A H 0.625(2) 1.198(7) 1.814(7)
H2G H 0.875(2) 1.302(7) 1.186(7)
H2D H 0.625(2) 1.802(7) 1.814(7)
H2B H 0.875(2) 1.698(7) 1.186(7)
O5C O 1.29418(15) 1.5000 1.4021(4)
O5_2 O 1.20582(15) 2.0000 1.5979(4)
O5A O 0.79418(15) 1.0000 1.4021(4)
O5B O 0.70582(15) 1.5000 1.5979(4)
O5A_2 O 0.79418(15) 2.0000 1.4021(4)
H3A H 0.908(3) 1.5000 1.794(8)
H4C H 1.305(3) 1.5000 1.269(4)
H4_2 H 1.195(3) 2.0000 1.731(4)
H4A H 0.805(3) 1.0000 1.269(4)
H4B H 0.695(3) 1.5000 1.731(4)
H4A_2 H 0.805(3) 2.0000 1.269(4)
H5E H 1.149(2) 0.927(3) 1.095(5)
H5A H 0.851(2) 1.073(3) 0.905(5)
H5D H 0.851(2) 0.927(3) 0.905(5)
H6C H 1.343(2) 1.5000 1.477(6)
H6_2 H 1.157(2) 2.0000 1.523(6)
H6A H 0.843(2) 1.0000 1.477(6)
H6B H 0.657(2) 1.5000 1.523(6)
H6A_2 H 0.843(2) 2.0000 1.477(6)
O6E O 1.1271(3) 1.7952(4) 1.3060(6)
O6A O 0.8729(3) 1.2048(4) 1.6940(6)
O6D O 0.8729(3) 1.7952(4) 1.6940(6)
O6F O 1.3729(3) 1.2952(4) 1.6940(6)
O6C O 1.3729(3) 1.7048(4) 1.6940(6)
O6G O 0.6271(3) 1.2952(4) 1.3060(6)
O6B O 0.6271(3) 1.7048(4) 1.3060(6)
O7F O 1.1749(4) 1.3660(5) 1.8150(11)
O7E O 1.3251(4) 1.8660(5) 1.1850(11)
O7C O 1.1749(4) 1.6340(5) 1.8150(11)
O7A O 0.6749(4) 1.1340(5) 1.8150(11)
O7G O 0.8251(4) 1.3660(5) 1.1850(11)
O7D O 0.6749(4) 1.8660(5) 1.8150(11)
O7B O 0.8251(4) 1.6340(5) 1.1850(11)
H7F H 1.177(4) 1.323(6) 1.945(5)
H7E H 1.323(4) 1.823(6) 1.055(5)
H7C H 1.177(4) 1.677(6) 1.945(5)
H7A H 0.677(4) 1.177(6) 1.945(5)
H7G H 0.823(4) 1.323(6) 1.055(5)
H7D H 0.677(4) 1.823(6) 1.945(5)
H7B H 0.823(4) 1.677(6) 1.055(5)
H8F H 1.120(2) 1.386(7) 1.799(6)
H8E H 1.380(2) 1.886(7) 1.201(6)
H8C H 1.120(2) 1.614(7) 1.799(6)
H8A H 0.620(2) 1.114(7) 1.799(6)
H8G H 0.880(2) 1.386(7) 1.201(6)
H8D H 0.620(2) 1.886(7) 1.799(6)
H8B H 0.880(2) 1.614(7) 1.201(6)
loop_
_geom_bond_atom_site_label_1
_geom_bond_atom_site_label_2
_geom_bond_site_symmetry_1
_geom_bond_site_symmetry_2
Co1 O1 1_555 1_555
O1 H5 1_555 1_555
O2 Co1 1_555 1_555
C1 C2 1_555 1_555
C2 C3 1_555 1_555
C3 O2 1_555 1_555
Na1 O3 1_555 1_555
O3 C3 1_555 1_555
O4 Na1 1_555 1_555
H1 O4 1_555 1_555
H2 O4 1_555 1_555
O5 Na1 1_555 1_555
H3 C1 1_555 1_555
H4 O5 1_555 1_555
H6 O5 1_555 1_555
O6 C3 1_555 1_555
O7 Na1 1_555 1_555
H7 O4 1_555 1_555
H8 O4 1_555 1_555
Co1_2 O2E 1_555 1_555
Co1_3 O2A 1_555 1_555
Co1_4 O2D 1_555 1_555
O1A Co1 1_555 1_555
O2E C3E 1_555 1_555
O2A C3A 1_555 1_555
O2D C3D 1_555 1_555
O2A_2 Co1 1_555 1_555
O2E_2 Co1 1_555 1_555
O2D_2 Co1 1_555 1_555
C1A C2D 1_555 1_555
C2E C1 1_555 1_555
C2D C2E 1_555 1_555
C2A C2 1_555 1_555
C3E C2E 1_555 1_555
C3A C2A 1_555 1_555
C3D C2D 1_555 1_555
Na1E Na1C_2 1_555 1_555
Na1A Na1G 1_555 1_555
Na1D Na1B 1_555 1_555
Na1F Na1 1_555 1_555
Na1C O5 1_555 1_555
Na1E_2 O5 1_555 1_555
Na1C_2 O3E 1_555 1_555
Na1G O3A 1_555 1_555
Na1B O3D 1_555 1_555
O3E C3E 1_555 1_555
O3A C3A 1_555 1_555
O3D C3D 1_555 1_555
O3F Na1 1_555 1_555
O3C Na1E 1_555 1_555
O3G Na1A 1_555 1_555
O3B Na1D 1_555 1_555
O4F Na1 1_555 1_555
O4E Na1E 1_555 1_555
O4C Na1E 1_555 1_555
O4A Na1A 1_555 1_555
O4G Na1A 1_555 1_555
O4D Na1D 1_555 1_555
O4B Na1D 1_555 1_555
H1F O4F 1_555 1_555
H1E O4E 1_555 1_555
H1C O4C 1_555 1_555
H1A O4A 1_555 1_555
H1G O4G 1_555 1_555
H1D O4D 1_555 1_555
H1B O4B 1_555 1_555
H2F O4F 1_555 1_555
H2E O4E 1_555 1_555
H2C O4C 1_555 1_555
H2A O4A 1_555 1_555
H2G O4G 1_555 1_555
H2D O4D 1_555 1_555
H2B O4B 1_555 1_555
O5C Na1 1_555 1_555
O5_2 Na1E 1_555 1_555
O5A Na1A 1_555 1_555
O5B Na1A 1_555 1_555
O5A_2 Na1D 1_555 1_555
H3A C1A 1_555 1_555
H4C O5C 1_555 1_555
H4_2 O5_2 1_555 1_555
H4A O5A 1_555 1_555
H4B O5B 1_555 1_555
H4A_2 O5A_2 1_555 1_555
H5E O1 1_555 1_555
H5A O1A 1_555 1_555
H5D O1A 1_555 1_555
H6C O5C 1_555 1_555
H6_2 O5_2 1_555 1_555
H6A O5A 1_555 1_555
H6B O5B 1_555 1_555
H6A_2 O5A_2 1_555 1_555
O6E C3E 1_555 1_555
O6A C3A 1_555 1_555
O6D C3D 1_555 1_555
O6F Na1 1_555 1_555
O6C Na1E 1_555 1_555
O6G Na1A 1_555 1_555
O6B Na1D 1_555 1_555
O7F Na1 1_555 1_555
O7E Na1E 1_555 1_555
O7C Na1E 1_555 1_555
O7A Na1A 1_555 1_555
O7G Na1A 1_555 1_555
O7D Na1D 1_555 1_555
O7B Na1D 1_555 1_555
H7F O4F 1_555 1_555
H7E O4E 1_555 1_555
H7C O4C 1_555 1_555
H7A O4A 1_555 1_555
H7G O4G 1_555 1_555
H7D O4D 1_555 1_555
H7B O4B 1_555 1_555
H8F O4F 1_555 1_555
H8E O4E 1_555 1_555
H8C O4C 1_555 1_555
H8A O4A 1_555 1_555
H8G O4G 1_555 1_555
H8D O4D 1_555 1_555
H8B O4B 1_555 1_555
Na1 O6 1_555 1_555
O3 O6 1_555 1_555
O3 Na1F 1_555 1_555
O4 O7 1_555 1_555
O4 Na1F 1_555 1_555
H1 O7 1_555 1_555
H2 O7 1_555 1_555
O5 Na1F 1_555 1_555
O6 Na1F 1_555 1_555
O7 H7 1_555 1_555
O7 H8 1_555 1_555
O7 Na1F 1_555 1_555
C1A C2A 1_555 1_555
Na1E O3E 1_555 1_555
Na1E O5C 1_555 1_555
Na1E O6E 1_555 1_555
Na1A O3A 1_555 1_555
Na1A O6A 1_555 1_555
Na1D O3D 1_555 1_555
Na1D O5B 1_555 1_555
Na1D O6D 1_555 1_555
Na1F O3F 1_555 1_555
Na1F O4F 1_555 1_555
Na1F O5C 1_555 1_555
Na1F O6F 1_555 1_555
Na1F O7F 1_555 1_555
Na1C Na1E_2 1_555 1_555
Na1C_2 O3C 1_555 1_555
Na1C_2 O4E 1_555 1_555
Na1C_2 O4C 1_555 1_555
Na1C_2 O5C 1_555 1_555
Na1C_2 O5_2 1_555 1_555
Na1C_2 O6E 1_555 1_555
Na1C_2 O6C 1_555 1_555
Na1C_2 O7E 1_555 1_555
Na1C_2 O7C 1_555 1_555
Na1G O3G 1_555 1_555
Na1G O4A 1_555 1_555
Na1G O4G 1_555 1_555
Na1G O5A 1_555 1_555
Na1G O5B 1_555 1_555
Na1G O6A 1_555 1_555
Na1G O6G 1_555 1_555
Na1G O7A 1_555 1_555
Na1G O7G 1_555 1_555
Na1B O3B 1_555 1_555
Na1B O4D 1_555 1_555
Na1B O4B 1_555 1_555
Na1B O5B 1_555 1_555
Na1B O5A_2 1_555 1_555
Na1B O6D 1_555 1_555
Na1B O6B 1_555 1_555
Na1B O7D 1_555 1_555
Na1B O7B 1_555 1_555
O3E O6E 1_555 1_555
O3A O6A 1_555 1_555
O3D O6D 1_555 1_555
O3F O6F 1_555 1_555
O3C O6C 1_555 1_555
O3G O6G 1_555 1_555
O3B O6B 1_555 1_555
O4F O7F 1_555 1_555
O4E O7E 1_555 1_555
O4C O7C 1_555 1_555
O4A O7A 1_555 1_555
O4G O7G 1_555 1_555
O4D O7D 1_555 1_555
O4B O7B 1_555 1_555
H1F O7F 1_555 1_555
H1E O7E 1_555 1_555
H1C O7C 1_555 1_555
H1A O7A 1_555 1_555
H1G O7G 1_555 1_555
H1D O7D 1_555 1_555
H1B O7B 1_555 1_555
H2F O7F 1_555 1_555
H2E O7E 1_555 1_555
H2C O7C 1_555 1_555
H2A O7A 1_555 1_555
H2G O7G 1_555 1_555
H2D O7D 1_555 1_555
H2B O7B 1_555 1_555
O7F H7F 1_555 1_555
O7F H8F 1_555 1_555
O7E H7E 1_555 1_555
O7E H8E 1_555 1_555
O7C H7C 1_555 1_555
O7C H8C 1_555 1_555
O7A H7A 1_555 1_555
O7A H8A 1_555 1_555
O7G H7G 1_555 1_555
O7G H8G 1_555 1_555
O7D H7D 1_555 1_555
O7D H8D 1_555 1_555
O7B H7B 1_555 1_555
O7B H8B 1_555 1_555

#END
