
#######################################################################
#
#                 Cambridge Crystallographic Data Centre
#                                CCDC 
#
#######################################################################
#
# If this CIF has been generated from an entry in the Cambridge 
# Structural Database, then it will include bibliographic, chemical, 
# crystal, experimental, refinement or atomic coordinate data resulting 
# from the CCDC's data processing and validation procedures.
#
#######################################################################

data_BORLAW01
_symmetry_cell_setting           monoclinic
_symmetry_space_group_name_H-M   'C 2/m'
_symmetry_Int_Tables_number      12
_space_group_name_Hall           '-C 2y'
loop_
_symmetry_equiv_pos_site_id
_symmetry_equiv_pos_as_xyz
1 x,y,z
2 -x,y,-z
3 1/2+x,1/2+y,z
4 1/2-x,1/2+y,-z
5 -x,-y,-z
6 x,-y,z
7 1/2-x,1/2-y,-z
8 1/2+x,1/2-y,z
_cell_length_a                   15.723(3)
_cell_length_b                   9.5571(19)
_cell_length_c                   6.1123(12)
_cell_angle_alpha                90
_cell_angle_beta                 92.83(3)
_cell_angle_gamma                90
_cell_volume                     917.352
loop_
_atom_site_label
_atom_site_type_symbol
_atom_site_fract_x
_atom_site_fract_y
_atom_site_fract_z
Co1 Co 0.0000 0.5000 0.0000
Na1 Na 0.2500 0.2500 0.5000
O1 O -0.00841(10) 0.33937(18) 0.2340(3)
O2 O 0.12842(11) 0.2770(2) 0.2679(3)
O3 O -0.13596(14) 0.5000 -0.0168(4)
H1 H -0.1425 0.4213 -0.0934
O4 O 0.2043(2) 0.5000 0.6021(5)
H2 H 0.1871 0.5000 0.7359
H3 H 0.1585 0.5000 0.5221
O5 O 0.17872(14) 0.1658(3) 0.8148(4)
H4 H 0.1282 0.2046 0.8104
H5 H 0.1636 0.0830 0.7873
C1 C 0.02631(13) 0.1265(2) 0.4108(3)
C2 C 0.0523(2) 0.0000 0.3258(5)
H6 H 0.0880 0.0000 0.2090
C3 C 0.05107(15) 0.2594(2) 0.2989(4)
Co1_2 Co 0.0000 0.5000 1.0000
Co1_3 Co 0.0000 -0.5000 1.0000
Co1_4 Co 0.0000 -0.5000 0.0000
Na1A Na -0.2500 0.2500 0.5000
Na1C Na 0.2500 0.7500 0.5000
Na1B Na -0.2500 -0.2500 0.5000
Na1C_2 Na 0.2500 -0.2500 0.5000
O1A O 0.00841(10) 0.33937(18) 0.7660(3)
O1D O 0.00841(10) -0.33937(18) 0.7660(3)
O1E O -0.00841(10) -0.33937(18) 0.2340(3)
O1A_2 O 0.00841(10) 0.33937(18) -0.2340(3)
O1D_2 O 0.00841(10) 0.66063(18) -0.2340(3)
O1E_2 O -0.00841(10) 0.66063(18) 0.2340(3)
O2A O -0.12842(11) 0.2770(2) 0.7321(3)
O2D O -0.12842(11) -0.2770(2) 0.7321(3)
O2E O 0.12842(11) -0.2770(2) 0.2679(3)
O2F O 0.37158(11) 0.2230(2) 0.7321(3)
O2G O -0.37158(11) 0.2230(2) 0.2679(3)
O3A O 0.13596(14) 0.5000 0.0168(4)
H1E H -0.1425 0.5787 -0.0934
H1A H 0.1425 0.4213 0.0934
H1D H 0.1425 0.5787 0.0934
O4C O 0.2957(2) 0.0000 0.3979(5)
O4A O -0.2043(2) 0.5000 0.3979(5)
O4B O -0.2957(2) 0.0000 0.6021(5)
H2C H 0.3129 0.0000 0.2641
H2A H -0.1871 0.5000 0.2641
H2B H -0.3129 0.0000 0.7359
H3C H 0.3415 0.0000 0.4779
H3A H -0.1585 0.5000 0.4779
H3B H -0.3415 0.0000 0.5221
O5F O 0.32128(14) 0.3342(3) 0.1852(4)
O5A O -0.17872(14) 0.1658(3) 0.1852(4)
O5G O -0.32128(14) 0.3342(3) 0.8148(4)
H4F H 0.3718 0.2954 0.1896
H4A H -0.1282 0.2046 0.1896
H4G H -0.3718 0.2954 0.8104
H5F H 0.3364 0.4170 0.2127
H5A H -0.1636 0.0830 0.2127
H5G H -0.3364 0.4170 0.7873
C1A C -0.02631(13) 0.1265(2) 0.5892(3)
C1D C -0.02631(13) -0.1265(2) 0.5892(3)
C1E C 0.02631(13) -0.1265(2) 0.4108(3)
C2A C -0.0523(2) 0.0000 0.6742(5)
H6A H -0.0880 0.0000 0.7910
C3A C -0.05107(15) 0.2594(2) 0.7011(4)
C3D C -0.05107(15) -0.2594(2) 0.7011(4)
C3E C 0.05107(15) -0.2594(2) 0.2989(4)
loop_
_geom_bond_atom_site_label_1
_geom_bond_atom_site_label_2
_geom_bond_site_symmetry_1
_geom_bond_site_symmetry_2
Co1 O1 1_555 1_555
Na1 O2 1_555 1_555
O1 C3 1_555 1_555
O2 C3 1_555 1_555
O3 Co1 1_555 1_555
H1 O3 1_555 1_555
O4 Na1 1_555 1_555
H2 O4 1_555 1_555
H3 O4 1_555 1_555
O5 Na1 1_555 1_555
H4 O5 1_555 1_555
H5 O5 1_555 1_555
C1 C2 1_555 1_555
C2 H6 1_555 1_555
C3 C1 1_555 1_555
Co1_2 O1A 1_555 1_555
Co1_3 O1D 1_555 1_555
Co1_4 O1E 1_555 1_555
Na1A O2A 1_555 1_555
Na1C O4 1_555 1_555
Na1B O2D 1_555 1_555
Na1C_2 O2E 1_555 1_555
O1A C3A 1_555 1_555
O1D C3D 1_555 1_555
O1E C3E 1_555 1_555
O1A_2 Co1 1_555 1_555
O1D_2 Co1 1_555 1_555
O1E_2 Co1 1_555 1_555
O2A C3A 1_555 1_555
O2D C3D 1_555 1_555
O2E C3E 1_555 1_555
O2F Na1 1_555 1_555
O2G Na1A 1_555 1_555
O3A Co1 1_555 1_555
H1E O3 1_555 1_555
H1A O3A 1_555 1_555
H1D O3A 1_555 1_555
O4C Na1 1_555 1_555
O4A Na1A 1_555 1_555
O4B Na1A 1_555 1_555
H2C O4C 1_555 1_555
H2A O4A 1_555 1_555
H2B O4B 1_555 1_555
H3C O4C 1_555 1_555
H3A O4A 1_555 1_555
H3B O4B 1_555 1_555
O5F Na1 1_555 1_555
O5A Na1A 1_555 1_555
O5G Na1A 1_555 1_555
H4F O5F 1_555 1_555
H4A O5A 1_555 1_555
H4G O5G 1_555 1_555
H5F O5F 1_555 1_555
H5A O5A 1_555 1_555
H5G O5G 1_555 1_555
C1A C1 1_555 1_555
C1D C1E 1_555 1_555
C1E C2 1_555 1_555
C2A C1A 1_555 1_555
H6A C2A 1_555 1_555
C3A C1A 1_555 1_555
C3D C1D 1_555 1_555
C3E C1E 1_555 1_555
Na1B O4B 1_555 1_555
Na1C_2 O4C 1_555 1_555
C1D C2A 1_555 1_555

#END
