
#######################################################################
#
#                 Cambridge Crystallographic Data Centre
#                                CCDC 
#
#######################################################################
#
# If this CIF has been generated from an entry in the Cambridge 
# Structural Database, then it will include bibliographic, chemical, 
# crystal, experimental, refinement or atomic coordinate data resulting 
# from the CCDC's data processing and validation procedures.
#
#######################################################################

data_BORNAY
_symmetry_cell_setting           triclinic
_symmetry_space_group_name_H-M   'P -1'
_symmetry_Int_Tables_number      2
_space_group_name_Hall           '-P 1'
loop_
_symmetry_equiv_pos_site_id
_symmetry_equiv_pos_as_xyz
1 x,y,z
2 -x,-y,-z
_cell_length_a                   6.7522(4)
_cell_length_b                   7.7880(3)
_cell_length_c                   10.0091(4)
_cell_angle_alpha                83.827(3)
_cell_angle_beta                 75.925(4)
_cell_angle_gamma                66.539(4)
_cell_volume                     468.299
loop_
_atom_site_label
_atom_site_type_symbol
_atom_site_fract_x
_atom_site_fract_y
_atom_site_fract_z
C1 C 0.18633(16) 0.54887(14) 0.56006(10)
N1 N 0.13359(15) 0.38545(12) 0.76700(9)
N2 N 0.34400(14) 0.39914(12) 0.49252(9)
O1 O 0.28176(13) 0.01256(11) 0.57737(8)
O2 O 0.81450(13) 0.11801(11) 0.14579(8)
N3 N 0.36300(14) 0.45406(12) 0.35865(9)
N4 N 0.11805(15) 0.55968(12) 0.70311(9)
N5 N 0.29374(14) 0.20911(12) 1.07222(9)
N6 N 0.10618(14) 0.69280(12) 0.47674(9)
N7 N 0.37356(15) 0.33941(12) 1.04453(9)
N8 N 0.18496(14) 0.20959(12) 0.97430(9)
N9 N 0.22301(14) 0.62774(12) 0.34915(9)
N10 N 0.32254(14) 0.43168(12) 0.92662(8)
C2 C 0.20791(16) 0.34760(13) 0.88745(10)
Li1 Li 0.5688(3) 0.3678(3) 0.16741(19)
Li2 Li 0.4854(3) 0.1419(3) 0.57556(19)
O3 O 0.64178(14) 0.06549(12) 0.72059(8)
H1 H 0.021(2) 0.356(2) 0.7687(14)
H2 H -0.010(3) 0.641(2) 0.7296(15)
H3 H 0.689(3) 0.152(3) 0.7320(19)
H4 H 0.166(3) 0.086(3) 0.5534(18)
H5 H 0.916(3) 0.144(3) 0.0956(19)
H6 H 0.652(3) -0.014(3) 0.7905(18)
H7 H 0.801(3) 0.031(3) 0.1053(18)
H8 H 0.238(3) -0.036(2) 0.653(2)
O1A O 0.71824(13) -0.01256(11) 0.42263(8)
N7_2 N 0.37356(15) 0.33941(12) 0.04453(9)
N10A N 0.67746(14) 0.56832(12) 0.07338(8)
Li1_2 Li 0.5688(3) 0.3678(3) 1.16741(19)
Li1A Li 0.4312(3) 0.6322(3) 0.83259(19)
Li2A Li 0.5146(3) -0.1419(3) 0.42444(19)
H4A H 0.834(3) -0.086(3) 0.4466(18)
H8A H 0.762(3) 0.036(2) 0.347(2)
loop_
_geom_bond_atom_site_label_1
_geom_bond_atom_site_label_2
_geom_bond_site_symmetry_1
_geom_bond_site_symmetry_2
C1 N2 1_555 1_555
N1 N4 1_555 1_555
N2 N3 1_555 1_555
O1 Li2 1_555 1_555
O2 Li1 1_555 1_555
N3 N9 1_555 1_555
N4 C1 1_555 1_555
N5 N7 1_555 1_555
N6 C1 1_555 1_555
N7 N10 1_555 1_555
N8 N5 1_555 1_555
N9 N6 1_555 1_555
N10 C2 1_555 1_555
C2 N1 1_555 1_555
Li1 N3 1_555 1_555
Li2 N2 1_555 1_555
O3 Li2 1_555 1_555
H1 N1 1_555 1_555
H2 N4 1_555 1_555
H3 O3 1_555 1_555
H4 O1 1_555 1_555
H5 O2 1_555 1_555
H6 O3 1_555 1_555
H7 O2 1_555 1_555
H8 O1 1_555 1_555
O1A Li2 1_555 1_555
N7_2 Li1 1_555 1_555
N10A Li1 1_555 1_555
Li1_2 N7 1_555 1_555
Li1A N10 1_555 1_555
Li2A O1 1_555 1_555
H4A O1A 1_555 1_555
H8A O1A 1_555 1_555
N8 C2 1_555 1_555
O1A Li2A 1_555 1_555

#END
