
#######################################################################
#
#                 Cambridge Crystallographic Data Centre
#                                CCDC 
#
#######################################################################
#
# If this CIF has been generated from an entry in the Cambridge 
# Structural Database, then it will include bibliographic, chemical, 
# crystal, experimental, refinement or atomic coordinate data resulting 
# from the CCDC's data processing and validation procedures.
#
#######################################################################

data_BORYIR
_symmetry_cell_setting           orthorhombic
_symmetry_space_group_name_H-M   'P b c a'
_symmetry_Int_Tables_number      61
_space_group_name_Hall           '-P 2ac 2ab'
loop_
_symmetry_equiv_pos_site_id
_symmetry_equiv_pos_as_xyz
1 x,y,z
2 1/2-x,-y,1/2+z
3 -x,1/2+y,1/2-z
4 1/2+x,1/2-y,-z
5 -x,-y,-z
6 1/2+x,y,1/2-z
7 x,1/2-y,1/2+z
8 1/2-x,1/2+y,z
_cell_length_a                   14.4265(11)
_cell_length_b                   7.1950(5)
_cell_length_c                   42.890(2)
_cell_angle_alpha                90
_cell_angle_beta                 90
_cell_angle_gamma                90
_cell_volume                     4451.92
loop_
_atom_site_label
_atom_site_type_symbol
_atom_site_fract_x
_atom_site_fract_y
_atom_site_fract_z
V1 V 0.51222(3) 0.78191(7) 0.082324(12)
K1 K 0.62344(5) 1.26424(9) 0.033787(16)
O1 O 0.52649(15) 0.9757(3) 0.06383(5)
O2 O 0.54221(15) 0.6094(3) 0.05969(5)
O3 O 0.38066(13) 0.7460(3) 0.07800(5)
O4 O 0.63249(13) 0.7794(3) 0.10512(5)
O5 O 0.45665(18) 1.2517(4) 0.00404(7)
O6 O 0.7492(2) 1.5159(4) 0.06434(6)
O7 O 0.6616(2) 1.0350(4) -0.01680(7)
O8 O 0.65328(18) 1.4628(4) -0.02165(6)
N1 N 0.47866(16) 0.8143(3) 0.13018(6)
N2 N 0.55390(17) 0.8298(4) 0.15090(6)
C1 C 0.3053(2) 0.7780(4) 0.09529(7)
C2 C 0.2182(2) 0.7624(4) 0.08166(7)
H1 H 0.2133 0.7269 0.0604
C3 C 0.1389(2) 0.7976(4) 0.09857(8)
H2 H 0.0800 0.7877 0.0888
C4 C 0.1443(2) 0.8475(4) 0.12984(8)
H3 H 0.0895 0.8733 0.1414
C5 C 0.2294(2) 0.8591(4) 0.14387(7)
H4 H 0.2331 0.8913 0.1653
C6 C 0.3113(2) 0.8245(4) 0.12721(7)
C7 C 0.3983(2) 0.8344(4) 0.14299(7)
H5 H 0.3969 0.8577 0.1648
C8 C 0.6306(2) 0.8121(4) 0.13534(7)
C9 C 0.7199(2) 0.8299(4) 0.15176(7)
C10 C 0.7241(2) 0.8978(4) 0.18228(7)
H6 H 0.6688 0.9325 0.1928
C11 C 0.8085(2) 0.9143(4) 0.19710(7)
H7 H 0.8105 0.9646 0.2176
C12 C 0.8906(2) 0.8598(4) 0.18302(7)
C13 C 0.8863(2) 0.7936(4) 0.15258(7)
H8 H 0.9415 0.7561 0.1423
C14 C 0.8022(2) 0.7816(4) 0.13706(7)
H9 H 0.8008 0.7398 0.1161
C15 C 0.9805(2) 0.8651(5) 0.20001(7)
C16 C 1.0088(3) 1.0225(6) 0.21607(8)
H10 H 0.9709 1.1305 0.2164
C17 C 1.0944(3) 1.0206(8) 0.23190(9)
H11 H 1.1152 1.1284 0.2426
C18 C 1.1481(3) 0.8617(8) 0.23180(9)
H12 H 1.2053 0.8600 0.2428
C19 C 1.1199(3) 0.7085(7) 0.21620(9)
H13 H 1.1577 0.6004 0.2161
C20 C 1.0368(2) 0.7078(6) 0.20041(8)
H14 H 1.0177 0.5989 0.1897
H15 H 0.455(3) 1.270(5) -0.0137(9)
H16 H 0.620(2) 1.545(5) -0.0189(8)
H17 H 0.719(3) 1.013(6) -0.0192(10)
H18 H 0.712(3) 1.555(6) 0.0752(9)
H19 H 0.638(3) 1.413(5) -0.0391(9)
H20 H 0.420(3) 1.165(6) 0.0057(9)
H21 H 0.643(3) 1.090(7) -0.0305(10)
H22 H 0.785(3) 1.453(6) 0.0779(10)
K1_2 K 0.62344(5) 0.26424(9) 0.033787(16)
K1G K 0.87656(5) 1.76424(9) 0.033787(16)
O2_2 O 0.54221(15) 1.6094(3) 0.05969(5)
O6G O 0.7508(2) 1.0159(4) 0.06434(6)
H18G H 0.788(3) 1.055(6) 0.0752(9)
H22G H 0.715(3) 0.953(6) 0.0779(10)
loop_
_geom_bond_atom_site_label_1
_geom_bond_atom_site_label_2
_geom_bond_site_symmetry_1
_geom_bond_site_symmetry_2
V1 O1 1_555 1_555
K1 O1 1_555 1_555
O2 V1 1_555 1_555
O3 V1 1_555 1_555
O4 V1 1_555 1_555
O5 K1 1_555 1_555
O6 K1 1_555 1_555
O7 K1 1_555 1_555
O8 K1 1_555 1_555
N1 V1 1_555 1_555
N2 N1 1_555 1_555
C1 O3 1_555 1_555
C2 C1 1_555 1_555
H1 C2 1_555 1_555
C3 C2 1_555 1_555
H2 C3 1_555 1_555
C4 C3 1_555 1_555
H3 C4 1_555 1_555
C5 C4 1_555 1_555
H4 C5 1_555 1_555
C6 C1 1_555 1_555
C7 N1 1_555 1_555
H5 C7 1_555 1_555
C8 O4 1_555 1_555
C9 C8 1_555 1_555
C10 C9 1_555 1_555
H6 C10 1_555 1_555
C11 C10 1_555 1_555
H7 C11 1_555 1_555
C12 C11 1_555 1_555
C13 C12 1_555 1_555
H8 C13 1_555 1_555
C14 C9 1_555 1_555
H9 C14 1_555 1_555
C15 C12 1_555 1_555
C16 C15 1_555 1_555
H10 C16 1_555 1_555
C17 C16 1_555 1_555
H11 C17 1_555 1_555
C18 C17 1_555 1_555
H12 C18 1_555 1_555
C19 C18 1_555 1_555
H13 C19 1_555 1_555
C20 C15 1_555 1_555
H14 C20 1_555 1_555
H15 O5 1_555 1_555
H16 O8 1_555 1_555
H17 O7 1_555 1_555
H18 O6 1_555 1_555
H19 O8 1_555 1_555
H20 O5 1_555 1_555
H21 O7 1_555 1_555
H22 O6 1_555 1_555
K1_2 O2 1_555 1_555
K1G O6 1_555 1_555
O2_2 K1 1_555 1_555
O6G K1 1_555 1_555
H18G O6G 1_555 1_555
H22G O6G 1_555 1_555
N2 C8 1_555 1_555
C5 C6 1_555 1_555
C6 C7 1_555 1_555
C13 C14 1_555 1_555
C19 C20 1_555 1_555

#END
