
#######################################################################
#
#                 Cambridge Crystallographic Data Centre
#                                CCDC 
#
#######################################################################
#
# If this CIF has been generated from an entry in the Cambridge 
# Structural Database, then it will include bibliographic, chemical, 
# crystal, experimental, refinement or atomic coordinate data resulting 
# from the CCDC's data processing and validation procedures.
#
#######################################################################

data_BOSCET
_symmetry_cell_setting           monoclinic
_symmetry_space_group_name_H-M   'C 2/c'
_symmetry_Int_Tables_number      15
_space_group_name_Hall           '-C 2yn'
loop_
_symmetry_equiv_pos_site_id
_symmetry_equiv_pos_as_xyz
1 x,y,z
2 -x,y,1/2-z
3 1/2+x,1/2+y,z
4 1/2-x,1/2+y,1/2-z
5 -x,-y,-z
6 x,-y,1/2+z
7 1/2-x,1/2-y,-z
8 1/2+x,1/2-y,1/2+z
_cell_length_a                   25.769(2)
_cell_length_b                   9.7059(9)
_cell_length_c                   17.2986(16)
_cell_angle_alpha                90
_cell_angle_beta                 104.016(2)
_cell_angle_gamma                90
_cell_volume                     4197.77
loop_
_atom_site_label
_atom_site_type_symbol
_atom_site_fract_x
_atom_site_fract_y
_atom_site_fract_z
Ni1 Ni 0.27579(2) 0.70343(5) 0.15585(3)
Ni2 Ni 0.2500 0.2500 0.0000
P1 P 0.22237(4) 0.56847(11) -0.00583(6)
P2 P 0.22456(5) 0.48158(11) 0.23531(6)
O1 O 0.27408(11) 0.5803(3) 0.05830(16)
O2 O 0.20146(11) 0.4200(3) -0.01576(17)
O3 O 0.22639(12) 0.6229(3) -0.08647(16)
O4 O 0.27732(12) 0.5359(3) 0.22629(18)
O5 O 0.20594(14) 0.5605(3) 0.30383(18)
H1 H 0.2274 0.5423 0.3482
O6 O 0.22293(12) 0.3284(3) 0.24700(17)
O7 O -0.09729(15) 0.6346(5) 0.0809(3)
H2 H -0.1295 0.6305 0.0604
O8 O -0.09794(17) 0.7744(7) -0.0213(3)
O9 O 0.30389(14) 0.3236(3) 0.1007(2)
H3 H 0.3354 0.3199 0.0935
H4 H 0.2964 0.4035 0.1090
O10 O 0.20313(13) 0.1691(4) 0.0732(2)
H5 H 0.2195 0.1790 0.1218
H6 H 0.1982 0.0835 0.0639
N1 N 0.18635(14) 0.6702(3) 0.11773(19)
N2 N 0.35910(15) 0.6989(4) 0.1865(2)
C1 C 0.17417(16) 0.6723(4) 0.0294(2)
H7 H 0.1753 0.7665 0.0110
H8 H 0.1384 0.6366 0.0078
C2 C 0.17550(17) 0.5305(4) 0.1460(2)
H9 H 0.1757 0.4636 0.1044
H10 H 0.1402 0.5297 0.1567
C3 C 0.15632(17) 0.7802(5) 0.1495(3)
H11 H 0.1669 0.8690 0.1327
H12 H 0.1670 0.7777 0.2072
C4 C 0.09592(19) 0.7695(5) 0.1237(3)
C5 C 0.0666(2) 0.6989(6) 0.1695(3)
H13 H 0.0843 0.6623 0.2185
C6 C 0.0121(2) 0.6828(6) 0.1432(3)
H14 H -0.0063 0.6346 0.1746
C7 C -0.0156(2) 0.7376(6) 0.0711(3)
C8 C 0.0129(2) 0.8126(6) 0.0270(3)
H15 H -0.0052 0.8533 -0.0206
C9 C 0.0675(2) 0.8289(6) 0.0524(3)
H16 H 0.0856 0.8798 0.0217
C10 C -0.0743(2) 0.7179(7) 0.0388(4)
C11 C 0.3885(2) 0.8113(7) 0.1819(5)
H17 H 0.3708 0.8917 0.1611
C12 C 0.4438(2) 0.8126(7) 0.2060(5)
H18 H 0.4627 0.8926 0.2013
C13 C 0.4704(2) 0.6953(6) 0.2363(4)
C14 C 0.4409(3) 0.5832(8) 0.2418(5)
H19 H 0.4574 0.5013 0.2621
C15 C 0.3855(3) 0.5899(7) 0.2157(5)
H20 H 0.3661 0.5107 0.2200
N2A N 0.64090(15) 0.6989(4) 0.3135(2)
C11A C 0.6115(2) 0.8113(7) 0.3181(5)
H17A H 0.6292 0.8917 0.3389
C12A C 0.5562(2) 0.8126(7) 0.2940(5)
H18A H 0.5373 0.8926 0.2987
C13A C 0.5296(2) 0.6953(6) 0.2637(4)
C14A C 0.5591(3) 0.5832(8) 0.2582(5)
H19A H 0.5426 0.5013 0.2379
C15A C 0.6145(3) 0.5899(7) 0.2843(5)
H20A H 0.6339 0.5107 0.2800
Ni1A Ni 0.72421(2) 0.70343(5) 0.34415(3)
P1A P 0.77763(4) 0.56847(11) 0.50583(6)
P2A P 0.77544(5) 0.48158(11) 0.26469(6)
O1A O 0.72592(11) 0.5803(3) 0.44170(16)
O2A O 0.79854(11) 0.4200(3) 0.51576(17)
O3A O 0.77361(12) 0.6229(3) 0.58647(16)
O4A O 0.72268(12) 0.5359(3) 0.27371(18)
O5A O 0.79406(14) 0.5605(3) 0.19617(18)
H1A H 0.7726 0.5423 0.1518
O6A O 0.77707(12) 0.3284(3) 0.25300(17)
O7A O 1.09729(15) 0.6346(5) 0.4191(3)
H2A H 1.1295 0.6305 0.4396
O8A O 1.09794(17) 0.7744(7) 0.5213(3)
N1A N 0.81365(14) 0.6702(3) 0.38227(19)
C1A C 0.82583(16) 0.6723(4) 0.4706(2)
H7A H 0.8247 0.7665 0.4890
H8A H 0.8616 0.6366 0.4922
C2A C 0.82450(17) 0.5305(4) 0.3540(2)
H9A H 0.8243 0.4636 0.3956
H10A H 0.8598 0.5297 0.3433
C3A C 0.84368(17) 0.7802(5) 0.3505(3)
H11A H 0.8331 0.8690 0.3673
H12A H 0.8330 0.7777 0.2928
C4A C 0.90408(19) 0.7695(5) 0.3763(3)
C5A C 0.9334(2) 0.6989(6) 0.3305(3)
H13A H 0.9157 0.6623 0.2815
C6A C 0.9879(2) 0.6828(6) 0.3568(3)
H14A H 1.0063 0.6346 0.3254
C7A C 1.0156(2) 0.7376(6) 0.4289(3)
C8A C 0.9871(2) 0.8126(6) 0.4730(3)
H15A H 1.0052 0.8533 0.5206
C9A C 0.9325(2) 0.8289(6) 0.4476(3)
H16A H 0.9144 0.8798 0.4783
C10A C 1.0743(2) 0.7179(7) 0.4612(4)
O9F O 0.19611(14) 0.1764(3) -0.1007(2)
H3F H 0.1646 0.1801 -0.0935
H4F H 0.2036 0.0965 -0.1090
O10F O 0.29687(13) 0.3309(4) -0.0732(2)
H5F H 0.2805 0.3210 -0.1218
H6F H 0.3018 0.4165 -0.0639
Ni1B Ni 0.77579(2) 0.20343(5) 0.15585(3)
Ni1C Ni 0.22421(2) 0.20343(5) 0.34415(3)
Ni1F Ni 0.22421(2) 0.79657(5) -0.15585(3)
Ni1G Ni 0.77579(2) 0.79657(5) 0.65585(3)
Ni2A Ni 0.7500 0.2500 0.5000
O2F O 0.29854(11) 0.0800(3) 0.01576(17)
O3F O 0.27361(12) 0.8771(3) 0.08647(16)
O3G O 0.72639(12) 0.8771(3) 0.41353(16)
O6B O 0.72293(12) 0.8284(3) 0.24700(17)
O6C O 0.27707(12) 0.8284(3) 0.25300(17)
loop_
_geom_bond_atom_site_label_1
_geom_bond_atom_site_label_2
_geom_bond_site_symmetry_1
_geom_bond_site_symmetry_2
Ni1 O1 1_555 1_555
Ni2 O2 1_555 1_555
P1 O1 1_555 1_555
P2 O4 1_555 1_555
O2 P1 1_555 1_555
O3 P1 1_555 1_555
O4 Ni1 1_555 1_555
O5 P2 1_555 1_555
H1 O5 1_555 1_555
O6 P2 1_555 1_555
O7 H2 1_555 1_555
O8 C10 1_555 1_555
O9 Ni2 1_555 1_555
H3 O9 1_555 1_555
H4 O9 1_555 1_555
O10 Ni2 1_555 1_555
H5 O10 1_555 1_555
H6 O10 1_555 1_555
N1 Ni1 1_555 1_555
N2 Ni1 1_555 1_555
C1 P1 1_555 1_555
H7 C1 1_555 1_555
H8 C1 1_555 1_555
C2 P2 1_555 1_555
H9 C2 1_555 1_555
H10 C2 1_555 1_555
C3 N1 1_555 1_555
H11 C3 1_555 1_555
H12 C3 1_555 1_555
C4 C3 1_555 1_555
C5 C4 1_555 1_555
H13 C5 1_555 1_555
C6 C5 1_555 1_555
H14 C6 1_555 1_555
C7 C6 1_555 1_555
C8 C7 1_555 1_555
H15 C8 1_555 1_555
C9 C4 1_555 1_555
H16 C9 1_555 1_555
C10 O7 1_555 1_555
C11 N2 1_555 1_555
H17 C11 1_555 1_555
C12 C11 1_555 1_555
H18 C12 1_555 1_555
C13 C12 1_555 1_555
C14 C13 1_555 1_555
H19 C14 1_555 1_555
C15 N2 1_555 1_555
H20 C15 1_555 1_555
N2A C11A 1_555 1_555
C11A H17A 1_555 1_555
C12A C11A 1_555 1_555
H18A C12A 1_555 1_555
C13A C13 1_555 1_555
C14A C13A 1_555 1_555
H19A C14A 1_555 1_555
C15A N2A 1_555 1_555
H20A C15A 1_555 1_555
Ni1A N2A 1_555 1_555
P1A O1A 1_555 1_555
P2A O4A 1_555 1_555
O1A Ni1A 1_555 1_555
O2A P1A 1_555 1_555
O3A P1A 1_555 1_555
O4A Ni1A 1_555 1_555
O5A P2A 1_555 1_555
H1A O5A 1_555 1_555
O6A P2A 1_555 1_555
O7A H2A 1_555 1_555
O8A C10A 1_555 1_555
N1A Ni1A 1_555 1_555
C1A P1A 1_555 1_555
H7A C1A 1_555 1_555
H8A C1A 1_555 1_555
C2A P2A 1_555 1_555
H9A C2A 1_555 1_555
H10A C2A 1_555 1_555
C3A N1A 1_555 1_555
H11A C3A 1_555 1_555
H12A C3A 1_555 1_555
C4A C3A 1_555 1_555
C5A C4A 1_555 1_555
H13A C5A 1_555 1_555
C6A C5A 1_555 1_555
H14A C6A 1_555 1_555
C7A C6A 1_555 1_555
C8A C7A 1_555 1_555
H15A C8A 1_555 1_555
C9A C4A 1_555 1_555
H16A C9A 1_555 1_555
C10A O7A 1_555 1_555
O9F Ni2 1_555 1_555
H3F O9F 1_555 1_555
H4F O9F 1_555 1_555
O10F Ni2 1_555 1_555
H5F O10F 1_555 1_555
H6F O10F 1_555 1_555
Ni1B O6A 1_555 1_555
Ni1C O6 1_555 1_555
Ni1F O3 1_555 1_555
Ni1G O3A 1_555 1_555
Ni2A O2A 1_555 1_555
O2F Ni2 1_555 1_555
O3F Ni1 1_555 1_555
O3G Ni1A 1_555 1_555
O6B Ni1A 1_555 1_555
O6C Ni1 1_555 1_555
N1 C1 1_555 1_555
N1 C2 1_555 1_555
C7 C10 1_555 1_555
C8 C9 1_555 1_555
C14 C15 1_555 1_555
C12A C13A 1_555 1_555
C14A C15A 1_555 1_555
N1A C1A 1_555 1_555
N1A C2A 1_555 1_555
C7A C10A 1_555 1_555
C8A C9A 1_555 1_555

#END
