
#######################################################################
#
#                 Cambridge Crystallographic Data Centre
#                                CCDC 
#
#######################################################################
#
# If this CIF has been generated from an entry in the Cambridge 
# Structural Database, then it will include bibliographic, chemical, 
# crystal, experimental, refinement or atomic coordinate data resulting 
# from the CCDC's data processing and validation procedures.
#
#######################################################################

data_BOSDAQ
_symmetry_cell_setting           triclinic
_symmetry_space_group_name_H-M   'P -1'
_symmetry_Int_Tables_number      2
_space_group_name_Hall           '-P 1'
loop_
_symmetry_equiv_pos_site_id
_symmetry_equiv_pos_as_xyz
1 x,y,z
2 -x,-y,-z
_cell_length_a                   9.2897(10)
_cell_length_b                   11.5182(13)
_cell_length_c                   13.7146(15)
_cell_angle_alpha                107.747(2)
_cell_angle_beta                 90.548(2)
_cell_angle_gamma                93.464(2)
_cell_volume                     1394.48
loop_
_atom_site_label
_atom_site_type_symbol
_atom_site_fract_x
_atom_site_fract_y
_atom_site_fract_z
Y1 Y 0.26945(2) -0.01146(2) 0.008392(18)
C1 C 0.0307(2) 0.1622(2) 0.14773(18)
C2 C -0.1416(3) 0.3014(2) 0.25719(19)
H1 H -0.2177 0.2460 0.2260
C3 C 0.5360(2) 0.2325(2) 0.04928(19)
C4 C 0.0000(2) 0.2761(2) 0.23137(19)
C5 C 0.4892(3) 0.3611(2) 0.08403(18)
C6 C 0.3433(3) 0.3823(2) 0.0825(2)
H2 H 0.2737 0.3176 0.0611
C7 C -0.1669(3) 0.4100(2) 0.3297(2)
C8 C 0.0799(3) 0.4692(2) 0.3487(2)
C9 C 0.1122(3) 0.3597(2) 0.27902(19)
H3 H 0.2075 0.3424 0.2644
C10 C -0.0586(3) 0.4971(2) 0.3760(2)
H4 H -0.0783 0.5711 0.4233
C11 C 0.5917(3) 0.4586(2) 0.11701(19)
H5 H 0.6894 0.4452 0.1176
C12 C 0.5458(3) 0.5759(2) 0.14900(19)
C13 C 0.3044(3) 0.5019(2) 0.1137(2)
C14 C 0.4028(3) 0.6006(2) 0.1484(2)
H6 H 0.3741 0.6802 0.1703
C15 C 0.4781(3) -0.0337(2) -0.19717(19)
C16 C 0.4855(3) -0.0792(2) -0.31185(19)
C17 C 0.6157(3) -0.1206(2) -0.3543(2)
H7 H 0.6954 -0.1187 -0.3122
C18 C 0.3683(3) -0.0812(2) -0.3756(2)
H8 H 0.2807 -0.0538 -0.3486
C19 C 0.3841(3) -0.1247(2) -0.4805(2)
C20 C 0.6250(3) -0.1644(2) -0.4593(2)
C21 C 0.5104(3) -0.1676(2) -0.5252(2)
H9 H 0.5181 -0.1972 -0.5959
N1 N -0.3181(3) 0.4350(2) 0.3592(2)
N2 N 0.1982(3) 0.5610(2) 0.39462(19)
N3 N 0.1497(2) 0.5243(2) 0.1099(2)
N4 N 0.6558(3) 0.6792(2) 0.18125(19)
N5 N 0.2628(3) -0.1209(2) -0.54961(19)
N6 N 0.7641(3) -0.2063(2) -0.5034(2)
O1 O -0.07172(17) 0.10738(16) 0.08914(14)
O2 O 0.15858(17) 0.13140(16) 0.14006(14)
O3 O 0.3162(2) 0.5480(2) 0.35556(19)
O4 O -0.4133(2) 0.3595(2) 0.31567(19)
O5 O 0.1711(2) 0.6467(2) 0.46931(17)
O6 O 0.17128(19) 0.13434(17) -0.06625(15)
O7 O 0.66838(17) 0.21805(15) 0.03791(14)
O8 O 0.44131(18) 0.14639(16) 0.03488(14)
O9 O 0.12591(19) -0.12707(18) 0.10561(16)
O10 O -0.3371(3) 0.5286(2) 0.4270(2)
O11 O 0.35810(17) -0.04434(16) -0.15861(13)
O12 O 0.0630(2) 0.4370(2) 0.0800(2)
O13 O 0.7815(2) 0.6565(2) 0.17977(19)
O14 O 0.6144(2) 0.78262(18) 0.20659(19)
O15 O 0.1182(2) 0.6305(2) 0.1381(2)
O16 O 0.1564(2) -0.0703(2) -0.51155(18)
O17 O 0.8587(3) -0.2175(3) -0.44586(19)
O18 O 0.2766(3) -0.1657(2) -0.64136(17)
O19 O 0.7771(3) -0.2284(3) -0.59474(18)
O20 O 0.59503(17) 0.00985(17) -0.14977(13)
H10 H 0.075(2) 0.144(3) -0.070(3)
H11 H 0.157(4) -0.2034(19) 0.095(3)
H12 H 0.212(3) 0.131(4) -0.1283(19)
H13 H 0.109(5) -0.094(3) 0.1765(16)
Y1A Y -0.26945(2) 0.01146(2) -0.008392(18)
Y1A_2 Y 0.73055(2) 0.01146(2) -0.008392(18)
O1A O 0.07172(17) -0.10738(16) -0.08914(14)
O7A O 0.33162(17) -0.21805(15) -0.03791(14)
O20A O 0.40497(17) -0.00985(17) 0.14977(13)
O21 O -0.0193(4) -0.0661(5) 0.2890(3)
H14 H 0.034(3) 0.006(2) 0.309(2)
H15 H -0.024(11) -0.097(7) 0.347(4)
loop_
_geom_bond_atom_site_label_1
_geom_bond_atom_site_label_2
_geom_bond_site_symmetry_1
_geom_bond_site_symmetry_2
Y1 O2 1_555 1_555
C1 C4 1_555 1_555
C2 H1 1_555 1_555
C3 C5 1_555 1_555
C4 C2 1_555 1_555
C5 C6 1_555 1_555
C6 H2 1_555 1_555
C7 C2 1_555 1_555
C8 C9 1_555 1_555
C9 C4 1_555 1_555
H3 C9 1_555 1_555
C10 C7 1_555 1_555
H4 C10 1_555 1_555
C11 C5 1_555 1_555
H5 C11 1_555 1_555
C12 C11 1_555 1_555
C13 C6 1_555 1_555
C14 C12 1_555 1_555
H6 C14 1_555 1_555
C15 C16 1_555 1_555
C16 C17 1_555 1_555
C17 H7 1_555 1_555
C18 C16 1_555 1_555
H8 C18 1_555 1_555
C19 C18 1_555 1_555
C20 C17 1_555 1_555
C21 C19 1_555 1_555
H9 C21 1_555 1_555
N1 C7 1_555 1_555
N2 C8 1_555 1_555
N3 C13 1_555 1_555
N4 C12 1_555 1_555
N5 C19 1_555 1_555
N6 C20 1_555 1_555
O1 C1 1_555 1_555
O2 C1 1_555 1_555
O3 N2 1_555 1_555
O4 N1 1_555 1_555
O5 N2 1_555 1_555
O6 Y1 1_555 1_555
O7 C3 1_555 1_555
O8 Y1 1_555 1_555
O9 Y1 1_555 1_555
O10 N1 1_555 1_555
O11 Y1 1_555 1_555
O12 N3 1_555 1_555
O13 N4 1_555 1_555
O14 N4 1_555 1_555
O15 N3 1_555 1_555
O16 N5 1_555 1_555
O17 N6 1_555 1_555
O18 N5 1_555 1_555
O19 N6 1_555 1_555
O20 C15 1_555 1_555
H10 O6 1_555 1_555
H11 O9 1_555 1_555
H12 O6 1_555 1_555
H13 O9 1_555 1_555
O21 H14 1_555 1_555
H15 O21 1_555 1_555
Y1A O1 1_555 1_555
Y1A_2 O7 1_555 1_555
O1A Y1 1_555 1_555
O7A Y1 1_555 1_555
O20A Y1 1_555 1_555
C3 O8 1_555 1_555
C8 C10 1_555 1_555
C13 C14 1_555 1_555
C15 O11 1_555 1_555
C20 C21 1_555 1_555
O20 Y1A_2 1_555 1_555

#END
