
#######################################################################
#
#                 Cambridge Crystallographic Data Centre
#                                CCDC 
#
#######################################################################
#
# If this CIF has been generated from an entry in the Cambridge 
# Structural Database, then it will include bibliographic, chemical, 
# crystal, experimental, refinement or atomic coordinate data resulting 
# from the CCDC's data processing and validation procedures.
#
#######################################################################

data_BOSGUM
_symmetry_cell_setting           orthorhombic
_symmetry_space_group_name_H-M   'P b c n'
_symmetry_Int_Tables_number      60
_space_group_name_Hall           '-P 2n 2ab'
loop_
_symmetry_equiv_pos_site_id
_symmetry_equiv_pos_as_xyz
1 x,y,z
2 1/2-x,1/2-y,1/2+z
3 1/2+x,1/2-y,-z
4 -x,y,1/2-z
5 -x,-y,-z
6 1/2+x,1/2+y,1/2-z
7 1/2-x,1/2+y,z
8 x,-y,1/2+z
_cell_length_a                   20.8342(6)
_cell_length_b                   9.6153(3)
_cell_length_c                   6.2901(2)
_cell_angle_alpha                90
_cell_angle_beta                 90
_cell_angle_gamma                90
_cell_volume                     1260.08
loop_
_atom_site_label
_atom_site_type_symbol
_atom_site_fract_x
_atom_site_fract_y
_atom_site_fract_z
Sr1 Sr 1.0000 -0.32112(4) 0.2500
O1 O 0.93991(17) -0.2264(3) 0.5840(5)
O2 O 0.87199(12) -0.2385(2) 0.1394(4)
O3 O 0.94383(13) -0.5544(3) 0.3970(5)
O4 O 0.94313(11) -0.0750(3) 0.1235(4)
N1 N 0.84251(13) -0.0130(3) 0.0897(5)
N2 N 0.68737(14) -0.1625(3) 0.0723(5)
N3 N 0.67739(14) -0.0294(3) 0.0642(5)
N4 N 0.73340(13) 0.0408(3) 0.0715(5)
N5 N 0.75127(15) -0.1797(3) 0.0847(5)
N6 N 0.88507(14) -0.1119(3) 0.1165(5)
C1 C 0.77944(16) -0.0549(3) 0.0844(6)
H1 H 0.954(2) -0.137(5) 0.602(7)
H2 H 0.909(2) -0.545(5) 0.453(8)
H3 H 0.910(2) -0.232(5) 0.579(8)
H4 H 0.9393(19) -0.616(5) 0.320(7)
H5 H 0.7636(19) -0.255(4) 0.099(7)
Sr1D Sr 1.0000 -0.67888(4) 0.7500
Sr1D_2 Sr 1.0000 -0.67888(4) -0.2500
O1C O 1.06009(17) -0.2264(3) -0.0840(5)
O2C O 1.12801(12) -0.2385(2) 0.3606(4)
O3C O 1.05617(13) -0.5544(3) 0.1030(5)
O3D O 1.05617(13) -0.4456(3) 0.6030(5)
O3G O 0.94383(13) -0.4456(3) -0.1030(5)
O4C O 1.05687(11) -0.0750(3) 0.3765(4)
N1C N 1.15749(13) -0.0130(3) 0.4103(5)
N2C N 1.31263(14) -0.1625(3) 0.4277(5)
N3C N 1.32261(14) -0.0294(3) 0.4358(5)
N4C N 1.26660(13) 0.0408(3) 0.4285(5)
N5C N 1.24873(15) -0.1797(3) 0.4153(5)
N6C N 1.11493(14) -0.1119(3) 0.3835(5)
C1C C 1.22056(16) -0.0549(3) 0.4156(6)
H1C H 1.046(2) -0.137(5) -0.102(7)
H2C H 1.091(2) -0.545(5) 0.047(8)
H2D H 1.091(2) -0.455(5) 0.547(8)
H2G H 0.909(2) -0.455(5) -0.047(8)
H3C H 1.090(2) -0.232(5) -0.079(8)
H4C H 1.0607(19) -0.616(5) 0.180(7)
H4D H 1.0607(19) -0.384(5) 0.680(7)
H4G H 0.9393(19) -0.384(5) -0.180(7)
H5C H 1.2364(19) -0.255(4) 0.401(7)
loop_
_geom_bond_atom_site_label_1
_geom_bond_atom_site_label_2
_geom_bond_site_symmetry_1
_geom_bond_site_symmetry_2
Sr1 O1 1_555 1_555
O1 H1 1_555 1_555
O2 Sr1 1_555 1_555
O3 Sr1 1_555 1_555
O4 Sr1 1_555 1_555
N1 N6 1_555 1_555
N2 N3 1_555 1_555
N3 N4 1_555 1_555
N4 C1 1_555 1_555
N5 N2 1_555 1_555
N6 O2 1_555 1_555
C1 N1 1_555 1_555
H2 O3 1_555 1_555
H3 O1 1_555 1_555
H4 O3 1_555 1_555
H5 N5 1_555 1_555
Sr1D O3 1_555 1_555
Sr1D_2 O3C 1_555 1_555
O1C Sr1 1_555 1_555
O2C Sr1 1_555 1_555
O3C Sr1 1_555 1_555
O3D Sr1 1_555 1_555
O3G Sr1 1_555 1_555
O4C Sr1 1_555 1_555
N1C N6C 1_555 1_555
N2C N3C 1_555 1_555
N3C N4C 1_555 1_555
N4C C1C 1_555 1_555
N5C N2C 1_555 1_555
N6C O2C 1_555 1_555
C1C N1C 1_555 1_555
H1C O1C 1_555 1_555
H2C O3C 1_555 1_555
H2D O3D 1_555 1_555
H2G O3G 1_555 1_555
H3C O1C 1_555 1_555
H4C O3C 1_555 1_555
H4D O3D 1_555 1_555
H4G O3G 1_555 1_555
H5C N5C 1_555 1_555
O4 N6 1_555 1_555
N5 C1 1_555 1_555
Sr1D O3D 1_555 1_555
Sr1D_2 O3G 1_555 1_555
O4C N6C 1_555 1_555
N5C C1C 1_555 1_555

#END
