
#######################################################################
#
#                 Cambridge Crystallographic Data Centre
#                                CCDC 
#
#######################################################################
#
# If this CIF has been generated from an entry in the Cambridge 
# Structural Database, then it will include bibliographic, chemical, 
# crystal, experimental, refinement or atomic coordinate data resulting 
# from the CCDC's data processing and validation procedures.
#
#######################################################################

data_BOSGIA
_symmetry_cell_setting           orthorhombic
_symmetry_space_group_name_H-M   'F d d 2'
_symmetry_Int_Tables_number      43
_space_group_name_Hall           'F 2 -2d'
loop_
_symmetry_equiv_pos_site_id
_symmetry_equiv_pos_as_xyz
1 x,y,z
2 -x,-y,z
3 1/4+x,1/4-y,1/4+z
4 1/4-x,1/4+y,1/4+z
5 x,1/2+y,1/2+z
6 -x,1/2-y,1/2+z
7 1/4+x,3/4-y,3/4+z
8 1/4-x,3/4+y,3/4+z
9 1/2+x,y,1/2+z
10 1/2-x,-y,1/2+z
11 3/4+x,1/4-y,3/4+z
12 3/4-x,1/4+y,3/4+z
13 1/2+x,1/2+y,z
14 1/2-x,1/2-y,z
15 3/4+x,3/4-y,1/4+z
16 3/4-x,3/4+y,1/4+z
_cell_length_a                   16.3396(4)
_cell_length_b                   25.9703(6)
_cell_length_c                   6.5045(2)
_cell_angle_alpha                90
_cell_angle_beta                 90
_cell_angle_gamma                90
_cell_volume                     2760.15
loop_
_atom_site_label
_atom_site_type_symbol
_atom_site_fract_x
_atom_site_fract_y
_atom_site_fract_z
N1 N 0.31644(14) 0.07354(10) -0.0507(4)
N2 N 0.28588(14) -0.02038(9) -0.0272(4)
C1 C 0.26646(16) 0.02964(11) -0.0438(4)
N3 N 0.15384(15) -0.01061(10) -0.0496(4)
N4 N 0.21280(16) -0.04468(10) -0.0332(4)
N5 N 0.18549(14) 0.03698(10) -0.0588(4)
O1 O -0.00656(14) 0.06545(9) -0.0696(3)
O2 O 0.43137(12) 0.02636(8) 0.0139(3)
N6 N 0.39362(14) 0.06790(9) -0.0221(4)
O3 O 0.43705(12) 0.10929(8) -0.0314(4)
O4 O 0.09416(14) 0.10446(8) -0.7505(3)
H1 H 0.1452(11) 0.1032(18) -0.802(7)
H2 H 0.075(2) 0.1369(5) -0.759(6)
H3 H 0.008(3) 0.062(2) 0.063(3)
H4 H -0.0487(17) 0.0432(13) -0.069(6)
Sr1 Sr 0.080840(15) 0.069690(10) -0.38703(4)
N1J N 0.06644(14) 0.17646(10) -0.3007(4)
N2I N 0.21412(14) 0.02038(9) -0.5272(4)
O2I O 0.06863(12) -0.02636(8) -0.4861(3)
O2H O -0.06863(12) 0.02636(8) -0.4861(3)
O3H O -0.06295(12) 0.10929(8) -0.5314(4)
O3J O 0.18705(12) 0.14071(8) -0.2814(4)
Sr1B Sr 0.330840(15) 0.180310(10) -0.13703(4)
Sr1I Sr 0.419160(15) -0.069690(10) 0.11297(4)
Sr1H Sr 0.580840(15) 0.069690(10) 0.11297(4)
loop_
_geom_bond_atom_site_label_1
_geom_bond_atom_site_label_2
_geom_bond_site_symmetry_1
_geom_bond_site_symmetry_2
N1 C1 1_555 1_555
N2 C1 1_555 1_555
C1 N5 1_555 1_555
N3 N4 1_555 1_555
N4 N2 1_555 1_555
N5 N3 1_555 1_555
O1 H3 1_555 1_555
O2 N6 1_555 1_555
N6 N1 1_555 1_555
O3 N6 1_555 1_555
O4 H1 1_555 1_555
H2 O4 1_555 1_555
H4 O1 1_555 1_555
Sr1 N5 1_555 1_555
N1J Sr1 1_555 1_555
N2I Sr1 1_555 1_555
O2I Sr1 1_555 1_555
O2H Sr1 1_555 1_555
O3H Sr1 1_555 1_555
O3J Sr1 1_555 1_555
Sr1B N1 1_555 1_555
Sr1I N2 1_555 1_555
Sr1H O2 1_555 1_555
O1 Sr1 1_555 1_555
O2 Sr1I 1_555 1_555
O3 Sr1B 1_555 1_555
O3 Sr1H 1_555 1_555
O4 Sr1 1_555 1_555
O3J Sr1B 1_555 1_555

#END
