
#######################################################################
#
#                 Cambridge Crystallographic Data Centre
#                                CCDC 
#
#######################################################################
#
# If this CIF has been generated from an entry in the Cambridge 
# Structural Database, then it will include bibliographic, chemical, 
# crystal, experimental, refinement or atomic coordinate data resulting 
# from the CCDC's data processing and validation procedures.
#
#######################################################################

data_BOSGOG
_symmetry_cell_setting           monoclinic
_symmetry_space_group_name_H-M   'C 2/c'
_symmetry_Int_Tables_number      15
_space_group_name_Hall           '-C 2yn'
loop_
_symmetry_equiv_pos_site_id
_symmetry_equiv_pos_as_xyz
1 x,y,z
2 -x,y,1/2-z
3 1/2+x,1/2+y,z
4 1/2-x,1/2+y,1/2-z
5 -x,-y,-z
6 x,-y,1/2+z
7 1/2-x,1/2-y,-z
8 1/2+x,1/2-y,1/2+z
_cell_length_a                   20.5634(7)
_cell_length_b                   6.9792(2)
_cell_length_c                   8.3283(3)
_cell_angle_alpha                90
_cell_angle_beta                 95.949(3)
_cell_angle_gamma                90
_cell_volume                     1188.81
loop_
_atom_site_label
_atom_site_type_symbol
_atom_site_fract_x
_atom_site_fract_y
_atom_site_fract_z
Sr1 Sr 0.0000 0.10622(5) -0.2500
O1 O 0.0000 0.4762(4) -0.2500
O2 O -0.11928(7) -0.2331(2) -0.66487(17)
O3 O -0.04515(7) -0.1906(2) -0.46094(17)
N1 N -0.15181(9) -0.2538(3) -0.4238(2)
N2 N -0.17419(9) -0.3348(3) -0.1631(2)
N3 N -0.09759(9) -0.2059(3) -0.0114(2)
N4 N -0.15053(9) -0.3064(3) -0.0080(2)
N5 N -0.08572(9) -0.1663(3) -0.1661(2)
N6 N -0.10509(9) -0.2252(3) -0.5151(2)
C1 C -0.23312(12) -0.4487(4) -0.2063(3)
C2 C -0.13409(11) -0.2490(3) -0.2594(3)
H1 H -0.2339(13) -0.549(4) -0.128(3)
H2 H -0.2297(12) -0.512(4) -0.302(3)
H3 H -0.2725(15) -0.376(4) -0.210(3)
H4 H -0.0137(17) 0.545(5) -0.321(4)
Sr1D Sr 0.0000 -0.10622(5) -0.7500
Sr1D_2 Sr 0.0000 -0.10622(5) 0.2500
O2E O -0.11928(7) 0.2331(2) -0.16487(17)
O2D O 0.11928(7) 0.2331(2) -0.33513(17)
O2A O 0.11928(7) -0.2331(2) 0.16487(17)
O3A O 0.04515(7) -0.1906(2) -0.03906(17)
O3D O 0.04515(7) 0.1906(2) -0.53906(17)
O3E O -0.04515(7) 0.1906(2) 0.03906(17)
N1A N 0.15181(9) -0.2538(3) -0.0762(2)
N2A N 0.17419(9) -0.3348(3) -0.3369(2)
N3E N -0.09759(9) 0.2059(3) -0.5114(2)
N3D N 0.09759(9) 0.2059(3) 0.0114(2)
N3A N 0.09759(9) -0.2059(3) -0.4886(2)
N4A N 0.15053(9) -0.3064(3) -0.4920(2)
N5A N 0.08572(9) -0.1663(3) -0.3339(2)
N6A N 0.10509(9) -0.2252(3) 0.0151(2)
C1A C 0.23312(12) -0.4487(4) -0.2937(3)
C2A C 0.13409(11) -0.2490(3) -0.2406(3)
H1A H 0.2339(13) -0.549(4) -0.372(3)
H2A H 0.2297(12) -0.512(4) -0.198(3)
H3A H 0.2725(15) -0.376(4) -0.290(3)
H4A H 0.0137(17) 0.545(5) -0.179(4)
loop_
_geom_bond_atom_site_label_1
_geom_bond_atom_site_label_2
_geom_bond_site_symmetry_1
_geom_bond_site_symmetry_2
Sr1 O1 1_555 1_555
O1 H4 1_555 1_555
O2 N6 1_555 1_555
O3 Sr1 1_555 1_555
N1 N6 1_555 1_555
N2 N4 1_555 1_555
N3 N4 1_555 1_555
N5 Sr1 1_555 1_555
N6 O3 1_555 1_555
C1 N2 1_555 1_555
C2 N1 1_555 1_555
H1 C1 1_555 1_555
H2 C1 1_555 1_555
H3 C1 1_555 1_555
Sr1D O2 1_555 1_555
Sr1D_2 N3 1_555 1_555
O2E Sr1 1_555 1_555
O2D Sr1 1_555 1_555
O2A Sr1D_2 1_555 1_555
O3A Sr1 1_555 1_555
O3D Sr1 1_555 1_555
O3E Sr1 1_555 1_555
N1A N6A 1_555 1_555
N2A N4A 1_555 1_555
N3E Sr1 1_555 1_555
N3D Sr1 1_555 1_555
N3A Sr1D 1_555 1_555
N4A N3A 1_555 1_555
N5A Sr1 1_555 1_555
N6A O2A 1_555 1_555
C1A N2A 1_555 1_555
C2A N1A 1_555 1_555
H1A C1A 1_555 1_555
H2A C1A 1_555 1_555
H3A C1A 1_555 1_555
H4A O1 1_555 1_555
O3 Sr1D 1_555 1_555
N2 C2 1_555 1_555
N3 N5 1_555 1_555
N5 C2 1_555 1_555
Sr1D O3D 1_555 1_555
Sr1D_2 O3A 1_555 1_555
Sr1D_2 O3E 1_555 1_555
O3A N6A 1_555 1_555
N2A C2A 1_555 1_555
N3A N5A 1_555 1_555
N5A C2A 1_555 1_555

#END
