
#######################################################################
#
#                 Cambridge Crystallographic Data Centre
#                                CCDC 
#
#######################################################################
#
# If this CIF has been generated from an entry in the Cambridge 
# Structural Database, then it will include bibliographic, chemical, 
# crystal, experimental, refinement or atomic coordinate data resulting 
# from the CCDC's data processing and validation procedures.
#
#######################################################################

data_BOSHUN
_symmetry_cell_setting           tetragonal
_symmetry_space_group_name_H-M   'P 43 21 2'
_symmetry_Int_Tables_number      96
_space_group_name_Hall           'P 4nw 2abw'
loop_
_symmetry_equiv_pos_site_id
_symmetry_equiv_pos_as_xyz
1 x,y,z
2 -x,-y,1/2+z
3 1/2-y,1/2+x,3/4+z
4 1/2+y,1/2-x,1/4+z
5 1/2-x,1/2+y,3/4-z
6 1/2+x,1/2-y,1/4-z
7 y,x,-z
8 -y,-x,1/2-z
_cell_length_a                   7.9101(7)
_cell_length_b                   7.9101(7)
_cell_length_c                   17.457(2)
_cell_angle_alpha                90
_cell_angle_beta                 90
_cell_angle_gamma                90
_cell_volume                     1092.28
loop_
_atom_site_label
_atom_site_type_symbol
_atom_site_fract_x
_atom_site_fract_y
_atom_site_fract_z
Ni1 Ni 0.26216(9) 0.26216(9) 0.0000
N1 N 0.4455(7) 0.4455(7) 0.0000
N2 N 1.0777(6) 1.0777(6) 0.0000
N3 N 0.5242(9) 0.1789(10) 0.1208(3)
O1 O 0.3958(7) 0.1302(7) 0.0871(3)
O2 O 0.6090(6) 0.1006(7) 0.1717(3)
C1 C 0.4285(9) 0.5915(9) 0.0409(4)
H1 H 0.3314 0.6060 0.0702
C2 C 0.5459(9) 0.7166(10) 0.0409(4)
H2 H 0.5262 0.8157 0.0682
C3 C 0.6967(8) 0.6967(8) 0.0000
C4 C 0.8306(9) 0.8306(9) 0.0000
C5 C 0.9976(10) 0.7861(9) 0.0119(4)
H3 H 1.0286 0.6738 0.0193
C6 C 1.1148(9) 0.9111(9) 0.0123(4)
H4 H 1.2268 0.8819 0.0215
Ni1_2 Ni 1.26216(9) 1.26216(9) 0.0000
Ni1B Ni 0.23784(9) 0.76216(9) -0.2500
Ni1C Ni 0.76216(9) 0.23784(9) 0.2500
N2_2 N 0.0777(6) 0.0777(6) 0.0000
N3F N 0.1789(10) 0.5242(9) -0.1208(3)
O1F O 0.1302(7) 0.3958(7) -0.0871(3)
O2F O 0.1006(7) 0.6090(6) -0.1717(3)
O2B O 0.3994(7) 0.1090(6) -0.0783(3)
O2E O 0.1090(6) 0.3994(7) 0.0783(3)
C1F C 0.5915(9) 0.4285(9) -0.0409(4)
H1F H 0.6060 0.3314 -0.0702
C2F C 0.7166(10) 0.5459(9) -0.0409(4)
H2F H 0.8157 0.5262 -0.0682
C5F C 0.7861(9) 0.9976(10) -0.0119(4)
H3F H 0.6738 1.0286 -0.0193
C6F C 0.9111(9) 1.1148(9) -0.0123(4)
H4F H 0.8819 1.2268 -0.0215
loop_
_geom_bond_atom_site_label_1
_geom_bond_atom_site_label_2
_geom_bond_site_symmetry_1
_geom_bond_site_symmetry_2
Ni1 N1 1_555 1_555
N1 C1 1_555 1_555
N2 C6 1_555 1_555
N3 O1 1_555 1_555
O1 Ni1 1_555 1_555
O2 N3 1_555 1_555
C1 H1 1_555 1_555
C2 C1 1_555 1_555
H2 C2 1_555 1_555
C3 C2 1_555 1_555
C4 C3 1_555 1_555
C5 C4 1_555 1_555
H3 C5 1_555 1_555
C6 C5 1_555 1_555
H4 C6 1_555 1_555
Ni1_2 N2 1_555 1_555
Ni1B O2F 1_555 1_555
Ni1C O2 1_555 1_555
N2_2 Ni1 1_555 1_555
N3F O1F 1_555 1_555
O1F Ni1 1_555 1_555
O2F N3F 1_555 1_555
O2B Ni1 1_555 1_555
O2E Ni1 1_555 1_555
C1F N1 1_555 1_555
H1F C1F 1_555 1_555
C2F C3 1_555 1_555
H2F C2F 1_555 1_555
C5F C4 1_555 1_555
H3F C5F 1_555 1_555
C6F N2 1_555 1_555
H4F C6F 1_555 1_555
C1F C2F 1_555 1_555
C5F C6F 1_555 1_555

#END
