
#######################################################################
#
#                 Cambridge Crystallographic Data Centre
#                                CCDC 
#
#######################################################################
#
# If this CIF has been generated from an entry in the Cambridge 
# Structural Database, then it will include bibliographic, chemical, 
# crystal, experimental, refinement or atomic coordinate data resulting 
# from the CCDC's data processing and validation procedures.
#
#######################################################################

data_BOSJOJ
_symmetry_cell_setting           hexagonal
_symmetry_space_group_name_H-M   'P 61'
_symmetry_Int_Tables_number      169
_space_group_name_Hall           'P 61'
loop_
_symmetry_equiv_pos_site_id
_symmetry_equiv_pos_as_xyz
1 x,y,z
2 -y,x-y,1/3+z
3 -x+y,-x,2/3+z
4 -x,-y,1/2+z
5 y,-x+y,5/6+z
6 x-y,x,1/6+z
_cell_length_a                   11.6147(2)
_cell_length_b                   11.6147(2)
_cell_length_c                   51.9135(15)
_cell_angle_alpha                90
_cell_angle_beta                 90
_cell_angle_gamma                120
_cell_volume                     6064.95
loop_
_atom_site_label
_atom_site_type_symbol
_atom_site_fract_x
_atom_site_fract_y
_atom_site_fract_z
In6 In 0.80295(14) 0.48619(15) 0.08034(3)
N1 N 0.6628(12) 0.5189(13) 0.0555(3)
H1 H 0.6738 0.5997 0.0591
H2 H 0.6844 0.5187 0.0389
N3 N 0.8982(19) 0.691(2) 0.1033(4)
H6 H 0.8501 0.7311 0.1007
H7 H 0.8997 0.6763 0.1203
N4 N 0.9775(16) 0.6189(16) 0.0576(3)
H8 H 1.0438 0.6023 0.0610
H9 H 0.9579 0.6037 0.0407
N6 N 0.7594(17) 0.3087(18) 0.0575(4)
H12 H 0.6802 0.2391 0.0620
H13 H 0.7580 0.3245 0.0405
C2 C 1.028(2) 0.770(2) 0.0939(4)
H16 H 1.0855 0.7394 0.1007
H17 H 1.0626 0.8619 0.0993
N8 N 0.9163(19) 0.3998(19) 0.1023(4)
H18 H 1.0036 0.4463 0.0986
H19 H 0.9061 0.4035 0.1194
C3 C 0.527(2) 0.449(2) 0.0908(4)
H20 H 0.4867 0.4915 0.0988
C4 C 1.022(2) 0.7604(19) 0.0636(4)
H21 H 0.9595 0.7850 0.0568
H22 H 1.1089 0.8186 0.0562
C5 C 0.880(2) 0.279(2) 0.0641(4)
H23 H 0.8668 0.1973 0.0562
H24 H 0.9667 0.3522 0.0593
C6 C 0.517(3) 0.415(3) 0.0593(6)
H25 H 0.4972 0.3250 0.0557
H26 H 0.4564 0.4351 0.0501
N9 N 0.615(3) 0.401(3) 0.1051(5)
H27 H 0.5739 0.3116 0.1056
H28 H 0.6343 0.4330 0.1212
C7 C 0.861(3) 0.266(3) 0.0942(5)
H29 H 0.7677 0.2137 0.0987
H30 H 0.9083 0.2248 0.1017
In1 In 0.14705(14) 0.14292(14) 0.00394(3)
In2 In -0.53260(14) -0.18230(14) 0.07447(2)
In3 In -0.71103(14) -0.42643(13) 0.01394(3)
In4 In -0.28589(13) -0.13089(14) 0.01510(3)
In5 In -0.58518(13) -0.01294(13) 0.00889(3)
Te1 Te -0.05221(13) -0.11348(14) -0.00201(3)
Te2 Te 0.38953(13) 0.19271(14) -0.01315(2)
Te3 Te 0.08118(14) 0.33476(13) -0.00509(3)
Te4 Te -0.27771(13) -0.13075(14) 0.06894(3)
Te5 Te -0.73609(13) -0.43822(13) 0.06782(2)
Te6 Te -0.57952(13) 0.02113(13) 0.06248(2)
Te7 Te -0.46604(12) -0.38982(14) -0.00075(2)
Te8 Te -0.79081(13) -0.25769(13) -0.00590(3)
Te9 Te -0.33751(13) 0.04836(15) -0.00942(3)
N2 N -0.5429(17) -0.1712(18) 0.1187(3)
H3 H -0.5283 -0.2336 0.1258
H4 H -0.4773 -0.0913 0.1241
C1 C -0.6732(19) -0.1909(19) 0.1285(4)
H5 H -0.7412 -0.2136 0.1167
N5 N 0.1998(18) 0.1927(19) 0.0481(3)
H10 H 0.2668 0.1782 0.0522
H11 H 0.2282 0.2794 0.0508
N7 N -0.647(2) -0.237(2) 0.1697(5)
H14 H -0.6091 -0.2712 0.1609
H15 H -0.6497 -0.2427 0.1863
C8 C -0.703(2) -0.175(2) 0.1578(4)
H31 H -0.6612 -0.0827 0.1628
H32 H -0.7974 -0.2187 0.1612
C9 C 0.084(3) 0.111(3) 0.0656(6)
H33 H 0.0599 0.0190 0.0634
H34 H 0.0098 0.1197 0.0594
C10 C 0.097(3) 0.140(3) 0.0945(5)
H35 H 0.1073 0.2266 0.0982
H36 H 0.0219 0.0723 0.1040
N10 N 0.214(3) 0.137(3) 0.1002(6)
H37 H 0.2556 0.1219 0.0881
H38 H 0.2445 0.1511 0.1157
In3_2 In 0.28897(14) 0.57357(13) 0.01394(3)
In5_2 In 0.41482(13) -0.01294(13) 0.00889(3)
Te2_2 Te -0.61047(13) 0.19271(14) -0.01315(2)
Te3_2 Te -0.91882(14) -0.66524(13) -0.00509(3)
loop_
_geom_bond_atom_site_label_1
_geom_bond_atom_site_label_2
_geom_bond_site_symmetry_1
_geom_bond_site_symmetry_2
In1 Te1 1_555 1_555
In2 Te4 1_555 1_555
In3 Te5 1_555 1_555
In4 Te1 1_555 1_555
In5 Te6 1_555 1_555
In6 N1 1_555 1_555
Te2 In1 1_555 1_555
Te3 In1 1_555 1_555
Te4 In4 1_555 1_555
Te5 In2 1_555 1_555
Te6 In2 1_555 1_555
Te7 In3 1_555 1_555
Te8 In3 1_555 1_555
Te9 In4 1_555 1_555
N1 H1 1_555 1_555
H2 N1 1_555 1_555
N2 In2 1_555 1_555
H3 N2 1_555 1_555
H4 N2 1_555 1_555
C1 N2 1_555 1_555
H5 C1 1_555 1_555
N3 In6 1_555 1_555
H6 N3 1_555 1_555
H7 N3 1_555 1_555
N4 In6 1_555 1_555
H8 N4 1_555 1_555
H9 N4 1_555 1_555
N5 In1 1_555 1_555
H10 N5 1_555 1_555
H11 N5 1_555 1_555
N6 In6 1_555 1_555
H12 N6 1_555 1_555
H13 N6 1_555 1_555
N7 H14 1_555 1_555
H15 N7 1_555 1_555
C2 N3 1_555 1_555
H16 C2 1_555 1_555
H17 C2 1_555 1_555
N8 In6 1_555 1_555
H18 N8 1_555 1_555
H19 N8 1_555 1_555
C3 H20 1_555 1_555
C4 N4 1_555 1_555
H21 C4 1_555 1_555
H22 C4 1_555 1_555
C5 N6 1_555 1_555
H23 C5 1_555 1_555
H24 C5 1_555 1_555
C6 N1 1_555 1_555
H25 C6 1_555 1_555
H26 C6 1_555 1_555
N9 In6 1_555 1_555
H27 N9 1_555 1_555
H28 N9 1_555 1_555
C7 N8 1_555 1_555
H29 C7 1_555 1_555
H30 C7 1_555 1_555
C8 C1 1_555 1_555
H31 C8 1_555 1_555
H32 C8 1_555 1_555
C9 N5 1_555 1_555
H33 C9 1_555 1_555
H34 C9 1_555 1_555
C10 C9 1_555 1_555
H35 C10 1_555 1_555
H36 C10 1_555 1_555
N10 C10 1_555 1_555
H37 N10 1_555 1_555
H38 N10 1_555 1_555
In3_2 Te3 1_555 1_555
In5_2 Te2 1_555 1_555
Te2_2 In5 1_555 1_555
Te3_2 In3 1_555 1_555
In4 Te7 1_555 1_555
In5 Te8 1_555 1_555
In5 Te9 1_555 1_555
N7 C8 1_555 1_555
C2 C4 1_555 1_555
C3 C6 1_555 1_555
C3 N9 1_555 1_555
C5 C7 1_555 1_555

#END
