
#######################################################################
#
#                 Cambridge Crystallographic Data Centre
#                                CCDC 
#
#######################################################################
#
# If this CIF has been generated from an entry in the Cambridge 
# Structural Database, then it will include bibliographic, chemical, 
# crystal, experimental, refinement or atomic coordinate data resulting 
# from the CCDC's data processing and validation procedures.
#
#######################################################################

data_BOSJAW
_symmetry_cell_setting           orthorhombic
_symmetry_space_group_name_H-M   'P b c a'
_symmetry_Int_Tables_number      61
_space_group_name_Hall           '-P 2ac 2ab'
loop_
_symmetry_equiv_pos_site_id
_symmetry_equiv_pos_as_xyz
1 x,y,z
2 1/2-x,-y,1/2+z
3 1/2+x,1/2-y,-z
4 -x,1/2+y,1/2-z
5 -x,-y,-z
6 1/2+x,y,1/2-z
7 1/2-x,1/2+y,z
8 x,1/2-y,1/2+z
_cell_length_a                   17.7833(3)
_cell_length_b                   11.9359(2)
_cell_length_c                   19.3104(3)
_cell_angle_alpha                90
_cell_angle_beta                 90
_cell_angle_gamma                90
_cell_volume                     4098.82
loop_
_atom_site_label
_atom_site_type_symbol
_atom_site_fract_x
_atom_site_fract_y
_atom_site_fract_z
Ni1 Ni 0.011569(14) 0.99404(2) 0.190120(12)
S1 S 0.13215(4) 1.09146(6) 0.50450(3)
O1 O 0.44218(8) 0.57447(13) -0.11522(6)
O2 O 0.39617(8) 0.53657(13) -0.21757(7)
O3 O 0.05671(8) 0.82373(12) 0.21172(7)
N1 N 0.01658(9) 1.35304(15) 0.63770(8)
O4 O 0.10923(8) 0.94487(12) 0.14186(7)
C1 C 0.03896(12) 1.27783(18) 0.52432(9)
H1 H 0.0313 1.2832 0.4768
N2 N 0.04887(9) 1.05142(14) 0.28417(7)
C2 C 0.17612(10) 0.76065(17) 0.06895(9)
H2 H 0.1599 0.8196 0.0412
C3 C 0.22062(10) 0.67629(17) 0.04036(9)
C4 C 0.08512(14) 1.18282(19) 0.62377(10)
H3 H 0.1106 1.1234 0.6443
C5 C 0.18038(11) 0.67020(18) 0.17983(9)
H4 H 0.1647 0.6654 0.2257
C6 C 0.05250(13) 1.26422(19) 0.66381(10)
H5 H 0.0555 1.2573 0.7117
C7 C 0.02067(12) 1.0848(2) 0.40319(10)
H6 H -0.0156 1.0933 0.4375
C8 C 0.38744(11) 0.57425(18) -0.15693(9)
C9 C 0.24856(11) 0.59352(18) 0.08379(9)
H7 H 0.2813 0.5397 0.0663
C10 C 0.14700(12) 1.0819(2) 0.36610(10)
H8 H 0.1982 1.0896 0.3747
C11 C 0.15560(10) 0.75789(17) 0.13838(9)
C12 C 0.23447(10) 0.67040(17) -0.03567(9)
C13 C 0.10442(11) 0.84654(18) 0.16626(9)
C14 C 0.25787(12) 0.6525(2) -0.17865(10)
H9 H 0.2655 0.6464 -0.2262
C15 C 0.09592(11) 1.09083(17) 0.41930(9)
C16 C 0.30144(11) 0.62763(17) -0.06174(9)
H10 H 0.3388 0.6045 -0.0312
C17 C 0.07970(12) 1.19000(18) 0.55188(9)
C18 C 0.12171(12) 1.0615(2) 0.30027(10)
H11 H 0.1570 1.0544 0.2650
C19 C -0.00009(11) 1.0659(2) 0.33555(10)
H12 H -0.0511 1.0630 0.3252
C20 C 0.00995(11) 1.35692(19) 0.56829(10)
H13 H -0.0159 1.4170 0.5490
C21 C 0.31367(11) 0.61883(17) -0.13275(9)
C22 C 0.22803(11) 0.59053(18) 0.15305(10)
H14 H 0.2466 0.5342 0.1816
C23 C 0.17960(12) 0.7042(2) -0.08277(10)
H15 H 0.1345 0.7334 -0.0665
C24 C 0.19115(12) 0.6949(2) -0.15328(10)
H16 H 0.1537 0.7174 -0.1839
Ni1B Ni 0.511569(14) 0.50596(2) -0.190120(12)
Ni1G Ni 0.011569(14) 1.50596(2) 0.690120(12)
O1B O -0.05782(8) 0.92553(13) 0.11522(6)
O2B O -0.10383(8) 0.96343(13) 0.21757(7)
N1G N 0.01658(9) 1.14696(15) 0.13770(8)
loop_
_geom_bond_atom_site_label_1
_geom_bond_atom_site_label_2
_geom_bond_site_symmetry_1
_geom_bond_site_symmetry_2
Ni1 O3 1_555 1_555
S1 C15 1_555 1_555
O1 C8 1_555 1_555
O2 C8 1_555 1_555
O3 C13 1_555 1_555
N1 C6 1_555 1_555
O4 Ni1 1_555 1_555
C1 H1 1_555 1_555
N2 Ni1 1_555 1_555
C2 H2 1_555 1_555
C3 C2 1_555 1_555
C4 H3 1_555 1_555
C5 H4 1_555 1_555
C6 C4 1_555 1_555
H5 C6 1_555 1_555
C7 H6 1_555 1_555
C8 C21 1_555 1_555
C9 C3 1_555 1_555
H7 C9 1_555 1_555
C10 H8 1_555 1_555
C11 C2 1_555 1_555
C12 C3 1_555 1_555
C13 O4 1_555 1_555
C14 H9 1_555 1_555
C15 C7 1_555 1_555
C16 C12 1_555 1_555
H10 C16 1_555 1_555
C17 S1 1_555 1_555
C18 N2 1_555 1_555
H11 C18 1_555 1_555
C19 N2 1_555 1_555
H12 C19 1_555 1_555
C20 N1 1_555 1_555
H13 C20 1_555 1_555
C21 C14 1_555 1_555
C22 C5 1_555 1_555
H14 C22 1_555 1_555
C23 C12 1_555 1_555
H15 C23 1_555 1_555
C24 C14 1_555 1_555
H16 C24 1_555 1_555
Ni1B O1 1_555 1_555
Ni1G N1 1_555 1_555
O1B Ni1 1_555 1_555
O2B Ni1 1_555 1_555
N1G Ni1 1_555 1_555
O2 Ni1B 1_555 1_555
C1 C17 1_555 1_555
C1 C20 1_555 1_555
C4 C17 1_555 1_555
C5 C11 1_555 1_555
C7 C19 1_555 1_555
C9 C22 1_555 1_555
C10 C15 1_555 1_555
C10 C18 1_555 1_555
C11 C13 1_555 1_555
C16 C21 1_555 1_555
C23 C24 1_555 1_555

#END
