
#######################################################################
#
#                 Cambridge Crystallographic Data Centre
#                                CCDC 
#
#######################################################################
#
# If this CIF has been generated from an entry in the Cambridge 
# Structural Database, then it will include bibliographic, chemical, 
# crystal, experimental, refinement or atomic coordinate data resulting 
# from the CCDC's data processing and validation procedures.
#
#######################################################################

data_BOSJUQ
_symmetry_cell_setting           orthorhombic
_symmetry_space_group_name_H-M   'P 21 21 21'
_symmetry_Int_Tables_number      19
_space_group_name_Hall           'P 2ac 2ab'
loop_
_symmetry_equiv_pos_site_id
_symmetry_equiv_pos_as_xyz
1 x,y,z
2 1/2-x,-y,1/2+z
3 -x,1/2+y,1/2-z
4 1/2+x,1/2-y,-z
_cell_length_a                   4.2541(6)
_cell_length_b                   14.739(2)
_cell_length_c                   16.635(3)
_cell_angle_alpha                90
_cell_angle_beta                 90
_cell_angle_gamma                90
_cell_volume                     1043.03
loop_
_atom_site_label
_atom_site_type_symbol
_atom_site_fract_x
_atom_site_fract_y
_atom_site_fract_z
K1 K 1.09211(12) 0.87376(3) 0.87185(3)
S1 S 0.41626(15) 0.43313(4) 0.77104(3)
N1 N 0.5284(4) 0.60205(11) 0.82388(9)
N2 N 0.2240(4) 0.50972(11) 0.90722(10)
O1 O 0.0621(4) 0.56047(10) 1.03097(8)
O2 O 0.6072(4) 0.75217(9) 0.85384(9)
C1 C 0.3893(5) 0.51987(13) 0.83737(11)
C2 C 0.1981(5) 0.57979(14) 0.96632(12)
C3 C 0.3260(5) 0.66280(14) 0.94636(12)
H1 H 0.3004 0.7108 0.9821
C4 C 0.4911(5) 0.67835(13) 0.87560(12)
C5 C 0.7291(6) 0.61598(16) 0.75237(12)
H2 H 0.8328 0.5593 0.7391
H3 H 0.8907 0.6601 0.7652
C6 C 0.5457(7) 0.64880(19) 0.67931(14)
H4 H 0.6869 0.6569 0.6349
H5 H 0.4455 0.7055 0.6916
H6 H 0.3889 0.6047 0.6654
C7 C 0.0597(6) 0.42412(14) 0.92511(13)
H7 H -0.0156 0.3979 0.8752
H8 H -0.1218 0.4371 0.9585
C8 C 0.2651(6) 0.35551(15) 0.96759(15)
H9 H 0.3525 0.3824 1.0152
H10 H 0.4321 0.3370 0.9324
H11 H 0.1411 0.3036 0.9822
K1_2 K 0.09211(12) 0.87376(3) 0.87185(3)
K1B K -0.09211(12) 0.37376(3) 0.62815(3)
K1B_2 K 0.90789(12) 0.37376(3) 0.62815(3)
K1C K -0.40789(12) 0.62624(3) 1.12815(3)
K1C_2 K 0.59211(12) 0.62624(3) 1.12815(3)
S1B S 0.58374(15) 0.93313(4) 0.72896(3)
S1B_2 S 1.58374(15) 0.93313(4) 0.72896(3)
O1C O 0.5621(4) 0.93953(10) 0.96903(8)
O1C_2 O 1.5621(4) 0.93953(10) 0.96903(8)
O2_2 O 1.6072(4) 0.75217(9) 0.85384(9)
loop_
_geom_bond_atom_site_label_1
_geom_bond_atom_site_label_2
_geom_bond_site_symmetry_1
_geom_bond_site_symmetry_2
K1 O2 1_555 1_555
S1 C1 1_555 1_555
N1 C1 1_555 1_555
N2 C1 1_555 1_555
O1 C2 1_555 1_555
O2 C4 1_555 1_555
C2 N2 1_555 1_555
C3 C2 1_555 1_555
H1 C3 1_555 1_555
C4 N1 1_555 1_555
C5 N1 1_555 1_555
H2 C5 1_555 1_555
H3 C5 1_555 1_555
C6 C5 1_555 1_555
H4 C6 1_555 1_555
H5 C6 1_555 1_555
H6 C6 1_555 1_555
C7 N2 1_555 1_555
H7 C7 1_555 1_555
H8 C7 1_555 1_555
C8 C7 1_555 1_555
H9 C8 1_555 1_555
H10 C8 1_555 1_555
H11 C8 1_555 1_555
K1_2 O2 1_555 1_555
K1B S1 1_555 1_555
K1B_2 S1 1_555 1_555
K1C O1 1_555 1_555
K1C_2 O1 1_555 1_555
S1B K1 1_555 1_555
S1B_2 K1 1_555 1_555
O1C K1 1_555 1_555
O1C_2 K1 1_555 1_555
O2_2 K1 1_555 1_555
C3 C4 1_555 1_555
K1_2 S1B 1_555 1_555
K1_2 O1C 1_555 1_555

#END
