
#######################################################################
#
#                 Cambridge Crystallographic Data Centre
#                                CCDC 
#
#######################################################################
#
# If this CIF has been generated from an entry in the Cambridge 
# Structural Database, then it will include bibliographic, chemical, 
# crystal, experimental, refinement or atomic coordinate data resulting 
# from the CCDC's data processing and validation procedures.
#
#######################################################################

data_BOSKAX
_symmetry_cell_setting           monoclinic
_symmetry_space_group_name_H-M   'P 21/n'
_symmetry_Int_Tables_number      14
_space_group_name_Hall           '-P 2yn'
loop_
_symmetry_equiv_pos_site_id
_symmetry_equiv_pos_as_xyz
1 x,y,z
2 1/2-x,1/2+y,1/2-z
3 -x,-y,-z
4 1/2+x,1/2-y,1/2+z
_cell_length_a                   10.6778(13)
_cell_length_b                   7.2687(9)
_cell_length_c                   13.2021(16)
_cell_angle_alpha                90
_cell_angle_beta                 108.841(2)
_cell_angle_gamma                90
_cell_volume                     969.761
loop_
_atom_site_label
_atom_site_type_symbol
_atom_site_fract_x
_atom_site_fract_y
_atom_site_fract_z
S1 S 0.80018(8) 0.23951(10) 0.60741(6)
O1 O 0.59506(18) 0.4964(3) 0.24406(13)
O2 O 0.92225(18) 0.8441(2) 0.49273(13)
N1 N 0.8601(2) 0.5614(3) 0.53695(15)
N2 N 0.6946(2) 0.3898(3) 0.41399(16)
C1 C 0.7539(3) 0.6834(4) 0.36382(19)
H1 H 0.7422 0.7781 0.3142
C2 C 0.7846(2) 0.4044(4) 0.51453(19)
C3 C 0.9565(3) 0.5868(4) 0.64545(18)
H2 H 1.0272 0.6672 0.6412
H3 H 0.9952 0.4688 0.6729
C4 C 0.8467(3) 0.7055(3) 0.46342(19)
C5 C 0.6772(3) 0.5265(4) 0.33416(19)
C6 C 0.4842(3) 0.2570(5) 0.4199(3)
H4 H 0.4347 0.3600 0.3817
H5 H 0.5104 0.2806 0.4954
H6 H 0.4301 0.1486 0.4035
C7 C 0.6050(3) 0.2288(4) 0.3872(2)
H7 H 0.6522 0.1208 0.4231
H8 H 0.5781 0.2068 0.3107
C8 C 0.8921(3) 0.6687(5) 0.7218(2)
H9 H 0.8517 0.7841 0.6940
H10 H 0.9579 0.6882 0.7903
H11 H 0.8257 0.5859 0.7295
Li1 Li 0.4954(5) 0.4690(6) 0.1007(3)
S1C S 0.30018(8) 0.26049(10) 0.10741(6)
O2A O 0.57775(18) 0.3441(2) 0.00727(13)
O2C O 0.42225(18) 0.6559(2) -0.00727(13)
Li1A Li 1.0046(5) 0.9690(6) 0.3993(3)
Li1C Li 0.9954(5) 0.0310(6) 0.6007(3)
Li1C_2 Li 0.9954(5) 1.0310(6) 0.6007(3)
loop_
_geom_bond_atom_site_label_1
_geom_bond_atom_site_label_2
_geom_bond_site_symmetry_1
_geom_bond_site_symmetry_2
S1 C2 1_555 1_555
O1 C5 1_555 1_555
O2 C4 1_555 1_555
N1 C2 1_555 1_555
N2 C2 1_555 1_555
C1 H1 1_555 1_555
C3 N1 1_555 1_555
H2 C3 1_555 1_555
H3 C3 1_555 1_555
C4 N1 1_555 1_555
C5 N2 1_555 1_555
C6 H4 1_555 1_555
H5 C6 1_555 1_555
H6 C6 1_555 1_555
C7 N2 1_555 1_555
H7 C7 1_555 1_555
H8 C7 1_555 1_555
C8 C3 1_555 1_555
H9 C8 1_555 1_555
H10 C8 1_555 1_555
H11 C8 1_555 1_555
Li1 O1 1_555 1_555
S1C Li1 1_555 1_555
O2A Li1 1_555 1_555
O2C Li1 1_555 1_555
Li1A O2 1_555 1_555
Li1C S1 1_555 1_555
Li1C_2 O2 1_555 1_555
C1 C4 1_555 1_555
C1 C5 1_555 1_555
C6 C7 1_555 1_555

#END
