
#######################################################################
#
#                 Cambridge Crystallographic Data Centre
#                                CCDC 
#
#######################################################################
#
# If this CIF has been generated from an entry in the Cambridge 
# Structural Database, then it will include bibliographic, chemical, 
# crystal, experimental, refinement or atomic coordinate data resulting 
# from the CCDC's data processing and validation procedures.
#
#######################################################################

data_BOSNAZ
_symmetry_cell_setting           tetragonal
_symmetry_space_group_name_H-M   'I 41/a'
_symmetry_Int_Tables_number      88
_space_group_name_Hall           '-I 4ad'
loop_
_symmetry_equiv_pos_site_id
_symmetry_equiv_pos_as_xyz
1 x,y,z
2 -x,1/2-y,z
3 3/4-y,1/4+x,1/4+z
4 1/4+y,1/4-x,1/4+z
5 1/2+x,1/2+y,1/2+z
6 1/2-x,-y,1/2+z
7 1/4-y,3/4+x,3/4+z
8 3/4+y,3/4-x,3/4+z
9 -x,-y,-z
10 x,1/2+y,-z
11 1/4+y,3/4-x,3/4-z
12 3/4-y,3/4+x,3/4-z
13 1/2-x,1/2-y,1/2-z
14 1/2+x,y,1/2-z
15 3/4+y,1/4-x,1/4-z
16 1/4-y,1/4+x,1/4-z
_cell_length_a                   22.5642(19)
_cell_length_b                   22.5642(19)
_cell_length_c                   10.7118(18)
_cell_angle_alpha                90
_cell_angle_beta                 90
_cell_angle_gamma                90
_cell_volume                     5453.84
loop_
_atom_site_label
_atom_site_type_symbol
_atom_site_fract_x
_atom_site_fract_y
_atom_site_fract_z
Ni1 Ni 0.5000 0.0000 0.5000
N1 N 0.5582(2) 0.01239(16) 0.3575(4)
O1 O 0.44125(17) 0.01334(15) 0.3566(4)
N2 N 0.49918(18) -0.09343(14) 0.4672(3)
C1 C 0.50023(18) -0.21721(17) 0.4548(4)
C2 C 0.4675(3) 0.0239(2) 0.2490(5)
C3 C 0.4492(2) -0.1852(2) 0.4587(7)
H1 H 0.4128 -0.2044 0.4610
C4 C 0.5509(2) -0.18423(18) 0.4599(7)
H2 H 0.5874 -0.2032 0.4627
C5 C 0.4517(2) -0.1244(2) 0.4594(6)
H3 H 0.4160 -0.1039 0.4537
C6 C 0.5336(3) 0.0242(2) 0.2536(6)
O2 O 0.4396(3) 0.0309(3) 0.1461(4)
C7 C 0.5601(4) 0.0325(3) 0.1450(6)
H4 H 0.5372 0.0381 0.0736
C8 C 0.5487(2) -0.1235(2) 0.4608(7)
H5 H 0.5842 -0.1026 0.4567
C9 C 0.6198(4) 0.0166(3) 0.3599(9)
H6 H 0.6396 0.0128 0.4357
C10 C 0.6250(6) 0.0330(4) 0.1352(9)
H7 H 0.6460 0.0373 0.0610
C11 C 0.6514(5) 0.0260(3) 0.2547(11)
H8 H 0.6925 0.0280 0.2608
Ni1A Ni 0.5000 -0.5000 0.5000
N1H N 0.4418(2) -0.01239(16) 0.6425(4)
O1H O 0.55875(17) -0.01334(15) 0.6434(4)
N2A N 0.50082(18) -0.40657(14) 0.4672(3)
N2H N 0.50082(18) 0.09343(14) 0.5328(3)
C1A C 0.49977(18) -0.28279(17) 0.4548(4)
C2H C 0.5325(3) -0.0239(2) 0.7510(5)
C3A C 0.5508(2) -0.3148(2) 0.4587(7)
H1A H 0.5872 -0.2956 0.4610
C4A C 0.4491(2) -0.31577(18) 0.4599(7)
H2A H 0.4126 -0.2968 0.4627
C5A C 0.5483(2) -0.3756(2) 0.4594(6)
H3A H 0.5840 -0.3961 0.4537
C6H C 0.4664(3) -0.0242(2) 0.7464(6)
O2H O 0.5604(3) -0.0309(3) 0.8539(4)
C7H C 0.4399(4) -0.0325(3) 0.8550(6)
H4H H 0.4628 -0.0381 0.9264
C8A C 0.4513(2) -0.3765(2) 0.4608(7)
H5A H 0.4158 -0.3974 0.4567
C9H C 0.3802(4) -0.0166(3) 0.6401(9)
H6H H 0.3604 -0.0128 0.5643
C10H C 0.3750(6) -0.0330(4) 0.8648(9)
H7H H 0.3540 -0.0373 0.9390
C11H C 0.3486(5) -0.0260(3) 0.7453(11)
H8H H 0.3075 -0.0280 0.7392
O3 O 0.6175(4) -0.1416(8) 0.1156(9)
H9 H 0.6372 -0.1683 0.1531
H10 H 0.5806 -0.1487 0.1221
O4 O 0.5135(8) -0.1642(7) 0.1244(6)
H11 H 0.5062 -0.1543 0.0494
H12 H 0.5361 -0.1944 0.1254
O5 O 0.7663(7) -0.0752(6) 0.0455(12)
H13 H 0.8001 -0.0590 0.0391
H14 H 0.7699 -0.1096 0.0769
loop_
_geom_bond_atom_site_label_1
_geom_bond_atom_site_label_2
_geom_bond_site_symmetry_1
_geom_bond_site_symmetry_2
Ni1 N1 1_555 1_555
N1 C6 1_555 1_555
O1 Ni1 1_555 1_555
N2 Ni1 1_555 1_555
C1 C3 1_555 1_555
C2 O1 1_555 1_555
C3 H1 1_555 1_555
C4 C1 1_555 1_555
H2 C4 1_555 1_555
C5 N2 1_555 1_555
H3 C5 1_555 1_555
C6 C2 1_555 1_555
O2 C2 1_555 1_555
C7 C6 1_555 1_555
H4 C7 1_555 1_555
C8 N2 1_555 1_555
H5 C8 1_555 1_555
C9 N1 1_555 1_555
H6 C9 1_555 1_555
C10 C7 1_555 1_555
H7 C10 1_555 1_555
C11 C9 1_555 1_555
H8 C11 1_555 1_555
O3 H9 1_555 1_555
H10 O3 1_555 1_555
O4 H11 1_555 1_555
H12 O4 1_555 1_555
O5 H13 1_555 1_555
H14 O5 1_555 1_555
Ni1A N2A 1_555 1_555
N1H Ni1 1_555 1_555
O1H Ni1 1_555 1_555
N2A C5A 1_555 1_555
N2H Ni1 1_555 1_555
C1A C1 1_555 1_555
C2H O1H 1_555 1_555
C3A C1A 1_555 1_555
H1A C3A 1_555 1_555
C4A C1A 1_555 1_555
H2A C4A 1_555 1_555
C5A C3A 1_555 1_555
H3A C5A 1_555 1_555
C6H N1H 1_555 1_555
O2H C2H 1_555 1_555
C7H C6H 1_555 1_555
H4H C7H 1_555 1_555
C8A N2A 1_555 1_555
H5A C8A 1_555 1_555
C9H N1H 1_555 1_555
H6H C9H 1_555 1_555
C10H C7H 1_555 1_555
H7H C10H 1_555 1_555
C11H C9H 1_555 1_555
H8H C11H 1_555 1_555
C3 C5 1_555 1_555
C4 C8 1_555 1_555
C10 C11 1_555 1_555
C2H C6H 1_555 1_555
C4A C8A 1_555 1_555
C10H C11H 1_555 1_555

#END
