
#######################################################################
#
#                 Cambridge Crystallographic Data Centre
#                                CCDC 
#
#######################################################################
#
# If this CIF has been generated from an entry in the Cambridge 
# Structural Database, then it will include bibliographic, chemical, 
# crystal, experimental, refinement or atomic coordinate data resulting 
# from the CCDC's data processing and validation procedures.
#
#######################################################################

data_BOSRUX
_symmetry_cell_setting           monoclinic
_symmetry_space_group_name_H-M   'C 2/c'
_symmetry_Int_Tables_number      15
_space_group_name_Hall           '-C 2yn'
loop_
_symmetry_equiv_pos_site_id
_symmetry_equiv_pos_as_xyz
1 x,y,z
2 -x,y,1/2-z
3 1/2+x,1/2+y,z
4 1/2-x,1/2+y,1/2-z
5 -x,-y,-z
6 x,-y,1/2+z
7 1/2-x,1/2-y,-z
8 1/2+x,1/2-y,1/2+z
_cell_length_a                   17.2224(4)
_cell_length_b                   9.3151(2)
_cell_length_c                   15.1518(4)
_cell_angle_alpha                90
_cell_angle_beta                 95.7670(10)
_cell_angle_gamma                90
_cell_volume                     2418.48
loop_
_atom_site_label
_atom_site_type_symbol
_atom_site_fract_x
_atom_site_fract_y
_atom_site_fract_z
Fe1 Fe 0.089776(15) 0.24971(3) 0.001550(19)
O1 O 0.17795(7) 0.32564(16) -0.07461(9)
O2 O 0.06190(8) 0.06069(16) -0.07554(9)
O3 O -0.01043(8) -0.13814(16) -0.07768(9)
O4 O 0.30730(7) 0.32302(17) -0.07730(9)
O5 O -0.00180(8) 0.36185(16) -0.07733(9)
O6 O -0.07339(7) 0.56127(16) -0.07776(9)
C1 C 0.01463(10) -0.0233(2) -0.04404(13)
C2 C -0.02152(10) 0.4769(2) -0.04475(13)
C3 C 0.24583(12) 0.2933(2) -0.04378(13)
Fe1F Fe 0.410224(15) 0.25029(3) -0.001550(19)
Fe1D Fe -0.089776(15) -0.24971(3) -0.001550(19)
Fe1D_2 Fe -0.089776(15) 0.75029(3) -0.001550(19)
O1F O 0.32205(7) 0.17436(16) 0.07461(9)
O2D O -0.06190(8) -0.06069(16) 0.07554(9)
O2F O 0.43810(8) 0.43931(16) 0.07554(9)
O3D O 0.01043(8) 0.13814(16) 0.07768(9)
O3B O 0.48957(8) 0.36186(16) -0.07768(9)
O4F O 0.19270(7) 0.17698(17) 0.07730(9)
O5D O 0.00180(8) 0.63815(16) 0.07733(9)
O5F O 0.50180(8) 0.13815(16) 0.07733(9)
O6D O 0.07339(7) 0.43873(16) 0.07776(9)
O6B O 0.42661(7) 0.06127(16) -0.07776(9)
C1D C -0.01463(10) 0.0233(2) 0.04404(13)
C2D C 0.02152(10) 0.5231(2) 0.04475(13)
C3F C 0.25417(12) 0.2067(2) 0.04378(13)
O7 O 0.25204(8) 0.51666(18) 0.13156(10)
N1 N 0.35182(10) 0.4213(2) 0.22373(13)
N2 N 0.24615(9) 0.34357(19) 0.33849(11)
N3 N 0.14718(10) 0.4119(2) 0.24697(13)
C4 C 0.27756(11) 0.4511(2) 0.19840(14)
C5 C 0.37536(13) 0.3158(3) 0.29285(15)
C6 C 0.32836(13) 0.3332(3) 0.37110(15)
C7 C 0.17848(14) 0.3230(3) 0.38986(17)
C8 C 0.11006(16) 0.3463(4) 0.3197(2)
C9 C 0.22253(12) 0.4000(2) 0.26180(13)
H1 H 0.3823(13) 0.433(3) 0.1868(16)
H2 H 0.4312(13) 0.334(2) 0.3093(13)
H3 H 0.3660(13) 0.216(3) 0.2696(15)
H4 H 0.3383(13) 0.247(3) 0.4073(16)
H5 H 0.3430(11) 0.418(2) 0.4033(13)
H6 H 0.1806(14) 0.234(3) 0.4128(16)
H7 H 0.1832(12) 0.391(3) 0.4417(15)
H8 H 0.080(2) 0.264(3) 0.296(2)
H9 H 0.0755(18) 0.407(4) 0.337(2)
H10 H 0.1245(13) 0.428(2) 0.1968(15)
loop_
_geom_bond_atom_site_label_1
_geom_bond_atom_site_label_2
_geom_bond_site_symmetry_1
_geom_bond_site_symmetry_2
Fe1 O1 1_555 1_555
O1 C3 1_555 1_555
O2 Fe1 1_555 1_555
O3 C1 1_555 1_555
O4 C3 1_555 1_555
O5 Fe1 1_555 1_555
O6 C2 1_555 1_555
O7 C4 1_555 1_555
N1 C4 1_555 1_555
N2 C6 1_555 1_555
N3 C8 1_555 1_555
C1 O2 1_555 1_555
C2 O5 1_555 1_555
C3 C3F 1_555 1_555
C4 C9 1_555 1_555
C5 N1 1_555 1_555
C6 C5 1_555 1_555
C7 N2 1_555 1_555
C8 C7 1_555 1_555
C9 N2 1_555 1_555
H1 N1 1_555 1_555
H2 C5 1_555 1_555
H3 C5 1_555 1_555
H4 C6 1_555 1_555
H5 C6 1_555 1_555
H6 C7 1_555 1_555
H7 C7 1_555 1_555
H8 C8 1_555 1_555
H9 C8 1_555 1_555
H10 N3 1_555 1_555
Fe1F O4 1_555 1_555
Fe1D O3 1_555 1_555
Fe1D_2 O6 1_555 1_555
O1F Fe1F 1_555 1_555
O2D Fe1D 1_555 1_555
O2F Fe1F 1_555 1_555
O3D Fe1 1_555 1_555
O3B Fe1F 1_555 1_555
O4F Fe1 1_555 1_555
O5D Fe1D_2 1_555 1_555
O5F Fe1F 1_555 1_555
O6D Fe1 1_555 1_555
O6B Fe1F 1_555 1_555
C1D C1 1_555 1_555
C2D C2 1_555 1_555
C3F O1F 1_555 1_555
N3 C9 1_555 1_555
O2D C1D 1_555 1_555
O3D C1D 1_555 1_555
O4F C3F 1_555 1_555
O5D C2D 1_555 1_555
O6D C2D 1_555 1_555

#END
