
#######################################################################
#
#                 Cambridge Crystallographic Data Centre
#                                CCDC 
#
#######################################################################
#
# If this CIF has been generated from an entry in the Cambridge 
# Structural Database, then it will include bibliographic, chemical, 
# crystal, experimental, refinement or atomic coordinate data resulting 
# from the CCDC's data processing and validation procedures.
#
#######################################################################

data_BOSVIQ
_symmetry_cell_setting           orthorhombic
_symmetry_space_group_name_H-M   'P n m a'
_symmetry_Int_Tables_number      62
_space_group_name_Hall           '-P 2ac 2n'
loop_
_symmetry_equiv_pos_site_id
_symmetry_equiv_pos_as_xyz
1 x,y,z
2 1/2+x,1/2-y,1/2-z
3 -x,1/2+y,-z
4 1/2-x,-y,1/2+z
5 -x,-y,-z
6 1/2-x,1/2+y,1/2+z
7 x,1/2-y,z
8 1/2+x,y,1/2-z
_cell_length_a                   6.1784(8)
_cell_length_b                   12.9041(17)
_cell_length_c                   19.866(3)
_cell_angle_alpha                90
_cell_angle_beta                 90
_cell_angle_gamma                90
_cell_volume                     1583.85
loop_
_atom_site_label
_atom_site_type_symbol
_atom_site_fract_x
_atom_site_fract_y
_atom_site_fract_z
Cu1 Cu 0.66323(11) 1.2500 0.67777(3)
Cl1 Cl 1.0474(2) 1.2500 0.69987(6)
N1 N 0.5750(5) 1.1085(2) 0.65284(15)
C1 C 0.3707(6) 0.9660(3) 0.66173(19)
N2 N 0.3993(5) 1.0645(2) 0.68183(16)
H1 H 0.3139 1.0966 0.7105
C2 C 0.5384(6) 0.9435(2) 0.61793(17)
C3 C 0.6595(5) 1.0358(3) 0.61398(17)
C4 C 0.1825(7) 0.9044(3) 0.6867(2)
H2 H 0.0963 0.9469 0.7176
H3 H 0.2352 0.8428 0.7104
H4 H 0.0926 0.8831 0.6485
C5 C 0.8557(6) 1.0598(3) 0.5731(2)
H5 H 0.9014 1.1313 0.5817
H6 H 0.8219 1.0516 0.5252
H7 H 0.9728 1.0122 0.5854
C6 C 0.5766(6) 0.8444(2) 0.58297(17)
C7 C 0.6403(6) 0.8431(3) 0.51533(18)
H8 H 0.6611 0.9066 0.4920
C8 C 0.5497(8) 0.7500 0.6157(2)
H9 H 0.5115 0.7500 0.6621
C9 C 0.6730(9) 0.7500 0.4823(3)
H10 H 0.7182 0.7500 0.4366
N1F N 0.5750(5) 0.3915(2) 0.65284(15)
C1F C 0.3707(6) 0.5340(3) 0.66173(19)
N2F N 0.3993(5) 0.4355(2) 0.68183(16)
H1F H 0.3139 0.4034 0.7105
C2F C 0.5384(6) 0.5565(2) 0.61793(17)
C3F C 0.6595(5) 0.4642(3) 0.61398(17)
C4F C 0.1825(7) 0.5956(3) 0.6867(2)
H2F H 0.0963 0.5531 0.7176
H3F H 0.2352 0.6572 0.7104
H4F H 0.0926 0.6169 0.6485
C5F C 0.8557(6) 0.4402(3) 0.5731(2)
H5F H 0.9014 0.3687 0.5817
H6F H 0.8219 0.4484 0.5252
H7F H 0.9728 0.4878 0.5854
C6F C 0.5766(6) 0.6556(2) 0.58297(17)
C7F C 0.6403(6) 0.6569(3) 0.51533(18)
H8F H 0.6611 0.5934 0.4920
Cu1_2 Cu 0.66323(11) 0.2500 0.67777(3)
Cu1A Cu 1.16323(11) 1.2500 0.82223(3)
Cl1A Cl 0.5474(2) 1.2500 0.80013(6)
N1F_2 N 0.5750(5) 1.3915(2) 0.65284(15)
loop_
_geom_bond_atom_site_label_1
_geom_bond_atom_site_label_2
_geom_bond_site_symmetry_1
_geom_bond_site_symmetry_2
Cu1 Cl1 1_555 1_555
Cl1 Cu1A 1_555 1_555
N1 Cu1 1_555 1_555
C1 N2 1_555 1_555
N2 N1 1_555 1_555
H1 N2 1_555 1_555
C2 C1 1_555 1_555
C3 N1 1_555 1_555
C4 C1 1_555 1_555
H2 C4 1_555 1_555
H3 C4 1_555 1_555
H4 C4 1_555 1_555
C5 C3 1_555 1_555
H5 C5 1_555 1_555
H6 C5 1_555 1_555
H7 C5 1_555 1_555
C6 C2 1_555 1_555
C7 C6 1_555 1_555
H8 C7 1_555 1_555
C8 C6 1_555 1_555
H9 C8 1_555 1_555
C9 C7 1_555 1_555
H10 C9 1_555 1_555
N1F N2F 1_555 1_555
C1F N2F 1_555 1_555
N2F H1F 1_555 1_555
C2F C1F 1_555 1_555
C3F N1F 1_555 1_555
C4F C1F 1_555 1_555
H2F C4F 1_555 1_555
H3F C4F 1_555 1_555
H4F C4F 1_555 1_555
C5F C3F 1_555 1_555
H5F C5F 1_555 1_555
H6F C5F 1_555 1_555
H7F C5F 1_555 1_555
C6F C8 1_555 1_555
C7F C9 1_555 1_555
H8F C7F 1_555 1_555
Cu1_2 N1F 1_555 1_555
Cl1A Cu1 1_555 1_555
N1F_2 Cu1 1_555 1_555
C2 C3 1_555 1_555
C2F C3F 1_555 1_555
C2F C6F 1_555 1_555
C6F C7F 1_555 1_555

#END
