
#######################################################################
#
#                 Cambridge Crystallographic Data Centre
#                                CCDC 
#
#######################################################################
#
# If this CIF has been generated from an entry in the Cambridge 
# Structural Database, then it will include bibliographic, chemical, 
# crystal, experimental, refinement or atomic coordinate data resulting 
# from the CCDC's data processing and validation procedures.
#
#######################################################################

data_BOTBAN01
_symmetry_cell_setting           triclinic
_symmetry_space_group_name_H-M   'P -1'
_symmetry_Int_Tables_number      2
_space_group_name_Hall           '-P 1'
loop_
_symmetry_equiv_pos_site_id
_symmetry_equiv_pos_as_xyz
1 x,y,z
2 -x,-y,-z
_cell_length_a                   9.595(5)
_cell_length_b                   12.998(4)
_cell_length_c                   10.329(5)
_cell_angle_alpha                115.47(3)
_cell_angle_beta                 80.49(4)
_cell_angle_gamma                113.09(3)
_cell_volume                     1069.81
loop_
_atom_site_label
_atom_site_type_symbol
_atom_site_fract_x
_atom_site_fract_y
_atom_site_fract_z
K1 K 0.26840 0.79950 0.08300
K2 K 0.90730 0.69320 0.28590
K3 K 0.63190 0.39470 0.30320
K4 K 0.67170 0.16120 0.50360
U1 U 0.22369 0.27982 0.05197
O1 O 0.18840 0.08450 0.05470
O2 O 0.04500 -0.10530 0.02770
C1 C 0.06630 -0.00700 0.02390
O3 O 0.32960 0.40340 -0.09190
O4 O 0.50680 0.56800 -0.11500
C2 C 0.45260 0.49190 -0.05960
O5 O 0.32600 0.31730 0.27470
O6 O 0.29230 0.35490 0.50750
C3 C 0.24540 0.31990 0.38540
C4 C 0.07330 0.27580 0.36120
O7 O 0.03930 0.26440 0.24090
O8 O -0.01630 0.25590 0.45350
O9 O 0.02940 0.33700 0.01270
O10 O -0.11210 0.45130 0.12360
C5 C 0.00850 0.43420 0.10340
C6 C 0.15050 0.53300 0.19350
O11 O 0.24170 0.48850 0.20710
O12 O 0.16820 0.64220 0.24290
O13 O 0.42270 0.20210 -0.07840
O14 O 0.49950 0.08350 -0.28260
C7 C 0.41000 0.13300 -0.21120
C8 C 0.26790 0.11210 -0.28480
O15 O 0.17530 0.15790 -0.20330
O16 O 0.25450 0.05490 -0.41610
C1A C -0.06630 0.00700 -0.02390
O1A O -0.18840 -0.08450 -0.05470
O2A O -0.04500 0.10530 -0.02770
C2A C 0.54740 0.50810 0.05960
O3A O 0.67040 0.59660 0.09190
O4A O 0.49320 0.43200 0.11500
U1A U -0.22369 -0.27982 -0.05197
O5A O -0.32600 -0.31730 -0.27470
O6A O -0.29230 -0.35490 -0.50750
C3A C -0.24540 -0.31990 -0.38540
C4A C -0.07330 -0.27580 -0.36120
O7A O -0.03930 -0.26440 -0.24090
O8A O 0.01630 -0.25590 -0.45350
O9A O -0.02940 -0.33700 -0.01270
O10A O 0.11210 -0.45130 -0.12360
C5A C -0.00850 -0.43420 -0.10340
C6A C -0.15050 -0.53300 -0.19350
O11A O -0.24170 -0.48850 -0.20710
O12A O -0.16820 -0.64220 -0.24290
O13A O -0.42270 -0.20210 0.07840
O14A O -0.49950 -0.08350 0.28260
C7A C -0.41000 -0.13300 0.21120
C8A C -0.26790 -0.11210 0.28480
O15A O -0.17530 -0.15790 0.20330
O16A O -0.25450 -0.05490 0.41610
U1A_2 U 0.77631 0.72018 -0.05197
O3A_2 O -0.32960 -0.40340 0.09190
O4_2 O -0.49320 -0.43200 -0.11500
O17 O 0.13100 0.92780 0.32210
O18 O 0.72430 0.20130 0.21810
O19 O 0.42940 0.65410 0.44830
O20 O 0.41430 0.07150 0.17220
loop_
_geom_bond_atom_site_label_1
_geom_bond_atom_site_label_2
_geom_bond_site_symmetry_1
_geom_bond_site_symmetry_2
U1 O1 1_555 1_555
O1 C1 1_555 1_555
O2 C1 1_555 1_555
C1 C1A 1_555 1_555
O3 U1 1_555 1_555
O4 C2 1_555 1_555
C2 O3 1_555 1_555
O5 U1 1_555 1_555
O6 C3 1_555 1_555
C3 O5 1_555 1_555
C4 C3 1_555 1_555
O7 U1 1_555 1_555
O8 C4 1_555 1_555
O9 U1 1_555 1_555
O10 C5 1_555 1_555
C5 O9 1_555 1_555
C6 C5 1_555 1_555
O11 U1 1_555 1_555
O12 C6 1_555 1_555
O13 U1 1_555 1_555
O14 C7 1_555 1_555
C7 O13 1_555 1_555
C8 C7 1_555 1_555
O15 U1 1_555 1_555
O16 C8 1_555 1_555
C1A O1A 1_555 1_555
O1A U1A 1_555 1_555
O2A U1 1_555 1_555
C2A C2 1_555 1_555
O3A C2A 1_555 1_555
O4A U1 1_555 1_555
U1A O2 1_555 1_555
O5A U1A 1_555 1_555
O6A C3A 1_555 1_555
C3A O5A 1_555 1_555
C4A C3A 1_555 1_555
O7A U1A 1_555 1_555
O8A C4A 1_555 1_555
O9A U1A 1_555 1_555
O10A C5A 1_555 1_555
C5A O9A 1_555 1_555
C6A C5A 1_555 1_555
O11A U1A 1_555 1_555
O12A C6A 1_555 1_555
O13A U1A 1_555 1_555
O14A C7A 1_555 1_555
C7A O13A 1_555 1_555
C8A C7A 1_555 1_555
O15A U1A 1_555 1_555
O16A C8A 1_555 1_555
U1A_2 O4 1_555 1_555
O3A_2 U1A 1_555 1_555
O4_2 U1A 1_555 1_555
C4 O7 1_555 1_555
C6 O11 1_555 1_555
C8 O15 1_555 1_555
C1A O2A 1_555 1_555
C2A O4A 1_555 1_555
O3A U1A_2 1_555 1_555
C4A O7A 1_555 1_555
C6A O11A 1_555 1_555
C8A O15A 1_555 1_555

#END
