
#######################################################################
#
#                 Cambridge Crystallographic Data Centre
#                                CCDC 
#
#######################################################################
#
# If this CIF has been generated from an entry in the Cambridge 
# Structural Database, then it will include bibliographic, chemical, 
# crystal, experimental, refinement or atomic coordinate data resulting 
# from the CCDC's data processing and validation procedures.
#
#######################################################################

data_BOTCOE
_symmetry_cell_setting           monoclinic
_symmetry_space_group_name_H-M   'P 21/c'
_symmetry_Int_Tables_number      14
_space_group_name_Hall           '-P 2ybc'
loop_
_symmetry_equiv_pos_site_id
_symmetry_equiv_pos_as_xyz
1 x,y,z
2 -x,1/2+y,1/2-z
3 -x,-y,-z
4 x,1/2-y,1/2+z
_cell_length_a                   9.4512(19)
_cell_length_b                   31.333(6)
_cell_length_c                   20.413(6)
_cell_angle_alpha                90
_cell_angle_beta                 117.58(2)
_cell_angle_gamma                90
_cell_volume                     5358.07
loop_
_atom_site_label
_atom_site_type_symbol
_atom_site_fract_x
_atom_site_fract_y
_atom_site_fract_z
Dy1 Dy 0.34478(4) -0.460040(9) -0.49819(2)
Dy2 Dy -0.15768(4) -0.433220(9) -0.38828(2)
F1 F 0.0239(9) -0.22545(16) -0.6320(3)
F2 F 0.6632(11) -0.5009(3) -0.0068(5)
F3 F -0.0878(8) -0.33707(16) -0.8271(4)
F4 F 0.8026(11) -0.5515(4) -0.0195(5)
F5 F 0.1844(9) -0.30408(16) -0.6180(4)
F6 F 0.5552(13) -0.3459(3) -0.8640(5)
F7 F 0.5371(14) -0.2862(2) -0.8221(5)
F8 F 0.0902(7) -0.19940(14) -0.5244(3)
F9 F 0.4859(10) -0.2729(3) -0.1181(6)
F10 F -0.2935(10) -0.3600(3) -0.9809(5)
F11 F -0.0520(10) -0.3454(3) -0.9555(5)
F12 F 0.2718(8) -0.22206(18) -0.5501(4)
F13 F 0.3529(8) -0.28125(19) -0.2777(4)
F14 F 0.7735(7) -0.48679(19) -0.1187(3)
F15 F 0.5803(11) -0.5654(2) -0.0197(4)
F16 F 0.7804(7) -0.3360(2) -0.7092(4)
F17 F 0.7348(9) -0.27694(19) -0.0662(4)
F18 F 0.6175(14) -0.23623(17) -0.1569(4)
F19 F 0.3305(11) -0.3206(5) -0.8802(6)
F20 F -0.1685(15) -0.4033(3) -1.0171(4)
O1 O 0.1787(6) -0.52650(15) -0.3963(3)
O2 O 0.4021(6) -0.49904(15) -0.3907(3)
O3 O 0.0597(7) -0.50766(14) -0.6862(3)
O4 O 0.1196(7) -0.51386(16) -0.5351(3)
O5 O 0.4646(6) -0.40582(15) -0.4028(3)
O6 O 0.0466(6) -0.40458(15) -0.4073(3)
O7 O 0.1431(7) -0.43058(14) -0.4799(3)
O8 O 0.3790(6) -0.51906(15) -0.5603(3)
O9 O 0.1425(7) -0.44595(14) -0.6232(3)
O10 O 0.7118(7) -0.40668(14) -0.5074(3)
O11 O 0.4467(7) -0.41395(17) -0.5542(4)
O12 O 0.7081(7) -0.42704(16) -0.3173(3)
N1 N 0.0625(8) -0.40354(19) -0.2685(4)
N2 N -0.1797(8) -0.35362(19) -0.3676(4)
C1 C 0.3963(12) -0.3803(3) -0.6895(6)
H1 H 0.3089 -0.3905 -0.6849
C2 C 0.0729(11) -0.3610(2) -0.2536(5)
C3 C 0.5033(13) -0.3458(3) -0.7622(5)
C4 C 0.4818(14) -0.3252(5) -0.8328(7)
C5 C 0.0987(9) -0.3562(2) -0.4841(4)
C6 C 0.1810(10) -0.4283(3) -0.2212(5)
H2 H 0.1739 -0.4574 -0.2310
C7 C 0.6783(10) -0.3689(3) -0.6374(5)
H3 H 0.7811 -0.3714 -0.5986
C8 C -0.0633(11) -0.3792(3) -0.8243(6)
C9 C 0.3228(10) -0.5147(2) -0.3613(5)
C10 C 0.4101(9) -0.5199(2) -0.2785(4)
C11 C 0.3405(10) -0.5446(3) -0.2448(5)
H4 H 0.2418 -0.5574 -0.2730
C12 C 0.0614(10) -0.3212(2) -0.4529(5)
H5 H 0.0301 -0.3252 -0.4164
C13 C 0.5689(9) -0.4030(2) -0.5589(5)
C14 C 0.5476(10) -0.3835(2) -0.6297(4)
C15 C -0.3027(11) -0.3296(2) -0.4165(5)
H6 H -0.3847 -0.3432 -0.4567
C16 C -0.0632(11) -0.3337(2) -0.3096(5)
C17 C 0.5557(11) -0.5004(3) -0.2368(5)
H7 H 0.6030 -0.4839 -0.2591
C18 C 0.3224(13) -0.3705(3) -0.1437(5)
H8 H 0.4075 -0.3592 -0.1019
C19 C 0.6528(11) -0.3507(3) -0.7031(5)
C20 C 0.0778(10) -0.4670(2) -0.6819(4)
C21 C 0.5671(11) -0.5316(3) -0.1264(5)
C22 C 0.0184(10) -0.4437(2) -0.7546(4)
C23 C -0.0092(9) -0.3998(2) -0.7578(5)
H9 H 0.0088 -0.3847 -0.7153
C24 C 0.4700(13) -0.3105(3) -0.2566(6)
C25 C 0.6297(11) -0.5060(3) -0.1607(5)
C26 C 0.5832(10) -0.4043(2) -0.3388(5)
C27 C 0.1272(13) -0.2296(3) -0.5585(6)
C28 C 0.0962(9) -0.4007(2) -0.4546(4)
C29 C 0.7104(11) -0.3706(2) -0.2122(5)
H10 H 0.7920 -0.3907 -0.1976
C30 C 0.1124(11) -0.2743(3) -0.5321(5)
C31 C 0.5811(9) -0.3718(2) -0.2851(5)
C32 C 0.7145(11) -0.3393(3) -0.1628(5)
H11 H 0.7973 -0.3389 -0.1147
C33 C 0.5939(12) -0.3086(2) -0.1858(5)
C34 C 0.1370(11) -0.3507(2) -0.5407(5)
H12 H 0.1577 -0.3739 -0.5633
C35 C 0.6041(13) -0.2731(3) -0.1334(6)
C36 C 0.0712(10) -0.2795(2) -0.4770(5)
H13 H 0.0498 -0.2559 -0.4555
C37 C -0.0043(11) -0.4656(3) -0.8173(5)
H14 H 0.0147 -0.4949 -0.8147
C38 C 0.1437(12) -0.3091(3) -0.5632(5)
C39 C 0.4600(11) -0.3415(3) -0.3070(5)
H15 H 0.3745 -0.3421 -0.3544
C40 C -0.1491(16) -0.3778(4) -0.9602(8)
C41 C 0.3150(12) -0.4139(3) -0.1581(6)
H16 H 0.3950 -0.4324 -0.1273
C42 C 0.4204(12) -0.5502(3) -0.1674(5)
H17 H 0.3740 -0.5663 -0.1442
C43 C -0.0623(13) -0.2896(3) -0.3006(6)
H18 H 0.0221 -0.2765 -0.2609
C44 C -0.1873(15) -0.2659(2) -0.3510(6)
H19 H -0.1878 -0.2364 -0.3457
C45 C -0.0905(11) -0.4009(3) -0.8892(6)
C46 C 0.3720(15) -0.3620(4) -0.7574(7)
H20 H 0.2707 -0.3609 -0.7977
C47 C 0.6506(14) -0.5382(4) -0.0438(7)
C48 C -0.3122(13) -0.2858(3) -0.4096(6)
H21 H -0.3997 -0.2703 -0.4432
C49 C -0.0551(14) -0.4446(3) -0.8846(6)
H22 H -0.0655 -0.4594 -0.9261
C50 C 0.2031(12) -0.3444(3) -0.1918(6)
H23 H 0.2091 -0.3152 -0.1829
H24 H 0.381(12) -0.517(3) -0.601(3)
H25 H 0.026(4) -0.506(2) -0.551(4)
H26 H 0.134(7) -0.522(2) -0.4938(18)
Dy1B Dy 0.65522(4) -0.539960(9) -0.50181(2)
Dy2_2 Dy 0.84232(4) -0.433220(9) -0.38828(2)
Dy2B Dy 0.15768(4) -0.566780(9) -0.61172(2)
O3B O -0.0597(7) -0.49234(14) -0.3138(3)
O4B O -0.1196(7) -0.48614(16) -0.4649(3)
O8B O -0.3790(6) -0.48094(15) -0.4397(3)
O8B_2 O 0.6210(6) -0.48094(15) -0.4397(3)
O10_2 O -0.2882(7) -0.40668(14) -0.5074(3)
O12_2 O -0.2919(7) -0.42704(16) -0.3173(3)
loop_
_geom_bond_atom_site_label_1
_geom_bond_atom_site_label_2
_geom_bond_site_symmetry_1
_geom_bond_site_symmetry_2
Dy1 O2 1_555 1_555
Dy2 O6 1_555 1_555
F1 C27 1_555 1_555
F2 C47 1_555 1_555
F3 C8 1_555 1_555
F4 C47 1_555 1_555
F5 C38 1_555 1_555
F6 C4 1_555 1_555
F7 C4 1_555 1_555
F8 C27 1_555 1_555
F9 C35 1_555 1_555
F10 C40 1_555 1_555
F11 C40 1_555 1_555
F12 C27 1_555 1_555
F13 C24 1_555 1_555
F14 C25 1_555 1_555
F15 C47 1_555 1_555
F16 C19 1_555 1_555
F17 C35 1_555 1_555
F18 C35 1_555 1_555
F19 C4 1_555 1_555
F20 C40 1_555 1_555
O1 C9 1_555 1_555
O2 C9 1_555 1_555
O3 C20 1_555 1_555
O4 Dy1 1_555 1_555
O5 Dy1 1_555 1_555
O6 C28 1_555 1_555
O7 Dy1 1_555 1_555
O8 Dy1 1_555 1_555
O9 Dy1 1_555 1_555
O10 C13 1_555 1_555
O11 Dy1 1_555 1_555
O12 C26 1_555 1_555
N1 Dy2 1_555 1_555
N2 Dy2 1_555 1_555
C1 H1 1_555 1_555
C2 N1 1_555 1_555
C3 C4 1_555 1_555
C5 C12 1_555 1_555
C6 N1 1_555 1_555
H2 C6 1_555 1_555
C7 H3 1_555 1_555
C8 C23 1_555 1_555
C9 C10 1_555 1_555
C10 C11 1_555 1_555
C11 H4 1_555 1_555
C12 H5 1_555 1_555
C13 O11 1_555 1_555
C14 C1 1_555 1_555
C15 N2 1_555 1_555
H6 C15 1_555 1_555
C16 N2 1_555 1_555
C17 C10 1_555 1_555
H7 C17 1_555 1_555
C18 H8 1_555 1_555
C19 C3 1_555 1_555
C20 O9 1_555 1_555
C21 C25 1_555 1_555
C22 C20 1_555 1_555
C23 C22 1_555 1_555
H9 C23 1_555 1_555
C24 C33 1_555 1_555
C25 C17 1_555 1_555
C26 O5 1_555 1_555
C27 C30 1_555 1_555
C28 O7 1_555 1_555
C29 H10 1_555 1_555
C30 C36 1_555 1_555
C31 C26 1_555 1_555
C32 C29 1_555 1_555
H11 C32 1_555 1_555
C33 C32 1_555 1_555
C34 C5 1_555 1_555
H12 C34 1_555 1_555
C35 C33 1_555 1_555
C36 C12 1_555 1_555
H13 C36 1_555 1_555
C37 C22 1_555 1_555
H14 C37 1_555 1_555
C38 C30 1_555 1_555
C39 C24 1_555 1_555
H15 C39 1_555 1_555
C40 C45 1_555 1_555
C41 C6 1_555 1_555
H16 C41 1_555 1_555
C42 C11 1_555 1_555
H17 C42 1_555 1_555
C43 C16 1_555 1_555
H18 C43 1_555 1_555
C44 C43 1_555 1_555
H19 C44 1_555 1_555
C45 C8 1_555 1_555
C46 C1 1_555 1_555
H20 C46 1_555 1_555
C47 C21 1_555 1_555
C48 C15 1_555 1_555
H21 C48 1_555 1_555
C49 C37 1_555 1_555
H22 C49 1_555 1_555
C50 C2 1_555 1_555
H23 C50 1_555 1_555
H24 O8 1_555 1_555
H25 O4 1_555 1_555
H26 O4 1_555 1_555
Dy1B O8 1_555 1_555
Dy2_2 O10 1_555 1_555
Dy2B O3 1_555 1_555
O3B Dy2 1_555 1_555
O4B Dy2 1_555 1_555
O8B Dy2 1_555 1_555
O8B_2 Dy1 1_555 1_555
O10_2 Dy2 1_555 1_555
O12_2 Dy2 1_555 1_555
O4 Dy2B 1_555 1_555
O8 Dy2B 1_555 1_555
O12 Dy2_2 1_555 1_555
C2 C16 1_555 1_555
C3 C46 1_555 1_555
C5 C28 1_555 1_555
C7 C14 1_555 1_555
C7 C19 1_555 1_555
C13 C14 1_555 1_555
C18 C41 1_555 1_555
C18 C50 1_555 1_555
C21 C42 1_555 1_555
C29 C31 1_555 1_555
C31 C39 1_555 1_555
C34 C38 1_555 1_555
C44 C48 1_555 1_555
C45 C49 1_555 1_555
Dy1B O8B_2 1_555 1_555
Dy2_2 O8B_2 1_555 1_555

#END
