
#######################################################################
#
#                 Cambridge Crystallographic Data Centre
#                                CCDC 
#
#######################################################################
#
# If this CIF has been generated from an entry in the Cambridge 
# Structural Database, then it will include bibliographic, chemical, 
# crystal, experimental, refinement or atomic coordinate data resulting 
# from the CCDC's data processing and validation procedures.
#
#######################################################################

data_BOTDAR
_symmetry_cell_setting           monoclinic
_symmetry_space_group_name_H-M   'P 21'
_symmetry_Int_Tables_number      4
_space_group_name_Hall           'P 2yb'
loop_
_symmetry_equiv_pos_site_id
_symmetry_equiv_pos_as_xyz
1 x,y,z
2 -x,1/2+y,-z
_cell_length_a                   16.0773(6)
_cell_length_b                   32.033(2)
_cell_length_c                   23.3478(9)
_cell_angle_alpha                90
_cell_angle_beta                 107.376(4)
_cell_angle_gamma                90
_cell_volume                     11475.5
loop_
_atom_site_label
_atom_site_type_symbol
_atom_site_fract_x
_atom_site_fract_y
_atom_site_fract_z
Dy1 Dy 0.76077(2) -0.05714(3) 0.42543(2)
N1 N 0.7572(6) -0.1075(3) 0.3456(3)
N2 N 0.6112(6) -0.0671(3) 0.3510(3)
O1 O 0.6605(4) -0.0457(2) 0.4912(2)
O2 O 0.6882(5) -0.1082(2) 0.4715(3)
O3 O 0.8707(5) -0.1028(3) 0.4730(3)
O4 O 0.8896(5) -0.0417(3) 0.4112(3)
O5 O 0.7124(5) 0.0083(2) 0.3969(2)
O6 O 0.8318(4) -0.0208(2) 0.5115(2)
C1 C 0.8336(6) -0.1260(3) 0.3377(3)
C2 C 0.6773(6) -0.1186(4) 0.3060(3)
C3 C 0.6035(7) -0.1012(4) 0.3139(3)
C4 C 0.5392(7) -0.0450(3) 0.3552(4)
C5 C 0.6486(7) -0.0834(4) 0.4927(4)
Dy2 Dy 0.74003(3) 0.00880(3) 0.56321(2)
C6 C 0.9469(6) -0.1075(3) 0.5090(3)
C7 C 0.9362(6) -0.0092(3) 0.4103(3)
C8 C 0.6819(6) 0.0420(4) 0.4153(4)
Dy3 Dy 0.97467(2) -0.00983(3) 0.56170(2)
H1 H 0.8296 0.0049 0.4884
H2 H 0.8877 -0.1191 0.3641
C9 C 0.8294(8) -0.1533(4) 0.2927(4)
C10 C 0.6730(6) -0.1468(4) 0.2592(3)
C11 C 0.5191(7) -0.1117(3) 0.2781(3)
C12 C 0.4553(7) -0.0575(4) 0.3208(4)
H3 H 0.5463 -0.0220 0.3805
C13 C 0.5847(6) -0.1011(3) 0.5223(3)
O7 O 0.7000(5) 0.0471(3) 0.4731(2)
O8 O 0.6052(4) 0.0123(3) 0.5695(2)
O9 O 0.7801(4) -0.0609(2) 0.6024(2)
O10 O 0.7337(4) 0.0801(3) 0.5869(2)
O11 O 0.8824(4) 0.0331(2) 0.5989(2)
O12 O 0.7896(4) 0.0111(2) 0.6821(2)
C14 C 0.9827(6) -0.1494(3) 0.5110(3)
O13 O 0.9890(5) -0.0783(2) 0.5420(2)
C15 C 0.9757(6) 0.0085(3) 0.3639(3)
O14 O 0.9742(4) -0.0010(2) 0.4635(2)
C16 C 0.6308(6) 0.0705(3) 0.3743(3)
O15 O 0.9211(4) -0.0477(2) 0.6349(2)
O16 O 1.1180(4) -0.0089(2) 0.5667(2)
O17 O 1.0178(5) 0.0612(2) 0.5630(2)
O18 O 1.0516(4) 0.0059(2) 0.6630(2)
H4 H 0.8802 -0.1647 0.2879
C17 C 0.7467(7) -0.1643(4) 0.2527(4)
H5 H 0.6192 -0.1542 0.2328
H6 H 0.5121 -0.1346 0.2526
C18 C 0.4490(7) -0.0904(3) 0.2788(3)
H7 H 0.4057 -0.0447 0.3254
C19 C 0.5331(6) -0.0714(3) 0.5373(3)
C20 C 0.5840(7) -0.1411(3) 0.5402(4)
C21 C 0.5657(6) 0.0479(4) 0.5945(3)
C22 C 0.8569(5) -0.0730(3) 0.6264(2)
C23 C 0.7241(6) 0.1101(3) 0.6214(3)
Dy4 Dy 0.93396(2) 0.01604(3) 0.70194(2)
H8 H 0.8879 0.0629 0.5910
Dy5 Dy 0.71901(3) 0.04915(3) 0.73087(2)
H9 H 0.7807 -0.0176 0.6936
C24 C 1.0674(6) -0.1558(3) 0.5442(3)
C25 C 0.9297(7) -0.1826(3) 0.4818(4)
C26 C 0.9330(7) 0.0138(4) 0.3056(4)
C27 C 1.0620(6) 0.0224(4) 0.3869(4)
C28 C 0.6178(6) 0.0652(4) 0.3142(4)
C29 C 0.5905(8) 0.1034(4) 0.3967(4)
C30 C 1.1947(7) -0.0087(4) 0.5594(4)
Dy6 Dy 1.16748(3) 0.04725(3) 0.65232(2)
C31 C 1.0626(6) 0.0831(3) 0.5399(3)
H10 H 1.0784 -0.0205 0.6804
H11 H 0.7431 -0.1835 0.2222
H12 H 0.3952 -0.0969 0.2517
H13 H 0.5382 -0.0434 0.5283
C32 C 0.4737(6) -0.0838(4) 0.5658(4)
C33 C 0.5246(7) -0.1540(3) 0.5701(4)
H14 H 0.6230 -0.1602 0.5326
C34 C 0.5001(7) 0.0727(5) 0.5531(4)
O19 O 0.5923(5) 0.0536(3) 0.6475(2)
C35 C 0.8809(6) -0.1175(3) 0.6294(3)
C36 C 0.6940(6) 0.1501(3) 0.5933(3)
O20 O 0.7383(5) 0.1050(2) 0.6773(2)
O21 O 0.9724(5) 0.0880(2) 0.6948(2)
O22 O 1.0805(4) 0.0161(2) 0.7861(2)
O23 O 0.9138(5) -0.0441(2) 0.7544(2)
O24 O 0.8768(5) 0.0539(2) 0.7607(2)
O25 O 0.7310(5) 0.1141(2) 0.7992(2)
O26 O 0.6872(4) -0.0189(2) 0.7483(2)
O27 O 0.6003(4) 0.0400(2) 0.7680(2)
O28 O 0.7780(4) 0.0443(2) 0.8547(2)
H15 H 1.1014 -0.1337 0.5642
C37 C 1.1031(7) -0.1969(3) 0.5478(4)
C38 C 0.9635(7) -0.2228(4) 0.4842(4)
H16 H 0.8716 -0.1776 0.4607
H17 H 0.8766 0.0034 0.2912
C39 C 0.9674(7) 0.0335(4) 0.2661(4)
C40 C 1.0969(8) 0.0431(4) 0.3454(4)
H18 H 1.0943 0.0183 0.4268
H19 H 0.6424 0.0424 0.3005
C41 C 0.5683(7) 0.0934(3) 0.2738(3)
C42 C 0.5425(9) 0.1338(4) 0.3565(4)
H20 H 0.5955 0.1049 0.4373
C43 C 1.2101(7) -0.0292(3) 0.5087(4)
O29 O 1.2518(4) 0.0165(3) 0.5887(3)
O30 O 1.1434(4) 0.0882(2) 0.5637(2)
O31 O 1.0823(5) 0.1020(3) 0.6581(2)
O32 O 1.2099(5) 0.0530(3) 0.7572(2)
O33 O 1.2226(5) -0.0169(2) 0.6907(3)
O34 O 1.3048(5) 0.0772(3) 0.6861(3)
C44 C 1.0110(6) 0.0987(3) 0.4790(3)
C45 C 0.4690(7) -0.1269(3) 0.5847(3)
F1 F 0.4190(4) -0.0578(2) 0.5816(2)
H21 H 0.5233 -0.1820 0.5802
C46 C 0.4773(7) 0.1114(4) 0.5731(4)
C47 C 0.4675(6) 0.0611(4) 0.4952(3)
C48 C 0.9603(7) -0.1325(4) 0.6626(4)
C49 C 0.8168(6) -0.1448(3) 0.5971(4)
C50 C 0.6978(6) 0.1590(3) 0.5338(3)
C51 C 0.6610(7) 0.1805(4) 0.6244(4)
C52 C 1.0185(6) 0.1122(3) 0.6783(4)
C53 C 1.0800(6) 0.0128(4) 0.8412(3)
C54 C 0.8974(7) -0.0446(3) 0.8093(3)
Dy7 Dy 0.91059(2) 0.05543(3) 0.87017(2)
H22 H 0.8874 0.0827 0.7506
C55 C 0.7960(6) 0.1369(3) 0.8129(3)
Dy8 Dy 0.67632(2) 0.07620(3) 0.87048(2)
C56 C 0.6223(8) -0.0434(4) 0.7499(4)
Dy9 Dy 0.47172(3) 0.02768(3) 0.76817(2)
H23 H 0.6204 0.0123 0.7840
H24 H 0.7722 0.0151 0.8653
C57 C 1.0505(6) -0.2293(3) 0.5170(3)
F2 F 1.1856(4) -0.2041(2) 0.5793(2)
H25 H 0.9290 -0.2448 0.4643
C58 C 1.0496(7) 0.0477(4) 0.2853(3)
F3 F 0.9169(4) 0.0379(2) 0.2074(2)
H26 H 1.1531 0.0539 0.3588
C59 C 0.5320(8) 0.1279(3) 0.2923(3)
F4 F 0.5573(4) 0.0887(2) 0.2144(2)
H27 H 0.5184 0.1568 0.3702
C60 C 1.2755(6) -0.0176(4) 0.4848(3)
C61 C 1.1598(6) -0.0640(4) 0.4856(3)
H28 H 1.2714 0.0583 0.7716
H29 H 1.1971 0.0274 0.7743
C62 C 1.0524(7) 0.1215(4) 0.4452(3)
C63 C 0.9214(7) 0.0928(3) 0.4583(3)
C64 C 0.4079(7) -0.1383(4) 0.6208(4)
H30 H 0.5061 0.1207 0.6117
C65 C 0.4146(7) 0.1347(4) 0.5370(3)
C66 C 0.4014(7) 0.0852(4) 0.4558(3)
H31 H 0.4886 0.0373 0.4813
H32 H 1.0048 -0.1138 0.6802
C67 C 0.9757(5) -0.1753(3) 0.6706(3)
C68 C 0.8335(7) -0.1893(3) 0.6028(4)
H33 H 0.7641 -0.1347 0.5723
H34 H 0.7222 0.1398 0.5136
C69 C 0.6656(7) 0.1958(3) 0.5073(3)
C70 C 0.6283(7) 0.2182(4) 0.5951(3)
H35 H 0.6607 0.1757 0.6636
C71 C 0.9981(6) 0.1559(3) 0.6830(3)
C72 C 1.1077(7) -0.0309(4) 0.8594(3)
O35 O 1.0616(5) 0.0456(3) 0.8676(3)
C73 C 0.9048(8) -0.0873(4) 0.8363(4)
O36 O 0.8995(5) -0.0146(2) 0.8382(3)
O37 O 0.8744(5) 0.1266(2) 0.8331(2)
O38 O 0.9827(4) 0.1062(2) 0.9222(2)
O39 O 0.9381(5) 0.0152(3) 0.9568(2)
O40 O 0.8215(4) 0.0882(2) 0.9233(2)
C74 C 0.7788(7) 0.1817(4) 0.8013(4)
O41 O 0.5242(4) 0.0780(3) 0.8605(2)
O42 O 0.6669(4) 0.1447(3) 0.8921(2)
O43 O 0.6638(5) 0.0758(3) 0.9628(2)
O44 O 0.6395(5) 0.0082(2) 0.8806(3)
C75 C 0.6327(8) -0.0902(4) 0.7526(4)
O45 O 0.5485(5) -0.0316(2) 0.7489(3)
O46 O 0.3480(4) -0.0138(2) 0.7509(2)
O47 O 0.4378(5) 0.0937(2) 0.7278(3)
O48 O 0.3883(4) 0.0577(3) 0.8297(2)
O49 O 0.5093(5) -0.0188(3) 0.8576(2)
O50 O 0.4260(5) 0.0175(3) 0.6588(2)
C76 C 1.0860(7) -0.2738(4) 0.5216(4)
C77 C 1.0848(7) 0.0726(3) 0.2416(3)
C78 C 0.4740(7) 0.1571(4) 0.2486(4)
H36 H 1.3097 0.0055 0.5003
C79 C 1.2913(7) -0.0399(3) 0.4379(3)
C80 C 1.1739(7) -0.0862(4) 0.4381(4)
H37 H 1.1164 -0.0725 0.5019
H38 H 1.1123 0.1260 0.4594
C81 C 1.0033(7) 0.1383(4) 0.3883(4)
C82 C 0.8743(7) 0.1092(4) 0.4032(3)
H39 H 0.8931 0.0781 0.4813
F5 F 0.4048(4) -0.1064(2) 0.6571(2)
F6 F 0.4489(4) -0.1726(2) 0.6508(2)
F7 F 0.3303(4) -0.1475(2) 0.5811(2)
H40 H 0.3956 0.1587 0.5518
C83 C 0.3767(8) 0.1231(4) 0.4761(3)
F8 F 0.3676(4) 0.0743(2) 0.3987(2)
C84 C 0.9137(7) -0.2035(4) 0.6383(4)
F9 F 1.0541(4) -0.1899(2) 0.7066(2)
H41 H 0.7908 -0.2082 0.5827
C85 C 0.6299(7) 0.2249(3) 0.5355(4)
F10 F 0.6673(4) 0.2028(2) 0.4497(2)
H42 H 0.6059 0.2385 0.6148
C86 C 1.0584(7) 0.1852(4) 0.6733(3)
C87 C 0.9156(6) 0.1689(4) 0.6845(4)
C88 C 1.1088(7) -0.0459(3) 0.9162(4)
C89 C 1.1334(7) -0.0571(4) 0.8203(4)
C90 C 0.9111(8) -0.1260(4) 0.8062(4)
C91 C 0.9063(8) -0.0898(4) 0.8963(4)
C92 C 1.0019(6) 0.1395(3) 0.9320(3)
Dy10 Dy 0.89291(2) 0.12336(3) 1.00605(2)
C93 C 0.9450(6) 0.0203(3) 1.0106(3)
H43 H 0.8229 0.0627 0.9469
C94 C 0.6960(7) 0.1958(4) 0.7775(4)
C95 C 0.8472(7) 0.2108(4) 0.8119(4)
C96 C 0.4498(6) 0.0793(4) 0.8647(4)
C97 C 0.7091(6) 0.1744(3) 0.9223(4)
C98 C 0.6917(6) 0.0837(4) 1.0181(3)
C99 C 0.5887(6) -0.0222(3) 0.8872(4)
C100 C 0.7127(8) -0.1075(4) 0.7434(4)
C101 C 0.5739(7) -0.1144(4) 0.7618(4)
C102 C 0.2842(6) -0.0359(4) 0.7224(3)
C103 C 0.3639(6) 0.1053(3) 0.6961(3)
H44 H 0.3649 0.0111 0.6452
H45 H 0.4584 -0.0050 0.6487
F11 F 1.1307(4) -0.2816(2) 0.5790(2)
F12 F 1.0228(4) -0.2999(2) 0.5029(2)
F13 F 1.1434(5) -0.2834(3) 0.4909(3)
F14 F 1.0313(4) 0.1061(2) 0.2229(2)
F15 F 1.0793(4) 0.0480(2) 0.1958(2)
F16 F 1.1642(4) 0.0864(3) 0.2652(2)
F17 F 0.4424(5) 0.1857(2) 0.2793(2)
F18 F 0.4095(4) 0.1374(2) 0.2111(2)
F19 F 0.5220(4) 0.1771(2) 0.2198(2)
C104 C 1.2409(9) -0.0745(4) 0.4152(4)
F20 F 1.3551(4) -0.0284(2) 0.4143(2)
H46 H 1.1385 -0.1088 0.4218
C105 C 0.9146(7) 0.1317(4) 0.3691(4)
F21 F 1.0275(5) 0.1596(2) 0.3452(2)
H47 H 0.8145 0.1048 0.3891
C106 C 0.2980(9) 0.1453(4) 0.4338(3)
C107 C 0.9324(7) -0.2501(4) 0.6409(3)
C108 C 0.5976(7) 0.2657(3) 0.5063(4)
H48 H 1.1127 0.1766 0.6712
C109 C 1.0334(7) 0.2293(4) 0.6667(4)
C110 C 0.8917(7) 0.2104(4) 0.6789(5)
H49 H 0.8760 0.1490 0.6893
H50 H 1.0947 -0.0281 0.9434
C111 C 1.1310(7) -0.0869(4) 0.9318(4)
C112 C 1.1576(7) -0.0981(4) 0.8369(3)
H51 H 1.1345 -0.0472 0.7830
H52 H 0.9094 -0.1261 0.7661
C113 C 0.9195(8) -0.1623(4) 0.8376(5)
C114 C 0.9150(8) -0.1260(4) 0.9252(4)
H53 H 0.9010 -0.0655 0.9165
C115 C 1.0685(7) 0.1583(3) 0.9051(4)
O51 O 0.9781(5) 0.1657(3) 0.9620(2)
N3 N 0.8935(6) 0.1712(3) 1.0890(3)
N4 N 1.0378(6) 0.1311(3) 1.0838(3)
O52 O 0.7859(5) 0.1702(2) 0.9558(2)
O53 O 0.7336(5) 0.1174(3) 1.0347(2)
O54 O 0.9439(5) 0.0558(3) 1.0349(2)
C116 C 0.9441(6) -0.0170(3) 1.0488(3)
H54 H 0.6509 0.1765 0.7663
C117 C 0.6759(7) 0.2383(4) 0.7691(4)
C118 C 0.8292(8) 0.2536(4) 0.8040(4)
H55 H 0.9046 0.2016 0.8243
C119 C 0.4359(7) 0.1060(3) 0.9117(3)
C120 C 0.6719(7) 0.2169(3) 0.9186(3)
C121 C 0.6831(6) 0.0550(4) 1.0665(3)
C122 C 0.6069(6) -0.0565(4) 0.9259(3)
H56 H 0.7562 -0.0903 0.7378
C123 C 0.7199(7) -0.1505(4) 0.7433(4)
C124 C 0.5805(7) -0.1578(3) 0.7618(4)
H57 H 0.5251 -0.1025 0.7688
C125 C 0.2900(7) -0.0824(4) 0.7336(4)
C126 C 0.3498(7) 0.1481(3) 0.6735(3)
C127 C 1.2504(7) -0.0973(4) 0.3619(4)
C128 C 0.8653(9) 0.1479(4) 0.3079(4)
F22 F 0.3276(4) 0.1703(2) 0.3917(2)
F23 F 0.2719(4) 0.1698(2) 0.4638(2)
F24 F 0.2427(4) 0.1214(2) 0.3988(2)
F25 F 0.9359(4) -0.2628(2) 0.6948(2)
F26 F 1.0110(4) -0.2538(2) 0.6340(2)
F27 F 0.8763(4) -0.2726(2) 0.5990(2)
F28 F 0.6581(5) 0.2965(3) 0.5303(2)
F29 F 0.5249(4) 0.2774(2) 0.5199(2)
F30 F 0.5836(4) 0.2622(2) 0.4468(2)
C129 C 0.9479(7) 0.2410(3) 0.6691(4)
F31 F 1.0868(4) 0.2564(2) 0.6554(2)
H58 H 0.8374 0.2181 0.6818
C130 C 1.1571(7) -0.1120(4) 0.8929(4)
F32 F 1.1352(4) -0.1054(3) 0.9861(2)
H59 H 1.1740 -0.1159 0.8107
C131 C 0.9206(8) -0.1642(4) 0.8959(5)
F33 F 0.9444(4) -0.1988(2) 0.8114(2)
H60 H 0.9175 -0.1263 0.9656
C132 C 1.0883(7) 0.2012(3) 0.9158(4)
C133 C 1.1072(8) 0.1346(4) 0.8692(4)
C134 C 0.8083(7) 0.1858(3) 1.0887(3)
C135 C 0.9683(7) 0.1853(4) 1.1286(4)
C136 C 1.0466(6) 0.1646(4) 1.1233(3)
C137 C 1.1106(7) 0.1090(3) 1.0780(4)
C138 C 0.9184(7) -0.0160(3) 1.1013(4)
C139 C 0.9859(7) -0.0521(3) 1.0355(4)
C140 C 0.7451(7) 0.2673(3) 0.7817(3)
F34 F 0.5982(4) 0.2550(2) 0.7481(2)
H61 H 0.8747 0.2727 0.8140
C141 C 0.3567(6) 0.1065(3) 0.9215(3)
C142 C 0.4961(8) 0.1340(4) 0.9434(4)
C143 C 0.5834(8) 0.2195(4) 0.8894(3)
C144 C 0.7191(7) 0.2535(4) 0.9389(4)
C145 C 0.6307(7) 0.0193(4) 1.0511(3)
C146 C 0.7293(6) 0.0617(3) 1.1259(3)
C147 C 0.6942(6) -0.0586(3) 0.9583(3)
C148 C 0.5470(7) -0.0882(4) 0.9272(4)
C149 C 0.6540(8) -0.1756(4) 0.7504(4)
F35 F 0.7945(5) -0.1683(2) 0.7418(2)
H62 H 0.5374 -0.1745 0.7691
C150 C 0.3589(6) -0.0972(3) 0.7807(3)
C151 C 0.2283(7) -0.1082(4) 0.6988(4)
C152 C 0.2778(8) 0.1612(4) 0.6285(4)
C153 C 0.4184(6) 0.1762(3) 0.6961(3)
F36 F 1.3213(5) -0.0803(2) 0.3490(3)
F37 F 1.1822(5) -0.0932(2) 0.3155(2)
F38 F 1.2700(5) -0.1374(2) 0.3756(2)
F39 F 0.8996(5) 0.1378(3) 0.2646(2)
F40 F 0.7844(4) 0.1307(2) 0.2918(2)
F41 F 0.8526(4) 0.1897(2) 0.3029(2)
C154 C 0.9197(8) 0.2835(4) 0.6619(4)
C155 C 1.1862(7) -0.1571(3) 0.9115(4)
C156 C 0.9324(8) -0.2046(4) 0.9307(4)
H63 H 1.0604 0.2169 0.9381
C157 C 1.1494(6) 0.2196(3) 0.8929(3)
C158 C 1.1644(7) 0.1557(4) 0.8434(3)
H64 H 1.0955 0.1063 0.8626
H65 H 0.7579 0.1755 1.0612
C159 C 0.8044(7) 0.2164(3) 1.1322(3)
C160 C 0.9629(8) 0.2144(3) 1.1725(3)
C161 C 1.1312(7) 0.1761(4) 1.1580(3)
C162 C 1.1936(7) 0.1215(5) 1.1113(4)
H66 H 1.1032 0.0863 1.0521
H67 H 0.8929 0.0078 1.1115
C163 C 0.9311(7) -0.0494(4) 1.1361(4)
C164 C 1.0016(8) -0.0873(4) 1.0739(4)
H68 H 1.0037 -0.0525 1.0011
C165 C 0.7142(8) 0.3100(4) 0.7677(4)
H69 H 0.3141 0.0883 0.8993
C166 C 0.3361(6) 0.1323(3) 0.9622(3)
C167 C 0.4816(7) 0.1600(4) 0.9861(4)
H70 H 0.5495 0.1356 0.9357
H71 H 0.5520 0.1954 0.8747
C168 C 0.5418(6) 0.2575(3) 0.8820(3)
C169 C 0.6789(7) 0.2916(4) 0.9327(4)
H72 H 0.7789 0.2519 0.9570
H73 H 0.5996 0.0138 1.0114
C170 C 0.6265(7) -0.0077(4) 1.0975(4)
C171 C 0.7245(8) 0.0349(4) 1.1704(4)
H74 H 0.7647 0.0852 1.1359
H75 H 0.7326 -0.0378 0.9545
C172 C 0.7235(8) -0.0921(4) 0.9968(5)
C173 C 0.5792(7) -0.1224(4) 0.9660(4)
H76 H 0.4891 -0.0868 0.9038
C174 C 0.6661(6) -0.2223(3) 0.7538(4)
H77 H 0.3980 -0.0786 0.8054
C175 C 0.3686(6) -0.1396(4) 0.7905(3)
C176 C 0.2359(9) -0.1525(4) 0.7075(5)
H78 H 0.1810 -0.0972 0.6693
H79 H 0.2326 0.1425 0.6129
C177 C 0.2706(7) 0.2013(4) 0.6060(4)
C178 C 0.4126(6) 0.2166(4) 0.6750(3)
H80 H 0.4683 0.1675 0.7256
F42 F 0.9359(4) 0.3017(2) 0.6133(2)
F43 F 0.9580(4) 0.3085(2) 0.7086(2)
F44 F 0.8323(4) 0.2885(2) 0.6535(2)
F45 F 1.1428(4) -0.1775(2) 0.9442(2)
F46 F 1.2692(4) -0.1568(2) 0.9446(2)
F47 F 1.1819(4) -0.1811(2) 0.8626(2)
F48 F 1.0056(4) -0.2258(2) 0.9275(2)
F49 F 0.8643(4) -0.2276(2) 0.9021(2)
F50 F 0.9374(5) -0.2032(2) 0.9867(2)
C179 C 1.1894(7) 0.1963(4) 0.8567(4)
F51 F 1.1722(5) 0.2589(2) 0.9044(2)
H81 H 1.1862 0.1414 0.8163
H82 H 0.7509 0.2274 1.1323
C180 C 0.8829(8) 0.2302(4) 1.1757(4)
H83 H 1.0140 0.2234 1.2004
H84 H 1.1385 0.1977 1.1855
C181 C 1.2032(8) 0.1558(4) 1.1517(4)
H85 H 1.2424 0.1076 1.1073
C182 C 0.9731(7) -0.0864(3) 1.1264(3)
F52 F 0.9027(5) -0.0477(3) 1.1873(2)
H86 H 1.0300 -0.1107 1.0652
F53 F 0.6291(4) 0.3198(2) 0.7393(2)
F54 F 0.7377(4) 0.3368(2) 0.8148(2)
F55 F 0.7614(4) 0.3208(2) 0.7310(2)
C183 C 0.3993(7) 0.1608(3) 0.9951(4)
F56 F 0.2588(4) 0.1315(2) 0.9718(2)
H87 H 0.5262 0.1769 1.0090
C184 C 0.5875(5) 0.2938(3) 0.9053(3)
F57 F 0.4550(4) 0.2594(2) 0.8539(2)
H88 H 0.7110 0.3157 0.9461
C185 C 0.6717(6) 0.0010(3) 1.1555(3)
F58 F 0.5699(5) -0.0404(2) 1.0788(2)
H89 H 0.7567 0.0398 1.2101
C186 C 0.6681(7) -0.1233(4) 1.0009(4)
F59 F 0.8077(4) -0.0935(3) 1.0296(3)
H90 H 0.5422 -0.1442 0.9685
F60 F 0.7486(4) -0.2345(2) 0.7813(2)
F61 F 0.6470(4) -0.2370(2) 0.6963(2)
F62 F 0.6208(4) -0.2392(2) 0.7905(2)
C187 C 0.3047(7) -0.1674(3) 0.7548(3)
F63 F 0.4333(4) -0.1539(2) 0.8347(2)
H91 H 0.1963 -0.1707 0.6823
C188 C 0.3377(7) 0.2292(4) 0.6297(4)
F64 F 0.1956(4) 0.2128(2) 0.5632(2)
H92 H 0.4579 0.2354 0.6906
C189 C 1.2505(8) 0.2182(4) 0.8293(4)
H93 H 0.8809 0.2492 1.2054
H94 H 1.2586 0.1645 1.1740
C190 C 0.9848(7) -0.1234(3) 1.1664(4)
C191 C 0.3790(7) 0.1884(4) 1.0387(4)
C192 C 0.5338(7) 0.3328(4) 0.9031(4)
C193 C 0.6600(7) -0.0291(4) 1.2053(4)
C194 C 0.6998(7) -0.1610(4) 1.0394(3)
C195 C 0.3058(7) -0.2169(4) 0.7606(4)
C196 C 0.3315(7) 0.2736(4) 0.6038(3)
F65 F 1.2727(5) 0.2586(2) 0.8495(2)
F66 F 1.3275(4) 0.1984(2) 0.8382(2)
F67 F 1.2107(5) 0.2204(2) 0.7722(2)
F68 F 0.9123(4) -0.1409(2) 1.1688(2)
F69 F 1.0374(4) -0.1510(2) 1.1552(2)
F70 F 1.0251(5) -0.1080(2) 1.2221(2)
F71 F 0.3761(5) 0.1746(2) 1.0947(2)
F72 F 0.3005(4) 0.2037(3) 1.0127(2)
F73 F 0.4351(4) 0.2210(2) 1.0520(2)
F74 F 0.4962(4) 0.3328(2) 0.9489(2)
F75 F 0.4679(4) 0.3366(2) 0.8522(2)
F76 F 0.5815(4) 0.3686(2) 0.9034(2)
F77 F 0.6589(5) -0.0692(2) 1.1829(2)
F78 F 0.5878(4) -0.0271(2) 1.2245(3)
F79 F 0.7291(4) -0.0268(2) 1.2506(2)
F80 F 0.6547(4) -0.1938(2) 1.0143(2)
F81 F 0.6930(4) -0.1556(2) 1.0943(2)
F82 F 0.7846(4) -0.1668(2) 1.0439(2)
F83 F 0.3756(4) -0.2354(2) 0.7480(2)
F84 F 0.2327(4) -0.2317(2) 0.7236(2)
F85 F 0.3110(5) -0.2268(2) 0.8175(2)
F86 F 0.2627(4) 0.2921(2) 0.6143(2)
F87 F 0.3176(5) 0.2744(2) 0.5446(2)
F88 F 0.4006(4) 0.2983(2) 0.6283(2)
O33_2 O 0.2226(5) -0.0169(2) 0.6907(3)
O34_2 O 0.3048(5) 0.0772(3) 0.6861(3)
Dy6_2 Dy 0.16748(3) 0.04725(3) 0.65232(2)
loop_
_geom_bond_atom_site_label_1
_geom_bond_atom_site_label_2
_geom_bond_site_symmetry_1
_geom_bond_site_symmetry_2
Dy1 N1 1_555 1_555
N1 C1 1_555 1_555
N2 Dy1 1_555 1_555
O1 Dy1 1_555 1_555
O2 Dy1 1_555 1_555
O3 Dy1 1_555 1_555
O4 Dy1 1_555 1_555
O5 Dy1 1_555 1_555
O6 Dy1 1_555 1_555
C1 H2 1_555 1_555
C2 N1 1_555 1_555
C3 N2 1_555 1_555
C4 N2 1_555 1_555
C5 O1 1_555 1_555
Dy2 O1 1_555 1_555
C6 O3 1_555 1_555
C7 O4 1_555 1_555
C8 O5 1_555 1_555
Dy3 O6 1_555 1_555
H1 O6 1_555 1_555
C9 C1 1_555 1_555
C10 C2 1_555 1_555
C11 C3 1_555 1_555
C12 C4 1_555 1_555
H3 C4 1_555 1_555
C13 C5 1_555 1_555
O7 Dy2 1_555 1_555
O8 Dy2 1_555 1_555
O9 Dy2 1_555 1_555
O10 Dy2 1_555 1_555
O11 Dy2 1_555 1_555
O12 Dy2 1_555 1_555
C14 C6 1_555 1_555
O13 C6 1_555 1_555
C15 C7 1_555 1_555
O14 C7 1_555 1_555
C16 C8 1_555 1_555
O15 Dy3 1_555 1_555
O16 Dy3 1_555 1_555
O17 Dy3 1_555 1_555
O18 Dy3 1_555 1_555
H4 C9 1_555 1_555
C17 C9 1_555 1_555
H5 C10 1_555 1_555
H6 C11 1_555 1_555
C18 C11 1_555 1_555
H7 C12 1_555 1_555
C19 C13 1_555 1_555
C20 C13 1_555 1_555
C21 O8 1_555 1_555
C22 O9 1_555 1_555
C23 O10 1_555 1_555
Dy4 O11 1_555 1_555
H8 O11 1_555 1_555
Dy5 O12 1_555 1_555
H9 O12 1_555 1_555
C24 C14 1_555 1_555
C25 C14 1_555 1_555
C26 C15 1_555 1_555
C27 C15 1_555 1_555
C28 C16 1_555 1_555
C29 C16 1_555 1_555
C30 O16 1_555 1_555
Dy6 O16 1_555 1_555
C31 O17 1_555 1_555
H10 O18 1_555 1_555
H11 C17 1_555 1_555
H12 C18 1_555 1_555
H13 C19 1_555 1_555
C32 C19 1_555 1_555
C33 C20 1_555 1_555
H14 C20 1_555 1_555
C34 C21 1_555 1_555
O19 C21 1_555 1_555
C35 C22 1_555 1_555
C36 C23 1_555 1_555
O20 C23 1_555 1_555
O21 Dy4 1_555 1_555
O22 Dy4 1_555 1_555
O23 Dy4 1_555 1_555
O24 Dy4 1_555 1_555
O25 Dy5 1_555 1_555
O26 Dy5 1_555 1_555
O27 Dy5 1_555 1_555
O28 Dy5 1_555 1_555
H15 C24 1_555 1_555
C37 C24 1_555 1_555
C38 C25 1_555 1_555
H16 C25 1_555 1_555
H17 C26 1_555 1_555
C39 C26 1_555 1_555
C40 C27 1_555 1_555
H18 C27 1_555 1_555
H19 C28 1_555 1_555
C41 C28 1_555 1_555
C42 C29 1_555 1_555
H20 C29 1_555 1_555
C43 C30 1_555 1_555
O29 C30 1_555 1_555
O30 Dy6 1_555 1_555
O31 Dy6 1_555 1_555
O32 Dy6 1_555 1_555
O33 Dy6 1_555 1_555
O34 Dy6 1_555 1_555
C44 C31 1_555 1_555
C45 C32 1_555 1_555
F1 C32 1_555 1_555
H21 C33 1_555 1_555
C46 C34 1_555 1_555
C47 C34 1_555 1_555
C48 C35 1_555 1_555
C49 C35 1_555 1_555
C50 C36 1_555 1_555
C51 C36 1_555 1_555
C52 O21 1_555 1_555
C53 O22 1_555 1_555
C54 O23 1_555 1_555
Dy7 O24 1_555 1_555
H22 O24 1_555 1_555
C55 O25 1_555 1_555
Dy8 O25 1_555 1_555
C56 O26 1_555 1_555
Dy9 O27 1_555 1_555
H23 O27 1_555 1_555
H24 O28 1_555 1_555
C57 C37 1_555 1_555
F2 C37 1_555 1_555
H25 C38 1_555 1_555
C58 C39 1_555 1_555
F3 C39 1_555 1_555
H26 C40 1_555 1_555
C59 C41 1_555 1_555
F4 C41 1_555 1_555
H27 C42 1_555 1_555
C60 C43 1_555 1_555
C61 C43 1_555 1_555
H28 O32 1_555 1_555
H29 O32 1_555 1_555
C62 C44 1_555 1_555
C63 C44 1_555 1_555
C64 C45 1_555 1_555
H30 C46 1_555 1_555
C65 C46 1_555 1_555
C66 C47 1_555 1_555
H31 C47 1_555 1_555
H32 C48 1_555 1_555
C67 C48 1_555 1_555
C68 C49 1_555 1_555
H33 C49 1_555 1_555
H34 C50 1_555 1_555
C69 C50 1_555 1_555
C70 C51 1_555 1_555
H35 C51 1_555 1_555
C71 C52 1_555 1_555
C72 C53 1_555 1_555
O35 C53 1_555 1_555
C73 C54 1_555 1_555
O36 C54 1_555 1_555
O37 Dy7 1_555 1_555
O38 Dy7 1_555 1_555
O39 Dy7 1_555 1_555
O40 Dy7 1_555 1_555
C74 C55 1_555 1_555
O41 Dy8 1_555 1_555
O42 Dy8 1_555 1_555
O43 Dy8 1_555 1_555
O44 Dy8 1_555 1_555
C75 C56 1_555 1_555
O45 C56 1_555 1_555
O46 Dy9 1_555 1_555
O47 Dy9 1_555 1_555
O48 Dy9 1_555 1_555
O49 Dy9 1_555 1_555
O50 Dy9 1_555 1_555
C76 C57 1_555 1_555
C77 C58 1_555 1_555
C78 C59 1_555 1_555
H36 C60 1_555 1_555
C79 C60 1_555 1_555
C80 C61 1_555 1_555
H37 C61 1_555 1_555
H38 C62 1_555 1_555
C81 C62 1_555 1_555
C82 C63 1_555 1_555
H39 C63 1_555 1_555
F5 C64 1_555 1_555
F6 C64 1_555 1_555
F7 C64 1_555 1_555
H40 C65 1_555 1_555
C83 C65 1_555 1_555
F8 C66 1_555 1_555
C84 C67 1_555 1_555
F9 C67 1_555 1_555
H41 C68 1_555 1_555
C85 C69 1_555 1_555
F10 C69 1_555 1_555
H42 C70 1_555 1_555
C86 C71 1_555 1_555
C87 C71 1_555 1_555
C88 C72 1_555 1_555
C89 C72 1_555 1_555
C90 C73 1_555 1_555
C91 C73 1_555 1_555
C92 O38 1_555 1_555
Dy10 O38 1_555 1_555
C93 O39 1_555 1_555
H43 O40 1_555 1_555
C94 C74 1_555 1_555
C95 C74 1_555 1_555
C96 O41 1_555 1_555
C97 O42 1_555 1_555
C98 O43 1_555 1_555
C99 O44 1_555 1_555
C100 C75 1_555 1_555
C101 C75 1_555 1_555
C102 O46 1_555 1_555
C103 O47 1_555 1_555
H44 O50 1_555 1_555
H45 O50 1_555 1_555
F11 C76 1_555 1_555
F12 C76 1_555 1_555
F13 C76 1_555 1_555
F14 C77 1_555 1_555
F15 C77 1_555 1_555
F16 C77 1_555 1_555
F17 C78 1_555 1_555
F18 C78 1_555 1_555
F19 C78 1_555 1_555
C104 C79 1_555 1_555
F20 C79 1_555 1_555
H46 C80 1_555 1_555
C105 C81 1_555 1_555
F21 C81 1_555 1_555
H47 C82 1_555 1_555
C106 C83 1_555 1_555
C107 C84 1_555 1_555
C108 C85 1_555 1_555
H48 C86 1_555 1_555
C109 C86 1_555 1_555
C110 C87 1_555 1_555
H49 C87 1_555 1_555
H50 C88 1_555 1_555
C111 C88 1_555 1_555
C112 C89 1_555 1_555
H51 C89 1_555 1_555
H52 C90 1_555 1_555
C113 C90 1_555 1_555
C114 C91 1_555 1_555
H53 C91 1_555 1_555
C115 C92 1_555 1_555
O51 C92 1_555 1_555
N3 Dy10 1_555 1_555
N4 Dy10 1_555 1_555
O52 Dy10 1_555 1_555
O53 Dy10 1_555 1_555
O54 Dy10 1_555 1_555
C116 C93 1_555 1_555
H54 C94 1_555 1_555
C117 C94 1_555 1_555
C118 C95 1_555 1_555
H55 C95 1_555 1_555
C119 C96 1_555 1_555
C120 C97 1_555 1_555
C121 C98 1_555 1_555
C122 C99 1_555 1_555
H56 C100 1_555 1_555
C123 C100 1_555 1_555
C124 C101 1_555 1_555
H57 C101 1_555 1_555
C125 C102 1_555 1_555
C126 C103 1_555 1_555
C127 C104 1_555 1_555
C128 C105 1_555 1_555
F22 C106 1_555 1_555
F23 C106 1_555 1_555
F24 C106 1_555 1_555
F25 C107 1_555 1_555
F26 C107 1_555 1_555
F27 C107 1_555 1_555
F28 C108 1_555 1_555
F29 C108 1_555 1_555
F30 C108 1_555 1_555
C129 C109 1_555 1_555
F31 C109 1_555 1_555
H58 C110 1_555 1_555
C130 C111 1_555 1_555
F32 C111 1_555 1_555
H59 C112 1_555 1_555
C131 C113 1_555 1_555
F33 C113 1_555 1_555
H60 C114 1_555 1_555
C132 C115 1_555 1_555
C133 C115 1_555 1_555
C134 N3 1_555 1_555
C135 N3 1_555 1_555
C136 N4 1_555 1_555
C137 N4 1_555 1_555
C138 C116 1_555 1_555
C139 C116 1_555 1_555
C140 C117 1_555 1_555
F34 C117 1_555 1_555
H61 C118 1_555 1_555
C141 C119 1_555 1_555
C142 C119 1_555 1_555
C143 C120 1_555 1_555
C144 C120 1_555 1_555
C145 C121 1_555 1_555
C146 C121 1_555 1_555
C147 C122 1_555 1_555
C148 C122 1_555 1_555
C149 C123 1_555 1_555
F35 C123 1_555 1_555
H62 C124 1_555 1_555
C150 C125 1_555 1_555
C151 C125 1_555 1_555
C152 C126 1_555 1_555
C153 C126 1_555 1_555
F36 C127 1_555 1_555
F37 C127 1_555 1_555
F38 C127 1_555 1_555
F39 C128 1_555 1_555
F40 C128 1_555 1_555
F41 C128 1_555 1_555
C154 C129 1_555 1_555
C155 C130 1_555 1_555
C156 C131 1_555 1_555
H63 C132 1_555 1_555
C157 C132 1_555 1_555
C158 C133 1_555 1_555
H64 C133 1_555 1_555
H65 C134 1_555 1_555
C159 C134 1_555 1_555
C160 C135 1_555 1_555
C161 C136 1_555 1_555
C162 C137 1_555 1_555
H66 C137 1_555 1_555
H67 C138 1_555 1_555
C163 C138 1_555 1_555
C164 C139 1_555 1_555
H68 C139 1_555 1_555
C165 C140 1_555 1_555
H69 C141 1_555 1_555
C166 C141 1_555 1_555
C167 C142 1_555 1_555
H70 C142 1_555 1_555
H71 C143 1_555 1_555
C168 C143 1_555 1_555
C169 C144 1_555 1_555
H72 C144 1_555 1_555
H73 C145 1_555 1_555
C170 C145 1_555 1_555
C171 C146 1_555 1_555
H74 C146 1_555 1_555
H75 C147 1_555 1_555
C172 C147 1_555 1_555
C173 C148 1_555 1_555
H76 C148 1_555 1_555
C174 C149 1_555 1_555
H77 C150 1_555 1_555
C175 C150 1_555 1_555
C176 C151 1_555 1_555
H78 C151 1_555 1_555
H79 C152 1_555 1_555
C177 C152 1_555 1_555
C178 C153 1_555 1_555
H80 C153 1_555 1_555
F42 C154 1_555 1_555
F43 C154 1_555 1_555
F44 C154 1_555 1_555
F45 C155 1_555 1_555
F46 C155 1_555 1_555
F47 C155 1_555 1_555
F48 C156 1_555 1_555
F49 C156 1_555 1_555
F50 C156 1_555 1_555
C179 C157 1_555 1_555
F51 C157 1_555 1_555
H81 C158 1_555 1_555
H82 C159 1_555 1_555
C180 C159 1_555 1_555
H83 C160 1_555 1_555
H84 C161 1_555 1_555
C181 C161 1_555 1_555
H85 C162 1_555 1_555
C182 C163 1_555 1_555
F52 C163 1_555 1_555
H86 C164 1_555 1_555
F53 C165 1_555 1_555
F54 C165 1_555 1_555
F55 C165 1_555 1_555
C183 C166 1_555 1_555
F56 C166 1_555 1_555
H87 C167 1_555 1_555
C184 C168 1_555 1_555
F57 C168 1_555 1_555
H88 C169 1_555 1_555
C185 C170 1_555 1_555
F58 C170 1_555 1_555
H89 C171 1_555 1_555
C186 C172 1_555 1_555
F59 C172 1_555 1_555
H90 C173 1_555 1_555
F60 C174 1_555 1_555
F61 C174 1_555 1_555
F62 C174 1_555 1_555
C187 C175 1_555 1_555
F63 C175 1_555 1_555
H91 C176 1_555 1_555
C188 C177 1_555 1_555
F64 C177 1_555 1_555
H92 C178 1_555 1_555
C189 C179 1_555 1_555
H93 C180 1_555 1_555
H94 C181 1_555 1_555
C190 C182 1_555 1_555
C191 C183 1_555 1_555
C192 C184 1_555 1_555
C193 C185 1_555 1_555
C194 C186 1_555 1_555
C195 C187 1_555 1_555
C196 C188 1_555 1_555
F65 C189 1_555 1_555
F66 C189 1_555 1_555
F67 C189 1_555 1_555
F68 C190 1_555 1_555
F69 C190 1_555 1_555
F70 C190 1_555 1_555
F71 C191 1_555 1_555
F72 C191 1_555 1_555
F73 C191 1_555 1_555
F74 C192 1_555 1_555
F75 C192 1_555 1_555
F76 C192 1_555 1_555
F77 C193 1_555 1_555
F78 C193 1_555 1_555
F79 C193 1_555 1_555
F80 C194 1_555 1_555
F81 C194 1_555 1_555
F82 C194 1_555 1_555
F83 C195 1_555 1_555
F84 C195 1_555 1_555
F85 C195 1_555 1_555
F86 C196 1_555 1_555
F87 C196 1_555 1_555
F88 C196 1_555 1_555
O33_2 C102 1_555 1_555
O34_2 C103 1_555 1_555
Dy6_2 O33_2 1_555 1_555
O2 C5 1_555 1_555
O6 Dy2 1_555 1_555
C2 C3 1_555 1_555
C8 O7 1_555 1_555
Dy3 O11 1_555 1_555
Dy3 O13 1_555 1_555
Dy3 O14 1_555 1_555
C10 C17 1_555 1_555
C12 C18 1_555 1_555
O12 Dy4 1_555 1_555
O15 C22 1_555 1_555
O15 Dy4 1_555 1_555
O17 Dy6 1_555 1_555
O18 Dy4 1_555 1_555
O18 Dy6 1_555 1_555
Dy5 O19 1_555 1_555
Dy5 O20 1_555 1_555
Dy5 O24 1_555 1_555
Dy6 O29 1_555 1_555
C31 O30 1_555 1_555
C33 C45 1_555 1_555
O27 Dy8 1_555 1_555
O28 Dy7 1_555 1_555
O28 Dy8 1_555 1_555
C38 C57 1_555 1_555
C40 C58 1_555 1_555
C42 C59 1_555 1_555
O31 C52 1_555 1_555
Dy7 O35 1_555 1_555
Dy7 O36 1_555 1_555
C55 O37 1_555 1_555
Dy8 O40 1_555 1_555
Dy9 O41 1_555 1_555
Dy9 O45 1_555 1_555
C66 C83 1_555 1_555
C68 C84 1_555 1_555
C70 C85 1_555 1_555
O40 Dy10 1_555 1_555
O48 C96 1_555 1_555
O49 C99 1_555 1_555
C80 C104 1_555 1_555
C82 C105 1_555 1_555
Dy10 O51 1_555 1_555
C93 O54 1_555 1_555
C97 O52 1_555 1_555
C98 O53 1_555 1_555
C110 C129 1_555 1_555
C112 C130 1_555 1_555
C114 C131 1_555 1_555
C118 C140 1_555 1_555
C124 C149 1_555 1_555
C135 C136 1_555 1_555
C158 C179 1_555 1_555
C160 C180 1_555 1_555
C162 C181 1_555 1_555
C164 C182 1_555 1_555
C167 C183 1_555 1_555
C169 C184 1_555 1_555
C171 C185 1_555 1_555
C173 C186 1_555 1_555
C176 C187 1_555 1_555
C178 C188 1_555 1_555
O34_2 Dy6_2 1_555 1_555

#END
