
#######################################################################
#
#                 Cambridge Crystallographic Data Centre
#                                CCDC 
#
#######################################################################
#
# If this CIF has been generated from an entry in the Cambridge 
# Structural Database, then it will include bibliographic, chemical, 
# crystal, experimental, refinement or atomic coordinate data resulting 
# from the CCDC's data processing and validation procedures.
#
#######################################################################

data_BOTFOG
_symmetry_cell_setting           monoclinic
_symmetry_space_group_name_H-M   'P 21/c'
_symmetry_Int_Tables_number      14
_space_group_name_Hall           '-P 2ybc'
loop_
_symmetry_equiv_pos_site_id
_symmetry_equiv_pos_as_xyz
1 x,y,z
2 -x,1/2+y,1/2-z
3 -x,-y,-z
4 x,1/2-y,1/2+z
_cell_length_a                   11.632(2)
_cell_length_b                   15.154(3)
_cell_length_c                   11.457(2)
_cell_angle_alpha                90
_cell_angle_beta                 104.34(3)
_cell_angle_gamma                90
_cell_volume                     1956.62
loop_
_atom_site_label
_atom_site_type_symbol
_atom_site_fract_x
_atom_site_fract_y
_atom_site_fract_z
Rb1 Rb 0.5938(1) 0.4036(1) -0.0746(1)
O1 O 0.7658(3) 0.4149(3) 0.1486(4)
O2 O 0.6327(3) 0.2819(2) 0.4644(3)
O3 O 0.5116(3) 0.4281(2) 0.1305(3)
C1 C 0.6923(4) 0.3131(3) 0.3986(5)
C2 C 0.8244(5) 0.3067(3) 0.4279(5)
C3 C 0.9039(6) 0.2708(5) 0.5268(6)
C4 C 1.0202(7) 0.2766(6) 0.5327(8)
C5 C 1.0595(6) 0.3167(8) 0.4412(9)
C6 C 0.9824(6) 0.3524(6) 0.3403(7)
C7 C 0.8638(5) 0.3467(4) 0.3359(5)
C8 C 0.7586(4) 0.3792(3) 0.2419(5)
C9 C 0.6539(4) 0.3597(3) 0.2854(4)
C10 C 0.5377(4) 0.3857(3) 0.2274(4)
C11 C 0.4354(4) 0.3621(3) 0.2851(4)
C12 C 0.2468(5) 0.4206(3) 0.1449(6)
C13 C 0.1598(5) 0.4839(5) 0.1116(7)
C14 C 0.1584(6) 0.5561(5) 0.1861(8)
C15 C 0.2441(7) 0.5640(4) 0.2909(7)
C16 C 0.3318(5) 0.5009(4) 0.3233(5)
C17 C 0.3355(4) 0.4272(3) 0.2509(5)
C18 C 0.3947(4) 0.2666(3) 0.2528(4)
C19 C 0.3262(5) 0.2252(4) 0.3197(5)
C20 C 0.2839(6) 0.1401(4) 0.2916(7)
C21 C 0.3101(7) 0.0968(4) 0.1945(7)
C22 C 0.3803(6) 0.1370(4) 0.1314(5)
C23 C 0.4212(5) 0.2212(3) 0.1593(5)
Rb1C Rb 0.5938(1) 0.0964(1) 0.4254(1)
Rb1B Rb 0.4062(1) 0.5964(1) 0.0746(1)
O2C O 0.6327(3) 0.2181(2) -0.0356(3)
O3B O 0.4884(3) 0.5719(2) -0.1305(3)
loop_
_geom_bond_atom_site_label_1
_geom_bond_atom_site_label_2
_geom_bond_site_symmetry_1
_geom_bond_site_symmetry_2
Rb1 O1 1_555 1_555
O1 C8 1_555 1_555
O2 C1 1_555 1_555
O3 Rb1 1_555 1_555
C1 C2 1_555 1_555
C2 C3 1_555 1_555
C3 C4 1_555 1_555
C4 C5 1_555 1_555
C5 C6 1_555 1_555
C6 C7 1_555 1_555
C7 C2 1_555 1_555
C8 C7 1_555 1_555
C9 C1 1_555 1_555
C10 O3 1_555 1_555
C11 C10 1_555 1_555
C12 C13 1_555 1_555
C13 C14 1_555 1_555
C14 C15 1_555 1_555
C15 C16 1_555 1_555
C16 C17 1_555 1_555
C17 C11 1_555 1_555
C18 C11 1_555 1_555
C19 C18 1_555 1_555
C20 C19 1_555 1_555
C21 C20 1_555 1_555
C22 C21 1_555 1_555
C23 C18 1_555 1_555
Rb1C O2 1_555 1_555
Rb1B O3 1_555 1_555
O2C Rb1 1_555 1_555
O3B Rb1 1_555 1_555
C8 C9 1_555 1_555
C9 C10 1_555 1_555
C12 C17 1_555 1_555
C22 C23 1_555 1_555
Rb1B O3B 1_555 1_555

#END
