
#######################################################################
#
#                 Cambridge Crystallographic Data Centre
#                                CCDC 
#
#######################################################################
#
# If this CIF has been generated from an entry in the Cambridge 
# Structural Database, then it will include bibliographic, chemical, 
# crystal, experimental, refinement or atomic coordinate data resulting 
# from the CCDC's data processing and validation procedures.
#
#######################################################################

data_BOTLUS
_symmetry_cell_setting           monoclinic
_symmetry_space_group_name_H-M   'C 2/c'
_symmetry_Int_Tables_number      15
_space_group_name_Hall           '-C 2yn'
loop_
_symmetry_equiv_pos_site_id
_symmetry_equiv_pos_as_xyz
1 x,y,z
2 1/2+x,1/2+y,z
3 -x,y,1/2-z
4 1/2-x,1/2+y,1/2-z
5 -x,-y,-z
6 1/2-x,1/2-y,-z
7 x,-y,1/2+z
8 1/2+x,1/2-y,1/2+z
_cell_length_a                   19.580(3)
_cell_length_b                   11.5298(10)
_cell_length_c                   30.384(4)
_cell_angle_alpha                90
_cell_angle_beta                 100.737(4)
_cell_angle_gamma                90
_cell_volume                     6739.21
loop_
_atom_site_label
_atom_site_type_symbol
_atom_site_fract_x
_atom_site_fract_y
_atom_site_fract_z
Cu1 Cu 0.71000(9) 0.04639(10) 0.66138(4)
O1 O 0.7966(6) -0.7612(6) 0.2885(3)
H1 H 0.8001 -0.7088 0.2709
N1 N 0.6694(6) 0.0127(8) 0.7160(3)
C1 C 0.7433(8) -0.4152(8) 0.5118(4)
N2 N 0.8243(6) 0.0218(8) 0.6918(3)
O2 O 0.6614(6) 0.0936(7) 0.7471(3)
N3 N 0.7796(6) -0.6094(7) 0.4003(3)
N4 N 0.7915(5) -0.7164(7) 0.3278(3)
C2 C 0.7316(8) -0.3441(8) 0.5496(4)
N5 N 0.6864(6) -0.1267(7) 0.6532(3)
C3 C 0.6643(7) -0.1732(9) 0.6870(4)
C4 C 0.7041(8) -0.2033(8) 0.6186(4)
C5 C 0.7700(8) -0.5418(8) 0.4381(4)
C6 C 0.9654(7) 0.0102(10) 0.7381(4)
C7 C 0.9435(10) 0.0846(11) 0.7027(4)
H2 H 0.9755 0.1353 0.6940
C8 C 0.6117(9) -0.1222(11) 0.7574(4)
H3 H 0.6095 -0.0558 0.7761
H4 H 0.6366 -0.1834 0.7749
H5 H 0.5654 -0.1479 0.7451
C9 C 0.7768(7) -0.7216(9) 0.4015(3)
C10 C 0.6479(8) -0.0907(10) 0.7207(4)
C11 C 0.8721(11) 0.0860(11) 0.6785(5)
H6 H 0.8601 0.1330 0.6534
C12 C 0.6459(9) -0.2954(10) 0.6904(4)
H7 H 0.6569 -0.3371 0.6653
H8 H 0.5971 -0.3019 0.6905
H9 H 0.6718 -0.3274 0.7176
C13 C 0.8413(9) -0.0480(11) 0.7264(5)
H10 H 0.8065 -0.0896 0.7364
C14 C 0.9102(10) -0.0615(11) 0.7485(5)
H11 H 0.9207 -0.1183 0.7704
C15 C 0.7678(11) -0.2390(15) 0.6195(5)
H12 H 0.8040 -0.2187 0.6426
C16 C 0.7794(9) -0.3115(16) 0.5827(5)
H13 H 0.8246 -0.3366 0.5828
C17 C 0.7691(9) -0.7918(10) 0.4416(4)
H14 H 0.7628 -0.7409 0.4655
H15 H 0.7295 -0.8419 0.4341
H16 H 0.8102 -0.8377 0.4509
C18 C 0.7060(11) -0.511(2) 0.4399(6)
H17 H 0.6697 -0.5287 0.4165
C19 C 0.8071(11) -0.4479(15) 0.5065(6)
H18 H 0.8446 -0.4203 0.5273
C20 C 0.6930(10) -0.4486(17) 0.4784(6)
H19 H 0.6473 -0.4308 0.4802
C21 C 0.6665(9) -0.3091(16) 0.5517(6)
H20 H 0.6293 -0.3321 0.5297
C22 C 0.8217(12) -0.5179(17) 0.4734(5)
H21 H 0.8660 -0.5487 0.4749
C23 C 0.6549(10) -0.2396(16) 0.5862(6)
H22 H 0.6094 -0.2168 0.5866
C24 C 0.7872(8) -0.7828(9) 0.3606(4)
C25 C 0.7850(9) -0.9142(9) 0.3563(5)
H23 H 0.7933 -0.9361 0.3273
H24 H 0.8201 -0.9476 0.3791
H25 H 0.7401 -0.9419 0.3599
Cu1E Cu 0.79000(9) -0.54639(10) 0.33862(4)
Cu1B Cu 1.29000(9) 0.04639(10) 0.83862(4)
O1E O 0.7034(6) 0.2612(6) 0.7115(3)
H1E H 0.6999 0.2088 0.7291
N1E N 0.8306(6) -0.5127(8) 0.2840(3)
C1E C 0.7567(8) -0.0848(8) 0.4882(4)
N2B N 1.1757(6) 0.0218(8) 0.8082(3)
N2E N 0.6757(6) -0.5218(8) 0.3082(3)
O2E O 0.8386(6) -0.5936(7) 0.2529(3)
N3E N 0.7204(6) 0.1094(7) 0.5997(3)
N4E N 0.7085(5) 0.2164(7) 0.6722(3)
C2E C 0.7684(8) -0.1559(8) 0.4504(4)
N5E N 0.8136(6) -0.3733(7) 0.3468(3)
C3E C 0.8357(7) -0.3268(9) 0.3130(4)
C4E C 0.7959(8) -0.2967(8) 0.3814(4)
C5E C 0.7300(8) 0.0418(8) 0.5619(4)
C6B C 1.0346(7) 0.0102(10) 0.7619(4)
C7B C 1.0565(10) 0.0846(11) 0.7973(4)
H2B H 1.0245 0.1353 0.8060
C8E C 0.8883(9) -0.3778(11) 0.2426(4)
H3E H 0.8905 -0.4442 0.2239
H4E H 0.8634 -0.3166 0.2251
H5E H 0.9346 -0.3521 0.2549
C9E C 0.7232(7) 0.2216(9) 0.5985(3)
C10E C 0.8521(8) -0.4093(10) 0.2793(4)
C11B C 1.1279(11) 0.0860(11) 0.8215(5)
H6B H 1.1399 0.1330 0.8466
C12E C 0.8541(9) -0.2046(10) 0.3096(4)
H7E H 0.8431 -0.1629 0.3347
H8E H 0.9029 -0.1981 0.3095
H9E H 0.8282 -0.1726 0.2824
C13B C 1.1587(9) -0.0480(11) 0.7736(5)
H10B H 1.1935 -0.0896 0.7636
C14B C 1.0898(10) -0.0615(11) 0.7515(5)
H11B H 1.0793 -0.1183 0.7296
C15E C 0.7322(11) -0.2610(15) 0.3805(5)
H12E H 0.6960 -0.2813 0.3574
C16E C 0.7206(9) -0.1885(16) 0.4173(5)
H13E H 0.6754 -0.1634 0.4172
C17E C 0.7309(9) 0.2918(10) 0.5584(4)
H14E H 0.7372 0.2409 0.5345
H15E H 0.7705 0.3419 0.5659
H16E H 0.6898 0.3377 0.5491
C18E C 0.7940(11) 0.011(2) 0.5601(6)
H17E H 0.8303 0.0287 0.5835
C19E C 0.6929(11) -0.0521(15) 0.4935(6)
H18E H 0.6554 -0.0797 0.4727
C20E C 0.8070(10) -0.0514(17) 0.5216(6)
H19E H 0.8527 -0.0692 0.5198
C21E C 0.8335(9) -0.1909(16) 0.4483(6)
H20E H 0.8707 -0.1679 0.4703
C22E C 0.6783(12) 0.0179(17) 0.5266(5)
H21E H 0.6340 0.0487 0.5251
C23E C 0.8451(10) -0.2604(16) 0.4138(6)
H22E H 0.8906 -0.2832 0.4134
C24E C 0.7128(8) 0.2828(9) 0.6394(4)
C25E C 0.7150(9) 0.4142(9) 0.6437(5)
H23E H 0.7067 0.4361 0.6727
H24E H 0.6799 0.4476 0.6209
H25E H 0.7599 0.4419 0.6401
F1 F 0.9922(12) 0.3384(17) 0.6520(8)
F2 F 0.9595(13) 0.393(2) 0.5826(7)
F3 F 0.9453(2) 0.210(3) 0.5779(8)
F4 F 0.8911(10) 0.362(3) 0.6252(6)
B1 B 0.947(2) 0.316(13) 0.603(5)
O3 O 1.011(6) -0.283(11) 0.834(6)
O4 O 1.004(13) 0.28(3) 0.423(11)
O5 O 0.969(9) 0.254(6) 0.481(6)
O6 O 0.932(4) 0.432(5) 0.389(4)
O7 O 1.003(7) 0.07(3) 0.572(11)
O8 O 0.989(4) 0.075(8) 0.464(4)
O9? O 1.007(4) 0.538(5) 0.560(2)
O10? O 0.989(4) 0.050(5) 0.497(3)
loop_
_geom_bond_atom_site_label_1
_geom_bond_atom_site_label_2
_geom_bond_site_symmetry_1
_geom_bond_site_symmetry_2
Cu1 N1 1_555 1_555
O1 H1 1_555 1_555
N1 O2 1_555 1_555
C1 C2 1_555 1_555
N2 Cu1 1_555 1_555
N3 C5 1_555 1_555
N4 O1 1_555 1_555
C2 C16 1_555 1_555
N5 Cu1 1_555 1_555
C3 N5 1_555 1_555
C4 N5 1_555 1_555
C5 C18 1_555 1_555
C6 C7 1_555 1_555
C7 H2 1_555 1_555
C8 H3 1_555 1_555
H4 C8 1_555 1_555
H5 C8 1_555 1_555
C9 N3 1_555 1_555
C10 N1 1_555 1_555
C11 N2 1_555 1_555
H6 C11 1_555 1_555
C12 C3 1_555 1_555
H7 C12 1_555 1_555
H8 C12 1_555 1_555
H9 C12 1_555 1_555
C13 N2 1_555 1_555
H10 C13 1_555 1_555
C14 C6 1_555 1_555
H11 C14 1_555 1_555
C15 C4 1_555 1_555
H12 C15 1_555 1_555
C16 C15 1_555 1_555
H13 C16 1_555 1_555
C17 C9 1_555 1_555
H14 C17 1_555 1_555
H15 C17 1_555 1_555
H16 C17 1_555 1_555
C18 H17 1_555 1_555
C19 C1 1_555 1_555
H18 C19 1_555 1_555
C20 C1 1_555 1_555
H19 C20 1_555 1_555
C21 C2 1_555 1_555
H20 C21 1_555 1_555
C22 C5 1_555 1_555
H21 C22 1_555 1_555
C23 C4 1_555 1_555
H22 C23 1_555 1_555
C24 N4 1_555 1_555
C25 C24 1_555 1_555
H23 C25 1_555 1_555
H24 C25 1_555 1_555
H25 C25 1_555 1_555
F1 B1 1_555 1_555
F2 B1 1_555 1_555
F3 B1 1_555 1_555
F4 B1 1_555 1_555
Cu1E N3 1_555 1_555
Cu1B N2B 1_555 1_555
O1E H1E 1_555 1_555
N1E Cu1E 1_555 1_555
C1E C2E 1_555 1_555
N2B C11B 1_555 1_555
N2E Cu1E 1_555 1_555
O2E N1E 1_555 1_555
N3E Cu1 1_555 1_555
N4E Cu1 1_555 1_555
C2E C16E 1_555 1_555
N5E Cu1E 1_555 1_555
C3E N5E 1_555 1_555
C4E N5E 1_555 1_555
C5E N3E 1_555 1_555
C6B C6 1_555 1_555
C7B C6B 1_555 1_555
H2B C7B 1_555 1_555
C8E H3E 1_555 1_555
H4E C8E 1_555 1_555
H5E C8E 1_555 1_555
C9E N3E 1_555 1_555
C10E N1E 1_555 1_555
C11B C7B 1_555 1_555
H6B C11B 1_555 1_555
C12E C3E 1_555 1_555
H7E C12E 1_555 1_555
H8E C12E 1_555 1_555
H9E C12E 1_555 1_555
C13B N2B 1_555 1_555
H10B C13B 1_555 1_555
C14B C6B 1_555 1_555
H11B C14B 1_555 1_555
C15E C4E 1_555 1_555
H12E C15E 1_555 1_555
C16E C15E 1_555 1_555
H13E C16E 1_555 1_555
C17E C9E 1_555 1_555
H14E C17E 1_555 1_555
H15E C17E 1_555 1_555
H16E C17E 1_555 1_555
C18E C5E 1_555 1_555
H17E C18E 1_555 1_555
C19E C1E 1_555 1_555
H18E C19E 1_555 1_555
C20E C1E 1_555 1_555
H19E C20E 1_555 1_555
C21E C2E 1_555 1_555
H20E C21E 1_555 1_555
C22E C5E 1_555 1_555
H21E C22E 1_555 1_555
C23E C4E 1_555 1_555
H22E C23E 1_555 1_555
C24E N4E 1_555 1_555
C25E C24E 1_555 1_555
H23E C25E 1_555 1_555
H24E C25E 1_555 1_555
H25E C25E 1_555 1_555
N4 Cu1E 1_555 1_555
C3 C10 1_555 1_555
C7 C11 1_555 1_555
C8 C10 1_555 1_555
C9 C24 1_555 1_555
C13 C14 1_555 1_555
C18 C20 1_555 1_555
C19 C22 1_555 1_555
C21 C23 1_555 1_555
O1E N4E 1_555 1_555
C3E C10E 1_555 1_555
C8E C10E 1_555 1_555
C9E C24E 1_555 1_555
C13B C14B 1_555 1_555
C18E C20E 1_555 1_555
C19E C22E 1_555 1_555
C21E C23E 1_555 1_555

#END
