
#######################################################################
#
#                 Cambridge Crystallographic Data Centre
#                                CCDC 
#
#######################################################################
#
# If this CIF has been generated from an entry in the Cambridge 
# Structural Database, then it will include bibliographic, chemical, 
# crystal, experimental, refinement or atomic coordinate data resulting 
# from the CCDC's data processing and validation procedures.
#
#######################################################################

data_BOTNUU
_symmetry_cell_setting           monoclinic
_symmetry_space_group_name_H-M   'P 21/c'
_symmetry_Int_Tables_number      14
_space_group_name_Hall           '-P 2ybc'
loop_
_symmetry_equiv_pos_site_id
_symmetry_equiv_pos_as_xyz
1 x,y,z
2 -x,1/2+y,1/2-z
3 -x,-y,-z
4 x,1/2-y,1/2+z
_cell_length_a                   12.9908(17)
_cell_length_b                   18.311(3)
_cell_length_c                   10.9171(14)
_cell_angle_alpha                90
_cell_angle_beta                 103.099(2)
_cell_angle_gamma                90
_cell_volume                     2529.33
loop_
_atom_site_label
_atom_site_type_symbol
_atom_site_fract_x
_atom_site_fract_y
_atom_site_fract_z
C1 C 0.1104(4) 0.1472(3) 0.6439(5)
H1 H 0.1599 0.1832 0.6396
C2 C 0.0048(4) 0.1676(3) 0.6356(5)
H2 H -0.0163 0.2160 0.6223
C3 C -0.0678(4) 0.1131(3) 0.6478(5)
H3 H -0.1379 0.1250 0.6453
C4 C -0.0336(4) 0.0401(3) 0.6639(5)
H4 H -0.0801 0.0030 0.6733
C5 C 0.0696(4) 0.0250(3) 0.6653(5)
C6 C 0.1125(4) -0.0503(3) 0.6783(5)
C7 C 0.0477(4) -0.1114(3) 0.6780(4)
H5 H -0.0245 -0.1074 0.6731
C8 C 0.0989(4) -0.1783(3) 0.6856(5)
H6 H 0.0591 -0.2206 0.6840
C9 C 0.2058(4) -0.1846(2) 0.6952(4)
H7 H 0.2386 -0.2300 0.7051
C10 C 0.2641(4) -0.1210(2) 0.6898(5)
H8 H 0.3360 -0.1246 0.6925
C11 C 0.4279(4) 0.0018(2) 0.7109(5)
C12 C 0.3533(3) 0.1364(2) 0.6900(4)
C13 C 0.2814(3) 0.0409(2) 0.5050(5)
C14 C 0.3024(4) 0.0474(2) 0.8624(5)
C15 C 0.8031(4) 0.0899(3) 0.9331(5)
H9 H 0.8701 0.0653 0.9504
H10 H 0.8121 0.1391 0.9073
H11 H 0.7754 0.0903 1.0075
C16 C 0.7508(4) -0.2207(3) 0.6187(5)
H12 H 0.8105 -0.2372 0.6814
H13 H 0.7221 -0.2609 0.5651
H14 H 0.7726 -0.1829 0.5692
C17 C 0.4864(4) -0.1553(3) 0.9536(5)
H15 H 0.4652 -0.1050 0.9490
H16 H 0.4252 -0.1858 0.9280
H17 H 0.5217 -0.1671 1.0384
Fe1 Fe 0.29139(5) 0.04225(3) 0.68333(6)
N1 N 0.1420(3) 0.0773(2) 0.6579(4)
N2 N 0.2172(3) -0.0533(2) 0.6805(4)
N3 N 0.5104(3) -0.0228(2) 0.7293(4)
N4 N 0.3950(3) 0.1909(2) 0.6947(4)
N5 N 0.2782(3) 0.0451(2) 0.3990(4)
N6 N 0.3086(3) 0.0511(2) 0.9682(4)
N7 N 0.8933(3) -0.1383(2) 0.9295(4)
Nd1 Nd 0.684500(19) -0.079140(13) 0.80926(3)
O1 O 0.7294(3) 0.05154(17) 0.8324(3)
H18 H 0.6623 0.0761 0.8264
O2 O 0.6697(3) -0.19201(18) 0.6803(3)
H19 H 0.6073 -0.2185 0.6702
O3 O 0.5585(2) -0.16775(16) 0.8701(3)
H20 H 0.5572 -0.2143 0.8356
O4 O 0.8104(3) -0.17472(18) 0.9282(3)
O5 O 0.8814(2) -0.07882(18) 0.8728(3)
O6 O 0.9778(3) -0.16498(18) 0.9838(3)
N5B N 0.7218(3) -0.0451(2) 0.6010(4)
N6B N 0.6914(3) -0.0511(2) 1.0318(4)
Nd1B Nd 0.315500(19) 0.079140(13) 0.19074(3)
Nd1B_2 Nd 0.315500(19) 0.079140(13) 1.19074(3)
C18 C 0.5989(4) 0.1361(3) 0.5553(5)
H21 H 0.5399 0.1034 0.5334
H22 H 0.6613 0.1124 0.5418
H23 H 0.5850 0.1791 0.5039
O7 O 0.6147(3) 0.15657(17) 0.6873(3)
H24 H 0.5527 0.1810 0.7005
loop_
_geom_bond_atom_site_label_1
_geom_bond_atom_site_label_2
_geom_bond_site_symmetry_1
_geom_bond_site_symmetry_2
C1 H1 1_555 1_555
C2 C1 1_555 1_555
H2 C2 1_555 1_555
C3 C2 1_555 1_555
H3 C3 1_555 1_555
C4 C3 1_555 1_555
H4 C4 1_555 1_555
C5 C4 1_555 1_555
C6 C5 1_555 1_555
C7 C6 1_555 1_555
H5 C7 1_555 1_555
C8 C7 1_555 1_555
H6 C8 1_555 1_555
C9 C8 1_555 1_555
H7 C9 1_555 1_555
C10 C9 1_555 1_555
H8 C10 1_555 1_555
C11 Fe1 1_555 1_555
C12 Fe1 1_555 1_555
C13 Fe1 1_555 1_555
C14 Fe1 1_555 1_555
C15 H9 1_555 1_555
H10 C15 1_555 1_555
H11 C15 1_555 1_555
C16 H12 1_555 1_555
H13 C16 1_555 1_555
H14 C16 1_555 1_555
C17 H15 1_555 1_555
H16 C17 1_555 1_555
H17 C17 1_555 1_555
Fe1 N1 1_555 1_555
N1 C1 1_555 1_555
N2 C6 1_555 1_555
N3 C11 1_555 1_555
N4 C12 1_555 1_555
N5 C13 1_555 1_555
N6 C14 1_555 1_555
N7 O4 1_555 1_555
Nd1 N3 1_555 1_555
O1 C15 1_555 1_555
H18 O1 1_555 1_555
O2 C16 1_555 1_555
H19 O2 1_555 1_555
O3 C17 1_555 1_555
H20 O3 1_555 1_555
O4 Nd1 1_555 1_555
O5 N7 1_555 1_555
O6 N7 1_555 1_555
C18 H21 1_555 1_555
H22 C18 1_555 1_555
H23 C18 1_555 1_555
O7 C18 1_555 1_555
H24 O7 1_555 1_555
N5B Nd1 1_555 1_555
N6B Nd1 1_555 1_555
Nd1B N5 1_555 1_555
Nd1B_2 N6 1_555 1_555
C5 N1 1_555 1_555
C10 N2 1_555 1_555
Fe1 N2 1_555 1_555
Nd1 O1 1_555 1_555
Nd1 O2 1_555 1_555
Nd1 O3 1_555 1_555
Nd1 O5 1_555 1_555

#END
