
#######################################################################
#
#                 Cambridge Crystallographic Data Centre
#                                CCDC 
#
#######################################################################
#
# If this CIF has been generated from an entry in the Cambridge 
# Structural Database, then it will include bibliographic, chemical, 
# crystal, experimental, refinement or atomic coordinate data resulting 
# from the CCDC's data processing and validation procedures.
#
#######################################################################

data_BOTPEG
_symmetry_cell_setting           monoclinic
_symmetry_space_group_name_H-M   'P 21/c'
_symmetry_Int_Tables_number      14
_space_group_name_Hall           '-P 2ybc'
loop_
_symmetry_equiv_pos_site_id
_symmetry_equiv_pos_as_xyz
1 x,y,z
2 -x,1/2+y,1/2-z
3 -x,-y,-z
4 x,1/2-y,1/2+z
_cell_length_a                   13.3333(3)
_cell_length_b                   15.1250(3)
_cell_length_c                   11.9108(2)
_cell_angle_alpha                90
_cell_angle_beta                 110.9824(7)
_cell_angle_gamma                90
_cell_volume                     2242.73
loop_
_atom_site_label
_atom_site_type_symbol
_atom_site_fract_x
_atom_site_fract_y
_atom_site_fract_z
Cu1 Cu 0.36126(3) 0.23473(2) 0.60351(3)
O1 O 0.29595(15) 0.18012(13) 0.44165(16)
O2 O 0.27857(16) 0.06147(13) 0.54377(16)
C1 C 0.1799(2) 0.06463(18) 0.3353(2)
C2 C 0.0670(2) 0.05405(18) 0.3131(2)
C3 C 0.0000(2) 0.06911(19) 0.3789(2)
H1 H 0.0280 0.0926 0.4580
C4 C -0.1079(2) 0.04877(19) 0.3254(2)
H2 H -0.1540 0.0561 0.3698
C5 C -0.1505(2) 0.01747(19) 0.2066(2)
H3 H -0.2255 0.0065 0.1712
C6 C -0.0858(2) 0.00217(19) 0.1393(2)
H4 H -0.1142 -0.0183 0.0586
C7 C 0.0228(2) 0.01875(18) 0.1977(2)
O3 O 0.10146(15) 0.00451(13) 0.14996(16)
C8 C 0.1970(2) 0.03324(18) 0.2371(2)
C9 C 0.2982(2) 0.02230(19) 0.2113(2)
C10 C 0.2593(2) 0.10290(19) 0.4488(2)
O4 O 0.29016(16) -0.00579(14) 0.10919(17)
O5 O 0.38236(15) 0.04371(13) 0.29652(16)
N1 N 0.51119(19) 0.21458(16) 0.6054(2)
C11 C 0.5884(2) 0.2757(2) 0.6587(3)
H5 H 0.5696 0.3266 0.6936
C12 C 0.6914(3) 0.2668(2) 0.6640(3)
H6 H 0.7427 0.3112 0.7023
C13 C 0.7228(2) 0.1935(2) 0.6138(3)
C14 C 0.6431(2) 0.13121(19) 0.5585(2)
H7 H 0.6598 0.0803 0.5218
C15 C 0.5402(2) 0.14334(19) 0.5570(2)
H8 H 0.4876 0.0995 0.5202
C16 C 0.8368(3) 0.1811(2) 0.6220(4)
H9 H 0.8822 0.1693 0.7067
H10 H 0.8407 0.1287 0.5739
C17 C 0.8807(3) 0.2594(3) 0.5783(4)
H11 H 0.8726 0.3119 0.6240
H12 H 0.8358 0.2694 0.4929
C18 C 0.9958(2) 0.2542(2) 0.5877(3)
C19 C 1.0714(2) 0.2018(2) 0.6728(3)
H13 H 1.0506 0.1670 0.7271
C20 C 1.1762(2) 0.2004(2) 0.6782(2)
H14 H 1.2267 0.1652 0.7383
N2 N 1.21064(19) 0.24653(15) 0.6023(2)
C21 C 1.1378(2) 0.2970(2) 0.5196(2)
H15 H 1.1604 0.3303 0.4653
C22 C 1.0319(2) 0.3026(2) 0.5102(3)
H16 H 0.9835 0.3396 0.4508
O6 O 0.41935(19) 0.26374(16) 0.7807(2)
H17 H 0.4592 0.2181 0.8218
H18 H 0.4496 0.3179 0.7914
O7 O 0.36172(16) 0.36795(14) 0.51047(17)
H19 H 0.3386 0.4165 0.5376
H20 H 0.4196 0.3803 0.4913
Cu1_2 Cu 1.36126(3) 0.23473(2) 0.60351(3)
N2_2 N 0.21064(19) 0.24653(15) 0.6023(2)
O8 O 0.42844(18) -0.02449(15) 0.73691(18)
H21 H 0.3819 0.0054 0.6748
H22 H 0.4859 -0.0254 0.7141
O9 O 0.52177(19) 0.09979(16) 0.91024(19)
H23 H 0.5921 0.0861 0.9356
H24 H 0.4814 0.0521 0.8778
loop_
_geom_bond_atom_site_label_1
_geom_bond_atom_site_label_2
_geom_bond_site_symmetry_1
_geom_bond_site_symmetry_2
Cu1 O1 1_555 1_555
O1 C10 1_555 1_555
O2 C10 1_555 1_555
C1 C2 1_555 1_555
C2 C3 1_555 1_555
C3 H1 1_555 1_555
C4 C3 1_555 1_555
H2 C4 1_555 1_555
C5 C4 1_555 1_555
H3 C5 1_555 1_555
C6 C5 1_555 1_555
H4 C6 1_555 1_555
C7 C2 1_555 1_555
O3 C7 1_555 1_555
C8 C1 1_555 1_555
C9 C8 1_555 1_555
C10 C1 1_555 1_555
O4 C9 1_555 1_555
O5 C9 1_555 1_555
N1 Cu1 1_555 1_555
C11 N1 1_555 1_555
H5 C11 1_555 1_555
C12 C11 1_555 1_555
H6 C12 1_555 1_555
C13 C12 1_555 1_555
C14 C13 1_555 1_555
H7 C14 1_555 1_555
C15 N1 1_555 1_555
H8 C15 1_555 1_555
C16 C13 1_555 1_555
H9 C16 1_555 1_555
H10 C16 1_555 1_555
C17 C16 1_555 1_555
H11 C17 1_555 1_555
H12 C17 1_555 1_555
C18 C17 1_555 1_555
C19 C18 1_555 1_555
H13 C19 1_555 1_555
C20 C19 1_555 1_555
H14 C20 1_555 1_555
N2 C20 1_555 1_555
C21 N2 1_555 1_555
H15 C21 1_555 1_555
C22 C18 1_555 1_555
H16 C22 1_555 1_555
O6 Cu1 1_555 1_555
H17 O6 1_555 1_555
H18 O6 1_555 1_555
O7 Cu1 1_555 1_555
H19 O7 1_555 1_555
H20 O7 1_555 1_555
O8 H21 1_555 1_555
H22 O8 1_555 1_555
O9 H23 1_555 1_555
H24 O9 1_555 1_555
Cu1_2 N2 1_555 1_555
N2_2 Cu1 1_555 1_555
C6 C7 1_555 1_555
O3 C8 1_555 1_555
C14 C15 1_555 1_555
C21 C22 1_555 1_555

#END
