
#######################################################################
#
#                 Cambridge Crystallographic Data Centre
#                                CCDC 
#
#######################################################################
#
# If this CIF has been generated from an entry in the Cambridge 
# Structural Database, then it will include bibliographic, chemical, 
# crystal, experimental, refinement or atomic coordinate data resulting 
# from the CCDC's data processing and validation procedures.
#
#######################################################################

data_BOVBOF
_symmetry_cell_setting           triclinic
_symmetry_space_group_name_H-M   'P -1'
_symmetry_Int_Tables_number      2
_space_group_name_Hall           '-P 1'
loop_
_symmetry_equiv_pos_site_id
_symmetry_equiv_pos_as_xyz
1 x,y,z
2 -x,-y,-z
_cell_length_a                   4.8826(4)
_cell_length_b                   7.8048(6)
_cell_length_c                   8.9466(9)
_cell_angle_alpha                99.131(7)
_cell_angle_beta                 96.030(7)
_cell_angle_gamma                95.519(6)
_cell_volume                     332.534
loop_
_atom_site_label
_atom_site_type_symbol
_atom_site_fract_x
_atom_site_fract_y
_atom_site_fract_z
O4 O 0.7328(11) 0.4748(7) 0.4300(7)
H4 H 0.850(17) 0.563(9) 0.440(13)
H5 H 0.642(14) 0.484(16) 0.345(4)
Ho1 Ho 0.5000 0.5000 0.0000
O1 O 0.1857(8) 0.3900(5) 0.1370(6)
O2 O -0.2889(8) -0.3209(5) 0.2042(5)
O3 O -0.2533(8) 0.2813(5) 0.0610(5)
C1 C -0.1216(11) -0.1744(7) 0.2395(7)
N1 N 0.2923(9) -0.0110(6) 0.3837(6)
C2 C -0.0166(11) 0.2758(7) 0.1292(7)
C3 C 0.2555(11) 0.1253(7) 0.3142(8)
H1 H 0.3845 0.2243 0.3372
C4 C 0.1135(11) -0.1566(8) 0.3485(7)
H2 H 0.1460 -0.2500 0.3982
C5 C -0.1650(11) -0.0290(7) 0.1728(7)
H3 H -0.3229 -0.0315 0.1043
C6 C 0.0242(11) 0.1203(7) 0.2072(7)
O1A O -0.1857(8) -0.3900(5) -0.1370(6)
O2A O 0.2889(8) 0.3209(5) -0.2042(5)
O3A O 0.2533(8) -0.2813(5) -0.0610(5)
C1A C 0.1216(11) 0.1744(7) -0.2395(7)
N1A N -0.2923(9) 0.0110(6) -0.3837(6)
C2A C 0.0166(11) -0.2758(7) -0.1292(7)
C3A C -0.2555(11) -0.1253(7) -0.3142(8)
H1A H -0.3845 -0.2243 -0.3372
C4A C -0.1135(11) 0.1566(8) -0.3485(7)
H2A H -0.1460 0.2500 -0.3982
C5A C 0.1650(11) 0.0290(7) -0.1728(7)
H3A H 0.3229 0.0315 -0.1043
C6A C -0.0242(11) -0.1203(7) -0.2072(7)
Ho1_2 Ho -0.5000 -0.5000 0.0000
Ho1_3 Ho -0.5000 0.5000 0.0000
Ho1_4 Ho 0.5000 -0.5000 0.0000
O1A_2 O 0.8143(8) 0.6100(5) -0.1370(6)
O2_2 O 0.7111(8) 0.6791(5) 0.2042(5)
O3_2 O 0.7467(8) 0.2813(5) 0.0610(5)
O3A_2 O 0.2533(8) 0.7187(5) -0.0610(5)
loop_
_geom_bond_atom_site_label_1
_geom_bond_atom_site_label_2
_geom_bond_site_symmetry_1
_geom_bond_site_symmetry_2
Ho1 O1 1_555 1_555
O1 C2 1_555 1_555
O2 C1 1_555 1_555
O3 C2 1_555 1_555
C1 C4 1_555 1_555
N1 C3 1_555 1_555
C2 C6 1_555 1_555
C3 H1 1_555 1_555
C4 N1 1_555 1_555
H2 C4 1_555 1_555
C5 C1 1_555 1_555
H3 C5 1_555 1_555
C6 C3 1_555 1_555
O4 H4 1_555 1_555
H5 O4 1_555 1_555
O1A C2A 1_555 1_555
O2A Ho1 1_555 1_555
O3A C2A 1_555 1_555
C1A O2A 1_555 1_555
N1A C3A 1_555 1_555
C2A C6A 1_555 1_555
C3A H1A 1_555 1_555
C4A C1A 1_555 1_555
H2A C4A 1_555 1_555
C5A C1A 1_555 1_555
H3A C5A 1_555 1_555
C6A C3A 1_555 1_555
Ho1_2 O2 1_555 1_555
Ho1_3 O3 1_555 1_555
Ho1_4 O3A 1_555 1_555
O1A_2 Ho1 1_555 1_555
O2_2 Ho1 1_555 1_555
O3_2 Ho1 1_555 1_555
O3A_2 Ho1 1_555 1_555
C5 C6 1_555 1_555
O1A Ho1_2 1_555 1_555
N1A C4A 1_555 1_555
C5A C6A 1_555 1_555

#END
