
#######################################################################
#
#                 Cambridge Crystallographic Data Centre
#                                CCDC 
#
#######################################################################
#
# If this CIF has been generated from an entry in the Cambridge 
# Structural Database, then it will include bibliographic, chemical, 
# crystal, experimental, refinement or atomic coordinate data resulting 
# from the CCDC's data processing and validation procedures.
#
#######################################################################

data_BOVBAR
_symmetry_cell_setting           triclinic
_symmetry_space_group_name_H-M   'P -1'
_symmetry_Int_Tables_number      2
_space_group_name_Hall           '-P 1'
loop_
_symmetry_equiv_pos_site_id
_symmetry_equiv_pos_as_xyz
1 x,y,z
2 -x,-y,-z
_cell_length_a                   4.8793(6)
_cell_length_b                   7.855(2)
_cell_length_c                   8.921(4)
_cell_angle_alpha                99.03(3)
_cell_angle_beta                 95.81(2)
_cell_angle_gamma                95.524(16)
_cell_volume                     333.746
loop_
_atom_site_label
_atom_site_type_symbol
_atom_site_fract_x
_atom_site_fract_y
_atom_site_fract_z
O4 O 0.2653(10) 1.0282(6) 0.5705(5)
H4 H 0.1811 1.0266 0.6492
H5 H 0.35(4) 0.942(13) 0.522(16)
Gd1 Gd -0.5000 1.0000 0.0000
O1 O -0.2542(8) 0.7799(5) 0.0619(4)
O2 O 0.1846(8) 0.8892(5) 0.1383(5)
O3 O -0.2883(8) 0.1788(5) 0.2054(4)
C1 C 0.2516(6) 0.6301(3) 0.3139(4)
H1 H 0.3753 0.7308 0.3377
C2 C 0.0214(6) 0.6206(3) 0.2063(3)
C3 C -0.1634(5) 0.4700(4) 0.1707(3)
H2 H -0.3174 0.4636 0.0987
C4 C -0.1181(6) 0.3289(3) 0.2428(4)
C5 C 0.1121(6) 0.3384(3) 0.3504(3)
H3 H 0.1424 0.2441 0.3986
N1 N 0.2969(5) 0.4890(4) 0.3860(3)
C6 C -0.0186(10) 0.7746(7) 0.1303(6)
O1A O -0.7458(8) 0.2201(5) -0.0619(4)
O2A O -1.1846(8) 0.1108(5) -0.1383(5)
O3A O -0.7117(8) 0.8212(5) -0.2054(4)
C1A C -1.2516(6) 0.3699(3) -0.3139(4)
H1A H -1.3753 0.2692 -0.3377
C2A C -1.0214(6) 0.3794(3) -0.2063(3)
C3A C -0.8366(5) 0.5300(4) -0.1707(3)
H2A H -0.6826 0.5364 -0.0987
C4A C -0.8819(6) 0.6711(3) -0.2428(4)
C5A C -1.1121(6) 0.6616(3) -0.3504(3)
H3A H -1.1424 0.7559 -0.3986
N1A N -1.2969(5) 0.5110(4) -0.3860(3)
C6A C -0.9814(10) 0.2254(7) -0.1303(6)
Gd1_2 Gd -1.5000 0.0000 0.0000
Gd1_3 Gd -0.5000 0.0000 0.0000
Gd1_4 Gd 0.5000 1.0000 0.0000
O1A_2 O -0.7458(8) 1.2201(5) -0.0619(4)
O2_2 O -0.8154(8) 0.8892(5) 0.1383(5)
O2A_2 O -0.1846(8) 1.1108(5) -0.1383(5)
O3_2 O -0.2883(8) 1.1788(5) 0.2054(4)
loop_
_geom_bond_atom_site_label_1
_geom_bond_atom_site_label_2
_geom_bond_site_symmetry_1
_geom_bond_site_symmetry_2
Gd1 O1 1_555 1_555
O1 C6 1_555 1_555
O2 C6 1_555 1_555
O3 C4 1_555 1_555
C1 H1 1_555 1_555
C2 C1 1_555 1_555
C3 C2 1_555 1_555
H2 C3 1_555 1_555
C4 C3 1_555 1_555
C5 C4 1_555 1_555
H3 C5 1_555 1_555
N1 C1 1_555 1_555
C6 C2 1_555 1_555
O4 H4 1_555 1_555
H5 O4 1_555 1_555
O1A C6A 1_555 1_555
O2A C6A 1_555 1_555
O3A Gd1 1_555 1_555
C1A H1A 1_555 1_555
C2A C1A 1_555 1_555
C3A C2A 1_555 1_555
H2A C3A 1_555 1_555
C4A O3A 1_555 1_555
C5A C4A 1_555 1_555
H3A C5A 1_555 1_555
N1A C1A 1_555 1_555
C6A C2A 1_555 1_555
Gd1_2 O2A 1_555 1_555
Gd1_3 O3 1_555 1_555
Gd1_4 O2 1_555 1_555
O1A_2 Gd1 1_555 1_555
O2_2 Gd1 1_555 1_555
O2A_2 Gd1 1_555 1_555
O3_2 Gd1 1_555 1_555
C5 N1 1_555 1_555
O1A Gd1_3 1_555 1_555
C3A C4A 1_555 1_555
C5A N1A 1_555 1_555

#END
