
#######################################################################
#
#                 Cambridge Crystallographic Data Centre
#                                CCDC 
#
#######################################################################
#
# If this CIF has been generated from an entry in the Cambridge 
# Structural Database, then it will include bibliographic, chemical, 
# crystal, experimental, refinement or atomic coordinate data resulting 
# from the CCDC's data processing and validation procedures.
#
#######################################################################

data_BOVBIZ
_symmetry_cell_setting           triclinic
_symmetry_space_group_name_H-M   'P -1'
_symmetry_Int_Tables_number      2
_space_group_name_Hall           '-P 1'
loop_
_symmetry_equiv_pos_site_id
_symmetry_equiv_pos_as_xyz
1 x,y,z
2 -x,-y,-z
_cell_length_a                   4.8645(4)
_cell_length_b                   7.8170(5)
_cell_length_c                   8.8516(6)
_cell_angle_alpha                99.767(5)
_cell_angle_beta                 95.304(6)
_cell_angle_gamma                95.424(6)
_cell_volume                     328.201
loop_
_atom_site_label
_atom_site_type_symbol
_atom_site_fract_x
_atom_site_fract_y
_atom_site_fract_z
O4 O 0.7352(8) 0.4717(5) 0.4302(4)
H4 H 0.552(5) 0.469(3) 0.392(4)
H5 H 0.773(8) 0.505(13) 0.339(4)
Dy1 Dy 0.5000 0.5000 0.0000
O1 O 0.1815(7) 0.3909(4) 0.1413(4)
O2 O -0.2885(7) -0.3215(4) 0.2077(4)
O3 O -0.2561(7) 0.2778(4) 0.0609(4)
C1 C -0.1193(9) -0.1745(6) 0.2418(5)
N1 N 0.2925(8) -0.0101(5) 0.3855(4)
C2 C -0.0206(10) 0.2735(6) 0.1316(5)
C3 C 0.2534(10) 0.1254(6) 0.3151(5)
H1 H 0.3824 0.2244 0.3375
C4 C 0.1147(10) -0.1574(6) 0.3504(5)
H2 H 0.1481 -0.2506 0.3997
C5 C -0.1667(9) -0.0286(6) 0.1746(5)
H3 H -0.3258 -0.0318 0.1068
C6 C 0.0218(9) 0.1203(6) 0.2084(5)
O1A O -0.1815(7) -0.3909(4) -0.1413(4)
O2A O 0.2885(7) 0.3215(4) -0.2077(4)
O3A O 0.2561(7) -0.2778(4) -0.0609(4)
C1A C 0.1193(9) 0.1745(6) -0.2418(5)
N1A N -0.2925(8) 0.0101(5) -0.3855(4)
C2A C 0.0206(10) -0.2735(6) -0.1316(5)
C3A C -0.2534(10) -0.1254(6) -0.3151(5)
H1A H -0.3824 -0.2244 -0.3375
C4A C -0.1147(10) 0.1574(6) -0.3504(5)
H2A H -0.1481 0.2506 -0.3997
C5A C 0.1667(9) 0.0286(6) -0.1746(5)
H3A H 0.3258 0.0318 -0.1068
C6A C -0.0218(9) -0.1203(6) -0.2084(5)
Dy1_2 Dy -0.5000 -0.5000 0.0000
Dy1_3 Dy -0.5000 0.5000 0.0000
Dy1_4 Dy 0.5000 -0.5000 0.0000
O1A_2 O 0.8185(7) 0.6091(4) -0.1413(4)
O2_2 O 0.7115(7) 0.6785(4) 0.2077(4)
O3_2 O 0.7439(7) 0.2778(4) 0.0609(4)
O3A_2 O 0.2561(7) 0.7222(4) -0.0609(4)
loop_
_geom_bond_atom_site_label_1
_geom_bond_atom_site_label_2
_geom_bond_site_symmetry_1
_geom_bond_site_symmetry_2
Dy1 O1 1_555 1_555
O1 C2 1_555 1_555
O2 C1 1_555 1_555
O3 C2 1_555 1_555
C1 C4 1_555 1_555
N1 C3 1_555 1_555
C2 C6 1_555 1_555
C3 H1 1_555 1_555
C4 N1 1_555 1_555
H2 C4 1_555 1_555
C5 C1 1_555 1_555
H3 C5 1_555 1_555
C6 C3 1_555 1_555
O4 H4 1_555 1_555
H5 O4 1_555 1_555
O1A C2A 1_555 1_555
O2A Dy1 1_555 1_555
O3A C2A 1_555 1_555
C1A O2A 1_555 1_555
N1A C3A 1_555 1_555
C2A C6A 1_555 1_555
C3A H1A 1_555 1_555
C4A C1A 1_555 1_555
H2A C4A 1_555 1_555
C5A C1A 1_555 1_555
H3A C5A 1_555 1_555
C6A C3A 1_555 1_555
Dy1_2 O2 1_555 1_555
Dy1_3 O3 1_555 1_555
Dy1_4 O3A 1_555 1_555
O1A_2 Dy1 1_555 1_555
O2_2 Dy1 1_555 1_555
O3_2 Dy1 1_555 1_555
O3A_2 Dy1 1_555 1_555
C5 C6 1_555 1_555
O1A Dy1_2 1_555 1_555
N1A C4A 1_555 1_555
C5A C6A 1_555 1_555

#END
