
#######################################################################
#
#                 Cambridge Crystallographic Data Centre
#                                CCDC 
#
#######################################################################
#
# If this CIF has been generated from an entry in the Cambridge 
# Structural Database, then it will include bibliographic, chemical, 
# crystal, experimental, refinement or atomic coordinate data resulting 
# from the CCDC's data processing and validation procedures.
#
#######################################################################

data_BOVBEV
_symmetry_cell_setting           triclinic
_symmetry_space_group_name_H-M   'P -1'
_symmetry_Int_Tables_number      2
_space_group_name_Hall           '-P 1'
loop_
_symmetry_equiv_pos_site_id
_symmetry_equiv_pos_as_xyz
1 x,y,z
2 -x,-y,-z
_cell_length_a                   4.8868(9)
_cell_length_b                   7.818(2)
_cell_length_c                   8.911(2)
_cell_angle_alpha                99.47(2)
_cell_angle_beta                 95.923(18)
_cell_angle_gamma                95.666(19)
_cell_volume                     331.681
loop_
_atom_site_label
_atom_site_type_symbol
_atom_site_fract_x
_atom_site_fract_y
_atom_site_fract_z
O4 O 1.2669 1.0267 0.5699
H4 H 1.3074 0.9332 0.5992
H5 H 1.2597 1.0141 0.4730
Tb1 Tb 0.5000 0.0000 0.0000
O1 O 0.7112(7) 0.1788(4) 0.2054(4)
O2 O 0.7453(6) 0.7813(5) 0.0618(4)
O3 O 1.1855(6) 0.8905(5) 0.1380(4)
N1 N 1.2920(8) 0.4893(5) 0.3841(4)
C1 C 0.9829(9) 0.7759(6) 0.1303(5)
C2 C 1.2552(9) 0.6264(6) 0.3137(5)
H1 H 1.3842 0.7255 0.3368
C3 C 0.8802(9) 0.3256(6) 0.2397(5)
C4 C 1.0244(9) 0.6205(6) 0.2062(5)
C5 C 0.8354(9) 0.4724(6) 0.1725(5)
H2 H 0.6767 0.4697 0.1045
C6 C 1.1147(9) 0.3429(6) 0.3479(5)
H3 H 1.1484 0.2492 0.3964
O1A O 0.2888(7) -0.1788(4) -0.2054(4)
O2A O 0.2547(6) -0.7813(5) -0.0618(4)
O3A O -0.1855(6) -0.8905(5) -0.1380(4)
N1A N -0.2920(8) -0.4893(5) -0.3841(4)
C1A C 0.0171(9) -0.7759(6) -0.1303(5)
C2A C -0.2552(9) -0.6264(6) -0.3137(5)
H1A H -0.3842 -0.7255 -0.3368
C3A C 0.1198(9) -0.3256(6) -0.2397(5)
C4A C -0.0244(9) -0.6205(6) -0.2062(5)
C5A C 0.1646(9) -0.4724(6) -0.1725(5)
H2A H 0.3233 -0.4697 -0.1045
C6A C -0.1147(9) -0.3429(6) -0.3479(5)
H3A H -0.1484 -0.2492 -0.3964
Tb1_2 Tb -0.5000 -1.0000 0.0000
Tb1_3 Tb 0.5000 -1.0000 0.0000
Tb1_4 Tb 0.5000 1.0000 0.0000
Tb1_5 Tb 1.5000 1.0000 0.0000
O2_2 O 0.7453(6) -0.2187(5) 0.0618(4)
O2A_2 O 0.2547(6) 0.2187(5) -0.0618(4)
O3_2 O 0.1855(6) -0.1095(5) 0.1380(4)
O3A_2 O 0.8145(6) 0.1095(5) -0.1380(4)
loop_
_geom_bond_atom_site_label_1
_geom_bond_atom_site_label_2
_geom_bond_site_symmetry_1
_geom_bond_site_symmetry_2
Tb1 O1 1_555 1_555
O1 C3 1_555 1_555
O2 C1 1_555 1_555
O3 C1 1_555 1_555
N1 C2 1_555 1_555
C1 C4 1_555 1_555
C2 H1 1_555 1_555
C3 C5 1_555 1_555
C4 C2 1_555 1_555
C5 C4 1_555 1_555
H2 C5 1_555 1_555
C6 N1 1_555 1_555
H3 C6 1_555 1_555
O4 H4 1_555 1_555
H5 O4 1_555 1_555
O1A Tb1 1_555 1_555
O2A C1A 1_555 1_555
O3A C1A 1_555 1_555
N1A C2A 1_555 1_555
C1A C4A 1_555 1_555
C2A H1A 1_555 1_555
C3A O1A 1_555 1_555
C4A C2A 1_555 1_555
C5A C3A 1_555 1_555
H2A C5A 1_555 1_555
C6A N1A 1_555 1_555
H3A C6A 1_555 1_555
Tb1_2 O3A 1_555 1_555
Tb1_3 O2A 1_555 1_555
Tb1_4 O2 1_555 1_555
Tb1_5 O3 1_555 1_555
O2_2 Tb1 1_555 1_555
O2A_2 Tb1 1_555 1_555
O3_2 Tb1 1_555 1_555
O3A_2 Tb1 1_555 1_555
C3 C6 1_555 1_555
C3A C6A 1_555 1_555
C4A C5A 1_555 1_555

#END
