
#######################################################################
#
#                 Cambridge Crystallographic Data Centre
#                                CCDC 
#
#######################################################################
#
# If this CIF has been generated from an entry in the Cambridge 
# Structural Database, then it will include bibliographic, chemical, 
# crystal, experimental, refinement or atomic coordinate data resulting 
# from the CCDC's data processing and validation procedures.
#
#######################################################################

data_BOVGEA
_symmetry_cell_setting           monoclinic
_symmetry_space_group_name_H-M   'C 2/c'
_symmetry_Int_Tables_number      15
_space_group_name_Hall           '-C 2yn'
loop_
_symmetry_equiv_pos_site_id
_symmetry_equiv_pos_as_xyz
1 x,y,z
2 -x,y,1/2-z
3 1/2+x,1/2+y,z
4 1/2-x,1/2+y,1/2-z
5 -x,-y,-z
6 x,-y,1/2+z
7 1/2-x,1/2-y,-z
8 1/2+x,1/2-y,1/2+z
_cell_length_a                   22.047(4)
_cell_length_b                   11.3219(15)
_cell_length_c                   20.515(6)
_cell_angle_alpha                90
_cell_angle_beta                 111.38(2)
_cell_angle_gamma                90
_cell_volume                     4768.43
loop_
_atom_site_label
_atom_site_type_symbol
_atom_site_fract_x
_atom_site_fract_y
_atom_site_fract_z
Ho1 Ho 0.40318(2) 0.46188(4) 0.69753(2)
F1 F 0.4239(5) 0.0781(8) 0.8062(6)
F2 F 0.4221(5) -0.1541(8) 0.8033(6)
F3 F 0.4974(5) 0.6897(8) 0.5791(4)
F4 F 0.5441(4) 0.2877(7) 0.5601(4)
O1 O 0.4451(4) 0.2716(7) 0.7277(5)
O2 O 0.4452(4) -0.3472(7) 0.7239(5)
O3 O 0.5019(4) 0.4640(8) 0.6800(4)
O4 O 0.6031(4) 0.4746(10) 0.6868(5)
O5 O 0.3114(5) 0.5817(9) 0.6733(5)
O6 O 0.3143(5) 0.3405(9) 0.6890(7)
O7 O 0.3788(6) 0.3495(10) 0.5885(6)
O8 O 0.3557(6) 0.4231(13) 0.4854(5)
O9 O 0.3732(6) 0.5355(10) 0.5760(6)
N1 N 0.2273(5) 0.6976(11) 0.6097(7)
N2 N 0.2550(6) 0.1773(12) 0.6830(7)
N3 N 0.3679(5) 0.4360(11) 0.5478(5)
C1 C 0.5000 0.2212(13) 0.7500
C2 C 0.5000 0.0876(15) 0.7500
C3 C 0.4612(6) 0.0218(10) 0.7772(7)
C4 C 0.4606(6) -0.0989(11) 0.7767(7)
C5 C 0.5000 -0.1649(15) 0.7500
C6 C 0.5000 -0.2977(15) 0.7500
C7 C 0.5452(5) 0.4762(12) 0.6529(5)
C8 C 0.5209(5) 0.4888(12) 0.5731(6)
C9 C 0.4982(6) 0.5944(12) 0.5410(6)
C10 C 0.5228(6) 0.3934(12) 0.5309(6)
C11 C 0.2880(6) 0.6654(13) 0.6321(7)
H1 H 0.3161 0.7077 0.6162
C12 C 0.1799(8) 0.6364(19) 0.6303(10)
H2 H 0.1976 0.5622 0.6514
H3 H 0.1414 0.6226 0.5899
H4 H 0.1692 0.6836 0.6635
C13 C 0.2028(8) 0.7935(16) 0.5591(10)
H5 H 0.2381 0.8267 0.5483
H6 H 0.1838 0.8535 0.5787
H7 H 0.1704 0.7631 0.5171
C14 C 0.3070(7) 0.2317(14) 0.6839(8)
H8 H 0.3409 0.1865 0.6806
C15 C 0.2487(8) 0.0503(14) 0.6784(9)
H9 H 0.2908 0.0153 0.6882
H10 H 0.2203 0.0284 0.6321
H11 H 0.2309 0.0226 0.7119
C16 C 0.1978(7) 0.2406(15) 0.6862(10)
H12 H 0.2115 0.3138 0.7108
H13 H 0.1768 0.1929 0.7104
H14 H 0.1679 0.2562 0.6396
F1A F 0.5761(5) 0.0781(8) 0.6938(6)
F2A F 0.5779(5) -0.1541(8) 0.6967(6)
O1A O 0.5549(4) 0.2716(7) 0.7723(5)
O2A O 0.5548(4) -0.3472(7) 0.7761(5)
C3A C 0.5388(6) 0.0218(10) 0.7228(7)
C4A C 0.5394(6) -0.0989(11) 0.7233(7)
F3D F 0.5026(5) 0.3103(8) 0.4209(4)
F4D F 0.4559(4) 0.7123(7) 0.4399(4)
O3D O 0.4981(4) 0.5360(8) 0.3200(4)
O4D O 0.3969(4) 0.5254(10) 0.3132(5)
C7D C 0.4548(5) 0.5238(12) 0.3471(5)
C8D C 0.4791(5) 0.5112(12) 0.4269(6)
C9D C 0.5018(6) 0.4056(12) 0.4590(6)
C10D C 0.4772(6) 0.6066(12) 0.4691(6)
Ho1A Ho 0.59682(2) 0.46188(4) 0.80247(2)
O5A O 0.6886(5) 0.5817(9) 0.8267(5)
O6A O 0.6857(5) 0.3405(9) 0.8110(7)
O7A O 0.6212(6) 0.3495(10) 0.9115(6)
O8A O 0.6443(6) 0.4231(13) 1.0146(5)
O9A O 0.6268(6) 0.5355(10) 0.9240(6)
N1A N 0.7727(5) 0.6976(11) 0.8903(7)
N2A N 0.7450(6) 0.1773(12) 0.8170(7)
N3A N 0.6321(5) 0.4360(11) 0.9522(5)
C11A C 0.7120(6) 0.6654(13) 0.8679(7)
H1A H 0.6839 0.7077 0.8838
C12A C 0.8201(8) 0.6364(19) 0.8697(10)
H2A H 0.8024 0.5622 0.8486
H3A H 0.8586 0.6226 0.9101
H4A H 0.8308 0.6836 0.8365
C13A C 0.7972(8) 0.7935(16) 0.9409(10)
H5A H 0.7619 0.8267 0.9517
H6A H 0.8162 0.8535 0.9213
H7A H 0.8296 0.7631 0.9829
C14A C 0.6930(7) 0.2317(14) 0.8161(8)
H8A H 0.6591 0.1865 0.8194
C15A C 0.7513(8) 0.0503(14) 0.8216(9)
H9A H 0.7092 0.0153 0.8118
H10A H 0.7797 0.0284 0.8679
H11A H 0.7691 0.0226 0.7881
C16A C 0.8022(7) 0.2406(15) 0.8138(10)
H12A H 0.7885 0.3138 0.7892
H13A H 0.8232 0.1929 0.7896
H14A H 0.8321 0.2562 0.8604
Ho1_2 Ho 0.40318(2) -0.53812(4) 0.69753(2)
Ho1A_2 Ho 0.59682(2) -0.53812(4) 0.80247(2)
Ho1D Ho 0.59682(2) 0.53812(4) 0.30247(2)
Ho1E Ho 0.40318(2) 0.53812(4) 0.19753(2)
O2_2 O 0.4452(4) 0.6528(7) 0.7239(5)
O2A_2 O 0.5548(4) 0.6528(7) 0.7761(5)
O3A O 0.4981(4) 0.4640(8) 0.8200(4)
O4A O 0.3969(4) 0.4746(10) 0.8132(5)
O10 O 0.3513(10) -0.085(2) 0.5951(12)
N4 N 0.3718(8) 0.0538(16) 0.5261(10)
C17 C 0.3873(12) -0.035(2) 0.5706(13)
H15 H 0.4300 -0.0620 0.5850
C18 C 0.4188(13) 0.110(2) 0.5033(17)
H16 H 0.4279 0.1876 0.5231
H17 H 0.4019 0.1153 0.4531
H18 H 0.4582 0.0641 0.5184
C19 C 0.3047(11) 0.096(2) 0.4980(14)
H19 H 0.2828 0.0626 0.4524
H20 H 0.3045 0.1806 0.4945
H21 H 0.2827 0.0728 0.5286
loop_
_geom_bond_atom_site_label_1
_geom_bond_atom_site_label_2
_geom_bond_site_symmetry_1
_geom_bond_site_symmetry_2
Ho1 O1 1_555 1_555
F1 C3 1_555 1_555
F2 C4 1_555 1_555
F3 C9 1_555 1_555
F4 C10 1_555 1_555
O1 C1 1_555 1_555
O2 C6 1_555 1_555
O3 Ho1 1_555 1_555
O4 C7 1_555 1_555
O5 Ho1 1_555 1_555
O6 Ho1 1_555 1_555
O7 Ho1 1_555 1_555
O8 N3 1_555 1_555
O9 Ho1 1_555 1_555
N1 C11 1_555 1_555
N2 C14 1_555 1_555
N3 O7 1_555 1_555
C1 C2 1_555 1_555
C2 C3 1_555 1_555
C3 C4 1_555 1_555
C4 C5 1_555 1_555
C5 C6 1_555 1_555
C6 O2A 1_555 1_555
C7 O3 1_555 1_555
C8 C7 1_555 1_555
C9 C8 1_555 1_555
C10 C8 1_555 1_555
C11 O5 1_555 1_555
H1 C11 1_555 1_555
C12 N1 1_555 1_555
H2 C12 1_555 1_555
H3 C12 1_555 1_555
H4 C12 1_555 1_555
C13 N1 1_555 1_555
H5 C13 1_555 1_555
H6 C13 1_555 1_555
H7 C13 1_555 1_555
C14 O6 1_555 1_555
H8 C14 1_555 1_555
C15 N2 1_555 1_555
H9 C15 1_555 1_555
H10 C15 1_555 1_555
H11 C15 1_555 1_555
C16 N2 1_555 1_555
H12 C16 1_555 1_555
H13 C16 1_555 1_555
H14 C16 1_555 1_555
O10 C17 1_555 1_555
N4 C17 1_555 1_555
C17 H15 1_555 1_555
C18 N4 1_555 1_555
H16 C18 1_555 1_555
H17 C18 1_555 1_555
H18 C18 1_555 1_555
C19 N4 1_555 1_555
H19 C19 1_555 1_555
H20 C19 1_555 1_555
H21 C19 1_555 1_555
F1A C3A 1_555 1_555
F2A C4A 1_555 1_555
O1A C1 1_555 1_555
O2A Ho1A_2 1_555 1_555
C3A C2 1_555 1_555
C4A C5 1_555 1_555
F3D C9D 1_555 1_555
F4D C10D 1_555 1_555
O3D C7D 1_555 1_555
O4D C7D 1_555 1_555
C7D C8D 1_555 1_555
C8D C9D 1_555 1_555
C9D C10 1_555 1_555
C10D C9 1_555 1_555
Ho1A O3 1_555 1_555
O5A Ho1A 1_555 1_555
O6A Ho1A 1_555 1_555
O7A Ho1A 1_555 1_555
O8A N3A 1_555 1_555
O9A Ho1A 1_555 1_555
N1A C11A 1_555 1_555
N2A C14A 1_555 1_555
N3A O7A 1_555 1_555
C11A O5A 1_555 1_555
H1A C11A 1_555 1_555
C12A N1A 1_555 1_555
H2A C12A 1_555 1_555
H3A C12A 1_555 1_555
H4A C12A 1_555 1_555
C13A N1A 1_555 1_555
H5A C13A 1_555 1_555
H6A C13A 1_555 1_555
H7A C13A 1_555 1_555
C14A O6A 1_555 1_555
H8A C14A 1_555 1_555
C15A N2A 1_555 1_555
H9A C15A 1_555 1_555
H10A C15A 1_555 1_555
H11A C15A 1_555 1_555
C16A N2A 1_555 1_555
H12A C16A 1_555 1_555
H13A C16A 1_555 1_555
H14A C16A 1_555 1_555
Ho1_2 O2 1_555 1_555
Ho1D O3D 1_555 1_555
Ho1E O3D 1_555 1_555
O2_2 Ho1 1_555 1_555
O2A_2 Ho1A 1_555 1_555
O3A Ho1 1_555 1_555
O4A Ho1 1_555 1_555
O4 Ho1A 1_555 1_555
O9 N3 1_555 1_555
O1A Ho1A 1_555 1_555
C3A C4A 1_555 1_555
O4D Ho1E 1_555 1_555
C8D C10D 1_555 1_555
Ho1A O3A 1_555 1_555
O9A N3A 1_555 1_555

#END
