
#######################################################################
#
#                 Cambridge Crystallographic Data Centre
#                                CCDC 
#
#######################################################################
#
# If this CIF has been generated from an entry in the Cambridge 
# Structural Database, then it will include bibliographic, chemical, 
# crystal, experimental, refinement or atomic coordinate data resulting 
# from the CCDC's data processing and validation procedures.
#
#######################################################################

data_BOVGUQ
_symmetry_cell_setting           monoclinic
_symmetry_space_group_name_H-M   'C 2/c'
_symmetry_Int_Tables_number      15
_space_group_name_Hall           '-C 2yn'
loop_
_symmetry_equiv_pos_site_id
_symmetry_equiv_pos_as_xyz
1 x,y,z
2 -x,y,1/2-z
3 1/2+x,1/2+y,z
4 1/2-x,1/2+y,1/2-z
5 -x,-y,-z
6 x,-y,1/2+z
7 1/2-x,1/2-y,-z
8 1/2+x,1/2-y,1/2+z
_cell_length_a                   10.8081(5)
_cell_length_b                   10.4606(4)
_cell_length_c                   14.2364(5)
_cell_angle_alpha                90
_cell_angle_beta                 107.209(3)
_cell_angle_gamma                90
_cell_volume                     1537.5
loop_
_atom_site_label
_atom_site_type_symbol
_atom_site_fract_x
_atom_site_fract_y
_atom_site_fract_z
C1 C 0.32818(18) 0.63126(17) 0.59659(13)
C2 C 0.33209(18) 0.67606(18) 0.41548(13)
C3 C 0.2351(2) 0.2074(2) 0.65061(18)
H1 H 0.2568 0.1620 0.7128
H2 H 0.1970 0.1467 0.5986
C4 C 0.1396(2) 0.3104(2) 0.65052(17)
H3 H 0.0655 0.2748 0.6666
H4 H 0.1790 0.3746 0.6994
C5 C 0.0177(2) 0.4734(2) 0.55126(16)
H5 H 0.0623 0.5377 0.5982
H6 H -0.0598 0.4477 0.5674
N1 N 0.37652(17) 0.55888(16) 0.65609(13)
N2 N 0.38214(17) 0.63259(17) 0.36246(12)
N3 N 0.35386(18) 0.26185(18) 0.63577(14)
H7 H 0.3286 0.3057 0.5789
H8 H 0.4007 0.1951 0.6253
O1 O 0.09905(16) 0.36691(16) 0.55503(12)
Ni1 Ni 0.2500 0.7500 0.5000
Cd1 Cd 0.5000 0.396018(16) 0.7500
C3D C -0.2351(2) 0.7926(2) 0.34939(18)
H1D H -0.2568 0.8380 0.2872
H2D H -0.1970 0.8533 0.4014
C4D C -0.1396(2) 0.6896(2) 0.34948(17)
H3D H -0.0655 0.7252 0.3334
H4D H -0.1790 0.6254 0.3006
C5D C -0.0177(2) 0.5266(2) 0.44874(16)
H5D H -0.0623 0.4623 0.4018
H6D H 0.0598 0.5523 0.4326
N3D N -0.35386(18) 0.73815(18) 0.36423(14)
H7D H -0.3286 0.6943 0.4211
H8D H -0.4007 0.8049 0.3747
O1D O -0.09905(16) 0.63309(16) 0.44497(12)
C1A C 0.67182(18) 0.63126(17) 0.90341(13)
N1A N 0.62348(17) 0.55888(16) 0.84391(13)
C2F C 0.16791(18) 0.82394(18) 0.58452(13)
N2F N 0.11786(17) 0.86741(17) 0.63754(12)
C1F C 0.17182(18) 0.86874(17) 0.40341(13)
N2D N 0.61786(17) 0.36741(17) 0.63754(12)
N2E N 0.38214(17) 0.36741(17) 0.86246(12)
N3A N 0.64614(18) 0.26185(18) 0.86423(14)
Ni1A Ni 0.7500 0.7500 1.0000
Cd1B Cd 0.0000 0.896018(16) 0.7500
Cd1D Cd -0.5000 0.603982(16) 0.2500
Cd1D_2 Cd 0.5000 0.603982(16) 0.2500
loop_
_geom_bond_atom_site_label_1
_geom_bond_atom_site_label_2
_geom_bond_site_symmetry_1
_geom_bond_site_symmetry_2
C1 N1 1_555 1_555
C2 N2 1_555 1_555
C3 H1 1_555 1_555
H2 C3 1_555 1_555
C4 C3 1_555 1_555
H3 C4 1_555 1_555
H4 C4 1_555 1_555
C5 H5 1_555 1_555
H6 C5 1_555 1_555
N1 Cd1 1_555 1_555
N2 Cd1D_2 1_555 1_555
N3 C3 1_555 1_555
H7 N3 1_555 1_555
H8 N3 1_555 1_555
O1 C4 1_555 1_555
Ni1 C1 1_555 1_555
Cd1 N3 1_555 1_555
C3D H1D 1_555 1_555
H2D C3D 1_555 1_555
C4D C3D 1_555 1_555
H3D C4D 1_555 1_555
H4D C4D 1_555 1_555
C5D C5 1_555 1_555
H5D C5D 1_555 1_555
H6D C5D 1_555 1_555
N3D C3D 1_555 1_555
H7D N3D 1_555 1_555
H8D N3D 1_555 1_555
O1D C4D 1_555 1_555
C1A N1A 1_555 1_555
N1A Cd1 1_555 1_555
C2F Ni1 1_555 1_555
N2F C2F 1_555 1_555
C1F Ni1 1_555 1_555
N2D Cd1 1_555 1_555
N2E Cd1 1_555 1_555
N3A Cd1 1_555 1_555
Ni1A C1A 1_555 1_555
Cd1B N2F 1_555 1_555
Cd1D N3D 1_555 1_555
C2 Ni1 1_555 1_555
C5 O1 1_555 1_555
C5D O1D 1_555 1_555

#END
