
#######################################################################
#
#                 Cambridge Crystallographic Data Centre
#                                CCDC 
#
#######################################################################
#
# If this CIF has been generated from an entry in the Cambridge 
# Structural Database, then it will include bibliographic, chemical, 
# crystal, experimental, refinement or atomic coordinate data resulting 
# from the CCDC's data processing and validation procedures.
#
#######################################################################

data_BOVGIE
_symmetry_cell_setting           monoclinic
_symmetry_space_group_name_H-M   'C 2/c'
_symmetry_Int_Tables_number      15
_space_group_name_Hall           '-C 2yn'
loop_
_symmetry_equiv_pos_site_id
_symmetry_equiv_pos_as_xyz
1 x,y,z
2 -x,y,1/2-z
3 1/2+x,1/2+y,z
4 1/2-x,1/2+y,1/2-z
5 -x,-y,-z
6 x,-y,1/2+z
7 1/2-x,1/2-y,-z
8 1/2+x,1/2-y,1/2+z
_cell_length_a                   22.007(2)
_cell_length_b                   11.2742(10)
_cell_length_c                   20.484(2)
_cell_angle_alpha                90
_cell_angle_beta                 111.459(8)
_cell_angle_gamma                90
_cell_volume                     4730
loop_
_atom_site_label
_atom_site_type_symbol
_atom_site_fract_x
_atom_site_fract_y
_atom_site_fract_z
Tm1 Tm 0.403400(6) 0.462550(12) 0.697793(7)
F1 F 0.42353(17) 0.0802(3) 0.8063(2)
F2 F 0.42210(16) -0.1539(2) 0.8044(2)
F3 F 0.49648(15) 0.6909(2) 0.57872(12)
F4 F 0.54418(13) 0.2877(2) 0.56100(12)
O1 O 0.44530(11) 0.2731(2) 0.72866(15)
O2 O 0.44503(13) -0.3468(2) 0.72344(16)
O3 O 0.50178(15) 0.4641(2) 0.67981(16)
O4 O 0.60271(15) 0.4761(3) 0.68761(17)
O5 O 0.31191(15) 0.5804(3) 0.67372(18)
O6 O 0.31462(16) 0.3423(3) 0.6891(2)
O7 O 0.3778(2) 0.3495(3) 0.59003(17)
O8 O 0.3552(2) 0.4222(5) 0.48608(17)
O9 O 0.3735(2) 0.5365(3) 0.5767(2)
N1 N 0.22841(17) 0.6987(3) 0.61020(19)
N2 N 0.25432(17) 0.1784(3) 0.6823(2)
N3 N 0.36804(19) 0.4354(4) 0.5487(2)
C1 C 0.5000 0.2250(4) 0.7500
C2 C 0.5000 0.0890(4) 0.7500
C3 C 0.4615(2) 0.0242(3) 0.7766(3)
C4 C 0.46066(19) -0.0990(3) 0.7763(2)
C5 C 0.5000 -0.1633(4) 0.7500
C6 C 0.5000 -0.2987(5) 0.7500
C7 C 0.5434(2) 0.4764(3) 0.6523(2)
C8 C 0.52115(18) 0.4888(4) 0.57371(19)
C9 C 0.4978(2) 0.5953(4) 0.54026(19)
C10 C 0.52244(18) 0.3943(3) 0.53147(19)
C11 C 0.2905(2) 0.6656(4) 0.6334(2)
H1 H 0.3194 0.7083 0.6188
C12 C 0.1810(2) 0.6361(6) 0.6311(3)
H2 H 0.2015 0.5691 0.6596
H3 H 0.1458 0.6091 0.5901
H4 H 0.1642 0.6884 0.6575
C13 C 0.2038(3) 0.7953(5) 0.5607(3)
H5 H 0.2395 0.8335 0.5529
H6 H 0.1817 0.8516 0.5793
H7 H 0.1738 0.7645 0.5171
C14 C 0.3072(2) 0.2328(4) 0.6833(2)
H8 H 0.3411 0.1873 0.6796
C15 C 0.2487(3) 0.0498(4) 0.6773(3)
H9 H 0.2891 0.0166 0.6778
H10 H 0.2141 0.0284 0.6344
H11 H 0.2394 0.0196 0.7164
C16 C 0.1984(2) 0.2416(5) 0.6846(3)
H12 H 0.2099 0.3230 0.6966
H13 H 0.1842 0.2063 0.7193
H14 H 0.1637 0.2375 0.6395
F1A F 0.57647(17) 0.0802(3) 0.6937(2)
F2A F 0.57790(16) -0.1539(2) 0.6956(2)
O1A O 0.55470(11) 0.2731(2) 0.77134(15)
O2A O 0.55497(13) -0.3468(2) 0.77656(16)
C3A C 0.5385(2) 0.0242(3) 0.7234(3)
C4A C 0.53934(19) -0.0990(3) 0.7237(2)
F3D F 0.50352(15) 0.3091(2) 0.42128(12)
F4D F 0.45582(13) 0.7123(2) 0.43900(12)
O3D O 0.49822(15) 0.5359(2) 0.32019(16)
O4D O 0.39729(15) 0.5239(3) 0.31239(17)
C7D C 0.4566(2) 0.5236(3) 0.3477(2)
C8D C 0.47885(18) 0.5112(4) 0.42629(19)
C9D C 0.5022(2) 0.4047(4) 0.45974(19)
C10D C 0.47756(18) 0.6057(3) 0.46853(19)
Tm1A Tm 0.596600(6) 0.462550(12) 0.802207(7)
O5A O 0.68809(15) 0.5804(3) 0.82628(18)
O6A O 0.68538(16) 0.3423(3) 0.8109(2)
O7A O 0.6222(2) 0.3495(3) 0.90997(17)
O8A O 0.6448(2) 0.4222(5) 1.01392(17)
O9A O 0.6265(2) 0.5365(3) 0.9233(2)
N1A N 0.77159(17) 0.6987(3) 0.88980(19)
N2A N 0.74568(17) 0.1784(3) 0.8177(2)
N3A N 0.63196(19) 0.4354(4) 0.9513(2)
C11A C 0.7095(2) 0.6656(4) 0.8666(2)
H1A H 0.6806 0.7083 0.8812
C12A C 0.8190(2) 0.6361(6) 0.8689(3)
H2A H 0.7985 0.5691 0.8404
H3A H 0.8542 0.6091 0.9099
H4A H 0.8358 0.6884 0.8425
C13A C 0.7962(3) 0.7953(5) 0.9393(3)
H5A H 0.7605 0.8335 0.9471
H6A H 0.8183 0.8516 0.9207
H7A H 0.8262 0.7645 0.9829
C14A C 0.6928(2) 0.2328(4) 0.8167(2)
H8A H 0.6589 0.1873 0.8204
C15A C 0.7513(3) 0.0498(4) 0.8227(3)
H9A H 0.7109 0.0166 0.8222
H10A H 0.7859 0.0284 0.8656
H11A H 0.7606 0.0196 0.7836
C16A C 0.8016(2) 0.2416(5) 0.8154(3)
H12A H 0.7901 0.3230 0.8034
H13A H 0.8158 0.2063 0.7807
H14A H 0.8363 0.2375 0.8605
Tm1_2 Tm 0.403400(6) -0.537450(12) 0.697793(7)
Tm1A_2 Tm 0.596600(6) -0.537450(12) 0.802207(7)
Tm1D Tm 0.596600(6) 0.537450(12) 0.302207(7)
Tm1E Tm 0.403400(6) 0.537450(12) 0.197793(7)
O2_2 O 0.44503(13) 0.6532(2) 0.72344(16)
O2A_2 O 0.55497(13) 0.6532(2) 0.77656(16)
O3A O 0.49822(15) 0.4641(2) 0.82019(16)
O4A O 0.39729(15) 0.4761(3) 0.81239(17)
O10 O 0.3520(4) -0.0813(7) 0.5966(4)
N4 N 0.3713(3) 0.0532(5) 0.5252(3)
C17 C 0.3873(4) -0.0331(7) 0.5710(5)
H15 H 0.4301 -0.0603 0.5855
C18 C 0.4182(4) 0.1134(9) 0.5016(6)
H16 H 0.4163 0.1972 0.5088
H17 H 0.4078 0.0977 0.4527
H18 H 0.4613 0.0848 0.5279
C19 C 0.3045(3) 0.0970(7) 0.4978(5)
H19 H 0.2878 0.0925 0.4475
H20 H 0.3037 0.1780 0.5120
H21 H 0.2780 0.0495 0.5157
loop_
_geom_bond_atom_site_label_1
_geom_bond_atom_site_label_2
_geom_bond_site_symmetry_1
_geom_bond_site_symmetry_2
Tm1 O1 1_555 1_555
F1 C3 1_555 1_555
F2 C4 1_555 1_555
F3 C9 1_555 1_555
F4 C10 1_555 1_555
O1 C1 1_555 1_555
O2 C6 1_555 1_555
O3 Tm1 1_555 1_555
O4 C7 1_555 1_555
O5 Tm1 1_555 1_555
O6 Tm1 1_555 1_555
O7 Tm1 1_555 1_555
O8 N3 1_555 1_555
O9 Tm1 1_555 1_555
N1 C11 1_555 1_555
N2 C14 1_555 1_555
N3 O7 1_555 1_555
C1 C2 1_555 1_555
C2 C3 1_555 1_555
C3 C4 1_555 1_555
C4 C5 1_555 1_555
C5 C6 1_555 1_555
C6 O2A 1_555 1_555
C7 O3 1_555 1_555
C8 C7 1_555 1_555
C9 C8 1_555 1_555
C10 C8 1_555 1_555
C11 O5 1_555 1_555
H1 C11 1_555 1_555
C12 N1 1_555 1_555
H2 C12 1_555 1_555
H3 C12 1_555 1_555
H4 C12 1_555 1_555
C13 N1 1_555 1_555
H5 C13 1_555 1_555
H6 C13 1_555 1_555
H7 C13 1_555 1_555
C14 O6 1_555 1_555
H8 C14 1_555 1_555
C15 N2 1_555 1_555
H9 C15 1_555 1_555
H10 C15 1_555 1_555
H11 C15 1_555 1_555
C16 N2 1_555 1_555
H12 C16 1_555 1_555
H13 C16 1_555 1_555
H14 C16 1_555 1_555
O10 C17 1_555 1_555
N4 C17 1_555 1_555
C17 H15 1_555 1_555
C18 N4 1_555 1_555
H16 C18 1_555 1_555
H17 C18 1_555 1_555
H18 C18 1_555 1_555
C19 N4 1_555 1_555
H19 C19 1_555 1_555
H20 C19 1_555 1_555
H21 C19 1_555 1_555
F1A C3A 1_555 1_555
F2A C4A 1_555 1_555
O1A C1 1_555 1_555
O2A Tm1A_2 1_555 1_555
C3A C2 1_555 1_555
C4A C5 1_555 1_555
F3D C9D 1_555 1_555
F4D C10D 1_555 1_555
O3D C7D 1_555 1_555
O4D C7D 1_555 1_555
C7D C8D 1_555 1_555
C8D C9D 1_555 1_555
C9D C10 1_555 1_555
C10D C9 1_555 1_555
Tm1A O3 1_555 1_555
O5A Tm1A 1_555 1_555
O6A Tm1A 1_555 1_555
O7A Tm1A 1_555 1_555
O8A N3A 1_555 1_555
O9A Tm1A 1_555 1_555
N1A C11A 1_555 1_555
N2A C14A 1_555 1_555
N3A O7A 1_555 1_555
C11A O5A 1_555 1_555
H1A C11A 1_555 1_555
C12A N1A 1_555 1_555
H2A C12A 1_555 1_555
H3A C12A 1_555 1_555
H4A C12A 1_555 1_555
C13A N1A 1_555 1_555
H5A C13A 1_555 1_555
H6A C13A 1_555 1_555
H7A C13A 1_555 1_555
C14A O6A 1_555 1_555
H8A C14A 1_555 1_555
C15A N2A 1_555 1_555
H9A C15A 1_555 1_555
H10A C15A 1_555 1_555
H11A C15A 1_555 1_555
C16A N2A 1_555 1_555
H12A C16A 1_555 1_555
H13A C16A 1_555 1_555
H14A C16A 1_555 1_555
Tm1_2 O2 1_555 1_555
Tm1D O3D 1_555 1_555
Tm1E O3D 1_555 1_555
O2_2 Tm1 1_555 1_555
O2A_2 Tm1A 1_555 1_555
O3A Tm1 1_555 1_555
O4A Tm1 1_555 1_555
O4 Tm1A 1_555 1_555
O9 N3 1_555 1_555
O1A Tm1A 1_555 1_555
C3A C4A 1_555 1_555
O4D Tm1E 1_555 1_555
C8D C10D 1_555 1_555
Tm1A O3A 1_555 1_555
O9A N3A 1_555 1_555

#END
