
#######################################################################
#
#                 Cambridge Crystallographic Data Centre
#                                CCDC 
#
#######################################################################
#
# If this CIF has been generated from an entry in the Cambridge 
# Structural Database, then it will include bibliographic, chemical, 
# crystal, experimental, refinement or atomic coordinate data resulting 
# from the CCDC's data processing and validation procedures.
#
#######################################################################

data_BOVGOK
_symmetry_cell_setting           orthorhombic
_symmetry_space_group_name_H-M   'P b c n'
_symmetry_Int_Tables_number      60
_space_group_name_Hall           '-P 2n 2ab'
loop_
_symmetry_equiv_pos_site_id
_symmetry_equiv_pos_as_xyz
1 x,y,z
2 1/2-x,1/2-y,1/2+z
3 1/2+x,1/2-y,-z
4 -x,y,1/2-z
5 -x,-y,-z
6 1/2+x,1/2+y,1/2-z
7 1/2-x,1/2+y,z
8 x,-y,1/2+z
_cell_length_a                   11.4630(10)
_cell_length_b                   8.9492(8)
_cell_length_c                   14.7436(13)
_cell_angle_alpha                90
_cell_angle_beta                 90
_cell_angle_gamma                90
_cell_volume                     1512.47
loop_
_atom_site_label
_atom_site_type_symbol
_atom_site_fract_x
_atom_site_fract_y
_atom_site_fract_z
Ni1 Ni 0.5000 1.0000 0.0000
Zn1 Zn 0.5000 0.62233(5) 0.2500
N1 N 0.5173(2) 0.7739(3) 0.14915(16)
O1 O 0.4465(2) 0.4339(3) 0.39380(14)
C1 C 0.5118(2) 0.8606(3) 0.09273(19)
C2 C 0.6039(3) 0.8892(3) -0.0707(2)
C3 C 0.2841(3) 0.4501(6) 0.2958(3)
H1 H 0.2483 0.5323 0.3284
H2 H 0.2216 0.3898 0.2706
C4 C 0.3471(4) 0.3618(5) 0.3584(3)
H3 H 0.2958 0.3348 0.4081
H4 H 0.3712 0.2702 0.3286
C5 C 0.4389(3) 0.4830(4) 0.48464(18)
H5 H 0.4047 0.4059 0.5224
H6 H 0.3907 0.5719 0.4886
N2 N 0.6665(3) 0.8212(4) -0.1146(2)
N3 N 0.3520(2) 0.5113(3) 0.22131(16)
H7 H 0.3054 0.5735 0.1899
H8 H 0.3705 0.4353 0.1840
O1D O 0.5535(2) 0.5661(3) 0.60620(14)
C3D C 0.7159(3) 0.5499(6) 0.7042(3)
H1D H 0.7517 0.4677 0.6716
H2D H 0.7784 0.6102 0.7294
C4D C 0.6529(4) 0.6382(5) 0.6416(3)
H3D H 0.7042 0.6652 0.5919
H4D H 0.6288 0.7298 0.6714
C5D C 0.5611(3) 0.5170(4) 0.51536(18)
H5D H 0.5953 0.5941 0.4776
H6D H 0.6093 0.4281 0.5114
N3D N 0.6480(2) 0.4887(3) 0.77869(16)
H7D H 0.6946 0.4265 0.8101
H8D H 0.6295 0.5647 0.8160
N1C N 0.4827(2) 0.7739(3) 0.35085(16)
C1C C 0.4882(2) 0.8606(3) 0.40727(19)
C2D C 0.3961(3) 1.1108(3) 0.0707(2)
N2D N 0.3335(3) 1.1788(4) 0.1146(2)
Ni1C Ni 0.5000 1.0000 0.5000
Zn1D Zn 0.5000 0.37767(5) 0.7500
C1D C 0.4882(2) 1.1394(3) -0.09273(19)
N3C N 0.6480(2) 0.5113(3) 0.27869(16)
loop_
_geom_bond_atom_site_label_1
_geom_bond_atom_site_label_2
_geom_bond_site_symmetry_1
_geom_bond_site_symmetry_2
Ni1 C1 1_555 1_555
Zn1 N1 1_555 1_555
N1 C1 1_555 1_555
O1 C4 1_555 1_555
C2 Ni1 1_555 1_555
C3 H1 1_555 1_555
H2 C3 1_555 1_555
C4 C3 1_555 1_555
H3 C4 1_555 1_555
H4 C4 1_555 1_555
C5 O1 1_555 1_555
H5 C5 1_555 1_555
H6 C5 1_555 1_555
N2 C2 1_555 1_555
N3 Zn1 1_555 1_555
H7 N3 1_555 1_555
H8 N3 1_555 1_555
O1D C4D 1_555 1_555
C3D H1D 1_555 1_555
H2D C3D 1_555 1_555
C4D C3D 1_555 1_555
H3D C4D 1_555 1_555
H4D C4D 1_555 1_555
C5D C5 1_555 1_555
H5D C5D 1_555 1_555
H6D C5D 1_555 1_555
N3D C3D 1_555 1_555
H7D N3D 1_555 1_555
H8D N3D 1_555 1_555
N1C Zn1 1_555 1_555
C1C N1C 1_555 1_555
C2D Ni1 1_555 1_555
N2D C2D 1_555 1_555
Ni1C C1C 1_555 1_555
Zn1D N3D 1_555 1_555
C1D Ni1 1_555 1_555
N3C Zn1 1_555 1_555
C3 N3 1_555 1_555
O1D C5D 1_555 1_555

#END
