
#######################################################################
#
#                 Cambridge Crystallographic Data Centre
#                                CCDC 
#
#######################################################################
#
# If this CIF has been generated from an entry in the Cambridge 
# Structural Database, then it will include bibliographic, chemical, 
# crystal, experimental, refinement or atomic coordinate data resulting 
# from the CCDC's data processing and validation procedures.
#
#######################################################################

data_BOVHOL
_symmetry_cell_setting           triclinic
_symmetry_space_group_name_H-M   'P -1'
_symmetry_Int_Tables_number      2
_space_group_name_Hall           '-P 1'
loop_
_symmetry_equiv_pos_site_id
_symmetry_equiv_pos_as_xyz
1 x,y,z
2 -x,-y,-z
_cell_length_a                   10.9465(5)
_cell_length_b                   11.1155(5)
_cell_length_c                   11.4684(5)
_cell_angle_alpha                101.707(3)
_cell_angle_beta                 104.300(3)
_cell_angle_gamma                101.651(3)
_cell_volume                     1276.49
loop_
_atom_site_label
_atom_site_type_symbol
_atom_site_fract_x
_atom_site_fract_y
_atom_site_fract_z
Eu1 Eu 0.11058(2) 0.37382(2) 0.50172(2)
F1 F 0.3113(2) 0.28418(19) 0.95964(17)
C1 C -0.1095(3) 0.4629(3) 0.0337(2)
O1 O -0.12259(16) 0.40590(16) 0.43824(15)
F2 F 0.55595(19) 0.58116(19) 0.80767(15)
F3 F -0.21916(18) 0.4211(3) 0.06260(17)
O2 O 0.0643(2) 0.17207(18) 0.55840(17)
O3 O 0.06855(17) 0.43202(17) 0.30261(15)
O4 O 0.32207(18) 0.48303(18) 0.47585(18)
O5 O 0.2906(2) 0.3999(2) 0.67593(18)
O6 O -0.09874(19) 0.22293(18) 0.34986(19)
O7 O 0.1741(2) 0.21804(19) 0.36506(19)
F4 F 0.23600(18) 0.5897(3) 0.17524(17)
O8 O -0.0300(2) 0.58989(19) 0.31554(17)
C2 C 0.0166(2) 0.5105(2) 0.2614(2)
O9 O 0.3730(2) 0.2404(2) 0.7137(2)
C3 C 0.0089(2) 0.5076(2) 0.1261(2)
C4 C 0.4306(2) 0.4275(3) 0.8766(2)
C5 C 0.1181(3) 0.5445(3) 0.0899(2)
N1 N 0.4617(2) 0.6369(3) 0.4369(3)
H1 H 0.5248 0.6017 0.4527
H2 H 0.4738 0.7071 0.4154
C6 C 0.4065(3) 0.3902(3) 0.9777(2)
C7 C -0.1691(2) 0.2972(2) 0.3586(2)
N2 N 0.0504(3) 0.0417(2) 0.6832(3)
H3 H 0.0367 -0.0254 0.6239
H4 H 0.0534 0.0351 0.7572
C8 C 0.2513(3) 0.2186(3) 0.3033(3)
H5 H 0.3170 0.2932 0.3212
C9 C 0.5261(3) 0.5392(3) 0.9019(2)
C10 C 0.3577(2) 0.3473(3) 0.7433(2)
C11 C 0.0668(3) 0.1530(2) 0.6611(2)
H6 H 0.0815 0.2234 0.7275
C12 C 0.3474(2) 0.5837(3) 0.4456(2)
H7 H 0.2811 0.6241 0.4280
N3 N 0.2482(4) 0.1234(4) 0.2152(3)
H8 H 0.1887 0.0528 0.1962
H9 H 0.3055 0.1306 0.1758
C13 C -0.3073(3) 0.2616(3) 0.2766(3)
H10 H -0.3463 0.3300 0.2966
H11 H -0.3558 0.1860 0.2898
H12 H -0.3087 0.2460 0.1908
F1A F 0.6887(2) 0.71582(19) 1.04036(17)
F2A F 0.44405(19) 0.41884(19) 1.19233(15)
O5A O 0.7094(2) 0.6001(2) 1.32407(18)
O9A O 0.6270(2) 0.7596(2) 1.2863(2)
C4A C 0.5694(2) 0.5725(3) 1.1234(2)
C6A C 0.5935(3) 0.6098(3) 1.0223(2)
C9A C 0.4739(3) 0.4608(3) 1.0981(2)
C10A C 0.6423(2) 0.6527(3) 1.2567(2)
C1A C 0.1095(3) 0.5371(3) -0.0337(2)
F3A F 0.21916(18) 0.5789(3) -0.06260(17)
O3A O -0.06855(17) 0.56798(17) -0.30261(15)
F4A F -0.23600(18) 0.4103(3) -0.17524(17)
C2A C -0.0166(2) 0.4895(2) -0.2614(2)
C3A C -0.0089(2) 0.4924(2) -0.1261(2)
C5A C -0.1181(3) 0.4555(3) -0.0899(2)
O8A O 0.0300(2) 0.41011(19) -0.31554(17)
Eu1A Eu -0.11058(2) 0.62618(2) -0.50172(2)
O1A O 0.12259(16) 0.59410(16) -0.43824(15)
O2A O -0.0643(2) 0.82793(18) -0.55840(17)
O4A O -0.32207(18) 0.51697(18) -0.47585(18)
O6A O 0.09874(19) 0.77707(18) -0.34986(19)
O7A O -0.1741(2) 0.78196(19) -0.36506(19)
N1A N -0.4617(2) 0.3631(3) -0.4369(3)
H1A H -0.5248 0.3983 -0.4527
H2A H -0.4738 0.2929 -0.4154
C7A C 0.1691(2) 0.7028(2) -0.3586(2)
N2A N -0.0504(3) 0.9583(2) -0.6832(3)
H3A H -0.0367 1.0254 -0.6239
H4A H -0.0534 0.9649 -0.7572
C8A C -0.2513(3) 0.7814(3) -0.3033(3)
H5A H -0.3170 0.7068 -0.3212
C11A C -0.0668(3) 0.8470(2) -0.6611(2)
H6A H -0.0815 0.7766 -0.7275
C12A C -0.3474(2) 0.4163(3) -0.4456(2)
H7A H -0.2811 0.3759 -0.4280
N3A N -0.2482(4) 0.8766(4) -0.2152(3)
H8A H -0.1887 0.9472 -0.1962
H9A H -0.3055 0.8694 -0.1758
C13A C 0.3073(3) 0.7384(3) -0.2766(3)
H10A H 0.3463 0.6700 -0.2966
H11A H 0.3558 0.8140 -0.2898
H12A H 0.3087 0.7540 -0.1908
Eu1_2 Eu 0.11058(2) 0.37382(2) -0.49828(2)
Eu1A_2 Eu -0.11058(2) 0.62618(2) 0.49828(2)
Eu1A_3 Eu 0.88942(2) 0.62618(2) 1.49828(2)
O1_2 O -0.12259(16) 0.40590(16) -0.56176(15)
O1A_2 O 0.12259(16) 0.59410(16) 0.56176(15)
O5A_2 O -0.2906(2) 0.6001(2) -0.67593(18)
O8_2 O -0.0300(2) 0.58989(19) -0.68446(17)
O8A_2 O 0.0300(2) 0.41011(19) 0.68446(17)
C14 C 0.0047(4) 0.8260(4) 0.9929(4)
H13 H -0.0780 0.7690 0.9610
N4 N 0.0742(4) 0.8348(4) 0.9184(3)
H14 H 0.1512 0.8865 0.9446
H15 H 0.0438 0.7891 0.8423
O10 O 0.0376(4) 0.8853(3) 1.1008(3)
O11 O 0.3542(3) 0.9772(4) 0.0436(4)
N5 N 0.5191(4) 0.8971(4) 0.1164(4)
H16 H 0.5664 0.9311 0.0757
H17 H 0.5482 0.8515 0.1632
C15 C 0.4081(5) 0.9140(5) 0.1073(5)
H18 H 0.3610 0.8752 0.1531
N6 N 0.3076(9) 0.0128(6) 0.5088(6)
H19 H 0.3816 0.0587 0.5602
H20 H 0.2371 0.0345 0.5116
O12 O 0.3640(5) -0.1403(4) 0.3995(5)
C16 C 0.3029(9) -0.0779(8) 0.4362(9)
H21 H 0.2158 -0.1148 0.3894
loop_
_geom_bond_atom_site_label_1
_geom_bond_atom_site_label_2
_geom_bond_site_symmetry_1
_geom_bond_site_symmetry_2
Eu1 O1 1_555 1_555
F1 C6 1_555 1_555
C1 F3 1_555 1_555
O1 C7 1_555 1_555
F2 C9 1_555 1_555
O2 Eu1 1_555 1_555
O3 Eu1 1_555 1_555
O4 Eu1 1_555 1_555
O5 Eu1 1_555 1_555
O6 Eu1 1_555 1_555
O7 Eu1 1_555 1_555
F4 C5 1_555 1_555
O8 C2 1_555 1_555
C2 O3 1_555 1_555
O9 C10 1_555 1_555
C3 C1 1_555 1_555
C4 C6 1_555 1_555
C5 C3 1_555 1_555
N1 H1 1_555 1_555
H2 N1 1_555 1_555
C6 C9A 1_555 1_555
C7 O6 1_555 1_555
N2 H3 1_555 1_555
H4 N2 1_555 1_555
C8 O7 1_555 1_555
H5 C8 1_555 1_555
C9 C4 1_555 1_555
C10 O5 1_555 1_555
C11 O2 1_555 1_555
H6 C11 1_555 1_555
C12 O4 1_555 1_555
H7 C12 1_555 1_555
N3 C8 1_555 1_555
H8 N3 1_555 1_555
H9 N3 1_555 1_555
C13 C7 1_555 1_555
H10 C13 1_555 1_555
H11 C13 1_555 1_555
H12 C13 1_555 1_555
C14 H13 1_555 1_555
N4 C14 1_555 1_555
H14 N4 1_555 1_555
H15 N4 1_555 1_555
O10 C14 1_555 1_555
O11 C15 1_555 1_555
N5 H16 1_555 1_555
H17 N5 1_555 1_555
C15 N5 1_555 1_555
H18 C15 1_555 1_555
N6 H19 1_555 1_555
H20 N6 1_555 1_555
O12 C16 1_555 1_555
C16 N6 1_555 1_555
H21 C16 1_555 1_555
F1A C6A 1_555 1_555
F2A C9A 1_555 1_555
O5A C10A 1_555 1_555
O9A C10A 1_555 1_555
C4A C6A 1_555 1_555
C6A C9 1_555 1_555
C9A C4A 1_555 1_555
C10A C4A 1_555 1_555
C1A C5 1_555 1_555
F3A C1A 1_555 1_555
O3A C2A 1_555 1_555
F4A C5A 1_555 1_555
C2A C3A 1_555 1_555
C3A C1A 1_555 1_555
C5A C1 1_555 1_555
O8A C2A 1_555 1_555
Eu1A O3A 1_555 1_555
O1A Eu1A 1_555 1_555
O2A Eu1A 1_555 1_555
O4A Eu1A 1_555 1_555
O6A Eu1A 1_555 1_555
O7A Eu1A 1_555 1_555
N1A H1A 1_555 1_555
H2A N1A 1_555 1_555
C7A O1A 1_555 1_555
N2A H3A 1_555 1_555
H4A N2A 1_555 1_555
C8A O7A 1_555 1_555
H5A C8A 1_555 1_555
C11A O2A 1_555 1_555
H6A C11A 1_555 1_555
C12A O4A 1_555 1_555
H7A C12A 1_555 1_555
N3A C8A 1_555 1_555
H8A N3A 1_555 1_555
H9A N3A 1_555 1_555
C13A C7A 1_555 1_555
H10A C13A 1_555 1_555
H11A C13A 1_555 1_555
H12A C13A 1_555 1_555
Eu1_2 O8A 1_555 1_555
Eu1A_2 O1 1_555 1_555
Eu1A_3 O5A 1_555 1_555
O1_2 Eu1A 1_555 1_555
O1A_2 Eu1 1_555 1_555
O5A_2 Eu1A 1_555 1_555
O8_2 Eu1A 1_555 1_555
O8A_2 Eu1 1_555 1_555
O8 Eu1A_2 1_555 1_555
C2 C3 1_555 1_555
C4 C10 1_555 1_555
N1 C12 1_555 1_555
N2 C11 1_555 1_555
C3A C5A 1_555 1_555
O1A Eu1_2 1_555 1_555
O6A C7A 1_555 1_555
N1A C12A 1_555 1_555
N2A C11A 1_555 1_555
Eu1_2 O1_2 1_555 1_555
Eu1A_2 O1A_2 1_555 1_555

#END
