
#######################################################################
#
#                 Cambridge Crystallographic Data Centre
#                                CCDC 
#
#######################################################################
#
# If this CIF has been generated from an entry in the Cambridge 
# Structural Database, then it will include bibliographic, chemical, 
# crystal, experimental, refinement or atomic coordinate data resulting 
# from the CCDC's data processing and validation procedures.
#
#######################################################################

data_BOVHUR
_symmetry_cell_setting           orthorhombic
_symmetry_space_group_name_H-M   'P b c a'
_symmetry_Int_Tables_number      61
_space_group_name_Hall           '-P 2ac 2ab'
loop_
_symmetry_equiv_pos_site_id
_symmetry_equiv_pos_as_xyz
1 x,y,z
2 1/2-x,-y,1/2+z
3 1/2+x,1/2-y,-z
4 -x,1/2+y,1/2-z
5 -x,-y,-z
6 1/2+x,y,1/2-z
7 1/2-x,1/2+y,z
8 x,1/2-y,1/2+z
_cell_length_a                   15.4609(17)
_cell_length_b                   15.0599(15)
_cell_length_c                   16.7057(15)
_cell_angle_alpha                90
_cell_angle_beta                 90
_cell_angle_gamma                90
_cell_volume                     3889.75
loop_
_atom_site_label
_atom_site_type_symbol
_atom_site_fract_x
_atom_site_fract_y
_atom_site_fract_z
Ho1 Ho 0.47479(2) 0.50538(3) -0.36947(2)
S1 S 0.65766(15) 0.52239(14) -0.23923(16)
S2 S 0.45829(15) 0.70764(15) -0.27521(16)
F1 F 0.2362(4) 0.3838(4) -0.4724(5)
F2 F 0.4404(4) 0.1748(4) -0.5642(5)
F3 F 0.3141(4) 0.0533(4) -0.5788(5)
F4 F 0.1112(4) 0.2623(4) -0.4867(4)
O1 O 0.4350(5) 0.3754(4) -0.4398(4)
O2 O 0.4405(4) 0.3851(4) -0.5745(4)
O3 O 0.4515(5) 0.3854(5) -0.2742(5)
O4 O 0.3384(5) 0.4535(5) -0.3126(5)
O5 O 0.3257(6) 0.3300(6) -0.2451(7)
O6 O 0.1044(4) 0.0714(4) -0.6057(4)
O7 O 0.1117(4) 0.0539(4) -0.4721(4)
O8 O 0.5633(4) 0.5403(4) -0.2616(4)
O9 O 0.4116(5) 0.6260(4) -0.3090(5)
N1 N 0.3702(6) 0.3870(6) -0.2770(6)
C1 C 0.4131(6) 0.3540(5) -0.5105(6)
C2 C 0.3425(7) 0.2824(6) -0.5173(6)
C3 C 0.2596(7) 0.3023(5) -0.4981(7)
C4 C 0.3590(6) 0.1978(6) -0.5460(6)
C5 C 0.2927(6) 0.1361(6) -0.5533(6)
C6 C 0.1370(5) 0.0874(6) -0.5381(6)
C7 C 0.2095(6) 0.1543(5) -0.5329(5)
C8 C 0.1927(7) 0.2395(6) -0.5042(7)
C9 C 0.6716(8) 0.5711(10) -0.1447(8)
H1 H 0.6478 0.5328 -0.1044
H2 H 0.6425 0.6274 -0.1433
H3 H 0.7322 0.5797 -0.1347
C10 C 0.7204(8) 0.5967(9) -0.2950(9)
H4 H 0.6942 0.6545 -0.2935
H5 H 0.7238 0.5765 -0.3494
H6 H 0.7775 0.5998 -0.2726
C11 C 0.3822(8) 0.7952(7) -0.2894(9)
H7 H 0.3255 0.7748 -0.2749
H8 H 0.3823 0.8130 -0.3446
H9 H 0.3979 0.8448 -0.2564
C12 C 0.4464(9) 0.6964(9) -0.1700(7)
H10 H 0.4666 0.6389 -0.1537
H11 H 0.3865 0.7027 -0.1559
H12 H 0.4797 0.7415 -0.1435
Ho1B Ho -0.02521(2) -0.00538(3) -0.63053(2)
Ho1D Ho 0.52521(2) 0.49462(3) -0.63053(2)
Ho1F Ho 0.02521(2) 0.00538(3) -0.36947(2)
O2D O 0.5595(4) 0.6149(4) -0.4255(4)
O6B O 0.6044(4) 0.4286(4) -0.3943(4)
O7F O 0.3883(4) 0.5539(4) -0.4721(4)
loop_
_geom_bond_atom_site_label_1
_geom_bond_atom_site_label_2
_geom_bond_site_symmetry_1
_geom_bond_site_symmetry_2
Ho1 O1 1_555 1_555
S1 O8 1_555 1_555
S2 O9 1_555 1_555
F1 C3 1_555 1_555
F2 C4 1_555 1_555
F3 C5 1_555 1_555
F4 C8 1_555 1_555
O1 C1 1_555 1_555
O2 C1 1_555 1_555
O3 Ho1 1_555 1_555
O4 Ho1 1_555 1_555
O5 N1 1_555 1_555
O6 C6 1_555 1_555
O7 C6 1_555 1_555
O8 Ho1 1_555 1_555
O9 Ho1 1_555 1_555
N1 O3 1_555 1_555
C1 C2 1_555 1_555
C2 C3 1_555 1_555
C3 C8 1_555 1_555
C4 C2 1_555 1_555
C5 C4 1_555 1_555
C6 C7 1_555 1_555
C7 C5 1_555 1_555
C8 C7 1_555 1_555
C9 S1 1_555 1_555
H1 C9 1_555 1_555
H2 C9 1_555 1_555
H3 C9 1_555 1_555
C10 S1 1_555 1_555
H4 C10 1_555 1_555
H5 C10 1_555 1_555
H6 C10 1_555 1_555
C11 S2 1_555 1_555
H7 C11 1_555 1_555
H8 C11 1_555 1_555
H9 C11 1_555 1_555
C12 S2 1_555 1_555
H10 C12 1_555 1_555
H11 C12 1_555 1_555
H12 C12 1_555 1_555
Ho1B O6 1_555 1_555
Ho1D O2 1_555 1_555
Ho1F O7 1_555 1_555
O2D Ho1 1_555 1_555
O6B Ho1 1_555 1_555
O7F Ho1 1_555 1_555
O4 N1 1_555 1_555

#END
