
#######################################################################
#
#                 Cambridge Crystallographic Data Centre
#                                CCDC 
#
#######################################################################
#
# If this CIF has been generated from an entry in the Cambridge 
# Structural Database, then it will include bibliographic, chemical, 
# crystal, experimental, refinement or atomic coordinate data resulting 
# from the CCDC's data processing and validation procedures.
#
#######################################################################

data_BOVHIF
_symmetry_cell_setting           triclinic
_symmetry_space_group_name_H-M   'P -1'
_symmetry_Int_Tables_number      2
_space_group_name_Hall           '-P 1'
loop_
_symmetry_equiv_pos_site_id
_symmetry_equiv_pos_as_xyz
1 x,y,z
2 -x,-y,-z
_cell_length_a                   10.9816(13)
_cell_length_b                   11.1645(13)
_cell_length_c                   11.5291(12)
_cell_angle_alpha                101.818(9)
_cell_angle_beta                 104.289(9)
_cell_angle_gamma                101.705(9)
_cell_volume                     1292.01
loop_
_atom_site_label
_atom_site_type_symbol
_atom_site_fract_x
_atom_site_fract_y
_atom_site_fract_z
Sm1 Sm 0.11101(3) 0.37395(3) 0.50180(2)
F1 F 0.3124(4) 0.2838(4) 0.9600(3)
C1 C -0.1095(5) 0.4630(6) 0.0332(5)
O1 O -0.1226(3) 0.4045(3) 0.4383(3)
F2 F 0.5569(4) 0.5807(4) 0.8080(3)
F3 F -0.2195(3) 0.4212(4) 0.0614(3)
O2 O 0.0637(4) 0.1726(3) 0.5584(3)
O3 O 0.0686(3) 0.4322(3) 0.3022(3)
O4 O 0.3225(3) 0.4838(3) 0.4759(3)
O5 O 0.2918(4) 0.3993(4) 0.6755(3)
O6 O -0.0990(4) 0.2228(3) 0.3487(3)
O7 O 0.1753(4) 0.2177(4) 0.3647(4)
F4 F 0.2353(3) 0.5891(5) 0.1752(3)
O8 O -0.0322(4) 0.5876(4) 0.3147(3)
C2 C 0.0157(5) 0.5109(4) 0.2599(4)
O9 O 0.3727(4) 0.2396(4) 0.7151(4)
C3 C 0.0079(5) 0.5074(5) 0.1259(4)
C4 C 0.4314(5) 0.4268(5) 0.8757(4)
C5 C 0.1171(5) 0.5438(6) 0.0897(4)
N1 N 0.4619(4) 0.6381(5) 0.4379(5)
H1 H 0.5254 0.6039 0.4535
H2 H 0.4730 0.7081 0.4167
C6 C 0.4067(5) 0.3907(5) 0.9781(5)
C7 C -0.1686(5) 0.2970(5) 0.3583(4)
N2 N 0.0488(6) 0.0417(5) 0.6829(5)
H3 H 0.0352 -0.0251 0.6237
H4 H 0.0514 0.0351 0.7564
C8 C 0.2506(7) 0.2170(7) 0.3016(6)
H5 H 0.3156 0.2917 0.3187
C9 C 0.5261(5) 0.5394(5) 0.9028(5)
C10 C 0.3585(5) 0.3472(5) 0.7442(5)
C11 C 0.0655(5) 0.1525(5) 0.6611(5)
H6 H 0.0799 0.2224 0.7275
C12 C 0.3487(5) 0.5838(5) 0.4464(4)
H7 H 0.2824 0.6237 0.4288
N3 N 0.2484(7) 0.1246(7) 0.2154(6)
H8 H 0.1900 0.0537 0.1964
H9 H 0.3054 0.1328 0.1760
C13 C -0.3074(6) 0.2618(6) 0.2752(6)
H10 H -0.3461 0.3300 0.2953
H11 H -0.3563 0.1863 0.2875
H12 H -0.3081 0.2467 0.1900
F1A F 0.6876(4) 0.7162(4) 1.0400(3)
F2A F 0.4431(4) 0.4193(4) 1.1920(3)
O5A O 0.7082(4) 0.6007(4) 1.3245(3)
O9A O 0.6273(4) 0.7604(4) 1.2849(4)
C4A C 0.5686(5) 0.5732(5) 1.1243(4)
C6A C 0.5933(5) 0.6093(5) 1.0219(5)
C9A C 0.4739(5) 0.4606(5) 1.0972(5)
C10A C 0.6415(5) 0.6528(5) 1.2558(5)
C1A C 0.1095(5) 0.5370(6) -0.0332(5)
F3A F 0.2195(3) 0.5788(4) -0.0614(3)
O3A O -0.0686(3) 0.5678(3) -0.3022(3)
F4A F -0.2353(3) 0.4109(5) -0.1752(3)
C2A C -0.0157(5) 0.4891(4) -0.2599(4)
C3A C -0.0079(5) 0.4926(5) -0.1259(4)
C5A C -0.1171(5) 0.4562(6) -0.0897(4)
O8A O 0.0322(4) 0.4124(4) -0.3147(3)
Sm1A Sm -0.11101(3) 0.62605(3) -0.50180(2)
O1A O 0.1226(3) 0.5955(3) -0.4383(3)
O2A O -0.0637(4) 0.8274(3) -0.5584(3)
O4A O -0.3225(3) 0.5162(3) -0.4759(3)
O6A O 0.0990(4) 0.7772(3) -0.3487(3)
O7A O -0.1753(4) 0.7823(4) -0.3647(4)
N1A N -0.4619(4) 0.3619(5) -0.4379(5)
H1A H -0.5254 0.3961 -0.4535
H2A H -0.4730 0.2919 -0.4167
C7A C 0.1686(5) 0.7030(5) -0.3583(4)
N2A N -0.0488(6) 0.9583(5) -0.6829(5)
H3A H -0.0352 1.0251 -0.6237
H4A H -0.0514 0.9649 -0.7564
C8A C -0.2506(7) 0.7830(7) -0.3016(6)
H5A H -0.3156 0.7083 -0.3187
C11A C -0.0655(5) 0.8475(5) -0.6611(5)
H6A H -0.0799 0.7776 -0.7275
C12A C -0.3487(5) 0.4162(5) -0.4464(4)
H7A H -0.2824 0.3763 -0.4288
N3A N -0.2484(7) 0.8754(7) -0.2154(6)
H8A H -0.1900 0.9463 -0.1964
H9A H -0.3054 0.8672 -0.1760
C13A C 0.3074(6) 0.7382(6) -0.2752(6)
H10A H 0.3461 0.6700 -0.2953
H11A H 0.3563 0.8137 -0.2875
H12A H 0.3081 0.7533 -0.1900
Sm1_2 Sm 0.11101(3) 0.37395(3) -0.49820(2)
Sm1A_2 Sm -0.11101(3) 0.62605(3) 0.49820(2)
Sm1A_3 Sm 0.88899(3) 0.62605(3) 1.49820(2)
O1_2 O -0.1226(3) 0.4045(3) -0.5617(3)
O1A_2 O 0.1226(3) 0.5955(3) 0.5617(3)
O5A_2 O -0.2918(4) 0.6007(4) -0.6755(3)
O8_2 O -0.0322(4) 0.5876(4) -0.6853(3)
O8A_2 O 0.0322(4) 0.4124(4) 0.6853(3)
C14 C 0.0052(8) 0.8263(7) 0.9943(7)
H13 H -0.0769 0.7688 0.9621
N4 N 0.0767(7) 0.8371(6) 0.9201(5)
H14 H 0.1530 0.8895 0.9471
H15 H 0.0475 0.7919 0.8441
O10 O 0.0383(7) 0.8857(6) 1.1013(5)
O11 O 0.3556(6) 0.9789(6) 0.0450(6)
N5 N 0.5178(7) 0.8975(7) 0.1147(6)
H16 H 0.5647 0.9304 0.0737
H17 H 0.5464 0.8517 0.1611
C15 C 0.4087(10) 0.9160(9) 0.1071(9)
H18 H 0.3621 0.8782 0.1534
N6 N 0.3047(14) 0.0113(9) 0.5107(9)
H19 H 0.3758 0.0545 0.5677
H20 H 0.2337 0.0334 0.5084
O12 O 0.3628(8) -0.1393(7) 0.4014(9)
C16 C 0.3044(16) -0.0756(14) 0.4377(16)
H21 H 0.2192 -0.1082 0.3854
loop_
_geom_bond_atom_site_label_1
_geom_bond_atom_site_label_2
_geom_bond_site_symmetry_1
_geom_bond_site_symmetry_2
Sm1 O1 1_555 1_555
F1 C6 1_555 1_555
C1 F3 1_555 1_555
O1 C7 1_555 1_555
F2 C9 1_555 1_555
O2 Sm1 1_555 1_555
O3 Sm1 1_555 1_555
O4 Sm1 1_555 1_555
O5 Sm1 1_555 1_555
O6 Sm1 1_555 1_555
O7 Sm1 1_555 1_555
F4 C5 1_555 1_555
O8 C2 1_555 1_555
C2 O3 1_555 1_555
O9 C10 1_555 1_555
C3 C1 1_555 1_555
C4 C6 1_555 1_555
C5 C3 1_555 1_555
N1 H1 1_555 1_555
H2 N1 1_555 1_555
C6 C9A 1_555 1_555
C7 O6 1_555 1_555
N2 H3 1_555 1_555
H4 N2 1_555 1_555
C8 O7 1_555 1_555
H5 C8 1_555 1_555
C9 C4 1_555 1_555
C10 O5 1_555 1_555
C11 O2 1_555 1_555
H6 C11 1_555 1_555
C12 O4 1_555 1_555
H7 C12 1_555 1_555
N3 C8 1_555 1_555
H8 N3 1_555 1_555
H9 N3 1_555 1_555
C13 C7 1_555 1_555
H10 C13 1_555 1_555
H11 C13 1_555 1_555
H12 C13 1_555 1_555
C14 H13 1_555 1_555
N4 C14 1_555 1_555
H14 N4 1_555 1_555
H15 N4 1_555 1_555
O10 C14 1_555 1_555
O11 C15 1_555 1_555
N5 H16 1_555 1_555
H17 N5 1_555 1_555
C15 N5 1_555 1_555
H18 C15 1_555 1_555
N6 H19 1_555 1_555
H20 N6 1_555 1_555
O12 C16 1_555 1_555
C16 N6 1_555 1_555
H21 C16 1_555 1_555
F1A C6A 1_555 1_555
F2A C9A 1_555 1_555
O5A C10A 1_555 1_555
O9A C10A 1_555 1_555
C4A C6A 1_555 1_555
C6A C9 1_555 1_555
C9A C4A 1_555 1_555
C10A C4A 1_555 1_555
C1A C5 1_555 1_555
F3A C1A 1_555 1_555
O3A C2A 1_555 1_555
F4A C5A 1_555 1_555
C2A C3A 1_555 1_555
C3A C1A 1_555 1_555
C5A C1 1_555 1_555
O8A C2A 1_555 1_555
Sm1A O3A 1_555 1_555
O1A Sm1A 1_555 1_555
O2A Sm1A 1_555 1_555
O4A Sm1A 1_555 1_555
O6A Sm1A 1_555 1_555
O7A Sm1A 1_555 1_555
N1A H1A 1_555 1_555
H2A N1A 1_555 1_555
C7A O1A 1_555 1_555
N2A H3A 1_555 1_555
H4A N2A 1_555 1_555
C8A O7A 1_555 1_555
H5A C8A 1_555 1_555
C11A O2A 1_555 1_555
H6A C11A 1_555 1_555
C12A O4A 1_555 1_555
H7A C12A 1_555 1_555
N3A C8A 1_555 1_555
H8A N3A 1_555 1_555
H9A N3A 1_555 1_555
C13A C7A 1_555 1_555
H10A C13A 1_555 1_555
H11A C13A 1_555 1_555
H12A C13A 1_555 1_555
Sm1_2 O8A 1_555 1_555
Sm1A_2 O1 1_555 1_555
Sm1A_3 O5A 1_555 1_555
O1_2 Sm1A 1_555 1_555
O1A_2 Sm1 1_555 1_555
O5A_2 Sm1A 1_555 1_555
O8_2 Sm1A 1_555 1_555
O8A_2 Sm1 1_555 1_555
O8 Sm1A_2 1_555 1_555
C2 C3 1_555 1_555
C4 C10 1_555 1_555
N1 C12 1_555 1_555
N2 C11 1_555 1_555
C3A C5A 1_555 1_555
O1A Sm1_2 1_555 1_555
O6A C7A 1_555 1_555
N1A C12A 1_555 1_555
N2A C11A 1_555 1_555
Sm1_2 O1_2 1_555 1_555
Sm1A_2 O1A_2 1_555 1_555

#END
