
#######################################################################
#
#                 Cambridge Crystallographic Data Centre
#                                CCDC 
#
#######################################################################
#
# If this CIF has been generated from an entry in the Cambridge 
# Structural Database, then it will include bibliographic, chemical, 
# crystal, experimental, refinement or atomic coordinate data resulting 
# from the CCDC's data processing and validation procedures.
#
#######################################################################

data_BOVJAZ
_symmetry_cell_setting           orthorhombic
_symmetry_space_group_name_H-M   'P b c a'
_symmetry_Int_Tables_number      61
_space_group_name_Hall           '-P 2ac 2ab'
loop_
_symmetry_equiv_pos_site_id
_symmetry_equiv_pos_as_xyz
1 x,y,z
2 1/2-x,-y,1/2+z
3 1/2+x,1/2-y,-z
4 -x,1/2+y,1/2-z
5 -x,-y,-z
6 1/2+x,y,1/2-z
7 1/2-x,1/2+y,z
8 x,1/2-y,1/2+z
_cell_length_a                   15.4177(13)
_cell_length_b                   15.0482(9)
_cell_length_c                   16.6749(11)
_cell_angle_alpha                90
_cell_angle_beta                 90
_cell_angle_gamma                90
_cell_volume                     3868.72
loop_
_atom_site_label
_atom_site_type_symbol
_atom_site_fract_x
_atom_site_fract_y
_atom_site_fract_z
Er1 Er 0.47503(2) 0.50503(2) -0.36985(2)
S1 S 0.65745(10) 0.52093(11) -0.23979(10)
S2 S 0.45862(10) 0.70633(11) -0.27444(10)
F1 F 0.2368(2) 0.3847(2) -0.4729(3)
F2 F 0.4400(2) 0.1758(3) -0.5658(3)
F3 F 0.3143(2) 0.0536(3) -0.5787(3)
F4 F 0.1111(2) 0.2631(3) -0.4862(3)
O1 O 0.4340(3) 0.3767(3) -0.4417(2)
O2 O 0.4397(3) 0.3851(3) -0.5747(2)
O3 O 0.4528(3) 0.3845(3) -0.2754(3)
O4 O 0.3384(3) 0.4529(3) -0.3135(3)
O5 O 0.3262(4) 0.3307(4) -0.2449(4)
O6 O 0.1038(2) 0.0722(3) -0.6039(2)
O7 O 0.1123(3) 0.0544(3) -0.4717(2)
O8 O 0.5634(3) 0.5397(3) -0.2624(2)
O9 O 0.4121(3) 0.6254(3) -0.3092(3)
N1 N 0.3712(4) 0.3868(4) -0.2767(3)
C1 C 0.4118(3) 0.3546(3) -0.5102(3)
C2 C 0.3424(3) 0.2832(4) -0.5175(3)
C3 C 0.2571(4) 0.3023(4) -0.4979(3)
C4 C 0.3587(3) 0.1989(4) -0.5456(4)
C5 C 0.2935(3) 0.1356(4) -0.5527(4)
C6 C 0.1355(3) 0.0878(3) -0.5363(3)
C7 C 0.2085(3) 0.1548(3) -0.5321(3)
C8 C 0.1929(3) 0.2407(4) -0.5046(3)
C9 C 0.6686(7) 0.5698(8) -0.1435(5)
H1 H 0.6332 0.5381 -0.1057
H2 H 0.6505 0.6307 -0.1457
H3 H 0.7282 0.5668 -0.1270
C10 C 0.7208(5) 0.5969(6) -0.2953(5)
H4 H 0.7000 0.6562 -0.2862
H5 H 0.7167 0.5831 -0.3514
H6 H 0.7803 0.5927 -0.2785
C11 C 0.3839(5) 0.7937(5) -0.2904(6)
H7 H 0.3261 0.7727 -0.2806
H8 H 0.3883 0.8141 -0.3448
H9 H 0.3967 0.8419 -0.2546
C12 C 0.4459(6) 0.6957(6) -0.1687(5)
H10 H 0.4720 0.6412 -0.1511
H11 H 0.3853 0.6953 -0.1556
H12 H 0.4736 0.7449 -0.1425
Er1B Er -0.02497(2) -0.00503(2) -0.63015(2)
Er1D Er 0.52497(2) 0.49497(2) -0.63015(2)
Er1F Er 0.02497(2) 0.00503(2) -0.36985(2)
O2D O 0.5603(3) 0.6149(3) -0.4253(2)
O6B O 0.6038(2) 0.4278(3) -0.3961(2)
O7F O 0.3877(3) 0.5544(3) -0.4717(2)
loop_
_geom_bond_atom_site_label_1
_geom_bond_atom_site_label_2
_geom_bond_site_symmetry_1
_geom_bond_site_symmetry_2
Er1 O1 1_555 1_555
S1 O8 1_555 1_555
S2 O9 1_555 1_555
F1 C3 1_555 1_555
F2 C4 1_555 1_555
F3 C5 1_555 1_555
F4 C8 1_555 1_555
O1 C1 1_555 1_555
O2 C1 1_555 1_555
O3 Er1 1_555 1_555
O4 Er1 1_555 1_555
O5 N1 1_555 1_555
O6 C6 1_555 1_555
O7 C6 1_555 1_555
O8 Er1 1_555 1_555
O9 Er1 1_555 1_555
N1 O3 1_555 1_555
C1 C2 1_555 1_555
C2 C3 1_555 1_555
C3 C8 1_555 1_555
C4 C2 1_555 1_555
C5 C4 1_555 1_555
C6 C7 1_555 1_555
C7 C5 1_555 1_555
C8 C7 1_555 1_555
C9 S1 1_555 1_555
H1 C9 1_555 1_555
H2 C9 1_555 1_555
H3 C9 1_555 1_555
C10 S1 1_555 1_555
H4 C10 1_555 1_555
H5 C10 1_555 1_555
H6 C10 1_555 1_555
C11 S2 1_555 1_555
H7 C11 1_555 1_555
H8 C11 1_555 1_555
H9 C11 1_555 1_555
C12 S2 1_555 1_555
H10 C12 1_555 1_555
H11 C12 1_555 1_555
H12 C12 1_555 1_555
Er1B O6 1_555 1_555
Er1D O2 1_555 1_555
Er1F O7 1_555 1_555
O2D Er1 1_555 1_555
O6B Er1 1_555 1_555
O7F Er1 1_555 1_555
O4 N1 1_555 1_555

#END
