
#######################################################################
#
#                 Cambridge Crystallographic Data Centre
#                                CCDC 
#
#######################################################################
#
# If this CIF has been generated from an entry in the Cambridge 
# Structural Database, then it will include bibliographic, chemical, 
# crystal, experimental, refinement or atomic coordinate data resulting 
# from the CCDC's data processing and validation procedures.
#
#######################################################################

data_BOVJED
_symmetry_cell_setting           orthorhombic
_symmetry_space_group_name_H-M   'P b c a'
_symmetry_Int_Tables_number      61
_space_group_name_Hall           '-P 2ac 2ab'
loop_
_symmetry_equiv_pos_site_id
_symmetry_equiv_pos_as_xyz
1 x,y,z
2 1/2-x,-y,1/2+z
3 1/2+x,1/2-y,-z
4 -x,1/2+y,1/2-z
5 -x,-y,-z
6 1/2+x,y,1/2-z
7 1/2-x,1/2+y,z
8 x,1/2-y,1/2+z
_cell_length_a                   15.3508(4)
_cell_length_b                   14.9676(4)
_cell_length_c                   16.5758(6)
_cell_angle_alpha                90
_cell_angle_beta                 90
_cell_angle_gamma                90
_cell_volume                     3808.53
loop_
_atom_site_label
_atom_site_type_symbol
_atom_site_fract_x
_atom_site_fract_y
_atom_site_fract_z
Tm1 Tm 0.47501(2) 0.50510(2) -0.36955(2)
S1 S 0.65745(8) 0.52099(8) -0.23980(8)
S2 S 0.45864(8) 0.70656(8) -0.27488(8)
F1 F 0.23691(19) 0.38479(17) -0.4720(2)
F2 F 0.44090(18) 0.17491(19) -0.5654(2)
F3 F 0.31487(19) 0.05311(18) -0.5789(2)
F4 F 0.11069(17) 0.26270(18) -0.4859(2)
O1 O 0.4343(2) 0.37604(19) -0.44080(19)
O2 O 0.4403(2) 0.38523(19) -0.5750(2)
O3 O 0.4532(2) 0.3848(2) -0.2747(2)
O4 O 0.3385(2) 0.4526(2) -0.3136(2)
O5 O 0.3267(3) 0.3309(3) -0.2446(3)
O6 O 0.10394(19) 0.0717(2) -0.6044(2)
O7 O 0.1124(2) 0.0540(2) -0.4716(2)
O8 O 0.5633(2) 0.5404(2) -0.2620(2)
O9 O 0.4117(2) 0.6254(2) -0.3093(2)
N1 N 0.3713(3) 0.3872(3) -0.2761(3)
C1 C 0.4132(2) 0.3544(2) -0.5109(3)
C2 C 0.3432(3) 0.2830(3) -0.5173(3)
C3 C 0.2579(3) 0.3025(3) -0.4979(3)
C4 C 0.3592(3) 0.1979(3) -0.5457(3)
C5 C 0.2937(3) 0.1355(3) -0.5530(3)
C6 C 0.1357(3) 0.0868(3) -0.5368(3)
C7 C 0.2093(3) 0.1544(3) -0.5323(3)
C8 C 0.1930(3) 0.2403(3) -0.5043(3)
C9 C 0.6689(5) 0.5690(6) -0.1428(4)
H1 H 0.6337 0.5366 -0.1049
H2 H 0.6504 0.6302 -0.1444
H3 H 0.7288 0.5662 -0.1265
C10 C 0.7210(4) 0.5976(4) -0.2957(4)
H4 H 0.6984 0.6568 -0.2883
H5 H 0.7189 0.5821 -0.3518
H6 H 0.7802 0.5954 -0.2772
C11 C 0.3827(4) 0.7944(4) -0.2896(5)
H7 H 0.3249 0.7728 -0.2794
H8 H 0.3866 0.8155 -0.3442
H9 H 0.3957 0.8425 -0.2532
C12 C 0.4469(5) 0.6961(4) -0.1691(4)
H10 H 0.4733 0.6413 -0.1515
H11 H 0.3861 0.6956 -0.1555
H12 H 0.4748 0.7456 -0.1430
Tm1B Tm -0.02499(2) -0.00510(2) -0.63045(2)
Tm1D Tm 0.52499(2) 0.49490(2) -0.63045(2)
Tm1F Tm 0.02499(2) 0.00510(2) -0.36955(2)
O2D O 0.5597(2) 0.61477(19) -0.4250(2)
O6B O 0.60394(19) 0.4283(2) -0.3956(2)
O7F O 0.3876(2) 0.5540(2) -0.4716(2)
loop_
_geom_bond_atom_site_label_1
_geom_bond_atom_site_label_2
_geom_bond_site_symmetry_1
_geom_bond_site_symmetry_2
Tm1 O1 1_555 1_555
S1 O8 1_555 1_555
S2 O9 1_555 1_555
F1 C3 1_555 1_555
F2 C4 1_555 1_555
F3 C5 1_555 1_555
F4 C8 1_555 1_555
O1 C1 1_555 1_555
O2 C1 1_555 1_555
O3 Tm1 1_555 1_555
O4 Tm1 1_555 1_555
O5 N1 1_555 1_555
O6 C6 1_555 1_555
O7 C6 1_555 1_555
O8 Tm1 1_555 1_555
O9 Tm1 1_555 1_555
N1 O3 1_555 1_555
C1 C2 1_555 1_555
C2 C3 1_555 1_555
C3 C8 1_555 1_555
C4 C2 1_555 1_555
C5 C4 1_555 1_555
C6 C7 1_555 1_555
C7 C5 1_555 1_555
C8 C7 1_555 1_555
C9 S1 1_555 1_555
H1 C9 1_555 1_555
H2 C9 1_555 1_555
H3 C9 1_555 1_555
C10 S1 1_555 1_555
H4 C10 1_555 1_555
H5 C10 1_555 1_555
H6 C10 1_555 1_555
C11 S2 1_555 1_555
H7 C11 1_555 1_555
H8 C11 1_555 1_555
H9 C11 1_555 1_555
C12 S2 1_555 1_555
H10 C12 1_555 1_555
H11 C12 1_555 1_555
H12 C12 1_555 1_555
Tm1B O6 1_555 1_555
Tm1D O2 1_555 1_555
Tm1F O7 1_555 1_555
O2D Tm1 1_555 1_555
O6B Tm1 1_555 1_555
O7F Tm1 1_555 1_555
O4 N1 1_555 1_555

#END
