
#######################################################################
#
#                 Cambridge Crystallographic Data Centre
#                                CCDC 
#
#######################################################################
#
# If this CIF has been generated from an entry in the Cambridge 
# Structural Database, then it will include bibliographic, chemical, 
# crystal, experimental, refinement or atomic coordinate data resulting 
# from the CCDC's data processing and validation procedures.
#
#######################################################################

data_BOVNEH
_symmetry_cell_setting           orthorhombic
_symmetry_space_group_name_H-M   'P n a 21'
_symmetry_Int_Tables_number      33
_space_group_name_Hall           'P 2c -2n'
loop_
_symmetry_equiv_pos_site_id
_symmetry_equiv_pos_as_xyz
1 x,y,z
2 -x,-y,1/2+z
3 1/2-x,1/2+y,1/2+z
4 1/2+x,1/2-y,z
_cell_length_a                   21.2790(14)
_cell_length_b                   4.7010(3)
_cell_length_c                   18.1500(11)
_cell_angle_alpha                90
_cell_angle_beta                 90
_cell_angle_gamma                90
_cell_volume                     1815.59
loop_
_atom_site_label
_atom_site_type_symbol
_atom_site_fract_x
_atom_site_fract_y
_atom_site_fract_z
C1 C 0.32519(17) 2.0038(7) 0.30489(19)
C2 C 0.26625(16) 2.1341(7) 0.33639(18)
C3 C 0.20789(17) 2.0534(7) 0.31013(19)
H1 H 0.2039 1.9082 0.2756
C4 C 0.15534(17) 2.1954(8) 0.33678(19)
C5 C 0.15740(18) 2.4007(8) 0.3896(2)
H2 H 0.1214 2.4917 0.4065
C6 C 0.21663(19) 2.4654(7) 0.41636(19)
C7 C 0.27096(18) 2.3414(7) 0.39036(19)
H3 H 0.3100 2.3958 0.4087
C8 C 0.42579(17) 1.0777(8) 0.1272(2)
C9 C 0.48370(16) 0.9355(7) 0.09522(19)
C10 C 0.54224(18) 1.0061(7) 0.1239(2)
H4 H 0.5462 1.1460 0.1599
C11 C 0.59449(17) 0.8626(7) 0.09756(19)
C12 C 0.59127(17) 0.6581(8) 0.04288(18)
H5 H 0.6268 0.5635 0.0259
C13 C 0.53214(19) 0.6030(8) 0.01515(19)
C14 C 0.47840(17) 0.7333(8) 0.04052(19)
H6 H 0.4393 0.6860 0.0212
N1 N 0.09266(15) 2.1163(8) 0.3060(2)
N2 N 0.2216(2) 2.6856(7) 0.47466(19)
N3 N 0.65570(16) 0.9275(8) 0.1301(2)
N4 N 0.52640(19) 0.3857(8) -0.04344(17)
O1 O 0.37494(11) 2.1343(7) 0.31153(15)
O2 O 0.31720(14) 1.7644(5) 0.27341(15)
O3 O 0.08913(16) 1.9032(8) 0.2687(2)
O4 O 0.04893(15) 2.2678(9) 0.3204(3)
O5 O 0.17452(19) 2.8196(7) 0.48998(19)
O6 O 0.2730(2) 2.7246(8) 0.5023(2)
O7 O 0.37409(13) 0.9516(7) 0.1188(2)
O8 O 0.43546(13) 1.3074(5) 0.16101(15)
O9 O 0.65954(18) 1.1321(9) 0.1699(2)
O10 O 0.70026(15) 0.7782(8) 0.1143(2)
O11 O 0.5740(2) 0.2687(9) -0.0638(2)
O12 O 0.4743(2) 0.3316(8) -0.0662(2)
Cu1 Cu 0.37639(2) 1.53474(8) 0.21829(4)
O13 O 0.44891(14) 1.7292(6) 0.26042(17)
H7 H 0.316(2) 1.221(8) 0.145(2)
H8 H 0.2786(18) 1.461(8) 0.157(3)
O14 O 0.30370(14) 1.3509(6) 0.17363(16)
H9 H 0.442(2) 1.889(6) 0.276(3)
H10 H 0.4829(13) 1.679(10) 0.274(3)
O1_2 O 0.37494(11) 1.1343(7) 0.31153(15)
O7_2 O 0.37409(13) 1.9516(7) 0.1188(2)
Cu1_2 Cu 0.37639(2) 0.53474(8) 0.21829(4)
Cu1_3 Cu 0.37639(2) 2.53474(8) 0.21829(4)
loop_
_geom_bond_atom_site_label_1
_geom_bond_atom_site_label_2
_geom_bond_site_symmetry_1
_geom_bond_site_symmetry_2
C1 C2 1_555 1_555
C2 C3 1_555 1_555
C3 H1 1_555 1_555
C4 C3 1_555 1_555
C5 C4 1_555 1_555
H2 C5 1_555 1_555
C6 C5 1_555 1_555
C7 C2 1_555 1_555
H3 C7 1_555 1_555
C8 C9 1_555 1_555
C9 C10 1_555 1_555
C10 H4 1_555 1_555
C11 C10 1_555 1_555
C12 C11 1_555 1_555
H5 C12 1_555 1_555
C13 C12 1_555 1_555
C14 C9 1_555 1_555
H6 C14 1_555 1_555
N1 C4 1_555 1_555
N2 C6 1_555 1_555
N3 C11 1_555 1_555
N4 C13 1_555 1_555
O1 C1 1_555 1_555
O2 C1 1_555 1_555
O3 N1 1_555 1_555
O4 N1 1_555 1_555
O5 N2 1_555 1_555
O6 N2 1_555 1_555
O7 C8 1_555 1_555
O8 C8 1_555 1_555
O9 N3 1_555 1_555
O10 N3 1_555 1_555
O11 N4 1_555 1_555
O12 N4 1_555 1_555
Cu1 O2 1_555 1_555
O13 Cu1 1_555 1_555
H7 O14 1_555 1_555
H8 O14 1_555 1_555
O14 Cu1 1_555 1_555
H9 O13 1_555 1_555
H10 O13 1_555 1_555
O1_2 Cu1 1_555 1_555
O7_2 Cu1 1_555 1_555
Cu1_2 O7 1_555 1_555
Cu1_3 O1 1_555 1_555
C6 C7 1_555 1_555
C13 C14 1_555 1_555
O8 Cu1 1_555 1_555

#END
