
#######################################################################
#
#                 Cambridge Crystallographic Data Centre
#                                CCDC 
#
#######################################################################
#
# If this CIF has been generated from an entry in the Cambridge 
# Structural Database, then it will include bibliographic, chemical, 
# crystal, experimental, refinement or atomic coordinate data resulting 
# from the CCDC's data processing and validation procedures.
#
#######################################################################

data_BOVPAF
_symmetry_cell_setting           tetragonal
_symmetry_space_group_name_H-M   'P 4/n c c'
_symmetry_Int_Tables_number      130
_space_group_name_Hall           '-P 4a 2ac'
loop_
_symmetry_equiv_pos_site_id
_symmetry_equiv_pos_as_xyz
1 x,y,z
2 1/2-y,x,z
3 y,1/2-x,z
4 1/2+x,-y,1/2-z
5 -x,1/2+y,1/2-z
6 1/2-x,1/2-y,z
7 1/2+y,1/2+x,1/2-z
8 -y,-x,1/2-z
9 -x,-y,-z
10 1/2+y,-x,-z
11 -y,1/2+x,-z
12 1/2-x,y,1/2+z
13 x,1/2-y,1/2+z
14 1/2+x,1/2+y,-z
15 1/2-y,1/2-x,1/2+z
16 y,x,1/2+z
_cell_length_a                   18.422(2)
_cell_length_b                   18.422(2)
_cell_length_c                   10.7992(10)
_cell_angle_alpha                90
_cell_angle_beta                 90
_cell_angle_gamma                90
_cell_volume                     3664.93
loop_
_atom_site_label
_atom_site_type_symbol
_atom_site_fract_x
_atom_site_fract_y
_atom_site_fract_z
C1 C 0.59412(18) 0.27756(18) 0.6344(3)
C2 C 0.53917(18) 0.31467(18) 0.5520(3)
C3 C 0.46957(19) 0.28911(18) 0.5330(3)
C4 C 0.41995(19) 0.32423(19) 0.4582(3)
H1 H 0.3732 0.3064 0.4470
C5 C 0.4431(2) 0.3869(2) 0.4009(3)
C6 C 0.51161(19) 0.41484(19) 0.4164(3)
H2 H 0.5256 0.4571 0.3757
C7 C 0.55937(19) 0.3788(2) 0.4941(3)
H3 H 0.6055 0.3978 0.5076
N1 N 0.44674(19) 0.22014(17) 0.5894(3)
N2 N 0.39231(19) 0.42467(18) 0.3170(3)
O1 O 0.64987(13) 0.25456(14) 0.5787(2)
O2 O 0.58266(14) 0.27510(16) 0.7468(2)
O3 O 0.38342(16) 0.21231(16) 0.6168(2)
O4 O 0.49330(17) 0.17371(16) 0.6045(3)
O5 O 0.41764(16) 0.46915(17) 0.2467(3)
O6 O 0.32843(15) 0.40851(17) 0.3224(3)
Ag1 Ag 0.725680(17) 0.166557(17) 0.64023(2)
O1J O 0.74544(14) 0.14987(13) 0.4213(2)
O2F O 0.77510(16) 0.08266(14) 0.7532(2)
Ag1E Ag 0.774320(17) 0.333443(17) 0.64023(2)
Ag1F Ag 0.666557(17) 0.225680(17) 0.85977(2)
Ag1I Ag 0.666557(17) 0.274320(17) 0.35977(2)
O7 O 0.2500 0.2500 0.8289(10)
H4? H 0.273(11) 0.216(8) 0.796(9)
loop_
_geom_bond_atom_site_label_1
_geom_bond_atom_site_label_2
_geom_bond_site_symmetry_1
_geom_bond_site_symmetry_2
C1 C2 1_555 1_555
C2 C3 1_555 1_555
C3 C4 1_555 1_555
C4 H1 1_555 1_555
C5 C4 1_555 1_555
C6 C5 1_555 1_555
H2 C6 1_555 1_555
C7 C2 1_555 1_555
H3 C7 1_555 1_555
N1 C3 1_555 1_555
N2 C5 1_555 1_555
O1 C1 1_555 1_555
O2 C1 1_555 1_555
O3 N1 1_555 1_555
O4 N1 1_555 1_555
O5 N2 1_555 1_555
O6 N2 1_555 1_555
Ag1 O1 1_555 1_555
O1J Ag1 1_555 1_555
O2F Ag1 1_555 1_555
Ag1E Ag1 1_555 1_555
Ag1F O2 1_555 1_555
Ag1I O1 1_555 1_555
C6 C7 1_555 1_555
Ag1 Ag1F 1_555 1_555

#END
