
#######################################################################
#
#                 Cambridge Crystallographic Data Centre
#                                CCDC 
#
#######################################################################
#
# If this CIF has been generated from an entry in the Cambridge 
# Structural Database, then it will include bibliographic, chemical, 
# crystal, experimental, refinement or atomic coordinate data resulting 
# from the CCDC's data processing and validation procedures.
#
#######################################################################

data_BOVPAE
_symmetry_cell_setting           monoclinic
_symmetry_space_group_name_H-M   'P 21/c'
_symmetry_Int_Tables_number      14
_space_group_name_Hall           '-P 2ybc'
loop_
_symmetry_equiv_pos_site_id
_symmetry_equiv_pos_as_xyz
1 x,y,z
2 -x,1/2+y,1/2-z
3 -x,-y,-z
4 x,1/2-y,1/2+z
_cell_length_a                   10.112(2)
_cell_length_b                   18.847(4)
_cell_length_c                   8.0359(16)
_cell_angle_alpha                90
_cell_angle_beta                 95.47(3)
_cell_angle_gamma                90
_cell_volume                     1524.51
loop_
_atom_site_label
_atom_site_type_symbol
_atom_site_fract_x
_atom_site_fract_y
_atom_site_fract_z
Ag1 Ag 0.15900(9) -0.07673(6) -0.39316(11)
C1 C -0.0519(10) -0.0886(6) 0.0822(13)
N1 N -0.1791(8) -0.0899(5) 0.0274(10)
Nd1 Nd -0.35344(5) -0.10486(3) 0.26047(7)
O1 O -0.1193(6) -0.0943(5) 0.3541(8)
C2 C 0.0449(10) -0.0854(6) -0.0258(13)
H3 H 0.1337 -0.0864 0.0168
N2 N 0.0149(9) -0.0810(5) -0.1900(11)
O3 O 0.0988(7) -0.0894(5) -0.6747(8)
C3 C -0.1131(11) -0.0824(7) -0.2454(13)
H4 H -0.1378 -0.0805 -0.3598
O4 O 0.6618(7) -0.1767(4) -0.4827(9)
C4 C -0.2104(11) -0.0866(7) -0.1356(12)
H5 H -0.2994 -0.0870 -0.1775
O5 O 0.7098(7) -0.2807(4) -0.3579(10)
C5 C -0.0194(10) -0.0907(6) 0.2720(13)
O6 O -0.4956(7) -0.0921(4) -1.0030(9)
O7 O -0.3693(7) 0.0167(4) -0.8490(9)
O8 O 0.4342(7) -0.0571(4) -0.6552(9)
O9 O 0.3315(7) 0.0173(4) -0.4928(8)
N3 N 0.2894(9) -0.1768(6) -0.3102(12)
C6 C -0.5378(10) -0.0311(6) -1.0439(13)
N4 N 0.4588(8) -0.2936(5) -0.2765(10)
C7 C 0.4311(10) -0.0120(6) -0.5441(11)
C8 C 0.4972(10) -0.2326(6) -0.3360(13)
C9 C 0.4155(11) -0.1747(6) -0.3448(14)
H6 H 0.4498 -0.1315 -0.3766
C10 C 0.2491(11) -0.2391(6) -0.2598(15)
H7 H 0.1617 -0.2440 -0.2346
C11 C 0.3340(11) -0.2982(7) -0.2431(14)
H8 H 0.3016 -0.3413 -0.2078
C12 C 0.6348(11) -0.2302(7) -0.3967(13)
Ag1_2 Ag 0.15900(9) -0.07673(6) 0.60684(11)
Ag1B Ag 0.84100(9) 0.07673(6) -0.60684(11)
Ag1_3 Ag -0.84100(9) -0.07673(6) -0.39316(11)
Ag1_4 Ag 0.15900(9) -0.07673(6) -1.39316(11)
C1_2 C -0.0519(10) -0.0886(6) -0.9178(13)
N1_2 N -0.1791(8) -0.0899(5) -0.9726(10)
Nd1B Nd 0.35344(5) 0.10486(3) -0.26047(7)
Nd1_2 Nd -0.35344(5) -0.10486(3) -0.73953(7)
Nd1C Nd -0.35344(5) -0.39514(3) -0.23953(7)
Nd1_3 Nd 0.64656(5) -0.10486(3) -0.73953(7)
Nd1C_2 Nd 0.64656(5) -0.39514(3) -0.23953(7)
Nd1B_2 Nd -0.64656(5) 0.10486(3) -1.26047(7)
O1_2 O -0.1193(6) -0.0943(5) -0.6459(8)
C2_2 C 0.0449(10) -0.0854(6) -1.0258(13)
H3_2 H 0.1337 -0.0864 -0.9832
N2_2 N 0.0149(9) -0.0810(5) 0.8100(11)
N2_3 N 0.0149(9) -0.0810(5) -1.1900(11)
O3_2 O 0.0988(7) -0.0894(5) 0.3253(8)
C3_2 C -0.1131(11) -0.0824(7) -1.2454(13)
H4_2 H -0.1378 -0.0805 -1.3598
O4_2 O -0.3382(7) -0.1767(4) 0.5173(9)
O4_3 O -0.3382(7) -0.1767(4) -0.4827(9)
C4_2 C -0.2104(11) -0.0866(7) -1.1356(12)
H5_2 H -0.2994 -0.0870 -1.1775
O5C O -0.2902(7) -0.2193(4) 0.1421(10)
O5C_2 O -0.2902(7) -0.2193(4) -0.8579(10)
O5_2 O -0.2902(7) -0.2807(4) -0.3579(10)
C5_2 C -0.0194(10) -0.0907(6) -0.7280(13)
O6_2 O -0.4956(7) -0.0921(4) -0.0030(9)
O6B O -0.5044(7) 0.0921(4) -0.9970(9)
O7_2 O -0.3693(7) 0.0167(4) 0.1510(9)
O7B O -0.6307(7) -0.0167(4) -1.1510(9)
O8_2 O -0.5658(7) -0.0571(4) 0.3448(9)
O8B O 0.5658(7) 0.0571(4) -0.3448(9)
O8_3 O -0.5658(7) -0.0571(4) -0.6552(9)
O9B O -0.3315(7) -0.0173(4) 0.4928(8)
O9_2 O 0.3315(7) 0.0173(4) 0.5072(8)
O9B_2 O 0.6685(7) -0.0173(4) -0.5072(8)
O9B_3 O -0.3315(7) -0.0173(4) -0.5072(8)
N3_2 N 0.2894(9) -0.1768(6) 0.6898(12)
N3_3 N -0.7106(9) -0.1768(6) -0.3102(12)
C6B C -0.4622(10) 0.0311(6) -0.9561(13)
N4C N -0.5412(8) -0.2064(5) 0.2235(10)
N4C_2 N -0.5412(8) -0.2064(5) -0.7765(10)
N4_2 N -0.5412(8) -0.2936(5) -0.2765(10)
C7B C 0.5689(10) 0.0120(6) -0.4559(11)
C8_2 C -0.5028(10) -0.2326(6) -0.3360(13)
C9_2 C -0.5845(11) -0.1747(6) -0.3448(14)
H6_2 H -0.5502 -0.1315 -0.3766
C10_2 C -0.7509(11) -0.2391(6) -0.2598(15)
H7_2 H -0.8383 -0.2440 -0.2346
C11_2 C -0.6660(11) -0.2982(7) -0.2431(14)
H8_2 H -0.6984 -0.3413 -0.2078
C12_2 C -0.3652(11) -0.2302(7) -0.3967(13)
O2 O -0.0345(10) -0.2592(7) -0.9874(18)
H1 H -0.0801 -0.2569 -0.9055
H2 H -0.0738 -0.2406 -1.0734
loop_
_geom_bond_atom_site_label_1
_geom_bond_atom_site_label_2
_geom_bond_site_symmetry_1
_geom_bond_site_symmetry_2
Ag1 N2 1_555 1_555
C1 N1 1_555 1_555
N1 Nd1 1_555 1_555
Nd1 O1 1_555 1_555
O1 C5 1_555 1_555
O2 H1 1_555 1_555
H2 O2 1_555 1_555
C2 C1 1_555 1_555
H3 C2 1_555 1_555
N2 C2 1_555 1_555
O3 Ag1 1_555 1_555
C3 N2 1_555 1_555
H4 C3 1_555 1_555
O4 C12 1_555 1_555
C4 N1 1_555 1_555
H5 C4 1_555 1_555
O5 C12 1_555 1_555
C5 C1 1_555 1_555
O6 C6 1_555 1_555
O7 Nd1_2 1_555 1_555
O8 C7 1_555 1_555
O9 Ag1 1_555 1_555
N3 Ag1 1_555 1_555
C6 O7B 1_555 1_555
N4 C8 1_555 1_555
C7 O9 1_555 1_555
C8 C9 1_555 1_555
C9 N3 1_555 1_555
H6 C9 1_555 1_555
C10 N3 1_555 1_555
H7 C10 1_555 1_555
C11 N4 1_555 1_555
H8 C11 1_555 1_555
C12 C8 1_555 1_555
Ag1_2 N2_2 1_555 1_555
Ag1B O9B_2 1_555 1_555
Ag1_3 N3_3 1_555 1_555
Ag1_4 N2_3 1_555 1_555
C1_2 N1_2 1_555 1_555
N1_2 Nd1_2 1_555 1_555
Nd1B O9 1_555 1_555
Nd1_2 O6 1_555 1_555
Nd1C O5_2 1_555 1_555
Nd1_3 O4 1_555 1_555
Nd1C_2 O5 1_555 1_555
Nd1B_2 O6B 1_555 1_555
O1_2 Nd1_2 1_555 1_555
C2_2 C1_2 1_555 1_555
H3_2 C2_2 1_555 1_555
N2_3 C2_2 1_555 1_555
O3_2 C5 1_555 1_555
C3_2 N2_3 1_555 1_555
H4_2 C3_2 1_555 1_555
O4_2 Nd1 1_555 1_555
O4_3 Nd1_2 1_555 1_555
C4_2 N1_2 1_555 1_555
H5_2 C4_2 1_555 1_555
O5C Nd1 1_555 1_555
O5C_2 Nd1_2 1_555 1_555
O5_2 C12_2 1_555 1_555
C5_2 O3 1_555 1_555
O6_2 Nd1 1_555 1_555
O6B C6B 1_555 1_555
O7_2 Nd1 1_555 1_555
O7B Nd1B_2 1_555 1_555
O8_2 Nd1 1_555 1_555
O8B Nd1B 1_555 1_555
O8_3 Nd1_2 1_555 1_555
O9B Nd1 1_555 1_555
O9_2 Ag1_2 1_555 1_555
O9B_2 Nd1_3 1_555 1_555
O9B_3 Nd1_2 1_555 1_555
N3_2 Ag1_2 1_555 1_555
N3_3 C9_2 1_555 1_555
C6B O7 1_555 1_555
N4C Nd1 1_555 1_555
N4C_2 Nd1_2 1_555 1_555
N4_2 Nd1C 1_555 1_555
C7B C7 1_555 1_555
C8_2 N4_2 1_555 1_555
C9_2 C8_2 1_555 1_555
H6_2 C9_2 1_555 1_555
C10_2 N3_3 1_555 1_555
H7_2 C10_2 1_555 1_555
C11_2 N4_2 1_555 1_555
H8_2 C11_2 1_555 1_555
C12_2 O4_3 1_555 1_555
C3 C4 1_555 1_555
O8 Nd1_3 1_555 1_555
C6 C6B 1_555 1_555
N4 Nd1C_2 1_555 1_555
C10 C11 1_555 1_555
Ag1_2 O3_2 1_555 1_555
C1_2 C5_2 1_555 1_555
O1_2 C5_2 1_555 1_555
C3_2 C4_2 1_555 1_555
O8B C7B 1_555 1_555
O9B_2 C7B 1_555 1_555
C8_2 C12_2 1_555 1_555
C10_2 C11_2 1_555 1_555

#END
