
#######################################################################
#
#                 Cambridge Crystallographic Data Centre
#                                CCDC 
#
#######################################################################
#
# If this CIF has been generated from an entry in the Cambridge 
# Structural Database, then it will include bibliographic, chemical, 
# crystal, experimental, refinement or atomic coordinate data resulting 
# from the CCDC's data processing and validation procedures.
#
#######################################################################

data_BOVQAF
_symmetry_cell_setting           monoclinic
_symmetry_space_group_name_H-M   'P 21/n'
_symmetry_Int_Tables_number      14
_space_group_name_Hall           '-P 2yn'
loop_
_symmetry_equiv_pos_site_id
_symmetry_equiv_pos_as_xyz
1 x,y,z
2 1/2-x,1/2+y,1/2-z
3 -x,-y,-z
4 1/2+x,1/2-y,1/2+z
_cell_length_a                   7.1745(3)
_cell_length_b                   42.745(2)
_cell_length_c                   10.7126(5)
_cell_angle_alpha                90
_cell_angle_beta                 90.7650(10)
_cell_angle_gamma                90
_cell_volume                     3284.98
loop_
_atom_site_label
_atom_site_type_symbol
_atom_site_fract_x
_atom_site_fract_y
_atom_site_fract_z
Pb1 Pb 0.12243(2) 0.097018(5) 0.352944(18)
Pb2 Pb -0.36921(2) 0.136520(5) 0.498730(18)
O1 O 0.0014(5) 0.06035(8) 0.5043(3)
O2 O 0.2904(5) 0.04888(8) 0.4562(3)
O3 O -0.0208(5) 0.12954(8) 0.5322(3)
O4 O 0.2740(4) 0.11793(8) 0.5341(3)
O5 O -0.5303(5) 0.10648(9) 0.2967(3)
O6 O -0.2352(4) 0.11863(8) 0.3157(3)
O7 O -0.2180(5) 0.18516(8) 0.4032(4)
O8 O -0.5125(5) 0.17631(9) 0.3567(4)
O9 O 0.1259(5) 0.15838(9) 0.2844(4)
H1 H 0.2336 0.1648 0.2856
H2 H 0.0480 0.1635 0.3359
O10 O -0.3671(5) 0.07555(8) 0.5507(3)
H3 H -0.4413 0.0665 0.5043
H4 H -0.2649 0.0704 0.5243
C1 C 0.1464(7) 0.04397(11) 0.5191(5)
C2 C 0.1449(7) 0.01859(11) 0.6140(5)
C3 C -0.0085(7) 0.01413(12) 0.6892(5)
H5 H -0.1126 0.0268 0.6775
C4 C -0.0118(8) -0.00864(13) 0.7814(5)
C5 C 0.1437(9) -0.02741(13) 0.7950(6)
H6 H 0.1450 -0.0428 0.8563
C6 C 0.2948(8) -0.02395(13) 0.7213(6)
H7 H 0.3966 -0.0372 0.7319
C7 C 0.2988(8) -0.00088(12) 0.6303(5)
H8 H 0.4032 0.0016 0.5807
C8 C -0.1813(10) -0.01275(18) 0.8623(7)
H9 H -0.1591 -0.0294 0.9210
H10 H -0.2874 -0.0178 0.8107
H11 H -0.2050 0.0063 0.9066
C9 C 0.1354(7) 0.13040(11) 0.5855(4)
C10 C 0.1578(7) 0.14561(12) 0.7091(5)
C11 C 0.0214(9) 0.16600(13) 0.7525(6)
H12 H -0.0821 0.1705 0.7024
C12 C 0.0388(12) 0.17949(16) 0.8690(7)
C13 C 0.1933(15) 0.1719(2) 0.9412(7)
H13 H 0.2058 0.1805 1.0205
C14 C 0.3266(12) 0.1524(2) 0.8998(7)
H14 H 0.4297 0.1481 0.9505
C15 C 0.3122(9) 0.13865(15) 0.7832(5)
H15 H 0.4040 0.1251 0.7551
C16 C -0.1079(14) 0.2018(2) 0.9145(9)
H16 H -0.0742 0.2091 0.9965
H17 H -0.2258 0.1912 0.9175
H18 H -0.1171 0.2193 0.8586
C17 C -0.3735(6) 0.10896(11) 0.2509(5)
C18 C -0.3404(7) 0.10073(11) 0.1176(5)
C19 C -0.4699(8) 0.08355(12) 0.0511(5)
H19 H -0.5796 0.0776 0.0896
C20 C -0.4414(10) 0.07500(14) -0.0711(6)
C21 C -0.2762(11) 0.08378(15) -0.1256(6)
H20 H -0.2524 0.0777 -0.2072
C22 C -0.1456(10) 0.10140(15) -0.0611(6)
H21 H -0.0364 0.1076 -0.0999
C23 C -0.1771(8) 0.10979(13) 0.0606(5)
H22 H -0.0890 0.1215 0.1045
C24 C -0.5890(11) 0.05680(17) -0.1440(7)
H23 H -0.5457 0.0528 -0.2269
H24 H -0.7020 0.0688 -0.1483
H25 H -0.6125 0.0373 -0.1027
C25 C -0.3642(8) 0.19171(13) 0.3421(5)
C26 C -0.3642(8) 0.21833(13) 0.2526(5)
C27 C -0.2065(9) 0.23678(13) 0.2416(5)
H26 H -0.1020 0.2324 0.2908
C28 C -0.2014(11) 0.26149(15) 0.1590(6)
C29 C -0.3565(15) 0.26682(19) 0.0853(7)
H27 H -0.3554 0.2832 0.0283
C30 C -0.5109(14) 0.2487(2) 0.0936(8)
H28 H -0.6132 0.2526 0.0417
C31 C -0.5167(10) 0.22464(17) 0.1785(7)
H29 H -0.6242 0.2126 0.1857
C32 C -0.0332(12) 0.28192(18) 0.1483(8)
H30 H -0.0562 0.2978 0.0865
H31 H 0.0717 0.2695 0.1242
H32 H -0.0072 0.2916 0.2274
Pb1_2 Pb -0.87757(2) 0.097018(5) 0.352944(18)
Pb2_2 Pb 0.63079(2) 0.136520(5) 0.498730(18)
O4_2 O -0.7260(4) 0.11793(8) 0.5341(3)
O5_2 O 0.4697(5) 0.10648(9) 0.2967(3)
loop_
_geom_bond_atom_site_label_1
_geom_bond_atom_site_label_2
_geom_bond_site_symmetry_1
_geom_bond_site_symmetry_2
Pb1 O1 1_555 1_555
Pb2 O3 1_555 1_555
O1 C1 1_555 1_555
O2 Pb1 1_555 1_555
O3 Pb1 1_555 1_555
O4 Pb1 1_555 1_555
O5 Pb2 1_555 1_555
O6 Pb1 1_555 1_555
O7 Pb2 1_555 1_555
O8 Pb2 1_555 1_555
O9 Pb1 1_555 1_555
H1 O9 1_555 1_555
H2 O9 1_555 1_555
O10 Pb2 1_555 1_555
H3 O10 1_555 1_555
H4 O10 1_555 1_555
C1 O2 1_555 1_555
C2 C1 1_555 1_555
C3 C2 1_555 1_555
H5 C3 1_555 1_555
C4 C3 1_555 1_555
C5 C4 1_555 1_555
H6 C5 1_555 1_555
C6 C5 1_555 1_555
H7 C6 1_555 1_555
C7 C2 1_555 1_555
H8 C7 1_555 1_555
C8 C4 1_555 1_555
H9 C8 1_555 1_555
H10 C8 1_555 1_555
H11 C8 1_555 1_555
C9 O3 1_555 1_555
C10 C9 1_555 1_555
C11 C10 1_555 1_555
H12 C11 1_555 1_555
C12 C11 1_555 1_555
C13 C12 1_555 1_555
H13 C13 1_555 1_555
C14 C13 1_555 1_555
H14 C14 1_555 1_555
C15 C10 1_555 1_555
H15 C15 1_555 1_555
C16 C12 1_555 1_555
H16 C16 1_555 1_555
H17 C16 1_555 1_555
H18 C16 1_555 1_555
C17 O5 1_555 1_555
C18 C17 1_555 1_555
C19 C18 1_555 1_555
H19 C19 1_555 1_555
C20 C19 1_555 1_555
C21 C20 1_555 1_555
H20 C21 1_555 1_555
C22 C21 1_555 1_555
H21 C22 1_555 1_555
C23 C18 1_555 1_555
H22 C23 1_555 1_555
C24 C20 1_555 1_555
H23 C24 1_555 1_555
H24 C24 1_555 1_555
H25 C24 1_555 1_555
C25 O7 1_555 1_555
C26 C25 1_555 1_555
C27 C26 1_555 1_555
H26 C27 1_555 1_555
C28 C27 1_555 1_555
C29 C28 1_555 1_555
H27 C29 1_555 1_555
C30 C29 1_555 1_555
H28 C30 1_555 1_555
C31 C26 1_555 1_555
H29 C31 1_555 1_555
C32 C28 1_555 1_555
H30 C32 1_555 1_555
H31 C32 1_555 1_555
H32 C32 1_555 1_555
Pb1_2 O5 1_555 1_555
Pb2_2 O4 1_555 1_555
O4_2 Pb2 1_555 1_555
O5_2 Pb1 1_555 1_555
Pb2 O6 1_555 1_555
O4 C9 1_555 1_555
O6 C17 1_555 1_555
O8 C25 1_555 1_555
C6 C7 1_555 1_555
C14 C15 1_555 1_555
C22 C23 1_555 1_555
C30 C31 1_555 1_555
Pb1_2 O4_2 1_555 1_555
Pb2_2 O5_2 1_555 1_555

#END
