
#######################################################################
#
#                 Cambridge Crystallographic Data Centre
#                                CCDC 
#
#######################################################################
#
# If this CIF has been generated from an entry in the Cambridge 
# Structural Database, then it will include bibliographic, chemical, 
# crystal, experimental, refinement or atomic coordinate data resulting 
# from the CCDC's data processing and validation procedures.
#
#######################################################################

data_BOVQUZ
_symmetry_cell_setting           monoclinic
_symmetry_space_group_name_H-M   'P 21/c'
_symmetry_Int_Tables_number      14
_space_group_name_Hall           '-P 2ybc'
loop_
_symmetry_equiv_pos_site_id
_symmetry_equiv_pos_as_xyz
1 x,y,z
2 -x,1/2+y,1/2-z
3 -x,-y,-z
4 x,1/2-y,1/2+z
_cell_length_a                   6.4735(5)
_cell_length_b                   8.1836(6)
_cell_length_c                   18.4407(12)
_cell_angle_alpha                90
_cell_angle_beta                 104.397(2)
_cell_angle_gamma                90
_cell_volume                     946.245
loop_
_atom_site_label
_atom_site_type_symbol
_atom_site_fract_x
_atom_site_fract_y
_atom_site_fract_z
C1 C 0.6805(4) 0.7618(3) 1.14674(15)
H1 H 0.7562 0.7565 1.1967
C2 C 0.4362(4) 0.8133(3) 1.04587(14)
C3 C 0.5993(4) 0.7274(3) 1.02485(14)
C4 C 0.5896(4) 0.6922(3) 0.95017(14)
H2 H 0.6986 0.6358 0.9364
C5 C 0.2433(4) 0.8286(3) 0.91858(14)
C6 C 0.2567(4) 0.8630(3) 0.99290(14)
H3 H 0.1474 0.9184 1.0070
C7 C 0.4108(4) 0.7447(3) 0.89738(14)
C8 C 0.0478(4) 0.8790(3) 0.85989(15)
C9 C 0.4056(4) 0.7163(3) 0.81632(14)
N1 N 0.4937(3) 0.8337(3) 1.12397(12)
N2 N 0.7500(3) 0.6973(3) 1.09061(12)
H4 H 0.8682 0.6459 1.0948
O1 O 0.0221(4) 0.8307(4) 0.79625(13)
O2 O -0.0815(3) 0.9719(3) 0.88154(11)
O3 O 0.3461(3) 0.5800(3) 0.78853(10)
O4 O 0.4720(4) 0.8254(3) 0.78041(11)
Zn1 Zn -0.35253(5) 1.02462(4) 0.814219(16)
N1B N -0.4937(3) 1.1663(3) 0.87603(12)
O3A O -0.3461(3) 1.0800(3) 0.71147(10)
O4_2 O -0.5280(4) 0.8254(3) 0.78041(11)
Zn1B Zn 0.35253(5) 0.97538(4) 1.185781(16)
Zn1A Zn 0.35253(5) 0.52462(4) 0.685781(16)
Zn1_2 Zn 0.64747(5) 1.02462(4) 0.814219(16)
O5 O 1.1216(4) 0.5187(3) 1.15400(15)
H5 H 1.0604 0.4556 1.1853
H6 H 1.1968 0.6024 1.1810
loop_
_geom_bond_atom_site_label_1
_geom_bond_atom_site_label_2
_geom_bond_site_symmetry_1
_geom_bond_site_symmetry_2
C1 H1 1_555 1_555
C2 C3 1_555 1_555
C3 C4 1_555 1_555
C4 H2 1_555 1_555
C5 C6 1_555 1_555
C6 C2 1_555 1_555
H3 C6 1_555 1_555
C7 C4 1_555 1_555
C8 C5 1_555 1_555
C9 C7 1_555 1_555
N1 C1 1_555 1_555
N2 C1 1_555 1_555
H4 N2 1_555 1_555
O1 C8 1_555 1_555
O2 C8 1_555 1_555
O3 C9 1_555 1_555
O4 C9 1_555 1_555
Zn1 O2 1_555 1_555
O5 H5 1_555 1_555
H6 O5 1_555 1_555
N1B Zn1 1_555 1_555
O3A Zn1 1_555 1_555
O4_2 Zn1 1_555 1_555
Zn1B N1 1_555 1_555
Zn1A O3 1_555 1_555
Zn1_2 O4 1_555 1_555
C2 N1 1_555 1_555
C3 N2 1_555 1_555
C5 C7 1_555 1_555

#END
