
#######################################################################
#
#                 Cambridge Crystallographic Data Centre
#                                CCDC 
#
#######################################################################
#
# If this CIF has been generated from an entry in the Cambridge 
# Structural Database, then it will include bibliographic, chemical, 
# crystal, experimental, refinement or atomic coordinate data resulting 
# from the CCDC's data processing and validation procedures.
#
#######################################################################

data_BOVTAH01
_symmetry_cell_setting           monoclinic
_symmetry_space_group_name_H-M   'C 2/c'
_symmetry_Int_Tables_number      15
_space_group_name_Hall           '-C 2yn'
loop_
_symmetry_equiv_pos_site_id
_symmetry_equiv_pos_as_xyz
1 x,y,z
2 -x,y,1/2-z
3 1/2+x,1/2+y,z
4 1/2-x,1/2+y,1/2-z
5 -x,-y,-z
6 x,-y,1/2+z
7 1/2-x,1/2-y,-z
8 1/2+x,1/2-y,1/2+z
_cell_length_a                   12.1571(3)
_cell_length_b                   18.1138(4)
_cell_length_c                   9.6370(4)
_cell_angle_alpha                90
_cell_angle_beta                 113.405(1)
_cell_angle_gamma                90
_cell_volume                     1947.56
loop_
_atom_site_label
_atom_site_type_symbol
_atom_site_fract_x
_atom_site_fract_y
_atom_site_fract_z
Cu1 Cu 0.27996(2) 0.441393(15) 0.67052(3)
O1 O 0.37365(16) 0.52682(9) 0.64069(19)
C1 C 0.3665(2) 0.57872(13) 0.7256(3)
O2 O 0.29745(17) 0.57583(10) 0.7923(2)
C2 C 0.4398(2) 0.64728(13) 0.7414(3)
C3 C 0.3825(2) 0.71442(13) 0.7360(3)
H1 H 0.3036 0.7145 0.7276
C4 C 0.4407(2) 0.78137(13) 0.7429(3)
C5 C 0.3723(2) 0.85229(13) 0.7288(3)
O3 O 0.32031(17) 0.85931(10) 0.8187(2)
O4 O 0.3696(2) 0.89728(12) 0.6308(3)
O5 O 0.15185(18) 0.46427(11) 0.4747(2)
H2 H 0.157(4) 0.5056(15) 0.431(5)
H3 H 0.082(2) 0.445(3) 0.454(6)
O6 O 0.39550(18) 0.42212(13) 0.8757(2)
H4 H 0.392(5) 0.450(2) 0.948(4)
H5 H 0.4656(19) 0.402(2) 0.900(5)
O7 O 0.38393(17) 0.37018(11) 0.5742(2)
H6 H 0.346(4) 0.370(3) 0.4764(7)
H7 H 0.383(3) 0.3226(3) 0.586(4)
O1A O 0.62635(16) 0.52682(9) 0.85931(19)
C1A C 0.6335(2) 0.57872(13) 0.7744(3)
O2A O 0.70255(17) 0.57583(10) 0.7077(2)
C2A C 0.5602(2) 0.64728(13) 0.7586(3)
C3A C 0.6175(2) 0.71442(13) 0.7640(3)
H1A H 0.6964 0.7145 0.7724
C4A C 0.5593(2) 0.78137(13) 0.7571(3)
C5A C 0.6277(2) 0.85229(13) 0.7712(3)
O3A O 0.67969(17) 0.85931(10) 0.6813(2)
O4A O 0.6304(2) 0.89728(12) 0.8692(3)
Cu1A Cu 0.72004(2) 0.441393(15) 0.82948(3)
O5A O 0.84815(18) 0.46427(11) 1.0253(2)
H2A H 0.843(4) 0.5056(15) 1.069(5)
H3A H 0.918(2) 0.445(3) 1.046(6)
O6A O 0.60450(18) 0.42212(13) 0.6243(2)
H4A H 0.608(5) 0.450(2) 0.552(4)
H5A H 0.5344(19) 0.402(2) 0.600(5)
O7A O 0.61607(17) 0.37018(11) 0.9258(2)
H6A H 0.654(4) 0.370(3) 1.0236(7)
H7A H 0.617(3) 0.3226(3) 0.914(4)
Cu1B Cu 0.77996(2) 0.941393(15) 0.67052(3)
Cu1C Cu 0.22004(2) 0.941393(15) 0.82948(3)
O3B O 0.82031(17) 0.35931(10) 0.8187(2)
O3C O 0.17969(17) 0.35931(10) 0.6813(2)
loop_
_geom_bond_atom_site_label_1
_geom_bond_atom_site_label_2
_geom_bond_site_symmetry_1
_geom_bond_site_symmetry_2
Cu1 O1 1_555 1_555
O1 C1 1_555 1_555
C1 O2 1_555 1_555
O2 Cu1 1_555 1_555
C2 C1 1_555 1_555
C3 C2 1_555 1_555
H1 C3 1_555 1_555
C4 C3 1_555 1_555
C5 C4 1_555 1_555
O3 C5 1_555 1_555
O4 C5 1_555 1_555
O5 Cu1 1_555 1_555
H2 O5 1_555 1_555
H3 O5 1_555 1_555
O6 Cu1 1_555 1_555
H4 O6 1_555 1_555
H5 O6 1_555 1_555
O7 Cu1 1_555 1_555
H6 O7 1_555 1_555
H7 O7 1_555 1_555
O1A C1A 1_555 1_555
C1A O2A 1_555 1_555
O2A Cu1A 1_555 1_555
C2A C2 1_555 1_555
C3A C2A 1_555 1_555
H1A C3A 1_555 1_555
C4A C4 1_555 1_555
C5A C4A 1_555 1_555
O3A C5A 1_555 1_555
O4A C5A 1_555 1_555
Cu1A O1A 1_555 1_555
O5A Cu1A 1_555 1_555
H2A O5A 1_555 1_555
H3A O5A 1_555 1_555
O6A Cu1A 1_555 1_555
H4A O6A 1_555 1_555
H5A O6A 1_555 1_555
O7A Cu1A 1_555 1_555
H6A O7A 1_555 1_555
H7A O7A 1_555 1_555
Cu1B O3A 1_555 1_555
Cu1C O3 1_555 1_555
O3B Cu1A 1_555 1_555
O3C Cu1 1_555 1_555
C1A C2A 1_555 1_555
C3A C4A 1_555 1_555

#END
