
#######################################################################
#
#                 Cambridge Crystallographic Data Centre
#                                CCDC 
#
#######################################################################
#
# If this CIF has been generated from an entry in the Cambridge 
# Structural Database, then it will include bibliographic, chemical, 
# crystal, experimental, refinement or atomic coordinate data resulting 
# from the CCDC's data processing and validation procedures.
#
#######################################################################

data_BOVTAH02
_symmetry_cell_setting           monoclinic
_symmetry_space_group_name_H-M   'C 2/c'
_symmetry_Int_Tables_number      15
_space_group_name_Hall           '-C 2yn'
loop_
_symmetry_equiv_pos_site_id
_symmetry_equiv_pos_as_xyz
1 x,y,z
2 -x,y,1/2-z
3 1/2+x,1/2+y,z
4 1/2-x,1/2+y,1/2-z
5 -x,-y,-z
6 x,-y,1/2+z
7 1/2-x,1/2-y,-z
8 1/2+x,1/2-y,1/2+z
_cell_length_a                   12.1518(8)
_cell_length_b                   18.1413(11)
_cell_length_c                   9.5816(6)
_cell_angle_alpha                90
_cell_angle_beta                 113.503(2)
_cell_angle_gamma                90
_cell_volume                     1937.02
loop_
_atom_site_label
_atom_site_type_symbol
_atom_site_fract_x
_atom_site_fract_y
_atom_site_fract_z
Cu1 Cu 0.22001(2) 0.55931(2) 0.33081(2)
C1 C 0.44016(15) 0.71960(9) 0.24300(19)
C2 C 0.38191(15) 0.78628(9) 0.23552(19)
H1 H 0.3011 0.7862 0.2261
C3 C 0.43980(14) 0.85345(9) 0.24163(18)
C4 C 0.37234(15) 0.64845(9) 0.2286(2)
C5 C 0.36641(15) 0.92225(9) 0.22504(19)
O1 O 0.37017(13) 0.60314(7) 0.13036(17)
O2 O 0.32068(12) 0.64135(7) 0.32001(15)
O3 O 0.29707(11) 0.92515(7) 0.29231(15)
O4 O 0.37426(11) 0.97418(6) 0.13968(14)
O5 O 0.34838(12) 0.53638(7) 0.52782(16)
H2 H 0.3523(19) 0.4945(7) 0.564(3)
H3 H 0.4162(12) 0.5547(11) 0.557(3)
O6 O 0.10433(12) 0.57889(8) 0.12393(15)
H4 H 0.1067(19) 0.5594(12) 0.0470(19)
H5 H 0.0341(11) 0.5906(14) 0.107(2)
O7 O 0.11551(12) 0.63051(7) 0.42583(14)
H6 H 0.1516(19) 0.6223(11) 0.5185(12)
H7 H 0.114(2) 0.6766(6) 0.414(2)
C1A C 0.55984(15) 0.71960(9) 0.25700(19)
C2A C 0.61809(15) 0.78628(9) 0.26448(19)
H1A H 0.6989 0.7862 0.2739
C3A C 0.56020(14) 0.85345(9) 0.25837(18)
C4A C 0.62766(15) 0.64845(9) 0.2714(2)
C5A C 0.63359(15) 0.92225(9) 0.27496(19)
O1A O 0.62983(13) 0.60314(7) 0.36964(17)
O2A O 0.67932(12) 0.64135(7) 0.17999(15)
O3A O 0.70293(11) 0.92515(7) 0.20769(15)
O4A O 0.62574(11) 0.97418(6) 0.36032(14)
Cu1A Cu 0.77999(2) 0.55931(2) 0.16919(2)
O5A O 0.65162(12) 0.53638(7) -0.02782(16)
H2A H 0.6477(19) 0.4945(7) -0.064(3)
H3A H 0.5838(12) 0.5547(11) -0.057(3)
O6A O 0.89567(12) 0.57889(8) 0.37607(15)
H4A H 0.8933(19) 0.5594(12) 0.4530(19)
H5A H 0.9659(11) 0.5906(14) 0.393(2)
O7A O 0.88449(12) 0.63051(7) 0.07417(14)
H6A H 0.8484(19) 0.6223(11) -0.0185(12)
H7A H 0.886(2) 0.6766(6) 0.086(2)
Cu1B Cu 0.72001(2) 1.05931(2) 0.33081(2)
Cu1C Cu 0.27999(2) 1.05931(2) 0.16919(2)
O3B O 0.79707(11) 0.42515(7) 0.29231(15)
O3C O 0.20293(11) 0.42515(7) 0.20769(15)
O4B O 0.87426(11) 0.47418(6) 0.13968(14)
O4C O 0.12574(11) 0.47418(6) 0.36032(14)
O8 O 0.55669(13) 0.61173(9) 0.61276(18)
H8 H 0.6191(15) 0.5988(15) 0.6851(18)
H9 H 0.571(2) 0.6158(16) 0.5353(17)
O9 O 0.12325(18) 0.77701(9) 0.4006(2)
H10 H 0.156(2) 0.7936(17) 0.4900(16)
H11 H 0.0594(18) 0.8007(17) 0.358(3)
loop_
_geom_bond_atom_site_label_1
_geom_bond_atom_site_label_2
_geom_bond_site_symmetry_1
_geom_bond_site_symmetry_2
Cu1 O2 1_555 1_555
C1 C2 1_555 1_555
C2 H1 1_555 1_555
C3 C2 1_555 1_555
C4 C1 1_555 1_555
C5 C3 1_555 1_555
O1 C4 1_555 1_555
O2 C4 1_555 1_555
O3 C5 1_555 1_555
O4 C5 1_555 1_555
O5 Cu1 1_555 1_555
H2 O5 1_555 1_555
H3 O5 1_555 1_555
O6 Cu1 1_555 1_555
H4 O6 1_555 1_555
H5 O6 1_555 1_555
O7 Cu1 1_555 1_555
H6 O7 1_555 1_555
H7 O7 1_555 1_555
O8 H8 1_555 1_555
H9 O8 1_555 1_555
O9 H10 1_555 1_555
H11 O9 1_555 1_555
C1A C1 1_555 1_555
C2A C1A 1_555 1_555
H1A C2A 1_555 1_555
C3A C3 1_555 1_555
C4A C1A 1_555 1_555
C5A C3A 1_555 1_555
O1A C4A 1_555 1_555
O2A C4A 1_555 1_555
O3A C5A 1_555 1_555
O4A C5A 1_555 1_555
Cu1A O2A 1_555 1_555
O5A Cu1A 1_555 1_555
H2A O5A 1_555 1_555
H3A O5A 1_555 1_555
O6A Cu1A 1_555 1_555
H4A O6A 1_555 1_555
H5A O6A 1_555 1_555
O7A Cu1A 1_555 1_555
H6A O7A 1_555 1_555
H7A O7A 1_555 1_555
Cu1B O3A 1_555 1_555
Cu1C O3 1_555 1_555
O3B Cu1A 1_555 1_555
O3C Cu1 1_555 1_555
O4B Cu1A 1_555 1_555
O4C Cu1 1_555 1_555
O4 Cu1C 1_555 1_555
C2A C3A 1_555 1_555
O4A Cu1B 1_555 1_555

#END
