
#######################################################################
#
#                 Cambridge Crystallographic Data Centre
#                                CCDC 
#
#######################################################################
#
# If this CIF has been generated from an entry in the Cambridge 
# Structural Database, then it will include bibliographic, chemical, 
# crystal, experimental, refinement or atomic coordinate data resulting 
# from the CCDC's data processing and validation procedures.
#
#######################################################################

data_BOWFUQ
_symmetry_cell_setting           orthorhombic
_symmetry_space_group_name_H-M   'P n n a'
_symmetry_Int_Tables_number      52
_space_group_name_Hall           '-P 2a 2bc'
loop_
_symmetry_equiv_pos_site_id
_symmetry_equiv_pos_as_xyz
1 x,y,z
2 1/2-x,-y,z
3 x,1/2-y,1/2-z
4 1/2-x,1/2+y,1/2-z
5 -x,-y,-z
6 1/2+x,y,-z
7 -x,1/2+y,1/2+z
8 1/2+x,1/2-y,1/2+z
_cell_length_a                   8.6341(4)
_cell_length_b                   17.5103(10)
_cell_length_c                   14.8764(7)
_cell_angle_alpha                90
_cell_angle_beta                 90
_cell_angle_gamma                90
_cell_volume                     2249.1
loop_
_atom_site_label
_atom_site_type_symbol
_atom_site_fract_x
_atom_site_fract_y
_atom_site_fract_z
Zn1 Zn 0.90174(3) 0.2500 0.2500
O1 O 1.01942(18) 0.16900(8) 0.19249(9)
O2 O 1.0957(3) 0.12115(12) 0.32279(12)
O3 O 1.1679(4) 0.04603(14) -0.08502(13)
N1 N 0.75922(18) 0.22358(8) 0.35279(10)
N2 N 0.58771(17) 0.16386(8) 0.43549(11)
N3 N 1.2500 0.0000 -0.04706(17)
C1 C 0.6208(4) 0.11653(16) 0.27695(17)
H1 H 0.6112 0.1467 0.2234
H2 H 0.5251 0.0902 0.2881
H3 H 0.7026 0.0800 0.2694
C2 C 0.6569(2) 0.16711(10) 0.35439(12)
C3 C 0.7544(2) 0.25724(9) 0.43640(13)
H4 H 0.8141 0.2987 0.4544
C4 C 0.6496(2) 0.22068(11) 0.48818(13)
H5 H 0.6244 0.2317 0.5476
C5 C 0.4762(2) 0.10572(10) 0.46501(14)
H6 H 0.3983 0.0985 0.4188
H7 H 0.4244 0.1231 0.5191
C6 C 0.5564(2) 0.03016(10) 0.48361(14)
H8 H 0.6062 0.0124 0.4290
H9 H 0.6361 0.0378 0.5286
C7 C 1.0903(2) 0.12027(13) 0.24103(13)
C8 C 1.1731(2) 0.05791(10) 0.18951(12)
C9 C 1.2500 0.0000 0.23544(17)
H10 H 1.2500 0.0000 0.2980
C10 C 1.1728(3) 0.05786(11) 0.09618(13)
H11 H 1.1218 0.0959 0.0642
C11 C 1.2500 0.0000 0.05223(18)
O1A O 1.48058(18) -0.16900(8) 0.19249(9)
O2A O 1.4043(3) -0.12115(12) 0.32279(12)
O3A O 1.3321(4) -0.04603(14) -0.08502(13)
C7A C 1.4097(2) -0.12027(13) 0.24103(13)
C8A C 1.3269(2) -0.05791(10) 0.18951(12)
C10A C 1.3272(3) -0.05786(11) 0.09618(13)
H11A H 1.3782 -0.0959 0.0642
N1D N 0.24078(18) -0.22358(8) 0.64721(10)
N2D N 0.41229(17) -0.16386(8) 0.56451(11)
C1D C 0.3792(4) -0.11653(16) 0.72305(17)
H1D H 0.3888 -0.1467 0.7766
H2D H 0.4749 -0.0902 0.7119
H3D H 0.2974 -0.0800 0.7306
C2D C 0.3431(2) -0.16711(10) 0.64561(12)
C3D C 0.2456(2) -0.25724(9) 0.56360(13)
H4D H 0.1859 -0.2987 0.5456
C4D C 0.3504(2) -0.22068(11) 0.51182(13)
H5D H 0.3756 -0.2317 0.4524
C5D C 0.5238(2) -0.10572(10) 0.53499(14)
H6D H 0.6017 -0.0985 0.5812
H7D H 0.5756 -0.1231 0.4809
C6D C 0.4436(2) -0.03016(10) 0.51639(14)
H8D H 0.3938 -0.0124 0.5710
H9D H 0.3639 -0.0378 0.4714
Zn1A Zn 1.59826(3) -0.2500 0.2500
Zn1D Zn 0.09826(3) -0.2500 0.7500
O1B O 1.01942(18) 0.33100(8) 0.30751(9)
N1B N 0.75922(18) 0.27642(8) 0.14721(10)
loop_
_geom_bond_atom_site_label_1
_geom_bond_atom_site_label_2
_geom_bond_site_symmetry_1
_geom_bond_site_symmetry_2
Zn1 O1 1_555 1_555
O1 C7 1_555 1_555
O2 C7 1_555 1_555
O3 N3 1_555 1_555
N1 Zn1 1_555 1_555
N2 C2 1_555 1_555
N3 C11 1_555 1_555
C1 H1 1_555 1_555
H2 C1 1_555 1_555
H3 C1 1_555 1_555
C2 N1 1_555 1_555
C3 N1 1_555 1_555
H4 C3 1_555 1_555
C4 N2 1_555 1_555
H5 C4 1_555 1_555
C5 N2 1_555 1_555
H6 C5 1_555 1_555
H7 C5 1_555 1_555
C6 C5 1_555 1_555
H8 C6 1_555 1_555
H9 C6 1_555 1_555
C7 C8 1_555 1_555
C8 C9 1_555 1_555
C9 H10 1_555 1_555
C10 C8 1_555 1_555
H11 C10 1_555 1_555
C11 C10 1_555 1_555
O1A C7A 1_555 1_555
O2A C7A 1_555 1_555
O3A N3 1_555 1_555
C7A C8A 1_555 1_555
C8A C9 1_555 1_555
C10A C11 1_555 1_555
H11A C10A 1_555 1_555
N1D C2D 1_555 1_555
N2D C2D 1_555 1_555
C1D H1D 1_555 1_555
H2D C1D 1_555 1_555
H3D C1D 1_555 1_555
C2D C1D 1_555 1_555
C3D N1D 1_555 1_555
H4D C3D 1_555 1_555
C4D N2D 1_555 1_555
H5D C4D 1_555 1_555
C5D N2D 1_555 1_555
H6D C5D 1_555 1_555
H7D C5D 1_555 1_555
C6D C6 1_555 1_555
H8D C6D 1_555 1_555
H9D C6D 1_555 1_555
Zn1A O1A 1_555 1_555
Zn1D N1D 1_555 1_555
O1B Zn1 1_555 1_555
N1B Zn1 1_555 1_555
C1 C2 1_555 1_555
C3 C4 1_555 1_555
C8A C10A 1_555 1_555
C3D C4D 1_555 1_555
C5D C6D 1_555 1_555

#END
