
#######################################################################
#
#                 Cambridge Crystallographic Data Centre
#                                CCDC 
#
#######################################################################
#
# If this CIF has been generated from an entry in the Cambridge 
# Structural Database, then it will include bibliographic, chemical, 
# crystal, experimental, refinement or atomic coordinate data resulting 
# from the CCDC's data processing and validation procedures.
#
#######################################################################

data_BOWFID
_symmetry_cell_setting           monoclinic
_symmetry_space_group_name_H-M   'P 21/c'
_symmetry_Int_Tables_number      14
_space_group_name_Hall           '-P 2ybc'
loop_
_symmetry_equiv_pos_site_id
_symmetry_equiv_pos_as_xyz
1 x,y,z
2 -x,1/2+y,1/2-z
3 -x,-y,-z
4 x,1/2-y,1/2+z
_cell_length_a                   5.9598(1)
_cell_length_b                   21.5779(5)
_cell_length_c                   13.3171(3)
_cell_angle_alpha                90
_cell_angle_beta                 101.443(2)
_cell_angle_gamma                90
_cell_volume                     1678.54
loop_
_atom_site_label
_atom_site_type_symbol
_atom_site_fract_x
_atom_site_fract_y
_atom_site_fract_z
Co1 Co 0.0000 0.5000 0.5000
N1 N 1.0036(4) 0.15289(11) 0.65314(17)
N2 N 0.2527(4) 0.43295(10) 0.58879(18)
N3 N 0.4294(4) 0.31207(11) 0.66550(17)
O1 O 0.8316(3) 0.06772(9) 0.90284(14)
O2 O 1.2152(3) -0.00964(9) 0.89734(15)
O3 O 1.3404(5) -0.00506(11) 0.7523(2)
C1 C 1.2171(5) 0.01372(13) 0.8103(2)
C2 C 1.0665(5) 0.06903(12) 0.7755(2)
C3 C 1.1124(5) 0.10136(13) 0.6931(2)
H1 H 1.2287 0.0863 0.6624
C4 C 1.0765(5) 0.18581(15) 0.5696(2)
H2 H 1.1463 0.2264 0.5878
C5 C 1.1691(8) 0.1514(2) 0.4904(3)
H3 H 1.2858 0.1283 0.4715
C6 C 0.9399(7) 0.1809(2) 0.4631(3)
H4 H 0.8081 0.1898 0.4150
C7 C 0.8312(5) 0.17767(13) 0.6974(2)
C8 C 0.7700(5) 0.14662(12) 0.7801(2)
C9 C 0.8879(5) 0.09108(12) 0.8245(2)
C10 C 0.7253(5) 0.23392(13) 0.6627(2)
H5 H 0.7743 0.2550 0.6101
C11 C 0.5497(5) 0.25921(12) 0.7043(2)
C12 C 0.4850(5) 0.22441(13) 0.7843(2)
C13 C 0.5904(5) 0.17129(13) 0.8213(2)
H6 H 0.5429 0.1508 0.8749
C14 C 0.4865(7) 0.33849(16) 0.5726(3)
H7 H 0.5040 0.3055 0.5253
H8 H 0.6305 0.3607 0.5898
C15 C 0.2988(7) 0.38226(16) 0.5227(2)
H9 H 0.3407 0.3998 0.4619
H10 H 0.1591 0.3587 0.5008
C16 C 0.2074(6) 0.40617(14) 0.6839(2)
H11 H 0.0631 0.3840 0.6688
H12 H 0.1917 0.4395 0.7309
C17 C 0.3943(6) 0.36206(14) 0.7362(2)
H13 H 0.5360 0.3848 0.7579
H14 H 0.3510 0.3443 0.7965
F1 F 0.3008(3) 0.24340(8) 0.82240(15)
Co1A Co 1.0000 0.0000 1.0000
Co1A_2 Co 1.0000 1.0000 1.0000
N1A N -0.0036(4) 0.65289(11) 0.84686(17)
N2A N 0.7473(4) 0.93295(10) 0.91121(18)
N2B N -0.2527(4) 0.56705(10) 0.41121(18)
N3A N 0.5706(4) 0.81207(11) 0.83450(17)
O1A O 0.1684(3) 0.56772(9) 0.59716(14)
O1C O -0.1684(3) 0.43228(9) 0.40284(14)
O2A O -0.2152(3) 0.49036(9) 0.60266(15)
O2C O 0.2152(3) 0.50964(9) 0.39734(15)
O3A O -0.3404(5) 0.49494(11) 0.7477(2)
C1A C -0.2171(5) 0.51372(13) 0.6897(2)
C2A C -0.0665(5) 0.56903(12) 0.7245(2)
C3A C -0.1124(5) 0.60136(13) 0.8069(2)
H1A H -0.2287 0.5863 0.8376
C4A C -0.0765(5) 0.68581(15) 0.9304(2)
H2A H -0.1463 0.7264 0.9122
C5A C -0.1691(8) 0.6514(2) 1.0096(3)
H3A H -0.2858 0.6283 1.0285
C6A C 0.0601(7) 0.6809(2) 1.0369(3)
H4A H 0.1919 0.6898 1.0850
C7A C 0.1688(5) 0.67767(13) 0.8026(2)
C8A C 0.2300(5) 0.64662(12) 0.7199(2)
C9A C 0.1121(5) 0.59108(12) 0.6755(2)
C10A C 0.2747(5) 0.73392(13) 0.8373(2)
H5A H 0.2257 0.7550 0.8899
C11A C 0.4503(5) 0.75921(12) 0.7957(2)
C12A C 0.5150(5) 0.72441(13) 0.7157(2)
C13A C 0.4096(5) 0.67129(13) 0.6787(2)
H6A H 0.4571 0.6508 0.6251
C14A C 0.5135(7) 0.83849(16) 0.9274(3)
H7A H 0.4960 0.8055 0.9747
H8A H 0.3695 0.8607 0.9102
C15A C 0.7012(7) 0.88226(16) 0.9773(2)
H9A H 0.6593 0.8998 1.0381
H10A H 0.8409 0.8587 0.9992
C16A C 0.7926(6) 0.90617(14) 0.8161(2)
H11A H 0.9369 0.8840 0.8312
H12A H 0.8083 0.9395 0.7691
C17A C 0.6057(6) 0.86206(14) 0.7638(2)
H13A H 0.4640 0.8848 0.7421
H14A H 0.6490 0.8443 0.7035
F1A F 0.6992(3) 0.74340(8) 0.67760(15)
O4 O 0.206(4) 0.5195(4) 0.0362(5)
O5 O 0.488(9) 0.4887(14) 0.0812(17)
loop_
_geom_bond_atom_site_label_1
_geom_bond_atom_site_label_2
_geom_bond_site_symmetry_1
_geom_bond_site_symmetry_2
Co1 N2 1_555 1_555
N1 C3 1_555 1_555
N2 C15 1_555 1_555
N3 C11 1_555 1_555
O1 C9 1_555 1_555
O2 C1 1_555 1_555
O3 C1 1_555 1_555
C1 C2 1_555 1_555
C2 C3 1_555 1_555
C3 H1 1_555 1_555
C4 N1 1_555 1_555
H2 C4 1_555 1_555
C5 C4 1_555 1_555
H3 C5 1_555 1_555
C6 C4 1_555 1_555
H4 C6 1_555 1_555
C7 N1 1_555 1_555
C8 C7 1_555 1_555
C9 C2 1_555 1_555
C10 C7 1_555 1_555
H5 C10 1_555 1_555
C11 C10 1_555 1_555
C12 C11 1_555 1_555
C13 C8 1_555 1_555
H6 C13 1_555 1_555
C14 N3 1_555 1_555
H7 C14 1_555 1_555
H8 C14 1_555 1_555
C15 C14 1_555 1_555
H9 C15 1_555 1_555
H10 C15 1_555 1_555
C16 N2 1_555 1_555
H11 C16 1_555 1_555
H12 C16 1_555 1_555
C17 N3 1_555 1_555
H13 C17 1_555 1_555
H14 C17 1_555 1_555
F1 C12 1_555 1_555
Co1A O1 1_555 1_555
Co1A_2 N2A 1_555 1_555
N1A C3A 1_555 1_555
N2A C15A 1_555 1_555
N2B Co1 1_555 1_555
N3A C11A 1_555 1_555
O1A Co1 1_555 1_555
O1C Co1 1_555 1_555
O2A Co1 1_555 1_555
O2C Co1 1_555 1_555
O3A C1A 1_555 1_555
C1A O2A 1_555 1_555
C2A C1A 1_555 1_555
C3A C2A 1_555 1_555
H1A C3A 1_555 1_555
C4A N1A 1_555 1_555
H2A C4A 1_555 1_555
C5A C4A 1_555 1_555
H3A C5A 1_555 1_555
C6A C4A 1_555 1_555
H4A C6A 1_555 1_555
C7A N1A 1_555 1_555
C8A C7A 1_555 1_555
C9A O1A 1_555 1_555
C10A C7A 1_555 1_555
H5A C10A 1_555 1_555
C11A C10A 1_555 1_555
C12A C11A 1_555 1_555
C13A C8A 1_555 1_555
H6A C13A 1_555 1_555
C14A N3A 1_555 1_555
H7A C14A 1_555 1_555
H8A C14A 1_555 1_555
C15A C14A 1_555 1_555
H9A C15A 1_555 1_555
H10A C15A 1_555 1_555
C16A N2A 1_555 1_555
H11A C16A 1_555 1_555
H12A C16A 1_555 1_555
C17A N3A 1_555 1_555
H13A C17A 1_555 1_555
H14A C17A 1_555 1_555
F1A C12A 1_555 1_555
O2 Co1A 1_555 1_555
C5 C6 1_555 1_555
C8 C9 1_555 1_555
C12 C13 1_555 1_555
C16 C17 1_555 1_555
C2A C9A 1_555 1_555
C5A C6A 1_555 1_555
C8A C9A 1_555 1_555
C12A C13A 1_555 1_555
C16A C17A 1_555 1_555

#END
