
#######################################################################
#
#                 Cambridge Crystallographic Data Centre
#                                CCDC 
#
#######################################################################
#
# If this CIF has been generated from an entry in the Cambridge 
# Structural Database, then it will include bibliographic, chemical, 
# crystal, experimental, refinement or atomic coordinate data resulting 
# from the CCDC's data processing and validation procedures.
#
#######################################################################

data_BOWFEZ
_symmetry_cell_setting           orthorhombic
_symmetry_space_group_name_H-M   'P 21 21 2'
_symmetry_Int_Tables_number      18
_space_group_name_Hall           'P 2 2ab'
loop_
_symmetry_equiv_pos_site_id
_symmetry_equiv_pos_as_xyz
1 x,y,z
2 -x,-y,z
3 1/2-x,1/2+y,-z
4 1/2+x,1/2-y,-z
_cell_length_a                   11.2411(3)
_cell_length_b                   16.5043(5)
_cell_length_c                   8.4442(3)
_cell_angle_alpha                90
_cell_angle_beta                 90
_cell_angle_gamma                90
_cell_volume                     1566.62
loop_
_atom_site_label
_atom_site_type_symbol
_atom_site_fract_x
_atom_site_fract_y
_atom_site_fract_z
Cu1 Cu 0.40448(4) 0.75077(3) 0.39170(6)
O1 O 0.4452(3) 0.8008(2) 0.5964(4)
O2 O 0.5613(4) 0.8962(3) 0.6991(6)
O3 O 0.7697(3) 0.80605(19) 0.5175(4)
O4 O 0.8782(3) 0.9185(2) 0.4999(5)
O5 O 0.2856(3) 0.8545(2) 0.3181(5)
H1 H 0.2595 0.8603 0.2096
H2 H 0.2593 0.8945 0.3948
N1 N 0.4155(3) 0.7004(2) 0.1752(5)
N2 N 0.5552(3) 0.8043(2) 0.3227(5)
H3 H 0.6176 0.7720 0.3495
C1 C 0.3620(5) 0.6336(4) 0.1214(7)
H4 H 0.3071 0.6075 0.1863
C2 C 0.3849(6) 0.6017(4) -0.0265(8)
H5 H 0.3465 0.5550 -0.0610
C3 C 0.4656(6) 0.6406(5) -0.1213(8)
H6 H 0.4829 0.6205 -0.2216
C4 C 0.5206(5) 0.7094(5) -0.0670(7)
H7 H 0.5752 0.7364 -0.1307
C5 C 0.4949(4) 0.7382(3) 0.0807(5)
C6 C 0.5520(4) 0.8129(3) 0.1490(6)
H8 H 0.6321 0.8190 0.1080
H9 H 0.5065 0.8606 0.1199
C7 C 0.5615(4) 0.8793(3) 0.4165(6)
H10 H 0.5011 0.9160 0.3736
C8 C 0.5220(4) 0.8576(3) 0.5868(6)
C9 C 0.6801(4) 0.9246(3) 0.4093(8)
H11 H 0.6989 0.9354 0.2992
H12 H 0.6707 0.9764 0.4621
C10 C 0.7833(4) 0.8809(3) 0.4828(6)
Cu1C Cu 0.90448(4) 0.74923(3) 0.60830(6)
O3C O 0.2697(3) 0.69395(19) 0.4825(4)
O6 O 0.6169(3) 0.5841(2) 0.4702(5)
H13 H 0.6674 0.6178 0.5334
H14 H 0.6511 0.5480 0.3930
O7 O 0.0000 0.5000 0.0721(6)
O8 O 0.7824(4) 0.5725(3) 0.9711(5)
H15 H 0.8359 0.5748 0.8816
H16 H 0.8151 0.5646 1.0755
O9 O 0.7339(3) 0.6701(2) 0.2328(5)
H17 H 0.7589 0.6170 0.1961
H18 H 0.7869 0.7154 0.2171
H19? H -0.0807 0.4815 0.0628
H20? H 0.0587 0.4812 -0.0029
loop_
_geom_bond_atom_site_label_1
_geom_bond_atom_site_label_2
_geom_bond_site_symmetry_1
_geom_bond_site_symmetry_2
Cu1 O1 1_555 1_555
O1 C8 1_555 1_555
O2 C8 1_555 1_555
O3 C10 1_555 1_555
O4 C10 1_555 1_555
O5 Cu1 1_555 1_555
H1 O5 1_555 1_555
H2 O5 1_555 1_555
N1 Cu1 1_555 1_555
N2 Cu1 1_555 1_555
H3 N2 1_555 1_555
C1 N1 1_555 1_555
H4 C1 1_555 1_555
C2 C1 1_555 1_555
H5 C2 1_555 1_555
C3 C2 1_555 1_555
H6 C3 1_555 1_555
C4 C3 1_555 1_555
H7 C4 1_555 1_555
C5 N1 1_555 1_555
C6 N2 1_555 1_555
H8 C6 1_555 1_555
H9 C6 1_555 1_555
C7 N2 1_555 1_555
H10 C7 1_555 1_555
C8 C7 1_555 1_555
C9 C7 1_555 1_555
H11 C9 1_555 1_555
H12 C9 1_555 1_555
C10 C9 1_555 1_555
O6 H13 1_555 1_555
H14 O6 1_555 1_555
O8 H15 1_555 1_555
H16 O8 1_555 1_555
O9 H17 1_555 1_555
H18 O9 1_555 1_555
Cu1C O3 1_555 1_555
O3C Cu1 1_555 1_555
C4 C5 1_555 1_555
C5 C6 1_555 1_555

#END
