
#######################################################################
#
#                 Cambridge Crystallographic Data Centre
#                                CCDC 
#
#######################################################################
#
# If this CIF has been generated from an entry in the Cambridge 
# Structural Database, then it will include bibliographic, chemical, 
# crystal, experimental, refinement or atomic coordinate data resulting 
# from the CCDC's data processing and validation procedures.
#
#######################################################################

data_BOWGEB
_symmetry_cell_setting           monoclinic
_symmetry_space_group_name_H-M   'P 21/c'
_symmetry_Int_Tables_number      14
_space_group_name_Hall           '-P 2ybc'
loop_
_symmetry_equiv_pos_site_id
_symmetry_equiv_pos_as_xyz
1 x,y,z
2 -x,1/2+y,1/2-z
3 -x,-y,-z
4 x,1/2-y,1/2+z
_cell_length_a                   9.821(3)
_cell_length_b                   11.243(3)
_cell_length_c                   14.853(4)
_cell_angle_alpha                90
_cell_angle_beta                 102.329(6)
_cell_angle_gamma                90
_cell_volume                     1602.21
loop_
_atom_site_label
_atom_site_type_symbol
_atom_site_fract_x
_atom_site_fract_y
_atom_site_fract_z
Zn1 Zn 0.849882(15) 0.962407(14) 0.064572(11)
O1 O 0.83738(10) 1.09726(10) 0.14602(8)
O2 O 0.61630(12) 1.07160(11) 0.07586(8)
O3 O 0.95792(11) 1.39967(11) 0.38981(8)
O4 O 0.79384(11) 1.51050(10) 0.43110(7)
O5 O 0.35358(10) 1.38476(11) 0.22185(7)
N1 N 0.76067(12) 0.81044(11) 0.08949(8)
N2 N 0.60116(13) 0.68050(11) 0.10475(9)
C1 C 0.70701(15) 1.12260(13) 0.13375(10)
C2 C 0.66626(14) 1.21930(13) 0.19301(9)
C3 C 0.76628(14) 1.28029(13) 0.25655(10)
H1 H 0.8600 1.2611 0.2634
C4 C 0.72610(14) 1.37041(12) 0.31019(9)
C5 C 0.83466(14) 1.43205(13) 0.38249(9)
C6 C 0.58657(14) 1.40206(13) 0.29820(9)
H2 H 0.5598 1.4621 0.3339
C7 C 0.48666(14) 1.34291(13) 0.23208(10)
C8 C 0.52544(14) 1.24945(13) 0.18166(10)
H3 H 0.4580 1.2071 0.1405
C9 C 0.24673(15) 1.33423(16) 0.15069(11)
H4 H 0.2310 1.2517 0.1647
H5 H 0.2746 1.3375 0.0919
C10 C 0.11546(17) 1.4059(2) 0.14651(13)
H6 H 0.1327 1.4881 0.1326
H7 H 0.0903 1.4038 0.2062
C11 C -0.00440(19) 1.3582(2) 0.07395(15)
H8 H 0.0189 1.3629 0.0145
H9 H -0.0865 1.4046 0.0738
H10 H -0.0216 1.2768 0.0875
C12 C 0.62564(15) 0.78644(13) 0.07015(10)
H11 H 0.5572 0.8362 0.0371
C13 C 0.82466(17) 0.71451(14) 0.13904(11)
H12 H 0.9200 0.7065 0.1619
C14 C 0.72712(18) 0.63418(15) 0.14910(11)
H13 H 0.7421 0.5618 0.1799
C15 C 0.46684(17) 0.61869(15) 0.08964(12)
H14 H 0.3926 0.6768 0.0847
H15 H 0.4645 0.5682 0.1422
C16 C 0.44195(18) 0.54338(14) 0.00286(13)
H16 H 0.3563 0.4989 -0.0010
H17 H 0.4287 0.5959 -0.0501
N1B N 0.23933(12) 0.18956(11) -0.08949(8)
N2B N 0.39884(13) 0.31950(11) -0.10475(9)
C12B C 0.37436(15) 0.21356(13) -0.07015(10)
H11B H 0.4428 0.1638 -0.0371
C13B C 0.17534(17) 0.28549(14) -0.13904(11)
H12B H 0.0800 0.2935 -0.1619
C14B C 0.27288(18) 0.36582(15) -0.14910(11)
H13B H 0.2579 0.4382 -0.1799
C15B C 0.53316(17) 0.38131(15) -0.08964(12)
H14B H 0.6074 0.3232 -0.0847
H15B H 0.5355 0.4318 -0.1422
C16B C 0.55805(18) 0.45662(14) -0.00286(13)
H16B H 0.6437 0.5011 0.0010
H17B H 0.5713 0.4041 0.0501
Zn1B Zn 0.150118(15) 0.037593(14) -0.064572(11)
O1B O 0.16262(10) -0.09726(10) -0.14602(8)
O2B O 0.38370(12) -0.07160(11) -0.07586(8)
O3B O 0.04208(11) -0.39967(11) -0.38981(8)
O4B O 0.20616(11) -0.51050(10) -0.43110(7)
O5B O 0.64642(10) -0.38476(11) -0.22185(7)
C1B C 0.29299(15) -0.12260(13) -0.13375(10)
C2B C 0.33374(14) -0.21930(13) -0.19301(9)
C3B C 0.23372(14) -0.28029(13) -0.25655(10)
H1B H 0.1400 -0.2611 -0.2634
C4B C 0.27390(14) -0.37041(12) -0.31019(9)
C5B C 0.16534(14) -0.43205(13) -0.38249(9)
C6B C 0.41343(14) -0.40206(13) -0.29820(9)
H2B H 0.4402 -0.4621 -0.3339
C7B C 0.51334(14) -0.34291(13) -0.23208(10)
C8B C 0.47456(14) -0.24945(13) -0.18166(10)
H3B H 0.5420 -0.2071 -0.1405
C9B C 0.75327(15) -0.33423(16) -0.15069(11)
H4B H 0.7690 -0.2517 -0.1647
H5B H 0.7254 -0.3375 -0.0919
C10B C 0.88454(17) -0.4059(2) -0.14651(13)
H6B H 0.8673 -0.4881 -0.1326
H7B H 0.9097 -0.4038 -0.2062
C11B C 1.00440(19) -0.3582(2) -0.07395(15)
H8B H 0.9811 -0.3629 -0.0145
H9B H 1.0865 -0.4046 -0.0738
H10B H 1.0216 -0.2768 -0.0875
Zn1A Zn 0.150118(15) -0.537593(14) -0.564572(11)
Zn1A_2 Zn 1.150118(15) 1.462407(14) 0.435428(11)
Zn1C Zn -0.150118(15) -0.462407(14) -0.435428(11)
Zn1C_2 Zn 0.849882(15) 1.537593(14) 0.564572(11)
O3A O 1.04208(11) 0.89967(11) 0.11019(8)
O3C O -0.04208(11) 0.10033(11) -0.11019(8)
O4A O 0.20616(11) 0.01050(10) 0.06890(7)
O4C O 0.79384(11) 0.98950(10) -0.06890(7)
loop_
_geom_bond_atom_site_label_1
_geom_bond_atom_site_label_2
_geom_bond_site_symmetry_1
_geom_bond_site_symmetry_2
Zn1 O1 1_555 1_555
O1 C1 1_555 1_555
O2 C1 1_555 1_555
O3 C5 1_555 1_555
O4 C5 1_555 1_555
O5 C7 1_555 1_555
N1 Zn1 1_555 1_555
N2 C12 1_555 1_555
C1 C2 1_555 1_555
C2 C3 1_555 1_555
C3 H1 1_555 1_555
C4 C3 1_555 1_555
C5 C4 1_555 1_555
C6 C4 1_555 1_555
H2 C6 1_555 1_555
C7 C6 1_555 1_555
C8 C2 1_555 1_555
H3 C8 1_555 1_555
C9 O5 1_555 1_555
H4 C9 1_555 1_555
H5 C9 1_555 1_555
C10 C9 1_555 1_555
H6 C10 1_555 1_555
H7 C10 1_555 1_555
C11 C10 1_555 1_555
H8 C11 1_555 1_555
H9 C11 1_555 1_555
H10 C11 1_555 1_555
C12 N1 1_555 1_555
H11 C12 1_555 1_555
C13 N1 1_555 1_555
H12 C13 1_555 1_555
C14 N2 1_555 1_555
H13 C14 1_555 1_555
C15 N2 1_555 1_555
H14 C15 1_555 1_555
H15 C15 1_555 1_555
C16 C15 1_555 1_555
H16 C16 1_555 1_555
H17 C16 1_555 1_555
N1B C12B 1_555 1_555
N2B C12B 1_555 1_555
C12B H11B 1_555 1_555
C13B N1B 1_555 1_555
H12B C13B 1_555 1_555
C14B N2B 1_555 1_555
H13B C14B 1_555 1_555
C15B N2B 1_555 1_555
H14B C15B 1_555 1_555
H15B C15B 1_555 1_555
C16B C16 1_555 1_555
H16B C16B 1_555 1_555
H17B C16B 1_555 1_555
Zn1B N1B 1_555 1_555
O1B Zn1B 1_555 1_555
O2B C1B 1_555 1_555
O3B C5B 1_555 1_555
O4B C5B 1_555 1_555
O5B C7B 1_555 1_555
C1B O1B 1_555 1_555
C2B C1B 1_555 1_555
C3B C2B 1_555 1_555
H1B C3B 1_555 1_555
C4B C3B 1_555 1_555
C5B C4B 1_555 1_555
C6B C4B 1_555 1_555
H2B C6B 1_555 1_555
C7B C6B 1_555 1_555
C8B C2B 1_555 1_555
H3B C8B 1_555 1_555
C9B O5B 1_555 1_555
H4B C9B 1_555 1_555
H5B C9B 1_555 1_555
C10B C9B 1_555 1_555
H6B C10B 1_555 1_555
H7B C10B 1_555 1_555
C11B C10B 1_555 1_555
H8B C11B 1_555 1_555
H9B C11B 1_555 1_555
H10B C11B 1_555 1_555
Zn1A O4B 1_555 1_555
Zn1A_2 O3 1_555 1_555
Zn1C O3B 1_555 1_555
Zn1C_2 O4 1_555 1_555
O3A Zn1 1_555 1_555
O3C Zn1B 1_555 1_555
O4A Zn1B 1_555 1_555
O4C Zn1 1_555 1_555
C7 C8 1_555 1_555
C13 C14 1_555 1_555
C13B C14B 1_555 1_555
C15B C16B 1_555 1_555
C7B C8B 1_555 1_555

#END
