
#######################################################################
#
#                 Cambridge Crystallographic Data Centre
#                                CCDC 
#
#######################################################################
#
# If this CIF has been generated from an entry in the Cambridge 
# Structural Database, then it will include bibliographic, chemical, 
# crystal, experimental, refinement or atomic coordinate data resulting 
# from the CCDC's data processing and validation procedures.
#
#######################################################################

data_BOWJAA
_symmetry_cell_setting           monoclinic
_symmetry_space_group_name_H-M   'P 21/c'
_symmetry_Int_Tables_number      14
_space_group_name_Hall           '-P 2ybc'
loop_
_symmetry_equiv_pos_site_id
_symmetry_equiv_pos_as_xyz
1 x,y,z
2 -x,1/2+y,1/2-z
3 -x,-y,-z
4 x,1/2-y,1/2+z
_cell_length_a                   11.1171(3)
_cell_length_b                   14.9906(6)
_cell_length_c                   24.3281(8)
_cell_angle_alpha                90
_cell_angle_beta                 93.217(3)
_cell_angle_gamma                90
_cell_volume                     4047.94
loop_
_atom_site_label
_atom_site_type_symbol
_atom_site_fract_x
_atom_site_fract_y
_atom_site_fract_z
Zn1 Zn 1.13658(8) 0.55694(7) 0.34320(3)
Zn2 Zn 0.99305(7) 0.44509(6) 0.44083(3)
Zn3 Zn 0.82631(8) 0.56004(6) 0.34525(3)
O1 O 1.0053(4) 0.4166(3) 0.52728(19)
O2 O 0.8637(5) 0.2133(4) 0.0561(2)
O3 O 0.8129(5) 0.4373(4) 0.4510(2)
O4 O 0.1742(5) 0.4312(4) 0.4482(2)
O5 O 0.9826(4) 0.4999(4) 0.36310(19)
H1 H 0.9778 0.4461 0.3388
O6 O 1.1636(5) 0.2127(4) 0.0628(2)
O7 O 0.8011(5) 0.5415(4) 0.2657(2)
O8 O 0.9875(5) 0.3128(4) 0.4140(2)
O9 O 1.1707(7) 0.1880(4) 0.1529(2)
O10 O 0.8713(7) 0.1829(4) 0.1455(3)
O11 O 0.8165(6) 0.3971(4) 0.2864(2)
C1 C 0.8283(7) 0.4401(6) 0.1925(3)
O12 O 0.7004(5) 0.5131(4) 0.3886(2)
C2 C 0.6022(7) 0.4231(5) 0.4507(3)
C3 C 0.8415(8) 0.5094(6) 0.1552(3)
H2 H 0.8346 0.5698 0.1666
C4 C 1.1927(7) 0.3340(6) 0.1250(3)
C5 C 1.2413(8) 0.3924(6) 0.0877(3)
H3 H 1.2618 0.3712 0.0526
C6 C 0.6092(6) 0.3613(5) 0.4926(3)
H4 H 0.6854 0.3424 0.5080
C7 C 0.8144(7) 0.4587(6) 0.2524(3)
C8 C 1.1738(6) 0.2369(5) 0.1112(3)
C9 C 0.3849(6) 0.4187(5) 0.4493(3)
O13 O 0.2716(5) 0.5053(4) 0.3852(2)
C10 C 0.2668(6) 0.4537(5) 0.4269(3)
C11 C 0.4915(6) 0.4529(5) 0.4295(3)
H5 H 0.4876 0.4969 0.4014
C12 C 0.7154(6) 0.4596(5) 0.4294(3)
C13 C 1.1664(8) 0.3661(6) 0.1761(3)
H6 H 1.1341 0.3262 0.2019
C14 C 0.8339(7) 0.3519(6) 0.1757(3)
H7 H 0.8249 0.3050 0.2014
C15 C 0.8612(7) 0.2355(6) 0.1053(3)
C16 C 0.8707(8) 0.4009(6) 0.0834(3)
H8 H 0.8867 0.3876 0.0463
C17 C 0.3904(6) 0.3563(5) 0.4910(3)
H9 H 0.3184 0.3337 0.5050
C18 C 0.8527(7) 0.3324(5) 0.1208(3)
O14 O 1.1748(6) 0.5613(5) 0.2630(2)
O15 O 1.1184(8) 0.4258(5) 0.2802(3)
C19 C 1.1853(8) 0.4541(6) 0.1912(3)
C20 C 1.1566(8) 0.4816(7) 0.2484(4)
C21 C 1.2304(9) 0.5110(7) 0.1535(4)
H10 H 1.2417 0.5720 0.1631
C22 C 1.2603(8) 0.4822(7) 0.1016(4)
C23 C 1.3116(13) 0.5399(8) 0.0626(5)
C24 C 0.8763(14) 0.2543(10) 0.4156(6)
H11 H 0.8388 0.2629 0.4507
H12 H 0.8995 0.1916 0.4119
H13 H 0.8189 0.2706 0.3852
C25 C 0.5104(7) 0.2598(6) 0.5550(3)
C26 C 0.5026(7) 0.3265(6) 0.5123(3)
C27 C 0.8825(10) 0.5615(7) 0.0635(3)
C28 C 0.8652(9) 0.4887(6) 0.1010(3)
C29 C 1.3530(4) 0.5865(3) 0.02964(15)
H14 H 1.3864 0.6241 0.0030
C30 C 0.5255(4) 0.2022(3) 0.58747(15)
H15 H 0.5378 0.1557 0.6137
C31 C 0.8952(4) 0.6250(3) 0.03574(15)
H16 H 0.9054 0.6761 0.0134
H17 H 1.071(4) 0.379(4) 0.537(3)
H18 H 0.937(5) 0.384(6) 0.537(6)
H19 H 1.032(6) 0.290(5) 0.385(3)
Zn1_2 Zn 0.13658(8) 0.55694(7) 0.34320(3)
Zn1A Zn 0.86342(8) 0.05694(7) 0.15680(3)
Zn2_2 Zn -0.00695(7) 0.44509(6) 0.44083(3)
Zn2B Zn 1.00695(7) 0.55491(6) 0.55917(3)
Zn3A Zn 1.17369(8) 0.06004(6) 0.15475(3)
O1B O 0.9947(4) 0.5834(3) 0.47272(19)
O4_2 O 1.1742(5) 0.4312(4) 0.4482(2)
O9A O 0.8293(7) 0.6880(4) 0.3471(2)
O10A O 1.1287(7) 0.6829(4) 0.3545(3)
O13_2 O 1.2716(5) 0.5053(4) 0.3852(2)
O17 O 1.1004(4) 0.2620(3) 0.32350(15)
C32 C 1.0203(4) 0.2128(3) 0.28845(15)
H20 H 0.9441 0.2454 0.2830
H21 H 1.0053 0.1546 0.3051
H22 H 1.0556 0.2041 0.2528
H23 H 1.139(10) 0.310(6) 0.3062(16)
N1 N 0.4788(4) 0.2289(3) 0.29151(15)
C33 C 0.4777(4) 0.3933(3) 0.26748(15)
H24 H 0.5483 0.4019 0.2929
H25 H 0.4259 0.4461 0.2682
H26 H 0.5040 0.3842 0.2301
C34 C 0.4201(4) 0.1874(3) 0.37873(15)
H27 H 0.4920 0.2239 0.3868
H28 H 0.4214 0.1358 0.4035
H29 H 0.3479 0.2231 0.3841
C35 C 0.4071(4) 0.3112(3) 0.28519(15)
H30 H 0.3715 0.3245 0.3207
H31 H 0.3398 0.3004 0.2576
C36 C 0.4183(4) 0.1552(3) 0.31895(15)
H32 H 0.4632 0.0985 0.3158
H33 H 0.3348 0.1468 0.3034
C37 C 0.4823(17) 0.1383(12) 0.2042(7)
C38 C 0.412(3) 0.217(2) 0.2278(15)
H34 H 0.3257 0.2027 0.2295
H35 H 0.4213 0.2716 0.2056
O18 O 0.7102(4) 0.2281(3) 0.28136(15)
O16? O 0.8116(17) 0.2194(11) 0.4494(7)
H36? H 0.4315 0.0997 0.2257
H37? H 0.5262 0.1018 0.1786
H38? H 0.4316 0.1814 0.1834
C39? C 0.566(3) 0.185(2) 0.2404(15)
H39? H 0.6065 0.2327 0.2206
H40? H 0.6277 0.1433 0.2565
O19? O 0.6970(15) 0.2849(14) 0.3502(7)
loop_
_geom_bond_atom_site_label_1
_geom_bond_atom_site_label_2
_geom_bond_site_symmetry_1
_geom_bond_site_symmetry_2
Zn1 O5 1_555 1_555
Zn2 O1 1_555 1_555
Zn3 O5 1_555 1_555
O1 H17 1_555 1_555
O2 C15 1_555 1_555
O3 Zn2 1_555 1_555
O4 C10 1_555 1_555
O5 Zn2 1_555 1_555
H1 O5 1_555 1_555
O6 C8 1_555 1_555
O7 Zn3 1_555 1_555
O8 Zn2 1_555 1_555
O9 C8 1_555 1_555
O10 C15 1_555 1_555
O11 C7 1_555 1_555
C1 C3 1_555 1_555
O12 Zn3 1_555 1_555
C2 C6 1_555 1_555
C3 H2 1_555 1_555
C4 C5 1_555 1_555
C5 H3 1_555 1_555
C6 H4 1_555 1_555
C7 O7 1_555 1_555
C8 C4 1_555 1_555
C9 C10 1_555 1_555
O13 C10 1_555 1_555
C11 C2 1_555 1_555
H5 C11 1_555 1_555
C12 O3 1_555 1_555
C13 C4 1_555 1_555
H6 C13 1_555 1_555
C14 C1 1_555 1_555
H7 C14 1_555 1_555
C15 C18 1_555 1_555
C16 H8 1_555 1_555
C17 C9 1_555 1_555
H9 C17 1_555 1_555
C18 C14 1_555 1_555
O14 Zn1 1_555 1_555
O15 Zn1 1_555 1_555
C19 C13 1_555 1_555
C20 O14 1_555 1_555
C21 C19 1_555 1_555
H10 C21 1_555 1_555
C22 C5 1_555 1_555
C23 C22 1_555 1_555
C24 O8 1_555 1_555
H11 C24 1_555 1_555
H12 C24 1_555 1_555
H13 C24 1_555 1_555
C25 C26 1_555 1_555
C26 C6 1_555 1_555
C27 C28 1_555 1_555
C28 C3 1_555 1_555
C29 C23 1_555 1_555
H14 C29 1_555 1_555
C30 C25 1_555 1_555
H15 C30 1_555 1_555
C31 C27 1_555 1_555
H16 C31 1_555 1_555
H18 O1 1_555 1_555
H19 O8 1_555 1_555
O17 C32 1_555 1_555
C32 H20 1_555 1_555
H21 C32 1_555 1_555
H22 C32 1_555 1_555
H23 O17 1_555 1_555
N1 C35 1_555 1_555
C33 H24 1_555 1_555
H25 C33 1_555 1_555
H26 C33 1_555 1_555
C34 H27 1_555 1_555
H28 C34 1_555 1_555
H29 C34 1_555 1_555
C35 C33 1_555 1_555
H30 C35 1_555 1_555
H31 C35 1_555 1_555
C36 N1 1_555 1_555
H32 C36 1_555 1_555
H33 C36 1_555 1_555
C37 C38 1_555 1_555
C38 N1 1_555 1_555
H34 C38 1_555 1_555
H35 C38 1_555 1_555
Zn1_2 O13 1_555 1_555
Zn1A O10 1_555 1_555
Zn2_2 O4 1_555 1_555
Zn2B O1 1_555 1_555
Zn3A O9 1_555 1_555
O1B Zn2 1_555 1_555
O4_2 Zn2 1_555 1_555
O9A Zn3 1_555 1_555
O10A Zn1 1_555 1_555
O13_2 Zn1 1_555 1_555
C1 C7 1_555 1_555
O12 C12 1_555 1_555
C2 C12 1_555 1_555
C9 C11 1_555 1_555
C16 C18 1_555 1_555
C16 C28 1_555 1_555
C17 C26 1_555 1_555
O15 C20 1_555 1_555
C19 C20 1_555 1_555
C21 C22 1_555 1_555
C34 C36 1_555 1_555
Zn2B O1B 1_555 1_555

#END
