
#######################################################################
#
#                 Cambridge Crystallographic Data Centre
#                                CCDC 
#
#######################################################################
#
# If this CIF has been generated from an entry in the Cambridge 
# Structural Database, then it will include bibliographic, chemical, 
# crystal, experimental, refinement or atomic coordinate data resulting 
# from the CCDC's data processing and validation procedures.
#
#######################################################################

data_BOWJOM
_symmetry_cell_setting           triclinic
_symmetry_space_group_name_H-M   'P -1'
_symmetry_Int_Tables_number      2
_space_group_name_Hall           '-P 1'
loop_
_symmetry_equiv_pos_site_id
_symmetry_equiv_pos_as_xyz
1 x,y,z
2 -x,-y,-z
_cell_length_a                   8.009(5)
_cell_length_b                   5.877(4)
_cell_length_c                   13.487(13)
_cell_angle_alpha                93.648(4)
_cell_angle_beta                 101.091(3)
_cell_angle_gamma                96.897(6)
_cell_volume                     615.998
loop_
_atom_site_label
_atom_site_type_symbol
_atom_site_fract_x
_atom_site_fract_y
_atom_site_fract_z
La1 La 0.19750 0.42730 0.13650
S1 S -0.13760 -0.14660 0.09070
O1 O -0.21010 -0.21540 0.17910
O2 O -0.27790 -0.15010 0.00110
O3 O -0.03110 -0.32160 0.06330
O4 O -0.03970 0.08230 0.11510
O5 O 0.28540 0.16910 0.26390
O6 O 0.29620 -0.20550 0.23640
O7 O 0.52370 0.43190 0.17700
O8 O 0.00350 0.47460 0.26800
O9 O 0.35000 0.69290 0.02510
O10 O 0.26840 -0.13990 0.70440
C1 C 0.28670 -0.02980 0.29290
C2 C 0.27720 -0.05900 0.40110
C3 C 0.22490 0.11350 0.46010
C4 C 0.21930 0.08820 0.56080
C5 C 0.26970 -0.10810 0.60340
C6 C 0.32070 -0.28270 0.54660
C7 C 0.32610 -0.25810 0.44530
O3A O 0.03110 0.32160 -0.06330
O6_2 O 0.29620 0.79450 0.23640
La1_2 La 0.19750 -0.57270 0.13650
O2A O 0.27790 0.15010 -0.00110
O3_2 O -0.03110 0.67840 0.06330
La1A La -0.19750 -0.42730 -0.13650
loop_
_geom_bond_atom_site_label_1
_geom_bond_atom_site_label_2
_geom_bond_site_symmetry_1
_geom_bond_site_symmetry_2
La1 O4 1_555 1_555
S1 O1 1_555 1_555
O2 S1 1_555 1_555
O3 S1 1_555 1_555
O4 S1 1_555 1_555
O5 La1 1_555 1_555
O6 C1 1_555 1_555
O7 La1 1_555 1_555
O8 La1 1_555 1_555
O9 La1 1_555 1_555
O10 C5 1_555 1_555
C1 O5 1_555 1_555
C2 C1 1_555 1_555
C3 C2 1_555 1_555
C4 C3 1_555 1_555
C5 C4 1_555 1_555
C6 C5 1_555 1_555
C7 C2 1_555 1_555
O3A La1 1_555 1_555
O6_2 La1 1_555 1_555
La1_2 O3 1_555 1_555
O2A La1 1_555 1_555
O3_2 La1 1_555 1_555
La1A O2 1_555 1_555
O3 La1A 1_555 1_555
O6 La1_2 1_555 1_555
C6 C7 1_555 1_555

#END
