
#######################################################################
#
#                 Cambridge Crystallographic Data Centre
#                                CCDC 
#
#######################################################################
#
# If this CIF has been generated from an entry in the Cambridge 
# Structural Database, then it will include bibliographic, chemical, 
# crystal, experimental, refinement or atomic coordinate data resulting 
# from the CCDC's data processing and validation procedures.
#
#######################################################################

data_BOWKUU
_symmetry_cell_setting           triclinic
_symmetry_space_group_name_H-M   'P -1'
_symmetry_Int_Tables_number      2
_space_group_name_Hall           '-P 1'
loop_
_symmetry_equiv_pos_site_id
_symmetry_equiv_pos_as_xyz
1 x,y,z
2 -x,-y,-z
_cell_length_a                   7.3843(8)
_cell_length_b                   7.8665(8)
_cell_length_c                   13.7366(15)
_cell_angle_alpha                86.119(2)
_cell_angle_beta                 86.097(2)
_cell_angle_gamma                86.398(2)
_cell_volume                     792.904
loop_
_atom_site_label
_atom_site_type_symbol
_atom_site_fract_x
_atom_site_fract_y
_atom_site_fract_z
C1 C 0.9259(13) 0.6965(11) 0.8074(7)
H1 H 0.9574 0.5939 0.7791
C2 C 0.9639(12) 0.8497(12) 0.7576(7)
C3 C 0.9182(16) 1.0029(12) 0.7978(7)
H2 H 0.9444 1.1048 0.7629
C4 C 0.8315(17) 1.0048(12) 0.8924(8)
H3 H 0.8006 1.1078 0.9206
C5 C 0.5655(15) 0.6910(12) 1.1865(7)
H4 H 0.5359 0.7939 1.2150
C6 C 0.5219(12) 0.5365(11) 1.2361(7)
C7 C 0.5679(14) 0.3816(11) 1.1942(7)
H5 H 0.5382 0.2792 1.2275
C8 C 0.6575(14) 0.3821(12) 1.1033(7)
H6 H 0.6882 0.2793 1.0749
C9 C 0.8014(13) 0.5299(11) 0.9549(7)
C10 C 0.6995(15) 0.8566(12) 1.0420(8)
C11 C 0.7928(15) 0.8508(12) 0.9431(7)
C12 C 0.8397(13) 0.6976(11) 0.9009(7)
C13 C 0.7029(12) 0.5345(11) 1.0534(7)
C14 C 0.6531(13) 0.6888(11) 1.0947(7)
O1 O 1.1785(9) 0.9961(8) 0.6273(5)
O2 O 0.9171(9) 0.8713(9) 0.5729(5)
O3 O 1.1708(10) 0.6881(9) 0.6291(5)
O4 O 0.3723(9) 0.3681(8) 1.3865(5)
O5 O 0.5422(9) 0.6134(8) 1.4126(5)
O6 O 0.2503(9) 0.6551(9) 1.3453(5)
O7 O 0.6607(17) 0.9879(10) 1.0806(6)
O8 O 0.8526(12) 0.3974(9) 0.9203(5)
O9 O 1.4256(9) 0.9582(8) 0.4264(5)
O10 O 1.1060(9) 1.3620(9) 0.5777(6)
S1 S 1.0667(3) 0.8486(3) 0.63679(15)
S2 S 0.4111(3) 0.5440(3) 1.35397(16)
Yb1 Yb 1.32932(5) 1.17129(4) 0.51439(3)
H7 H 0.9935 1.3442 0.5833
H8 H 1.1479 1.4429 0.6109
H9 H 1.3373 0.9210 0.3942
O2A O 1.0829(9) 1.1287(9) 0.4271(5)
O4_2 O 1.3723(9) 1.3681(8) 0.3865(5)
O5A O 1.4578(9) 1.3866(8) 0.5874(5)
O9A O 1.5744(9) 1.0418(8) 0.5736(5)
Yb1A Yb 0.67068(5) 0.82871(4) 0.48561(3)
Yb1_2 Yb 0.32932(5) 0.17129(4) 1.51439(3)
Yb1A_2 Yb 0.67068(5) 0.82871(4) 1.48561(3)
Yb1A_3 Yb 1.67068(5) 0.82871(4) 0.48561(3)
H9A H 1.6627 1.0790 0.6058
loop_
_geom_bond_atom_site_label_1
_geom_bond_atom_site_label_2
_geom_bond_site_symmetry_1
_geom_bond_site_symmetry_2
C1 H1 1_555 1_555
C2 C1 1_555 1_555
C3 C2 1_555 1_555
H2 C3 1_555 1_555
C4 C3 1_555 1_555
H3 C4 1_555 1_555
C5 H4 1_555 1_555
C6 C5 1_555 1_555
C7 C6 1_555 1_555
H5 C7 1_555 1_555
C8 C7 1_555 1_555
H6 C8 1_555 1_555
C9 C12 1_555 1_555
C10 C11 1_555 1_555
C11 C4 1_555 1_555
C12 C1 1_555 1_555
C13 C8 1_555 1_555
C14 C5 1_555 1_555
O1 S1 1_555 1_555
O2 S1 1_555 1_555
O3 S1 1_555 1_555
O4 S2 1_555 1_555
O5 S2 1_555 1_555
O6 S2 1_555 1_555
O7 C10 1_555 1_555
O8 C9 1_555 1_555
O9 Yb1 1_555 1_555
O10 Yb1 1_555 1_555
S1 C2 1_555 1_555
S2 C6 1_555 1_555
Yb1 O1 1_555 1_555
H7 O10 1_555 1_555
H8 O10 1_555 1_555
H9 O9 1_555 1_555
O2A Yb1 1_555 1_555
O4_2 Yb1 1_555 1_555
O5A Yb1 1_555 1_555
O9A Yb1 1_555 1_555
Yb1A O2 1_555 1_555
Yb1_2 O4 1_555 1_555
Yb1A_2 O5 1_555 1_555
Yb1A_3 O9 1_555 1_555
H9A O9A 1_555 1_555
C9 C13 1_555 1_555
C10 C14 1_555 1_555
C11 C12 1_555 1_555
C13 C14 1_555 1_555
O9A Yb1A_3 1_555 1_555

#END
