
#######################################################################
#
#                 Cambridge Crystallographic Data Centre
#                                CCDC 
#
#######################################################################
#
# If this CIF has been generated from an entry in the Cambridge 
# Structural Database, then it will include bibliographic, chemical, 
# crystal, experimental, refinement or atomic coordinate data resulting 
# from the CCDC's data processing and validation procedures.
#
#######################################################################

data_BOWMEH
_symmetry_cell_setting           monoclinic
_symmetry_space_group_name_H-M   'C 2/c'
_symmetry_Int_Tables_number      15
_space_group_name_Hall           '-C 2yn'
loop_
_symmetry_equiv_pos_site_id
_symmetry_equiv_pos_as_xyz
1 x,y,z
2 -x,y,1/2-z
3 1/2+x,1/2+y,z
4 1/2-x,1/2+y,1/2-z
5 -x,-y,-z
6 x,-y,1/2+z
7 1/2-x,1/2-y,-z
8 1/2+x,1/2-y,1/2+z
_cell_length_a                   32.1540(8)
_cell_length_b                   4.87000(10)
_cell_length_c                   25.3260(7)
_cell_angle_alpha                90
_cell_angle_beta                 103.8370(10)
_cell_angle_gamma                90
_cell_volume                     3850.71
loop_
_atom_site_label
_atom_site_type_symbol
_atom_site_fract_x
_atom_site_fract_y
_atom_site_fract_z
C1 C 0.13177(4) 0.3102(3) 0.18811(5)
C2 C 0.17604(4) 0.3290(3) 0.20052(5)
H1 H 0.1903 0.4542 0.2263
C3 C 0.19872(4) 0.1572(3) 0.17372(5)
C4 C 0.17913(4) -0.0310(3) 0.13540(5)
H2 H 0.1949 -0.1446 0.1179
C5 C 0.13498(4) -0.0435(3) 0.12400(5)
C6 C 0.11070(4) 0.1222(3) 0.14948(5)
H3 H 0.0810 0.1082 0.1410
C7 C 0.10581(4) 0.4968(3) 0.21477(5)
C8 C 0.11132(4) 0.2895(2) 0.36205(5)
C9 C 0.10168(4) 0.4911(2) 0.39624(5)
H4 H 0.0741 0.5615 0.3905
C10 C 0.13382(4) 0.5848(3) 0.43886(5)
C11 C 0.17562(4) 0.4948(3) 0.44838(5)
H5 H 0.1970 0.5654 0.4766
C12 C 0.18402(4) 0.2948(3) 0.41391(5)
C13 C 0.15290(4) 0.1864(3) 0.37134(5)
H6 H 0.1596 0.0481 0.3495
C14 C 0.07614(4) 0.1865(2) 0.31556(5)
C15 C 0.00416(5) 1.0624(4) 0.39865(7)
C16 C 0.00248(9) 1.2651(4) 0.43992(11)
H7 H -0.0035 1.4423 0.4232
H8 H 0.0295 1.2706 0.4661
H9 H -0.0197 1.2169 0.4578
N1 N 0.11323(5) -0.2451(2) 0.08378(5)
N2 N 0.24585(4) 0.1744(3) 0.18803(5)
N3 N 0.22812(4) 0.1925(3) 0.42316(6)
N4 N 0.12328(6) 0.7941(3) 0.47558(5)
N5 N 0.00491(5) 0.9065(4) 0.36550(6)
O1 O 0.06722(3) 0.5132(2) 0.20021(5)
O2 O 0.12997(3) 0.6371(3) 0.25487(5)
H10 H 0.1154(8) 0.744(3) 0.2673(10)
O3 O 0.07411(5) -0.2342(3) 0.06924(7)
O4 O 0.13513(5) -0.4147(2) 0.06758(5)
O5 O 0.26252(4) 0.3663(3) 0.21563(5)
O6 O 0.26553(4) -0.0092(3) 0.17202(5)
O7 O 0.08218(3) -0.0358(2) 0.29306(5)
O8 O 0.04228(3) 0.3204(2) 0.30250(4)
O9 O 0.23355(4) -0.0311(3) 0.40405(7)
O10 O 0.25682(4) 0.3363(4) 0.44903(5)
O11 O 0.15264(5) 0.9121(3) 0.50568(5)
O12 O 0.08549(6) 0.8332(4) 0.47372(6)
Ba1 Ba 0.0000 0.756622(19) 0.2500
C1A C -0.13177(4) 0.3102(3) 0.31189(5)
C2A C -0.17604(4) 0.3290(3) 0.29948(5)
H1A H -0.1903 0.4542 0.2737
C3A C -0.19872(4) 0.1572(3) 0.32628(5)
C4A C -0.17913(4) -0.0310(3) 0.36460(5)
H2A H -0.1949 -0.1446 0.3821
C5A C -0.13498(4) -0.0435(3) 0.37600(5)
C6A C -0.11070(4) 0.1222(3) 0.35052(5)
H3A H -0.0810 0.1082 0.3590
C7A C -0.10581(4) 0.4968(3) 0.28523(5)
C8A C -0.11132(4) 0.2895(2) 0.13795(5)
C9A C -0.10168(4) 0.4911(2) 0.10376(5)
H4A H -0.0741 0.5615 0.1095
C10A C -0.13382(4) 0.5848(3) 0.06114(5)
C11A C -0.17562(4) 0.4948(3) 0.05162(5)
H5A H -0.1970 0.5654 0.0234
C12A C -0.18402(4) 0.2948(3) 0.08609(5)
C13A C -0.15290(4) 0.1864(3) 0.12866(5)
H6A H -0.1596 0.0481 0.1505
C14A C -0.07614(4) 0.1865(2) 0.18444(5)
C15A C -0.00416(5) 1.0624(4) 0.10135(7)
C16A C -0.00248(9) 1.2651(4) 0.06008(11)
H7A H 0.0035 1.4423 0.0768
H8A H -0.0295 1.2706 0.0339
H9A H 0.0197 1.2169 0.0422
N1A N -0.11323(5) -0.2451(2) 0.41622(5)
N2A N -0.24585(4) 0.1744(3) 0.31197(5)
N3A N -0.22812(4) 0.1925(3) 0.07684(6)
N4A N -0.12328(6) 0.7941(3) 0.02442(5)
N5A N -0.00491(5) 0.9065(4) 0.13450(6)
O1A O -0.06722(3) 0.5132(2) 0.29979(5)
O2A O -0.12997(3) 0.6371(3) 0.24513(5)
H10A H -0.1154(8) 0.744(3) 0.2327(10)
O3A O -0.07411(5) -0.2342(3) 0.43076(7)
O4A O -0.13513(5) -0.4147(2) 0.43242(5)
O5A O -0.26252(4) 0.3663(3) 0.28437(5)
O6A O -0.26553(4) -0.0092(3) 0.32798(5)
O7A O -0.08218(3) -0.0358(2) 0.20694(5)
O8A O -0.04228(3) 0.3204(2) 0.19750(4)
O9A O -0.23355(4) -0.0311(3) 0.09595(7)
O10A O -0.25682(4) 0.3363(4) 0.05097(5)
O11A O -0.15264(5) 0.9121(3) -0.00568(5)
O12A O -0.08549(6) 0.8332(4) 0.02628(6)
O7_2 O 0.08218(3) 0.9642(2) 0.29306(5)
O7A_2 O -0.08218(3) 0.9642(2) 0.20694(5)
O8_2 O 0.04228(3) 1.3204(2) 0.30250(4)
O8A_2 O -0.04228(3) 1.3204(2) 0.19750(4)
Ba1_2 Ba 0.0000 -0.243378(19) 0.2500
loop_
_geom_bond_atom_site_label_1
_geom_bond_atom_site_label_2
_geom_bond_site_symmetry_1
_geom_bond_site_symmetry_2
C1 C2 1_555 1_555
C2 H1 1_555 1_555
C3 C2 1_555 1_555
C4 C3 1_555 1_555
H2 C4 1_555 1_555
C5 C4 1_555 1_555
C6 C1 1_555 1_555
H3 C6 1_555 1_555
C7 C1 1_555 1_555
C8 C9 1_555 1_555
C9 H4 1_555 1_555
C10 C9 1_555 1_555
C11 C10 1_555 1_555
H5 C11 1_555 1_555
C12 C11 1_555 1_555
C13 C8 1_555 1_555
H6 C13 1_555 1_555
C14 C8 1_555 1_555
C15 C16 1_555 1_555
C16 H7 1_555 1_555
H8 C16 1_555 1_555
H9 C16 1_555 1_555
N1 C5 1_555 1_555
N2 C3 1_555 1_555
N3 C12 1_555 1_555
N4 C10 1_555 1_555
N5 C15 1_555 1_555
O1 C7 1_555 1_555
O2 C7 1_555 1_555
H10 O2 1_555 1_555
O3 N1 1_555 1_555
O4 N1 1_555 1_555
O5 N2 1_555 1_555
O6 N2 1_555 1_555
O7 C14 1_555 1_555
O8 C14 1_555 1_555
O9 N3 1_555 1_555
O10 N3 1_555 1_555
O11 N4 1_555 1_555
O12 N4 1_555 1_555
Ba1 N5 1_555 1_555
C1A C2A 1_555 1_555
C2A H1A 1_555 1_555
C3A C2A 1_555 1_555
C4A C3A 1_555 1_555
H2A C4A 1_555 1_555
C5A C4A 1_555 1_555
C6A C1A 1_555 1_555
H3A C6A 1_555 1_555
C7A C1A 1_555 1_555
C8A C9A 1_555 1_555
C9A H4A 1_555 1_555
C10A C9A 1_555 1_555
C11A C10A 1_555 1_555
H5A C11A 1_555 1_555
C12A C11A 1_555 1_555
C13A C8A 1_555 1_555
H6A C13A 1_555 1_555
C14A C8A 1_555 1_555
C15A C16A 1_555 1_555
C16A H7A 1_555 1_555
H8A C16A 1_555 1_555
H9A C16A 1_555 1_555
N1A C5A 1_555 1_555
N2A C3A 1_555 1_555
N3A C12A 1_555 1_555
N4A C10A 1_555 1_555
N5A Ba1 1_555 1_555
O1A Ba1 1_555 1_555
O2A C7A 1_555 1_555
H10A O2A 1_555 1_555
O3A N1A 1_555 1_555
O4A N1A 1_555 1_555
O5A N2A 1_555 1_555
O6A N2A 1_555 1_555
O7A C14A 1_555 1_555
O8A Ba1 1_555 1_555
O9A N3A 1_555 1_555
O10A N3A 1_555 1_555
O11A N4A 1_555 1_555
O12A N4A 1_555 1_555
O7_2 Ba1 1_555 1_555
O7A_2 Ba1 1_555 1_555
O8_2 Ba1 1_555 1_555
O8A_2 Ba1 1_555 1_555
Ba1_2 O7 1_555 1_555
C5 C6 1_555 1_555
C12 C13 1_555 1_555
O1 Ba1 1_555 1_555
O8 Ba1 1_555 1_555
O8 Ba1_2 1_555 1_555
C5A C6A 1_555 1_555
C7A O1A 1_555 1_555
C12A C13A 1_555 1_555
C14A O8A 1_555 1_555
C15A N5A 1_555 1_555
O7A Ba1_2 1_555 1_555
O8A Ba1_2 1_555 1_555

#END
