
#######################################################################
#
#                 Cambridge Crystallographic Data Centre
#                                CCDC 
#
#######################################################################
#
# If this CIF has been generated from an entry in the Cambridge 
# Structural Database, then it will include bibliographic, chemical, 
# crystal, experimental, refinement or atomic coordinate data resulting 
# from the CCDC's data processing and validation procedures.
#
#######################################################################

data_BOWNUX
_symmetry_cell_setting           monoclinic
_symmetry_space_group_name_H-M   'C 2/c'
_symmetry_Int_Tables_number      15
_space_group_name_Hall           '-C 2yn'
loop_
_symmetry_equiv_pos_site_id
_symmetry_equiv_pos_as_xyz
1 x,y,z
2 -x,y,1/2-z
3 1/2+x,1/2+y,z
4 1/2-x,1/2+y,1/2-z
5 -x,-y,-z
6 x,-y,1/2+z
7 1/2-x,1/2-y,-z
8 1/2+x,1/2-y,1/2+z
_cell_length_a                   33.93(12)
_cell_length_b                   13.31(5)
_cell_length_c                   20.23(8)
_cell_angle_alpha                90
_cell_angle_beta                 116.13(17)
_cell_angle_gamma                90
_cell_volume                     8202.31
loop_
_atom_site_label
_atom_site_type_symbol
_atom_site_fract_x
_atom_site_fract_y
_atom_site_fract_z
Co1 Co 0.667634(17) 0.19391(4) 0.00328(3)
Co2 Co 0.588765(16) 0.03235(4) 0.01423(3)
C1 C 0.77747(13) 0.4555(3) 0.0547(2)
H1 H 0.7982 0.5049 0.0608
O1 O 0.57694(8) 0.17407(19) 0.03996(15)
O2 O 0.64817(9) 0.0046(2) 0.10337(16)
O3 O 0.61764(9) 0.0843(2) -0.05625(15)
N1 N 0.71665(10) 0.3111(2) 0.03883(18)
O4 O 0.69901(9) 0.1094(2) 0.09657(16)
N2 N 0.78072(10) 0.3662(2) 0.02593(18)
N3 N 0.51852(10) 0.0412(2) -0.06825(18)
O5 O 0.58039(9) 0.2062(2) -0.16672(15)
O6 O 0.64686(10) 0.2724(2) -0.09607(17)
O7 O 0.63592(10) -0.0988(2) -0.07765(19)
N4 N 0.44597(10) 0.0182(2) -0.07695(18)
O8 O 0.58964(10) -0.1121(2) -0.02416(19)
O9 O 0.62827(9) 0.27880(19) 0.03631(17)
C2 C 0.61060(15) 0.2713(3) -0.1541(3)
C3 C 0.74950(12) 0.2989(3) 0.0186(2)
C4 C 0.71430(13) 0.4015(3) 0.0677(2)
H2 H 0.6923 0.4133 0.0825
C5 C 0.74451(13) 0.4771(3) 0.0754(2)
H3 H 0.7426 0.5399 0.0940
C6 C 0.59269(13) 0.2601(3) 0.0412(2)
C7 C 0.48996(12) 0.0158(3) -0.0398(2)
C8 C 0.56529(16) 0.3517(3) 0.0449(3)
C9 C 0.50049(14) 0.0712(4) -0.1396(2)
H4 H 0.5189 0.0896 -0.1607
C10 C 0.72547(14) -0.0262(4) 0.1845(3)
C11 C 0.60272(15) 0.3535(3) -0.2134(3)
C12 C 0.61532(15) -0.1502(3) -0.0481(3)
C13 C 0.68772(13) 0.0351(3) 0.1233(2)
C14 C 0.42898(13) 0.0478(3) -0.1478(2)
H5 H 0.3986 0.0500 -0.1750
C15 C 0.45549(15) 0.0753(4) -0.1819(3)
H6 H 0.4433 0.0954 -0.2309
C16 C 0.62133(19) -0.2663(3) -0.0414(3)
C17 C 0.6265(3) -0.2991(4) 0.0374(4)
H7 H 0.6529 -0.2706 0.0747
H8 H 0.6281 -0.3711 0.0412
H9 H 0.6017 -0.2757 0.0440
C18 C 0.6285(2) 0.4475(4) -0.1749(3)
H10 H 0.6589 0.4305 -0.1472
H11 H 0.6173 0.4735 -0.1424
H12 H 0.6256 0.4974 -0.2111
C19 C 0.70746(16) -0.1010(4) 0.2233(3)
H13 H 0.6877 -0.1473 0.1877
H14 H 0.6921 -0.0646 0.2458
H15 H 0.7314 -0.1374 0.2604
C20 C 0.66303(18) -0.2993(4) -0.0512(4)
H16 H 0.6889 -0.2723 -0.0117
H17 H 0.6607 -0.2743 -0.0973
H18 H 0.6648 -0.3713 -0.0507
C21 C 0.75800(15) 0.0458(4) 0.2419(3)
H19 H 0.7697 0.0913 0.2182
H20 H 0.7815 0.0078 0.2787
H21 H 0.7431 0.0832 0.2648
C22 C 0.6253(2) 0.3179(4) -0.2623(3)
H22 H 0.6560 0.3073 -0.2318
H23 H 0.6216 0.3684 -0.2985
H24 H 0.6120 0.2563 -0.2866
C23 C 0.57953(19) -0.3084(4) -0.1042(5)
H25 H 0.5812 -0.3804 -0.1045
H26 H 0.5767 -0.2824 -0.1503
H27 H 0.5544 -0.2887 -0.0971
C24 C 0.74866(18) -0.0830(5) 0.1438(3)
H28 H 0.7283 -0.1289 0.1087
H29 H 0.7734 -0.1197 0.1789
H30 H 0.7585 -0.0354 0.1187
C25 C 0.55522(19) 0.3728(6) -0.2597(4)
H31 H 0.5518 0.4240 -0.2952
H32 H 0.5419 0.3948 -0.2289
H33 H 0.5412 0.3121 -0.2846
C27 C 0.5923(10) 0.4429(17) 0.067(2)
H38 H 0.5748 0.4981 0.0701
H39 H 0.6032 0.4580 0.0321
H40 H 0.6165 0.4325 0.1149
C28 C 0.5475(8) 0.3265(14) 0.1043(12)
H41 H 0.5295 0.2673 0.0894
H42 H 0.5304 0.3819 0.1078
H43 H 0.5719 0.3151 0.1514
C29 C 0.5267(10) 0.3597(19) -0.0303(10)
H44 H 0.5104 0.2979 -0.0417
H45 H 0.5372 0.3724 -0.0665
H46 H 0.5080 0.4139 -0.0304
H47 H 0.627(3) 0.034(4) -0.071(5)
H48 H 0.607(3) 0.113(6) -0.098(2)
Co1F Co 0.832366(17) 0.30609(4) -0.00328(3)
Co2F Co 0.911235(16) 0.46765(4) -0.01423(3)
Co2D Co 0.411235(16) -0.03235(4) -0.01423(3)
C1F C 0.72253(13) 0.0445(3) -0.0547(2)
H1F H 0.7018 -0.0049 -0.0608
O1F O 0.92306(8) 0.32593(19) -0.03996(15)
O2F O 0.85183(9) 0.4954(2) -0.10337(16)
O3F O 0.88236(9) 0.4157(2) 0.05625(15)
N1F N 0.78335(10) 0.1889(2) -0.03883(18)
O4F O 0.80099(9) 0.3906(2) -0.09657(16)
N2F N 0.71928(10) 0.1338(2) -0.02593(18)
N3D N 0.48148(10) -0.0412(2) 0.06825(18)
N3F N 0.98148(10) 0.4588(2) 0.06825(18)
O5F O 0.91961(9) 0.2938(2) 0.16672(15)
O6F O 0.85314(10) 0.2276(2) 0.09607(17)
O7F O 0.86408(10) 0.5988(2) 0.07765(19)
N4D N 0.55403(10) -0.0182(2) 0.07695(18)
N4B N 0.94597(10) 0.5182(2) -0.07695(18)
O8F O 0.91036(10) 0.6121(2) 0.02416(19)
O9F O 0.87173(9) 0.22120(19) -0.03631(17)
C2F C 0.88940(15) 0.2287(3) 0.1541(3)
C3F C 0.75050(12) 0.2011(3) -0.0186(2)
C4F C 0.78570(13) 0.0985(3) -0.0677(2)
H2F H 0.8077 0.0867 -0.0825
C5F C 0.75549(13) 0.0229(3) -0.0754(2)
H3F H 0.7574 -0.0399 -0.0940
C6F C 0.90731(13) 0.2399(3) -0.0412(2)
C7D C 0.51004(12) -0.0158(3) 0.0398(2)
C8F C 0.93471(16) 0.1483(3) -0.0449(3)
C9D C 0.49951(14) -0.0712(4) 0.1396(2)
H4D H 0.4811 -0.0896 0.1607
C10F C 0.77453(14) 0.5262(4) -0.1845(3)
C11F C 0.89728(15) 0.1465(3) 0.2134(3)
C12F C 0.88468(15) 0.6502(3) 0.0481(3)
C13F C 0.81228(13) 0.4649(3) -0.1233(2)
C14D C 0.57102(13) -0.0478(3) 0.1478(2)
H5D H 0.6014 -0.0500 0.1750
C15D C 0.54451(15) -0.0753(4) 0.1819(3)
H6D H 0.5567 -0.0954 0.2309
C16F C 0.87867(19) 0.7663(3) 0.0414(3)
C17F C 0.8735(3) 0.7991(4) -0.0374(4)
H7F H 0.8471 0.7706 -0.0747
H8F H 0.8719 0.8711 -0.0412
H9F H 0.8983 0.7757 -0.0440
C18F C 0.8715(2) 0.0525(4) 0.1749(3)
H10F H 0.8411 0.0695 0.1472
H11F H 0.8827 0.0265 0.1424
H12F H 0.8744 0.0026 0.2111
C19F C 0.79254(16) 0.6010(4) -0.2233(3)
H13F H 0.8123 0.6473 -0.1877
H14F H 0.8079 0.5646 -0.2458
H15F H 0.7686 0.6374 -0.2604
C20F C 0.83697(18) 0.7993(4) 0.0512(4)
H16F H 0.8111 0.7723 0.0117
H17F H 0.8393 0.7743 0.0973
H18F H 0.8352 0.8713 0.0507
C21F C 0.74200(15) 0.4542(4) -0.2419(3)
H19F H 0.7303 0.4087 -0.2182
H20F H 0.7185 0.4922 -0.2787
H21F H 0.7569 0.4168 -0.2648
C22F C 0.8747(2) 0.1821(4) 0.2623(3)
H22F H 0.8440 0.1927 0.2318
H23F H 0.8784 0.1316 0.2985
H24F H 0.8880 0.2437 0.2866
C23F C 0.92047(19) 0.8084(4) 0.1042(5)
H25F H 0.9188 0.8804 0.1045
H26F H 0.9233 0.7824 0.1503
H27F H 0.9456 0.7887 0.0971
C24F C 0.75134(18) 0.5830(5) -0.1438(3)
H28F H 0.7717 0.6289 -0.1087
H29F H 0.7266 0.6197 -0.1789
H30F H 0.7415 0.5354 -0.1187
C25F C 0.94478(19) 0.1272(6) 0.2597(4)
H31F H 0.9482 0.0760 0.2952
H32F H 0.9581 0.1052 0.2289
H33F H 0.9588 0.1879 0.2846
C27F C 0.9077(10) 0.0571(17) -0.067(2)
H38F H 0.9252 0.0019 -0.0701
H39F H 0.8968 0.0420 -0.0321
H40F H 0.8835 0.0675 -0.1149
C28F C 0.9525(8) 0.1735(14) -0.1043(12)
H41F H 0.9705 0.2327 -0.0894
H42F H 0.9696 0.1181 -0.1078
H43F H 0.9281 0.1849 -0.1514
C29F C 0.9733(10) 0.1403(19) 0.0303(10)
H44F H 0.9896 0.2021 0.0417
H45F H 0.9628 0.1276 0.0665
H46F H 0.9920 0.0861 0.0304
H47F H 0.873(3) 0.466(4) 0.071(5)
H48F H 0.893(3) 0.387(6) 0.098(2)
O10 O 0.66098(18) -0.1067(4) -0.1958(3)
H34 H 0.6404 -0.0823 -0.1903
C26 C 0.6454(2) -0.1772(5) -0.2509(3)
H35 H 0.6628 -0.1763 -0.2775
H36 H 0.6154 -0.1622 -0.2839
H37 H 0.6470 -0.2426 -0.2298
O11 O 0.5293(8) -0.0859(18) -0.2111(15)
C30? C 0.5922(10) 0.425(2) 0.1048(13)
C31? C 0.5227(9) 0.3232(14) 0.044(3)
C32? C 0.5528(8) 0.4102(16) -0.0333(9)
H49? H 0.6176 0.4446 0.0986
H50? H 0.6014 0.3932 0.1519
H51? H 0.5748 0.4829 0.1019
H52? H 0.5073 0.2778 0.0040
H53? H 0.5052 0.3824 0.0379
H54? H 0.5280 0.2910 0.0896
H55? H 0.5791 0.4353 -0.0341
H56? H 0.5334 0.4652 -0.0381
H57? H 0.5385 0.3642 -0.0735
O12? O 0.4962(14) -0.1566(16) -0.2287(16)
loop_
_geom_bond_atom_site_label_1
_geom_bond_atom_site_label_2
_geom_bond_site_symmetry_1
_geom_bond_site_symmetry_2
Co1 O3 1_555 1_555
Co2 O1 1_555 1_555
C1 H1 1_555 1_555
O1 C6 1_555 1_555
O2 Co2 1_555 1_555
O3 Co2 1_555 1_555
N1 Co1 1_555 1_555
O4 Co1 1_555 1_555
N2 C1 1_555 1_555
N3 Co2 1_555 1_555
O5 C2 1_555 1_555
O6 Co1 1_555 1_555
O7 C12 1_555 1_555
N4 C7 1_555 1_555
O8 Co2 1_555 1_555
O9 Co1 1_555 1_555
C2 O6 1_555 1_555
C3 N1 1_555 1_555
C4 N1 1_555 1_555
H2 C4 1_555 1_555
C5 C1 1_555 1_555
H3 C5 1_555 1_555
C6 O9 1_555 1_555
C7 N3 1_555 1_555
C8 C6 1_555 1_555
C9 N3 1_555 1_555
H4 C9 1_555 1_555
C10 C13 1_555 1_555
C11 C2 1_555 1_555
C12 O8 1_555 1_555
C13 O2 1_555 1_555
C14 N4 1_555 1_555
H5 C14 1_555 1_555
C15 C9 1_555 1_555
H6 C15 1_555 1_555
C16 C12 1_555 1_555
C17 C16 1_555 1_555
H7 C17 1_555 1_555
H8 C17 1_555 1_555
H9 C17 1_555 1_555
C18 C11 1_555 1_555
H10 C18 1_555 1_555
H11 C18 1_555 1_555
H12 C18 1_555 1_555
C19 C10 1_555 1_555
H13 C19 1_555 1_555
H14 C19 1_555 1_555
H15 C19 1_555 1_555
C20 C16 1_555 1_555
H16 C20 1_555 1_555
H17 C20 1_555 1_555
H18 C20 1_555 1_555
C21 C10 1_555 1_555
H19 C21 1_555 1_555
H20 C21 1_555 1_555
H21 C21 1_555 1_555
C22 C11 1_555 1_555
H22 C22 1_555 1_555
H23 C22 1_555 1_555
H24 C22 1_555 1_555
C23 C16 1_555 1_555
H25 C23 1_555 1_555
H26 C23 1_555 1_555
H27 C23 1_555 1_555
C24 C10 1_555 1_555
H28 C24 1_555 1_555
H29 C24 1_555 1_555
H30 C24 1_555 1_555
C25 C11 1_555 1_555
H31 C25 1_555 1_555
H32 C25 1_555 1_555
H33 C25 1_555 1_555
O10 H34 1_555 1_555
C26 O10 1_555 1_555
H35 C26 1_555 1_555
H36 C26 1_555 1_555
H37 C26 1_555 1_555
C27 C8 1_555 1_555
H38 C27 1_555 1_555
H39 C27 1_555 1_555
H40 C27 1_555 1_555
C28 C8 1_555 1_555
H41 C28 1_555 1_555
H42 C28 1_555 1_555
H43 C28 1_555 1_555
C29 C8 1_555 1_555
H44 C29 1_555 1_555
H45 C29 1_555 1_555
H46 C29 1_555 1_555
H47 O3 1_555 1_555
H48 O3 1_555 1_555
Co1F N2 1_555 1_555
Co2F O1F 1_555 1_555
Co2D N4 1_555 1_555
C1F H1F 1_555 1_555
O1F C6F 1_555 1_555
O2F Co2F 1_555 1_555
O3F Co1F 1_555 1_555
N1F Co1F 1_555 1_555
O4F Co1F 1_555 1_555
N2F Co1 1_555 1_555
N3D Co2D 1_555 1_555
N3F Co2F 1_555 1_555
O5F C2F 1_555 1_555
O6F Co1F 1_555 1_555
O7F C12F 1_555 1_555
N4D Co2 1_555 1_555
N4B Co2F 1_555 1_555
O8F Co2F 1_555 1_555
O9F Co1F 1_555 1_555
C2F O6F 1_555 1_555
C3F C3 1_555 1_555
C4F N1F 1_555 1_555
H2F C4F 1_555 1_555
C5F C1F 1_555 1_555
H3F C5F 1_555 1_555
C6F O9F 1_555 1_555
C7D C7 1_555 1_555
C8F C6F 1_555 1_555
C9D N3D 1_555 1_555
H4D C9D 1_555 1_555
C10F C13F 1_555 1_555
C11F C2F 1_555 1_555
C12F O8F 1_555 1_555
C13F O2F 1_555 1_555
C14D N4D 1_555 1_555
H5D C14D 1_555 1_555
C15D C9D 1_555 1_555
H6D C15D 1_555 1_555
C16F C12F 1_555 1_555
C17F C16F 1_555 1_555
H7F C17F 1_555 1_555
H8F C17F 1_555 1_555
H9F C17F 1_555 1_555
C18F C11F 1_555 1_555
H10F C18F 1_555 1_555
H11F C18F 1_555 1_555
H12F C18F 1_555 1_555
C19F C10F 1_555 1_555
H13F C19F 1_555 1_555
H14F C19F 1_555 1_555
H15F C19F 1_555 1_555
C20F C16F 1_555 1_555
H16F C20F 1_555 1_555
H17F C20F 1_555 1_555
H18F C20F 1_555 1_555
C21F C10F 1_555 1_555
H19F C21F 1_555 1_555
H20F C21F 1_555 1_555
H21F C21F 1_555 1_555
C22F C11F 1_555 1_555
H22F C22F 1_555 1_555
H23F C22F 1_555 1_555
H24F C22F 1_555 1_555
C23F C16F 1_555 1_555
H25F C23F 1_555 1_555
H26F C23F 1_555 1_555
H27F C23F 1_555 1_555
C24F C10F 1_555 1_555
H28F C24F 1_555 1_555
H29F C24F 1_555 1_555
H30F C24F 1_555 1_555
C25F C11F 1_555 1_555
H31F C25F 1_555 1_555
H32F C25F 1_555 1_555
H33F C25F 1_555 1_555
C27F C8F 1_555 1_555
H38F C27F 1_555 1_555
H39F C27F 1_555 1_555
H40F C27F 1_555 1_555
C28F C8F 1_555 1_555
H41F C28F 1_555 1_555
H42F C28F 1_555 1_555
H43F C28F 1_555 1_555
C29F C8F 1_555 1_555
H44F C29F 1_555 1_555
H45F C29F 1_555 1_555
H46F C29F 1_555 1_555
H47F O3F 1_555 1_555
H48F O3F 1_555 1_555
O4 C13 1_555 1_555
N2 C3 1_555 1_555
C4 C5 1_555 1_555
C14 C15 1_555 1_555
Co2F O3F 1_555 1_555
C1F N2F 1_555 1_555
N1F C3F 1_555 1_555
O4F C13F 1_555 1_555
N2F C3F 1_555 1_555
N3D C7D 1_555 1_555
N4D C7D 1_555 1_555
C4F C5F 1_555 1_555
C14D C15D 1_555 1_555

#END
