
#######################################################################
#
#                 Cambridge Crystallographic Data Centre
#                                CCDC 
#
#######################################################################
#
# If this CIF has been generated from an entry in the Cambridge 
# Structural Database, then it will include bibliographic, chemical, 
# crystal, experimental, refinement or atomic coordinate data resulting 
# from the CCDC's data processing and validation procedures.
#
#######################################################################

data_BOWQAG
_symmetry_cell_setting           monoclinic
_symmetry_space_group_name_H-M   'P 21/c'
_symmetry_Int_Tables_number      14
_space_group_name_Hall           '-P 2ybc'
loop_
_symmetry_equiv_pos_site_id
_symmetry_equiv_pos_as_xyz
1 x,y,z
2 -x,1/2+y,1/2-z
3 -x,-y,-z
4 x,1/2-y,1/2+z
_cell_length_a                   6.7186(13)
_cell_length_b                   17.082(3)
_cell_length_c                   17.352(4)
_cell_angle_alpha                90
_cell_angle_beta                 98.77(3)
_cell_angle_gamma                90
_cell_volume                     1968.16
loop_
_atom_site_label
_atom_site_type_symbol
_atom_site_fract_x
_atom_site_fract_y
_atom_site_fract_z
Zn1 Zn -0.27804(4) 1.481687(15) -0.296119(14)
N1 N -0.3620(3) 1.48812(11) -0.18944(11)
N2 N -0.5255(3) 1.48680(11) -0.37879(11)
N3 N -0.0995(3) 1.57083(11) -0.30878(11)
N4 N -0.1445(3) 1.62392(12) -0.36381(12)
N5 N 0.0060(3) 1.67526(12) -0.35766(12)
N6 N 0.0795(3) 1.58524(12) -0.26520(12)
N7 N 1.1415(3) 1.87997(11) -0.19413(11)
N8 N 1.1963(3) 1.82468(12) -0.14189(12)
N9 N 1.0501(3) 1.77109(12) -0.14851(12)
N10 N 0.9608(3) 1.86443(12) -0.23589(12)
C1 C -0.5458(3) 1.46736(14) -0.17615(14)
H1 H -0.6407 1.4496 -0.2188
C2 C -0.6033(3) 1.47055(14) -0.10358(14)
H2 H -0.7348 1.4542 -0.0970
C3 C -0.4712(3) 1.49748(13) -0.03962(13)
C4 C -0.2803(3) 1.51990(14) -0.05408(14)
H3 H -0.1838 1.5389 -0.0126
C5 C -0.2313(3) 1.51459(14) -0.12784(14)
H4 H -0.1003 1.5301 -0.1360
C6 C -0.5866(3) 1.55385(14) -0.41528(14)
H5 H -0.5006 1.5982 -0.4077
C7 C -0.7695(3) 1.56092(14) -0.46336(14)
H6 H -0.8072 1.6096 -0.4878
C8 C -0.8988(3) 1.49689(13) -0.47605(13)
C9 C -0.8298(3) 1.42653(14) -0.44067(14)
H7 H -0.9094 1.3805 -0.4494
C10 C -0.6457(3) 1.42390(14) -0.39294(14)
H8 H -0.6020 1.3756 -0.3691
C11 C 0.1413(3) 1.64993(13) -0.29717(13)
C12 C 0.3369(3) 1.68813(13) -0.27274(13)
C13 C 0.4521(3) 1.67121(13) -0.20065(14)
H9 H 0.4023 1.6357 -0.1660
C14 C 0.4113(3) 1.74011(14) -0.32301(14)
H10 H 0.3331 1.7522 -0.3719
C15 C 0.9085(3) 1.79693(13) -0.20639(14)
C16 C 0.7135(3) 1.75756(13) -0.22985(14)
C17 C 0.5992(3) 1.77445(14) -0.30219(14)
H11 H 0.6500 1.8094 -0.3371
C18 C 0.6385(3) 1.70605(13) -0.17959(14)
H12 H 0.7156 1.6946 -0.1303
Zn1B Zn -0.72196(4) 1.518313(15) 0.296119(14)
Zn1A Zn 1.27804(4) 1.981687(15) -0.203881(14)
Zn1B_2 Zn -1.72196(4) 1.518313(15) -0.703881(14)
Zn1A_2 Zn 1.27804(4) 0.981687(15) -0.203881(14)
N1B N -0.6380(3) 1.51188(11) 0.18944(11)
N2B N -1.4745(3) 1.51320(11) -0.62121(11)
N2B_2 N -0.4745(3) 1.51320(11) 0.37879(11)
N3A N 1.0995(3) 1.07083(11) -0.19122(11)
N3B N -0.9005(3) 1.42917(11) 0.30878(11)
N4A N 1.1445(3) 1.12392(12) -0.13619(12)
N5A N 0.9940(3) 1.17526(12) -0.14234(12)
N6A N 0.9205(3) 1.08524(12) -0.23480(12)
N7A N -0.1415(3) 1.37997(11) -0.30587(11)
N7C N -0.8585(3) 1.62003(11) 0.30587(11)
N8A N -0.1963(3) 1.32468(12) -0.35811(12)
N9A N -0.0501(3) 1.27109(12) -0.35149(12)
N10A N 0.0392(3) 1.36443(12) -0.26411(12)
C1B C -0.4542(3) 1.53264(14) 0.17615(14)
H1B H -0.3593 1.5504 0.2188
C2B C -0.3967(3) 1.52945(14) 0.10358(14)
H2B H -0.2652 1.5458 0.0970
C3B C -0.5288(3) 1.50252(13) 0.03962(13)
C4B C -0.7197(3) 1.48010(14) 0.05408(14)
H3B H -0.8162 1.4611 0.0126
C5B C -0.7687(3) 1.48541(14) 0.12784(14)
H4B H -0.8997 1.4699 0.1360
C6B C -1.4134(3) 1.44615(14) -0.58472(14)
H5B H -1.4994 1.4018 -0.5923
C7B C -1.2305(3) 1.43908(14) -0.53664(14)
H6B H -1.1928 1.3904 -0.5122
C8B C -1.1012(3) 1.50311(13) -0.52395(13)
C9B C -1.1702(3) 1.57347(14) -0.55933(14)
H7B H -1.0906 1.6195 -0.5506
C10B C -1.3543(3) 1.57610(14) -0.60706(14)
H8B H -1.3980 1.6244 -0.6309
C11A C 0.8587(3) 1.14993(13) -0.20283(13)
C12A C 0.6631(3) 1.18813(13) -0.22726(13)
C13A C 0.5479(3) 1.17121(13) -0.29935(14)
H9A H 0.5977 1.1357 -0.3340
C14A C 0.5887(3) 1.24011(14) -0.17699(14)
H10A H 0.6669 1.2522 -0.1281
C15A C 0.0915(3) 1.29693(13) -0.29361(14)
C16A C 0.2865(3) 1.25756(13) -0.27015(14)
C17A C 0.4008(3) 1.27445(14) -0.19781(14)
H11A H 0.3500 1.3094 -0.1629
C18A C 0.3615(3) 1.20605(13) -0.32041(14)
H12A H 0.2844 1.1946 -0.3697
O1 O -0.1263(3) 1.13669(11) -0.45152(11)
H14 H -0.2397 1.1574 -0.4763
H16 H -0.0968 1.1759 -0.4140
O2 O -0.1476(3) 1.80189(14) -0.45824(13)
H13 H -0.0444 1.8182 -0.4862
H17 H -0.0876 1.7614 -0.4260
O3 O -0.5469(3) 1.76341(16) -0.50498(12)
H15 H -0.4089 1.7719 -0.4987
H18 H -0.5563 1.7347 -0.5440
loop_
_geom_bond_atom_site_label_1
_geom_bond_atom_site_label_2
_geom_bond_site_symmetry_1
_geom_bond_site_symmetry_2
Zn1 N1 1_555 1_555
N1 C1 1_555 1_555
N2 Zn1 1_555 1_555
N3 Zn1 1_555 1_555
N4 N3 1_555 1_555
N5 N4 1_555 1_555
N6 N3 1_555 1_555
N7 N8 1_555 1_555
N8 N9 1_555 1_555
N9 C15 1_555 1_555
N10 N7 1_555 1_555
C1 H1 1_555 1_555
C2 C1 1_555 1_555
H2 C2 1_555 1_555
C3 C2 1_555 1_555
C4 C3 1_555 1_555
H3 C4 1_555 1_555
C5 N1 1_555 1_555
H4 C5 1_555 1_555
C6 N2 1_555 1_555
H5 C6 1_555 1_555
C7 C6 1_555 1_555
H6 C7 1_555 1_555
C8 C7 1_555 1_555
C9 C8 1_555 1_555
H7 C9 1_555 1_555
C10 N2 1_555 1_555
H8 C10 1_555 1_555
C11 N5 1_555 1_555
C12 C11 1_555 1_555
C13 C12 1_555 1_555
H9 C13 1_555 1_555
C14 C12 1_555 1_555
H10 C14 1_555 1_555
C15 N10 1_555 1_555
C16 C15 1_555 1_555
C17 C14 1_555 1_555
H11 C17 1_555 1_555
C18 C13 1_555 1_555
H12 C18 1_555 1_555
O1 H14 1_555 1_555
O2 H13 1_555 1_555
O3 H15 1_555 1_555
H16 O1 1_555 1_555
H17 O2 1_555 1_555
H18 O3 1_555 1_555
Zn1B N1B 1_555 1_555
Zn1A N7 1_555 1_555
Zn1B_2 N2B 1_555 1_555
Zn1A_2 N3A 1_555 1_555
N1B C1B 1_555 1_555
N2B C6B 1_555 1_555
N2B_2 Zn1B 1_555 1_555
N3A N4A 1_555 1_555
N3B Zn1B 1_555 1_555
N4A N5A 1_555 1_555
N5A C11A 1_555 1_555
N6A N3A 1_555 1_555
N7A Zn1 1_555 1_555
N7C Zn1B 1_555 1_555
N8A N7A 1_555 1_555
N9A N8A 1_555 1_555
N10A N7A 1_555 1_555
C1B H1B 1_555 1_555
C2B C1B 1_555 1_555
H2B C2B 1_555 1_555
C3B C3 1_555 1_555
C4B C3B 1_555 1_555
H3B C4B 1_555 1_555
C5B N1B 1_555 1_555
H4B C5B 1_555 1_555
C6B H5B 1_555 1_555
C7B C6B 1_555 1_555
H6B C7B 1_555 1_555
C8B C8 1_555 1_555
C9B C8B 1_555 1_555
H7B C9B 1_555 1_555
C10B N2B 1_555 1_555
H8B C10B 1_555 1_555
C11A N6A 1_555 1_555
C12A C11A 1_555 1_555
C13A C12A 1_555 1_555
H9A C13A 1_555 1_555
C14A C12A 1_555 1_555
H10A C14A 1_555 1_555
C15A N9A 1_555 1_555
C16A C15A 1_555 1_555
C17A C14A 1_555 1_555
H11A C17A 1_555 1_555
C18A C13A 1_555 1_555
H12A C18A 1_555 1_555
N6 C11 1_555 1_555
C4 C5 1_555 1_555
C9 C10 1_555 1_555
C16 C17 1_555 1_555
C16 C18 1_555 1_555
N10A C15A 1_555 1_555
C2B C3B 1_555 1_555
C4B C5B 1_555 1_555
C7B C8B 1_555 1_555
C9B C10B 1_555 1_555
C16A C17A 1_555 1_555
C16A C18A 1_555 1_555

#END
