
#######################################################################
#
#                 Cambridge Crystallographic Data Centre
#                                CCDC 
#
#######################################################################
#
# If this CIF has been generated from an entry in the Cambridge 
# Structural Database, then it will include bibliographic, chemical, 
# crystal, experimental, refinement or atomic coordinate data resulting 
# from the CCDC's data processing and validation procedures.
#
#######################################################################

data_BOWQUA
_symmetry_cell_setting           triclinic
_symmetry_space_group_name_H-M   'P -1'
_symmetry_Int_Tables_number      2
_space_group_name_Hall           '-P 1'
loop_
_symmetry_equiv_pos_site_id
_symmetry_equiv_pos_as_xyz
1 x,y,z
2 -x,-y,-z
_cell_length_a                   11.5827(11)
_cell_length_b                   12.5041(13)
_cell_length_c                   14.8118(18)
_cell_angle_alpha                70.2560(10)
_cell_angle_beta                 69.9580(10)
_cell_angle_gamma                88.632(2)
_cell_volume                     1886.55
loop_
_atom_site_label
_atom_site_type_symbol
_atom_site_fract_x
_atom_site_fract_y
_atom_site_fract_z
Eu1 Eu 0.715920(14) 0.693340(14) 0.743400(13)
N1 N 0.4525(3) 0.9445(3) 0.6941(3)
H1 H 0.3890 0.9740 0.6823
N2 N 0.4631(4) 1.0897(3) 0.8643(3)
N3 N 0.0466(2) 1.5334(2) 0.7276(2)
H2 H 0.0918 1.4891 0.7562
N4 N -0.1529(3) 1.3775(2) 0.7449(2)
N5 N 0.6761(3) 0.5514(3) 0.6324(2)
N6 N 0.5492(3) 0.6676(2) 0.9518(2)
N7 N 0.8415(3) 0.9204(3) 0.6273(3)
O1 O 0.2408(2) 0.8970(2) 0.6778(2)
O2 O 0.1869(2) 1.1008(2) 0.7067(2)
O3 O 0.2416(2) 1.3273(2) 0.7878(2)
O4 O 0.2124(2) 1.5338(2) 0.80985(19)
O5 O 0.5759(2) 0.8056(2) 0.6854(2)
O6 O -0.07934(19) 1.67144(19) 0.73484(17)
O7 O 0.7726(2) 0.6194(2) 0.60328(19)
O8 O 0.5936(2) 0.5494(2) 0.7140(2)
O9 O 0.6665(3) 0.4938(3) 0.5840(3)
O10 O 0.5121(2) 0.6296(2) 0.8968(2)
O11 O 0.6560(2) 0.7195(2) 0.9116(2)
O12 O 0.4853(3) 0.6546(2) 1.0404(2)
O13 O 0.8409(2) 0.8485(2) 0.58404(19)
O14 O 0.7952(2) 0.8845(2) 0.7248(2)
O15 O 0.8834(3) 1.0194(2) 0.5780(3)
O16 O 0.7256(2) 0.50382(18) 0.85632(17)
H3 H 0.7661 0.4651 0.8208
H4 H 0.6530 0.4701 0.8902
C1 C 0.1289(3) 0.9442(3) 0.6706(3)
H5 H 0.0642 0.8840 0.6904
H6 H 0.1421 0.9948 0.6011
C2 C 0.0946(3) 1.0089(3) 0.7429(3)
H7 H 0.0152 1.0377 0.7467
H8 H 0.0882 0.9589 0.8111
C3 C 0.1635(4) 1.1674(3) 0.7702(3)
H9 H 0.1575 1.1202 0.8390
H10 H 0.0861 1.2005 0.7738
C4 C 0.2678(3) 1.2600(3) 0.7250(3)
H11 H 0.3450 1.2271 0.7230
H12 H 0.2751 1.3063 0.6556
C5 C 0.3456(3) 1.3994(3) 0.7709(3)
H13 H 0.3780 1.4502 0.6999
H14 H 0.4102 1.3538 0.7858
C6 C 0.3039(3) 1.4669(3) 0.8406(3)
H15 H 0.2687 1.4164 0.9116
H16 H 0.3727 1.5160 0.8331
C7 C 0.4870(3) 0.8543(3) 0.6678(3)
C8 C 0.4198(3) 0.8127(3) 0.6145(3)
C9 C 0.2994(3) 0.8358(3) 0.6177(3)
C10 C 0.2456(3) 0.7945(3) 0.5642(3)
H17 H 0.1664 0.8110 0.5657
C11 C 0.3094(4) 0.7289(3) 0.5087(3)
H18 H 0.2724 0.7007 0.4735
C12 C 0.4270(4) 0.7047(4) 0.5047(3)
H19 H 0.4691 0.6598 0.4677
C13 C 0.4819(4) 0.7476(3) 0.5561(3)
H20 H 0.5623 0.7328 0.5518
C14 C 0.5135(4) 0.9976(4) 0.7415(4)
H21 H 0.5483 1.0742 0.6946
H22 H 0.5812 0.9545 0.7527
C15 C 0.4294(4) 1.0041(3) 0.8418(3)
C16 C 0.3263(5) 0.9300(4) 0.9053(4)
H23 H 0.3048 0.8705 0.8878
C17 C 0.2543(5) 0.9440(5) 0.9953(4)
H24 H 0.1833 0.8949 1.0391
C18 C 0.2891(6) 1.0313(5) 1.0191(4)
H25 H 0.2427 1.0430 1.0795
C19 C 0.3916(5) 1.0994(4) 0.9537(4)
H26 H 0.4152 1.1581 0.9711
C20 C -0.0021(3) 1.6132(3) 0.7654(2)
C21 C 0.0365(3) 1.6327(3) 0.8454(2)
C22 C 0.1412(3) 1.5918(3) 0.8678(3)
C23 C 0.1691(3) 1.6124(3) 0.9446(3)
H27 H 0.2389 1.5859 0.9589
C24 C 0.0930(4) 1.6723(3) 0.9996(3)
H28 H 0.1106 1.6842 1.0524
C25 C -0.0088(4) 1.7149(3) 0.9779(3)
H29 H -0.0590 1.7563 1.0149
C26 C -0.0355(3) 1.6954(3) 0.9008(3)
H30 H -0.1037 1.7251 0.8855
C27 C 0.0286(3) 1.5159(3) 0.6410(3)
H31 H 0.1090 1.5193 0.5896
H32 H -0.0135 1.5780 0.6106
C28 C -0.0442(3) 1.4046(3) 0.6673(2)
C29 C -0.0012(4) 1.3365(3) 0.6093(3)
H33 H 0.0754 1.3563 0.5564
C30 C -0.0729(4) 1.2383(4) 0.6304(3)
H34 H -0.0455 1.1914 0.5918
C31 C -0.1839(4) 1.2112(3) 0.7082(4)
H35 H -0.2343 1.1459 0.7235
C32 C -0.2205(4) 1.2820(3) 0.7639(3)
H36 H -0.2963 1.2625 0.8177
Eu1_2 Eu -0.284080(14) 1.693340(14) 0.743400(13)
O6_2 O 0.92066(19) 0.67144(19) 0.73484(17)
loop_
_geom_bond_atom_site_label_1
_geom_bond_atom_site_label_2
_geom_bond_site_symmetry_1
_geom_bond_site_symmetry_2
Eu1 O5 1_555 1_555
N1 H1 1_555 1_555
N2 C15 1_555 1_555
N3 H2 1_555 1_555
N4 C28 1_555 1_555
N5 O7 1_555 1_555
N6 O10 1_555 1_555
N7 O13 1_555 1_555
O1 C1 1_555 1_555
O2 C2 1_555 1_555
O3 C4 1_555 1_555
O4 C6 1_555 1_555
O5 C7 1_555 1_555
O6 C20 1_555 1_555
O7 Eu1 1_555 1_555
O8 Eu1 1_555 1_555
O9 N5 1_555 1_555
O10 Eu1 1_555 1_555
O11 Eu1 1_555 1_555
O12 N6 1_555 1_555
O13 Eu1 1_555 1_555
O14 Eu1 1_555 1_555
O15 N7 1_555 1_555
O16 Eu1 1_555 1_555
H3 O16 1_555 1_555
H4 O16 1_555 1_555
C1 H5 1_555 1_555
H6 C1 1_555 1_555
C2 C1 1_555 1_555
H7 C2 1_555 1_555
H8 C2 1_555 1_555
C3 O2 1_555 1_555
H9 C3 1_555 1_555
H10 C3 1_555 1_555
C4 C3 1_555 1_555
H11 C4 1_555 1_555
H12 C4 1_555 1_555
C5 O3 1_555 1_555
H13 C5 1_555 1_555
H14 C5 1_555 1_555
C6 C5 1_555 1_555
H15 C6 1_555 1_555
H16 C6 1_555 1_555
C7 N1 1_555 1_555
C8 C7 1_555 1_555
C9 O1 1_555 1_555
C10 C9 1_555 1_555
H17 C10 1_555 1_555
C11 C10 1_555 1_555
H18 C11 1_555 1_555
C12 C11 1_555 1_555
H19 C12 1_555 1_555
C13 C8 1_555 1_555
H20 C13 1_555 1_555
C14 N1 1_555 1_555
H21 C14 1_555 1_555
H22 C14 1_555 1_555
C15 C14 1_555 1_555
C16 C15 1_555 1_555
H23 C16 1_555 1_555
C17 C16 1_555 1_555
H24 C17 1_555 1_555
C18 C17 1_555 1_555
H25 C18 1_555 1_555
C19 N2 1_555 1_555
H26 C19 1_555 1_555
C20 N3 1_555 1_555
C21 C20 1_555 1_555
C22 O4 1_555 1_555
C23 C22 1_555 1_555
H27 C23 1_555 1_555
C24 C23 1_555 1_555
H28 C24 1_555 1_555
C25 C24 1_555 1_555
H29 C25 1_555 1_555
C26 C21 1_555 1_555
H30 C26 1_555 1_555
C27 N3 1_555 1_555
H31 C27 1_555 1_555
H32 C27 1_555 1_555
C28 C27 1_555 1_555
C29 C28 1_555 1_555
H33 C29 1_555 1_555
C30 C29 1_555 1_555
H34 C30 1_555 1_555
C31 C30 1_555 1_555
H35 C31 1_555 1_555
C32 N4 1_555 1_555
H36 C32 1_555 1_555
Eu1_2 O6 1_555 1_555
O6_2 Eu1 1_555 1_555
N5 O8 1_555 1_555
N6 O11 1_555 1_555
N7 O14 1_555 1_555
C8 C9 1_555 1_555
C12 C13 1_555 1_555
C18 C19 1_555 1_555
C21 C22 1_555 1_555
C25 C26 1_555 1_555
C31 C32 1_555 1_555

#END
