
#######################################################################
#
#                 Cambridge Crystallographic Data Centre
#                                CCDC 
#
#######################################################################
#
# If this CIF has been generated from an entry in the Cambridge 
# Structural Database, then it will include bibliographic, chemical, 
# crystal, experimental, refinement or atomic coordinate data resulting 
# from the CCDC's data processing and validation procedures.
#
#######################################################################

data_BOWQEK
_symmetry_cell_setting           monoclinic
_symmetry_space_group_name_H-M   'P 21/c'
_symmetry_Int_Tables_number      14
_space_group_name_Hall           '-P 2ybc'
loop_
_symmetry_equiv_pos_site_id
_symmetry_equiv_pos_as_xyz
1 x,y,z
2 -x,1/2+y,1/2-z
3 -x,-y,-z
4 x,1/2-y,1/2+z
_cell_length_a                   12.876(3)
_cell_length_b                   17.626(4)
_cell_length_c                   10.479(2)
_cell_angle_alpha                90
_cell_angle_beta                 101.57(3)
_cell_angle_gamma                90
_cell_volume                     2329.91
loop_
_atom_site_label
_atom_site_type_symbol
_atom_site_fract_x
_atom_site_fract_y
_atom_site_fract_z
Zn1 Zn 0.30659(6) 0.01328(5) 0.61088(7)
N1 N 0.1999(4) 0.0415(3) 0.7205(5)
N2 N -0.5477(4) 0.0329(3) 0.7087(6)
N3 N 0.1765(4) -0.1121(3) 0.5007(6)
N4 N 0.2765(4) -0.0925(4) 0.5574(6)
N5 N 0.3414(5) -0.1503(4) 0.5498(8)
N6 N 0.2854(5) -0.2066(4) 0.4852(8)
N7 N -0.1637(4) -0.3970(3) 0.0843(5)
N8 N -0.2640(4) -0.4220(4) 0.0455(6)
N9 N -0.3269(5) -0.3923(5) 0.1161(7)
N10 N -0.2688(5) -0.3470(5) 0.2035(7)
C1 C 0.1001(5) 0.0175(4) 0.6791(7)
H1 H 0.0843 -0.0118 0.6014
C2 C 0.0207(5) 0.0329(4) 0.7428(6)
H2 H -0.0485 0.0140 0.7090
C3 C 0.0379(5) 0.0754(4) 0.8554(6)
C4 C 0.1415(5) 0.1021(4) 0.8977(7)
H3 H 0.1588 0.1322 0.9742
C5 C 0.2179(5) 0.0846(4) 0.8280(6)
H4 H 0.2874 0.1041 0.8577
C6 C -0.0485(5) 0.0954(4) 0.9270(7)
H5 H -0.0526 0.1513 0.9327
H6 H -0.0287 0.0756 1.0170
C7 C -0.1570(5) 0.0655(4) 0.8665(6)
H7 H -0.1542 0.0094 0.8649
H8 H -0.1759 0.0834 0.7752
C8 C -0.2438(5) 0.0899(4) 0.9380(7)
H9 H -0.2330 0.0645 1.0239
H10 H -0.2398 0.1454 0.9529
C9 C -0.5004(6) -0.0125(5) 0.8027(8)
H11 H -0.5344 -0.0585 0.8176
C10 C -0.4038(6) 0.0043(5) 0.8799(8)
H12 H -0.3732 -0.0294 0.9479
C11 C -0.3514(5) 0.0695(4) 0.8593(6)
C12 C -0.3990(7) 0.1133(6) 0.7586(11)
H13 H -0.3650 0.1583 0.7384
C13 C -0.4958(7) 0.0937(6) 0.6852(10)
H14 H -0.5265 0.1254 0.6143
C14 C 0.1844(5) -0.1815(4) 0.4571(7)
C15 C 0.0936(5) -0.2258(4) 0.3863(6)
C16 C 0.1093(5) -0.2847(4) 0.3039(6)
H15 H 0.1789 -0.2973 0.2937
C17 C -0.0094(5) -0.2086(4) 0.4026(6)
H16 H -0.0206 -0.1685 0.4590
C18 C 0.0231(5) -0.3246(4) 0.2371(6)
H17 H 0.0336 -0.3637 0.1786
C19 C -0.0794(5) -0.3082(4) 0.2543(6)
C20 C -0.0929(5) -0.2494(4) 0.3373(6)
H18 H -0.1623 -0.2372 0.3487
C21 C -0.1694(5) -0.3507(4) 0.1817(6)
Zn1_2 Zn -0.69341(6) 0.01328(5) 0.61088(7)
Zn1A Zn -0.30659(6) -0.48672(5) -0.11088(7)
N2_2 N 0.4523(4) 0.0329(3) 0.7087(6)
N8A N 0.2640(4) 0.0780(4) 0.4545(6)
O1 O 0.4720(11) 0.2181(8) 0.2687(13)
O2 O 0.4114(12) -0.3193(9) 0.3820(15)
O3 O 0.5676(17) -0.3290(13) 0.537(2)
loop_
_geom_bond_atom_site_label_1
_geom_bond_atom_site_label_2
_geom_bond_site_symmetry_1
_geom_bond_site_symmetry_2
Zn1 N1 1_555 1_555
N1 C1 1_555 1_555
N2 C9 1_555 1_555
N3 N4 1_555 1_555
N4 Zn1 1_555 1_555
N5 N4 1_555 1_555
N6 N5 1_555 1_555
N7 N8 1_555 1_555
N8 N9 1_555 1_555
N9 N10 1_555 1_555
N10 C21 1_555 1_555
C1 H1 1_555 1_555
C2 C1 1_555 1_555
H2 C2 1_555 1_555
C3 C2 1_555 1_555
C4 C3 1_555 1_555
H3 C4 1_555 1_555
C5 N1 1_555 1_555
H4 C5 1_555 1_555
C6 C3 1_555 1_555
H5 C6 1_555 1_555
H6 C6 1_555 1_555
C7 C6 1_555 1_555
H7 C7 1_555 1_555
H8 C7 1_555 1_555
C8 C7 1_555 1_555
H9 C8 1_555 1_555
H10 C8 1_555 1_555
C9 H11 1_555 1_555
C10 C9 1_555 1_555
H12 C10 1_555 1_555
C11 C8 1_555 1_555
C12 C11 1_555 1_555
H13 C12 1_555 1_555
C13 N2 1_555 1_555
H14 C13 1_555 1_555
C14 N3 1_555 1_555
C15 C14 1_555 1_555
C16 C15 1_555 1_555
H15 C16 1_555 1_555
C17 C15 1_555 1_555
H16 C17 1_555 1_555
C18 C16 1_555 1_555
H17 C18 1_555 1_555
C19 C18 1_555 1_555
C20 C17 1_555 1_555
H18 C20 1_555 1_555
C21 N7 1_555 1_555
Zn1_2 N2 1_555 1_555
Zn1A N8 1_555 1_555
N2_2 Zn1 1_555 1_555
N8A Zn1 1_555 1_555
N6 C14 1_555 1_555
C4 C5 1_555 1_555
C10 C11 1_555 1_555
C12 C13 1_555 1_555
C19 C20 1_555 1_555
C19 C21 1_555 1_555

#END
