
#######################################################################
#
#                 Cambridge Crystallographic Data Centre
#                                CCDC 
#
#######################################################################
#
# If this CIF has been generated from an entry in the Cambridge 
# Structural Database, then it will include bibliographic, chemical, 
# crystal, experimental, refinement or atomic coordinate data resulting 
# from the CCDC's data processing and validation procedures.
#
#######################################################################

data_BOWQOU
_symmetry_cell_setting           monoclinic
_symmetry_space_group_name_H-M   'P 21/c'
_symmetry_Int_Tables_number      14
_space_group_name_Hall           '-P 2ybc'
loop_
_symmetry_equiv_pos_site_id
_symmetry_equiv_pos_as_xyz
1 x,y,z
2 -x,1/2+y,1/2-z
3 -x,-y,-z
4 x,1/2-y,1/2+z
_cell_length_a                   8.873(2)
_cell_length_b                   23.623(3)
_cell_length_c                   19.567(3)
_cell_angle_alpha                90
_cell_angle_beta                 97.620(2)
_cell_angle_gamma                90
_cell_volume                     4065.16
loop_
_atom_site_label
_atom_site_type_symbol
_atom_site_fract_x
_atom_site_fract_y
_atom_site_fract_z
Pr1 Pr 0.48306(5) 0.466789(16) 0.75518(2)
N1 N 0.3958(8) 0.5895(3) 0.5791(4)
H1 H 0.3970 0.6195 0.5544
N2 N 0.0740(9) 0.5497(3) 0.6053(4)
N3 N -0.3823(7) 0.8962(3) 0.4115(3)
H2 H -0.3664 0.8617 0.4248
N4 N -0.0901(8) 0.9554(3) 0.3853(3)
N5 N 0.5236(9) 0.4115(3) 0.6170(4)
N6 N 0.2860(8) 0.3973(3) 0.8377(4)
N7 N 0.6918(8) 0.3792(3) 0.8286(4)
O1 O 0.4577(9) 0.6991(3) 0.5721(4)
O2 O 0.1635(12) 0.7165(4) 0.4949(5)
O3 O -0.1820(11) 0.7580(4) 0.4813(5)
O4 O -0.3898(9) 0.7885(2) 0.3751(4)
O5 O 0.4807(6) 0.5485(2) 0.6791(3)
O6 O -0.5075(6) 0.9540(2) 0.3348(3)
O7 O 0.6251(7) 0.4442(3) 0.6439(3)
O8 O 0.4043(7) 0.4080(2) 0.6466(3)
O9 O 0.5347(9) 0.3847(3) 0.5652(3)
O10 O 0.3292(6) 0.3796(2) 0.7837(3)
O11 O 0.3189(7) 0.4478(2) 0.8544(3)
O12 O 0.2155(9) 0.3682(3) 0.8726(4)
O13 O 0.6517(6) 0.3775(2) 0.7641(3)
O14 O 0.6261(7) 0.4153(2) 0.8626(3)
O15 O 0.7931(9) 0.3498(3) 0.8565(4)
O16 O 0.2082(6) 0.4909(2) 0.7178(3)
H3 H 0.1947 0.4616 0.6926
H4 H 0.1942 0.5181 0.6892
O17 O 0.7566(6) 0.4960(2) 0.7718(3)
H5 H 0.7880 0.5137 0.8088
H6 H 0.8141 0.4672 0.7720
C1 C 0.4222(16) 0.7540(4) 0.5428(6)
H8 H 0.5103 0.7697 0.5252
H9 H 0.3929 0.7794 0.5777
C2 C 0.2926(16) 0.7473(5) 0.4850(7)
H10 H 0.2592 0.7850 0.4706
H11 H 0.3342 0.7301 0.4466
C3 C 0.0782(18) 0.7321(6) 0.5472(8)
H12 H 0.1448 0.7492 0.5850
H13 H 0.0330 0.6986 0.5647
C4 C -0.0406(17) 0.7718(6) 0.5220(8)
H14 H -0.0669 0.7913 0.5624
H15 H 0.0072 0.7998 0.4957
C5 C -0.1577(14) 0.7402(5) 0.4192(6)
H16 H -0.1028 0.7046 0.4220
H17 H -0.1015 0.7681 0.3963
C6 C -0.3270(13) 0.7327(4) 0.3806(6)
H18 H -0.3258 0.7163 0.3353
H19 H -0.3860 0.7085 0.4070
C7 C 0.4787(9) 0.5898(3) 0.6392(4)
C8 C 0.5800(10) 0.6394(3) 0.6609(4)
C9 C 0.5680(12) 0.6926(4) 0.6264(5)
C10 C 0.6652(16) 0.7355(4) 0.6523(7)
H20 H 0.6555 0.7713 0.6325
C11 C 0.7764(16) 0.7257(5) 0.7072(8)
H21 H 0.8399 0.7552 0.7240
C12 C 0.7957(13) 0.6734(5) 0.7377(6)
H22 H 0.8755 0.6670 0.7728
C13 C 0.6951(10) 0.6301(4) 0.7157(5)
H23 H 0.7042 0.5950 0.7374
C14 C 0.3023(10) 0.5433(3) 0.5505(4)
H24 H 0.3262 0.5098 0.5785
H25 H 0.3254 0.5353 0.5044
C15 C 0.1349(10) 0.5562(3) 0.5472(4)
C16 C 0.0480(12) 0.5746(4) 0.4873(5)
H26 H 0.0929 0.5796 0.4473
C17 C -0.1034(12) 0.5856(4) 0.4866(6)
H27 H -0.1631 0.5973 0.4464
C18 C -0.1649(12) 0.5789(4) 0.5466(6)
H28 H -0.2672 0.5865 0.5484
C19 C -0.0723(13) 0.5610(5) 0.6039(5)
H29 H -0.1149 0.5564 0.6444
C20 C -0.4807(8) 0.9051(3) 0.3560(4)
C21 C -0.5639(9) 0.8557(3) 0.3220(4)
C22 C -0.5196(11) 0.7990(3) 0.3300(4)
C23 C -0.6016(13) 0.7574(4) 0.2929(5)
H30 H -0.5717 0.7197 0.2983
C24 C -0.7268(14) 0.7714(5) 0.2480(5)
H31 H -0.7806 0.7429 0.2225
C25 C -0.7763(11) 0.8267(4) 0.2392(5)
H32 H -0.8633 0.8355 0.2091
C26 C -0.6938(10) 0.8687(4) 0.2760(5)
H33 H -0.7250 0.9062 0.2703
C27 C -0.2975(9) 0.9409(3) 0.4522(4)
H34 H -0.3379 0.9775 0.4365
H35 H -0.3118 0.9368 0.5002
C28 C -0.1303(9) 0.9390(3) 0.4463(4)
C29 C -0.0238(10) 0.9227(3) 0.4996(4)
H36 H -0.0536 0.9110 0.5412
C30 C 0.1257(10) 0.9238(3) 0.4915(5)
H37 H 0.1990 0.9137 0.5279
C31 C 0.1681(10) 0.9396(4) 0.4303(5)
H38 H 0.2699 0.9397 0.4235
C32 C 0.0567(10) 0.9554(4) 0.3788(5)
H39 H 0.0855 0.9667 0.3369
Pr1C Pr -0.51694(5) 1.033211(16) 0.25518(2)
O6C O 0.4925(6) 0.5460(2) 0.8348(3)
O18 O 0.9746(9) 0.4150(4) 0.7409(5)
H7 H 1.0208 0.4404 0.7241
C33 C 0.9696(15) 0.3676(6) 0.6978(7)
H40 H 1.0712 0.3569 0.6914
H41 H 0.9127 0.3766 0.6539
H42 H 0.9214 0.3368 0.7184
loop_
_geom_bond_atom_site_label_1
_geom_bond_atom_site_label_2
_geom_bond_site_symmetry_1
_geom_bond_site_symmetry_2
Pr1 O5 1_555 1_555
N1 H1 1_555 1_555
N2 C15 1_555 1_555
N3 H2 1_555 1_555
N4 C28 1_555 1_555
N5 O7 1_555 1_555
N6 O10 1_555 1_555
N7 O13 1_555 1_555
O1 C1 1_555 1_555
O2 C2 1_555 1_555
O3 C4 1_555 1_555
O4 C6 1_555 1_555
O5 C7 1_555 1_555
O6 C20 1_555 1_555
O7 Pr1 1_555 1_555
O8 Pr1 1_555 1_555
O9 N5 1_555 1_555
O10 Pr1 1_555 1_555
O11 Pr1 1_555 1_555
O12 N6 1_555 1_555
O13 Pr1 1_555 1_555
O14 Pr1 1_555 1_555
O15 N7 1_555 1_555
O16 Pr1 1_555 1_555
H3 O16 1_555 1_555
H4 O16 1_555 1_555
O17 Pr1 1_555 1_555
H5 O17 1_555 1_555
H6 O17 1_555 1_555
O18 H7 1_555 1_555
C1 H8 1_555 1_555
H9 C1 1_555 1_555
C2 C1 1_555 1_555
H10 C2 1_555 1_555
H11 C2 1_555 1_555
C3 O2 1_555 1_555
H12 C3 1_555 1_555
H13 C3 1_555 1_555
C4 C3 1_555 1_555
H14 C4 1_555 1_555
H15 C4 1_555 1_555
C5 O3 1_555 1_555
H16 C5 1_555 1_555
H17 C5 1_555 1_555
C6 C5 1_555 1_555
H18 C6 1_555 1_555
H19 C6 1_555 1_555
C7 N1 1_555 1_555
C8 C7 1_555 1_555
C9 O1 1_555 1_555
C10 C9 1_555 1_555
H20 C10 1_555 1_555
C11 C10 1_555 1_555
H21 C11 1_555 1_555
C12 C11 1_555 1_555
H22 C12 1_555 1_555
C13 C8 1_555 1_555
H23 C13 1_555 1_555
C14 N1 1_555 1_555
H24 C14 1_555 1_555
H25 C14 1_555 1_555
C15 C14 1_555 1_555
C16 C15 1_555 1_555
H26 C16 1_555 1_555
C17 C16 1_555 1_555
H27 C17 1_555 1_555
C18 C17 1_555 1_555
H28 C18 1_555 1_555
C19 N2 1_555 1_555
H29 C19 1_555 1_555
C20 N3 1_555 1_555
C21 C20 1_555 1_555
C22 O4 1_555 1_555
C23 C22 1_555 1_555
H30 C23 1_555 1_555
C24 C23 1_555 1_555
H31 C24 1_555 1_555
C25 C24 1_555 1_555
H32 C25 1_555 1_555
C26 C21 1_555 1_555
H33 C26 1_555 1_555
C27 N3 1_555 1_555
H34 C27 1_555 1_555
H35 C27 1_555 1_555
C28 C27 1_555 1_555
C29 C28 1_555 1_555
H36 C29 1_555 1_555
C30 C29 1_555 1_555
H37 C30 1_555 1_555
C31 C30 1_555 1_555
H38 C31 1_555 1_555
C32 N4 1_555 1_555
H39 C32 1_555 1_555
C33 O18 1_555 1_555
H40 C33 1_555 1_555
H41 C33 1_555 1_555
H42 C33 1_555 1_555
Pr1C O6 1_555 1_555
O6C Pr1 1_555 1_555
N5 O8 1_555 1_555
N6 O11 1_555 1_555
N7 O14 1_555 1_555
C8 C9 1_555 1_555
C12 C13 1_555 1_555
C18 C19 1_555 1_555
C21 C22 1_555 1_555
C25 C26 1_555 1_555
C31 C32 1_555 1_555

#END
