
#######################################################################
#
#                 Cambridge Crystallographic Data Centre
#                                CCDC 
#
#######################################################################
#
# If this CIF has been generated from an entry in the Cambridge 
# Structural Database, then it will include bibliographic, chemical, 
# crystal, experimental, refinement or atomic coordinate data resulting 
# from the CCDC's data processing and validation procedures.
#
#######################################################################

data_BOWQIO
_symmetry_cell_setting           monoclinic
_symmetry_space_group_name_H-M   'P 21/c'
_symmetry_Int_Tables_number      14
_space_group_name_Hall           '-P 2ybc'
loop_
_symmetry_equiv_pos_site_id
_symmetry_equiv_pos_as_xyz
1 x,y,z
2 -x,1/2+y,1/2-z
3 -x,-y,-z
4 x,1/2-y,1/2+z
_cell_length_a                   20.331(4)
_cell_length_b                   10.608(2)
_cell_length_c                   6.7771(14)
_cell_angle_alpha                90
_cell_angle_beta                 94.05(3)
_cell_angle_gamma                90
_cell_volume                     1457.98
loop_
_atom_site_label
_atom_site_type_symbol
_atom_site_fract_x
_atom_site_fract_y
_atom_site_fract_z
Zn1 Zn 0.217603(16) 0.34088(3) 0.42624(5)
N1 N 0.14011(8) 0.47397(16) 0.3771(3)
C1 C 0.07908(9) 0.44277(18) 0.2939(3)
H1 H 0.0700 0.3585 0.2529
C2 C 0.03109(9) 0.5328(2) 0.2696(3)
H2 H -0.0113 0.5111 0.2118
C3 C 0.04412(10) 0.65402(19) 0.3286(4)
H3 H 0.0108 0.7166 0.3117
C4 C 0.10515(10) 0.68525(18) 0.4118(3)
H4 H 0.1142 0.7695 0.4528
C5 C 0.15315(9) 0.59520(16) 0.4361(3)
N2 N 0.25768(8) 0.51202(16) 0.5544(3)
C6 C 0.21900(8) 0.61735(16) 0.5273(3)
C7 C 0.24396(9) 0.73367(17) 0.5796(3)
H5 H 0.2172 0.8066 0.5608
C8 C 0.30762(10) 0.74468(18) 0.6591(3)
H6 H 0.3249 0.8253 0.6954
C9 C 0.34631(9) 0.63936(18) 0.6863(3)
H7 H 0.3904 0.6470 0.7413
C10 C 0.32134(8) 0.52303(17) 0.6339(3)
H8 H 0.3481 0.4501 0.6527
N3 N 0.28004(12) 0.3723(2) 0.1823(4)
N4 N 0.33351(12) 0.4458(2) 0.2007(4)
N5 N 0.28881(11) 0.2829(2) 0.0498(4)
N6 N 0.34780(12) 0.2956(2) -0.0215(4)
N7 N 0.16802(13) 0.2015(2) 0.2454(4)
C11 C 0.37396(14) 0.3955(3) 0.0738(4)
C12 C 0.43901(14) 0.4481(3) 0.0388(4)
C13 C 0.47368(15) 0.4027(3) -0.1174(5)
H9 H 0.4558 0.3359 -0.1977
C14 C 0.46611(15) 0.5452(3) 0.1556(5)
H10 H 0.4431 0.5762 0.2627
N8 N 0.15318(12) 0.1035(2) 0.3177(4)
N9 N 0.13815(15) 0.0077(3) 0.3821(4)
Zn1B Zn 0.782397(16) 0.65912(3) -0.42624(5)
Zn1C Zn 0.217603(16) 0.15912(3) -0.07376(5)
Zn1A Zn 0.782397(16) 0.84088(3) 0.07376(5)
Zn1C_2 Zn 0.217603(16) 0.15912(3) 0.92624(5)
N1B N 0.85989(8) 0.52603(16) -0.3771(3)
C1B C 0.92092(9) 0.55723(18) -0.2939(3)
H1B H 0.9300 0.6415 -0.2529
C2B C 0.96891(9) 0.4672(2) -0.2696(3)
H2B H 1.0113 0.4889 -0.2118
C3B C 0.95588(10) 0.34598(19) -0.3286(4)
H3B H 0.9892 0.2834 -0.3117
C4B C 0.89485(10) 0.31475(18) -0.4118(3)
H4B H 0.8858 0.2305 -0.4528
C5B C 0.84685(9) 0.40480(16) -0.4361(3)
N2B N 0.74232(8) 0.48798(16) -0.5544(3)
C6B C 0.78100(8) 0.38265(16) -0.5273(3)
C7B C 0.75604(9) 0.26633(17) -0.5796(3)
H5B H 0.7828 0.1934 -0.5608
C8B C 0.69238(10) 0.25532(18) -0.6591(3)
H6B H 0.6751 0.1747 -0.6954
C9B C 0.65369(9) 0.36064(18) -0.6863(3)
H7B H 0.6096 0.3530 -0.7413
C10B C 0.67866(8) 0.47697(17) -0.6339(3)
H8B H 0.6519 0.5499 -0.6527
N3B N 0.71996(12) 0.6277(2) -0.1823(4)
N4B N 0.66649(12) 0.5542(2) -0.2007(4)
N5B N 0.71119(11) 0.7171(2) -0.0498(4)
N5C N 0.28881(11) 0.2171(2) 0.5498(4)
N5A N 0.71119(11) 0.7829(2) -0.5498(4)
N6B N 0.65220(12) 0.7044(2) 0.0215(4)
N7C N 0.16802(13) 0.2985(2) 0.7454(4)
N7B N 0.83198(13) 0.7985(2) -0.2454(4)
N7A N 0.83198(13) 0.7015(2) -0.7454(4)
C11B C 0.62604(14) 0.6045(3) -0.0738(4)
C12B C 0.56099(14) 0.5519(3) -0.0388(4)
C13B C 0.52632(15) 0.5973(3) 0.1174(5)
H9B H 0.5442 0.6641 0.1977
C14B C 0.53389(15) 0.4548(3) -0.1556(5)
H10B H 0.5569 0.4238 -0.2627
N8C N 0.15318(12) 0.3965(2) 0.8177(4)
N9C N 0.13815(15) 0.4923(3) 0.8821(4)
loop_
_geom_bond_atom_site_label_1
_geom_bond_atom_site_label_2
_geom_bond_site_symmetry_1
_geom_bond_site_symmetry_2
Zn1 N1 1_555 1_555
N1 C1 1_555 1_555
C1 H1 1_555 1_555
C2 C1 1_555 1_555
H2 C2 1_555 1_555
C3 C2 1_555 1_555
H3 C3 1_555 1_555
C4 C3 1_555 1_555
H4 C4 1_555 1_555
C5 N1 1_555 1_555
N2 Zn1 1_555 1_555
C6 C5 1_555 1_555
C7 C6 1_555 1_555
H5 C7 1_555 1_555
C8 C7 1_555 1_555
H6 C8 1_555 1_555
C9 C8 1_555 1_555
H7 C9 1_555 1_555
C10 N2 1_555 1_555
H8 C10 1_555 1_555
N3 Zn1 1_555 1_555
N4 N3 1_555 1_555
N5 N3 1_555 1_555
N6 N5 1_555 1_555
N7 Zn1 1_555 1_555
C11 N4 1_555 1_555
C12 C11 1_555 1_555
C13 C12 1_555 1_555
H9 C13 1_555 1_555
C14 C12 1_555 1_555
H10 C14 1_555 1_555
N8 N7 1_555 1_555
N9 N8 1_555 1_555
Zn1B N1B 1_555 1_555
Zn1C N5 1_555 1_555
Zn1A N5B 1_555 1_555
Zn1C_2 N7C 1_555 1_555
N1B C1B 1_555 1_555
C1B H1B 1_555 1_555
C2B C1B 1_555 1_555
H2B C2B 1_555 1_555
C3B C2B 1_555 1_555
H3B C3B 1_555 1_555
C4B C3B 1_555 1_555
H4B C4B 1_555 1_555
C5B N1B 1_555 1_555
N2B Zn1B 1_555 1_555
C6B C5B 1_555 1_555
C7B C6B 1_555 1_555
H5B C7B 1_555 1_555
C8B C7B 1_555 1_555
H6B C8B 1_555 1_555
C9B C8B 1_555 1_555
H7B C9B 1_555 1_555
C10B N2B 1_555 1_555
H8B C10B 1_555 1_555
N3B Zn1B 1_555 1_555
N4B N3B 1_555 1_555
N5B N3B 1_555 1_555
N5C Zn1 1_555 1_555
N5A Zn1B 1_555 1_555
N6B N5B 1_555 1_555
N7C Zn1 1_555 1_555
N7B Zn1B 1_555 1_555
N7A Zn1B 1_555 1_555
C11B N4B 1_555 1_555
C12B C11B 1_555 1_555
C13B C14 1_555 1_555
H9B C13B 1_555 1_555
C14B C13 1_555 1_555
H10B C14B 1_555 1_555
N8C N7C 1_555 1_555
N9C N8C 1_555 1_555
C4 C5 1_555 1_555
N2 C6 1_555 1_555
C9 C10 1_555 1_555
N6 C11 1_555 1_555
N7 Zn1C 1_555 1_555
Zn1A N7B 1_555 1_555
C4B C5B 1_555 1_555
N2B C6B 1_555 1_555
C9B C10B 1_555 1_555
N6B C11B 1_555 1_555
C12B C13B 1_555 1_555
C12B C14B 1_555 1_555

#END
