
#######################################################################
#
#                 Cambridge Crystallographic Data Centre
#                                CCDC 
#
#######################################################################
#
# If this CIF has been generated from an entry in the Cambridge 
# Structural Database, then it will include bibliographic, chemical, 
# crystal, experimental, refinement or atomic coordinate data resulting 
# from the CCDC's data processing and validation procedures.
#
#######################################################################

data_BOWSIQ
_symmetry_cell_setting           orthorhombic
_symmetry_space_group_name_H-M   'I b c a'
_symmetry_Int_Tables_number      73
_space_group_name_Hall           '-I 2b 2c'
loop_
_symmetry_equiv_pos_site_id
_symmetry_equiv_pos_as_xyz
1 x,y,z
2 1/2-x,-y,1/2+z
3 -x,1/2+y,1/2-z
4 1/2+x,1/2-y,-z
5 1/2+x,1/2+y,1/2+z
6 -x,1/2-y,z
7 1/2-x,y,-z
8 x,-y,1/2-z
9 -x,-y,-z
10 1/2+x,y,1/2-z
11 x,1/2-y,1/2+z
12 1/2-x,1/2+y,z
13 1/2-x,1/2-y,1/2-z
14 x,1/2+y,-z
15 1/2+x,-y,z
16 -x,y,1/2+z
_cell_length_a                   15.378(3)
_cell_length_b                   19.560(4)
_cell_length_c                   39.822(8)
_cell_angle_alpha                90
_cell_angle_beta                 90
_cell_angle_gamma                90
_cell_volume                     11978.2
loop_
_atom_site_label
_atom_site_type_symbol
_atom_site_fract_x
_atom_site_fract_y
_atom_site_fract_z
C1 C 0.4019(6) 0.1590(7) 0.16602(19)
C2 C 0.3617(4) 0.0907(4) 0.16368(16)
C3 C 0.2727(4) 0.0868(3) 0.16065(17)
H1 H 0.2400 0.1265 0.1582
C4 C 0.2316(5) 0.0234(3) 0.16122(18)
H2 H 0.1714 0.0204 0.1593
C5 C 0.2809(6) -0.0346(3) 0.16464(17)
C6 C 0.3696(7) -0.0320(5) 0.16600(19)
H3 H 0.4017 -0.0722 0.1672
C7 C 0.4102(6) 0.0290(7) 0.16561(19)
H4 H 0.4706 0.0308 0.1666
C8 C 0.2304(11) -0.1028(4) 0.1682(2)
C9 C 0.4419(5) 0.3585(3) 0.23785(17)
H5 H 0.4667 0.3933 0.2251
C10 C 0.4485(4) 0.3631(3) 0.27231(16)
H6 H 0.4780 0.3994 0.2822
C11 C 0.4108(4) 0.3130(3) 0.29182(15)
C12 C 0.3677(5) 0.2602(3) 0.27540(17)
H7 H 0.3411 0.2254 0.2875
C13 C 0.3655(4) 0.2606(4) 0.24129(17)
H8 H 0.3357 0.2253 0.2307
C14 C 0.4202(4) 0.3221(4) 0.32956(18)
C15 C 0.3823(5) 0.2671(4) 0.38323(17)
C16 C 0.3932(6) 0.3215(4) 0.40437(18)
H9 H 0.4025 0.3648 0.3954
C17 C 0.3908(6) 0.3134(4) 0.4379(2)
H10 H 0.3980 0.3512 0.4518
C18 C 0.3776(5) 0.2492(4) 0.45212(18)
C19 C 0.3638(7) 0.1949(4) 0.4309(2)
H11 H 0.3518 0.1520 0.4398
C20 C 0.3673(6) 0.2029(4) 0.39748(19)
H12 H 0.3596 0.1651 0.3836
C21 C 0.3807(7) 0.1856(5) 0.5066(2)
C22 C 0.3826(6) 0.1949(5) 0.5435(2)
C23 C 0.4128(11) 0.1429(6) 0.5617(3)
H13 H 0.4338 0.1045 0.5506
C24 C 0.4142(9) 0.1440(6) 0.5966(2)
H14 H 0.4328 0.1054 0.6083
C25 C 0.3583(7) 0.2500(5) 0.5963(2)
H15 H 0.3375 0.2879 0.6078
C26 C 0.3553(8) 0.2494(6) 0.5611(2)
H16 H 0.3341 0.2874 0.5498
Cu1 Cu 0.39512(5) 0.30543(4) 0.16776(2)
H17 H 0.354(4) 0.239(3) 0.3350(15)
H18 H 0.377(4) 0.282(2) 0.5033(12)
N1 N 0.4029(3) 0.3082(3) 0.22171(13)
N2 N 0.3824(4) 0.2712(3) 0.34792(14)
N3 N 0.3761(5) 0.2456(3) 0.48805(15)
N4 N 0.3900(4) 0.1978(3) 0.61342(14)
O1 O 0.3526(5) 0.2104(4) 0.16917(16)
O2 O 0.4832(4) 0.1644(5) 0.16416(16)
O3 O 0.1490(7) -0.0988(3) 0.16607(18)
O4 O 0.2712(7) -0.1560(3) 0.17212(15)
O5 O 0.4573(4) 0.3703(3) 0.34147(12)
O6 O 0.3862(7) 0.1290(4) 0.49349(17)
Cu1J Cu 0.39512(5) 0.19457(4) 0.66776(2)
Cu1E Cu 0.60488(5) 0.19457(4) 0.16776(2)
Cu1K Cu 0.10488(5) -0.19457(4) 0.16776(2)
N4J N 0.3900(4) 0.3022(3) 0.11342(14)
O2E O 0.5168(4) 0.3356(5) 0.16416(16)
O3K O 0.3510(7) 0.4012(3) 0.16607(18)
loop_
_geom_bond_atom_site_label_1
_geom_bond_atom_site_label_2
_geom_bond_site_symmetry_1
_geom_bond_site_symmetry_2
C1 C2 1_555 1_555
C2 C3 1_555 1_555
C3 H1 1_555 1_555
C4 C3 1_555 1_555
H2 C4 1_555 1_555
C5 C4 1_555 1_555
C6 C5 1_555 1_555
H3 C6 1_555 1_555
C7 C2 1_555 1_555
H4 C7 1_555 1_555
C8 C5 1_555 1_555
C9 H5 1_555 1_555
C10 C9 1_555 1_555
H6 C10 1_555 1_555
C11 C10 1_555 1_555
C12 C11 1_555 1_555
H7 C12 1_555 1_555
C13 C12 1_555 1_555
H8 C13 1_555 1_555
C14 C11 1_555 1_555
C15 C16 1_555 1_555
C16 H9 1_555 1_555
C17 C16 1_555 1_555
H10 C17 1_555 1_555
C18 C17 1_555 1_555
C19 C18 1_555 1_555
H11 C19 1_555 1_555
C20 C15 1_555 1_555
H12 C20 1_555 1_555
C21 C22 1_555 1_555
C22 C23 1_555 1_555
C23 H13 1_555 1_555
C24 C23 1_555 1_555
H14 C24 1_555 1_555
C25 H15 1_555 1_555
C26 C22 1_555 1_555
H16 C26 1_555 1_555
Cu1 N1 1_555 1_555
H17 N2 1_555 1_555
H18 N3 1_555 1_555
N1 C9 1_555 1_555
N2 C14 1_555 1_555
N3 C18 1_555 1_555
N4 C24 1_555 1_555
O1 C1 1_555 1_555
O2 C1 1_555 1_555
O3 C8 1_555 1_555
O4 C8 1_555 1_555
O5 C14 1_555 1_555
O6 C21 1_555 1_555
Cu1J N4 1_555 1_555
Cu1E O2 1_555 1_555
Cu1K O3 1_555 1_555
N4J Cu1 1_555 1_555
O2E Cu1 1_555 1_555
O3K Cu1 1_555 1_555
C6 C7 1_555 1_555
C13 N1 1_555 1_555
C15 N2 1_555 1_555
C19 C20 1_555 1_555
C21 N3 1_555 1_555
C25 C26 1_555 1_555
C25 N4 1_555 1_555
Cu1 O1 1_555 1_555

#END
