
#######################################################################
#
#                 Cambridge Crystallographic Data Centre
#                                CCDC 
#
#######################################################################
#
# If this CIF has been generated from an entry in the Cambridge 
# Structural Database, then it will include bibliographic, chemical, 
# crystal, experimental, refinement or atomic coordinate data resulting 
# from the CCDC's data processing and validation procedures.
#
#######################################################################

data_BOWTAJ
_symmetry_cell_setting           triclinic
_symmetry_space_group_name_H-M   'P -1'
_symmetry_Int_Tables_number      2
_space_group_name_Hall           '-P 1'
loop_
_symmetry_equiv_pos_site_id
_symmetry_equiv_pos_as_xyz
1 x,y,z
2 -x,-y,-z
_cell_length_a                   7.8384(15)
_cell_length_b                   8.9896(17)
_cell_length_c                   10.473(2)
_cell_angle_alpha                72.719(2)
_cell_angle_beta                 84.220(3)
_cell_angle_gamma                84.391(3)
_cell_volume                     699.286
loop_
_atom_site_label
_atom_site_type_symbol
_atom_site_fract_x
_atom_site_fract_y
_atom_site_fract_z
Eu1 Eu 0.24502(3) -0.03948(2) 1.02660(2)
C1 C 0.0320(6) 0.7924(5) 0.8470(4)
C2 C 0.0463(6) 0.6775(5) 0.7644(4)
H1 H 0.0256 0.7395 0.6724
C3 C 0.2232(6) 0.5928(5) 0.7573(5)
H2 H 0.2475 0.5253 0.8457
H3 H 0.3097 0.6686 0.7286
C4 C 0.2322(6) 0.4953(5) 0.6592(5)
H4 H 0.3437 0.4378 0.6602
H5 H 0.2204 0.5643 0.5692
C5 C 0.0908(6) 0.3802(5) 0.6953(4)
H6 H 0.0899 0.3387 0.6188
C6 C 0.1298(6) 0.2408(5) 0.8157(4)
C7 C -0.0865(6) 0.4632(5) 0.7099(5)
H7 H -0.1161 0.5312 0.6230
H8 H -0.1714 0.3862 0.7410
C8 C -0.0917(6) 0.5592(5) 0.8080(5)
H9 H -0.0725 0.4904 0.8970
H10 H -0.2041 0.6140 0.8118
C9 C 0.4114(7) 0.1231(6) 1.3993(5)
H11 H 0.4149 0.2161 1.3231
H12 H 0.2925 0.0980 1.4217
C10 C 0.5154(6) -0.0119(6) 1.3612(4)
H13 H 0.6335 0.0175 1.3331
C11 C 0.4810(7) 0.1559(6) 1.5182(5)
H14 H 0.4093 0.2395 1.5418
H15 H 0.5964 0.1902 1.4931
C12 C 0.4375(6) -0.0383(5) 1.2437(5)
O1 O 0.3187(4) -0.1272(4) 1.2623(3)
O2 O 0.4889(4) 0.0373(4) 1.1234(3)
O3 O 0.2765(4) 0.2134(4) 0.8582(4)
O4 O 0.0138(4) 0.1476(4) 0.8698(3)
O5 O 0.1695(4) 0.8239(4) 0.8836(3)
O6 O -0.1143(4) 0.8498(4) 0.8717(3)
O7 O 0.4163(4) -0.3035(4) 1.0763(3)
H18 H 0.5112 -0.3005 1.1079
H19 H 0.4266 -0.3160 0.9990
Eu1A Eu 0.75498(3) 0.03948(2) 1.97340(2)
Eu1A_2 Eu 0.75498(3) 0.03948(2) 0.97340(2)
Eu1A_3 Eu -0.24502(3) 0.03948(2) 0.97340(2)
Eu1_2 Eu 0.24502(3) 0.96052(2) 1.02660(2)
Eu1A_4 Eu -0.24502(3) 1.03948(2) 0.97340(2)
Eu1_3 Eu 0.24502(3) -0.03948(2) 2.02660(2)
Eu1A_5 Eu -0.24502(3) -0.96052(2) 0.97340(2)
Eu1_4 Eu 0.24502(3) -1.03948(2) 1.02660(2)
C1A C -0.0320(6) -0.7924(5) 1.1530(4)
C2A C -0.0463(6) -0.6775(5) 1.2356(4)
H1A H -0.0256 -0.7395 1.3276
C3A C -0.2232(6) -0.5928(5) 1.2427(5)
H2A H -0.2475 -0.5253 1.1543
H3A H -0.3097 -0.6686 1.2714
C4A C -0.2322(6) -0.4953(5) 1.3408(5)
H4A H -0.3437 -0.4378 1.3398
H5A H -0.2204 -0.5643 1.4308
C5A C -0.0908(6) -0.3802(5) 1.3047(4)
H6A H -0.0899 -0.3387 1.3812
C6A C -0.1298(6) -0.2408(5) 1.1843(4)
C7A C 0.0865(6) -0.4632(5) 1.2901(5)
H7A H 0.1161 -0.5312 1.3770
H8A H 0.1714 -0.3862 1.2590
C8A C 0.0917(6) -0.5592(5) 1.1920(5)
H9A H 0.0725 -0.4904 1.1030
H10A H 0.2041 -0.6140 1.1882
C9A C 0.5886(7) -0.1231(6) 1.6007(5)
H11A H 0.5851 -0.2161 1.6769
H12A H 0.7075 -0.0980 1.5783
C10A C 0.4846(6) 0.0119(6) 1.6388(4)
H13A H 0.3665 -0.0175 1.6669
C11A C 0.5190(7) -0.1559(6) 1.4818(5)
H14A H 0.5907 -0.2395 1.4582
H15A H 0.4036 -0.1902 1.5069
C12A C 0.5625(6) 0.0383(5) 1.7563(5)
O1A O 0.6813(4) 0.1272(4) 1.7377(3)
O2A O 0.5111(4) -0.0373(4) 1.8766(3)
O2A_2 O 0.5111(4) -0.0373(4) 0.8766(3)
O2_2 O 0.4889(4) 0.0373(4) 2.1234(3)
O3A O -0.2765(4) -0.2134(4) 1.1418(4)
O3A_2 O 0.7235(4) -0.2134(4) 2.1418(4)
O4A O -0.0138(4) -0.1476(4) 1.1302(3)
O4A_2 O 0.9862(4) -0.1476(4) 2.1302(3)
O4_2 O 1.0138(4) 0.1476(4) 1.8698(3)
O5A O -0.1695(4) -0.8239(4) 1.1164(3)
O5_2 O 0.1695(4) -0.1761(4) 0.8836(3)
O5A_2 O 0.8305(4) 0.1761(4) 2.1164(3)
O6A O 0.1143(4) -0.8498(4) 1.1283(3)
O6A_2 O 0.1143(4) 0.1502(4) 1.1283(3)
O6_2 O 0.8857(4) -0.1502(4) 1.8717(3)
O7A O 0.5837(4) 0.3035(4) 1.9237(3)
H18A H 0.4888 0.3005 1.8921
H19A H 0.5734 0.3160 2.0010
O8 O 0.9985(11) 0.0990(14) 0.5750(8)
H16 H 0.9095 0.1077 0.6269
H17 H 1.0874 0.0519 0.6136
loop_
_geom_bond_atom_site_label_1
_geom_bond_atom_site_label_2
_geom_bond_site_symmetry_1
_geom_bond_site_symmetry_2
Eu1 O1 1_555 1_555
C1 C2 1_555 1_555
C2 H1 1_555 1_555
C3 C2 1_555 1_555
H2 C3 1_555 1_555
H3 C3 1_555 1_555
C4 C3 1_555 1_555
H4 C4 1_555 1_555
H5 C4 1_555 1_555
C5 C4 1_555 1_555
H6 C5 1_555 1_555
C6 C5 1_555 1_555
C7 C5 1_555 1_555
H7 C7 1_555 1_555
H8 C7 1_555 1_555
C8 C2 1_555 1_555
H9 C8 1_555 1_555
H10 C8 1_555 1_555
C9 H11 1_555 1_555
H12 C9 1_555 1_555
C10 C9 1_555 1_555
H13 C10 1_555 1_555
C11 C9 1_555 1_555
H14 C11 1_555 1_555
H15 C11 1_555 1_555
C12 C10 1_555 1_555
O1 C12 1_555 1_555
O2 Eu1 1_555 1_555
O3 Eu1 1_555 1_555
O4 Eu1 1_555 1_555
O5 C1 1_555 1_555
O6 C1 1_555 1_555
O7 Eu1 1_555 1_555
O8 H16 1_555 1_555
H17 O8 1_555 1_555
H18 O7 1_555 1_555
H19 O7 1_555 1_555
Eu1A O1A 1_555 1_555
Eu1A_2 O2 1_555 1_555
Eu1A_3 O4 1_555 1_555
Eu1_2 O5 1_555 1_555
Eu1A_4 O6 1_555 1_555
Eu1_3 O2A 1_555 1_555
Eu1A_5 O5A 1_555 1_555
Eu1_4 O6A 1_555 1_555
C1A C2A 1_555 1_555
C2A H1A 1_555 1_555
C3A C2A 1_555 1_555
H2A C3A 1_555 1_555
H3A C3A 1_555 1_555
C4A C3A 1_555 1_555
H4A C4A 1_555 1_555
H5A C4A 1_555 1_555
C5A C4A 1_555 1_555
H6A C5A 1_555 1_555
C6A C5A 1_555 1_555
C7A C5A 1_555 1_555
H7A C7A 1_555 1_555
H8A C7A 1_555 1_555
C8A C2A 1_555 1_555
H9A C8A 1_555 1_555
H10A C8A 1_555 1_555
C9A H11A 1_555 1_555
H12A C9A 1_555 1_555
C10A C11 1_555 1_555
H13A C10A 1_555 1_555
C11A C10 1_555 1_555
H14A C11A 1_555 1_555
H15A C11A 1_555 1_555
C12A C10A 1_555 1_555
O1A C12A 1_555 1_555
O2A Eu1A 1_555 1_555
O2A_2 Eu1 1_555 1_555
O2_2 Eu1A 1_555 1_555
O3A Eu1A_3 1_555 1_555
O3A_2 Eu1A 1_555 1_555
O4A Eu1 1_555 1_555
O4A_2 Eu1A 1_555 1_555
O4_2 Eu1A 1_555 1_555
O5A C1A 1_555 1_555
O5_2 Eu1 1_555 1_555
O5A_2 Eu1A 1_555 1_555
O6A C1A 1_555 1_555
O6A_2 Eu1 1_555 1_555
O6_2 Eu1A 1_555 1_555
O7A Eu1A 1_555 1_555
H18A O7A 1_555 1_555
H19A O7A 1_555 1_555
C6 O3 1_555 1_555
C6 O4 1_555 1_555
C7 C8 1_555 1_555
C12 O2 1_555 1_555
Eu1A_2 O2A_2 1_555 1_555
Eu1A_3 O4A 1_555 1_555
Eu1_3 O2_2 1_555 1_555
C6A O3A 1_555 1_555
C6A O4A 1_555 1_555
C7A C8A 1_555 1_555
C9A C10A 1_555 1_555
C9A C11A 1_555 1_555
C12A O2A 1_555 1_555

#END
