
#######################################################################
#
#                 Cambridge Crystallographic Data Centre
#                                CCDC 
#
#######################################################################
#
# If this CIF has been generated from an entry in the Cambridge 
# Structural Database, then it will include bibliographic, chemical, 
# crystal, experimental, refinement or atomic coordinate data resulting 
# from the CCDC's data processing and validation procedures.
#
#######################################################################

data_BOWYIW
_symmetry_cell_setting           orthorhombic
_symmetry_space_group_name_H-M   'P 21 21 21'
_symmetry_Int_Tables_number      19
_space_group_name_Hall           'P 2ac 2ab'
loop_
_symmetry_equiv_pos_site_id
_symmetry_equiv_pos_as_xyz
1 x,y,z
2 1/2-x,-y,1/2+z
3 -x,1/2+y,1/2-z
4 1/2+x,1/2-y,-z
_cell_length_a                   10.2240(9)
_cell_length_b                   15.2414(14)
_cell_length_c                   21.0383(16)
_cell_angle_alpha                90
_cell_angle_beta                 90
_cell_angle_gamma                90
_cell_volume                     3278.36
loop_
_atom_site_label
_atom_site_type_symbol
_atom_site_fract_x
_atom_site_fract_y
_atom_site_fract_z
Cd1 Cd 0.189842(18) 0.122042(13) 0.130176(10)
Cd2 Cd -0.217120(18) 0.636080(13) -0.118870(10)
O1 O 0.0340(3) 0.18137(16) 0.06250(13)
O2 O 0.1560(2) 0.28133(14) 0.10853(11)
O3 O -0.1737(2) 0.49988(14) -0.08885(12)
O4 O -0.0951(2) -0.31004(15) -0.03433(11)
O5 O -0.2182(2) -0.21080(15) -0.08224(11)
O6 O 0.0543(2) 0.00457(14) 0.13782(10)
N1 N -0.1469(2) 0.36465(18) -0.05204(12)
N2 N 0.0737(2) -0.12343(17) 0.08259(12)
N3 N 0.1040(2) 0.14076(19) 0.23356(12)
N4 N 0.3634(2) 0.1174(2) 0.20869(13)
N5 N -0.2565(2) 0.62761(17) -0.22811(11)
N6 N -0.0143(2) 0.6464(2) -0.17590(12)
C1 C 0.0721(3) 0.2600(2) 0.06837(15)
C2 C -0.0866(3) 0.3063(2) -0.01503(15)
H3 H -0.1138 0.2481 -0.0169
C3 C 0.0142(3) 0.3276(2) 0.02601(15)
C4 C 0.0535(3) 0.4157(2) 0.02700(16)
H4 H 0.1219 0.4327 0.0534
C5 C -0.0068(3) 0.4769(2) -0.01006(16)
H5 H 0.0192 0.5354 -0.0087
C6 C -0.1096(3) 0.4500(2) -0.05066(15)
C7 C -0.1375(3) -0.2328(2) -0.03967(15)
C8 C 0.0213(3) -0.1801(2) 0.04045(14)
H6 H 0.0647 -0.2330 0.0339
C9 C -0.0903(3) -0.1657(2) 0.00679(15)
C10 C -0.1516(3) -0.0844(2) 0.01452(17)
H7 H -0.2250 -0.0705 -0.0095
C11 C -0.1031(3) -0.0253(2) 0.05769(17)
H8 H -0.1450 0.0283 0.0634
C12 C 0.0109(3) -0.0452(2) 0.09395(15)
C13 C -0.0230(3) 0.1523(3) 0.2457(2)
H9 H -0.0804 0.1595 0.2118
C14 C -0.0726(4) 0.1539(3) 0.3073(2)
H10 H -0.1612 0.1636 0.3142
C15 C 0.0091(4) 0.1411(3) 0.3573(2)
H11 H -0.0238 0.1412 0.3985
C16 C 0.1414(4) 0.1279(2) 0.34685(17)
C17 C 0.2342(5) 0.1154(3) 0.39767(18)
H12 H 0.2058 0.1156 0.4397
C18 C 0.3612(5) 0.1034(3) 0.38457(19)
H13 H 0.4193 0.0939 0.4179
C19 C 0.4098(4) 0.1046(3) 0.32142(19)
C20 C 0.5438(4) 0.0942(3) 0.3058(2)
H14 H 0.6050 0.0862 0.3380
C21 C 0.5834(4) 0.0958(3) 0.2440(2)
H15 H 0.6711 0.0887 0.2336
C22 C 0.4897(3) 0.1082(3) 0.19681(19)
H16 H 0.5174 0.1101 0.1547
C23 C 0.3237(3) 0.1163(2) 0.27056(15)
C24 C 0.1852(3) 0.1282(2) 0.28336(15)
C25 C -0.3747(3) 0.6166(3) -0.25346(16)
H17 H -0.4466 0.6140 -0.2264
C26 C -0.3954(3) 0.6086(3) -0.31873(17)
H18 H -0.4793 0.5996 -0.3346
C27 C -0.2922(3) 0.6142(3) -0.35858(17)
H19 H -0.3054 0.6104 -0.4022
C28 C -0.1642(3) 0.6258(3) -0.33444(16)
C29 C -0.0506(4) 0.6322(3) -0.37349(17)
H20 H -0.0595 0.6296 -0.4175
C30 C 0.0689(3) 0.6418(3) -0.34793(17)
H21 H 0.1416 0.6457 -0.3743
C31 C 0.0856(3) 0.6462(2) -0.28013(17)
C32 C 0.2096(3) 0.6543(3) -0.25157(19)
H22 H 0.2847 0.6578 -0.2764
C33 C 0.2179(3) 0.6567(3) -0.1868(2)
H23 H 0.2990 0.6613 -0.1671
C34 C 0.1042(3) 0.6521(2) -0.15035(17)
H24 H 0.1116 0.6532 -0.1063
C35 C -0.0230(3) 0.6423(2) -0.24002(15)
C36 C -0.1531(3) 0.6323(2) -0.26773(15)
Cd1C Cd -0.310158(18) 0.377958(13) -0.130176(10)
Cd2_2 Cd -0.217120(18) -0.363920(13) -0.118870(10)
Cd2C Cd 0.282880(18) -0.136080(13) 0.118870(10)
O3C O 0.3263(2) 0.00012(14) 0.08885(12)
O4_2 O -0.0951(2) 0.68996(15) -0.03433(11)
O5_2 O -0.2182(2) 0.78920(15) -0.08224(11)
N1C N 0.3531(2) 0.13535(18) 0.05204(12)
N2C N -0.4263(2) 0.62343(17) -0.08259(12)
O7 O -0.2421(8) 0.1705(6) 0.1088(4)
H1 H -0.269(9) 0.195(8) 0.077(4)
H2 H -0.163(2) 0.168(8) 0.105(5)
loop_
_geom_bond_atom_site_label_1
_geom_bond_atom_site_label_2
_geom_bond_site_symmetry_1
_geom_bond_site_symmetry_2
Cd1 O1 1_555 1_555
Cd2 O3 1_555 1_555
O1 C1 1_555 1_555
O2 Cd1 1_555 1_555
O3 C6 1_555 1_555
O4 C7 1_555 1_555
O5 C7 1_555 1_555
O6 Cd1 1_555 1_555
O7 H1 1_555 1_555
H2 O7 1_555 1_555
N1 C2 1_555 1_555
N2 C8 1_555 1_555
N3 Cd1 1_555 1_555
N4 Cd1 1_555 1_555
N5 Cd2 1_555 1_555
N6 Cd2 1_555 1_555
C1 O2 1_555 1_555
C2 H3 1_555 1_555
C3 C1 1_555 1_555
C4 C3 1_555 1_555
H4 C4 1_555 1_555
C5 C4 1_555 1_555
H5 C5 1_555 1_555
C6 N1 1_555 1_555
C7 C9 1_555 1_555
C8 H6 1_555 1_555
C9 C8 1_555 1_555
C10 C9 1_555 1_555
H7 C10 1_555 1_555
C11 C10 1_555 1_555
H8 C11 1_555 1_555
C12 O6 1_555 1_555
C13 N3 1_555 1_555
H9 C13 1_555 1_555
C14 C13 1_555 1_555
H10 C14 1_555 1_555
C15 C14 1_555 1_555
H11 C15 1_555 1_555
C16 C15 1_555 1_555
C17 C16 1_555 1_555
H12 C17 1_555 1_555
C18 C17 1_555 1_555
H13 C18 1_555 1_555
C19 C18 1_555 1_555
C20 C19 1_555 1_555
H14 C20 1_555 1_555
C21 C20 1_555 1_555
H15 C21 1_555 1_555
C22 N4 1_555 1_555
H16 C22 1_555 1_555
C23 N4 1_555 1_555
C24 N3 1_555 1_555
C25 N5 1_555 1_555
H17 C25 1_555 1_555
C26 C25 1_555 1_555
H18 C26 1_555 1_555
C27 C26 1_555 1_555
H19 C27 1_555 1_555
C28 C27 1_555 1_555
C29 C28 1_555 1_555
H20 C29 1_555 1_555
C30 C29 1_555 1_555
H21 C30 1_555 1_555
C31 C30 1_555 1_555
C32 C31 1_555 1_555
H22 C32 1_555 1_555
C33 C32 1_555 1_555
H23 C33 1_555 1_555
C34 N6 1_555 1_555
H24 C34 1_555 1_555
C35 N6 1_555 1_555
C36 N5 1_555 1_555
Cd1C O3 1_555 1_555
Cd2_2 O4 1_555 1_555
Cd2C N2 1_555 1_555
O3C Cd1 1_555 1_555
O4_2 Cd2 1_555 1_555
O5_2 Cd2 1_555 1_555
N1C Cd1 1_555 1_555
N2C Cd2 1_555 1_555
O5 Cd2_2 1_555 1_555
N1 Cd1C 1_555 1_555
N2 C12 1_555 1_555
C2 C3 1_555 1_555
C5 C6 1_555 1_555
C11 C12 1_555 1_555
C16 C24 1_555 1_555
C19 C23 1_555 1_555
C21 C22 1_555 1_555
C23 C24 1_555 1_555
C28 C36 1_555 1_555
C31 C35 1_555 1_555
C33 C34 1_555 1_555
C35 C36 1_555 1_555
Cd2C O3C 1_555 1_555

#END
