
#######################################################################
#
#                 Cambridge Crystallographic Data Centre
#                                CCDC 
#
#######################################################################
#
# If this CIF has been generated from an entry in the Cambridge 
# Structural Database, then it will include bibliographic, chemical, 
# crystal, experimental, refinement or atomic coordinate data resulting 
# from the CCDC's data processing and validation procedures.
#
#######################################################################

data_BOWZOD
_symmetry_cell_setting           triclinic
_symmetry_space_group_name_H-M   'P -1'
_symmetry_Int_Tables_number      2
_space_group_name_Hall           '-P 1'
loop_
_symmetry_equiv_pos_site_id
_symmetry_equiv_pos_as_xyz
1 x,y,z
2 -x,-y,-z
_cell_length_a                   12.12(1)
_cell_length_b                   13.108(8)
_cell_length_c                   20.67(2)
_cell_angle_alpha                70.83(4)
_cell_angle_beta                 78.80(5)
_cell_angle_gamma                78.28(5)
_cell_volume                     3008.05
loop_
_atom_site_label
_atom_site_type_symbol
_atom_site_fract_x
_atom_site_fract_y
_atom_site_fract_z
Zn1 Zn 0.8546(1) -0.80011(9) 0.68617(6)
Zn2 Zn 0.7083(1) -0.84368(9) 0.82246(6)
S1 S 0.3958(3) -1.1799(2) 0.6221(1)
S2 S 1.1601(2) -1.4654(2) 0.8903(1)
O1 O 0.7397(7) -0.8786(6) 0.6698(4)
O2 O 0.6437(7) -0.9308(5) 0.7764(4)
O3 O 0.4037(7) -1.1391(5) 0.5478(4)
O4 O 0.2841(6) -1.1761(6) 0.6624(4)
O5 O 0.7409(7) -1.6602(6) 0.6664(4)
O6 O 0.6169(7) -1.7026(6) 0.7637(4)
O7 O 0.9246(7) -0.9512(6) 0.7477(4)
O8 O 0.8265(7) -0.9792(6) 0.8532(4)
O9 O 1.2728(6) -1.4671(6) 0.8540(4)
O10 O 1.1444(6) -1.5073(5) 0.9633(3)
O11 O 0.9396(7) -1.7281(6) 0.7286(4)
O12 O 0.8180(6) -1.7487(6) 0.8259(4)
O13 O 0.9637(7) -0.7997(6) 0.6012(4)
O14 O 0.6041(7) -0.8573(6) 0.9106(4)
N1 N 1.0877(8) -0.8985(8) 0.5405(5)
N2 N 0.421(1) -0.8281(10) 0.9636(7)
C1 C 0.667(1) -0.9270(8) 0.7144(6)
C2 C 0.5997(10) -0.9904(8) 0.6902(6)
C3 C 0.6152(9) -0.9891(8) 0.6230(5)
C4 C 0.5528(9) -1.0484(8) 0.6018(5)
C5 C 0.4758(9) -1.1082(8) 0.6498(5)
C6 C 0.4569(10) -1.1090(8) 0.7169(6)
C7 C 0.521(1) -1.0543(9) 0.7388(6)
C8 C 0.6518(9) -1.6403(8) 0.7073(5)
C9 C 0.5853(9) -1.5237(8) 0.6842(5)
C10 C 0.6136(10) -1.4530(8) 0.6206(6)
C11 C 0.5590(10) -1.3464(8) 0.6010(6)
C12 C 0.4678(9) -1.3145(8) 0.6456(5)
C13 C 0.433(1) -1.3874(9) 0.7084(6)
C14 C 0.493(1) -1.4958(9) 0.7294(6)
C15 C 0.9018(10) -1.0058(8) 0.8087(6)
C16 C 0.9714(10) -1.1182(8) 0.8313(6)
C17 C 1.061(1) -1.1523(9) 0.7877(6)
C18 C 1.122(1) -1.2534(9) 0.8033(6)
C19 C 1.088(1) -1.3299(9) 0.8689(6)
C20 C 0.999(1) -1.2977(10) 0.9115(7)
C21 C 0.938(1) -1.1928(10) 0.8958(6)
C22 C 0.907(1) -1.7172(8) 0.7880(6)
C23 C 0.9701(9) -1.6522(8) 0.8123(5)
C24 C 1.0698(9) -1.6218(8) 0.7756(5)
C25 C 1.1330(9) -1.5634(8) 0.7983(5)
C26 C 1.0876(9) -1.5361(7) 0.8571(5)
C27 C 0.9812(10) -1.5657(8) 0.8942(6)
C28 C 0.922(1) -1.6231(8) 0.8715(6)
C29 C 1.0030(10) -0.8887(8) 0.5900(6)
C30 C 1.145(2) -0.809(1) 0.4999(9)
C31 C 1.128(1) -1.005(1) 0.5276(8)
C32 C 0.499(1) -0.827(1) 0.9081(8)
C33 C 0.300(2) -0.795(2) 0.956(1)
C34 C 0.457(1) -0.871(1) 1.0308(7)
H1 H 0.6687 -0.9477 0.5903
H2 H 0.5635 -1.0474 0.5548
H3 H 0.3998 -1.1468 0.7485
H4 H 0.5134 -1.0595 0.7863
H5 H 0.6722 -1.4777 0.5889
H6 H 0.5835 -1.2962 0.5580
H7 H 0.3690 -1.3650 0.7378
H8 H 0.4707 -1.5465 0.7726
H9 H 1.0811 -1.1019 0.7439
H10 H 1.1852 -1.2733 0.7723
H11 H 0.9774 -1.3491 0.9546
H12 H 0.8761 -1.1722 0.9273
H13 H 1.0978 -1.6399 0.7339
H14 H 1.2042 -1.5441 0.7735
H15 H 0.9509 -1.5455 0.9350
H16 H 0.8504 -1.6423 0.8955
H17 H 0.4737 -0.8010 0.8640
H18 H 0.3938 -0.8633 1.0650
H19 H 0.4877 -0.9462 1.0390
H20 H 0.5138 -0.8322 1.0330
H21 H 0.2888 -0.7231 0.9248
H22 H 0.2757 -0.8440 0.9388
H23 H 0.2569 -0.7956 0.9999
H24 H 0.9708 -0.9519 0.6181
H25 H 1.1721 -0.7801 0.5295
H26 H 1.2078 -0.8333 0.4702
H27 H 1.0943 -0.7538 0.4730
H28 H 1.0680 -1.0275 0.5149
H29 H 1.1901 -0.9979 0.4913
H30 H 1.1520 -1.0572 0.5684
Zn1_2 Zn 0.8546(1) -1.80011(9) 0.68617(6)
Zn2_2 Zn 0.7083(1) -1.84368(9) 0.82246(6)
O5_2 O 0.7409(7) -0.6602(6) 0.6664(4)
O6_2 O 0.6169(7) -0.7026(6) 0.7637(4)
O11_2 O 0.9396(7) -0.7281(6) 0.7286(4)
O12_2 O 0.8180(6) -0.7487(6) 0.8259(4)
O15 O 0.070(1) 0.1479(10) 0.3670(7)
N3 N 0.174(1) 0.260(1) 0.2698(8)
C35 C 0.128(1) 0.173(1) 0.3137(9)
C36 C 0.148(3) 0.352(2) 0.291(1)
C37 C 0.235(2) 0.270(2) 0.209(1)
H38 H 0.1497 0.1128 0.2957
H40 H 0.1743 0.3368 0.3338
H41 H 0.1838 0.4089 0.2571
H42 H 0.0679 0.3740 0.2958
H43 H 0.2487 0.2022 0.1994
H44 H 0.1960 0.3243 0.1747
H45 H 0.3059 0.2907 0.2094
O16 O 0.736(2) 0.515(1) 0.3522(9)
N4 N 0.725(1) 0.3734(9) 0.4487(6)
C38 C 0.690(2) 0.471(2) 0.407(1)
C39 C 0.659(2) 0.336(2) 0.509(1)
C40 C 0.835(2) 0.324(2) 0.421(1)
H39 H 0.6204 0.5089 0.4237
H46 H 0.6487 0.3860 0.5354
H47 H 0.5868 0.3295 0.5008
H48 H 0.6942 0.2668 0.5349
H49 H 0.8591 0.2563 0.4537
H50 H 0.8283 0.3109 0.3793
H51 H 0.8894 0.3714 0.4118
O17 O 0.679(2) 0.815(1) 0.2086(9)
N5 N 0.675(1) 0.8003(10) 0.3217(7)
C41 C 0.638(2) 0.786(1) 0.2680(10)
C42 C 0.773(2) 0.853(1) 0.3116(9)
C43 C 0.621(2) 0.760(2) 0.390(1)
H52 H 0.5733 0.7504 0.2786
H60 H 0.8311 0.8024 0.3348
H61 H 0.7993 0.8782 0.2636
H62 H 0.7521 0.9131 0.3297
H63 H 0.5441 0.7950 0.3929
H64 H 0.6225 0.6835 0.4007
H65 H 0.6591 0.7745 0.4209
O18 O 0.678(2) 0.163(2) 0.118(1)
N6 N 0.811(1) 0.046(1) 0.0723(8)
C44 C 0.731(3) 0.069(3) 0.121(2)
C45 C 0.824(3) 0.147(2) 0.020(2)
C46 C 0.897(2) -0.047(2) 0.087(1)
H31 H 0.8632 -0.1107 0.1100
H32 H 0.9422 -0.0536 0.0451
H33 H 0.9445 -0.0378 0.1160
H34 H 0.8588 0.1903 0.0371
H35 H 0.8705 0.1339 -0.0197
H36 H 0.7515 0.1847 0.0087
H37 H 0.7134 0.0104 0.1616
O19 O 0.493(3) 0.298(3) 0.109(2)
N7 N 0.423(2) 0.482(1) 0.0838(9)
C47 C 0.499(2) 0.391(2) 0.115(1)
C48 C 0.427(2) 0.579(2) 0.094(1)
C49 C 0.342(2) 0.462(2) 0.048(1)
H53 H 0.5542 0.3975 0.1393
H54 H 0.5021 0.5951 0.0807
H55 H 0.3772 0.6350 0.0660
H56 H 0.4027 0.5740 0.1409
H57 H 0.2668 0.4813 0.0683
H58 H 0.3519 0.5047 0.0005
H59 H 0.3543 0.3868 0.0506
O20? O 1.188(2) 0.427(2) 0.510(1)
N8? N 1.0000 0.5000 0.5000
C50? C 1.101(3) 0.511(2) 0.459(2)
C51? C 0.908(3) 0.563(2) 0.451(2)
C52? C 0.959(3) 0.480(3) 0.569(2)
H66? H 1.1163 0.5553 0.4124
H67? H 0.9189 0.6369 0.4310
H68? H 0.8344 0.5584 0.4762
H69? H 0.9162 0.5301 0.4148
H70? H 0.8991 0.4381 0.5810
H71? H 0.9322 0.5474 0.5792
H72? H 1.0190 0.4407 0.5959
loop_
_geom_bond_atom_site_label_1
_geom_bond_atom_site_label_2
_geom_bond_site_symmetry_1
_geom_bond_site_symmetry_2
Zn1 O1 1_555 1_555
Zn2 O2 1_555 1_555
S1 O3 1_555 1_555
S2 O9 1_555 1_555
O1 C1 1_555 1_555
O2 C1 1_555 1_555
O4 S1 1_555 1_555
O5 C8 1_555 1_555
O6 C8 1_555 1_555
O7 Zn1 1_555 1_555
O8 Zn2 1_555 1_555
O10 S2 1_555 1_555
O11 C22 1_555 1_555
O12 C22 1_555 1_555
O13 Zn1 1_555 1_555
O14 Zn2 1_555 1_555
O15 C35 1_555 1_555
O16 C38 1_555 1_555
O17 C41 1_555 1_555
O18 C44 1_555 1_555
O19 C47 1_555 1_555
N1 C29 1_555 1_555
N2 C32 1_555 1_555
N3 C35 1_555 1_555
N4 C38 1_555 1_555
N5 C41 1_555 1_555
N6 C44 1_555 1_555
N7 C47 1_555 1_555
C1 C2 1_555 1_555
C2 C3 1_555 1_555
C3 C4 1_555 1_555
C4 C5 1_555 1_555
C5 S1 1_555 1_555
C6 C5 1_555 1_555
C7 C2 1_555 1_555
C8 C9 1_555 1_555
C9 C10 1_555 1_555
C10 C11 1_555 1_555
C11 C12 1_555 1_555
C12 S1 1_555 1_555
C13 C12 1_555 1_555
C14 C9 1_555 1_555
C15 O7 1_555 1_555
C16 C15 1_555 1_555
C17 C16 1_555 1_555
C18 C17 1_555 1_555
C19 S2 1_555 1_555
C20 C19 1_555 1_555
C21 C16 1_555 1_555
C22 C23 1_555 1_555
C23 C24 1_555 1_555
C24 C25 1_555 1_555
C25 C26 1_555 1_555
C26 S2 1_555 1_555
C27 C26 1_555 1_555
C28 C23 1_555 1_555
C29 O13 1_555 1_555
C30 N1 1_555 1_555
C31 N1 1_555 1_555
C32 O14 1_555 1_555
C33 N2 1_555 1_555
C34 N2 1_555 1_555
C35 H38 1_555 1_555
C36 N3 1_555 1_555
C37 N3 1_555 1_555
C38 H39 1_555 1_555
C39 N4 1_555 1_555
C40 N4 1_555 1_555
C41 H52 1_555 1_555
C42 N5 1_555 1_555
C43 N5 1_555 1_555
C44 H37 1_555 1_555
C45 N6 1_555 1_555
C46 N6 1_555 1_555
C47 H53 1_555 1_555
C48 N7 1_555 1_555
C49 N7 1_555 1_555
H1 C3 1_555 1_555
H2 C4 1_555 1_555
H3 C6 1_555 1_555
H4 C7 1_555 1_555
H5 C10 1_555 1_555
H6 C11 1_555 1_555
H7 C13 1_555 1_555
H8 C14 1_555 1_555
H9 C17 1_555 1_555
H10 C18 1_555 1_555
H11 C20 1_555 1_555
H12 C21 1_555 1_555
H13 C24 1_555 1_555
H14 C25 1_555 1_555
H15 C27 1_555 1_555
H16 C28 1_555 1_555
H17 C32 1_555 1_555
H18 C34 1_555 1_555
H19 C34 1_555 1_555
H20 C34 1_555 1_555
H21 C33 1_555 1_555
H22 C33 1_555 1_555
H23 C33 1_555 1_555
H24 C29 1_555 1_555
H25 C30 1_555 1_555
H26 C30 1_555 1_555
H27 C30 1_555 1_555
H28 C31 1_555 1_555
H29 C31 1_555 1_555
H30 C31 1_555 1_555
H31 C46 1_555 1_555
H32 C46 1_555 1_555
H33 C46 1_555 1_555
H34 C45 1_555 1_555
H35 C45 1_555 1_555
H36 C45 1_555 1_555
H40 C36 1_555 1_555
H41 C36 1_555 1_555
H42 C36 1_555 1_555
H43 C37 1_555 1_555
H44 C37 1_555 1_555
H45 C37 1_555 1_555
H46 C39 1_555 1_555
H47 C39 1_555 1_555
H48 C39 1_555 1_555
H49 C40 1_555 1_555
H50 C40 1_555 1_555
H51 C40 1_555 1_555
H54 C48 1_555 1_555
H55 C48 1_555 1_555
H56 C48 1_555 1_555
H57 C49 1_555 1_555
H58 C49 1_555 1_555
H59 C49 1_555 1_555
H60 C42 1_555 1_555
H61 C42 1_555 1_555
H62 C42 1_555 1_555
H63 C43 1_555 1_555
H64 C43 1_555 1_555
H65 C43 1_555 1_555
Zn1_2 O5 1_555 1_555
Zn2_2 O6 1_555 1_555
O5_2 Zn1 1_555 1_555
O6_2 Zn2 1_555 1_555
O11_2 Zn1 1_555 1_555
O12_2 Zn2 1_555 1_555
O8 C15 1_555 1_555
O11 Zn1_2 1_555 1_555
O12 Zn2_2 1_555 1_555
C6 C7 1_555 1_555
C13 C14 1_555 1_555
C18 C19 1_555 1_555
C20 C21 1_555 1_555
C27 C28 1_555 1_555

#END
