
#######################################################################
#
#                 Cambridge Crystallographic Data Centre
#                                CCDC 
#
#######################################################################
#
# If this CIF has been generated from an entry in the Cambridge 
# Structural Database, then it will include bibliographic, chemical, 
# crystal, experimental, refinement or atomic coordinate data resulting 
# from the CCDC's data processing and validation procedures.
#
#######################################################################

data_BOWZUK
_symmetry_cell_setting           orthorhombic
_symmetry_space_group_name_H-M   'P n n a'
_symmetry_Int_Tables_number      52
_space_group_name_Hall           '-P 2a 2bc'
loop_
_symmetry_equiv_pos_site_id
_symmetry_equiv_pos_as_xyz
1 x,y,z
2 1/2-x,-y,z
3 1/2-x,1/2+y,1/2-z
4 x,1/2-y,1/2-z
5 -x,-y,-z
6 1/2+x,y,-z
7 1/2+x,1/2-y,1/2+z
8 -x,1/2+y,1/2+z
_cell_length_a                   28.4095(12)
_cell_length_b                   28.0922(11)
_cell_length_c                   9.4743(5)
_cell_angle_alpha                90
_cell_angle_beta                 90
_cell_angle_gamma                90
_cell_volume                     7561.3
loop_
_atom_site_label
_atom_site_type_symbol
_atom_site_fract_x
_atom_site_fract_y
_atom_site_fract_z
Zn1 Zn 0.131552(19) 0.511184(17) 0.90457(7)
N1 N 0.36746(11) 0.33949(11) 0.4006(3)
N2 N 0.38898(13) 0.07802(10) 0.6425(4)
N3 N 0.51327(12) 0.42657(11) 0.0927(3)
N4 N 0.57508(12) 0.47100(11) 0.0550(4)
N5 N 0.39479(11) 0.15532(10) 0.6213(3)
C1 C 0.40195(13) 0.36160(11) 0.3189(4)
C2 C 0.37168(14) 0.11606(13) 0.5789(4)
H1 H 0.3471 0.1157 0.5142
N6 N 0.20972(13) 0.44356(14) 0.5925(4)
C3 C 0.41765(14) 0.27943(12) 0.5078(4)
H2 H 0.4428 0.3006 0.5043
C4 C 0.24995(14) 0.41678(14) 0.5428(5)
C5 C 0.37435(14) 0.29312(12) 0.4569(4)
C6 C 0.38690(15) 0.20302(12) 0.5703(4)
C7 C 0.42852(15) 0.14129(14) 0.7162(4)
H3 H 0.4500 0.1607 0.7625
C8 C 0.47408(14) 0.40528(13) 0.1659(4)
N7 N 0.16226(14) 0.48294(13) 0.7332(5)
C9 C 0.43125(14) 0.33521(12) 0.2324(4)
H4 H 0.4265 0.3026 0.2243
C10 C 0.46731(15) 0.35647(13) 0.1579(4)
H5 H 0.4871 0.3380 0.1022
C11 C 0.32710(14) 0.36600(13) 0.4480(4)
C12 C 0.27618(18) 0.39116(17) 0.6370(5)
H6 H 0.2678 0.3905 0.7319
C13 C 0.34371(15) 0.21609(13) 0.5217(5)
H7 H 0.3185 0.1951 0.5272
C14 C 0.42428(15) 0.23421(12) 0.5645(4)
H8 H 0.4537 0.2251 0.5982
C15 C 0.54068(16) 0.46076(14) 0.1425(5)
H9 H 0.5361 0.4757 0.2289
C16 C 0.40877(15) 0.41097(13) 0.3244(5)
H10 H 0.3890 0.4296 0.3799
C17 C 0.33766(15) 0.26112(14) 0.4640(5)
H11 H 0.3083 0.2699 0.4295
C18 C 0.44456(15) 0.43232(13) 0.2480(5)
H12 H 0.4486 0.4651 0.2523
C19 C 0.42422(16) 0.09329(14) 0.7291(5)
H13 H 0.4424 0.0740 0.7875
C20 C 0.31546(16) 0.36601(17) 0.5901(5)
H14 H 0.3339 0.3492 0.6542
C21 C 0.20179(15) 0.45928(14) 0.7244(6)
H15 H 0.2219 0.4540 0.8002
C22 C 0.56813(18) 0.4426(2) -0.0602(5)
H16 H 0.5865 0.4423 -0.1414
C23 C 0.26041(19) 0.4157(2) 0.4024(6)
H17 H 0.2418 0.4326 0.3388
C24 C 0.52986(18) 0.4147(2) -0.0360(5)
H18 H 0.5175 0.3919 -0.0966
C25 C 0.2981(2) 0.3901(2) 0.3545(6)
H19 H 0.3044 0.3888 0.2582
C26 C 0.1437(3) 0.4828(3) 0.6062(8)
H20 H 0.1153 0.4972 0.5826
C27 C 0.1724(2) 0.4580(3) 0.5112(7)
H21 H 0.1674 0.4525 0.4155
O1 O 0.1696(3) 0.5167(4) 1.0676(8)
H22 H 0.1728 0.5468 1.0992
H23 H 0.1838 0.4926 1.1134
Zn1B Zn 0.368448(19) 0.011184(17) 0.59543(7)
Zn1E Zn 0.631552(19) 0.511184(17) 0.09543(7)
N2B N 0.11102(13) 0.57802(10) 0.8575(4)
N4E N 0.07508(12) 0.47100(11) 0.9450(4)
loop_
_geom_bond_atom_site_label_1
_geom_bond_atom_site_label_2
_geom_bond_site_symmetry_1
_geom_bond_site_symmetry_2
Zn1 N7 1_555 1_555
N1 C1 1_555 1_555
N2 C2 1_555 1_555
N3 C8 1_555 1_555
N4 C15 1_555 1_555
N5 C2 1_555 1_555
C1 C9 1_555 1_555
C2 H1 1_555 1_555
N6 C4 1_555 1_555
C3 H2 1_555 1_555
C4 C12 1_555 1_555
C5 N1 1_555 1_555
C6 N5 1_555 1_555
C7 N5 1_555 1_555
H3 C7 1_555 1_555
C8 C10 1_555 1_555
N7 C21 1_555 1_555
C9 H4 1_555 1_555
C10 C9 1_555 1_555
H5 C10 1_555 1_555
C11 N1 1_555 1_555
C12 H6 1_555 1_555
C13 C6 1_555 1_555
H7 C13 1_555 1_555
C14 C3 1_555 1_555
H8 C14 1_555 1_555
C15 N3 1_555 1_555
H9 C15 1_555 1_555
C16 C1 1_555 1_555
H10 C16 1_555 1_555
C17 C5 1_555 1_555
H11 C17 1_555 1_555
C18 C8 1_555 1_555
H12 C18 1_555 1_555
C19 N2 1_555 1_555
H13 C19 1_555 1_555
C20 C11 1_555 1_555
H14 C20 1_555 1_555
C21 N6 1_555 1_555
H15 C21 1_555 1_555
C22 N4 1_555 1_555
H16 C22 1_555 1_555
C23 C4 1_555 1_555
H17 C23 1_555 1_555
C24 N3 1_555 1_555
H18 C24 1_555 1_555
C25 C11 1_555 1_555
H19 C25 1_555 1_555
C26 N7 1_555 1_555
H20 C26 1_555 1_555
C27 N6 1_555 1_555
H21 C27 1_555 1_555
O1 Zn1 1_555 1_555
H22 O1 1_555 1_555
H23 O1 1_555 1_555
Zn1B N2 1_555 1_555
Zn1E N4 1_555 1_555
N2B Zn1 1_555 1_555
N4E Zn1 1_555 1_555
C3 C5 1_555 1_555
C6 C14 1_555 1_555
C7 C19 1_555 1_555
C12 C20 1_555 1_555
C13 C17 1_555 1_555
C16 C18 1_555 1_555
C22 C24 1_555 1_555
C23 C25 1_555 1_555
C26 C27 1_555 1_555

#END
