
#######################################################################
#
#                 Cambridge Crystallographic Data Centre
#                                CCDC 
#
#######################################################################
#
# If this CIF has been generated from an entry in the Cambridge 
# Structural Database, then it will include bibliographic, chemical, 
# crystal, experimental, refinement or atomic coordinate data resulting 
# from the CCDC's data processing and validation procedures.
#
#######################################################################

data_BOWZOE
_symmetry_cell_setting           monoclinic
_symmetry_space_group_name_H-M   'C 2/c'
_symmetry_Int_Tables_number      15
_space_group_name_Hall           '-C 2yn'
loop_
_symmetry_equiv_pos_site_id
_symmetry_equiv_pos_as_xyz
1 x,y,z
2 -x,y,1/2-z
3 1/2+x,1/2+y,z
4 1/2-x,1/2+y,1/2-z
5 -x,-y,-z
6 x,-y,1/2+z
7 1/2-x,1/2-y,-z
8 1/2+x,1/2-y,1/2+z
_cell_length_a                   34.4789(9)
_cell_length_b                   29.8973(6)
_cell_length_c                   16.2075(4)
_cell_angle_alpha                90
_cell_angle_beta                 109.005(2)
_cell_angle_gamma                90
_cell_volume                     15796.4
loop_
_atom_site_label
_atom_site_type_symbol
_atom_site_fract_x
_atom_site_fract_y
_atom_site_fract_z
Zn1 Zn 0.119708(8) 0.290336(9) 0.011624(18)
Zn2 Zn 0.122262(8) 0.289779(9) 0.228438(19)
N1 N -0.00268(6) 0.29237(7) 0.13579(14)
N2 N 0.34954(5) 0.10793(6) 0.19741(11)
N3 N 0.35196(5) -0.15057(6) 0.23974(12)
N4 N -0.14392(5) 0.64878(6) -0.03335(11)
N5 N -0.14603(5) 0.38885(6) -0.03686(12)
N6 N 0.56020(5) 0.21332(6) 0.44883(12)
N7 N 0.15563(5) 0.24821(6) -0.02995(12)
N8 N 0.33676(5) -0.07962(6) 0.21147(11)
N9 N -0.15728(5) 0.57686(6) -0.05159(11)
N10 N 0.49582(5) 0.19930(6) 0.37558(12)
O1 O 0.13397(4) 0.26585(5) 0.12834(10)
H1 H 0.1484 0.2390 0.1374
N11 N -0.34671(5) 0.25226(6) -0.17776(12)
C1 C 0.38666(6) 0.13009(7) 0.24046(13)
C2 C 0.41512(6) 0.11177(7) 0.31476(13)
H2 H 0.4098 0.0841 0.3350
C3 C 0.30949(6) -0.00519(7) 0.21845(13)
H3 H 0.2866 -0.0181 0.2271
C4 C 0.34691(6) 0.06053(7) 0.20205(13)
N12 N 0.20854(5) 0.20280(6) -0.00154(12)
C5 C -0.11705(6) 0.50854(7) -0.04074(14)
H4 H -0.0946 0.5256 -0.0416
C6 C -0.18398(6) 0.45787(8) -0.03719(14)
H5 H -0.2063 0.4411 -0.0347
C7 C 0.37507(6) -0.01310(7) 0.19596(14)
H6 H 0.3959 -0.0312 0.1896
C8 C 0.53351(6) 0.18191(7) 0.41050(13)
H7 H 0.5400 0.1518 0.4080
C9 C 0.31277(6) 0.04073(7) 0.21509(13)
H8 H 0.2919 0.0587 0.2216
C10 C 0.31383(6) 0.13203(7) 0.14815(12)
C11 C -0.19050(7) 0.59901(8) -0.10726(14)
H9 H -0.2141 0.5861 -0.1455
C12 C -0.10980(7) 0.36514(7) 0.00782(15)
C13 C 0.45119(6) 0.13401(7) 0.35911(13)
H10 H 0.4699 0.1214 0.4087
C14 C 0.39596(6) 0.17170(7) 0.21035(13)
H11 H 0.3777 0.1843 0.1602
C15 C 0.30995(6) -0.14661(8) 0.20057(14)
H12 H 0.2913 -0.1702 0.1887
C16 C 0.30020(6) -0.10310(7) 0.18226(14)
H13 H 0.2742 -0.0913 0.1554
C17 C -0.15303(7) 0.52934(7) -0.04337(14)
C18 C -0.14780(6) 0.43594(7) -0.03630(14)
C19 C 0.30521(6) 0.17441(7) 0.17413(14)
H14 H 0.3225 0.1869 0.2255
C20 C -0.31244(7) 0.27054(7) -0.18164(15)
H15 H -0.3019 0.2665 -0.2271
C21 C -0.18227(6) 0.64304(8) -0.09569(14)
H16 H -0.1995 0.6660 -0.1248
C22 C 0.36695(7) -0.10937(7) 0.24508(14)
H17 H 0.3946 -0.1021 0.2688
N13 N 0.06265(6) 0.28127(7) 0.20259(16)
C23 C 0.25193(6) 0.13612(7) 0.02347(13)
H18 H 0.2337 0.1230 -0.0261
C24 C -0.12977(6) 0.60801(7) -0.00795(14)
H19 H -0.1046 0.6018 0.0338
C25 C -0.10427(7) 0.32231(7) -0.02055(15)
H20 H -0.1242 0.3100 -0.0685
C26 C -0.18688(6) 0.50395(8) -0.04174(14)
H21 H -0.2112 0.5180 -0.0437
C27 C 0.27088(6) 0.19805(7) 0.12364(15)
H22 H 0.2657 0.2266 0.1401
C28 C 0.34078(6) -0.03204(7) 0.20870(13)
C29 C -0.03976(7) 0.31619(8) 0.09305(16)
C30 C 0.37815(6) 0.03329(7) 0.19274(13)
H23 H 0.4011 0.0462 0.1844
C31 C 0.18922(6) 0.23370(7) 0.03104(14)
H24 H 0.1982 0.2436 0.0886
C32 C 0.24448(6) 0.17868(7) 0.04865(14)
N14 N -0.29493(6) 0.29585(6) -0.11069(12)
C33 C -0.25684(6) 0.31908(7) -0.09296(14)
C34 C -0.08008(6) 0.38277(8) 0.08085(15)
H25 H -0.0838 0.4109 0.1014
C35 C -0.11412(6) 0.46244(7) -0.03691(14)
H26 H -0.0896 0.4487 -0.0347
C36 C 0.03417(7) 0.31157(9) 0.16973(19)
H27 H 0.0390 0.3422 0.1700
C37 C 0.45912(5) 0.17519(7) 0.32889(13)
C38 C -0.04523(7) 0.35868(8) 0.12276(16)
H28 H -0.0253 0.3708 0.1710
C39 C 0.28675(6) 0.11323(7) 0.07263(13)
H29 H 0.2921 0.0850 0.0550
C40 C -0.18346(7) 0.36413(7) -0.05748(14)
C41 C 0.18602(7) 0.19696(8) -0.08882(15)
H30 H 0.1918 0.1777 -0.1282
C42 C 0.43194(6) 0.19396(7) 0.25464(14)
H31 H 0.4378 0.2214 0.2345
C43 C -0.06935(7) 0.29785(8) 0.02200(17)
H32 H -0.0659 0.2693 0.0028
C44 C -0.19075(7) 0.33776(8) 0.00530(14)
H33 H -0.1708 0.3352 0.0599
C45 C 0.15346(7) 0.22547(8) -0.10479(15)
H34 H 0.1329 0.2289 -0.1583
C46 C -0.21273(8) 0.36704(8) -0.13955(15)
H35 H -0.2074 0.3840 -0.1828
C47 C 0.04318(8) 0.24069(9) 0.1892(2)
H36 H 0.0557 0.2131 0.2062
C48 C -0.24977(8) 0.34495(8) -0.15749(15)
H37 H -0.2697 0.3474 -0.2121
C49 C -0.35105(7) 0.26640(9) -0.10030(17)
H38 H -0.3725 0.2587 -0.0802
C50 C -0.31927(8) 0.29316(9) -0.05826(17)
H39 H -0.3147 0.3070 -0.0046
C51 C -0.22767(7) 0.31477(9) -0.01201(14)
H40 H -0.2325 0.2968 0.0305
C52 C 0.53869(8) 0.25255(9) 0.4379(2)
H41 H 0.5496 0.2803 0.4590
C53 C 0.00267(8) 0.24719(10) 0.1470(2)
H42 H -0.0175 0.2253 0.1293
C54 C 0.49902(8) 0.24433(9) 0.3915(3)
H43 H 0.4780 0.2652 0.3738
Zn1D Zn -0.119708(8) 0.709664(9) -0.011624(18)
Zn1G Zn 0.619708(8) 0.209664(9) 0.511624(18)
Zn2C Zn 0.377738(8) -0.210221(9) 0.271562(19)
Zn2G Zn -0.377738(8) 0.210221(9) -0.271562(19)
N3C N 0.14804(5) 0.34943(6) 0.26026(12)
N4D N 0.14392(5) 0.35122(6) 0.03335(11)
N6G N 0.06020(5) 0.28668(6) -0.05117(12)
N11G N 0.15329(5) 0.24774(6) 0.32224(12)
loop_
_geom_bond_atom_site_label_1
_geom_bond_atom_site_label_2
_geom_bond_site_symmetry_1
_geom_bond_site_symmetry_2
Zn1 N7 1_555 1_555
Zn2 O1 1_555 1_555
N1 C29 1_555 1_555
N2 C1 1_555 1_555
N3 C15 1_555 1_555
N4 C21 1_555 1_555
N5 C12 1_555 1_555
N6 C8 1_555 1_555
N7 C31 1_555 1_555
N8 C16 1_555 1_555
N9 C11 1_555 1_555
N10 C8 1_555 1_555
O1 Zn1 1_555 1_555
H1 O1 1_555 1_555
N11 C20 1_555 1_555
C1 C2 1_555 1_555
C2 H2 1_555 1_555
C3 H3 1_555 1_555
C4 N2 1_555 1_555
N12 C31 1_555 1_555
C5 H4 1_555 1_555
C6 H5 1_555 1_555
C7 H6 1_555 1_555
C8 H7 1_555 1_555
C9 C3 1_555 1_555
H8 C9 1_555 1_555
C10 N2 1_555 1_555
C11 H9 1_555 1_555
C12 C25 1_555 1_555
C13 C2 1_555 1_555
H10 C13 1_555 1_555
C14 C1 1_555 1_555
H11 C14 1_555 1_555
C15 H12 1_555 1_555
C16 C15 1_555 1_555
H13 C16 1_555 1_555
C17 N9 1_555 1_555
C18 N5 1_555 1_555
C19 C10 1_555 1_555
H14 C19 1_555 1_555
C20 H15 1_555 1_555
C21 C11 1_555 1_555
H16 C21 1_555 1_555
C22 N3 1_555 1_555
H17 C22 1_555 1_555
N13 Zn2 1_555 1_555
C23 H18 1_555 1_555
C24 N4 1_555 1_555
H19 C24 1_555 1_555
C25 H20 1_555 1_555
C26 C6 1_555 1_555
H21 C26 1_555 1_555
C27 C19 1_555 1_555
H22 C27 1_555 1_555
C28 N8 1_555 1_555
C29 C38 1_555 1_555
C30 C4 1_555 1_555
H23 C30 1_555 1_555
C31 H24 1_555 1_555
C32 N12 1_555 1_555
N14 C20 1_555 1_555
C33 N14 1_555 1_555
C34 C12 1_555 1_555
H25 C34 1_555 1_555
C35 C5 1_555 1_555
H26 C35 1_555 1_555
C36 N1 1_555 1_555
H27 C36 1_555 1_555
C37 N10 1_555 1_555
C38 C34 1_555 1_555
H28 C38 1_555 1_555
C39 C10 1_555 1_555
H29 C39 1_555 1_555
C40 N5 1_555 1_555
C41 N12 1_555 1_555
H30 C41 1_555 1_555
C42 C14 1_555 1_555
H31 C42 1_555 1_555
C43 C25 1_555 1_555
H32 C43 1_555 1_555
C44 C40 1_555 1_555
H33 C44 1_555 1_555
C45 N7 1_555 1_555
H34 C45 1_555 1_555
C46 C40 1_555 1_555
H35 C46 1_555 1_555
C47 N13 1_555 1_555
H36 C47 1_555 1_555
C48 C33 1_555 1_555
H37 C48 1_555 1_555
C49 N11 1_555 1_555
H38 C49 1_555 1_555
C50 N14 1_555 1_555
H39 C50 1_555 1_555
C51 C33 1_555 1_555
H40 C51 1_555 1_555
C52 N6 1_555 1_555
H41 C52 1_555 1_555
C53 N1 1_555 1_555
H42 C53 1_555 1_555
C54 N10 1_555 1_555
H43 C54 1_555 1_555
Zn1D N4 1_555 1_555
Zn1G N6 1_555 1_555
Zn2C N3 1_555 1_555
Zn2G N11 1_555 1_555
N3C Zn2 1_555 1_555
N4D Zn1 1_555 1_555
N6G Zn1 1_555 1_555
N11G Zn2 1_555 1_555
N8 C22 1_555 1_555
N9 C24 1_555 1_555
C3 C28 1_555 1_555
C4 C9 1_555 1_555
C5 C17 1_555 1_555
C6 C18 1_555 1_555
C7 C28 1_555 1_555
C7 C30 1_555 1_555
C13 C37 1_555 1_555
C17 C26 1_555 1_555
C18 C35 1_555 1_555
N13 C36 1_555 1_555
C23 C32 1_555 1_555
C23 C39 1_555 1_555
C27 C32 1_555 1_555
C29 C43 1_555 1_555
C37 C42 1_555 1_555
C41 C45 1_555 1_555
C44 C51 1_555 1_555
C46 C48 1_555 1_555
C47 C53 1_555 1_555
C49 C50 1_555 1_555
C52 C54 1_555 1_555

#END
