
#######################################################################
#
#                 Cambridge Crystallographic Data Centre
#                                CCDC 
#
#######################################################################
#
# If this CIF has been generated from an entry in the Cambridge 
# Structural Database, then it will include bibliographic, chemical, 
# crystal, experimental, refinement or atomic coordinate data resulting 
# from the CCDC's data processing and validation procedures.
#
#######################################################################

data_BOXBIB01
_symmetry_cell_setting           rhombohedral
_symmetry_space_group_name_H-M   'R -3 c'
_symmetry_Int_Tables_number      167
_space_group_name_Hall           '-R 3 2"c'
loop_
_symmetry_equiv_pos_site_id
_symmetry_equiv_pos_as_xyz
1 x,y,z
2 -y,x-y,z
3 -x+y,-x,z
4 x-y,-y,1/2-z
5 -x,-x+y,1/2-z
6 y,x,1/2-z
7 2/3+x,1/3+y,1/3+z
8 2/3-y,1/3+x-y,1/3+z
9 2/3-x+y,1/3-x,1/3+z
10 2/3+x-y,1/3-y,5/6-z
11 2/3-x,1/3-x+y,5/6-z
12 2/3+y,1/3+x,5/6-z
13 1/3+x,2/3+y,2/3+z
14 1/3-y,2/3+x-y,2/3+z
15 1/3-x+y,2/3-x,2/3+z
16 1/3+x-y,2/3-y,1/6-z
17 1/3-x,2/3-x+y,1/6-z
18 1/3+y,2/3+x,1/6-z
19 -x,-y,-z
20 y,-x+y,-z
21 x-y,x,-z
22 -x+y,y,1/2+z
23 x,x-y,1/2+z
24 -y,-x,1/2+z
25 1/3-x,2/3-y,2/3-z
26 1/3+y,2/3-x+y,2/3-z
27 1/3+x-y,2/3+x,2/3-z
28 1/3-x+y,2/3+y,1/6+z
29 1/3+x,2/3+x-y,1/6+z
30 1/3-y,2/3-x,1/6+z
31 2/3-x,1/3-y,1/3-z
32 2/3+y,1/3-x+y,1/3-z
33 2/3+x-y,1/3+x,1/3-z
34 2/3-x+y,1/3+y,5/6+z
35 2/3+x,1/3+x-y,5/6+z
36 2/3-y,1/3-x,5/6+z
_cell_length_a                   13.292(11)
_cell_length_b                   13.292(11)
_cell_length_c                   41.79(4)
_cell_angle_alpha                90
_cell_angle_beta                 90
_cell_angle_gamma                120
_cell_volume                     6394.16
loop_
_atom_site_label
_atom_site_type_symbol
_atom_site_fract_x
_atom_site_fract_y
_atom_site_fract_z
N1 N 0.7051(5) -0.3462(7) 0.02881(17)
C1 C 0.6121(6) -0.3696(8) 0.0460(2)
C2 C 0.7150(6) -0.4361(8) 0.0180(2)
H1 H 0.6030 -0.3086 0.0533
C3 C 0.5292(7) -0.4810(10) 0.0530(3)
C4 C 0.6379(6) -0.5527(8) 0.0252(2)
H2 H 0.7777 -0.4196 0.0048
H3 H 0.4646 -0.4949 0.0650
C5 C 0.5411(7) -0.5730(9) 0.0425(3)
Si1 Si 0.6667 -0.6667 0.00921(10)
H4 H 0.4837 -0.6488 0.0470
C6 C 0.6667 -0.6667 -0.0349(4)
H5 H 0.7042 -0.7077 -0.0426
I1 I 1.02773(4) -0.16998(6) 0.04541(2)
Cu1 Cu 0.83852(8) -0.18145(11) 0.01810(3)
N1A N 0.3462(7) -0.9487(9) 0.02881(17)
C1A C 0.3696(8) -1.0183(10) 0.0460(2)
C2A C 0.4361(8) -0.8489(10) 0.0180(2)
H1A H 0.3086 -1.0884 0.0533
C3A C 0.4810(10) -0.9898(12) 0.0530(3)
C4A C 0.5527(8) -0.8094(10) 0.0252(2)
H2A H 0.4196 -0.8027 0.0048
H3A H 0.4949 -1.0405 0.0650
C5A C 0.5730(9) -0.8859(11) 0.0425(3)
H4A H 0.6488 -0.8675 0.0470
H5A H 0.7077 -0.5881 -0.0426
N1B N 0.9487(9) -0.7051(5) 0.02881(17)
C1B C 1.0183(10) -0.6121(6) 0.0460(2)
C2B C 0.8489(10) -0.7150(6) 0.0180(2)
H1B H 1.0884 -0.6030 0.0533
C3B C 0.9898(12) -0.5292(7) 0.0530(3)
C4B C 0.8094(10) -0.6379(6) 0.0252(2)
H2B H 0.8027 -0.7777 0.0048
H3B H 1.0405 -0.4646 0.0650
C5B C 0.8859(11) -0.5411(7) 0.0425(3)
H4B H 0.8675 -0.4837 0.0470
H5B H 0.5881 -0.7042 -0.0426
I1A I 0.16998(6) -0.80229(7) 0.04541(2)
Cu1A Cu 0.18145(11) -0.98003(14) 0.01810(3)
I1B I -0.19771(7) -1.02773(4) 0.04541(2)
Cu1B Cu -0.01997(14) -0.83852(8) 0.01810(3)
N1B_2 N -0.0513(9) -0.7051(5) 0.02881(17)
I1_2 I 0.02773(4) -1.16998(6) 0.04541(2)
I1B_2 I 0.80229(7) -0.02773(4) 0.04541(2)
I1R I -0.02773(4) -0.83002(6) -0.04541(2)
I1S I 0.83002(6) -0.19771(7) -0.04541(2)
I1T I 0.19771(7) -0.97227(4) -0.04541(2)
Cu1_2 Cu -0.16148(8) -1.18145(11) 0.01810(3)
Cu1A_2 Cu 1.18145(11) 0.01997(14) 0.01810(3)
Cu1B_2 Cu 0.98003(14) -0.83852(8) 0.01810(3)
Cu1R Cu 0.16148(8) -0.81855(11) -0.01810(3)
Cu1S Cu -0.18145(11) -1.01997(14) -0.01810(3)
Cu1T Cu 1.01997(14) -0.16148(8) -0.01810(3)
loop_
_geom_bond_atom_site_label_1
_geom_bond_atom_site_label_2
_geom_bond_site_symmetry_1
_geom_bond_site_symmetry_2
N1 C1 1_555 1_555
C1 H1 1_555 1_555
C2 N1 1_555 1_555
C3 C1 1_555 1_555
C4 C2 1_555 1_555
H2 C2 1_555 1_555
H3 C3 1_555 1_555
C5 C3 1_555 1_555
Si1 C4 1_555 1_555
H4 C5 1_555 1_555
C6 Si1 1_555 1_555
H5 C6 1_555 1_555
I1 Cu1 1_555 1_555
Cu1 N1 1_555 1_555
N1A C1A 1_555 1_555
C1A H1A 1_555 1_555
C2A N1A 1_555 1_555
C3A C1A 1_555 1_555
C4A Si1 1_555 1_555
H2A C2A 1_555 1_555
H3A C3A 1_555 1_555
C5A C3A 1_555 1_555
H4A C5A 1_555 1_555
H5A C6 1_555 1_555
N1B C1B 1_555 1_555
C1B H1B 1_555 1_555
C2B N1B 1_555 1_555
C3B C1B 1_555 1_555
C4B Si1 1_555 1_555
H2B C2B 1_555 1_555
H3B C3B 1_555 1_555
C5B C3B 1_555 1_555
H4B C5B 1_555 1_555
H5B C6 1_555 1_555
I1A Cu1A 1_555 1_555
Cu1A N1A 1_555 1_555
I1B Cu1B 1_555 1_555
Cu1B I1A 1_555 1_555
N1B_2 Cu1B 1_555 1_555
I1_2 Cu1A 1_555 1_555
I1B_2 Cu1 1_555 1_555
I1R Cu1B 1_555 1_555
I1S Cu1 1_555 1_555
I1T Cu1A 1_555 1_555
Cu1_2 I1B 1_555 1_555
Cu1A_2 I1 1_555 1_555
Cu1B_2 N1B 1_555 1_555
Cu1R I1A 1_555 1_555
Cu1S I1B 1_555 1_555
Cu1T I1 1_555 1_555
C4 C5 1_555 1_555
C2A C4A 1_555 1_555
C4A C5A 1_555 1_555
C2B C4B 1_555 1_555
C4B C5B 1_555 1_555
I1_2 Cu1_2 1_555 1_555
I1R Cu1R 1_555 1_555
I1R Cu1S 1_555 1_555
I1S Cu1T 1_555 1_555
I1T Cu1R 1_555 1_555

#END
