
#######################################################################
#
#                 Cambridge Crystallographic Data Centre
#                                CCDC 
#
#######################################################################
#
# If this CIF has been generated from an entry in the Cambridge 
# Structural Database, then it will include bibliographic, chemical, 
# crystal, experimental, refinement or atomic coordinate data resulting 
# from the CCDC's data processing and validation procedures.
#
#######################################################################

data_BOXCIC
_symmetry_cell_setting           monoclinic
_symmetry_space_group_name_H-M   'P 21/n'
_symmetry_Int_Tables_number      14
_space_group_name_Hall           '-P 2yn'
loop_
_symmetry_equiv_pos_site_id
_symmetry_equiv_pos_as_xyz
1 x,y,z
2 1/2-x,1/2+y,1/2-z
3 -x,-y,-z
4 1/2+x,1/2-y,1/2+z
_cell_length_a                   10.6679(18)
_cell_length_b                   17.828(3)
_cell_length_c                   13.673(3)
_cell_angle_alpha                90
_cell_angle_beta                 92.881(4)
_cell_angle_gamma                90
_cell_volume                     2597.14
loop_
_atom_site_label
_atom_site_type_symbol
_atom_site_fract_x
_atom_site_fract_y
_atom_site_fract_z
I1 I 0.82798(2) 0.69658(2) -0.12159(2)
Cu1 Cu 0.70445(3) 0.79282(2) -0.02052(3)
Si1 Si 0.21348(8) 0.88618(5) 0.03758(6)
C1 C 0.1816(3) 0.9042(2) -0.0958(2)
H1 H 0.1465 0.8589 -0.1272
H2 H 0.2600 0.9176 -0.1258
H3 H 0.1214 0.9455 -0.1044
C2 C 0.2944(3) 0.96910(16) 0.0978(2)
C3 C 0.2841(3) 1.04214(17) 0.0572(2)
H4 H 0.2367 1.0472 -0.0031
N1 N 0.3347(2) 1.10382(14) 0.09570(17)
C4 C 0.4051(3) 1.09718(17) 0.1834(2)
C5 C 0.4595(3) 1.16163(18) 0.2277(2)
H5 H 0.4498 1.2091 0.1967
C6 C 0.5265(3) 1.15561(19) 0.3155(2)
H6 H 0.5631 1.1993 0.3447
C7 C 0.5423(3) 1.0859(2) 0.3635(3)
H7 H 0.5879 1.0832 0.4249
C8 C 0.4918(3) 1.0222(2) 0.3215(2)
H8 H 0.5038 0.9751 0.3533
C9 C 0.4217(3) 1.02625(17) 0.2307(2)
C10 C 0.3653(3) 0.96236(17) 0.1848(2)
H9 H 0.3765 0.9144 0.2142
C11 C 0.0636(3) 0.86770(16) 0.0998(2)
C12 C -0.0458(3) 0.84418(17) 0.0446(2)
H10 H -0.0391 0.8370 -0.0238
N2 N -0.1568(2) 0.83146(14) 0.08162(18)
C13 C -0.1675(3) 0.84261(16) 0.1806(2)
C14 C -0.2853(3) 0.83218(19) 0.2218(2)
H11 H -0.3562 0.8177 0.1813
C15 C -0.2970(3) 0.8431(2) 0.3204(2)
H12 H -0.3765 0.8363 0.3474
C16 C -0.1934(3) 0.8640(2) 0.3823(2)
H13 H -0.2035 0.8713 0.4503
C17 C -0.0778(3) 0.87375(19) 0.3443(2)
H14 H -0.0077 0.8871 0.3863
C18 C -0.0623(3) 0.86410(17) 0.2427(2)
C19 C 0.0527(3) 0.87640(17) 0.1995(2)
H15 H 0.1241 0.8909 0.2395
C20 C 0.3237(3) 0.80537(17) 0.0572(2)
C21 C 0.4427(3) 0.81096(17) 0.0172(2)
H16 H 0.4581 0.8542 -0.0210
N3 N 0.5342(2) 0.76172(14) 0.02811(17)
C22 C 0.5125(3) 0.69775(17) 0.0818(2)
C23 C 0.6079(3) 0.64315(18) 0.0942(2)
H17 H 0.6864 0.6506 0.0659
C24 C 0.5876(3) 0.5798(2) 0.1468(3)
H18 H 0.6519 0.5431 0.1544
C25 C 0.4712(4) 0.5681(2) 0.1902(3)
H19 H 0.4580 0.5237 0.2266
C26 C 0.3786(3) 0.6201(2) 0.1802(3)
H20 H 0.3015 0.6119 0.2103
C27 C 0.3953(3) 0.68665(18) 0.1252(2)
C28 C 0.3018(3) 0.74210(17) 0.1121(2)
H21 H 0.2234 0.7359 0.1411
Cu1_2 Cu -0.29555(3) 0.79282(2) -0.02052(3)
Cu1B Cu 0.29555(3) 1.20718(2) 0.02052(3)
N1B N 0.6653(2) 0.89618(14) -0.09570(17)
N2_2 N 0.8432(2) 0.83146(14) 0.08162(18)
loop_
_geom_bond_atom_site_label_1
_geom_bond_atom_site_label_2
_geom_bond_site_symmetry_1
_geom_bond_site_symmetry_2
I1 Cu1 1_555 1_555
Cu1 N3 1_555 1_555
Si1 C1 1_555 1_555
C1 H1 1_555 1_555
H2 C1 1_555 1_555
H3 C1 1_555 1_555
C2 Si1 1_555 1_555
C3 C2 1_555 1_555
H4 C3 1_555 1_555
N1 C3 1_555 1_555
C4 N1 1_555 1_555
C5 C4 1_555 1_555
H5 C5 1_555 1_555
C6 C5 1_555 1_555
H6 C6 1_555 1_555
C7 C6 1_555 1_555
H7 C7 1_555 1_555
C8 C7 1_555 1_555
H8 C8 1_555 1_555
C9 C4 1_555 1_555
C10 C2 1_555 1_555
H9 C10 1_555 1_555
C11 Si1 1_555 1_555
C12 C11 1_555 1_555
H10 C12 1_555 1_555
N2 C12 1_555 1_555
C13 N2 1_555 1_555
C14 C13 1_555 1_555
H11 C14 1_555 1_555
C15 C14 1_555 1_555
H12 C15 1_555 1_555
C16 C15 1_555 1_555
H13 C16 1_555 1_555
C17 C16 1_555 1_555
H14 C17 1_555 1_555
C18 C13 1_555 1_555
C19 C11 1_555 1_555
H15 C19 1_555 1_555
C20 Si1 1_555 1_555
C21 C20 1_555 1_555
H16 C21 1_555 1_555
N3 C21 1_555 1_555
C22 N3 1_555 1_555
C23 C22 1_555 1_555
H17 C23 1_555 1_555
C24 C23 1_555 1_555
H18 C24 1_555 1_555
C25 C24 1_555 1_555
H19 C25 1_555 1_555
C26 C25 1_555 1_555
H20 C26 1_555 1_555
C27 C22 1_555 1_555
C28 C20 1_555 1_555
H21 C28 1_555 1_555
Cu1_2 N2 1_555 1_555
Cu1B N1 1_555 1_555
N1B Cu1 1_555 1_555
N2_2 Cu1 1_555 1_555
C8 C9 1_555 1_555
C9 C10 1_555 1_555
C17 C18 1_555 1_555
C18 C19 1_555 1_555
C26 C27 1_555 1_555
C27 C28 1_555 1_555

#END
