
#######################################################################
#
#                 Cambridge Crystallographic Data Centre
#                                CCDC 
#
#######################################################################
#
# If this CIF has been generated from an entry in the Cambridge 
# Structural Database, then it will include bibliographic, chemical, 
# crystal, experimental, refinement or atomic coordinate data resulting 
# from the CCDC's data processing and validation procedures.
#
#######################################################################

data_BOXDID
_symmetry_cell_setting           orthorhombic
_symmetry_space_group_name_H-M   'P 21 21 21'
_symmetry_Int_Tables_number      19
_space_group_name_Hall           'P 2ac 2ab'
loop_
_symmetry_equiv_pos_site_id
_symmetry_equiv_pos_as_xyz
1 x,y,z
2 1/2-x,-y,1/2+z
3 -x,1/2+y,1/2-z
4 1/2+x,1/2-y,-z
_cell_length_a                   5.1415(2)
_cell_length_b                   9.0028(3)
_cell_length_c                   15.0537(5)
_cell_angle_alpha                90
_cell_angle_beta                 90
_cell_angle_gamma                90
_cell_volume                     696.804
loop_
_atom_site_label
_atom_site_type_symbol
_atom_site_fract_x
_atom_site_fract_y
_atom_site_fract_z
Cs1 Cs -0.21628(12) 0.10456(6) 0.58606(3)
P1 P 0.2919(4) 0.68654(19) 0.63542(11)
O1 O 0.2078(12) 0.7443(6) 0.7245(3)
O2 O 0.4876(13) 0.8014(6) 0.5947(3)
H1 H 0.4762 0.7978 0.5381
O3 O 0.0826(13) 0.6484(6) 0.5696(3)
C1 C 0.4874(15) 0.5175(8) 0.6544(5)
H2 H 0.5978 0.5325 0.7067
O4 O 0.6456(11) 0.4817(7) 0.5811(3)
H3 H 0.7679 0.5423 0.5704
C2 C 0.2988(14) 0.3900(7) 0.6726(5)
O5 O 0.2757(13) 0.2863(6) 0.6223(4)
O6 O 0.1673(12) 0.4100(6) 0.7435(4)
H4 H 0.0333 0.3610 0.7528
Cs1_2 Cs 0.78372(12) 0.10456(6) 0.58606(3)
Cs1_3 Cs 0.78372(12) 1.10456(6) 0.58606(3)
Cs1B Cs 0.21628(12) 0.60456(6) 0.91394(3)
Cs1C Cs 0.28372(12) 0.39544(6) 0.41394(3)
O1B O -0.2078(12) 0.2443(6) 0.7755(3)
O2_2 O -0.5124(13) -0.1986(6) 0.5947(3)
O3C O -0.4174(13) -0.1484(6) 0.4304(3)
O4_2 O -0.3544(11) 0.4817(7) 0.5811(3)
O4C O 0.1456(11) 0.0183(7) 0.4189(3)
O5_2 O -0.7243(13) 0.2863(6) 0.6223(4)
O5C O -0.2243(13) 0.2137(6) 0.3777(4)
O6B O -0.1673(12) -0.0900(6) 0.7565(4)
loop_
_geom_bond_atom_site_label_1
_geom_bond_atom_site_label_2
_geom_bond_site_symmetry_1
_geom_bond_site_symmetry_2
Cs1 O5 1_555 1_555
P1 O1 1_555 1_555
O1 Cs1B 1_555 1_555
O2 P1 1_555 1_555
H1 O2 1_555 1_555
O3 P1 1_555 1_555
C1 P1 1_555 1_555
H2 C1 1_555 1_555
O4 C1 1_555 1_555
H3 O4 1_555 1_555
C2 C1 1_555 1_555
O5 C2 1_555 1_555
O6 C2 1_555 1_555
H4 O6 1_555 1_555
Cs1_2 O4 1_555 1_555
Cs1_3 O2 1_555 1_555
Cs1B O6 1_555 1_555
Cs1C O3 1_555 1_555
O1B Cs1 1_555 1_555
O2_2 Cs1 1_555 1_555
O3C Cs1 1_555 1_555
O4_2 Cs1 1_555 1_555
O4C Cs1 1_555 1_555
O5_2 Cs1 1_555 1_555
O5C Cs1 1_555 1_555
O6B Cs1 1_555 1_555
O4 Cs1C 1_555 1_555
O5 Cs1_2 1_555 1_555
O5 Cs1C 1_555 1_555
Cs1C O4C 1_555 1_555
Cs1C O5C 1_555 1_555

#END
