
#######################################################################
#
#                 Cambridge Crystallographic Data Centre
#                                CCDC 
#
#######################################################################
#
# If this CIF has been generated from an entry in the Cambridge 
# Structural Database, then it will include bibliographic, chemical, 
# crystal, experimental, refinement or atomic coordinate data resulting 
# from the CCDC's data processing and validation procedures.
#
#######################################################################

data_BOXFAW
_symmetry_cell_setting           cubic
_symmetry_space_group_name_H-M   'F m -3 c'
_symmetry_Int_Tables_number      226
_space_group_name_Hall           '-F 4b 2 3'
loop_
_symmetry_equiv_pos_site_id
_symmetry_equiv_pos_as_xyz
1 x,y,z
2 z,x,y
3 y,z,x
4 1/2+y,1/2+x,1/2-z
5 1/2+y,1/2-x,1/2+z
6 1/2-y,1/2+x,1/2+z
7 1/2+x,1/2+z,1/2-y
8 1/2-x,1/2+z,1/2+y
9 1/2+x,1/2-z,1/2+y
10 1/2+z,1/2+y,1/2-x
11 1/2+z,1/2-y,1/2+x
12 1/2-z,1/2+y,1/2+x
13 x,1/2+y,1/2+z
14 z,1/2+x,1/2+y
15 y,1/2+z,1/2+x
16 1/2+y,x,-z
17 1/2+y,-x,z
18 1/2-y,x,z
19 1/2+x,z,-y
20 1/2-x,z,y
21 1/2+x,-z,y
22 1/2+z,y,-x
23 1/2+z,-y,x
24 1/2-z,y,x
25 1/2+x,y,1/2+z
26 1/2+z,x,1/2+y
27 1/2+y,z,1/2+x
28 y,1/2+x,-z
29 y,1/2-x,z
30 -y,1/2+x,z
31 x,1/2+z,-y
32 -x,1/2+z,y
33 x,1/2-z,y
34 z,1/2+y,-x
35 z,1/2-y,x
36 -z,1/2+y,x
37 1/2+x,1/2+y,z
38 1/2+z,1/2+x,y
39 1/2+y,1/2+z,x
40 y,x,1/2-z
41 y,-x,1/2+z
42 -y,x,1/2+z
43 x,z,1/2-y
44 -x,z,1/2+y
45 x,-z,1/2+y
46 z,y,1/2-x
47 z,-y,1/2+x
48 -z,y,1/2+x
49 -x,-y,z
50 -x,y,-z
51 x,-y,-z
52 z,-x,-y
53 -z,-x,y
54 -z,x,-y
55 -y,z,-x
56 y,-z,-x
57 -y,-z,x
58 1/2-y,1/2-x,1/2-z
59 1/2-x,1/2-z,1/2-y
60 1/2-z,1/2-y,1/2-x
61 -x,1/2-y,1/2+z
62 -x,1/2+y,1/2-z
63 x,1/2-y,1/2-z
64 z,1/2-x,1/2-y
65 -z,1/2-x,1/2+y
66 -z,1/2+x,1/2-y
67 -y,1/2+z,1/2-x
68 y,1/2-z,1/2-x
69 -y,1/2-z,1/2+x
70 1/2-y,-x,-z
71 1/2-x,-z,-y
72 1/2-z,-y,-x
73 1/2-x,-y,1/2+z
74 1/2-x,y,1/2-z
75 1/2+x,-y,1/2-z
76 1/2+z,-x,1/2-y
77 1/2-z,-x,1/2+y
78 1/2-z,x,1/2-y
79 1/2-y,z,1/2-x
80 1/2+y,-z,1/2-x
81 1/2-y,-z,1/2+x
82 -y,1/2-x,-z
83 -x,1/2-z,-y
84 -z,1/2-y,-x
85 1/2-x,1/2-y,z
86 1/2-x,1/2+y,-z
87 1/2+x,1/2-y,-z
88 1/2+z,1/2-x,-y
89 1/2-z,1/2-x,y
90 1/2-z,1/2+x,-y
91 1/2-y,1/2+z,-x
92 1/2+y,1/2-z,-x
93 1/2-y,1/2-z,x
94 -y,-x,1/2-z
95 -x,-z,1/2-y
96 -z,-y,1/2-x
97 -x,-y,-z
98 -z,-x,-y
99 -y,-z,-x
100 1/2-y,1/2-x,1/2+z
101 1/2-y,1/2+x,1/2-z
102 1/2+y,1/2-x,1/2-z
103 1/2-x,1/2-z,1/2+y
104 1/2+x,1/2-z,1/2-y
105 1/2-x,1/2+z,1/2-y
106 1/2-z,1/2-y,1/2+x
107 1/2-z,1/2+y,1/2-x
108 1/2+z,1/2-y,1/2-x
109 -x,1/2-y,1/2-z
110 -z,1/2-x,1/2-y
111 -y,1/2-z,1/2-x
112 1/2-y,-x,z
113 1/2-y,x,-z
114 1/2+y,-x,-z
115 1/2-x,-z,y
116 1/2+x,-z,-y
117 1/2-x,z,-y
118 1/2-z,-y,x
119 1/2-z,y,-x
120 1/2+z,-y,-x
121 1/2-x,-y,1/2-z
122 1/2-z,-x,1/2-y
123 1/2-y,-z,1/2-x
124 -y,1/2-x,z
125 -y,1/2+x,-z
126 y,1/2-x,-z
127 -x,1/2-z,y
128 x,1/2-z,-y
129 -x,1/2+z,-y
130 -z,1/2-y,x
131 -z,1/2+y,-x
132 z,1/2-y,-x
133 1/2-x,1/2-y,-z
134 1/2-z,1/2-x,-y
135 1/2-y,1/2-z,-x
136 -y,-x,1/2+z
137 -y,x,1/2-z
138 y,-x,1/2-z
139 -x,-z,1/2+y
140 x,-z,1/2-y
141 -x,z,1/2-y
142 -z,-y,1/2+x
143 -z,y,1/2-x
144 z,-y,1/2-x
145 x,y,-z
146 x,-y,z
147 -x,y,z
148 -z,x,y
149 z,x,-y
150 z,-x,y
151 y,-z,x
152 -y,z,x
153 y,z,-x
154 1/2+y,1/2+x,1/2+z
155 1/2+x,1/2+z,1/2+y
156 1/2+z,1/2+y,1/2+x
157 x,1/2+y,1/2-z
158 x,1/2-y,1/2+z
159 -x,1/2+y,1/2+z
160 -z,1/2+x,1/2+y
161 z,1/2+x,1/2-y
162 z,1/2-x,1/2+y
163 y,1/2-z,1/2+x
164 -y,1/2+z,1/2+x
165 y,1/2+z,1/2-x
166 1/2+y,x,z
167 1/2+x,z,y
168 1/2+z,y,x
169 1/2+x,y,1/2-z
170 1/2+x,-y,1/2+z
171 1/2-x,y,1/2+z
172 1/2-z,x,1/2+y
173 1/2+z,x,1/2-y
174 1/2+z,-x,1/2+y
175 1/2+y,-z,1/2+x
176 1/2-y,z,1/2+x
177 1/2+y,z,1/2-x
178 y,1/2+x,z
179 x,1/2+z,y
180 z,1/2+y,x
181 1/2+x,1/2+y,-z
182 1/2+x,1/2-y,z
183 1/2-x,1/2+y,z
184 1/2-z,1/2+x,y
185 1/2+z,1/2+x,-y
186 1/2+z,1/2-x,y
187 1/2+y,1/2-z,x
188 1/2-y,1/2+z,x
189 1/2+y,1/2+z,-x
190 y,x,1/2+z
191 x,z,1/2+y
192 z,y,1/2+x
_cell_length_a                   48.527(6)
_cell_length_b                   48.527(6)
_cell_length_c                   48.527(6)
_cell_angle_alpha                90
_cell_angle_beta                 90
_cell_angle_gamma                90
_cell_volume                     114275
loop_
_atom_site_label
_atom_site_type_symbol
_atom_site_fract_x
_atom_site_fract_y
_atom_site_fract_z
O2 O 1.0894(9) 0.2500 0.2500
O3 O 1.0445(4) 0.2500 0.2500
Cd1 Cd 1.0000 0.201728(5) 0.224881(5)
O4 O 0.96640(4) 0.17055(4) 0.23896(4)
O5 O 1.02941(4) 0.23368(4) 0.20649(4)
O6 O 1.0000 0.2500 0.2500
C1 C 0.95976(5) 0.18319(6) 0.26041(6)
C2 C 0.93770(5) 0.17179(6) 0.27876(6)
C3 C 0.92865(6) 0.18644(6) 0.30155(5)
H1 H 0.9370 0.2035 0.3063
C4 C 0.90736(5) 0.17592(6) 0.31738(6)
C5 C 0.89433(6) 0.15111(6) 0.31064(6)
C6 C 0.90427(6) 0.13605(6) 0.28821(6)
H2 H 0.8963 0.1188 0.2836
C7 C 0.92583(6) 0.14642(6) 0.27266(6)
H3 H 0.9327 0.1360 0.2575
C8 C 0.87178(6) 0.14650(6) 0.33089(6)
C9 C 0.85070(6) 0.12701(6) 0.33207(6)
C10 C 0.89584(6) 0.18853(6) 0.34335(6)
C11 C 0.88415(7) 0.21741(7) 0.33652(7)
H4 H 0.8775 0.2260 0.3538
H5 H 0.8993 0.2290 0.3294
C12 C 0.86097(9) 0.21773(8) 0.31582(8)
H6 H 0.8670 0.2085 0.2989
H7 H 0.8559 0.2368 0.3117
H8 H 0.8450 0.2080 0.3235
C13 C 0.92001(7) 0.18918(7) 0.36482(8)
H9 H 0.9349 0.2011 0.3574
H10 H 0.9132 0.1979 0.3820
C14 C 0.93229(9) 0.16142(9) 0.37211(9)
H11 H 0.9180 0.1496 0.3800
H12 H 0.9471 0.1639 0.3856
H13 H 0.9397 0.1528 0.3555
O7 O 1.0000 0.17758(7) 0.18326(6)
C15 C 1.0000 0.1832(3) 0.15475(18)
H14 H 1.0000 0.1530(7) 0.1835(7)
Cd1FA Cd 1.0000 0.275119(5) 0.201728(5)
Cd1PA Cd 1.0000 0.224881(5) 0.298272(5)
Cd1DD Cd 1.0000 0.298272(5) 0.275119(5)
Cd1PF Cd 0.724881(5) 0.0000 0.298272(5)
Cd1FE Cd 0.798272(5) 0.0000 0.275119(5)
Cd1FD Cd 0.798272(5) 0.275119(5) 0.5000
Cd1UA Cd 0.775119(5) 0.201728(5) 0.5000
Cd1KA Cd 0.724881(5) 0.5000 0.201728(5)
Cd1CA Cd 0.798272(5) 0.5000 0.224881(5)
Cd1UE Cd 0.798272(5) 0.224881(5) 0.0000
Cd1YD Cd 0.775119(5) 0.298272(5) 0.0000
Cd1W Cd 1.275119(5) 0.201728(5) 0.0000
Cd1B Cd 1.201728(5) 0.224881(5) 0.0000
Cd1MA Cd 1.201728(5) 0.0000 0.275119(5)
Cd1A Cd 1.224881(5) 0.0000 0.201728(5)
Cd1J Cd 0.724881(5) 0.298272(5) 0.5000
Cd1ED Cd 0.775119(5) 0.5000 0.298272(5)
O4PE O 1.03360(4) 0.17055(4) 0.23896(4)
O4WB O 0.73896(4) 0.03360(4) 0.32945(4)
O4PB O 0.82945(4) 0.26104(4) 0.46640(4)
O4FA O 0.96640(4) 0.26104(4) 0.17055(4)
O4VD O 1.03360(4) 0.26104(4) 0.17055(4)
O4DD O 1.03360(4) 0.32945(4) 0.26104(4)
O4JB O 0.96640(4) 0.32945(4) 0.26104(4)
O4PA O 0.96640(4) 0.23896(4) 0.32945(4)
O4JE O 1.03360(4) 0.23896(4) 0.32945(4)
O4KA O 0.73896(4) 0.46640(4) 0.17055(4)
O4BB O 0.82945(4) 0.23896(4) 0.03360(4)
O4ND O 1.26104(4) 0.17055(4) 0.03360(4)
O4GE O 1.17055(4) 0.03360(4) 0.26104(4)
O4J O 0.73896(4) 0.32945(4) 0.46640(4)
O4CA O 0.82945(4) 0.46640(4) 0.23896(4)
O5PA O 1.02941(4) 0.20649(4) 0.26632(4)
O5PE O 0.97059(4) 0.23368(4) 0.20649(4)
O5JE O 0.97059(4) 0.20649(4) 0.26632(4)
O5FE O 0.76632(4) 0.02941(4) 0.29351(4)
O5LE O 0.79351(4) 0.23368(4) 0.47059(4)
O5FA O 1.02941(4) 0.29351(4) 0.23368(4)
O5VD O 0.97059(4) 0.29351(4) 0.23368(4)
O5DD O 0.97059(4) 0.26632(4) 0.29351(4)
O5JB O 1.02941(4) 0.26632(4) 0.29351(4)
O5SD O 0.76632(4) 0.47059(4) 0.20649(4)
O5YD O 0.79351(4) 0.26632(4) 0.02941(4)
O5B O 1.23368(4) 0.20649(4) 0.02941(4)
O5A O 1.20649(4) 0.02941(4) 0.23368(4)
O5FD O 0.76632(4) 0.29351(4) 0.47059(4)
O5ED O 0.79351(4) 0.47059(4) 0.26632(4)
C1VD C 1.04024(5) 0.23959(6) 0.18319(6)
C1WB C 0.76041(6) 0.04024(5) 0.31681(6)
C1PB C 0.81681(6) 0.23959(6) 0.45976(5)
C1JB C 0.95976(5) 0.31681(6) 0.23959(6)
C1KA C 0.76041(6) 0.45976(5) 0.18319(6)
C1BB C 0.81681(6) 0.26041(6) 0.04024(5)
C1ND C 1.23959(6) 0.18319(6) 0.04024(5)
C1GE C 1.18319(6) 0.04024(5) 0.23959(6)
C1PA C 0.95976(5) 0.26041(6) 0.31681(6)
C1J C 0.76041(6) 0.31681(6) 0.45976(5)
C1CA C 0.81681(6) 0.45976(5) 0.26041(6)
C2WB C 0.77876(6) 0.06230(5) 0.32821(6)
C2PB C 0.82821(6) 0.22124(6) 0.43770(5)
C2JB C 0.93770(5) 0.32821(6) 0.22124(6)
C2KA C 0.77876(6) 0.43770(5) 0.17179(6)
C2BB C 0.82821(6) 0.27876(6) 0.06230(5)
C2VD C 1.06230(5) 0.22124(6) 0.17179(6)
C2ND C 1.22124(6) 0.17179(6) 0.06230(5)
C2GE C 1.17179(6) 0.06230(5) 0.22124(6)
C2PA C 0.93770(5) 0.27876(6) 0.32821(6)
C2J C 0.77876(6) 0.32821(6) 0.43770(5)
C2CA C 0.82821(6) 0.43770(5) 0.27876(6)
C3WB C 0.80155(5) 0.07135(6) 0.31356(6)
C3PB C 0.81356(6) 0.19845(5) 0.42865(6)
C3JB C 0.92865(6) 0.31356(6) 0.19845(5)
C3KA C 0.80155(5) 0.42865(6) 0.18644(6)
C3BB C 0.81356(6) 0.30155(5) 0.07135(6)
C3VD C 1.07135(6) 0.19845(5) 0.18644(6)
C3ND C 1.19845(5) 0.18644(6) 0.07135(6)
C3GE C 1.18644(6) 0.07135(6) 0.19845(5)
C3PA C 0.92865(6) 0.30155(5) 0.31356(6)
C3J C 0.80155(5) 0.31356(6) 0.42865(6)
C3CA C 0.81356(6) 0.42865(6) 0.30155(5)
H1WB H 0.8063 0.0630 0.2965
H1PB H 0.7965 0.1937 0.4370
H1JB H 0.9370 0.2965 0.1937
H1KA H 0.8063 0.4370 0.2035
H1BB H 0.7965 0.3063 0.0630
H1VD H 1.0630 0.1937 0.2035
H1ND H 1.1937 0.2035 0.0630
H1GE H 1.2035 0.0630 0.1937
H1PA H 0.9370 0.3063 0.2965
H1J H 0.8063 0.2965 0.4370
H1CA H 0.7965 0.4370 0.3063
C4WB C 0.81738(6) 0.09264(5) 0.32408(6)
C4PB C 0.82408(6) 0.18262(6) 0.40736(5)
C4JB C 0.90736(5) 0.32408(6) 0.18262(6)
C4KA C 0.81738(6) 0.40736(5) 0.17592(6)
C4BB C 0.82408(6) 0.31738(6) 0.09264(5)
C4VD C 1.09264(5) 0.18262(6) 0.17592(6)
C4ND C 1.18262(6) 0.17592(6) 0.09264(5)
C4GE C 1.17592(6) 0.09264(5) 0.18262(6)
C4PA C 0.90736(5) 0.31738(6) 0.32408(6)
C4J C 0.81738(6) 0.32408(6) 0.40736(5)
C4CA C 0.82408(6) 0.40736(5) 0.31738(6)
C5WB C 0.81064(6) 0.10567(6) 0.34889(6)
C5PB C 0.84889(6) 0.18936(6) 0.39433(6)
C5JB C 0.89433(6) 0.34889(6) 0.18936(6)
C5BB C 0.84889(6) 0.31064(6) 0.10567(6)
C5KA C 0.81064(6) 0.39433(6) 0.15111(6)
C5VD C 1.10567(6) 0.18936(6) 0.15111(6)
C5GE C 1.15111(6) 0.10567(6) 0.18936(6)
C5ND C 1.18936(6) 0.15111(6) 0.10567(6)
C5PA C 0.89433(6) 0.31064(6) 0.34889(6)
C5CA C 0.84889(6) 0.39433(6) 0.31064(6)
C5J C 0.81064(6) 0.34889(6) 0.39433(6)
C6WB C 0.78821(6) 0.09573(6) 0.36395(6)
C6PB C 0.86395(6) 0.21179(6) 0.40427(6)
C6JB C 0.90427(6) 0.36395(6) 0.21179(6)
C6BB C 0.86395(6) 0.28821(6) 0.09573(6)
C6KA C 0.78821(6) 0.40427(6) 0.13605(6)
C6VD C 1.09573(6) 0.21179(6) 0.13605(6)
C6GE C 1.13605(6) 0.09573(6) 0.21179(6)
C6ND C 1.21179(6) 0.13605(6) 0.09573(6)
C6PA C 0.90427(6) 0.28821(6) 0.36395(6)
C6CA C 0.86395(6) 0.40427(6) 0.28821(6)
C6J C 0.78821(6) 0.36395(6) 0.40427(6)
H2WB H 0.7836 0.1037 0.3812
H2PB H 0.8812 0.2164 0.3963
H2JB H 0.8963 0.3812 0.2164
H2BB H 0.8812 0.2836 0.1037
H2KA H 0.7836 0.3963 0.1188
H2VD H 1.1037 0.2164 0.1188
H2GE H 1.1188 0.1037 0.2164
H2ND H 1.2164 0.1188 0.1037
H2PA H 0.8963 0.2836 0.3812
H2CA H 0.8812 0.3963 0.2836
H2J H 0.7836 0.3812 0.3963
C7WB C 0.77266(6) 0.07417(6) 0.35358(6)
C7PB C 0.85358(6) 0.22734(6) 0.42583(6)
C7JB C 0.92583(6) 0.35358(6) 0.22734(6)
C7BB C 0.85358(6) 0.27266(6) 0.07417(6)
C7KA C 0.77266(6) 0.42583(6) 0.14642(6)
C7VD C 1.07417(6) 0.22734(6) 0.14642(6)
C7GE C 1.14642(6) 0.07417(6) 0.22734(6)
C7ND C 1.22734(6) 0.14642(6) 0.07417(6)
C7PA C 0.92583(6) 0.27266(6) 0.35358(6)
C7CA C 0.85358(6) 0.42583(6) 0.27266(6)
C7J C 0.77266(6) 0.35358(6) 0.42583(6)
H3WB H 0.7575 0.0673 0.3640
H3PB H 0.8640 0.2425 0.4327
H3JB H 0.9327 0.3640 0.2425
H3BB H 0.8640 0.2575 0.0673
H3KA H 0.7575 0.4327 0.1360
H3VD H 1.0673 0.2425 0.1360
H3GE H 1.1360 0.0673 0.2425
H3ND H 1.2425 0.1360 0.0673
H3PA H 0.9327 0.2575 0.3640
H3CA H 0.8640 0.4327 0.2575
H3J H 0.7575 0.3640 0.4327
C8WB C 0.83089(6) 0.12822(6) 0.35350(6)
C8PB C 0.85350(6) 0.16911(6) 0.37178(6)
C8JB C 0.87178(6) 0.35350(6) 0.16911(6)
C8BB C 0.85350(6) 0.33089(6) 0.12822(6)
C8KA C 0.83089(6) 0.37178(6) 0.14650(6)
C8VD C 1.12822(6) 0.16911(6) 0.14650(6)
C8GE C 1.14650(6) 0.12822(6) 0.16911(6)
C8ND C 1.16911(6) 0.14650(6) 0.12822(6)
C8PA C 0.87178(6) 0.33089(6) 0.35350(6)
C8CA C 0.85350(6) 0.37178(6) 0.33089(6)
C8J C 0.83089(6) 0.35350(6) 0.37178(6)
C9PB C 0.87299(6) 0.16793(6) 0.35070(6)
C9WB C 0.83207(6) 0.14930(6) 0.37299(6)
C9BB C 0.87299(6) 0.33207(6) 0.14930(6)
C9JB C 0.85070(6) 0.37299(6) 0.16793(6)
C9KA C 0.83207(6) 0.35070(6) 0.12701(6)
C9GE C 1.12701(6) 0.14930(6) 0.16793(6)
C9VD C 1.14930(6) 0.16793(6) 0.12701(6)
C9ND C 1.16793(6) 0.12701(6) 0.14930(6)
C9CA C 0.87299(6) 0.35070(6) 0.33207(6)
C9PA C 0.85070(6) 0.33207(6) 0.37299(6)
C9J C 0.83207(6) 0.37299(6) 0.35070(6)
C10WB C 0.84335(6) 0.10416(6) 0.31147(6)
C10PB C 0.81147(6) 0.15665(6) 0.39584(6)
C10JB C 0.89584(6) 0.31147(6) 0.15665(6)
C10KA C 0.84335(6) 0.39584(6) 0.18853(6)
C10BB C 0.81147(6) 0.34335(6) 0.10416(6)
C10VD C 1.10416(6) 0.15665(6) 0.18853(6)
C10ND C 1.15665(6) 0.18853(6) 0.10416(6)
C10GE C 1.18853(6) 0.10416(6) 0.15665(6)
C10PA C 0.89584(6) 0.34335(6) 0.31147(6)
C10J C 0.84335(6) 0.31147(6) 0.39584(6)
C10CA C 0.81147(6) 0.39584(6) 0.34335(6)
C11WB C 0.83652(7) 0.11585(7) 0.28259(7)
C11PB C 0.78259(7) 0.16348(7) 0.38415(7)
C11JB C 0.88415(7) 0.28259(7) 0.16348(7)
C11KA C 0.83652(7) 0.38415(7) 0.21741(7)
C11BB C 0.78259(7) 0.33652(7) 0.11585(7)
C11VD C 1.11585(7) 0.16348(7) 0.21741(7)
C11ND C 1.16348(7) 0.21741(7) 0.11585(7)
C11GE C 1.21741(7) 0.11585(7) 0.16348(7)
C11PA C 0.88415(7) 0.33652(7) 0.28259(7)
C11J C 0.83652(7) 0.28259(7) 0.38415(7)
C11CA C 0.78259(7) 0.38415(7) 0.33652(7)
H4WB H 0.8538 0.1225 0.2740
H4PB H 0.7740 0.1462 0.3775
H4JB H 0.8775 0.2740 0.1462
H4KA H 0.8538 0.3775 0.2260
H4BB H 0.7740 0.3538 0.1225
H4VD H 1.1225 0.1462 0.2260
H4ND H 1.1462 0.2260 0.1225
H4GE H 1.2260 0.1225 0.1462
H4PA H 0.8775 0.3538 0.2740
H4J H 0.8538 0.2740 0.3775
H4CA H 0.7740 0.3775 0.3538
H5WB H 0.8294 0.1007 0.2710
H5PB H 0.7710 0.1706 0.3993
H5JB H 0.8993 0.2710 0.1706
H5KA H 0.8294 0.3993 0.2290
H5BB H 0.7710 0.3294 0.1007
H5VD H 1.1007 0.1706 0.2290
H5ND H 1.1706 0.2290 0.1007
H5GE H 1.2290 0.1007 0.1706
H5PA H 0.8993 0.3294 0.2710
H5J H 0.8294 0.2710 0.3993
H5CA H 0.7710 0.3993 0.3294
C12WB C 0.81582(8) 0.13903(9) 0.28227(8)
C12PB C 0.78227(8) 0.18418(8) 0.36097(9)
C12JB C 0.86097(9) 0.28227(8) 0.18418(8)
C12KA C 0.81582(8) 0.36097(9) 0.21773(8)
C12BB C 0.78227(8) 0.31582(8) 0.13903(9)
C12VD C 1.13903(9) 0.18418(8) 0.21773(8)
C12ND C 1.18418(8) 0.21773(8) 0.13903(9)
C12GE C 1.21773(8) 0.13903(9) 0.18418(8)
C12PA C 0.86097(9) 0.31582(8) 0.28227(8)
C12J C 0.81582(8) 0.28227(8) 0.36097(9)
C12CA C 0.78227(8) 0.36097(9) 0.31582(8)
H6WB H 0.7989 0.1330 0.2915
H6PB H 0.7915 0.2011 0.3670
H6JB H 0.8670 0.2915 0.2011
H6KA H 0.7989 0.3670 0.2085
H6BB H 0.7915 0.2989 0.1330
H6VD H 1.1330 0.2011 0.2085
H6ND H 1.2011 0.2085 0.1330
H6GE H 1.2085 0.1330 0.2011
H6PA H 0.8670 0.2989 0.2915
H6J H 0.7989 0.2915 0.3670
H6CA H 0.7915 0.3670 0.2989
H7WB H 0.8117 0.1441 0.2632
H7PB H 0.7632 0.1883 0.3559
H7JB H 0.8559 0.2632 0.1883
H7KA H 0.8117 0.3559 0.2368
H7BB H 0.7632 0.3117 0.1441
H7VD H 1.1441 0.1883 0.2368
H7ND H 1.1883 0.2368 0.1441
H7GE H 1.2368 0.1441 0.1883
H7PA H 0.8559 0.3117 0.2632
H7J H 0.8117 0.2632 0.3559
H7CA H 0.7632 0.3559 0.3117
H8WB H 0.8235 0.1550 0.2920
H8PB H 0.7920 0.1765 0.3450
H8JB H 0.8450 0.2920 0.1765
H8KA H 0.8235 0.3450 0.2080
H8BB H 0.7920 0.3235 0.1550
H8VD H 1.1550 0.1765 0.2080
H8ND H 1.1765 0.2080 0.1550
H8GE H 1.2080 0.1550 0.1765
H8PA H 0.8450 0.3235 0.2920
H8J H 0.8235 0.2920 0.3450
H8CA H 0.7920 0.3450 0.3235
C13WB C 0.86482(8) 0.07999(7) 0.31082(7)
C13PB C 0.81082(7) 0.13518(8) 0.42001(7)
C13JB C 0.92001(7) 0.31082(7) 0.13518(8)
C13KA C 0.86482(8) 0.42001(7) 0.18918(7)
C13BB C 0.81082(7) 0.36482(8) 0.07999(7)
C13VD C 1.07999(7) 0.13518(8) 0.18918(7)
C13ND C 1.13518(8) 0.18918(7) 0.07999(7)
C13GE C 1.18918(7) 0.07999(7) 0.13518(8)
C13PA C 0.92001(7) 0.36482(8) 0.31082(7)
C13J C 0.86482(8) 0.31082(7) 0.42001(7)
C13CA C 0.81082(7) 0.42001(7) 0.36482(8)
H9WB H 0.8574 0.0651 0.2989
H9PB H 0.7989 0.1426 0.4349
H9JB H 0.9349 0.2989 0.1426
H9KA H 0.8574 0.4349 0.2011
H9BB H 0.7989 0.3574 0.0651
H9VD H 1.0651 0.1426 0.2011
H9ND H 1.1426 0.2011 0.0651
H9GE H 1.2011 0.0651 0.1426
H9PA H 0.9349 0.3574 0.2989
H9J H 0.8574 0.2989 0.4349
H9CA H 0.7989 0.4349 0.3574
H10WB H 0.8820 0.0868 0.3021
H10PB H 0.8021 0.1180 0.4132
H10JB H 0.9132 0.3021 0.1180
H10KA H 0.8820 0.4132 0.1979
H10BB H 0.8021 0.3820 0.0868
H10VD H 1.0868 0.1180 0.1979
H10ND H 1.1180 0.1979 0.0868
H10GE H 1.1979 0.0868 0.1180
H10PA H 0.9132 0.3820 0.3021
H10J H 0.8820 0.3021 0.4132
H10CA H 0.8021 0.4132 0.3820
C14WB C 0.87211(9) 0.06771(9) 0.33858(9)
C14PB C 0.83858(9) 0.12789(9) 0.43229(9)
C14JB C 0.93229(9) 0.33858(9) 0.12789(9)
C14KA C 0.87211(9) 0.43229(9) 0.16142(9)
C14BB C 0.83858(9) 0.37211(9) 0.06771(9)
C14VD C 1.06771(9) 0.12789(9) 0.16142(9)
C14ND C 1.12789(9) 0.16142(9) 0.06771(9)
C14GE C 1.16142(9) 0.06771(9) 0.12789(9)
C14PA C 0.93229(9) 0.37211(9) 0.33858(9)
C14J C 0.87211(9) 0.33858(9) 0.43229(9)
C14CA C 0.83858(9) 0.43229(9) 0.37211(9)
H11WB H 0.8800 0.0820 0.3504
H11PB H 0.8504 0.1200 0.4180
H11JB H 0.9180 0.3504 0.1200
H11KA H 0.8800 0.4180 0.1496
H11BB H 0.8504 0.3800 0.0820
H11VD H 1.0820 0.1200 0.1496
H11ND H 1.1200 0.1496 0.0820
H11GE H 1.1496 0.0820 0.1200
H11PA H 0.9180 0.3800 0.3504
H11J H 0.8800 0.3504 0.4180
H11CA H 0.8504 0.4180 0.3800
H12WB H 0.8856 0.0529 0.3361
H12PB H 0.8361 0.1144 0.4471
H12JB H 0.9471 0.3361 0.1144
H12KA H 0.8856 0.4471 0.1639
H12BB H 0.8361 0.3856 0.0529
H12VD H 1.0529 0.1144 0.1639
H12ND H 1.1144 0.1639 0.0529
H12GE H 1.1639 0.0529 0.1144
H12PA H 0.9471 0.3856 0.3361
H12J H 0.8856 0.3361 0.4471
H12CA H 0.8361 0.4471 0.3856
H13WB H 0.8555 0.0603 0.3472
H13PB H 0.8472 0.1445 0.4397
H13JB H 0.9397 0.3472 0.1445
H13KA H 0.8555 0.4397 0.1528
H13BB H 0.8472 0.3555 0.0603
H13VD H 1.0603 0.1445 0.1528
H13ND H 1.1445 0.1528 0.0603
H13GE H 1.1528 0.0603 0.1445
H13PA H 0.9397 0.3555 0.3472
H13J H 0.8555 0.3472 0.4397
H13CA H 0.8472 0.4397 0.3555
O7FA O 1.0000 0.31674(6) 0.17758(7)
O7DD O 1.0000 0.32242(7) 0.31674(6)
O7PA O 1.0000 0.18326(6) 0.32242(7)
C15DD C 1.0000 0.3168(3) 0.34525(18)
C15FA C 1.0000 0.34525(18) 0.1832(3)
C15PA C 1.0000 0.15475(18) 0.3168(3)
H14DD H 1.0000 0.3470(7) 0.3165(7)
H14FA H 1.0000 0.3165(7) 0.1530(7)
H14PA H 1.0000 0.1835(7) 0.3470(7)
O1 O 0.0000 0.12920(9) 0.21135(11)
loop_
_geom_bond_atom_site_label_1
_geom_bond_atom_site_label_2
_geom_bond_site_symmetry_1
_geom_bond_site_symmetry_2
Cd1 O4 1_555 1_555
O4 C1 1_555 1_555
O5 Cd1 1_555 1_555
O6 Cd1 1_555 1_555
C1 C2 1_555 1_555
C2 C3 1_555 1_555
C3 H1 1_555 1_555
C4 C3 1_555 1_555
C5 C4 1_555 1_555
C6 C5 1_555 1_555
H2 C6 1_555 1_555
C7 C2 1_555 1_555
H3 C7 1_555 1_555
C8 C5 1_555 1_555
C9 C8 1_555 1_555
C10 C4 1_555 1_555
C11 C10 1_555 1_555
H4 C11 1_555 1_555
H5 C11 1_555 1_555
C12 C11 1_555 1_555
H6 C12 1_555 1_555
H7 C12 1_555 1_555
H8 C12 1_555 1_555
C13 C10 1_555 1_555
H9 C13 1_555 1_555
H10 C13 1_555 1_555
C14 C13 1_555 1_555
H11 C14 1_555 1_555
H12 C14 1_555 1_555
H13 C14 1_555 1_555
O7 Cd1 1_555 1_555
C15 O7 1_555 1_555
H14 O7 1_555 1_555
Cd1FA O5 1_555 1_555
Cd1PA O6 1_555 1_555
Cd1DD O6 1_555 1_555
Cd1PF O4WB 1_555 1_555
Cd1FE O5FE 1_555 1_555
Cd1FD O4PB 1_555 1_555
Cd1UA O5LE 1_555 1_555
Cd1KA O4KA 1_555 1_555
Cd1CA O4CA 1_555 1_555
Cd1UE O4BB 1_555 1_555
Cd1YD O5YD 1_555 1_555
Cd1W O4ND 1_555 1_555
Cd1B O5B 1_555 1_555
Cd1MA O4GE 1_555 1_555
Cd1A O5A 1_555 1_555
Cd1J O4J 1_555 1_555
Cd1ED O5ED 1_555 1_555
O4PE Cd1 1_555 1_555
O4WB C1WB 1_555 1_555
O4PB C1PB 1_555 1_555
O4FA Cd1FA 1_555 1_555
O4VD Cd1FA 1_555 1_555
O4DD Cd1DD 1_555 1_555
O4JB Cd1DD 1_555 1_555
O4PA Cd1PA 1_555 1_555
O4JE Cd1PA 1_555 1_555
O4KA C1KA 1_555 1_555
O4BB C1BB 1_555 1_555
O4ND C1ND 1_555 1_555
O4GE C1GE 1_555 1_555
O4J C1J 1_555 1_555
O4CA C1CA 1_555 1_555
O5PA Cd1 1_555 1_555
O5PE Cd1 1_555 1_555
O5JE Cd1 1_555 1_555
O5FE Cd1PF 1_555 1_555
O5LE Cd1FD 1_555 1_555
O5FA Cd1FA 1_555 1_555
O5VD Cd1FA 1_555 1_555
O5DD Cd1PA 1_555 1_555
O5JB Cd1PA 1_555 1_555
O5SD Cd1KA 1_555 1_555
O5YD Cd1UE 1_555 1_555
O5B Cd1W 1_555 1_555
O5A Cd1MA 1_555 1_555
O5FD Cd1FD 1_555 1_555
O5ED Cd1CA 1_555 1_555
C1VD O5 1_555 1_555
C1WB O5FE 1_555 1_555
C1PB O5LE 1_555 1_555
C1JB O4JB 1_555 1_555
C1KA O5SD 1_555 1_555
C1BB O5YD 1_555 1_555
C1ND O5B 1_555 1_555
C1GE O5A 1_555 1_555
C1PA O4PA 1_555 1_555
C1J O5FD 1_555 1_555
C1CA O5ED 1_555 1_555
C2WB C1WB 1_555 1_555
C2PB C1PB 1_555 1_555
C2JB C1JB 1_555 1_555
C2KA C1KA 1_555 1_555
C2BB C1BB 1_555 1_555
C2VD C1VD 1_555 1_555
C2ND C1ND 1_555 1_555
C2GE C1GE 1_555 1_555
C2PA C1PA 1_555 1_555
C2J C1J 1_555 1_555
C2CA C1CA 1_555 1_555
C3WB C2WB 1_555 1_555
C3PB C2PB 1_555 1_555
C3JB C2JB 1_555 1_555
C3KA C2KA 1_555 1_555
C3BB C2BB 1_555 1_555
C3VD C2VD 1_555 1_555
C3ND C2ND 1_555 1_555
C3GE C2GE 1_555 1_555
C3PA C2PA 1_555 1_555
C3J C2J 1_555 1_555
C3CA C2CA 1_555 1_555
H1WB C3WB 1_555 1_555
H1PB C3PB 1_555 1_555
H1JB C3JB 1_555 1_555
H1KA C3KA 1_555 1_555
H1BB C3BB 1_555 1_555
H1VD C3VD 1_555 1_555
H1ND C3ND 1_555 1_555
H1GE C3GE 1_555 1_555
H1PA C3PA 1_555 1_555
H1J C3J 1_555 1_555
H1CA C3CA 1_555 1_555
C4WB C3WB 1_555 1_555
C4PB C3PB 1_555 1_555
C4JB C3JB 1_555 1_555
C4KA C3KA 1_555 1_555
C4BB C3BB 1_555 1_555
C4VD C3VD 1_555 1_555
C4ND C3ND 1_555 1_555
C4GE C3GE 1_555 1_555
C4PA C3PA 1_555 1_555
C4J C3J 1_555 1_555
C4CA C3CA 1_555 1_555
C5WB C4WB 1_555 1_555
C5PB C4PB 1_555 1_555
C5JB C4JB 1_555 1_555
C5BB C4BB 1_555 1_555
C5KA C4KA 1_555 1_555
C5VD C4VD 1_555 1_555
C5GE C4GE 1_555 1_555
C5ND C4ND 1_555 1_555
C5PA C4PA 1_555 1_555
C5CA C4CA 1_555 1_555
C5J C4J 1_555 1_555
C6WB C5WB 1_555 1_555
C6PB C5PB 1_555 1_555
C6JB C5JB 1_555 1_555
C6BB C5BB 1_555 1_555
C6KA C5KA 1_555 1_555
C6VD C5VD 1_555 1_555
C6GE C5GE 1_555 1_555
C6ND C5ND 1_555 1_555
C6PA C5PA 1_555 1_555
C6CA C5CA 1_555 1_555
C6J C5J 1_555 1_555
H2WB C6WB 1_555 1_555
H2PB C6PB 1_555 1_555
H2JB C6JB 1_555 1_555
H2BB C6BB 1_555 1_555
H2KA C6KA 1_555 1_555
H2VD C6VD 1_555 1_555
H2GE C6GE 1_555 1_555
H2ND C6ND 1_555 1_555
H2PA C6PA 1_555 1_555
H2CA C6CA 1_555 1_555
H2J C6J 1_555 1_555
C7WB C2WB 1_555 1_555
C7PB C2PB 1_555 1_555
C7JB C2JB 1_555 1_555
C7BB C2BB 1_555 1_555
C7KA C2KA 1_555 1_555
C7VD C2VD 1_555 1_555
C7GE C2GE 1_555 1_555
C7ND C2ND 1_555 1_555
C7PA C2PA 1_555 1_555
C7CA C2CA 1_555 1_555
C7J C2J 1_555 1_555
H3WB C7WB 1_555 1_555
H3PB C7PB 1_555 1_555
H3JB C7JB 1_555 1_555
H3BB C7BB 1_555 1_555
H3KA C7KA 1_555 1_555
H3VD C7VD 1_555 1_555
H3GE C7GE 1_555 1_555
H3ND C7ND 1_555 1_555
H3PA C7PA 1_555 1_555
H3CA C7CA 1_555 1_555
H3J C7J 1_555 1_555
C8WB C9 1_555 1_555
C8PB C5PB 1_555 1_555
C8JB C5JB 1_555 1_555
C8BB C5BB 1_555 1_555
C8KA C5KA 1_555 1_555
C8VD C5VD 1_555 1_555
C8GE C5GE 1_555 1_555
C8ND C5ND 1_555 1_555
C8PA C5PA 1_555 1_555
C8CA C5CA 1_555 1_555
C8J C5J 1_555 1_555
C9PB C8 1_555 1_555
C9WB C8WB 1_555 1_555
C9BB C8JB 1_555 1_555
C9JB C8JB 1_555 1_555
C9KA C8BB 1_555 1_555
C9GE C8VD 1_555 1_555
C9VD C8VD 1_555 1_555
C9ND C8GE 1_555 1_555
C9CA C8PA 1_555 1_555
C9PA C8PA 1_555 1_555
C9J C8CA 1_555 1_555
C10WB C9 1_555 1_555
C10PB C4PB 1_555 1_555
C10JB C4JB 1_555 1_555
C10KA C4KA 1_555 1_555
C10BB C4BB 1_555 1_555
C10VD C4VD 1_555 1_555
C10ND C4ND 1_555 1_555
C10GE C4GE 1_555 1_555
C10PA C4PA 1_555 1_555
C10J C4J 1_555 1_555
C10CA C4CA 1_555 1_555
C11WB C10WB 1_555 1_555
C11PB C10PB 1_555 1_555
C11JB C10JB 1_555 1_555
C11KA C10KA 1_555 1_555
C11BB C10BB 1_555 1_555
C11VD C10VD 1_555 1_555
C11ND C10ND 1_555 1_555
C11GE C10GE 1_555 1_555
C11PA C10PA 1_555 1_555
C11J C10J 1_555 1_555
C11CA C10CA 1_555 1_555
H4WB C11WB 1_555 1_555
H4PB C11PB 1_555 1_555
H4JB C11JB 1_555 1_555
H4KA C11KA 1_555 1_555
H4BB C11BB 1_555 1_555
H4VD C11VD 1_555 1_555
H4ND C11ND 1_555 1_555
H4GE C11GE 1_555 1_555
H4PA C11PA 1_555 1_555
H4J C11J 1_555 1_555
H4CA C11CA 1_555 1_555
H5WB C11WB 1_555 1_555
H5PB C11PB 1_555 1_555
H5JB C11JB 1_555 1_555
H5KA C11KA 1_555 1_555
H5BB C11BB 1_555 1_555
H5VD C11VD 1_555 1_555
H5ND C11ND 1_555 1_555
H5GE C11GE 1_555 1_555
H5PA C11PA 1_555 1_555
H5J C11J 1_555 1_555
H5CA C11CA 1_555 1_555
C12WB C11WB 1_555 1_555
C12PB C11PB 1_555 1_555
C12JB C11JB 1_555 1_555
C12KA C11KA 1_555 1_555
C12BB C11BB 1_555 1_555
C12VD C11VD 1_555 1_555
C12ND C11ND 1_555 1_555
C12GE C11GE 1_555 1_555
C12PA C11PA 1_555 1_555
C12J C11J 1_555 1_555
C12CA C11CA 1_555 1_555
H6WB C12WB 1_555 1_555
H6PB C12PB 1_555 1_555
H6JB C12JB 1_555 1_555
H6KA C12KA 1_555 1_555
H6BB C12BB 1_555 1_555
H6VD C12VD 1_555 1_555
H6ND C12ND 1_555 1_555
H6GE C12GE 1_555 1_555
H6PA C12PA 1_555 1_555
H6J C12J 1_555 1_555
H6CA C12CA 1_555 1_555
H7WB C12WB 1_555 1_555
H7PB C12PB 1_555 1_555
H7JB C12JB 1_555 1_555
H7KA C12KA 1_555 1_555
H7BB C12BB 1_555 1_555
H7VD C12VD 1_555 1_555
H7ND C12ND 1_555 1_555
H7GE C12GE 1_555 1_555
H7PA C12PA 1_555 1_555
H7J C12J 1_555 1_555
H7CA C12CA 1_555 1_555
H8WB C12WB 1_555 1_555
H8PB C12PB 1_555 1_555
H8JB C12JB 1_555 1_555
H8KA C12KA 1_555 1_555
H8BB C12BB 1_555 1_555
H8VD C12VD 1_555 1_555
H8ND C12ND 1_555 1_555
H8GE C12GE 1_555 1_555
H8PA C12PA 1_555 1_555
H8J C12J 1_555 1_555
H8CA C12CA 1_555 1_555
C13WB C10WB 1_555 1_555
C13PB C10PB 1_555 1_555
C13JB C10JB 1_555 1_555
C13KA C10KA 1_555 1_555
C13BB C10BB 1_555 1_555
C13VD C10VD 1_555 1_555
C13ND C10ND 1_555 1_555
C13GE C10GE 1_555 1_555
C13PA C10PA 1_555 1_555
C13J C10J 1_555 1_555
C13CA C10CA 1_555 1_555
H9WB C13WB 1_555 1_555
H9PB C13PB 1_555 1_555
H9JB C13JB 1_555 1_555
H9KA C13KA 1_555 1_555
H9BB C13BB 1_555 1_555
H9VD C13VD 1_555 1_555
H9ND C13ND 1_555 1_555
H9GE C13GE 1_555 1_555
H9PA C13PA 1_555 1_555
H9J C13J 1_555 1_555
H9CA C13CA 1_555 1_555
H10WB C13WB 1_555 1_555
H10PB C13PB 1_555 1_555
H10JB C13JB 1_555 1_555
H10KA C13KA 1_555 1_555
H10BB C13BB 1_555 1_555
H10VD C13VD 1_555 1_555
H10ND C13ND 1_555 1_555
H10GE C13GE 1_555 1_555
H10PA C13PA 1_555 1_555
H10J C13J 1_555 1_555
H10CA C13CA 1_555 1_555
C14WB C13WB 1_555 1_555
C14PB C13PB 1_555 1_555
C14JB C13JB 1_555 1_555
C14KA C13KA 1_555 1_555
C14BB C13BB 1_555 1_555
C14VD C13VD 1_555 1_555
C14ND C13ND 1_555 1_555
C14GE C13GE 1_555 1_555
C14PA C13PA 1_555 1_555
C14J C13J 1_555 1_555
C14CA C13CA 1_555 1_555
H11WB C14WB 1_555 1_555
H11PB C14PB 1_555 1_555
H11JB C14JB 1_555 1_555
H11KA C14KA 1_555 1_555
H11BB C14BB 1_555 1_555
H11VD C14VD 1_555 1_555
H11ND C14ND 1_555 1_555
H11GE C14GE 1_555 1_555
H11PA C14PA 1_555 1_555
H11J C14J 1_555 1_555
H11CA C14CA 1_555 1_555
H12WB C14WB 1_555 1_555
H12PB C14PB 1_555 1_555
H12JB C14JB 1_555 1_555
H12KA C14KA 1_555 1_555
H12BB C14BB 1_555 1_555
H12VD C14VD 1_555 1_555
H12ND C14ND 1_555 1_555
H12GE C14GE 1_555 1_555
H12PA C14PA 1_555 1_555
H12J C14J 1_555 1_555
H12CA C14CA 1_555 1_555
H13WB C14WB 1_555 1_555
H13PB C14PB 1_555 1_555
H13JB C14JB 1_555 1_555
H13KA C14KA 1_555 1_555
H13BB C14BB 1_555 1_555
H13VD C14VD 1_555 1_555
H13ND C14ND 1_555 1_555
H13GE C14GE 1_555 1_555
H13PA C14PA 1_555 1_555
H13J C14J 1_555 1_555
H13CA C14CA 1_555 1_555
O7FA Cd1FA 1_555 1_555
O7DD Cd1DD 1_555 1_555
O7PA Cd1PA 1_555 1_555
C15DD O7DD 1_555 1_555
C15FA O7FA 1_555 1_555
C15PA O7PA 1_555 1_555
H14DD O7DD 1_555 1_555
H14FA O7FA 1_555 1_555
H14PA O7PA 1_555 1_555
O6 Cd1FA 1_555 1_555
C1 O5JE 1_555 1_555
C6 C7 1_555 1_555
C10 C9PB 1_555 1_555
Cd1FA O5PE 1_555 1_555
Cd1PA O5PA 1_555 1_555
Cd1PA O5JE 1_555 1_555
Cd1DD O5FA 1_555 1_555
Cd1DD O5VD 1_555 1_555
Cd1DD O5DD 1_555 1_555
Cd1DD O5JB 1_555 1_555
Cd1CA O5SD 1_555 1_555
Cd1J O5FD 1_555 1_555
O4VD C1VD 1_555 1_555
O5VD C1JB 1_555 1_555
O5DD C1PA 1_555 1_555
C4WB C10WB 1_555 1_555
C5WB C8WB 1_555 1_555
C6WB C7WB 1_555 1_555
C6PB C7PB 1_555 1_555
C6JB C7JB 1_555 1_555
C6BB C7BB 1_555 1_555
C6KA C7KA 1_555 1_555
C6VD C7VD 1_555 1_555
C6GE C7GE 1_555 1_555
C6ND C7ND 1_555 1_555
C6PA C7PA 1_555 1_555
C6CA C7CA 1_555 1_555
C6J C7J 1_555 1_555
C8PB C9PB 1_555 1_555
C8PB C9WB 1_555 1_555
C8BB C9BB 1_555 1_555
C8KA C9JB 1_555 1_555
C8KA C9KA 1_555 1_555
C8GE C9GE 1_555 1_555
C8ND C9VD 1_555 1_555
C8ND C9ND 1_555 1_555
C8CA C9CA 1_555 1_555
C8J C9PA 1_555 1_555
C8J C9J 1_555 1_555
C9WB C10PB 1_555 1_555
C9BB C10JB 1_555 1_555
C9JB C10KA 1_555 1_555
C9KA C10BB 1_555 1_555
C9GE C10VD 1_555 1_555
C9VD C10ND 1_555 1_555
C9ND C10GE 1_555 1_555
C9CA C10PA 1_555 1_555
C9PA C10J 1_555 1_555
C9J C10CA 1_555 1_555

#END
