
#######################################################################
#
#                 Cambridge Crystallographic Data Centre
#                                CCDC 
#
#######################################################################
#
# If this CIF has been generated from an entry in the Cambridge 
# Structural Database, then it will include bibliographic, chemical, 
# crystal, experimental, refinement or atomic coordinate data resulting 
# from the CCDC's data processing and validation procedures.
#
#######################################################################

data_BOXMEI
_symmetry_cell_setting           triclinic
_symmetry_space_group_name_H-M   'P -1'
_symmetry_Int_Tables_number      2
_space_group_name_Hall           '-P 1'
loop_
_symmetry_equiv_pos_site_id
_symmetry_equiv_pos_as_xyz
1 x,y,z
2 -x,-y,-z
_cell_length_a                   5.1706(2)
_cell_length_b                   7.9178(3)
_cell_length_c                   10.4549(5)
_cell_angle_alpha                81.019(2)
_cell_angle_beta                 84.143(2)
_cell_angle_gamma                79.701(3)
_cell_volume                     414.75
loop_
_atom_site_label
_atom_site_type_symbol
_atom_site_fract_x
_atom_site_fract_y
_atom_site_fract_z
Sr1 Sr 0.5000 1.0000 0.5000
Co1 Co 0.0000 0.0000 1.0000
N1 N 0.0512(6) 0.2363(4) 0.8846(3)
O1 O 0.2174(6) 0.8133(4) 0.6506(3)
O2 O 0.3167(5) -0.1326(3) 0.8896(3)
H1 H 0.2811 -0.1418 0.8137
H2 H 0.4503 -0.0816 0.8793
C1 C 0.0456(8) 0.7248(5) 0.6365(4)
C2 C 0.0551(7) 0.5501(5) 0.7204(4)
C3 C -0.1016(7) 0.4308(5) 0.6994(4)
H3 H -0.2084 0.4559 0.6302
C4 C -0.0969(7) 0.2764(5) 0.7815(4)
C5 C 0.2149(8) 0.5022(5) 0.8237(4)
H4 H 0.3284 0.5746 0.8388
C6 C 0.2050(8) 0.3477(5) 0.9036(4)
H5 H 0.3095 0.3195 0.9737
O3 O -0.1310(6) 0.7678(4) 0.5608(3)
C7 C -0.2575(7) 0.1397(5) 0.7661(4)
O4 O -0.2472(5) 0.0108(3) 0.8546(3)
O5 O -0.3887(6) 0.1632(4) 0.6695(3)
N1A N -0.0512(6) -0.2363(4) 1.1154(3)
O1A O -0.2174(6) -0.8133(4) 1.3494(3)
O2A O -0.3167(5) 0.1326(3) 1.1104(3)
H1A H -0.2811 0.1418 1.1863
H2A H -0.4503 0.0816 1.1207
C1A C -0.0456(8) -0.7248(5) 1.3635(4)
C2A C -0.0551(7) -0.5501(5) 1.2796(4)
C3A C 0.1016(7) -0.4308(5) 1.3006(4)
H3A H 0.2084 -0.4559 1.3698
C4A C 0.0969(7) -0.2764(5) 1.2185(4)
C5A C -0.2149(8) -0.5022(5) 1.1763(4)
H4A H -0.3284 -0.5746 1.1612
C6A C -0.2050(8) -0.3477(5) 1.0964(4)
H5A H -0.3095 -0.3195 1.0263
O3A O 0.1310(6) -0.7678(4) 1.4392(3)
C7A C 0.2575(7) -0.1397(5) 1.2339(4)
O4A O 0.2472(5) -0.0108(3) 1.1454(3)
O5A O 0.3887(6) -0.1632(4) 1.3305(3)
Sr1_2 Sr -0.5000 -1.0000 1.5000
Sr1_3 Sr -0.5000 0.0000 0.5000
Sr1_4 Sr -0.5000 1.0000 0.5000
Sr1_5 Sr 0.5000 -1.0000 1.5000
Sr1_6 Sr 0.5000 0.0000 1.5000
O1A_2 O 0.7826(6) 1.1867(4) 0.3494(3)
O3_2 O 0.8690(6) 0.7678(4) 0.5608(3)
O3A_2 O 0.1310(6) 1.2322(4) 0.4392(3)
O5_2 O 0.6113(6) 1.1632(4) 0.6695(3)
O5A_2 O 0.3887(6) 0.8368(4) 0.3305(3)
loop_
_geom_bond_atom_site_label_1
_geom_bond_atom_site_label_2
_geom_bond_site_symmetry_1
_geom_bond_site_symmetry_2
Sr1 O1 1_555 1_555
Co1 N1 1_555 1_555
N1 C4 1_555 1_555
O1 C1 1_555 1_555
O2 Co1 1_555 1_555
H1 O2 1_555 1_555
H2 O2 1_555 1_555
C1 C2 1_555 1_555
C2 C3 1_555 1_555
C3 H3 1_555 1_555
C4 C3 1_555 1_555
C5 C2 1_555 1_555
H4 C5 1_555 1_555
C6 N1 1_555 1_555
H5 C6 1_555 1_555
O3 C1 1_555 1_555
C7 C4 1_555 1_555
O4 Co1 1_555 1_555
O5 C7 1_555 1_555
N1A Co1 1_555 1_555
O1A C1A 1_555 1_555
O2A Co1 1_555 1_555
H1A O2A 1_555 1_555
H2A O2A 1_555 1_555
C1A C2A 1_555 1_555
C2A C3A 1_555 1_555
C3A H3A 1_555 1_555
C4A N1A 1_555 1_555
C5A C2A 1_555 1_555
H4A C5A 1_555 1_555
C6A N1A 1_555 1_555
H5A C6A 1_555 1_555
O3A C1A 1_555 1_555
C7A C4A 1_555 1_555
O4A Co1 1_555 1_555
O5A C7A 1_555 1_555
Sr1_2 O1A 1_555 1_555
Sr1_3 O5 1_555 1_555
Sr1_4 O3 1_555 1_555
Sr1_5 O3A 1_555 1_555
Sr1_6 O5A 1_555 1_555
O1A_2 Sr1 1_555 1_555
O3_2 Sr1 1_555 1_555
O3A_2 Sr1 1_555 1_555
O5_2 Sr1 1_555 1_555
O5A_2 Sr1 1_555 1_555
C5 C6 1_555 1_555
C7 O4 1_555 1_555
C3A C4A 1_555 1_555
C5A C6A 1_555 1_555
C7A O4A 1_555 1_555

#END
