
#######################################################################
#
#                 Cambridge Crystallographic Data Centre
#                                CCDC 
#
#######################################################################
#
# If this CIF has been generated from an entry in the Cambridge 
# Structural Database, then it will include bibliographic, chemical, 
# crystal, experimental, refinement or atomic coordinate data resulting 
# from the CCDC's data processing and validation procedures.
#
#######################################################################

data_BOXMUY
_symmetry_cell_setting           monoclinic
_symmetry_space_group_name_H-M   'C 2/c'
_symmetry_Int_Tables_number      15
_space_group_name_Hall           '-C 2yn'
loop_
_symmetry_equiv_pos_site_id
_symmetry_equiv_pos_as_xyz
1 x,y,z
2 -x,y,1/2-z
3 1/2+x,1/2+y,z
4 1/2-x,1/2+y,1/2-z
5 -x,-y,-z
6 x,-y,1/2+z
7 1/2-x,1/2-y,-z
8 1/2+x,1/2-y,1/2+z
_cell_length_a                   9.7423(9)
_cell_length_b                   16.9277(15)
_cell_length_c                   8.5751(8)
_cell_angle_alpha                90
_cell_angle_beta                 93.182(2)
_cell_angle_gamma                90
_cell_volume                     1411.98
loop_
_atom_site_label
_atom_site_type_symbol
_atom_site_fract_x
_atom_site_fract_y
_atom_site_fract_z
Sr1 Sr 0.5000 0.488770(15) 0.2500
Cu1 Cu 0.0000 0.5000 0.5000
O1 O 0.1495(2) 0.48966(9) 0.3651(3)
O2 O 0.14169(16) 0.11460(9) 0.34626(18)
O3 O 0.28731(16) 0.39892(10) 0.27115(18)
O4 O -0.03167(17) 0.08912(8) 0.49682(16)
C1 C 0.0333(2) 0.22311(11) 0.4629(2)
C2 C 0.1008(2) 0.35592(12) 0.4142(2)
C3 C -0.0696(2) 0.25253(13) 0.5512(3)
H1 H -0.1279 0.2182 0.6003
N1 N -0.00116(17) 0.38402(11) 0.4987(2)
C4 C 0.1204(2) 0.27619(12) 0.3931(2)
H2 H 0.1907 0.2580 0.3333
C5 C 0.1879(2) 0.41853(13) 0.3440(3)
C6 C -0.0855(2) 0.33345(13) 0.5660(3)
H3 H -0.1560 0.3530 0.6237
C7 C 0.0505(2) 0.13533(12) 0.4342(2)
O1A O 0.8505(2) 0.48966(9) 0.1349(3)
O2A O 0.85831(16) 0.11460(9) 0.15374(18)
O3A O 0.71269(16) 0.39892(10) 0.22885(18)
O4A O 1.03167(17) 0.08912(8) 0.00318(16)
C1A C 0.9667(2) 0.22311(11) 0.0371(2)
C2A C 0.8992(2) 0.35592(12) 0.0858(2)
C3A C 1.0696(2) 0.25253(13) -0.0512(3)
H1A H 1.1279 0.2182 -0.1003
N1A N 1.00116(17) 0.38402(11) 0.0013(2)
C4A C 0.8796(2) 0.27619(12) 0.1069(2)
H2A H 0.8093 0.2580 0.1667
C5A C 0.8121(2) 0.41853(13) 0.1560(3)
C6A C 1.0855(2) 0.33345(13) -0.0660(3)
H3A H 1.1560 0.3530 -0.1237
C7A C 0.9495(2) 0.13533(12) 0.0658(2)
Sr1B Sr 0.0000 -0.011230(15) 0.2500
Sr1B_2 Sr 1.0000 -0.011230(15) 0.2500
Sr1F Sr 0.0000 0.011230(15) 0.7500
Sr1F_2 Sr 1.0000 0.011230(15) -0.2500
Cu1A Cu 1.0000 0.5000 0.0000
O1D O -0.1495(2) 0.51034(9) 0.6349(3)
O2B O 0.64169(16) 0.61460(9) 0.34626(18)
O2C O 0.35831(16) 0.61460(9) 0.15374(18)
O4B O 0.46833(17) 0.58912(8) 0.49682(16)
O4C O 0.53167(17) 0.58912(8) 0.00318(16)
O4F O 0.53167(17) 0.41088(8) 0.50318(16)
O4G O 0.46833(17) 0.41088(8) -0.00318(16)
N1D N 0.00116(17) 0.61598(11) 0.5013(2)
loop_
_geom_bond_atom_site_label_1
_geom_bond_atom_site_label_2
_geom_bond_site_symmetry_1
_geom_bond_site_symmetry_2
Sr1 O3 1_555 1_555
Cu1 O1 1_555 1_555
O1 C5 1_555 1_555
O2 C7 1_555 1_555
O3 C5 1_555 1_555
O4 C7 1_555 1_555
C1 C3 1_555 1_555
C2 N1 1_555 1_555
C3 H1 1_555 1_555
N1 Cu1 1_555 1_555
C4 C1 1_555 1_555
H2 C4 1_555 1_555
C5 C2 1_555 1_555
C6 C3 1_555 1_555
H3 C6 1_555 1_555
C7 C1 1_555 1_555
O1A C5A 1_555 1_555
O2A C7A 1_555 1_555
O3A Sr1 1_555 1_555
O4A C7A 1_555 1_555
C1A C3A 1_555 1_555
C2A N1A 1_555 1_555
C3A H1A 1_555 1_555
N1A C6A 1_555 1_555
C4A C1A 1_555 1_555
H2A C4A 1_555 1_555
C5A O3A 1_555 1_555
C6A C3A 1_555 1_555
H3A C6A 1_555 1_555
C7A C1A 1_555 1_555
Sr1B O2 1_555 1_555
Sr1B_2 O2A 1_555 1_555
Sr1F O4 1_555 1_555
Sr1F_2 O4A 1_555 1_555
Cu1A O1A 1_555 1_555
O1D Cu1 1_555 1_555
O2B Sr1 1_555 1_555
O2C Sr1 1_555 1_555
O4B Sr1 1_555 1_555
O4C Sr1 1_555 1_555
O4F Sr1 1_555 1_555
O4G Sr1 1_555 1_555
N1D Cu1 1_555 1_555
O4 Sr1B 1_555 1_555
C2 C4 1_555 1_555
N1 C6 1_555 1_555
O4A Sr1B_2 1_555 1_555
C2A C4A 1_555 1_555
C2A C5A 1_555 1_555
N1A Cu1A 1_555 1_555

#END
