
#######################################################################
#
#                 Cambridge Crystallographic Data Centre
#                                CCDC 
#
#######################################################################
#
# If this CIF has been generated from an entry in the Cambridge 
# Structural Database, then it will include bibliographic, chemical, 
# crystal, experimental, refinement or atomic coordinate data resulting 
# from the CCDC's data processing and validation procedures.
#
#######################################################################

data_BOXNAF01
_symmetry_cell_setting           triclinic
_symmetry_space_group_name_H-M   'P -1'
_symmetry_Int_Tables_number      2
_space_group_name_Hall           '-P 1'
loop_
_symmetry_equiv_pos_site_id
_symmetry_equiv_pos_as_xyz
1 x,y,z
2 -x,-y,-z
_cell_length_a                   6.8533(14)
_cell_length_b                   8.1601(16)
_cell_length_c                   17.454(3)
_cell_angle_alpha                93.57(3)
_cell_angle_beta                 99.31(3)
_cell_angle_gamma                112.23(3)
_cell_volume                     883.456
loop_
_atom_site_label
_atom_site_type_symbol
_atom_site_fract_x
_atom_site_fract_y
_atom_site_fract_z
Cu1 Cu 0.23084(11) 0.18142(9) 0.48690(4)
O1 O 0.5945(5) 0.2675(5) 0.5085(2)
H1 H 0.6242 0.1924 0.4852
H2 H 0.6877 0.3929 0.5338
O2 O 0.2001(6) 0.3789(5) 0.4345(2)
O3 O 0.2167(6) -0.0314(5) 0.5390(2)
O4 O 0.2997(6) -0.1008(5) 0.6594(2)
O5 O 0.1503(6) 0.4632(5) 0.3155(2)
O6 O 0.2025(6) -0.2011(5) 0.1145(2)
O7 O 0.0601(6) -0.0040(5) 0.0848(2)
O8 O 0.4121(6) 0.3782(5) 0.8867(2)
O9 O 0.4998(6) 0.6569(5) 0.8584(2)
N1 N 0.1989(7) 0.0739(6) 0.3782(3)
N2 N 0.2572(7) 0.2890(6) 0.5949(3)
C1 C 0.1609(8) -0.0269(8) 0.2199(3)
C2 C 0.1553(9) 0.1352(7) 0.2465(3)
H3 H 0.1382 0.2117 0.2111
C3 C 0.1752(8) 0.1817(7) 0.3250(3)
C4 C 0.2048(9) -0.0825(7) 0.3537(3)
H4 H 0.2212 -0.1567 0.3904
C5 C 0.1731(9) 0.3552(8) 0.3587(3)
C6 C 0.2746(9) 0.0049(8) 0.6151(4)
C7 C 0.3010(8) 0.1881(7) 0.6483(3)
C8 C 0.2611(9) 0.4491(7) 0.6193(3)
H5 H 0.2234 0.5150 0.5824
C9 C 0.1871(8) -0.1365(7) 0.2755(3)
H6 H 0.1925 -0.2455 0.2599
C10 C 0.3577(8) 0.2500(7) 0.7275(3)
H7 H 0.3881 0.1791 0.7634
C11 C 0.3692(8) 0.4198(8) 0.7535(3)
C12 C 0.3190(9) 0.5199(8) 0.6975(3)
H8 H 0.3246 0.6331 0.7127
C13 C 0.4309(9) 0.4928(8) 0.8396(3)
C14 C 0.1381(9) -0.0811(8) 0.1338(3)
Sr1 Sr 0.14200(9) -0.18881(8) -0.03552(3)
O10 O 0.3106(6) -0.1056(6) -0.1597(2)
H9 H 0.3997 0.0053 -0.1673
H10 H 0.4332 -0.1287 -0.1516
O11 O 0.4457(6) 0.1544(5) -0.0008(2)
H11 H 0.4347 0.2028 -0.0406
H12 H 0.4312 0.2412 0.0327
O12 O -0.0421(6) -0.4483(5) -0.1492(2)
H13 H -0.1319 -0.5736 -0.1559
H14 H -0.0187 -0.4296 -0.2040
O13 O -0.1940(6) -0.4521(5) -0.0007(2)
H15 H -0.2765 -0.4033 0.0345
H16 H -0.3157 -0.4587 -0.0428
Cu1A Cu -0.23084(11) -0.18142(9) 0.51310(4)
O3A O -0.2167(6) 0.0314(5) 0.4610(2)
O7A O -0.0601(6) 0.0040(5) -0.0848(2)
Sr1A Sr -0.14200(9) 0.18881(8) 0.03552(3)
Sr1A_2 Sr 0.85800(9) 0.18881(8) 0.03552(3)
O11A O 0.5543(6) -0.1544(5) 0.0008(2)
loop_
_geom_bond_atom_site_label_1
_geom_bond_atom_site_label_2
_geom_bond_site_symmetry_1
_geom_bond_site_symmetry_2
Cu1 O1 1_555 1_555
O1 H1 1_555 1_555
H2 O1 1_555 1_555
O2 Cu1 1_555 1_555
O3 Cu1 1_555 1_555
O4 C6 1_555 1_555
O5 C5 1_555 1_555
O6 C14 1_555 1_555
O7 C14 1_555 1_555
O8 C13 1_555 1_555
O9 C13 1_555 1_555
N1 Cu1 1_555 1_555
N2 Cu1 1_555 1_555
C1 C2 1_555 1_555
C2 H3 1_555 1_555
C3 N1 1_555 1_555
C4 N1 1_555 1_555
H4 C4 1_555 1_555
C5 O2 1_555 1_555
C6 O3 1_555 1_555
C7 N2 1_555 1_555
C8 N2 1_555 1_555
H5 C8 1_555 1_555
C9 C1 1_555 1_555
H6 C9 1_555 1_555
C10 C7 1_555 1_555
H7 C10 1_555 1_555
C11 C10 1_555 1_555
C12 C8 1_555 1_555
H8 C12 1_555 1_555
C13 C11 1_555 1_555
C14 C1 1_555 1_555
Sr1 O6 1_555 1_555
O10 Sr1 1_555 1_555
H9 O10 1_555 1_555
H10 O10 1_555 1_555
O11 Sr1 1_555 1_555
H11 O11 1_555 1_555
H12 O11 1_555 1_555
O12 Sr1 1_555 1_555
H13 O12 1_555 1_555
H14 O12 1_555 1_555
O13 Sr1 1_555 1_555
H15 O13 1_555 1_555
H16 O13 1_555 1_555
Cu1A O3 1_555 1_555
O3A Cu1 1_555 1_555
O7A Sr1 1_555 1_555
Sr1A O7 1_555 1_555
Sr1A_2 O11 1_555 1_555
O11A Sr1 1_555 1_555
O7 Sr1 1_555 1_555
C2 C3 1_555 1_555
C3 C5 1_555 1_555
C4 C9 1_555 1_555
C6 C7 1_555 1_555
C11 C12 1_555 1_555
Cu1A O3A 1_555 1_555
O7A Sr1A 1_555 1_555
Sr1A_2 O11A 1_555 1_555

#END
