
#######################################################################
#
#                 Cambridge Crystallographic Data Centre
#                                CCDC 
#
#######################################################################
#
# If this CIF has been generated from an entry in the Cambridge 
# Structural Database, then it will include bibliographic, chemical, 
# crystal, experimental, refinement or atomic coordinate data resulting 
# from the CCDC's data processing and validation procedures.
#
#######################################################################

data_BOXNEJ
_symmetry_cell_setting           triclinic
_symmetry_space_group_name_H-M   'P -1'
_symmetry_Int_Tables_number      2
_space_group_name_Hall           '-P 1'
loop_
_symmetry_equiv_pos_site_id
_symmetry_equiv_pos_as_xyz
1 x,y,z
2 -x,-y,-z
_cell_length_a                   9.4160(6)
_cell_length_b                   10.5459(6)
_cell_length_c                   12.1200(7)
_cell_angle_alpha                88.2420(10)
_cell_angle_beta                 72.1940(10)
_cell_angle_gamma                82.2710(10)
_cell_volume                     1135.39
loop_
_atom_site_label
_atom_site_type_symbol
_atom_site_fract_x
_atom_site_fract_y
_atom_site_fract_z
Sr1 Sr 0.10401(2) 0.836870(19) 0.148812(18)
N1 N -0.0007(2) 0.36721(17) 0.39033(16)
O1 O 0.0657(2) 0.60046(15) 0.35996(14)
C1 C 0.0187(2) 0.4137(2) 0.28243(19)
Cu1 Cu 0.0000 0.5000 0.5000
O2 O 0.0873(2) 0.59752(17) 0.17184(15)
N2 N -0.4438(2) 0.81299(19) 0.51514(17)
C2 C -0.0019(3) 0.3443(2) 0.19560(19)
H1 H 0.0093 0.3792 0.1225
Cu2 Cu -0.42676(3) 0.68601(3) 0.39302(3)
N3 N 0.4275(2) 0.4348(2) -0.27136(17)
C3 C -0.0396(3) 0.2213(2) 0.21871(19)
O3 O -0.0858(3) 0.20769(19) 0.04079(18)
C4 C -0.0516(3) 0.1718(2) 0.3284(2)
H2 H -0.0714 0.0881 0.3448
O4 O -0.0915(2) 0.03111(16) 0.14672(15)
O5 O -0.2429(2) 0.75405(17) 0.31358(14)
C5 C -0.0339(3) 0.2482(2) 0.4129(2)
H3 H -0.0455 0.2159 0.4869
O6 O -0.0807(2) 0.86828(16) 0.35178(15)
C6 C 0.0602(3) 0.5480(2) 0.2684(2)
O7 O -0.2561(2) 1.1070(2) 0.73038(17)
C7 C -0.0750(3) 0.1459(2) 0.1280(2)
C8 C -0.3156(3) 0.8645(2) 0.49302(19)
O8 O -0.4978(2) 1.1263(2) 0.83141(19)
O9 O 0.60826(19) 0.38063(18) -0.48046(15)
C9 C -0.2927(3) 0.9486(2) 0.56885(19)
H4 H -0.2016 0.9811 0.5526
O10 O 0.72365(19) 0.55276(17) -0.48431(15)
H5 H 0.7713 0.5409 -0.5559
C10 C -0.4082(3) 0.9837(2) 0.66977(19)
C11 C -0.5409(3) 0.9303(2) 0.6930(2)
H6 H -0.6198 0.9522 0.7602
O11 O 0.6097(3) 0.7731(3) -0.0936(2)
O12 O 0.4110(2) 0.73012(18) 0.05023(15)
C12 C -0.5535(3) 0.8437(2) 0.6138(2)
H7 H -0.6412 0.8058 0.6300
O13 O 0.2485(3) 1.0120(2) 0.0280(2)
H8 H 0.3188 1.0555 0.0266
H9 H 0.2186 1.0209 -0.0315
C13 C -0.2019(3) 0.8266(2) 0.37717(19)
C14 C -0.3837(3) 1.0794(2) 0.7498(2)
C15 C 0.5412(3) 0.5059(2) -0.3102(2)
C16 C 0.5664(3) 0.5973(2) -0.2418(2)
H10 H 0.6455 0.6452 -0.2708
C17 C 0.4715(3) 0.6165(2) -0.1287(2)
C18 C 0.3534(3) 0.5442(2) -0.0894(2)
H11 H 0.2877 0.5560 -0.0145
C19 C 0.3346(3) 0.4542(3) -0.1630(2)
H12 H 0.2553 0.4059 -0.1364
C20 C 0.6345(3) 0.4790(2) -0.4344(2)
C21 C 0.5028(3) 0.7157(2) -0.0542(2)
Sr1A Sr -0.10401(2) 0.163130(19) -0.148812(18)
N1A N 0.0007(2) 0.63279(17) -0.39033(16)
O1A O -0.0657(2) 0.39954(15) -0.35996(14)
C1A C -0.0187(2) 0.5863(2) -0.28243(19)
O2A O -0.0873(2) 0.40248(17) -0.17184(15)
N2A N 0.4438(2) 0.18701(19) -0.51514(17)
C2A C 0.0019(3) 0.6557(2) -0.19560(19)
H1A H -0.0093 0.6208 -0.1225
Cu2A Cu 0.42676(3) 0.31399(3) -0.39302(3)
N3A N -0.4275(2) 0.5652(2) 0.27136(17)
C3A C 0.0396(3) 0.7787(2) -0.21871(19)
O3A O 0.0858(3) 0.79231(19) -0.04079(18)
C4A C 0.0516(3) 0.8282(2) -0.3284(2)
H2A H 0.0714 0.9119 -0.3448
O4A O 0.0915(2) 0.96889(16) -0.14672(15)
O5A O 0.2429(2) 0.24595(17) -0.31358(14)
C5A C 0.0339(3) 0.7518(2) -0.4129(2)
H3A H 0.0455 0.7841 -0.4869
O6A O 0.0807(2) 0.13172(16) -0.35178(15)
C6A C -0.0602(3) 0.4520(2) -0.2684(2)
O7A O 0.2561(2) -0.1070(2) -0.73038(17)
C7A C 0.0750(3) 0.8541(2) -0.1280(2)
C8A C 0.3156(3) 0.1355(2) -0.49302(19)
O8A O 0.4978(2) -0.1263(2) -0.83141(19)
O9A O -0.60826(19) 0.61937(18) 0.48046(15)
C9A C 0.2927(3) 0.0514(2) -0.56885(19)
H4A H 0.2016 0.0189 -0.5526
O10A O -0.72365(19) 0.44724(17) 0.48431(15)
H5A H -0.7713 0.4591 0.5559
C10A C 0.4082(3) 0.0163(2) -0.66977(19)
C11A C 0.5409(3) 0.0697(2) -0.6930(2)
H6A H 0.6198 0.0478 -0.7602
O11A O -0.6097(3) 0.2269(3) 0.0936(2)
O12A O -0.4110(2) 0.26988(18) -0.05023(15)
C12A C 0.5535(3) 0.1563(2) -0.6138(2)
H7A H 0.6412 0.1942 -0.6300
O13A O -0.2485(3) -0.0120(2) -0.0280(2)
H8A H -0.3188 -0.0555 -0.0266
H9A H -0.2186 -0.0209 0.0315
C13A C 0.2019(3) 0.1734(2) -0.37717(19)
C14A C 0.3837(3) -0.0794(2) -0.7498(2)
C15A C -0.5412(3) 0.4941(2) 0.3102(2)
C16A C -0.5664(3) 0.4027(2) 0.2418(2)
H10A H -0.6455 0.3548 0.2708
C17A C -0.4715(3) 0.3835(2) 0.1287(2)
C18A C -0.3534(3) 0.4558(2) 0.0894(2)
H11A H -0.2877 0.4440 0.0145
C19A C -0.3346(3) 0.5458(3) 0.1630(2)
H12A H -0.2553 0.5941 0.1364
C20A C -0.6345(3) 0.5210(2) 0.4344(2)
C21A C -0.5028(3) 0.2843(2) 0.0542(2)
Sr1_2 Sr 0.10401(2) -0.163130(19) -0.851188(18)
Sr1_3 Sr 0.10401(2) -0.163130(19) 0.148812(18)
Sr1A_2 Sr -0.10401(2) 1.163130(19) -0.148812(18)
Sr1A_3 Sr -0.10401(2) 1.163130(19) 0.851188(18)
N1A_2 N 0.0007(2) 0.63279(17) 0.60967(16)
O1A_2 O -0.0657(2) 0.39954(15) 0.64004(14)
Cu1_2 Cu -1.0000 0.5000 0.5000
Cu1_3 Cu 0.0000 0.5000 -0.5000
Cu1_4 Cu 1.0000 0.5000 -0.5000
Cu2_2 Cu 0.57324(3) 0.68601(3) -0.60698(3)
Cu2A_2 Cu -0.57324(3) 0.31399(3) 0.60698(3)
O4_2 O -0.0915(2) 1.03111(16) 0.14672(15)
O4A_2 O 0.0915(2) -0.03111(16) -0.14672(15)
O7_2 O -0.2561(2) 0.1070(2) -0.26962(17)
O7A_2 O 0.2561(2) 0.8930(2) 0.26962(17)
O10_2 O -0.27635(19) 0.55276(17) 0.51569(15)
O10A_2 O 0.27635(19) 0.44724(17) -0.51569(15)
O10A_3 O 0.27635(19) 0.44724(17) 0.48431(15)
loop_
_geom_bond_atom_site_label_1
_geom_bond_atom_site_label_2
_geom_bond_site_symmetry_1
_geom_bond_site_symmetry_2
Sr1 O2 1_555 1_555
N1 C1 1_555 1_555
O1 Cu1 1_555 1_555
C1 C2 1_555 1_555
Cu1 N1 1_555 1_555
O2 C6 1_555 1_555
N2 Cu2 1_555 1_555
C2 H1 1_555 1_555
Cu2 O5 1_555 1_555
N3 C15 1_555 1_555
C3 C2 1_555 1_555
O3 C7 1_555 1_555
C4 C3 1_555 1_555
H2 C4 1_555 1_555
O4 C7 1_555 1_555
O5 C13 1_555 1_555
C5 N1 1_555 1_555
H3 C5 1_555 1_555
O6 Sr1 1_555 1_555
C6 O1 1_555 1_555
O7 C14 1_555 1_555
C7 C3 1_555 1_555
C8 N2 1_555 1_555
O8 C14 1_555 1_555
O9 C20 1_555 1_555
C9 C8 1_555 1_555
H4 C9 1_555 1_555
O10 H5 1_555 1_555
C10 C9 1_555 1_555
C11 C10 1_555 1_555
H6 C11 1_555 1_555
O11 C21 1_555 1_555
O12 Sr1 1_555 1_555
C12 N2 1_555 1_555
H7 C12 1_555 1_555
O13 Sr1 1_555 1_555
H8 O13 1_555 1_555
H9 O13 1_555 1_555
C13 O6 1_555 1_555
C14 C10 1_555 1_555
C15 C16 1_555 1_555
C16 H10 1_555 1_555
C17 C16 1_555 1_555
C18 C17 1_555 1_555
H11 C18 1_555 1_555
C19 N3 1_555 1_555
H12 C19 1_555 1_555
C20 O10 1_555 1_555
C21 O12 1_555 1_555
Sr1A O3 1_555 1_555
N1A C1A 1_555 1_555
O1A C6A 1_555 1_555
C1A C2A 1_555 1_555
O2A Sr1A 1_555 1_555
N2A Cu2A 1_555 1_555
C2A H1A 1_555 1_555
Cu2A N3 1_555 1_555
N3A Cu2 1_555 1_555
C3A C2A 1_555 1_555
O3A Sr1 1_555 1_555
C4A C3A 1_555 1_555
H2A C4A 1_555 1_555
O4A C7A 1_555 1_555
O5A Cu2A 1_555 1_555
C5A N1A 1_555 1_555
H3A C5A 1_555 1_555
O6A Sr1A 1_555 1_555
C6A C1A 1_555 1_555
O7A C14A 1_555 1_555
C7A C3A 1_555 1_555
C8A N2A 1_555 1_555
O8A C14A 1_555 1_555
O9A Cu2 1_555 1_555
C9A C8A 1_555 1_555
H4A C9A 1_555 1_555
O10A H5A 1_555 1_555
C10A C9A 1_555 1_555
C11A C10A 1_555 1_555
H6A C11A 1_555 1_555
O11A C21A 1_555 1_555
O12A Sr1A 1_555 1_555
C12A N2A 1_555 1_555
H7A C12A 1_555 1_555
O13A Sr1A 1_555 1_555
H8A O13A 1_555 1_555
H9A O13A 1_555 1_555
C13A O5A 1_555 1_555
C14A C10A 1_555 1_555
C15A N3A 1_555 1_555
C16A C15A 1_555 1_555
H10A C16A 1_555 1_555
C17A C16A 1_555 1_555
C18A C17A 1_555 1_555
H11A C18A 1_555 1_555
C19A N3A 1_555 1_555
H12A C19A 1_555 1_555
C20A O9A 1_555 1_555
C21A O12A 1_555 1_555
Sr1_2 O7A 1_555 1_555
Sr1_3 O4 1_555 1_555
Sr1A_2 O4A 1_555 1_555
Sr1A_3 O7 1_555 1_555
N1A_2 Cu1 1_555 1_555
O1A_2 Cu1 1_555 1_555
Cu1_2 O10A 1_555 1_555
Cu1_3 N1A 1_555 1_555
Cu1_4 O10 1_555 1_555
Cu2_2 O10 1_555 1_555
Cu2A_2 O10A 1_555 1_555
O4_2 Sr1 1_555 1_555
O4A_2 Sr1A 1_555 1_555
O7_2 Sr1A 1_555 1_555
O7A_2 Sr1 1_555 1_555
O10_2 Cu1 1_555 1_555
O10A_2 Cu2A 1_555 1_555
O10A_3 Cu1 1_555 1_555
C1 C6 1_555 1_555
Cu2 O10_2 1_555 1_555
C4 C5 1_555 1_555
C8 C13 1_555 1_555
O9 Cu2A 1_555 1_555
C11 C12 1_555 1_555
C15 C20 1_555 1_555
C17 C21 1_555 1_555
C18 C19 1_555 1_555
O1A Cu1_3 1_555 1_555
O2A C6A 1_555 1_555
O3A C7A 1_555 1_555
C4A C5A 1_555 1_555
O6A C13A 1_555 1_555
C8A C13A 1_555 1_555
O10A C20A 1_555 1_555
C11A C12A 1_555 1_555
C15A C20A 1_555 1_555
C17A C21A 1_555 1_555
C18A C19A 1_555 1_555
Cu1_3 O10A_2 1_555 1_555

#END
