
#######################################################################
#
#                 Cambridge Crystallographic Data Centre
#                                CCDC 
#
#######################################################################
#
# If this CIF has been generated from an entry in the Cambridge 
# Structural Database, then it will include bibliographic, chemical, 
# crystal, experimental, refinement or atomic coordinate data resulting 
# from the CCDC's data processing and validation procedures.
#
#######################################################################

data_BOXNAF
_symmetry_cell_setting           triclinic
_symmetry_space_group_name_H-M   'P -1'
_symmetry_Int_Tables_number      2
_space_group_name_Hall           '-P 1'
loop_
_symmetry_equiv_pos_site_id
_symmetry_equiv_pos_as_xyz
1 x,y,z
2 -x,-y,-z
_cell_length_a                   6.9324(14)
_cell_length_b                   8.1600(16)
_cell_length_c                   17.446(3)
_cell_angle_alpha                93.39(3)
_cell_angle_beta                 99.61(3)
_cell_angle_gamma                112.02(3)
_cell_volume                     894.028
loop_
_atom_site_label
_atom_site_type_symbol
_atom_site_fract_x
_atom_site_fract_y
_atom_site_fract_z
Sr1 Sr 0.35647(4) 1.18718(3) 0.535341(12)
Cu1 Cu 0.27109(5) 0.81819(4) 0.013228(15)
O1 O 0.2954(3) 1.1969(3) 0.38496(10)
O2 O -0.0518(3) 1.1561(2) 0.49845(10)
H1 H -0.0875 1.2033 0.4593
H2 H -0.0614 1.2116 0.5395
O3 O 0.4364(3) 1.0018(2) 0.41478(9)
O4 O -0.0913(3) 0.7349(2) -0.00765(10)
H3 H -0.1721 0.6289 -0.0281
H4 H -0.1580 0.7870 0.0139
C1 C 0.1979(4) 0.8097(3) -0.14828(13)
O5 O 0.3486(3) 0.5363(2) 0.18427(10)
C2 C 0.3251(4) 0.8174(3) 0.17476(13)
O6 O 0.0907(4) 0.6220(3) -0.38680(10)
O7 O 0.5423(3) 1.4490(2) 0.64884(10)
H5 H 0.5733 1.4620 0.6987
H6 H 0.5965 1.5556 0.6389
O8 O 0.6923(3) 1.4481(3) 0.50109(10)
H7 H 0.7931 1.4813 0.5411
H8 H 0.7516 1.4144 0.4680
C3 C 0.3427(4) 0.8631(3) 0.25373(13)
H9 H 0.3566 0.7856 0.2892
O9 O 0.1984(3) 1.0977(2) -0.15836(11)
C4 C 0.3396(4) 1.0253(3) 0.27976(12)
C5 C 0.3594(4) 1.0784(3) 0.36630(13)
O10 O 0.0028(3) 0.3457(3) -0.35832(11)
O11 O 0.1868(3) 1.1009(3) 0.65808(12)
H10 H 0.2255 1.1045 0.7072
H11 H 0.1236 1.1709 0.6636
C6 C 0.2247(4) 0.9936(3) -0.11503(14)
C7 C 0.1427(4) 0.7494(3) -0.22780(13)
H12 H 0.1130 0.8207 -0.2638
C8 C 0.3268(4) 0.6437(3) 0.14110(14)
C9 C 0.1820(4) 0.4815(3) -0.19820(13)
H13 H 0.1786 0.3692 -0.2137
C10 C 0.2992(4) 1.0812(3) 0.14673(13)
H14 H 0.2843 1.1562 0.1101
C11 C 0.1321(4) 0.5813(3) -0.25312(13)
C12 C 0.2373(5) 0.5508(3) -0.11958(14)
H15 H 0.2723 0.4835 -0.0826
C13 C 0.3153(4) 1.1352(3) 0.22511(13)
H16 H 0.3098 1.2441 0.2407
O12 O 0.3011(3) 0.6211(2) 0.06585(9)
O13 O 0.2835(3) 1.0285(2) -0.03940(10)
N1 N 0.3043(3) 0.9257(3) 0.12195(11)
N2 N 0.2422(3) 0.7100(3) -0.09494(11)
C14 C 0.0706(4) 0.5094(4) -0.33989(14)
Sr1A Sr -0.35647(4) 0.81282(3) 0.464659(12)
Sr1A_2 Sr 0.64353(4) 0.81282(3) 0.464659(12)
O2A O 0.0518(3) 0.8439(2) 0.50155(10)
O3A O 0.5636(3) 0.9982(2) 0.58522(9)
loop_
_geom_bond_atom_site_label_1
_geom_bond_atom_site_label_2
_geom_bond_site_symmetry_1
_geom_bond_site_symmetry_2
Sr1 O1 1_555 1_555
Cu1 O4 1_555 1_555
O1 C5 1_555 1_555
O2 Sr1 1_555 1_555
H1 O2 1_555 1_555
H2 O2 1_555 1_555
O3 Sr1 1_555 1_555
O4 H3 1_555 1_555
H4 O4 1_555 1_555
C1 C6 1_555 1_555
O5 C8 1_555 1_555
C2 C3 1_555 1_555
O6 C14 1_555 1_555
O7 Sr1 1_555 1_555
H5 O7 1_555 1_555
H6 O7 1_555 1_555
O8 Sr1 1_555 1_555
H7 O8 1_555 1_555
H8 O8 1_555 1_555
C3 H9 1_555 1_555
O9 C6 1_555 1_555
C4 C3 1_555 1_555
C5 O3 1_555 1_555
O10 C14 1_555 1_555
O11 Sr1 1_555 1_555
H10 O11 1_555 1_555
H11 O11 1_555 1_555
C6 O13 1_555 1_555
C7 C1 1_555 1_555
H12 C7 1_555 1_555
C8 C2 1_555 1_555
C9 H13 1_555 1_555
C10 H14 1_555 1_555
C11 C7 1_555 1_555
C12 C9 1_555 1_555
H15 C12 1_555 1_555
C13 C4 1_555 1_555
H16 C13 1_555 1_555
O12 Cu1 1_555 1_555
O13 Cu1 1_555 1_555
N1 Cu1 1_555 1_555
N2 Cu1 1_555 1_555
C14 C11 1_555 1_555
Sr1A O2 1_555 1_555
Sr1A_2 O3 1_555 1_555
O2A Sr1 1_555 1_555
O3A Sr1 1_555 1_555
C1 N2 1_555 1_555
C2 N1 1_555 1_555
C4 C5 1_555 1_555
C8 O12 1_555 1_555
C9 C11 1_555 1_555
C10 C13 1_555 1_555
C10 N1 1_555 1_555
C12 N2 1_555 1_555
Sr1A O2A 1_555 1_555
Sr1A_2 O3A 1_555 1_555

#END
