
#######################################################################
#
#                 Cambridge Crystallographic Data Centre
#                                CCDC 
#
#######################################################################
#
# If this CIF has been generated from an entry in the Cambridge 
# Structural Database, then it will include bibliographic, chemical, 
# crystal, experimental, refinement or atomic coordinate data resulting 
# from the CCDC's data processing and validation procedures.
#
#######################################################################

data_BOXROV
_symmetry_cell_setting           triclinic
_symmetry_space_group_name_H-M   'P -1'
_symmetry_Int_Tables_number      2
_space_group_name_Hall           '-P 1'
loop_
_symmetry_equiv_pos_site_id
_symmetry_equiv_pos_as_xyz
1 x,y,z
2 -x,-y,-z
_cell_length_a                   8.280(3)
_cell_length_b                   6.089(2)
_cell_length_c                   9.302(5)
_cell_angle_alpha                62.67(2)
_cell_angle_beta                 94.67(3)
_cell_angle_gamma                70.81(2)
_cell_volume                     378.093
loop_
_atom_site_label
_atom_site_type_symbol
_atom_site_fract_x
_atom_site_fract_y
_atom_site_fract_z
Cu1 Cu 0.00260 0.21800 0.08980
Cl1 Cl -0.19170 0.03370 0.07130
O1 O 0.14720 0.41130 0.08780
N1 N 0.14730 -0.09240 0.32340
C1 C 0.33500 0.29300 0.12830
C2 C 0.20340 -0.35790 0.36820
C3 C 0.18290 -0.04200 0.44470
C4 C 0.29250 -0.56130 0.53020
C5 C 0.27000 -0.23670 0.60620
C6 C 0.32830 -0.50910 0.65440
H1 H 0.37000 0.18000 0.10000
H2 H 0.36000 0.46000 0.06000
H3 H 0.37000 0.36000 0.19000
H4 H 0.15000 -0.35000 0.26000
H5 H 0.13000 0.15000 0.40000
H6 H 0.36000 -0.75000 0.55000
H7 H 0.28000 -0.22000 0.69000
H8 H 0.37000 -0.64000 0.77000
Cu1A Cu -0.00260 0.78200 -0.08980
Cl1A Cl 0.19170 -0.03370 -0.07130
O1A O -0.14720 0.58870 -0.08780
Cu1A_2 Cu -0.00260 -0.21800 -0.08980
Cl1_2 Cl -0.19170 1.03370 0.07130
Cl1A_2 Cl 0.19170 0.96630 -0.07130
N1A N -0.14730 1.09240 -0.32340
C1A C -0.33500 0.70700 -0.12830
C2A C -0.20340 1.35790 -0.36820
C3A C -0.18290 1.04200 -0.44470
H1A H -0.37000 0.82000 -0.10000
H2A H -0.36000 0.54000 -0.06000
H3A H -0.37000 0.64000 -0.19000
C4A C -0.29250 1.56130 -0.53020
H4A H -0.15000 1.35000 -0.26000
C5A C -0.27000 1.23670 -0.60620
H5A H -0.13000 0.85000 -0.40000
C6A C -0.32830 1.50910 -0.65440
H6A H -0.36000 1.75000 -0.55000
H7A H -0.28000 1.22000 -0.69000
H8A H -0.37000 1.64000 -0.77000
loop_
_geom_bond_atom_site_label_1
_geom_bond_atom_site_label_2
_geom_bond_site_symmetry_1
_geom_bond_site_symmetry_2
Cu1 Cl1 1_555 1_555
Cl1 Cu1A_2 1_555 1_555
O1 Cu1 1_555 1_555
N1 Cu1 1_555 1_555
C1 O1 1_555 1_555
C2 N1 1_555 1_555
C3 N1 1_555 1_555
C4 C2 1_555 1_555
C5 C3 1_555 1_555
C6 C4 1_555 1_555
H1 C1 1_555 1_555
H2 C1 1_555 1_555
H3 C1 1_555 1_555
H4 C2 1_555 1_555
H5 C3 1_555 1_555
H6 C4 1_555 1_555
H7 C5 1_555 1_555
H8 C6 1_555 1_555
Cu1A O1 1_555 1_555
Cl1A Cu1 1_555 1_555
O1A Cu1 1_555 1_555
Cu1A_2 Cl1A 1_555 1_555
Cl1_2 Cu1A 1_555 1_555
Cl1A_2 Cu1A 1_555 1_555
N1A Cu1A 1_555 1_555
C1A O1A 1_555 1_555
C2A N1A 1_555 1_555
C3A N1A 1_555 1_555
H1A C1A 1_555 1_555
H2A C1A 1_555 1_555
H3A C1A 1_555 1_555
C4A C2A 1_555 1_555
H4A C2A 1_555 1_555
C5A C3A 1_555 1_555
H5A C3A 1_555 1_555
C6A C4A 1_555 1_555
H6A C4A 1_555 1_555
H7A C5A 1_555 1_555
H8A C6A 1_555 1_555
C5 C6 1_555 1_555
Cu1A O1A 1_555 1_555
C5A C6A 1_555 1_555

#END
