
#######################################################################
#
#                 Cambridge Crystallographic Data Centre
#                                CCDC 
#
#######################################################################
#
# If this CIF has been generated from an entry in the Cambridge 
# Structural Database, then it will include bibliographic, chemical, 
# crystal, experimental, refinement or atomic coordinate data resulting 
# from the CCDC's data processing and validation procedures.
#
#######################################################################

data_BOXYAQ
_symmetry_cell_setting           monoclinic
_symmetry_space_group_name_H-M   'P 21/c'
_symmetry_Int_Tables_number      14
_space_group_name_Hall           '-P 2ybc'
loop_
_symmetry_equiv_pos_site_id
_symmetry_equiv_pos_as_xyz
1 x,y,z
2 -x,1/2+y,1/2-z
3 -x,-y,-z
4 x,1/2-y,1/2+z
_cell_length_a                   15.8041(3)
_cell_length_b                   16.2451(3)
_cell_length_c                   11.5352(2)
_cell_angle_alpha                90
_cell_angle_beta                 93.837(2)
_cell_angle_gamma                90
_cell_volume                     2954.9
loop_
_atom_site_label
_atom_site_type_symbol
_atom_site_fract_x
_atom_site_fract_y
_atom_site_fract_z
Mn1 Mn 0.80625(3) 0.41538(3) 0.21749(4)
Mn2 Mn 0.64177(3) 0.53986(3) 0.30518(5)
Mn3 Mn 0.30920(3) 0.41403(3) 0.19972(4)
Mn4 Mn 0.14426(3) 0.54177(3) 0.28377(4)
P1 P 0.24987(5) 0.21556(5) 0.17048(7)
P2 P 0.24551(5) 0.72191(5) 0.23775(7)
O1 O 0.26251(17) 0.29994(15) 0.2235(2)
O2 O 0.31451(16) 0.15535(16) 0.2227(2)
O3 O 0.24398(16) 0.21493(19) 0.0398(2)
O4 O 0.15841(15) 0.18866(16) 0.2096(2)
H1 H 0.1572 0.1386 0.2181
O5 O 0.17731(17) 0.66323(16) 0.2728(2)
O6 O 0.24206(15) 0.80061(15) 0.3062(2)
O7 O 0.24373(15) 0.73353(18) 0.1083(2)
O8 O 0.33633(16) 0.68390(17) 0.2804(2)
H2 H 0.3392 0.6361 0.2580
O9 O 0.74834(15) 0.45888(15) 0.3694(2)
O10 O 0.84333(16) 0.44284(17) 0.5197(2)
O11 O 0.65097(15) 0.54878(17) 0.4999(2)
O12 O 0.74640(15) 0.53316(16) 0.6502(2)
O13 O 0.56566(15) 0.42592(16) 0.3129(2)
O14 O 0.43754(14) 0.37705(15) 0.2569(2)
O15 O 0.51487(16) 0.57802(17) 0.2555(3)
O16 O 0.38401(15) 0.53219(15) 0.2145(2)
O17 O 0.32866(16) 0.42335(16) 0.0117(2)
O18 O 0.29633(14) 0.50360(15) -0.14246(19)
O19 O 0.20540(14) 0.49599(15) 0.12584(19)
O20 O 0.16457(15) 0.56611(16) -0.0344(2)
O21 O 0.06995(15) 0.42700(15) 0.2846(2)
O22 O -0.06091(14) 0.37838(15) 0.2499(2)
O23 O 0.01244(15) 0.58032(16) 0.2659(3)
O24 O -0.12023(15) 0.53364(15) 0.2488(3)
C1 C 0.7766(2) 0.4696(2) 0.4725(3)
C2 C 0.7181(2) 0.5231(2) 0.5464(3)
C3 C 0.4905(2) 0.4333(2) 0.2735(3)
C4 C 0.4607(2) 0.5229(2) 0.2446(3)
C5 C 0.2862(2) 0.4775(2) -0.0415(3)
C6 C 0.21145(19) 0.5179(2) 0.0219(3)
C7 C -0.0085(2) 0.4348(2) 0.2638(3)
C8 C -0.0413(2) 0.5247(2) 0.2590(3)
Mn1_2 Mn -0.19375(3) 0.41538(3) 0.21749(4)
Mn1A Mn 0.19375(3) 0.91538(3) 0.28251(4)
Mn1B Mn 0.19375(3) 0.58462(3) -0.21749(4)
Mn2A Mn 0.35823(3) 0.03986(3) 0.19482(5)
Mn2B Mn 0.35823(3) 0.46014(3) -0.30518(5)
Mn3B Mn 0.69080(3) 0.58597(3) 0.80028(4)
Mn4B Mn 0.85574(3) 0.45823(3) 0.71623(4)
O2A O 0.68549(16) 0.65535(16) 0.2773(2)
O6A O 0.75794(15) 0.30061(15) 0.1938(2)
O10B O 0.15667(16) 0.55716(17) 0.4803(2)
O12B O 0.25360(15) 0.46684(16) 0.3498(2)
O18B O 0.70367(14) 0.49640(15) 0.14246(19)
O20B O 0.83543(15) 0.43389(16) 0.0344(2)
O22_2 O 0.93909(14) 0.37838(15) 0.2499(2)
O24_2 O 0.87977(15) 0.53364(15) 0.2488(3)
N1 N -0.10292(18) 0.2483(2) 0.5461(3)
H3 H -0.1384 0.2432 0.4832
H4 H -0.1262 0.2805 0.5976
H5 H -0.0925 0.1989 0.5771
N2 N 0.10074(18) 0.27427(19) 0.3989(3)
H6 H 0.1227 0.2471 0.3411
H7 H 0.1392 0.2780 0.4586
H8 H 0.0856 0.3246 0.3750
C9 C -0.0218(2) 0.2858(2) 0.5128(3)
H9 H 0.0138 0.2979 0.5825
H10 H -0.0339 0.3373 0.4725
C10 C 0.0250(2) 0.2294(2) 0.4359(3)
H11 H -0.0120 0.2155 0.3671
C11 C 0.0550(3) 0.1506(3) 0.4965(4)
H12 H 0.0926 0.1218 0.4487
H13 H 0.0069 0.1164 0.5093
H14 H 0.0842 0.1639 0.5697
N3 N -0.61611(18) 0.2420(2) 0.4354(3)
H15 H -0.6173 0.2574 0.3613
H16 H -0.6615 0.2619 0.4676
H17 H -0.6164 0.1873 0.4396
N4 N -0.38706(18) 0.2923(2) 0.4738(3)
H18 H -0.3980 0.3382 0.4334
H19 H -0.3399 0.2693 0.4507
H20 H -0.3801 0.3044 0.5491
C12 C -0.5388(2) 0.2740(3) 0.4978(3)
H21 H -0.5410 0.2633 0.5803
H22 H -0.5359 0.3331 0.4870
C13 C -0.4592(2) 0.2338(2) 0.4539(3)
H23 H -0.4686 0.2238 0.3703
C14 C -0.4356(3) 0.1533(3) 0.5135(4)
H24 H -0.3882 0.1293 0.4780
H25 H -0.4830 0.1163 0.5060
H26 H -0.4206 0.1633 0.5943
loop_
_geom_bond_atom_site_label_1
_geom_bond_atom_site_label_2
_geom_bond_site_symmetry_1
_geom_bond_site_symmetry_2
Mn1 O9 1_555 1_555
Mn2 O9 1_555 1_555
Mn3 O1 1_555 1_555
Mn4 O5 1_555 1_555
P1 O1 1_555 1_555
P2 O5 1_555 1_555
O2 P1 1_555 1_555
O3 P1 1_555 1_555
O4 P1 1_555 1_555
H1 O4 1_555 1_555
O6 P2 1_555 1_555
O7 P2 1_555 1_555
O8 P2 1_555 1_555
H2 O8 1_555 1_555
O9 C1 1_555 1_555
O10 C1 1_555 1_555
O11 Mn2 1_555 1_555
O12 C2 1_555 1_555
O13 Mn2 1_555 1_555
O14 Mn3 1_555 1_555
O15 Mn2 1_555 1_555
O16 Mn3 1_555 1_555
O17 Mn3 1_555 1_555
O18 C5 1_555 1_555
O19 Mn3 1_555 1_555
O20 C6 1_555 1_555
O21 Mn4 1_555 1_555
O22 C7 1_555 1_555
O23 Mn4 1_555 1_555
O24 C8 1_555 1_555
C1 C2 1_555 1_555
C2 O11 1_555 1_555
C3 O13 1_555 1_555
C4 O15 1_555 1_555
C5 O17 1_555 1_555
C6 O19 1_555 1_555
C7 O21 1_555 1_555
C8 O23 1_555 1_555
N1 H3 1_555 1_555
H4 N1 1_555 1_555
H5 N1 1_555 1_555
N2 H6 1_555 1_555
H7 N2 1_555 1_555
H8 N2 1_555 1_555
C9 N1 1_555 1_555
H9 C9 1_555 1_555
H10 C9 1_555 1_555
C10 N2 1_555 1_555
H11 C10 1_555 1_555
C11 C10 1_555 1_555
H12 C11 1_555 1_555
H13 C11 1_555 1_555
H14 C11 1_555 1_555
N3 H15 1_555 1_555
H16 N3 1_555 1_555
H17 N3 1_555 1_555
N4 H18 1_555 1_555
H19 N4 1_555 1_555
H20 N4 1_555 1_555
C12 N3 1_555 1_555
H21 C12 1_555 1_555
H22 C12 1_555 1_555
C13 N4 1_555 1_555
H23 C13 1_555 1_555
C14 C13 1_555 1_555
H24 C14 1_555 1_555
H25 C14 1_555 1_555
H26 C14 1_555 1_555
Mn1_2 O22 1_555 1_555
Mn1A O6 1_555 1_555
Mn1B O18 1_555 1_555
Mn2A O2 1_555 1_555
Mn2B O18 1_555 1_555
Mn3B O12 1_555 1_555
Mn4B O10 1_555 1_555
O2A Mn2 1_555 1_555
O6A Mn1 1_555 1_555
O10B Mn4 1_555 1_555
O12B Mn3 1_555 1_555
O18B Mn1 1_555 1_555
O20B Mn1 1_555 1_555
O22_2 Mn1 1_555 1_555
O24_2 Mn1 1_555 1_555
Mn2 O18B 1_555 1_555
Mn4 O19 1_555 1_555
Mn4 O12B 1_555 1_555
O12 Mn4B 1_555 1_555
O14 C3 1_555 1_555
O16 C4 1_555 1_555
O20 Mn1B 1_555 1_555
O24 Mn1_2 1_555 1_555
C3 C4 1_555 1_555
C5 C6 1_555 1_555
C7 C8 1_555 1_555
C9 C10 1_555 1_555
C12 C13 1_555 1_555

#END
