
#######################################################################
#
#                 Cambridge Crystallographic Data Centre
#                                CCDC 
#
#######################################################################
#
# If this CIF has been generated from an entry in the Cambridge 
# Structural Database, then it will include bibliographic, chemical, 
# crystal, experimental, refinement or atomic coordinate data resulting 
# from the CCDC's data processing and validation procedures.
#
#######################################################################

data_BOYBUO
_symmetry_cell_setting           triclinic
_symmetry_space_group_name_H-M   'P -1'
_symmetry_Int_Tables_number      2
_space_group_name_Hall           '-P 1'
loop_
_symmetry_equiv_pos_site_id
_symmetry_equiv_pos_as_xyz
1 x,y,z
2 -x,-y,-z
_cell_length_a                   9.538(3)
_cell_length_b                   9.714(3)
_cell_length_c                   10.765(3)
_cell_angle_alpha                86.492(6)
_cell_angle_beta                 84.007(7)
_cell_angle_gamma                82.592(6)
_cell_volume                     982.517
loop_
_atom_site_label
_atom_site_type_symbol
_atom_site_fract_x
_atom_site_fract_y
_atom_site_fract_z
Cu1 Cu 0.35583(7) 0.14162(7) 0.94129(8)
Cu2 Cu 0.08059(8) -0.07870(8) 0.65362(8)
S1 S 0.34700(18) -0.28729(19) 0.7332(2)
O1 O 0.8284(4) -0.2161(5) 0.9707(5)
O2 O 0.9796(4) -0.1784(5) 0.8050(5)
O3 O 0.4529(5) 0.3225(5) 0.9969(6)
H1 H 0.4885 0.3024 1.0627
H2 H 0.371(11) 0.371(12) 1.030(12)
O4 O 0.2795(4) 0.2166(4) 0.7833(4)
O5 O 0.1909(5) 0.0175(5) 0.7670(5)
O6 O 0.2496(5) -0.2431(6) 0.6303(6)
N1 N 0.6296(5) -0.0303(5) 0.8999(5)
N2 N 0.5336(5) 0.0642(5) 0.8503(6)
N3 N 0.0747(5) 0.1052(5) 0.5637(5)
N4 N 0.0220(6) 0.1673(5) 0.4611(6)
C1 C 0.8592(7) -0.1550(7) 0.8641(7)
C2 C 0.7426(6) -0.0520(6) 0.8177(7)
C3 C 0.7222(7) 0.0296(6) 0.7097(7)
H3 H 0.7839 0.0343 0.6372
C4 C 0.5897(7) 0.1023(6) 0.7342(7)
H4 H 0.5452 0.1675 0.6796
C5 C 0.2108(6) 0.1400(6) 0.7289(6)
C6 C 0.1478(6) 0.1947(7) 0.6130(7)
C7 C 0.1408(7) 0.3166(7) 0.5447(7)
H5 H 0.1807 0.3960 0.5588
C8 C 0.0619(8) 0.2963(7) 0.4504(7)
H6 H 0.0386 0.3623 0.3872
C9 C 0.5174(8) -0.2421(10) 0.6687(10)
H7 H 0.5160 -0.1429 0.6665
H8 H 0.5381 -0.2741 0.5854
H9 H 0.5891 -0.2850 0.7198
C10 C 0.3849(10) -0.4709(8) 0.7240(10)
H10 H 0.3022 -0.5136 0.7559
H11 H 0.4620 -0.5046 0.7728
H12 H 0.4108 -0.4935 0.6384
Cu1A Cu 0.64417(7) -0.14162(7) 1.05871(8)
Cu2_2 Cu 1.08059(8) -0.07870(8) 0.65362(8)
Cu2A Cu -0.08059(8) 0.07870(8) 0.34638(8)
O1A O 0.1716(4) 0.2161(5) 1.0293(5)
O2_2 O -0.0204(4) -0.1784(5) 0.8050(5)
N1A N 0.3704(5) 0.0303(5) 1.1001(5)
N4A N -0.0220(6) -0.1673(5) 0.5389(6)
S2 S -0.16992(19) 0.39306(18) 0.9548(2)
O7 O -0.3082(5) 0.4445(5) 0.8958(7)
C11 C -0.0349(7) 0.4433(7) 0.8421(7)
H13 H -0.0343 0.5421 0.8419
H14 H -0.0529 0.4182 0.7608
H15 H 0.0555 0.3970 0.8623
C12 C -0.1447(8) 0.2106(7) 0.9355(8)
H16 H -0.2121 0.1671 0.9923
H17 H -0.0501 0.1735 0.9526
H18 H -0.1584 0.1927 0.8511
O8 O 0.3094(14) 0.5874(12) 0.4094(14)
H19 H 0.2213 0.5687 0.4119
H20 H 0.3560 0.5262 0.3592
loop_
_geom_bond_atom_site_label_1
_geom_bond_atom_site_label_2
_geom_bond_site_symmetry_1
_geom_bond_site_symmetry_2
Cu1 O3 1_555 1_555
Cu2 O5 1_555 1_555
S1 O6 1_555 1_555
O1 C1 1_555 1_555
O2 C1 1_555 1_555
O3 H1 1_555 1_555
H2 O3 1_555 1_555
O4 Cu1 1_555 1_555
O5 C5 1_555 1_555
O6 Cu2 1_555 1_555
N1 N2 1_555 1_555
N2 Cu1 1_555 1_555
N3 Cu2 1_555 1_555
N4 N3 1_555 1_555
C1 C2 1_555 1_555
C2 N1 1_555 1_555
C3 C2 1_555 1_555
H3 C3 1_555 1_555
C4 N2 1_555 1_555
H4 C4 1_555 1_555
C5 O4 1_555 1_555
C6 N3 1_555 1_555
C7 C6 1_555 1_555
H5 C7 1_555 1_555
C8 N4 1_555 1_555
H6 C8 1_555 1_555
C9 S1 1_555 1_555
H7 C9 1_555 1_555
H8 C9 1_555 1_555
H9 C9 1_555 1_555
C10 S1 1_555 1_555
H10 C10 1_555 1_555
H11 C10 1_555 1_555
H12 C10 1_555 1_555
S2 O7 1_555 1_555
C11 S2 1_555 1_555
H13 C11 1_555 1_555
H14 C11 1_555 1_555
H15 C11 1_555 1_555
C12 S2 1_555 1_555
H16 C12 1_555 1_555
H17 C12 1_555 1_555
H18 C12 1_555 1_555
O8 H19 1_555 1_555
H20 O8 1_555 1_555
Cu1A O1 1_555 1_555
Cu2_2 O2 1_555 1_555
Cu2A N4 1_555 1_555
O1A Cu1 1_555 1_555
O2_2 Cu2 1_555 1_555
N1A Cu1 1_555 1_555
N4A Cu2 1_555 1_555
N1 Cu1A 1_555 1_555
C3 C4 1_555 1_555
C5 C6 1_555 1_555
C7 C8 1_555 1_555

#END
