
#######################################################################
#
#                 Cambridge Crystallographic Data Centre
#                                CCDC 
#
#######################################################################
#
# If this CIF has been generated from an entry in the Cambridge 
# Structural Database, then it will include bibliographic, chemical, 
# crystal, experimental, refinement or atomic coordinate data resulting 
# from the CCDC's data processing and validation procedures.
#
#######################################################################

data_BOYCAV
_symmetry_cell_setting           monoclinic
_symmetry_space_group_name_H-M   'P 21/c'
_symmetry_Int_Tables_number      14
_space_group_name_Hall           '-P 2ybc'
loop_
_symmetry_equiv_pos_site_id
_symmetry_equiv_pos_as_xyz
1 x,y,z
2 -x,1/2+y,1/2-z
3 -x,-y,-z
4 x,1/2-y,1/2+z
_cell_length_a                   6.8405(14)
_cell_length_b                   17.792(4)
_cell_length_c                   14.987(3)
_cell_angle_alpha                90
_cell_angle_beta                 92.68(3)
_cell_angle_gamma                90
_cell_volume                     1822.02
loop_
_atom_site_label
_atom_site_type_symbol
_atom_site_fract_x
_atom_site_fract_y
_atom_site_fract_z
C1 C 0.8620(4) 0.15646(15) 0.89926(18)
C2 C 0.8614(4) 0.15686(15) 0.98984(18)
C3 C 0.7868(3) 0.04460(15) 0.93990(16)
C4 C 0.7316(4) -0.03349(14) 0.93200(16)
C5 C 0.6618(4) -0.13912(16) 0.86841(18)
C6 C 0.6460(4) -0.14981(15) 0.95783(18)
C7 C 0.6532(4) 0.15823(15) 0.57957(17)
C8 C 0.6258(4) 0.15694(15) 0.48884(17)
C9 C 0.7212(3) 0.04597(15) 0.53703(16)
C10 C 0.7798(3) -0.03196(14) 0.54215(16)
C11 C 0.8641(4) -0.14735(15) 0.51025(17)
C12 C 0.8590(4) -0.13899(15) 0.60002(17)
N1 N 0.8140(3) 0.08635(12) 0.86762(13)
N2 N 0.7163(3) -0.06650(12) 0.85272(13)
N3 N 0.8140(3) 0.08531(12) 1.01487(13)
H1 H 0.8035 0.0694 1.0686
N4 N 0.6895(3) -0.08174(12) 0.99719(14)
H2 H 0.6897 -0.0719 1.0534
N5 N 0.7130(3) 0.08890(12) 0.60952(13)
N6 N 0.8058(3) -0.06687(12) 0.61990(13)
N7 N 0.6698(3) 0.08531(12) 0.46256(13)
H3 H 0.6654 0.0686 0.4087
N8 N 0.8142(3) -0.07888(12) 0.47398(13)
H4 H 0.8063 -0.0679 0.4181
O1 O 0.4129(3) -0.01254(11) 0.69849(12)
O2 O 0.1819(3) -0.05012(10) 0.80776(11)
O3 O 0.3571(3) 0.06734(10) 0.82385(11)
O4 O 0.1048(2) 0.05104(10) 0.70659(11)
S1 S 0.26514(8) 0.01368(3) 0.76022(4)
Cd1 Cd 0.76612(3) 0.015142(11) 0.737242(11)
H5 H 0.895(4) -0.1886(16) 0.4753(18)
H6 H 0.887(4) -0.1712(17) 0.644(2)
H7 H 0.638(4) -0.1716(17) 0.8224(19)
H8 H 0.887(4) 0.1971(17) 1.0314(19)
H9 H 0.635(5) 0.1958(19) 0.618(2)
H10 H 0.891(4) 0.1942(19) 0.861(2)
H11 H 0.612(4) -0.1929(17) 0.9934(18)
H12 H 0.588(4) 0.1963(18) 0.4491(19)
O4_2 O 1.1048(2) 0.05104(10) 0.70659(11)
Cd1_2 Cd -0.23388(3) 0.015142(11) 0.737242(11)
O5 O 0.2425(3) -0.20438(14) 0.75918(16)
H13 H 0.237(5) -0.163(2) 0.768(2)
H14 H 0.136(3) -0.226(2) 0.770(3)
O6 O 0.0816(3) 0.21162(13) 0.70220(15)
H15 H 0.066(6) 0.164(2) 0.708(3)
H16 H 0.185(4) 0.227(2) 0.729(3)
O7 O 0.4306(3) 0.22453(14) 0.80586(15)
H17 H 0.469(5) 0.1810(12) 0.823(3)
H18 H 0.527(4) 0.243(2) 0.779(3)
loop_
_geom_bond_atom_site_label_1
_geom_bond_atom_site_label_2
_geom_bond_site_symmetry_1
_geom_bond_site_symmetry_2
C1 C2 1_555 1_555
C2 N3 1_555 1_555
C3 C4 1_555 1_555
C4 N2 1_555 1_555
C5 C6 1_555 1_555
C6 N4 1_555 1_555
C7 C8 1_555 1_555
C8 N7 1_555 1_555
C9 C10 1_555 1_555
C10 N6 1_555 1_555
C11 C12 1_555 1_555
C12 N6 1_555 1_555
N1 C1 1_555 1_555
N2 C5 1_555 1_555
N3 C3 1_555 1_555
H1 N3 1_555 1_555
N4 C4 1_555 1_555
H2 N4 1_555 1_555
N5 C7 1_555 1_555
N6 Cd1 1_555 1_555
N7 C9 1_555 1_555
H3 N7 1_555 1_555
N8 C10 1_555 1_555
H4 N8 1_555 1_555
O1 S1 1_555 1_555
O2 S1 1_555 1_555
O3 S1 1_555 1_555
O4 S1 1_555 1_555
Cd1 N1 1_555 1_555
H5 C11 1_555 1_555
H6 C12 1_555 1_555
H7 C5 1_555 1_555
H8 C2 1_555 1_555
H9 C7 1_555 1_555
H10 C1 1_555 1_555
H11 C6 1_555 1_555
H12 C8 1_555 1_555
O5 H13 1_555 1_555
H14 O5 1_555 1_555
O6 H15 1_555 1_555
H16 O6 1_555 1_555
O7 H17 1_555 1_555
H18 O7 1_555 1_555
O4_2 Cd1 1_555 1_555
Cd1_2 O4 1_555 1_555
C3 N1 1_555 1_555
C9 N5 1_555 1_555
C11 N8 1_555 1_555
N2 Cd1 1_555 1_555
N5 Cd1 1_555 1_555
O1 Cd1 1_555 1_555

#END
