
#######################################################################
#
#                 Cambridge Crystallographic Data Centre
#                                CCDC 
#
#######################################################################
#
# If this CIF has been generated from an entry in the Cambridge 
# Structural Database, then it will include bibliographic, chemical, 
# crystal, experimental, refinement or atomic coordinate data resulting 
# from the CCDC's data processing and validation procedures.
#
#######################################################################

data_BOYFOM
_symmetry_cell_setting           monoclinic
_symmetry_space_group_name_H-M   'P 21/c'
_symmetry_Int_Tables_number      14
_space_group_name_Hall           '-P 2ybc'
loop_
_symmetry_equiv_pos_site_id
_symmetry_equiv_pos_as_xyz
1 x,y,z
2 -x,1/2+y,1/2-z
3 -x,-y,-z
4 x,1/2-y,1/2+z
_cell_length_a                   15.169(2)
_cell_length_b                   13.0539(18)
_cell_length_c                   9.1669(13)
_cell_angle_alpha                90
_cell_angle_beta                 97.682(2)
_cell_angle_gamma                90
_cell_volume                     1798.89
loop_
_atom_site_label
_atom_site_type_symbol
_atom_site_fract_x
_atom_site_fract_y
_atom_site_fract_z
Zn1 Zn 0.391840(18) 0.24177(2) 0.01822(3)
O1 O 0.47278(12) 0.35502(13) 0.13323(19)
H1 H 0.5175 0.3666 0.0888
H2 H 0.4905 0.3338 0.2199
O2 O 0.49196(11) 0.16958(14) -0.05742(18)
O3 O 0.56828(13) 0.14821(17) 0.1653(2)
O4 O 0.66716(12) -0.12641(13) -0.41968(18)
O5 O 0.63275(13) -0.20143(14) -0.22130(19)
O6 O 0.90654(14) 0.18372(19) -0.1389(3)
O7 O 0.92515(16) 0.1029(2) 0.0636(3)
N1 N 0.28354(13) 0.15762(16) -0.0948(2)
N2 N 0.88065(14) 0.12788(18) -0.0487(3)
C1 C 0.56143(16) 0.14447(18) 0.0303(3)
C2 C 0.63709(16) 0.10252(18) -0.0431(3)
C3 C 0.72383(16) 0.13969(19) -0.0104(3)
C4 C 0.7465(2) 0.2294(2) 0.0910(4)
H3 H 0.7007 0.2804 0.0732
H4 H 0.8022 0.2583 0.0730
H5 H 0.7511 0.2068 0.1914
C5 C 0.78783(16) 0.08940(19) -0.0784(3)
C6 C 0.77387(16) 0.00547(19) -0.1720(3)
C7 C 0.84876(18) -0.0467(2) -0.2348(3)
H6 H 0.8665 -0.0057 -0.3127
H7 H 0.8293 -0.1126 -0.2728
H8 H 0.8983 -0.0552 -0.1589
C8 C 0.68639(16) -0.03058(18) -0.1970(3)
C9 C 0.66123(15) -0.12578(19) -0.2848(3)
C10 C 0.61956(16) 0.01880(18) -0.1350(3)
H9 H 0.5614 -0.0049 -0.1557
C11 C -0.06315(18) 0.0657(2) -0.5690(3)
H10 H -0.1057 0.1105 -0.6152
C12 C 0.00388(18) 0.1031(2) -0.4659(3)
H11 H 0.0061 0.1726 -0.4436
C13 C 0.06802(17) 0.0376(2) -0.3953(3)
C14 C 0.14202(17) 0.0780(2) -0.2882(3)
C15 C 0.22871(17) 0.0439(2) -0.2889(3)
H12 H 0.2408 -0.0068 -0.3548
C16 C 0.29648(17) 0.0850(2) -0.1923(3)
H13 H 0.3540 0.0612 -0.1949
C17 C 0.19954(17) 0.1894(2) -0.0922(3)
H14 H 0.1891 0.2391 -0.0237
C18 C 0.12823(17) 0.1524(2) -0.1855(3)
H15 H 0.0712 0.1769 -0.1799
N1B N -0.28354(13) -0.15762(16) -0.9052(2)
C11B C 0.06315(18) -0.0657(2) -0.4310(3)
H10B H 0.1057 -0.1105 -0.3848
C12B C -0.00388(18) -0.1031(2) -0.5341(3)
H11B H -0.0061 -0.1726 -0.5564
C13B C -0.06802(17) -0.0376(2) -0.6047(3)
C14B C -0.14202(17) -0.0780(2) -0.7118(3)
C15B C -0.22871(17) -0.0439(2) -0.7111(3)
H12B H -0.2408 0.0068 -0.6452
C16B C -0.29648(17) -0.0850(2) -0.8077(3)
H13B H -0.3540 -0.0612 -0.8051
C17B C -0.19954(17) -0.1894(2) -0.9078(3)
H14B H -0.1891 -0.2391 -0.9763
C18B C -0.12823(17) -0.1524(2) -0.8145(3)
H15B H -0.0712 -0.1769 -0.8201
Zn1B Zn -0.391840(18) -0.24177(2) -1.01822(3)
O1B O -0.47278(12) -0.35502(13) -1.13323(19)
H1B H -0.5175 -0.3666 -1.0888
H2B H -0.4905 -0.3338 -1.2199
O2B O -0.49196(11) -0.16958(14) -0.94258(18)
O3B O -0.56828(13) -0.14821(17) -1.1653(2)
O4B O -0.66716(12) 0.12641(13) -0.58032(18)
O5B O -0.63275(13) 0.20143(14) -0.77870(19)
O6B O -0.90654(14) -0.18372(19) -0.8611(3)
O7B O -0.92515(16) -0.1029(2) -1.0636(3)
N2B N -0.88065(14) -0.12788(18) -0.9513(3)
C1B C -0.56143(16) -0.14447(18) -1.0303(3)
C2B C -0.63709(16) -0.10252(18) -0.9569(3)
C3B C -0.72383(16) -0.13969(19) -0.9896(3)
C4B C -0.7465(2) -0.2294(2) -1.0910(4)
H3B H -0.7007 -0.2804 -1.0732
H4B H -0.8022 -0.2583 -1.0730
H5B H -0.7511 -0.2068 -1.1914
C5B C -0.78783(16) -0.08940(19) -0.9216(3)
C6B C -0.77387(16) -0.00547(19) -0.8280(3)
C7B C -0.84876(18) 0.0467(2) -0.7652(3)
H6B H -0.8665 0.0057 -0.6873
H7B H -0.8293 0.1126 -0.7272
H8B H -0.8983 0.0552 -0.8411
C8B C -0.68639(16) 0.03058(18) -0.8030(3)
C9B C -0.66123(15) 0.12578(19) -0.7152(3)
C10B C -0.61956(16) -0.01880(18) -0.8650(3)
H9B H -0.5614 0.0049 -0.8443
Zn1_2 Zn -0.608160(18) 0.24177(2) -0.98178(3)
Zn1A Zn 0.608160(18) -0.25823(2) -0.51822(3)
Zn1B_2 Zn 0.608160(18) -0.24177(2) -0.01822(3)
Zn1C Zn -0.608160(18) 0.25823(2) -0.48178(3)
O4A O 0.33284(12) 0.37359(13) -0.08032(18)
O4C O -0.33284(12) -0.37359(13) -0.91968(18)
O5_2 O -0.36725(13) -0.20143(14) -1.22130(19)
O5B_2 O 0.36725(13) 0.20143(14) 0.22130(19)
O8 O 0.59546(18) 0.08084(17) 0.4605(2)
H16 H 0.6015 0.0161 0.4645
H17 H 0.5742 0.0983 0.3735
loop_
_geom_bond_atom_site_label_1
_geom_bond_atom_site_label_2
_geom_bond_site_symmetry_1
_geom_bond_site_symmetry_2
Zn1 O1 1_555 1_555
O1 H1 1_555 1_555
H2 O1 1_555 1_555
O2 Zn1 1_555 1_555
O3 C1 1_555 1_555
O4 C9 1_555 1_555
O5 C9 1_555 1_555
O6 N2 1_555 1_555
O7 N2 1_555 1_555
N1 Zn1 1_555 1_555
N2 C5 1_555 1_555
C1 O2 1_555 1_555
C2 C1 1_555 1_555
C3 C2 1_555 1_555
C4 C3 1_555 1_555
H3 C4 1_555 1_555
H4 C4 1_555 1_555
H5 C4 1_555 1_555
C5 C3 1_555 1_555
C6 C5 1_555 1_555
C7 C6 1_555 1_555
H6 C7 1_555 1_555
H7 C7 1_555 1_555
H8 C7 1_555 1_555
C8 C6 1_555 1_555
C9 C8 1_555 1_555
C10 C2 1_555 1_555
H9 C10 1_555 1_555
C11 H10 1_555 1_555
C12 C11 1_555 1_555
H11 C12 1_555 1_555
C13 C12 1_555 1_555
C14 C13 1_555 1_555
C15 C14 1_555 1_555
H12 C15 1_555 1_555
C16 N1 1_555 1_555
H13 C16 1_555 1_555
C17 N1 1_555 1_555
H14 C17 1_555 1_555
C18 C14 1_555 1_555
H15 C18 1_555 1_555
O8 H16 1_555 1_555
H17 O8 1_555 1_555
N1B C16B 1_555 1_555
C11B C13 1_555 1_555
H10B C11B 1_555 1_555
C12B C11B 1_555 1_555
H11B C12B 1_555 1_555
C13B C11 1_555 1_555
C14B C13B 1_555 1_555
C15B C14B 1_555 1_555
H12B C15B 1_555 1_555
C16B C15B 1_555 1_555
H13B C16B 1_555 1_555
C17B N1B 1_555 1_555
H14B C17B 1_555 1_555
C18B C14B 1_555 1_555
H15B C18B 1_555 1_555
Zn1B N1B 1_555 1_555
O1B Zn1B 1_555 1_555
H1B O1B 1_555 1_555
H2B O1B 1_555 1_555
O2B Zn1B 1_555 1_555
O3B C1B 1_555 1_555
O4B C9B 1_555 1_555
O5B C9B 1_555 1_555
O6B N2B 1_555 1_555
O7B N2B 1_555 1_555
N2B C5B 1_555 1_555
C1B O2B 1_555 1_555
C2B C1B 1_555 1_555
C3B C2B 1_555 1_555
C4B C3B 1_555 1_555
H3B C4B 1_555 1_555
H4B C4B 1_555 1_555
H5B C4B 1_555 1_555
C5B C3B 1_555 1_555
C6B C5B 1_555 1_555
C7B C6B 1_555 1_555
H6B C7B 1_555 1_555
H7B C7B 1_555 1_555
H8B C7B 1_555 1_555
C8B C6B 1_555 1_555
C9B C8B 1_555 1_555
C10B C2B 1_555 1_555
H9B C10B 1_555 1_555
Zn1_2 O5B 1_555 1_555
Zn1A O4 1_555 1_555
Zn1B_2 O5 1_555 1_555
Zn1C O4B 1_555 1_555
O4A Zn1 1_555 1_555
O4C Zn1B 1_555 1_555
O5_2 Zn1B 1_555 1_555
O5B_2 Zn1 1_555 1_555
C8 C10 1_555 1_555
C15 C16 1_555 1_555
C17 C18 1_555 1_555
C12B C13B 1_555 1_555
C17B C18B 1_555 1_555
C8B C10B 1_555 1_555

#END
