
#######################################################################
#
#                 Cambridge Crystallographic Data Centre
#                                CCDC 
#
#######################################################################
#
# If this CIF has been generated from an entry in the Cambridge 
# Structural Database, then it will include bibliographic, chemical, 
# crystal, experimental, refinement or atomic coordinate data resulting 
# from the CCDC's data processing and validation procedures.
#
#######################################################################

data_BOYGEC
_symmetry_cell_setting           monoclinic
_symmetry_space_group_name_H-M   'P 21/c'
_symmetry_Int_Tables_number      14
_space_group_name_Hall           '-P 2ybc'
loop_
_symmetry_equiv_pos_site_id
_symmetry_equiv_pos_as_xyz
1 x,y,z
2 -x,1/2+y,1/2-z
3 -x,-y,-z
4 x,1/2-y,1/2+z
_cell_length_a                   11.2250(6)
_cell_length_b                   8.7713(5)
_cell_length_c                   15.4048(8)
_cell_angle_alpha                90
_cell_angle_beta                 109.333(2)
_cell_angle_gamma                90
_cell_volume                     1431.2
loop_
_atom_site_label
_atom_site_type_symbol
_atom_site_fract_x
_atom_site_fract_y
_atom_site_fract_z
Ag1 Ag 0.862115(15) 0.313987(18) 0.158220(11)
N1 N 0.91601(17) 0.0961(2) 0.11910(12)
N2 N 1.19558(17) 0.0329(2) 0.30590(12)
C1 C 1.0272(2) 0.0256(2) 0.16001(14)
C2 C 1.0514(2) -0.1196(3) 0.13460(15)
H1 H 1.1311 -0.1661 0.1640
C3 C 0.9592(2) -0.1967(3) 0.06628(16)
H2 H 0.9736 -0.2971 0.0489
C4 C 0.8453(2) -0.1237(3) 0.02381(15)
H3 H 0.7801 -0.1731 -0.0236
C5 C 0.8279(2) 0.0215(3) 0.05127(15)
H4 H 0.7501 0.0714 0.0210
C6 C 1.12800(19) 0.1105(2) 0.23000(14)
C7 C 1.1577(2) 0.2588(3) 0.21452(15)
H5 H 1.1086 0.3118 0.1608
C8 C 1.2602(2) 0.3289(3) 0.27841(16)
H6 H 1.2811 0.4315 0.2697
C9 C 1.3317(2) 0.2483(3) 0.35481(16)
H7 H 1.4039 0.2931 0.3985
C10 C 1.2959(2) 0.1011(3) 0.36646(15)
H8 H 1.3443 0.0459 0.4195
Ag1A Ag 1.137885(15) -0.186013(18) 0.341780(11)
N2A N 0.80442(17) 0.5329(2) 0.19410(12)
Cl1 Cl 0.40802(6) -0.01307(7) 0.17231(4)
Cl2 Cl 0.56482(6) 0.19107(7) 0.10653(5)
C11 C 0.4892(2) 0.1629(3) 0.18927(17)
H9 H 0.4287 0.2470 0.1851
H10 H 0.5530 0.1651 0.2516
F1 F 0.86426(14) 0.44972(19) 0.99488(10)
F2 F 0.68595(16) 0.57325(17) 0.91285(10)
F3 F 0.75303(14) 0.37186(19) 0.85002(9)
F4 F 0.67609(16) 0.33591(17) 0.96750(12)
B1 B 0.7444(2) 0.4330(3) 0.93101(17)
loop_
_geom_bond_atom_site_label_1
_geom_bond_atom_site_label_2
_geom_bond_site_symmetry_1
_geom_bond_site_symmetry_2
Ag1 N1 1_555 1_555
Cl1 C11 1_555 1_555
Cl2 C11 1_555 1_555
F1 B1 1_555 1_555
F2 B1 1_555 1_555
F3 B1 1_555 1_555
F4 B1 1_555 1_555
N1 C1 1_555 1_555
N2 C6 1_555 1_555
C1 C2 1_555 1_555
C2 H1 1_555 1_555
C3 C2 1_555 1_555
H2 C3 1_555 1_555
C4 C3 1_555 1_555
H3 C4 1_555 1_555
C5 N1 1_555 1_555
H4 C5 1_555 1_555
C6 C1 1_555 1_555
C7 C6 1_555 1_555
H5 C7 1_555 1_555
C8 C7 1_555 1_555
H6 C8 1_555 1_555
C9 C8 1_555 1_555
H7 C9 1_555 1_555
C10 N2 1_555 1_555
H8 C10 1_555 1_555
C11 H9 1_555 1_555
H10 C11 1_555 1_555
Ag1A N2 1_555 1_555
N2A Ag1 1_555 1_555
C4 C5 1_555 1_555
C9 C10 1_555 1_555

#END
