
#######################################################################
#
#                 Cambridge Crystallographic Data Centre
#                                CCDC 
#
#######################################################################
#
# If this CIF has been generated from an entry in the Cambridge 
# Structural Database, then it will include bibliographic, chemical, 
# crystal, experimental, refinement or atomic coordinate data resulting 
# from the CCDC's data processing and validation procedures.
#
#######################################################################

data_BOYJAC
_symmetry_cell_setting           monoclinic
_symmetry_space_group_name_H-M   'P 21/n'
_symmetry_Int_Tables_number      14
_space_group_name_Hall           '-P 2yn'
loop_
_symmetry_equiv_pos_site_id
_symmetry_equiv_pos_as_xyz
1 x,y,z
2 1/2-x,1/2+y,1/2-z
3 -x,-y,-z
4 1/2+x,1/2-y,1/2+z
_cell_length_a                   13.5519(14)
_cell_length_b                   26.283(3)
_cell_length_c                   32.050(4)
_cell_angle_alpha                90
_cell_angle_beta                 98.004(7)
_cell_angle_gamma                90
_cell_volume                     11304.5
loop_
_atom_site_label
_atom_site_type_symbol
_atom_site_fract_x
_atom_site_fract_y
_atom_site_fract_z
Cd1 Cd 0.02766(7) 0.27745(4) 0.22017(3)
Cd2 Cd -0.04904(7) 0.22370(4) 0.10046(3)
Cd3 Cd 0.25884(7) 0.23615(4) 0.17178(3)
Cd4 Cd 0.08658(7) 0.13913(4) 0.22367(3)
Cd5 Cd -0.07252(7) 0.07677(4) 0.13218(3)
Cd6 Cd 0.19842(7) 0.10584(4) 0.11994(3)
Cd7 Cd 0.23458(8) 0.22878(4) 0.04659(3)
Cd8 Cd 0.38013(7) 0.10615(4) 0.23242(3)
S1 S 0.0864(3) 0.21181(15) 0.27579(12)
S2 S 0.1692(3) 0.31837(13) 0.18961(12)
S3 S -0.1192(2) 0.25844(14) 0.16492(11)
S4 S -0.0944(2) 0.11156(14) 0.20428(11)
S5 S 0.3634(2) 0.20240(14) 0.23915(11)
S6 S 0.2108(2) 0.07169(14) 0.24882(11)
S7 S -0.1170(2) 0.13729(13) 0.07301(10)
S8 S 0.0890(3) 0.27400(17) 0.07667(18)
S9 S 0.0907(2) 0.03005(13) 0.13655(10)
S10 S 0.5288(3) 0.0609(2) 0.26529(15)
S11 S 0.3770(2) 0.09250(14) 0.15234(11)
S12 S 0.1757(3) 0.13583(14) 0.04444(11)
S13 S 0.3647(2) 0.24255(14) 0.11252(11)
S14 S 0.2826(5) 0.2642(2) -0.01822(15)
S15 S 0.1124(2) 0.17688(12) 0.15382(10)
O1 O -0.1850(9) 0.2607(4) 0.0550(3)
N1 N -0.0399(8) 0.3395(5) 0.2589(4)
N2 N -0.3070(7) 0.5159(4) 0.3652(3)
N3 N -0.3193(14) 0.3108(7) 0.0291(6)
C1 C -0.0706(10) 0.3267(6) 0.2949(5)
H1 H -0.0566 0.2941 0.3055
C2 C -0.1218(11) 0.3592(5) 0.3170(5)
H2 H -0.1434 0.3483 0.3418
C3 C -0.1421(9) 0.4086(5) 0.3027(4)
C4 C -0.1051(10) 0.4220(5) 0.2663(4)
H3 H -0.1132 0.4550 0.2559
C5 C -0.0555(11) 0.3857(6) 0.2450(5)
H4 H -0.0328 0.3949 0.2200
C6 C -0.1953(9) 0.4460(5) 0.3268(4)
C7 C -0.1695(9) 0.4958(5) 0.3287(4)
H5 H -0.1144 0.5073 0.3171
C8 C -0.2280(9) 0.5296(5) 0.3486(4)
H6 H -0.2098 0.5638 0.3502
C9 C -0.2751(11) 0.4308(6) 0.3462(5)
H7 H -0.2927 0.3967 0.3471
C10 C -0.3277(11) 0.4674(6) 0.3641(5)
H8 H -0.3823 0.4569 0.3765
C11 C -0.0102(14) 0.1929(6) 0.3040(6)
C12 C 0.0181(18) 0.1747(9) 0.3444(7)
H9 H 0.0845 0.1725 0.3565
C13 C -0.061(2) 0.1598(12) 0.3660(8)
H10 H -0.0443 0.1487 0.3936
C14 C -0.161(2) 0.1600(12) 0.3504(8)
H11 H -0.2104 0.1469 0.3650
C15 C -0.1811(15) 0.1810(8) 0.3120(7)
H12 H -0.2474 0.1862 0.3009
C16 C -0.1099(13) 0.1952(7) 0.2882(6)
H13 H -0.1290 0.2066 0.2608
C17 C 0.2387(11) 0.3507(6) 0.2322(5)
C18 C 0.2628(11) 0.3289(6) 0.2706(5)
H14 H 0.2412 0.2962 0.2757
C19 C 0.3227(14) 0.3573(7) 0.3036(6)
H15 H 0.3428 0.3426 0.3298
C20 C 0.3498(15) 0.4071(9) 0.2953(8)
H16 H 0.3887 0.4258 0.3160
C21 C 0.3205(17) 0.4274(8) 0.2586(8)
H17 H 0.3360 0.4612 0.2540
C22 C 0.2678(13) 0.4002(6) 0.2268(6)
H18 H 0.2509 0.4155 0.2006
C23 C -0.1587(12) 0.3222(6) 0.1469(5)
C24 C -0.2573(13) 0.3334(8) 0.1433(5)
H19 H -0.3029 0.3096 0.1505
C25 C -0.2881(17) 0.3810(10) 0.1286(7)
H20 H -0.3546 0.3902 0.1275
C26 C -0.223(2) 0.4140(9) 0.1160(8)
H21 H -0.2453 0.4446 0.1035
C27 C -0.1299(17) 0.4033(7) 0.1213(7)
H22 H -0.0847 0.4281 0.1156
C28 C -0.0937(14) 0.3555(6) 0.1355(5)
H23 H -0.0266 0.3474 0.1369
C29 C -0.1120(9) 0.0569(6) 0.2357(4)
C30 C -0.1834(11) 0.0576(7) 0.2625(5)
H24 H -0.2234 0.0862 0.2634
C31 C -0.1963(13) 0.0166(9) 0.2879(5)
H25 H -0.2400 0.0190 0.3078
C32 C -0.1448(12) -0.0281(9) 0.2841(6)
H26 H -0.1580 -0.0571 0.2990
C33 C -0.0738(11) -0.0284(7) 0.2578(6)
H27 H -0.0352 -0.0574 0.2565
C34 C -0.0573(11) 0.0132(6) 0.2329(5)
H28 H -0.0098 0.0115 0.2146
C35 C 0.4838(9) 0.2273(6) 0.2361(4)
C36 C 0.5540(10) 0.2029(6) 0.2171(5)
H29 H 0.5392 0.1717 0.2040
C37 C 0.6453(11) 0.2237(8) 0.2172(6)
H30 H 0.6931 0.2053 0.2053
C38 C 0.6698(12) 0.2695(8) 0.2336(5)
H31 H 0.7329 0.2829 0.2325
C39 C 0.6025(11) 0.2959(7) 0.2516(5)
H32 H 0.6178 0.3284 0.2621
C40 C 0.5067(10) 0.2742(6) 0.2547(5)
H33 H 0.4612 0.2912 0.2689
C41 C 0.2115(8) 0.0731(6) 0.3050(3)
C42 C 0.1241(7) 0.0628(6) 0.3216(4)
H34 H 0.0642 0.0596 0.3037
C43 C 0.1264(10) 0.0573(7) 0.3648(4)
H35 H 0.0680 0.0504 0.3759
C44 C 0.2160(13) 0.0620(8) 0.3915(3)
H36 H 0.2176 0.0583 0.4204
C45 C 0.3034(10) 0.0724(9) 0.3749(4)
H37 H 0.3633 0.0756 0.3927
C46 C 0.3011(7) 0.0779(8) 0.3316(4)
H38 H 0.3595 0.0848 0.3205
C47 C -0.2491(9) 0.1395(5) 0.0709(4)
C48 C -0.2962(9) 0.1564(6) 0.1036(4)
H39 H -0.2581 0.1673 0.1284
C49 C -0.4017(11) 0.1577(6) 0.1004(5)
H40 H -0.4320 0.1677 0.1234
C50 C -0.4569(12) 0.1447(7) 0.0645(6)
H41 H -0.5260 0.1453 0.0625
C51 C -0.4120(12) 0.1301(9) 0.0295(6)
H42 H -0.4500 0.1241 0.0035
C52 C -0.3063(11) 0.1248(7) 0.0351(5)
H43 H -0.2760 0.1108 0.0134
C53 C 0.0637(13) 0.3283(5) 0.0486(6)
C54 C -0.0062(14) 0.3287(6) 0.0125(6)
H44 H -0.0324 0.2982 0.0011
C55 C -0.0369(13) 0.3746(9) -0.0065(6)
H45 H -0.0836 0.3749 -0.0307
C56 C 0.0022(16) 0.4201(6) 0.0106(7)
H46 H -0.0183 0.4509 -0.0021
C57 C 0.0721(17) 0.4197(5) 0.0468(7)
H47 H 0.0983 0.4502 0.0582
C58 C 0.1028(13) 0.3738(7) 0.0658(5)
H48 H 0.1495 0.3735 0.0900
C59 C 0.0831(9) -0.0162(5) 0.0946(4)
C60 C 0.1564(11) -0.0509(5) 0.0959(5)
H49 H 0.2096 -0.0489 0.1175
C61 C 0.1561(14) -0.0885(6) 0.0674(5)
H50 H 0.2068 -0.1125 0.0690
C62 C 0.0724(15) -0.0892(7) 0.0344(6)
H51 H 0.0674 -0.1145 0.0140
C63 C 0.0032(14) -0.0542(7) 0.0330(5)
H52 H -0.0488 -0.0552 0.0108
C64 C 0.0030(11) -0.0160(6) 0.0627(4)
H53 H -0.0474 0.0082 0.0612
C65 C 0.5511(13) 0.0804(9) 0.3164(6)
C66 C 0.570(2) 0.0490(11) 0.3478(8)
H54 H 0.5713 0.0144 0.3418
C67 C 0.587(3) 0.0631(14) 0.3874(9)
H55 H 0.5922 0.0377 0.4077
C68 C 0.600(2) 0.1171(13) 0.4026(9)
H56 H 0.6223 0.1265 0.4304
C69 C 0.5743(19) 0.1524(11) 0.3686(7)
H57 H 0.5709 0.1871 0.3739
C70 C 0.5539(15) 0.1339(9) 0.3273(6)
H58 H 0.5415 0.1575 0.3055
C71 C 0.3929(9) 0.0256(6) 0.1446(5)
C72 C 0.3775(11) -0.0102(6) 0.1743(5)
H59 H 0.3586 -0.0001 0.1998
C73 C 0.3898(13) -0.0606(7) 0.1663(7)
H60 H 0.3799 -0.0844 0.1868
C74 C 0.4154(13) -0.0764(8) 0.1300(8)
H61 H 0.4196 -0.1110 0.1245
C75 C 0.4355(12) -0.0419(8) 0.1008(7)
H62 H 0.4589 -0.0527 0.0764
C76 C 0.4213(10) 0.0092(7) 0.1074(5)
H63 H 0.4309 0.0326 0.0866
C77 C 0.2495(10) 0.0952(6) 0.0158(4)
C78 C 0.2492(13) 0.0451(7) 0.0211(5)
H64 H 0.2147 0.0318 0.0418
C79 C 0.2982(15) 0.0109(8) -0.0029(6)
H65 H 0.2972 -0.0240 0.0018
C80 C 0.3472(14) 0.0313(9) -0.0332(6)
H66 H 0.3803 0.0099 -0.0497
C81 C 0.3486(13) 0.0828(8) -0.0398(6)
H67 H 0.3821 0.0958 -0.0609
C82 C 0.3005(12) 0.1155(7) -0.0155(5)
H68 H 0.3021 0.1505 -0.0198
C83 C 0.3896(8) 0.3080(4) 0.1136(4)
C84 C 0.4275(10) 0.3284(5) 0.1526(3)
H69 H 0.4393 0.3075 0.1761
C85 C 0.4478(11) 0.3802(5) 0.1563(4)
H70 H 0.4732 0.3939 0.1824
C86 C 0.4301(12) 0.4115(3) 0.1211(6)
H71 H 0.4437 0.4461 0.1236
C87 C 0.3922(13) 0.3910(5) 0.0822(5)
H72 H 0.3804 0.4120 0.0586
C88 C 0.3719(12) 0.3393(5) 0.0784(3)
H73 H 0.3465 0.3256 0.0524
C89 C 0.2064(14) 0.2378(8) -0.0602(5)
C90 C 0.2384(16) 0.2391(9) -0.0974(6)
H74 H 0.2998 0.2535 -0.1002
C91 C 0.1786(18) 0.2184(9) -0.1326(7)
H75 H 0.1994 0.2205 -0.1590
C92 C 0.0929(16) 0.1959(10) -0.1286(7)
H76 H 0.0536 0.1837 -0.1526
C93 C 0.0610(16) 0.1901(10) -0.0909(7)
H77 H 0.0033 0.1719 -0.0881
C94 C 0.1179(15) 0.2123(9) -0.0567(6)
H78 H 0.0965 0.2103 -0.0304
C95 C -0.2182(14) 0.3019(8) 0.0453(6)
C96 C -0.372(2) 0.2660(10) 0.0159(14)
H79 H -0.3964 0.2683 -0.0136
H80 H -0.4270 0.2620 0.0315
H81 H -0.3282 0.2372 0.0209
C97 C -0.328(2) 0.3603(8) 0.0101(10)
H82 H -0.3010 0.3596 -0.0160
H83 H -0.2929 0.3846 0.0288
H84 H -0.3975 0.3696 0.0047
Cd5A Cd -0.42748(7) 0.57677(4) 0.36782(3)
N2A N -0.1930(7) 0.0159(4) 0.1348(3)
C98 C 0.325(3) 0.217(2) 0.3649(16)
H85 H 0.3078 0.2294 0.3367
H86 H 0.3006 0.1825 0.3663
H87 H 0.3955 0.2173 0.3726
C99 C 0.308(5) 0.220(3) 0.428(2)
H88 H 0.3710 0.2315 0.4418
H89 H 0.3135 0.1851 0.4194
H90 H 0.2594 0.2218 0.4474
C100 C 0.187(4) 0.2771(19) 0.3830(17)
N4 N 0.278(3) 0.2491(19) 0.3940(13)
O2 O 0.151(3) 0.2897(16) 0.4134(13)
C101 C 0.336(4) 0.4025(11) 0.9652(15)
H91 H 0.3475 0.3887 0.9387
H92 H 0.2666 0.3983 0.9683
H93 H 0.3762 0.3850 0.9877
C102 C 0.413(3) 0.4795(16) 0.9357(13)
H94 H 0.4797 0.4668 0.9386
H95 H 0.4137 0.5157 0.9397
H96 H 0.3792 0.4716 0.9081
C103 C 0.288(3) 0.4816(15) 0.9881(16)
N5 N 0.360(3) 0.4559(12) 0.9669(11)
O3 O 0.315(3) 0.5232(15) 1.0001(13)
loop_
_geom_bond_atom_site_label_1
_geom_bond_atom_site_label_2
_geom_bond_site_symmetry_1
_geom_bond_site_symmetry_2
Cd1 S1 1_555 1_555
Cd2 S3 1_555 1_555
Cd3 S2 1_555 1_555
Cd4 S1 1_555 1_555
Cd5 S4 1_555 1_555
Cd6 S9 1_555 1_555
Cd7 S8 1_555 1_555
Cd8 S5 1_555 1_555
S1 C11 1_555 1_555
S2 Cd1 1_555 1_555
S3 Cd1 1_555 1_555
S4 Cd4 1_555 1_555
S5 Cd3 1_555 1_555
S6 Cd4 1_555 1_555
S7 Cd2 1_555 1_555
S8 Cd2 1_555 1_555
S9 Cd5 1_555 1_555
S10 Cd8 1_555 1_555
S11 Cd6 1_555 1_555
S12 Cd6 1_555 1_555
S13 Cd3 1_555 1_555
S14 Cd7 1_555 1_555
S15 Cd2 1_555 1_555
O1 Cd2 1_555 1_555
N1 Cd1 1_555 1_555
N2 C8 1_555 1_555
N3 C95 1_555 1_555
C1 N1 1_555 1_555
H1 C1 1_555 1_555
C2 C1 1_555 1_555
H2 C2 1_555 1_555
C3 C2 1_555 1_555
C4 C3 1_555 1_555
H3 C4 1_555 1_555
C5 N1 1_555 1_555
H4 C5 1_555 1_555
C6 C3 1_555 1_555
C7 C6 1_555 1_555
H5 C7 1_555 1_555
C8 C7 1_555 1_555
H6 C8 1_555 1_555
C9 C6 1_555 1_555
H7 C9 1_555 1_555
C10 N2 1_555 1_555
H8 C10 1_555 1_555
C11 C12 1_555 1_555
C12 H9 1_555 1_555
C13 C12 1_555 1_555
H10 C13 1_555 1_555
C14 C13 1_555 1_555
H11 C14 1_555 1_555
C15 C14 1_555 1_555
H12 C15 1_555 1_555
C16 C11 1_555 1_555
H13 C16 1_555 1_555
C17 S2 1_555 1_555
C18 C17 1_555 1_555
H14 C18 1_555 1_555
C19 C18 1_555 1_555
H15 C19 1_555 1_555
C20 C19 1_555 1_555
H16 C20 1_555 1_555
C21 C20 1_555 1_555
H17 C21 1_555 1_555
C22 C17 1_555 1_555
H18 C22 1_555 1_555
C23 S3 1_555 1_555
C24 C23 1_555 1_555
H19 C24 1_555 1_555
C25 C24 1_555 1_555
H20 C25 1_555 1_555
C26 C25 1_555 1_555
H21 C26 1_555 1_555
C27 C26 1_555 1_555
H22 C27 1_555 1_555
C28 C23 1_555 1_555
H23 C28 1_555 1_555
C29 S4 1_555 1_555
C30 C29 1_555 1_555
H24 C30 1_555 1_555
C31 C30 1_555 1_555
H25 C31 1_555 1_555
C32 C31 1_555 1_555
H26 C32 1_555 1_555
C33 C32 1_555 1_555
H27 C33 1_555 1_555
C34 C29 1_555 1_555
H28 C34 1_555 1_555
C35 S5 1_555 1_555
C36 C35 1_555 1_555
H29 C36 1_555 1_555
C37 C36 1_555 1_555
H30 C37 1_555 1_555
C38 C37 1_555 1_555
H31 C38 1_555 1_555
C39 C38 1_555 1_555
H32 C39 1_555 1_555
C40 C35 1_555 1_555
H33 C40 1_555 1_555
C41 S6 1_555 1_555
C42 C41 1_555 1_555
H34 C42 1_555 1_555
C43 C42 1_555 1_555
H35 C43 1_555 1_555
C44 C43 1_555 1_555
H36 C44 1_555 1_555
C45 C44 1_555 1_555
H37 C45 1_555 1_555
C46 C41 1_555 1_555
H38 C46 1_555 1_555
C47 S7 1_555 1_555
C48 C47 1_555 1_555
H39 C48 1_555 1_555
C49 C48 1_555 1_555
H40 C49 1_555 1_555
C50 C49 1_555 1_555
H41 C50 1_555 1_555
C51 C50 1_555 1_555
H42 C51 1_555 1_555
C52 C47 1_555 1_555
H43 C52 1_555 1_555
C53 S8 1_555 1_555
C54 C53 1_555 1_555
H44 C54 1_555 1_555
C55 C54 1_555 1_555
H45 C55 1_555 1_555
C56 C55 1_555 1_555
H46 C56 1_555 1_555
C57 C56 1_555 1_555
H47 C57 1_555 1_555
C58 C53 1_555 1_555
H48 C58 1_555 1_555
C59 S9 1_555 1_555
C60 C59 1_555 1_555
H49 C60 1_555 1_555
C61 C60 1_555 1_555
H50 C61 1_555 1_555
C62 C61 1_555 1_555
H51 C62 1_555 1_555
C63 C62 1_555 1_555
H52 C63 1_555 1_555
C64 C59 1_555 1_555
H53 C64 1_555 1_555
C65 S10 1_555 1_555
C66 C65 1_555 1_555
H54 C66 1_555 1_555
C67 C66 1_555 1_555
H55 C67 1_555 1_555
C68 C67 1_555 1_555
H56 C68 1_555 1_555
C69 C68 1_555 1_555
H57 C69 1_555 1_555
C70 C65 1_555 1_555
H58 C70 1_555 1_555
C71 S11 1_555 1_555
C72 C71 1_555 1_555
H59 C72 1_555 1_555
C73 C72 1_555 1_555
H60 C73 1_555 1_555
C74 C73 1_555 1_555
H61 C74 1_555 1_555
C75 C74 1_555 1_555
H62 C75 1_555 1_555
C76 C71 1_555 1_555
H63 C76 1_555 1_555
C77 S12 1_555 1_555
C78 C77 1_555 1_555
H64 C78 1_555 1_555
C79 C78 1_555 1_555
H65 C79 1_555 1_555
C80 C79 1_555 1_555
H66 C80 1_555 1_555
C81 C80 1_555 1_555
H67 C81 1_555 1_555
C82 C77 1_555 1_555
H68 C82 1_555 1_555
C83 S13 1_555 1_555
C84 C83 1_555 1_555
H69 C84 1_555 1_555
C85 C84 1_555 1_555
H70 C85 1_555 1_555
C86 C85 1_555 1_555
H71 C86 1_555 1_555
C87 C86 1_555 1_555
H72 C87 1_555 1_555
C88 C83 1_555 1_555
H73 C88 1_555 1_555
C89 S14 1_555 1_555
C90 C89 1_555 1_555
H74 C90 1_555 1_555
C91 C90 1_555 1_555
H75 C91 1_555 1_555
C92 C91 1_555 1_555
H76 C92 1_555 1_555
C93 C92 1_555 1_555
H77 C93 1_555 1_555
C94 C89 1_555 1_555
H78 C94 1_555 1_555
C95 O1 1_555 1_555
C96 N3 1_555 1_555
H79 C96 1_555 1_555
H80 C96 1_555 1_555
H81 C96 1_555 1_555
C97 N3 1_555 1_555
H82 C97 1_555 1_555
H83 C97 1_555 1_555
H84 C97 1_555 1_555
C98 H85 1_555 1_555
H86 C98 1_555 1_555
H87 C98 1_555 1_555
C99 H88 1_555 1_555
H89 C99 1_555 1_555
H90 C99 1_555 1_555
C100 N4 1_555 1_555
N4 C98 1_555 1_555
O2 C100 1_555 1_555
C101 H91 1_555 1_555
H92 C101 1_555 1_555
H93 C101 1_555 1_555
C102 H94 1_555 1_555
H95 C102 1_555 1_555
H96 C102 1_555 1_555
C103 N5 1_555 1_555
N5 C101 1_555 1_555
O3 C103 1_555 1_555
Cd5A N2 1_555 1_555
N2A Cd5 1_555 1_555
Cd3 S15 1_555 1_555
Cd4 S15 1_555 1_555
Cd5 S7 1_555 1_555
Cd6 S15 1_555 1_555
Cd7 S12 1_555 1_555
Cd7 S13 1_555 1_555
Cd8 S6 1_555 1_555
Cd8 S11 1_555 1_555
C4 C5 1_555 1_555
C9 C10 1_555 1_555
C15 C16 1_555 1_555
C21 C22 1_555 1_555
C27 C28 1_555 1_555
C33 C34 1_555 1_555
C39 C40 1_555 1_555
C45 C46 1_555 1_555
C51 C52 1_555 1_555
C57 C58 1_555 1_555
C63 C64 1_555 1_555
C69 C70 1_555 1_555
C75 C76 1_555 1_555
C81 C82 1_555 1_555
C87 C88 1_555 1_555
C93 C94 1_555 1_555
C99 N4 1_555 1_555
C102 N5 1_555 1_555

#END
