
#######################################################################
#
#                 Cambridge Crystallographic Data Centre
#                                CCDC 
#
#######################################################################
#
# If this CIF has been generated from an entry in the Cambridge 
# Structural Database, then it will include bibliographic, chemical, 
# crystal, experimental, refinement or atomic coordinate data resulting 
# from the CCDC's data processing and validation procedures.
#
#######################################################################

data_BOYLOR
_symmetry_cell_setting           orthorhombic
_symmetry_space_group_name_H-M   'P b c n'
_symmetry_Int_Tables_number      60
_space_group_name_Hall           '-P 2n 2ab'
loop_
_symmetry_equiv_pos_site_id
_symmetry_equiv_pos_as_xyz
1 x,y,z
2 1/2-x,1/2-y,1/2+z
3 -x,y,1/2-z
4 1/2+x,1/2-y,-z
5 -x,-y,-z
6 1/2+x,1/2+y,1/2-z
7 x,-y,1/2+z
8 1/2-x,1/2+y,z
_cell_length_a                   8.882(2)
_cell_length_b                   19.625(4)
_cell_length_c                   10.048(2)
_cell_angle_alpha                90
_cell_angle_beta                 90
_cell_angle_gamma                90
_cell_volume                     1751.46
loop_
_atom_site_label
_atom_site_type_symbol
_atom_site_fract_x
_atom_site_fract_y
_atom_site_fract_z
Eu1 Eu 0.0000 0.488703(14) 0.2500
O1 O -0.1053(4) 0.56809(15) 0.1035(3)
O2 O -0.0441(4) 0.60235(16) -0.1011(3)
O3 O 0.2499(4) 0.44966(15) 0.3349(3)
H1 H 0.2494 0.4502 0.4165
O4 O -0.1984(4) 0.54071(17) 0.3857(3)
H2 H -0.1801 0.5344 0.4648
N1 N -0.1445(5) 0.8221(2) 0.1327(4)
C1 C -0.0813(5) 0.6128(2) 0.0175(4)
C2 C -0.1015(5) 0.6865(2) 0.0597(4)
C3 C -0.1762(5) 0.7027(2) 0.1767(5)
H3 H -0.2123 0.6687 0.2327
C4 C -0.1955(6) 0.7709(2) 0.2079(5)
H4 H -0.2469 0.7816 0.2857
C5 C -0.0701(6) 0.8056(2) 0.0210(5)
H5 H -0.0323 0.8405 -0.0319
C6 C -0.0472(6) 0.7392(2) -0.0187(5)
H6 H 0.0042 0.7298 -0.0972
Eu1D Eu 0.0000 0.511297(14) -0.2500
Eu1D_2 Eu 0.0000 0.511297(14) 0.7500
O1B O 0.1053(4) 0.56809(15) 0.3965(3)
O2B O 0.0441(4) 0.60235(16) 0.6011(3)
O2D O 0.0441(4) 0.39765(16) 0.1011(3)
O2F O -0.0441(4) 0.39765(16) 0.3989(3)
O3B O -0.2499(4) 0.44966(15) 0.1651(3)
H1B H -0.2494 0.4502 0.0835
O4B O 0.1984(4) 0.54071(17) 0.1143(3)
H2B H 0.1801 0.5344 0.0352
N1B N 0.1445(5) 0.8221(2) 0.3673(4)
C1B C 0.0813(5) 0.6128(2) 0.4825(4)
C2B C 0.1015(5) 0.6865(2) 0.4403(4)
C3B C 0.1762(5) 0.7027(2) 0.3233(5)
H3B H 0.2123 0.6687 0.2673
C4B C 0.1955(6) 0.7709(2) 0.2921(5)
H4B H 0.2469 0.7816 0.2143
C5B C 0.0701(6) 0.8056(2) 0.4790(5)
H5B H 0.0323 0.8405 0.5319
C6B C 0.0472(6) 0.7392(2) 0.5187(5)
H6B H -0.0042 0.7298 0.5972
Cl1 Cl 0.0000 0.05830(8) 0.2500
loop_
_geom_bond_atom_site_label_1
_geom_bond_atom_site_label_2
_geom_bond_site_symmetry_1
_geom_bond_site_symmetry_2
Eu1 O1 1_555 1_555
O1 C1 1_555 1_555
O2 C1 1_555 1_555
O3 Eu1 1_555 1_555
H1 O3 1_555 1_555
O4 Eu1 1_555 1_555
H2 O4 1_555 1_555
N1 C4 1_555 1_555
C1 C2 1_555 1_555
C2 C3 1_555 1_555
C3 H3 1_555 1_555
C4 C3 1_555 1_555
H4 C4 1_555 1_555
C5 N1 1_555 1_555
H5 C5 1_555 1_555
C6 C2 1_555 1_555
H6 C6 1_555 1_555
Eu1D O2 1_555 1_555
Eu1D_2 O2B 1_555 1_555
O1B Eu1 1_555 1_555
O2B C1B 1_555 1_555
O2D Eu1 1_555 1_555
O2F Eu1 1_555 1_555
O3B Eu1 1_555 1_555
H1B O3B 1_555 1_555
O4B Eu1 1_555 1_555
H2B O4B 1_555 1_555
N1B C4B 1_555 1_555
C1B O1B 1_555 1_555
C2B C1B 1_555 1_555
C3B C2B 1_555 1_555
H3B C3B 1_555 1_555
C4B C3B 1_555 1_555
H4B C4B 1_555 1_555
C5B N1B 1_555 1_555
H5B C5B 1_555 1_555
C6B C2B 1_555 1_555
H6B C6B 1_555 1_555
C5 C6 1_555 1_555
C5B C6B 1_555 1_555

#END
