
#######################################################################
#
#                 Cambridge Crystallographic Data Centre
#                                CCDC 
#
#######################################################################
#
# If this CIF has been generated from an entry in the Cambridge 
# Structural Database, then it will include bibliographic, chemical, 
# crystal, experimental, refinement or atomic coordinate data resulting 
# from the CCDC's data processing and validation procedures.
#
#######################################################################

data_BOYMAE
_symmetry_cell_setting           orthorhombic
_symmetry_space_group_name_H-M   'P b c n'
_symmetry_Int_Tables_number      60
_space_group_name_Hall           '-P 2n 2ab'
loop_
_symmetry_equiv_pos_site_id
_symmetry_equiv_pos_as_xyz
1 x,y,z
2 1/2-x,1/2-y,1/2+z
3 -x,y,1/2-z
4 1/2+x,1/2-y,-z
5 -x,-y,-z
6 1/2+x,1/2+y,1/2-z
7 x,-y,1/2+z
8 1/2-x,1/2+y,z
_cell_length_a                   8.854(4)
_cell_length_b                   19.535(9)
_cell_length_c                   9.946(4)
_cell_angle_alpha                90
_cell_angle_beta                 90
_cell_angle_gamma                90
_cell_volume                     1720.29
loop_
_atom_site_label
_atom_site_type_symbol
_atom_site_fract_x
_atom_site_fract_y
_atom_site_fract_z
Dy1 Dy 0.0000 0.011342(8) 1.2500
O1 O 0.2465(2) 0.05083(9) 1.33496(19)
H1 H 0.2460 0.0501 1.4174
O2 O -0.1953(2) -0.04002(10) 1.38391(19)
H2 H -0.1768 -0.0340 1.4638
O3 O -0.1050(2) -0.06700(10) 1.10453(19)
O4 O -0.0441(2) -0.10053(10) 0.89815(19)
N1 N -0.1454(3) -0.32116(12) 1.1323(3)
C1 C -0.0803(3) -0.11165(13) 1.0177(3)
C2 C -0.1008(3) -0.18539(13) 1.0593(3)
C3 C -0.1749(3) -0.20202(14) 1.1777(3)
H3 H -0.2103 -0.1680 1.2349
C4 C -0.1949(3) -0.27031(16) 1.2087(3)
H4 H -0.2459 -0.2812 1.2876
C5 C -0.0699(4) -0.30478(15) 1.0201(3)
H5 H -0.0311 -0.3399 0.9672
C6 C -0.0472(4) -0.23786(14) 0.9799(3)
H6 H 0.0037 -0.2284 0.9002
Dy1D Dy 0.0000 -0.011342(8) 0.7500
Dy1D_2 Dy 0.0000 -0.011342(8) 1.7500
O1B O -0.2465(2) 0.05083(9) 1.16504(19)
H1B H -0.2460 0.0501 1.0826
O2B O 0.1953(2) -0.04002(10) 1.11609(19)
H2B H 0.1768 -0.0340 1.0362
O3B O 0.1050(2) -0.06700(10) 1.39547(19)
O4B O 0.0441(2) -0.10053(10) 1.60185(19)
O4D O 0.0441(2) 0.10053(10) 1.10185(19)
O4F O -0.0441(2) 0.10053(10) 1.39815(19)
N1B N 0.1454(3) -0.32116(12) 1.3677(3)
C1B C 0.0803(3) -0.11165(13) 1.4823(3)
C2B C 0.1008(3) -0.18539(13) 1.4407(3)
C3B C 0.1749(3) -0.20202(14) 1.3223(3)
H3B H 0.2103 -0.1680 1.2651
C4B C 0.1949(3) -0.27031(16) 1.2913(3)
H4B H 0.2459 -0.2812 1.2124
C5B C 0.0699(4) -0.30478(15) 1.4799(3)
H5B H 0.0311 -0.3399 1.5328
C6B C 0.0472(4) -0.23786(14) 1.5201(3)
H6B H -0.0037 -0.2284 1.5998
Cl1 Cl -0.5000 -0.05700(6) 1.2500
loop_
_geom_bond_atom_site_label_1
_geom_bond_atom_site_label_2
_geom_bond_site_symmetry_1
_geom_bond_site_symmetry_2
Dy1 O1 1_555 1_555
O1 H1 1_555 1_555
O2 Dy1 1_555 1_555
H2 O2 1_555 1_555
O3 Dy1 1_555 1_555
O4 C1 1_555 1_555
N1 C4 1_555 1_555
C1 O3 1_555 1_555
C2 C1 1_555 1_555
C3 C2 1_555 1_555
H3 C3 1_555 1_555
C4 C3 1_555 1_555
H4 C4 1_555 1_555
C5 N1 1_555 1_555
H5 C5 1_555 1_555
C6 C2 1_555 1_555
H6 C6 1_555 1_555
Dy1D O4 1_555 1_555
Dy1D_2 O4B 1_555 1_555
O1B Dy1 1_555 1_555
H1B O1B 1_555 1_555
O2B Dy1 1_555 1_555
H2B O2B 1_555 1_555
O3B Dy1 1_555 1_555
O4B C1B 1_555 1_555
O4D Dy1 1_555 1_555
O4F Dy1 1_555 1_555
N1B C4B 1_555 1_555
C1B O3B 1_555 1_555
C2B C1B 1_555 1_555
C3B C2B 1_555 1_555
H3B C3B 1_555 1_555
C4B C3B 1_555 1_555
H4B C4B 1_555 1_555
C5B N1B 1_555 1_555
H5B C5B 1_555 1_555
C6B C2B 1_555 1_555
H6B C6B 1_555 1_555
C5 C6 1_555 1_555
C5B C6B 1_555 1_555

#END
