
#######################################################################
#
#                 Cambridge Crystallographic Data Centre
#                                CCDC 
#
#######################################################################
#
# If this CIF has been generated from an entry in the Cambridge 
# Structural Database, then it will include bibliographic, chemical, 
# crystal, experimental, refinement or atomic coordinate data resulting 
# from the CCDC's data processing and validation procedures.
#
#######################################################################

data_BOYQOX
_symmetry_cell_setting           triclinic
_symmetry_space_group_name_H-M   'P -1'
_symmetry_Int_Tables_number      2
_space_group_name_Hall           '-P 1'
loop_
_symmetry_equiv_pos_site_id
_symmetry_equiv_pos_as_xyz
1 x,y,z
2 -x,-y,-z
_cell_length_a                   9.6350(5)
_cell_length_b                   14.3172(8)
_cell_length_c                   18.6936(10)
_cell_angle_alpha                108.6340(10)
_cell_angle_beta                 98.4780(10)
_cell_angle_gamma                91.5100(10)
_cell_volume                     2409.4
loop_
_atom_site_label
_atom_site_type_symbol
_atom_site_fract_x
_atom_site_fract_y
_atom_site_fract_z
Zn1 Zn 0.36791(3) 0.24301(3) 0.948008(18)
O1 O 0.5383(2) 0.32052(16) 1.01287(11)
C1 C 0.7876(3) 0.3287(2) 1.04382(15)
N1 N 0.3420(3) 0.25336(19) 0.83935(14)
Zn2 Zn 0.41614(3) -0.48060(2) 1.367127(18)
O2 O 0.6521(2) 0.21752(15) 0.92970(11)
N2 N 0.4826(3) 0.17010(19) 0.65768(14)
H1 H 0.4732 0.1887 0.6179
C2 C 0.9157(3) 0.3054(2) 1.01892(15)
H2 H 0.9175 0.2677 0.9683
N3 N 0.6142(3) 0.10688(18) 0.53531(14)
C3 C 1.0410(3) 0.3388(2) 1.07011(16)
O3 O 1.1864(2) 0.28880(18) 0.97468(12)
N4 N 0.5437(3) 0.18608(19) 0.42351(14)
H3 H 0.5254 0.2092 0.4693
O4 O 1.2790(2) 0.30355(18) 1.09389(12)
C4 C 1.1803(3) 0.3092(2) 1.04632(17)
O5 O 0.9009(2) 0.46902(19) 1.24427(12)
H4 H 0.9788 0.4765 1.2708
N5 N 0.4049(2) 0.36853(18) 0.33806(14)
C5 C 1.0379(3) 0.3944(2) 1.14556(16)
H5 H 1.1215 0.4162 1.1799
O6 O 0.6194(2) -0.46301(17) 1.40628(14)
C6 C 0.9104(3) 0.4177(2) 1.16996(16)
N6 N 0.3574(3) 0.09701(19) 0.94052(15)
O7 O 0.5998(2) -0.30170(19) 1.45673(14)
N7 N 0.2137(3) -0.04274(19) 1.05152(14)
H6 H 0.2402 -0.0929 1.0643
C7 C 0.7851(3) 0.3854(2) 1.11923(16)
H7 H 0.6997 0.4016 1.1357
O8 O 1.1327(2) -0.49414(18) 1.34457(12)
N8 N 0.1133(2) -0.10519(18) 1.16004(14)
C8 C 0.6513(3) 0.2855(2) 0.99116(15)
N9 N 0.2095(3) -0.27220(18) 1.18536(14)
H8 H 0.2156 -0.2560 1.1454
O9 O 1.2988(2) -0.41968(18) 1.44248(12)
C9 C 0.4218(3) 0.2086(2) 0.78698(17)
H9 H 0.4944 0.1729 0.8005
N10 N 0.3899(2) -0.44677(18) 1.26886(14)
O10 O 1.0558(3) -0.2478(3) 1.66109(16)
H10 H 1.1211 -0.2742 1.6783
C10 C 0.2381(3) 0.3059(3) 0.82038(19)
H11 H 0.1832 0.3373 0.8567
O11 O 0.6757(3) 0.0814(2) 0.34803(14)
C11 C 0.2107(4) 0.3143(3) 0.7483(2)
H12 H 0.1389 0.3518 0.7365
C12 C 0.2896(4) 0.2675(3) 0.69413(19)
H13 H 0.2701 0.2714 0.6450
O12 O 0.6038(3) 0.06979(18) 0.71306(13)
O13 O 0.0746(3) 0.08593(17) 1.07729(14)
C13 C 0.3991(3) 0.2141(2) 0.71312(17)
O14 O 0.1050(3) -0.2366(2) 1.29131(15)
C14 C 0.5762(3) 0.1018(2) 0.65981(17)
C15 C 0.6470(3) 0.0667(2) 0.59063(17)
C16 C 0.7409(4) -0.0063(3) 0.5859(2)
H14 H 0.7605 -0.0329 0.6252
C17 C 0.8044(4) -0.0383(3) 0.5222(2)
H15 H 0.8679 -0.0869 0.5179
C18 C 0.7727(4) 0.0025(3) 0.4649(2)
H16 H 0.8150 -0.0176 0.4215
C19 C 0.6767(3) 0.0738(2) 0.47320(17)
C20 C 0.6336(3) 0.1147(2) 0.40912(17)
C21 C 0.4772(3) 0.2255(2) 0.36786(16)
C22 C 0.4122(4) 0.1652(3) 0.29626(19)
H17 H 0.4154 0.0970 0.2818
C23 C 0.3429(4) 0.2085(3) 0.2472(2)
H18 H 0.2979 0.1697 0.1988
C24 C 0.3402(4) 0.3093(3) 0.26962(19)
H19 H 0.2916 0.3376 0.2360
C25 C 0.4734(3) 0.3264(2) 0.38641(16)
H20 H 0.5196 0.3668 0.4340
C26 C 0.2987(3) 0.0747(2) 0.99464(17)
H21 H 0.2739 0.1260 1.0346
C27 C 0.3951(4) 0.0226(3) 0.8835(2)
H22 H 0.4359 0.0374 0.8459
C28 C 0.3750(4) -0.0738(3) 0.8793(2)
H23 H 0.4033 -0.1237 0.8397
C29 C 0.3128(4) -0.0969(3) 0.9339(2)
H24 H 0.2972 -0.1626 0.9307
C30 C 0.2737(3) -0.0221(2) 0.99325(17)
C31 C 0.1170(3) 0.0116(2) 1.08867(17)
C32 C 0.0654(3) -0.0231(2) 1.14858(17)
C33 C -0.0258(4) 0.0340(3) 1.1914(2)
H25 H -0.0539 0.0916 1.1828
C34 C -0.0747(4) 0.0042(3) 1.2471(2)
H26 H -0.1388 0.0400 1.2755
C35 C -0.0263(4) -0.0801(3) 1.2598(2)
H27 H -0.0569 -0.1020 1.2970
C36 C 0.0686(3) -0.1312(2) 1.21601(17)
C37 C 0.1285(3) -0.2184(2) 1.23443(18)
C38 C 0.2845(3) -0.3520(2) 1.19358(17)
C39 C 0.3415(4) -0.4108(2) 1.13191(18)
H28 H 0.3225 -0.4008 1.0848
C40 C 0.4257(4) -0.4836(2) 1.14029(19)
H29 H 0.4664 -0.5218 1.0996
C41 C 0.4487(3) -0.4992(2) 1.20948(18)
H30 H 0.5070 -0.5479 1.2154
C42 C 0.3088(3) -0.3741(2) 1.26151(16)
H31 H 0.2679 -0.3379 1.3028
C43 C 0.6693(3) -0.3750(2) 1.44566(17)
C44 C 0.8241(3) -0.3628(2) 1.47813(17)
C45 C 0.9194(3) -0.4108(2) 1.43252(17)
H32 H 0.8876 -0.4523 1.3828
C46 C 1.0631(3) -0.3963(2) 1.46185(17)
C47 C 1.1688(3) -0.4413(2) 1.41201(17)
C48 C 1.1092(3) -0.3411(3) 1.53799(19)
H33 H 1.2049 -0.3326 1.5575
C49 C 1.0142(4) -0.2987(3) 1.5852(2)
C50 C 0.8723(4) -0.3058(3) 1.5541(2)
H34 H 0.8090 -0.2722 1.5843
Zn1_2 Zn 1.36791(3) 0.24301(3) 0.948008(18)
Zn2_2 Zn 0.41614(3) 0.51940(2) 0.367127(18)
Zn2_3 Zn 1.41614(3) -0.48060(2) 1.367127(18)
O3_2 O 0.1864(2) 0.28880(18) 0.97468(12)
N5_2 N 0.4049(2) -0.63147(18) 1.33806(14)
O9_2 O 0.2988(2) -0.41968(18) 1.44248(12)
O15 O 0.7165(3) 0.3528(3) 1.2925(2)
H35 H 0.7590 0.3575 1.2569
H36 H 0.6931 0.4100 1.3158
loop_
_geom_bond_atom_site_label_1
_geom_bond_atom_site_label_2
_geom_bond_site_symmetry_1
_geom_bond_site_symmetry_2
Zn1 O1 1_555 1_555
O1 C8 1_555 1_555
C1 C2 1_555 1_555
N1 Zn1 1_555 1_555
Zn2 O6 1_555 1_555
O2 C8 1_555 1_555
N2 H1 1_555 1_555
C2 H2 1_555 1_555
N3 C15 1_555 1_555
C3 C2 1_555 1_555
O3 C4 1_555 1_555
N4 H3 1_555 1_555
O4 C4 1_555 1_555
C4 C3 1_555 1_555
O5 H4 1_555 1_555
N5 C24 1_555 1_555
C5 C3 1_555 1_555
H5 C5 1_555 1_555
O6 C43 1_555 1_555
C6 O5 1_555 1_555
N6 Zn1 1_555 1_555
O7 C43 1_555 1_555
N7 H6 1_555 1_555
C7 C1 1_555 1_555
H7 C7 1_555 1_555
O8 C47 1_555 1_555
N8 C32 1_555 1_555
C8 C1 1_555 1_555
N9 H8 1_555 1_555
O9 C47 1_555 1_555
C9 N1 1_555 1_555
H9 C9 1_555 1_555
N10 Zn2 1_555 1_555
O10 H10 1_555 1_555
C10 N1 1_555 1_555
H11 C10 1_555 1_555
O11 C20 1_555 1_555
C11 C10 1_555 1_555
H12 C11 1_555 1_555
C12 C11 1_555 1_555
H13 C12 1_555 1_555
O12 C14 1_555 1_555
O13 C31 1_555 1_555
C13 N2 1_555 1_555
O14 C37 1_555 1_555
C14 N2 1_555 1_555
C15 C14 1_555 1_555
C16 C15 1_555 1_555
H14 C16 1_555 1_555
C17 C16 1_555 1_555
H15 C17 1_555 1_555
C18 C17 1_555 1_555
H16 C18 1_555 1_555
C19 N3 1_555 1_555
C20 N4 1_555 1_555
C21 N4 1_555 1_555
C22 C21 1_555 1_555
H17 C22 1_555 1_555
C23 C22 1_555 1_555
H18 C23 1_555 1_555
C24 C23 1_555 1_555
H19 C24 1_555 1_555
C25 N5 1_555 1_555
H20 C25 1_555 1_555
C26 N6 1_555 1_555
H21 C26 1_555 1_555
C27 N6 1_555 1_555
H22 C27 1_555 1_555
C28 C27 1_555 1_555
H23 C28 1_555 1_555
C29 C28 1_555 1_555
H24 C29 1_555 1_555
C30 N7 1_555 1_555
C31 N7 1_555 1_555
C32 C31 1_555 1_555
C33 C32 1_555 1_555
H25 C33 1_555 1_555
C34 C33 1_555 1_555
H26 C34 1_555 1_555
C35 C34 1_555 1_555
H27 C35 1_555 1_555
C36 N8 1_555 1_555
C37 N9 1_555 1_555
C38 N9 1_555 1_555
C39 C38 1_555 1_555
H28 C39 1_555 1_555
C40 C39 1_555 1_555
H29 C40 1_555 1_555
C41 N10 1_555 1_555
H30 C41 1_555 1_555
C42 N10 1_555 1_555
H31 C42 1_555 1_555
C43 C44 1_555 1_555
C44 C45 1_555 1_555
C45 H32 1_555 1_555
C46 C45 1_555 1_555
C47 C46 1_555 1_555
C48 C46 1_555 1_555
H33 C48 1_555 1_555
C49 O10 1_555 1_555
C50 C44 1_555 1_555
H34 C50 1_555 1_555
O15 H35 1_555 1_555
H36 O15 1_555 1_555
Zn1_2 O3 1_555 1_555
Zn2_2 N5 1_555 1_555
Zn2_3 O9 1_555 1_555
O3_2 Zn1 1_555 1_555
N5_2 Zn2 1_555 1_555
O9_2 Zn2 1_555 1_555
C5 C6 1_555 1_555
C6 C7 1_555 1_555
C9 C13 1_555 1_555
C12 C13 1_555 1_555
C18 C19 1_555 1_555
C19 C20 1_555 1_555
C21 C25 1_555 1_555
C26 C30 1_555 1_555
C29 C30 1_555 1_555
C35 C36 1_555 1_555
C36 C37 1_555 1_555
C38 C42 1_555 1_555
C40 C41 1_555 1_555
C48 C49 1_555 1_555
C49 C50 1_555 1_555

#END
