
#######################################################################
#
#                 Cambridge Crystallographic Data Centre
#                                CCDC 
#
#######################################################################
#
# If this CIF has been generated from an entry in the Cambridge 
# Structural Database, then it will include bibliographic, chemical, 
# crystal, experimental, refinement or atomic coordinate data resulting 
# from the CCDC's data processing and validation procedures.
#
#######################################################################

data_BOYQIR
_symmetry_cell_setting           triclinic
_symmetry_space_group_name_H-M   'P -1'
_symmetry_Int_Tables_number      2
_space_group_name_Hall           '-P 1'
loop_
_symmetry_equiv_pos_site_id
_symmetry_equiv_pos_as_xyz
1 x,y,z
2 -x,-y,-z
_cell_length_a                   9.6244(7)
_cell_length_b                   11.6269(8)
_cell_length_c                   12.7727(9)
_cell_angle_alpha                67.2790(10)
_cell_angle_beta                 76.1180(10)
_cell_angle_gamma                84.9730(10)
_cell_volume                     1279.84
loop_
_atom_site_label
_atom_site_type_symbol
_atom_site_fract_x
_atom_site_fract_y
_atom_site_fract_z
Zn1 Zn 0.08766(4) 0.46186(3) 0.80378(3)
N1 N 0.1264(3) 0.4385(3) 0.6490(2)
O1 O -0.1215(2) 0.4803(2) 0.8482(2)
C1 C -0.1572(3) 0.5940(3) 0.8108(3)
O2 O -0.0729(2) 0.6799(2) 0.7455(2)
N2 N -0.0246(3) 0.2510(3) 0.5261(2)
H1 H -0.0030 0.2429 0.4600
C2 C -0.3133(3) 0.6211(3) 0.8458(3)
N3 N -0.1512(3) 0.1027(3) 0.4585(2)
O3 O -0.6275(3) 0.4491(3) 0.7789(3)
C3 C -0.4151(3) 0.5591(3) 0.8272(3)
H2 H -0.3875 0.4958 0.7992
O4 O -0.7963(2) 0.5635(2) 0.8397(2)
C4 C -0.5588(3) 0.5908(3) 0.8503(3)
N4 N -0.0576(3) 0.1222(3) 0.2359(2)
H3 H -0.0437 0.1760 0.2634
C5 C -0.6659(3) 0.5286(3) 0.8215(3)
O5 O -0.1909(3) 0.1956(3) 0.6971(2)
N5 N 0.0891(3) 0.2833(2) -0.0754(2)
O6 O -0.1794(4) -0.0535(3) 0.2762(3)
C6 C -0.5993(3) 0.6787(3) 0.8998(3)
H4 H -0.6956 0.6989 0.9165
C7 C -0.4999(4) 0.7380(3) 0.9255(4)
C8 C -0.5466(5) 0.8287(5) 0.9844(6)
H5 H -0.6489 0.8361 0.9987
H6 H -0.5036 0.9086 0.9351
H7 H -0.5171 0.7993 1.0570
C9 C -0.3561(3) 0.7107(3) 0.8936(3)
H8 H -0.2870 0.7535 0.9046
C10 C 0.0363(3) 0.3655(3) 0.6367(3)
H9 H -0.0476 0.3379 0.6934
C11 C 0.2456(4) 0.4812(4) 0.5664(3)
H10 H 0.3066 0.5335 0.5745
C12 C 0.2802(4) 0.4501(4) 0.4703(3)
H11 H 0.3634 0.4811 0.4136
C13 C 0.1902(4) 0.3722(4) 0.4586(3)
H12 H 0.2138 0.3481 0.3950
C14 C 0.0644(3) 0.3297(3) 0.5417(3)
C15 C -0.1408(4) 0.1863(3) 0.6038(3)
C16 C -0.2038(4) 0.0990(3) 0.5657(3)
C17 C -0.3112(4) 0.0172(4) 0.6445(3)
H13 H -0.3453 0.0176 0.7190
C18 C -0.3667(5) -0.0647(4) 0.6104(4)
H14 H -0.4382 -0.1212 0.6618
C19 C -0.3147(4) -0.0613(4) 0.4992(3)
H15 H -0.3513 -0.1145 0.4734
C20 C -0.2061(4) 0.0235(3) 0.4260(3)
C21 C -0.1472(4) 0.0266(3) 0.3057(3)
C22 C 0.0163(3) 0.2573(3) 0.0345(3)
H16 H -0.0357 0.3205 0.0536
C23 C 0.0154(4) 0.1406(3) 0.1205(3)
C24 C 0.0900(4) 0.0457(3) 0.0917(3)
H17 H 0.0902 -0.0345 0.1475
C25 C 0.1638(4) 0.0730(4) -0.0217(3)
H18 H 0.2144 0.0108 -0.0434
C26 C 0.1628(4) 0.1917(3) -0.1026(3)
H19 H 0.2147 0.2093 -0.1785
Zn1_2 Zn -0.91234(4) 0.46186(3) 0.80378(3)
Zn1_3 Zn 0.08766(4) 0.46186(3) -0.19622(3)
O4_2 O 0.2037(2) 0.5635(2) 0.8397(2)
N5_2 N 0.0891(3) 0.2833(2) 0.9246(2)
O7 O -0.4901(7) 0.2715(7) 0.6897(8)
H20 H -0.5611 0.2779 0.7414
H21 H -0.5225 0.2548 0.6408
loop_
_geom_bond_atom_site_label_1
_geom_bond_atom_site_label_2
_geom_bond_site_symmetry_1
_geom_bond_site_symmetry_2
Zn1 N1 1_555 1_555
N1 C10 1_555 1_555
O1 Zn1 1_555 1_555
C1 O1 1_555 1_555
O2 C1 1_555 1_555
N2 H1 1_555 1_555
C2 C1 1_555 1_555
N3 C16 1_555 1_555
O3 C5 1_555 1_555
C3 C2 1_555 1_555
H2 C3 1_555 1_555
O4 C5 1_555 1_555
C4 C3 1_555 1_555
N4 H3 1_555 1_555
C5 C4 1_555 1_555
O5 C15 1_555 1_555
N5 C22 1_555 1_555
O6 C21 1_555 1_555
C6 C4 1_555 1_555
H4 C6 1_555 1_555
C7 C6 1_555 1_555
C8 C7 1_555 1_555
H5 C8 1_555 1_555
H6 C8 1_555 1_555
H7 C8 1_555 1_555
C9 C2 1_555 1_555
H8 C9 1_555 1_555
C10 H9 1_555 1_555
C11 N1 1_555 1_555
H10 C11 1_555 1_555
C12 C11 1_555 1_555
H11 C12 1_555 1_555
C13 C12 1_555 1_555
H12 C13 1_555 1_555
C14 N2 1_555 1_555
C15 N2 1_555 1_555
C16 C15 1_555 1_555
C17 C16 1_555 1_555
H13 C17 1_555 1_555
C18 C17 1_555 1_555
H14 C18 1_555 1_555
C19 C18 1_555 1_555
H15 C19 1_555 1_555
C20 N3 1_555 1_555
C21 N4 1_555 1_555
C22 H16 1_555 1_555
C23 N4 1_555 1_555
C24 C23 1_555 1_555
H17 C24 1_555 1_555
C25 C24 1_555 1_555
H18 C25 1_555 1_555
C26 N5 1_555 1_555
H19 C26 1_555 1_555
O7 H20 1_555 1_555
H21 O7 1_555 1_555
Zn1_2 O4 1_555 1_555
Zn1_3 N5 1_555 1_555
O4_2 Zn1 1_555 1_555
N5_2 Zn1 1_555 1_555
C7 C9 1_555 1_555
C10 C14 1_555 1_555
C13 C14 1_555 1_555
C19 C20 1_555 1_555
C20 C21 1_555 1_555
C22 C23 1_555 1_555
C25 C26 1_555 1_555

#END
