
#######################################################################
#
#                 Cambridge Crystallographic Data Centre
#                                CCDC 
#
#######################################################################
#
# If this CIF has been generated from an entry in the Cambridge 
# Structural Database, then it will include bibliographic, chemical, 
# crystal, experimental, refinement or atomic coordinate data resulting 
# from the CCDC's data processing and validation procedures.
#
#######################################################################

data_BOYREO
_symmetry_cell_setting           monoclinic
_symmetry_space_group_name_H-M   'C 2/c'
_symmetry_Int_Tables_number      15
_space_group_name_Hall           '-C 2yn'
loop_
_symmetry_equiv_pos_site_id
_symmetry_equiv_pos_as_xyz
1 x,y,z
2 -x,y,1/2-z
3 1/2+x,1/2+y,z
4 1/2-x,1/2+y,1/2-z
5 -x,-y,-z
6 x,-y,1/2+z
7 1/2-x,1/2-y,-z
8 1/2+x,1/2-y,1/2+z
_cell_length_a                   32.5011(18)
_cell_length_b                   10.1399(6)
_cell_length_c                   26.5688(15)
_cell_angle_alpha                90
_cell_angle_beta                 125.0380(10)
_cell_angle_gamma                90
_cell_volume                     7169.13
loop_
_atom_site_label
_atom_site_type_symbol
_atom_site_fract_x
_atom_site_fract_y
_atom_site_fract_z
Cd1 Cd 0.927763(10) 0.05864(2) 0.130023(11)
O1 O 1.01569(10) 0.0844(3) 0.19181(13)
H1 H 1.0374 0.0229 0.2083
H2 H 1.0203 0.1340 0.2204
N1 N 0.82064(11) 0.2890(3) -0.05117(13)
O2 O 0.93555(11) 0.2173(2) 0.19530(11)
C1 C 0.92251(13) 0.3243(3) 0.16599(16)
Cd2 Cd 0.817288(10) 0.32044(2) 0.030755(11)
O3 O 0.90375(9) 0.3285(2) 0.10919(11)
N2 N 0.84998(12) 0.4797(3) -0.14412(14)
H3 H 0.8754 0.5260 -0.1170
C2 C 0.93078(13) 0.4499(3) 0.20094(15)
O4 O 0.92596(11) 0.9214(2) 0.20004(12)
N3 N 0.86431(12) 0.7341(3) -0.17543(13)
C3 C 0.94250(14) 0.4465(3) 0.25980(16)
H4 H 0.9463 0.3653 0.2783
O5 O 0.93350(10) 0.8249(2) 0.13177(12)
N4 N 0.90508(14) 0.9383(3) -0.09215(15)
H5 H 0.8959(14) 0.868(4) -0.0869(17)
C4 C 0.94875(14) 0.5617(3) 0.29232(16)
O6 O 0.79769(10) 0.4604(2) 0.08150(12)
C5 C 0.96355(19) 0.5575(4) 0.3575(2)
H6 H 0.9658 0.4674 0.3699
H7 H 0.9387 0.6028 0.3597
H8 H 0.9956 0.5997 0.3842
N5 N 0.93809(12) 1.0881(3) 0.05205(13)
O7 O 0.82301(9) 0.5583(2) 0.02956(11)
C6 C 0.94290(14) 0.6822(3) 0.26302(17)
H9 H 0.9456 0.7605 0.2829
O8 O 0.84181(9) 1.0700(2) 0.05312(11)
C7 C 0.93326(13) 0.6871(3) 0.20512(16)
C8 C 0.93065(13) 0.8187(3) 0.17721(17)
O9 O 0.77908(9) 1.15787(19) 0.05128(10)
C9 C 0.92734(13) 0.5705(3) 0.17391(16)
H10 H 0.9211 0.5733 0.1351
O10 O 0.79238(13) 0.4475(3) -0.24589(13)
C10 C 0.80730(13) 0.5636(3) 0.06365(15)
O11 O 0.91183(18) 1.0586(3) -0.15880(15)
C11 C 0.79857(12) 0.6940(3) 0.08229(15)
C12 C 0.80889(12) 0.8131(3) 0.06469(14)
H11 H 0.8237 0.8124 0.0434
C13 C 0.79699(12) 0.9312(3) 0.07909(14)
C14 C 0.80654(13) 1.0605(3) 0.05997(14)
C15 C 0.77570(14) 0.9327(3) 0.11203(16)
H12 H 0.7676 1.0130 0.1212
C16 C 0.76633(16) 0.8157(3) 0.13140(18)
C17 C 0.7417(2) 0.8164(4) 0.1651(3)
H13 H 0.7387 0.7275 0.1750
H14 H 0.7090 0.8554 0.1395
H15 H 0.7619 0.8667 0.2023
C18 C 0.77814(14) 0.6976(3) 0.11591(17)
H16 H 0.7722 0.6187 0.1285
C19 C 0.83563(13) 0.3858(3) -0.07185(16)
H17 H 0.8466 0.4651 -0.0504
C20 C 0.80390(14) 0.1766(3) -0.08285(17)
H18 H 0.7925 0.1105 -0.0695
C21 C 0.80293(16) 0.1550(4) -0.13481(18)
H19 H 0.7913 0.0753 -0.1558
C22 C 0.81945(16) 0.2531(4) -0.15547(17)
H20 H 0.8199 0.2395 -0.1898
C23 C 0.83527(14) 0.3714(4) -0.12405(16)
C24 C 0.82594(16) 0.5134(4) -0.20394(18)
C25 C 0.84116(14) 0.6400(4) -0.21843(16)
C26 C 0.82833(15) 0.6550(4) -0.27796(17)
H21 H 0.8129 0.5865 -0.3062
C27 C 0.83869(16) 0.7716(4) -0.29425(18)
H22 H 0.8306 0.7835 -0.3337
C28 C 0.86149(15) 0.8720(4) -0.25114(17)
H23 H 0.8683 0.9530 -0.2613
C29 C 0.87386(15) 0.8485(4) -0.19267(17)
C30 C 0.89902(17) 0.9587(4) -0.14638(19)
C31 C 0.96644(16) 1.1903(4) 0.05704(19)
H24 H 0.9798 1.2464 0.0907
C32 C 0.91864(14) 1.0093(4) 0.00277(16)
H25 H 0.8986 0.9390 -0.0012
C33 C 0.92688(14) 1.0275(4) -0.04241(17)
C34 C 0.95684(17) 1.1334(4) -0.0360(2)
H26 H 0.9635 1.1488 -0.0652
C35 C 0.97644(18) 1.2149(4) 0.0143(2)
H27 H 0.9964 1.2863 0.0193
Cd1_2 Cd 0.927763(10) 1.05864(2) 0.130023(11)
Cd2_2 Cd 0.817288(10) 1.32044(2) 0.030755(11)
Cd2F Cd 0.682712(10) 1.17956(2) -0.030755(11)
O4_2 O 0.92596(11) -0.0786(2) 0.20004(12)
O5_2 O 0.93350(10) -0.1751(2) 0.13177(12)
N5_2 N 0.93809(12) 0.0881(3) 0.05205(13)
O8_2 O 0.84181(9) 0.0700(2) 0.05312(11)
O9_2 O 0.77908(9) 0.15787(19) 0.05128(10)
O9F O 0.72092(9) 0.34213(19) -0.05128(10)
O12 O 0.89158(14) 0.6971(3) 0.02109(16)
H28 H 0.9070 0.7350 0.0559
H29 H 0.8654 0.6610 0.0149
O13 O 0.93676(15) 0.5787(5) -0.02489(17)
H30 H 0.9592 0.6290 0.0031
H31 H 0.9438 0.5002 -0.0113
loop_
_geom_bond_atom_site_label_1
_geom_bond_atom_site_label_2
_geom_bond_site_symmetry_1
_geom_bond_site_symmetry_2
Cd1 O1 1_555 1_555
O1 H1 1_555 1_555
H2 O1 1_555 1_555
N1 Cd2 1_555 1_555
O2 Cd1 1_555 1_555
C1 O2 1_555 1_555
Cd2 O3 1_555 1_555
O3 Cd1 1_555 1_555
N2 H3 1_555 1_555
C2 C1 1_555 1_555
O4 C8 1_555 1_555
N3 C25 1_555 1_555
C3 C2 1_555 1_555
H4 C3 1_555 1_555
O5 C8 1_555 1_555
N4 H5 1_555 1_555
C4 C3 1_555 1_555
O6 Cd2 1_555 1_555
C5 C4 1_555 1_555
H6 C5 1_555 1_555
H7 C5 1_555 1_555
H8 C5 1_555 1_555
N5 C31 1_555 1_555
O7 Cd2 1_555 1_555
C6 C4 1_555 1_555
H9 C6 1_555 1_555
O8 C14 1_555 1_555
C7 C6 1_555 1_555
C8 C7 1_555 1_555
O9 C14 1_555 1_555
C9 C2 1_555 1_555
H10 C9 1_555 1_555
O10 C24 1_555 1_555
C10 O6 1_555 1_555
O11 C30 1_555 1_555
C11 C10 1_555 1_555
C12 C11 1_555 1_555
H11 C12 1_555 1_555
C13 C12 1_555 1_555
C14 C13 1_555 1_555
C15 C13 1_555 1_555
H12 C15 1_555 1_555
C16 C15 1_555 1_555
C17 C16 1_555 1_555
H13 C17 1_555 1_555
H14 C17 1_555 1_555
H15 C17 1_555 1_555
C18 C11 1_555 1_555
H16 C18 1_555 1_555
C19 N1 1_555 1_555
H17 C19 1_555 1_555
C20 N1 1_555 1_555
H18 C20 1_555 1_555
C21 C20 1_555 1_555
H19 C21 1_555 1_555
C22 C21 1_555 1_555
H20 C22 1_555 1_555
C23 N2 1_555 1_555
C24 N2 1_555 1_555
C25 C24 1_555 1_555
C26 C25 1_555 1_555
H21 C26 1_555 1_555
C27 C26 1_555 1_555
H22 C27 1_555 1_555
C28 C27 1_555 1_555
H23 C28 1_555 1_555
C29 N3 1_555 1_555
C30 N4 1_555 1_555
C31 H24 1_555 1_555
C32 N5 1_555 1_555
H25 C32 1_555 1_555
C33 N4 1_555 1_555
C34 C33 1_555 1_555
H26 C34 1_555 1_555
C35 C31 1_555 1_555
H27 C35 1_555 1_555
O12 H28 1_555 1_555
H29 O12 1_555 1_555
O13 H30 1_555 1_555
H31 O13 1_555 1_555
Cd1_2 O4 1_555 1_555
Cd2_2 O8 1_555 1_555
Cd2F O9 1_555 1_555
O4_2 Cd1 1_555 1_555
O5_2 Cd1 1_555 1_555
N5_2 Cd1 1_555 1_555
O8_2 Cd1 1_555 1_555
O9_2 Cd2 1_555 1_555
O9F Cd2 1_555 1_555
C1 O3 1_555 1_555
Cd2 O8_2 1_555 1_555
O5 Cd1_2 1_555 1_555
N5 Cd1_2 1_555 1_555
O7 C10 1_555 1_555
O8 Cd1_2 1_555 1_555
C7 C9 1_555 1_555
O9 Cd2_2 1_555 1_555
C16 C18 1_555 1_555
C19 C23 1_555 1_555
C22 C23 1_555 1_555
C28 C29 1_555 1_555
C29 C30 1_555 1_555
C32 C33 1_555 1_555
C34 C35 1_555 1_555

#END
