
#######################################################################
#
#                 Cambridge Crystallographic Data Centre
#                                CCDC 
#
#######################################################################
#
# If this CIF has been generated from an entry in the Cambridge 
# Structural Database, then it will include bibliographic, chemical, 
# crystal, experimental, refinement or atomic coordinate data resulting 
# from the CCDC's data processing and validation procedures.
#
#######################################################################

data_BOYRAK
_symmetry_cell_setting           monoclinic
_symmetry_space_group_name_H-M   'P 21/n'
_symmetry_Int_Tables_number      14
_space_group_name_Hall           '-P 2yn'
loop_
_symmetry_equiv_pos_site_id
_symmetry_equiv_pos_as_xyz
1 x,y,z
2 1/2-x,1/2+y,1/2-z
3 -x,-y,-z
4 1/2+x,1/2-y,1/2+z
_cell_length_a                   8.3368(19)
_cell_length_b                   13.053(3)
_cell_length_c                   23.142(6)
_cell_angle_alpha                90
_cell_angle_beta                 91.144(5)
_cell_angle_gamma                90
_cell_volume                     2517.82
loop_
_atom_site_label
_atom_site_type_symbol
_atom_site_fract_x
_atom_site_fract_y
_atom_site_fract_z
Zn1 Zn 0.26861(6) 0.30729(4) 0.82645(2)
N1 N 0.3692(4) 0.1681(3) 0.84380(15)
O1 O 0.4111(4) 0.4137(3) 0.79583(14)
C1 C 0.5283(6) 0.4344(3) 0.8297(2)
N2 N 0.6546(5) 0.0782(3) 0.95179(16)
H1 H 0.6863 0.1392 0.9604
O2 O 0.5613(4) 0.3834(3) 0.87354(17)
C2 C 0.6250(5) 0.5301(3) 0.81725(19)
H2 H 0.7223 0.5296 0.8417
N3 N 0.8166(4) 0.1448(3) 1.04294(15)
O3 O 0.5198(4) 0.7120(2) 0.66491(14)
C3 C 0.6733(6) 0.5367(3) 0.7547(2)
H3 H 0.5781 0.5311 0.7301
H4 H 0.7429 0.4794 0.7460
N4 N 0.8349(5) 0.3522(3) 1.05257(16)
H5 H 0.8052 0.3185 1.0223
O4 O 0.3967(4) 0.7931(2) 0.73383(14)
C4 C 0.7601(6) 0.6367(4) 0.7410(2)
H6 H 0.8612 0.6391 0.7625
H7 H 0.7834 0.6389 0.7002
N5 N 0.7915(4) 0.6211(3) 1.09723(15)
O5 O 0.6953(4) -0.0890(2) 0.97804(14)
C5 C 0.6588(5) 0.7292(3) 0.7567(2)
H8 H 0.7277 0.7896 0.7532
O6 O 0.9428(6) 0.3327(3) 1.14297(17)
C6 C 0.5166(5) 0.7446(3) 0.71479(19)
C7 C 0.6094(6) 0.7236(3) 0.8195(2)
H9 H 0.7040 0.7297 0.8444
H10 H 0.5390 0.7807 0.8279
C8 C 0.5239(6) 0.6241(3) 0.83295(19)
H11 H 0.4228 0.6218 0.8115
H12 H 0.5005 0.6219 0.8738
C9 C 0.4718(5) 0.1611(3) 0.88839(18)
H13 H 0.4948 0.2202 0.9094
C10 C 0.3363(5) 0.0823(3) 0.81377(19)
H14 H 0.2653 0.0859 0.7823
C11 C 0.4040(6) -0.0106(4) 0.8278(2)
H15 H 0.3785 -0.0685 0.8061
C12 C 0.5096(6) -0.0179(3) 0.8742(2)
H16 H 0.5553 -0.0804 0.8845
C13 C 0.5463(5) 0.0707(3) 0.90525(18)
C14 C 0.7163(5) 0.0021(3) 0.98521(18)
C15 C 0.8182(5) 0.0436(3) 1.03469(18)
C16 C 0.9078(6) -0.0224(3) 1.06897(18)
H17 H 0.9083 -0.0924 1.0615
C17 C 0.9962(6) 0.0177(4) 1.11437(19)
H18 H 1.0592 -0.0248 1.1378
C18 C 0.9908(6) 0.1209(4) 1.1248(2)
H19 H 1.0463 0.1491 1.1563
C19 C 0.9004(6) 0.1830(3) 1.08750(19)
C20 C 0.8958(6) 0.2971(4) 1.0974(2)
C21 C 0.8153(6) 0.4591(3) 1.05067(19)
C22 C 0.7951(7) 0.5068(4) 0.9974(2)
H20 H 0.7939 0.4686 0.9635
C23 C 0.7769(7) 0.6117(4) 0.9956(2)
H21 H 0.7646 0.6451 0.9603
C24 C 0.7770(6) 0.6660(4) 1.0458(2)
H22 H 0.7667 0.7369 1.0441
C25 C 0.8139(5) 0.5195(3) 1.09975(19)
H23 H 0.8290 0.4886 1.1357
Zn1A Zn 0.23139(6) 0.80729(4) 0.67355(2)
Zn1B Zn 0.73139(6) 0.69271(4) 1.17355(2)
O4A O 0.1033(4) 0.2931(2) 0.76617(14)
N5B N 0.2085(4) 0.3789(3) 0.90277(15)
O7 O 0.8022(4) 0.2857(3) 0.92933(14)
H24 H 0.7356 0.3163 0.9070
H25 H 0.8910 0.2822 0.9121
loop_
_geom_bond_atom_site_label_1
_geom_bond_atom_site_label_2
_geom_bond_site_symmetry_1
_geom_bond_site_symmetry_2
Zn1 N1 1_555 1_555
N1 C9 1_555 1_555
O1 Zn1 1_555 1_555
C1 O1 1_555 1_555
N2 H1 1_555 1_555
O2 C1 1_555 1_555
C2 C1 1_555 1_555
H2 C2 1_555 1_555
N3 C15 1_555 1_555
O3 C6 1_555 1_555
C3 C2 1_555 1_555
H3 C3 1_555 1_555
H4 C3 1_555 1_555
N4 H5 1_555 1_555
O4 C6 1_555 1_555
C4 C3 1_555 1_555
H6 C4 1_555 1_555
H7 C4 1_555 1_555
N5 C24 1_555 1_555
O5 C14 1_555 1_555
C5 C4 1_555 1_555
H8 C5 1_555 1_555
O6 C20 1_555 1_555
C6 C5 1_555 1_555
C7 C5 1_555 1_555
H9 C7 1_555 1_555
H10 C7 1_555 1_555
C8 C2 1_555 1_555
H11 C8 1_555 1_555
H12 C8 1_555 1_555
C9 H13 1_555 1_555
C10 N1 1_555 1_555
H14 C10 1_555 1_555
C11 C10 1_555 1_555
H15 C11 1_555 1_555
C12 C11 1_555 1_555
H16 C12 1_555 1_555
C13 N2 1_555 1_555
C14 N2 1_555 1_555
C15 C14 1_555 1_555
C16 C15 1_555 1_555
H17 C16 1_555 1_555
C17 C16 1_555 1_555
H18 C17 1_555 1_555
C18 C17 1_555 1_555
H19 C18 1_555 1_555
C19 N3 1_555 1_555
C20 N4 1_555 1_555
C21 N4 1_555 1_555
C22 C21 1_555 1_555
H20 C22 1_555 1_555
C23 C22 1_555 1_555
H21 C23 1_555 1_555
C24 C23 1_555 1_555
H22 C24 1_555 1_555
C25 N5 1_555 1_555
H23 C25 1_555 1_555
O7 H24 1_555 1_555
H25 O7 1_555 1_555
Zn1A O4 1_555 1_555
Zn1B N5 1_555 1_555
O4A Zn1 1_555 1_555
N5B Zn1 1_555 1_555
C7 C8 1_555 1_555
C9 C13 1_555 1_555
C12 C13 1_555 1_555
C18 C19 1_555 1_555
C19 C20 1_555 1_555
C21 C25 1_555 1_555

#END
