
#######################################################################
#
#                 Cambridge Crystallographic Data Centre
#                                CCDC 
#
#######################################################################
#
# If this CIF has been generated from an entry in the Cambridge 
# Structural Database, then it will include bibliographic, chemical, 
# crystal, experimental, refinement or atomic coordinate data resulting 
# from the CCDC's data processing and validation procedures.
#
#######################################################################

data_BOYRIS
_symmetry_cell_setting           triclinic
_symmetry_space_group_name_H-M   'P -1'
_symmetry_Int_Tables_number      2
_space_group_name_Hall           '-P 1'
loop_
_symmetry_equiv_pos_site_id
_symmetry_equiv_pos_as_xyz
1 x,y,z
2 -x,-y,-z
_cell_length_a                   10.2497(8)
_cell_length_b                   10.7550(8)
_cell_length_c                   12.2615(9)
_cell_angle_alpha                82.7650(10)
_cell_angle_beta                 86.8670(10)
_cell_angle_gamma                86.9950(10)
_cell_volume                     1337.47
loop_
_atom_site_label
_atom_site_type_symbol
_atom_site_fract_x
_atom_site_fract_y
_atom_site_fract_z
Cd1 Cd 0.63837(2) 0.13397(2) 0.519301(18)
O1 O 0.7842(2) 0.0778(3) 0.6502(2)
N1 N 0.6584(3) 0.3540(3) 0.5330(2)
C1 C 0.8900(3) 0.1101(3) 0.6003(3)
O2 O 0.8953(2) 0.1510(3) 0.5012(2)
N2 N 0.7623(3) 0.5442(3) 0.7397(2)
H1 H 0.8304 0.5880 0.7380
C2 C 1.0126(3) 0.0985(3) 0.6649(3)
O3 O 1.3861(2) 0.0862(2) 0.50632(19)
N3 N 0.8748(3) 0.6122(3) 0.9164(2)
C3 C 1.1337(3) 0.1090(3) 0.6084(3)
H2 H 1.1389 0.1211 0.5319
O4 O 1.4751(2) 0.1381(2) 0.6535(2)
N4 N 1.1062(3) 0.7198(3) 0.8770(3)
H3 H 1.063(4) 0.713(4) 0.834(3)
C4 C 1.2470(3) 0.1012(3) 0.6670(3)
O5 O 1.1115(2) 0.0464(3) 0.94873(19)
H4 H 1.1854 0.0434 0.9718
C5 C 1.3778(3) 0.1089(3) 0.6053(3)
N5 N 1.3598(3) 0.8159(3) 0.6683(2)
O6 O 0.6039(3) 0.4482(3) 0.8510(2)
C6 C 1.2394(3) 0.0831(3) 0.7813(3)
H5 H 1.3150 0.0808 0.8203
O7 O 1.1274(3) 0.7188(3) 1.0609(2)
C7 C 1.1187(3) 0.0686(3) 0.8370(3)
C8 C 1.0054(3) 0.0777(3) 0.7791(3)
H6 H 0.924(4) 0.075(3) 0.815(3)
C9 C 0.6945(3) 0.3881(3) 0.6279(3)
H7 H 0.7007 0.3274 0.6887
C10 C 0.6499(4) 0.4427(4) 0.4464(3)
H8 H 0.6237 0.4203 0.3803
C11 C 0.6781(5) 0.5655(4) 0.4507(3)
H9 H 0.6717 0.6245 0.3887
C12 C 0.7162(4) 0.6001(4) 0.5488(3)
H10 H 0.7367 0.6824 0.5536
C13 C 0.7230(3) 0.5104(3) 0.6389(3)
C14 C 0.7002(3) 0.5124(3) 0.8383(3)
C15 C 0.7563(3) 0.5632(3) 0.9329(3)
C16 C 0.6879(4) 0.5538(4) 1.0339(3)
H11 H 0.6052 0.5212 1.0425
C17 C 0.7454(4) 0.5940(4) 1.1215(3)
H12 H 0.7005 0.5907 1.1897
C18 C 0.8690(4) 0.6389(3) 1.1079(3)
H13 H 0.9111 0.6620 1.1671
C19 C 0.9294(3) 0.6488(3) 1.0026(3)
C20 C 1.0642(3) 0.6997(3) 0.9842(3)
C21 C 1.2459(3) 0.7837(3) 0.7210(3)
H14 H 1.1736 0.7803 0.6791
C22 C 1.2298(3) 0.7552(3) 0.8341(3)
C23 C 1.3384(4) 0.7607(4) 0.8963(3)
H15 H 1.3321 0.7428 0.9725
C24 C 1.4558(4) 0.7934(4) 0.8422(3)
H16 H 1.5295 0.7973 0.8825
C25 C 1.4646(3) 0.8202(3) 0.7294(3)
H17 H 1.5446 0.8418 0.6946
Cd1_2 Cd 1.63837(2) 0.13397(2) 0.519301(18)
Cd1A Cd 1.36163(2) -0.13397(2) 0.480699(18)
Cd1A_2 Cd 1.36163(2) 0.86603(2) 0.480699(18)
O3_2 O 0.3861(2) 0.0862(2) 0.50632(19)
O3A O 0.6139(2) -0.0862(2) 0.49368(19)
O4_2 O 0.4751(2) 0.1381(2) 0.6535(2)
N5A N 0.6402(3) 0.1841(3) 0.3317(2)
O8 O 1.0756(4) 0.2346(4) 0.3209(3)
H18 H 1.0524 0.2032 0.3645
H19 H 1.0360 0.2976 0.3200
O9 O 1.5358(4) 0.1778(4) 0.8677(3)
H20 H 1.6089 0.1511 0.8414
H21 H 1.5188 0.2504 0.8342
O10 O 1.3437(8) 0.0350(8) 1.0346(7)
H22 H 1.4151 -0.0054 1.0501
H23 H 1.3620 0.1091 1.0077
O11 O 0.7582(6) -0.1210(7) 0.8078(10)
H24 H 0.8254 -0.0770 0.8016
H25 H 0.7089 -0.0927 0.7559
loop_
_geom_bond_atom_site_label_1
_geom_bond_atom_site_label_2
_geom_bond_site_symmetry_1
_geom_bond_site_symmetry_2
Cd1 O1 1_555 1_555
O1 C1 1_555 1_555
N1 Cd1 1_555 1_555
C1 O2 1_555 1_555
O2 Cd1 1_555 1_555
N2 H1 1_555 1_555
C2 C1 1_555 1_555
O3 C5 1_555 1_555
N3 C15 1_555 1_555
C3 C2 1_555 1_555
H2 C3 1_555 1_555
O4 C5 1_555 1_555
N4 H3 1_555 1_555
C4 C3 1_555 1_555
O5 H4 1_555 1_555
C5 C4 1_555 1_555
N5 C21 1_555 1_555
O6 C14 1_555 1_555
C6 C4 1_555 1_555
H5 C6 1_555 1_555
O7 C20 1_555 1_555
C7 O5 1_555 1_555
C8 C2 1_555 1_555
H6 C8 1_555 1_555
C9 N1 1_555 1_555
H7 C9 1_555 1_555
C10 N1 1_555 1_555
H8 C10 1_555 1_555
C11 C10 1_555 1_555
H9 C11 1_555 1_555
C12 C11 1_555 1_555
H10 C12 1_555 1_555
C13 N2 1_555 1_555
C14 N2 1_555 1_555
C15 C14 1_555 1_555
C16 C15 1_555 1_555
H11 C16 1_555 1_555
C17 C16 1_555 1_555
H12 C17 1_555 1_555
C18 C17 1_555 1_555
H13 C18 1_555 1_555
C19 N3 1_555 1_555
C20 N4 1_555 1_555
C21 H14 1_555 1_555
C22 N4 1_555 1_555
C23 C22 1_555 1_555
H15 C23 1_555 1_555
C24 C23 1_555 1_555
H16 C24 1_555 1_555
C25 N5 1_555 1_555
H17 C25 1_555 1_555
O8 H18 1_555 1_555
H19 O8 1_555 1_555
O9 H20 1_555 1_555
H21 O9 1_555 1_555
O10 H22 1_555 1_555
H23 O10 1_555 1_555
O11 H24 1_555 1_555
H25 O11 1_555 1_555
Cd1_2 O3 1_555 1_555
Cd1A O3 1_555 1_555
Cd1A_2 N5 1_555 1_555
O3_2 Cd1 1_555 1_555
O3A Cd1 1_555 1_555
O4_2 Cd1 1_555 1_555
N5A Cd1 1_555 1_555
O4 Cd1_2 1_555 1_555
C6 C7 1_555 1_555
C7 C8 1_555 1_555
C9 C13 1_555 1_555
C12 C13 1_555 1_555
C18 C19 1_555 1_555
C19 C20 1_555 1_555
C21 C22 1_555 1_555
C24 C25 1_555 1_555

#END
