
#######################################################################
#
#                 Cambridge Crystallographic Data Centre
#                                CCDC 
#
#######################################################################
#
# If this CIF has been generated from an entry in the Cambridge 
# Structural Database, then it will include bibliographic, chemical, 
# crystal, experimental, refinement or atomic coordinate data resulting 
# from the CCDC's data processing and validation procedures.
#
#######################################################################

data_BOYRUE
_symmetry_cell_setting           monoclinic
_symmetry_space_group_name_H-M   'P 2/c'
_symmetry_Int_Tables_number      13
_space_group_name_Hall           '-P 2yc'
loop_
_symmetry_equiv_pos_site_id
_symmetry_equiv_pos_as_xyz
1 x,y,z
2 -x,y,1/2-z
3 -x,-y,-z
4 x,-y,1/2+z
_cell_length_a                   18.3912(8)
_cell_length_b                   8.8675(4)
_cell_length_c                   19.1316(8)
_cell_angle_alpha                90
_cell_angle_beta                 98.1130(10)
_cell_angle_gamma                90
_cell_volume                     3088.83
loop_
_atom_site_label
_atom_site_type_symbol
_atom_site_fract_x
_atom_site_fract_y
_atom_site_fract_z
Cd1 Cd 0.0000 0.14988(3) 0.2500
O1 O -0.17624(11) -0.0659(2) 0.20593(12)
C1 C -0.12089(15) -0.0972(3) 0.17890(14)
N1 N -0.21304(12) 0.3890(2) 0.31234(12)
Cd2 Cd -0.192840(9) 0.16017(2) 0.253947(9)
C2 C -0.12156(14) -0.2336(3) 0.13042(14)
H1 H -0.1152 -0.1943 0.0838
N2 N -0.35221(12) 0.5836(3) 0.40015(12)
H2 H -0.3504 0.6272 0.4405
O2 O -0.06332(14) -0.0232(3) 0.18576(15)
O3 O -0.19851(11) -0.7108(2) 0.14915(10)
N3 N -0.47356(12) 0.6736(3) 0.45747(12)
C3 C -0.05635(14) -0.3380(3) 0.15277(16)
H3 H -0.0606 -0.3812 0.1986
H4 H -0.0112 -0.2801 0.1571
N4 N -0.44851(12) 0.8235(3) 0.57858(12)
H5 H -0.4174 0.7846 0.5541
O4 O -0.08335(11) -0.6765(2) 0.19626(10)
C4 C -0.05317(15) -0.4648(3) 0.09909(16)
H6 H -0.0428 -0.4221 0.0549
H7 H -0.0134 -0.5331 0.1163
O5 O 0.08338(9) 0.1546(2) 0.17125(9)
N5 N -0.31676(11) 0.9036(3) 0.73347(12)
C5 C -0.12490(14) -0.5527(3) 0.08608(12)
H8 H -0.1221 -0.6188 0.0455
C6 C -0.13594(14) -0.6537(3) 0.14844(12)
O6 O 0.17144(10) 0.0418(2) 0.12535(10)
C7 C -0.18991(15) -0.4461(3) 0.06575(14)
H9 H -0.1859 -0.4007 0.0203
H10 H -0.2352 -0.5036 0.0610
C8 C -0.19295(14) -0.3219(3) 0.12040(15)
H11 H -0.2336 -0.2546 0.1049
H12 H -0.2011 -0.3663 0.1650
C9 C -0.27477(15) 0.4194(3) 0.33906(14)
H13 H -0.3120 0.3476 0.3344
O7 O -0.42622(13) 0.4795(4) 0.30879(13)
O8 O -0.57050(12) 0.8606(3) 0.57975(13)
C10 C -0.15970(16) 0.4925(3) 0.31996(16)
H14 H -0.1162 0.4716 0.3023
C11 C -0.16641(18) 0.6285(4) 0.35287(18)
H15 H -0.1285 0.6988 0.3564
C12 C -0.22988(16) 0.6594(3) 0.38053(16)
H16 H -0.2351 0.7501 0.4037
C13 C -0.28570(14) 0.5539(3) 0.37350(14)
C14 C -0.41825(16) 0.5460(4) 0.36463(16)
C15 C -0.48422(15) 0.5934(4) 0.39785(15)
C16 C -0.55316(16) 0.5524(4) 0.36444(16)
H17 H -0.5584 0.4955 0.3232
C17 C -0.61362(17) 0.5980(4) 0.39391(18)
H18 H -0.6606 0.5727 0.3726
C18 C -0.60395(16) 0.6813(4) 0.45502(17)
H19 H -0.6441 0.7128 0.4758
C19 C -0.53283(15) 0.7174(4) 0.48521(15)
C20 C -0.51997(16) 0.8087(4) 0.55216(16)
C21 C -0.40992(18) 1.0896(4) 0.72782(18)
H20 H -0.4284 1.1753 0.7471
C22 C -0.44813(17) 1.0234(4) 0.66842(17)
H21 H -0.4923 1.0639 0.6469
C23 C -0.41906(14) 0.8955(3) 0.64179(14)
C24 C -0.35403(14) 0.8387(3) 0.67692(14)
H22 H -0.3354 0.7505 0.6601
C25 C -0.34437(16) 1.0284(4) 0.75837(16)
H23 H -0.3185 1.0755 0.7976
C26 C 0.10569(14) 0.0757(3) 0.12285(13)
C27 C 0.04762(18) 0.0204(4) 0.06523(19)
H24 H 0.0189 -0.0461 0.0918
C28 C -0.00837(16) 0.1387(3) 0.03958(14)
H25 H -0.0293 0.1781 0.0797
H26 H 0.0161 0.2213 0.0192
C29 C -0.06949(19) 0.0819(4) -0.01439(18)
H27 H -0.1055 0.0321 0.0101
H28 H -0.0934 0.1678 -0.0392
O5B O -0.08338(9) -0.1546(2) -0.17125(9)
O6B O -0.17144(10) -0.0418(2) -0.12535(10)
C26B C -0.10569(14) -0.0757(3) -0.12285(13)
C27B C -0.04762(18) -0.0204(4) -0.06523(19)
H24B H -0.0189 0.0461 -0.0918
C28B C 0.00837(16) -0.1387(3) -0.03958(14)
H25B H 0.0293 -0.1781 -0.0797
H26B H -0.0161 -0.2213 -0.0192
C29B C 0.06949(19) -0.0819(4) 0.01439(18)
H27B H 0.1055 -0.0321 -0.0101
H28B H 0.0934 -0.1678 0.0392
O1A O 0.17624(11) -0.0659(2) 0.29407(12)
C1A C 0.12089(15) -0.0972(3) 0.32110(14)
N1A N 0.21304(12) 0.3890(2) 0.18766(12)
Cd2A Cd 0.192840(9) 0.16017(2) 0.246053(9)
C2A C 0.12156(14) -0.2336(3) 0.36958(14)
H1A H 0.1152 -0.1943 0.4162
N2A N 0.35221(12) 0.5836(3) 0.09985(12)
H2A H 0.3504 0.6272 0.0595
O2A O 0.06332(14) -0.0232(3) 0.31424(15)
O3A O 0.19851(11) -0.7108(2) 0.35085(10)
N3A N 0.47356(12) 0.6736(3) 0.04253(12)
C3A C 0.05635(14) -0.3380(3) 0.34723(16)
H3A H 0.0606 -0.3812 0.3014
H4A H 0.0112 -0.2801 0.3429
N4A N 0.44851(12) 0.8235(3) -0.07858(12)
H5A H 0.4174 0.7846 -0.0541
O4A O 0.08335(11) -0.6765(2) 0.30374(10)
C4A C 0.05317(15) -0.4648(3) 0.40091(16)
H6A H 0.0428 -0.4221 0.4451
H7A H 0.0134 -0.5331 0.3837
N5A N 0.31676(11) 0.9036(3) -0.23347(12)
C5A C 0.12490(14) -0.5527(3) 0.41392(12)
H8A H 0.1221 -0.6188 0.4545
C6A C 0.13594(14) -0.6537(3) 0.35156(12)
C7A C 0.18991(15) -0.4461(3) 0.43425(14)
H9A H 0.1859 -0.4007 0.4797
H10A H 0.2352 -0.5036 0.4390
C8A C 0.19295(14) -0.3219(3) 0.37960(15)
H11A H 0.2336 -0.2546 0.3951
H12A H 0.2011 -0.3663 0.3350
C9A C 0.27477(15) 0.4194(3) 0.16094(14)
H13A H 0.3120 0.3476 0.1656
O7A O 0.42622(13) 0.4795(4) 0.19121(13)
O8A O 0.57050(12) 0.8606(3) -0.07975(13)
C10A C 0.15970(16) 0.4925(3) 0.18004(16)
H14A H 0.1162 0.4716 0.1977
C11A C 0.16641(18) 0.6285(4) 0.14713(18)
H15A H 0.1285 0.6988 0.1436
C12A C 0.22988(16) 0.6594(3) 0.11947(16)
H16A H 0.2351 0.7501 0.0963
C13A C 0.28570(14) 0.5539(3) 0.12650(14)
C14A C 0.41825(16) 0.5460(4) 0.13537(16)
C15A C 0.48422(15) 0.5934(4) 0.10215(15)
C16A C 0.55316(16) 0.5524(4) 0.13556(16)
H17A H 0.5584 0.4955 0.1768
C17A C 0.61362(17) 0.5980(4) 0.10609(18)
H18A H 0.6606 0.5727 0.1274
C18A C 0.60395(16) 0.6813(4) 0.04498(17)
H19A H 0.6441 0.7128 0.0242
C19A C 0.53283(15) 0.7174(4) 0.01479(15)
C20A C 0.51997(16) 0.8087(4) -0.05216(16)
C21A C 0.40992(18) 1.0896(4) -0.22782(18)
H20A H 0.4284 1.1753 -0.2471
C22A C 0.44813(17) 1.0234(4) -0.16842(17)
H21A H 0.4923 1.0639 -0.1469
C23A C 0.41906(14) 0.8955(3) -0.14179(14)
C24A C 0.35403(14) 0.8387(3) -0.17692(14)
H22A H 0.3354 0.7505 -0.1601
C25A C 0.34437(16) 1.0284(4) -0.25837(16)
H23A H 0.3185 1.0755 -0.2976
Cd1_2 Cd 0.0000 -0.85012(3) 0.2500
Cd1B Cd 0.0000 -0.14988(3) -0.2500
Cd2_2 Cd -0.192840(9) -0.83983(2) 0.253947(9)
Cd2A_2 Cd 0.192840(9) -0.83983(2) 0.246053(9)
Cd2B Cd 0.192840(9) 0.83983(2) -0.253947(9)
Cd2C Cd -0.192840(9) -0.16017(2) -0.246053(9)
Cd2C_2 Cd -0.192840(9) 0.83983(2) 0.753947(9)
O3_2 O -0.19851(11) 0.2892(2) 0.14915(10)
O3A_2 O 0.19851(11) 0.2892(2) 0.35085(10)
O4_2 O -0.08335(11) 0.3235(2) 0.19626(10)
O4A_2 O 0.08335(11) 0.3235(2) 0.30374(10)
O5A O -0.08338(9) 0.1546(2) 0.32875(9)
N5B N 0.31676(11) 0.0964(3) 0.26653(12)
N5C N -0.31676(11) 0.0964(3) 0.23347(12)
O6A O -0.17144(10) 0.0418(2) 0.37465(10)
O9 O -0.30377(11) -0.7760(3) 0.02584(11)
H29 H -0.2934 -0.8671 0.0103
H30 H -0.2737 -0.7642 0.0575
O10 O -0.28166(14) -1.0497(3) -0.03652(14)
H31 H -0.3002 -1.1374 -0.0425
H32 H -0.2499 -1.0402 -0.0645
loop_
_geom_bond_atom_site_label_1
_geom_bond_atom_site_label_2
_geom_bond_site_symmetry_1
_geom_bond_site_symmetry_2
Cd1 O2 1_555 1_555
O1 C1 1_555 1_555
C1 C2 1_555 1_555
N1 Cd2 1_555 1_555
Cd2 O1 1_555 1_555
C2 H1 1_555 1_555
N2 H2 1_555 1_555
O2 C1 1_555 1_555
O3 C6 1_555 1_555
N3 C15 1_555 1_555
C3 C2 1_555 1_555
H3 C3 1_555 1_555
H4 C3 1_555 1_555
N4 H5 1_555 1_555
O4 C6 1_555 1_555
C4 C3 1_555 1_555
H6 C4 1_555 1_555
H7 C4 1_555 1_555
O5 Cd1 1_555 1_555
N5 C24 1_555 1_555
C5 C4 1_555 1_555
H8 C5 1_555 1_555
C6 C5 1_555 1_555
O6 C26 1_555 1_555
C7 C5 1_555 1_555
H9 C7 1_555 1_555
H10 C7 1_555 1_555
C8 C2 1_555 1_555
H11 C8 1_555 1_555
H12 C8 1_555 1_555
C9 N1 1_555 1_555
H13 C9 1_555 1_555
O7 C14 1_555 1_555
O8 C20 1_555 1_555
C10 N1 1_555 1_555
H14 C10 1_555 1_555
C11 C10 1_555 1_555
H15 C11 1_555 1_555
C12 C11 1_555 1_555
H16 C12 1_555 1_555
C13 N2 1_555 1_555
C14 N2 1_555 1_555
C15 C14 1_555 1_555
C16 C15 1_555 1_555
H17 C16 1_555 1_555
C17 C16 1_555 1_555
H18 C17 1_555 1_555
C18 C17 1_555 1_555
H19 C18 1_555 1_555
C19 N3 1_555 1_555
C20 N4 1_555 1_555
C21 H20 1_555 1_555
C22 C21 1_555 1_555
H21 C22 1_555 1_555
C23 N4 1_555 1_555
C24 C23 1_555 1_555
H22 C24 1_555 1_555
C25 N5 1_555 1_555
H23 C25 1_555 1_555
C26 O5 1_555 1_555
C27 C26 1_555 1_555
H24 C27 1_555 1_555
C28 C27 1_555 1_555
H25 C28 1_555 1_555
H26 C28 1_555 1_555
C29 C28 1_555 1_555
H27 C29 1_555 1_555
H28 C29 1_555 1_555
O9 H29 1_555 1_555
H30 O9 1_555 1_555
O10 H31 1_555 1_555
H32 O10 1_555 1_555
O5B C26B 1_555 1_555
O6B C26B 1_555 1_555
C26B C27B 1_555 1_555
C27B C29 1_555 1_555
H24B C27B 1_555 1_555
C28B C27B 1_555 1_555
H25B C28B 1_555 1_555
H26B C28B 1_555 1_555
C29B C27 1_555 1_555
H27B C29B 1_555 1_555
H28B C29B 1_555 1_555
O1A C1A 1_555 1_555
C1A C2A 1_555 1_555
N1A Cd2A 1_555 1_555
Cd2A O5 1_555 1_555
C2A H1A 1_555 1_555
N2A H2A 1_555 1_555
O2A Cd1 1_555 1_555
O3A C6A 1_555 1_555
N3A C15A 1_555 1_555
C3A C2A 1_555 1_555
H3A C3A 1_555 1_555
H4A C3A 1_555 1_555
N4A H5A 1_555 1_555
O4A C6A 1_555 1_555
C4A C3A 1_555 1_555
H6A C4A 1_555 1_555
H7A C4A 1_555 1_555
N5A C24A 1_555 1_555
C5A C4A 1_555 1_555
H8A C5A 1_555 1_555
C6A C5A 1_555 1_555
C7A C5A 1_555 1_555
H9A C7A 1_555 1_555
H10A C7A 1_555 1_555
C8A C2A 1_555 1_555
H11A C8A 1_555 1_555
H12A C8A 1_555 1_555
C9A N1A 1_555 1_555
H13A C9A 1_555 1_555
O7A C14A 1_555 1_555
O8A C20A 1_555 1_555
C10A N1A 1_555 1_555
H14A C10A 1_555 1_555
C11A C10A 1_555 1_555
H15A C11A 1_555 1_555
C12A C11A 1_555 1_555
H16A C12A 1_555 1_555
C13A N2A 1_555 1_555
C14A N2A 1_555 1_555
C15A C14A 1_555 1_555
C16A C15A 1_555 1_555
H17A C16A 1_555 1_555
C17A C16A 1_555 1_555
H18A C17A 1_555 1_555
C18A C17A 1_555 1_555
H19A C18A 1_555 1_555
C19A N3A 1_555 1_555
C20A N4A 1_555 1_555
C21A H20A 1_555 1_555
C22A C21A 1_555 1_555
H21A C22A 1_555 1_555
C23A N4A 1_555 1_555
C24A C23A 1_555 1_555
H22A C24A 1_555 1_555
C25A N5A 1_555 1_555
H23A C25A 1_555 1_555
Cd1_2 O4 1_555 1_555
Cd1B O5B 1_555 1_555
Cd2_2 O3 1_555 1_555
Cd2A_2 O3A 1_555 1_555
Cd2B N5A 1_555 1_555
Cd2C O5B 1_555 1_555
Cd2C_2 N5 1_555 1_555
O3_2 Cd2 1_555 1_555
O3A_2 Cd2A 1_555 1_555
O4_2 Cd1 1_555 1_555
O4A_2 Cd1 1_555 1_555
O5A Cd1 1_555 1_555
N5B Cd2A 1_555 1_555
N5C Cd2 1_555 1_555
O6A Cd2 1_555 1_555
Cd2 O5A 1_555 1_555
O6 Cd2A 1_555 1_555
C7 C8 1_555 1_555
C9 C13 1_555 1_555
C12 C13 1_555 1_555
C18 C19 1_555 1_555
C19 C20 1_555 1_555
C21 C25 1_555 1_555
C22 C23 1_555 1_555
O6B Cd2C 1_555 1_555
C28B C29B 1_555 1_555
O1A Cd2A 1_555 1_555
C1A O2A 1_555 1_555
O4A Cd1_2 1_555 1_555
C7A C8A 1_555 1_555
C9A C13A 1_555 1_555
C12A C13A 1_555 1_555
C18A C19A 1_555 1_555
C19A C20A 1_555 1_555
C21A C25A 1_555 1_555
C22A C23A 1_555 1_555

#END
