
#######################################################################
#
#                 Cambridge Crystallographic Data Centre
#                                CCDC 
#
#######################################################################
#
# If this CIF has been generated from an entry in the Cambridge 
# Structural Database, then it will include bibliographic, chemical, 
# crystal, experimental, refinement or atomic coordinate data resulting 
# from the CCDC's data processing and validation procedures.
#
#######################################################################

data_BOYSIT
_symmetry_cell_setting           monoclinic
_symmetry_space_group_name_H-M   'P c'
_symmetry_Int_Tables_number      7
_space_group_name_Hall           'P -2yc'
loop_
_symmetry_equiv_pos_site_id
_symmetry_equiv_pos_as_xyz
1 x,y,z
2 x,-y,1/2+z
_cell_length_a                   13.6499(8)
_cell_length_b                   10.8242(6)
_cell_length_c                   10.2100(6)
_cell_angle_alpha                90
_cell_angle_beta                 109.3590(10)
_cell_angle_gamma                90
_cell_volume                     1423.23
loop_
_atom_site_label
_atom_site_type_symbol
_atom_site_fract_x
_atom_site_fract_y
_atom_site_fract_z
Zn1 Zn 0.33305(4) 0.38413(3) -0.53683(5)
N1 N 0.2643(3) 0.2655(3) -0.4339(3)
C1 C 0.4902(3) 0.5270(4) -0.4074(5)
O1 O 0.4568(3) 0.4251(3) -0.3771(3)
O2 O 0.4484(3) 0.5784(4) -0.5204(3)
N2 N 0.2991(3) 0.1958(3) -0.0716(3)
H1 H 0.2937 0.2658 -0.0347
C2 C 0.5805(3) 0.5847(4) -0.3000(4)
N3 N 0.4024(3) 0.2611(3) 0.3618(3)
O3 O 1.2222(2) 0.5495(3) 0.4608(3)
C3 C 0.6277(3) 0.6900(4) -0.3320(4)
H2 H 0.6027 0.7228 -0.4211
O4 O 1.2097(3) 0.4206(4) 0.2894(3)
N4 N 0.6783(2) -0.0303(3) 0.4120(3)
H3 H 0.6581 -0.0298 0.3228
C4 C 0.7091(3) 0.7448(4) -0.2353(4)
H4 H 0.7408 0.8134 -0.2587
O5 O 0.8233(2) 0.7630(2) -0.0031(4)
C5 C 0.7451(3) 0.6986(3) -0.1018(5)
N5 N 0.8613(4) -0.2908(4) 0.5136(6)
O6 O 0.3451(3) -0.0018(2) -0.0246(4)
C6 C 0.7018(4) 0.5964(4) -0.0659(5)
H5 H 0.7270 0.5658 0.0243
O7 O 0.6482(2) 0.0462(3) 0.6009(3)
C7 C 0.6190(3) 0.5379(4) -0.1658(4)
H6 H 0.5896 0.4673 -0.1424
C8 C 0.9080(3) 0.6985(3) 0.0770(5)
C9 C 0.9453(3) 0.7243(4) 0.2197(5)
H7 H 0.9117 0.7814 0.2580
C10 C 1.0316(3) 0.6642(4) 0.3011(4)
H8 H 1.0569 0.6815 0.3956
C11 C 1.0824(3) 0.5790(4) 0.2476(4)
C12 C 1.1783(3) 0.5127(4) 0.3391(5)
C13 C 1.0471(3) 0.5542(4) 0.1066(4)
H9 H 1.0815 0.4973 0.0691
C14 C 0.9593(4) 0.6157(4) 0.0215(5)
H10 H 0.9354 0.6005 -0.0735
C15 C 0.3000(3) 0.2649(3) -0.2946(4)
H11 H 0.3534 0.3186 -0.2482
C16 C 0.1856(4) 0.1879(4) -0.4983(5)
H12 H 0.1592 0.1892 -0.5947
C17 C 0.1427(5) 0.1079(4) -0.4294(6)
H13 H 0.0891 0.0552 -0.4778
C18 C 0.2599(4) 0.1873(3) -0.2182(4)
C19 C 0.3436(3) 0.1038(3) 0.0131(4)
C20 C 0.3936(3) 0.1394(3) 0.1633(4)
C21 C 0.3571(3) 0.2331(3) 0.2258(4)
H14 H 0.2997 0.2784 0.1732
C22 C 0.4862(3) 0.1970(4) 0.4355(4)
H15 H 0.5182 0.2173 0.5285
C23 C 0.5277(4) 0.1015(3) 0.3799(5)
C24 C 0.4803(3) 0.0715(3) 0.2436(4)
H16 H 0.5053 0.0065 0.2042
C25 C 0.6236(3) 0.0374(3) 0.4745(4)
C26 C 0.7667(3) -0.1024(3) 0.4828(4)
C27 C 0.8490(3) -0.0536(4) 0.5911(5)
H17 H 0.8444 0.0278 0.6177
C28 C 0.9339(3) -0.1179(4) 0.6586(6)
H18 H 0.9876 -0.0823 0.7303
C29 C 0.9396(4) -0.2315(5) 0.6216(6)
H19 H 0.9988 -0.2765 0.6690
C30 C 0.7747(4) -0.2210(4) 0.4422(5)
H20 H 0.7225 -0.2549 0.3673
C31 C 0.1807(4) 0.1070(4) -0.2867(5)
H21 H 0.1534 0.0531 -0.2368
Zn1_2 Zn 0.33305(4) 0.38413(3) 0.46317(5)
Zn1_3 Zn 1.33305(4) 0.38413(3) 0.46317(5)
N3_2 N 0.4024(3) 0.2611(3) -0.6382(3)
O3_2 O 0.2222(2) 0.5495(3) -0.5392(3)
O4_2 O 0.2097(3) 0.4206(4) -0.7106(3)
loop_
_geom_bond_atom_site_label_1
_geom_bond_atom_site_label_2
_geom_bond_site_symmetry_1
_geom_bond_site_symmetry_2
Zn1 N1 1_555 1_555
N1 C15 1_555 1_555
C1 O1 1_555 1_555
O1 Zn1 1_555 1_555
O2 C1 1_555 1_555
N2 H1 1_555 1_555
C2 C1 1_555 1_555
N3 C21 1_555 1_555
O3 C12 1_555 1_555
C3 C2 1_555 1_555
H2 C3 1_555 1_555
O4 C12 1_555 1_555
N4 H3 1_555 1_555
C4 C3 1_555 1_555
H4 C4 1_555 1_555
O5 C5 1_555 1_555
C5 C4 1_555 1_555
N5 C29 1_555 1_555
O6 C19 1_555 1_555
C6 C5 1_555 1_555
H5 C6 1_555 1_555
O7 C25 1_555 1_555
C7 C2 1_555 1_555
H6 C7 1_555 1_555
C8 O5 1_555 1_555
C9 C8 1_555 1_555
H7 C9 1_555 1_555
C10 C9 1_555 1_555
H8 C10 1_555 1_555
C11 C10 1_555 1_555
C12 C11 1_555 1_555
C13 C11 1_555 1_555
H9 C13 1_555 1_555
C14 C8 1_555 1_555
H10 C14 1_555 1_555
C15 H11 1_555 1_555
C16 N1 1_555 1_555
H12 C16 1_555 1_555
C17 C16 1_555 1_555
H13 C17 1_555 1_555
C18 N2 1_555 1_555
C19 N2 1_555 1_555
C20 C19 1_555 1_555
C21 C20 1_555 1_555
H14 C21 1_555 1_555
C22 N3 1_555 1_555
H15 C22 1_555 1_555
C23 C22 1_555 1_555
C24 C20 1_555 1_555
H16 C24 1_555 1_555
C25 N4 1_555 1_555
C26 N4 1_555 1_555
C27 C26 1_555 1_555
H17 C27 1_555 1_555
C28 C27 1_555 1_555
H18 C28 1_555 1_555
C29 C28 1_555 1_555
H19 C29 1_555 1_555
C30 N5 1_555 1_555
H20 C30 1_555 1_555
C31 C17 1_555 1_555
H21 C31 1_555 1_555
Zn1_2 N3 1_555 1_555
Zn1_3 O3 1_555 1_555
N3_2 Zn1 1_555 1_555
O3_2 Zn1 1_555 1_555
O4_2 Zn1 1_555 1_555
O4 Zn1_3 1_555 1_555
C6 C7 1_555 1_555
C13 C14 1_555 1_555
C15 C18 1_555 1_555
C18 C31 1_555 1_555
C23 C24 1_555 1_555
C23 C25 1_555 1_555
C26 C30 1_555 1_555

#END
