
#######################################################################
#
#                 Cambridge Crystallographic Data Centre
#                                CCDC 
#
#######################################################################
#
# If this CIF has been generated from an entry in the Cambridge 
# Structural Database, then it will include bibliographic, chemical, 
# crystal, experimental, refinement or atomic coordinate data resulting 
# from the CCDC's data processing and validation procedures.
#
#######################################################################

data_BOYSUF
_symmetry_cell_setting           monoclinic
_symmetry_space_group_name_H-M   'P 21/n'
_symmetry_Int_Tables_number      14
_space_group_name_Hall           '-P 2yn'
loop_
_symmetry_equiv_pos_site_id
_symmetry_equiv_pos_as_xyz
1 x,y,z
2 1/2-x,1/2+y,1/2-z
3 -x,-y,-z
4 1/2+x,1/2-y,1/2+z
_cell_length_a                   9.0966(4)
_cell_length_b                   14.8607(6)
_cell_length_c                   21.9149(9)
_cell_angle_alpha                90
_cell_angle_beta                 98.2150(10)
_cell_angle_gamma                90
_cell_volume                     2932.1
loop_
_atom_site_label
_atom_site_type_symbol
_atom_site_fract_x
_atom_site_fract_y
_atom_site_fract_z
Cd1 Cd 0.64334(2) -0.143136(11) 0.206266(9)
N1 N 0.8647(2) -0.16363(14) 0.17008(10)
O1 O 0.6563(2) 0.01625(13) 0.16966(10)
C1 C 0.9435(3) -0.23968(18) 0.17826(13)
H1 H 0.9074 -0.2871 0.1995
O2 O 0.4539(2) -0.04225(13) 0.19634(12)
N2 N 1.0933(2) -0.02413(15) 0.08520(10)
H2 H 1.0499 0.0254 0.0924
C2 C 1.0758(4) -0.2494(2) 0.15621(15)
H3 H 1.1278 -0.3033 0.1625
O3 O 0.4956(2) 0.75141(13) 0.14546(10)
C3 C 1.1337(3) -0.1798(2) 0.12453(14)
H4 H 1.2246 -0.1856 0.1102
N3 N 1.3728(4) 0.1663(3) -0.03278(15)
O4 O 0.6134(3) 0.70485(13) 0.23419(10)
N4 N 0.9653(3) 0.28283(15) 0.06074(10)
H5 H 0.9419 0.2278 0.0666
C4 C 1.0508(3) -0.10136(17) 0.11513(11)
O5 O 0.2256(2) 0.35791(11) 0.15543(11)
N5 N 0.8195(3) 0.38884(15) 0.18902(11)
C5 C 0.9175(3) -0.09701(17) 0.13918(11)
H6 H 0.8622 -0.0443 0.1333
C6 C 1.1951(3) -0.0198(2) 0.04643(12)
O6 O 1.2632(3) -0.08528(16) 0.03103(11)
O7 O 1.0827(3) 0.37230(14) -0.00175(11)
C7 C 1.2224(3) 0.0722(2) 0.02146(11)
C8 C 1.3409(3) 0.0823(2) -0.01145(14)
H7 H 1.3983 0.0329 -0.0190
C9 C 1.2792(4) 0.2368(2) -0.02263(13)
H8 H 1.2957 0.2942 -0.0371
C10 C 1.1602(3) 0.22063(19) 0.00944(11)
C11 C 1.1340(2) 0.13984(15) 0.03222(10)
H9 H 1.0563 0.1311 0.0549
C12 C 1.0646(3) 0.29868(19) 0.02130(12)
C13 C 0.8980(3) 0.34943(17) 0.09261(13)
C14 C 0.8685(3) 0.32846(18) 0.15113(12)
H10 H 0.8834 0.2695 0.1649
C15 C 0.7947(4) 0.4730(2) 0.16845(15)
H11 H 0.7634 0.5161 0.1946
C16 C 0.8144(4) 0.4974(2) 0.10967(17)
H12 H 0.7923 0.5558 0.0960
C17 C 0.8665(4) 0.4363(2) 0.07089(15)
H13 H 0.8804 0.4526 0.0311
C18 C 0.5240(3) 0.02399(17) 0.18002(13)
C19 C 0.4492(3) 0.11348(16) 0.17422(12)
C20 C 0.5161(3) 0.18827(18) 0.15215(16)
H14 H 0.6107 0.1829 0.1410
C21 C 0.4447(3) 0.27058(18) 0.14637(15)
H15 H 0.4902 0.3199 0.1308
C22 C 0.3065(3) 0.27900(16) 0.16380(12)
C23 C 0.2383(3) 0.20594(17) 0.18666(13)
H16 H 0.1448 0.2120 0.1987
C24 C 0.3098(3) 0.12401(17) 0.19156(12)
H17 H 0.2635 0.0748 0.2068
C25 C 0.3039(3) 0.43838(16) 0.16235(13)
C26 C 0.2823(4) 0.50055(19) 0.11525(15)
H18 H 0.2194 0.4877 0.0790
C27 C 0.3553(4) 0.58199(18) 0.12263(14)
H19 H 0.3416 0.6241 0.0909
C28 C 0.4485(3) 0.60220(15) 0.17646(11)
C29 C 0.4675(3) 0.53870(17) 0.22340(12)
H20 H 0.5300 0.5513 0.2598
C30 C 0.3945(3) 0.45704(17) 0.21654(13)
H21 H 0.4066 0.4150 0.2483
C31 C 0.5245(3) 0.69169(16) 0.18588(13)
Cd1_2 Cd 0.64334(2) 0.856864(11) 0.206266(9)
Cd1A Cd 0.85666(2) 0.356864(11) 0.293734(9)
O3_2 O 0.4956(2) -0.24859(13) 0.14546(10)
O4_2 O 0.6134(3) -0.29515(13) 0.23419(10)
N5A N 0.6805(3) -0.11116(15) 0.31098(11)
O8 O 0.6604(3) -0.38872(14) 0.40120(11)
H22 H 0.7174 -0.4162 0.3742
H23 H 0.7153 -0.3826 0.4401
loop_
_geom_bond_atom_site_label_1
_geom_bond_atom_site_label_2
_geom_bond_site_symmetry_1
_geom_bond_site_symmetry_2
Cd1 N1 1_555 1_555
N1 C1 1_555 1_555
O1 Cd1 1_555 1_555
C1 H1 1_555 1_555
O2 Cd1 1_555 1_555
N2 H2 1_555 1_555
C2 C1 1_555 1_555
H3 C2 1_555 1_555
O3 C31 1_555 1_555
C3 C2 1_555 1_555
H4 C3 1_555 1_555
N3 C8 1_555 1_555
O4 C31 1_555 1_555
N4 H5 1_555 1_555
C4 N2 1_555 1_555
O5 C22 1_555 1_555
N5 C14 1_555 1_555
C5 N1 1_555 1_555
H6 C5 1_555 1_555
C6 N2 1_555 1_555
O6 C6 1_555 1_555
O7 C12 1_555 1_555
C7 C6 1_555 1_555
C8 C7 1_555 1_555
H7 C8 1_555 1_555
C9 N3 1_555 1_555
H8 C9 1_555 1_555
C10 C9 1_555 1_555
C11 C7 1_555 1_555
H9 C11 1_555 1_555
C12 N4 1_555 1_555
C13 N4 1_555 1_555
C14 C13 1_555 1_555
H10 C14 1_555 1_555
C15 N5 1_555 1_555
H11 C15 1_555 1_555
C16 C15 1_555 1_555
H12 C16 1_555 1_555
C17 C13 1_555 1_555
H13 C17 1_555 1_555
C18 O1 1_555 1_555
C19 C18 1_555 1_555
C20 C19 1_555 1_555
H14 C20 1_555 1_555
C21 C20 1_555 1_555
H15 C21 1_555 1_555
C22 C21 1_555 1_555
C23 C22 1_555 1_555
H16 C23 1_555 1_555
C24 C19 1_555 1_555
H17 C24 1_555 1_555
C25 O5 1_555 1_555
C26 C25 1_555 1_555
H18 C26 1_555 1_555
C27 C26 1_555 1_555
H19 C27 1_555 1_555
C28 C27 1_555 1_555
C29 C28 1_555 1_555
H20 C29 1_555 1_555
C30 C25 1_555 1_555
H21 C30 1_555 1_555
C31 C28 1_555 1_555
O8 H22 1_555 1_555
H23 O8 1_555 1_555
Cd1_2 O3 1_555 1_555
Cd1A N5 1_555 1_555
O3_2 Cd1 1_555 1_555
O4_2 Cd1 1_555 1_555
N5A Cd1 1_555 1_555
O2 C18 1_555 1_555
C3 C4 1_555 1_555
O4 Cd1_2 1_555 1_555
C4 C5 1_555 1_555
C10 C11 1_555 1_555
C10 C12 1_555 1_555
C16 C17 1_555 1_555
C23 C24 1_555 1_555
C29 C30 1_555 1_555

#END
