
#######################################################################
#
#                 Cambridge Crystallographic Data Centre
#                                CCDC 
#
#######################################################################
#
# If this CIF has been generated from an entry in the Cambridge 
# Structural Database, then it will include bibliographic, chemical, 
# crystal, experimental, refinement or atomic coordinate data resulting 
# from the CCDC's data processing and validation procedures.
#
#######################################################################

data_BOYSOZ
_symmetry_cell_setting           triclinic
_symmetry_space_group_name_H-M   'P -1'
_symmetry_Int_Tables_number      2
_space_group_name_Hall           '-P 1'
loop_
_symmetry_equiv_pos_site_id
_symmetry_equiv_pos_as_xyz
1 x,y,z
2 -x,-y,-z
_cell_length_a                   9.8991(8)
_cell_length_b                   10.2966(8)
_cell_length_c                   12.5705(10)
_cell_angle_alpha                94.7260(10)
_cell_angle_beta                 90.3840(10)
_cell_angle_gamma                100.5600(10)
_cell_volume                     1254.98
loop_
_atom_site_label
_atom_site_type_symbol
_atom_site_fract_x
_atom_site_fract_y
_atom_site_fract_z
Cd1 Cd 0.12860(2) 0.87031(2) -0.038607(19)
O1 O -0.0874(3) 0.8573(3) 0.0230(3)
N1 N 0.2239(3) 0.9222(3) 0.1337(2)
C1 C -0.2029(4) 0.8462(3) 0.0654(3)
O2 O -0.2574(3) 0.9448(2) 0.0916(2)
C2 C -0.2816(3) 0.7118(3) 0.0849(3)
N2 N 0.1444(3) 0.8729(3) 0.4125(2)
H1 H 0.0683 0.8182 0.3992
O3 O -0.3139(3) 0.2435(3) 0.0928(3)
N3 N 0.0388(3) 0.8382(3) 0.7836(2)
C3 C -0.4165(4) 0.7024(4) 0.1184(3)
H2 H -0.4548 0.7783 0.1290
O4 O -0.1235(3) 0.3573(3) 0.0342(2)
C4 C -0.4934(3) 0.5802(4) 0.1358(3)
N4 N -0.3686(3) 0.7215(4) 0.5597(3)
H3 H -0.3232 0.7652 0.5119
O5 O -0.6268(3) 0.5763(3) 0.1651(2)
H4 H -0.6513 0.5126 0.2001
C5 C -0.4358(4) 0.4665(3) 0.1206(3)
H5 H -0.4877 0.3842 0.1324
N5 N -0.6946(5) 0.6285(5) 0.4071(4)
C6 C -0.3006(4) 0.4762(3) 0.0877(3)
O6 O 0.2801(5) 0.9880(6) 0.5442(3)
O7 O -0.3540(3) 0.6505(3) 0.7240(2)
C7 C -0.2231(3) 0.5990(3) 0.0694(3)
H6 H -0.1330 0.6056 0.0469
C8 C -0.2440(4) 0.3510(4) 0.0712(3)
C9 C 0.1603(4) 0.8884(4) 0.2234(3)
H7 H 0.0687 0.8464 0.2185
C10 C 0.3568(4) 0.9841(4) 0.1419(3)
H8 H 0.4020 1.0101 0.0804
C11 C 0.4267(4) 1.0099(5) 0.2373(3)
H9 H 0.5183 1.0521 0.2396
C12 C 0.3626(4) 0.9738(4) 0.3309(3)
H10 H 0.4100 0.9896 0.3962
C13 C 0.2242(4) 0.9129(4) 0.3237(3)
C14 C 0.1765(5) 0.9125(5) 0.5157(3)
C15 C 0.0739(4) 0.8608(4) 0.5968(3)
C16 C 0.1198(4) 0.8752(4) 0.7021(3)
H11 H 0.2115 0.9124 0.7171
C17 C -0.0922(4) 0.7856(4) 0.7607(3)
H12 H -0.1489 0.7594 0.8167
C18 C -0.1490(4) 0.7676(4) 0.6588(3)
C19 C -0.0639(4) 0.8061(4) 0.5748(3)
H13 H -0.0985 0.7953 0.5050
C20 C -0.2984(4) 0.7077(4) 0.6490(3)
C21 C -0.5093(4) 0.6714(4) 0.5366(3)
C22 C -0.5571(5) 0.6791(5) 0.4327(3)
H14 H -0.4982 0.7173 0.3819
C23 C -0.7783(5) 0.5721(5) 0.4852(4)
H15 H -0.8703 0.5382 0.4681
C24 C -0.7335(4) 0.5647(5) 0.5811(4)
H16 H -0.7923 0.5242 0.6309
C25 C -0.6031(5) 0.6151(6) 0.6082(4)
H17 H -0.5739 0.6123 0.6783
Cd1_2 Cd 0.12860(2) 0.87031(2) 0.961393(19)
Cd1A Cd -0.12860(2) 0.12969(2) 0.038607(19)
Cd1A_2 Cd -0.12860(2) 1.12969(2) 0.038607(19)
O2A O 0.2574(3) 1.0552(2) -0.0916(2)
O3A O 0.3139(3) 0.7565(3) -0.0928(3)
N3_2 N 0.0388(3) 0.8382(3) -0.2164(2)
O4A O 0.1235(3) 0.6427(3) -0.0342(2)
O8 O 0.0782(3) 0.5182(3) 0.1729(3)
H18 H 0.0009 0.4599 0.1377
H19 H 0.0673 0.4691 0.1145
O9 O -0.9424(4) 0.3666(4) 0.6655(3)
H20 H -0.9741 0.4365 0.6574
H21 H -0.9776 0.3974 0.7363
O10 O -0.2344(11) 0.7987(10) 0.3509(7)
H22 H -0.2243 0.8505 0.3012
H23 H -0.2060 0.7285 0.3286
loop_
_geom_bond_atom_site_label_1
_geom_bond_atom_site_label_2
_geom_bond_site_symmetry_1
_geom_bond_site_symmetry_2
Cd1 O1 1_555 1_555
O1 C1 1_555 1_555
N1 Cd1 1_555 1_555
C1 O2 1_555 1_555
O2 Cd1A_2 1_555 1_555
C2 C1 1_555 1_555
N2 H1 1_555 1_555
O3 C8 1_555 1_555
N3 C16 1_555 1_555
C3 C2 1_555 1_555
H2 C3 1_555 1_555
O4 C8 1_555 1_555
C4 C3 1_555 1_555
N4 H3 1_555 1_555
O5 C4 1_555 1_555
H4 O5 1_555 1_555
C5 C4 1_555 1_555
H5 C5 1_555 1_555
N5 C22 1_555 1_555
C6 C5 1_555 1_555
O6 C14 1_555 1_555
O7 C20 1_555 1_555
C7 C2 1_555 1_555
H6 C7 1_555 1_555
C8 C6 1_555 1_555
C9 N1 1_555 1_555
H7 C9 1_555 1_555
C10 N1 1_555 1_555
H8 C10 1_555 1_555
C11 C10 1_555 1_555
H9 C11 1_555 1_555
C12 C11 1_555 1_555
H10 C12 1_555 1_555
C13 N2 1_555 1_555
C14 N2 1_555 1_555
C15 C14 1_555 1_555
C16 C15 1_555 1_555
H11 C16 1_555 1_555
C17 N3 1_555 1_555
H12 C17 1_555 1_555
C18 C17 1_555 1_555
C19 C15 1_555 1_555
H13 C19 1_555 1_555
C20 N4 1_555 1_555
C21 N4 1_555 1_555
C22 C21 1_555 1_555
H14 C22 1_555 1_555
C23 N5 1_555 1_555
H15 C23 1_555 1_555
C24 C23 1_555 1_555
H16 C24 1_555 1_555
C25 C21 1_555 1_555
H17 C25 1_555 1_555
O8 H18 1_555 1_555
H19 O8 1_555 1_555
O9 H20 1_555 1_555
H21 O9 1_555 1_555
O10 H22 1_555 1_555
H23 O10 1_555 1_555
Cd1_2 N3 1_555 1_555
Cd1A O3 1_555 1_555
O2A Cd1 1_555 1_555
O3A Cd1 1_555 1_555
N3_2 Cd1 1_555 1_555
O4A Cd1 1_555 1_555
O4 Cd1A 1_555 1_555
C6 C7 1_555 1_555
C9 C13 1_555 1_555
C12 C13 1_555 1_555
C18 C19 1_555 1_555
C18 C20 1_555 1_555
C24 C25 1_555 1_555

#END
