
#######################################################################
#
#                 Cambridge Crystallographic Data Centre
#                                CCDC 
#
#######################################################################
#
# If this CIF has been generated from an entry in the Cambridge 
# Structural Database, then it will include bibliographic, chemical, 
# crystal, experimental, refinement or atomic coordinate data resulting 
# from the CCDC's data processing and validation procedures.
#
#######################################################################

data_BOYSAL
_symmetry_cell_setting           monoclinic
_symmetry_space_group_name_H-M   'C 2/c'
_symmetry_Int_Tables_number      15
_space_group_name_Hall           '-C 2yn'
loop_
_symmetry_equiv_pos_site_id
_symmetry_equiv_pos_as_xyz
1 x,y,z
2 -x,y,1/2-z
3 1/2+x,1/2+y,z
4 1/2-x,1/2+y,1/2-z
5 -x,-y,-z
6 x,-y,1/2+z
7 1/2-x,1/2-y,-z
8 1/2+x,1/2-y,1/2+z
_cell_length_a                   24.1535(11)
_cell_length_b                   9.7420(5)
_cell_length_c                   22.5279(16)
_cell_angle_alpha                90
_cell_angle_beta                 117.5900(10)
_cell_angle_gamma                90
_cell_volume                     4698.1
loop_
_atom_site_label
_atom_site_type_symbol
_atom_site_fract_x
_atom_site_fract_y
_atom_site_fract_z
Zn1 Zn -0.086360(10) 0.04141(2) 0.128942(11)
O1 O -0.08291(8) 0.17948(14) 0.19281(8)
C1 C -0.08965(9) 0.29709(19) 0.16466(11)
N1 N -0.01177(8) 0.07027(16) 0.10971(8)
O2 O -0.10305(8) 0.30826(16) 0.10511(8)
N2 N 0.15533(8) 0.08727(18) 0.22025(8)
H1 H 0.1579 0.0250 0.2485
C2 C -0.08173(9) 0.42160(19) 0.20754(10)
O3 O -0.06112(7) 0.85549(14) 0.16855(8)
C3 C -0.08833(9) 0.55281(18) 0.18002(10)
H2 H -0.0946 0.5640 0.1363
N3 N 0.34306(12) 0.2614(2) 0.40116(12)
N4 N 0.28101(8) -0.19054(17) 0.43204(8)
H3 H 0.2451 -0.1672 0.4005
C4 C -0.08533(9) 0.66648(18) 0.21874(10)
O4 O -0.14234(8) 0.87505(16) 0.18768(9)
N5 N 0.33869(8) -0.49659(17) 0.54017(8)
O5 O 0.21067(9) 0.2503(2) 0.19864(9)
C5 C -0.09742(9) 0.80911(19) 0.18982(10)
O6 O 0.37747(8) -0.10857(17) 0.50118(9)
C6 C -0.07235(10) 0.6496(2) 0.28512(11)
H4 H -0.0717 0.7261 0.3101
C7 C -0.06035(11) 0.5208(2) 0.31491(11)
C8 C -0.03870(15) 0.5049(3) 0.38902(13)
H5 H -0.0328 0.4093 0.4007
H6 H -0.0696 0.5423 0.4000
H7 H 0.0001 0.5529 0.4136
C9 C -0.06706(10) 0.4077(2) 0.27437(11)
H8 H -0.0615 0.3202 0.2927
C10 C 0.04475(9) 0.05764(18) 0.16212(10)
H9 H 0.0478 0.0216 0.2017
C11 C -0.01612(10) 0.1201(2) 0.05211(10)
H10 H -0.0554 0.1308 0.0156
C12 C 0.03570(11) 0.1555(2) 0.04580(11)
H11 H 0.0315 0.1876 0.0050
C13 C 0.09426(10) 0.1437(2) 0.09992(11)
H12 H 0.1298 0.1674 0.0961
C14 C 0.09914(9) 0.0957(2) 0.16019(10)
C15 C 0.20599(10) 0.1697(2) 0.23732(11)
C16 C 0.25626(10) 0.1555(2) 0.30801(10)
C17 C 0.29738(13) 0.2632(3) 0.33813(13)
H13 H 0.2929 0.3417 0.3128
C18 C 0.34919(11) 0.1459(2) 0.43580(12)
H14 H 0.3805 0.1424 0.4799
C19 C 0.31167(10) 0.0315(2) 0.40993(10)
C20 C 0.26478(9) 0.0369(2) 0.34475(10)
H15 H 0.2391 -0.0387 0.3257
C21 C 0.32690(10) -0.0942(2) 0.45267(10)
C22 C 0.28657(9) -0.3239(2) 0.45710(10)
C23 C 0.24146(10) -0.4181(3) 0.41977(13)
H16 H 0.2087 -0.3930 0.3787
C24 C 0.24496(12) -0.5497(3) 0.44341(15)
H17 H 0.2141 -0.6136 0.4190
C25 C 0.29493(11) -0.5857(2) 0.50396(13)
H18 H 0.2977 -0.6752 0.5195
C26 C 0.33496(9) -0.3667(2) 0.51803(10)
H19 H 0.3656 -0.3039 0.5442
Zn1_2 Zn -0.086360(10) 1.04141(2) 0.128942(11)
Zn1G Zn 0.413640(10) -0.54141(2) 0.628942(11)
O3_2 O -0.06112(7) -0.14451(14) 0.16855(8)
N5G N -0.16131(8) -0.00341(17) 0.04017(8)
loop_
_geom_bond_atom_site_label_1
_geom_bond_atom_site_label_2
_geom_bond_site_symmetry_1
_geom_bond_site_symmetry_2
Zn1 O1 1_555 1_555
O1 C1 1_555 1_555
C1 O2 1_555 1_555
N1 Zn1 1_555 1_555
N2 H1 1_555 1_555
C2 C1 1_555 1_555
O3 C5 1_555 1_555
C3 C2 1_555 1_555
H2 C3 1_555 1_555
N3 C17 1_555 1_555
N4 H3 1_555 1_555
C4 C3 1_555 1_555
O4 C5 1_555 1_555
N5 C25 1_555 1_555
O5 C15 1_555 1_555
C5 C4 1_555 1_555
O6 C21 1_555 1_555
C6 C4 1_555 1_555
H4 C6 1_555 1_555
C7 C6 1_555 1_555
C8 C7 1_555 1_555
H5 C8 1_555 1_555
H6 C8 1_555 1_555
H7 C8 1_555 1_555
C9 C2 1_555 1_555
H8 C9 1_555 1_555
C10 N1 1_555 1_555
H9 C10 1_555 1_555
C11 N1 1_555 1_555
H10 C11 1_555 1_555
C12 C11 1_555 1_555
H11 C12 1_555 1_555
C13 C12 1_555 1_555
H12 C13 1_555 1_555
C14 N2 1_555 1_555
C15 N2 1_555 1_555
C16 C15 1_555 1_555
C17 C16 1_555 1_555
H13 C17 1_555 1_555
C18 N3 1_555 1_555
H14 C18 1_555 1_555
C19 C18 1_555 1_555
C20 C16 1_555 1_555
H15 C20 1_555 1_555
C21 N4 1_555 1_555
C22 N4 1_555 1_555
C23 C22 1_555 1_555
H16 C23 1_555 1_555
C24 C23 1_555 1_555
H17 C24 1_555 1_555
C25 C24 1_555 1_555
H18 C25 1_555 1_555
C26 N5 1_555 1_555
H19 C26 1_555 1_555
Zn1_2 O3 1_555 1_555
Zn1G N5 1_555 1_555
O3_2 Zn1 1_555 1_555
N5G Zn1 1_555 1_555
C7 C9 1_555 1_555
C10 C14 1_555 1_555
C13 C14 1_555 1_555
C19 C20 1_555 1_555
C19 C21 1_555 1_555
C22 C26 1_555 1_555

#END
