
#######################################################################
#
#                 Cambridge Crystallographic Data Centre
#                                CCDC 
#
#######################################################################
#
# If this CIF has been generated from an entry in the Cambridge 
# Structural Database, then it will include bibliographic, chemical, 
# crystal, experimental, refinement or atomic coordinate data resulting 
# from the CCDC's data processing and validation procedures.
#
#######################################################################

data_BOYTIU
_symmetry_cell_setting           monoclinic
_symmetry_space_group_name_H-M   'P 21'
_symmetry_Int_Tables_number      4
_space_group_name_Hall           'P 2yb'
loop_
_symmetry_equiv_pos_site_id
_symmetry_equiv_pos_as_xyz
1 x,y,z
2 -x,1/2+y,-z
_cell_length_a                   10.3476(3)
_cell_length_b                   14.6224(5)
_cell_length_c                   18.1484(5)
_cell_angle_alpha                90
_cell_angle_beta                 93.865(2)
_cell_angle_gamma                90
_cell_volume                     2739.73
loop_
_atom_site_label
_atom_site_type_symbol
_atom_site_fract_x
_atom_site_fract_y
_atom_site_fract_z
Al1 Al 0.2062(3) 0.5774(2) -0.00773(17)
Na1 Na 0.2910(4) 0.2068(3) 0.0094(2)
C1 C 0.2900(9) 0.4111(7) 0.0372(5)
C2 C 0.1931(8) 0.3960(7) -0.0322(5)
O1 O 0.2992(6) 0.4938(5) 0.0567(4)
O2 O 0.1408(6) 0.4698(5) -0.0559(3)
O3 O 0.1773(6) 0.3189(5) -0.0588(4)
O4 O 0.3447(7) 0.3443(5) 0.0678(4)
C3 C 0.4433(9) 0.6164(7) -0.0484(5)
C4 C 0.4202(10) 0.6765(7) 0.0220(5)
O5 O 0.3417(5) 0.5780(4) -0.0738(3)
O6 O 0.3022(6) 0.6734(5) 0.0398(3)
O7 O 0.5095(6) 0.7200(5) 0.0529(4)
O8 O 0.5526(6) 0.6135(5) -0.0708(4)
C5 C -0.0387(9) 0.6082(8) 0.0263(5)
C6 C -0.0228(9) 0.6543(7) -0.0509(5)
O9 O 0.0688(5) 0.5819(4) 0.0570(3)
O10 O 0.0952(6) 0.6510(4) -0.0690(3)
O11 O -0.1149(6) 0.6893(5) -0.0863(3)
O12 O -0.1461(6) 0.6033(5) 0.0510(3)
Na1A Na -0.2910(4) 0.7068(3) -0.0094(2)
Na1A_2 Na 0.7090(4) 0.7068(3) -0.0094(2)
O7A O 0.4905(6) 0.2200(5) -0.0529(4)
O8A O 0.4474(6) 0.1135(5) 0.0708(4)
O11A O 0.1149(6) 0.1893(5) 0.0863(3)
O12A O 0.1461(6) 0.1033(5) -0.0510(3)
C7 C 1.0250(10) 0.8503(8) 0.7974(5)
H1 H 1.0580 0.8115 0.8393
H2 H 1.0943 0.8943 0.7871
C8 C 0.9106(11) 0.9025(8) 0.8204(6)
H3 H 0.9334 0.9315 0.8688
H4 H 0.8389 0.8591 0.8270
C9 C 0.8488(9) 0.9316(7) 0.6716(5)
C10 C 0.9051(10) 0.8508(7) 0.6572(5)
C11 C 0.7795(9) 0.8957(7) 0.5348(5)
C12 C 0.7210(9) 0.8950(7) 0.4654(5)
C13 C 0.6598(9) 0.8602(7) 0.3284(5)
C14 C 0.6017(9) 0.9379(7) 0.3428(5)
C15 C 0.4838(9) 0.9387(7) 0.2015(6)
H5 H 0.4132 0.8955 0.2114
H6 H 0.4530 0.9773 0.1591
C16 C 0.6006(10) 0.8840(8) 0.1801(6)
H7 H 0.6721 0.9272 0.1723
H8 H 0.5778 0.8534 0.1323
S1 S 0.9939(3) 0.7786(2) 0.71751(16)
S2 S 0.8534(3) 0.9907(2) 0.75533(17)
S3 S 0.7567(3) 0.9833(2) 0.59869(16)
S4 S 0.8832(3) 0.8072(2) 0.56739(16)
S5 S 0.7469(3) 0.8055(2) 0.40347(16)
S6 S 0.6175(3) 0.9813(2) 0.43292(16)
S7 S 0.5143(3) 1.0111(2) 0.28142(16)
S8 S 0.6584(3) 0.7993(2) 0.24530(17)
C17 C 0.9875(10) 0.5030(11) 0.7965(6)
H9 H 0.9783 0.5085 0.8503
H10 H 1.0131 0.4390 0.7870
C18 C 1.0936(10) 0.5617(11) 0.7780(5)
H11 H 1.1709 0.5451 0.8104
H12 H 1.0707 0.6255 0.7900
C19 C 0.9895(8) 0.5463(8) 0.6345(5)
C20 C 0.8707(8) 0.5311(8) 0.6593(5)
C21 C 0.8359(8) 0.5365(10) 0.5164(5)
C22 C 0.7846(8) 0.5371(8) 0.4449(4)
C23 C 0.6286(8) 0.5373(8) 0.3277(4)
C24 C 0.7482(8) 0.5512(8) 0.3035(5)
C25 C 0.6487(11) 0.5206(11) 0.1632(7)
H13 H 0.6561 0.5294 0.1095
H14 H 0.6447 0.4540 0.1726
C26 C 0.5223(12) 0.5652(12) 0.1852(6)
H15 H 0.4510 0.5481 0.1487
H16 H 0.5319 0.6325 0.1840
S9 S 0.8297(3) 0.5214(3) 0.75010(15)
S10 S 1.1378(2) 0.5590(2) 0.68440(14)
S11 S 0.9997(2) 0.5504(2) 0.53887(14)
S12 S 0.7423(2) 0.5205(2) 0.59133(14)
S13 S 0.6191(2) 0.5239(2) 0.42233(14)
S14 S 0.8769(2) 0.5525(2) 0.37048(13)
S15 S 0.7914(2) 0.5668(2) 0.21259(13)
S16 S 0.4799(2) 0.5310(2) 0.27624(13)
C29 C 0.8483(9) 0.2702(9) 0.8343(6)
H21 H 0.8488 0.3365 0.8233
H22 H 0.8423 0.2631 0.8882
C30 C 0.9733(9) 0.2303(8) 0.8139(5)
H23 H 0.9693 0.1630 0.8194
H24 H 1.0435 0.2530 0.8489
C31 C 0.8638(9) 0.2484(8) 0.6713(5)
C32 C 0.7441(9) 0.2345(8) 0.6968(5)
C33 C 0.7079(9) 0.2496(9) 0.5548(5)
C34 C 0.6542(9) 0.2503(7) 0.4822(4)
C35 C 0.5023(8) 0.2417(8) 0.3636(5)
C36 C 0.6222(9) 0.2556(9) 0.3407(5)
S17 S 0.7067(2) 0.2202(2) 0.78767(13)
S18 S 1.0148(2) 0.2569(2) 0.71951(14)
S19 S 0.8713(2) 0.2634(2) 0.57572(15)
S20 S 0.6149(2) 0.2330(2) 0.62972(14)
S21 S 0.4906(2) 0.2341(2) 0.45946(14)
S22 S 0.7480(2) 0.2671(2) 0.40871(15)
S23 S 0.6646(2) 0.2700(3) 0.24982(15)
S24 S 0.3547(2) 0.2271(2) 0.31309(14)
C37 C 0.5069(13) 0.2898(12) 0.2043(9)
H25 H 0.4762 0.3504 0.2202
H26 H 0.5170 0.2934 0.1505
C38 C 0.4007(15) 0.2198(12) 0.2169(8)
H27 H 0.4325 0.1574 0.2069
H28 H 0.3241 0.2320 0.1826
N1 N 0.7648(10) 0.3691(8) 0.0304(6)
C41 C 0.6717(16) 0.4111(11) -0.0238(7)
H33 H 0.6398 0.3649 -0.0597
H34 H 0.7142 0.4605 -0.0495
H35 H 0.5988 0.4361 0.0015
O13 O 0.8764(9) 0.3702(7) 0.0157(6)
O14 O 0.7240(8) 0.3365(6) 0.0859(4)
C27? C 0.6325(18) 0.578(2) 0.1643(13)
H17? H 0.5988 0.6398 0.1741
H18? H 0.6431 0.5738 0.1105
C28? C 0.530(2) 0.508(2) 0.1840(10)
H19? H 0.5668 0.4453 0.1821
H20? H 0.4545 0.5113 0.1477
C39? C 0.5248(14) 0.2388(13) 0.1986(9)
H29? H 0.5316 0.2582 0.1467
H30? H 0.5170 0.1713 0.1990
C40? C 0.4029(16) 0.2804(12) 0.2275(8)
H31? H 0.3309 0.2744 0.1890
H32? H 0.4178 0.3465 0.2364
loop_
_geom_bond_atom_site_label_1
_geom_bond_atom_site_label_2
_geom_bond_site_symmetry_1
_geom_bond_site_symmetry_2
Al1 O1 1_555 1_555
Na1 O3 1_555 1_555
C1 C2 1_555 1_555
C2 O2 1_555 1_555
O1 C1 1_555 1_555
O2 Al1 1_555 1_555
O3 C2 1_555 1_555
O4 Na1 1_555 1_555
C3 C4 1_555 1_555
C4 O6 1_555 1_555
O5 Al1 1_555 1_555
O6 Al1 1_555 1_555
O7 C4 1_555 1_555
O8 C3 1_555 1_555
C5 C6 1_555 1_555
C6 O10 1_555 1_555
O9 Al1 1_555 1_555
O10 Al1 1_555 1_555
O11 C6 1_555 1_555
O12 C5 1_555 1_555
C7 H1 1_555 1_555
H2 C7 1_555 1_555
C8 C7 1_555 1_555
H3 C8 1_555 1_555
H4 C8 1_555 1_555
C9 C10 1_555 1_555
C10 S1 1_555 1_555
C11 C12 1_555 1_555
C12 S5 1_555 1_555
C13 C14 1_555 1_555
C14 S6 1_555 1_555
C15 H5 1_555 1_555
H6 C15 1_555 1_555
C16 C15 1_555 1_555
H7 C16 1_555 1_555
H8 C16 1_555 1_555
S1 C7 1_555 1_555
S2 C8 1_555 1_555
S3 C9 1_555 1_555
S4 C10 1_555 1_555
S5 C13 1_555 1_555
S6 C12 1_555 1_555
S7 C14 1_555 1_555
S8 C13 1_555 1_555
C17 H9 1_555 1_555
H10 C17 1_555 1_555
C18 C17 1_555 1_555
H11 C18 1_555 1_555
H12 C18 1_555 1_555
C19 C20 1_555 1_555
C20 S9 1_555 1_555
C21 C22 1_555 1_555
C22 S13 1_555 1_555
C23 C24 1_555 1_555
C24 S14 1_555 1_555
C25 H13 1_555 1_555
H14 C25 1_555 1_555
C26 C25 1_555 1_555
H15 C26 1_555 1_555
H16 C26 1_555 1_555
S9 C17 1_555 1_555
S10 C18 1_555 1_555
S11 C19 1_555 1_555
S12 C20 1_555 1_555
S13 C23 1_555 1_555
S14 C22 1_555 1_555
S15 C24 1_555 1_555
S16 C23 1_555 1_555
C29 H21 1_555 1_555
H22 C29 1_555 1_555
C30 C29 1_555 1_555
H23 C30 1_555 1_555
H24 C30 1_555 1_555
C31 C32 1_555 1_555
C32 S17 1_555 1_555
C33 C34 1_555 1_555
C34 S21 1_555 1_555
C35 C36 1_555 1_555
C36 S22 1_555 1_555
S17 C29 1_555 1_555
S18 C30 1_555 1_555
S19 C31 1_555 1_555
S20 C32 1_555 1_555
S21 C35 1_555 1_555
S22 C34 1_555 1_555
S23 C36 1_555 1_555
S24 C35 1_555 1_555
C37 S23 1_555 1_555
H25 C37 1_555 1_555
H26 C37 1_555 1_555
C38 S24 1_555 1_555
H27 C38 1_555 1_555
H28 C38 1_555 1_555
N1 C41 1_555 1_555
C41 H33 1_555 1_555
H34 C41 1_555 1_555
H35 C41 1_555 1_555
O13 N1 1_555 1_555
O14 N1 1_555 1_555
Na1A O11 1_555 1_555
Na1A_2 O7 1_555 1_555
O7A Na1 1_555 1_555
O8A Na1 1_555 1_555
O11A Na1 1_555 1_555
O12A Na1 1_555 1_555
C1 O4 1_555 1_555
C3 O5 1_555 1_555
O8 Na1A_2 1_555 1_555
C5 O9 1_555 1_555
O12 Na1A 1_555 1_555
C9 S2 1_555 1_555
C11 S3 1_555 1_555
C11 S4 1_555 1_555
C15 S7 1_555 1_555
C16 S8 1_555 1_555
C19 S10 1_555 1_555
C21 S11 1_555 1_555
C21 S12 1_555 1_555
C25 S15 1_555 1_555
C26 S16 1_555 1_555
C31 S18 1_555 1_555
C33 S19 1_555 1_555
C33 S20 1_555 1_555
C37 C38 1_555 1_555

#END
