
#######################################################################
#
#                 Cambridge Crystallographic Data Centre
#                                CCDC 
#
#######################################################################
#
# If this CIF has been generated from an entry in the Cambridge 
# Structural Database, then it will include bibliographic, chemical, 
# crystal, experimental, refinement or atomic coordinate data resulting 
# from the CCDC's data processing and validation procedures.
#
#######################################################################

data_BOYTAM
_symmetry_cell_setting           monoclinic
_symmetry_space_group_name_H-M   'P 21/n'
_symmetry_Int_Tables_number      14
_space_group_name_Hall           '-P 2yn'
loop_
_symmetry_equiv_pos_site_id
_symmetry_equiv_pos_as_xyz
1 x,y,z
2 1/2-x,1/2+y,1/2-z
3 -x,-y,-z
4 1/2+x,1/2-y,1/2+z
_cell_length_a                   11.2572(11)
_cell_length_b                   14.7744(14)
_cell_length_c                   14.7142(14)
_cell_angle_alpha                90
_cell_angle_beta                 95.334(2)
_cell_angle_gamma                90
_cell_volume                     2436.64
loop_
_atom_site_label
_atom_site_type_symbol
_atom_site_fract_x
_atom_site_fract_y
_atom_site_fract_z
Cd1 Cd 0.29505(3) 0.29058(2) 0.79204(2)
O1 O 0.2701(3) 0.1438(2) 0.8746(3)
N1 N 0.4279(4) 0.4131(3) 0.7838(3)
C1 C 0.4111(4) 0.4779(3) 0.7202(3)
H1 H 0.3340 0.4877 0.6935
O2 O 0.4428(3) 0.2094(2) 0.8699(3)
N2 N 0.4751(3) 0.5931(3) 0.6208(3)
H2 H 0.4061 0.6185 0.6158
C2 C 0.5390(5) 0.4019(4) 0.8243(4)
H3 H 0.5525 0.3572 0.8685
O3 O 0.2384(3) 0.3518(3) 0.9331(2)
N3 N 0.5603(4) 0.7421(3) 0.3414(3)
C3 C 0.6332(5) 0.4542(4) 0.8026(4)
H4 H 0.7086 0.4453 0.8328
O4 O 0.1430(3) 0.3983(3) 0.8063(2)
C4 C 0.6163(4) 0.5195(4) 0.7364(4)
H5 H 0.6796 0.5553 0.7212
N4 N 0.1593(3) 0.7781(3) 0.4004(3)
H6 H 0.1927 0.7830 0.4551
N5 N -0.1584(3) 0.7797(2) 0.3135(3)
O5 O 0.6558(4) 0.5898(4) 0.5657(3)
C5 C 0.5020(4) 0.5312(3) 0.6922(3)
O6 O 0.1914(3) 0.7349(4) 0.2567(3)
C6 C 0.5534(4) 0.6146(4) 0.5589(4)
C7 C 0.5053(4) 0.6697(3) 0.4775(3)
C8 C 0.3866(4) 0.6877(3) 0.4519(3)
H7 H 0.3282 0.6706 0.4892
C9 C 0.3557(4) 0.7310(3) 0.3707(3)
C10 C 0.4452(4) 0.7559(4) 0.3170(3)
H8 H 0.4236 0.7837 0.2612
C11 C 0.5895(4) 0.6996(4) 0.4209(3)
H9 H 0.6698 0.6897 0.4390
C12 C 0.2281(4) 0.7477(4) 0.3355(3)
C13 C -0.0014(4) 0.8749(4) 0.4334(4)
H10 H 0.0508 0.9061 0.4749
C14 C 0.0381(4) 0.8021(3) 0.3856(3)
C15 C -0.0435(4) 0.7553(3) 0.3261(3)
H11 H -0.0175 0.7059 0.2942
C16 C -0.1191(5) 0.9006(4) 0.4186(4)
H12 H -0.1473 0.9500 0.4493
C17 C -0.1946(4) 0.8519(3) 0.3577(4)
H13 H -0.2737 0.8702 0.3470
C18 C 0.3801(4) 0.1465(3) 0.8956(4)
C19 C 0.4391(6) 0.0732(6) 0.9540(6)
C20 C 0.5593(8) 0.0589(8) 0.9446(8)
H14 H 0.6027 0.1135 0.9635
H15 H 0.5688 0.0494 0.8805
C21 C 0.6163(9) -0.0202(8) 0.9981(10)
H16 H 0.6528 -0.0576 0.9542
H17 H 0.6812 0.0049 1.0383
C22 C -0.1189(5) 0.5225(6) 0.9632(4)
H18 H -0.1529 0.5750 0.9308
H19 H -0.1835 0.4802 0.9695
C23 C -0.0317(6) 0.4786(7) 0.9044(5)
C24 C 0.0721(6) 0.4483(7) 0.9448(5)
C25 C 0.1568(4) 0.3967(4) 0.8907(4)
O1B O 0.7299(3) -0.1438(2) 1.1254(3)
O2B O 0.5572(3) -0.2094(2) 1.1301(3)
C18B C 0.6199(4) -0.1465(3) 1.1044(4)
C19B C 0.5609(6) -0.0732(6) 1.0460(6)
C20B C 0.4407(8) -0.0589(8) 1.0554(8)
H14B H 0.3973 -0.1135 1.0365
H15B H 0.4312 -0.0494 1.1195
C21B C 0.3837(9) 0.0202(8) 1.0019(10)
H16B H 0.3472 0.0576 1.0458
H17B H 0.3188 -0.0049 0.9617
O3B O -0.2384(3) 0.6482(3) 1.0669(2)
O4B O -0.1430(3) 0.6017(3) 1.1937(2)
C22B C 0.1189(5) 0.4775(6) 1.0368(4)
H18B H 0.1529 0.4250 1.0692
H19B H 0.1835 0.5198 1.0305
C23B C 0.0317(6) 0.5214(7) 1.0956(5)
C24B C -0.0721(6) 0.5517(7) 1.0552(5)
C25B C -0.1568(4) 0.6033(4) 1.1093(4)
Cd1B Cd -0.29505(3) 0.70942(2) 0.20796(2)
N1B N -0.4279(4) 0.5869(3) 0.2162(3)
C1B C -0.4111(4) 0.5221(3) 0.2798(3)
H1B H -0.3340 0.5123 0.3065
N2B N -0.4751(3) 0.4069(3) 0.3792(3)
H2B H -0.4061 0.3815 0.3842
C2B C -0.5390(5) 0.5981(4) 0.1757(4)
H3B H -0.5525 0.6428 0.1315
N3B N -0.5603(4) 0.2579(3) 0.6586(3)
C3B C -0.6332(5) 0.5458(4) 0.1974(4)
H4B H -0.7086 0.5547 0.1672
C4B C -0.6163(4) 0.4805(4) 0.2636(4)
H5B H -0.6796 0.4447 0.2788
N4B N -0.1593(3) 0.2219(3) 0.5996(3)
H6B H -0.1927 0.2170 0.5449
N5B N 0.1584(3) 0.2203(2) 0.6865(3)
O5B O -0.6558(4) 0.4102(4) 0.4343(3)
C5B C -0.5020(4) 0.4688(3) 0.3078(3)
O6B O -0.1914(3) 0.2651(4) 0.7433(3)
C6B C -0.5534(4) 0.3854(4) 0.4411(4)
C7B C -0.5053(4) 0.3303(3) 0.5225(3)
C8B C -0.3866(4) 0.3123(3) 0.5481(3)
H7B H -0.3282 0.3294 0.5108
C9B C -0.3557(4) 0.2690(3) 0.6293(3)
C10B C -0.4452(4) 0.2441(4) 0.6830(3)
H8B H -0.4236 0.2163 0.7388
C11B C -0.5895(4) 0.3004(4) 0.5791(3)
H9B H -0.6698 0.3103 0.5610
C12B C -0.2281(4) 0.2523(4) 0.6645(3)
C13B C 0.0014(4) 0.1251(4) 0.5666(4)
H10B H -0.0508 0.0939 0.5251
C14B C -0.0381(4) 0.1979(3) 0.6144(3)
C15B C 0.0435(4) 0.2447(3) 0.6739(3)
H11B H 0.0175 0.2941 0.7058
C16B C 0.1191(5) 0.0994(4) 0.5814(4)
H12B H 0.1473 0.0500 0.5507
C17B C 0.1946(4) 0.1481(3) 0.6423(4)
H13B H 0.2737 0.1298 0.6530
Cd1_2 Cd -0.70495(3) 0.29058(2) 0.79204(2)
Cd1B_2 Cd -0.29505(3) 0.70942(2) 1.20796(2)
Cd1B_3 Cd 0.70495(3) -0.29058(2) 1.20796(2)
Cd1B_4 Cd 0.70495(3) 0.70942(2) 0.20796(2)
O1B_2 O -0.2701(3) 0.8562(2) 0.1254(3)
O2B_2 O -0.4428(3) 0.7906(2) 0.1301(3)
O3B_2 O -0.2384(3) 0.6482(3) 0.0669(2)
N3_2 N -0.4397(4) 0.7421(3) 0.3414(3)
N3B_2 N 0.4397(4) 0.2579(3) 0.6586(3)
O4B_2 O -0.1430(3) 0.6017(3) 0.1937(2)
loop_
_geom_bond_atom_site_label_1
_geom_bond_atom_site_label_2
_geom_bond_site_symmetry_1
_geom_bond_site_symmetry_2
Cd1 O1 1_555 1_555
O1 C18 1_555 1_555
N1 Cd1 1_555 1_555
C1 N1 1_555 1_555
H1 C1 1_555 1_555
O2 Cd1 1_555 1_555
N2 H2 1_555 1_555
C2 N1 1_555 1_555
H3 C2 1_555 1_555
O3 Cd1 1_555 1_555
N3 C10 1_555 1_555
C3 C2 1_555 1_555
H4 C3 1_555 1_555
O4 Cd1 1_555 1_555
C4 C3 1_555 1_555
H5 C4 1_555 1_555
N4 H6 1_555 1_555
N5 C15 1_555 1_555
O5 C6 1_555 1_555
C5 C1 1_555 1_555
O6 C12 1_555 1_555
C6 N2 1_555 1_555
C7 C6 1_555 1_555
C8 C7 1_555 1_555
H7 C8 1_555 1_555
C9 C8 1_555 1_555
C10 C9 1_555 1_555
H8 C10 1_555 1_555
C11 N3 1_555 1_555
H9 C11 1_555 1_555
C12 N4 1_555 1_555
C13 H10 1_555 1_555
C14 N4 1_555 1_555
C15 C14 1_555 1_555
H11 C15 1_555 1_555
C16 C13 1_555 1_555
H12 C16 1_555 1_555
C17 N5 1_555 1_555
H13 C17 1_555 1_555
C18 O2 1_555 1_555
C19 C18 1_555 1_555
C20 C19 1_555 1_555
H14 C20 1_555 1_555
H15 C20 1_555 1_555
C21 C20 1_555 1_555
H16 C21 1_555 1_555
H17 C21 1_555 1_555
C22 H18 1_555 1_555
H19 C22 1_555 1_555
C23 C22 1_555 1_555
C24 C23 1_555 1_555
C25 O3 1_555 1_555
O1B C18B 1_555 1_555
O2B C18B 1_555 1_555
C18B C19B 1_555 1_555
C19B C21 1_555 1_555
C20B C19B 1_555 1_555
H14B C20B 1_555 1_555
H15B C20B 1_555 1_555
C21B C19 1_555 1_555
H16B C21B 1_555 1_555
H17B C21B 1_555 1_555
O3B C25B 1_555 1_555
O4B C25B 1_555 1_555
C22B C24 1_555 1_555
H18B C22B 1_555 1_555
H19B C22B 1_555 1_555
C23B C22B 1_555 1_555
C24B C22 1_555 1_555
C25B C24B 1_555 1_555
Cd1B N5 1_555 1_555
N1B Cd1B 1_555 1_555
C1B N1B 1_555 1_555
H1B C1B 1_555 1_555
N2B H2B 1_555 1_555
C2B N1B 1_555 1_555
H3B C2B 1_555 1_555
N3B C10B 1_555 1_555
C3B C2B 1_555 1_555
H4B C3B 1_555 1_555
C4B C3B 1_555 1_555
H5B C4B 1_555 1_555
N4B H6B 1_555 1_555
N5B Cd1 1_555 1_555
O5B C6B 1_555 1_555
C5B C1B 1_555 1_555
O6B C12B 1_555 1_555
C6B N2B 1_555 1_555
C7B C6B 1_555 1_555
C8B C7B 1_555 1_555
H7B C8B 1_555 1_555
C9B C8B 1_555 1_555
C10B C9B 1_555 1_555
H8B C10B 1_555 1_555
C11B N3B 1_555 1_555
H9B C11B 1_555 1_555
C12B N4B 1_555 1_555
C13B H10B 1_555 1_555
C14B N4B 1_555 1_555
C15B N5B 1_555 1_555
H11B C15B 1_555 1_555
C16B C13B 1_555 1_555
H12B C16B 1_555 1_555
C17B N5B 1_555 1_555
H13B C17B 1_555 1_555
Cd1_2 N3B 1_555 1_555
Cd1B_2 O3B 1_555 1_555
Cd1B_3 O1B 1_555 1_555
Cd1B_4 N3 1_555 1_555
O1B_2 Cd1B 1_555 1_555
O2B_2 Cd1B 1_555 1_555
O3B_2 Cd1B 1_555 1_555
N3_2 Cd1B 1_555 1_555
N3B_2 Cd1 1_555 1_555
O4B_2 Cd1B 1_555 1_555
N2 C5 1_555 1_555
O4 C25 1_555 1_555
C4 C5 1_555 1_555
C7 C11 1_555 1_555
C9 C12 1_555 1_555
C13 C14 1_555 1_555
C16 C17 1_555 1_555
C24 C25 1_555 1_555
O2B Cd1B_3 1_555 1_555
C20B C21B 1_555 1_555
O4B Cd1B_2 1_555 1_555
C23B C24B 1_555 1_555
N2B C5B 1_555 1_555
C4B C5B 1_555 1_555
C7B C11B 1_555 1_555
C9B C12B 1_555 1_555
C13B C14B 1_555 1_555
C14B C15B 1_555 1_555
C16B C17B 1_555 1_555

#END
