
#######################################################################
#
#                 Cambridge Crystallographic Data Centre
#                                CCDC 
#
#######################################################################
#
# If this CIF has been generated from an entry in the Cambridge 
# Structural Database, then it will include bibliographic, chemical, 
# crystal, experimental, refinement or atomic coordinate data resulting 
# from the CCDC's data processing and validation procedures.
#
#######################################################################

data_BOYWES
_symmetry_cell_setting           monoclinic
_symmetry_space_group_name_H-M   'P 21/c'
_symmetry_Int_Tables_number      14
_space_group_name_Hall           '-P 2ybc'
loop_
_symmetry_equiv_pos_site_id
_symmetry_equiv_pos_as_xyz
1 x,y,z
2 -x,1/2+y,1/2-z
3 -x,-y,-z
4 x,1/2-y,1/2+z
_cell_length_a                   12.494(9)
_cell_length_b                   12.254(8)
_cell_length_c                   12.352(9)
_cell_angle_alpha                90
_cell_angle_beta                 112.034(12)
_cell_angle_gamma                90
_cell_volume                     1752.99
loop_
_atom_site_label
_atom_site_type_symbol
_atom_site_fract_x
_atom_site_fract_y
_atom_site_fract_z
As1 As 0.12646(3) -0.78950(3) 0.25736(4)
As2 As 0.12818(3) -0.49736(3) 0.25733(4)
Mn1 Mn 0.13537(5) -0.19848(5) 0.28135(6)
Mn2 Mn -0.00133(5) -0.35197(5) 0.00800(5)
S1 S 0.19870(8) -0.64333(7) 0.18203(9)
S2 S -0.04099(9) -0.81177(8) 0.10514(9)
S3 S 0.06467(8) -0.70067(8) 0.38065(9)
S4 S 0.19414(8) -0.36260(8) 0.17474(9)
S5 S -0.05557(8) -0.50884(8) 0.12527(9)
N1 N 0.2420(3) -0.0772(2) 0.2290(3)
N2 N 0.3144(3) -0.2082(3) 0.4209(3)
C1 C 0.2065(4) -0.0104(3) 0.1383(4)
H1 H 0.1286 -0.0102 0.0903
C2 C 0.2815(4) 0.0600(4) 0.1114(4)
H2 H 0.2532 0.1055 0.0466
C3 C 0.3949(4) 0.0616(4) 0.1800(4)
H3 H 0.4449 0.1087 0.1630
C4 C 0.4372(4) -0.0084(3) 0.2777(4)
C5 C 0.3573(3) -0.0764(3) 0.2989(3)
C6 C 0.5566(4) -0.0156(4) 0.3520(4)
H4 H 0.6098 0.0299 0.3386
C7 C 0.5930(4) -0.0871(4) 0.4410(4)
H5 H 0.6713 -0.0915 0.4867
C8 C 0.5143(4) -0.1563(3) 0.4666(4)
C9 C 0.3953(3) -0.1490(3) 0.3976(4)
C10 C 0.5478(4) -0.2298(4) 0.5601(4)
H6 H 0.6255 -0.2389 0.6063
C11 C 0.4662(5) -0.2878(5) 0.5831(5)
H7 H 0.4875 -0.3357 0.6460
C12 C 0.3501(4) -0.2750(4) 0.5115(4)
H8 H 0.2953 -0.3153 0.5284
Mn1A Mn -0.13537(5) -0.69848(5) 0.21865(6)
Mn2B Mn 0.00133(5) -0.64803(5) -0.00800(5)
Mn2A Mn 0.00133(5) -0.85197(5) 0.49200(5)
S1B S -0.19870(8) -0.35667(7) -0.18203(9)
S2A S 0.04099(9) -0.31177(8) 0.39486(9)
S2B S 0.04099(9) -0.18823(8) -0.10514(9)
S3A S -0.06467(8) -0.20067(8) 0.11935(9)
S5A S 0.05557(8) -0.00884(8) 0.37473(9)
S5B S 0.05557(8) -0.49116(8) -0.12527(9)
loop_
_geom_bond_atom_site_label_1
_geom_bond_atom_site_label_2
_geom_bond_site_symmetry_1
_geom_bond_site_symmetry_2
As1 S1 1_555 1_555
As2 S1 1_555 1_555
Mn1 S4 1_555 1_555
Mn2 S4 1_555 1_555
S1 Mn2B 1_555 1_555
S2 As1 1_555 1_555
S3 As1 1_555 1_555
S4 As2 1_555 1_555
S5 As2 1_555 1_555
N1 Mn1 1_555 1_555
N2 Mn1 1_555 1_555
C1 N1 1_555 1_555
H1 C1 1_555 1_555
C2 C1 1_555 1_555
H2 C2 1_555 1_555
C3 C2 1_555 1_555
H3 C3 1_555 1_555
C4 C3 1_555 1_555
C5 N1 1_555 1_555
C6 C4 1_555 1_555
H4 C6 1_555 1_555
C7 C6 1_555 1_555
H5 C7 1_555 1_555
C8 C7 1_555 1_555
C9 N2 1_555 1_555
C10 C8 1_555 1_555
H6 C10 1_555 1_555
C11 C10 1_555 1_555
H7 C11 1_555 1_555
C12 N2 1_555 1_555
H8 C12 1_555 1_555
Mn1A S2 1_555 1_555
Mn2B S2 1_555 1_555
Mn2A S3 1_555 1_555
S1B Mn2 1_555 1_555
S2A Mn1 1_555 1_555
S2B Mn2 1_555 1_555
S3A Mn1 1_555 1_555
S5A Mn1 1_555 1_555
S5B Mn2 1_555 1_555
Mn2 S5 1_555 1_555
Mn2 S3A 1_555 1_555
S3 Mn1A 1_555 1_555
S5 Mn1A 1_555 1_555
S5 Mn2B 1_555 1_555
C4 C5 1_555 1_555
C5 C9 1_555 1_555
C8 C9 1_555 1_555
C11 C12 1_555 1_555
Mn2B S5B 1_555 1_555

#END
