
#######################################################################
#
#                 Cambridge Crystallographic Data Centre
#                                CCDC 
#
#######################################################################
#
# If this CIF has been generated from an entry in the Cambridge 
# Structural Database, then it will include bibliographic, chemical, 
# crystal, experimental, refinement or atomic coordinate data resulting 
# from the CCDC's data processing and validation procedures.
#
#######################################################################

data_BOYWIW
_symmetry_cell_setting           orthorhombic
_symmetry_space_group_name_H-M   'P b c n'
_symmetry_Int_Tables_number      60
_space_group_name_Hall           '-P 2n 2ab'
loop_
_symmetry_equiv_pos_site_id
_symmetry_equiv_pos_as_xyz
1 x,y,z
2 1/2-x,1/2-y,1/2+z
3 1/2+x,1/2-y,-z
4 -x,y,1/2-z
5 -x,-y,-z
6 1/2+x,1/2+y,1/2-z
7 1/2-x,1/2+y,z
8 x,-y,1/2+z
_cell_length_a                   15.191(3)
_cell_length_b                   13.450(3)
_cell_length_c                   20.991(5)
_cell_angle_alpha                90
_cell_angle_beta                 90
_cell_angle_gamma                90
_cell_volume                     4288.86
loop_
_atom_site_label
_atom_site_type_symbol
_atom_site_fract_x
_atom_site_fract_y
_atom_site_fract_z
As1 As 0.03748(3) 0.56735(3) 0.115399(19)
Mn1 Mn -0.01886(4) 0.36956(4) 0.03386(3)
Mn2 Mn 0.0000 0.44949(8) 0.2500
S1 S 0.10980(6) 0.50271(7) 0.03583(5)
S2 S -0.07110(7) 0.46625(8) 0.13389(5)
S3 S 0.11079(9) 0.57154(13) 0.20188(6)
S4 S -0.00490(10) 0.70839(8) 0.07983(6)
N1 N 0.0672(2) 0.2473(3) 0.07282(18)
N2 N -0.1092(2) 0.2421(3) 0.05758(18)
N3 N 0.0927(5) 0.3162(5) 0.2503(2)
C1 C 0.1530(3) 0.2514(4) 0.0827(2)
H1 H 0.1806 0.3131 0.0819
C2 C 0.2042(4) 0.1663(5) 0.0944(3)
H2 H 0.2646 0.1715 0.1010
C3 C 0.1644(4) 0.0777(5) 0.0957(4)
H3 H 0.1977 0.0207 0.1027
C4 C 0.0741(4) 0.0694(4) 0.0869(4)
C5 C 0.0267(3) 0.1580(3) 0.0764(2)
C6 C 0.0258(5) -0.0227(4) 0.0891(5)
H4 H 0.0562 -0.0820 0.0948
C7 C -0.0614(5) -0.0249(4) 0.0831(5)
H5 H -0.0904 -0.0857 0.0856
C8 C -0.1120(4) 0.0640(4) 0.0728(3)
C9 C -0.0678(3) 0.1547(3) 0.0686(2)
C10 C -0.2040(4) 0.0667(5) 0.0686(4)
H6 H -0.2362 0.0080 0.0714
C11 C -0.2459(4) 0.1538(4) 0.0606(3)
H7 H -0.3070 0.1561 0.0590
C12 C -0.1964(3) 0.2408(4) 0.0545(3)
H8 H -0.2260 0.3005 0.0480
C13 C 0.1788(6) 0.3220(7) 0.2574(3)
H9 H 0.2064 0.3837 0.2573
C14 C 0.2257(7) 0.2403(8) 0.2646(4)
H10 H 0.2865 0.2444 0.2695
C15 C 0.1866(8) 0.1528(6) 0.2647(4)
H11 H 0.2196 0.0952 0.2698
C16 C 0.1005(7) 0.1471(4) 0.2577(4)
C17 C 0.0396(5) 0.2270(5) 0.2519(3)
C18 C 0.0454(6) 0.0589(9) 0.2532(10)
H12 H 0.0734 -0.0025 0.2549
As1C As -0.03748(3) 0.56735(3) 0.384601(19)
Mn1C Mn 0.01886(4) 0.36956(4) 0.46614(3)
Mn1D Mn 0.01886(4) 0.63044(4) -0.03386(3)
Mn1G Mn -0.01886(4) 0.63044(4) 0.53386(3)
S1C S -0.10980(6) 0.50271(7) 0.46417(5)
S1D S -0.10980(6) 0.49729(7) -0.03583(5)
S1G S 0.10980(6) 0.49729(7) 0.53583(5)
S2C S 0.07110(7) 0.46625(8) 0.36611(5)
S3C S -0.11079(9) 0.57154(13) 0.29812(6)
S4C S 0.00490(10) 0.70839(8) 0.42017(6)
S4D S 0.00490(10) 0.29161(8) -0.07983(6)
S4G S -0.00490(10) 0.29161(8) 0.57983(6)
N1C N -0.0672(2) 0.2473(3) 0.42718(18)
N2C N 0.1092(2) 0.2421(3) 0.44242(18)
N3C N -0.0927(5) 0.3162(5) 0.2497(2)
C1C C -0.1530(3) 0.2514(4) 0.4173(2)
H1C H -0.1806 0.3131 0.4181
C2C C -0.2042(4) 0.1663(5) 0.4056(3)
H2C H -0.2646 0.1715 0.3990
C3C C -0.1644(4) 0.0777(5) 0.4043(4)
H3C H -0.1977 0.0207 0.3973
C4C C -0.0741(4) 0.0694(4) 0.4131(4)
C5C C -0.0267(3) 0.1580(3) 0.4236(2)
C6C C -0.0258(5) -0.0227(4) 0.4109(5)
H4C H -0.0562 -0.0820 0.4052
C7C C 0.0614(5) -0.0249(4) 0.4169(5)
H5C H 0.0904 -0.0857 0.4144
C8C C 0.1120(4) 0.0640(4) 0.4272(3)
C9C C 0.0678(3) 0.1547(3) 0.4314(2)
C10C C 0.2040(4) 0.0667(5) 0.4314(4)
H6C H 0.2362 0.0080 0.4286
C11C C 0.2459(4) 0.1538(4) 0.4394(3)
H7C H 0.3070 0.1561 0.4410
C12C C 0.1964(3) 0.2408(4) 0.4455(3)
H8C H 0.2260 0.3005 0.4520
C13C C -0.1788(6) 0.3220(7) 0.2426(3)
H9C H -0.2064 0.3837 0.2427
C14C C -0.2257(7) 0.2403(8) 0.2354(4)
H10C H -0.2865 0.2444 0.2305
C15C C -0.1866(8) 0.1528(6) 0.2353(4)
H11C H -0.2196 0.0952 0.2302
C16C C -0.1005(7) 0.1471(4) 0.2423(4)
C17C C -0.0396(5) 0.2270(5) 0.2481(3)
C18C C -0.0454(6) 0.0589(9) 0.2468(10)
H12C H -0.0734 -0.0025 0.2451
O1 O 0.0000 0.8015(7) 0.2500
loop_
_geom_bond_atom_site_label_1
_geom_bond_atom_site_label_2
_geom_bond_site_symmetry_1
_geom_bond_site_symmetry_2
As1 S1 1_555 1_555
Mn1 S1 1_555 1_555
Mn2 S2 1_555 1_555
S1 Mn1D 1_555 1_555
S2 As1 1_555 1_555
S3 As1 1_555 1_555
S4 As1 1_555 1_555
N1 Mn1 1_555 1_555
N2 Mn1 1_555 1_555
N3 Mn2 1_555 1_555
C1 N1 1_555 1_555
H1 C1 1_555 1_555
C2 C1 1_555 1_555
H2 C2 1_555 1_555
C3 C2 1_555 1_555
H3 C3 1_555 1_555
C4 C3 1_555 1_555
C5 N1 1_555 1_555
C6 C4 1_555 1_555
H4 C6 1_555 1_555
C7 C6 1_555 1_555
H5 C7 1_555 1_555
C8 C7 1_555 1_555
C9 N2 1_555 1_555
C10 C8 1_555 1_555
H6 C10 1_555 1_555
C11 C10 1_555 1_555
H7 C11 1_555 1_555
C12 N2 1_555 1_555
H8 C12 1_555 1_555
C13 N3 1_555 1_555
H9 C13 1_555 1_555
C14 C13 1_555 1_555
H10 C14 1_555 1_555
C15 C14 1_555 1_555
H11 C15 1_555 1_555
C16 C15 1_555 1_555
C17 N3 1_555 1_555
C18 C16 1_555 1_555
H12 C18 1_555 1_555
As1C S1C 1_555 1_555
Mn1C S1C 1_555 1_555
Mn1D S4 1_555 1_555
Mn1G S1C 1_555 1_555
S1D Mn1 1_555 1_555
S1G Mn1C 1_555 1_555
S2C Mn2 1_555 1_555
S3C Mn2 1_555 1_555
S4C As1C 1_555 1_555
S4D Mn1 1_555 1_555
S4G Mn1C 1_555 1_555
N1C Mn1C 1_555 1_555
N2C Mn1C 1_555 1_555
N3C Mn2 1_555 1_555
C1C N1C 1_555 1_555
H1C C1C 1_555 1_555
C2C C1C 1_555 1_555
H2C C2C 1_555 1_555
C3C C2C 1_555 1_555
H3C C3C 1_555 1_555
C4C C3C 1_555 1_555
C5C N1C 1_555 1_555
C6C C4C 1_555 1_555
H4C C6C 1_555 1_555
C7C C6C 1_555 1_555
H5C C7C 1_555 1_555
C8C C7C 1_555 1_555
C9C N2C 1_555 1_555
C10C C8C 1_555 1_555
H6C C10C 1_555 1_555
C11C C10C 1_555 1_555
H7C C11C 1_555 1_555
C12C N2C 1_555 1_555
H8C C12C 1_555 1_555
C13C N3C 1_555 1_555
H9C C13C 1_555 1_555
C14C C13C 1_555 1_555
H10C C14C 1_555 1_555
C15C C14C 1_555 1_555
H11C C15C 1_555 1_555
C16C C15C 1_555 1_555
C17C C17 1_555 1_555
C18C C18 1_555 1_555
H12C C18C 1_555 1_555
Mn1 S2 1_555 1_555
Mn2 S3 1_555 1_555
C4 C5 1_555 1_555
C5 C9 1_555 1_555
C8 C9 1_555 1_555
C11 C12 1_555 1_555
C16 C17 1_555 1_555
As1C S2C 1_555 1_555
As1C S3C 1_555 1_555
Mn1C S2C 1_555 1_555
Mn1D S1D 1_555 1_555
Mn1G S1G 1_555 1_555
Mn1G S4C 1_555 1_555
N3C C17C 1_555 1_555
C4C C5C 1_555 1_555
C5C C9C 1_555 1_555
C8C C9C 1_555 1_555
C11C C12C 1_555 1_555
C16C C17C 1_555 1_555
C16C C18C 1_555 1_555

#END
