
#######################################################################
#
#                 Cambridge Crystallographic Data Centre
#                                CCDC 
#
#######################################################################
#
# If this CIF has been generated from an entry in the Cambridge 
# Structural Database, then it will include bibliographic, chemical, 
# crystal, experimental, refinement or atomic coordinate data resulting 
# from the CCDC's data processing and validation procedures.
#
#######################################################################

data_BOYYEU
_symmetry_cell_setting           triclinic
_symmetry_space_group_name_H-M   'P -1'
_symmetry_Int_Tables_number      2
_space_group_name_Hall           '-P 1'
loop_
_symmetry_equiv_pos_site_id
_symmetry_equiv_pos_as_xyz
1 x,y,z
2 -x,-y,-z
_cell_length_a                   10.8588(9)
_cell_length_b                   11.5838(9)
_cell_length_c                   13.7792(11)
_cell_angle_alpha                95.4080(10)
_cell_angle_beta                 103.1510(10)
_cell_angle_gamma                108.3680(10)
_cell_volume                     1575.75
loop_
_atom_site_label
_atom_site_type_symbol
_atom_site_fract_x
_atom_site_fract_y
_atom_site_fract_z
Dy1 Dy 0.782109(11) -0.031391(11) 0.066261(8)
O1 O 1.2049(2) 0.56077(18) 0.56119(14)
O2 O 0.86722(19) 0.06004(18) 0.24937(14)
O3 O 0.9262(2) 0.1824(2) 0.14243(15)
O4 O 1.5540(2) 0.67444(19) 0.55390(15)
O5 O 1.4799(2) 0.6515(2) 0.08280(16)
O6 O 1.6589(2) 0.8242(2) 0.14166(16)
O7 O 1.3520(2) 0.85155(19) 0.50962(14)
O8 O 1.1670(2) 0.94030(19) 0.06537(14)
O9 O 0.9845(2) 0.9414(2) 0.11313(15)
O10 O 0.56083(19) -0.10264(18) -0.05741(14)
O11 O 0.35506(19) -0.08791(18) -0.09541(14)
N1 N 1.4211(2) 0.7464(2) 0.67956(16)
C1 C 1.3195(3) 0.6661(3) 0.7260(2)
H1 H 1.3641 0.6605 0.7940
H2 H 1.2513 0.7025 0.7303
C2 C 1.2542(3) 0.5388(3) 0.6616(2)
H3 H 1.3193 0.4973 0.6627
H4 H 1.1807 0.4887 0.6851
C3 C 1.1407(3) 0.4608(3) 0.4842(2)
C4 C 1.1150(3) 0.4875(3) 0.3867(2)
H5 H 1.1418 0.5690 0.3768
C5 C 1.0491(3) 0.3912(3) 0.3043(2)
H6 H 1.0321 0.4086 0.2391
C6 C 1.0082(3) 0.2684(3) 0.3187(2)
C7 C 1.0354(3) 0.2443(3) 0.4168(2)
H7 H 1.0088 0.1629 0.4269
C8 C 1.1013(3) 0.3391(3) 0.4999(2)
H8 H 1.1188 0.3216 0.5651
C9 C 0.9300(3) 0.1643(3) 0.2316(2)
C10 C 1.5611(3) 0.7440(3) 0.7200(2)
H9 H 1.5564 0.6636 0.7368
H10 H 1.6085 0.8059 0.7809
C11 C 1.6352(3) 0.7706(3) 0.6391(2)
H11 H 1.6418 0.8514 0.6223
H12 H 1.7252 0.7673 0.6614
C12 C 1.5667(3) 0.6926(3) 0.4589(2)
C13 C 1.6694(3) 0.7880(3) 0.4406(2)
H13 H 1.7363 0.8443 0.4943
C14 C 1.6709(3) 0.7982(3) 0.3412(2)
H14 H 1.7399 0.8613 0.3284
C15 C 1.5702(3) 0.7150(3) 0.2602(2)
C16 C 1.4682(3) 0.6195(3) 0.2802(2)
H15 H 1.4006 0.5638 0.2267
C17 C 1.4669(3) 0.6070(3) 0.3789(2)
H16 H 1.4000 0.5420 0.3918
C18 C 1.5699(3) 0.7315(3) 0.1537(2)
C19 C 1.4176(3) 0.8755(3) 0.6864(2)
H17 H 1.5048 0.9329 0.6864
H18 H 1.3982 0.8994 0.7490
C20 C 1.3107(3) 0.8809(3) 0.5975(2)
H19 H 1.2235 0.8215 0.5950
H20 H 1.3045 0.9629 0.6023
C21 C 1.2798(3) 0.8655(2) 0.41823(19)
C22 C 1.3333(3) 0.8495(3) 0.3374(2)
H21 H 1.4098 0.8273 0.3465
C23 C 1.2714(3) 0.8670(2) 0.2431(2)
H22 H 1.3069 0.8563 0.1890
C24 C 1.1567(3) 0.9005(2) 0.22799(19)
C25 C 1.1019(3) 0.9123(3) 0.3092(2)
H23 H 1.0236 0.9316 0.2995
C26 C 1.1633(3) 0.8954(3) 0.4044(2)
H24 H 1.1268 0.9041 0.4584
C27 C 1.0971(3) 0.9289(2) 0.12763(19)
C28 C 0.4765(3) -0.0554(2) -0.04419(19)
O12 O 0.7599(2) -0.2107(2) -0.04446(17)
H25 H 0.8151 -0.2401 -0.0323
H26 H 0.6769 -0.2813 -0.0629
Dy1_2 Dy -0.217891(11) -1.031391(11) 0.066261(8)
Dy1_3 Dy 1.782109(11) 0.968609(11) 0.066261(8)
Dy1A Dy 1.217891(11) 1.031391(11) -0.066261(8)
Dy1_4 Dy 0.782109(11) 0.968609(11) 0.066261(8)
Dy1A_2 Dy 0.217891(11) 0.031391(11) -0.066261(8)
Dy1_5 Dy -0.217891(11) -0.031391(11) 0.066261(8)
O1_2 O 0.2049(2) -0.43923(18) 0.56119(14)
O2_2 O -0.13278(19) -0.93996(18) 0.24937(14)
O3_2 O -0.0738(2) -0.8176(2) 0.14243(15)
O4_2 O 0.5540(2) -0.32556(19) 0.55390(15)
O5_2 O 0.4799(2) -0.3485(2) 0.08280(16)
O6_2 O 0.6589(2) -0.1758(2) 0.14166(16)
O6_3 O -0.3411(2) -1.1758(2) 0.14166(16)
O7_2 O 0.3520(2) -0.14845(19) 0.50962(14)
O8_2 O 0.1670(2) -0.05970(19) 0.06537(14)
O8A O 0.8330(2) 0.05970(19) -0.06537(14)
O8A_2 O -0.1670(2) -0.94030(19) -0.06537(14)
O9_2 O -0.0155(2) -0.0586(2) 0.11313(15)
O9_3 O 0.9845(2) -0.0586(2) 0.11313(15)
O9_4 O -0.0155(2) -1.0586(2) 0.11313(15)
O10A O 0.43917(19) 0.10264(18) 0.05741(14)
O10_2 O -0.43917(19) -1.10264(18) -0.05741(14)
O11A O 0.64494(19) 0.08791(18) 0.09541(14)
O11A_2 O -0.35506(19) -0.91209(18) 0.09541(14)
N1_2 N 0.4211(2) -0.2536(2) 0.67956(16)
C1_2 C 0.3195(3) -0.3339(3) 0.7260(2)
H1_2 H 0.3641 -0.3395 0.7940
H2_2 H 0.2513 -0.2975 0.7303
C2_2 C 0.2542(3) -0.4612(3) 0.6616(2)
H3_2 H 0.3193 -0.5027 0.6627
H4_2 H 0.1807 -0.5113 0.6851
C3_2 C 0.1407(3) -0.5392(3) 0.4842(2)
C4_2 C 0.1150(3) -0.5125(3) 0.3867(2)
H5_2 H 0.1418 -0.4310 0.3768
C5_2 C 0.0491(3) -0.6088(3) 0.3043(2)
H6_2 H 0.0321 -0.5914 0.2391
C6_2 C 0.0082(3) -0.7316(3) 0.3187(2)
C7_2 C 0.0354(3) -0.7557(3) 0.4168(2)
H7_2 H 0.0088 -0.8371 0.4269
C8_2 C 0.1013(3) -0.6609(3) 0.4999(2)
H8_2 H 0.1188 -0.6784 0.5651
C9_2 C -0.0700(3) -0.8357(3) 0.2316(2)
C10_2 C 0.5611(3) -0.2560(3) 0.7200(2)
H9_2 H 0.5564 -0.3364 0.7368
H10_2 H 0.6085 -0.1941 0.7809
C11_2 C 0.6352(3) -0.2294(3) 0.6391(2)
H11_2 H 0.6418 -0.1486 0.6223
H12_2 H 0.7252 -0.2327 0.6614
C12_2 C 0.5667(3) -0.3074(3) 0.4589(2)
C13_2 C 0.6694(3) -0.2120(3) 0.4406(2)
H13_2 H 0.7363 -0.1557 0.4943
C14_2 C 0.6709(3) -0.2018(3) 0.3412(2)
H14_2 H 0.7399 -0.1387 0.3284
C15_2 C 0.5702(3) -0.2850(3) 0.2602(2)
C16_2 C 0.4682(3) -0.3805(3) 0.2802(2)
H15_2 H 0.4006 -0.4362 0.2267
C17_2 C 0.4669(3) -0.3930(3) 0.3789(2)
H16_2 H 0.4000 -0.4580 0.3918
C18_2 C 0.5699(3) -0.2685(3) 0.1537(2)
C19_2 C 0.4176(3) -0.1245(3) 0.6864(2)
H17_2 H 0.5048 -0.0671 0.6864
H18_2 H 0.3982 -0.1006 0.7490
C20_2 C 0.3107(3) -0.1191(3) 0.5975(2)
H19_2 H 0.2235 -0.1785 0.5950
H20_2 H 0.3045 -0.0371 0.6023
C21_2 C 0.2798(3) -0.1345(2) 0.41823(19)
C22_2 C 0.3333(3) -0.1505(3) 0.3374(2)
H21_2 H 0.4098 -0.1727 0.3465
C23_2 C 0.2714(3) -0.1330(2) 0.2431(2)
H22_2 H 0.3069 -0.1437 0.1890
C24_2 C 0.1567(3) -0.0995(2) 0.22799(19)
C25_2 C 0.1019(3) -0.0877(3) 0.3092(2)
H23_2 H 0.0236 -0.0684 0.2995
C26_2 C 0.1633(3) -0.1046(3) 0.4044(2)
H24_2 H 0.1268 -0.0959 0.4584
C27_2 C 0.0971(3) -0.0711(2) 0.12763(19)
C28A C 0.5235(3) 0.0554(2) 0.04419(19)
O12_2 O -0.2401(2) -1.2107(2) -0.04446(17)
H25_2 H -0.1849 -1.2401 -0.0323
H26_2 H -0.3231 -1.2813 -0.0629
O13 O 0.5257(3) -0.4076(2) -0.09665(17)
H27 H 0.5102 -0.3842 -0.0390
H28 H 0.5249 -0.4879 -0.0998
O14 O 0.9447 -0.3243 -0.0205
H29 H 0.9956 -0.2816 -0.0552
H30 H 0.9237 -0.4153 -0.0480
O15 O 1.1499 0.5637 0.1204
H31 H 1.1866 0.5982 0.0704
H32 H 1.0790 0.6009 0.1142
O16 O 0.2430(3) -0.3411(3) -0.0403(2)
H33 H 0.2422 -0.2603 -0.0664
H34 H 0.3387 -0.3200 0.0008
O17 O 1.0964(4) 0.4208(3) 0.8360(3)
H35 H 1.1645 0.5025 0.8781
H36 H 1.0629 0.3764 0.8951
loop_
_geom_bond_atom_site_label_1
_geom_bond_atom_site_label_2
_geom_bond_site_symmetry_1
_geom_bond_site_symmetry_2
Dy1 O2 1_555 1_555
O1 C2 1_555 1_555
O2 C9 1_555 1_555
O3 Dy1 1_555 1_555
O4 C11 1_555 1_555
O5 C18 1_555 1_555
O6 C18 1_555 1_555
O7 C20 1_555 1_555
O8 C27 1_555 1_555
O9 C27 1_555 1_555
O10 Dy1 1_555 1_555
O11 C28 1_555 1_555
N1 C1 1_555 1_555
C1 H1 1_555 1_555
H2 C1 1_555 1_555
C2 C1 1_555 1_555
H3 C2 1_555 1_555
H4 C2 1_555 1_555
C3 O1 1_555 1_555
C4 C3 1_555 1_555
H5 C4 1_555 1_555
C5 C4 1_555 1_555
H6 C5 1_555 1_555
C6 C5 1_555 1_555
C7 C6 1_555 1_555
H7 C7 1_555 1_555
C8 C3 1_555 1_555
H8 C8 1_555 1_555
C9 O3 1_555 1_555
C10 N1 1_555 1_555
H9 C10 1_555 1_555
H10 C10 1_555 1_555
C11 C10 1_555 1_555
H11 C11 1_555 1_555
H12 C11 1_555 1_555
C12 O4 1_555 1_555
C13 C12 1_555 1_555
H13 C13 1_555 1_555
C14 C13 1_555 1_555
H14 C14 1_555 1_555
C15 C14 1_555 1_555
C16 C15 1_555 1_555
H15 C16 1_555 1_555
C17 C12 1_555 1_555
H16 C17 1_555 1_555
C18 C15 1_555 1_555
C19 N1 1_555 1_555
H17 C19 1_555 1_555
H18 C19 1_555 1_555
C20 C19 1_555 1_555
H19 C20 1_555 1_555
H20 C20 1_555 1_555
C21 O7 1_555 1_555
C22 C21 1_555 1_555
H21 C22 1_555 1_555
C23 C22 1_555 1_555
H22 C23 1_555 1_555
C24 C23 1_555 1_555
C25 C24 1_555 1_555
H23 C25 1_555 1_555
C26 C21 1_555 1_555
H24 C26 1_555 1_555
C27 C24 1_555 1_555
C28 O10 1_555 1_555
O12 Dy1 1_555 1_555
H25 O12 1_555 1_555
H26 O12 1_555 1_555
O13 H27 1_555 1_555
H28 O13 1_555 1_555
O14 H29 1_555 1_555
H30 O14 1_555 1_555
O15 H31 1_555 1_555
H32 O15 1_555 1_555
O16 H33 1_555 1_555
H34 O16 1_555 1_555
O17 H35 1_555 1_555
H36 O17 1_555 1_555
Dy1_2 O2_2 1_555 1_555
Dy1_3 O6 1_555 1_555
Dy1A O8 1_555 1_555
Dy1_4 O9 1_555 1_555
Dy1A_2 O11 1_555 1_555
Dy1_5 O9_2 1_555 1_555
O1_2 C2_2 1_555 1_555
O2_2 C9_2 1_555 1_555
O3_2 Dy1_2 1_555 1_555
O4_2 C11_2 1_555 1_555
O5_2 C18_2 1_555 1_555
O6_2 Dy1 1_555 1_555
O6_3 Dy1_2 1_555 1_555
O7_2 C20_2 1_555 1_555
O8_2 Dy1A_2 1_555 1_555
O8A Dy1 1_555 1_555
O8A_2 Dy1_2 1_555 1_555
O9_2 C27_2 1_555 1_555
O9_3 Dy1 1_555 1_555
O9_4 Dy1_2 1_555 1_555
O10A Dy1A_2 1_555 1_555
O10_2 Dy1_2 1_555 1_555
O11A Dy1 1_555 1_555
O11A_2 Dy1_2 1_555 1_555
N1_2 C1_2 1_555 1_555
C1_2 H1_2 1_555 1_555
H2_2 C1_2 1_555 1_555
C2_2 C1_2 1_555 1_555
H3_2 C2_2 1_555 1_555
H4_2 C2_2 1_555 1_555
C3_2 O1_2 1_555 1_555
C4_2 C3_2 1_555 1_555
H5_2 C4_2 1_555 1_555
C5_2 C4_2 1_555 1_555
H6_2 C5_2 1_555 1_555
C6_2 C5_2 1_555 1_555
C7_2 C6_2 1_555 1_555
H7_2 C7_2 1_555 1_555
C8_2 C3_2 1_555 1_555
H8_2 C8_2 1_555 1_555
C9_2 O3_2 1_555 1_555
C10_2 N1_2 1_555 1_555
H9_2 C10_2 1_555 1_555
H10_2 C10_2 1_555 1_555
C11_2 C10_2 1_555 1_555
H11_2 C11_2 1_555 1_555
H12_2 C11_2 1_555 1_555
C12_2 O4_2 1_555 1_555
C13_2 C12_2 1_555 1_555
H13_2 C13_2 1_555 1_555
C14_2 C13_2 1_555 1_555
H14_2 C14_2 1_555 1_555
C15_2 C14_2 1_555 1_555
C16_2 C15_2 1_555 1_555
H15_2 C16_2 1_555 1_555
C17_2 C12_2 1_555 1_555
H16_2 C17_2 1_555 1_555
C18_2 O6_2 1_555 1_555
C19_2 N1_2 1_555 1_555
H17_2 C19_2 1_555 1_555
H18_2 C19_2 1_555 1_555
C20_2 C19_2 1_555 1_555
H19_2 C20_2 1_555 1_555
H20_2 C20_2 1_555 1_555
C21_2 O7_2 1_555 1_555
C22_2 C21_2 1_555 1_555
H21_2 C22_2 1_555 1_555
C23_2 C22_2 1_555 1_555
H22_2 C23_2 1_555 1_555
C24_2 C23_2 1_555 1_555
C25_2 C24_2 1_555 1_555
H23_2 C25_2 1_555 1_555
C26_2 C21_2 1_555 1_555
H24_2 C26_2 1_555 1_555
C27_2 O8_2 1_555 1_555
C28A C28 1_555 1_555
O12_2 Dy1_2 1_555 1_555
H25_2 O12_2 1_555 1_555
H26_2 O12_2 1_555 1_555
C6 C9 1_555 1_555
C7 C8 1_555 1_555
C16 C17 1_555 1_555
C25 C26 1_555 1_555
O10A C28A 1_555 1_555
O11A C28A 1_555 1_555
C6_2 C9_2 1_555 1_555
C7_2 C8_2 1_555 1_555
C15_2 C18_2 1_555 1_555
C16_2 C17_2 1_555 1_555
C24_2 C27_2 1_555 1_555
C25_2 C26_2 1_555 1_555

#END
