
#######################################################################
#
#                 Cambridge Crystallographic Data Centre
#                                CCDC 
#
#######################################################################
#
# If this CIF has been generated from an entry in the Cambridge 
# Structural Database, then it will include bibliographic, chemical, 
# crystal, experimental, refinement or atomic coordinate data resulting 
# from the CCDC's data processing and validation procedures.
#
#######################################################################

data_BOYYOE
_symmetry_cell_setting           triclinic
_symmetry_space_group_name_H-M   'P -1'
_symmetry_Int_Tables_number      2
_space_group_name_Hall           '-P 1'
loop_
_symmetry_equiv_pos_site_id
_symmetry_equiv_pos_as_xyz
1 x,y,z
2 -x,-y,-z
_cell_length_a                   11.105(5)
_cell_length_b                   12.603(5)
_cell_length_c                   14.950(5)
_cell_angle_alpha                65.077(5)
_cell_angle_beta                 71.041(5)
_cell_angle_gamma                84.552(5)
_cell_volume                     1792.41
loop_
_atom_site_label
_atom_site_type_symbol
_atom_site_fract_x
_atom_site_fract_y
_atom_site_fract_z
Ho1 Ho 0.12884(5) 0.12216(5) 0.45694(4)
Ho2 Ho 0.39289(5) -0.36308(5) 0.58434(5)
O1 O 0.4404(10) -0.1177(9) -0.0489(8)
O2 O 0.3868(10) -0.3411(9) 0.4293(8)
O3 O 0.5094(10) -0.4741(9) 0.3815(8)
O4 O 0.1964(9) 0.0453(10) -0.1023(7)
O5 O 0.1372(9) 0.0863(9) 0.3192(7)
O6 O -0.0171(10) -0.0517(10) 0.3715(7)
O7 O 0.2124(11) -0.2333(10) -0.1033(8)
O8 O -0.2121(9) -0.4952(9) 0.3289(9)
O9 O -0.2670(10) -0.5713(10) 0.2389(9)
O10 O 0.4968(9) 0.3186(9) 0.3227(7)
O11 O 0.3947(9) 0.3034(8) 0.5150(7)
O12 O 0.3174(7) 0.2419(7) 0.3331(6)
O13 O 0.2158(8) 0.2129(7) 0.5309(7)
O14 O 0.3140(9) 0.0172(9) 0.4732(7)
O15 O 0.0918(10) -0.0959(9) 0.5261(7)
O16 O 0.4094(8) -0.1548(9) 0.5104(8)
O17 O 0.1887(9) -0.2674(8) 0.5787(8)
O18 O 0.0612(11) 0.3086(9) 0.3884(9)
N1 N 0.3634(11) -0.0425(10) -0.2231(9)
C1 C 0.5033(13) -0.0468(14) -0.2305(12)
H1 H 0.5542 -0.0582 -0.2919
H2 H 0.5326 0.0260 -0.2352
C2 C 0.5156(14) -0.1477(13) -0.1339(11)
H3 H 0.4825 -0.2204 -0.1268
H4 H 0.6040 -0.1562 -0.1359
C3 C 0.4399(13) -0.1888(12) 0.0514(11)
C4 C 0.4965(14) -0.2962(11) 0.0766(11)
H5 H 0.5322 -0.3264 0.0272
C5 C 0.4978(13) -0.3569(10) 0.1785(12)
H6 H 0.5416 -0.4255 0.1962
C6 C 0.4341(13) -0.3163(13) 0.2550(10)
C7 C 0.3744(14) -0.2127(14) 0.2270(12)
H7 H 0.3306 -0.1855 0.2772
C8 C 0.3787(14) -0.1470(13) 0.1229(12)
H8 H 0.3398 -0.0757 0.1037
C9 C 0.4424(13) -0.3789(10) 0.3608(12)
C10 C 0.3244(14) 0.0825(11) -0.2719(9)
H9 H 0.3942 0.1300 -0.3314
H10 H 0.2517 0.0840 -0.2948
C11 C 0.2908(14) 0.1279(10) -0.1897(8)
H11 H 0.3653 0.1330 -0.1711
H12 H 0.2568 0.2050 -0.2137
C12 C 0.1701(13) 0.0450(11) -0.0057(10)
C13 C 0.0967(14) -0.0505(13) 0.0769(12)
H13 H 0.0686 -0.1089 0.0648
C14 C 0.0654(13) -0.0594(13) 0.1766(12)
H14 H 0.0166 -0.1239 0.2319
C15 C 0.1071(12) 0.0291(12) 0.1951(8)
C16 C 0.1809(13) 0.1262(12) 0.1086(11)
H15 H 0.2100 0.1852 0.1193
C17 C 0.2099(13) 0.1345(12) 0.0099(9)
H16 H 0.2562 0.1999 -0.0463
C18 C 0.0751(12) 0.0201(13) 0.3044(12)
C19 C 0.3350(14) -0.1172(14) -0.2695(12)
H17 H 0.3989 -0.1752 -0.2703
H18 H 0.3369 -0.0693 -0.3406
C20 C 0.2050(16) -0.1773(15) -0.2059(12)
H19 H 0.1389 -0.1209 -0.2102
H20 H 0.1880 -0.2340 -0.2290
C21 C 0.1120(16) -0.3018(14) -0.0231(13)
C22 C 0.0079(14) -0.3383(13) -0.0390(12)
H21 H 0.0038 -0.3173 -0.1055
C23 C -0.0890(15) -0.4074(13) 0.0497(13)
H22 H -0.1576 -0.4357 0.0419
C24 C -0.0855(13) -0.4353(12) 0.1502(10)
C25 C 0.0204(16) -0.4016(16) 0.1615(14)
H23 H 0.0260 -0.4233 0.2277
C26 C 0.1203(16) -0.3345(15) 0.0740(13)
H24 H 0.1923 -0.3123 0.0820
C27 C -0.1944(16) -0.5071(14) 0.2440(15)
C28 C 0.3852(10) 0.2755(12) 0.3684(9)
C29 C 0.3283(11) 0.2630(11) 0.4809(10)
C30 C 0.1915(11) -0.1583(14) 0.5390(11)
C31 C 0.3147(17) -0.0918(10) 0.5047(9)
Ho1A Ho -0.12884(5) -0.12216(5) 0.54306(4)
Ho2A Ho 0.60711(5) -0.63692(5) 0.41566(5)
Ho2A_2 Ho -0.39289(5) -0.63692(5) 0.41566(5)
Ho2A_3 Ho 0.60711(5) 0.36308(5) 0.41566(5)
O3A O 0.4906(10) -0.5259(9) 0.6185(8)
O6A O 0.0171(10) 0.0517(10) 0.6285(7)
O8A O 0.2121(9) -0.5048(9) 0.6711(9)
O9A O 0.2670(10) -0.4287(10) 0.7611(9)
O10A O 0.5032(9) -0.3186(9) 0.6773(7)
O11A O 0.6053(9) -0.3034(8) 0.4850(7)
O15A O -0.0918(10) 0.0959(9) 0.4739(7)
O19 O 0.326(3) 0.403(2) 0.1204(17)
O20 O 0.1376(16) 0.4995(11) 0.3933(14)
O21 O 0.401(3) 0.5668(17) -0.0809(15)
O22 O -0.0888(14) 0.6293(14) 0.3883(12)
loop_
_geom_bond_atom_site_label_1
_geom_bond_atom_site_label_2
_geom_bond_site_symmetry_1
_geom_bond_site_symmetry_2
Ho1 O5 1_555 1_555
Ho2 O2 1_555 1_555
O1 C2 1_555 1_555
O2 C9 1_555 1_555
O3 C9 1_555 1_555
O4 C11 1_555 1_555
O5 C18 1_555 1_555
O6 C18 1_555 1_555
O7 C20 1_555 1_555
O8 C27 1_555 1_555
O9 C27 1_555 1_555
O10 C28 1_555 1_555
O11 C29 1_555 1_555
O12 Ho1 1_555 1_555
O13 Ho1 1_555 1_555
O14 Ho1 1_555 1_555
O15 Ho1 1_555 1_555
O16 Ho2 1_555 1_555
O17 Ho2 1_555 1_555
O18 Ho1 1_555 1_555
N1 C1 1_555 1_555
C1 H1 1_555 1_555
H2 C1 1_555 1_555
C2 C1 1_555 1_555
H3 C2 1_555 1_555
H4 C2 1_555 1_555
C3 O1 1_555 1_555
C4 C3 1_555 1_555
H5 C4 1_555 1_555
C5 C4 1_555 1_555
H6 C5 1_555 1_555
C6 C5 1_555 1_555
C7 C6 1_555 1_555
H7 C7 1_555 1_555
C8 C3 1_555 1_555
H8 C8 1_555 1_555
C9 C6 1_555 1_555
C10 N1 1_555 1_555
H9 C10 1_555 1_555
H10 C10 1_555 1_555
C11 C10 1_555 1_555
H11 C11 1_555 1_555
H12 C11 1_555 1_555
C12 O4 1_555 1_555
C13 C12 1_555 1_555
H13 C13 1_555 1_555
C14 C13 1_555 1_555
H14 C14 1_555 1_555
C15 C14 1_555 1_555
C16 C15 1_555 1_555
H15 C16 1_555 1_555
C17 C12 1_555 1_555
H16 C17 1_555 1_555
C18 C15 1_555 1_555
C19 N1 1_555 1_555
H17 C19 1_555 1_555
H18 C19 1_555 1_555
C20 C19 1_555 1_555
H19 C20 1_555 1_555
H20 C20 1_555 1_555
C21 O7 1_555 1_555
C22 C21 1_555 1_555
H21 C22 1_555 1_555
C23 C22 1_555 1_555
H22 C23 1_555 1_555
C24 C23 1_555 1_555
C25 C24 1_555 1_555
H23 C25 1_555 1_555
C26 C21 1_555 1_555
H24 C26 1_555 1_555
C27 C24 1_555 1_555
C28 O12 1_555 1_555
C29 O13 1_555 1_555
C30 O15 1_555 1_555
C31 O14 1_555 1_555
Ho1A O6 1_555 1_555
Ho2A O3 1_555 1_555
Ho2A_2 O8 1_555 1_555
Ho2A_3 O10 1_555 1_555
O3A Ho2 1_555 1_555
O6A Ho1 1_555 1_555
O8A Ho2 1_555 1_555
O9A Ho2 1_555 1_555
O10A Ho2 1_555 1_555
O11A Ho2 1_555 1_555
O15A Ho1 1_555 1_555
O9 Ho2A_2 1_555 1_555
O11 Ho2A_3 1_555 1_555
O15 Ho1A 1_555 1_555
O16 C31 1_555 1_555
O17 C30 1_555 1_555
C7 C8 1_555 1_555
C16 C17 1_555 1_555
C25 C26 1_555 1_555
C28 C29 1_555 1_555
C30 C31 1_555 1_555
Ho1A O15A 1_555 1_555

#END
