
#######################################################################
#
#                 Cambridge Crystallographic Data Centre
#                                CCDC 
#
#######################################################################
#
# If this CIF has been generated from an entry in the Cambridge 
# Structural Database, then it will include bibliographic, chemical, 
# crystal, experimental, refinement or atomic coordinate data resulting 
# from the CCDC's data processing and validation procedures.
#
#######################################################################

data_BOZBIB
_symmetry_cell_setting           monoclinic
_symmetry_space_group_name_H-M   'P 21'
_symmetry_Int_Tables_number      4
_space_group_name_Hall           'P 2yb'
loop_
_symmetry_equiv_pos_site_id
_symmetry_equiv_pos_as_xyz
1 x,y,z
2 -x,1/2+y,-z
_cell_length_a                   7.756(2)
_cell_length_b                   17.639(3)
_cell_length_c                   8.883(1)
_cell_angle_alpha                90
_cell_angle_beta                 91.18(1)
_cell_angle_gamma                90
_cell_volume                     1215.01
loop_
_atom_site_label
_atom_site_type_symbol
_atom_site_fract_x
_atom_site_fract_y
_atom_site_fract_z
Cu1 Cu 0.30454 0.10359 -0.08476
Cu2 Cu 0.28503 0.21599 -0.38508
Cu3 Cu 0.02833 0.25073 -0.09227
N1 N 0.16100 0.12740 0.08730
N2 N 0.04600 0.18590 0.08180
N3 N 0.03220 0.31950 -0.26530
N4 N 0.13430 0.30600 -0.38370
N5 N 0.40740 0.12170 -0.39270
N6 N 0.41240 0.07490 -0.27160
N7 N 0.46360 0.03680 0.03430
N8 N 0.62290 0.06110 0.07260
N9 N 0.42870 0.26120 -0.54960
N10 N 0.57470 0.29900 -0.51730
N11 N -0.01800 0.37980 0.09200
N12 N 0.59850 0.22900 -0.13830
C1 C 0.15220 0.09520 0.22480
C2 C 0.03010 0.13240 0.30790
C3 C -0.03220 0.18860 0.21530
C4 C -0.05450 0.38400 -0.29370
C5 C -0.00780 0.41310 -0.43080
C6 C 0.11040 0.36250 -0.48310
C7 C 0.49800 0.08890 -0.50190
C8 C 0.56150 0.01990 -0.45410
C9 C 0.50630 0.01360 -0.30760
C10 C 0.45770 -0.03490 0.07640
C11 C 0.61420 -0.05660 0.14340
C12 C 0.71350 0.00630 0.13800
C13 C 0.40670 0.26730 -0.69790
C14 C 0.53880 0.30930 -0.75910
C15 C 0.64360 0.32780 -0.64220
O1 O 0.73680 0.19970 -0.16010
O2 O 0.51030 0.20340 -0.03470
O3 O 0.53650 0.27870 -0.21500
O4 O 0.15870 0.17610 -0.20920
O5 O -0.10990 0.33060 0.01970
O6 O 0.13710 0.36960 0.10860
O7 O -0.09470 0.43530 0.14410
H1 H 0.22400 0.05300 0.24100
H2 H -0.01600 0.11700 0.41100
H3 H -0.09700 0.21900 0.22600
H4 H -0.12800 0.40300 -0.22700
H5 H -0.04100 0.45800 -0.46700
H6 H 0.15200 0.36000 -0.57300
H7 H 0.51900 0.10800 -0.58400
H8 H 0.64000 -0.01800 -0.51200
H9 H 0.52300 -0.02600 -0.23800
H10 H 0.36600 -0.06300 0.06400
H11 H 0.78800 0.00900 0.18500
H12 H 0.29000 0.25900 -0.74800
H13 H 0.56700 0.32800 -0.85900
H14 H 0.72900 0.36100 -0.61300
H15 H 0.63700 0.10500 0.05800
H16 H 0.60100 0.30200 -0.42600
H19 H 0.09000 0.14300 -0.23900
H20 H 0.64500 -0.10700 0.18700
O1_2 O -0.26320 0.19970 -0.16010
Cu3_2 Cu 1.02833 0.25073 -0.09227
O8 O 0.05520 0.56290 -0.70330
H17 H 0.15600 0.56700 -0.72500
H18 H 0.00000 0.55400 -0.77700
loop_
_geom_bond_atom_site_label_1
_geom_bond_atom_site_label_2
_geom_bond_site_symmetry_1
_geom_bond_site_symmetry_2
Cu1 N1 1_555 1_555
Cu2 N4 1_555 1_555
Cu3 N2 1_555 1_555
N1 N2 1_555 1_555
N2 C3 1_555 1_555
N3 Cu3 1_555 1_555
N4 N3 1_555 1_555
N5 Cu2 1_555 1_555
N6 Cu1 1_555 1_555
N7 Cu1 1_555 1_555
N8 N7 1_555 1_555
N9 Cu2 1_555 1_555
N10 N9 1_555 1_555
N11 O5 1_555 1_555
N12 O1 1_555 1_555
C1 N1 1_555 1_555
C2 C1 1_555 1_555
C3 C2 1_555 1_555
C4 N3 1_555 1_555
C5 C4 1_555 1_555
C6 N4 1_555 1_555
C7 N5 1_555 1_555
C8 C7 1_555 1_555
C9 N6 1_555 1_555
C10 N7 1_555 1_555
C11 C10 1_555 1_555
C12 N8 1_555 1_555
C13 N9 1_555 1_555
C14 C13 1_555 1_555
C15 N10 1_555 1_555
O1 Cu3_2 1_555 1_555
O2 Cu1 1_555 1_555
O3 Cu2 1_555 1_555
O4 Cu1 1_555 1_555
O5 Cu3 1_555 1_555
O6 N11 1_555 1_555
O7 N11 1_555 1_555
O8 H17 1_555 1_555
H1 C1 1_555 1_555
H2 C2 1_555 1_555
H3 C3 1_555 1_555
H4 C4 1_555 1_555
H5 C5 1_555 1_555
H6 C6 1_555 1_555
H7 C7 1_555 1_555
H8 C8 1_555 1_555
H9 C9 1_555 1_555
H10 C10 1_555 1_555
H11 C12 1_555 1_555
H12 C13 1_555 1_555
H13 C14 1_555 1_555
H14 C15 1_555 1_555
H15 N8 1_555 1_555
H16 N10 1_555 1_555
H18 O8 1_555 1_555
H19 O4 1_555 1_555
H20 C11 1_555 1_555
O1_2 Cu3 1_555 1_555
Cu2 O4 1_555 1_555
Cu3 O4 1_555 1_555
N5 N6 1_555 1_555
N12 O2 1_555 1_555
N12 O3 1_555 1_555
C5 C6 1_555 1_555
C8 C9 1_555 1_555
C11 C12 1_555 1_555
C14 C15 1_555 1_555

#END
