
#######################################################################
#
#                 Cambridge Crystallographic Data Centre
#                                CCDC 
#
#######################################################################
#
# If this CIF has been generated from an entry in the Cambridge 
# Structural Database, then it will include bibliographic, chemical, 
# crystal, experimental, refinement or atomic coordinate data resulting 
# from the CCDC's data processing and validation procedures.
#
#######################################################################

data_BOZDIF
_symmetry_cell_setting           orthorhombic
_symmetry_space_group_name_H-M   'P b c a'
_symmetry_Int_Tables_number      61
_space_group_name_Hall           '-P 2ac 2ab'
loop_
_symmetry_equiv_pos_site_id
_symmetry_equiv_pos_as_xyz
1 x,y,z
2 1/2-x,-y,1/2+z
3 1/2+x,1/2-y,-z
4 -x,1/2+y,1/2-z
5 -x,-y,-z
6 1/2+x,y,1/2-z
7 1/2-x,1/2+y,z
8 x,1/2-y,1/2+z
_cell_length_a                   7.8040(6)
_cell_length_b                   22.160(2)
_cell_length_c                   27.060(3)
_cell_angle_alpha                90
_cell_angle_beta                 90
_cell_angle_gamma                90
_cell_volume                     4679.67
loop_
_atom_site_label
_atom_site_type_symbol
_atom_site_fract_x
_atom_site_fract_y
_atom_site_fract_z
Cd1 Cd 0.48106(11) -0.03515(5) 0.24510(3)
N1 N 0.1875(18) 0.1470(7) -0.0140(4)
N2 N 0.6672(19) -0.0706(7) 0.3946(4)
O1 O 0.2242(12) 0.0313(5) 0.2526(3)
O2 O 0.3877(13) 0.0318(5) 0.1867(3)
O3 O 0.2547(11) 0.1025(5) -0.2429(3)
O4 O 0.4397(13) 0.0990(5) -0.1819(3)
O5 O 0.5206(13) -0.0370(5) 0.3272(3)
C1 C 0.114(2) 0.1956(7) -0.0355(5)
C2 C 0.041(2) 0.2408(7) -0.0060(5)
H1 H -0.0038 0.2757 -0.0201
C3 C 0.038(2) 0.2321(7) 0.0441(5)
H2 H -0.0153 0.2607 0.0640
C4 C 0.111(2) 0.1823(7) 0.0658(5)
C5 C 0.182(2) 0.1409(7) 0.0359(5)
H3 H 0.2293 0.1065 0.0501
C6 C 0.2689(19) 0.0536(7) 0.2119(5)
C7 C 0.1720(18) 0.1086(7) 0.1908(4)
C8 C 0.1911(19) 0.1221(6) 0.1418(5)
H4 H 0.2649 0.0991 0.1225
C9 C 0.1014(19) 0.1701(7) 0.1202(5)
C10 C -0.002(2) 0.2054(7) 0.1512(5)
H5 H -0.0625 0.2378 0.1381
C11 C -0.015(2) 0.1925(7) 0.2010(5)
H6 H -0.0798 0.2176 0.2214
C12 C 0.0673(19) 0.1419(7) 0.2212(5)
H7 H 0.0517 0.1312 0.2541
C13 C 0.3056(19) 0.1189(6) -0.2006(4)
C14 C 0.1996(18) 0.1616(6) -0.1703(4)
C15 C 0.2115(18) 0.1621(6) -0.1193(4)
H8 H 0.2886 0.1363 -0.1038
C16 C 0.1110(19) 0.2002(7) -0.0908(5)
C17 C 0.004(2) 0.2403(7) -0.1152(5)
H9 H -0.0620 0.2671 -0.0970
C18 C -0.0052(19) 0.2410(7) -0.1658(5)
H10 H -0.0769 0.2685 -0.1815
C19 C 0.0899(18) 0.2015(7) -0.1936(5)
H11 H 0.0807 0.2016 -0.2279
C20 C 0.625(2) -0.0713(8) 0.3478(5)
H12 H 0.6771 -0.1003 0.3280
C21 C 0.596(3) -0.0260(9) 0.4278(6)
H13 H 0.6810 -0.0143 0.4516
H14 H 0.4986 -0.0427 0.4446
H15 H 0.5608 0.0088 0.4092
C22 C 0.790(2) -0.1143(10) 0.4149(6)
H16 H 0.8157 -0.1443 0.3904
H17 H 0.7413 -0.1334 0.4435
H18 H 0.8935 -0.0938 0.4242
Cd1A Cd 0.01894(11) 0.03515(5) -0.25490(3)
Cd1D Cd 0.51894(11) 0.03515(5) -0.24510(3)
Cd1E Cd -0.01894(11) -0.03515(5) 0.25490(3)
O1E O 0.7242(12) 0.0313(5) 0.2474(3)
O3A O 0.2453(11) -0.1025(5) 0.2571(3)
O3D O 0.7453(11) -0.1025(5) 0.2429(3)
O4D O 0.5603(13) -0.0990(5) 0.1819(3)
N3 N 0.161(3) 0.0624(16) 0.4105(10)
O6 O 0.103(4) -0.0230(14) 0.4460(11)
C23 C 0.136(4) 0.003(2) 0.4068(12)
H19 H 0.1418 -0.0171 0.3767
C24 C 0.207(4) 0.0950(16) 0.3651(10)
H20 H 0.3228 0.0855 0.3561
H21 H 0.1967 0.1376 0.3706
H22 H 0.1311 0.0831 0.3389
C25 C 0.160(4) 0.0973(17) 0.4560(12)
H23 H 0.0571 0.1208 0.4576
H24 H 0.2578 0.1236 0.4566
H25 H 0.1648 0.0704 0.4838
loop_
_geom_bond_atom_site_label_1
_geom_bond_atom_site_label_2
_geom_bond_site_symmetry_1
_geom_bond_site_symmetry_2
Cd1 O1 1_555 1_555
N1 C1 1_555 1_555
N2 C20 1_555 1_555
O1 C6 1_555 1_555
O2 Cd1 1_555 1_555
O3 C13 1_555 1_555
O4 C13 1_555 1_555
O5 Cd1 1_555 1_555
C1 C2 1_555 1_555
C2 H1 1_555 1_555
C3 C2 1_555 1_555
H2 C3 1_555 1_555
C4 C3 1_555 1_555
C5 N1 1_555 1_555
H3 C5 1_555 1_555
C6 O2 1_555 1_555
C7 C6 1_555 1_555
C8 C7 1_555 1_555
H4 C8 1_555 1_555
C9 C4 1_555 1_555
C10 C9 1_555 1_555
H5 C10 1_555 1_555
C11 C10 1_555 1_555
H6 C11 1_555 1_555
C12 C7 1_555 1_555
H7 C12 1_555 1_555
C13 C14 1_555 1_555
C14 C15 1_555 1_555
C15 H8 1_555 1_555
C16 C1 1_555 1_555
C17 C16 1_555 1_555
H9 C17 1_555 1_555
C18 C17 1_555 1_555
H10 C18 1_555 1_555
C19 C14 1_555 1_555
H11 C19 1_555 1_555
C20 O5 1_555 1_555
H12 C20 1_555 1_555
C21 N2 1_555 1_555
H13 C21 1_555 1_555
H14 C21 1_555 1_555
H15 C21 1_555 1_555
C22 N2 1_555 1_555
H16 C22 1_555 1_555
H17 C22 1_555 1_555
H18 C22 1_555 1_555
N3 C23 1_555 1_555
O6 C23 1_555 1_555
C23 H19 1_555 1_555
C24 N3 1_555 1_555
H20 C24 1_555 1_555
H21 C24 1_555 1_555
H22 C24 1_555 1_555
C25 N3 1_555 1_555
H23 C25 1_555 1_555
H24 C25 1_555 1_555
H25 C25 1_555 1_555
Cd1A O3 1_555 1_555
Cd1D O3 1_555 1_555
Cd1E O1 1_555 1_555
O1E Cd1 1_555 1_555
O3A Cd1 1_555 1_555
O3D Cd1 1_555 1_555
O4D Cd1 1_555 1_555
O4 Cd1D 1_555 1_555
C4 C5 1_555 1_555
C8 C9 1_555 1_555
C11 C12 1_555 1_555
C15 C16 1_555 1_555
C18 C19 1_555 1_555
Cd1E O3A 1_555 1_555

#END
