
#######################################################################
#
#                 Cambridge Crystallographic Data Centre
#                                CCDC 
#
#######################################################################
#
# If this CIF has been generated from an entry in the Cambridge 
# Structural Database, then it will include bibliographic, chemical, 
# crystal, experimental, refinement or atomic coordinate data resulting 
# from the CCDC's data processing and validation procedures.
#
#######################################################################

data_BOZDEB
_symmetry_cell_setting           triclinic
_symmetry_space_group_name_H-M   'P -1'
_symmetry_Int_Tables_number      2
_space_group_name_Hall           '-P 1'
loop_
_symmetry_equiv_pos_site_id
_symmetry_equiv_pos_as_xyz
1 x,y,z
2 -x,-y,-z
_cell_length_a                   12.2030(11)
_cell_length_b                   13.5181(12)
_cell_length_c                   14.4266(14)
_cell_angle_alpha                113.749(2)
_cell_angle_beta                 93.2050(10)
_cell_angle_gamma                103.938(2)
_cell_volume                     2082.61
loop_
_atom_site_label
_atom_site_type_symbol
_atom_site_fract_x
_atom_site_fract_y
_atom_site_fract_z
Cd1 Cd 0.39259(4) 0.47166(4) 0.61676(3)
N1 N 1.0714(4) 0.2571(4) 0.4587(4)
H1 H 1.1350 0.2947 0.4509
N2 N 0.8580(4) -0.1997(4) 0.3350(4)
N3 N 0.7334(4) -0.3506(4) 0.3318(4)
N4 N 0.7071(4) 0.3743(4) 0.6443(4)
N5 N 0.5452(4) 0.4191(4) 0.6543(4)
O1 O 0.9159(4) 0.9439(4) 1.0729(3)
O2 O 0.5246(3) 0.6163(3) 0.5896(3)
O3 O 0.6981(3) 0.6386(3) 0.5476(3)
O4 O 0.6307(3) 1.3869(3) 1.2317(3)
O5 O 0.7298(3) 1.4049(4) 1.3730(3)
C1 C 0.8372(5) 0.9634(5) 1.0340(5)
C2 C 0.6305(5) 0.6573(5) 0.6124(4)
C3 C 0.6846(5) 0.7349(5) 0.7222(4)
C4 C 0.8007(5) 0.7650(5) 0.7559(4)
H2 H 0.8478 0.7347 0.7105
C5 C 0.8475(5) 0.8391(5) 0.8558(4)
H3 H 0.9260 0.8576 0.8771
C6 C 0.7812(5) 0.8872(5) 0.9260(4)
C7 C 0.6652(5) 0.8560(5) 0.8930(5)
H4 H 0.6184 0.8863 0.9386
C8 C 0.6175(5) 0.7803(5) 0.7933(5)
H5 H 0.5385 0.7591 0.7730
C9 C 0.6973(5) 1.3570(5) 1.2785(5)
C10 C 0.7351(5) 1.2558(5) 1.2135(4)
C11 C 0.7032(5) 1.2041(5) 1.1086(5)
H6 H 0.6583 1.2323 1.0769
C12 C 0.7364(5) 1.1115(5) 1.0498(5)
H7 H 0.7158 1.0793 0.9786
C13 C 0.7998(5) 1.0651(5) 1.0940(4)
C14 C 0.8342(5) 1.1194(5) 1.2005(5)
H8 H 0.8790 1.0911 1.2321
C15 C 0.8032(5) 1.2141(5) 1.2599(4)
H9 H 0.8279 1.2499 1.3306
C16 C 1.0306(5) 0.1399(5) 0.4201(5)
C17 C 1.0814(5) 0.0574(5) 0.3641(5)
H10 H 1.1527 0.0767 0.3459
C18 C 1.0226(5) -0.0535(5) 0.3365(5)
H11 H 1.0552 -0.1098 0.2995
C19 C 0.9148(5) -0.0836(5) 0.3627(4)
C20 C 0.8645(5) -0.0024(5) 0.4173(4)
H12 H 0.7926 -0.0225 0.4342
C21 C 0.9224(5) 0.1100(5) 0.4467(4)
C22 C 0.8971(5) 0.2135(5) 0.5062(4)
C23 C 0.8059(5) 0.2395(5) 0.5543(5)
H13 H 0.7446 0.1825 0.5533
C24 C 0.8072(5) 0.3496(5) 0.6029(5)
C25 C 0.8991(5) 0.4362(5) 0.6074(5)
H14 H 0.8973 0.5106 0.6405
C26 C 0.9921(5) 0.4136(5) 0.5639(5)
H15 H 1.0548 0.4717 0.5688
C27 C 0.9904(5) 0.3020(5) 0.5122(5)
C28 C 0.7650(5) -0.2412(5) 0.3700(5)
H16 H 0.7279 -0.1960 0.4164
C29 C 0.8098(5) -0.3835(6) 0.2675(5)
H17 H 0.8083 -0.4579 0.2279
C30 C 0.8867(6) -0.2927(6) 0.2702(5)
H18 H 0.9481 -0.2926 0.2348
C31 C 0.6334(5) 0.4126(5) 0.6058(5)
H19 H 0.6431 0.4322 0.5514
C32 C 0.5634(6) 0.3803(6) 0.7257(5)
H20 H 0.5140 0.3730 0.7708
C33 C 0.6624(6) 0.3541(6) 0.7216(5)
H21 H 0.6946 0.3274 0.7634
Cd1A Cd 0.60741(4) -0.47166(4) 0.38324(3)
Cd1A_2 Cd 0.60741(4) 0.52834(4) 0.38324(3)
Cd1A_3 Cd 0.60741(4) 1.52834(4) 1.38324(3)
N3A N 0.2666(4) 0.3506(4) 0.6682(4)
O3A O 0.3019(3) 0.3614(3) 0.4524(3)
O4A O 0.3693(3) 0.6131(3) 0.7683(3)
O5A O 0.2702(3) 0.5951(4) 0.6270(3)
N6 N 0.9301(7) 0.3457(9) 0.0076(8)
O6 O 0.8702(8) 0.2612(9) -0.1594(7)
C34 C 0.9284(14) 0.2627(16) -0.0827(16)
H22 H 0.9671 0.2095 -0.0894
C35 C 0.8569(13) 0.4201(12) 0.0166(13)
H23 H 0.8292 0.4117 -0.0505
H24 H 0.9006 0.4971 0.0583
H25 H 0.7930 0.4000 0.0480
C36 C 0.9976(14) 0.3643(18) 0.1029(15)
H26 H 1.0443 0.4414 0.1366
H27 H 1.0459 0.3152 0.0876
H28 H 0.9472 0.3486 0.1471
N7 N 0.4633(7) 0.0435(8) 0.3536(8)
O7 O 0.3636(6) 0.0639(8) 0.4827(6)
C40 C 0.4403(10) 0.0977(12) 0.4423(11)
H36 H 0.4872 0.1710 0.4804
C41 C 0.5623(9) 0.0834(10) 0.3194(9)
H37 H 0.5943 0.1630 0.3609
H38 H 0.5431 0.0695 0.2490
H39 H 0.6173 0.0451 0.3250
C42 C 0.3874(13) -0.0578(12) 0.2934(12)
H40 H 0.4089 -0.1158 0.3057
H41 H 0.3870 -0.0726 0.2225
H42 H 0.3122 -0.0569 0.3093
N8 N 0.6049(10) 0.6893(11) 0.0394(9)
O8 O 0.4443(11) 0.7262(14) 0.0662(10)
C43 C 0.4942(17) 0.6615(17) 0.0034(14)
H43 H 0.4573 0.6023 -0.0597
C44 C 0.6587(12) 0.7776(14) 0.1411(11)
H44 H 0.6157 0.8316 0.1623
H45 H 0.7356 0.8147 0.1391
H46 H 0.6602 0.7450 0.1890
C45 C 0.6814(12) 0.6334(12) -0.0225(11)
H47 H 0.6471 0.5983 -0.0939
H48 H 0.6942 0.5771 -0.0023
H49 H 0.7532 0.6881 -0.0123
C37? C 0.866(4) 0.339(5) -0.074(5)
H29? H 0.8221 0.3878 -0.0693
C38? C 1.004(4) 0.268(4) -0.010(4)
H30? H 0.9604 0.1928 -0.0573
H31? H 1.0301 0.2681 0.0542
H32? H 1.0689 0.2932 -0.0378
C39? C 0.947(5) 0.433(5) 0.111(5)
H33? H 0.9165 0.4921 0.1089
H34? H 1.0269 0.4640 0.1387
H35? H 0.9072 0.4021 0.1529
loop_
_geom_bond_atom_site_label_1
_geom_bond_atom_site_label_2
_geom_bond_site_symmetry_1
_geom_bond_site_symmetry_2
Cd1 N5 1_555 1_555
N1 H1 1_555 1_555
N2 C19 1_555 1_555
N3 C28 1_555 1_555
N4 C24 1_555 1_555
N5 C31 1_555 1_555
O1 C1 1_555 1_555
O2 Cd1 1_555 1_555
O3 C2 1_555 1_555
O4 C9 1_555 1_555
O5 C9 1_555 1_555
C1 C6 1_555 1_555
C2 O2 1_555 1_555
C3 C2 1_555 1_555
C4 C3 1_555 1_555
H2 C4 1_555 1_555
C5 C4 1_555 1_555
H3 C5 1_555 1_555
C6 C5 1_555 1_555
C7 C6 1_555 1_555
H4 C7 1_555 1_555
C8 C3 1_555 1_555
H5 C8 1_555 1_555
C9 C10 1_555 1_555
C10 C11 1_555 1_555
C11 H6 1_555 1_555
C12 C11 1_555 1_555
H7 C12 1_555 1_555
C13 C1 1_555 1_555
C14 C13 1_555 1_555
H8 C14 1_555 1_555
C15 C10 1_555 1_555
H9 C15 1_555 1_555
C16 N1 1_555 1_555
C17 C16 1_555 1_555
H10 C17 1_555 1_555
C18 C17 1_555 1_555
H11 C18 1_555 1_555
C19 C18 1_555 1_555
C20 C19 1_555 1_555
H12 C20 1_555 1_555
C21 C16 1_555 1_555
C22 C21 1_555 1_555
C23 C22 1_555 1_555
H13 C23 1_555 1_555
C24 C23 1_555 1_555
C25 C24 1_555 1_555
H14 C25 1_555 1_555
C26 C25 1_555 1_555
H15 C26 1_555 1_555
C27 N1 1_555 1_555
C28 N2 1_555 1_555
H16 C28 1_555 1_555
C29 N3 1_555 1_555
H17 C29 1_555 1_555
C30 N2 1_555 1_555
H18 C30 1_555 1_555
C31 N4 1_555 1_555
H19 C31 1_555 1_555
C32 N5 1_555 1_555
H20 C32 1_555 1_555
C33 N4 1_555 1_555
H21 C33 1_555 1_555
N6 C34 1_555 1_555
O6 C34 1_555 1_555
C34 H22 1_555 1_555
C35 N6 1_555 1_555
H23 C35 1_555 1_555
H24 C35 1_555 1_555
H25 C35 1_555 1_555
C36 N6 1_555 1_555
H26 C36 1_555 1_555
H27 C36 1_555 1_555
H28 C36 1_555 1_555
N7 C40 1_555 1_555
O7 C40 1_555 1_555
C40 H36 1_555 1_555
C41 N7 1_555 1_555
H37 C41 1_555 1_555
H38 C41 1_555 1_555
H39 C41 1_555 1_555
C42 N7 1_555 1_555
H40 C42 1_555 1_555
H41 C42 1_555 1_555
H42 C42 1_555 1_555
N8 C43 1_555 1_555
O8 C43 1_555 1_555
C43 H43 1_555 1_555
C44 N8 1_555 1_555
H44 C44 1_555 1_555
H45 C44 1_555 1_555
H46 C44 1_555 1_555
C45 N8 1_555 1_555
H47 C45 1_555 1_555
H48 C45 1_555 1_555
H49 C45 1_555 1_555
Cd1A N3 1_555 1_555
Cd1A_2 O3 1_555 1_555
Cd1A_3 O4 1_555 1_555
N3A Cd1 1_555 1_555
O3A Cd1 1_555 1_555
O4A Cd1 1_555 1_555
O5A Cd1 1_555 1_555
O5 Cd1A_3 1_555 1_555
C7 C8 1_555 1_555
C12 C13 1_555 1_555
C14 C15 1_555 1_555
C20 C21 1_555 1_555
C22 C27 1_555 1_555
C26 C27 1_555 1_555
C29 C30 1_555 1_555
C32 C33 1_555 1_555

#END
