
#######################################################################
#
#                 Cambridge Crystallographic Data Centre
#                                CCDC 
#
#######################################################################
#
# If this CIF has been generated from an entry in the Cambridge 
# Structural Database, then it will include bibliographic, chemical, 
# crystal, experimental, refinement or atomic coordinate data resulting 
# from the CCDC's data processing and validation procedures.
#
#######################################################################

data_BOZDAX
_symmetry_cell_setting           monoclinic
_symmetry_space_group_name_H-M   'C 2'
_symmetry_Int_Tables_number      5
_space_group_name_Hall           'C 2y'
loop_
_symmetry_equiv_pos_site_id
_symmetry_equiv_pos_as_xyz
1 x,y,z
2 -x,y,-z
3 1/2+x,1/2+y,z
4 1/2-x,1/2+y,-z
_cell_length_a                   8.1478(8)
_cell_length_b                   11.0710(11)
_cell_length_c                   11.4492(12)
_cell_angle_alpha                90
_cell_angle_beta                 104.661(11)
_cell_angle_gamma                90
_cell_volume                     999.14
loop_
_atom_site_label
_atom_site_type_symbol
_atom_site_fract_x
_atom_site_fract_y
_atom_site_fract_z
Cd1 Cd 0.5000 1.09831(5) 0.5000
N1 N 0.5779(14) 0.8887(12) 0.8388(11)
H1 H 0.5530 0.8239 0.8719
N2 N 0.3119(10) 0.9375(9) 0.5316(7)
C1 C 0.3795(11) 0.8699(9) 0.6338(8)
C2 C 0.5112(11) 0.9288(9) 0.7265(7)
N3 N -0.1296(10) 0.9383(10) 0.1247(7)
C3 C 0.1999(9) 0.8557(9) 0.4678(7)
N4 N 0.5836(8) 1.0339(6) 0.7039(6)
C4 C 0.6986(10) 1.0598(7) 0.8071(7)
N5 N 0.1966(9) 0.7543(9) 0.5244(7)
C5 C 0.0078(10) 0.9939(8) 0.3256(8)
H2 H 0.0247 1.0528 0.3854
C6 C 0.0560(13) 0.8007(10) 0.2566(9)
H3 H 0.1110 0.7264 0.2678
C7 C 0.0846(13) 0.8858(10) 0.3499(9)
N6 N 0.3178(9) 0.7642(7) 0.6363(6)
N7 N 0.6933(8) 0.9740(7) 0.8878(6)
C8 C -0.0525(19) 0.8283(18) 0.1505(13)
H4 H -0.0766 0.7690 0.0910
C9 C -0.0957(11) 1.0178(10) 0.2128(9)
H5 H -0.1441 1.0942 0.1983
N1A N 0.4221(14) 0.8887(12) 0.1612(11)
H1A H 0.4470 0.8239 0.1281
N2A N 0.6881(10) 0.9375(9) 0.4684(7)
C1A C 0.6205(11) 0.8699(9) 0.3662(8)
C2A C 0.4888(11) 0.9288(9) 0.2735(7)
N3A N 1.1296(10) 0.9383(10) 0.8753(7)
C3A C 0.8001(9) 0.8557(9) 0.5322(7)
N4A N 0.4164(8) 1.0339(6) 0.2961(6)
C4A C 0.3014(10) 1.0598(7) 0.1929(7)
N5A N 0.8034(9) 0.7543(9) 0.4756(7)
C5A C 0.9922(10) 0.9939(8) 0.6744(8)
H2A H 0.9753 1.0528 0.6146
C6A C 0.9440(13) 0.8007(10) 0.7434(9)
H3A H 0.8890 0.7264 0.7322
C7A C 0.9154(13) 0.8858(10) 0.6501(9)
N6A N 0.6822(9) 0.7642(7) 0.3637(6)
N7A N 0.3067(8) 0.9740(7) 0.1122(6)
C8A C 1.0525(19) 0.8283(18) 0.8495(13)
H4A H 1.0766 0.7690 0.9090
C9A C 1.0957(11) 1.0178(10) 0.7872(9)
H5A H 1.1441 1.0942 0.8017
Cd1B Cd 0.0000 0.59831(5) 0.5000
Cd1B_2 Cd 1.0000 0.59831(5) 0.5000
N5B N 0.6966(9) 1.2543(9) 0.5244(7)
N5C N 0.3034(9) 1.2543(9) 0.4756(7)
O1 O 0.0000 0.2049(9) 0.0000
loop_
_geom_bond_atom_site_label_1
_geom_bond_atom_site_label_2
_geom_bond_site_symmetry_1
_geom_bond_site_symmetry_2
Cd1 N2 1_555 1_555
N1 H1 1_555 1_555
N2 C1 1_555 1_555
C1 C2 1_555 1_555
C2 N1 1_555 1_555
N3 C8 1_555 1_555
C3 N2 1_555 1_555
N4 Cd1 1_555 1_555
C4 N4 1_555 1_555
N5 C3 1_555 1_555
C5 H2 1_555 1_555
C6 H3 1_555 1_555
C7 C3 1_555 1_555
N6 C1 1_555 1_555
N7 N1 1_555 1_555
C8 C6 1_555 1_555
H4 C8 1_555 1_555
C9 N3 1_555 1_555
H5 C9 1_555 1_555
N1A H1A 1_555 1_555
N2A Cd1 1_555 1_555
C1A N2A 1_555 1_555
C2A N1A 1_555 1_555
N3A C8A 1_555 1_555
C3A N2A 1_555 1_555
N4A Cd1 1_555 1_555
C4A N4A 1_555 1_555
N5A C3A 1_555 1_555
C5A H2A 1_555 1_555
C6A H3A 1_555 1_555
C7A C3A 1_555 1_555
N6A C1A 1_555 1_555
N7A N1A 1_555 1_555
C8A C6A 1_555 1_555
H4A C8A 1_555 1_555
C9A N3A 1_555 1_555
H5A C9A 1_555 1_555
Cd1B N5 1_555 1_555
Cd1B_2 N5A 1_555 1_555
N5B Cd1 1_555 1_555
N5C Cd1 1_555 1_555
C2 N4 1_555 1_555
C4 N7 1_555 1_555
N5 N6 1_555 1_555
C5 C7 1_555 1_555
C5 C9 1_555 1_555
C6 C7 1_555 1_555
C1A C2A 1_555 1_555
C2A N4A 1_555 1_555
C4A N7A 1_555 1_555
N5A N6A 1_555 1_555
C5A C7A 1_555 1_555
C5A C9A 1_555 1_555
C6A C7A 1_555 1_555

#END
