
#######################################################################
#
#                 Cambridge Crystallographic Data Centre
#                                CCDC 
#
#######################################################################
#
# If this CIF has been generated from an entry in the Cambridge 
# Structural Database, then it will include bibliographic, chemical, 
# crystal, experimental, refinement or atomic coordinate data resulting 
# from the CCDC's data processing and validation procedures.
#
#######################################################################

data_BOZJOR
_symmetry_cell_setting           monoclinic
_symmetry_space_group_name_H-M   'P 21/c'
_symmetry_Int_Tables_number      14
_space_group_name_Hall           '-P 2ybc'
loop_
_symmetry_equiv_pos_site_id
_symmetry_equiv_pos_as_xyz
1 x,y,z
2 -x,1/2+y,1/2-z
3 -x,-y,-z
4 x,1/2-y,1/2+z
_cell_length_a                   8.9886(4)
_cell_length_b                   12.4763(4)
_cell_length_c                   9.4035(6)
_cell_angle_alpha                90
_cell_angle_beta                 117.362(7)
_cell_angle_gamma                90
_cell_volume                     936.568
loop_
_atom_site_label
_atom_site_type_symbol
_atom_site_fract_x
_atom_site_fract_y
_atom_site_fract_z
Ni1 Ni 0.0000 0.0000 0.0000
O1 O 0.21323(16) -0.01018(11) -0.02955(18)
O2 O 0.03292(16) -0.15948(11) 0.07875(18)
H1 H 0.129(3) -0.175(2) 0.074(3)
O3 O 0.31107(16) -0.17328(11) 0.06886(19)
N1 N 0.15515(19) 0.04462(14) 0.2354(2)
C1 C 0.4836(2) -0.05834(16) 0.0049(3)
H2 H 0.5794 -0.0891 0.1000
H3 H 0.4782 -0.0948 -0.0908
C2 C 0.2664(2) 0.12385(17) 0.2607(3)
H4 H 0.2630 0.1600 0.1703
C3 C 0.3232(2) -0.08292(16) 0.0160(2)
C4 C 0.0420(3) -0.10000(19) 0.3324(3)
H5 H -0.0744 -0.0736 0.2722
H6 H 0.0560 -0.1282 0.4363
C5 C 0.1604(2) -0.00736(18) 0.3637(3)
C6 C 0.0684(3) -0.19126(18) 0.2387(3)
H7 H 0.1859 -0.2162 0.2965
H8 H -0.0052 -0.2520 0.2325
C7 C 0.3847(3) 0.1551(2) 0.4109(3)
H9 H 0.4630 0.2100 0.4236
C8 C 0.2752(3) 0.0221(2) 0.5186(3)
H10 H 0.2768 -0.0144 0.6080
C9 C 0.3869(3) 0.1049(2) 0.5419(3)
H11 H 0.4641 0.1267 0.6470
O1B O 0.78677(16) 0.01018(11) 0.02955(18)
O3B O 0.68893(16) 0.17328(11) -0.06886(19)
C1B C 0.5164(2) 0.05834(16) -0.0049(3)
H2B H 0.4206 0.0891 -0.1000
H3B H 0.5218 0.0948 0.0908
C3B C 0.6768(2) 0.08292(16) -0.0160(2)
O2B O -0.03292(16) 0.15948(11) -0.07875(18)
H1B H -0.129(3) 0.175(2) -0.074(3)
N1B N -0.15515(19) -0.04462(14) -0.2354(2)
C2B C -0.2664(2) -0.12385(17) -0.2607(3)
H4B H -0.2630 -0.1600 -0.1703
C4B C -0.0420(3) 0.10000(19) -0.3324(3)
H5B H 0.0744 0.0736 -0.2722
H6B H -0.0560 0.1282 -0.4363
C5B C -0.1604(2) 0.00736(18) -0.3637(3)
C6B C -0.0684(3) 0.19126(18) -0.2387(3)
H7B H -0.1859 0.2162 -0.2965
H8B H 0.0052 0.2520 -0.2325
C7B C -0.3847(3) -0.1551(2) -0.4109(3)
H9B H -0.4630 -0.2100 -0.4236
C8B C -0.2752(3) -0.0221(2) -0.5186(3)
H10B H -0.2768 0.0144 -0.6080
C9B C -0.3869(3) -0.1049(2) -0.5419(3)
H11B H -0.4641 -0.1267 -0.6470
Ni1_2 Ni 1.0000 0.0000 0.0000
O1B_2 O -0.21323(16) 0.01018(11) 0.02955(18)
loop_
_geom_bond_atom_site_label_1
_geom_bond_atom_site_label_2
_geom_bond_site_symmetry_1
_geom_bond_site_symmetry_2
Ni1 O1 1_555 1_555
O1 C3 1_555 1_555
O2 Ni1 1_555 1_555
H1 O2 1_555 1_555
O3 C3 1_555 1_555
N1 Ni1 1_555 1_555
C1 H2 1_555 1_555
H3 C1 1_555 1_555
C2 N1 1_555 1_555
H4 C2 1_555 1_555
C3 C1 1_555 1_555
C4 H5 1_555 1_555
H6 C4 1_555 1_555
C5 N1 1_555 1_555
C6 O2 1_555 1_555
H7 C6 1_555 1_555
H8 C6 1_555 1_555
C7 C2 1_555 1_555
H9 C7 1_555 1_555
C8 C5 1_555 1_555
H10 C8 1_555 1_555
C9 C7 1_555 1_555
H11 C9 1_555 1_555
O1B C3B 1_555 1_555
O3B C3B 1_555 1_555
C1B C1 1_555 1_555
H2B C1B 1_555 1_555
H3B C1B 1_555 1_555
C3B C1B 1_555 1_555
O2B Ni1 1_555 1_555
H1B O2B 1_555 1_555
N1B Ni1 1_555 1_555
C2B N1B 1_555 1_555
H4B C2B 1_555 1_555
C4B H5B 1_555 1_555
H6B C4B 1_555 1_555
C5B N1B 1_555 1_555
C6B O2B 1_555 1_555
H7B C6B 1_555 1_555
H8B C6B 1_555 1_555
C7B C2B 1_555 1_555
H9B C7B 1_555 1_555
C8B C5B 1_555 1_555
H10B C8B 1_555 1_555
C9B C7B 1_555 1_555
H11B C9B 1_555 1_555
Ni1_2 O1B 1_555 1_555
O1B_2 Ni1 1_555 1_555
C4 C5 1_555 1_555
C4 C6 1_555 1_555
C8 C9 1_555 1_555
C4B C5B 1_555 1_555
C4B C6B 1_555 1_555
C8B C9B 1_555 1_555

#END
