
#######################################################################
#
#                 Cambridge Crystallographic Data Centre
#                                CCDC 
#
#######################################################################
#
# If this CIF has been generated from an entry in the Cambridge 
# Structural Database, then it will include bibliographic, chemical, 
# crystal, experimental, refinement or atomic coordinate data resulting 
# from the CCDC's data processing and validation procedures.
#
#######################################################################

data_BOZJUX
_symmetry_cell_setting           monoclinic
_symmetry_space_group_name_H-M   'P 21/c'
_symmetry_Int_Tables_number      14
_space_group_name_Hall           '-P 2ybc'
loop_
_symmetry_equiv_pos_site_id
_symmetry_equiv_pos_as_xyz
1 x,y,z
2 -x,1/2+y,1/2-z
3 -x,-y,-z
4 x,1/2-y,1/2+z
_cell_length_a                   8.5371(2)
_cell_length_b                   14.7378(3)
_cell_length_c                   9.7124(4)
_cell_angle_alpha                90
_cell_angle_beta                 124.347(2)
_cell_angle_gamma                90
_cell_volume                     1008.92
loop_
_atom_site_label
_atom_site_type_symbol
_atom_site_fract_x
_atom_site_fract_y
_atom_site_fract_z
Ni1 Ni 1.0000 0.0000 1.0000
O1 O 1.07990(15) 0.00530(7) 0.83663(12)
O2 O 1.19234(15) -0.10734(7) 1.13248(13)
H1 H 1.239(3) -0.1077(13) 1.083(2)
O3 O 1.31329(19) -0.09667(9) 0.94851(17)
N1 N 0.79791(17) -0.09643(8) 0.84418(14)
C1 C 0.9294(2) -0.20421(10) 1.07543(18)
H2 H 0.9029 -0.2664 1.0958
H3 H 0.9108 -0.1619 1.1443
C2 C 0.5559(2) -0.13717(10) 0.56146(19)
H4 H 0.4765 -0.1202 0.4474
C3 C 0.7904(2) -0.18100(10) 0.89410(18)
C4 C 0.6657(2) -0.24529(10) 0.7799(2)
H5 H 0.6613 -0.3042 0.8171
C5 C 0.6825(2) -0.07595(10) 0.68101(18)
H6 H 0.6883 -0.0165 0.6462
C6 C 1.1340(2) -0.19898(10) 1.1295(2)
H7 H 1.2170 -0.2257 1.2422
H8 H 1.1492 -0.2352 1.0519
C7 C 0.5479(2) -0.22401(11) 0.6123(2)
H9 H 0.4632 -0.2679 0.5336
C8 C 1.2097(2) -0.03780(10) 0.84083(19)
C9 C 1.0846(2) 0.03118(11) 0.55424(19)
H10 H 1.0426 0.0840 0.5885
H11 H 1.1304 0.0542 0.4871
C10 C 1.2491(2) -0.01530(11) 0.7103(2)
H12 H 1.2806 -0.0721 0.6766
H13 H 1.3618 0.0247 0.7615
O1B O 0.92010(15) -0.00530(7) 0.16337(12)
O3B O 0.68671(19) 0.09667(9) 0.05149(17)
C8B C 0.7903(2) 0.03780(10) 0.15917(19)
C9B C 0.9154(2) -0.03118(11) 0.44576(19)
H10B H 0.9574 -0.0840 0.4115
H11B H 0.8696 -0.0542 0.5129
C10B C 0.7509(2) 0.01530(11) 0.2897(2)
H12B H 0.7194 0.0721 0.3234
H13B H 0.6382 -0.0247 0.2385
O2B O 0.80766(15) 0.10734(7) 0.86752(13)
H1B H 0.761(3) 0.1077(13) 0.917(2)
N1B N 1.20209(17) 0.09643(8) 1.15582(14)
C1B C 1.0706(2) 0.20421(10) 0.92457(18)
H2B H 1.0971 0.2664 0.9042
H3B H 1.0892 0.1619 0.8557
C2B C 1.4441(2) 0.13717(10) 1.43854(19)
H4B H 1.5235 0.1202 1.5526
C3B C 1.2096(2) 0.18100(10) 1.10590(18)
C4B C 1.3343(2) 0.24529(10) 1.2201(2)
H5B H 1.3387 0.3042 1.1829
C5B C 1.3175(2) 0.07595(10) 1.31899(18)
H6B H 1.3117 0.0165 1.3538
C6B C 0.8660(2) 0.19898(10) 0.8705(2)
H7B H 0.7830 0.2257 0.7578
H8B H 0.8508 0.2352 0.9481
C7B C 1.4521(2) 0.22401(11) 1.3877(2)
H9B H 1.5368 0.2679 1.4664
Ni1_2 Ni 1.0000 0.0000 0.0000
O1B_2 O 0.92010(15) -0.00530(7) 1.16337(12)
loop_
_geom_bond_atom_site_label_1
_geom_bond_atom_site_label_2
_geom_bond_site_symmetry_1
_geom_bond_site_symmetry_2
Ni1 O1 1_555 1_555
O1 C8 1_555 1_555
O2 Ni1 1_555 1_555
H1 O2 1_555 1_555
O3 C8 1_555 1_555
N1 Ni1 1_555 1_555
C1 H2 1_555 1_555
H3 C1 1_555 1_555
C2 H4 1_555 1_555
C3 N1 1_555 1_555
C4 C3 1_555 1_555
H5 C4 1_555 1_555
C5 N1 1_555 1_555
H6 C5 1_555 1_555
C6 O2 1_555 1_555
H7 C6 1_555 1_555
H8 C6 1_555 1_555
C7 C2 1_555 1_555
H9 C7 1_555 1_555
C8 C10 1_555 1_555
C9 H10 1_555 1_555
H11 C9 1_555 1_555
C10 C9 1_555 1_555
H12 C10 1_555 1_555
H13 C10 1_555 1_555
O1B C8B 1_555 1_555
O3B C8B 1_555 1_555
C8B C10B 1_555 1_555
C9B C9 1_555 1_555
H10B C9B 1_555 1_555
H11B C9B 1_555 1_555
C10B C9B 1_555 1_555
H12B C10B 1_555 1_555
H13B C10B 1_555 1_555
O2B Ni1 1_555 1_555
H1B O2B 1_555 1_555
N1B Ni1 1_555 1_555
C1B H2B 1_555 1_555
H3B C1B 1_555 1_555
C2B H4B 1_555 1_555
C3B N1B 1_555 1_555
C4B C3B 1_555 1_555
H5B C4B 1_555 1_555
C5B N1B 1_555 1_555
H6B C5B 1_555 1_555
C6B O2B 1_555 1_555
H7B C6B 1_555 1_555
H8B C6B 1_555 1_555
C7B C2B 1_555 1_555
H9B C7B 1_555 1_555
Ni1_2 O1B 1_555 1_555
O1B_2 Ni1 1_555 1_555
C1 C3 1_555 1_555
C1 C6 1_555 1_555
C2 C5 1_555 1_555
C4 C7 1_555 1_555
C1B C3B 1_555 1_555
C1B C6B 1_555 1_555
C2B C5B 1_555 1_555
C4B C7B 1_555 1_555

#END
