
#######################################################################
#
#                 Cambridge Crystallographic Data Centre
#                                CCDC 
#
#######################################################################
#
# If this CIF has been generated from an entry in the Cambridge 
# Structural Database, then it will include bibliographic, chemical, 
# crystal, experimental, refinement or atomic coordinate data resulting 
# from the CCDC's data processing and validation procedures.
#
#######################################################################

data_BOZLIN
_symmetry_cell_setting           monoclinic
_symmetry_space_group_name_H-M   'P 21/c'
_symmetry_Int_Tables_number      14
_space_group_name_Hall           '-P 2ybc'
loop_
_symmetry_equiv_pos_site_id
_symmetry_equiv_pos_as_xyz
1 x,y,z
2 -x,1/2+y,1/2-z
3 -x,-y,-z
4 x,1/2-y,1/2+z
_cell_length_a                   16.1454(4)
_cell_length_b                   14.2384(3)
_cell_length_c                   8.1262(2)
_cell_angle_alpha                90
_cell_angle_beta                 101.990(2)
_cell_angle_gamma                90
_cell_volume                     1827.33
loop_
_atom_site_label
_atom_site_type_symbol
_atom_site_fract_x
_atom_site_fract_y
_atom_site_fract_z
Ni1 Ni 0.27219(2) 0.02964(2) 0.74286(3)
O1 O 0.35113(9) 0.14400(9) 0.81797(18)
N1 N 0.19638(10) -0.08845(10) 0.67508(18)
C1 C 0.12268(12) -0.08469(12) 0.5615(2)
H1 H 0.1068 -0.0268 0.5056
C2 C 0.06905(12) -0.16069(12) 0.5222(2)
C3 C 0.09293(13) -0.24523(13) 0.6048(3)
H2 H 0.0576 -0.2990 0.5814
C4 C 0.16813(14) -0.24988(13) 0.7206(3)
H3 H 0.1854 -0.3070 0.7781
C5 C 0.21820(12) -0.17079(13) 0.7524(2)
H4 H 0.2702 -0.1747 0.8321
O2 O -0.00791(9) -0.08045(10) 0.27914(19)
C6 C -0.01244(12) -0.15436(13) 0.3929(3)
H5 H -0.0229 -0.2144 0.3307
H6 H -0.0601 -0.1431 0.4497
N2 N 0.37355(10) -0.03739(10) 0.6773(2)
C7 C 0.36864(12) -0.07678(12) 0.5258(2)
H7 H 0.3162 -0.0736 0.4471
C8 C 0.43593(13) -0.12182(12) 0.4780(3)
C9 C 0.51207(13) -0.12624(14) 0.5945(3)
H8 H 0.5598 -0.1565 0.5666
C10 C 0.51778(14) -0.08658(15) 0.7503(3)
H9 H 0.5693 -0.0892 0.8317
C11 C 0.44722(13) -0.04268(14) 0.7873(3)
H10 H 0.4515 -0.0153 0.8953
O3 O 0.34564(10) -0.16302(10) 0.2057(2)
C12 C 0.42772(15) -0.16620(16) 0.3059(3)
H11 H 0.4668 -0.1338 0.2456
H12 H 0.4458 -0.2326 0.3206
O4 O 0.22444(8) 0.08673(8) 0.51615(15)
O5 O 0.31060(8) 0.20795(8) 0.50244(16)
C13 C 0.24768(11) 0.15685(11) 0.4420(2)
C14 C 0.19552(13) 0.18240(12) 0.2701(2)
H13 H 0.2346 0.1924 0.1925
H14 H 0.1665 0.2428 0.2798
C15 C 0.12928(12) 0.11042(12) 0.1917(2)
H15 H 0.0931 0.1379 0.0897
H16 H 0.0926 0.0963 0.2723
C16 C 0.16779(13) 0.01894(12) 0.1441(2)
H17 H 0.2082 -0.0054 0.2436
H18 H 0.1222 -0.0282 0.1120
C17 C 0.21331(12) 0.03038(11) 0.0007(2)
O6 O 0.28438(8) -0.00885(9) 0.00358(16)
O7 O 0.17889(8) 0.07705(8) -0.12815(15)
H19 H -0.0508(15) -0.0703(16) 0.234(3)
H20 H 0.3390(14) -0.1132(16) 0.162(3)
H21 H 0.3382(14) 0.1832(15) 0.877(3)
H22 H 0.3469(16) 0.1698(16) 0.721(4)
Ni1_2 Ni 0.27219(2) 0.02964(2) -0.25714(3)
O6_2 O 0.28438(8) -0.00885(9) 1.00358(16)
O7_2 O 0.17889(8) 0.07705(8) 0.87185(15)
loop_
_geom_bond_atom_site_label_1
_geom_bond_atom_site_label_2
_geom_bond_site_symmetry_1
_geom_bond_site_symmetry_2
Ni1 O1 1_555 1_555
O1 H21 1_555 1_555
N1 Ni1 1_555 1_555
C1 N1 1_555 1_555
H1 C1 1_555 1_555
C2 C1 1_555 1_555
C3 C2 1_555 1_555
H2 C3 1_555 1_555
C4 C3 1_555 1_555
H3 C4 1_555 1_555
C5 N1 1_555 1_555
H4 C5 1_555 1_555
O2 C6 1_555 1_555
C6 C2 1_555 1_555
H5 C6 1_555 1_555
H6 C6 1_555 1_555
N2 Ni1 1_555 1_555
C7 N2 1_555 1_555
H7 C7 1_555 1_555
C8 C7 1_555 1_555
C9 C8 1_555 1_555
H8 C9 1_555 1_555
C10 C9 1_555 1_555
H9 C10 1_555 1_555
C11 N2 1_555 1_555
H10 C11 1_555 1_555
O3 C12 1_555 1_555
C12 C8 1_555 1_555
H11 C12 1_555 1_555
H12 C12 1_555 1_555
O4 Ni1 1_555 1_555
O5 C13 1_555 1_555
C13 O4 1_555 1_555
C14 C13 1_555 1_555
H13 C14 1_555 1_555
H14 C14 1_555 1_555
C15 C14 1_555 1_555
H15 C15 1_555 1_555
H16 C15 1_555 1_555
C16 C15 1_555 1_555
H17 C16 1_555 1_555
H18 C16 1_555 1_555
C17 C16 1_555 1_555
O6 C17 1_555 1_555
O7 C17 1_555 1_555
H19 O2 1_555 1_555
H20 O3 1_555 1_555
H22 O1 1_555 1_555
Ni1_2 O6 1_555 1_555
O6_2 Ni1 1_555 1_555
O7_2 Ni1 1_555 1_555
C4 C5 1_555 1_555
C10 C11 1_555 1_555
O7 Ni1_2 1_555 1_555

#END
