
#######################################################################
#
#                 Cambridge Crystallographic Data Centre
#                                CCDC 
#
#######################################################################
#
# If this CIF has been generated from an entry in the Cambridge 
# Structural Database, then it will include bibliographic, chemical, 
# crystal, experimental, refinement or atomic coordinate data resulting 
# from the CCDC's data processing and validation procedures.
#
#######################################################################

data_BOZNUB
_symmetry_cell_setting           monoclinic
_symmetry_space_group_name_H-M   'C 2/c'
_symmetry_Int_Tables_number      15
_space_group_name_Hall           '-C 2yn'
loop_
_symmetry_equiv_pos_site_id
_symmetry_equiv_pos_as_xyz
1 x,y,z
2 -x,y,1/2-z
3 1/2+x,1/2+y,z
4 1/2-x,1/2+y,1/2-z
5 -x,-y,-z
6 x,-y,1/2+z
7 1/2-x,1/2-y,-z
8 1/2+x,1/2-y,1/2+z
_cell_length_a                   15.9244(9)
_cell_length_b                   13.6550(4)
_cell_length_c                   9.9946(6)
_cell_angle_alpha                90
_cell_angle_beta                 124.165(8)
_cell_angle_gamma                90
_cell_volume                     1798.24
loop_
_atom_site_label
_atom_site_type_symbol
_atom_site_fract_x
_atom_site_fract_y
_atom_site_fract_z
Co1 Co 0.5000 0.25814(2) 0.2500
O1 O 0.10444(9) 0.35343(9) -0.22236(16)
H1 H 0.0803(16) 0.3662(16) -0.318(3)
O2 O 0.43766(10) 0.25854(8) 0.00562(15)
O3 O 0.51012(12) 0.13115(11) -0.03080(18)
N1 N 0.38941(10) 0.36723(10) 0.20302(18)
C1 C 0.22553(12) 0.44135(12) 0.0230(2)
C2 C 0.12494(13) 0.44363(12) -0.1376(2)
H2 H 0.0705 0.4569 -0.1204
H3 H 0.1249 0.4975 -0.2039
C3 C 0.24857(14) 0.51259(14) 0.1370(2)
H4 H 0.2008 0.5624 0.1151
C4 C 0.29841(12) 0.37079(12) 0.0605(2)
H5 H 0.2833 0.3225 -0.0184
C5 C 0.3757(2) 0.21388(17) -0.2630(3)
H6 H 0.3977 0.1730 -0.3186
H7 H 0.3762 0.2828 -0.2898
H8 H 0.3069 0.1950 -0.2978
C6 C 0.34204(15) 0.51051(16) 0.2832(3)
H9 H 0.3599 0.5593 0.3628
C7 C 0.44727(15) 0.19970(13) -0.0826(2)
C8 C 0.40918(14) 0.43612(15) 0.3117(3)
H10 H 0.4725 0.4340 0.4137
O1A O 0.89556(9) 0.35343(9) 0.72236(16)
H1A H 0.9197(16) 0.3662(16) 0.818(3)
O2A O 0.56234(10) 0.25854(8) 0.49438(15)
O3A O 0.48988(12) 0.13115(11) 0.53080(18)
N1A N 0.61059(10) 0.36723(10) 0.29698(18)
C1A C 0.77447(12) 0.44135(12) 0.4770(2)
C2A C 0.87506(13) 0.44363(12) 0.6376(2)
H2A H 0.9295 0.4569 0.6204
H3A H 0.8751 0.4975 0.7039
C3A C 0.75143(14) 0.51259(14) 0.3630(2)
H4A H 0.7992 0.5624 0.3849
C4A C 0.70159(12) 0.37079(12) 0.4395(2)
H5A H 0.7167 0.3225 0.5184
C5A C 0.6243(2) 0.21388(17) 0.7630(3)
H6A H 0.6023 0.1730 0.8186
H7A H 0.6238 0.2828 0.7898
H8A H 0.6931 0.1950 0.7978
C6A C 0.65796(15) 0.51051(16) 0.2168(3)
H9A H 0.6401 0.5593 0.1372
C7A C 0.55273(15) 0.19970(13) 0.5826(2)
C8A C 0.59082(14) 0.43612(15) 0.1883(3)
H10A H 0.5275 0.4340 0.0863
Co1F Co 0.0000 0.24186(2) -0.2500
Co1F_2 Co 1.0000 0.24186(2) 0.7500
O1F O 0.39556(9) 0.14657(9) 0.22236(16)
O1G O 0.60444(9) 0.14657(9) 0.27764(16)
loop_
_geom_bond_atom_site_label_1
_geom_bond_atom_site_label_2
_geom_bond_site_symmetry_1
_geom_bond_site_symmetry_2
Co1 O2 1_555 1_555
O1 H1 1_555 1_555
O2 C7 1_555 1_555
O3 C7 1_555 1_555
N1 Co1 1_555 1_555
C1 C2 1_555 1_555
C2 O1 1_555 1_555
H2 C2 1_555 1_555
H3 C2 1_555 1_555
C3 C1 1_555 1_555
H4 C3 1_555 1_555
C4 N1 1_555 1_555
H5 C4 1_555 1_555
C5 H6 1_555 1_555
H7 C5 1_555 1_555
H8 C5 1_555 1_555
C6 C3 1_555 1_555
H9 C6 1_555 1_555
C7 C5 1_555 1_555
C8 N1 1_555 1_555
H10 C8 1_555 1_555
O1A H1A 1_555 1_555
O2A Co1 1_555 1_555
O3A C7A 1_555 1_555
N1A Co1 1_555 1_555
C1A C2A 1_555 1_555
C2A O1A 1_555 1_555
H2A C2A 1_555 1_555
H3A C2A 1_555 1_555
C3A C1A 1_555 1_555
H4A C3A 1_555 1_555
C4A N1A 1_555 1_555
H5A C4A 1_555 1_555
C5A H6A 1_555 1_555
H7A C5A 1_555 1_555
H8A C5A 1_555 1_555
C6A C3A 1_555 1_555
H9A C6A 1_555 1_555
C7A O2A 1_555 1_555
C8A N1A 1_555 1_555
H10A C8A 1_555 1_555
Co1F O1 1_555 1_555
Co1F_2 O1A 1_555 1_555
O1F Co1 1_555 1_555
O1G Co1 1_555 1_555
C1 C4 1_555 1_555
C6 C8 1_555 1_555
C1A C4A 1_555 1_555
C5A C7A 1_555 1_555
C6A C8A 1_555 1_555

#END
