
#######################################################################
#
#                 Cambridge Crystallographic Data Centre
#                                CCDC 
#
#######################################################################
#
# If this CIF has been generated from an entry in the Cambridge 
# Structural Database, then it will include bibliographic, chemical, 
# crystal, experimental, refinement or atomic coordinate data resulting 
# from the CCDC's data processing and validation procedures.
#
#######################################################################

data_BOZQIQ
_symmetry_cell_setting           monoclinic
_symmetry_space_group_name_H-M   'P 21/n'
_symmetry_Int_Tables_number      14
_space_group_name_Hall           '-P 2yn'
loop_
_symmetry_equiv_pos_site_id
_symmetry_equiv_pos_as_xyz
1 x,y,z
2 1/2+x,1/2-y,1/2+z
3 -x,-y,-z
4 1/2-x,1/2+y,1/2-z
_cell_length_a                   6.4102(6)
_cell_length_b                   16.4887(16)
_cell_length_c                   10.2176(10)
_cell_angle_alpha                90
_cell_angle_beta                 99.417(2)
_cell_angle_gamma                90
_cell_volume                     1065.4
loop_
_atom_site_label
_atom_site_type_symbol
_atom_site_fract_x
_atom_site_fract_y
_atom_site_fract_z
V1 V 0.20839(18) 0.93655(7) 0.87461(11)
S1 S 0.2979(3) 1.03224(10) 1.15162(16)
N1 N 0.1818(9) 0.8698(3) 0.6938(5)
N2 N 0.2003(8) 0.8042(3) 0.9308(5)
O1 O 0.1831(8) 1.0228(3) 0.8062(5)
O2 O 0.2585(7) 0.9567(3) 1.0696(4)
O3 O 0.3475(8) 1.0100(3) 1.2897(4)
O4 O 0.4716(7) 1.0789(3) 1.1084(5)
O5 O 0.1078(7) 1.0847(3) 1.1225(4)
C1 C 0.1719(11) 0.9075(4) 0.5761(7)
H1 H 0.1711 0.9651 0.5741
C2 C 0.1627(11) 0.8658(5) 0.4579(7)
H2 H 0.1513 0.8939 0.3760
C3 C 0.1706(11) 0.7814(5) 0.4620(7)
H3 H 0.1684 0.7512 0.3826
C4 C 0.1817(11) 0.7420(5) 0.5815(7)
H4 H 0.1894 0.6845 0.5857
C5 C 0.1813(10) 0.7877(4) 0.6974(7)
C6 C 0.1775(10) 0.7508(4) 0.8290(7)
C7 C 0.1467(11) 0.6687(4) 0.8484(7)
H5 H 0.1219 0.6328 0.7747
C8 C 0.1525(11) 0.6395(4) 0.9750(7)
H6 H 0.1378 0.5831 0.9902
C9 C 0.1803(11) 0.6940(4) 1.0805(7)
H7 H 0.1851 0.6755 1.1690
C10 C 0.2007(10) 0.7749(4) 1.0538(7)
H8 H 0.2159 0.8121 1.1258
O4B O 0.5284(7) 0.9211(3) 0.8916(5)
O5B O -0.1078(7) 0.9153(3) 0.8775(4)
V1B V 0.79161(18) 1.06345(7) 1.12539(11)
V1B_2 V -0.20839(18) 1.06345(7) 1.12539(11)
loop_
_geom_bond_atom_site_label_1
_geom_bond_atom_site_label_2
_geom_bond_site_symmetry_1
_geom_bond_site_symmetry_2
V1 N1 1_555 1_555
S1 O2 1_555 1_555
N1 C1 1_555 1_555
N2 V1 1_555 1_555
O1 V1 1_555 1_555
O2 V1 1_555 1_555
O3 S1 1_555 1_555
O4 S1 1_555 1_555
O5 S1 1_555 1_555
C1 H1 1_555 1_555
C2 C1 1_555 1_555
H2 C2 1_555 1_555
C3 C2 1_555 1_555
H3 C3 1_555 1_555
C4 C3 1_555 1_555
H4 C4 1_555 1_555
C5 N1 1_555 1_555
C6 N2 1_555 1_555
C7 C6 1_555 1_555
H5 C7 1_555 1_555
C8 C7 1_555 1_555
H6 C8 1_555 1_555
C9 C8 1_555 1_555
H7 C9 1_555 1_555
C10 N2 1_555 1_555
H8 C10 1_555 1_555
O4B V1 1_555 1_555
O5B V1 1_555 1_555
V1B O4 1_555 1_555
V1B_2 O5 1_555 1_555
C4 C5 1_555 1_555
C5 C6 1_555 1_555
C9 C10 1_555 1_555

#END
