
#######################################################################
#
#                 Cambridge Crystallographic Data Centre
#                                CCDC 
#
#######################################################################
#
# If this CIF has been generated from an entry in the Cambridge 
# Structural Database, then it will include bibliographic, chemical, 
# crystal, experimental, refinement or atomic coordinate data resulting 
# from the CCDC's data processing and validation procedures.
#
#######################################################################

data_BOZQAK
_symmetry_cell_setting           triclinic
_symmetry_space_group_name_H-M   'P -1'
_symmetry_Int_Tables_number      2
_space_group_name_Hall           '-P 1'
loop_
_symmetry_equiv_pos_site_id
_symmetry_equiv_pos_as_xyz
1 x,y,z
2 -x,-y,-z
_cell_length_a                   7.7137(6)
_cell_length_b                   8.2875(4)
_cell_length_c                   8.5034(6)
_cell_angle_alpha                116.447(6)
_cell_angle_beta                 99.367(7)
_cell_angle_gamma                101.375(5)
_cell_volume                     457.29
loop_
_atom_site_label
_atom_site_type_symbol
_atom_site_fract_x
_atom_site_fract_y
_atom_site_fract_z
Ni1 Ni 0.0000 0.5000 0.0000
O1 O -0.1244(2) 0.51067(17) -0.22850(19)
O2 O 0.26185(18) 0.57843(18) -0.02475(19)
O3 O 0.1885(2) 0.61726(18) -0.26801(19)
N1 N -0.0615(2) 0.2222(2) -0.1959(2)
C1 C -0.1860(3) 0.1715(2) -0.3517(3)
C2 C -0.2451(3) 0.3290(2) -0.3672(3)
H1 H -0.2458 0.3148 -0.4893
H2 H -0.3722 0.3188 -0.3564
C3 C -0.2584(3) -0.0160(3) -0.4918(3)
H3 H -0.3478 -0.0499 -0.6012
C4 C -0.1970(3) -0.1527(3) -0.4679(3)
H4 H -0.2439 -0.2817 -0.5614
C5 C -0.0678(3) -0.0998(3) -0.3079(3)
H5 H -0.0238 -0.1913 -0.2898
C6 C -0.0030(3) 0.0887(3) -0.1741(3)
H6 H 0.0856 0.1252 -0.0631
C7 C 0.3031(3) 0.6360(2) -0.1323(3)
C8 C 0.5051(3) 0.7378(3) -0.0936(3)
H7 H 0.5528 0.6601 -0.1935
H8 H 0.5772 0.7526 0.0221
C9 C 0.5315(3) 0.9334(3) -0.0780(3)
H9 H 0.6637 0.9918 -0.0585
H10 H 0.4614 0.9175 -0.1950
H11 H -0.020(4) 0.539(4) -0.259(4)
O2A O 0.73815(18) 1.42157(18) 0.02475(19)
O3A O 0.8115(2) 1.38274(18) 0.26801(19)
C7A C 0.6969(3) 1.3640(2) 0.1323(3)
C8A C 0.4949(3) 1.2622(3) 0.0936(3)
H7A H 0.4472 1.3399 0.1935
H8A H 0.4228 1.2474 -0.0221
C9A C 0.4685(3) 1.0666(3) 0.0780(3)
H9A H 0.3363 1.0082 0.0585
H10A H 0.5386 1.0825 0.1950
O1A O 0.1244(2) 0.48933(17) 0.22850(19)
N1A N 0.0615(2) 0.7778(2) 0.1959(2)
C1A C 0.1860(3) 0.8285(2) 0.3517(3)
C2A C 0.2451(3) 0.6710(2) 0.3672(3)
H1A H 0.2458 0.6852 0.4893
H2A H 0.3722 0.6812 0.3564
C3A C 0.2584(3) 1.0160(3) 0.4918(3)
H3A H 0.3478 1.0499 0.6012
C4A C 0.1970(3) 1.1527(3) 0.4679(3)
H4A H 0.2439 1.2817 0.5614
C5A C 0.0678(3) 1.0998(3) 0.3079(3)
H5A H 0.0238 1.1913 0.2898
C6A C 0.0030(3) 0.9113(3) 0.1741(3)
H6A H -0.0856 0.8748 0.0631
H11A H 0.020(4) 0.461(4) 0.259(4)
Ni1_2 Ni 1.0000 1.5000 0.0000
O2A_2 O -0.26185(18) 0.42157(18) 0.02475(19)
loop_
_geom_bond_atom_site_label_1
_geom_bond_atom_site_label_2
_geom_bond_site_symmetry_1
_geom_bond_site_symmetry_2
Ni1 O1 1_555 1_555
O1 C2 1_555 1_555
O2 Ni1 1_555 1_555
O3 C7 1_555 1_555
N1 Ni1 1_555 1_555
C1 N1 1_555 1_555
C2 C1 1_555 1_555
H1 C2 1_555 1_555
H2 C2 1_555 1_555
C3 C1 1_555 1_555
H3 C3 1_555 1_555
C4 C3 1_555 1_555
H4 C4 1_555 1_555
C5 C4 1_555 1_555
H5 C5 1_555 1_555
C6 N1 1_555 1_555
H6 C6 1_555 1_555
C7 O2 1_555 1_555
C8 C7 1_555 1_555
H7 C8 1_555 1_555
H8 C8 1_555 1_555
C9 C8 1_555 1_555
H9 C9 1_555 1_555
H10 C9 1_555 1_555
H11 O1 1_555 1_555
O2A C7A 1_555 1_555
O3A C7A 1_555 1_555
C7A C8A 1_555 1_555
C8A H7A 1_555 1_555
H8A C8A 1_555 1_555
C9A C9 1_555 1_555
H9A C9A 1_555 1_555
H10A C9A 1_555 1_555
O1A Ni1 1_555 1_555
N1A Ni1 1_555 1_555
C1A N1A 1_555 1_555
C2A O1A 1_555 1_555
H1A C2A 1_555 1_555
H2A C2A 1_555 1_555
C3A C1A 1_555 1_555
H3A C3A 1_555 1_555
C4A C3A 1_555 1_555
H4A C4A 1_555 1_555
C5A C4A 1_555 1_555
H5A C5A 1_555 1_555
C6A N1A 1_555 1_555
H6A C6A 1_555 1_555
H11A O1A 1_555 1_555
Ni1_2 O2A 1_555 1_555
O2A_2 Ni1 1_555 1_555
C5 C6 1_555 1_555
C8A C9A 1_555 1_555
C1A C2A 1_555 1_555
C5A C6A 1_555 1_555

#END
