
#######################################################################
#
#                 Cambridge Crystallographic Data Centre
#                                CCDC 
#
#######################################################################
#
# If this CIF has been generated from an entry in the Cambridge 
# Structural Database, then it will include bibliographic, chemical, 
# crystal, experimental, refinement or atomic coordinate data resulting 
# from the CCDC's data processing and validation procedures.
#
#######################################################################

data_BOZRUF
_symmetry_cell_setting           triclinic
_symmetry_space_group_name_H-M   'P -1'
_symmetry_Int_Tables_number      2
_space_group_name_Hall           '-P 1'
loop_
_symmetry_equiv_pos_site_id
_symmetry_equiv_pos_as_xyz
1 x,y,z
2 -x,-y,-z
_cell_length_a                   9.4358(6)
_cell_length_b                   11.1819(7)
_cell_length_c                   15.3794(15)
_cell_angle_alpha                70.948(7)
_cell_angle_beta                 82.226(7)
_cell_angle_gamma                88.691(5)
_cell_volume                     1519.31
loop_
_atom_site_label
_atom_site_type_symbol
_atom_site_fract_x
_atom_site_fract_y
_atom_site_fract_z
Mn1 Mn 0.84758(10) 0.40472(10) 0.51499(8)
Mn2 Mn 0.5000 0.5000 0.5000
O1 O 0.7718(5) 0.2077(5) 0.5799(4)
O2 O 0.6120(5) 0.3287(5) 0.5054(4)
O3 O 0.4649(5) 0.5274(5) 0.3611(4)
O4 O 0.2293(5) 0.5533(5) 0.3657(4)
O5 O 0.2817(5) 0.4131(5) 0.5678(3)
O6 O 0.0570(5) 0.3837(4) 0.5589(4)
N1 N 0.9104(6) 0.3797(6) 0.3757(5)
Br1 Br 0.52498(11) -0.25762(9) 0.76193(8)
Br2 Br 0.14101(9) 0.04180(10) 0.53817(9)
Br3 Br 0.08722(11) 0.69604(12) 0.02493(8)
Br4 Br 0.68915(11) 0.64954(13) -0.00039(8)
Br5 Br 0.42826(10) 0.06204(10) 0.87805(7)
Br6 Br -0.15330(11) -0.01404(12) 0.85982(9)
C1 C 0.6505(7) 0.2225(7) 0.5568(5)
C2 C 0.5458(7) 0.1113(7) 0.5873(5)
C3 C 0.5789(8) -0.0013(7) 0.6493(6)
H1 H 0.6671 -0.0113 0.6712
C4 C 0.4795(8) -0.1002(7) 0.6789(6)
C5 C 0.3507(8) -0.0894(8) 0.6451(6)
H2 H 0.2863 -0.1577 0.6638
C6 C 0.3189(7) 0.0239(7) 0.5833(6)
C7 C 0.4168(7) 0.1259(7) 0.5510(5)
H3 H 0.3963 0.2011 0.5067
C8 C 0.3524(8) 0.5547(7) 0.3227(6)
C9 C 0.3656(8) 0.5882(7) 0.2201(5)
C10 C 0.4987(7) 0.5978(7) 0.1669(6)
H4 H 0.5811 0.5790 0.1953
C11 C 0.5075(9) 0.6357(8) 0.0713(6)
C12 C 0.3872(9) 0.6662(8) 0.0273(6)
H5 H 0.3944 0.6928 -0.0371
C13 C 0.2541(9) 0.6562(8) 0.0819(6)
C14 C 0.2431(8) 0.6185(7) 0.1768(6)
H6 H 0.1539 0.6133 0.2122
C15 C 0.1667(7) 0.3511(7) 0.5985(5)
C16 C 0.1565(7) 0.2433(6) 0.6883(5)
C17 C 0.2749(8) 0.2095(7) 0.7345(6)
H7 H 0.3614 0.2536 0.7099
C18 C 0.2648(8) 0.1111(7) 0.8167(6)
C19 C 0.1377(9) 0.0447(8) 0.8546(6)
H8 H 0.1304 -0.0210 0.9109
C20 C 0.0217(8) 0.0783(8) 0.8071(6)
C21 C 0.0285(8) 0.1767(7) 0.7239(6)
H9 H -0.0512 0.1975 0.6928
C22 C 1.0306(9) 0.3226(9) 0.3611(7)
H10 H 1.0895 0.2971 0.4075
C23 C 1.0707(10) 0.2999(11) 0.2782(8)
H11 H 1.1566 0.2605 0.2689
C24 C 0.9857(10) 0.3347(11) 0.2106(8)
H12 H 1.0108 0.3172 0.1554
C25 C 0.8641(10) 0.3950(9) 0.2243(7)
H13 H 0.8061 0.4238 0.1776
C26 C 0.8273(9) 0.4133(8) 0.3076(6)
H14 H 0.7405 0.4509 0.3179
Mn1A Mn 0.15242(10) 0.59528(10) 0.48501(8)
O1A O 0.2282(5) 0.7923(5) 0.4201(4)
O2A O 0.3880(5) 0.6713(5) 0.4946(4)
O3A O 0.5351(5) 0.4726(5) 0.6389(4)
O4A O 0.7707(5) 0.4467(5) 0.6343(4)
O5A O 0.7183(5) 0.5869(5) 0.4322(3)
O6A O 0.9430(5) 0.6163(4) 0.4411(4)
N1A N 0.0896(6) 0.6203(6) 0.6243(5)
Br1A Br 0.47502(11) 1.25762(9) 0.23807(8)
Br2A Br 0.85899(9) 0.95820(10) 0.46183(9)
Br3A Br 0.91278(11) 0.30396(12) 0.97507(8)
Br4A Br 0.31085(11) 0.35046(13) 1.00039(8)
Br5A Br 0.57174(10) 0.93796(10) 0.12195(7)
Br6A Br 1.15330(11) 1.01404(12) 0.14018(9)
C1A C 0.3495(7) 0.7775(7) 0.4432(5)
C2A C 0.4542(7) 0.8887(7) 0.4127(5)
C3A C 0.4211(8) 1.0013(7) 0.3507(6)
H1A H 0.3329 1.0113 0.3288
C4A C 0.5205(8) 1.1002(7) 0.3211(6)
C5A C 0.6493(8) 1.0894(8) 0.3549(6)
H2A H 0.7137 1.1577 0.3362
C6A C 0.6811(7) 0.9761(7) 0.4167(6)
C7A C 0.5832(7) 0.8741(7) 0.4490(5)
H3A H 0.6037 0.7989 0.4933
C8A C 0.6476(8) 0.4453(7) 0.6773(6)
C9A C 0.6344(8) 0.4118(7) 0.7799(5)
C10A C 0.5013(7) 0.4022(7) 0.8331(6)
H4A H 0.4189 0.4210 0.8047
C11A C 0.4925(9) 0.3643(8) 0.9287(6)
C12A C 0.6128(9) 0.3338(8) 0.9727(6)
H5A H 0.6056 0.3072 1.0371
C13A C 0.7459(9) 0.3438(8) 0.9181(6)
C14A C 0.7569(8) 0.3815(7) 0.8232(6)
H6A H 0.8461 0.3867 0.7878
C15A C 0.8333(7) 0.6489(7) 0.4015(5)
C16A C 0.8435(7) 0.7567(6) 0.3117(5)
C17A C 0.7251(8) 0.7905(7) 0.2655(6)
H7A H 0.6386 0.7464 0.2901
C18A C 0.7352(8) 0.8889(7) 0.1833(6)
C19A C 0.8623(9) 0.9553(8) 0.1454(6)
H8A H 0.8696 1.0210 0.0891
C20A C 0.9783(8) 0.9217(8) 0.1929(6)
C21A C 0.9715(8) 0.8233(7) 0.2761(6)
H9A H 1.0512 0.8025 0.3072
C22A C -0.0306(9) 0.6774(9) 0.6389(7)
H10A H -0.0895 0.7029 0.5925
C23A C -0.0707(10) 0.7001(11) 0.7218(8)
H11A H -0.1566 0.7395 0.7311
C24A C 0.0143(10) 0.6653(11) 0.7894(8)
H12A H -0.0108 0.6828 0.8446
C25A C 0.1359(10) 0.6050(9) 0.7757(7)
H13A H 0.1939 0.5762 0.8224
C26A C 0.1727(9) 0.5867(8) 0.6924(6)
H14A H 0.2595 0.5491 0.6821
Mn1_2 Mn -0.15242(10) 0.40472(10) 0.51499(8)
Mn1A_2 Mn 1.15242(10) 0.59528(10) 0.48501(8)
O6_2 O 1.0570(5) 0.3837(4) 0.5589(4)
O6A_2 O -0.0570(5) 0.6163(4) 0.4411(4)
loop_
_geom_bond_atom_site_label_1
_geom_bond_atom_site_label_2
_geom_bond_site_symmetry_1
_geom_bond_site_symmetry_2
Mn1 O1 1_555 1_555
Mn2 O2 1_555 1_555
O1 C1 1_555 1_555
O2 Mn1 1_555 1_555
O3 Mn2 1_555 1_555
O4 C8 1_555 1_555
O5 Mn2 1_555 1_555
O6 C15 1_555 1_555
N1 Mn1 1_555 1_555
Br1 C4 1_555 1_555
Br2 C6 1_555 1_555
Br3 C13 1_555 1_555
Br4 C11 1_555 1_555
Br5 C18 1_555 1_555
Br6 C20 1_555 1_555
C1 O2 1_555 1_555
C2 C1 1_555 1_555
C3 C2 1_555 1_555
H1 C3 1_555 1_555
C4 C3 1_555 1_555
C5 C4 1_555 1_555
H2 C5 1_555 1_555
C6 C5 1_555 1_555
C7 C2 1_555 1_555
H3 C7 1_555 1_555
C8 O3 1_555 1_555
C9 C8 1_555 1_555
C10 C9 1_555 1_555
H4 C10 1_555 1_555
C11 C10 1_555 1_555
C12 C11 1_555 1_555
H5 C12 1_555 1_555
C13 C12 1_555 1_555
C14 C9 1_555 1_555
H6 C14 1_555 1_555
C15 O5 1_555 1_555
C16 C15 1_555 1_555
C17 C16 1_555 1_555
H7 C17 1_555 1_555
C18 C17 1_555 1_555
C19 C18 1_555 1_555
H8 C19 1_555 1_555
C20 C19 1_555 1_555
C21 C16 1_555 1_555
H9 C21 1_555 1_555
C22 N1 1_555 1_555
H10 C22 1_555 1_555
C23 C22 1_555 1_555
H11 C23 1_555 1_555
C24 C23 1_555 1_555
H12 C24 1_555 1_555
C25 C24 1_555 1_555
H13 C25 1_555 1_555
C26 N1 1_555 1_555
H14 C26 1_555 1_555
Mn1A O4 1_555 1_555
O1A Mn1A 1_555 1_555
O2A Mn2 1_555 1_555
O3A Mn2 1_555 1_555
O4A Mn1 1_555 1_555
O5A Mn1 1_555 1_555
O6A Mn1 1_555 1_555
N1A Mn1A 1_555 1_555
Br1A C4A 1_555 1_555
Br2A C6A 1_555 1_555
Br3A C13A 1_555 1_555
Br4A C11A 1_555 1_555
Br5A C18A 1_555 1_555
Br6A C20A 1_555 1_555
C1A O1A 1_555 1_555
C2A C1A 1_555 1_555
C3A C2A 1_555 1_555
H1A C3A 1_555 1_555
C4A C3A 1_555 1_555
C5A C4A 1_555 1_555
H2A C5A 1_555 1_555
C6A C5A 1_555 1_555
C7A C2A 1_555 1_555
H3A C7A 1_555 1_555
C8A O3A 1_555 1_555
C9A C8A 1_555 1_555
C10A C9A 1_555 1_555
H4A C10A 1_555 1_555
C11A C10A 1_555 1_555
C12A C11A 1_555 1_555
H5A C12A 1_555 1_555
C13A C12A 1_555 1_555
C14A C9A 1_555 1_555
H6A C14A 1_555 1_555
C15A O5A 1_555 1_555
C16A C15A 1_555 1_555
C17A C16A 1_555 1_555
H7A C17A 1_555 1_555
C18A C17A 1_555 1_555
C19A C18A 1_555 1_555
H8A C19A 1_555 1_555
C20A C19A 1_555 1_555
C21A C16A 1_555 1_555
H9A C21A 1_555 1_555
C22A N1A 1_555 1_555
H10A C22A 1_555 1_555
C23A C22A 1_555 1_555
H11A C23A 1_555 1_555
C24A C23A 1_555 1_555
H12A C24A 1_555 1_555
C25A C24A 1_555 1_555
H13A C25A 1_555 1_555
C26A N1A 1_555 1_555
H14A C26A 1_555 1_555
Mn1_2 O6 1_555 1_555
Mn1A_2 O6A 1_555 1_555
O6_2 Mn1 1_555 1_555
O6A_2 Mn1A 1_555 1_555
Mn2 O5A 1_555 1_555
O5 Mn1A 1_555 1_555
O6 Mn1A 1_555 1_555
C6 C7 1_555 1_555
C13 C14 1_555 1_555
C20 C21 1_555 1_555
C25 C26 1_555 1_555
Mn1A O2A 1_555 1_555
O2A C1A 1_555 1_555
O4A C8A 1_555 1_555
O6A C15A 1_555 1_555
C6A C7A 1_555 1_555
C13A C14A 1_555 1_555
C20A C21A 1_555 1_555
C25A C26A 1_555 1_555
Mn1_2 O6A_2 1_555 1_555
Mn1A_2 O6_2 1_555 1_555

#END
