
#######################################################################
#
#                 Cambridge Crystallographic Data Centre
#                                CCDC 
#
#######################################################################
#
# If this CIF has been generated from an entry in the Cambridge 
# Structural Database, then it will include bibliographic, chemical, 
# crystal, experimental, refinement or atomic coordinate data resulting 
# from the CCDC's data processing and validation procedures.
#
#######################################################################

data_BOZREP
_symmetry_cell_setting           orthorhombic
_symmetry_space_group_name_H-M   'P b c a'
_symmetry_Int_Tables_number      61
_space_group_name_Hall           '-P 2ac 2ab'
loop_
_symmetry_equiv_pos_site_id
_symmetry_equiv_pos_as_xyz
1 x,y,z
2 1/2-x,-y,1/2+z
3 1/2+x,1/2-y,-z
4 -x,1/2+y,1/2-z
5 -x,-y,-z
6 1/2+x,y,1/2-z
7 1/2-x,1/2+y,z
8 x,1/2-y,1/2+z
_cell_length_a                   19.561(3)
_cell_length_b                   27.197(4)
_cell_length_c                   38.561(6)
_cell_angle_alpha                90
_cell_angle_beta                 90
_cell_angle_gamma                90
_cell_volume                     20514.5
loop_
_atom_site_label
_atom_site_type_symbol
_atom_site_fract_x
_atom_site_fract_y
_atom_site_fract_z
Cl3 Cl 0.2027(12) -0.0488(5) 0.9715(7)
Cl5 Cl 0.2788(14) 0.1195(5) 0.6085(3)
Cl6 Cl -0.0590(9) 0.1750(5) 1.1227(4)
Cl7 Cl 0.5453(8) -0.0208(5) 0.6416(4)
Cl8 Cl 0.6198(16) 0.2643(7) 0.7111(6)
Cl9 Cl -0.0026(12) 0.4335(7) 1.0164(5)
Cl10 Cl 0.4549(16) 0.3608(7) 0.7838(6)
Cl11 Cl 0.4367(17) -0.0651(7) 0.9236(6)
Cl12 Cl 0.3649(14) 0.0201(15) 1.0248(7)
Cl13 Cl 0.513(2) 0.3199(8) 0.7060(14)
O1 O 0.2436(4) 0.0795(3) 0.8439(2)
O2 O 0.3176(4) 0.1464(3) 0.94375(18)
O3 O -0.0426(4) 0.3411(3) 1.0373(2)
O4 O -0.0651(4) 0.2530(3) 1.07659(19)
O5 O 0.6195(4) 0.1619(3) 0.6936(2)
O6 O 0.6063(4) 0.0603(4) 0.6767(2)
O7 O 0.3523(5) 0.0393(5) 0.9502(2)
O8 O 0.2252(6) 0.0016(4) 0.9000(3)
Nd1 Nd 0.00381(3) 0.25999(2) 1.021802(15)
Nd2 Nd 0.55934(3) 0.09838(2) 0.729785(14)
Nd3 Nd 0.28334(5) 0.08000(4) 0.90459(3)
Cl14 Cl 0.11863(14) 0.21851(11) 0.99262(8)
Cl15 Cl 0.44621(15) 0.09270(12) 0.77223(7)
C1 C -0.0122(5) 0.2197(4) 0.9353(3)
C2 C 0.0476(5) 0.2085(4) 0.8838(3)
H1 H 0.0333 0.2153 0.8596
C3 C 0.0221(5) 0.1589(4) 0.8960(3)
H2 H -0.0086 0.1433 0.8788
C4 C 0.1412(6) 0.1576(4) 0.8957(3)
C5 C -0.0477(5) 0.1365(4) 0.9517(3)
H3 H -0.0859 0.1535 0.9629
H4 H -0.0668 0.1096 0.9378
C6 C 0.0877(6) 0.0804(4) 0.9136(3)
H5 H 0.1272 0.0641 0.9030
H6 H 0.0466 0.0632 0.9057
C7 C 0.0004(5) 0.1349(4) 1.0101(3)
C8 C 0.0331(6) 0.0701(4) 0.9743(3)
H7 H 0.0039 0.0416 0.9683
C9 C 0.0673(6) 0.0646(4) 1.0098(3)
H8 H 0.0557 0.0326 1.0205
C10 C 0.1515(6) 0.0734(4) 0.9679(3)
C11 C 0.0515(6) 0.1126(4) 1.0661(3)
H9 H 0.0549 0.0805 1.0776
H10 H 0.0123 0.1300 1.0760
C12 C 0.1956(6) 0.0599(4) 1.0284(3)
H11 H 0.1807 0.0352 1.0453
H12 H 0.2360 0.0468 1.0165
C13 C 0.1108(5) 0.1915(5) 1.0775(3)
C14 C 0.1794(6) 0.1228(4) 1.0778(3)
H13 H 0.1803 0.0981 1.0967
C15 C 0.2237(6) 0.1671(4) 1.0868(3)
H14 H 0.2467 0.1632 1.1095
C16 C 0.2665(5) 0.1331(4) 1.0366(3)
C17 C 0.1869(6) 0.2582(4) 1.0952(3)
H15 H 0.1462 0.2734 1.1054
H16 H 0.2237 0.2598 1.1125
C18 C 0.3291(5) 0.2067(4) 1.0564(3)
H17 H 0.3440 0.2149 1.0799
H18 H 0.3680 0.1917 1.0443
C19 C 0.1608(5) 0.3106(4) 1.0446(3)
C20 C 0.2764(5) 0.2925(4) 1.0548(3)
H19 H 0.3044 0.3056 1.0741
C21 C 0.2717(5) 0.3297(4) 1.0249(3)
H20 H 0.2945 0.3610 1.0312
C22 C 0.3312(5) 0.2618(4) 1.0060(3)
C23 C 0.1647(6) 0.3707(4) 0.9984(3)
H21 H 0.1941 0.3995 0.9949
H22 H 0.1223 0.3820 1.0093
C24 C 0.3115(5) 0.3257(4) 0.9617(3)
H23 H 0.3164 0.3615 0.9627
H24 H 0.3530 0.3124 0.9509
C25 C 0.0875(6) 0.3285(4) 0.9587(3)
C26 C 0.1968(6) 0.3482(4) 0.9358(3)
H25 H 0.2121 0.3813 0.9284
C27 C 0.1521(6) 0.3207(4) 0.9071(3)
H26 H 0.1466 0.3405 0.8857
C28 C 0.2488(5) 0.2741(4) 0.9194(2)
C29 C 0.0257(5) 0.2961(4) 0.9075(3)
H27 H -0.0144 0.3114 0.9183
H28 H 0.0278 0.3073 0.8833
C30 C 0.1702(5) 0.2401(4) 0.8743(3)
H29 H 0.1501 0.2580 0.8547
H30 H 0.2107 0.2227 0.8657
C31 C 0.5691(5) 0.1598(4) 0.8088(3)
C32 C 0.5032(5) 0.2035(5) 0.8486(3)
H31 H 0.5159 0.2345 0.8604
C33 C 0.5346(5) 0.1576(4) 0.8663(3)
H32 H 0.5625 0.1672 0.8867
C34 C 0.4148(5) 0.1506(5) 0.8676(3)
C35 C 0.6141(5) 0.0900(4) 0.8430(3)
H33 H 0.6529 0.0904 0.8269
H34 H 0.6325 0.0874 0.8665
C36 C 0.4806(6) 0.0840(5) 0.8978(3)
H35 H 0.4416 0.0835 0.9138
H36 H 0.5224 0.0850 0.9118
C37 C 0.5735(5) 0.0252(4) 0.8035(3)
C38 C 0.5415(6) 0.0174(5) 0.8624(3)
H37 H 0.5744 0.0069 0.8805
C39 C 0.5138(6) -0.0263(4) 0.8417(3)
H38 H 0.5282 -0.0582 0.8517
C40 C 0.4233(5) 0.0157(4) 0.8654(3)
C41 C 0.5314(6) -0.0523(4) 0.7782(3)
H39 H 0.5711 -0.0504 0.7627
H40 H 0.5289 -0.0860 0.7871
C42 C 0.3917(5) -0.0552(4) 0.8310(3)
H41 H 0.3518 -0.0556 0.8464
H42 H 0.4131 -0.0877 0.8322
C43 C 0.4703(6) -0.0140(4) 0.7305(3)
C44 C 0.4025(6) -0.0650(4) 0.7651(3)
H43 H 0.4058 -0.1013 0.7656
C45 C 0.3590(6) -0.0479(5) 0.7357(3)
H44 H 0.3400 -0.0755 0.7220
C46 C 0.3128(5) -0.0217(4) 0.7882(3)
C47 C 0.3904(6) 0.0102(5) 0.6839(3)
H45 H 0.4313 0.0132 0.6693
H46 H 0.3567 -0.0091 0.6709
C48 C 0.2479(5) 0.0017(4) 0.7346(3)
H47 H 0.2086 -0.0001 0.7502
H48 H 0.2376 -0.0186 0.7142
C49 C 0.4002(6) 0.0985(5) 0.6895(3)
C50 C 0.2895(5) 0.0663(4) 0.6922(3)
H49 H 0.2651 0.0526 0.6719
C51 C 0.2866(5) 0.1238(4) 0.6923(3)
H50 H 0.2611 0.1371 0.6721
C52 C 0.2312(5) 0.0917(5) 0.7423(3)
C53 C 0.3828(6) 0.1868(5) 0.6905(3)
H51 H 0.4248 0.1879 0.6766
H52 H 0.3484 0.2067 0.6785
C54 C 0.2397(6) 0.1825(4) 0.7390(3)
H53 H 0.2298 0.2047 0.7197
H54 H 0.1987 0.1808 0.7536
C55 C 0.4586(5) 0.2048(5) 0.7380(3)
C56 C 0.3457(5) 0.2336(4) 0.7448(3)
H55 H 0.3264 0.2630 0.7333
C57 C 0.3903(6) 0.2482(4) 0.7779(3)
H56 H 0.3896 0.2840 0.7823
C58 C 0.3003(5) 0.1965(4) 0.7932(3)
C59 C 0.5185(6) 0.2371(5) 0.7883(3)
H57 H 0.5582 0.2362 0.7728
H58 H 0.5174 0.2696 0.7992
C60 C 0.3762(6) 0.2251(5) 0.8409(3)
H59 H 0.3916 0.2588 0.8454
H60 H 0.3358 0.2192 0.8554
N1 N 0.0176(4) 0.2438(3) 0.9080(2)
N2 N -0.0139(4) 0.1707(3) 0.9285(2)
N3 N 0.1218(4) 0.2049(3) 0.8867(2)
N4 N 0.0850(4) 0.1298(3) 0.9015(2)
N5 N -0.0060(4) 0.1167(4) 0.9772(2)
N6 N 0.0399(5) 0.1051(3) 1.0299(2)
N7 N 0.0926(4) 0.0751(3) 0.9511(2)
N8 N 0.1399(4) 0.0679(3) 1.0026(2)
N9 N 0.1146(4) 0.1411(4) 1.0731(2)
N10 N 0.1720(4) 0.2059(4) 1.0874(2)
N11 N 0.2142(4) 0.1040(3) 1.0464(2)
N12 N 0.2723(4) 0.1700(3) 1.0584(2)
N13 N 0.2066(4) 0.2852(3) 1.0655(2)
N14 N 0.1982(4) 0.3369(3) 1.0210(2)
N15 N 0.3096(4) 0.2516(3) 1.0385(2)
N16 N 0.3063(4) 0.3063(3) 0.9976(2)
N17 N 0.1490(5) 0.3494(3) 0.9655(2)
N18 N 0.0861(5) 0.3121(3) 0.9253(2)
N19 N 0.2528(4) 0.3137(3) 0.9398(2)
N20 N 0.1915(4) 0.2761(3) 0.9013(2)
N21 N 0.5277(5) 0.2012(3) 0.8146(2)
N22 N 0.5763(4) 0.1371(4) 0.8397(2)
N23 N 0.4283(4) 0.1924(3) 0.8513(2)
N24 N 0.4771(5) 0.1283(4) 0.8768(2)
N25 N 0.5737(5) 0.0479(4) 0.8360(2)
N26 N 0.5423(5) -0.0184(4) 0.8076(2)
N27 N 0.4803(4) 0.0379(4) 0.8772(2)
N28 N 0.4397(4) -0.0192(3) 0.8439(2)
N29 N 0.4700(5) -0.0422(4) 0.7581(3)
N30 N 0.4084(5) -0.0165(3) 0.7149(2)
N31 N 0.3676(5) -0.0468(4) 0.7948(2)
N32 N 0.3065(5) -0.0181(4) 0.7518(2)
N33 N 0.3638(4) 0.0570(4) 0.6897(2)
N34 N 0.3595(5) 0.1375(4) 0.6917(2)
N35 N 0.2572(5) 0.0528(4) 0.7234(2)
N36 N 0.2527(5) 0.1341(4) 0.7251(2)
N37 N 0.3957(5) 0.2079(4) 0.7220(2)
N38 N 0.4569(5) 0.2312(4) 0.7675(3)
N39 N 0.2931(4) 0.2029(3) 0.7588(2)
N40 N 0.3555(4) 0.2214(4) 0.8038(2)
O9 O -0.0378(4) 0.2397(3) 0.9608(2)
O10 O -0.0304(4) 0.1723(3) 1.02059(19)
O11 O 0.0601(4) 0.2173(3) 1.0742(2)
O12 O 0.0991(3) 0.3111(3) 1.04894(19)
O13 O 0.0402(4) 0.3264(3) 0.97881(18)
O14 O 0.2000(3) 0.1432(3) 0.89703(19)
O15 O 0.2104(4) 0.0723(3) 0.9545(2)
O16 O 0.3037(4) 0.1248(3) 1.0117(2)
O17 O 0.3683(4) 0.2361(3) 0.98758(19)
O18 O 0.2924(4) 0.2422(3) 0.91725(18)
O19 O 0.5961(4) 0.1495(3) 0.7815(2)
O20 O 0.5993(4) 0.0421(3) 0.77752(19)
O21 O 0.5186(4) 0.0104(3) 0.7199(2)
O22 O 0.4644(4) 0.0990(3) 0.68636(18)
O23 O 0.5083(4) 0.1836(3) 0.7256(2)
O24 O 0.3594(3) 0.1340(3) 0.87529(17)
O25 O 0.3638(4) 0.0281(3) 0.8736(2)
O26 O 0.2726(4) -0.0034(3) 0.80741(19)
O27 O 0.1930(4) 0.0905(3) 0.76639(17)
O28 O 0.2613(4) 0.1742(3) 0.81183(19)
Nd1B Nd 0.50381(3) 0.24001(2) 0.978198(15)
Nd2E Nd 0.05934(3) 0.09838(2) 0.770215(14)
O17B O -0.1317(4) 0.2639(3) 1.01242(19)
O27E O 0.6930(4) 0.0905(3) 0.73361(17)
Cl1 Cl 0.0718(13) -0.0127(7) 1.0898(4)
Cl2? Cl 0.1600(13) -0.0008(7) 1.1034(4)
Cl4? Cl 0.1268(11) -0.0473(5) 0.9889(7)
loop_
_geom_bond_atom_site_label_1
_geom_bond_atom_site_label_2
_geom_bond_site_symmetry_1
_geom_bond_site_symmetry_2
O1 Nd3 1_555 1_555
O2 Nd3 1_555 1_555
O3 Nd1 1_555 1_555
O4 Nd1 1_555 1_555
O5 Nd2 1_555 1_555
O6 Nd2 1_555 1_555
O7 Nd3 1_555 1_555
O8 Nd3 1_555 1_555
Nd1 Cl14 1_555 1_555
Nd2 Cl15 1_555 1_555
Nd3 O14 1_555 1_555
C1 N1 1_555 1_555
C2 H1 1_555 1_555
C3 C2 1_555 1_555
H2 C3 1_555 1_555
C4 N3 1_555 1_555
C5 H3 1_555 1_555
H4 C5 1_555 1_555
C6 H5 1_555 1_555
H6 C6 1_555 1_555
C7 N5 1_555 1_555
C8 H7 1_555 1_555
C9 C8 1_555 1_555
H8 C9 1_555 1_555
C10 N7 1_555 1_555
C11 H9 1_555 1_555
H10 C11 1_555 1_555
C12 H11 1_555 1_555
H12 C12 1_555 1_555
C13 N9 1_555 1_555
C14 H13 1_555 1_555
C15 C14 1_555 1_555
H14 C15 1_555 1_555
C16 N11 1_555 1_555
C17 H15 1_555 1_555
H16 C17 1_555 1_555
C18 H17 1_555 1_555
H18 C18 1_555 1_555
C19 N13 1_555 1_555
C20 H19 1_555 1_555
C21 C20 1_555 1_555
H20 C21 1_555 1_555
C22 N15 1_555 1_555
C23 H21 1_555 1_555
H22 C23 1_555 1_555
C24 H23 1_555 1_555
H24 C24 1_555 1_555
C25 N17 1_555 1_555
C26 H25 1_555 1_555
C27 C26 1_555 1_555
H26 C27 1_555 1_555
C28 N19 1_555 1_555
C29 H27 1_555 1_555
H28 C29 1_555 1_555
C30 H29 1_555 1_555
H30 C30 1_555 1_555
C31 N21 1_555 1_555
C32 H31 1_555 1_555
C33 C32 1_555 1_555
H32 C33 1_555 1_555
C34 N23 1_555 1_555
C35 H33 1_555 1_555
H34 C35 1_555 1_555
C36 H35 1_555 1_555
H36 C36 1_555 1_555
C37 N25 1_555 1_555
C38 H37 1_555 1_555
C39 C38 1_555 1_555
H38 C39 1_555 1_555
C40 N27 1_555 1_555
C41 H39 1_555 1_555
H40 C41 1_555 1_555
C42 H41 1_555 1_555
H42 C42 1_555 1_555
C43 N29 1_555 1_555
C44 H43 1_555 1_555
C45 C44 1_555 1_555
H44 C45 1_555 1_555
C46 N31 1_555 1_555
C47 H45 1_555 1_555
H46 C47 1_555 1_555
C48 H47 1_555 1_555
H48 C48 1_555 1_555
C49 N33 1_555 1_555
C50 H49 1_555 1_555
C51 C50 1_555 1_555
H50 C51 1_555 1_555
C52 N35 1_555 1_555
C53 H51 1_555 1_555
H52 C53 1_555 1_555
C54 H53 1_555 1_555
H54 C54 1_555 1_555
C55 N37 1_555 1_555
C56 H55 1_555 1_555
C57 C56 1_555 1_555
H56 C57 1_555 1_555
C58 N39 1_555 1_555
C59 H57 1_555 1_555
H58 C59 1_555 1_555
C60 H59 1_555 1_555
H60 C60 1_555 1_555
N1 C2 1_555 1_555
N2 C1 1_555 1_555
N3 C2 1_555 1_555
N4 C3 1_555 1_555
N5 C5 1_555 1_555
N6 C7 1_555 1_555
N7 C6 1_555 1_555
N8 C9 1_555 1_555
N9 C11 1_555 1_555
N10 C13 1_555 1_555
N11 C12 1_555 1_555
N12 C15 1_555 1_555
N13 C17 1_555 1_555
N14 C19 1_555 1_555
N15 C18 1_555 1_555
N16 C21 1_555 1_555
N17 C23 1_555 1_555
N18 C25 1_555 1_555
N19 C24 1_555 1_555
N20 C27 1_555 1_555
N21 C32 1_555 1_555
N22 C31 1_555 1_555
N23 C32 1_555 1_555
N24 C33 1_555 1_555
N25 C35 1_555 1_555
N26 C37 1_555 1_555
N27 C36 1_555 1_555
N28 C39 1_555 1_555
N29 C41 1_555 1_555
N30 C43 1_555 1_555
N31 C42 1_555 1_555
N32 C45 1_555 1_555
N33 C47 1_555 1_555
N34 C49 1_555 1_555
N35 C48 1_555 1_555
N36 C51 1_555 1_555
N37 C53 1_555 1_555
N38 C55 1_555 1_555
N39 C54 1_555 1_555
N40 C57 1_555 1_555
O9 Nd1 1_555 1_555
O10 Nd1 1_555 1_555
O11 Nd1 1_555 1_555
O12 Nd1 1_555 1_555
O13 Nd1 1_555 1_555
O14 C4 1_555 1_555
O15 Nd3 1_555 1_555
O16 C16 1_555 1_555
O17 C22 1_555 1_555
O18 C28 1_555 1_555
O19 Nd2 1_555 1_555
O20 Nd2 1_555 1_555
O21 Nd2 1_555 1_555
O22 Nd2 1_555 1_555
O23 Nd2 1_555 1_555
O24 Nd3 1_555 1_555
O25 Nd3 1_555 1_555
O26 C46 1_555 1_555
O27 C52 1_555 1_555
O28 C58 1_555 1_555
Nd1B O17 1_555 1_555
Nd2E O27 1_555 1_555
O17B Nd1 1_555 1_555
O27E Nd2 1_555 1_555
C1 O9 1_555 1_555
C3 N2 1_555 1_555
C4 N4 1_555 1_555
C5 N2 1_555 1_555
C6 N4 1_555 1_555
C7 O10 1_555 1_555
C8 N5 1_555 1_555
C8 N7 1_555 1_555
C9 N6 1_555 1_555
C10 N8 1_555 1_555
C10 O15 1_555 1_555
C11 N6 1_555 1_555
C12 N8 1_555 1_555
C13 O11 1_555 1_555
C14 N9 1_555 1_555
C14 N11 1_555 1_555
C15 N10 1_555 1_555
C16 N12 1_555 1_555
C17 N10 1_555 1_555
C18 N12 1_555 1_555
C19 O12 1_555 1_555
C20 N13 1_555 1_555
C20 N15 1_555 1_555
C21 N14 1_555 1_555
C22 N16 1_555 1_555
C23 N14 1_555 1_555
C24 N16 1_555 1_555
C25 O13 1_555 1_555
C26 N17 1_555 1_555
C26 N19 1_555 1_555
C27 N18 1_555 1_555
C28 N20 1_555 1_555
C29 N1 1_555 1_555
C29 N18 1_555 1_555
C30 N3 1_555 1_555
C30 N20 1_555 1_555
C31 O19 1_555 1_555
C33 N22 1_555 1_555
C34 N24 1_555 1_555
C34 O24 1_555 1_555
C35 N22 1_555 1_555
C36 N24 1_555 1_555
C37 O20 1_555 1_555
C38 N25 1_555 1_555
C38 N27 1_555 1_555
C39 N26 1_555 1_555
C40 N28 1_555 1_555
C40 O25 1_555 1_555
C41 N26 1_555 1_555
C42 N28 1_555 1_555
C43 O21 1_555 1_555
C44 N29 1_555 1_555
C44 N31 1_555 1_555
C45 N30 1_555 1_555
C46 N32 1_555 1_555
C47 N30 1_555 1_555
C48 N32 1_555 1_555
C49 O22 1_555 1_555
C50 N33 1_555 1_555
C50 N35 1_555 1_555
C51 N34 1_555 1_555
C52 N36 1_555 1_555
C53 N34 1_555 1_555
C54 N36 1_555 1_555
C55 O23 1_555 1_555
C56 N37 1_555 1_555
C56 N39 1_555 1_555
C57 N38 1_555 1_555
C58 N40 1_555 1_555
C59 N21 1_555 1_555
C59 N38 1_555 1_555
C60 N23 1_555 1_555
C60 N40 1_555 1_555

#END
