
#######################################################################
#
#                 Cambridge Crystallographic Data Centre
#                                CCDC 
#
#######################################################################
#
# If this CIF has been generated from an entry in the Cambridge 
# Structural Database, then it will include bibliographic, chemical, 
# crystal, experimental, refinement or atomic coordinate data resulting 
# from the CCDC's data processing and validation procedures.
#
#######################################################################

data_BOZRAL
_symmetry_cell_setting           monoclinic
_symmetry_space_group_name_H-M   'P 21/c'
_symmetry_Int_Tables_number      14
_space_group_name_Hall           '-P 2ybc'
loop_
_symmetry_equiv_pos_site_id
_symmetry_equiv_pos_as_xyz
1 x,y,z
2 -x,1/2+y,1/2-z
3 -x,-y,-z
4 x,1/2-y,1/2+z
_cell_length_a                   19.519(7)
_cell_length_b                   21.266(8)
_cell_length_c                   25.248(9)
_cell_angle_alpha                90
_cell_angle_beta                 99.407(4)
_cell_angle_gamma                90
_cell_volume                     10339.3
loop_
_atom_site_label
_atom_site_type_symbol
_atom_site_fract_x
_atom_site_fract_y
_atom_site_fract_z
Cl2 Cl -0.0068(3) 0.3927(2) 0.07719(17)
Cl3 Cl 0.1351(7) -0.0297(6) 0.4103(5)
Cl4 Cl 0.1284(8) 0.3237(9) 0.1059(9)
O1 O 0.1027(4) -0.0090(4) 0.3012(3)
O2 O 0.0580(4) 0.0152(4) 0.1866(3)
O3 O 0.5875(4) 0.2543(4) 0.2155(3)
O4 O 0.5903(4) 0.2313(4) 0.3309(3)
O5 O 0.2025(4) -0.0223(3) 0.1888(3)
O6 O 0.2669(3) -0.2248(4) 0.1807(3)
O7 O 0.1435(4) -0.0714(4) 0.0713(4)
O8 O 0.2746(4) -0.1770(4) 0.0719(4)
Nd1 Nd 0.02950(3) 0.08324(3) 0.26084(3)
Nd2 Nd 0.52965(3) 0.16402(3) 0.25738(3)
Nd3 Nd 0.22460(3) -0.12219(3) 0.14258(3)
Cl5 Cl -0.07780(14) 0.15896(15) 0.28342(12)
Cl6 Cl 0.41148(14) 0.09197(15) 0.23169(12)
C1 C 0.0426(5) 0.2470(5) 0.2392(5)
C2 C -0.0212(5) 0.3362(5) 0.2123(5)
H1 H -0.0120 0.3709 0.1884
C3 C 0.0181(6) 0.3452(5) 0.2692(5)
H2 H 0.0508 0.3811 0.2712
C4 C -0.1013(6) 0.3508(5) 0.2701(5)
C5 C 0.1014(5) 0.2705(6) 0.3288(5)
H3 H 0.1244 0.3094 0.3431
H4 H 0.1374 0.2425 0.3194
C6 C -0.0250(5) 0.3657(5) 0.3585(5)
H5 H 0.0183 0.3891 0.3688
H6 H -0.0628 0.3919 0.3673
C7 C 0.0670(5) 0.1794(6) 0.3759(5)
C8 C 0.0427(5) 0.2753(6) 0.4106(4)
H7 H 0.0777 0.3018 0.4331
C9 C 0.0161(5) 0.2201(5) 0.4430(4)
H8 H 0.0362 0.2233 0.4815
C10 C -0.0785(5) 0.2820(6) 0.4056(4)
C11 C 0.0271(6) 0.1024(6) 0.4388(5)
H9 H 0.0311 0.1031 0.4780
H10 H 0.0633 0.0743 0.4298
C12 C -0.1053(5) 0.1956(6) 0.4659(5)
H11 H -0.0786 0.1819 0.5002
H12 H -0.1414 0.2246 0.4737
C13 C -0.0506(5) 0.0413(5) 0.3706(5)
C14 C -0.1035(5) 0.0795(6) 0.4414(5)
H13 H -0.0949 0.0628 0.4785
C15 C -0.1573(5) 0.0383(5) 0.4030(4)
H14 H -0.1758 0.0032 0.4222
C16 C -0.1989(6) 0.1411(6) 0.4036(5)
C17 C -0.1384(6) -0.0288(5) 0.3230(4)
H15 H -0.1715 -0.0574 0.3358
H16 H -0.0986 -0.0538 0.3162
C18 C -0.2748(5) 0.0682(6) 0.3461(5)
H17 H -0.2907 0.0264 0.3550
H18 H -0.3107 0.0987 0.3514
C19 C -0.1353(6) 0.0161(6) 0.2340(5)
C20 C -0.2438(5) 0.0155(5) 0.2607(4)
H19 H -0.2735 -0.0218 0.2632
C21 C -0.2525(5) 0.0413(5) 0.2025(4)
H20 H -0.2815 0.0128 0.1770
C22 C -0.2978(5) 0.1131(5) 0.2563(5)
C23 C -0.1612(6) 0.0575(5) 0.1410(4)
H21 H -0.1994 0.0461 0.1124
H22 H -0.1205 0.0325 0.1361
C24 C -0.3017(5) 0.1468(5) 0.1614(5)
H23 H -0.3170 0.1241 0.1278
H24 H -0.3405 0.1729 0.1686
C25 C -0.0807(5) 0.1487(6) 0.1523(4)
C26 C -0.1948(5) 0.1729(5) 0.1178(5)
H25 H -0.2186 0.1651 0.0807
C27 C -0.1493(5) 0.2348(6) 0.1221(5)
H26 H -0.1515 0.2563 0.0871
C28 C -0.2344(5) 0.2434(6) 0.1779(4)
C29 C -0.0166(5) 0.2468(6) 0.1459(5)
H27 H 0.0209 0.2191 0.1387
H28 H -0.0234 0.2790 0.1178
C30 C -0.1542(5) 0.3337(5) 0.1747(4)
H29 H -0.1922 0.3584 0.1851
H30 H -0.1403 0.3538 0.1432
C31 C 0.2024(5) 0.1347(6) 0.2668(5)
C32 C 0.2761(5) 0.2003(5) 0.3257(4)
H31 H 0.2589 0.2263 0.3533
C33 C 0.2584(5) 0.2315(6) 0.2691(5)
H32 H 0.2321 0.2711 0.2704
C34 C 0.3788(6) 0.2237(5) 0.2942(5)
C35 C 0.1882(5) 0.1904(6) 0.1806(4)
H33 H 0.1499 0.1604 0.1722
H34 H 0.1689 0.2328 0.1738
C36 C 0.3376(6) 0.2823(6) 0.2109(5)
H35 H 0.2996 0.3129 0.2040
H36 H 0.3809 0.3058 0.2210
C37 C 0.2404(5) 0.1224(6) 0.1204(4)
C38 C 0.2818(5) 0.2249(6) 0.1239(4)
H37 H 0.2536 0.2600 0.1063
C39 C 0.3160(5) 0.1870(5) 0.0826(5)
H38 H 0.3068 0.2061 0.0464
C40 C 0.4014(6) 0.2207(6) 0.1530(5)
C41 C 0.2969(5) 0.0736(5) 0.0514(5)
H39 H 0.3039 0.0893 0.0162
H40 H 0.2549 0.0476 0.0459
C42 C 0.4454(5) 0.1639(5) 0.0802(5)
H41 H 0.4325 0.1673 0.0411
H42 H 0.4871 0.1895 0.0911
C43 C 0.3521(6) -0.0221(6) 0.0970(4)
C44 C 0.4275(6) 0.0448(6) 0.0642(5)
H43 H 0.4309 0.0466 0.0255
C45 C 0.4689(6) -0.0107(5) 0.0928(4)
H44 H 0.4952 -0.0337 0.0686
C46 C 0.5082(6) 0.0804(6) 0.1363(5)
C47 C 0.4266(6) -0.1098(6) 0.1375(4)
H45 H 0.3864 -0.1373 0.1270
H46 H 0.4671 -0.1302 0.1266
C48 C 0.5671(5) -0.0155(6) 0.1738(5)
H47 H 0.5837 -0.0516 0.1554
H48 H 0.6066 0.0127 0.1847
C49 C 0.3872(5) -0.1003(5) 0.2276(5)
C50 C 0.5079(5) -0.0960(6) 0.2281(5)
H49 H 0.5382 -0.1321 0.2229
C51 C 0.4922(5) -0.0935(5) 0.2858(5)
H50 H 0.5120 -0.1297 0.3077
C52 C 0.5500(6) -0.0023(6) 0.2663(5)
C53 C 0.3763(5) -0.0939(6) 0.3232(5)
H51 H 0.3320 -0.1152 0.3111
H52 H 0.4020 -0.1186 0.3526
C54 C 0.5312(6) -0.0130(6) 0.3602(5)
H53 H 0.5735 0.0122 0.3687
H54 H 0.5361 -0.0497 0.3839
C55 C 0.2992(6) -0.0025(6) 0.3316(5)
C56 C 0.4075(5) -0.0005(5) 0.3851(4)
H55 H 0.4172 -0.0271 0.4177
C57 C 0.3671(5) 0.0590(6) 0.3959(5)
H56 H 0.3617 0.0617 0.4341
C58 C 0.4692(6) 0.0880(6) 0.3637(4)
C59 C 0.2422(5) 0.0933(5) 0.3612(4)
H57 H 0.2458 0.1143 0.3961
H58 H 0.1987 0.0694 0.3553
C60 C 0.3933(6) 0.1752(6) 0.3829(4)
H59 H 0.4364 0.1995 0.3900
H60 H 0.3681 0.1823 0.4130
N1 N 0.0046(4) 0.2765(4) 0.1956(4)
N2 N 0.0552(4) 0.2855(5) 0.2813(4)
N3 N -0.0939(4) 0.3350(4) 0.2197(4)
N4 N -0.0358(4) 0.3564(4) 0.3012(4)
N5 N 0.0710(5) 0.2411(5) 0.3709(4)
N6 N 0.0396(4) 0.1648(5) 0.4205(4)
N7 N -0.0215(4) 0.3098(5) 0.3905(4)
N8 N -0.0589(4) 0.2292(5) 0.4353(4)
N9 N -0.0415(5) 0.0764(5) 0.4157(4)
N10 N -0.1153(5) 0.0161(5) 0.3639(4)
N11 N -0.1376(5) 0.1423(4) 0.4383(4)
N12 N -0.2100(4) 0.0835(5) 0.3828(4)
N13 N -0.1715(4) -0.0001(4) 0.2726(3)
N14 N -0.1803(4) 0.0430(4) 0.1920(4)
N15 N -0.2656(4) 0.0692(4) 0.2904(4)
N16 N -0.2852(4) 0.1010(4) 0.2049(4)
N17 N -0.1452(4) 0.1246(5) 0.1365(4)
N18 N -0.0800(4) 0.2098(5) 0.1421(4)
N19 N -0.2440(4) 0.1878(4) 0.1543(4)
N20 N -0.1792(4) 0.2717(4) 0.1601(3)
N21 N 0.3270(4) 0.2428(4) 0.2552(4)
N22 N 0.3519(4) 0.1982(4) 0.3346(4)
N23 N 0.2180(4) 0.1848(5) 0.2379(4)
N24 N 0.2400(4) 0.1415(4) 0.3185(4)
N25 N 0.4102(5) 0.1101(5) 0.3813(4)
N26 N 0.4723(4) 0.0241(5) 0.3702(4)
N27 N 0.3013(5) 0.0496(5) 0.3622(4)
N28 N 0.3624(4) -0.0322(5) 0.3432(4)
N29 N 0.5237(4) -0.0338(5) 0.3054(4)
N30 N 0.5414(4) -0.0376(5) 0.2217(4)
N31 N 0.4167(4) -0.0925(4) 0.2781(4)
N32 N 0.4386(4) -0.1025(5) 0.1955(4)
N33 N 0.5137(4) 0.0179(5) 0.1364(4)
N34 N 0.4612(4) 0.0994(4) 0.0941(4)
N35 N 0.4141(4) -0.0497(4) 0.1093(4)
N36 N 0.3573(4) 0.0326(5) 0.0731(4)
N37 N 0.3894(4) 0.1886(5) 0.1054(4)
N38 N 0.3408(4) 0.2484(5) 0.1627(4)
N39 N 0.2850(4) 0.1259(5) 0.0836(4)
N40 N 0.2385(4) 0.1789(4) 0.1448(4)
O9 O 0.0666(3) 0.1927(4) 0.2373(3)
O10 O 0.0889(4) 0.1386(4) 0.3459(3)
O11 O -0.0065(4) 0.0317(3) 0.3409(3)
O12 O -0.0716(3) 0.0101(3) 0.2324(3)
O13 O -0.0278(4) 0.1154(4) 0.1696(3)
O14 O -0.1568(3) 0.3580(4) 0.2881(3)
O15 O -0.1379(4) 0.3014(4) 0.3940(3)
O16 O -0.2373(4) 0.1880(4) 0.3936(3)
O17 O -0.3345(3) 0.1574(4) 0.2680(3)
O18 O -0.2687(4) 0.2674(4) 0.2089(3)
O19 O 0.4422(3) 0.2307(4) 0.2931(3)
O20 O 0.5137(3) 0.1212(4) 0.3479(3)
O21 O 0.5772(3) 0.0497(4) 0.2716(3)
O22 O 0.5446(4) 0.1174(4) 0.1677(3)
O23 O 0.4591(4) 0.2280(4) 0.1813(3)
O24 O 0.1614(3) 0.0913(4) 0.2522(3)
O25 O 0.2487(4) -0.0219(4) 0.2997(3)
O26 O 0.3253(3) -0.1062(4) 0.2108(3)
O27 O 0.2951(4) -0.0447(4) 0.1052(3)
O28 O 0.2062(4) 0.0761(4) 0.1281(3)
Nd2_2 Nd -0.47035(3) 0.16402(3) 0.25738(3)
Nd3A Nd -0.22460(3) 0.37781(3) 0.35742(3)
O14A O 0.1568(3) -0.1420(4) 0.2119(3)
O15A O 0.1379(4) -0.1986(4) 0.1060(3)
O17_2 O 0.6655(3) 0.1574(4) 0.2680(3)
Zn1 Zn 0.30219(9) 0.09003(9) 0.54560(7)
Cl7 Cl 0.3043(2) 0.09358(18) 0.63512(15)
Cl8 Cl 0.3371(4) -0.0069(3) 0.5254(2)
Cl9 Cl 0.1925(3) 0.0978(4) 0.5020(3)
Cl10 Cl 0.3711(5) 0.1632(3) 0.5227(3)
Zn2 Zn 0.27959(11) 0.39350(9) 0.39464(7)
Cl11 Cl 0.33716(17) 0.48173(17) 0.42718(13)
Cl12 Cl 0.2875(3) 0.38134(18) 0.30765(15)
Cl13 Cl 0.3179(3) 0.3081(2) 0.43983(19)
Cl14 Cl 0.1643(2) 0.4084(2) 0.4043(3)
Cl1 Cl 0.0663(2) -0.1506(2) -0.02303(15)
loop_
_geom_bond_atom_site_label_1
_geom_bond_atom_site_label_2
_geom_bond_site_symmetry_1
_geom_bond_site_symmetry_2
O1 Nd1 1_555 1_555
O2 Nd1 1_555 1_555
O3 Nd2 1_555 1_555
O4 Nd2 1_555 1_555
O5 Nd3 1_555 1_555
O6 Nd3 1_555 1_555
O7 Nd3 1_555 1_555
O8 Nd3 1_555 1_555
Nd1 Cl5 1_555 1_555
Nd2 Cl6 1_555 1_555
Nd3 O26 1_555 1_555
C1 N1 1_555 1_555
C2 H1 1_555 1_555
C3 C2 1_555 1_555
H2 C3 1_555 1_555
C4 N3 1_555 1_555
C5 H3 1_555 1_555
H4 C5 1_555 1_555
C6 H5 1_555 1_555
H6 C6 1_555 1_555
C7 N5 1_555 1_555
C8 H7 1_555 1_555
C9 C8 1_555 1_555
H8 C9 1_555 1_555
C10 N7 1_555 1_555
C11 H9 1_555 1_555
H10 C11 1_555 1_555
C12 H11 1_555 1_555
H12 C12 1_555 1_555
C13 N9 1_555 1_555
C14 H13 1_555 1_555
C15 C14 1_555 1_555
H14 C15 1_555 1_555
C16 N11 1_555 1_555
C17 H15 1_555 1_555
H16 C17 1_555 1_555
C18 H17 1_555 1_555
H18 C18 1_555 1_555
C19 N13 1_555 1_555
C20 H19 1_555 1_555
C21 C20 1_555 1_555
H20 C21 1_555 1_555
C22 N15 1_555 1_555
C23 H21 1_555 1_555
H22 C23 1_555 1_555
C24 H23 1_555 1_555
H24 C24 1_555 1_555
C25 N17 1_555 1_555
C26 H25 1_555 1_555
C27 C26 1_555 1_555
H26 C27 1_555 1_555
C28 N19 1_555 1_555
C29 H27 1_555 1_555
H28 C29 1_555 1_555
C30 H29 1_555 1_555
H30 C30 1_555 1_555
C31 N23 1_555 1_555
C32 H31 1_555 1_555
C33 C32 1_555 1_555
H32 C33 1_555 1_555
C34 N21 1_555 1_555
C35 H33 1_555 1_555
H34 C35 1_555 1_555
C36 H35 1_555 1_555
H36 C36 1_555 1_555
C37 N39 1_555 1_555
C38 H37 1_555 1_555
C39 C38 1_555 1_555
H38 C39 1_555 1_555
C40 N37 1_555 1_555
C41 H39 1_555 1_555
H40 C41 1_555 1_555
C42 H41 1_555 1_555
H42 C42 1_555 1_555
C43 N35 1_555 1_555
C44 H43 1_555 1_555
C45 C44 1_555 1_555
H44 C45 1_555 1_555
C46 N33 1_555 1_555
C47 H45 1_555 1_555
H46 C47 1_555 1_555
C48 H47 1_555 1_555
H48 C48 1_555 1_555
C49 N31 1_555 1_555
C50 H49 1_555 1_555
C51 C50 1_555 1_555
H50 C51 1_555 1_555
C52 N29 1_555 1_555
C53 H51 1_555 1_555
H52 C53 1_555 1_555
C54 H53 1_555 1_555
H54 C54 1_555 1_555
C55 N27 1_555 1_555
C56 H55 1_555 1_555
C57 C56 1_555 1_555
H56 C57 1_555 1_555
C58 N25 1_555 1_555
C59 H57 1_555 1_555
H58 C59 1_555 1_555
C60 H59 1_555 1_555
H60 C60 1_555 1_555
N1 C2 1_555 1_555
N2 C1 1_555 1_555
N3 C2 1_555 1_555
N4 C3 1_555 1_555
N5 C5 1_555 1_555
N6 C7 1_555 1_555
N7 C6 1_555 1_555
N8 C9 1_555 1_555
N9 C11 1_555 1_555
N10 C13 1_555 1_555
N11 C12 1_555 1_555
N12 C15 1_555 1_555
N13 C17 1_555 1_555
N14 C19 1_555 1_555
N15 C18 1_555 1_555
N16 C21 1_555 1_555
N17 C23 1_555 1_555
N18 C25 1_555 1_555
N19 C24 1_555 1_555
N20 C27 1_555 1_555
N21 C33 1_555 1_555
N22 C32 1_555 1_555
N23 C33 1_555 1_555
N24 C31 1_555 1_555
N25 C57 1_555 1_555
N26 C54 1_555 1_555
N27 C57 1_555 1_555
N28 C53 1_555 1_555
N29 C51 1_555 1_555
N30 C48 1_555 1_555
N31 C51 1_555 1_555
N32 C47 1_555 1_555
N33 C45 1_555 1_555
N34 C42 1_555 1_555
N35 C45 1_555 1_555
N36 C41 1_555 1_555
N37 C39 1_555 1_555
N38 C36 1_555 1_555
N39 C39 1_555 1_555
N40 C35 1_555 1_555
O9 Nd1 1_555 1_555
O10 Nd1 1_555 1_555
O11 Nd1 1_555 1_555
O12 Nd1 1_555 1_555
O13 Nd1 1_555 1_555
O14 C4 1_555 1_555
O15 C10 1_555 1_555
O16 C16 1_555 1_555
O17 C22 1_555 1_555
O18 C28 1_555 1_555
O19 Nd2 1_555 1_555
O20 Nd2 1_555 1_555
O21 Nd2 1_555 1_555
O22 Nd2 1_555 1_555
O23 Nd2 1_555 1_555
O24 Nd1 1_555 1_555
O25 C55 1_555 1_555
O26 C49 1_555 1_555
O27 Nd3 1_555 1_555
O28 C37 1_555 1_555
Zn1 Cl7 1_555 1_555
Cl8 Zn1 1_555 1_555
Cl9 Zn1 1_555 1_555
Cl10 Zn1 1_555 1_555
Zn2 Cl11 1_555 1_555
Cl12 Zn2 1_555 1_555
Cl13 Zn2 1_555 1_555
Cl14 Zn2 1_555 1_555
Nd2_2 O17 1_555 1_555
Nd3A O14 1_555 1_555
O14A Nd3 1_555 1_555
O15A Nd3 1_555 1_555
O17_2 Nd2 1_555 1_555
C1 O9 1_555 1_555
C3 N2 1_555 1_555
C4 N4 1_555 1_555
C5 N2 1_555 1_555
C6 N4 1_555 1_555
C7 O10 1_555 1_555
C8 N5 1_555 1_555
C8 N7 1_555 1_555
C9 N6 1_555 1_555
C10 N8 1_555 1_555
C11 N6 1_555 1_555
C12 N8 1_555 1_555
C13 O11 1_555 1_555
C14 N9 1_555 1_555
C14 N11 1_555 1_555
C15 N10 1_555 1_555
C16 N12 1_555 1_555
C17 N10 1_555 1_555
C18 N12 1_555 1_555
C19 O12 1_555 1_555
C20 N13 1_555 1_555
C20 N15 1_555 1_555
C21 N14 1_555 1_555
C22 N16 1_555 1_555
C23 N14 1_555 1_555
C24 N16 1_555 1_555
C25 O13 1_555 1_555
C26 N17 1_555 1_555
C26 N19 1_555 1_555
C27 N18 1_555 1_555
C28 N20 1_555 1_555
C29 N1 1_555 1_555
C29 N18 1_555 1_555
C30 N3 1_555 1_555
C30 N20 1_555 1_555
C31 O24 1_555 1_555
C32 N24 1_555 1_555
C34 N22 1_555 1_555
C34 O19 1_555 1_555
C35 N23 1_555 1_555
C36 N21 1_555 1_555
C37 N40 1_555 1_555
C38 N38 1_555 1_555
C38 N40 1_555 1_555
C40 N38 1_555 1_555
C40 O23 1_555 1_555
C41 N39 1_555 1_555
C42 N37 1_555 1_555
C43 N36 1_555 1_555
C43 O27 1_555 1_555
C44 N34 1_555 1_555
C44 N36 1_555 1_555
C46 N34 1_555 1_555
C46 O22 1_555 1_555
C47 N35 1_555 1_555
C48 N33 1_555 1_555
C49 N32 1_555 1_555
C50 N30 1_555 1_555
C50 N32 1_555 1_555
C52 N30 1_555 1_555
C52 O21 1_555 1_555
C53 N31 1_555 1_555
C54 N29 1_555 1_555
C55 N28 1_555 1_555
C56 N26 1_555 1_555
C56 N28 1_555 1_555
C58 N26 1_555 1_555
C58 O20 1_555 1_555
C59 N24 1_555 1_555
C59 N27 1_555 1_555
C60 N22 1_555 1_555
C60 N25 1_555 1_555
O15 Nd3A 1_555 1_555

#END
