
#######################################################################
#
#                 Cambridge Crystallographic Data Centre
#                                CCDC 
#
#######################################################################
#
# If this CIF has been generated from an entry in the Cambridge 
# Structural Database, then it will include bibliographic, chemical, 
# crystal, experimental, refinement or atomic coordinate data resulting 
# from the CCDC's data processing and validation procedures.
#
#######################################################################

data_BOZTAM
_symmetry_cell_setting           orthorhombic
_symmetry_space_group_name_H-M   'P n m a'
_symmetry_Int_Tables_number      62
_space_group_name_Hall           '-P 2ac 2n'
loop_
_symmetry_equiv_pos_site_id
_symmetry_equiv_pos_as_xyz
1 x,y,z
2 1/2-x,-y,1/2+z
3 -x,1/2+y,-z
4 1/2+x,1/2-y,1/2-z
5 -x,-y,-z
6 1/2+x,y,1/2-z
7 x,1/2-y,z
8 1/2-x,1/2+y,1/2+z
_cell_length_a                   12.277(3)
_cell_length_b                   22.523(5)
_cell_length_c                   17.092(3)
_cell_angle_alpha                90
_cell_angle_beta                 90
_cell_angle_gamma                90
_cell_volume                     4726.19
loop_
_atom_site_label
_atom_site_type_symbol
_atom_site_fract_x
_atom_site_fract_y
_atom_site_fract_z
Sn1 Sn 0.24875(3) 0.662926(16) -0.14393(2)
Sn2 Sn 0.22459(3) 0.508230(16) -0.30950(2)
K1 K 0.30045(11) 0.67238(5) 0.13385(7)
N1 N 0.2574(4) 0.5568(2) -0.1354(2)
N2 N 0.2590(4) 0.5120(2) -0.1854(2)
N3 N 0.2235(3) 0.72044(19) -0.2557(3)
O1 O 0.2724(3) 0.63385(16) -0.0190(2)
O2 O 0.3032(3) 0.56253(16) 0.0685(2)
O3 O 0.2602(3) 0.41542(17) -0.2670(2)
O4 O 0.3179(3) 0.35858(16) -0.1681(2)
O5 O 0.2185(3) 0.60465(16) -0.2823(2)
O6 O 0.1746(3) 0.61484(15) -0.4076(2)
O7 O 0.2571(4) 0.7500 -0.0891(3)
O8 O 0.2410(4) 0.7500 0.2559(3)
O9 O 0.4157(4) 0.7500 0.0274(3)
O10 O 0.1443(4) 0.7500 0.0580(3)
O11 O 0.4824(3) 0.68755(19) 0.2302(2)
O12 O 0.0392(4) 0.6556(2) 0.1198(3)
C1 C 0.2864(4) 0.5794(2) 0.0004(3)
C2 C 0.2814(4) 0.5350(2) -0.0639(3)
C3 C 0.2995(4) 0.4750(2) -0.0679(3)
H1 H 0.3178 0.4494 -0.0273
C4 C 0.2843(4) 0.4613(2) -0.1463(3)
C5 C 0.2887(4) 0.4076(2) -0.1952(3)
C6 C 0.1972(4) 0.6368(2) -0.3427(3)
C7 C 0.2012(4) 0.7018(2) -0.3290(3)
C8 C 0.1875(6) 0.7500 -0.3781(4)
H2 H 0.1727 0.7500 -0.4315
C9 C 0.4163(4) 0.6578(3) -0.1696(3)
H3 H 0.4536 0.6389 -0.1270
H4 H 0.4448 0.6971 -0.1769
H5 H 0.4267 0.6351 -0.2165
C10 C 0.0777(4) 0.6563(3) -0.1342(3)
H6 H 0.0497 0.6336 -0.1773
H7 H 0.0463 0.6953 -0.1349
H8 H 0.0593 0.6369 -0.0859
C11 C 0.0555(4) 0.4971(2) -0.3143(3)
H9 H 0.0294 0.5088 -0.3649
H10 H 0.0218 0.5213 -0.2748
H11 H 0.0378 0.4562 -0.3052
C12 C 0.3735(5) 0.5169(3) -0.3685(3)
H12 H 0.4110 0.4795 -0.3681
H13 H 0.4174 0.5463 -0.3428
H14 H 0.3604 0.5289 -0.4215
C13 C -0.0369(5) 0.6236(3) 0.0752(4)
H15 H -0.0756 0.5961 0.1089
H16 H 0.0013 0.6006 0.0358
C14 C -0.1187(6) 0.6646(3) 0.0351(4)
H17 H -0.1623 0.6841 0.0740
H18 H -0.1649 0.6417 0.0013
H19 H -0.0804 0.6938 0.0049
H20 H 0.305(7) 0.7500 -0.059(5)
Sn1F Sn 0.24875(3) 0.837074(16) -0.14393(2)
Sn1A Sn 0.25125(3) 0.337074(16) -0.64393(2)
Sn2A Sn 0.27541(3) 0.491770(16) 0.19050(2)
Sn2F Sn 0.22459(3) 0.991770(16) -0.30950(2)
Sn2A_2 Sn 0.27541(3) 0.491770(16) -0.80950(2)
K1A K 0.19955(11) 0.32762(5) -0.36615(7)
K1F K 0.30045(11) 0.82762(5) 0.13385(7)
K1_2 K 0.30045(11) 0.67238(5) -0.86615(7)
N1A N 0.2426(4) 0.4432(2) -0.6354(2)
N1F N 0.2574(4) 0.9432(2) -0.1354(2)
N2A N 0.2410(4) 0.4880(2) -0.6854(2)
N2A_2 N 0.2410(4) 0.4880(2) 0.3146(2)
N3F N 0.2235(3) 0.77956(19) -0.2557(3)
O1A O 0.2276(3) 0.36615(16) -0.5190(2)
O1F O 0.2724(3) 0.86615(16) -0.0190(2)
O2A O 0.1968(3) 0.43747(16) -0.4315(2)
O3A O 0.2398(3) 0.58458(17) -0.7670(2)
O3A_2 O 0.2398(3) 0.58458(17) 0.2330(2)
O4A O 0.1821(3) 0.64142(16) -0.6681(2)
O5F O 0.2185(3) 0.89535(16) -0.2823(2)
O5A O 0.2815(3) 0.39535(16) 0.2177(2)
O6F O 0.1746(3) 0.88516(15) -0.4076(2)
O8A O 0.2590(4) 0.2500 -0.2441(3)
O9A O 0.0843(4) 0.2500 -0.4726(3)
O10A O 0.3557(4) 0.2500 -0.4420(3)
O11A O 0.0176(3) 0.31245(19) -0.2698(2)
O12A O 0.4608(4) 0.3444(2) -0.3802(3)
C1A C 0.2136(4) 0.4206(2) -0.4996(3)
C2A C 0.2186(4) 0.4650(2) -0.5639(3)
C3A C 0.2005(4) 0.5250(2) -0.5679(3)
H1A H 0.1822 0.5506 -0.5273
C4A C 0.2157(4) 0.5387(2) -0.6463(3)
C5A C 0.2113(4) 0.5924(2) -0.6952(3)
C6F C 0.1972(4) 0.8632(2) -0.3427(3)
C7F C 0.2012(4) 0.7982(2) -0.3290(3)
C9F C 0.4163(4) 0.8422(3) -0.1696(3)
H3F H 0.4536 0.8611 -0.1270
H4F H 0.4448 0.8029 -0.1769
H5F H 0.4267 0.8649 -0.2165
C10F C 0.0777(4) 0.8437(3) -0.1342(3)
H6F H 0.0497 0.8664 -0.1773
H7F H 0.0463 0.8047 -0.1349
H8F H 0.0593 0.8631 -0.0859
C11A C 0.4445(4) 0.5029(2) 0.1857(3)
H9A H 0.4706 0.4912 0.1351
H10A H 0.4782 0.4787 0.2252
H11A H 0.4622 0.5438 0.1948
C12A C 0.1265(5) 0.4831(3) 0.1315(3)
H12A H 0.0890 0.5205 0.1319
H13A H 0.0826 0.4537 0.1572
H14A H 0.1396 0.4711 0.0785
C13A C 0.5369(5) 0.3764(3) -0.4248(4)
H15A H 0.5756 0.4039 -0.3911
H16A H 0.4987 0.3994 -0.4642
C14A C 0.6187(6) 0.3354(3) -0.4649(4)
H17A H 0.6623 0.3159 -0.4260
H18A H 0.6649 0.3583 -0.4987
H19A H 0.5804 0.3062 -0.4951
O13 O 0.5539(4) 0.65664(19) 0.0330(2)
loop_
_geom_bond_atom_site_label_1
_geom_bond_atom_site_label_2
_geom_bond_site_symmetry_1
_geom_bond_site_symmetry_2
Sn1 N1 1_555 1_555
Sn2 N2 1_555 1_555
K1 O1 1_555 1_555
N1 N2 1_555 1_555
N2 C4 1_555 1_555
N3 Sn1 1_555 1_555
O1 Sn1 1_555 1_555
O2 K1 1_555 1_555
O3 Sn2 1_555 1_555
O4 C5 1_555 1_555
O5 Sn1 1_555 1_555
O6 C6 1_555 1_555
O7 Sn1 1_555 1_555
O8 K1 1_555 1_555
O9 K1 1_555 1_555
O10 K1 1_555 1_555
O11 K1 1_555 1_555
O12 K1 1_555 1_555
C1 O1 1_555 1_555
C2 N1 1_555 1_555
C3 C2 1_555 1_555
H1 C3 1_555 1_555
C4 C3 1_555 1_555
C5 O3 1_555 1_555
C6 O5 1_555 1_555
C7 N3 1_555 1_555
C8 C7 1_555 1_555
H2 C8 1_555 1_555
C9 Sn1 1_555 1_555
H3 C9 1_555 1_555
H4 C9 1_555 1_555
H5 C9 1_555 1_555
C10 Sn1 1_555 1_555
H6 C10 1_555 1_555
H7 C10 1_555 1_555
H8 C10 1_555 1_555
C11 Sn2 1_555 1_555
H9 C11 1_555 1_555
H10 C11 1_555 1_555
H11 C11 1_555 1_555
C12 Sn2 1_555 1_555
H12 C12 1_555 1_555
H13 C12 1_555 1_555
H14 C12 1_555 1_555
C13 O12 1_555 1_555
H15 C13 1_555 1_555
H16 C13 1_555 1_555
C14 C13 1_555 1_555
H17 C14 1_555 1_555
H18 C14 1_555 1_555
H19 C14 1_555 1_555
H20 O7 1_555 1_555
Sn1F O7 1_555 1_555
Sn1A N1A 1_555 1_555
Sn2A O2 1_555 1_555
Sn2F O5F 1_555 1_555
Sn2A_2 N2A 1_555 1_555
K1A O3 1_555 1_555
K1F O8 1_555 1_555
K1_2 O3A 1_555 1_555
N1A N2A 1_555 1_555
N1F Sn1F 1_555 1_555
N2A C4A 1_555 1_555
N2A_2 Sn2A 1_555 1_555
N3F N3 1_555 1_555
O1A Sn1A 1_555 1_555
O1F Sn1F 1_555 1_555
O2A Sn2 1_555 1_555
O3A Sn2A_2 1_555 1_555
O3A_2 K1 1_555 1_555
O4A C5A 1_555 1_555
O5F Sn1F 1_555 1_555
O5A Sn2A 1_555 1_555
O6F C6F 1_555 1_555
O8A K1A 1_555 1_555
O9A K1A 1_555 1_555
O10A K1A 1_555 1_555
O11A K1A 1_555 1_555
O12A K1A 1_555 1_555
C1A O1A 1_555 1_555
C2A N1A 1_555 1_555
C3A C2A 1_555 1_555
H1A C3A 1_555 1_555
C4A C3A 1_555 1_555
C5A O3A 1_555 1_555
C6F O5F 1_555 1_555
C7F C8 1_555 1_555
C9F Sn1F 1_555 1_555
H3F C9F 1_555 1_555
H4F C9F 1_555 1_555
H5F C9F 1_555 1_555
C10F Sn1F 1_555 1_555
H6F C10F 1_555 1_555
H7F C10F 1_555 1_555
H8F C10F 1_555 1_555
C11A Sn2A 1_555 1_555
H9A C11A 1_555 1_555
H10A C11A 1_555 1_555
H11A C11A 1_555 1_555
C12A Sn2A 1_555 1_555
H12A C12A 1_555 1_555
H13A C12A 1_555 1_555
H14A C12A 1_555 1_555
C13A O12A 1_555 1_555
H15A C13A 1_555 1_555
H16A C13A 1_555 1_555
C14A C13A 1_555 1_555
H17A C14A 1_555 1_555
H18A C14A 1_555 1_555
H19A C14A 1_555 1_555
Sn2 O5 1_555 1_555
O2 C1 1_555 1_555
O9 K1F 1_555 1_555
O10 K1F 1_555 1_555
C1 C2 1_555 1_555
C4 C5 1_555 1_555
C6 C7 1_555 1_555
Sn1F N3F 1_555 1_555
Sn2A O3A_2 1_555 1_555
K1A O1A 1_555 1_555
K1A O2A 1_555 1_555
K1F O1F 1_555 1_555
N3F C7F 1_555 1_555
O2A C1A 1_555 1_555
C1A C2A 1_555 1_555
C4A C5A 1_555 1_555
C6F C7F 1_555 1_555

#END
