
#######################################################################
#
#                 Cambridge Crystallographic Data Centre
#                                CCDC 
#
#######################################################################
#
# If this CIF has been generated from an entry in the Cambridge 
# Structural Database, then it will include bibliographic, chemical, 
# crystal, experimental, refinement or atomic coordinate data resulting 
# from the CCDC's data processing and validation procedures.
#
#######################################################################

data_BOZTUH
_symmetry_cell_setting           monoclinic
_symmetry_space_group_name_H-M   'P 21/c'
_symmetry_Int_Tables_number      14
_space_group_name_Hall           '-P 2ybc'
loop_
_symmetry_equiv_pos_site_id
_symmetry_equiv_pos_as_xyz
1 x,y,z
2 -x,1/2+y,1/2-z
3 -x,-y,-z
4 x,1/2-y,1/2+z
_cell_length_a                   8.3005(6)
_cell_length_b                   9.2368(7)
_cell_length_c                   27.994(2)
_cell_angle_alpha                90
_cell_angle_beta                 104.183(4)
_cell_angle_gamma                90
_cell_volume                     2080.88
loop_
_atom_site_label
_atom_site_type_symbol
_atom_site_fract_x
_atom_site_fract_y
_atom_site_fract_z
Cd1 Cd 1.041451(17) 0.937286(15) 0.128767(4)
Cd2 Cd 1.0000 1.0000 0.0000
O1 O 1.0571(2) 0.81289(17) -0.13558(5)
O2 O 0.96033(18) 0.87089(15) -0.07166(5)
O3 O 1.22628(18) 0.12976(18) -0.09440(5)
O4 O 1.23375(19) 0.06976(18) -0.01606(6)
O5 O 1.10940(18) 0.65113(15) -0.01932(5)
O6 O 1.49070(16) 0.24510(15) 0.01904(5)
O7 O 1.1186(2) 0.69612(16) 0.12354(5)
O8 O 1.13966(19) 0.83143(15) 0.06054(5)
N1 N 1.3168(2) 1.01276(19) 0.16540(6)
N2 N 1.0767(2) 0.95728(19) 0.21510(6)
C1 C 0.9621(3) 0.9317(3) 0.23969(10)
H1 H 0.8676 0.8800 0.2241
C2 C 0.9772(5) 0.9798(4) 0.28862(11)
H2 H 0.8946 0.9593 0.3048
C3 C 1.1131(5) 1.0556(4) 0.31134(10)
H3 H 1.1233 1.0899 0.3432
C4 C 1.2393(4) 1.0828(3) 0.28717(8)
C5 C 1.3890(4) 1.1609(3) 0.30932(9)
H4 H 1.4030 1.1975 0.3410
C6 C 1.5080(4) 1.1822(3) 0.28566(11)
H5 H 1.6043 1.2310 0.3014
C7 C 1.4902(3) 1.1314(3) 0.23654(9)
C8 C 1.6132(3) 1.1489(3) 0.20965(12)
H6 H 1.7121 1.1961 0.2241
C9 C 1.5880(3) 1.0977(3) 0.16338(12)
H7 H 1.6702 1.1055 0.1461
C10 C 1.4349(3) 1.0321(3) 0.14180(9)
H8 H 1.4156 1.0008 0.1093
C11 C 1.3428(3) 1.0587(2) 0.21243(7)
C12 C 1.2148(3) 1.0316(2) 0.23843(7)
C13 C 1.1541(2) 0.7104(2) 0.08246(6)
C14 C 1.2267(2) 0.58328(19) 0.06250(7)
C15 C 1.3252(3) 0.4877(2) 0.09574(7)
H9 H 1.3327 0.4992 0.1292
C16 C 1.4122(3) 0.3767(2) 0.08058(7)
H10 H 1.4813 0.3173 0.1036
C17 C 1.3953(2) 0.3545(2) 0.03055(7)
C18 C 1.2901(2) 0.4418(2) -0.00395(7)
H11 H 1.2734 0.4228 -0.0374
C19 C 1.2097(2) 0.55845(19) 0.01208(7)
C20 C 1.1116(2) 0.6477(2) -0.06974(6)
H12 H 1.0478 0.5656 -0.0858
H13 H 1.2249 0.6375 -0.0728
C21 C 1.0374(2) 0.7869(2) -0.09384(7)
C22 C 1.4589(2) 0.2009(2) -0.03124(7)
H14 H 1.5452 0.1343 -0.0351
H15 H 1.4632 0.2850 -0.0517
C23 C 1.2898(2) 0.1276(2) -0.04882(7)
Cd1B Cd 0.958549(17) 0.062714(15) -0.128767(4)
O1B O 0.9429(2) 0.18711(17) 0.13558(5)
O2B O 1.03967(18) 0.12911(15) 0.07166(5)
O3B O 0.77372(18) 0.87024(18) 0.09440(5)
O4B O 0.76625(19) 0.93024(18) 0.01606(6)
O5B O 0.89060(18) 0.34887(15) 0.01932(5)
O6B O 0.50930(16) 0.75490(15) -0.01904(5)
O7B O 0.8814(2) 0.30388(16) -0.12354(5)
O8B O 0.86034(19) 0.16857(15) -0.06054(5)
N1B N 0.6832(2) -0.01276(19) -0.16540(6)
N2B N 0.9233(2) 0.04272(19) -0.21510(6)
C1B C 1.0379(3) 0.0683(3) -0.23969(10)
H1B H 1.1324 0.1200 -0.2241
C2B C 1.0228(5) 0.0202(4) -0.28862(11)
H2B H 1.1054 0.0407 -0.3048
C3B C 0.8869(5) -0.0556(4) -0.31134(10)
H3B H 0.8767 -0.0899 -0.3432
C4B C 0.7607(4) -0.0828(3) -0.28717(8)
C5B C 0.6110(4) -0.1609(3) -0.30932(9)
H4B H 0.5970 -0.1975 -0.3410
C6B C 0.4920(4) -0.1822(3) -0.28566(11)
H5B H 0.3957 -0.2310 -0.3014
C7B C 0.5098(3) -0.1314(3) -0.23654(9)
C8B C 0.3868(3) -0.1489(3) -0.20965(12)
H6B H 0.2879 -0.1961 -0.2241
C9B C 0.4120(3) -0.0977(3) -0.16338(12)
H7B H 0.3298 -0.1055 -0.1461
C10B C 0.5651(3) -0.0321(3) -0.14180(9)
H8B H 0.5844 -0.0008 -0.1093
C11B C 0.6572(3) -0.0587(2) -0.21243(7)
C12B C 0.7852(3) -0.0316(2) -0.23843(7)
C13B C 0.8459(2) 0.2896(2) -0.08246(6)
C14B C 0.7733(2) 0.41672(19) -0.06250(7)
C15B C 0.6748(3) 0.5123(2) -0.09574(7)
H9B H 0.6673 0.5008 -0.1292
C16B C 0.5878(3) 0.6233(2) -0.08058(7)
H10B H 0.5187 0.6827 -0.1036
C17B C 0.6047(2) 0.6455(2) -0.03055(7)
C18B C 0.7099(2) 0.5582(2) 0.00395(7)
H11B H 0.7266 0.5772 0.0374
C19B C 0.7903(2) 0.44155(19) -0.01208(7)
C20B C 0.8884(2) 0.3523(2) 0.06974(6)
H12B H 0.9522 0.4344 0.0858
H13B H 0.7751 0.3625 0.0728
C21B C 0.9626(2) 0.2131(2) 0.09384(7)
C22B C 0.5411(2) 0.7991(2) 0.03124(7)
H14B H 0.4548 0.8657 0.0351
H15B H 0.5368 0.7150 0.0517
C23B C 0.7102(2) 0.8724(2) 0.04882(7)
Cd1_2 Cd 1.041451(17) -0.062714(15) 0.128767(4)
Cd1B_2 Cd 0.958549(17) 1.062714(15) -0.128767(4)
Cd2_2 Cd 1.0000 0.0000 0.0000
O1_2 O 1.0571(2) -0.18711(17) -0.13558(5)
O1B_2 O 0.9429(2) 1.18711(17) 0.13558(5)
O2_2 O 0.96033(18) -0.12911(15) -0.07166(5)
O2B_2 O 1.03967(18) 1.12911(15) 0.07166(5)
O4_2 O 1.23375(19) 1.06976(18) -0.01606(6)
O8B_2 O 0.86034(19) 1.16857(15) -0.06054(5)
loop_
_geom_bond_atom_site_label_1
_geom_bond_atom_site_label_2
_geom_bond_site_symmetry_1
_geom_bond_site_symmetry_2
Cd1 O7 1_555 1_555
Cd2 O2 1_555 1_555
O1 C21 1_555 1_555
O2 C21 1_555 1_555
O3 C23 1_555 1_555
O4 C23 1_555 1_555
O5 C19 1_555 1_555
O6 C17 1_555 1_555
O7 C13 1_555 1_555
O8 Cd1 1_555 1_555
N1 Cd1 1_555 1_555
N2 Cd1 1_555 1_555
C1 N2 1_555 1_555
H1 C1 1_555 1_555
C2 C1 1_555 1_555
H2 C2 1_555 1_555
C3 C2 1_555 1_555
H3 C3 1_555 1_555
C4 C3 1_555 1_555
C5 C4 1_555 1_555
H4 C5 1_555 1_555
C6 C5 1_555 1_555
H5 C6 1_555 1_555
C7 C6 1_555 1_555
C8 C7 1_555 1_555
H6 C8 1_555 1_555
C9 C8 1_555 1_555
H7 C9 1_555 1_555
C10 N1 1_555 1_555
H8 C10 1_555 1_555
C11 N1 1_555 1_555
C12 N2 1_555 1_555
C13 O8 1_555 1_555
C14 C13 1_555 1_555
C15 C14 1_555 1_555
H9 C15 1_555 1_555
C16 C15 1_555 1_555
H10 C16 1_555 1_555
C17 C16 1_555 1_555
C18 C17 1_555 1_555
H11 C18 1_555 1_555
C19 C14 1_555 1_555
C20 O5 1_555 1_555
H12 C20 1_555 1_555
H13 C20 1_555 1_555
C21 C20 1_555 1_555
C22 O6 1_555 1_555
H14 C22 1_555 1_555
H15 C22 1_555 1_555
C23 C22 1_555 1_555
Cd1B O3 1_555 1_555
O1B C21B 1_555 1_555
O2B C21B 1_555 1_555
O3B Cd1 1_555 1_555
O4B Cd2 1_555 1_555
O5B C19B 1_555 1_555
O6B C17B 1_555 1_555
O7B Cd1B 1_555 1_555
O8B Cd1B 1_555 1_555
N1B Cd1B 1_555 1_555
N2B Cd1B 1_555 1_555
C1B N2B 1_555 1_555
H1B C1B 1_555 1_555
C2B C1B 1_555 1_555
H2B C2B 1_555 1_555
C3B C2B 1_555 1_555
H3B C3B 1_555 1_555
C4B C3B 1_555 1_555
C5B C4B 1_555 1_555
H4B C5B 1_555 1_555
C6B C5B 1_555 1_555
H5B C6B 1_555 1_555
C7B C6B 1_555 1_555
C8B C7B 1_555 1_555
H6B C8B 1_555 1_555
C9B C8B 1_555 1_555
H7B C9B 1_555 1_555
C10B N1B 1_555 1_555
H8B C10B 1_555 1_555
C11B N1B 1_555 1_555
C12B N2B 1_555 1_555
C13B O7B 1_555 1_555
C14B C13B 1_555 1_555
C15B C14B 1_555 1_555
H9B C15B 1_555 1_555
C16B C15B 1_555 1_555
H10B C16B 1_555 1_555
C17B C16B 1_555 1_555
C18B C17B 1_555 1_555
H11B C18B 1_555 1_555
C19B C14B 1_555 1_555
C20B O5B 1_555 1_555
H12B C20B 1_555 1_555
H13B C20B 1_555 1_555
C21B C20B 1_555 1_555
C22B O6B 1_555 1_555
H14B C22B 1_555 1_555
H15B C22B 1_555 1_555
C23B O3B 1_555 1_555
Cd1_2 O1B 1_555 1_555
Cd1B_2 O1 1_555 1_555
Cd2_2 O4 1_555 1_555
O1_2 Cd1B 1_555 1_555
O1B_2 Cd1 1_555 1_555
O2_2 Cd1B 1_555 1_555
O2B_2 Cd1 1_555 1_555
O4_2 Cd2 1_555 1_555
O8B_2 Cd2 1_555 1_555
Cd2 O8 1_555 1_555
Cd2 O2B_2 1_555 1_555
O2 Cd1B_2 1_555 1_555
C4 C12 1_555 1_555
C7 C11 1_555 1_555
C9 C10 1_555 1_555
C11 C12 1_555 1_555
C18 C19 1_555 1_555
O2B Cd1_2 1_555 1_555
O2B Cd2_2 1_555 1_555
O4B C23B 1_555 1_555
O8B C13B 1_555 1_555
O8B Cd2_2 1_555 1_555
C4B C12B 1_555 1_555
C7B C11B 1_555 1_555
C9B C10B 1_555 1_555
C11B C12B 1_555 1_555
C18B C19B 1_555 1_555
C22B C23B 1_555 1_555
Cd1B_2 O8B_2 1_555 1_555
Cd2_2 O2_2 1_555 1_555

#END
