
#######################################################################
#
#                 Cambridge Crystallographic Data Centre
#                                CCDC 
#
#######################################################################
#
# If this CIF has been generated from an entry in the Cambridge 
# Structural Database, then it will include bibliographic, chemical, 
# crystal, experimental, refinement or atomic coordinate data resulting 
# from the CCDC's data processing and validation procedures.
#
#######################################################################

data_BOZVAP
_symmetry_cell_setting           monoclinic
_symmetry_space_group_name_H-M   'P 21/c'
_symmetry_Int_Tables_number      14
_space_group_name_Hall           '-P 2ybc'
loop_
_symmetry_equiv_pos_site_id
_symmetry_equiv_pos_as_xyz
1 x,y,z
2 -x,1/2+y,1/2-z
3 -x,-y,-z
4 x,1/2-y,1/2+z
_cell_length_a                   7.08000(10)
_cell_length_b                   9.9053(2)
_cell_length_c                   28.8455(5)
_cell_angle_alpha                90
_cell_angle_beta                 94.3780(10)
_cell_angle_gamma                90
_cell_volume                     2017.02
loop_
_atom_site_label
_atom_site_type_symbol
_atom_site_fract_x
_atom_site_fract_y
_atom_site_fract_z
Cd1 Cd -0.07747(2) 1.449206(14) -0.133567(4)
N1 N -0.0257(3) 1.42985(16) -0.21224(6)
O1 O -0.3618(2) 0.74042(14) 0.00827(4)
C1 C -0.3196(3) 0.5973(2) 0.07729(6)
O2 O -0.1650(2) 1.20655(13) 0.00514(4)
N2 N -0.3437(3) 1.53847(16) -0.17866(6)
C2 C -0.2951(3) 0.7357(2) 0.05616(6)
H1 H -0.3636 0.8017 0.0732
H2 H -0.1620 0.7600 0.0592
O3 O 0.0099(2) 1.41963(15) 0.04446(5)
C3 C -0.3261(3) 0.85755(19) -0.01460(6)
C4 C -0.3572(3) 0.8561(2) -0.06295(6)
H3 H -0.4041 0.7793 -0.0784
O4 O 0.0089(2) 1.33237(15) 0.11537(5)
C5 C -0.3168(3) 0.9710(2) -0.08743(6)
H4 H -0.3334 0.9687 -0.1197
O5 O -0.2390(2) 0.58712(16) 0.11775(5)
O6 O -0.4135(2) 0.50937(14) 0.05534(5)
C6 C -0.2521(3) 1.09068(19) -0.06587(6)
O7 O -0.1483(3) 1.18537(16) -0.13517(5)
C7 C -0.2282(3) 1.0910(2) -0.01694(6)
O8 O -0.2151(2) 1.32652(14) -0.08033(5)
C8 C -0.2633(3) 0.97451(19) 0.00815(6)
H5 H -0.2444 0.9752 0.0404
C9 C -0.1246(3) 1.2009(2) 0.05456(6)
H6 H -0.0440 1.1238 0.0625
H7 H -0.2416 1.1896 0.0695
C10 C -0.0263(3) 1.3291(2) 0.07193(6)
C11 C -0.2020(3) 1.2076(2) -0.09581(6)
C12 C 0.1260(3) 1.3742(2) -0.22855(8)
H8 H 0.2183 1.3376 -0.2075
C13 C 0.1532(4) 1.3682(2) -0.27604(8)
H9 H 0.2601 1.3264 -0.2862
C14 C 0.0222(4) 1.4240(2) -0.30716(8)
H10 H 0.0398 1.4218 -0.3388
C15 C -0.1402(3) 1.4851(2) -0.29136(7)
C16 C -0.2845(4) 1.5468(3) -0.32178(8)
H11 H -0.2714 1.5481 -0.3536
C17 C -0.4386(4) 1.6029(3) -0.30519(8)
H12 H -0.5295 1.6430 -0.3257
C18 C -0.4654(3) 1.6020(2) -0.25645(7)
C19 C -0.6241(3) 1.6603(2) -0.23743(9)
H13 H -0.7187 1.7008 -0.2568
C20 C -0.6384(3) 1.6569(2) -0.19063(9)
H14 H -0.7422 1.6955 -0.1777
C21 C -0.4945(3) 1.5945(2) -0.16212(8)
H15 H -0.5055 1.5924 -0.1302
C22 C -0.3268(3) 1.54255(19) -0.22526(7)
C23 C -0.1597(3) 1.4842(2) -0.24314(6)
Na1 Na -0.26570(12) 1.45339(8) -0.01538(3)
Cd1B Cd 0.07747(2) 0.550794(14) 0.133567(4)
Cd1B_2 Cd 0.07747(2) 1.550794(14) 0.133567(4)
O1_2 O -0.3618(2) 1.74042(14) 0.00827(4)
O3B O -0.0099(2) 1.58037(15) -0.04446(5)
O4B O -0.0089(2) 1.66763(15) -0.11537(5)
O5B O 0.2390(2) 1.41288(16) -0.11775(5)
O6_2 O -0.4135(2) 1.50937(14) 0.05534(5)
O6B O -0.5865(2) 1.49063(14) -0.05534(5)
Na1_2 Na -0.26570(12) 0.45339(8) -0.01538(3)
Na1B Na -0.73430(12) 0.54661(8) 0.01538(3)
Na1B_2 Na 0.26570(12) 1.54661(8) 0.01538(3)
loop_
_geom_bond_atom_site_label_1
_geom_bond_atom_site_label_2
_geom_bond_site_symmetry_1
_geom_bond_site_symmetry_2
Cd1 N1 1_555 1_555
N1 C12 1_555 1_555
O1 C2 1_555 1_555
C1 C2 1_555 1_555
O2 C7 1_555 1_555
N2 Cd1 1_555 1_555
C2 H1 1_555 1_555
H2 C2 1_555 1_555
O3 C10 1_555 1_555
C3 O1 1_555 1_555
C4 C3 1_555 1_555
H3 C4 1_555 1_555
O4 C10 1_555 1_555
C5 C4 1_555 1_555
H4 C5 1_555 1_555
O5 C1 1_555 1_555
O6 C1 1_555 1_555
C6 C5 1_555 1_555
O7 Cd1 1_555 1_555
C7 C6 1_555 1_555
O8 Cd1 1_555 1_555
C8 C3 1_555 1_555
H5 C8 1_555 1_555
C9 O2 1_555 1_555
H6 C9 1_555 1_555
H7 C9 1_555 1_555
C10 C9 1_555 1_555
C11 C6 1_555 1_555
C12 H8 1_555 1_555
C13 C12 1_555 1_555
H9 C13 1_555 1_555
C14 C13 1_555 1_555
H10 C14 1_555 1_555
C15 C14 1_555 1_555
C16 C15 1_555 1_555
H11 C16 1_555 1_555
C17 C16 1_555 1_555
H12 C17 1_555 1_555
C18 C17 1_555 1_555
C19 C18 1_555 1_555
H13 C19 1_555 1_555
C20 C19 1_555 1_555
H14 C20 1_555 1_555
C21 N2 1_555 1_555
H15 C21 1_555 1_555
C22 N2 1_555 1_555
C23 N1 1_555 1_555
Na1 O2 1_555 1_555
Cd1B O5 1_555 1_555
Cd1B_2 O4 1_555 1_555
O1_2 Na1 1_555 1_555
O3B Na1 1_555 1_555
O4B Cd1 1_555 1_555
O5B Cd1 1_555 1_555
O6_2 Na1 1_555 1_555
O6B Na1 1_555 1_555
Na1_2 O1 1_555 1_555
Na1B O6 1_555 1_555
Na1B_2 O3 1_555 1_555
O3 Na1 1_555 1_555
O6 Na1_2 1_555 1_555
O7 C11 1_555 1_555
C7 C8 1_555 1_555
O8 C11 1_555 1_555
O8 Na1 1_555 1_555
C15 C23 1_555 1_555
C18 C22 1_555 1_555
C20 C21 1_555 1_555
C22 C23 1_555 1_555
O3B Na1B_2 1_555 1_555

#END
