
#######################################################################
#
#                 Cambridge Crystallographic Data Centre
#                                CCDC 
#
#######################################################################
#
# If this CIF has been generated from an entry in the Cambridge 
# Structural Database, then it will include bibliographic, chemical, 
# crystal, experimental, refinement or atomic coordinate data resulting 
# from the CCDC's data processing and validation procedures.
#
#######################################################################

data_BOZZOH
_symmetry_cell_setting           monoclinic
_symmetry_space_group_name_H-M   'C 2'
_symmetry_Int_Tables_number      5
_space_group_name_Hall           'C 2y'
loop_
_symmetry_equiv_pos_site_id
_symmetry_equiv_pos_as_xyz
1 x,y,z
2 -x,y,-z
3 1/2+x,1/2+y,z
4 1/2-x,1/2+y,-z
_cell_length_a                   13.7608(9)
_cell_length_b                   8.9938(5)
_cell_length_c                   16.4834(10)
_cell_angle_alpha                90
_cell_angle_beta                 107.169(3)
_cell_angle_gamma                90
_cell_volume                     1949.11
loop_
_atom_site_label
_atom_site_type_symbol
_atom_site_fract_x
_atom_site_fract_y
_atom_site_fract_z
C1 C 0.7375(3) 0.4076(5) 0.2782(3)
H1 H 0.7106 0.3221 0.2482
C2 C 0.8157(3) 0.4801(5) 0.2583(3)
H2 H 0.8406 0.4439 0.2154
C3 C 0.8569(3) 0.6067(5) 0.3022(3)
H3 H 0.9091 0.6573 0.2890
C4 C 0.8195(3) 0.6573(4) 0.3664(3)
C5 C 0.7404(3) 0.5769(5) 0.3819(3)
H4 H 0.7149 0.6101 0.4251
C6 C 0.8537(3) 0.7914(4) 0.4175(3)
H5 H 0.8167 0.8199 0.4539
C7 C 0.9456(3) 1.0054(4) 0.4704(2)
H6 H 0.8986 1.0031 0.5050
C8 C 0.9254(3) 1.1471(5) 0.4160(3)
H7 H 0.9686 1.1474 0.3789
H8 H 0.8552 1.1476 0.3807
C9 C 0.9459(4) 1.2857(5) 0.4706(3)
H9 H 0.8986 1.2902 0.5040
H10 H 0.9353 1.3730 0.4345
C10 C 0.3506(4) 0.4697(6) 0.1773(3)
H11 H 0.3203 0.3862 0.1926
C11 C 0.2951(4) 0.5511(7) 0.1081(4)
H12 H 0.2305 0.5209 0.0763
C12 C 0.3385(4) 0.6791(6) 0.0874(4)
H13 H 0.3028 0.7370 0.0416
C13 C 0.4351(3) 0.7202(5) 0.1351(3)
C14 C 0.4857(3) 0.6267(5) 0.2021(3)
H14 H 0.5516 0.6519 0.2335
C15 C 0.4863(3) 0.8545(8) 0.1171(2)
H15 H 0.5530 0.8737 0.1491
C16 C 0.4990(3) 1.0743(5) 0.0465(3)
H16 H 0.5689 1.0676 0.0841
C17 C 0.4499(4) 1.2142(5) 0.0672(3)
H17 H 0.4548 1.2146 0.1271
H18 H 0.3784 1.2149 0.0351
C18 C 0.5008(4) 1.3529(9) 0.0461(3)
H19 H 0.4657 1.4404 0.0574
H20 H 0.5707 1.3572 0.0821
N1 N 0.6987(3) 0.4556(4) 0.3393(2)
N2 N 0.9289(2) 0.8721(4) 0.41677(18)
N3 N 0.6260(3) 0.0364(5) 0.3331(3)
N4 N 0.4454(3) 0.5038(5) 0.2235(2)
N5 N 0.4418(3) 0.9440(4) 0.0594(2)
O1 O 0.5844(2) 0.1205(4) 0.2723(2)
O2 O 0.6467(4) -0.0930(5) 0.3200(3)
O3 O 0.6450(4) 0.0850(6) 0.4059(3)
Ag1 Ag 0.547676(19) 0.35091(5) 0.345207(17)
C1A C 1.2625(3) 0.4076(5) 0.7218(3)
H1A H 1.2894 0.3221 0.7518
C2A C 1.1843(3) 0.4801(5) 0.7417(3)
H2A H 1.1594 0.4439 0.7846
C3A C 1.1431(3) 0.6067(5) 0.6978(3)
H3A H 1.0909 0.6573 0.7110
C4A C 1.1805(3) 0.6573(4) 0.6336(3)
C5A C 1.2596(3) 0.5769(5) 0.6181(3)
H4A H 1.2851 0.6101 0.5749
C6A C 1.1463(3) 0.7914(4) 0.5825(3)
H5A H 1.1833 0.8199 0.5461
C7A C 1.0544(3) 1.0054(4) 0.5296(2)
H6A H 1.1014 1.0031 0.4950
C8A C 1.0746(3) 1.1471(5) 0.5840(3)
H7A H 1.0314 1.1474 0.6211
H8A H 1.1448 1.1476 0.6193
C9A C 1.0541(4) 1.2857(5) 0.5294(3)
H9A H 1.1014 1.2902 0.4960
H10A H 1.0647 1.3730 0.5655
N1A N 1.3013(3) 0.4556(4) 0.6607(2)
N2A N 1.0711(2) 0.8721(4) 0.58323(18)
C10A C 0.6494(4) 0.4697(6) -0.1773(3)
H11A H 0.6797 0.3862 -0.1926
C11A C 0.7049(4) 0.5511(7) -0.1081(4)
H12A H 0.7695 0.5209 -0.0763
C12A C 0.6615(4) 0.6791(6) -0.0874(4)
H13A H 0.6972 0.7370 -0.0416
C13A C 0.5649(3) 0.7202(5) -0.1351(3)
C14A C 0.5143(3) 0.6267(5) -0.2021(3)
H14A H 0.4484 0.6519 -0.2335
C15A C 0.5137(3) 0.8545(8) -0.1171(2)
H15A H 0.4470 0.8737 -0.1491
C16A C 0.5010(3) 1.0743(5) -0.0465(3)
H16A H 0.4311 1.0676 -0.0841
C17A C 0.5501(4) 1.2142(5) -0.0672(3)
H17A H 0.5452 1.2146 -0.1271
H18A H 0.6216 1.2149 -0.0351
C18A C 0.4992(4) 1.3529(9) -0.0461(3)
H19A H 0.5343 1.4404 -0.0574
H20A H 0.4293 1.3572 -0.0821
N4A N 0.5546(3) 0.5038(5) -0.2235(2)
N5A N 0.5582(3) 0.9440(4) -0.0594(2)
N3A N 0.3740(3) 0.0364(5) -0.3331(3)
O1A O 0.4156(2) 0.1205(4) -0.2723(2)
O2A O 0.3533(4) -0.0930(5) -0.3200(3)
O3A O 0.3550(4) 0.0850(6) -0.4059(3)
Ag1A Ag 0.452324(19) 0.35091(5) -0.345207(17)
N1A_2 N 0.3013(3) 0.4556(4) -0.3393(2)
N2B N 0.4289(2) 0.3721(4) 0.41677(18)
N2C N 0.5711(2) 0.3721(4) -0.41677(18)
Ag1A_2 Ag 1.452324(19) 0.35091(5) 0.654793(17)
Ag1B Ag 1.047676(19) 0.85091(5) 0.345207(17)
Ag1C Ag 0.952324(19) 0.85091(5) 0.654793(17)
loop_
_geom_bond_atom_site_label_1
_geom_bond_atom_site_label_2
_geom_bond_site_symmetry_1
_geom_bond_site_symmetry_2
C1 H1 1_555 1_555
C2 C1 1_555 1_555
H2 C2 1_555 1_555
C3 C2 1_555 1_555
H3 C3 1_555 1_555
C4 C3 1_555 1_555
C5 C4 1_555 1_555
H4 C5 1_555 1_555
C6 C4 1_555 1_555
H5 C6 1_555 1_555
C7 H6 1_555 1_555
C8 C7 1_555 1_555
H7 C8 1_555 1_555
H8 C8 1_555 1_555
C9 C8 1_555 1_555
H9 C9 1_555 1_555
H10 C9 1_555 1_555
C10 H11 1_555 1_555
C11 C10 1_555 1_555
H12 C11 1_555 1_555
C12 C11 1_555 1_555
H13 C12 1_555 1_555
C13 C12 1_555 1_555
C14 C13 1_555 1_555
H14 C14 1_555 1_555
C15 C13 1_555 1_555
H15 C15 1_555 1_555
C16 H16 1_555 1_555
C17 C16 1_555 1_555
H17 C17 1_555 1_555
H18 C17 1_555 1_555
C18 C17 1_555 1_555
H19 C18 1_555 1_555
H20 C18 1_555 1_555
N1 C1 1_555 1_555
N2 C6 1_555 1_555
N3 O1 1_555 1_555
N4 C10 1_555 1_555
N5 C15 1_555 1_555
O1 Ag1 1_555 1_555
O2 N3 1_555 1_555
O3 N3 1_555 1_555
Ag1 N1 1_555 1_555
C1A H1A 1_555 1_555
C2A C1A 1_555 1_555
H2A C2A 1_555 1_555
C3A C2A 1_555 1_555
H3A C3A 1_555 1_555
C4A C3A 1_555 1_555
C5A C4A 1_555 1_555
H4A C5A 1_555 1_555
C6A C4A 1_555 1_555
H5A C6A 1_555 1_555
C7A C7 1_555 1_555
H6A C7A 1_555 1_555
C8A C7A 1_555 1_555
H7A C8A 1_555 1_555
H8A C8A 1_555 1_555
C9A C9 1_555 1_555
H9A C9A 1_555 1_555
H10A C9A 1_555 1_555
N1A C1A 1_555 1_555
N2A C6A 1_555 1_555
C10A H11A 1_555 1_555
C11A C10A 1_555 1_555
H12A C11A 1_555 1_555
C12A C11A 1_555 1_555
H13A C12A 1_555 1_555
C13A C12A 1_555 1_555
C14A C13A 1_555 1_555
H14A C14A 1_555 1_555
C15A C13A 1_555 1_555
H15A C15A 1_555 1_555
C16A C16 1_555 1_555
H16A C16A 1_555 1_555
C17A C16A 1_555 1_555
H17A C17A 1_555 1_555
H18A C17A 1_555 1_555
C18A C18 1_555 1_555
H19A C18A 1_555 1_555
H20A C18A 1_555 1_555
N4A C10A 1_555 1_555
N5A C15A 1_555 1_555
N3A O1A 1_555 1_555
O1A Ag1A 1_555 1_555
O2A N3A 1_555 1_555
O3A N3A 1_555 1_555
Ag1A N4A 1_555 1_555
N1A_2 Ag1A 1_555 1_555
N2B Ag1 1_555 1_555
N2C Ag1A 1_555 1_555
Ag1A_2 N1A 1_555 1_555
Ag1B N2 1_555 1_555
Ag1C N2A 1_555 1_555
C5 N1 1_555 1_555
C7 N2 1_555 1_555
C14 N4 1_555 1_555
C16 N5 1_555 1_555
N4 Ag1 1_555 1_555
C5A N1A 1_555 1_555
C7A N2A 1_555 1_555
C8A C9A 1_555 1_555
C14A N4A 1_555 1_555
C16A N5A 1_555 1_555
C17A C18A 1_555 1_555

#END
