
#######################################################################
#
#                 Cambridge Crystallographic Data Centre
#                                CCDC 
#
#######################################################################
#
# If this CIF has been generated from an entry in the Cambridge 
# Structural Database, then it will include bibliographic, chemical, 
# crystal, experimental, refinement or atomic coordinate data resulting 
# from the CCDC's data processing and validation procedures.
#
#######################################################################

data_BPACHG
_symmetry_cell_setting           monoclinic
_symmetry_space_group_name_H-M   'P 21/c'
_symmetry_Int_Tables_number      14
_space_group_name_Hall           '-P 2ybc'
loop_
_symmetry_equiv_pos_site_id
_symmetry_equiv_pos_as_xyz
1 x,y,z
2 -x,1/2+y,1/2-z
3 -x,-y,-z
4 x,1/2-y,1/2+z
_cell_length_a                   8.070(1)
_cell_length_b                   8.802(1)
_cell_length_c                   15.942(3)
_cell_angle_alpha                90
_cell_angle_beta                 94.13(1)
_cell_angle_gamma                90
_cell_volume                     1129.45
loop_
_atom_site_label
_atom_site_type_symbol
_atom_site_fract_x
_atom_site_fract_y
_atom_site_fract_z
Hg1 Hg 0.10220 0.30255 0.55333
Br1 Br 0.32540 0.15880 0.49600
Br2 Br -0.17840 0.39960 0.56420
O1 O 0.03110 0.10650 0.68220
N1 N 0.27250 0.44450 0.66400
N2 N 0.08400 0.39950 0.76570
C1 C 0.23090 0.47170 0.74120
C2 C 0.32980 0.55870 0.79790
C3 C 0.47040 0.62220 0.77130
C4 C 0.51100 0.59790 0.68950
C5 C 0.41420 0.50570 0.63890
C6 C 0.03330 -0.03050 0.69300
C7 C 0.16680 -0.12760 0.66220
Br2B Br 0.17840 0.60040 0.43580
Hg1B Hg -0.10220 0.69745 0.44667
C6A C -0.03330 0.46950 0.80700
N2A N -0.08400 -0.10050 0.73430
Br1B Br -0.32540 0.84120 0.50400
O1B O -0.03110 0.89350 0.31780
N1B N -0.27250 0.55550 0.33600
O1A O -0.03110 0.60650 0.81780
C7A C -0.16680 0.37240 0.83780
C1A C -0.23090 -0.02830 0.75880
C6B C -0.03330 1.03050 0.30700
C1B C -0.23090 0.52830 0.25880
C5B C -0.41420 0.49430 0.36110
Hg1A Hg -0.10220 0.80255 0.94667
N1A N -0.27250 -0.05550 0.83600
C2A C -0.32980 0.05870 0.70210
N2C N 0.08400 1.10050 0.26570
C7B C -0.16680 1.12760 0.33780
N2B N -0.08400 0.60050 0.23430
C2B C -0.32980 0.44130 0.20210
C4B C -0.51100 0.40210 0.31050
Br1A Br -0.32540 0.65880 1.00400
Br2A Br 0.17840 0.89960 0.93580
Br2C Br -0.17840 1.10040 1.06420
N1A_2 N -0.27250 0.94450 0.83600
Hg1A_2 Hg -0.10220 -0.19745 0.94667
C5A C -0.41420 0.00570 0.86110
C3A C -0.47040 0.12220 0.72870
C1C C 0.23090 1.02830 0.24120
C6C C 0.03330 0.53050 0.19300
C3B C -0.47040 0.37780 0.22870
Hg1C Hg 0.10220 1.19745 1.05333
C4A C -0.51100 0.09790 0.81050
N1C N 0.27250 1.05550 0.16400
C2C C 0.32980 0.94130 0.29790
O1C O 0.03110 0.39350 0.18220
C7C C 0.16680 0.62760 0.16220
Br1C Br 0.32540 1.34120 0.99600
O1C_2 O 0.03110 1.39350 1.18220
N1C_2 N 0.27250 1.05550 1.16400
Hg1C_2 Hg 0.10220 1.19745 0.05333
C5C C 0.41420 0.99430 0.13890
C3C C 0.47040 0.87780 0.27130
Hg1C_3 Hg 0.10220 0.19745 0.05333
C4C C 0.51100 0.90210 0.18950
loop_
_geom_bond_atom_site_label_1
_geom_bond_atom_site_label_2
_geom_bond_site_symmetry_1
_geom_bond_site_symmetry_2
Hg1 Br1 1_555 1_555
Br2 Hg1 1_555 1_555
O1 Hg1 1_555 1_555
N1 Hg1 1_555 1_555
N2 C1 1_555 1_555
C1 N1 1_555 1_555
C2 C1 1_555 1_555
C3 C2 1_555 1_555
C4 C3 1_555 1_555
C5 N1 1_555 1_555
C6 O1 1_555 1_555
C7 C6 1_555 1_555
Br2B Hg1 1_555 1_555
Hg1B Br2 1_555 1_555
C6A N2 1_555 1_555
N2A C6 1_555 1_555
Br1B Hg1B 1_555 1_555
O1B Hg1B 1_555 1_555
N1B Hg1B 1_555 1_555
O1A C6A 1_555 1_555
C7A C6A 1_555 1_555
C1A N2A 1_555 1_555
C6B O1B 1_555 1_555
C1B N1B 1_555 1_555
C5B N1B 1_555 1_555
Hg1A O1A 1_555 1_555
N1A C1A 1_555 1_555
C2A C1A 1_555 1_555
N2C C6B 1_555 1_555
C7B C6B 1_555 1_555
N2B C1B 1_555 1_555
C2B C1B 1_555 1_555
C4B C5B 1_555 1_555
Br1A Hg1A 1_555 1_555
Br2A Hg1A 1_555 1_555
Br2C Hg1A 1_555 1_555
N1A_2 Hg1A 1_555 1_555
Hg1A_2 N1A 1_555 1_555
C5A N1A 1_555 1_555
C3A C2A 1_555 1_555
C1C N2C 1_555 1_555
C6C N2B 1_555 1_555
C3B C2B 1_555 1_555
Hg1C Br2A 1_555 1_555
C4A C5A 1_555 1_555
N1C C1C 1_555 1_555
C2C C1C 1_555 1_555
O1C C6C 1_555 1_555
C7C C6C 1_555 1_555
Br1C Hg1C 1_555 1_555
O1C_2 Hg1C 1_555 1_555
N1C_2 Hg1C 1_555 1_555
Hg1C_2 N1C 1_555 1_555
C5C N1C 1_555 1_555
C3C C2C 1_555 1_555
Hg1C_3 O1C 1_555 1_555
C4C C5C 1_555 1_555
C4 C5 1_555 1_555
Br2B Hg1B 1_555 1_555
C4B C3B 1_555 1_555
Br2C Hg1C 1_555 1_555
C3A C4A 1_555 1_555
C3C C4C 1_555 1_555

#END
