
#######################################################################
#
#                 Cambridge Crystallographic Data Centre
#                                CCDC 
#
#######################################################################
#
# If this CIF has been generated from an entry in the Cambridge 
# Structural Database, then it will include bibliographic, chemical, 
# crystal, experimental, refinement or atomic coordinate data resulting 
# from the CCDC's data processing and validation procedures.
#
#######################################################################

data_BPYCUP03
_symmetry_cell_setting           triclinic
_symmetry_space_group_name_H-M   'P -1'
_symmetry_Int_Tables_number      2
_space_group_name_Hall           '-P 1'
loop_
_symmetry_equiv_pos_site_id
_symmetry_equiv_pos_as_xyz
1 x,y,z
2 -x,-y,-z
_cell_length_a                   7.416(5)
_cell_length_b                   11.259(5)
_cell_length_c                   14.888(5)
_cell_angle_alpha                110.139(5)
_cell_angle_beta                 96.235(5)
_cell_angle_gamma                99.347(5)
_cell_volume                     1133.29
loop_
_atom_site_label
_atom_site_type_symbol
_atom_site_fract_x
_atom_site_fract_y
_atom_site_fract_z
C1 C 0.7600(12) 0.5421(8) 0.6362(7)
H1 H 0.8071 0.6030 0.6984
C2 C 0.8125(13) 0.5673(10) 0.5577(8)
H2 H 0.8891 0.6458 0.5662
C3 C 0.7491(13) 0.4734(11) 0.4655(8)
H3 H 0.7838 0.4878 0.4113
C4 C 0.6341(13) 0.3587(10) 0.4551(7)
H4 H 0.5917 0.2946 0.3937
C5 C 0.5819(11) 0.3392(8) 0.5359(5)
C6 C 0.4590(10) 0.2205(7) 0.5334(5)
C7 C 0.3520(13) 0.1279(9) 0.4482(6)
H5 H 0.3537 0.1388 0.3891
C8 C 0.2425(14) 0.0188(9) 0.4531(8)
H6 H 0.1705 -0.0451 0.3970
C9 C 0.2415(13) 0.0060(8) 0.5415(8)
H7 H 0.1700 -0.0673 0.5456
C10 C 0.3475(12) 0.1029(7) 0.6246(7)
H8 H 0.3426 0.0952 0.6846
C11 C 0.5897(15) 0.6482(9) 0.8446(9)
H9 H 0.5416 0.6527 0.7858
C12 C 0.626(2) 0.7592(12) 0.9291(13)
H10 H 0.6019 0.8369 0.9270
C13 C 0.697(2) 0.7510(16) 1.0144(12)
H11 H 0.7245 0.8247 1.0710
C14 C 0.7286(17) 0.6352(15) 1.0186(9)
H12 H 0.7738 0.6296 1.0774
C15 C 0.6911(13) 0.5271(11) 0.9324(7)
C16 C 0.7151(13) 0.3986(11) 0.9274(7)
C17 C 0.7936(15) 0.3720(16) 1.0053(8)
H13 H 0.8342 0.4384 1.0657
C18 C 0.8120(18) 0.2486(19) 0.9941(11)
H14 H 0.8593 0.2295 1.0468
C19 C 0.7589(18) 0.1543(15) 0.9031(11)
H15 H 0.7782 0.0713 0.8922
C20 C 0.6761(15) 0.1832(10) 0.8269(8)
H16 H 0.6351 0.1175 0.7661
N1 N 0.6428(9) 0.4321(6) 0.6258(5)
N2 N 0.4578(9) 0.2082(6) 0.6205(5)
N3 N 0.6228(10) 0.5348(7) 0.8464(5)
N4 N 0.6537(10) 0.3031(7) 0.8388(5)
O1 O 0.2547(9) 0.4025(9) 0.7363(6)
O2 O 0.0107(12) 0.2975(8) 0.6122(5)
O3 O -0.0428(11) 0.4206(8) 0.7633(5)
O4 O 0.0688(13) 0.2326(8) 0.7424(6)
Cl1 Cl 0.0744(3) 0.34355(18) 0.71326(13)
Cu1 Cu 0.58261(14) 0.36883(9) 0.73314(6)
Cu1_2 Cu -0.41739(14) 0.36883(9) 0.73314(6)
O3_2 O 0.9572(11) 0.4206(8) 0.7633(5)
O5 O 1.087(3) -0.111(2) 0.7082(17)
O6 O 1.201(5) -0.0647(14) 0.8739(11)
O7 O 1.178(2) -0.2593(9) 0.7634(9)
O8 O 1.353(3) -0.074(2) 0.7727(13)
Cl2 Cl 1.1847(8) -0.1305(3) 0.7779(3)
loop_
_geom_bond_atom_site_label_1
_geom_bond_atom_site_label_2
_geom_bond_site_symmetry_1
_geom_bond_site_symmetry_2
C1 H1 1_555 1_555
C2 C1 1_555 1_555
H2 C2 1_555 1_555
C3 C2 1_555 1_555
H3 C3 1_555 1_555
C4 C3 1_555 1_555
H4 C4 1_555 1_555
C5 C4 1_555 1_555
C6 C5 1_555 1_555
C7 C6 1_555 1_555
H5 C7 1_555 1_555
C8 C7 1_555 1_555
H6 C8 1_555 1_555
C9 C8 1_555 1_555
H7 C9 1_555 1_555
C10 C9 1_555 1_555
H8 C10 1_555 1_555
C11 H9 1_555 1_555
C12 C11 1_555 1_555
H10 C12 1_555 1_555
C13 C12 1_555 1_555
H11 C13 1_555 1_555
C14 C13 1_555 1_555
H12 C14 1_555 1_555
C15 C14 1_555 1_555
C16 C15 1_555 1_555
C17 C16 1_555 1_555
H13 C17 1_555 1_555
C18 C17 1_555 1_555
H14 C18 1_555 1_555
C19 C18 1_555 1_555
H15 C19 1_555 1_555
C20 C19 1_555 1_555
H16 C20 1_555 1_555
N1 C1 1_555 1_555
N2 C6 1_555 1_555
N3 C11 1_555 1_555
N4 C16 1_555 1_555
O1 Cl1 1_555 1_555
O2 Cl1 1_555 1_555
O3 Cl1 1_555 1_555
O4 Cl1 1_555 1_555
Cu1 N1 1_555 1_555
O5 Cl2 1_555 1_555
O6 Cl2 1_555 1_555
O7 Cl2 1_555 1_555
O8 Cl2 1_555 1_555
Cu1_2 O3 1_555 1_555
O3_2 Cu1 1_555 1_555
C5 N1 1_555 1_555
C10 N2 1_555 1_555
C15 N3 1_555 1_555
C20 N4 1_555 1_555
N2 Cu1 1_555 1_555
N3 Cu1 1_555 1_555
N4 Cu1 1_555 1_555
O1 Cu1 1_555 1_555

#END
