
#######################################################################
#
#                 Cambridge Crystallographic Data Centre
#                                CCDC 
#
#######################################################################
#
# If this CIF has been generated from an entry in the Cambridge 
# Structural Database, then it will include bibliographic, chemical, 
# crystal, experimental, refinement or atomic coordinate data resulting 
# from the CCDC's data processing and validation procedures.
#
#######################################################################

data_BPYCUC
_symmetry_cell_setting           triclinic
_symmetry_space_group_name_H-M   'P -1'
_symmetry_Int_Tables_number      2
_space_group_name_Hall           '-P 1'
loop_
_symmetry_equiv_pos_site_id
_symmetry_equiv_pos_as_xyz
1 x,y,z
2 -x,-y,-z
_cell_length_a                   9.40(2)
_cell_length_b                   10.68(3)
_cell_length_c                   15.34(4)
_cell_angle_alpha                122.15(13)
_cell_angle_beta                 103.67(13)
_cell_angle_gamma                105.93(12)
_cell_volume                     1106.9
loop_
_atom_site_label
_atom_site_type_symbol
_atom_site_fract_x
_atom_site_fract_y
_atom_site_fract_z
Cl1 Cl 0.07921 0.75614 0.31672
Cl2 Cl 0.24514 1.09556 0.62541
Cl3 Cl 0.49178 0.83440 0.51927
Cu2 Cu 0.00000 1.00000 0.50000
Cu3 Cu -0.00905 0.46922 0.22684
Cu4 Cu 0.34294 0.96236 0.48859
C1 C 0.17523 0.29250 0.26756
C2 C 0.19760 0.19087 0.29238
C3 C 0.09294 0.13740 0.32955
C4 C -0.02276 0.19162 0.34400
C5 C -0.03308 0.29814 0.32185
C6 C -0.24606 0.53694 0.32102
C7 C -0.34433 0.52277 0.37271
C8 C -0.34709 0.42628 0.40506
C9 C -0.24843 0.34782 0.38938
C10 C -0.14881 0.36838 0.33798
H1 H 0.24176 0.31835 0.22962
H2 H 0.27624 0.13734 0.27552
H3 H 0.09973 0.05253 0.33992
H4 H -0.08411 0.16432 0.37337
H5 H -0.24448 0.60912 0.29730
H6 H -0.43414 0.56468 0.37592
H7 H -0.42019 0.41330 0.44196
H8 H -0.24352 0.29109 0.41427
N1 N 0.06424 0.34789 0.28208
N2 N -0.14998 0.46020 0.30439
N3 N 0.12066 0.45753 0.14023
C11 C 0.29017 0.54203 0.19077
C12 C 0.37260 0.52182 0.12617
C13 C 0.28213 0.41652 0.00643
C14 C 0.11027 0.33565 -0.04401
C15 C 0.03118 0.35735 0.02381
H9 H 0.35691 0.60847 0.27792
H10 H 0.50619 0.57895 0.16262
H11 H 0.34659 0.42358 -0.03730
H12 H 0.05174 0.28387 -0.11992
N4 N -0.20510 0.31096 0.05768
C16 C -0.37026 0.23993 0.02142
C17 C -0.48833 0.13598 -0.09459
C18 C -0.43419 0.10415 -0.17590
C19 C -0.26412 0.17693 -0.13948
C20 C -0.15207 0.27801 -0.02219
H13 H -0.41218 0.27090 0.08226
H14 H -0.61975 0.08314 -0.12396
H15 H -0.52122 0.01088 -0.26090
H16 H -0.22906 0.14056 -0.19314
Cl3A Cl 0.50822 1.16560 0.48073
Cu4A Cu 0.65706 1.03764 0.51141
Cl2A Cl -0.24514 0.90444 0.37459
Cl1A Cl 0.92079 1.24386 0.68328
Cl2A_2 Cl 0.75486 0.90444 0.37459
Cu4A_2 Cu -0.34294 1.03764 0.51141
Cu3A Cu 1.00905 1.53078 0.77316
N1A N 0.93576 1.65211 0.71792
N2A N 1.14998 1.53980 0.69561
N3A N 0.87934 1.54247 0.85977
N4A N 1.20510 1.68904 0.94232
C1A C 0.82477 1.70750 0.73244
C5A C 1.03308 1.70186 0.67815
C6A C 1.24606 1.46306 0.67898
C10A C 1.14881 1.63162 0.66202
C11A C 0.70983 1.45797 0.80923
C15A C 0.96882 1.64265 0.97619
C16A C 1.37026 1.76007 0.97858
C20A C 1.15207 1.72199 1.02219
C2A C 0.80240 1.80913 0.70762
H1A H 0.75824 1.68165 0.77038
C4A C 1.02276 1.80838 0.65600
C7A C 1.34433 1.47723 0.62729
H5A H 1.24448 1.39088 0.70270
C9A C 1.24843 1.65218 0.61062
C12A C 0.62740 1.47818 0.87383
H9A H 0.64309 1.39153 0.72208
C14A C 0.88973 1.66435 1.04401
C17A C 1.48833 1.86402 1.09459
H13A H 1.41218 1.72910 0.91774
C19A C 1.26412 1.82307 1.13948
C3A C 0.90706 1.86260 0.67045
H2A H 0.72376 1.86266 0.72448
H4A H 1.08411 1.83568 0.62663
C8A C 1.34709 1.57372 0.59494
H6A H 1.43414 1.43532 0.62408
H8A H 1.24352 1.70891 0.58573
C13A C 0.71787 1.58348 0.99357
H10A H 0.49381 1.42105 0.83738
H12A H 0.94826 1.71613 1.11992
C18A C 1.43419 1.89585 1.17590
H14A H 1.61975 1.91686 1.12396
H16A H 1.22906 1.85944 1.19314
H3A H 0.90027 1.94747 0.66008
H7A H 1.42019 1.58670 0.55804
H11A H 0.65341 1.57642 1.03730
H15A H 1.52122 1.98912 1.26090
Cl4 Cl 0.24613 0.07728 0.02548
Cu1 Cu 0.00000 0.00000 0.00000
Cl4A Cl -0.24613 -0.07728 -0.02548
loop_
_geom_bond_atom_site_label_1
_geom_bond_atom_site_label_2
_geom_bond_site_symmetry_1
_geom_bond_site_symmetry_2
Cl1 Cu3 1_555 1_555
Cl2 Cu2 1_555 1_555
Cl3 Cu4 1_555 1_555
Cl4 Cu1 1_555 1_555
Cu1 Cl4A 1_555 1_555
Cu2 Cl2A 1_555 1_555
Cu3 N1 1_555 1_555
Cu4 Cl1 1_555 1_555
C1 C2 1_555 1_555
C2 C3 1_555 1_555
C3 C4 1_555 1_555
C4 C5 1_555 1_555
C5 C10 1_555 1_555
C6 C7 1_555 1_555
C7 C8 1_555 1_555
C8 C9 1_555 1_555
C9 C10 1_555 1_555
C10 N2 1_555 1_555
H1 C1 1_555 1_555
H2 C2 1_555 1_555
H3 C3 1_555 1_555
H4 C4 1_555 1_555
H5 C6 1_555 1_555
H6 C7 1_555 1_555
H7 C8 1_555 1_555
H8 C9 1_555 1_555
N1 C1 1_555 1_555
N2 Cu3 1_555 1_555
N3 Cu3 1_555 1_555
C11 N3 1_555 1_555
C12 C11 1_555 1_555
C13 C12 1_555 1_555
C14 C13 1_555 1_555
C15 N3 1_555 1_555
H9 C11 1_555 1_555
H10 C12 1_555 1_555
H11 C13 1_555 1_555
H12 C14 1_555 1_555
N4 Cu3 1_555 1_555
C16 N4 1_555 1_555
C17 C16 1_555 1_555
C18 C17 1_555 1_555
C19 C18 1_555 1_555
C20 C15 1_555 1_555
H13 C16 1_555 1_555
H14 C17 1_555 1_555
H15 C18 1_555 1_555
H16 C19 1_555 1_555
Cl3A Cu4 1_555 1_555
Cu4A Cl3 1_555 1_555
Cl2A Cu4A_2 1_555 1_555
Cl1A Cu4A 1_555 1_555
Cl2A_2 Cu4A 1_555 1_555
Cu3A Cl1A 1_555 1_555
N1A Cu3A 1_555 1_555
N2A Cu3A 1_555 1_555
N3A Cu3A 1_555 1_555
N4A Cu3A 1_555 1_555
C1A N1A 1_555 1_555
C5A N1A 1_555 1_555
C6A N2A 1_555 1_555
C10A N2A 1_555 1_555
C11A N3A 1_555 1_555
C15A N3A 1_555 1_555
C16A N4A 1_555 1_555
C20A N4A 1_555 1_555
C2A C1A 1_555 1_555
H1A C1A 1_555 1_555
C4A C5A 1_555 1_555
C7A C6A 1_555 1_555
H5A C6A 1_555 1_555
C9A C10A 1_555 1_555
C12A C11A 1_555 1_555
H9A C11A 1_555 1_555
C14A C15A 1_555 1_555
C17A C16A 1_555 1_555
H13A C16A 1_555 1_555
C19A C20A 1_555 1_555
C3A C2A 1_555 1_555
H2A C2A 1_555 1_555
H4A C4A 1_555 1_555
C8A C7A 1_555 1_555
H6A C7A 1_555 1_555
H8A C9A 1_555 1_555
C13A C12A 1_555 1_555
H10A C12A 1_555 1_555
H12A C14A 1_555 1_555
C18A C17A 1_555 1_555
H14A C17A 1_555 1_555
H16A C19A 1_555 1_555
H3A C3A 1_555 1_555
H7A C8A 1_555 1_555
H11A C13A 1_555 1_555
H15A C18A 1_555 1_555
Cl2 Cu4 1_555 1_555
Cu4 Cu4A 1_555 1_555
C5 N1 1_555 1_555
C6 N2 1_555 1_555
C14 C15 1_555 1_555
N4 C20 1_555 1_555
C19 C20 1_555 1_555
Cl3A Cu4A 1_555 1_555
C5A C10A 1_555 1_555
C15A C20A 1_555 1_555
C4A C3A 1_555 1_555
C9A C8A 1_555 1_555
C14A C13A 1_555 1_555
C19A C18A 1_555 1_555

#END
