
#######################################################################
#
#                 Cambridge Crystallographic Data Centre
#                                CCDC 
#
#######################################################################
#
# If this CIF has been generated from an entry in the Cambridge 
# Structural Database, then it will include bibliographic, chemical, 
# crystal, experimental, refinement or atomic coordinate data resulting 
# from the CCDC's data processing and validation procedures.
#
#######################################################################

data_BPYCUP05
_symmetry_cell_setting           triclinic
_symmetry_space_group_name_H-M   'P -1'
_symmetry_Int_Tables_number      2
_space_group_name_Hall           '-P 1'
loop_
_symmetry_equiv_pos_site_id
_symmetry_equiv_pos_as_xyz
1 x,y,z
2 -x,-y,-z
_cell_length_a                   7.3899(12)
_cell_length_b                   11.183(2)
_cell_length_c                   14.789(4)
_cell_angle_alpha                110.113(8)
_cell_angle_beta                 96.402(9)
_cell_angle_gamma                99.316(7)
_cell_volume                     1113.93
loop_
_atom_site_label
_atom_site_type_symbol
_atom_site_fract_x
_atom_site_fract_y
_atom_site_fract_z
Cu1 Cu -0.08283(17) 0.13088(11) 0.26672(10)
Cl1 Cl -0.5741(3) 0.1571(2) 0.2872(2)
N1 N -0.1242(12) -0.0355(9) 0.1534(9)
N2 N -0.1416(10) 0.0678(8) 0.3739(7)
N3 N 0.0423(10) 0.2914(8) 0.3799(7)
C1 C 0.0404(11) 0.2795(9) 0.4653(9)
O1 O -0.4620(13) 0.0752(10) 0.2330(8)
C2 C -0.0893(19) -0.1484(11) 0.1581(15)
H1 H -0.0412 -0.1519 0.2177
N4 N -0.1565(12) 0.1963(10) 0.1612(9)
O2 O -0.5080(15) 0.2029(9) 0.3882(8)
O3 O -0.7549(10) 0.0947(10) 0.2652(10)
C3 C 0.2583(15) 0.4922(11) 0.4576(12)
H2 H 0.3307 0.5659 0.4537
C4 C -0.1773(17) 0.3175(14) 0.1737(13)
H3 H -0.1336 0.3833 0.2349
C5 C -0.0813(13) 0.1595(10) 0.4634(9)
C6 C 0.1536(15) 0.3979(10) 0.3748(11)
H4 H 0.1578 0.4060 0.3145
C7 C -0.3147(15) -0.0674(14) 0.4417(13)
H5 H -0.3951 -0.1450 0.4335
O4 O -0.5682(16) 0.2666(10) 0.2569(10)
C8 C -0.2147(15) 0.1036(13) 0.0724(11)
C9 C -0.1338(15) 0.1406(13) 0.5440(10)
H6 H -0.0930 0.2047 0.6061
C10 C -0.2606(14) -0.0437(11) 0.3632(11)
H7 H -0.3067 -0.1057 0.3007
C11 C 0.1494(15) 0.3723(11) 0.5508(9)
H8 H 0.1485 0.3617 0.6104
C12 C -0.1905(15) -0.0256(14) 0.0672(13)
C13 C -0.2488(16) 0.0240(15) 0.5305(13)
H9 H -0.2818 0.0084 0.5849
C14 C 0.2585(16) 0.4800(11) 0.5453(12)
H10 H 0.3320 0.5443 0.6015
C15 C -0.315(2) 0.256(3) 0.0091(19)
H11 H -0.3659 0.2776 -0.0423
C16 C -0.126(2) -0.2582(15) 0.0739(18)
H12 H -0.1020 -0.3365 0.0761
C17 C -0.2286(19) -0.1346(16) -0.0194(15)
H13 H -0.2735 -0.1303 -0.0793
C18 C -0.196(2) -0.2506(16) -0.0120(17)
H14 H -0.2235 -0.3256 -0.0683
C19 C -0.2949(16) 0.128(2) -0.0078(13)
H15 H -0.3330 0.0629 -0.0695
C20 C -0.262(2) 0.348(2) 0.0987(19)
H16 H -0.2809 0.4317 0.1106
Cu1_2 Cu -1.08283(17) 0.13088(11) 0.26672(10)
O3_2 O 0.2451(10) 0.0947(10) 0.2652(10)
Cl2 Cl -0.6835(10) -0.3692(4) 0.2233(4)
O5 O -0.679(2) -0.2424(13) 0.2377(14)
O6 O -0.582(4) -0.389(3) 0.291(2)
O7 O -0.853(4) -0.419(3) 0.232(2)
O8 O -0.681(6) -0.4323(18) 0.1249(17)
loop_
_geom_bond_atom_site_label_1
_geom_bond_atom_site_label_2
_geom_bond_site_symmetry_1
_geom_bond_site_symmetry_2
Cu1 N1 1_555 1_555
Cl1 O1 1_555 1_555
N1 C2 1_555 1_555
N2 Cu1 1_555 1_555
N3 Cu1 1_555 1_555
C1 N3 1_555 1_555
O1 Cu1 1_555 1_555
C2 H1 1_555 1_555
N4 Cu1 1_555 1_555
O2 Cl1 1_555 1_555
O3 Cl1 1_555 1_555
C3 H2 1_555 1_555
C4 N4 1_555 1_555
H3 C4 1_555 1_555
C5 N2 1_555 1_555
C6 N3 1_555 1_555
H4 C6 1_555 1_555
C7 H5 1_555 1_555
O4 Cl1 1_555 1_555
C8 N4 1_555 1_555
C9 C5 1_555 1_555
H6 C9 1_555 1_555
C10 N2 1_555 1_555
H7 C10 1_555 1_555
C11 C1 1_555 1_555
H8 C11 1_555 1_555
C12 N1 1_555 1_555
C13 C7 1_555 1_555
H9 C13 1_555 1_555
C14 C3 1_555 1_555
H10 C14 1_555 1_555
C15 H11 1_555 1_555
C16 C2 1_555 1_555
H12 C16 1_555 1_555
C17 C12 1_555 1_555
H13 C17 1_555 1_555
C18 C16 1_555 1_555
H14 C18 1_555 1_555
C19 C8 1_555 1_555
H15 C19 1_555 1_555
C20 C4 1_555 1_555
H16 C20 1_555 1_555
Cl2 O5 1_555 1_555
O6 Cl2 1_555 1_555
O7 Cl2 1_555 1_555
O8 Cl2 1_555 1_555
Cu1_2 O3 1_555 1_555
O3_2 Cu1 1_555 1_555
C1 C5 1_555 1_555
C3 C6 1_555 1_555
C7 C10 1_555 1_555
C8 C12 1_555 1_555
C9 C13 1_555 1_555
C11 C14 1_555 1_555
C15 C19 1_555 1_555
C15 C20 1_555 1_555
C17 C18 1_555 1_555

#END
