
#######################################################################
#
#                 Cambridge Crystallographic Data Centre
#                                CCDC 
#
#######################################################################
#
# If this CIF has been generated from an entry in the Cambridge 
# Structural Database, then it will include bibliographic, chemical, 
# crystal, experimental, refinement or atomic coordinate data resulting 
# from the CCDC's data processing and validation procedures.
#
#######################################################################

data_BRMPYN
_symmetry_cell_setting           monoclinic
_symmetry_space_group_name_H-M   'C 2/m'
_symmetry_Int_Tables_number      12
_space_group_name_Hall           '-C 2y'
loop_
_symmetry_equiv_pos_site_id
_symmetry_equiv_pos_as_xyz
1 x,y,z
2 1/2+x,1/2+y,z
3 -x,y,-z
4 1/2-x,1/2+y,-z
5 -x,-y,-z
6 1/2-x,1/2-y,-z
7 x,-y,z
8 1/2+x,1/2-y,z
_cell_length_a                   9.090
_cell_length_b                   8.200
_cell_length_c                   6.520
_cell_angle_alpha                90
_cell_angle_beta                 108.60
_cell_angle_gamma                90
_cell_volume                     460.604
loop_
_atom_site_label
_atom_site_type_symbol
_atom_site_fract_x
_atom_site_fract_y
_atom_site_fract_z
C1 C 0.13400 0.00000 0.45400
Br1 Br 0.00000 0.28200 0.00000
C2 C 0.13200 0.00000 0.66800
C3 C 0.29000 0.00000 0.41200
Ni1 Ni 0.00000 0.00000 0.00000
N1 N 0.00600 0.00000 0.28700
N1B N -0.00600 0.00000 0.71300
C2B C -0.13200 0.00000 0.33200
Br1D Br 0.00000 -0.28200 0.00000
N1B_2 N -0.00600 0.00000 -0.28700
C1B C -0.13400 0.00000 0.54600
Ni1_2 Ni 0.00000 0.00000 1.00000
C3B C -0.29000 0.00000 0.58800
loop_
_geom_bond_atom_site_label_1
_geom_bond_atom_site_label_2
_geom_bond_site_symmetry_1
_geom_bond_site_symmetry_2
C1 C2 1_555 1_555
Br1 Ni1 1_555 1_555
C2 N1B 1_555 1_555
C3 C1 1_555 1_555
Ni1 N1 1_555 1_555
N1 C1 1_555 1_555
N1B C1B 1_555 1_555
C2B N1 1_555 1_555
Br1D Ni1 1_555 1_555
N1B_2 Ni1 1_555 1_555
C1B C2B 1_555 1_555
Ni1_2 N1B 1_555 1_555
C3B C1B 1_555 1_555

#END
