
#######################################################################
#
#                 Cambridge Crystallographic Data Centre
#                                CCDC 
#
#######################################################################
#
# If this CIF has been generated from an entry in the Cambridge 
# Structural Database, then it will include bibliographic, chemical, 
# crystal, experimental, refinement or atomic coordinate data resulting 
# from the CCDC's data processing and validation procedures.
#
#######################################################################

data_BTANCU
_symmetry_cell_setting           monoclinic
_symmetry_space_group_name_H-M   'P 21/a'
_symmetry_Int_Tables_number      14
_space_group_name_Hall           '-P 2yab'
loop_
_symmetry_equiv_pos_site_id
_symmetry_equiv_pos_as_xyz
1 x,y,z
2 1/2-x,1/2+y,-z
3 -x,-y,-z
4 1/2+x,1/2-y,z
_cell_length_a                   12.586(3)
_cell_length_b                   12.883(2)
_cell_length_c                   21.532(4)
_cell_angle_alpha                90
_cell_angle_beta                 104.73(5)
_cell_angle_gamma                90
_cell_volume                     3376.57
loop_
_atom_site_label
_atom_site_type_symbol
_atom_site_fract_x
_atom_site_fract_y
_atom_site_fract_z
Cu1 Cu 0.11600 0.22800 0.24280
Cu2 Cu 0.34930 0.27460 0.20260
Cl1 Cl 0.27860 0.10220 0.57570
Cl2 Cl 0.20310 0.39440 -0.13040
O1 O 0.16700 0.34270 0.19950
O2 O 0.00180 0.39070 0.14830
O3 O 0.29700 0.16360 0.24670
O4 O 0.46820 0.11560 0.28930
O5 O 0.06990 0.14990 0.16280
O6 O 0.07320 0.11800 0.29220
O7 O -0.10520 0.11750 0.15300
O8 O -0.10490 0.14750 0.28270
N1 N 0.18350 0.31550 0.32370
N2 N 0.28470 0.18610 0.12190
C1 C 0.20900 0.26800 0.38610
C2 C 0.13320 0.26900 0.42180
C3 C 0.15350 0.21600 0.47970
C4 C 0.25000 0.16800 0.50250
C5 C 0.33000 0.16800 0.46760
C6 C 0.30710 0.21900 0.40930
C7 C 0.26290 0.23500 0.05980
C8 C 0.33610 0.22400 0.02260
C9 C 0.31920 0.27100 -0.03500
C10 C 0.22700 0.32900 -0.05740
C11 C 0.15000 0.33900 -0.02200
C12 C 0.16590 0.29100 0.03530
C13 C -0.01660 0.10290 0.13920
C14 C -0.01400 0.02600 0.08750
C15 C -0.07100 -0.07700 0.09200
C16 C -0.02300 -0.12500 0.15500
C17 C -0.01780 0.10210 0.30720
C18 C -0.01800 0.02500 0.35980
C19 C 0.07900 -0.04000 0.38260
C20 C 0.08200 -0.10400 0.43800
C21 C 0.09990 0.40500 0.16570
C22 C 0.14300 0.50300 0.14490
C23 C 0.17400 0.58100 0.19200
C24 C 0.15400 0.60300 0.24300
C25 C 0.36950 0.09900 0.27810
C26 C 0.32300 0.00100 0.29960
C27 C 0.40300 -0.06900 0.33600
C28 C 0.37100 -0.16000 0.35600
Cu2C Cu -0.15070 0.22540 0.20260
Cu1C Cu 0.61600 0.27200 0.24280
O7C O 0.39480 0.38250 0.15300
O8C O 0.39510 0.35250 0.28270
loop_
_geom_bond_atom_site_label_1
_geom_bond_atom_site_label_2
_geom_bond_site_symmetry_1
_geom_bond_site_symmetry_2
Cu1 Cu2 1_555 1_555
Cu2 O1 1_555 1_555
Cl1 C4 1_555 1_555
Cl2 C10 1_555 1_555
O1 Cu1 1_555 1_555
O2 C21 1_555 1_555
O3 Cu1 1_555 1_555
O4 C25 1_555 1_555
O5 Cu1 1_555 1_555
O6 Cu1 1_555 1_555
O7 C13 1_555 1_555
O8 C17 1_555 1_555
N1 Cu1 1_555 1_555
N2 Cu2 1_555 1_555
C1 N1 1_555 1_555
C2 C1 1_555 1_555
C3 C2 1_555 1_555
C4 C3 1_555 1_555
C5 C4 1_555 1_555
C6 C1 1_555 1_555
C7 N2 1_555 1_555
C8 C7 1_555 1_555
C9 C8 1_555 1_555
C10 C9 1_555 1_555
C11 C10 1_555 1_555
C12 C7 1_555 1_555
C13 O5 1_555 1_555
C14 C13 1_555 1_555
C15 C14 1_555 1_555
C16 C15 1_555 1_555
C17 O6 1_555 1_555
C18 C17 1_555 1_555
C19 C18 1_555 1_555
C20 C19 1_555 1_555
C21 O1 1_555 1_555
C22 C21 1_555 1_555
C23 C22 1_555 1_555
C24 C23 1_555 1_555
C25 O3 1_555 1_555
C26 C25 1_555 1_555
C27 C26 1_555 1_555
C28 C27 1_555 1_555
Cu2C Cu1 1_555 1_555
Cu1C Cu2 1_555 1_555
O7C Cu2 1_555 1_555
O8C Cu2 1_555 1_555
Cu2 O3 1_555 1_555
O7 Cu2C 1_555 1_555
O8 Cu2C 1_555 1_555
C5 C6 1_555 1_555
C11 C12 1_555 1_555

#END
