
#######################################################################
#
#                 Cambridge Crystallographic Data Centre
#                                CCDC 
#
#######################################################################
#
# If this CIF has been generated from an entry in the Cambridge 
# Structural Database, then it will include bibliographic, chemical, 
# crystal, experimental, refinement or atomic coordinate data resulting 
# from the CCDC's data processing and validation procedures.
#
#######################################################################

data_BTHTZN
_symmetry_cell_setting           orthorhombic
_symmetry_space_group_name_H-M   'P 21 21 21'
_symmetry_Int_Tables_number      19
_space_group_name_Hall           'P 2ac 2ab'
loop_
_symmetry_equiv_pos_site_id
_symmetry_equiv_pos_as_xyz
1 x,y,z
2 1/2+x,1/2-y,-z
3 -x,1/2+y,1/2-z
4 1/2-x,-y,1/2+z
_cell_length_a                   16.529(2)
_cell_length_b                   22.129(3)
_cell_length_c                   14.241(2)
_cell_angle_alpha                90
_cell_angle_beta                 90
_cell_angle_gamma                90
_cell_volume                     5208.93
loop_
_atom_site_label
_atom_site_type_symbol
_atom_site_fract_x
_atom_site_fract_y
_atom_site_fract_z
Zn1 Zn 0.47360 0.38310 0.02260
Zn2 Zn 0.28220 0.47640 -0.06940
Zn3 Zn 0.28630 0.41670 0.18450
Zn4 Zn 0.26830 0.31280 -0.01770
S1 S 0.60560 0.36300 -0.00650
S2 S 0.42140 0.45710 -0.08070
S3 S 0.42860 0.41850 0.16830
S4 S 0.40360 0.29070 -0.00350
S5 S 0.23770 0.55760 -0.15890
S6 S 0.24030 0.38260 -0.13610
S7 S 0.25060 0.49900 0.08770
S8 S 0.20970 0.33470 0.12720
O1 O 0.21970 0.23350 -0.06530
C1 C 0.23690 0.21280 -0.19020
C2 C 0.66330 0.42070 0.04260
C3 C 0.63600 0.45310 0.11360
C4 C 0.68450 0.49380 0.17550
C5 C 0.74600 0.50320 0.12320
C6 C 0.77820 0.49470 0.00370
C7 C 0.73290 0.42930 -0.02740
C8 C 0.48250 0.52240 -0.05380
C9 C 0.55430 0.52840 -0.10140
C10 C 0.60250 0.58120 -0.07900
C11 C 0.57670 0.62140 -0.01510
C12 C 0.50840 0.61550 0.02830
C13 C 0.45460 0.56420 0.01150
C14 C 0.47180 0.37450 0.25880
C15 C 0.50090 0.31720 0.24430
C16 C 0.53830 0.28560 0.32150
C17 C 0.54330 0.31590 0.40180
C18 C 0.51780 0.37030 0.42030
C19 C 0.48240 0.40500 0.34390
C20 C 0.43150 0.26390 -0.11680
C21 C 0.43790 0.30020 -0.19200
C22 C 0.46210 0.27740 -0.28440
C23 C 0.47750 0.21810 -0.28800
C24 C 0.47680 0.18200 -0.21780
C25 C 0.45520 0.20350 -0.12410
C26 C 0.25390 0.62310 -0.09030
C27 C 0.31920 0.65540 -0.10630
C28 C 0.33040 0.70930 -0.05630
C29 C 0.27940 0.72650 0.01570
C30 C 0.21270 0.69200 0.03150
C31 C 0.19890 0.63880 -0.02430
C32 C 0.13350 0.38530 -0.15500
C33 C 0.08060 0.34280 -0.11620
C34 C 0.00150 0.34590 -0.13410
C35 C -0.03390 0.38890 -0.19370
C36 C 0.01990 0.42850 -0.23380
C37 C 0.10080 0.42610 -0.21660
C38 C 0.14410 0.50370 0.09760
C39 C 0.09230 0.46940 0.04680
C40 C 0.00880 0.47050 0.05910
C41 C -0.01850 0.51250 0.12640
C42 C 0.02660 0.54840 0.17460
C43 C 0.10930 0.54130 0.16270
C44 C 0.23460 0.26770 0.19520
C45 C 0.17260 0.22300 0.19920
C46 C 0.19420 0.17230 0.25820
C47 C 0.26640 0.17070 0.30270
C48 C 0.32140 0.21300 0.29720
C49 C 0.30400 0.26350 0.24320
H1 H 0.56830 0.50000 -0.14580
H2 H 0.65270 0.58590 -0.10860
H3 H 0.60550 0.65620 -0.00210
H4 H 0.48770 0.64400 0.07400
H5 H 0.40180 0.55940 0.04450
H6 H 0.49490 0.29820 0.18530
H7 H 0.55630 0.24570 0.31400
H8 H 0.56850 0.29520 0.45240
H9 H 0.52310 0.38890 0.48100
H10 H 0.46610 0.44720 0.35270
H11 H 0.42490 0.34120 -0.18690
H12 H 0.46680 0.30390 -0.33780
H13 H 0.49330 0.20110 -0.34690
H14 H 0.48820 0.13920 -0.22240
H15 H 0.45610 0.17670 -0.07080
H16 H 0.35930 0.64260 -0.15200
H17 H 0.37630 0.73460 -0.07440
H18 H 0.29210 0.76070 0.05090
H19 H 0.17590 0.70180 0.08080
H20 H 0.15140 0.63480 -0.01460
H21 H 0.10300 0.31140 -0.07730
H22 H -0.03280 0.31740 -0.10410
H23 H -0.09090 0.39170 -0.20410
H24 H 0.00300 0.45780 -0.27780
H25 H 0.13880 0.45400 -0.24620
H26 H 0.11540 0.44200 -0.00040
H27 H -0.02590 0.44440 0.02220
H28 H -0.07650 0.51390 0.13150
H29 H 0.00600 0.57870 0.21220
H30 H 0.14510 0.56290 0.20270
H31 H 0.12400 0.22580 0.16800
H32 H 0.15570 0.14150 0.26780
H33 H 0.27820 0.13500 0.33910
H34 H 0.37210 0.20990 0.32730
H35 H 0.34180 0.29590 0.24090
S5C S 0.26230 0.44240 0.34110
Zn3C Zn 0.21370 0.58330 -0.31550
loop_
_geom_bond_atom_site_label_1
_geom_bond_atom_site_label_2
_geom_bond_site_symmetry_1
_geom_bond_site_symmetry_2
Zn1 S1 1_555 1_555
Zn2 S2 1_555 1_555
Zn3 S3 1_555 1_555
Zn4 S4 1_555 1_555
S1 C2 1_555 1_555
S2 Zn1 1_555 1_555
S3 Zn1 1_555 1_555
S4 Zn1 1_555 1_555
S5 Zn2 1_555 1_555
S6 Zn2 1_555 1_555
S7 Zn2 1_555 1_555
S8 Zn3 1_555 1_555
O1 Zn4 1_555 1_555
C1 O1 1_555 1_555
C2 C3 1_555 1_555
C3 C4 1_555 1_555
C4 C5 1_555 1_555
C5 C6 1_555 1_555
C6 C7 1_555 1_555
C7 C2 1_555 1_555
C8 S2 1_555 1_555
C9 C8 1_555 1_555
C10 C9 1_555 1_555
C11 C10 1_555 1_555
C12 C11 1_555 1_555
C13 C8 1_555 1_555
C14 S3 1_555 1_555
C15 C14 1_555 1_555
C16 C15 1_555 1_555
C17 C16 1_555 1_555
C18 C17 1_555 1_555
C19 C14 1_555 1_555
C20 S4 1_555 1_555
C21 C20 1_555 1_555
C22 C21 1_555 1_555
C23 C22 1_555 1_555
C24 C23 1_555 1_555
C25 C20 1_555 1_555
C26 S5 1_555 1_555
C27 C26 1_555 1_555
C28 C27 1_555 1_555
C29 C28 1_555 1_555
C30 C29 1_555 1_555
C31 C26 1_555 1_555
C32 S6 1_555 1_555
C33 C32 1_555 1_555
C34 C33 1_555 1_555
C35 C34 1_555 1_555
C36 C35 1_555 1_555
C37 C32 1_555 1_555
C38 S7 1_555 1_555
C39 C38 1_555 1_555
C40 C39 1_555 1_555
C41 C40 1_555 1_555
C42 C41 1_555 1_555
C43 C38 1_555 1_555
C44 S8 1_555 1_555
C45 C44 1_555 1_555
C46 C45 1_555 1_555
C47 C46 1_555 1_555
C48 C47 1_555 1_555
C49 C44 1_555 1_555
H1 C9 1_555 1_555
H2 C10 1_555 1_555
H3 C11 1_555 1_555
H4 C12 1_555 1_555
H5 C13 1_555 1_555
H6 C15 1_555 1_555
H7 C16 1_555 1_555
H8 C17 1_555 1_555
H9 C18 1_555 1_555
H10 C19 1_555 1_555
H11 C21 1_555 1_555
H12 C22 1_555 1_555
H13 C23 1_555 1_555
H14 C24 1_555 1_555
H15 C25 1_555 1_555
H16 C27 1_555 1_555
H17 C28 1_555 1_555
H18 C29 1_555 1_555
H19 C30 1_555 1_555
H20 C31 1_555 1_555
H21 C33 1_555 1_555
H22 C34 1_555 1_555
H23 C35 1_555 1_555
H24 C36 1_555 1_555
H25 C37 1_555 1_555
H26 C39 1_555 1_555
H27 C40 1_555 1_555
H28 C41 1_555 1_555
H29 C42 1_555 1_555
H30 C43 1_555 1_555
H31 C45 1_555 1_555
H32 C46 1_555 1_555
H33 C47 1_555 1_555
H34 C48 1_555 1_555
H35 C49 1_555 1_555
S5C Zn3 1_555 1_555
Zn3C S5 1_555 1_555
Zn3 S7 1_555 1_555
Zn4 S6 1_555 1_555
Zn4 S8 1_555 1_555
C12 C13 1_555 1_555
C18 C19 1_555 1_555
C24 C25 1_555 1_555
C30 C31 1_555 1_555
C36 C37 1_555 1_555
C42 C43 1_555 1_555
C48 C49 1_555 1_555

#END
