
#######################################################################
#
#                 Cambridge Crystallographic Data Centre
#                                CCDC 
#
#######################################################################
#
# If this CIF has been generated from an entry in the Cambridge 
# Structural Database, then it will include bibliographic, chemical, 
# crystal, experimental, refinement or atomic coordinate data resulting 
# from the CCDC's data processing and validation procedures.
#
#######################################################################

data_BUBBUX
_symmetry_cell_setting           orthorhombic
_symmetry_space_group_name_H-M   'C m c a'
_symmetry_Int_Tables_number      64
_space_group_name_Hall           '-C 2ac 2'
loop_
_symmetry_equiv_pos_site_id
_symmetry_equiv_pos_as_xyz
1 x,y,z
2 -x,1/2-y,1/2+z
3 -x,1/2+y,1/2-z
4 x,-y,-z
5 1/2+x,1/2+y,z
6 1/2-x,-y,1/2+z
7 1/2-x,y,1/2-z
8 1/2+x,1/2-y,-z
9 -x,-y,-z
10 x,1/2+y,1/2-z
11 x,1/2-y,1/2+z
12 -x,y,z
13 1/2-x,1/2-y,-z
14 1/2+x,y,1/2-z
15 1/2+x,-y,1/2+z
16 1/2-x,1/2+y,z
_cell_length_a                   18.672(5)
_cell_length_b                   17.093(5)
_cell_length_c                   7.967(2)
_cell_angle_alpha                90
_cell_angle_beta                 90
_cell_angle_gamma                90
_cell_volume                     2542.75
loop_
_atom_site_label
_atom_site_type_symbol
_atom_site_fract_x
_atom_site_fract_y
_atom_site_fract_z
Mn1 Mn 0.0000 0.0000 0.0000
C1 C 0.18445(12) 0.28210(12) 0.2345(3)
H1 H 0.1360 0.2933 0.2221
C2 C 0.21174(11) 0.20911(11) 0.2425(3)
C3 C 0.11458(10) 0.12692(12) 0.1278(3)
H2 H 0.0993 0.1621 0.0464
C4 C 0.17454(12) 0.07550(13) 0.3365(3)
H3 H 0.2072 0.0675 0.4231
C5 C 0.12283(12) 0.02595(13) 0.2855(3)
H4 H 0.1136 -0.0228 0.3327
C6 C 0.0000 -0.13762(16) 0.2996(4)
N1 N 0.08583(9) 0.05801(10) 0.1533(2)
N2 N 0.16940(10) 0.14038(9) 0.2351(2)
N3 N 0.0000 -0.10168(15) 0.1761(3)
S1 S 0.2500 0.35133(4) 0.2500
S2 S 0.0000 -0.18814(7) 0.47285(12)
C1F C 0.31555(12) 0.28210(12) 0.2655(3)
H1F H 0.3640 0.2933 0.2779
C2F C 0.28826(11) 0.20911(11) 0.2575(3)
C3F C 0.38542(10) 0.12692(12) 0.3722(3)
H2F H 0.4007 0.1621 0.4536
C4F C 0.32546(12) 0.07550(13) 0.1635(3)
H3F H 0.2928 0.0675 0.0769
C5F C 0.37717(12) 0.02595(13) 0.2145(3)
H4F H 0.3864 -0.0228 0.1673
N1F N 0.41417(9) 0.05801(10) 0.3467(2)
N2F N 0.33060(10) 0.14038(9) 0.2649(2)
C1C C 0.18445(12) -0.28210(12) -0.2345(3)
H1C H 0.1360 -0.2933 -0.2221
C2C C 0.21174(11) -0.20911(11) -0.2425(3)
C3C C 0.11458(10) -0.12692(12) -0.1278(3)
H2C H 0.0993 -0.1621 -0.0464
C4C C 0.17454(12) -0.07550(13) -0.3365(3)
H3C H 0.2072 -0.0675 -0.4231
C5C C 0.12283(12) -0.02595(13) -0.2855(3)
H4C H 0.1136 0.0228 -0.3327
C6C C 0.0000 0.13762(16) -0.2996(4)
N1C N 0.08583(9) -0.05801(10) -0.1533(2)
N2C N 0.16940(10) -0.14038(9) -0.2351(2)
N3C N 0.0000 0.10168(15) -0.1761(3)
S1C S 0.2500 -0.35133(4) -0.2500
S2C S 0.0000 0.18814(7) -0.47285(12)
C1E C 0.31555(12) -0.28210(12) -0.2655(3)
H1E H 0.3640 -0.2933 -0.2779
C2E C 0.28826(11) -0.20911(11) -0.2575(3)
C3E C 0.38542(10) -0.12692(12) -0.3722(3)
H2E H 0.4007 -0.1621 -0.4536
C4E C 0.32546(12) -0.07550(13) -0.1635(3)
H3E H 0.2928 -0.0675 -0.0769
C5E C 0.37717(12) -0.02595(13) -0.2145(3)
H4E H 0.3864 0.0228 -0.1673
N1E N 0.41417(9) -0.05801(10) -0.3467(2)
N2E N 0.33060(10) -0.14038(9) -0.2649(2)
Mn1E Mn 0.5000 0.0000 -0.5000
Mn1E_2 Mn 0.5000 0.0000 0.5000
N1H N -0.08583(9) -0.05801(10) -0.1533(2)
N1K N -0.08583(9) 0.05801(10) 0.1533(2)
loop_
_geom_bond_atom_site_label_1
_geom_bond_atom_site_label_2
_geom_bond_site_symmetry_1
_geom_bond_site_symmetry_2
Mn1 N1 1_555 1_555
C1 H1 1_555 1_555
C2 C1 1_555 1_555
C3 H2 1_555 1_555
C4 H3 1_555 1_555
C5 C4 1_555 1_555
H4 C5 1_555 1_555
C6 N3 1_555 1_555
N1 C3 1_555 1_555
N2 C2 1_555 1_555
N3 Mn1 1_555 1_555
S1 C1 1_555 1_555
S2 C6 1_555 1_555
C1F S1 1_555 1_555
H1F C1F 1_555 1_555
C2F C2 1_555 1_555
C3F H2F 1_555 1_555
C4F H3F 1_555 1_555
C5F C4F 1_555 1_555
H4F C5F 1_555 1_555
N1F C3F 1_555 1_555
N2F C2F 1_555 1_555
C1C H1C 1_555 1_555
C2C C1C 1_555 1_555
C3C H2C 1_555 1_555
C4C H3C 1_555 1_555
C5C C4C 1_555 1_555
H4C C5C 1_555 1_555
C6C N3C 1_555 1_555
N1C Mn1 1_555 1_555
N2C C2C 1_555 1_555
N3C Mn1 1_555 1_555
S1C C1C 1_555 1_555
S2C C6C 1_555 1_555
C1E S1C 1_555 1_555
H1E C1E 1_555 1_555
C2E C2C 1_555 1_555
C3E H2E 1_555 1_555
C4E H3E 1_555 1_555
C5E C4E 1_555 1_555
H4E C5E 1_555 1_555
N1E C3E 1_555 1_555
N2E C2E 1_555 1_555
Mn1E N1E 1_555 1_555
Mn1E_2 N1F 1_555 1_555
N1H Mn1 1_555 1_555
N1K Mn1 1_555 1_555
C3 N2 1_555 1_555
C4 N2 1_555 1_555
C5 N1 1_555 1_555
C1F C2F 1_555 1_555
C3F N2F 1_555 1_555
C4F N2F 1_555 1_555
C5F N1F 1_555 1_555
C3C N1C 1_555 1_555
C3C N2C 1_555 1_555
C4C N2C 1_555 1_555
C5C N1C 1_555 1_555
C1E C2E 1_555 1_555
C3E N2E 1_555 1_555
C4E N2E 1_555 1_555
C5E N1E 1_555 1_555

#END
