
#######################################################################
#
#                 Cambridge Crystallographic Data Centre
#                                CCDC 
#
#######################################################################
#
# If this CIF has been generated from an entry in the Cambridge 
# Structural Database, then it will include bibliographic, chemical, 
# crystal, experimental, refinement or atomic coordinate data resulting 
# from the CCDC's data processing and validation procedures.
#
#######################################################################

data_BUBCOS
_symmetry_cell_setting           monoclinic
_symmetry_space_group_name_H-M   'C 2'
_symmetry_Int_Tables_number      5
_space_group_name_Hall           'C 2y'
loop_
_symmetry_equiv_pos_site_id
_symmetry_equiv_pos_as_xyz
1 x,y,z
2 -x,y,-z
3 1/2+x,1/2+y,z
4 1/2-x,1/2+y,-z
_cell_length_a                   22.158(4)
_cell_length_b                   6.5458(13)
_cell_length_c                   13.820(3)
_cell_angle_alpha                90
_cell_angle_beta                 110.828(2)
_cell_angle_gamma                90
_cell_volume                     1873.49
loop_
_atom_site_label
_atom_site_type_symbol
_atom_site_fract_x
_atom_site_fract_y
_atom_site_fract_z
Zn1 Zn 0.10285(5) 0.19438(17) 0.27671(7)
Zn2 Zn 0.0000 -0.4078(2) 0.0000
P1 P 0.07049(10) -0.3006(5) 0.22573(15)
P2 P -0.04005(12) -0.6016(4) 0.17405(18)
N1 N 0.2066(3) 0.1820(15) 0.3325(5)
N2 N 0.1305(3) 0.2055(15) 0.4435(5)
O1 O 0.0022(3) -0.7690(10) 0.2386(5)
C1 C 0.2182(5) 0.189(2) 0.6045(7)
H1 H 0.2625 0.1888 0.6406
C2 C 0.0892(5) 0.193(2) 0.4945(7)
H2 H 0.0450 0.1917 0.4569
C3 C 0.2369(4) 0.1958(18) 0.4353(6)
C4 C 0.1101(5) 0.181(2) 0.6000(7)
H3 H 0.0804 0.1741 0.6333
C5 C 0.1940(4) 0.1994(18) 0.4977(6)
C6 C 0.1752(5) 0.1805(19) 0.6568(7)
H4 H 0.1901 0.1741 0.7287
C7 C 0.2432(5) 0.1721(19) 0.2737(7)
H5 H 0.2222 0.1631 0.2023
C8 C 0.3399(4) 0.190(2) 0.4166(8)
H6 H 0.3848 0.1928 0.4448
C9 C 0.3087(5) 0.1742(19) 0.3110(7)
H7 H 0.3318 0.1651 0.2667
C10 C 0.3037(4) 0.203(2) 0.4805(7)
H8 H 0.3238 0.2153 0.5518
O2 O 0.0970(3) -0.1144(11) 0.2917(5)
O3 O 0.1121(3) -0.4887(11) 0.2588(5)
O4 O 0.0566(3) -0.2487(9) 0.1114(5)
O5 O 0.0971(3) 0.1468(11) 0.1190(5)
H9 H 0.0943 0.2760 0.1120
H10 H 0.0775 0.0367 0.0958
C11 C -0.0086(4) -0.3557(14) 0.2369(7)
O6 O -0.1095(3) -0.6214(12) 0.1789(5)
H11 H -0.1362 -0.6272 0.1200
O7 O -0.0451(3) -0.5927(11) 0.0627(5)
C12 C -0.0020(5) -0.3637(19) 0.3517(7)
H12 H 0.0100 -0.2312 0.3823
H13 H 0.0306 -0.4612 0.3876
H14 H -0.0425 -0.4035 0.3567
O8 O -0.0538(3) -0.1997(11) 0.1831(6)
H15 H -0.0367 -0.0872 0.1981
Zn1A Zn -0.10285(5) 0.19438(17) -0.27671(7)
P1A P -0.07049(10) -0.3006(5) -0.22573(15)
P2A P 0.04005(12) -0.6016(4) -0.17405(18)
N1A N -0.2066(3) 0.1820(15) -0.3325(5)
N2A N -0.1305(3) 0.2055(15) -0.4435(5)
O1A O -0.0022(3) -0.7690(10) -0.2386(5)
C1A C -0.2182(5) 0.189(2) -0.6045(7)
H1A H -0.2625 0.1888 -0.6406
C2A C -0.0892(5) 0.193(2) -0.4945(7)
H2A H -0.0450 0.1917 -0.4569
C3A C -0.2369(4) 0.1958(18) -0.4353(6)
C4A C -0.1101(5) 0.181(2) -0.6000(7)
H3A H -0.0804 0.1741 -0.6333
C5A C -0.1940(4) 0.1994(18) -0.4977(6)
C6A C -0.1752(5) 0.1805(19) -0.6568(7)
H4A H -0.1901 0.1741 -0.7287
C7A C -0.2432(5) 0.1721(19) -0.2737(7)
H5A H -0.2222 0.1631 -0.2023
C8A C -0.3399(4) 0.190(2) -0.4166(8)
H6A H -0.3848 0.1928 -0.4448
C9A C -0.3087(5) 0.1742(19) -0.3110(7)
H7A H -0.3318 0.1651 -0.2667
C10A C -0.3037(4) 0.203(2) -0.4805(7)
H8A H -0.3238 0.2153 -0.5518
O2A O -0.0970(3) -0.1144(11) -0.2917(5)
O3A O -0.1121(3) -0.4887(11) -0.2588(5)
O4A O -0.0566(3) -0.2487(9) -0.1114(5)
O5A O -0.0971(3) 0.1468(11) -0.1190(5)
H9A H -0.0943 0.2760 -0.1120
H10A H -0.0775 0.0367 -0.0958
C11A C 0.0086(4) -0.3557(14) -0.2369(7)
O6A O 0.1095(3) -0.6214(12) -0.1789(5)
H11A H 0.1362 -0.6272 -0.1200
O7A O 0.0451(3) -0.5927(11) -0.0627(5)
C12A C 0.0020(5) -0.3637(19) -0.3517(7)
H12A H -0.0100 -0.2312 -0.3823
H13A H -0.0306 -0.4612 -0.3876
H14A H 0.0425 -0.4035 -0.3567
O8A O 0.0538(3) -0.1997(11) -0.1831(6)
H15A H 0.0367 -0.0872 -0.1981
Zn1_2 Zn 0.10285(5) -0.80562(17) 0.27671(7)
Zn1A_2 Zn -0.10285(5) -0.80562(17) -0.27671(7)
O1_2 O 0.0022(3) 0.2310(10) 0.2386(5)
O1A_2 O -0.0022(3) 0.2310(10) -0.2386(5)
O3_2 O 0.1121(3) 0.5113(11) 0.2588(5)
O3A_2 O -0.1121(3) 0.5113(11) -0.2588(5)
O9 O 0.1952(4) 0.5713(14) 0.1368(6)
H16 H 0.1753 0.5402 0.1777
H17 H 0.1898 0.6842 0.1097
O10 O 0.7987(4) 0.2976(13) 1.0027(6)
H18 H 0.8010 0.3908 0.9644
H19 H 0.7713 0.2371 1.0223
O11 O 0.1713(4) 0.8734(14) 0.9838(6)
H20 H 0.1930 0.9778 1.0017
H21 H 0.1458 0.8509 0.9224
loop_
_geom_bond_atom_site_label_1
_geom_bond_atom_site_label_2
_geom_bond_site_symmetry_1
_geom_bond_site_symmetry_2
Zn1 N1 1_555 1_555
Zn2 O4 1_555 1_555
P1 O2 1_555 1_555
P2 O1 1_555 1_555
N1 C3 1_555 1_555
N2 Zn1 1_555 1_555
O1 Zn1_2 1_555 1_555
C1 H1 1_555 1_555
C2 N2 1_555 1_555
H2 C2 1_555 1_555
C3 C5 1_555 1_555
C4 C2 1_555 1_555
H3 C4 1_555 1_555
C5 N2 1_555 1_555
C6 C1 1_555 1_555
H4 C6 1_555 1_555
C7 N1 1_555 1_555
H5 C7 1_555 1_555
C8 H6 1_555 1_555
C9 C7 1_555 1_555
H7 C9 1_555 1_555
C10 C3 1_555 1_555
H8 C10 1_555 1_555
O2 Zn1 1_555 1_555
O3 P1 1_555 1_555
O4 P1 1_555 1_555
O5 Zn1 1_555 1_555
H9 O5 1_555 1_555
H10 O5 1_555 1_555
C11 P1 1_555 1_555
O6 P2 1_555 1_555
H11 O6 1_555 1_555
O7 Zn2 1_555 1_555
C12 C11 1_555 1_555
H12 C12 1_555 1_555
H13 C12 1_555 1_555
H14 C12 1_555 1_555
O8 C11 1_555 1_555
H15 O8 1_555 1_555
O9 H16 1_555 1_555
H17 O9 1_555 1_555
O10 H18 1_555 1_555
H19 O10 1_555 1_555
O11 H20 1_555 1_555
H21 O11 1_555 1_555
Zn1A N1A 1_555 1_555
P1A O2A 1_555 1_555
P2A O1A 1_555 1_555
N1A C3A 1_555 1_555
N2A Zn1A 1_555 1_555
O1A Zn1A_2 1_555 1_555
C1A H1A 1_555 1_555
C2A N2A 1_555 1_555
H2A C2A 1_555 1_555
C3A C5A 1_555 1_555
C4A C2A 1_555 1_555
H3A C4A 1_555 1_555
C5A N2A 1_555 1_555
C6A C1A 1_555 1_555
H4A C6A 1_555 1_555
C7A N1A 1_555 1_555
H5A C7A 1_555 1_555
C8A H6A 1_555 1_555
C9A C7A 1_555 1_555
H7A C9A 1_555 1_555
C10A C3A 1_555 1_555
H8A C10A 1_555 1_555
O2A Zn1A 1_555 1_555
O3A P1A 1_555 1_555
O4A Zn2 1_555 1_555
O5A Zn1A 1_555 1_555
H9A O5A 1_555 1_555
H10A O5A 1_555 1_555
C11A P1A 1_555 1_555
O6A P2A 1_555 1_555
H11A O6A 1_555 1_555
O7A Zn2 1_555 1_555
C12A C11A 1_555 1_555
H12A C12A 1_555 1_555
H13A C12A 1_555 1_555
H14A C12A 1_555 1_555
O8A C11A 1_555 1_555
H15A O8A 1_555 1_555
Zn1_2 O3 1_555 1_555
Zn1A_2 O3A 1_555 1_555
O1_2 Zn1 1_555 1_555
O1A_2 Zn1A 1_555 1_555
O3_2 Zn1 1_555 1_555
O3A_2 Zn1A 1_555 1_555
P2 C11 1_555 1_555
P2 O7 1_555 1_555
C1 C5 1_555 1_555
C4 C6 1_555 1_555
C8 C9 1_555 1_555
C8 C10 1_555 1_555
P1A O4A 1_555 1_555
P2A C11A 1_555 1_555
P2A O7A 1_555 1_555
C1A C5A 1_555 1_555
C4A C6A 1_555 1_555
C8A C9A 1_555 1_555
C8A C10A 1_555 1_555

#END
