
#######################################################################
#
#                 Cambridge Crystallographic Data Centre
#                                CCDC 
#
#######################################################################
#
# If this CIF has been generated from an entry in the Cambridge 
# Structural Database, then it will include bibliographic, chemical, 
# crystal, experimental, refinement or atomic coordinate data resulting 
# from the CCDC's data processing and validation procedures.
#
#######################################################################

data_BUBDUZ
_symmetry_cell_setting           triclinic
_symmetry_space_group_name_H-M   'P -1'
_symmetry_Int_Tables_number      2
_space_group_name_Hall           '-P 1'
loop_
_symmetry_equiv_pos_site_id
_symmetry_equiv_pos_as_xyz
1 x,y,z
2 -x,-y,-z
_cell_length_a                   10.1018(8)
_cell_length_b                   10.2356(8)
_cell_length_c                   11.8941(9)
_cell_angle_alpha                79.1130(10)
_cell_angle_beta                 67.1770(10)
_cell_angle_gamma                72.0370(10)
_cell_volume                     1074.92
loop_
_atom_site_label
_atom_site_type_symbol
_atom_site_fract_x
_atom_site_fract_y
_atom_site_fract_z
Cu1 Cu 0.07576(4) -0.34753(4) 1.03843(3)
O1 O 0.1712(4) 0.0311(3) 0.4568(2)
N1 N 0.1606(3) -0.2797(3) 0.8605(2)
C1 C 0.2746(4) -0.3605(4) 0.7801(3)
H1 H 0.3188 -0.4479 0.8077
O2 O -0.1250(3) 0.2759(3) 0.6327(2)
N2 N 0.0677(3) 0.0279(3) 0.6651(3)
H2 H 0.0045 0.0775 0.7237
C2 C 0.3288(4) -0.3187(4) 0.6578(3)
H3 H 0.4089 -0.3773 0.6043
O3 O 0.1189(2) -0.1480(2) 1.1070(2)
N3 N 0.0164(3) 0.2879(3) 0.4286(3)
H4 H 0.0874 0.2383 0.3734
C3 C 0.2641(4) -0.1895(4) 0.6144(3)
H5 H 0.2991 -0.1600 0.5318
O4 O 0.2681(2) -0.3556(2) 1.0639(2)
N4 N -0.0261(3) 0.5912(3) 0.2171(2)
C4 C 0.1449(4) -0.1048(3) 0.6979(3)
O5 O 0.2747(3) 0.1978(2) 1.2178(2)
C5 C 0.0977(4) -0.1534(3) 0.8202(3)
H6 H 0.0196 -0.0963 0.8763
O6 O 0.5051(3) 0.1599(3) 1.2125(3)
H7 H 0.4878 0.2395 1.2349
C6 C 0.0845(4) 0.0836(4) 0.5500(3)
O7 O 0.8772(2) -0.2541(2) 1.0345(2)
C7 C -0.0215(4) 0.2274(3) 0.5431(3)
O8 O 0.8089(3) -0.4306(2) 1.0088(2)
C8 C -0.0461(4) 0.4228(3) 0.3883(3)
C9 C 0.0205(4) 0.4657(3) 0.2662(3)
H8 H 0.1013 0.4037 0.2166
C10 C -0.1434(4) 0.6803(3) 0.2892(3)
H9 H -0.1769 0.7683 0.2559
C11 C -0.2151(4) 0.6454(4) 0.4103(3)
H10 H -0.2961 0.7092 0.4577
C12 C -0.1666(4) 0.5145(4) 0.4622(3)
H11 H -0.2138 0.4894 0.5442
C13 C 0.2414(3) -0.2337(3) 1.0926(3)
C14 C 0.3644(3) -0.1919(3) 1.1069(3)
C15 C 0.3313(3) -0.0652(3) 1.1518(3)
H12 H 0.2339 -0.0107 1.1756
C16 C 0.4411(4) -0.0193(3) 1.1617(3)
C17 C 0.3976(4) 0.1221(3) 1.2016(3)
C18 C 0.5879(3) -0.0997(3) 1.1244(3)
H13 H 0.6622 -0.0685 1.1300
C19 C 0.6227(3) -0.2260(3) 1.0792(3)
C20 C 0.5106(3) -0.2723(3) 1.0710(3)
H14 H 0.5338 -0.3575 1.0414
C21 C 0.7819(3) -0.3125(3) 1.0365(3)
Cu1_2 Cu 0.07576(4) 0.65247(4) 0.03843(3)
Cu1_3 Cu 1.07576(4) -0.34753(4) 1.03843(3)
Cu1A Cu 0.92424(4) -0.65247(4) 0.96157(3)
N4_2 N -0.0261(3) -0.4088(3) 1.2171(2)
O7_2 O -0.1228(2) -0.2541(2) 1.0345(2)
O8A O 0.1911(3) -0.5694(2) 0.9912(2)
O9 O 0.3883(4) 0.4386(3) 0.2270(3)
H15 H 0.4608 0.4275 0.1594
H16 H 0.3534 0.4941 0.1763
O10 O 0.4399(9) 0.6375(8) 0.3592(7)
H17 H 0.4968 0.6719 0.2948
H18 H 0.3511 0.6718 0.3610
loop_
_geom_bond_atom_site_label_1
_geom_bond_atom_site_label_2
_geom_bond_site_symmetry_1
_geom_bond_site_symmetry_2
Cu1 N1 1_555 1_555
O1 C6 1_555 1_555
N1 C1 1_555 1_555
C1 H1 1_555 1_555
O2 C7 1_555 1_555
N2 H2 1_555 1_555
C2 C1 1_555 1_555
H3 C2 1_555 1_555
O3 Cu1 1_555 1_555
N3 H4 1_555 1_555
C3 C2 1_555 1_555
H5 C3 1_555 1_555
O4 Cu1 1_555 1_555
N4 C9 1_555 1_555
C4 N2 1_555 1_555
O5 C17 1_555 1_555
C5 N1 1_555 1_555
H6 C5 1_555 1_555
O6 H7 1_555 1_555
C6 N2 1_555 1_555
O7 C21 1_555 1_555
C7 N3 1_555 1_555
O8 C21 1_555 1_555
C8 N3 1_555 1_555
C9 C8 1_555 1_555
H8 C9 1_555 1_555
C10 N4 1_555 1_555
H9 C10 1_555 1_555
C11 C10 1_555 1_555
H10 C11 1_555 1_555
C12 C8 1_555 1_555
H11 C12 1_555 1_555
C13 O3 1_555 1_555
C14 C13 1_555 1_555
C15 C14 1_555 1_555
H12 C15 1_555 1_555
C16 C15 1_555 1_555
C17 O6 1_555 1_555
C18 C16 1_555 1_555
H13 C18 1_555 1_555
C19 C18 1_555 1_555
C20 C14 1_555 1_555
H14 C20 1_555 1_555
C21 C19 1_555 1_555
O9 H15 1_555 1_555
H16 O9 1_555 1_555
O10 H17 1_555 1_555
H18 O10 1_555 1_555
Cu1_2 N4 1_555 1_555
Cu1_3 O7 1_555 1_555
Cu1A O8 1_555 1_555
N4_2 Cu1 1_555 1_555
O7_2 Cu1 1_555 1_555
O8A Cu1 1_555 1_555
C3 C4 1_555 1_555
O4 C13 1_555 1_555
C4 C5 1_555 1_555
C6 C7 1_555 1_555
C11 C12 1_555 1_555
C16 C17 1_555 1_555
C19 C20 1_555 1_555

#END
