
#######################################################################
#
#                 Cambridge Crystallographic Data Centre
#                                CCDC 
#
#######################################################################
#
# If this CIF has been generated from an entry in the Cambridge 
# Structural Database, then it will include bibliographic, chemical, 
# crystal, experimental, refinement or atomic coordinate data resulting 
# from the CCDC's data processing and validation procedures.
#
#######################################################################

data_BUBDOT
_symmetry_cell_setting           monoclinic
_symmetry_space_group_name_H-M   'C 2/c'
_symmetry_Int_Tables_number      15
_space_group_name_Hall           '-C 2yn'
loop_
_symmetry_equiv_pos_site_id
_symmetry_equiv_pos_as_xyz
1 x,y,z
2 -x,y,1/2-z
3 1/2+x,1/2+y,z
4 1/2-x,1/2+y,1/2-z
5 -x,-y,-z
6 x,-y,1/2+z
7 1/2-x,1/2-y,-z
8 1/2+x,1/2-y,1/2+z
_cell_length_a                   16.6514(16)
_cell_length_b                   8.8268(9)
_cell_length_c                   15.483(2)
_cell_angle_alpha                90
_cell_angle_beta                 119.9680(10)
_cell_angle_gamma                90
_cell_volume                     1971.42
loop_
_atom_site_label
_atom_site_type_symbol
_atom_site_fract_x
_atom_site_fract_y
_atom_site_fract_z
Cu1 Cu 0.5000 0.5000 0.5000
O1 O 0.17083(12) 0.1724(2) 0.02992(11)
O2 O 0.42358(9) 0.43002(15) 0.64622(9)
O3 O 0.51146(8) 0.33499(15) 0.58760(9)
N1 N 0.38784(10) 0.39838(19) 0.38641(10)
N2 N 0.29507(11) 0.3282(2) 0.12154(11)
H1 H 0.3344 0.3847 0.1161
C1 C 0.32095(13) 0.3403(3) 0.40075(14)
H2 H 0.3285 0.3428 0.4644
C2 C 0.24199(14) 0.2775(3) 0.32480(15)
H3 H 0.1973 0.2377 0.3376
C3 C 0.22842(14) 0.2730(3) 0.22905(15)
H4 H 0.1745 0.2326 0.1766
C4 C 0.29760(12) 0.3305(2) 0.21390(13)
C5 C 0.37603(12) 0.3928(2) 0.29437(12)
H5 H 0.4222 0.4321 0.2838
C6 C 0.23699(14) 0.2460(2) 0.04120(13)
C7 C 0.47356(11) 0.3303(2) 0.64199(12)
C8 C 0.49058(12) 0.1863(2) 0.70032(13)
C9 C 0.48109(15) 0.0485(3) 0.65229(17)
H6 H 0.4685 0.0476 0.5866
C10 C 0.49011(17) -0.0870(3) 0.70108(19)
H7 H 0.4828 -0.1782 0.6680
O1F O 0.32917(12) 0.3276(2) -0.02992(11)
N1F N 0.11216(10) 0.10162(19) -0.38641(10)
N2F N 0.20493(11) 0.1718(2) -0.12154(11)
H1F H 0.1656 0.1153 -0.1161
C1F C 0.17905(13) 0.1597(3) -0.40075(14)
H2F H 0.1715 0.1572 -0.4644
C2F C 0.25801(14) 0.2225(3) -0.32480(15)
H3F H 0.3027 0.2623 -0.3376
C3F C 0.27158(14) 0.2270(3) -0.22905(15)
H4F H 0.3255 0.2674 -0.1766
C4F C 0.20240(12) 0.1695(2) -0.21390(13)
C5F C 0.12397(12) 0.1072(2) -0.29437(12)
H5F H 0.0778 0.0679 -0.2838
C6F C 0.26301(14) 0.2540(2) -0.04120(13)
O2A O 0.57642(9) 0.43002(15) 0.85378(9)
O3A O 0.48854(8) 0.33499(15) 0.91240(9)
C7A C 0.52644(11) 0.3303(2) 0.85801(12)
C8A C 0.50942(12) 0.1863(2) 0.79968(13)
C9A C 0.51891(15) 0.0485(3) 0.84771(17)
H6A H 0.5315 0.0476 0.9134
C10A C 0.50989(17) -0.0870(3) 0.79892(19)
H7A H 0.5172 -0.1782 0.8320
Cu1A Cu 0.5000 0.5000 1.0000
Cu1B Cu 0.0000 0.0000 -0.5000
O3D O 0.48854(8) 0.66501(15) 0.41240(9)
N1D N 0.61216(10) 0.60162(19) 0.61359(10)
loop_
_geom_bond_atom_site_label_1
_geom_bond_atom_site_label_2
_geom_bond_site_symmetry_1
_geom_bond_site_symmetry_2
Cu1 O3 1_555 1_555
O1 C6 1_555 1_555
O2 C7 1_555 1_555
O3 C7 1_555 1_555
N1 Cu1 1_555 1_555
N2 H1 1_555 1_555
C1 N1 1_555 1_555
H2 C1 1_555 1_555
C2 C1 1_555 1_555
H3 C2 1_555 1_555
C3 C2 1_555 1_555
H4 C3 1_555 1_555
C4 N2 1_555 1_555
C5 N1 1_555 1_555
H5 C5 1_555 1_555
C6 N2 1_555 1_555
C7 C8 1_555 1_555
C8 C9 1_555 1_555
C9 H6 1_555 1_555
C10 C9 1_555 1_555
H7 C10 1_555 1_555
O1F C6F 1_555 1_555
N1F C1F 1_555 1_555
N2F H1F 1_555 1_555
C1F H2F 1_555 1_555
C2F C1F 1_555 1_555
H3F C2F 1_555 1_555
C3F C2F 1_555 1_555
H4F C3F 1_555 1_555
C4F N2F 1_555 1_555
C5F N1F 1_555 1_555
H5F C5F 1_555 1_555
C6F C6 1_555 1_555
O2A C7A 1_555 1_555
O3A C7A 1_555 1_555
C7A C8A 1_555 1_555
C8A C8 1_555 1_555
C9A C8A 1_555 1_555
H6A C9A 1_555 1_555
C10A C10 1_555 1_555
H7A C10A 1_555 1_555
Cu1A O3A 1_555 1_555
Cu1B N1F 1_555 1_555
O3D Cu1 1_555 1_555
N1D Cu1 1_555 1_555
C3 C4 1_555 1_555
C4 C5 1_555 1_555
N2F C6F 1_555 1_555
C3F C4F 1_555 1_555
C4F C5F 1_555 1_555
C9A C10A 1_555 1_555

#END
