
#######################################################################
#
#                 Cambridge Crystallographic Data Centre
#                                CCDC 
#
#######################################################################
#
# If this CIF has been generated from an entry in the Cambridge 
# Structural Database, then it will include bibliographic, chemical, 
# crystal, experimental, refinement or atomic coordinate data resulting 
# from the CCDC's data processing and validation procedures.
#
#######################################################################

data_BUBFIP
_symmetry_cell_setting           monoclinic
_symmetry_space_group_name_H-M   'P 21/c'
_symmetry_Int_Tables_number      14
_space_group_name_Hall           '-P 2ybc'
loop_
_symmetry_equiv_pos_site_id
_symmetry_equiv_pos_as_xyz
1 x,y,z
2 -x,1/2+y,1/2-z
3 -x,-y,-z
4 x,1/2-y,1/2+z
_cell_length_a                   14.868(2)
_cell_length_b                   7.9131(11)
_cell_length_c                   18.285(3)
_cell_angle_alpha                90
_cell_angle_beta                 127.739(6)
_cell_angle_gamma                90
_cell_volume                     1701.24
loop_
_atom_site_label
_atom_site_type_symbol
_atom_site_fract_x
_atom_site_fract_y
_atom_site_fract_z
Cd1 Cd 0.43182(2) 0.34018(4) 0.350766(16)
N1 N 0.2665(3) 0.3834(7) 0.2058(2)
O1 O 0.4667(3) 0.0783(4) 0.31825(18)
H1 H 0.4431 0.0562 0.3618
H2 H 0.4368 0.0506 0.2627
O2 O 1.1739(2) 0.4435(7) 0.8867(2)
O3 O 0.3880(2) 0.5955(4) 0.38306(16)
H3 H 0.4398 0.6698 0.4124
H4 H 0.3598 0.5952 0.4117
O4 O 1.3413(2) 0.2723(4) 0.90079(17)
O5 O 1.4681(2) 0.3586(5) 1.04661(19)
O6 O 0.5813(2) 0.4725(5) 0.34339(18)
O7 O 0.61532(19) 0.3752(4) 0.46955(16)
C1 C 0.6480(3) 0.4460(6) 0.4283(2)
C2 C 0.7689(3) 0.4973(6) 0.4836(3)
H5 H 0.7949 0.5516 0.4546
C3 C 0.8413(3) 0.4670(6) 0.5742(3)
H6 H 0.8102 0.4108 0.5986
C4 C 0.9624(3) 0.5088(6) 0.6411(3)
C5 C 1.0162(3) 0.4616(7) 0.7314(3)
H7 H 0.9757 0.4047 0.7473
C6 C 1.1320(3) 0.4983(7) 0.8000(3)
C7 C 1.1913(4) 0.5836(7) 0.7757(4)
H8 H 1.2676 0.6104 0.8204
C8 C 1.1373(4) 0.6282(8) 0.6856(5)
H9 H 1.1775 0.6827 0.6687
C9 C 1.0235(4) 0.5930(8) 0.6196(4)
H10 H 0.9874 0.6273 0.5589
C10 C 1.2901(4) 0.4837(10) 0.9609(3)
H11 H 1.3000 0.4858 1.0185
H12 H 1.3070 0.5958 0.9509
C11 C 1.3727(3) 0.3603(6) 0.9697(2)
C12 C 0.2584(4) 0.4748(10) 0.1427(3)
H13 H 0.3254 0.5072 0.1528
C13 C 0.1552(4) 0.5271(10) 0.0605(3)
H14 H 0.1542 0.5958 0.0187
C14 C 0.0557(3) 0.4751(9) 0.0429(2)
C15 C 0.0650(4) 0.3974(8) 0.1130(3)
H15 H 0.0001 0.3754 0.1081
C16 C 0.1707(4) 0.3502(9) 0.1920(3)
H16 H 0.1740 0.2919 0.2378
N1B N -0.2665(3) 0.6166(7) -0.2058(2)
C12B C -0.2584(4) 0.5252(10) -0.1427(3)
H13B H -0.3254 0.4928 -0.1528
C13B C -0.1552(4) 0.4729(10) -0.0605(3)
H14B H -0.1542 0.4042 -0.0187
C14B C -0.0557(3) 0.5249(9) -0.0429(2)
C15B C -0.0650(4) 0.6026(8) -0.1130(3)
H15B H -0.0001 0.6246 -0.1081
C16B C -0.1707(4) 0.6498(9) -0.1920(3)
H16B H -0.1740 0.7081 -0.2378
Cd1B Cd -0.43182(2) 0.65982(4) -0.350766(16)
O1B O -0.4667(3) 0.9217(4) -0.31825(18)
H1B H -0.4431 0.9438 -0.3618
H2B H -0.4368 0.9494 -0.2627
O2B O -1.1739(2) 0.5565(7) -0.8867(2)
O3B O -0.3880(2) 0.4045(4) -0.38306(16)
H3B H -0.4398 0.3302 -0.4124
H4B H -0.3598 0.4048 -0.4117
O4B O -1.3413(2) 0.7277(4) -0.90079(17)
O5B O -1.4681(2) 0.6414(5) -1.04661(19)
O6B O -0.5813(2) 0.5275(5) -0.34339(18)
O7B O -0.61532(19) 0.6248(4) -0.46955(16)
C1B C -0.6480(3) 0.5540(6) -0.4283(2)
C2B C -0.7689(3) 0.5027(6) -0.4836(3)
H5B H -0.7949 0.4484 -0.4546
C3B C -0.8413(3) 0.5330(6) -0.5742(3)
H6B H -0.8102 0.5892 -0.5986
C4B C -0.9624(3) 0.4912(6) -0.6411(3)
C5B C -1.0162(3) 0.5384(7) -0.7314(3)
H7B H -0.9757 0.5953 -0.7473
C6B C -1.1320(3) 0.5017(7) -0.8000(3)
C7B C -1.1913(4) 0.4164(7) -0.7757(4)
H8B H -1.2676 0.3896 -0.8204
C8B C -1.1373(4) 0.3718(8) -0.6856(5)
H9B H -1.1775 0.3173 -0.6687
C9B C -1.0235(4) 0.4070(8) -0.6196(4)
H10B H -0.9874 0.3727 -0.5589
C10B C -1.2901(4) 0.5163(10) -0.9609(3)
H11B H -1.3000 0.5142 -1.0185
H12B H -1.3070 0.4042 -0.9509
C11B C -1.3727(3) 0.6397(6) -0.9697(2)
Cd1A Cd -1.43182(2) 0.84018(4) -0.850766(16)
Cd1C Cd 1.43182(2) 0.15982(4) 0.850766(16)
O4A O -0.3413(2) 0.7723(4) -0.40079(17)
O4C O 0.3413(2) 0.2277(4) 0.40079(17)
loop_
_geom_bond_atom_site_label_1
_geom_bond_atom_site_label_2
_geom_bond_site_symmetry_1
_geom_bond_site_symmetry_2
Cd1 N1 1_555 1_555
N1 C12 1_555 1_555
O1 Cd1 1_555 1_555
H1 O1 1_555 1_555
H2 O1 1_555 1_555
O2 C6 1_555 1_555
O3 Cd1 1_555 1_555
H3 O3 1_555 1_555
H4 O3 1_555 1_555
O4 C11 1_555 1_555
O5 C11 1_555 1_555
O6 Cd1 1_555 1_555
O7 Cd1 1_555 1_555
C1 O6 1_555 1_555
C2 C1 1_555 1_555
H5 C2 1_555 1_555
C3 C2 1_555 1_555
H6 C3 1_555 1_555
C4 C3 1_555 1_555
C5 C4 1_555 1_555
H7 C5 1_555 1_555
C6 C5 1_555 1_555
C7 C6 1_555 1_555
H8 C7 1_555 1_555
C8 C7 1_555 1_555
H9 C8 1_555 1_555
C9 C4 1_555 1_555
H10 C9 1_555 1_555
C10 O2 1_555 1_555
H11 C10 1_555 1_555
H12 C10 1_555 1_555
C11 C10 1_555 1_555
C12 H13 1_555 1_555
C13 C12 1_555 1_555
H14 C13 1_555 1_555
C14 C13 1_555 1_555
C15 C14 1_555 1_555
H15 C15 1_555 1_555
C16 N1 1_555 1_555
H16 C16 1_555 1_555
N1B C12B 1_555 1_555
C12B H13B 1_555 1_555
C13B C12B 1_555 1_555
H14B C13B 1_555 1_555
C14B C14 1_555 1_555
C15B C14B 1_555 1_555
H15B C15B 1_555 1_555
C16B N1B 1_555 1_555
H16B C16B 1_555 1_555
Cd1B N1B 1_555 1_555
O1B Cd1B 1_555 1_555
H1B O1B 1_555 1_555
H2B O1B 1_555 1_555
O2B C6B 1_555 1_555
O3B Cd1B 1_555 1_555
H3B O3B 1_555 1_555
H4B O3B 1_555 1_555
O4B C11B 1_555 1_555
O5B C11B 1_555 1_555
O6B Cd1B 1_555 1_555
O7B Cd1B 1_555 1_555
C1B O6B 1_555 1_555
C2B C1B 1_555 1_555
H5B C2B 1_555 1_555
C3B C2B 1_555 1_555
H6B C3B 1_555 1_555
C4B C3B 1_555 1_555
C5B C4B 1_555 1_555
H7B C5B 1_555 1_555
C6B C5B 1_555 1_555
C7B C6B 1_555 1_555
H8B C7B 1_555 1_555
C8B C7B 1_555 1_555
H9B C8B 1_555 1_555
C9B C4B 1_555 1_555
H10B C9B 1_555 1_555
C10B O2B 1_555 1_555
H11B C10B 1_555 1_555
H12B C10B 1_555 1_555
C11B C10B 1_555 1_555
Cd1A O4B 1_555 1_555
Cd1C O4 1_555 1_555
O4A Cd1B 1_555 1_555
O4C Cd1 1_555 1_555
O7 C1 1_555 1_555
C8 C9 1_555 1_555
C15 C16 1_555 1_555
C13B C14B 1_555 1_555
C15B C16B 1_555 1_555
O7B C1B 1_555 1_555
C8B C9B 1_555 1_555

#END
