
#######################################################################
#
#                 Cambridge Crystallographic Data Centre
#                                CCDC 
#
#######################################################################
#
# If this CIF has been generated from an entry in the Cambridge 
# Structural Database, then it will include bibliographic, chemical, 
# crystal, experimental, refinement or atomic coordinate data resulting 
# from the CCDC's data processing and validation procedures.
#
#######################################################################

data_BUBFEL
_symmetry_cell_setting           monoclinic
_symmetry_space_group_name_H-M   'C 2/c'
_symmetry_Int_Tables_number      15
_space_group_name_Hall           '-C 2yn'
loop_
_symmetry_equiv_pos_site_id
_symmetry_equiv_pos_as_xyz
1 x,y,z
2 -x,y,1/2-z
3 1/2+x,1/2+y,z
4 1/2-x,1/2+y,1/2-z
5 -x,-y,-z
6 x,-y,1/2+z
7 1/2-x,1/2-y,-z
8 1/2+x,1/2-y,1/2+z
_cell_length_a                   21.305(4)
_cell_length_b                   15.616(4)
_cell_length_c                   16.395(4)
_cell_angle_alpha                90
_cell_angle_beta                 112.974(14)
_cell_angle_gamma                90
_cell_volume                     5021.95
loop_
_atom_site_label
_atom_site_type_symbol
_atom_site_fract_x
_atom_site_fract_y
_atom_site_fract_z
Cd1 Cd 0.29045(3) 0.18454(4) 0.18955(5)
N1 N 0.2559(3) 0.2417(5) 0.2946(5)
N2 N -0.1220(3) 0.5967(5) 0.2897(5)
O1 O 0.4278(3) 0.2843(5) 0.0334(5)
O2 O 0.2107(4) 0.2856(5) 0.0931(5)
H1 H 0.233(6) 0.332(5) 0.098(7)
H2 H 0.188(6) 0.283(7) 0.0376(16)
O3 O 0.3799(4) 0.3103(4) 0.2141(5)
O4 O 0.3554(4) 0.2113(5) 0.1115(5)
O5 O 0.7090(3) 0.5694(5) 0.1881(6)
O6 O 0.7255(5) 0.5863(6) 0.0716(6)
C1 C 0.3860(5) 0.2780(8) 0.1495(7)
C2 C 0.4331(5) 0.3200(7) 0.1136(7)
H3 H 0.4225 0.3806 0.1053
H4 H 0.4796 0.3142 0.1564
C3 C 0.4640(5) 0.3186(6) -0.0137(7)
C4 C 0.4406(5) 0.3006(6) -0.1023(7)
H5 H 0.4034 0.2645 -0.1281
C5 C 0.4718(5) 0.3355(7) -0.1527(8)
H6 H 0.4553 0.3235 -0.2130
C6 C 0.5280(5) 0.3888(7) -0.1153(8)
H7 H 0.5486 0.4126 -0.1507
C7 C 0.5523(5) 0.4058(6) -0.0299(8)
C8 C 0.5214(5) 0.3705(6) 0.0239(7)
H8 H 0.5392 0.3817 0.0844
C9 C 0.6099(5) 0.4628(7) 0.0017(8)
H9 H 0.6310 0.4791 -0.0360
C10 C 0.6321(5) 0.4909(7) 0.0805(8)
H10 H 0.6119 0.4740 0.1190
C11 C 0.6929(6) 0.5531(8) 0.1116(11)
C12 C 0.2492(5) 0.3240(6) 0.3045(7)
H11 H 0.2686 0.3617 0.2770
C13 C 0.2154(5) 0.3578(7) 0.3530(7)
H12 H 0.2136 0.4168 0.3594
C14 C 0.1840(4) 0.3041(6) 0.3919(6)
C15 C 0.1920(5) 0.2201(6) 0.3840(7)
H13 H 0.1733 0.1818 0.4117
C16 C 0.2270(5) 0.1892(6) 0.3359(7)
H14 H 0.2311 0.1303 0.3314
C17 C 0.1436(5) 0.3400(6) 0.4416(7)
H15 H 0.1732 0.3759 0.4894
H16 H 0.1281 0.2931 0.4678
C18 C 0.0823(5) 0.3923(7) 0.3836(6)
H17 H 0.0974 0.4398 0.3578
H18 H 0.0523 0.3568 0.3357
C19 C 0.0440(5) 0.4258(7) 0.4362(7)
H19 H 0.0755 0.4559 0.4876
H20 H 0.0256 0.3778 0.4573
C20 C -0.0141(5) 0.4859(6) 0.3841(6)
C21 C -0.0809(5) 0.4620(6) 0.3560(7)
H21 H -0.0916 0.4070 0.3681
C22 C -0.1334(5) 0.5186(6) 0.3094(7)
H22 H -0.1783 0.5001 0.2918
C23 C -0.0569(4) 0.6214(7) 0.3174(7)
H23 H -0.0475 0.6769 0.3049
C24 C -0.0020(4) 0.5675(7) 0.3645(7)
H24 H 0.0425 0.5874 0.3824
Cd1B Cd -0.20955(3) 0.68454(4) 0.18955(5)
Cd1B_2 Cd 0.79045(3) 0.68454(4) 0.18955(5)
N2B N 0.3780(3) 0.0967(5) 0.2897(5)
O5B O 0.2090(3) 0.0694(5) 0.1881(6)
O6B O 0.2255(5) 0.0863(6) 0.0716(6)
O7 O 0.2338(6) 0.4553(8) 0.0658(8)
H25 H 0.244(8) 0.439(4) 0.023(6)
H26 H 0.273(4) 0.465(14) 0.106(8)
O8 O 0.3582(6) 0.4922(7) 0.2056(6)
H27 H 0.383(8) 0.448(7) 0.227(9)
H28 H 0.361(9) 0.519(9) 0.252(6)
loop_
_geom_bond_atom_site_label_1
_geom_bond_atom_site_label_2
_geom_bond_site_symmetry_1
_geom_bond_site_symmetry_2
Cd1 N1 1_555 1_555
N1 C12 1_555 1_555
N2 C22 1_555 1_555
O1 C2 1_555 1_555
O2 Cd1 1_555 1_555
H1 O2 1_555 1_555
H2 O2 1_555 1_555
O3 Cd1 1_555 1_555
O4 Cd1 1_555 1_555
O5 C11 1_555 1_555
O6 C11 1_555 1_555
C1 O3 1_555 1_555
C2 C1 1_555 1_555
H3 C2 1_555 1_555
H4 C2 1_555 1_555
C3 O1 1_555 1_555
C4 C3 1_555 1_555
H5 C4 1_555 1_555
C5 C4 1_555 1_555
H6 C5 1_555 1_555
C6 C5 1_555 1_555
H7 C6 1_555 1_555
C7 C6 1_555 1_555
C8 C3 1_555 1_555
H8 C8 1_555 1_555
C9 C7 1_555 1_555
H9 C9 1_555 1_555
C10 C9 1_555 1_555
H10 C10 1_555 1_555
C11 C10 1_555 1_555
C12 H11 1_555 1_555
C13 C12 1_555 1_555
H12 C13 1_555 1_555
C14 C13 1_555 1_555
C15 C14 1_555 1_555
H13 C15 1_555 1_555
C16 N1 1_555 1_555
H14 C16 1_555 1_555
C17 C14 1_555 1_555
H15 C17 1_555 1_555
H16 C17 1_555 1_555
C18 C17 1_555 1_555
H17 C18 1_555 1_555
H18 C18 1_555 1_555
C19 C18 1_555 1_555
H19 C19 1_555 1_555
H20 C19 1_555 1_555
C20 C19 1_555 1_555
C21 C20 1_555 1_555
H21 C21 1_555 1_555
C22 C21 1_555 1_555
H22 C22 1_555 1_555
C23 N2 1_555 1_555
H23 C23 1_555 1_555
C24 C20 1_555 1_555
H24 C24 1_555 1_555
O7 H25 1_555 1_555
H26 O7 1_555 1_555
O8 H27 1_555 1_555
H28 O8 1_555 1_555
Cd1B N2 1_555 1_555
Cd1B_2 O5 1_555 1_555
N2B Cd1 1_555 1_555
O5B Cd1 1_555 1_555
O6B Cd1 1_555 1_555
O4 C1 1_555 1_555
O6 Cd1B_2 1_555 1_555
C7 C8 1_555 1_555
C15 C16 1_555 1_555
C23 C24 1_555 1_555

#END
