
#######################################################################
#
#                 Cambridge Crystallographic Data Centre
#                                CCDC 
#
#######################################################################
#
# If this CIF has been generated from an entry in the Cambridge 
# Structural Database, then it will include bibliographic, chemical, 
# crystal, experimental, refinement or atomic coordinate data resulting 
# from the CCDC's data processing and validation procedures.
#
#######################################################################

data_BUBFAH
_symmetry_cell_setting           triclinic
_symmetry_space_group_name_H-M   'P -1'
_symmetry_Int_Tables_number      2
_space_group_name_Hall           '-P 1'
loop_
_symmetry_equiv_pos_site_id
_symmetry_equiv_pos_as_xyz
1 x,y,z
2 -x,-y,-z
_cell_length_a                   10.1794(7)
_cell_length_b                   10.2604(7)
_cell_length_c                   11.8069(8)
_cell_angle_alpha                83.8240(10)
_cell_angle_beta                 64.9510(10)
_cell_angle_gamma                71.5280(10)
_cell_volume                     1059.12
loop_
_atom_site_label
_atom_site_type_symbol
_atom_site_fract_x
_atom_site_fract_y
_atom_site_fract_z
Co1 Co -0.12008(2) 0.85500(2) 1.03063(2)
O1 O 0.3879(2) 0.46111(18) 0.45071(15)
N1 N -0.01205(17) 0.77667(16) 0.83915(15)
C1 C -0.0319(2) 0.8570(2) 0.74707(19)
H1 H -0.0972 0.9464 0.7669
O2 O 0.48108(17) 0.20871(15) 0.64943(13)
N2 N 0.26997(19) 0.46320(16) 0.66396(15)
H2 H 0.2680 0.4136 0.7278
C2 C 0.0409(3) 0.8117(2) 0.6241(2)
H3 H 0.0223 0.8694 0.5626
O3 O -0.15811(15) 1.05373(13) 0.97582(13)
N3 N 0.5593(2) 0.20536(17) 0.43661(15)
H4 H 0.5487 0.2584 0.3775
C3 C 0.1413(3) 0.6813(2) 0.5915(2)
H5 H 0.1916 0.6500 0.5084
O4 O -0.08310(14) 1.23848(13) 0.96380(12)
N4 N 0.80524(17) -0.09100(15) 0.22563(14)
C4 C 0.1658(2) 0.59717(19) 0.68602(18)
O5 O -0.29149(17) 1.65288(15) 0.77258(16)
H6 H -0.2885 1.7334 0.7485
C5 C 0.0847(2) 0.64911(19) 0.80859(18)
H7 H 0.0982 0.5927 0.8724
O6 O -0.52815(17) 1.69775(14) 0.79023(13)
C6 C 0.3728(3) 0.4070(2) 0.55033(19)
O7 O -0.77688(14) 1.32549(13) 0.90703(12)
C7 C 0.4774(2) 0.2612(2) 0.55341(18)
O8 O -0.65756(15) 1.12599(13) 0.95739(14)
C8 C 0.6591(2) 0.0716(2) 0.39939(18)
C9 C 0.7104(2) 0.03186(19) 0.27468(17)
H8 H 0.6762 0.0949 0.2230
C10 C 0.8530(2) -0.1812(2) 0.30199(19)
H9 H 0.9188 -0.2680 0.2698
C11 C 0.8082(2) -0.1497(2) 0.4261(2)
H10 H 0.8440 -0.2147 0.4758
C12 C 0.7100(3) -0.0217(2) 0.47692(19)
H11 H 0.6792 0.0010 0.5604
C13 C -0.29118(19) 1.26331(17) 0.91538(16)
C14 C -0.2889(2) 1.39335(18) 0.86886(17)
H12 H -0.2088 1.4256 0.8583
C15 C -0.4065(2) 1.47518(18) 0.83811(16)
C16 C -0.5277(2) 1.42805(18) 0.85602(17)
H13 H -0.6075 1.4842 0.8375
C17 C -0.53053(19) 1.29820(18) 0.90117(16)
C18 C -0.41135(19) 1.21582(18) 0.93012(16)
H14 H -0.4120 1.1281 0.9596
C19 C -0.16871(18) 1.17796(17) 0.95527(15)
C20 C -0.4148(2) 1.61802(19) 0.79694(17)
C21 C -0.6628(2) 1.24801(18) 0.92235(16)
Co1_2 Co 0.87992(2) -0.14500(2) 0.03063(2)
Co1A Co -0.87992(2) 1.14500(2) 0.96937(2)
Co1A_2 Co 0.12008(2) 1.14500(2) 0.96937(2)
O4A O 0.08310(14) 0.76152(13) 1.03620(12)
N4_2 N -0.19476(17) 0.90900(15) 1.22563(14)
O7A O -0.22312(14) 0.67451(13) 1.09297(12)
O8A O -0.34244(15) 0.87401(13) 1.04261(14)
O9 O 0.36894(19) 0.07397(16) 0.20722(16)
H15 H 0.4544 0.0201 0.2018
H16 H 0.3640 0.0809 0.1366
loop_
_geom_bond_atom_site_label_1
_geom_bond_atom_site_label_2
_geom_bond_site_symmetry_1
_geom_bond_site_symmetry_2
Co1 N1 1_555 1_555
O1 C6 1_555 1_555
N1 C1 1_555 1_555
C1 H1 1_555 1_555
O2 C7 1_555 1_555
N2 H2 1_555 1_555
C2 C1 1_555 1_555
H3 C2 1_555 1_555
O3 Co1 1_555 1_555
N3 H4 1_555 1_555
C3 C2 1_555 1_555
H5 C3 1_555 1_555
O4 C19 1_555 1_555
N4 C9 1_555 1_555
C4 N2 1_555 1_555
O5 H6 1_555 1_555
C5 N1 1_555 1_555
H7 C5 1_555 1_555
O6 C20 1_555 1_555
C6 N2 1_555 1_555
O7 C21 1_555 1_555
C7 N3 1_555 1_555
O8 C21 1_555 1_555
C8 N3 1_555 1_555
C9 C8 1_555 1_555
H8 C9 1_555 1_555
C10 N4 1_555 1_555
H9 C10 1_555 1_555
C11 C10 1_555 1_555
H10 C11 1_555 1_555
C12 C8 1_555 1_555
H11 C12 1_555 1_555
C13 C14 1_555 1_555
C14 H12 1_555 1_555
C15 C14 1_555 1_555
C16 C15 1_555 1_555
H13 C16 1_555 1_555
C17 C16 1_555 1_555
C18 C13 1_555 1_555
H14 C18 1_555 1_555
C19 O3 1_555 1_555
C20 O5 1_555 1_555
C21 C17 1_555 1_555
O9 H15 1_555 1_555
H16 O9 1_555 1_555
Co1_2 N4 1_555 1_555
Co1A O7 1_555 1_555
Co1A_2 O4 1_555 1_555
O4A Co1 1_555 1_555
N4_2 Co1 1_555 1_555
O7A Co1 1_555 1_555
O8A Co1 1_555 1_555
C3 C4 1_555 1_555
C4 C5 1_555 1_555
C6 C7 1_555 1_555
O8 Co1A 1_555 1_555
C11 C12 1_555 1_555
C13 C19 1_555 1_555
C15 C20 1_555 1_555
C17 C18 1_555 1_555

#END
