
#######################################################################
#
#                 Cambridge Crystallographic Data Centre
#                                CCDC 
#
#######################################################################
#
# If this CIF has been generated from an entry in the Cambridge 
# Structural Database, then it will include bibliographic, chemical, 
# crystal, experimental, refinement or atomic coordinate data resulting 
# from the CCDC's data processing and validation procedures.
#
#######################################################################

data_BUBGAG
_symmetry_cell_setting           monoclinic
_symmetry_space_group_name_H-M   'P 21/m'
_symmetry_Int_Tables_number      11
_space_group_name_Hall           '-P 2yb'
loop_
_symmetry_equiv_pos_site_id
_symmetry_equiv_pos_as_xyz
1 x,y,z
2 -x,1/2+y,-z
3 -x,-y,-z
4 x,1/2-y,z
_cell_length_a                   8.080(5)
_cell_length_b                   13.64(5)
_cell_length_c                   6.3125(5)
_cell_angle_alpha                90
_cell_angle_beta                 101.85(2)
_cell_angle_gamma                90
_cell_volume                     680.882
loop_
_atom_site_label
_atom_site_type_symbol
_atom_site_fract_x
_atom_site_fract_y
_atom_site_fract_z
Al1 Al 0.98150 0.25000 0.45720
Cl1 Cl 0.73460 0.25000 0.53220
Cl2 Cl 0.98410 0.25000 0.11980
Cl3 Cl 1.22250 0.25000 0.67450
O1 O 0.98180 0.39770 0.47030
C1 C 1.10110 0.45380 0.37590
C2 C 0.96340 0.44540 0.67020
H1 H 1.21610 0.45350 0.47890
H2 H 1.10760 0.42620 0.24000
H3 H 1.07170 0.44570 0.76690
H4 H 0.88570 0.41160 0.72270
O1C O 0.98180 0.10230 0.47030
C2B C 1.03660 0.55460 0.32980
C1B C 0.89890 0.54620 0.62410
C1C C 1.10110 0.04620 0.37590
C2C C 0.96340 0.05460 0.67020
O1B O 1.01820 0.60230 0.52970
H3B H 0.92830 0.55430 0.23310
H4B H 1.11430 0.58840 0.27730
H1B H 0.78390 0.54650 0.52110
H2B H 0.89240 0.57380 0.76000
C2A C 1.03660 -0.05460 0.32980
H1C H 1.21610 0.04650 0.47890
H2C H 1.10760 0.07380 0.24000
C1A C 0.89890 -0.04620 0.62410
H3C H 1.07170 0.05430 0.76690
H4C H 0.88570 0.08840 0.72270
Al1A Al 1.01850 0.75000 0.54280
O1A O 1.01820 -0.10230 0.52970
H3A H 0.92830 -0.05430 0.23310
H4A H 1.11430 -0.08840 0.27730
H1A H 0.78390 -0.04650 0.52110
H2A H 0.89240 -0.07380 0.76000
Cl1A Cl 1.26540 0.75000 0.46780
Cl2A Cl 1.01590 0.75000 0.88020
Cl3A Cl 0.77750 0.75000 0.32550
O1A_2 O 1.01820 0.89770 0.52970
Al1A_2 Al 1.01850 -0.25000 0.54280
O2 O 0.66270 0.50270 -0.04490
C3 C 0.57810 0.41360 -0.03020
C4 C 0.54340 0.57740 -0.11640
H5 H 0.52480 0.39680 -0.17320
H6 H 0.65930 0.36660 0.00810
H7 H 0.60140 0.63730 -0.12050
H8 H 0.48910 0.55370 -0.27300
C4B C 0.45660 0.42260 0.11640
C3B C 0.42190 0.58640 0.03020
O2B O 0.33730 0.49730 0.04490
H7B H 0.39860 0.36270 0.12050
H8B H 0.51090 0.44630 0.27300
H5B H 0.47520 0.60320 0.17320
H6B H 0.34070 0.63340 -0.00810
loop_
_geom_bond_atom_site_label_1
_geom_bond_atom_site_label_2
_geom_bond_site_symmetry_1
_geom_bond_site_symmetry_2
Al1 Cl1 1_555 1_555
Cl2 Al1 1_555 1_555
Cl3 Al1 1_555 1_555
O1 Al1 1_555 1_555
C1 O1 1_555 1_555
O2 C3 1_555 1_555
C2 O1 1_555 1_555
C3 H5 1_555 1_555
C4 O2 1_555 1_555
H1 C1 1_555 1_555
H2 C1 1_555 1_555
H3 C2 1_555 1_555
H4 C2 1_555 1_555
H6 C3 1_555 1_555
H7 C4 1_555 1_555
H8 C4 1_555 1_555
O1C Al1 1_555 1_555
C2B C1 1_555 1_555
C1B C2 1_555 1_555
C1C O1C 1_555 1_555
C2C O1C 1_555 1_555
O1B C2B 1_555 1_555
H3B C2B 1_555 1_555
H4B C2B 1_555 1_555
H1B C1B 1_555 1_555
H2B C1B 1_555 1_555
C2A C1C 1_555 1_555
H1C C1C 1_555 1_555
H2C C1C 1_555 1_555
C1A C2C 1_555 1_555
H3C C2C 1_555 1_555
H4C C2C 1_555 1_555
Al1A O1B 1_555 1_555
O1A C2A 1_555 1_555
H3A C2A 1_555 1_555
H4A C2A 1_555 1_555
H1A C1A 1_555 1_555
H2A C1A 1_555 1_555
Cl1A Al1A 1_555 1_555
Cl2A Al1A 1_555 1_555
Cl3A Al1A 1_555 1_555
O1A_2 Al1A 1_555 1_555
Al1A_2 O1A 1_555 1_555
C4B C3 1_555 1_555
C3B C4 1_555 1_555
O2B C4B 1_555 1_555
H7B C4B 1_555 1_555
H8B C4B 1_555 1_555
H5B C3B 1_555 1_555
H6B C3B 1_555 1_555
C1B O1B 1_555 1_555
C1A O1A 1_555 1_555
C3B O2B 1_555 1_555

#END
