
#######################################################################
#
#                 Cambridge Crystallographic Data Centre
#                                CCDC 
#
#######################################################################
#
# If this CIF has been generated from an entry in the Cambridge 
# Structural Database, then it will include bibliographic, chemical, 
# crystal, experimental, refinement or atomic coordinate data resulting 
# from the CCDC's data processing and validation procedures.
#
#######################################################################

data_BUBHIR
_symmetry_cell_setting           orthorhombic
_symmetry_space_group_name_H-M   'P b c a'
_symmetry_Int_Tables_number      61
_space_group_name_Hall           '-P 2ac 2ab'
loop_
_symmetry_equiv_pos_site_id
_symmetry_equiv_pos_as_xyz
1 x,y,z
2 1/2-x,-y,1/2+z
3 -x,1/2+y,1/2-z
4 1/2+x,1/2-y,-z
5 -x,-y,-z
6 1/2+x,y,1/2-z
7 x,1/2-y,1/2+z
8 1/2-x,1/2+y,z
_cell_length_a                   22.48920(10)
_cell_length_b                   14.08580(10)
_cell_length_c                   23.87790(10)
_cell_angle_alpha                90
_cell_angle_beta                 90
_cell_angle_gamma                90
_cell_volume                     7564
loop_
_atom_site_label
_atom_site_type_symbol
_atom_site_fract_x
_atom_site_fract_y
_atom_site_fract_z
Pd1 Pd 0.903327(13) 0.140864(19) 0.044839(11)
Cu1 Cu 0.89341(2) -0.14803(4) 0.19330(2)
Cu2 Cu 0.90163(3) 0.36620(4) -0.13596(2)
O1 O 0.88715(14) 0.28258(19) 0.02958(12)
O2 O 0.87392(15) 0.3753(2) -0.04477(12)
O3 O 0.92301(13) -0.12747(18) 0.09897(11)
O4 O 0.89614(12) 0.11432(19) 0.13006(11)
O5 O 0.89985(12) -0.00843(18) 0.18747(11)
O6 O 0.90623(13) 0.23086(19) -0.11479(11)
O7 O 0.84334(15) 0.6047(2) -0.21086(13)
N1 N 0.91850(15) 0.0060(2) 0.04191(13)
O8 O 0.93633(13) -0.41937(19) 0.22704(13)
O9 O 0.82403(14) -0.4071(2) 0.16856(16)
O10 O 0.94981(15) 0.6399(2) -0.14593(14)
N2 N 0.88581(15) -0.2842(2) 0.19721(14)
N3 N 0.91148(15) 0.1355(2) -0.03586(14)
N4 N 0.97379(14) -0.1752(2) 0.22480(13)
N5 N 0.80792(15) -0.1579(2) 0.16872(13)
C1 C 0.90265(18) 0.2155(3) -0.06257(17)
N6 N 0.98429(15) 0.4013(2) -0.11149(14)
C2 C 0.91671(16) -0.0413(3) 0.09001(16)
N7 N 0.90133(15) 0.4960(2) -0.16175(14)
N8 N 0.82031(17) 0.3658(2) -0.17019(15)
C3 C 0.88642(19) 0.2983(3) -0.02274(17)
C4 C 0.92781(16) -0.0275(3) -0.01346(16)
C5 C 0.85190(19) 0.5275(3) -0.18922(17)
C6 C 0.8044(2) 0.4515(3) -0.18997(17)
C7 C 0.98384(17) -0.2693(3) 0.23265(16)
C8 C 0.90348(16) 0.0272(3) 0.13959(16)
C9 C 0.93109(19) 0.0177(3) -0.11146(17)
H1 H 0.9283 0.0637 -0.1393
C10 C 1.03740(18) -0.3029(3) 0.25307(18)
H2 H 1.0436 -0.3677 0.2579
C11 C 0.7111(2) -0.1072(3) 0.14112(19)
H3 H 0.6846 -0.0576 0.1346
C12 C 1.01630(18) -0.1137(3) 0.23842(16)
H4 H 1.0091 -0.0491 0.2339
C13 C 0.7474(2) 0.4708(3) -0.20752(18)
H5 H 0.7376 0.5306 -0.2213
C14 C 0.93284(18) -0.3343(3) 0.21837(16)
C15 C 0.83548(19) -0.3240(3) 0.17601(17)
C16 C 0.79019(18) -0.2486(3) 0.16185(17)
C17 C 0.93964(18) -0.1212(3) -0.02806(18)
H6 H 0.9425 -0.1677 -0.0005
C18 C 1.0250(2) 0.3461(3) -0.0872(2)
H7 H 1.0200 0.2806 -0.0876
C19 C 0.99295(19) 0.4961(3) -0.11295(18)
C20 C 0.94269(19) -0.0759(3) -0.12548(18)
H8 H 0.9475 -0.0927 -0.1629
C21 C 0.76872(19) -0.0885(3) 0.15851(18)
H9 H 0.7805 -0.0257 0.1632
C22 C 0.73371(19) -0.2718(3) 0.14442(19)
H10 H 0.7227 -0.3350 0.1399
C23 C 0.6935(2) -0.1995(3) 0.13365(19)
H11 H 0.6552 -0.2134 0.1215
C24 C 0.94711(19) -0.1448(3) -0.08425(18)
H12 H 0.9551 -0.2073 -0.0942
C25 C 1.08157(19) -0.2383(3) 0.26619(18)
H13 H 1.1181 -0.2593 0.2796
C26 C 0.94615(19) 0.5535(3) -0.14252(18)
C27 C 1.0414(2) 0.5382(4) -0.0879(2)
H14 H 1.0462 0.6037 -0.0890
C28 C 0.92360(17) 0.0427(3) -0.05558(16)
C29 C 0.7048(2) 0.4000(4) -0.2043(2)
H15 H 0.6658 0.4118 -0.2152
C30 C 1.07126(19) -0.1426(3) 0.25926(18)
H16 H 1.1004 -0.0982 0.2683
C31 C 0.7796(2) 0.2972(3) -0.1679(2)
H17 H 0.7906 0.2376 -0.1548
C32 C 1.0827(2) 0.4816(4) -0.0611(3)
H18 H 1.1153 0.5085 -0.0431
C33 C 0.7212(3) 0.3121(4) -0.1846(2)
H19 H 0.6935 0.2632 -0.1826
C34 C 1.0748(2) 0.3848(4) -0.0615(3)
H20 H 1.1027 0.3453 -0.0445
Cu1F Cu 0.89341(2) 0.64803(4) -0.30670(2)
O7F O 0.84334(15) -0.1047(2) 0.28914(13)
S1 S 0.7657(2) -0.3672(3) -0.0147(2)
O11 O 0.7250(7) -0.2971(11) -0.0448(6)
C35 C 0.8266(7) -0.3659(12) -0.0595(7)
H21 H 0.8137 -0.3799 -0.0970
H22 H 0.8549 -0.4127 -0.0477
H23 H 0.8448 -0.3042 -0.0588
C36 C 0.7322(11) -0.4760(17) -0.0116(11)
H24 H 0.6924 -0.4690 0.0022
H25 H 0.7543 -0.5167 0.0130
H26 H 0.7311 -0.5035 -0.0484
S2? S 0.7681(2) -0.4367(4) -0.0565(2)
O12? O 0.7262(7) -0.3854(12) -0.0888(7)
C37? C 0.7343(11) -0.5428(17) -0.0343(10)
H27? H 0.7135 -0.5319 0.0002
H28? H 0.7642 -0.5904 -0.0286
H29? H 0.7067 -0.5641 -0.0623
C38? C 0.7636(13) -0.430(2) 0.0267(11)
H30? H 0.7810 -0.3714 0.0393
H31? H 0.7849 -0.4824 0.0426
H32? H 0.7227 -0.4326 0.0382
loop_
_geom_bond_atom_site_label_1
_geom_bond_atom_site_label_2
_geom_bond_site_symmetry_1
_geom_bond_site_symmetry_2
Pd1 O1 1_555 1_555
Cu1 O3 1_555 1_555
Cu2 O2 1_555 1_555
O1 C3 1_555 1_555
O2 C3 1_555 1_555
O3 C2 1_555 1_555
O4 Pd1 1_555 1_555
O5 Cu1 1_555 1_555
O6 Cu2 1_555 1_555
O7 C5 1_555 1_555
N1 Pd1 1_555 1_555
O8 C14 1_555 1_555
O9 C15 1_555 1_555
O10 C26 1_555 1_555
N2 Cu1 1_555 1_555
N3 Pd1 1_555 1_555
N4 Cu1 1_555 1_555
N5 Cu1 1_555 1_555
C1 O6 1_555 1_555
N6 Cu2 1_555 1_555
C2 N1 1_555 1_555
N7 Cu2 1_555 1_555
N8 Cu2 1_555 1_555
C3 C1 1_555 1_555
C4 N1 1_555 1_555
C5 N7 1_555 1_555
C6 N8 1_555 1_555
C7 N4 1_555 1_555
C8 O4 1_555 1_555
C9 H1 1_555 1_555
C10 C7 1_555 1_555
H2 C10 1_555 1_555
C11 H3 1_555 1_555
C12 N4 1_555 1_555
H4 C12 1_555 1_555
C13 C6 1_555 1_555
H5 C13 1_555 1_555
C14 N2 1_555 1_555
C15 N2 1_555 1_555
C16 N5 1_555 1_555
C17 C4 1_555 1_555
H6 C17 1_555 1_555
C18 N6 1_555 1_555
H7 C18 1_555 1_555
C19 N6 1_555 1_555
C20 C9 1_555 1_555
H8 C20 1_555 1_555
C21 N5 1_555 1_555
H9 C21 1_555 1_555
C22 C16 1_555 1_555
H10 C22 1_555 1_555
C23 C11 1_555 1_555
H11 C23 1_555 1_555
C24 C17 1_555 1_555
H12 C24 1_555 1_555
C25 C10 1_555 1_555
H13 C25 1_555 1_555
C26 N7 1_555 1_555
C27 C19 1_555 1_555
H14 C27 1_555 1_555
C28 N3 1_555 1_555
C29 C13 1_555 1_555
H15 C29 1_555 1_555
C30 C12 1_555 1_555
H16 C30 1_555 1_555
C31 N8 1_555 1_555
H17 C31 1_555 1_555
C32 C27 1_555 1_555
H18 C32 1_555 1_555
C33 C29 1_555 1_555
H19 C33 1_555 1_555
C34 C18 1_555 1_555
H20 C34 1_555 1_555
S1 O11 1_555 1_555
C35 S1 1_555 1_555
H21 C35 1_555 1_555
H22 C35 1_555 1_555
H23 C35 1_555 1_555
C36 S1 1_555 1_555
H24 C36 1_555 1_555
H25 C36 1_555 1_555
H26 C36 1_555 1_555
Cu1F O7 1_555 1_555
O7F Cu1 1_555 1_555
O5 C8 1_555 1_555
N3 C1 1_555 1_555
C2 C8 1_555 1_555
C4 C28 1_555 1_555
C5 C6 1_555 1_555
C7 C14 1_555 1_555
C9 C28 1_555 1_555
C11 C21 1_555 1_555
C15 C16 1_555 1_555
C19 C26 1_555 1_555
C20 C24 1_555 1_555
C22 C23 1_555 1_555
C25 C30 1_555 1_555
C31 C33 1_555 1_555
C32 C34 1_555 1_555

#END
