
#######################################################################
#
#                 Cambridge Crystallographic Data Centre
#                                CCDC 
#
#######################################################################
#
# If this CIF has been generated from an entry in the Cambridge 
# Structural Database, then it will include bibliographic, chemical, 
# crystal, experimental, refinement or atomic coordinate data resulting 
# from the CCDC's data processing and validation procedures.
#
#######################################################################

data_BUBLOB
_symmetry_cell_setting           triclinic
_symmetry_space_group_name_H-M   'P -1'
_symmetry_Int_Tables_number      2
_space_group_name_Hall           '-P 1'
loop_
_symmetry_equiv_pos_site_id
_symmetry_equiv_pos_as_xyz
1 x,y,z
2 -x,-y,-z
_cell_length_a                   8.7534(14)
_cell_length_b                   12.726(2)
_cell_length_c                   14.072(2)
_cell_angle_alpha                93.644(2)
_cell_angle_beta                 98.100(3)
_cell_angle_gamma                108.383(2)
_cell_volume                     1462.97
loop_
_atom_site_label
_atom_site_type_symbol
_atom_site_fract_x
_atom_site_fract_y
_atom_site_fract_z
C1 C -0.3877(5) 0.0260(4) 0.1220(3)
H1 H -0.4019 0.0537 0.0630
C2 C -0.4958(6) 0.0110(4) 0.1873(3)
H2 H -0.5939 0.0258 0.1816
C3 C -0.2821(5) -0.0417(4) 0.2430(3)
H3 H -0.2136 -0.0695 0.2829
C4 C -0.4912(5) -0.0606(4) 0.3532(3)
H4 H -0.5533 -0.1395 0.3460
H5 H -0.5647 -0.0193 0.3632
C5 C -0.3566(5) -0.0336(4) 0.4394(3)
C6 C -0.3312(7) -0.1266(4) 0.4787(4)
H6 H -0.3887 -0.1990 0.4506
C7 C -0.2117(6) -0.1035(4) 0.5647(4)
H7 H -0.1906 -0.1628 0.5926
C8 C -0.1262(5) 0.0041(4) 0.6079(4)
H8 H -0.0518 0.0157 0.6648
C9 C -0.1520(6) 0.0951(4) 0.5657(3)
H9 H -0.0920 0.1673 0.5933
C10 C -0.2698(5) 0.0769(4) 0.4807(3)
C11 C -0.3018(5) 0.1782(4) 0.4407(4)
H10 H -0.3969 0.1537 0.3899
H11 H -0.3241 0.2235 0.4916
C12 C -0.1354(6) 0.2341(4) 0.3065(3)
H12 H -0.2076 0.1862 0.2552
C13 C 0.0148(6) 0.3079(3) 0.3031(3)
H13 H 0.0646 0.3176 0.2487
C14 C -0.0285(5) 0.3261(4) 0.4518(3)
H14 H -0.0157 0.3511 0.5169
C15 C 0.3866(5) 0.2572(3) 0.1463(3)
C16 C 0.4145(5) 0.2929(3) 0.2456(3)
H15 H 0.3404 0.2577 0.2843
C17 C 0.5540(5) 0.3812(3) 0.2856(2)
C18 C 0.6661(5) 0.4355(3) 0.2281(3)
H16 H 0.7616 0.4924 0.2558
C19 C 0.6322(5) 0.4025(4) 0.1275(3)
C20 C 0.4965(5) 0.3141(3) 0.0878(3)
H17 H 0.4768 0.2915 0.0218
C21 C 0.2408(5) 0.1601(3) 0.1012(3)
C22 C 0.5811(5) 0.4201(3) 0.3903(3)
C23 C 0.7467(6) 0.4732(4) 0.0643(3)
H18 H 0.8524 0.5116 0.1040
H19 H 0.7021 0.5292 0.0407
C24 C 0.7707(5) 0.4020(3) -0.0240(3)
C25 C 0.7381(5) 0.4326(3) -0.1161(3)
H20 H 0.6989 0.4918 -0.1250
C26 C 0.7658(5) 0.3717(3) -0.1955(3)
C27 C 0.8260(5) 0.2849(3) -0.1815(3)
H21 H 0.8492 0.2471 -0.2334
C28 C 0.8515(5) 0.2547(3) -0.0890(3)
C29 C 0.8217(5) 0.3119(3) -0.0104(3)
H22 H 0.8362 0.2894 0.0509
C30 C 0.7335(6) 0.4027(4) -0.2940(3)
C31 C 0.9099(5) 0.1562(4) -0.0736(3)
Co1 Co -0.06817(6) -0.00542(4) 0.08684(3)
Co2 Co 0.30372(7) 0.48058(5) 0.43433(4)
N1 N -0.2545(4) -0.0067(3) 0.1581(2)
N2 N -0.4226(4) -0.0316(3) 0.2634(2)
N3 N -0.1599(4) 0.2445(3) 0.4022(3)
N4 N 0.0815(4) 0.3662(3) 0.3941(2)
O1 O 0.1349(4) 0.1181(3) 0.1527(2)
O2 O 0.2326(4) 0.1252(3) 0.0156(2)
O3 O 0.4672(4) 0.3933(2) 0.43835(18)
O4 O 0.7204(4) 0.4832(2) 0.42965(19)
O5 O 0.7819(4) 0.3642(3) -0.3629(2)
O6 O 0.6541(4) 0.4693(2) -0.3080(2)
O7 O 0.9808(4) 0.1255(3) -0.1364(2)
O8 O 0.8816(4) 0.1099(3) 0.0010(2)
Co1_2 Co 0.93183(6) -0.00542(4) 0.08684(3)
Co1A Co 0.06817(6) 0.00542(4) -0.08684(3)
Co1A_2 Co 1.06817(6) 0.00542(4) -0.08684(3)
Co2A Co 0.69628(7) 0.51942(5) -0.43433(4)
Co2A_2 Co 0.69628(7) 0.51942(5) 0.56567(4)
O2A O -0.2326(4) -0.1252(3) -0.0156(2)
O4A O 0.2796(4) 0.5168(2) 0.57035(19)
O6A O 0.3459(4) 0.5307(2) 0.3080(2)
O7A O 0.0192(4) -0.1255(3) 0.1364(2)
O8_2 O -0.1184(4) 0.1099(3) 0.0010(2)
O9 O 0.1897(8) 0.2611(6) 0.7334(4)
H23 H 0.2913 0.2847 0.7312
H24 H 0.1622 0.3135 0.7585
loop_
_geom_bond_atom_site_label_1
_geom_bond_atom_site_label_2
_geom_bond_site_symmetry_1
_geom_bond_site_symmetry_2
C1 H1 1_555 1_555
C2 C1 1_555 1_555
H2 C2 1_555 1_555
C3 H3 1_555 1_555
C4 H4 1_555 1_555
H5 C4 1_555 1_555
C5 C4 1_555 1_555
C6 C5 1_555 1_555
H6 C6 1_555 1_555
C7 C6 1_555 1_555
H7 C7 1_555 1_555
C8 C7 1_555 1_555
H8 C8 1_555 1_555
C9 C8 1_555 1_555
H9 C9 1_555 1_555
C10 C5 1_555 1_555
C11 C10 1_555 1_555
H10 C11 1_555 1_555
H11 C11 1_555 1_555
C12 H12 1_555 1_555
C13 C12 1_555 1_555
H13 C13 1_555 1_555
C14 H14 1_555 1_555
C15 C16 1_555 1_555
C16 H15 1_555 1_555
C17 C16 1_555 1_555
C18 C17 1_555 1_555
H16 C18 1_555 1_555
C19 C18 1_555 1_555
C20 C15 1_555 1_555
H17 C20 1_555 1_555
C21 C15 1_555 1_555
C22 C17 1_555 1_555
C23 C19 1_555 1_555
H18 C23 1_555 1_555
H19 C23 1_555 1_555
C24 C23 1_555 1_555
C25 C24 1_555 1_555
H20 C25 1_555 1_555
C26 C25 1_555 1_555
C27 C26 1_555 1_555
H21 C27 1_555 1_555
C28 C27 1_555 1_555
C29 C24 1_555 1_555
H22 C29 1_555 1_555
C30 C26 1_555 1_555
C31 C28 1_555 1_555
Co1 N1 1_555 1_555
Co2 N4 1_555 1_555
N1 C1 1_555 1_555
N2 C2 1_555 1_555
N3 C11 1_555 1_555
N4 C13 1_555 1_555
O1 C21 1_555 1_555
O2 C21 1_555 1_555
O3 C22 1_555 1_555
O4 C22 1_555 1_555
O5 C30 1_555 1_555
O6 C30 1_555 1_555
O7 C31 1_555 1_555
O8 C31 1_555 1_555
O9 H23 1_555 1_555
H24 O9 1_555 1_555
Co1_2 O8 1_555 1_555
Co1A Co1 1_555 1_555
Co1A_2 O7 1_555 1_555
Co2A O6 1_555 1_555
Co2A_2 O4 1_555 1_555
O2A Co1 1_555 1_555
O4A Co2 1_555 1_555
O6A Co2 1_555 1_555
O7A Co1 1_555 1_555
O8_2 Co1 1_555 1_555
C3 N1 1_555 1_555
C3 N2 1_555 1_555
C4 N2 1_555 1_555
C9 C10 1_555 1_555
C12 N3 1_555 1_555
C14 N3 1_555 1_555
C14 N4 1_555 1_555
C19 C20 1_555 1_555
C28 C29 1_555 1_555
Co1 O1 1_555 1_555
Co2 O3 1_555 1_555
O2 Co1A 1_555 1_555
Co1_2 Co1A_2 1_555 1_555

#END
