
#######################################################################
#
#                 Cambridge Crystallographic Data Centre
#                                CCDC 
#
#######################################################################
#
# If this CIF has been generated from an entry in the Cambridge 
# Structural Database, then it will include bibliographic, chemical, 
# crystal, experimental, refinement or atomic coordinate data resulting 
# from the CCDC's data processing and validation procedures.
#
#######################################################################

data_BUBLIV
_symmetry_cell_setting           triclinic
_symmetry_space_group_name_H-M   'P -1'
_symmetry_Int_Tables_number      2
_space_group_name_Hall           '-P 1'
loop_
_symmetry_equiv_pos_site_id
_symmetry_equiv_pos_as_xyz
1 x,y,z
2 -x,-y,-z
_cell_length_a                   8.6859(14)
_cell_length_b                   12.800(2)
_cell_length_c                   13.959(2)
_cell_angle_alpha                93.811(2)
_cell_angle_beta                 98.695(3)
_cell_angle_gamma                107.667(2)
_cell_volume                     1451.33
loop_
_atom_site_label
_atom_site_type_symbol
_atom_site_fract_x
_atom_site_fract_y
_atom_site_fract_z
C1 C 0.0033(5) 0.3045(4) 0.8051(3)
H1 H 0.0509 0.3152 0.7496
C2 C -0.1443(5) 0.2324(4) 0.8082(3)
H2 H -0.2175 0.1850 0.7563
C3 C -0.0331(5) 0.3221(4) 0.9537(3)
H3 H -0.0186 0.3469 1.0196
C4 C -0.3035(5) 0.1766(4) 0.9432(3)
H4 H -0.4005 0.1520 0.8923
H5 H -0.3254 0.2219 0.9947
C5 C -0.2710(5) 0.0761(4) 0.9842(3)
C6 C -0.1529(5) 0.0962(4) 1.0679(3)
H6 H -0.0930 0.1681 1.0950
C7 C -0.1260(6) 0.0093(4) 1.1095(3)
H7 H -0.0510 0.0228 1.1676
C8 C -0.2050(6) -0.0974(4) 1.0695(4)
H8 H -0.1806 -0.1551 1.0986
C9 C -0.3224(5) -0.1191(4) 0.9847(3)
H9 H -0.3772 -0.1915 0.9566
C10 C -0.3564(5) -0.0323(4) 0.9427(3)
C11 C -0.4904(5) -0.0588(4) 0.8542(3)
H10 H -0.5524 -0.1368 0.8466
H11 H -0.5650 -0.0174 0.8633
C12 C -0.4938(5) 0.0086(4) 0.6881(3)
H12 H -0.5937 0.0225 0.6808
C13 C -0.3890(5) 0.0231(4) 0.6244(3)
H13 H -0.4045 0.0493 0.5643
C14 C -0.2825(5) -0.0400(4) 0.7469(3)
H14 H -0.2118 -0.0663 0.7880
C15 C 0.5499(5) 0.3789(4) 0.7867(3)
C16 C 0.4124(5) 0.2904(4) 0.7463(3)
H15 H 0.3395 0.2551 0.7853
C17 C 0.3841(5) 0.2547(3) 0.6472(3)
C18 C 0.4921(5) 0.3097(3) 0.5881(3)
H16 H 0.4735 0.2851 0.5219
C19 C 0.6270(5) 0.4011(3) 0.6282(3)
C20 C 0.6572(5) 0.4307(3) 0.7274(3)
H17 H 0.7525 0.4873 0.7556
C21 C 0.7378(6) 0.4674(4) 0.5636(3)
H18 H 0.6914 0.5227 0.5394
H19 H 0.8444 0.5061 0.6034
C22 C 0.7625(5) 0.3997(4) 0.4769(3)
C23 C 0.8174(5) 0.3099(3) 0.4916(3)
H20 H 0.8323 0.2886 0.5538
C24 C 0.8499(5) 0.2523(4) 0.4146(3)
C25 C 0.8275(5) 0.2823(3) 0.3216(3)
H21 H 0.8520 0.2441 0.2701
C26 C 0.7687(5) 0.3690(4) 0.3059(3)
C27 C 0.7348(5) 0.4280(4) 0.3835(3)
H22 H 0.6937 0.4861 0.3723
C28 C 0.5759(5) 0.4186(4) 0.8912(3)
C29 C 0.2409(5) 0.1574(3) 0.6029(3)
C30 C 0.9055(5) 0.1544(3) 0.4316(3)
C31 C 0.7440(6) 0.3997(3) 0.2043(3)
N1 N 0.0730(4) 0.3597(3) 0.8963(3)
N2 N -0.1653(4) 0.2428(3) 0.9033(3)
N3 N -0.4221(5) -0.0312(3) 0.7660(2)
N4 N -0.2562(4) -0.0070(3) 0.6625(2)
O1 O 0.4589(3) 0.3897(2) 0.93764(18)
O2 O 0.7141(3) 0.4806(2) 0.93214(19)
O3 O 0.1384(4) 0.1159(2) 0.6555(2)
O4 O 0.2317(4) 0.1231(3) 0.5170(2)
O5 O 0.8825(4) 0.1139(3) 0.5078(2)
O6 O 0.9737(4) 0.1203(2) 0.3684(2)
O7 O 0.7916(4) 0.3577(3) 0.1384(2)
O8 O 0.6715(4) 0.4709(3) 0.1902(2)
Zn1 Zn 0.29195(5) 0.47272(3) 0.93188(3)
Zn2 Zn -0.07238(5) -0.00308(3) 0.59053(3)
O2A O 0.2859(3) 0.5194(2) 1.06786(19)
O4A O -0.2317(4) -0.1231(3) 0.4830(2)
O5_2 O -0.1175(4) 0.1139(3) 0.5078(2)
O6A O 0.0263(4) -0.1203(2) 0.6316(2)
O8A O 0.3285(4) 0.5291(3) 0.8098(2)
Zn1A Zn 0.70805(5) 0.52728(3) 0.06812(3)
Zn1A_2 Zn 0.70805(5) 0.52728(3) 1.06812(3)
Zn2_2 Zn 0.92762(5) -0.00308(3) 0.59053(3)
Zn2A Zn 0.07238(5) 0.00308(3) 0.40947(3)
Zn2A_2 Zn 1.07238(5) 0.00308(3) 0.40947(3)
O9 O 0.3362(8) 0.3005(5) 0.2866(5)
H23 H 0.3335 0.3069 0.3472
H24 H 0.2492 0.3075 0.2546
loop_
_geom_bond_atom_site_label_1
_geom_bond_atom_site_label_2
_geom_bond_site_symmetry_1
_geom_bond_site_symmetry_2
C1 H1 1_555 1_555
C2 C1 1_555 1_555
H2 C2 1_555 1_555
C3 H3 1_555 1_555
C4 H4 1_555 1_555
H5 C4 1_555 1_555
C5 C4 1_555 1_555
C6 C5 1_555 1_555
H6 C6 1_555 1_555
C7 C6 1_555 1_555
H7 C7 1_555 1_555
C8 C7 1_555 1_555
H8 C8 1_555 1_555
C9 C8 1_555 1_555
H9 C9 1_555 1_555
C10 C5 1_555 1_555
C11 C10 1_555 1_555
H10 C11 1_555 1_555
H11 C11 1_555 1_555
C12 H12 1_555 1_555
C13 C12 1_555 1_555
H13 C13 1_555 1_555
C14 H14 1_555 1_555
C15 C16 1_555 1_555
C16 H15 1_555 1_555
C17 C16 1_555 1_555
C18 C17 1_555 1_555
H16 C18 1_555 1_555
C19 C18 1_555 1_555
C20 C15 1_555 1_555
H17 C20 1_555 1_555
C21 C19 1_555 1_555
H18 C21 1_555 1_555
H19 C21 1_555 1_555
C22 C21 1_555 1_555
C23 C22 1_555 1_555
H20 C23 1_555 1_555
C24 C23 1_555 1_555
C25 C24 1_555 1_555
H21 C25 1_555 1_555
C26 C25 1_555 1_555
C27 C22 1_555 1_555
H22 C27 1_555 1_555
C28 C15 1_555 1_555
C29 C17 1_555 1_555
C30 C24 1_555 1_555
C31 C26 1_555 1_555
N1 C1 1_555 1_555
N2 C2 1_555 1_555
N3 C11 1_555 1_555
N4 C13 1_555 1_555
O1 C28 1_555 1_555
O2 C28 1_555 1_555
O3 C29 1_555 1_555
O4 C29 1_555 1_555
O5 C30 1_555 1_555
O6 C30 1_555 1_555
O7 C31 1_555 1_555
O8 C31 1_555 1_555
Zn1 N1 1_555 1_555
Zn2 N4 1_555 1_555
O9 H23 1_555 1_555
H24 O9 1_555 1_555
O2A Zn1 1_555 1_555
O4A Zn2 1_555 1_555
O5_2 Zn2 1_555 1_555
O6A Zn2 1_555 1_555
O8A Zn1 1_555 1_555
Zn1A O8 1_555 1_555
Zn1A_2 O2 1_555 1_555
Zn2_2 O5 1_555 1_555
Zn2A O4 1_555 1_555
Zn2A_2 O6 1_555 1_555
C3 N1 1_555 1_555
C3 N2 1_555 1_555
C4 N2 1_555 1_555
C9 C10 1_555 1_555
C12 N3 1_555 1_555
C14 N3 1_555 1_555
C14 N4 1_555 1_555
C19 C20 1_555 1_555
C26 C27 1_555 1_555
O1 Zn1 1_555 1_555
O3 Zn2 1_555 1_555

#END
