
#######################################################################
#
#                 Cambridge Crystallographic Data Centre
#                                CCDC 
#
#######################################################################
#
# If this CIF has been generated from an entry in the Cambridge 
# Structural Database, then it will include bibliographic, chemical, 
# crystal, experimental, refinement or atomic coordinate data resulting 
# from the CCDC's data processing and validation procedures.
#
#######################################################################

data_BUBLAN
_symmetry_cell_setting           triclinic
_symmetry_space_group_name_H-M   'P -1'
_symmetry_Int_Tables_number      2
_space_group_name_Hall           '-P 1'
loop_
_symmetry_equiv_pos_site_id
_symmetry_equiv_pos_as_xyz
1 x,y,z
2 -x,-y,-z
_cell_length_a                   10.6730(9)
_cell_length_b                   13.7072(11)
_cell_length_c                   15.2221(12)
_cell_angle_alpha                79.9730(10)
_cell_angle_beta                 87.0520(10)
_cell_angle_gamma                89.2030(10)
_cell_volume                     2190
loop_
_atom_site_label
_atom_site_type_symbol
_atom_site_fract_x
_atom_site_fract_y
_atom_site_fract_z
Cu1 Cu 0.08744(3) 0.39209(3) 0.17797(2)
C1 C 0.4167(7) 0.0577(4) -0.3175(5)
H1 H 0.4933 0.0249 -0.3107
C2 C 0.4132(5) 0.1589(4) -0.3558(5)
H2 H 0.4867 0.1923 -0.3775
C3 C 0.2998(4) 0.2073(3) -0.3607(3)
C4 C 0.1956(5) 0.1563(4) -0.3264(4)
H3 H 0.1181 0.1883 -0.3261
C5 C 0.2047(7) 0.0575(4) -0.2921(6)
H4 H 0.1321 0.0240 -0.2685
C6 C 0.3089(7) 0.0084(4) -0.2906(6)
C7 C 0.3167(6) -0.1029(4) -0.2465(5)
H5 H 0.2855 -0.1107 -0.1854
H6 H 0.4025 -0.1249 -0.2486
H7 H 0.2671 -0.1418 -0.2782
C8 C 0.4408(3) 0.3973(3) -0.1949(2)
H8 H 0.5223 0.4037 -0.2199
C9 C 0.4192(3) 0.3983(3) -0.1055(2)
H9 H 0.4861 0.4059 -0.0705
C10 C 0.2975(3) 0.3879(2) -0.0664(2)
C11 C 0.2009(3) 0.3780(2) -0.1207(2)
H10 H 0.1195 0.3710 -0.0956
C12 C 0.2208(3) 0.3781(3) -0.2112(2)
H11 H 0.1536 0.3723 -0.2465
C13 C 0.3421(3) 0.3868(2) -0.2488(2)
C14 C 0.2733(3) 0.3911(2) 0.0306(2)
C15 C 0.4490(6) 1.1487(4) 0.0486(5)
H12 H 0.5265 1.1650 0.0672
C16 C 0.3447(6) 1.1446(4) 0.1077(5)
H13 H 0.3516 1.1594 0.1646
C17 C 0.2304(5) 1.1183(3) 0.0801(4)
C18 C 0.2233(6) 1.0971(5) -0.0056(5)
H14 H 0.1479 1.0778 -0.0253
C19 C 0.3286(8) 1.1052(5) -0.0597(5)
H15 H 0.3228 1.0932 -0.1176
C20 C 0.4411(6) 1.1296(4) -0.0345(6)
C21 C 0.5579(6) 1.1352(4) -0.0970(5)
H16 H 0.5341 1.1312 -0.1563
H17 H 0.6132 1.0812 -0.0765
H18 H 0.5999 1.1969 -0.0978
C22 C 0.1980(5) 0.8542(3) 0.2906(3)
H19 H 0.2351 0.8803 0.3353
C23 C 0.2064(5) 0.7538(3) 0.2897(3)
H20 H 0.2484 0.7131 0.3342
C24 C 0.1530(3) 0.7127(2) 0.2232(2)
C25 C 0.0930(4) 0.7756(3) 0.1582(3)
H21 H 0.0578 0.7496 0.1127
C26 C 0.0834(4) 0.8760(3) 0.1583(3)
H22 H 0.0422 0.9166 0.1133
C27 C 0.1351(4) 0.9164(3) 0.2257(3)
C28 C 0.1624(3) 0.6034(2) 0.2227(2)
C29 C 0.0287(4) 0.3836(3) 0.3786(2)
H23 H 0.1139 0.3907 0.3857
C30 C -0.0546(4) 0.3772(4) 0.4532(3)
H24 H -0.0240 0.3790 0.5090
C31 C -0.1779(4) 0.3683(4) 0.4451(3)
H25 H -0.2327 0.3642 0.4951
C32 C -0.2248(3) 0.3653(3) 0.3606(2)
C33 C -0.3555(3) 0.3562(3) 0.3436(3)
H26 H -0.4153 0.3519 0.3908
C34 C -0.3921(3) 0.3538(3) 0.2617(3)
H27 H -0.4770 0.3478 0.2529
C35 C -0.3034(3) 0.3605(2) 0.1865(2)
C36 C -0.3361(3) 0.3597(3) 0.0982(2)
H28 H -0.4196 0.3538 0.0854
C37 C -0.2443(3) 0.3678(3) 0.0315(2)
H29 H -0.2645 0.3656 -0.0268
C38 C -0.1188(3) 0.3795(2) 0.0518(2)
H30 H -0.0572 0.3872 0.0057
C39 C -0.1764(3) 0.3706(2) 0.2009(2)
C40 C -0.1364(3) 0.3716(2) 0.2889(2)
N1 N 0.3699(3) 0.3916(2) -0.34172(18)
H31 H 0.4483 0.4122 -0.3674
N2 N 0.1238(4) 1.0174(2) 0.2344(3)
H32 H 0.1769 1.0343 0.2808
N3 N -0.0106(3) 0.3799(2) 0.29747(18)
N4 N -0.0855(2) 0.37992(18) 0.13398(17)
O1 O 0.1642(3) 0.3625(2) -0.4040(2)
O2 O 0.3646(3) 0.3514(3) -0.48983(18)
O3 O 0.15889(19) 0.38924(17) 0.05832(15)
O4 O 0.3648(2) 0.3948(2) 0.07851(16)
O5 O -0.0080(4) 1.0909(3) 0.1086(3)
O6 O 0.0975(4) 1.1942(2) 0.2006(3)
O7 O 0.1002(2) 0.56682(17) 0.16959(16)
O8 O 0.2352(3) 0.55310(18) 0.27765(18)
O9 O 0.2529(2) 0.37929(17) 0.23439(15)
H33 H 0.3040 0.3719 0.1749
H34 H 0.2522 0.4352 0.2438
S1 S 0.29308(10) 0.33416(7) -0.40573(6)
S2 S 0.09925(12) 1.11132(8) 0.15492(11)
Cu1_2 Cu 0.08744(3) 1.39209(3) 0.17797(2)
O6_2 O 0.0975(4) 0.1942(2) 0.2006(3)
loop_
_geom_bond_atom_site_label_1
_geom_bond_atom_site_label_2
_geom_bond_site_symmetry_1
_geom_bond_site_symmetry_2
Cu1 N3 1_555 1_555
C1 H1 1_555 1_555
C2 C1 1_555 1_555
H2 C2 1_555 1_555
C3 C2 1_555 1_555
C4 C3 1_555 1_555
H3 C4 1_555 1_555
C5 C4 1_555 1_555
H4 C5 1_555 1_555
C6 C1 1_555 1_555
C7 C6 1_555 1_555
H5 C7 1_555 1_555
H6 C7 1_555 1_555
H7 C7 1_555 1_555
C8 H8 1_555 1_555
C9 C8 1_555 1_555
H9 C9 1_555 1_555
C10 C9 1_555 1_555
C11 C10 1_555 1_555
H10 C11 1_555 1_555
C12 C11 1_555 1_555
H11 C12 1_555 1_555
C13 C8 1_555 1_555
C14 C10 1_555 1_555
C15 H12 1_555 1_555
C16 C15 1_555 1_555
H13 C16 1_555 1_555
C17 C16 1_555 1_555
C18 C17 1_555 1_555
H14 C18 1_555 1_555
C19 C18 1_555 1_555
H15 C19 1_555 1_555
C20 C15 1_555 1_555
C21 C20 1_555 1_555
H16 C21 1_555 1_555
H17 C21 1_555 1_555
H18 C21 1_555 1_555
C22 H19 1_555 1_555
C23 C22 1_555 1_555
H20 C23 1_555 1_555
C24 C23 1_555 1_555
C25 C24 1_555 1_555
H21 C25 1_555 1_555
C26 C25 1_555 1_555
H22 C26 1_555 1_555
C27 C22 1_555 1_555
C28 C24 1_555 1_555
C29 H23 1_555 1_555
C30 C29 1_555 1_555
H24 C30 1_555 1_555
C31 C30 1_555 1_555
H25 C31 1_555 1_555
C32 C31 1_555 1_555
C33 C32 1_555 1_555
H26 C33 1_555 1_555
C34 C33 1_555 1_555
H27 C34 1_555 1_555
C35 C34 1_555 1_555
C36 C35 1_555 1_555
H28 C36 1_555 1_555
C37 C36 1_555 1_555
H29 C37 1_555 1_555
C38 C37 1_555 1_555
H30 C38 1_555 1_555
C39 C35 1_555 1_555
C40 C32 1_555 1_555
N1 C13 1_555 1_555
H31 N1 1_555 1_555
N2 C27 1_555 1_555
H32 N2 1_555 1_555
N3 C29 1_555 1_555
N4 Cu1 1_555 1_555
O1 S1 1_555 1_555
O2 S1 1_555 1_555
O3 Cu1 1_555 1_555
O4 C14 1_555 1_555
O5 S2 1_555 1_555
O6 S2 1_555 1_555
O7 Cu1 1_555 1_555
O8 C28 1_555 1_555
O9 Cu1 1_555 1_555
H33 O9 1_555 1_555
H34 O9 1_555 1_555
S1 C3 1_555 1_555
S2 C17 1_555 1_555
Cu1_2 O6 1_555 1_555
O6_2 Cu1 1_555 1_555
C5 C6 1_555 1_555
C12 C13 1_555 1_555
C14 O3 1_555 1_555
C19 C20 1_555 1_555
C26 C27 1_555 1_555
C28 O7 1_555 1_555
C38 N4 1_555 1_555
C39 C40 1_555 1_555
C39 N4 1_555 1_555
C40 N3 1_555 1_555
N1 S1 1_555 1_555
N2 S2 1_555 1_555

#END
