
#######################################################################
#
#                 Cambridge Crystallographic Data Centre
#                                CCDC 
#
#######################################################################
#
# If this CIF has been generated from an entry in the Cambridge 
# Structural Database, then it will include bibliographic, chemical, 
# crystal, experimental, refinement or atomic coordinate data resulting 
# from the CCDC's data processing and validation procedures.
#
#######################################################################

data_BUBMES
_symmetry_cell_setting           monoclinic
_symmetry_space_group_name_H-M   'C 2/c'
_symmetry_Int_Tables_number      15
_space_group_name_Hall           '-C 2yn'
loop_
_symmetry_equiv_pos_site_id
_symmetry_equiv_pos_as_xyz
1 x,y,z
2 -x,y,1/2-z
3 1/2+x,1/2+y,z
4 1/2-x,1/2+y,1/2-z
5 -x,-y,-z
6 x,-y,1/2+z
7 1/2-x,1/2-y,-z
8 1/2+x,1/2-y,1/2+z
_cell_length_a                   42.154(2)
_cell_length_b                   10.9416(5)
_cell_length_c                   24.2112(11)
_cell_angle_alpha                90
_cell_angle_beta                 116.942(2)
_cell_angle_gamma                90
_cell_volume                     9954.98
loop_
_atom_site_label
_atom_site_type_symbol
_atom_site_fract_x
_atom_site_fract_y
_atom_site_fract_z
Cl1 Cl 0.17021(5) -0.32224(17) 0.32207(8)
N1 N 0.12672(10) -0.2354(3) 0.58263(18)
O1 O 0.17540(10) -0.6903(3) 0.69795(17)
O2 O 0.10197(10) -0.7100(3) 0.60213(18)
O3 O 0.15529(10) -0.7290(3) 0.56291(17)
O4 O 0.07966(11) 0.2335(3) 0.47849(18)
O5 O 0.14952(12) -0.3156(4) 0.6063(2)
O6 O 0.13463(15) -0.1261(4) 0.5902(3)
O7 O 0.09564(14) -0.2656(5) 0.5492(3)
Ca1 Ca 0.14767(3) -0.54269(8) 0.61645(4)
Ca2 Ca 0.11567(3) 0.08726(9) 0.55790(5)
C1 C 0.10298(13) -0.4397(4) 0.4590(2)
C2 C 0.06981(14) -0.2928(4) 0.3848(2)
H1 H 0.0534 -0.3059 0.3404
C3 C 0.10887(14) -0.2863(4) 0.3966(2)
H2 H 0.1114 -0.3060 0.3589
C4 C 0.09371(14) -0.1007(4) 0.4254(2)
C5 C 0.16241(14) -0.4187(4) 0.4641(2)
H3 H 0.1676 -0.4107 0.4287
H4 H 0.1641 -0.5056 0.4749
C6 C 0.15329(14) -0.1091(5) 0.4318(2)
H5 H 0.1504 -0.0204 0.4262
H6 H 0.1617 -0.1398 0.4026
C7 C 0.20287(13) -0.3950(4) 0.5742(2)
C8 C 0.20456(13) -0.2359(4) 0.5122(2)
H7 H 0.2171 -0.2416 0.4862
C9 C 0.23065(14) -0.2078(4) 0.5807(3)
H8 H 0.2553 -0.1963 0.5867
C10 C 0.18671(13) -0.0572(4) 0.5422(2)
C11 C 0.24773(13) -0.3324(5) 0.6797(2)
H9 H 0.2518 -0.4202 0.6877
H10 H 0.2710 -0.2933 0.6937
C12 C 0.23223(14) -0.0308(5) 0.6507(3)
H11 H 0.2279 0.0567 0.6421
H12 H 0.2580 -0.0436 0.6702
C13 C 0.20672(13) -0.3516(4) 0.7253(2)
C14 C 0.23483(13) -0.1629(4) 0.7404(2)
H13 H 0.2598 -0.1437 0.7698
C15 C 0.21026(14) -0.1628(4) 0.7731(2)
H14 H 0.2239 -0.1498 0.8184
C16 C 0.19079(13) -0.0119(4) 0.6961(2)
C17 C 0.16882(13) -0.3332(4) 0.7770(2)
H15 H 0.1748 -0.3039 0.8189
H16 H 0.1707 -0.4225 0.7788
C18 C 0.15930(14) -0.0204(4) 0.7611(2)
H17 H 0.1564 0.0679 0.7540
H18 H 0.1683 -0.0342 0.8057
C19 C 0.10866(13) -0.3759(4) 0.6909(2)
C20 C 0.11500(14) -0.1943(4) 0.7463(2)
H19 H 0.1177 -0.1926 0.7891
C21 C 0.07540(14) -0.2106(4) 0.6974(2)
H20 H 0.0590 -0.2093 0.7164
C22 C 0.09854(15) -0.0349(4) 0.6746(2)
C23 C 0.04325(13) -0.3891(5) 0.6272(2)
H21 H 0.0470 -0.4774 0.6334
H22 H 0.0242 -0.3665 0.6379
C24 C 0.03598(14) -0.0774(4) 0.6055(3)
H23 H 0.0352 0.0110 0.5986
H24 H 0.0170 -0.0981 0.6166
C25 C 0.03933(12) -0.4378(4) 0.5252(2)
C26 C 0.01112(12) -0.2556(4) 0.5283(2)
H25 H -0.0128 -0.2535 0.5264
C27 C 0.00880(13) -0.2716(4) 0.4625(2)
H26 H -0.0162 -0.2785 0.4302
C28 C 0.03806(12) -0.0881(4) 0.5065(2)
C29 C 0.03707(13) -0.4402(4) 0.4226(2)
H27 H 0.0392 -0.5288 0.4293
H28 H 0.0172 -0.4257 0.3815
C30 C 0.03124(13) -0.1311(4) 0.4019(2)
H29 H 0.0118 -0.1661 0.3648
H30 H 0.0302 -0.0421 0.3968
N2 N 0.06939(11) -0.3957(4) 0.4226(2)
N3 N 0.12628(11) -0.3782(4) 0.4454(2)
N4 N 0.06439(11) -0.1739(4) 0.40597(19)
N5 N 0.11937(11) -0.1625(4) 0.4166(2)
N6 N 0.18919(12) -0.3523(4) 0.5162(2)
N7 N 0.22766(12) -0.3144(4) 0.6133(2)
N8 N 0.18012(11) -0.1340(4) 0.4941(2)
N9 N 0.21638(11) -0.0966(4) 0.5929(2)
N10 N 0.23130(11) -0.2858(4) 0.7163(2)
N11 N 0.19433(12) -0.2845(4) 0.7584(2)
N12 N 0.21892(12) -0.0667(4) 0.6940(2)
N13 N 0.18556(12) -0.0632(4) 0.7429(2)
N14 N 0.13224(11) -0.2994(4) 0.7357(2)
N15 N 0.07557(11) -0.3277(4) 0.6697(2)
N16 N 0.12479(12) -0.0780(4) 0.7289(2)
N17 N 0.06976(12) -0.1086(4) 0.6563(2)
N18 N 0.03139(11) -0.3630(4) 0.5626(2)
N19 N 0.02845(11) -0.3855(4) 0.4685(2)
N20 N 0.02920(11) -0.1392(4) 0.54840(19)
N21 N 0.02548(11) -0.1607(4) 0.45480(19)
O8 O 0.11032(9) -0.5243(3) 0.49679(16)
O9 O 0.19490(10) -0.4931(3) 0.59011(17)
O10 O 0.19790(9) -0.4583(3) 0.70895(17)
O11 O 0.11666(9) -0.4719(3) 0.67391(17)
O12 O 0.05300(10) -0.5395(3) 0.53982(18)
O13 O 0.09618(10) 0.0036(3) 0.44502(18)
O14 O 0.16956(10) 0.0361(3) 0.53958(18)
O15 O 0.17346(10) 0.0738(3) 0.66339(17)
O16 O 0.10062(11) 0.0575(3) 0.64800(19)
O17 O 0.05343(9) 0.0098(3) 0.51257(17)
O2_2 O 0.10197(10) 0.2900(3) 0.60213(18)
O3_2 O 0.15529(10) 0.2710(3) 0.56291(17)
Ca2_2 Ca 0.11567(3) -0.91274(9) 0.55790(5)
Cl2 Cl 0.04878(5) -0.06082(16) 0.25445(8)
Cl3 Cl 0.02233(4) 0.21436(14) 0.33683(6)
Cd1 Cd 0.0000 0.06568(5) 0.2500
Cl2A Cl -0.04878(5) -0.06082(16) 0.24555(8)
Cl3A Cl -0.02233(4) 0.21436(14) 0.16317(6)
O18 O 0.2234(3) -0.2611(10) 1.0999(6)
Cl4? Cl 0.14531(9) -0.2520(3) 0.92046(15)
Cl5? Cl 0.22655(9) -0.0323(3) 0.93069(16)
Cl6? Cl 0.26859(12) -0.0875(4) 1.0612(2)
Cd2? Cd 0.21086(3) -0.22257(9) 0.96881(4)
Cl7? Cl 0.24009(12) -0.2294(4) 1.08123(16)
loop_
_geom_bond_atom_site_label_1
_geom_bond_atom_site_label_2
_geom_bond_site_symmetry_1
_geom_bond_site_symmetry_2
N1 O5 1_555 1_555
O1 Ca1 1_555 1_555
O2 Ca1 1_555 1_555
O3 Ca1 1_555 1_555
O4 Ca2 1_555 1_555
O5 Ca1 1_555 1_555
O6 N1 1_555 1_555
O7 N1 1_555 1_555
Ca1 O8 1_555 1_555
Ca2 O6 1_555 1_555
C1 N2 1_555 1_555
C2 H1 1_555 1_555
C3 C2 1_555 1_555
H2 C3 1_555 1_555
C4 N4 1_555 1_555
C5 H3 1_555 1_555
H4 C5 1_555 1_555
C6 H5 1_555 1_555
H6 C6 1_555 1_555
C7 N6 1_555 1_555
C8 H7 1_555 1_555
C9 C8 1_555 1_555
H8 C9 1_555 1_555
C10 N8 1_555 1_555
C11 H9 1_555 1_555
H10 C11 1_555 1_555
C12 H11 1_555 1_555
H12 C12 1_555 1_555
C13 N10 1_555 1_555
C14 H13 1_555 1_555
C15 C14 1_555 1_555
H14 C15 1_555 1_555
C16 N12 1_555 1_555
C17 H15 1_555 1_555
H16 C17 1_555 1_555
C18 H17 1_555 1_555
H18 C18 1_555 1_555
C19 N14 1_555 1_555
C20 H19 1_555 1_555
C21 C20 1_555 1_555
H20 C21 1_555 1_555
C22 N16 1_555 1_555
C23 H21 1_555 1_555
H22 C23 1_555 1_555
C24 H23 1_555 1_555
H24 C24 1_555 1_555
C25 N18 1_555 1_555
C26 H25 1_555 1_555
C27 C26 1_555 1_555
H26 C27 1_555 1_555
C28 N20 1_555 1_555
C29 H27 1_555 1_555
H28 C29 1_555 1_555
C30 H29 1_555 1_555
H30 C30 1_555 1_555
N2 C2 1_555 1_555
N3 C1 1_555 1_555
N4 C2 1_555 1_555
N5 C3 1_555 1_555
N6 C5 1_555 1_555
N7 C7 1_555 1_555
N8 C6 1_555 1_555
N9 C9 1_555 1_555
N10 C11 1_555 1_555
N11 C13 1_555 1_555
N12 C12 1_555 1_555
N13 C15 1_555 1_555
N14 C17 1_555 1_555
N15 C19 1_555 1_555
N16 C18 1_555 1_555
N17 C21 1_555 1_555
N18 C23 1_555 1_555
N19 C25 1_555 1_555
N20 C24 1_555 1_555
N21 C27 1_555 1_555
O8 C1 1_555 1_555
O9 Ca1 1_555 1_555
O10 Ca1 1_555 1_555
O11 Ca1 1_555 1_555
O12 C25 1_555 1_555
O13 Ca2 1_555 1_555
O14 Ca2 1_555 1_555
O15 Ca2 1_555 1_555
O16 Ca2 1_555 1_555
O17 Ca2 1_555 1_555
Cl2 Cd1 1_555 1_555
Cl3 Cd1 1_555 1_555
Cd1 Cl2A 1_555 1_555
O2_2 Ca2 1_555 1_555
O3_2 Ca2 1_555 1_555
Ca2_2 O2 1_555 1_555
Cl3A Cd1 1_555 1_555
O3 Ca2_2 1_555 1_555
C3 N3 1_555 1_555
C4 N5 1_555 1_555
C4 O13 1_555 1_555
C5 N3 1_555 1_555
C6 N5 1_555 1_555
C7 O9 1_555 1_555
C8 N6 1_555 1_555
C8 N8 1_555 1_555
C9 N7 1_555 1_555
C10 N9 1_555 1_555
C10 O14 1_555 1_555
C11 N7 1_555 1_555
C12 N9 1_555 1_555
C13 O10 1_555 1_555
C14 N10 1_555 1_555
C14 N12 1_555 1_555
C15 N11 1_555 1_555
C16 N13 1_555 1_555
C16 O15 1_555 1_555
C17 N11 1_555 1_555
C18 N13 1_555 1_555
C19 O11 1_555 1_555
C20 N14 1_555 1_555
C20 N16 1_555 1_555
C21 N15 1_555 1_555
C22 N17 1_555 1_555
C22 O16 1_555 1_555
C23 N15 1_555 1_555
C24 N17 1_555 1_555
C26 N18 1_555 1_555
C26 N20 1_555 1_555
C27 N19 1_555 1_555
C28 N21 1_555 1_555
C28 O17 1_555 1_555
C29 N2 1_555 1_555
C29 N19 1_555 1_555
C30 N4 1_555 1_555
C30 N21 1_555 1_555

#END
