
#######################################################################
#
#                 Cambridge Crystallographic Data Centre
#                                CCDC 
#
#######################################################################
#
# If this CIF has been generated from an entry in the Cambridge 
# Structural Database, then it will include bibliographic, chemical, 
# crystal, experimental, refinement or atomic coordinate data resulting 
# from the CCDC's data processing and validation procedures.
#
#######################################################################

data_BUBMOC
_symmetry_cell_setting           monoclinic
_symmetry_space_group_name_H-M   'C 2/m'
_symmetry_Int_Tables_number      12
_space_group_name_Hall           '-C 2y'
loop_
_symmetry_equiv_pos_site_id
_symmetry_equiv_pos_as_xyz
1 x,y,z
2 -x,y,-z
3 1/2+x,1/2+y,z
4 1/2-x,1/2+y,-z
5 -x,-y,-z
6 x,-y,z
7 1/2-x,1/2-y,-z
8 1/2+x,1/2-y,z
_cell_length_a                   24.5392(12)
_cell_length_b                   15.2910(8)
_cell_length_c                   14.0997(7)
_cell_angle_alpha                90
_cell_angle_beta                 97.236(2)
_cell_angle_gamma                90
_cell_volume                     5248.48
loop_
_atom_site_label
_atom_site_type_symbol
_atom_site_fract_x
_atom_site_fract_y
_atom_site_fract_z
Cl2 Cl 0.5000 0.1195(3) 0.0000
Cl3 Cl 0.5000 0.7396(9) -0.5000
O1 O 0.60346(17) 0.6159(3) -0.1623(3)
O2 O 0.8249(3) 0.5000 0.6366(5)
N1 N 0.7057(3) 0.5000 0.7153(4)
O3 O 0.7056(2) 0.5702(3) 0.6697(3)
O4 O 0.7090(3) 0.5000 0.8042(4)
Ba1 Ba 0.658096(16) 0.5000 -0.03102(3)
Ba2 Ba 0.73480(8) 0.5000 0.49279(9)
Cl1 Cl 0.70007(10) 0.5000 0.2585(2)
C1 C 0.8063(3) 0.5000 0.0742(5)
C2 C 0.86891(19) 0.4489(3) 0.2007(4)
H1 H 0.9056 0.4250 0.1928
C3 C 0.8452(3) 0.5000 0.3466(5)
C4 C 0.8138(2) 0.3406(3) 0.0877(4)
H2 H 0.8465 0.3032 0.0983
H3 H 0.8019 0.3424 0.0187
C5 C 0.85006(19) 0.3392(3) 0.3300(4)
H4 H 0.8780 0.3035 0.3046
H5 H 0.8591 0.3410 0.3997
C6 C 0.71719(19) 0.3030(3) 0.0957(3)
C7 C 0.77985(19) 0.2481(3) 0.2202(4)
H6 H 0.8045 0.1981 0.2120
C8 C 0.72074(19) 0.2178(3) 0.2339(4)
H7 H 0.7181 0.1532 0.2359
C9 C 0.7571(2) 0.3016(3) 0.3658(3)
C10 C 0.62870(19) 0.2415(3) 0.1289(4)
H8 H 0.6192 0.1831 0.1504
H9 H 0.6188 0.2438 0.0594
C11 C 0.6641(2) 0.2425(3) 0.3719(4)
H10 H 0.6500 0.1834 0.3571
H11 H 0.6751 0.2456 0.4411
C12 C 0.57464(17) 0.3778(3) 0.1259(3)
C13 C 0.57760(18) 0.2942(3) 0.2653(3)
H12 H 0.5570 0.2390 0.2691
C14 C 0.54068(18) 0.3756(3) 0.2729(3)
H13 H 0.5027 0.3586 0.2812
C15 C 0.61283(19) 0.3771(3) 0.3970(3)
C16 C 0.5130(3) 0.5000 0.1543(5)
H14 H 0.5045 0.5000 0.0845
H15 H 0.4781 0.5000 0.1812
C17 C 0.5476(3) 0.5000 0.3963(5)
H16 H 0.5074 0.5000 0.3847
H17 H 0.5583 0.5000 0.4656
N2 N 0.82862(16) 0.4277(3) 0.1202(3)
N3 N 0.85299(16) 0.4273(3) 0.2932(3)
N4 N 0.77063(16) 0.3019(3) 0.1350(3)
N5 N 0.68716(16) 0.2534(3) 0.1505(3)
N6 N 0.79739(16) 0.2970(3) 0.3072(3)
N7 N 0.71215(16) 0.2563(3) 0.3239(3)
N8 N 0.59603(16) 0.3058(3) 0.1727(3)
N9 N 0.54261(15) 0.4203(3) 0.1836(3)
N10 N 0.62037(16) 0.3046(3) 0.3461(3)
N11 N 0.56759(16) 0.4208(3) 0.3573(3)
O5 O 0.77213(19) 0.5000 0.0022(3)
O6 O 0.69909(14) 0.3389(2) 0.0203(2)
O7 O 0.58106(14) 0.3996(2) 0.0447(2)
O8 O 0.8358(2) 0.5000 0.4283(3)
O9 O 0.76155(14) 0.3379(2) 0.4437(2)
O10 O 0.64196(14) 0.3988(2) 0.4720(2)
O3E O 0.7056(2) 0.4298(3) 0.6697(3)
C2E C 0.86891(19) 0.5511(3) 0.2007(4)
H1E H 0.9056 0.5750 0.1928
C4E C 0.8138(2) 0.6594(3) 0.0877(4)
H2E H 0.8465 0.6968 0.0983
H3E H 0.8019 0.6576 0.0187
C5E C 0.85006(19) 0.6608(3) 0.3300(4)
H4E H 0.8780 0.6965 0.3046
H5E H 0.8591 0.6590 0.3997
C6E C 0.71719(19) 0.6970(3) 0.0957(3)
C7E C 0.77985(19) 0.7519(3) 0.2202(4)
H6E H 0.8045 0.8019 0.2120
C8E C 0.72074(19) 0.7822(3) 0.2339(4)
H7E H 0.7181 0.8468 0.2359
C9E C 0.7571(2) 0.6984(3) 0.3658(3)
C10E C 0.62870(19) 0.7585(3) 0.1289(4)
H8E H 0.6192 0.8169 0.1504
H9E H 0.6188 0.7562 0.0594
C11E C 0.6641(2) 0.7575(3) 0.3719(4)
H10E H 0.6500 0.8166 0.3571
H11E H 0.6751 0.7544 0.4411
C12E C 0.57464(17) 0.6222(3) 0.1259(3)
C13E C 0.57760(18) 0.7058(3) 0.2653(3)
H12E H 0.5570 0.7610 0.2691
C14E C 0.54068(18) 0.6244(3) 0.2729(3)
H13E H 0.5027 0.6414 0.2812
C15E C 0.61283(19) 0.6229(3) 0.3970(3)
N2E N 0.82862(16) 0.5723(3) 0.1202(3)
N3E N 0.85299(16) 0.5727(3) 0.2932(3)
N4E N 0.77063(16) 0.6981(3) 0.1350(3)
N5E N 0.68716(16) 0.7466(3) 0.1505(3)
N6E N 0.79739(16) 0.7030(3) 0.3072(3)
N7E N 0.71215(16) 0.7437(3) 0.3239(3)
N8E N 0.59603(16) 0.6942(3) 0.1727(3)
N9E N 0.54261(15) 0.5797(3) 0.1836(3)
N10E N 0.62037(16) 0.6954(3) 0.3461(3)
N11E N 0.56759(16) 0.5792(3) 0.3573(3)
O6E O 0.69909(14) 0.6611(2) 0.0203(2)
O7E O 0.58106(14) 0.6004(2) 0.0447(2)
O9E O 0.76155(14) 0.6621(2) 0.4437(2)
O10E O 0.64196(14) 0.6012(2) 0.4720(2)
O1E O 0.60346(17) 0.3841(3) -0.1623(3)
O4_2 O 0.7090(3) 0.5000 -0.1958(4)
Ba1_2 Ba 0.658096(16) 0.5000 0.96898(3)
Ba3? Ba 0.7297(4) 0.5000 0.4730(12)
Cl4? Cl 0.5000 0.095(2) 0.0000
Cl5? Cl 0.5236(13) 0.7958(15) -0.438(3)
loop_
_geom_bond_atom_site_label_1
_geom_bond_atom_site_label_2
_geom_bond_site_symmetry_1
_geom_bond_site_symmetry_2
O1 Ba1 1_555 1_555
O2 Ba2 1_555 1_555
N1 O3 1_555 1_555
O3 Ba2 1_555 1_555
O4 N1 1_555 1_555
Ba1 O5 1_555 1_555
Ba2 Cl1 1_555 1_555
C1 N2 1_555 1_555
C2 H1 1_555 1_555
C3 N3 1_555 1_555
C4 H2 1_555 1_555
H3 C4 1_555 1_555
C5 H4 1_555 1_555
H5 C5 1_555 1_555
C6 N4 1_555 1_555
C7 H6 1_555 1_555
C8 C7 1_555 1_555
H7 C8 1_555 1_555
C9 N6 1_555 1_555
C10 H8 1_555 1_555
H9 C10 1_555 1_555
C11 H10 1_555 1_555
H11 C11 1_555 1_555
C12 N8 1_555 1_555
C13 H12 1_555 1_555
C14 C13 1_555 1_555
H13 C14 1_555 1_555
C15 N10 1_555 1_555
C16 H14 1_555 1_555
H15 C16 1_555 1_555
C17 H16 1_555 1_555
H17 C17 1_555 1_555
N2 C2 1_555 1_555
N3 C2 1_555 1_555
N4 C4 1_555 1_555
N5 C6 1_555 1_555
N6 C5 1_555 1_555
N7 C8 1_555 1_555
N8 C10 1_555 1_555
N9 C12 1_555 1_555
N10 C11 1_555 1_555
N11 C14 1_555 1_555
O5 C1 1_555 1_555
O6 Ba1 1_555 1_555
O7 Ba1 1_555 1_555
O8 Ba2 1_555 1_555
O9 Ba2 1_555 1_555
O10 Ba2 1_555 1_555
O3E N1 1_555 1_555
C2E C2 1_555 1_555
H1E C2E 1_555 1_555
C4E H2E 1_555 1_555
H3E C4E 1_555 1_555
C5E H4E 1_555 1_555
H5E C5E 1_555 1_555
C6E N4E 1_555 1_555
C7E H6E 1_555 1_555
C8E C7E 1_555 1_555
H7E C8E 1_555 1_555
C9E N6E 1_555 1_555
C10E H8E 1_555 1_555
H9E C10E 1_555 1_555
C11E H10E 1_555 1_555
H11E C11E 1_555 1_555
C12E N8E 1_555 1_555
C13E H12E 1_555 1_555
C14E C13E 1_555 1_555
H13E C14E 1_555 1_555
C15E N10E 1_555 1_555
N2E C1 1_555 1_555
N3E C3 1_555 1_555
N4E C4E 1_555 1_555
N5E C6E 1_555 1_555
N6E C5E 1_555 1_555
N7E C8E 1_555 1_555
N8E C10E 1_555 1_555
N9E C16 1_555 1_555
N10E C11E 1_555 1_555
N11E C17 1_555 1_555
O6E Ba1 1_555 1_555
O7E Ba1 1_555 1_555
O9E Ba2 1_555 1_555
O10E Ba2 1_555 1_555
O1E Ba1 1_555 1_555
O4_2 Ba1 1_555 1_555
Ba1_2 O4 1_555 1_555
Ba2 O3E 1_555 1_555
C3 O8 1_555 1_555
C4 N2 1_555 1_555
C5 N3 1_555 1_555
C6 O6 1_555 1_555
C7 N4 1_555 1_555
C7 N6 1_555 1_555
C8 N5 1_555 1_555
C9 N7 1_555 1_555
C9 O9 1_555 1_555
C10 N5 1_555 1_555
C11 N7 1_555 1_555
C12 O7 1_555 1_555
C13 N8 1_555 1_555
C13 N10 1_555 1_555
C14 N9 1_555 1_555
C15 N11 1_555 1_555
C15 O10 1_555 1_555
C16 N9 1_555 1_555
C17 N11 1_555 1_555
C2E N2E 1_555 1_555
C2E N3E 1_555 1_555
C4E N2E 1_555 1_555
C5E N3E 1_555 1_555
C6E O6E 1_555 1_555
C7E N4E 1_555 1_555
C7E N6E 1_555 1_555
C8E N5E 1_555 1_555
C9E N7E 1_555 1_555
C9E O9E 1_555 1_555
C10E N5E 1_555 1_555
C11E N7E 1_555 1_555
C12E N9E 1_555 1_555
C12E O7E 1_555 1_555
C13E N8E 1_555 1_555
C13E N10E 1_555 1_555
C14E N9E 1_555 1_555
C14E N11E 1_555 1_555
C15E N11E 1_555 1_555
C15E O10E 1_555 1_555

#END
