
#######################################################################
#
#                 Cambridge Crystallographic Data Centre
#                                CCDC 
#
#######################################################################
#
# If this CIF has been generated from an entry in the Cambridge 
# Structural Database, then it will include bibliographic, chemical, 
# crystal, experimental, refinement or atomic coordinate data resulting 
# from the CCDC's data processing and validation procedures.
#
#######################################################################

data_BUBPUL
_symmetry_cell_setting           monoclinic
_symmetry_space_group_name_H-M   'P 21/c'
_symmetry_Int_Tables_number      14
_space_group_name_Hall           '-P 2ybc'
loop_
_symmetry_equiv_pos_site_id
_symmetry_equiv_pos_as_xyz
1 x,y,z
2 -x,1/2+y,1/2-z
3 -x,-y,-z
4 x,1/2-y,1/2+z
_cell_length_a                   8.4702(7)
_cell_length_b                   14.3385(13)
_cell_length_c                   17.1167(15)
_cell_angle_alpha                90
_cell_angle_beta                 103.967(2)
_cell_angle_gamma                90
_cell_volume                     2017.36
loop_
_atom_site_label
_atom_site_type_symbol
_atom_site_fract_x
_atom_site_fract_y
_atom_site_fract_z
Co1 Co 0.49113(5) 0.89773(3) 0.24792(3)
N1 N 0.4909(3) 0.7438(2) 0.25214(15)
N2 N 0.4991(3) 0.5496(2) 0.25434(16)
N3 N 0.5368(3) 0.8886(2) 0.13319(17)
N4 N 0.6582(3) 0.8793(2) 0.09553(17)
H1 H 0.7611 0.8810 0.1269
N5 N 0.4478(3) 0.9012(2) 0.36391(16)
N6 N 0.3251(3) 0.8999(2) 0.40118(17)
H2 H 0.2234 0.9035 0.3732
O1 O 0.1152(3) 0.9061(2) 0.04889(17)
O2 O 0.2579(3) 0.89962(18) 0.17591(15)
O3 O 0.7257(3) 0.89402(17) 0.31981(14)
O4 O 0.8667(3) 0.8622(2) 0.44424(15)
C1 C 0.3716(4) 0.6929(3) 0.2697(2)
H3 H 0.2832 0.7234 0.2815
C2 C 0.3754(4) 0.5973(2) 0.2708(2)
H4 H 0.2898 0.5647 0.2834
C3 C 0.6191(4) 0.6000(3) 0.2373(2)
H5 H 0.7079 0.5694 0.2260
C4 C 0.6146(4) 0.6954(3) 0.2360(2)
H6 H 0.7003 0.7278 0.2234
C5 C 0.2455(4) 0.8987(3) 0.1002(2)
C6 C 0.4016(4) 0.8899(2) 0.0749(2)
C7 C 0.4363(4) 0.8808(3) -0.0003(2)
H7 H 0.3626 0.8795 -0.0503
C8 C 0.6023(5) 0.8740(3) 0.0153(2)
C9 C 0.7172(5) 0.8629(3) -0.0383(2)
H8 H 0.8076 0.9046 -0.0210
H9 H 0.6617 0.8772 -0.0928
H10 H 0.7561 0.7998 -0.0353
C10 C 0.7372(4) 0.8795(2) 0.3944(2)
C11 C 0.5811(4) 0.8838(2) 0.4203(2)
C12 C 0.5443(4) 0.8718(3) 0.4949(2)
H11 H 0.6167 0.8590 0.5439
C13 C 0.3793(4) 0.8827(3) 0.4805(2)
C14 C 0.2656(5) 0.8765(3) 0.5351(2)
H12 H 0.1756 0.9180 0.5164
H13 H 0.3223 0.8937 0.5887
H14 H 0.2262 0.8137 0.5352
Co1A Co 0.50887(5) 0.39773(3) 0.25208(3)
N2A N 0.5009(3) 1.0496(2) 0.24566(16)
O5 O 0.9655(3) 0.68481(19) 0.68897(15)
H15 H 0.9764 0.7146 0.7308
H16 H 1.0400 0.6533 0.6800
O6 O 0.9289(4) 0.8551(2) 0.61288(18)
H17 H 0.9321 0.8605 0.5652
H18 H 0.8528 0.8214 0.6145
O7 O 0.9696(3) 0.02238(19) 0.68977(16)
H19 H 1.0404 0.0603 0.6870
H20 H 0.9704 -0.0306 0.6718
O8 O 1.0293(4) 0.7469(3) 0.3445(2)
H21 H 0.999(5) 0.776(3) 0.385(2)
H22 H 1.059(6) 0.699(4) 0.373(3)
O9 O 0.9433(4) 0.0547(3) 0.1338(2)
H23 H 1.0009 0.0474 0.1793
H24 H 0.9686 0.0326 0.0942
loop_
_geom_bond_atom_site_label_1
_geom_bond_atom_site_label_2
_geom_bond_site_symmetry_1
_geom_bond_site_symmetry_2
Co1 N1 1_555 1_555
N1 C1 1_555 1_555
N2 C2 1_555 1_555
N3 Co1 1_555 1_555
N4 N3 1_555 1_555
H1 N4 1_555 1_555
N5 Co1 1_555 1_555
N6 N5 1_555 1_555
H2 N6 1_555 1_555
O1 C5 1_555 1_555
O2 Co1 1_555 1_555
O3 Co1 1_555 1_555
O4 C10 1_555 1_555
C1 H3 1_555 1_555
C2 C1 1_555 1_555
H4 C2 1_555 1_555
C3 N2 1_555 1_555
H5 C3 1_555 1_555
C4 N1 1_555 1_555
H6 C4 1_555 1_555
C5 O2 1_555 1_555
C6 N3 1_555 1_555
C7 C6 1_555 1_555
H7 C7 1_555 1_555
C8 N4 1_555 1_555
C9 C8 1_555 1_555
H8 C9 1_555 1_555
H9 C9 1_555 1_555
H10 C9 1_555 1_555
C10 O3 1_555 1_555
C11 N5 1_555 1_555
C12 C11 1_555 1_555
H11 C12 1_555 1_555
C13 N6 1_555 1_555
C14 C13 1_555 1_555
H12 C14 1_555 1_555
H13 C14 1_555 1_555
H14 C14 1_555 1_555
O5 H15 1_555 1_555
H16 O5 1_555 1_555
O6 H17 1_555 1_555
H18 O6 1_555 1_555
O7 H19 1_555 1_555
H20 O7 1_555 1_555
O8 H21 1_555 1_555
H22 O8 1_555 1_555
O9 H23 1_555 1_555
H24 O9 1_555 1_555
Co1A N2 1_555 1_555
N2A Co1 1_555 1_555
C3 C4 1_555 1_555
C5 C6 1_555 1_555
C7 C8 1_555 1_555
C10 C11 1_555 1_555
C12 C13 1_555 1_555

#END
