
#######################################################################
#
#                 Cambridge Crystallographic Data Centre
#                                CCDC 
#
#######################################################################
#
# If this CIF has been generated from an entry in the Cambridge 
# Structural Database, then it will include bibliographic, chemical, 
# crystal, experimental, refinement or atomic coordinate data resulting 
# from the CCDC's data processing and validation procedures.
#
#######################################################################

data_BUBPAR
_symmetry_cell_setting           monoclinic
_symmetry_space_group_name_H-M   'C 2/c'
_symmetry_Int_Tables_number      15
_space_group_name_Hall           '-C 2yn'
loop_
_symmetry_equiv_pos_site_id
_symmetry_equiv_pos_as_xyz
1 x,y,z
2 -x,y,1/2-z
3 1/2+x,1/2+y,z
4 1/2-x,1/2+y,1/2-z
5 -x,-y,-z
6 x,-y,1/2+z
7 1/2-x,1/2-y,-z
8 1/2+x,1/2-y,1/2+z
_cell_length_a                   25.254(4)
_cell_length_b                   11.8035(19)
_cell_length_c                   21.375(3)
_cell_angle_alpha                90
_cell_angle_beta                 91.032(3)
_cell_angle_gamma                90
_cell_volume                     6370.55
loop_
_atom_site_label
_atom_site_type_symbol
_atom_site_fract_x
_atom_site_fract_y
_atom_site_fract_z
Cd1 Cd 1.070796(8) 0.836242(16) 0.012118(8)
C1 C 1.07444(11) 0.5447(3) -0.00811(13)
H1 H 1.0800 0.5464 -0.0510
C2 C 1.06306(11) 0.5976(2) 0.08567(13)
H2 H 1.0589 0.6421 0.1212
C3 C 1.06830(11) 0.4506(3) 0.02567(14)
H3 H 1.0687 0.3764 0.0110
C4 C 1.05217(12) 0.4130(3) 0.14043(15)
H4 H 1.0680 0.4489 0.1771
H5 H 1.0697 0.3407 0.1346
C5 C 0.99473(11) 0.3928(2) 0.15168(14)
H6 H 0.9779 0.3597 0.1148
H7 H 0.9905 0.3412 0.1865
C6 C 0.92023(11) 0.4982(2) 0.18692(12)
C7 C 0.90413(12) 0.5924(3) 0.21901(15)
H8 H 0.9269 0.6538 0.2236
C8 C 0.85432(12) 0.5966(2) 0.24451(15)
H9 H 0.8444 0.6611 0.2664
C9 C 0.81887(11) 0.5082(2) 0.23854(12)
C10 C 0.83572(10) 0.4165(2) 0.20374(12)
H10 H 0.8124 0.3563 0.1975
C11 C 0.88518(10) 0.4098(2) 0.17783(12)
H11 H 0.8948 0.3467 0.1546
C12 C 0.76407(11) 0.5058(2) 0.26777(13)
C13 C 0.75179(15) 0.6162(3) 0.30228(19)
H12 H 0.7772 0.6270 0.3357
H13 H 0.7169 0.6120 0.3192
H14 H 0.7536 0.6786 0.2736
C14 C 0.72209(12) 0.4910(3) 0.21462(15)
H15 H 0.7268 0.5488 0.1837
H16 H 0.6873 0.4970 0.2316
H17 H 0.7262 0.4178 0.1957
C15 C 0.76011(10) 0.4080(2) 0.31515(12)
C16 C 0.71230(11) 0.3680(3) 0.33460(15)
H18 H 0.6816 0.4005 0.3179
C17 C 0.70736(11) 0.2818(3) 0.37773(15)
H19 H 0.6740 0.2569 0.3891
C18 C 0.75189(11) 0.2330(2) 0.40380(12)
C19 C 0.80059(11) 0.2720(3) 0.38603(13)
H20 H 0.8312 0.2403 0.4033
C20 C 0.80418(11) 0.3580(3) 0.34278(14)
H21 H 0.8376 0.3834 0.3317
C21 C 0.70426(11) 0.0884(3) 0.45716(15)
H22 H 0.6915 0.0541 0.4185
H23 H 0.6773 0.1394 0.4723
C22 C 0.71678(12) -0.0013(3) 0.50513(15)
H24 H 0.7270 0.0347 0.5443
H25 H 0.6853 -0.0461 0.5124
C23 C 0.75754(14) -0.1588(3) 0.44105(16)
H26 H 0.7277 -0.1828 0.4186
C24 C 0.80649(14) -0.1993(3) 0.43601(14)
H27 H 0.8165 -0.2570 0.4091
C25 C 0.80945(12) -0.0694(2) 0.50447(14)
H28 H 0.8218 -0.0183 0.5345
C26 C 1.06516(12) 0.9431(3) 0.12992(13)
C27 C 1.06944(10) 0.9796(2) 0.19750(11)
C28 C 1.07476(13) 1.0912(2) 0.21363(12)
H29 H 1.0766 1.1461 0.1825
C29 C 1.06728(13) 0.9010(2) 0.24448(13)
H30 H 1.0642 0.8247 0.2343
C30 C 1.07484(11) 1.0805(3) 0.39054(12)
C31 C 1.07430(10) 1.0443(2) 0.32297(11)
C32 C 1.06959(12) 0.9327(2) 0.30665(12)
H31 H 1.0679 0.8777 0.3377
C33 C 1.07736(14) 1.1227(3) 0.27549(13)
H32 H 1.0813 1.1989 0.2855
N1 N 1.07141(9) 0.63868(19) 0.02956(10)
N2 N 1.06129(8) 0.48444(19) 0.08574(10)
N3 N 0.75927(9) -0.0756(2) 0.48524(11)
N4 N 0.83970(10) -0.1431(2) 0.47651(11)
O1 O 0.97128(8) 0.49911(16) 0.16534(10)
O2 O 0.75222(8) 0.14782(17) 0.44728(10)
O3 O 1.06230(12) 0.8397(2) 0.11877(11)
O4 O 1.06580(10) 1.0161(2) 0.08850(9)
O5 O 1.07522(10) 1.18434(17) 0.40275(9)
O6 O 1.07511(8) 1.00785(18) 0.43244(8)
O7 O 0.97855(9) 0.84408(18) 0.00011(11)
H33 H 0.9704(13) 0.878(3) -0.0387(16)
H34 H 0.9674(13) 0.885(3) 0.0317(16)
Cd1A Cd 0.929204(8) -0.163758(16) 0.487882(8)
Cd1E Cd 1.070796(8) 1.163758(16) 0.512118(8)
N4A N 1.16030(10) 0.8569(2) 0.02349(11)
O5E O 1.07522(10) 0.81566(17) -0.09725(9)
O6E O 1.07511(8) 0.99215(18) -0.06756(8)
loop_
_geom_bond_atom_site_label_1
_geom_bond_atom_site_label_2
_geom_bond_site_symmetry_1
_geom_bond_site_symmetry_2
Cd1 N1 1_555 1_555
C1 H1 1_555 1_555
C2 H2 1_555 1_555
C3 C1 1_555 1_555
H3 C3 1_555 1_555
C4 H4 1_555 1_555
H5 C4 1_555 1_555
C5 C4 1_555 1_555
H6 C5 1_555 1_555
H7 C5 1_555 1_555
C6 C7 1_555 1_555
C7 H8 1_555 1_555
C8 C7 1_555 1_555
H9 C8 1_555 1_555
C9 C8 1_555 1_555
C10 C9 1_555 1_555
H10 C10 1_555 1_555
C11 C6 1_555 1_555
H11 C11 1_555 1_555
C12 C9 1_555 1_555
C13 C12 1_555 1_555
H12 C13 1_555 1_555
H13 C13 1_555 1_555
H14 C13 1_555 1_555
C14 C12 1_555 1_555
H15 C14 1_555 1_555
H16 C14 1_555 1_555
H17 C14 1_555 1_555
C15 C12 1_555 1_555
C16 C15 1_555 1_555
H18 C16 1_555 1_555
C17 C16 1_555 1_555
H19 C17 1_555 1_555
C18 C17 1_555 1_555
C19 C18 1_555 1_555
H20 C19 1_555 1_555
C20 C15 1_555 1_555
H21 C20 1_555 1_555
C21 H22 1_555 1_555
H23 C21 1_555 1_555
C22 C21 1_555 1_555
H24 C22 1_555 1_555
H25 C22 1_555 1_555
C23 H26 1_555 1_555
C24 C23 1_555 1_555
H27 C24 1_555 1_555
C25 H28 1_555 1_555
C26 C27 1_555 1_555
C27 C28 1_555 1_555
C28 H29 1_555 1_555
C29 C27 1_555 1_555
H30 C29 1_555 1_555
C30 C31 1_555 1_555
C31 C32 1_555 1_555
C32 C29 1_555 1_555
H31 C32 1_555 1_555
C33 C28 1_555 1_555
H32 C33 1_555 1_555
N1 C1 1_555 1_555
N2 C2 1_555 1_555
N3 C22 1_555 1_555
N4 C24 1_555 1_555
O1 C5 1_555 1_555
O2 C18 1_555 1_555
O3 Cd1 1_555 1_555
O4 Cd1 1_555 1_555
O5 C30 1_555 1_555
O6 C30 1_555 1_555
O7 Cd1 1_555 1_555
H33 O7 1_555 1_555
H34 O7 1_555 1_555
Cd1A N4 1_555 1_555
Cd1E O5 1_555 1_555
N4A Cd1 1_555 1_555
O5E Cd1 1_555 1_555
O6E Cd1 1_555 1_555
C2 N1 1_555 1_555
C3 N2 1_555 1_555
C4 N2 1_555 1_555
C6 O1 1_555 1_555
C10 C11 1_555 1_555
C19 C20 1_555 1_555
C21 O2 1_555 1_555
C23 N3 1_555 1_555
C25 N3 1_555 1_555
C25 N4 1_555 1_555
C26 O3 1_555 1_555
C26 O4 1_555 1_555
C31 C33 1_555 1_555
O6 Cd1E 1_555 1_555

#END
