
#######################################################################
#
#                 Cambridge Crystallographic Data Centre
#                                CCDC 
#
#######################################################################
#
# If this CIF has been generated from an entry in the Cambridge 
# Structural Database, then it will include bibliographic, chemical, 
# crystal, experimental, refinement or atomic coordinate data resulting 
# from the CCDC's data processing and validation procedures.
#
#######################################################################

data_BUBQAS
_symmetry_cell_setting           monoclinic
_symmetry_space_group_name_H-M   'P 21/n'
_symmetry_Int_Tables_number      14
_space_group_name_Hall           '-P 2yn'
loop_
_symmetry_equiv_pos_site_id
_symmetry_equiv_pos_as_xyz
1 x,y,z
2 1/2-x,1/2+y,1/2-z
3 -x,-y,-z
4 1/2+x,1/2-y,1/2+z
_cell_length_a                   13.2385(13)
_cell_length_b                   18.0524(18)
_cell_length_c                   14.9341(15)
_cell_angle_alpha                90
_cell_angle_beta                 105.8220(10)
_cell_angle_gamma                90
_cell_volume                     3433.83
loop_
_atom_site_label
_atom_site_type_symbol
_atom_site_fract_x
_atom_site_fract_y
_atom_site_fract_z
Ca1 Ca 0.62046(4) 0.66822(3) 0.77796(4)
S1 S 0.81421(6) 0.70113(4) 0.51060(5)
S2 S 0.87417(7) 0.71256(4) 0.39912(6)
O1 O 0.80393(18) 0.68060(18) 0.79904(16)
O2 O 0.72415(15) 0.69412(13) 0.65200(15)
O3 O 1.0292(3) 0.71217(15) 0.22988(18)
O4 O 1.1150(2) 0.72170(14) 0.37276(19)
N1 N 0.69089(18) 0.62505(13) 0.94510(16)
N2 N 0.48005(18) 0.61643(12) 0.85633(16)
N3 N 0.47602(18) 0.62245(13) 0.63983(16)
N4 N 0.63622(18) 0.53397(12) 0.73579(17)
C1 C 0.8056(2) 0.69203(15) 0.7175(2)
C2 C 0.9108(2) 0.70440(14) 0.6995(2)
C3 C 0.9977(2) 0.71107(16) 0.7766(2)
H1 H 0.9887 0.7084 0.8361
C4 C 1.0974(2) 0.72162(18) 0.7657(3)
H2 H 1.1547 0.7270 0.8176
C5 C 1.1109(2) 0.72402(18) 0.6778(3)
H3 H 1.1780 0.7300 0.6706
C6 C 1.0273(2) 0.71778(16) 0.6008(2)
H4 H 1.0380 0.7194 0.5419
C7 C 0.9257(2) 0.70892(13) 0.6102(2)
C8 C 0.9222(2) 0.62318(15) 0.37986(18)
C9 C 0.8787(3) 0.55783(16) 0.4019(2)
H5 H 0.8265 0.5598 0.4327
C10 C 0.9123(3) 0.49044(17) 0.3784(3)
H6 H 0.8840 0.4470 0.3947
C11 C 0.9864(3) 0.48694(17) 0.3316(3)
H7 H 1.0082 0.4411 0.3152
C12 C 1.0304(3) 0.55153(17) 0.3077(2)
H8 H 1.0804 0.5485 0.2746
C13 C 1.0004(2) 0.62019(14) 0.33278(18)
C14 C 1.0515(2) 0.68906(15) 0.3096(2)
C15 C 0.7923(3) 0.62795(19) 0.9888(2)
H9 H 0.8390 0.6375 0.9537
C16 C 0.8331(3) 0.6175(2) 1.0847(2)
H10 H 0.9051 0.6198 1.1124
C17 C 0.7655(3) 0.60389(19) 1.1363(2)
H11 H 0.7910 0.5967 1.2001
C18 C 0.6586(3) 0.60055(16) 1.0943(2)
C19 C 0.5832(3) 0.58587(19) 1.1449(2)
H12 H 0.6061 0.5794 1.2091
C20 C 0.4805(3) 0.58120(19) 1.1020(2)
H13 H 0.4334 0.5718 1.1368
C21 C 0.4423(3) 0.59043(15) 1.0040(2)
C22 C 0.3350(3) 0.58469(17) 0.9565(3)
H14 H 0.2860 0.5753 0.9893
C23 C 0.3037(3) 0.59281(17) 0.8633(3)
H15 H 0.2332 0.5876 0.8311
C24 C 0.3783(2) 0.60921(17) 0.8157(2)
H16 H 0.3551 0.6155 0.7516
C25 C 0.5124(2) 0.60628(14) 0.95058(19)
C26 C 0.6232(2) 0.61104(14) 0.99678(19)
C27 C 0.3971(3) 0.6651(2) 0.5919(2)
H17 H 0.4004 0.7158 0.6037
C28 C 0.3097(3) 0.6372(3) 0.5247(2)
H18 H 0.2560 0.6686 0.4935
C29 C 0.3051(3) 0.5637(3) 0.5062(2)
H19 H 0.2477 0.5444 0.4618
C30 C 0.3859(3) 0.5166(2) 0.5533(2)
C31 C 0.3883(3) 0.4384(2) 0.5345(3)
H20 H 0.3335 0.4172 0.4890
C32 C 0.4679(4) 0.3954(2) 0.5816(3)
H21 H 0.4666 0.3450 0.5687
C33 C 0.5542(3) 0.42567(17) 0.6507(2)
C34 C 0.6407(3) 0.38273(19) 0.6984(3)
H22 H 0.6428 0.3323 0.6861
C35 C 0.7212(3) 0.4153(2) 0.7625(3)
H23 H 0.7792 0.3876 0.7942
C36 C 0.7160(3) 0.49106(18) 0.7802(2)
H24 H 0.7710 0.5125 0.8252
C37 C 0.5556(2) 0.50201(15) 0.6715(2)
C38 C 0.4707(2) 0.54865(16) 0.62122(19)
Ca1C Ca 1.12046(4) 0.83178(3) 0.27796(4)
O3C O 0.5292(3) 0.78783(15) 0.72988(18)
O4C O 0.6150(2) 0.77830(14) 0.87276(19)
O5 O 0.5795(3) 0.8023(2) 0.5473(2)
H25 H 0.567(4) 0.803(4) 0.5998(19)
H26 H 0.636(3) 0.780(3) 0.550(3)
O6 O 0.0970(12) 0.5490(7) 1.0174(9)
O7? O 0.0475(12) 0.5606(7) 0.9469(9)
loop_
_geom_bond_atom_site_label_1
_geom_bond_atom_site_label_2
_geom_bond_site_symmetry_1
_geom_bond_site_symmetry_2
Ca1 O1 1_555 1_555
S1 S2 1_555 1_555
S2 C8 1_555 1_555
O1 C1 1_555 1_555
O2 Ca1 1_555 1_555
O3 C14 1_555 1_555
O4 C14 1_555 1_555
N1 Ca1 1_555 1_555
N2 Ca1 1_555 1_555
N3 Ca1 1_555 1_555
N4 Ca1 1_555 1_555
C1 O2 1_555 1_555
C2 C1 1_555 1_555
C3 C2 1_555 1_555
H1 C3 1_555 1_555
C4 C3 1_555 1_555
H2 C4 1_555 1_555
C5 C4 1_555 1_555
H3 C5 1_555 1_555
C6 C5 1_555 1_555
H4 C6 1_555 1_555
C7 S1 1_555 1_555
C8 C9 1_555 1_555
C9 H5 1_555 1_555
C10 C9 1_555 1_555
H6 C10 1_555 1_555
C11 C10 1_555 1_555
H7 C11 1_555 1_555
C12 C11 1_555 1_555
H8 C12 1_555 1_555
C13 C8 1_555 1_555
C14 C13 1_555 1_555
C15 N1 1_555 1_555
H9 C15 1_555 1_555
C16 C15 1_555 1_555
H10 C16 1_555 1_555
C17 C16 1_555 1_555
H11 C17 1_555 1_555
C18 C17 1_555 1_555
C19 C18 1_555 1_555
H12 C19 1_555 1_555
C20 C19 1_555 1_555
H13 C20 1_555 1_555
C21 C20 1_555 1_555
C22 C21 1_555 1_555
H14 C22 1_555 1_555
C23 C22 1_555 1_555
H15 C23 1_555 1_555
C24 N2 1_555 1_555
H16 C24 1_555 1_555
C25 N2 1_555 1_555
C26 N1 1_555 1_555
C27 N3 1_555 1_555
H17 C27 1_555 1_555
C28 C27 1_555 1_555
H18 C28 1_555 1_555
C29 C28 1_555 1_555
H19 C29 1_555 1_555
C30 C29 1_555 1_555
C31 C30 1_555 1_555
H20 C31 1_555 1_555
C32 C31 1_555 1_555
H21 C32 1_555 1_555
C33 C32 1_555 1_555
C34 C33 1_555 1_555
H22 C34 1_555 1_555
C35 C34 1_555 1_555
H23 C35 1_555 1_555
C36 N4 1_555 1_555
H24 C36 1_555 1_555
C37 N4 1_555 1_555
C38 N3 1_555 1_555
O5 H25 1_555 1_555
H26 O5 1_555 1_555
Ca1C O3 1_555 1_555
O3C Ca1 1_555 1_555
O4C Ca1 1_555 1_555
O4 Ca1C 1_555 1_555
C2 C7 1_555 1_555
C6 C7 1_555 1_555
C12 C13 1_555 1_555
C18 C26 1_555 1_555
C21 C25 1_555 1_555
C23 C24 1_555 1_555
C25 C26 1_555 1_555
C30 C38 1_555 1_555
C33 C37 1_555 1_555
C35 C36 1_555 1_555
C37 C38 1_555 1_555

#END
