
#######################################################################
#
#                 Cambridge Crystallographic Data Centre
#                                CCDC 
#
#######################################################################
#
# If this CIF has been generated from an entry in the Cambridge 
# Structural Database, then it will include bibliographic, chemical, 
# crystal, experimental, refinement or atomic coordinate data resulting 
# from the CCDC's data processing and validation procedures.
#
#######################################################################

data_BUBRIB
_symmetry_cell_setting           monoclinic
_symmetry_space_group_name_H-M   'C 2/c'
_symmetry_Int_Tables_number      15
_space_group_name_Hall           '-C 2yn'
loop_
_symmetry_equiv_pos_site_id
_symmetry_equiv_pos_as_xyz
1 x,y,z
2 -x,y,1/2-z
3 1/2+x,1/2+y,z
4 1/2-x,1/2+y,1/2-z
5 -x,-y,-z
6 x,-y,1/2+z
7 1/2-x,1/2-y,-z
8 1/2+x,1/2-y,1/2+z
_cell_length_a                   15.2911(3)
_cell_length_b                   10.2842(2)
_cell_length_c                   12.3469(3)
_cell_angle_alpha                90
_cell_angle_beta                 103.091(2)
_cell_angle_gamma                90
_cell_volume                     1891.17
loop_
_atom_site_label
_atom_site_type_symbol
_atom_site_fract_x
_atom_site_fract_y
_atom_site_fract_z
Eu1 Eu 0.034083(15) 0.19835(2) 0.000520(17)
O1 O 0.0642(2) 0.4008(3) 0.1017(2)
O2 O 0.0403(2) 0.6154(3) 0.1021(2)
O3 O 0.1945(2) 0.1992(3) 0.1118(3)
O4 O 0.0907(2) 0.1217(3) 0.1912(2)
O5 O 0.1057(2) 0.2220(3) 0.4352(3)
O6 O 0.0769(2) 0.0164(3) 0.4577(3)
O7 O 0.1265(2) 0.2835(3) -0.1237(3)
O8 O -0.0655(3) 0.1389(3) -0.1722(3)
C1 C 0.0299(3) 0.5054(4) 0.0586(4)
C2 C 0.1720(3) 0.1569(4) 0.1982(4)
C3 C 0.2384(3) 0.1529(5) 0.3083(4)
H1 H 0.2467 0.2422 0.3389
H2 H 0.2970 0.1230 0.2963
C4 C 0.2106(3) 0.0645(5) 0.3936(4)
H3 H 0.2023 -0.0245 0.3625
H4 H 0.2605 0.0612 0.4606
C5 C 0.1260(3) 0.1038(4) 0.4290(3)
H5 H 0.109(3) 0.362(2) -0.138(4)
H6 H -0.085(3) 0.186(4) -0.230(2)
H7 H -0.071(3) 0.0585(16) -0.190(4)
H8 H 0.1841(8) 0.288(4) -0.105(4)
O1D O -0.0642(2) 0.5992(3) -0.1017(2)
O2D O -0.0403(2) 0.3846(3) -0.1021(2)
C1D C -0.0299(3) 0.4946(4) -0.0586(4)
Eu1A Eu -0.034083(15) 0.19835(2) 0.499480(17)
O3A O -0.1945(2) 0.1992(3) 0.3882(3)
O4A O -0.0907(2) 0.1217(3) 0.3088(2)
O5A O -0.1057(2) 0.2220(3) 0.0648(3)
O6A O -0.0769(2) 0.0164(3) 0.0423(3)
O7A O -0.1265(2) 0.2835(3) 0.6237(3)
O8A O 0.0655(3) 0.1389(3) 0.6722(3)
C2A C -0.1720(3) 0.1569(4) 0.3018(4)
C3A C -0.2384(3) 0.1529(5) 0.1917(4)
H1A H -0.2467 0.2422 0.1611
H2A H -0.2970 0.1230 0.2037
C4A C -0.2106(3) 0.0645(5) 0.1064(4)
H3A H -0.2023 -0.0245 0.1375
H4A H -0.2605 0.0612 0.0394
C5A C -0.1260(3) 0.1038(4) 0.0710(3)
H5A H -0.109(3) 0.362(2) 0.638(4)
H6A H 0.085(3) 0.186(4) 0.730(2)
H7A H 0.071(3) 0.0585(16) 0.690(4)
H8A H -0.1841(8) 0.288(4) 0.605(4)
Eu1D Eu -0.034083(15) -0.19835(2) -0.000520(17)
Eu1D_2 Eu -0.034083(15) 0.80165(2) -0.000520(17)
Eu1E Eu 0.034083(15) -0.19835(2) 0.500520(17)
O1A O -0.0642(2) 0.4008(3) 0.3983(2)
O2E O 0.0403(2) 0.3846(3) 0.6021(2)
O6D O -0.0769(2) -0.0164(3) 0.5423(3)
O6E O 0.0769(2) -0.0164(3) -0.0423(3)
O9 O 0.1301(3) 0.5424(3) -0.1693(3)
H9 H 0.119(3) 0.614(3) -0.140(4)
H10 H 0.100(3) 0.552(5) -0.2362(16)
loop_
_geom_bond_atom_site_label_1
_geom_bond_atom_site_label_2
_geom_bond_site_symmetry_1
_geom_bond_site_symmetry_2
Eu1 O1 1_555 1_555
O1 C1 1_555 1_555
O2 C1 1_555 1_555
O3 Eu1 1_555 1_555
O4 Eu1 1_555 1_555
O5 C5 1_555 1_555
O6 C5 1_555 1_555
O7 Eu1 1_555 1_555
O8 Eu1 1_555 1_555
C1 C1D 1_555 1_555
C2 O3 1_555 1_555
C3 C2 1_555 1_555
H1 C3 1_555 1_555
H2 C3 1_555 1_555
C4 C3 1_555 1_555
H3 C4 1_555 1_555
H4 C4 1_555 1_555
C5 C4 1_555 1_555
H5 O7 1_555 1_555
H6 O8 1_555 1_555
H7 O8 1_555 1_555
H8 O7 1_555 1_555
O9 H9 1_555 1_555
H10 O9 1_555 1_555
O1D C1D 1_555 1_555
O2D Eu1 1_555 1_555
C1D O2D 1_555 1_555
Eu1A O5 1_555 1_555
O3A Eu1A 1_555 1_555
O4A Eu1A 1_555 1_555
O5A Eu1 1_555 1_555
O6A Eu1 1_555 1_555
O7A Eu1A 1_555 1_555
O8A Eu1A 1_555 1_555
C2A O3A 1_555 1_555
C3A C2A 1_555 1_555
H1A C3A 1_555 1_555
H2A C3A 1_555 1_555
C4A C3A 1_555 1_555
H3A C4A 1_555 1_555
H4A C4A 1_555 1_555
C5A O5A 1_555 1_555
H5A O7A 1_555 1_555
H6A O8A 1_555 1_555
H7A O8A 1_555 1_555
H8A O7A 1_555 1_555
Eu1D O6A 1_555 1_555
Eu1D_2 O2 1_555 1_555
Eu1E O6 1_555 1_555
O1A Eu1A 1_555 1_555
O2E Eu1A 1_555 1_555
O6D Eu1A 1_555 1_555
O6E Eu1 1_555 1_555
O4 C2 1_555 1_555
O6 Eu1A 1_555 1_555
O1D Eu1D_2 1_555 1_555
O4A C2A 1_555 1_555
O6A C5A 1_555 1_555
C4A C5A 1_555 1_555
Eu1D O6E 1_555 1_555
Eu1E O6D 1_555 1_555

#END
