
#######################################################################
#
#                 Cambridge Crystallographic Data Centre
#                                CCDC 
#
#######################################################################
#
# If this CIF has been generated from an entry in the Cambridge 
# Structural Database, then it will include bibliographic, chemical, 
# crystal, experimental, refinement or atomic coordinate data resulting 
# from the CCDC's data processing and validation procedures.
#
#######################################################################

data_BUBRUN
_symmetry_cell_setting           triclinic
_symmetry_space_group_name_H-M   'P -1'
_symmetry_Int_Tables_number      2
_space_group_name_Hall           '-P 1'
loop_
_symmetry_equiv_pos_site_id
_symmetry_equiv_pos_as_xyz
1 x,y,z
2 -x,-y,-z
_cell_length_a                   9.061(19)
_cell_length_b                   9.16(2)
_cell_length_c                   14.03(3)
_cell_angle_alpha                75.85(4)
_cell_angle_beta                 86.93(5)
_cell_angle_gamma                81.17(2)
_cell_volume                     1115.6
loop_
_atom_site_label
_atom_site_type_symbol
_atom_site_fract_x
_atom_site_fract_y
_atom_site_fract_z
Br1 Br 0.35638(4) 0.37505(5) -0.01325(4)
Cu1 Cu 0.28422(5) 0.66588(5) 0.23810(4)
Br2 Br 0.10543(5) 0.14752(5) -0.01051(4)
Br3 Br 0.12234(5) 1.30877(5) 0.51869(4)
Br4 Br 0.32557(5) 1.06707(5) 0.40307(4)
N1 N 0.5864(4) 0.3160(4) 0.3930(3)
H1 H 0.6316 0.2735 0.4473
N2 N 0.4329(4) 0.4718(4) 0.2878(3)
C1 C 0.5182(5) 0.3718(5) 0.2419(3)
H2 H 0.5115 0.3706 0.1761
C2 C 0.4776(5) 0.4333(5) 0.3784(3)
H3 H 0.4381 0.4821 0.4269
C3 C 0.6130(5) 0.2755(5) 0.3066(4)
H4 H 0.6832 0.1966 0.2944
O1 O 0.1472(3) 0.8261(3) 0.2997(2)
N3 N 0.4420(3) 0.7972(4) 0.2187(2)
O2 O 0.2669(3) 0.6958(3) 0.4346(2)
O3 O 0.2471(3) 0.7880(3) -0.0813(2)
N4 N 0.1155(3) 0.5538(4) 0.2489(2)
C4 C 0.1075(4) 0.5976(4) 0.0011(3)
C5 C 0.2223(4) 0.7040(4) -0.0001(3)
C6 C 0.1371(4) 1.0321(4) 0.4575(3)
O4 O 0.2823(3) 0.7012(4) 0.0764(2)
C7 C 0.05489(19) 1.1285(2) 0.50899(14)
C8 C 0.17397(13) 0.79700(15) 0.39021(9)
C9 C 0.15053(16) 0.44728(18) -0.00339(10)
C10 C 0.55292(12) 0.79189(15) 0.28164(11)
H5 H 0.5709 0.7206 0.3411
C11 C -0.03251(11) 0.61055(15) 0.25108(10)
H6 H -0.0706 0.7105 0.2518
C12 C 0.08226(15) 0.90272(17) 0.44690(11)
N5 N -0.01551(14) 0.37375(16) 0.25047(11)
H7 H -0.0373 0.2855 0.2508
C13 C 0.45501(14) 0.91588(13) 0.14695(11)
H8 H 0.3922 0.9492 0.0933
C14 C 0.12033(13) 0.41008(13) 0.24836(9)
H9 H 0.2078 0.3427 0.2467
C15 C -0.11479(12) 0.50030(17) 0.25195(12)
H10 H -0.2184 0.5088 0.2533
C16 C 0.04530(17) 0.3519(2) -0.00468(12)
C17 C 0.63243(13) 0.90597(16) 0.24430(13)
H11 H 0.7155 0.9264 0.2722
N6 N 0.57015(15) 0.98363(15) 0.16038(13)
H12 H 0.5985 1.0630 0.1216
Br1A Br -0.35638(4) 0.62495(5) 0.01325(4)
Br2A Br -0.10543(5) 0.85248(5) 0.01051(4)
O3A O -0.2471(3) 0.2120(3) 0.0813(2)
C4A C -0.1075(4) 0.4024(4) -0.0011(3)
C5A C -0.2223(4) 0.2960(4) 0.0001(3)
O4A O -0.2823(3) 0.2988(4) -0.0764(2)
C9A C -0.15053(16) 0.55272(18) 0.00339(10)
C16A C -0.04530(17) 0.6481(2) 0.00468(12)
Br3A Br -0.12234(5) 0.69123(5) 0.48131(4)
Br4A Br -0.32557(5) 0.93293(5) 0.59693(4)
O1A O -0.1472(3) 1.1739(3) 0.7003(2)
O2A O -0.2669(3) 1.3042(3) 0.5654(2)
C6A C -0.1371(4) 0.9679(4) 0.5425(3)
C7A C -0.05489(19) 0.8715(2) 0.49101(14)
C8A C -0.17397(13) 1.20300(15) 0.60979(9)
C12A C -0.08226(15) 1.09728(17) 0.55310(11)
Cu1A Cu -0.28422(5) 0.33412(5) -0.23810(4)
N1A N -0.5864(4) 0.6840(4) -0.3930(3)
H1A H -0.6316 0.7265 -0.4473
N2A N -0.4329(4) 0.5282(4) -0.2878(3)
C1A C -0.5182(5) 0.6282(5) -0.2419(3)
H2A H -0.5115 0.6294 -0.1761
C2A C -0.4776(5) 0.5667(5) -0.3784(3)
H3A H -0.4381 0.5179 -0.4269
C3A C -0.6130(5) 0.7245(5) -0.3066(4)
H4A H -0.6832 0.8034 -0.2944
N3A N -0.4420(3) 0.2028(4) -0.2187(2)
N4A N -0.1155(3) 0.4462(4) -0.2489(2)
C10A C -0.55292(12) 0.20811(15) -0.28164(11)
H5A H -0.5709 0.2794 -0.3411
C11A C 0.03251(11) 0.38945(15) -0.25108(10)
H6A H 0.0706 0.2895 -0.2518
N5A N 0.01551(14) 0.62625(16) -0.25047(11)
H7A H 0.0373 0.7145 -0.2508
C13A C -0.45501(14) 0.08412(13) -0.14695(11)
H8A H -0.3922 0.0508 -0.0933
C14A C -0.12033(13) 0.58992(13) -0.24836(9)
H9A H -0.2078 0.6573 -0.2467
C15A C 0.11479(12) 0.49970(17) -0.25195(12)
H10A H 0.2184 0.4912 -0.2533
C17A C -0.63243(13) 0.09403(16) -0.24430(13)
H11A H -0.7155 0.0736 -0.2722
N6A N -0.57015(15) 0.01637(15) -0.16038(13)
H12A H -0.5985 -0.0630 -0.1216
Cu1A_2 Cu -0.28422(5) 1.33412(5) 0.76190(4)
O1A_2 O -0.1472(3) 0.1739(3) -0.2997(2)
O5 O 0.93145(16) 0.0850(2) 0.24090(17)
H13 H 0.9850 -0.0017 0.2485
H14 H 0.9102 0.1200 0.1805
loop_
_geom_bond_atom_site_label_1
_geom_bond_atom_site_label_2
_geom_bond_site_symmetry_1
_geom_bond_site_symmetry_2
Br1 C9 1_555 1_555
Cu1 N2 1_555 1_555
Br2 C16 1_555 1_555
Br3 C7 1_555 1_555
Br4 C6 1_555 1_555
N1 H1 1_555 1_555
N2 C1 1_555 1_555
C1 H2 1_555 1_555
C2 N1 1_555 1_555
H3 C2 1_555 1_555
C3 N1 1_555 1_555
H4 C3 1_555 1_555
O1 Cu1 1_555 1_555
N3 Cu1 1_555 1_555
O2 C8 1_555 1_555
O3 C5 1_555 1_555
N4 Cu1 1_555 1_555
C4 C5 1_555 1_555
C5 O4 1_555 1_555
C6 C7 1_555 1_555
O4 Cu1 1_555 1_555
C7 C12A 1_555 1_555
C8 O1 1_555 1_555
C9 C4 1_555 1_555
C10 N3 1_555 1_555
H5 C10 1_555 1_555
C11 N4 1_555 1_555
H6 C11 1_555 1_555
C12 C6 1_555 1_555
N5 H7 1_555 1_555
C13 N3 1_555 1_555
H8 C13 1_555 1_555
C14 N4 1_555 1_555
H9 C14 1_555 1_555
C15 C11 1_555 1_555
H10 C15 1_555 1_555
C16 C9 1_555 1_555
C17 C10 1_555 1_555
H11 C17 1_555 1_555
N6 C13 1_555 1_555
H12 N6 1_555 1_555
O5 H13 1_555 1_555
H14 O5 1_555 1_555
Br1A C9A 1_555 1_555
Br2A C16A 1_555 1_555
O3A C5A 1_555 1_555
C4A C16 1_555 1_555
C5A C4A 1_555 1_555
O4A C5A 1_555 1_555
C9A C4A 1_555 1_555
C16A C4 1_555 1_555
Br3A C7A 1_555 1_555
Br4A C6A 1_555 1_555
O1A C8A 1_555 1_555
O2A C8A 1_555 1_555
C6A C7A 1_555 1_555
C7A C12 1_555 1_555
C8A C12A 1_555 1_555
C12A C6A 1_555 1_555
Cu1A O4A 1_555 1_555
N1A H1A 1_555 1_555
N2A Cu1A 1_555 1_555
C1A N2A 1_555 1_555
H2A C1A 1_555 1_555
C2A N1A 1_555 1_555
H3A C2A 1_555 1_555
C3A N1A 1_555 1_555
H4A C3A 1_555 1_555
N3A Cu1A 1_555 1_555
N4A Cu1A 1_555 1_555
C10A N3A 1_555 1_555
H5A C10A 1_555 1_555
C11A N4A 1_555 1_555
H6A C11A 1_555 1_555
N5A H7A 1_555 1_555
C13A N3A 1_555 1_555
H8A C13A 1_555 1_555
C14A N4A 1_555 1_555
H9A C14A 1_555 1_555
C15A C11A 1_555 1_555
H10A C15A 1_555 1_555
C17A C10A 1_555 1_555
H11A C17A 1_555 1_555
N6A C13A 1_555 1_555
H12A N6A 1_555 1_555
Cu1A_2 O1A 1_555 1_555
O1A_2 Cu1A 1_555 1_555
N2 C2 1_555 1_555
C1 C3 1_555 1_555
C8 C12 1_555 1_555
N5 C14 1_555 1_555
N5 C15 1_555 1_555
C17 N6 1_555 1_555
C9A C16A 1_555 1_555
N2A C2A 1_555 1_555
C1A C3A 1_555 1_555
N5A C14A 1_555 1_555
N5A C15A 1_555 1_555
C17A N6A 1_555 1_555

#END
