
#######################################################################
#
#                 Cambridge Crystallographic Data Centre
#                                CCDC 
#
#######################################################################
#
# If this CIF has been generated from an entry in the Cambridge 
# Structural Database, then it will include bibliographic, chemical, 
# crystal, experimental, refinement or atomic coordinate data resulting 
# from the CCDC's data processing and validation procedures.
#
#######################################################################

data_BUBROH
_symmetry_cell_setting           monoclinic
_symmetry_space_group_name_H-M   'C 2/c'
_symmetry_Int_Tables_number      15
_space_group_name_Hall           '-C 2yn'
loop_
_symmetry_equiv_pos_site_id
_symmetry_equiv_pos_as_xyz
1 x,y,z
2 -x,y,1/2-z
3 1/2+x,1/2+y,z
4 1/2-x,1/2+y,1/2-z
5 -x,-y,-z
6 x,-y,1/2+z
7 1/2-x,1/2-y,-z
8 1/2+x,1/2-y,1/2+z
_cell_length_a                   16.3645(2)
_cell_length_b                   12.2998(2)
_cell_length_c                   13.7269(2)
_cell_angle_alpha                90
_cell_angle_beta                 97.6140(10)
_cell_angle_gamma                90
_cell_volume                     2738.59
loop_
_atom_site_label
_atom_site_type_symbol
_atom_site_fract_x
_atom_site_fract_y
_atom_site_fract_z
Co1 Co 0.5000 0.19796(3) 0.2500
O1 O 0.56555(10) 0.30767(12) 0.34772(11)
O2 O 0.44247(10) 0.07430(13) 0.16107(12)
N1 N 0.59686(10) 0.21170(15) 0.15797(13)
C1 C 0.62865(13) 0.30983(17) 0.14426(16)
H1 H 0.6093 0.3700 0.1781
C2 C 0.68814(13) 0.32849(18) 0.08339(15)
H2 H 0.7087 0.3999 0.0762
C3 C 0.62510(14) 0.12923(18) 0.10974(18)
H3 H 0.6032 0.0589 0.1183
C4 C 0.68496(15) 0.14018(18) 0.04741(18)
H4 H 0.7034 0.0784 0.0150
C5 C 0.71764(11) 0.24226(17) 0.03286(13)
H5 H 0.4350 0.0214 0.1839
H6 H 0.5660 0.3685 0.3481
H7 H 0.4042 0.0893 0.1184
H8 H 0.5733 0.2850 0.4059
N1F N 0.90314(10) 0.28830(15) -0.15797(13)
C1F C 0.87135(13) 0.19017(17) -0.14426(16)
H1F H 0.8907 0.1300 -0.1781
C2F C 0.81186(13) 0.17151(18) -0.08339(15)
H2F H 0.7913 0.1001 -0.0762
C3F C 0.87490(14) 0.37077(18) -0.10974(18)
H3F H 0.8968 0.4411 -0.1183
C4F C 0.81504(15) 0.35982(18) -0.04741(18)
H4F H 0.7966 0.4216 -0.0150
C5F C 0.78236(11) 0.25774(17) -0.03286(13)
O1A O 0.43445(10) 0.30767(12) 0.15228(11)
O2A O 0.55753(10) 0.07430(13) 0.33893(12)
H5A H 0.5650 0.0214 0.3161
H6A H 0.4340 0.3685 0.1519
H7A H 0.5958 0.0893 0.3816
H8A H 0.4267 0.2850 0.0941
Co1F Co 1.0000 0.30204(3) -0.2500
N1A N 0.40314(10) 0.21170(15) 0.34203(13)
O3 O 0.81078(11) 0.38882(14) 0.51864(12)
O4 O 0.90264(12) 0.27562(19) 0.46949(13)
O5 O 0.89017(13) 0.38479(15) 0.23521(15)
N2 N 0.81734(11) 0.24489(15) 0.29016(13)
N3 N 0.83206(13) 0.05950(17) 0.24780(16)
N4 N 0.96735(12) 0.20584(17) 0.11646(14)
N5 N 0.93300(13) 0.03295(18) 0.13543(16)
C6 C 0.83656(14) 0.32825(19) 0.45730(16)
C7 C 0.78188(14) 0.3181(2) 0.35813(17)
H9 H 0.7270 0.2905 0.3691
H10 H 0.7741 0.3911 0.3278
C8 C 0.87378(14) 0.28793(19) 0.23318(16)
C9 C 0.80067(15) 0.1356(2) 0.29544(18)
H11 H 0.7624 0.1143 0.3382
C10 C 0.90786(13) 0.20449(18) 0.17886(16)
C11 C 0.88754(13) 0.0972(2) 0.18907(16)
C12 C 0.97969(15) 0.1017(2) 0.09409(17)
H12 H 1.0185 0.0795 0.0523
H13 H 0.9988 0.2638 0.1005
loop_
_geom_bond_atom_site_label_1
_geom_bond_atom_site_label_2
_geom_bond_site_symmetry_1
_geom_bond_site_symmetry_2
Co1 O1 1_555 1_555
O1 H6 1_555 1_555
O2 Co1 1_555 1_555
N1 Co1 1_555 1_555
C1 N1 1_555 1_555
H1 C1 1_555 1_555
C2 C1 1_555 1_555
H2 C2 1_555 1_555
C3 N1 1_555 1_555
H3 C3 1_555 1_555
C4 C3 1_555 1_555
H4 C4 1_555 1_555
C5 C2 1_555 1_555
H5 O2 1_555 1_555
H7 O2 1_555 1_555
H8 O1 1_555 1_555
O3 C6 1_555 1_555
O4 C6 1_555 1_555
O5 C8 1_555 1_555
N2 C7 1_555 1_555
N3 C9 1_555 1_555
N4 C10 1_555 1_555
N5 C11 1_555 1_555
C6 C7 1_555 1_555
C7 H9 1_555 1_555
H10 C7 1_555 1_555
C8 N2 1_555 1_555
C9 N2 1_555 1_555
H11 C9 1_555 1_555
C10 C8 1_555 1_555
C11 N3 1_555 1_555
C12 N4 1_555 1_555
H12 C12 1_555 1_555
H13 N4 1_555 1_555
N1F C1F 1_555 1_555
C1F H1F 1_555 1_555
C2F C1F 1_555 1_555
H2F C2F 1_555 1_555
C3F N1F 1_555 1_555
H3F C3F 1_555 1_555
C4F C3F 1_555 1_555
H4F C4F 1_555 1_555
C5F C5 1_555 1_555
O1A Co1 1_555 1_555
O2A Co1 1_555 1_555
H5A O2A 1_555 1_555
H6A O1A 1_555 1_555
H7A O2A 1_555 1_555
H8A O1A 1_555 1_555
Co1F N1F 1_555 1_555
N1A Co1 1_555 1_555
C4 C5 1_555 1_555
N5 C12 1_555 1_555
C10 C11 1_555 1_555
C2F C5F 1_555 1_555
C4F C5F 1_555 1_555

#END
