
#######################################################################
#
#                 Cambridge Crystallographic Data Centre
#                                CCDC 
#
#######################################################################
#
# If this CIF has been generated from an entry in the Cambridge 
# Structural Database, then it will include bibliographic, chemical, 
# crystal, experimental, refinement or atomic coordinate data resulting 
# from the CCDC's data processing and validation procedures.
#
#######################################################################

data_BUBREX
_symmetry_cell_setting           monoclinic
_symmetry_space_group_name_H-M   'C 2/c'
_symmetry_Int_Tables_number      15
_space_group_name_Hall           '-C 2yn'
loop_
_symmetry_equiv_pos_site_id
_symmetry_equiv_pos_as_xyz
1 x,y,z
2 -x,y,1/2-z
3 1/2+x,1/2+y,z
4 1/2-x,1/2+y,1/2-z
5 -x,-y,-z
6 x,-y,1/2+z
7 1/2-x,1/2-y,-z
8 1/2+x,1/2-y,1/2+z
_cell_length_a                   16.406(4)
_cell_length_b                   12.421(4)
_cell_length_c                   13.771(3)
_cell_angle_alpha                90
_cell_angle_beta                 97.806(19)
_cell_angle_gamma                90
_cell_volume                     2780.24
loop_
_atom_site_label
_atom_site_type_symbol
_atom_site_fract_x
_atom_site_fract_y
_atom_site_fract_z
Fe1 Fe 0.5000 0.19712(5) 0.2500
O1 O 0.55968(13) 0.07223(19) 0.33843(16)
O2 O 0.43422(12) 0.30888(18) 0.15035(15)
N1 N 0.59888(13) 0.2122(2) 0.15859(17)
C1 C 0.63046(17) 0.3097(3) 0.1446(2)
H1 H 0.6114 0.3692 0.1786
C2 C 0.68908(17) 0.3285(3) 0.0835(2)
H2 H 0.7092 0.3992 0.0758
C3 C 0.62664(18) 0.1295(3) 0.1105(2)
H3 H 0.6052 0.0597 0.1196
C4 C 0.68552(18) 0.1413(3) 0.0479(2)
H4 H 0.7035 0.0804 0.0150
C5 C 0.71829(15) 0.2426(2) 0.0332(2)
H5 H 0.4370 0.3952 0.1501
H6 H 0.5661 -0.0011 0.3225
H7 H 0.4208 0.2902 0.0942
H8 H 0.5964 0.0894 0.3830
N1F N 0.90112(13) 0.2878(2) -0.15859(17)
C1F C 0.86954(17) 0.1903(3) -0.1446(2)
H1F H 0.8886 0.1308 -0.1786
C2F C 0.81092(17) 0.1715(3) -0.0835(2)
H2F H 0.7908 0.1008 -0.0758
C3F C 0.87336(18) 0.3705(3) -0.1105(2)
H3F H 0.8948 0.4403 -0.1196
C4F C 0.81448(18) 0.3587(3) -0.0479(2)
H4F H 0.7965 0.4196 -0.0150
C5F C 0.78171(15) 0.2574(2) -0.0332(2)
O1A O 0.44032(13) 0.07223(19) 0.16157(16)
O2A O 0.56578(12) 0.30888(18) 0.34965(15)
H5A H 0.5630 0.3952 0.3499
H6A H 0.4339 -0.0011 0.1775
H7A H 0.5792 0.2902 0.4058
H8A H 0.4036 0.0894 0.1170
Fe1F Fe 1.0000 0.30288(5) -0.2500
N1A N 0.40112(13) 0.2122(2) 0.34141(17)
O3 O 0.81131(13) 0.3888(2) 0.51768(16)
O4 O 0.90314(14) 0.2761(2) 0.46880(16)
O5 O 0.88941(15) 0.3839(2) 0.23578(19)
N2 N 0.81742(14) 0.2446(2) 0.29045(17)
N3 N 0.83235(16) 0.0592(2) 0.2478(2)
N4 N 0.96658(15) 0.2059(2) 0.11731(18)
H9 H 0.9916 0.2627 0.0971
N5 N 0.93200(16) 0.0336(2) 0.1352(2)
C6 C 0.83701(19) 0.3280(3) 0.4567(2)
C7 C 0.78218(18) 0.3161(3) 0.3579(2)
H10 H 0.7279 0.2877 0.3693
H11 H 0.7733 0.3880 0.3273
C8 C 0.87367(18) 0.2872(3) 0.2335(2)
C9 C 0.80131(19) 0.1350(3) 0.2947(2)
H12 H 0.7631 0.1137 0.3370
C10 C 0.90705(17) 0.2039(3) 0.1794(2)
C11 C 0.88728(17) 0.0976(3) 0.1895(2)
C12 C 0.97807(19) 0.1025(3) 0.0944(2)
H13 H 1.0163 0.0808 0.0523
loop_
_geom_bond_atom_site_label_1
_geom_bond_atom_site_label_2
_geom_bond_site_symmetry_1
_geom_bond_site_symmetry_2
Fe1 O1 1_555 1_555
O1 H6 1_555 1_555
O2 Fe1 1_555 1_555
N1 Fe1 1_555 1_555
C1 N1 1_555 1_555
H1 C1 1_555 1_555
C2 C1 1_555 1_555
H2 C2 1_555 1_555
C3 N1 1_555 1_555
H3 C3 1_555 1_555
C4 C3 1_555 1_555
H4 C4 1_555 1_555
C5 C2 1_555 1_555
H5 O2 1_555 1_555
H7 O2 1_555 1_555
H8 O1 1_555 1_555
O3 C6 1_555 1_555
O4 C6 1_555 1_555
O5 C8 1_555 1_555
N2 C7 1_555 1_555
N3 C9 1_555 1_555
N4 H9 1_555 1_555
N5 C11 1_555 1_555
C6 C7 1_555 1_555
C7 H10 1_555 1_555
H11 C7 1_555 1_555
C8 N2 1_555 1_555
C9 N2 1_555 1_555
H12 C9 1_555 1_555
C10 N4 1_555 1_555
C11 N3 1_555 1_555
C12 N4 1_555 1_555
H13 C12 1_555 1_555
N1F C1F 1_555 1_555
C1F H1F 1_555 1_555
C2F C1F 1_555 1_555
H2F C2F 1_555 1_555
C3F N1F 1_555 1_555
H3F C3F 1_555 1_555
C4F C3F 1_555 1_555
H4F C4F 1_555 1_555
C5F C5 1_555 1_555
O1A Fe1 1_555 1_555
O2A Fe1 1_555 1_555
H5A O2A 1_555 1_555
H6A O1A 1_555 1_555
H7A O2A 1_555 1_555
H8A O1A 1_555 1_555
Fe1F N1F 1_555 1_555
N1A Fe1 1_555 1_555
C4 C5 1_555 1_555
N5 C12 1_555 1_555
C8 C10 1_555 1_555
C10 C11 1_555 1_555
C2F C5F 1_555 1_555
C4F C5F 1_555 1_555

#END
