
#######################################################################
#
#                 Cambridge Crystallographic Data Centre
#                                CCDC 
#
#######################################################################
#
# If this CIF has been generated from an entry in the Cambridge 
# Structural Database, then it will include bibliographic, chemical, 
# crystal, experimental, refinement or atomic coordinate data resulting 
# from the CCDC's data processing and validation procedures.
#
#######################################################################

data_BUBSOI
_symmetry_cell_setting           monoclinic
_symmetry_space_group_name_H-M   'P 21'
_symmetry_Int_Tables_number      4
_space_group_name_Hall           'P 2yb'
loop_
_symmetry_equiv_pos_site_id
_symmetry_equiv_pos_as_xyz
1 x,y,z
2 -x,1/2+y,-z
_cell_length_a                   9.5886(9)
_cell_length_b                   10.6511(10)
_cell_length_c                   13.0127(12)
_cell_angle_alpha                90
_cell_angle_beta                 106.2280(10)
_cell_angle_gamma                90
_cell_volume                     1276.03
loop_
_atom_site_label
_atom_site_type_symbol
_atom_site_fract_x
_atom_site_fract_y
_atom_site_fract_z
Sn1 Sn 0.806031(17) 0.90472(3) 0.259229(12)
N1 N 0.4940(3) 1.2816(2) 0.3709(2)
N2 N 0.7894(3) 1.2292(3) 0.5889(2)
H1 H 0.8318 1.2000 0.5421
O1 O 0.6131(2) 1.0020(2) 0.26215(17)
O2 O 0.7390(3) 1.1628(2) 0.3520(2)
O3 O 0.5862(3) 1.4309(2) 0.4920(2)
O4 O 0.9798(2) 1.2739(3) 0.7336(2)
S1 S 0.38514(16) 1.29904(11) 0.16345(9)
C1 C 0.6821(3) 0.7531(3) 0.1728(2)
C2 C 0.7415(4) 0.6384(3) 0.1595(3)
H2 H 0.8395 0.6239 0.1923
C3 C 0.6577(5) 0.5438(4) 0.0980(4)
H3 H 0.6993 0.4664 0.0916
C4 C 0.5146(4) 0.5649(4) 0.0470(3)
H4 H 0.4585 0.5023 0.0054
C5 C 0.4547(4) 0.6786(4) 0.0577(3)
H5 H 0.3578 0.6938 0.0220
C6 C 0.5367(3) 0.7712(3) 0.1209(3)
H6 H 0.4932 0.8473 0.1287
C7 C 0.8952(3) 0.9085(5) 0.42732(19)
C8 C 0.8306(4) 0.8468(4) 0.4940(3)
H7 H 0.7476 0.7992 0.4650
C9 C 0.8873(5) 0.8543(5) 0.6043(3)
H8 H 0.8407 0.8134 0.6485
C10 C 1.0099(5) 0.9209(5) 0.6479(3)
H9 H 1.0481 0.9249 0.7219
C11 C 1.0769(5) 0.9817(4) 0.5831(3)
H10 H 1.1609 1.0279 0.6126
C12 C 1.0201(4) 0.9748(4) 0.4734(3)
H11 H 1.0674 1.0159 0.4297
C13 C 0.8826(3) 1.0228(3) 0.1553(2)
C14 C 0.8874(6) 0.9746(4) 0.0582(3)
H12 H 0.8574 0.8924 0.0406
C15 C 0.9352(6) 1.0449(5) -0.0128(4)
H13 H 0.9373 1.0098 -0.0778
C16 C 0.9796(6) 1.1650(6) 0.0098(5)
H14 H 1.0158 1.2118 -0.0374
C17 C 0.9698(5) 1.2151(4) 0.1034(4)
H15 H 0.9971 1.2983 0.1193
C18 C 0.9202(5) 1.1458(4) 0.1755(3)
H16 H 0.9124 1.1830 0.2383
C19 C 0.6257(3) 1.1067(3) 0.3131(2)
C20 C 0.4833(3) 1.1531(3) 0.3306(3)
H17 H 0.4561 1.0976 0.3819
C21 C 0.3609(4) 1.1557(4) 0.2275(3)
H18 H 0.2672 1.1544 0.2424
H19 H 0.3670 1.0842 0.1828
C22 C 0.4504(5) 1.3777(3) 0.2894(3)
H20 H 0.5323 1.4310 0.2891
H21 H 0.3744 1.4296 0.3031
C23 C 0.5703(4) 1.3195(3) 0.4697(3)
C24 C 0.6320(4) 1.2204(3) 0.5544(3)
H22 H 0.6009 1.1362 0.5270
C25 C 0.5921(4) 1.2455(4) 0.6585(3)
H23 H 0.5234 1.3143 0.6493
H24 H 0.5491 1.1714 0.6805
C26 C 0.7317(5) 1.2784(8) 0.7397(3)
H25 H 0.7296 1.3650 0.7625
H26 H 0.7470 1.2245 0.8020
C27 C 0.8484(3) 1.2604(3) 0.6882(3)
Sn1A Sn 1.193969(17) 1.40472(3) 0.740771(12)
O4A O 1.0202(2) 0.7739(3) 0.2664(2)
loop_
_geom_bond_atom_site_label_1
_geom_bond_atom_site_label_2
_geom_bond_site_symmetry_1
_geom_bond_site_symmetry_2
Sn1 O1 1_555 1_555
N1 C20 1_555 1_555
N2 H1 1_555 1_555
O1 C19 1_555 1_555
O2 C19 1_555 1_555
O3 C23 1_555 1_555
O4 C27 1_555 1_555
S1 C21 1_555 1_555
C1 Sn1 1_555 1_555
C2 C1 1_555 1_555
H2 C2 1_555 1_555
C3 C2 1_555 1_555
H3 C3 1_555 1_555
C4 C3 1_555 1_555
H4 C4 1_555 1_555
C5 C4 1_555 1_555
H5 C5 1_555 1_555
C6 C1 1_555 1_555
H6 C6 1_555 1_555
C7 Sn1 1_555 1_555
C8 C7 1_555 1_555
H7 C8 1_555 1_555
C9 C8 1_555 1_555
H8 C9 1_555 1_555
C10 C9 1_555 1_555
H9 C10 1_555 1_555
C11 C10 1_555 1_555
H10 C11 1_555 1_555
C12 C7 1_555 1_555
H11 C12 1_555 1_555
C13 Sn1 1_555 1_555
C14 C13 1_555 1_555
H12 C14 1_555 1_555
C15 C14 1_555 1_555
H13 C15 1_555 1_555
C16 C15 1_555 1_555
H14 C16 1_555 1_555
C17 C16 1_555 1_555
H15 C17 1_555 1_555
C18 C13 1_555 1_555
H16 C18 1_555 1_555
C19 C20 1_555 1_555
C20 H17 1_555 1_555
C21 C20 1_555 1_555
H18 C21 1_555 1_555
H19 C21 1_555 1_555
C22 N1 1_555 1_555
H20 C22 1_555 1_555
H21 C22 1_555 1_555
C23 N1 1_555 1_555
C24 N2 1_555 1_555
H22 C24 1_555 1_555
C25 C24 1_555 1_555
H23 C25 1_555 1_555
H24 C25 1_555 1_555
C26 C25 1_555 1_555
H25 C26 1_555 1_555
H26 C26 1_555 1_555
C27 N2 1_555 1_555
Sn1A O4 1_555 1_555
O4A Sn1 1_555 1_555
S1 C22 1_555 1_555
C5 C6 1_555 1_555
C11 C12 1_555 1_555
C17 C18 1_555 1_555
C23 C24 1_555 1_555
C26 C27 1_555 1_555

#END
