
#######################################################################
#
#                 Cambridge Crystallographic Data Centre
#                                CCDC 
#
#######################################################################
#
# If this CIF has been generated from an entry in the Cambridge 
# Structural Database, then it will include bibliographic, chemical, 
# crystal, experimental, refinement or atomic coordinate data resulting 
# from the CCDC's data processing and validation procedures.
#
#######################################################################

data_BUBSEY
_symmetry_cell_setting           monoclinic
_symmetry_space_group_name_H-M   'P 2'
_symmetry_Int_Tables_number      3
_space_group_name_Hall           'P 2y'
loop_
_symmetry_equiv_pos_site_id
_symmetry_equiv_pos_as_xyz
1 x,y,z
2 -x,y,-z
_cell_length_a                   8.9828(9)
_cell_length_b                   7.6848(8)
_cell_length_c                   17.9514(17)
_cell_angle_alpha                90
_cell_angle_beta                 90.287(6)
_cell_angle_gamma                90
_cell_volume                     1239.19
loop_
_atom_site_label
_atom_site_type_symbol
_atom_site_fract_x
_atom_site_fract_y
_atom_site_fract_z
Co1 Co 1.0000 0.36704(9) 0.0000
O1 O 1.1139(3) 0.4918(4) 0.07754(15)
N1 N 0.8387(4) 0.2020(4) 0.03849(18)
C1 C 1.0235(5) 0.5930(5) 0.11327(19)
C2 C 0.7258(5) 0.2592(6) 0.0781(2)
C3 C 0.8074(5) 0.0308(5) 0.0241(2)
O2 O 0.8925(3) 0.6041(5) 0.09539(16)
C4 C 1.0898(5) 0.6853(5) 0.18010(19)
N2 N 0.6242(4) 0.1335(5) 0.08876(17)
H1 H 0.7175 0.3720 0.0964
C5 C 0.6763(6) -0.0101(6) 0.0551(3)
H2 H 0.8673 -0.0450 -0.0028
C6 C 1.1004(3) 0.5584(4) 0.2485(2)
C7 C 1.0034(6) 0.8468(6) 0.20448(19)
H3 H 1.1910 0.7217 0.1672
C8 C 0.4828(4) 0.1572(6) 0.1281(2)
H4 H 0.6300 -0.1183 0.0536
C9 C 1.0780(5) 0.6857(5) 0.31599(19)
C10 C 0.9779(4) 0.4201(4) 0.2472(2)
C11 C 1.2480(4) 0.4613(6) 0.2480(3)
H5 H 1.0649 0.9501 0.2006
H6 H 0.9150 0.8623 0.1740
C12 C 0.9616(5) 0.8125(6) 0.2852(2)
H7 H 0.4022 0.1154 0.0968
H8 H 0.4670 0.2805 0.1366
C13 C 0.4777(5) 0.0638(6) 0.2015(2)
C14 C 1.0278(4) 0.5872(6) 0.38524(19)
C15 C 1.2219(5) 0.7850(7) 0.3343(2)
H9 H 0.9869 0.3476 0.2906
H10 H 0.9876 0.3501 0.2032
H11 H 0.8823 0.4759 0.2471
H12 H 1.2540 0.3867 0.2908
H13 H 1.3285 0.5435 0.2494
H14 H 1.2548 0.3925 0.2035
H15 H 0.8629 0.7619 0.2881
H16 H 0.9626 0.9200 0.3135
C16 C 0.5914(4) 0.1235(6) 0.2587(2)
H17 H 0.4096 -0.0245 0.2112
O3 O 0.8968(3) 0.5938(4) 0.40708(16)
O4 O 1.1231(3) 0.4925(5) 0.41912(15)
H18 H 1.2045 0.8630 0.3751
H19 H 1.2525 0.8504 0.2914
H20 H 1.2987 0.7038 0.3477
H21 H 0.6893 0.0822 0.2446
H22 H 0.5941 0.2496 0.2598
C17 C 0.5536(5) 0.0554(6) 0.3354(3)
Co2 Co 1.0000 0.38335(10) 0.5000
N3 N 0.6709(4) 0.0857(5) 0.39238(18)
H23 H 0.4623 0.1104 0.3519
H24 H 0.5351 -0.0687 0.3319
N4 N 0.8496(4) 0.2086(5) 0.45680(18)
C18 C 0.7572(5) 0.2221(6) 0.4002(2)
C19 C 0.7066(8) -0.0269(8) 0.4473(3)
C20 C 0.8196(9) 0.0477(7) 0.4858(3)
H25 H 0.7533 0.3185 0.3689
H26 H 0.6625 -0.1341 0.4567
H27 H 0.8693 -0.0026 0.5260
O1A O 0.8861(3) 0.4918(4) -0.07754(15)
N1A N 1.1613(4) 0.2020(4) -0.03849(18)
C1A C 0.9765(5) 0.5930(5) -0.11327(19)
C2A C 1.2742(5) 0.2592(6) -0.0781(2)
C3A C 1.1926(5) 0.0308(5) -0.0241(2)
O2A O 1.1075(3) 0.6041(5) -0.09539(16)
C4A C 0.9102(5) 0.6853(5) -0.18010(19)
N2A N 1.3758(4) 0.1335(5) -0.08876(17)
H1A H 1.2825 0.3720 -0.0964
C5A C 1.3237(6) -0.0101(6) -0.0551(3)
H2A H 1.1327 -0.0450 0.0028
C6A C 0.8996(3) 0.5584(4) -0.2485(2)
C7A C 0.9966(6) 0.8468(6) -0.20448(19)
H3A H 0.8090 0.7217 -0.1672
C8A C 1.5172(4) 0.1572(6) -0.1281(2)
H4A H 1.3700 -0.1183 -0.0536
C9A C 0.9220(5) 0.6857(5) -0.31599(19)
C10A C 1.0221(4) 0.4201(4) -0.2472(2)
C11A C 0.7520(4) 0.4613(6) -0.2480(3)
H5A H 0.9351 0.9501 -0.2006
H6A H 1.0850 0.8623 -0.1740
C12A C 1.0384(5) 0.8125(6) -0.2852(2)
H7A H 1.5978 0.1154 -0.0968
H8A H 1.5330 0.2805 -0.1366
C13A C 1.5223(5) 0.0638(6) -0.2015(2)
C14A C 0.9722(4) 0.5872(6) -0.38524(19)
C15A C 0.7781(5) 0.7850(7) -0.3343(2)
H9A H 1.0131 0.3476 -0.2906
H10A H 1.0124 0.3501 -0.2032
H11A H 1.1177 0.4759 -0.2471
H12A H 0.7460 0.3867 -0.2908
H13A H 0.6715 0.5435 -0.2494
H14A H 0.7452 0.3925 -0.2035
H15A H 1.1371 0.7619 -0.2881
H16A H 1.0374 0.9200 -0.3135
C16A C 1.4086(4) 0.1235(6) -0.2587(2)
H17A H 1.5904 -0.0245 -0.2112
O3A O 1.1032(3) 0.5938(4) -0.40708(16)
O4A O 0.8769(3) 0.4925(5) -0.41912(15)
H18A H 0.7955 0.8630 -0.3751
H19A H 0.7475 0.8504 -0.2914
H20A H 0.7013 0.7038 -0.3477
H21A H 1.3107 0.0822 -0.2446
H22A H 1.4059 0.2496 -0.2598
C17A C 1.4464(5) 0.0554(6) -0.3354(3)
Co2_2 Co 1.0000 0.38335(10) -0.5000
N3A N 1.3291(4) 0.0857(5) -0.39238(18)
H23A H 1.5377 0.1104 -0.3519
H24A H 1.4649 -0.0687 -0.3319
O4A_2 O 0.8769(3) 0.4925(5) 0.58088(15)
N4A N 1.1504(4) 0.2086(5) 0.54320(18)
N4A_2 N 1.1504(4) 0.2086(5) -0.45680(18)
C18A C 1.2428(5) 0.2221(6) -0.4002(2)
C19A C 1.2934(8) -0.0269(8) -0.4473(3)
C20A C 1.1804(9) 0.0477(7) -0.4858(3)
H25A H 1.2467 0.3185 -0.3689
H26A H 1.3375 -0.1341 -0.4567
H27A H 1.1307 -0.0026 -0.5260
O5 O 0.4347(4) 0.4208(7) 0.4284(2)
H28 H 0.3413 0.4387 0.4246
H29 H 0.4008 0.4362 0.4720
O6 O 0.4195(3) 0.6057(6) 0.06206(19)
H30 H 0.3389 0.5483 0.0656
H31 H 0.4839 0.5905 0.0963
O7 O 0.6221(4) 0.6325(5) 0.17886(18)
H32 H 0.6922 0.5983 0.1507
H33 H 0.6254 0.6005 0.2240
O8 O 0.6144(4) 0.6044(5) 0.33441(19)
H34 H 0.7071 0.6033 0.3449
H35 H 0.5727 0.5390 0.3661
loop_
_geom_bond_atom_site_label_1
_geom_bond_atom_site_label_2
_geom_bond_site_symmetry_1
_geom_bond_site_symmetry_2
Co1 O1 1_555 1_555
O1 C1 1_555 1_555
N1 Co1 1_555 1_555
C1 O2 1_555 1_555
C2 N1 1_555 1_555
C3 N1 1_555 1_555
C4 C1 1_555 1_555
N2 C2 1_555 1_555
H1 C2 1_555 1_555
C5 C3 1_555 1_555
H2 C3 1_555 1_555
C6 C4 1_555 1_555
C7 C4 1_555 1_555
H3 C4 1_555 1_555
C8 N2 1_555 1_555
H4 C5 1_555 1_555
C9 C6 1_555 1_555
C10 C6 1_555 1_555
C11 C6 1_555 1_555
H5 C7 1_555 1_555
H6 C7 1_555 1_555
C12 C7 1_555 1_555
H7 C8 1_555 1_555
H8 C8 1_555 1_555
C13 C8 1_555 1_555
C14 C9 1_555 1_555
C15 C9 1_555 1_555
H9 C10 1_555 1_555
H10 C10 1_555 1_555
H11 C10 1_555 1_555
H12 C11 1_555 1_555
H13 C11 1_555 1_555
H14 C11 1_555 1_555
H15 C12 1_555 1_555
H16 C12 1_555 1_555
C16 C13 1_555 1_555
H17 C13 1_555 1_555
O3 C14 1_555 1_555
O4 C14 1_555 1_555
H18 C15 1_555 1_555
H19 C15 1_555 1_555
H20 C15 1_555 1_555
H21 C16 1_555 1_555
H22 C16 1_555 1_555
C17 C16 1_555 1_555
Co2 O4 1_555 1_555
N3 C17 1_555 1_555
H23 C17 1_555 1_555
H24 C17 1_555 1_555
N4 Co2 1_555 1_555
C18 N3 1_555 1_555
C19 N3 1_555 1_555
C20 N4 1_555 1_555
H25 C18 1_555 1_555
H26 C19 1_555 1_555
H27 C20 1_555 1_555
O5 H28 1_555 1_555
H29 O5 1_555 1_555
O6 H30 1_555 1_555
H31 O6 1_555 1_555
O7 H32 1_555 1_555
H33 O7 1_555 1_555
O8 H34 1_555 1_555
H35 O8 1_555 1_555
O1A Co1 1_555 1_555
N1A Co1 1_555 1_555
C1A O1A 1_555 1_555
C2A N1A 1_555 1_555
C3A N1A 1_555 1_555
O2A C1A 1_555 1_555
C4A C1A 1_555 1_555
N2A C2A 1_555 1_555
H1A C2A 1_555 1_555
C5A C3A 1_555 1_555
H2A C3A 1_555 1_555
C6A C4A 1_555 1_555
C7A C4A 1_555 1_555
H3A C4A 1_555 1_555
C8A N2A 1_555 1_555
H4A C5A 1_555 1_555
C9A C6A 1_555 1_555
C10A C6A 1_555 1_555
C11A C6A 1_555 1_555
H5A C7A 1_555 1_555
H6A C7A 1_555 1_555
C12A C7A 1_555 1_555
H7A C8A 1_555 1_555
H8A C8A 1_555 1_555
C13A C8A 1_555 1_555
C14A C9A 1_555 1_555
C15A C9A 1_555 1_555
H9A C10A 1_555 1_555
H10A C10A 1_555 1_555
H11A C10A 1_555 1_555
H12A C11A 1_555 1_555
H13A C11A 1_555 1_555
H14A C11A 1_555 1_555
H15A C12A 1_555 1_555
H16A C12A 1_555 1_555
C16A C13A 1_555 1_555
H17A C13A 1_555 1_555
O3A C14A 1_555 1_555
O4A C14A 1_555 1_555
H18A C15A 1_555 1_555
H19A C15A 1_555 1_555
H20A C15A 1_555 1_555
H21A C16A 1_555 1_555
H22A C16A 1_555 1_555
C17A C16A 1_555 1_555
Co2_2 O4A 1_555 1_555
N3A C17A 1_555 1_555
H23A C17A 1_555 1_555
H24A C17A 1_555 1_555
O4A_2 Co2 1_555 1_555
N4A Co2 1_555 1_555
N4A_2 Co2_2 1_555 1_555
C18A N3A 1_555 1_555
C19A N3A 1_555 1_555
C20A N4A_2 1_555 1_555
H25A C18A 1_555 1_555
H26A C19A 1_555 1_555
H27A C20A 1_555 1_555
N2 C5 1_555 1_555
C9 C12 1_555 1_555
N4 C18 1_555 1_555
C19 C20 1_555 1_555
N2A C5A 1_555 1_555
C9A C12A 1_555 1_555
N4A_2 C18A 1_555 1_555
C19A C20A 1_555 1_555

#END
