
#######################################################################
#
#                 Cambridge Crystallographic Data Centre
#                                CCDC 
#
#######################################################################
#
# If this CIF has been generated from an entry in the Cambridge 
# Structural Database, then it will include bibliographic, chemical, 
# crystal, experimental, refinement or atomic coordinate data resulting 
# from the CCDC's data processing and validation procedures.
#
#######################################################################

data_BUBTOJ
_symmetry_cell_setting           monoclinic
_symmetry_space_group_name_H-M   'C 2/c'
_symmetry_Int_Tables_number      15
_space_group_name_Hall           '-C 2yn'
loop_
_symmetry_equiv_pos_site_id
_symmetry_equiv_pos_as_xyz
1 x,y,z
2 -x,y,1/2-z
3 1/2+x,1/2+y,z
4 1/2-x,1/2+y,1/2-z
5 -x,-y,-z
6 x,-y,1/2+z
7 1/2-x,1/2-y,-z
8 1/2+x,1/2-y,1/2+z
_cell_length_a                   15.561(3)
_cell_length_b                   9.2049(19)
_cell_length_c                   18.322(4)
_cell_angle_alpha                90
_cell_angle_beta                 109.001(3)
_cell_angle_gamma                90
_cell_volume                     2481.4
loop_
_atom_site_label
_atom_site_type_symbol
_atom_site_fract_x
_atom_site_fract_y
_atom_site_fract_z
Cu1 Cu 0.5000 0.54857(9) 0.2500
Br1 Br 0.81763(5) 0.46922(8) 0.39035(4)
Br2 Br 0.95835(4) 0.22744(9) 0.49909(4)
C1 C 0.7785(4) 0.3428(6) 0.4537(3)
N1 N 0.6052(3) 0.5429(5) 0.2097(3)
N2 N 0.5000 0.7721(6) 0.2500
O1 O 0.5770(3) 0.3985(4) 0.3334(2)
C2 C 0.4868(4) 0.8466(6) 0.1849(3)
H1 H 0.4773 0.7960 0.1390
C3 C 0.6226(4) 0.4529(6) 0.3963(3)
C4 C 0.8387(3) 0.2447(6) 0.5017(3)
C5 C 0.6887(3) 0.3490(6) 0.4514(3)
C6 C 0.6118(4) 0.4287(7) 0.1649(4)
H2 H 0.5668 0.3579 0.1535
C7 C 0.6722(4) 0.6391(7) 0.2270(4)
H3 H 0.6699 0.7171 0.2585
C8 C 0.7445(4) 0.6288(8) 0.2006(4)
H4 H 0.7900 0.6989 0.2144
C9 C 0.4867(5) 0.9966(7) 0.1834(4)
H5 H 0.4777 1.0464 0.1374
C10 C 0.7501(5) 0.5172(8) 0.1544(4)
H6 H 0.7986 0.5101 0.1355
C11 C 0.6816(4) 0.4134(8) 0.1359(4)
H7 H 0.6833 0.3350 0.1044
O2 O 0.6192(4) 0.5765(5) 0.4183(3)
C12 C 0.5000 1.0692(10) 0.2500
H8 H 0.5000 1.1702 0.2500
Br1F Br 0.68237(5) 0.03078(8) 0.60965(4)
Br2F Br 0.54165(4) 0.27256(9) 0.50091(4)
C1F C 0.7215(4) 0.1572(6) 0.5463(3)
O1F O 0.9230(3) 0.1015(4) 0.6666(2)
C3F C 0.8774(4) 0.0471(6) 0.6037(3)
C4F C 0.6613(3) 0.2553(6) 0.4983(3)
C5F C 0.8113(3) 0.1510(6) 0.5486(3)
O2F O 0.8808(4) -0.0765(5) 0.5817(3)
C2A C 0.5132(4) 0.8466(6) 0.3151(3)
H1A H 0.5227 0.7960 0.3610
C9A C 0.5133(5) 0.9966(7) 0.3166(4)
H5A H 0.5223 1.0464 0.3626
N1A N 0.3948(3) 0.5429(5) 0.2903(3)
C6A C 0.3882(4) 0.4287(7) 0.3351(4)
H2A H 0.4332 0.3579 0.3465
C7A C 0.3278(4) 0.6391(7) 0.2730(4)
H3A H 0.3301 0.7171 0.2415
C8A C 0.2555(4) 0.6288(8) 0.2994(4)
H4A H 0.2100 0.6989 0.2856
C10A C 0.2499(5) 0.5172(8) 0.3456(4)
H6A H 0.2014 0.5101 0.3645
C11A C 0.3184(4) 0.4134(8) 0.3641(4)
H7A H 0.3167 0.3350 0.3956
Cu1F Cu 1.0000 -0.04857(9) 0.7500
O1A O 0.4230(3) 0.3985(4) 0.1666(2)
loop_
_geom_bond_atom_site_label_1
_geom_bond_atom_site_label_2
_geom_bond_site_symmetry_1
_geom_bond_site_symmetry_2
Cu1 N1 1_555 1_555
Br1 C1 1_555 1_555
Br2 C4 1_555 1_555
C1 C4 1_555 1_555
N1 C6 1_555 1_555
N2 Cu1 1_555 1_555
O1 Cu1 1_555 1_555
C2 N2 1_555 1_555
H1 C2 1_555 1_555
C3 O1 1_555 1_555
C4 C5F 1_555 1_555
C5 C1 1_555 1_555
C6 H2 1_555 1_555
C7 N1 1_555 1_555
H3 C7 1_555 1_555
C8 C7 1_555 1_555
H4 C8 1_555 1_555
C9 C2 1_555 1_555
H5 C9 1_555 1_555
C10 C8 1_555 1_555
H6 C10 1_555 1_555
C11 C6 1_555 1_555
H7 C11 1_555 1_555
O2 C3 1_555 1_555
C12 C9 1_555 1_555
H8 C12 1_555 1_555
Br1F C1F 1_555 1_555
Br2F C4F 1_555 1_555
C1F C4F 1_555 1_555
O1F C3F 1_555 1_555
C3F C5F 1_555 1_555
C4F C5 1_555 1_555
C5F C1F 1_555 1_555
O2F C3F 1_555 1_555
C2A N2 1_555 1_555
H1A C2A 1_555 1_555
C9A C12 1_555 1_555
H5A C9A 1_555 1_555
N1A Cu1 1_555 1_555
C6A N1A 1_555 1_555
H2A C6A 1_555 1_555
C7A N1A 1_555 1_555
H3A C7A 1_555 1_555
C8A C7A 1_555 1_555
H4A C8A 1_555 1_555
C10A C8A 1_555 1_555
H6A C10A 1_555 1_555
C11A C6A 1_555 1_555
H7A C11A 1_555 1_555
Cu1F O1F 1_555 1_555
O1A Cu1 1_555 1_555
C3 C5 1_555 1_555
C10 C11 1_555 1_555
C2A C9A 1_555 1_555
C10A C11A 1_555 1_555

#END
