
#######################################################################
#
#                 Cambridge Crystallographic Data Centre
#                                CCDC 
#
#######################################################################
#
# If this CIF has been generated from an entry in the Cambridge 
# Structural Database, then it will include bibliographic, chemical, 
# crystal, experimental, refinement or atomic coordinate data resulting 
# from the CCDC's data processing and validation procedures.
#
#######################################################################

data_BUBTUP
_symmetry_cell_setting           tetragonal
_symmetry_space_group_name_H-M   'P 41 21 2'
_symmetry_Int_Tables_number      92
_space_group_name_Hall           'P 4abw 2nw'
loop_
_symmetry_equiv_pos_site_id
_symmetry_equiv_pos_as_xyz
1 x,y,z
2 -x,-y,1/2+z
3 1/2+x,1/2-y,3/4-z
4 1/2-x,1/2+y,1/4-z
5 -y,-x,1/2-z
6 y,x,-z
7 1/2+y,1/2-x,3/4+z
8 1/2-y,1/2+x,1/4+z
_cell_length_a                   17.9693(5)
_cell_length_b                   17.9693(5)
_cell_length_c                   30.1894(16)
_cell_angle_alpha                90
_cell_angle_beta                 90
_cell_angle_gamma                90
_cell_volume                     9748.03
loop_
_atom_site_label
_atom_site_type_symbol
_atom_site_fract_x
_atom_site_fract_y
_atom_site_fract_z
Cd1 Cd 0.680973(16) 0.168204(15) 0.312505(10)
Cd2 Cd 0.850474(17) -0.327060(16) 0.318365(11)
O1 O 0.70213(15) 0.16762(16) 0.23596(8)
H1 H 0.6796 0.2041 0.2241
H2 H 0.7485 0.1713 0.2310
O2 O 0.83496(19) -0.19644(15) 0.31397(11)
O3 O 0.68591(19) -0.34784(17) 0.32871(12)
N1 N 0.9786(2) -0.49500(19) 0.07809(12)
N2 N 0.79890(18) -0.3412(2) 0.17527(12)
O4 O 0.7549(2) 0.0647(2) 0.31576(14)
O5 O 0.9546(2) -0.22380(17) 0.31826(14)
N3 N 1.09047(19) -0.4472(2) 0.07277(13)
C1 C 0.8818(2) 0.0323(2) 0.31143(14)
C2 C 0.5725(2) -0.4540(2) 0.31659(16)
H3 H 0.5577 -0.4046 0.3191
C3 C 0.6673(2) -0.5467(2) 0.31313(13)
H4 H 0.7174 -0.5594 0.3131
N4 N 0.8401(2) -0.32558(19) 0.24354(11)
C4 C 0.9949(2) -0.0733(2) 0.31371(16)
H5 H 1.0332 -0.1081 0.3138
O6 O 0.8354(2) 0.15550(16) 0.30534(10)
C5 C 1.0104(2) 0.0019(3) 0.31353(17)
C6 C 0.9209(2) -0.0961(2) 0.31379(15)
N5 N 0.8395(2) -0.3172(2) 0.39292(13)
N6 N 0.5268(2) -0.0186(2) 0.29917(13)
N7 N 0.5856(2) 0.08747(19) 0.30388(12)
C7 C 0.8653(2) -0.0431(2) 0.31229(14)
H6 H 0.8158 -0.0583 0.3118
C8 C 0.6145(2) -0.6020(2) 0.30978(15)
C9 C 0.6473(2) -0.4729(2) 0.31647(14)
O7 O 0.77227(17) -0.43112(18) 0.31671(13)
C10 C 0.7540(3) -0.3689(3) 0.13746(15)
H7 H 0.7523 -0.3309 0.1146
H8 H 0.7035 -0.3780 0.1474
C11 C 0.8199(3) 0.0897(2) 0.31073(16)
N8 N 0.4411(3) -0.4897(3) 0.3141(2)
C12 C 0.5897(3) 0.0150(3) 0.31067(18)
H9 H 0.6312 -0.0093 0.3220
C13 C 0.4802(3) 0.0344(3) 0.28419(18)
H10 H 0.4321 0.0274 0.2737
O8 O 0.4233(2) -0.4252(3) 0.3152(2)
C14 C 0.8661(2) -0.4318(2) 0.10432(15)
H11 H 0.8704 -0.3893 0.0847
H12 H 0.8956 -0.4215 0.1305
C15 C 0.9552(3) 0.0552(2) 0.31148(15)
H13 H 0.9672 0.1055 0.3102
C16 C 1.0189(2) -0.4331(3) 0.07337(17)
H14 H 0.9986 -0.3857 0.0708
N9 N 0.8096(2) -0.3483(3) 0.46039(14)
C17 C 0.5405(3) -0.5839(2) 0.31003(16)
H15 H 0.5043 -0.6207 0.3083
C18 C 0.9032(3) -0.1787(3) 0.31547(17)
C19 C 0.5207(2) -0.5097(3) 0.31287(18)
C20 C 0.6259(3) -0.2557(3) 0.24627(19)
H16 H 0.6134 -0.3064 0.2382
H17 H 0.6627 -0.2578 0.2697
O9 O 1.1373(2) -0.0194(3) 0.31550(19)
O10 O 1.1013(2) 0.0922(2) 0.3152(2)
C21 C 0.8970(2) -0.4988(3) 0.08161(17)
H18 H 0.8832 -0.5431 0.0980
H19 H 0.8757 -0.5027 0.0522
C22 C 0.5164(3) 0.0987(3) 0.28738(18)
H20 H 0.4970 0.1448 0.2794
C23 C 0.7857(2) -0.4403(3) 0.11783(15)
H21 H 0.7817 -0.4800 0.1395
H22 H 0.7565 -0.4544 0.0922
C24 C 0.8819(3) -0.2834(3) 0.21484(17)
H23 H 0.9216 -0.2532 0.2230
C25 C 0.8702(3) -0.2678(3) 0.4212(2)
H24 H 0.8994 -0.2274 0.4130
C26 C 0.8569(3) -0.2921(2) 0.17338(16)
H25 H 0.8755 -0.2691 0.1481
C27 C 1.0962(3) -0.5217(3) 0.07726(16)
H26 H 1.1408 -0.5480 0.0783
N10 N 1.0885(3) 0.0265(3) 0.31475(18)
C28 C 0.8523(3) -0.2858(3) 0.46335(19)
H27 H 0.8661 -0.2608 0.4890
C29 C 0.5711(4) -0.1375(3) 0.2722(2)
H28 H 0.6190 -0.1323 0.2868
H29 H 0.5746 -0.1122 0.2439
O11 O 0.3954(2) -0.5396(3) 0.3144(2)
C30 C 0.7908(2) -0.3593(2) 0.21832(15)
H30 H 0.7547 -0.3918 0.2289
C31 C 0.7062(3) -0.4117(3) 0.32081(18)
C32 C 0.5157(3) -0.0998(3) 0.2988(2)
H31 H 0.5180 -0.1184 0.3289
H32 H 0.4666 -0.1108 0.2872
C33 C 0.5581(4) -0.2184(3) 0.26347(19)
H33 H 0.5427 -0.2425 0.2907
H34 H 0.5181 -0.2237 0.2421
C34 C 1.0282(3) -0.5521(3) 0.07995(16)
H35 H 1.0171 -0.6024 0.0826
C35 C 0.8026(3) -0.3634(3) 0.41720(18)
H36 H 0.7745 -0.4026 0.4060
N11 N 0.6592(3) -0.2178(2) 0.20712(13)
N12 N 0.67692(19) -0.18315(18) 0.13842(11)
O12 O 0.70414(18) -0.69959(16) 0.31218(11)
O13 O 0.5867(2) -0.73079(17) 0.30424(12)
C36 C 0.6358(3) -0.6835(2) 0.30819(15)
C37 C 0.7215(3) -0.1746(3) 0.20673(17)
H37 H 0.7511 -0.1621 0.2309
C38 C 0.6334(3) -0.2213(3) 0.16550(16)
H38 H 0.5909 -0.2470 0.1569
C39 C 0.7317(3) -0.1535(3) 0.16436(17)
H39 H 0.7701 -0.1233 0.1543
C40 C 0.7122(4) -0.3330(3) 0.51691(19)
H40 H 0.6863 -0.3574 0.5406
H41 H 0.7381 -0.2903 0.5281
C41 C 0.7674(4) -0.3847(4) 0.4960(2)
H42 H 0.8018 -0.4023 0.5184
H43 H 0.7414 -0.4275 0.4840
N5E N 0.6828(2) -0.1605(2) 0.60708(13)
N9E N 0.6517(3) -0.1904(2) 0.53961(14)
C25E C 0.7322(3) -0.1298(3) 0.5788(2)
H24E H 0.7726 -0.1006 0.5870
C28E C 0.7142(3) -0.1477(3) 0.53665(19)
H27E H 0.7392 -0.1339 0.5110
C35E C 0.6366(3) -0.1974(3) 0.58280(18)
H36E H 0.5974 -0.2255 0.5940
C40E C 0.6670(3) -0.2878(4) 0.48309(19)
H40E H 0.6426 -0.3137 0.4594
H41E H 0.7097 -0.2619 0.4719
C41E C 0.6153(4) -0.2326(4) 0.5040(2)
H42E H 0.5977 -0.1982 0.4816
H43E H 0.5725 -0.2586 0.5160
Cd1E Cd 1.168204(15) -0.319027(16) 0.687495(10)
Cd2E Cd 0.672940(16) -0.149526(17) 0.681635(11)
O1E O 1.16762(16) -0.29787(15) 0.76404(8)
H1E H 1.2041 -0.3204 0.7759
H2E H 1.1713 -0.2515 0.7690
O2E O 0.80356(15) -0.16504(19) 0.68603(11)
O3E O 0.65216(17) -0.31409(19) 0.67129(12)
N1E N 0.50500(19) -0.0214(2) 0.92191(12)
N2E N 0.6588(2) -0.20110(18) 0.82473(12)
O4E O 1.0647(2) -0.2451(2) 0.68424(14)
O5E O 0.77620(17) -0.0454(2) 0.68174(14)
N3E N 0.5528(2) 0.09047(19) 0.92723(13)
C1E C 1.0323(2) -0.1182(2) 0.68857(14)
C2E C 0.5460(2) -0.4275(2) 0.68341(16)
H3E H 0.5954 -0.4423 0.6809
C3E C 0.4533(2) -0.3327(2) 0.68687(13)
H4E H 0.4406 -0.2826 0.6869
N4E N 0.67442(19) -0.1599(2) 0.75646(11)
C4E C 0.9267(2) -0.0051(2) 0.68629(16)
H5E H 0.8919 0.0332 0.6862
O6E O 1.15550(16) -0.1646(2) 0.69466(10)
C5E C 1.0019(3) 0.0104(2) 0.68647(17)
C6E C 0.9039(2) -0.0791(2) 0.68621(15)
N6E N 0.9814(2) -0.4732(2) 0.70083(13)
N7E N 1.08747(19) -0.4144(2) 0.69612(12)
C7E C 0.9569(2) -0.1347(2) 0.68771(14)
H6E H 0.9417 -0.1842 0.6882
C8E C 0.3980(2) -0.3855(2) 0.69022(15)
C9E C 0.5271(2) -0.3527(2) 0.68353(14)
O7E O 0.56888(18) -0.22773(17) 0.68329(13)
C10E C 0.6311(3) -0.2460(3) 0.86254(15)
H7E H 0.6691 -0.2477 0.8854
H8E H 0.6220 -0.2965 0.8526
C11E C 1.0897(2) -0.1801(3) 0.68927(16)
N8E N 0.5103(3) -0.5589(3) 0.6859(2)
C12E C 1.0150(3) -0.4103(3) 0.68933(18)
H9E H 0.9907 -0.3688 0.6780
C13E C 1.0344(3) -0.5198(3) 0.71581(18)
H10E H 1.0274 -0.5679 0.7263
O8E O 0.5748(3) -0.5767(2) 0.6848(2)
C14E C 0.5682(2) -0.1339(2) 0.89568(15)
H11E H 0.6107 -0.1296 0.9153
H12E H 0.5785 -0.1044 0.8695
C15E C 1.0552(2) -0.0448(3) 0.68852(15)
H13E H 1.1055 -0.0328 0.6898
C16E C 0.5669(3) 0.0189(2) 0.92663(17)
H14E H 0.6143 -0.0014 0.9292
C17E C 0.4161(2) -0.4595(3) 0.68997(16)
H15E H 0.3793 -0.4957 0.6917
C18E C 0.8213(3) -0.0968(3) 0.68453(17)
C19E C 0.4903(3) -0.4793(2) 0.68713(18)
C20E C 0.7443(3) -0.3741(3) 0.75373(19)
H16E H 0.6936 -0.3866 0.7618
H17E H 0.7422 -0.3373 0.7303
O9E O 0.9806(3) 0.1373(2) 0.68450(19)
O10E O 1.0922(2) 0.1013(2) 0.6848(2)
C21E C 0.5012(3) -0.1030(2) 0.91839(17)
H18E H 0.4569 -0.1168 0.9020
H19E H 0.4973 -0.1243 0.9478
C22E C 1.0987(3) -0.4836(3) 0.71262(18)
H20E H 1.1448 -0.5030 0.7206
C23E C 0.5597(3) -0.2143(2) 0.88217(15)
H21E H 0.5200 -0.2183 0.8605
H22E H 0.5456 -0.2435 0.9078
C24E C 0.7166(3) -0.1181(3) 0.78516(17)
H23E H 0.7468 -0.0784 0.7770
C26E C 0.7079(2) -0.1431(3) 0.82662(16)
H25E H 0.7309 -0.1245 0.8519
C27E C 0.4783(3) 0.0962(3) 0.92274(16)
H26E H 0.4520 0.1408 0.9217
N10E N 1.0265(3) 0.0885(3) 0.68525(18)
C29E C 0.8625(3) -0.4289(4) 0.7278(2)
H28E H 0.8677 -0.3810 0.7132
H29E H 0.8878 -0.4254 0.7561
O11E O 0.4604(3) -0.6046(2) 0.6856(2)
C30E C 0.6407(2) -0.2092(2) 0.78168(15)
H30E H 0.6082 -0.2453 0.7711
C31E C 0.5883(3) -0.2938(3) 0.67919(18)
C32E C 0.9002(3) -0.4843(3) 0.7012(2)
H31E H 0.8816 -0.4820 0.6711
H32E H 0.8892 -0.5334 0.7128
C33E C 0.7816(3) -0.4419(4) 0.73653(19)
H33E H 0.7575 -0.4573 0.7093
H34E H 0.7763 -0.4819 0.7579
C34E C 0.4479(3) 0.0282(3) 0.92005(16)
H35E H 0.3976 0.0171 0.9174
N11E N 0.7822(2) -0.3408(3) 0.79288(13)
N12E N 0.81685(18) -0.32308(19) 0.86158(11)
O12E O 0.30041(16) -0.29586(18) 0.68782(11)
O13E O 0.26921(17) -0.4133(2) 0.69576(12)
C36E C 0.3165(2) -0.3642(3) 0.69181(15)
C37E C 0.8254(3) -0.2785(3) 0.79327(17)
H37E H 0.8379 -0.2489 0.7691
C38E C 0.7787(3) -0.3666(3) 0.83450(16)
H38E H 0.7530 -0.4091 0.8431
C39E C 0.8465(3) -0.2683(3) 0.83564(17)
H39E H 0.8767 -0.2299 0.8457
Cd1_2 Cd 0.680973(16) -0.831796(15) 0.312505(10)
Cd1C Cd 0.819027(16) -0.331796(15) 0.937495(10)
Cd1E_2 Cd 0.168204(15) -0.319027(16) 0.687495(10)
Cd1F Cd 0.668204(15) -0.180973(16) 0.062505(10)
Cd2C Cd 0.649526(17) 0.172940(16) 0.931635(11)
Cd2F Cd 1.172940(16) -0.350474(17) 0.068365(11)
N3B N 0.59047(19) -0.0528(2) 0.67723(13)
N3G N 0.9472(2) -0.40953(19) 0.32277(13)
N12B N 1.17692(19) -0.31685(18) 0.61158(11)
N12G N 0.68315(18) 0.17692(19) 0.38842(11)
O12_2 O 0.70414(18) 0.30041(16) 0.31218(11)
O12E_2 O 1.30041(16) -0.29586(18) 0.68782(11)
O13_2 O 0.5867(2) 0.26921(17) 0.30424(12)
O13E_2 O 1.26921(17) -0.4133(2) 0.69576(12)
O14 O 0.7029(2) -0.1573(3) 0.36058(15)
O15 O 1.2624(3) -0.5894(3) 0.12166(17)
O16 O 0.4302(3) -0.2447(3) 0.17953(18)
loop_
_geom_bond_atom_site_label_1
_geom_bond_atom_site_label_2
_geom_bond_site_symmetry_1
_geom_bond_site_symmetry_2
Cd1 O1 1_555 1_555
Cd2 O2 1_555 1_555
O1 H1 1_555 1_555
H2 O1 1_555 1_555
O2 C18 1_555 1_555
O3 C31 1_555 1_555
N1 C16 1_555 1_555
N2 C10 1_555 1_555
O4 Cd1 1_555 1_555
O5 Cd2 1_555 1_555
N3 C16 1_555 1_555
C1 C7 1_555 1_555
C2 H3 1_555 1_555
C3 H4 1_555 1_555
N4 Cd2 1_555 1_555
C4 H5 1_555 1_555
O6 Cd1 1_555 1_555
C5 C4 1_555 1_555
C6 C4 1_555 1_555
N5 Cd2 1_555 1_555
N6 C12 1_555 1_555
N7 Cd1 1_555 1_555
C7 C6 1_555 1_555
H6 C7 1_555 1_555
C8 C3 1_555 1_555
C9 C2 1_555 1_555
O7 Cd2 1_555 1_555
C10 H7 1_555 1_555
H8 C10 1_555 1_555
C11 O4 1_555 1_555
N8 O8 1_555 1_555
C12 N7 1_555 1_555
H9 C12 1_555 1_555
C13 N6 1_555 1_555
H10 C13 1_555 1_555
C14 H11 1_555 1_555
H12 C14 1_555 1_555
C15 C1 1_555 1_555
H13 C15 1_555 1_555
C16 H14 1_555 1_555
N9 C28 1_555 1_555
C17 C8 1_555 1_555
H15 C17 1_555 1_555
C18 O5 1_555 1_555
C19 C2 1_555 1_555
C20 H16 1_555 1_555
H17 C20 1_555 1_555
O9 N10 1_555 1_555
O10 N10 1_555 1_555
C21 N1 1_555 1_555
H18 C21 1_555 1_555
H19 C21 1_555 1_555
C22 N7 1_555 1_555
H20 C22 1_555 1_555
C23 C10 1_555 1_555
H21 C23 1_555 1_555
H22 C23 1_555 1_555
C24 N4 1_555 1_555
H23 C24 1_555 1_555
C25 N5 1_555 1_555
H24 C25 1_555 1_555
C26 N2 1_555 1_555
H25 C26 1_555 1_555
C27 N3 1_555 1_555
H26 C27 1_555 1_555
N10 C5 1_555 1_555
C28 C25 1_555 1_555
H27 C28 1_555 1_555
C29 H28 1_555 1_555
H29 C29 1_555 1_555
O11 N8 1_555 1_555
C30 N2 1_555 1_555
H30 C30 1_555 1_555
C31 C9 1_555 1_555
C32 N6 1_555 1_555
H31 C32 1_555 1_555
H32 C32 1_555 1_555
C33 C20 1_555 1_555
H33 C33 1_555 1_555
H34 C33 1_555 1_555
C34 N1 1_555 1_555
H35 C34 1_555 1_555
C35 N5 1_555 1_555
H36 C35 1_555 1_555
N11 C20 1_555 1_555
N12 C38 1_555 1_555
O12 C36 1_555 1_555
O13 C36 1_555 1_555
C36 C8 1_555 1_555
C37 N11 1_555 1_555
H37 C37 1_555 1_555
C38 N11 1_555 1_555
H38 C38 1_555 1_555
C39 N12 1_555 1_555
H39 C39 1_555 1_555
C40 H40 1_555 1_555
H41 C40 1_555 1_555
C41 N9 1_555 1_555
H42 C41 1_555 1_555
H43 C41 1_555 1_555
N5E C25E 1_555 1_555
N9E C28E 1_555 1_555
C25E H24E 1_555 1_555
C28E C25E 1_555 1_555
H27E C28E 1_555 1_555
C35E N5E 1_555 1_555
H36E C35E 1_555 1_555
C40E C40 1_555 1_555
H40E C40E 1_555 1_555
H41E C40E 1_555 1_555
C41E N9E 1_555 1_555
H42E C41E 1_555 1_555
H43E C41E 1_555 1_555
Cd1E O1E 1_555 1_555
Cd2E N5E 1_555 1_555
O1E H1E 1_555 1_555
H2E O1E 1_555 1_555
O2E Cd2E 1_555 1_555
O3E C31E 1_555 1_555
N1E C16E 1_555 1_555
N2E C10E 1_555 1_555
O4E Cd1E 1_555 1_555
O5E Cd2E 1_555 1_555
N3E C16E 1_555 1_555
C1E C7E 1_555 1_555
C2E H3E 1_555 1_555
C3E H4E 1_555 1_555
N4E Cd2E 1_555 1_555
C4E H5E 1_555 1_555
O6E Cd1E 1_555 1_555
C5E C4E 1_555 1_555
C6E C4E 1_555 1_555
N6E C12E 1_555 1_555
N7E Cd1E 1_555 1_555
C7E C6E 1_555 1_555
H6E C7E 1_555 1_555
C8E C3E 1_555 1_555
C9E C2E 1_555 1_555
O7E Cd2E 1_555 1_555
C10E H7E 1_555 1_555
H8E C10E 1_555 1_555
C11E O4E 1_555 1_555
N8E O8E 1_555 1_555
C12E N7E 1_555 1_555
H9E C12E 1_555 1_555
C13E N6E 1_555 1_555
H10E C13E 1_555 1_555
C14E H11E 1_555 1_555
H12E C14E 1_555 1_555
C15E C1E 1_555 1_555
H13E C15E 1_555 1_555
C16E H14E 1_555 1_555
C17E C8E 1_555 1_555
H15E C17E 1_555 1_555
C18E O2E 1_555 1_555
C19E C2E 1_555 1_555
C20E H16E 1_555 1_555
H17E C20E 1_555 1_555
O9E N10E 1_555 1_555
O10E N10E 1_555 1_555
C21E N1E 1_555 1_555
H18E C21E 1_555 1_555
H19E C21E 1_555 1_555
C22E N7E 1_555 1_555
H20E C22E 1_555 1_555
C23E C10E 1_555 1_555
H21E C23E 1_555 1_555
H22E C23E 1_555 1_555
C24E N4E 1_555 1_555
H23E C24E 1_555 1_555
C26E N2E 1_555 1_555
H25E C26E 1_555 1_555
C27E N3E 1_555 1_555
H26E C27E 1_555 1_555
N10E C5E 1_555 1_555
C29E H28E 1_555 1_555
H29E C29E 1_555 1_555
O11E N8E 1_555 1_555
C30E N2E 1_555 1_555
H30E C30E 1_555 1_555
C31E C9E 1_555 1_555
C32E N6E 1_555 1_555
H31E C32E 1_555 1_555
H32E C32E 1_555 1_555
C33E C20E 1_555 1_555
H33E C33E 1_555 1_555
H34E C33E 1_555 1_555
C34E N1E 1_555 1_555
H35E C34E 1_555 1_555
N11E C20E 1_555 1_555
N12E C38E 1_555 1_555
O12E C36E 1_555 1_555
O13E C36E 1_555 1_555
C36E C8E 1_555 1_555
C37E N11E 1_555 1_555
H37E C37E 1_555 1_555
C38E N11E 1_555 1_555
H38E C38E 1_555 1_555
C39E N12E 1_555 1_555
H39E C39E 1_555 1_555
Cd1_2 O12 1_555 1_555
Cd1C N12E 1_555 1_555
Cd1E_2 O12E 1_555 1_555
Cd1F N12 1_555 1_555
Cd2C N3E 1_555 1_555
Cd2F N3 1_555 1_555
N3B Cd2E 1_555 1_555
N3G Cd2 1_555 1_555
N12B Cd1E 1_555 1_555
N12G Cd1 1_555 1_555
O12_2 Cd1 1_555 1_555
O12E_2 Cd1E 1_555 1_555
O13_2 Cd1 1_555 1_555
O13E_2 Cd1E 1_555 1_555
C1 C11 1_555 1_555
C3 C9 1_555 1_555
N4 C30 1_555 1_555
O6 C11 1_555 1_555
C5 C15 1_555 1_555
C6 C18 1_555 1_555
O7 C31 1_555 1_555
N8 C19 1_555 1_555
C13 C22 1_555 1_555
C14 C21 1_555 1_555
C14 C23 1_555 1_555
N9 C35 1_555 1_555
C17 C19 1_555 1_555
C24 C26 1_555 1_555
C27 C34 1_555 1_555
C29 C32 1_555 1_555
C29 C33 1_555 1_555
O13 Cd1_2 1_555 1_555
C37 C39 1_555 1_555
C40 C41 1_555 1_555
N9E C35E 1_555 1_555
C40E C41E 1_555 1_555
O5E C18E 1_555 1_555
C1E C11E 1_555 1_555
C3E C9E 1_555 1_555
N4E C30E 1_555 1_555
O6E C11E 1_555 1_555
C5E C15E 1_555 1_555
C6E C18E 1_555 1_555
O7E C31E 1_555 1_555
N8E C19E 1_555 1_555
C13E C22E 1_555 1_555
C14E C21E 1_555 1_555
C14E C23E 1_555 1_555
C17E C19E 1_555 1_555
C24E C26E 1_555 1_555
C27E C34E 1_555 1_555
C29E C32E 1_555 1_555
C29E C33E 1_555 1_555
O13E Cd1E_2 1_555 1_555
C37E C39E 1_555 1_555

#END
