
#######################################################################
#
#                 Cambridge Crystallographic Data Centre
#                                CCDC 
#
#######################################################################
#
# If this CIF has been generated from an entry in the Cambridge 
# Structural Database, then it will include bibliographic, chemical, 
# crystal, experimental, refinement or atomic coordinate data resulting 
# from the CCDC's data processing and validation procedures.
#
#######################################################################

data_BUBWOM
_symmetry_cell_setting           orthorhombic
_symmetry_space_group_name_H-M   'P c c a'
_symmetry_Int_Tables_number      54
_space_group_name_Hall           '-P 2a 2ac'
loop_
_symmetry_equiv_pos_site_id
_symmetry_equiv_pos_as_xyz
1 x,y,z
2 1/2-x,-y,z
3 -x,y,1/2-z
4 1/2+x,-y,1/2-z
5 -x,-y,-z
6 1/2+x,y,-z
7 x,-y,1/2+z
8 1/2-x,y,1/2+z
_cell_length_a                   19.862(4)
_cell_length_b                   11.645(2)
_cell_length_c                   22.813(5)
_cell_angle_alpha                90
_cell_angle_beta                 90
_cell_angle_gamma                90
_cell_volume                     5276.49
loop_
_atom_site_label
_atom_site_type_symbol
_atom_site_fract_x
_atom_site_fract_y
_atom_site_fract_z
Zn1 Zn 0.082410(10) 0.576605(16) 0.618324(8)
Zn2 Zn 0.2500 0.0000 0.529111(11)
O1 O 0.07305(6) 0.68257(10) 0.53751(5)
O2 O 0.05825(7) 0.66067(10) 0.44047(5)
O3 O 0.09746(6) 0.41549(10) 0.66211(5)
O4 O 0.10072(7) 0.22497(10) 0.64604(6)
O5 O 0.18658(6) 0.14096(10) 0.52683(5)
O6 O 0.08076(6) 0.07103(10) 0.53086(6)
O7 O 0.13139(6) 0.47699(11) 0.36132(5)
O8 O 0.02137(6) 0.44064(10) 0.36207(5)
O9 O 0.18712(7) 0.60832(14) 0.61412(6)
H1 H 0.2068(11) 0.614(2) 0.5824(6)
H2 H 0.2087(10) 0.575(2) 0.6397(7)
O10 O 0.16416(7) -0.11163(11) 0.52762(6)
H3 H 0.1303(8) -0.0711(15) 0.5308(11)
H4 H 0.1570(10) -0.1803(8) 0.5240(11)
N1 N 0.08479(7) 0.46036(12) 0.55138(6)
N2 N 0.09457(7) 0.30522(12) 0.46181(6)
N3 N 0.08405(7) 0.70498(13) 0.67974(6)
N4 N 0.05826(8) 1.14693(13) 0.88645(7)
H5 H 0.0542(11) 1.2057(14) 0.9122(8)
N5 N 0.2500 0.0000 0.62225(9)
N6 N 0.2500 0.0000 0.93419(9)
C1 C 0.06981(8) 0.62496(14) 0.49081(7)
C2 C 0.07957(8) 0.49638(14) 0.49644(7)
C3 C 0.08325(7) 0.41701(13) 0.45060(7)
C4 C 0.07778(8) 0.44974(15) 0.38612(7)
C5 C 0.09803(8) 0.32554(15) 0.62982(7)
C6 C 0.09425(8) 0.35067(14) 0.56419(7)
C7 C 0.10044(8) 0.27229(13) 0.51816(7)
C8 C 0.12252(8) 0.14889(13) 0.52689(7)
C9 C 0.08766(10) 0.68327(16) 0.73726(8)
H6 H 0.0895 0.6073 0.7497
C10 C 0.08871(10) 0.76919(16) 0.77878(8)
H7 H 0.0917 0.7507 0.8184
C11 C 0.08523(8) 0.88321(14) 0.76155(7)
C12 C 0.08440(9) 0.90585(15) 0.70147(8)
H8 H 0.0843 0.9811 0.6878
C13 C 0.08367(9) 0.81497(15) 0.66262(8)
H9 H 0.0829 0.8309 0.6227
C14 C 0.07850(8) 0.97688(14) 0.80526(7)
C15 C 0.07214(9) 0.95114(15) 0.86507(8)
H10 H 0.0753 0.8755 0.8779
C16 C 0.06126(10) 1.03811(16) 0.90462(8)
H11 H 0.0560 1.0211 0.9442
C17 C 0.06469(9) 1.17538(15) 0.82992(8)
H12 H 0.0623 1.2521 0.8188
C18 C 0.07483(9) 1.09180(15) 0.78818(8)
H13 H 0.0792 1.1118 0.7489
C19 C 0.23818(9) 0.09632(15) 0.65288(8)
H14 H 0.2303 0.1640 0.6323
C20 C 0.23718(9) 0.09998(16) 0.71366(7)
H15 H 0.2280 0.1685 0.7330
C21 C 0.2500 0.0000 0.74548(10)
C22 C 0.2500 0.0000 0.81083(10)
C23 C 0.24006(9) 0.10069(15) 0.84304(7)
H16 H 0.2334 0.1701 0.8237
C24 C 0.24011(9) 0.09708(15) 0.90368(8)
H17 H 0.2330 0.1650 0.9242
C19A C 0.26182(9) -0.09632(15) 0.65288(8)
H14A H 0.2697 -0.1640 0.6323
C20A C 0.26282(9) -0.09998(16) 0.71366(7)
H15A H 0.2720 -0.1685 0.7330
C23A C 0.25994(9) -0.10069(15) 0.84304(7)
H16A H 0.2666 -0.1701 0.8237
C24A C 0.25989(9) -0.09708(15) 0.90368(8)
H17A H 0.2670 -0.1650 0.9242
Zn1A Zn 0.417590(10) -0.576605(16) 0.618324(8)
O1A O 0.42695(6) -0.68257(10) 0.53751(5)
O2A O 0.44175(7) -0.66067(10) 0.44047(5)
O3A O 0.40254(6) -0.41549(10) 0.66211(5)
O4A O 0.39928(7) -0.22497(10) 0.64604(6)
O5A O 0.31342(6) -0.14096(10) 0.52683(5)
O6A O 0.41924(6) -0.07103(10) 0.53086(6)
O7A O 0.36861(6) -0.47699(11) 0.36132(5)
O8A O 0.47863(6) -0.44064(10) 0.36207(5)
O9A O 0.31288(7) -0.60832(14) 0.61412(6)
H1A H 0.2932(11) -0.614(2) 0.5824(6)
H2A H 0.2913(10) -0.575(2) 0.6397(7)
O10A O 0.33584(7) 0.11163(11) 0.52762(6)
H3A H 0.3697(8) 0.0711(15) 0.5308(11)
H4A H 0.3430(10) 0.1803(8) 0.5240(11)
N1A N 0.41521(7) -0.46036(12) 0.55138(6)
N2A N 0.40543(7) -0.30522(12) 0.46181(6)
N3A N 0.41595(7) -0.70498(13) 0.67974(6)
N4A N 0.44174(8) -1.14693(13) 0.88645(7)
H5A H 0.4458(11) -1.2057(14) 0.9122(8)
C1A C 0.43019(8) -0.62496(14) 0.49081(7)
C2A C 0.42043(8) -0.49638(14) 0.49644(7)
C3A C 0.41675(7) -0.41701(13) 0.45060(7)
C4A C 0.42222(8) -0.44974(15) 0.38612(7)
C5A C 0.40197(8) -0.32554(15) 0.62982(7)
C6A C 0.40575(8) -0.35067(14) 0.56419(7)
C7A C 0.39956(8) -0.27229(13) 0.51816(7)
C8A C 0.37748(8) -0.14889(13) 0.52689(7)
C9A C 0.41234(10) -0.68327(16) 0.73726(8)
H6A H 0.4105 -0.6073 0.7497
C10A C 0.41129(10) -0.76919(16) 0.77878(8)
H7A H 0.4083 -0.7507 0.8184
C11A C 0.41477(8) -0.88321(14) 0.76155(7)
C12A C 0.41560(9) -0.90585(15) 0.70147(8)
H8A H 0.4157 -0.9811 0.6878
C13A C 0.41633(9) -0.81497(15) 0.66262(8)
H9A H 0.4171 -0.8309 0.6227
C14A C 0.42150(8) -0.97688(14) 0.80526(7)
C15A C 0.42786(9) -0.95114(15) 0.86507(8)
H10A H 0.4247 -0.8755 0.8779
C16A C 0.43874(10) -1.03811(16) 0.90462(8)
H11A H 0.4440 -1.0211 0.9442
C17A C 0.43531(9) -1.17538(15) 0.82992(8)
H12A H 0.4377 -1.2521 0.8188
C18A C 0.42517(9) -1.09180(15) 0.78818(8)
H13A H 0.4208 -1.1118 0.7489
Zn1D Zn -0.082410(10) 0.423395(16) 0.381676(8)
Zn1E Zn 0.582410(10) -0.423395(16) 0.381676(8)
Zn2F Zn 0.2500 0.0000 1.029111(11)
O8D O -0.02137(6) 0.55936(10) 0.63793(5)
O8E O 0.52137(6) -0.55936(10) 0.63793(5)
N6F N 0.2500 0.0000 0.43419(9)
O11 O 0.2500 0.5000 0.42261(8)
H18 H 0.2160(8) 0.498(2) 0.4017(10)
H18A H 0.2840(8) 0.502(2) 0.4017(10)
O12 O 0.16524(7) 0.63314(13) 0.27117(6)
H19 H 0.1383(10) 0.636(2) 0.2433(7)
H20 H 0.1516(11) 0.5910(19) 0.2978(7)
O13 O 0.2500 0.5000 0.70424(9)
H21 H 0.2262(12) 0.463(2) 0.7269(10)
H21A H 0.2738(12) 0.537(2) 0.7269(10)
O14 O 0.23391(7) 0.66240(13) 0.50851(7)
H22 H 0.2624(10) 0.7143(15) 0.5107(11)
H23 H 0.2423(12) 0.6175(17) 0.4811(9)
O15 O 0.0000 0.3695(2) 0.7500
H24 H 0.0206(15) 0.410(2) 0.7259(12)
H24B H -0.0206(15) 0.410(2) 0.7741(12)
loop_
_geom_bond_atom_site_label_1
_geom_bond_atom_site_label_2
_geom_bond_site_symmetry_1
_geom_bond_site_symmetry_2
Zn1 O1 1_555 1_555
Zn2 O5 1_555 1_555
O1 C1 1_555 1_555
O2 C1 1_555 1_555
O3 Zn1 1_555 1_555
O4 C5 1_555 1_555
O5 C8 1_555 1_555
O6 C8 1_555 1_555
O7 C4 1_555 1_555
O8 C4 1_555 1_555
O9 Zn1 1_555 1_555
H1 O9 1_555 1_555
H2 O9 1_555 1_555
O10 Zn2 1_555 1_555
H3 O10 1_555 1_555
H4 O10 1_555 1_555
N1 Zn1 1_555 1_555
N2 C3 1_555 1_555
N3 Zn1 1_555 1_555
N4 H5 1_555 1_555
N5 Zn2 1_555 1_555
N6 C24 1_555 1_555
C1 C2 1_555 1_555
C2 N1 1_555 1_555
C3 C2 1_555 1_555
C4 C3 1_555 1_555
C5 O3 1_555 1_555
C6 N1 1_555 1_555
C7 N2 1_555 1_555
C8 C7 1_555 1_555
C9 N3 1_555 1_555
H6 C9 1_555 1_555
C10 C9 1_555 1_555
H7 C10 1_555 1_555
C11 C10 1_555 1_555
C12 C11 1_555 1_555
H8 C12 1_555 1_555
C13 N3 1_555 1_555
H9 C13 1_555 1_555
C14 C11 1_555 1_555
C15 C14 1_555 1_555
H10 C15 1_555 1_555
C16 N4 1_555 1_555
H11 C16 1_555 1_555
C17 N4 1_555 1_555
H12 C17 1_555 1_555
C18 C14 1_555 1_555
H13 C18 1_555 1_555
C19 N5 1_555 1_555
H14 C19 1_555 1_555
C20 C19 1_555 1_555
H15 C20 1_555 1_555
C21 C20 1_555 1_555
C22 C21 1_555 1_555
C23 C22 1_555 1_555
H16 C23 1_555 1_555
C24 C23 1_555 1_555
H17 C24 1_555 1_555
O11 H18 1_555 1_555
O12 H19 1_555 1_555
H20 O12 1_555 1_555
O13 H21 1_555 1_555
O14 H22 1_555 1_555
H23 O14 1_555 1_555
O15 H24 1_555 1_555
C19A N5 1_555 1_555
H14A C19A 1_555 1_555
C20A C21 1_555 1_555
H15A C20A 1_555 1_555
C23A C22 1_555 1_555
H16A C23A 1_555 1_555
C24A N6 1_555 1_555
H17A C24A 1_555 1_555
Zn1A O1A 1_555 1_555
O1A C1A 1_555 1_555
O2A C1A 1_555 1_555
O3A Zn1A 1_555 1_555
O4A C5A 1_555 1_555
O5A Zn2 1_555 1_555
O6A C8A 1_555 1_555
O7A C4A 1_555 1_555
O8A C4A 1_555 1_555
O9A Zn1A 1_555 1_555
H1A O9A 1_555 1_555
H2A O9A 1_555 1_555
O10A Zn2 1_555 1_555
H3A O10A 1_555 1_555
H4A O10A 1_555 1_555
N1A Zn1A 1_555 1_555
N2A C3A 1_555 1_555
N3A Zn1A 1_555 1_555
N4A H5A 1_555 1_555
C1A C2A 1_555 1_555
C2A N1A 1_555 1_555
C3A C2A 1_555 1_555
C4A C3A 1_555 1_555
C5A O3A 1_555 1_555
C6A N1A 1_555 1_555
C7A N2A 1_555 1_555
C8A O5A 1_555 1_555
C9A N3A 1_555 1_555
H6A C9A 1_555 1_555
C10A C9A 1_555 1_555
H7A C10A 1_555 1_555
C11A C10A 1_555 1_555
C12A C11A 1_555 1_555
H8A C12A 1_555 1_555
C13A N3A 1_555 1_555
H9A C13A 1_555 1_555
C14A C11A 1_555 1_555
C15A C14A 1_555 1_555
H10A C15A 1_555 1_555
C16A N4A 1_555 1_555
H11A C16A 1_555 1_555
C17A N4A 1_555 1_555
H12A C17A 1_555 1_555
C18A C14A 1_555 1_555
H13A C18A 1_555 1_555
Zn1D O8 1_555 1_555
Zn1E O8A 1_555 1_555
Zn2F N6 1_555 1_555
O8D Zn1 1_555 1_555
O8E Zn1A 1_555 1_555
N6F Zn2 1_555 1_555
H18A O11 1_555 1_555
H21A O13 1_555 1_555
H24B O15 1_555 1_555
C5 C6 1_555 1_555
C6 C7 1_555 1_555
C12 C13 1_555 1_555
C15 C16 1_555 1_555
C17 C18 1_555 1_555
C19A C20A 1_555 1_555
C23A C24A 1_555 1_555
C5A C6A 1_555 1_555
C6A C7A 1_555 1_555
C7A C8A 1_555 1_555
C12A C13A 1_555 1_555
C15A C16A 1_555 1_555
C17A C18A 1_555 1_555

#END
