
#######################################################################
#
#                 Cambridge Crystallographic Data Centre
#                                CCDC 
#
#######################################################################
#
# If this CIF has been generated from an entry in the Cambridge 
# Structural Database, then it will include bibliographic, chemical, 
# crystal, experimental, refinement or atomic coordinate data resulting 
# from the CCDC's data processing and validation procedures.
#
#######################################################################

data_BUBWAY
_symmetry_cell_setting           monoclinic
_symmetry_space_group_name_H-M   'P 21/c'
_symmetry_Int_Tables_number      14
_space_group_name_Hall           '-P 2ybc'
loop_
_symmetry_equiv_pos_site_id
_symmetry_equiv_pos_as_xyz
1 x,y,z
2 -x,1/2+y,1/2-z
3 -x,-y,-z
4 x,1/2-y,1/2+z
_cell_length_a                   4.330(3)
_cell_length_b                   24.657(15)
_cell_length_c                   24.592(16)
_cell_angle_alpha                90
_cell_angle_beta                 91.267(14)
_cell_angle_gamma                90
_cell_volume                     2624.92
loop_
_atom_site_label
_atom_site_type_symbol
_atom_site_fract_x
_atom_site_fract_y
_atom_site_fract_z
C1 C 0.320(3) 0.9485(5) 0.0853(5)
C2 C 0.242(3) 0.8612(5) 0.0772(5)
C3 C 0.444(3) 1.0970(6) 0.0797(6)
H1 H 0.3892 1.1246 0.0556
C4 C 0.354(3) 1.0450(5) 0.0669(5)
H2 H 0.2391 1.0384 0.0351
C5 C 0.433(3) 1.0028(5) 0.1005(5)
C6 C 0.607(3) 1.0155(5) 0.1462(5)
H3 H 0.6721 0.9882 0.1699
C7 C 0.683(3) 1.0680(5) 0.1566(6)
H4 H 0.7982 1.0749 0.1882
C8 C 0.058(4) 0.7163(6) 0.0490(7)
H5 H -0.0516 0.6972 0.0223
C9 C 0.077(3) 0.7723(5) 0.0448(5)
H6 H -0.0211 0.7902 0.0159
C10 C 0.242(3) 0.8016(5) 0.0839(5)
C11 C 0.370(3) 0.7725(5) 0.1268(5)
H7 H 0.4822 0.7900 0.1543
C12 C 0.329(4) 0.7182(5) 0.1280(6)
H8 H 0.4039 0.6998 0.1586
Hg1 Hg 0.69733(13) 1.20012(2) 0.15358(2)
Hg2 Hg 0.14274(13) 0.59181(2) 0.08957(2)
I1 I 1.1203(2) 1.18958(4) 0.23270(4)
I2 I 0.4379(2) 1.26529(4) 0.08185(4)
I3 I -0.27489(19) 0.57610(4) 0.01109(4)
I4 I 0.4466(2) 0.56554(4) 0.17927(4)
N1 N 0.074(3) 0.8868(4) 0.0407(4)
N2 N 0.122(3) 0.9407(4) 0.0442(5)
N3 N 0.400(2) 0.8982(4) 0.1071(4)
N4 N 0.608(3) 1.1104(4) 0.1257(5)
N5 N 0.193(2) 0.6891(4) 0.0897(4)
N6 N 0.593(2) 0.8864(4) 0.1504(4)
H9 H 0.5268 0.9031 0.1805
H10 H 0.7849 0.8981 0.1435
Hg1_2 Hg 1.69733(13) 1.20012(2) 0.15358(2)
Hg2_2 Hg -0.85726(13) 0.59181(2) 0.08957(2)
I1_2 I 0.1203(2) 1.18958(4) 0.23270(4)
I3_2 I 0.72511(19) 0.57610(4) 0.01109(4)
C13 C 0.093(4) 0.9393(7) 0.2671(7)
H11 H 0.0708 0.9752 0.2781
C14 C 0.053(5) 0.9155(9) 0.3625(8)
H12 H 0.0637 0.9541 0.3673
H13 H 0.2144 0.8985 0.3838
H14 H -0.1438 0.9025 0.3739
C15 C 0.106(7) 0.8462(13) 0.2878(12)
H15 H 0.2166 0.8437 0.2546
H16 H -0.1005 0.8327 0.2821
H17 H 0.2090 0.8250 0.3154
N7 N 0.093(3) 0.9024(6) 0.3050(6)
O1 O 0.119(2) 0.9312(4) 0.2187(4)
loop_
_geom_bond_atom_site_label_1
_geom_bond_atom_site_label_2
_geom_bond_site_symmetry_1
_geom_bond_site_symmetry_2
C1 C5 1_555 1_555
C2 C10 1_555 1_555
C3 H1 1_555 1_555
C4 C3 1_555 1_555
H2 C4 1_555 1_555
C5 C4 1_555 1_555
C6 C5 1_555 1_555
H3 C6 1_555 1_555
C7 C6 1_555 1_555
H4 C7 1_555 1_555
C8 H5 1_555 1_555
C9 C8 1_555 1_555
H6 C9 1_555 1_555
C10 C9 1_555 1_555
C11 C10 1_555 1_555
H7 C11 1_555 1_555
C12 C11 1_555 1_555
H8 C12 1_555 1_555
Hg1 I1 1_555 1_555
Hg2 I3 1_555 1_555
I1 Hg1_2 1_555 1_555
I2 Hg1 1_555 1_555
I3 Hg2_2 1_555 1_555
I4 Hg2 1_555 1_555
N1 C2 1_555 1_555
N2 C1 1_555 1_555
N3 C1 1_555 1_555
N4 C3 1_555 1_555
N5 C8 1_555 1_555
N6 N3 1_555 1_555
H9 N6 1_555 1_555
H10 N6 1_555 1_555
C13 H11 1_555 1_555
C14 H12 1_555 1_555
H13 C14 1_555 1_555
H14 C14 1_555 1_555
C15 H15 1_555 1_555
H16 C15 1_555 1_555
H17 C15 1_555 1_555
N7 C13 1_555 1_555
O1 C13 1_555 1_555
I1_2 Hg1 1_555 1_555
I3_2 Hg2 1_555 1_555
C2 N3 1_555 1_555
C7 N4 1_555 1_555
C12 N5 1_555 1_555
Hg1 N4 1_555 1_555
Hg2 N5 1_555 1_555
N1 N2 1_555 1_555
C14 N7 1_555 1_555
C15 N7 1_555 1_555

#END
