
#######################################################################
#
#                 Cambridge Crystallographic Data Centre
#                                CCDC 
#
#######################################################################
#
# If this CIF has been generated from an entry in the Cambridge 
# Structural Database, then it will include bibliographic, chemical, 
# crystal, experimental, refinement or atomic coordinate data resulting 
# from the CCDC's data processing and validation procedures.
#
#######################################################################

data_BUBZAB
_symmetry_cell_setting           triclinic
_symmetry_space_group_name_H-M   'P -1'
_symmetry_Int_Tables_number      2
_space_group_name_Hall           '-P 1'
loop_
_symmetry_equiv_pos_site_id
_symmetry_equiv_pos_as_xyz
1 x,y,z
2 -x,-y,-z
_cell_length_a                   8.203(2)
_cell_length_b                   16.310(5)
_cell_length_c                   18.458(5)
_cell_angle_alpha                69.026(3)
_cell_angle_beta                 88.521(4)
_cell_angle_gamma                83.355(4)
_cell_volume                     2290.08
loop_
_atom_site_label
_atom_site_type_symbol
_atom_site_fract_x
_atom_site_fract_y
_atom_site_fract_z
C1 C 0.4214(15) 0.6917(7) 0.2508(6)
C2 C 0.1837(14) 0.7422(7) 0.2034(6)
C3 C 0.5851(14) 0.6401(7) 0.2709(7)
C4 C 0.6310(15) 0.5755(7) 0.2402(7)
H1 H 0.5606 0.5635 0.2075
C5 C 0.7848(16) 0.5292(8) 0.2597(8)
H2 H 0.8169 0.4860 0.2386
C6 C 0.8416(15) 0.6045(8) 0.3354(7)
H3 H 0.9137 0.6150 0.3683
C7 C 0.6926(17) 0.6543(8) 0.3197(8)
H4 H 0.6643 0.6971 0.3418
C8 C 0.0325(13) 0.7531(6) 0.1601(6)
C9 C 0.0069(15) 0.6943(8) 0.1246(7)
H5 H 0.0850 0.6470 0.1276
C10 C -0.1366(17) 0.7080(9) 0.0849(8)
H6 H -0.1511 0.6683 0.0606
C11 C -0.2330(15) 0.8269(7) 0.1110(7)
H7 H -0.3150 0.8728 0.1069
C12 C -0.0910(16) 0.8212(8) 0.1530(8)
H8 H -0.0792 0.8625 0.1760
C13 C 0.8602(14) 0.0901(7) 0.5563(7)
C14 C 0.7689(14) -0.0057(7) 0.6516(6)
C15 C 0.9352(14) 0.1701(7) 0.5058(6)
C16 C 0.9604(15) 0.1867(7) 0.4281(7)
H9 H 0.9334 0.1482 0.4046
C17 C 1.0281(14) 0.2639(8) 0.3863(7)
H10 H 1.0472 0.2751 0.3339
C18 C 1.0396(15) 0.3055(7) 0.4903(7)
H11 H 1.0644 0.3461 0.5120
C19 C 0.9758(15) 0.2302(8) 0.5374(7)
H12 H 0.9603 0.2199 0.5899
C20 C 0.7214(13) -0.0568(7) 0.7282(6)
C21 C 0.6602(15) -0.1381(7) 0.7484(7)
H13 H 0.6511 -0.1629 0.7107
C22 C 0.6136(16) -0.1819(8) 0.8218(7)
H14 H 0.5738 -0.2360 0.8324
C23 C 0.6848(17) -0.0748(8) 0.8633(7)
H15 H 0.6978 -0.0534 0.9029
C24 C 0.7320(15) -0.0257(7) 0.7884(7)
H16 H 0.7710 0.0284 0.7789
Hg1 Hg 1.16615(6) 0.46432(3) 0.33244(3)
Hg2 Hg -0.50842(6) 0.77672(3) 0.00768(3)
I1 I 1.26850(11) 0.52230(6) 0.43884(5)
I2 I 1.24627(12) 0.42760(6) 0.20687(5)
I3 I -0.48166(13) 0.61343(5) 0.00872(6)
I4 I -0.71031(13) 0.91297(6) 0.01107(6)
N1 N 0.2095(13) 0.7920(8) 0.2445(7)
N2 N 0.3625(14) 0.7619(8) 0.2706(8)
H17 H 0.4172 0.7842 0.2968
N3 N 0.3078(11) 0.6798(6) 0.2064(5)
N4 N 0.8902(11) 0.5426(6) 0.3069(5)
N5 N -0.2581(12) 0.7715(6) 0.0769(5)
N6 N 0.7440(12) -0.0262(6) 0.5890(6)
H18 H 0.6990 -0.0713 0.5890
N7 N 0.8015(12) 0.0358(6) 0.5251(6)
N8 N 0.8423(11) 0.0669(6) 0.6330(5)
N9 N 1.0676(11) 0.3228(5) 0.4149(6)
N10 N 0.6216(12) -0.1514(6) 0.8802(5)
Hg2_2 Hg 0.49158(6) -0.22328(3) 1.00768(3)
N10_2 N -0.3784(12) 0.8486(6) -0.1198(5)
C25 C 0.489(2) 0.2196(10) 0.4134(10)
H19 H 0.5197 0.2300 0.3623
C26 C 0.512(2) 0.2646(10) 0.5251(9)
H20 H 0.4296 0.3099 0.5282
H21 H 0.6135 0.2701 0.5471
H22 H 0.4780 0.2076 0.5533
C27 C 0.6156(19) 0.3520(8) 0.3849(10)
H23 H 0.6214 0.3473 0.3345
H24 H 0.7243 0.3518 0.4031
H25 H 0.5507 0.4061 0.3817
N11 N 0.5376(15) 0.2745(7) 0.4408(8)
O1 O 0.4124(18) 0.1577(8) 0.4397(9)
C28 C 0.233(2) 0.6722(10) 0.8194(9)
H26 H 0.2871 0.6175 0.8226
C29 C 0.097(2) 0.5865(11) 0.9357(9)
H27 H 0.1596 0.5373 0.9274
H28 H -0.0182 0.5799 0.9353
H29 H 0.1268 0.5883 0.9850
C30 C 0.026(3) 0.7500(12) 0.8744(13)
H30 H 0.0816 0.7773 0.9032
H31 H -0.0771 0.7343 0.8983
H32 H 0.0061 0.7906 0.8221
N12 N 0.1292(14) 0.6690(7) 0.8736(7)
O2 O 0.273(2) 0.7334(10) 0.7656(7)
C31 C 0.668(3) 0.9208(15) 0.2895(12)
H33 H 0.7142 0.9089 0.2472
C32 C 0.717(3) 1.0010(15) 0.3727(12)
H34 H 0.6053 1.0159 0.3848
H35 H 0.7808 1.0474 0.3707
H36 H 0.7615 0.9468 0.4121
C33 C 0.798(3) 1.0498(13) 0.2262(13)
H37 H 0.8745 1.0157 0.2049
H38 H 0.8544 1.0902 0.2405
H39 H 0.7142 1.0824 0.1880
N13 N 0.721(2) 0.9896(13) 0.2959(9)
O3 O 0.577(2) 0.8686(11) 0.3228(10)
loop_
_geom_bond_atom_site_label_1
_geom_bond_atom_site_label_2
_geom_bond_site_symmetry_1
_geom_bond_site_symmetry_2
C1 C3 1_555 1_555
C2 C8 1_555 1_555
C3 C4 1_555 1_555
C4 H1 1_555 1_555
C5 C4 1_555 1_555
H2 C5 1_555 1_555
C6 H3 1_555 1_555
C7 C3 1_555 1_555
H4 C7 1_555 1_555
C8 C9 1_555 1_555
C9 H5 1_555 1_555
C10 C9 1_555 1_555
H6 C10 1_555 1_555
C11 H7 1_555 1_555
C12 C8 1_555 1_555
H8 C12 1_555 1_555
C13 C15 1_555 1_555
C14 C20 1_555 1_555
C15 C16 1_555 1_555
C16 H9 1_555 1_555
C17 C16 1_555 1_555
H10 C17 1_555 1_555
C18 H11 1_555 1_555
C19 C15 1_555 1_555
H12 C19 1_555 1_555
C20 C21 1_555 1_555
C21 H13 1_555 1_555
C22 C21 1_555 1_555
H14 C22 1_555 1_555
C23 H15 1_555 1_555
C24 C20 1_555 1_555
H16 C24 1_555 1_555
Hg1 I1 1_555 1_555
Hg2 I3 1_555 1_555
I2 Hg1 1_555 1_555
I4 Hg2 1_555 1_555
N1 C2 1_555 1_555
N2 C1 1_555 1_555
H17 N2 1_555 1_555
N3 C1 1_555 1_555
N4 C5 1_555 1_555
N5 C10 1_555 1_555
N6 C14 1_555 1_555
H18 N6 1_555 1_555
N7 C13 1_555 1_555
N8 C13 1_555 1_555
N9 C17 1_555 1_555
N10 C22 1_555 1_555
C25 H19 1_555 1_555
C26 H20 1_555 1_555
H21 C26 1_555 1_555
H22 C26 1_555 1_555
C27 H23 1_555 1_555
H24 C27 1_555 1_555
H25 C27 1_555 1_555
N11 C25 1_555 1_555
O1 C25 1_555 1_555
C28 H26 1_555 1_555
C29 H27 1_555 1_555
H28 C29 1_555 1_555
H29 C29 1_555 1_555
C30 H30 1_555 1_555
H31 C30 1_555 1_555
H32 C30 1_555 1_555
N12 C28 1_555 1_555
O2 C28 1_555 1_555
C31 H33 1_555 1_555
C32 H34 1_555 1_555
H35 C32 1_555 1_555
H36 C32 1_555 1_555
C33 H37 1_555 1_555
H38 C33 1_555 1_555
H39 C33 1_555 1_555
N13 C31 1_555 1_555
O3 C31 1_555 1_555
Hg2_2 N10 1_555 1_555
N10_2 Hg2 1_555 1_555
C2 N3 1_555 1_555
C6 C7 1_555 1_555
C6 N4 1_555 1_555
C11 C12 1_555 1_555
C11 N5 1_555 1_555
C14 N8 1_555 1_555
C18 C19 1_555 1_555
C18 N9 1_555 1_555
C23 C24 1_555 1_555
C23 N10 1_555 1_555
Hg1 N4 1_555 1_555
Hg1 N9 1_555 1_555
Hg2 N5 1_555 1_555
N1 N2 1_555 1_555
N6 N7 1_555 1_555
C26 N11 1_555 1_555
C27 N11 1_555 1_555
C29 N12 1_555 1_555
C30 N12 1_555 1_555
C32 N13 1_555 1_555
C33 N13 1_555 1_555

#END
