
#######################################################################
#
#                 Cambridge Crystallographic Data Centre
#                                CCDC 
#
#######################################################################
#
# If this CIF has been generated from an entry in the Cambridge 
# Structural Database, then it will include bibliographic, chemical, 
# crystal, experimental, refinement or atomic coordinate data resulting 
# from the CCDC's data processing and validation procedures.
#
#######################################################################

data_BUCHUD
_symmetry_cell_setting           monoclinic
_symmetry_space_group_name_H-M   'P 21'
_symmetry_Int_Tables_number      4
_space_group_name_Hall           'P 2yb'
loop_
_symmetry_equiv_pos_site_id
_symmetry_equiv_pos_as_xyz
1 x,y,z
2 -x,1/2+y,-z
_cell_length_a                   8.1036(16)
_cell_length_b                   18.364(4)
_cell_length_c                   9.850(2)
_cell_angle_alpha                90
_cell_angle_beta                 108.81(3)
_cell_angle_gamma                90
_cell_volume                     1387.54
loop_
_atom_site_label
_atom_site_type_symbol
_atom_site_fract_x
_atom_site_fract_y
_atom_site_fract_z
N1 N 0.0661(4) 0.15105(19) 0.9264(3)
N2 N 0.1953(4) 0.08154(19) 0.6113(3)
C1 C -0.3499(5) 0.1814(2) 0.9987(4)
H1 H -0.3918 0.2023 0.9056
C2 C 0.1054(5) 0.1264(2) 0.6891(4)
H2 H -0.0207 0.1150 0.6535
H3 H 0.1195 0.1784 0.6687
N3 N -0.3699(4) 0.0583(2) 0.9039(4)
C3 C 0.1737(5) 0.1143(2) 0.8507(4)
H4 H 0.1764 0.0614 0.8705
H5 H 0.2947 0.1328 0.8886
C4 C -0.5581(5) 0.2737(2) 0.5473(4)
N4 N -0.3623(4) 0.1646(2) 0.6461(4)
C5 C -0.6554(5) 0.2971(2) 0.6326(5)
H6 H -0.6059 0.2945 0.7340
C6 C -0.3801(5) 0.0462(3) 0.5307(5)
H7 H -0.3234 0.0235 0.6203
C7 C 0.1296(5) 0.1291(2) 1.0783(4)
H8 H 0.1223 0.0760 1.0851
H9 H 0.0577 0.1520 1.1294
H10 H 0.2510 0.1445 1.1213
C8 C -0.8052(6) 0.3028(2) 0.3377(5)
H11 H -0.8570 0.3040 0.2364
C9 C -0.0602(5) -0.0558(2) 0.9176(5)
H12 H -0.1143 -0.0498 0.8173
C10 C -0.6361(5) 0.2776(2) 0.3981(4)
H13 H -0.5720 0.2626 0.3375
C11 C -0.4036(5) 0.1206(3) 0.5285(5)
H14 H -0.4527 0.1431 0.4374
C12 C -0.1541(5) -0.0418(2) 1.0111(5)
C13 C 0.0830(6) 0.2308(2) 0.9211(5)
H15 H 0.0078 0.2539 0.9692
H16 H 0.0479 0.2468 0.8209
H17 H 0.2045 0.2448 0.9698
C14 C 0.1121(6) -0.0785(2) 0.9707(5)
H18 H 0.1743 -0.0885 0.9059
C15 C -0.3723(5) 0.2442(2) 0.6176(5)
H19 H -0.3252 0.2688 0.7130
C16 C 0.1948(5) -0.0870(2) 1.1167(5)
H20 H 0.3126 -0.1027 1.1522
C17 C -0.8236(6) 0.3243(2) 0.5724(5)
H21 H -0.8864 0.3414 0.6325
C18 C -0.0703(6) -0.0499(2) 1.1559(5)
H22 H -0.1323 -0.0402 1.2210
C19 C -0.4387(6) -0.0004(3) 0.4004(5)
H23 H -0.5155 0.0279 0.3204
H24 H -0.5021 -0.0426 0.4191
H25 H -0.3370 -0.0170 0.3758
C20 C 0.1033(6) -0.0721(2) 1.2095(5)
H26 H 0.1585 -0.0769 1.3100
C21 C -0.3454(5) -0.0178(2) 0.9543(5)
H27 H -0.3908 -0.0207 1.0373
C22 C 0.1499(5) 0.1095(2) 0.4631(4)
H28 H 0.2076 0.0797 0.4091
H29 H 0.1889 0.1601 0.4652
H30 H 0.0234 0.1071 0.4169
C23 C -0.3013(7) 0.2307(3) 1.1277(5)
H31 H -0.2592 0.2013 1.2151
H32 H -0.4038 0.2586 1.1289
H33 H -0.2092 0.2642 1.1229
C24 C -0.3355(5) 0.1085(3) 1.0118(5)
H34 H -0.2970 0.0899 1.1069
C25 C -0.8990(6) 0.3264(2) 0.4251(5)
H35 H -1.0148 0.3439 0.3837
C26 C 0.1351(6) 0.0058(2) 0.6019(5)
H36 H 0.1543 -0.0134 0.6986
H37 H 0.2003 -0.0236 0.5535
H38 H 0.0105 0.0038 0.5472
C27 C -0.2529(5) 0.2662(3) 0.5309(5)
H39 H -0.1317 0.2546 0.5860
H40 H -0.2640 0.3186 0.5113
H41 H -0.2870 0.2393 0.4401
C28 C -0.4525(6) -0.0704(3) 0.8432(6)
H42 H -0.5754 -0.0561 0.8140
H43 H -0.4394 -0.1196 0.8839
H44 H -0.4121 -0.0698 0.7595
Li1 Li -0.2060(8) 0.1281(4) 0.8394(7)
Li2 Li 0.4783(8) 0.0908(4) 0.7023(7)
N3_2 N 0.6301(4) 0.0583(2) 0.9039(4)
N4_2 N 0.6377(4) 0.1646(2) 0.6461(4)
C6_2 C 0.6199(5) 0.0462(3) 0.5307(5)
H7_2 H 0.6766 0.0235 0.6203
C11_2 C 0.5964(5) 0.1206(3) 0.5285(5)
H14_2 H 0.5473 0.1431 0.4374
Li2_2 Li -0.5217(8) 0.0908(4) 0.7023(7)
loop_
_geom_bond_atom_site_label_1
_geom_bond_atom_site_label_2
_geom_bond_site_symmetry_1
_geom_bond_site_symmetry_2
N1 C3 1_555 1_555
N2 C2 1_555 1_555
C1 H1 1_555 1_555
C2 H2 1_555 1_555
H3 C2 1_555 1_555
N3 C21 1_555 1_555
C3 C2 1_555 1_555
H4 C3 1_555 1_555
H5 C3 1_555 1_555
C4 C5 1_555 1_555
N4 C11 1_555 1_555
C5 H6 1_555 1_555
C6 H7 1_555 1_555
C7 N1 1_555 1_555
H8 C7 1_555 1_555
H9 C7 1_555 1_555
H10 C7 1_555 1_555
C8 H11 1_555 1_555
C9 H12 1_555 1_555
C10 C4 1_555 1_555
H13 C10 1_555 1_555
C11 C6 1_555 1_555
H14 C11 1_555 1_555
C12 C9 1_555 1_555
C13 N1 1_555 1_555
H15 C13 1_555 1_555
H16 C13 1_555 1_555
H17 C13 1_555 1_555
C14 C9 1_555 1_555
H18 C14 1_555 1_555
C15 C4 1_555 1_555
H19 C15 1_555 1_555
C16 C14 1_555 1_555
H20 C16 1_555 1_555
C17 C5 1_555 1_555
H21 C17 1_555 1_555
C18 C12 1_555 1_555
H22 C18 1_555 1_555
C19 C6 1_555 1_555
H23 C19 1_555 1_555
H24 C19 1_555 1_555
H25 C19 1_555 1_555
C20 C16 1_555 1_555
H26 C20 1_555 1_555
C21 C12 1_555 1_555
H27 C21 1_555 1_555
C22 N2 1_555 1_555
H28 C22 1_555 1_555
H29 C22 1_555 1_555
H30 C22 1_555 1_555
C23 C1 1_555 1_555
H31 C23 1_555 1_555
H32 C23 1_555 1_555
H33 C23 1_555 1_555
C24 C1 1_555 1_555
H34 C24 1_555 1_555
C25 C8 1_555 1_555
H35 C25 1_555 1_555
C26 N2 1_555 1_555
H36 C26 1_555 1_555
H37 C26 1_555 1_555
H38 C26 1_555 1_555
C27 C15 1_555 1_555
H39 C27 1_555 1_555
H40 C27 1_555 1_555
H41 C27 1_555 1_555
C28 C21 1_555 1_555
H42 C28 1_555 1_555
H43 C28 1_555 1_555
H44 C28 1_555 1_555
Li1 N1 1_555 1_555
Li2 N2 1_555 1_555
N3_2 Li2 1_555 1_555
N4_2 Li2 1_555 1_555
C6_2 Li2 1_555 1_555
H7_2 C6_2 1_555 1_555
C11_2 Li2 1_555 1_555
H14_2 C11_2 1_555 1_555
Li2_2 N3 1_555 1_555
C1 Li1 1_555 1_555
N3 C24 1_555 1_555
N3 Li1 1_555 1_555
N4 C15 1_555 1_555
N4 Li1 1_555 1_555
N4 Li2_2 1_555 1_555
C6 Li2_2 1_555 1_555
C8 C10 1_555 1_555
C11 Li2_2 1_555 1_555
C17 C25 1_555 1_555
C18 C20 1_555 1_555
C24 Li1 1_555 1_555
N4_2 C11_2 1_555 1_555
C6_2 C11_2 1_555 1_555

#END
