
#######################################################################
#
#                 Cambridge Crystallographic Data Centre
#                                CCDC 
#
#######################################################################
#
# If this CIF has been generated from an entry in the Cambridge 
# Structural Database, then it will include bibliographic, chemical, 
# crystal, experimental, refinement or atomic coordinate data resulting 
# from the CCDC's data processing and validation procedures.
#
#######################################################################

data_BUCPAS
_symmetry_cell_setting           monoclinic
_symmetry_space_group_name_H-M   'P 21/n'
_symmetry_Int_Tables_number      14
_space_group_name_Hall           '-P 2yn'
loop_
_symmetry_equiv_pos_site_id
_symmetry_equiv_pos_as_xyz
1 x,y,z
2 1/2-x,1/2+y,1/2-z
3 -x,-y,-z
4 1/2+x,1/2-y,1/2+z
_cell_length_a                   12.32630(10)
_cell_length_b                   20.7018(2)
_cell_length_c                   18.2517(2)
_cell_angle_alpha                90
_cell_angle_beta                 91.6420(10)
_cell_angle_gamma                90
_cell_volume                     4655.49
loop_
_atom_site_label
_atom_site_type_symbol
_atom_site_fract_x
_atom_site_fract_y
_atom_site_fract_z
O7 O 0.8319(8) 0.2998(4) 0.9232(5)
H37 H 0.8460 0.2627 0.9060
H38 H 0.8331 0.3276 0.8890
O8 O 0.3948(15) 0.4672(9) 0.9594(10)
C49 C 0.2368(19) 0.5154(11) 0.8661(13)
H39 H 0.1601 0.5083 0.8692
H40 H 0.2716 0.4760 0.8521
H41 H 0.2499 0.5481 0.8302
N8 N 0.282(3) 0.5370(15) 0.9396(17)
C50 C 0.248(2) 0.6059(13) 0.9490(16)
H42 H 0.2437 0.6267 0.9020
H43 H 0.2995 0.6279 0.9802
H44 H 0.1776 0.6072 0.9706
C51 C 0.347(3) 0.5080(14) 0.9944(16)
H45 H 0.3516 0.5172 1.0443
O9 O -0.1788(13) 0.4227(7) 0.8839(9)
O10 O 0.0000 0.5000 1.0000
Pb1 Pb 0.12668(2) 0.18888(2) 0.94536(2)
Tb1 Tb 0.5000 0.5000 0.5000
C1 C 0.4163(5) 0.1849(3) 0.9601(3)
N1 N 0.1740(4) 0.3196(2) 0.9191(3)
N2 N 0.3229(4) 0.2185(3) 0.9391(2)
N3 N 0.4653(4) 0.2821(3) 0.9206(2)
C2 C 0.2803(5) 0.3238(3) 0.8829(3)
C3 C 0.6237(7) 0.3103(4) 0.7925(4)
H1 H 0.6530 0.2751 0.8178
C4 C 0.5070(5) 0.2241(4) 0.9478(3)
C5 C 0.5293(6) 0.3407(5) 0.9069(3)
C6 C 0.6118(6) 0.2037(5) 0.9639(4)
C7 C 0.6245(6) 0.1426(5) 0.9919(4)
C8 C 0.5540(5) 0.3510(3) 0.8269(3)
C9 C 0.1832(6) 0.3569(3) 0.9892(3)
H2 H 0.2546 0.3502 1.0116
H3 H 0.1750 0.4027 0.9789
C10 C 0.5346(6) 0.1028(5) 1.0046(4)
C11 C 0.5106(6) 0.4015(3) 0.7889(3)
H4 H 0.4637 0.4296 0.8120
C12 C 0.6511(6) 0.3209(4) 0.7208(4)
C13 C 0.0865(5) 0.3446(3) 0.8707(3)
H5 H 0.1090 0.3849 0.8486
H6 H 0.0225 0.3531 0.8990
C14 C 0.3562(4) 0.2754(3) 0.9155(3)
C15 C 0.4298(5) 0.1231(4) 0.9891(3)
N4 N 0.0811(5) 0.3691(3) 1.1034(3)
C16 C 0.6054(5) 0.3707(3) 0.6814(3)
C17 C 0.6328(5) 0.3793(3) 0.6019(3)
C18 C 0.5354(5) 0.4121(3) 0.7151(3)
N5 N 0.0365(4) 0.2851(3) 1.0326(3)
C19 C 0.0988(5) 0.3362(3) 1.0408(3)
O1 O 0.7032(4) 0.3434(2) 0.5761(2)
O2 O 0.5825(4) 0.4211(2) 0.5661(2)
N6 N 0.0012(5) 0.3102(2) 0.7500(3)
N7 N 0.0910(4) 0.2350(2) 0.8146(2)
C20 C 0.0523(5) 0.4168(3) 0.6997(3)
C21 C 0.2030(5) 0.4121(3) 1.2020(4)
C22 C 0.2137(5) 0.4977(3) 0.6467(3)
C23 C 0.0599(5) 0.2959(3) 0.8118(3)
O3 O 0.4033(5) 0.3216(3) 1.4214(4)
C24 C 0.1517(6) 0.3925(3) 0.6812(4)
C25 C -0.0380(5) 0.3742(3) 0.7276(4)
C26 C 0.0497(5) 0.2072(3) 0.7498(3)
C27 C -0.0060(5) 0.2546(3) 0.7085(3)
C28 C 0.3765(6) 0.3779(4) 1.4055(4)
C29 C 0.1142(5) 0.5225(3) 0.6655(3)
H7 H 0.1015 0.5666 0.6608
C30 C -0.0271(5) 0.2835(3) 1.0940(3)
C31 C 0.0000(6) 0.3359(3) 1.1387(3)
C32 C 0.2322(5) 0.4317(3) 0.6543(3)
C33 C 0.0332(6) 0.4830(3) 0.6914(3)
C34 C -0.0520(7) 0.2403(5) 0.6397(4)
C35 C 0.3165(5) 0.3899(3) 1.3350(4)
C36 C 0.2345(5) 0.4635(4) 1.2470(4)
C37 C 0.2892(5) 0.4519(4) 1.3134(4)
H8 H 0.3077 0.4865 1.3438
C38 C -0.0501(7) 0.3471(4) 1.2053(4)
C39 C -0.1079(7) 0.2408(4) 1.1145(4)
H9 H -0.1279 0.2055 1.0855
C40 C -0.0429(7) 0.1786(5) 0.6151(4)
C41 C 0.0089(7) 0.1316(4) 0.6558(4)
H10 H 0.0117 0.0898 0.6373
C42 C 0.2337(6) 0.3510(4) 1.2231(4)
H11 H 0.2171 0.3164 1.1923
C43 C 0.0572(7) 0.1444(4) 0.7239(4)
C44 C 0.2884(6) 0.3396(4) 1.2888(4)
C45 C 0.1392(7) 0.4259(4) 1.1320(4)
H12 H 0.0872 0.4600 1.1409
H13 H 0.1883 0.4413 1.0953
C46 C -0.1568(8) 0.2535(5) 1.1798(5)
H14 H -0.2119 0.2261 1.1945
C47 C -0.1280(8) 0.3052(5) 1.2251(5)
O4 O 0.2868(4) 0.6005(2) 0.6261(2)
O5 O 0.3796(4) 0.5157(2) 0.5884(2)
O6 O 0.3958(5) 0.4251(3) 1.4458(3)
C48 C 0.2991(5) 0.5411(3) 0.6179(3)
H15 H 0.367(5) 0.096(3) 1.001(3)
H16 H 0.538(5) 0.062(3) 1.017(3)
H17 H -0.042(7) 0.496(3) 0.701(4)
H18 H 0.310(5) 0.359(3) 0.884(3)
H19 H 0.595(7) 0.338(4) 0.937(4)
H20 H -0.095(6) 0.365(3) 0.690(4)
H21 H -0.080(7) 0.271(4) 0.623(5)
H22 H -0.046(8) 0.387(5) 1.230(6)
H23 H 0.477(6) 0.371(3) 0.915(4)
H24 H -0.070(6) 0.398(4) 0.773(4)
H25 H 0.321(7) 0.294(4) 1.306(4)
H26 H 0.084(5) 0.116(3) 0.756(4)
H27 H 0.165(6) 0.355(4) 0.685(4)
H28 H -0.072(7) 0.158(4) 0.567(5)
H29 H -0.150(8) 0.307(4) 1.277(6)
H30 H 0.229(6) 0.503(4) 1.230(4)
H31 H 0.304(5) 0.414(3) 0.634(3)
H32 H 0.667(7) 0.232(4) 0.958(4)
H33 H 0.705(6) 0.128(3) 1.015(4)
H34 H 0.694(7) 0.294(4) 0.705(5)
H35 H 0.256(7) 0.317(4) 0.822(5)
H36 H 0.489(9) 0.438(5) 0.674(6)
Pb1B Pb 0.87332(2) 0.81112(2) 0.05464(2)
C1B C 0.5837(5) 0.8151(3) 0.0399(3)
N1B N 0.8260(4) 0.6804(2) 0.0809(3)
N2B N 0.6771(4) 0.7815(3) 0.0609(2)
N3B N 0.5347(4) 0.7179(3) 0.0794(2)
C2B C 0.7197(5) 0.6762(3) 0.1171(3)
C3B C 0.3763(7) 0.6897(4) 0.2075(4)
H1B H 0.3470 0.7249 0.1822
C4B C 0.4930(5) 0.7759(4) 0.0522(3)
C5B C 0.4707(6) 0.6593(5) 0.0931(3)
C6B C 0.3882(6) 0.7963(5) 0.0361(4)
C7B C 0.3755(6) 0.8574(5) 0.0081(4)
C8B C 0.4460(5) 0.6490(3) 0.1731(3)
C9B C 0.8168(6) 0.6431(3) 0.0108(3)
H2B H 0.7454 0.6498 -0.0116
H3B H 0.8250 0.5973 0.0211
C10B C 0.4654(6) 0.8972(5) -0.0046(4)
C11B C 0.4894(6) 0.5985(3) 0.2111(3)
H4B H 0.5363 0.5704 0.1880
C12B C 0.3489(6) 0.6791(4) 0.2792(4)
C13B C 0.9135(5) 0.6554(3) 0.1293(3)
H5B H 0.8910 0.6151 0.1514
H6B H 0.9775 0.6469 0.1010
C14B C 0.6438(4) 0.7246(3) 0.0845(3)
C15B C 0.5702(5) 0.8769(4) 0.0109(3)
N4B N 0.9189(5) 0.6309(3) -0.1034(3)
C16B C 0.3946(5) 0.6293(3) 0.3186(3)
C17B C 0.3672(5) 0.6207(3) 0.3981(3)
C18B C 0.4646(5) 0.5879(3) 0.2849(3)
N5B N 0.9635(4) 0.7149(3) -0.0326(3)
C19B C 0.9012(5) 0.6638(3) -0.0408(3)
O1B O 0.2968(4) 0.6566(2) 0.4239(2)
O2B O 0.4175(4) 0.5789(2) 0.4339(2)
N6B N 0.9988(5) 0.6898(2) 0.2500(3)
N7B N 0.9090(4) 0.7650(2) 0.1854(2)
C20B C 0.9477(5) 0.5832(3) 0.3003(3)
C21B C 0.7970(5) 0.5879(3) -0.2020(4)
C22B C 0.7863(5) 0.5023(3) 0.3533(3)
C23B C 0.9401(5) 0.7041(3) 0.1882(3)
O3B O 0.5967(5) 0.6784(3) -0.4214(4)
C24B C 0.8483(6) 0.6075(3) 0.3188(4)
C25B C 1.0380(5) 0.6258(3) 0.2724(4)
C26B C 0.9503(5) 0.7928(3) 0.2502(3)
C27B C 1.0060(5) 0.7454(3) 0.2915(3)
C28B C 0.6235(6) 0.6221(4) -0.4055(4)
C29B C 0.8858(5) 0.4775(3) 0.3345(3)
H7B H 0.8985 0.4334 0.3392
C30B C 1.0271(5) 0.7165(3) -0.0940(3)
C31B C 1.0000(6) 0.6641(3) -0.1387(3)
C32B C 0.7678(5) 0.5683(3) 0.3457(3)
C33B C 0.9668(6) 0.5170(3) 0.3086(3)
C34B C 1.0520(7) 0.7597(5) 0.3603(4)
C35B C 0.6835(5) 0.6101(3) -0.3350(4)
C36B C 0.7655(5) 0.5365(4) -0.2470(4)
C37B C 0.7108(5) 0.5481(4) -0.3134(4)
H8B H 0.6923 0.5135 -0.3438
C38B C 1.0501(7) 0.6529(4) -0.2053(4)
C39B C 1.1079(7) 0.7592(4) -0.1145(4)
H9B H 1.1279 0.7945 -0.0855
C40B C 1.0429(7) 0.8214(5) 0.3849(4)
C41B C 0.9911(7) 0.8684(4) 0.3442(4)
H10B H 0.9883 0.9102 0.3627
C42B C 0.7663(6) 0.6490(4) -0.2231(4)
H11B H 0.7829 0.6836 -0.1923
C43B C 0.9428(7) 0.8556(4) 0.2761(4)
C44B C 0.7116(6) 0.6604(4) -0.2888(4)
C45B C 0.8608(7) 0.5741(4) -0.1320(4)
H12B H 0.9128 0.5400 -0.1409
H13B H 0.8117 0.5587 -0.0953
C46B C 1.1568(8) 0.7465(5) -0.1798(5)
H14B H 1.2119 0.7739 -0.1945
C47B C 1.1280(8) 0.6948(5) -0.2251(5)
O4B O 0.7132(4) 0.3995(2) 0.3739(2)
O5B O 0.6204(4) 0.4843(2) 0.4116(2)
O6B O 0.6042(5) 0.5749(3) -0.4458(3)
C48B C 0.7009(5) 0.4589(3) 0.3821(3)
H15B H 0.633(5) 0.904(3) -0.001(3)
H16B H 0.462(5) 0.938(3) -0.017(3)
H17B H 1.042(7) 0.504(3) 0.299(4)
H18B H 0.690(5) 0.641(3) 0.116(3)
H19B H 0.405(7) 0.662(4) 0.063(4)
H20B H 1.095(6) 0.635(3) 0.310(4)
H21B H 1.080(7) 0.729(4) 0.377(5)
H22B H 1.046(8) 0.613(5) -0.230(6)
H23B H 0.523(6) 0.629(3) 0.085(4)
H24B H 1.070(6) 0.602(4) 0.227(4)
H25B H 0.679(7) 0.706(4) -0.306(4)
H26B H 0.916(5) 0.884(3) 0.244(4)
H27B H 0.835(6) 0.645(4) 0.315(4)
H28B H 1.072(7) 0.842(4) 0.433(5)
H29B H 1.150(8) 0.693(4) -0.277(6)
H30B H 0.771(6) 0.497(4) -0.230(4)
H31B H 0.696(5) 0.586(3) 0.366(3)
H32B H 0.333(7) 0.768(4) 0.042(4)
H33B H 0.295(6) 0.872(3) -0.015(4)
H34B H 0.306(7) 0.706(4) 0.295(5)
H35B H 0.744(7) 0.683(4) 0.178(5)
H36B H 0.511(9) 0.562(5) 0.326(6)
Pb1A Pb 0.37332(2) 0.68888(2) -0.44536(2)
Pb1A_2 Pb 0.37332(2) 0.68888(2) 0.55464(2)
Pb1C Pb 0.62668(2) 0.31112(2) 0.44536(2)
Pb1C_2 Pb 0.62668(2) 0.31112(2) 1.44536(2)
Tb1_2 Tb 0.5000 0.5000 -0.5000
Tb1_3 Tb 0.5000 0.5000 1.5000
O1A O 0.7968(4) 0.8434(2) -0.0761(2)
O1C O 0.2032(4) 0.1566(2) 1.0761(2)
O3A O 1.0967(5) 0.8216(3) 0.0786(4)
O3C O -0.0967(5) 0.1784(3) 0.9214(4)
O4A O 0.2132(4) 0.1005(2) 0.8739(2)
O4C O 0.7868(4) 0.8995(2) 0.1261(2)
O6_2 O 0.3958(5) 0.4251(3) 0.4458(3)
O6B_2 O 0.6042(5) 0.5749(3) 0.5542(3)
loop_
_geom_bond_atom_site_label_1
_geom_bond_atom_site_label_2
_geom_bond_site_symmetry_1
_geom_bond_site_symmetry_2
Pb1 N1 1_555 1_555
Tb1 O2 1_555 1_555
C1 N2 1_555 1_555
N1 C2 1_555 1_555
N2 Pb1 1_555 1_555
N3 C4 1_555 1_555
C2 C14 1_555 1_555
C3 H1 1_555 1_555
C4 C1 1_555 1_555
C5 N3 1_555 1_555
C6 C4 1_555 1_555
C7 C6 1_555 1_555
C8 C3 1_555 1_555
C9 N1 1_555 1_555
H2 C9 1_555 1_555
H3 C9 1_555 1_555
C10 C7 1_555 1_555
C11 C8 1_555 1_555
H4 C11 1_555 1_555
C12 C3 1_555 1_555
C13 N1 1_555 1_555
H5 C13 1_555 1_555
H6 C13 1_555 1_555
C14 N2 1_555 1_555
C15 C1 1_555 1_555
N4 C19 1_555 1_555
C16 C12 1_555 1_555
C17 C16 1_555 1_555
C18 C11 1_555 1_555
N5 Pb1 1_555 1_555
C19 C9 1_555 1_555
O1 C17 1_555 1_555
O2 C17 1_555 1_555
N6 C23 1_555 1_555
N7 Pb1 1_555 1_555
C20 C24 1_555 1_555
C21 C36 1_555 1_555
C22 C29 1_555 1_555
C23 C13 1_555 1_555
O3 C28 1_555 1_555
C24 C32 1_555 1_555
C25 N6 1_555 1_555
C26 N7 1_555 1_555
C27 N6 1_555 1_555
C28 C35 1_555 1_555
C29 H7 1_555 1_555
C30 N5 1_555 1_555
C31 N4 1_555 1_555
C32 C22 1_555 1_555
C33 C20 1_555 1_555
C34 C27 1_555 1_555
C35 C37 1_555 1_555
C36 C37 1_555 1_555
C37 H8 1_555 1_555
C38 C31 1_555 1_555
C39 C30 1_555 1_555
H9 C39 1_555 1_555
C40 C34 1_555 1_555
C41 C40 1_555 1_555
H10 C41 1_555 1_555
C42 C21 1_555 1_555
H11 C42 1_555 1_555
C43 C26 1_555 1_555
C44 C35 1_555 1_555
C45 N4 1_555 1_555
H12 C45 1_555 1_555
H13 C45 1_555 1_555
C46 C39 1_555 1_555
H14 C46 1_555 1_555
C47 C38 1_555 1_555
O4 C48 1_555 1_555
O5 Tb1 1_555 1_555
O6 C28 1_555 1_555
C48 C22 1_555 1_555
H15 C15 1_555 1_555
H16 C10 1_555 1_555
H17 C33 1_555 1_555
H18 C2 1_555 1_555
H19 C5 1_555 1_555
H20 C25 1_555 1_555
H21 C34 1_555 1_555
H22 C38 1_555 1_555
H23 C5 1_555 1_555
H24 C25 1_555 1_555
H25 C44 1_555 1_555
H26 C43 1_555 1_555
H27 C24 1_555 1_555
H28 C40 1_555 1_555
H29 C47 1_555 1_555
H30 C36 1_555 1_555
H31 C32 1_555 1_555
H32 C6 1_555 1_555
H33 C7 1_555 1_555
H34 C12 1_555 1_555
H35 C2 1_555 1_555
H36 C18 1_555 1_555
O7 H37 1_555 1_555
H38 O7 1_555 1_555
O8 C51 1_555 1_555
C49 H39 1_555 1_555
H40 C49 1_555 1_555
H41 C49 1_555 1_555
N8 C49 1_555 1_555
C50 N8 1_555 1_555
H42 C50 1_555 1_555
H43 C50 1_555 1_555
H44 C50 1_555 1_555
C51 N8 1_555 1_555
H45 C51 1_555 1_555
Pb1B N1B 1_555 1_555
C1B N2B 1_555 1_555
N1B C2B 1_555 1_555
N2B Pb1B 1_555 1_555
N3B C4B 1_555 1_555
C2B C14B 1_555 1_555
C3B H1B 1_555 1_555
C4B C1B 1_555 1_555
C5B N3B 1_555 1_555
C6B C4B 1_555 1_555
C7B C6B 1_555 1_555
C8B C3B 1_555 1_555
C9B N1B 1_555 1_555
H2B C9B 1_555 1_555
H3B C9B 1_555 1_555
C10B C7B 1_555 1_555
C11B C8B 1_555 1_555
H4B C11B 1_555 1_555
C12B C3B 1_555 1_555
C13B N1B 1_555 1_555
H5B C13B 1_555 1_555
H6B C13B 1_555 1_555
C14B N2B 1_555 1_555
C15B C1B 1_555 1_555
N4B C19B 1_555 1_555
C16B C12B 1_555 1_555
C17B C16B 1_555 1_555
C18B C11B 1_555 1_555
N5B Pb1B 1_555 1_555
C19B C9B 1_555 1_555
O1B C17B 1_555 1_555
O2B Tb1 1_555 1_555
N6B C23B 1_555 1_555
N7B Pb1B 1_555 1_555
C20B C24B 1_555 1_555
C21B C36B 1_555 1_555
C22B C29B 1_555 1_555
C23B C13B 1_555 1_555
O3B C28B 1_555 1_555
C24B C32B 1_555 1_555
C25B N6B 1_555 1_555
C26B N7B 1_555 1_555
C27B N6B 1_555 1_555
C28B C35B 1_555 1_555
C29B H7B 1_555 1_555
C30B N5B 1_555 1_555
C31B N4B 1_555 1_555
C32B C22B 1_555 1_555
C33B C20B 1_555 1_555
C34B C27B 1_555 1_555
C35B C37B 1_555 1_555
C36B C37B 1_555 1_555
C37B H8B 1_555 1_555
C38B C31B 1_555 1_555
C39B C30B 1_555 1_555
H9B C39B 1_555 1_555
C40B C34B 1_555 1_555
C41B C40B 1_555 1_555
H10B C41B 1_555 1_555
C42B C21B 1_555 1_555
H11B C42B 1_555 1_555
C43B C26B 1_555 1_555
C44B C35B 1_555 1_555
C45B N4B 1_555 1_555
H12B C45B 1_555 1_555
H13B C45B 1_555 1_555
C46B C39B 1_555 1_555
H14B C46B 1_555 1_555
C47B C38B 1_555 1_555
O4B C48B 1_555 1_555
O5B Tb1 1_555 1_555
O6B C28B 1_555 1_555
C48B C22B 1_555 1_555
H15B C15B 1_555 1_555
H16B C10B 1_555 1_555
H17B C33B 1_555 1_555
H18B C2B 1_555 1_555
H19B C5B 1_555 1_555
H20B C25B 1_555 1_555
H21B C34B 1_555 1_555
H22B C38B 1_555 1_555
H23B C5B 1_555 1_555
H24B C25B 1_555 1_555
H25B C44B 1_555 1_555
H26B C43B 1_555 1_555
H27B C24B 1_555 1_555
H28B C40B 1_555 1_555
H29B C47B 1_555 1_555
H30B C36B 1_555 1_555
H31B C32B 1_555 1_555
H32B C6B 1_555 1_555
H33B C7B 1_555 1_555
H34B C12B 1_555 1_555
H35B C2B 1_555 1_555
H36B C18B 1_555 1_555
Pb1A O3B 1_555 1_555
Pb1A_2 O4 1_555 1_555
Pb1C O1 1_555 1_555
Pb1C_2 O3 1_555 1_555
Tb1_2 O6B 1_555 1_555
Tb1_3 O6 1_555 1_555
O1A Pb1B 1_555 1_555
O1C Pb1 1_555 1_555
O3A Pb1B 1_555 1_555
O3C Pb1 1_555 1_555
O4A Pb1 1_555 1_555
O4C Pb1B 1_555 1_555
O6_2 Tb1 1_555 1_555
O6B_2 Tb1 1_555 1_555
N3 C14 1_555 1_555
C5 C8 1_555 1_555
C10 C15 1_555 1_555
C16 C18 1_555 1_555
N5 C19 1_555 1_555
N7 C23 1_555 1_555
C20 C25 1_555 1_555
C21 C45 1_555 1_555
C26 C27 1_555 1_555
C29 C33 1_555 1_555
C30 C31 1_555 1_555
C41 C43 1_555 1_555
C42 C44 1_555 1_555
C46 C47 1_555 1_555
O5 C48 1_555 1_555
N3B C14B 1_555 1_555
C5B C8B 1_555 1_555
C10B C15B 1_555 1_555
C16B C18B 1_555 1_555
C17B O2B 1_555 1_555
N5B C19B 1_555 1_555
O1B Pb1A_2 1_555 1_555
N7B C23B 1_555 1_555
C20B C25B 1_555 1_555
C21B C45B 1_555 1_555
C26B C27B 1_555 1_555
C29B C33B 1_555 1_555
C30B C31B 1_555 1_555
C41B C43B 1_555 1_555
C42B C44B 1_555 1_555
C46B C47B 1_555 1_555
O4B Pb1C 1_555 1_555
O5B C48B 1_555 1_555

#END
