
#######################################################################
#
#                 Cambridge Crystallographic Data Centre
#                                CCDC 
#
#######################################################################
#
# If this CIF has been generated from an entry in the Cambridge 
# Structural Database, then it will include bibliographic, chemical, 
# crystal, experimental, refinement or atomic coordinate data resulting 
# from the CCDC's data processing and validation procedures.
#
#######################################################################

data_BUCPIA
_symmetry_cell_setting           triclinic
_symmetry_space_group_name_H-M   'P -1'
_symmetry_Int_Tables_number      2
_space_group_name_Hall           '-P 1'
loop_
_symmetry_equiv_pos_site_id
_symmetry_equiv_pos_as_xyz
1 x,y,z
2 -x,-y,-z
_cell_length_a                   11.7061(5)
_cell_length_b                   13.0527(4)
_cell_length_c                   17.9550(8)
_cell_angle_alpha                87.730(3)
_cell_angle_beta                 88.010(4)
_cell_angle_gamma                89.886(3)
_cell_volume                     2739.65
loop_
_atom_site_label
_atom_site_type_symbol
_atom_site_fract_x
_atom_site_fract_y
_atom_site_fract_z
C1 C -0.0788(5) 1.2823(4) 1.5141(3)
C2 C -0.2224(5) 1.4289(4) 1.8528(3)
C3 C -0.2528(5) 0.9752(4) 1.8438(3)
C4 C -0.1893(6) 1.3920(5) 1.4367(4)
C5 C 0.3985(5) 0.9038(4) 1.5461(3)
C6 C -0.3189(5) 1.0291(4) 1.7923(3)
C7 C -0.1244(6) 1.3202(5) 1.7677(4)
H1 H -0.1135 1.2552 1.7493
C8 C -0.1551(6) 1.5087(5) 1.8256(4)
H2 H -0.1641 1.5731 1.8454
C9 C -0.0742(6) 1.4944(5) 1.7691(4)
H3 H -0.0309 1.5500 1.7504
C10 C -0.2084(6) 1.3345(5) 1.8224(4)
H4 H -0.2556 1.2802 1.8385
C11 C 0.4152(5) 0.6605(4) 1.8242(3)
C12 C -0.1186(5) 1.4575(4) 1.5509(4)
C13 C 0.0292(4) 1.2269(4) 1.6029(3)
C14 C -0.1560(5) 0.9042(4) 1.8217(3)
H5 H -0.0844 0.9331 1.8366
H6 H -0.1665 0.8388 1.8486
C15 C -0.4025(5) 1.0969(4) 1.8166(3)
C16 C 0.4213(5) 0.9329(4) 1.6833(3)
C17 C 0.4195(5) 0.5664(4) 1.8744(3)
C18 C -0.1397(6) 1.2972(5) 1.4500(4)
C19 C 0.3091(5) 0.9194(4) 1.4977(3)
C20 C -0.3569(6) 1.0555(5) 1.9433(3)
H7 H -0.3699 1.0639 1.9941
C21 C 0.2449(4) 0.9619(4) 1.6063(3)
C22 C -0.3152(5) 1.4461(4) 1.9118(3)
C23 C -0.0892(4) 0.9420(4) 1.6873(3)
C24 C 0.1101(5) 1.1597(4) 1.6457(3)
H8 H 0.1858 1.1645 1.6222
H9 H 0.1146 1.1834 1.6961
C25 C -0.4212(5) 1.1115(4) 1.8923(3)
C26 C -0.0566(5) 1.3998(4) 1.7399(3)
C27 C -0.1730(5) 0.8224(4) 1.6304(3)
C28 C 0.3826(5) 0.6543(5) 1.7513(3)
C29 C 0.3244(6) 0.8960(5) 1.4232(3)
C30 C -0.1789(5) 1.4705(5) 1.4868(4)
C31 C 0.1667(5) 0.9845(4) 1.6711(3)
H10 H 0.1356 0.9208 1.6927
H11 H 0.2097 1.0169 1.7089
C32 C -0.5014(5) 1.1931(4) 1.9184(3)
C33 C -0.2045(5) 0.8097(4) 1.7061(3)
C34 C 0.5042(5) 0.8640(4) 1.5236(4)
C35 C -0.0676(5) 1.3627(4) 1.5633(3)
C36 C -0.2747(6) 0.9883(5) 1.9198(3)
H12 H -0.2330 0.9510 1.9547
C37 C 0.0383(5) 1.3848(4) 1.6816(3)
H13 H 0.0646 1.4514 1.6623
H14 H 0.1021 1.3504 1.7050
C38 C 0.4281(6) 0.8562(5) 1.4003(4)
H15 H 0.4394 0.8390 1.3508
C39 C 0.3822(6) 0.7422(4) 1.7048(3)
C40 C 0.4435(8) 0.7539(5) 1.8504(4)
H16 H 0.4646 0.7588 1.8996
C41 C 0.5168(5) 0.8410(5) 1.4496(4)
H17 H 0.5861 0.8148 1.4320
C42 C 0.4125(5) 0.8362(4) 1.7314(3)
C43 C -0.2156(5) 0.7567(4) 1.5796(4)
H18 H -0.1953 0.7634 1.5291
C44 C -0.0246(6) 1.0378(5) 1.7020(3)
C45 C -0.2781(6) 0.7331(5) 1.7339(4)
H19 H -0.2979 0.7251 1.7844
C46 C 0.4409(8) 0.8408(5) 1.8041(4)
H20 H 0.4590 0.9039 1.8229
C47 C -0.3197(6) 0.6702(5) 1.6821(4)
H21 H -0.3702 0.6183 1.6981
C48 C -0.2898(5) 0.6805(5) 1.6069(4)
H22 H -0.3202 0.6354 1.5741
N1 N -0.1483(4) 0.8869(3) 1.7420(3)
N2 N -0.2062(17) 1.7166(14) 1.9957(10)
N3 N 0.3567(4) 0.9327(3) 1.6149(2)
N4 N 0.2138(4) 0.9567(3) 1.5368(2)
N5 N -0.0170(4) 1.1975(3) 1.5407(3)
N6 N 0.0018(4) 1.3244(3) 1.6193(2)
N7 N -0.1006(4) 0.9064(3) 1.6205(2)
N8 N 0.0721(4) 1.0524(3) 1.6486(2)
O1 O 0.3763(4) 0.4836(3) 1.8556(2)
O2 O -0.2231(4) 1.6630(4) 2.0627(3)
O3 O 0.4665(3) 0.5721(3) 1.9366(2)
O4 O -0.2987(6) 1.7275(4) 1.9386(3)
O5 O -0.1122(18) 1.7602(15) 1.9976(11)
O6 O -0.4023(3) 1.3907(3) 1.9097(2)
O7 O -0.4994(5) 1.2152(3) 1.9859(2)
O8 O -0.2982(4) 1.5151(3) 1.9571(2)
O9 O -0.5650(4) 1.2405(3) 1.8736(2)
Tb1 Tb -0.41291(3) 1.61869(2) 2.03264(2)
Pb1 Pb 0.0000 1.0000 1.5000
H23 H 0.011(6) 1.039(5) 1.755(4)
H24 H 0.267(6) 0.908(4) 1.396(4)
H25 H -0.225(5) 1.406(4) 1.387(3)
H26 H -0.450(5) 1.139(4) 1.779(3)
H27 H -0.311(6) 1.013(5) 1.738(4)
H28 H -0.062(5) 1.077(5) 1.701(3)
H29 H 0.354(7) 0.747(6) 1.663(5)
H30 H -0.144(5) 1.252(5) 1.416(4)
H31 H 0.357(5) 0.592(5) 1.736(3)
H32 H 0.564(6) 0.856(5) 1.554(4)
H33 H -0.103(6) 1.512(5) 1.593(4)
H34 H 0.398(6) 0.990(5) 1.710(4)
H35 H -0.209(5) 1.530(5) 1.473(3)
H36 H 0.499(7) 0.944(5) 1.665(4)
C1A C -0.9212(5) 1.7177(4) 2.4859(3)
C2A C -0.7776(5) 1.5711(4) 2.1472(3)
C3A C -0.7472(5) 2.0248(4) 2.1562(3)
C4A C -0.8107(6) 1.6080(5) 2.5633(4)
C5A C -1.3985(5) 2.0962(4) 2.4539(3)
C6A C -0.6811(5) 1.9709(4) 2.2077(3)
C7A C -0.8756(6) 1.6798(5) 2.2323(4)
H1A H -0.8865 1.7448 2.2507
C8A C -0.8449(6) 1.4913(5) 2.1744(4)
H2A H -0.8359 1.4269 2.1546
C9A C -0.9258(6) 1.5056(5) 2.2309(4)
H3A H -0.9691 1.4500 2.2496
C10A C -0.7916(6) 1.6655(5) 2.1776(4)
H4A H -0.7444 1.7198 2.1615
C11A C -1.4152(5) 2.3395(4) 2.1758(3)
C12A C -0.8814(5) 1.5425(4) 2.4491(4)
C13A C -1.0292(4) 1.7731(4) 2.3971(3)
C14A C -0.8440(5) 2.0958(4) 2.1783(3)
H5A H -0.9156 2.0669 2.1634
H6A H -0.8335 2.1612 2.1514
C15A C -0.5975(5) 1.9031(4) 2.1834(3)
C16A C -1.4213(5) 2.0671(4) 2.3167(3)
C17A C -1.4195(5) 2.4336(4) 2.1256(3)
C18A C -0.8603(6) 1.7028(5) 2.5500(4)
C19A C -1.3091(5) 2.0806(4) 2.5023(3)
C20A C -0.6431(6) 1.9445(5) 2.0567(3)
H7A H -0.6301 1.9361 2.0059
C21A C -1.2449(4) 2.0381(4) 2.3937(3)
C22A C -0.6848(5) 1.5539(4) 2.0882(3)
C23A C -0.9108(4) 2.0580(4) 2.3127(3)
C24A C -1.1101(5) 1.8403(4) 2.3543(3)
H8A H -1.1858 1.8355 2.3778
H9A H -1.1146 1.8166 2.3039
C25A C -0.5788(5) 1.8885(4) 2.1077(3)
C26A C -0.9434(5) 1.6002(4) 2.2601(3)
C27A C -0.8270(5) 2.1776(4) 2.3696(3)
C28A C -1.3826(5) 2.3457(5) 2.2487(3)
C29A C -1.3244(6) 2.1040(5) 2.5768(3)
C30A C -0.8211(5) 1.5295(5) 2.5132(4)
C31A C -1.1667(5) 2.0155(4) 2.3289(3)
H10A H -1.1356 2.0792 2.3073
H11A H -1.2097 1.9831 2.2911
C32A C -0.4986(5) 1.8069(4) 2.0816(3)
C33A C -0.7955(5) 2.1903(4) 2.2939(3)
C34A C -1.5042(5) 2.1360(4) 2.4764(4)
C35A C -0.9324(5) 1.6373(4) 2.4367(3)
C36A C -0.7253(6) 2.0117(5) 2.0802(3)
H12A H -0.7670 2.0490 2.0453
C37A C -1.0383(5) 1.6152(4) 2.3184(3)
H13A H -1.0646 1.5486 2.3377
H14A H -1.1021 1.6496 2.2950
C38A C -1.4281(6) 2.1438(5) 2.5997(4)
H15A H -1.4394 2.1610 2.6492
C39A C -1.3822(6) 2.2578(4) 2.2952(3)
C40A C -1.4435(8) 2.2461(5) 2.1496(4)
H16A H -1.4646 2.2412 2.1004
C41A C -1.5168(5) 2.1590(5) 2.5504(4)
H17A H -1.5861 2.1852 2.5680
C42A C -1.4125(5) 2.1638(4) 2.2686(3)
C43A C -0.7844(5) 2.2433(4) 2.4204(4)
H18A H -0.8047 2.2366 2.4709
C44A C -0.9754(6) 1.9622(5) 2.2980(3)
C45A C -0.7219(6) 2.2669(5) 2.2661(4)
H19A H -0.7021 2.2749 2.2156
C46A C -1.4409(8) 2.1592(5) 2.1959(4)
H20A H -1.4590 2.0961 2.1771
C47A C -0.6803(6) 2.3298(5) 2.3179(4)
H21A H -0.6298 2.3817 2.3019
C48A C -0.7102(5) 2.3195(5) 2.3931(4)
H22A H -0.6798 2.3646 2.4259
N1A N -0.8517(4) 2.1131(3) 2.2580(3)
N2A N -0.7938(17) 1.2834(14) 2.0043(10)
N3A N -1.3567(4) 2.0673(3) 2.3851(2)
N4A N -1.2138(4) 2.0433(3) 2.4632(2)
N5A N -0.9830(4) 1.8025(3) 2.4593(3)
N6A N -1.0018(4) 1.6756(3) 2.3807(2)
N7A N -0.8994(4) 2.0936(3) 2.3795(2)
N8A N -1.0721(4) 1.9476(3) 2.3514(2)
O1A O -1.3763(4) 2.5164(3) 2.1444(2)
O2A O -0.7769(4) 1.3370(4) 1.9373(3)
O3A O -1.4665(3) 2.4279(3) 2.0634(2)
O4A O -0.7013(6) 1.2725(4) 2.0614(3)
O5A O -0.8878(18) 1.2398(15) 2.0024(11)
O6A O -0.5977(3) 1.6093(3) 2.0903(2)
O7A O -0.5006(5) 1.7848(3) 2.0141(2)
O8A O -0.7018(4) 1.4849(3) 2.0429(2)
O9A O -0.4350(4) 1.7595(3) 2.1264(2)
Tb1A Tb -0.58709(3) 1.38131(2) 1.96736(2)
H23A H -1.011(6) 1.961(5) 2.245(4)
H24A H -1.267(6) 2.092(4) 2.604(4)
H25A H -0.775(5) 1.594(4) 2.613(3)
H26A H -0.550(5) 1.861(4) 2.221(3)
H27A H -0.689(6) 1.987(5) 2.262(4)
H28A H -0.938(5) 1.923(5) 2.299(3)
H29A H -1.354(7) 2.253(6) 2.337(5)
H30A H -0.856(5) 1.748(5) 2.584(4)
H31A H -1.357(5) 2.408(5) 2.264(3)
H32A H -1.564(6) 2.144(5) 2.446(4)
H33A H -0.897(6) 1.488(5) 2.407(4)
H34A H -1.398(6) 2.010(5) 2.290(4)
H35A H -0.791(5) 1.470(5) 2.527(3)
H36A H -1.499(7) 2.056(5) 2.335(4)
N4A_2 N -0.2138(4) 1.0433(3) 1.4632(2)
N5A_2 N 0.0170(4) 0.8025(3) 1.4593(3)
N7A_2 N 0.1006(4) 1.0936(3) 1.3795(2)
O1_2 O -0.6237(4) 1.4836(3) 1.8556(2)
O1A_2 O -0.3763(4) 1.5164(3) 2.1444(2)
O3_2 O -0.5335(3) 1.5721(3) 1.9366(2)
O3A_2 O -0.4665(3) 1.4279(3) 2.0634(2)
Tb1_2 Tb -1.41291(3) 2.61869(2) 2.03264(2)
Tb1_3 Tb 0.58709(3) 0.61869(2) 2.03264(2)
Tb1A_2 Tb -1.58709(3) 2.38131(2) 1.96736(2)
Tb1A_3 Tb 0.41291(3) 0.38131(2) 1.96736(2)
Pb1_2 Pb -1.0000 2.0000 2.5000
C49 C 0.1087(15) 0.5862(12) 1.9209(9)
H37 H 0.1805 0.5517 1.9268
H38 H 0.0710 0.5598 1.8791
H39 H 0.0615 0.5750 1.9653
C50 C 0.1647(19) 0.7678(16) 1.9688(11)
H40 H 0.1413 0.7400 2.0172
H41 H 0.1291 0.8333 1.9604
H42 H 0.2463 0.7757 1.9662
C51 C 0.1030(10) 0.7326(9) 1.8395(6)
H43 H 0.0731 0.6889 1.8054
N9 N 0.1283(9) 0.6938(8) 1.9083(6)
O10 O 0.1182(10) 0.8245(8) 1.8200(6)
C52 C 0.5533(8) 1.3842(6) 1.7196(4)
H44 H 0.6233 1.3545 1.7012
H45 H 0.5243 1.3440 1.7621
H46 H 0.5673 1.4530 1.7340
C53 C 0.5036(7) 1.4306(7) 1.5894(4)
H47 H 0.4966 1.5038 1.5902
H48 H 0.4546 1.4050 1.5526
H49 H 0.5814 1.4126 1.5772
C54 C 0.3670(7) 1.3473(5) 1.6739(4)
H50 H 0.3484 1.3216 1.7218
N10 N 0.4707(5) 1.3858(4) 1.6620(3)
O11 O 0.2924(4) 1.3425(4) 1.6269(4)
O12 O -0.7090(7) 1.1211(6) 1.7968(4)
O13 O 0.1271(14) 1.0042(12) 1.8845(9)
O14 O 0.136(2) 1.2484(17) 1.8285(12)
loop_
_geom_bond_atom_site_label_1
_geom_bond_atom_site_label_2
_geom_bond_site_symmetry_1
_geom_bond_site_symmetry_2
C1 C18 1_555 1_555
C2 C8 1_555 1_555
C3 C6 1_555 1_555
C4 C18 1_555 1_555
C5 C19 1_555 1_555
C6 C15 1_555 1_555
C7 H1 1_555 1_555
C8 H2 1_555 1_555
C9 C8 1_555 1_555
H3 C9 1_555 1_555
C10 C2 1_555 1_555
H4 C10 1_555 1_555
C11 C17 1_555 1_555
C12 C30 1_555 1_555
C13 C24 1_555 1_555
C14 C3 1_555 1_555
H5 C14 1_555 1_555
H6 C14 1_555 1_555
C15 C25 1_555 1_555
C16 C42 1_555 1_555
C17 O1 1_555 1_555
C18 H30 1_555 1_555
C19 C29 1_555 1_555
C20 H7 1_555 1_555
C21 C31 1_555 1_555
C22 C2 1_555 1_555
C23 C44 1_555 1_555
C24 H8 1_555 1_555
H9 C24 1_555 1_555
C25 C20 1_555 1_555
C26 C7 1_555 1_555
C27 C33 1_555 1_555
C28 C11 1_555 1_555
C29 C38 1_555 1_555
C30 C4 1_555 1_555
C31 H10 1_555 1_555
H11 C31 1_555 1_555
C32 C25 1_555 1_555
C33 C45 1_555 1_555
C34 C5 1_555 1_555
C35 C1 1_555 1_555
C36 C3 1_555 1_555
H12 C36 1_555 1_555
C37 C26 1_555 1_555
H13 C37 1_555 1_555
H14 C37 1_555 1_555
C38 H15 1_555 1_555
C39 C28 1_555 1_555
C40 C11 1_555 1_555
H16 C40 1_555 1_555
C41 C34 1_555 1_555
H17 C41 1_555 1_555
C42 C39 1_555 1_555
C43 C27 1_555 1_555
H18 C43 1_555 1_555
C44 N8 1_555 1_555
C45 H19 1_555 1_555
C46 C40 1_555 1_555
H20 C46 1_555 1_555
C47 C45 1_555 1_555
H21 C47 1_555 1_555
C48 C43 1_555 1_555
H22 C48 1_555 1_555
N1 C14 1_555 1_555
N2 O2 1_555 1_555
N3 C5 1_555 1_555
N4 C19 1_555 1_555
N5 C1 1_555 1_555
N6 C13 1_555 1_555
N7 C23 1_555 1_555
N8 C24 1_555 1_555
O1 Tb1A_3 1_555 1_555
O2 Tb1 1_555 1_555
O3 C17 1_555 1_555
O4 N2 1_555 1_555
O5 N2 1_555 1_555
O6 C22 1_555 1_555
O7 C32 1_555 1_555
O8 C22 1_555 1_555
O9 C32 1_555 1_555
Tb1 O4 1_555 1_555
Pb1 N4 1_555 1_555
H23 C44 1_555 1_555
H24 C29 1_555 1_555
H25 C4 1_555 1_555
H26 C15 1_555 1_555
H27 C6 1_555 1_555
H28 C44 1_555 1_555
H29 C39 1_555 1_555
H31 C28 1_555 1_555
H32 C34 1_555 1_555
H33 C12 1_555 1_555
H34 C16 1_555 1_555
H35 C30 1_555 1_555
H36 C16 1_555 1_555
C49 H37 1_555 1_555
H38 C49 1_555 1_555
H39 C49 1_555 1_555
C50 H40 1_555 1_555
H41 C50 1_555 1_555
H42 C50 1_555 1_555
C51 H43 1_555 1_555
N9 C49 1_555 1_555
O10 C51 1_555 1_555
C52 H44 1_555 1_555
H45 C52 1_555 1_555
H46 C52 1_555 1_555
C53 H47 1_555 1_555
H48 C53 1_555 1_555
H49 C53 1_555 1_555
C54 H50 1_555 1_555
N10 C52 1_555 1_555
O11 C54 1_555 1_555
C1A C18A 1_555 1_555
C2A C8A 1_555 1_555
C3A C6A 1_555 1_555
C4A C18A 1_555 1_555
C5A C19A 1_555 1_555
C6A C15A 1_555 1_555
C7A H1A 1_555 1_555
C8A H2A 1_555 1_555
C9A C8A 1_555 1_555
H3A C9A 1_555 1_555
C10A C2A 1_555 1_555
H4A C10A 1_555 1_555
C11A C17A 1_555 1_555
C12A C30A 1_555 1_555
C13A C24A 1_555 1_555
C14A C3A 1_555 1_555
H5A C14A 1_555 1_555
H6A C14A 1_555 1_555
C15A C25A 1_555 1_555
C16A C42A 1_555 1_555
C17A O1A 1_555 1_555
C18A H30A 1_555 1_555
C19A C29A 1_555 1_555
C20A H7A 1_555 1_555
C21A C31A 1_555 1_555
C22A C2A 1_555 1_555
C23A C44A 1_555 1_555
C24A H8A 1_555 1_555
H9A C24A 1_555 1_555
C25A C20A 1_555 1_555
C26A C7A 1_555 1_555
C27A C33A 1_555 1_555
C28A C11A 1_555 1_555
C29A C38A 1_555 1_555
C30A C4A 1_555 1_555
C31A H10A 1_555 1_555
H11A C31A 1_555 1_555
C32A C25A 1_555 1_555
C33A C45A 1_555 1_555
C34A C5A 1_555 1_555
C35A C1A 1_555 1_555
C36A C3A 1_555 1_555
H12A C36A 1_555 1_555
C37A C26A 1_555 1_555
H13A C37A 1_555 1_555
H14A C37A 1_555 1_555
C38A H15A 1_555 1_555
C39A C28A 1_555 1_555
C40A C11A 1_555 1_555
H16A C40A 1_555 1_555
C41A C34A 1_555 1_555
H17A C41A 1_555 1_555
C42A C39A 1_555 1_555
C43A C27A 1_555 1_555
H18A C43A 1_555 1_555
C44A N8A 1_555 1_555
C45A H19A 1_555 1_555
C46A C40A 1_555 1_555
H20A C46A 1_555 1_555
C47A C45A 1_555 1_555
H21A C47A 1_555 1_555
C48A C43A 1_555 1_555
H22A C48A 1_555 1_555
N1A C14A 1_555 1_555
N2A O2A 1_555 1_555
N3A C5A 1_555 1_555
N4A C19A 1_555 1_555
N5A C1A 1_555 1_555
N6A C13A 1_555 1_555
N7A C23A 1_555 1_555
N8A C24A 1_555 1_555
O1A Tb1_2 1_555 1_555
O2A Tb1A 1_555 1_555
O3A C17A 1_555 1_555
O4A N2A 1_555 1_555
O5A N2A 1_555 1_555
O6A Tb1 1_555 1_555
O7A Tb1 1_555 1_555
O8A C22A 1_555 1_555
O9A Tb1 1_555 1_555
Tb1A O6 1_555 1_555
H23A C44A 1_555 1_555
H24A C29A 1_555 1_555
H25A C4A 1_555 1_555
H26A C15A 1_555 1_555
H27A C6A 1_555 1_555
H28A C44A 1_555 1_555
H29A C39A 1_555 1_555
H31A C28A 1_555 1_555
H32A C34A 1_555 1_555
H33A C12A 1_555 1_555
H34A C16A 1_555 1_555
H35A C30A 1_555 1_555
H36A C16A 1_555 1_555
N4A_2 Pb1 1_555 1_555
N5A_2 Pb1 1_555 1_555
N7A_2 Pb1 1_555 1_555
O1_2 Tb1A 1_555 1_555
O1A_2 Tb1 1_555 1_555
O3_2 Tb1 1_555 1_555
O3A_2 Tb1 1_555 1_555
Tb1_2 O3A 1_555 1_555
Tb1_3 O3 1_555 1_555
Tb1A_2 O3A 1_555 1_555
Tb1A_3 O3 1_555 1_555
Pb1_2 N4A 1_555 1_555
C7 C10 1_555 1_555
C9 C26 1_555 1_555
C12 C35 1_555 1_555
C13 N5 1_555 1_555
C16 N3 1_555 1_555
C20 C36 1_555 1_555
C21 N3 1_555 1_555
C21 N4 1_555 1_555
C23 N1 1_555 1_555
C27 N7 1_555 1_555
C31 N8 1_555 1_555
C33 N1 1_555 1_555
C35 N6 1_555 1_555
C37 N6 1_555 1_555
C38 C41 1_555 1_555
C42 C46 1_555 1_555
C47 C48 1_555 1_555
N5 Pb1 1_555 1_555
N7 Pb1 1_555 1_555
O7 Tb1A 1_555 1_555
O8 Tb1 1_555 1_555
O9 Tb1A 1_555 1_555
C50 N9 1_555 1_555
C51 N9 1_555 1_555
C53 N10 1_555 1_555
C54 N10 1_555 1_555
C7A C10A 1_555 1_555
C9A C26A 1_555 1_555
C12A C35A 1_555 1_555
C13A N5A 1_555 1_555
C16A N3A 1_555 1_555
C20A C36A 1_555 1_555
C21A N3A 1_555 1_555
C21A N4A 1_555 1_555
C22A O6A 1_555 1_555
C23A N1A 1_555 1_555
C27A N7A 1_555 1_555
C31A N8A 1_555 1_555
C32A O7A 1_555 1_555
C32A O9A 1_555 1_555
C33A N1A 1_555 1_555
C35A N6A 1_555 1_555
C37A N6A 1_555 1_555
C38A C41A 1_555 1_555
C42A C46A 1_555 1_555
C47A C48A 1_555 1_555
N5A Pb1_2 1_555 1_555
N7A Pb1_2 1_555 1_555
O4A Tb1A 1_555 1_555
O8A Tb1A 1_555 1_555
Tb1A O3_2 1_555 1_555
Tb1A O3A_2 1_555 1_555

#END
