
#######################################################################
#
#                 Cambridge Crystallographic Data Centre
#                                CCDC 
#
#######################################################################
#
# If this CIF has been generated from an entry in the Cambridge 
# Structural Database, then it will include bibliographic, chemical, 
# crystal, experimental, refinement or atomic coordinate data resulting 
# from the CCDC's data processing and validation procedures.
#
#######################################################################

data_BUCREX
_symmetry_cell_setting           triclinic
_symmetry_space_group_name_H-M   'P -1'
_symmetry_Int_Tables_number      2
_space_group_name_Hall           '-P 1'
loop_
_symmetry_equiv_pos_site_id
_symmetry_equiv_pos_as_xyz
1 x,y,z
2 -x,-y,-z
_cell_length_a                   10.5063(4)
_cell_length_b                   10.8858(4)
_cell_length_c                   15.6464(6)
_cell_angle_alpha                105.5640(10)
_cell_angle_beta                 95.2460(10)
_cell_angle_gamma                104.0240(10)
_cell_volume                     1648.87
loop_
_atom_site_label
_atom_site_type_symbol
_atom_site_fract_x
_atom_site_fract_y
_atom_site_fract_z
U1 U 0.45838(2) 0.752950(19) 0.025810(13)
U2 U 0.099500(19) 0.682730(19) -0.343770(13)
U3 U 0.16952(2) 1.151370(19) -0.309500(13)
P1 P 0.71609(14) 0.59765(14) 0.08870(9)
P2 P 0.26015(14) 0.97426(14) -0.16317(9)
P3 P -0.02180(14) 0.66669(13) -0.56330(9)
O1 O -0.0200(4) 0.7205(4) -0.2768(3)
O2 O 0.2218(4) 0.6447(4) -0.4097(3)
O3 O 0.3813(4) 0.7042(4) 0.1126(3)
O4 O 0.3435(4) 1.1845(4) -0.3119(3)
O5 O 0.1487(5) 1.0291(4) -0.4711(3)
O6 O 0.5294(4) 0.7958(4) -0.0636(3)
O7 O 0.3305(4) 0.9215(4) 0.0452(3)
O8 O 0.1788(4) 1.0523(4) -0.1998(3)
O9 O -0.0045(4) 1.1155(4) -0.3074(3)
O10 O -0.1345(4) 0.7006(4) -0.6126(3)
O11 O 0.2416(4) 0.7395(4) -0.0634(3)
O12 O 0.2588(4) 0.8459(4) -0.2339(3)
O13 O 0.1383(4) 0.8998(4) -0.3847(3)
O14 O 0.4028(4) 1.0545(4) -0.1239(3)
O15 O 0.0069(4) 0.5421(4) -0.6207(3)
O16 O 0.1914(6) 0.5881(5) -0.2337(3)
O17 O 0.7885(4) 0.6591(4) 0.1854(3)
O18 O 0.6372(4) 0.6818(4) 0.0581(3)
O19 O 0.8542(6) 0.7507(6) -0.0598(4)
O20 O 1.0081(6) 0.8012(6) 0.0579(4)
H1 H 1.0415 0.7610 0.0870
O21 O -0.0487(4) 0.6571(4) -0.4708(2)
O22 O 0.6310(4) 0.4569(4) 0.0728(3)
C1 C 0.1391(6) 0.9157(5) -0.4628(4)
C2 C 0.2500(5) 0.8595(6) -0.0284(4)
C3 C 0.1775(6) 0.9317(6) -0.0742(4)
H2 H 0.1725 1.0121 -0.0307
H3 H 0.0874 0.8765 -0.0994
C4 C 0.1327(5) 0.8000(5) -0.5416(4)
H4 H 0.1405 0.8296 -0.5946
H5 H 0.2075 0.7654 -0.5310
C5 C 0.8441(7) 0.5856(7) 0.0172(5)
H6 H 0.9144 0.5594 0.0460
H7 H 0.8054 0.5181 -0.0400
C6 C 0.9022(8) 0.7182(8) 0.0009(5)
H20 H 0.176(9) 0.522(9) -0.235(6)
H21 H 0.186(7) 0.634(8) -0.172(6)
U1A U 0.54162(2) 1.247050(19) -0.025810(13)
U1A_2 U 0.54162(2) 0.247050(19) -0.025810(13)
U2A U -0.099500(19) 0.317270(19) -0.656230(13)
U3A U -0.16952(2) 0.848630(19) -0.690500(13)
U3A_2 U 0.83048(2) 0.848630(19) 0.309500(13)
O10A O 0.1345(4) 1.2994(4) -0.3874(3)
O14A O 0.5972(4) 0.9455(4) 0.1239(3)
O15A O -0.0069(4) 0.4579(4) -0.3793(3)
O17A O 0.2115(4) 1.3409(4) -0.1854(3)
O22A O 0.3690(4) 0.5431(4) -0.0728(3)
N1 N 0.3013(6) 1.0698(6) 0.2074(4)
H8 H 0.2810 1.0286 0.1507
N2 N 0.6283(7) 1.5889(7) 0.7942(4)
H9 H 0.6517 1.6356 0.8498
C7 C 0.3633(6) 1.2069(7) 0.3860(4)
C8 C 0.2322(7) 1.1569(7) 0.3438(4)
H10 H 0.1641 1.1697 0.3762
C9 C 0.3945(7) 1.2866(7) 0.4822(4)
H11 H 0.3241 1.2920 0.5136
C10 C 0.5163(7) 1.3503(7) 0.5259(4)
H12 H 0.5857 1.3405 0.4943
C11 C 0.5526(7) 1.4351(7) 0.6197(4)
C12 C 0.4604(7) 1.4776(7) 0.6708(5)
H13 H 0.3710 1.4521 0.6452
C13 C 0.2030(7) 1.0889(7) 0.2546(5)
H14 H 0.1148 1.0554 0.2261
C14 C 0.4629(7) 1.1821(8) 0.3343(5)
H15 H 0.5521 1.2131 0.3608
C15 C 0.4265(7) 1.1121(8) 0.2451(5)
H16 H 0.4914 1.0943 0.2109
C16 C 0.4999(8) 1.5553(8) 0.7572(5)
H17 H 0.4386 1.5851 0.7906
C17 C 0.6864(8) 1.4775(8) 0.6608(5)
H18 H 0.7511 1.4540 0.6282
C18 C 0.7214(8) 1.5537(8) 0.7492(5)
H19 H 0.8096 1.5805 0.7774
O23 O 1.1195(7) 1.7002(9) 0.1766(5)
O24 O 0.6257(12) 1.1599(12) 0.6882(10)
loop_
_geom_bond_atom_site_label_1
_geom_bond_atom_site_label_2
_geom_bond_site_symmetry_1
_geom_bond_site_symmetry_2
U1 O3 1_555 1_555
U2 O1 1_555 1_555
U3 O4 1_555 1_555
P1 O17 1_555 1_555
P2 O8 1_555 1_555
P3 O10 1_555 1_555
O2 U2 1_555 1_555
O5 U3 1_555 1_555
O6 U1 1_555 1_555
O7 U1 1_555 1_555
O8 U3 1_555 1_555
O9 U3 1_555 1_555
O10 U3A 1_555 1_555
O11 U1 1_555 1_555
O12 U2 1_555 1_555
O13 U2 1_555 1_555
O14 P2 1_555 1_555
O15 P3 1_555 1_555
O16 U2 1_555 1_555
O17 U3A_2 1_555 1_555
O18 U1 1_555 1_555
O19 C6 1_555 1_555
O20 H1 1_555 1_555
O21 U2 1_555 1_555
O22 P1 1_555 1_555
C1 O5 1_555 1_555
C2 O7 1_555 1_555
C3 P2 1_555 1_555
H2 C3 1_555 1_555
H3 C3 1_555 1_555
C4 P3 1_555 1_555
H4 C4 1_555 1_555
H5 C4 1_555 1_555
C5 P1 1_555 1_555
H6 C5 1_555 1_555
H7 C5 1_555 1_555
C6 O20 1_555 1_555
N1 H8 1_555 1_555
N2 H9 1_555 1_555
C7 C8 1_555 1_555
C8 H10 1_555 1_555
C9 C7 1_555 1_555
H11 C9 1_555 1_555
C10 C9 1_555 1_555
H12 C10 1_555 1_555
C11 C10 1_555 1_555
C12 C11 1_555 1_555
H13 C12 1_555 1_555
C13 N1 1_555 1_555
H14 C13 1_555 1_555
C14 C7 1_555 1_555
H15 C14 1_555 1_555
C15 N1 1_555 1_555
H16 C15 1_555 1_555
C16 N2 1_555 1_555
H17 C16 1_555 1_555
C17 C11 1_555 1_555
H18 C17 1_555 1_555
C18 N2 1_555 1_555
H19 C18 1_555 1_555
H20 O16 1_555 1_555
H21 O16 1_555 1_555
U1A O14 1_555 1_555
U1A_2 O22 1_555 1_555
U2A O15 1_555 1_555
O10A U3 1_555 1_555
O14A U1 1_555 1_555
O15A U2 1_555 1_555
O17A U3 1_555 1_555
O22A U1 1_555 1_555
U3 O13 1_555 1_555
P1 O18 1_555 1_555
P2 O12 1_555 1_555
P3 O21 1_555 1_555
O11 C2 1_555 1_555
O13 C1 1_555 1_555
C1 C4 1_555 1_555
C2 C3 1_555 1_555
C5 C6 1_555 1_555
C8 C13 1_555 1_555
C12 C16 1_555 1_555
C14 C15 1_555 1_555
C17 C18 1_555 1_555

#END
