
#######################################################################
#
#                 Cambridge Crystallographic Data Centre
#                                CCDC 
#
#######################################################################
#
# If this CIF has been generated from an entry in the Cambridge 
# Structural Database, then it will include bibliographic, chemical, 
# crystal, experimental, refinement or atomic coordinate data resulting 
# from the CCDC's data processing and validation procedures.
#
#######################################################################

data_BUCRAT
_symmetry_cell_setting           monoclinic
_symmetry_space_group_name_H-M   'P 21/c'
_symmetry_Int_Tables_number      14
_space_group_name_Hall           '-P 2ybc'
loop_
_symmetry_equiv_pos_site_id
_symmetry_equiv_pos_as_xyz
1 x,y,z
2 -x,1/2+y,1/2-z
3 -x,-y,-z
4 x,1/2-y,1/2+z
_cell_length_a                   8.9801(4)
_cell_length_b                   25.5577(11)
_cell_length_c                   13.8436(6)
_cell_angle_alpha                90
_cell_angle_beta                 100.3130(10)
_cell_angle_gamma                90
_cell_volume                     3125.92
loop_
_atom_site_label
_atom_site_type_symbol
_atom_site_fract_x
_atom_site_fract_y
_atom_site_fract_z
U1 U 0.04512(2) 0.083922(7) 0.357051(14)
U2 U -0.01740(2) 0.064570(7) 0.840450(14)
U3 U 0.06628(2) 0.253690(7) 0.117560(14)
P1 P -0.03883(18) 0.22257(5) 0.35411(10)
P2 P 0.10319(16) 0.06558(5) 0.10631(10)
P3 P -0.05347(17) 0.11773(5) 0.59742(10)
O1 O 0.2329(5) 0.10741(16) 0.3726(3)
O2 O -0.1380(5) 0.05690(16) 0.3440(3)
O3 O 0.0335(5) 0.10396(16) 0.5164(3)
O4 O -0.0611(5) 0.16578(14) 0.3228(3)
O5 O 0.0201(4) 0.08085(14) 0.1893(3)
O6 O -0.1258(5) 0.00857(14) 0.6908(3)
O7 O -0.1783(5) -0.01074(15) 0.5360(3)
O8 O 0.0355(5) 0.10182(16) 0.6967(3)
O9 O 0.1268(6) 0.14686(17) 0.8720(3)
H1 H 0.103(9) 0.169(2) 0.833(5)
H2 H 0.147(9) 0.157(3) 0.927(3)
O10 O 0.1462(5) 0.00807(14) 0.1108(3)
O11 O -0.1900(5) 0.09994(15) 0.8215(3)
O12 O 0.1547(5) 0.02934(15) 0.8579(3)
O13 O -0.0894(5) 0.21084(15) 0.0858(3)
O14 O 0.2241(5) 0.29591(16) 0.1503(3)
O15 O 0.2227(5) 0.18216(15) 0.2077(3)
O16 O 0.2208(5) 0.18667(15) 0.0503(3)
O17 O 0.0676(5) 0.22867(15) 0.4524(3)
O18 O -0.1001(5) 0.17504(15) 0.5924(3)
O19 O 0.0177(5) 0.25671(15) 0.2772(3)
O20 O 0.0148(5) 0.08154(15) 0.0072(3)
O21 O -0.3911(6) 0.20968(19) 0.2374(4)
O22 O -0.3586(8) 0.2956(2) 0.2396(5)
H3 H -0.398(12) 0.295(4) 0.174(8)
C1 C -0.2206(7) 0.2486(3) 0.3698(5)
H6 H -0.2596 0.2279 0.4185
H7 H -0.2072 0.2842 0.3943
C2 C -0.3334(8) 0.2484(3) 0.2761(5)
C3 C 0.2782(6) 0.1032(2) 0.1265(4)
H8 H 0.3405 0.0928 0.1882
H9 H 0.3342 0.0962 0.0742
C4 C 0.2430(6) 0.1606(2) 0.1291(4)
C5 C -0.1761(6) 0.0224(2) 0.6030(4)
C6 C -0.2247(6) 0.0782(2) 0.5804(4)
H10 H -0.2787 0.0812 0.5134
H11 H -0.2908 0.0899 0.6244
U1B U -0.04512(2) -0.083922(7) 0.642949(14)
U2B U 0.01740(2) -0.064570(7) 0.159550(14)
U2_2 U -0.01740(2) 0.064570(7) -0.159550(14)
U3C U 0.06628(2) 0.246310(7) 0.617560(14)
O6B O 0.1258(5) -0.00857(14) 0.3092(3)
O7B O 0.1783(5) 0.01074(15) 0.4640(3)
O10B O -0.1462(5) -0.00807(14) 0.8892(3)
O17C O 0.0676(5) 0.27133(15) -0.0476(3)
O18C O -0.1001(5) 0.32496(15) 0.0924(3)
O20_2 O 0.0148(5) 0.08154(15) 1.0072(3)
N1 N 0.6463(7) -0.0347(2) 0.3556(4)
H4 H 0.692(11) -0.027(4) 0.409(7)
N2 N 0.3278(7) -0.1346(2) -0.1018(5)
H5 H 0.287(8) -0.147(3) -0.157(6)
C7 C 0.5712(8) -0.0024(3) 0.2888(5)
H12 H 0.5654 0.0330 0.3031
C8 C 0.5028(7) -0.0208(2) 0.1994(5)
H13 H 0.4477 0.0017 0.1535
C9 C 0.5898(8) -0.1061(3) 0.2503(5)
H14 H 0.5960 -0.1418 0.2390
C10 C 0.6543(8) -0.0856(3) 0.3399(5)
H15 H 0.7034 -0.1075 0.3892
C11 C 0.5160(6) -0.0738(2) 0.1773(4)
C12 C 0.4511(6) -0.0949(2) 0.0784(4)
C13 C 0.3669(7) -0.0634(3) 0.0061(5)
H16 H 0.3526 -0.0282 0.0188
C14 C 0.3054(7) -0.0840(3) -0.0835(5)
H17 H 0.2484 -0.0631 -0.1312
C15 C 0.4096(9) -0.1658(3) -0.0352(6)
H18 H 0.4231 -0.2007 -0.0503
C16 C 0.4733(8) -0.1470(2) 0.0546(5)
H19 H 0.5316 -0.1688 0.1001
O23 O 0.3671(7) 0.2645(2) 0.8938(5)
O24 O 0.5498(7) 0.1209(2) 0.3582(5)
O25 O -0.4518(10) 0.3073(3) 0.0548(5)
loop_
_geom_bond_atom_site_label_1
_geom_bond_atom_site_label_2
_geom_bond_site_symmetry_1
_geom_bond_site_symmetry_2
U1 O1 1_555 1_555
U2 O6 1_555 1_555
U3 O13 1_555 1_555
P1 O4 1_555 1_555
P2 O5 1_555 1_555
P3 O3 1_555 1_555
O2 U1 1_555 1_555
O3 U1 1_555 1_555
O4 U1 1_555 1_555
O5 U1 1_555 1_555
O6 C5 1_555 1_555
O7 C5 1_555 1_555
O8 U2 1_555 1_555
O9 U2 1_555 1_555
H1 O9 1_555 1_555
H2 O9 1_555 1_555
O10 P2 1_555 1_555
O11 U2 1_555 1_555
O12 U2 1_555 1_555
O14 U3 1_555 1_555
O15 U3 1_555 1_555
O16 U3 1_555 1_555
O17 P1 1_555 1_555
O18 P3 1_555 1_555
O19 U3 1_555 1_555
O20 P2 1_555 1_555
O21 C2 1_555 1_555
O22 H3 1_555 1_555
N1 H4 1_555 1_555
N2 H5 1_555 1_555
C1 P1 1_555 1_555
H6 C1 1_555 1_555
H7 C1 1_555 1_555
C2 O22 1_555 1_555
C3 P2 1_555 1_555
H8 C3 1_555 1_555
H9 C3 1_555 1_555
C4 O15 1_555 1_555
C5 C6 1_555 1_555
C6 P3 1_555 1_555
H10 C6 1_555 1_555
H11 C6 1_555 1_555
C7 N1 1_555 1_555
H12 C7 1_555 1_555
C8 C7 1_555 1_555
H13 C8 1_555 1_555
C9 H14 1_555 1_555
C10 N1 1_555 1_555
H15 C10 1_555 1_555
C11 C8 1_555 1_555
C12 C11 1_555 1_555
C13 C12 1_555 1_555
H16 C13 1_555 1_555
C14 N2 1_555 1_555
H17 C14 1_555 1_555
C15 N2 1_555 1_555
H18 C15 1_555 1_555
C16 C12 1_555 1_555
H19 C16 1_555 1_555
U1B O6 1_555 1_555
U2B O10 1_555 1_555
U2_2 O20 1_555 1_555
U3C O17 1_555 1_555
O6B U1 1_555 1_555
O7B U1 1_555 1_555
O10B U2 1_555 1_555
O17C U3 1_555 1_555
O18C U3 1_555 1_555
O20_2 U2 1_555 1_555
P1 O19 1_555 1_555
P3 O8 1_555 1_555
O7 U1B 1_555 1_555
O16 C4 1_555 1_555
O18 U3C 1_555 1_555
C1 C2 1_555 1_555
C3 C4 1_555 1_555
C9 C10 1_555 1_555
C9 C11 1_555 1_555
C13 C14 1_555 1_555
C15 C16 1_555 1_555
U2B O6B 1_555 1_555

#END
