
#######################################################################
#
#                 Cambridge Crystallographic Data Centre
#                                CCDC 
#
#######################################################################
#
# If this CIF has been generated from an entry in the Cambridge 
# Structural Database, then it will include bibliographic, chemical, 
# crystal, experimental, refinement or atomic coordinate data resulting 
# from the CCDC's data processing and validation procedures.
#
#######################################################################

data_BUCTAV
_symmetry_cell_setting           triclinic
_symmetry_space_group_name_H-M   'P -1'
_symmetry_Int_Tables_number      2
_space_group_name_Hall           '-P 1'
loop_
_symmetry_equiv_pos_site_id
_symmetry_equiv_pos_as_xyz
1 x,y,z
2 -x,-y,-z
_cell_length_a                   8.2113(16)
_cell_length_b                   9.802(2)
_cell_length_c                   9.862(2)
_cell_angle_alpha                60.31(3)
_cell_angle_beta                 86.79(3)
_cell_angle_gamma                74.06(3)
_cell_volume                     659.994
loop_
_atom_site_label
_atom_site_type_symbol
_atom_site_fract_x
_atom_site_fract_y
_atom_site_fract_z
Mn1 Mn 0.5000 0.5000 0.5000
S1 S 0.24621(4) 0.91700(4) 0.31696(3)
O1 O 0.18793(13) 0.93939(12) 0.44827(10)
O2 O 0.32284(13) 0.74585(11) 0.36337(11)
O3 O 0.35611(13) 1.01844(12) 0.22648(11)
N1 N 0.31662(15) 0.40387(14) 0.43695(13)
N2 N 0.62540(15) 0.53961(14) 0.28156(12)
N3 N 0.19217(17) 0.24485(16) 0.41087(15)
N4 N 0.69427(18) 0.67695(17) 0.04196(14)
C1 C 0.06290(16) 0.98291(15) 0.18898(13)
C2 C 0.07609(16) 0.97343(15) 0.04822(12)
C3 C -0.09147(17) 1.04264(17) 0.22972(14)
C4 C -0.24085(18) 1.09331(19) 0.13360(15)
C5 C 0.23440(18) 0.91420(17) 0.00158(14)
C6 C 0.65289(19) 0.67841(18) 0.17522(17)
C7 C 0.6521(2) 0.44324(19) 0.21222(16)
C8 C 0.6938(2) 0.5276(2) 0.06368(17)
C9 C 0.3299(2) 0.25558(19) 0.4652(2)
C10 C 0.0856(3) 0.3961(3) 0.3382(4)
C11 C 0.1627(3) 0.4930(3) 0.3555(4)
H1 H -0.096(3) 1.048(3) 0.321(2)
H2 H 0.337(2) 0.880(3) 0.058(2)
H3 H -0.351(2) 1.133(3) 0.162(3)
H4 H 0.647(3) 0.772(2) 0.188(3)
H5 H 0.638(3) 0.337(2) 0.266(3)
H6 H 0.720(3) 0.499(3) -0.014(2)
H7 H 0.429(2) 0.167(2) 0.508(3)
H8 H -0.015(2) 0.430(3) 0.273(2)
H9 H 0.132(3) 0.607(2) 0.301(3)
H10 H 0.177(3) 0.154(2) 0.424(3)
H11 H 0.703(3) 0.763(2) -0.044(2)
Mn1_2 Mn -0.5000 1.5000 -0.5000
S1A S -0.24621(4) 1.08300(4) -0.31696(3)
O1A O -0.18793(13) 1.06061(12) -0.44827(10)
O2A O -0.32284(13) 1.25415(11) -0.36337(11)
O2A_2 O 0.67716(13) 0.25415(11) 0.63663(11)
O3A O -0.35611(13) 0.98156(12) -0.22648(11)
N1A N 0.68338(15) 0.59613(14) 0.56305(13)
N2A N 0.37460(15) 0.46039(14) 0.71844(12)
N3A N 0.80783(17) 0.75515(16) 0.58913(15)
N4A N 0.30573(18) 0.32305(17) 0.95804(14)
C1A C -0.06290(16) 1.01709(15) -0.18898(13)
C2A C -0.07609(16) 1.02657(15) -0.04822(12)
C3A C 0.09147(17) 0.95736(17) -0.22972(14)
C4A C 0.24085(18) 0.90669(19) -0.13360(15)
C5A C -0.23440(18) 1.08580(17) -0.00158(14)
C6A C 0.34711(19) 0.32159(18) 0.82478(17)
C7A C 0.3479(2) 0.55676(19) 0.78778(16)
C8A C 0.3062(2) 0.4724(2) 0.93632(17)
C9A C 0.6701(2) 0.74442(19) 0.5348(2)
C10A C 0.9144(3) 0.6039(3) 0.6618(4)
C11A C 0.8373(3) 0.5070(3) 0.6445(4)
H1A H 0.096(3) 0.952(3) -0.321(2)
H2A H -0.337(2) 1.120(3) -0.058(2)
H3A H 0.351(2) 0.867(3) -0.162(3)
H4A H 0.353(3) 0.228(2) 0.812(3)
H5A H 0.362(3) 0.663(2) 0.734(3)
H6A H 0.280(3) 0.501(3) 1.014(2)
H7A H 0.571(2) 0.833(2) 0.492(3)
H8A H 1.015(2) 0.570(3) 0.727(2)
H9A H 0.868(3) 0.393(2) 0.699(3)
H10A H 0.823(3) 0.846(2) 0.576(3)
H11A H 0.297(3) 0.237(2) 1.044(2)
loop_
_geom_bond_atom_site_label_1
_geom_bond_atom_site_label_2
_geom_bond_site_symmetry_1
_geom_bond_site_symmetry_2
Mn1 O2 1_555 1_555
S1 O1 1_555 1_555
O2 S1 1_555 1_555
O3 S1 1_555 1_555
N1 Mn1 1_555 1_555
N2 Mn1 1_555 1_555
N3 C9 1_555 1_555
N4 C6 1_555 1_555
C1 S1 1_555 1_555
C2 C1 1_555 1_555
C3 C1 1_555 1_555
C4 C3 1_555 1_555
C5 C2 1_555 1_555
C6 N2 1_555 1_555
C7 N2 1_555 1_555
C8 N4 1_555 1_555
C9 N1 1_555 1_555
C10 N3 1_555 1_555
C11 N1 1_555 1_555
H1 C3 1_555 1_555
H2 C5 1_555 1_555
H3 C4 1_555 1_555
H4 C6 1_555 1_555
H5 C7 1_555 1_555
H6 C8 1_555 1_555
H7 C9 1_555 1_555
H8 C10 1_555 1_555
H9 C11 1_555 1_555
H10 N3 1_555 1_555
H11 N4 1_555 1_555
Mn1_2 O2A 1_555 1_555
S1A O1A 1_555 1_555
O2A S1A 1_555 1_555
O2A_2 Mn1 1_555 1_555
O3A S1A 1_555 1_555
N1A Mn1 1_555 1_555
N2A Mn1 1_555 1_555
N3A C9A 1_555 1_555
N4A C6A 1_555 1_555
C1A S1A 1_555 1_555
C2A C2 1_555 1_555
C3A C1A 1_555 1_555
C4A C5 1_555 1_555
C5A C4 1_555 1_555
C6A N2A 1_555 1_555
C7A N2A 1_555 1_555
C8A N4A 1_555 1_555
C9A N1A 1_555 1_555
C10A N3A 1_555 1_555
C11A N1A 1_555 1_555
H1A C3A 1_555 1_555
H2A C5A 1_555 1_555
H3A C4A 1_555 1_555
H4A C6A 1_555 1_555
H5A C7A 1_555 1_555
H6A C8A 1_555 1_555
H7A C9A 1_555 1_555
H8A C10A 1_555 1_555
H9A C11A 1_555 1_555
H10A N3A 1_555 1_555
H11A N4A 1_555 1_555
C7 C8 1_555 1_555
C10 C11 1_555 1_555
C1A C2A 1_555 1_555
C2A C5A 1_555 1_555
C3A C4A 1_555 1_555
C7A C8A 1_555 1_555
C10A C11A 1_555 1_555

#END
