
#######################################################################
#
#                 Cambridge Crystallographic Data Centre
#                                CCDC 
#
#######################################################################
#
# If this CIF has been generated from an entry in the Cambridge 
# Structural Database, then it will include bibliographic, chemical, 
# crystal, experimental, refinement or atomic coordinate data resulting 
# from the CCDC's data processing and validation procedures.
#
#######################################################################

data_BUCTEZ
_symmetry_cell_setting           triclinic
_symmetry_space_group_name_H-M   'P -1'
_symmetry_Int_Tables_number      2
_space_group_name_Hall           '-P 1'
loop_
_symmetry_equiv_pos_site_id
_symmetry_equiv_pos_as_xyz
1 x,y,z
2 -x,-y,-z
_cell_length_a                   8.2318(4)
_cell_length_b                   9.7087(5)
_cell_length_c                   9.7569(5)
_cell_angle_alpha                60.601(2)
_cell_angle_beta                 86.866(2)
_cell_angle_gamma                73.920(2)
_cell_volume                     649.691
loop_
_atom_site_label
_atom_site_type_symbol
_atom_site_fract_x
_atom_site_fract_y
_atom_site_fract_z
Co1 Co 0.5000 0.5000 0.5000
S1 S 0.25314(3) 0.92274(2) 0.31249(2)
O1 O 0.19740(10) 0.94875(8) 0.44412(7)
O2 O 0.33190(10) 0.74987(8) 0.36095(8)
O3 O 0.35986(10) 1.02608(9) 0.21723(8)
N1 N 0.38001(11) 0.46748(9) 0.70645(8)
N2 N 0.30840(13) 0.33257(11) 0.94700(10)
N3 N 0.19667(12) 0.25589(11) 0.40781(11)
N4 N 0.32198(11) 0.41345(9) 0.43801(9)
C1 C -0.08650(12) 1.03903(11) 0.23516(9)
C2 C -0.23439(12) 1.07775(12) 0.00634(10)
C3 C 0.35548(13) 0.32676(11) 0.81544(11)
C4 C -0.23842(13) 1.08509(13) 0.14304(11)
C5 C 0.34518(15) 0.56922(12) 0.77170(11)
C6 C 0.30204(16) 0.48637(14) 0.92166(12)
C7 C 0.33506(16) 0.26422(13) 0.46440(17)
C8 C 0.0902(2) 0.4104(2) 0.3337(3)
C9 C 0.1688(2) 0.50616(18) 0.3538(3)
C10 C 0.07731(11) 0.97593(9) 0.04609(8)
C11 C 0.06696(11) 0.98468(9) 0.18845(8)
H1 H 0.135(3) 0.625(3) 0.307(3)
H2 H -0.026(3) 0.443(3) 0.280(3)
H3 H 0.364(3) 0.230(3) 0.806(3)
H4 H -0.093(3) 1.042(3) 0.329(3)
H5 H -0.338(3) 1.112(3) -0.055(3)
H6 H 0.353(3) 0.678(3) 0.712(3)
H7 H -0.349(3) 1.120(3) 0.174(3)
H8 H 0.180(3) 0.164(3) 0.422(3)
H9 H 0.310(3) 0.246(3) 1.039(3)
H10 H 0.270(3) 0.510(3) 1.006(3)
H11 H 0.430(3) 0.164(3) 0.516(3)
Co1_2 Co -0.5000 1.5000 -0.5000
S1A S -0.25314(3) 1.07726(2) -0.31249(2)
O1A O -0.19740(10) 1.05125(8) -0.44412(7)
O2A O -0.33190(10) 1.25013(8) -0.36095(8)
O2A_2 O 0.66810(10) 0.25013(8) 0.63905(8)
O3A O -0.35986(10) 0.97392(9) -0.21723(8)
N1A N 0.61999(11) 0.53252(9) 0.29355(8)
N2A N 0.69160(13) 0.66743(11) 0.05300(10)
N3A N 0.80333(12) 0.74411(11) 0.59219(11)
N4A N 0.67802(11) 0.58655(9) 0.56199(9)
C1A C 0.08650(12) 0.96097(11) -0.23516(9)
C2A C 0.23439(12) 0.92225(12) -0.00634(10)
C3A C 0.64452(13) 0.67324(11) 0.18456(11)
C4A C 0.23842(13) 0.91491(13) -0.14304(11)
C5A C 0.65482(15) 0.43078(12) 0.22830(11)
C6A C 0.69796(16) 0.51363(14) 0.07834(12)
C7A C 0.66494(16) 0.73578(13) 0.53560(17)
C8A C 0.9098(2) 0.5896(2) 0.6663(3)
C9A C 0.8312(2) 0.49384(18) 0.6462(3)
C10A C -0.07731(11) 1.02407(9) -0.04609(8)
C11A C -0.06696(11) 1.01532(9) -0.18845(8)
H1A H 0.865(3) 0.375(3) 0.693(3)
H2A H 1.026(3) 0.557(3) 0.720(3)
H3A H 0.636(3) 0.770(3) 0.194(3)
H4A H 0.093(3) 0.958(3) -0.329(3)
H5A H 0.338(3) 0.888(3) 0.055(3)
H6A H 0.647(3) 0.322(3) 0.288(3)
H7A H 0.349(3) 0.880(3) -0.174(3)
H8A H 0.820(3) 0.836(3) 0.578(3)
H9A H 0.690(3) 0.754(3) -0.039(3)
H10A H 0.730(3) 0.490(3) -0.006(3)
H11A H 0.570(3) 0.836(3) 0.484(3)
loop_
_geom_bond_atom_site_label_1
_geom_bond_atom_site_label_2
_geom_bond_site_symmetry_1
_geom_bond_site_symmetry_2
Co1 O2 1_555 1_555
S1 O1 1_555 1_555
O2 S1 1_555 1_555
O3 S1 1_555 1_555
N1 Co1 1_555 1_555
N2 C3 1_555 1_555
N3 C7 1_555 1_555
N4 Co1 1_555 1_555
C1 C4 1_555 1_555
C2 C4 1_555 1_555
C3 N1 1_555 1_555
C4 H7 1_555 1_555
C5 N1 1_555 1_555
C6 N2 1_555 1_555
C7 N4 1_555 1_555
C8 N3 1_555 1_555
C9 N4 1_555 1_555
C10 C11 1_555 1_555
C11 S1 1_555 1_555
H1 C9 1_555 1_555
H2 C8 1_555 1_555
H3 C3 1_555 1_555
H4 C1 1_555 1_555
H5 C2 1_555 1_555
H6 C5 1_555 1_555
H8 N3 1_555 1_555
H9 N2 1_555 1_555
H10 C6 1_555 1_555
H11 C7 1_555 1_555
Co1_2 O2A 1_555 1_555
S1A O1A 1_555 1_555
O2A S1A 1_555 1_555
O2A_2 Co1 1_555 1_555
O3A S1A 1_555 1_555
N1A Co1 1_555 1_555
N2A C3A 1_555 1_555
N3A C7A 1_555 1_555
N4A Co1 1_555 1_555
C1A C4A 1_555 1_555
C2A C10 1_555 1_555
C3A N1A 1_555 1_555
C4A C2A 1_555 1_555
C5A N1A 1_555 1_555
C6A N2A 1_555 1_555
C7A N4A 1_555 1_555
C8A N3A 1_555 1_555
C9A N4A 1_555 1_555
C10A C2 1_555 1_555
C11A S1A 1_555 1_555
H1A C9A 1_555 1_555
H2A C8A 1_555 1_555
H3A C3A 1_555 1_555
H4A C1A 1_555 1_555
H5A C2A 1_555 1_555
H6A C5A 1_555 1_555
H7A C4A 1_555 1_555
H8A N3A 1_555 1_555
H9A N2A 1_555 1_555
H10A C6A 1_555 1_555
H11A C7A 1_555 1_555
C1 C11 1_555 1_555
C5 C6 1_555 1_555
C8 C9 1_555 1_555
C10 C10A 1_555 1_555
C1A C11A 1_555 1_555
C5A C6A 1_555 1_555
C8A C9A 1_555 1_555
C10A C11A 1_555 1_555

#END
