
#######################################################################
#
#                 Cambridge Crystallographic Data Centre
#                                CCDC 
#
#######################################################################
#
# If this CIF has been generated from an entry in the Cambridge 
# Structural Database, then it will include bibliographic, chemical, 
# crystal, experimental, refinement or atomic coordinate data resulting 
# from the CCDC's data processing and validation procedures.
#
#######################################################################

data_BUCTID
_symmetry_cell_setting           monoclinic
_symmetry_space_group_name_H-M   'C c'
_symmetry_Int_Tables_number      9
_space_group_name_Hall           'C -2yc'
loop_
_symmetry_equiv_pos_site_id
_symmetry_equiv_pos_as_xyz
1 x,y,z
2 x,-y,1/2+z
3 1/2+x,1/2+y,z
4 1/2+x,1/2-y,1/2+z
_cell_length_a                   9.6229(3)
_cell_length_b                   16.7604(5)
_cell_length_c                   15.8224(5)
_cell_angle_alpha                90
_cell_angle_beta                 101.6390(10)
_cell_angle_gamma                90
_cell_volume                     2499.42
loop_
_atom_site_label
_atom_site_type_symbol
_atom_site_fract_x
_atom_site_fract_y
_atom_site_fract_z
Ni1 Ni 0.03271(4) 0.90127(2) 0.49998(3)
S1 S 0.22104(7) 0.82894(5) 0.35871(5)
S2 S -0.13570(8) 0.53717(5) 0.09464(5)
O1 O -0.2464(3) 0.59065(15) 0.05208(19)
O2 O 0.2986(2) 0.89594(14) 0.33267(17)
O3 O 0.3105(2) 0.77591(14) 0.41891(15)
O4 O -0.1895(3) 0.46274(16) 0.12168(17)
O5 O -0.0273(3) 0.52371(17) 0.04515(17)
O6 O 0.0922(2) 0.85442(14) 0.38651(17)
N1 N -0.1759(3) 0.88527(18) 0.4357(2)
N2 N 0.0366(3) 1.01618(17) 0.4505(2)
N3 N 0.0432(3) 0.78658(18) 0.54829(19)
N4 N -0.0234(3) 1.13984(19) 0.4122(2)
N5 N -0.4085(3) 0.89163(19) 0.3992(2)
N6 N -0.0185(4) 0.6649(2) 0.5759(2)
N7 N -0.0451(5) 1.0210(3) 0.7295(3)
N8 N -0.0215(4) 0.9506(2) 0.6097(3)
C1 C -0.0106(4) 0.5934(2) 0.3460(2)
C2 C 0.1529(3) 0.7723(2) 0.2639(2)
C3 C 0.0190(3) 0.6617(2) 0.1875(2)
C4 C 0.0338(3) 0.6978(2) 0.1090(2)
C5 C 0.0787(3) 0.69995(19) 0.2680(2)
C6 C -0.0630(4) 0.7357(2) 0.5423(3)
C7 C 0.1722(4) 0.8040(2) 0.1867(2)
C8 C 0.1091(4) 0.7671(2) 0.1089(2)
C9 C -0.2920(4) 0.9131(2) 0.4577(3)
C10 C 0.1621(4) 0.7441(3) 0.5869(3)
C11 C -0.0597(4) 1.0728(2) 0.4495(2)
C12 C -0.0552(3) 0.58721(19) 0.1913(2)
C13 C 0.0595(3) 0.6650(2) 0.3469(2)
C14 C -0.0690(4) 0.5556(2) 0.2686(2)
C15 C -0.3647(4) 0.8489(3) 0.3366(3)
C16 C 0.1042(4) 1.1263(2) 0.3894(3)
C17 C -0.1110(17) 0.9188(4) 0.6629(5)
C18 C 0.1400(4) 1.0500(2) 0.4129(3)
C19 C 0.1235(5) 0.6689(3) 0.6045(3)
C20 C -0.2209(4) 0.8457(2) 0.3593(2)
C21 C -0.1417(5) 0.9686(3) 0.7238(3)
C22 C 0.0233(6) 1.0060(4) 0.6630(4)
H1 H 0.115(5) 0.792(3) 0.055(2)
H2 H 0.227(5) 0.849(2) 0.188(3)
H3 H 0.100(5) 0.693(3) 0.398(2)
H4 H -0.156(5) 0.872(2) 0.646(3)
H5 H -0.121(5) 0.5079(19) 0.263(3)
H6 H -0.151(4) 0.823(3) 0.333(3)
H7 H 0.174(5) 0.623(2) 0.629(3)
H8 H -0.434(4) 0.830(3) 0.292(2)
H9 H -0.016(6) 0.572(3) 0.399(2)
H10 H -0.016(5) 0.679(3) 0.0558(19)
H11 H 0.152(5) 1.165(2) 0.363(3)
H12 H -0.136(4) 1.073(3) 0.475(3)
H13 H -0.275(5) 0.940(3) 0.510(2)
H14 H 0.252(3) 0.764(3) 0.602(3)
H15 H -0.154(3) 0.748(3) 0.513(3)
H16 H 0.224(3) 1.029(3) 0.407(3)
H17 H -0.206(4) 0.968(3) 0.761(3)
H18 H 0.091(5) 1.043(3) 0.643(3)
H19 H -0.069(5) 1.1848(19) 0.404(3)
H20 H -0.494(3) 0.898(3) 0.408(3)
H21 H -0.035(5) 1.057(3) 0.776(2)
H22 H -0.074(5) 0.622(2) 0.576(3)
Ni1C Ni -0.46729(4) 0.59873(2) -0.00002(3)
O1C O 0.2536(3) 0.90935(15) 0.55208(19)
loop_
_geom_bond_atom_site_label_1
_geom_bond_atom_site_label_2
_geom_bond_site_symmetry_1
_geom_bond_site_symmetry_2
Ni1 O6 1_555 1_555
S1 O2 1_555 1_555
S2 O1 1_555 1_555
O1 Ni1C 1_555 1_555
O3 S1 1_555 1_555
O4 S2 1_555 1_555
O5 S2 1_555 1_555
O6 S1 1_555 1_555
N1 Ni1 1_555 1_555
N2 Ni1 1_555 1_555
N3 Ni1 1_555 1_555
N4 C11 1_555 1_555
N5 C9 1_555 1_555
N6 C6 1_555 1_555
N7 C21 1_555 1_555
N8 Ni1 1_555 1_555
C1 C13 1_555 1_555
C2 S1 1_555 1_555
C3 C4 1_555 1_555
C4 C8 1_555 1_555
C5 C2 1_555 1_555
C6 N3 1_555 1_555
C7 C2 1_555 1_555
C8 C7 1_555 1_555
C9 N1 1_555 1_555
C10 N3 1_555 1_555
C11 N2 1_555 1_555
C12 S2 1_555 1_555
C13 C5 1_555 1_555
C14 C1 1_555 1_555
C15 N5 1_555 1_555
C16 N4 1_555 1_555
C17 N8 1_555 1_555
C18 N2 1_555 1_555
C19 N6 1_555 1_555
C20 N1 1_555 1_555
C21 C17 1_555 1_555
C22 N7 1_555 1_555
H1 C8 1_555 1_555
H2 C7 1_555 1_555
H3 C13 1_555 1_555
H4 C17 1_555 1_555
H5 C14 1_555 1_555
H6 C20 1_555 1_555
H7 C19 1_555 1_555
H8 C15 1_555 1_555
H9 C1 1_555 1_555
H10 C4 1_555 1_555
H11 C16 1_555 1_555
H12 C11 1_555 1_555
H13 C9 1_555 1_555
H14 C10 1_555 1_555
H15 C6 1_555 1_555
H16 C18 1_555 1_555
H17 C21 1_555 1_555
H18 C22 1_555 1_555
H19 N4 1_555 1_555
H20 N5 1_555 1_555
H21 N7 1_555 1_555
H22 N6 1_555 1_555
O1C Ni1 1_555 1_555
N8 C22 1_555 1_555
C3 C5 1_555 1_555
C3 C12 1_555 1_555
C10 C19 1_555 1_555
C12 C14 1_555 1_555
C15 C20 1_555 1_555
C16 C18 1_555 1_555

#END
