
#######################################################################
#
#                 Cambridge Crystallographic Data Centre
#                                CCDC 
#
#######################################################################
#
# If this CIF has been generated from an entry in the Cambridge 
# Structural Database, then it will include bibliographic, chemical, 
# crystal, experimental, refinement or atomic coordinate data resulting 
# from the CCDC's data processing and validation procedures.
#
#######################################################################

data_BUCVEB
_symmetry_cell_setting           monoclinic
_symmetry_space_group_name_H-M   'P 21/m'
_symmetry_Int_Tables_number      11
_space_group_name_Hall           '-P 2yb'
loop_
_symmetry_equiv_pos_site_id
_symmetry_equiv_pos_as_xyz
1 x,y,z
2 -x,1/2+y,-z
3 -x,-y,-z
4 x,1/2-y,z
_cell_length_a                   5.5882(6)
_cell_length_b                   12.0765(9)
_cell_length_c                   7.1643(7)
_cell_angle_alpha                90
_cell_angle_beta                 105.280(11)
_cell_angle_gamma                90
_cell_volume                     466.398
loop_
_atom_site_label
_atom_site_type_symbol
_atom_site_fract_x
_atom_site_fract_y
_atom_site_fract_z
Ni1 Ni 1.0000 0.5000 1.0000
N1 N 0.9672(3) 0.65173(13) 0.8415(2)
C1 C 0.9662(5) 0.7500 0.9260(4)
H1 H 0.9646 0.7500 1.0583
C2 C 0.9584(4) 0.7500 0.5523(2)
H2 H 0.9556 0.7500 0.4191
C3 C 0.9605(4) 0.6524 0.6526(2)
H3 H 0.9570 0.5840 0.5865
N2 N 0.7544(3) 0.55563(14) 1.1427(2)
C4 C 0.5763(4) 0.56792(15) 1.1949(3)
S1 S 0.32504(9) 0.58590(4) 1.26997(7)
Ni1_2 Ni 0.0000 0.5000 1.0000
Ni1A Ni 1.0000 1.0000 1.0000
Ni1_3 Ni 2.0000 0.5000 1.0000
N1C N 0.9672(3) 0.84827(13) 0.8415(2)
N1B N 1.0328(3) 0.34827(13) 1.1585(2)
C3C C 0.9605(4) 0.8476 0.6526(2)
H3C H 0.9570 0.9160 0.5865
N2_2 N 1.7544(3) 0.55563(14) 1.1427(2)
N2B N 1.2456(3) 0.44437(14) 0.8573(2)
C4_2 C 1.5763(4) 0.56792(15) 1.1949(3)
S1_2 S 1.32504(9) 0.58590(4) 1.26997(7)
S1B S 0.67496(9) 0.41410(4) 0.73003(7)
loop_
_geom_bond_atom_site_label_1
_geom_bond_atom_site_label_2
_geom_bond_site_symmetry_1
_geom_bond_site_symmetry_2
Ni1 N1 1_555 1_555
N1 C1 1_555 1_555
C1 H1 1_555 1_555
C2 H2 1_555 1_555
C3 N1 1_555 1_555
H3 C3 1_555 1_555
N2 Ni1 1_555 1_555
C4 N2 1_555 1_555
S1 C4 1_555 1_555
Ni1_2 S1 1_555 1_555
Ni1A N1C 1_555 1_555
Ni1_3 N2_2 1_555 1_555
N1C C1 1_555 1_555
N1B Ni1 1_555 1_555
C3C C2 1_555 1_555
H3C C3C 1_555 1_555
N2_2 C4_2 1_555 1_555
N2B Ni1 1_555 1_555
C4_2 S1_2 1_555 1_555
S1_2 Ni1 1_555 1_555
S1B Ni1 1_555 1_555
C2 C3 1_555 1_555
N1C C3C 1_555 1_555

#END
