
#######################################################################
#
#                 Cambridge Crystallographic Data Centre
#                                CCDC 
#
#######################################################################
#
# If this CIF has been generated from an entry in the Cambridge 
# Structural Database, then it will include bibliographic, chemical, 
# crystal, experimental, refinement or atomic coordinate data resulting 
# from the CCDC's data processing and validation procedures.
#
#######################################################################

data_BUCWAY
_symmetry_cell_setting           monoclinic
_symmetry_space_group_name_H-M   'P 21/n'
_symmetry_Int_Tables_number      14
_space_group_name_Hall           '-P 2yn'
loop_
_symmetry_equiv_pos_site_id
_symmetry_equiv_pos_as_xyz
1 x,y,z
2 1/2-x,1/2+y,1/2-z
3 -x,-y,-z
4 1/2+x,1/2-y,1/2+z
_cell_length_a                   9.0054(8)
_cell_length_b                   20.5792(17)
_cell_length_c                   13.5181(11)
_cell_angle_alpha                90
_cell_angle_beta                 99.438(2)
_cell_angle_gamma                90
_cell_volume                     2471.32
loop_
_atom_site_label
_atom_site_type_symbol
_atom_site_fract_x
_atom_site_fract_y
_atom_site_fract_z
Cu1 Cu 1.14429(4) 0.71158(2) 0.37718(3)
Cu2 Cu 1.0000 0.5000 0.5000
C1 C 0.8929(4) 0.59956(18) 0.3570(3)
C2 C 0.7659(4) 0.63713(17) 0.2966(3)
C3 C 0.6262(4) 0.64241(18) 0.3287(3)
H1 H 0.6095 0.6208 0.3863
C4 C 0.3665(4) 0.68698(18) 0.3105(3)
C5 C 0.5133(4) 0.67968(18) 0.2749(3)
C6 C 0.5371(4) 0.71148(17) 0.1866(3)
H2 H 0.4610 0.7367 0.1507
C7 C 0.7031(4) 0.73440(18) 0.0561(3)
C8 C 0.6737(4) 0.70527(17) 0.1533(3)
C9 C 0.7879(4) 0.66807(17) 0.2096(3)
H3 H 0.8803 0.6642 0.1879
C10 C 0.9618(4) 0.8085(2) 0.2383(3)
H4 H 1.0104 0.8006 0.1839
C11 C 0.8533(5) 0.8527(2) 0.2408(3)
H5 H 0.8137 0.8808 0.1893
C12 C 0.8978(4) 0.8019(2) 0.3836(3)
H6 H 0.8915 0.7895 0.4489
C13 C 0.7132(4) 0.8911(2) 0.3763(4)
C14 C 0.6804(5) 0.9518(2) 0.3372(4)
H7 H 0.7139 0.9648 0.2788
C15 C 0.5954(5) 0.9938(2) 0.3869(4)
H8 H 0.5737 1.0351 0.3605
C16 C 0.5425(4) 0.9768(2) 0.4730(4)
C17 C 0.5727(6) 0.9144(3) 0.5050(5)
H9 H 0.5361 0.9002 0.5617
C18 C 0.6547(6) 0.8715(3) 0.4573(4)
H10 H 0.6698 0.8291 0.4807
C19 C 0.9124(4) 0.60979(19) 0.6259(3)
H11 H 0.9575 0.6421 0.5928
C20 C 0.8310(4) 0.6198(2) 0.7009(3)
H12 H 0.8122 0.6595 0.7291
C21 C 0.8376(4) 0.51612(19) 0.6684(3)
H13 H 0.8217 0.4716 0.6711
C22 C 0.7001(4) 0.58465(18) 0.8858(3)
H14 H 0.7551 0.6231 0.8906
C23 C 0.6224(4) 0.56698(18) 0.9608(3)
H15 H 0.6253 0.5943 1.0159
C24 C 0.5397(4) 0.50999(18) 0.9577(3)
C25 C 0.5329(5) 0.4716(2) 0.8722(3)
H16 H 0.4766 0.4335 0.8669
C26 C 0.6091(5) 0.4894(2) 0.7947(3)
H17 H 0.6013 0.4638 0.7373
C27 C 0.6961(4) 0.54469(18) 0.8030(3)
N1 N 0.9903(3) 0.77652(15) 0.3298(2)
N2 N 0.8123(3) 0.84862(16) 0.3325(3)
N3 N 0.9172(3) 0.54464(15) 0.6070(2)
N4 N 0.7821(3) 0.56042(15) 0.7268(2)
O1 O 0.8549(3) 0.55098(14) 0.40416(19)
O2 O 1.0248(3) 0.61757(13) 0.3563(2)
O3 O 0.3442(3) 0.65952(14) 0.39055(19)
O4 O 0.2613(3) 0.72104(14) 0.2618(2)
O5 O 0.8086(3) 0.71381(14) 0.0180(2)
O6 O 0.6104(3) 0.77845(13) 0.01650(19)
Cu1B Cu 0.85571(4) 0.28842(2) 0.62282(3)
Cu1_2 Cu 0.14429(4) 0.71158(2) 0.37718(3)
Cu1C Cu 0.64429(4) 0.78842(2) -0.12282(3)
Cu1B_2 Cu -0.14429(4) 1.28842(2) 0.62282(3)
Cu1B_3 Cu 1.85571(4) 0.28842(2) 0.62282(3)
Cu1A Cu 1.35571(4) 0.21158(2) 1.12282(3)
Cu2_2 Cu 0.0000 0.5000 1.5000
C1B C 1.1071(4) 0.40044(18) 0.6430(3)
C2B C 1.2341(4) 0.36287(17) 0.7034(3)
C3B C 1.3738(4) 0.35759(18) 0.6713(3)
H1B H 1.3905 0.3792 0.6137
C4B C 1.6335(4) 0.31302(18) 0.6895(3)
C5B C 1.4867(4) 0.32032(18) 0.7251(3)
C6B C 1.4629(4) 0.28852(17) 0.8134(3)
H2B H 1.5390 0.2633 0.8493
C7B C 1.2969(4) 0.26560(18) 0.9439(3)
C8B C 1.3263(4) 0.29473(17) 0.8467(3)
C9B C 1.2121(4) 0.33193(17) 0.7904(3)
H3B H 1.1197 0.3358 0.8121
C10B C 0.0382(4) 1.1915(2) 0.7617(3)
H4B H -0.0104 1.1994 0.8161
C11B C 0.1467(5) 1.1473(2) 0.7592(3)
H5B H 0.1863 1.1192 0.8107
C12B C 0.1022(4) 1.1981(2) 0.6164(3)
H6B H 0.1085 1.2105 0.5511
C13B C 0.2868(4) 1.1089(2) 0.6237(4)
C14B C 0.3196(5) 1.0482(2) 0.6628(4)
H7B H 0.2861 1.0352 0.7212
C15B C 0.4046(5) 1.0062(2) 0.6131(4)
H8B H 0.4263 0.9649 0.6395
C16B C 0.4575(4) 1.0232(2) 0.5270(4)
C17B C 0.4273(6) 1.0856(3) 0.4950(5)
H9B H 0.4639 1.0998 0.4383
C18B C 0.3453(6) 1.1285(3) 0.5427(4)
H10B H 0.3302 1.1709 0.5193
C19B C 0.0876(4) 0.39021(19) 1.3741(3)
H11B H 0.0425 0.3579 1.4072
C20B C 0.1690(4) 0.3802(2) 1.2991(3)
H12B H 0.1878 0.3405 1.2709
C21B C 0.1624(4) 0.48388(19) 1.3316(3)
H13B H 0.1783 0.5284 1.3289
C22B C 0.2999(4) 0.41535(18) 1.1142(3)
H14B H 0.2449 0.3769 1.1094
C23B C 0.3776(4) 0.43302(18) 1.0392(3)
H15B H 0.3747 0.4057 0.9841
C24B C 0.4603(4) 0.49001(18) 1.0423(3)
C25B C 0.4671(5) 0.5284(2) 1.1278(3)
H16B H 0.5234 0.5665 1.1331
C26B C 0.3909(5) 0.5106(2) 1.2053(3)
H17B H 0.3987 0.5362 1.2627
C27B C 0.3039(4) 0.45531(18) 1.1970(3)
N1B N 0.0097(3) 1.22348(15) 0.6702(2)
N1B_2 N 1.0097(3) 0.22348(15) 0.6702(2)
N2B N 0.1877(3) 1.15138(16) 0.6675(3)
N3B N 0.0828(3) 0.45536(15) 1.3930(2)
N3B_2 N 1.0828(3) 0.45536(15) 0.3930(2)
N4B N 0.2179(3) 0.43958(15) 1.2732(2)
O1B O 1.1451(3) 0.44902(14) 0.59584(19)
O2B O 0.9752(3) 0.38243(13) 0.6437(2)
O3B O 1.6558(3) 0.34048(14) 0.60945(19)
O3_2 O 1.3442(3) 0.65952(14) 0.39055(19)
O3B_2 O 0.6558(3) 0.34048(14) 0.60945(19)
O4B O 1.7387(3) 0.27896(14) 0.7382(2)
O4_2 O 1.2613(3) 0.72104(14) 0.2618(2)
O4B_2 O 0.7387(3) 0.27896(14) 0.7382(2)
O5B O 1.1914(3) 0.28619(14) 0.9820(2)
O6B O 1.3896(3) 0.22155(13) 0.98350(19)
O6C O 1.1104(3) 0.72155(13) 0.51650(19)
O6A O 0.8896(3) 0.27845(13) 0.48350(19)
O7 O 1.2480(9) 0.5682(4) 0.5330(5)
O9 O 0.6258(17) 0.7343(8) 0.5365(12)
O8? O 0.467(2) 0.5286(10) 0.5197(14)
loop_
_geom_bond_atom_site_label_1
_geom_bond_atom_site_label_2
_geom_bond_site_symmetry_1
_geom_bond_site_symmetry_2
Cu1 N1 1_555 1_555
Cu2 N3 1_555 1_555
C1 C2 1_555 1_555
C2 C3 1_555 1_555
C3 H1 1_555 1_555
C4 C5 1_555 1_555
C5 C3 1_555 1_555
C6 C5 1_555 1_555
H2 C6 1_555 1_555
C7 C8 1_555 1_555
C8 C6 1_555 1_555
C9 C2 1_555 1_555
H3 C9 1_555 1_555
C10 H4 1_555 1_555
C11 C10 1_555 1_555
H5 C11 1_555 1_555
C12 H6 1_555 1_555
C13 C14 1_555 1_555
C14 H7 1_555 1_555
C15 C14 1_555 1_555
H8 C15 1_555 1_555
C16 C15 1_555 1_555
C17 C16 1_555 1_555
H9 C17 1_555 1_555
C18 C13 1_555 1_555
H10 C18 1_555 1_555
C19 H11 1_555 1_555
C20 C19 1_555 1_555
H12 C20 1_555 1_555
C21 H13 1_555 1_555
C22 H14 1_555 1_555
C23 C22 1_555 1_555
H15 C23 1_555 1_555
C24 C23 1_555 1_555
C25 C24 1_555 1_555
H16 C25 1_555 1_555
C26 C25 1_555 1_555
H17 C26 1_555 1_555
C27 C22 1_555 1_555
N1 C10 1_555 1_555
N2 C11 1_555 1_555
N3 C19 1_555 1_555
N4 C20 1_555 1_555
O1 Cu2 1_555 1_555
O2 Cu1 1_555 1_555
O3 C4 1_555 1_555
O4 C4 1_555 1_555
O5 C7 1_555 1_555
O6 C7 1_555 1_555
Cu1B N1B_2 1_555 1_555
Cu1_2 O3 1_555 1_555
Cu1C O6 1_555 1_555
Cu1B_2 N1B 1_555 1_555
Cu1B_3 O3B 1_555 1_555
Cu1A O6B 1_555 1_555
Cu2_2 N3B 1_555 1_555
C1B C2B 1_555 1_555
C2B C3B 1_555 1_555
C3B H1B 1_555 1_555
C4B C5B 1_555 1_555
C5B C3B 1_555 1_555
C6B C5B 1_555 1_555
H2B C6B 1_555 1_555
C7B C8B 1_555 1_555
C8B C6B 1_555 1_555
C9B C2B 1_555 1_555
H3B C9B 1_555 1_555
C10B H4B 1_555 1_555
C11B C10B 1_555 1_555
H5B C11B 1_555 1_555
C12B H6B 1_555 1_555
C13B C14B 1_555 1_555
C14B H7B 1_555 1_555
C15B C14B 1_555 1_555
H8B C15B 1_555 1_555
C16B C16 1_555 1_555
C17B C16B 1_555 1_555
H9B C17B 1_555 1_555
C18B C13B 1_555 1_555
H10B C18B 1_555 1_555
C19B H11B 1_555 1_555
C20B C19B 1_555 1_555
H12B C20B 1_555 1_555
C21B H13B 1_555 1_555
C22B H14B 1_555 1_555
C23B C22B 1_555 1_555
H15B C23B 1_555 1_555
C24B C24 1_555 1_555
C25B C24B 1_555 1_555
H16B C25B 1_555 1_555
C26B C25B 1_555 1_555
H17B C26B 1_555 1_555
C27B C22B 1_555 1_555
N1B C10B 1_555 1_555
N2B C11B 1_555 1_555
N3B C19B 1_555 1_555
N3B_2 Cu2 1_555 1_555
N4B C20B 1_555 1_555
O1B Cu2 1_555 1_555
O2B Cu1B 1_555 1_555
O3B C4B 1_555 1_555
O3_2 Cu1 1_555 1_555
O3B_2 Cu1B 1_555 1_555
O4B Cu1B_3 1_555 1_555
O4_2 Cu1 1_555 1_555
O4B_2 Cu1B 1_555 1_555
O5B C7B 1_555 1_555
O6B C7B 1_555 1_555
O6C Cu1 1_555 1_555
O6A Cu1B 1_555 1_555
C1 O1 1_555 1_555
C1 O2 1_555 1_555
C8 C9 1_555 1_555
C12 N1 1_555 1_555
C12 N2 1_555 1_555
C13 N2 1_555 1_555
C17 C18 1_555 1_555
C21 N3 1_555 1_555
C21 N4 1_555 1_555
C26 C27 1_555 1_555
C27 N4 1_555 1_555
O4 Cu1_2 1_555 1_555
C1B O1B 1_555 1_555
C1B O2B 1_555 1_555
C4B O4B 1_555 1_555
C8B C9B 1_555 1_555
C12B N1B 1_555 1_555
C12B N2B 1_555 1_555
C13B N2B 1_555 1_555
C15B C16B 1_555 1_555
C17B C18B 1_555 1_555
C21B N3B 1_555 1_555
C21B N4B 1_555 1_555
C23B C24B 1_555 1_555
C26B C27B 1_555 1_555
C27B N4B 1_555 1_555

#END
