
#######################################################################
#
#                 Cambridge Crystallographic Data Centre
#                                CCDC 
#
#######################################################################
#
# If this CIF has been generated from an entry in the Cambridge 
# Structural Database, then it will include bibliographic, chemical, 
# crystal, experimental, refinement or atomic coordinate data resulting 
# from the CCDC's data processing and validation procedures.
#
#######################################################################

data_BUCWOM
_symmetry_cell_setting           monoclinic
_symmetry_space_group_name_H-M   'P 21/n'
_symmetry_Int_Tables_number      14
_space_group_name_Hall           '-P 2yn'
loop_
_symmetry_equiv_pos_site_id
_symmetry_equiv_pos_as_xyz
1 x,y,z
2 1/2-x,1/2+y,1/2-z
3 -x,-y,-z
4 1/2+x,1/2-y,1/2+z
_cell_length_a                   9.3470(7)
_cell_length_b                   20.8071(15)
_cell_length_c                   13.9123(10)
_cell_angle_alpha                90
_cell_angle_beta                 101.5790(10)
_cell_angle_gamma                90
_cell_volume                     2650.65
loop_
_atom_site_label
_atom_site_type_symbol
_atom_site_fract_x
_atom_site_fract_y
_atom_site_fract_z
Cd1 Cd 0.62713(3) 0.294920(13) 0.356420(19)
Cd2 Cd 0.5000 0.5000 0.5000
C1 C 0.4385(4) 0.1763(2) 0.2339(3)
H1 H 0.4816 0.1804 0.1795
C2 C 0.3793(4) 0.19330(18) 0.3715(3)
H2 H 0.3732 0.2112 0.4317
C3 C 0.3423(5) 0.1306(2) 0.2457(3)
H3 H 0.3084 0.0976 0.2021
C4 C 0.2106(4) 0.10214(19) 0.3788(3)
C5 C 0.1732(6) 0.1205(2) 0.4648(4)
H4 H 0.2021 0.1604 0.4917
C6 C 0.0927(5) 0.0799(2) 0.5119(4)
H5 H 0.0720 0.0927 0.5717
C7 C 0.0420(4) 0.02131(18) 0.4738(3)
C8 C 0.0787(5) 0.0053(2) 0.3865(3)
H6 H 0.0465 -0.0339 0.3578
C9 C 0.1607(5) 0.0444(2) 0.3392(3)
H7 H 0.1824 0.0314 0.2797
C10 C 0.0379(4) 0.49118(16) 0.9595(3)
C11 C 0.1203(4) 0.43588(17) 0.9626(3)
H8 H 0.1271 0.4085 1.0161
C12 C 0.1938(4) 0.41960(17) 0.8882(3)
H9 H 0.2489 0.3821 0.8927
C13 C 0.2572(4) 0.35808(15) 0.2702(2)
C14 C 0.1842(4) 0.45945(16) 0.8079(3)
C15 C 0.0989(5) 0.51327(19) 0.8013(3)
H10 H 0.0883 0.5393 0.7460
C16 C 0.0287(5) 0.52918(19) 0.8760(3)
H11 H -0.0268 0.5666 0.8705
C17 C 0.3119(4) 0.48541(17) 0.6732(3)
H12 H 0.3011 0.5297 0.6764
C18 C 0.3712(4) 0.39209(18) 0.6320(3)
H13 H 0.4098 0.3592 0.5997
C19 C 0.2996(4) 0.38354(18) 0.7058(3)
H14 H 0.2806 0.3446 0.7336
C20 C 0.3804(4) 0.39709(16) 0.3274(2)
C21 C 0.1267(4) 0.35334(16) 0.3025(3)
H15 H 0.1155 0.3759 0.3582
C22 C -0.1290(4) 0.31222(17) 0.2881(3)
C23 C 0.0125(4) 0.31590(16) 0.2538(3)
C24 C 0.0304(4) 0.28206(16) 0.1708(3)
H16 H -0.0445 0.2557 0.1387
C25 C 0.1724(4) 0.25310(17) 0.0427(3)
C26 C 0.1578(4) 0.28703(16) 0.1354(2)
C27 C 0.2709(4) 0.32544(16) 0.1853(2)
H17 H 0.3567 0.3293 0.1616
N1 N 0.4635(3) 0.21584(14) 0.3136(2)
N2 N 0.3038(3) 0.14153(15) 0.3331(2)
N3 N 0.3794(3) 0.45604(14) 0.6111(2)
N4 N 0.2603(3) 0.44310(13) 0.7315(2)
O1 O 0.0832(3) 0.20784(12) 0.01301(18)
O2 O 0.2665(3) 0.27100(13) -0.00336(18)
O3 O 0.3483(3) 0.43891(13) 0.38340(18)
O4 O 0.5081(2) 0.38574(11) 0.31390(17)
O5 O -0.1488(3) 0.34774(12) 0.35721(18)
O6 O -0.2253(3) 0.27359(13) 0.24636(19)
O7 O 0.6780(3) 0.42157(15) 0.5398(2)
H18 H 0.652(5) 0.386(2) 0.536(3)
H19 H 0.748(5) 0.427(2) 0.528(4)
Cd1A Cd 0.87287(3) 0.794920(13) 1.143580(19)
Cd1C Cd 0.12713(3) 0.205080(13) -0.143580(19)
Cd1_2 Cd -0.37287(3) 0.294920(13) 0.356420(19)
Cd1B Cd 0.37287(3) 0.705080(13) 0.643580(19)
Cd1B_2 Cd 1.37287(3) 0.705080(13) 0.643580(19)
Cd1B_3 Cd -0.62713(3) -0.294920(13) 0.643580(19)
Cd2_2 Cd -0.5000 0.5000 1.5000
C1B C -0.4385(4) -0.1763(2) 0.7661(3)
H1B H -0.4816 -0.1804 0.8205
C2B C -0.3793(4) -0.19330(18) 0.6285(3)
H2B H -0.3732 -0.2112 0.5683
C3B C -0.3423(5) -0.1306(2) 0.7543(3)
H3B H -0.3084 -0.0976 0.7979
C4B C -0.2106(4) -0.10214(19) 0.6212(3)
C5B C -0.1732(6) -0.1205(2) 0.5352(4)
H4B H -0.2021 -0.1604 0.5083
C6B C -0.0927(5) -0.0799(2) 0.4881(4)
H5B H -0.0720 -0.0927 0.4283
C7B C -0.0420(4) -0.02131(18) 0.5262(3)
C8B C -0.0787(5) -0.0053(2) 0.6135(3)
H6B H -0.0465 0.0339 0.6422
C9B C -0.1607(5) -0.0444(2) 0.6608(3)
H7B H -0.1824 -0.0314 0.7203
C10B C -0.0379(4) 0.50882(16) 1.0405(3)
C11B C -0.1203(4) 0.56412(17) 1.0374(3)
H8B H -0.1271 0.5915 0.9839
C12B C -0.1938(4) 0.58040(17) 1.1118(3)
H9B H -0.2489 0.6179 1.1073
C13B C 0.7428(4) 0.64192(15) 0.7298(2)
C14B C -0.1842(4) 0.54055(16) 1.1921(3)
C15B C -0.0989(5) 0.48673(19) 1.1987(3)
H10B H -0.0883 0.4607 1.2540
C16B C -0.0287(5) 0.47082(19) 1.1240(3)
H11B H 0.0268 0.4334 1.1295
C17B C -0.3119(4) 0.51459(17) 1.3268(3)
H12B H -0.3011 0.4703 1.3236
C18B C -0.3712(4) 0.60791(18) 1.3680(3)
H13B H -0.4098 0.6408 1.4003
C19B C -0.2996(4) 0.61646(18) 1.2942(3)
H14B H -0.2806 0.6554 1.2664
C20B C 0.6196(4) 0.60291(16) 0.6726(2)
C21B C 0.8733(4) 0.64666(16) 0.6975(3)
H15B H 0.8845 0.6241 0.6418
C22B C 1.1290(4) 0.68778(17) 0.7119(3)
C23B C 0.9875(4) 0.68410(16) 0.7462(3)
C24B C 0.9696(4) 0.71794(16) 0.8292(3)
H16B H 1.0445 0.7443 0.8613
C25B C 0.8276(4) 0.74690(17) 0.9573(3)
C26B C 0.8422(4) 0.71297(16) 0.8646(2)
C27B C 0.7291(4) 0.67456(16) 0.8147(2)
H17B H 0.6433 0.6707 0.8384
N1B N 0.5365(3) 0.78416(14) 0.6864(2)
N1B_2 N -0.4635(3) -0.21584(14) 0.6864(2)
N2B N -0.3038(3) -0.14153(15) 0.6669(2)
N3B N -0.3794(3) 0.54396(14) 1.3889(2)
N3B_2 N 0.6206(3) 0.54396(14) 0.3889(2)
N4B N -0.2603(3) 0.55690(13) 1.2685(2)
O1B O 0.9168(3) 0.79216(12) 0.98699(18)
O1A O 0.4168(3) 0.70784(12) 0.48699(18)
O1C O 0.5832(3) 0.29216(12) 0.51301(18)
O2B O 0.7335(3) 0.72900(13) 1.00336(18)
O2A O 0.2335(3) 0.77100(13) 0.50336(18)
O2C O 0.7665(3) 0.22900(13) 0.49664(18)
O3B O 0.6517(3) 0.56109(13) 0.61660(18)
O4B O 0.4919(2) 0.61426(11) 0.68610(17)
O5B O 1.1488(3) 0.65226(12) 0.64279(18)
O5B_2 O 0.1488(3) 0.65226(12) 0.64279(18)
O5_2 O 0.8512(3) 0.34774(12) 0.35721(18)
O6B O 1.2253(3) 0.72641(13) 0.75364(19)
O6B_2 O 0.2253(3) 0.72641(13) 0.75364(19)
O6_2 O 0.7747(3) 0.27359(13) 0.24636(19)
O7B O 0.3220(3) 0.57843(15) 0.4602(2)
H18B H 0.348(5) 0.614(2) 0.464(3)
H19B H 0.252(5) 0.573(2) 0.472(4)
O8 O 0.9674(5) 0.4286(3) 0.5146(3)
H20 H 0.951(9) 0.4604(17) 0.541(5)
H21 H 0.939(9) 0.425(4) 0.462(5)
O9 O 0.0973(7) 0.2702(3) 0.5384(5)
H22 H 0.0086 0.2583 0.5297
H23 H 0.1410 0.2576 0.5948
loop_
_geom_bond_atom_site_label_1
_geom_bond_atom_site_label_2
_geom_bond_site_symmetry_1
_geom_bond_site_symmetry_2
Cd1 N1 1_555 1_555
Cd2 N3 1_555 1_555
C1 H1 1_555 1_555
C2 H2 1_555 1_555
C3 C1 1_555 1_555
H3 C3 1_555 1_555
C4 C5 1_555 1_555
C5 H4 1_555 1_555
C6 C5 1_555 1_555
H5 C6 1_555 1_555
C7 C6 1_555 1_555
C8 C7 1_555 1_555
H6 C8 1_555 1_555
C9 C4 1_555 1_555
H7 C9 1_555 1_555
C10 C11 1_555 1_555
C11 H8 1_555 1_555
C12 C11 1_555 1_555
H9 C12 1_555 1_555
C13 C20 1_555 1_555
C14 C12 1_555 1_555
C15 C14 1_555 1_555
H10 C15 1_555 1_555
C16 C10 1_555 1_555
H11 C16 1_555 1_555
C17 H12 1_555 1_555
C18 H13 1_555 1_555
C19 C18 1_555 1_555
H14 C19 1_555 1_555
C20 O3 1_555 1_555
C21 C13 1_555 1_555
H15 C21 1_555 1_555
C22 C23 1_555 1_555
C23 C21 1_555 1_555
C24 C23 1_555 1_555
H16 C24 1_555 1_555
C25 C26 1_555 1_555
C26 C24 1_555 1_555
C27 C13 1_555 1_555
H17 C27 1_555 1_555
N1 C1 1_555 1_555
N2 C2 1_555 1_555
N3 C17 1_555 1_555
N4 C14 1_555 1_555
O1 C25 1_555 1_555
O2 C25 1_555 1_555
O3 Cd2 1_555 1_555
O4 Cd1 1_555 1_555
O5 C22 1_555 1_555
O6 C22 1_555 1_555
O7 Cd2 1_555 1_555
H18 O7 1_555 1_555
H19 O7 1_555 1_555
O8 H20 1_555 1_555
H21 O8 1_555 1_555
O9 H22 1_555 1_555
H23 O9 1_555 1_555
Cd1A O1B 1_555 1_555
Cd1C O1 1_555 1_555
Cd1_2 O5 1_555 1_555
Cd1B N1B 1_555 1_555
Cd1B_2 O5B 1_555 1_555
Cd1B_3 N1B_2 1_555 1_555
Cd2_2 N3B 1_555 1_555
C1B H1B 1_555 1_555
C2B H2B 1_555 1_555
C3B C1B 1_555 1_555
H3B C3B 1_555 1_555
C4B C5B 1_555 1_555
C5B H4B 1_555 1_555
C6B C5B 1_555 1_555
H5B C6B 1_555 1_555
C7B C7 1_555 1_555
C8B C7B 1_555 1_555
H6B C8B 1_555 1_555
C9B C4B 1_555 1_555
H7B C9B 1_555 1_555
C10B C10 1_555 1_555
C11B C10B 1_555 1_555
H8B C11B 1_555 1_555
C12B C11B 1_555 1_555
H9B C12B 1_555 1_555
C13B C20B 1_555 1_555
C14B C12B 1_555 1_555
C15B C14B 1_555 1_555
H10B C15B 1_555 1_555
C16B C10B 1_555 1_555
H11B C16B 1_555 1_555
C17B H12B 1_555 1_555
C18B H13B 1_555 1_555
C19B C18B 1_555 1_555
H14B C19B 1_555 1_555
C20B O3B 1_555 1_555
C21B C13B 1_555 1_555
H15B C21B 1_555 1_555
C22B C23B 1_555 1_555
C23B C21B 1_555 1_555
C24B C23B 1_555 1_555
H16B C24B 1_555 1_555
C25B C26B 1_555 1_555
C26B C24B 1_555 1_555
C27B C13B 1_555 1_555
H17B C27B 1_555 1_555
N1B_2 C1B 1_555 1_555
N2B C2B 1_555 1_555
N3B C17B 1_555 1_555
N3B_2 Cd2 1_555 1_555
N4B C14B 1_555 1_555
O1B C25B 1_555 1_555
O1A Cd1B 1_555 1_555
O1C Cd1 1_555 1_555
O2B Cd1A 1_555 1_555
O2A Cd1B 1_555 1_555
O2C Cd1 1_555 1_555
O3B Cd2 1_555 1_555
O4B Cd1B 1_555 1_555
O5B C22B 1_555 1_555
O5B_2 Cd1B 1_555 1_555
O5_2 Cd1 1_555 1_555
O6B Cd1B_2 1_555 1_555
O6B_2 Cd1B 1_555 1_555
O6_2 Cd1 1_555 1_555
O7B Cd2 1_555 1_555
H18B O7B 1_555 1_555
H19B O7B 1_555 1_555
C2 N1 1_555 1_555
C3 N2 1_555 1_555
C4 N2 1_555 1_555
C8 C9 1_555 1_555
C15 C16 1_555 1_555
C17 N4 1_555 1_555
C18 N3 1_555 1_555
C19 N4 1_555 1_555
C20 O4 1_555 1_555
C26 C27 1_555 1_555
O2 Cd1C 1_555 1_555
O6 Cd1_2 1_555 1_555
C2B N1B_2 1_555 1_555
C3B N2B 1_555 1_555
C4B N2B 1_555 1_555
C6B C7B 1_555 1_555
C8B C9B 1_555 1_555
C15B C16B 1_555 1_555
C17B N4B 1_555 1_555
C18B N3B 1_555 1_555
C19B N4B 1_555 1_555
C20B O4B 1_555 1_555
C22B O6B 1_555 1_555
C25B O2B 1_555 1_555
C26B C27B 1_555 1_555

#END
