
#######################################################################
#
#                 Cambridge Crystallographic Data Centre
#                                CCDC 
#
#######################################################################
#
# If this CIF has been generated from an entry in the Cambridge 
# Structural Database, then it will include bibliographic, chemical, 
# crystal, experimental, refinement or atomic coordinate data resulting 
# from the CCDC's data processing and validation procedures.
#
#######################################################################

data_BUCWED
_symmetry_cell_setting           monoclinic
_symmetry_space_group_name_H-M   'P 2/c'
_symmetry_Int_Tables_number      13
_space_group_name_Hall           '-P 2yc'
loop_
_symmetry_equiv_pos_site_id
_symmetry_equiv_pos_as_xyz
1 x,y,z
2 -x,y,1/2-z
3 -x,-y,-z
4 x,-y,1/2+z
_cell_length_a                   11.5922(18)
_cell_length_b                   7.7762(11)
_cell_length_c                   17.078(3)
_cell_angle_alpha                90
_cell_angle_beta                 96.275(3)
_cell_angle_gamma                90
_cell_volume                     1530.24
loop_
_atom_site_label
_atom_site_type_symbol
_atom_site_fract_x
_atom_site_fract_y
_atom_site_fract_z
Zn1 Zn 1.0000 0.97433(7) 0.2500
C1 C 0.8604(3) 0.6603(5) 0.2813(2)
H1 H 0.8743 0.6105 0.2337
C2 C 0.8612(3) 0.8339(5) 0.3783(2)
H2 H 0.8763 0.9291 0.4108
C3 C 0.7967(3) 0.6985(5) 0.3948(2)
H3 H 0.7595 0.6828 0.4398
C4 C 0.7384(3) 0.4209(5) 0.3230(2)
H4 H 0.7393 0.3663 0.3741
H5 H 0.7817 0.3481 0.2904
C5 C 0.6148(3) 0.4337(5) 0.2857(2)
C6 C 0.5569(3) 0.5832(5) 0.2685(2)
H6 H 0.5936 0.6873 0.2816
C7 C 0.5563(3) 0.2787(5) 0.2676(2)
H7 H 0.5939 0.1748 0.2795
C8 C 1.0679(3) 1.2199(5) 0.3595(2)
C9 C 1.1493(3) 1.3569(4) 0.39388(19)
C10 C 1.2681(3) 1.3369(4) 0.3942(2)
H8 H 1.2971 1.2374 0.3732
C11 C 1.3434(3) 1.4610(5) 0.4248(2)
H9 H 1.4230 1.4446 0.4258
C12 C 1.1068(3) 1.5066(4) 0.4236(2)
H10 H 1.0272 1.5208 0.4239
C13 C 1.1819(3) 1.6362(5) 0.4530(2)
H11 H 1.1529 1.7382 0.4715
C14 C 1.3007(3) 1.6117(5) 0.4545(2)
C15 C 1.3481(4) 1.8967(5) 0.5047(3)
H12 H 1.2985 1.8924 0.5468
H13 H 1.3059 1.9519 0.4593
C16 C 1.4594(4) 1.9952(5) 0.5310(3)
H14 H 1.4393 2.1110 0.5457
H15 H 1.4987 1.9399 0.5774
N1 N 0.9018(2) 0.8115(4) 0.30664(16)
N2 N 0.7964(2) 0.5884(4) 0.33282(17)
O1 O 1.1117(2) 1.1025(3) 0.32001(16)
O2 O 0.9639(3) 1.2264(4) 0.3691(2)
O3 O 1.3829(2) 1.7266(3) 0.48477(18)
C1A C 0.1396(3) 0.6603(5) 0.2187(2)
H1A H 0.1257 0.6105 0.2663
C2A C 0.1388(3) 0.8339(5) 0.1217(2)
H2A H 0.1237 0.9291 0.0892
C3A C 0.2033(3) 0.6985(5) 0.1052(2)
H3A H 0.2405 0.6828 0.0602
C4A C 0.2616(3) 0.4209(5) 0.1770(2)
H4A H 0.2607 0.3663 0.1259
H5A H 0.2183 0.3481 0.2096
C5A C 0.3852(3) 0.4337(5) 0.2143(2)
C6A C 0.4431(3) 0.5832(5) 0.2315(2)
H6A H 0.4064 0.6873 0.2184
C7A C 0.4437(3) 0.2787(5) 0.2324(2)
H7A H 0.4061 0.1748 0.2205
N1A N 0.0982(2) 0.8115(4) 0.19336(16)
N2A N 0.2036(2) 0.5884(4) 0.16718(17)
C8B C 1.9321(3) 2.7801(5) 0.6405(2)
C9B C 1.8507(3) 2.6431(4) 0.60612(19)
C10B C 1.7319(3) 2.6631(4) 0.6058(2)
H8B H 1.7029 2.7626 0.6268
C11B C 1.6566(3) 2.5390(5) 0.5752(2)
H9B H 1.5770 2.5554 0.5742
C12B C 1.8932(3) 2.4934(4) 0.5764(2)
H10B H 1.9728 2.4792 0.5761
C13B C 1.8181(3) 2.3638(5) 0.5470(2)
H11B H 1.8471 2.2618 0.5285
C14B C 1.6993(3) 2.3883(5) 0.5455(2)
C15B C 1.6519(4) 2.1033(5) 0.4953(3)
H12B H 1.7015 2.1076 0.4532
H13B H 1.6941 2.0481 0.5407
C16B C 1.5406(4) 2.0048(5) 0.4690(3)
H14B H 1.5607 1.8890 0.4543
H15B H 1.5013 2.0601 0.4226
O1B O 1.8883(2) 2.8975(3) 0.67999(16)
O2B O 2.0361(3) 2.7736(4) 0.6309(2)
O3B O 1.6171(2) 2.2734(3) 0.51523(18)
Zn1_2 Zn 0.0000 0.97433(7) 0.2500
Zn1B Zn 2.0000 3.02567(7) 0.7500
N1A_2 N 1.0982(2) 0.8115(4) 0.19336(16)
O1A O 0.8883(2) 1.1025(3) 0.17999(16)
loop_
_geom_bond_atom_site_label_1
_geom_bond_atom_site_label_2
_geom_bond_site_symmetry_1
_geom_bond_site_symmetry_2
Zn1 N1 1_555 1_555
C1 H1 1_555 1_555
C2 H2 1_555 1_555
C3 C2 1_555 1_555
H3 C3 1_555 1_555
C4 H4 1_555 1_555
H5 C4 1_555 1_555
C5 C4 1_555 1_555
C6 C5 1_555 1_555
H6 C6 1_555 1_555
C7 C5 1_555 1_555
H7 C7 1_555 1_555
C8 C9 1_555 1_555
C9 C10 1_555 1_555
C10 H8 1_555 1_555
C11 C10 1_555 1_555
H9 C11 1_555 1_555
C12 C9 1_555 1_555
H10 C12 1_555 1_555
C13 C12 1_555 1_555
H11 C13 1_555 1_555
C14 C11 1_555 1_555
C15 H12 1_555 1_555
H13 C15 1_555 1_555
C16 C15 1_555 1_555
H14 C16 1_555 1_555
H15 C16 1_555 1_555
N1 C1 1_555 1_555
N2 C1 1_555 1_555
O1 Zn1 1_555 1_555
O2 C8 1_555 1_555
O3 C14 1_555 1_555
C1A H1A 1_555 1_555
C2A H2A 1_555 1_555
C3A C2A 1_555 1_555
H3A C3A 1_555 1_555
C4A H4A 1_555 1_555
H5A C4A 1_555 1_555
C5A C4A 1_555 1_555
C6A C6 1_555 1_555
H6A C6A 1_555 1_555
C7A C7 1_555 1_555
H7A C7A 1_555 1_555
N1A C1A 1_555 1_555
N2A C1A 1_555 1_555
C8B C9B 1_555 1_555
C9B C10B 1_555 1_555
C10B H8B 1_555 1_555
C11B C10B 1_555 1_555
H9B C11B 1_555 1_555
C12B C9B 1_555 1_555
H10B C12B 1_555 1_555
C13B C12B 1_555 1_555
H11B C13B 1_555 1_555
C14B C11B 1_555 1_555
C15B H12B 1_555 1_555
H13B C15B 1_555 1_555
C16B C16 1_555 1_555
H14B C16B 1_555 1_555
H15B C16B 1_555 1_555
O1B C8B 1_555 1_555
O2B C8B 1_555 1_555
O3B C14B 1_555 1_555
Zn1_2 N1A 1_555 1_555
Zn1B O1B 1_555 1_555
N1A_2 Zn1 1_555 1_555
O1A Zn1 1_555 1_555
C2 N1 1_555 1_555
C3 N2 1_555 1_555
C4 N2 1_555 1_555
C8 O1 1_555 1_555
C13 C14 1_555 1_555
C15 O3 1_555 1_555
C2A N1A 1_555 1_555
C3A N2A 1_555 1_555
C4A N2A 1_555 1_555
C5A C6A 1_555 1_555
C5A C7A 1_555 1_555
C13B C14B 1_555 1_555
C15B C16B 1_555 1_555
C15B O3B 1_555 1_555

#END
