
#######################################################################
#
#                 Cambridge Crystallographic Data Centre
#                                CCDC 
#
#######################################################################
#
# If this CIF has been generated from an entry in the Cambridge 
# Structural Database, then it will include bibliographic, chemical, 
# crystal, experimental, refinement or atomic coordinate data resulting 
# from the CCDC's data processing and validation procedures.
#
#######################################################################

data_BUDBAE
_symmetry_cell_setting           monoclinic
_symmetry_space_group_name_H-M   'P 21/c'
_symmetry_Int_Tables_number      14
_space_group_name_Hall           '-P 2ybc'
loop_
_symmetry_equiv_pos_site_id
_symmetry_equiv_pos_as_xyz
1 x,y,z
2 -x,1/2+y,1/2-z
3 -x,-y,-z
4 x,1/2-y,1/2+z
_cell_length_a                   14.508(4)
_cell_length_b                   11.747(3)
_cell_length_c                   9.407(3)
_cell_angle_alpha                90
_cell_angle_beta                 101.805(3)
_cell_angle_gamma                90
_cell_volume                     1569.28
loop_
_atom_site_label
_atom_site_type_symbol
_atom_site_fract_x
_atom_site_fract_y
_atom_site_fract_z
Cu1 Cu 0.754799(16) 0.40947(2) 0.14007(3)
C1 C 0.58094(14) 0.47447(17) 0.2269(2)
C2 C 0.53738(17) 0.5434(2) 0.3195(3)
H1 H 0.5734 0.5967 0.3797
C3 C 0.44485(18) 0.5327(2) 0.3216(3)
H2 H 0.4194 0.5774 0.3855
C4 C 0.38571(16) 0.4559(2) 0.2299(3)
C5 C 0.28967(18) 0.4444(3) 0.2361(3)
H3 H 0.2657 0.4864 0.3041
C6 C 0.23200(19) 0.3736(3) 0.1457(4)
H4 H 0.1693 0.3659 0.1525
C7 C 0.26763(17) 0.3122(2) 0.0417(3)
H5 H 0.2279 0.2647 -0.0224
C8 C 0.36069(15) 0.3211(2) 0.0331(3)
H6 H 0.3827 0.2801 -0.0378
C9 C 0.42367(15) 0.39105(17) 0.1292(2)
C10 C 0.52409(14) 0.39925(16) 0.1297(2)
C11 C 0.56303(14) 0.33185(17) 0.0311(2)
H7 H 0.5214 0.2884 -0.0357
C12 C 0.68024(15) 0.25177(19) -0.0810(2)
H8 H 0.6376 0.2612 -0.1742
H9 H 0.6775 0.1729 -0.0515
C13 C 0.77987(14) 0.28074(17) -0.0955(2)
C14 C 0.93488(18) 0.5307(3) 0.1688(3)
H10 H 0.9353 0.4959 0.0802
C15 C 1.0076(2) 0.6014(3) 0.2262(4)
H11 H 1.0560 0.6146 0.1768
C16 C 1.00878(19) 0.6523(3) 0.3557(4)
H12 H 1.0572 0.7017 0.3957
C17 C 0.9372(2) 0.6294(3) 0.4269(4)
H13 H 0.9371 0.6613 0.5173
C18 C 0.86512(17) 0.5579(2) 0.3615(3)
H14 H 0.8161 0.5436 0.4090
N1 N 0.65107(11) 0.32565(14) 0.02613(18)
N2 N 0.86312(12) 0.50919(16) 0.2340(2)
O1 O 0.67150(10) 0.48556(12) 0.24244(16)
O2 O 0.82497(9) 0.34878(13) -0.00179(15)
O3 O 0.81199(11) 0.23568(14) -0.19287(17)
Cu1C Cu 0.754799(16) 0.09053(2) -0.35993(3)
O3C O 0.81199(11) 0.26432(14) 0.30713(17)
loop_
_geom_bond_atom_site_label_1
_geom_bond_atom_site_label_2
_geom_bond_site_symmetry_1
_geom_bond_site_symmetry_2
Cu1 N1 1_555 1_555
C1 C2 1_555 1_555
C2 H1 1_555 1_555
C3 C2 1_555 1_555
H2 C3 1_555 1_555
C4 C3 1_555 1_555
C5 C4 1_555 1_555
H3 C5 1_555 1_555
C6 C5 1_555 1_555
H4 C6 1_555 1_555
C7 C6 1_555 1_555
H5 C7 1_555 1_555
C8 C7 1_555 1_555
H6 C8 1_555 1_555
C9 C4 1_555 1_555
C10 C1 1_555 1_555
C11 C10 1_555 1_555
H7 C11 1_555 1_555
C12 H8 1_555 1_555
H9 C12 1_555 1_555
C13 C12 1_555 1_555
C14 H10 1_555 1_555
C15 C14 1_555 1_555
H11 C15 1_555 1_555
C16 C15 1_555 1_555
H12 C16 1_555 1_555
C17 C16 1_555 1_555
H13 C17 1_555 1_555
C18 C17 1_555 1_555
H14 C18 1_555 1_555
N1 C11 1_555 1_555
N2 Cu1 1_555 1_555
O1 Cu1 1_555 1_555
O2 Cu1 1_555 1_555
O3 C13 1_555 1_555
Cu1C O3 1_555 1_555
O3C Cu1 1_555 1_555
C1 O1 1_555 1_555
C8 C9 1_555 1_555
C9 C10 1_555 1_555
C12 N1 1_555 1_555
C13 O2 1_555 1_555
C14 N2 1_555 1_555
C18 N2 1_555 1_555

#END
