
#######################################################################
#
#                 Cambridge Crystallographic Data Centre
#                                CCDC 
#
#######################################################################
#
# If this CIF has been generated from an entry in the Cambridge 
# Structural Database, then it will include bibliographic, chemical, 
# crystal, experimental, refinement or atomic coordinate data resulting 
# from the CCDC's data processing and validation procedures.
#
#######################################################################

data_BUDCIN
_symmetry_cell_setting           monoclinic
_symmetry_space_group_name_H-M   'P 21/c'
_symmetry_Int_Tables_number      14
_space_group_name_Hall           '-P 2ybc'
loop_
_symmetry_equiv_pos_site_id
_symmetry_equiv_pos_as_xyz
1 x,y,z
2 -x,1/2+y,1/2-z
3 -x,-y,-z
4 x,1/2-y,1/2+z
_cell_length_a                   7.4570(10)
_cell_length_b                   13.002(3)
_cell_length_c                   6.8160(10)
_cell_angle_alpha                90
_cell_angle_beta                 105.41(3)
_cell_angle_gamma                90
_cell_volume                     637.093
loop_
_atom_site_label
_atom_site_type_symbol
_atom_site_fract_x
_atom_site_fract_y
_atom_site_fract_z
K1 K 0.50362(4) 0.64050(2) 0.09788(4)
O1 O 0.69356(12) 0.82467(7) 0.01504(14)
O2 O 0.90563(12) 0.92917(7) 0.20776(13)
O3 O 1.27158(12) 0.76799(7) 0.24610(13)
O4 O 1.46616(12) 0.93401(7) 0.18090(13)
O5 O 0.77186(13) 0.51272(8) 0.03917(15)
N1 N 1.28881(15) 0.90970(9) 0.06042(16)
C1 C 0.85663(17) 0.85843(9) 0.07756(18)
C2 C 1.00201(17) 0.81466(10) -0.02077(18)
H1 H 0.9780 0.7419 -0.0464
H2 H 0.9890 0.8482 -0.1510
C3 C 1.19948(16) 0.82835(10) 0.10799(18)
H3 H 1.543(3) 0.8999(18) 0.124(3)
H4 H 1.243(3) 0.9497(15) -0.027(3)
H5 H 0.863(3) 0.4904(18) 0.125(3)
H6 H 0.807(3) 0.5327(18) -0.062(4)
K1B K 0.49638(4) 0.35950(2) -0.09788(4)
K1C K 0.50362(4) 0.85950(2) 0.59788(4)
K1C_2 K 0.50362(4) 0.85950(2) -0.40212(4)
K1_2 K 1.50362(4) 0.64050(2) 0.09788(4)
K1C_3 K 1.50362(4) 0.85950(2) 0.59788(4)
K1A K 1.49638(4) 1.14050(2) 0.40212(4)
O1C O 0.69356(12) 0.67533(7) 0.51504(14)
O3_2 O 0.27158(12) 0.76799(7) 0.24610(13)
O3C O 0.27158(12) 0.73201(7) -0.25390(13)
O4A O 0.53384(12) 0.43401(7) 0.31910(13)
O4C O 0.46616(12) 0.56599(7) -0.31910(13)
O5B O 0.22814(13) 0.48728(8) -0.03917(15)
H3A H 0.457(3) 0.3999(18) 0.376(3)
H3C H 0.543(3) 0.6001(18) -0.376(3)
H5B H 0.137(3) 0.5096(18) -0.125(3)
H6B H 0.193(3) 0.4673(18) 0.062(4)
loop_
_geom_bond_atom_site_label_1
_geom_bond_atom_site_label_2
_geom_bond_site_symmetry_1
_geom_bond_site_symmetry_2
K1 O1 1_555 1_555
O1 C1 1_555 1_555
O2 C1 1_555 1_555
O3 C3 1_555 1_555
O4 N1 1_555 1_555
O5 K1 1_555 1_555
N1 C3 1_555 1_555
C1 C2 1_555 1_555
C2 H1 1_555 1_555
H2 C2 1_555 1_555
C3 C2 1_555 1_555
H3 O4 1_555 1_555
H4 N1 1_555 1_555
H5 O5 1_555 1_555
H6 O5 1_555 1_555
K1B O5 1_555 1_555
K1C O1C 1_555 1_555
K1C_2 O1 1_555 1_555
K1_2 O3 1_555 1_555
K1C_3 O3 1_555 1_555
K1A O4 1_555 1_555
O1C K1 1_555 1_555
O3_2 K1 1_555 1_555
O3C K1 1_555 1_555
O4A K1 1_555 1_555
O4C K1 1_555 1_555
O5B K1 1_555 1_555
H3A O4A 1_555 1_555
H3C O4C 1_555 1_555
H5B O5B 1_555 1_555
H6B O5B 1_555 1_555
O4 K1C_3 1_555 1_555
K1B O4A 1_555 1_555
K1B O4C 1_555 1_555
K1B O5B 1_555 1_555
K1C O3_2 1_555 1_555
K1C_2 O3C 1_555 1_555

#END
