
#######################################################################
#
#                 Cambridge Crystallographic Data Centre
#                                CCDC 
#
#######################################################################
#
# If this CIF has been generated from an entry in the Cambridge 
# Structural Database, then it will include bibliographic, chemical, 
# crystal, experimental, refinement or atomic coordinate data resulting 
# from the CCDC's data processing and validation procedures.
#
#######################################################################

data_BUDDAG
_symmetry_cell_setting           monoclinic
_symmetry_space_group_name_H-M   'P 21/n'
_symmetry_Int_Tables_number      14
_space_group_name_Hall           '-P 2yn'
loop_
_symmetry_equiv_pos_site_id
_symmetry_equiv_pos_as_xyz
1 x,y,z
2 1/2-x,1/2+y,1/2-z
3 -x,-y,-z
4 1/2+x,1/2-y,1/2+z
_cell_length_a                   7.0754(9)
_cell_length_b                   28.306(3)
_cell_length_c                   13.6721(15)
_cell_angle_alpha                90
_cell_angle_beta                 93.117(2)
_cell_angle_gamma                90
_cell_volume                     2734.15
loop_
_atom_site_label
_atom_site_type_symbol
_atom_site_fract_x
_atom_site_fract_y
_atom_site_fract_z
Sn1 Sn 0.02624(7) 0.138217(16) 0.88059(3)
Sn2 Sn 0.20583(7) 0.212967(17) 1.21572(3)
Cl1 Cl 0.4073(6) 0.03321(16) 1.1310(3)
Cl2 Cl -0.2267(4) 0.14040(10) 0.36127(15)
O1 O 0.1070(7) 0.14009(16) 1.0530(3)
O2 O 0.1197(7) 0.13802(16) 1.2145(3)
O3 O -0.0431(7) 0.13733(16) 0.7223(3)
O4 O -0.1907(7) 0.20535(18) 0.7318(3)
C1 C 0.0842(11) 0.1192(3) 1.1319(5)
C2 C 0.0044(13) 0.0697(3) 1.1322(6)
H1 H -0.1323 0.0720 1.1333
H2 H 0.0328 0.0546 1.0710
C3 C 0.0721(17) 0.0382(3) 1.2138(7)
C4 C 0.2486(19) 0.0191(4) 1.2200(8)
C5 C 0.316(2) -0.0112(4) 1.2941(10)
H3 H 0.4382 -0.0237 1.2975
C6 C 0.184(3) -0.0208(4) 1.3620(10)
H4 H 0.2224 -0.0410 1.4131
C7 C 0.001(2) -0.0036(4) 1.3623(9)
H5 H -0.0816 -0.0121 1.4100
C8 C -0.0504(18) 0.0264(3) 1.2880(8)
H6 H -0.1708 0.0397 1.2861
C9 C -0.1339(10) 0.1720(3) 0.6832(5)
C10 C -0.1744(10) 0.1690(3) 0.5734(5)
H7 H -0.0690 0.1534 0.5443
H8 H -0.1837 0.2007 0.5469
C11 C -0.3557(10) 0.1423(2) 0.5447(5)
C12 C -0.3923(11) 0.1278(3) 0.4478(6)
C13 C -0.5520(14) 0.1049(3) 0.4182(7)
H9 H -0.5713 0.0958 0.3531
C14 C -0.6863(13) 0.0950(3) 0.4838(7)
H10 H -0.7967 0.0792 0.4633
C15 C -0.6576(12) 0.1084(3) 0.5797(7)
H11 H -0.7488 0.1020 0.6244
C16 C -0.4919(11) 0.1317(3) 0.6100(6)
H12 H -0.4723 0.1403 0.6754
C17 C 0.1855(13) 0.0758(3) 0.8683(6)
H13 H 0.2891 0.0759 0.9167
H14 H 0.2338 0.0741 0.8041
H15 H 0.1062 0.0489 0.8785
C18 C -0.2588(11) 0.1335(3) 0.9193(6)
H16 H -0.3086 0.1030 0.9012
H17 H -0.3322 0.1576 0.8855
H18 H -0.2649 0.1378 0.9887
C19 C 0.1885(11) 0.2012(3) 0.8801(5)
H19 H 0.3035 0.1969 0.9196
H20 H 0.1171 0.2266 0.9062
H21 H 0.2183 0.2086 0.8141
C20 C -0.0375(10) 0.2385(3) 1.1363(6)
H22 H -0.0001 0.2560 1.0803
H23 H -0.1072 0.2588 1.1776
H24 H -0.1158 0.2124 1.1149
C21 C 0.2034(13) 0.2164(3) 1.3703(5)
H25 H 0.1478 0.2458 1.3891
H26 H 0.3308 0.2145 1.3980
H27 H 0.1306 0.1906 1.3939
C22 C 0.4641(10) 0.2008(3) 1.1510(6)
H28 H 0.4750 0.1678 1.1356
H29 H 0.5669 0.2099 1.1957
H30 H 0.4684 0.2191 1.0920
Sn2C Sn -0.29417(7) 0.287033(17) 0.71572(3)
O4C O 0.3093(7) 0.29465(18) 1.2318(3)
loop_
_geom_bond_atom_site_label_1
_geom_bond_atom_site_label_2
_geom_bond_site_symmetry_1
_geom_bond_site_symmetry_2
Sn1 O1 1_555 1_555
Sn2 O2 1_555 1_555
Cl1 C4 1_555 1_555
Cl2 C12 1_555 1_555
O1 C1 1_555 1_555
O2 C1 1_555 1_555
O3 Sn1 1_555 1_555
O4 C9 1_555 1_555
C1 C2 1_555 1_555
C2 H1 1_555 1_555
H2 C2 1_555 1_555
C3 C2 1_555 1_555
C4 C3 1_555 1_555
C5 C4 1_555 1_555
H3 C5 1_555 1_555
C6 C5 1_555 1_555
H4 C6 1_555 1_555
C7 C6 1_555 1_555
H5 C7 1_555 1_555
C8 C3 1_555 1_555
H6 C8 1_555 1_555
C9 O3 1_555 1_555
C10 C9 1_555 1_555
H7 C10 1_555 1_555
H8 C10 1_555 1_555
C11 C10 1_555 1_555
C12 C11 1_555 1_555
C13 C12 1_555 1_555
H9 C13 1_555 1_555
C14 C13 1_555 1_555
H10 C14 1_555 1_555
C15 C14 1_555 1_555
H11 C15 1_555 1_555
C16 C11 1_555 1_555
H12 C16 1_555 1_555
C17 Sn1 1_555 1_555
H13 C17 1_555 1_555
H14 C17 1_555 1_555
H15 C17 1_555 1_555
C18 Sn1 1_555 1_555
H16 C18 1_555 1_555
H17 C18 1_555 1_555
H18 C18 1_555 1_555
C19 Sn1 1_555 1_555
H19 C19 1_555 1_555
H20 C19 1_555 1_555
H21 C19 1_555 1_555
C20 Sn2 1_555 1_555
H22 C20 1_555 1_555
H23 C20 1_555 1_555
H24 C20 1_555 1_555
C21 Sn2 1_555 1_555
H25 C21 1_555 1_555
H26 C21 1_555 1_555
H27 C21 1_555 1_555
C22 Sn2 1_555 1_555
H28 C22 1_555 1_555
H29 C22 1_555 1_555
H30 C22 1_555 1_555
Sn2C O4 1_555 1_555
O4C Sn2 1_555 1_555
C7 C8 1_555 1_555
C15 C16 1_555 1_555

#END
