
#######################################################################
#
#                 Cambridge Crystallographic Data Centre
#                                CCDC 
#
#######################################################################
#
# If this CIF has been generated from an entry in the Cambridge 
# Structural Database, then it will include bibliographic, chemical, 
# crystal, experimental, refinement or atomic coordinate data resulting 
# from the CCDC's data processing and validation procedures.
#
#######################################################################

data_BUDGEN
_symmetry_cell_setting           monoclinic
_symmetry_space_group_name_H-M   'P 21/m'
_symmetry_Int_Tables_number      11
_space_group_name_Hall           '-P 2yb'
loop_
_symmetry_equiv_pos_site_id
_symmetry_equiv_pos_as_xyz
1 x,y,z
2 -x,1/2+y,-z
3 -x,-y,-z
4 x,1/2-y,z
_cell_length_a                   4.385(2)
_cell_length_b                   15.455(3)
_cell_length_c                   10.935(2)
_cell_angle_alpha                90
_cell_angle_beta                 97.65(2)
_cell_angle_gamma                90
_cell_volume                     734.471
loop_
_atom_site_label
_atom_site_type_symbol
_atom_site_fract_x
_atom_site_fract_y
_atom_site_fract_z
Pb1 Pb 0.32077(9) 0.7500 0.28349(4)
Cl1 Cl -0.2202(10) 0.7500 0.1052(3)
Cl2 Cl -0.1094(10) 0.7500 0.4619(3)
C1 C 0.6217(18) 0.4150(5) 0.2292(8)
N1 N 0.3822(16) 0.5787(4) 0.2702(7)
C2 C 0.412(2) 0.4554(5) 0.1409(8)
H1 H 0.3481 0.4278 0.0662
C3 C 0.574(2) 0.5401(5) 0.3555(8)
H2 H 0.6288 0.5684 0.4303
C4 C 0.297(2) 0.5358(5) 0.1631(8)
H3 H 0.1573 0.5616 0.1026
C5 C 0.770(2) 0.3312(5) 0.2033(9)
H4 H 0.9711 0.3283 0.2527
H5 H 0.8024 0.3302 0.1171
C6 C 0.698(2) 0.4595(5) 0.3397(9)
H6 H 0.8335 0.4349 0.4030
C7 C 0.584(2) 0.2500 0.2302(11)
H7 H 0.3863 0.2500 0.1783
H8 H 0.5474 0.2500 0.3159
Pb1_2 Pb -0.67923(9) 0.7500 0.28349(4)
Pb1_3 Pb 0.32077(9) -0.2500 0.28349(4)
Cl1_2 Cl 0.7798(10) 0.7500 0.1052(3)
Cl2_2 Cl 0.8906(10) 0.7500 0.4619(3)
C1C C 0.6217(18) 0.0850(5) 0.2292(8)
N1C N 0.3822(16) -0.0787(4) 0.2702(7)
N1C_2 N 0.3822(16) 0.9213(4) 0.2702(7)
C2C C 0.412(2) 0.0446(5) 0.1409(8)
H1C H 0.3481 0.0722 0.0662
C3C C 0.574(2) -0.0401(5) 0.3555(8)
H2C H 0.6288 -0.0684 0.4303
C4C C 0.297(2) -0.0358(5) 0.1631(8)
H3C H 0.1573 -0.0616 0.1026
C5C C 0.770(2) 0.1688(5) 0.2033(9)
H4C H 0.9711 0.1717 0.2527
H5C H 0.8024 0.1698 0.1171
C6C C 0.698(2) 0.0405(5) 0.3397(9)
H6C H 0.8335 0.0651 0.4030
loop_
_geom_bond_atom_site_label_1
_geom_bond_atom_site_label_2
_geom_bond_site_symmetry_1
_geom_bond_site_symmetry_2
Pb1 Cl1 1_555 1_555
Cl1 Pb1_2 1_555 1_555
Cl2 Pb1 1_555 1_555
C1 C2 1_555 1_555
N1 Pb1 1_555 1_555
C2 H1 1_555 1_555
C3 N1 1_555 1_555
H2 C3 1_555 1_555
C4 N1 1_555 1_555
H3 C4 1_555 1_555
C5 C1 1_555 1_555
H4 C5 1_555 1_555
H5 C5 1_555 1_555
C6 C1 1_555 1_555
H6 C6 1_555 1_555
C7 C5 1_555 1_555
H7 C7 1_555 1_555
H8 C7 1_555 1_555
Pb1_2 Cl2 1_555 1_555
Pb1_3 N1C 1_555 1_555
Cl1_2 Pb1 1_555 1_555
Cl2_2 Pb1 1_555 1_555
C1C C2C 1_555 1_555
N1C C3C 1_555 1_555
N1C_2 Pb1 1_555 1_555
C2C H1C 1_555 1_555
C3C H2C 1_555 1_555
C4C N1C 1_555 1_555
H3C C4C 1_555 1_555
C5C C7 1_555 1_555
H4C C5C 1_555 1_555
H5C C5C 1_555 1_555
C6C C1C 1_555 1_555
H6C C6C 1_555 1_555
C2 C4 1_555 1_555
C3 C6 1_555 1_555
C1C C5C 1_555 1_555
C2C C4C 1_555 1_555
C3C C6C 1_555 1_555

#END
