
#######################################################################
#
#                 Cambridge Crystallographic Data Centre
#                                CCDC 
#
#######################################################################
#
# If this CIF has been generated from an entry in the Cambridge 
# Structural Database, then it will include bibliographic, chemical, 
# crystal, experimental, refinement or atomic coordinate data resulting 
# from the CCDC's data processing and validation procedures.
#
#######################################################################

data_BUDGAJ
_symmetry_cell_setting           triclinic
_symmetry_space_group_name_H-M   'P -1'
_symmetry_Int_Tables_number      2
_space_group_name_Hall           '-P 1'
loop_
_symmetry_equiv_pos_site_id
_symmetry_equiv_pos_as_xyz
1 x,y,z
2 -x,-y,-z
_cell_length_a                   7.592(3)
_cell_length_b                   8.249(3)
_cell_length_c                   14.241(6)
_cell_angle_alpha                98.956(4)
_cell_angle_beta                 99.556(4)
_cell_angle_gamma                95.839(5)
_cell_volume                     861.281
loop_
_atom_site_label
_atom_site_type_symbol
_atom_site_fract_x
_atom_site_fract_y
_atom_site_fract_z
Tb1 Tb 0.80756(3) 0.29706(2) 0.080761(13)
Ag1 Ag 0.17209(6) 0.40250(5) 0.53284(3)
O1 O 0.4372(5) 0.2187(4) 0.2009(2)
O2 O 0.7121(5) 0.5291(4) 0.0096(2)
H1 H 0.7742 0.5573 -0.0302
H2 H 0.6316 0.5904 0.0165
O3 O 0.6205(4) 0.4300(4) 0.1747(2)
O4 O 1.0914(4) 0.1769(4) 0.0759(2)
H3 H 1.1070 0.1393 0.0200
H4 H 1.1876 0.1905 0.1166
O5 O 0.4778(6) 0.9748(5) 0.2896(3)
O6 O 0.3416(5) 1.0334(4) 0.4169(2)
O7 O 1.0531(4) -0.4886(3) 0.1239(2)
O8 O 0.5031(4) 0.2064(3) -0.0119(2)
N1 N 0.3034(5) 0.5246(4) 0.4335(3)
N2 N 0.8987(5) -0.2444(4) 0.3678(2)
C1 C 0.3576(6) 0.4244(5) 0.3627(3)
H5 H 0.3377 0.3106 0.3601
C2 C 0.4420(6) 0.4845(5) 0.2934(3)
C3 C 0.4629(6) 0.6531(5) 0.2942(3)
H6 H 0.5162 0.6965 0.2476
C4 C 0.4032(6) 0.7568(5) 0.3654(3)
C5 C 0.3273(6) 0.6886(5) 0.4347(3)
H7 H 0.2917 0.7587 0.4838
C6 C 0.5041(6) 0.3688(5) 0.2177(3)
C7 C 0.4047(6) 0.9388(6) 0.3621(3)
C8 C 0.9565(6) -0.3223(5) 0.2901(3)
H8 H 0.9658 -0.4348 0.2849
C9 C 1.0023(6) -0.2408(5) 0.2182(3)
C10 C 0.9849(6) -0.0723(5) 0.2249(3)
H9 H 1.0142 -0.0152 0.1770
C11 C 0.9234(6) 0.0091(5) 0.3038(3)
C12 C 0.8845(6) -0.0812(5) 0.3740(3)
H10 H 0.8469 -0.0268 0.4279
C13 C 1.0667(6) -0.3316(5) 0.1333(3)
C14 C 0.4376(6) 0.0595(5) -0.0196(3)
O9 O 1.1310(4) -0.2500(3) 0.0780(2)
C15 C 0.9003(6) 0.1915(5) 0.3113(3)
O10 O 0.8768(5) 0.2673(4) 0.3899(2)
O11 O 0.2771(4) -0.0028(3) -0.0543(2)
O12 O 0.9101(5) 0.2520(4) 0.2359(2)
H11 H 0.461(9) 1.076(8) 0.276(4)
Tb1_2 Tb 0.80756(3) 1.29706(2) 0.080761(13)
Tb1_3 Tb 0.80756(3) -0.70294(2) 0.080761(13)
Tb1A Tb 1.19244(3) -0.29706(2) -0.080761(13)
Tb1A_2 Tb 0.19244(3) -0.29706(2) -0.080761(13)
Tb1A_3 Tb 1.19244(3) 0.70294(2) -0.080761(13)
Ag1A Ag 0.82791(6) -0.40250(5) 0.46716(3)
Ag1A_2 Ag 0.82791(6) 0.59750(5) 0.46716(3)
Ag1_2 Ag 0.17209(6) 1.40250(5) 0.53284(3)
O1_2 O 0.4372(5) 1.2187(4) 0.2009(2)
O2_2 O 0.7121(5) 1.5291(4) 0.0096(2)
H1_2 H 0.7742 1.5573 -0.0302
H2_2 H 0.6316 1.5904 0.0165
O3_2 O 0.6205(4) 1.4300(4) 0.1747(2)
O4_2 O 1.0914(4) 1.1769(4) 0.0759(2)
H3_2 H 1.1070 1.1393 0.0200
H4_2 H 1.1876 1.1905 0.1166
O5_2 O 0.4778(6) 1.9748(5) 0.2896(3)
O6_2 O 0.3416(5) 2.0334(4) 0.4169(2)
O7_2 O 1.0531(4) 0.5114(3) 0.1239(2)
O7_3 O 1.0531(4) 1.5114(3) 0.1239(2)
O8A O 0.4969(4) -0.2064(3) 0.0119(2)
O8_2 O 0.5031(4) 1.2064(3) -0.0119(2)
N1_2 N 0.3034(5) 1.5246(4) 0.4335(3)
N1A N 0.6966(5) -0.5246(4) 0.5665(3)
N2_2 N 0.8987(5) 0.7556(4) 0.3678(2)
N2A N 0.1013(5) 0.2444(4) 0.6322(2)
C1_2 C 0.3576(6) 1.4244(5) 0.3627(3)
H5_2 H 0.3377 1.3106 0.3601
C2_2 C 0.4420(6) 1.4845(5) 0.2934(3)
C3_2 C 0.4629(6) 1.6531(5) 0.2942(3)
H6_2 H 0.5162 1.6965 0.2476
C4_2 C 0.4032(6) 1.7568(5) 0.3654(3)
C5_2 C 0.3273(6) 1.6886(5) 0.4347(3)
H7_2 H 0.2917 1.7587 0.4838
C6_2 C 0.5041(6) 1.3688(5) 0.2177(3)
C7_2 C 0.4047(6) 1.9388(6) 0.3621(3)
C8_2 C 0.9565(6) 0.6777(5) 0.2901(3)
H8_2 H 0.9658 0.5652 0.2849
C9_2 C 1.0023(6) 0.7592(5) 0.2182(3)
C10_2 C 0.9849(6) 0.9277(5) 0.2249(3)
H9_2 H 1.0142 0.9848 0.1770
C11_2 C 0.9234(6) 1.0091(5) 0.3038(3)
C12_2 C 0.8845(6) 0.9188(5) 0.3740(3)
H10_2 H 0.8469 0.9732 0.4279
C13_2 C 1.0667(6) 0.6684(5) 0.1333(3)
C14A C 0.5624(6) -0.0595(5) 0.0196(3)
O9_2 O 1.1310(4) 0.7500(3) 0.0780(2)
O9A O 0.8690(4) 0.2500(3) -0.0780(2)
O9A_2 O 0.8690(4) 1.2500(3) -0.0780(2)
C15_2 C 0.9003(6) 1.1915(5) 0.3113(3)
O10_2 O 0.8768(5) 1.2673(4) 0.3899(2)
O11A O 0.7229(4) 0.0028(3) 0.0543(2)
O11A_2 O 0.7229(4) 1.0028(3) 0.0543(2)
O12_2 O 0.9101(5) 1.2520(4) 0.2359(2)
H11_2 H 0.461(9) 2.076(8) 0.276(4)
loop_
_geom_bond_atom_site_label_1
_geom_bond_atom_site_label_2
_geom_bond_site_symmetry_1
_geom_bond_site_symmetry_2
Tb1 O2 1_555 1_555
Ag1 N1 1_555 1_555
O1 C6 1_555 1_555
O2 H1 1_555 1_555
H2 O2 1_555 1_555
O3 Tb1 1_555 1_555
O4 Tb1 1_555 1_555
H3 O4 1_555 1_555
H4 O4 1_555 1_555
O5 C7 1_555 1_555
O6 C7 1_555 1_555
O7 C13 1_555 1_555
O8 Tb1 1_555 1_555
N1 C1 1_555 1_555
N2 C8 1_555 1_555
C1 H5 1_555 1_555
C2 C1 1_555 1_555
C3 C2 1_555 1_555
H6 C3 1_555 1_555
C4 C3 1_555 1_555
C5 N1 1_555 1_555
H7 C5 1_555 1_555
C6 O3 1_555 1_555
C7 C4 1_555 1_555
C8 H8 1_555 1_555
C9 C8 1_555 1_555
C10 C9 1_555 1_555
H9 C10 1_555 1_555
C11 C10 1_555 1_555
C12 N2 1_555 1_555
H10 C12 1_555 1_555
C13 C9 1_555 1_555
C14 O8 1_555 1_555
O9 C13 1_555 1_555
C15 C11 1_555 1_555
O10 C15 1_555 1_555
O11 C14 1_555 1_555
O12 Tb1 1_555 1_555
H11 O5 1_555 1_555
Tb1_2 O2_2 1_555 1_555
Tb1_3 O7 1_555 1_555
Tb1A O9 1_555 1_555
Tb1A_2 O11 1_555 1_555
Tb1A_3 O9_2 1_555 1_555
Ag1A N2 1_555 1_555
Ag1A_2 N2_2 1_555 1_555
Ag1_2 N1_2 1_555 1_555
O1_2 C6_2 1_555 1_555
O2_2 H1_2 1_555 1_555
H2_2 O2_2 1_555 1_555
O3_2 Tb1_2 1_555 1_555
O4_2 Tb1_2 1_555 1_555
H3_2 O4_2 1_555 1_555
H4_2 O4_2 1_555 1_555
O5_2 C7_2 1_555 1_555
O6_2 C7_2 1_555 1_555
O7_2 Tb1 1_555 1_555
O7_3 Tb1_2 1_555 1_555
O8A Tb1A_2 1_555 1_555
O8_2 Tb1_2 1_555 1_555
N1_2 C1_2 1_555 1_555
N1A Ag1A 1_555 1_555
N2_2 C8_2 1_555 1_555
N2A Ag1 1_555 1_555
C1_2 H5_2 1_555 1_555
C2_2 C1_2 1_555 1_555
C3_2 C2_2 1_555 1_555
H6_2 C3_2 1_555 1_555
C4_2 C3_2 1_555 1_555
C5_2 N1_2 1_555 1_555
H7_2 C5_2 1_555 1_555
C6_2 O3_2 1_555 1_555
C7_2 C4_2 1_555 1_555
C8_2 H8_2 1_555 1_555
C9_2 C8_2 1_555 1_555
C10_2 C9_2 1_555 1_555
H9_2 C10_2 1_555 1_555
C11_2 C10_2 1_555 1_555
C12_2 N2_2 1_555 1_555
H10_2 C12_2 1_555 1_555
C13_2 O7_2 1_555 1_555
C14A C14 1_555 1_555
O9_2 C13_2 1_555 1_555
O9A Tb1 1_555 1_555
O9A_2 Tb1_2 1_555 1_555
C15_2 C11_2 1_555 1_555
O10_2 C15_2 1_555 1_555
O11A Tb1 1_555 1_555
O11A_2 Tb1_2 1_555 1_555
O12_2 Tb1_2 1_555 1_555
H11_2 O5_2 1_555 1_555
C2 C6 1_555 1_555
C4 C5 1_555 1_555
C11 C12 1_555 1_555
C15 O12 1_555 1_555
O8A C14A 1_555 1_555
C2_2 C6_2 1_555 1_555
C4_2 C5_2 1_555 1_555
C9_2 C13_2 1_555 1_555
C11_2 C12_2 1_555 1_555
C14A O11A 1_555 1_555
C15_2 O12_2 1_555 1_555

#END
