
#######################################################################
#
#                 Cambridge Crystallographic Data Centre
#                                CCDC 
#
#######################################################################
#
# If this CIF has been generated from an entry in the Cambridge 
# Structural Database, then it will include bibliographic, chemical, 
# crystal, experimental, refinement or atomic coordinate data resulting 
# from the CCDC's data processing and validation procedures.
#
#######################################################################

data_BUDHUE
_symmetry_cell_setting           monoclinic
_symmetry_space_group_name_H-M   'P 21/c'
_symmetry_Int_Tables_number      14
_space_group_name_Hall           '-P 2ybc'
loop_
_symmetry_equiv_pos_site_id
_symmetry_equiv_pos_as_xyz
1 x,y,z
2 -x,1/2+y,1/2-z
3 -x,-y,-z
4 x,1/2-y,1/2+z
_cell_length_a                   21.542(4)
_cell_length_b                   11.746(2)
_cell_length_c                   12.271(2)
_cell_angle_alpha                90
_cell_angle_beta                 104.31(3)
_cell_angle_gamma                90
_cell_volume                     3008.62
loop_
_atom_site_label
_atom_site_type_symbol
_atom_site_fract_x
_atom_site_fract_y
_atom_site_fract_z
Br1 Br -0.63952(3) 1.10765(4) 0.45763(4)
Br2 Br -0.22167(2) 0.73066(6) 0.95041(4)
Cu1 Cu -0.48131(2) 0.47756(4) 0.40781(4)
N1 N -0.53960(15) 0.9556(3) 0.2534(3)
N2 N -0.20763(17) 0.5887(4) 0.6528(3)
O1 O -0.39446(13) 0.5098(3) 0.4969(2)
O2 O -0.42738(12) 0.5555(3) 0.6502(2)
O3 O -0.49764(14) 0.6421(2) 0.3871(2)
O4 O -0.53125(13) 0.6827(2) 0.5418(2)
C1 C -0.51948(18) 0.7079(3) 0.4500(3)
C2 C -0.53622(17) 0.8249(3) 0.4044(3)
C3 C -0.57074(18) 0.9003(3) 0.4536(3)
H1 H -0.5809 0.8821 0.5234
C4 C -0.58944(19) 1.0027(3) 0.4004(3)
C5 C -0.57371(19) 1.0279(3) 0.2994(3)
H2 H -0.5856 1.0949 0.2657
C6 C -0.52104(17) 0.8567(3) 0.3054(3)
H3 H -0.4973 0.8104 0.2725
C7 C -0.38534(18) 0.5440(3) 0.5959(3)
C8 C -0.31838(17) 0.5764(3) 0.6547(3)
C9 C -0.30550(19) 0.6270(4) 0.7604(4)
H4 H -0.3388 0.6394 0.7985
C10 C -0.24266(19) 0.6586(4) 0.8091(3)
C11 C -0.19555(19) 0.6389(4) 0.7536(4)
H5 H -0.1525 0.6619 0.7885
C12 C -0.2679(2) 0.5586(4) 0.6054(4)
H6 H -0.2769 0.5228 0.5328
Cu1B Cu -0.51869(2) 0.52244(4) 0.59219(4)
Cu1A Cu -0.51869(2) 0.97756(4) 0.09219(4)
N1A N -0.46040(15) 0.4556(3) 0.2466(3)
O2B O -0.57262(12) 0.4445(3) 0.3498(2)
O4B O -0.46875(13) 0.3173(2) 0.4582(2)
Br3 Br -0.34915(2) 0.30249(5) -0.19347(4)
Br4 Br 0.13503(3) -0.10918(5) 0.08445(4)
Cu2 Cu 0.02261(2) 0.48099(4) 0.10871(4)
N3 N 0.04924(15) 0.0476(3) -0.2115(3)
N4 N -0.23049(19) 0.2695(4) 0.1228(3)
O5 O 0.04325(13) 0.3262(2) 0.0652(2)
O6 O 0.00415(14) 0.3613(2) -0.1185(2)
O7 O -0.06576(13) 0.4281(3) 0.0966(2)
O8 O -0.10483(13) 0.4637(2) -0.0872(2)
C13 C -0.10925(18) 0.4275(3) 0.0067(3)
C14 C -0.17174(18) 0.3749(3) 0.0129(3)
C15 C -0.22245(19) 0.3685(3) -0.0817(3)
H7 H -0.2197 0.4012 -0.1520
C16 C -0.27692(18) 0.3128(4) -0.0705(3)
C17 C -0.2797(2) 0.2648(4) 0.0305(4)
H8 H -0.3183 0.2266 0.0354
C18 C -0.1779(2) 0.3253(4) 0.1122(4)
H9 H -0.1427 0.3313 0.1774
C19 C 0.02976(18) 0.2986(3) -0.0370(3)
C20 C 0.04662(17) 0.1814(3) -0.0668(3)
C21 C 0.07623(18) 0.1035(3) 0.0149(3)
H10 H 0.0841 0.1230 0.0950
C22 C 0.09175(19) -0.0010(3) -0.0210(3)
C23 C 0.07778(18) -0.0271(3) -0.1342(3)
H11 H 0.0892 -0.1007 -0.1572
C24 C 0.03400(17) 0.1494(3) -0.1780(3)
H12 H 0.0114 0.2012 -0.2374
Cu2B Cu -0.02261(2) 0.51901(4) -0.10871(4)
Cu2C Cu 0.02261(2) 0.01901(4) -0.39129(4)
N3C N 0.04924(15) 0.4524(3) 0.2885(3)
O6B O -0.00415(14) 0.6387(2) 0.1185(2)
O8B O 0.10483(13) 0.5363(2) 0.0872(2)
loop_
_geom_bond_atom_site_label_1
_geom_bond_atom_site_label_2
_geom_bond_site_symmetry_1
_geom_bond_site_symmetry_2
Br1 C4 1_555 1_555
Br2 C10 1_555 1_555
Br3 C16 1_555 1_555
Br4 C22 1_555 1_555
Cu1 O1 1_555 1_555
Cu2 O5 1_555 1_555
N1 C5 1_555 1_555
N2 C11 1_555 1_555
N3 C23 1_555 1_555
N4 C17 1_555 1_555
O1 C7 1_555 1_555
O2 C7 1_555 1_555
O3 Cu1 1_555 1_555
O4 C1 1_555 1_555
O5 C19 1_555 1_555
O6 C19 1_555 1_555
O7 Cu2 1_555 1_555
O8 C13 1_555 1_555
C1 O3 1_555 1_555
C2 C1 1_555 1_555
C3 C2 1_555 1_555
H1 C3 1_555 1_555
C4 C3 1_555 1_555
C5 C4 1_555 1_555
H2 C5 1_555 1_555
C6 N1 1_555 1_555
H3 C6 1_555 1_555
C7 C8 1_555 1_555
C8 C9 1_555 1_555
C9 H4 1_555 1_555
C10 C9 1_555 1_555
C11 C10 1_555 1_555
H5 C11 1_555 1_555
C12 N2 1_555 1_555
H6 C12 1_555 1_555
C13 O7 1_555 1_555
C14 C13 1_555 1_555
C15 C14 1_555 1_555
H7 C15 1_555 1_555
C16 C15 1_555 1_555
C17 C16 1_555 1_555
H8 C17 1_555 1_555
C18 N4 1_555 1_555
H9 C18 1_555 1_555
C19 C20 1_555 1_555
C20 C21 1_555 1_555
C21 H10 1_555 1_555
C22 C21 1_555 1_555
C23 C22 1_555 1_555
H11 C23 1_555 1_555
C24 N3 1_555 1_555
H12 C24 1_555 1_555
Cu1B Cu1 1_555 1_555
Cu1A N1 1_555 1_555
Cu2B Cu2 1_555 1_555
Cu2C N3 1_555 1_555
N1A Cu1 1_555 1_555
N3C Cu2 1_555 1_555
O2B Cu1 1_555 1_555
O4B Cu1 1_555 1_555
O6B Cu2 1_555 1_555
O8B Cu2 1_555 1_555
O2 Cu1B 1_555 1_555
O4 Cu1B 1_555 1_555
O6 Cu2B 1_555 1_555
O8 Cu2B 1_555 1_555
C2 C6 1_555 1_555
C8 C12 1_555 1_555
C14 C18 1_555 1_555
C20 C24 1_555 1_555

#END
