
#######################################################################
#
#                 Cambridge Crystallographic Data Centre
#                                CCDC 
#
#######################################################################
#
# If this CIF has been generated from an entry in the Cambridge 
# Structural Database, then it will include bibliographic, chemical, 
# crystal, experimental, refinement or atomic coordinate data resulting 
# from the CCDC's data processing and validation procedures.
#
#######################################################################

data_BUDHUE02
_symmetry_cell_setting           monoclinic
_symmetry_space_group_name_H-M   'P 21/c'
_symmetry_Int_Tables_number      14
_space_group_name_Hall           '-P 2ybc'
loop_
_symmetry_equiv_pos_site_id
_symmetry_equiv_pos_as_xyz
1 x,y,z
2 -x,1/2+y,1/2-z
3 -x,-y,-z
4 x,1/2-y,1/2+z
_cell_length_a                   11.2259(6)
_cell_length_b                   11.6460(7)
_cell_length_c                   12.8181(5)
_cell_angle_alpha                90
_cell_angle_beta                 116.694(3)
_cell_angle_gamma                90
_cell_volume                     1497.19
loop_
_atom_site_label
_atom_site_type_symbol
_atom_site_fract_x
_atom_site_fract_y
_atom_site_fract_z
O1 O 0.6450(3) 0.4353(3) 0.4392(3)
Br1 Br 0.24136(7) -0.12790(5) 0.39945(5)
Br2 Br 1.06356(7) 0.26024(7) 0.39047(6)
Cu1 Cu 0.45688(5) 0.47341(4) 0.38811(4)
O2 O 0.4272(4) 0.3155(3) 0.4297(3)
O3 O 0.5002(4) 0.3629(3) 0.6174(3)
O4 O 0.7191(3) 0.4819(3) 0.6281(3)
N1 N 0.4056(4) 0.0534(3) 0.7052(3)
N2 N 1.1049(5) 0.3957(5) 0.6994(4)
C1 C 0.3485(5) -0.0269(4) 0.6239(4)
H1 H 0.3240 -0.0964 0.6444
C2 C 0.3248(5) -0.0092(4) 0.5094(4)
C3 C 0.3577(5) 0.0933(4) 0.4759(4)
H2 H 0.3415 0.1059 0.3990
C4 C 0.4160(5) 0.1773(4) 0.5604(4)
C5 C 0.4395(5) 0.1528(4) 0.6742(4)
H3 H 0.4808 0.2083 0.7314
C6 C 0.4514(5) 0.2943(4) 0.5327(4)
C7 C 1.1245(6) 0.3460(6) 0.6153(5)
H4 H 1.2102 0.3219 0.6319
C8 C 1.0236(5) 0.3285(5) 0.5046(5)
C9 C 0.8955(5) 0.3616(4) 0.4773(5)
H5 H 0.8265 0.3509 0.4028
C10 C 0.8728(5) 0.4118(4) 0.5650(4)
C11 C 0.9803(6) 0.4274(5) 0.6733(5)
H6 H 0.9649 0.4621 0.7315
C12 C 0.7341(5) 0.4464(4) 0.5421(4)
Cu1B Cu 0.54312(5) 0.52659(4) 0.61189(4)
Cu1C Cu 0.45688(5) 0.02659(4) 0.88811(4)
O3B O 0.4998(4) 0.6371(3) 0.3826(3)
O4B O 0.2809(3) 0.5181(3) 0.3719(3)
N1C N 0.4056(4) 0.4466(3) 0.2052(3)
loop_
_geom_bond_atom_site_label_1
_geom_bond_atom_site_label_2
_geom_bond_site_symmetry_1
_geom_bond_site_symmetry_2
O1 Cu1 1_555 1_555
Br1 C2 1_555 1_555
Br2 C8 1_555 1_555
Cu1 O2 1_555 1_555
O2 C6 1_555 1_555
O3 C6 1_555 1_555
O4 C12 1_555 1_555
N1 C1 1_555 1_555
N2 C7 1_555 1_555
C1 H1 1_555 1_555
C2 C1 1_555 1_555
C3 C2 1_555 1_555
H2 C3 1_555 1_555
C4 C3 1_555 1_555
C5 N1 1_555 1_555
H3 C5 1_555 1_555
C6 C4 1_555 1_555
C7 H4 1_555 1_555
C8 C7 1_555 1_555
C9 C8 1_555 1_555
H5 C9 1_555 1_555
C10 C9 1_555 1_555
C11 N2 1_555 1_555
H6 C11 1_555 1_555
C12 O1 1_555 1_555
Cu1B O3 1_555 1_555
Cu1C N1 1_555 1_555
O3B Cu1 1_555 1_555
O4B Cu1 1_555 1_555
N1C Cu1 1_555 1_555
O4 Cu1B 1_555 1_555
C4 C5 1_555 1_555
C10 C11 1_555 1_555
C10 C12 1_555 1_555

#END
