
#######################################################################
#
#                 Cambridge Crystallographic Data Centre
#                                CCDC 
#
#######################################################################
#
# If this CIF has been generated from an entry in the Cambridge 
# Structural Database, then it will include bibliographic, chemical, 
# crystal, experimental, refinement or atomic coordinate data resulting 
# from the CCDC's data processing and validation procedures.
#
#######################################################################

data_BUDLUJ
_symmetry_cell_setting           triclinic
_symmetry_space_group_name_H-M   'P -1'
_symmetry_Int_Tables_number      2
_space_group_name_Hall           '-P 1'
loop_
_symmetry_equiv_pos_site_id
_symmetry_equiv_pos_as_xyz
1 x,y,z
2 -x,-y,-z
_cell_length_a                   6.6312(14)
_cell_length_b                   9.717(2)
_cell_length_c                   12.837(3)
_cell_angle_alpha                76.136(4)
_cell_angle_beta                 89.521(4)
_cell_angle_gamma                81.162(4)
_cell_volume                     793.175
loop_
_atom_site_label
_atom_site_type_symbol
_atom_site_fract_x
_atom_site_fract_y
_atom_site_fract_z
Cu1 Cu 0.63285(9) 0.26131(6) 0.26660(5)
Cu2 Cu 0.14015(9) 0.23439(6) 0.22150(5)
Cl1 Cl -0.04344(18) 0.44332(13) 0.13756(10)
Cl2 Cl 0.37357(19) 0.05382(13) 0.32052(10)
Cl3 Cl 0.85224(18) 0.08294(13) 0.21268(10)
Cl4 Cl 0.45927(19) 0.45694(13) 0.30974(10)
O1 O 0.5214(5) 0.3353(3) 0.1187(3)
O2 O 0.2757(5) 0.2164(3) 0.0846(3)
C1 C 0.4245(7) 0.2798(5) 0.0587(4)
C2 C 0.4901(7) 0.3065(5) -0.0574(4)
H1 H 0.3859 0.3811 -0.1034
C3 C 0.5268(7) 0.1745(5) -0.1043(4)
H2 H 0.4344 0.1054 -0.0731
H3 H 0.5066 0.2019 -0.1833
C4 C 0.7484(7) 0.1119(5) -0.0721(4)
H4 H 0.7613 0.0573 0.0039
H5 H 0.8061 0.0478 -0.1180
C5 C 0.8539(7) 0.2430(5) -0.0893(4)
H6 H 0.9733 0.2251 -0.0394
H7 H 0.9001 0.2699 -0.1640
N1 N 0.6929(6) 0.3590(5) -0.0666(3)
H8 H 0.730(7) 0.379(5) -0.004(3)
H9 H 0.680(7) 0.438(4) -0.125(3)
O3 O 0.0460(5) 0.2670(4) 0.3623(3)
O4 O -0.2503(5) 0.1884(4) 0.4122(3)
C6 C -0.0738(8) 0.2116(5) 0.4300(4)
C7 C 0.0005(7) 0.1744(5) 0.5463(4)
H10 H -0.0519 0.0864 0.5872
C8 C -0.0645(8) 0.3004(6) 0.5998(4)
H11 H -0.1209 0.3888 0.5457
H12 H -0.1684 0.2770 0.6543
C9 C 0.1325(8) 0.3189(6) 0.6521(4)
H13 H 0.1284 0.4192 0.6574
H14 H 0.1554 0.2544 0.7248
C10 C 0.2963(8) 0.2794(5) 0.5779(4)
H15 H 0.2987 0.3579 0.5127
H16 H 0.4327 0.2552 0.6143
N2 N 0.2300(7) 0.1508(5) 0.5519(3)
H17 H 0.280(7) 0.073(4) 0.602(3)
H18 H 0.282(7) 0.148(5) 0.488(3)
Cu1_2 Cu -0.36715(9) 0.26131(6) 0.26660(5)
Cu2_2 Cu 1.14015(9) 0.23439(6) 0.22150(5)
Cl3_2 Cl -0.14776(18) 0.08294(13) 0.21268(10)
O4_2 O 0.7497(5) 0.1884(4) 0.4122(3)
loop_
_geom_bond_atom_site_label_1
_geom_bond_atom_site_label_2
_geom_bond_site_symmetry_1
_geom_bond_site_symmetry_2
Cu1 Cl2 1_555 1_555
Cu2 Cl1 1_555 1_555
Cl2 Cu2 1_555 1_555
Cl3 Cu1 1_555 1_555
Cl4 Cu1 1_555 1_555
O1 Cu1 1_555 1_555
O2 Cu2 1_555 1_555
C1 O1 1_555 1_555
C2 C1 1_555 1_555
H1 C2 1_555 1_555
C3 C2 1_555 1_555
H2 C3 1_555 1_555
H3 C3 1_555 1_555
C4 C3 1_555 1_555
H4 C4 1_555 1_555
H5 C4 1_555 1_555
C5 C4 1_555 1_555
H6 C5 1_555 1_555
H7 C5 1_555 1_555
N1 C2 1_555 1_555
H8 N1 1_555 1_555
H9 N1 1_555 1_555
O3 Cu2 1_555 1_555
O4 C6 1_555 1_555
C6 O3 1_555 1_555
C7 C6 1_555 1_555
H10 C7 1_555 1_555
C8 C7 1_555 1_555
H11 C8 1_555 1_555
H12 C8 1_555 1_555
C9 C8 1_555 1_555
H13 C9 1_555 1_555
H14 C9 1_555 1_555
C10 C9 1_555 1_555
H15 C10 1_555 1_555
H16 C10 1_555 1_555
N2 C7 1_555 1_555
H17 N2 1_555 1_555
H18 N2 1_555 1_555
Cu1_2 O4 1_555 1_555
Cu2_2 Cl3 1_555 1_555
Cl3_2 Cu2 1_555 1_555
O4_2 Cu1 1_555 1_555
O2 C1 1_555 1_555
C5 N1 1_555 1_555
C10 N2 1_555 1_555
Cu1_2 Cl3_2 1_555 1_555

#END
