
#######################################################################
#
#                 Cambridge Crystallographic Data Centre
#                                CCDC 
#
#######################################################################
#
# If this CIF has been generated from an entry in the Cambridge 
# Structural Database, then it will include bibliographic, chemical, 
# crystal, experimental, refinement or atomic coordinate data resulting 
# from the CCDC's data processing and validation procedures.
#
#######################################################################

data_BUDLET
_symmetry_cell_setting           monoclinic
_symmetry_space_group_name_H-M   'C 2/c'
_symmetry_Int_Tables_number      15
_space_group_name_Hall           '-C 2yn'
loop_
_symmetry_equiv_pos_site_id
_symmetry_equiv_pos_as_xyz
1 x,y,z
2 -x,y,1/2-z
3 1/2+x,1/2+y,z
4 1/2-x,1/2+y,1/2-z
5 -x,-y,-z
6 x,-y,1/2+z
7 1/2-x,1/2-y,-z
8 1/2+x,1/2-y,1/2+z
_cell_length_a                   18.8080(8)
_cell_length_b                   16.1023(7)
_cell_length_c                   10.3382(4)
_cell_angle_alpha                90
_cell_angle_beta                 115.201(8)
_cell_angle_gamma                90
_cell_volume                     2832.94
loop_
_atom_site_label
_atom_site_type_symbol
_atom_site_fract_x
_atom_site_fract_y
_atom_site_fract_z
Cu1 Cu 1 0.20440(6) 0.750
N1 N 0.91097(12) 0.14287(14) 0.7361(2)
N2 N 0.99452(12) 0.27331(16) 0.8957(2)
C1 C 0.81591(15) 0.04351(17) 0.6607(3)
H1 H 0.787 -0.004 0.6117
C2 C 0.86945(14) 0.22418(16) 0.8931(3)
C3 C 0.67840(14) 0.28900(15) 0.9128(3)
C4 C 0.60195(15) 0.32908(16) 0.8168(3)
H2 H 0.6123 0.3831 0.7846
H3 H 0.5697 0.3369 0.8694
H4 H 0.5739 0.2934 0.7337
C5 C 0.94640(15) 0.35790(17) 1.0153(3)
C6 C 1.01684(16) 0.38981(17) 1.0213(3)
H5 H 1.0419 0.4393 1.0691
C7 C 0.73255(15) 0.07864(18) 0.7907(3)
H6 H 0.7057 0.027 0.7461
H7 H 0.6956 0.1251 0.7561
H8 H 0.7523 0.0742 0.8948
C8 C 0.88470(15) 0.07654(17) 0.6524(3)
C9 C 0.79957(14) 0.09316(17) 0.7528(3)
C10 C 0.73717(14) 0.27826(15) 0.8623(3)
C11 C 0.80765(13) 0.23804(15) 0.9497(3)
C12 C 0.86040(14) 0.15668(15) 0.8022(3)
C13 C 0.93270(13) 0.28180(17) 0.9354(3)
C14 C 0.89899(17) 0.39745(19) 1.0823(3)
H9 H 0.9226 0.4509 1.124
H10 H 0.8979 0.3611 1.1574
H11 H 0.8453 0.4064 1.0096
C15 C 0.72122(17) 0.30955(17) 0.7166(3)
H12 H 0.6691 0.3355 0.6737
H13 H 0.7612 0.3506 0.7238
H14 H 0.7229 0.2631 0.6567
C16 C 1.04398(15) 0.33791(18) 0.9469(3)
C17 C 0.92244(16) 0.04341(18) 0.5624(3)
H15 H 0.8934 -0.0055 0.5098
H16 H 0.9219 0.0862 0.4945
H17 H 0.9769 0.0277 0.6236
C18 C 1.11561(16) 0.3480(2) 0.9168(3)
H18 H 1.1439 0.3986 0.9631
H19 H 1.1502 0.2998 0.9543
H20 H 1.099 0.352 0.8134
N1F N 0.58903(12) 0.35713(14) 1.2639(2)
N2F N 0.50548(12) 0.22669(16) 1.1043(2)
C1F C 0.68409(15) 0.45649(17) 1.3393(3)
H1F H 0.713 0.504 1.3883
C2F C 0.63055(14) 0.27582(16) 1.1069(3)
C3F C 0.82160(14) 0.21100(15) 1.0872(3)
C4F C 0.89805(15) 0.17092(16) 1.1832(3)
H2F H 0.8877 0.1169 1.2154
H3F H 0.9303 0.1631 1.1306
H4F H 0.9261 0.2066 1.2663
C5F C 0.55360(15) 0.14210(17) 0.9847(3)
C6F C 0.48316(16) 0.11019(17) 0.9787(3)
H5F H 0.4581 0.0607 0.9309
C7F C 0.76745(15) 0.42136(18) 1.2093(3)
H6F H 0.7943 0.473 1.2539
H7F H 0.8044 0.3749 1.2439
H8F H 0.7477 0.4258 1.1052
C8F C 0.61530(15) 0.42346(17) 1.3476(3)
C9F C 0.70043(14) 0.40684(17) 1.2472(3)
C10F C 0.76283(14) 0.22174(15) 1.1377(3)
C11F C 0.69235(13) 0.26196(15) 1.0503(3)
C12F C 0.63960(14) 0.34332(15) 1.1978(3)
C13F C 0.56730(13) 0.21820(17) 1.0646(3)
C14F C 0.60101(17) 0.10255(19) 0.9177(3)
H9F H 0.5774 0.0491 0.876
H10F H 0.6021 0.1389 0.8426
H11F H 0.6547 0.0936 0.9904
C15F C 0.77878(17) 0.19045(17) 1.2834(3)
H12F H 0.8309 0.1645 1.3263
H13F H 0.7388 0.1494 1.2762
H14F H 0.7771 0.2369 1.3433
C16F C 0.45602(15) 0.16209(18) 1.0531(3)
C17F C 0.57756(16) 0.45659(18) 1.4376(3)
H15F H 0.6066 0.5055 1.4902
H16F H 0.5781 0.4138 1.5055
H17F H 0.5231 0.4723 1.3764
C18F C 0.38439(16) 0.1520(2) 1.0832(3)
H18F H 0.3561 0.1014 1.0369
H19F H 0.3498 0.2002 1.0457
H20F H 0.401 0.148 1.1866
Cu1F Cu 0.5 0.29560(6) 1.250
N1A N 1.08903(12) 0.14287(14) 0.7639(2)
N2A N 1.00548(12) 0.27331(16) 0.6043(2)
loop_
_geom_bond_atom_site_label_1
_geom_bond_atom_site_label_2
_geom_bond_site_symmetry_1
_geom_bond_site_symmetry_2
Cu1 N1 1_555 1_555
N1 C8 1_555 1_555
N2 Cu1 1_555 1_555
C1 H1 1_555 1_555
C2 C11 1_555 1_555
C3 C4 1_555 1_555
C4 H2 1_555 1_555
H3 C4 1_555 1_555
H4 C4 1_555 1_555
C5 C6 1_555 1_555
C6 H5 1_555 1_555
C7 H6 1_555 1_555
H7 C7 1_555 1_555
H8 C7 1_555 1_555
C8 C1 1_555 1_555
C9 C1 1_555 1_555
C10 C3 1_555 1_555
C11 C10 1_555 1_555
C12 N1 1_555 1_555
C13 N2 1_555 1_555
C14 C5 1_555 1_555
H9 C14 1_555 1_555
H10 C14 1_555 1_555
H11 C14 1_555 1_555
C15 C10 1_555 1_555
H12 C15 1_555 1_555
H13 C15 1_555 1_555
H14 C15 1_555 1_555
C16 N2 1_555 1_555
C17 C8 1_555 1_555
H15 C17 1_555 1_555
H16 C17 1_555 1_555
H17 C17 1_555 1_555
C18 C16 1_555 1_555
H18 C18 1_555 1_555
H19 C18 1_555 1_555
H20 C18 1_555 1_555
N1F C8F 1_555 1_555
N2F C13F 1_555 1_555
C1F H1F 1_555 1_555
C2F C11F 1_555 1_555
C3F C11 1_555 1_555
C4F C3F 1_555 1_555
H2F C4F 1_555 1_555
H3F C4F 1_555 1_555
H4F C4F 1_555 1_555
C5F C6F 1_555 1_555
C6F H5F 1_555 1_555
C7F H6F 1_555 1_555
H7F C7F 1_555 1_555
H8F C7F 1_555 1_555
C8F C1F 1_555 1_555
C9F C1F 1_555 1_555
C10F C3F 1_555 1_555
C11F C3 1_555 1_555
C12F N1F 1_555 1_555
C13F C2F 1_555 1_555
C14F C5F 1_555 1_555
H9F C14F 1_555 1_555
H10F C14F 1_555 1_555
H11F C14F 1_555 1_555
C15F C10F 1_555 1_555
H12F C15F 1_555 1_555
H13F C15F 1_555 1_555
H14F C15F 1_555 1_555
C16F N2F 1_555 1_555
C17F C8F 1_555 1_555
H15F C17F 1_555 1_555
H16F C17F 1_555 1_555
H17F C17F 1_555 1_555
C18F C16F 1_555 1_555
H18F C18F 1_555 1_555
H19F C18F 1_555 1_555
H20F C18F 1_555 1_555
Cu1F N1F 1_555 1_555
N1A Cu1 1_555 1_555
N2A Cu1 1_555 1_555
C2 C12 1_555 1_555
C2 C13 1_555 1_555
C5 C13 1_555 1_555
C6 C16 1_555 1_555
C7 C9 1_555 1_555
C9 C12 1_555 1_555
N2F Cu1F 1_555 1_555
C2F C12F 1_555 1_555
C5F C13F 1_555 1_555
C6F C16F 1_555 1_555
C7F C9F 1_555 1_555
C9F C12F 1_555 1_555
C10F C11F 1_555 1_555

#END
