
#######################################################################
#
#                 Cambridge Crystallographic Data Centre
#                                CCDC 
#
#######################################################################
#
# If this CIF has been generated from an entry in the Cambridge 
# Structural Database, then it will include bibliographic, chemical, 
# crystal, experimental, refinement or atomic coordinate data resulting 
# from the CCDC's data processing and validation procedures.
#
#######################################################################

data_BUDLIX
_symmetry_cell_setting           monoclinic
_symmetry_space_group_name_H-M   'C 2/c'
_symmetry_Int_Tables_number      15
_space_group_name_Hall           '-C 2yn'
loop_
_symmetry_equiv_pos_site_id
_symmetry_equiv_pos_as_xyz
1 x,y,z
2 -x,y,1/2-z
3 1/2+x,1/2+y,z
4 1/2-x,1/2+y,1/2-z
5 -x,-y,-z
6 x,-y,1/2+z
7 1/2-x,1/2-y,-z
8 1/2+x,1/2-y,1/2+z
_cell_length_a                   18.8249(10)
_cell_length_b                   15.9650(10)
_cell_length_c                   10.4056(6)
_cell_angle_alpha                90
_cell_angle_beta                 114.696(8)
_cell_angle_gamma                90
_cell_volume                     2841.26
loop_
_atom_site_label
_atom_site_type_symbol
_atom_site_fract_x
_atom_site_fract_y
_atom_site_fract_z
Ni1 Ni 0.50000 0.20225(4) 0.75000
N1 N 0.49713(10) 0.27047(11) 0.90204(17)
N2 N 0.40809(9) 0.14495(11) 0.72995(18)
C1 C 0.36960(11) 0.22406(12) 0.8935(2)
C2 C 0.32110(11) 0.21101(11) 1.08583(19)
C3 C 0.31374(12) 0.04451(13) 0.6580(2)
H1 H 0.2846 -0.0031 0.6094
C4 C 0.26233(11) 0.22121(11) 1.1353(2)
C5 C 0.39742(12) 0.17079(12) 1.1808(2)
H2 H 0.4257 0.2077 1.2614
H3 H 0.4291 0.1615 1.1276
H4 H 0.3871 0.117 1.2153
C6 C 0.35873(11) 0.15786(12) 0.7994(2)
C7 C 0.29870(11) 0.09354(12) 0.7513(2)
C8 C 0.30836(11) 0.23846(12) 0.94948(19)
C9 C 0.38183(12) 0.07826(13) 0.6470(2)
C10 C 0.51773(13) 0.38953(13) 1.0246(2)
H5 H 0.5419 0.4398 1.0713
C11 C 0.54694(12) 0.33540(13) 0.9520(2)
C12 C 0.44767(12) 0.35738(13) 1.0167(2)
C13 C 0.23220(12) 0.07882(14) 0.7916(2)
H6 H 0.1926 0.1225 0.7496
H7 H 0.2515 0.0805 0.8948
H8 H 0.209 0.0238 0.7568
C14 C 0.43413(11) 0.28118(12) 0.9382(2)
C15 C 0.41988(13) 0.04522(15) 0.5576(2)
H9 H 0.3911 -0.004 0.5053
H10 H 0.4197 0.0885 0.4907
H11 H 0.4739 0.0293 0.618
C16 C 0.27759(12) 0.18884(13) 1.2810(2)
H12 H 0.3295 0.1629 1.3236
H13 H 0.2754 0.2355 1.3405
H14 H 0.2378 0.1472 1.2735
C17 C 0.39957(14) 0.39919(14) 1.0808(3)
H15 H 0.422 0.4542 1.1175
H16 H 0.3991 0.3647 1.1583
H17 H 0.346 0.4062 1.0088
C18 C 0.61771(12) 0.34497(16) 0.9214(2)
H18 H 0.6461 0.3959 0.967
H19 H 0.6519 0.2963 0.9582
H20 H 0.6013 0.349 0.819
N1F N 0.00287(10) 0.22953(11) 1.09796(17)
N2F N 0.09191(9) 0.35505(11) 1.27005(18)
C1F C 0.13040(11) 0.27594(12) 1.1065(2)
C2F C 0.17890(11) 0.28899(11) 0.91417(19)
C3F C 0.18626(12) 0.45549(13) 1.3420(2)
H1F H 0.2154 0.5031 1.3906
C4F C 0.23767(11) 0.27879(11) 0.8647(2)
C5F C 0.10258(12) 0.32921(12) 0.8192(2)
H2F H 0.0743 0.2923 0.7386
H3F H 0.0709 0.3385 0.8724
H4F H 0.1129 0.383 0.7847
C6F C 0.14127(11) 0.34214(12) 1.2006(2)
C7F C 0.20130(11) 0.40646(12) 1.2487(2)
C8F C 0.19164(11) 0.26154(12) 1.05052(19)
C9F C 0.11817(12) 0.42174(13) 1.3530(2)
C10F C -0.01773(13) 0.11047(13) 0.9754(2)
H5F H -0.0419 0.0602 0.9287
C11F C -0.04694(12) 0.16460(13) 1.0480(2)
C12F C 0.05233(12) 0.14262(13) 0.9833(2)
C13F C 0.26780(12) 0.42118(14) 1.2084(2)
H6F H 0.3074 0.3775 1.2504
H7F H 0.2485 0.4195 1.1052
H8F H 0.291 0.4762 1.2432
C14F C 0.06587(11) 0.21882(12) 1.0618(2)
C15F C 0.08012(13) 0.45478(15) 1.4424(2)
H9F H 0.1089 0.504 1.4947
H10F H 0.0803 0.4115 1.5093
H11F H 0.0261 0.4707 1.382
C16F C 0.22241(12) 0.31116(13) 0.7190(2)
H12F H 0.1705 0.3371 0.6764
H13F H 0.2246 0.2645 0.6595
H14F H 0.2622 0.3528 0.7265
C17F C 0.10043(14) 0.10081(14) 0.9192(3)
H15F H 0.078 0.0458 0.8825
H16F H 0.1009 0.1353 0.8417
H17F H 0.154 0.0938 0.9912
C18F C -0.11771(12) 0.15503(16) 1.0786(2)
H18F H -0.1461 0.1041 1.033
H19F H -0.1519 0.2037 1.0418
H20F H -0.1013 0.151 1.181
Ni1F Ni 0.00000 0.29775(4) 1.25000
N1A N 0.50287(10) 0.27047(11) 0.59796(17)
N2A N 0.59191(9) 0.14495(11) 0.77005(18)
loop_
_geom_bond_atom_site_label_1
_geom_bond_atom_site_label_2
_geom_bond_site_symmetry_1
_geom_bond_site_symmetry_2
Ni1 N1 1_555 1_555
N1 C11 1_555 1_555
N2 Ni1 1_555 1_555
C1 C6 1_555 1_555
C2 C4 1_555 1_555
C3 H1 1_555 1_555
C4 C16 1_555 1_555
C5 C2 1_555 1_555
H2 C5 1_555 1_555
H3 C5 1_555 1_555
H4 C5 1_555 1_555
C6 N2 1_555 1_555
C7 C3 1_555 1_555
C8 C1 1_555 1_555
C9 N2 1_555 1_555
C10 H5 1_555 1_555
C11 C10 1_555 1_555
C12 C10 1_555 1_555
C13 C7 1_555 1_555
H6 C13 1_555 1_555
H7 C13 1_555 1_555
H8 C13 1_555 1_555
C14 N1 1_555 1_555
C15 C9 1_555 1_555
H9 C15 1_555 1_555
H10 C15 1_555 1_555
H11 C15 1_555 1_555
C16 H12 1_555 1_555
H13 C16 1_555 1_555
H14 C16 1_555 1_555
C17 C12 1_555 1_555
H15 C17 1_555 1_555
H16 C17 1_555 1_555
H17 C17 1_555 1_555
C18 C11 1_555 1_555
H18 C18 1_555 1_555
H19 C18 1_555 1_555
H20 C18 1_555 1_555
N1F C11F 1_555 1_555
N2F C6F 1_555 1_555
C1F C6F 1_555 1_555
C2F C4F 1_555 1_555
C3F H1F 1_555 1_555
C4F C8 1_555 1_555
C5F C2F 1_555 1_555
H2F C5F 1_555 1_555
H3F C5F 1_555 1_555
H4F C5F 1_555 1_555
C6F C7F 1_555 1_555
C7F C3F 1_555 1_555
C8F C4 1_555 1_555
C9F N2F 1_555 1_555
C10F H5F 1_555 1_555
C11F C10F 1_555 1_555
C12F C10F 1_555 1_555
C13F C7F 1_555 1_555
H6F C13F 1_555 1_555
H7F C13F 1_555 1_555
H8F C13F 1_555 1_555
C14F N1F 1_555 1_555
C15F C9F 1_555 1_555
H9F C15F 1_555 1_555
H10F C15F 1_555 1_555
H11F C15F 1_555 1_555
C16F C4F 1_555 1_555
H12F C16F 1_555 1_555
H13F C16F 1_555 1_555
H14F C16F 1_555 1_555
C17F C12F 1_555 1_555
H15F C17F 1_555 1_555
H16F C17F 1_555 1_555
H17F C17F 1_555 1_555
C18F C11F 1_555 1_555
H18F C18F 1_555 1_555
H19F C18F 1_555 1_555
H20F C18F 1_555 1_555
Ni1F N1F 1_555 1_555
N1A Ni1 1_555 1_555
N2A Ni1 1_555 1_555
C1 C14 1_555 1_555
C2 C8 1_555 1_555
C3 C9 1_555 1_555
C6 C7 1_555 1_555
C12 C14 1_555 1_555
N2F Ni1F 1_555 1_555
C1F C8F 1_555 1_555
C1F C14F 1_555 1_555
C2F C8F 1_555 1_555
C3F C9F 1_555 1_555
C12F C14F 1_555 1_555

#END
