
#######################################################################
#
#                 Cambridge Crystallographic Data Centre
#                                CCDC 
#
#######################################################################
#
# If this CIF has been generated from an entry in the Cambridge 
# Structural Database, then it will include bibliographic, chemical, 
# crystal, experimental, refinement or atomic coordinate data resulting 
# from the CCDC's data processing and validation procedures.
#
#######################################################################

data_BUDLOD
_symmetry_cell_setting           monoclinic
_symmetry_space_group_name_H-M   'C 2/c'
_symmetry_Int_Tables_number      15
_space_group_name_Hall           '-C 2yn'
loop_
_symmetry_equiv_pos_site_id
_symmetry_equiv_pos_as_xyz
1 x,y,z
2 -x,y,1/2-z
3 1/2+x,1/2+y,z
4 1/2-x,1/2+y,1/2-z
5 -x,-y,-z
6 x,-y,1/2+z
7 1/2-x,1/2-y,-z
8 1/2+x,1/2-y,1/2+z
_cell_length_a                   18.8182(4)
_cell_length_b                   15.9892(3)
_cell_length_c                   10.4062(2)
_cell_angle_alpha                90
_cell_angle_beta                 114.760(8)
_cell_angle_gamma                90
_cell_volume                     2843.26
loop_
_atom_site_label
_atom_site_type_symbol
_atom_site_fract_x
_atom_site_fract_y
_atom_site_fract_z
Zn1 Zn 1 0.20251(3) 0.750
N1 N 0.99726(6) 0.27064(7) 0.90211(11)
N2 N 0.90830(6) 0.14430(7) 0.73039(11)
C1 C 0.60230(7) 0.32937(9) 0.81893(13)
H1 H 0.5679 0.3321 0.8682
H2 H 0.6121 0.386 0.7943
H3 H 0.5771 0.2961 0.7324
C2 C 0.81386(7) 0.04406(9) 0.65822(13)
H4 H 0.7849 -0.0037 0.61
C3 C 0.88158(7) 0.07795(9) 0.64676(13)
C4 C 0.67892(6) 0.28908(8) 0.91419(12)
C5 C 1.01777(7) 0.38986(9) 1.02439(14)
H5 H 1.0419 0.4402 1.0707
C6 C 1.04655(7) 0.33559(9) 0.95181(13)
C7 C 0.93410(6) 0.28129(8) 0.93822(12)
C8 C 0.73740(6) 0.27872(8) 0.86454(12)
C9 C 0.94774(7) 0.35727(9) 1.01689(13)
C10 C 0.86958(6) 0.22430(8) 0.89314(12)
C11 C 0.79868(6) 0.09356(8) 0.75204(12)
C12 C 0.85853(6) 0.15780(8) 0.79903(12)
C13 C 0.91988(7) 0.04517(10) 0.55788(14)
H6 H 0.9377 0.092 0.5181
H7 H 0.8824 0.0113 0.4808
H8 H 0.9649 0.0106 0.6161
C14 C 0.72233(7) 0.31098(9) 0.71864(13)
H9 H 0.6704 0.3368 0.6756
H10 H 0.7621 0.3527 0.7264
H11 H 0.7248 0.2644 0.6594
C15 C 0.73222(7) 0.07912(9) 0.79253(15)
H12 H 0.6927 0.1229 0.7507
H13 H 0.7516 0.0807 0.8958
H14 H 0.7088 0.0243 0.7576
C16 C 0.80834(6) 0.23861(8) 0.94969(12)
C17 C 0.89931(8) 0.39909(10) 1.08052(17)
H15 H 0.9223 0.4535 1.1191
H16 H 0.8978 0.3641 1.1566
H17 H 0.846 0.4071 1.0077
C18 C 1.11735(8) 0.34581(11) 0.92111(16)
H18 H 1.1419 0.2912 0.9258
H19 H 1.1548 0.3834 0.9913
H20 H 1.1015 0.3695 0.8263
N1F N 0.50274(6) 0.22936(7) 1.09789(11)
N2F N 0.59170(6) 0.35570(7) 1.26961(11)
C1F C 0.89770(7) 0.17063(9) 1.18107(13)
H1F H 0.9321 0.1679 1.1318
H2F H 0.8879 0.114 1.2057
H3F H 0.9229 0.2039 1.2676
C2F C 0.68614(7) 0.45594(9) 1.34178(13)
H4F H 0.7151 0.5037 1.39
C3F C 0.61842(7) 0.42205(9) 1.35324(13)
C4F C 0.82108(6) 0.21092(8) 1.08581(12)
C5F C 0.48223(7) 0.11014(9) 0.97561(14)
H5F H 0.4581 0.0598 0.9293
C6F C 0.45345(7) 0.16441(9) 1.04819(13)
C7F C 0.56590(6) 0.21871(8) 1.06178(12)
C8F C 0.76260(6) 0.22128(8) 1.13546(12)
C9F C 0.55226(7) 0.14273(9) 0.98311(13)
C10F C 0.63042(6) 0.27570(8) 1.10686(12)
C11F C 0.70132(6) 0.40644(8) 1.24796(12)
C12F C 0.64147(6) 0.34220(8) 1.20097(12)
C13F C 0.58012(7) 0.45483(10) 1.44212(14)
H6F H 0.5623 0.408 1.4819
H7F H 0.6176 0.4887 1.5192
H8F H 0.5351 0.4894 1.3839
C14F C 0.77767(7) 0.18902(9) 1.28136(13)
H9F H 0.8296 0.1632 1.3244
H10F H 0.7379 0.1473 1.2736
H11F H 0.7752 0.2356 1.3406
C15F C 0.76778(7) 0.42088(9) 1.20747(15)
H12F H 0.8073 0.3771 1.2493
H13F H 0.7484 0.4193 1.1042
H14F H 0.7912 0.4757 1.2424
C16F C 0.69166(6) 0.26139(8) 1.05031(12)
C17F C 0.60069(8) 0.10091(10) 0.91948(17)
H15F H 0.5777 0.0465 0.8809
H16F H 0.6022 0.1359 0.8434
H17F H 0.654 0.0929 0.9923
C18F C 0.38265(8) 0.15419(11) 1.07889(16)
H18F H 0.3581 0.2088 1.0742
H19F H 0.3452 0.1166 1.0087
H20F H 0.3985 0.1305 1.1737
Zn1F Zn 0.5 0.29749(3) 1.250
N1A N 1.00274(6) 0.27064(7) 0.59789(11)
N2A N 1.09170(6) 0.14430(7) 0.76961(11)
loop_
_geom_bond_atom_site_label_1
_geom_bond_atom_site_label_2
_geom_bond_site_symmetry_1
_geom_bond_site_symmetry_2
Zn1 N1 1_555 1_555
N1 C6 1_555 1_555
N2 Zn1 1_555 1_555
C1 H1 1_555 1_555
H2 C1 1_555 1_555
H3 C1 1_555 1_555
C2 H4 1_555 1_555
C3 N2 1_555 1_555
C4 C1 1_555 1_555
C5 H5 1_555 1_555
C6 C5 1_555 1_555
C7 N1 1_555 1_555
C8 C4 1_555 1_555
C9 C5 1_555 1_555
C10 C7 1_555 1_555
C11 C2 1_555 1_555
C12 N2 1_555 1_555
C13 C3 1_555 1_555
H6 C13 1_555 1_555
H7 C13 1_555 1_555
H8 C13 1_555 1_555
C14 C8 1_555 1_555
H9 C14 1_555 1_555
H10 C14 1_555 1_555
H11 C14 1_555 1_555
C15 C11 1_555 1_555
H12 C15 1_555 1_555
H13 C15 1_555 1_555
H14 C15 1_555 1_555
C16 C8 1_555 1_555
C17 C9 1_555 1_555
H15 C17 1_555 1_555
H16 C17 1_555 1_555
H17 C17 1_555 1_555
C18 C6 1_555 1_555
H18 C18 1_555 1_555
H19 C18 1_555 1_555
H20 C18 1_555 1_555
N1F C6F 1_555 1_555
N2F C3F 1_555 1_555
C1F H1F 1_555 1_555
H2F C1F 1_555 1_555
H3F C1F 1_555 1_555
C2F H4F 1_555 1_555
C3F C2F 1_555 1_555
C4F C16 1_555 1_555
C5F H5F 1_555 1_555
C6F C5F 1_555 1_555
C7F N1F 1_555 1_555
C8F C4F 1_555 1_555
C9F C5F 1_555 1_555
C10F C7F 1_555 1_555
C11F C2F 1_555 1_555
C12F N2F 1_555 1_555
C13F C3F 1_555 1_555
H6F C13F 1_555 1_555
H7F C13F 1_555 1_555
H8F C13F 1_555 1_555
C14F C8F 1_555 1_555
H9F C14F 1_555 1_555
H10F C14F 1_555 1_555
H11F C14F 1_555 1_555
C15F C11F 1_555 1_555
H12F C15F 1_555 1_555
H13F C15F 1_555 1_555
H14F C15F 1_555 1_555
C16F C4 1_555 1_555
C17F C9F 1_555 1_555
H15F C17F 1_555 1_555
H16F C17F 1_555 1_555
H17F C17F 1_555 1_555
C18F C6F 1_555 1_555
H18F C18F 1_555 1_555
H19F C18F 1_555 1_555
H20F C18F 1_555 1_555
Zn1F N1F 1_555 1_555
N1A Zn1 1_555 1_555
N2A Zn1 1_555 1_555
C2 C3 1_555 1_555
C7 C9 1_555 1_555
C10 C12 1_555 1_555
C10 C16 1_555 1_555
C11 C12 1_555 1_555
N2F Zn1F 1_555 1_555
C1F C4F 1_555 1_555
C7F C9F 1_555 1_555
C8F C16F 1_555 1_555
C10F C12F 1_555 1_555
C10F C16F 1_555 1_555
C11F C12F 1_555 1_555

#END
