
#######################################################################
#
#                 Cambridge Crystallographic Data Centre
#                                CCDC 
#
#######################################################################
#
# If this CIF has been generated from an entry in the Cambridge 
# Structural Database, then it will include bibliographic, chemical, 
# crystal, experimental, refinement or atomic coordinate data resulting 
# from the CCDC's data processing and validation procedures.
#
#######################################################################

data_BUFCUA
_symmetry_cell_setting           triclinic
_symmetry_space_group_name_H-M   'P -1'
_symmetry_Int_Tables_number      2
_space_group_name_Hall           '-P 1'
loop_
_symmetry_equiv_pos_site_id
_symmetry_equiv_pos_as_xyz
1 x,y,z
2 -x,-y,-z
_cell_length_a                   9.375(5)
_cell_length_b                   7.370(5)
_cell_length_c                   7.821(4)
_cell_angle_alpha                112.17(12)
_cell_angle_beta                 112.56(11)
_cell_angle_gamma                76.18(5)
_cell_volume                     459.331
loop_
_atom_site_label
_atom_site_type_symbol
_atom_site_fract_x
_atom_site_fract_y
_atom_site_fract_z
Cu1 Cu 0.65190 0.13380 0.08100
Cu2 Cu 1.00000 0.00000 0.00000
Cl1 Cl 0.52270 0.03410 0.22080
Cl2 Cl 0.77570 0.21910 -0.07270
Cl3 Cl 0.89760 -0.08280 0.17580
S1 S 0.64540 0.43790 0.32550
O1 O 0.88570 0.70170 0.68320
C1 C 0.75960 0.60360 0.32850
C2 C 0.79210 0.76730 0.52020
C3 C 0.81530 0.57180 0.71580
C4 C 0.77850 0.38270 0.54470
H1 H 0.68128 0.83090 0.54108
H2 H 0.84656 0.87834 0.51565
H3 H 0.69831 0.66443 0.21038
H4 H 0.86911 0.52487 0.31236
H5 H 0.88401 0.30237 0.51644
H6 H 0.72535 0.29287 0.58016
H7 H 0.85400 0.52916 0.84024
H8 H 0.70980 0.64801 0.74644
Cl1A Cl 0.47730 -0.03410 -0.22080
Cu1A Cu 0.34810 -0.13380 -0.08100
Cl2A Cl 1.22430 -0.21910 0.07270
Cl3A Cl 1.10240 0.08280 -0.17580
Cl2A_2 Cl 0.22430 -0.21910 0.07270
Cl3A_2 Cl 0.10240 0.08280 -0.17580
S1A S 0.35460 -0.43790 -0.32550
Cu1A_2 Cu 1.34810 -0.13380 -0.08100
C1A C 0.24040 -0.60360 -0.32850
C4A C 0.22150 -0.38270 -0.54470
C2A C 0.20790 -0.76730 -0.52020
H3A H 0.30169 -0.66443 -0.21038
H4A H 0.13089 -0.52487 -0.31236
C3A C 0.18470 -0.57180 -0.71580
H5A H 0.11599 -0.30237 -0.51644
H6A H 0.27465 -0.29287 -0.58016
O1A O 0.11430 -0.70170 -0.68320
H1A H 0.31872 -0.83090 -0.54108
H2A H 0.15344 -0.87834 -0.51565
H7A H 0.14600 -0.52916 -0.84024
H8A H 0.29020 -0.64801 -0.74644
loop_
_geom_bond_atom_site_label_1
_geom_bond_atom_site_label_2
_geom_bond_site_symmetry_1
_geom_bond_site_symmetry_2
Cu1 Cl1 1_555 1_555
Cu2 Cl2 1_555 1_555
Cl1 Cu1A 1_555 1_555
Cl2 Cu1 1_555 1_555
Cl3 Cu1 1_555 1_555
S1 Cu1 1_555 1_555
O1 C2 1_555 1_555
C1 S1 1_555 1_555
C2 C1 1_555 1_555
C3 O1 1_555 1_555
C4 S1 1_555 1_555
H1 C2 1_555 1_555
H2 C2 1_555 1_555
H3 C1 1_555 1_555
H4 C1 1_555 1_555
H5 C4 1_555 1_555
H6 C4 1_555 1_555
H7 C3 1_555 1_555
H8 C3 1_555 1_555
Cl1A Cu1 1_555 1_555
Cu1A Cl1A 1_555 1_555
Cl2A Cu2 1_555 1_555
Cl3A Cu2 1_555 1_555
Cl2A_2 Cu1A 1_555 1_555
Cl3A_2 Cu1A 1_555 1_555
S1A Cu1A 1_555 1_555
Cu1A_2 Cl2A 1_555 1_555
C1A S1A 1_555 1_555
C4A S1A 1_555 1_555
C2A C1A 1_555 1_555
H3A C1A 1_555 1_555
H4A C1A 1_555 1_555
C3A C4A 1_555 1_555
H5A C4A 1_555 1_555
H6A C4A 1_555 1_555
O1A C2A 1_555 1_555
H1A C2A 1_555 1_555
H2A C2A 1_555 1_555
H7A C3A 1_555 1_555
H8A C3A 1_555 1_555
Cu2 Cl3 1_555 1_555
C3 C4 1_555 1_555
Cl3A Cu1A_2 1_555 1_555
C3A O1A 1_555 1_555

#END
