
#######################################################################
#
#                 Cambridge Crystallographic Data Centre
#                                CCDC 
#
#######################################################################
#
# If this CIF has been generated from an entry in the Cambridge 
# Structural Database, then it will include bibliographic, chemical, 
# crystal, experimental, refinement or atomic coordinate data resulting 
# from the CCDC's data processing and validation procedures.
#
#######################################################################

data_BUFRAW
_symmetry_cell_setting           triclinic
_symmetry_space_group_name_H-M   'P -1'
_symmetry_Int_Tables_number      2
_space_group_name_Hall           '-P 1'
loop_
_symmetry_equiv_pos_site_id
_symmetry_equiv_pos_as_xyz
1 x,y,z
2 -x,-y,-z
_cell_length_a                   10.4115(5)
_cell_length_b                   10.9064(5)
_cell_length_c                   15.7534(8)
_cell_angle_alpha                105.8950(10)
_cell_angle_beta                 95.6530(10)
_cell_angle_gamma                103.4700(10)
_cell_volume                     1647.73
loop_
_atom_site_label
_atom_site_type_symbol
_atom_site_fract_x
_atom_site_fract_y
_atom_site_fract_z
U1 U 0.54141(3) 0.24582(2) 0.974437(18)
U2 U 0.90489(3) 0.31791(2) 1.343330(18)
U3 U 0.83467(3) -0.15161(2) 1.307412(18)
O1 O 1.0288(5) 0.2808(5) 1.2792(3)
O2 O 0.7773(5) 0.3521(4) 1.4061(3)
O3 O 0.6187(5) 0.2920(4) 0.8879(3)
O4 O 0.6613(5) -0.1791(5) 1.3087(4)
O5 O 0.8538(5) -0.0280(5) 1.4681(3)
O6 O 0.4692(5) 0.2051(5) 1.0646(3)
O7 O 0.6691(5) 0.0759(5) 0.9555(3)
O8 O 0.8283(5) -0.0530(4) 1.1982(3)
O9 O 1.0075(5) -0.1204(5) 1.3063(3)
O10 O 1.1329(5) 0.2980(4) 1.6134(3)
O11 O 0.6332(5) 0.4559(4) 1.0726(3)
O12 O 0.7475(5) 0.1540(4) 1.2324(3)
O13 O 0.7910(5) 0.6571(4) 1.1848(3)
P1 P 0.71735(19) 0.59589(17) 1.08856(13)
P2 P 0.74453(19) 0.02448(17) 1.16183(12)
P3 P 1.02225(19) 0.33306(17) 1.56283(12)
O14 O 0.7615(5) 0.2585(4) 1.0630(3)
O15 O 0.8679(5) 0.0991(4) 1.3819(3)
O16 O 0.6350(5) 0.6788(5) 1.0590(4)
O17 O 0.6014(5) -0.0537(4) 1.1232(3)
O18 O 0.9908(5) 0.4570(4) 1.6197(3)
O19 O 1.0531(5) 0.3443(4) 1.4718(3)
O20 O 0.8128(7) 0.4124(6) 1.2323(4)
C1 C 0.8263(7) 0.0665(7) 1.0731(5)
H1 H 0.9170 0.1216 1.0982
H2 H 0.8317 -0.0139 1.0297
C2 C 0.7531(7) 0.1373(7) 1.0278(5)
C3 C 0.8637(7) 0.0852(7) 1.4596(5)
C4 C 0.9026(9) 0.7156(9) 0.9994(6)
C5 C 0.8446(7) 0.5855(8) 1.0185(5)
H3 H 0.9167 0.5610 1.0478
H4 H 0.8061 0.5163 0.9622
C6 C 0.8682(7) 0.2023(6) 1.5382(5)
H5 H 0.8578 0.1729 1.5906
H6 H 0.7933 0.2373 1.5260
O21 O 0.8519(7) 0.7465(7) 0.9398(4)
O22 O 1.0087(6) 0.7995(6) 1.0570(5)
H15 H 1.0336 0.7644 1.0931
H20 H 0.784(8) 0.362(8) 1.183(6)
H21 H 0.817(8) 0.491(9) 1.242(6)
U1A U 0.45859(3) 0.75418(2) 1.025563(18)
U1A_2 U 0.45859(3) -0.24582(2) 1.025563(18)
U2A U 1.09511(3) 0.68209(2) 1.656670(18)
U3A U 1.16533(3) 0.15161(2) 1.692588(18)
U3_2 U 0.83467(3) 0.84839(2) 1.307412(18)
O10A O 0.8671(5) -0.2980(4) 1.3866(3)
O13_2 O 0.7910(5) -0.3429(4) 1.1848(3)
O16A O 0.3650(5) 0.3212(5) 0.9410(4)
O17A O 0.3986(5) 0.0537(4) 0.8768(3)
O18A O 1.0092(5) 0.5430(4) 1.3803(3)
N1 N 0.6894(8) -0.0727(8) 0.7902(5)
N2 N 0.3713(9) -0.5862(8) 0.2056(6)
C7 C 0.5390(9) -0.4742(8) 0.3280(6)
H7 H 0.6287 -0.4509 0.3545
C8 C 0.7884(10) -0.0890(9) 0.7456(6)
H8 H 0.8766 -0.0589 0.7758
C9 C 0.7613(9) -0.1498(9) 0.6557(6)
H9 H 0.8313 -0.1603 0.6245
C10 C 0.4990(9) -0.5534(9) 0.2421(6)
H10 H 0.5607 -0.5844 0.2093
C11 C 0.6336(9) -0.1950(10) 0.6114(6)
C12 C 0.4478(10) -0.4279(9) 0.3760(6)
C13 C 0.2816(11) -0.5442(10) 0.2471(8)
H11 H 0.1940 -0.5660 0.2171
C14 C 0.3140(11) -0.4690(10) 0.3337(9)
H12 H 0.2480 -0.4447 0.3650
C15 C 0.5656(11) -0.1135(13) 0.7504(7)
H13 H 0.4978 -0.0999 0.7830
C16 C 0.5343(10) -0.1774(14) 0.6588(7)
H14 H 0.4453 -0.2080 0.6301
C17 C 0.6087(12) -0.2684(15) 0.5123(7)
H16 H 0.6389 -0.2041 0.4815
H17 H 0.6654 -0.3284 0.5030
C18 C 0.4848(12) -0.3379(12) 0.4727(7)
H18 H 0.4318 -0.2748 0.4775
H19 H 0.4521 -0.3928 0.5093
H22 H 0.696(10) -0.039(10) 0.8496(18)
H23 H 0.337(9) -0.657(6) 0.158(4)
O23 O 1.1248(7) 0.7044(8) 1.1740(5)
O24 O 0.6176(19) 0.1553(18) 0.6878(13)
loop_
_geom_bond_atom_site_label_1
_geom_bond_atom_site_label_2
_geom_bond_site_symmetry_1
_geom_bond_site_symmetry_2
U1 O3 1_555 1_555
U2 O1 1_555 1_555
U3 O4 1_555 1_555
O2 U2 1_555 1_555
O5 U3 1_555 1_555
O6 U1 1_555 1_555
O7 U1 1_555 1_555
O8 U3 1_555 1_555
O9 U3 1_555 1_555
O10 P3 1_555 1_555
O11 U1 1_555 1_555
O12 U2 1_555 1_555
O13 P1 1_555 1_555
P1 O11 1_555 1_555
P2 O8 1_555 1_555
P3 O18 1_555 1_555
O14 U1 1_555 1_555
O15 U2 1_555 1_555
O16 P1 1_555 1_555
O17 P2 1_555 1_555
O18 U2A 1_555 1_555
O19 U2 1_555 1_555
O20 U2 1_555 1_555
C1 P2 1_555 1_555
H1 C1 1_555 1_555
H2 C1 1_555 1_555
C2 O7 1_555 1_555
C3 O5 1_555 1_555
C4 C5 1_555 1_555
C5 P1 1_555 1_555
H3 C5 1_555 1_555
H4 C5 1_555 1_555
C6 P3 1_555 1_555
H5 C6 1_555 1_555
H6 C6 1_555 1_555
O21 C4 1_555 1_555
N1 C8 1_555 1_555
N2 C10 1_555 1_555
C7 H7 1_555 1_555
C8 H8 1_555 1_555
C9 C8 1_555 1_555
H9 C9 1_555 1_555
C10 C7 1_555 1_555
H10 C10 1_555 1_555
C11 C9 1_555 1_555
C12 C7 1_555 1_555
C13 N2 1_555 1_555
H11 C13 1_555 1_555
C14 C12 1_555 1_555
H12 C14 1_555 1_555
C15 N1 1_555 1_555
H13 C15 1_555 1_555
C16 C11 1_555 1_555
H14 C16 1_555 1_555
O22 C4 1_555 1_555
H15 O22 1_555 1_555
C17 C11 1_555 1_555
H16 C17 1_555 1_555
H17 C17 1_555 1_555
C18 C12 1_555 1_555
H18 C18 1_555 1_555
H19 C18 1_555 1_555
H20 O20 1_555 1_555
H21 O20 1_555 1_555
H22 N1 1_555 1_555
H23 N2 1_555 1_555
U1A O16 1_555 1_555
U1A_2 O17 1_555 1_555
U3A O10 1_555 1_555
U3_2 O13 1_555 1_555
O10A U3 1_555 1_555
O13_2 U3 1_555 1_555
O16A U1 1_555 1_555
O17A U1 1_555 1_555
O18A U2 1_555 1_555
U3 O15 1_555 1_555
O12 P2 1_555 1_555
P3 O19 1_555 1_555
O14 C2 1_555 1_555
O15 C3 1_555 1_555
C1 C2 1_555 1_555
C3 C6 1_555 1_555
C13 C14 1_555 1_555
C15 C16 1_555 1_555
C17 C18 1_555 1_555

#END
