
#######################################################################
#
#                 Cambridge Crystallographic Data Centre
#                                CCDC 
#
#######################################################################
#
# If this CIF has been generated from an entry in the Cambridge 
# Structural Database, then it will include bibliographic, chemical, 
# crystal, experimental, refinement or atomic coordinate data resulting 
# from the CCDC's data processing and validation procedures.
#
#######################################################################

data_BUFRIE
_symmetry_cell_setting           monoclinic
_symmetry_space_group_name_H-M   'C c'
_symmetry_Int_Tables_number      9
_space_group_name_Hall           'C -2yc'
loop_
_symmetry_equiv_pos_site_id
_symmetry_equiv_pos_as_xyz
1 x,y,z
2 x,-y,1/2+z
3 1/2+x,1/2+y,z
4 1/2+x,1/2-y,1/2+z
_cell_length_a                   9.7695(2)
_cell_length_b                   17.0790(4)
_cell_length_c                   15.4616(4)
_cell_angle_alpha                90
_cell_angle_beta                 100.4320(10)
_cell_angle_gamma                90
_cell_volume                     2537.18
loop_
_atom_site_label
_atom_site_type_symbol
_atom_site_fract_x
_atom_site_fract_y
_atom_site_fract_z
Mn1 Mn 0.770294(13) 0.098611(8) 0.458527(9)
S1 S 1.45883(2) 0.329478(12) 0.801498(13)
S2 S 1.10909(2) 0.037307(12) 0.545094(14)
O1 O 0.99367(8) 0.08784(4) 0.50528(5)
O2 O 1.53478(9) 0.39407(4) 0.77150(5)
O3 O 1.21239(9) 0.02713(4) 0.48948(5)
O4 O 1.06152(8) -0.03711(4) 0.57539(5)
O5 O 1.54595(8) 0.27831(4) 0.86372(5)
O6 O 1.33274(8) 0.35666(4) 0.83232(5)
N1 N 0.77117(10) -0.02281(5) 0.40313(6)
N2 N 0.69636(11) 0.05095(5) 0.57779(6)
N3 N 0.55416(10) 0.12043(5) 0.38259(6)
N4 N 0.79255(10) 0.22093(5) 0.50635(6)
N5 N 0.73569(13) 0.34189(6) 0.53468(7)
N6 N 0.69040(11) -0.02758(6) 0.69023(6)
N7 N 0.32692(11) 0.11289(6) 0.33648(7)
N8 N 0.70634(12) -0.14161(5) 0.35661(6)
C1 C 1.23242(13) 0.09802(6) 0.79977(6)
H1 H 1.2222 0.0767 0.8550
C2 C 1.39167(10) 0.27239(5) 0.70716(6)
C3 C 1.18838(10) 0.08887(5) 0.64130(6)
C4 C 1.34390(11) 0.26368(5) 0.54912(6)
H2 H 1.3525 0.2852 0.4937
C5 C 1.27034(10) 0.19561(5) 0.55244(6)
H3 H 1.2268 0.1711 0.4994
C6 C 0.91194(13) 0.26362(6) 0.53502(8)
H4 H 1.0042 0.2440 0.5415
C7 C 1.25890(10) 0.16162(5) 0.63469(5)
C8 C 1.31784(10) 0.20089(5) 0.71434(5)
C9 C 0.43592(12) 0.08897(7) 0.39680(8)
H5 H 0.4291 0.0540 0.4436
C10 C 1.30204(12) 0.16797(5) 0.79668(6)
H6 H 1.3397 0.1944 0.8498
C11 C 1.40687(11) 0.30204(5) 0.62685(6)
H7 H 1.4597 0.3483 0.6237
C12 C 0.68874(13) 0.27045(6) 0.50681(8)
H8 H 0.5932 0.2573 0.4897
C13 C 0.76054(12) -0.00666(6) 0.62651(7)
H9 H 0.8451 -0.0301 0.6176
C14 C 0.67451(13) -0.07777(6) 0.39971(7)
H10 H 0.5929 -0.0727 0.4246
C15 C 0.51694(13) 0.16733(7) 0.30903(7)
H11 H 0.5794 0.1980 0.2827
C16 C 1.17620(7) 0.05791(4) 0.72145(4)
H12 H 1.1298 0.0093 0.7243
C17 C 0.57481(7) 0.01937(4) 0.68321(4)
H13 H 0.5056 0.0183 0.7192
C18 C 0.37674(7) 0.16267(4) 0.28016(4)
H14 H 0.3242 0.1888 0.2308
C19 C 0.83126(15) -0.12771(6) 0.33105(8)
H15 H 0.8805 -0.1622 0.2995
C20 C 0.87063(12) -0.05430(6) 0.36016(7)
H16 H 0.9538 -0.0287 0.3521
C21 C 0.58010(13) 0.06782(7) 0.61373(7)
H17 H 0.5137 0.1073 0.5931
C22 C 0.87668(14) 0.33876(7) 0.55262(8)
H18 H 0.9386 0.3804 0.5733
H19 H 0.6981 0.3824 0.5420
H20 H 0.7142 -0.0589 0.7281
H21 H 0.2494 0.1001 0.3358
H22 H 0.6617 -0.1803 0.3506
Mn1C Mn 1.270294(13) 0.401389(8) 0.958527(9)
O6C O 0.83274(8) 0.14334(4) 0.33232(5)
loop_
_geom_bond_atom_site_label_1
_geom_bond_atom_site_label_2
_geom_bond_site_symmetry_1
_geom_bond_site_symmetry_2
Mn1 O1 1_555 1_555
S1 O2 1_555 1_555
S2 O1 1_555 1_555
O3 S2 1_555 1_555
O4 S2 1_555 1_555
O5 S1 1_555 1_555
O6 S1 1_555 1_555
N1 Mn1 1_555 1_555
N2 Mn1 1_555 1_555
N3 Mn1 1_555 1_555
N4 Mn1 1_555 1_555
N5 C12 1_555 1_555
N6 C13 1_555 1_555
N7 C9 1_555 1_555
N8 C14 1_555 1_555
C1 H1 1_555 1_555
C2 S1 1_555 1_555
C3 S2 1_555 1_555
C4 H2 1_555 1_555
C5 C4 1_555 1_555
H3 C5 1_555 1_555
C6 N4 1_555 1_555
H4 C6 1_555 1_555
C7 C3 1_555 1_555
C8 C2 1_555 1_555
C9 N3 1_555 1_555
H5 C9 1_555 1_555
C10 C1 1_555 1_555
H6 C10 1_555 1_555
C11 C2 1_555 1_555
H7 C11 1_555 1_555
C12 N4 1_555 1_555
H8 C12 1_555 1_555
C13 N2 1_555 1_555
H9 C13 1_555 1_555
C14 N1 1_555 1_555
H10 C14 1_555 1_555
C15 N3 1_555 1_555
H11 C15 1_555 1_555
C16 C1 1_555 1_555
H12 C16 1_555 1_555
C17 N6 1_555 1_555
H13 C17 1_555 1_555
C18 N7 1_555 1_555
H14 C18 1_555 1_555
C19 N8 1_555 1_555
H15 C19 1_555 1_555
C20 N1 1_555 1_555
H16 C20 1_555 1_555
C21 N2 1_555 1_555
H17 C21 1_555 1_555
C22 N5 1_555 1_555
H18 C22 1_555 1_555
H19 N5 1_555 1_555
H20 N6 1_555 1_555
H21 N7 1_555 1_555
H22 N8 1_555 1_555
Mn1C O6 1_555 1_555
O6C Mn1 1_555 1_555
C3 C16 1_555 1_555
C4 C11 1_555 1_555
C5 C7 1_555 1_555
C6 C22 1_555 1_555
C7 C8 1_555 1_555
C8 C10 1_555 1_555
C15 C18 1_555 1_555
C17 C21 1_555 1_555
C19 C20 1_555 1_555

#END
