
#######################################################################
#
#                 Cambridge Crystallographic Data Centre
#                                CCDC 
#
#######################################################################
#
# If this CIF has been generated from an entry in the Cambridge 
# Structural Database, then it will include bibliographic, chemical, 
# crystal, experimental, refinement or atomic coordinate data resulting 
# from the CCDC's data processing and validation procedures.
#
#######################################################################

data_BUGCAH
_symmetry_cell_setting           monoclinic
_symmetry_space_group_name_H-M   'P 21/c'
_symmetry_Int_Tables_number      14
_space_group_name_Hall           '-P 2ybc'
loop_
_symmetry_equiv_pos_site_id
_symmetry_equiv_pos_as_xyz
1 x,y,z
2 -x,1/2+y,1/2-z
3 -x,-y,-z
4 x,1/2-y,1/2+z
_cell_length_a                   10.805(7)
_cell_length_b                   20.292(15)
_cell_length_c                   10.804(8)
_cell_angle_alpha                90
_cell_angle_beta                 113.20(5)
_cell_angle_gamma                90
_cell_volume                     2177.28
loop_
_atom_site_label
_atom_site_type_symbol
_atom_site_fract_x
_atom_site_fract_y
_atom_site_fract_z
Sn1 Sn -0.05370 0.33450 0.18050
Sn2 Sn -0.54300 0.40700 0.21110
Cl1 Cl -0.17420 0.23240 0.10700
Cl2 Cl -0.64800 0.51450 0.18880
N1 N -0.00180 0.45190 0.25420
N2 N -0.53950 0.28540 0.21790
O1 O -0.22580 0.37360 0.19310
O2 O -0.33860 0.45170 0.24270
O3 O -0.73130 0.36820 0.19520
O4 O -0.85880 0.28210 0.17620
C1 C 0.04280 0.31180 0.38500
C2 C -0.07310 0.37200 -0.00930
C3 C -0.24270 0.43700 0.22510
C4 C -0.11890 0.47150 0.25780
C5 C -0.12730 0.54180 0.29850
C6 C -0.00570 0.57420 0.32440
C7 C 0.10580 0.55190 0.31820
C8 C 0.10620 0.48570 0.28180
C9 C -0.46080 0.40380 0.42480
C10 C -0.57270 0.39500 0.00770
C11 C -0.76410 0.30790 0.19290
C12 C -0.65780 0.26260 0.19900
C13 C -0.65550 0.19140 0.19600
C14 C -0.54610 0.15280 0.20980
C15 C -0.43980 0.18820 0.22840
C16 C -0.42600 0.25720 0.23340
H1 H -0.01770 0.32890 0.43770
H2 H 0.13990 0.33570 0.45290
H3 H 0.05610 0.25910 0.39710
H4 H -0.16140 0.40290 -0.04960
H5 H -0.08280 0.33160 -0.07750
H6 H 0.01510 0.40060 0.00240
H7 H -0.21480 0.56390 0.30650
H8 H -0.00290 0.62520 0.35390
H9 H 0.19290 0.58310 0.34010
H10 H 0.19520 0.46360 0.27710
H11 H -0.35860 0.42200 0.46320
H12 H -0.46140 0.35360 0.45780
H13 H -0.52060 0.43420 0.46220
H14 H -0.58050 0.44280 -0.03880
H15 H -0.66430 0.36760 -0.04420
H16 H -0.48850 0.36850 0.00180
H17 H -0.74820 0.16620 0.18160
H18 H -0.54820 0.09960 0.20570
H19 H -0.34970 0.16080 0.24190
H20 H -0.33410 0.28320 0.24810
O4_2 O 0.14120 0.28210 0.17620
Sn1_2 Sn -1.05370 0.33450 0.18050
loop_
_geom_bond_atom_site_label_1
_geom_bond_atom_site_label_2
_geom_bond_site_symmetry_1
_geom_bond_site_symmetry_2
Sn1 Cl1 1_555 1_555
Sn2 Cl2 1_555 1_555
N1 Sn1 1_555 1_555
N2 Sn2 1_555 1_555
O1 Sn1 1_555 1_555
O2 Sn2 1_555 1_555
O3 Sn2 1_555 1_555
O4 C11 1_555 1_555
C1 Sn1 1_555 1_555
C2 Sn1 1_555 1_555
C3 O1 1_555 1_555
C4 N1 1_555 1_555
C5 C4 1_555 1_555
C6 C5 1_555 1_555
C7 C6 1_555 1_555
C8 N1 1_555 1_555
C9 Sn2 1_555 1_555
C10 Sn2 1_555 1_555
C11 O3 1_555 1_555
C12 N2 1_555 1_555
C13 C12 1_555 1_555
C14 C13 1_555 1_555
C15 C14 1_555 1_555
C16 N2 1_555 1_555
H1 C1 1_555 1_555
H2 C1 1_555 1_555
H3 C1 1_555 1_555
H4 C2 1_555 1_555
H5 C2 1_555 1_555
H6 C2 1_555 1_555
H7 C5 1_555 1_555
H8 C6 1_555 1_555
H9 C7 1_555 1_555
H10 C8 1_555 1_555
H11 C9 1_555 1_555
H12 C9 1_555 1_555
H13 C9 1_555 1_555
H14 C10 1_555 1_555
H15 C10 1_555 1_555
H16 C10 1_555 1_555
H17 C13 1_555 1_555
H18 C14 1_555 1_555
H19 C15 1_555 1_555
H20 C16 1_555 1_555
O4_2 Sn1 1_555 1_555
Sn1_2 O4 1_555 1_555
O2 C3 1_555 1_555
C3 C4 1_555 1_555
C7 C8 1_555 1_555
C11 C12 1_555 1_555
C15 C16 1_555 1_555

#END
