
#######################################################################
#
#                 Cambridge Crystallographic Data Centre
#                                CCDC 
#
#######################################################################
#
# If this CIF has been generated from an entry in the Cambridge 
# Structural Database, then it will include bibliographic, chemical, 
# crystal, experimental, refinement or atomic coordinate data resulting 
# from the CCDC's data processing and validation procedures.
#
#######################################################################

data_BUGDOY
_symmetry_cell_setting           orthorhombic
_symmetry_space_group_name_H-M   'P 21 21 21'
_symmetry_Int_Tables_number      19
_space_group_name_Hall           'P 2ac 2ab'
loop_
_symmetry_equiv_pos_site_id
_symmetry_equiv_pos_as_xyz
1 x,y,z
2 1/2-x,-y,1/2+z
3 1/2+x,1/2-y,-z
4 -x,1/2+y,1/2-z
_cell_length_a                   17.059(4)
_cell_length_b                   9.411(2)
_cell_length_c                   5.0911(12)
_cell_angle_alpha                90
_cell_angle_beta                 90
_cell_angle_gamma                90
_cell_volume                     817.337
loop_
_atom_site_label
_atom_site_type_symbol
_atom_site_fract_x
_atom_site_fract_y
_atom_site_fract_z
Na1 Na 0.1339(3) -0.0546(5) -0.2358(11)
O1 O 0.08952(15) 0.1786(2) -0.2259(6)
O2 O -0.02644(15) 0.3019(2) -0.2599(6)
O3 O 0.2395(5) -0.1488(9) 0.0488(18)
O4 O 0.1329(4) -0.0553(7) 0.2597(19)
O5 O 0.2272(4) -0.1712(9) 0.4973(19)
N1 N 0.12442(15) 0.2697(2) 0.2637(6)
N2 N 0.2008(5) -0.1259(9) 0.268(3)
C1 C 0.03469(15) 0.2620(2) -0.1318(6)
C2 C 0.04489(15) 0.3182(2) 0.1519(6)
C3 C 0.04766(15) 0.4825(2) 0.1698(6)
C4 C 0.13568(15) 0.5191(2) 0.1472(6)
C5 C 0.17603(15) 0.4016(2) 0.3067(6)
H1 H 0.00342(15) 0.2800(2) 0.2643(6)
H2 H 0.02751(15) 0.5114(2) 0.3395(6)
H3 H 0.01617(15) 0.5269(2) 0.0345(6)
H4 H 0.14789(15) 0.6125(2) 0.2157(6)
H5 H 0.15224(15) 0.5164(2) -0.0347(6)
H6 H 0.17544(15) 0.4217(2) 0.4933(6)
H7 H 0.22890(15) 0.3779(2) 0.2528(6)
H8 H 0.11806(15) 0.2256(2) 0.4098(6)
H9 H 0.14641(15) 0.2140(2) 0.1522(6)
Na1_2 Na 0.1339(3) -0.0546(5) 0.7642(11)
Na1C Na -0.1339(3) 0.4454(5) -0.2642(11)
O2C O 0.02644(15) -0.1981(2) -0.2401(6)
O4_2 O 0.1329(4) -0.0553(7) -0.7403(19)
O5_2 O 0.2272(4) -0.1712(9) -0.5027(19)
loop_
_geom_bond_atom_site_label_1
_geom_bond_atom_site_label_2
_geom_bond_site_symmetry_1
_geom_bond_site_symmetry_2
Na1 O1 1_555 1_555
O1 C1 1_555 1_555
O2 C1 1_555 1_555
O3 Na1 1_555 1_555
O4 Na1 1_555 1_555
O5 N2 1_555 1_555
N1 C2 1_555 1_555
N2 O3 1_555 1_555
C1 C2 1_555 1_555
C2 C3 1_555 1_555
C3 C4 1_555 1_555
C4 C5 1_555 1_555
C5 N1 1_555 1_555
H1 C2 1_555 1_555
H2 C3 1_555 1_555
H3 C3 1_555 1_555
H4 C4 1_555 1_555
H5 C4 1_555 1_555
H6 C5 1_555 1_555
H7 C5 1_555 1_555
H8 N1 1_555 1_555
H9 N1 1_555 1_555
Na1_2 O4 1_555 1_555
Na1C O2 1_555 1_555
O2C Na1 1_555 1_555
O4_2 Na1 1_555 1_555
O5_2 Na1 1_555 1_555
O4 N2 1_555 1_555
O5 Na1_2 1_555 1_555

#END
