
#######################################################################
#
#                 Cambridge Crystallographic Data Centre
#                                CCDC 
#
#######################################################################
#
# If this CIF has been generated from an entry in the Cambridge 
# Structural Database, then it will include bibliographic, chemical, 
# crystal, experimental, refinement or atomic coordinate data resulting 
# from the CCDC's data processing and validation procedures.
#
#######################################################################

data_BUGGER
_symmetry_cell_setting           triclinic
_symmetry_space_group_name_H-M   'P -1'
_symmetry_Int_Tables_number      2
_space_group_name_Hall           '-P 1'
loop_
_symmetry_equiv_pos_site_id
_symmetry_equiv_pos_as_xyz
1 x,y,z
2 -x,-y,-z
_cell_length_a                   13.1978(4)
_cell_length_b                   13.9035(4)
_cell_length_c                   14.6670(5)
_cell_angle_alpha                114.607(2)
_cell_angle_beta                 112.061(2)
_cell_angle_gamma                95.173(2)
_cell_volume                     2168.51
loop_
_atom_site_label
_atom_site_type_symbol
_atom_site_fract_x
_atom_site_fract_y
_atom_site_fract_z
N1 N 0.8956(3) 0.9914(3) 1.0615(3)
H29 H 0.8774 0.9454 0.9920
H30 H 0.9733 0.9996 1.1049
C37 C 0.8790(3) 1.0983(3) 1.0712(3)
H31 H 0.7972 1.0893 1.0323
H32 H 0.9188 1.1231 1.0368
H33 H 0.9099 1.1535 1.1509
C38 C 0.8272(4) 0.9382(3) 1.0959(4)
H34 H 0.8536 0.9827 1.1772
H35 H 0.8358 0.8642 1.0782
H36 H 0.7466 0.9321 1.0553
O13 O 0.4217(8) -0.0349(9) -0.0137(8)
O14 O 0.4540(9) -0.1319(9) 0.2350(10)
N2 N 0.5475(10) 0.6356(9) 0.9178(10)
O15 O 0.605(3) 0.611(5) 1.072(3)
C39 C 0.6346(13) 0.6236(13) 0.9974(14)
H37 H 0.7076 0.6240 0.9999
C40 C 0.441(2) 0.627(3) 0.893(3)
H38 H 0.3949 0.5860 0.8112
H39 H 0.4311 0.7004 0.9235
H40 H 0.4173 0.5862 0.9263
C41 C 0.5918(15) 0.6531(15) 0.8358(16)
H41 H 0.6755 0.6794 0.8738
H42 H 0.5611 0.7078 0.8174
H43 H 0.5657 0.5827 0.7663
Zn1 Zn 0.77407(3) -0.12064(3) 0.72675(3)
O1 O 0.88140(18) 0.25606(17) 0.76284(18)
O2 O 0.87531(19) 0.03516(18) 0.8233(2)
O3 O 0.7469(2) 0.0598(2) 0.6944(2)
O4 O 0.82636(19) 0.54323(17) 0.70590(18)
O5 O 0.84851(19) 0.83497(17) 0.84234(18)
O6 O 0.8839(3) 0.7255(2) 0.9172(2)
O7 O 0.62116(17) 0.22207(18) 0.38278(18)
O8 O 0.38997(18) 0.17757(19) 0.32007(19)
O9 O 0.3486(2) 0.0536(3) 0.1469(3)
O10 O 1.00905(18) 0.25804(17) 0.51112(18)
O11 O 1.22380(19) 0.19941(19) 0.41928(19)
O12 O 1.0365(2) 0.1455(2) 0.3169(2)
C1 C 0.9684(3) 0.3414(3) 0.7875(3)
C2 C 1.0538(3) 0.3150(3) 0.7554(3)
C3 C 1.1406(3) 0.4023(3) 0.7828(3)
H1 H 1.2016 0.3870 0.7650
C4 C 1.1394(3) 0.5106(3) 0.8354(3)
H2 H 1.1994 0.5690 0.8536
C5 C 1.0513(3) 0.5340(3) 0.8614(3)
H3 H 1.0497 0.6085 0.8951
C6 C 0.9646(3) 0.4499(3) 0.8391(3)
C7 C 0.7345(3) 0.4742(2) 0.6935(3)
C8 C 0.7542(3) 0.4451(3) 0.7783(3)
C9 C 0.6601(3) 0.3867(3) 0.7749(3)
H4 H 0.6710 0.3682 0.8326
C10 C 0.5515(3) 0.3553(4) 0.6892(4)
H5 H 0.4873 0.3222 0.6920
C11 C 0.5366(3) 0.3726(3) 0.5984(3)
H6 H 0.4627 0.3450 0.5362
C12 C 0.6284(3) 0.4299(3) 0.5973(3)
C13 C 0.7022(2) 0.3068(2) 0.3980(2)
C14 C 0.6957(3) 0.4144(2) 0.4494(2)
C15 C 0.7695(3) 0.4977(3) 0.4561(3)
H7 H 0.7644 0.5711 0.4878
C16 C 0.8502(3) 0.4764(3) 0.4178(3)
H8 H 0.8990 0.5341 0.4218
C17 C 0.8592(3) 0.3698(3) 0.3733(3)
H9 H 0.9166 0.3556 0.3496
C18 C 0.7857(3) 0.2831(3) 0.3628(3)
C19 C 0.9318(3) 0.1689(2) 0.4918(3)
C20 C 0.8289(3) 0.1198(3) 0.3918(3)
C21 C 0.7563(3) 0.0225(3) 0.3648(3)
H10 H 0.6887 -0.0150 0.2950
C22 C 0.7808(3) -0.0210(3) 0.4379(4)
H11 H 0.7320 -0.0889 0.4171
C23 C 0.8772(3) 0.0358(3) 0.5410(3)
H12 H 0.8919 0.0080 0.5925
C24 C 0.9536(3) 0.1330(3) 0.5715(3)
C25 C 0.8718(3) 0.4785(3) 0.8732(3)
H13 H 0.8669 0.4429 0.9181
H14 H 0.8952 0.5595 0.9229
C26 C 0.6084(3) 0.4396(3) 0.4929(3)
H15 H 0.5322 0.3888 0.4318
H16 H 0.6061 0.5158 0.5095
C27 C 0.8000(3) 0.1676(3) 0.3132(3)
H17 H 0.7281 0.1171 0.2446
H18 H 0.8611 0.1704 0.2901
C28 C 1.0518(3) 0.1965(3) 0.6900(3)
H19 H 1.0467 0.1575 0.7320
H20 H 1.1247 0.1965 0.6854
C29 C 0.9109(3) 0.2134(3) 0.8396(3)
H21 H 0.8982 0.2588 0.9049
H22 H 0.9927 0.2166 0.8677
C30 C 0.8376(3) 0.0944(3) 0.7798(3)
C31 C 0.8160(3) 0.6481(3) 0.7170(3)
H23 H 0.7352 0.6387 0.6696
H24 H 0.8624 0.6720 0.6865
C32 C 0.8522(3) 0.7402(2) 0.8361(3)
C33 C 0.5414(3) 0.1480(3) 0.2681(3)
H25 H 0.5597 0.0767 0.2448
H26 H 0.5517 0.1786 0.2211
C34 C 0.4174(3) 0.1256(3) 0.2438(3)
C35 C 1.1169(3) 0.2427(3) 0.5193(3)
H27 H 1.1361 0.1948 0.5539
H28 H 1.1760 0.3154 0.5705
C36 C 1.1220(3) 0.1913(3) 0.4073(3)
Zn1_2 Zn 0.77407(3) 0.87936(3) 0.72675(3)
Zn1A Zn 0.22593(3) 0.12064(3) 0.27325(3)
Zn1A_2 Zn 1.22593(3) 0.12064(3) 0.27325(3)
O5_2 O 0.84851(19) -0.16503(17) 0.84234(18)
O8A O 0.61003(18) -0.17757(19) 0.67993(19)
O11A O 0.77620(19) -0.19941(19) 0.58072(19)
H44? H 0.5072 0.1521 0.4646
H45? H 0.5087 0.1115 0.5486
O16? O 0.4454(16) -0.1252(16) 0.0410(17)
O17? O 0.5317(14) -0.2294(14) 0.1772(14)
N3? N 0.6660(3) 0.1662(2) 0.5692(3)
H46? H 0.6981 0.1403 0.6114
H47? H 0.6772 0.2433 0.6290
H48? H 0.6968 0.1646 0.5305
C42? C 0.5408(3) 0.1101(3) 0.4993(3)
H49? H 0.5074 0.1560 0.4665
H50? H 0.5303 0.0388 0.4358
C43? C 0.4702(6) 0.0864(7) 0.5507(7)
H51? H 0.3887 0.0624 0.4956
H52? H 0.4835 0.1564 0.6172
C44? C 0.4907(6) 0.0012(7) 0.5870(7)
H53? H 0.5731 0.0231 0.6388
H54? H 0.4484 0.0031 0.6308
loop_
_geom_bond_atom_site_label_1
_geom_bond_atom_site_label_2
_geom_bond_site_symmetry_1
_geom_bond_site_symmetry_2
Zn1 O2 1_555 1_555
O1 C1 1_555 1_555
O2 C30 1_555 1_555
O3 C30 1_555 1_555
O4 C7 1_555 1_555
O5 C32 1_555 1_555
O6 C32 1_555 1_555
O7 C13 1_555 1_555
O8 C34 1_555 1_555
O9 C34 1_555 1_555
O10 C19 1_555 1_555
O11 C36 1_555 1_555
O12 C36 1_555 1_555
C1 C2 1_555 1_555
C2 C3 1_555 1_555
C3 H1 1_555 1_555
C4 C3 1_555 1_555
H2 C4 1_555 1_555
C5 C4 1_555 1_555
H3 C5 1_555 1_555
C6 C1 1_555 1_555
C7 C8 1_555 1_555
C8 C9 1_555 1_555
C9 H4 1_555 1_555
C10 C9 1_555 1_555
H5 C10 1_555 1_555
C11 C10 1_555 1_555
H6 C11 1_555 1_555
C12 C7 1_555 1_555
C13 C14 1_555 1_555
C14 C15 1_555 1_555
C15 H7 1_555 1_555
C16 C15 1_555 1_555
H8 C16 1_555 1_555
C17 C16 1_555 1_555
H9 C17 1_555 1_555
C18 C13 1_555 1_555
C19 C20 1_555 1_555
C20 C21 1_555 1_555
C21 H10 1_555 1_555
C22 C21 1_555 1_555
H11 C22 1_555 1_555
C23 C22 1_555 1_555
H12 C23 1_555 1_555
C24 C19 1_555 1_555
C25 C6 1_555 1_555
H13 C25 1_555 1_555
H14 C25 1_555 1_555
C26 C12 1_555 1_555
H15 C26 1_555 1_555
H16 C26 1_555 1_555
C27 C18 1_555 1_555
H17 C27 1_555 1_555
H18 C27 1_555 1_555
C28 C2 1_555 1_555
H19 C28 1_555 1_555
H20 C28 1_555 1_555
C29 O1 1_555 1_555
H21 C29 1_555 1_555
H22 C29 1_555 1_555
C30 C29 1_555 1_555
C31 O4 1_555 1_555
H23 C31 1_555 1_555
H24 C31 1_555 1_555
C32 C31 1_555 1_555
C33 O7 1_555 1_555
H25 C33 1_555 1_555
H26 C33 1_555 1_555
C34 C33 1_555 1_555
C35 O10 1_555 1_555
H27 C35 1_555 1_555
H28 C35 1_555 1_555
C36 C35 1_555 1_555
N1 H29 1_555 1_555
H30 N1 1_555 1_555
C37 N1 1_555 1_555
H31 C37 1_555 1_555
H32 C37 1_555 1_555
H33 C37 1_555 1_555
C38 N1 1_555 1_555
H34 C38 1_555 1_555
H35 C38 1_555 1_555
H36 C38 1_555 1_555
N2 C39 1_555 1_555
O15 C39 1_555 1_555
C39 H37 1_555 1_555
C40 N2 1_555 1_555
H38 C40 1_555 1_555
H39 C40 1_555 1_555
H40 C40 1_555 1_555
C41 N2 1_555 1_555
H41 C41 1_555 1_555
H42 C41 1_555 1_555
H43 C41 1_555 1_555
Zn1_2 O5 1_555 1_555
Zn1A O8 1_555 1_555
Zn1A_2 O11 1_555 1_555
O5_2 Zn1 1_555 1_555
O8A Zn1 1_555 1_555
O11A Zn1 1_555 1_555
C5 C6 1_555 1_555
C8 C25 1_555 1_555
C11 C12 1_555 1_555
C14 C26 1_555 1_555
C17 C18 1_555 1_555
C20 C27 1_555 1_555
C23 C24 1_555 1_555
C24 C28 1_555 1_555

#END
