
#######################################################################
#
#                 Cambridge Crystallographic Data Centre
#                                CCDC 
#
#######################################################################
#
# If this CIF has been generated from an entry in the Cambridge 
# Structural Database, then it will include bibliographic, chemical, 
# crystal, experimental, refinement or atomic coordinate data resulting 
# from the CCDC's data processing and validation procedures.
#
#######################################################################

data_BUGHUI
_symmetry_cell_setting           orthorhombic
_symmetry_space_group_name_H-M   'P n n a'
_symmetry_Int_Tables_number      52
_space_group_name_Hall           '-P 2a 2bc'
loop_
_symmetry_equiv_pos_site_id
_symmetry_equiv_pos_as_xyz
1 x,y,z
2 1/2-x,-y,z
3 1/2-x,1/2+y,1/2-z
4 x,1/2-y,1/2-z
5 -x,-y,-z
6 1/2+x,y,-z
7 1/2+x,1/2-y,1/2+z
8 -x,1/2+y,1/2+z
_cell_length_a                   24.815(5)
_cell_length_b                   13.262(3)
_cell_length_c                   14.236(3)
_cell_angle_alpha                90
_cell_angle_beta                 90
_cell_angle_gamma                90
_cell_volume                     4685.02
loop_
_atom_site_label
_atom_site_type_symbol
_atom_site_fract_x
_atom_site_fract_y
_atom_site_fract_z
N1 N 0.50868(16) 0.8476(3) 0.1829(3)
C1 C 0.5464(3) 0.8131(5) 0.1221(5)
H1 H 0.5487 0.7440 0.1117
C2 C 0.5811(4) 0.8749(6) 0.0757(7)
H2 H 0.6058 0.8482 0.0335
C3 C 0.5793(4) 0.9777(6) 0.0918(8)
C4 C 0.5464(4) 1.0092(5) 0.1582(8)
H3 H 0.5474 1.0763 0.1772
C5 C 0.5108(3) 0.9442(4) 0.1996(6)
H4 H 0.4865 0.9707 0.2427
C6 C 0.6179(7) 1.0575(8) -0.0172(8)
C7 C 0.6433(5) 1.0398(9) 0.0533(9)
N2 N 0.76955(15) 1.1807(3) -0.1674(3)
C8 C 0.7287(2) 1.1325(4) -0.2069(4)
H5 H 0.7287 1.1260 -0.2720
C9 C 0.6862(3) 1.0914(5) -0.1582(5)
H6 H 0.6584 1.0588 -0.1897
C10 C 0.7280(3) 1.1499(5) -0.0198(4)
H7 H 0.7292 1.1572 0.0451
C11 C 0.7682(2) 1.1890(4) -0.0750(3)
H8 H 0.7962 1.2235 -0.0457
C12 C 0.6856(3) 1.0995(5) -0.0618(6)
O1 O 0.47384(15) 0.6318(3) 0.0759(3)
O2 O 0.40838(14) 0.6763(2) 0.1725(2)
O3 O 0.40716(13) 0.4509(2) 0.1855(2)
O4 O 0.33003(12) 0.3704(2) 0.1581(2)
C13 C 0.3729(2) 0.6420(4) -0.0463(3)
H9 H 0.3948 0.6962 -0.0625
C14 C 0.3312(2) 0.6153(4) -0.1048(3)
H10 H 0.3252 0.6516 -0.1597
C15 C 0.29815(18) 0.5345(3) -0.0825(3)
C16 C 0.31002(17) 0.4790(3) -0.0017(3)
H11 H 0.2890 0.4231 0.0127
C17 C 0.35245(16) 0.5050(3) 0.0579(3)
C18 C 0.38307(17) 0.5900(3) 0.0365(3)
C19 C 0.4264(2) 0.6330(3) 0.1003(3)
C20 C 0.36419(17) 0.4377(3) 0.1406(3)
C21 C 0.2500 0.5000 -0.1430(4)
C22 C 0.2717(2) 0.4146(4) -0.2054(3)
F1 F 0.23756(14) 0.3890(3) -0.27609(19)
F2 F 0.31813(13) 0.4385(3) -0.2467(2)
F3 F 0.28032(13) 0.3300(2) -0.1566(2)
O5 O 0.39489(13) 0.1774(2) 0.1686(2)
Co1 Co 0.45931(3) 0.7500 0.2500
Co2 Co 0.33100(3) 0.2500 0.2500
O1A O 0.02616(15) 0.3682(3) 0.0759(3)
O2A O 0.09162(14) 0.3237(2) 0.1725(2)
O3A O 0.09284(13) 0.5491(2) 0.1855(2)
O4A O 0.16997(12) 0.6296(2) 0.1581(2)
C13A C 0.1271(2) 0.3580(4) -0.0463(3)
H9A H 0.1052 0.3038 -0.0625
C14A C 0.1688(2) 0.3847(4) -0.1048(3)
H10A H 0.1748 0.3484 -0.1597
C15A C 0.20185(18) 0.4655(3) -0.0825(3)
C16A C 0.18998(17) 0.5210(3) -0.0017(3)
H11A H 0.2110 0.5769 0.0127
C17A C 0.14755(16) 0.4950(3) 0.0579(3)
C18A C 0.11693(17) 0.4100(3) 0.0365(3)
C19A C 0.0736(2) 0.3670(3) 0.1003(3)
C20A C 0.13581(17) 0.5623(3) 0.1406(3)
C22A C 0.2283(2) 0.5854(4) -0.2054(3)
F1A F 0.26244(14) 0.6110(3) -0.27609(19)
F2A F 0.18187(13) 0.5615(3) -0.2467(2)
F3A F 0.21968(13) 0.6700(2) -0.1566(2)
N1C N 0.50868(16) 0.6524(3) 0.3171(3)
C1C C 0.5464(3) 0.6869(5) 0.3779(5)
H1C H 0.5487 0.7560 0.3883
C2C C 0.5811(4) 0.6251(6) 0.4243(7)
H2C H 0.6058 0.6518 0.4665
C3C C 0.5793(4) 0.5223(6) 0.4082(8)
C4C C 0.5464(4) 0.4908(5) 0.3418(8)
H3C H 0.5474 0.4237 0.3228
C5C C 0.5108(3) 0.5558(4) 0.3004(6)
H4C H 0.4865 0.5293 0.2573
C6C C 0.6179(7) 0.4425(8) 0.5172(8)
C7C C 0.6433(5) 0.4602(9) 0.4467(9)
N2C N 0.76955(15) 0.3193(3) 0.6674(3)
C8C C 0.7287(2) 0.3675(4) 0.7069(4)
H5C H 0.7287 0.3740 0.7720
C9C C 0.6862(3) 0.4086(5) 0.6582(5)
H6C H 0.6584 0.4412 0.6897
C10C C 0.7280(3) 0.3501(5) 0.5198(4)
H7C H 0.7292 0.3428 0.4549
C11C C 0.7682(2) 0.3110(4) 0.5750(3)
H8C H 0.7962 0.2765 0.5457
C12C C 0.6856(3) 0.4005(5) 0.5618(6)
O5C O 0.39489(13) 0.3226(2) 0.3314(2)
N2E N 0.26955(15) 0.1807(3) 0.1674(3)
N2F N 0.26955(15) 0.3193(3) 0.3326(3)
O2C O 0.40838(14) 0.8237(2) 0.3275(2)
O4C O 0.33003(12) 0.1296(2) 0.3419(2)
Co1A Co 0.04069(3) 0.2500 0.2500
Co2A Co 0.16900(3) 0.7500 0.2500
Co2E Co 0.83100(3) 0.2500 0.7500
Co2E_2 Co 0.83100(3) 1.2500 -0.2500
O6 O 0.5600(4) 1.2500 0.2500
O7 O 0.48267(18) 0.3186(4) 0.1054(3)
loop_
_geom_bond_atom_site_label_1
_geom_bond_atom_site_label_2
_geom_bond_site_symmetry_1
_geom_bond_site_symmetry_2
N1 C1 1_555 1_555
C1 H1 1_555 1_555
C2 C1 1_555 1_555
H2 C2 1_555 1_555
C3 C2 1_555 1_555
C4 C3 1_555 1_555
H3 C4 1_555 1_555
C5 N1 1_555 1_555
H4 C5 1_555 1_555
C6 C7 1_555 1_555
C7 C3 1_555 1_555
N2 C8 1_555 1_555
C8 H5 1_555 1_555
C9 C8 1_555 1_555
H6 C9 1_555 1_555
C10 H7 1_555 1_555
C11 N2 1_555 1_555
H8 C11 1_555 1_555
C12 C6 1_555 1_555
O1 C19 1_555 1_555
O2 C19 1_555 1_555
O3 C20 1_555 1_555
O4 C20 1_555 1_555
C13 H9 1_555 1_555
C14 C13 1_555 1_555
H10 C14 1_555 1_555
C15 C14 1_555 1_555
C16 C15 1_555 1_555
H11 C16 1_555 1_555
C17 C16 1_555 1_555
C18 C13 1_555 1_555
C19 C18 1_555 1_555
C20 C17 1_555 1_555
C21 C15 1_555 1_555
C22 C21 1_555 1_555
F1 C22 1_555 1_555
F2 C22 1_555 1_555
F3 C22 1_555 1_555
O5 Co2 1_555 1_555
Co1 N1 1_555 1_555
Co2 O4 1_555 1_555
O1A C19A 1_555 1_555
O2A C19A 1_555 1_555
O3A C20A 1_555 1_555
O4A C20A 1_555 1_555
C13A H9A 1_555 1_555
C14A C13A 1_555 1_555
H10A C14A 1_555 1_555
C15A C21 1_555 1_555
C16A C15A 1_555 1_555
H11A C16A 1_555 1_555
C17A C16A 1_555 1_555
C18A C13A 1_555 1_555
C19A C18A 1_555 1_555
C20A C17A 1_555 1_555
C22A C21 1_555 1_555
F1A C22A 1_555 1_555
F2A C22A 1_555 1_555
F3A C22A 1_555 1_555
N1C Co1 1_555 1_555
C1C N1C 1_555 1_555
H1C C1C 1_555 1_555
C2C C1C 1_555 1_555
H2C C2C 1_555 1_555
C3C C2C 1_555 1_555
C4C C3C 1_555 1_555
H3C C4C 1_555 1_555
C5C N1C 1_555 1_555
H4C C5C 1_555 1_555
C6C C7C 1_555 1_555
C7C C3C 1_555 1_555
N2C C8C 1_555 1_555
C8C H5C 1_555 1_555
C9C C8C 1_555 1_555
H6C C9C 1_555 1_555
C10C H7C 1_555 1_555
C11C N2C 1_555 1_555
H8C C11C 1_555 1_555
C12C C6C 1_555 1_555
O5C Co2 1_555 1_555
N2E Co2 1_555 1_555
N2F Co2 1_555 1_555
O2C Co1 1_555 1_555
O4C Co2 1_555 1_555
Co1A O2A 1_555 1_555
Co2A O4A 1_555 1_555
Co2E N2C 1_555 1_555
Co2E_2 N2 1_555 1_555
C4 C5 1_555 1_555
C9 C12 1_555 1_555
C10 C11 1_555 1_555
C10 C12 1_555 1_555
O2 Co1 1_555 1_555
C17 C18 1_555 1_555
C14A C15A 1_555 1_555
C17A C18A 1_555 1_555
C4C C5C 1_555 1_555
C9C C12C 1_555 1_555
C10C C11C 1_555 1_555
C10C C12C 1_555 1_555

#END
