
#######################################################################
#
#                 Cambridge Crystallographic Data Centre
#                                CCDC 
#
#######################################################################
#
# If this CIF has been generated from an entry in the Cambridge 
# Structural Database, then it will include bibliographic, chemical, 
# crystal, experimental, refinement or atomic coordinate data resulting 
# from the CCDC's data processing and validation procedures.
#
#######################################################################

data_BUGKOF01
_symmetry_cell_setting           triclinic
_symmetry_space_group_name_H-M   'P -1'
_symmetry_Int_Tables_number      2
_space_group_name_Hall           '-P 1'
loop_
_symmetry_equiv_pos_site_id
_symmetry_equiv_pos_as_xyz
1 x,y,z
2 -x,-y,-z
_cell_length_a                   11.2283(4)
_cell_length_b                   12.0398(4)
_cell_length_c                   12.6227(4)
_cell_angle_alpha                94.689(2)
_cell_angle_beta                 90.559(2)
_cell_angle_gamma                91.596(2)
_cell_volume                     1699.92
loop_
_atom_site_label
_atom_site_type_symbol
_atom_site_fract_x
_atom_site_fract_y
_atom_site_fract_z
Ag1 Ag 0.150074(19) 0.665552(15) 0.418876(15)
N1 N 0.1640(2) 0.7839(2) 0.56285(19)
C1 C 0.2030(3) 0.8875(3) 0.5554(2)
H1 H 0.2351 0.9144 0.4927
N2 N 0.1915(2) 0.9503(2) 0.64783(19)
C2 C 0.1420(3) 0.8828(3) 0.7187(2)
H2 H 0.1225 0.9035 0.7906
C3 C 0.1260(3) 0.7799(3) 0.6658(2)
H3 H 0.0938 0.7156 0.6953
C4 C 0.2157(3) 1.0715(2) 0.6679(3)
H4 H 0.2493 1.0871 0.7405
H5 H 0.1396 1.1107 0.6647
C5 C 0.3009(3) 1.1177(2) 0.5897(2)
C6 C 0.4228(3) 1.1310(3) 0.6157(3)
C7 C 0.4981(3) 1.1808(3) 0.5463(3)
H6 H 0.5793 1.1946 0.5662
C8 C 0.4581(3) 1.2112(3) 0.4480(3)
C9 C 0.3396(3) 1.1911(2) 0.4187(2)
C10 C 0.2584(3) 1.1489(2) 0.4916(2)
C11 C 0.1263(3) 1.1413(3) 0.4667(3)
H7 H 0.0918 1.0737 0.4938
H8 H 0.1138 1.1384 0.3896
H9 H 0.0878 1.2069 0.5007
C12 C 0.5465(4) 1.2662(4) 0.3761(3)
H10 H 0.5704 1.2115 0.3190
H11 H 0.6169 1.2935 0.4179
H12 H 0.5089 1.3288 0.3453
C13 C 0.4734(3) 1.0930(3) 0.7176(3)
H13 H 0.5604 1.1023 0.7177
H14 H 0.4516 1.0142 0.7226
H15 H 0.4412 1.1378 0.7784
C14 C 0.2990(3) 1.2129(3) 0.3085(3)
H16 H 0.3683 1.2098 0.2607
H17 H 0.2411 1.1533 0.2820
N3 N 0.2428(2) 1.3221(2) 0.3043(2)
C15 C 0.2547(3) 1.4115(3) 0.3749(2)
H18 H 0.3008 1.4134 0.4386
N4 N 0.1946(2) 1.4962(2) 0.3450(2)
C16 C 0.1426(3) 1.4591(3) 0.2489(2)
H19 H 0.0937 1.5023 0.2072
C17 C 0.1715(3) 1.3518(3) 0.2226(2)
H20 H 0.1475 1.3065 0.1605
N5 N 0.1976(2) 0.7882(2) 0.2844(2)
C18 C 0.2283(3) 0.7521(3) 0.1875(2)
H21 H 0.2719 0.6866 0.1712
N6 N 0.1906(2) 0.8190(2) 0.11435(19)
C19 C 0.1299(3) 0.9033(3) 0.1676(3)
H22 H 0.0924 0.9634 0.1378
C20 C 0.1345(3) 0.8828(3) 0.2719(3)
H23 H 0.0993 0.9274 0.3281
C21 C 0.2020(3) 0.8053(3) -0.0025(2)
H24 H 0.2275 0.8776 -0.0283
H25 H 0.1229 0.7842 -0.0347
C22 C 0.2901(3) 0.7180(2) -0.0391(2)
C23 C 0.4098(3) 0.7487(2) -0.0515(2)
C24 C 0.4884(3) 0.6686(3) -0.0901(2)
H26 H 0.5703 0.6891 -0.0959
C25 C 0.4513(3) 0.5588(2) -0.1206(2)
C26 C 0.3314(3) 0.5282(2) -0.1076(2)
C27 C 0.2512(3) 0.6070(2) -0.0643(2)
C28 C 0.1227(3) 0.5721(3) -0.0461(3)
H27 H 0.0913 0.6183 0.0142
H28 H 0.1187 0.4936 -0.0308
H29 H 0.0751 0.5818 -0.1100
C29 C 0.4548(3) 0.8676(3) -0.0260(3)
H30 H 0.4186 0.9158 -0.0755
H31 H 0.5417 0.8712 -0.0329
H32 H 0.4333 0.8928 0.0470
C30 C 0.5413(3) 0.4775(3) -0.1662(3)
H33 H 0.6196 0.5152 -0.1679
H34 H 0.5168 0.4499 -0.2386
H35 H 0.5457 0.4147 -0.1217
C31 C 0.2865(3) 0.4110(2) -0.1429(3)
H36 H 0.3550 0.3635 -0.1614
H37 H 0.2436 0.3792 -0.0837
N7 N 0.2061(2) 0.4114(2) -0.2356(2)
C32 C 0.1077(3) 0.3451(2) -0.2572(2)
H38 H 0.0797 0.2902 -0.2128
N8 N 0.0560(2) 0.3659(2) -0.3471(2)
C33 C 0.1231(3) 0.4503(3) -0.3847(3)
H39 H 0.1070 0.4839 -0.4487
C34 C 0.2167(3) 0.4794(3) -0.3173(3)
H40 H 0.2767 0.5352 -0.3254
Ag1_2 Ag 0.150074(19) 1.665552(15) 0.418876(15)
Ag1A Ag -0.150074(19) 0.334448(15) -0.418876(15)
N4_2 N 0.1946(2) 0.4962(2) 0.3450(2)
N8A N -0.0560(2) 0.6341(2) 0.3471(2)
B1 B 0.1778(4) 0.1433(3) -0.0229(3)
F1 F 0.2748(2) 0.1682(2) -0.08979(18)
F2 F 0.1254(2) 0.04604(17) -0.06565(18)
F3 F 0.2255(2) 0.1308(2) 0.07698(18)
F4 F 0.10043(19) 0.23118(17) -0.02179(18)
loop_
_geom_bond_atom_site_label_1
_geom_bond_atom_site_label_2
_geom_bond_site_symmetry_1
_geom_bond_site_symmetry_2
Ag1 N1 1_555 1_555
N1 C1 1_555 1_555
C1 H1 1_555 1_555
N2 C1 1_555 1_555
C2 N2 1_555 1_555
H2 C2 1_555 1_555
C3 N1 1_555 1_555
H3 C3 1_555 1_555
C4 N2 1_555 1_555
H4 C4 1_555 1_555
H5 C4 1_555 1_555
C5 C4 1_555 1_555
C6 C5 1_555 1_555
C7 C6 1_555 1_555
H6 C7 1_555 1_555
C8 C7 1_555 1_555
C9 C8 1_555 1_555
C10 C5 1_555 1_555
C11 C10 1_555 1_555
H7 C11 1_555 1_555
H8 C11 1_555 1_555
H9 C11 1_555 1_555
C12 C8 1_555 1_555
H10 C12 1_555 1_555
H11 C12 1_555 1_555
H12 C12 1_555 1_555
C13 C6 1_555 1_555
H13 C13 1_555 1_555
H14 C13 1_555 1_555
H15 C13 1_555 1_555
C14 C9 1_555 1_555
H16 C14 1_555 1_555
H17 C14 1_555 1_555
N3 C14 1_555 1_555
C15 N3 1_555 1_555
H18 C15 1_555 1_555
N4 C15 1_555 1_555
C16 N4 1_555 1_555
H19 C16 1_555 1_555
C17 N3 1_555 1_555
H20 C17 1_555 1_555
N5 Ag1 1_555 1_555
C18 N5 1_555 1_555
H21 C18 1_555 1_555
N6 C18 1_555 1_555
C19 N6 1_555 1_555
H22 C19 1_555 1_555
C20 N5 1_555 1_555
H23 C20 1_555 1_555
C21 N6 1_555 1_555
H24 C21 1_555 1_555
H25 C21 1_555 1_555
C22 C21 1_555 1_555
C23 C22 1_555 1_555
C24 C23 1_555 1_555
H26 C24 1_555 1_555
C25 C24 1_555 1_555
C26 C25 1_555 1_555
C27 C22 1_555 1_555
C28 C27 1_555 1_555
H27 C28 1_555 1_555
H28 C28 1_555 1_555
H29 C28 1_555 1_555
C29 C23 1_555 1_555
H30 C29 1_555 1_555
H31 C29 1_555 1_555
H32 C29 1_555 1_555
C30 C25 1_555 1_555
H33 C30 1_555 1_555
H34 C30 1_555 1_555
H35 C30 1_555 1_555
C31 C26 1_555 1_555
H36 C31 1_555 1_555
H37 C31 1_555 1_555
N7 C31 1_555 1_555
C32 N7 1_555 1_555
H38 C32 1_555 1_555
N8 C32 1_555 1_555
C33 N8 1_555 1_555
H39 C33 1_555 1_555
C34 N7 1_555 1_555
H40 C34 1_555 1_555
B1 F1 1_555 1_555
F2 B1 1_555 1_555
F3 B1 1_555 1_555
F4 B1 1_555 1_555
Ag1_2 N4 1_555 1_555
Ag1A N8 1_555 1_555
N4_2 Ag1 1_555 1_555
N8A Ag1 1_555 1_555
C2 C3 1_555 1_555
C9 C10 1_555 1_555
C16 C17 1_555 1_555
C19 C20 1_555 1_555
C26 C27 1_555 1_555
C33 C34 1_555 1_555

#END
