
#######################################################################
#
#                 Cambridge Crystallographic Data Centre
#                                CCDC 
#
#######################################################################
#
# If this CIF has been generated from an entry in the Cambridge 
# Structural Database, then it will include bibliographic, chemical, 
# crystal, experimental, refinement or atomic coordinate data resulting 
# from the CCDC's data processing and validation procedures.
#
#######################################################################

data_BUGKOF
_symmetry_cell_setting           triclinic
_symmetry_space_group_name_H-M   'P -1'
_symmetry_Int_Tables_number      2
_space_group_name_Hall           '-P 1'
loop_
_symmetry_equiv_pos_site_id
_symmetry_equiv_pos_as_xyz
1 x,y,z
2 -x,-y,-z
_cell_length_a                   8.6649(10)
_cell_length_b                   9.9079(11)
_cell_length_c                   20.598(2)
_cell_angle_alpha                100.055(2)
_cell_angle_beta                 96.583(2)
_cell_angle_gamma                103.561(2)
_cell_volume                     1670.15
loop_
_atom_site_label
_atom_site_type_symbol
_atom_site_fract_x
_atom_site_fract_y
_atom_site_fract_z
Ag1 Ag 0.47621(2) 0.07694(2) 0.229851(9)
N1 N 0.5695(3) -0.0485(2) 0.13994(11)
C1 C 0.6467(3) -0.1441(3) 0.15130(13)
H1 H 0.6482 -0.1813 0.1908
N2 N 0.7235(3) -0.1834(2) 0.10066(10)
C2 C 0.6936(3) -0.1070(3) 0.05307(12)
H2 H 0.7312 -0.1105 0.0114
C3 C 0.5986(3) -0.0250(3) 0.07800(12)
H3 H 0.5584 0.0391 0.0558
C4 C 0.8329(3) -0.2767(3) 0.10246(12)
H4 H 0.8092 -0.3336 0.1369
H5 H 0.9451 -0.2174 0.1157
C5 C 0.8181(3) -0.3759(3) 0.03602(12)
C6 C 0.7137(3) -0.5131(3) 0.02319(13)
C7 C 0.6999(3) -0.6015(3) -0.03818(13)
H6 H 0.6320 -0.6951 -0.0463
C8 C 0.7815(3) -0.5588(3) -0.08873(12)
C9 C 0.8851(3) -0.4221(3) -0.07565(12)
C10 C 0.9058(3) -0.3320(3) -0.01280(13)
C11 C 1.0274(3) -0.1875(3) 0.00033(14)
H7 H 1.0270 -0.1349 0.0452
H8 H 0.9983 -0.1340 -0.0328
H9 H 1.1350 -0.2008 -0.0030
C12 C 0.6177(3) -0.5654(3) 0.07480(13)
H10 H 0.5487 -0.6611 0.0559
H11 H 0.5508 -0.5013 0.0878
H12 H 0.6913 -0.5677 0.1142
C13 C 0.7523(3) -0.6601(3) -0.15564(14)
H13 H 0.6843 -0.6294 -0.1884
H14 H 0.6983 -0.7559 -0.1512
H15 H 0.8555 -0.6608 -0.1707
C14 C 0.9742(3) -0.3703(3) -0.12901(14)
H16 H 1.0898 -0.3307 -0.1103
H17 H 0.9643 -0.4514 -0.1663
N3 N 0.9111(2) -0.2602(2) -0.15488(10)
C15 C 0.7563(3) -0.2546(3) -0.16584(13)
H18 H 0.6684 -0.3228 -0.1570
N4 N 0.7421(3) -0.1430(2) -0.19035(10)
C16 C 0.8964(3) -0.0731(3) -0.19525(12)
H19 H 0.9250 0.0122 -0.2112
C17 C 1.0016(3) -0.1448(3) -0.17372(12)
H20 H 1.1150 -0.1199 -0.1721
N5 N 0.7275(3) 0.2147(2) 0.27936(11)
C18 C 0.8418(3) 0.1698(3) 0.30992(13)
H21 H 0.8288 0.0756 0.3167
N6 N 0.9795(3) 0.2738(2) 0.33033(10)
C19 C 0.9513(3) 0.3925(3) 0.31099(13)
H22 H 1.0255 0.4831 0.3180
C20 C 0.7956(3) 0.3546(3) 0.27973(13)
H23 H 0.7422 0.4157 0.2610
C21 C 1.1341(3) 0.2573(3) 0.36130(13)
H24 H 1.2019 0.2425 0.3265
H25 H 1.1143 0.1725 0.3816
C22 C 1.2221(3) 0.3872(3) 0.41459(12)
C23 C 1.1772(3) 0.4013(3) 0.47817(13)
C24 C 1.2515(3) 0.5238(3) 0.52589(12)
H26 H 1.2231 0.5326 0.5693
C25 C 1.3668(3) 0.6343(3) 0.51184(12)
C26 C 1.4123(3) 0.6189(3) 0.44828(12)
C27 C 1.3409(3) 0.4944(3) 0.39953(12)
C28 C 1.3930(4) 0.4783(3) 0.33124(13)
H27 H 1.4153 0.3853 0.3193
H28 H 1.4905 0.5533 0.3325
H29 H 1.3070 0.4857 0.2979
C29 C 1.0493(3) 0.2868(3) 0.49523(15)
H30 H 1.0296 0.3181 0.5406
H31 H 1.0858 0.1998 0.4926
H32 H 0.9497 0.2680 0.4635
C30 C 1.4367(4) 0.7674(3) 0.56517(14)
H33 H 1.5540 0.7851 0.5741
H34 H 1.3928 0.7554 0.6062
H35 H 1.4086 0.8481 0.5498
C31 C 1.5331(3) 0.7393(3) 0.43144(13)
H36 H 1.5883 0.8083 0.4731
H37 H 1.6152 0.7016 0.4099
N7 N 1.4539(3) 0.8120(2) 0.38602(11)
C32 C 1.5173(3) 0.8728(3) 0.33809(13)
H38 H 1.6220 0.8737 0.3283
N8 N 1.4178(3) 0.9309(2) 0.30632(11)
C33 C 1.2811(3) 0.9053(3) 0.33561(14)
H39 H 1.1867 0.9341 0.3232
C34 C 1.3015(3) 0.8329(3) 0.38472(14)
H40 H 1.2261 0.8026 0.4126
Ag1_2 Ag 1.47621(2) 1.07694(2) 0.229851(9)
Ag1A Ag 0.52379(2) -0.07694(2) -0.229851(9)
N4A N 0.2579(3) 0.1430(2) 0.19035(10)
N8_2 N 0.4178(3) -0.0691(2) 0.30632(11)
B1 B 0.8494(4) 0.7149(3) 0.28288(15)
F1 F 0.9539(2) 0.65312(18) 0.24953(8)
F2 F 0.8832(2) 0.85859(17) 0.28057(9)
F3 F 0.6913(2) 0.64911(17) 0.25080(9)
F4 F 0.8645(3) 0.6998(2) 0.34837(9)
loop_
_geom_bond_atom_site_label_1
_geom_bond_atom_site_label_2
_geom_bond_site_symmetry_1
_geom_bond_site_symmetry_2
Ag1 N1 1_555 1_555
N1 C1 1_555 1_555
C1 H1 1_555 1_555
N2 C1 1_555 1_555
C2 N2 1_555 1_555
H2 C2 1_555 1_555
C3 N1 1_555 1_555
H3 C3 1_555 1_555
C4 N2 1_555 1_555
H4 C4 1_555 1_555
H5 C4 1_555 1_555
C5 C4 1_555 1_555
C6 C5 1_555 1_555
C7 C6 1_555 1_555
H6 C7 1_555 1_555
C8 C7 1_555 1_555
C9 C8 1_555 1_555
C10 C5 1_555 1_555
C11 C10 1_555 1_555
H7 C11 1_555 1_555
H8 C11 1_555 1_555
H9 C11 1_555 1_555
C12 C6 1_555 1_555
H10 C12 1_555 1_555
H11 C12 1_555 1_555
H12 C12 1_555 1_555
C13 C8 1_555 1_555
H13 C13 1_555 1_555
H14 C13 1_555 1_555
H15 C13 1_555 1_555
C14 C9 1_555 1_555
H16 C14 1_555 1_555
H17 C14 1_555 1_555
N3 C14 1_555 1_555
C15 N3 1_555 1_555
H18 C15 1_555 1_555
N4 C15 1_555 1_555
C16 N4 1_555 1_555
H19 C16 1_555 1_555
C17 N3 1_555 1_555
H20 C17 1_555 1_555
N5 Ag1 1_555 1_555
C18 N5 1_555 1_555
H21 C18 1_555 1_555
N6 C18 1_555 1_555
C19 N6 1_555 1_555
H22 C19 1_555 1_555
C20 N5 1_555 1_555
H23 C20 1_555 1_555
C21 N6 1_555 1_555
H24 C21 1_555 1_555
H25 C21 1_555 1_555
C22 C21 1_555 1_555
C23 C22 1_555 1_555
C24 C23 1_555 1_555
H26 C24 1_555 1_555
C25 C24 1_555 1_555
C26 C25 1_555 1_555
C27 C22 1_555 1_555
C28 C27 1_555 1_555
H27 C28 1_555 1_555
H28 C28 1_555 1_555
H29 C28 1_555 1_555
C29 C23 1_555 1_555
H30 C29 1_555 1_555
H31 C29 1_555 1_555
H32 C29 1_555 1_555
C30 C25 1_555 1_555
H33 C30 1_555 1_555
H34 C30 1_555 1_555
H35 C30 1_555 1_555
C31 C26 1_555 1_555
H36 C31 1_555 1_555
H37 C31 1_555 1_555
N7 C31 1_555 1_555
C32 N7 1_555 1_555
H38 C32 1_555 1_555
N8 C32 1_555 1_555
C33 N8 1_555 1_555
H39 C33 1_555 1_555
C34 N7 1_555 1_555
H40 C34 1_555 1_555
B1 F1 1_555 1_555
F2 B1 1_555 1_555
F3 B1 1_555 1_555
F4 B1 1_555 1_555
Ag1_2 N8 1_555 1_555
Ag1A N4 1_555 1_555
N4A Ag1 1_555 1_555
N8_2 Ag1 1_555 1_555
C2 C3 1_555 1_555
C9 C10 1_555 1_555
C16 C17 1_555 1_555
C19 C20 1_555 1_555
C26 C27 1_555 1_555
C33 C34 1_555 1_555

#END
