
#######################################################################
#
#                 Cambridge Crystallographic Data Centre
#                                CCDC 
#
#######################################################################
#
# If this CIF has been generated from an entry in the Cambridge 
# Structural Database, then it will include bibliographic, chemical, 
# crystal, experimental, refinement or atomic coordinate data resulting 
# from the CCDC's data processing and validation procedures.
#
#######################################################################

data_BUGLOG
_symmetry_cell_setting           triclinic
_symmetry_space_group_name_H-M   'P -1'
_symmetry_Int_Tables_number      2
_space_group_name_Hall           '-P 1'
loop_
_symmetry_equiv_pos_site_id
_symmetry_equiv_pos_as_xyz
1 x,y,z
2 -x,-y,-z
_cell_length_a                   3.7219(2)
_cell_length_b                   10.6120(5)
_cell_length_c                   13.4678(7)
_cell_angle_alpha                87.742(2)
_cell_angle_beta                 87.9060(10)
_cell_angle_gamma                80.3350(10)
_cell_volume                     523.736
loop_
_atom_site_label
_atom_site_type_symbol
_atom_site_fract_x
_atom_site_fract_y
_atom_site_fract_z
Cu1 Cu 0.50826(4) 0.00064(2) 0.24982(2)
Cl1 Cl 0.86618(10) 0.09394(3) 0.13105(3)
Cl2 Cl 0.11895(9) -0.08300(3) 0.36679(2)
Cl3 Cl 0.06952(10) 0.51998(3) 0.37035(3)
Cl4 Cl 0.60107(10) -0.52048(3) 0.12905(3)
N1 N 0.4279(4) 0.16151(12) 0.32250(9)
N2 N 0.5420(4) 0.17174(12) 0.41564(9)
H1 H 0.6636 0.1080 0.4508
N3 N 0.5878(3) -0.16039(12) 0.17659(9)
N4 N 0.7333(4) -0.17038(12) 0.08317(9)
H2 H 0.8000 -0.1062 0.0478
C1 C 0.4469(4) 0.29118(14) 0.44777(11)
H3 H 0.4980 0.3215 0.5103
C2 C 0.2599(4) 0.36097(14) 0.37171(11)
C3 C 0.2530(4) 0.27676(14) 0.29479(11)
H4 H 0.1415 0.2983 0.2327
C4 C 0.7638(4) -0.28971(14) 0.05079(11)
H5 H 0.8578 -0.3193 -0.0122
C5 C 0.6309(4) -0.36092(14) 0.12741(11)
C6 C 0.5229(4) -0.27697(14) 0.20435(11)
H6 H 0.4194 -0.2993 0.2668
Cu1_2 Cu -0.49174(4) 0.00064(2) 0.24982(2)
Cu1_3 Cu 1.50826(4) 0.00064(2) 0.24982(2)
Cl1_2 Cl -0.13382(10) 0.09394(3) 0.13105(3)
Cl2_2 Cl 1.11895(9) -0.08300(3) 0.36679(2)
loop_
_geom_bond_atom_site_label_1
_geom_bond_atom_site_label_2
_geom_bond_site_symmetry_1
_geom_bond_site_symmetry_2
Cu1 Cl1 1_555 1_555
Cl1 Cu1_3 1_555 1_555
Cl2 Cu1 1_555 1_555
Cl3 C2 1_555 1_555
Cl4 C5 1_555 1_555
N1 Cu1 1_555 1_555
N2 N1 1_555 1_555
H1 N2 1_555 1_555
N3 Cu1 1_555 1_555
N4 N3 1_555 1_555
H2 N4 1_555 1_555
C1 N2 1_555 1_555
H3 C1 1_555 1_555
C2 C1 1_555 1_555
C3 N1 1_555 1_555
H4 C3 1_555 1_555
C4 N4 1_555 1_555
H5 C4 1_555 1_555
C5 C4 1_555 1_555
C6 N3 1_555 1_555
H6 C6 1_555 1_555
Cu1_2 Cl2 1_555 1_555
Cu1_3 Cl2_2 1_555 1_555
Cl1_2 Cu1 1_555 1_555
Cl2_2 Cu1 1_555 1_555
C2 C3 1_555 1_555
C5 C6 1_555 1_555
Cu1_2 Cl1_2 1_555 1_555

#END
