
#######################################################################
#
#                 Cambridge Crystallographic Data Centre
#                                CCDC 
#
#######################################################################
#
# If this CIF has been generated from an entry in the Cambridge 
# Structural Database, then it will include bibliographic, chemical, 
# crystal, experimental, refinement or atomic coordinate data resulting 
# from the CCDC's data processing and validation procedures.
#
#######################################################################

data_BUGSOL
_symmetry_cell_setting           monoclinic
_symmetry_space_group_name_H-M   'P 21/c'
_symmetry_Int_Tables_number      14
_space_group_name_Hall           '-P 2ybc'
loop_
_symmetry_equiv_pos_site_id
_symmetry_equiv_pos_as_xyz
1 x,y,z
2 -x,1/2+y,1/2-z
3 -x,-y,-z
4 x,1/2-y,1/2+z
_cell_length_a                   24.337(6)
_cell_length_b                   5.733(1)
_cell_length_c                   17.287(6)
_cell_angle_alpha                90
_cell_angle_beta                 110.54(2)
_cell_angle_gamma                90
_cell_volume                     2258.62
loop_
_atom_site_label
_atom_site_type_symbol
_atom_site_fract_x
_atom_site_fract_y
_atom_site_fract_z
Ag1 Ag 0.46910 0.21540 0.47700
N1 N 0.43800 0.20300 0.33080
C1 C 0.40650 0.03400 0.28600
C2 C 0.38780 0.01700 0.20100
C3 C 0.40260 0.20200 0.16000
C4 C 0.43460 0.39000 0.20300
C5 C 0.45070 0.38300 0.28900
O1 O 0.56140 0.36600 0.53030
O2 O 0.40850 -0.03200 0.50720
C6 C 0.60000 0.24300 0.51700
C7 C 0.65990 0.34000 0.53040
C8 C 0.67600 0.55200 0.57100
C9 C 0.73090 0.63800 0.58200
C10 C 0.76960 0.53000 0.55600
C11 C 0.75430 0.31700 0.51500
C12 C 0.69780 0.22600 0.50200
H1 H 0.39500 -0.09600 0.31600
H2 H 0.36500 -0.12400 0.17000
H3 H 0.39000 0.20000 0.09800
H4 H 0.44700 0.52200 0.17400
H5 H 0.47300 0.51500 0.32100
H6 H 0.65000 0.63000 0.60000
H7 H 0.74400 0.80000 0.61000
H8 H 0.80900 0.59800 0.56500
H9 H 0.78000 0.24000 0.48000
H10 H 0.68200 0.10000 0.46500
Ag1B Ag 0.53090 -0.21540 0.52300
Ag1B_2 Ag 0.53090 0.78460 0.52300
O1B O 0.43860 0.63400 0.46970
C6B C 0.40000 -0.24300 0.48300
O2B O 0.59150 0.03200 0.49280
Ag1_2 Ag 0.46910 -0.78460 0.47700
N1B N 0.56200 -0.20300 0.66920
O1_2 O 0.56140 -0.63400 0.53030
O1B_2 O 0.43860 -0.36600 0.46970
C7B C 0.34010 -0.34000 0.46960
C1B C 0.59350 -0.03400 0.71400
C5B C 0.54930 -0.38300 0.71100
C8B C 0.32400 -0.55200 0.42900
C12B C 0.30220 -0.22600 0.49800
C2B C 0.61220 -0.01700 0.79900
H1B H 0.60500 0.09600 0.68400
C4B C 0.56540 -0.39000 0.79700
H5B H 0.52700 -0.51500 0.67900
C9B C 0.26910 -0.63800 0.41800
H6B H 0.35000 -0.63000 0.40000
C11B C 0.24570 -0.31700 0.48500
H10B H 0.31800 -0.10000 0.53500
C3B C 0.59740 -0.20200 0.84000
H2B H 0.63500 0.12400 0.83000
H4B H 0.55300 -0.52200 0.82600
C10B C 0.23040 -0.53000 0.44400
H7B H 0.25600 -0.80000 0.39000
H9B H 0.22000 -0.24000 0.52000
H3B H 0.61000 -0.20000 0.90200
H8B H 0.19100 -0.59800 0.43500
Ag2 Ag 1.03070 0.21870 1.00320
N2 N 1.06190 0.21400 0.89020
C13 C 1.05010 0.02600 0.84000
C14 C 1.06610 0.02100 0.77000
C15 C 1.09500 0.20500 0.75100
C16 C 1.10700 0.39500 0.80300
C17 C 1.08960 0.39600 0.87200
O3 O 0.93670 0.36000 0.96990
O4 O 1.08850 -0.03100 1.09880
C18 C 0.89990 0.23000 0.91600
C19 C 0.83980 0.33000 0.87250
C20 C 0.82240 0.53800 0.89600
C21 C 0.76430 0.62300 0.85400
C22 C 0.72630 0.49000 0.79200
C23 C 0.74210 0.28300 0.76900
C24 C 0.79910 0.19200 0.80920
H11 H 1.03200 -0.12100 0.85500
H12 H 1.05500 -0.11600 0.73200
H13 H 1.10900 0.19900 0.70300
H14 H 1.12500 0.53500 0.78900
H15 H 1.09900 0.53500 0.90800
H16 H 0.85100 0.62800 0.94300
H17 H 0.75100 0.78200 0.87000
H18 H 0.68600 0.54900 0.76100
H19 H 0.71300 0.18800 0.72300
H20 H 0.81100 0.04000 0.79300
Ag2B Ag 0.96930 -0.21870 0.99680
Ag2B_2 Ag 0.96930 0.78130 0.99680
O3B O 1.06330 0.64000 1.03010
C18B C 1.10010 -0.23000 1.08400
O4B O 0.91150 0.03100 0.90120
Ag2_2 Ag 1.03070 -0.78130 1.00320
N2B N 0.93810 -0.21400 1.10980
O3_2 O 0.93670 -0.64000 0.96990
O3B_2 O 1.06330 -0.36000 1.03010
C19B C 1.16020 -0.33000 1.12750
C13B C 0.94990 -0.02600 1.16000
C17B C 0.91040 -0.39600 1.12800
C20B C 1.17760 -0.53800 1.10400
C24B C 1.20090 -0.19200 1.19080
C14B C 0.93390 -0.02100 1.23000
H11B H 0.96800 0.12100 1.14500
C16B C 0.89300 -0.39500 1.19700
H15B H 0.90100 -0.53500 1.09200
C21B C 1.23570 -0.62300 1.14600
H16B H 1.14900 -0.62800 1.05700
C23B C 1.25790 -0.28300 1.23100
H20B H 1.18900 -0.04000 1.20700
C15B C 0.90500 -0.20500 1.24900
H12B H 0.94500 0.11600 1.26800
H14B H 0.87500 -0.53500 1.21100
C22B C 1.27370 -0.49000 1.20800
H17B H 1.24900 -0.78200 1.13000
H19B H 1.28700 -0.18800 1.27700
H13B H 0.89100 -0.19900 1.29700
H18B H 1.31400 -0.54900 1.23900
loop_
_geom_bond_atom_site_label_1
_geom_bond_atom_site_label_2
_geom_bond_site_symmetry_1
_geom_bond_site_symmetry_2
Ag1 N1 1_555 1_555
N1 C1 1_555 1_555
C1 C2 1_555 1_555
C2 C3 1_555 1_555
C3 C4 1_555 1_555
C4 C5 1_555 1_555
C5 N1 1_555 1_555
O1 Ag1 1_555 1_555
O2 Ag1 1_555 1_555
C6 O1 1_555 1_555
C7 C6 1_555 1_555
C8 C7 1_555 1_555
C9 C8 1_555 1_555
C10 C9 1_555 1_555
C11 C10 1_555 1_555
C12 C7 1_555 1_555
H1 C1 1_555 1_555
H2 C2 1_555 1_555
H3 C3 1_555 1_555
H4 C4 1_555 1_555
H5 C5 1_555 1_555
H6 C8 1_555 1_555
H7 C9 1_555 1_555
H8 C10 1_555 1_555
H9 C11 1_555 1_555
H10 C12 1_555 1_555
Ag2 N2 1_555 1_555
N2 C13 1_555 1_555
C13 C14 1_555 1_555
C14 C15 1_555 1_555
C15 C16 1_555 1_555
C16 C17 1_555 1_555
C17 N2 1_555 1_555
O3 Ag2 1_555 1_555
O4 Ag2 1_555 1_555
C18 O3 1_555 1_555
C19 C18 1_555 1_555
C20 C19 1_555 1_555
C21 C20 1_555 1_555
C22 C21 1_555 1_555
C23 C22 1_555 1_555
C24 C19 1_555 1_555
H11 C13 1_555 1_555
H12 C14 1_555 1_555
H13 C15 1_555 1_555
H14 C16 1_555 1_555
H15 C17 1_555 1_555
H16 C20 1_555 1_555
H17 C21 1_555 1_555
H18 C22 1_555 1_555
H19 C23 1_555 1_555
H20 C24 1_555 1_555
Ag1B Ag1 1_555 1_555
Ag1B_2 O1 1_555 1_555
O1B Ag1 1_555 1_555
C6B O2 1_555 1_555
O2B C6 1_555 1_555
Ag1_2 O1_2 1_555 1_555
N1B Ag1B 1_555 1_555
O1_2 Ag1B 1_555 1_555
O1B_2 Ag1B 1_555 1_555
C7B C6B 1_555 1_555
C1B N1B 1_555 1_555
C5B N1B 1_555 1_555
C8B C7B 1_555 1_555
C12B C7B 1_555 1_555
C2B C1B 1_555 1_555
H1B C1B 1_555 1_555
C4B C5B 1_555 1_555
H5B C5B 1_555 1_555
C9B C8B 1_555 1_555
H6B C8B 1_555 1_555
C11B C12B 1_555 1_555
H10B C12B 1_555 1_555
C3B C2B 1_555 1_555
H2B C2B 1_555 1_555
H4B C4B 1_555 1_555
C10B C9B 1_555 1_555
H7B C9B 1_555 1_555
H9B C11B 1_555 1_555
H3B C3B 1_555 1_555
H8B C10B 1_555 1_555
Ag2B Ag2 1_555 1_555
Ag2B_2 O3 1_555 1_555
O3B Ag2 1_555 1_555
C18B O4 1_555 1_555
O4B C18 1_555 1_555
Ag2_2 O3_2 1_555 1_555
N2B Ag2B 1_555 1_555
O3_2 Ag2B 1_555 1_555
O3B_2 Ag2B 1_555 1_555
C19B C18B 1_555 1_555
C13B N2B 1_555 1_555
C17B N2B 1_555 1_555
C20B C19B 1_555 1_555
C24B C19B 1_555 1_555
C14B C13B 1_555 1_555
H11B C13B 1_555 1_555
C16B C17B 1_555 1_555
H15B C17B 1_555 1_555
C21B C20B 1_555 1_555
H16B C20B 1_555 1_555
C23B C24B 1_555 1_555
H20B C24B 1_555 1_555
C15B C14B 1_555 1_555
H12B C14B 1_555 1_555
H14B C16B 1_555 1_555
C22B C21B 1_555 1_555
H17B C21B 1_555 1_555
H19B C23B 1_555 1_555
H13B C15B 1_555 1_555
H18B C22B 1_555 1_555
C11 C12 1_555 1_555
C23 C24 1_555 1_555
Ag1B O2B 1_555 1_555
Ag1B_2 O1B 1_555 1_555
C6B O1B_2 1_555 1_555
Ag1_2 O1B_2 1_555 1_555
C4B C3B 1_555 1_555
C11B C10B 1_555 1_555
Ag2B O4B 1_555 1_555
Ag2B_2 O3B 1_555 1_555
C18B O3B_2 1_555 1_555
Ag2_2 O3B_2 1_555 1_555
C16B C15B 1_555 1_555
C23B C22B 1_555 1_555

#END
