
#######################################################################
#
#                 Cambridge Crystallographic Data Centre
#                                CCDC 
#
#######################################################################
#
# If this CIF has been generated from an entry in the Cambridge 
# Structural Database, then it will include bibliographic, chemical, 
# crystal, experimental, refinement or atomic coordinate data resulting 
# from the CCDC's data processing and validation procedures.
#
#######################################################################

data_BUHDAL
_symmetry_cell_setting           monoclinic
_symmetry_space_group_name_H-M   'P 21/c'
_symmetry_Int_Tables_number      14
_space_group_name_Hall           '-P 2ybc'
loop_
_symmetry_equiv_pos_site_id
_symmetry_equiv_pos_as_xyz
1 x,y,z
2 -x,1/2+y,1/2-z
3 -x,-y,-z
4 x,1/2-y,1/2+z
_cell_length_a                   11.0648(4)
_cell_length_b                   9.6507(4)
_cell_length_c                   10.4244(4)
_cell_angle_alpha                90
_cell_angle_beta                 101.145(2)
_cell_angle_gamma                90
_cell_volume                     1092.16
loop_
_atom_site_label
_atom_site_type_symbol
_atom_site_fract_x
_atom_site_fract_y
_atom_site_fract_z
C1 C 0.20798(15) 0.81030(18) 0.72713(16)
C2 C 0.2802(2) 0.61804(18) 0.8418(2)
H1 H 0.3419 0.5709 0.8984
C3 C 0.23477(14) 0.95588(17) 0.69108(15)
C4 C 0.0821(2) 0.6258(2) 0.7137(3)
H2 H 0.0075 0.5827 0.6803
C5 C 0.1701(2) 0.5527(2) 0.7961(2)
H3 H 0.1561 0.4623 0.8204
N1 N 0.57942(14) 0.81124(16) 0.72890(13)
N2 N 0.61446(12) 1.03115(14) 0.96223(13)
N3 N 0.30058(13) 0.74767(13) 0.80682(13)
N4 N 0.56334(12) 0.80325(13) 0.61495(12)
N5 N 0.55175(15) 0.79641(16) 0.50129(13)
N6 N 0.09871(16) 0.7571(2) 0.67877(18)
N7 N 0.72092(13) 1.00330(17) 0.99004(14)
N8 N 0.82357(16) 0.9773(3) 1.0187(2)
O1 O 0.13685(11) 1.01684(14) 0.61895(14)
C6 C 0.1480(2) 1.1610(2) 0.5875(3)
H4 H 0.0718 1.1928 0.5355
H5 H 0.2130 1.1721 0.5393
H6 H 0.1665 1.2141 0.6667
N9 N 0.34214(13) 1.00316(15) 0.72971(13)
Mn1 Mn 0.473767(19) 0.88014(2) 0.874733(19)
H7 H 0.353(2) 1.086(2) 0.707(2)
N2B N 0.38554(12) 0.96885(14) 1.03777(13)
N5C N 0.55175(15) 0.70359(16) 1.00129(13)
Mn1B Mn 0.526233(19) 1.11986(2) 1.125267(19)
Mn1C Mn 0.473767(19) 0.61986(2) 0.374733(19)
loop_
_geom_bond_atom_site_label_1
_geom_bond_atom_site_label_2
_geom_bond_site_symmetry_1
_geom_bond_site_symmetry_2
C1 C3 1_555 1_555
C2 H1 1_555 1_555
C3 O1 1_555 1_555
C4 H2 1_555 1_555
C5 C2 1_555 1_555
H3 C5 1_555 1_555
N1 N4 1_555 1_555
N2 N7 1_555 1_555
N3 C1 1_555 1_555
N4 N5 1_555 1_555
N5 Mn1C 1_555 1_555
N6 C1 1_555 1_555
N7 N8 1_555 1_555
O1 C6 1_555 1_555
C6 H4 1_555 1_555
H5 C6 1_555 1_555
H6 C6 1_555 1_555
N9 C3 1_555 1_555
Mn1 N1 1_555 1_555
H7 N9 1_555 1_555
N2B Mn1 1_555 1_555
N5C Mn1 1_555 1_555
Mn1B N2 1_555 1_555
C2 N3 1_555 1_555
C4 C5 1_555 1_555
C4 N6 1_555 1_555
N2 Mn1 1_555 1_555
N3 Mn1 1_555 1_555
N9 Mn1 1_555 1_555
N2B Mn1B 1_555 1_555

#END
