
#######################################################################
#
#                 Cambridge Crystallographic Data Centre
#                                CCDC 
#
#######################################################################
#
# If this CIF has been generated from an entry in the Cambridge 
# Structural Database, then it will include bibliographic, chemical, 
# crystal, experimental, refinement or atomic coordinate data resulting 
# from the CCDC's data processing and validation procedures.
#
#######################################################################

data_BUHFER
_symmetry_cell_setting           monoclinic
_symmetry_space_group_name_H-M   'P 21/n'
_symmetry_Int_Tables_number      14
_space_group_name_Hall           '-P 2yn'
loop_
_symmetry_equiv_pos_site_id
_symmetry_equiv_pos_as_xyz
1 x,y,z
2 1/2-x,1/2+y,1/2-z
3 -x,-y,-z
4 1/2+x,1/2-y,1/2+z
_cell_length_a                   9.8734(17)
_cell_length_b                   12.857(2)
_cell_length_c                   12.533(2)
_cell_angle_alpha                90
_cell_angle_beta                 94.423(3)
_cell_angle_gamma                90
_cell_volume                     1586.23
loop_
_atom_site_label
_atom_site_type_symbol
_atom_site_fract_x
_atom_site_fract_y
_atom_site_fract_z
Cu1 Cu -0.17832(7) 0.46805(6) 0.74813(6)
Cu2 Cu -0.46610(7) 0.36864(7) 0.84188(7)
Cu3 Cu 0.01140(8) 0.80648(7) 0.87776(7)
I1 I -0.43606(4) 0.48856(3) 0.66942(3)
I2 I -0.09725(4) 0.66507(3) 0.74904(3)
N1 N -0.1747(4) 0.3925(4) 0.8882(4)
N2 N -0.2921(5) 0.3605(4) 0.9298(4)
N3 N -0.1231(5) 0.2668(4) 1.0078(4)
N4 N -0.5509(5) 0.1104(4) 1.1564(4)
N5 N 0.3401(5) 0.3585(4) 0.8704(4)
C1 C -0.2565(6) 0.2866(5) 1.0002(5)
C2 C -0.0761(6) 0.3345(5) 0.9380(5)
C3 C -0.3573(5) 0.2268(5) 1.0573(5)
C4 C -0.3446(6) 0.1199(5) 1.0681(6)
H1 H -0.2697 0.0846 1.0414
C5 C -0.4416(6) 0.0655(5) 1.1180(5)
H2 H -0.4309 -0.0076 1.1258
C6 C -0.5632(6) 0.2127(5) 1.1456(5)
H3 H -0.6401 0.2456 1.1719
C7 C -0.4686(6) 0.2744(5) 1.0977(5)
H4 H -0.4802 0.3477 1.0928
C8 C 0.0688(6) 0.3444(5) 0.9168(5)
C9 C 0.1256(6) 0.4394(5) 0.8916(5)
H5 H 0.0724 0.5010 0.8891
C10 C 0.2603(6) 0.4424(5) 0.8701(6)
H6 H 0.2986 0.5079 0.8543
C11 C 0.2840(6) 0.2668(5) 0.8937(6)
H7 H 0.3387 0.2061 0.8935
C12 C 0.1515(6) 0.2569(5) 0.9178(5)
H8 H 0.1164 0.1907 0.9350
Cu1C Cu -0.67832(7) 0.03195(6) 1.24813(6)
Cu2_2 Cu 0.53390(7) 0.36864(7) 0.84188(7)
Cu2A Cu -0.03390(7) 0.86864(7) 0.65812(7)
Cu3A Cu -0.51140(8) 0.30648(7) 0.62224(7)
Cu3B Cu -0.01140(8) 0.19352(7) 1.12224(7)
I1A I -0.06394(4) 0.98856(3) 0.83058(3)
I2A I -0.40275(4) 0.16507(3) 0.75096(3)
N3B N 0.1231(5) 0.7332(4) 0.9922(4)
N4C N -0.0509(5) 0.3896(4) 0.6564(4)
N5_2 N -0.6599(5) 0.3585(4) 0.8704(4)
loop_
_geom_bond_atom_site_label_1
_geom_bond_atom_site_label_2
_geom_bond_site_symmetry_1
_geom_bond_site_symmetry_2
Cu1 I1 1_555 1_555
Cu2 I1 1_555 1_555
Cu3 I2 1_555 1_555
I1 Cu3A 1_555 1_555
I2 Cu1 1_555 1_555
N1 Cu1 1_555 1_555
N2 Cu2 1_555 1_555
N3 C1 1_555 1_555
N4 C5 1_555 1_555
N5 C10 1_555 1_555
C1 N2 1_555 1_555
C2 N1 1_555 1_555
C3 C1 1_555 1_555
C4 C3 1_555 1_555
H1 C4 1_555 1_555
C5 C4 1_555 1_555
H2 C5 1_555 1_555
C6 N4 1_555 1_555
H3 C6 1_555 1_555
C7 C3 1_555 1_555
H4 C7 1_555 1_555
C8 C2 1_555 1_555
C9 C8 1_555 1_555
H5 C9 1_555 1_555
C10 C9 1_555 1_555
H6 C10 1_555 1_555
C11 N5 1_555 1_555
H7 C11 1_555 1_555
C12 C8 1_555 1_555
H8 C12 1_555 1_555
Cu1C N4 1_555 1_555
Cu2_2 N5 1_555 1_555
Cu2A I2 1_555 1_555
Cu3A I2A 1_555 1_555
Cu3B N3 1_555 1_555
I1A Cu3 1_555 1_555
I2A Cu2 1_555 1_555
N3B Cu3 1_555 1_555
N4C Cu1 1_555 1_555
N5_2 Cu2 1_555 1_555
N1 N2 1_555 1_555
N3 C2 1_555 1_555
C6 C7 1_555 1_555
C11 C12 1_555 1_555
Cu2A I1A 1_555 1_555

#END
