
#######################################################################
#
#                 Cambridge Crystallographic Data Centre
#                                CCDC 
#
#######################################################################
#
# If this CIF has been generated from an entry in the Cambridge 
# Structural Database, then it will include bibliographic, chemical, 
# crystal, experimental, refinement or atomic coordinate data resulting 
# from the CCDC's data processing and validation procedures.
#
#######################################################################

data_BUHJUL
_symmetry_cell_setting           monoclinic
_symmetry_space_group_name_H-M   'C 2/c'
_symmetry_Int_Tables_number      15
_space_group_name_Hall           '-C 2yn'
loop_
_symmetry_equiv_pos_site_id
_symmetry_equiv_pos_as_xyz
1 x,y,z
2 -x,y,1/2-z
3 1/2+x,1/2+y,z
4 1/2-x,1/2+y,1/2-z
5 -x,-y,-z
6 x,-y,1/2+z
7 1/2-x,1/2-y,-z
8 1/2+x,1/2-y,1/2+z
_cell_length_a                   20.5759(7)
_cell_length_b                   11.5504(3)
_cell_length_c                   18.0704(6)
_cell_angle_alpha                90
_cell_angle_beta                 108.859(4)
_cell_angle_gamma                90
_cell_volume                     4064.06
loop_
_atom_site_label
_atom_site_type_symbol
_atom_site_fract_x
_atom_site_fract_y
_atom_site_fract_z
N1 N 0.13490(12) 0.9774(2) -0.07106(13)
N2 N 0.39491(11) 0.99467(19) -0.00439(13)
C1 C 0.47474(14) 1.2555(2) -0.03824(16)
C2 C 0.48744(13) 1.3821(2) -0.01727(15)
C3 C 0.53487(14) 1.4168(2) 0.05322(16)
H1 H 0.5586 1.3612 0.0890
C4 C 0.02786(14) 0.9765(2) -0.21482(15)
C5 C 0.05530(15) 1.0829(3) -0.18074(16)
C6 C 0.02810(16) 1.1855(3) -0.21542(17)
H2 H 0.0470 1.2553 -0.1929
C7 C 0.05391(14) 0.8700(3) -0.17915(16)
C8 C 0.11329(15) 1.0838(3) -0.10580(17)
C9 C 0.10916(15) 0.8694(3) -0.10297(17)
C10 C 0.35102(15) 0.9119(3) -0.04033(17)
H3 H 0.3662 0.8557 -0.0677
C11 C 0.02680(15) 0.7680(3) -0.21436(17)
H4 H 0.0442 0.6980 -0.1907
C12 C 0.28475(15) 0.9046(3) -0.03944(18)
H5 H 0.2564 0.8447 -0.0657
C13 C 0.18861(14) 0.9792(3) 0.00582(16)
H6 H 0.1849 0.9097 0.0343
H7 H 0.1811 1.0452 0.0353
C14 C 0.37071(16) 1.0743(3) 0.03289(19)
H8 H 0.4000 1.1337 0.0583
C15 C 0.30447(16) 1.0738(3) 0.03611(19)
H9 H 0.2899 1.1325 0.0623
C16 C 0.26028(14) 0.9864(3) 0.00050(15)
C17 C 0.5734(2) 1.0494(3) 0.18427(19)
H10 H 0.5758 1.0179 0.2343
H11 H 0.5560 1.1271 0.1801
H12 H 0.6184 1.0499 0.1792
O1 O 0.50351(9) 1.18163(15) 0.01398(10)
O2 O 0.43706(11) 1.23126(16) -0.10618(11)
O3 O 0.52886(11) 0.98040(18) 0.12410(12)
O4 O 0.14085(11) 1.17256(19) -0.07565(13)
O5 O 0.13204(11) 0.7810(2) -0.06855(12)
Co1 Co 0.5000 1.0000 0.0000
C18 C 0.54726(14) 1.5329(2) 0.07091(16)
H13 H 0.5788 1.5546 0.1186
H14 H 0.542(2) 0.918(3) 0.128(2)
N1A N -0.13490(12) 0.9774(2) -0.42894(13)
N2A N -0.39491(11) 0.99467(19) -0.49561(13)
C4A C -0.02786(14) 0.9765(2) -0.28518(15)
C5A C -0.05530(15) 1.0829(3) -0.31926(16)
C6A C -0.02810(16) 1.1855(3) -0.28458(17)
H2A H -0.0470 1.2553 -0.3071
C7A C -0.05391(14) 0.8700(3) -0.32085(16)
C8A C -0.11329(15) 1.0838(3) -0.39420(17)
C9A C -0.10916(15) 0.8694(3) -0.39703(17)
C10A C -0.35102(15) 0.9119(3) -0.45967(17)
H3A H -0.3662 0.8557 -0.4323
C11A C -0.02680(15) 0.7680(3) -0.28564(17)
H4A H -0.0442 0.6980 -0.3093
C12A C -0.28475(15) 0.9046(3) -0.46056(18)
H5A H -0.2564 0.8447 -0.4343
C13A C -0.18861(14) 0.9792(3) -0.50582(16)
H6A H -0.1849 0.9097 -0.5343
H7A H -0.1811 1.0452 -0.5353
C14A C -0.37071(16) 1.0743(3) -0.53289(19)
H8A H -0.4000 1.1337 -0.5583
C15A C -0.30447(16) 1.0738(3) -0.53611(19)
H9A H -0.2899 1.1325 -0.5623
C16A C -0.26028(14) 0.9864(3) -0.50050(15)
O4A O -0.14085(11) 1.17256(19) -0.42435(13)
O5A O -0.13204(11) 0.7810(2) -0.43145(12)
C1D C 0.52526(14) 1.7445(2) 0.03824(16)
C2D C 0.51256(13) 1.6179(2) 0.01727(15)
C3D C 0.46513(14) 1.5832(2) -0.05322(16)
H1D H 0.4414 1.6388 -0.0890
O1D O 0.49649(9) 1.81837(15) -0.01398(10)
O2D O 0.56294(11) 1.76874(16) 0.10618(11)
C18D C 0.45274(14) 1.4671(2) -0.07091(16)
H13D H 0.4212 1.4454 -0.1186
C17D C 0.4266(2) 0.9506(3) -0.18427(19)
H10D H 0.4242 0.9821 -0.2343
H11D H 0.4440 0.8729 -0.1801
H12D H 0.3816 0.9501 -0.1792
O3D O 0.47114(11) 1.01960(18) -0.12410(12)
H14D H 0.458(2) 1.082(3) -0.128(2)
N2D N 0.60509(11) 1.00533(19) 0.00439(13)
O1D_2 O 0.49649(9) 0.81837(15) -0.01398(10)
Co1_2 Co 0.5000 2.0000 0.0000
Co1A Co -0.5000 1.0000 -0.5000
C19 C 0.2073(2) 0.7512(3) -0.2758(2)
H15 H 0.1629 0.7401 -0.3167
Cl1 Cl 0.20701(6) 0.66886(8) -0.19545(5)
Cl2 Cl 0.21586(6) 0.89902(8) -0.25310(6)
Cl3 Cl 0.27014(11) 0.70660(13) -0.31274(11)
loop_
_geom_bond_atom_site_label_1
_geom_bond_atom_site_label_2
_geom_bond_site_symmetry_1
_geom_bond_site_symmetry_2
N1 C8 1_555 1_555
N2 C10 1_555 1_555
C1 C2 1_555 1_555
C2 C3 1_555 1_555
C3 H1 1_555 1_555
C4 C5 1_555 1_555
C5 C6 1_555 1_555
C6 H2 1_555 1_555
C7 C4 1_555 1_555
C8 C5 1_555 1_555
C9 N1 1_555 1_555
C10 H3 1_555 1_555
C11 C7 1_555 1_555
H4 C11 1_555 1_555
C12 C10 1_555 1_555
H5 C12 1_555 1_555
C13 N1 1_555 1_555
H6 C13 1_555 1_555
H7 C13 1_555 1_555
C14 N2 1_555 1_555
H8 C14 1_555 1_555
C15 C14 1_555 1_555
H9 C15 1_555 1_555
C16 C12 1_555 1_555
C17 H10 1_555 1_555
H11 C17 1_555 1_555
H12 C17 1_555 1_555
O1 C1 1_555 1_555
O2 C1 1_555 1_555
O3 C17 1_555 1_555
O4 C8 1_555 1_555
O5 C9 1_555 1_555
Co1 N2 1_555 1_555
C18 C3 1_555 1_555
H13 C18 1_555 1_555
H14 O3 1_555 1_555
C19 H15 1_555 1_555
Cl1 C19 1_555 1_555
Cl2 C19 1_555 1_555
Cl3 C19 1_555 1_555
N1A C8A 1_555 1_555
N2A C10A 1_555 1_555
C4A C4 1_555 1_555
C5A C4A 1_555 1_555
C6A C6 1_555 1_555
H2A C6A 1_555 1_555
C7A C4A 1_555 1_555
C8A C5A 1_555 1_555
C9A N1A 1_555 1_555
C10A H3A 1_555 1_555
C11A C11 1_555 1_555
H4A C11A 1_555 1_555
C12A C10A 1_555 1_555
H5A C12A 1_555 1_555
C13A N1A 1_555 1_555
H6A C13A 1_555 1_555
H7A C13A 1_555 1_555
C14A N2A 1_555 1_555
H8A C14A 1_555 1_555
C15A C14A 1_555 1_555
H9A C15A 1_555 1_555
C16A C12A 1_555 1_555
O4A C8A 1_555 1_555
O5A C9A 1_555 1_555
C1D C2D 1_555 1_555
C2D C18 1_555 1_555
C3D C2D 1_555 1_555
H1D C3D 1_555 1_555
O1D C1D 1_555 1_555
O2D C1D 1_555 1_555
C18D C2 1_555 1_555
H13D C18D 1_555 1_555
C17D H10D 1_555 1_555
H11D C17D 1_555 1_555
H12D C17D 1_555 1_555
O3D Co1 1_555 1_555
H14D O3D 1_555 1_555
N2D Co1 1_555 1_555
O1D_2 Co1 1_555 1_555
Co1_2 O1D 1_555 1_555
Co1A N2A 1_555 1_555
C7 C9 1_555 1_555
C13 C16 1_555 1_555
C15 C16 1_555 1_555
O1 Co1 1_555 1_555
O3 Co1 1_555 1_555
C5A C6A 1_555 1_555
C7A C9A 1_555 1_555
C7A C11A 1_555 1_555
C13A C16A 1_555 1_555
C15A C16A 1_555 1_555
C3D C18D 1_555 1_555
C17D O3D 1_555 1_555

#END
