
#######################################################################
#
#                 Cambridge Crystallographic Data Centre
#                                CCDC 
#
#######################################################################
#
# If this CIF has been generated from an entry in the Cambridge 
# Structural Database, then it will include bibliographic, chemical, 
# crystal, experimental, refinement or atomic coordinate data resulting 
# from the CCDC's data processing and validation procedures.
#
#######################################################################

data_BUHNUN04
_symmetry_cell_setting           orthorhombic
_symmetry_space_group_name_H-M   'P b c a'
_symmetry_Int_Tables_number      61
_space_group_name_Hall           '-P 2ac 2ab'
loop_
_symmetry_equiv_pos_site_id
_symmetry_equiv_pos_as_xyz
1 x,y,z
2 1/2-x,-y,1/2+z
3 -x,1/2+y,1/2-z
4 1/2+x,1/2-y,-z
5 -x,-y,-z
6 1/2+x,y,1/2-z
7 x,1/2-y,1/2+z
8 1/2-x,1/2+y,z
_cell_length_a                   14.2122(8)
_cell_length_b                   8.2813(5)
_cell_length_c                   14.6877(8)
_cell_angle_alpha                90
_cell_angle_beta                 90
_cell_angle_gamma                90
_cell_volume                     1728.68
loop_
_atom_site_label
_atom_site_type_symbol
_atom_site_fract_x
_atom_site_fract_y
_atom_site_fract_z
C1 C 0.06047(11) 0.45421(18) 0.16267(10)
C2 C 0.11746(11) 0.45695(18) 0.07539(10)
H1 H 0.1778 0.5074 0.0875
H2 H 0.0848 0.5228 0.0308
C3 C 0.13424(10) 0.29022(18) 0.03522(10)
H3 H 0.1601 0.2191 0.0823
C4 C 0.20321(11) 0.29974(19) -0.04430(11)
O1 O 0.06325(10) 0.33050(13) 0.21106(8)
O2 O 0.01587(11) 0.57800(17) 0.18490(9)
O3 O 0.04783(8) 0.22385(15) 0.00222(8)
H4 H 0.0190(13) 0.175(2) 0.0405(10)
O4 O 0.28446(8) 0.34619(19) -0.02739(8)
O5 O 0.17419(8) 0.26374(15) -0.12284(7)
O6 O -0.11097(9) 0.3935(2) 0.37487(9)
H5 H -0.1451(16) 0.413(3) 0.3294(13)
H6 H -0.1433(16) 0.363(3) 0.4188(13)
O7 O 0.06627(8) 0.57423(14) 0.37264(8)
H7 H 0.0548(14) 0.626(3) 0.3261(12)
H8 H 0.1219(11) 0.603(3) 0.3898(13)
Mn1 Mn 0.029994(16) 0.31190(3) 0.352886(15)
O2B O -0.01587(11) 0.07800(17) 0.31510(9)
O3F O 0.04783(8) 0.27615(15) 0.50222(8)
O5F O 0.17419(8) 0.23626(15) 0.37716(7)
Mn1B Mn -0.029994(16) 0.81190(3) 0.147114(15)
Mn1F Mn 0.029994(16) 0.18810(3) -0.147114(15)
O8 O 0.2713(5) 0.4759(9) 0.2582(3)
H9 H 0.294(3) 0.544(4) 0.298(2)
H10 H 0.252(4) 0.392(5) 0.290(4)
O9? O 0.309(2) 0.418(3) 0.2820(13)
H11? H 0.339(8) 0.352(13) 0.319(7)
H12? H 0.248(3) 0.414(18) 0.294(13)
loop_
_geom_bond_atom_site_label_1
_geom_bond_atom_site_label_2
_geom_bond_site_symmetry_1
_geom_bond_site_symmetry_2
C1 C2 1_555 1_555
C2 H1 1_555 1_555
H2 C2 1_555 1_555
C3 C2 1_555 1_555
H3 C3 1_555 1_555
C4 C3 1_555 1_555
O1 C1 1_555 1_555
O2 C1 1_555 1_555
O3 C3 1_555 1_555
H4 O3 1_555 1_555
O4 C4 1_555 1_555
O5 C4 1_555 1_555
O6 H5 1_555 1_555
H6 O6 1_555 1_555
O7 H7 1_555 1_555
H8 O7 1_555 1_555
Mn1 O1 1_555 1_555
O8 H9 1_555 1_555
H10 O8 1_555 1_555
O2B Mn1 1_555 1_555
O3F Mn1 1_555 1_555
O5F Mn1 1_555 1_555
Mn1B O2 1_555 1_555
Mn1F O3 1_555 1_555
O5 Mn1F 1_555 1_555
O6 Mn1 1_555 1_555
O7 Mn1 1_555 1_555

#END
