
#######################################################################
#
#                 Cambridge Crystallographic Data Centre
#                                CCDC 
#
#######################################################################
#
# If this CIF has been generated from an entry in the Cambridge 
# Structural Database, then it will include bibliographic, chemical, 
# crystal, experimental, refinement or atomic coordinate data resulting 
# from the CCDC's data processing and validation procedures.
#
#######################################################################

data_BUHNUN02
_symmetry_cell_setting           orthorhombic
_symmetry_space_group_name_H-M   'P b c a'
_symmetry_Int_Tables_number      61
_space_group_name_Hall           '-P 2ac 2ab'
loop_
_symmetry_equiv_pos_site_id
_symmetry_equiv_pos_as_xyz
1 x,y,z
2 1/2-x,-y,1/2+z
3 1/2+x,1/2-y,-z
4 -x,1/2+y,1/2-z
5 -x,-y,-z
6 1/2+x,y,1/2-z
7 1/2-x,1/2+y,z
8 x,1/2-y,1/2+z
_cell_length_a                   14.175(5)
_cell_length_b                   8.269(3)
_cell_length_c                   14.675(5)
_cell_angle_alpha                90
_cell_angle_beta                 90
_cell_angle_gamma                90
_cell_volume                     1720.1
loop_
_atom_site_label
_atom_site_type_symbol
_atom_site_fract_x
_atom_site_fract_y
_atom_site_fract_z
Mn1 Mn 0.47010(3) 0.18793(6) 0.35286(3)
C1 C 0.5608(2) 0.5451(4) 0.3372(2)
C2 C 0.6176(2) 0.5434(4) 0.4243(2)
C3 C 0.6343(2) 0.7092(4) 0.4650(2)
C4 C 0.7031(2) 0.7006(4) 0.5443(2)
O1 O 0.5160(2) 0.4219(4) 0.3152(2)
O2 O 0.5633(2) 0.6698(3) 0.28874(17)
O3 O 0.54775(17) 0.7760(3) 0.49771(17)
O4 O 0.78439(17) 0.6529(4) 0.52760(17)
O5 O 0.67396(17) 0.7361(3) 0.62289(16)
O6 O 0.61097(18) 0.1065(4) 0.3748(2)
O7 O 0.43367(18) -0.0746(3) 0.37264(17)
Mn1C Mn 0.52990(3) 0.68793(6) 0.14714(3)
Mn1D Mn 0.52990(3) 0.81207(6) 0.64714(3)
O2C O 0.4367(2) 0.1698(3) 0.21126(17)
O3D O 0.45225(17) 0.2240(3) 0.50229(17)
O5D O 0.32604(17) 0.2639(3) 0.37711(16)
O8 O 0.7235(3) 0.0330(6) 0.2383(3)
loop_
_geom_bond_atom_site_label_1
_geom_bond_atom_site_label_2
_geom_bond_site_symmetry_1
_geom_bond_site_symmetry_2
Mn1 O1 1_555 1_555
C1 C2 1_555 1_555
C2 C3 1_555 1_555
C3 C4 1_555 1_555
C4 O4 1_555 1_555
O1 C1 1_555 1_555
O2 C1 1_555 1_555
O3 C3 1_555 1_555
O5 C4 1_555 1_555
O6 Mn1 1_555 1_555
O7 Mn1 1_555 1_555
Mn1C O2 1_555 1_555
Mn1D O3 1_555 1_555
O2C Mn1 1_555 1_555
O3D Mn1 1_555 1_555
O5D Mn1 1_555 1_555
O5 Mn1D 1_555 1_555

#END
