
#######################################################################
#
#                 Cambridge Crystallographic Data Centre
#                                CCDC 
#
#######################################################################
#
# If this CIF has been generated from an entry in the Cambridge 
# Structural Database, then it will include bibliographic, chemical, 
# crystal, experimental, refinement or atomic coordinate data resulting 
# from the CCDC's data processing and validation procedures.
#
#######################################################################

data_BUHSEE
_symmetry_cell_setting           monoclinic
_symmetry_space_group_name_H-M   'P 21/n'
_symmetry_Int_Tables_number      14
_space_group_name_Hall           '-P 2yn'
loop_
_symmetry_equiv_pos_site_id
_symmetry_equiv_pos_as_xyz
1 x,y,z
2 1/2-x,1/2+y,1/2-z
3 -x,-y,-z
4 1/2+x,1/2-y,1/2+z
_cell_length_a                   7.7538(2)
_cell_length_b                   13.6404(4)
_cell_length_c                   8.2758(3)
_cell_angle_alpha                90
_cell_angle_beta                 98.581(3)
_cell_angle_gamma                90
_cell_volume                     865.491
loop_
_atom_site_label
_atom_site_type_symbol
_atom_site_fract_x
_atom_site_fract_y
_atom_site_fract_z
Fe1 Fe 0.0000 0.5000 1.0000
N1 N -0.1311(3) 0.48479(14) 0.7628(2)
C1 C -0.2664(3) 0.51629(18) 0.6586(3)
H1 H -0.3439 0.5666 0.6816
C2 C -0.2803(3) 0.4651(2) 0.5087(3)
H2 H -0.3659 0.4745 0.4153
C3 C -0.1447(3) 0.39905(17) 0.5253(3)
H3 H -0.1186 0.3537 0.4453
C4 C -0.0523(3) 0.41160(16) 0.6836(2)
C5 C 0.1063(3) 0.37255(15) 0.7628(2)
O1 O 0.17765(19) 0.40325(11) 0.90028(18)
C6 C 0.1943(3) 0.29084(16) 0.6877(2)
C7 C 0.3747(3) 0.29216(16) 0.6914(2)
H4 H 0.4416 0.3470 0.7349
C8 C 0.4550(3) 0.21206(17) 0.6304(3)
H5 H 0.5774 0.2141 0.6303
N2 N 0.3665(2) 0.13182(14) 0.5714(2)
C9 C 0.1936(3) 0.13157(17) 0.5667(3)
H6 H 0.1301 0.0755 0.5236
C10 C 0.1023(3) 0.20889(16) 0.6216(3)
H7 H -0.0210 0.2061 0.6143
N1B N 0.1311(3) 0.51521(14) 1.2372(2)
C1B C 0.2664(3) 0.48371(18) 1.3414(3)
H1B H 0.3439 0.4334 1.3184
C2B C 0.2803(3) 0.5349(2) 1.4913(3)
H2B H 0.3659 0.5255 1.5847
C3B C 0.1447(3) 0.60095(17) 1.4747(3)
H3B H 0.1186 0.6463 1.5547
C4B C 0.0523(3) 0.58840(16) 1.3164(2)
C5B C -0.1063(3) 0.62745(15) 1.2372(2)
O1B O -0.17765(19) 0.59675(11) 1.09972(18)
C6B C -0.1943(3) 0.70916(16) 1.3123(2)
C7B C -0.3747(3) 0.70784(16) 1.3086(2)
H4B H -0.4416 0.6530 1.2651
C8B C -0.4550(3) 0.78794(17) 1.3696(3)
H5B H -0.5774 0.7859 1.3697
N2B N -0.3665(2) 0.86818(14) 1.4286(2)
C9B C -0.1936(3) 0.86843(17) 1.4333(3)
H6B H -0.1301 0.9245 1.4764
C10B C -0.1023(3) 0.79111(16) 1.3784(3)
H7B H 0.0210 0.7939 1.3857
Fe1A Fe -0.5000 1.0000 1.5000
Fe1A_2 Fe 0.5000 0.0000 0.5000
N2A N 0.1335(2) 0.63182(14) 0.9286(2)
N2C N -0.1335(2) 0.36818(14) 1.0714(2)
loop_
_geom_bond_atom_site_label_1
_geom_bond_atom_site_label_2
_geom_bond_site_symmetry_1
_geom_bond_site_symmetry_2
Fe1 N1 1_555 1_555
N1 C1 1_555 1_555
C1 H1 1_555 1_555
C2 C1 1_555 1_555
H2 C2 1_555 1_555
C3 C2 1_555 1_555
H3 C3 1_555 1_555
C4 N1 1_555 1_555
C5 C4 1_555 1_555
O1 Fe1 1_555 1_555
C6 C5 1_555 1_555
C7 C6 1_555 1_555
H4 C7 1_555 1_555
C8 C7 1_555 1_555
H5 C8 1_555 1_555
N2 C8 1_555 1_555
C9 N2 1_555 1_555
H6 C9 1_555 1_555
C10 C6 1_555 1_555
H7 C10 1_555 1_555
N1B Fe1 1_555 1_555
C1B N1B 1_555 1_555
H1B C1B 1_555 1_555
C2B C1B 1_555 1_555
H2B C2B 1_555 1_555
C3B C2B 1_555 1_555
H3B C3B 1_555 1_555
C4B N1B 1_555 1_555
C5B C4B 1_555 1_555
O1B Fe1 1_555 1_555
C6B C5B 1_555 1_555
C7B C6B 1_555 1_555
H4B C7B 1_555 1_555
C8B C7B 1_555 1_555
H5B C8B 1_555 1_555
N2B C8B 1_555 1_555
C9B N2B 1_555 1_555
H6B C9B 1_555 1_555
C10B C6B 1_555 1_555
H7B C10B 1_555 1_555
Fe1A N2B 1_555 1_555
Fe1A_2 N2 1_555 1_555
N2A Fe1 1_555 1_555
N2C Fe1 1_555 1_555
C3 C4 1_555 1_555
C5 O1 1_555 1_555
C9 C10 1_555 1_555
C3B C4B 1_555 1_555
C5B O1B 1_555 1_555
C9B C10B 1_555 1_555

#END
