
#######################################################################
#
#                 Cambridge Crystallographic Data Centre
#                                CCDC 
#
#######################################################################
#
# If this CIF has been generated from an entry in the Cambridge 
# Structural Database, then it will include bibliographic, chemical, 
# crystal, experimental, refinement or atomic coordinate data resulting 
# from the CCDC's data processing and validation procedures.
#
#######################################################################

data_BUHZUA
_symmetry_cell_setting           monoclinic
_symmetry_space_group_name_H-M   'P 21/c'
_symmetry_Int_Tables_number      14
_space_group_name_Hall           '-P 2ybc'
loop_
_symmetry_equiv_pos_site_id
_symmetry_equiv_pos_as_xyz
1 x,y,z
2 -x,1/2+y,1/2-z
3 -x,-y,-z
4 x,1/2-y,1/2+z
_cell_length_a                   6.5243(5)
_cell_length_b                   14.1293(9)
_cell_length_c                   7.3240(5)
_cell_angle_alpha                90
_cell_angle_beta                 94.3373(11)
_cell_angle_gamma                90
_cell_volume                     673.221
loop_
_atom_site_label
_atom_site_type_symbol
_atom_site_fract_x
_atom_site_fract_y
_atom_site_fract_z
Ni1 Ni 0.5000 0.0000 0.5000
N1 N 0.3728(2) 0.13408(10) 0.49269(19)
N2 N 0.1565(3) 0.25201(13) 0.5096(2)
N3 N 0.7145(2) 0.04374(11) 0.7149(2)
N4 N 0.8438(2) 0.09892(13) 1.02177(19)
N5 N 0.7014(2) 0.04122(11) 1.3022(2)
C1 C 0.1808(3) 0.15671(14) 0.5152(2)
C2 C 0.3413(4) 0.29089(14) 0.4820(3)
C3 C 0.4744(3) 0.21896(19) 0.4712(3)
C4 C 0.7701(2) 0.06678(11) 0.8609(2)
C5 C 0.7638(2) 0.06553(11) 1.1676(2)
H1 H 0.0321 0.2855 0.5228
H2 H 0.0743 0.1126 0.5328
H3 H 0.3710 0.3564 0.4721
H4 H 0.6161 0.2253 0.4519
Ni1_2 Ni 0.5000 0.0000 1.5000
N1B N 0.6272(2) -0.13408(10) 0.50731(19)
N2B N 0.8435(3) -0.25201(13) 0.4904(2)
N3B N 0.2855(2) -0.04374(11) 1.2851(2)
N3B_2 N 0.2855(2) -0.04374(11) 0.2851(2)
N4B N 0.1562(2) -0.09892(13) 0.97823(19)
N5B N 0.2986(2) -0.04122(11) 0.6978(2)
N5_2 N 0.7014(2) 0.04122(11) 0.3022(2)
C1B C 0.8192(3) -0.15671(14) 0.4848(2)
C2B C 0.6587(4) -0.29089(14) 0.5180(3)
C3B C 0.5256(3) -0.21896(19) 0.5288(3)
C4B C 0.2299(2) -0.06678(11) 1.1391(2)
C5B C 0.2362(2) -0.06553(11) 0.8324(2)
H1B H 0.9679 -0.2855 0.4772
H2B H 0.9257 -0.1126 0.4672
H3B H 0.6290 -0.3564 0.5279
H4B H 0.3839 -0.2253 0.5481
loop_
_geom_bond_atom_site_label_1
_geom_bond_atom_site_label_2
_geom_bond_site_symmetry_1
_geom_bond_site_symmetry_2
Ni1 N1 1_555 1_555
N1 C1 1_555 1_555
N2 C1 1_555 1_555
N3 Ni1 1_555 1_555
N4 C4 1_555 1_555
N5 C5 1_555 1_555
C1 H2 1_555 1_555
C2 N2 1_555 1_555
C3 N1 1_555 1_555
C4 N3 1_555 1_555
C5 N4 1_555 1_555
H1 N2 1_555 1_555
H3 C2 1_555 1_555
H4 C3 1_555 1_555
Ni1_2 N5 1_555 1_555
N1B Ni1 1_555 1_555
N2B C1B 1_555 1_555
N3B Ni1_2 1_555 1_555
N3B_2 Ni1 1_555 1_555
N4B C4B 1_555 1_555
N5B Ni1 1_555 1_555
N5_2 Ni1 1_555 1_555
C1B N1B 1_555 1_555
C2B N2B 1_555 1_555
C3B N1B 1_555 1_555
C4B N3B 1_555 1_555
C5B N4B 1_555 1_555
H1B N2B 1_555 1_555
H2B C1B 1_555 1_555
H3B C2B 1_555 1_555
H4B C3B 1_555 1_555
C2 C3 1_555 1_555
N5B C5B 1_555 1_555
C2B C3B 1_555 1_555

#END
