
#######################################################################
#
#                 Cambridge Crystallographic Data Centre
#                                CCDC 
#
#######################################################################
#
# If this CIF has been generated from an entry in the Cambridge 
# Structural Database, then it will include bibliographic, chemical, 
# crystal, experimental, refinement or atomic coordinate data resulting 
# from the CCDC's data processing and validation procedures.
#
#######################################################################

data_BUJFOD
_symmetry_cell_setting           triclinic
_symmetry_space_group_name_H-M   'P -1'
_symmetry_Int_Tables_number      2
_space_group_name_Hall           '-P 1'
loop_
_symmetry_equiv_pos_site_id
_symmetry_equiv_pos_as_xyz
1 x,y,z
2 -x,-y,-z
_cell_length_a                   11.1938(13)
_cell_length_b                   12.7022(14)
_cell_length_c                   13.1616(15)
_cell_angle_alpha                110.302(2)
_cell_angle_beta                 98.157(2)
_cell_angle_gamma                111.880(2)
_cell_volume                     1547.62
loop_
_atom_site_label
_atom_site_type_symbol
_atom_site_fract_x
_atom_site_fract_y
_atom_site_fract_z
C7 C -0.542(2) -0.1500(17) -0.6252(14)
H5 H -0.6141 -0.2086 -0.6158
C8 C -0.421(3) -0.087(2) -0.5466(17)
H6 H -0.4107 -0.1028 -0.4829
C9 C -0.312(3) -0.001(3) -0.555(2)
H7 H -0.2296 0.0435 -0.4974
C10 C -0.559(2) -0.130(2) -0.7138(18)
N2 N -0.457(2) -0.041(2) -0.731(2)
N3 N -0.690(2) -0.202(2) -0.795(2)
H8 H -0.7536 -0.2562 -0.7829
H9 H -0.7065 -0.1922 -0.8556
C11 C -0.329(3) 0.021(2) -0.657(3)
H10 H -0.2561 0.0738 -0.6708
N4 N 0.370(3) 0.3297(18) -0.2743(14)
C12 C 0.312(2) 0.304(2) -0.3841(17)
C13 C 0.383(2) 0.348(2) -0.4470(15)
H11 H 0.3383 0.3292 -0.5209
N5 N 0.180(2) 0.226(2) -0.4323(18)
H12 H 0.1413 0.2049 -0.5026
H13 H 0.1328 0.1971 -0.3933
C14 C 0.517(3) 0.419(2) -0.405(3)
H14 H 0.5663 0.4432 -0.4513
C15 C 0.582(3) 0.456(2) -0.294(2)
H15 H 0.6751 0.5086 -0.2632
C16 C 0.511(3) 0.414(2) -0.2286(18)
H16 H 0.5548 0.4417 -0.1522
Mo1 Mo -0.31292(14) -0.14848(15) -0.21714(11)
Mo2 Mo -0.02094(18) 0.07165(14) -0.23619(11)
Mo3 Mo -0.29456(14) -0.20535(14) 0.02817(14)
Mo4 Mo -0.04652(18) -0.22433(16) -0.26983(11)
Mo5 Mo -0.25633(16) 0.09126(18) 0.04771(15)
Mo6 Mo 0.04909(19) 0.30467(15) 0.03994(16)
Cu1 Cu 0.0000 -0.5000 -0.5000
Si1 Si 0.0000 0.0000 0.0000
O1 O -0.0749(18) -0.0517(16) -0.1314(15)
O2 O -0.1603(19) -0.0565(16) -0.0335(14)
O3 O 0.0647(19) 0.1036(16) -0.0488(13)
O4 O 0.0327(18) -0.1222(15) -0.0725(14)
O5 O -0.4576(13) -0.2129(13) -0.3211(12)
O6 O -0.2315(15) -0.2457(11) -0.2895(15)
O7 O -0.3768(14) 0.1295(14) 0.0731(12)
O8 O 0.0756(13) 0.4473(12) 0.0561(12)
O9 O -0.0754(13) -0.3317(12) -0.3985(10)
O10 O -0.0231(15) 0.1044(17) -0.3483(12)
O11 O -0.0125(14) 0.2145(14) -0.1254(12)
O12 O 0.0921(14) 0.329(2) 0.1913(15)
O13 O -0.3161(18) -0.0596(13) 0.0703(10)
O14 O 0.2199(16) 0.3175(16) 0.0365(13)
O15 O -0.2019(16) -0.0209(12) -0.2620(16)
O16 O -0.3286(19) -0.0113(13) -0.1103(11)
O17 O -0.1799(16) -0.1499(15) 0.1724(14)
O18 O -0.4370(14) -0.3045(14) 0.0334(11)
O19 O 0.1362(15) -0.173(2) -0.2039(16)
O20 O -0.3607(18) -0.2358(14) -0.1318(11)
O21 O -0.0083(16) -0.0831(12) -0.2998(16)
O22 O -0.1400(18) 0.2314(17) 0.0265(14)
O23 O -0.1993(13) -0.6876(13) -0.3459(12)
O24 O -0.1508(12) -0.6149(11) -0.4745(10)
N1 N 0.1047(13) -0.4810(12) -0.3579(11)
C1 C -0.1200(17) -0.6245(15) -0.3810(13)
C2 C 0.0260(17) -0.5506(13) -0.3125(13)
C3 C 0.0816(19) -0.5567(16) -0.2128(15)
H1 H 0.0282 -0.6086 -0.1848
C4 C 0.2391(17) -0.4104(15) -0.3015(15)
H2 H 0.2917 -0.3592 -0.3304
C5 C 0.221(2) -0.481(2) -0.1580(16)
H3 H 0.2616 -0.4769 -0.0892
C6 C 0.2992(18) -0.4103(17) -0.2082(17)
H4 H 0.3928 -0.3641 -0.1754
O1A O 0.0749(18) 0.0517(16) 0.1314(15)
O2A O 0.1603(19) 0.0565(16) 0.0335(14)
O3A O -0.0647(19) -0.1036(16) 0.0488(13)
O4A O -0.0327(18) 0.1222(15) 0.0725(14)
Mo1A Mo 0.31292(14) -0.85152(15) -0.78286(11)
Mo2A Mo 0.02094(18) -1.07165(14) -0.76381(11)
Mo3A Mo 0.29456(14) -0.79465(14) -1.02817(14)
Mo4A Mo 0.04652(18) -0.77567(16) -0.73017(11)
Mo5A Mo 0.25633(16) -1.09126(18) -1.04771(15)
Mo6A Mo -0.04909(19) -1.30467(15) -1.03994(16)
O5A O 0.4576(13) -0.7871(13) -0.6789(12)
O6A O 0.2315(15) -0.7543(11) -0.7105(15)
O7A O 0.3768(14) -1.1295(14) -1.0731(12)
O8A O -0.0756(13) -1.4473(12) -1.0561(12)
O9A O 0.0754(13) -0.6683(12) -0.6015(10)
O10A O 0.0231(15) -1.1044(17) -0.6517(12)
O11A O 0.0125(14) -1.2145(14) -0.8746(12)
O12A O -0.0921(14) -1.329(2) -1.1913(15)
O13A O 0.3161(18) -0.9404(13) -1.0703(10)
O14A O -0.2199(16) -1.3175(16) -1.0365(13)
O15A O 0.2019(16) -0.9791(12) -0.7380(16)
O16A O 0.3286(19) -0.9887(13) -0.8897(11)
O17A O 0.1799(16) -0.8501(15) -1.1724(14)
O18A O 0.4370(14) -0.6955(14) -1.0334(11)
O19A O -0.1362(15) -0.827(2) -0.7961(16)
O20A O 0.3607(18) -0.7642(14) -0.8682(11)
O21A O 0.0083(16) -0.9169(12) -0.7002(16)
O22A O 0.1400(18) -1.2314(17) -1.0265(14)
O23A O 0.1993(13) -0.3124(13) -0.6541(12)
O24A O 0.1508(12) -0.3851(11) -0.5255(10)
N1A N -0.1047(13) -0.5190(12) -0.6421(11)
C1A C 0.1200(17) -0.3755(15) -0.6190(13)
C2A C -0.0260(17) -0.4494(13) -0.6875(13)
C3A C -0.0816(19) -0.4433(16) -0.7872(15)
H1A H -0.0282 -0.3914 -0.8152
C4A C -0.2391(17) -0.5896(15) -0.6985(15)
H2A H -0.2917 -0.6408 -0.6696
C5A C -0.221(2) -0.519(2) -0.8420(16)
H3A H -0.2616 -0.5231 -0.9108
C6A C -0.2992(18) -0.5897(17) -0.7918(17)
H4A H -0.3928 -0.6359 -0.8246
Mo1A_2 Mo 0.31292(14) 0.14848(15) 0.21714(11)
Mo2_2 Mo -0.02094(18) -0.92835(14) -1.23619(11)
Mo2A_2 Mo 0.02094(18) -0.07165(14) 0.23619(11)
Mo3_2 Mo -0.29456(14) -1.20535(14) -0.97183(14)
Mo3A_2 Mo 0.29456(14) 0.20535(14) -0.02817(14)
Mo4_2 Mo -0.04652(18) -1.22433(16) -1.26983(11)
Mo4A_2 Mo 0.04652(18) 0.22433(16) 0.26983(11)
Mo5_2 Mo -0.25633(16) -0.90874(18) -0.95229(15)
Mo5A_2 Mo 0.25633(16) -0.09126(18) -0.04771(15)
Mo6A_2 Mo -0.04909(19) -0.30467(15) -0.03994(16)
O1A_2 O 0.0749(18) -0.9483(16) -0.8686(15)
O2A_2 O 0.1603(19) -0.9435(16) -0.9665(14)
O3_2 O 0.0647(19) -0.8964(16) -1.0488(13)
O3A_2 O -0.0647(19) -1.1036(16) -0.9512(13)
O4_2 O 0.0327(18) -1.1222(15) -1.0725(14)
O4A_2 O -0.0327(18) -0.8778(15) -0.9275(14)
O12_2 O 0.0921(14) -0.671(2) -0.8087(15)
O12A_2 O -0.0921(14) -0.329(2) -0.1913(15)
O14_2 O 0.2199(16) -0.6825(16) -0.9635(13)
O14A_2 O -0.2199(16) -0.3175(16) -0.0365(13)
O17_2 O -0.1799(16) -1.1499(15) -0.8276(14)
O17A_2 O 0.1799(16) 0.1499(15) -0.1724(14)
O19_2 O 0.1362(15) -1.173(2) -1.2039(16)
O19A_2 O -0.1362(15) 0.173(2) 0.2039(16)
loop_
_geom_bond_atom_site_label_1
_geom_bond_atom_site_label_2
_geom_bond_site_symmetry_1
_geom_bond_site_symmetry_2
Mo1 O1 1_555 1_555
Mo2 O1 1_555 1_555
Mo3 O2 1_555 1_555
Mo4 O1 1_555 1_555
Mo5 O2 1_555 1_555
Mo6 O3 1_555 1_555
Cu1 O9 1_555 1_555
Si1 O1 1_555 1_555
O1 O2 1_555 1_555
O2 Mo1 1_555 1_555
O3 Mo2 1_555 1_555
O4 Mo4 1_555 1_555
O5 Mo1 1_555 1_555
O6 Mo1 1_555 1_555
O7 Mo5 1_555 1_555
O8 Mo6 1_555 1_555
O9 Mo4 1_555 1_555
O10 Mo2 1_555 1_555
O11 Mo2 1_555 1_555
O12 Mo6 1_555 1_555
O13 Mo3 1_555 1_555
O14 Mo6 1_555 1_555
O15 Mo1 1_555 1_555
O16 Mo1 1_555 1_555
O17 Mo3 1_555 1_555
O18 Mo3 1_555 1_555
O19 Mo4 1_555 1_555
O20 Mo1 1_555 1_555
O21 Mo2 1_555 1_555
O22 Mo5 1_555 1_555
O23 C1 1_555 1_555
O24 Cu1 1_555 1_555
N1 Cu1 1_555 1_555
C1 O24 1_555 1_555
C2 N1 1_555 1_555
C3 C2 1_555 1_555
H1 C3 1_555 1_555
C4 N1 1_555 1_555
H2 C4 1_555 1_555
C5 C3 1_555 1_555
H3 C5 1_555 1_555
C6 C4 1_555 1_555
H4 C6 1_555 1_555
C7 H5 1_555 1_555
C8 C7 1_555 1_555
H6 C8 1_555 1_555
C9 C8 1_555 1_555
H7 C9 1_555 1_555
C10 C7 1_555 1_555
N2 C10 1_555 1_555
N3 C10 1_555 1_555
H8 N3 1_555 1_555
H9 N3 1_555 1_555
C11 C9 1_555 1_555
H10 C11 1_555 1_555
N4 C12 1_555 1_555
C12 C13 1_555 1_555
C13 H11 1_555 1_555
N5 C12 1_555 1_555
H12 N5 1_555 1_555
H13 N5 1_555 1_555
C14 C13 1_555 1_555
H14 C14 1_555 1_555
C15 C14 1_555 1_555
H15 C15 1_555 1_555
C16 N4 1_555 1_555
H16 C16 1_555 1_555
O1A Si1 1_555 1_555
O2A Si1 1_555 1_555
O3A Mo3 1_555 1_555
O4A Mo5 1_555 1_555
Mo1A O5A 1_555 1_555
Mo2A O10A 1_555 1_555
Mo3A O13A 1_555 1_555
Mo4A O6A 1_555 1_555
Mo5A O7A 1_555 1_555
Mo6A O8A 1_555 1_555
O6A Mo1A 1_555 1_555
O9A Cu1 1_555 1_555
O11A Mo2A 1_555 1_555
O12A Mo6A 1_555 1_555
O13A Mo5A 1_555 1_555
O14A Mo6A 1_555 1_555
O15A Mo1A 1_555 1_555
O16A Mo1A 1_555 1_555
O17A Mo3A 1_555 1_555
O18A Mo3A 1_555 1_555
O19A Mo4A 1_555 1_555
O20A Mo1A 1_555 1_555
O21A Mo2A 1_555 1_555
O22A Mo5A 1_555 1_555
O23A C1A 1_555 1_555
O24A Cu1 1_555 1_555
N1A Cu1 1_555 1_555
C1A O24A 1_555 1_555
C2A N1A 1_555 1_555
C3A C2A 1_555 1_555
H1A C3A 1_555 1_555
C4A N1A 1_555 1_555
H2A C4A 1_555 1_555
C5A C3A 1_555 1_555
H3A C5A 1_555 1_555
C6A C4A 1_555 1_555
H4A C6A 1_555 1_555
Mo1A_2 O1A 1_555 1_555
Mo2_2 O17A 1_555 1_555
Mo2A_2 O17 1_555 1_555
Mo3_2 O14A 1_555 1_555
Mo3A_2 O3 1_555 1_555
Mo4_2 O12A 1_555 1_555
Mo4A_2 O12 1_555 1_555
Mo5_2 O19A 1_555 1_555
Mo5A_2 O4 1_555 1_555
Mo6A_2 O4 1_555 1_555
O1A_2 Mo1A 1_555 1_555
O2A_2 Mo1A 1_555 1_555
O3_2 Mo3A 1_555 1_555
O3A_2 Mo2A 1_555 1_555
O4_2 Mo5A 1_555 1_555
O4A_2 Mo4A 1_555 1_555
O12_2 Mo4A 1_555 1_555
O12A_2 Mo4 1_555 1_555
O14_2 Mo3A 1_555 1_555
O14A_2 Mo3 1_555 1_555
O17_2 Mo2A 1_555 1_555
O17A_2 Mo2 1_555 1_555
O19_2 Mo5A 1_555 1_555
O19A_2 Mo5 1_555 1_555
Mo2 O15 1_555 1_555
Mo3 O20 1_555 1_555
Mo4 O6 1_555 1_555
Mo4 O21 1_555 1_555
Mo5 O13 1_555 1_555
Mo5 O16 1_555 1_555
Mo6 O11 1_555 1_555
Mo6 O22 1_555 1_555
Mo6 O4A 1_555 1_555
Si1 O2 1_555 1_555
Si1 O3 1_555 1_555
Si1 O4 1_555 1_555
Si1 O3A 1_555 1_555
Si1 O4A 1_555 1_555
O1 O3 1_555 1_555
O2 O3A 1_555 1_555
O3 O2A 1_555 1_555
O14 Mo3A_2 1_555 1_555
O19 Mo5A_2 1_555 1_555
C1 C2 1_555 1_555
C5 C6 1_555 1_555
N2 C11 1_555 1_555
C15 C16 1_555 1_555
O1A O2A 1_555 1_555
O1A O3A 1_555 1_555
O1A Mo2A_2 1_555 1_555
O1A Mo4A_2 1_555 1_555
O2A Mo1A_2 1_555 1_555
O2A Mo3A_2 1_555 1_555
O2A Mo5A_2 1_555 1_555
O3A Mo2A_2 1_555 1_555
O3A Mo6A_2 1_555 1_555
O4A Mo4A_2 1_555 1_555
Mo2A O15A 1_555 1_555
Mo2A O1A_2 1_555 1_555
Mo3A O20A 1_555 1_555
Mo3A O2A_2 1_555 1_555
Mo4A O9A 1_555 1_555
Mo4A O21A 1_555 1_555
Mo4A O1A_2 1_555 1_555
Mo5A O16A 1_555 1_555
Mo5A O2A_2 1_555 1_555
Mo6A O11A 1_555 1_555
Mo6A O22A 1_555 1_555
Mo6A O3A_2 1_555 1_555
Mo6A O4_2 1_555 1_555
C1A C2A 1_555 1_555
C5A C6A 1_555 1_555
Mo2_2 O3_2 1_555 1_555
Mo3_2 O3A_2 1_555 1_555
Mo3_2 O17_2 1_555 1_555
Mo3A_2 O17A_2 1_555 1_555
Mo4_2 O4_2 1_555 1_555
Mo4_2 O19_2 1_555 1_555
Mo4A_2 O19A_2 1_555 1_555
Mo5_2 O4A_2 1_555 1_555
Mo6A_2 O12A_2 1_555 1_555
Mo6A_2 O14A_2 1_555 1_555
O1A_2 O2A_2 1_555 1_555
O1A_2 O3A_2 1_555 1_555
O2A_2 O3_2 1_555 1_555

#END
