
#######################################################################
#
#                 Cambridge Crystallographic Data Centre
#                                CCDC 
#
#######################################################################
#
# If this CIF has been generated from an entry in the Cambridge 
# Structural Database, then it will include bibliographic, chemical, 
# crystal, experimental, refinement or atomic coordinate data resulting 
# from the CCDC's data processing and validation procedures.
#
#######################################################################

data_BUJGAQ
_symmetry_cell_setting           monoclinic
_symmetry_space_group_name_H-M   'C 2/c'
_symmetry_Int_Tables_number      15
_space_group_name_Hall           '-C 2yn'
loop_
_symmetry_equiv_pos_site_id
_symmetry_equiv_pos_as_xyz
1 x,y,z
2 -x,y,1/2-z
3 1/2+x,1/2+y,z
4 1/2-x,1/2+y,1/2-z
5 -x,-y,-z
6 x,-y,1/2+z
7 1/2-x,1/2-y,-z
8 1/2+x,1/2-y,1/2+z
_cell_length_a                   15.5320(15)
_cell_length_b                   23.552(2)
_cell_length_c                   7.4160(7)
_cell_angle_alpha                90
_cell_angle_beta                 110.191(2)
_cell_angle_gamma                90
_cell_volume                     2546.13
loop_
_atom_site_label
_atom_site_type_symbol
_atom_site_fract_x
_atom_site_fract_y
_atom_site_fract_z
Cd1 Cd 0.0000 0.13528(2) 0.2500
O1 O 0.05190(18) 0.16657(12) 0.0126(4)
O2 O 0.1314(2) 0.19236(13) 0.3076(4)
N1 N 0.08559(18) 0.05591(13) 0.3768(4)
N2 N 0.1268(5) 0.1914(3) -0.2590(10)
H1 H 0.1310 0.1913 -0.3716
H2 H 0.0841 0.1724 -0.2376
C1 C 0.1188(3) 0.19170(15) 0.1313(6)
C2 C 0.1865(2) 0.22182(14) 0.0609(5)
C3 C 0.1808(3) 0.21838(16) -0.1308(5)
C4 C 0.2554(3) 0.25362(16) 0.1901(5)
H3 H 0.2588 0.2562 0.3175
C5 C 0.1734(3) 0.05790(19) 0.4980(5)
H4 H 0.2000 0.0929 0.5424
C6 C 0.2243(3) 0.0090(2) 0.5572(6)
H5 H 0.2852 0.0113 0.6377
C7 C 0.1862(3) -0.0411(2) 0.4990(7)
H6 H 0.2196 -0.0743 0.5412
C8 C 0.0978(3) -0.04368(17) 0.3769(6)
H7 H 0.0706 -0.0787 0.3345
C9 C 0.0480(2) 0.00610(15) 0.3156(4)
O1F O 0.44810(18) 0.33343(12) -0.0126(4)
O2F O 0.3686(2) 0.30764(13) -0.3076(4)
N2F N 0.3732(5) 0.3086(3) 0.2590(10)
H1F H 0.3690 0.3087 0.3716
H2F H 0.4159 0.3276 0.2376
C1F C 0.3812(3) 0.30830(15) -0.1313(6)
C2F C 0.3135(2) 0.27818(14) -0.0609(5)
C3F C 0.3192(3) 0.28162(16) 0.1308(5)
C4F C 0.2446(3) 0.24638(16) -0.1901(5)
H3F H 0.2412 0.2438 -0.3175
N1A N -0.08559(18) 0.05591(13) 0.1232(4)
C5A C -0.1734(3) 0.05790(19) 0.0020(5)
H4A H -0.2000 0.0929 -0.0424
C6A C -0.2243(3) 0.0090(2) -0.0572(6)
H5A H -0.2852 0.0113 -0.1377
C7A C -0.1862(3) -0.0411(2) 0.0010(7)
H6A H -0.2196 -0.0743 -0.0412
C8A C -0.0978(3) -0.04368(17) 0.1231(6)
H7A H -0.0706 -0.0787 0.1655
C9A C -0.0480(2) 0.00610(15) 0.1844(4)
Cd1F Cd 0.5000 0.36472(2) -0.2500
O1A O -0.05190(18) 0.16657(12) 0.4874(4)
O2A O -0.1314(2) 0.19236(13) 0.1924(4)
loop_
_geom_bond_atom_site_label_1
_geom_bond_atom_site_label_2
_geom_bond_site_symmetry_1
_geom_bond_site_symmetry_2
Cd1 O1 1_555 1_555
O1 C1 1_555 1_555
O2 Cd1 1_555 1_555
N1 Cd1 1_555 1_555
N2 H1 1_555 1_555
H2 N2 1_555 1_555
C1 O2 1_555 1_555
C2 C1 1_555 1_555
C3 N2 1_555 1_555
C4 C2 1_555 1_555
H3 C4 1_555 1_555
C5 N1 1_555 1_555
H4 C5 1_555 1_555
C6 C5 1_555 1_555
H5 C6 1_555 1_555
C7 C6 1_555 1_555
H6 C7 1_555 1_555
C8 C7 1_555 1_555
H7 C8 1_555 1_555
C9 N1 1_555 1_555
O1F C1F 1_555 1_555
O2F C1F 1_555 1_555
N2F H1F 1_555 1_555
H2F N2F 1_555 1_555
C1F C2F 1_555 1_555
C2F C3F 1_555 1_555
C3F C4 1_555 1_555
C4F C3 1_555 1_555
H3F C4F 1_555 1_555
N1A Cd1 1_555 1_555
C5A N1A 1_555 1_555
H4A C5A 1_555 1_555
C6A C5A 1_555 1_555
H5A C6A 1_555 1_555
C7A C6A 1_555 1_555
H6A C7A 1_555 1_555
C8A C7A 1_555 1_555
H7A C8A 1_555 1_555
C9A C9 1_555 1_555
Cd1F O1F 1_555 1_555
O1A Cd1 1_555 1_555
O2A Cd1 1_555 1_555
C2 C3 1_555 1_555
C8 C9 1_555 1_555
O2F Cd1F 1_555 1_555
N2F C3F 1_555 1_555
C2F C4F 1_555 1_555
N1A C9A 1_555 1_555
C8A C9A 1_555 1_555

#END
