
#######################################################################
#
#                 Cambridge Crystallographic Data Centre
#                                CCDC 
#
#######################################################################
#
# If this CIF has been generated from an entry in the Cambridge 
# Structural Database, then it will include bibliographic, chemical, 
# crystal, experimental, refinement or atomic coordinate data resulting 
# from the CCDC's data processing and validation procedures.
#
#######################################################################

data_BUJWAF
_symmetry_cell_setting           monoclinic
_symmetry_space_group_name_H-M   'P 21/n'
_symmetry_Int_Tables_number      14
_space_group_name_Hall           '-P 2yn'
loop_
_symmetry_equiv_pos_site_id
_symmetry_equiv_pos_as_xyz
1 x,y,z
2 1/2+x,1/2-y,1/2+z
3 -x,-y,-z
4 1/2-x,1/2+y,1/2-z
_cell_length_a                   7.2009(4)
_cell_length_b                   16.7422(13)
_cell_length_c                   8.7064(6)
_cell_angle_alpha                90
_cell_angle_beta                 90.117(4)
_cell_angle_gamma                90
_cell_volume                     1049.63
loop_
_atom_site_label
_atom_site_type_symbol
_atom_site_fract_x
_atom_site_fract_y
_atom_site_fract_z
Fe1 Fe 0.26038(6) 0.137125(17) 0.13967(4)
N1 N 0.2542(6) 0.12992(12) -0.1028(2)
N2 N 0.1642(4) 0.09024(16) -0.3623(3)
N3 N 0.2573(6) 0.14011(12) -0.6137(2)
N4 N 0.2633(4) 0.00918(11) 0.1708(2)
N5 N 0.3342(4) -0.09534(15) 0.3588(3)
N6 N 0.2435(4) -0.23542(11) 0.3710(2)
N7 N -0.0468(3) 0.13739(16) 0.1409(6)
N8 N -0.4337(3) 0.13677(16) 0.1406(5)
C1 C 0.2197(6) 0.11477(15) -0.2271(3)
C2 C 0.2224(6) 0.11956(15) -0.4920(3)
C3 C 0.2883(4) -0.04271(16) 0.2538(3)
C4 C 0.2779(4) -0.16925(16) 0.3586(3)
C5 C -0.1450(4) 0.0943(2) 0.2402(4)
H1 H -0.0811 0.0625 0.3120
C6 C -0.3337(4) 0.0942(2) 0.2421(4)
H2 H -0.3959 0.0635 0.3164
C7 C -0.3386(5) 0.1798(2) 0.0405(4)
H3 H -0.4033 0.2109 -0.0318
C8 C -0.1477(5) 0.1802(2) 0.0394(4)
H4 H -0.0856 0.2113 -0.0343
N3_2 N 0.2573(6) 0.14011(12) 0.3863(2)
N6C N 0.2565(4) 0.26458(11) 0.1290(2)
N8_2 N 0.5663(3) 0.13677(16) 0.1406(5)
Fe1_2 Fe 0.26038(6) 0.137125(17) -0.86033(4)
Fe1C Fe 0.23962(6) -0.362875(17) 0.36033(4)
Fe1_3 Fe -0.73962(6) 0.137125(17) 0.13967(4)
loop_
_geom_bond_atom_site_label_1
_geom_bond_atom_site_label_2
_geom_bond_site_symmetry_1
_geom_bond_site_symmetry_2
Fe1 N1 1_555 1_555
N1 C1 1_555 1_555
N2 C1 1_555 1_555
N3 C2 1_555 1_555
N4 Fe1 1_555 1_555
N5 C3 1_555 1_555
N6 C4 1_555 1_555
N7 Fe1 1_555 1_555
N8 C6 1_555 1_555
C2 N2 1_555 1_555
C3 N4 1_555 1_555
C4 N5 1_555 1_555
C5 N7 1_555 1_555
H1 C5 1_555 1_555
C6 C5 1_555 1_555
H2 C6 1_555 1_555
C7 N8 1_555 1_555
H3 C7 1_555 1_555
C8 N7 1_555 1_555
H4 C8 1_555 1_555
N3_2 Fe1 1_555 1_555
N6C Fe1 1_555 1_555
N8_2 Fe1 1_555 1_555
Fe1_2 N3 1_555 1_555
Fe1C N6 1_555 1_555
Fe1_3 N8 1_555 1_555
C7 C8 1_555 1_555

#END
