
#######################################################################
#
#                 Cambridge Crystallographic Data Centre
#                                CCDC 
#
#######################################################################
#
# If this CIF has been generated from an entry in the Cambridge 
# Structural Database, then it will include bibliographic, chemical, 
# crystal, experimental, refinement or atomic coordinate data resulting 
# from the CCDC's data processing and validation procedures.
#
#######################################################################

data_BUJWAF01
_symmetry_cell_setting           monoclinic
_symmetry_space_group_name_H-M   'P 21/n'
_symmetry_Int_Tables_number      14
_space_group_name_Hall           '-P 2yn'
loop_
_symmetry_equiv_pos_site_id
_symmetry_equiv_pos_as_xyz
1 x,y,z
2 1/2+x,1/2-y,1/2+z
3 -x,-y,-z
4 1/2-x,1/2+y,1/2-z
_cell_length_a                   7.1848(4)
_cell_length_b                   16.6920(13)
_cell_length_c                   8.6952(6)
_cell_angle_alpha                90
_cell_angle_beta                 90.041(5)
_cell_angle_gamma                90
_cell_volume                     1042.8
loop_
_atom_site_label
_atom_site_type_symbol
_atom_site_fract_x
_atom_site_fract_y
_atom_site_fract_z
Fe1 Fe 0.26201(6) 0.136894(17) 0.13760(4)
N1 N 0.2550(6) 0.12897(11) -0.1051(2)
N2 N 0.1604(4) 0.09056(15) -0.3645(3)
N3 N 0.2581(5) 0.14023(11) -0.6160(2)
N4 N 0.2645(4) 0.00884(11) 0.1700(2)
N5 N 0.3388(4) -0.09523(14) 0.3597(3)
N6 N 0.2411(4) -0.23549(10) 0.3742(2)
N7 N -0.0450(3) 0.13711(15) 0.1396(6)
N8 N -0.4333(3) 0.13637(15) 0.1388(5)
C1 C 0.2174(5) 0.11407(15) -0.2300(3)
C2 C 0.2199(5) 0.11959(15) -0.4946(3)
C3 C 0.2919(3) -0.04297(15) 0.2540(3)
C4 C 0.2804(4) -0.16901(16) 0.3605(3)
C5 C -0.1424(4) 0.09341(19) 0.2386(4)
H1 H -0.0780 0.0608 0.3107
C6 C -0.3319(4) 0.0939(2) 0.2398(4)
H2 H -0.3950 0.0630 0.3152
C7 C -0.3370(4) 0.1801(2) 0.0384(4)
H3 H -0.4020 0.2121 -0.0342
C8 C -0.1461(5) 0.1799(2) 0.0377(4)
H4 H -0.0827 0.2110 -0.0373
N3_2 N 0.2581(5) 0.14023(11) 0.3840(2)
N6C N 0.2589(4) 0.26451(10) 0.1258(2)
N8_2 N 0.5667(3) 0.13637(15) 0.1388(5)
Fe1_2 Fe 0.26201(6) 0.136894(17) -0.86240(4)
Fe1C Fe 0.23799(6) -0.363106(17) 0.36240(4)
Fe1_3 Fe -0.73799(6) 0.136894(17) 0.13760(4)
loop_
_geom_bond_atom_site_label_1
_geom_bond_atom_site_label_2
_geom_bond_site_symmetry_1
_geom_bond_site_symmetry_2
Fe1 N1 1_555 1_555
N1 C1 1_555 1_555
N2 C1 1_555 1_555
N3 C2 1_555 1_555
N4 Fe1 1_555 1_555
N5 C3 1_555 1_555
N6 C4 1_555 1_555
N7 Fe1 1_555 1_555
N8 C6 1_555 1_555
C2 N2 1_555 1_555
C3 N4 1_555 1_555
C4 N5 1_555 1_555
C5 N7 1_555 1_555
H1 C5 1_555 1_555
C6 C5 1_555 1_555
H2 C6 1_555 1_555
C7 N8 1_555 1_555
H3 C7 1_555 1_555
C8 N7 1_555 1_555
H4 C8 1_555 1_555
N3_2 Fe1 1_555 1_555
N6C Fe1 1_555 1_555
N8_2 Fe1 1_555 1_555
Fe1_2 N3 1_555 1_555
Fe1C N6 1_555 1_555
Fe1_3 N8 1_555 1_555
C7 C8 1_555 1_555

#END
