
#######################################################################
#
#                 Cambridge Crystallographic Data Centre
#                                CCDC 
#
#######################################################################
#
# If this CIF has been generated from an entry in the Cambridge 
# Structural Database, then it will include bibliographic, chemical, 
# crystal, experimental, refinement or atomic coordinate data resulting 
# from the CCDC's data processing and validation procedures.
#
#######################################################################

data_BUJZUC
_symmetry_cell_setting           monoclinic
_symmetry_space_group_name_H-M   'C 2/c'
_symmetry_Int_Tables_number      15
_space_group_name_Hall           '-C 2yn'
loop_
_symmetry_equiv_pos_site_id
_symmetry_equiv_pos_as_xyz
1 x,y,z
2 -x,y,1/2-z
3 1/2+x,1/2+y,z
4 1/2-x,1/2+y,1/2-z
5 -x,-y,-z
6 x,-y,1/2+z
7 1/2-x,1/2-y,-z
8 1/2+x,1/2-y,1/2+z
_cell_length_a                   16.0822(3)
_cell_length_b                   17.8062(4)
_cell_length_c                   12.1685(2)
_cell_angle_alpha                90
_cell_angle_beta                 123.9700(10)
_cell_angle_gamma                90
_cell_volume                     2889.89
loop_
_atom_site_label
_atom_site_type_symbol
_atom_site_fract_x
_atom_site_fract_y
_atom_site_fract_z
Cu1 Cu 0.714471(14) 0.370123(11) 0.978292(19)
N1 N 0.58223(11) 0.37118(8) 0.95341(15)
N2 N 0.84839(11) 0.37386(8) 1.01253(15)
N3 N 0.68333(10) 0.43916(7) 0.82826(13)
O1 O 0.59975(9) 0.46791(7) 0.74268(12)
O2 O 0.93415(9) 0.42594(7) 0.92617(12)
O3 O 0.51425(9) 0.33135(7) 1.07269(12)
N4 N 0.74220(10) 0.28988(7) 1.11396(13)
N5 N 0.76013(12) 0.53280(9) 0.64888(16)
C1 C 0.42459(13) 0.37811(10) 0.99830(18)
H1 H 0.3801 0.3594 0.9064
H2 H 0.4432 0.4307 0.9952
C2 C 0.66876(12) 0.28661(9) 1.13143(16)
C3 C 0.67210(13) 0.23747(9) 1.22670(17)
C4 C 0.85476(12) 0.41375(9) 0.93040(16)
C5 C 0.76406(12) 0.45141(9) 0.82539(16)
C6 C 0.76162(13) 0.49637(9) 0.72725(18)
C7 C 0.58184(12) 0.33448(9) 1.04339(16)
O4 O 0.81758(9) 0.24524(7) 1.17971(12)
N6 N 0.67560(13) 0.19736(9) 1.30215(17)
C8 C 1.02561(13) 0.38477(10) 1.02028(19)
H3 H 1.0095 0.3319 1.0266
H4 H 1.0594 0.4079 1.1093
C9 C 0.37271(14) 0.37363(11) 1.06930(19)
H5 H 0.3591 0.3209 1.0772
H6 H 0.3094 0.4014 1.0191
H7 H 0.4158 0.3956 1.1579
C10 C 1.09238(16) 0.38809(13) 0.9706(2)
H8 H 1.0594 0.3630 0.8844
H9 H 1.1559 0.3628 1.0338
H10 H 1.1054 0.4407 0.9611
H11 H 0.5362(16) 0.3969(12) 0.906(2)
H12 H 0.8995(18) 0.3570(12) 1.075(2)
Cu1F Cu 0.785529(14) 0.129877(11) 1.021708(19)
Cu1E Cu 0.714471(14) 0.629877(11) 0.478292(19)
N5E N 0.76013(12) 0.46720(9) 1.14888(16)
O4F O 0.68242(9) 0.25476(7) 0.82029(12)
O5 O 1.0000 0.29861(11) 1.2500
H13 H 0.9510(18) 0.2726(15) 1.237(3)
H13A H 1.0490(18) 0.2726(15) 1.263(3)
loop_
_geom_bond_atom_site_label_1
_geom_bond_atom_site_label_2
_geom_bond_site_symmetry_1
_geom_bond_site_symmetry_2
Cu1 N1 1_555 1_555
N1 C7 1_555 1_555
N2 Cu1 1_555 1_555
N3 Cu1 1_555 1_555
O1 N3 1_555 1_555
O2 C4 1_555 1_555
O3 C1 1_555 1_555
N4 Cu1 1_555 1_555
N5 C6 1_555 1_555
C1 H1 1_555 1_555
H2 C1 1_555 1_555
C2 N4 1_555 1_555
C3 C2 1_555 1_555
C4 N2 1_555 1_555
C5 N3 1_555 1_555
C6 C5 1_555 1_555
C7 O3 1_555 1_555
O4 N4 1_555 1_555
N6 C3 1_555 1_555
C8 O2 1_555 1_555
H3 C8 1_555 1_555
H4 C8 1_555 1_555
C9 C1 1_555 1_555
H5 C9 1_555 1_555
H6 C9 1_555 1_555
H7 C9 1_555 1_555
C10 C8 1_555 1_555
H8 C10 1_555 1_555
H9 C10 1_555 1_555
H10 C10 1_555 1_555
H11 N1 1_555 1_555
H12 N2 1_555 1_555
O5 H13 1_555 1_555
Cu1F O4 1_555 1_555
Cu1E N5 1_555 1_555
N5E Cu1 1_555 1_555
O4F Cu1 1_555 1_555
H13A O5 1_555 1_555
C2 C7 1_555 1_555
C4 C5 1_555 1_555

#END
