
#######################################################################
#
#                 Cambridge Crystallographic Data Centre
#                                CCDC 
#
#######################################################################
#
# If this CIF has been generated from an entry in the Cambridge 
# Structural Database, then it will include bibliographic, chemical, 
# crystal, experimental, refinement or atomic coordinate data resulting 
# from the CCDC's data processing and validation procedures.
#
#######################################################################

data_BUKBUE
_symmetry_cell_setting           monoclinic
_symmetry_space_group_name_H-M   'P 21/n'
_symmetry_Int_Tables_number      14
_space_group_name_Hall           '-P 2yn'
loop_
_symmetry_equiv_pos_site_id
_symmetry_equiv_pos_as_xyz
1 x,y,z
2 1/2+x,1/2-y,1/2+z
3 -x,-y,-z
4 1/2-x,1/2+y,1/2-z
_cell_length_a                   7.0965(4)
_cell_length_b                   16.6139(9)
_cell_length_c                   8.6342(5)
_cell_angle_alpha                90
_cell_angle_beta                 90.047(3)
_cell_angle_gamma                90
_cell_volume                     1017.98
loop_
_atom_site_label
_atom_site_type_symbol
_atom_site_fract_x
_atom_site_fract_y
_atom_site_fract_z
Co1 Co 0.26319(7) 0.13691(2) 0.13813(5)
N1 N 0.2541(6) 0.12796(13) -0.1020(2)
N2 N 0.1595(4) 0.09029(16) -0.3648(3)
N3 N 0.2622(5) 0.14026(13) -0.6172(2)
N4 N 0.2650(5) 0.00982(13) 0.1692(3)
N5 N 0.3411(4) -0.09579(16) 0.3573(4)
N6 N 0.2389(5) -0.23656(12) 0.3739(3)
N7 N -0.0422(3) 0.13655(18) 0.1384(6)
N8 N -0.4341(3) 0.13685(18) 0.1405(6)
C1 C 0.2180(6) 0.11390(17) -0.2285(3)
C2 C 0.2215(6) 0.11959(16) -0.4953(3)
C3 C 0.2915(4) -0.04317(17) 0.2519(4)
C4 C 0.2802(4) -0.16987(17) 0.3597(4)
C5 C -0.1395(5) 0.0931(2) 0.2398(5)
H1 H -0.0735 0.0609 0.3129
C6 C -0.3326(5) 0.0935(2) 0.2417(5)
H2 H -0.3966 0.0621 0.3171
C7 C -0.3356(6) 0.1807(2) 0.0386(5)
H3 H -0.4014 0.2130 -0.0343
C8 C -0.1426(5) 0.1803(2) 0.0366(5)
H4 H -0.0782 0.2117 -0.0385
N3_2 N 0.2622(5) 0.14026(13) 0.3828(2)
N6C N 0.2611(5) 0.26344(12) 0.1261(3)
N8_2 N 0.5659(3) 0.13685(18) 0.1405(6)
Co1_2 Co 0.26319(7) 0.13691(2) -0.86187(5)
Co1C Co 0.23681(7) -0.36309(2) 0.36187(5)
Co1_3 Co -0.73681(7) 0.13691(2) 0.13813(5)
loop_
_geom_bond_atom_site_label_1
_geom_bond_atom_site_label_2
_geom_bond_site_symmetry_1
_geom_bond_site_symmetry_2
Co1 N1 1_555 1_555
N1 C1 1_555 1_555
N2 C1 1_555 1_555
N3 C2 1_555 1_555
N4 Co1 1_555 1_555
N5 C3 1_555 1_555
N6 C4 1_555 1_555
N7 Co1 1_555 1_555
N8 C6 1_555 1_555
C2 N2 1_555 1_555
C3 N4 1_555 1_555
C4 N5 1_555 1_555
C5 N7 1_555 1_555
H1 C5 1_555 1_555
C6 C5 1_555 1_555
H2 C6 1_555 1_555
C7 N8 1_555 1_555
H3 C7 1_555 1_555
C8 N7 1_555 1_555
H4 C8 1_555 1_555
N3_2 Co1 1_555 1_555
N6C Co1 1_555 1_555
N8_2 Co1 1_555 1_555
Co1_2 N3 1_555 1_555
Co1C N6 1_555 1_555
Co1_3 N8 1_555 1_555
C7 C8 1_555 1_555

#END
