
#######################################################################
#
#                 Cambridge Crystallographic Data Centre
#                                CCDC 
#
#######################################################################
#
# If this CIF has been generated from an entry in the Cambridge 
# Structural Database, then it will include bibliographic, chemical, 
# crystal, experimental, refinement or atomic coordinate data resulting 
# from the CCDC's data processing and validation procedures.
#
#######################################################################

data_BUKDOC
_symmetry_cell_setting           triclinic
_symmetry_space_group_name_H-M   'P -1'
_symmetry_Int_Tables_number      2
_space_group_name_Hall           '-P 1'
loop_
_symmetry_equiv_pos_site_id
_symmetry_equiv_pos_as_xyz
1 x,y,z
2 -x,-y,-z
_cell_length_a                   7.6219(4)
_cell_length_b                   9.3173(5)
_cell_length_c                   10.5299(6)
_cell_angle_alpha                65.050(6)
_cell_angle_beta                 85.345(4)
_cell_angle_gamma                66.686(5)
_cell_volume                     619.327
loop_
_atom_site_label
_atom_site_type_symbol
_atom_site_fract_x
_atom_site_fract_y
_atom_site_fract_z
Cu1 Cu 0.84578(5) 0.17582(5) 0.41737(4)
N1 N 0.8233(3) 0.3212(3) 0.5181(2)
N2 N 0.0941(3) 0.1119(3) 0.3463(2)
N3 N 0.6528(3) 0.1393(3) 0.3477(2)
C1 C 0.4110(3) 0.0864(3) 0.2376(2)
C2 C 0.4549(3) 0.0444(3) 0.1159(2)
C3 C 0.3246(3) 0.0166(3) 0.0526(2)
H1 H 0.2054 0.0287 0.0863
C4 C 0.5419(3) 0.1152(3) 0.2992(2)
C5 C 0.2376(3) 0.1012(3) 0.2961(2)
C6 C 0.9134(4) 0.2479(3) 0.6482(3)
H2 H 0.9767 0.1283 0.6921
C7 C 0.6311(3) 0.0283(3) 0.0590(2)
H3 H 0.7201 0.0483 0.0972
C8 C 0.7313(4) 0.4951(3) 0.4546(3)
C9 C 0.9166(4) 0.3416(4) 0.7202(3)
H4 H 0.9806 0.2867 0.8101
C10 C 0.8216(4) 0.5193(4) 0.6543(3)
H5 H 0.8206 0.5864 0.6996
C11 C 0.7290(4) 0.5959(3) 0.5220(3)
H6 H 0.6645 0.7154 0.4771
C12 C 0.6352(4) 0.5731(4) 0.3092(3)
H7 H 0.5752 0.6964 0.2753
H8 H 0.7289 0.5434 0.2480
H9 H 0.5396 0.5295 0.3109
N3A N 0.3472(3) -0.1393(3) -0.3477(2)
C1A C 0.5890(3) -0.0864(3) -0.2376(2)
C2A C 0.5451(3) -0.0444(3) -0.1159(2)
C3A C 0.6754(3) -0.0166(3) -0.0526(2)
H1A H 0.7946 -0.0287 -0.0863
C4A C 0.4581(3) -0.1152(3) -0.2992(2)
C7A C 0.3689(3) -0.0283(3) -0.0590(2)
H3A H 0.2799 -0.0483 -0.0972
N2A N 0.9059(3) -0.1119(3) -0.3463(2)
C5A C 0.7624(3) -0.1012(3) -0.2961(2)
Cu1A Cu 0.15422(5) -0.17582(5) -0.41737(4)
N1A N 0.1767(3) -0.3212(3) -0.5181(2)
C6A C 0.0866(4) -0.2479(3) -0.6482(3)
H2A H 0.0233 -0.1283 -0.6921
C8A C 0.2687(4) -0.4951(3) -0.4546(3)
C9A C 0.0834(4) -0.3416(4) -0.7202(3)
H4A H 0.0194 -0.2867 -0.8101
C10A C 0.1784(4) -0.5193(4) -0.6543(3)
H5A H 0.1794 -0.5864 -0.6996
C11A C 0.2710(4) -0.5959(3) -0.5220(3)
H6A H 0.3355 -0.7154 -0.4771
C12A C 0.3648(4) -0.5731(4) -0.3092(3)
H7A H 0.4248 -0.6964 -0.2753
H8A H 0.2711 -0.5434 -0.2480
H9A H 0.4604 -0.5295 -0.3109
Cu1_2 Cu -0.15422(5) 0.17582(5) 0.41737(4)
Cu1_3 Cu 0.84578(5) 0.17582(5) -0.58263(4)
Cu1A_2 Cu 0.15422(5) -0.17582(5) 0.58263(4)
Cu1A_3 Cu 1.15422(5) -0.17582(5) -0.41737(4)
N2_2 N 0.0941(3) 0.1119(3) -0.6537(2)
N2_3 N 1.0941(3) 0.1119(3) 0.3463(2)
N2A_2 N -0.0941(3) -0.1119(3) -0.3463(2)
N2A_3 N 0.9059(3) -0.1119(3) 0.6537(2)
loop_
_geom_bond_atom_site_label_1
_geom_bond_atom_site_label_2
_geom_bond_site_symmetry_1
_geom_bond_site_symmetry_2
Cu1 N1 1_555 1_555
N1 C6 1_555 1_555
N2 C5 1_555 1_555
N3 Cu1 1_555 1_555
C1 C2 1_555 1_555
C2 C3 1_555 1_555
C3 H1 1_555 1_555
C4 N3 1_555 1_555
C5 C1 1_555 1_555
C6 H2 1_555 1_555
C7 C2 1_555 1_555
H3 C7 1_555 1_555
C8 N1 1_555 1_555
C9 C6 1_555 1_555
H4 C9 1_555 1_555
C10 C9 1_555 1_555
H5 C10 1_555 1_555
C11 C8 1_555 1_555
H6 C11 1_555 1_555
C12 C8 1_555 1_555
H7 C12 1_555 1_555
H8 C12 1_555 1_555
H9 C12 1_555 1_555
N3A C4A 1_555 1_555
C1A C2A 1_555 1_555
C2A C3A 1_555 1_555
C3A C7 1_555 1_555
H1A C3A 1_555 1_555
C4A C1A 1_555 1_555
C7A C3 1_555 1_555
H3A C7A 1_555 1_555
N2A C5A 1_555 1_555
C5A C1A 1_555 1_555
Cu1A N3A 1_555 1_555
N1A Cu1A 1_555 1_555
C6A N1A 1_555 1_555
H2A C6A 1_555 1_555
C8A N1A 1_555 1_555
C9A C6A 1_555 1_555
H4A C9A 1_555 1_555
C10A C9A 1_555 1_555
H5A C10A 1_555 1_555
C11A C8A 1_555 1_555
H6A C11A 1_555 1_555
C12A C8A 1_555 1_555
H7A C12A 1_555 1_555
H8A C12A 1_555 1_555
H9A C12A 1_555 1_555
Cu1_2 N2 1_555 1_555
Cu1_3 N2A 1_555 1_555
Cu1A_2 N2 1_555 1_555
Cu1A_3 N2A 1_555 1_555
N2_2 Cu1A 1_555 1_555
N2_3 Cu1 1_555 1_555
N2A_2 Cu1A 1_555 1_555
N2A_3 Cu1 1_555 1_555
C1 C4 1_555 1_555
C10 C11 1_555 1_555
C2A C7A 1_555 1_555
C10A C11A 1_555 1_555

#END
