
#######################################################################
#
#                 Cambridge Crystallographic Data Centre
#                                CCDC 
#
#######################################################################
#
# If this CIF has been generated from an entry in the Cambridge 
# Structural Database, then it will include bibliographic, chemical, 
# crystal, experimental, refinement or atomic coordinate data resulting 
# from the CCDC's data processing and validation procedures.
#
#######################################################################

data_BUKDUI
_symmetry_cell_setting           triclinic
_symmetry_space_group_name_H-M   'P -1'
_symmetry_Int_Tables_number      2
_space_group_name_Hall           '-P 1'
loop_
_symmetry_equiv_pos_site_id
_symmetry_equiv_pos_as_xyz
1 x,y,z
2 -x,-y,-z
_cell_length_a                   7.9934(6)
_cell_length_b                   8.3301(7)
_cell_length_c                   10.1150(7)
_cell_angle_alpha                109.748(7)
_cell_angle_beta                 97.865(6)
_cell_angle_gamma                99.444(6)
_cell_volume                     611.756
loop_
_atom_site_label
_atom_site_type_symbol
_atom_site_fract_x
_atom_site_fract_y
_atom_site_fract_z
Cu1 Cu 0.12811(5) 0.18285(6) 0.51787(4)
N1 N 0.1779(3) 0.3255(3) 0.7300(3)
N2 N 0.3291(4) 0.1559(4) 0.4384(3)
N3 N 0.8888(4) 0.1328(4) 0.4298(3)
C1 C 0.3012(4) 0.4801(4) 0.7887(4)
H1 H 0.3571 0.5206 0.7275
C2 C 0.4469(4) 0.1338(4) 0.3860(3)
C3 C 0.6629(4) 0.0046(4) 0.0698(3)
H2 H 0.7730 0.0067 0.1153
C4 C 0.3082(5) 0.6085(5) 1.1794(4)
H3 H 0.3915 0.7132 1.2194
C5 C 0.7465(4) 0.1215(4) 0.3805(3)
C6 C 0.3456(4) 0.5766(4) 0.9317(4)
H4 H 0.4288 0.6812 0.9661
C7 C 0.5779(4) 0.1022(4) 0.3091(3)
C8 C 0.3743(4) 0.0430(4) 0.0781(3)
H5 H 0.2882 0.0713 0.1292
C9 C 0.1366(4) 0.3601(4) 0.9689(3)
C10 C 0.2651(4) 0.5178(4) 1.0280(4)
C11 C 0.5379(4) 0.0498(4) 0.1526(3)
C12 C 0.0985(4) 0.2714(4) 0.8196(4)
H6 H 0.0125 0.1686 0.7810
C13 C 0.0514(4) 0.2949(4) 1.0617(4)
H7 H -0.0352 0.1926 1.0232
C14 C 0.2263(5) 0.5409(5) 1.2664(4)
H8 H 0.2556 0.5993 1.3655
C15 C 0.0966(5) 0.3817(5) 1.2055(4)
H9 H 0.0425 0.3370 1.2654
N2A N 0.6709(4) -0.1559(4) -0.4384(3)
C2A C 0.5531(4) -0.1338(4) -0.3860(3)
C3A C 0.3371(4) -0.0046(4) -0.0698(3)
H2A H 0.2270 -0.0067 -0.1153
C7A C 0.4221(4) -0.1022(4) -0.3091(3)
C8A C 0.6257(4) -0.0430(4) -0.0781(3)
H5A H 0.7118 -0.0713 -0.1292
C11A C 0.4621(4) -0.0498(4) -0.1526(3)
N3A N 0.1112(4) -0.1328(4) -0.4298(3)
C5A C 0.2535(4) -0.1215(4) -0.3805(3)
Cu1A Cu -0.12811(5) -0.18285(6) -0.51787(4)
N1A N -0.1779(3) -0.3255(3) -0.7300(3)
C1A C -0.3012(4) -0.4801(4) -0.7887(4)
H1A H -0.3571 -0.5206 -0.7275
C4A C -0.3082(5) -0.6085(5) -1.1794(4)
H3A H -0.3915 -0.7132 -1.2194
C6A C -0.3456(4) -0.5766(4) -0.9317(4)
H4A H -0.4288 -0.6812 -0.9661
C9A C -0.1366(4) -0.3601(4) -0.9689(3)
C10A C -0.2651(4) -0.5178(4) -1.0280(4)
C12A C -0.0985(4) -0.2714(4) -0.8196(4)
H6A H -0.0125 -0.1686 -0.7810
C13A C -0.0514(4) -0.2949(4) -1.0617(4)
H7A H 0.0352 -0.1926 -1.0232
C14A C -0.2263(5) -0.5409(5) -1.2664(4)
H8A H -0.2556 -0.5993 -1.3655
C15A C -0.0966(5) -0.3817(5) -1.2055(4)
H9A H -0.0425 -0.3370 -1.2654
Cu1_2 Cu 1.12811(5) 0.18285(6) 0.51787(4)
Cu1A_2 Cu 0.87189(5) -0.18285(6) -0.51787(4)
N2A_2 N -0.3291(4) -0.1559(4) -0.4384(3)
N3_2 N -0.1112(4) 0.1328(4) 0.4298(3)
loop_
_geom_bond_atom_site_label_1
_geom_bond_atom_site_label_2
_geom_bond_site_symmetry_1
_geom_bond_site_symmetry_2
Cu1 N1 1_555 1_555
N1 C1 1_555 1_555
N2 Cu1 1_555 1_555
N3 C5 1_555 1_555
C1 H1 1_555 1_555
C2 N2 1_555 1_555
C3 H2 1_555 1_555
C4 H3 1_555 1_555
C5 C7 1_555 1_555
C6 C1 1_555 1_555
H4 C6 1_555 1_555
C7 C2 1_555 1_555
C8 H5 1_555 1_555
C9 C10 1_555 1_555
C10 C4 1_555 1_555
C11 C3 1_555 1_555
C12 N1 1_555 1_555
H6 C12 1_555 1_555
C13 C9 1_555 1_555
H7 C13 1_555 1_555
C14 C4 1_555 1_555
H8 C14 1_555 1_555
C15 C13 1_555 1_555
H9 C15 1_555 1_555
N2A C2A 1_555 1_555
C2A C7A 1_555 1_555
C3A C8 1_555 1_555
H2A C3A 1_555 1_555
C7A C11A 1_555 1_555
C8A C3 1_555 1_555
H5A C8A 1_555 1_555
C11A C3A 1_555 1_555
N3A C5A 1_555 1_555
C5A C7A 1_555 1_555
Cu1A N3A 1_555 1_555
N1A Cu1A 1_555 1_555
C1A N1A 1_555 1_555
H1A C1A 1_555 1_555
C4A H3A 1_555 1_555
C6A C1A 1_555 1_555
H4A C6A 1_555 1_555
C9A C10A 1_555 1_555
C10A C4A 1_555 1_555
C12A N1A 1_555 1_555
H6A C12A 1_555 1_555
C13A C9A 1_555 1_555
H7A C13A 1_555 1_555
C14A C4A 1_555 1_555
H8A C14A 1_555 1_555
C15A C13A 1_555 1_555
H9A C15A 1_555 1_555
Cu1_2 N3 1_555 1_555
Cu1A_2 N2A 1_555 1_555
N2A_2 Cu1A 1_555 1_555
N3_2 Cu1 1_555 1_555
C6 C10 1_555 1_555
C7 C11 1_555 1_555
C8 C11 1_555 1_555
C9 C12 1_555 1_555
C14 C15 1_555 1_555
C8A C11A 1_555 1_555
C6A C10A 1_555 1_555
C9A C12A 1_555 1_555
C14A C15A 1_555 1_555

#END
