
#######################################################################
#
#                 Cambridge Crystallographic Data Centre
#                                CCDC 
#
#######################################################################
#
# If this CIF has been generated from an entry in the Cambridge 
# Structural Database, then it will include bibliographic, chemical, 
# crystal, experimental, refinement or atomic coordinate data resulting 
# from the CCDC's data processing and validation procedures.
#
#######################################################################

data_BUKFEU
_symmetry_cell_setting           triclinic
_symmetry_space_group_name_H-M   'P -1'
_symmetry_Int_Tables_number      2
_space_group_name_Hall           '-P 1'
loop_
_symmetry_equiv_pos_site_id
_symmetry_equiv_pos_as_xyz
1 x,y,z
2 -x,-y,-z
_cell_length_a                   7.5063(5)
_cell_length_b                   9.2925(7)
_cell_length_c                   10.7697(7)
_cell_angle_alpha                65.132(7)
_cell_angle_beta                 84.915(5)
_cell_angle_gamma                67.579(6)
_cell_volume                     627.726
loop_
_atom_site_label
_atom_site_type_symbol
_atom_site_fract_x
_atom_site_fract_y
_atom_site_fract_z
Cu1 Cu 0.15748(4) 0.31934(4) 0.08074(3)
F1 F -0.77431(17) 0.46277(18) 0.38450(13)
F2 F -0.14128(17) 0.44462(18) 0.41404(13)
C1 C 0.1024(3) 0.1585(3) -0.2223(2)
H1 H 0.0457 0.2159 -0.3142
N1 N 0.1824(2) 0.1749(2) -0.01897(18)
N2 N -0.0961(3) 0.3841(2) 0.14940(18)
C2 C -0.6328(3) 0.4798(3) 0.4399(2)
N3 N -0.6479(3) 0.3576(2) 0.15004(18)
C3 C -0.2364(3) 0.3961(3) 0.2048(2)
C4 C -0.4106(3) 0.4101(3) 0.2661(2)
C5 C 0.1020(3) 0.2502(3) -0.1488(2)
H2 H 0.0423 0.3718 -0.1920
C6 C -0.5425(3) 0.3818(3) 0.2034(2)
C7 C 0.1872(4) -0.0187(3) -0.1587(3)
H3 H 0.1888 -0.0852 -0.2061
C8 C -0.4541(3) 0.4512(2) 0.38481(19)
C9 C -0.3222(3) 0.4720(3) 0.4535(2)
C10 C 0.2693(3) -0.0973(3) -0.0257(3)
H4 H 0.3281 -0.2188 0.0193
C11 C 0.2659(3) 0.0021(3) 0.0427(2)
C12 C 0.3523(4) -0.0772(3) 0.1873(3)
H5 H 0.4275 -0.0148 0.1949
H6 H 0.4373 -0.1974 0.2121
H7 H 0.2488 -0.0716 0.2494
F1A F -0.22569(17) 0.53723(18) 0.61550(13)
F2A F -0.85872(17) 0.55538(18) 0.58596(13)
N2A N -0.9039(3) 0.6159(2) 0.85060(18)
C2A C -0.3672(3) 0.5202(3) 0.5601(2)
N3A N -0.3521(3) 0.6424(2) 0.84996(18)
C3A C -0.7636(3) 0.6039(3) 0.7952(2)
C4A C -0.5894(3) 0.5899(3) 0.7339(2)
C6A C -0.4575(3) 0.6182(3) 0.7966(2)
C8A C -0.5459(3) 0.5488(2) 0.61519(19)
C9A C -0.6778(3) 0.5280(3) 0.5465(2)
Cu1A Cu -1.15748(4) 0.68066(4) 0.91926(3)
C1A C -1.1024(3) 0.8415(3) 1.2223(2)
H1A H -1.0457 0.7841 1.3142
N1A N -1.1824(2) 0.8251(2) 1.01897(18)
C5A C -1.1020(3) 0.7498(3) 1.1488(2)
H2A H -1.0423 0.6282 1.1920
C7A C -1.1872(4) 1.0187(3) 1.1587(3)
H3A H -1.1888 1.0852 1.2061
C10A C -1.2693(3) 1.0973(3) 1.0257(3)
H4A H -1.3281 1.2188 0.9807
C11A C -1.2659(3) 0.9979(3) 0.9573(2)
C12A C -1.3523(4) 1.0772(3) 0.8127(3)
H5A H -1.4275 1.0148 0.8051
H6A H -1.4373 1.1974 0.7879
H7A H -1.2488 1.0716 0.7506
Cu1_2 Cu -0.84252(4) 0.31934(4) 0.08074(3)
Cu1_3 Cu -0.84252(4) 0.31934(4) 1.08074(3)
Cu1A_2 Cu -0.15748(4) 0.68066(4) -0.08074(3)
Cu1A_3 Cu -0.15748(4) 0.68066(4) 0.91926(3)
N2_2 N -1.0961(3) 0.3841(2) 1.14940(18)
N2A_2 N 0.0961(3) 0.6159(2) -0.14940(18)
N3_2 N 0.3521(3) 0.3576(2) 0.15004(18)
N3A_2 N -1.3521(3) 0.6424(2) 0.84996(18)
loop_
_geom_bond_atom_site_label_1
_geom_bond_atom_site_label_2
_geom_bond_site_symmetry_1
_geom_bond_site_symmetry_2
Cu1 N1 1_555 1_555
F1 C2 1_555 1_555
F2 C9 1_555 1_555
C1 H1 1_555 1_555
N1 C5 1_555 1_555
N2 Cu1 1_555 1_555
C2 C8 1_555 1_555
N3 C6 1_555 1_555
C3 N2 1_555 1_555
C4 C3 1_555 1_555
C5 C1 1_555 1_555
H2 C5 1_555 1_555
C6 C4 1_555 1_555
C7 C1 1_555 1_555
H3 C7 1_555 1_555
C8 C4 1_555 1_555
C9 C8 1_555 1_555
C10 C7 1_555 1_555
H4 C10 1_555 1_555
C11 N1 1_555 1_555
C12 C11 1_555 1_555
H5 C12 1_555 1_555
H6 C12 1_555 1_555
H7 C12 1_555 1_555
F1A C2A 1_555 1_555
F2A C9A 1_555 1_555
N2A C3A 1_555 1_555
C2A C9 1_555 1_555
N3A C6A 1_555 1_555
C3A C4A 1_555 1_555
C4A C6A 1_555 1_555
C8A C2A 1_555 1_555
C9A C2 1_555 1_555
Cu1A N2A 1_555 1_555
C1A H1A 1_555 1_555
N1A Cu1A 1_555 1_555
C5A C1A 1_555 1_555
H2A C5A 1_555 1_555
C7A C1A 1_555 1_555
H3A C7A 1_555 1_555
C10A C7A 1_555 1_555
H4A C10A 1_555 1_555
C11A N1A 1_555 1_555
C12A C11A 1_555 1_555
H5A C12A 1_555 1_555
H6A C12A 1_555 1_555
H7A C12A 1_555 1_555
Cu1_2 N3 1_555 1_555
Cu1_3 N2A 1_555 1_555
Cu1A_2 N2 1_555 1_555
Cu1A_3 N3A 1_555 1_555
N2_2 Cu1A 1_555 1_555
N2A_2 Cu1 1_555 1_555
N3_2 Cu1 1_555 1_555
N3A_2 Cu1A 1_555 1_555
C10 C11 1_555 1_555
C4A C8A 1_555 1_555
C8A C9A 1_555 1_555
N1A C5A 1_555 1_555
C10A C11A 1_555 1_555
Cu1_3 N2_2 1_555 1_555
Cu1A_2 N2A_2 1_555 1_555

#END
