
#######################################################################
#
#                 Cambridge Crystallographic Data Centre
#                                CCDC 
#
#######################################################################
#
# If this CIF has been generated from an entry in the Cambridge 
# Structural Database, then it will include bibliographic, chemical, 
# crystal, experimental, refinement or atomic coordinate data resulting 
# from the CCDC's data processing and validation procedures.
#
#######################################################################

data_BUKFOE
_symmetry_cell_setting           triclinic
_symmetry_space_group_name_H-M   'P -1'
_symmetry_Int_Tables_number      2
_space_group_name_Hall           '-P 1'
loop_
_symmetry_equiv_pos_site_id
_symmetry_equiv_pos_as_xyz
1 x,y,z
2 -x,-y,-z
_cell_length_a                   13.6794(4)
_cell_length_b                   15.0604(6)
_cell_length_c                   15.7902(6)
_cell_angle_alpha                62.791(4)
_cell_angle_beta                 72.902(3)
_cell_angle_gamma                82.785(3)
_cell_volume                     2765.07
loop_
_atom_site_label
_atom_site_type_symbol
_atom_site_fract_x
_atom_site_fract_y
_atom_site_fract_z
Cu1 Cu 0.77337(2) 0.37309(2) 0.27256(2)
Cu2 Cu 0.86247(3) -0.09338(2) 0.18030(2)
P1 P 0.79749(4) 0.00219(4) 0.05603(4)
P2 P 0.68883(4) 0.46036(4) 0.15796(4)
P3 P 0.67790(4) 0.28114(4) 0.43158(4)
F1 F 1.05430(11) 0.41663(10) 0.37317(10)
F2 F 0.87754(10) 0.66142(10) 0.46804(10)
F3 F 0.89487(10) -0.12493(9) 0.47744(10)
F4 F 1.03523(10) 0.19367(9) 0.36697(10)
N1 N 0.86339(14) 0.26190(13) 0.25388(14)
N2 N 0.86858(15) 0.46358(14) 0.27336(14)
N3 N 0.87982(17) -0.02992(15) 0.25729(15)
C1 C 0.89309(16) 0.51781(16) 0.29635(16)
C2 C 0.62010(17) 0.57108(16) 0.16332(17)
C3 C 0.73324(17) 0.27838(16) 0.52487(16)
C4 C 0.92091(18) 0.58189(16) 0.32746(17)
C5 C 0.88794(16) 0.17943(16) 0.28646(16)
C6 C 0.48756(18) 0.04542(18) 0.0854(2)
H1 H 0.4431 0.0738 0.0435
N4 N 0.88964(18) 0.76806(15) 0.23651(16)
C7 C 0.95955(16) 0.03888(16) 0.41408(16)
C8 C 0.83988(18) 0.13225(16) -0.00404(17)
C9 C 0.91627(17) 0.07879(16) 0.32959(16)
C10 C 0.76502(17) 0.51476(16) 0.02897(17)
C11 C 0.86343(19) 0.54632(17) 0.01147(18)
H2 H 0.8886 0.5347 0.0657
C12 C 1.02543(17) 0.45941(16) 0.43531(17)
C13 C 1.01459(16) 0.09686(15) 0.43285(16)
C14 C 0.93808(17) 0.58053(16) 0.48229(17)
C15 C 0.96113(17) 0.54158(16) 0.41385(17)
C16 C 0.64749(19) 0.61350(17) 0.21522(18)
H3 H 0.6979 0.5826 0.2500
C17 C 0.80944(17) -0.03499(17) -0.04139(17)
C18 C 0.94780(16) -0.06059(16) 0.48547(16)
C19 C 0.70001(18) 0.07282(17) 0.54241(17)
H4 H 0.7249 0.0886 0.5842
C20 C 0.90306(18) 0.68353(17) 0.27757(17)
C21 C 0.6221(2) 0.31580(18) 0.12353(19)
H5 H 0.6899 0.3187 0.0834
C22 C 0.54516(18) 0.31671(17) 0.46643(17)
C23 C 0.5018(2) 0.70551(19) 0.1132(2)
H6 H 0.4520 0.7374 0.0779
C24 C 0.59262(17) 0.38145(16) 0.16614(16)
C25 C 0.54699(19) 0.61800(18) 0.11176(19)
H7 H 0.5280 0.5902 0.0755
C26 C 0.65852(17) 0.00559(16) 0.10421(17)
C27 C 0.66920(16) 0.14895(17) 0.46310(17)
C28 C 0.49389(18) 0.37346(18) 0.22830(19)
H8 H 0.4733 0.4164 0.2595
C29 C 0.5287(2) 0.74628(18) 0.1658(2)
H9 H 0.4971 0.8058 0.1669
C30 C 0.7833(2) -0.13382(18) -0.01085(19)
H10 H 0.7609 -0.1775 0.0577
C31 C 0.7927(2) 0.5789(2) -0.14642(19)
H11 H 0.7686 0.5894 -0.2009
C32 C 0.59207(18) 0.04370(17) 0.04459(18)
H12 H 0.6184 0.0690 -0.0250
C33 C 0.89556(17) 0.01850(16) 0.29139(16)
C34 C 0.5128(2) -0.0331(2) 0.2464(2)
H13 H 0.4857 -0.0603 0.3161
C35 C 0.83880(18) 0.26529(17) 0.50838(18)
H14 H 0.8777 0.2603 0.4500
C36 C 0.61764(19) -0.0334(2) 0.20619(19)
H15 H 0.6618 -0.0603 0.2485
C37 C 0.63362(18) 0.12466(19) 0.40226(19)
H16 H 0.6135 0.1761 0.3472
C38 C 0.44804(19) 0.00605(19) 0.1864(2)
H17 H 0.3763 0.0060 0.2144
C39 C 0.5530(2) 0.2462(2) 0.1395(2)
H18 H 0.5733 0.2025 0.1092
C40 C 0.6014(2) 0.70085(18) 0.2165(2)
H19 H 0.6202 0.7291 0.2524
C41 C 0.7895(2) -0.1687(2) -0.0796(2)
H20 H 0.7705 -0.2357 -0.0580
C42 C 0.5265(2) 0.4180(2) 0.4344(2)
H21 H 0.5821 0.4642 0.3980
C43 C 0.92346(19) 0.15355(19) 0.01678(19)
H22 H 0.9587 0.1005 0.0577
C44 C 0.9063(2) 0.32903(19) -0.0819(2)
H23 H 0.9283 0.3960 -0.1079
C45 C 0.84370(19) 0.02703(18) -0.14196(18)
H24 H 0.8628 0.0942 -0.1641
C46 C 0.67756(19) 0.28769(18) 0.60939(18)
H25 H 0.6054 0.2950 0.6224
C47 C 0.8899(2) 0.60975(18) -0.1627(2)
H26 H 0.9326 0.6415 -0.2282
C48 C 0.69450(19) -0.02606(18) 0.56079(19)
H27 H 0.7159 -0.0777 0.6149
C49 C 0.4547(2) 0.2400(2) 0.1994(2)
H28 H 0.4073 0.1929 0.2096
C50 C 0.79090(19) 0.21138(18) -0.06597(19)
H29 H 0.7342 0.1983 -0.0820
C51 C 0.6580(2) -0.04942(19) 0.5007(2)
H30 H 0.6537 -0.1171 0.5135
C52 C 0.6275(2) 0.0262(2) 0.4216(2)
H31 H 0.6022 0.0102 0.3802
C53 C 0.46242(19) 0.2509(2) 0.5183(2)
H32 H 0.4735 0.1814 0.5395
C54 C 0.9563(2) 0.2517(2) -0.0216(2)
H33 H 1.0132 0.2654 -0.0063
C55 C 0.88722(19) 0.25954(17) 0.57597(18)
H34 H 0.9585 0.2470 0.5658
C56 C 0.7295(2) 0.53229(19) -0.05065(18)
H35 H 0.6620 0.5126 -0.0401
C57 C 0.8240(2) 0.30870(18) -0.1044(2)
H36 H 0.7899 0.3619 -0.1464
C58 C 0.7275(2) 0.2862(2) 0.67497(19)
H37 H 0.6895 0.2951 0.7314
C59 C 0.9252(2) 0.59462(19) -0.0843(2)
H38 H 0.9918 0.6171 -0.0955
C60 C 0.4259(2) 0.3026(2) 0.2443(2)
H39 H 0.3589 0.2972 0.2867
C61 C 0.8234(2) -0.1063(2) -0.1795(2)
H40 H 0.8282 -0.1304 -0.2267
C62 C 0.3471(2) 0.3867(2) 0.5083(3)
H41 H 0.2797 0.4105 0.5237
C63 C 0.4278(2) 0.4528(2) 0.4548(2)
H42 H 0.4160 0.5225 0.4317
C64 C 0.8320(2) 0.27197(19) 0.65882(19)
H43 H 0.8657 0.2707 0.7041
C65 C 0.8501(2) -0.0089(2) -0.2103(2)
H44 H 0.8732 0.0341 -0.2790
C66 C 0.3637(2) 0.2858(2) 0.5396(3)
H45 H 0.3077 0.2401 0.5757
F1A F 0.94570(11) 0.58337(10) 0.62683(10)
F2A F 1.12246(10) 0.33858(10) 0.53196(10)
N2A N 1.13142(15) 0.53642(14) 0.72664(14)
C1A C 1.10691(16) 0.48219(16) 0.70365(16)
C4A C 1.07909(18) 0.41811(16) 0.67254(17)
N4A N 1.11036(18) 0.23194(15) 0.76349(16)
C12A C 0.97457(17) 0.54059(16) 0.56469(17)
C14A C 1.06192(17) 0.41947(16) 0.51771(17)
C15A C 1.03887(17) 0.45842(16) 0.58615(17)
C20A C 1.09694(18) 0.31647(17) 0.72243(17)
F3A F 1.10513(10) 0.12493(9) 0.52256(10)
F4A F 0.96477(10) -0.19367(9) 0.63303(10)
N1A N 1.13661(14) -0.26190(13) 0.74612(14)
N3A N 1.12018(17) 0.02992(15) 0.74271(15)
C5A C 1.11206(16) -0.17943(16) 0.71354(16)
C7A C 1.04045(16) -0.03888(16) 0.58592(16)
C9A C 1.08373(17) -0.07879(16) 0.67041(16)
C13A C 0.98541(16) -0.09686(15) 0.56715(16)
C18A C 1.05220(16) 0.06059(16) 0.51453(16)
C33A C 1.10444(17) -0.01850(16) 0.70861(16)
Cu1A Cu 1.22663(2) -0.37309(2) 0.72744(2)
Cu2A Cu 1.13753(3) 0.09338(2) 0.81970(2)
P1A P 1.20251(4) -0.00219(4) 0.94397(4)
P2A P 1.31117(4) -0.46036(4) 0.84204(4)
P3A P 1.32210(4) -0.28114(4) 0.56842(4)
C2A C 1.37990(17) -0.57108(16) 0.83668(17)
C3A C 1.26676(17) -0.27838(16) 0.47513(16)
C6A C 1.51244(18) -0.04542(18) 0.9146(2)
H1A H 1.5569 -0.0738 0.9565
C8A C 1.16012(18) -0.13225(16) 1.00404(17)
C10A C 1.23498(17) -0.51476(16) 0.97103(17)
C11A C 1.13657(19) -0.54632(17) 0.98853(18)
H2A H 1.1114 -0.5347 0.9343
C16A C 1.35251(19) -0.61350(17) 0.78478(18)
H3A H 1.3021 -0.5826 0.7500
C17A C 1.19056(17) 0.03499(17) 1.04139(17)
C19A C 1.29999(18) -0.07282(17) 0.45759(17)
H4A H 1.2751 -0.0886 0.4158
C21A C 1.3779(2) -0.31580(18) 0.87647(19)
H5A H 1.3101 -0.3187 0.9166
C22A C 1.45484(18) -0.31671(17) 0.53357(17)
C23A C 1.4982(2) -0.70551(19) 0.8868(2)
H6A H 1.5480 -0.7374 0.9221
C24A C 1.40738(17) -0.38145(16) 0.83386(16)
C25A C 1.45301(19) -0.61800(18) 0.88824(19)
H7A H 1.4720 -0.5902 0.9245
C26A C 1.34148(17) -0.00559(16) 0.89579(17)
C27A C 1.33080(16) -0.14895(17) 0.53690(17)
C28A C 1.50611(18) -0.37346(18) 0.77170(19)
H8A H 1.5267 -0.4164 0.7405
C29A C 1.4713(2) -0.74628(18) 0.8342(2)
H9A H 1.5029 -0.8058 0.8331
C30A C 1.2167(2) 0.13382(18) 1.01085(19)
H10A H 1.2391 0.1775 0.9423
C31A C 1.2073(2) -0.5789(2) 1.14642(19)
H11A H 1.2314 -0.5894 1.2009
C32A C 1.40793(18) -0.04370(17) 0.95541(18)
H12A H 1.3816 -0.0690 1.0250
C34A C 1.4872(2) 0.0331(2) 0.7536(2)
H13A H 1.5143 0.0603 0.6839
C35A C 1.16120(18) -0.26529(17) 0.49162(18)
H14A H 1.1223 -0.2603 0.5500
C36A C 1.38236(19) 0.0334(2) 0.79381(19)
H15A H 1.3382 0.0603 0.7515
C37A C 1.36638(18) -0.12466(19) 0.59774(19)
H16A H 1.3865 -0.1761 0.6528
C38A C 1.55196(19) -0.00605(19) 0.8136(2)
H17A H 1.6237 -0.0060 0.7856
C39A C 1.4470(2) -0.2462(2) 0.8605(2)
H18A H 1.4267 -0.2025 0.8908
C40A C 1.3986(2) -0.70085(18) 0.7835(2)
H19A H 1.3798 -0.7291 0.7476
C41A C 1.2105(2) 0.1687(2) 1.0796(2)
H20A H 1.2295 0.2357 1.0580
C42A C 1.4735(2) -0.4180(2) 0.5656(2)
H21A H 1.4179 -0.4642 0.6020
C43A C 1.07654(19) -0.15355(19) 0.98322(19)
H22A H 1.0413 -0.1005 0.9423
C44A C 1.0937(2) -0.32903(19) 1.0819(2)
H23A H 1.0717 -0.3960 1.1079
C45A C 1.15630(19) -0.02703(18) 1.14196(18)
H24A H 1.1372 -0.0942 1.1641
C46A C 1.32244(19) -0.28769(18) 0.39061(18)
H25A H 1.3946 -0.2950 0.3776
C47A C 1.1101(2) -0.60975(18) 1.1627(2)
H26A H 1.0674 -0.6415 1.2282
C48A C 1.30550(19) 0.02606(18) 0.43921(19)
H27A H 1.2841 0.0777 0.3851
C49A C 1.5453(2) -0.2400(2) 0.8006(2)
H28A H 1.5927 -0.1929 0.7904
C50A C 1.20910(19) -0.21138(18) 1.06597(19)
H29A H 1.2658 -0.1983 1.0820
C51A C 1.3420(2) 0.04942(19) 0.4993(2)
H30A H 1.3463 0.1171 0.4865
C52A C 1.3725(2) -0.0262(2) 0.5784(2)
H31A H 1.3978 -0.0102 0.6198
C53A C 1.53758(19) -0.2509(2) 0.4817(2)
H32A H 1.5265 -0.1814 0.4605
C54A C 1.0437(2) -0.2517(2) 1.0216(2)
H33A H 0.9868 -0.2654 1.0063
C55A C 1.11278(19) -0.25954(17) 0.42403(18)
H34A H 1.0415 -0.2470 0.4342
C56A C 1.2705(2) -0.53229(19) 1.05065(18)
H35A H 1.3380 -0.5126 1.0401
C57A C 1.1760(2) -0.30870(18) 1.1044(2)
H36A H 1.2101 -0.3619 1.1464
C58A C 1.2725(2) -0.2862(2) 0.32503(19)
H37A H 1.3105 -0.2951 0.2686
C59A C 1.0748(2) -0.59462(19) 1.0843(2)
H38A H 1.0082 -0.6171 1.0955
C60A C 1.5741(2) -0.3026(2) 0.7557(2)
H39A H 1.6411 -0.2972 0.7133
C61A C 1.1766(2) 0.1063(2) 1.1795(2)
H40A H 1.1718 0.1304 1.2267
C62A C 1.6529(2) -0.3867(2) 0.4917(3)
H41A H 1.7203 -0.4105 0.4763
C63A C 1.5722(2) -0.4528(2) 0.5452(2)
H42A H 1.5840 -0.5225 0.5683
C64A C 1.1680(2) -0.27197(19) 0.34118(19)
H43A H 1.1343 -0.2707 0.2959
C65A C 1.1499(2) 0.0089(2) 1.2103(2)
H44A H 1.1268 -0.0341 1.2790
C66A C 1.6363(2) -0.2858(2) 0.4604(3)
H45A H 1.6923 -0.2401 0.4243
Cu1A_2 Cu 1.22663(2) 0.62691(2) 0.72744(2)
Cu2_2 Cu 0.86247(3) 0.90662(2) 0.18030(2)
N2A_2 N 1.13142(15) -0.46358(14) 0.72664(14)
N4_2 N 0.88964(18) -0.23194(15) 0.23651(16)
loop_
_geom_bond_atom_site_label_1
_geom_bond_atom_site_label_2
_geom_bond_site_symmetry_1
_geom_bond_site_symmetry_2
Cu1 P2 1_555 1_555
Cu2 P1 1_555 1_555
P1 C8 1_555 1_555
P2 C2 1_555 1_555
P3 Cu1 1_555 1_555
F1 C12 1_555 1_555
F2 C14 1_555 1_555
F3 C18 1_555 1_555
F4 C13 1_555 1_555
N1 Cu1 1_555 1_555
N2 Cu1 1_555 1_555
N3 Cu2 1_555 1_555
C1 N2 1_555 1_555
C2 C16 1_555 1_555
C3 P3 1_555 1_555
C4 C1 1_555 1_555
C5 N1 1_555 1_555
C6 H1 1_555 1_555
N4 C20 1_555 1_555
C7 C9 1_555 1_555
C8 C43 1_555 1_555
C9 C5 1_555 1_555
C10 P2 1_555 1_555
C11 C10 1_555 1_555
H2 C11 1_555 1_555
C12 C15 1_555 1_555
C13 C7 1_555 1_555
C14 C15 1_555 1_555
C15 C4 1_555 1_555
C16 H3 1_555 1_555
C17 P1 1_555 1_555
C18 C7 1_555 1_555
C19 H4 1_555 1_555
C20 C4 1_555 1_555
C21 H5 1_555 1_555
C22 P3 1_555 1_555
C23 H6 1_555 1_555
C24 P2 1_555 1_555
C25 C2 1_555 1_555
H7 C25 1_555 1_555
C26 P1 1_555 1_555
C27 P3 1_555 1_555
C28 C24 1_555 1_555
H8 C28 1_555 1_555
C29 C23 1_555 1_555
H9 C29 1_555 1_555
C30 C17 1_555 1_555
H10 C30 1_555 1_555
C31 H11 1_555 1_555
C32 C6 1_555 1_555
H12 C32 1_555 1_555
C33 N3 1_555 1_555
C34 H13 1_555 1_555
C35 C3 1_555 1_555
H14 C35 1_555 1_555
C36 C26 1_555 1_555
H15 C36 1_555 1_555
C37 C27 1_555 1_555
H16 C37 1_555 1_555
C38 C6 1_555 1_555
H17 C38 1_555 1_555
C39 C21 1_555 1_555
H18 C39 1_555 1_555
C40 C16 1_555 1_555
H19 C40 1_555 1_555
C41 C30 1_555 1_555
H20 C41 1_555 1_555
C42 C22 1_555 1_555
H21 C42 1_555 1_555
C43 H22 1_555 1_555
C44 H23 1_555 1_555
C45 C17 1_555 1_555
H24 C45 1_555 1_555
C46 C3 1_555 1_555
H25 C46 1_555 1_555
C47 C31 1_555 1_555
H26 C47 1_555 1_555
C48 C19 1_555 1_555
H27 C48 1_555 1_555
C49 C39 1_555 1_555
H28 C49 1_555 1_555
C50 C8 1_555 1_555
H29 C50 1_555 1_555
C51 C48 1_555 1_555
H30 C51 1_555 1_555
C52 C37 1_555 1_555
H31 C52 1_555 1_555
C53 C22 1_555 1_555
H32 C53 1_555 1_555
C54 C43 1_555 1_555
H33 C54 1_555 1_555
C55 C35 1_555 1_555
H34 C55 1_555 1_555
C56 C10 1_555 1_555
H35 C56 1_555 1_555
C57 C44 1_555 1_555
H36 C57 1_555 1_555
C58 C46 1_555 1_555
H37 C58 1_555 1_555
C59 C11 1_555 1_555
H38 C59 1_555 1_555
C60 C28 1_555 1_555
H39 C60 1_555 1_555
C61 C41 1_555 1_555
H40 C61 1_555 1_555
C62 H41 1_555 1_555
C63 C42 1_555 1_555
H42 C63 1_555 1_555
C64 C55 1_555 1_555
H43 C64 1_555 1_555
C65 C45 1_555 1_555
H44 C65 1_555 1_555
C66 C53 1_555 1_555
H45 C66 1_555 1_555
F1A C12A 1_555 1_555
F2A C14A 1_555 1_555
N2A C1A 1_555 1_555
C1A C4A 1_555 1_555
C4A C15A 1_555 1_555
N4A C20A 1_555 1_555
C12A C14 1_555 1_555
C14A C12 1_555 1_555
C15A C12A 1_555 1_555
C20A C4A 1_555 1_555
F3A C18A 1_555 1_555
F4A C13A 1_555 1_555
N1A C5A 1_555 1_555
N3A C33A 1_555 1_555
C5A C9A 1_555 1_555
C7A C9A 1_555 1_555
C9A C33A 1_555 1_555
C13A C18 1_555 1_555
C18A C13 1_555 1_555
Cu1A N1A 1_555 1_555
Cu2A N4A 1_555 1_555
P1A Cu2A 1_555 1_555
P2A Cu1A 1_555 1_555
P3A Cu1A 1_555 1_555
C2A P2A 1_555 1_555
C3A P3A 1_555 1_555
C6A H1A 1_555 1_555
C8A P1A 1_555 1_555
C10A P2A 1_555 1_555
C11A C10A 1_555 1_555
H2A C11A 1_555 1_555
C16A C2A 1_555 1_555
H3A C16A 1_555 1_555
C17A P1A 1_555 1_555
C19A H4A 1_555 1_555
C21A H5A 1_555 1_555
C22A P3A 1_555 1_555
C23A H6A 1_555 1_555
C24A P2A 1_555 1_555
C25A C2A 1_555 1_555
H7A C25A 1_555 1_555
C26A P1A 1_555 1_555
C27A P3A 1_555 1_555
C28A C24A 1_555 1_555
H8A C28A 1_555 1_555
C29A C23A 1_555 1_555
H9A C29A 1_555 1_555
C30A C17A 1_555 1_555
H10A C30A 1_555 1_555
C31A H11A 1_555 1_555
C32A C6A 1_555 1_555
H12A C32A 1_555 1_555
C34A H13A 1_555 1_555
C35A C3A 1_555 1_555
H14A C35A 1_555 1_555
C36A C26A 1_555 1_555
H15A C36A 1_555 1_555
C37A C27A 1_555 1_555
H16A C37A 1_555 1_555
C38A C6A 1_555 1_555
H17A C38A 1_555 1_555
C39A C21A 1_555 1_555
H18A C39A 1_555 1_555
C40A C16A 1_555 1_555
H19A C40A 1_555 1_555
C41A C30A 1_555 1_555
H20A C41A 1_555 1_555
C42A C22A 1_555 1_555
H21A C42A 1_555 1_555
C43A C8A 1_555 1_555
H22A C43A 1_555 1_555
C44A H23A 1_555 1_555
C45A C17A 1_555 1_555
H24A C45A 1_555 1_555
C46A C3A 1_555 1_555
H25A C46A 1_555 1_555
C47A C31A 1_555 1_555
H26A C47A 1_555 1_555
C48A C19A 1_555 1_555
H27A C48A 1_555 1_555
C49A C39A 1_555 1_555
H28A C49A 1_555 1_555
C50A C8A 1_555 1_555
H29A C50A 1_555 1_555
C51A C48A 1_555 1_555
H30A C51A 1_555 1_555
C52A C37A 1_555 1_555
H31A C52A 1_555 1_555
C53A C22A 1_555 1_555
H32A C53A 1_555 1_555
C54A C43A 1_555 1_555
H33A C54A 1_555 1_555
C55A C35A 1_555 1_555
H34A C55A 1_555 1_555
C56A C10A 1_555 1_555
H35A C56A 1_555 1_555
C57A C44A 1_555 1_555
H36A C57A 1_555 1_555
C58A C46A 1_555 1_555
H37A C58A 1_555 1_555
C59A C11A 1_555 1_555
H38A C59A 1_555 1_555
C60A C28A 1_555 1_555
H39A C60A 1_555 1_555
C61A C41A 1_555 1_555
H40A C61A 1_555 1_555
C62A H41A 1_555 1_555
C63A C42A 1_555 1_555
H42A C63A 1_555 1_555
C64A C55A 1_555 1_555
H43A C64A 1_555 1_555
C65A C45A 1_555 1_555
H44A C65A 1_555 1_555
C66A C53A 1_555 1_555
H45A C66A 1_555 1_555
Cu1A_2 N2A 1_555 1_555
Cu2_2 N4 1_555 1_555
N2A_2 Cu1A 1_555 1_555
N4_2 Cu2 1_555 1_555
C9 C33 1_555 1_555
C19 C27 1_555 1_555
C21 C24 1_555 1_555
C23 C25 1_555 1_555
C26 C32 1_555 1_555
C29 C40 1_555 1_555
C31 C56 1_555 1_555
C34 C36 1_555 1_555
C34 C38 1_555 1_555
C44 C54 1_555 1_555
C47 C59 1_555 1_555
C49 C60 1_555 1_555
C50 C57 1_555 1_555
C51 C52 1_555 1_555
C58 C64 1_555 1_555
C61 C65 1_555 1_555
C62 C63 1_555 1_555
C62 C66 1_555 1_555
C14A C15A 1_555 1_555
N3A Cu2A 1_555 1_555
C7A C13A 1_555 1_555
C7A C18A 1_555 1_555
C19A C27A 1_555 1_555
C21A C24A 1_555 1_555
C23A C25A 1_555 1_555
C26A C32A 1_555 1_555
C29A C40A 1_555 1_555
C31A C56A 1_555 1_555
C34A C36A 1_555 1_555
C34A C38A 1_555 1_555
C44A C54A 1_555 1_555
C47A C59A 1_555 1_555
C49A C60A 1_555 1_555
C50A C57A 1_555 1_555
C51A C52A 1_555 1_555
C58A C64A 1_555 1_555
C61A C65A 1_555 1_555
C62A C63A 1_555 1_555
C62A C66A 1_555 1_555

#END
