
#######################################################################
#
#                 Cambridge Crystallographic Data Centre
#                                CCDC 
#
#######################################################################
#
# If this CIF has been generated from an entry in the Cambridge 
# Structural Database, then it will include bibliographic, chemical, 
# crystal, experimental, refinement or atomic coordinate data resulting 
# from the CCDC's data processing and validation procedures.
#
#######################################################################

data_BUKFAQ
_symmetry_cell_setting           triclinic
_symmetry_space_group_name_H-M   'P -1'
_symmetry_Int_Tables_number      2
_space_group_name_Hall           '-P 1'
loop_
_symmetry_equiv_pos_site_id
_symmetry_equiv_pos_as_xyz
1 x,y,z
2 -x,-y,-z
_cell_length_a                   7.7912(5)
_cell_length_b                   9.5338(7)
_cell_length_c                   9.9023(4)
_cell_angle_alpha                93.423(5)
_cell_angle_beta                 95.079(4)
_cell_angle_gamma                111.742(6)
_cell_volume                     677.123
loop_
_atom_site_label
_atom_site_type_symbol
_atom_site_fract_x
_atom_site_fract_y
_atom_site_fract_z
Cu1 Cu 0.14960(5) 0.67235(5) 0.49702(4)
N1 N -0.1042(3) 0.6061(2) 0.4112(2)
N2 N -0.6455(3) 0.6691(3) 0.4099(2)
N3 N 0.1725(3) 0.7776(3) 0.6824(2)
C1 C -0.2426(3) 0.6067(3) 0.3579(2)
C2 C -0.5326(3) 0.6412(3) 0.3585(2)
C3 C -0.4531(3) 0.5534(3) 0.1409(2)
C4 C -0.4059(3) 0.6044(3) 0.2870(2)
C5 C -0.6152(3) 0.5531(3) 0.0675(2)
H1 H -0.6938 0.5886 0.1117
C6 C -0.3389(3) 0.4990(3) 0.0695(2)
H2 H -0.2300 0.4978 0.1153
C7 C 0.2063(3) 0.9818(3) 1.0887(2)
C8 C 0.1949(3) 0.9130(3) 0.9481(2)
C9 C 0.2286(4) 1.1102(3) 1.3541(3)
H3 H 0.2356 1.1533 1.4422
C10 C 0.0648(5) 0.7051(3) 0.7725(3)
H4 H -0.0208 0.6071 0.7459
C11 C 0.0727(5) 0.7671(3) 0.9039(3)
H5 H -0.0052 0.7099 0.9630
C12 C 0.1060(6) 0.9004(4) 1.1839(4)
H6 H 0.0281 0.7995 1.1596
C13 C 0.2897(5) 0.9187(5) 0.7249(4)
H7 H 0.3674 0.9730 0.6642
C14 C 0.3032(5) 0.9891(4) 0.8529(4)
H8 H 0.3860 1.0888 0.8754
C15 C 0.3183(6) 1.1296(3) 1.1296(3)
H9 H 0.3880 1.1890 1.0676
C16 C 0.3302(7) 1.1928(4) 1.2611(3)
H10 H 0.4088 1.2933 1.2863
C17 C 0.1173(6) 0.9640(4) 1.3155(4)
H11 H 0.0474 0.9054 1.3778
N1A N -0.8958(3) 0.3939(2) -0.4112(2)
C1A C -0.7574(3) 0.3933(3) -0.3579(2)
C3A C -0.5469(3) 0.4466(3) -0.1409(2)
C4A C -0.5941(3) 0.3956(3) -0.2870(2)
C5A C -0.3848(3) 0.4469(3) -0.0675(2)
H1A H -0.3062 0.4114 -0.1117
C6A C -0.6611(3) 0.5010(3) -0.0695(2)
H2A H -0.7700 0.5022 -0.1153
N2A N -0.3545(3) 0.3309(3) -0.4099(2)
C2A C -0.4674(3) 0.3588(3) -0.3585(2)
Cu1A Cu -1.14960(5) 0.32765(5) -0.49702(4)
N3A N -1.1725(3) 0.2224(3) -0.6824(2)
C7A C -1.2063(3) 0.0182(3) -1.0887(2)
C8A C -1.1949(3) 0.0870(3) -0.9481(2)
C9A C -1.2286(4) -0.1102(3) -1.3541(3)
H3A H -1.2356 -0.1533 -1.4422
C10A C -1.0648(5) 0.2949(3) -0.7725(3)
H4A H -0.9792 0.3929 -0.7459
C11A C -1.0727(5) 0.2329(3) -0.9039(3)
H5A H -0.9948 0.2901 -0.9630
C12A C -1.1060(6) 0.0996(4) -1.1839(4)
H6A H -1.0281 0.2005 -1.1596
C13A C -1.2897(5) 0.0813(5) -0.7249(4)
H7A H -1.3674 0.0270 -0.6642
C14A C -1.3032(5) 0.0109(4) -0.8529(4)
H8A H -1.3860 -0.0888 -0.8754
C15A C -1.3183(6) -0.1296(3) -1.1296(3)
H9A H -1.3880 -0.1890 -1.0676
C16A C -1.3302(7) -0.1928(4) -1.2611(3)
H10A H -1.4088 -0.2933 -1.2863
C17A C -1.1173(6) 0.0360(4) -1.3155(4)
H11A H -1.0474 0.0946 -1.3778
Cu1_2 Cu -0.85040(5) 0.67235(5) 0.49702(4)
Cu1A_2 Cu -0.14960(5) 0.32765(5) -0.49702(4)
N2_2 N 0.3545(3) 0.6691(3) 0.4099(2)
N2A_2 N -1.3545(3) 0.3309(3) -0.4099(2)
loop_
_geom_bond_atom_site_label_1
_geom_bond_atom_site_label_2
_geom_bond_site_symmetry_1
_geom_bond_site_symmetry_2
Cu1 N1 1_555 1_555
N1 C1 1_555 1_555
N2 C2 1_555 1_555
N3 Cu1 1_555 1_555
C1 C4 1_555 1_555
C2 C4 1_555 1_555
C3 C4 1_555 1_555
C5 C3 1_555 1_555
H1 C5 1_555 1_555
C6 C3 1_555 1_555
H2 C6 1_555 1_555
C7 C8 1_555 1_555
C8 C11 1_555 1_555
C9 H3 1_555 1_555
C10 N3 1_555 1_555
H4 C10 1_555 1_555
C11 C10 1_555 1_555
H5 C11 1_555 1_555
C12 C7 1_555 1_555
H6 C12 1_555 1_555
C13 N3 1_555 1_555
H7 C13 1_555 1_555
C14 C8 1_555 1_555
H8 C14 1_555 1_555
C15 C7 1_555 1_555
H9 C15 1_555 1_555
C16 C9 1_555 1_555
H10 C16 1_555 1_555
C17 C9 1_555 1_555
H11 C17 1_555 1_555
N1A C1A 1_555 1_555
C1A C4A 1_555 1_555
C3A C4A 1_555 1_555
C4A C2A 1_555 1_555
C5A C6 1_555 1_555
H1A C5A 1_555 1_555
C6A C5 1_555 1_555
H2A C6A 1_555 1_555
N2A C2A 1_555 1_555
Cu1A N1A 1_555 1_555
N3A Cu1A 1_555 1_555
C7A C8A 1_555 1_555
C8A C11A 1_555 1_555
C9A H3A 1_555 1_555
C10A N3A 1_555 1_555
H4A C10A 1_555 1_555
C11A C10A 1_555 1_555
H5A C11A 1_555 1_555
C12A C7A 1_555 1_555
H6A C12A 1_555 1_555
C13A N3A 1_555 1_555
H7A C13A 1_555 1_555
C14A C8A 1_555 1_555
H8A C14A 1_555 1_555
C15A C7A 1_555 1_555
H9A C15A 1_555 1_555
C16A C9A 1_555 1_555
H10A C16A 1_555 1_555
C17A C9A 1_555 1_555
H11A C17A 1_555 1_555
Cu1_2 N2 1_555 1_555
Cu1A_2 N2A 1_555 1_555
N2_2 Cu1 1_555 1_555
N2A_2 Cu1A 1_555 1_555
C12 C17 1_555 1_555
C13 C14 1_555 1_555
C15 C16 1_555 1_555
C3A C5A 1_555 1_555
C3A C6A 1_555 1_555
C12A C17A 1_555 1_555
C13A C14A 1_555 1_555
C15A C16A 1_555 1_555

#END
