
#######################################################################
#
#                 Cambridge Crystallographic Data Centre
#                                CCDC 
#
#######################################################################
#
# If this CIF has been generated from an entry in the Cambridge 
# Structural Database, then it will include bibliographic, chemical, 
# crystal, experimental, refinement or atomic coordinate data resulting 
# from the CCDC's data processing and validation procedures.
#
#######################################################################

data_BUKGEV
_symmetry_cell_setting           triclinic
_symmetry_space_group_name_H-M   'P -1'
_symmetry_Int_Tables_number      2
_space_group_name_Hall           '-P 1'
loop_
_symmetry_equiv_pos_site_id
_symmetry_equiv_pos_as_xyz
1 x,y,z
2 -x,-y,-z
_cell_length_a                   7.5403(3)
_cell_length_b                   9.5112(4)
_cell_length_c                   11.6339(6)
_cell_angle_alpha                75.108(4)
_cell_angle_beta                 82.444(4)
_cell_angle_gamma                76.994(3)
_cell_volume                     783.235
loop_
_atom_site_label
_atom_site_type_symbol
_atom_site_fract_x
_atom_site_fract_y
_atom_site_fract_z
C1 C 0.7385(3) 0.1951(3) 0.2377(2)
Cu1 Cu 0.34746(4) 0.27385(4) 0.35226(3)
N1 N 1.1696(3) 0.1921(3) 0.2990(2)
N2 N 0.5903(3) 0.2326(3) 0.2743(2)
N3 N 0.3766(3) 0.2646(2) 0.52910(18)
C2 C 0.3254(3) 0.3961(3) 0.5599(2)
N4 N 0.2283(3) 0.4900(2) 0.3621(2)
C3 C 1.0551(3) 0.1737(3) 0.2504(2)
C4 C 0.9588(3) 0.0774(3) 0.0932(2)
C5 C 0.8210(3) 0.0380(3) 0.0450(2)
H1 H 0.6975 0.0641 0.0745
C6 C 1.1377(3) 0.0385(3) 0.0451(2)
H2 H 1.2337 0.0651 0.0749
C7 C 0.2333(3) 0.5197(3) 0.4694(2)
C8 C 0.9173(3) 0.1503(3) 0.1929(2)
C9 C 0.4586(4) 0.1462(3) 0.6087(3)
H3 H 0.4939 0.0538 0.5867
C10 C 0.3593(4) 0.4090(4) 0.6717(3)
H4 H 0.3251 0.5023 0.6924
C11 C 0.1528(4) 0.6574(3) 0.4918(3)
H5 H 0.1600 0.6762 0.5673
C12 C 0.1390(4) 0.5966(3) 0.2782(3)
H6 H 0.1331 0.5772 0.2028
C13 C 0.4941(4) 0.1517(4) 0.7198(3)
H7 H 0.5526 0.0653 0.7733
C14 C 0.4431(5) 0.2850(4) 0.7519(3)
H8 H 0.4651 0.2921 0.8285
C15 C 0.0533(4) 0.7371(4) 0.2986(4)
H9 H -0.0108 0.8107 0.2382
C16 C 0.0636(4) 0.7655(4) 0.4054(4)
H10 H 0.0089 0.8602 0.4200
C1A C 1.2615(3) -0.1951(3) -0.2377(2)
N1A N 0.8304(3) -0.1921(3) -0.2990(2)
N2A N 1.4097(3) -0.2326(3) -0.2743(2)
C3A C 0.9449(3) -0.1737(3) -0.2504(2)
C4A C 1.0412(3) -0.0774(3) -0.0932(2)
C5A C 1.1790(3) -0.0380(3) -0.0450(2)
H1A H 1.3025 -0.0641 -0.0745
C6A C 0.8623(3) -0.0385(3) -0.0451(2)
H2A H 0.7663 -0.0651 -0.0749
C8A C 1.0827(3) -0.1503(3) -0.1929(2)
Cu1A Cu 0.65254(4) -0.27385(4) -0.35226(3)
N3A N 0.6234(3) -0.2646(2) -0.52910(18)
C2A C 0.6746(3) -0.3961(3) -0.5599(2)
N4A N 0.7717(3) -0.4900(2) -0.3621(2)
C7A C 0.7667(3) -0.5197(3) -0.4694(2)
C9A C 0.5414(4) -0.1462(3) -0.6087(3)
H3A H 0.5061 -0.0538 -0.5867
C10A C 0.6407(4) -0.4090(4) -0.6717(3)
H4A H 0.6749 -0.5023 -0.6924
C11A C 0.8472(4) -0.6574(3) -0.4918(3)
H5A H 0.8400 -0.6762 -0.5673
C12A C 0.8610(4) -0.5966(3) -0.2782(3)
H6A H 0.8669 -0.5772 -0.2028
C13A C 0.5059(4) -0.1517(4) -0.7198(3)
H7A H 0.4474 -0.0653 -0.7733
C14A C 0.5569(5) -0.2850(4) -0.7519(3)
H8A H 0.5349 -0.2921 -0.8285
C15A C 0.9467(4) -0.7371(4) -0.2986(4)
H9A H 1.0108 -0.8107 -0.2382
C16A C 0.9364(4) -0.7655(4) -0.4054(4)
H10A H 0.9911 -0.8602 -0.4200
Cu1_2 Cu 1.34746(4) 0.27385(4) 0.35226(3)
Cu1A_2 Cu 1.65254(4) -0.27385(4) -0.35226(3)
N1_2 N 0.1696(3) 0.1921(3) 0.2990(2)
N2A_2 N 0.4097(3) -0.2326(3) -0.2743(2)
O1 O 0.062(2) 0.4691(16) -0.0193(13)
O2 O 0.371(2) 0.3709(17) 0.0345(13)
O3? O 0.423(3) 0.485(3) 0.005(2)
O4? O 0.175(3) 0.454(2) -0.0134(16)
loop_
_geom_bond_atom_site_label_1
_geom_bond_atom_site_label_2
_geom_bond_site_symmetry_1
_geom_bond_site_symmetry_2
C1 N2 1_555 1_555
Cu1 N2 1_555 1_555
N1 C3 1_555 1_555
N3 Cu1 1_555 1_555
C2 N3 1_555 1_555
N4 Cu1 1_555 1_555
C3 C8 1_555 1_555
C4 C5 1_555 1_555
C5 H1 1_555 1_555
C6 C4 1_555 1_555
H2 C6 1_555 1_555
C7 C2 1_555 1_555
C8 C1 1_555 1_555
C9 N3 1_555 1_555
H3 C9 1_555 1_555
C10 C2 1_555 1_555
H4 C10 1_555 1_555
C11 C7 1_555 1_555
H5 C11 1_555 1_555
C12 N4 1_555 1_555
H6 C12 1_555 1_555
C13 C9 1_555 1_555
H7 C13 1_555 1_555
C14 C10 1_555 1_555
H8 C14 1_555 1_555
C15 C12 1_555 1_555
H9 C15 1_555 1_555
C16 C11 1_555 1_555
H10 C16 1_555 1_555
C1A N2A 1_555 1_555
N1A C3A 1_555 1_555
N2A Cu1A_2 1_555 1_555
C3A C8A 1_555 1_555
C4A C5A 1_555 1_555
C5A C6 1_555 1_555
H1A C5A 1_555 1_555
C6A C5 1_555 1_555
H2A C6A 1_555 1_555
C8A C1A 1_555 1_555
Cu1A N1A 1_555 1_555
N3A Cu1A 1_555 1_555
C2A N3A 1_555 1_555
N4A Cu1A 1_555 1_555
C7A C2A 1_555 1_555
C9A N3A 1_555 1_555
H3A C9A 1_555 1_555
C10A C2A 1_555 1_555
H4A C10A 1_555 1_555
C11A C7A 1_555 1_555
H5A C11A 1_555 1_555
C12A N4A 1_555 1_555
H6A C12A 1_555 1_555
C13A C9A 1_555 1_555
H7A C13A 1_555 1_555
C14A C10A 1_555 1_555
H8A C14A 1_555 1_555
C15A C12A 1_555 1_555
H9A C15A 1_555 1_555
C16A C11A 1_555 1_555
H10A C16A 1_555 1_555
Cu1_2 N1 1_555 1_555
N1_2 Cu1 1_555 1_555
N2A_2 Cu1A 1_555 1_555
N4 C7 1_555 1_555
C4 C8 1_555 1_555
C13 C14 1_555 1_555
C15 C16 1_555 1_555
C4A C6A 1_555 1_555
C4A C8A 1_555 1_555
N4A C7A 1_555 1_555
C13A C14A 1_555 1_555
C15A C16A 1_555 1_555

#END
