
#######################################################################
#
#                 Cambridge Crystallographic Data Centre
#                                CCDC 
#
#######################################################################
#
# If this CIF has been generated from an entry in the Cambridge 
# Structural Database, then it will include bibliographic, chemical, 
# crystal, experimental, refinement or atomic coordinate data resulting 
# from the CCDC's data processing and validation procedures.
#
#######################################################################

data_BUKGAR
_symmetry_cell_setting           monoclinic
_symmetry_space_group_name_H-M   'C 2/c'
_symmetry_Int_Tables_number      15
_space_group_name_Hall           '-C 2yn'
loop_
_symmetry_equiv_pos_site_id
_symmetry_equiv_pos_as_xyz
1 x,y,z
2 -x,y,1/2-z
3 1/2+x,1/2+y,z
4 1/2-x,1/2+y,1/2-z
5 -x,-y,-z
6 x,-y,1/2+z
7 1/2-x,1/2-y,-z
8 1/2+x,1/2-y,1/2+z
_cell_length_a                   19.5393(4)
_cell_length_b                   7.38780(10)
_cell_length_c                   23.8021(5)
_cell_angle_alpha                90
_cell_angle_beta                 96.295(2)
_cell_angle_gamma                90
_cell_volume                     3415.17
loop_
_atom_site_label
_atom_site_type_symbol
_atom_site_fract_x
_atom_site_fract_y
_atom_site_fract_z
Cu1 Cu 0.13958(6) 0.06308(15) 0.07364(5)
N1 N 0.2439(2) 0.0485(6) 0.0561(2)
N2 N 0.1339(3) 0.0264(7) -0.0179(2)
N3 N 0.0976(3) -0.1538(7) 0.1012(2)
C1 C 0.0763(3) -0.2850(8) 0.1187(2)
C2 C 0.0125(3) -0.2859(8) 0.2237(2)
H1 H 0.0211 -0.1761 0.2067
C3 C 0.0120(3) -0.6095(8) 0.2237(2)
H2 H 0.0198 -0.7194 0.2064
C4 C 0.0247(3) -0.4476(7) 0.1957(2)
C5 C 0.0630(3) -0.6032(8) 0.1104(2)
C6 C 0.0522(3) -0.4451(7) 0.1408(2)
C7 C 0.1937(3) -0.0107(8) -0.0381(2)
N4 N 0.0734(3) -0.7307(7) 0.0847(2)
C8 C 0.3218(3) -0.0402(9) -0.0102(3)
H3 H 0.3290 -0.0740 -0.0467
C9 C 0.2974(3) 0.0630(7) 0.0966(3)
C10 C 0.2555(3) -0.0019(8) 0.0036(2)
N5 N 0.2123(3) 0.1488(9) 0.1562(2)
C11 C 0.2794(3) 0.1224(8) 0.1526(2)
C12 C 0.0760(3) 0.0199(9) -0.0532(3)
H4 H 0.0348 0.0469 -0.0388
C13 C 0.1348(4) -0.0609(10) -0.1306(3)
H5 H 0.1352 -0.0907 -0.1685
C14 C 0.1961(4) -0.0534(9) -0.0951(3)
H6 H 0.2379 -0.0763 -0.1090
C15 C 0.3645(3) 0.0270(9) 0.0849(3)
H7 H 0.4009 0.0394 0.1133
C16 C 0.2386(3) 0.2386(10) 0.2528(3)
H8 H 0.2228 0.2776 0.2862
C17 C 0.3770(3) -0.0263(10) 0.0323(3)
H9 H 0.4216 -0.0530 0.0246
C18 C 0.0734(3) -0.0241(9) -0.1094(3)
H10 H 0.0318 -0.0288 -0.1323
C19 C 0.1936(3) 0.2062(12) 0.2050(3)
H11 H 0.1470 0.2260 0.2072
C20 C 0.3289(3) 0.1523(10) 0.1986(3)
H12 H 0.3753 0.1331 0.1953
C21 C 0.3076(3) 0.2111(10) 0.2491(3)
H13 H 0.3397 0.2319 0.2803
N3A N -0.0976(3) -0.1538(7) 0.3988(2)
C1A C -0.0763(3) -0.2850(8) 0.3813(2)
C2A C -0.0125(3) -0.2859(8) 0.2763(2)
H1A H -0.0211 -0.1761 0.2933
C3A C -0.0120(3) -0.6095(8) 0.2763(2)
H2A H -0.0198 -0.7194 0.2936
C4A C -0.0247(3) -0.4476(7) 0.3043(2)
C5A C -0.0630(3) -0.6032(8) 0.3896(2)
C6A C -0.0522(3) -0.4451(7) 0.3592(2)
N4A N -0.0734(3) -0.7307(7) 0.4153(2)
Cu1A Cu -0.13958(6) 0.06308(15) 0.42636(5)
N1A N -0.2439(2) 0.0485(6) 0.4439(2)
N2A N -0.1339(3) 0.0264(7) 0.5179(2)
C7A C -0.1937(3) -0.0107(8) 0.5381(2)
C8A C -0.3218(3) -0.0402(9) 0.5102(3)
H3A H -0.3290 -0.0740 0.5467
C9A C -0.2974(3) 0.0630(7) 0.4034(3)
C10A C -0.2555(3) -0.0019(8) 0.4964(2)
N5A N -0.2123(3) 0.1488(9) 0.3438(2)
C11A C -0.2794(3) 0.1224(8) 0.3474(2)
C12A C -0.0760(3) 0.0199(9) 0.5532(3)
H4A H -0.0348 0.0469 0.5388
C13A C -0.1348(4) -0.0609(10) 0.6306(3)
H5A H -0.1352 -0.0907 0.6685
C14A C -0.1961(4) -0.0534(9) 0.5951(3)
H6A H -0.2379 -0.0763 0.6090
C15A C -0.3645(3) 0.0270(9) 0.4151(3)
H7A H -0.4009 0.0394 0.3867
C16A C -0.2386(3) 0.2386(10) 0.2472(3)
H8A H -0.2228 0.2776 0.2138
C17A C -0.3770(3) -0.0263(10) 0.4677(3)
H9A H -0.4216 -0.0530 0.4754
C18A C -0.0734(3) -0.0241(9) 0.6094(3)
H10A H -0.0318 -0.0288 0.6323
C19A C -0.1936(3) 0.2062(12) 0.2950(3)
H11A H -0.1470 0.2260 0.2928
C20A C -0.3289(3) 0.1523(10) 0.3014(3)
H12A H -0.3753 0.1331 0.3047
C21A C -0.3076(3) 0.2111(10) 0.2509(3)
H13A H -0.3397 0.2319 0.2197
Cu1_2 Cu 0.13958(6) -0.93692(15) 0.07364(5)
Cu1A_2 Cu -0.13958(6) -0.93692(15) 0.42636(5)
N4_2 N 0.0734(3) 0.2693(7) 0.0847(2)
N4A_2 N -0.0734(3) 0.2693(7) 0.4153(2)
loop_
_geom_bond_atom_site_label_1
_geom_bond_atom_site_label_2
_geom_bond_site_symmetry_1
_geom_bond_site_symmetry_2
Cu1 N1 1_555 1_555
N1 C9 1_555 1_555
N2 Cu1 1_555 1_555
N3 Cu1 1_555 1_555
C1 N3 1_555 1_555
C2 H1 1_555 1_555
C3 H2 1_555 1_555
C4 C2 1_555 1_555
C5 C6 1_555 1_555
C6 C1 1_555 1_555
C7 N2 1_555 1_555
N4 C5 1_555 1_555
C8 H3 1_555 1_555
C9 C11 1_555 1_555
C10 N1 1_555 1_555
N5 Cu1 1_555 1_555
C11 N5 1_555 1_555
C12 N2 1_555 1_555
H4 C12 1_555 1_555
C13 H5 1_555 1_555
C14 C7 1_555 1_555
H6 C14 1_555 1_555
C15 C9 1_555 1_555
H7 C15 1_555 1_555
C16 H8 1_555 1_555
C17 C8 1_555 1_555
H9 C17 1_555 1_555
C18 C12 1_555 1_555
H10 C18 1_555 1_555
C19 N5 1_555 1_555
H11 C19 1_555 1_555
C20 C11 1_555 1_555
H12 C20 1_555 1_555
C21 C16 1_555 1_555
H13 C21 1_555 1_555
N3A C1A 1_555 1_555
C1A C6A 1_555 1_555
C2A C2 1_555 1_555
H1A C2A 1_555 1_555
C3A C3 1_555 1_555
H2A C3A 1_555 1_555
C4A C2A 1_555 1_555
C5A C6A 1_555 1_555
C6A C4A 1_555 1_555
N4A C5A 1_555 1_555
Cu1A N3A 1_555 1_555
N1A Cu1A 1_555 1_555
N2A Cu1A 1_555 1_555
C7A N2A 1_555 1_555
C8A H3A 1_555 1_555
C9A N1A 1_555 1_555
C10A N1A 1_555 1_555
N5A Cu1A 1_555 1_555
C11A C9A 1_555 1_555
C12A N2A 1_555 1_555
H4A C12A 1_555 1_555
C13A H5A 1_555 1_555
C14A C7A 1_555 1_555
H6A C14A 1_555 1_555
C15A C9A 1_555 1_555
H7A C15A 1_555 1_555
C16A H8A 1_555 1_555
C17A C8A 1_555 1_555
H9A C17A 1_555 1_555
C18A C12A 1_555 1_555
H10A C18A 1_555 1_555
C19A N5A 1_555 1_555
H11A C19A 1_555 1_555
C20A C11A 1_555 1_555
H12A C20A 1_555 1_555
C21A C16A 1_555 1_555
H13A C21A 1_555 1_555
Cu1_2 N4 1_555 1_555
Cu1A_2 N4A 1_555 1_555
N4_2 Cu1 1_555 1_555
N4A_2 Cu1A 1_555 1_555
C3 C4 1_555 1_555
C4 C6 1_555 1_555
C7 C10 1_555 1_555
C8 C10 1_555 1_555
C13 C14 1_555 1_555
C13 C18 1_555 1_555
C15 C17 1_555 1_555
C16 C19 1_555 1_555
C20 C21 1_555 1_555
C3A C4A 1_555 1_555
C7A C10A 1_555 1_555
C8A C10A 1_555 1_555
N5A C11A 1_555 1_555
C13A C14A 1_555 1_555
C13A C18A 1_555 1_555
C15A C17A 1_555 1_555
C16A C19A 1_555 1_555
C20A C21A 1_555 1_555

#END
