
#######################################################################
#
#                 Cambridge Crystallographic Data Centre
#                                CCDC 
#
#######################################################################
#
# If this CIF has been generated from an entry in the Cambridge 
# Structural Database, then it will include bibliographic, chemical, 
# crystal, experimental, refinement or atomic coordinate data resulting 
# from the CCDC's data processing and validation procedures.
#
#######################################################################

data_BUKHAS
_symmetry_cell_setting           triclinic
_symmetry_space_group_name_H-M   'P -1'
_symmetry_Int_Tables_number      2
_space_group_name_Hall           '-P 1'
loop_
_symmetry_equiv_pos_site_id
_symmetry_equiv_pos_as_xyz
1 x,y,z
2 -x,-y,-z
_cell_length_a                   7.5552(6)
_cell_length_b                   10.3372(9)
_cell_length_c                   10.6344(10)
_cell_angle_alpha                66.564(9)
_cell_angle_beta                 82.474(7)
_cell_angle_gamma                78.086(7)
_cell_volume                     744.506
loop_
_atom_site_label
_atom_site_type_symbol
_atom_site_fract_x
_atom_site_fract_y
_atom_site_fract_z
Cu1 Cu 0.12860(3) 0.84097(4) 0.57788(3)
F1 F -0.78221(14) 0.98802(17) 0.87590(14)
F2 F -0.15322(15) 0.92862(19) 0.91995(15)
N1 N -0.6744(2) 0.8728(2) 0.6499(2)
N2 N -0.1148(2) 0.8881(3) 0.6458(2)
N3 N 0.1494(2) 0.7266(2) 0.4617(2)
C1 C 0.0867(4) 0.7127(4) 0.2529(3)
H1 H 0.0409 0.7615 0.1640
C2 C -0.4271(2) 0.9131(2) 0.7658(2)
C3 C -0.6370(2) 0.9920(2) 0.9356(2)
C4 C -0.2553(3) 0.8989(3) 0.7019(2)
C5 C -0.3285(2) 0.9642(2) 0.9561(2)
C6 C -0.4636(2) 0.9546(2) 0.8842(2)
C7 C 0.2214(3) 0.5830(3) 0.5093(3)
C8 C -0.5645(2) 0.8909(2) 0.7037(2)
C9 C 0.2244(3) 0.5014(3) 0.4279(3)
C10 C 0.1546(4) 0.5722(4) 0.2979(3)
H2 H 0.1552 0.5208 0.2410
C11 C 0.0844(3) 0.7868(3) 0.3397(3)
H3 H 0.0330 0.8855 0.3079
C12 C 0.3000(4) 0.3536(3) 0.4837(4)
H4 H 0.3009 0.2966 0.4320
C13 C 0.2940(3) 0.5156(3) 0.6395(3)
H5 H 0.2918 0.5690 0.6948
C14 C 0.3704(4) 0.2924(4) 0.6082(5)
H6 H 0.4219 0.1937 0.6424
C15 C 0.3683(4) 0.3727(3) 0.6872(4)
H7 H 0.4186 0.3284 0.7747
F1A F -0.21779(14) 1.01198(17) 1.12410(14)
F2A F -0.84678(15) 1.07138(19) 1.08005(15)
N1A N -0.3256(2) 1.1272(2) 1.3501(2)
N2A N -0.8852(2) 1.1119(3) 1.3542(2)
C2A C -0.5729(2) 1.0869(2) 1.2342(2)
C3A C -0.3630(2) 1.0080(2) 1.0644(2)
C4A C -0.7447(3) 1.1011(3) 1.2981(2)
C5A C -0.6715(2) 1.0358(2) 1.0439(2)
C6A C -0.5364(2) 1.0454(2) 1.1158(2)
C8A C -0.4355(2) 1.1091(2) 1.2963(2)
Cu1A Cu -1.12860(3) 1.15903(4) 1.42212(3)
N3A N -1.1494(2) 1.2734(2) 1.5383(2)
C1A C -1.0867(4) 1.2873(4) 1.7471(3)
H1A H -1.0409 1.2385 1.8360
C7A C -1.2214(3) 1.4170(3) 1.4907(3)
C9A C -1.2244(3) 1.4986(3) 1.5721(3)
C10A C -1.1546(4) 1.4278(4) 1.7021(3)
H2A H -1.1552 1.4792 1.7590
C11A C -1.0844(3) 1.2132(3) 1.6603(3)
H3A H -1.0330 1.1145 1.6921
C12A C -1.3000(4) 1.6464(3) 1.5163(4)
H4A H -1.3009 1.7034 1.5680
C13A C -1.2940(3) 1.4844(3) 1.3605(3)
H5A H -1.2918 1.4310 1.3052
C14A C -1.3704(4) 1.7076(4) 1.3918(5)
H6A H -1.4219 1.8063 1.3576
C15A C -1.3683(4) 1.6273(3) 1.3128(4)
H7A H -1.4186 1.6716 1.2253
Cu1_2 Cu -0.87140(3) 0.84097(4) 0.57788(3)
Cu1A_2 Cu -0.12860(3) 1.15903(4) 1.42212(3)
N1_2 N 0.3256(2) 0.8728(2) 0.6499(2)
N1A_2 N -1.3256(2) 1.1272(2) 1.3501(2)
loop_
_geom_bond_atom_site_label_1
_geom_bond_atom_site_label_2
_geom_bond_site_symmetry_1
_geom_bond_site_symmetry_2
Cu1 N2 1_555 1_555
F1 C3 1_555 1_555
F2 C5 1_555 1_555
N1 C8 1_555 1_555
N2 C4 1_555 1_555
N3 Cu1 1_555 1_555
C1 H1 1_555 1_555
C2 C4 1_555 1_555
C3 C6 1_555 1_555
C5 C6 1_555 1_555
C6 C2 1_555 1_555
C7 N3 1_555 1_555
C8 C2 1_555 1_555
C9 C7 1_555 1_555
C10 C1 1_555 1_555
H2 C10 1_555 1_555
C11 N3 1_555 1_555
H3 C11 1_555 1_555
C12 C9 1_555 1_555
H4 C12 1_555 1_555
C13 C7 1_555 1_555
H5 C13 1_555 1_555
C14 C12 1_555 1_555
H6 C14 1_555 1_555
C15 C13 1_555 1_555
H7 C15 1_555 1_555
F1A C3A 1_555 1_555
F2A C5A 1_555 1_555
N1A C8A 1_555 1_555
N2A C4A 1_555 1_555
C2A C4A 1_555 1_555
C3A C5 1_555 1_555
C5A C3 1_555 1_555
C6A C2A 1_555 1_555
C8A C2A 1_555 1_555
Cu1A N2A 1_555 1_555
N3A Cu1A 1_555 1_555
C1A H1A 1_555 1_555
C7A N3A 1_555 1_555
C9A C7A 1_555 1_555
C10A C1A 1_555 1_555
H2A C10A 1_555 1_555
C11A N3A 1_555 1_555
H3A C11A 1_555 1_555
C12A C9A 1_555 1_555
H4A C12A 1_555 1_555
C13A C7A 1_555 1_555
H5A C13A 1_555 1_555
C14A C12A 1_555 1_555
H6A C14A 1_555 1_555
C15A C13A 1_555 1_555
H7A C15A 1_555 1_555
Cu1_2 N1 1_555 1_555
Cu1A_2 N1A 1_555 1_555
N1_2 Cu1 1_555 1_555
N1A_2 Cu1A 1_555 1_555
C1 C11 1_555 1_555
C9 C10 1_555 1_555
C14 C15 1_555 1_555
C3A C6A 1_555 1_555
C5A C6A 1_555 1_555
C1A C11A 1_555 1_555
C9A C10A 1_555 1_555
C14A C15A 1_555 1_555

#END
