
#######################################################################
#
#                 Cambridge Crystallographic Data Centre
#                                CCDC 
#
#######################################################################
#
# If this CIF has been generated from an entry in the Cambridge 
# Structural Database, then it will include bibliographic, chemical, 
# crystal, experimental, refinement or atomic coordinate data resulting 
# from the CCDC's data processing and validation procedures.
#
#######################################################################

data_BUKJIA
_symmetry_cell_setting           orthorhombic
_symmetry_space_group_name_H-M   'C m m m'
_symmetry_Int_Tables_number      65
_space_group_name_Hall           '-C 2 2'
loop_
_symmetry_equiv_pos_site_id
_symmetry_equiv_pos_as_xyz
1 x,y,z
2 1/2+x,1/2+y,z
3 x,y,-z
4 x,-y,z
5 -x,y,z
6 1/2+x,1/2+y,-z
7 1/2+x,1/2-y,z
8 1/2-x,1/2+y,z
9 -x,-y,-z
10 1/2-x,1/2-y,-z
11 -x,-y,z
12 -x,y,-z
13 x,-y,-z
14 1/2-x,1/2-y,z
15 1/2-x,1/2+y,-z
16 1/2+x,1/2-y,-z
_cell_length_a                   7.1189(2)
_cell_length_b                   9.6994(4)
_cell_length_c                   7.3988(3)
_cell_angle_alpha                90
_cell_angle_beta                 90
_cell_angle_gamma                90
_cell_volume                     510.88
loop_
_atom_site_label
_atom_site_type_symbol
_atom_site_fract_x
_atom_site_fract_y
_atom_site_fract_z
Zn1 Zn 0.0000 0.5000 0.0000
N1 N 0.0000 0.34862(15) 0.20965(19)
N2 N 0.0000 0.2245(2) 0.5000
N3 N -0.3047(3) 0.5000 0.0000
C1 C 0.0000 0.29525(16) 0.3490(2)
C2 C -0.4028(2) 0.5000 0.1544(2)
H1 H -0.332(3) 0.5000 0.264(3)
C1B C 0.0000 0.29525(16) 0.6510(2)
N1B N 0.0000 0.34862(15) 0.79035(19)
C2D C -0.5972(2) 0.5000 0.1544(2)
N3D N -0.6953(3) 0.5000 0.0000
C2K C -0.5972(2) 0.5000 -0.1544(2)
C2B C -0.4028(2) 0.5000 -0.1544(2)
H1B H -0.332(3) 0.5000 -0.264(3)
H1K H -0.668(3) 0.5000 -0.264(3)
H1D H -0.668(3) 0.5000 0.264(3)
N1B_2 N 0.0000 0.34862(15) -0.20965(19)
N2B N 0.0000 0.2245(2) -0.5000
C1B_2 C 0.0000 0.29525(16) -0.3490(2)
C1_2 C 0.0000 0.29525(16) -0.6510(2)
N1_2 N 0.0000 0.34862(15) -0.79035(19)
N1C N 0.0000 0.65138(15) 0.20965(19)
N1H N 0.0000 0.65138(15) -0.20965(19)
N3D_2 N 0.3047(3) 0.5000 0.0000
Zn1_2 Zn 0.0000 0.5000 1.0000
Zn1_3 Zn -1.0000 0.5000 0.0000
Zn1_4 Zn 0.0000 0.5000 -1.0000
loop_
_geom_bond_atom_site_label_1
_geom_bond_atom_site_label_2
_geom_bond_site_symmetry_1
_geom_bond_site_symmetry_2
Zn1 N1 1_555 1_555
N1 C1 1_555 1_555
N2 C1 1_555 1_555
N3 Zn1 1_555 1_555
C2 N3 1_555 1_555
H1 C2 1_555 1_555
C1B N2 1_555 1_555
N1B C1B 1_555 1_555
C2D C2 1_555 1_555
N3D C2D 1_555 1_555
C2K N3D 1_555 1_555
C2B N3 1_555 1_555
H1B C2B 1_555 1_555
H1K C2K 1_555 1_555
H1D C2D 1_555 1_555
N1B_2 Zn1 1_555 1_555
N2B C1B_2 1_555 1_555
C1B_2 N1B_2 1_555 1_555
C1_2 N2B 1_555 1_555
N1_2 C1_2 1_555 1_555
N1C Zn1 1_555 1_555
N1H Zn1 1_555 1_555
N3D_2 Zn1 1_555 1_555
Zn1_2 N1B 1_555 1_555
Zn1_3 N3D 1_555 1_555
Zn1_4 N1_2 1_555 1_555
C2K C2B 1_555 1_555

#END
