
#######################################################################
#
#                 Cambridge Crystallographic Data Centre
#                                CCDC 
#
#######################################################################
#
# If this CIF has been generated from an entry in the Cambridge 
# Structural Database, then it will include bibliographic, chemical, 
# crystal, experimental, refinement or atomic coordinate data resulting 
# from the CCDC's data processing and validation procedures.
#
#######################################################################

data_BUKJEY
_symmetry_cell_setting           monoclinic
_symmetry_space_group_name_H-M   'I 2/m'
_symmetry_Int_Tables_number      12
_space_group_name_Hall           '-I 2y'
loop_
_symmetry_equiv_pos_site_id
_symmetry_equiv_pos_as_xyz
1 x,y,z
2 -x,y,-z
3 1/2+x,1/2+y,1/2+z
4 1/2-x,1/2+y,1/2-z
5 -x,-y,-z
6 x,-y,z
7 1/2-x,1/2-y,1/2-z
8 1/2+x,1/2-y,1/2+z
_cell_length_a                   16.446(5)
_cell_length_b                   7.763(5)
_cell_length_c                   13.690(5)
_cell_angle_alpha                90
_cell_angle_beta                 94.214(5)
_cell_angle_gamma                90
_cell_volume                     1743.08
loop_
_atom_site_label
_atom_site_type_symbol
_atom_site_fract_x
_atom_site_fract_y
_atom_site_fract_z
C6 C 0.21439(17) 0.1734(5) 0.6159(2)
H6 H 0.2736 0.1627 0.6132
H7 H 0.2006 0.1692 0.6843
H8 H 0.1961 0.2833 0.5867
O1 O 0.19637(15) 0.0000 0.44963(17)
S1 S 0.16489(5) 0.0000 0.54927(6)
C6E C 0.21439(17) -0.1734(5) 0.6159(2)
H6E H 0.2736 -0.1627 0.6132
H7E H 0.2006 -0.1692 0.6843
H8E H 0.1961 -0.2833 0.5867
C7 C 0.44225(12) 0.1532(3) 0.74024(14)
C8 C 0.45196(17) 0.0000 0.7925(2)
C9 C 0.47587(16) 0.0000 0.8983(2)
C10 C 0.48823(12) 0.1540(3) 0.95031(13)
H9 H 0.4803 0.2607 0.9169
N2 N 0.43485(12) 0.2836(3) 0.70000(12)
Cu1 Cu 0.42347(3) 0.5000 0.63649(3)
Br1 Br 0.3617(5) 0.5000 0.4761(3)
C7A C 0.55775(12) 0.1532(3) 1.25976(14)
C8A C 0.54804(17) 0.0000 1.2075(2)
C9A C 0.52413(16) 0.0000 1.1017(2)
C10A C 0.51177(12) 0.1540(3) 1.04969(13)
H9A H 0.5197 0.2607 1.0831
N2A N 0.56515(12) 0.2836(3) 1.30000(12)
C7D C 0.55775(12) -0.1532(3) 1.25976(14)
C10D C 0.51177(12) -0.1540(3) 1.04969(13)
H9D H 0.5197 -0.2607 1.0831
N2D N 0.56515(12) -0.2836(3) 1.30000(12)
C7E C 0.44225(12) -0.1532(3) 0.74024(14)
C10E C 0.48823(12) -0.1540(3) 0.95031(13)
H9E H 0.4803 -0.2607 0.9169
N2E N 0.43485(12) -0.2836(3) 0.70000(12)
Cu1A Cu 0.57653(3) 0.5000 1.36351(3)
Br1A Br 0.6383(5) 0.5000 1.5239(3)
N2D_2 N 0.56515(12) 0.7164(3) 1.30000(12)
N2E_2 N 0.43485(12) 0.7164(3) 0.70000(12)
Cu1_2 Cu 0.42347(3) -0.5000 0.63649(3)
Cu1A_2 Cu 0.57653(3) -0.5000 1.36351(3)
C1 C 0.4749(2) 0.0558(5) 0.4783(3)
H1 H 0.4927 0.1687 0.4636
H2 H 0.3618(16) 0.096(4) 0.4769(19)
C2 C 0.35860(13) 0.1509(3) 0.29613(16)
H3 H 0.3652 0.2560 0.3314
C3 C 0.34038(14) 0.1538(4) 0.19596(16)
H4 H 0.3343 0.2603 0.1620
C4 C 0.3311(2) 0.0000 0.1460(2)
H5 H 0.3183 0.0000 0.0772
C5 C 0.3869(2) 0.0000 0.4521(2)
N1 N 0.36697(15) 0.0000 0.34386(18)
C1A C 0.5251(2) 0.0558(5) 0.5217(3)
H1A H 0.5073 0.1687 0.5364
H2A H 0.6382(16) 0.096(4) 0.5231(19)
C2A C 0.64140(13) 0.1509(3) 0.70387(16)
H3A H 0.6348 0.2560 0.6686
C3A C 0.65962(14) 0.1538(4) 0.80404(16)
H4A H 0.6657 0.2603 0.8380
C4A C 0.6689(2) 0.0000 0.8540(2)
H5A H 0.6817 0.0000 0.9228
C5A C 0.6131(2) 0.0000 0.5479(2)
N1A N 0.63303(15) 0.0000 0.65614(18)
C1D C 0.5251(2) -0.0558(5) 0.5217(3)
H1D H 0.5073 -0.1687 0.5364
H2D H 0.6382(16) -0.096(4) 0.5231(19)
C2D C 0.64140(13) -0.1509(3) 0.70387(16)
H3D H 0.6348 -0.2560 0.6686
C3D C 0.65962(14) -0.1538(4) 0.80404(16)
H4D H 0.6657 -0.2603 0.8380
C1E C 0.4749(2) -0.0558(5) 0.4783(3)
H1E H 0.4927 -0.1687 0.4636
H2E H 0.3618(16) -0.096(4) 0.4769(19)
C2E C 0.35860(13) -0.1509(3) 0.29613(16)
H3E H 0.3652 -0.2560 0.3314
C3E C 0.34038(14) -0.1538(4) 0.19596(16)
H4E H 0.3343 -0.2603 0.1620
Br2? Br 0.3867(13) 0.5000 0.4650(5)
loop_
_geom_bond_atom_site_label_1
_geom_bond_atom_site_label_2
_geom_bond_site_symmetry_1
_geom_bond_site_symmetry_2
C1 H1 1_555 1_555
H2 C5 1_555 1_555
C2 H3 1_555 1_555
C3 C2 1_555 1_555
H4 C3 1_555 1_555
C4 C3 1_555 1_555
H5 C4 1_555 1_555
C5 C1 1_555 1_555
N1 C2 1_555 1_555
C6 H6 1_555 1_555
H7 C6 1_555 1_555
H8 C6 1_555 1_555
O1 S1 1_555 1_555
S1 C6 1_555 1_555
C7 C8 1_555 1_555
C8 C9 1_555 1_555
C9 C10 1_555 1_555
C10 H9 1_555 1_555
N2 C7 1_555 1_555
Cu1 N2 1_555 1_555
Br1 Cu1 1_555 1_555
C1A H1A 1_555 1_555
H2A C5A 1_555 1_555
C2A H3A 1_555 1_555
C3A C2A 1_555 1_555
H4A C3A 1_555 1_555
C4A C3A 1_555 1_555
H5A C4A 1_555 1_555
C5A C1A 1_555 1_555
N1A C2A 1_555 1_555
C1D C1 1_555 1_555
H1D C1D 1_555 1_555
H2D C5A 1_555 1_555
C2D N1A 1_555 1_555
H3D C2D 1_555 1_555
C3D C4A 1_555 1_555
H4D C3D 1_555 1_555
C1E C5 1_555 1_555
H1E C1E 1_555 1_555
H2E C5 1_555 1_555
C2E N1 1_555 1_555
H3E C2E 1_555 1_555
C3E C4 1_555 1_555
H4E C3E 1_555 1_555
C6E S1 1_555 1_555
H6E C6E 1_555 1_555
H7E C6E 1_555 1_555
H8E C6E 1_555 1_555
C7A C8A 1_555 1_555
C8A C9A 1_555 1_555
C9A C10A 1_555 1_555
C10A C10 1_555 1_555
H9A C10A 1_555 1_555
N2A C7A 1_555 1_555
C7D C8A 1_555 1_555
C10D C9A 1_555 1_555
H9D C10D 1_555 1_555
N2D C7D 1_555 1_555
C7E C8 1_555 1_555
C10E C9 1_555 1_555
H9E C10E 1_555 1_555
N2E C7E 1_555 1_555
Cu1A N2A 1_555 1_555
Br1A Cu1A 1_555 1_555
N2D_2 Cu1A 1_555 1_555
N2E_2 Cu1 1_555 1_555
Cu1_2 N2E 1_555 1_555
Cu1A_2 N2D 1_555 1_555
C5 N1 1_555 1_555
C1A C1E 1_555 1_555
C5A N1A 1_555 1_555
C5A C1D 1_555 1_555
C2D C3D 1_555 1_555
C2E C3E 1_555 1_555
C10D C10E 1_555 1_555

#END
