
#######################################################################
#
#                 Cambridge Crystallographic Data Centre
#                                CCDC 
#
#######################################################################
#
# If this CIF has been generated from an entry in the Cambridge 
# Structural Database, then it will include bibliographic, chemical, 
# crystal, experimental, refinement or atomic coordinate data resulting 
# from the CCDC's data processing and validation procedures.
#
#######################################################################

data_BUKMUQ
_symmetry_cell_setting           orthorhombic
_symmetry_space_group_name_H-M   'P 21 21 21'
_symmetry_Int_Tables_number      19
_space_group_name_Hall           'P 2ac 2ab'
loop_
_symmetry_equiv_pos_site_id
_symmetry_equiv_pos_as_xyz
1 x,y,z
2 1/2-x,-y,1/2+z
3 -x,1/2+y,1/2-z
4 1/2+x,1/2-y,-z
_cell_length_a                   10.4465(12)
_cell_length_b                   11.7859(13)
_cell_length_c                   14.6048(16)
_cell_angle_alpha                90
_cell_angle_beta                 90
_cell_angle_gamma                90
_cell_volume                     1798.16
loop_
_atom_site_label
_atom_site_type_symbol
_atom_site_fract_x
_atom_site_fract_y
_atom_site_fract_z
Zn1 Zn 0.16850(2) 1.198001(17) 1.173358(14)
O1 O 0.28357(14) 1.25064(12) 1.07767(10)
O2 O 0.12212(16) 1.36777(15) 1.04395(13)
O3 O 0.40565(14) 1.69010(12) 0.75630(9)
O4 O 0.20318(15) 1.66811(14) 0.80165(12)
N1 N 0.51178(17) 1.38776(14) 0.87627(11)
O5 O 0.23296(15) 1.07245(12) 1.24884(10)
N2 N 0.3343(2) 0.92670(16) 1.31150(12)
C1 C 0.3294(2) 1.01001(16) 1.25025(14)
C2 C 0.4382(2) 1.0279(2) 1.18492(18)
H1 H 0.5046 0.9708 1.1962
H2 H 0.4742 1.1039 1.1940
H3 H 0.4071 1.0207 1.1219
C3 C 0.4368(3) 0.8427(3) 1.3156(2)
H4 H 0.4205 0.7900 1.3662
H5 H 0.5188 0.8812 1.3256
H6 H 0.4400 0.8005 1.2579
C4 C 0.2262(3) 0.9101(3) 1.3732(2)
H7 H 0.2439 0.8461 1.4141
H8 H 0.1489 0.8943 1.3374
H9 H 0.2131 0.9790 1.4097
C5 C 0.47443(19) 1.48562(16) 0.83557(14)
H10 H 0.5302 1.5202 0.7924
C6 C 0.35825(19) 1.53733(16) 0.85432(14)
C7 C 0.27776(19) 1.48818(17) 0.91918(14)
H11 H 0.1971 1.5213 0.9330
C8 C 0.4341(2) 1.34170(16) 0.93961(13)
H12 H 0.4601 1.2737 0.9691
C9 C 0.2321(2) 1.33368(18) 1.03363(14)
C10 C 0.3176(2) 1.38942(15) 0.96351(13)
C11 C 0.3167(2) 1.64071(16) 0.80095(13)
Zn1A Zn 0.33150(2) 1.801999(17) 0.673358(14)
Zn1C Zn 0.66850(2) 1.301999(17) 0.826642(14)
O3A O 0.09435(14) 1.30990(12) 1.25630(9)
N1C N 0.01178(17) 1.11224(14) 1.12373(11)
O6 O -0.2725(6) 0.6249(5) 0.9285(4)
N3 N -0.3779(6) 0.7881(5) 0.9225(4)
C12 C -0.3590(9) 0.6912(6) 0.9562(6)
C13 C -0.4945(12) 0.8575(7) 0.9404(6)
H13 H -0.5703 0.8166 0.9188
H14 H -0.4875 0.9300 0.9080
H15 H -0.5022 0.8716 1.0063
C14 C -0.4314(6) 0.6523(4) 1.0349(3)
H16 H -0.4171 0.5708 1.0436
H17 H -0.5227 0.6663 1.0246
H18 H -0.4032 0.6934 1.0896
C15 C -0.3127(5) 0.8287(6) 0.8403(3)
H19 H -0.2284 0.7928 0.8358
H20 H -0.3021 0.9113 0.8441
H21 H -0.3636 0.8097 0.7862
C16? C -0.3227(7) 0.7325(7) 0.9014(5)
C17? C -0.5090(18) 0.8197(14) 0.9764(11)
H22? H -0.5710 0.8140 0.9262
H23? H -0.4697 0.8951 0.9759
H24? H -0.5529 0.8077 1.0349
N4? N -0.4173(7) 0.7398(8) 0.9656(5)
O7? O -0.2386(9) 0.6705(8) 0.8884(6)
loop_
_geom_bond_atom_site_label_1
_geom_bond_atom_site_label_2
_geom_bond_site_symmetry_1
_geom_bond_site_symmetry_2
Zn1 O1 1_555 1_555
O1 C9 1_555 1_555
O2 C9 1_555 1_555
O3 C11 1_555 1_555
O4 C11 1_555 1_555
N1 C5 1_555 1_555
O5 Zn1 1_555 1_555
N2 C1 1_555 1_555
C1 O5 1_555 1_555
C2 C1 1_555 1_555
H1 C2 1_555 1_555
H2 C2 1_555 1_555
H3 C2 1_555 1_555
C3 N2 1_555 1_555
H4 C3 1_555 1_555
H5 C3 1_555 1_555
H6 C3 1_555 1_555
C4 N2 1_555 1_555
H7 C4 1_555 1_555
H8 C4 1_555 1_555
H9 C4 1_555 1_555
C5 H10 1_555 1_555
C6 C5 1_555 1_555
C7 C6 1_555 1_555
H11 C7 1_555 1_555
C8 N1 1_555 1_555
H12 C8 1_555 1_555
C9 C10 1_555 1_555
C10 C7 1_555 1_555
C11 C6 1_555 1_555
O6 C12 1_555 1_555
N3 C12 1_555 1_555
C12 C14 1_555 1_555
C13 N3 1_555 1_555
H13 C13 1_555 1_555
H14 C13 1_555 1_555
H15 C13 1_555 1_555
C14 H16 1_555 1_555
H17 C14 1_555 1_555
H18 C14 1_555 1_555
C15 N3 1_555 1_555
H19 C15 1_555 1_555
H20 C15 1_555 1_555
H21 C15 1_555 1_555
Zn1A O3 1_555 1_555
Zn1C N1 1_555 1_555
O3A Zn1 1_555 1_555
N1C Zn1 1_555 1_555
C8 C10 1_555 1_555

#END
