
#######################################################################
#
#                 Cambridge Crystallographic Data Centre
#                                CCDC 
#
#######################################################################
#
# If this CIF has been generated from an entry in the Cambridge 
# Structural Database, then it will include bibliographic, chemical, 
# crystal, experimental, refinement or atomic coordinate data resulting 
# from the CCDC's data processing and validation procedures.
#
#######################################################################

data_BUKMUQ01
_symmetry_cell_setting           orthorhombic
_symmetry_space_group_name_H-M   'P 21 21 21'
_symmetry_Int_Tables_number      19
_space_group_name_Hall           'P 2ac 2ab'
loop_
_symmetry_equiv_pos_site_id
_symmetry_equiv_pos_as_xyz
1 x,y,z
2 1/2+x,1/2-y,-z
3 -x,1/2+y,1/2-z
4 1/2-x,-y,1/2+z
_cell_length_a                   10.8285(4)
_cell_length_b                   11.1933(4)
_cell_length_c                   14.7990(6)
_cell_angle_alpha                90
_cell_angle_beta                 90
_cell_angle_gamma                90
_cell_volume                     1793.74
loop_
_atom_site_label
_atom_site_type_symbol
_atom_site_fract_x
_atom_site_fract_y
_atom_site_fract_z
Zn1 Zn 0.34279(2) 0.81577(2) 0.158400(17)
O1 O 0.26005(14) 0.24718(15) 0.56238(11)
O2 O 0.10602(15) 0.37047(16) 0.52490(13)
O3 O 0.40304(14) 0.70387(15) 0.24790(11)
O4 O 0.21025(15) 0.69836(18) 0.29872(13)
N1 N 0.49701(16) 0.39689(16) 0.37997(12)
C1 C 0.46436(19) 0.49909(18) 0.33816(17)
H1 H 0.5220 0.5363 0.2988
C2 C 0.41604(19) 0.34601(18) 0.43704(14)
H2 H 0.4386 0.2739 0.4667
C3 C 0.30105(19) 0.3949(2) 0.45414(15)
C4 C 0.26720(19) 0.4995(2) 0.40980(16)
H3 H 0.1885 0.5345 0.4201
C5 C 0.3502(2) 0.55179(17) 0.35045(15)
C6 C 0.2120(2) 0.3356(2) 0.51874(16)
C7 C 0.3158(2) 0.6609(2) 0.29602(16)
O5 O 0.26266(14) 0.95797(14) 0.21071(12)
C8 C 0.1537(2) 0.97056(18) 0.23973(14)
C9 C 0.0489(2) 0.9003(2) 0.20232(18)
H4 H 0.0786 0.8493 0.1531
H5 H -0.0144 0.9549 0.1792
H6 H 0.0133 0.8503 0.2501
N2 N 0.13187(19) 1.04988(19) 0.30360(14)
C10 C 0.0060(3) 1.0740(3) 0.3360(2)
H7 H -0.0431 1.1086 0.2869
H8 H 0.0093 1.1304 0.3866
H9 H -0.0322 0.9992 0.3561
C11 C 0.2276(3) 1.1292(3) 0.3357(2)
H10 H 0.2301 1.1270 0.4019
H11 H 0.2100 1.2109 0.3156
H12 H 0.3075 1.1036 0.3115
Zn1B Zn 0.65721(2) 0.31577(2) 0.341600(17)
Zn1C Zn 0.15721(2) 0.18423(2) 0.658400(17)
O1C O 0.23995(14) 0.75282(15) 0.06238(11)
N1B N 0.50299(16) 0.89689(16) 0.12003(12)
O6 O 0.1271(2) 1.2427(3) 0.13641(17)
C12 C 0.2341(7) 1.2593(8) 0.1074(5)
C13 C 0.3312(4) 1.3477(3) 0.1405(3)
H13 H 0.2949 1.3999 0.1866
H14 H 0.3602 1.3962 0.0896
H15 H 0.4010 1.3039 0.1666
N3 N 0.2710(7) 1.1874(7) 0.0408(5)
C14 C 0.3968(4) 1.2002(5) 0.0023(3)
H16 H 0.4384 1.2685 0.0305
H17 H 0.3909 1.2134 -0.0630
H18 H 0.4443 1.1273 0.0140
C15 C 0.1812(5) 1.0981(4) 0.0074(3)
H19 H 0.1010 1.1117 0.0363
H20 H 0.2106 1.0177 0.0221
H21 H 0.1725 1.1060 -0.0582
N4? N 0.3107(8) 1.2523(10) 0.0740(6)
C16? C 0.2007(10) 1.1980(11) 0.0774(7)
loop_
_geom_bond_atom_site_label_1
_geom_bond_atom_site_label_2
_geom_bond_site_symmetry_1
_geom_bond_site_symmetry_2
Zn1 O3 1_555 1_555
O1 C6 1_555 1_555
O2 C6 1_555 1_555
O3 C7 1_555 1_555
O4 C7 1_555 1_555
N1 C1 1_555 1_555
C1 H1 1_555 1_555
C2 N1 1_555 1_555
H2 C2 1_555 1_555
C3 C2 1_555 1_555
C4 C3 1_555 1_555
H3 C4 1_555 1_555
C5 C1 1_555 1_555
C6 C3 1_555 1_555
C7 C5 1_555 1_555
O5 Zn1 1_555 1_555
C8 O5 1_555 1_555
C9 C8 1_555 1_555
H4 C9 1_555 1_555
H5 C9 1_555 1_555
H6 C9 1_555 1_555
N2 C8 1_555 1_555
C10 N2 1_555 1_555
H7 C10 1_555 1_555
H8 C10 1_555 1_555
H9 C10 1_555 1_555
C11 N2 1_555 1_555
H10 C11 1_555 1_555
H11 C11 1_555 1_555
H12 C11 1_555 1_555
O6 C12 1_555 1_555
C12 C13 1_555 1_555
C13 H13 1_555 1_555
H14 C13 1_555 1_555
H15 C13 1_555 1_555
N3 C12 1_555 1_555
C14 N3 1_555 1_555
H16 C14 1_555 1_555
H17 C14 1_555 1_555
H18 C14 1_555 1_555
C15 N3 1_555 1_555
H19 C15 1_555 1_555
H20 C15 1_555 1_555
H21 C15 1_555 1_555
Zn1B N1 1_555 1_555
Zn1C O1 1_555 1_555
O1C Zn1 1_555 1_555
N1B Zn1 1_555 1_555
C4 C5 1_555 1_555

#END
