
#######################################################################
#
#                 Cambridge Crystallographic Data Centre
#                                CCDC 
#
#######################################################################
#
# If this CIF has been generated from an entry in the Cambridge 
# Structural Database, then it will include bibliographic, chemical, 
# crystal, experimental, refinement or atomic coordinate data resulting 
# from the CCDC's data processing and validation procedures.
#
#######################################################################

data_BUKNIF
_symmetry_cell_setting           monoclinic
_symmetry_space_group_name_H-M   'P 21/c'
_symmetry_Int_Tables_number      14
_space_group_name_Hall           '-P 2ybc'
loop_
_symmetry_equiv_pos_site_id
_symmetry_equiv_pos_as_xyz
1 x,y,z
2 -x,1/2+y,1/2-z
3 -x,-y,-z
4 x,1/2-y,1/2+z
_cell_length_a                   9.8181(13)
_cell_length_b                   11.4995(11)
_cell_length_c                   7.5819(10)
_cell_angle_alpha                90
_cell_angle_beta                 106.222(7)
_cell_angle_gamma                90
_cell_volume                     821.94
loop_
_atom_site_label
_atom_site_type_symbol
_atom_site_fract_x
_atom_site_fract_y
_atom_site_fract_z
Pb1 Pb 0.65505(4) 0.16000(4) 0.42866(5)
Br1 Br 0.85313(14) 0.12605(13) 0.82782(16)
S1 S 0.4666(3) 0.1306(3) 0.0690(4)
N1 N 0.2631(9) 0.2784(8) 0.1281(10)
N2 N 0.4348(9) 0.3642(7) 0.0520(11)
N3 N 0.3422(9) 0.4482(8) 0.0812(10)
N4 N 0.1304(10) 0.4409(9) 0.1697(13)
H1 H 0.0577 0.4008 0.1747
N5 N 0.1391(11) 0.5615(9) 0.2034(14)
H2 H 0.1592 0.5745 0.3250
H3 H 0.0549 0.5948 0.1488
N6 N 0.1784(10) 0.1934(9) 0.1783(12)
H4 H 0.1059 0.2137 0.2135
H5 H 0.1991 0.1210 0.1739
C1 C 0.3895(11) 0.2637(10) 0.0809(12)
C2 C 0.2409(11) 0.3929(9) 0.1298(12)
Pb1C Pb 0.65505(4) 0.34000(4) -0.07134(5)
Pb1A Pb 0.34495(4) 0.66000(4) 0.07134(5)
N2C N 0.4348(9) 0.1358(7) 0.5520(11)
N3A N 0.6578(9) -0.0518(8) 0.4188(10)
N5A N 0.8609(11) 0.0615(9) 0.2966(14)
H2A H 0.8408 0.0745 0.1750
H3A H 0.9451 0.0948 0.3512
loop_
_geom_bond_atom_site_label_1
_geom_bond_atom_site_label_2
_geom_bond_site_symmetry_1
_geom_bond_site_symmetry_2
Pb1 Br1 1_555 1_555
S1 Pb1 1_555 1_555
N1 N6 1_555 1_555
N2 N3 1_555 1_555
N3 C2 1_555 1_555
N4 H1 1_555 1_555
N5 N4 1_555 1_555
H2 N5 1_555 1_555
H3 N5 1_555 1_555
N6 H4 1_555 1_555
H5 N6 1_555 1_555
C1 S1 1_555 1_555
C2 N1 1_555 1_555
Pb1C N2 1_555 1_555
Pb1A N3 1_555 1_555
N2C Pb1 1_555 1_555
N3A Pb1 1_555 1_555
N5A Pb1 1_555 1_555
H2A N5A 1_555 1_555
H3A N5A 1_555 1_555
N1 C1 1_555 1_555
N2 C1 1_555 1_555
N4 C2 1_555 1_555
N5 Pb1A 1_555 1_555

#END
