
#######################################################################
#
#                 Cambridge Crystallographic Data Centre
#                                CCDC 
#
#######################################################################
#
# If this CIF has been generated from an entry in the Cambridge 
# Structural Database, then it will include bibliographic, chemical, 
# crystal, experimental, refinement or atomic coordinate data resulting 
# from the CCDC's data processing and validation procedures.
#
#######################################################################

data_BUKNUR
_symmetry_cell_setting           orthorhombic
_symmetry_space_group_name_H-M   'P b c a'
_symmetry_Int_Tables_number      61
_space_group_name_Hall           '-P 2ac 2ab'
loop_
_symmetry_equiv_pos_site_id
_symmetry_equiv_pos_as_xyz
1 x,y,z
2 1/2-x,-y,1/2+z
3 -x,1/2+y,1/2-z
4 1/2+x,1/2-y,-z
5 -x,-y,-z
6 1/2+x,y,1/2-z
7 x,1/2-y,1/2+z
8 1/2-x,1/2+y,z
_cell_length_a                   8.8582(13)
_cell_length_b                   8.4826(9)
_cell_length_c                   13.0291(15)
_cell_angle_alpha                90
_cell_angle_beta                 90
_cell_angle_gamma                90
_cell_volume                     979.014
loop_
_atom_site_label
_atom_site_type_symbol
_atom_site_fract_x
_atom_site_fract_y
_atom_site_fract_z
Pb1 Pb 0.52438(4) 0.38109(4) 0.82112(3)
S1 S 0.7670(3) 0.6179(2) 0.7700(2)
N1 N 0.8275(12) 0.6223(9) 0.4770(6)
N2 N 0.8759(10) 0.5875(9) 0.5770(6)
N3 N 0.6453(10) 0.6948(10) 0.5830(6)
C1 C 0.7627(10) 0.6333(7) 0.6369(8)
C2 C 0.6887(12) 0.6846(13) 0.4840(7)
H1 H 0.6305 0.7164 0.4284
Pb1G Pb 0.97562(4) 0.88109(4) 0.82112(3)
Pb1A Pb 0.97562(4) 0.61891(4) 0.32112(3)
Pb1E Pb 1.02438(4) 0.38109(4) 0.67888(3)
Pb1B Pb 0.47562(4) 0.88109(4) 0.67888(3)
S1G S 0.7330(3) 0.1179(2) 0.7700(2)
N1A N 0.6725(12) 0.3777(9) 0.9770(6)
N2E N 0.3759(10) 0.5875(9) 0.9230(6)
N3B N 0.3547(10) 0.1948(10) 0.9170(6)
loop_
_geom_bond_atom_site_label_1
_geom_bond_atom_site_label_2
_geom_bond_site_symmetry_1
_geom_bond_site_symmetry_2
Pb1 S1 1_555 1_555
S1 C1 1_555 1_555
N1 N2 1_555 1_555
N2 C1 1_555 1_555
N3 C1 1_555 1_555
C2 N1 1_555 1_555
H1 C2 1_555 1_555
Pb1G S1 1_555 1_555
Pb1A N1 1_555 1_555
Pb1E N2 1_555 1_555
Pb1B N3 1_555 1_555
S1G Pb1 1_555 1_555
N1A Pb1 1_555 1_555
N2E Pb1 1_555 1_555
N3B Pb1 1_555 1_555
N3 C2 1_555 1_555

#END
