
#######################################################################
#
#                 Cambridge Crystallographic Data Centre
#                                CCDC 
#
#######################################################################
#
# If this CIF has been generated from an entry in the Cambridge 
# Structural Database, then it will include bibliographic, chemical, 
# crystal, experimental, refinement or atomic coordinate data resulting 
# from the CCDC's data processing and validation procedures.
#
#######################################################################

data_BUKRUW01
_symmetry_cell_setting           cubic
_symmetry_space_group_name_H-M   'P 21 3'
_symmetry_Int_Tables_number      198
_space_group_name_Hall           'P 2ac 2ab 3'
loop_
_symmetry_equiv_pos_site_id
_symmetry_equiv_pos_as_xyz
1 x,y,z
2 1/2-x,-y,1/2+z
3 -x,1/2+y,1/2-z
4 1/2+x,1/2-y,-z
5 z,x,y
6 1/2+z,1/2-x,-y
7 1/2-z,-x,1/2+y
8 -z,1/2+x,1/2-y
9 y,z,x
10 -y,1/2+z,1/2-x
11 1/2+y,1/2-z,-x
12 1/2-y,-z,1/2+x
_cell_length_a                   20.1619(3)
_cell_length_b                   20.1619(3)
_cell_length_c                   20.1619(3)
_cell_angle_alpha                90
_cell_angle_beta                 90
_cell_angle_gamma                90
_cell_volume                     8195.86
loop_
_atom_site_label
_atom_site_type_symbol
_atom_site_fract_x
_atom_site_fract_y
_atom_site_fract_z
Zn1 Zn 0.30080(5) 0.69920(5) 0.19920(5)
O1 O 0.24486(18) 0.75514(18) 0.25514(18)
N1 N 0.2730(3) 0.7374(3) 0.1078(3)
Zn2 Zn 0.19008(4) 0.80983(5) 0.19582(4)
N2 N 0.22307(19) 0.77977(18) 0.10224(18)
C1 C 0.2929(4) 0.7215(4) 0.0472(4)
N3 N 0.2077(3) 0.9008(2) 0.2197(3)
N4 N 0.0986(3) 0.7900(3) 0.2194(4)
C2 C 0.2121(3) 0.7900(3) 0.0383(3)
H1 H 0.3280 0.6919 0.0364
C3 C 0.2552(3) 0.7539(4) 0.0042(4)
C4 C 0.2100(3) 0.9597(3) 0.2134(4)
C5 C 0.2908(3) 0.9585(4) 0.2893(3)
H2 H 0.1790 0.8182 0.0200
C6 C 0.2577(5) 0.7359(5) -0.0673(5)
H3 H 0.1864 0.9800 0.1780
C7 C 0.2497(3) 1.0027(4) 0.2603(3)
H4 H 0.3299 0.9745 0.3101
O2 O 0.2571(6) 0.7036(6) -0.1089(5)
C8 C 0.2506(3) 1.0812(4) 0.2642(3)
Zn3 Zn 0.30404(5) 0.69229(5) -0.19082(5)
O3 O 0.21795(19) 1.10533(18) 0.2200(2)
O4 O 0.2914(6) 1.1115(6) 0.2920(6)
O5 O 0.2444(2) 0.7444(2) -0.2444(2)
O6 O 0.2857(8) 0.6121(9) -0.1902(8)
Zn4 Zn 0.19662(4) 1.19662(4) 0.19662(4)
N1F N 0.3922(3) 0.7270(3) 0.2374(3)
N1I N 0.2626(3) 0.6078(3) 0.2270(3)
Zn2F Zn 0.30418(4) 0.80992(4) 0.30983(5)
Zn2I Zn 0.19017(5) 0.69582(4) 0.30992(4)
N4F N 0.2806(4) 0.9014(3) 0.2900(3)
O4K O 0.3885(6) 0.7080(6) -0.2086(6)
Zn3E Zn 0.30918(5) 1.19596(5) 0.30771(5)
Zn4A Zn 0.30338(4) 0.80338(4) -0.30338(4)
Zn3G Zn 0.19082(5) 0.80404(5) -0.19229(5)
Zn3J Zn 0.19229(5) 0.69082(5) -0.30404(5)
C8K C 0.4188(4) 0.7358(3) -0.2494(3)
O5A O 0.2556(2) 1.2556(2) 0.2556(2)
O2E O 0.3911(5) 1.2429(6) 0.2964(6)
O6E O 0.3098(8) 1.2143(8) 0.3879(9)
O3K O 0.39467(18) 0.7800(2) -0.28205(19)
O3A O 0.28205(19) 0.89467(18) -0.2800(2)
O3F O 0.2800(2) 0.78205(19) -0.39467(18)
C7K C 0.4973(4) 0.7397(3) -0.2503(3)
C6E C 0.4327(5) 1.2423(5) 0.2641(5)
C4K C 0.5403(3) 0.7866(4) -0.2900(3)
C5K C 0.5415(4) 0.7107(3) -0.2092(3)
C3E C 0.5042(4) 1.2448(3) 0.2461(4)
N3K N 0.5992(2) 0.7803(3) -0.2923(3)
H3K H 0.5200 0.8220 -0.3136
N4C N 0.5986(3) 0.7100(3) -0.2194(4)
H4K H 0.5255 0.6899 -0.1701
C1E C 0.5472(4) 1.2071(4) 0.2785(4)
C2E C 0.5383(3) 1.2879(3) 0.2100(3)
Zn2K Zn 0.69017(5) 0.80418(4) -0.30992(4)
Zn2C Zn 0.69008(4) 0.69017(5) -0.19582(4)
N1E N 0.6078(3) 1.2270(3) 0.2626(3)
H1E H 0.5364 1.1720 0.3081
N2E N 0.60224(18) 1.27693(19) 0.22023(18)
H2E H 0.5200 1.3210 0.1818
N2K N 0.72023(18) 0.89776(18) -0.27693(19)
O1C O 0.74486(18) 0.74486(18) -0.25514(18)
N4K N 0.7100(3) 0.7806(4) -0.4014(3)
Zn1B Zn 0.69920(5) 1.19920(5) 0.30080(5)
Zn2E Zn 0.69582(4) 1.30992(4) 0.19017(5)
N1K N 0.7626(3) 0.8922(3) -0.2270(3)
C2K C 0.7100(3) 0.9617(3) -0.2879(3)
Zn1C Zn 0.80080(5) 0.80080(5) -0.19920(5)
Zn2H Zn 0.80983(5) 1.19582(4) 0.19008(4)
O1B O 0.75514(18) 1.25514(18) 0.24486(18)
N3E N 0.7197(3) 1.2923(3) 0.0992(2)
N4E N 0.7194(4) 1.4014(3) 0.2100(3)
C1K C 0.7785(4) 0.9528(4) -0.2071(4)
C3K C 0.7461(4) 0.9958(4) -0.2448(3)
H2K H 0.6818 0.9800 -0.3210
N4H N 0.7900(3) 1.2194(4) 0.0986(3)
C4E C 0.7134(4) 1.2900(3) 0.0403(3)
H1K H 0.8081 0.9636 -0.1720
C6K C 0.7641(5) 1.0673(5) -0.2423(5)
C5E C 0.7893(3) 1.2092(3) 0.0415(4)
H3E H 0.6780 1.3136 0.0200
C7E C 0.7603(3) 1.2503(3) -0.0027(4)
O2K O 0.7964(6) 1.1089(5) -0.2429(6)
H4E H 0.8101 1.1701 0.0255
C8E C 0.7642(3) 1.2494(3) -0.0812(4)
Zn3K Zn 0.80771(5) 1.19082(5) -0.19596(5)
O3E O 0.7200(2) 1.28205(19) -0.10533(18)
O4E O 0.7920(6) 1.2086(6) -0.1115(6)
O6K O 0.8879(9) 1.1902(8) -0.2143(8)
O5B O 0.7556(2) 1.2444(2) -0.2556(2)
Zn4C Zn 0.69662(4) 1.30338(4) -0.19662(4)
loop_
_geom_bond_atom_site_label_1
_geom_bond_atom_site_label_2
_geom_bond_site_symmetry_1
_geom_bond_site_symmetry_2
Zn1 O1 1_555 1_555
O1 Zn2 1_555 1_555
N1 Zn1 1_555 1_555
Zn2 N2 1_555 1_555
N2 N1 1_555 1_555
C1 N1 1_555 1_555
N3 Zn2 1_555 1_555
N4 Zn2 1_555 1_555
C2 N2 1_555 1_555
H1 C1 1_555 1_555
C3 C1 1_555 1_555
C4 N3 1_555 1_555
C5 C7 1_555 1_555
H2 C2 1_555 1_555
C6 C3 1_555 1_555
H3 C4 1_555 1_555
C7 C4 1_555 1_555
H4 C5 1_555 1_555
O2 C6 1_555 1_555
C8 C7 1_555 1_555
Zn3 O2 1_555 1_555
O3 C8 1_555 1_555
O4 C8 1_555 1_555
O5 Zn3 1_555 1_555
O6 Zn3 1_555 1_555
Zn4 O3 1_555 1_555
N1F Zn1 1_555 1_555
N1I Zn1 1_555 1_555
Zn2F O1 1_555 1_555
Zn2I O1 1_555 1_555
N4F N3 1_555 1_555
O4K Zn3 1_555 1_555
Zn3E O4 1_555 1_555
Zn4A O5 1_555 1_555
Zn3G O5 1_555 1_555
Zn3J O5 1_555 1_555
C8K O4K 1_555 1_555
O5A Zn4 1_555 1_555
O2E Zn3E 1_555 1_555
O6E Zn3E 1_555 1_555
O3K Zn4A 1_555 1_555
O3A Zn4A 1_555 1_555
O3F Zn4A 1_555 1_555
C7K C8K 1_555 1_555
C6E O2E 1_555 1_555
C4K C7K 1_555 1_555
C5K C7K 1_555 1_555
C3E C6E 1_555 1_555
N3K C4K 1_555 1_555
H3K C4K 1_555 1_555
N4C C5K 1_555 1_555
H4K C5K 1_555 1_555
C1E C3E 1_555 1_555
C2E C3E 1_555 1_555
Zn2K N3K 1_555 1_555
Zn2C N4C 1_555 1_555
N1E C1E 1_555 1_555
H1E C1E 1_555 1_555
N2E C2E 1_555 1_555
H2E C2E 1_555 1_555
N2K Zn2K 1_555 1_555
O1C Zn2K 1_555 1_555
N4K Zn2K 1_555 1_555
Zn1B N1E 1_555 1_555
Zn2E N2E 1_555 1_555
N1K N2K 1_555 1_555
C2K N2K 1_555 1_555
Zn1C O1C 1_555 1_555
Zn2H O1B 1_555 1_555
O1B Zn1B 1_555 1_555
N3E Zn2E 1_555 1_555
N4E Zn2E 1_555 1_555
C1K N1K 1_555 1_555
C3K C2K 1_555 1_555
H2K C2K 1_555 1_555
N4H Zn2H 1_555 1_555
C4E N3E 1_555 1_555
H1K C1K 1_555 1_555
C6K C3K 1_555 1_555
C5E N4H 1_555 1_555
H3E C4E 1_555 1_555
C7E C4E 1_555 1_555
O2K C6K 1_555 1_555
H4E C5E 1_555 1_555
C8E C7E 1_555 1_555
Zn3K O2K 1_555 1_555
O3E C8E 1_555 1_555
O4E C8E 1_555 1_555
O6K Zn3K 1_555 1_555
O5B Zn3K 1_555 1_555
Zn4C O3E 1_555 1_555
C2 C3 1_555 1_555
C5 N4F 1_555 1_555
Zn2F N4F 1_555 1_555
Zn3E O5A 1_555 1_555
C8K O3K 1_555 1_555
N3K N4C 1_555 1_555
Zn2C O1C 1_555 1_555
N1E N2E 1_555 1_555
Zn2E O1B 1_555 1_555
N1K Zn1C 1_555 1_555
N3E N4H 1_555 1_555
C1K C3K 1_555 1_555
C5E C7E 1_555 1_555
Zn3K O4E 1_555 1_555
O5B Zn4C 1_555 1_555

#END
