
#######################################################################
#
#                 Cambridge Crystallographic Data Centre
#                                CCDC 
#
#######################################################################
#
# If this CIF has been generated from an entry in the Cambridge 
# Structural Database, then it will include bibliographic, chemical, 
# crystal, experimental, refinement or atomic coordinate data resulting 
# from the CCDC's data processing and validation procedures.
#
#######################################################################

data_BUKSAD
_symmetry_cell_setting           cubic
_symmetry_space_group_name_H-M   'P 21 3'
_symmetry_Int_Tables_number      198
_space_group_name_Hall           'P 2ac 2ab 3'
loop_
_symmetry_equiv_pos_site_id
_symmetry_equiv_pos_as_xyz
1 x,y,z
2 1/2-x,-y,1/2+z
3 -x,1/2+y,1/2-z
4 1/2+x,1/2-y,-z
5 z,x,y
6 1/2+z,1/2-x,-y
7 1/2-z,-x,1/2+y
8 -z,1/2+x,1/2-y
9 y,z,x
10 -y,1/2+z,1/2-x
11 1/2+y,1/2-z,-x
12 1/2-y,-z,1/2+x
_cell_length_a                   20.0872(19)
_cell_length_b                   20.0872(19)
_cell_length_c                   20.0872(19)
_cell_angle_alpha                90
_cell_angle_beta                 90
_cell_angle_gamma                90
_cell_volume                     8105.1
loop_
_atom_site_label
_atom_site_type_symbol
_atom_site_fract_x
_atom_site_fract_y
_atom_site_fract_z
Zn1 Zn 0.97563(8) -0.00162(9) 0.10108(9)
Zn2 Zn 0.60126(10) 0.02418(10) -0.00348(9)
O1 O 1.0431(4) 0.0431(4) 0.0431(4)
O2 O 0.5455(3) -0.0455(3) 0.0455(3)
O3 O 0.6991(3) 0.0893(4) -0.0394(4)
O4 O 0.6926(3) 0.0074(3) 0.0295(3)
N1 N 0.9113(5) 0.0744(5) 0.0025(5)
C1 C 0.8058(5) 0.0513(6) 0.0179(5)
C2 C 0.7324(6) 0.0437(7) 0.0004(6)
C3 C 0.8459(5) 0.0903(5) -0.0184(6)
H1 H 0.8331 0.1219 -0.0512
N2 N 0.8943(3) 0.0303(3) 0.0517(3)
O5 O 0.5831(4) -0.0036(5) -0.1008(4)
O6 O 0.9977(4) -0.0349(5) 0.2043(5)
C4 C 0.8348(6) 0.0138(6) 0.0536(7)
H2 H 0.8160 -0.0217 0.0786
O7 O 0.9767(6) 0.0966(6) 0.1063(6)
Zn1D Zn 1.10108(9) -0.02437(8) -0.00162(9)
Zn2D Zn 0.99652(9) -0.39874(10) 0.02418(10)
O3D O 0.9606(4) -0.3009(3) 0.0893(4)
O4D O 1.0295(3) -0.3074(3) 0.0074(3)
N1D N 1.0025(5) -0.0887(5) 0.0744(5)
C1D C 1.0179(5) -0.1942(5) 0.0513(6)
C2D C 1.0004(6) -0.2676(6) 0.0437(7)
C3D C 0.9816(6) -0.1541(5) 0.0903(5)
H1D H 0.9488 -0.1669 0.1219
N2D N 1.0517(3) -0.1057(3) 0.0303(3)
O5D O 0.8992(4) -0.4169(4) -0.0036(5)
O6D O 1.2043(5) -0.0023(4) -0.0349(5)
C4D C 1.0536(7) -0.1652(6) 0.0138(6)
H2D H 1.0786 -0.1840 -0.0217
O7D O 1.1063(6) -0.0233(6) 0.0966(6)
Zn1H Zn 0.99838(9) 0.10108(9) -0.02437(8)
Zn2H Zn 1.02418(10) -0.00348(9) -0.39874(10)
O3H O 1.0893(4) -0.0394(4) -0.3009(3)
O4H O 1.0074(3) 0.0295(3) -0.3074(3)
N1H N 1.0744(5) 0.0025(5) -0.0887(5)
C1H C 1.0513(6) 0.0179(5) -0.1942(5)
C2H C 1.0437(7) 0.0004(6) -0.2676(6)
C3H C 1.0903(5) -0.0184(6) -0.1541(5)
H1H H 1.1219 -0.0512 -0.1669
N2H N 1.0303(3) 0.0517(3) -0.1057(3)
O5H O 0.9964(5) -0.1008(4) -0.4169(4)
O6H O 0.9651(5) 0.2043(5) -0.0023(4)
C4H C 1.0138(6) 0.0536(7) -0.1652(6)
H2H H 0.9783 0.0786 -0.1840
O7H O 1.0966(6) 0.1063(6) -0.0233(6)
Zn2E Zn 0.49652(9) -0.10126(10) -0.02418(10)
Zn2K Zn 0.47582(10) 0.00348(9) 0.10126(10)
O2A O 0.9545(3) 0.0455(3) -0.4545(3)
O2C O 1.0455(3) -0.4545(3) -0.0455(3)
loop_
_geom_bond_atom_site_label_1
_geom_bond_atom_site_label_2
_geom_bond_site_symmetry_1
_geom_bond_site_symmetry_2
Zn1 O1 1_555 1_555
Zn2 O2 1_555 1_555
O1 Zn1D 1_555 1_555
O2 Zn2E 1_555 1_555
O3 Zn2 1_555 1_555
O4 Zn2 1_555 1_555
N1 C3 1_555 1_555
C1 C2 1_555 1_555
C2 O3 1_555 1_555
C3 C1 1_555 1_555
H1 C3 1_555 1_555
N2 Zn1 1_555 1_555
O5 Zn2 1_555 1_555
O6 Zn1 1_555 1_555
C4 C1 1_555 1_555
H2 C4 1_555 1_555
O7 Zn1 1_555 1_555
Zn1D N2D 1_555 1_555
Zn2D O3D 1_555 1_555
O3D C2D 1_555 1_555
O4D Zn2D 1_555 1_555
N1D Zn1 1_555 1_555
C1D C2D 1_555 1_555
C2D O4D 1_555 1_555
C3D N1D 1_555 1_555
H1D C3D 1_555 1_555
N2D N1D 1_555 1_555
O5D Zn2D 1_555 1_555
O6D Zn1D 1_555 1_555
C4D C1D 1_555 1_555
H2D C4D 1_555 1_555
O7D Zn1D 1_555 1_555
Zn1H O1 1_555 1_555
Zn2H O3H 1_555 1_555
O3H C2H 1_555 1_555
O4H Zn2H 1_555 1_555
N1H Zn1D 1_555 1_555
C1H C2H 1_555 1_555
C2H O4H 1_555 1_555
C3H N1H 1_555 1_555
H1H C3H 1_555 1_555
N2H Zn1H 1_555 1_555
O5H Zn2H 1_555 1_555
O6H Zn1H 1_555 1_555
C4H C1H 1_555 1_555
H2H C4H 1_555 1_555
O7H Zn1H 1_555 1_555
Zn2K O2 1_555 1_555
O2A Zn2H 1_555 1_555
O2C Zn2D 1_555 1_555
O4 C2 1_555 1_555
N1 N2 1_555 1_555
N1 Zn1H 1_555 1_555
N2 C4 1_555 1_555
C1D C3D 1_555 1_555
N2D C4D 1_555 1_555
N1H N2H 1_555 1_555
C1H C3H 1_555 1_555
N2H C4H 1_555 1_555

#END
