
#######################################################################
#
#                 Cambridge Crystallographic Data Centre
#                                CCDC 
#
#######################################################################
#
# If this CIF has been generated from an entry in the Cambridge 
# Structural Database, then it will include bibliographic, chemical, 
# crystal, experimental, refinement or atomic coordinate data resulting 
# from the CCDC's data processing and validation procedures.
#
#######################################################################

data_BUKXUC
_symmetry_cell_setting           monoclinic
_symmetry_space_group_name_H-M   'P 21'
_symmetry_Int_Tables_number      4
_space_group_name_Hall           'P 2yb'
loop_
_symmetry_equiv_pos_site_id
_symmetry_equiv_pos_as_xyz
1 x,y,z
2 -x,1/2+y,-z
_cell_length_a                   9.424(2)
_cell_length_b                   10.634(2)
_cell_length_c                   9.4807(18)
_cell_angle_alpha                90
_cell_angle_beta                 98.611(16)
_cell_angle_gamma                90
_cell_volume                     939.397
loop_
_atom_site_label
_atom_site_type_symbol
_atom_site_fract_x
_atom_site_fract_y
_atom_site_fract_z
O1 O 0.1639(5) 0.6677(5) 0.2258(5)
N1 N 0.5079(6) 1.1381(6) 0.6225(6)
O2 O -0.0499(5) 0.8476(5) 0.4141(5)
O3 O 0.2713(5) 0.8932(5) 0.3355(5)
N2 N 0.0160(6) 0.4140(6) -0.0974(6)
N3 N 0.5197(6) 0.7637(6) -0.1200(6)
C1 C -0.0259(8) 0.5454(8) 0.0998(7)
H1 H -0.0915 0.5750 0.1562
C2 C 0.4933(8) 0.9828(7) 0.4378(7)
H2 H 0.5432 0.9363 0.3781
N4 N -0.0001(6) 0.7544(6) 0.6334(6)
C3 C 0.2813(7) 1.0482(8) 0.5184(7)
H3 H 0.1825 1.0469 0.5178
C4 C 0.2087(8) 0.5300(8) 0.0390(7)
H4 H 0.3063 0.5483 0.0533
C5 C 0.1213(9) 0.5855(7) 0.1280(7)
O4 O 0.4298(6) 0.7945(6) 0.0851(6)
C6 C 0.3418(8) 0.9699(8) 0.4247(7)
C7 C 0.3658(8) 1.1279(7) 0.6122(7)
H5 H 0.3198 1.1777 0.6721
C8 C 0.5681(8) 1.0627(7) 0.5367(7)
H6 H 0.6676 1.0638 0.5439
C9 C -0.0698(8) 0.4643(8) -0.0091(7)
H7 H -0.1661 0.4415 -0.0241
C10 C 0.4393(8) 0.8195(8) -0.0377(8)
H8 H 0.3831 0.8859 -0.0782
C11 C 0.5346(8) 0.8098(8) -0.2612(7)
H9 H 0.4667 0.8762 -0.2872
H10 H 0.5167 0.7425 -0.3289
H11 H 0.6301 0.8413 -0.2607
C12 C -0.0723(7) 0.8285(8) 0.5356(8)
H12 H -0.1497 0.8713 0.5630
C13 C 0.1551(8) 0.4491(8) -0.0691(7)
H13 H 0.2184 0.4166 -0.1262
C14 C 0.6162(8) 0.6607(9) -0.0616(8)
H14 H 0.5966 0.6388 0.0319
H15 H 0.7141 0.6876 -0.0555
H16 H 0.6004 0.5887 -0.1230
C15 C 0.1222(8) 0.6829(8) 0.5948(8)
H17 H 0.1413 0.7097 0.5028
H18 H 0.0996 0.5948 0.5917
H19 H 0.2053 0.6975 0.6646
C16 C -0.0444(8) 0.7293(8) 0.7702(7)
H20 H -0.1236 0.7830 0.7824
H21 H 0.0342 0.7453 0.8448
H22 H -0.0734 0.6430 0.7741
Li1 Li 0.0814(12) 0.8241(12) 0.2770(11)
Li2 Li 0.3509(12) 0.7516(15) 0.2522(12)
N1A N 0.4921(6) 0.6381(6) 0.3775(6)
N2A N -0.0160(6) 0.9140(6) 0.0974(6)
Li1A Li -0.0814(12) 0.3241(12) -0.2770(11)
Li2A Li 0.6491(12) 1.2516(15) 0.7478(12)
loop_
_geom_bond_atom_site_label_1
_geom_bond_atom_site_label_2
_geom_bond_site_symmetry_1
_geom_bond_site_symmetry_2
O1 C5 1_555 1_555
N1 C7 1_555 1_555
O2 C12 1_555 1_555
O3 C6 1_555 1_555
N2 C9 1_555 1_555
N3 C10 1_555 1_555
C1 H1 1_555 1_555
C2 H2 1_555 1_555
N4 C12 1_555 1_555
C3 H3 1_555 1_555
C4 H4 1_555 1_555
C5 C1 1_555 1_555
O4 C10 1_555 1_555
C6 C2 1_555 1_555
C7 C3 1_555 1_555
H5 C7 1_555 1_555
C8 N1 1_555 1_555
H6 C8 1_555 1_555
C9 C1 1_555 1_555
H7 C9 1_555 1_555
C10 H8 1_555 1_555
C11 N3 1_555 1_555
H9 C11 1_555 1_555
H10 C11 1_555 1_555
H11 C11 1_555 1_555
C12 H12 1_555 1_555
C13 N2 1_555 1_555
H13 C13 1_555 1_555
C14 N3 1_555 1_555
H14 C14 1_555 1_555
H15 C14 1_555 1_555
H16 C14 1_555 1_555
C15 N4 1_555 1_555
H17 C15 1_555 1_555
H18 C15 1_555 1_555
H19 C15 1_555 1_555
C16 N4 1_555 1_555
H20 C16 1_555 1_555
H21 C16 1_555 1_555
H22 C16 1_555 1_555
Li1 O1 1_555 1_555
Li2 O1 1_555 1_555
N1A Li2 1_555 1_555
N2A Li1 1_555 1_555
Li1A N2 1_555 1_555
Li2A N1 1_555 1_555
O2 Li1 1_555 1_555
O3 Li1 1_555 1_555
O3 Li2 1_555 1_555
C2 C8 1_555 1_555
C3 C6 1_555 1_555
C4 C5 1_555 1_555
C4 C13 1_555 1_555
O4 Li2 1_555 1_555

#END
