
#######################################################################
#
#                 Cambridge Crystallographic Data Centre
#                                CCDC 
#
#######################################################################
#
# If this CIF has been generated from an entry in the Cambridge 
# Structural Database, then it will include bibliographic, chemical, 
# crystal, experimental, refinement or atomic coordinate data resulting 
# from the CCDC's data processing and validation procedures.
#
#######################################################################

data_BULBIV
_symmetry_cell_setting           orthorhombic
_symmetry_space_group_name_H-M   'P b c a'
_symmetry_Int_Tables_number      61
_space_group_name_Hall           '-P 2ac 2ab'
loop_
_symmetry_equiv_pos_site_id
_symmetry_equiv_pos_as_xyz
1 x,y,z
2 1/2-x,-y,1/2+z
3 -x,1/2+y,1/2-z
4 1/2+x,1/2-y,-z
5 -x,-y,-z
6 1/2+x,y,1/2-z
7 x,1/2-y,1/2+z
8 1/2-x,1/2+y,z
_cell_length_a                   8.4187(4)
_cell_length_b                   20.3266(11)
_cell_length_c                   33.4480(16)
_cell_angle_alpha                90
_cell_angle_beta                 90
_cell_angle_gamma                90
_cell_volume                     5723.74
loop_
_atom_site_label
_atom_site_type_symbol
_atom_site_fract_x
_atom_site_fract_y
_atom_site_fract_z
Cd1 Cd 0.974231(17) 0.943665(6) 0.367044(4)
O1 O 1.05682(18) 0.85435(7) 0.41506(4)
N1 N 0.2527(2) 1.16888(8) 0.68142(5)
C1 C 0.2270(2) 1.23506(9) 0.69190(6)
O2 O 1.11003(19) 0.85448(7) 0.35063(4)
N2 N 0.1490(2) 1.06479(7) 0.69638(5)
N3 N 0.1145(2) 1.24529(8) 0.71925(5)
O3 O 1.33968(17) 0.51849(6) 0.40514(4)
C2 C 0.0877(3) 1.30791(11) 0.73006(7)
H1 H 0.0108 1.3158 0.7494
O4 O 1.4302(2) 0.54355(7) 0.34517(4)
N4 N 0.80920(19) 0.99178(7) 0.41132(4)
C3 C 0.1667(3) 1.36092(11) 0.71437(7)
H2 H 0.1423 1.4036 0.7224
C4 C 0.2839(3) 1.34901(10) 0.68626(7)
H3 H 0.3406 1.3838 0.6752
C5 C 0.3162(3) 1.28534(10) 0.67475(6)
H4 H 0.3951 1.2762 0.6561
C6 C 0.2216(2) 1.11903(9) 0.71000(5)
C7 C 0.1238(2) 1.01522(9) 0.72244(6)
H5 H 0.0729 0.9775 0.7133
C8 C 0.1700(3) 1.01794(10) 0.76196(6)
H6 H 0.1514 0.9827 0.7790
C9 C 0.2445(3) 1.07421(11) 0.77563(6)
H7 H 0.2761 1.0775 0.8022
C10 C 0.2715(3) 1.12538(10) 0.74949(6)
H8 H 0.3222 1.1635 0.7581
C11 C 0.3023(2) 1.17719(9) 0.60895(6)
H9 H 0.2221 1.2084 0.6066
C12 C 0.3854(2) 1.15704(9) 0.57539(6)
H10 H 0.3617 1.1755 0.5507
C13 C 0.5047(2) 1.10918(9) 0.57818(6)
C14 C 0.5413(2) 1.08449(10) 0.61599(6)
H11 H 0.6223 1.0536 0.6186
C15 C 0.4601(2) 1.10480(10) 0.64961(6)
H12 H 0.4867 1.0877 0.6745
C16 C 0.5900(3) 1.08178(10) 0.54407(6)
H13 H 0.6748 1.0542 0.5501
C17 C 0.5617(2) 1.09140(9) 0.50520(6)
H14 H 0.4819 1.1207 0.4980
C18 C 0.6500(2) 1.05804(9) 0.47345(6)
C19 C 0.6180(3) 1.07100(10) 0.43329(6)
H15 H 0.5423 1.1023 0.4264
C20 C 0.6988(3) 1.03730(10) 0.40373(6)
H16 H 0.6751 1.0468 0.3772
C21 C 0.8411(2) 0.97940(10) 0.45009(6)
H17 H 0.9180 0.9480 0.4560
C22 C 0.7666(3) 1.01052(10) 0.48117(5)
H18 H 0.7933 1.0001 0.5074
C23 C 1.1144(2) 0.82713(9) 0.38473(6)
C24 C 1.1856(2) 0.75881(9) 0.38612(6)
C25 C 1.1873(3) 0.72457(10) 0.35071(6)
H19 H 1.1489 0.7445 0.3276
C26 C 1.2458(3) 0.66000(10) 0.34869(6)
H20 H 1.2437 0.6377 0.3244
C27 C 1.3061(2) 0.62915(9) 0.38189(6)
C28 C 1.3148(2) 0.66414(9) 0.41892(5)
C29 C 1.3927(3) 0.63779(9) 0.45306(6)
H21 H 1.4364 0.5958 0.4517
C30 C 1.4046(3) 0.67293(10) 0.48778(6)
H22 H 1.4579 0.6552 0.5096
C31 C 1.3366(3) 0.73564(10) 0.49051(6)
H23 H 1.3431 0.7589 0.5144
C32 C 1.2610(3) 0.76296(9) 0.45851(6)
H24 H 1.2155 0.8044 0.4611
C33 C 1.2502(2) 0.72937(9) 0.42139(5)
C34 C 1.3617(2) 0.55914(9) 0.37771(6)
C35 C 0.3388(2) 1.15063(9) 0.64633(6)
Cd1D Cd 0.025769(17) 1.056335(6) 0.632956(4)
Cd1G Cd 1.525769(17) 0.443665(6) 0.367044(4)
N2D N 0.8510(2) 0.93521(7) 0.30362(5)
O3G O 1.16032(17) 1.01849(6) 0.40514(4)
O4G O 1.0698(2) 1.04355(7) 0.34517(4)
loop_
_geom_bond_atom_site_label_1
_geom_bond_atom_site_label_2
_geom_bond_site_symmetry_1
_geom_bond_site_symmetry_2
Cd1 O1 1_555 1_555
O1 C23 1_555 1_555
N1 C1 1_555 1_555
C1 N3 1_555 1_555
O2 Cd1 1_555 1_555
N2 C6 1_555 1_555
N3 C2 1_555 1_555
O3 C34 1_555 1_555
C2 H1 1_555 1_555
O4 C34 1_555 1_555
N4 Cd1 1_555 1_555
C3 C2 1_555 1_555
H2 C3 1_555 1_555
C4 C3 1_555 1_555
H3 C4 1_555 1_555
C5 C1 1_555 1_555
H4 C5 1_555 1_555
C6 N1 1_555 1_555
C7 N2 1_555 1_555
H5 C7 1_555 1_555
C8 C7 1_555 1_555
H6 C8 1_555 1_555
C9 C8 1_555 1_555
H7 C9 1_555 1_555
C10 C6 1_555 1_555
H8 C10 1_555 1_555
C11 H9 1_555 1_555
C12 C11 1_555 1_555
H10 C12 1_555 1_555
C13 C12 1_555 1_555
C14 C13 1_555 1_555
H11 C14 1_555 1_555
C15 C14 1_555 1_555
H12 C15 1_555 1_555
C16 C13 1_555 1_555
H13 C16 1_555 1_555
C17 C16 1_555 1_555
H14 C17 1_555 1_555
C18 C17 1_555 1_555
C19 C18 1_555 1_555
H15 C19 1_555 1_555
C20 N4 1_555 1_555
H16 C20 1_555 1_555
C21 N4 1_555 1_555
H17 C21 1_555 1_555
C22 C18 1_555 1_555
H18 C22 1_555 1_555
C23 O2 1_555 1_555
C24 C23 1_555 1_555
C25 C24 1_555 1_555
H19 C25 1_555 1_555
C26 C25 1_555 1_555
H20 C26 1_555 1_555
C27 C26 1_555 1_555
C28 C27 1_555 1_555
C29 C28 1_555 1_555
H21 C29 1_555 1_555
C30 C29 1_555 1_555
H22 C30 1_555 1_555
C31 C30 1_555 1_555
H23 C31 1_555 1_555
C32 C31 1_555 1_555
H24 C32 1_555 1_555
C33 C24 1_555 1_555
C34 C27 1_555 1_555
C35 N1 1_555 1_555
Cd1D N2 1_555 1_555
Cd1G O3 1_555 1_555
N2D Cd1 1_555 1_555
O3G Cd1 1_555 1_555
O4G Cd1 1_555 1_555
O4 Cd1G 1_555 1_555
C4 C5 1_555 1_555
C9 C10 1_555 1_555
C11 C35 1_555 1_555
C15 C35 1_555 1_555
C19 C20 1_555 1_555
C21 C22 1_555 1_555
C28 C33 1_555 1_555
C32 C33 1_555 1_555

#END
