
#######################################################################
#
#                 Cambridge Crystallographic Data Centre
#                                CCDC 
#
#######################################################################
#
# If this CIF has been generated from an entry in the Cambridge 
# Structural Database, then it will include bibliographic, chemical, 
# crystal, experimental, refinement or atomic coordinate data resulting 
# from the CCDC's data processing and validation procedures.
#
#######################################################################

data_BULGIZ
_symmetry_cell_setting           monoclinic
_symmetry_space_group_name_H-M   'P 21/c'
_symmetry_Int_Tables_number      14
_space_group_name_Hall           '-P 2ybc'
loop_
_symmetry_equiv_pos_site_id
_symmetry_equiv_pos_as_xyz
1 x,y,z
2 -x,1/2+y,1/2-z
3 -x,-y,-z
4 x,1/2-y,1/2+z
_cell_length_a                   9.3232(18)
_cell_length_b                   12.212(2)
_cell_length_c                   11.736(2)
_cell_angle_alpha                90
_cell_angle_beta                 93.588(4)
_cell_angle_gamma                90
_cell_volume                     1333.58
loop_
_atom_site_label
_atom_site_type_symbol
_atom_site_fract_x
_atom_site_fract_y
_atom_site_fract_z
Co1 Co 0.14073(5) 0.28086(3) 0.19490(3)
Co2 Co 0.0000 0.5000 0.0000
O1 O 0.1466(2) 0.41696(16) 0.29017(17)
O2 O 0.1449(2) 0.19261(16) 0.34468(17)
O3 O 0.1213(2) 0.15289(16) 0.52682(16)
O4 O -0.0871(2) 0.27267(17) 0.19356(18)
O5 O -0.1430(2) 0.43102(17) 0.10354(18)
O6 O 0.1160(2) 0.57050(16) 0.13986(17)
N1 N 0.1599(3) 0.3578(2) 0.5940(2)
N2 N -0.6269(3) 0.2999(2) 0.1917(2)
C1 C 0.1559(3) 0.3395(2) 0.4797(2)
C2 C 0.1603(3) 0.4270(2) 0.4005(3)
C3 C 0.1784(4) 0.5332(2) 0.4489(3)
H1 H 0.1853 0.5947 0.4000
C4 C 0.1859(4) 0.5482(3) 0.5640(3)
H2 H 0.1993 0.6196 0.5952
C5 C 0.1739(4) 0.4583(2) 0.6356(3)
H3 H 0.1758 0.4692 0.7158
C6 C 0.1407(3) 0.2220(2) 0.4469(2)
C7 C -0.1731(3) 0.3437(2) 0.1538(2)
C8 C -0.3311(4) 0.3278(2) 0.1703(3)
C9 C -0.4305(4) 0.4048(3) 0.1281(3)
H4 H -0.3988 0.4687 0.0909
C10 C -0.5751(4) 0.3885(3) 0.1402(3)
H5 H -0.6411 0.4423 0.1108
C11 C -0.5304(4) 0.2275(3) 0.2351(3)
H6 H -0.5648 0.1654 0.2739
C12 C -0.3834(4) 0.2377(3) 0.2269(3)
H7 H -0.3195 0.1840 0.2593
H8 H 0.1256 0.5269 0.1964
H9 H 0.0655 0.6252 0.1575
Co1B Co -0.14073(5) 0.71914(3) -0.19490(3)
Co1_2 Co -0.85927(5) 0.28086(3) 0.19490(3)
Co1A Co -0.14073(5) 0.78086(3) -0.69490(3)
Co1B_2 Co 0.85927(5) 0.71914(3) -0.19490(3)
Co1C Co 0.14073(5) 0.21914(3) 0.69490(3)
Co2A Co 0.0000 0.0000 0.5000
Co2A_2 Co 0.0000 1.0000 -0.5000
O1B O -0.1466(2) 0.58304(16) -0.29017(17)
O2B O -0.1449(2) 0.80739(16) -0.34468(17)
O3B O -0.1213(2) 0.84711(16) -0.52682(16)
O3A O -0.1213(2) 0.65289(16) -0.02682(16)
O3C O 0.1213(2) 0.34711(16) 0.02682(16)
O4B O 0.0871(2) 0.72733(17) -0.19356(18)
O5B O 0.1430(2) 0.56898(17) -0.10354(18)
O6B O -0.1160(2) 0.42950(16) -0.13986(17)
N1B N -0.1599(3) 0.6422(2) -0.5940(2)
N1A N -0.1599(3) 0.8578(2) -0.0940(2)
N1C N 0.1599(3) 0.1422(2) 0.0940(2)
N2B N 0.6269(3) 0.7001(2) -0.1917(2)
N2_2 N 0.3731(3) 0.2999(2) 0.1917(2)
N2B_2 N -0.3731(3) 0.7001(2) -0.1917(2)
C1B C -0.1559(3) 0.6605(2) -0.4797(2)
C2B C -0.1603(3) 0.5730(2) -0.4005(3)
C3B C -0.1784(4) 0.4668(2) -0.4489(3)
H1B H -0.1853 0.4053 -0.4000
C4B C -0.1859(4) 0.4518(3) -0.5640(3)
H2B H -0.1993 0.3804 -0.5952
C5B C -0.1739(4) 0.5417(2) -0.6356(3)
H3B H -0.1758 0.5308 -0.7158
C6B C -0.1407(3) 0.7780(2) -0.4469(2)
C7B C 0.1731(3) 0.6563(2) -0.1538(2)
C8B C 0.3311(4) 0.6722(2) -0.1703(3)
C9B C 0.4305(4) 0.5952(3) -0.1281(3)
H4B H 0.3988 0.5313 -0.0909
C10B C 0.5751(4) 0.6115(3) -0.1402(3)
H5B H 0.6411 0.5577 -0.1108
C11B C 0.5304(4) 0.7725(3) -0.2351(3)
H6B H 0.5648 0.8346 -0.2739
C12B C 0.3834(4) 0.7623(3) -0.2269(3)
H7B H 0.3195 0.8160 -0.2593
H8B H -0.1256 0.4731 -0.1964
H9B H -0.0655 0.3748 -0.1575
loop_
_geom_bond_atom_site_label_1
_geom_bond_atom_site_label_2
_geom_bond_site_symmetry_1
_geom_bond_site_symmetry_2
Co1 O1 1_555 1_555
Co2 O5 1_555 1_555
O1 C2 1_555 1_555
O2 Co1 1_555 1_555
O3 C6 1_555 1_555
O4 Co1 1_555 1_555
O5 C7 1_555 1_555
O6 Co2 1_555 1_555
N1 C1 1_555 1_555
N2 C10 1_555 1_555
C1 C2 1_555 1_555
C2 C3 1_555 1_555
C3 H1 1_555 1_555
C4 C3 1_555 1_555
H2 C4 1_555 1_555
C5 N1 1_555 1_555
H3 C5 1_555 1_555
C6 O2 1_555 1_555
C7 O4 1_555 1_555
C8 C7 1_555 1_555
C9 C8 1_555 1_555
H4 C9 1_555 1_555
C10 C9 1_555 1_555
H5 C10 1_555 1_555
C11 N2 1_555 1_555
H6 C11 1_555 1_555
C12 C8 1_555 1_555
H7 C12 1_555 1_555
H8 O6 1_555 1_555
H9 O6 1_555 1_555
Co1B O1B 1_555 1_555
Co1_2 N2 1_555 1_555
Co1A O3B 1_555 1_555
Co1B_2 N2B 1_555 1_555
Co1C O3 1_555 1_555
Co2A O3 1_555 1_555
Co2A_2 O3B 1_555 1_555
O1B C2B 1_555 1_555
O2B Co1B 1_555 1_555
O3B C6B 1_555 1_555
O3A Co2 1_555 1_555
O3C Co1 1_555 1_555
O4B Co1B 1_555 1_555
O5B Co2 1_555 1_555
O6B Co2 1_555 1_555
N1B Co1A 1_555 1_555
N1A Co1B 1_555 1_555
N1C Co1 1_555 1_555
N2B C10B 1_555 1_555
N2_2 Co1 1_555 1_555
N2B_2 Co1B 1_555 1_555
C1B N1B 1_555 1_555
C2B C1B 1_555 1_555
C3B C2B 1_555 1_555
H1B C3B 1_555 1_555
C4B C3B 1_555 1_555
H2B C4B 1_555 1_555
C5B N1B 1_555 1_555
H3B C5B 1_555 1_555
C6B O2B 1_555 1_555
C7B O4B 1_555 1_555
C8B C7B 1_555 1_555
C9B C8B 1_555 1_555
H4B C9B 1_555 1_555
C10B C9B 1_555 1_555
H5B C10B 1_555 1_555
C11B N2B 1_555 1_555
H6B C11B 1_555 1_555
C12B C8B 1_555 1_555
H7B C12B 1_555 1_555
H8B O6B 1_555 1_555
H9B O6B 1_555 1_555
Co2 O3C 1_555 1_555
N1 Co1C 1_555 1_555
C1 C6 1_555 1_555
C4 C5 1_555 1_555
C11 C12 1_555 1_555
Co1B O3A 1_555 1_555
O5B C7B 1_555 1_555
C1B C6B 1_555 1_555
C4B C5B 1_555 1_555
C11B C12B 1_555 1_555

#END
