
#######################################################################
#
#                 Cambridge Crystallographic Data Centre
#                                CCDC 
#
#######################################################################
#
# If this CIF has been generated from an entry in the Cambridge 
# Structural Database, then it will include bibliographic, chemical, 
# crystal, experimental, refinement or atomic coordinate data resulting 
# from the CCDC's data processing and validation procedures.
#
#######################################################################

data_BULGIA
_symmetry_cell_setting           triclinic
_symmetry_space_group_name_H-M   'P -1'
_symmetry_Int_Tables_number      2
_space_group_name_Hall           '-P 1'
loop_
_symmetry_equiv_pos_site_id
_symmetry_equiv_pos_as_xyz
1 x,y,z
2 -x,-y,-z
_cell_length_a                   14.010(3)
_cell_length_b                   14.252(3)
_cell_length_c                   17.350(3)
_cell_angle_alpha                99.63(3)
_cell_angle_beta                 94.38(3)
_cell_angle_gamma                94.97(3)
_cell_volume                     3388.03
loop_
_atom_site_label
_atom_site_type_symbol
_atom_site_fract_x
_atom_site_fract_y
_atom_site_fract_z
Ge1 Ge 0.24495(9) 0.73485(10) -0.25160(7)
W1 W 0.05869(4) 0.88631(4) -0.23911(4)
W2 W -0.00218(4) 0.64854(4) -0.27956(4)
W3 W 0.42015(5) 0.57085(5) -0.26015(4)
W4 W 0.28173(4) 0.59083(5) -0.10682(4)
W5 W 0.34771(4) 0.85256(5) -0.06351(4)
W6 W 0.18609(5) 0.48348(4) -0.28897(4)
W7 W 0.09164(4) 0.75415(5) -0.09731(4)
W8 W 0.31501(4) 0.98352(4) -0.20614(4)
W9 W 0.21145(4) 0.86632(5) -0.40498(4)
W10 W 0.48759(4) 0.83300(5) -0.21606(4)
W11 W 0.38517(5) 0.71698(5) -0.41507(4)
W12 W 0.15108(5) 0.62762(5) -0.44497(3)
Cu1 Cu 0.30810(15) 0.47387(15) 0.09120(12)
Cu2 Cu 0.24684(14) 0.22148(14) 0.24668(11)
Cu3 Cu 0.20445(16) 0.97306(15) -0.59322(12)
O1 O 0.1846(8) 0.5352(8) -0.3827(7)
O2 O 0.1646(8) 0.6478(8) -0.0969(7)
O3 O 0.3281(8) 0.8254(8) -0.4472(7)
O4 O 0.5189(9) 0.5112(9) -0.2688(8)
O5 O 0.2931(9) 0.5352(9) -0.0272(7)
O6 O 0.0749(9) 0.5478(8) -0.2673(7)
O7 O 0.4044(9) 0.6171(9) -0.3568(7)
O8 O -0.0129(8) 0.9779(8) -0.2424(7)
O9 O 0.2855(8) 0.9403(9) -0.3176(6)
O10 O 0.1930(9) 0.9504(8) -0.4637(6)
O11 O 0.3825(10) 0.8925(10) 0.0321(7)
O12 O 0.4458(8) 0.9567(9) -0.2175(7)
O13 O 0.3450(8) 0.7151(8) -0.0725(7)
O14 O 0.0407(9) 0.8623(8) -0.1344(6)
O15 O 0.3345(9) 0.9713(10) -0.0967(6)
O16 O 0.4727(7) 0.6972(9) -0.2172(7)
O17 O 0.0402(8) 0.7619(9) -0.0115(7)
O18 O 0.2747(7) 0.6274(8) -0.2308(6)
O19 O 0.2800(9) 0.6361(9) -0.4770(7)
O20 O 0.1300(7) 0.7509(7) -0.2249(6)
O21 O 0.3247(9) 1.1034(9) -0.2000(8)
O22 O 0.1072(8) 0.8735(8) -0.3399(6)
O23 O -0.1129(8) 0.5896(10) -0.3055(8)
O24 O 0.4717(9) 0.7075(10) -0.4782(7)
O25 O 0.0508(8) 0.6499(8) -0.3767(6)
O26 O 0.3247(7) 0.8238(8) -0.1996(6)
O27 O 0.2471(7) 0.7354(7) -0.3509(6)
O28 O 0.4702(9) 0.8537(9) -0.1048(7)
O29 O 0.3218(9) 0.4668(9) -0.2985(7)
O30 O 0.4477(8) 0.8002(8) -0.3264(7)
O31 O 0.6081(8) 0.8559(9) -0.2149(8)
O32 O 0.1406(10) 0.3664(9) -0.3190(8)
O33 O 0.1805(8) 0.9537(8) -0.2018(6)
O34 O 0.3964(8) 0.5536(10) -0.1532(7)
O35 O -0.0355(9) 0.7782(8) -0.2787(6)
O36 O -0.0078(9) 0.6733(8) -0.1655(7)
O37 O 0.1418(9) 0.7541(9) -0.4705(7)
O38 O 0.2119(8) 0.8301(8) -0.0683(7)
N1 N 0.1925(11) 0.5409(11) 0.1143(8)
O39 O 0.2117(8) 0.4823(9) -0.1785(7)
N2 N 0.1805(10) 0.8328(10) -0.6306(8)
O40 O 0.0920(10) 0.5612(10) -0.5269(7)
C1 C 0.3120(12) 0.6729(11) 0.1433(9)
N3 N 0.3759(10) 0.6031(10) 0.1289(8)
N4 N 0.3408(12) 0.9495(10) -0.6041(9)
C2 C 0.2147(14) 0.6369(14) 0.1340(10)
C3 C 0.4401(14) 0.8169(13) -0.6330(10)
C4 C 0.3525(12) 0.8533(12) -0.6245(8)
C5 C 0.2633(11) 0.7915(11) -0.6387(9)
C6 C 0.1432(14) 0.6988(15) 0.1436(10)
C7 C 0.3599(17) 0.6595(13) -0.6671(11)
H1 H 0.3623 0.5940 -0.6820
C8 C 0.3413(14) 0.7700(14) 0.1626(10)
C9 C 0.2692(18) 0.8349(14) 0.1735(12)
H2 H 0.2876 0.9003 0.1865
C10 C 0.1743(18) 0.8023(14) 0.1652(10)
H3 H 0.1284 0.8455 0.1732
C11 C 0.2675(14) 0.6942(14) -0.6586(9)
C12 C 0.4209(16) 1.0092(14) -0.5939(13)
H4 H 0.4159 1.0743 -0.5788
C13 C 0.1008(15) 0.5037(16) 0.1066(13)
H5 H 0.0865 0.4376 0.0956
C14 C 0.4408(14) 0.7148(15) -0.6550(12)
H6 H 0.4989 0.6884 -0.6606
C15 C 0.4399(17) 0.7970(15) 0.1694(11)
H7 H 0.4627 0.8615 0.1825
C16 C 0.0994(16) 0.7774(18) -0.6439(11)
H8 H 0.0414 0.8043 -0.6398
C17 C 0.0988(17) 0.6763(18) -0.6647(13)
H9 H 0.0404 0.6381 -0.6725
C18 C 0.5087(16) 0.980(2) -0.6044(13)
H10 H 0.5616 1.0255 -0.6012
C19 C 0.1809(15) 0.6349(14) -0.6732(11)
H11 H 0.1801 0.5691 -0.6884
C20 C 0.0282(15) 0.5607(17) 0.1145(13)
H12 H -0.0352 0.5332 0.1064
C21 C 0.0472(16) 0.6604(17) 0.1348(12)
H13 H -0.0024 0.6995 0.1421
C22 C 0.4691(14) 0.6340(13) 0.1380(11)
H14 H 0.5133 0.5889 0.1312
C23 C 0.5035(13) 0.7297(14) 0.1570(12)
H15 H 0.5693 0.7481 0.1613
C24 C 0.5210(15) 0.8813(18) -0.6201(13)
H16 H 0.5821 0.8606 -0.6217
O41 O 0.2637(8) 0.3226(8) 0.1826(7)
N5 N 0.1931(10) 0.1441(10) 0.1467(7)
O42 O 0.2337(10) 0.3500(8) 0.0603(7)
N6 N 0.2919(10) 0.3050(10) 0.3464(8)
C25 C 0.1907(11) 0.1957(12) 0.0869(9)
C26 C 0.1596(14) 0.1521(15) 0.0103(10)
H17 H 0.1589 0.1872 -0.0303
C27 C 0.2314(11) 0.2975(13) 0.1107(10)
C28 C 0.1641(12) 0.0512(12) 0.1310(10)
H18 H 0.1653 0.0167 0.1720
C29 C 0.3257(12) 0.3969(13) 0.3586(10)
H19 H 0.3323 0.4270 0.3155
C30 C 0.2824(13) 0.2611(12) 0.4098(9)
C31 C 0.1326(15) 0.0043(15) 0.0574(12)
H20 H 0.1132 -0.0610 0.0478
C32 C 0.3372(17) 0.4054(16) 0.4952(12)
H21 H 0.3509 0.4407 0.5456
C33 C 0.3033(18) 0.3100(15) 0.4861(11)
H22 H 0.2948 0.2799 0.5290
C34 C 0.1303(17) 0.0576(16) -0.0037(11)
H23 H 0.1083 0.0274 -0.0545
C35 C 0.3513(15) 0.4493(14) 0.4327(13)
H24 H 0.3774 0.5127 0.4397
O43 O 0.2256(9) 0.1245(8) 0.3142(6)
O44 O 0.4231(9) 0.4102(10) 0.0638(9)
H25 H 0.4246 0.3529 0.0404
H26 H 0.4806 0.4260 0.0843
O45 O 0.2398(10) 0.1075(9) 0.4401(7)
O46 O 0.0671(10) 0.9941(12) -0.5977(9)
C36 C 0.2468(13) 0.1601(12) 0.3865(9)
Cu2A Cu 0.75316(14) 0.77852(14) -0.24668(11)
Cu3_2 Cu 0.20445(16) -0.02694(15) 0.40678(12)
O31A O 0.3919(8) 0.1441(9) 0.2149(8)
O45_2 O 0.2398(10) 1.1075(9) -0.5599(7)
O47 O 0.3933(12) 0.2220(13) 0.0047(12)
O48 O 0.755(2) 0.6976(19) 0.1225(17)
H27 H 0.7568 0.6587 0.0803
H28 H 0.7512 0.6657 0.1597
O49 O 0.048(2) 0.158(3) 0.492(3)
H29 H -0.0007 0.1826 0.4766
H30 H 0.0669 0.1221 0.4536
O50 O -0.098(2) 0.829(2) 0.225(2)
loop_
_geom_bond_atom_site_label_1
_geom_bond_atom_site_label_2
_geom_bond_site_symmetry_1
_geom_bond_site_symmetry_2
Ge1 O18 1_555 1_555
W1 O8 1_555 1_555
W2 O6 1_555 1_555
W3 O4 1_555 1_555
W4 O2 1_555 1_555
W5 O11 1_555 1_555
W6 O1 1_555 1_555
W7 O2 1_555 1_555
W8 O9 1_555 1_555
W9 O3 1_555 1_555
W10 O12 1_555 1_555
W11 O3 1_555 1_555
W12 O1 1_555 1_555
Cu1 O5 1_555 1_555
Cu2 O41 1_555 1_555
Cu3 O10 1_555 1_555
O5 W4 1_555 1_555
O6 W6 1_555 1_555
O7 W3 1_555 1_555
O9 W9 1_555 1_555
O10 W9 1_555 1_555
O12 W8 1_555 1_555
O13 W4 1_555 1_555
O14 W1 1_555 1_555
O15 W5 1_555 1_555
O16 W3 1_555 1_555
O17 W7 1_555 1_555
O18 W3 1_555 1_555
O19 W11 1_555 1_555
O20 Ge1 1_555 1_555
O21 W8 1_555 1_555
O22 W1 1_555 1_555
O23 W2 1_555 1_555
O24 W11 1_555 1_555
O25 W2 1_555 1_555
O26 Ge1 1_555 1_555
O27 Ge1 1_555 1_555
O28 W5 1_555 1_555
O29 W3 1_555 1_555
O30 W10 1_555 1_555
O31 W10 1_555 1_555
O32 W6 1_555 1_555
O33 W1 1_555 1_555
O34 W3 1_555 1_555
O35 W1 1_555 1_555
O36 W2 1_555 1_555
O37 W9 1_555 1_555
O38 W5 1_555 1_555
N1 Cu1 1_555 1_555
O39 W4 1_555 1_555
N2 Cu3 1_555 1_555
O40 W12 1_555 1_555
C1 N3 1_555 1_555
N3 Cu1 1_555 1_555
N4 Cu3 1_555 1_555
C2 N1 1_555 1_555
C3 C4 1_555 1_555
C4 N4 1_555 1_555
C5 N2 1_555 1_555
C6 C2 1_555 1_555
C7 H1 1_555 1_555
C8 C1 1_555 1_555
C9 C8 1_555 1_555
H2 C9 1_555 1_555
C10 C6 1_555 1_555
H3 C10 1_555 1_555
C11 C5 1_555 1_555
C12 N4 1_555 1_555
H4 C12 1_555 1_555
C13 N1 1_555 1_555
H5 C13 1_555 1_555
C14 C3 1_555 1_555
H6 C14 1_555 1_555
C15 C8 1_555 1_555
H7 C15 1_555 1_555
C16 N2 1_555 1_555
H8 C16 1_555 1_555
C17 C16 1_555 1_555
H9 C17 1_555 1_555
C18 C12 1_555 1_555
H10 C18 1_555 1_555
C19 C11 1_555 1_555
H11 C19 1_555 1_555
C20 C13 1_555 1_555
H12 C20 1_555 1_555
C21 C6 1_555 1_555
H13 C21 1_555 1_555
C22 N3 1_555 1_555
H14 C22 1_555 1_555
C23 C15 1_555 1_555
H15 C23 1_555 1_555
C24 C3 1_555 1_555
H16 C24 1_555 1_555
O41 C27 1_555 1_555
N5 Cu2 1_555 1_555
O42 Cu1 1_555 1_555
N6 Cu2 1_555 1_555
C25 N5 1_555 1_555
C26 C25 1_555 1_555
H17 C26 1_555 1_555
C27 O42 1_555 1_555
C28 N5 1_555 1_555
H18 C28 1_555 1_555
C29 N6 1_555 1_555
H19 C29 1_555 1_555
C30 N6 1_555 1_555
C31 C28 1_555 1_555
H20 C31 1_555 1_555
C32 H21 1_555 1_555
C33 C30 1_555 1_555
H22 C33 1_555 1_555
C34 C26 1_555 1_555
H23 C34 1_555 1_555
C35 C29 1_555 1_555
H24 C35 1_555 1_555
O43 Cu2 1_555 1_555
O44 Cu1 1_555 1_555
H25 O44 1_555 1_555
H26 O44 1_555 1_555
O45 C36 1_555 1_555
O46 Cu3 1_555 1_555
C36 C30 1_555 1_555
O48 H27 1_555 1_555
H28 O48 1_555 1_555
O49 H29 1_555 1_555
H30 O49 1_555 1_555
Cu2A O31 1_555 1_555
Cu3_2 O45 1_555 1_555
O31A Cu2 1_555 1_555
O45_2 Cu3 1_555 1_555
W1 O20 1_555 1_555
W2 O20 1_555 1_555
W2 O35 1_555 1_555
W4 O18 1_555 1_555
W4 O34 1_555 1_555
W5 O13 1_555 1_555
W5 O26 1_555 1_555
W6 O18 1_555 1_555
W6 O29 1_555 1_555
W6 O39 1_555 1_555
W7 O14 1_555 1_555
W7 O20 1_555 1_555
W7 O36 1_555 1_555
W7 O38 1_555 1_555
W8 O15 1_555 1_555
W8 O26 1_555 1_555
W8 O33 1_555 1_555
W9 O22 1_555 1_555
W9 O27 1_555 1_555
W10 O16 1_555 1_555
W10 O26 1_555 1_555
W10 O28 1_555 1_555
W11 O7 1_555 1_555
W11 O27 1_555 1_555
W11 O30 1_555 1_555
W12 O19 1_555 1_555
W12 O25 1_555 1_555
W12 O27 1_555 1_555
W12 O37 1_555 1_555
C1 C2 1_555 1_555
C4 C5 1_555 1_555
C7 C11 1_555 1_555
C7 C14 1_555 1_555
C9 C10 1_555 1_555
C17 C19 1_555 1_555
C18 C24 1_555 1_555
C20 C21 1_555 1_555
C22 C23 1_555 1_555
C25 C27 1_555 1_555
C31 C34 1_555 1_555
C32 C33 1_555 1_555
C32 C35 1_555 1_555
O43 C36 1_555 1_555

#END
