
#######################################################################
#
#                 Cambridge Crystallographic Data Centre
#                                CCDC 
#
#######################################################################
#
# If this CIF has been generated from an entry in the Cambridge 
# Structural Database, then it will include bibliographic, chemical, 
# crystal, experimental, refinement or atomic coordinate data resulting 
# from the CCDC's data processing and validation procedures.
#
#######################################################################

data_BULGUM
_symmetry_cell_setting           triclinic
_symmetry_space_group_name_H-M   'P -1'
_symmetry_Int_Tables_number      2
_space_group_name_Hall           '-P 1'
loop_
_symmetry_equiv_pos_site_id
_symmetry_equiv_pos_as_xyz
1 x,y,z
2 -x,-y,-z
_cell_length_a                   11.110(2)
_cell_length_b                   12.786(3)
_cell_length_c                   13.191(3)
_cell_angle_alpha                110.394(3)
_cell_angle_beta                 97.412(3)
_cell_angle_gamma                111.891(2)
_cell_volume                     1555.82
loop_
_atom_site_label
_atom_site_type_symbol
_atom_site_fract_x
_atom_site_fract_y
_atom_site_fract_z
N2 N 1.183(2) 0.696(2) 0.2885(18)
H5 H 1.1999 0.6899 0.3510
H6 H 1.2456 0.7480 0.2740
C7 C 1.0583(10) 0.6249(12) 0.2134(9)
C8 C 0.9504(14) 0.5386(13) 0.2290(11)
H7 H 0.9635 0.5239 0.2928
C9 C 0.8231(11) 0.4742(12) 0.1491(14)
H8 H 0.7509 0.4165 0.1595
C10 C 0.8036(11) 0.4962(12) 0.0537(11)
H9 H 0.7184 0.4531 0.0002
C11 C 0.9115(15) 0.5825(13) 0.0381(8)
H10 H 0.8985 0.5972 -0.0258
N3 N 1.0388(12) 0.6469(10) 0.1180(10)
H11 H 1.1056 0.7003 0.1083
N4 N 0.318(2) 0.271(2) 0.9380(18)
H12 H 0.3691 0.3108 0.9068
H13 H 0.3512 0.2825 1.0058
C12 C 0.1120(14) 0.1435(13) 0.9432(9)
H14 H 0.1527 0.1593 1.0165
C13 C -0.0274(13) 0.0703(13) 0.8943(14)
H15 H -0.0801 0.0372 0.9350
C14 C -0.0881(11) 0.0467(13) 0.7846(14)
H16 H -0.1814 -0.0022 0.7519
C15 C -0.0094(16) 0.0963(13) 0.7238(9)
H17 H -0.0501 0.0805 0.6504
N5 N 0.1300(15) 0.1694(12) 0.7726(9)
C16 C 0.1908(11) 0.1930(11) 0.8823(10)
W1 W 1.80211(6) 0.70692(5) 0.47908(5)
W2 W 1.24274(7) 0.59341(7) 0.55260(6)
W3 W 1.54643(7) 0.80120(6) 0.53354(6)
W4 W 1.18956(6) 0.36198(5) 0.28348(5)
W5 W 1.49227(7) 0.57086(5) 0.26362(5)
W6 W 1.55087(7) 0.72905(6) 0.76817(5)
Ge1 Ge 1.5000 0.5000 0.5000
O1 O 1.420(2) 0.4461(18) 0.3624(17)
O2 O 1.331(2) 0.445(2) 0.4674(18)
O3 O 1.426(2) 0.3914(19) 0.5521(16)
O4 O 1.464(2) 0.630(2) 0.5773(18)
O5 O 1.8609(16) 0.7299(12) 0.6315(11)
O6 O 1.4898(13) 0.6040(14) 0.1526(11)
O7 O 1.0464(13) 0.2975(11) 0.1789(11)
O8 O 1.6837(15) 0.6458(13) 0.3313(12)
O9 O 1.2686(13) 0.2588(11) 0.2144(12)
O10 O 1.7211(15) 0.8109(14) 0.5336(12)
O11 O 1.5778(13) 0.8339(11) 0.8959(10)
O12 O 1.4878(14) 0.7110(13) 0.3729(12)
O13 O 1.9466(13) 0.8047(12) 0.4701(9)
O14 O 1.8185(16) 0.5560(12) 0.4286(10)
O15 O 1.1721(14) 0.4953(11) 0.3914(11)
O16 O 1.4998(14) 0.4168(11) 0.2057(13)
O17 O 1.5765(12) 0.9437(10) 0.5499(10)
O18 O 1.3569(15) 0.7277(14) 0.5262(12)
O19 O 1.3037(15) 0.4836(12) 0.2405(12)
O20 O 1.5922(15) 0.8312(15) 0.6888(12)
O21 O 1.3661(15) 0.6721(14) 0.7008(12)
O22 O 1.1209(14) 0.6357(11) 0.5763(10)
Cu1 Cu 1.5000 1.0000 1.0000
O23 O 1.7031(13) 1.1887(12) 0.8467(11)
O24 O 1.6521(11) 1.1159(10) 0.9724(9)
N1 N 1.3963(8) 0.9823(8) 0.8604(6)
C1 C 1.2576(8) 0.9107(8) 0.8059(8)
H1 H 1.2030 0.8624 0.8362
C2 C 1.2005(8) 0.9114(9) 0.7061(8)
H2 H 1.1077 0.8636 0.6697
C3 C 1.2820(11) 0.9837(10) 0.6608(7)
H3 H 1.2438 0.9842 0.5941
C4 C 1.4207(11) 1.0553(9) 0.7153(8)
H4 H 1.4752 1.1036 0.6850
C5 C 1.4778(7) 1.0546(8) 0.8151(7)
C6 C 1.6203(17) 1.1260(15) 0.8830(13)
W1A W 1.19789(6) 0.29308(5) 0.52092(5)
W2A W 1.75726(7) 0.40659(7) 0.44740(6)
W3A W 1.45357(7) 0.19880(6) 0.46646(6)
W4A W 1.81044(6) 0.63802(5) 0.71652(5)
W5A W 1.50773(7) 0.42914(5) 0.73638(5)
W6A W 1.44913(7) 0.27095(6) 0.23183(5)
O1A O 1.580(2) 0.5539(18) 0.6376(17)
O2A O 1.669(2) 0.555(2) 0.5326(18)
O3A O 1.574(2) 0.6086(19) 0.4479(16)
O4A O 1.536(2) 0.370(2) 0.4227(18)
O5A O 1.1391(16) 0.2701(12) 0.3685(11)
O6A O 1.5102(13) 0.3960(14) 0.8474(11)
O7A O 1.9536(13) 0.7025(11) 0.8211(11)
O8A O 1.3163(15) 0.3542(13) 0.6687(12)
O9A O 1.7314(13) 0.7412(11) 0.7856(12)
O10A O 1.2789(15) 0.1891(14) 0.4664(12)
O11A O 1.4222(13) 0.1661(11) 0.1041(10)
O12A O 1.5122(14) 0.2890(13) 0.6271(12)
O13A O 1.0534(13) 0.1953(12) 0.5299(9)
O14A O 1.1815(16) 0.4440(12) 0.5714(10)
O15A O 1.8279(14) 0.5047(11) 0.6086(11)
O16A O 1.5002(14) 0.5832(11) 0.7943(13)
O17A O 1.4235(12) 0.0563(10) 0.4501(10)
O18A O 1.6431(15) 0.2723(14) 0.4738(12)
O19A O 1.6963(15) 0.5164(12) 0.7595(12)
O20A O 1.4078(15) 0.1688(15) 0.3112(12)
O21A O 1.6339(15) 0.3279(14) 0.2992(12)
O22A O 1.8791(14) 0.3643(11) 0.4237(10)
O23A O 1.2969(13) 0.8113(12) 1.1533(11)
O24A O 1.3479(11) 0.8841(10) 1.0276(9)
N1A N 1.6037(8) 1.0177(8) 1.1396(6)
C1A C 1.7424(8) 1.0893(8) 1.1941(8)
H1A H 1.7970 1.1376 1.1638
C2A C 1.7995(8) 1.0886(9) 1.2939(8)
H2A H 1.8923 1.1364 1.3303
C3A C 1.7180(11) 1.0163(10) 1.3392(7)
H3A H 1.7562 1.0158 1.4059
C4A C 1.5793(11) 0.9447(9) 1.2847(8)
H4A H 1.5248 0.8964 1.3150
C5A C 1.5222(7) 0.9454(8) 1.1849(7)
C6A C 1.3797(17) 0.8740(15) 1.1170(13)
O11A_2 O 1.4222(13) 1.1661(11) 1.1041(10)
Cu1_2 Cu 1.5000 0.0000 0.0000
loop_
_geom_bond_atom_site_label_1
_geom_bond_atom_site_label_2
_geom_bond_site_symmetry_1
_geom_bond_site_symmetry_2
W1 O5 1_555 1_555
W2 O2 1_555 1_555
W3 O4 1_555 1_555
W4 O1 1_555 1_555
W5 O1 1_555 1_555
W6 O4 1_555 1_555
Ge1 O1 1_555 1_555
O1 W6A 1_555 1_555
O2 W4 1_555 1_555
O3 Ge1 1_555 1_555
O4 W2 1_555 1_555
O5 W4A 1_555 1_555
O6 W5 1_555 1_555
O7 W4 1_555 1_555
O8 W1 1_555 1_555
O9 W4 1_555 1_555
O10 W1 1_555 1_555
O11 W6 1_555 1_555
O12 W3 1_555 1_555
O13 W1 1_555 1_555
O14 W1 1_555 1_555
O15 W2 1_555 1_555
O16 W5 1_555 1_555
O17 W3 1_555 1_555
O18 W2 1_555 1_555
O19 W4 1_555 1_555
O20 W3 1_555 1_555
O21 W2 1_555 1_555
O22 W2 1_555 1_555
Cu1 O11 1_555 1_555
O23 C6 1_555 1_555
O24 Cu1 1_555 1_555
N1 Cu1 1_555 1_555
C1 N1 1_555 1_555
H1 C1 1_555 1_555
C2 C1 1_555 1_555
H2 C2 1_555 1_555
C3 C2 1_555 1_555
H3 C3 1_555 1_555
C4 C3 1_555 1_555
H4 C4 1_555 1_555
C5 N1 1_555 1_555
C6 O24 1_555 1_555
N2 H5 1_555 1_555
H6 N2 1_555 1_555
C7 N2 1_555 1_555
C8 C7 1_555 1_555
H7 C8 1_555 1_555
C9 C8 1_555 1_555
H8 C9 1_555 1_555
C10 C9 1_555 1_555
H9 C10 1_555 1_555
C11 C10 1_555 1_555
H10 C11 1_555 1_555
N3 C7 1_555 1_555
H11 N3 1_555 1_555
N4 H12 1_555 1_555
H13 N4 1_555 1_555
C12 H14 1_555 1_555
C13 C12 1_555 1_555
H15 C13 1_555 1_555
C14 C13 1_555 1_555
H16 C14 1_555 1_555
C15 C14 1_555 1_555
H17 C15 1_555 1_555
N5 C15 1_555 1_555
C16 N4 1_555 1_555
W1A O2 1_555 1_555
W2A O14 1_555 1_555
W3A O3 1_555 1_555
W4A O1A 1_555 1_555
W5A O3 1_555 1_555
W6A O9 1_555 1_555
O1A W6 1_555 1_555
O2A W1 1_555 1_555
O3A W1 1_555 1_555
O4A Ge1 1_555 1_555
O5A W4 1_555 1_555
O6A W5A 1_555 1_555
O7A W4A 1_555 1_555
O8A W1A 1_555 1_555
O9A W6 1_555 1_555
O10A W1A 1_555 1_555
O11A W6A 1_555 1_555
O12A W3A 1_555 1_555
O13A W1A 1_555 1_555
O14A W2 1_555 1_555
O15A W2A 1_555 1_555
O16A W6 1_555 1_555
O17A W3A 1_555 1_555
O18A W2A 1_555 1_555
O19A W4A 1_555 1_555
O20A W3A 1_555 1_555
O21A W2A 1_555 1_555
O22A W2A 1_555 1_555
O23A C6A 1_555 1_555
O24A Cu1 1_555 1_555
N1A Cu1 1_555 1_555
C1A N1A 1_555 1_555
H1A C1A 1_555 1_555
C2A C1A 1_555 1_555
H2A C2A 1_555 1_555
C3A C2A 1_555 1_555
H3A C3A 1_555 1_555
C4A C3A 1_555 1_555
H4A C4A 1_555 1_555
C5A N1A 1_555 1_555
C6A O24A 1_555 1_555
O11A_2 Cu1 1_555 1_555
Cu1_2 O11A 1_555 1_555
W3 O10 1_555 1_555
W3 O18 1_555 1_555
W3 O3A 1_555 1_555
W4 O15 1_555 1_555
W5 O8 1_555 1_555
W5 O12 1_555 1_555
W5 O19 1_555 1_555
W5 O3A 1_555 1_555
W6 O20 1_555 1_555
W6 O21 1_555 1_555
Ge1 O2 1_555 1_555
Ge1 O4 1_555 1_555
Ge1 O1A 1_555 1_555
Ge1 O2A 1_555 1_555
Ge1 O3A 1_555 1_555
O3 W1A 1_555 1_555
O16 W6A 1_555 1_555
C4 C5 1_555 1_555
C5 C6 1_555 1_555
C11 N3 1_555 1_555
C12 C16 1_555 1_555
N5 C16 1_555 1_555
W1A O5A 1_555 1_555
W1A O14A 1_555 1_555
W2A O2A 1_555 1_555
W2A O4A 1_555 1_555
W3A O4A 1_555 1_555
W3A O10A 1_555 1_555
W3A O18A 1_555 1_555
W4A O2A 1_555 1_555
W4A O9A 1_555 1_555
W4A O15A 1_555 1_555
W5A O1A 1_555 1_555
W5A O8A 1_555 1_555
W5A O12A 1_555 1_555
W5A O16A 1_555 1_555
W5A O19A 1_555 1_555
W6A O4A 1_555 1_555
W6A O20A 1_555 1_555
W6A O21A 1_555 1_555
C4A C5A 1_555 1_555
C5A C6A 1_555 1_555

#END
