
#######################################################################
#
#                 Cambridge Crystallographic Data Centre
#                                CCDC 
#
#######################################################################
#
# If this CIF has been generated from an entry in the Cambridge 
# Structural Database, then it will include bibliographic, chemical, 
# crystal, experimental, refinement or atomic coordinate data resulting 
# from the CCDC's data processing and validation procedures.
#
#######################################################################

data_BULHUM
_symmetry_cell_setting           orthorhombic
_symmetry_space_group_name_H-M   'P 21 21 2'
_symmetry_Int_Tables_number      18
_space_group_name_Hall           'P 2 2ab'
loop_
_symmetry_equiv_pos_site_id
_symmetry_equiv_pos_as_xyz
1 x,y,z
2 -x,-y,z
3 1/2-x,1/2+y,-z
4 1/2+x,1/2-y,-z
_cell_length_a                   15.516(4)
_cell_length_b                   24.754(5)
_cell_length_c                   9.170(2)
_cell_angle_alpha                90
_cell_angle_beta                 90
_cell_angle_gamma                90
_cell_volume                     3522.04
loop_
_atom_site_label
_atom_site_type_symbol
_atom_site_fract_x
_atom_site_fract_y
_atom_site_fract_z
B1 B 0.7096(4) 0.6013(3) 0.0377(7)
H1 H 0.6832 0.5881 -0.0527
C1 C 0.8889(4) 0.5409(2) 0.2274(6)
H2 H 0.9282 0.5401 0.3039
C2 C 0.8867(4) 0.5047(3) 0.1163(7)
H3 H 0.9226 0.4750 0.1035
C3 C 0.8223(4) 0.5204(2) 0.0289(6)
H4 H 0.8055 0.5030 -0.0565
C4 C 0.8010(4) 0.7326(2) 0.0977(6)
H5 H 0.8293 0.7579 0.1554
C5 C 0.7743(4) 0.7406(2) -0.0440(6)
H6 H 0.7790 0.7719 -0.0993
C6 C 0.7399(4) 0.6929(2) -0.0845(7)
H7 H 0.7164 0.6859 -0.1758
C7 C 0.6059(3) 0.6159(2) 0.3876(6)
H8 H 0.6075 0.6267 0.4848
C8 C 0.5329(4) 0.5956(2) 0.3169(7)
H9 H 0.4783 0.5896 0.3558
C9 C 0.5610(3) 0.5864(2) 0.1742(6)
H10 H 0.5280 0.5731 0.0976
C10 C 0.8034(4) 0.6044(2) 0.5077(6)
C11 C 0.7559(3) 0.7053(2) 0.4321(6)
C12 C 0.9090(3) 0.66217(17) 0.3422(5)
C13 C 1.0166(3) 0.80062(16) 0.2939(5)
C14 C 0.9988(4) 0.8310(2) 0.1668(6)
H11 H 1.0348 0.8286 0.0860
C15 C 0.9266(4) 0.8646(2) 0.1640(7)
H12 H 0.9160 0.8860 0.0825
C16 C 0.8707(4) 0.8666(2) 0.2814(6)
H13 H 0.8207 0.8872 0.2759
C17 C 0.8886(4) 0.8387(2) 0.4031(6)
H14 H 0.8528 0.8423 0.4839
C18 C 0.9599(3) 0.80451(18) 0.4109(6)
C19 C 0.9776(3) 0.77935(19) 0.5478(6)
H15 H 0.9421 0.7884 0.6258
C20 C 1.0565(3) 0.72287(19) 0.7180(5)
H16 H 1.1134 0.7358 0.7483
C21 C 0.9930(3) 0.7354(2) 0.8385(5)
H17 H 0.9360 0.7230 0.8113
H18 H 0.9905 0.7741 0.8546
C22 C 1.0229(4) 0.7064(2) 0.9801(6)
H19 H 1.0788 0.7204 1.0091
H20 H 0.9823 0.7142 1.0579
C23 C 1.0289(4) 0.6476(2) 0.9595(5)
H21 H 0.9721 0.6334 0.9378
H22 H 1.0486 0.6311 1.0494
C24 C 1.0911(3) 0.6325(2) 0.8351(6)
H23 H 1.1493 0.6434 0.8600
H24 H 1.0906 0.5937 0.8199
C25 C 1.0618(3) 0.6616(2) 0.6958(5)
H25 H 1.0038 0.6486 0.6717
C26 C 1.1577(3) 0.60888(18) 0.5464(5)
H26 H 1.1526 0.5832 0.6199
C27 C 1.2099(4) 0.59486(19) 0.4237(6)
C28 C 1.2571(4) 0.54504(19) 0.4271(7)
H27 H 1.2522 0.5225 0.5078
C29 C 1.3087(4) 0.5302(2) 0.3146(6)
H28 H 1.3385 0.4977 0.3177
C30 C 1.3160(4) 0.5622(2) 0.2018(6)
H29 H 1.3542 0.5522 0.1285
C31 C 1.2705(3) 0.6101(2) 0.1844(7)
H30 H 1.2743 0.6298 0.0984
C32 C 1.2185(3) 0.62776(18) 0.3007(6)
Fe1 Fe 0.79205(4) 0.64221(3) 0.32270(7)
Mn1 Mn 1.10916(5) 0.71199(3) 0.41837(8)
N1 N 0.8277(3) 0.57734(15) 0.2119(4)
N2 N 0.7848(3) 0.5661(2) 0.0854(6)
N3 N 0.7793(3) 0.68196(18) 0.1393(4)
N4 N 0.7440(3) 0.65713(17) 0.0235(5)
N5 N 0.6710(3) 0.61780(16) 0.2995(5)
N6 N 0.6439(3) 0.60034(18) 0.1683(5)
N7 N 0.8072(3) 0.58229(19) 0.6138(6)
N8 N 0.9820(3) 0.67301(17) 0.3510(4)
N9 N 0.7275(3) 0.74240(17) 0.4916(5)
N10 N 1.0371(3) 0.74595(16) 0.5721(4)
N11 N 1.1182(3) 0.65271(15) 0.5643(4)
O1 O 1.0875(2) 0.77070(14) 0.2968(4)
O2 O 1.1769(2) 0.67438(13) 0.2856(4)
B1C B 1.2096(4) 0.8987(3) 0.9623(7)
H1C H 1.1832 0.9119 1.0527
C1C C 1.3889(4) 0.9591(2) 0.7726(6)
H2C H 1.4282 0.9599 0.6961
C2C C 1.3867(4) 0.9953(3) 0.8837(7)
H3C H 1.4226 1.0250 0.8965
C3C C 1.3223(4) 0.9796(2) 0.9711(6)
H4C H 1.3055 0.9970 1.0565
C4C C 1.3010(4) 0.7674(2) 0.9023(6)
H5C H 1.3293 0.7421 0.8446
C5C C 1.2743(4) 0.7594(2) 1.0440(6)
H6C H 1.2790 0.7281 1.0993
C6C C 1.2399(4) 0.8071(2) 1.0845(7)
H7C H 1.2164 0.8141 1.1758
C7C C 1.1059(3) 0.8841(2) 0.6124(6)
H8C H 1.1075 0.8733 0.5152
C8C C 1.0329(4) 0.9044(2) 0.6831(7)
H9C H 0.9783 0.9104 0.6442
C9C C 1.0610(3) 0.9136(2) 0.8258(6)
H10C H 1.0280 0.9269 0.9024
C10C C 1.3034(4) 0.8956(2) 0.4923(6)
C11C C 1.2559(3) 0.7947(2) 0.5679(6)
C12C C 0.4090(3) 0.83783(17) 0.6578(5)
C12C_2 C 1.4090(3) 0.83783(17) 0.6578(5)
C13C C 0.5166(3) 0.69938(16) 0.7061(5)
C14C C 0.4988(4) 0.6690(2) 0.8332(6)
H11C H 0.5348 0.6714 0.9140
C15C C 0.4266(4) 0.6354(2) 0.8360(7)
H12C H 0.4160 0.6140 0.9175
C16C C 0.3707(4) 0.6334(2) 0.7186(6)
H13C H 0.3207 0.6128 0.7241
C17C C 0.3886(4) 0.6613(2) 0.5969(6)
H14C H 0.3528 0.6577 0.5161
C18C C 0.4599(3) 0.69549(18) 0.5891(6)
C19C C 0.4776(3) 0.72065(19) 0.4522(6)
H15C H 0.4421 0.7116 0.3742
C20C C 0.5565(3) 0.77713(19) 0.2820(5)
H16C H 0.6134 0.7642 0.2517
C21C C 0.4930(3) 0.7646(2) 0.1615(5)
H17C H 0.4360 0.7770 0.1887
H18C H 0.4905 0.7259 0.1454
C22C C 0.5229(4) 0.7936(2) 0.0199(6)
H19C H 0.5788 0.7796 -0.0091
H20C H 0.4823 0.7858 -0.0579
C23C C 0.5289(4) 0.8524(2) 0.0405(5)
H21C H 0.4721 0.8666 0.0622
H22C H 0.5486 0.8689 -0.0494
C24C C 0.5911(3) 0.8675(2) 0.1649(6)
H23C H 0.6493 0.8566 0.1400
H24C H 0.5906 0.9063 0.1801
C25C C 0.5618(3) 0.8384(2) 0.3042(5)
H25C H 0.5038 0.8514 0.3283
C26C C 0.6577(3) 0.89112(18) 0.4536(5)
H26C H 0.6526 0.9168 0.3801
C27C C 0.7099(4) 0.90514(19) 0.5763(6)
C28C C 0.7571(4) 0.95496(19) 0.5729(7)
H27C H 0.7522 0.9775 0.4922
C29C C 0.8087(4) 0.9698(2) 0.6854(6)
H28C H 0.8385 1.0023 0.6823
C30C C 0.8160(4) 0.9378(2) 0.7982(6)
H29C H 0.8542 0.9478 0.8715
C31C C 0.7705(3) 0.8899(2) 0.8156(7)
H30C H 0.7743 0.8702 0.9016
C32C C 0.7185(3) 0.87224(18) 0.6993(6)
Fe1C Fe 1.29205(4) 0.85779(3) 0.67730(7)
Fe1C_2 Fe 0.29205(4) 0.85779(3) 0.67730(7)
Mn1C Mn 0.60916(5) 0.78801(3) 0.58163(8)
N1C N 1.3277(3) 0.92266(15) 0.7881(4)
N2C N 1.2848(3) 0.9339(2) 0.9146(6)
N3C N 1.2793(3) 0.81804(18) 0.8607(4)
N4C N 1.2440(3) 0.84287(17) 0.9765(5)
N5C N 1.1710(3) 0.88220(16) 0.7005(5)
N6C N 1.1439(3) 0.89966(18) 0.8317(5)
N7C N 1.3072(3) 0.91771(19) 0.3862(6)
N8C N 0.4820(3) 0.82699(17) 0.6490(4)
N9C N 1.2275(3) 0.75760(17) 0.5084(5)
N10C N 0.5371(3) 0.75405(16) 0.4279(4)
N11C N 0.6182(3) 0.84729(15) 0.4357(4)
O1C O 0.5875(2) 0.72930(14) 0.7032(4)
O2C O 0.6769(2) 0.82562(13) 0.7144(4)
C33 C 1.0000 1.0000 0.2123(8)
C34 C 1.0000 1.0000 0.3679(10)
N12 N 1.0000 1.0000 0.1033(7)
O3 O 0.5658(3) 0.00873(16) 0.2974(4)
H34 H 0.5347 0.0000 0.2247
H35 H 0.6054 0.0302 0.2703
H31? H 0.9500 0.9811 0.4028
H32? H 0.9989 1.0366 0.4028
H33? H 1.0510 0.9823 0.4028
loop_
_geom_bond_atom_site_label_1
_geom_bond_atom_site_label_2
_geom_bond_site_symmetry_1
_geom_bond_site_symmetry_2
B1 H1 1_555 1_555
C1 H2 1_555 1_555
C2 C1 1_555 1_555
H3 C2 1_555 1_555
C3 C2 1_555 1_555
H4 C3 1_555 1_555
C4 H5 1_555 1_555
C5 C4 1_555 1_555
H6 C5 1_555 1_555
C6 C5 1_555 1_555
H7 C6 1_555 1_555
C7 H8 1_555 1_555
C8 C7 1_555 1_555
H9 C8 1_555 1_555
C9 C8 1_555 1_555
H10 C9 1_555 1_555
C10 Fe1 1_555 1_555
C11 Fe1 1_555 1_555
C12 Fe1 1_555 1_555
C13 C14 1_555 1_555
C14 H11 1_555 1_555
C15 C14 1_555 1_555
H12 C15 1_555 1_555
C16 C15 1_555 1_555
H13 C16 1_555 1_555
C17 C16 1_555 1_555
H14 C17 1_555 1_555
C18 C13 1_555 1_555
C19 C18 1_555 1_555
H15 C19 1_555 1_555
C20 H16 1_555 1_555
C21 C20 1_555 1_555
H17 C21 1_555 1_555
H18 C21 1_555 1_555
C22 C21 1_555 1_555
H19 C22 1_555 1_555
H20 C22 1_555 1_555
C23 C22 1_555 1_555
H21 C23 1_555 1_555
H22 C23 1_555 1_555
C24 C23 1_555 1_555
H23 C24 1_555 1_555
H24 C24 1_555 1_555
C25 C20 1_555 1_555
H25 C25 1_555 1_555
C26 H26 1_555 1_555
C27 C26 1_555 1_555
C28 C27 1_555 1_555
H27 C28 1_555 1_555
C29 C28 1_555 1_555
H28 C29 1_555 1_555
C30 C29 1_555 1_555
H29 C30 1_555 1_555
C31 C30 1_555 1_555
H30 C31 1_555 1_555
C32 C27 1_555 1_555
C33 C34 1_555 1_555
Fe1 N1 1_555 1_555
Mn1 N8 1_555 1_555
N1 C1 1_555 1_555
N2 B1 1_555 1_555
N3 C4 1_555 1_555
N4 B1 1_555 1_555
N5 C7 1_555 1_555
N6 B1 1_555 1_555
N7 C10 1_555 1_555
N8 C12 1_555 1_555
N9 C11 1_555 1_555
N10 C19 1_555 1_555
N11 C25 1_555 1_555
N12 C33 1_555 1_555
O1 C13 1_555 1_555
O2 C32 1_555 1_555
O3 H34 1_555 1_555
H35 O3 1_555 1_555
B1C H1C 1_555 1_555
C1C H2C 1_555 1_555
C2C C1C 1_555 1_555
H3C C2C 1_555 1_555
C3C C2C 1_555 1_555
H4C C3C 1_555 1_555
C4C H5C 1_555 1_555
C5C C4C 1_555 1_555
H6C C5C 1_555 1_555
C6C C5C 1_555 1_555
H7C C6C 1_555 1_555
C7C H8C 1_555 1_555
C8C C7C 1_555 1_555
H9C C8C 1_555 1_555
C9C C8C 1_555 1_555
H10C C9C 1_555 1_555
C10C Fe1C 1_555 1_555
C11C Fe1C 1_555 1_555
C12C Fe1C_2 1_555 1_555
C12C_2 Fe1C 1_555 1_555
C13C C14C 1_555 1_555
C14C H11C 1_555 1_555
C15C C14C 1_555 1_555
H12C C15C 1_555 1_555
C16C C15C 1_555 1_555
H13C C16C 1_555 1_555
C17C C16C 1_555 1_555
H14C C17C 1_555 1_555
C18C C13C 1_555 1_555
C19C C18C 1_555 1_555
H15C C19C 1_555 1_555
C20C H16C 1_555 1_555
C21C C20C 1_555 1_555
H17C C21C 1_555 1_555
H18C C21C 1_555 1_555
C22C C21C 1_555 1_555
H19C C22C 1_555 1_555
H20C C22C 1_555 1_555
C23C C22C 1_555 1_555
H21C C23C 1_555 1_555
H22C C23C 1_555 1_555
C24C C23C 1_555 1_555
H23C C24C 1_555 1_555
H24C C24C 1_555 1_555
C25C C20C 1_555 1_555
H25C C25C 1_555 1_555
C26C H26C 1_555 1_555
C27C C26C 1_555 1_555
C28C C27C 1_555 1_555
H27C C28C 1_555 1_555
C29C C28C 1_555 1_555
H28C C29C 1_555 1_555
C30C C29C 1_555 1_555
H29C C30C 1_555 1_555
C31C C30C 1_555 1_555
H30C C31C 1_555 1_555
C32C C27C 1_555 1_555
Fe1C N1C 1_555 1_555
Mn1C N9 1_555 1_555
N1C C1C 1_555 1_555
N2C B1C 1_555 1_555
N3C C4C 1_555 1_555
N4C B1C 1_555 1_555
N5C C7C 1_555 1_555
N6C B1C 1_555 1_555
N7C C10C 1_555 1_555
N8C C12C 1_555 1_555
N9C Mn1 1_555 1_555
N10C C19C 1_555 1_555
N11C C25C 1_555 1_555
O1C C13C 1_555 1_555
O2C C32C 1_555 1_555
C3 N2 1_555 1_555
C6 N4 1_555 1_555
C9 N6 1_555 1_555
C17 C18 1_555 1_555
C20 N10 1_555 1_555
C24 C25 1_555 1_555
C26 N11 1_555 1_555
C31 C32 1_555 1_555
Fe1 N3 1_555 1_555
Fe1 N5 1_555 1_555
Mn1 N10 1_555 1_555
Mn1 N11 1_555 1_555
Mn1 O1 1_555 1_555
Mn1 O2 1_555 1_555
N1 N2 1_555 1_555
N3 N4 1_555 1_555
N5 N6 1_555 1_555
C3C N2C 1_555 1_555
C6C N4C 1_555 1_555
C9C N6C 1_555 1_555
C11C N9C 1_555 1_555
C17C C18C 1_555 1_555
C20C N10C 1_555 1_555
C24C C25C 1_555 1_555
C26C N11C 1_555 1_555
C31C C32C 1_555 1_555
Fe1C N3C 1_555 1_555
Fe1C N5C 1_555 1_555
Mn1C N8C 1_555 1_555
Mn1C N10C 1_555 1_555
Mn1C N11C 1_555 1_555
Mn1C O1C 1_555 1_555
Mn1C O2C 1_555 1_555
N1C N2C 1_555 1_555
N3C N4C 1_555 1_555
N5C N6C 1_555 1_555

#END
