
#######################################################################
#
#                 Cambridge Crystallographic Data Centre
#                                CCDC 
#
#######################################################################
#
# If this CIF has been generated from an entry in the Cambridge 
# Structural Database, then it will include bibliographic, chemical, 
# crystal, experimental, refinement or atomic coordinate data resulting 
# from the CCDC's data processing and validation procedures.
#
#######################################################################

data_BULHAS
_symmetry_cell_setting           triclinic
_symmetry_space_group_name_H-M   'P -1'
_symmetry_Int_Tables_number      2
_space_group_name_Hall           '-P 1'
loop_
_symmetry_equiv_pos_site_id
_symmetry_equiv_pos_as_xyz
1 x,y,z
2 -x,-y,-z
_cell_length_a                   6.7731(4)
_cell_length_b                   8.6970(6)
_cell_length_c                   10.4826(7)
_cell_angle_alpha                70.547(2)
_cell_angle_beta                 74.312(2)
_cell_angle_gamma                69.755(2)
_cell_volume                     537.798
loop_
_atom_site_label
_atom_site_type_symbol
_atom_site_fract_x
_atom_site_fract_y
_atom_site_fract_z
Np1 Np 0.0000 0.0000 -1.0000
O1 O 0.2769(9) -0.0047(7) -1.0159(6)
O2 O -0.0343(9) 0.2787(7) -1.1910(6)
O3 O -0.1530(10) 0.5575(7) -1.2801(6)
C1 C -0.1271(11) 0.4272(9) -1.1817(7)
C2 C -0.2088(11) 0.4452(9) -1.0366(8)
N1 N -0.1736(10) 0.2985(7) -0.9383(6)
C3 C -0.3063(13) 0.6035(9) -1.0066(8)
H1 H -0.3210 0.7063 -1.0780
C4 C -0.3805(12) 0.6056(9) -0.8699(8)
H2 H -0.4482 0.7104 -0.8462
C5 C -0.3546(14) 0.4527(10) -0.7681(8)
H3 H -0.4070 0.4505 -0.6740
C6 C -0.2492(11) 0.3019(8) -0.8079(8)
C7 C -0.2066(11) 0.1318(10) -0.7067(7)
O4 O -0.0616(10) 0.0128(7) -0.7512(6)
O5 O -0.3133(9) 0.1145(7) -0.5874(6)
O6 O -0.3012(9) 0.7176(8) -1.5917(6)
O7 O -0.3927(9) 0.9953(7) -1.2460(6)
O8 O 0.0833(11) 0.7541(8) -1.5306(6)
Na1 Na 0.0000 0.5000 -1.5000
Na2 Na -0.2915(5) 0.8351(4) -1.4150(3)
Np1_2 Np 0.0000 1.0000 -2.0000
O1A O -0.2769(9) 0.0047(7) -0.9841(6)
O2A O 0.0343(9) -0.2787(7) -0.8090(6)
O2A_2 O 0.0343(9) 0.7213(7) -1.8090(6)
O3A O 0.1530(10) 0.4425(7) -1.7199(6)
C1A C 0.1271(11) 0.5728(9) -1.8183(7)
C2A C 0.2088(11) 0.5548(9) -1.9634(8)
N1A N 0.1736(10) -0.2985(7) -1.0617(6)
N1A_2 N 0.1736(10) 0.7015(7) -2.0617(6)
C3A C 0.3063(13) 0.3965(9) -1.9934(8)
H1A H 0.3210 0.2937 -1.9220
C4A C 0.3805(12) 0.3944(9) -2.1301(8)
H2A H 0.4482 0.2896 -2.1538
C5A C 0.3546(14) 0.5473(10) -2.2319(8)
H3A H 0.4070 0.5495 -2.3260
C6A C 0.2492(11) 0.6981(8) -2.1921(8)
C7A C 0.2066(11) 0.8682(10) -2.2933(7)
O4A O 0.0616(10) -0.0128(7) -1.2488(6)
O4A_2 O 0.0616(10) 0.9872(7) -2.2488(6)
O5A O 0.3133(9) -0.1145(7) -1.4126(6)
O5_2 O -0.3133(9) 1.1145(7) -1.5874(6)
O5A_2 O -0.6867(9) 0.8855(7) -1.4126(6)
O5_3 O 0.6867(9) 0.1145(7) -1.5874(6)
O5A_3 O 0.3133(9) 0.8855(7) -2.4126(6)
O6A O 0.3012(9) 0.2824(8) -1.4083(6)
O7A O 0.3927(9) 0.0047(7) -1.7540(6)
O8A O -0.0833(11) 0.2459(8) -1.4694(6)
Na2A Na 0.2915(5) 0.1649(4) -1.5850(3)
Na2_2 Na -0.2915(5) -0.1649(4) -0.4150(3)
Na2A_2 Na -0.7085(5) 0.1649(4) -0.5850(3)
Na2A_3 Na 0.2915(5) 1.1649(4) -2.5850(3)
Na2_3 Na 0.7085(5) 0.8351(4) -2.4150(3)
loop_
_geom_bond_atom_site_label_1
_geom_bond_atom_site_label_2
_geom_bond_site_symmetry_1
_geom_bond_site_symmetry_2
Np1 O1 1_555 1_555
O2 Np1 1_555 1_555
O3 C1 1_555 1_555
C1 O2 1_555 1_555
C2 C1 1_555 1_555
N1 Np1 1_555 1_555
C3 C2 1_555 1_555
H1 C3 1_555 1_555
C4 C3 1_555 1_555
H2 C4 1_555 1_555
C5 C4 1_555 1_555
H3 C5 1_555 1_555
C6 N1 1_555 1_555
C7 C6 1_555 1_555
O4 Np1 1_555 1_555
O5 C7 1_555 1_555
O6 Na1 1_555 1_555
O7 Na2 1_555 1_555
O8 Na1 1_555 1_555
Na1 O3 1_555 1_555
Na2 O3 1_555 1_555
Np1_2 O2A_2 1_555 1_555
O1A Np1 1_555 1_555
O2A Np1 1_555 1_555
O2A_2 C1A 1_555 1_555
O3A Na1 1_555 1_555
C1A O3A 1_555 1_555
C2A C1A 1_555 1_555
N1A Np1 1_555 1_555
N1A_2 Np1_2 1_555 1_555
C3A C2A 1_555 1_555
H1A C3A 1_555 1_555
C4A C3A 1_555 1_555
H2A C4A 1_555 1_555
C5A C4A 1_555 1_555
H3A C5A 1_555 1_555
C6A N1A_2 1_555 1_555
C7A C6A 1_555 1_555
O4A Np1 1_555 1_555
O4A_2 Np1_2 1_555 1_555
O5A Na2A 1_555 1_555
O5_2 Na2 1_555 1_555
O5A_2 Na2 1_555 1_555
O5_3 Na2A 1_555 1_555
O5A_3 C7A 1_555 1_555
O6A Na1 1_555 1_555
O7A Na2A 1_555 1_555
O8A Na1 1_555 1_555
Na2A O3A 1_555 1_555
Na2_2 O5 1_555 1_555
Na2A_2 O5 1_555 1_555
Na2A_3 O5A_3 1_555 1_555
Na2_3 O5A_3 1_555 1_555
C2 N1 1_555 1_555
C5 C6 1_555 1_555
C7 O4 1_555 1_555
O6 Na2 1_555 1_555
O8 Na2 1_555 1_555
C2A N1A_2 1_555 1_555
C5A C6A 1_555 1_555
C7A O4A_2 1_555 1_555
O6A Na2A 1_555 1_555
O8A Na2A 1_555 1_555

#END
