
#######################################################################
#
#                 Cambridge Crystallographic Data Centre
#                                CCDC 
#
#######################################################################
#
# If this CIF has been generated from an entry in the Cambridge 
# Structural Database, then it will include bibliographic, chemical, 
# crystal, experimental, refinement or atomic coordinate data resulting 
# from the CCDC's data processing and validation procedures.
#
#######################################################################

data_BULHOG
_symmetry_cell_setting           monoclinic
_symmetry_space_group_name_H-M   'P 21'
_symmetry_Int_Tables_number      4
_space_group_name_Hall           'P 2yb'
loop_
_symmetry_equiv_pos_site_id
_symmetry_equiv_pos_as_xyz
1 x,y,z
2 -x,1/2+y,-z
_cell_length_a                   10.3411(13)
_cell_length_b                   13.2280(17)
_cell_length_c                   11.8306(15)
_cell_angle_alpha                90
_cell_angle_beta                 92.314(3)
_cell_angle_gamma                90
_cell_volume                     1617.01
loop_
_atom_site_label
_atom_site_type_symbol
_atom_site_fract_x
_atom_site_fract_y
_atom_site_fract_z
C1 C 0.9288(6) 0.4902(4) 0.3412(5)
C2 C 1.0560(6) 0.4812(5) 0.1556(6)
C3 C 1.2891(6) 0.5189(5) 0.2583(5)
C4 C 1.1198(9) 0.2816(7) 0.3080(8)
H1 H 1.0772 0.2841 0.2374
C5 C 1.1525(10) 0.1888(7) 0.3514(8)
H2 H 1.1366 0.1304 0.3093
C6 C 1.2088(8) 0.1834(7) 0.4573(8)
H3 H 1.2317 0.1209 0.4881
C7 C 1.2317(8) 0.2700(7) 0.5185(7)
H4 H 1.2688 0.2673 0.5913
C8 C 1.1977(7) 0.3628(6) 0.4681(7)
C9 C 1.2102(8) 0.4620(7) 0.5317(7)
C10 C 1.1545(7) 0.6371(6) 0.4990(6)
C11 C 1.1110(7) 0.7025(6) 0.4010(8)
C12 C 1.1004(7) 0.8052(6) 0.4170(8)
H5 H 1.1185 0.8351 0.4871
C13 C 1.0595(8) 0.8640(6) 0.3189(7)
H6 H 1.0515 0.9339 0.3237
C14 C 1.0328(7) 0.8149(6) 0.2189(7)
H7 H 1.0057 0.8516 0.1552
C15 C 1.0459(7) 0.7117(5) 0.2121(7)
H8 H 1.0265 0.6793 0.1437
C16 C 0.5750(6) 0.4503(5) 0.5217(6)
C17 C 0.5910(7) 0.4846(7) 0.6320(6)
H9 H 0.5964 0.5537 0.6456
C18 C 0.5992(9) 0.4180(7) 0.7227(7)
H10 H 0.6102 0.4433 0.7958
C19 C 0.5911(7) 0.3135(7) 0.7060(6)
H11 H 0.5936 0.2690 0.7669
C20 C 0.5795(7) 0.2783(6) 0.5960(6)
H12 H 0.5743 0.2091 0.5830
C21 C 0.5752(7) 0.3461(6) 0.5022(6)
C22 C 0.5665(7) 0.2996(7) 0.3908(6)
H13 H 0.5514 0.2304 0.3855
C23 C 0.5795(8) 0.2995(6) 0.1865(6)
H14 H 0.5003 0.3191 0.1437
C24 C 0.5834(9) 0.1862(6) 0.1931(6)
H15 H 0.5046 0.1605 0.2244
H16 H 0.6564 0.1643 0.2410
C25 C 0.5974(8) 0.1458(6) 0.0658(6)
H17 H 0.6064 0.0728 0.0668
H18 H 0.5195 0.1623 0.0211
C26 C 0.7163(10) 0.1933(6) 0.0098(8)
H19 H 0.7946 0.1757 0.0531
H20 H 0.7231 0.1666 -0.0661
C27 C 0.7020(10) 0.3083(6) 0.0047(7)
H21 H 0.6242 0.3266 -0.0391
H22 H 0.7758 0.3382 -0.0307
C28 C 0.6938(7) 0.3473(6) 0.1297(6)
H23 H 0.7733 0.3276 0.1719
C29 C 0.7206(7) 0.5184(6) 0.0644(5)
H24 H 0.7562 0.4897 0.0010
C30 C 0.7170(7) 0.6277(6) 0.0725(6)
C31 C 0.7597(8) 0.6782(7) -0.0265(7)
H25 H 0.7914 0.6427 -0.0873
C32 C 0.7512(9) 0.7837(7) -0.0270(8)
H26 H 0.7686 0.8199 -0.0921
C33 C 0.7163(9) 0.8347(8) 0.0709(8)
H27 H 0.7169 0.9050 0.0703
C34 C 0.6816(7) 0.7866(5) 0.1670(7)
H28 H 0.6588 0.8241 0.2297
C35 C 0.6801(6) 0.6818(5) 0.1714(5)
Fe1 Fe 1.11221(9) 0.50905(7) 0.31255(7)
Mn1 Mn 0.60889(9) 0.49717(7) 0.28890(7)
N1 N 1.1455(6) 0.3683(4) 0.3611(5)
N2 N 1.1659(5) 0.5393(5) 0.4638(5)
N3 N 1.0850(6) 0.6579(6) 0.3000(5)
N4 N 0.8227(5) 0.4770(4) 0.3544(5)
N5 N 1.0252(7) 0.4731(6) 0.0616(5)
N6 N 1.3957(6) 0.5158(5) 0.2323(5)
N7 N 0.5789(6) 0.3502(5) 0.3003(5)
N8 N 0.6770(5) 0.4584(4) 0.1408(5)
O1 O 1.2503(6) 0.4653(4) 0.6298(5)
O2 O 1.1808(6) 0.6698(4) 0.5916(5)
O3 O 0.5644(4) 0.5174(4) 0.4407(3)
O4 O 0.6442(5) 0.6349(4) 0.2614(4)
Mn1_2 Mn 1.60889(9) 0.49717(7) 0.28890(7)
N6_2 N 0.3957(6) 0.5158(5) 0.2323(5)
O5 O 1.0460(6) 0.5655(4) -0.1740(5)
loop_
_geom_bond_atom_site_label_1
_geom_bond_atom_site_label_2
_geom_bond_site_symmetry_1
_geom_bond_site_symmetry_2
C1 Fe1 1_555 1_555
C2 Fe1 1_555 1_555
C3 Fe1 1_555 1_555
C4 H1 1_555 1_555
C5 C4 1_555 1_555
H2 C5 1_555 1_555
C6 C5 1_555 1_555
H3 C6 1_555 1_555
C7 C6 1_555 1_555
H4 C7 1_555 1_555
C8 C7 1_555 1_555
C9 C8 1_555 1_555
C10 C11 1_555 1_555
C11 C12 1_555 1_555
C12 H5 1_555 1_555
C13 C12 1_555 1_555
H6 C13 1_555 1_555
C14 C13 1_555 1_555
H7 C14 1_555 1_555
C15 C14 1_555 1_555
H8 C15 1_555 1_555
C16 C17 1_555 1_555
C17 H9 1_555 1_555
C18 C17 1_555 1_555
H10 C18 1_555 1_555
C19 C18 1_555 1_555
H11 C19 1_555 1_555
C20 C19 1_555 1_555
H12 C20 1_555 1_555
C21 C16 1_555 1_555
C22 C21 1_555 1_555
H13 C22 1_555 1_555
C23 H14 1_555 1_555
C24 C23 1_555 1_555
H15 C24 1_555 1_555
H16 C24 1_555 1_555
C25 C24 1_555 1_555
H17 C25 1_555 1_555
H18 C25 1_555 1_555
C26 C25 1_555 1_555
H19 C26 1_555 1_555
H20 C26 1_555 1_555
C27 C26 1_555 1_555
H21 C27 1_555 1_555
H22 C27 1_555 1_555
C28 C23 1_555 1_555
H23 C28 1_555 1_555
C29 H24 1_555 1_555
C30 C29 1_555 1_555
C31 C30 1_555 1_555
H25 C31 1_555 1_555
C32 C31 1_555 1_555
H26 C32 1_555 1_555
C33 C32 1_555 1_555
H27 C33 1_555 1_555
C34 C33 1_555 1_555
H28 C34 1_555 1_555
C35 C30 1_555 1_555
Fe1 N1 1_555 1_555
Mn1 N4 1_555 1_555
N1 C4 1_555 1_555
N2 C9 1_555 1_555
N3 C11 1_555 1_555
N4 C1 1_555 1_555
N5 C2 1_555 1_555
N6 C3 1_555 1_555
N7 C22 1_555 1_555
N8 C28 1_555 1_555
O1 C9 1_555 1_555
O2 C10 1_555 1_555
O3 C16 1_555 1_555
O4 C35 1_555 1_555
Mn1_2 N6 1_555 1_555
N6_2 Mn1 1_555 1_555
C8 N1 1_555 1_555
C10 N2 1_555 1_555
C15 N3 1_555 1_555
C20 C21 1_555 1_555
C23 N7 1_555 1_555
C27 C28 1_555 1_555
C29 N8 1_555 1_555
C34 C35 1_555 1_555
Fe1 N2 1_555 1_555
Fe1 N3 1_555 1_555
Mn1 N7 1_555 1_555
Mn1 N8 1_555 1_555
Mn1 O3 1_555 1_555
Mn1 O4 1_555 1_555

#END
