
#######################################################################
#
#                 Cambridge Crystallographic Data Centre
#                                CCDC 
#
#######################################################################
#
# If this CIF has been generated from an entry in the Cambridge 
# Structural Database, then it will include bibliographic, chemical, 
# crystal, experimental, refinement or atomic coordinate data resulting 
# from the CCDC's data processing and validation procedures.
#
#######################################################################

data_BULJAU
_symmetry_cell_setting           orthorhombic
_symmetry_space_group_name_H-M   'P 21 21 2'
_symmetry_Int_Tables_number      18
_space_group_name_Hall           'P 2 2ab'
loop_
_symmetry_equiv_pos_site_id
_symmetry_equiv_pos_as_xyz
1 x,y,z
2 -x,-y,z
3 1/2-x,1/2+y,-z
4 1/2+x,1/2-y,-z
_cell_length_a                   15.490(3)
_cell_length_b                   24.726(5)
_cell_length_c                   9.1639(18)
_cell_angle_alpha                90
_cell_angle_beta                 90
_cell_angle_gamma                90
_cell_volume                     3509.83
loop_
_atom_site_label
_atom_site_type_symbol
_atom_site_fract_x
_atom_site_fract_y
_atom_site_fract_z
B1 B 0.7910(3) 0.6007(2) 1.4606(5)
H1 H 0.8177 0.5873 1.5505
C1 C 0.7020(3) 0.73212(15) 1.4016(5)
H2 H 0.6767 0.7579 1.3413
C2 C 0.7249(3) 0.74106(19) 1.5431(6)
H3 H 0.7179 0.7725 1.5976
C3 C 0.7607(2) 0.69267(17) 1.5864(5)
H4 H 0.7837 0.6857 1.6782
C4 C 0.8945(2) 0.61604(15) 1.1109(5)
H5 H 0.8932 0.6265 1.0134
C5 C 0.9660(3) 0.59511(16) 1.1837(5)
H6 H 1.0206 0.5887 1.1454
C6 C 0.9389(2) 0.58605(15) 1.3221(5)
H7 H 0.9725 0.5721 1.3973
C7 C 0.6112(3) 0.54104(14) 1.2725(5)
H8 H 0.5718 0.5404 1.1960
C8 C 0.6135(3) 0.50439(19) 1.3831(5)
H9 H 0.5783 0.4743 1.3957
C9 C 0.6792(3) 0.52162(18) 1.4717(6)
H10 H 0.6964 0.5051 1.5581
C10 C 0.7446(2) 0.70464(14) 1.0702(4)
C11 C 0.6962(3) 0.60505(15) 0.9945(4)
C12 C 0.5897(2) 0.66305(14) 1.1568(4)
C13 C 0.9837(2) 0.69896(12) 0.7937(4)
C14 C 1.0021(2) 0.66915(14) 0.6692(4)
H11 H 0.9654 0.6713 0.5892
C15 C 1.0748(3) 0.63602(15) 0.6623(5)
H12 H 1.0859 0.6159 0.5786
C16 C 1.1298(3) 0.63310(17) 0.7792(5)
H13 H 1.1793 0.6119 0.7734
C17 C 1.1126(2) 0.66102(14) 0.9035(5)
H14 H 1.1496 0.6579 0.9830
C18 C 1.0400(2) 0.69427(13) 0.9135(4)
C19 C 1.0224(2) 0.72036(13) 1.0500(4)
H15 H 1.0584 0.7117 1.1279
C20 C 0.9447(2) 0.77771(15) 1.2177(5)
H16 H 0.8875 0.7650 1.2480
C21 C 1.0060(3) 0.76423(17) 1.3388(4)
H17 H 1.0639 0.7754 1.3123
H18 H 1.0064 0.7255 1.3551
C22 C 0.9778(3) 0.79351(16) 1.4790(5)
H19 H 0.9224 0.7794 1.5101
H20 H 1.0194 0.7860 1.5556
C23 C 0.9707(3) 0.85307(18) 1.4592(4)
H21 H 1.0273 0.8679 1.4383
H22 H 0.9499 0.8694 1.5488
C24 C 0.9088(3) 0.86697(16) 1.3340(4)
H23 H 0.8509 0.8553 1.3588
H24 H 0.9077 0.9058 1.3193
C25 C 0.9376(2) 0.83946(14) 1.1959(4)
H25 H 0.9953 0.8530 1.1717
C26 C 0.8418(2) 0.89105(13) 1.0455(4)
H26 H 0.8467 0.9167 1.1193
C27 C 0.7904(2) 0.90578(12) 0.9238(4)
C28 C 0.7438(2) 0.95503(14) 0.9285(5)
H27 H 0.7490 0.9776 1.0093
C29 C 0.6909(3) 0.96989(16) 0.8149(5)
H28 H 0.6602 1.0022 0.8193
C30 C 0.6838(3) 0.93768(17) 0.6979(5)
H29 H 0.6467 0.9480 0.6231
C31 C 0.7294(2) 0.88950(14) 0.6834(5)
H30 H 0.7246 0.8692 0.5983
C32 C 0.7827(2) 0.87157(12) 0.7976(4)
Fe1 Fe 0.70803(4) 0.64228(2) 1.17724(6)
Mn1 Mn 0.89084(4) 0.78794(2) 0.91878(7)
N1 N 0.72044(19) 0.68218(11) 1.3608(3)
N2 N 0.7573(2) 0.65781(13) 1.4785(3)
N3 N 0.8294(2) 0.61856(12) 1.2017(4)
N4 N 0.85576(19) 0.60051(12) 1.3329(4)
N5 N 0.67270(19) 0.57775(11) 1.2886(4)
N6 N 0.7142(2) 0.56546(13) 1.4146(4)
N7 N 0.6930(2) 0.58235(13) 0.8877(4)
N8 N 0.77274(19) 0.74171(12) 1.0111(4)
N9 N 0.5187(2) 0.67288(12) 1.1500(3)
N10 N 0.9624(2) 0.75421(11) 1.0744(4)
N11 N 0.88172(18) 0.84700(10) 1.0649(3)
O1 O 0.91304(15) 0.72898(9) 0.7955(3)
O2 O 0.82391(15) 0.82621(9) 0.7839(3)
B1C B 0.2910(3) 0.8993(2) 0.5394(5)
H1C H 0.3177 0.9127 0.4495
C1C C 0.2020(3) 0.76788(15) 0.5984(5)
H2C H 0.1767 0.7421 0.6587
C2C C 0.2249(3) 0.75894(19) 0.4569(6)
H3C H 0.2179 0.7275 0.4024
C3C C 0.2607(2) 0.80733(17) 0.4136(5)
H4C H 0.2837 0.8143 0.3218
C4C C 0.3945(2) 0.88396(15) 0.8891(5)
H5C H 0.3932 0.8735 0.9866
C5C C 0.4660(3) 0.90489(16) 0.8163(5)
H6C H 0.5206 0.9113 0.8546
C6C C 0.4389(2) 0.91395(15) 0.6779(5)
H7C H 0.4725 0.9279 0.6027
C7C C 0.1112(3) 0.95896(14) 0.7275(5)
H8C H 0.0718 0.9596 0.8040
C8C C 0.1135(3) 0.99561(19) 0.6169(5)
H9C H 0.0783 1.0257 0.6043
C9C C 0.1792(3) 0.97838(18) 0.5283(6)
H10C H 0.1964 0.9949 0.4419
C10C C 0.2446(2) 0.79536(14) 0.9298(4)
C11C C 0.1962(3) 0.89495(15) 1.0055(4)
C12C C 1.0897(2) 0.83695(14) 0.8432(4)
C12C_2 C 0.0897(2) 0.83695(14) 0.8432(4)
C13C C 0.4837(2) 0.80104(12) 1.2063(4)
C14C C 0.5021(2) 0.83085(14) 1.3308(4)
H11C H 0.4654 0.8287 1.4108
C15C C 0.5748(3) 0.86398(15) 1.3377(5)
H12C H 0.5859 0.8841 1.4214
C16C C 0.6298(3) 0.86690(17) 1.2208(5)
H13C H 0.6793 0.8881 1.2266
C17C C 0.6126(2) 0.83898(14) 1.0965(5)
H14C H 0.6496 0.8421 1.0170
C18C C 0.5400(2) 0.80573(13) 1.0865(4)
C19C C 0.5224(2) 0.77964(13) 0.9500(4)
H15C H 0.5584 0.7883 0.8721
C20C C 0.4447(2) 0.72229(15) 0.7823(5)
H16C H 0.3875 0.7350 0.7520
C21C C 0.5060(3) 0.73577(17) 0.6612(4)
H17C H 0.5639 0.7246 0.6877
H18C H 0.5064 0.7745 0.6449
C22C C 0.4778(3) 0.70649(16) 0.5210(5)
H19C H 0.4224 0.7206 0.4899
H20C H 0.5194 0.7140 0.4444
C23C C 0.4707(3) 0.64693(18) 0.5408(4)
H21C H 0.5273 0.6321 0.5617
H22C H 0.4499 0.6306 0.4512
C24C C 0.4088(3) 0.63303(16) 0.6660(4)
H23C H 0.3509 0.6447 0.6412
H24C H 0.4077 0.5942 0.6807
C25C C 0.4376(2) 0.66054(14) 0.8041(4)
H25C H 0.4953 0.6470 0.8283
C26C C 0.3418(2) 0.60895(13) 0.9545(4)
H26C H 0.3467 0.5833 0.8807
C27C C 0.2904(2) 0.59422(12) 1.0762(4)
C28C C 0.2438(2) 0.54497(14) 1.0715(5)
H27C H 0.2490 0.5224 0.9907
C29C C 0.1909(3) 0.53011(16) 1.1851(5)
H28C H 0.1602 0.4978 1.1807
C30C C 0.1838(3) 0.56232(17) 1.3021(5)
H29C H 0.1467 0.5520 1.3769
C31C C 0.2294(2) 0.61050(14) 1.3166(5)
H30C H 0.2246 0.6308 1.4017
C32C C 0.2827(2) 0.62843(12) 1.2024(4)
Fe1C Fe 0.20803(4) 0.85772(2) 0.82276(6)
Fe1C_2 Fe 1.20803(4) 0.85772(2) 0.82276(6)
Mn1C Mn 0.39084(4) 0.71206(2) 1.08122(7)
N1C N 0.22044(19) 0.81782(11) 0.6392(3)
N2C N 0.2573(2) 0.84219(13) 0.5215(3)
N3C N 0.3294(2) 0.88144(12) 0.7983(4)
N4C N 0.35576(19) 0.89949(12) 0.6671(4)
N5C N 0.17270(19) 0.92225(11) 0.7114(4)
N6C N 0.2142(2) 0.93454(13) 0.5854(4)
N7C N 0.1930(2) 0.91765(13) 1.1123(4)
N8C N 0.27274(19) 0.75829(12) 0.9889(4)
N9C N 1.0187(2) 0.82712(12) 0.8500(3)
N10C N 0.4624(2) 0.74579(11) 0.9256(4)
N11C N 0.38172(18) 0.65300(10) 0.9351(3)
O1C O 0.41304(15) 0.77102(9) 1.2045(3)
O2C O 0.32391(15) 0.67379(9) 1.2161(3)
C33 C 0.5000 0.0000 0.1207(7)
C34 C 0.5000 0.0000 0.2770(8)
N12 N 0.5000 0.0000 0.4053(6)
O3 O 0.0758(3) 0.9925(2) 0.2189(6)
H34 H 0.0912 0.9644 0.2654
H35 H 0.0397 0.9838 0.1529
H31? H 0.5093 0.0361 0.0858
H32? H 0.4454 -0.0130 0.0858
H33? H 0.5453 -0.0231 0.0858
loop_
_geom_bond_atom_site_label_1
_geom_bond_atom_site_label_2
_geom_bond_site_symmetry_1
_geom_bond_site_symmetry_2
B1 H1 1_555 1_555
C1 H2 1_555 1_555
C2 C1 1_555 1_555
H3 C2 1_555 1_555
C3 C2 1_555 1_555
H4 C3 1_555 1_555
C4 H5 1_555 1_555
C5 C4 1_555 1_555
H6 C5 1_555 1_555
C6 C5 1_555 1_555
H7 C6 1_555 1_555
C7 H8 1_555 1_555
C8 C7 1_555 1_555
H9 C8 1_555 1_555
C9 C8 1_555 1_555
H10 C9 1_555 1_555
C10 Fe1 1_555 1_555
C11 Fe1 1_555 1_555
C12 Fe1 1_555 1_555
C13 C14 1_555 1_555
C14 H11 1_555 1_555
C15 C14 1_555 1_555
H12 C15 1_555 1_555
C16 C15 1_555 1_555
H13 C16 1_555 1_555
C17 C16 1_555 1_555
H14 C17 1_555 1_555
C18 C13 1_555 1_555
C19 C18 1_555 1_555
H15 C19 1_555 1_555
C20 H16 1_555 1_555
C21 C20 1_555 1_555
H17 C21 1_555 1_555
H18 C21 1_555 1_555
C22 C21 1_555 1_555
H19 C22 1_555 1_555
H20 C22 1_555 1_555
C23 C22 1_555 1_555
H21 C23 1_555 1_555
H22 C23 1_555 1_555
C24 C23 1_555 1_555
H23 C24 1_555 1_555
H24 C24 1_555 1_555
C25 C20 1_555 1_555
H25 C25 1_555 1_555
C26 H26 1_555 1_555
C27 C26 1_555 1_555
C28 C27 1_555 1_555
H27 C28 1_555 1_555
C29 C28 1_555 1_555
H28 C29 1_555 1_555
C30 C29 1_555 1_555
H29 C30 1_555 1_555
C31 C30 1_555 1_555
H30 C31 1_555 1_555
C32 C27 1_555 1_555
C33 C34 1_555 1_555
C34 N12 1_555 1_555
Fe1 N1 1_555 1_555
Mn1 N8 1_555 1_555
N1 C1 1_555 1_555
N2 B1 1_555 1_555
N3 C4 1_555 1_555
N4 B1 1_555 1_555
N5 C7 1_555 1_555
N6 B1 1_555 1_555
N7 C11 1_555 1_555
N8 C10 1_555 1_555
N9 C12 1_555 1_555
N10 C19 1_555 1_555
N11 C25 1_555 1_555
O1 C13 1_555 1_555
O2 C32 1_555 1_555
O3 H34 1_555 1_555
H35 O3 1_555 1_555
B1C H1C 1_555 1_555
C1C H2C 1_555 1_555
C2C C1C 1_555 1_555
H3C C2C 1_555 1_555
C3C C2C 1_555 1_555
H4C C3C 1_555 1_555
C4C H5C 1_555 1_555
C5C C4C 1_555 1_555
H6C C5C 1_555 1_555
C6C C5C 1_555 1_555
H7C C6C 1_555 1_555
C7C H8C 1_555 1_555
C8C C7C 1_555 1_555
H9C C8C 1_555 1_555
C9C C8C 1_555 1_555
H10C C9C 1_555 1_555
C10C Fe1C 1_555 1_555
C11C Fe1C 1_555 1_555
C12C Fe1C_2 1_555 1_555
C12C_2 Fe1C 1_555 1_555
C13C C14C 1_555 1_555
C14C H11C 1_555 1_555
C15C C14C 1_555 1_555
H12C C15C 1_555 1_555
C16C C15C 1_555 1_555
H13C C16C 1_555 1_555
C17C C16C 1_555 1_555
H14C C17C 1_555 1_555
C18C C13C 1_555 1_555
C19C C18C 1_555 1_555
H15C C19C 1_555 1_555
C20C H16C 1_555 1_555
C21C C20C 1_555 1_555
H17C C21C 1_555 1_555
H18C C21C 1_555 1_555
C22C C21C 1_555 1_555
H19C C22C 1_555 1_555
H20C C22C 1_555 1_555
C23C C22C 1_555 1_555
H21C C23C 1_555 1_555
H22C C23C 1_555 1_555
C24C C23C 1_555 1_555
H23C C24C 1_555 1_555
H24C C24C 1_555 1_555
C25C C20C 1_555 1_555
H25C C25C 1_555 1_555
C26C H26C 1_555 1_555
C27C C26C 1_555 1_555
C28C C27C 1_555 1_555
H27C C28C 1_555 1_555
C29C C28C 1_555 1_555
H28C C29C 1_555 1_555
C30C C29C 1_555 1_555
H29C C30C 1_555 1_555
C31C C30C 1_555 1_555
H30C C31C 1_555 1_555
C32C C27C 1_555 1_555
Fe1C N1C 1_555 1_555
Mn1C N9 1_555 1_555
N1C C1C 1_555 1_555
N2C B1C 1_555 1_555
N3C C4C 1_555 1_555
N4C B1C 1_555 1_555
N5C C7C 1_555 1_555
N6C B1C 1_555 1_555
N7C C11C 1_555 1_555
N8C C10C 1_555 1_555
N9C Mn1 1_555 1_555
N10C C19C 1_555 1_555
N11C C25C 1_555 1_555
O1C C13C 1_555 1_555
O2C C32C 1_555 1_555
C3 N2 1_555 1_555
C6 N4 1_555 1_555
C9 N6 1_555 1_555
C17 C18 1_555 1_555
C20 N10 1_555 1_555
C24 C25 1_555 1_555
C26 N11 1_555 1_555
C31 C32 1_555 1_555
Fe1 N3 1_555 1_555
Fe1 N5 1_555 1_555
Mn1 N10 1_555 1_555
Mn1 N11 1_555 1_555
Mn1 O1 1_555 1_555
Mn1 O2 1_555 1_555
N1 N2 1_555 1_555
N3 N4 1_555 1_555
N5 N6 1_555 1_555
C3C N2C 1_555 1_555
C6C N4C 1_555 1_555
C9C N6C 1_555 1_555
C12C N9C 1_555 1_555
C17C C18C 1_555 1_555
C20C N10C 1_555 1_555
C24C C25C 1_555 1_555
C26C N11C 1_555 1_555
C31C C32C 1_555 1_555
Fe1C N3C 1_555 1_555
Fe1C N5C 1_555 1_555
Mn1C N8C 1_555 1_555
Mn1C N10C 1_555 1_555
Mn1C N11C 1_555 1_555
Mn1C O1C 1_555 1_555
Mn1C O2C 1_555 1_555
N1C N2C 1_555 1_555
N3C N4C 1_555 1_555
N5C N6C 1_555 1_555

#END
