
#######################################################################
#
#                 Cambridge Crystallographic Data Centre
#                                CCDC 
#
#######################################################################
#
# If this CIF has been generated from an entry in the Cambridge 
# Structural Database, then it will include bibliographic, chemical, 
# crystal, experimental, refinement or atomic coordinate data resulting 
# from the CCDC's data processing and validation procedures.
#
#######################################################################

data_BULMIF
_symmetry_cell_setting           monoclinic
_symmetry_space_group_name_H-M   'P 21/c'
_symmetry_Int_Tables_number      14
_space_group_name_Hall           '-P 2ybc'
loop_
_symmetry_equiv_pos_site_id
_symmetry_equiv_pos_as_xyz
1 x,y,z
2 -x,1/2+y,1/2-z
3 -x,-y,-z
4 x,1/2-y,1/2+z
_cell_length_a                   11.883(3)
_cell_length_b                   10.230(2)
_cell_length_c                   12.484(3)
_cell_angle_alpha                90
_cell_angle_beta                 105.330(10)
_cell_angle_gamma                90
_cell_volume                     1463.6
loop_
_atom_site_label
_atom_site_type_symbol
_atom_site_fract_x
_atom_site_fract_y
_atom_site_fract_z
Cu1 Cu 0.74827(2) 0.25755(2) 0.280790(19)
O1 O 0.68306(13) 0.13688(15) 0.16088(12)
O2 O 0.82516(13) 0.12325(15) 0.38608(13)
N1 N 0.71300(15) 0.40990(17) 0.17192(14)
N2 N 0.80914(15) 0.40401(17) 0.38908(14)
O3 O 0.52576(16) 0.0542(2) 0.20370(14)
O4 O 0.96261(14) 0.16196(18) 0.29918(14)
C1 C 0.6670(2) 0.4089(2) 0.06280(18)
C2 C 0.6400(2) 0.5240(3) 0.0007(2)
C3 C 0.6597(2) 0.6419(3) 0.0532(2)
C4 C 0.71172(19) 0.6471(2) 0.16878(19)
C5 C 0.7396(2) 0.7647(2) 0.2315(2)
C6 C 0.7900(2) 0.7618(2) 0.3428(2)
C7 C 0.81622(19) 0.6408(2) 0.40118(19)
C8 C 0.8671(2) 0.6294(2) 0.5165(2)
C9 C 0.8858(2) 0.5083(3) 0.56406(19)
C10 C 0.85551(18) 0.3972(2) 0.49825(18)
C11 C 0.78895(17) 0.5236(2) 0.34160(17)
C12 C 0.73682(17) 0.5275(2) 0.22399(16)
C13 C 0.58828(18) 0.0728(2) 0.13942(17)
C14 C 0.55346(19) 0.0182(2) 0.02496(17)
C15 C 0.92697(19) 0.1069(2) 0.37194(17)
C16 C 1.0078(2) 0.0184(2) 0.45210(19)
O5 O 0.57160(16) 0.2781(2) 0.33139(17)
H1 H 0.533(3) 0.228(3) 0.291(3)
H2 H 0.542(3) 0.341(4) 0.306(3)
H3 H 0.655(2) 0.329(3) 0.032(2)
H4 H 0.610(2) 0.516(3) -0.072(2)
H5 H 0.642(2) 0.718(3) 0.016(2)
H6 H 0.725(2) 0.838(3) 0.197(2)
H7 H 0.810(2) 0.833(3) 0.380(2)
H8 H 0.885(2) 0.696(3) 0.557(2)
H9 H 0.919(2) 0.501(3) 0.641(2)
H10 H 0.867(2) 0.313(3) 0.529(2)
H11 H 0.613(2) 0.010(3) -0.010(2)
H12 H 1.074(3) -0.011(3) 0.432(3)
Cu1B Cu 0.25173(2) -0.25755(2) -0.280790(19)
Cu1B_2 Cu 1.25173(2) -0.25755(2) 0.719210(19)
O1B O 0.31694(13) -0.13688(15) -0.16088(12)
O2B O 1.17484(13) -0.12325(15) 0.61392(13)
O2B_2 O 0.17484(13) -0.12325(15) -0.38608(13)
N1B N 0.28700(15) -0.40990(17) -0.17192(14)
N2B N 0.19086(15) -0.40401(17) -0.38908(14)
O3B O 0.47424(16) -0.0542(2) -0.20370(14)
O4B O 1.03739(14) -0.16196(18) 0.70082(14)
O4B_2 O 0.03739(14) -0.16196(18) -0.29918(14)
C1B C 0.3330(2) -0.4089(2) -0.06280(18)
C2B C 0.3600(2) -0.5240(3) -0.0007(2)
C3B C 0.3403(2) -0.6419(3) -0.0532(2)
C4B C 0.28828(19) -0.6471(2) -0.16878(19)
C5B C 0.2604(2) -0.7647(2) -0.2315(2)
C6B C 0.2100(2) -0.7618(2) -0.3428(2)
C7B C 0.18378(19) -0.6408(2) -0.40118(19)
C8B C 0.1329(2) -0.6294(2) -0.5165(2)
C9B C 0.1142(2) -0.5083(3) -0.56406(19)
C10B C 0.14449(18) -0.3972(2) -0.49825(18)
C11B C 0.21105(17) -0.5236(2) -0.34160(17)
C12B C 0.26318(17) -0.5275(2) -0.22399(16)
C13B C 0.41172(18) -0.0728(2) -0.13942(17)
C14B C 0.44654(19) -0.0182(2) -0.02496(17)
C15B C 1.07303(19) -0.1069(2) 0.62806(17)
C16B C 0.9922(2) -0.0184(2) 0.54790(19)
O5B O 0.42840(16) -0.2781(2) -0.33139(17)
H1B H 0.467(3) -0.228(3) -0.291(3)
H2B H 0.458(3) -0.341(4) -0.306(3)
H3B H 0.345(2) -0.329(3) -0.032(2)
H4B H 0.390(2) -0.516(3) 0.072(2)
H5B H 0.358(2) -0.718(3) -0.016(2)
H6B H 0.275(2) -0.838(3) -0.197(2)
H7B H 0.190(2) -0.833(3) -0.380(2)
H8B H 0.115(2) -0.696(3) -0.557(2)
H9B H 0.081(2) -0.501(3) -0.641(2)
H10B H 0.133(2) -0.313(3) -0.529(2)
H11B H 0.387(2) -0.010(3) 0.010(2)
H12B H 0.926(3) 0.011(3) 0.568(3)
loop_
_geom_bond_atom_site_label_1
_geom_bond_atom_site_label_2
_geom_bond_site_symmetry_1
_geom_bond_site_symmetry_2
Cu1 O1 1_555 1_555
O1 C13 1_555 1_555
O2 Cu1 1_555 1_555
N1 Cu1 1_555 1_555
N2 Cu1 1_555 1_555
O3 C13 1_555 1_555
O4 Cu1 1_555 1_555
C1 N1 1_555 1_555
C2 C1 1_555 1_555
C3 C2 1_555 1_555
C4 C3 1_555 1_555
C5 C4 1_555 1_555
C6 C5 1_555 1_555
C7 C6 1_555 1_555
C8 C7 1_555 1_555
C9 C8 1_555 1_555
C10 N2 1_555 1_555
C11 N2 1_555 1_555
C12 N1 1_555 1_555
C13 C14 1_555 1_555
C14 H11 1_555 1_555
C15 O2 1_555 1_555
C16 C15 1_555 1_555
O5 Cu1 1_555 1_555
H1 O5 1_555 1_555
H2 O5 1_555 1_555
H3 C1 1_555 1_555
H4 C2 1_555 1_555
H5 C3 1_555 1_555
H6 C5 1_555 1_555
H7 C6 1_555 1_555
H8 C8 1_555 1_555
H9 C9 1_555 1_555
H10 C10 1_555 1_555
H12 C16 1_555 1_555
Cu1B O1B 1_555 1_555
Cu1B_2 O2B 1_555 1_555
O1B C13B 1_555 1_555
O2B C15B 1_555 1_555
O2B_2 Cu1B 1_555 1_555
N1B Cu1B 1_555 1_555
N2B Cu1B 1_555 1_555
O3B C13B 1_555 1_555
O4B Cu1B_2 1_555 1_555
O4B_2 Cu1B 1_555 1_555
C1B N1B 1_555 1_555
C2B C1B 1_555 1_555
C3B C2B 1_555 1_555
C4B C3B 1_555 1_555
C5B C4B 1_555 1_555
C6B C5B 1_555 1_555
C7B C6B 1_555 1_555
C8B C7B 1_555 1_555
C9B C8B 1_555 1_555
C10B N2B 1_555 1_555
C11B N2B 1_555 1_555
C12B N1B 1_555 1_555
C13B C14B 1_555 1_555
C14B C14 1_555 1_555
C15B O4B 1_555 1_555
C16B C16 1_555 1_555
O5B Cu1B 1_555 1_555
H1B O5B 1_555 1_555
H2B O5B 1_555 1_555
H3B C1B 1_555 1_555
H4B C2B 1_555 1_555
H5B C3B 1_555 1_555
H6B C5B 1_555 1_555
H7B C6B 1_555 1_555
H8B C8B 1_555 1_555
H9B C9B 1_555 1_555
H10B C10B 1_555 1_555
H11B C14B 1_555 1_555
H12B C16B 1_555 1_555
O4 C15 1_555 1_555
C4 C12 1_555 1_555
C7 C11 1_555 1_555
C9 C10 1_555 1_555
C11 C12 1_555 1_555
C4B C12B 1_555 1_555
C7B C11B 1_555 1_555
C9B C10B 1_555 1_555
C11B C12B 1_555 1_555
C15B C16B 1_555 1_555

#END
