
#######################################################################
#
#                 Cambridge Crystallographic Data Centre
#                                CCDC 
#
#######################################################################
#
# If this CIF has been generated from an entry in the Cambridge 
# Structural Database, then it will include bibliographic, chemical, 
# crystal, experimental, refinement or atomic coordinate data resulting 
# from the CCDC's data processing and validation procedures.
#
#######################################################################

data_BULROQ
_symmetry_cell_setting           monoclinic
_symmetry_space_group_name_H-M   'P 21/c'
_symmetry_Int_Tables_number      14
_space_group_name_Hall           '-P 2ybc'
loop_
_symmetry_equiv_pos_site_id
_symmetry_equiv_pos_as_xyz
1 x,y,z
2 -x,1/2+y,1/2-z
3 -x,-y,-z
4 x,1/2-y,1/2+z
_cell_length_a                   13.050(3)
_cell_length_b                   15.467(4)
_cell_length_c                   14.283(4)
_cell_angle_alpha                90
_cell_angle_beta                 96.451(12)
_cell_angle_gamma                90
_cell_volume                     2864.69
loop_
_atom_site_label
_atom_site_type_symbol
_atom_site_fract_x
_atom_site_fract_y
_atom_site_fract_z
Sb1 Sb 0.284776(19) -0.084243(13) 0.800948(15)
F1 F 0.26532(16) 0.03188(12) 0.76475(14)
F2 F 0.30327(17) -0.19922(12) 0.84119(15)
F3 F 0.40972(18) -0.05462(14) 0.86938(18)
F4 F 0.3506(2) -0.10761(15) 0.69483(17)
F5 F 0.21791(18) -0.06098(14) 0.90810(14)
F6 F 0.15738(19) -0.11332(14) 0.73559(17)
Ag1 Ag 0.556574(19) 0.102695(14) 0.577101(16)
C1 C 0.5574(3) -0.3658(2) 0.5389(2)
H1 H 0.5329 -0.4075 0.5776
C2 C 0.5013(2) -0.29037(18) 0.5172(2)
N1 N 0.5343(2) -0.22879(15) 0.46167(17)
N2 N 0.4066(2) -0.39822(16) 0.76007(18)
N3 N 0.6661(2) 0.01994(15) 0.50760(17)
N4 N 0.4327(2) -0.32856(17) 0.71425(18)
C3 C 0.8442(2) 0.05020(19) 0.5856(2)
C4 C 0.3384(2) -0.4470(2) 0.7031(2)
C5 C 0.7682(3) 0.00036(19) 0.5237(2)
N5 N 0.6911(2) -0.09315(15) 0.42811(18)
C6 C 0.2975(3) -0.52951(19) 0.7347(2)
C7 C 0.3632(3) -0.5889(2) 0.7849(2)
H2 H 0.4332 -0.5769 0.7979
C8 C 0.6841(3) -0.3141(2) 0.4453(2)
H3 H 0.7463 -0.3205 0.4200
N6 N 0.3800(2) -0.33333(17) 0.62810(18)
N7 N 0.6189(2) -0.03723(16) 0.44923(17)
C9 C 0.8209(3) 0.1299(2) 0.6229(2)
H4 H 0.7557 0.1535 0.6076
C10 C 0.3215(3) -0.40550(19) 0.6181(2)
H5 H 0.2789 -0.4232 0.5650
C11 C 0.1549(3) -0.6266(2) 0.7456(2)
H6 H 0.0852 -0.6395 0.7320
C12 C 0.8934(3) 0.1745(2) 0.6825(2)
H7 H 0.8769 0.2279 0.7068
C13 C 0.9429(3) 0.0161(2) 0.6102(2)
H8 H 0.9601 -0.0371 0.5859
C14 C 0.2198(3) -0.6841(2) 0.7963(2)
H9 H 0.1937 -0.7354 0.8179
C15 C 0.4020(3) -0.2708(2) 0.5570(2)
H10 H 0.4061 -0.2134 0.5847
H11 H 0.3459 -0.2708 0.5063
C16 C 0.1938(3) -0.5490(2) 0.7146(2)
H12 H 0.1499 -0.5102 0.6804
C17 C 0.6244(2) -0.24104(19) 0.4269(2)
C18 C 0.3237(3) -0.6657(2) 0.8151(2)
H13 H 0.3674 -0.7053 0.8484
C19 C 0.6615(3) -0.16829(19) 0.3686(2)
H14 H 0.7202 -0.1877 0.3381
H15 H 0.6070 -0.1520 0.3199
C20 C 0.7841(3) -0.0730(2) 0.4726(2)
H16 H 0.8459 -0.1023 0.4696
C21 C 0.9902(3) 0.1397(2) 0.7059(2)
H17 H 1.0390 0.1696 0.7459
C22 C 0.6498(3) -0.3777(2) 0.5021(2)
H18 H 0.6883 -0.4277 0.5153
C23 C 1.0148(3) 0.0601(2) 0.6700(2)
H19 H 1.0799 0.0365 0.6863
Ag1B Ag 0.443426(19) -0.102695(14) 0.422899(16)
Ag1A Ag 0.443426(19) -0.397305(14) 0.922899(16)
N1B N 0.4657(2) 0.22879(15) 0.53833(17)
N2A N 0.5934(2) 0.10178(16) 0.73993(18)
N7B N 0.3811(2) 0.03723(16) 0.55077(17)
O1 O -0.0755(2) -0.25831(19) 1.0002(3)
C24 C -0.0034(3) -0.2120(2) 1.0233(3)
C25 C 0.0991(4) -0.2468(3) 1.0598(3)
H20 H 0.1459 -0.1998 1.0755
H21 H 0.1248 -0.2823 1.0125
H22 H 0.0929 -0.2809 1.1151
C26 C -0.0121(4) -0.1161(3) 1.0138(4)
H23 H -0.0815 -0.1010 0.9897
H24 H 0.0346 -0.0959 0.9713
H25 H 0.0049 -0.0897 1.0744
loop_
_geom_bond_atom_site_label_1
_geom_bond_atom_site_label_2
_geom_bond_site_symmetry_1
_geom_bond_site_symmetry_2
Sb1 F1 1_555 1_555
F2 Sb1 1_555 1_555
F3 Sb1 1_555 1_555
F4 Sb1 1_555 1_555
F5 Sb1 1_555 1_555
F6 Sb1 1_555 1_555
Ag1 N3 1_555 1_555
C1 H1 1_555 1_555
C2 C1 1_555 1_555
N1 C2 1_555 1_555
N2 N4 1_555 1_555
N3 C5 1_555 1_555
N4 N6 1_555 1_555
C3 C5 1_555 1_555
C4 N2 1_555 1_555
C5 C20 1_555 1_555
N5 N7 1_555 1_555
C6 C4 1_555 1_555
C7 C6 1_555 1_555
H2 C7 1_555 1_555
C8 H3 1_555 1_555
N6 C10 1_555 1_555
N7 N3 1_555 1_555
C9 C3 1_555 1_555
H4 C9 1_555 1_555
C10 C4 1_555 1_555
H5 C10 1_555 1_555
C11 H6 1_555 1_555
C12 C9 1_555 1_555
H7 C12 1_555 1_555
C13 C3 1_555 1_555
H8 C13 1_555 1_555
C14 C11 1_555 1_555
H9 C14 1_555 1_555
C15 C2 1_555 1_555
H10 C15 1_555 1_555
H11 C15 1_555 1_555
C16 C6 1_555 1_555
H12 C16 1_555 1_555
C17 N1 1_555 1_555
C18 C7 1_555 1_555
H13 C18 1_555 1_555
C19 N5 1_555 1_555
H14 C19 1_555 1_555
H15 C19 1_555 1_555
C20 N5 1_555 1_555
H16 C20 1_555 1_555
C21 C12 1_555 1_555
H17 C21 1_555 1_555
C22 C1 1_555 1_555
H18 C22 1_555 1_555
C23 C13 1_555 1_555
H19 C23 1_555 1_555
O1 C24 1_555 1_555
C24 C25 1_555 1_555
C25 H20 1_555 1_555
H21 C25 1_555 1_555
H22 C25 1_555 1_555
C26 C24 1_555 1_555
H23 C26 1_555 1_555
H24 C26 1_555 1_555
H25 C26 1_555 1_555
Ag1B N1 1_555 1_555
Ag1A N2 1_555 1_555
N1B Ag1 1_555 1_555
N2A Ag1 1_555 1_555
N7B Ag1 1_555 1_555
C8 C17 1_555 1_555
C8 C22 1_555 1_555
N6 C15 1_555 1_555
N7 Ag1B 1_555 1_555
C11 C16 1_555 1_555
C14 C18 1_555 1_555
C17 C19 1_555 1_555
C21 C23 1_555 1_555

#END
