
#######################################################################
#
#                 Cambridge Crystallographic Data Centre
#                                CCDC 
#
#######################################################################
#
# If this CIF has been generated from an entry in the Cambridge 
# Structural Database, then it will include bibliographic, chemical, 
# crystal, experimental, refinement or atomic coordinate data resulting 
# from the CCDC's data processing and validation procedures.
#
#######################################################################

data_BULYEN
_symmetry_cell_setting           triclinic
_symmetry_space_group_name_H-M   'P -1'
_symmetry_Int_Tables_number      2
_space_group_name_Hall           '-P 1'
loop_
_symmetry_equiv_pos_site_id
_symmetry_equiv_pos_as_xyz
1 x,y,z
2 -x,-y,-z
_cell_length_a                   9.1493(14)
_cell_length_b                   11.6116(18)
_cell_length_c                   11.727(3)
_cell_angle_alpha                117.491(3)
_cell_angle_beta                 98.801(3)
_cell_angle_gamma                105.264(2)
_cell_volume                     1009.84
loop_
_atom_site_label
_atom_site_type_symbol
_atom_site_fract_x
_atom_site_fract_y
_atom_site_fract_z
Co1 Co 0.5000 0.0000 0.5000
Co2 Co 0.87028(5) -0.01308(5) 0.60332(4)
N1 N 0.6619(3) -0.0167(3) 0.3836(3)
N2 N 0.8104(3) 0.0005(3) 0.4400(2)
N3 N 0.8973(3) -0.0116(3) 0.3567(3)
O1 O 0.6684(3) 0.1891(3) 0.6743(3)
O2 O 0.8831(3) 0.1594(3) 0.7587(2)
O3 O 0.2190(3) 0.1619(3) 1.3547(3)
O4 O 0.4112(3) 0.1126(3) 1.4304(3)
O5 O 0.7763(5) 0.7212(3) 1.3544(3)
O6 O 0.9974(4) 0.6612(3) 1.4357(3)
S1 S 0.84046(14) 0.61857(10) 1.34572(11)
C1 C 0.7830(4) 0.2186(4) 0.7683(4)
C2 C 0.8086(4) 0.3316(4) 0.9111(4)
C3 C 0.9202(5) 0.3503(4) 1.0183(4)
H1 H 0.9875 0.3009 1.0010
C4 C 0.9333(5) 0.4416(4) 1.1514(4)
H2 H 1.0070 0.4522 1.2232
C5 C 0.8347(5) 0.5166(4) 1.1755(4)
C6 C 0.7268(6) 0.5035(4) 1.0703(4)
H3 H 0.6642 0.5571 1.0884
C7 C 0.7118(5) 0.4104(4) 0.9375(4)
H4 H 0.6379 0.4001 0.8661
C8 C 0.3649(4) 0.1820(3) 1.3891(3)
C9 C 0.4834(4) 0.2915(3) 1.3793(3)
C10 C 0.6454(4) 0.3161(4) 1.4164(4)
H5 H 0.6812 0.2646 1.4475
C11 C 0.7520(5) 0.4165(4) 1.4070(4)
H6 H 0.8604 0.4329 1.4316
C12 C 0.6998(5) 0.4929(4) 1.3616(4)
C13 C 0.5401(5) 0.4711(4) 1.3253(4)
H7 H 0.5059 0.5242 1.2958
C14 C 0.4308(5) 0.3688(4) 1.3333(3)
H8 H 0.3224 0.3520 1.3078
C15 C 0.6521(4) -0.0440(3) 0.2557(3)
C16 C 0.5241(4) -0.0767(4) 0.1477(4)
H9 H 0.4253 -0.0765 0.1578
C17 C 0.5516(5) -0.1083(5) 0.0286(4)
H10 H 0.4674 -0.1360 -0.0459
C18 C 0.7024(5) -0.1008(5) 0.0134(4)
H11 H 0.7157 -0.1203 -0.0698
C19 C 0.8316(5) -0.0655(5) 0.1178(4)
H12 H 0.9322 -0.0591 0.1088
C20 C 0.7995(4) -0.0398(4) 0.2396(3)
Co1_2 Co 0.5000 0.0000 1.5000
Co1_3 Co 0.5000 0.0000 -0.5000
Co2A Co 0.12972(5) 0.01308(5) 0.39668(4)
Co2A_2 Co 1.12972(5) 0.01308(5) 0.39668(4)
Co2A_3 Co 0.12972(5) 0.01308(5) 1.39668(4)
Co2_2 Co -0.12972(5) -0.01308(5) 0.60332(4)
Co2_3 Co 0.87028(5) -0.01308(5) -0.39668(4)
N1A N 0.3381(3) 0.0167(3) 0.6164(3)
N2A N 0.1896(3) -0.0005(3) 0.5600(2)
N3A N 0.1027(3) 0.0116(3) 0.6433(3)
N3A_2 N 1.1027(3) 0.0116(3) 0.6433(3)
N3_2 N -0.1027(3) -0.0116(3) 0.3567(3)
O1A O 0.3316(3) -0.1891(3) 0.3257(3)
O2A O 0.1169(3) -0.1594(3) 0.2413(2)
O3A O 0.7810(3) -0.1619(3) -0.3547(3)
O3A_2 O 0.7810(3) -0.1619(3) 0.6453(3)
O3_2 O 0.2190(3) 0.1619(3) 0.3547(3)
O4A O 0.5888(3) -0.1126(3) -0.4304(3)
O4_2 O 0.4112(3) 0.1126(3) 0.4304(3)
O4A_2 O 0.5888(3) -0.1126(3) 0.5696(3)
O5A O 0.2237(5) -0.7212(3) -0.3544(3)
O6A O 0.0026(4) -0.6612(3) -0.4357(3)
S1A S 0.15954(14) -0.61857(10) -0.34572(11)
C1A C 0.2170(4) -0.2186(4) 0.2317(4)
C2A C 0.1914(4) -0.3316(4) 0.0889(4)
C3A C 0.0798(5) -0.3503(4) -0.0183(4)
H1A H 0.0125 -0.3009 -0.0010
C4A C 0.0667(5) -0.4416(4) -0.1514(4)
H2A H -0.0070 -0.4522 -0.2232
C5A C 0.1653(5) -0.5166(4) -0.1755(4)
C6A C 0.2732(6) -0.5035(4) -0.0703(4)
H3A H 0.3358 -0.5571 -0.0884
C7A C 0.2882(5) -0.4104(4) 0.0625(4)
H4A H 0.3621 -0.4001 0.1339
C8A C 0.6351(4) -0.1820(3) -0.3891(3)
C9A C 0.5166(4) -0.2915(3) -0.3793(3)
C10A C 0.3546(4) -0.3161(4) -0.4164(4)
H5A H 0.3188 -0.2646 -0.4475
C11A C 0.2480(5) -0.4165(4) -0.4070(4)
H6A H 0.1396 -0.4329 -0.4316
C12A C 0.3002(5) -0.4929(4) -0.3616(4)
C13A C 0.4599(5) -0.4711(4) -0.3253(4)
H7A H 0.4941 -0.5242 -0.2958
C14A C 0.5692(5) -0.3688(4) -0.3333(3)
H8A H 0.6776 -0.3520 -0.3078
C15A C 0.3479(4) 0.0440(3) 0.7443(3)
C16A C 0.4759(4) 0.0767(4) 0.8523(4)
H9A H 0.5747 0.0765 0.8422
C17A C 0.4484(5) 0.1083(5) 0.9714(4)
H10A H 0.5326 0.1360 1.0459
C18A C 0.2976(5) 0.1008(5) 0.9866(4)
H11A H 0.2843 0.1203 1.0698
C19A C 0.1684(5) 0.0655(5) 0.8822(4)
H12A H 0.0678 0.0591 0.8912
C20A C 0.2005(4) 0.0398(4) 0.7604(3)
loop_
_geom_bond_atom_site_label_1
_geom_bond_atom_site_label_2
_geom_bond_site_symmetry_1
_geom_bond_site_symmetry_2
Co1 N1 1_555 1_555
Co2 N2 1_555 1_555
N1 N2 1_555 1_555
N2 N3 1_555 1_555
N3 C20 1_555 1_555
O1 Co1 1_555 1_555
O2 Co2 1_555 1_555
O3 C8 1_555 1_555
O4 C8 1_555 1_555
O5 S1 1_555 1_555
O6 S1 1_555 1_555
S1 C5 1_555 1_555
C1 O1 1_555 1_555
C2 C1 1_555 1_555
C3 C2 1_555 1_555
H1 C3 1_555 1_555
C4 C3 1_555 1_555
H2 C4 1_555 1_555
C5 C4 1_555 1_555
C6 C5 1_555 1_555
H3 C6 1_555 1_555
C7 C2 1_555 1_555
H4 C7 1_555 1_555
C8 C9 1_555 1_555
C9 C10 1_555 1_555
C10 H5 1_555 1_555
C11 C10 1_555 1_555
H6 C11 1_555 1_555
C12 S1 1_555 1_555
C13 C12 1_555 1_555
H7 C13 1_555 1_555
C14 C9 1_555 1_555
H8 C14 1_555 1_555
C15 N1 1_555 1_555
C16 C15 1_555 1_555
H9 C16 1_555 1_555
C17 C16 1_555 1_555
H10 C17 1_555 1_555
C18 C17 1_555 1_555
H11 C18 1_555 1_555
C19 C18 1_555 1_555
H12 C19 1_555 1_555
C20 C15 1_555 1_555
Co1_2 O4 1_555 1_555
Co1_3 O4A 1_555 1_555
Co2A N2A 1_555 1_555
Co2A_2 N3 1_555 1_555
Co2A_3 O3 1_555 1_555
Co2_2 N3A 1_555 1_555
Co2_3 O3A 1_555 1_555
N1A Co1 1_555 1_555
N2A N1A 1_555 1_555
N3A N2A 1_555 1_555
N3A_2 Co2 1_555 1_555
N3_2 Co2A 1_555 1_555
O1A Co1 1_555 1_555
O2A Co2A 1_555 1_555
O3A C8A 1_555 1_555
O3A_2 Co2 1_555 1_555
O3_2 Co2A 1_555 1_555
O4A C8A 1_555 1_555
O4_2 Co1 1_555 1_555
O4A_2 Co1 1_555 1_555
O5A S1A 1_555 1_555
O6A S1A 1_555 1_555
S1A C5A 1_555 1_555
C1A O1A 1_555 1_555
C2A C1A 1_555 1_555
C3A C2A 1_555 1_555
H1A C3A 1_555 1_555
C4A C3A 1_555 1_555
H2A C4A 1_555 1_555
C5A C4A 1_555 1_555
C6A C5A 1_555 1_555
H3A C6A 1_555 1_555
C7A C2A 1_555 1_555
H4A C7A 1_555 1_555
C8A C9A 1_555 1_555
C9A C10A 1_555 1_555
C10A H5A 1_555 1_555
C11A C10A 1_555 1_555
H6A C11A 1_555 1_555
C12A S1A 1_555 1_555
C13A C12A 1_555 1_555
H7A C13A 1_555 1_555
C14A C9A 1_555 1_555
H8A C14A 1_555 1_555
C15A N1A 1_555 1_555
C16A C15A 1_555 1_555
H9A C16A 1_555 1_555
C17A C16A 1_555 1_555
H10A C17A 1_555 1_555
C18A C17A 1_555 1_555
H11A C18A 1_555 1_555
C19A C18A 1_555 1_555
H12A C19A 1_555 1_555
C20A N3A 1_555 1_555
O2 C1 1_555 1_555
C6 C7 1_555 1_555
C11 C12 1_555 1_555
C13 C14 1_555 1_555
C19 C20 1_555 1_555
O2A C1A 1_555 1_555
C6A C7A 1_555 1_555
C11A C12A 1_555 1_555
C13A C14A 1_555 1_555
C15A C20A 1_555 1_555
C19A C20A 1_555 1_555

#END
