
#######################################################################
#
#                 Cambridge Crystallographic Data Centre
#                                CCDC 
#
#######################################################################
#
# If this CIF has been generated from an entry in the Cambridge 
# Structural Database, then it will include bibliographic, chemical, 
# crystal, experimental, refinement or atomic coordinate data resulting 
# from the CCDC's data processing and validation procedures.
#
#######################################################################

data_BULZAK
_symmetry_cell_setting           monoclinic
_symmetry_space_group_name_H-M   'C 2/c'
_symmetry_Int_Tables_number      15
_space_group_name_Hall           '-C 2yn'
loop_
_symmetry_equiv_pos_site_id
_symmetry_equiv_pos_as_xyz
1 x,y,z
2 -x,y,1/2-z
3 1/2+x,1/2+y,z
4 1/2-x,1/2+y,1/2-z
5 -x,-y,-z
6 x,-y,1/2+z
7 1/2-x,1/2-y,-z
8 1/2+x,1/2-y,1/2+z
_cell_length_a                   31.5113(8)
_cell_length_b                   7.8916(2)
_cell_length_c                   14.9198(4)
_cell_angle_alpha                90
_cell_angle_beta                 118.001(2)
_cell_angle_gamma                90
_cell_volume                     3275.86
loop_
_atom_site_label
_atom_site_type_symbol
_atom_site_fract_x
_atom_site_fract_y
_atom_site_fract_z
Cd1 Cd 0.2500 0.7500 0.5000
Cd2 Cd 0.5000 0.62877(6) 0.2500
Cl1 Cl 0.57978(4) 0.49954(17) 0.30464(9)
O1 O 0.21246(12) 0.4956(5) 0.4101(3)
O2 O 0.21699(17) 0.2544(5) 0.3475(4)
O3 O 0.28203(13) 0.3927(5) 0.4447(3)
O4 O 0.5000 0.9174(7) 0.2500
H1 H 0.5074(18) 0.967(6) 0.208(3)
N1 N 0.61323(13) 0.8481(5) 0.6460(3)
N2 N 0.60846(15) 1.0045(6) 0.7704(3)
H2 H 0.5932(17) 1.047(9) 0.801(4)
H3 H 0.6393(8) 1.027(8) 0.800(4)
N3 N 0.53749(13) 0.8967(5) 0.6460(3)
N4 N 0.61974(15) 0.7106(6) 0.5167(4)
H4 H 0.6507(8) 0.716(7) 0.553(3)
H5 H 0.6097(16) 0.647(7) 0.462(3)
N5 N 0.50809(13) 0.6693(5) 0.4172(3)
N6 N 0.47059(14) 0.7699(5) 0.5018(3)
N7 N 0.29727(13) 0.7780(5) 0.4206(3)
H6 H 0.295(2) 0.682(5) 0.387(5)
N8 N 0.19804(14) 0.8843(5) 0.3484(3)
H7 H 0.1680(9) 0.846(5) 0.314(3)
H8 H 0.1976(17) 0.989(4) 0.368(5)
N9 N 0.23765(15) 0.3782(5) 0.4012(3)
C1 C 0.58527(16) 0.9121(6) 0.6846(3)
C2 C 0.51827(15) 0.8088(6) 0.5592(3)
C3 C 0.54148(17) 0.7458(5) 0.5079(3)
C4 C 0.59182(17) 0.7662(6) 0.5567(4)
C5 C 0.46677(16) 0.6871(6) 0.4186(4)
H9 H 0.4371 0.6457 0.3664
C6 C 0.43344(16) 0.8103(6) 0.5307(3)
H10 H 0.4344 0.9334 0.5442
H11 H 0.4407 0.7499 0.5945
C7 C 0.38298(16) 0.7625(6) 0.4502(4)
H12 H 0.3813 0.6398 0.4350
H13 H 0.3743 0.8262 0.3868
C8 C 0.34849(16) 0.8069(7) 0.4926(4)
H14 H 0.3571 0.7383 0.5543
H15 H 0.3530 0.9276 0.5130
C9 C 0.27526(17) 0.9158(7) 0.3455(4)
H16 H 0.2903 0.9202 0.3003
H17 H 0.2808 1.0259 0.3810
C10 C 0.22160(17) 0.8845(7) 0.2829(4)
H18 H 0.2072 0.9740 0.2307
H19 H 0.2162 0.7740 0.2477
Cd1A Cd 0.7500 0.7500 0.0000
Cl1A Cl 0.42022(4) 0.49954(17) 0.19536(9)
O1F O 0.28754(12) 1.0044(5) 0.5899(3)
O2F O 0.28301(17) 1.2456(5) 0.6525(4)
O3F O 0.21797(13) 1.1073(5) 0.5553(3)
H1A H 0.4926(18) 0.967(6) 0.292(3)
N1A N 0.38677(13) 0.8481(5) -0.1460(3)
N2A N 0.39154(15) 1.0045(6) -0.2704(3)
H2A H 0.4068(17) 1.047(9) -0.301(4)
H3A H 0.3607(8) 1.027(8) -0.300(4)
N3A N 0.46251(13) 0.8967(5) -0.1460(3)
N4A N 0.38026(15) 0.7106(6) -0.0167(4)
H4A H 0.3493(8) 0.716(7) -0.053(3)
H5A H 0.3903(16) 0.647(7) 0.038(3)
N5A N 0.49191(13) 0.6693(5) 0.0828(3)
N6A N 0.52941(14) 0.7699(5) -0.0018(3)
N7F N 0.20273(13) 0.7220(5) 0.5794(3)
N7A N 0.70273(13) 0.7780(5) 0.0794(3)
H6F H 0.205(2) 0.818(5) 0.613(5)
H6A H 0.705(2) 0.682(5) 0.113(5)
N8F N 0.30196(14) 0.6157(5) 0.6516(3)
N8A N 0.80196(14) 0.8843(5) 0.1516(3)
H7F H 0.3320(9) 0.654(5) 0.686(3)
H7A H 0.8320(9) 0.846(5) 0.186(3)
H8F H 0.3024(17) 0.511(4) 0.632(5)
H8A H 0.8024(17) 0.989(4) 0.132(5)
N9F N 0.26235(15) 1.1218(5) 0.5988(3)
C1A C 0.41473(16) 0.9121(6) -0.1846(3)
C2A C 0.48173(15) 0.8088(6) -0.0592(3)
C3A C 0.45852(17) 0.7458(5) -0.0079(3)
C4A C 0.40818(17) 0.7662(6) -0.0567(4)
C5A C 0.53323(16) 0.6871(6) 0.0814(4)
H9A H 0.5629 0.6457 0.1336
C6A C 0.56656(16) 0.8103(6) -0.0307(3)
H10A H 0.5656 0.9334 -0.0442
H11A H 0.5593 0.7499 -0.0945
C7A C 0.61702(16) 0.7625(6) 0.0498(4)
H12A H 0.6187 0.6398 0.0650
H13A H 0.6257 0.8262 0.1132
C8A C 0.65151(16) 0.8069(7) 0.0074(4)
H14A H 0.6429 0.7383 -0.0543
H15A H 0.6470 0.9276 -0.0130
C9A C 0.72474(17) 0.9158(7) 0.1545(4)
H16A H 0.7097 0.9202 0.1997
H17A H 0.7192 1.0259 0.1190
C10A C 0.77840(17) 0.8845(7) 0.2171(4)
H18A H 0.7928 0.9740 0.2693
H19A H 0.7838 0.7740 0.2523
loop_
_geom_bond_atom_site_label_1
_geom_bond_atom_site_label_2
_geom_bond_site_symmetry_1
_geom_bond_site_symmetry_2
Cd1 O1 1_555 1_555
Cd2 Cl1 1_555 1_555
O1 N9 1_555 1_555
O2 N9 1_555 1_555
O3 N9 1_555 1_555
O4 Cd2 1_555 1_555
H1 O4 1_555 1_555
N1 C1 1_555 1_555
N2 H2 1_555 1_555
H3 N2 1_555 1_555
N3 C1 1_555 1_555
N4 H4 1_555 1_555
H5 N4 1_555 1_555
N5 Cd2 1_555 1_555
N6 C2 1_555 1_555
N7 Cd1 1_555 1_555
H6 N7 1_555 1_555
N8 Cd1 1_555 1_555
H7 N8 1_555 1_555
H8 N8 1_555 1_555
C1 N2 1_555 1_555
C2 N3 1_555 1_555
C3 N5 1_555 1_555
C4 N1 1_555 1_555
C5 N5 1_555 1_555
H9 C5 1_555 1_555
C6 N6 1_555 1_555
H10 C6 1_555 1_555
H11 C6 1_555 1_555
C7 C6 1_555 1_555
H12 C7 1_555 1_555
H13 C7 1_555 1_555
C8 N7 1_555 1_555
H14 C8 1_555 1_555
H15 C8 1_555 1_555
C9 N7 1_555 1_555
H16 C9 1_555 1_555
H17 C9 1_555 1_555
C10 N8 1_555 1_555
H18 C10 1_555 1_555
H19 C10 1_555 1_555
Cd1A N7A 1_555 1_555
Cl1A Cd2 1_555 1_555
O1F Cd1 1_555 1_555
O2F N9F 1_555 1_555
O3F N9F 1_555 1_555
H1A O4 1_555 1_555
N1A C1A 1_555 1_555
N2A H2A 1_555 1_555
H3A N2A 1_555 1_555
N3A C1A 1_555 1_555
N4A H4A 1_555 1_555
H5A N4A 1_555 1_555
N5A Cd2 1_555 1_555
N6A C2A 1_555 1_555
N7F Cd1 1_555 1_555
N7A H6A 1_555 1_555
H6F N7F 1_555 1_555
N8F Cd1 1_555 1_555
N8A Cd1A 1_555 1_555
H7F N8F 1_555 1_555
H7A N8A 1_555 1_555
H8F N8F 1_555 1_555
H8A N8A 1_555 1_555
N9F O1F 1_555 1_555
C1A N2A 1_555 1_555
C2A N3A 1_555 1_555
C3A N5A 1_555 1_555
C4A N1A 1_555 1_555
C5A N5A 1_555 1_555
H9A C5A 1_555 1_555
C6A N6A 1_555 1_555
H10A C6A 1_555 1_555
H11A C6A 1_555 1_555
C7A C6A 1_555 1_555
H12A C7A 1_555 1_555
H13A C7A 1_555 1_555
C8A N7A 1_555 1_555
H14A C8A 1_555 1_555
H15A C8A 1_555 1_555
C9A N7A 1_555 1_555
H16A C9A 1_555 1_555
H17A C9A 1_555 1_555
C10A N8A 1_555 1_555
H18A C10A 1_555 1_555
H19A C10A 1_555 1_555
N4 C4 1_555 1_555
N6 C5 1_555 1_555
C2 C3 1_555 1_555
C3 C4 1_555 1_555
C7 C8 1_555 1_555
C9 C10 1_555 1_555
N4A C4A 1_555 1_555
N6A C5A 1_555 1_555
C2A C3A 1_555 1_555
C3A C4A 1_555 1_555
C7A C8A 1_555 1_555
C9A C10A 1_555 1_555

#END
