
#######################################################################
#
#                 Cambridge Crystallographic Data Centre
#                                CCDC 
#
#######################################################################
#
# If this CIF has been generated from an entry in the Cambridge 
# Structural Database, then it will include bibliographic, chemical, 
# crystal, experimental, refinement or atomic coordinate data resulting 
# from the CCDC's data processing and validation procedures.
#
#######################################################################

data_BUNDAR
_symmetry_cell_setting           monoclinic
_symmetry_space_group_name_H-M   'C 2/c'
_symmetry_Int_Tables_number      15
_space_group_name_Hall           '-C 2yn'
loop_
_symmetry_equiv_pos_site_id
_symmetry_equiv_pos_as_xyz
1 x,y,z
2 -x,y,1/2-z
3 1/2+x,1/2+y,z
4 1/2-x,1/2+y,1/2-z
5 -x,-y,-z
6 x,-y,1/2+z
7 1/2-x,1/2-y,-z
8 1/2+x,1/2-y,1/2+z
_cell_length_a                   12.0290(3)
_cell_length_b                   19.8230(5)
_cell_length_c                   18.9490(5)
_cell_angle_alpha                90
_cell_angle_beta                 91.619(2)
_cell_angle_gamma                90
_cell_volume                     4516.6
loop_
_atom_site_label
_atom_site_type_symbol
_atom_site_fract_x
_atom_site_fract_y
_atom_site_fract_z
Ag1 Ag 0.90914(2) 0.334484(13) 0.856268(13)
O1 O 0.49860(18) 0.47936(12) 0.88389(13)
N1 N 0.7178(2) 0.33366(13) 0.86690(14)
O2 O 0.95299(19) 0.20609(12) 0.79826(13)
O3 O 1.0000 0.30082(16) 0.7500
N2 N 1.0000 0.23631(19) 0.7500
C1 C 0.3282(2) 0.26614(17) 1.08463(16)
C2 C 0.6141(3) 0.15349(16) 0.96295(18)
H1 H 0.5914 0.1127 0.9846
C3 C 0.6826(3) 0.15195(16) 0.90562(18)
H2 H 0.7058 0.1097 0.8876
N3 N 0.5025(2) 0.21667(13) 1.04541(14)
C4 C 0.5786(2) 0.21541(16) 0.98856(16)
O4 O 0.29140(18) 0.36750(12) 1.02441(13)
C5 C 0.1611(3) 0.32849(18) 1.11189(19)
H3 H 0.1129 0.3659 1.1042
O5 O 1.0143(2) 0.43637(13) 0.82331(17)
C6 C 0.4203(2) 0.25743(16) 1.03671(17)
H4 H 0.4192 0.2844 0.9953
C7 C 0.7489(3) 0.45927(18) 0.78296(18)
H5 H 0.7990 0.4243 0.7710
C8 C 0.5997(3) 0.56156(17) 0.81456(18)
H6 H 0.5486 0.5966 0.8244
C9 C 0.2579(3) 0.32176(17) 1.07317(17)
C10 C 0.6824(2) 0.27287(16) 0.89998(17)
C11 C 0.6426(3) 0.37843(16) 0.85710(17)
H7 H 0.5694 0.3674 0.8708
C12 C 0.5838(2) 0.49704(17) 0.84127(17)
C13 C 0.3013(3) 0.21842(19) 1.13515(17)
H8 H 0.3487 0.1807 1.1434
C14 C 0.4261(3) 0.53311(18) 0.9070(2)
H9 H 0.3797 0.5501 0.8669
H10 H 0.4705 0.5710 0.9268
C15 C 0.6143(2) 0.27491(16) 0.95817(17)
H11 H 0.5923 0.3171 0.9770
C16 C 0.6597(3) 0.44511(17) 0.82666(17)
C17 C 0.3539(3) 0.50312(19) 0.9628(2)
H12 H 0.3140 0.5402 0.9863
H13 H 0.4024 0.4809 0.9989
C18 C 0.6901(3) 0.57412(18) 0.77375(19)
H14 H 0.7019 0.6185 0.7565
C19 C 0.7181(3) 0.21102(16) 0.87394(18)
H15 H 0.7661 0.2093 0.8350
C20 C 0.7645(3) 0.52329(18) 0.75730(19)
H16 H 0.8259 0.5328 0.7284
C21 C 0.1367(3) 0.2804(2) 1.16107(19)
H17 H 0.0709 0.2848 1.1872
N4 N 0.9914(3) 0.4860(2) 0.8643(2)
C22 C 0.2691(3) 0.45215(19) 0.9353(2)
H18 H 0.3068 0.4185 0.9056
H19 H 0.2125 0.4756 0.9054
C23 C 0.2119(3) 0.41590(19) 0.9952(2)
H20 H 0.1442 0.3925 0.9771
H21 H 0.1901 0.4485 1.0318
C24 C 0.2055(3) 0.2257(2) 1.17362(18)
H22 H 0.1873 0.1932 1.2083
O6 O 1.0125(5) 0.5408(3) 0.8457(3)
O7 O 0.9566(5) 0.4670(3) 0.9165(3)
O2A O 1.04701(19) 0.20609(12) 0.70174(13)
Ag1A Ag 1.09086(2) 0.334484(13) 0.643732(13)
O1A O 1.50140(18) 0.47936(12) 0.61611(13)
N1A N 1.2822(2) 0.33366(13) 0.63310(14)
C1A C 1.6718(2) 0.26614(17) 0.41537(16)
C2A C 1.3859(3) 0.15349(16) 0.53705(18)
H1A H 1.4086 0.1127 0.5154
C3A C 1.3174(3) 0.15195(16) 0.59438(18)
H2A H 1.2942 0.1097 0.6124
N3A N 1.4975(2) 0.21667(13) 0.45459(14)
C4A C 1.4214(2) 0.21541(16) 0.51144(16)
O4A O 1.70860(18) 0.36750(12) 0.47559(13)
C5A C 1.8389(3) 0.32849(18) 0.38811(19)
H3A H 1.8871 0.3659 0.3958
O5A O 0.9857(2) 0.43637(13) 0.67669(17)
C6A C 1.5797(2) 0.25743(16) 0.46329(17)
H4A H 1.5808 0.2844 0.5047
C7A C 1.2511(3) 0.45927(18) 0.71704(18)
H5A H 1.2010 0.4243 0.7290
C8A C 1.4003(3) 0.56156(17) 0.68544(18)
H6A H 1.4514 0.5966 0.6756
C9A C 1.7421(3) 0.32176(17) 0.42683(17)
C10A C 1.3176(2) 0.27287(16) 0.60002(17)
C11A C 1.3574(3) 0.37843(16) 0.64290(17)
H7A H 1.4306 0.3674 0.6292
C12A C 1.4162(2) 0.49704(17) 0.65873(17)
C13A C 1.6987(3) 0.21842(19) 0.36485(17)
H8A H 1.6513 0.1807 0.3566
C14A C 1.5739(3) 0.53311(18) 0.5930(2)
H9A H 1.6203 0.5501 0.6331
H10A H 1.5295 0.5710 0.5732
C15A C 1.3857(2) 0.27491(16) 0.54183(17)
H11A H 1.4077 0.3171 0.5230
C16A C 1.3403(3) 0.44511(17) 0.67334(17)
C17A C 1.6461(3) 0.50312(19) 0.5372(2)
H12A H 1.6860 0.5402 0.5137
H13A H 1.5976 0.4809 0.5011
C18A C 1.3099(3) 0.57412(18) 0.72625(19)
H14A H 1.2981 0.6185 0.7435
C19A C 1.2819(3) 0.21102(16) 0.62606(18)
H15A H 1.2339 0.2093 0.6650
C20A C 1.2355(3) 0.52329(18) 0.74270(19)
H16A H 1.1741 0.5328 0.7716
C21A C 1.8633(3) 0.2804(2) 0.33893(19)
H17A H 1.9291 0.2848 0.3128
N4A N 1.0086(3) 0.4860(2) 0.6357(2)
C22A C 1.7309(3) 0.45215(19) 0.5647(2)
H18A H 1.6932 0.4185 0.5944
H19A H 1.7875 0.4756 0.5946
C23A C 1.7881(3) 0.41590(19) 0.5048(2)
H20A H 1.8558 0.3925 0.5229
H21A H 1.8099 0.4485 0.4682
C24A C 1.7945(3) 0.2257(2) 0.32638(18)
H22A H 1.8127 0.1932 0.2917
O6A O 0.9875(5) 0.5408(3) 0.6543(3)
O7A O 1.0434(5) 0.4670(3) 0.5835(3)
Ag1F Ag 0.59086(2) 0.165516(13) 1.143732(13)
Ag1G Ag 1.40914(2) 0.165516(13) 0.356268(13)
N3F N 0.9975(2) 0.28333(13) 0.95459(14)
N3G N 1.0025(2) 0.28333(13) 0.54541(14)
loop_
_geom_bond_atom_site_label_1
_geom_bond_atom_site_label_2
_geom_bond_site_symmetry_1
_geom_bond_site_symmetry_2
Ag1 N1 1_555 1_555
O1 C12 1_555 1_555
N1 C10 1_555 1_555
O2 N2 1_555 1_555
O3 Ag1 1_555 1_555
N2 O3 1_555 1_555
C1 C6 1_555 1_555
C2 H1 1_555 1_555
C3 C2 1_555 1_555
H2 C3 1_555 1_555
N3 C4 1_555 1_555
C4 C2 1_555 1_555
O4 C9 1_555 1_555
C5 H3 1_555 1_555
O5 Ag1 1_555 1_555
C6 N3 1_555 1_555
H4 C6 1_555 1_555
C7 H5 1_555 1_555
C8 H6 1_555 1_555
C9 C1 1_555 1_555
C10 C15 1_555 1_555
C11 N1 1_555 1_555
H7 C11 1_555 1_555
C12 C8 1_555 1_555
C13 C1 1_555 1_555
H8 C13 1_555 1_555
C14 O1 1_555 1_555
H9 C14 1_555 1_555
H10 C14 1_555 1_555
C15 C4 1_555 1_555
H11 C15 1_555 1_555
C16 C7 1_555 1_555
C17 C14 1_555 1_555
H12 C17 1_555 1_555
H13 C17 1_555 1_555
C18 C8 1_555 1_555
H14 C18 1_555 1_555
C19 C3 1_555 1_555
H15 C19 1_555 1_555
C20 C7 1_555 1_555
H16 C20 1_555 1_555
C21 C5 1_555 1_555
H17 C21 1_555 1_555
N4 O5 1_555 1_555
C22 C17 1_555 1_555
H18 C22 1_555 1_555
H19 C22 1_555 1_555
C23 O4 1_555 1_555
H20 C23 1_555 1_555
H21 C23 1_555 1_555
C24 C13 1_555 1_555
H22 C24 1_555 1_555
O6 N4 1_555 1_555
O7 N4 1_555 1_555
O2A N2 1_555 1_555
Ag1A O3 1_555 1_555
O1A C12A 1_555 1_555
N1A Ag1A 1_555 1_555
C1A C6A 1_555 1_555
C2A H1A 1_555 1_555
C3A C2A 1_555 1_555
H2A C3A 1_555 1_555
N3A C4A 1_555 1_555
C4A C2A 1_555 1_555
O4A C9A 1_555 1_555
C5A H3A 1_555 1_555
O5A Ag1A 1_555 1_555
C6A N3A 1_555 1_555
H4A C6A 1_555 1_555
C7A H5A 1_555 1_555
C8A H6A 1_555 1_555
C9A C1A 1_555 1_555
C10A N1A 1_555 1_555
C11A N1A 1_555 1_555
H7A C11A 1_555 1_555
C12A C8A 1_555 1_555
C13A C1A 1_555 1_555
H8A C13A 1_555 1_555
C14A O1A 1_555 1_555
H9A C14A 1_555 1_555
H10A C14A 1_555 1_555
C15A C4A 1_555 1_555
H11A C15A 1_555 1_555
C16A C7A 1_555 1_555
C17A C14A 1_555 1_555
H12A C17A 1_555 1_555
H13A C17A 1_555 1_555
C18A C8A 1_555 1_555
H14A C18A 1_555 1_555
C19A C3A 1_555 1_555
H15A C19A 1_555 1_555
C20A C7A 1_555 1_555
H16A C20A 1_555 1_555
C21A C5A 1_555 1_555
H17A C21A 1_555 1_555
N4A O5A 1_555 1_555
C22A C17A 1_555 1_555
H18A C22A 1_555 1_555
H19A C22A 1_555 1_555
C23A O4A 1_555 1_555
H20A C23A 1_555 1_555
H21A C23A 1_555 1_555
C24A C13A 1_555 1_555
H22A C24A 1_555 1_555
O6A N4A 1_555 1_555
O7A N4A 1_555 1_555
Ag1F N3 1_555 1_555
Ag1G N3A 1_555 1_555
N3F Ag1 1_555 1_555
N3G Ag1A 1_555 1_555
C5 C9 1_555 1_555
C10 C19 1_555 1_555
C11 C16 1_555 1_555
C12 C16 1_555 1_555
C18 C20 1_555 1_555
C21 C24 1_555 1_555
C22 C23 1_555 1_555
C5A C9A 1_555 1_555
C10A C15A 1_555 1_555
C10A C19A 1_555 1_555
C11A C16A 1_555 1_555
C12A C16A 1_555 1_555
C18A C20A 1_555 1_555
C21A C24A 1_555 1_555
C22A C23A 1_555 1_555

#END
