
#######################################################################
#
#                 Cambridge Crystallographic Data Centre
#                                CCDC 
#
#######################################################################
#
# If this CIF has been generated from an entry in the Cambridge 
# Structural Database, then it will include bibliographic, chemical, 
# crystal, experimental, refinement or atomic coordinate data resulting 
# from the CCDC's data processing and validation procedures.
#
#######################################################################

data_BUNFOG
_symmetry_cell_setting           triclinic
_symmetry_space_group_name_H-M   'P -1'
_symmetry_Int_Tables_number      2
_space_group_name_Hall           '-P 1'
loop_
_symmetry_equiv_pos_site_id
_symmetry_equiv_pos_as_xyz
1 x,y,z
2 -x,-y,-z
_cell_length_a                   11.0791(3)
_cell_length_b                   11.5355(3)
_cell_length_c                   18.5119(5)
_cell_angle_alpha                92.2820(10)
_cell_angle_beta                 103.3360(10)
_cell_angle_gamma                95.9060(10)
_cell_volume                     2284.92
loop_
_atom_site_label
_atom_site_type_symbol
_atom_site_fract_x
_atom_site_fract_y
_atom_site_fract_z
Ag1 Ag 0.5000 0.5000 0.5000
Cl1 Cl 0.74282(6) 0.30768(5) 0.44814(4)
O1 O 0.68689(19) 0.41320(18) 0.43135(15)
N1 N 0.35783(18) 0.38000(17) 0.42870(11)
C1 C 0.3844(2) 0.3212(2) 0.37154(14)
H1 H 0.4655 0.3367 0.3628
Ag2 Ag -1.0000 -0.5000 0.0000
Cl2 Cl -0.74436(6) -0.67761(6) -0.09696(4)
O2 O 0.6489(3) 0.21137(19) 0.42197(16)
N2 N -0.02392(18) 0.09943(16) 0.30288(11)
C2 C 0.2993(2) 0.2389(2) 0.32459(13)
H2 H 0.3220 0.1998 0.2844
O3 O 0.7869(2) 0.3027(3) 0.52660(13)
N3 N -0.08245(18) 0.01703(17) 0.24912(11)
C3 C 0.1800(2) 0.21379(19) 0.33678(12)
O4 O 0.8439(3) 0.3033(3) 0.41325(15)
N4 N -0.42333(18) -0.00457(17) 0.23890(11)
C4 C 0.1517(2) 0.2766(2) 0.39571(13)
H3 H 0.0710 0.2635 0.4055
O5 O -0.8115(2) -0.5820(2) -0.08388(15)
N5 N -0.48316(18) -0.08787(17) 0.18594(11)
C5 C 0.2412(2) 0.3575(2) 0.43940(13)
H4 H 0.2202 0.3996 0.4790
O6 O -0.6312(3) -0.6682(3) -0.0416(2)
N6 N -0.85618(19) -0.38500(18) 0.07202(12)
C6 C 0.0895(2) 0.12526(19) 0.28933(12)
O7 O -0.8147(3) -0.7862(2) -0.09258(15)
C7 C 0.1026(2) 0.0583(2) 0.22694(13)
H5 H 0.1736 0.0599 0.2062
O8 O -0.7135(3) -0.6742(2) -0.16690(16)
C8 C -0.0097(2) -0.0098(2) 0.20271(13)
H6 H -0.0322 -0.0654 0.1612
C9 C -0.2075(2) -0.0364(2) 0.24857(14)
H7 H -0.2069 -0.0710 0.2967
H8 H -0.2332 -0.1001 0.2088
C10 C -0.3014(2) 0.0525(2) 0.23562(15)
H9 H -0.2748 0.1179 0.2742
H10 H -0.3059 0.0844 0.1863
C11 C -0.4877(2) 0.0121(2) 0.29162(14)
H11 H -0.4626 0.0656 0.3341
C12 C -0.5958(2) -0.0627(2) 0.27208(13)
H12 H -0.6611 -0.0716 0.2975
C13 C -0.5889(2) -0.1238(2) 0.20572(13)
C14 C -0.6784(2) -0.2157(2) 0.16055(13)
C15 C -0.6496(2) -0.2817(2) 0.10311(13)
H13 H -0.5690 -0.2698 0.0933
C16 C -0.7398(2) -0.3643(2) 0.06093(14)
H14 H -0.7191 -0.4089 0.0222
C17 C -0.8824(2) -0.3243(2) 0.12855(14)
H15 H -0.9629 -0.3397 0.1381
C18 C -0.7973(2) -0.2403(2) 0.17349(14)
H16 H -0.8196 -0.1994 0.2131
Cl1A Cl 0.25718(6) 0.69232(5) 0.55186(4)
O1A O 0.31311(19) 0.58680(18) 0.56865(15)
N1A N 0.64217(18) 0.62000(17) 0.57130(11)
C1A C 0.6156(2) 0.6788(2) 0.62846(14)
H1A H 0.5345 0.6633 0.6372
Ag2_2 Ag 2.0000 1.5000 1.0000
Cl2A Cl -1.25564(6) -0.32239(6) 0.09696(4)
O2A O 0.3511(3) 0.78863(19) 0.57803(16)
N2A N 1.02392(18) 0.90057(16) 0.69712(11)
C2A C 0.7007(2) 0.7611(2) 0.67541(13)
H2A H 0.6780 0.8002 0.7156
O3A O 0.2131(2) 0.6973(3) 0.47340(13)
N3A N 1.08245(18) 0.98297(17) 0.75088(11)
C3A C 0.8200(2) 0.78621(19) 0.66322(12)
O4A O 0.1561(3) 0.6967(3) 0.58675(15)
N4A N 1.42333(18) 1.00457(17) 0.76110(11)
C4A C 0.8483(2) 0.7234(2) 0.60429(13)
H3A H 0.9290 0.7365 0.5945
O5A O -1.1885(2) -0.4180(2) 0.08388(15)
N5A N 1.48316(18) 1.08787(17) 0.81406(11)
C5A C 0.7588(2) 0.6425(2) 0.56060(13)
H4A H 0.7798 0.6004 0.5210
O6A O -1.3688(3) -0.3318(3) 0.0416(2)
N6A N 1.85618(19) 1.38500(18) 0.92798(12)
N6A_2 N -1.14382(19) -0.61500(18) -0.07202(12)
C6A C 0.9105(2) 0.87474(19) 0.71067(12)
O7A O -1.1853(3) -0.2138(2) 0.09258(15)
C7A C 0.8974(2) 0.9417(2) 0.77306(13)
H5A H 0.8264 0.9401 0.7938
O8A O -1.2865(3) -0.3258(2) 0.16690(16)
C8A C 1.0097(2) 1.0098(2) 0.79729(13)
H6A H 1.0322 1.0654 0.8388
C9A C 1.2075(2) 1.0364(2) 0.75143(14)
H7A H 1.2069 1.0710 0.7033
H8A H 1.2332 1.1001 0.7912
C10A C 1.3014(2) 0.9475(2) 0.76438(15)
H9A H 1.2748 0.8821 0.7258
H10A H 1.3059 0.9156 0.8137
C11A C 1.4877(2) 0.9879(2) 0.70838(14)
H11A H 1.4626 0.9344 0.6659
C12A C 1.5958(2) 1.0627(2) 0.72792(13)
H12A H 1.6611 1.0716 0.7025
C13A C 1.5889(2) 1.1238(2) 0.79428(13)
C14A C 1.6784(2) 1.2157(2) 0.83945(13)
C15A C 1.6496(2) 1.2817(2) 0.89689(13)
H13A H 1.5690 1.2698 0.9067
C16A C 1.7398(2) 1.3643(2) 0.93907(14)
H14A H 1.7191 1.4089 0.9778
C17A C 1.8824(2) 1.3243(2) 0.87145(14)
H15A H 1.9629 1.3397 0.8619
C18A C 1.7973(2) 1.2403(2) 0.82651(14)
H16A H 1.8196 1.1994 0.7869
Ag3 Ag 0.272305(17) 0.473760(16) 0.225441(11)
N7 N 0.13039(19) 0.35572(18) 0.15390(12)
N8 N -0.26639(18) 0.08629(17) 0.04640(11)
O9 O 0.0948(2) 0.5510(2) 0.28814(13)
N9 N -0.33409(18) 0.00289(17) -0.00387(11)
N10 N 0.41143(19) 0.59576(17) 0.29561(12)
N11 N 0.77608(18) 0.89298(17) 0.42807(11)
N12 N 0.82589(19) 0.97827(17) 0.48170(11)
N13 N -0.0261(2) 0.6314(2) 0.35450(12)
C19 C 0.1454(2) 0.2989(2) 0.09264(14)
H17 H 0.2233 0.3127 0.0793
C20 C 0.0520(2) 0.2207(2) 0.04778(13)
H18 H 0.0656 0.1837 0.0041
C21 C -0.0617(2) 0.19685(19) 0.06711(13)
C22 C -0.0777(2) 0.2584(2) 0.13023(14)
H19 H -0.1547 0.2467 0.1448
C23 C 0.0185(2) 0.3358(2) 0.17091(14)
H20 H 0.0056 0.3775 0.2133
C24 C -0.1596(2) 0.10995(19) 0.02473(12)
C25 C -0.1596(2) 0.0398(2) -0.03945(13)
H21 H -0.0950 0.0392 -0.0654
C26 C -0.2730(2) -0.0272(2) -0.05615(13)
H22 H -0.3031 -0.0839 -0.0966
C27 C -0.4560(2) -0.0469(2) 0.00339(14)
H23 H -0.4482 -0.0809 0.0523
H24 H -0.4903 -0.1102 -0.0359
C28 C 0.5226(2) 0.6330(2) 0.28183(14)
H25 H 0.5433 0.6008 0.2388
C29 C 0.6079(2) 0.7162(2) 0.32753(14)
H26 H 0.6853 0.7399 0.3157
C30 C 0.5802(2) 0.7655(2) 0.39115(13)
C31 C 0.4648(2) 0.7260(2) 0.40476(14)
H27 H 0.4417 0.7564 0.4474
C32 C 0.3840(2) 0.6430(2) 0.35667(14)
H28 H 0.3057 0.6182 0.3670
C33 C 0.6644(2) 0.8566(2) 0.44052(13)
C34 C 0.6440(2) 0.9186(2) 0.50275(14)
H29 H 0.5728 0.9091 0.5233
C35 C 0.7493(2) 0.9956(2) 0.52705(15)
H30 H 0.7656 1.0512 0.5684
C36 C 0.9494(2) 1.0386(2) 0.48492(14)
H31 H 0.9626 1.1113 0.5174
H32 H 0.9550 1.0602 0.4345
C37 C 0.0309(3) 0.5453(2) 0.33417(18)
H33 H 0.0219 0.4735 0.3568
C38 C -0.0874(3) 0.6219(3) 0.41553(16)
H34 H -0.0404 0.6746 0.4577
H35 H -0.1724 0.6434 0.3996
H36 H -0.0909 0.5414 0.4305
C39 C -0.0098(3) 0.7441(3) 0.3235(2)
H37 H -0.0359 0.7345 0.2691
H38 H -0.0607 0.7976 0.3420
H39 H 0.0783 0.7763 0.3385
Ag3A Ag -1.272305(17) -0.473760(16) -0.225441(11)
Ag3A_2 Ag 1.727695(17) 1.526240(16) 0.774559(11)
N7A N -1.13039(19) -0.35572(18) -0.15390(12)
N8A N -0.73361(18) -0.08629(17) -0.04640(11)
O9A O -1.0948(2) -0.5510(2) -0.28814(13)
N9A N -0.66591(18) -0.00289(17) 0.00387(11)
N10A N 1.58857(19) 1.40424(17) 0.70439(12)
N10A_2 N -1.41143(19) -0.59576(17) -0.29561(12)
N11A N 1.22392(18) 1.10702(17) 0.57193(11)
N12A N 1.17411(19) 1.02173(17) 0.51830(11)
N13A N -0.9739(2) -0.6314(2) -0.35450(12)
C19A C -1.1454(2) -0.2989(2) -0.09264(14)
H17A H -1.2233 -0.3127 -0.0793
C20A C -1.0520(2) -0.2207(2) -0.04778(13)
H18A H -1.0656 -0.1837 -0.0041
C21A C -0.9383(2) -0.19685(19) -0.06711(13)
C22A C -0.9223(2) -0.2584(2) -0.13023(14)
H19A H -0.8453 -0.2467 -0.1448
C23A C -1.0185(2) -0.3358(2) -0.17091(14)
H20A H -1.0056 -0.3775 -0.2133
C24A C -0.8404(2) -0.10995(19) -0.02473(12)
C25A C -0.8404(2) -0.0398(2) 0.03945(13)
H21A H -0.9050 -0.0392 0.0654
C26A C -0.7270(2) 0.0272(2) 0.05615(13)
H22A H -0.6969 0.0839 0.0966
C27A C -0.5440(2) 0.0469(2) -0.00339(14)
H23A H -0.5518 0.0809 -0.0523
H24A H -0.5097 0.1102 0.0359
C28A C 1.4774(2) 1.3670(2) 0.71817(14)
H25A H 1.4567 1.3992 0.7612
C29A C 1.3921(2) 1.2838(2) 0.67247(14)
H26A H 1.3147 1.2601 0.6843
C30A C 1.4198(2) 1.2345(2) 0.60885(13)
C31A C 1.5352(2) 1.2740(2) 0.59524(14)
H27A H 1.5583 1.2436 0.5526
C32A C 1.6160(2) 1.3570(2) 0.64333(14)
H28A H 1.6943 1.3818 0.6330
C33A C 1.3356(2) 1.1434(2) 0.55948(13)
C34A C 1.3560(2) 1.0814(2) 0.49725(14)
H29A H 1.4272 1.0909 0.4767
C35A C 1.2507(2) 1.0044(2) 0.47295(15)
H30A H 1.2344 0.9488 0.4316
C36A C 1.0506(2) 0.9614(2) 0.51508(14)
H31A H 1.0374 0.8887 0.4826
H32A H 1.0450 0.9398 0.5655
C37A C -1.0309(3) -0.5453(2) -0.33417(18)
H33A H -1.0219 -0.4735 -0.3568
C38A C -0.9126(3) -0.6219(3) -0.41553(16)
H34A H -0.9596 -0.6746 -0.4577
H35A H -0.8276 -0.6434 -0.3996
H36A H -0.9091 -0.5414 -0.4305
C39A C -0.9902(3) -0.7441(3) -0.3235(2)
H37A H -0.9641 -0.7345 -0.2691
H38A H -0.9393 -0.7976 -0.3420
H39A H -1.0783 -0.7763 -0.3385
O10 O 0.4245(2) 0.2406(2) 0.18072(13)
N14 N 0.6057(2) 0.3571(2) 0.18951(14)
C40 C 0.5239(3) 0.2885(3) 0.21563(17)
H40 H 0.5461 0.2759 0.2672
C41 C 0.5779(4) 0.3750(5) 0.1110(2)
H41 H 0.5266 0.3059 0.0834
H42 H 0.6560 0.3879 0.0946
H43 H 0.5323 0.4434 0.1016
C42 C 0.7239(3) 0.4085(3) 0.23698(18)
H44 H 0.7222 0.4000 0.2892
H45 H 0.7375 0.4915 0.2283
H46 H 0.7917 0.3686 0.2255
loop_
_geom_bond_atom_site_label_1
_geom_bond_atom_site_label_2
_geom_bond_site_symmetry_1
_geom_bond_site_symmetry_2
Ag1 O1 1_555 1_555
Cl1 O1 1_555 1_555
N1 Ag1 1_555 1_555
C1 N1 1_555 1_555
H1 C1 1_555 1_555
Ag2 O5 1_555 1_555
Cl2 O5 1_555 1_555
O2 Cl1 1_555 1_555
N2 N3 1_555 1_555
C2 C1 1_555 1_555
H2 C2 1_555 1_555
Ag3 N7 1_555 1_555
O3 Cl1 1_555 1_555
N3 C8 1_555 1_555
C3 C2 1_555 1_555
O4 Cl1 1_555 1_555
N4 N5 1_555 1_555
C4 C3 1_555 1_555
H3 C4 1_555 1_555
N5 C13 1_555 1_555
C5 N1 1_555 1_555
H4 C5 1_555 1_555
O6 Cl2 1_555 1_555
N6 Ag2 1_555 1_555
C6 N2 1_555 1_555
O7 Cl2 1_555 1_555
N7 C19 1_555 1_555
C7 C6 1_555 1_555
H5 C7 1_555 1_555
O8 Cl2 1_555 1_555
N8 N9 1_555 1_555
C8 C7 1_555 1_555
H6 C8 1_555 1_555
O9 Ag3 1_555 1_555
N9 C26 1_555 1_555
C9 N3 1_555 1_555
H7 C9 1_555 1_555
H8 C9 1_555 1_555
O10 C40 1_555 1_555
N10 Ag3 1_555 1_555
C10 N4 1_555 1_555
H9 C10 1_555 1_555
H10 C10 1_555 1_555
N11 N12 1_555 1_555
C11 N4 1_555 1_555
H11 C11 1_555 1_555
N12 C35 1_555 1_555
C12 C11 1_555 1_555
H12 C12 1_555 1_555
N13 C37 1_555 1_555
C13 C12 1_555 1_555
N14 C40 1_555 1_555
C14 C13 1_555 1_555
C15 C14 1_555 1_555
H13 C15 1_555 1_555
C16 N6 1_555 1_555
H14 C16 1_555 1_555
C17 N6 1_555 1_555
H15 C17 1_555 1_555
C18 C14 1_555 1_555
H16 C18 1_555 1_555
C19 H17 1_555 1_555
C20 C19 1_555 1_555
H18 C20 1_555 1_555
C21 C20 1_555 1_555
C22 C21 1_555 1_555
H19 C22 1_555 1_555
C23 N7 1_555 1_555
H20 C23 1_555 1_555
C24 N8 1_555 1_555
C25 C24 1_555 1_555
H21 C25 1_555 1_555
C26 C25 1_555 1_555
H22 C26 1_555 1_555
C27 N9 1_555 1_555
H23 C27 1_555 1_555
H24 C27 1_555 1_555
C28 N10 1_555 1_555
H25 C28 1_555 1_555
C29 C28 1_555 1_555
H26 C29 1_555 1_555
C30 C29 1_555 1_555
C31 C30 1_555 1_555
H27 C31 1_555 1_555
C32 N10 1_555 1_555
H28 C32 1_555 1_555
C33 N11 1_555 1_555
C34 C33 1_555 1_555
H29 C34 1_555 1_555
C35 C34 1_555 1_555
H30 C35 1_555 1_555
C36 N12 1_555 1_555
H31 C36 1_555 1_555
H32 C36 1_555 1_555
C37 O9 1_555 1_555
H33 C37 1_555 1_555
C38 N13 1_555 1_555
H34 C38 1_555 1_555
H35 C38 1_555 1_555
H36 C38 1_555 1_555
C39 N13 1_555 1_555
H37 C39 1_555 1_555
H38 C39 1_555 1_555
H39 C39 1_555 1_555
C40 H40 1_555 1_555
C41 N14 1_555 1_555
H41 C41 1_555 1_555
H42 C41 1_555 1_555
H43 C41 1_555 1_555
C42 N14 1_555 1_555
H44 C42 1_555 1_555
H45 C42 1_555 1_555
H46 C42 1_555 1_555
Cl1A O1A 1_555 1_555
O1A Ag1 1_555 1_555
N1A Ag1 1_555 1_555
C1A N1A 1_555 1_555
H1A C1A 1_555 1_555
Ag2_2 N6A 1_555 1_555
Cl2A O5A 1_555 1_555
O2A Cl1A 1_555 1_555
N2A N3A 1_555 1_555
C2A C1A 1_555 1_555
H2A C2A 1_555 1_555
Ag3A N7A 1_555 1_555
Ag3A_2 N10A 1_555 1_555
O3A Cl1A 1_555 1_555
N3A C8A 1_555 1_555
C3A C2A 1_555 1_555
O4A Cl1A 1_555 1_555
N4A N5A 1_555 1_555
C4A C3A 1_555 1_555
H3A C4A 1_555 1_555
O5A Ag2 1_555 1_555
N5A C13A 1_555 1_555
C5A N1A 1_555 1_555
H4A C5A 1_555 1_555
O6A Cl2A 1_555 1_555
N6A C16A 1_555 1_555
N6A_2 Ag2 1_555 1_555
C6A N2A 1_555 1_555
O7A Cl2A 1_555 1_555
N7A C19A 1_555 1_555
C7A C6A 1_555 1_555
H5A C7A 1_555 1_555
O8A Cl2A 1_555 1_555
N8A N9A 1_555 1_555
C8A C7A 1_555 1_555
H6A C8A 1_555 1_555
O9A Ag3A 1_555 1_555
N9A C26A 1_555 1_555
C9A N3A 1_555 1_555
H7A C9A 1_555 1_555
H8A C9A 1_555 1_555
N10A C28A 1_555 1_555
N10A_2 Ag3A 1_555 1_555
C10A N4A 1_555 1_555
H9A C10A 1_555 1_555
H10A C10A 1_555 1_555
N11A N12A 1_555 1_555
C11A N4A 1_555 1_555
H11A C11A 1_555 1_555
N12A C35A 1_555 1_555
C12A C11A 1_555 1_555
H12A C12A 1_555 1_555
N13A C37A 1_555 1_555
C13A C12A 1_555 1_555
C14A C13A 1_555 1_555
C15A C14A 1_555 1_555
H13A C15A 1_555 1_555
C16A C15A 1_555 1_555
H14A C16A 1_555 1_555
C17A N6A 1_555 1_555
H15A C17A 1_555 1_555
C18A C14A 1_555 1_555
H16A C18A 1_555 1_555
C19A H17A 1_555 1_555
C20A C19A 1_555 1_555
H18A C20A 1_555 1_555
C21A C20A 1_555 1_555
C22A C21A 1_555 1_555
H19A C22A 1_555 1_555
C23A N7A 1_555 1_555
H20A C23A 1_555 1_555
C24A N8A 1_555 1_555
C25A C24A 1_555 1_555
H21A C25A 1_555 1_555
C26A C25A 1_555 1_555
H22A C26A 1_555 1_555
C27A C27 1_555 1_555
H23A C27A 1_555 1_555
H24A C27A 1_555 1_555
C28A H25A 1_555 1_555
C29A C28A 1_555 1_555
H26A C29A 1_555 1_555
C30A C29A 1_555 1_555
C31A C30A 1_555 1_555
H27A C31A 1_555 1_555
C32A N10A 1_555 1_555
H28A C32A 1_555 1_555
C33A N11A 1_555 1_555
C34A C33A 1_555 1_555
H29A C34A 1_555 1_555
C35A C34A 1_555 1_555
H30A C35A 1_555 1_555
C36A C36 1_555 1_555
H31A C36A 1_555 1_555
H32A C36A 1_555 1_555
C37A O9A 1_555 1_555
H33A C37A 1_555 1_555
C38A N13A 1_555 1_555
H34A C38A 1_555 1_555
H35A C38A 1_555 1_555
H36A C38A 1_555 1_555
C39A N13A 1_555 1_555
H37A C39A 1_555 1_555
H38A C39A 1_555 1_555
H39A C39A 1_555 1_555
C3 C6 1_555 1_555
C4 C5 1_555 1_555
C9 C10 1_555 1_555
C15 C16 1_555 1_555
C17 C18 1_555 1_555
C21 C24 1_555 1_555
C22 C23 1_555 1_555
C30 C33 1_555 1_555
C31 C32 1_555 1_555
C3A C6A 1_555 1_555
C4A C5A 1_555 1_555
N9A C27A 1_555 1_555
C9A C10A 1_555 1_555
N12A C36A 1_555 1_555
C17A C18A 1_555 1_555
C21A C24A 1_555 1_555
C22A C23A 1_555 1_555
C30A C33A 1_555 1_555
C31A C32A 1_555 1_555

#END
