
#######################################################################
#
#                 Cambridge Crystallographic Data Centre
#                                CCDC 
#
#######################################################################
#
# If this CIF has been generated from an entry in the Cambridge 
# Structural Database, then it will include bibliographic, chemical, 
# crystal, experimental, refinement or atomic coordinate data resulting 
# from the CCDC's data processing and validation procedures.
#
#######################################################################

data_BUNFUM
_symmetry_cell_setting           monoclinic
_symmetry_space_group_name_H-M   'P 21'
_symmetry_Int_Tables_number      4
_space_group_name_Hall           'P 2yb'
loop_
_symmetry_equiv_pos_site_id
_symmetry_equiv_pos_as_xyz
1 x,y,z
2 -x,1/2+y,-z
_cell_length_a                   5.5183(11)
_cell_length_b                   18.443(4)
_cell_length_c                   12.796(3)
_cell_angle_alpha                90
_cell_angle_beta                 91.72(3)
_cell_angle_gamma                90
_cell_volume                     1301.71
loop_
_atom_site_label
_atom_site_type_symbol
_atom_site_fract_x
_atom_site_fract_y
_atom_site_fract_z
Zn1 Zn 0.43335(7) 0.94011(3) 0.82981(3)
S1 S 0.0019(2) 1.11875(8) 0.64302(10)
N1 N 0.6681(6) 0.98512(18) 0.9350(2)
C1 C 0.8071(7) 1.0422(2) 0.9062(3)
H1 H 0.7729 1.0642 0.8402
S2 S -0.0454(4) 0.76813(10) 0.99597(13)
N2 N 1.3052(7) 1.0372(2) 1.2227(3)
C2 C 0.9941(7) 1.0697(2) 0.9673(3)
H2 H 1.0868 1.1093 0.9429
N3 N 1.5069(7) 1.0711(2) 1.2571(3)
C3 C 1.0475(7) 1.0397(2) 1.0643(3)
N4 N 1.6069(7) 1.1659(2) 1.4520(3)
C4 C 0.9029(7) 0.9819(2) 1.0965(3)
H3 H 0.9308 0.9603 1.1632
N5 N 1.7979(7) 1.1872(2) 1.3976(3)
C5 C 0.7200(7) 0.9568(2) 1.0306(3)
H4 H 0.6247 0.9173 1.0535
N6 N 2.3595(6) 1.37907(19) 1.2643(3)
C6 C 1.2515(7) 1.0667(2) 1.1284(3)
N7 N 0.3056(7) 1.0196(2) 0.7441(3)
C7 C 1.4225(7) 1.1195(2) 1.1052(3)
H5 H 1.4272 1.1485 1.0440
N8 N 0.2169(6) 0.8757(2) 0.8999(3)
C8 C 1.5820(8) 1.1209(3) 1.1890(3)
H6 H 1.7200 1.1513 1.1974
C9 C 1.6207(9) 1.0494(3) 1.3569(4)
H7 H 1.7978 1.0571 1.3534
H8 H 1.5930 0.9969 1.3673
C10 C 1.5284(11) 1.0899(3) 1.4501(4)
H9 H 1.3490 1.0881 1.4485
H10 H 1.5878 1.0657 1.5150
C11 C 1.5169(9) 1.2197(3) 1.5105(3)
H11 H 1.3833 1.2160 1.5553
C12 C 1.6533(8) 1.2811(3) 1.4936(3)
H12 H 1.6350 1.3280 1.5230
C13 C 1.8275(8) 1.2574(2) 1.4216(3)
C14 C 2.0126(8) 1.2997(2) 1.3703(3)
C15 C 2.1672(7) 1.2668(2) 1.2988(3)
H13 H 2.1562 1.2161 1.2859
C16 C 2.3327(7) 1.3076(2) 1.2481(3)
H14 H 2.4334 1.2844 1.1992
C17 C 2.2167(7) 1.4110(2) 1.3340(3)
H15 H 2.2356 1.4615 1.3467
C18 C 2.0443(8) 1.3737(2) 1.3877(3)
H16 H 1.9471 1.3983 1.4365
C19 C 0.1795(7) 1.0614(2) 0.7014(3)
C20 C 0.1103(8) 0.8299(3) 0.9409(3)
Zn1A Zn 2.56665(7) 1.44011(3) 1.17019(3)
N6A N 0.6405(6) 0.87907(19) 0.7357(3)
O1 O 0.7794(9) 0.8728(3) 1.3225(4)
N9 N 0.5375(9) 0.7948(3) 1.2315(4)
C21 C 0.3334(14) 0.8453(4) 1.2251(5)
H17 H 0.2217 0.8347 1.2812
H18 H 0.2482 0.8399 1.1572
H19 H 0.3934 0.8951 1.2326
C22 C 0.5005(13) 0.7222(4) 1.1889(5)
H20 H 0.4636 0.7255 1.1136
H21 H 0.3650 0.6989 1.2236
H22 H 0.6480 0.6934 1.2008
C23 C 0.7376(12) 0.8135(4) 1.2796(6)
H23 H 0.8643 0.7786 1.2823
O2 O 0.1288(12) 0.9567(4) 1.4034(4)
loop_
_geom_bond_atom_site_label_1
_geom_bond_atom_site_label_2
_geom_bond_site_symmetry_1
_geom_bond_site_symmetry_2
Zn1 N1 1_555 1_555
S1 C19 1_555 1_555
N1 C1 1_555 1_555
C1 H1 1_555 1_555
S2 C20 1_555 1_555
N2 N3 1_555 1_555
C2 C1 1_555 1_555
H2 C2 1_555 1_555
N3 C8 1_555 1_555
C3 C2 1_555 1_555
N4 N5 1_555 1_555
C4 C3 1_555 1_555
H3 C4 1_555 1_555
N5 C13 1_555 1_555
C5 N1 1_555 1_555
H4 C5 1_555 1_555
N6 C16 1_555 1_555
C6 N2 1_555 1_555
N7 Zn1 1_555 1_555
C7 C6 1_555 1_555
H5 C7 1_555 1_555
N8 Zn1 1_555 1_555
C8 C7 1_555 1_555
H6 C8 1_555 1_555
C9 N3 1_555 1_555
H7 C9 1_555 1_555
H8 C9 1_555 1_555
C10 N4 1_555 1_555
H9 C10 1_555 1_555
H10 C10 1_555 1_555
C11 N4 1_555 1_555
H11 C11 1_555 1_555
C12 C11 1_555 1_555
H12 C12 1_555 1_555
C13 C12 1_555 1_555
C14 C13 1_555 1_555
C15 C14 1_555 1_555
H13 C15 1_555 1_555
C16 C15 1_555 1_555
H14 C16 1_555 1_555
C17 N6 1_555 1_555
H15 C17 1_555 1_555
C18 C14 1_555 1_555
H16 C18 1_555 1_555
C19 N7 1_555 1_555
C20 N8 1_555 1_555
O1 C23 1_555 1_555
N9 C21 1_555 1_555
C21 H17 1_555 1_555
H18 C21 1_555 1_555
H19 C21 1_555 1_555
C22 N9 1_555 1_555
H20 C22 1_555 1_555
H21 C22 1_555 1_555
H22 C22 1_555 1_555
C23 N9 1_555 1_555
H23 C23 1_555 1_555
Zn1A N6 1_555 1_555
N6A Zn1 1_555 1_555
C3 C6 1_555 1_555
C4 C5 1_555 1_555
C9 C10 1_555 1_555
C17 C18 1_555 1_555

#END
