
#######################################################################
#
#                 Cambridge Crystallographic Data Centre
#                                CCDC 
#
#######################################################################
#
# If this CIF has been generated from an entry in the Cambridge 
# Structural Database, then it will include bibliographic, chemical, 
# crystal, experimental, refinement or atomic coordinate data resulting 
# from the CCDC's data processing and validation procedures.
#
#######################################################################

data_BUNGAT
_symmetry_cell_setting           monoclinic
_symmetry_space_group_name_H-M   'P 21/n'
_symmetry_Int_Tables_number      14
_space_group_name_Hall           '-P 2yn'
loop_
_symmetry_equiv_pos_site_id
_symmetry_equiv_pos_as_xyz
1 x,y,z
2 1/2-x,1/2+y,1/2-z
3 -x,-y,-z
4 1/2+x,1/2-y,1/2+z
_cell_length_a                   19.3448(5)
_cell_length_b                   10.7153(2)
_cell_length_c                   23.6750(5)
_cell_angle_alpha                90
_cell_angle_beta                 95.754(1)
_cell_angle_gamma                90
_cell_volume                     4882.75
loop_
_atom_site_label
_atom_site_type_symbol
_atom_site_fract_x
_atom_site_fract_y
_atom_site_fract_z
Cu1 Cu 0.38092(3) 0.97567(6) 0.19144(2)
O1 O 0.4507(3) 0.8279(4) 0.1505(2)
O2 O 0.3086(3) 1.1354(4) 0.23376(18)
N1 N 0.3839(2) 0.8862(4) 0.26725(18)
N2 N 0.3848(2) 0.7455(5) 0.4723(2)
N3 N 0.3933(3) 0.6558(6) 0.5119(2)
N4 N 0.4944(3) 0.8083(5) 0.5775(2)
N5 N 0.5440(3) 0.7541(6) 0.61393(19)
N6 N 0.7949(2) 0.6199(4) 0.66254(18)
N7 N 0.4675(2) 1.0708(4) 0.21929(18)
N8 N 0.7175(3) 1.1909(5) 0.2736(2)
N9 N 0.7668(3) 1.2734(6) 0.2909(2)
N10 N 0.8255(3) 1.1272(5) 0.3873(2)
N11 N 0.8568(2) 1.2063(5) 0.42572(19)
N12 N 0.8661(2) 1.4178(4) 0.61948(18)
C1 C 0.3916(3) 0.9464(5) 0.3172(2)
H1 H 0.3954 1.0348 0.3170
C2 C 0.3942(3) 0.8859(5) 0.3687(2)
H2 H 0.3981 0.9323 0.4031
C3 C 0.3912(3) 0.7579(5) 0.3699(2)
C4 C 0.3826(3) 0.6950(5) 0.3193(2)
H3 H 0.3782 0.6067 0.3186
C5 C 0.3803(3) 0.7618(5) 0.2692(2)
H4 H 0.3759 0.7170 0.2344
C6 C 0.3951(3) 0.6871(5) 0.4239(2)
C7 C 0.4113(3) 0.5613(6) 0.4333(3)
H5 H 0.4209 0.5005 0.4060
C8 C 0.4101(4) 0.5450(7) 0.4909(3)
H6 H 0.4194 0.4700 0.5117
C9 C 0.3863(4) 0.6864(9) 0.5716(3)
H7 H 0.4065 0.6181 0.5961
H8 H 0.3364 0.6931 0.5772
C10 C 0.4221(5) 0.8066(9) 0.5888(3)
H9 H 0.3974 0.8762 0.5680
H10 H 0.4194 0.8204 0.6298
C11 C 0.5191(4) 0.8515(5) 0.5307(3)
H11 H 0.4931 0.8904 0.4994
C12 C 0.5891(4) 0.8293(6) 0.5364(2)
H12 H 0.6218 0.8513 0.5107
C13 C 0.6021(3) 0.7666(5) 0.5884(2)
C14 C 0.6687(3) 0.7190(5) 0.6148(2)
C15 C 0.7282(3) 0.7223(6) 0.5861(2)
H13 H 0.7263 0.7583 0.5493
C16 C 0.7892(3) 0.6735(5) 0.6109(2)
H14 H 0.8293 0.6777 0.5908
C17 C 0.7375(3) 0.6181(5) 0.6906(2)
H15 H 0.7411 0.5827 0.7276
C18 C 0.6741(3) 0.6646(5) 0.6686(2)
H16 H 0.6349 0.6598 0.6896
C19 C 0.5248(3) 1.0070(5) 0.2399(2)
H17 H 0.5221 0.9188 0.2429
C20 C 0.5868(3) 1.0648(6) 0.2565(2)
H18 H 0.6261 1.0165 0.2703
C21 C 0.5923(3) 1.1934(5) 0.2532(2)
C22 C 0.5327(3) 1.2593(5) 0.2331(2)
H19 H 0.5338 1.3478 0.2307
C23 C 0.4722(3) 1.1958(5) 0.2168(2)
H20 H 0.4320 1.2422 0.2033
C24 C 0.6580(3) 1.2577(6) 0.2699(2)
C25 C 0.6707(4) 1.3804(7) 0.2855(3)
H21 H 0.6375 1.4453 0.2871
C26 C 0.7405(4) 1.3888(7) 0.2981(3)
H22 H 0.7660 1.4617 0.3097
C27 C 0.8378(3) 1.2356(8) 0.2967(3)
H23 H 0.8666 1.3033 0.3154
H24 H 0.8532 1.2223 0.2585
H25 H 0.4796 0.8416 0.1257
H26 H 0.2859 1.2022 0.2238
H27 H 0.4441 0.7487 0.1518
H28 H 0.3264 1.1431 0.2686
C28 C 0.8495(3) 1.1165(8) 0.3313(3)
H29 H 0.8247 1.0468 0.3106
H30 H 0.8997 1.0963 0.3354
C29 C 0.7719(3) 1.0670(7) 0.4070(3)
H31 H 0.7430 1.0060 0.3875
C30 C 0.7670(3) 1.1106(6) 0.4606(2)
H32 H 0.7340 1.0869 0.4858
C31 C 0.8205(3) 1.1970(5) 0.4708(2)
C32 C 0.8379(3) 1.2724(5) 0.5219(2)
C33 C 0.9036(3) 1.3201(6) 0.5370(2)
H33 H 0.9404 1.3037 0.5143
C34 C 0.9151(3) 1.3922(6) 0.5857(3)
H34 H 0.9603 1.4250 0.5953
C35 C 0.8024(3) 1.3714(5) 0.6044(2)
H35 H 0.7664 1.3901 0.6275
C36 C 0.7868(3) 1.2984(5) 0.5573(2)
H36 H 0.7413 1.2658 0.5490
Cu1C Cu 0.88092(3) 0.52433(6) 0.69144(2)
Cu1C_2 Cu 0.88092(3) 1.52433(6) 0.69144(2)
N6C N 0.2949(2) 0.8801(4) 0.16254(18)
N12C N 0.3661(2) 1.0822(4) 0.11948(18)
P1 P 0.82328(13) 1.02514(15) 0.65603(7)
F1 F 0.8699(2) 1.0322(4) 0.71453(14)
F2 F 0.8744(2) 1.1173(4) 0.62899(17)
F3 F 0.77906(19) 1.1393(2) 0.67432(14)
F4 F 0.7784(2) 1.0134(4) 0.59700(12)
F5 F 0.7727(2) 0.9325(3) 0.68331(14)
F6 F 0.8685(3) 0.9108(3) 0.6391(3)
P2 P 0.62195(10) 0.76211(16) 0.37243(7)
F7 F 0.6720(3) 0.8453(5) 0.33789(19)
F8 F 0.5842(3) 0.8799(5) 0.3937(2)
F9 F 0.5729(3) 0.6771(5) 0.4060(2)
F10 F 0.6578(3) 0.6426(5) 0.3495(2)
F11 F 0.5665(2) 0.7585(4) 0.31756(17)
F12 F 0.6776(3) 0.7667(6) 0.4266(2)
loop_
_geom_bond_atom_site_label_1
_geom_bond_atom_site_label_2
_geom_bond_site_symmetry_1
_geom_bond_site_symmetry_2
Cu1 O1 1_555 1_555
P1 F1 1_555 1_555
P2 F7 1_555 1_555
F2 P1 1_555 1_555
F3 P1 1_555 1_555
F4 P1 1_555 1_555
F5 P1 1_555 1_555
F6 P1 1_555 1_555
F8 P2 1_555 1_555
F9 P2 1_555 1_555
F10 P2 1_555 1_555
F11 P2 1_555 1_555
F12 P2 1_555 1_555
O1 H25 1_555 1_555
O2 Cu1 1_555 1_555
N1 Cu1 1_555 1_555
N2 N3 1_555 1_555
N3 C8 1_555 1_555
N4 N5 1_555 1_555
N5 C13 1_555 1_555
N6 C16 1_555 1_555
N7 Cu1 1_555 1_555
N8 N9 1_555 1_555
N9 C26 1_555 1_555
N10 N11 1_555 1_555
N11 C31 1_555 1_555
N12 C34 1_555 1_555
C1 N1 1_555 1_555
H1 C1 1_555 1_555
C2 C1 1_555 1_555
H2 C2 1_555 1_555
C3 C2 1_555 1_555
C4 C3 1_555 1_555
H3 C4 1_555 1_555
C5 N1 1_555 1_555
H4 C5 1_555 1_555
C6 N2 1_555 1_555
C7 C6 1_555 1_555
H5 C7 1_555 1_555
C8 C7 1_555 1_555
H6 C8 1_555 1_555
C9 N3 1_555 1_555
H7 C9 1_555 1_555
H8 C9 1_555 1_555
C10 N4 1_555 1_555
H9 C10 1_555 1_555
H10 C10 1_555 1_555
C11 N4 1_555 1_555
H11 C11 1_555 1_555
C12 C11 1_555 1_555
H12 C12 1_555 1_555
C13 C12 1_555 1_555
C14 C13 1_555 1_555
C15 C14 1_555 1_555
H13 C15 1_555 1_555
C16 C15 1_555 1_555
H14 C16 1_555 1_555
C17 N6 1_555 1_555
H15 C17 1_555 1_555
C18 C14 1_555 1_555
H16 C18 1_555 1_555
C19 N7 1_555 1_555
H17 C19 1_555 1_555
C20 C19 1_555 1_555
H18 C20 1_555 1_555
C21 C20 1_555 1_555
C22 C21 1_555 1_555
H19 C22 1_555 1_555
C23 N7 1_555 1_555
H20 C23 1_555 1_555
C24 N8 1_555 1_555
C25 C24 1_555 1_555
H21 C25 1_555 1_555
C26 C25 1_555 1_555
H22 C26 1_555 1_555
C27 N9 1_555 1_555
H23 C27 1_555 1_555
H24 C27 1_555 1_555
H26 O2 1_555 1_555
H27 O1 1_555 1_555
H28 O2 1_555 1_555
C28 N10 1_555 1_555
H29 C28 1_555 1_555
H30 C28 1_555 1_555
C29 N10 1_555 1_555
H31 C29 1_555 1_555
C30 C29 1_555 1_555
H32 C30 1_555 1_555
C31 C30 1_555 1_555
C32 C31 1_555 1_555
C33 C32 1_555 1_555
H33 C33 1_555 1_555
C34 C33 1_555 1_555
H34 C34 1_555 1_555
C35 N12 1_555 1_555
H35 C35 1_555 1_555
C36 C32 1_555 1_555
H36 C36 1_555 1_555
Cu1C N6 1_555 1_555
Cu1C_2 N12 1_555 1_555
N6C Cu1 1_555 1_555
N12C Cu1 1_555 1_555
C3 C6 1_555 1_555
C4 C5 1_555 1_555
C9 C10 1_555 1_555
C17 C18 1_555 1_555
C21 C24 1_555 1_555
C22 C23 1_555 1_555
C27 C28 1_555 1_555
C35 C36 1_555 1_555

#END
