
#######################################################################
#
#                 Cambridge Crystallographic Data Centre
#                                CCDC 
#
#######################################################################
#
# If this CIF has been generated from an entry in the Cambridge 
# Structural Database, then it will include bibliographic, chemical, 
# crystal, experimental, refinement or atomic coordinate data resulting 
# from the CCDC's data processing and validation procedures.
#
#######################################################################

data_BUNGEX
_symmetry_cell_setting           orthorhombic
_symmetry_space_group_name_H-M   'P n a 21'
_symmetry_Int_Tables_number      33
_space_group_name_Hall           'P 2c -2n'
loop_
_symmetry_equiv_pos_site_id
_symmetry_equiv_pos_as_xyz
1 x,y,z
2 -x,-y,1/2+z
3 1/2-x,1/2+y,1/2+z
4 1/2+x,1/2-y,z
_cell_length_a                   16.9039(14)
_cell_length_b                   13.5818(11)
_cell_length_c                   16.5474(10)
_cell_angle_alpha                90
_cell_angle_beta                 90
_cell_angle_gamma                90
_cell_volume                     3799.04
loop_
_atom_site_label
_atom_site_type_symbol
_atom_site_fract_x
_atom_site_fract_y
_atom_site_fract_z
Co1 Co 0.13231(7) 0.26227(9) 0.59812(11)
S1 S 0.32472(17) 0.0554(2) 0.4726(2)
S2 S -0.0613(2) 0.4798(2) 0.7084(4)
N1 N 0.0636(4) 0.2629(5) 0.4863(5)
N2 N -0.1522(5) 0.1926(5) 0.2782(5)
N3 N -0.1925(4) 0.2219(5) 0.2111(5)
N4 N -0.3455(5) 0.2916(6) 0.2631(5)
N5 N -0.4023(5) 0.3385(5) 0.2227(5)
N6 N -0.5505(5) 0.6522(5) 0.1469(5)
N7 N 0.2132(5) 0.3727(5) 0.5513(5)
N8 N 0.3661(5) 0.6848(6) 0.4970(5)
N9 N 0.4149(5) 0.7410(6) 0.4486(6)
N10 N 0.5701(5) 0.7687(5) 0.5111(5)
N11 N 0.6119(5) 0.8028(5) 0.4452(5)
N12 N 0.8027(4) 0.7405(5) 0.2143(5)
N13 N 0.2013(5) 0.1522(5) 0.5492(5)
N14 N 0.0618(5) 0.3748(6) 0.6383(5)
C1 C 0.0430(6) 0.3455(7) 0.4493(7)
H1 H 0.0639 0.4058 0.4690
C2 C -0.0076(6) 0.3487(7) 0.3832(7)
H2 H -0.0194 0.4099 0.3583
C3 C -0.0407(6) 0.2634(6) 0.3537(7)
C4 C -0.0180(5) 0.1758(7) 0.3933(6)
H3 H -0.0388 0.1146 0.3756
C5 C 0.0337(5) 0.1777(6) 0.4570(6)
H4 H 0.0491 0.1173 0.4814
C6 C -0.0984(6) 0.2632(6) 0.2873(6)
C7 C -0.1030(6) 0.3367(6) 0.2261(6)
H5 H -0.0711 0.3938 0.2196
C8 C -0.1645(6) 0.3054(6) 0.1791(7)
H6 H -0.1839 0.3372 0.1319
C9 C -0.2658(6) 0.1708(6) 0.1884(7)
H7 H -0.2556 0.0993 0.1832
H8 H -0.2846 0.1955 0.1355
C10 C -0.3289(6) 0.1888(7) 0.2529(6)
H9 H -0.3782 0.1542 0.2373
H10 H -0.3107 0.1610 0.3050
C11 C -0.3036(6) 0.3561(7) 0.3114(6)
H11 H -0.2612 0.3396 0.3466
C12 C -0.3338(6) 0.4470(7) 0.2995(6)
H12 H -0.3175 0.5072 0.3235
C13 C -0.3959(5) 0.4317(6) 0.2426(6)
C14 C -0.4476(6) 0.5062(7) 0.2109(6)
C15 C -0.4233(6) 0.6041(6) 0.1973(6)
H13 H -0.3707 0.6232 0.2102
C16 C -0.4744(6) 0.6720(7) 0.1656(6)
H14 H -0.4553 0.7367 0.1561
C17 C -0.5740(5) 0.5601(6) 0.1615(6)
H15 H -0.6275 0.5442 0.1495
C18 C -0.5276(5) 0.4867(7) 0.1925(6)
H16 H -0.5490 0.4230 0.2015
C19 C 0.2441(6) 0.3669(8) 0.4749(6)
H17 H 0.2328 0.3103 0.4432
C20 C 0.2901(5) 0.4387(7) 0.4426(6)
H18 H 0.3083 0.4325 0.3885
C21 C 0.3114(5) 0.5218(7) 0.4879(6)
C22 C 0.2808(6) 0.5280(7) 0.5669(6)
H19 H 0.2928 0.5825 0.6007
C23 C 0.2324(5) 0.4515(7) 0.5940(7)
H20 H 0.2116 0.4564 0.6472
C24 C 0.3585(6) 0.6003(7) 0.4547(6)
C25 C 0.4027(6) 0.6026(7) 0.3819(6)
H21 H 0.4078 0.5519 0.3427
C26 C 0.4360(7) 0.6928(7) 0.3807(6)
H22 H 0.4688 0.7182 0.3390
C27 C 0.4416(6) 0.8355(7) 0.4779(7)
H23 H 0.3961 0.8719 0.5008
H24 H 0.4627 0.8744 0.4321
C28 C 0.5051(7) 0.8248(8) 0.5420(7)
H25 H 0.5239 0.8907 0.5587
H26 H 0.4828 0.7914 0.5900
C29 C 0.5910(6) 0.6767(6) 0.5294(6)
H27 H 0.5676 0.6371 0.5703
C30 C 0.6524(6) 0.6484(7) 0.4791(7)
H28 H 0.6813 0.5883 0.4794
C31 C 0.6618(6) 0.7295(6) 0.4279(6)
C32 C 0.7134(5) 0.7369(6) 0.3572(6)
C33 C 0.7741(5) 0.6705(6) 0.3437(6)
H29 H 0.7865 0.6223 0.3833
C34 C 0.8165(6) 0.6743(7) 0.2729(6)
H30 H 0.8577 0.6277 0.2650
C35 C 0.7458(5) 0.8060(7) 0.2281(7)
H31 H 0.7360 0.8547 0.1881
C36 C 0.7005(6) 0.8073(6) 0.2969(6)
H32 H 0.6606 0.8558 0.3035
C37 C 0.2528(5) 0.1112(6) 0.5182(6)
C38 C 0.0104(6) 0.4188(7) 0.6694(7)
Co1A Co 0.86769(7) 0.73773(9) 0.09812(11)
Co1B Co -0.63231(7) 0.76227(9) 0.09812(11)
N6B N 0.0505(5) 0.1522(5) 0.6469(5)
N12A N 0.1973(4) 0.2595(5) 0.7143(5)
loop_
_geom_bond_atom_site_label_1
_geom_bond_atom_site_label_2
_geom_bond_site_symmetry_1
_geom_bond_site_symmetry_2
Co1 N1 1_555 1_555
S1 C37 1_555 1_555
S2 C38 1_555 1_555
N1 C1 1_555 1_555
N2 N3 1_555 1_555
N3 C8 1_555 1_555
N4 N5 1_555 1_555
N5 C13 1_555 1_555
N6 C16 1_555 1_555
N7 Co1 1_555 1_555
N8 N9 1_555 1_555
N9 C26 1_555 1_555
N10 N11 1_555 1_555
N11 C31 1_555 1_555
N12 C34 1_555 1_555
N13 Co1 1_555 1_555
N14 Co1 1_555 1_555
C1 H1 1_555 1_555
C2 C1 1_555 1_555
H2 C2 1_555 1_555
C3 C2 1_555 1_555
C4 C3 1_555 1_555
H3 C4 1_555 1_555
C5 N1 1_555 1_555
H4 C5 1_555 1_555
C6 N2 1_555 1_555
C7 C6 1_555 1_555
H5 C7 1_555 1_555
C8 C7 1_555 1_555
H6 C8 1_555 1_555
C9 N3 1_555 1_555
H7 C9 1_555 1_555
H8 C9 1_555 1_555
C10 N4 1_555 1_555
H9 C10 1_555 1_555
H10 C10 1_555 1_555
C11 N4 1_555 1_555
H11 C11 1_555 1_555
C12 C11 1_555 1_555
H12 C12 1_555 1_555
C13 C12 1_555 1_555
C14 C13 1_555 1_555
C15 C14 1_555 1_555
H13 C15 1_555 1_555
C16 C15 1_555 1_555
H14 C16 1_555 1_555
C17 N6 1_555 1_555
H15 C17 1_555 1_555
C18 C14 1_555 1_555
H16 C18 1_555 1_555
C19 N7 1_555 1_555
H17 C19 1_555 1_555
C20 C19 1_555 1_555
H18 C20 1_555 1_555
C21 C20 1_555 1_555
C22 C21 1_555 1_555
H19 C22 1_555 1_555
C23 N7 1_555 1_555
H20 C23 1_555 1_555
C24 N8 1_555 1_555
C25 C24 1_555 1_555
H21 C25 1_555 1_555
C26 C25 1_555 1_555
H22 C26 1_555 1_555
C27 N9 1_555 1_555
H23 C27 1_555 1_555
H24 C27 1_555 1_555
C28 N10 1_555 1_555
H25 C28 1_555 1_555
H26 C28 1_555 1_555
C29 N10 1_555 1_555
H27 C29 1_555 1_555
C30 C29 1_555 1_555
H28 C30 1_555 1_555
C31 C30 1_555 1_555
C32 C31 1_555 1_555
C33 C32 1_555 1_555
H29 C33 1_555 1_555
C34 C33 1_555 1_555
H30 C34 1_555 1_555
C35 N12 1_555 1_555
H31 C35 1_555 1_555
C36 C32 1_555 1_555
H32 C36 1_555 1_555
C37 N13 1_555 1_555
C38 N14 1_555 1_555
Co1A N12 1_555 1_555
Co1B N6 1_555 1_555
N6B Co1 1_555 1_555
N12A Co1 1_555 1_555
C3 C6 1_555 1_555
C4 C5 1_555 1_555
C9 C10 1_555 1_555
C17 C18 1_555 1_555
C21 C24 1_555 1_555
C22 C23 1_555 1_555
C27 C28 1_555 1_555
C35 C36 1_555 1_555

#END
