
#######################################################################
#
#                 Cambridge Crystallographic Data Centre
#                                CCDC 
#
#######################################################################
#
# If this CIF has been generated from an entry in the Cambridge 
# Structural Database, then it will include bibliographic, chemical, 
# crystal, experimental, refinement or atomic coordinate data resulting 
# from the CCDC's data processing and validation procedures.
#
#######################################################################

data_BUNGOH
_symmetry_cell_setting           monoclinic
_symmetry_space_group_name_H-M   'P 21/c'
_symmetry_Int_Tables_number      14
_space_group_name_Hall           '-P 2ybc'
loop_
_symmetry_equiv_pos_site_id
_symmetry_equiv_pos_as_xyz
1 x,y,z
2 -x,1/2+y,1/2-z
3 -x,-y,-z
4 x,1/2-y,1/2+z
_cell_length_a                   11.6894(8)
_cell_length_b                   13.4533(9)
_cell_length_c                   7.3518(4)
_cell_angle_alpha                90
_cell_angle_beta                 92.242(4)
_cell_angle_gamma                90
_cell_volume                     1155.27
loop_
_atom_site_label
_atom_site_type_symbol
_atom_site_fract_x
_atom_site_fract_y
_atom_site_fract_z
Cu1 Cu 0.0000 0.5000 0.5000
O1 O 0.3691(2) 0.5080(2) 0.8638(3)
N1 N 0.3927(3) 0.5422(3) 1.1630(4)
C1 C 0.2087(3) 0.5616(3) 1.0149(5)
H1 H 0.450(4) 0.526(3) 1.161(5)
N2 N 0.0895(3) 0.5430(3) 0.7210(4)
C2 C 0.1421(3) 0.5527(3) 0.8557(5)
H2 H 0.367(5) 0.565(4) 1.268(8)
N3 N 0.1129(3) 0.6131(3) 1.3085(4)
C3 C 0.1549(3) 0.5907(3) 1.1751(5)
N4 N 0.1103(3) 0.3876(2) 0.4645(4)
C4 C 0.3286(3) 0.5363(3) 1.0120(4)
C5 C 0.2240(3) 0.4024(3) 0.4756(5)
H3 H 0.2518 0.4676 0.5000
C6 C 0.3021(4) 0.3271(3) 0.4533(5)
H4 H 0.3819 0.3406 0.4609
C7 C 0.2627(4) 0.2319(3) 0.4196(5)
H5 H 0.3146 0.1786 0.4039
C8 C 0.1463(4) 0.2161(3) 0.4094(5)
H6 H 0.1169 0.1512 0.3869
C9 C 0.0727(3) 0.2945(3) 0.4317(5)
H7 H -0.0075 0.2825 0.4237
Cu1_2 Cu 0.0000 0.5000 1.5000
Cu1_3 Cu 0.0000 0.5000 -0.5000
O1B O -0.3691(2) 0.4920(2) 0.1362(3)
N1B N -0.3927(3) 0.4578(3) -0.1630(4)
C1B C -0.2087(3) 0.4384(3) -0.0149(5)
H1B H -0.450(4) 0.474(3) -0.161(5)
N2B N -0.0895(3) 0.4570(3) 0.2790(4)
C2B C -0.1421(3) 0.4473(3) 0.1443(5)
H2B H -0.367(5) 0.435(4) -0.268(8)
N3B N -0.1129(3) 0.3869(3) -0.3085(4)
N3_2 N 0.1129(3) 0.6131(3) 0.3085(4)
N3B_2 N -0.1129(3) 0.3869(3) 0.6915(4)
C3B C -0.1549(3) 0.4093(3) -0.1751(5)
N4B N -0.1103(3) 0.6124(2) 0.5355(4)
C4B C -0.3286(3) 0.4637(3) -0.0120(4)
C5B C -0.2240(3) 0.5976(3) 0.5244(5)
H3B H -0.2518 0.5324 0.5000
C6B C -0.3021(4) 0.6729(3) 0.5467(5)
H4B H -0.3819 0.6594 0.5391
C7B C -0.2627(4) 0.7681(3) 0.5804(5)
H5B H -0.3146 0.8214 0.5961
C8B C -0.1463(4) 0.7839(3) 0.5906(5)
H6B H -0.1169 0.8488 0.6131
C9B C -0.0727(3) 0.7055(3) 0.5683(5)
H7B H 0.0075 0.7175 0.5763
H8 H 0.388(4) 0.578(3) 0.628(6)
O2 O 0.3902(3) 0.6079(2) 0.5397(4)
C10 C 0.3576(7) 0.7062(4) 0.5801(6)
H9 H 0.3491 0.7445 0.4671
H10 H 0.4164 0.7370 0.6603
H11 H 0.2845 0.7053 0.6412
loop_
_geom_bond_atom_site_label_1
_geom_bond_atom_site_label_2
_geom_bond_site_symmetry_1
_geom_bond_site_symmetry_2
Cu1 N2 1_555 1_555
O1 C4 1_555 1_555
N1 H1 1_555 1_555
C1 C2 1_555 1_555
N2 C2 1_555 1_555
H2 N1 1_555 1_555
N3 C3 1_555 1_555
C3 C1 1_555 1_555
N4 Cu1 1_555 1_555
C4 N1 1_555 1_555
C5 N4 1_555 1_555
H3 C5 1_555 1_555
C6 C5 1_555 1_555
H4 C6 1_555 1_555
C7 C6 1_555 1_555
H5 C7 1_555 1_555
C8 C7 1_555 1_555
H6 C8 1_555 1_555
C9 N4 1_555 1_555
H7 C9 1_555 1_555
H8 O2 1_555 1_555
O2 C10 1_555 1_555
C10 H9 1_555 1_555
H10 C10 1_555 1_555
H11 C10 1_555 1_555
Cu1_2 N3 1_555 1_555
Cu1_3 N3B 1_555 1_555
O1B C4B 1_555 1_555
N1B H1B 1_555 1_555
C1B C2B 1_555 1_555
N2B Cu1 1_555 1_555
C2B N2B 1_555 1_555
H2B N1B 1_555 1_555
N3B C3B 1_555 1_555
N3_2 Cu1 1_555 1_555
N3B_2 Cu1 1_555 1_555
C3B C1B 1_555 1_555
N4B Cu1 1_555 1_555
C4B N1B 1_555 1_555
C5B N4B 1_555 1_555
H3B C5B 1_555 1_555
C6B C5B 1_555 1_555
H4B C6B 1_555 1_555
C7B C6B 1_555 1_555
H5B C7B 1_555 1_555
C8B C7B 1_555 1_555
H6B C8B 1_555 1_555
C9B N4B 1_555 1_555
H7B C9B 1_555 1_555
C1 C4 1_555 1_555
C8 C9 1_555 1_555
C1B C4B 1_555 1_555
C8B C9B 1_555 1_555

#END
