
#######################################################################
#
#                 Cambridge Crystallographic Data Centre
#                                CCDC 
#
#######################################################################
#
# If this CIF has been generated from an entry in the Cambridge 
# Structural Database, then it will include bibliographic, chemical, 
# crystal, experimental, refinement or atomic coordinate data resulting 
# from the CCDC's data processing and validation procedures.
#
#######################################################################

data_BUNHIC
_symmetry_cell_setting           triclinic
_symmetry_space_group_name_H-M   'P -1'
_symmetry_Int_Tables_number      2
_space_group_name_Hall           '-P 1'
loop_
_symmetry_equiv_pos_site_id
_symmetry_equiv_pos_as_xyz
1 x,y,z
2 -x,-y,-z
_cell_length_a                   7.6383(5)
_cell_length_b                   9.6069(5)
_cell_length_c                   18.8908(11)
_cell_angle_alpha                89.297(2)
_cell_angle_beta                 81.362(2)
_cell_angle_gamma                78.475(2)
_cell_volume                     1342.63
loop_
_atom_site_label
_atom_site_type_symbol
_atom_site_fract_x
_atom_site_fract_y
_atom_site_fract_z
Cu1 Cu 0.11408(3) 0.45767(2) 0.559043(12)
O1 O 0.35595(19) 0.32149(15) 0.47972(7)
O2 O -0.07602(19) 0.40181(14) 0.51543(7)
N1 N 0.1973(3) 0.2580(2) 0.39765(11)
N2 N 0.7248(3) 0.44379(18) 0.39786(9)
N3 N 0.4347(3) 0.3306(2) 0.22648(10)
N4 N 0.0842(2) 0.33188(18) 0.64277(9)
N5 N 0.2219(3) 0.1265(2) 0.57835(11)
C1 C 0.4698(3) 0.3439(2) 0.35885(10)
C2 C 0.6121(3) 0.3984(2) 0.37931(10)
C3 C 0.4537(3) 0.3368(2) 0.28547(11)
C4 C 0.3385(3) 0.3078(2) 0.41502(11)
C5 C -0.0092(3) 0.3972(2) 0.70414(11)
H1 H -0.0376 0.4981 0.7061
C6 C -0.0645(4) 0.3247(3) 0.76343(13)
H2 H -0.1312 0.3739 0.8054
C7 C -0.0202(4) 0.1769(3) 0.76051(14)
H3 H -0.0570 0.1240 0.8009
C8 C 0.0761(4) 0.1076(3) 0.69969(14)
H4 H 0.1071 0.0067 0.6976
C9 C 0.1288(3) 0.1880(2) 0.64001(12)
C10 C 0.2756(4) -0.0258(3) 0.56810(17)
H5 H 0.3592 -0.0642 0.6014
H6 H 0.3355 -0.0478 0.5188
H7 H 0.1684 -0.0687 0.5772
C11 C -0.2102(3) 0.3307(2) 0.55073(11)
H8 H -0.1609 0.2284 0.5507
H9 H -0.3156 0.3485 0.5256
H10 H -0.2464 0.3664 0.6002
H11 H 0.177(4) 0.252(3) 0.3552(16)
H12 H 0.111(4) 0.258(3) 0.4297(15)
H13 H 0.260(4) 0.178(3) 0.5481(14)
Cu1A Cu -0.11408(3) 0.54233(2) 0.440957(12)
Cu1A_2 Cu 0.88592(3) 0.54233(2) 0.440957(12)
O2A O 0.07602(19) 0.59819(14) 0.48457(7)
N2A N 0.2752(3) 0.55621(18) 0.60214(9)
Cu2 Cu 0.39283(3) 0.02493(2) 0.938159(12)
O3 O 0.1525(2) 0.18483(15) 1.00889(7)
O4 O 0.4213(2) -0.09266(14) 1.02182(7)
N6 N 0.3021(3) 0.2685(2) 1.08870(11)
N7 N -0.2276(3) 0.0812(2) 1.09598(9)
N8 N 0.0465(3) 0.2325(2) 1.26173(10)
N9 N 0.4255(2) 0.12312(18) 0.84481(9)
N10 N 0.2856(3) 0.3437(2) 0.89254(11)
C12 C 0.0318(3) 0.1822(2) 1.13011(11)
C13 C -0.1111(3) 0.1268(2) 1.11179(11)
C14 C 0.0377(3) 0.2091(2) 1.20290(11)
C15 C 0.1653(3) 0.2113(2) 1.07280(11)
C16 C 0.5131(3) 0.0394(2) 0.78801(12)
H14 H 0.5500 -0.0593 0.7956
C17 C 0.5514(3) 0.0887(3) 0.72047(12)
H15 H 0.6143 0.0266 0.6822
C18 C 0.4947(3) 0.2334(3) 0.70984(13)
H16 H 0.5171 0.2710 0.6634
C19 C 0.4073(3) 0.3214(3) 0.76571(13)
H17 H 0.3710 0.4204 0.7585
C20 C 0.3711(3) 0.2639(2) 0.83472(12)
C21 C 0.2130(4) 0.4943(2) 0.88832(15)
H18 H 0.3112 0.5437 0.8709
H19 H 0.1546 0.5317 0.9359
H20 H 0.1239 0.5094 0.8552
C22 C 0.2949(3) -0.1727(2) 1.05460(12)
H21 H 0.3103 -0.1883 1.1049
H22 H 0.3151 -0.2646 1.0296
H23 H 0.1719 -0.1206 1.0521
H24 H 0.317(3) 0.284(3) 1.1307(15)
H25 H 0.389(4) 0.261(3) 1.0596(15)
H26 H 0.251(3) 0.303(3) 0.9316(13)
Cu2A Cu 0.60717(3) -0.02493(2) 1.061841(12)
Cu2A_2 Cu -0.39283(3) -0.02493(2) 1.061841(12)
O4A O 0.5787(2) 0.09266(14) 0.97818(7)
N7A N 0.2276(3) -0.0812(2) 0.90402(9)
loop_
_geom_bond_atom_site_label_1
_geom_bond_atom_site_label_2
_geom_bond_site_symmetry_1
_geom_bond_site_symmetry_2
Cu1 O1 1_555 1_555
O1 C4 1_555 1_555
O2 Cu1 1_555 1_555
N1 C4 1_555 1_555
N2 C2 1_555 1_555
N3 C3 1_555 1_555
N4 Cu1 1_555 1_555
N5 C9 1_555 1_555
C1 C2 1_555 1_555
C3 C1 1_555 1_555
C4 C1 1_555 1_555
C5 N4 1_555 1_555
H1 C5 1_555 1_555
C6 C5 1_555 1_555
H2 C6 1_555 1_555
C7 C6 1_555 1_555
H3 C7 1_555 1_555
C8 C7 1_555 1_555
H4 C8 1_555 1_555
C9 N4 1_555 1_555
C10 N5 1_555 1_555
H5 C10 1_555 1_555
H6 C10 1_555 1_555
H7 C10 1_555 1_555
C11 O2 1_555 1_555
H8 C11 1_555 1_555
H9 C11 1_555 1_555
H10 C11 1_555 1_555
H11 N1 1_555 1_555
H12 N1 1_555 1_555
H13 N5 1_555 1_555
Cu2 O3 1_555 1_555
O3 C15 1_555 1_555
O4 Cu2 1_555 1_555
N6 C15 1_555 1_555
N7 C13 1_555 1_555
N8 C14 1_555 1_555
N9 Cu2 1_555 1_555
N10 C20 1_555 1_555
C12 C13 1_555 1_555
C14 C12 1_555 1_555
C15 C12 1_555 1_555
C16 N9 1_555 1_555
H14 C16 1_555 1_555
C17 C16 1_555 1_555
H15 C17 1_555 1_555
C18 C17 1_555 1_555
H16 C18 1_555 1_555
C19 C18 1_555 1_555
H17 C19 1_555 1_555
C20 N9 1_555 1_555
C21 N10 1_555 1_555
H18 C21 1_555 1_555
H19 C21 1_555 1_555
H20 C21 1_555 1_555
C22 O4 1_555 1_555
H21 C22 1_555 1_555
H22 C22 1_555 1_555
H23 C22 1_555 1_555
H24 N6 1_555 1_555
H25 N6 1_555 1_555
H26 N10 1_555 1_555
Cu1A O2 1_555 1_555
Cu1A_2 N2 1_555 1_555
O2A Cu1 1_555 1_555
N2A Cu1 1_555 1_555
Cu2A O4 1_555 1_555
Cu2A_2 N7 1_555 1_555
O4A Cu2 1_555 1_555
N7A Cu2 1_555 1_555
C8 C9 1_555 1_555
C19 C20 1_555 1_555
Cu1A O2A 1_555 1_555
Cu2A O4A 1_555 1_555

#END
