
#######################################################################
#
#                 Cambridge Crystallographic Data Centre
#                                CCDC 
#
#######################################################################
#
# If this CIF has been generated from an entry in the Cambridge 
# Structural Database, then it will include bibliographic, chemical, 
# crystal, experimental, refinement or atomic coordinate data resulting 
# from the CCDC's data processing and validation procedures.
#
#######################################################################

data_BUNHOI
_symmetry_cell_setting           monoclinic
_symmetry_space_group_name_H-M   'P 21/c'
_symmetry_Int_Tables_number      14
_space_group_name_Hall           '-P 2ybc'
loop_
_symmetry_equiv_pos_site_id
_symmetry_equiv_pos_as_xyz
1 x,y,z
2 -x,1/2+y,1/2-z
3 -x,-y,-z
4 x,1/2-y,1/2+z
_cell_length_a                   10.028(2)
_cell_length_b                   7.4080(12)
_cell_length_c                   15.469(3)
_cell_angle_alpha                90
_cell_angle_beta                 107.043(10)
_cell_angle_gamma                90
_cell_volume                     1098.69
loop_
_atom_site_label
_atom_site_type_symbol
_atom_site_fract_x
_atom_site_fract_y
_atom_site_fract_z
Cu1 Cu 0.60433(6) 0.63825(8) 0.05442(4)
O1 O 0.4440(4) 0.7646(5) 0.1182(3)
N1 N 0.2728(6) 0.5557(7) 0.0938(4)
C1 C 0.2218(5) 0.8484(7) 0.0263(4)
H1 H 0.340(7) 0.489(9) 0.122(4)
O2 O 0.5415(4) 0.3943(5) 0.0599(3)
N2 N 0.3197(5) 1.1453(6) -0.0119(3)
C2 C 0.2728(5) 1.0133(8) 0.0059(4)
H2 H 0.191(8) 0.530(9) 0.070(5)
N3 N -0.0300(5) 0.7429(7) -0.0470(4)
C3 C 0.0821(6) 0.7977(7) -0.0158(4)
N4 N 0.7566(5) 0.6388(5) 0.1745(3)
C4 C 0.3202(5) 0.7228(7) 0.0821(4)
C5 C 0.7358(6) 0.4969(7) 0.2375(4)
H3 H 0.6514 0.5266 0.2555
H4 H 0.8165 0.4982 0.2928
C6 C 0.7198(6) 0.3082(8) 0.1976(4)
H5 H 0.7896 0.2910 0.1644
H6 H 0.7401 0.2192 0.2475
C7 C 0.5761(6) 0.2702(8) 0.1340(4)
H7 H 0.5731 0.1455 0.1105
H8 H 0.5061 0.2797 0.1675
C8 C 0.8987(6) 0.6185(8) 0.1626(4)
H9 H 0.9128 0.7120 0.1214
H10 H 0.9068 0.4991 0.1374
H11 H 0.9694 0.6310 0.2214
C9 C 0.7548(6) 0.8157(8) 0.2210(4)
H12 H 0.8238 0.8133 0.2808
H13 H 0.6618 0.8362 0.2277
H14 H 0.7775 0.9132 0.1849
Cu1B Cu 0.39567(6) 0.36175(8) -0.05442(4)
Cu1B_2 Cu 0.39567(6) 1.36175(8) -0.05442(4)
O2B O 0.4585(4) 0.6057(5) -0.0599(3)
N2B N 0.6803(5) 0.8547(6) 0.0119(3)
loop_
_geom_bond_atom_site_label_1
_geom_bond_atom_site_label_2
_geom_bond_site_symmetry_1
_geom_bond_site_symmetry_2
Cu1 O1 1_555 1_555
O1 C4 1_555 1_555
N1 H1 1_555 1_555
C1 C2 1_555 1_555
O2 Cu1 1_555 1_555
N2 C2 1_555 1_555
H2 N1 1_555 1_555
N3 C3 1_555 1_555
C3 C1 1_555 1_555
N4 Cu1 1_555 1_555
C4 N1 1_555 1_555
C5 N4 1_555 1_555
H3 C5 1_555 1_555
H4 C5 1_555 1_555
C6 C5 1_555 1_555
H5 C6 1_555 1_555
H6 C6 1_555 1_555
C7 O2 1_555 1_555
H7 C7 1_555 1_555
H8 C7 1_555 1_555
C8 N4 1_555 1_555
H9 C8 1_555 1_555
H10 C8 1_555 1_555
H11 C8 1_555 1_555
C9 N4 1_555 1_555
H12 C9 1_555 1_555
H13 C9 1_555 1_555
H14 C9 1_555 1_555
Cu1B O2 1_555 1_555
Cu1B_2 N2 1_555 1_555
O2B Cu1 1_555 1_555
N2B Cu1 1_555 1_555
C1 C4 1_555 1_555
C6 C7 1_555 1_555
Cu1B O2B 1_555 1_555

#END
