
#######################################################################
#
#                 Cambridge Crystallographic Data Centre
#                                CCDC 
#
#######################################################################
#
# If this CIF has been generated from an entry in the Cambridge 
# Structural Database, then it will include bibliographic, chemical, 
# crystal, experimental, refinement or atomic coordinate data resulting 
# from the CCDC's data processing and validation procedures.
#
#######################################################################

data_BUNHEY
_symmetry_cell_setting           monoclinic
_symmetry_space_group_name_H-M   'P 21/c'
_symmetry_Int_Tables_number      14
_space_group_name_Hall           '-P 2ybc'
loop_
_symmetry_equiv_pos_site_id
_symmetry_equiv_pos_as_xyz
1 x,y,z
2 -x,1/2+y,1/2-z
3 -x,-y,-z
4 x,1/2-y,1/2+z
_cell_length_a                   12.2621(2)
_cell_length_b                   13.4690(5)
_cell_length_c                   7.5156(5)
_cell_angle_alpha                90
_cell_angle_beta                 96.642(2)
_cell_angle_gamma                90
_cell_volume                     1232.93
loop_
_atom_site_label
_atom_site_type_symbol
_atom_site_fract_x
_atom_site_fract_y
_atom_site_fract_z
Cu1 Cu 0.5000 0.5000 0.0000
O1 O 0.8751(5) 0.5305(5) -0.6426(8)
C1 C 0.6513(6) 0.5622(6) -0.6658(10)
N1 N 0.6165(6) 0.5577(6) -0.2173(10)
N2 N 0.5919(5) 0.3765(5) 0.0411(9)
N3 N 0.5973(5) 0.5676(5) -0.8015(9)
C2 C 0.8343(7) 0.5376(7) -0.4984(12)
C3 C 0.6604(7) 0.5582(6) -0.3447(12)
N4 N 0.8950(6) 0.5261(6) -0.3401(10)
H1 H 0.9656 0.5132 -0.3358
H2 H 0.8644 0.5315 -0.2403
C4 C 0.7028(7) 0.3807(6) 0.0540(11)
H3 H 0.7369 0.4427 0.0362
C5 C 0.7163(6) 0.5556(6) -0.4995(11)
O2 O 0.9174(5) 0.3783(6) -0.0219(10)
H4 H 0.9856 0.3878 -0.0105
C6 C 0.8917(7) 0.3068(7) 0.1038(13)
H5 H 0.9219 0.3274 0.2261
H6 H 0.9244 0.2420 0.0777
C7 C 0.5455(7) 0.2875(7) 0.0641(12)
H7 H 0.4677 0.2837 0.0532
C8 C 0.7684(7) 0.2975(7) 0.0922(11)
C9 C 0.7182(7) 0.2073(7) 0.1159(11)
H8 H 0.7609 0.1491 0.1411
C10 C 0.6040(7) 0.2031(7) 0.1022(13)
H9 H 0.5677 0.1421 0.1192
Cu1_2 Cu 0.5000 0.5000 -1.0000
Cu1_3 Cu 0.5000 0.5000 1.0000
O1_2 O 0.8751(5) 0.5305(5) 0.3574(8)
C1_2 C 0.6513(6) 0.5622(6) 0.3342(10)
N1_2 N 0.6165(6) 0.5577(6) 0.7827(10)
N1B N 0.3835(6) 0.4423(6) 0.2173(10)
N2B N 0.4081(5) 0.6235(5) -0.0411(9)
N3_2 N 0.5973(5) 0.5676(5) 0.1985(9)
N3B N 0.4027(5) 0.4324(5) -0.1985(9)
C2_2 C 0.8343(7) 0.5376(7) 0.5016(12)
C3_2 C 0.6604(7) 0.5582(6) 0.6553(12)
N4_2 N 0.8950(6) 0.5261(6) 0.6599(10)
H1_2 H 0.9656 0.5132 0.6642
H2_2 H 0.8644 0.5315 0.7597
C4B C 0.2972(7) 0.6193(6) -0.0540(11)
H3B H 0.2631 0.5573 -0.0362
C5_2 C 0.7163(6) 0.5556(6) 0.5005(11)
O2B O 0.0826(5) 0.6217(6) 0.0219(10)
H4B H 0.0144 0.6122 0.0105
C6B C 0.1083(7) 0.6932(7) -0.1038(13)
H5B H 0.0781 0.6726 -0.2261
H6B H 0.0756 0.7580 -0.0777
C7B C 0.4545(7) 0.7125(7) -0.0641(12)
H7B H 0.5323 0.7163 -0.0532
C8B C 0.2316(7) 0.7025(7) -0.0922(11)
C9B C 0.2818(7) 0.7927(7) -0.1159(11)
H8B H 0.2391 0.8509 -0.1411
C10B C 0.3960(7) 0.7969(7) -0.1022(13)
H9B H 0.4323 0.8579 -0.1192
O3 O 0.8577(5) 0.6074(5) 0.0223(8)
H10 H 0.8629 0.5836 0.1262
C11 C 0.8140(8) 0.7058(7) 0.0240(13)
H11 H 0.7451 0.7049 0.0782
H12 H 0.8002 0.7307 -0.0991
H13 H 0.8669 0.7492 0.0939
loop_
_geom_bond_atom_site_label_1
_geom_bond_atom_site_label_2
_geom_bond_site_symmetry_1
_geom_bond_site_symmetry_2
Cu1 N1 1_555 1_555
O1 C2 1_555 1_555
C1 N3 1_555 1_555
N1 C3 1_555 1_555
N2 Cu1 1_555 1_555
N3 Cu1_2 1_555 1_555
C2 N4 1_555 1_555
C3 C5 1_555 1_555
N4 H1 1_555 1_555
H2 N4 1_555 1_555
C4 N2 1_555 1_555
H3 C4 1_555 1_555
C5 C1 1_555 1_555
O2 H4 1_555 1_555
C6 O2 1_555 1_555
H5 C6 1_555 1_555
H6 C6 1_555 1_555
C7 N2 1_555 1_555
H7 C7 1_555 1_555
C8 C4 1_555 1_555
C9 C8 1_555 1_555
H8 C9 1_555 1_555
C10 C7 1_555 1_555
H9 C10 1_555 1_555
O3 H10 1_555 1_555
C11 O3 1_555 1_555
H11 C11 1_555 1_555
H12 C11 1_555 1_555
H13 C11 1_555 1_555
Cu1_3 N1_2 1_555 1_555
O1_2 C2_2 1_555 1_555
C1_2 N3_2 1_555 1_555
N1_2 C3_2 1_555 1_555
N1B Cu1 1_555 1_555
N2B Cu1 1_555 1_555
N3_2 Cu1 1_555 1_555
N3B Cu1 1_555 1_555
C2_2 N4_2 1_555 1_555
C3_2 C5_2 1_555 1_555
N4_2 H1_2 1_555 1_555
H2_2 N4_2 1_555 1_555
C4B N2B 1_555 1_555
H3B C4B 1_555 1_555
C5_2 C1_2 1_555 1_555
O2B H4B 1_555 1_555
C6B O2B 1_555 1_555
H5B C6B 1_555 1_555
H6B C6B 1_555 1_555
C7B N2B 1_555 1_555
H7B C7B 1_555 1_555
C8B C4B 1_555 1_555
C9B C8B 1_555 1_555
H8B C9B 1_555 1_555
C10B C7B 1_555 1_555
H9B C10B 1_555 1_555
C2 C5 1_555 1_555
C6 C8 1_555 1_555
C9 C10 1_555 1_555
C2_2 C5_2 1_555 1_555
C6B C8B 1_555 1_555
C9B C10B 1_555 1_555

#END
