
#######################################################################
#
#                 Cambridge Crystallographic Data Centre
#                                CCDC 
#
#######################################################################
#
# If this CIF has been generated from an entry in the Cambridge 
# Structural Database, then it will include bibliographic, chemical, 
# crystal, experimental, refinement or atomic coordinate data resulting 
# from the CCDC's data processing and validation procedures.
#
#######################################################################

data_BUNHAU
_symmetry_cell_setting           triclinic
_symmetry_space_group_name_H-M   'P -1'
_symmetry_Int_Tables_number      2
_space_group_name_Hall           '-P 1'
loop_
_symmetry_equiv_pos_site_id
_symmetry_equiv_pos_as_xyz
1 x,y,z
2 -x,-y,-z
_cell_length_a                   7.5275(4)
_cell_length_b                   8.1635(5)
_cell_length_c                   11.5043(8)
_cell_angle_alpha                90.562(2)
_cell_angle_beta                 107.839(2)
_cell_angle_gamma                114.191(2)
_cell_volume                     606.36
loop_
_atom_site_label
_atom_site_type_symbol
_atom_site_fract_x
_atom_site_fract_y
_atom_site_fract_z
Cu1 Cu 0.0000 0.0000 0.0000
O1 O 0.0190(4) 0.3441(3) 0.3921(2)
N1 N -0.2727(6) 0.3361(5) 0.4121(3)
C1 C -0.2984(6) 0.1356(5) 0.2471(3)
H1 H -0.197(7) 0.426(6) 0.474(4)
N2 N -0.1283(5) 0.0180(4) 0.1292(3)
C2 C -0.2018(6) 0.0741(5) 0.1830(3)
H2 H -0.395(7) 0.290(6) 0.390(4)
N3 N -0.6961(5) -0.0023(4) 0.1580(3)
C3 C -0.5176(6) 0.0608(5) 0.1984(3)
H3 H 0.269(7) 0.304(6) 0.224(5)
N4 N 0.1599(5) 0.2707(4) 0.0374(3)
C4 C -0.1762(6) 0.2765(5) 0.3542(3)
N5 N 0.2576(5) 0.3484(4) 0.1596(3)
C5 C 0.1927(6) 0.4087(5) -0.0268(4)
C6 C 0.3123(7) 0.5743(5) 0.0557(4)
H4 H 0.3579 0.6932 0.0345
C7 C 0.3497(6) 0.5297(5) 0.1727(4)
C8 C 0.1107(7) 0.3810(5) -0.1630(4)
H5 H 0.2226 0.3995 -0.1954
H6 H 0.0539 0.4683 -0.1903
H7 H 0.0012 0.2570 -0.1938
C9 C 0.4616(7) 0.6433(5) 0.2981(4)
H8 H 0.3982 0.7241 0.3073
H9 H 0.6074 0.7163 0.3077
H10 H 0.4524 0.5640 0.3616
Cu1_2 Cu -1.0000 0.0000 0.0000
Cu1_3 Cu 1.0000 0.0000 0.0000
O1_2 O 1.0190(4) 0.3441(3) 0.3921(2)
N1_2 N 0.7273(6) 0.3361(5) 0.4121(3)
C1_2 C 0.7016(6) 0.1356(5) 0.2471(3)
H1_2 H 0.803(7) 0.426(6) 0.474(4)
N2_2 N 0.8717(5) 0.0180(4) 0.1292(3)
N2A N 0.1283(5) -0.0180(4) -0.1292(3)
C2_2 C 0.7982(6) 0.0741(5) 0.1830(3)
H2_2 H 0.605(7) 0.290(6) 0.390(4)
N3_2 N 0.3039(5) -0.0023(4) 0.1580(3)
N3A N -0.3039(5) 0.0023(4) -0.1580(3)
C3_2 C 0.4824(6) 0.0608(5) 0.1984(3)
H3A H -0.269(7) -0.304(6) -0.224(5)
N4A N -0.1599(5) -0.2707(4) -0.0374(3)
C4_2 C 0.8238(6) 0.2765(5) 0.3542(3)
N5A N -0.2576(5) -0.3484(4) -0.1596(3)
C5A C -0.1927(6) -0.4087(5) 0.0268(4)
C6A C -0.3123(7) -0.5743(5) -0.0557(4)
H4A H -0.3579 -0.6932 -0.0345
C7A C -0.3497(6) -0.5297(5) -0.1727(4)
C8A C -0.1107(7) -0.3810(5) 0.1630(4)
H5A H -0.2226 -0.3995 0.1954
H6A H -0.0539 -0.4683 0.1903
H7A H -0.0012 -0.2570 0.1938
C9A C -0.4616(7) -0.6433(5) -0.2981(4)
H8A H -0.3982 -0.7241 -0.3073
H9A H -0.6074 -0.7163 -0.3077
H10A H -0.4524 -0.5640 -0.3616
H11 H 0.200(8) 0.236(6) 0.390(4)
O2 O 0.2841(5) 0.2045(4) 0.3900(2)
C10 C 0.2187(7) 0.0301(5) 0.4275(4)
H12 H 0.3126 -0.0225 0.4226
H13 H 0.0778 -0.0493 0.3729
H14 H 0.2206 0.0421 0.5128
loop_
_geom_bond_atom_site_label_1
_geom_bond_atom_site_label_2
_geom_bond_site_symmetry_1
_geom_bond_site_symmetry_2
Cu1 N2 1_555 1_555
O1 C4 1_555 1_555
N1 H1 1_555 1_555
C1 C2 1_555 1_555
N2 C2 1_555 1_555
H2 N1 1_555 1_555
N3 C3 1_555 1_555
C3 C1 1_555 1_555
H3 N5 1_555 1_555
N4 Cu1 1_555 1_555
C4 N1 1_555 1_555
N5 N4 1_555 1_555
C5 N4 1_555 1_555
C6 C5 1_555 1_555
H4 C6 1_555 1_555
C7 N5 1_555 1_555
C8 C5 1_555 1_555
H5 C8 1_555 1_555
H6 C8 1_555 1_555
H7 C8 1_555 1_555
C9 C7 1_555 1_555
H8 C9 1_555 1_555
H9 C9 1_555 1_555
H10 C9 1_555 1_555
H11 O2 1_555 1_555
O2 C10 1_555 1_555
C10 H12 1_555 1_555
H13 C10 1_555 1_555
H14 C10 1_555 1_555
Cu1_2 N3 1_555 1_555
Cu1_3 N2_2 1_555 1_555
O1_2 C4_2 1_555 1_555
N1_2 H1_2 1_555 1_555
C1_2 C2_2 1_555 1_555
N2_2 C2_2 1_555 1_555
N2A Cu1 1_555 1_555
H2_2 N1_2 1_555 1_555
N3_2 Cu1 1_555 1_555
N3A Cu1 1_555 1_555
C3_2 C1_2 1_555 1_555
H3A N5A 1_555 1_555
N4A Cu1 1_555 1_555
C4_2 N1_2 1_555 1_555
N5A N4A 1_555 1_555
C5A N4A 1_555 1_555
C6A C5A 1_555 1_555
H4A C6A 1_555 1_555
C7A N5A 1_555 1_555
C8A C5A 1_555 1_555
H5A C8A 1_555 1_555
H6A C8A 1_555 1_555
H7A C8A 1_555 1_555
C9A C7A 1_555 1_555
H8A C9A 1_555 1_555
H9A C9A 1_555 1_555
H10A C9A 1_555 1_555
C1 C4 1_555 1_555
C6 C7 1_555 1_555
C1_2 C4_2 1_555 1_555
N3_2 C3_2 1_555 1_555
C6A C7A 1_555 1_555

#END
