
#######################################################################
#
#                 Cambridge Crystallographic Data Centre
#                                CCDC 
#
#######################################################################
#
# If this CIF has been generated from an entry in the Cambridge 
# Structural Database, then it will include bibliographic, chemical, 
# crystal, experimental, refinement or atomic coordinate data resulting 
# from the CCDC's data processing and validation procedures.
#
#######################################################################

data_BUNJUQ
_symmetry_cell_setting           monoclinic
_symmetry_space_group_name_H-M   'C 2/c'
_symmetry_Int_Tables_number      15
_space_group_name_Hall           '-C 2yn'
loop_
_symmetry_equiv_pos_site_id
_symmetry_equiv_pos_as_xyz
1 x,y,z
2 -x,y,1/2-z
3 1/2+x,1/2+y,z
4 1/2-x,1/2+y,1/2-z
5 -x,-y,-z
6 x,-y,1/2+z
7 1/2-x,1/2-y,-z
8 1/2+x,1/2-y,1/2+z
_cell_length_a                   13.6510(16)
_cell_length_b                   11.4882(13)
_cell_length_c                   15.2282(17)
_cell_angle_alpha                90
_cell_angle_beta                 105.284(2)
_cell_angle_gamma                90
_cell_volume                     2303.7
loop_
_atom_site_label
_atom_site_type_symbol
_atom_site_fract_x
_atom_site_fract_y
_atom_site_fract_z
Pb1 Pb 0.0000 0.41281(2) 0.2500
Br1 Br 0.35241(4) 0.53749(5) 0.41198(4)
Br2 Br 0.49573(4) 0.74613(6) 0.53047(6)
O1 O 0.1038(3) 0.4783(4) 0.4279(3)
O2 O 0.0947(4) 0.5902(4) 0.3089(4)
O3 O 0.3775(4) 0.7269(4) 0.1384(3)
N1 N 0.1681(4) 0.4228(5) 0.1841(4)
N2 N 0.2400(4) 0.6991(4) 0.0210(3)
H1 H 0.1874 0.6576 -0.0032
C1 C 0.1237(4) 0.5679(5) 0.3921(4)
C2 C 0.1899(4) 0.6607(4) 0.4504(3)
C3 C 0.2941(4) 0.6613(4) 0.4631(3)
C4 C 0.3540(4) 0.7482(4) 0.5121(3)
C5 C 0.2449(5) 0.3500(5) 0.2137(4)
H2 H 0.2321 0.2797 0.2388
C6 C 0.3422(5) 0.3725(5) 0.2095(4)
H3 H 0.3937 0.3185 0.2310
C7 C 0.3623(4) 0.4771(5) 0.1727(4)
H4 H 0.4280 0.4954 0.1707
C8 C 0.2832(4) 0.5541(5) 0.1390(3)
C9 C 0.1868(4) 0.5229(5) 0.1455(4)
H5 H 0.1330 0.5734 0.1223
C10 C 0.3046(4) 0.6675(5) 0.0998(3)
Pb1F Pb 0.5000 1.08719(2) 0.7500
Pb1F_2 Pb 0.5000 1.08719(2) -0.2500
Br1F Br 0.14759(4) 0.96251(5) 0.58802(4)
Br2F Br 0.00427(4) 0.75387(6) 0.46953(6)
O1F O 0.3962(3) 1.0217(4) 0.5721(3)
O1A O -0.1038(3) 0.4783(4) 0.0721(3)
O2F O 0.4053(4) 0.9098(4) 0.6911(4)
O2A O -0.0947(4) 0.5902(4) 0.1911(4)
O3F O 0.1225(4) 0.7731(4) -0.1384(3)
N1F N 0.3319(4) 1.0772(5) -0.1841(4)
N1A N -0.1681(4) 0.4228(5) 0.3159(4)
N2F N 0.2600(4) 0.8009(4) -0.0210(3)
H1F H 0.3126 0.8424 0.0032
C1F C 0.3763(4) 0.9321(5) 0.6079(4)
C2F C 0.3101(4) 0.8393(4) 0.5496(3)
C3F C 0.2059(4) 0.8387(4) 0.5369(3)
C4F C 0.1460(4) 0.7518(4) 0.4879(3)
C5F C 0.2551(5) 1.1500(5) -0.2137(4)
H2F H 0.2679 1.2203 -0.2388
C6F C 0.1578(5) 1.1275(5) -0.2095(4)
H3F H 0.1063 1.1815 -0.2310
C7F C 0.1377(4) 1.0229(5) -0.1727(4)
H4F H 0.0720 1.0046 -0.1707
C8F C 0.2168(4) 0.9459(5) -0.1390(3)
C9F C 0.3132(4) 0.9771(5) -0.1455(4)
H5F H 0.3670 0.9266 -0.1223
C10F C 0.1954(4) 0.8325(5) -0.0998(3)
loop_
_geom_bond_atom_site_label_1
_geom_bond_atom_site_label_2
_geom_bond_site_symmetry_1
_geom_bond_site_symmetry_2
Pb1 O1 1_555 1_555
Br1 C3 1_555 1_555
Br2 C4 1_555 1_555
O1 C1 1_555 1_555
O2 Pb1 1_555 1_555
O3 C10 1_555 1_555
N1 Pb1 1_555 1_555
N2 H1 1_555 1_555
C1 O2 1_555 1_555
C2 C1 1_555 1_555
C3 C2 1_555 1_555
C4 C3 1_555 1_555
C5 N1 1_555 1_555
H2 C5 1_555 1_555
C6 C5 1_555 1_555
H3 C6 1_555 1_555
C7 C6 1_555 1_555
H4 C7 1_555 1_555
C8 C7 1_555 1_555
C9 N1 1_555 1_555
H5 C9 1_555 1_555
C10 N2 1_555 1_555
Pb1F O1F 1_555 1_555
Pb1F_2 N1F 1_555 1_555
Br1F C3F 1_555 1_555
Br2F C4F 1_555 1_555
O1F C1F 1_555 1_555
O1A Pb1 1_555 1_555
O2F Pb1F 1_555 1_555
O2A Pb1 1_555 1_555
O3F C10F 1_555 1_555
N1F C5F 1_555 1_555
N1A Pb1 1_555 1_555
N2F N2 1_555 1_555
H1F N2F 1_555 1_555
C1F O2F 1_555 1_555
C2F C4 1_555 1_555
C3F C2F 1_555 1_555
C4F C2 1_555 1_555
C5F H2F 1_555 1_555
C6F C5F 1_555 1_555
H3F C6F 1_555 1_555
C7F C6F 1_555 1_555
H4F C7F 1_555 1_555
C8F C7F 1_555 1_555
C9F N1F 1_555 1_555
H5F C9F 1_555 1_555
C10F N2F 1_555 1_555
C8 C9 1_555 1_555
C8 C10 1_555 1_555
C1F C2F 1_555 1_555
C3F C4F 1_555 1_555
C8F C9F 1_555 1_555
C8F C10F 1_555 1_555

#END
