
#######################################################################
#
#                 Cambridge Crystallographic Data Centre
#                                CCDC 
#
#######################################################################
#
# If this CIF has been generated from an entry in the Cambridge 
# Structural Database, then it will include bibliographic, chemical, 
# crystal, experimental, refinement or atomic coordinate data resulting 
# from the CCDC's data processing and validation procedures.
#
#######################################################################

data_BUNJOK
_symmetry_cell_setting           triclinic
_symmetry_space_group_name_H-M   'P -1'
_symmetry_Int_Tables_number      2
_space_group_name_Hall           '-P 1'
loop_
_symmetry_equiv_pos_site_id
_symmetry_equiv_pos_as_xyz
1 x,y,z
2 -x,-y,-z
_cell_length_a                   8.654(3)
_cell_length_b                   8.849(3)
_cell_length_c                   11.528(4)
_cell_angle_alpha                89.170(5)
_cell_angle_beta                 84.792(5)
_cell_angle_gamma                83.096(4)
_cell_volume                     872.781
loop_
_atom_site_label
_atom_site_type_symbol
_atom_site_fract_x
_atom_site_fract_y
_atom_site_fract_z
Co1 Co 0.0000 0.0000 1.0000
Br1 Br 0.19522(4) 0.25137(3) 1.36078(2)
Br2 Br 0.06103(4) 0.30692(3) 1.63520(2)
O1 O 0.4488(2) 0.3100(2) 0.72690(18)
O2 O -0.0053(2) -0.0048(2) 1.18411(16)
O3 O 0.2394(3) -0.0917(3) 1.22105(18)
O4 O 0.2232(2) -0.1310(2) 0.99189(18)
H1 H 0.2372 -0.1299 1.0639
H2 H 0.3013 -0.1144 0.9453
N1 N 0.1087(3) 0.2071(3) 0.9952(2)
N2 N 0.4988(3) 0.5120(3) 0.8197(2)
N3 N 0.5961(3) 0.4973(3) 0.7152(2)
C1 C 0.6505(5) 0.1368(4) 0.3977(4)
H5 H 0.6333 0.0430 0.3692
C2 C 0.2200(4) 0.2375(3) 0.9117(3)
H6 H 0.2485 0.1682 0.8514
C3 C 0.0700(4) 0.3088(3) 1.0817(3)
H7 H -0.0068 0.2891 1.1398
C4 C 0.1386(4) 0.4407(4) 1.0884(3)
H8 H 0.1092 0.5074 1.1503
C5 C 0.2506(4) 0.4722(4) 1.0027(3)
H9 H 0.2970 0.5615 1.0048
C6 C 0.2938(4) 0.3687(3) 0.9123(3)
C7 C 0.4149(4) 0.4007(4) 0.8218(3)
C8 C 0.5623(4) 0.3784(4) 0.6641(3)
C9 C 0.6228(4) 0.3196(4) 0.5491(3)
C10 C 0.5957(5) 0.1804(4) 0.5097(3)
H10 H 0.5409 0.1162 0.5580
C11 C 0.7306(4) 0.2339(4) 0.3296(3)
H11 H 0.7651 0.2041 0.2537
N4 N 0.7627(4) 0.3693(4) 0.3647(3)
C12 C 0.7083(4) 0.4092(4) 0.4743(3)
H12 H 0.7292 0.5024 0.5016
C13 C 0.1019(3) -0.0418(3) 1.2497(2)
C14 C 0.0520(3) -0.0209(3) 1.3803(2)
C15 C 0.0799(3) 0.1070(3) 1.4397(2)
C16 C 0.0277(3) 0.1286(3) 1.5574(2)
Co1_2 Co 0.0000 0.0000 2.0000
Br1A Br -0.19522(4) -0.25137(3) 1.63922(2)
Br2A Br -0.06103(4) -0.30692(3) 1.36480(2)
O1A O -0.4488(2) -0.3100(2) 1.27310(18)
O2A O 0.0053(2) 0.0048(2) 1.81589(16)
O2A_2 O 0.0053(2) 0.0048(2) 0.81589(16)
O3A O -0.2394(3) 0.0917(3) 1.77895(18)
O4A O -0.2232(2) 0.1310(2) 1.00811(18)
H1A H -0.2372 0.1299 0.9361
H2A H -0.3013 0.1144 1.0547
N1A N -0.1087(3) -0.2071(3) 1.0048(2)
N2A N -0.4988(3) -0.5120(3) 1.1803(2)
N3A N -0.5961(3) -0.4973(3) 1.2848(2)
C1A C -0.6505(5) -0.1368(4) 1.6023(4)
H5A H -0.6333 -0.0430 1.6308
C2A C -0.2200(4) -0.2375(3) 1.0883(3)
H6A H -0.2485 -0.1682 1.1486
C3A C -0.0700(4) -0.3088(3) 0.9183(3)
H7A H 0.0068 -0.2891 0.8602
C4A C -0.1386(4) -0.4407(4) 0.9116(3)
H8A H -0.1092 -0.5074 0.8497
C5A C -0.2506(4) -0.4722(4) 0.9973(3)
H9A H -0.2970 -0.5615 0.9952
C6A C -0.2938(4) -0.3687(3) 1.0877(3)
C7A C -0.4149(4) -0.4007(4) 1.1782(3)
C8A C -0.5623(4) -0.3784(4) 1.3359(3)
C9A C -0.6228(4) -0.3196(4) 1.4509(3)
C10A C -0.5957(5) -0.1804(4) 1.4903(3)
H10A H -0.5409 -0.1162 1.4420
C11A C -0.7306(4) -0.2339(4) 1.6704(3)
H11A H -0.7651 -0.2041 1.7463
N4A N -0.7627(4) -0.3693(4) 1.6353(3)
C12A C -0.7083(4) -0.4092(4) 1.5257(3)
H12A H -0.7292 -0.5024 1.4984
C13A C -0.1019(3) 0.0418(3) 1.7503(2)
C14A C -0.0520(3) 0.0209(3) 1.6197(2)
C15A C -0.0799(3) -0.1070(3) 1.5603(2)
C16A C -0.0277(3) -0.1286(3) 1.4426(2)
O5 O 0.4913(4) 0.1226(5) 0.1323(3)
H3 H 0.5150 0.0398 0.1686
H4 H 0.3970 0.1634 0.1436
loop_
_geom_bond_atom_site_label_1
_geom_bond_atom_site_label_2
_geom_bond_site_symmetry_1
_geom_bond_site_symmetry_2
Co1 O2 1_555 1_555
Br1 C15 1_555 1_555
Br2 C16 1_555 1_555
O1 C7 1_555 1_555
O2 C13 1_555 1_555
O3 C13 1_555 1_555
O4 Co1 1_555 1_555
H1 O4 1_555 1_555
H2 O4 1_555 1_555
O5 H3 1_555 1_555
H4 O5 1_555 1_555
N1 Co1 1_555 1_555
N2 N3 1_555 1_555
N3 C8 1_555 1_555
C1 H5 1_555 1_555
C2 N1 1_555 1_555
H6 C2 1_555 1_555
C3 N1 1_555 1_555
H7 C3 1_555 1_555
C4 C3 1_555 1_555
H8 C4 1_555 1_555
C5 C4 1_555 1_555
H9 C5 1_555 1_555
C6 C2 1_555 1_555
C7 N2 1_555 1_555
C8 O1 1_555 1_555
C9 C8 1_555 1_555
C10 C1 1_555 1_555
H10 C10 1_555 1_555
C11 C1 1_555 1_555
H11 C11 1_555 1_555
N4 C11 1_555 1_555
C12 C9 1_555 1_555
H12 C12 1_555 1_555
C13 C14 1_555 1_555
C14 C15 1_555 1_555
C15 C16 1_555 1_555
C16 C14A 1_555 1_555
Co1_2 O2A 1_555 1_555
Br1A C15A 1_555 1_555
Br2A C16A 1_555 1_555
O1A C7A 1_555 1_555
O2A C13A 1_555 1_555
O2A_2 Co1 1_555 1_555
O3A C13A 1_555 1_555
O4A Co1 1_555 1_555
H1A O4A 1_555 1_555
H2A O4A 1_555 1_555
N1A Co1 1_555 1_555
N2A N3A 1_555 1_555
N3A C8A 1_555 1_555
C1A H5A 1_555 1_555
C2A N1A 1_555 1_555
H6A C2A 1_555 1_555
C3A N1A 1_555 1_555
H7A C3A 1_555 1_555
C4A C3A 1_555 1_555
H8A C4A 1_555 1_555
C5A C4A 1_555 1_555
H9A C5A 1_555 1_555
C6A C2A 1_555 1_555
C7A N2A 1_555 1_555
C8A O1A 1_555 1_555
C9A C8A 1_555 1_555
C10A C1A 1_555 1_555
H10A C10A 1_555 1_555
C11A C1A 1_555 1_555
H11A C11A 1_555 1_555
N4A C11A 1_555 1_555
C12A C9A 1_555 1_555
H12A C12A 1_555 1_555
C13A C14A 1_555 1_555
C14A C15A 1_555 1_555
C15A C16A 1_555 1_555
C16A C14 1_555 1_555
C5 C6 1_555 1_555
C6 C7 1_555 1_555
C9 C10 1_555 1_555
N4 C12 1_555 1_555
C5A C6A 1_555 1_555
C6A C7A 1_555 1_555
C9A C10A 1_555 1_555
N4A C12A 1_555 1_555

#END
