
#######################################################################
#
#                 Cambridge Crystallographic Data Centre
#                                CCDC 
#
#######################################################################
#
# If this CIF has been generated from an entry in the Cambridge 
# Structural Database, then it will include bibliographic, chemical, 
# crystal, experimental, refinement or atomic coordinate data resulting 
# from the CCDC's data processing and validation procedures.
#
#######################################################################

data_BUNLIH
_symmetry_cell_setting           monoclinic
_symmetry_space_group_name_H-M   'P 21/n'
_symmetry_Int_Tables_number      14
_space_group_name_Hall           '-P 2yn'
loop_
_symmetry_equiv_pos_site_id
_symmetry_equiv_pos_as_xyz
1 x,y,z
2 1/2-x,1/2+y,1/2-z
3 -x,-y,-z
4 1/2+x,1/2-y,1/2+z
_cell_length_a                   8.4940(9)
_cell_length_b                   31.934(4)
_cell_length_c                   10.1921(11)
_cell_angle_alpha                90
_cell_angle_beta                 106.524(2)
_cell_angle_gamma                90
_cell_volume                     2650.41
loop_
_atom_site_label
_atom_site_type_symbol
_atom_site_fract_x
_atom_site_fract_y
_atom_site_fract_z
C1 C 0.8206(4) 0.45619(12) 0.2494(3)
C2 C 0.7926(4) 0.47939(11) 0.3689(3)
C3 C 0.7204(5) 0.51868(13) 0.3550(4)
H1 H 0.6900 0.5318 0.2700
C4 C 0.6935(6) 0.53845(13) 0.4680(4)
H2 H 0.6446 0.5648 0.4585
C5 C 0.7394(5) 0.51906(13) 0.5954(4)
H3 H 0.7186 0.5321 0.6704
C6 C 0.8161(4) 0.48032(11) 0.6107(3)
C7 C 0.8412(4) 0.46059(11) 0.4969(3)
H4 H 0.8913 0.4344 0.5066
C8 C 0.8719(5) 0.45889(12) 0.7479(3)
C9 C 0.5762(5) 0.39784(13) -0.1721(4)
H5 H 0.5678 0.4173 -0.2417
C10 C 0.4655(5) 0.36799(14) -0.1712(4)
H6 H 0.3673 0.3632 -0.2386
C11 C 0.6703(4) 0.36357(11) 0.0164(4)
H7 H 0.7365 0.3546 0.1009
C12 C 0.4432(5) 0.31382(12) 0.0022(4)
C13 C 0.5321(6) 0.28289(15) 0.0840(5)
H8 H 0.6455 0.2817 0.1014
C14 C 0.4503(7) 0.25335(16) 0.1407(5)
H9 H 0.5094 0.2322 0.1959
C15 C 0.2834(6) 0.25528(15) 0.1155(4)
C16 C 0.1944(6) 0.28620(17) 0.0313(5)
H10 H 0.0807 0.2870 0.0134
C17 C 0.2727(5) 0.31593(15) -0.0265(5)
H11 H 0.2132 0.3368 -0.0829
C18 C 0.0715(6) 0.18679(15) 0.0579(5)
C19 C 0.1490(6) 0.15343(19) 0.0190(6)
H12 H 0.2573 0.1472 0.0661
C20 C 0.0645(5) 0.12884(16) -0.0915(5)
H13 H 0.1165 0.1062 -0.1186
C21 C -0.0944(5) 0.13795(11) -0.1598(4)
C22 C -0.1714(5) 0.17141(13) -0.1199(5)
H14 H -0.2797 0.1776 -0.1671
C23 C -0.0887(7) 0.19607(15) -0.0095(5)
H15 H -0.1412 0.2185 0.0182
C24 C -0.1207(5) 0.08653(11) -0.3539(4)
H16 H -0.0107 0.0831 -0.3499
C25 C -0.2496(5) 0.06765(12) -0.4420(4)
H17 H -0.2439 0.0490 -0.5105
C26 C -0.3459(4) 0.10703(11) -0.3115(3)
H18 H -0.4182 0.1206 -0.2722
N1 N 0.7050(4) 0.39521(9) -0.0533(3)
N2 N 0.5249(4) 0.34586(10) -0.0517(3)
N3 N -0.1825(3) 0.11201(9) -0.2703(3)
N4 N -0.3914(4) 0.08055(9) -0.4142(3)
O1 O 0.8132(3) 0.47706(8) 0.1409(2)
O2 O 0.8472(3) 0.41799(8) 0.2597(3)
O3 O 0.3025(6) 0.19508(15) 0.2894(4)
O4 O 0.0593(7) 0.24264(15) 0.2398(4)
O5 O 0.8339(4) 0.47695(8) 0.8465(2)
O6 O 0.9455(4) 0.42515(10) 0.7595(3)
S1 S 0.1805(2) 0.21938(5) 0.19388(13)
Zn1 Zn 0.87892(5) 0.440728(12) 0.00701(4)
N4C N 1.1086(4) 0.41945(9) 0.0858(3)
O5_2 O 0.8339(4) 0.47695(8) -0.1535(2)
Zn1_2 Zn 0.87892(5) 0.440728(12) 1.00701(4)
Zn1C Zn -0.62108(5) 0.059272(12) -0.49299(4)
O7 O 0.0786(6) 0.36242(18) 0.6386(9)
O8 O -0.0789(12) 0.3258(5) 0.3379(15)
loop_
_geom_bond_atom_site_label_1
_geom_bond_atom_site_label_2
_geom_bond_site_symmetry_1
_geom_bond_site_symmetry_2
C1 C2 1_555 1_555
C2 C3 1_555 1_555
C3 H1 1_555 1_555
C4 C3 1_555 1_555
H2 C4 1_555 1_555
C5 C4 1_555 1_555
H3 C5 1_555 1_555
C6 C5 1_555 1_555
C7 C2 1_555 1_555
H4 C7 1_555 1_555
C8 C6 1_555 1_555
C9 H5 1_555 1_555
C10 C9 1_555 1_555
H6 C10 1_555 1_555
C11 H7 1_555 1_555
C12 C13 1_555 1_555
C13 H8 1_555 1_555
C14 C13 1_555 1_555
H9 C14 1_555 1_555
C15 C14 1_555 1_555
C16 C15 1_555 1_555
H10 C16 1_555 1_555
C17 C12 1_555 1_555
H11 C17 1_555 1_555
C18 C19 1_555 1_555
C19 H12 1_555 1_555
C20 C19 1_555 1_555
H13 C20 1_555 1_555
C21 C20 1_555 1_555
C22 C21 1_555 1_555
H14 C22 1_555 1_555
C23 C18 1_555 1_555
H15 C23 1_555 1_555
C24 H16 1_555 1_555
C25 C24 1_555 1_555
H17 C25 1_555 1_555
C26 H18 1_555 1_555
N1 C9 1_555 1_555
N2 C10 1_555 1_555
N3 C21 1_555 1_555
N4 C25 1_555 1_555
O1 C1 1_555 1_555
O2 C1 1_555 1_555
O3 S1 1_555 1_555
O4 S1 1_555 1_555
O5 C8 1_555 1_555
O6 C8 1_555 1_555
S1 C15 1_555 1_555
Zn1 N1 1_555 1_555
N4C Zn1 1_555 1_555
O5_2 Zn1 1_555 1_555
Zn1_2 O5 1_555 1_555
Zn1C N4 1_555 1_555
C6 C7 1_555 1_555
C11 N1 1_555 1_555
C11 N2 1_555 1_555
C12 N2 1_555 1_555
C16 C17 1_555 1_555
C18 S1 1_555 1_555
C22 C23 1_555 1_555
C24 N3 1_555 1_555
C26 N3 1_555 1_555
C26 N4 1_555 1_555
O1 Zn1 1_555 1_555

#END
