
#######################################################################
#
#                 Cambridge Crystallographic Data Centre
#                                CCDC 
#
#######################################################################
#
# If this CIF has been generated from an entry in the Cambridge 
# Structural Database, then it will include bibliographic, chemical, 
# crystal, experimental, refinement or atomic coordinate data resulting 
# from the CCDC's data processing and validation procedures.
#
#######################################################################

data_BUNLON
_symmetry_cell_setting           triclinic
_symmetry_space_group_name_H-M   'P -1'
_symmetry_Int_Tables_number      2
_space_group_name_Hall           '-P 1'
loop_
_symmetry_equiv_pos_site_id
_symmetry_equiv_pos_as_xyz
1 x,y,z
2 -x,-y,-z
_cell_length_a                   9.8185(7)
_cell_length_b                   11.7979(8)
_cell_length_c                   12.0667(8)
_cell_angle_alpha                92.1130(10)
_cell_angle_beta                 96.5990(10)
_cell_angle_gamma                103.6810(10)
_cell_volume                     1346.15
loop_
_atom_site_label
_atom_site_type_symbol
_atom_site_fract_x
_atom_site_fract_y
_atom_site_fract_z
C1 C 0.7621(2) -0.3534(2) 0.93631(19)
C2 C 0.6115(2) -0.4106(2) 0.95772(19)
H1 H 0.5517 -0.3595 0.9297
C3 C 0.5519(3) -0.5296(2) 0.8955(2)
H2 H 0.6105 -0.5821 0.9192
H3 H 0.5537 -0.5218 0.8159
C4 C 0.3996(3) -0.5813(3) 0.9180(2)
H4 H 0.3394 -0.5329 0.8870
H5 H 0.3660 -0.6588 0.8805
C5 C 1.0201(3) -0.1222(2) 0.7055(2)
C6 C 1.0401(4) -0.0410(3) 0.6092(3)
H6 H 1.1244 0.0216 0.6347
C7 C 1.0702(3) -0.0969(3) 0.5052(2)
H7 H 0.9961 -0.1671 0.4831
H8 H 1.1587 -0.1200 0.5205
C8 C 1.0799(4) -0.0170(3) 0.4089(2)
H9 H 1.1678 0.0428 0.4233
H10 H 1.0827 -0.0624 0.3409
C9 C 1.1655(2) -0.1763(2) 1.01349(19)
H11 H 1.0874 -0.1558 1.0376
C10 C 1.2973(3) -0.2572(2) 0.9219(2)
H12 H 1.3252 -0.3044 0.8699
C11 C 1.3856(3) -0.1805(2) 0.9990(2)
H13 H 1.4837 -0.1655 1.0105
C12 C 1.3497(2) -0.03627(19) 1.14302(18)
C13 C 1.2769(2) 0.0498(2) 1.15093(19)
H14 H 1.1931 0.0450 1.1044
C14 C 1.3302(2) 0.1437(2) 1.2291(2)
H15 H 1.2821 0.2022 1.2357
C15 C 1.4552(2) 0.1496(2) 1.29685(19)
C16 C 1.5271(3) 0.0620(3) 1.2912(2)
H16 H 1.6098 0.0663 1.3389
C17 C 1.4736(3) -0.0323(2) 1.2131(2)
H17 H 1.5202 -0.0920 1.2079
C18 C 1.4121(2) 0.3140(2) 1.45962(19)
C19 C 1.3364(3) 0.3934(2) 1.4228(2)
H18 H 1.3481 0.4259 1.3544
C20 C 1.2426(3) 0.4240(2) 1.4892(2)
H19 H 1.1900 0.4766 1.4653
C21 C 1.2279(2) 0.3759(2) 1.59087(19)
C22 C 1.3017(3) 0.2944(2) 1.6270(2)
H20 H 1.2885 0.2610 1.6948
C23 C 1.3953(3) 0.2638(2) 1.5607(2)
H21 H 1.4463 0.2099 1.5839
C24 C 1.1140(2) 0.52011(19) 1.67221(19)
H22 H 1.1506 0.5812 1.6293
C25 C 1.0043(3) 0.4192(2) 1.7937(3)
H23 H 0.9492 0.3988 1.8510
C26 C 1.0664(3) 0.3469(2) 1.7402(3)
H24 H 1.0632 0.2692 1.7536
N1 N 1.1592(2) -0.25535(16) 0.93187(15)
N2 N 1.30100(19) -0.12893(16) 1.05742(15)
N3 N 1.1357(2) 0.41145(17) 1.66165(16)
N4 N 1.0342(2) 0.52793(17) 1.75132(17)
O1 O 0.8337(2) -0.26677(17) 0.99374(18)
O2 O 0.80564(19) -0.39669(19) 0.85272(16)
O3 O 0.9939(3) -0.23165(18) 0.68572(17)
O4 O 1.0316(3) -0.07529(19) 0.80048(17)
O5 O 1.5692(2) 0.37179(17) 1.30162(17)
O6 O 1.6532(2) 0.2589(2) 1.45288(18)
S1 S 1.53857(6) 0.28098(6) 1.37857(5)
Zn1 Zn 0.99144(2) -0.32317(2) 0.816875(19)
C1A C 0.2379(2) -0.6466(2) 1.06369(19)
C2A C 0.3885(2) -0.5894(2) 1.04228(19)
H1A H 0.4483 -0.6405 1.0703
C3A C 0.4481(3) -0.4704(2) 1.1045(2)
H2A H 0.3895 -0.4179 1.0808
H3A H 0.4463 -0.4782 1.1841
C4A C 0.6004(3) -0.4187(3) 1.0820(2)
H4A H 0.6606 -0.4671 1.1130
H5A H 0.6340 -0.3412 1.1195
O1A O 0.1663(2) -0.73323(17) 1.00626(18)
O2A O 0.19436(19) -0.60331(19) 1.14728(16)
C5A C 0.9799(3) 0.1222(2) 0.2945(2)
C6A C 0.9599(4) 0.0410(3) 0.3908(3)
H6A H 0.8756 -0.0216 0.3653
C7A C 0.9298(3) 0.0969(3) 0.4948(2)
H7A H 1.0039 0.1671 0.5169
H8A H 0.8413 0.1200 0.4795
C8A C 0.9201(4) 0.0170(3) 0.5911(2)
H9A H 0.8322 -0.0428 0.5767
H10A H 0.9173 0.0624 0.6591
O3A O 1.0061(3) 0.23165(18) 0.31428(17)
O4A O 0.9684(3) 0.07529(19) 0.19952(17)
C9A C -0.1655(2) -0.8237(2) 0.98651(19)
H11A H -0.0874 -0.8442 0.9624
C10A C -0.2973(3) -0.7428(2) 1.0781(2)
H12A H -0.3252 -0.6956 1.1301
C11A C -0.3856(3) -0.8195(2) 1.0010(2)
H13A H -0.4837 -0.8345 0.9895
C12A C -0.3497(2) -0.96373(19) 0.85698(18)
C13A C -0.2769(2) -1.0498(2) 0.84907(19)
H14A H -0.1931 -1.0450 0.8956
C14A C -0.3302(2) -1.1437(2) 0.7709(2)
H15A H -0.2821 -1.2022 0.7643
C15A C -0.4552(2) -1.1496(2) 0.70315(19)
C16A C -0.5271(3) -1.0620(3) 0.7088(2)
H16A H -0.6098 -1.0663 0.6611
C17A C -0.4736(3) -0.9677(2) 0.7869(2)
H17A H -0.5202 -0.9080 0.7921
C18A C -0.4121(2) -1.3140(2) 0.54038(19)
C19A C -0.3364(3) -1.3934(2) 0.5772(2)
H18A H -0.3481 -1.4259 0.6456
C20A C -0.2426(3) -1.4240(2) 0.5108(2)
H19A H -0.1900 -1.4766 0.5347
C21A C -0.2279(2) -1.3759(2) 0.40913(19)
C22A C -0.3017(3) -1.2944(2) 0.3730(2)
H20A H -0.2885 -1.2610 0.3052
C23A C -0.3953(3) -1.2638(2) 0.4393(2)
H21A H -0.4463 -1.2099 0.4161
C24A C -0.1140(2) -1.52011(19) 0.32779(19)
H22A H -0.1506 -1.5812 0.3707
C25A C -0.0043(3) -1.4192(2) 0.2063(3)
H23A H 0.0508 -1.3988 0.1490
C26A C -0.0664(3) -1.3469(2) 0.2598(3)
H24A H -0.0632 -1.2692 0.2464
N1A N -0.1592(2) -0.74465(16) 1.06813(15)
N2A N -0.30100(19) -0.87107(16) 0.94258(15)
N3A N -0.1357(2) -1.41145(17) 0.33835(16)
N4A N -0.0342(2) -1.52793(17) 0.24868(17)
O5A O -0.5692(2) -1.37179(17) 0.69838(17)
O6A O -0.6532(2) -1.2589(2) 0.54712(18)
S1A S -0.53857(6) -1.28098(6) 0.62143(5)
Zn1A Zn 0.00856(2) -0.67683(2) 1.183125(19)
N4_2 N 1.0342(2) -0.47207(17) 0.75132(17)
N4A_2 N -0.0342(2) -0.52793(17) 1.24868(17)
O3A_2 O 0.0061(3) -0.76835(18) 1.31428(17)
Zn1_2 Zn 0.99144(2) 0.67683(2) 1.816875(19)
Zn1A_2 Zn 0.00856(2) -1.67683(2) 0.183125(19)
Zn1A_3 Zn 1.00856(2) 0.32317(2) 0.183125(19)
O7 O 0.7440(3) -0.1233(2) 1.1404(2)
H25 H 0.8188 -0.0661 1.1580
H26 H 0.7840 -0.1678 1.0986
loop_
_geom_bond_atom_site_label_1
_geom_bond_atom_site_label_2
_geom_bond_site_symmetry_1
_geom_bond_site_symmetry_2
C1 C2 1_555 1_555
C2 H1 1_555 1_555
C3 C2 1_555 1_555
H2 C3 1_555 1_555
H3 C3 1_555 1_555
C4 C3 1_555 1_555
H4 C4 1_555 1_555
H5 C4 1_555 1_555
C5 C6 1_555 1_555
C6 H6 1_555 1_555
C7 C6 1_555 1_555
H7 C7 1_555 1_555
H8 C7 1_555 1_555
C8 C7 1_555 1_555
H9 C8 1_555 1_555
H10 C8 1_555 1_555
C9 H11 1_555 1_555
C10 H12 1_555 1_555
C11 C10 1_555 1_555
H13 C11 1_555 1_555
C12 C13 1_555 1_555
C13 H14 1_555 1_555
C14 C13 1_555 1_555
H15 C14 1_555 1_555
C15 C14 1_555 1_555
C16 C15 1_555 1_555
H16 C16 1_555 1_555
C17 C12 1_555 1_555
H17 C17 1_555 1_555
C18 C19 1_555 1_555
C19 H18 1_555 1_555
C20 C19 1_555 1_555
H19 C20 1_555 1_555
C21 C20 1_555 1_555
C22 C21 1_555 1_555
H20 C22 1_555 1_555
C23 C18 1_555 1_555
H21 C23 1_555 1_555
C24 H22 1_555 1_555
C25 H23 1_555 1_555
C26 C25 1_555 1_555
H24 C26 1_555 1_555
N1 C9 1_555 1_555
N2 C9 1_555 1_555
N3 C21 1_555 1_555
N4 C24 1_555 1_555
O1 C1 1_555 1_555
O2 C1 1_555 1_555
O3 C5 1_555 1_555
O4 C5 1_555 1_555
O5 S1 1_555 1_555
O6 S1 1_555 1_555
S1 C15 1_555 1_555
Zn1 N1 1_555 1_555
O7 H25 1_555 1_555
H26 O7 1_555 1_555
C1A C2A 1_555 1_555
C2A C4 1_555 1_555
H1A C2A 1_555 1_555
C3A C2A 1_555 1_555
H2A C3A 1_555 1_555
H3A C3A 1_555 1_555
C4A C2 1_555 1_555
H4A C4A 1_555 1_555
H5A C4A 1_555 1_555
O1A C1A 1_555 1_555
O2A C1A 1_555 1_555
C5A C6A 1_555 1_555
C6A C8 1_555 1_555
H6A C6A 1_555 1_555
C7A C6A 1_555 1_555
H7A C7A 1_555 1_555
H8A C7A 1_555 1_555
C8A C6 1_555 1_555
H9A C8A 1_555 1_555
H10A C8A 1_555 1_555
O3A C5A 1_555 1_555
O4A C5A 1_555 1_555
C9A H11A 1_555 1_555
C10A H12A 1_555 1_555
C11A C10A 1_555 1_555
H13A C11A 1_555 1_555
C12A C13A 1_555 1_555
C13A H14A 1_555 1_555
C14A C13A 1_555 1_555
H15A C14A 1_555 1_555
C15A C14A 1_555 1_555
C16A C15A 1_555 1_555
H16A C16A 1_555 1_555
C17A C12A 1_555 1_555
H17A C17A 1_555 1_555
C18A C19A 1_555 1_555
C19A H18A 1_555 1_555
C20A C19A 1_555 1_555
H19A C20A 1_555 1_555
C21A C20A 1_555 1_555
C22A C21A 1_555 1_555
H20A C22A 1_555 1_555
C23A C18A 1_555 1_555
H21A C23A 1_555 1_555
C24A H22A 1_555 1_555
C25A H23A 1_555 1_555
C26A C25A 1_555 1_555
H24A C26A 1_555 1_555
N1A C9A 1_555 1_555
N2A C9A 1_555 1_555
N3A C21A 1_555 1_555
N4A C24A 1_555 1_555
O5A S1A 1_555 1_555
O6A S1A 1_555 1_555
S1A C15A 1_555 1_555
Zn1A O2A 1_555 1_555
N4_2 Zn1 1_555 1_555
N4A_2 Zn1A 1_555 1_555
O3A_2 Zn1A 1_555 1_555
Zn1_2 N4 1_555 1_555
Zn1A_2 N4A 1_555 1_555
Zn1A_3 O3A 1_555 1_555
C10 N1 1_555 1_555
C11 N2 1_555 1_555
C12 N2 1_555 1_555
C16 C17 1_555 1_555
C18 S1 1_555 1_555
C22 C23 1_555 1_555
C24 N3 1_555 1_555
C25 N4 1_555 1_555
C26 N3 1_555 1_555
O2 Zn1 1_555 1_555
O3 Zn1 1_555 1_555
C3A C4A 1_555 1_555
C7A C8A 1_555 1_555
C10A N1A 1_555 1_555
C11A N2A 1_555 1_555
C12A N2A 1_555 1_555
C16A C17A 1_555 1_555
C18A S1A 1_555 1_555
C22A C23A 1_555 1_555
C24A N3A 1_555 1_555
C25A N4A 1_555 1_555
C26A N3A 1_555 1_555
N1A Zn1A 1_555 1_555

#END
