
#######################################################################
#
#                 Cambridge Crystallographic Data Centre
#                                CCDC 
#
#######################################################################
#
# If this CIF has been generated from an entry in the Cambridge 
# Structural Database, then it will include bibliographic, chemical, 
# crystal, experimental, refinement or atomic coordinate data resulting 
# from the CCDC's data processing and validation procedures.
#
#######################################################################

data_BUNMII
_symmetry_cell_setting           monoclinic
_symmetry_space_group_name_H-M   'C 2/c'
_symmetry_Int_Tables_number      15
_space_group_name_Hall           '-C 2yn'
loop_
_symmetry_equiv_pos_site_id
_symmetry_equiv_pos_as_xyz
1 x,y,z
2 -x,y,1/2-z
3 1/2+x,1/2+y,z
4 1/2-x,1/2+y,1/2-z
5 -x,-y,-z
6 x,-y,1/2+z
7 1/2-x,1/2-y,-z
8 1/2+x,1/2-y,1/2+z
_cell_length_a                   22.7246(8)
_cell_length_b                   18.9485(7)
_cell_length_c                   13.5373(5)
_cell_angle_alpha                90
_cell_angle_beta                 93.8000(10)
_cell_angle_gamma                90
_cell_volume                     5816.31
loop_
_atom_site_label
_atom_site_type_symbol
_atom_site_fract_x
_atom_site_fract_y
_atom_site_fract_z
C1 C 0.87200(17) 0.0443(2) 1.0959(3)
H1 H 0.8946 0.0220 1.1465
C2 C 0.85730(18) 0.0163(2) 1.0059(3)
H2 H 0.8670 -0.0284 0.9838
C3 C 0.82058(14) 0.12282(19) 1.0142(2)
H3 H 0.8005 0.1643 0.9971
C4 C 0.79710(12) 0.06011(16) 0.8565(2)
C5 C 0.79252(14) 0.11913(17) 0.7962(2)
H4 H 0.8099 0.1615 0.8170
C6 C 0.76173(14) 0.11447(17) 0.7043(2)
H5 H 0.7579 0.1537 0.6631
C7 C 0.73687(12) 0.05043(16) 0.6752(2)
C8 C 0.74308(14) -0.00912(17) 0.7346(2)
H6 H 0.7266 -0.0519 0.7133
C9 C 0.77412(14) -0.00420(17) 0.8259(2)
H7 H 0.7794 -0.0438 0.8660
C10 C 0.62385(14) 0.07158(18) 0.5844(2)
C11 C 0.58146(16) 0.02318(19) 0.6085(3)
H8 H 0.5908 -0.0245 0.6146
C12 C 0.52492(16) 0.0467(2) 0.6236(3)
H9 H 0.4960 0.0149 0.6401
C13 C 0.51154(13) 0.11856(18) 0.6139(2)
C14 C 0.55401(15) 0.16579(19) 0.5898(3)
H10 H 0.5447 0.2134 0.5827
C15 C 0.61092(14) 0.14277(19) 0.5759(3)
H11 H 0.6400 0.1749 0.5611
C16 C 0.40133(16) 0.1075(2) 0.6157(3)
H12 H 0.3963 0.0610 0.5950
C17 C 0.35884(16) 0.1531(3) 0.6383(3)
H13 H 0.3188 0.1427 0.6356
C18 C 0.44013(14) 0.2099(2) 0.6590(2)
H14 H 0.4676 0.2455 0.6727
C19 C 0.71616(15) 0.19632(17) 1.1925(3)
C20 C 0.65105(14) 0.18253(16) 1.2067(3)
C21 C 0.60843(15) 0.19958(19) 1.1322(3)
H15 H 0.6195 0.2165 1.0717
C22 C 0.54909(15) 0.19121(19) 1.1487(3)
H16 H 0.5206 0.2024 1.0986
C23 C 0.53163(13) 0.16614(19) 1.2395(2)
C24 C 0.57537(15) 0.1463(2) 1.3116(3)
H17 H 0.5645 0.1274 1.3711
C25 C 0.63437(14) 0.1545(2) 1.2961(3)
H18 H 0.6629 0.1413 1.3450
C26 C 0.9118(3) 0.1537(2) 1.3990(3)
C27 C 0.9380(2) 0.1453(2) 1.5039(3)
C28 C 0.90567(19) 0.1642(3) 1.5814(3)
H19 H 0.8673 0.1805 1.5693
C29 C 0.92971(17) 0.1591(3) 1.6774(3)
H20 H 0.9071 0.1719 1.7293
C30 C 0.98650(16) 0.13546(19) 1.6981(2)
C31 C 1.0188(2) 0.1166(3) 1.6189(3)
H21 H 1.0572 0.1001 1.6305
C32 C 0.9946(3) 0.1221(3) 1.5226(3)
H22 H 1.0170 0.1100 1.4701
N1 N 0.84848(12) 0.11069(17) 1.1011(2)
N2 N 0.82504(11) 0.06691(14) 0.95351(19)
N3 N 0.45382(11) 0.14375(15) 0.6293(2)
N4 N 0.38302(12) 0.21681(17) 0.6660(2)
O1 O 0.71927(12) 0.09441(17) 0.49520(18)
O2 O 0.69255(12) -0.02943(15) 0.5335(2)
O3 O 0.73162(12) 0.22347(15) 1.1163(2)
O4 O 0.75081(12) 0.17872(17) 1.2650(3)
O5 O 0.8600(4) 0.1952(5) 1.3920(7)
O6 O 0.9500(2) 0.1658(3) 1.3281(4)
S1 S 0.69615(3) 0.04378(5) 0.56078(6)
Cd1 Cd 0.841510(10) 0.185611(14) 1.226789(16)
C19A C 0.28384(15) 0.19632(17) 1.3075(3)
C20A C 0.34895(14) 0.18253(16) 1.2933(3)
C21A C 0.39157(15) 0.19958(19) 1.3678(3)
H15A H 0.3805 0.2165 1.4283
C22A C 0.45091(15) 0.19121(19) 1.3513(3)
H16A H 0.4794 0.2024 1.4014
C23A C 0.46837(13) 0.16614(19) 1.2605(2)
C24A C 0.42463(15) 0.1463(2) 1.1884(3)
H17A H 0.4355 0.1274 1.1289
C25A C 0.36563(14) 0.1545(2) 1.2039(3)
H18A H 0.3371 0.1413 1.1550
O3A O 0.26838(12) 0.22347(15) 1.3837(2)
O4A O 0.24919(12) 0.17872(17) 1.2350(3)
C26A C 1.0882(3) 0.1537(2) 2.1010(3)
C27A C 1.0620(2) 0.1453(2) 1.9961(3)
C28A C 1.09433(19) 0.1642(3) 1.9186(3)
H19A H 1.1327 0.1805 1.9307
C29A C 1.07029(17) 0.1591(3) 1.8226(3)
H20A H 1.0929 0.1719 1.7707
C30A C 1.01350(16) 0.13546(19) 1.8019(2)
C31A C 0.9812(2) 0.1166(3) 1.8811(3)
H21A H 0.9428 0.1001 1.8695
C32A C 1.0054(3) 0.1221(3) 1.9774(3)
H22A H 0.9830 0.1100 2.0299
O5A O 1.1400(4) 0.1952(5) 2.1080(7)
O6A O 1.0500(2) 0.1658(3) 2.1719(4)
C1A C 0.12800(17) 0.0443(2) 1.4041(3)
H1A H 0.1054 0.0220 1.3535
C2A C 0.14270(18) 0.0163(2) 1.4941(3)
H2A H 0.1330 -0.0284 1.5162
C3A C 0.17942(14) 0.12282(19) 1.4858(2)
H3A H 0.1995 0.1643 1.5029
C4A C 0.20290(12) 0.06011(16) 1.6435(2)
C5A C 0.20748(14) 0.11913(17) 1.7038(2)
H4A H 0.1901 0.1615 1.6830
C6A C 0.23827(14) 0.11447(17) 1.7957(2)
H5A H 0.2421 0.1537 1.8369
C7A C 0.26313(12) 0.05043(16) 1.8248(2)
C8A C 0.25692(14) -0.00912(17) 1.7654(2)
H6A H 0.2734 -0.0519 1.7867
C9A C 0.22588(14) -0.00420(17) 1.6741(2)
H7A H 0.2206 -0.0438 1.6340
C10A C 0.37615(14) 0.07158(18) 1.9156(2)
C11A C 0.41854(16) 0.02318(19) 1.8915(3)
H8A H 0.4092 -0.0245 1.8854
C12A C 0.47508(16) 0.0467(2) 1.8764(3)
H9A H 0.5040 0.0149 1.8599
C13A C 0.48846(13) 0.11856(18) 1.8861(2)
C14A C 0.44599(15) 0.16579(19) 1.9102(3)
H10A H 0.4553 0.2134 1.9173
C15A C 0.38908(14) 0.14277(19) 1.9241(3)
H11A H 0.3600 0.1749 1.9389
C16A C 0.59867(16) 0.1075(2) 1.8843(3)
H12A H 0.6037 0.0610 1.9050
C17A C 0.64116(16) 0.1531(3) 1.8617(3)
H13A H 0.6812 0.1427 1.8644
C18A C 0.55987(14) 0.2099(2) 1.8410(2)
H14A H 0.5324 0.2455 1.8273
N1A N 0.15152(12) 0.11069(17) 1.3989(2)
N2A N 0.17496(11) 0.06691(14) 1.54649(19)
N3A N 0.54618(11) 0.14375(15) 1.8707(2)
N4A N 0.61698(12) 0.21681(17) 1.8340(2)
O1A O 0.28073(12) 0.09441(17) 2.00480(18)
O2A O 0.30745(12) -0.02943(15) 1.9665(2)
S1A S 0.30385(3) 0.04378(5) 1.93922(6)
Cd1A Cd 0.158490(10) 0.185611(14) 1.273211(16)
N4F N 0.11698(12) 0.28319(17) 1.3340(2)
N4G N 0.88302(12) 0.28319(17) 1.1660(2)
O5A_2 O 0.1400(4) 0.1952(5) 1.1080(7)
O6A_2 O 0.0500(2) 0.1658(3) 1.1719(4)
Cd1A_2 Cd 1.158490(10) 0.185611(14) 2.273211(16)
Cd1F Cd 0.658490(10) 0.314389(14) 1.773211(16)
Cd1G Cd 0.341510(10) 0.314389(14) 0.726789(16)
O7 O 1.0000 0.0385(10) 1.2500
O8 O 0.7312(8) 0.2489(12) 0.5129(14)
O9? O 0.8638(3) 0.1465(3) 1.3814(4)
O10? O 0.9076(6) 0.1117(7) 1.3409(9)
loop_
_geom_bond_atom_site_label_1
_geom_bond_atom_site_label_2
_geom_bond_site_symmetry_1
_geom_bond_site_symmetry_2
C1 H1 1_555 1_555
C2 C1 1_555 1_555
H2 C2 1_555 1_555
C3 H3 1_555 1_555
C4 C5 1_555 1_555
C5 H4 1_555 1_555
C6 C5 1_555 1_555
H5 C6 1_555 1_555
C7 C6 1_555 1_555
C8 C7 1_555 1_555
H6 C8 1_555 1_555
C9 C4 1_555 1_555
H7 C9 1_555 1_555
C10 C11 1_555 1_555
C11 H8 1_555 1_555
C12 C11 1_555 1_555
H9 C12 1_555 1_555
C13 C12 1_555 1_555
C14 C13 1_555 1_555
H10 C14 1_555 1_555
C15 C10 1_555 1_555
H11 C15 1_555 1_555
C16 H12 1_555 1_555
C17 C16 1_555 1_555
H13 C17 1_555 1_555
C18 H14 1_555 1_555
C19 C20 1_555 1_555
C20 C21 1_555 1_555
C21 H15 1_555 1_555
C22 C21 1_555 1_555
H16 C22 1_555 1_555
C23 C22 1_555 1_555
C24 C23 1_555 1_555
H17 C24 1_555 1_555
C25 C20 1_555 1_555
H18 C25 1_555 1_555
C26 C27 1_555 1_555
C27 C28 1_555 1_555
C28 H19 1_555 1_555
C29 C28 1_555 1_555
H20 C29 1_555 1_555
C30 C29 1_555 1_555
C31 C30 1_555 1_555
H21 C31 1_555 1_555
C32 C27 1_555 1_555
H22 C32 1_555 1_555
N1 C1 1_555 1_555
N2 C2 1_555 1_555
N3 C13 1_555 1_555
N4 C17 1_555 1_555
O1 S1 1_555 1_555
O2 S1 1_555 1_555
O3 C19 1_555 1_555
O4 C19 1_555 1_555
O5 C26 1_555 1_555
O6 C26 1_555 1_555
S1 C7 1_555 1_555
Cd1 N1 1_555 1_555
C19A C20A 1_555 1_555
C20A C21A 1_555 1_555
C21A H15A 1_555 1_555
C22A C21A 1_555 1_555
H16A C22A 1_555 1_555
C23A C23 1_555 1_555
C24A C23A 1_555 1_555
H17A C24A 1_555 1_555
C25A C20A 1_555 1_555
H18A C25A 1_555 1_555
O3A C19A 1_555 1_555
O4A C19A 1_555 1_555
C26A C27A 1_555 1_555
C27A C28A 1_555 1_555
C28A H19A 1_555 1_555
C29A C28A 1_555 1_555
H20A C29A 1_555 1_555
C30A C30 1_555 1_555
C31A C30A 1_555 1_555
H21A C31A 1_555 1_555
C32A C27A 1_555 1_555
H22A C32A 1_555 1_555
O5A C26A 1_555 1_555
O6A C26A 1_555 1_555
C1A H1A 1_555 1_555
C2A C1A 1_555 1_555
H2A C2A 1_555 1_555
C3A H3A 1_555 1_555
C4A C5A 1_555 1_555
C5A H4A 1_555 1_555
C6A C5A 1_555 1_555
H5A C6A 1_555 1_555
C7A C6A 1_555 1_555
C8A C7A 1_555 1_555
H6A C8A 1_555 1_555
C9A C4A 1_555 1_555
H7A C9A 1_555 1_555
C10A C11A 1_555 1_555
C11A H8A 1_555 1_555
C12A C11A 1_555 1_555
H9A C12A 1_555 1_555
C13A C12A 1_555 1_555
C14A C13A 1_555 1_555
H10A C14A 1_555 1_555
C15A C10A 1_555 1_555
H11A C15A 1_555 1_555
C16A H12A 1_555 1_555
C17A C16A 1_555 1_555
H13A C17A 1_555 1_555
C18A H14A 1_555 1_555
N1A C1A 1_555 1_555
N2A C2A 1_555 1_555
N3A C13A 1_555 1_555
N4A C17A 1_555 1_555
O1A S1A 1_555 1_555
O2A S1A 1_555 1_555
S1A C7A 1_555 1_555
Cd1A O4A 1_555 1_555
N4F Cd1A 1_555 1_555
N4G Cd1 1_555 1_555
O5A_2 Cd1A 1_555 1_555
O6A_2 Cd1A 1_555 1_555
Cd1A_2 O5A 1_555 1_555
Cd1F N4A 1_555 1_555
Cd1G N4 1_555 1_555
C3 N1 1_555 1_555
C3 N2 1_555 1_555
C4 N2 1_555 1_555
C8 C9 1_555 1_555
C10 S1 1_555 1_555
C14 C15 1_555 1_555
C16 N3 1_555 1_555
C18 N3 1_555 1_555
C18 N4 1_555 1_555
C24 C25 1_555 1_555
C31 C32 1_555 1_555
O4 Cd1 1_555 1_555
O5 Cd1 1_555 1_555
O6 Cd1 1_555 1_555
C22A C23A 1_555 1_555
C24A C25A 1_555 1_555
C29A C30A 1_555 1_555
C31A C32A 1_555 1_555
O6A Cd1A_2 1_555 1_555
C3A N1A 1_555 1_555
C3A N2A 1_555 1_555
C4A N2A 1_555 1_555
C8A C9A 1_555 1_555
C10A S1A 1_555 1_555
C14A C15A 1_555 1_555
C16A N3A 1_555 1_555
C18A N3A 1_555 1_555
C18A N4A 1_555 1_555
N1A Cd1A 1_555 1_555

#END
