
#######################################################################
#
#                 Cambridge Crystallographic Data Centre
#                                CCDC 
#
#######################################################################
#
# If this CIF has been generated from an entry in the Cambridge 
# Structural Database, then it will include bibliographic, chemical, 
# crystal, experimental, refinement or atomic coordinate data resulting 
# from the CCDC's data processing and validation procedures.
#
#######################################################################

data_BUNMUU
_symmetry_cell_setting           monoclinic
_symmetry_space_group_name_H-M   'P 21/n'
_symmetry_Int_Tables_number      14
_space_group_name_Hall           '-P 2yn'
loop_
_symmetry_equiv_pos_site_id
_symmetry_equiv_pos_as_xyz
1 x,y,z
2 1/2-x,1/2+y,1/2-z
3 -x,-y,-z
4 1/2+x,1/2-y,1/2+z
_cell_length_a                   10.8259(6)
_cell_length_b                   19.6449(10)
_cell_length_c                   16.2870(9)
_cell_angle_alpha                90
_cell_angle_beta                 90.9870(10)
_cell_angle_gamma                90
_cell_volume                     3463.3
loop_
_atom_site_label
_atom_site_type_symbol
_atom_site_fract_x
_atom_site_fract_y
_atom_site_fract_z
C1 C 0.9077(3) 0.8043(2) 0.7412(2)
C2 C 0.9107(4) 0.7351(2) 0.7436(2)
H1 H 0.8718 0.7123 0.7860
C3 C 0.9717(4) 0.6974(2) 0.6829(2)
H2 H 0.9713 0.6501 0.6855
C4 C 1.0309(3) 0.72862(18) 0.6211(2)
C5 C 1.0322(3) 0.80124(19) 0.6170(2)
C6 C 0.9693(3) 0.83949(19) 0.6777(2)
C7 C 0.9694(5) 0.9112(2) 0.6689(4)
H3 H 0.9274 0.9376 0.7067
C8 C 1.0291(5) 0.9421(3) 0.6072(4)
H4 H 1.0288 0.9893 0.6040
C9 C 1.0911(6) 0.9044(3) 0.5482(4)
H5 H 1.1319 0.9266 0.5061
C10 C 1.0921(4) 0.8359(3) 0.5520(3)
H6 H 1.1323 0.8111 0.5118
C11 C 0.8344(4) 0.8389(2) 0.8079(2)
C12 C 1.0897(3) 0.68598(18) 0.5556(2)
C13 C 0.7837(3) 1.03375(16) 0.9657(2)
H7 H 0.7416 1.0457 0.9176
C14 C 0.8560(3) 0.97659(18) 1.0673(2)
H8 H 0.8725 0.9408 1.1032
C15 C 0.8996(3) 1.04093(17) 1.0760(2)
H9 H 0.9516 1.0571 1.1177
C16 C 0.8729(3) 1.14724(16) 0.9915(2)
C17 C 0.7757(3) 1.18665(18) 0.9645(2)
H10 H 0.6962 1.1688 0.9616
C18 C 0.7977(4) 1.25310(19) 0.9415(3)
H11 H 0.7331 1.2802 0.9221
C19 C 0.9155(3) 1.27929(16) 0.9475(2)
C20 C 1.0119(3) 1.24015(18) 0.9766(3)
H12 H 1.0909 1.2584 0.9811
C21 C 0.9903(3) 1.17354(18) 0.9991(3)
H13 H 1.0547 1.1466 1.0193
C22 C 0.9538(4) 1.40648(17) 1.0164(2)
C23 C 0.8498(4) 1.4330(2) 1.0509(3)
H14 H 0.7739 1.4304 1.0234
C24 C 0.8596(4) 1.4636(2) 1.1273(3)
H15 H 0.7901 1.4825 1.1511
C25 C 0.9724(3) 1.46613(16) 1.1681(2)
C26 C 1.0763(3) 1.43959(19) 1.1332(2)
H16 H 1.1518 1.4413 1.1611
C27 C 1.0677(4) 1.4102(2) 1.0558(2)
H17 H 1.1378 1.3932 1.0308
C28 C 0.8942(4) 1.4960(3) 1.3075(3)
H18 H 0.8169 1.4754 1.3049
C29 C 0.9426(4) 1.5309(3) 1.3703(3)
H19 H 0.9030 1.5388 1.4196
C30 C 1.0778(3) 1.53146(18) 1.27827(19)
H20 H 1.1506 1.5392 1.2502
N1 N 0.7840(2) 0.97237(13) 0.99738(16)
N2 N 0.8519(2) 1.07721(13) 1.01140(17)
N3 N 0.9818(3) 1.49664(15) 1.24725(17)
N4 N 1.0576(3) 1.55347(15) 1.35259(16)
O1 O 0.8519(3) 0.90005(18) 0.8248(2)
O2 O 0.7576(3) 0.80368(17) 0.8457(2)
O3 O 1.0223(2) 0.64818(17) 0.51376(19)
O4 O 1.2028(2) 0.68879(18) 0.5452(2)
O5 O 0.8341(3) 1.38976(13) 0.87800(18)
O6 O 1.0608(3) 1.36846(15) 0.88250(18)
S1 S 0.94216(10) 1.36496(5) 0.92018(6)
Cd1 Cd 0.68829(2) 0.884862(11) 0.931679(13)
N4C N 0.5576(3) 0.94653(15) 0.85259(16)
O3C O 0.5223(2) 0.85182(17) 1.01376(19)
O4C O 0.7028(2) 0.81121(18) 1.0452(2)
Cd1C Cd 1.18829(2) 0.615138(11) 0.431679(13)
Cd1C_2 Cd 1.18829(2) 1.615138(11) 1.431679(13)
C31 C 0.6735(14) 0.3198(8) 0.2608(10)
H21 H 0.7318 0.3084 0.3011
C32 C 0.7018(12) 0.2122(7) 0.2196(6)
H22 H 0.6741 0.1818 0.1769
H23 H 0.6827 0.1931 0.2721
H24 H 0.7895 0.2185 0.2160
C33 C 0.541(3) 0.2838(11) 0.1533(13)
H25 H 0.5366 0.2444 0.1186
H26 H 0.5535 0.3236 0.1203
H27 H 0.4651 0.2883 0.1826
N5 N 0.6408(11) 0.2766(4) 0.2102(5)
O7 O 0.6299(13) 0.3786(5) 0.2591(6)
O8 O 0.6501(9) 0.5754(7) 0.7342(5)
loop_
_geom_bond_atom_site_label_1
_geom_bond_atom_site_label_2
_geom_bond_site_symmetry_1
_geom_bond_site_symmetry_2
C1 C2 1_555 1_555
C2 H1 1_555 1_555
C3 C2 1_555 1_555
H2 C3 1_555 1_555
C4 C3 1_555 1_555
C5 C4 1_555 1_555
C6 C1 1_555 1_555
C7 C6 1_555 1_555
H3 C7 1_555 1_555
C8 C7 1_555 1_555
H4 C8 1_555 1_555
C9 C8 1_555 1_555
H5 C9 1_555 1_555
C10 C5 1_555 1_555
H6 C10 1_555 1_555
C11 C1 1_555 1_555
C12 C4 1_555 1_555
C13 H7 1_555 1_555
C14 H8 1_555 1_555
C15 C14 1_555 1_555
H9 C15 1_555 1_555
C16 C17 1_555 1_555
C17 H10 1_555 1_555
C18 C17 1_555 1_555
H11 C18 1_555 1_555
C19 C18 1_555 1_555
C20 C19 1_555 1_555
H12 C20 1_555 1_555
C21 C16 1_555 1_555
H13 C21 1_555 1_555
C22 C23 1_555 1_555
C23 H14 1_555 1_555
C24 C23 1_555 1_555
H15 C24 1_555 1_555
C25 C24 1_555 1_555
C26 C25 1_555 1_555
H16 C26 1_555 1_555
C27 C22 1_555 1_555
H17 C27 1_555 1_555
C28 H18 1_555 1_555
C29 C28 1_555 1_555
H19 C29 1_555 1_555
C30 H20 1_555 1_555
N1 C13 1_555 1_555
N2 C13 1_555 1_555
N3 C25 1_555 1_555
N4 C29 1_555 1_555
O1 C11 1_555 1_555
O2 C11 1_555 1_555
O3 C12 1_555 1_555
O4 C12 1_555 1_555
O5 S1 1_555 1_555
O6 S1 1_555 1_555
S1 C19 1_555 1_555
Cd1 N1 1_555 1_555
C31 H21 1_555 1_555
C32 H22 1_555 1_555
H23 C32 1_555 1_555
H24 C32 1_555 1_555
C33 H25 1_555 1_555
H26 C33 1_555 1_555
H27 C33 1_555 1_555
N5 C31 1_555 1_555
O7 C31 1_555 1_555
N4C Cd1 1_555 1_555
O3C Cd1 1_555 1_555
O4C Cd1 1_555 1_555
Cd1C O3 1_555 1_555
Cd1C_2 N4 1_555 1_555
C5 C6 1_555 1_555
C9 C10 1_555 1_555
C14 N1 1_555 1_555
C15 N2 1_555 1_555
C16 N2 1_555 1_555
C20 C21 1_555 1_555
C22 S1 1_555 1_555
C26 C27 1_555 1_555
C28 N3 1_555 1_555
C30 N3 1_555 1_555
C30 N4 1_555 1_555
O1 Cd1 1_555 1_555
O2 Cd1 1_555 1_555
O4 Cd1C 1_555 1_555
C32 N5 1_555 1_555
C33 N5 1_555 1_555

#END
