
#######################################################################
#
#                 Cambridge Crystallographic Data Centre
#                                CCDC 
#
#######################################################################
#
# If this CIF has been generated from an entry in the Cambridge 
# Structural Database, then it will include bibliographic, chemical, 
# crystal, experimental, refinement or atomic coordinate data resulting 
# from the CCDC's data processing and validation procedures.
#
#######################################################################

data_BUNMEE
_symmetry_cell_setting           triclinic
_symmetry_space_group_name_H-M   'P -1'
_symmetry_Int_Tables_number      2
_space_group_name_Hall           '-P 1'
loop_
_symmetry_equiv_pos_site_id
_symmetry_equiv_pos_as_xyz
1 x,y,z
2 -x,-y,-z
_cell_length_a                   14.2687(7)
_cell_length_b                   15.7567(7)
_cell_length_c                   16.2206(7)
_cell_angle_alpha                67.9150(10)
_cell_angle_beta                 79.6320(10)
_cell_angle_gamma                73.8990(10)
_cell_volume                     3234.95
loop_
_atom_site_label
_atom_site_type_symbol
_atom_site_fract_x
_atom_site_fract_y
_atom_site_fract_z
C1 C 0.2481(3) -0.6113(3) 0.8268(2)
C2 C 0.3406(3) -0.5812(2) 0.8258(2)
C3 C 0.4084(3) -0.5703(3) 0.7520(2)
H1 H 0.3960 -0.5794 0.7019
C4 C 0.4945(3) -0.5460(3) 0.7522(3)
H2 H 0.5403 -0.5394 0.7029
C5 C 0.5113(3) -0.5317(2) 0.8270(2)
C6 C 0.4429(3) -0.5384(3) 0.8986(3)
H3 H 0.4536 -0.5255 0.9471
C7 C 0.3583(3) -0.5642(3) 0.8988(2)
H4 H 0.3126 -0.5703 0.9482
C8 C 0.6011(2) -0.3813(2) 0.7824(2)
C9 C 0.5634(3) -0.3277(3) 0.8366(2)
H5 H 0.5522 -0.3569 0.8979
C10 C 0.5428(3) -0.2316(3) 0.8000(3)
H6 H 0.5170 -0.1956 0.8364
C11 C 0.5602(3) -0.1878(3) 0.7086(3)
C12 C 0.6010(3) -0.2421(3) 0.6548(3)
H7 H 0.6152 -0.2129 0.5940
C13 C 0.6206(3) -0.3398(3) 0.6915(2)
H8 H 0.6463 -0.3764 0.6555
C14 C 0.5332(4) -0.0820(3) 0.6667(3)
C15 C 0.2676(3) 0.1883(3) 0.5742(2)
C16 C 0.1734(3) 0.1906(2) 0.5424(2)
C17 C 0.1588(3) 0.1120(3) 0.5314(2)
H9 H 0.2093 0.0581 0.5409
C18 C 0.0713(3) 0.1123(2) 0.5068(2)
H10 H 0.0624 0.0593 0.4996
C19 C -0.0033(3) 0.1928(3) 0.4929(2)
C20 C 0.0090(3) 0.2732(3) 0.5018(2)
H11 H -0.0415 0.3270 0.4917
C21 C 0.0980(3) 0.2716(3) 0.5261(2)
H12 H 0.1076 0.3252 0.5315
C22 C -0.0927(2) 0.2254(2) 0.3430(2)
C23 C -0.0512(3) 0.1556(3) 0.3064(2)
H13 H -0.0423 0.0925 0.3421
C24 C -0.0234(3) 0.1815(3) 0.2158(2)
H14 H 0.0045 0.1356 0.1900
C25 C -0.0369(3) 0.2759(3) 0.1635(2)
C26 C -0.0831(3) 0.3444(3) 0.2011(2)
H15 H -0.0955 0.4076 0.1651
C27 C -0.1106(3) 0.3196(3) 0.2913(2)
H16 H -0.1407 0.3654 0.3169
C28 C 0.0035(3) 0.3052(4) 0.0668(3)
C29 C -0.0660(3) -0.4849(2) 0.8543(2)
H17 H -0.0663 -0.4819 0.9105
C30 C -0.0368(3) -0.5324(3) 0.7426(2)
H18 H -0.0122 -0.5700 0.7075
C31 C -0.0964(3) -0.4467(3) 0.7155(2)
H19 H -0.1200 -0.4144 0.6595
C32 C -0.1644(2) -0.3251(2) 0.7903(2)
C33 C -0.1996(3) -0.3143(3) 0.8727(2)
H20 H -0.1961 -0.3667 0.9247
C34 C -0.2398(3) -0.2250(3) 0.8763(2)
H21 H -0.2624 -0.2169 0.9310
C35 C -0.2462(2) -0.1479(2) 0.7982(2)
C36 C -0.2137(3) -0.1590(2) 0.7165(2)
H22 H -0.2199 -0.1068 0.6642
C37 C -0.1722(3) -0.2475(2) 0.7125(2)
H23 H -0.1494 -0.2551 0.6577
C38 C -0.1985(2) 0.0087(2) 0.8105(2)
C39 C -0.1701(3) -0.0055(3) 0.8930(2)
H24 H -0.1999 -0.0417 0.9451
C40 C -0.0972(3) 0.0345(3) 0.8973(2)
H25 H -0.0774 0.0253 0.9522
C41 C -0.0540(2) 0.0881(2) 0.8194(2)
C42 C -0.0807(3) 0.1007(3) 0.7372(2)
H26 H -0.0505 0.1366 0.6851
C43 C -0.1525(3) 0.0598(3) 0.7330(2)
H27 H -0.1699 0.0667 0.6779
C44 C 0.0112(3) 0.1839(2) 0.8766(2)
H28 H -0.0339 0.1823 0.9260
C45 C 0.0923(3) 0.1567(3) 0.7579(3)
H29 H 0.1139 0.1339 0.7109
C46 C 0.1293(3) 0.2164(3) 0.7766(2)
H30 H 0.1814 0.2424 0.7440
C47 C 0.5744(3) 0.1454(2) 0.4822(2)
H31 H 0.5844 0.0842 0.4831
C48 C 0.5271(3) 0.2695(3) 0.5192(2)
H32 H 0.4974 0.3095 0.5512
C49 C 0.5785(3) 0.2937(3) 0.4391(2)
H33 H 0.5914 0.3525 0.4063
C50 C 0.6547(2) 0.2064(2) 0.3320(2)
C51 C 0.6640(3) 0.2866(2) 0.2583(2)
H34 H 0.6429 0.3458 0.2636
C52 C 0.7047(3) 0.2772(3) 0.1773(2)
H35 H 0.7107 0.3303 0.1276
C53 C 0.7365(2) 0.1885(3) 0.1703(2)
C54 C 0.7276(3) 0.1094(3) 0.2438(2)
H36 H 0.7489 0.0501 0.2387
C55 C 0.6874(3) 0.1184(2) 0.3242(2)
H37 H 0.6822 0.0650 0.3738
C56 C 0.6960(2) 0.1782(3) 0.0095(2)
C57 C 0.6285(3) 0.1236(3) 0.0511(2)
H38 H 0.6291 0.0888 0.1119
C58 C 0.5602(3) 0.1207(3) 0.0021(2)
H39 H 0.5141 0.0846 0.0297
C59 C 0.5612(2) 0.1720(2) -0.0882(2)
C60 C 0.6287(3) 0.2266(2) -0.1301(2)
H40 H 0.6291 0.2606 -0.1911
C61 C 0.6956(3) 0.2299(3) -0.0803(2)
H41 H 0.7405 0.2672 -0.1075
C62 C 0.4062(3) 0.1367(3) -0.1054(3)
H42 H 0.3761 0.1268 -0.0478
C63 C 0.3740(3) 0.1265(3) -0.1738(3)
H43 H 0.3169 0.1076 -0.1706
C64 C 0.5083(3) 0.1709(2) -0.2256(2)
H44 H 0.5619 0.1887 -0.2637
N1 N -0.0172(2) -0.5571(2) 0.82994(19)
N2 N -0.1158(2) -0.4156(2) 0.78745(18)
N3 N 0.0164(2) 0.13594(19) 0.82160(17)
N4 N 0.0787(2) 0.2331(2) 0.85091(18)
N5 N 0.5254(2) 0.1756(2) 0.54637(18)
N6 N 0.6082(2) 0.21449(19) 0.41498(18)
N7 N 0.4930(2) 0.1650(2) -0.13889(18)
N8 N 0.4377(2) 0.1481(2) -0.24869(19)
O1 O 0.2214(2) -0.6062(2) 0.75742(19)
O2 O 0.20281(19) -0.64124(19) 0.90332(17)
O3 O 0.6958(2) -0.5442(2) 0.7740(2)
O4 O 0.6379(2) -0.5310(2) 0.92364(18)
O5 O 0.5596(4) -0.0464(2) 0.5878(2)
O6 O 0.4828(2) -0.0366(2) 0.7171(2)
O7 O 0.31786(19) 0.10798(18) 0.61554(17)
O8 O 0.2899(2) 0.2625(2) 0.5608(2)
O9 O -0.1295(2) 0.0985(2) 0.49683(17)
O10 O -0.1895(2) 0.2667(2) 0.48034(19)
O11 O 0.0447(2) 0.2438(2) 0.03328(17)
O12 O -0.0037(3) 0.3915(3) 0.02494(19)
O13 O -0.33513(18) 0.02467(18) 0.71810(17)
O14 O -0.35999(18) -0.04268(19) 0.88375(18)
O15 O 0.8320(2) 0.2552(2) 0.01599(18)
O16 O 0.8537(2) 0.0823(2) 0.0885(2)
S1 S 0.62299(7) -0.50489(6) 0.83083(7)
S2 S -0.11553(7) 0.19325(7) 0.46018(6)
S3 S -0.29732(6) -0.03412(6) 0.80262(6)
S4 S 0.79105(7) 0.17532(8) 0.06792(6)
Zn1 Zn 0.07676(3) -0.66940(3) 0.90611(2)
Zn2 Zn 0.44806(3) 0.09930(3) 0.64938(2)
N4_2 N 0.0787(2) -0.7669(2) 0.85091(18)
N8_2 N 0.4377(2) 0.1481(2) 0.75131(19)
O11_2 O 0.0447(2) -0.7562(2) 1.03328(17)
O12_2 O -0.0037(3) -0.6085(3) 1.02494(19)
Zn1_2 Zn 0.07676(3) 0.33060(3) -0.09389(2)
Zn1_3 Zn 0.07676(3) 0.33060(3) 0.90611(2)
Zn2_2 Zn 0.44806(3) 0.09930(3) -0.35062(2)
O17 O 0.8414(3) -0.6589(3) 0.6865(2)
O18 O 0.2563(2) 0.4356(2) 0.5741(2)
H45 H 0.2649 0.3754 0.5624
H46 H 0.2364 0.4313 0.6370
O19 O -0.0933(3) 0.4800(3) 0.5328(2)
O20 O -0.3149(2) 0.2940(2) 0.6395(2)
H47 H -0.3341 0.3398 0.6167
H48 H -0.2801 0.2487 0.6150
O21 O 0.5923(3) -0.5263(3) 0.5308(3)
loop_
_geom_bond_atom_site_label_1
_geom_bond_atom_site_label_2
_geom_bond_site_symmetry_1
_geom_bond_site_symmetry_2
C1 C2 1_555 1_555
C2 C3 1_555 1_555
C3 H1 1_555 1_555
C4 C3 1_555 1_555
H2 C4 1_555 1_555
C5 C4 1_555 1_555
C6 C5 1_555 1_555
H3 C6 1_555 1_555
C7 C2 1_555 1_555
H4 C7 1_555 1_555
C8 C9 1_555 1_555
C9 H5 1_555 1_555
C10 C9 1_555 1_555
H6 C10 1_555 1_555
C11 C10 1_555 1_555
C12 C11 1_555 1_555
H7 C12 1_555 1_555
C13 C8 1_555 1_555
H8 C13 1_555 1_555
C14 C11 1_555 1_555
C15 C16 1_555 1_555
C16 C17 1_555 1_555
C17 H9 1_555 1_555
C18 C17 1_555 1_555
H10 C18 1_555 1_555
C19 C18 1_555 1_555
C20 C19 1_555 1_555
H11 C20 1_555 1_555
C21 C16 1_555 1_555
H12 C21 1_555 1_555
C22 C23 1_555 1_555
C23 H13 1_555 1_555
C24 C23 1_555 1_555
H14 C24 1_555 1_555
C25 C24 1_555 1_555
C26 C25 1_555 1_555
H15 C26 1_555 1_555
C27 C22 1_555 1_555
H16 C27 1_555 1_555
C28 C25 1_555 1_555
C29 H17 1_555 1_555
C30 H18 1_555 1_555
C31 C30 1_555 1_555
H19 C31 1_555 1_555
C32 C33 1_555 1_555
C33 H20 1_555 1_555
C34 C33 1_555 1_555
H21 C34 1_555 1_555
C35 C34 1_555 1_555
C36 C35 1_555 1_555
H22 C36 1_555 1_555
C37 C32 1_555 1_555
H23 C37 1_555 1_555
C38 C39 1_555 1_555
C39 H24 1_555 1_555
C40 C39 1_555 1_555
H25 C40 1_555 1_555
C41 C40 1_555 1_555
C42 C41 1_555 1_555
H26 C42 1_555 1_555
C43 C38 1_555 1_555
H27 C43 1_555 1_555
C44 H28 1_555 1_555
C45 H29 1_555 1_555
C46 C45 1_555 1_555
H30 C46 1_555 1_555
C47 H31 1_555 1_555
C48 H32 1_555 1_555
C49 C48 1_555 1_555
H33 C49 1_555 1_555
C50 C51 1_555 1_555
C51 H34 1_555 1_555
C52 C51 1_555 1_555
H35 C52 1_555 1_555
C53 C52 1_555 1_555
C54 C53 1_555 1_555
H36 C54 1_555 1_555
C55 C50 1_555 1_555
H37 C55 1_555 1_555
C56 C57 1_555 1_555
C57 H38 1_555 1_555
C58 C57 1_555 1_555
H39 C58 1_555 1_555
C59 C58 1_555 1_555
C60 C59 1_555 1_555
H40 C60 1_555 1_555
C61 C56 1_555 1_555
H41 C61 1_555 1_555
C62 H42 1_555 1_555
C63 C62 1_555 1_555
H43 C63 1_555 1_555
C64 H44 1_555 1_555
N1 C29 1_555 1_555
N2 C29 1_555 1_555
N3 C41 1_555 1_555
N4 C44 1_555 1_555
N5 C47 1_555 1_555
N6 C47 1_555 1_555
N7 C59 1_555 1_555
N8 C63 1_555 1_555
O1 C1 1_555 1_555
O2 C1 1_555 1_555
O3 S1 1_555 1_555
O4 S1 1_555 1_555
O5 C14 1_555 1_555
O6 C14 1_555 1_555
O7 C15 1_555 1_555
O8 C15 1_555 1_555
O9 S2 1_555 1_555
O10 S2 1_555 1_555
O11 C28 1_555 1_555
O12 C28 1_555 1_555
O13 S3 1_555 1_555
O14 S3 1_555 1_555
O15 S4 1_555 1_555
O16 S4 1_555 1_555
S1 C5 1_555 1_555
S2 C19 1_555 1_555
S3 C35 1_555 1_555
S4 C53 1_555 1_555
Zn1 N1 1_555 1_555
Zn2 N5 1_555 1_555
O18 H45 1_555 1_555
H46 O18 1_555 1_555
O20 H47 1_555 1_555
H48 O20 1_555 1_555
N4_2 Zn1 1_555 1_555
N8_2 Zn2 1_555 1_555
O11_2 Zn1 1_555 1_555
O12_2 Zn1 1_555 1_555
Zn1_2 O11 1_555 1_555
Zn1_3 N4 1_555 1_555
Zn2_2 N8 1_555 1_555
C6 C7 1_555 1_555
C8 S1 1_555 1_555
C12 C13 1_555 1_555
C20 C21 1_555 1_555
C22 S2 1_555 1_555
C26 C27 1_555 1_555
C30 N1 1_555 1_555
C31 N2 1_555 1_555
C32 N2 1_555 1_555
C36 C37 1_555 1_555
C38 S3 1_555 1_555
C42 C43 1_555 1_555
C44 N3 1_555 1_555
C45 N3 1_555 1_555
C46 N4 1_555 1_555
C48 N5 1_555 1_555
C49 N6 1_555 1_555
C50 N6 1_555 1_555
C54 C55 1_555 1_555
C56 S4 1_555 1_555
C60 C61 1_555 1_555
C62 N7 1_555 1_555
C64 N7 1_555 1_555
C64 N8 1_555 1_555
O2 Zn1 1_555 1_555
O6 Zn2 1_555 1_555
O7 Zn2 1_555 1_555
O12 Zn1_2 1_555 1_555

#END
