
#######################################################################
#
#                 Cambridge Crystallographic Data Centre
#                                CCDC 
#
#######################################################################
#
# If this CIF has been generated from an entry in the Cambridge 
# Structural Database, then it will include bibliographic, chemical, 
# crystal, experimental, refinement or atomic coordinate data resulting 
# from the CCDC's data processing and validation procedures.
#
#######################################################################

data_BUNREI
_symmetry_cell_setting           triclinic
_symmetry_space_group_name_H-M   'P -1'
_symmetry_Int_Tables_number      2
_space_group_name_Hall           '-P 1'
loop_
_symmetry_equiv_pos_site_id
_symmetry_equiv_pos_as_xyz
1 x,y,z
2 -x,-y,-z
_cell_length_a                   6.8406(5)
_cell_length_b                   12.9209(2)
_cell_length_c                   13.6216(4)
_cell_angle_alpha                67.456(8)
_cell_angle_beta                 84.074(10)
_cell_angle_gamma                86.161(10)
_cell_volume                     1105.53
loop_
_atom_site_label
_atom_site_type_symbol
_atom_site_fract_x
_atom_site_fract_y
_atom_site_fract_z
Cu1 Cu 0.30289(6) 0.10395(3) -0.01750(3)
Cu2 Cu 0.27094(5) 0.66038(3) -0.46457(3)
Cu3 Cu 0.31258(6) -0.11203(3) 0.65256(3)
O1 O -0.0116(4) 0.1369(3) 0.0266(2)
H1 H -0.089(6) 0.102(4) 0.013(4)
H2 H -0.037(7) 0.136(4) 0.087(2)
O2 O -0.0178(4) 0.6775(2) -0.4237(2)
H3 H -0.039(6) 0.716(3) -0.386(3)
H4 H -0.069(6) 0.614(2) -0.391(3)
O3 O 0.5651(3) 0.66001(19) -0.48698(19)
H5 H 0.620(5) 0.704(3) -0.538(3)
H6 H 0.614(5) 0.596(2) -0.472(3)
O4 O 0.1940(4) 0.03744(19) 0.5847(2)
H7 H 0.239(6) 0.066(3) 0.518(2)
H8 H 0.197(6) 0.085(3) 0.610(3)
O5 O 0.3132(4) -0.09070(19) 0.78734(19)
H9 H 0.410(4) -0.117(3) 0.823(3)
H10 H 0.275(5) -0.033(3) 0.799(3)
O6 O 0.4661(4) -0.25046(18) 0.71443(19)
H11 H 0.417(6) -0.307(3) 0.709(3)
H12 H 0.480(6) -0.265(3) 0.776(2)
O7 O -0.0051(4) -0.1927(2) 0.7017(2)
H13 H -0.094(5) -0.146(3) 0.696(4)
H14 H -0.012(6) -0.240(3) 0.765(2)
O10 O 0.2503(3) 0.08818(16) -0.16043(17)
O11 O 0.2379(3) 0.19153(18) -0.33387(17)
O12 O 0.4037(3) 0.17876(17) 0.07866(17)
O13 O 0.4633(4) 0.34692(19) 0.07702(19)
O14 O 0.3087(3) 0.58403(16) -0.31429(16)
O15 O 0.3068(4) 0.02691(17) 0.39659(18)
O16 O 0.3033(3) -0.14549(17) 0.52333(16)
O17 O 0.1740(3) -0.46306(17) 0.30294(18)
O18 O 0.2399(3) -0.46130(17) 0.45836(17)
O19 O 0.2952(3) -0.05395(17) 0.06081(17)
N1 N 0.3234(4) 0.25555(19) -0.11526(19)
N2 N 0.2478(3) -0.23978(19) 0.38422(19)
C1 C 0.3609(4) 0.3348(2) -0.0799(2)
C2 C 0.2531(4) 0.1809(2) -0.2404(2)
C3 C 0.3561(4) 0.4467(2) -0.1447(2)
H19 H 0.3814 0.5006 -0.1184
C4 C 0.4124(5) 0.2861(2) 0.0342(2)
C5 C 0.2811(4) 0.2828(2) -0.2159(2)
C6 C 0.2744(4) 0.3928(2) -0.2869(2)
H20 H 0.2455 0.4102 -0.3568
C7 C 0.3123(4) 0.4788(2) -0.2517(2)
C8 C 0.2667(4) -0.1273(2) 0.3474(2)
C9 C 0.2932(4) -0.0768(2) 0.4275(2)
C10 C 0.2704(4) -0.0608(2) 0.2397(2)
H21 H 0.2765 0.0167 0.2170
C11 C 0.2108(4) -0.4135(2) 0.3608(2)
C12 C 0.2277(4) -0.2870(2) 0.3135(2)
C13 C 0.2651(4) -0.1104(2) 0.1650(2)
C14 C 0.2337(4) -0.2254(2) 0.2045(2)
H22 H 0.2169 -0.2606 0.1579
Cu2_2 Cu 0.27094(5) -0.33962(3) 0.53543(3)
O18_2 O 0.2399(3) 0.53870(17) -0.54164(17)
N2_2 N 0.2478(3) 0.76022(19) -0.61578(19)
O8 O 0.8321(5) 1.4691(3) -0.1012(3)
H15 H 0.727(5) 1.502(4) -0.095(4)
H16 H 0.844(8) 1.464(5) -0.161(3)
O9 O 0.9788(7) 1.3422(3) -0.9039(3)
H17 H 0.932(9) 1.326(5) -0.948(4)
H18 H 1.009(9) 1.404(3) -0.911(5)
loop_
_geom_bond_atom_site_label_1
_geom_bond_atom_site_label_2
_geom_bond_site_symmetry_1
_geom_bond_site_symmetry_2
Cu1 O1 1_555 1_555
Cu2 O2 1_555 1_555
Cu3 O4 1_555 1_555
O1 H1 1_555 1_555
H2 O1 1_555 1_555
O2 H3 1_555 1_555
H4 O2 1_555 1_555
O3 Cu2 1_555 1_555
H5 O3 1_555 1_555
H6 O3 1_555 1_555
O4 H7 1_555 1_555
H8 O4 1_555 1_555
O5 Cu3 1_555 1_555
H9 O5 1_555 1_555
H10 O5 1_555 1_555
O6 Cu3 1_555 1_555
H11 O6 1_555 1_555
H12 O6 1_555 1_555
O7 Cu3 1_555 1_555
H13 O7 1_555 1_555
H14 O7 1_555 1_555
O8 H15 1_555 1_555
H16 O8 1_555 1_555
O9 H17 1_555 1_555
H18 O9 1_555 1_555
O10 Cu1 1_555 1_555
O11 C2 1_555 1_555
O12 Cu1 1_555 1_555
O13 C4 1_555 1_555
O14 Cu2 1_555 1_555
O15 C9 1_555 1_555
O16 Cu3 1_555 1_555
O17 C11 1_555 1_555
O18 C11 1_555 1_555
O19 Cu1 1_555 1_555
N1 Cu1 1_555 1_555
N2 C8 1_555 1_555
C1 N1 1_555 1_555
C2 O10 1_555 1_555
C3 C1 1_555 1_555
H19 C3 1_555 1_555
C4 O12 1_555 1_555
C5 N1 1_555 1_555
C6 C5 1_555 1_555
H20 C6 1_555 1_555
C7 O14 1_555 1_555
C8 C9 1_555 1_555
C9 O16 1_555 1_555
C10 C8 1_555 1_555
H21 C10 1_555 1_555
C11 C12 1_555 1_555
C12 N2 1_555 1_555
C13 O19 1_555 1_555
C14 C12 1_555 1_555
H22 C14 1_555 1_555
Cu2_2 O18 1_555 1_555
O18_2 Cu2 1_555 1_555
N2_2 Cu2 1_555 1_555
N2 Cu2_2 1_555 1_555
C1 C4 1_555 1_555
C2 C5 1_555 1_555
C3 C7 1_555 1_555
C6 C7 1_555 1_555
C10 C13 1_555 1_555
C13 C14 1_555 1_555

#END
