
#######################################################################
#
#                 Cambridge Crystallographic Data Centre
#                                CCDC 
#
#######################################################################
#
# If this CIF has been generated from an entry in the Cambridge 
# Structural Database, then it will include bibliographic, chemical, 
# crystal, experimental, refinement or atomic coordinate data resulting 
# from the CCDC's data processing and validation procedures.
#
#######################################################################

data_BUNZUG
_symmetry_cell_setting           orthorhombic
_symmetry_space_group_name_H-M   'P b c n'
_symmetry_Int_Tables_number      60
_space_group_name_Hall           '-P 2n 2ab'
loop_
_symmetry_equiv_pos_site_id
_symmetry_equiv_pos_as_xyz
1 x,y,z
2 1/2-x,1/2-y,1/2+z
3 1/2+x,1/2-y,-z
4 -x,y,1/2-z
5 -x,-y,-z
6 1/2+x,1/2+y,1/2-z
7 1/2-x,1/2+y,z
8 x,-y,1/2+z
_cell_length_a                   17.4233(4)
_cell_length_b                   14.7918(4)
_cell_length_c                   6.8851(2)
_cell_angle_alpha                90
_cell_angle_beta                 90
_cell_angle_gamma                90
_cell_volume                     1774.44
loop_
_atom_site_label
_atom_site_type_symbol
_atom_site_fract_x
_atom_site_fract_y
_atom_site_fract_z
Cu1 Cu 0.0000 0.30030(4) 0.7500
C1 C 0.1208(4) 0.0979(3) 0.4360(8)
H1 H 0.1117 0.0669 0.3209
C2 C 0.0681(3) 0.1580(2) 0.5046(5)
H2 H 0.0248 0.1691 0.4296
N1 N 0.0753(2) 0.20309(18) 0.6774(5)
C3 C 0.1376(2) 0.1861(2) 0.7770(5)
C4 C 0.1981(3) 0.1256(2) 0.7126(7)
C5 C 0.1878(4) 0.0834(3) 0.5386(9)
H3 H 0.2255 0.0453 0.4895
C6 C 0.2543(2) 0.1287(3) 0.8580(9)
H4 H 0.3007 0.0976 0.8580
C7 C 0.2290(2) 0.1847(3) 0.9968(8)
H5 H 0.2556 0.1976 1.1105
N2 N 0.15845(17) 0.22064(19) 0.9498(5)
H6 H 0.1268 0.2647 1.0253
O1 O 0.08050(11) 0.39303(14) 0.7062(3)
H7 H 0.0764 0.4065 0.5721
H8 H 0.0764 0.4455 0.7566
S1 S 0.0000 0.37704(7) 0.2500
O2 O -0.03368(14) 0.32060(15) 0.4031(3)
O3 O 0.06000(11) 0.43483(14) 0.3359(3)
Cu1_2 Cu 0.0000 0.30030(4) -0.2500
C1C C -0.1208(4) 0.0979(3) 1.0640(8)
H1C H -0.1117 0.0669 1.1791
C2C C -0.0681(3) 0.1580(2) 0.9954(5)
H2C H -0.0248 0.1691 1.0704
N1C N -0.0753(2) 0.20309(18) 0.8226(5)
C3C C -0.1376(2) 0.1861(2) 0.7230(5)
C4C C -0.1981(3) 0.1256(2) 0.7874(7)
C5C C -0.1878(4) 0.0834(3) 0.9614(9)
H3C H -0.2255 0.0453 1.0105
C6C C -0.2543(2) 0.1287(3) 0.6420(9)
H4C H -0.3007 0.0976 0.6420
C7C C -0.2290(2) 0.1847(3) 0.5032(8)
H5C H -0.2556 0.1976 0.3895
N2C N -0.15845(17) 0.22064(19) 0.5502(5)
H6C H -0.1268 0.2647 0.4747
O1C O -0.08050(11) 0.39303(14) 0.7938(3)
H7C H -0.0764 0.4065 0.9279
H8C H -0.0764 0.4455 0.7434
O2C O 0.03368(14) 0.32060(15) 0.0969(3)
O2C_2 O 0.03368(14) 0.32060(15) 1.0969(3)
O3C O -0.06000(11) 0.43483(14) 0.1641(3)
loop_
_geom_bond_atom_site_label_1
_geom_bond_atom_site_label_2
_geom_bond_site_symmetry_1
_geom_bond_site_symmetry_2
Cu1 N1 1_555 1_555
C1 H1 1_555 1_555
C2 C1 1_555 1_555
H2 C2 1_555 1_555
N1 C2 1_555 1_555
C3 N1 1_555 1_555
C4 C3 1_555 1_555
C5 C1 1_555 1_555
H3 C5 1_555 1_555
C6 C4 1_555 1_555
H4 C6 1_555 1_555
C7 C6 1_555 1_555
H5 C7 1_555 1_555
N2 C3 1_555 1_555
H6 N2 1_555 1_555
O1 Cu1 1_555 1_555
H7 O1 1_555 1_555
H8 O1 1_555 1_555
S1 O2 1_555 1_555
O2 Cu1 1_555 1_555
O3 S1 1_555 1_555
Cu1_2 O2C 1_555 1_555
C1C H1C 1_555 1_555
C2C C1C 1_555 1_555
H2C C2C 1_555 1_555
N1C Cu1 1_555 1_555
C3C N1C 1_555 1_555
C4C C3C 1_555 1_555
C5C C1C 1_555 1_555
H3C C5C 1_555 1_555
C6C C4C 1_555 1_555
H4C C6C 1_555 1_555
C7C C6C 1_555 1_555
H5C C7C 1_555 1_555
N2C C3C 1_555 1_555
H6C N2C 1_555 1_555
O1C Cu1 1_555 1_555
H7C O1C 1_555 1_555
H8C O1C 1_555 1_555
O2C S1 1_555 1_555
O2C_2 Cu1 1_555 1_555
O3C S1 1_555 1_555
C4 C5 1_555 1_555
C7 N2 1_555 1_555
C2C N1C 1_555 1_555
C4C C5C 1_555 1_555
C7C N2C 1_555 1_555

#END
