
#######################################################################
#
#                 Cambridge Crystallographic Data Centre
#                                CCDC 
#
#######################################################################
#
# If this CIF has been generated from an entry in the Cambridge 
# Structural Database, then it will include bibliographic, chemical, 
# crystal, experimental, refinement or atomic coordinate data resulting 
# from the CCDC's data processing and validation procedures.
#
#######################################################################

data_BUNZEQ
_symmetry_cell_setting           monoclinic
_symmetry_space_group_name_H-M   'P 21/c'
_symmetry_Int_Tables_number      14
_space_group_name_Hall           '-P 2ybc'
loop_
_symmetry_equiv_pos_site_id
_symmetry_equiv_pos_as_xyz
1 x,y,z
2 -x,1/2+y,1/2-z
3 -x,-y,-z
4 x,1/2-y,1/2+z
_cell_length_a                   12.8288(4)
_cell_length_b                   8.1099(3)
_cell_length_c                   18.0022(7)
_cell_angle_alpha                90
_cell_angle_beta                 103.4870(10)
_cell_angle_gamma                90
_cell_volume                     1821.3
loop_
_atom_site_label
_atom_site_type_symbol
_atom_site_fract_x
_atom_site_fract_y
_atom_site_fract_z
Cu1 Cu 0.468967(18) 0.20705(3) 0.353954(14)
O1 O 0.40335(10) 0.42338(17) 0.35762(8)
O2 O 0.26180(11) 0.57067(18) 0.29899(8)
O3 O 0.50477(11) -0.02372(18) 0.33912(8)
O4 O 0.46738(11) -0.21857(18) 0.24936(8)
N1 N 0.86439(14) 0.2249(2) 0.54212(12)
N2 N 0.59230(13) 0.2503(2) 0.43924(10)
N3 N 0.68773(13) 0.3009(2) 0.55721(10)
H1 H 0.7015 0.3422 0.6094
N4 N 0.32855(12) 0.1454(2) 0.28395(10)
C1 C 0.86093(18) 0.1389(3) 0.41266(15)
H2 H 0.9148 0.1166 0.3926
C2 C 0.91293(17) 0.1709(3) 0.48809(16)
H3 H 0.9916 0.1584 0.5040
C3 C 0.75875(16) 0.2455(2) 0.51632(13)
C4 C 0.69945(15) 0.2142(2) 0.44242(12)
C5 C 0.75168(17) 0.1591(3) 0.38764(13)
H4 H 0.7207 0.1546 0.3399
C6 C 0.59063(16) 0.3025(3) 0.50841(12)
H5 H 0.5311 0.3427 0.5256
C7 C 0.28508(16) 0.3028(3) 0.24854(12)
H6 H 0.3186 0.3324 0.2109
H7 H 0.2236 0.3094 0.2343
C8 C 0.31744(15) 0.4433(3) 0.30620(11)
C9 C 0.35845(16) 0.0232(3) 0.23151(11)
H8 H 0.3940 0.0749 0.1978
H9 H 0.3002 -0.0426 0.2076
C10 C 0.45010(15) -0.0841(2) 0.27627(12)
C11 C 0.25359(16) 0.0650(3) 0.32578(12)
H10 H 0.1855 0.0591 0.2924
H11 H 0.2816 -0.0443 0.3429
C12 C 0.24081(15) 0.1593(3) 0.39499(12)
C13 C 0.15382(16) 0.2645(3) 0.39184(12)
H12 H 0.1175 0.2821 0.3549
C14 C 0.14488(16) 0.3545(3) 0.45522(13)
H13 H 0.0998 0.4156 0.4516
C15 C 0.22059(17) 0.3397(3) 0.52295(12)
H14 H 0.2067 0.3864 0.5662
C16 C 0.30683(17) 0.2324(3) 0.52786(12)
H15 H 0.3500 0.2104 0.5769
C17 C 0.31597(16) 0.1431(3) 0.46420(12)
H16 H 0.3683 0.0792 0.4687
Cu1A Cu 0.531033(18) -0.29295(3) 0.146046(14)
O4A O 0.53262(11) 0.28143(18) 0.25064(8)
loop_
_geom_bond_atom_site_label_1
_geom_bond_atom_site_label_2
_geom_bond_site_symmetry_1
_geom_bond_site_symmetry_2
Cu1 O1 1_555 1_555
O1 C8 1_555 1_555
O2 C8 1_555 1_555
O3 Cu1 1_555 1_555
O4 C10 1_555 1_555
N1 C2 1_555 1_555
N2 Cu1 1_555 1_555
N3 H1 1_555 1_555
N4 Cu1 1_555 1_555
C1 H2 1_555 1_555
C2 C1 1_555 1_555
H3 C2 1_555 1_555
C3 N1 1_555 1_555
C4 N2 1_555 1_555
C5 C1 1_555 1_555
H4 C5 1_555 1_555
C6 N2 1_555 1_555
H5 C6 1_555 1_555
C7 N4 1_555 1_555
H6 C7 1_555 1_555
H7 C7 1_555 1_555
C8 C7 1_555 1_555
C9 N4 1_555 1_555
H8 C9 1_555 1_555
H9 C9 1_555 1_555
C10 O3 1_555 1_555
C11 N4 1_555 1_555
H10 C11 1_555 1_555
H11 C11 1_555 1_555
C12 C11 1_555 1_555
C13 C12 1_555 1_555
H12 C13 1_555 1_555
C14 C13 1_555 1_555
H13 C14 1_555 1_555
C15 C14 1_555 1_555
H14 C15 1_555 1_555
C16 C15 1_555 1_555
H15 C16 1_555 1_555
C17 C12 1_555 1_555
H16 C17 1_555 1_555
Cu1A O4 1_555 1_555
O4A Cu1 1_555 1_555
N3 C3 1_555 1_555
N3 C6 1_555 1_555
C3 C4 1_555 1_555
C4 C5 1_555 1_555
C9 C10 1_555 1_555
C16 C17 1_555 1_555

#END
