
#######################################################################
#
#                 Cambridge Crystallographic Data Centre
#                                CCDC 
#
#######################################################################
#
# If this CIF has been generated from an entry in the Cambridge 
# Structural Database, then it will include bibliographic, chemical, 
# crystal, experimental, refinement or atomic coordinate data resulting 
# from the CCDC's data processing and validation procedures.
#
#######################################################################

data_BUPCOF
_symmetry_cell_setting           tetragonal
_symmetry_space_group_name_H-M   'P 41'
_symmetry_Int_Tables_number      76
_space_group_name_Hall           'P 4w'
loop_
_symmetry_equiv_pos_site_id
_symmetry_equiv_pos_as_xyz
1 x,y,z
2 -x,-y,1/2+z
3 -y,x,1/4+z
4 y,-x,3/4+z
_cell_length_a                   9.138(1)
_cell_length_b                   9.138(1)
_cell_length_c                   30.539(4)
_cell_angle_alpha                90
_cell_angle_beta                 90
_cell_angle_gamma                90
_cell_volume                     2550.1
loop_
_atom_site_label
_atom_site_type_symbol
_atom_site_fract_x
_atom_site_fract_y
_atom_site_fract_z
Ag1 Ag -0.09722(7) 0.05718(6) 0.113576(19)
S1 S 0.0001(2) -0.03252(18) 0.28221(5)
S2 S 0.2217(2) -0.1587(2) 0.35422(6)
N1 N -0.2016(7) 0.2910(6) 0.18576(17)
N2 N 0.0276(6) 0.1796(6) 0.20394(18)
N3 N -0.2107(7) 0.2609(7) 0.14164(18)
C1 C -0.2838(9) 0.4064(9) 0.1957(3)
H1 H -0.2946 0.4469 0.2235
N4 N 0.0743(7) 0.0941(7) 0.1701(2)
C2 C -0.2044(7) 0.0445(7) 0.2193(2)
C3 C -0.1272(8) 0.1917(7) 0.2155(2)
H2 H -0.1311 0.2368 0.2446
C4 C 0.1192(7) -0.1812(7) 0.2682(2)
C5 C -0.1549(7) -0.0656(7) 0.2482(2)
C6 C 0.3035(9) -0.4117(9) 0.2488(4)
H3 H 0.3639 -0.4909 0.2425
C7 C -0.3378(8) 0.0202(8) 0.1976(2)
H4 H -0.3758 0.0924 0.1794
C8 C 0.2152(8) -0.2310(8) 0.2997(3)
C9 C 0.3084(9) -0.3488(9) 0.2898(3)
H5 H 0.3732 -0.3841 0.3108
C10 C 0.3077(8) 0.0142(8) 0.3449(2)
C11 C 0.1187(10) -0.2421(9) 0.2263(3)
H6 H 0.0575 -0.2051 0.2047
C12 C -0.3007(9) 0.3591(8) 0.1257(2)
H7 H -0.3288 0.3643 0.0965
C13 C -0.4132(8) -0.1092(9) 0.2029(3)
H8 H -0.5004 -0.1239 0.1878
C14 C 0.2119(10) -0.3597(9) 0.2176(3)
H9 H 0.2110 -0.4029 0.1901
C15 C 0.1413(9) 0.2462(9) 0.2247(3)
H10 H 0.1361 0.3077 0.2489
C16 C 0.2177(8) 0.1122(9) 0.1694(3)
H11 H 0.2795 0.0686 0.1490
C17 C 0.2650(9) 0.2043(10) 0.2027(3)
H12 H 0.3609 0.2317 0.2088
C18 C -0.3604(8) -0.2175(8) 0.2304(3)
H13 H -0.4117 -0.3047 0.2338
C19 C 0.2344(9) 0.1458(9) 0.3502(3)
H14 H 0.1360 0.1450 0.3580
C20 C 0.4486(10) 0.2821(10) 0.3335(3)
H15 H 0.4964 0.3712 0.3301
C21 C -0.3494(10) 0.4556(9) 0.1585(3)
H16 H -0.4123 0.5350 0.1554
C22 C 0.3045(11) 0.2779(10) 0.3443(3)
H17 H 0.2528 0.3648 0.3477
C23 C -0.2324(9) -0.1950(8) 0.2525(3)
H18 H -0.1966 -0.2680 0.2708
C24 C 0.5242(11) 0.1508(12) 0.3277(5)
H19 H 0.6228 0.1531 0.3202
C25 C 0.4555(10) 0.0179(11) 0.3328(4)
H20 H 0.5067 -0.0687 0.3283
Ag1B Ag -0.05718(6) -0.09722(7) 0.363576(19)
S1C S -0.03252(18) -0.0001(2) 0.03221(5)
S2C S -0.1587(2) -0.2217(2) 0.10422(6)
F1 F 0.4847(7) 0.0365(6) 0.0278(2)
F2 F 0.4748(6) 0.2638(6) 0.05351(17)
F3 F 0.2867(5) 0.1091(7) 0.06636(16)
F4 F 0.5031(7) 0.0735(8) 0.10164(18)
B1 B 0.4384(10) 0.1195(11) 0.0629(3)
loop_
_geom_bond_atom_site_label_1
_geom_bond_atom_site_label_2
_geom_bond_site_symmetry_1
_geom_bond_site_symmetry_2
Ag1 N3 1_555 1_555
S1 C4 1_555 1_555
S2 C8 1_555 1_555
N1 N3 1_555 1_555
N2 N4 1_555 1_555
N3 C12 1_555 1_555
C1 N1 1_555 1_555
H1 C1 1_555 1_555
N4 Ag1 1_555 1_555
C2 C3 1_555 1_555
C3 N1 1_555 1_555
H2 C3 1_555 1_555
C4 C8 1_555 1_555
C5 S1 1_555 1_555
C6 H3 1_555 1_555
C7 C2 1_555 1_555
H4 C7 1_555 1_555
C8 C9 1_555 1_555
C9 C6 1_555 1_555
H5 C9 1_555 1_555
C10 S2 1_555 1_555
C11 C4 1_555 1_555
H6 C11 1_555 1_555
C12 H7 1_555 1_555
C13 C7 1_555 1_555
H8 C13 1_555 1_555
C14 C6 1_555 1_555
H9 C14 1_555 1_555
C15 N2 1_555 1_555
H10 C15 1_555 1_555
C16 N4 1_555 1_555
H11 C16 1_555 1_555
C17 C15 1_555 1_555
H12 C17 1_555 1_555
C18 C13 1_555 1_555
H13 C18 1_555 1_555
C19 C10 1_555 1_555
H14 C19 1_555 1_555
C20 H15 1_555 1_555
C21 C1 1_555 1_555
H16 C21 1_555 1_555
C22 C19 1_555 1_555
H17 C22 1_555 1_555
C23 C5 1_555 1_555
H18 C23 1_555 1_555
C24 C20 1_555 1_555
H19 C24 1_555 1_555
C25 C10 1_555 1_555
H20 C25 1_555 1_555
F1 B1 1_555 1_555
F2 B1 1_555 1_555
F3 B1 1_555 1_555
F4 B1 1_555 1_555
Ag1B S1 1_555 1_555
S1C Ag1 1_555 1_555
S2C Ag1 1_555 1_555
S2 Ag1B 1_555 1_555
N2 C3 1_555 1_555
C2 C5 1_555 1_555
C11 C14 1_555 1_555
C12 C21 1_555 1_555
C16 C17 1_555 1_555
C18 C23 1_555 1_555
C20 C22 1_555 1_555
C24 C25 1_555 1_555

#END
