
#######################################################################
#
#                 Cambridge Crystallographic Data Centre
#                                CCDC 
#
#######################################################################
#
# If this CIF has been generated from an entry in the Cambridge 
# Structural Database, then it will include bibliographic, chemical, 
# crystal, experimental, refinement or atomic coordinate data resulting 
# from the CCDC's data processing and validation procedures.
#
#######################################################################

data_BUPDEW
_symmetry_cell_setting           orthorhombic
_symmetry_space_group_name_H-M   'P b c a'
_symmetry_Int_Tables_number      61
_space_group_name_Hall           '-P 2ac 2ab'
loop_
_symmetry_equiv_pos_site_id
_symmetry_equiv_pos_as_xyz
1 x,y,z
2 -x,1/2+y,1/2-z
3 1/2+x,1/2-y,-z
4 1/2-x,-y,1/2+z
5 -x,-y,-z
6 x,1/2-y,1/2+z
7 1/2-x,1/2+y,z
8 1/2+x,y,1/2-z
_cell_length_a                   20.781(1)
_cell_length_b                   18.131(1)
_cell_length_c                   22.205(1)
_cell_angle_alpha                90
_cell_angle_beta                 90
_cell_angle_gamma                90
_cell_volume                     8366.41
loop_
_atom_site_label
_atom_site_type_symbol
_atom_site_fract_x
_atom_site_fract_y
_atom_site_fract_z
Ag1 Ag 0.256661(17) 0.14153(2) 0.006746(17)
S1 S 0.25799(6) -0.25562(7) 0.07532(5)
S2 S 0.16240(6) -0.11632(8) 0.06388(6)
N1 N 0.18228(18) 0.0474(2) -0.00667(18)
N2 N 0.3279(2) 0.0675(3) -0.0400(2)
C1 C 0.1883(2) -0.2492(3) 0.1225(2)
C2 C 0.1489(2) -0.1867(3) 0.1184(2)
C3 C 0.2759(2) -0.0381(3) 0.0572(2)
C4 C 0.2307(2) -0.0706(3) 0.0949(2)
N3 N 0.20698(19) -0.0154(2) -0.03253(17)
C5 C 0.1258(3) 0.0571(3) -0.0345(3)
C6 C 0.1149(3) 0.0010(3) -0.0765(3)
H1 H 0.0787 -0.0042 -0.1008
C7 C 0.0950(2) -0.1816(3) 0.1555(2)
H2 H 0.0692 -0.1398 0.1539
C8 C 0.3826(3) 0.0834(4) -0.0683(3)
C9 C 0.3717(3) -0.0399(4) -0.0724(3)
C10 C 0.2399(3) -0.0663(3) 0.1570(2)
H3 H 0.2087 -0.0851 0.1829
C11 C 0.3197(2) -0.2862(3) 0.1261(2)
C12 C 0.2947(4) -0.0345(4) 0.1803(3)
H4 H 0.3005 -0.0327 0.2218
C13 C 0.0795(3) -0.2384(4) 0.1946(3)
H5 H 0.0431 -0.2346 0.2188
C14 C 0.0832(3) 0.1207(3) -0.0179(3)
H6 H 0.1103 0.1600 -0.0013
C15 C 0.2203(4) -0.0875(4) -0.1693(3)
H7 H 0.2294 -0.1304 -0.1931
H8 H 0.2600 -0.0644 -0.1576
H9 H 0.1950 -0.0534 -0.1924
C16 C 0.1829(3) -0.1103(3) -0.1129(2)
H10 H 0.2099 -0.1436 -0.0891
C17 C 0.1670(3) -0.0446(3) -0.0752(2)
C18 C 0.1213(4) -0.1512(4) -0.1302(3)
H11 H 0.0936 -0.1187 -0.1524
H12 H 0.0996 -0.1674 -0.0943
H13 H 0.1319 -0.1931 -0.1546
C19 C 0.1175(3) -0.2999(4) 0.1978(3)
H14 H 0.1066 -0.3380 0.2239
N4 N 0.3216(2) -0.0076(2) -0.0427(2)
C20 C 0.3597(3) -0.2333(4) 0.1510(3)
H15 H 0.3530 -0.1836 0.1426
C21 C 0.3961(4) -0.1576(4) -0.0199(4)
H16 H 0.4361 -0.1379 -0.0055
H17 H 0.4002 -0.2099 -0.0254
H18 H 0.3628 -0.1477 0.0089
C22 C 0.1725(3) -0.3059(3) 0.1621(2)
H19 H 0.1986 -0.3475 0.1648
C23 C 0.3403(3) -0.0057(3) 0.1434(3)
H20 H 0.3777 0.0143 0.1595
C24 C 0.4110(3) 0.0175(4) -0.0891(3)
H21 H 0.4494 0.0137 -0.1103
C25 C 0.3309(3) -0.0062(3) 0.0822(3)
H22 H 0.3616 0.0148 0.0571
C26 C 0.4618(4) 0.1707(5) -0.1126(5)
H23 H 0.4941 0.1349 -0.1024
H24 H 0.4794 0.2194 -0.1084
H25 H 0.4482 0.1633 -0.1534
C27 C 0.4219(4) 0.1914(5) -0.0073(4)
H26 H 0.4549 0.1612 0.0102
H27 H 0.3841 0.1898 0.0176
H28 H 0.4369 0.2413 -0.0102
C28 C 0.3294(3) -0.3599(4) 0.1381(3)
H29 H 0.3026 -0.3954 0.1212
C29 C 0.0492(4) 0.1508(4) -0.0728(4)
H30 H 0.0239 0.1124 -0.0909
H31 H 0.0804 0.1682 -0.1012
H32 H 0.0216 0.1908 -0.0611
C30 C 0.4053(3) 0.1622(4) -0.0711(4)
H33 H 0.3700 0.1922 -0.0871
C31 C 0.3790(4) -0.1217(4) -0.0796(3)
H34 H 0.3380 -0.1421 -0.0936
C32 C 0.2686(2) -0.0431(3) -0.0112(2)
H35 H 0.2702 -0.0956 -0.0216
C33 C 0.4311(5) -0.1378(4) -0.1274(4)
H36 H 0.4191 -0.1152 -0.1649
H37 H 0.4349 -0.1901 -0.1329
H38 H 0.4715 -0.1181 -0.1142
C34 C 0.0353(4) 0.0978(5) 0.0303(4)
H39 H 0.0159 0.1409 0.0476
H40 H 0.0571 0.0704 0.0611
H41 H 0.0025 0.0675 0.0125
C35 C 0.3799(4) -0.3809(5) 0.1758(3)
H42 H 0.3867 -0.4304 0.1846
C36 C 0.4196(3) -0.3278(7) 0.1998(3)
H43 H 0.4537 -0.3419 0.2243
C37 C 0.4096(3) -0.2546(6) 0.1883(3)
H44 H 0.4363 -0.2192 0.2055
Ag1F Ag 0.243339(17) -0.35847(2) 0.006746(17)
S1F S 0.24201(6) 0.24438(7) 0.07532(5)
O1 O 0.2311(2) 0.2144(2) -0.09849(19)
C38 C 0.2254(4) 0.1883(4) -0.1485(3)
C39 C 0.2391(8) 0.1138(6) -0.1626(4)
H45 H 0.2480 0.0871 -0.1263
H46 H 0.2758 0.1116 -0.1888
H47 H 0.2026 0.0921 -0.1825
C40 C 0.1966(8) 0.2259(7) -0.1980(5)
H48 H 0.1624 0.1962 -0.2143
H49 H 0.2284 0.2344 -0.2286
H50 H 0.1794 0.2722 -0.1846
B1 B 0.0265(4) 0.0278(5) -0.2365(4)
F1 F -0.0084(2) 0.0206(3) -0.1854(2)
F2 F 0.0517(11) 0.0946(7) -0.2355(7)
F3 F 0.0660(9) -0.0301(8) -0.2367(7)
F4 F 0.0092(5) 0.0025(10) -0.2892(5)
F5? F 0.0901(5) 0.0235(16) -0.2248(6)
F6? F 0.0198(18) 0.0948(13) -0.2602(15)
F7? F -0.0299(12) 0.0307(15) -0.2695(10)
loop_
_geom_bond_atom_site_label_1
_geom_bond_atom_site_label_2
_geom_bond_site_symmetry_1
_geom_bond_site_symmetry_2
Ag1 N1 1_555 1_555
S1 C1 1_555 1_555
S2 C2 1_555 1_555
N1 N3 1_555 1_555
N2 Ag1 1_555 1_555
C1 C2 1_555 1_555
C2 C7 1_555 1_555
C3 C4 1_555 1_555
C4 S2 1_555 1_555
N3 C17 1_555 1_555
C5 N1 1_555 1_555
C6 C5 1_555 1_555
H1 C6 1_555 1_555
C7 H2 1_555 1_555
C8 N2 1_555 1_555
C9 N4 1_555 1_555
C10 C4 1_555 1_555
H3 C10 1_555 1_555
C11 S1 1_555 1_555
C12 C10 1_555 1_555
H4 C12 1_555 1_555
C13 C7 1_555 1_555
H5 C13 1_555 1_555
C14 C5 1_555 1_555
H6 C14 1_555 1_555
C15 H7 1_555 1_555
H8 C15 1_555 1_555
H9 C15 1_555 1_555
C16 C15 1_555 1_555
H10 C16 1_555 1_555
C17 C6 1_555 1_555
C18 C16 1_555 1_555
H11 C18 1_555 1_555
H12 C18 1_555 1_555
H13 C18 1_555 1_555
C19 C13 1_555 1_555
H14 C19 1_555 1_555
N4 N2 1_555 1_555
C20 C11 1_555 1_555
H15 C20 1_555 1_555
C21 H16 1_555 1_555
H17 C21 1_555 1_555
H18 C21 1_555 1_555
C22 C1 1_555 1_555
H19 C22 1_555 1_555
C23 C12 1_555 1_555
H20 C23 1_555 1_555
C24 C8 1_555 1_555
H21 C24 1_555 1_555
C25 C3 1_555 1_555
H22 C25 1_555 1_555
C26 H23 1_555 1_555
H24 C26 1_555 1_555
H25 C26 1_555 1_555
C27 H26 1_555 1_555
H27 C27 1_555 1_555
H28 C27 1_555 1_555
C28 C11 1_555 1_555
H29 C28 1_555 1_555
C29 C14 1_555 1_555
H30 C29 1_555 1_555
H31 C29 1_555 1_555
H32 C29 1_555 1_555
C30 C8 1_555 1_555
H33 C30 1_555 1_555
C31 C9 1_555 1_555
H34 C31 1_555 1_555
C32 C3 1_555 1_555
H35 C32 1_555 1_555
C33 C31 1_555 1_555
H36 C33 1_555 1_555
H37 C33 1_555 1_555
H38 C33 1_555 1_555
C34 C14 1_555 1_555
H39 C34 1_555 1_555
H40 C34 1_555 1_555
H41 C34 1_555 1_555
C35 C28 1_555 1_555
H42 C35 1_555 1_555
C36 C35 1_555 1_555
H43 C36 1_555 1_555
C37 C20 1_555 1_555
H44 C37 1_555 1_555
O1 C38 1_555 1_555
C38 C39 1_555 1_555
C39 H45 1_555 1_555
H46 C39 1_555 1_555
H47 C39 1_555 1_555
C40 C38 1_555 1_555
H48 C40 1_555 1_555
H49 C40 1_555 1_555
H50 C40 1_555 1_555
B1 F1 1_555 1_555
F2 B1 1_555 1_555
F3 B1 1_555 1_555
F4 B1 1_555 1_555
Ag1F S1 1_555 1_555
S1F Ag1 1_555 1_555
N3 C32 1_555 1_555
C9 C24 1_555 1_555
C16 C17 1_555 1_555
C19 C22 1_555 1_555
N4 C32 1_555 1_555
C21 C31 1_555 1_555
C23 C25 1_555 1_555
C26 C30 1_555 1_555
C27 C30 1_555 1_555
C36 C37 1_555 1_555

#END
