
#######################################################################
#
#                 Cambridge Crystallographic Data Centre
#                                CCDC 
#
#######################################################################
#
# If this CIF has been generated from an entry in the Cambridge 
# Structural Database, then it will include bibliographic, chemical, 
# crystal, experimental, refinement or atomic coordinate data resulting 
# from the CCDC's data processing and validation procedures.
#
#######################################################################

data_BUPFID
_symmetry_cell_setting           orthorhombic
_symmetry_space_group_name_H-M   'F d d d'
_symmetry_Int_Tables_number      70
_space_group_name_Hall           '-F 2uv 2vw'
loop_
_symmetry_equiv_pos_site_id
_symmetry_equiv_pos_as_xyz
1 x,y,z
2 3/4-x,3/4-y,z
3 3/4-x,y,3/4-z
4 x,3/4-y,3/4-z
5 x,1/2+y,1/2+z
6 3/4-x,1/4-y,1/2+z
7 3/4-x,1/2+y,1/4-z
8 x,1/4-y,1/4-z
9 1/2+x,y,1/2+z
10 1/4-x,3/4-y,1/2+z
11 1/4-x,y,1/4-z
12 1/2+x,3/4-y,1/4-z
13 1/2+x,1/2+y,z
14 1/4-x,1/4-y,z
15 1/4-x,1/2+y,3/4-z
16 1/2+x,1/4-y,3/4-z
17 -x,-y,-z
18 1/4+x,1/4+y,-z
19 1/4+x,-y,1/4+z
20 -x,1/4+y,1/4+z
21 -x,1/2-y,1/2-z
22 1/4+x,3/4+y,1/2-z
23 1/4+x,1/2-y,3/4+z
24 -x,3/4+y,3/4+z
25 1/2-x,-y,1/2-z
26 3/4+x,1/4+y,1/2-z
27 3/4+x,-y,3/4+z
28 1/2-x,1/4+y,3/4+z
29 1/2-x,1/2-y,-z
30 3/4+x,3/4+y,-z
31 3/4+x,1/2-y,1/4+z
32 1/2-x,3/4+y,1/4+z
_cell_length_a                   10.8136(3)
_cell_length_b                   27.5330(7)
_cell_length_c                   29.5266(8)
_cell_angle_alpha                90
_cell_angle_beta                 90
_cell_angle_gamma                90
_cell_volume                     8790.98
loop_
_atom_site_label
_atom_site_type_symbol
_atom_site_fract_x
_atom_site_fract_y
_atom_site_fract_z
C1 C 0.23210(16) 0.61234(6) 0.04362(6)
C2 C 0.25932(18) 0.63286(7) 0.00149(6)
H1 H 0.2074 0.6569 -0.0099
C3 C 0.36068(19) 0.61875(8) -0.02398(7)
H2 H 0.3771 0.6335 -0.0517
C4 C 0.43768(17) 0.58231(7) -0.00761(7)
H3 H 0.5042 0.5715 -0.0249
C5 C 0.31520(16) 0.57780(6) 0.06140(6)
C6 C 0.41472(17) 0.56229(7) 0.03438(6)
H4 H 0.4664 0.5379 0.0451
C7 C 0.38686(16) 0.54637(7) 0.13131(6)
C8 C 0.36922(17) 0.50565(7) 0.16643(7)
C9 C 0.23705(17) 0.50138(7) 0.18420(7)
H5 H 0.2153 0.5305 0.2002
H6 H 0.2314 0.4741 0.2044
H7 H 0.1814 0.4968 0.1592
C10 C 0.4032(2) 0.45875(8) 0.14078(8)
H8 H 0.3941 0.4314 0.1606
H9 H 0.4873 0.4607 0.1305
H10 H 0.3493 0.4550 0.1152
C11 C 0.45887(19) 0.51298(8) 0.20587(7)
H11 H 0.4377 0.5422 0.2218
H12 H 0.5417 0.5156 0.1944
H13 H 0.4536 0.4858 0.2261
Co1 Co 0.1250 0.576720(13) 0.1250
N1 N 0.1250 0.6250 0.06940(7)
N2 N 0.28907(13) 0.55626(5) 0.10380(5)
O1 O 0.48987(13) 0.56510(5) 0.12750(5)
C1M C 0.01790(16) 0.63766(6) 0.04362(6)
C2M C -0.00932(18) 0.61714(7) 0.00149(6)
H1M H 0.0426 0.5931 -0.0099
C3M C -0.11068(19) 0.63125(8) -0.02398(7)
H2M H -0.1271 0.6165 -0.0517
C4M C -0.18768(17) 0.66769(7) -0.00761(7)
H3M H -0.2542 0.6785 -0.0249
C5M C -0.06520(16) 0.67220(6) 0.06140(6)
C6M C -0.16472(17) 0.68771(7) 0.03438(6)
H4M H -0.2164 0.7121 0.0451
C7M C -0.13686(16) 0.70363(7) 0.13131(6)
C8M C -0.11922(17) 0.74435(7) 0.16643(7)
C9M C 0.01295(17) 0.74862(7) 0.18420(7)
H5M H 0.0347 0.7195 0.2002
H6M H 0.0186 0.7759 0.2044
H7M H 0.0686 0.7532 0.1592
C10M C -0.1532(2) 0.79125(8) 0.14078(8)
H8M H -0.1441 0.8186 0.1606
H9M H -0.2373 0.7893 0.1305
H10M H -0.0993 0.7950 0.1152
C11M C -0.20887(19) 0.73702(8) 0.20587(7)
H11M H -0.1877 0.7078 0.2218
H12M H -0.2917 0.7344 0.1944
H13M H -0.2036 0.7642 0.2261
N2M N -0.03907(13) 0.69374(5) 0.10380(5)
O1M O -0.23987(13) 0.68490(5) 0.12750(5)
Co1G Co 0.1250 0.673280(13) 0.1250
N1G N 0.1250 0.6250 0.18060(7)
N2J N -0.03907(13) 0.55626(5) 0.14620(5)
K1 K 0.6250 0.6250 0.07082(2)
loop_
_geom_bond_atom_site_label_1
_geom_bond_atom_site_label_2
_geom_bond_site_symmetry_1
_geom_bond_site_symmetry_2
C1 C2 1_555 1_555
C2 H1 1_555 1_555
C3 C2 1_555 1_555
H2 C3 1_555 1_555
C4 C3 1_555 1_555
H3 C4 1_555 1_555
C5 C1 1_555 1_555
C6 C4 1_555 1_555
H4 C6 1_555 1_555
C7 C8 1_555 1_555
C8 C9 1_555 1_555
C9 H5 1_555 1_555
H6 C9 1_555 1_555
H7 C9 1_555 1_555
C10 C8 1_555 1_555
H8 C10 1_555 1_555
H9 C10 1_555 1_555
H10 C10 1_555 1_555
C11 C8 1_555 1_555
H11 C11 1_555 1_555
H12 C11 1_555 1_555
H13 C11 1_555 1_555
Co1 N1 1_555 1_555
N1 C1 1_555 1_555
N2 C5 1_555 1_555
O1 C7 1_555 1_555
C1M N1 1_555 1_555
C2M C1M 1_555 1_555
H1M C2M 1_555 1_555
C3M C2M 1_555 1_555
H2M C3M 1_555 1_555
C4M C3M 1_555 1_555
H3M C4M 1_555 1_555
C5M C1M 1_555 1_555
C6M C4M 1_555 1_555
H4M C6M 1_555 1_555
C7M C8M 1_555 1_555
C8M C9M 1_555 1_555
C9M H5M 1_555 1_555
H6M C9M 1_555 1_555
H7M C9M 1_555 1_555
C10M C8M 1_555 1_555
H8M C10M 1_555 1_555
H9M C10M 1_555 1_555
H10M C10M 1_555 1_555
C11M C8M 1_555 1_555
H11M C11M 1_555 1_555
H12M C11M 1_555 1_555
H13M C11M 1_555 1_555
N2M C5M 1_555 1_555
O1M C7M 1_555 1_555
Co1G N1 1_555 1_555
N1G Co1 1_555 1_555
N2J Co1 1_555 1_555
C5 C6 1_555 1_555
C7 N2 1_555 1_555
Co1 N2 1_555 1_555
C5M C6M 1_555 1_555
C7M N2M 1_555 1_555
N2M Co1G 1_555 1_555
Co1G N1G 1_555 1_555

#END
