
#######################################################################
#
#                 Cambridge Crystallographic Data Centre
#                                CCDC 
#
#######################################################################
#
# If this CIF has been generated from an entry in the Cambridge 
# Structural Database, then it will include bibliographic, chemical, 
# crystal, experimental, refinement or atomic coordinate data resulting 
# from the CCDC's data processing and validation procedures.
#
#######################################################################

data_BUPGEZ
_symmetry_cell_setting           tetragonal
_symmetry_space_group_name_H-M   'I 4/m'
_symmetry_Int_Tables_number      87
_space_group_name_Hall           '-I 4'
loop_
_symmetry_equiv_pos_site_id
_symmetry_equiv_pos_as_xyz
1 x,y,z
2 -x,-y,z
3 -y,x,z
4 y,-x,z
5 1/2+x,1/2+y,1/2+z
6 1/2-x,1/2-y,1/2+z
7 1/2-y,1/2+x,1/2+z
8 1/2+y,1/2-x,1/2+z
9 -x,-y,-z
10 x,y,-z
11 y,-x,-z
12 -y,x,-z
13 1/2-x,1/2-y,1/2-z
14 1/2+x,1/2+y,1/2-z
15 1/2+y,1/2-x,1/2-z
16 1/2-y,1/2+x,1/2-z
_cell_length_a                   15.930(2)
_cell_length_b                   15.930(2)
_cell_length_c                   15.941(4)
_cell_angle_alpha                90
_cell_angle_beta                 90
_cell_angle_gamma                90
_cell_volume                     4045.27
loop_
_atom_site_label
_atom_site_type_symbol
_atom_site_fract_x
_atom_site_fract_y
_atom_site_fract_z
Si1 Si 0.5000 0.5000 0.5000
F1 F 0.5000 0.5000 0.6073(2)
F2 F 0.5989(3) 0.5216(5) 0.5000
F1H F 0.5000 0.5000 0.3927(2)
F2A F 0.4011(3) 0.4784(5) 0.5000
F2B F 0.4784(5) 0.5989(3) 0.5000
F2C F 0.5216(5) 0.4011(3) 0.5000
Zn1 Zn 0.5000 0.5000 0.76211(6)
Si2 Si 0.5000 0.5000 1.0000
F3 F 0.5000 0.5000 0.8917(3)
F4 F 0.5990(2) 0.4670(3) 1.0000
N1 N 0.5542(2) 0.3789(2) 0.75681(19)
C1 C 0.5430(3) 0.3292(3) 0.6901(2)
H1 H 0.5103 0.3498 0.6447
C2 C 0.5764(3) 0.2498(3) 0.6836(2)
H2 H 0.5675 0.2176 0.6343
C3 C 0.6227(3) 0.2171(3) 0.7489(2)
C4 C 0.6340(3) 0.2689(3) 0.8187(3)
H3 H 0.6659 0.2494 0.8652
C5 C 0.5994(3) 0.3475(3) 0.8205(3)
H4 H 0.6079 0.3813 0.8688
S1 S 0.66519(9) 0.11558(7) 0.75304(7)
C6 C 0.6288(3) 0.0680(3) 0.6568(3)
H5 H 0.6304 0.0063 0.6634
H6 H 0.5695 0.0844 0.6479
C7 C 0.6787(3) 0.0914(3) 0.5791(3)
H7 H 0.6840 0.1533 0.5759
H8 H 0.7359 0.0675 0.5834
C8 C 0.6370(5) 0.0593(4) 0.5000
H9 H 0.6386 -0.0028 0.5000
H10 H 0.5773 0.0768 0.5000
Zn1H Zn 0.5000 0.5000 1.23789(6)
Zn1H_2 Zn 0.5000 0.5000 0.23789(6)
F3H F 0.5000 0.5000 1.1083(3)
F4A F 0.4010(2) 0.5330(3) 1.0000
F4B F 0.5330(3) 0.5990(2) 1.0000
F4C F 0.4670(3) 0.4010(2) 1.0000
N1I N 0.5542(2) 0.3789(2) 0.24319(19)
N1A N 0.4458(2) 0.6211(2) 0.75681(19)
N1H N 0.4458(2) 0.6211(2) 0.24319(19)
N1B N 0.6211(2) 0.5542(2) 0.75681(19)
N1K N 0.6211(2) 0.5542(2) 0.24319(19)
N1C N 0.3789(2) 0.4458(2) 0.75681(19)
N1J N 0.3789(2) 0.4458(2) 0.24319(19)
N1H_2 N 0.4458(2) 0.6211(2) 1.24319(19)
N1I_2 N 0.5542(2) 0.3789(2) 1.24319(19)
N1J_2 N 0.3789(2) 0.4458(2) 1.24319(19)
N1K_2 N 0.6211(2) 0.5542(2) 1.24319(19)
C1I C 0.5430(3) 0.3292(3) 0.3099(2)
C1A C 0.4570(3) 0.6708(3) 0.6901(2)
C1H C 0.4570(3) 0.6708(3) 0.3099(2)
C1B C 0.6708(3) 0.5430(3) 0.6901(2)
C1K C 0.6708(3) 0.5430(3) 0.3099(2)
C1C C 0.3292(3) 0.4570(3) 0.6901(2)
C1J C 0.3292(3) 0.4570(3) 0.3099(2)
H1I H 0.5103 0.3498 0.3553
H1A H 0.4897 0.6502 0.6447
H1H H 0.4897 0.6502 0.3553
H1B H 0.6502 0.5103 0.6447
H1K H 0.6502 0.5103 0.3553
H1C H 0.3498 0.4897 0.6447
H1J H 0.3498 0.4897 0.3553
C2I C 0.5764(3) 0.2498(3) 0.3164(2)
C2A C 0.4236(3) 0.7502(3) 0.6836(2)
C2H C 0.4236(3) 0.7502(3) 0.3164(2)
C2B C 0.7502(3) 0.5764(3) 0.6836(2)
C2K C 0.7502(3) 0.5764(3) 0.3164(2)
C2C C 0.2498(3) 0.4236(3) 0.6836(2)
C2J C 0.2498(3) 0.4236(3) 0.3164(2)
H2I H 0.5675 0.2176 0.3657
H2A H 0.4325 0.7824 0.6343
H2H H 0.4325 0.7824 0.3657
H2B H 0.7824 0.5675 0.6343
H2K H 0.7824 0.5675 0.3657
H2C H 0.2176 0.4325 0.6343
H2J H 0.2176 0.4325 0.3657
C3I C 0.6227(3) 0.2171(3) 0.2511(2)
C3A C 0.3773(3) 0.7829(3) 0.7489(2)
C3H C 0.3773(3) 0.7829(3) 0.2511(2)
C3B C 0.7829(3) 0.6227(3) 0.7489(2)
C3K C 0.7829(3) 0.6227(3) 0.2511(2)
C3C C 0.2171(3) 0.3773(3) 0.7489(2)
C3J C 0.2171(3) 0.3773(3) 0.2511(2)
C4I C 0.6340(3) 0.2689(3) 0.1813(3)
C4A C 0.3660(3) 0.7311(3) 0.8187(3)
C4H C 0.3660(3) 0.7311(3) 0.1813(3)
C4B C 0.7311(3) 0.6340(3) 0.8187(3)
C4K C 0.7311(3) 0.6340(3) 0.1813(3)
C4C C 0.2689(3) 0.3660(3) 0.8187(3)
C4J C 0.2689(3) 0.3660(3) 0.1813(3)
H3I H 0.6659 0.2494 0.1348
H3A H 0.3341 0.7506 0.8652
H3H H 0.3341 0.7506 0.1348
H3B H 0.7506 0.6659 0.8652
H3K H 0.7506 0.6659 0.1348
H3C H 0.2494 0.3341 0.8652
H3J H 0.2494 0.3341 0.1348
C5I C 0.5994(3) 0.3475(3) 0.1795(3)
C5A C 0.4006(3) 0.6525(3) 0.8205(3)
C5H C 0.4006(3) 0.6525(3) 0.1795(3)
C5B C 0.6525(3) 0.5994(3) 0.8205(3)
C5K C 0.6525(3) 0.5994(3) 0.1795(3)
C5C C 0.3475(3) 0.4006(3) 0.8205(3)
C5J C 0.3475(3) 0.4006(3) 0.1795(3)
H4I H 0.6079 0.3813 0.1312
H4A H 0.3921 0.6187 0.8688
H4H H 0.3921 0.6187 0.1312
H4B H 0.6187 0.6079 0.8688
H4K H 0.6187 0.6079 0.1312
H4C H 0.3813 0.3921 0.8688
H4J H 0.3813 0.3921 0.1312
S1I S 0.66519(9) 0.11558(7) 0.24696(7)
S1A S 0.33481(9) 0.88442(7) 0.75304(7)
S1H S 0.33481(9) 0.88442(7) 0.24696(7)
S1B S 0.88442(7) 0.66519(9) 0.75304(7)
S1K S 0.88442(7) 0.66519(9) 0.24696(7)
S1C S 0.11558(7) 0.33481(9) 0.75304(7)
S1J S 0.11558(7) 0.33481(9) 0.24696(7)
C6I C 0.6288(3) 0.0680(3) 0.3432(3)
C6A C 0.3712(3) 0.9320(3) 0.6568(3)
C6H C 0.3712(3) 0.9320(3) 0.3432(3)
C6B C 0.9320(3) 0.6288(3) 0.6568(3)
C6K C 0.9320(3) 0.6288(3) 0.3432(3)
C6C C 0.0680(3) 0.3712(3) 0.6568(3)
C6J C 0.0680(3) 0.3712(3) 0.3432(3)
H5I H 0.6304 0.0063 0.3366
H5A H 0.3696 0.9937 0.6634
H5H H 0.3696 0.9937 0.3366
H5B H 0.9937 0.6304 0.6634
H5K H 0.9937 0.6304 0.3366
H5C H 0.0063 0.3696 0.6634
H5J H 0.0063 0.3696 0.3366
H6I H 0.5695 0.0844 0.3521
H6A H 0.4305 0.9156 0.6479
H6H H 0.4305 0.9156 0.3521
H6B H 0.9156 0.5695 0.6479
H6K H 0.9156 0.5695 0.3521
H6C H 0.0844 0.4305 0.6479
H6J H 0.0844 0.4305 0.3521
C7I C 0.6787(3) 0.0914(3) 0.4209(3)
C7A C 0.3213(3) 0.9086(3) 0.5791(3)
C7H C 0.3213(3) 0.9086(3) 0.4209(3)
C7B C 0.9086(3) 0.6787(3) 0.5791(3)
C7K C 0.9086(3) 0.6787(3) 0.4209(3)
C7C C 0.0914(3) 0.3213(3) 0.5791(3)
C7J C 0.0914(3) 0.3213(3) 0.4209(3)
H7I H 0.6840 0.1533 0.4241
H7A H 0.3160 0.8467 0.5759
H7H H 0.3160 0.8467 0.4241
H7B H 0.8467 0.6840 0.5759
H7K H 0.8467 0.6840 0.4241
H7C H 0.1533 0.3160 0.5759
H7J H 0.1533 0.3160 0.4241
H8I H 0.7359 0.0675 0.4166
H8A H 0.2641 0.9325 0.5834
H8H H 0.2641 0.9325 0.4166
H8B H 0.9325 0.7359 0.5834
H8K H 0.9325 0.7359 0.4166
H8C H 0.0675 0.2641 0.5834
H8J H 0.0675 0.2641 0.4166
C8A C 0.3630(5) 0.9407(4) 0.5000
C8B C 0.9407(4) 0.6370(5) 0.5000
C8C C 0.0593(4) 0.3630(5) 0.5000
H9A H 0.3614 1.0028 0.5000
H9B H 1.0028 0.6386 0.5000
H9C H -0.0028 0.3614 0.5000
H10A H 0.4227 0.9232 0.5000
H10B H 0.9232 0.5773 0.5000
H10C H 0.0768 0.4227 0.5000
loop_
_geom_bond_atom_site_label_1
_geom_bond_atom_site_label_2
_geom_bond_site_symmetry_1
_geom_bond_site_symmetry_2
Zn1 F3 1_555 1_555
Si1 F1 1_555 1_555
F2 Si1 1_555 1_555
Si2 F3 1_555 1_555
F4 Si2 1_555 1_555
N1 Zn1 1_555 1_555
C1 N1 1_555 1_555
H1 C1 1_555 1_555
C2 C1 1_555 1_555
H2 C2 1_555 1_555
C3 C2 1_555 1_555
C4 C3 1_555 1_555
H3 C4 1_555 1_555
C5 N1 1_555 1_555
H4 C5 1_555 1_555
S1 C3 1_555 1_555
C6 S1 1_555 1_555
H5 C6 1_555 1_555
H6 C6 1_555 1_555
C7 C6 1_555 1_555
H7 C7 1_555 1_555
H8 C7 1_555 1_555
C8 C7 1_555 1_555
H9 C8 1_555 1_555
H10 C8 1_555 1_555
Zn1H F3H 1_555 1_555
Zn1H_2 N1I 1_555 1_555
F1H Si1 1_555 1_555
F2A Si1 1_555 1_555
F2B Si1 1_555 1_555
F2C Si1 1_555 1_555
F3H Si2 1_555 1_555
F4A Si2 1_555 1_555
F4B Si2 1_555 1_555
F4C Si2 1_555 1_555
N1I C1I 1_555 1_555
N1A Zn1 1_555 1_555
N1H Zn1H_2 1_555 1_555
N1B Zn1 1_555 1_555
N1K Zn1H_2 1_555 1_555
N1C Zn1 1_555 1_555
N1J Zn1H_2 1_555 1_555
N1H_2 Zn1H 1_555 1_555
N1I_2 Zn1H 1_555 1_555
N1J_2 Zn1H 1_555 1_555
N1K_2 Zn1H 1_555 1_555
C1I H1I 1_555 1_555
C1A N1A 1_555 1_555
C1H N1H 1_555 1_555
C1B N1B 1_555 1_555
C1K N1K 1_555 1_555
C1C N1C 1_555 1_555
C1J N1J 1_555 1_555
H1A C1A 1_555 1_555
H1H C1H 1_555 1_555
H1B C1B 1_555 1_555
H1K C1K 1_555 1_555
H1C C1C 1_555 1_555
H1J C1J 1_555 1_555
C2I C1I 1_555 1_555
C2A C1A 1_555 1_555
C2H C1H 1_555 1_555
C2B C1B 1_555 1_555
C2K C1K 1_555 1_555
C2C C1C 1_555 1_555
C2J C1J 1_555 1_555
H2I C2I 1_555 1_555
H2A C2A 1_555 1_555
H2H C2H 1_555 1_555
H2B C2B 1_555 1_555
H2K C2K 1_555 1_555
H2C C2C 1_555 1_555
H2J C2J 1_555 1_555
C3I C2I 1_555 1_555
C3A C2A 1_555 1_555
C3H C2H 1_555 1_555
C3B C2B 1_555 1_555
C3K C2K 1_555 1_555
C3C C2C 1_555 1_555
C3J C2J 1_555 1_555
C4I C3I 1_555 1_555
C4A C3A 1_555 1_555
C4H C3H 1_555 1_555
C4B C3B 1_555 1_555
C4K C3K 1_555 1_555
C4C C3C 1_555 1_555
C4J C3J 1_555 1_555
H3I C4I 1_555 1_555
H3A C4A 1_555 1_555
H3H C4H 1_555 1_555
H3B C4B 1_555 1_555
H3K C4K 1_555 1_555
H3C C4C 1_555 1_555
H3J C4J 1_555 1_555
C5I N1I 1_555 1_555
C5A N1A 1_555 1_555
C5H N1H 1_555 1_555
C5B N1B 1_555 1_555
C5K N1K 1_555 1_555
C5C N1C 1_555 1_555
C5J N1J 1_555 1_555
H4I C5I 1_555 1_555
H4A C5A 1_555 1_555
H4H C5H 1_555 1_555
H4B C5B 1_555 1_555
H4K C5K 1_555 1_555
H4C C5C 1_555 1_555
H4J C5J 1_555 1_555
S1I C3I 1_555 1_555
S1A C3A 1_555 1_555
S1H C3H 1_555 1_555
S1B C3B 1_555 1_555
S1K C3K 1_555 1_555
S1C C3C 1_555 1_555
S1J C3J 1_555 1_555
C6I S1I 1_555 1_555
C6A S1A 1_555 1_555
C6H S1H 1_555 1_555
C6B S1B 1_555 1_555
C6K S1K 1_555 1_555
C6C S1C 1_555 1_555
C6J S1J 1_555 1_555
H5I C6I 1_555 1_555
H5A C6A 1_555 1_555
H5H C6H 1_555 1_555
H5B C6B 1_555 1_555
H5K C6K 1_555 1_555
H5C C6C 1_555 1_555
H5J C6J 1_555 1_555
H6I C6I 1_555 1_555
H6A C6A 1_555 1_555
H6H C6H 1_555 1_555
H6B C6B 1_555 1_555
H6K C6K 1_555 1_555
H6C C6C 1_555 1_555
H6J C6J 1_555 1_555
C7I C8 1_555 1_555
C7A C6A 1_555 1_555
C7H C6H 1_555 1_555
C7B C6B 1_555 1_555
C7K C6K 1_555 1_555
C7C C6C 1_555 1_555
C7J C6J 1_555 1_555
H7I C7I 1_555 1_555
H7A C7A 1_555 1_555
H7H C7H 1_555 1_555
H7B C7B 1_555 1_555
H7K C7K 1_555 1_555
H7C C7C 1_555 1_555
H7J C7J 1_555 1_555
H8I C7I 1_555 1_555
H8A C7A 1_555 1_555
H8H C7H 1_555 1_555
H8B C7B 1_555 1_555
H8K C7K 1_555 1_555
H8C C7C 1_555 1_555
H8J C7J 1_555 1_555
C8A C7A 1_555 1_555
C8B C7B 1_555 1_555
C8C C7C 1_555 1_555
H9A C8A 1_555 1_555
H9B C8B 1_555 1_555
H9C C8C 1_555 1_555
H10A C8A 1_555 1_555
H10B C8B 1_555 1_555
H10C C8C 1_555 1_555
C4 C5 1_555 1_555
C4I C5I 1_555 1_555
C4A C5A 1_555 1_555
C4H C5H 1_555 1_555
C4B C5B 1_555 1_555
C4K C5K 1_555 1_555
C4C C5C 1_555 1_555
C4J C5J 1_555 1_555
C6I C7I 1_555 1_555
C7H C8A 1_555 1_555
C7K C8B 1_555 1_555
C7J C8C 1_555 1_555

#END
