
#######################################################################
#
#                 Cambridge Crystallographic Data Centre
#                                CCDC 
#
#######################################################################
#
# If this CIF has been generated from an entry in the Cambridge 
# Structural Database, then it will include bibliographic, chemical, 
# crystal, experimental, refinement or atomic coordinate data resulting 
# from the CCDC's data processing and validation procedures.
#
#######################################################################

data_BUPGUP
_symmetry_cell_setting           orthorhombic
_symmetry_space_group_name_H-M   'F d d 2'
_symmetry_Int_Tables_number      43
_space_group_name_Hall           'F 2 -2d'
loop_
_symmetry_equiv_pos_site_id
_symmetry_equiv_pos_as_xyz
1 x,y,z
2 -x,-y,z
3 1/4+x,1/4-y,1/4+z
4 1/4-x,1/4+y,1/4+z
5 x,1/2+y,1/2+z
6 -x,1/2-y,1/2+z
7 1/4+x,3/4-y,3/4+z
8 1/4-x,3/4+y,3/4+z
9 1/2+x,y,1/2+z
10 1/2-x,-y,1/2+z
11 3/4+x,1/4-y,3/4+z
12 3/4-x,1/4+y,3/4+z
13 1/2+x,1/2+y,z
14 1/2-x,1/2-y,z
15 3/4+x,3/4-y,1/4+z
16 3/4-x,3/4+y,1/4+z
_cell_length_a                   36.481(2)
_cell_length_b                   49.104(3)
_cell_length_c                   11.8446(7)
_cell_angle_alpha                90
_cell_angle_beta                 90
_cell_angle_gamma                90
_cell_volume                     21218
loop_
_atom_site_label
_atom_site_type_symbol
_atom_site_fract_x
_atom_site_fract_y
_atom_site_fract_z
C1 C 0.02343(12) 0.14858(9) 0.3535(4)
C2 C 0.02485(11) 0.16429(9) 0.2552(4)
H1 H 0.0256 0.1832 0.2597
C3 C 0.02511(11) 0.15142(8) 0.1513(4)
C4 C 0.02343(11) 0.12283(8) 0.1444(4)
H2 H 0.0233 0.1143 0.0744
C5 C 0.02202(11) 0.10751(8) 0.2425(4)
C6 C 0.02210(12) 0.12039(9) 0.3470(4)
H3 H 0.0212 0.1101 0.4128
C7 C 0.02293(11) 0.16274(8) 0.4662(4)
C8 C 0.01105(12) 0.20459(9) 0.5730(4)
H4 H 0.0092 0.1923 0.6368
H5 H -0.0101 0.2166 0.5749
C9 C 0.04495(11) 0.22135(8) 0.5857(4)
C10 C 0.02251(12) 0.16695(9) 0.0432(4)
C11 C 0.01404(11) 0.21236(9) -0.0524(4)
H6 H 0.0224 0.2036 -0.1211
H7 H 0.0276 0.2292 -0.0432
C12 C -0.02707(12) 0.21878(8) -0.0628(4)
C13 C 0.02153(12) 0.07671(9) 0.2287(4)
C14 C 0.02657(12) 0.03411(9) 0.2844(4)
H8 H 0.0163 0.0222 0.3417
H9 H 0.0132 0.0308 0.2149
C15 C 0.06563(10) 0.02620(7) 0.2662(4)
C16 C 0.17794(11) 0.19902(9) 0.3774(4)
H10 H 0.1959 0.2099 0.4102
C17 C 0.18757(11) 0.18066(8) 0.2942(4)
H11 H 0.2121 0.1794 0.2735
C18 C 0.16355(10) 0.16477(8) 0.2424(3)
C19 C 0.12815(12) 0.16696(9) 0.2752(4)
H12 H 0.1101 0.1568 0.2390
C20 C 0.11875(11) 0.18439(8) 0.3628(3)
H13 H 0.0947 0.1843 0.3887
C21 C 0.16584(12) 0.19455(8) -0.1086(4)
C22 C 0.18970(12) 0.19876(8) -0.1933(4)
H14 H 0.2144 0.1949 -0.1838
C23 C 0.17697(12) 0.20895(8) -0.2943(4)
H15 H 0.1941 0.2133 -0.3497
C24 C 0.11955(12) 0.20632(8) -0.2398(4)
H16 H 0.0947 0.2081 -0.2555
C25 C 0.12942(13) 0.19694(9) -0.1368(4)
H17 H 0.1115 0.1921 -0.0848
C26 C 0.11374(13) 0.08996(8) 0.3932(4)
H18 H 0.0916 0.0822 0.3714
C27 C 0.11276(12) 0.11006(8) 0.4689(4)
H19 H 0.0903 0.1170 0.4923
C28 C 0.14477(12) 0.12052(8) 0.5124(4)
C29 C 0.17594(11) 0.11033(8) 0.4667(3)
H20 H 0.1984 0.1163 0.4939
C30 C 0.17524(11) 0.09111(9) 0.3804(4)
H21 H 0.1971 0.0859 0.3460
C31 C 0.11205(13) 0.07427(9) 1.0326(5)
H22 H 0.0909 0.0692 1.0714
C32 C 0.10887(13) 0.08676(10) 0.9278(4)
H23 H 0.0859 0.0902 0.8972
C33 C 0.14035(14) 0.09397(9) 0.8694(4)
C34 C 0.17436(13) 0.08896(9) 0.9164(4)
H24 H 0.1954 0.0940 0.8773
C35 C 0.17748(13) 0.07650(8) 1.0211(4)
H25 H 0.2005 0.0730 1.0517
C36 C 0.17390(11) 0.14626(8) 0.1520(3)
H26 H 0.1628 0.1286 0.1666
H27 H 0.2003 0.1439 0.1536
C37 C 0.16258(11) 0.15569(8) 0.0325(4)
H28 H 0.1717 0.1426 -0.0222
H29 H 0.1360 0.1557 0.0276
C38 C 0.17679(11) 0.18401(8) 0.0011(3)
H30 H 0.1686 0.1967 0.0585
H31 H 0.2034 0.1836 0.0039
C39 C 0.14590(13) 0.14064(8) 0.6060(4)
H32 H 0.1651 0.1535 0.5871
H33 H 0.1230 0.1506 0.6026
C40 C 0.15153(12) 0.13320(9) 0.7278(4)
H34 H 0.1404 0.1470 0.7753
H35 H 0.1776 0.1328 0.7441
C41 C 0.13520(12) 0.10597(10) 0.7561(4)
H36 H 0.1447 0.0930 0.7017
H37 H 0.1090 0.1073 0.7432
Co1 Co 0.125640(15) 0.232000(11) 0.52661(5)
Co2 Co 0.144774(15) 0.046479(11) 0.23422(5)
N1 N 0.00980(9) 0.18827(7) 0.4667(3)
H38 H 0.0007 0.1952 0.4061
N2 N 0.02142(9) 0.19423(7) 0.0454(3)
H39 H 0.0045 0.1984 0.0978
N3 N 0.02005(9) 0.06340(7) 0.3199(3)
H40 H 0.0162 0.0695 0.3869
N4 N 0.14277(9) 0.20132(7) 0.4116(3)
N5 N 0.14242(10) 0.21287(7) -0.3168(3)
N6 N 0.14438(9) 0.08029(7) 0.3470(3)
N7 N 0.14576(10) 0.06916(7) 1.0805(3)
O1 O 0.03346(8) 0.15038(6) 0.5469(2)
O2 O 0.07365(8) 0.21511(6) 0.5327(3)
O3 O 0.04346(7) 0.24001(6) 0.6572(2)
O4 O 0.02433(8) 0.15435(6) -0.0464(3)
O5 O -0.04904(7) 0.20445(6) -0.0081(3)
O6 O -0.03456(8) 0.23723(6) -0.1263(2)
O7 O 0.02370(8) 0.06837(6) 0.1300(3)
O8 O 0.08890(7) 0.04401(5) 0.2478(3)
O9 O 0.07397(7) 0.00137(5) 0.2689(2)
O10 O 0.10560(8) 0.25769(6) 0.3899(2)
H41 H 0.0813 0.2524 0.3648
H42 H 0.1223 0.2581 0.3262
O11 O 0.10507(7) 0.26728(5) 0.6239(2)
H43 H 0.0807 0.2642 0.6539
H44 H 0.1216 0.2725 0.6842
Co1_2 Co 0.125640(15) 0.232000(11) -0.47339(5)
Co1G Co 0.124360(15) -0.018000(11) 0.27661(5)
Co2_2 Co 0.144774(15) 0.046479(11) 1.23422(5)
Co2J Co -0.105226(15) 0.203521(11) -0.01578(5)
Co2C Co 0.105226(15) 0.296479(11) 0.48422(5)
N5_2 N 0.14242(10) 0.21287(7) 0.6832(3)
N7_2 N 0.14576(10) 0.06916(7) 0.0805(3)
O5B O 0.20096(7) 0.04555(6) 0.2419(3)
O9C O 0.17603(7) 0.25137(5) 0.5189(2)
O10G O 0.14440(8) 0.00769(6) 0.1399(2)
H41G H 0.1687 0.0024 0.1148
H42G H 0.1277 0.0081 0.0762
O11G O 0.14493(7) 0.01728(5) 0.3739(2)
H43G H 0.1693 0.0142 0.4039
H44G H 0.1284 0.0225 0.4342
N8 N 0.09358(10) 0.24732(7) 0.0778(3)
O12 O 0.06939(9) 0.24433(6) 0.1536(3)
O13 O 0.12582(9) 0.24090(6) 0.0980(3)
O14 O 0.08531(9) 0.25767(7) -0.0136(3)
O15 O 0.0238(2) 0.12124(14) 0.7552(6)
H45 H 0.0243 0.1040 0.7599
H46 H 0.0045 0.1272 0.7870
O16 O 0.1465(3) 0.2658(2) 0.8645(9)
H47 H 0.1333 0.2797 0.8773
H48 H 0.1505 0.2574 0.9261
O17 O 0.22141(19) 0.26472(15) 0.2804(7)
H49 H 0.2031 0.2754 0.2785
H50 H 0.2302 0.2630 0.2143
O18 O 0.2755(2) 0.1781(2) 0.9530(10)
H51 H 0.2739 0.1910 0.9056
H52 H 0.2855 0.1839 1.0132
O19 O 0.0769(3) 0.3051(2) 0.8627(9)
H53 H 0.0792 0.2990 0.9293
H54 H 0.0979 0.3090 0.8359
O20? O 0.2500 0.2500 0.0011(7)
H55? H 0.2728 0.2535 0.0025
H56? H 0.2399 0.2563 0.0603
loop_
_geom_bond_atom_site_label_1
_geom_bond_atom_site_label_2
_geom_bond_site_symmetry_1
_geom_bond_site_symmetry_2
C1 C2 1_555 1_555
C2 H1 1_555 1_555
C3 C2 1_555 1_555
C4 C3 1_555 1_555
H2 C4 1_555 1_555
C5 C4 1_555 1_555
C6 C1 1_555 1_555
H3 C6 1_555 1_555
C7 C1 1_555 1_555
C8 H4 1_555 1_555
H5 C8 1_555 1_555
C9 C8 1_555 1_555
C10 C3 1_555 1_555
C11 H6 1_555 1_555
H7 C11 1_555 1_555
C12 C11 1_555 1_555
C13 C5 1_555 1_555
C14 H8 1_555 1_555
H9 C14 1_555 1_555
C15 C14 1_555 1_555
C16 H10 1_555 1_555
C17 C16 1_555 1_555
H11 C17 1_555 1_555
C18 C17 1_555 1_555
C19 C18 1_555 1_555
H12 C19 1_555 1_555
C20 C19 1_555 1_555
H13 C20 1_555 1_555
C21 C22 1_555 1_555
C22 H14 1_555 1_555
C23 C22 1_555 1_555
H15 C23 1_555 1_555
C24 H16 1_555 1_555
C25 C21 1_555 1_555
H17 C25 1_555 1_555
C26 H18 1_555 1_555
C27 C26 1_555 1_555
H19 C27 1_555 1_555
C28 C27 1_555 1_555
C29 C28 1_555 1_555
H20 C29 1_555 1_555
C30 C29 1_555 1_555
H21 C30 1_555 1_555
C31 H22 1_555 1_555
C32 C31 1_555 1_555
H23 C32 1_555 1_555
C33 C32 1_555 1_555
C34 C33 1_555 1_555
H24 C34 1_555 1_555
C35 C34 1_555 1_555
H25 C35 1_555 1_555
C36 C18 1_555 1_555
H26 C36 1_555 1_555
H27 C36 1_555 1_555
C37 C36 1_555 1_555
H28 C37 1_555 1_555
H29 C37 1_555 1_555
C38 C21 1_555 1_555
H30 C38 1_555 1_555
H31 C38 1_555 1_555
C39 C28 1_555 1_555
H32 C39 1_555 1_555
H33 C39 1_555 1_555
C40 C39 1_555 1_555
H34 C40 1_555 1_555
H35 C40 1_555 1_555
C41 C33 1_555 1_555
H36 C41 1_555 1_555
H37 C41 1_555 1_555
Co1 N4 1_555 1_555
Co2 N6 1_555 1_555
N1 C7 1_555 1_555
H38 N1 1_555 1_555
N2 C10 1_555 1_555
H39 N2 1_555 1_555
N3 C13 1_555 1_555
H40 N3 1_555 1_555
N4 C16 1_555 1_555
N5 C23 1_555 1_555
N6 C26 1_555 1_555
N7 C31 1_555 1_555
O1 C7 1_555 1_555
O2 C9 1_555 1_555
O3 C9 1_555 1_555
O4 C10 1_555 1_555
O5 C12 1_555 1_555
O6 C12 1_555 1_555
O7 C13 1_555 1_555
O8 C15 1_555 1_555
O9 C15 1_555 1_555
O10 Co1 1_555 1_555
H41 O10 1_555 1_555
H42 O10 1_555 1_555
O11 Co1 1_555 1_555
H43 O11 1_555 1_555
H44 O11 1_555 1_555
N8 O12 1_555 1_555
O13 N8 1_555 1_555
O14 N8 1_555 1_555
O15 H45 1_555 1_555
H46 O15 1_555 1_555
O16 H47 1_555 1_555
H48 O16 1_555 1_555
O17 H49 1_555 1_555
H50 O17 1_555 1_555
O18 H51 1_555 1_555
H52 O18 1_555 1_555
O19 H53 1_555 1_555
H54 O19 1_555 1_555
Co1_2 N5 1_555 1_555
Co1G O9 1_555 1_555
Co2_2 N7 1_555 1_555
Co2J O5 1_555 1_555
Co2C O10 1_555 1_555
N5_2 Co1 1_555 1_555
N7_2 Co2 1_555 1_555
O5B Co2 1_555 1_555
O9C Co1 1_555 1_555
O10G Co2 1_555 1_555
H41G O10G 1_555 1_555
H42G O10G 1_555 1_555
O11G Co2 1_555 1_555
H43G O11G 1_555 1_555
H44G O11G 1_555 1_555
C5 C6 1_555 1_555
C8 N1 1_555 1_555
C11 N2 1_555 1_555
C14 N3 1_555 1_555
C20 N4 1_555 1_555
C24 C25 1_555 1_555
C24 N5 1_555 1_555
C30 N6 1_555 1_555
C35 N7 1_555 1_555
C37 C38 1_555 1_555
C40 C41 1_555 1_555
Co1 O2 1_555 1_555
Co2 O8 1_555 1_555
O11 Co2C 1_555 1_555
Co1G O10G 1_555 1_555
Co1G O11G 1_555 1_555

#END
