
#######################################################################
#
#                 Cambridge Crystallographic Data Centre
#                                CCDC 
#
#######################################################################
#
# If this CIF has been generated from an entry in the Cambridge 
# Structural Database, then it will include bibliographic, chemical, 
# crystal, experimental, refinement or atomic coordinate data resulting 
# from the CCDC's data processing and validation procedures.
#
#######################################################################

data_BUPGOJ
_symmetry_cell_setting           orthorhombic
_symmetry_space_group_name_H-M   'I b a 2'
_symmetry_Int_Tables_number      45
_space_group_name_Hall           'I 2 -2c'
loop_
_symmetry_equiv_pos_site_id
_symmetry_equiv_pos_as_xyz
1 x,y,z
2 -x,-y,z
3 1/2+x,1/2-y,z
4 1/2-x,1/2+y,z
5 1/2+x,1/2+y,1/2+z
6 1/2-x,1/2-y,1/2+z
7 x,-y,1/2+z
8 -x,y,1/2+z
_cell_length_a                   33.993(4)
_cell_length_b                   13.6318(14)
_cell_length_c                   15.4608(16)
_cell_angle_alpha                90
_cell_angle_beta                 90
_cell_angle_gamma                90
_cell_volume                     7164.31
loop_
_atom_site_label
_atom_site_type_symbol
_atom_site_fract_x
_atom_site_fract_y
_atom_site_fract_z
C1 C 0.11517(14) 0.3259(4) 0.2393(3)
C2 C 0.15678(13) 0.3286(4) 0.2444(3)
H1 H 0.1714 0.2714 0.2501
C3 C 0.17503(13) 0.4209(4) 0.2405(3)
C4 C 0.15288(12) 0.5078(4) 0.2276(3)
H2 H 0.1657 0.5679 0.2233
C5 C 0.11182(13) 0.5034(5) 0.2213(4)
C6 C 0.09285(15) 0.4119(4) 0.2258(3)
H3 H 0.0657 0.4080 0.2199
C7 C 0.09438(15) 0.2292(4) 0.2422(3)
C8 C 0.09667(12) 0.0548(3) 0.2763(3)
H4 H 0.1167 0.0043 0.2744
H5 H 0.0785 0.0429 0.2290
C9 C 0.07458(13) 0.0467(3) 0.3608(3)
C10 C 0.21839(13) 0.4236(4) 0.2517(3)
C11 C 0.27784(14) 0.5189(4) 0.2627(4)
H6 H 0.2891 0.5631 0.2202
H7 H 0.2909 0.4560 0.2567
C12 C 0.28602(15) 0.5583(4) 0.3506(4)
C13 C 0.08800(17) 0.5946(4) 0.2053(4)
C14 C 0.08879(15) 0.7751(4) 0.1950(4)
H8 H 0.0790 0.8138 0.2431
H9 H 0.0676 0.7669 0.1537
C15 C 0.12377(14) 0.8283(4) 0.1518(3)
C16 C 0.11555(13) 0.2946(4) 0.4710(4)
H10 H 0.0915 0.2627 0.4759
C17 C 0.11547(17) 0.3915(4) 0.4661(4)
H11 H 0.0917 0.4251 0.4687
C18 C 0.15139(18) 0.4455(4) 0.4568(4)
C19 C 0.18465(16) 0.3905(4) 0.4572(4)
H12 H 0.2090 0.4212 0.4537
C20 C 0.18275(15) 0.2885(4) 0.4628(4)
H13 H 0.2060 0.2524 0.4619
C21 C 0.18429(16) 0.8746(4) 0.4935(4)
H14 H 0.2076 0.9092 0.4862
C22 C 0.18610(17) 0.7768(4) 0.5022(4)
H15 H 0.2108 0.7477 0.5055
C23 C 0.15291(16) 0.7160(4) 0.5065(3)
C24 C 0.11643(15) 0.7695(4) 0.5029(3)
H16 H 0.0924 0.7376 0.5089
C25 C 0.11800(16) 0.8630(4) 0.4911(4)
H17 H 0.0941 0.8926 0.4780
C26 C 0.15179(17) 0.5529(4) 0.4394(4)
H18 H 0.1739 0.5687 0.4023
H19 H 0.1279 0.5712 0.4091
C27 C 0.1547(2) 0.6087(5) 0.5189(4)
H20 H 0.1793 0.5925 0.5472
H21 H 0.1335 0.5891 0.5572
C28 C -0.00857(15) 0.2071(4) 0.3834(3)
H22 H -0.0062 0.1717 0.3323
C29 C -0.01174(16) 0.3053(4) 0.3787(3)
H23 H -0.0125 0.3351 0.3247
C30 C -0.01394(16) 0.3633(4) 0.4523(4)
C31 C -0.00999(15) 0.3154(4) 0.5315(4)
H24 H -0.0078 0.3503 0.5830
C32 C -0.00938(15) 0.2126(4) 0.5309(4)
H25 H -0.0095 0.1803 0.5839
C33 C -0.01971(15) 0.4704(4) 0.4487(4)
H26 H -0.0354 0.4905 0.4981
H27 H -0.0344 0.4865 0.3968
Co1 Co 0.147157(16) 0.08391(4) 0.48234(4)
Co2 Co 0.0000 0.0000 0.46026(6)
N1 N 0.11488(11) 0.1481(3) 0.2640(3)
H28 H 0.1399 0.1528 0.2708
N2 N 0.23646(12) 0.5064(4) 0.2439(3)
H29 H 0.2233 0.5566 0.2267
N3 N 0.10208(12) 0.6784(3) 0.2262(3)
H30 H 0.1214 0.6783 0.2622
N4 N 0.14784(11) 0.2406(3) 0.4694(3)
N5 N 0.14962(16) 0.9257(3) 0.4949(5)
N6 N -0.00871(10) 0.1578(3) 0.4591(3)
O1 O 0.05888(10) 0.2272(3) 0.2241(2)
O2 O 0.09085(9) 0.0784(2) 0.4252(2)
O3 O 0.04166(10) 0.0077(2) 0.3595(2)
O4 O 0.23553(10) 0.3465(3) 0.2690(3)
O5 O 0.25859(10) 0.5683(3) 0.4043(3)
O6 O 0.32223(9) 0.5773(3) 0.3656(2)
O7 O 0.05444(11) 0.5859(3) 0.1737(2)
O8 O 0.15640(10) 0.8095(3) 0.1738(2)
O9 O 0.11339(9) 0.8903(2) 0.0959(2)
O10 O 0.20088(10) 0.0815(3) 0.5524(2)
H31 H 0.2044 0.1400 0.5700
H32 H 0.2230 0.0626 0.5328
O11 O 0.03929(10) 0.0209(3) 0.5644(2)
H33 H 0.0614 0.0036 0.5437
H34 H 0.0410 0.0822 0.5735
C1A C -0.11517(14) -0.3259(4) 0.2393(3)
C2A C -0.15678(13) -0.3286(4) 0.2444(3)
H1A H -0.1714 -0.2714 0.2501
C3A C -0.17503(13) -0.4209(4) 0.2405(3)
C4A C -0.15288(12) -0.5078(4) 0.2276(3)
H2A H -0.1657 -0.5679 0.2233
C5A C -0.11182(13) -0.5034(5) 0.2213(4)
C6A C -0.09285(15) -0.4119(4) 0.2258(3)
H3A H -0.0657 -0.4080 0.2199
C7A C -0.09438(15) -0.2292(4) 0.2422(3)
C8A C -0.09667(12) -0.0548(3) 0.2763(3)
H4A H -0.1167 -0.0043 0.2744
H5A H -0.0785 -0.0429 0.2290
C9A C -0.07458(13) -0.0467(3) 0.3608(3)
C10A C -0.21839(13) -0.4236(4) 0.2517(3)
C11A C -0.27784(14) -0.5189(4) 0.2627(4)
H6A H -0.2891 -0.5631 0.2202
H7A H -0.2909 -0.4560 0.2567
C12A C -0.28602(15) -0.5583(4) 0.3506(4)
C13A C -0.08800(17) -0.5946(4) 0.2053(4)
C14A C -0.08879(15) -0.7751(4) 0.1950(4)
H8A H -0.0790 -0.8138 0.2431
H9A H -0.0676 -0.7669 0.1537
C15A C -0.12377(14) -0.8283(4) 0.1518(3)
C16A C -0.11555(13) -0.2946(4) 0.4710(4)
H10A H -0.0915 -0.2627 0.4759
C17A C -0.11547(17) -0.3915(4) 0.4661(4)
H11A H -0.0917 -0.4251 0.4687
C18A C -0.15139(18) -0.4455(4) 0.4568(4)
C19A C -0.18465(16) -0.3905(4) 0.4572(4)
H12A H -0.2090 -0.4212 0.4537
C20A C -0.18275(15) -0.2885(4) 0.4628(4)
H13A H -0.2060 -0.2524 0.4619
C21A C -0.18429(16) -0.8746(4) 0.4935(4)
H14A H -0.2076 -0.9092 0.4862
C22A C -0.18610(17) -0.7768(4) 0.5022(4)
H15A H -0.2108 -0.7477 0.5055
C23A C -0.15291(16) -0.7160(4) 0.5065(3)
C24A C -0.11643(15) -0.7695(4) 0.5029(3)
H16A H -0.0924 -0.7376 0.5089
C25A C -0.11800(16) -0.8630(4) 0.4911(4)
H17A H -0.0941 -0.8926 0.4780
C26A C -0.15179(17) -0.5529(4) 0.4394(4)
H18A H -0.1739 -0.5687 0.4023
H19A H -0.1279 -0.5712 0.4091
C27A C -0.1547(2) -0.6087(5) 0.5189(4)
H20A H -0.1793 -0.5925 0.5472
H21A H -0.1335 -0.5891 0.5572
C28A C 0.00857(15) 0.7929(4) 0.3834(3)
H22A H 0.0062 0.8283 0.3323
C29A C 0.01174(16) 0.6947(4) 0.3787(3)
H23A H 0.0125 0.6649 0.3247
C30A C 0.01394(16) 0.6367(4) 0.4523(4)
C31A C 0.00999(15) 0.6846(4) 0.5315(4)
H24A H 0.0078 0.6497 0.5830
C32A C 0.00938(15) 0.7874(4) 0.5309(4)
H25A H 0.0095 0.8197 0.5839
C33A C 0.01971(15) 0.5296(4) 0.4487(4)
H26A H 0.0354 0.5095 0.4981
H27A H 0.0344 0.5135 0.3968
Co1A Co -0.147157(16) -0.08391(4) 0.48234(4)
Co1_2 Co 0.147157(16) 1.08391(4) 0.48234(4)
Co1A_2 Co -0.147157(16) -1.08391(4) 0.48234(4)
Co1B Co -0.352843(16) -0.58391(4) 0.48234(4)
Co1C Co 0.352843(16) 0.58391(4) 0.48234(4)
Co1F Co 0.147157(16) 0.91609(4) -0.01766(4)
Co1G Co -0.147157(16) -0.91609(4) -0.01766(4)
Co2_2 Co 0.0000 1.0000 0.46026(6)
N1A N -0.11488(11) -0.1481(3) 0.2640(3)
H28A H -0.1399 -0.1528 0.2708
N2A N -0.23646(12) -0.5064(4) 0.2439(3)
H29A H -0.2233 -0.5566 0.2267
N3A N -0.10208(12) -0.6784(3) 0.2262(3)
H30A H -0.1214 -0.6783 0.2622
N4A N -0.14784(11) -0.2406(3) 0.4694(3)
N5A N -0.14962(16) -0.9257(3) 0.4949(5)
N5_2 N 0.14962(16) -0.0743(3) 0.4949(5)
N5A_2 N -0.14962(16) 0.0743(3) 0.4949(5)
N6A N 0.00871(10) 0.8422(3) 0.4591(3)
N6A_2 N 0.00871(10) -0.1578(3) 0.4591(3)
O1A O -0.05888(10) -0.2272(3) 0.2241(2)
O2A O -0.09085(9) -0.0784(2) 0.4252(2)
O3A O -0.04166(10) -0.0077(2) 0.3595(2)
O4A O -0.23553(10) -0.3465(3) 0.2690(3)
O5A O -0.25859(10) -0.5683(3) 0.4043(3)
O6A O -0.32223(9) -0.5773(3) 0.3656(2)
O6B O -0.17777(9) -0.0773(3) 0.3656(2)
O6C O 0.17777(9) 0.0773(3) 0.3656(2)
O7A O -0.05444(11) -0.5859(3) 0.1737(2)
O8A O -0.15640(10) -0.8095(3) 0.1738(2)
O9A O -0.11339(9) -0.8903(2) 0.0959(2)
O9F O 0.11339(9) 0.1097(2) 0.5959(2)
O9G O -0.11339(9) -0.1097(2) 0.5959(2)
O10A O -0.20088(10) -0.0815(3) 0.5524(2)
H31A H -0.2044 -0.1400 0.5700
H32A H -0.2230 -0.0626 0.5328
O11A O -0.03929(10) -0.0209(3) 0.5644(2)
H33A H -0.0614 -0.0036 0.5437
H34A H -0.0410 -0.0822 0.5735
loop_
_geom_bond_atom_site_label_1
_geom_bond_atom_site_label_2
_geom_bond_site_symmetry_1
_geom_bond_site_symmetry_2
C1 C2 1_555 1_555
C2 H1 1_555 1_555
C3 C2 1_555 1_555
C4 C3 1_555 1_555
H2 C4 1_555 1_555
C5 C4 1_555 1_555
C6 C1 1_555 1_555
H3 C6 1_555 1_555
C7 C1 1_555 1_555
C8 H4 1_555 1_555
H5 C8 1_555 1_555
C9 C8 1_555 1_555
C10 C3 1_555 1_555
C11 H6 1_555 1_555
H7 C11 1_555 1_555
C12 C11 1_555 1_555
C13 C5 1_555 1_555
C14 H8 1_555 1_555
H9 C14 1_555 1_555
C15 C14 1_555 1_555
C16 H10 1_555 1_555
C17 C16 1_555 1_555
H11 C17 1_555 1_555
C18 C17 1_555 1_555
C19 C18 1_555 1_555
H12 C19 1_555 1_555
C20 C19 1_555 1_555
H13 C20 1_555 1_555
C21 H14 1_555 1_555
C22 C21 1_555 1_555
H15 C22 1_555 1_555
C23 C22 1_555 1_555
C24 C23 1_555 1_555
H16 C24 1_555 1_555
C25 C24 1_555 1_555
H17 C25 1_555 1_555
C26 C18 1_555 1_555
H18 C26 1_555 1_555
H19 C26 1_555 1_555
C27 C23 1_555 1_555
H20 C27 1_555 1_555
H21 C27 1_555 1_555
C28 H22 1_555 1_555
C29 C28 1_555 1_555
H23 C29 1_555 1_555
C30 C29 1_555 1_555
C31 C30 1_555 1_555
H24 C31 1_555 1_555
C32 C31 1_555 1_555
H25 C32 1_555 1_555
C33 C30 1_555 1_555
H26 C33 1_555 1_555
H27 C33 1_555 1_555
Co1 N4 1_555 1_555
Co2 N6 1_555 1_555
N1 C7 1_555 1_555
H28 N1 1_555 1_555
N2 C10 1_555 1_555
H29 N2 1_555 1_555
N3 C13 1_555 1_555
H30 N3 1_555 1_555
N4 C16 1_555 1_555
N5 C21 1_555 1_555
N6 C28 1_555 1_555
O1 C7 1_555 1_555
O2 C9 1_555 1_555
O3 C9 1_555 1_555
O4 C10 1_555 1_555
O5 C12 1_555 1_555
O6 C12 1_555 1_555
O7 C13 1_555 1_555
O8 C15 1_555 1_555
O9 C15 1_555 1_555
O10 Co1 1_555 1_555
H31 O10 1_555 1_555
H32 O10 1_555 1_555
O11 Co2 1_555 1_555
H33 O11 1_555 1_555
H34 O11 1_555 1_555
C1A C2A 1_555 1_555
C2A H1A 1_555 1_555
C3A C2A 1_555 1_555
C4A C3A 1_555 1_555
H2A C4A 1_555 1_555
C5A C4A 1_555 1_555
C6A C1A 1_555 1_555
H3A C6A 1_555 1_555
C7A C1A 1_555 1_555
C8A H4A 1_555 1_555
H5A C8A 1_555 1_555
C9A C8A 1_555 1_555
C10A C3A 1_555 1_555
C11A H6A 1_555 1_555
H7A C11A 1_555 1_555
C12A C11A 1_555 1_555
C13A C5A 1_555 1_555
C14A H8A 1_555 1_555
H9A C14A 1_555 1_555
C15A C14A 1_555 1_555
C16A H10A 1_555 1_555
C17A C16A 1_555 1_555
H11A C17A 1_555 1_555
C18A C17A 1_555 1_555
C19A C18A 1_555 1_555
H12A C19A 1_555 1_555
C20A C19A 1_555 1_555
H13A C20A 1_555 1_555
C21A H14A 1_555 1_555
C22A C21A 1_555 1_555
H15A C22A 1_555 1_555
C23A C22A 1_555 1_555
C24A C23A 1_555 1_555
H16A C24A 1_555 1_555
C25A C24A 1_555 1_555
H17A C25A 1_555 1_555
C26A C18A 1_555 1_555
H18A C26A 1_555 1_555
H19A C26A 1_555 1_555
C27A C23A 1_555 1_555
H20A C27A 1_555 1_555
H21A C27A 1_555 1_555
C28A H22A 1_555 1_555
C29A C28A 1_555 1_555
H23A C29A 1_555 1_555
C30A C29A 1_555 1_555
C31A C30A 1_555 1_555
H24A C31A 1_555 1_555
C32A C31A 1_555 1_555
H25A C32A 1_555 1_555
C33A C33 1_555 1_555
H26A C33A 1_555 1_555
H27A C33A 1_555 1_555
Co1A N4A 1_555 1_555
Co1_2 N5 1_555 1_555
Co1A_2 N5A 1_555 1_555
Co1B O6A 1_555 1_555
Co1C O6 1_555 1_555
Co1F O9 1_555 1_555
Co1G O9A 1_555 1_555
Co2_2 N6A 1_555 1_555
N1A C7A 1_555 1_555
H28A N1A 1_555 1_555
N2A C10A 1_555 1_555
H29A N2A 1_555 1_555
N3A C13A 1_555 1_555
H30A N3A 1_555 1_555
N4A C16A 1_555 1_555
N5A C21A 1_555 1_555
N5_2 Co1 1_555 1_555
N5A_2 Co1A 1_555 1_555
N6A C28A 1_555 1_555
N6A_2 Co2 1_555 1_555
O1A C7A 1_555 1_555
O2A C9A 1_555 1_555
O3A Co2 1_555 1_555
O4A C10A 1_555 1_555
O5A C12A 1_555 1_555
O6A C12A 1_555 1_555
O6B Co1A 1_555 1_555
O6C Co1 1_555 1_555
O7A C13A 1_555 1_555
O8A C15A 1_555 1_555
O9A C15A 1_555 1_555
O9F Co1 1_555 1_555
O9G Co1A 1_555 1_555
O10A Co1A 1_555 1_555
H31A O10A 1_555 1_555
H32A O10A 1_555 1_555
O11A Co2 1_555 1_555
H33A O11A 1_555 1_555
H34A O11A 1_555 1_555
C5 C6 1_555 1_555
C8 N1 1_555 1_555
C11 N2 1_555 1_555
C14 N3 1_555 1_555
C20 N4 1_555 1_555
C25 N5 1_555 1_555
C26 C27 1_555 1_555
C32 N6 1_555 1_555
Co1 O2 1_555 1_555
Co2 O3 1_555 1_555
C5A C6A 1_555 1_555
C8A N1A 1_555 1_555
C9A O3A 1_555 1_555
C11A N2A 1_555 1_555
C14A N3A 1_555 1_555
C20A N4A 1_555 1_555
C25A N5A 1_555 1_555
C26A C27A 1_555 1_555
C30A C33A 1_555 1_555
C32A N6A 1_555 1_555
Co1A O2A 1_555 1_555

#END
