
#######################################################################
#
#                 Cambridge Crystallographic Data Centre
#                                CCDC 
#
#######################################################################
#
# If this CIF has been generated from an entry in the Cambridge 
# Structural Database, then it will include bibliographic, chemical, 
# crystal, experimental, refinement or atomic coordinate data resulting 
# from the CCDC's data processing and validation procedures.
#
#######################################################################

data_BUPGAV
_symmetry_cell_setting           orthorhombic
_symmetry_space_group_name_H-M   'P 21 21 21'
_symmetry_Int_Tables_number      19
_space_group_name_Hall           'P 2ac 2ab'
loop_
_symmetry_equiv_pos_site_id
_symmetry_equiv_pos_as_xyz
1 x,y,z
2 1/2-x,-y,1/2+z
3 1/2+x,1/2-y,-z
4 -x,1/2+y,1/2-z
_cell_length_a                   8.302(5)
_cell_length_b                   10.208(5)
_cell_length_c                   16.143(5)
_cell_angle_alpha                90
_cell_angle_beta                 90
_cell_angle_gamma                90
_cell_volume                     1368.07
loop_
_atom_site_label
_atom_site_type_symbol
_atom_site_fract_x
_atom_site_fract_y
_atom_site_fract_z
Cu1 Cu 0.64859(4) 0.44175(3) -0.00449(2)
S1 S 0.91089(8) 0.20938(7) -0.12000(4)
O1 O 0.7677(2) 0.2729(2) -0.08587(12)
O2 O 0.9750(2) 0.2883(2) -0.18962(11)
O3 O 1.0382(2) 0.2039(2) -0.05463(11)
O4 O 0.8747(2) 0.0768(2) -0.14910(12)
N1 N 1.0412(4) 0.4824(3) 0.14678(18)
C1 C 0.4218(4) 0.5888(3) -0.11976(19)
H1 H 0.4859 0.6634 -0.1222
N2 N 0.2288(3) 0.4493(3) -0.13982(16)
N3 N 0.4554(3) 0.4777(2) -0.07359(15)
N4 N 0.8809(3) 0.6898(3) -0.16665(18)
N5 N 0.7688(3) 0.5793(2) -0.06612(14)
C2 C 0.8252(3) 0.5730(3) -0.14195(18)
H2 H 0.8263 0.4976 -0.1742
C3 C 0.7889(4) 0.7076(3) -0.0413(2)
H3 H 0.7597 0.7416 0.0100
N6 N 0.8076(3) 0.4623(3) 0.08641(14)
C4 C 0.8572(4) 0.7757(3) -0.1032(2)
H4 H 0.8833 0.8643 -0.1028
C5 C 0.9336(4) 0.5470(4) 0.1949(2)
H5 H 0.9551 0.5915 0.2440
C6 C 0.9621(4) 0.4351(4) 0.08213(19)
H6 H 1.0099 0.3886 0.0391
C7 C 0.2819(4) 0.5719(3) -0.16059(18)
H7 H 0.2317 0.6313 -0.1957
C8 C 0.3341(4) 0.3974(3) -0.08781(19)
H8 H 0.3239 0.3147 -0.0642
C9 C 0.7884(4) 0.5339(4) 0.15724(18)
H9 H 0.6916 0.5681 0.1765
H10 H 0.146(4) 0.405(3) -0.1562(19)
H11 H 1.139(5) 0.472(4) 0.151(2)
H12 H 0.928(5) 0.707(4) -0.221(2)
Cu1B Cu 1.14859(4) 0.05825(3) 0.00449(2)
O3B O 0.5382(2) 0.2961(2) 0.05463(11)
loop_
_geom_bond_atom_site_label_1
_geom_bond_atom_site_label_2
_geom_bond_site_symmetry_1
_geom_bond_site_symmetry_2
Cu1 O1 1_555 1_555
S1 O1 1_555 1_555
O2 S1 1_555 1_555
O3 S1 1_555 1_555
O4 S1 1_555 1_555
N1 C5 1_555 1_555
C1 H1 1_555 1_555
N2 C7 1_555 1_555
N3 Cu1 1_555 1_555
N4 C2 1_555 1_555
N5 Cu1 1_555 1_555
C2 N5 1_555 1_555
H2 C2 1_555 1_555
C3 N5 1_555 1_555
H3 C3 1_555 1_555
N6 Cu1 1_555 1_555
C4 N4 1_555 1_555
H4 C4 1_555 1_555
C5 H5 1_555 1_555
C6 N1 1_555 1_555
H6 C6 1_555 1_555
C7 C1 1_555 1_555
H7 C7 1_555 1_555
C8 N2 1_555 1_555
H8 C8 1_555 1_555
C9 N6 1_555 1_555
H9 C9 1_555 1_555
H10 N2 1_555 1_555
H11 N1 1_555 1_555
H12 N4 1_555 1_555
Cu1B O3 1_555 1_555
O3B Cu1 1_555 1_555
C1 N3 1_555 1_555
N3 C8 1_555 1_555
C3 C4 1_555 1_555
N6 C6 1_555 1_555
C5 C9 1_555 1_555

#END
