
#######################################################################
#
#                 Cambridge Crystallographic Data Centre
#                                CCDC 
#
#######################################################################
#
# If this CIF has been generated from an entry in the Cambridge 
# Structural Database, then it will include bibliographic, chemical, 
# crystal, experimental, refinement or atomic coordinate data resulting 
# from the CCDC's data processing and validation procedures.
#
#######################################################################

data_BUPGID
_symmetry_cell_setting           monoclinic
_symmetry_space_group_name_H-M   'P 21/c'
_symmetry_Int_Tables_number      14
_space_group_name_Hall           '-P 2ybc'
loop_
_symmetry_equiv_pos_site_id
_symmetry_equiv_pos_as_xyz
1 x,y,z
2 -x,1/2+y,1/2-z
3 -x,-y,-z
4 x,1/2-y,1/2+z
_cell_length_a                   11.5018(6)
_cell_length_b                   22.2844(12)
_cell_length_c                   14.1872(8)
_cell_angle_alpha                90
_cell_angle_beta                 102.802(2)
_cell_angle_gamma                90
_cell_volume                     3545.94
loop_
_atom_site_label
_atom_site_type_symbol
_atom_site_fract_x
_atom_site_fract_y
_atom_site_fract_z
C1 C 0.2340(4) 0.87094(19) 0.7416(3)
C2 C 0.1140(4) 0.88000(19) 0.7270(3)
H1 H 0.0835 0.9186 0.7155
C3 C 0.0362(4) 0.83212(18) 0.7291(3)
C4 C 0.0819(4) 0.77448(19) 0.7426(3)
H2 H 0.0310 0.7424 0.7453
C5 C 0.2035(4) 0.76418(19) 0.7522(3)
C6 C 0.2788(4) 0.81350(19) 0.7511(3)
H3 H 0.3600 0.8073 0.7568
C7 C 0.3202(4) 0.92272(19) 0.7492(3)
C8 C 0.3470(4) 1.0304(2) 0.7834(3)
H4 H 0.3098 1.0577 0.7323
H5 H 0.4267 1.0218 0.7751
C9 C 0.3560(4) 1.0612(2) 0.8803(3)
C10 C -0.0906(4) 0.84927(18) 0.7248(3)
C11 C -0.2894(4) 0.8201(2) 0.7313(4)
H6 H -0.3105 0.8600 0.7059
H7 H -0.2947 0.8197 0.7986
C12 C -0.3780(4) 0.77433(18) 0.6745(3)
C13 C 0.2477(4) 0.7011(2) 0.7674(3)
C14 C 0.3982(4) 0.62716(19) 0.7556(3)
H8 H 0.4614 0.6244 0.7204
H9 H 0.3357 0.5996 0.7253
C15 C 0.4472(4) 0.60646(19) 0.8584(3)
C16 C 0.7468(4) 0.5494(2) 0.9785(3)
H10 H 0.7043 0.5852 0.9667
C17 C 0.8667(4) 0.5512(2) 0.9806(3)
H11 H 0.9019 0.5875 0.9702
C18 C 0.9359(4) 0.5002(2) 0.9979(3)
C19 C 0.8747(4) 0.44850(19) 1.0124(3)
H12 H 0.9156 0.4123 1.0245
C20 C 0.7532(4) 0.45034(19) 1.0090(3)
H13 H 0.7155 0.4147 1.0190
C21 C 0.6431(4) 1.2368(2) 0.9923(3)
H14 H 0.6007 1.2726 0.9886
C22 C 0.7631(4) 1.2394(2) 0.9934(3)
H15 H 0.7987 1.2766 0.9908
C23 C 0.8320(4) 1.1881(2) 0.9983(3)
C24 C 0.7709(4) 1.1341(2) 1.0044(3)
H16 H 0.8115 1.0978 1.0096
C25 C 0.6514(4) 1.1351(2) 1.0027(3)
H17 H 0.6137 1.0985 1.0061
C26 C 0.9586(4) 1.1890(2) 0.9962(3)
C27 C 1.0318(4) 1.2372(2) 1.0202(3)
H18 H 1.0011 1.2727 1.0392
C28 C 1.1499(4) 1.2344(2) 1.0168(3)
H19 H 1.1958 1.2689 1.0329
C29 C 1.1323(4) 1.1403(2) 0.9674(3)
H20 H 1.1647 1.1058 0.9469
C30 C 1.0141(4) 1.1395(2) 0.9692(3)
H21 H 0.9703 1.1046 0.9518
Co1 Co 0.5000 0.5000 1.0000
Co2 Co 0.39535(5) 1.18313(3) 0.99168(4)
N1 N 0.2774(3) 0.97361(16) 0.7736(2)
H22 H 0.2587 0.9673 0.8311
N2 N -0.1687(3) 0.80669(16) 0.7248(2)
H23 H -0.1740 0.7862 0.6694
N3 N 0.3507(3) 0.68742(16) 0.7450(3)
H24 H 0.3900 0.7150 0.7234
N4 N 0.6870(3) 0.49991(16) 0.9922(3)
N5 N 0.5847(3) 1.18516(16) 0.9963(3)
N6 N 1.2028(3) 1.18614(16) 0.9923(3)
O1 O 0.4208(3) 0.91585(13) 0.7355(2)
O2 O 0.3510(3) 1.03044(13) 0.9522(2)
O3 O 0.3710(3) 1.11752(13) 0.8793(2)
O4 O -0.1163(3) 0.90157(13) 0.7272(2)
O5 O -0.3549(3) 0.75433(14) 0.5990(2)
O6 O -0.4682(3) 0.76298(12) 0.7062(2)
O7 O 0.1885(3) 0.66219(13) 0.8009(2)
O8 O 0.4788(3) 0.64486(13) 0.9241(2)
O9 O 0.4530(3) 0.55028(13) 0.8710(2)
O10 O 0.5317(3) 0.57814(13) 1.08411(19)
H25 H 0.4686 0.5968 1.0570
H26 H 0.5147 0.5518 1.1223
O11 O 0.4236(3) 1.24745(13) 1.1027(2)
H27 H 0.4842 1.2686 1.1000
H28 H 0.4351 1.2295 1.1568
O12 O 0.4137(3) 1.11211(14) 1.0917(2)
H29 H 0.3662 1.0874 1.0573
H30 H 0.4577 1.0936 1.1388
C1B C 0.7660(4) 0.12906(19) 1.2584(3)
C2B C 0.8860(4) 0.12000(19) 1.2730(3)
H1B H 0.9165 0.0814 1.2845
C3B C 0.9638(4) 0.16788(18) 1.2709(3)
C4B C 0.9181(4) 0.22552(19) 1.2574(3)
H2B H 0.9690 0.2576 1.2547
C5B C 0.7965(4) 0.23582(19) 1.2478(3)
C6B C 0.7212(4) 0.18650(19) 1.2489(3)
H3B H 0.6400 0.1927 1.2432
C7B C 0.6798(4) 0.07728(19) 1.2508(3)
C8B C 0.6530(4) -0.0304(2) 1.2166(3)
H4B H 0.6902 -0.0577 1.2677
H5B H 0.5733 -0.0218 1.2249
C9B C 0.6440(4) -0.0612(2) 1.1197(3)
C10B C 1.0906(4) 0.15073(18) 1.2752(3)
C11B C 1.2894(4) 0.1799(2) 1.2687(4)
H6B H 1.3105 0.1400 1.2941
H7B H 1.2947 0.1803 1.2014
C12B C 1.3780(4) 0.22567(18) 1.3255(3)
C13B C 0.7523(4) 0.2989(2) 1.2326(3)
C14B C 0.6018(4) 0.37284(19) 1.2444(3)
H8B H 0.5386 0.3756 1.2796
H9B H 0.6643 0.4004 1.2747
C15B C 0.5528(4) 0.39354(19) 1.1416(3)
C16B C 1.2532(4) 0.4506(2) 1.0215(3)
H10B H 1.2957 0.4148 1.0333
C17B C 1.1333(4) 0.4488(2) 1.0194(3)
H11B H 1.0981 0.4125 1.0298
C18B C 1.0641(4) 0.4998(2) 1.0021(3)
C19B C 1.1253(4) 0.55150(19) 0.9876(3)
H12B H 1.0844 0.5877 0.9755
C20B C 1.2468(4) 0.54966(19) 0.9910(3)
H13B H 1.2845 0.5853 0.9810
C21_2 C -0.3569(4) 1.2368(2) 0.9923(3)
H14_2 H -0.3993 1.2726 0.9886
C22_2 C -0.2369(4) 1.2394(2) 0.9934(3)
H15_2 H -0.2013 1.2766 0.9908
C23_2 C -0.1680(4) 1.1881(2) 0.9983(3)
C24_2 C -0.2291(4) 1.1341(2) 1.0044(3)
H16_2 H -0.1885 1.0978 1.0096
C25_2 C -0.3486(4) 1.1351(2) 1.0027(3)
H17_2 H -0.3863 1.0985 1.0061
C26_2 C -0.0414(4) 1.1890(2) 0.9962(3)
C27_2 C 0.0318(4) 1.2372(2) 1.0202(3)
H18_2 H 0.0011 1.2727 1.0392
C28_2 C 0.1499(4) 1.2344(2) 1.0168(3)
H19_2 H 0.1958 1.2689 1.0329
C29_2 C 0.1323(4) 1.1403(2) 0.9674(3)
H20_2 H 0.1647 1.1058 0.9469
C30_2 C 0.0141(4) 1.1395(2) 0.9692(3)
H21_2 H -0.0297 1.1046 0.9518
Co1_2 Co 1.5000 0.5000 1.0000
Co2B Co 0.60465(5) -0.18313(3) 1.00832(4)
Co2_2 Co 1.39535(5) 1.18313(3) 0.99168(4)
Co2A Co -0.39535(5) 0.68313(3) 0.50832(4)
Co2C Co 1.39535(5) 0.31687(3) 1.49168(4)
Co2_3 Co -0.60465(5) 1.18313(3) 0.99168(4)
N1B N 0.7226(3) 0.02639(16) 1.2264(2)
H22B H 0.7413 0.0327 1.1689
N2B N 1.1687(3) 0.19331(16) 1.2752(2)
H23B H 1.1740 0.2138 1.3306
N3B N 0.6493(3) 0.31258(16) 1.2550(3)
H24B H 0.6100 0.2850 1.2766
N4B N 1.3130(3) 0.50009(16) 1.0078(3)
N4B_2 N 0.3130(3) 0.50009(16) 1.0078(3)
N5_2 N -0.4153(3) 1.18516(16) 0.9963(3)
N5B N 0.4153(3) -0.18516(16) 1.0037(3)
N6_2 N 0.2028(3) 1.18614(16) 0.9923(3)
N6B N 0.7972(3) -0.18614(16) 1.0077(3)
O1B O 0.5792(3) 0.08415(13) 1.2645(2)
O2B O 0.6490(3) -0.03044(13) 1.0478(2)
O3B O 0.6290(3) -0.11752(13) 1.1207(2)
O4B O 1.1163(3) 0.09843(13) 1.2728(2)
O5B O 1.3549(3) 0.24567(14) 1.4010(2)
O5A O 0.3549(3) 1.25433(14) 0.9010(2)
O5C O 0.6451(3) -0.25433(14) 1.0990(2)
O6B O 1.4682(3) 0.23702(12) 1.2938(2)
O7B O 0.8115(3) 0.33781(13) 1.1991(2)
O8B O 0.5212(3) 0.35514(13) 1.0759(2)
O9B O 0.5470(3) 0.44972(13) 1.1290(2)
O10B O 0.4683(3) 0.42186(13) 0.91589(19)
H25B H 0.5314 0.4032 0.9430
H26B H 0.4853 0.4482 0.8777
O11B O 0.5764(3) -0.24745(13) 0.8973(2)
H27B H 0.5158 -0.2686 0.9000
H28B H 0.5649 -0.2295 0.8432
O12B O 0.5863(3) -0.11211(14) 0.9083(2)
H29B H 0.6338 -0.0874 0.9427
H30B H 0.5423 -0.0936 0.8612
O13 O 0.7308(3) 0.98638(13) 0.7637(2)
H31 H 0.7813 0.9584 0.7647
H32 H 0.7290 1.0087 0.7148
O14 O 0.8106(3) 0.67734(13) 0.7752(2)
H33 H 0.8718 0.6939 0.7623
H34 H 0.7474 0.6587 0.7288
O15 O 0.9835(3) 0.59582(14) 0.7776(2)
H35 H 0.9621 0.5592 0.7746
H36 H 1.0154 0.6038 0.7305
O16 O 0.0497(3) 0.99414(13) 0.8421(2)
H37 H 0.0683 1.0138 0.8946
H38 H -0.0138 0.9743 0.8409
O17 O 0.8455(3) 0.49824(13) 0.4486(2)
H39 H 0.8035 0.5244 0.4693
H40 H 0.8093 0.4867 0.3926
loop_
_geom_bond_atom_site_label_1
_geom_bond_atom_site_label_2
_geom_bond_site_symmetry_1
_geom_bond_site_symmetry_2
C1 C2 1_555 1_555
C2 H1 1_555 1_555
C3 C2 1_555 1_555
C4 C3 1_555 1_555
H2 C4 1_555 1_555
C5 C4 1_555 1_555
C6 C1 1_555 1_555
H3 C6 1_555 1_555
C7 C1 1_555 1_555
C8 H4 1_555 1_555
H5 C8 1_555 1_555
C9 C8 1_555 1_555
C10 C3 1_555 1_555
C11 H6 1_555 1_555
H7 C11 1_555 1_555
C12 C11 1_555 1_555
C13 C5 1_555 1_555
C14 H8 1_555 1_555
H9 C14 1_555 1_555
C15 C14 1_555 1_555
C16 H10 1_555 1_555
C17 C16 1_555 1_555
H11 C17 1_555 1_555
C18 C17 1_555 1_555
C19 C18 1_555 1_555
H12 C19 1_555 1_555
C20 C19 1_555 1_555
H13 C20 1_555 1_555
C21 H14 1_555 1_555
C22 C21 1_555 1_555
H15 C22 1_555 1_555
C23 C22 1_555 1_555
C24 C23 1_555 1_555
H16 C24 1_555 1_555
C25 C24 1_555 1_555
H17 C25 1_555 1_555
C26 C23 1_555 1_555
C27 C26 1_555 1_555
H18 C27 1_555 1_555
C28 C27 1_555 1_555
H19 C28 1_555 1_555
C29 H20 1_555 1_555
C30 C26 1_555 1_555
H21 C30 1_555 1_555
Co1 N4 1_555 1_555
Co2 N5 1_555 1_555
N1 C7 1_555 1_555
H22 N1 1_555 1_555
N2 C10 1_555 1_555
H23 N2 1_555 1_555
N3 C13 1_555 1_555
H24 N3 1_555 1_555
N4 C16 1_555 1_555
N5 C21 1_555 1_555
N6 C28 1_555 1_555
O1 C7 1_555 1_555
O2 C9 1_555 1_555
O3 C9 1_555 1_555
O4 C10 1_555 1_555
O5 C12 1_555 1_555
O6 C12 1_555 1_555
O7 C13 1_555 1_555
O8 C15 1_555 1_555
O9 C15 1_555 1_555
O10 Co1 1_555 1_555
H25 O10 1_555 1_555
H26 O10 1_555 1_555
O11 Co2 1_555 1_555
H27 O11 1_555 1_555
H28 O11 1_555 1_555
O12 Co2 1_555 1_555
H29 O12 1_555 1_555
H30 O12 1_555 1_555
O13 H31 1_555 1_555
H32 O13 1_555 1_555
O14 H33 1_555 1_555
H34 O14 1_555 1_555
O15 H35 1_555 1_555
H36 O15 1_555 1_555
O16 H37 1_555 1_555
H38 O16 1_555 1_555
O17 H39 1_555 1_555
H40 O17 1_555 1_555
C1B C2B 1_555 1_555
C2B H1B 1_555 1_555
C3B C2B 1_555 1_555
C4B C3B 1_555 1_555
H2B C4B 1_555 1_555
C5B C4B 1_555 1_555
C6B C1B 1_555 1_555
H3B C6B 1_555 1_555
C7B C1B 1_555 1_555
C8B H4B 1_555 1_555
H5B C8B 1_555 1_555
C9B C8B 1_555 1_555
C10B C3B 1_555 1_555
C11B H6B 1_555 1_555
H7B C11B 1_555 1_555
C12B C11B 1_555 1_555
C13B C5B 1_555 1_555
C14B H8B 1_555 1_555
H9B C14B 1_555 1_555
C15B C14B 1_555 1_555
C16B H10B 1_555 1_555
C17B C16B 1_555 1_555
H11B C17B 1_555 1_555
C18B C18 1_555 1_555
C19B C18B 1_555 1_555
H12B C19B 1_555 1_555
C20B C19B 1_555 1_555
H13B C20B 1_555 1_555
C21_2 H14_2 1_555 1_555
C22_2 C21_2 1_555 1_555
H15_2 C22_2 1_555 1_555
C23_2 C22_2 1_555 1_555
C24_2 C23_2 1_555 1_555
H16_2 C24_2 1_555 1_555
C25_2 C24_2 1_555 1_555
H17_2 C25_2 1_555 1_555
C26_2 C23_2 1_555 1_555
C27_2 C26_2 1_555 1_555
H18_2 C27_2 1_555 1_555
C28_2 C27_2 1_555 1_555
H19_2 C28_2 1_555 1_555
C29_2 H20_2 1_555 1_555
C30_2 C26_2 1_555 1_555
H21_2 C30_2 1_555 1_555
Co1_2 N4B 1_555 1_555
Co2B N5B 1_555 1_555
Co2_2 N6 1_555 1_555
Co2A O5 1_555 1_555
Co2C O5B 1_555 1_555
Co2_3 N5_2 1_555 1_555
N1B C7B 1_555 1_555
H22B N1B 1_555 1_555
N2B C10B 1_555 1_555
H23B N2B 1_555 1_555
N3B C13B 1_555 1_555
H24B N3B 1_555 1_555
N4B C16B 1_555 1_555
N4B_2 Co1 1_555 1_555
N5_2 C21_2 1_555 1_555
N6_2 Co2 1_555 1_555
N6B Co2B 1_555 1_555
O1B C7B 1_555 1_555
O2B C9B 1_555 1_555
O3B C9B 1_555 1_555
O4B C10B 1_555 1_555
O5B C12B 1_555 1_555
O5A Co2 1_555 1_555
O5C Co2B 1_555 1_555
O6B C12B 1_555 1_555
O7B C13B 1_555 1_555
O8B C15B 1_555 1_555
O9B Co1 1_555 1_555
O10B Co1 1_555 1_555
H25B O10B 1_555 1_555
H26B O10B 1_555 1_555
O11B Co2B 1_555 1_555
H27B O11B 1_555 1_555
H28B O11B 1_555 1_555
O12B Co2B 1_555 1_555
H29B O12B 1_555 1_555
H30B O12B 1_555 1_555
C5 C6 1_555 1_555
C8 N1 1_555 1_555
C11 N2 1_555 1_555
C14 N3 1_555 1_555
C20 N4 1_555 1_555
C25 N5 1_555 1_555
C29 C30 1_555 1_555
C29 N6 1_555 1_555
Co1 O9 1_555 1_555
Co2 O3 1_555 1_555
C5B C6B 1_555 1_555
C8B N1B 1_555 1_555
C11B N2B 1_555 1_555
C14B N3B 1_555 1_555
C15B O9B 1_555 1_555
C17B C18B 1_555 1_555
C20B N4B 1_555 1_555
C25_2 N5_2 1_555 1_555
C28_2 N6_2 1_555 1_555
C29_2 C30_2 1_555 1_555
C29_2 N6_2 1_555 1_555
Co2B O3B 1_555 1_555

#END
