
#######################################################################
#
#                 Cambridge Crystallographic Data Centre
#                                CCDC 
#
#######################################################################
#
# If this CIF has been generated from an entry in the Cambridge 
# Structural Database, then it will include bibliographic, chemical, 
# crystal, experimental, refinement or atomic coordinate data resulting 
# from the CCDC's data processing and validation procedures.
#
#######################################################################

data_BUPJUS
_symmetry_cell_setting           monoclinic
_symmetry_space_group_name_H-M   'C 2/c'
_symmetry_Int_Tables_number      15
_space_group_name_Hall           '-C 2yn'
loop_
_symmetry_equiv_pos_site_id
_symmetry_equiv_pos_as_xyz
1 x,y,z
2 -x,y,1/2-z
3 1/2+x,1/2+y,z
4 1/2-x,1/2+y,1/2-z
5 -x,-y,-z
6 x,-y,1/2+z
7 1/2-x,1/2-y,-z
8 1/2+x,1/2-y,1/2+z
_cell_length_a                   13.0295(17)
_cell_length_b                   13.8924(18)
_cell_length_c                   7.6163(10)
_cell_angle_alpha                90
_cell_angle_beta                 90.000(2)
_cell_angle_gamma                90
_cell_volume                     1378.63
loop_
_atom_site_label
_atom_site_type_symbol
_atom_site_fract_x
_atom_site_fract_y
_atom_site_fract_z
Cd1 Cd -0.5000 0.0000 0.0000
C1 C -0.5000 0.2996(4) 0.2500
C2 C -0.4187(3) 0.3493(3) 0.1771(6)
H1 H -0.3652 0.3161 0.1236
C3 C -0.4173(3) 0.4482(3) 0.1843(5)
C4 C -0.5000 0.4983(3) 0.2500
H2 H -0.5000 0.5653 0.2500
C5 C -0.5000 0.1900(4) 0.2500
C6 C -0.3207(3) 0.5971(3) 0.0989(7)
H3 H -0.3719 0.6430 0.1150
C7 C -0.2227(4) 0.6133(3) 0.0456(7)
H4 H -0.1952 0.6733 0.0188
C8 C -0.2365(3) 0.4635(3) 0.0875(6)
H5 H -0.2206 0.3984 0.0967
N1 N -0.1710(3) 0.5289(3) 0.0374(5)
N2 N -0.3290(3) 0.50000(19) 0.1242(7)
O1 O -0.4587(3) 0.1505(2) 0.1218(4)
O2 O -0.5000 -0.0782(2) 0.2500
Cd1C Cd -1.0000 0.5000 0.5000
Cd1B Cd 0.0000 0.5000 0.0000
Cd1A Cd -0.5000 0.0000 0.5000
C2A C -0.5813(3) 0.3493(3) 0.3229(6)
H1A H -0.6348 0.3161 0.3764
C3A C -0.5827(3) 0.4482(3) 0.3157(5)
C6A C -0.6793(3) 0.5971(3) 0.4011(7)
H3A H -0.6281 0.6430 0.3850
C7A C -0.7773(4) 0.6133(3) 0.4544(7)
H4A H -0.8048 0.6733 0.4812
C8A C -0.7635(3) 0.4635(3) 0.4125(6)
H5A H -0.7794 0.3984 0.4033
N1A N -0.8290(3) 0.5289(3) 0.4626(5)
N1B N -0.6710(3) 0.0289(3) 0.0374(5)
N1F N -0.3290(3) -0.0289(3) -0.0374(5)
N2A N -0.6710(3) 0.50000(19) 0.3758(7)
O1A O -0.5413(3) 0.1505(2) 0.3782(4)
O1D O -0.5413(3) -0.1505(2) -0.1218(4)
O2D O -0.5000 0.0782(2) -0.2500
O3 O 0.0000 0.2393(4) 0.2500
loop_
_geom_bond_atom_site_label_1
_geom_bond_atom_site_label_2
_geom_bond_site_symmetry_1
_geom_bond_site_symmetry_2
Cd1 O1 1_555 1_555
C1 C2 1_555 1_555
C2 H1 1_555 1_555
C3 C2 1_555 1_555
C4 C3 1_555 1_555
H2 C4 1_555 1_555
C5 C1 1_555 1_555
C6 H3 1_555 1_555
C7 C6 1_555 1_555
H4 C7 1_555 1_555
C8 H5 1_555 1_555
N1 C7 1_555 1_555
N2 C3 1_555 1_555
O1 C5 1_555 1_555
O2 Cd1 1_555 1_555
Cd1C N1A 1_555 1_555
Cd1B N1 1_555 1_555
Cd1A O2 1_555 1_555
C2A C1 1_555 1_555
H1A C2A 1_555 1_555
C3A C4 1_555 1_555
C6A H3A 1_555 1_555
C7A C6A 1_555 1_555
H4A C7A 1_555 1_555
C8A H5A 1_555 1_555
N1A C7A 1_555 1_555
N1B Cd1 1_555 1_555
N1F Cd1 1_555 1_555
N2A C3A 1_555 1_555
O1A C5 1_555 1_555
O1D Cd1 1_555 1_555
O2D Cd1 1_555 1_555
C6 N2 1_555 1_555
C8 N1 1_555 1_555
C8 N2 1_555 1_555
Cd1A O1A 1_555 1_555
C2A C3A 1_555 1_555
C6A N2A 1_555 1_555
C8A N1A 1_555 1_555
C8A N2A 1_555 1_555

#END
