
#######################################################################
#
#                 Cambridge Crystallographic Data Centre
#                                CCDC 
#
#######################################################################
#
# If this CIF has been generated from an entry in the Cambridge 
# Structural Database, then it will include bibliographic, chemical, 
# crystal, experimental, refinement or atomic coordinate data resulting 
# from the CCDC's data processing and validation procedures.
#
#######################################################################

data_BUPJOM
_symmetry_cell_setting           monoclinic
_symmetry_space_group_name_H-M   'P 21/c'
_symmetry_Int_Tables_number      14
_space_group_name_Hall           '-P 2ybc'
loop_
_symmetry_equiv_pos_site_id
_symmetry_equiv_pos_as_xyz
1 x,y,z
2 -x,1/2+y,1/2-z
3 -x,-y,-z
4 x,1/2-y,1/2+z
_cell_length_a                   11.689(10)
_cell_length_b                   18.209(15)
_cell_length_c                   8.209(7)
_cell_angle_alpha                90
_cell_angle_beta                 110.557(2)
_cell_angle_gamma                90
_cell_volume                     1635.99
loop_
_atom_site_label
_atom_site_type_symbol
_atom_site_fract_x
_atom_site_fract_y
_atom_site_fract_z
Cd1 Cd -0.26964(4) 0.03042(2) 0.89028(6)
C1 C 0.2193(6) 0.3091(3) 0.7202(7)
C2 C 0.1094(5) 0.2884(3) 0.7396(7)
H1 H 0.0538 0.3241 0.7446
C3 C 0.0841(5) 0.2154(3) 0.7513(7)
C4 C 0.1677(5) 0.1610(3) 0.7483(7)
H2 H 0.1504 0.1117 0.7579
C5 C 0.2769(5) 0.1819(3) 0.7308(8)
C6 C 0.3042(5) 0.2555(3) 0.7169(8)
H3 H 0.3778 0.2689 0.7056
C7 C 0.2456(6) 0.3884(3) 0.6955(8)
C8 C -0.1390(6) 0.2313(4) 0.6992(8)
H4 H -0.1504 0.2774 0.6473
C9 C -0.2262(6) 0.1888(3) 0.7255(8)
H5 H -0.3080 0.2016 0.6954
C10 C -0.0574(6) 0.1290(3) 0.8212(7)
H6 H -0.0002 0.0922 0.8680
C11 C 0.3348(6) 0.0618(3) 0.6336(8)
H7 H 0.2574 0.0461 0.5639
C12 C 0.4390(5) 0.0260(4) 0.6639(8)
H8 H 0.4463 -0.0196 0.6176
C13 C 0.4837(6) 0.1262(3) 0.8085(9)
H9 H 0.5268 0.1634 0.8821
C14 C -0.1719(6) 0.0635(4) 1.2289(8)
C15 C -0.1074(7) 0.0827(4) 1.4183(8)
H10 H -0.0606 0.1268 1.4268
H11 H -0.0538 0.0432 1.4753
H12 H -0.1667 0.0902 1.4731
N1 N -0.1747(4) 0.1232(3) 0.8042(6)
N2 N -0.0304(4) 0.1933(2) 0.7639(6)
N3 N 0.5339(5) 0.0659(3) 0.7729(7)
N4 N 0.3630(4) 0.1265(2) 0.7244(6)
O1 O 0.3405(4) 0.4056(2) 0.6630(6)
O2 O 0.1687(4) 0.4355(2) 0.7049(5)
O3 O -0.2567(4) 0.1035(2) 1.1396(6)
O4 O -0.1376(4) 0.0080(2) 1.1685(5)
Cd1_2 Cd 0.73036(4) 0.03042(2) 0.89028(6)
Cd1A Cd 0.26964(4) 0.53042(2) 0.60972(6)
C7A C -0.2456(6) -0.1116(3) 0.8045(8)
N3_2 N -0.4661(5) 0.0659(3) 0.7729(7)
O1A O -0.3405(4) -0.0944(2) 0.8370(6)
O2A O -0.1687(4) -0.0645(2) 0.7951(5)
O5 O 0.5688(5) 0.3246(3) 0.7472(8)
loop_
_geom_bond_atom_site_label_1
_geom_bond_atom_site_label_2
_geom_bond_site_symmetry_1
_geom_bond_site_symmetry_2
Cd1 N1 1_555 1_555
C1 C2 1_555 1_555
C2 H1 1_555 1_555
C3 C2 1_555 1_555
C4 C3 1_555 1_555
H2 C4 1_555 1_555
C5 C4 1_555 1_555
C6 C1 1_555 1_555
H3 C6 1_555 1_555
C7 C1 1_555 1_555
C8 H4 1_555 1_555
C9 C8 1_555 1_555
H5 C9 1_555 1_555
C10 H6 1_555 1_555
C11 H7 1_555 1_555
C12 C11 1_555 1_555
H8 C12 1_555 1_555
C13 H9 1_555 1_555
C14 C15 1_555 1_555
C15 H10 1_555 1_555
H11 C15 1_555 1_555
H12 C15 1_555 1_555
N1 C9 1_555 1_555
N2 C3 1_555 1_555
N3 C12 1_555 1_555
N4 C5 1_555 1_555
O1 C7 1_555 1_555
O2 C7 1_555 1_555
O3 Cd1 1_555 1_555
O4 Cd1 1_555 1_555
Cd1_2 N3 1_555 1_555
Cd1A O1 1_555 1_555
C7A O1A 1_555 1_555
N3_2 Cd1 1_555 1_555
O1A Cd1 1_555 1_555
O2A Cd1 1_555 1_555
C5 C6 1_555 1_555
C8 N2 1_555 1_555
C10 N1 1_555 1_555
C10 N2 1_555 1_555
C11 N4 1_555 1_555
C13 N3 1_555 1_555
C13 N4 1_555 1_555
C14 O3 1_555 1_555
C14 O4 1_555 1_555
O2 Cd1A 1_555 1_555
C7A O2A 1_555 1_555

#END
