
#######################################################################
#
#                 Cambridge Crystallographic Data Centre
#                                CCDC 
#
#######################################################################
#
# If this CIF has been generated from an entry in the Cambridge 
# Structural Database, then it will include bibliographic, chemical, 
# crystal, experimental, refinement or atomic coordinate data resulting 
# from the CCDC's data processing and validation procedures.
#
#######################################################################

data_BUPKAZ
_symmetry_cell_setting           triclinic
_symmetry_space_group_name_H-M   'P -1'
_symmetry_Int_Tables_number      2
_space_group_name_Hall           '-P 1'
loop_
_symmetry_equiv_pos_site_id
_symmetry_equiv_pos_as_xyz
1 x,y,z
2 -x,-y,-z
_cell_length_a                   10.7731(15)
_cell_length_b                   12.8762(18)
_cell_length_c                   13.8455(19)
_cell_angle_alpha                99.3870(10)
_cell_angle_beta                 111.108(2)
_cell_angle_gamma                106.958(3)
_cell_volume                     1634.62
loop_
_atom_site_label
_atom_site_type_symbol
_atom_site_fract_x
_atom_site_fract_y
_atom_site_fract_z
Cd1 Cd 0.50154(6) 0.19162(5) 0.09762(5)
Cd2 Cd -0.04870(6) -0.37535(5) 0.54469(5)
C1 C -0.2029(7) 0.2956(6) -0.0435(6)
C2 C -0.2422(7) 0.3459(6) -0.1244(5)
H1 H -0.3353 0.3443 -0.1554
C3 C -0.1416(7) 0.3988(6) -0.1588(6)
C4 C -0.0037(7) 0.3987(6) -0.1148(5)
H2 H 0.0636 0.4342 -0.1383
C5 C 0.0323(7) 0.3465(6) -0.0373(5)
C6 C -0.0666(7) 0.2942(6) -0.0002(6)
H3 H -0.0409 0.2589 0.0531
C7 C -0.3122(9) 0.2477(7) 0.0018(6)
C8 C -0.3003(8) 0.4767(8) -0.2828(7)
H4 H -0.3752 0.4617 -0.2621
C9 C -0.2881(8) 0.5269(8) -0.3589(7)
H5 H -0.3557 0.5523 -0.4004
C10 C -0.1012(8) 0.4899(7) -0.2955(6)
H6 H -0.0130 0.4839 -0.2826
C11 C 0.2966(8) 0.4297(7) 0.0109(6)
H7 H 0.3017 0.4961 -0.0086
C12 C 0.4040(8) 0.3939(7) 0.0497(6)
H8 H 0.4986 0.4337 0.0630
C13 C 0.2172(8) 0.2666(7) 0.0380(6)
H9 H 0.1547 0.2004 0.0396
C14 C 0.4622(8) -0.0318(7) 0.2932(6)
C15 C 0.5799(8) -0.0596(6) 0.3387(6)
H10 H 0.6590 -0.0334 0.3238
C16 C 0.5791(8) -0.1275(7) 0.4075(6)
C17 C 0.4586(8) -0.1731(6) 0.4248(6)
H11 H 0.4567 -0.2214 0.4679
C18 C 0.3407(8) -0.1450(6) 0.3765(6)
C19 C 0.3419(8) -0.0730(6) 0.3123(6)
H12 H 0.2634 -0.0527 0.2825
C20 C 0.4623(9) 0.0412(7) 0.2180(6)
C21 C 0.8336(9) -0.0750(7) 0.5192(6)
H13 H 0.8613 0.0031 0.5301
C22 C 0.9207(9) -0.1302(7) 0.5597(7)
H14 H 1.0194 -0.0959 0.6032
C23 C 0.7091(8) -0.2547(7) 0.4683(6)
H15 H 0.6293 -0.3228 0.4353
C24 C 0.0790(8) -0.2004(7) 0.3265(6)
H16 H 0.0539 -0.1736 0.2667
C25 C -0.0108(8) -0.2549(7) 0.3670(6)
H17 H -0.1097 -0.2738 0.3373
C26 C 0.2013(8) -0.2404(7) 0.4701(6)
H18 H 0.2775 -0.2461 0.5253
N1 N -0.1614(6) 0.5355(6) -0.3671(5)
N2 N -0.1790(6) 0.4523(5) -0.2420(5)
N3 N 0.3566(6) 0.2898(5) 0.0677(5)
N4 N 0.1764(6) 0.3478(5) 0.0056(5)
N5 N 0.8389(7) -0.2463(6) 0.5259(5)
N6 N 0.7041(7) -0.1517(6) 0.4621(5)
N7 N 0.0676(7) -0.2778(6) 0.4587(5)
N8 N 0.2149(6) -0.1931(5) 0.3927(5)
O1 O -0.2829(5) 0.1894(5) 0.0642(4)
O2 O -0.4207(5) 0.2711(5) -0.0254(4)
O3 O 0.5586(6) 0.0605(5) 0.1857(4)
O4 O 0.3683(6) 0.0841(5) 0.1938(5)
O5 O 0.1170(6) -0.2282(5) 0.7108(4)
O6 O 0.6580(6) 0.3139(5) 0.2648(5)
O7 O 0.8758(5) 0.4650(5) 0.3987(4)
O8 O 0.7584(6) 0.4815(6) 0.2204(5)
O9 O 0.6535(7) 0.4903(6) 0.3446(5)
O10 O 0.3332(5) 0.0354(5) -0.0576(4)
S1 S 0.7342(2) 0.43920(19) 0.30513(17)
Cd1_2 Cd -0.49846(6) 0.19162(5) 0.09762(5)
Cd2_2 Cd -0.04870(6) 0.62465(5) -0.45531(5)
Cd2_3 Cd 0.95130(6) -0.37535(5) 0.54469(5)
Cd2A Cd 1.04870(6) 0.37535(5) 0.45531(5)
Cd2_4 Cd 0.95130(6) 0.62465(5) 0.54469(5)
N1_2 N -0.1614(6) -0.4645(6) 0.6329(5)
N5_2 N -0.1611(7) -0.2463(6) 0.5259(5)
O1_2 O 0.7171(5) 0.1894(5) 0.0642(4)
O2_2 O 0.5793(5) 0.2711(5) -0.0254(4)
O7A O 0.1242(5) -0.4650(5) 0.6013(4)
O7_2 O -0.1242(5) -0.5350(5) 0.3987(4)
O11 O 0.3885(7) 0.3205(6) -0.2163(5)
O12 O 0.5474(8) -0.2870(6) 0.6277(6)
O13 O 1.0944(11) 0.1812(11) 0.2145(8)
O14 O 1.1685(13) 0.1054(11) 0.7797(9)
O15 O 1.0637(12) -0.0153(10) 0.0934(15)
loop_
_geom_bond_atom_site_label_1
_geom_bond_atom_site_label_2
_geom_bond_site_symmetry_1
_geom_bond_site_symmetry_2
Cd1 N3 1_555 1_555
Cd2 N7 1_555 1_555
C1 C2 1_555 1_555
C2 H1 1_555 1_555
C3 C2 1_555 1_555
C4 C3 1_555 1_555
H2 C4 1_555 1_555
C5 C4 1_555 1_555
C6 C1 1_555 1_555
H3 C6 1_555 1_555
C7 C1 1_555 1_555
C8 H4 1_555 1_555
C9 C8 1_555 1_555
H5 C9 1_555 1_555
C10 H6 1_555 1_555
C11 H7 1_555 1_555
C12 C11 1_555 1_555
H8 C12 1_555 1_555
C13 H9 1_555 1_555
C14 C15 1_555 1_555
C15 H10 1_555 1_555
C16 C15 1_555 1_555
C17 C16 1_555 1_555
H11 C17 1_555 1_555
C18 C17 1_555 1_555
C19 C14 1_555 1_555
H12 C19 1_555 1_555
C20 C14 1_555 1_555
C21 H13 1_555 1_555
C22 C21 1_555 1_555
H14 C22 1_555 1_555
C23 H15 1_555 1_555
C24 H16 1_555 1_555
C25 C24 1_555 1_555
H17 C25 1_555 1_555
C26 H18 1_555 1_555
N1 C9 1_555 1_555
N2 C3 1_555 1_555
N3 C12 1_555 1_555
N4 C5 1_555 1_555
N5 C22 1_555 1_555
N6 C16 1_555 1_555
N7 C25 1_555 1_555
N8 C18 1_555 1_555
O1 C7 1_555 1_555
O2 C7 1_555 1_555
O3 Cd1 1_555 1_555
O4 Cd1 1_555 1_555
O5 Cd2 1_555 1_555
O6 Cd1 1_555 1_555
O7 S1 1_555 1_555
O8 S1 1_555 1_555
O9 S1 1_555 1_555
O10 Cd1 1_555 1_555
S1 O6 1_555 1_555
Cd1_2 O1 1_555 1_555
Cd2_2 N1 1_555 1_555
Cd2_3 N5 1_555 1_555
Cd2A O7 1_555 1_555
Cd2_4 O7 1_555 1_555
N1_2 Cd2 1_555 1_555
N5_2 Cd2 1_555 1_555
O1_2 Cd1 1_555 1_555
O2_2 Cd1 1_555 1_555
O7A Cd2 1_555 1_555
O7_2 Cd2 1_555 1_555
C5 C6 1_555 1_555
C8 N2 1_555 1_555
C10 N1 1_555 1_555
C10 N2 1_555 1_555
C11 N4 1_555 1_555
C13 N3 1_555 1_555
C13 N4 1_555 1_555
C18 C19 1_555 1_555
C20 O3 1_555 1_555
C20 O4 1_555 1_555
C21 N6 1_555 1_555
C23 N5 1_555 1_555
C23 N6 1_555 1_555
C24 N8 1_555 1_555
C26 N7 1_555 1_555
C26 N8 1_555 1_555
O2 Cd1_2 1_555 1_555

#END
