
#######################################################################
#
#                 Cambridge Crystallographic Data Centre
#                                CCDC 
#
#######################################################################
#
# If this CIF has been generated from an entry in the Cambridge 
# Structural Database, then it will include bibliographic, chemical, 
# crystal, experimental, refinement or atomic coordinate data resulting 
# from the CCDC's data processing and validation procedures.
#
#######################################################################

data_BUPMAB
_symmetry_cell_setting           triclinic
_symmetry_space_group_name_H-M   'P -1'
_symmetry_Int_Tables_number      2
_space_group_name_Hall           '-P 1'
loop_
_symmetry_equiv_pos_site_id
_symmetry_equiv_pos_as_xyz
1 x,y,z
2 -x,-y,-z
_cell_length_a                   9.8526(1)
_cell_length_b                   12.2227(1)
_cell_length_c                   13.0852(1)
_cell_angle_alpha                85.995(1)
_cell_angle_beta                 80.110(1)
_cell_angle_gamma                70.954(1)
_cell_volume                     1467.23
loop_
_atom_site_label
_atom_site_type_symbol
_atom_site_fract_x
_atom_site_fract_y
_atom_site_fract_z
Na1 Na 0.50000 0.50000 0.50000
Na2 Na 0.08381(5) 0.52664(4) 0.60264(4)
O1 O 0.41051(8) 0.34368(5) 0.40328(6)
O2 O 0.21859(8) 0.31941(5) 0.61038(6)
O3 O 0.31568(6) 0.15216(5) 0.45520(4)
O4 O 0.50165(6) 0.17157(5) 0.55011(4)
O5 O 0.44490(10) -0.00893(7) 0.88489(5)
O6 O 0.03813(8) -0.05671(7) 0.67542(7)
O7 O 0.14369(7) 0.12367(5) 0.63316(5)
O8 O 0.21765(7) -0.03260(5) 0.49013(5)
O9 O 0.24732(7) -0.03333(5) 0.77475(5)
O10 O 0.34445(7) 0.14706(5) 0.73697(5)
O11 O 0.47651(7) 0.16871(5) 0.26766(5)
O12 O 0.67940(7) 0.19088(5) 0.37272(5)
O13 O 0.38292(7) -0.01205(5) 0.30540(5)
O14 O 0.41972(6) -0.01120(5) 0.59104(4)
O15 O 0.58744(10) 0.33796(7) 0.61033(6)
O16 O -0.13492(9) 0.48710(7) 0.58682(7)
O17 O -0.05139(9) 0.72701(7) 0.59777(6)
O18 O 0.28771(9) 0.58815(7) 0.61723(6)
O19 O 0.04271(10) 0.53667(8) 0.79465(6)
V1 V 0.296997(14) 0.180736(10) 0.607954(10)
V2 V 0.486871(15) 0.204389(10) 0.397725(10)
V3 V 0.195060(16) -0.038880(12) 0.646490(11)
V4 V 0.377380(14) -0.012010(10) 0.434710(9)
V5 V 0.424121(17) -0.011765(12) 0.765797(10)
N1 N -0.04488(10) 0.61325(8) 0.95633(6)
N2 N -0.07455(12) 0.73019(9) 0.80666(7)
N3 N -0.14253(12) 0.68943(9) 1.11830(7)
C1 C -0.12076(11) 0.70570(9) 1.01651(8)
C2 C -0.17728(14) 0.81711(10) 0.96974(9)
C3 C -0.15326(15) 0.82445(10) 0.86461(10)
C4 C -0.02196(11) 0.62231(9) 0.85011(7)
H1 H -0.026(6) 0.550(4) 0.977(4)
H2 H -0.111(2) 0.6119(19) 1.1464(17)
H3 H -0.200(2) 0.7504(17) 1.1620(16)
H4 H -0.249(3) 0.884(2) 1.0156(19)
H5 H -0.188(3) 0.897(2) 0.8219(18)
H6 H -0.065(2) 0.7346(19) 0.7333(18)
H7 H 0.553(3) 0.283(2) 0.5887(18)
H8 H 0.006(2) 0.7623(19) 0.5620(17)
H9 H -0.151(3) 0.438(2) 0.640(2)
H10 H 0.322(3) 0.557(2) 0.673(2)
H11 H 0.686(3) 0.314(2) 0.6012(19)
H12 H -0.139(2) 0.7669(19) 0.5825(17)
H13 H 0.282(2) 0.6647(19) 0.6162(17)
H14 H -0.213(3) 0.541(2) 0.592(2)
Na2A Na 0.91619(5) 0.47336(4) 0.39736(4)
Na2A_2 Na -0.08381(5) 0.47336(4) 0.39736(4)
Na2_2 Na 1.08381(5) 0.52664(4) 0.60264(4)
O1A O 0.58949(8) 0.65632(5) 0.59672(6)
O2A O 0.78141(8) 0.68059(5) 0.38962(6)
O3A O 0.68432(6) 0.84784(5) 0.54480(4)
O4A O 0.49835(6) 0.82843(5) 0.44989(4)
O4A_2 O 0.49835(6) -0.17157(5) 0.44989(4)
O4_2 O 0.50165(6) 1.17157(5) 0.55011(4)
O5A O 0.55510(10) 1.00893(7) 0.11511(5)
O6A O 0.96187(8) 1.05671(7) 0.32458(7)
O7A O 0.85631(7) 0.87633(5) 0.36684(5)
O8A O 0.78235(7) 1.03260(5) 0.50987(5)
O9A O 0.75268(7) 1.03333(5) 0.22525(5)
O10A O 0.65555(7) 0.85294(5) 0.26303(5)
O11A O 0.52349(7) -0.16871(5) 0.73234(5)
O11A_2 O 0.52349(7) 0.83129(5) 0.73234(5)
O11_2 O 0.47651(7) 1.16871(5) 0.26766(5)
O12A O 0.32060(7) -0.19088(5) 0.62728(5)
O12A_2 O 0.32060(7) 0.80912(5) 0.62728(5)
O12_2 O 0.67940(7) 1.19088(5) 0.37272(5)
O13A O 0.61708(7) 0.01205(5) 0.69460(5)
O13A_2 O 0.61708(7) 1.01205(5) 0.69460(5)
O13_2 O 0.38292(7) 0.98795(5) 0.30540(5)
O14A O 0.58028(6) 1.01120(5) 0.40896(4)
O14A_2 O 0.58028(6) 0.01120(5) 0.40896(4)
O14_2 O 0.41972(6) 0.98880(5) 0.59104(4)
O15A O 0.41256(10) 0.66204(7) 0.38967(6)
O16A O 0.13492(9) 0.51290(7) 0.41318(7)
O16A_2 O 1.13492(9) 0.51290(7) 0.41318(7)
O16_2 O 0.86508(9) 0.48710(7) 0.58682(7)
O17A O 1.05139(9) 0.27299(7) 0.40223(6)
O18A O 0.71229(9) 0.41185(7) 0.38277(6)
O19A O 0.95729(10) 0.46333(8) 0.20535(6)
V1A V 0.703003(14) 0.819264(10) 0.392046(10)
V2A V 0.513129(15) 0.795611(10) 0.602275(10)
V2A_2 V 0.513129(15) -0.204389(10) 0.602275(10)
V2_2 V 0.486871(15) 1.204389(10) 0.397725(10)
V3A V 0.804940(16) 1.038880(12) 0.353510(11)
V3A_2 V 0.804940(16) 0.038880(12) 0.353510(11)
V4A V 0.622620(14) 1.012010(10) 0.565290(9)
V4A_2 V 0.622620(14) 0.012010(10) 0.565290(9)
V4_2 V 0.377380(14) 0.987990(10) 0.434710(9)
V5A V 0.575879(17) 1.011765(12) 0.234203(10)
V5A_2 V 0.575879(17) 0.011765(12) 0.234203(10)
N1A N 1.04488(10) 0.38675(8) 0.04367(6)
N2A N 1.07455(12) 0.26981(9) 0.19334(7)
N3A N 1.14253(12) 0.31057(9) -0.11830(7)
C1A C 1.12076(11) 0.29430(9) -0.01651(8)
C2A C 1.17728(14) 0.18289(10) 0.03026(9)
C3A C 1.15326(15) 0.17555(10) 0.13539(10)
C4A C 1.02196(11) 0.37769(9) 0.14989(7)
H1A H 1.026(6) 0.450(4) 0.023(4)
H2A H 1.111(2) 0.3881(19) -0.1464(17)
H3A H 1.200(2) 0.2496(17) -0.1620(16)
H4A H 1.249(3) 0.116(2) -0.0156(19)
H5A H 1.188(3) 0.103(2) 0.1781(18)
H6A H 1.065(2) 0.2654(19) 0.2667(18)
H7A H 0.447(3) 0.717(2) 0.4113(18)
H8A H 0.994(2) 0.2377(19) 0.4380(17)
H9A H 0.151(3) 0.562(2) 0.360(2)
H9A_2 H 1.151(3) 0.562(2) 0.360(2)
H9_2 H 0.849(3) 0.438(2) 0.640(2)
H10A H 0.678(3) 0.443(2) 0.327(2)
H11A H 0.314(3) 0.686(2) 0.3988(19)
H12A H 1.139(2) 0.2331(19) 0.4175(17)
H13A H 0.718(2) 0.3353(19) 0.3838(17)
H14A H 0.213(3) 0.459(2) 0.408(2)
H14A_2 H 1.213(3) 0.459(2) 0.408(2)
H14_2 H 0.787(3) 0.541(2) 0.592(2)
O20 O 0.88331(10) 0.19876(8) 0.57144(9)
H15 H 0.852(3) 0.141(2) 0.5654(19)
H16 H 0.975(3) 0.170(2) 0.593(2)
O21 O 0.37853(12) 0.53164(7) 0.80923(6)
N4 N 0.37192(11) 0.44589(8) 0.96929(7)
N5 N 0.48146(12) 0.33743(8) 0.81963(7)
N6 N 0.37058(13) 0.35998(9) 1.13151(7)
C5 C 0.40672(12) 0.34935(9) 1.02982(8)
C6 C 0.47891(13) 0.23963(9) 0.98187(9)
C7 C 0.51358(13) 0.23797(9) 0.87705(10)
C8 C 0.40873(13) 0.44249(9) 0.86374(8)
H17 H 0.312(4) 0.524(3) 0.996(3)
H18 H 0.322(2) 0.4334(18) 1.1579(16)
H19 H 0.403(2) 0.295(2) 1.1734(18)
H20 H 0.500(3) 0.169(2) 1.0261(18)
H21 H 0.563(3) 0.163(2) 0.8364(19)
H22 H 0.526(3) 0.333(2) 0.746(2)
O22 O 0.78612(19) 0.41021(11) 0.79152(8)
N7 N 0.77238(11) 0.32957(8) 0.95377(7)
N8 N 0.8713(3) 0.21442(15) 0.80780(11)
N9 N 0.74908(13) 0.24691(8) 1.11635(8)
C9 C 0.85480(16) 0.12128(10) 0.97228(12)
C10 C 0.79098(11) 0.23412(9) 1.01562(8)
C11 C 0.8967(2) 0.11558(15) 0.86867(15)
C12 C 0.81011(19) 0.32239(13) 0.84903(9)
H23 H 0.708(3) 0.328(3) 1.139(2)
H24 H 0.759(4) 0.180(3) 1.154(3)
H25 H 0.865(3) 0.051(2) 1.022(2)
H26 H 0.939(3) 0.044(2) 0.838(2)
H27 H 0.903(4) 0.210(3) 0.742(3)
loop_
_geom_bond_atom_site_label_1
_geom_bond_atom_site_label_2
_geom_bond_site_symmetry_1
_geom_bond_site_symmetry_2
Na1 O15 1_555 1_555
Na2 O2 1_555 1_555
O1 V2 1_555 1_555
O2 V1 1_555 1_555
O3 V1 1_555 1_555
O4 V1 1_555 1_555
O5 V5 1_555 1_555
O6 V3 1_555 1_555
O7 V1 1_555 1_555
O8 V3 1_555 1_555
O9 V3 1_555 1_555
O10 V1 1_555 1_555
O11 V2 1_555 1_555
O12 V2 1_555 1_555
O13 V4 1_555 1_555
O14 V1 1_555 1_555
O15 H7 1_555 1_555
O16 Na2 1_555 1_555
O17 Na2 1_555 1_555
O18 Na1 1_555 1_555
O19 Na2 1_555 1_555
V2 O3 1_555 1_555
V3 O7 1_555 1_555
V4 O3 1_555 1_555
V5 O9 1_555 1_555
N1 C1 1_555 1_555
N2 C3 1_555 1_555
N3 C1 1_555 1_555
C1 C2 1_555 1_555
C2 C3 1_555 1_555
C3 H5 1_555 1_555
C4 O19 1_555 1_555
H1 N1 1_555 1_555
H2 N3 1_555 1_555
H3 N3 1_555 1_555
H4 C2 1_555 1_555
H6 N2 1_555 1_555
H8 O17 1_555 1_555
H9 O16 1_555 1_555
H10 O18 1_555 1_555
H11 O15 1_555 1_555
H12 O17 1_555 1_555
H13 O18 1_555 1_555
H14 O16 1_555 1_555
O20 H15 1_555 1_555
H16 O20 1_555 1_555
O21 C8 1_555 1_555
N4 C5 1_555 1_555
N5 C7 1_555 1_555
N6 C5 1_555 1_555
C5 C6 1_555 1_555
C6 C7 1_555 1_555
C7 H21 1_555 1_555
C8 N4 1_555 1_555
H17 N4 1_555 1_555
H18 N6 1_555 1_555
H19 N6 1_555 1_555
H20 C6 1_555 1_555
H22 N5 1_555 1_555
O22 C12 1_555 1_555
N7 C10 1_555 1_555
N8 C11 1_555 1_555
N9 C10 1_555 1_555
C9 C10 1_555 1_555
C11 C9 1_555 1_555
C12 N7 1_555 1_555
H23 N9 1_555 1_555
H24 N9 1_555 1_555
H25 C9 1_555 1_555
H26 C11 1_555 1_555
H27 N8 1_555 1_555
Na2A O2A 1_555 1_555
Na2A_2 O16 1_555 1_555
Na2_2 O16A_2 1_555 1_555
O1A V2A 1_555 1_555
O2A V1A 1_555 1_555
O3A V1A 1_555 1_555
O4A V1A 1_555 1_555
O4A_2 V4 1_555 1_555
O4_2 V2_2 1_555 1_555
O5A V5A 1_555 1_555
O6A V3A 1_555 1_555
O7A V1A 1_555 1_555
O8A V3A 1_555 1_555
O9A V3A 1_555 1_555
O10A V1A 1_555 1_555
O11A V5 1_555 1_555
O11A_2 V2A 1_555 1_555
O11_2 V2_2 1_555 1_555
O12A V3 1_555 1_555
O12A_2 V2A 1_555 1_555
O12_2 V2_2 1_555 1_555
O13A V5 1_555 1_555
O13A_2 V4A 1_555 1_555
O13_2 V4_2 1_555 1_555
O14A V1A 1_555 1_555
O14A_2 V2 1_555 1_555
O14_2 V2A 1_555 1_555
O15A Na1 1_555 1_555
O16A Na2 1_555 1_555
O16A_2 Na2A 1_555 1_555
O16_2 Na2A 1_555 1_555
O17A Na2A 1_555 1_555
O18A Na1 1_555 1_555
O19A Na2A 1_555 1_555
V2A O3A 1_555 1_555
V2A_2 O14 1_555 1_555
V2_2 O14A 1_555 1_555
V3A O7A 1_555 1_555
V3A_2 O12 1_555 1_555
V4A O3A 1_555 1_555
V4A_2 O4 1_555 1_555
V4_2 O4A 1_555 1_555
V5A O9A 1_555 1_555
V5A_2 O11 1_555 1_555
N1A C1A 1_555 1_555
N2A C3A 1_555 1_555
N3A C1A 1_555 1_555
C1A C2A 1_555 1_555
C2A C3A 1_555 1_555
C3A H5A 1_555 1_555
C4A O19A 1_555 1_555
H1A N1A 1_555 1_555
H2A N3A 1_555 1_555
H3A N3A 1_555 1_555
H4A C2A 1_555 1_555
H6A N2A 1_555 1_555
H7A O15A 1_555 1_555
H8A O17A 1_555 1_555
H9A O16A 1_555 1_555
H9A_2 O16A_2 1_555 1_555
H9_2 O16_2 1_555 1_555
H10A O18A 1_555 1_555
H11A O15A 1_555 1_555
H12A O17A 1_555 1_555
H13A O18A 1_555 1_555
H14A O16A 1_555 1_555
H14A_2 O16A_2 1_555 1_555
H14_2 O16_2 1_555 1_555
Na2 O18 1_555 1_555
O4 V2 1_555 1_555
O8 V4 1_555 1_555
O10 V5 1_555 1_555
O13 V5A_2 1_555 1_555
O14 V3 1_555 1_555
O14 V4 1_555 1_555
O14 V5 1_555 1_555
O14 V4A_2 1_555 1_555
V4 O14A_2 1_555 1_555
N1 C4 1_555 1_555
N2 C4 1_555 1_555
N5 C8 1_555 1_555
N8 C12 1_555 1_555
Na2A O18A 1_555 1_555
Na2A_2 O16A 1_555 1_555
Na2_2 O16_2 1_555 1_555
O4A V2A 1_555 1_555
O4A_2 V2A_2 1_555 1_555
O4_2 V4A 1_555 1_555
O8A V4A 1_555 1_555
O10A V5A 1_555 1_555
O11A V2A_2 1_555 1_555
O11_2 V5A 1_555 1_555
O12A V2A_2 1_555 1_555
O12_2 V3A 1_555 1_555
O13A V4A_2 1_555 1_555
O13_2 V5A 1_555 1_555
O14A V3A 1_555 1_555
O14A V4A 1_555 1_555
O14A V4_2 1_555 1_555
O14A V5A 1_555 1_555
O14A_2 V3A_2 1_555 1_555
O14A_2 V4A_2 1_555 1_555
O14A_2 V5A_2 1_555 1_555
O14_2 V4A 1_555 1_555
O14_2 V4_2 1_555 1_555
N1A C4A 1_555 1_555
N2A C4A 1_555 1_555

#END
