
#######################################################################
#
#                 Cambridge Crystallographic Data Centre
#                                CCDC 
#
#######################################################################
#
# If this CIF has been generated from an entry in the Cambridge 
# Structural Database, then it will include bibliographic, chemical, 
# crystal, experimental, refinement or atomic coordinate data resulting 
# from the CCDC's data processing and validation procedures.
#
#######################################################################

data_BUPQEJ
_symmetry_cell_setting           triclinic
_symmetry_space_group_name_H-M   'P -1'
_symmetry_Int_Tables_number      2
_space_group_name_Hall           '-P 1'
loop_
_symmetry_equiv_pos_site_id
_symmetry_equiv_pos_as_xyz
1 x,y,z
2 -x,-y,-z
_cell_length_a                   7.4591(3)
_cell_length_b                   8.8059(3)
_cell_length_c                   14.8734(7)
_cell_angle_alpha                102.324(2)
_cell_angle_beta                 97.866(2)
_cell_angle_gamma                106.453(2)
_cell_volume                     894.825
loop_
_atom_site_label
_atom_site_type_symbol
_atom_site_fract_x
_atom_site_fract_y
_atom_site_fract_z
Mo1 Mo 0.83545(2) 0.358793(17) 0.681194(9)
N1 N 1.0761(2) 0.41860(17) 0.60252(10)
O1 O 0.78823(18) 0.14099(15) 0.60120(8)
O2 O 1.0095(2) 0.57638(16) 0.75630(9)
O3 O 0.6920(2) 0.42001(18) 0.60762(10)
O4 O 0.7136(2) 0.31752(18) 0.76702(9)
S1 S 0.87441(6) -0.15007(5) 0.22128(3)
O5 O 0.6947(2) -0.19177(17) 0.15433(9)
O6 O 1.0356(2) -0.03811(17) 0.19979(10)
O7 O 0.91003(19) -0.30292(16) 0.23316(9)
C1 C 1.0781(2) 0.3352(2) 0.52003(11)
H1 H 1.1764 0.3813 0.4899
C2 C 0.9406(2) 0.1764(2) 0.47066(11)
C3 C 0.8029(2) 0.0859(2) 0.51212(11)
C4 C 0.6815(2) -0.0712(2) 0.46111(11)
H2 H 0.5850 -0.1303 0.4879
C5 C 0.7014(2) -0.1407(2) 0.37191(11)
H3 H 0.6195 -0.2476 0.3378
C6 C 0.8420(2) -0.0537(2) 0.33201(11)
C7 C 0.9585(2) 0.1032(2) 0.37997(11)
H4 H 1.0516 0.1624 0.3515
C8 C 1.2191(2) 0.5694(2) 0.65078(11)
C9 C 1.1746(3) 0.6495(2) 0.73241(12)
C10 C 1.2983(3) 0.8016(2) 0.78747(13)
H5 H 1.2684 0.8560 0.8430
C11 C 1.4655(3) 0.8724(2) 0.76005(14)
H6 H 1.5494 0.9770 0.7965
C12 C 1.5124(3) 0.7921(3) 0.67963(15)
H7 H 1.6282 0.8419 0.6621
C13 C 1.3903(3) 0.6395(2) 0.62500(13)
H8 H 1.4230 0.5837 0.5708
Na1 Na 0.62057(12) 0.39355(10) 0.91681(6)
O8 O 0.8633(2) 0.6517(2) 0.92068(11)
H9 H 0.9005 0.6486 0.8707
H10 H 0.8152 0.7257 0.9318
O10 O 0.5979(2) 0.44068(18) 1.07994(10)
H13 H 0.5486 0.3464 1.0831
H14 H 0.6875 0.4963 1.1237
O11 O 0.7958(2) 0.2043(2) 0.94422(10)
H15 H 0.8274 0.1750 0.8945
H16 H 0.8890 0.2521 0.9878
Mo1A Mo 1.16455(2) -0.358793(17) 0.318806(9)
O5A O 0.3053(2) 0.19177(17) 0.84567(9)
O7A O 1.08997(19) 0.30292(16) 0.76684(9)
Na1A Na 0.37943(12) -0.39355(10) 0.08319(6)
Na1A_2 Na 0.37943(12) 0.60645(10) 1.08319(6)
O10A O 0.4021(2) 0.55932(18) 0.92006(10)
H13A H 0.4514 0.6536 0.9169
H14A H 0.3125 0.5037 0.8763
O9 O 0.6795(3) 0.8797(2) 0.97524(11)
H11 H 0.7081 0.8820 1.0310
H12 H 0.7087 0.9738 0.9674
loop_
_geom_bond_atom_site_label_1
_geom_bond_atom_site_label_2
_geom_bond_site_symmetry_1
_geom_bond_site_symmetry_2
Mo1 N1 1_555 1_555
N1 C1 1_555 1_555
O1 Mo1 1_555 1_555
O2 Mo1 1_555 1_555
O3 Mo1 1_555 1_555
O4 Mo1 1_555 1_555
S1 O5 1_555 1_555
O5 Na1A 1_555 1_555
O6 S1 1_555 1_555
O7 S1 1_555 1_555
C1 H1 1_555 1_555
C2 C1 1_555 1_555
C3 O1 1_555 1_555
C4 C3 1_555 1_555
H2 C4 1_555 1_555
C5 C4 1_555 1_555
H3 C5 1_555 1_555
C6 S1 1_555 1_555
C7 C2 1_555 1_555
H4 C7 1_555 1_555
C8 N1 1_555 1_555
C9 O2 1_555 1_555
C10 C9 1_555 1_555
H5 C10 1_555 1_555
C11 C10 1_555 1_555
H6 C11 1_555 1_555
C12 C11 1_555 1_555
H7 C12 1_555 1_555
C13 C8 1_555 1_555
H8 C13 1_555 1_555
Na1 O4 1_555 1_555
O8 Na1 1_555 1_555
H9 O8 1_555 1_555
H10 O8 1_555 1_555
O9 H11 1_555 1_555
H12 O9 1_555 1_555
O10 Na1 1_555 1_555
H13 O10 1_555 1_555
H14 O10 1_555 1_555
O11 Na1 1_555 1_555
H15 O11 1_555 1_555
H16 O11 1_555 1_555
Mo1A O7 1_555 1_555
O5A Na1 1_555 1_555
O7A Mo1 1_555 1_555
Na1A_2 O10 1_555 1_555
O10A Na1 1_555 1_555
H13A O10A 1_555 1_555
H14A O10A 1_555 1_555
C2 C3 1_555 1_555
C5 C6 1_555 1_555
C6 C7 1_555 1_555
C8 C9 1_555 1_555
C12 C13 1_555 1_555
Na1A_2 O10A 1_555 1_555

#END
