
#######################################################################
#
#                 Cambridge Crystallographic Data Centre
#                                CCDC 
#
#######################################################################
#
# If this CIF has been generated from an entry in the Cambridge 
# Structural Database, then it will include bibliographic, chemical, 
# crystal, experimental, refinement or atomic coordinate data resulting 
# from the CCDC's data processing and validation procedures.
#
#######################################################################

data_BUPVUF
_symmetry_cell_setting           monoclinic
_symmetry_space_group_name_H-M   'P 21/n'
_symmetry_Int_Tables_number      14
_space_group_name_Hall           '-P 2yn'
loop_
_symmetry_equiv_pos_site_id
_symmetry_equiv_pos_as_xyz
1 x,y,z
2 1/2-x,1/2+y,1/2-z
3 -x,-y,-z
4 1/2+x,1/2-y,1/2+z
_cell_length_a                   12.5412(4)
_cell_length_b                   12.1285(3)
_cell_length_c                   21.8264(6)
_cell_angle_alpha                90
_cell_angle_beta                 94.959(1)
_cell_angle_gamma                90
_cell_volume                     3307.5
loop_
_atom_site_label
_atom_site_type_symbol
_atom_site_fract_x
_atom_site_fract_y
_atom_site_fract_z
Cu1 Cu 0.62162(3) 0.52168(3) 0.52491(2)
Cu2 Cu 0.38320(3) 0.05699(3) 0.44455(2)
O1 O 0.39662(17) 0.84745(17) 0.40602(10)
O2 O 0.59772(17) 0.33329(17) 0.46152(9)
N1 N 0.77957(19) 0.5841(2) 0.44013(11)
N2 N 0.45206(18) 0.61568(19) 0.37241(10)
N3 N 0.36592(19) 0.4708(2) 0.34223(11)
N4 N 0.63018(18) 0.66203(19) 0.41369(10)
N5 N 0.81706(19) -0.0807(2) 0.49579(11)
N6 N 0.58448(18) 0.12879(19) 0.39291(10)
N7 N 0.45861(19) 0.0908(2) 0.32394(11)
N8 N 0.72905(18) 0.06086(19) 0.46237(11)
C1 C 0.6780(2) 0.5931(2) 0.45622(12)
C2 C 0.7943(2) 0.6451(3) 0.38813(14)
C3 C 0.7006(2) 0.6938(3) 0.37081(14)
C4 C 0.5169(2) 0.6913(2) 0.41217(13)
C5 C 0.4042(2) 0.5243(2) 0.39370(13)
C6 C 0.3895(2) 0.5269(3) 0.28991(13)
C7 C 0.4437(2) 0.6177(2) 0.30858(13)
C8 C 0.8640(2) 0.5198(3) 0.47385(15)
C9 C 0.3090(3) 0.3653(3) 0.34159(16)
C10 C 0.4995(2) 0.8115(2) 0.39344(14)
C11 C 0.7236(2) -0.0271(2) 0.50077(13)
C12 C 0.8793(2) -0.0278(3) 0.45556(14)
C13 C 0.8246(2) 0.0614(3) 0.43452(14)
C14 C 0.6435(2) 0.1425(2) 0.45303(12)
C15 C 0.4808(2) 0.0950(2) 0.38576(13)
C16 C 0.5459(2) 0.1213(3) 0.29334(14)
C17 C 0.6254(2) 0.1457(3) 0.33652(13)
C18 C 0.8518(3) -0.1780(3) 0.53159(16)
C19 C 0.3543(3) 0.0591(3) 0.29358(15)
C20 C 0.6858(2) 0.2596(2) 0.46328(13)
H1 H 0.35010 0.81120 0.38460
H2 H 0.85860 0.65130 0.36840
H3 H 0.68530 0.74070 0.33630
H4 H 0.49470 0.68290 0.45480
H5 H 0.58770 0.36120 0.42630
H6 H 0.37080 0.50510 0.24860
H7 H 0.47100 0.67260 0.28320
H8 H 0.88960 0.46290 0.44680
H9 H 0.83550 0.48470 0.50940
H10 H 0.92340 0.56860 0.48790
H11 H 0.31160 0.33030 0.30130
H12 H 0.23430 0.37800 0.34960
H13 H 0.34320 0.31700 0.37350
H14 H 0.55430 0.85810 0.41620
H15 H 0.50760 0.81960 0.34900
H16 H 0.94780 -0.05030 0.44490
H17 H 0.84670 0.11450 0.40620
H18 H 0.59220 0.12830 0.48470
H19 H 0.54920 0.12440 0.25000
H20 H 0.69550 0.16980 0.32980
H21 H 0.78990 -0.22540 0.53680
H22 H 0.88420 -0.15500 0.57200
H23 H 0.90450 -0.21890 0.50990
H24 H 0.36350 -0.00280 0.26570
H25 H 0.32310 0.12180 0.27010
H26 H 0.30660 0.03710 0.32470
H27 H 0.72810 0.26460 0.50360
H28 H 0.73290 0.27920 0.43080
Cu1B Cu 0.37838(3) 0.47832(3) 0.47509(2)
Cu2_2 Cu 0.38320(3) 1.05699(3) 0.44455(2)
Cu2B Cu 0.61680(3) -0.05699(3) 0.55545(2)
O1_2 O 0.39662(17) -0.15255(17) 0.40602(10)
C5B C 0.5958(2) 0.4757(2) 0.60630(13)
C11B C 0.2764(2) 0.0271(2) 0.49923(13)
P1 P -0.04333(6) 0.32450(6) 0.32314(3)
F1 F 0.00257(19) 0.20162(17) 0.32626(9)
F2 F -0.09140(19) 0.44541(17) 0.31927(10)
F3 F -0.1277(3) 0.2959(2) 0.37014(14)
F4 F -0.1269(2) 0.2868(3) 0.26637(15)
F5 F 0.0401(3) 0.3517(3) 0.27343(13)
F6 F 0.0413(3) 0.3590(3) 0.37794(15)
P2 P 0.10037(18) 0.7750(3) 0.36429(14)
F11 F 0.0516(3) 0.6566(3) 0.3489(2)
F12 F 0.1485(4) 0.8927(4) 0.3791(3)
F13 F 0.0739(4) 0.7620(5) 0.43321(15)
F14 F -0.0134(4) 0.8292(6) 0.3477(3)
F15 F 0.1245(4) 0.7886(4) 0.29478(19)
F16 F 0.2144(2) 0.7200(3) 0.3796(2)
N9 N 0.6218(2) 0.4124(2) 0.34354(13)
C21 C 0.6446(2) 0.4429(3) 0.29725(15)
C22 C 0.6738(3) 0.4814(3) 0.23770(16)
H29 H 0.64990 0.55780 0.23130
H30 H 0.63940 0.43460 0.20510
H31 H 0.75160 0.47770 0.23670
F7? F -0.1534(9) 0.2678(10) 0.2965(6)
F8? F -0.0240(11) 0.3467(10) 0.2563(5)
F9? F 0.0562(12) 0.3826(13) 0.3553(6)
F10? F -0.0739(10) 0.2969(10) 0.3940(5)
P3? P 0.1009(8) 0.7968(10) 0.3531(5)
F17? F 0.0839(17) 0.6674(11) 0.3477(10)
F18? F 0.1194(18) 0.9244(11) 0.3588(8)
F19? F 0.1413(15) 0.7851(15) 0.4227(5)
F20? F -0.0182(9) 0.8128(16) 0.3699(9)
F21? F 0.0607(14) 0.8094(12) 0.2829(5)
F22? F 0.2164(8) 0.7774(16) 0.3314(7)
loop_
_geom_bond_atom_site_label_1
_geom_bond_atom_site_label_2
_geom_bond_site_symmetry_1
_geom_bond_site_symmetry_2
Cu1 O2 1_555 1_555
Cu2 C15 1_555 1_555
O1 C10 1_555 1_555
O2 C20 1_555 1_555
N1 C1 1_555 1_555
N2 C4 1_555 1_555
N3 C5 1_555 1_555
N4 C1 1_555 1_555
N5 C11 1_555 1_555
N6 C14 1_555 1_555
N7 C15 1_555 1_555
N8 C11 1_555 1_555
C1 Cu1 1_555 1_555
C2 N1 1_555 1_555
C3 N4 1_555 1_555
C4 N4 1_555 1_555
C5 N2 1_555 1_555
C6 N3 1_555 1_555
C7 N2 1_555 1_555
C8 N1 1_555 1_555
C9 N3 1_555 1_555
C10 C4 1_555 1_555
C11 Cu2B 1_555 1_555
C12 N5 1_555 1_555
C13 N8 1_555 1_555
C14 N8 1_555 1_555
C15 N6 1_555 1_555
C16 N7 1_555 1_555
C17 N6 1_555 1_555
C18 N5 1_555 1_555
C19 N7 1_555 1_555
C20 C14 1_555 1_555
H1 O1 1_555 1_555
H2 C2 1_555 1_555
H3 C3 1_555 1_555
H4 C4 1_555 1_555
H5 O2 1_555 1_555
H6 C6 1_555 1_555
H7 C7 1_555 1_555
H8 C8 1_555 1_555
H9 C8 1_555 1_555
H10 C8 1_555 1_555
H11 C9 1_555 1_555
H12 C9 1_555 1_555
H13 C9 1_555 1_555
H14 C10 1_555 1_555
H15 C10 1_555 1_555
H16 C12 1_555 1_555
H17 C13 1_555 1_555
H18 C14 1_555 1_555
H19 C16 1_555 1_555
H20 C17 1_555 1_555
H21 C18 1_555 1_555
H22 C18 1_555 1_555
H23 C18 1_555 1_555
H24 C19 1_555 1_555
H25 C19 1_555 1_555
H26 C19 1_555 1_555
H27 C20 1_555 1_555
H28 C20 1_555 1_555
P1 F1 1_555 1_555
F2 P1 1_555 1_555
F3 P1 1_555 1_555
F4 P1 1_555 1_555
F5 P1 1_555 1_555
F6 P1 1_555 1_555
P2 F11 1_555 1_555
F12 P2 1_555 1_555
F13 P2 1_555 1_555
F14 P2 1_555 1_555
F15 P2 1_555 1_555
F16 P2 1_555 1_555
N9 C21 1_555 1_555
C21 C22 1_555 1_555
C22 H29 1_555 1_555
H30 C22 1_555 1_555
H31 C22 1_555 1_555
Cu1B C5 1_555 1_555
Cu2_2 O1 1_555 1_555
O1_2 Cu2 1_555 1_555
C5B Cu1 1_555 1_555
C11B Cu2 1_555 1_555
C2 C3 1_555 1_555
C6 C7 1_555 1_555
C12 C13 1_555 1_555
C16 C17 1_555 1_555

#END
