
#######################################################################
#
#                 Cambridge Crystallographic Data Centre
#                                CCDC 
#
#######################################################################
#
# If this CIF has been generated from an entry in the Cambridge 
# Structural Database, then it will include bibliographic, chemical, 
# crystal, experimental, refinement or atomic coordinate data resulting 
# from the CCDC's data processing and validation procedures.
#
#######################################################################

data_BUPXOA
_symmetry_cell_setting           monoclinic
_symmetry_space_group_name_H-M   'P 21/n'
_symmetry_Int_Tables_number      14
_space_group_name_Hall           '-P 2yn'
loop_
_symmetry_equiv_pos_site_id
_symmetry_equiv_pos_as_xyz
1 x,y,z
2 1/2-x,1/2+y,1/2-z
3 -x,-y,-z
4 1/2+x,1/2-y,1/2+z
_cell_length_a                   10.106(4)
_cell_length_b                   12.278(5)
_cell_length_c                   17.285(7)
_cell_angle_alpha                90
_cell_angle_beta                 92.851(9)
_cell_angle_gamma                90
_cell_volume                     2142.09
loop_
_atom_site_label
_atom_site_type_symbol
_atom_site_fract_x
_atom_site_fract_y
_atom_site_fract_z
Ag1 Ag 0.15052(8) 0.42085(6) 0.03193(4)
Cr1 Cr 0.29193(12) 0.36108(10) 0.34955(7)
C1 C 0.1527(8) 0.4076(7) 0.2156(4)
C2 C 0.2602(8) 0.3283(7) 0.1940(5)
C3 C 0.1245(8) 0.6789(6) 0.0705(4)
C4 C 0.2686(7) 0.6556(6) 0.1004(4)
C5 C 0.5053(8) 0.5095(7) 0.2907(4)
H1 H 0.5078 0.4610 0.2495
C6 C 0.5894(9) 0.5962(7) 0.2926(5)
H2 H 0.6473 0.6059 0.2530
C7 C 0.5891(7) 0.6697(6) 0.3529(4)
C8 C 0.4987(7) 0.6532(6) 0.4087(4)
H3 H 0.4932 0.7025 0.4492
C9 C 0.4155(7) 0.5626(6) 0.4046(4)
C10 C 0.3173(7) 0.5369(6) 0.4630(4)
C11 C 0.1566(7) 0.4147(6) 0.4974(4)
H4 H 0.1065 0.3526 0.4865
C12 C 0.1350(8) 0.4711(7) 0.5631(5)
H5 H 0.0726 0.4461 0.5967
C13 C 0.2053(8) 0.5654(6) 0.5805(4)
C14 C 0.2973(8) 0.5977(6) 0.5280(4)
H6 H 0.3458 0.6612 0.5370
C15 C 0.6815(8) 0.7665(7) 0.3571(5)
H7 H 0.6317 0.8320 0.3469
H8 H 0.7472 0.7585 0.3193
H9 H 0.7242 0.7705 0.4079
C16 C 0.1814(10) 0.6284(8) 0.6513(5)
H10 H 0.1143 0.6822 0.6399
H11 H 0.2619 0.6637 0.6692
H12 H 0.1524 0.5801 0.6907
N1 N 0.4190(6) 0.4909(5) 0.3456(3)
N2 N 0.2468(6) 0.4449(5) 0.4478(3)
O1 O 0.1560(5) 0.4351(4) 0.2862(3)
O2 O 0.3407(5) 0.3013(4) 0.2495(3)
O3 O 0.0707(6) 0.4404(5) 0.1674(3)
O4 O 0.2688(6) 0.2965(5) 0.1266(3)
O5 O 0.0797(5) 0.7698(4) 0.0914(3)
O6 O 0.3249(5) 0.7364(4) 0.1334(3)
O7 O 0.0646(6) 0.6123(5) 0.0290(3)
O8 O 0.3178(6) 0.5657(5) 0.0913(4)
O9 O 0.2450(8) 0.3841(6) -0.0855(4)
Ag1B Ag -0.15052(8) 0.57915(6) -0.03193(4)
Cr1A Cr 0.20807(12) 0.86108(10) 0.15045(7)
O5A O 0.4203(5) 0.2698(4) 0.4086(3)
O6A O 0.1751(5) 0.2364(4) 0.3666(3)
O7B O -0.0646(6) 0.3877(5) -0.0290(3)
O10 O 0.5323(7) 0.7131(6) -0.0227(5)
O11 O 0.5636(7) 0.4712(7) 0.1080(4)
O12 O -0.0717(8) 0.6284(6) 0.2254(5)
loop_
_geom_bond_atom_site_label_1
_geom_bond_atom_site_label_2
_geom_bond_site_symmetry_1
_geom_bond_site_symmetry_2
Ag1 O3 1_555 1_555
Cr1 N1 1_555 1_555
C1 C2 1_555 1_555
C2 O2 1_555 1_555
C3 C4 1_555 1_555
C4 O6 1_555 1_555
C5 H1 1_555 1_555
C6 C5 1_555 1_555
H2 C6 1_555 1_555
C7 C6 1_555 1_555
C8 C7 1_555 1_555
H3 C8 1_555 1_555
C9 C8 1_555 1_555
C10 C9 1_555 1_555
C11 H4 1_555 1_555
C12 C11 1_555 1_555
H5 C12 1_555 1_555
C13 C12 1_555 1_555
C14 C10 1_555 1_555
H6 C14 1_555 1_555
C15 C7 1_555 1_555
H7 C15 1_555 1_555
H8 C15 1_555 1_555
H9 C15 1_555 1_555
C16 C13 1_555 1_555
H10 C16 1_555 1_555
H11 C16 1_555 1_555
H12 C16 1_555 1_555
N1 C5 1_555 1_555
N2 Cr1 1_555 1_555
O1 Cr1 1_555 1_555
O2 Cr1 1_555 1_555
O3 C1 1_555 1_555
O4 Ag1 1_555 1_555
O5 C3 1_555 1_555
O6 Cr1A 1_555 1_555
O7 Ag1 1_555 1_555
O8 Ag1 1_555 1_555
O9 Ag1 1_555 1_555
Ag1B O7 1_555 1_555
Cr1A O5 1_555 1_555
O5A Cr1 1_555 1_555
O6A Cr1 1_555 1_555
O7B Ag1 1_555 1_555
C1 O1 1_555 1_555
C2 O4 1_555 1_555
C3 O7 1_555 1_555
C4 O8 1_555 1_555
C9 N1 1_555 1_555
C10 N2 1_555 1_555
C11 N2 1_555 1_555
C13 C14 1_555 1_555
Ag1B O7B 1_555 1_555

#END
