
#######################################################################
#
#                 Cambridge Crystallographic Data Centre
#                                CCDC 
#
#######################################################################
#
# If this CIF has been generated from an entry in the Cambridge 
# Structural Database, then it will include bibliographic, chemical, 
# crystal, experimental, refinement or atomic coordinate data resulting 
# from the CCDC's data processing and validation procedures.
#
#######################################################################

data_BUQKUV
_symmetry_cell_setting           rhombohedral
_symmetry_space_group_name_H-M   'R -3 c'
_symmetry_Int_Tables_number      167
_space_group_name_Hall           '-R 3 2"c'
loop_
_symmetry_equiv_pos_site_id
_symmetry_equiv_pos_as_xyz
1 x,y,z
2 -y,x-y,z
3 -x+y,-x,z
4 y,x,1/2-z
5 x-y,-y,1/2-z
6 -x,-x+y,1/2-z
7 2/3+x,1/3+y,1/3+z
8 2/3-y,1/3+x-y,1/3+z
9 2/3-x+y,1/3-x,1/3+z
10 2/3+y,1/3+x,5/6-z
11 2/3+x-y,1/3-y,5/6-z
12 2/3-x,1/3-x+y,5/6-z
13 1/3+x,2/3+y,2/3+z
14 1/3-y,2/3+x-y,2/3+z
15 1/3-x+y,2/3-x,2/3+z
16 1/3+y,2/3+x,1/6-z
17 1/3+x-y,2/3-y,1/6-z
18 1/3-x,2/3-x+y,1/6-z
19 -x,-y,-z
20 y,-x+y,-z
21 x-y,x,-z
22 -y,-x,1/2+z
23 -x+y,y,1/2+z
24 x,x-y,1/2+z
25 1/3-x,2/3-y,2/3-z
26 1/3+y,2/3-x+y,2/3-z
27 1/3+x-y,2/3+x,2/3-z
28 1/3-y,2/3-x,1/6+z
29 1/3-x+y,2/3+y,1/6+z
30 1/3+x,2/3+x-y,1/6+z
31 2/3-x,1/3-y,1/3-z
32 2/3+y,1/3-x+y,1/3-z
33 2/3+x-y,1/3+x,1/3-z
34 2/3-y,1/3-x,5/6+z
35 2/3-x+y,1/3+y,5/6+z
36 2/3+x,1/3+x-y,5/6+z
_cell_length_a                   19.5294(11)
_cell_length_b                   19.5294(11)
_cell_length_c                   42.058(2)
_cell_angle_alpha                90
_cell_angle_beta                 90
_cell_angle_gamma                120
_cell_volume                     13891.8
loop_
_atom_site_label
_atom_site_type_symbol
_atom_site_fract_x
_atom_site_fract_y
_atom_site_fract_z
Ni1 Ni 0.15229(3) 0.81896(3) 0.0833
O1 O 0.21151(14) 0.75912(14) 0.07416(7)
O2 O 0.33594(17) 0.85480(16) 0.07343(12)
O3 O 0.2581(2) 0.9248(2) 0.0833
H1 H 0.2526 0.9627 0.0753
N1 N 0.1377(2) 0.8307(2) 0.03414(10)
N2 N 0.0440(2) 0.7107(2) 0.0833
C1 C 0.2840(2) 0.7840(2) 0.07420(10)
C2 C 0.30972(19) 0.72317(19) 0.07395(9)
C3 C 0.38924(19) 0.74639(19) 0.07387(9)
H2 H 0.4269 0.7999 0.0738
C4 C 0.0726(3) 0.8261(3) 0.02240(13)
H3 H 0.0327 0.8188 0.0364
C5 C 0.0613(4) 0.8315(4) -0.00964(16)
H4 H 0.0141 0.8268 -0.0169
C6 C 0.1181(5) 0.8435(4) -0.03007(16)
H5 H 0.1110 0.8463 -0.0518
C7 C 0.1877(5) 0.8518(5) -0.0184(2)
H6 H 0.2292 0.8624 -0.0321
C8 C 0.1952(4) 0.8443(4) 0.01337(16)
H7 H 0.2419 0.8487 0.0210
C9 C 0.0344(3) 0.6490(2) 0.06655(11)
H8 H 0.0766 0.6544 0.0544
C10 C -0.0349(3) 0.5776(3) 0.06618(15)
H9 H -0.0390 0.5355 0.0544
C11 C -0.0967(4) 0.5699(4) 0.0833
H10 H -0.1443 0.5223 0.0833
O1A O 0.24088(14) 0.45239(20) 0.07416(7)
O2A O 0.14520(16) 0.48114(23) 0.07343(12)
C1A C 0.2160(2) 0.5000(3) 0.07420(10)
C2A C 0.27683(19) 0.58655(27) 0.07395(9)
C3A C 0.25361(19) 0.64285(27) 0.07387(9)
H2A H 0.2001 0.6270 0.0738
O1B O 0.54761(20) 0.78849(14) 0.07416(7)
O2B O 0.51886(23) 0.66406(17) 0.07343(12)
C1B C 0.5000(3) 0.7160(2) 0.07420(10)
C2B C 0.41345(27) 0.69028(19) 0.07395(9)
C3B C 0.35715(27) 0.61076(19) 0.07387(9)
H2B H 0.3730 0.5731 0.0738
H1O H 0.2960 0.9193 0.0914
C9O C -0.0177(2) 0.7011(3) 0.10012(11)
H8O H -0.0123 0.7433 0.1123
C10O C -0.0891(3) 0.6318(3) 0.10049(15)
H9O H -0.1312 0.6277 0.1123
O1O O 0.09245(14) 0.87818(14) 0.09251(7)
O2O O 0.18813(16) 1.00261(17) 0.09324(12)
N1O N 0.1640(2) 0.8044(2) 0.13253(10)
C1O C 0.1173(2) 0.9507(2) 0.09247(10)
C2O C 0.05650(19) 0.97639(19) 0.09272(9)
C3O C 0.07972(19) 1.05591(19) 0.09280(9)
H2O H 0.1332 1.0936 0.0929
C4O C 0.1594(3) 0.7393(3) 0.14427(13)
H3O H 0.1521 0.6994 0.1303
C5O C 0.1648(4) 0.7280(4) 0.17631(16)
H4O H 0.1601 0.6808 0.1836
C6O C 0.1768(4) 0.7848(5) 0.19674(16)
H5O H 0.1796 0.7777 0.2185
C7O C 0.1851(5) 0.8544(5) 0.1851(2)
H6O H 0.1957 0.8959 0.1988
C8O C 0.1776(4) 0.8619(4) 0.15330(16)
H7O H 0.1820 0.9086 0.1457
O1P O -0.21428(20) 0.90755(14) 0.09251(7)
O2P O -0.18553(23) 0.81187(16) 0.09324(12)
C1P C -0.1667(3) 0.8827(2) 0.09247(10)
C2P C -0.08012(27) 0.94350(19) 0.09272(9)
C3P C -0.02382(27) 0.92028(19) 0.09280(9)
H2P H -0.0397 0.8668 0.0929
O1Q O 0.12182(14) 1.21428(20) 0.09251(7)
O2Q O -0.00261(17) 1.18553(23) 0.09324(12)
C1Q C 0.0493(2) 1.1667(3) 0.09247(10)
C2Q C 0.02361(19) 1.08012(27) 0.09272(9)
C3Q C -0.05591(19) 1.02382(27) 0.09280(9)
H2Q H -0.0936 1.0397 0.0929
Ni1A Ni 0.18104(3) 0.33333(4) 0.0833
O3A O 0.0752(2) 0.3333(3) 0.0833
H1Q H 0.0807 0.3768 0.0914
N2A N 0.2893(2) 0.3333(3) 0.0833
C9Q C 0.2989(3) 0.2813(4) 0.10012(11)
H8Q H 0.2567 0.2445 0.1123
C10Q C 0.3682(3) 0.2792(4) 0.10049(15)
H9Q H 0.3723 0.2412 0.1123
C11A C 0.4301(4) 0.3334(6) 0.0833
H10A H 0.4777 0.3334 0.0833
H1A H 0.0373 0.2899 0.0753
C9A C 0.3510(2) 0.3854(4) 0.06655(11)
H8A H 0.3456 0.4222 0.0544
C10A C 0.4224(3) 0.3875(4) 0.06618(15)
H9A H 0.4645 0.4255 0.0544
Ni1B Ni 0.66667(4) 0.84771(3) 0.0833
O3B O 0.6667(3) 0.7419(2) 0.0833
H1P H 0.6232 0.7040 0.0914
N2B N 0.6667(3) 0.9560(2) 0.0833
C9P C 0.7187(4) 1.0177(2) 0.10012(11)
H8P H 0.7555 1.0123 0.1123
C10P C 0.7208(4) 1.0891(3) 0.10049(15)
H9P H 0.7588 1.1312 0.1123
C11B C 0.6666(6) 1.0967(4) 0.0833
H10B H 0.6666 1.1443 0.0833
H1B H 0.7101 0.7474 0.0753
C9B C 0.6146(4) 0.9656(3) 0.06655(11)
H8B H 0.5778 0.9234 0.0544
C10B C 0.6125(4) 1.0349(3) 0.06618(15)
H9B H 0.5745 1.0390 0.0544
N1A N 0.1693(2) 0.3070(3) 0.03414(10)
C4A C 0.1739(3) 0.2465(4) 0.02240(13)
H3A H 0.1812 0.2139 0.0364
C5A C 0.1685(4) 0.2298(6) -0.00964(16)
H4A H 0.1732 0.1873 -0.0169
C6A C 0.1565(4) 0.2746(6) -0.03007(16)
H5A H 0.1537 0.2647 -0.0518
C7A C 0.1482(5) 0.3359(7) -0.0184(2)
H6A H 0.1376 0.3668 -0.0321
C8A C 0.1557(4) 0.3509(6) 0.01337(16)
H7A H 0.1513 0.3932 0.0210
N1Q N 0.1956(2) 0.3597(3) 0.13253(10)
C4Q C 0.2607(3) 0.4202(4) 0.14427(13)
H3Q H 0.3006 0.4528 0.1303
C5Q C 0.2720(4) 0.4369(6) 0.17631(16)
H4Q H 0.3192 0.4794 0.1836
C6Q C 0.2152(5) 0.3921(6) 0.19674(16)
H5Q H 0.2223 0.4020 0.2185
C7Q C 0.1456(5) 0.3308(7) 0.1851(2)
H6Q H 0.1041 0.2999 0.1988
C8Q C 0.1381(4) 0.3158(6) 0.15330(16)
H7Q H 0.0914 0.2735 0.1457
N1B N 0.6930(3) 0.8623(2) 0.03414(10)
C4B C 0.7535(4) 0.9274(3) 0.02240(13)
H3B H 0.7861 0.9673 0.0364
C5B C 0.7702(6) 0.9387(4) -0.00964(16)
H4B H 0.8127 0.9859 -0.0169
C6B C 0.7254(6) 0.8819(5) -0.03007(16)
H5B H 0.7353 0.8890 -0.0518
C7B C 0.6641(7) 0.8123(5) -0.0184(2)
H6B H 0.6332 0.7708 -0.0321
C8B C 0.6491(6) 0.8048(4) 0.01337(16)
H7B H 0.6068 0.7581 0.0210
N1P N 0.6403(3) 0.8360(2) 0.13253(10)
C4P C 0.5798(4) 0.8406(3) 0.14427(13)
H3P H 0.5472 0.8479 0.1303
C5P C 0.5631(6) 0.8352(4) 0.17631(16)
H4P H 0.5206 0.8399 0.1836
C6P C 0.6079(6) 0.8232(4) 0.19674(16)
H5P H 0.5980 0.8204 0.2185
C7P C 0.6692(7) 0.8149(5) 0.1851(2)
H6P H 0.7001 0.8043 0.1988
C8P C 0.6842(6) 0.8224(4) 0.15330(16)
H7P H 0.7265 0.8180 0.1457
Ni1A_2 Ni 0.18104(3) 1.33333(4) 0.0833
Ni1B_2 Ni -0.33333(4) 0.84771(3) 0.0833
O1P_2 O 0.78572(20) 0.90755(14) 0.09251(7)
O1Q_2 O 0.12182(14) 0.21428(20) 0.09251(7)
loop_
_geom_bond_atom_site_label_1
_geom_bond_atom_site_label_2
_geom_bond_site_symmetry_1
_geom_bond_site_symmetry_2
Ni1 O1 1_555 1_555
O1 C1 1_555 1_555
O2 C1 1_555 1_555
O3 Ni1 1_555 1_555
H1 O3 1_555 1_555
N1 Ni1 1_555 1_555
N2 Ni1 1_555 1_555
C1 C2 1_555 1_555
C2 C3 1_555 1_555
C3 H2 1_555 1_555
C4 N1 1_555 1_555
H3 C4 1_555 1_555
C5 C4 1_555 1_555
H4 C5 1_555 1_555
C6 C5 1_555 1_555
H5 C6 1_555 1_555
C7 C6 1_555 1_555
H6 C7 1_555 1_555
C8 N1 1_555 1_555
H7 C8 1_555 1_555
C9 N2 1_555 1_555
H8 C9 1_555 1_555
C10 C9 1_555 1_555
H9 C10 1_555 1_555
C11 C10 1_555 1_555
H10 C11 1_555 1_555
O1A C1A 1_555 1_555
O2A C1A 1_555 1_555
C1A C2A 1_555 1_555
C2A C3A 1_555 1_555
C3A C2 1_555 1_555
H2A C3A 1_555 1_555
O1B C1B 1_555 1_555
O2B C1B 1_555 1_555
C1B C2B 1_555 1_555
C2B C3 1_555 1_555
C3B C2A 1_555 1_555
H2B C3B 1_555 1_555
H1O O3 1_555 1_555
C9O N2 1_555 1_555
H8O C9O 1_555 1_555
C10O C11 1_555 1_555
H9O C10O 1_555 1_555
O1O Ni1 1_555 1_555
O2O C1O 1_555 1_555
N1O Ni1 1_555 1_555
C1O O1O 1_555 1_555
C2O C1O 1_555 1_555
C3O C2O 1_555 1_555
H2O C3O 1_555 1_555
C4O N1O 1_555 1_555
H3O C4O 1_555 1_555
C5O C4O 1_555 1_555
H4O C5O 1_555 1_555
C6O C5O 1_555 1_555
H5O C6O 1_555 1_555
C7O C6O 1_555 1_555
H6O C7O 1_555 1_555
C8O N1O 1_555 1_555
H7O C8O 1_555 1_555
O1P C1P 1_555 1_555
O2P C1P 1_555 1_555
C1P C2P 1_555 1_555
C2P C3P 1_555 1_555
C3P C2O 1_555 1_555
H2P C3P 1_555 1_555
O1Q C1Q 1_555 1_555
O2Q C1Q 1_555 1_555
C1Q C2Q 1_555 1_555
C2Q C3O 1_555 1_555
C3Q C2P 1_555 1_555
H2Q C3Q 1_555 1_555
Ni1A O1A 1_555 1_555
O3A Ni1A 1_555 1_555
H1Q O3A 1_555 1_555
N2A Ni1A 1_555 1_555
C9Q N2A 1_555 1_555
H8Q C9Q 1_555 1_555
C10Q C9Q 1_555 1_555
H9Q C10Q 1_555 1_555
C11A C10Q 1_555 1_555
H10A C11A 1_555 1_555
H1A O3A 1_555 1_555
C9A N2A 1_555 1_555
H8A C9A 1_555 1_555
C10A C11A 1_555 1_555
H9A C10A 1_555 1_555
Ni1B O1B 1_555 1_555
O3B Ni1B 1_555 1_555
H1P O3B 1_555 1_555
N2B Ni1B 1_555 1_555
C9P N2B 1_555 1_555
H8P C9P 1_555 1_555
C10P C9P 1_555 1_555
H9P C10P 1_555 1_555
C11B C10P 1_555 1_555
H10B C11B 1_555 1_555
H1B O3B 1_555 1_555
C9B N2B 1_555 1_555
H8B C9B 1_555 1_555
C10B C11B 1_555 1_555
H9B C10B 1_555 1_555
N1A Ni1A 1_555 1_555
C4A N1A 1_555 1_555
H3A C4A 1_555 1_555
C5A C4A 1_555 1_555
H4A C5A 1_555 1_555
C6A C5A 1_555 1_555
H5A C6A 1_555 1_555
C7A C6A 1_555 1_555
H6A C7A 1_555 1_555
C8A N1A 1_555 1_555
H7A C8A 1_555 1_555
N1Q Ni1A 1_555 1_555
C4Q N1Q 1_555 1_555
H3Q C4Q 1_555 1_555
C5Q C4Q 1_555 1_555
H4Q C5Q 1_555 1_555
C6Q C5Q 1_555 1_555
H5Q C6Q 1_555 1_555
C7Q C6Q 1_555 1_555
H6Q C7Q 1_555 1_555
C8Q N1Q 1_555 1_555
H7Q C8Q 1_555 1_555
N1B Ni1B 1_555 1_555
C4B N1B 1_555 1_555
H3B C4B 1_555 1_555
C5B C4B 1_555 1_555
H4B C5B 1_555 1_555
C6B C5B 1_555 1_555
H5B C6B 1_555 1_555
C7B C6B 1_555 1_555
H6B C7B 1_555 1_555
C8B N1B 1_555 1_555
H7B C8B 1_555 1_555
N1P Ni1B 1_555 1_555
C4P N1P 1_555 1_555
H3P C4P 1_555 1_555
C5P C4P 1_555 1_555
H4P C5P 1_555 1_555
C6P C5P 1_555 1_555
H5P C6P 1_555 1_555
C7P C6P 1_555 1_555
H6P C7P 1_555 1_555
C8P N1P 1_555 1_555
H7P C8P 1_555 1_555
Ni1A_2 O1Q 1_555 1_555
Ni1B_2 O1P 1_555 1_555
O1P_2 Ni1B 1_555 1_555
O1Q_2 Ni1A 1_555 1_555
C7 C8 1_555 1_555
C2B C3B 1_555 1_555
C9O C10O 1_555 1_555
C7O C8O 1_555 1_555
C2Q C3Q 1_555 1_555
C9A C10A 1_555 1_555
C9B C10B 1_555 1_555
C7A C8A 1_555 1_555
C7Q C8Q 1_555 1_555
C7B C8B 1_555 1_555
C7P C8P 1_555 1_555

#END
