
#######################################################################
#
#                 Cambridge Crystallographic Data Centre
#                                CCDC 
#
#######################################################################
#
# If this CIF has been generated from an entry in the Cambridge 
# Structural Database, then it will include bibliographic, chemical, 
# crystal, experimental, refinement or atomic coordinate data resulting 
# from the CCDC's data processing and validation procedures.
#
#######################################################################

data_BUQNUX
_symmetry_cell_setting           monoclinic
_symmetry_space_group_name_H-M   'P 21/c'
_symmetry_Int_Tables_number      14
_space_group_name_Hall           '-P 2ybc'
loop_
_symmetry_equiv_pos_site_id
_symmetry_equiv_pos_as_xyz
1 x,y,z
2 -x,1/2+y,1/2-z
3 -x,-y,-z
4 x,1/2-y,1/2+z
_cell_length_a                   19.266(4)
_cell_length_b                   16.039(3)
_cell_length_c                   15.551(3)
_cell_angle_alpha                90
_cell_angle_beta                 100.41(3)
_cell_angle_gamma                90
_cell_volume                     4726.28
loop_
_atom_site_label
_atom_site_type_symbol
_atom_site_fract_x
_atom_site_fract_y
_atom_site_fract_z
C1 C 0.1105(6) -0.4106(7) 0.6317(8)
H1 H 0.1456 -0.4180 0.6807
C2 C 0.0400(6) -0.3956(8) 0.6440(8)
H2 H 0.0299 -0.3927 0.7002
C3 C -0.0114(6) -0.3856(7) 0.5753(8)
H3 H -0.0575 -0.3767 0.5835
C4 C 0.0034(5) -0.3886(6) 0.4916(7)
C5 C -0.0462(6) -0.3768(7) 0.4145(8)
H4 H -0.0931 -0.3669 0.4186
C6 C -0.0284(6) -0.3792(8) 0.3364(7)
H5 H -0.0627 -0.3709 0.2868
C7 C 0.0429(6) -0.3945(8) 0.3270(7)
H6 H 0.0552 -0.3960 0.2719
C8 C 0.0921(5) -0.4067(6) 0.3996(7)
C9 C 0.0751(5) -0.4030(6) 0.4838(7)
C10 C 0.1824(5) -0.4275(7) 0.3139(7)
H7 H 0.1760 -0.3732 0.2861
H8 H 0.1524 -0.4670 0.2773
C11 C 0.2582(5) -0.4539(6) 0.3224(6)
C12 C 0.4249(6) -0.4023(7) 0.6550(8)
H9 H 0.3978 -0.3578 0.6685
C13 C 0.4974(6) -0.3993(7) 0.6833(8)
H10 H 0.5174 -0.3546 0.7171
C14 C 0.5400(6) -0.4622(7) 0.6615(8)
H11 H 0.5887 -0.4606 0.6798
C15 C 0.5075(5) -0.5282(7) 0.6111(7)
C16 C 0.5453(5) -0.5961(7) 0.5853(7)
H12 H 0.5943 -0.5963 0.5994
C17 C 0.5122(5) -0.6602(8) 0.5409(8)
H13 H 0.5384 -0.7032 0.5225
C18 C 0.4380(6) -0.6634(7) 0.5218(7)
H14 H 0.4156 -0.7097 0.4933
C19 C 0.3988(5) -0.5994(6) 0.5445(6)
C20 C 0.4320(5) -0.5283(6) 0.5897(6)
C21 C 0.2889(5) -0.6662(6) 0.4840(8)
H15 H 0.3026 -0.7174 0.5158
H16 H 0.3009 -0.6711 0.4263
C22 C 0.2096(6) -0.6528(8) 0.4758(7)
C23 C 0.4165(6) -0.3468(7) 0.1976(8)
H17 H 0.3881 -0.3388 0.2393
C24 C 0.4893(7) -0.3268(8) 0.2196(9)
H18 H 0.5082 -0.3068 0.2750
C25 C 0.5293(7) -0.3365(8) 0.1613(10)
H19 H 0.5770 -0.3237 0.1766
C26 C 0.5034(6) -0.3656(7) 0.0761(8)
C27 C 0.5425(6) -0.3768(7) 0.0088(9)
H20 H 0.5907 -0.3658 0.0199
C28 C 0.5121(6) -0.4027(7) -0.0707(9)
H21 H 0.5387 -0.4084 -0.1146
C29 C 0.4389(6) -0.4216(7) -0.0881(9)
H22 H 0.4176 -0.4384 -0.1439
C30 C 0.3998(5) -0.4154(6) -0.0247(7)
C31 C 0.4301(5) -0.3854(6) 0.0599(7)
C32 C 0.2957(6) -0.4643(7) -0.1181(7)
H23 H 0.3223 -0.5083 -0.1403
H24 H 0.2927 -0.4174 -0.1580
C33 C 0.2218(5) -0.4955(6) -0.1132(7)
C34 C 0.0845(5) -0.3543(7) 0.0871(7)
H25 H 0.1091 -0.3060 0.0787
C35 C 0.0108(6) -0.3485(7) 0.0847(7)
H26 H -0.0118 -0.2971 0.0765
C36 C -0.0261(6) -0.4180(7) 0.0943(7)
H27 H -0.0747 -0.4153 0.0910
C37 C 0.0094(5) -0.4950(6) 0.1094(6)
C38 C -0.0252(6) -0.5692(8) 0.1226(7)
H28 H -0.0738 -0.5689 0.1199
C39 C 0.0112(5) -0.6419(8) 0.1394(7)
H29 H -0.0125 -0.6905 0.1492
C40 C 0.0846(5) -0.6438(7) 0.1421(7)
H30 H 0.1096 -0.6934 0.1534
C41 C 0.1186(5) -0.5723(6) 0.1279(6)
C42 C 0.0824(4) -0.4953(6) 0.1118(6)
C43 C 0.2311(5) -0.6415(7) 0.1454(8)
H31 H 0.2113 -0.6830 0.1025
H32 H 0.2277 -0.6627 0.2029
C44 C 0.3085(5) -0.6269(7) 0.1400(7)
C45 C 0.2574(5) -0.2719(7) 0.6257(6)
C46 C 0.2559(6) -0.2608(7) 0.5240(7)
Er1 Er 0.25542(3) -0.45961(3) 0.53821(3)
Er2 Er 0.25754(3) -0.43289(3) 0.09497(3)
N1 N 0.1274(4) -0.4143(5) 0.5561(5)
N2 N 0.3927(4) -0.4646(5) 0.6102(5)
N3 N 0.3879(5) -0.3761(5) 0.1210(6)
N4 N 0.1197(4) -0.4245(5) 0.1008(5)
O1 O 0.1626(3) -0.4237(4) 0.3981(4)
O2 O 0.2909(3) -0.4753(4) 0.3968(4)
O3 O 0.2818(3) -0.4545(4) 0.2537(4)
O4 O 0.3258(3) -0.5969(4) 0.5295(4)
O5 O 0.1893(4) -0.5821(4) 0.4907(5)
O6 O 0.1728(4) -0.7151(5) 0.4558(7)
O7 O 0.3316(4) -0.4391(4) -0.0323(5)
O8 O 0.2017(3) -0.4914(4) -0.0426(4)
O9 O 0.1866(4) -0.5204(5) -0.1838(5)
O10 O 0.1919(3) -0.5666(4) 0.1297(4)
O11 O 0.3239(3) -0.5576(4) 0.1128(5)
O12 O 0.3492(4) -0.6843(5) 0.1620(7)
O13 O 0.2495(4) -0.2081(4) 0.6674(4)
O14 O 0.2379(4) -0.1869(4) 0.4951(5)
O15 O 0.2655(4) -0.3450(4) 0.6503(4)
O16 O 0.2727(4) -0.3204(4) 0.4826(4)
O20 O 0.2543(4) -0.5292(4) 0.6765(4)
H39 H 0.2270 -0.5376 0.7130
H40 H 0.2684 -0.5772 0.6648
Er2C Er 0.25754(3) -0.06711(3) 0.59497(3)
O13C O 0.2495(4) -0.2919(4) 0.1674(4)
O14C O 0.2379(4) -0.3131(4) -0.0049(5)
O17 O 0.1835(5) -0.8012(6) 0.3055(7)
H33 H 0.1849 -0.8508 0.3246
H34 H 0.1589 -0.7718 0.3341
O18 O 0.3049(4) -0.6772(5) 0.7371(6)
H35 H 0.2654 -0.6907 0.7506
H36 H 0.3084 -0.7015 0.6896
O19 O 0.1671(8) -0.2945(9) 0.8087(8)
H37 H 0.1341 -0.3013 0.8378
H38 H 0.2056 -0.2964 0.8455
loop_
_geom_bond_atom_site_label_1
_geom_bond_atom_site_label_2
_geom_bond_site_symmetry_1
_geom_bond_site_symmetry_2
C1 H1 1_555 1_555
C2 C1 1_555 1_555
H2 C2 1_555 1_555
C3 C2 1_555 1_555
H3 C3 1_555 1_555
C4 C3 1_555 1_555
C5 C4 1_555 1_555
H4 C5 1_555 1_555
C6 C5 1_555 1_555
H5 C6 1_555 1_555
C7 C6 1_555 1_555
H6 C7 1_555 1_555
C8 C7 1_555 1_555
C9 C4 1_555 1_555
C10 H7 1_555 1_555
H8 C10 1_555 1_555
C11 C10 1_555 1_555
C12 H9 1_555 1_555
C13 C12 1_555 1_555
H10 C13 1_555 1_555
C14 C13 1_555 1_555
H11 C14 1_555 1_555
C15 C14 1_555 1_555
C16 C15 1_555 1_555
H12 C16 1_555 1_555
C17 C16 1_555 1_555
H13 C17 1_555 1_555
C18 C17 1_555 1_555
H14 C18 1_555 1_555
C19 C18 1_555 1_555
C20 C15 1_555 1_555
C21 H15 1_555 1_555
H16 C21 1_555 1_555
C22 C21 1_555 1_555
C23 H17 1_555 1_555
C24 C23 1_555 1_555
H18 C24 1_555 1_555
C25 C24 1_555 1_555
H19 C25 1_555 1_555
C26 C25 1_555 1_555
C27 C26 1_555 1_555
H20 C27 1_555 1_555
C28 C27 1_555 1_555
H21 C28 1_555 1_555
C29 C28 1_555 1_555
H22 C29 1_555 1_555
C30 C29 1_555 1_555
C31 C26 1_555 1_555
C32 H23 1_555 1_555
H24 C32 1_555 1_555
C33 C32 1_555 1_555
C34 H25 1_555 1_555
C35 C34 1_555 1_555
H26 C35 1_555 1_555
C36 C35 1_555 1_555
H27 C36 1_555 1_555
C37 C36 1_555 1_555
C38 C37 1_555 1_555
H28 C38 1_555 1_555
C39 C38 1_555 1_555
H29 C39 1_555 1_555
C40 C39 1_555 1_555
H30 C40 1_555 1_555
C41 C40 1_555 1_555
C42 C37 1_555 1_555
C43 H31 1_555 1_555
H32 C43 1_555 1_555
C44 C43 1_555 1_555
C45 C46 1_555 1_555
C46 O14 1_555 1_555
Er1 N1 1_555 1_555
Er2 N3 1_555 1_555
N1 C1 1_555 1_555
N2 C12 1_555 1_555
N3 C23 1_555 1_555
N4 C34 1_555 1_555
O1 C8 1_555 1_555
O2 C11 1_555 1_555
O3 C11 1_555 1_555
O4 C19 1_555 1_555
O5 C22 1_555 1_555
O6 C22 1_555 1_555
O7 C30 1_555 1_555
O8 C33 1_555 1_555
O9 C33 1_555 1_555
O10 C41 1_555 1_555
O11 C44 1_555 1_555
O12 C44 1_555 1_555
O13 C45 1_555 1_555
O14 Er2C 1_555 1_555
O15 C45 1_555 1_555
O16 C46 1_555 1_555
O17 H33 1_555 1_555
H34 O17 1_555 1_555
O18 H35 1_555 1_555
H36 O18 1_555 1_555
O19 H37 1_555 1_555
H38 O19 1_555 1_555
O20 Er1 1_555 1_555
H39 O20 1_555 1_555
H40 O20 1_555 1_555
Er2C O13 1_555 1_555
O13C Er2 1_555 1_555
O14C Er2 1_555 1_555
C8 C9 1_555 1_555
C9 N1 1_555 1_555
C10 O1 1_555 1_555
C19 C20 1_555 1_555
C20 N2 1_555 1_555
C21 O4 1_555 1_555
C30 C31 1_555 1_555
C31 N3 1_555 1_555
C32 O7 1_555 1_555
C41 C42 1_555 1_555
C42 N4 1_555 1_555
C43 O10 1_555 1_555
Er1 N2 1_555 1_555
Er1 O1 1_555 1_555
Er1 O2 1_555 1_555
Er1 O4 1_555 1_555
Er1 O5 1_555 1_555
Er1 O15 1_555 1_555
Er1 O16 1_555 1_555
Er2 N4 1_555 1_555
Er2 O3 1_555 1_555
Er2 O7 1_555 1_555
Er2 O8 1_555 1_555
Er2 O10 1_555 1_555
Er2 O11 1_555 1_555

#END
