
#######################################################################
#
#                 Cambridge Crystallographic Data Centre
#                                CCDC 
#
#######################################################################
#
# If this CIF has been generated from an entry in the Cambridge 
# Structural Database, then it will include bibliographic, chemical, 
# crystal, experimental, refinement or atomic coordinate data resulting 
# from the CCDC's data processing and validation procedures.
#
#######################################################################

data_BUQNIL
_symmetry_cell_setting           monoclinic
_symmetry_space_group_name_H-M   'P 21/c'
_symmetry_Int_Tables_number      14
_space_group_name_Hall           '-P 2ybc'
loop_
_symmetry_equiv_pos_site_id
_symmetry_equiv_pos_as_xyz
1 x,y,z
2 -x,1/2+y,1/2-z
3 -x,-y,-z
4 x,1/2-y,1/2+z
_cell_length_a                   18.7397(7)
_cell_length_b                   15.1331(6)
_cell_length_c                   8.6165(3)
_cell_angle_alpha                90
_cell_angle_beta                 93.999(2)
_cell_angle_gamma                90
_cell_volume                     2437.6
loop_
_atom_site_label
_atom_site_type_symbol
_atom_site_fract_x
_atom_site_fract_y
_atom_site_fract_z
C1 C 0.3919(5) -0.0369(7) 0.2606(11)
H1 H 0.3527 -0.0739 0.2415
C2 C 0.4582(6) -0.0617(7) 0.2031(12)
H2 H 0.4615 -0.1145 0.1489
C3 C 0.5161(6) -0.0101(7) 0.2260(12)
H3 H 0.5589 -0.0256 0.1846
C4 C 0.5113(5) 0.0677(6) 0.3133(10)
C5 C 0.5709(5) 0.1241(7) 0.3481(13)
H4 H 0.6151 0.1112 0.3109
C6 C 0.5623(5) 0.1970(7) 0.4366(13)
H5 H 0.6013 0.2334 0.4622
C7 C 0.4939(5) 0.2187(6) 0.4914(10)
H6 H 0.4890 0.2680 0.5542
C8 C 0.4361(4) 0.1670(6) 0.4513(9)
C9 C 0.4428(4) 0.0886(6) 0.3658(9)
C10 C 0.3575(4) 0.2553(6) 0.5964(9)
H7 H 0.3751 0.3100 0.5547
H8 H 0.3841 0.2436 0.6949
C11 C 0.2789(5) 0.2645(6) 0.6221(10)
C12 C 0.1004(5) 0.1337(7) 0.2115(11)
H9 H 0.1331 0.1350 0.1352
C13 C 0.0309(6) 0.1572(7) 0.1670(13)
H10 H 0.0172 0.1741 0.0655
C14 C -0.0165(5) 0.1545(7) 0.2789(13)
H11 H -0.0638 0.1703 0.2531
C15 C 0.0032(5) 0.1289(6) 0.4311(12)
C16 C -0.0435(5) 0.1259(7) 0.5515(14)
H12 H -0.0913 0.1414 0.5312
C17 C -0.0202(5) 0.1011(7) 0.6950(14)
H13 H -0.0523 0.0978 0.7723
C18 C 0.0515(5) 0.0801(6) 0.7306(11)
H14 H 0.0673 0.0641 0.8314
C19 C 0.0977(4) 0.0831(6) 0.6172(10)
C20 C 0.0750(5) 0.1085(5) 0.4640(11)
C21 C 0.1980(5) 0.0631(7) 0.8005(9)
H15 H 0.1786 0.0140 0.8564
H16 H 0.1855 0.1177 0.8511
C22 C 0.2798(5) 0.0545(6) 0.7995(11)
Gd1 Gd 0.25945(2) 0.08215(3) 0.42226(5)
N1 N 0.3838(4) 0.0360(5) 0.3394(8)
N2 N 0.1246(4) 0.1097(5) 0.3520(8)
O1 O 0.3678(3) 0.1851(4) 0.4911(6)
O2 O 0.2356(3) 0.2178(4) 0.5429(6)
O3 O 0.2647(3) 0.3209(4) 0.7208(6)
O4 O 0.1698(3) 0.0629(4) 0.6410(6)
O5 O 0.3090(3) 0.0531(4) 0.6731(6)
O6 O 0.3129(3) 0.0493(4) 0.9306(7)
O11 O 0.2449(3) -0.0757(4) 0.4647(7)
H19 H 0.2085 -0.0844 0.4021
H20 H 0.2302 -0.0747 0.5645
O12 O 0.2347(3) 0.0049(4) 0.1735(6)
H21 H 0.2523 0.0326 0.0993
H22 H 0.1966 -0.0208 0.1370
Gd1C Gd 0.25945(2) 0.41785(3) 0.92226(5)
O3C O 0.2647(3) 0.1791(4) 0.2208(6)
N3 N 0.2329(7) 0.7230(9) 0.2677(15)
O7 O 0.2273(6) 0.6452(7) 0.2533(12)
O8 O 0.2784(7) 0.7650(8) 0.2141(19)
O9 O 0.1886(5) 0.7705(8) 0.3204(14)
O10 O 0.1505(5) 0.8743(7) 0.0527(11)
H17 H 0.1171 0.8371 0.0665
H18 H 0.1685 0.8616 -0.0334
loop_
_geom_bond_atom_site_label_1
_geom_bond_atom_site_label_2
_geom_bond_site_symmetry_1
_geom_bond_site_symmetry_2
C1 H1 1_555 1_555
C2 C1 1_555 1_555
H2 C2 1_555 1_555
C3 C2 1_555 1_555
H3 C3 1_555 1_555
C4 C3 1_555 1_555
C5 C4 1_555 1_555
H4 C5 1_555 1_555
C6 C5 1_555 1_555
H5 C6 1_555 1_555
C7 C6 1_555 1_555
H6 C7 1_555 1_555
C8 C7 1_555 1_555
C9 C4 1_555 1_555
C10 H7 1_555 1_555
H8 C10 1_555 1_555
C11 C10 1_555 1_555
C12 H9 1_555 1_555
C13 C12 1_555 1_555
H10 C13 1_555 1_555
C14 C13 1_555 1_555
H11 C14 1_555 1_555
C15 C14 1_555 1_555
C16 C15 1_555 1_555
H12 C16 1_555 1_555
C17 C16 1_555 1_555
H13 C17 1_555 1_555
C18 C17 1_555 1_555
H14 C18 1_555 1_555
C19 C18 1_555 1_555
C20 C15 1_555 1_555
C21 H15 1_555 1_555
H16 C21 1_555 1_555
C22 C21 1_555 1_555
Gd1 N1 1_555 1_555
N1 C1 1_555 1_555
N2 C12 1_555 1_555
N3 O7 1_555 1_555
O1 C8 1_555 1_555
O2 C11 1_555 1_555
O3 C11 1_555 1_555
O4 C19 1_555 1_555
O5 C22 1_555 1_555
O6 C22 1_555 1_555
O8 N3 1_555 1_555
O9 N3 1_555 1_555
O10 H17 1_555 1_555
H18 O10 1_555 1_555
O11 Gd1 1_555 1_555
H19 O11 1_555 1_555
H20 O11 1_555 1_555
O12 Gd1 1_555 1_555
H21 O12 1_555 1_555
H22 O12 1_555 1_555
Gd1C O3 1_555 1_555
O3C Gd1 1_555 1_555
C8 C9 1_555 1_555
C9 N1 1_555 1_555
C10 O1 1_555 1_555
C19 C20 1_555 1_555
C20 N2 1_555 1_555
C21 O4 1_555 1_555
Gd1 N2 1_555 1_555
Gd1 O1 1_555 1_555
Gd1 O2 1_555 1_555
Gd1 O4 1_555 1_555
Gd1 O5 1_555 1_555

#END
