
#######################################################################
#
#                 Cambridge Crystallographic Data Centre
#                                CCDC 
#
#######################################################################
#
# If this CIF has been generated from an entry in the Cambridge 
# Structural Database, then it will include bibliographic, chemical, 
# crystal, experimental, refinement or atomic coordinate data resulting 
# from the CCDC's data processing and validation procedures.
#
#######################################################################

data_BUQNOR
_symmetry_cell_setting           monoclinic
_symmetry_space_group_name_H-M   'P 21/c'
_symmetry_Int_Tables_number      14
_space_group_name_Hall           '-P 2ybc'
loop_
_symmetry_equiv_pos_site_id
_symmetry_equiv_pos_as_xyz
1 x,y,z
2 -x,1/2+y,1/2-z
3 -x,-y,-z
4 x,1/2-y,1/2+z
_cell_length_a                   19.268(4)
_cell_length_b                   16.070(3)
_cell_length_c                   15.592(3)
_cell_angle_alpha                90
_cell_angle_beta                 100.38(3)
_cell_angle_gamma                90
_cell_volume                     4748.85
loop_
_atom_site_label
_atom_site_type_symbol
_atom_site_fract_x
_atom_site_fract_y
_atom_site_fract_z
C1 C 0.1085(5) 0.9090(6) 0.6302(6)
H1 H 0.1434 0.9158 0.6793
C2 C 0.0402(5) 0.8941(7) 0.6435(7)
H2 H 0.0311 0.8912 0.7000
C3 C -0.0123(5) 0.8838(6) 0.5758(7)
H3 H -0.0581 0.8742 0.5845
C4 C 0.0031(5) 0.8877(5) 0.4907(6)
C5 C -0.0484(5) 0.8781(6) 0.4146(7)
H4 H -0.0955 0.8703 0.4188
C6 C -0.0288(5) 0.8804(8) 0.3360(7)
H5 H -0.0624 0.8714 0.2860
C7 C 0.0419(5) 0.8961(7) 0.3283(6)
H6 H 0.0541 0.8987 0.2733
C8 C 0.0913(4) 0.9072(5) 0.3987(6)
C9 C 0.0745(4) 0.9035(5) 0.4841(5)
C10 C 0.1822(4) 0.9293(6) 0.3151(5)
H7 H 0.1526 0.9693 0.2790
H8 H 0.1754 0.8754 0.2868
C11 C 0.2572(4) 0.9545(5) 0.3236(5)
C12 C 0.4257(5) 0.9034(6) 0.6545(6)
H9 H 0.3983 0.8592 0.6677
C13 C 0.4986(6) 0.8992(7) 0.6844(7)
H10 H 0.5187 0.8551 0.7188
C14 C 0.5394(5) 0.9622(7) 0.6613(7)
H11 H 0.5881 0.9607 0.6793
C15 C 0.5082(4) 1.0286(6) 0.6107(6)
C16 C 0.5466(5) 1.0962(6) 0.5847(6)
H12 H 0.5957 1.0956 0.5974
C17 C 0.5131(5) 1.1610(7) 0.5422(7)
H13 H 0.5394 1.2044 0.5251
C18 C 0.4390(5) 1.1649(6) 0.5227(7)
H14 H 0.4164 1.2112 0.4947
C19 C 0.4001(4) 1.0983(6) 0.5460(5)
C20 C 0.4331(4) 1.0289(6) 0.5899(5)
C21 C 0.2899(4) 1.1682(5) 0.4860(6)
H15 H 0.3017 1.1744 0.4284
H16 H 0.3037 1.2186 0.5188
C22 C 0.2122(5) 1.1543(7) 0.4784(7)
C23 C 0.4168(5) 0.8474(6) 0.1976(7)
H17 H 0.3882 0.8391 0.2389
C24 C 0.4890(5) 0.8279(7) 0.2195(7)
H18 H 0.5077 0.8090 0.2752
C25 C 0.5312(5) 0.8368(6) 0.1591(7)
H19 H 0.5788 0.8234 0.1734
C26 C 0.5033(5) 0.8658(6) 0.0760(7)
C27 C 0.5435(5) 0.8759(6) 0.0092(8)
H20 H 0.5915 0.8642 0.0199
C28 C 0.5120(5) 0.9025(7) -0.0696(8)
H21 H 0.5388 0.9086 -0.1132
C29 C 0.4401(5) 0.9215(6) -0.0884(8)
H22 H 0.4195 0.9375 -0.1446
C30 C 0.4001(4) 0.9166(5) -0.0249(6)
C31 C 0.4303(4) 0.8857(5) 0.0573(6)
C32 C 0.2967(5) 0.9654(6) -0.1182(6)
H23 H 0.2946 0.9200 -0.1596
H24 H 0.3233 1.0106 -0.1379
C33 C 0.2228(4) 0.9946(6) -0.1136(6)
C34 C 0.0825(4) 0.8560(6) 0.0868(6)
H25 H 0.1067 0.8076 0.0778
C35 C 0.0097(5) 0.8504(6) 0.0844(6)
H26 H -0.0131 0.7992 0.0762
C36 C -0.0272(5) 0.9208(6) 0.0943(6)
H27 H -0.0759 0.9184 0.0907
C37 C 0.0086(4) 0.9976(6) 0.1103(5)
C38 C -0.0259(5) 1.0716(7) 0.1238(6)
H28 H -0.0744 1.0714 0.1225
C39 C 0.0105(5) 1.1430(7) 0.1387(6)
H29 H -0.0132 1.1919 0.1472
C40 C 0.0841(4) 1.1451(6) 0.1417(6)
H30 H 0.1087 1.1948 0.1533
C41 C 0.1194(4) 1.0736(5) 0.1276(5)
C42 C 0.0820(4) 0.9974(6) 0.1126(5)
C43 C 0.2306(4) 1.1433(6) 0.1475(7)
H31 H 0.2279 1.1625 0.2058
H32 H 0.2109 1.1862 0.1064
C44 C 0.3076(5) 1.1278(7) 0.1403(6)
C45 C 0.2575(4) 0.7712(6) 0.6233(5)
C46 C 0.2556(5) 0.7588(6) 0.5240(6)
N1 N 0.1271(3) 0.9142(4) 0.5546(4)
N2 N 0.3935(3) 0.9650(5) 0.6096(4)
N3 N 0.3883(4) 0.8772(5) 0.1199(5)
N4 N 0.1189(3) 0.9256(5) 0.1009(4)
O1 O 0.1618(3) 0.9248(4) 0.3984(4)
O2 O 0.2913(3) 0.9762(4) 0.3961(4)
O3 O 0.2812(3) 0.9546(4) 0.2529(4)
O4 O 0.3271(3) 1.0975(4) 0.5300(4)
O5 O 0.1912(3) 1.0833(4) 0.4924(4)
O6 O 0.1749(4) 1.2161(5) 0.4562(6)
O7 O 0.3310(3) 0.9380(4) -0.0337(4)
O8 O 0.2009(3) 0.9914(4) -0.0421(4)
O9 O 0.1869(3) 1.0206(4) -0.1838(4)
O10 O 0.1906(3) 1.0687(3) 0.1294(4)
O11 O 0.3233(3) 1.0584(4) 0.1130(4)
O12 O 0.3486(3) 1.1859(4) 0.1623(6)
O13 O 0.2658(3) 0.8444(4) 0.6503(4)
O14 O 0.2715(4) 0.8194(4) 0.4830(4)
O15 O 0.2496(3) 0.7077(4) 0.6665(4)
O16 O 0.2374(4) 0.6865(4) 0.4955(4)
O17 O 0.2545(3) 1.0292(4) 0.6783(4)
H33 H 0.2372 1.0173 0.7234
H34 H 0.2443 1.0799 0.6658
Pr1 Pr 0.25554(2) 0.96012(3) 0.53853(3)
Pr2 Pr 0.25711(2) 0.93328(3) 0.09493(3)
O15C O 0.2496(3) 0.7923(4) 0.1665(4)
O16C O 0.2374(4) 0.8135(4) -0.0045(4)
Pr2C Pr 0.25711(2) 0.56672(3) 0.59493(3)
O18 O 0.1707(7) 0.7061(8) 0.3077(7)
H35 H 0.1367 0.6742 0.2855
H36 H 0.1747 0.7011 0.3630
O19 O 0.6959(4) 0.8231(4) 0.2612(5)
H37 H 0.7371 0.8070 0.2627
H38 H 0.6719 0.7849 0.2753
O20 O 0.8181(4) 0.8005(5) 0.1946(5)
H39 H 0.8484 0.8364 0.1950
H40 H 0.7878 0.8065 0.1507
loop_
_geom_bond_atom_site_label_1
_geom_bond_atom_site_label_2
_geom_bond_site_symmetry_1
_geom_bond_site_symmetry_2
C1 H1 1_555 1_555
C2 C1 1_555 1_555
H2 C2 1_555 1_555
C3 C2 1_555 1_555
H3 C3 1_555 1_555
C4 C3 1_555 1_555
C5 C4 1_555 1_555
H4 C5 1_555 1_555
C6 C5 1_555 1_555
H5 C6 1_555 1_555
C7 C6 1_555 1_555
H6 C7 1_555 1_555
C8 C7 1_555 1_555
C9 C4 1_555 1_555
C10 H7 1_555 1_555
H8 C10 1_555 1_555
C11 C10 1_555 1_555
C12 H9 1_555 1_555
C13 C12 1_555 1_555
H10 C13 1_555 1_555
C14 C13 1_555 1_555
H11 C14 1_555 1_555
C15 C14 1_555 1_555
C16 C15 1_555 1_555
H12 C16 1_555 1_555
C17 C16 1_555 1_555
H13 C17 1_555 1_555
C18 C17 1_555 1_555
H14 C18 1_555 1_555
C19 C18 1_555 1_555
C20 C15 1_555 1_555
C21 H15 1_555 1_555
H16 C21 1_555 1_555
C22 C21 1_555 1_555
C23 H17 1_555 1_555
C24 C23 1_555 1_555
H18 C24 1_555 1_555
C25 C24 1_555 1_555
H19 C25 1_555 1_555
C26 C25 1_555 1_555
C27 C26 1_555 1_555
H20 C27 1_555 1_555
C28 C27 1_555 1_555
H21 C28 1_555 1_555
C29 C28 1_555 1_555
H22 C29 1_555 1_555
C30 C29 1_555 1_555
C31 C26 1_555 1_555
C32 H23 1_555 1_555
H24 C32 1_555 1_555
C33 C32 1_555 1_555
C34 H25 1_555 1_555
C35 C34 1_555 1_555
H26 C35 1_555 1_555
C36 C35 1_555 1_555
H27 C36 1_555 1_555
C37 C36 1_555 1_555
C38 C37 1_555 1_555
H28 C38 1_555 1_555
C39 C38 1_555 1_555
H29 C39 1_555 1_555
C40 C39 1_555 1_555
H30 C40 1_555 1_555
C41 C40 1_555 1_555
C42 C37 1_555 1_555
C43 H31 1_555 1_555
H32 C43 1_555 1_555
C44 C43 1_555 1_555
C45 C46 1_555 1_555
C46 O14 1_555 1_555
N1 C1 1_555 1_555
N2 C12 1_555 1_555
N3 C23 1_555 1_555
N4 C34 1_555 1_555
O1 C8 1_555 1_555
O2 C11 1_555 1_555
O3 C11 1_555 1_555
O4 C19 1_555 1_555
O5 C22 1_555 1_555
O6 C22 1_555 1_555
O7 C30 1_555 1_555
O8 C33 1_555 1_555
O9 C33 1_555 1_555
O10 C41 1_555 1_555
O11 C44 1_555 1_555
O12 C44 1_555 1_555
O13 C45 1_555 1_555
O14 Pr1 1_555 1_555
O15 C45 1_555 1_555
O16 C46 1_555 1_555
O17 H33 1_555 1_555
H34 O17 1_555 1_555
O18 H35 1_555 1_555
H36 O18 1_555 1_555
Pr1 N1 1_555 1_555
Pr2 N3 1_555 1_555
O19 H37 1_555 1_555
H38 O19 1_555 1_555
O20 H39 1_555 1_555
H40 O20 1_555 1_555
O15C Pr2 1_555 1_555
O16C Pr2 1_555 1_555
Pr2C O15 1_555 1_555
C8 C9 1_555 1_555
C9 N1 1_555 1_555
C10 O1 1_555 1_555
C19 C20 1_555 1_555
C20 N2 1_555 1_555
C21 O4 1_555 1_555
C30 C31 1_555 1_555
C31 N3 1_555 1_555
C32 O7 1_555 1_555
C41 C42 1_555 1_555
C42 N4 1_555 1_555
C43 O10 1_555 1_555
N2 Pr1 1_555 1_555
N4 Pr2 1_555 1_555
O1 Pr1 1_555 1_555
O2 Pr1 1_555 1_555
O3 Pr2 1_555 1_555
O4 Pr1 1_555 1_555
O5 Pr1 1_555 1_555
O7 Pr2 1_555 1_555
O8 Pr2 1_555 1_555
O10 Pr2 1_555 1_555
O11 Pr2 1_555 1_555
O13 Pr1 1_555 1_555
O16 Pr2C 1_555 1_555
O17 Pr1 1_555 1_555

#END
