
#######################################################################
#
#                 Cambridge Crystallographic Data Centre
#                                CCDC 
#
#######################################################################
#
# If this CIF has been generated from an entry in the Cambridge 
# Structural Database, then it will include bibliographic, chemical, 
# crystal, experimental, refinement or atomic coordinate data resulting 
# from the CCDC's data processing and validation procedures.
#
#######################################################################

data_BUQNEH
_symmetry_cell_setting           monoclinic
_symmetry_space_group_name_H-M   'P 21/c'
_symmetry_Int_Tables_number      14
_space_group_name_Hall           '-P 2ybc'
loop_
_symmetry_equiv_pos_site_id
_symmetry_equiv_pos_as_xyz
1 x,y,z
2 -x,1/2+y,1/2-z
3 -x,-y,-z
4 x,1/2-y,1/2+z
_cell_length_a                   18.724(4)
_cell_length_b                   15.086(3)
_cell_length_c                   8.6362(17)
_cell_angle_alpha                90
_cell_angle_beta                 93.97(3)
_cell_angle_gamma                90
_cell_volume                     2433.62
loop_
_atom_site_label
_atom_site_type_symbol
_atom_site_fract_x
_atom_site_fract_y
_atom_site_fract_z
C1 C 0.6057(4) 0.4620(4) 0.7411(7)
H1 H 0.6444 0.4240 0.7602
C2 C 0.5409(4) 0.4386(5) 0.7974(9)
H2 H 0.5375 0.3861 0.8528
C3 C 0.4822(4) 0.4906(5) 0.7734(8)
H3 H 0.4391 0.4752 0.8137
C4 C 0.4881(3) 0.5681(4) 0.6865(7)
C5 C 0.4299(4) 0.6252(5) 0.6474(8)
H4 H 0.3851 0.6123 0.6820
C6 C 0.4383(3) 0.6981(5) 0.5605(8)
H5 H 0.3990 0.7343 0.5356
C7 C 0.5049(3) 0.7209(4) 0.5065(7)
H6 H 0.5095 0.7712 0.4458
C8 C 0.5634(3) 0.6680(4) 0.5446(6)
C9 C 0.5563(3) 0.5892(3) 0.6327(6)
C10 C 0.6418(3) 0.7559(4) 0.4025(6)
H7 H 0.6242 0.8108 0.4441
H8 H 0.6153 0.7442 0.3041
C11 C 0.7208(3) 0.7642(4) 0.3784(6)
C12 C 0.8999(4) 0.6330(4) 0.7870(7)
H9 H 0.8673 0.6341 0.8636
C13 C 0.9698(4) 0.6567(5) 0.8292(8)
H10 H 0.9829 0.6745 0.9303
C14 C 1.0190(4) 0.6537(5) 0.7213(9)
H11 H 1.0667 0.6676 0.7485
C15 C 0.9977(3) 0.6296(4) 0.5694(7)
C16 C 1.0455(4) 0.6259(5) 0.4467(9)
H12 H 1.0936 0.6400 0.4670
C17 C 1.0212(4) 0.6025(5) 0.3038(9)
H13 H 1.0530 0.6006 0.2258
C18 C 0.9498(4) 0.5809(4) 0.2680(8)
H14 H 0.9346 0.5649 0.1671
C19 C 0.9015(3) 0.5831(3) 0.3810(6)
C20 C 0.9249(3) 0.6083(4) 0.5345(7)
C21 C 0.8011(3) 0.5617(4) 0.2014(6)
H15 H 0.8201 0.5118 0.1463
H16 H 0.8143 0.6157 0.1497
C22 C 0.7203(3) 0.5547(4) 0.1988(6)
Eu1 Eu 0.740989(14) 0.581314(16) 0.57730(3)
N1 N 0.6156(2) 0.5357(3) 0.6615(5)
N2 N 0.8758(3) 0.6089(3) 0.6457(5)
O1 O 0.63169(19) 0.6850(2) 0.5078(4)
O2 O 0.7647(2) 0.7188(3) 0.4565(4)
O3 O 0.7352(2) 0.8215(3) 0.2807(4)
O4 O 0.8309(2) 0.5621(3) 0.3587(4)
O5 O 0.6917(2) 0.5529(3) 0.3255(4)
O6 O 0.6883(2) 0.5482(3) 0.0680(4)
O11 O 0.7553(3) 0.4243(2) 0.5343(5)
H19 H 0.7631 0.4075 0.4449
H20 H 0.7814 0.3959 0.5990
O12 O 0.7648(2) 0.5033(3) 0.8258(4)
H21 H 0.7501 0.5248 0.9089
H22 H 0.7901 0.4578 0.8504
Eu1C Eu 0.740989(14) 0.918686(16) 0.07730(3)
O3C O 0.7352(2) 0.6785(3) 0.7807(4)
N3 N 0.7639(5) 0.2774(6) 0.2353(9)
O7 O 0.7196(6) 0.2325(7) 0.280(2)
O8 O 0.7739(6) 0.3517(5) 0.2481(9)
O9 O 0.8099(5) 0.2299(6) 0.1808(12)
O10 O 0.8484(4) 0.1302(6) 0.4471(9)
H17 H 0.8222 0.1658 0.3892
H18 H 0.8636 0.1584 0.5283
loop_
_geom_bond_atom_site_label_1
_geom_bond_atom_site_label_2
_geom_bond_site_symmetry_1
_geom_bond_site_symmetry_2
C1 H1 1_555 1_555
C2 C1 1_555 1_555
H2 C2 1_555 1_555
C3 C2 1_555 1_555
H3 C3 1_555 1_555
C4 C3 1_555 1_555
C5 C4 1_555 1_555
H4 C5 1_555 1_555
C6 C5 1_555 1_555
H5 C6 1_555 1_555
C7 C6 1_555 1_555
H6 C7 1_555 1_555
C8 C7 1_555 1_555
C9 C4 1_555 1_555
C10 H7 1_555 1_555
H8 C10 1_555 1_555
C11 C10 1_555 1_555
C12 H9 1_555 1_555
C13 C12 1_555 1_555
H10 C13 1_555 1_555
C14 C13 1_555 1_555
H11 C14 1_555 1_555
C15 C14 1_555 1_555
C16 C15 1_555 1_555
H12 C16 1_555 1_555
C17 C16 1_555 1_555
H13 C17 1_555 1_555
C18 C17 1_555 1_555
H14 C18 1_555 1_555
C19 C18 1_555 1_555
C20 C15 1_555 1_555
C21 H15 1_555 1_555
H16 C21 1_555 1_555
C22 C21 1_555 1_555
Eu1 N1 1_555 1_555
N1 C1 1_555 1_555
N2 C12 1_555 1_555
N3 O7 1_555 1_555
O1 C8 1_555 1_555
O2 C11 1_555 1_555
O3 C11 1_555 1_555
O4 C19 1_555 1_555
O5 C22 1_555 1_555
O6 C22 1_555 1_555
O8 N3 1_555 1_555
O9 N3 1_555 1_555
O10 H17 1_555 1_555
H18 O10 1_555 1_555
O11 Eu1 1_555 1_555
H19 O11 1_555 1_555
H20 O11 1_555 1_555
O12 Eu1 1_555 1_555
H21 O12 1_555 1_555
H22 O12 1_555 1_555
Eu1C O3 1_555 1_555
O3C Eu1 1_555 1_555
C8 C9 1_555 1_555
C9 N1 1_555 1_555
C10 O1 1_555 1_555
C19 C20 1_555 1_555
C20 N2 1_555 1_555
C21 O4 1_555 1_555
Eu1 N2 1_555 1_555
Eu1 O1 1_555 1_555
Eu1 O2 1_555 1_555
Eu1 O4 1_555 1_555
Eu1 O5 1_555 1_555

#END
