
#######################################################################
#
#                 Cambridge Crystallographic Data Centre
#                                CCDC 
#
#######################################################################
#
# If this CIF has been generated from an entry in the Cambridge 
# Structural Database, then it will include bibliographic, chemical, 
# crystal, experimental, refinement or atomic coordinate data resulting 
# from the CCDC's data processing and validation procedures.
#
#######################################################################

data_BUQPIN
_symmetry_cell_setting           monoclinic
_symmetry_space_group_name_H-M   'P 21/c'
_symmetry_Int_Tables_number      14
_space_group_name_Hall           '-P 2ybc'
loop_
_symmetry_equiv_pos_site_id
_symmetry_equiv_pos_as_xyz
1 x,y,z
2 -x,1/2+y,1/2-z
3 -x,-y,-z
4 x,1/2-y,1/2+z
_cell_length_a                   10.8671(3)
_cell_length_b                   10.8974(3)
_cell_length_c                   15.8338(4)
_cell_angle_alpha                90
_cell_angle_beta                 117.385(2)
_cell_angle_gamma                90
_cell_volume                     1664.96
loop_
_atom_site_label
_atom_site_type_symbol
_atom_site_fract_x
_atom_site_fract_y
_atom_site_fract_z
Eu1 Eu 0.588145(17) 0.510551(16) 0.157677(13)
O1 O 0.7406(3) 0.3793(3) 0.30413(19)
O2 O 0.4739(3) 0.3746(3) 0.2248(2)
O3 O 0.4637(3) 0.1791(3) 0.2655(2)
O4 O 0.4438(3) 0.6865(3) -0.08878(19)
O5 O 0.5880(3) 0.6796(3) 0.0675(2)
O6 O 0.6404(3) 0.4723(3) -0.0457(2)
O7 O 0.7701(3) 0.4742(3) 0.1109(2)
N1 N 0.8325(3) 0.5908(3) 0.2768(2)
C1 C 0.8781(4) 0.6956(4) 0.2591(3)
H1 H 0.8138 0.7492 0.2152
C2 C 1.0179(4) 0.7300(4) 0.3028(3)
H2 H 1.0457 0.8031 0.2865
C3 C 1.1123(4) 0.6545(5) 0.3697(3)
H3 H 1.2052 0.6772 0.4008
C4 C 1.0698(4) 0.5415(5) 0.3922(3)
C5 C 1.1611(5) 0.4583(5) 0.4604(4)
H4 H 1.2543 0.4781 0.4956
C6 C 1.1131(4) 0.3493(5) 0.4751(3)
H5 H 1.1744 0.2948 0.5198
C7 C 0.9718(4) 0.3177(4) 0.4234(3)
H6 H 0.9402 0.2425 0.4335
C8 C 0.8820(4) 0.3987(4) 0.3584(3)
C9 C 0.9279(5) 0.5134(4) 0.3414(3)
C10 C 0.6826(4) 0.2686(4) 0.3204(3)
H7 H 0.7100 0.2597 0.3877
H8 H 0.7165 0.1980 0.3000
C11 C 0.5267(4) 0.2758(4) 0.2647(3)
C12 C 0.5138(4) 0.7356(4) -0.0090(3)
C13 C 0.5077(3) 0.8730(4) -0.0043(2)
C14 C 0.5548(4) 0.9312(4) 0.0832(3)
H9 H 0.5912 0.8850 0.1388
C15 C 0.4523(4) 0.9426(4) -0.0878(3)
H10 H 0.4202 0.9039 -0.1465
C16 C 0.7545(4) 0.4793(3) 0.0280(3)
C17 C 0.8818(4) 0.4920(3) 0.0139(3)
C18 C 1.0140(4) 0.4824(4) 0.0909(3)
H11 H 1.0237 0.4718 0.1519
C19 C 0.8691(4) 0.5116(3) -0.0772(3)
H12 H 0.7817 0.5207 -0.1288
Eu1B Eu 0.411855(17) 0.489449(16) -0.157677(13)
Eu1_2 Eu 0.588145(17) 1.510551(16) 0.157677(13)
Eu1_3 Eu 1.588145(17) 0.510551(16) 0.157677(13)
Eu1A Eu 0.411855(17) 0.010551(16) 0.342323(13)
Eu1B_2 Eu 0.411855(17) 1.489449(16) -0.157677(13)
Eu1B_3 Eu 1.411855(17) 0.489449(16) -0.157677(13)
Eu1C Eu 1.588145(17) 0.989449(16) -0.342323(13)
O1B O 1.2594(3) 0.6207(3) -0.30413(19)
O2B O 1.5261(3) 0.6254(3) -0.2248(2)
O3A O 0.5363(3) 0.6791(3) 0.2345(2)
O3C O 1.4637(3) 0.3209(3) -0.2345(2)
O3B O 1.5363(3) 0.8209(3) -0.2655(2)
O4B O 0.5562(3) 1.3135(3) 0.08878(19)
O4B_2 O 0.5562(3) 0.3135(3) 0.08878(19)
O4_2 O 1.4438(3) 0.6865(3) -0.08878(19)
O5B O 0.4120(3) 1.3204(3) -0.0675(2)
O5B_2 O 1.4120(3) 0.3204(3) -0.0675(2)
O6B O 1.3596(3) 0.5277(3) 0.0457(2)
O6B_2 O 0.3596(3) 0.5277(3) 0.0457(2)
O6_2 O 1.6404(3) 0.4723(3) -0.0457(2)
O7B O 1.2299(3) 0.5258(3) -0.1109(2)
N1B N 1.1675(3) 0.4092(3) -0.2768(2)
C1B C 1.1219(4) 0.3044(4) -0.2591(3)
H1B H 1.1862 0.2508 -0.2152
C2B C 0.9821(4) 0.2700(4) -0.3028(3)
H2B H 0.9543 0.1969 -0.2865
C3B C 0.8877(4) 0.3455(5) -0.3697(3)
H3B H 0.7948 0.3228 -0.4008
C4B C 0.9302(4) 0.4585(5) -0.3922(3)
C5B C 0.8389(5) 0.5417(5) -0.4604(4)
H4B H 0.7457 0.5219 -0.4956
C6B C 0.8869(4) 0.6507(5) -0.4751(3)
H5B H 0.8256 0.7052 -0.5198
C7B C 1.0282(4) 0.6823(4) -0.4234(3)
H6B H 1.0598 0.7575 -0.4335
C8B C 1.1180(4) 0.6013(4) -0.3584(3)
C9B C 1.0721(5) 0.4866(4) -0.3414(3)
C10B C 1.3174(4) 0.7314(4) -0.3204(3)
H7B H 1.2900 0.7403 -0.3877
H8B H 1.2835 0.8020 -0.3000
C11B C 1.4733(4) 0.7242(4) -0.2647(3)
C12B C 0.4862(4) 1.2644(4) 0.0090(3)
C13B C 0.4923(3) 1.1270(4) 0.0043(2)
C14B C 0.4452(4) 1.0688(4) -0.0832(3)
H9B H 0.4088 1.1150 -0.1388
C15B C 0.5477(4) 1.0574(4) 0.0878(3)
H10B H 0.5798 1.0961 0.1465
C16B C 1.2455(4) 0.5207(3) -0.0280(3)
C17B C 1.1182(4) 0.5080(3) -0.0139(3)
C18B C 0.9860(4) 0.5176(4) -0.0909(3)
H11B H 0.9763 0.5282 -0.1519
C19B C 1.1309(4) 0.4884(3) 0.0772(3)
H12B H 1.2183 0.4793 0.1288
loop_
_geom_bond_atom_site_label_1
_geom_bond_atom_site_label_2
_geom_bond_site_symmetry_1
_geom_bond_site_symmetry_2
Eu1 O1 1_555 1_555
O1 C8 1_555 1_555
O2 Eu1 1_555 1_555
O3 C11 1_555 1_555
O4 C12 1_555 1_555
O5 Eu1 1_555 1_555
O6 C16 1_555 1_555
O7 Eu1 1_555 1_555
N1 Eu1 1_555 1_555
C1 N1 1_555 1_555
H1 C1 1_555 1_555
C2 C1 1_555 1_555
H2 C2 1_555 1_555
C3 C2 1_555 1_555
H3 C3 1_555 1_555
C4 C3 1_555 1_555
C5 C4 1_555 1_555
H4 C5 1_555 1_555
C6 C5 1_555 1_555
H5 C6 1_555 1_555
C7 C6 1_555 1_555
H6 C7 1_555 1_555
C8 C7 1_555 1_555
C9 N1 1_555 1_555
C10 O1 1_555 1_555
H7 C10 1_555 1_555
H8 C10 1_555 1_555
C11 O2 1_555 1_555
C12 O5 1_555 1_555
C13 C12 1_555 1_555
C14 C13 1_555 1_555
H9 C14 1_555 1_555
C15 C13 1_555 1_555
H10 C15 1_555 1_555
C16 O7 1_555 1_555
C17 C16 1_555 1_555
C18 C17 1_555 1_555
H11 C18 1_555 1_555
C19 C17 1_555 1_555
H12 C19 1_555 1_555
Eu1B O4 1_555 1_555
Eu1_2 O4B 1_555 1_555
Eu1_3 O6B 1_555 1_555
Eu1A O3 1_555 1_555
Eu1B_2 O5B 1_555 1_555
Eu1B_3 O1B 1_555 1_555
Eu1C O3B 1_555 1_555
O1B C8B 1_555 1_555
O2B Eu1B_3 1_555 1_555
O3A Eu1 1_555 1_555
O3C Eu1B_3 1_555 1_555
O3B C11B 1_555 1_555
O4B C12B 1_555 1_555
O4B_2 Eu1 1_555 1_555
O4_2 Eu1B_3 1_555 1_555
O5B C12B 1_555 1_555
O5B_2 Eu1B_3 1_555 1_555
O6B C16B 1_555 1_555
O6B_2 Eu1 1_555 1_555
O6_2 Eu1B_3 1_555 1_555
O7B Eu1B_3 1_555 1_555
N1B Eu1B_3 1_555 1_555
C1B N1B 1_555 1_555
H1B C1B 1_555 1_555
C2B C1B 1_555 1_555
H2B C2B 1_555 1_555
C3B C2B 1_555 1_555
H3B C3B 1_555 1_555
C4B C3B 1_555 1_555
C5B C4B 1_555 1_555
H4B C5B 1_555 1_555
C6B C5B 1_555 1_555
H5B C6B 1_555 1_555
C7B C6B 1_555 1_555
H6B C7B 1_555 1_555
C8B C7B 1_555 1_555
C9B N1B 1_555 1_555
C10B O1B 1_555 1_555
H7B C10B 1_555 1_555
H8B C10B 1_555 1_555
C11B O2B 1_555 1_555
C12B C13B 1_555 1_555
C13B C14B 1_555 1_555
C14B C15 1_555 1_555
H9B C14B 1_555 1_555
C15B C14 1_555 1_555
H10B C15B 1_555 1_555
C16B O7B 1_555 1_555
C17B C16B 1_555 1_555
C18B C19 1_555 1_555
H11B C18B 1_555 1_555
C19B C18 1_555 1_555
H12B C19B 1_555 1_555
O6 Eu1B 1_555 1_555
C4 C9 1_555 1_555
C8 C9 1_555 1_555
C10 C11 1_555 1_555
C4B C9B 1_555 1_555
C8B C9B 1_555 1_555
C10B C11B 1_555 1_555
C13B C15B 1_555 1_555
C17B C18B 1_555 1_555
C17B C19B 1_555 1_555

#END
