
#######################################################################
#
#                 Cambridge Crystallographic Data Centre
#                                CCDC 
#
#######################################################################
#
# If this CIF has been generated from an entry in the Cambridge 
# Structural Database, then it will include bibliographic, chemical, 
# crystal, experimental, refinement or atomic coordinate data resulting 
# from the CCDC's data processing and validation procedures.
#
#######################################################################

data_BUQPAG
_symmetry_cell_setting           monoclinic
_symmetry_space_group_name_H-M   'P 21/n'
_symmetry_Int_Tables_number      14
_space_group_name_Hall           '-P 2yn'
loop_
_symmetry_equiv_pos_site_id
_symmetry_equiv_pos_as_xyz
1 x,y,z
2 1/2-x,1/2+y,1/2-z
3 -x,-y,-z
4 1/2+x,1/2-y,1/2+z
_cell_length_a                   14.312(6)
_cell_length_b                   10.558(4)
_cell_length_c                   24.706(10)
_cell_angle_alpha                90
_cell_angle_beta                 100.821(6)
_cell_angle_gamma                90
_cell_volume                     3666.84
loop_
_atom_site_label
_atom_site_type_symbol
_atom_site_fract_x
_atom_site_fract_y
_atom_site_fract_z
O1 O 0.1032(7) 0.9394(10) 0.4919(3)
H1 H 0.1030 0.8780 0.5141
H2 H 0.0635 0.9238 0.4625
O2 O 0.9909(8) -0.0745(8) 0.3949(4)
N1 N 0.9715(5) 0.0110(8) 0.3674(3)
O3 O 0.8947(4) 0.0325(4) 0.3463(2)
O4 O 1.0315(5) 0.088(1) 0.3607(4)
N2 N 0.3167(3) 0.1656(3) 0.3580(2)
C1 C 0.3750(3) 0.2479(4) 0.3893(2)
H3 H 0.4179 0.2940 0.3731
C2 C 0.2551(3) 0.1019(4) 0.3821(2)
H4 H 0.2137 0.0454 0.3609
O5 O 0.1479(2) 1.0415(3) 0.2503(2)
N3 N 0.1592(3) 0.9255(4) 0.2510(2)
O6 O 0.2357(2) 0.8778(3) 0.2739(1)
N4 N 0.6321(3) 1.2635(3) 0.4692(1)
C3 C 0.6322(3) 1.3524(4) 0.5079(2)
H5 H 0.6488 1.4347 0.5002
C4 C 0.6083(3) 1.1465(4) 0.4818(2)
H6 H 0.6085 1.0829 0.4558
Ag1 Ag 0.3183 0.6992 0.6112
Ag2 Ag 0.1778 0.6334 0.2299
S1 S 0.1341(1) 0.7085(1) 0.6009
S2 S 0.4117(1) 0.4757(1) 0.6327
S3 S 0.4332(1) 0.8801(1) 0.6706
N5 N 0.3086(3) 0.2649(3) 0.6377(1)
C5 C 0.4841(3) 1.0322(4) 0.6724(2)
C6 C 0.3923(3) 0.8703(4) 0.7351(2)
H7 H 0.4394 0.9069 0.7642
H8 H 0.3337 0.9180 0.7327
N6 N 0.3039(2) 0.6663(3) 0.7071(1)
C7 C 0.3103(3) 0.1999(4) 0.4695(2)
C8 C 0.4008(3) 0.4683(4) 0.7039(2)
H9 H 0.4023 0.3802 0.7151
H10 H 0.4555 0.5098 0.7259
N7 N 0.3498(2) 0.3242(3) 0.5517(1)
C9 C 0.5430(3) 1.2071(4) 0.7166(2)
H11 H 0.5543 1.2579 0.7479
N8 N 0.1552(3) 0.5777(4) 0.3125(2)
C10 C 0.5760(3) 1.2476(4) 0.6705(2)
H12 H 0.6101 1.3227 0.6708
C11 C 0.5839(3) 1.2071(4) 0.5711(2)
C12 C 0.1321(3) 0.5166(4) 0.4196(2)
N9 N 0.1342(3) 0.5875(4) 0.5111(2)
C13 C 0.2650(3) 0.1324(4) 0.5591(2)
H13 H 0.2361 0.0591 0.5431
N10 N 0.1058(3) 0.4568(4) 0.5853(2)
O7 O 0.0922(2) 0.8549(3) 0.2293(2)
N11 N 0.4958(3) 1.0987(3) 0.7184(1)
C14 C 0.5836(3) 1.1153(4) 0.5312(2)
H14 H 0.5667 1.0324 0.5378
C15 C 0.3083(3) 0.2187(4) 0.5288(2)
C16 C 0.2083(3) 0.7094(4) 0.7125(2)
H15 H 0.2074 0.8012 0.7110
H16 H 0.1975 0.6848 0.7486
C17 C 0.3753(3) 0.7333(4) 0.7484(2)
H17 H 0.4352 0.6882 0.7523
H18 H 0.3550 0.7300 0.7837
N12 N 0.5092(2) 1.0631(3) 0.6248(1)
C18 C 0.1217(3) 0.4883(5) 0.4765(2)
C19 C 0.3114(3) 0.5287(4) 0.7166(2)
H19 H 0.2568 0.4881 0.6941
H20 H 0.3086 0.5121 0.7549
C20 C 0.1242(3) 0.5665(5) 0.5630(2)
C21 C 0.3487(3) 0.3398(4) 0.6050(2)
C22 C 0.5565(3) 1.1730(4) 0.6243(2)
C23 C 0.1268(3) 0.6604(5) 0.6700(2)
H21 H 0.0675 0.6910 0.6788
H22 H 0.1260 0.5686 0.6717
C24 C 0.6093(3) 1.3287(4) 0.5584(2)
H23 H 0.6106 1.3938 0.5840
C25 C 0.0935(3) 0.3585(5) 0.5496(2)
H24 H 0.0804 0.2791 0.5628
C26 C 0.1593(3) 0.4588(5) 0.3307(2)
H25 H 0.1711 0.3952 0.3068
C27 C 0.2670(3) 0.1606(4) 0.6136(2)
H26 H 0.2383 0.1048 0.6346
C28 C 0.1473(3) 0.4240(5) 0.3825(2)
H27 H 0.1494 0.3391 0.3926
C29 C 0.2499(3) 0.1158(4) 0.4366(2)
H28 H 0.2060 0.0689 0.4515
C30 C 0.0994(3) 0.3699(5) 0.4949(2)
H29 H 0.0889 0.3009 0.4711
C31 C 0.1270(4) 0.6416(5) 0.4008(2)
H30 H 0.1168 0.7070 0.4242
C32 C 0.3739(3) 0.2666(4) 0.4439(2)
H31 H 0.4157 0.3242 0.4641
C33 C 0.1370(4) 0.6678(5) 0.3482(2)
H32 H 0.1312 0.7515 0.3363
N2A N 0.1833(3) 0.6656(3) 0.1420(2)
O5A O 0.3521(2) 0.5415(3) 0.2497(2)
N4B N 0.3679(3) 0.7365(3) 0.5308(1)
Ag1B Ag 0.6817 1.3008 0.3888
Ag2A Ag 0.3222 0.1334 0.2701
Ag2A_2 Ag 0.3222 1.1334 0.2701
loop_
_geom_bond_atom_site_label_1
_geom_bond_atom_site_label_2
_geom_bond_site_symmetry_1
_geom_bond_site_symmetry_2
O1 H1 1_555 1_555
H2 O1 1_555 1_555
O2 N1 1_555 1_555
N1 O3 1_555 1_555
O4 N1 1_555 1_555
N2 C1 1_555 1_555
C1 H3 1_555 1_555
C2 N2 1_555 1_555
H4 C2 1_555 1_555
O5 N3 1_555 1_555
N3 O6 1_555 1_555
N4 C3 1_555 1_555
C3 H5 1_555 1_555
C4 N4 1_555 1_555
H6 C4 1_555 1_555
Ag1 S1 1_555 1_555
Ag2 N8 1_555 1_555
S1 C20 1_555 1_555
S2 Ag1 1_555 1_555
S3 Ag1 1_555 1_555
N5 C21 1_555 1_555
C5 S3 1_555 1_555
C6 S3 1_555 1_555
H7 C6 1_555 1_555
H8 C6 1_555 1_555
N6 Ag1 1_555 1_555
C7 C15 1_555 1_555
C8 S2 1_555 1_555
H9 C8 1_555 1_555
H10 C8 1_555 1_555
N7 C15 1_555 1_555
C9 H11 1_555 1_555
N8 C26 1_555 1_555
C10 C9 1_555 1_555
H12 C10 1_555 1_555
C11 C14 1_555 1_555
C12 C18 1_555 1_555
N9 C18 1_555 1_555
C13 H13 1_555 1_555
N10 C20 1_555 1_555
O7 N3 1_555 1_555
N11 C5 1_555 1_555
C14 C4 1_555 1_555
H14 C14 1_555 1_555
C15 C13 1_555 1_555
C16 N6 1_555 1_555
H15 C16 1_555 1_555
H16 C16 1_555 1_555
C17 C6 1_555 1_555
H17 C17 1_555 1_555
H18 C17 1_555 1_555
N12 C5 1_555 1_555
C18 C30 1_555 1_555
C19 N6 1_555 1_555
H19 C19 1_555 1_555
H20 C19 1_555 1_555
C20 N9 1_555 1_555
C21 S2 1_555 1_555
C22 C10 1_555 1_555
C23 S1 1_555 1_555
H21 C23 1_555 1_555
H22 C23 1_555 1_555
C24 C3 1_555 1_555
H23 C24 1_555 1_555
C25 N10 1_555 1_555
H24 C25 1_555 1_555
C26 H25 1_555 1_555
C27 N5 1_555 1_555
H26 C27 1_555 1_555
C28 C12 1_555 1_555
H27 C28 1_555 1_555
C29 C2 1_555 1_555
H28 C29 1_555 1_555
C30 C25 1_555 1_555
H29 C30 1_555 1_555
C31 C12 1_555 1_555
H30 C31 1_555 1_555
C32 C1 1_555 1_555
H31 C32 1_555 1_555
C33 N8 1_555 1_555
H32 C33 1_555 1_555
N2A Ag2 1_555 1_555
O5A Ag2 1_555 1_555
N4B Ag1 1_555 1_555
Ag1B N4 1_555 1_555
Ag2A N2 1_555 1_555
Ag2A_2 O5 1_555 1_555
Ag2 O7 1_555 1_555
N6 C17 1_555 1_555
C7 C29 1_555 1_555
C7 C32 1_555 1_555
C8 C19 1_555 1_555
N7 C21 1_555 1_555
C9 N11 1_555 1_555
C11 C22 1_555 1_555
C11 C24 1_555 1_555
C13 C27 1_555 1_555
C16 C23 1_555 1_555
N12 C22 1_555 1_555
C26 C28 1_555 1_555
C31 C33 1_555 1_555

#END
