
#######################################################################
#
#                 Cambridge Crystallographic Data Centre
#                                CCDC 
#
#######################################################################
#
# If this CIF has been generated from an entry in the Cambridge 
# Structural Database, then it will include bibliographic, chemical, 
# crystal, experimental, refinement or atomic coordinate data resulting 
# from the CCDC's data processing and validation procedures.
#
#######################################################################

data_BUQPUA
_symmetry_cell_setting           triclinic
_symmetry_space_group_name_H-M   'P -1'
_symmetry_Int_Tables_number      2
_space_group_name_Hall           '-P 1'
loop_
_symmetry_equiv_pos_site_id
_symmetry_equiv_pos_as_xyz
1 x,y,z
2 -x,-y,-z
_cell_length_a                   8.1423(11)
_cell_length_b                   12.1394(17)
_cell_length_c                   14.1752(19)
_cell_angle_alpha                101.781(2)
_cell_angle_beta                 91.508(2)
_cell_angle_gamma                109.011(2)
_cell_volume                     1290.25
loop_
_atom_site_label
_atom_site_type_symbol
_atom_site_fract_x
_atom_site_fract_y
_atom_site_fract_z
C1 C 0.4491(8) 0.7338(5) 0.4112(4)
H1 H 0.4203 0.7831 0.4626
C2 C 0.3975(8) 0.6141(5) 0.4089(4)
H2 H 0.3342 0.5834 0.4569
C3 C 0.4404(8) 0.5409(5) 0.3350(4)
H3 H 0.4098 0.4595 0.3329
C4 C 0.5305(7) 0.5887(5) 0.2626(4)
C5 C 0.5811(7) 0.5151(5) 0.1815(4)
C6 C 0.6054(8) 0.3368(5) 0.1054(4)
C7 C 0.5717(10) 0.2083(6) 0.1038(5)
H4 H 0.5936 0.1996 0.1690
H5 H 0.4500 0.1631 0.0815
C8 C 0.6815(18) 0.1598(9) 0.0407(7)
H6 H 0.7960 0.1836 0.0758
H7 H 0.6329 0.0732 0.0282
C9 C 0.7041(13) 0.1925(7) -0.0489(6)
H8 H 0.5942 0.1546 -0.0895
H9 H 0.7888 0.1606 -0.0800
C10 C 0.7620(10) 0.3219(6) -0.0452(5)
H10 H 0.7232 0.3339 -0.1064
H11 H 0.8886 0.3533 -0.0375
C11 C 0.6951(8) 0.3904(5) 0.0347(4)
C12 C 0.6731(7) 0.5696(5) 0.1107(4)
C13 C 0.7141(7) 0.6963(5) 0.1164(4)
C14 C 0.7965(8) 0.7523(5) 0.0464(4)
H12 H 0.8213 0.7077 -0.0094
C15 C 0.8410(9) 0.8730(6) 0.0595(4)
H13 H 0.8946 0.9115 0.0124
C16 C 0.8055(8) 0.9379(5) 0.1440(4)
H14 H 0.8416 1.0207 0.1539
C17 C 0.6749(6) 0.7676(4) 0.1983(3)
C18 C 0.5780(6) 0.7115(5) 0.2709(3)
C19 C 0.8329(8) 1.2623(5) 0.3443(4)
C20 C 0.9139(8) 1.3872(5) 0.3293(4)
H15 H 1.0400 1.4115 0.3407
H16 H 0.8847 1.3883 0.2628
C21 C 0.9095(8) 1.5876(5) 0.3846(4)
C22 C 1.0041(8) 1.6281(5) 0.3128(4)
H17 H 1.0367 1.5751 0.2663
C23 C 0.8617(8) 1.6676(6) 0.4530(4)
H18 H 0.7958 1.6408 0.5015
C24 C 0.9110(8) 1.7872(6) 0.4498(4)
H19 H 0.8811 1.8410 0.4969
C25 C 1.0520(7) 1.7475(5) 0.3085(4)
H20 H 1.1165 1.7737 0.2593
C26 C 1.0059(6) 1.8263(5) 0.3754(4)
C27 C 1.1597(7) 1.9937(5) 0.3117(4)
H21 H 1.1594 2.0733 0.3108
H22 H 1.1210 1.9444 0.2468
C28 C 1.3458(7) 2.0007(4) 0.3393(4)
N1 N 0.5372(6) 0.7840(4) 0.3451(3)
N2 N 0.7217(6) 0.8864(4) 0.2115(3)
N3 N 0.5466(6) 0.3992(4) 0.1779(3)
N4 N 0.7248(6) 0.5047(4) 0.0360(3)
O1 O 0.8897(6) 1.1853(4) 0.2970(3)
O2 O 0.7160(6) 1.2403(4) 0.3982(3)
O3 O 1.3897(5) 2.0049(4) 0.4245(3)
O4 O 1.4474(5) 2.0041(4) 0.2741(3)
O5 O 0.8522(6) 1.4713(4) 0.3946(3)
O6 O 1.0405(5) 1.9459(3) 0.3757(3)
Pb1 Pb 0.69437(2) 1.015700(17) 0.379297(13)
O3_2 O 0.3897(5) 1.0049(4) 0.4245(3)
O3A O 0.6103(5) 0.9951(4) 0.5755(3)
O4_2 O 0.4474(5) 1.0041(4) 0.2741(3)
Pb1_2 Pb 1.69437(2) 2.015700(17) 0.379297(13)
Pb1A Pb 1.30563(2) 1.984300(17) 0.620703(13)
O7 O 1.1437(9) 1.2306(7) 0.1757(4)
H23 H 1.1595 1.1834 0.1264
H24 H 1.2432 1.2797 0.2008
O8 O 0.401(3) 0.2811(17) 0.347(2)
H25 H 0.3136 0.2467 0.3738
H26 H 0.4804 0.2542 0.3539
loop_
_geom_bond_atom_site_label_1
_geom_bond_atom_site_label_2
_geom_bond_site_symmetry_1
_geom_bond_site_symmetry_2
C1 H1 1_555 1_555
C2 C1 1_555 1_555
H2 C2 1_555 1_555
C3 C2 1_555 1_555
H3 C3 1_555 1_555
C4 C3 1_555 1_555
C5 C4 1_555 1_555
C6 C7 1_555 1_555
C7 H4 1_555 1_555
H5 C7 1_555 1_555
C8 C7 1_555 1_555
H6 C8 1_555 1_555
H7 C8 1_555 1_555
C9 C8 1_555 1_555
H8 C9 1_555 1_555
H9 C9 1_555 1_555
C10 C9 1_555 1_555
H10 C10 1_555 1_555
H11 C10 1_555 1_555
C11 C6 1_555 1_555
C12 C5 1_555 1_555
C13 C12 1_555 1_555
C14 C13 1_555 1_555
H12 C14 1_555 1_555
C15 C14 1_555 1_555
H13 C15 1_555 1_555
C16 C15 1_555 1_555
H14 C16 1_555 1_555
C17 C13 1_555 1_555
C18 C4 1_555 1_555
C19 C20 1_555 1_555
C20 H15 1_555 1_555
H16 C20 1_555 1_555
C21 C22 1_555 1_555
C22 H17 1_555 1_555
C23 C21 1_555 1_555
H18 C23 1_555 1_555
C24 C23 1_555 1_555
H19 C24 1_555 1_555
C25 C22 1_555 1_555
H20 C25 1_555 1_555
C26 C24 1_555 1_555
C27 H21 1_555 1_555
H22 C27 1_555 1_555
C28 C27 1_555 1_555
N1 C1 1_555 1_555
N2 C16 1_555 1_555
N3 C5 1_555 1_555
N4 C11 1_555 1_555
O1 C19 1_555 1_555
O2 C19 1_555 1_555
O3 C28 1_555 1_555
O4 C28 1_555 1_555
O5 C20 1_555 1_555
O6 C26 1_555 1_555
Pb1 N1 1_555 1_555
O7 H23 1_555 1_555
H24 O7 1_555 1_555
O8 H25 1_555 1_555
H26 O8 1_555 1_555
O3_2 Pb1 1_555 1_555
O3A Pb1 1_555 1_555
O4_2 Pb1 1_555 1_555
Pb1_2 O3 1_555 1_555
Pb1A O3 1_555 1_555
C6 N3 1_555 1_555
C10 C11 1_555 1_555
C12 N4 1_555 1_555
C17 C18 1_555 1_555
C17 N2 1_555 1_555
C18 N1 1_555 1_555
C21 O5 1_555 1_555
C25 C26 1_555 1_555
C27 O6 1_555 1_555
N2 Pb1 1_555 1_555
O1 Pb1 1_555 1_555
O2 Pb1 1_555 1_555
O4 Pb1_2 1_555 1_555

#END
