
#######################################################################
#
#                 Cambridge Crystallographic Data Centre
#                                CCDC 
#
#######################################################################
#
# If this CIF has been generated from an entry in the Cambridge 
# Structural Database, then it will include bibliographic, chemical, 
# crystal, experimental, refinement or atomic coordinate data resulting 
# from the CCDC's data processing and validation procedures.
#
#######################################################################

data_BUQPEJ
_symmetry_cell_setting           monoclinic
_symmetry_space_group_name_H-M   'P 21/c'
_symmetry_Int_Tables_number      14
_space_group_name_Hall           '-P 2ybc'
loop_
_symmetry_equiv_pos_site_id
_symmetry_equiv_pos_as_xyz
1 x,y,z
2 -x,1/2+y,1/2-z
3 -x,-y,-z
4 x,1/2-y,1/2+z
_cell_length_a                   10.8836(2)
_cell_length_b                   10.9362(2)
_cell_length_c                   15.8323(2)
_cell_angle_alpha                90
_cell_angle_beta                 117.4440(10)
_cell_angle_gamma                90
_cell_volume                     1672.37
loop_
_atom_site_label
_atom_site_type_symbol
_atom_site_fract_x
_atom_site_fract_y
_atom_site_fract_z
Sm1 Sm 0.088163(15) 0.510319(12) 0.157605(10)
O1 O 0.2416(2) 0.3786(2) 0.30471(16)
O2 O -0.0251(2) 0.3733(2) 0.22518(16)
O3 O -0.0349(3) 0.1786(2) 0.26615(17)
O4 O 0.2720(2) 0.4739(2) 0.11208(16)
O5 O 0.1409(2) 0.4729(2) -0.04521(16)
O6 O 0.0565(2) 0.31291(19) 0.08841(16)
O7 O -0.0877(2) 0.31873(19) -0.06751(16)
N1 N 0.3338(3) 0.5908(2) 0.27803(19)
C1 C 0.3790(4) 0.6938(3) 0.2610(3)
H1 H 0.3150 0.7475 0.2173
C2 C 0.5190(4) 0.7275(3) 0.3052(3)
H2 H 0.5466 0.8007 0.2892
C3 C 0.6129(4) 0.6535(4) 0.3708(3)
H3 H 0.7057 0.6763 0.4018
C4 C 0.5706(4) 0.5404(3) 0.3927(2)
C5 C 0.6618(4) 0.4561(4) 0.4611(3)
H4 H 0.7552 0.4750 0.4964
C6 C 0.6130(4) 0.3485(4) 0.4751(3)
H5 H 0.6739 0.2939 0.5198
C7 C 0.4722(4) 0.3170(3) 0.4234(2)
H6 H 0.4410 0.2419 0.4334
C8 C 0.3820(3) 0.3973(3) 0.3588(2)
C9 C 0.4284(3) 0.5123(3) 0.3422(2)
C10 C 0.1843(4) 0.2682(3) 0.3212(2)
H7 H 0.2119 0.2596 0.3885
H8 H 0.2185 0.1980 0.3010
C11 C 0.0281(4) 0.2744(3) 0.2654(2)
C12 C 0.2561(3) 0.4794(3) 0.0289(2)
C13 C 0.3832(3) 0.4921(3) 0.0142(2)
C14 C 0.3687(3) 0.5111(3) -0.0766(2)
H9 H 0.2810 0.5194 -0.1280
C15 C 0.5144(3) 0.4823(3) 0.0908(2)
H10 H 0.5243 0.4713 0.1518
C16 C -0.0133(3) 0.2636(3) 0.0092(2)
C17 C -0.0071(3) 0.1267(3) 0.0048(2)
C18 C 0.0478(3) 0.0570(3) 0.0877(2)
H11 H 0.0801 0.0951 0.1466
C19 C -0.0546(3) 0.0683(3) -0.0826(2)
H12 H -0.0913 0.1144 -0.1383
Sm1A Sm -0.088163(15) 0.010319(12) 0.342395(10)
Sm1B Sm -0.088163(15) 0.489681(12) -0.157605(10)
Sm1B_2 Sm 0.911837(15) 0.489681(12) -0.157605(10)
Sm1_2 Sm 1.088163(15) 0.510319(12) 0.157605(10)
Sm1B_3 Sm -0.088163(15) -0.510319(12) -0.157605(10)
Sm1_3 Sm 0.088163(15) -0.489681(12) 0.157605(10)
Sm1A_2 Sm 0.911837(15) 0.010319(12) 0.342395(10)
O1_2 O 1.2416(2) 0.3786(2) 0.30471(16)
O2_2 O 0.9749(2) 0.3733(2) 0.22518(16)
O3A O 0.0349(3) 0.6786(2) 0.23385(17)
O3A_2 O 1.0349(3) 0.6786(2) 0.23385(17)
O3_2 O 0.9651(3) 0.1786(2) 0.26615(17)
O4B O 0.7280(2) 0.5261(2) -0.11208(16)
O4_2 O 1.2720(2) 0.4739(2) 0.11208(16)
O5B O 0.8591(2) 0.5271(2) 0.04521(16)
O5B_2 O -0.1409(2) 0.5271(2) 0.04521(16)
O6B O -0.0565(2) -0.31291(19) -0.08841(16)
O6_2 O 1.0565(2) 0.31291(19) 0.08841(16)
O7B O 0.0877(2) -0.31873(19) 0.06751(16)
O7B_2 O 0.0877(2) 0.68127(19) 0.06751(16)
O7B_3 O 1.0877(2) 0.68127(19) 0.06751(16)
N1_2 N 1.3338(3) 0.5908(2) 0.27803(19)
C1_2 C 1.3790(4) 0.6938(3) 0.2610(3)
H1_2 H 1.3150 0.7475 0.2173
C2_2 C 1.5190(4) 0.7275(3) 0.3052(3)
H2_2 H 1.5466 0.8007 0.2892
C3_2 C 1.6129(4) 0.6535(4) 0.3708(3)
H3_2 H 1.7057 0.6763 0.4018
C4_2 C 1.5706(4) 0.5404(3) 0.3927(2)
C5_2 C 1.6618(4) 0.4561(4) 0.4611(3)
H4_2 H 1.7552 0.4750 0.4964
C6_2 C 1.6130(4) 0.3485(4) 0.4751(3)
H5_2 H 1.6739 0.2939 0.5198
C7_2 C 1.4722(4) 0.3170(3) 0.4234(2)
H6_2 H 1.4410 0.2419 0.4334
C8_2 C 1.3820(3) 0.3973(3) 0.3588(2)
C9_2 C 1.4284(3) 0.5123(3) 0.3422(2)
C10_2 C 1.1843(4) 0.2682(3) 0.3212(2)
H7_2 H 1.2119 0.2596 0.3885
H8_2 H 1.2185 0.1980 0.3010
C11_2 C 1.0281(4) 0.2744(3) 0.2654(2)
C12B C 0.7439(3) 0.5206(3) -0.0289(2)
C13B C 0.6168(3) 0.5079(3) -0.0142(2)
C14B C 0.6313(3) 0.4889(3) 0.0766(2)
H9B H 0.7190 0.4806 0.1280
C15B C 0.4856(3) 0.5177(3) -0.0908(2)
H10B H 0.4757 0.5287 -0.1518
C16B C 0.0133(3) -0.2636(3) -0.0092(2)
C17B C 0.0071(3) -0.1267(3) -0.0048(2)
C18B C -0.0478(3) -0.0570(3) -0.0877(2)
H11B H -0.0801 -0.0951 -0.1466
C19B C 0.0546(3) -0.0683(3) 0.0826(2)
H12B H 0.0913 -0.1144 0.1383
loop_
_geom_bond_atom_site_label_1
_geom_bond_atom_site_label_2
_geom_bond_site_symmetry_1
_geom_bond_site_symmetry_2
Sm1 O1 1_555 1_555
O1 C8 1_555 1_555
O2 Sm1 1_555 1_555
O3 C11 1_555 1_555
O4 Sm1 1_555 1_555
O5 C12 1_555 1_555
O6 Sm1 1_555 1_555
O7 C16 1_555 1_555
N1 Sm1 1_555 1_555
C1 N1 1_555 1_555
H1 C1 1_555 1_555
C2 C1 1_555 1_555
H2 C2 1_555 1_555
C3 C2 1_555 1_555
H3 C3 1_555 1_555
C4 C3 1_555 1_555
C5 C4 1_555 1_555
H4 C5 1_555 1_555
C6 C5 1_555 1_555
H5 C6 1_555 1_555
C7 C6 1_555 1_555
H6 C7 1_555 1_555
C8 C7 1_555 1_555
C9 N1 1_555 1_555
C10 O1 1_555 1_555
H7 C10 1_555 1_555
H8 C10 1_555 1_555
C11 O2 1_555 1_555
C12 O4 1_555 1_555
C13 C12 1_555 1_555
C14 C13 1_555 1_555
H9 C14 1_555 1_555
C15 C13 1_555 1_555
H10 C15 1_555 1_555
C16 O6 1_555 1_555
C17 C16 1_555 1_555
C18 C17 1_555 1_555
H11 C18 1_555 1_555
C19 C17 1_555 1_555
H12 C19 1_555 1_555
Sm1A O3 1_555 1_555
Sm1B O5 1_555 1_555
Sm1B_2 O4B 1_555 1_555
Sm1_2 O1_2 1_555 1_555
Sm1B_3 O6B 1_555 1_555
Sm1_3 O7B 1_555 1_555
Sm1A_2 O3_2 1_555 1_555
O1_2 C8_2 1_555 1_555
O2_2 Sm1_2 1_555 1_555
O3A Sm1 1_555 1_555
O3A_2 Sm1_2 1_555 1_555
O3_2 C11_2 1_555 1_555
O4B C12B 1_555 1_555
O4_2 Sm1_2 1_555 1_555
O5B Sm1_2 1_555 1_555
O5B_2 Sm1 1_555 1_555
O6B C16B 1_555 1_555
O6_2 Sm1_2 1_555 1_555
O7B C16B 1_555 1_555
O7B_2 Sm1 1_555 1_555
O7B_3 Sm1_2 1_555 1_555
N1_2 Sm1_2 1_555 1_555
C1_2 N1_2 1_555 1_555
H1_2 C1_2 1_555 1_555
C2_2 C1_2 1_555 1_555
H2_2 C2_2 1_555 1_555
C3_2 C2_2 1_555 1_555
H3_2 C3_2 1_555 1_555
C4_2 C3_2 1_555 1_555
C5_2 C4_2 1_555 1_555
H4_2 C5_2 1_555 1_555
C6_2 C5_2 1_555 1_555
H5_2 C6_2 1_555 1_555
C7_2 C6_2 1_555 1_555
H6_2 C7_2 1_555 1_555
C8_2 C7_2 1_555 1_555
C9_2 N1_2 1_555 1_555
C10_2 O1_2 1_555 1_555
H7_2 C10_2 1_555 1_555
H8_2 C10_2 1_555 1_555
C11_2 O2_2 1_555 1_555
C12B O5B 1_555 1_555
C13B C12B 1_555 1_555
C14B C15 1_555 1_555
H9B C14B 1_555 1_555
C15B C14 1_555 1_555
H10B C15B 1_555 1_555
C16B C17B 1_555 1_555
C17B C18B 1_555 1_555
C18B C19 1_555 1_555
H11B C18B 1_555 1_555
C19B C18 1_555 1_555
H12B C19B 1_555 1_555
O7 Sm1B 1_555 1_555
C4 C9 1_555 1_555
C8 C9 1_555 1_555
C10 C11 1_555 1_555
C4_2 C9_2 1_555 1_555
C8_2 C9_2 1_555 1_555
C10_2 C11_2 1_555 1_555
C13B C14B 1_555 1_555
C13B C15B 1_555 1_555
C17B C19B 1_555 1_555

#END
