
#######################################################################
#
#                 Cambridge Crystallographic Data Centre
#                                CCDC 
#
#######################################################################
#
# If this CIF has been generated from an entry in the Cambridge 
# Structural Database, then it will include bibliographic, chemical, 
# crystal, experimental, refinement or atomic coordinate data resulting 
# from the CCDC's data processing and validation procedures.
#
#######################################################################

data_BUQQIP
_symmetry_cell_setting           monoclinic
_symmetry_space_group_name_H-M   'P 21/c'
_symmetry_Int_Tables_number      14
_space_group_name_Hall           '-P 2ybc'
loop_
_symmetry_equiv_pos_site_id
_symmetry_equiv_pos_as_xyz
1 x,y,z
2 -x,1/2+y,1/2-z
3 -x,-y,-z
4 x,1/2-y,1/2+z
_cell_length_a                   13.087(3)
_cell_length_b                   13.021(3)
_cell_length_c                   6.3070(13)
_cell_angle_alpha                90
_cell_angle_beta                 90.56(3)
_cell_angle_gamma                90
_cell_volume                     1074.7
loop_
_atom_site_label
_atom_site_type_symbol
_atom_site_fract_x
_atom_site_fract_y
_atom_site_fract_z
Na1 Na -0.04754(15) 0.07917(19) 0.2550(3)
N1 N 0.3908(3) -0.1824(3) 0.1933(7)
C1 C 0.1949(3) 0.0144(3) 0.1268(7)
N2 N 0.1024(2) 0.0083(2) 0.0874(6)
H1 H 0.0756 -0.0509 0.0631
C2 C 0.2534(3) 0.1051(3) 0.1718(7)
N3 N 0.2209(3) -0.1723(3) 0.1018(6)
O1 O 0.1056(2) 0.1977(3) 0.1781(7)
N4 N 0.1992(3) 0.1991(3) 0.1668(6)
C3 C 0.3635(3) 0.1057(3) 0.2090(7)
O2 O 0.0125(3) 0.1077(3) 0.6062(6)
H2 H 0.0448 0.0573 0.6603
H3 H 0.0214 0.1646 0.6700
N5 N 0.4133(3) 0.1909(3) 0.2352(6)
H4 H 0.3813 0.2486 0.2307
H5 H 0.4782 0.1898 0.2570
C4 C 0.4160(3) 0.0068(3) 0.2266(8)
O3 O -0.2121(3) 0.0258(3) 0.3587(6)
H6 H -0.2609 0.0580 0.2989
H7 H -0.2161 -0.0370 0.3535
O4 O 0.2434(3) 0.2830(2) 0.1520(6)
N6 N 0.5214(3) 0.0003(3) 0.2618(6)
C5 C 0.3612(3) -0.0863(3) 0.1868(8)
O5 O 0.5746(2) 0.0794(2) 0.2944(5)
C6 C 0.2563(3) -0.0790(3) 0.1408(7)
O6 O 0.5600(3) -0.0856(3) 0.2753(6)
O7 O 0.3043(3) -0.2410(3) 0.1411(6)
O8 O 0.1378(3) -0.2102(3) 0.0546(7)
Na1B Na 0.04754(15) -0.07917(19) -0.2550(3)
Na1B_2 Na 0.04754(15) -0.07917(19) 0.7450(3)
N2B N -0.1024(2) -0.0083(2) -0.0874(6)
O2B O -0.0125(3) -0.1077(3) 0.3938(6)
O8B O -0.1378(3) 0.2102(3) -0.0546(7)
loop_
_geom_bond_atom_site_label_1
_geom_bond_atom_site_label_2
_geom_bond_site_symmetry_1
_geom_bond_site_symmetry_2
Na1 N2 1_555 1_555
N1 C5 1_555 1_555
C1 N2 1_555 1_555
N2 H1 1_555 1_555
C2 C1 1_555 1_555
N3 C6 1_555 1_555
O1 Na1 1_555 1_555
N4 C2 1_555 1_555
C3 C2 1_555 1_555
O2 Na1 1_555 1_555
H2 O2 1_555 1_555
H3 O2 1_555 1_555
N5 C3 1_555 1_555
H4 N5 1_555 1_555
H5 N5 1_555 1_555
C4 C3 1_555 1_555
O3 Na1 1_555 1_555
H6 O3 1_555 1_555
H7 O3 1_555 1_555
O4 N4 1_555 1_555
N6 C4 1_555 1_555
C5 C4 1_555 1_555
O5 N6 1_555 1_555
C6 C1 1_555 1_555
O6 N6 1_555 1_555
O7 N1 1_555 1_555
O8 N3 1_555 1_555
Na1B N2 1_555 1_555
Na1B_2 O2 1_555 1_555
N2B Na1 1_555 1_555
O2B Na1 1_555 1_555
O8B Na1 1_555 1_555
N3 O7 1_555 1_555
O1 N4 1_555 1_555
C5 C6 1_555 1_555
O8 Na1B 1_555 1_555
Na1B N2B 1_555 1_555
Na1B_2 O2B 1_555 1_555

#END
