
#######################################################################
#
#                 Cambridge Crystallographic Data Centre
#                                CCDC 
#
#######################################################################
#
# If this CIF has been generated from an entry in the Cambridge 
# Structural Database, then it will include bibliographic, chemical, 
# crystal, experimental, refinement or atomic coordinate data resulting 
# from the CCDC's data processing and validation procedures.
#
#######################################################################

data_BUQROV
_symmetry_cell_setting           tetragonal
_symmetry_space_group_name_H-M   'P 42/n'
_symmetry_Int_Tables_number      86
_space_group_name_Hall           '-P 4bc'
loop_
_symmetry_equiv_pos_site_id
_symmetry_equiv_pos_as_xyz
1 x,y,z
2 1/2-x,1/2-y,z
3 -y,1/2+x,1/2+z
4 1/2+y,-x,1/2+z
5 -x,-y,-z
6 1/2+x,1/2+y,-z
7 y,1/2-x,1/2-z
8 1/2-y,x,1/2-z
_cell_length_a                   12.7076(15)
_cell_length_b                   12.7076(15)
_cell_length_c                   7.7157(17)
_cell_angle_alpha                90
_cell_angle_beta                 90
_cell_angle_gamma                90
_cell_volume                     1245.96
loop_
_atom_site_label
_atom_site_type_symbol
_atom_site_fract_x
_atom_site_fract_y
_atom_site_fract_z
Zn1 Zn 0.50618(2) 0.71232(2) 0.12807(3)
O1 O 0.68488(13) 0.58788(13) 0.2090(2)
O2 O 0.42557(15) 0.59452(16) -0.0189(2)
H1 H 0.4151(17) 0.603(2) -0.1267(10)
H2 H 0.3650(7) 0.589(3) 0.025(2)
O3 O 0.63052(13) 0.67769(14) -0.0183(2)
C1 C 0.83885(18) 0.47952(18) -0.0079(3)
C2 C 0.7858(2) 0.57926(19) -0.0578(3)
H3 H 0.7599 0.5714 -0.1754
H4 H 0.8384 0.6346 -0.0593
C3 C 0.69487(18) 0.61598(17) 0.0546(3)
N1 N 0.88550(17) 0.41612(16) -0.1201(2)
N2 N 0.92564(16) 0.33759(16) -0.0223(3)
N3 N 0.90564(17) 0.35179(16) 0.1418(2)
N4 N 0.85033(16) 0.44239(15) 0.1543(2)
Zn1G Zn 0.78768(2) 0.50618(2) 0.37193(3)
Zn1E Zn 1.00618(2) 0.21232(2) -0.12807(3)
O1F O 0.58788(13) 0.81512(13) 0.2910(2)
N2E N 0.42564(16) 0.83759(16) 0.0223(3)
N4F N 0.44239(15) 0.64967(16) 0.3457(2)
loop_
_geom_bond_atom_site_label_1
_geom_bond_atom_site_label_2
_geom_bond_site_symmetry_1
_geom_bond_site_symmetry_2
Zn1 O2 1_555 1_555
O1 C3 1_555 1_555
O2 H1 1_555 1_555
H2 O2 1_555 1_555
O3 Zn1 1_555 1_555
C1 C2 1_555 1_555
C2 H3 1_555 1_555
H4 C2 1_555 1_555
C3 O3 1_555 1_555
N1 C1 1_555 1_555
N2 N1 1_555 1_555
N3 N2 1_555 1_555
N4 C1 1_555 1_555
Zn1G O1 1_555 1_555
Zn1E N2 1_555 1_555
O1F Zn1 1_555 1_555
N2E Zn1 1_555 1_555
N4F Zn1 1_555 1_555
C2 C3 1_555 1_555
N3 N4 1_555 1_555
N4 Zn1G 1_555 1_555

#END
