
#######################################################################
#
#                 Cambridge Crystallographic Data Centre
#                                CCDC 
#
#######################################################################
#
# If this CIF has been generated from an entry in the Cambridge 
# Structural Database, then it will include bibliographic, chemical, 
# crystal, experimental, refinement or atomic coordinate data resulting 
# from the CCDC's data processing and validation procedures.
#
#######################################################################

data_BUQVAL
_symmetry_cell_setting           orthorhombic
_symmetry_space_group_name_H-M   'P n a 21'
_symmetry_Int_Tables_number      33
_space_group_name_Hall           'P 2c -2n'
loop_
_symmetry_equiv_pos_site_id
_symmetry_equiv_pos_as_xyz
1 x,y,z
2 -x,-y,1/2+z
3 1/2+x,1/2-y,z
4 1/2-x,1/2+y,1/2+z
_cell_length_a                   31.5983(9)
_cell_length_b                   6.9132(2)
_cell_length_c                   11.6400(3)
_cell_angle_alpha                90
_cell_angle_beta                 90
_cell_angle_gamma                90
_cell_volume                     2542.7
loop_
_atom_site_label
_atom_site_type_symbol
_atom_site_fract_x
_atom_site_fract_y
_atom_site_fract_z
C1 C 0.58684(7) 0.2911(3) 0.5762(2)
C2 C 0.66375(7) 0.3716(3) 0.7876(2)
C3 C 0.33641(7) 0.1279(3) 0.2593(2)
C4 C 0.41239(7) 0.2120(3) 0.0461(2)
Cu1 Cu 0.493826(8) 0.25254(4) 0.27739(3)
Cu2 Cu 0.244390(8) 0.08390(4) 0.55938(3)
N1 N 0.54136(7) 0.2470(3) 0.44589(19)
N2 N 0.58160(6) 0.3029(3) 0.46288(18)
N3 N 0.55210(7) 0.2302(3) 0.63078(19)
N4 N 0.52383(6) 0.2036(3) 0.54571(18)
N5 N 0.62619(6) 0.3387(3) 0.62531(16)
N6 N 0.62521(6) 0.3265(3) 0.73356(17)
N7 N 0.70079(7) 0.4232(3) 0.74124(19)
N8 N 0.72626(7) 0.4520(3) 0.83176(19)
N9 N 0.70491(7) 0.4190(3) 0.92844(18)
N10 N 0.66521(6) 0.3669(3) 0.90266(18)
N11 N 0.29155(7) 0.0772(3) 0.3903(2)
N12 N 0.27343(6) 0.0410(3) 0.29000(19)
N13 N 0.30117(7) 0.0722(3) 0.20496(19)
N14 N 0.33171(6) 0.1334(3) 0.37355(18)
N15 N 0.37568(6) 0.1761(3) 0.20968(17)
N16 N 0.37414(6) 0.1693(3) 0.10124(17)
N17 N 0.44990(7) 0.2631(3) 0.09190(19)
N18 N 0.47511(6) 0.2857(3) 0.00036(19)
N19 N 0.45352(7) 0.2491(3) -0.09530(19)
N20 N 0.41364(7) 0.2039(3) -0.06847(18)
N21 N 0.53240(7) 0.0575(3) 0.1982(2)
H1 H 0.5179 -0.0029 0.1410
H2 H 0.5414 -0.0318 0.2503
H3 H 0.5552 0.1200 0.1680
N22 N 0.52604(7) 0.4752(3) 0.20665(18)
H4 H 0.5482 0.4285 0.1652
H5 H 0.5359 0.5541 0.2633
H6 H 0.5085 0.5434 0.1596
N23 N 0.45634(7) 0.4489(3) 0.35980(19)
H7 H 0.4442 0.5291 0.3072
H8 H 0.4723 0.5195 0.4095
H9 H 0.4357 0.3855 0.3994
N24 N 0.46136(7) 0.0287(3) 0.34718(18)
H10 H 0.4482 -0.0339 0.2949
H11 H 0.4758 -0.0370 0.3945
H12 H 0.4390 0.0480 0.3970
N25 N 0.21113(6) 0.3079(3) 0.49302(18)
H13 H 0.2268 0.3677 0.4379
H14 H 0.1867 0.2630 0.4615
H15 H 0.2049 0.3938 0.5498
N26 N 0.28391(7) 0.2801(3) 0.6367(2)
H16 H 0.2695 0.3453 0.6921
H17 H 0.3062 0.2167 0.6690
H18 H 0.2936 0.3653 0.5832
N27 N 0.27726(7) -0.1385(3) 0.63063(18)
H19 H 0.2843 -0.2253 0.5750
H20 H 0.3012 -0.0921 0.6641
H21 H 0.2610 -0.1977 0.6847
N28 N 0.20726(7) -0.1124(3) 0.47434(19)
H22 H 0.1912 -0.1785 0.5260
H23 H 0.1901 -0.0491 0.4241
H24 H 0.2240 -0.1968 0.4352
Cu2B Cu 0.744390(8) 0.41610(4) 0.55938(3)
N7B N 0.20079(7) 0.0768(3) 0.74124(19)
O1 O 0.61174(6) 0.4255(3) 0.09288(15)
H25 H 0.6193 0.3769 0.0293
H26 H 0.6097 0.5448 0.0760
O2 O 0.64731(5) 0.3465(3) 0.30605(15)
H27 H 0.6246 0.3554 0.3447
H28 H 0.6370 0.4015 0.2474
O3 O 0.63863(6) 0.9483(3) 0.25192(15)
H29 H 0.6247 0.9031 0.3084
H30 H 0.6396 1.0674 0.2698
O4 O 0.60572(5) 0.8156(3) 0.03916(16)
H31 H 0.6227 0.8401 -0.0156
H32 H 0.6124 0.8699 0.1021
loop_
_geom_bond_atom_site_label_1
_geom_bond_atom_site_label_2
_geom_bond_site_symmetry_1
_geom_bond_site_symmetry_2
C1 N2 1_555 1_555
C2 N6 1_555 1_555
C3 N13 1_555 1_555
C4 N16 1_555 1_555
Cu1 N1 1_555 1_555
Cu2 N11 1_555 1_555
N1 N2 1_555 1_555
N3 C1 1_555 1_555
N4 N1 1_555 1_555
N5 C1 1_555 1_555
N6 N5 1_555 1_555
N7 C2 1_555 1_555
N8 N7 1_555 1_555
N9 N8 1_555 1_555
N10 C2 1_555 1_555
N11 N12 1_555 1_555
N12 N13 1_555 1_555
N14 C3 1_555 1_555
N15 C3 1_555 1_555
N16 N15 1_555 1_555
N17 C4 1_555 1_555
N18 N17 1_555 1_555
N19 N18 1_555 1_555
N20 C4 1_555 1_555
N21 Cu1 1_555 1_555
H1 N21 1_555 1_555
H2 N21 1_555 1_555
H3 N21 1_555 1_555
N22 Cu1 1_555 1_555
H4 N22 1_555 1_555
H5 N22 1_555 1_555
H6 N22 1_555 1_555
N23 Cu1 1_555 1_555
H7 N23 1_555 1_555
H8 N23 1_555 1_555
H9 N23 1_555 1_555
N24 Cu1 1_555 1_555
H10 N24 1_555 1_555
H11 N24 1_555 1_555
H12 N24 1_555 1_555
N25 Cu2 1_555 1_555
H13 N25 1_555 1_555
H14 N25 1_555 1_555
H15 N25 1_555 1_555
N26 Cu2 1_555 1_555
H16 N26 1_555 1_555
H17 N26 1_555 1_555
H18 N26 1_555 1_555
N27 Cu2 1_555 1_555
H19 N27 1_555 1_555
H20 N27 1_555 1_555
H21 N27 1_555 1_555
N28 Cu2 1_555 1_555
H22 N28 1_555 1_555
H23 N28 1_555 1_555
H24 N28 1_555 1_555
O1 H25 1_555 1_555
H26 O1 1_555 1_555
O2 H27 1_555 1_555
H28 O2 1_555 1_555
O3 H29 1_555 1_555
H30 O3 1_555 1_555
O4 H31 1_555 1_555
H32 O4 1_555 1_555
Cu2B N7 1_555 1_555
N7B Cu2 1_555 1_555
Cu1 N17 1_555 1_555
N3 N4 1_555 1_555
N9 N10 1_555 1_555
N11 N14 1_555 1_555
N19 N20 1_555 1_555

#END
