
#######################################################################
#
#                 Cambridge Crystallographic Data Centre
#                                CCDC 
#
#######################################################################
#
# If this CIF has been generated from an entry in the Cambridge 
# Structural Database, then it will include bibliographic, chemical, 
# crystal, experimental, refinement or atomic coordinate data resulting 
# from the CCDC's data processing and validation procedures.
#
#######################################################################

data_BUQWIU
_symmetry_cell_setting           orthorhombic
_symmetry_space_group_name_H-M   'P b c a'
_symmetry_Int_Tables_number      61
_space_group_name_Hall           '-P 2ac 2ab'
loop_
_symmetry_equiv_pos_site_id
_symmetry_equiv_pos_as_xyz
1 x,y,z
2 1/2-x,-y,1/2+z
3 -x,1/2+y,1/2-z
4 1/2+x,1/2-y,-z
5 -x,-y,-z
6 1/2+x,y,1/2-z
7 x,1/2-y,1/2+z
8 1/2-x,1/2+y,z
_cell_length_a                   18.520(2)
_cell_length_b                   20.284(3)
_cell_length_c                   25.347(3)
_cell_angle_alpha                90
_cell_angle_beta                 90
_cell_angle_gamma                90
_cell_volume                     9521.85
loop_
_atom_site_label
_atom_site_type_symbol
_atom_site_fract_x
_atom_site_fract_y
_atom_site_fract_z
Si1 Si 0.35258(13) 0.33727(12) 0.20098(9)
Si2 Si 0.39035(15) 0.67033(18) -0.01540(11)
K1 K 0.29545(12) 0.51098(11) 0.17659(7)
K2 K 0.27303(11) 0.40594(11) 0.42686(7)
N1 N 0.2782(3) 0.4447(3) 0.3206(2)
N2 N 0.3190(3) 0.3976(3) 0.2405(2)
N3 N 0.2739(3) 0.5479(3) 0.0730(2)
N4 N 0.3268(3) 0.6184(4) 0.0088(2)
C1 C 0.2463(4) 0.4986(4) 0.2936(3)
C2 C 0.2802(4) 0.5607(4) 0.2949(3)
C3 C 0.2472(6) 0.6131(5) 0.2695(4)
H1 H 0.2703 0.6566 0.2710
C4 C 0.1819(6) 0.6073(6) 0.2440(4)
H2 H 0.1591 0.6455 0.2272
C5 C 0.1488(5) 0.5470(6) 0.2434(4)
H3 H 0.1019 0.5428 0.2259
C6 C 0.1793(5) 0.4909(5) 0.2670(4)
C7 C 0.1396(5) 0.4250(5) 0.2659(4)
H4 H 0.1736 0.3912 0.2781
C8 C 0.1152(7) 0.4055(7) 0.2115(5)
H5 H 0.1561 0.4046 0.1882
H6 H 0.0806 0.4370 0.1989
H7 H 0.0935 0.3626 0.2128
C9 C 0.0761(6) 0.4259(7) 0.3051(6)
H8 H 0.0935 0.4369 0.3396
H9 H 0.0537 0.3832 0.3059
H10 H 0.0413 0.4582 0.2940
C10 C 0.3520(5) 0.5674(4) 0.3227(3)
H11 H 0.3501 0.5388 0.3538
C11 C 0.4148(5) 0.5436(5) 0.2889(4)
H12 H 0.4054 0.4994 0.2770
H13 H 0.4584 0.5441 0.3094
H14 H 0.4203 0.5721 0.2589
C12 C 0.3669(6) 0.6375(5) 0.3427(4)
H15 H 0.3276 0.6518 0.3646
H16 H 0.3717 0.6669 0.3132
H17 H 0.4108 0.6378 0.3629
C13 C 0.3115(4) 0.3990(4) 0.2923(3)
C14 C 0.3434(4) 0.3464(4) 0.3268(3)
C15 C 0.4063(5) 0.3581(5) 0.3546(4)
H18 H 0.4389 0.3921 0.3409
C16 C 0.4355(6) 0.3110(6) 0.3872(4)
H19 H 0.4786 0.3192 0.4049
C17 C 0.4006(7) 0.2517(7) 0.3935(4)
H20 H 0.4197 0.2201 0.4160
C18 C 0.3381(6) 0.2391(5) 0.3668(4)
H21 H 0.3153 0.1985 0.3707
C19 C 0.3088(5) 0.2864(5) 0.3339(3)
H22 H 0.2705 0.2736 0.3093
C20 C 0.3876(6) 0.3782(5) 0.1407(3)
H23 H 0.4259 0.4078 0.1501
H24 H 0.3494 0.4025 0.1241
H25 H 0.4056 0.3455 0.1167
C21 C 0.2794(5) 0.2808(5) 0.1796(4)
H26 H 0.2938 0.2360 0.1858
H27 H 0.2702 0.2870 0.1427
H28 H 0.2363 0.2901 0.1993
C22 C 0.4290(5) 0.2856(5) 0.2256(4)
H29 H 0.4158 0.2399 0.2238
H30 H 0.4396 0.2972 0.2615
H31 H 0.4709 0.2932 0.2041
C23 C 0.2186(4) 0.5301(4) 0.0371(3)
C24 C 0.1527(5) 0.5648(5) 0.0380(3)
C25 C 0.0978(5) 0.5454(6) 0.0041(4)
H32 H 0.0520 0.5696 0.0043
C26 C 0.1057(6) 0.4921(6) -0.0289(4)
H33 H 0.0657 0.4780 -0.0515
C27 C 0.1696(6) 0.4563(5) -0.0276(3)
H34 H 0.1738 0.4168 -0.0497
C28 C 0.2274(5) 0.4737(5) 0.0043(3)
C29 C 0.2982(6) 0.4368(5) 0.0013(4)
H35 H 0.3288 0.4523 0.0303
C30 C 0.3373(6) 0.4509(7) -0.0499(5)
H36 H 0.3445 0.4976 -0.0535
H37 H 0.3090 0.4351 -0.0790
H38 H 0.3833 0.4290 -0.0498
C31 C 0.2881(8) 0.3627(5) 0.0080(5)
H39 H 0.2650 0.3540 0.0412
H40 H 0.3343 0.3413 0.0072
H41 H 0.2586 0.3461 -0.0201
C32 C 0.1424(5) 0.6246(5) 0.0734(4)
H42 H 0.1823 0.6250 0.0988
C33 C 0.1464(8) 0.6881(6) 0.0423(5)
H43 H 0.1912 0.6898 0.0233
H44 H 0.1435 0.7249 0.0660
H45 H 0.1069 0.6899 0.0178
C34 C 0.0733(6) 0.6205(7) 0.1043(5)
H46 H 0.0727 0.5803 0.1243
H47 H 0.0330 0.6211 0.0805
H48 H 0.0701 0.6574 0.1279
C35 C 0.3586(6) 0.6976(7) -0.0818(4)
H49 H 0.3121 0.7180 -0.0785
H50 H 0.3550 0.6600 -0.1047
H51 H 0.3924 0.7286 -0.0962
C36 C 0.4800(6) 0.6313(10) -0.0242(6)
H52 H 0.5161 0.6574 -0.0068
H53 H 0.4910 0.6284 -0.0611
H54 H 0.4793 0.5878 -0.0092
C37 C 0.4046(9) 0.7491(8) 0.0230(5)
H55 H 0.4548 0.7535 0.0317
H56 H 0.3764 0.7478 0.0547
H57 H 0.3897 0.7860 0.0019
C38 C 0.3226(4) 0.5904(4) 0.0554(3)
C39 C 0.3776(4) 0.6075(4) 0.0976(3)
C40 C 0.3656(6) 0.6592(5) 0.1320(4)
H58 H 0.3225 0.6827 0.1298
C41 C 0.4156(9) 0.6768(7) 0.1694(5)
H59 H 0.4070 0.7121 0.1919
C42 C 0.4782(8) 0.6417(8) 0.1729(5)
H60 H 0.5121 0.6537 0.1982
C43 C 0.4924(5) 0.5906(7) 0.1413(4)
H61 H 0.5356 0.5675 0.1445
C44 C 0.4412(5) 0.5724(5) 0.1032(3)
H62 H 0.4501 0.5364 0.0815
K2A K 0.22697(11) 0.59406(11) -0.07314(7)
N4A N 0.1732(3) 0.3816(4) 0.5088(2)
C23A C 0.2814(4) 0.4699(4) 0.5371(3)
C24A C 0.3473(5) 0.4352(5) 0.5380(3)
C25A C 0.4022(5) 0.4546(6) 0.5041(4)
H32A H 0.4480 0.4304 0.5043
C26A C 0.3943(6) 0.5079(6) 0.4711(4)
H33A H 0.4343 0.5220 0.4485
C27A C 0.3304(6) 0.5437(5) 0.4724(3)
H34A H 0.3262 0.5832 0.4503
C28A C 0.2726(5) 0.5263(5) 0.5043(3)
loop_
_geom_bond_atom_site_label_1
_geom_bond_atom_site_label_2
_geom_bond_site_symmetry_1
_geom_bond_site_symmetry_2
Si1 N2 1_555 1_555
Si2 N4 1_555 1_555
K1 N2 1_555 1_555
K2 N1 1_555 1_555
N1 C1 1_555 1_555
N2 C13 1_555 1_555
N3 K1 1_555 1_555
N4 C38 1_555 1_555
C1 K1 1_555 1_555
C2 K1 1_555 1_555
C3 K1 1_555 1_555
H1 C3 1_555 1_555
C4 K1 1_555 1_555
H2 C4 1_555 1_555
C5 K1 1_555 1_555
H3 C5 1_555 1_555
C6 K1 1_555 1_555
C7 C6 1_555 1_555
H4 C7 1_555 1_555
C8 C7 1_555 1_555
H5 C8 1_555 1_555
H6 C8 1_555 1_555
H7 C8 1_555 1_555
C9 C7 1_555 1_555
H8 C9 1_555 1_555
H9 C9 1_555 1_555
H10 C9 1_555 1_555
C10 C2 1_555 1_555
H11 C10 1_555 1_555
C11 C10 1_555 1_555
H12 C11 1_555 1_555
H13 C11 1_555 1_555
H14 C11 1_555 1_555
C12 C10 1_555 1_555
H15 C12 1_555 1_555
H16 C12 1_555 1_555
H17 C12 1_555 1_555
C13 N1 1_555 1_555
C14 C13 1_555 1_555
C15 C14 1_555 1_555
H18 C15 1_555 1_555
C16 C15 1_555 1_555
H19 C16 1_555 1_555
C17 C16 1_555 1_555
H20 C17 1_555 1_555
C18 C17 1_555 1_555
H21 C18 1_555 1_555
C19 C14 1_555 1_555
H22 C19 1_555 1_555
C20 Si1 1_555 1_555
H23 C20 1_555 1_555
H24 C20 1_555 1_555
H25 C20 1_555 1_555
C21 Si1 1_555 1_555
H26 C21 1_555 1_555
H27 C21 1_555 1_555
H28 C21 1_555 1_555
C22 Si1 1_555 1_555
H29 C22 1_555 1_555
H30 C22 1_555 1_555
H31 C22 1_555 1_555
C23 N3 1_555 1_555
C24 C23 1_555 1_555
C25 C24 1_555 1_555
H32 C25 1_555 1_555
C26 C25 1_555 1_555
H33 C26 1_555 1_555
C27 C26 1_555 1_555
H34 C27 1_555 1_555
C28 C23 1_555 1_555
C29 C28 1_555 1_555
H35 C29 1_555 1_555
C30 C29 1_555 1_555
H36 C30 1_555 1_555
H37 C30 1_555 1_555
H38 C30 1_555 1_555
C31 C29 1_555 1_555
H39 C31 1_555 1_555
H40 C31 1_555 1_555
H41 C31 1_555 1_555
C32 C24 1_555 1_555
H42 C32 1_555 1_555
C33 C32 1_555 1_555
H43 C33 1_555 1_555
H44 C33 1_555 1_555
H45 C33 1_555 1_555
C34 C32 1_555 1_555
H46 C34 1_555 1_555
H47 C34 1_555 1_555
H48 C34 1_555 1_555
C35 Si2 1_555 1_555
H49 C35 1_555 1_555
H50 C35 1_555 1_555
H51 C35 1_555 1_555
C36 Si2 1_555 1_555
H52 C36 1_555 1_555
H53 C36 1_555 1_555
H54 C36 1_555 1_555
C37 Si2 1_555 1_555
H55 C37 1_555 1_555
H56 C37 1_555 1_555
H57 C37 1_555 1_555
C38 N3 1_555 1_555
C39 C38 1_555 1_555
C40 C39 1_555 1_555
H58 C40 1_555 1_555
C41 C40 1_555 1_555
H59 C41 1_555 1_555
C42 C41 1_555 1_555
H60 C42 1_555 1_555
C43 C42 1_555 1_555
H61 C43 1_555 1_555
C44 C39 1_555 1_555
H62 C44 1_555 1_555
K2A N4 1_555 1_555
N4A K2 1_555 1_555
C23A K2 1_555 1_555
C24A K2 1_555 1_555
C25A K2 1_555 1_555
H32A C25A 1_555 1_555
C26A K2 1_555 1_555
H33A C26A 1_555 1_555
C27A K2 1_555 1_555
H34A C27A 1_555 1_555
C28A K2 1_555 1_555
C1 C2 1_555 1_555
C1 C6 1_555 1_555
C2 C3 1_555 1_555
C3 C4 1_555 1_555
C4 C5 1_555 1_555
C5 C6 1_555 1_555
C18 C19 1_555 1_555
C23 K2A 1_555 1_555
C24 K2A 1_555 1_555
C25 K2A 1_555 1_555
C26 K2A 1_555 1_555
C27 C28 1_555 1_555
C27 K2A 1_555 1_555
C28 K2A 1_555 1_555
C43 C44 1_555 1_555
C23A C24A 1_555 1_555
C23A C28A 1_555 1_555
C24A C25A 1_555 1_555
C25A C26A 1_555 1_555
C26A C27A 1_555 1_555
C27A C28A 1_555 1_555

#END
