
#######################################################################
#
#                 Cambridge Crystallographic Data Centre
#                                CCDC 
#
#######################################################################
#
# If this CIF has been generated from an entry in the Cambridge 
# Structural Database, then it will include bibliographic, chemical, 
# crystal, experimental, refinement or atomic coordinate data resulting 
# from the CCDC's data processing and validation procedures.
#
#######################################################################

data_BUQWER
_symmetry_cell_setting           trigonal
_symmetry_space_group_name_H-M   'P 31'
_symmetry_Int_Tables_number      144
_space_group_name_Hall           'P 31'
loop_
_symmetry_equiv_pos_site_id
_symmetry_equiv_pos_as_xyz
1 x,y,z
2 -y,x-y,1/3+z
3 -x+y,-x,2/3+z
_cell_length_a                   15.764(6)
_cell_length_b                   15.764(6)
_cell_length_c                   16.918(9)
_cell_angle_alpha                90
_cell_angle_beta                 90
_cell_angle_gamma                120
_cell_volume                     3640.93
loop_
_atom_site_label
_atom_site_type_symbol
_atom_site_fract_x
_atom_site_fract_y
_atom_site_fract_z
Cu1 Cu 0.16724(6) 0.80622(6) 0.21613(5)
Cu2 Cu -0.15278(10) 0.69451(6) 0.55010(5)
Cu3 Cu -0.47277(6) 0.49964(6) 0.21141(4)
O1 O 0.2938(4) 1.1015(4) -0.0086(3)
O2 O 0.4578(4) 1.1809(5) -0.0120(4)
O3 O 0.2564(5) 0.7256(5) 0.2358(4)
O4 O -0.1851(5) 0.8737(5) -0.0158(4)
O5 O -0.3467(4) 0.7967(4) -0.0099(3)
O6 O -0.0557(5) 0.8644(5) 0.5257(4)
O7 O -0.1179(4) 0.6780(4) 0.4407(3)
O8 O -0.1993(5) 0.5118(4) 0.4479(4)
O9 O -0.5137(5) 0.6317(5) 0.3137(4)
O10 O -0.4348(4) 0.5467(4) 0.3194(3)
O11 O -0.5162(3) 0.4549(4) 0.1029(3)
O12 O -0.5972(5) 0.5332(5) 0.1065(4)
O13 O -0.3799(5) 0.4200(5) 0.2281(5)
O14 O -0.7593(4) 0.3705(4) 0.4396(3)
O15 O -0.8420(5) 0.2052(5) 0.4411(4)
N1 N -0.0719(7) 0.9593(6) 0.4339(6)
N2 N -0.3971(9) 0.3132(9) 0.3294(7)
N3 N 0.2910(4) 0.9271(4) 0.1769(4)
N4 N -0.6903(4) 0.2772(5) -0.0810(4)
N5 N -0.2714(5) 0.7036(5) 0.5104(4)
N6 N -0.3501(4) 0.6216(4) 0.1733(3)
N7 N -0.5917(4) 0.3767(5) 0.2485(3)
N8 N 0.0439(5) 0.6803(4) 0.2539(4)
N9 N 0.2603(7) 0.6330(6) 0.3413(7)
C1 C -0.4092(9) 0.2961(9) 0.4152(6)
H1 H -0.3477 0.3065 0.4382
H2 H -0.4613 0.2287 0.4254
H3 H -0.4268 0.3418 0.4392
C2 C -0.1042(8) 0.8741(6) 0.3709(7)
H4 H -0.1659 0.8608 0.3462
H5 H -0.1134 0.8148 0.3974
H6 H -0.0534 0.8941 0.3304
C3 C -0.0419(8) 1.0246(6) 0.3675(7)
H7 H -0.0356 1.0871 0.3837
H8 H -0.0910 0.9955 0.3254
H9 H 0.0213 1.0357 0.3479
C4 C 0.2754(10) 0.6171(10) 0.4230(8)
H10 H 0.3066 0.5768 0.4256
H11 H 0.2122 0.5836 0.4503
H12 H 0.3178 0.6804 0.4486
C5 C -0.4074(10) 0.2084(9) 0.3229(8)
H13 H -0.3711 0.1997 0.3662
H14 H -0.3807 0.2026 0.2722
H15 H -0.4767 0.1580 0.3264
C6 C 0.2412(12) 0.5433(11) 0.3025(11)
H16 H 0.2947 0.5305 0.3137
H17 H 0.2364 0.5500 0.2453
H18 H 0.1794 0.4888 0.3221
C7 C 0.2657(8) 0.7014(9) 0.3023(8)
C8 C 0.3775(5) 0.9547(6) 0.2118(5)
H19 H 0.3778 0.9196 0.2574
C9 C 0.4626(6) 1.0277(7) 0.1870(5)
H20 H 0.5224 1.0395 0.2102
C10 C 0.4620(6) 1.0851(7) 0.1277(5)
H21 H 0.5214 1.1420 0.1131
C11 C 0.3794(5) 1.0633(6) 0.0893(5)
C12 C 0.2916(5) 0.9810(6) 0.1168(5)
H22 H 0.2315 0.9642 0.0912
C13 C 0.0173(7) 0.5959(6) 0.2144(5)
H23 H 0.0549 0.5962 0.1703
C14 C -0.0646(7) 0.5086(6) 0.2378(5)
H24 H -0.0848 0.4505 0.2080
C15 C -0.1154(7) 0.5066(6) 0.3028(5)
H25 H -0.1692 0.4464 0.3204
C16 C -0.0895(6) 0.5906(6) 0.3432(5)
C17 C -0.0091(6) 0.6772(5) 0.3152(4)
H26 H 0.0080 0.7368 0.3417
C18 C -0.1415(6) 0.5914(6) 0.4180(5)
C19 C -0.0576(8) 0.8944(7) 0.4557(6)
C20 C -0.3252(6) 0.6542(6) 0.4489(5)
H27 H -0.3121 0.6077 0.4245
C21 C -0.3998(7) 0.6666(6) 0.4182(5)
C22 C -0.4176(7) 0.7346(7) 0.4519(5)
H28 H -0.4683 0.7450 0.4325
C23 C -0.3602(6) 0.7883(7) 0.5153(5)
H29 H -0.3725 0.8350 0.5403
C24 C -0.2865(7) 0.7751(7) 0.5419(5)
H30 H -0.2450 0.8157 0.5830
C25 C -0.4571(6) 0.6094(6) 0.3454(5)
C26 C -0.3768(8) 0.3446(8) 0.2621(8)
C27 C -0.3480(5) 0.6758(5) 0.1129(4)
H31 H -0.4074 0.6564 0.0852
C28 C -0.2632(5) 0.7603(5) 0.0875(4)
C29 C -0.1780(6) 0.7866(6) 0.1277(5)
H32 H -0.1184 0.8419 0.1111
C30 C -0.1788(6) 0.7321(6) 0.1929(5)
H33 H -0.1206 0.7508 0.2221
C31 C -0.2654(6) 0.6508(6) 0.2142(5)
H34 H -0.2662 0.6138 0.2588
C32 C -0.5788(6) 0.4712(6) 0.0773(5)
C33 C -0.6378(5) 0.4156(6) 0.0047(5)
C34 C -0.6929(6) 0.4463(7) -0.0384(5)
H35 H -0.6928 0.5047 -0.0243
C35 C -0.7483(6) 0.3901(7) -0.1026(6)
H36 H -0.7863 0.4092 -0.1335
C36 C -0.7456(6) 0.3070(7) -0.1191(5)
H37 H -0.7859 0.2669 -0.1609
C37 C -0.6393(6) 0.3300(6) -0.0183(5)
H38 H -0.6028 0.3082 0.0117
C38 C -0.6158(6) 0.2855(7) 0.2180(5)
H39 H -0.5777 0.2846 0.1748
C39 C -0.6857(6) 0.2008(7) 0.2431(5)
H40 H -0.6966 0.1418 0.2188
C40 C -0.7446(6) 0.1982(7) 0.3067(5)
H41 H -0.7973 0.1375 0.3246
C41 C -0.7259(5) 0.2809(6) 0.3412(5)
C42 C -0.6476(5) 0.3733(6) 0.3105(5)
H42 H -0.6354 0.4328 0.3347
C43 C -0.7801(5) 0.2845(6) 0.4131(5)
C44 C -0.2623(6) 0.8161(6) 0.0148(5)
C45 C 0.3783(5) 1.1230(6) 0.0169(5)
Cu1A Cu -0.80622(6) 0.36102(8) 0.54946(5)
Cu1B Cu -0.36102(8) 0.83276(6) -0.11720(5)
Cu2A Cu -0.69451(6) 0.15271(12) -0.11657(5)
Cu2A_2 Cu 0.30549(6) 1.15271(12) -0.11657(5)
O1B O -0.1923(6) 0.7062(4) 0.6581(3)
O5A O 0.2033(4) 0.8566(6) 0.3234(3)
O14B O 0.1298(6) 0.7593(4) 0.1063(3)
N4B N -0.0325(6) 0.6903(4) 0.5857(4)
loop_
_geom_bond_atom_site_label_1
_geom_bond_atom_site_label_2
_geom_bond_site_symmetry_1
_geom_bond_site_symmetry_2
Cu1 O3 1_555 1_555
Cu2 O6 1_555 1_555
Cu3 O10 1_555 1_555
O1 C45 1_555 1_555
O2 C45 1_555 1_555
O3 C7 1_555 1_555
O4 C44 1_555 1_555
O5 C44 1_555 1_555
O6 C19 1_555 1_555
O7 Cu2 1_555 1_555
O8 C18 1_555 1_555
O9 C25 1_555 1_555
O10 C25 1_555 1_555
O11 Cu3 1_555 1_555
O12 C32 1_555 1_555
O13 Cu3 1_555 1_555
O14 C43 1_555 1_555
O15 C43 1_555 1_555
N1 C2 1_555 1_555
N2 C1 1_555 1_555
N3 Cu1 1_555 1_555
N4 C36 1_555 1_555
N5 Cu2 1_555 1_555
N6 Cu3 1_555 1_555
N7 Cu3 1_555 1_555
N8 Cu1 1_555 1_555
N9 C4 1_555 1_555
C1 H1 1_555 1_555
H2 C1 1_555 1_555
H3 C1 1_555 1_555
C2 H4 1_555 1_555
H5 C2 1_555 1_555
H6 C2 1_555 1_555
C3 N1 1_555 1_555
H7 C3 1_555 1_555
H8 C3 1_555 1_555
H9 C3 1_555 1_555
C4 H10 1_555 1_555
H11 C4 1_555 1_555
H12 C4 1_555 1_555
C5 N2 1_555 1_555
H13 C5 1_555 1_555
H14 C5 1_555 1_555
H15 C5 1_555 1_555
C6 N9 1_555 1_555
H16 C6 1_555 1_555
H17 C6 1_555 1_555
H18 C6 1_555 1_555
C7 N9 1_555 1_555
C8 N3 1_555 1_555
H19 C8 1_555 1_555
C9 C8 1_555 1_555
H20 C9 1_555 1_555
C10 C9 1_555 1_555
H21 C10 1_555 1_555
C11 C10 1_555 1_555
C12 N3 1_555 1_555
H22 C12 1_555 1_555
C13 N8 1_555 1_555
H23 C13 1_555 1_555
C14 C13 1_555 1_555
H24 C14 1_555 1_555
C15 C14 1_555 1_555
H25 C15 1_555 1_555
C16 C15 1_555 1_555
C17 N8 1_555 1_555
H26 C17 1_555 1_555
C18 O7 1_555 1_555
C19 N1 1_555 1_555
C20 N5 1_555 1_555
H27 C20 1_555 1_555
C21 C20 1_555 1_555
C22 C21 1_555 1_555
H28 C22 1_555 1_555
C23 C22 1_555 1_555
H29 C23 1_555 1_555
C24 N5 1_555 1_555
H30 C24 1_555 1_555
C25 C21 1_555 1_555
C26 O13 1_555 1_555
C27 N6 1_555 1_555
H31 C27 1_555 1_555
C28 C27 1_555 1_555
C29 C28 1_555 1_555
H32 C29 1_555 1_555
C30 C29 1_555 1_555
H33 C30 1_555 1_555
C31 N6 1_555 1_555
H34 C31 1_555 1_555
C32 O11 1_555 1_555
C33 C32 1_555 1_555
C34 C33 1_555 1_555
H35 C34 1_555 1_555
C35 C34 1_555 1_555
H36 C35 1_555 1_555
C36 C35 1_555 1_555
H37 C36 1_555 1_555
C37 N4 1_555 1_555
H38 C37 1_555 1_555
C38 N7 1_555 1_555
H39 C38 1_555 1_555
C39 C38 1_555 1_555
H40 C39 1_555 1_555
C40 C39 1_555 1_555
H41 C40 1_555 1_555
C41 C40 1_555 1_555
C42 N7 1_555 1_555
H42 C42 1_555 1_555
C43 C41 1_555 1_555
C44 C28 1_555 1_555
C45 C11 1_555 1_555
Cu1A O14 1_555 1_555
Cu1B O5 1_555 1_555
Cu2A N4 1_555 1_555
Cu2A_2 O1 1_555 1_555
O1B Cu2 1_555 1_555
O5A Cu1 1_555 1_555
O14B Cu1 1_555 1_555
N4B Cu2 1_555 1_555
N2 C26 1_555 1_555
C11 C12 1_555 1_555
C16 C17 1_555 1_555
C16 C18 1_555 1_555
C23 C24 1_555 1_555
C30 C31 1_555 1_555
C33 C37 1_555 1_555
C41 C42 1_555 1_555

#END
