
#######################################################################
#
#                 Cambridge Crystallographic Data Centre
#                                CCDC 
#
#######################################################################
#
# If this CIF has been generated from an entry in the Cambridge 
# Structural Database, then it will include bibliographic, chemical, 
# crystal, experimental, refinement or atomic coordinate data resulting 
# from the CCDC's data processing and validation procedures.
#
#######################################################################

data_BUQZOD
_symmetry_cell_setting           monoclinic
_symmetry_space_group_name_H-M   'C 2/c'
_symmetry_Int_Tables_number      15
_space_group_name_Hall           '-C 2yn'
loop_
_symmetry_equiv_pos_site_id
_symmetry_equiv_pos_as_xyz
1 x,y,z
2 -x,y,1/2-z
3 1/2+x,1/2+y,z
4 1/2-x,1/2+y,1/2-z
5 -x,-y,-z
6 x,-y,1/2+z
7 1/2-x,1/2-y,-z
8 1/2+x,1/2-y,1/2+z
_cell_length_a                   11.4961(2)
_cell_length_b                   7.2716(1)
_cell_length_c                   15.0500(3)
_cell_angle_alpha                90
_cell_angle_beta                 108.331(1)
_cell_angle_gamma                90
_cell_volume                     1194.26
loop_
_atom_site_label
_atom_site_type_symbol
_atom_site_fract_x
_atom_site_fract_y
_atom_site_fract_z
Zn1 Zn 0.0000 0.02230(3) 0.7500
C1 C -0.15541(13) 0.03198(17) 0.53694(9)
C2 C -0.21337(13) 0.20942(19) 0.53815(9)
N1 N -0.08412(11) -0.05594(16) 0.61301(8)
N2 N -0.05058(12) -0.21417(17) 0.58157(8)
N3 N -0.10009(12) -0.22054(18) 0.49091(9)
N4 N -0.16625(12) -0.06800(18) 0.46004(8)
O1 O 0.0000 0.2950(2) 0.7500
O3 O 0.16633(14) -0.0053(2) 0.72333(11)
H1 H -0.197(2) 0.257(3) 0.5923(16)
H4 H 0.171(3) 0.008(3) 0.675(2)
H5 H 0.230(3) -0.007(3) 0.762(2)
Zn1F Zn -0.5000 0.47770(3) 0.2500
C1F C -0.34459(13) 0.46802(17) 0.46306(9)
C2F C -0.28663(13) 0.29058(19) 0.46185(9)
N1F N -0.41588(11) 0.55594(16) 0.38699(8)
N1A N 0.08412(11) -0.05594(16) 0.88699(8)
N2F N -0.44942(12) 0.71417(17) 0.41843(8)
N3F N -0.39991(12) 0.72054(18) 0.50909(9)
N4F N -0.33375(12) 0.56800(18) 0.53996(8)
O3A O -0.16633(14) -0.0053(2) 0.77667(11)
H1F H -0.303(2) 0.243(3) 0.4077(16)
H4A H -0.171(3) 0.008(3) 0.825(2)
H5A H -0.230(3) -0.007(3) 0.738(2)
O2 O 0.39268(13) -0.01503(17) 0.85243(9)
H2 H 0.400(2) -0.075(4) 0.8879(18)
H3 H 0.430(2) 0.065(4) 0.8700(17)
loop_
_geom_bond_atom_site_label_1
_geom_bond_atom_site_label_2
_geom_bond_site_symmetry_1
_geom_bond_site_symmetry_2
Zn1 N1 1_555 1_555
C1 C2 1_555 1_555
C2 H1 1_555 1_555
N1 C1 1_555 1_555
N2 N1 1_555 1_555
N3 N2 1_555 1_555
N4 C1 1_555 1_555
O1 Zn1 1_555 1_555
O2 H2 1_555 1_555
O3 Zn1 1_555 1_555
H3 O2 1_555 1_555
H4 O3 1_555 1_555
H5 O3 1_555 1_555
Zn1F N1F 1_555 1_555
C1F C2F 1_555 1_555
C2F C2 1_555 1_555
N1F C1F 1_555 1_555
N1A Zn1 1_555 1_555
N2F N1F 1_555 1_555
N3F N2F 1_555 1_555
N4F C1F 1_555 1_555
O3A Zn1 1_555 1_555
H1F C2F 1_555 1_555
H4A O3A 1_555 1_555
H5A O3A 1_555 1_555
N3 N4 1_555 1_555
N3F N4F 1_555 1_555

#END
