
#######################################################################
#
#                 Cambridge Crystallographic Data Centre
#                                CCDC 
#
#######################################################################
#
# If this CIF has been generated from an entry in the Cambridge 
# Structural Database, then it will include bibliographic, chemical, 
# crystal, experimental, refinement or atomic coordinate data resulting 
# from the CCDC's data processing and validation procedures.
#
#######################################################################

data_BUQZUJ
_symmetry_cell_setting           monoclinic
_symmetry_space_group_name_H-M   'P 21/c'
_symmetry_Int_Tables_number      14
_space_group_name_Hall           '-P 2ybc'
loop_
_symmetry_equiv_pos_site_id
_symmetry_equiv_pos_as_xyz
1 x,y,z
2 -x,1/2+y,1/2-z
3 -x,-y,-z
4 x,1/2-y,1/2+z
_cell_length_a                   8.4473(1)
_cell_length_b                   12.2212(2)
_cell_length_c                   19.9523(2)
_cell_angle_alpha                90
_cell_angle_beta                 94.058(1)
_cell_angle_gamma                90
_cell_volume                     2054.63
loop_
_atom_site_label
_atom_site_type_symbol
_atom_site_fract_x
_atom_site_fract_y
_atom_site_fract_z
O1 O 0.4731(4) 0.8705(3) 0.5057(2)
Cd1 Cd 0.18538(4) 0.87840(2) 0.481393(14)
N1 N 0.3174(4) 1.0691(3) 0.38251(18)
N2 N 0.2249(5) 0.9810(3) 0.38816(19)
N3 N 0.1355(6) 0.9650(3) 0.3328(2)
N4 N 0.1690(5) 1.0417(3) 0.28863(19)
N5 N 0.2873(5) 1.4713(3) 0.1094(2)
N6 N 0.1811(5) 1.4801(3) 0.05637(19)
N7 N 0.0898(5) 1.3930(3) 0.0525(2)
N8 N 0.1337(4) 1.3249(3) 0.10223(19)
N9 N 0.1319(5) 0.7402(4) 0.5575(2)
N10 N 0.2408(5) 0.7089(3) 0.4332(2)
C1 C 0.2793(6) 1.1033(4) 0.3197(2)
C2 C 0.3516(5) 1.1978(3) 0.28753(19)
C3 C 0.4922(6) 1.2464(4) 0.3140(2)
H1 H 0.5450 1.2185 0.3527
C4 C 0.5524(6) 1.3363(5) 0.2822(3)
H2 H 0.6464 1.3681 0.2997
C5 C 0.4758(6) 1.3796(4) 0.2250(3)
H3 H 0.5163 1.4413 0.2050
C6 C 0.3381(5) 1.3309(3) 0.1974(2)
C7 C 0.2759(5) 1.2408(3) 0.2293(2)
H4 H 0.1823 1.2089 0.2113
C8 C 0.2542(5) 1.3752(3) 0.1360(2)
C9 C 0.2924(8) 0.6952(5) 0.3722(3)
H5 H 0.2954 0.7549 0.3435
C10 C 0.3422(11) 0.5928(7) 0.3505(5)
H6 H 0.3821 0.5854 0.3085
C11 C 0.3322(9) 0.5057(6) 0.3904(4)
H7 H 0.3637 0.4374 0.3757
C12 C 0.2747(7) 0.5163(5) 0.4543(4)
C13 C 0.2503(10) 0.4268(5) 0.4979(5)
H8 H 0.2788 0.3569 0.4849
C14 C 0.1876(9) 0.4400(5) 0.5570(4)
H9 H 0.1739 0.3794 0.5842
C15 C 0.1414(7) 0.5454(5) 0.5792(3)
C16 C 0.0722(8) 0.5644(7) 0.6391(3)
H10 H 0.0523 0.5061 0.6673
C17 C 0.0336(8) 0.6674(7) 0.6569(3)
H11 H -0.0148 0.6799 0.6966
C18 C 0.0667(6) 0.7533(5) 0.6155(3)
H12 H 0.0421 0.8238 0.6288
C19 C 0.1679(5) 0.6367(4) 0.5388(3)
C20 C 0.2311(6) 0.6214(3) 0.4744(3)
Cd1C Cd 0.18538(4) 1.62160(2) -0.018607(14)
Cd1A Cd -0.18538(4) 1.37840(2) 0.018607(14)
N6C N 0.1811(5) 1.0199(3) 0.55637(19)
N7A N -0.0898(5) 0.8930(3) 0.4475(2)
loop_
_geom_bond_atom_site_label_1
_geom_bond_atom_site_label_2
_geom_bond_site_symmetry_1
_geom_bond_site_symmetry_2
O1 Cd1 1_555 1_555
Cd1 N2 1_555 1_555
N1 N2 1_555 1_555
N2 N3 1_555 1_555
N3 N4 1_555 1_555
N4 C1 1_555 1_555
N5 N6 1_555 1_555
N6 N7 1_555 1_555
N7 N8 1_555 1_555
N8 C8 1_555 1_555
N9 Cd1 1_555 1_555
N10 Cd1 1_555 1_555
C1 N1 1_555 1_555
C2 C1 1_555 1_555
C3 C2 1_555 1_555
H1 C3 1_555 1_555
C4 C3 1_555 1_555
H2 C4 1_555 1_555
C5 C4 1_555 1_555
H3 C5 1_555 1_555
C6 C5 1_555 1_555
C7 C2 1_555 1_555
H4 C7 1_555 1_555
C8 N5 1_555 1_555
C9 N10 1_555 1_555
H5 C9 1_555 1_555
C10 C9 1_555 1_555
H6 C10 1_555 1_555
C11 C10 1_555 1_555
H7 C11 1_555 1_555
C12 C11 1_555 1_555
C13 C12 1_555 1_555
H8 C13 1_555 1_555
C14 C13 1_555 1_555
H9 C14 1_555 1_555
C15 C14 1_555 1_555
C16 C15 1_555 1_555
H10 C16 1_555 1_555
C17 C16 1_555 1_555
H11 C17 1_555 1_555
C18 N9 1_555 1_555
H12 C18 1_555 1_555
C19 N9 1_555 1_555
C20 N10 1_555 1_555
Cd1C N6 1_555 1_555
Cd1A N7 1_555 1_555
N6C Cd1 1_555 1_555
N7A Cd1 1_555 1_555
C6 C7 1_555 1_555
C6 C8 1_555 1_555
C12 C20 1_555 1_555
C15 C19 1_555 1_555
C17 C18 1_555 1_555
C19 C20 1_555 1_555

#END
