
#######################################################################
#
#                 Cambridge Crystallographic Data Centre
#                                CCDC 
#
#######################################################################
#
# If this CIF has been generated from an entry in the Cambridge 
# Structural Database, then it will include bibliographic, chemical, 
# crystal, experimental, refinement or atomic coordinate data resulting 
# from the CCDC's data processing and validation procedures.
#
#######################################################################

data_BURBEW
_symmetry_cell_setting           orthorhombic
_symmetry_space_group_name_H-M   'F d d 2'
_symmetry_Int_Tables_number      43
_space_group_name_Hall           'F 2 -2d'
loop_
_symmetry_equiv_pos_site_id
_symmetry_equiv_pos_as_xyz
1 x,y,z
2 -x,-y,z
3 1/4+x,1/4-y,1/4+z
4 1/4-x,1/4+y,1/4+z
5 x,1/2+y,1/2+z
6 -x,1/2-y,1/2+z
7 1/4+x,3/4-y,3/4+z
8 1/4-x,3/4+y,3/4+z
9 1/2+x,y,1/2+z
10 1/2-x,-y,1/2+z
11 3/4+x,1/4-y,3/4+z
12 3/4-x,1/4+y,3/4+z
13 1/2+x,1/2+y,z
14 1/2-x,1/2-y,z
15 3/4+x,3/4-y,1/4+z
16 3/4-x,3/4+y,1/4+z
_cell_length_a                   22.516(3)
_cell_length_b                   23.271(3)
_cell_length_c                   23.397(3)
_cell_angle_alpha                90
_cell_angle_beta                 90
_cell_angle_gamma                90
_cell_volume                     12259.3
loop_
_atom_site_label
_atom_site_type_symbol
_atom_site_fract_x
_atom_site_fract_y
_atom_site_fract_z
Cu1 Cu -0.56943(3) 0.13123(2) 0.643485(19)
O1 O -0.54690(17) 0.19348(14) 0.59074(15)
O3 O -0.4490(2) 0.1827(2) 0.59724(19)
O5 O -0.63017(19) 0.32907(15) 0.44461(15)
O9 O -0.5722(2) 0.3983(2) 0.4124(2)
O12 O -0.48169(19) 0.08358(16) 0.65024(18)
H5 H -0.4500(11) 0.1067(16) 0.6413(16)
H6 H -0.4617 0.0638 0.6783
N1 N -0.5889(2) 0.08064(16) 0.57634(16)
N2 N -0.6018(2) -0.08814(19) 0.4349(2)
N3 N -0.5338(2) -0.1668(2) 0.3669(2)
N4 N -0.5496(2) -0.32040(17) 0.21189(17)
C1 C -0.6127(3) 0.1001(2) 0.5272(2)
H7 H -0.6207 0.1391 0.5235
C2 C -0.6256(2) 0.0639(2) 0.4823(2)
H8 H -0.6413 0.0788 0.4486
C3 C -0.6154(3) 0.0056(2) 0.4870(2)
C4 C -0.5909(3) -0.0138(2) 0.5365(2)
H9 H -0.5828 -0.0527 0.5409
C5 C -0.5781(3) 0.0239(2) 0.5802(2)
H10 H -0.5613 0.0096 0.6137
C6 C -0.6358(3) -0.0335(3) 0.4384(3)
H11 H -0.6776 -0.0423 0.4436
H12 H -0.6317 -0.0130 0.4025
C7 C -0.6293(3) -0.1250(3) 0.3917(3)
H13 H -0.6303 -0.1050 0.3553
H14 H -0.6698 -0.1337 0.4027
C8 C -0.5941(3) -0.1811(2) 0.3852(3)
H15 H -0.5930 -0.2014 0.4214
H16 H -0.6130 -0.2057 0.3572
C9 C -0.5401(3) -0.0755(2) 0.4180(3)
H17 H -0.5213 -0.0521 0.4472
H18 H -0.5399 -0.0540 0.3825
C10 C -0.5053(3) -0.1309(3) 0.4103(3)
H19 H -0.4649 -0.1221 0.3987
H20 H -0.5036 -0.1516 0.4463
C11 C -0.5000(3) -0.2199(3) 0.3593(3)
H21 H -0.5047 -0.2435 0.3932
H22 H -0.4582 -0.2104 0.3558
C12 C -0.5527(3) -0.2619(3) 0.2108(3)
H23 H -0.5652 -0.2438 0.1774
C13 C -0.5381(3) -0.2291(3) 0.2568(3)
H24 H -0.5410 -0.1893 0.2546
C14 C -0.5188(3) -0.2547(3) 0.3071(3)
C15 C -0.5160(3) -0.3140(3) 0.3082(2)
H25 H -0.5040 -0.3331 0.3411
C16 C -0.5309(3) -0.3441(2) 0.2603(2)
H26 H -0.5279 -0.3840 0.2616
C17 C -0.4860(3) 0.2576(2) 0.5374(2)
C18 C -0.5357(3) 0.2816(2) 0.5109(2)
H27 H -0.5732 0.2665 0.5184
C19 C -0.5299(3) 0.3280(2) 0.4731(2)
C20 C -0.4705(3) 0.3496(3) 0.4634(3)
H28 H -0.4646 0.3808 0.4393
C21 C -0.4235(3) 0.3246(3) 0.4893(3)
H29 H -0.3855 0.3386 0.4821
C22 C -0.4307(3) 0.2787(3) 0.5260(3)
H30 H -0.3976 0.2621 0.5432
C23 C -0.4933(2) 0.2071(2) 0.5777(2)
C24 C -0.5799(3) 0.3532(3) 0.4426(2)
Cu1K Cu -0.68057(3) 0.38123(2) 0.393485(19)
Cu1D Cu -0.56943(3) -0.36877(2) 0.143485(19)
O5O O -0.61983(19) 0.07907(15) 0.69461(15)
N4D N -0.5496(2) 0.17960(17) 0.71189(17)
O2 O -0.4248(3) 0.0255(2) 0.7321(2)
H1 H -0.4112 -0.0066 0.7206
H2 H -0.438(4) 0.018(3) 0.7679(17)
O4 O -0.6465(3) -0.1443(3) 0.5326(3)
H3 H -0.627(3) -0.163(4) 0.560(3)
H4 H -0.619(3) -0.140(4) 0.504(3)
O6 O -0.5527(6) 0.4878(6) 0.3421(6)
O8 O -0.6255(9) 0.5922(10) 0.3642(10)
O10 O -0.4999(10) -0.0438(11) 0.2632(11)
O7? O -0.5747(7) 0.5072(7) 0.3545(7)
O11? O -0.5142(7) -0.0811(8) 0.2634(7)
O13? O -0.3296(14) 0.3532(14) 0.3598(13)
loop_
_geom_bond_atom_site_label_1
_geom_bond_atom_site_label_2
_geom_bond_site_symmetry_1
_geom_bond_site_symmetry_2
Cu1 O1 1_555 1_555
O1 C23 1_555 1_555
O2 H1 1_555 1_555
H2 O2 1_555 1_555
O3 C23 1_555 1_555
O4 H3 1_555 1_555
H4 O4 1_555 1_555
O5 C24 1_555 1_555
O9 C24 1_555 1_555
O12 Cu1 1_555 1_555
H5 O12 1_555 1_555
H6 O12 1_555 1_555
N1 Cu1 1_555 1_555
N2 C6 1_555 1_555
N3 C8 1_555 1_555
N4 C12 1_555 1_555
C1 N1 1_555 1_555
H7 C1 1_555 1_555
C2 C1 1_555 1_555
H8 C2 1_555 1_555
C3 C2 1_555 1_555
C4 C3 1_555 1_555
H9 C4 1_555 1_555
C5 N1 1_555 1_555
H10 C5 1_555 1_555
C6 C3 1_555 1_555
H11 C6 1_555 1_555
H12 C6 1_555 1_555
C7 N2 1_555 1_555
H13 C7 1_555 1_555
H14 C7 1_555 1_555
C8 C7 1_555 1_555
H15 C8 1_555 1_555
H16 C8 1_555 1_555
C9 N2 1_555 1_555
H17 C9 1_555 1_555
H18 C9 1_555 1_555
C10 N3 1_555 1_555
H19 C10 1_555 1_555
H20 C10 1_555 1_555
C11 N3 1_555 1_555
H21 C11 1_555 1_555
H22 C11 1_555 1_555
C12 H23 1_555 1_555
C13 C12 1_555 1_555
H24 C13 1_555 1_555
C14 C11 1_555 1_555
C15 C14 1_555 1_555
H25 C15 1_555 1_555
C16 N4 1_555 1_555
H26 C16 1_555 1_555
C17 C18 1_555 1_555
C18 H27 1_555 1_555
C19 C18 1_555 1_555
C20 C19 1_555 1_555
H28 C20 1_555 1_555
C21 C20 1_555 1_555
H29 C21 1_555 1_555
C22 C17 1_555 1_555
H30 C22 1_555 1_555
C23 C17 1_555 1_555
C24 C19 1_555 1_555
Cu1K O5 1_555 1_555
Cu1D N4 1_555 1_555
O5O Cu1 1_555 1_555
N4D Cu1 1_555 1_555
C4 C5 1_555 1_555
C9 C10 1_555 1_555
C13 C14 1_555 1_555
C15 C16 1_555 1_555
C21 C22 1_555 1_555

#END
