
#######################################################################
#
#                 Cambridge Crystallographic Data Centre
#                                CCDC 
#
#######################################################################
#
# If this CIF has been generated from an entry in the Cambridge 
# Structural Database, then it will include bibliographic, chemical, 
# crystal, experimental, refinement or atomic coordinate data resulting 
# from the CCDC's data processing and validation procedures.
#
#######################################################################

data_BURBIA
_symmetry_cell_setting           monoclinic
_symmetry_space_group_name_H-M   'P 21/c'
_symmetry_Int_Tables_number      14
_space_group_name_Hall           '-P 2ybc'
loop_
_symmetry_equiv_pos_site_id
_symmetry_equiv_pos_as_xyz
1 x,y,z
2 -x,1/2+y,1/2-z
3 -x,-y,-z
4 x,1/2-y,1/2+z
_cell_length_a                   9.7961(15)
_cell_length_b                   9.6229(15)
_cell_length_c                   18.295(3)
_cell_angle_alpha                90
_cell_angle_beta                 102.846(2)
_cell_angle_gamma                90
_cell_volume                     1681.45
loop_
_atom_site_label
_atom_site_type_symbol
_atom_site_fract_x
_atom_site_fract_y
_atom_site_fract_z
Cu1 Cu 1.37646(2) 0.49600(2) 0.951357(11)
O1 O 1.28970(14) 0.58153(16) 1.02758(7)
O3 O 1.49872(14) 0.59034(16) 1.10731(7)
O4 O 1.43796(15) 0.81987(14) 1.42340(7)
O5 O 1.64766(15) 0.81483(15) 1.50326(7)
N1 N 1.20981(17) 0.47877(16) 0.85009(9)
N2 N 1.02326(18) 0.42811(18) 0.57030(8)
C1 C 1.2481(2) 0.5207(2) 0.78741(11)
H1 H 1.3279 0.5789 0.7924
C2 C 1.1770(2) 0.4833(2) 0.71616(10)
H2 H 1.2084 0.5153 0.6736
C3 C 1.0598(2) 0.3989(2) 0.70698(10)
C4 C 1.0189(2) 0.3564(2) 0.77147(11)
H3 H 0.9386 0.2992 0.7679
C5 C 1.0961(2) 0.3981(2) 0.84112(10)
H4 H 1.0668 0.3677 0.8846
C6 C 0.9830(2) 0.3495(2) 0.63006(11)
H5 H 0.8809 0.3591 0.6257
H6 H 1.0037 0.2499 0.6244
C7 C 0.9541(2) 0.5633(2) 0.55966(11)
H7 H 0.8516 0.5498 0.5437
H8 H 0.9735 0.6144 0.6078
C8 C 0.9950(3) 0.3521(3) 0.49876(11)
H9 H 1.0437 0.2613 0.5055
H10 H 0.8933 0.3347 0.4819
C9 C 1.3464(2) 0.5882(2) 1.22476(10)
C10 C 1.2873(2) 0.4601(2) 1.23364(12)
H11 H 1.2191 0.4215 1.1936
C11 C 1.3270(2) 0.3881(2) 1.30032(13)
H12 H 1.2873 0.2996 1.3056
C12 C 1.4245(2) 0.4446(2) 1.35949(12)
H13 H 1.4494 0.3955 1.4056
C13 C 1.4857(2) 0.5715(2) 1.35228(10)
C14 C 1.4463(2) 0.64252(19) 1.28387(10)
H14 H 1.4887 0.7293 1.2779
C15 C 1.5935(2) 0.6314(2) 1.41633(11)
H15 H 1.6143 0.5609 1.4567
H16 H 1.6808 0.6469 1.3987
C16 C 1.5552(2) 0.76679(19) 1.45011(10)
C17 C 1.3027(2) 0.6670(2) 1.15124(10)
H17 H 1.1995 0.6633 1.1342
H18 H 1.3302 0.7657 1.1596
C18 C 1.3689(2) 0.60750(19) 1.09025(10)
Cu1B Cu 1.62354(2) 0.50400(2) 1.048643(11)
Cu1C Cu 1.37646(2) 1.00400(2) 1.451357(11)
Cu1A Cu 1.62354(2) 0.99600(2) 1.548643(11)
Cu1B_2 Cu 0.62354(2) 0.50400(2) 0.048643(11)
Cu1A_2 Cu 1.62354(2) -0.00400(2) 0.548643(11)
Cu1C_2 Cu 1.37646(2) 0.00400(2) 0.451357(11)
O1B O 1.71030(14) 0.41847(16) 0.97242(7)
O3B O 1.50128(14) 0.40966(16) 0.89269(7)
O4B O 1.56204(15) 0.18013(14) 0.57660(7)
O4C O 1.43796(15) 0.68013(14) 0.92340(7)
O4A O 1.56204(15) 0.31987(14) 1.07660(7)
O5B O 1.35234(15) 0.18517(15) 0.49674(7)
O5A O 1.35234(15) 0.31483(15) 0.99674(7)
O5C O 1.64766(15) 0.68517(15) 1.00326(7)
N1B N 0.79019(17) 0.52123(16) 0.14991(9)
N1B_2 N 1.79019(17) 0.52123(16) 1.14991(9)
N2B N 0.97674(18) 0.57189(18) 0.42970(8)
C1B C 0.7519(2) 0.4793(2) 0.21259(11)
H1B H 0.6721 0.4211 0.2076
C2B C 0.8230(2) 0.5167(2) 0.28384(10)
H2B H 0.7916 0.4847 0.3264
C3B C 0.9402(2) 0.6011(2) 0.29302(10)
C4B C 0.9811(2) 0.6436(2) 0.22853(11)
H3B H 1.0614 0.7008 0.2321
C5B C 0.9039(2) 0.6019(2) 0.15888(10)
H4B H 0.9332 0.6323 0.1154
C6B C 1.0170(2) 0.6505(2) 0.36994(11)
H5B H 1.1191 0.6409 0.3743
H6B H 0.9963 0.7501 0.3756
C7B C 1.0459(2) 0.4367(2) 0.44034(11)
H7B H 1.1484 0.4502 0.4563
H8B H 1.0265 0.3856 0.3922
C8B C 1.0050(3) 0.6479(3) 0.50124(11)
H9B H 0.9563 0.7387 0.4945
H10B H 1.1067 0.6653 0.5181
C9B C 1.6536(2) 0.4118(2) 0.77524(10)
C10B C 1.7127(2) 0.5399(2) 0.76636(12)
H11B H 1.7809 0.5785 0.8064
C11B C 1.6730(2) 0.6119(2) 0.69968(13)
H12B H 1.7127 0.7004 0.6944
C12B C 1.5755(2) 0.5554(2) 0.64051(12)
H13B H 1.5506 0.6045 0.5944
C13B C 1.5143(2) 0.4285(2) 0.64772(10)
C14B C 1.5537(2) 0.35748(19) 0.71613(10)
H14B H 1.5113 0.2707 0.7221
C15B C 1.4065(2) 0.3686(2) 0.58367(11)
H15B H 1.3857 0.4391 0.5433
H16B H 1.3192 0.3531 0.6013
C16B C 1.4448(2) 0.23321(19) 0.54989(10)
C17B C 1.6973(2) 0.3330(2) 0.84876(10)
H17B H 1.8005 0.3367 0.8658
H18B H 1.6698 0.2343 0.8404
C18B C 1.6311(2) 0.39250(19) 0.90975(10)
O2 O 0.9772(11) 0.9753(10) 0.4642(5)
loop_
_geom_bond_atom_site_label_1
_geom_bond_atom_site_label_2
_geom_bond_site_symmetry_1
_geom_bond_site_symmetry_2
Cu1 O1 1_555 1_555
O1 C18 1_555 1_555
O3 C18 1_555 1_555
O4 C16 1_555 1_555
O5 C16 1_555 1_555
N1 Cu1 1_555 1_555
N2 C6 1_555 1_555
C1 N1 1_555 1_555
H1 C1 1_555 1_555
C2 C1 1_555 1_555
H2 C2 1_555 1_555
C3 C2 1_555 1_555
C4 C3 1_555 1_555
H3 C4 1_555 1_555
C5 N1 1_555 1_555
H4 C5 1_555 1_555
C6 C3 1_555 1_555
H5 C6 1_555 1_555
H6 C6 1_555 1_555
C7 N2 1_555 1_555
H7 C7 1_555 1_555
H8 C7 1_555 1_555
C8 N2 1_555 1_555
H9 C8 1_555 1_555
H10 C8 1_555 1_555
C9 C10 1_555 1_555
C10 H11 1_555 1_555
C11 C10 1_555 1_555
H12 C11 1_555 1_555
C12 C11 1_555 1_555
H13 C12 1_555 1_555
C13 C12 1_555 1_555
C14 C9 1_555 1_555
H14 C14 1_555 1_555
C15 C13 1_555 1_555
H15 C15 1_555 1_555
H16 C15 1_555 1_555
C16 C15 1_555 1_555
C17 C9 1_555 1_555
H17 C17 1_555 1_555
H18 C17 1_555 1_555
C18 C17 1_555 1_555
Cu1B O3 1_555 1_555
Cu1C O4 1_555 1_555
Cu1A O5 1_555 1_555
Cu1B_2 N1B 1_555 1_555
Cu1A_2 O4B 1_555 1_555
Cu1C_2 O5B 1_555 1_555
O1B Cu1B 1_555 1_555
O3B Cu1 1_555 1_555
O4B C16B 1_555 1_555
O4C Cu1 1_555 1_555
O4A Cu1B 1_555 1_555
O5B C16B 1_555 1_555
O5A Cu1 1_555 1_555
O5C Cu1B 1_555 1_555
N1B C1B 1_555 1_555
N1B_2 Cu1B 1_555 1_555
N2B C6B 1_555 1_555
C1B H1B 1_555 1_555
C2B C1B 1_555 1_555
H2B C2B 1_555 1_555
C3B C2B 1_555 1_555
C4B C3B 1_555 1_555
H3B C4B 1_555 1_555
C5B N1B 1_555 1_555
H4B C5B 1_555 1_555
C6B C3B 1_555 1_555
H5B C6B 1_555 1_555
H6B C6B 1_555 1_555
C7B C8 1_555 1_555
H7B C7B 1_555 1_555
H8B C7B 1_555 1_555
C8B C7 1_555 1_555
H9B C8B 1_555 1_555
H10B C8B 1_555 1_555
C9B C10B 1_555 1_555
C10B H11B 1_555 1_555
C11B C10B 1_555 1_555
H12B C11B 1_555 1_555
C12B C11B 1_555 1_555
H13B C12B 1_555 1_555
C13B C12B 1_555 1_555
C14B C9B 1_555 1_555
H14B C14B 1_555 1_555
C15B C13B 1_555 1_555
H15B C15B 1_555 1_555
H16B C15B 1_555 1_555
C16B C15B 1_555 1_555
C17B C9B 1_555 1_555
H17B C17B 1_555 1_555
H18B C17B 1_555 1_555
C18B O1B 1_555 1_555
C4 C5 1_555 1_555
C13 C14 1_555 1_555
O3B C18B 1_555 1_555
N2B C7B 1_555 1_555
N2B C8B 1_555 1_555
C4B C5B 1_555 1_555
C13B C14B 1_555 1_555
C17B C18B 1_555 1_555

#END
