
#######################################################################
#
#                 Cambridge Crystallographic Data Centre
#                                CCDC 
#
#######################################################################
#
# If this CIF has been generated from an entry in the Cambridge 
# Structural Database, then it will include bibliographic, chemical, 
# crystal, experimental, refinement or atomic coordinate data resulting 
# from the CCDC's data processing and validation procedures.
#
#######################################################################

data_BURBAS
_symmetry_cell_setting           monoclinic
_symmetry_space_group_name_H-M   'C 2/c'
_symmetry_Int_Tables_number      15
_space_group_name_Hall           '-C 2yn'
loop_
_symmetry_equiv_pos_site_id
_symmetry_equiv_pos_as_xyz
1 x,y,z
2 -x,y,1/2-z
3 1/2+x,1/2+y,z
4 1/2-x,1/2+y,1/2-z
5 -x,-y,-z
6 x,-y,1/2+z
7 1/2-x,1/2-y,-z
8 1/2+x,1/2-y,1/2+z
_cell_length_a                   18.7290(2)
_cell_length_b                   10.9549(1)
_cell_length_c                   7.6781(1)
_cell_angle_alpha                90
_cell_angle_beta                 101.002(1)
_cell_angle_gamma                90
_cell_volume                     1546.39
loop_
_atom_site_label
_atom_site_type_symbol
_atom_site_fract_x
_atom_site_fract_y
_atom_site_fract_z
Zn1 Zn 0.0000 0.40623(2) 0.2500
N1 N -0.12575(7) 0.32506(12) 0.42451(18)
N2 N -0.06829(7) 0.39857(11) 0.46206(18)
N3 N -0.13422(7) 0.43567(13) 0.6614(2)
N4 N -0.07302(7) 0.46458(12) 0.60455(18)
N5 N 0.06266(7) 0.24968(13) 0.37039(17)
C1 C -0.16507(7) 0.35019(13) 0.5477(2)
C2 C -0.23370(7) 0.29046(14) 0.5590(2)
H1 H -0.2558 0.3101 0.6539
C3 C 0.12694(9) 0.25086(18) 0.4798(2)
H2 H 0.1467 0.3255 0.5223
C4 C 0.16605(12) 0.1439(2) 0.5336(3)
H3 H 0.2116 0.1482 0.6069
C5 C 0.13686(13) 0.0341(2) 0.4778(3)
H4 H 0.1621 -0.0373 0.5144
C6 C 0.06838(12) 0.02820(17) 0.3645(3)
C7 C 0.03280(15) -0.08334(17) 0.3044(3)
H5 H 0.0552 -0.1572 0.3410
C8 C 0.03422(9) 0.14049(15) 0.3116(2)
Zn1D Zn 0.0000 0.59377(2) 0.7500
Zn1F Zn -0.5000 0.09377(2) 0.7500
Zn1B Zn -0.5000 -0.09377(2) 0.2500
N1F N -0.37425(7) 0.17494(12) 0.57549(18)
N2F N -0.43171(7) 0.10143(11) 0.53794(18)
N2A N 0.06829(7) 0.39857(11) 0.03794(18)
N3F N -0.36578(7) 0.06433(13) 0.3386(2)
N4F N -0.42698(7) 0.03542(12) 0.39545(18)
N4D N 0.07302(7) 0.53542(12) 0.39545(18)
N4E N -0.07302(7) 0.53542(12) 0.10455(18)
N5A N -0.06266(7) 0.24968(13) 0.12961(17)
C1F C -0.33493(7) 0.14981(13) 0.4523(2)
C2F C -0.26630(7) 0.20954(14) 0.4410(2)
H1F H -0.2442 0.1899 0.3461
C3A C -0.12694(9) 0.25086(18) 0.0202(2)
H2A H -0.1467 0.3255 -0.0223
C4A C -0.16605(12) 0.1439(2) -0.0336(3)
H3A H -0.2116 0.1482 -0.1069
C5A C -0.13686(13) 0.0341(2) 0.0222(3)
H4A H -0.1621 -0.0373 -0.0144
C6A C -0.06838(12) 0.02820(17) 0.1355(3)
C7A C -0.03280(15) -0.08334(17) 0.1956(3)
H5A H -0.0552 -0.1572 0.1590
C8A C -0.03422(9) 0.14049(15) 0.1884(2)
loop_
_geom_bond_atom_site_label_1
_geom_bond_atom_site_label_2
_geom_bond_site_symmetry_1
_geom_bond_site_symmetry_2
Zn1 N2 1_555 1_555
N1 N2 1_555 1_555
N2 N4 1_555 1_555
N3 N4 1_555 1_555
N4 Zn1D 1_555 1_555
N5 Zn1 1_555 1_555
C1 N1 1_555 1_555
C2 C1 1_555 1_555
H1 C2 1_555 1_555
C3 N5 1_555 1_555
H2 C3 1_555 1_555
C4 C3 1_555 1_555
H3 C4 1_555 1_555
C5 C4 1_555 1_555
H4 C5 1_555 1_555
C6 C5 1_555 1_555
C7 C6 1_555 1_555
H5 C7 1_555 1_555
C8 N5 1_555 1_555
Zn1F N2F 1_555 1_555
Zn1B N4F 1_555 1_555
N1F N2F 1_555 1_555
N2F N4F 1_555 1_555
N2A Zn1 1_555 1_555
N3F N4F 1_555 1_555
N4D Zn1 1_555 1_555
N4E Zn1 1_555 1_555
N5A Zn1 1_555 1_555
C1F N1F 1_555 1_555
C2F C2 1_555 1_555
H1F C2F 1_555 1_555
C3A N5A 1_555 1_555
H2A C3A 1_555 1_555
C4A C3A 1_555 1_555
H3A C4A 1_555 1_555
C5A C4A 1_555 1_555
H4A C5A 1_555 1_555
C6A C5A 1_555 1_555
C7A C7 1_555 1_555
H5A C7A 1_555 1_555
C8A C8 1_555 1_555
N3 C1 1_555 1_555
C6 C8 1_555 1_555
N3F C1F 1_555 1_555
N5A C8A 1_555 1_555
C1F C2F 1_555 1_555
C6A C7A 1_555 1_555
C6A C8A 1_555 1_555

#END
