
#######################################################################
#
#                 Cambridge Crystallographic Data Centre
#                                CCDC 
#
#######################################################################
#
# If this CIF has been generated from an entry in the Cambridge 
# Structural Database, then it will include bibliographic, chemical, 
# crystal, experimental, refinement or atomic coordinate data resulting 
# from the CCDC's data processing and validation procedures.
#
#######################################################################

data_BURFIE
_symmetry_cell_setting           monoclinic
_symmetry_space_group_name_H-M   'P 21/c'
_symmetry_Int_Tables_number      14
_space_group_name_Hall           '-P 2ybc'
loop_
_symmetry_equiv_pos_site_id
_symmetry_equiv_pos_as_xyz
1 x,y,z
2 -x,1/2+y,1/2-z
3 -x,-y,-z
4 x,1/2-y,1/2+z
_cell_length_a                   9.701(2)
_cell_length_b                   24.227(5)
_cell_length_c                   9.861(2)
_cell_angle_alpha                90
_cell_angle_beta                 111.821(4)
_cell_angle_gamma                90
_cell_volume                     2151.54
loop_
_atom_site_label
_atom_site_type_symbol
_atom_site_fract_x
_atom_site_fract_y
_atom_site_fract_z
Cd1 Cd 0.33707(13) 0.09021(5) 0.17989(15)
C1 C 0.6170(19) 0.1358(8) 0.2600(19)
C2 C 0.7665(18) 0.1624(8) 0.3197(17)
C3 C 0.7836(16) 0.2127(7) 0.385(2)
C4 C 0.9191(19) 0.2405(8) 0.443(2)
C5 C 1.0412(17) 0.2119(7) 0.423(2)
C6 C 1.0266(19) 0.1628(7) 0.3637(19)
C7 C 1.1592(17) 0.1324(7) 0.3418(17)
C8 C 0.889(2) 0.1360(7) 0.310(2)
C9 C 0.367(3) -0.0440(12) 0.185(3)
H1 H 0.3720 -0.0443 0.0923
C10 C 0.379(4) -0.0872(12) 0.262(4)
H2 H 0.3947 -0.1231 0.2384
C11 C 0.331(3) -0.0128(10) 0.368(3)
H3 H 0.3039 0.0103 0.4294
C12 C 0.288(3) 0.0986(10) -0.160(2)
H4 H 0.3903 0.1026 -0.1331
C13 C 0.080(2) 0.0871(11) -0.142(3)
H5 H 0.0070 0.0790 -0.1049
C14 C 0.054(3) 0.0986(14) -0.288(3)
H6 H -0.0376 0.1036 -0.3635
O1 O 0.5314(18) 0.1433(8) 0.1298(19)
O2 O 0.5729(15) 0.1088(7) 0.3428(16)
O3 O 1.1701(14) 0.1398(5) 0.2233(14)
O4 O 1.2448(17) 0.1051(7) 0.4440(19)
I1 I 0.60308(16) 0.25146(7) 0.4143(2)
I2 I 1.25165(15) 0.25033(7) 0.5061(2)
I3 I 0.8710(2) 0.05510(7) 0.2271(3)
N1 N 0.9357(17) 0.2898(8) 0.513(2)
N2 N 0.3459(19) 0.0020(7) 0.251(2)
N3 N 0.362(3) -0.0691(9) 0.392(3)
N4 N 0.2189(18) 0.0894(7) -0.0674(18)
N5 N 0.191(3) 0.1011(9) -0.295(2)
Cd1_2 Cd 1.33707(13) 0.09021(5) 0.17989(15)
O3_2 O 0.1701(14) 0.1398(5) 0.2233(14)
loop_
_geom_bond_atom_site_label_1
_geom_bond_atom_site_label_2
_geom_bond_site_symmetry_1
_geom_bond_site_symmetry_2
Cd1 O2 1_555 1_555
C1 C2 1_555 1_555
C2 C3 1_555 1_555
C3 C4 1_555 1_555
C4 C5 1_555 1_555
C5 C6 1_555 1_555
C6 C7 1_555 1_555
C7 O3 1_555 1_555
C8 C2 1_555 1_555
C9 H1 1_555 1_555
C10 C9 1_555 1_555
H2 C10 1_555 1_555
C11 H3 1_555 1_555
C12 H4 1_555 1_555
C13 H5 1_555 1_555
C14 C13 1_555 1_555
H6 C14 1_555 1_555
O1 C1 1_555 1_555
O2 C1 1_555 1_555
O3 Cd1_2 1_555 1_555
O4 C7 1_555 1_555
I1 C3 1_555 1_555
I2 C5 1_555 1_555
I3 C8 1_555 1_555
N1 C4 1_555 1_555
N2 Cd1 1_555 1_555
N3 C10 1_555 1_555
N4 Cd1 1_555 1_555
N5 C12 1_555 1_555
O3_2 Cd1 1_555 1_555
C6 C8 1_555 1_555
C9 N2 1_555 1_555
C11 N2 1_555 1_555
C11 N3 1_555 1_555
C12 N4 1_555 1_555
C13 N4 1_555 1_555
C14 N5 1_555 1_555

#END
