
#######################################################################
#
#                 Cambridge Crystallographic Data Centre
#                                CCDC 
#
#######################################################################
#
# If this CIF has been generated from an entry in the Cambridge 
# Structural Database, then it will include bibliographic, chemical, 
# crystal, experimental, refinement or atomic coordinate data resulting 
# from the CCDC's data processing and validation procedures.
#
#######################################################################

data_BURHAZ
_symmetry_cell_setting           triclinic
_symmetry_space_group_name_H-M   'P -1'
_symmetry_Int_Tables_number      2
_space_group_name_Hall           '-P 1'
loop_
_symmetry_equiv_pos_site_id
_symmetry_equiv_pos_as_xyz
1 x,y,z
2 -x,-y,-z
_cell_length_a                   13.1652(3)
_cell_length_b                   13.5132(3)
_cell_length_c                   13.9299(3)
_cell_angle_alpha                61.0350(10)
_cell_angle_beta                 63.5940(10)
_cell_angle_gamma                67.4290(10)
_cell_volume                     1896.58
loop_
_atom_site_label
_atom_site_type_symbol
_atom_site_fract_x
_atom_site_fract_y
_atom_site_fract_z
Mn1 Mn -0.10768(3) 0.76211(3) 0.46327(3)
Mn2 Mn -0.17650(3) 0.62690(3) 0.74440(3)
Mn3 Mn 0.05248(3) 0.51439(3) 0.57727(3)
Mn4 Mn 0.08825(3) 0.76727(3) 0.59818(3)
O1 O -0.07804(12) 0.63448(12) 0.59472(12)
O2 O -0.13800(13) 0.88242(13) 0.33104(13)
C1 C -0.0568(2) 0.93014(19) 0.23413(19)
C2 C 0.0556(2) 0.8659(2) 0.19333(19)
C3 C 0.1335(2) 0.9210(2) 0.0870(2)
H1 H 0.2077 0.8772 0.0584
C4 C 0.1046(2) 1.0374(2) 0.0232(2)
H2 H 0.1585 1.0740 -0.0482
C5 C -0.0042(2) 1.1001(2) 0.0649(2)
H3 H -0.0245 1.1806 0.0216
C6 C -0.0840(2) 1.0485(2) 0.1681(2)
H4 H -0.1582 1.0937 0.1945
C7 C 0.09189(19) 0.7440(2) 0.25673(19)
H5 H 0.1589 0.7003 0.2181
N1 N 0.03689(15) 0.69284(15) 0.36313(15)
O3 O 0.07519(13) 0.57315(12) 0.41041(12)
O4 O -0.28228(14) 0.61631(14) 0.89195(13)
C8 C -0.36816(19) 0.6962(2) 0.9273(2)
C9 C -0.41350(19) 0.8029(2) 0.8509(2)
C10 C -0.5049(2) 0.8822(2) 0.8956(2)
H6 H -0.5350 0.9544 0.8441
C11 C -0.5512(2) 0.8571(3) 1.0127(3)
H7 H -0.6117 0.9121 1.0418
C12 C -0.5088(2) 0.7508(3) 1.0880(2)
H8 H -0.5424 0.7324 1.1692
C13 C -0.4186(2) 0.6715(2) 1.0468(2)
H9 H -0.3903 0.5994 1.0998
C14 C -0.37067(19) 0.8350(2) 0.7264(2)
H10 H -0.4113 0.9044 0.6813
N2 N -0.28085(16) 0.77548(16) 0.67280(15)
O5 O -0.25904(13) 0.81900(13) 0.55453(13)
O6 O 0.16946(13) 0.38156(13) 0.56428(13)
C15 C 0.24252(19) 0.32676(19) 0.6274(2)
C16 C 0.20801(19) 0.31901(18) 0.74194(19)
C17 C 0.2884(2) 0.2560(2) 0.8035(2)
H11 H 0.2656 0.2493 0.8810
C18 C 0.3986(2) 0.2042(2) 0.7537(2)
H12 H 0.4524 0.1638 0.7956
C19 C 0.4312(2) 0.2114(3) 0.6414(3)
H13 H 0.5073 0.1742 0.6073
C20 C 0.3547(2) 0.2717(2) 0.5785(2)
H14 H 0.3785 0.2757 0.5017
C21 C 0.09226(19) 0.36875(19) 0.80107(19)
H15 H 0.0696 0.3452 0.8826
N3 N 0.01816(15) 0.44325(15) 0.74911(15)
O7 O -0.09102(13) 0.47545(13) 0.81760(13)
N4 N -0.06520(17) 0.71728(17) 0.74423(16)
N5 N -0.1096(3) 0.7572(4) 0.8199(3)
N6 N -0.1483(4) 0.7848(5) 0.8966(4)
N7 N 0.16584(16) 0.61952(16) 0.54293(16)
N8 N 0.25499(19) 0.61589(19) 0.46260(19)
N9 N 0.3376(3) 0.6114(3) 0.3873(3)
N10 N 0.03514(19) 0.93584(17) 0.62837(18)
N11 N 0.02514(16) 1.03467(16) 0.57787(16)
N12 N 0.01238(17) 1.13767(16) 0.52758(17)
O8 O -0.28232(14) 0.53428(16) 0.73040(16)
H16 H -0.245(2) 0.520(3) 0.6697(18)
C22 C -0.4054(2) 0.5581(3) 0.7606(3)
H17 H -0.4268 0.5059 0.7460
H18 H -0.4331 0.6385 0.7138
H19 H -0.4411 0.5461 0.8429
O9 O 0.23866(16) 0.84663(16) 0.46165(16)
H20 H 0.268(3) 0.869(3) 0.488(3)
C23 C 0.2549(3) 0.9129(3) 0.3405(3)
H21 H 0.3296 0.9361 0.3027
H22 H 0.1921 0.9821 0.3306
H23 H 0.2540 0.8657 0.3053
O10 O 0.20420(17) 0.69184(18) 0.70331(17)
H24 H 0.170(3) 0.679(3) 0.7745(11)
C24 C 0.3125(3) 0.6101(3) 0.6800(3)
H25 H 0.3503 0.5870 0.7367
H26 H 0.3634 0.6462 0.6018
H27 H 0.2973 0.5416 0.6857
Mn1A Mn 0.10768(3) 1.23789(3) 0.53673(3)
Mn3A Mn -0.05248(3) 0.48561(3) 0.42273(3)
Mn4A Mn -0.08825(3) 1.23273(3) 0.40182(3)
O3A O -0.07519(13) 0.42685(12) 0.58959(12)
N12A N -0.01238(17) 0.86233(16) 0.47242(17)
O11 O 0.66708(17) 0.05609(16) 0.47530(18)
H28 H 0.6994 -0.0135 0.4845
C25 C 0.6115(3) 0.1044(3) 0.3913(3)
H29 H 0.5277 0.1090 0.4297
H30 H 0.6422 0.0556 0.3463
H31 H 0.6257 0.1824 0.3393
N13 N 0.1030(5) 0.6297(4) 0.9213(4)
C26 C 0.1947(4) 0.6318(4) 0.9324(3)
C27 C 0.2824(5) 0.6582(6) 0.9465(5)
H32 H 0.3194 0.7159 0.8736
H33 H 0.3411 0.5875 0.9678
H34 H 0.2463 0.6891 1.0077
O12 O 0.0688(8) 0.5223(7) 0.9593(7)
N14? N -0.0848(8) 0.7179(8) 0.8368(6)
N15? N -0.1034(16) 0.7220(17) 0.9236(11)
O13? O 0.3128(5) 0.5977(5) 0.9429(5)
C28? C 0.3171(7) 0.6795(7) 0.9767(7)
loop_
_geom_bond_atom_site_label_1
_geom_bond_atom_site_label_2
_geom_bond_site_symmetry_1
_geom_bond_site_symmetry_2
Mn1 O1 1_555 1_555
Mn2 O1 1_555 1_555
Mn3 O1 1_555 1_555
Mn4 N4 1_555 1_555
O2 Mn1 1_555 1_555
C1 O2 1_555 1_555
C2 C1 1_555 1_555
C3 C2 1_555 1_555
H1 C3 1_555 1_555
C4 C3 1_555 1_555
H2 C4 1_555 1_555
C5 C4 1_555 1_555
H3 C5 1_555 1_555
C6 C1 1_555 1_555
H4 C6 1_555 1_555
C7 C2 1_555 1_555
H5 C7 1_555 1_555
N1 Mn1 1_555 1_555
O3 Mn3 1_555 1_555
O4 Mn2 1_555 1_555
C8 O4 1_555 1_555
C9 C8 1_555 1_555
C10 C9 1_555 1_555
H6 C10 1_555 1_555
C11 C10 1_555 1_555
H7 C11 1_555 1_555
C12 C11 1_555 1_555
H8 C12 1_555 1_555
C13 C8 1_555 1_555
H9 C13 1_555 1_555
C14 C9 1_555 1_555
H10 C14 1_555 1_555
N2 Mn2 1_555 1_555
O5 Mn1 1_555 1_555
O6 Mn3 1_555 1_555
C15 O6 1_555 1_555
C16 C15 1_555 1_555
C17 C16 1_555 1_555
H11 C17 1_555 1_555
C18 C17 1_555 1_555
H12 C18 1_555 1_555
C19 C18 1_555 1_555
H13 C19 1_555 1_555
C20 C15 1_555 1_555
H14 C20 1_555 1_555
C21 C16 1_555 1_555
H15 C21 1_555 1_555
N3 Mn3 1_555 1_555
O7 Mn2 1_555 1_555
N4 Mn2 1_555 1_555
N5 N4 1_555 1_555
N6 N5 1_555 1_555
N7 Mn3 1_555 1_555
N8 N7 1_555 1_555
N9 N8 1_555 1_555
N10 Mn4 1_555 1_555
N11 N10 1_555 1_555
N12 N11 1_555 1_555
O8 Mn2 1_555 1_555
H16 O8 1_555 1_555
C22 O8 1_555 1_555
H17 C22 1_555 1_555
H18 C22 1_555 1_555
H19 C22 1_555 1_555
O9 Mn4 1_555 1_555
H20 O9 1_555 1_555
C23 O9 1_555 1_555
H21 C23 1_555 1_555
H22 C23 1_555 1_555
H23 C23 1_555 1_555
O10 Mn4 1_555 1_555
H24 O10 1_555 1_555
C24 O10 1_555 1_555
H25 C24 1_555 1_555
H26 C24 1_555 1_555
H27 C24 1_555 1_555
O11 H28 1_555 1_555
C25 O11 1_555 1_555
H29 C25 1_555 1_555
H30 C25 1_555 1_555
H31 C25 1_555 1_555
N13 C26 1_555 1_555
C26 C27 1_555 1_555
C27 H32 1_555 1_555
H33 C27 1_555 1_555
H34 C27 1_555 1_555
Mn1A N12 1_555 1_555
Mn3A O3 1_555 1_555
Mn4A N12 1_555 1_555
O3A Mn3 1_555 1_555
N12A Mn1 1_555 1_555
Mn4 N7 1_555 1_555
Mn4 N12A 1_555 1_555
C5 C6 1_555 1_555
C7 N1 1_555 1_555
N1 O3 1_555 1_555
C12 C13 1_555 1_555
C14 N2 1_555 1_555
N2 O5 1_555 1_555
C19 C20 1_555 1_555
C21 N3 1_555 1_555
N3 O7 1_555 1_555
Mn3A O3A 1_555 1_555

#END
