
#######################################################################
#
#                 Cambridge Crystallographic Data Centre
#                                CCDC 
#
#######################################################################
#
# If this CIF has been generated from an entry in the Cambridge 
# Structural Database, then it will include bibliographic, chemical, 
# crystal, experimental, refinement or atomic coordinate data resulting 
# from the CCDC's data processing and validation procedures.
#
#######################################################################

data_BURJUU
_symmetry_cell_setting           monoclinic
_symmetry_space_group_name_H-M   'C 2/c'
_symmetry_Int_Tables_number      15
_space_group_name_Hall           '-C 2yn'
loop_
_symmetry_equiv_pos_site_id
_symmetry_equiv_pos_as_xyz
1 x,y,z
2 -x,y,1/2-z
3 1/2+x,1/2+y,z
4 1/2-x,1/2+y,1/2-z
5 -x,-y,-z
6 x,-y,1/2+z
7 1/2-x,1/2-y,-z
8 1/2+x,1/2-y,1/2+z
_cell_length_a                   21.6476(12)
_cell_length_b                   8.0624(4)
_cell_length_c                   17.5990(9)
_cell_angle_alpha                90
_cell_angle_beta                 103.582(3)
_cell_angle_gamma                90
_cell_volume                     2985.68
loop_
_atom_site_label
_atom_site_type_symbol
_atom_site_fract_x
_atom_site_fract_y
_atom_site_fract_z
Ag1 Ag 0.192797(13) 0.18061(4) 0.163944(15)
Ag2 Ag 0.0000 0.94463(6) 0.2500
Ag3 Ag 0.120686(15) 0.49209(4) 0.176654(17)
N1 N 0.06842(13) 0.3521(3) 0.07193(14)
N2 N 0.20199(12) 0.3620(3) 0.07215(14)
C1 C 0.09060(14) 0.3302(4) 0.00702(16)
C2 C 0.15503(14) 0.3956(4) 0.00873(16)
O1 O 0.04619(14) 0.6609(4) 0.2392(2)
C3 C 0.05470(16) 0.2533(5) -0.05885(18)
H1 H 0.0711 0.2386 -0.1028
C4 C 0.00983(16) 0.2970(5) 0.0712(2)
H2 H -0.0055 0.3108 0.1159
C5 C -0.02864(16) 0.2210(5) 0.0073(2)
H3 H -0.0693 0.1857 0.0087
C6 C -0.00591(17) 0.1983(5) -0.0588(2)
H4 H -0.0309 0.1468 -0.1027
C7 C 0.16615(17) 0.4877(5) -0.05357(19)
H5 H 0.1335 0.5068 -0.0975
C8 C 0.26004(15) 0.4239(5) 0.0755(2)
H6 H 0.2923 0.4029 0.1196
C9 C 0.22618(18) 0.5506(5) -0.0496(2)
H7 H 0.2343 0.6139 -0.0903
C10 C 0.27373(18) 0.5178(5) 0.0158(2)
H8 H 0.3146 0.5584 0.0197
O2 O 0.22006(12) 0.9356(3) 0.23126(15)
N3 N 0.18727(12) 0.8131(3) 0.20305(16)
O3 O 0.15581(13) 0.8129(4) 0.13494(15)
O4 O 0.18783(12) 0.6887(3) 0.24620(16)
O5 O 0.0000 0.4294(6) 0.2500
N4 N 0.0000 0.5803(5) 0.2500
O6 O 0.15454(14) 1.2592(4) 0.29317(17)
O7 O 0.08869(13) 1.0944(4) 0.21892(15)
N5 N 0.11111(14) 1.1552(4) 0.28551(16)
O8 O 0.08961(14) 1.1101(5) 0.34143(16)
Ag1A Ag -0.192797(13) 0.18061(4) 0.336056(15)
Ag1_2 Ag 0.192797(13) 1.18061(4) 0.163944(15)
Ag1A_2 Ag -0.192797(13) 1.18061(4) 0.336056(15)
Ag3A Ag -0.120686(15) 0.49209(4) 0.323346(17)
N1A N -0.06842(13) 0.3521(3) 0.42807(14)
N2A N -0.20199(12) 0.3620(3) 0.42785(14)
C1A C -0.09060(14) 0.3302(4) 0.49298(16)
C2A C -0.15503(14) 0.3956(4) 0.49127(16)
O1A O -0.04619(14) 0.6609(4) 0.2608(2)
C3A C -0.05470(16) 0.2533(5) 0.55885(18)
H1A H -0.0711 0.2386 0.6028
C4A C -0.00983(16) 0.2970(5) 0.4288(2)
H2A H 0.0055 0.3108 0.3841
C5A C 0.02864(16) 0.2210(5) 0.4927(2)
H3A H 0.0693 0.1857 0.4913
C6A C 0.00591(17) 0.1983(5) 0.5588(2)
H4A H 0.0309 0.1468 0.6027
C7A C -0.16615(17) 0.4877(5) 0.55357(19)
H5A H -0.1335 0.5068 0.5975
C8A C -0.26004(15) 0.4239(5) 0.4245(2)
H6A H -0.2923 0.4029 0.3804
C9A C -0.22618(18) 0.5506(5) 0.5496(2)
H7A H -0.2343 0.6139 0.5903
C10A C -0.27373(18) 0.5178(5) 0.4842(2)
H8A H -0.3146 0.5584 0.4803
O2A O -0.22006(12) 0.9356(3) 0.26874(15)
O2_2 O 0.22006(12) -0.0644(3) 0.23126(15)
O2A_2 O -0.22006(12) -0.0644(3) 0.26874(15)
N3A N -0.18727(12) 0.8131(3) 0.29695(16)
O3A O -0.15581(13) 0.8129(4) 0.36506(15)
O4A O -0.18783(12) 0.6887(3) 0.25380(16)
O6A O -0.15454(14) 1.2592(4) 0.20683(17)
O7A O -0.08869(13) 1.0944(4) 0.28108(15)
N5A N -0.11111(14) 1.1552(4) 0.21449(16)
O8A O -0.08961(14) 1.1101(5) 0.15857(16)
loop_
_geom_bond_atom_site_label_1
_geom_bond_atom_site_label_2
_geom_bond_site_symmetry_1
_geom_bond_site_symmetry_2
Ag1 Ag3 1_555 1_555
Ag2 O1 1_555 1_555
Ag3 N1 1_555 1_555
N1 C1 1_555 1_555
N2 Ag1 1_555 1_555
C1 C2 1_555 1_555
C2 N2 1_555 1_555
O1 Ag3 1_555 1_555
C3 C1 1_555 1_555
H1 C3 1_555 1_555
C4 N1 1_555 1_555
H2 C4 1_555 1_555
C5 C4 1_555 1_555
H3 C5 1_555 1_555
C6 C3 1_555 1_555
H4 C6 1_555 1_555
C7 C2 1_555 1_555
H5 C7 1_555 1_555
C8 N2 1_555 1_555
H6 C8 1_555 1_555
C9 C7 1_555 1_555
H7 C9 1_555 1_555
C10 C8 1_555 1_555
H8 C10 1_555 1_555
O2 N3 1_555 1_555
N3 O3 1_555 1_555
O4 Ag3 1_555 1_555
O5 N4 1_555 1_555
N4 O1 1_555 1_555
O6 N5 1_555 1_555
O7 Ag2 1_555 1_555
N5 O7 1_555 1_555
O8 Ag2 1_555 1_555
Ag1A Ag3A 1_555 1_555
Ag1_2 O2 1_555 1_555
Ag1A_2 O2A 1_555 1_555
Ag3A N1A 1_555 1_555
N1A C1A 1_555 1_555
N2A Ag1A 1_555 1_555
C1A C2A 1_555 1_555
C2A N2A 1_555 1_555
O1A Ag2 1_555 1_555
C3A C1A 1_555 1_555
H1A C3A 1_555 1_555
C4A N1A 1_555 1_555
H2A C4A 1_555 1_555
C5A C4A 1_555 1_555
H3A C5A 1_555 1_555
C6A C3A 1_555 1_555
H4A C6A 1_555 1_555
C7A C2A 1_555 1_555
H5A C7A 1_555 1_555
C8A N2A 1_555 1_555
H6A C8A 1_555 1_555
C9A C7A 1_555 1_555
H7A C9A 1_555 1_555
C10A C8A 1_555 1_555
H8A C10A 1_555 1_555
O2A N3A 1_555 1_555
O2_2 Ag1 1_555 1_555
O2A_2 Ag1A 1_555 1_555
N3A O3A 1_555 1_555
O4A Ag3A 1_555 1_555
O6A N5A 1_555 1_555
O7A Ag2 1_555 1_555
N5A O7A 1_555 1_555
O8A Ag2 1_555 1_555
C5 C6 1_555 1_555
C9 C10 1_555 1_555
N3 O4 1_555 1_555
N4 O1A 1_555 1_555
N5 O8 1_555 1_555
Ag3A O1A 1_555 1_555
C5A C6A 1_555 1_555
C9A C10A 1_555 1_555
N3A O4A 1_555 1_555
N5A O8A 1_555 1_555

#END
