
#######################################################################
#
#                 Cambridge Crystallographic Data Centre
#                                CCDC 
#
#######################################################################
#
# If this CIF has been generated from an entry in the Cambridge 
# Structural Database, then it will include bibliographic, chemical, 
# crystal, experimental, refinement or atomic coordinate data resulting 
# from the CCDC's data processing and validation procedures.
#
#######################################################################

data_BURJEE
_symmetry_cell_setting           monoclinic
_symmetry_space_group_name_H-M   'C 2/c'
_symmetry_Int_Tables_number      15
_space_group_name_Hall           '-C 2yn'
loop_
_symmetry_equiv_pos_site_id
_symmetry_equiv_pos_as_xyz
1 x,y,z
2 -x,y,1/2-z
3 1/2+x,1/2+y,z
4 1/2-x,1/2+y,1/2-z
5 -x,-y,-z
6 x,-y,1/2+z
7 1/2-x,1/2-y,-z
8 1/2+x,1/2-y,1/2+z
_cell_length_a                   32.4370(12)
_cell_length_b                   14.9728(4)
_cell_length_c                   27.7263(10)
_cell_angle_alpha                90
_cell_angle_beta                 114.155(4)
_cell_angle_gamma                90
_cell_volume                     12286.9
loop_
_atom_site_label
_atom_site_type_symbol
_atom_site_fract_x
_atom_site_fract_y
_atom_site_fract_z
Zn1 Zn -0.232660(10) -0.062543(19) 0.639513(11)
N1 N -0.21700(7) 0.05540(13) 0.68224(8)
N2 N -0.28017(7) 0.00702(13) 0.57679(8)
N3 N -0.20098(7) -0.13216(13) 0.70936(8)
N4 N -0.26351(7) -0.18008(13) 0.60376(8)
C1 C -0.18401(8) 0.06533(17) 0.73226(10)
C2 C -0.17641(9) 0.15902(17) 0.74523(11)
H1 H -0.1552 0.1836 0.7774
C3 C -0.20507(9) 0.20493(17) 0.70323(10)
H2 H -0.2084 0.2680 0.7004
C4 C -0.22979(9) 0.13998(16) 0.66326(10)
C5 C -0.26062(9) 0.16025(17) 0.61154(10)
C6 C -0.28273(9) 0.09830(17) 0.57144(10)
C7 C -0.31123(9) 0.12148(18) 0.51772(10)
H3 H -0.3187 0.1802 0.5038
C8 C -0.32534(9) 0.04482(17) 0.49076(10)
H4 H -0.3440 0.0393 0.4541
C9 C -0.30676(9) -0.02760(17) 0.52784(10)
C10 C -0.31358(8) -0.11936(17) 0.51622(10)
C11 C -0.29448(9) -0.18909(17) 0.55269(10)
C12 C -0.30655(9) -0.28206(17) 0.54194(11)
H5 H -0.3276 -0.3063 0.5095
C13 C -0.28241(9) -0.32817(17) 0.58633(10)
H6 H -0.2833 -0.3909 0.5911
C14 C -0.25522(9) -0.26512(17) 0.62489(10)
C15 C -0.22456(9) -0.28551(16) 0.67680(10)
C16 C -0.19911(9) -0.22340(17) 0.71556(10)
C17 C -0.16504(9) -0.24521(17) 0.76733(10)
H7 H -0.1568 -0.3034 0.7817
C18 C -0.14700(9) -0.16724(17) 0.79160(11)
H8 H -0.1237 -0.1605 0.8260
C19 C -0.16977(9) -0.09670(17) 0.75542(10)
C20 C -0.16138(8) -0.00517(17) 0.76587(10)
N5 N -0.29587(9) 0.43511(16) 0.57135(10)
C21 C -0.26482(13) 0.3952(2) 0.56087(16)
H9 H -0.2501 0.4293 0.5436
C22 C -0.25151(12) 0.3070(2) 0.57287(16)
H10 H -0.2288 0.2823 0.5636
C23 C -0.27138(9) 0.25623(17) 0.59810(10)
C24 C -0.30297(15) 0.2972(2) 0.61000(18)
H11 H -0.3175 0.2656 0.6284
C25 C -0.31425(17) 0.3852(3) 0.5955(2)
H12 H -0.3372 0.4112 0.6038
N6 N -0.39754(8) -0.17883(16) 0.35304(9)
C26 C -0.41173(10) -0.12660(19) 0.38243(11)
H13 H -0.4409 -0.1006 0.3659
C27 C -0.38681(9) -0.10822(17) 0.43509(11)
H14 H -0.3992 -0.0720 0.4540
C28 C -0.34335(9) -0.14293(16) 0.46053(10)
C29 C -0.32835(9) -0.19860(17) 0.43055(10)
H15 H -0.2993 -0.2254 0.4460
C30 C -0.35627(10) -0.21422(18) 0.37812(11)
H16 H -0.3455 -0.2526 0.3586
N7 N -0.20285(8) -0.56488(16) 0.71942(10)
C31 C -0.21978(10) -0.50818(19) 0.74381(12)
H17 H -0.2274 -0.5310 0.7711
C32 C -0.22698(9) -0.41800(18) 0.73180(11)
H18 H -0.2385 -0.3807 0.7512
C33 C -0.21730(9) -0.38251(17) 0.69135(10)
C34 C -0.20040(9) -0.44148(18) 0.66516(11)
H19 H -0.1938 -0.4211 0.6367
C35 C -0.19325(10) -0.53006(18) 0.68080(12)
H20 H -0.1808 -0.5685 0.6630
N8 N -0.05470(7) 0.04648(14) 0.91764(8)
C36 C -0.09798(9) 0.05689(18) 0.90919(10)
H21 H -0.1047 0.0726 0.9383
C37 C -0.13341(9) 0.04605(18) 0.86050(10)
H22 H -0.1636 0.0568 0.8562
C38 C -0.12452(9) 0.01922(16) 0.81769(10)
C39 C -0.07976(9) 0.01365(19) 0.82553(10)
H23 H -0.0720 0.0000 0.7968
C40 C -0.04636(10) 0.0280(2) 0.87525(11)
H24 H -0.0158 0.0247 0.8797
Zn2 Zn 0.0000 0.0000 1.0000
N9 N -0.01555(7) 0.10526(13) 1.03766(8)
N10 N 0.04755(7) 0.07805(13) 0.98866(8)
C41 C -0.04718(9) 0.10537(17) 1.05860(10)
C42 C -0.04827(9) 0.19187(18) 1.08070(11)
H25 H -0.0674 0.2096 1.0974
C43 C -0.01707(10) 0.24327(18) 1.07335(11)
H26 H -0.0100 0.3037 1.0840
C44 C 0.00356(9) 0.18906(17) 1.04628(10)
C45 C 0.03645(9) 0.21747(17) 1.02909(11)
C46 C 0.05611(9) 0.16628(17) 1.00178(11)
C47 C 0.08909(10) 0.19787(19) 0.98337(12)
H27 H 0.1008 0.2568 0.9872
C48 C 0.10025(10) 0.12963(18) 0.95999(12)
H28 H 0.1213 0.1309 0.9443
C49 C 0.07398(8) 0.05343(17) 0.96324(10)
C50 C -0.07455(9) 0.03229(17) 1.05770(10)
N11 N 0.08815(12) 0.48624(19) 1.05453(17)
C51 C 0.10482(19) 0.4231(3) 1.0900(2)
H29 H 0.1301 0.4377 1.1217
C52 C 0.08823(16) 0.3365(2) 1.08468(16)
H30 H 0.1016 0.2943 1.1123
C53 C 0.05239(10) 0.31249(18) 1.03907(12)
C54 C 0.03501(12) 0.3774(2) 1.00175(16)
H31 H 0.0103 0.3642 0.9693
C55 C 0.05350(14) 0.4634(2) 1.01118(19)
H32 H 0.0402 0.5077 0.9848
N12 N -0.17780(7) 0.05904(14) 1.11554(8)
C56 C -0.18752(9) 0.04770(16) 1.06426(10)
H33 H -0.2184 0.0451 1.0402
C57 C -0.15496(9) 0.03952(16) 1.04462(10)
H34 H -0.1634 0.0305 1.0079
C58 C -0.10962(9) 0.04454(15) 1.07903(10)
C59 C -0.09944(9) 0.05774(18) 1.13235(10)
H35 H -0.0689 0.0625 1.1572
C60 C -0.13425(9) 0.06389(18) 1.14865(10)
H36 H -0.1269 0.0720 1.1852
Zn1D Zn 0.232660(10) 0.062543(19) 1.360487(11)
Zn1E Zn -0.232660(10) 0.062543(19) 1.139513(11)
Zn1A Zn 0.232660(10) -0.062543(19) 0.860487(11)
N1D N 0.21700(7) -0.05540(13) 1.31776(8)
N2D N 0.28017(7) -0.00702(13) 1.42321(8)
N3D N 0.20098(7) 0.13216(13) 1.29064(8)
N4D N 0.26351(7) 0.18008(13) 1.39624(8)
C1D C 0.18401(8) -0.06533(17) 1.26774(10)
C2D C 0.17641(9) -0.15902(17) 1.25477(11)
H1D H 0.1552 -0.1836 1.2226
C3D C 0.20507(9) -0.20493(17) 1.29677(10)
H2D H 0.2084 -0.2680 1.2996
C4D C 0.22979(9) -0.13998(16) 1.33674(10)
C5D C 0.26062(9) -0.16025(17) 1.38846(10)
C6D C 0.28273(9) -0.09830(17) 1.42856(10)
C7D C 0.31123(9) -0.12148(18) 1.48228(10)
H3D H 0.3187 -0.1802 1.4962
C8D C 0.32534(9) -0.04482(17) 1.50924(10)
H4D H 0.3440 -0.0393 1.5459
C9D C 0.30676(9) 0.02760(17) 1.47216(10)
C10D C 0.31358(8) 0.11936(17) 1.48378(10)
C11D C 0.29448(9) 0.18909(17) 1.44731(10)
C12D C 0.30655(9) 0.28206(17) 1.45806(11)
H5D H 0.3276 0.3063 1.4905
C13D C 0.28241(9) 0.32817(17) 1.41367(10)
H6D H 0.2833 0.3909 1.4089
C14D C 0.25522(9) 0.26512(17) 1.37511(10)
C15D C 0.22456(9) 0.28551(16) 1.32320(10)
C16D C 0.19911(9) 0.22340(17) 1.28444(10)
C17D C 0.16504(9) 0.24521(17) 1.23267(10)
H7D H 0.1568 0.3034 1.2183
C18D C 0.14700(9) 0.16724(17) 1.20840(11)
H8D H 0.1237 0.1605 1.1740
C19D C 0.16977(9) 0.09670(17) 1.24458(10)
C20D C 0.16138(8) 0.00517(17) 1.23413(10)
N5D N 0.29587(9) -0.43511(16) 1.42865(10)
C21D C 0.26482(13) -0.3952(2) 1.43913(16)
H9D H 0.2501 -0.4293 1.4564
C22D C 0.25151(12) -0.3070(2) 1.42713(16)
H10D H 0.2288 -0.2823 1.4364
C23D C 0.27138(9) -0.25623(17) 1.40190(10)
C24D C 0.30297(15) -0.2972(2) 1.39000(18)
H11D H 0.3175 -0.2656 1.3716
C25D C 0.31425(17) -0.3852(3) 1.4045(2)
H12D H 0.3372 -0.4112 1.3962
N6D N 0.39754(8) 0.17883(16) 1.64696(9)
C26D C 0.41173(10) 0.12660(19) 1.61757(11)
H13D H 0.4409 0.1006 1.6341
C27D C 0.38681(9) 0.10822(17) 1.56491(11)
H14D H 0.3992 0.0720 1.5460
C28D C 0.34335(9) 0.14293(16) 1.53947(10)
C29D C 0.32835(9) 0.19860(17) 1.56945(10)
H15D H 0.2993 0.2254 1.5540
C30D C 0.35627(10) 0.21422(18) 1.62188(11)
H16D H 0.3455 0.2526 1.6414
N7D N 0.20285(8) 0.56488(16) 1.28058(10)
C31D C 0.21978(10) 0.50818(19) 1.25619(12)
H17D H 0.2274 0.5310 1.2289
C32D C 0.22698(9) 0.41800(18) 1.26820(11)
H18D H 0.2385 0.3807 1.2488
C33D C 0.21730(9) 0.38251(17) 1.30865(10)
C34D C 0.20040(9) 0.44148(18) 1.33484(11)
H19D H 0.1938 0.4211 1.3633
C35D C 0.19325(10) 0.53006(18) 1.31920(12)
H20D H 0.1808 0.5685 1.3370
N8D N 0.05470(7) -0.04648(14) 1.08236(8)
C36D C 0.09798(9) -0.05689(18) 1.09081(10)
H21D H 0.1047 -0.0726 1.0617
C37D C 0.13341(9) -0.04605(18) 1.13950(10)
H22D H 0.1636 -0.0568 1.1438
C38D C 0.12452(9) -0.01922(16) 1.18231(10)
C39D C 0.07976(9) -0.01365(19) 1.17447(10)
H23D H 0.0720 0.0000 1.2032
C40D C 0.04636(10) -0.0280(2) 1.12475(11)
H24D H 0.0158 -0.0247 1.1203
N9D N 0.01555(7) -0.10526(13) 0.96234(8)
N10D N -0.04755(7) -0.07805(13) 1.01134(8)
C41D C 0.04718(9) -0.10537(17) 0.94140(10)
C42D C 0.04827(9) -0.19187(18) 0.91930(11)
H25D H 0.0674 -0.2096 0.9026
C43D C 0.01707(10) -0.24327(18) 0.92665(11)
H26D H 0.0100 -0.3037 0.9160
C44D C -0.00356(9) -0.18906(17) 0.95372(10)
C45D C -0.03645(9) -0.21747(17) 0.97091(11)
C46D C -0.05611(9) -0.16628(17) 0.99822(11)
C47D C -0.08909(10) -0.19787(19) 1.01663(12)
H27D H -0.1008 -0.2568 1.0128
C48D C -0.10025(10) -0.12963(18) 1.04001(12)
H28D H -0.1213 -0.1309 1.0557
C49D C -0.07398(8) -0.05343(17) 1.03676(10)
C50D C 0.07455(9) -0.03229(17) 0.94230(10)
N11D N -0.08815(12) -0.48624(19) 0.94547(17)
C51D C -0.10482(19) -0.4231(3) 0.9100(2)
H29D H -0.1301 -0.4377 0.8783
C52D C -0.08823(16) -0.3365(2) 0.91532(16)
H30D H -0.1016 -0.2943 0.8877
C53D C -0.05239(10) -0.31249(18) 0.96093(12)
C54D C -0.03501(12) -0.3774(2) 0.99825(16)
H31D H -0.0103 -0.3642 1.0307
C55D C -0.05350(14) -0.4634(2) 0.98882(19)
H32D H -0.0402 -0.5077 1.0152
N12D N 0.17780(7) -0.05904(14) 0.88446(8)
N12E N -0.17780(7) -0.05904(14) 0.61554(8)
N12A N 0.17780(7) 0.05904(14) 1.38446(8)
C56D C 0.18752(9) -0.04770(16) 0.93574(10)
H33D H 0.2184 -0.0451 0.9598
C57D C 0.15496(9) -0.03952(16) 0.95538(10)
H34D H 0.1634 -0.0305 0.9921
C58D C 0.10962(9) -0.04454(15) 0.92097(10)
C59D C 0.09944(9) -0.05774(18) 0.86765(10)
H35D H 0.0689 -0.0625 0.8428
C60D C 0.13425(9) -0.06389(18) 0.85135(10)
H36D H 0.1269 -0.0720 0.8148
O1 O 0.06816(15) 0.2733(3) 0.67510(16)
N13 N 0.09942(10) 0.29676(18) 0.61690(13)
C61 C 0.09209(14) 0.2836(2) 0.56277(17)
H37 H 0.0641 0.2498 0.5445
H38 H 0.1175 0.2502 0.5612
H39 H 0.0897 0.3417 0.5456
C62 C 0.14151(15) 0.3376(3) 0.65072(18)
H40 H 0.1403 0.3546 0.6843
H41 H 0.1467 0.3909 0.6334
H42 H 0.1662 0.2951 0.6575
C63 C 0.06785(17) 0.2684(3) 0.6321(2)
H43 H 0.0421 0.2409 0.6057
O2 O 0.1290(3) -0.3453(5) 0.3792(2)
N14 N 0.0736(2) -0.2391(6) 0.3376(3)
C64 C 0.1010(3) -0.2034(7) 0.3146(4)
H44 H 0.0862 -0.1513 0.2932
H45 H 0.1061 -0.2486 0.2920
H46 H 0.1301 -0.1854 0.3424
C65 C 0.0327(2) -0.2042(7) 0.3306(3)
H47 H 0.0260 -0.1524 0.3070
H48 H 0.0335 -0.1855 0.3649
H49 H 0.0092 -0.2495 0.3150
C66 C 0.0906(3) -0.3220(5) 0.3705(2)
H50 H 0.0723 -0.3545 0.3837
O3 O 0.00692(14) 0.4699(3) 0.12461(17)
N15 N 0.05447(14) 0.5038(2) 0.20744(17)
C67 C 0.0878(2) 0.4341(4) 0.2178(2)
H51 H 0.0763 0.3885 0.1902
H52 H 0.0940 0.4069 0.2523
H53 H 0.1157 0.4597 0.2181
C68 C 0.0677(2) 0.5638(4) 0.2526(2)
H54 H 0.0966 0.5921 0.2584
H55 H 0.0708 0.5298 0.2842
H56 H 0.0445 0.6099 0.2457
C69 C 0.02128(18) 0.5154(4) 0.1626(3)
H57 H 0.0055 0.5701 0.1595
O4? O 0.5152(2) 0.4453(5) 0.7369(2)
N16? N 0.4990(6) 0.2938(5) 0.7584(6)
C70? C 0.5095(4) 0.2040(7) 0.7314(3)
H58? H 0.4926 0.1633 0.7443
H59? H 0.5419 0.1915 0.7497
H60? H 0.4999 0.1956 0.6933
C71? C 0.4706(5) 0.3149(10) 0.7644(5)
H61? H 0.4587 0.2597 0.7727
H62? H 0.4456 0.3505 0.7394
H63? H 0.4863 0.3493 0.7968
C72? C 0.5219(3) 0.3676(11) 0.7284(4)
H64? H 0.5422 0.3562 0.7123
C73? C 0.0515(9) -0.277(2) 0.3456(11)
C74? C 0.0766(8) -0.1674(18) 0.2888(9)
C75? C 0.1287(5) -0.2401(12) 0.3610(6)
H65? H 0.0198 -0.2612 0.3244
H66? H 0.0591 -0.2629 0.3828
H67? H 0.0561 -0.3403 0.3418
H68? H 0.0450 -0.1510 0.2682
H69? H 0.0889 -0.1954 0.2656
H70? H 0.0941 -0.1137 0.3049
H71? H 0.1504 -0.2141 0.3505
N17? N 0.0792(7) -0.2269(15) 0.3282(8)
O5? O 0.1405(7) -0.2837(14) 0.4005(6)
loop_
_geom_bond_atom_site_label_1
_geom_bond_atom_site_label_2
_geom_bond_site_symmetry_1
_geom_bond_site_symmetry_2
Zn1 N1 1_555 1_555
N1 C1 1_555 1_555
N2 Zn1 1_555 1_555
N3 Zn1 1_555 1_555
N4 Zn1 1_555 1_555
C1 C2 1_555 1_555
C2 H1 1_555 1_555
C3 C2 1_555 1_555
H2 C3 1_555 1_555
C4 N1 1_555 1_555
C5 C4 1_555 1_555
C6 N2 1_555 1_555
C7 C6 1_555 1_555
H3 C7 1_555 1_555
C8 C7 1_555 1_555
H4 C8 1_555 1_555
C9 N2 1_555 1_555
C10 C9 1_555 1_555
C11 N4 1_555 1_555
C12 C11 1_555 1_555
H5 C12 1_555 1_555
C13 C12 1_555 1_555
H6 C13 1_555 1_555
C14 N4 1_555 1_555
C15 C14 1_555 1_555
C16 N3 1_555 1_555
C17 C16 1_555 1_555
H7 C17 1_555 1_555
C18 C17 1_555 1_555
H8 C18 1_555 1_555
C19 N3 1_555 1_555
C20 C1 1_555 1_555
N5 C21 1_555 1_555
C21 H9 1_555 1_555
C22 C21 1_555 1_555
H10 C22 1_555 1_555
C23 C5 1_555 1_555
C24 C23 1_555 1_555
H11 C24 1_555 1_555
C25 N5 1_555 1_555
H12 C25 1_555 1_555
N6 C26 1_555 1_555
C26 H13 1_555 1_555
C27 C26 1_555 1_555
H14 C27 1_555 1_555
C28 C10 1_555 1_555
C29 C28 1_555 1_555
H15 C29 1_555 1_555
C30 N6 1_555 1_555
H16 C30 1_555 1_555
N7 C31 1_555 1_555
C31 H17 1_555 1_555
C32 C31 1_555 1_555
H18 C32 1_555 1_555
C33 C15 1_555 1_555
C34 C33 1_555 1_555
H19 C34 1_555 1_555
C35 N7 1_555 1_555
H20 C35 1_555 1_555
N8 C36 1_555 1_555
C36 H21 1_555 1_555
C37 C36 1_555 1_555
H22 C37 1_555 1_555
C38 C20 1_555 1_555
C39 C38 1_555 1_555
H23 C39 1_555 1_555
C40 N8 1_555 1_555
H24 C40 1_555 1_555
Zn2 N8 1_555 1_555
N9 Zn2 1_555 1_555
N10 Zn2 1_555 1_555
C41 N9 1_555 1_555
C42 C41 1_555 1_555
H25 C42 1_555 1_555
C43 C42 1_555 1_555
H26 C43 1_555 1_555
C44 N9 1_555 1_555
C45 C44 1_555 1_555
C46 N10 1_555 1_555
C47 C46 1_555 1_555
H27 C47 1_555 1_555
C48 C47 1_555 1_555
H28 C48 1_555 1_555
C49 N10 1_555 1_555
C50 C41 1_555 1_555
N11 C51 1_555 1_555
C51 H29 1_555 1_555
C52 C51 1_555 1_555
H30 C52 1_555 1_555
C53 C45 1_555 1_555
C54 C53 1_555 1_555
H31 C54 1_555 1_555
C55 N11 1_555 1_555
H32 C55 1_555 1_555
N12 C56 1_555 1_555
C56 H33 1_555 1_555
C57 C56 1_555 1_555
H34 C57 1_555 1_555
C58 C50 1_555 1_555
C59 C58 1_555 1_555
H35 C59 1_555 1_555
C60 N12 1_555 1_555
H36 C60 1_555 1_555
O1 C63 1_555 1_555
N13 C61 1_555 1_555
C61 H37 1_555 1_555
H38 C61 1_555 1_555
H39 C61 1_555 1_555
C62 N13 1_555 1_555
H40 C62 1_555 1_555
H41 C62 1_555 1_555
H42 C62 1_555 1_555
C63 N13 1_555 1_555
H43 C63 1_555 1_555
O2 C66 1_555 1_555
N14 C64 1_555 1_555
C64 H44 1_555 1_555
H45 C64 1_555 1_555
H46 C64 1_555 1_555
C65 N14 1_555 1_555
H47 C65 1_555 1_555
H48 C65 1_555 1_555
H49 C65 1_555 1_555
C66 N14 1_555 1_555
H50 C66 1_555 1_555
O3 C69 1_555 1_555
N15 C67 1_555 1_555
C67 H51 1_555 1_555
H52 C67 1_555 1_555
H53 C67 1_555 1_555
C68 N15 1_555 1_555
H54 C68 1_555 1_555
H55 C68 1_555 1_555
H56 C68 1_555 1_555
C69 N15 1_555 1_555
H57 C69 1_555 1_555
Zn1D N1D 1_555 1_555
Zn1E N12 1_555 1_555
Zn1A N12D 1_555 1_555
N1D C1D 1_555 1_555
N2D Zn1D 1_555 1_555
N3D Zn1D 1_555 1_555
N4D Zn1D 1_555 1_555
C1D C2D 1_555 1_555
C2D H1D 1_555 1_555
C3D C2D 1_555 1_555
H2D C3D 1_555 1_555
C4D N1D 1_555 1_555
C5D C4D 1_555 1_555
C6D N2D 1_555 1_555
C7D C6D 1_555 1_555
H3D C7D 1_555 1_555
C8D C7D 1_555 1_555
H4D C8D 1_555 1_555
C9D N2D 1_555 1_555
C10D C9D 1_555 1_555
C11D N4D 1_555 1_555
C12D C11D 1_555 1_555
H5D C12D 1_555 1_555
C13D C12D 1_555 1_555
H6D C13D 1_555 1_555
C14D N4D 1_555 1_555
C15D C14D 1_555 1_555
C16D N3D 1_555 1_555
C17D C16D 1_555 1_555
H7D C17D 1_555 1_555
C18D C17D 1_555 1_555
H8D C18D 1_555 1_555
C19D N3D 1_555 1_555
C20D C1D 1_555 1_555
N5D C21D 1_555 1_555
C21D H9D 1_555 1_555
C22D C21D 1_555 1_555
H10D C22D 1_555 1_555
C23D C5D 1_555 1_555
C24D C23D 1_555 1_555
H11D C24D 1_555 1_555
C25D N5D 1_555 1_555
H12D C25D 1_555 1_555
N6D C26D 1_555 1_555
C26D H13D 1_555 1_555
C27D C26D 1_555 1_555
H14D C27D 1_555 1_555
C28D C10D 1_555 1_555
C29D C28D 1_555 1_555
H15D C29D 1_555 1_555
C30D N6D 1_555 1_555
H16D C30D 1_555 1_555
N7D C31D 1_555 1_555
C31D H17D 1_555 1_555
C32D C31D 1_555 1_555
H18D C32D 1_555 1_555
C33D C15D 1_555 1_555
C34D C33D 1_555 1_555
H19D C34D 1_555 1_555
C35D N7D 1_555 1_555
H20D C35D 1_555 1_555
N8D Zn2 1_555 1_555
C36D N8D 1_555 1_555
H21D C36D 1_555 1_555
C37D C36D 1_555 1_555
H22D C37D 1_555 1_555
C38D C20D 1_555 1_555
C39D C38D 1_555 1_555
H23D C39D 1_555 1_555
C40D N8D 1_555 1_555
H24D C40D 1_555 1_555
N9D Zn2 1_555 1_555
N10D Zn2 1_555 1_555
C41D N9D 1_555 1_555
C42D C41D 1_555 1_555
H25D C42D 1_555 1_555
C43D C42D 1_555 1_555
H26D C43D 1_555 1_555
C44D N9D 1_555 1_555
C45D C44D 1_555 1_555
C46D N10D 1_555 1_555
C47D C46D 1_555 1_555
H27D C47D 1_555 1_555
C48D C47D 1_555 1_555
H28D C48D 1_555 1_555
C49D C50 1_555 1_555
C50D C49 1_555 1_555
N11D C51D 1_555 1_555
C51D H29D 1_555 1_555
C52D C51D 1_555 1_555
H30D C52D 1_555 1_555
C53D C45D 1_555 1_555
C54D C53D 1_555 1_555
H31D C54D 1_555 1_555
C55D N11D 1_555 1_555
H32D C55D 1_555 1_555
N12D C56D 1_555 1_555
N12E Zn1 1_555 1_555
N12A Zn1D 1_555 1_555
C56D H33D 1_555 1_555
C57D C56D 1_555 1_555
H34D C57D 1_555 1_555
C58D C50D 1_555 1_555
C59D C58D 1_555 1_555
H35D C59D 1_555 1_555
C60D N12D 1_555 1_555
H36D C60D 1_555 1_555
C3 C4 1_555 1_555
C5 C6 1_555 1_555
C8 C9 1_555 1_555
C10 C11 1_555 1_555
C13 C14 1_555 1_555
C15 C16 1_555 1_555
C18 C19 1_555 1_555
C19 C20 1_555 1_555
C22 C23 1_555 1_555
C24 C25 1_555 1_555
C27 C28 1_555 1_555
C29 C30 1_555 1_555
C32 C33 1_555 1_555
C34 C35 1_555 1_555
C37 C38 1_555 1_555
C39 C40 1_555 1_555
C43 C44 1_555 1_555
C45 C46 1_555 1_555
C48 C49 1_555 1_555
C52 C53 1_555 1_555
C54 C55 1_555 1_555
C57 C58 1_555 1_555
C59 C60 1_555 1_555
C3D C4D 1_555 1_555
C5D C6D 1_555 1_555
C8D C9D 1_555 1_555
C10D C11D 1_555 1_555
C13D C14D 1_555 1_555
C15D C16D 1_555 1_555
C18D C19D 1_555 1_555
C19D C20D 1_555 1_555
C22D C23D 1_555 1_555
C24D C25D 1_555 1_555
C27D C28D 1_555 1_555
C29D C30D 1_555 1_555
C32D C33D 1_555 1_555
C34D C35D 1_555 1_555
C37D C38D 1_555 1_555
C39D C40D 1_555 1_555
N10D C49D 1_555 1_555
C41D C50D 1_555 1_555
C43D C44D 1_555 1_555
C45D C46D 1_555 1_555
C48D C49D 1_555 1_555
C52D C53D 1_555 1_555
C54D C55D 1_555 1_555
C57D C58D 1_555 1_555
C59D C60D 1_555 1_555

#END
