
#######################################################################
#
#                 Cambridge Crystallographic Data Centre
#                                CCDC 
#
#######################################################################
#
# If this CIF has been generated from an entry in the Cambridge 
# Structural Database, then it will include bibliographic, chemical, 
# crystal, experimental, refinement or atomic coordinate data resulting 
# from the CCDC's data processing and validation procedures.
#
#######################################################################

data_BURKEE
_symmetry_cell_setting           monoclinic
_symmetry_space_group_name_H-M   'P 21/c'
_symmetry_Int_Tables_number      14
_space_group_name_Hall           '-P 2ybc'
loop_
_symmetry_equiv_pos_site_id
_symmetry_equiv_pos_as_xyz
1 x,y,z
2 -x,1/2+y,1/2-z
3 -x,-y,-z
4 x,1/2-y,1/2+z
_cell_length_a                   7.58(2)
_cell_length_b                   14.46(3)
_cell_length_c                   7.66(2)
_cell_angle_alpha                90
_cell_angle_beta                 101.2(1)
_cell_angle_gamma                90
_cell_volume                     823.598
loop_
_atom_site_label
_atom_site_type_symbol
_atom_site_fract_x
_atom_site_fract_y
_atom_site_fract_z
Zn1 Zn -0.07950 0.13840 0.20210
C1 C -0.43750 0.12630 -0.05060
C2 C -0.52910 0.09880 -0.23120
C3 C -0.67970 0.13880 -0.32590
C4 C -0.76620 0.10700 -0.50330
O1 O -0.26460 0.12290 -0.02720
O2 O -0.52360 0.13280 0.06960
O3 O -0.73010 0.02900 -0.55350
O4 O -0.88490 0.16540 -0.57610
O5 O -0.28050 0.12460 0.36120
O6 O 0.11020 0.15540 0.02610
O7 O -0.13510 0.28440 0.19040
O8 O -0.02540 -0.00260 0.21900
O4_2 O 0.11510 0.16540 0.42390
Zn1_2 Zn -1.07950 0.13840 -0.79790
loop_
_geom_bond_atom_site_label_1
_geom_bond_atom_site_label_2
_geom_bond_site_symmetry_1
_geom_bond_site_symmetry_2
Zn1 O1 1_555 1_555
C1 C2 1_555 1_555
C2 C3 1_555 1_555
C3 C4 1_555 1_555
C4 O3 1_555 1_555
O1 C1 1_555 1_555
O2 C1 1_555 1_555
O4 C4 1_555 1_555
O5 Zn1 1_555 1_555
O6 Zn1 1_555 1_555
O7 Zn1 1_555 1_555
O8 Zn1 1_555 1_555
O4_2 Zn1 1_555 1_555
Zn1_2 O4 1_555 1_555

#END
