
#######################################################################
#
#                 Cambridge Crystallographic Data Centre
#                                CCDC 
#
#######################################################################
#
# If this CIF has been generated from an entry in the Cambridge 
# Structural Database, then it will include bibliographic, chemical, 
# crystal, experimental, refinement or atomic coordinate data resulting 
# from the CCDC's data processing and validation procedures.
#
#######################################################################

data_BURLEH
_symmetry_cell_setting           monoclinic
_symmetry_space_group_name_H-M   'C 2/c'
_symmetry_Int_Tables_number      15
_space_group_name_Hall           '-C 2yn'
loop_
_symmetry_equiv_pos_site_id
_symmetry_equiv_pos_as_xyz
1 x,y,z
2 -x,y,1/2-z
3 1/2+x,1/2+y,z
4 1/2-x,1/2+y,1/2-z
5 -x,-y,-z
6 x,-y,1/2+z
7 1/2-x,1/2-y,-z
8 1/2+x,1/2-y,1/2+z
_cell_length_a                   10.0809(19)
_cell_length_b                   11.449(2)
_cell_length_c                   7.5369(15)
_cell_angle_alpha                90
_cell_angle_beta                 100.493(3)
_cell_angle_gamma                90
_cell_volume                     855.334
loop_
_atom_site_label
_atom_site_type_symbol
_atom_site_fract_x
_atom_site_fract_y
_atom_site_fract_z
Ag1 Ag 1.12833(3) 0.11966(3) 1.12541(5)
C1 C 0.8792(3) 0.2580(4) 0.8819(4)
N1 N 0.9306(4) 0.1555(3) 0.9361(5)
C2 C 0.7624(5) 0.1304(3) 0.7164(7)
H1 H 0.6982 0.0950 0.6286
N2 N 0.8540(4) 0.0760(3) 0.8286(6)
N3 N 0.7742(3) 0.2453(3) 0.7459(5)
N4 N 0.9309(6) 0.3716(4) 0.9561(9)
H2 H 0.846(5) 0.419(6) 0.944(11)
H3 H 0.932(15) 0.436(8) 0.866(14)
Ag1D Ag 0.87167(3) -0.11966(3) 0.87459(5)
Ag1G Ag 0.62833(3) 0.38034(3) 0.62541(5)
N2D N 1.1460(4) -0.0760(3) 1.1714(6)
N3G N 1.2742(3) 0.2547(3) 1.2459(5)
loop_
_geom_bond_atom_site_label_1
_geom_bond_atom_site_label_2
_geom_bond_site_symmetry_1
_geom_bond_site_symmetry_2
Ag1 N1 1_555 1_555
C1 N1 1_555 1_555
N1 N2 1_555 1_555
C2 H1 1_555 1_555
N2 C2 1_555 1_555
N3 C1 1_555 1_555
N4 C1 1_555 1_555
H2 N4 1_555 1_555
H3 N4 1_555 1_555
Ag1D N2 1_555 1_555
Ag1G N3 1_555 1_555
N2D Ag1 1_555 1_555
N3G Ag1 1_555 1_555
C2 N3 1_555 1_555

#END
