
#######################################################################
#
#                 Cambridge Crystallographic Data Centre
#                                CCDC 
#
#######################################################################
#
# If this CIF has been generated from an entry in the Cambridge 
# Structural Database, then it will include bibliographic, chemical, 
# crystal, experimental, refinement or atomic coordinate data resulting 
# from the CCDC's data processing and validation procedures.
#
#######################################################################

data_BURPOU
_symmetry_cell_setting           monoclinic
_symmetry_space_group_name_H-M   'C 2/c'
_symmetry_Int_Tables_number      15
_space_group_name_Hall           '-C 2yn'
loop_
_symmetry_equiv_pos_site_id
_symmetry_equiv_pos_as_xyz
1 x,y,z
2 -x,y,1/2-z
3 1/2+x,1/2+y,z
4 1/2-x,1/2+y,1/2-z
5 -x,-y,-z
6 x,-y,1/2+z
7 1/2-x,1/2-y,-z
8 1/2+x,1/2-y,1/2+z
_cell_length_a                   21.445(5)
_cell_length_b                   7.9806(12)
_cell_length_c                   30.263(7)
_cell_angle_alpha                90
_cell_angle_beta                 96.687(19)
_cell_angle_gamma                90
_cell_volume                     5144.1
loop_
_atom_site_label
_atom_site_type_symbol
_atom_site_fract_x
_atom_site_fract_y
_atom_site_fract_z
Pb1 Pb 0.5000 0.83995(2) 0.2500
Pb2 Pb 0.897530(7) 1.791100(18) 0.126720(4)
C1 C 0.5620(2) 1.2280(5) 0.21462(12)
H1 H 0.5200 1.2585 0.2130
C2 C 0.60327(19) 1.3379(5) 0.19839(12)
H2 H 0.5888 1.4399 0.1864
C3 C 0.66614(19) 1.2974(5) 0.19979(11)
C4 C 0.6844(2) 1.1439(5) 0.21927(14)
H3 H 0.7262 1.1106 0.2215
C5 C 0.6401(2) 1.0419(5) 0.23517(14)
H4 H 0.6534 0.9410 0.2484
C6 C 0.7483(2) 1.6769(5) 0.15960(14)
H5 H 0.7428 1.7924 0.1583
C7 C 0.7042(2) 1.5818(5) 0.17813(13)
H6 H 0.6698 1.6329 0.1886
C8 C 0.71176(18) 1.4083(5) 0.18093(11)
C9 C 0.76436(19) 1.3425(5) 0.16428(13)
H7 H 0.7716 1.2276 0.1653
C10 C 0.8056(2) 1.4467(5) 0.14636(14)
H8 H 0.8405 1.3988 0.1357
C11 C 1.0251(2) 1.9860(5) 0.09460(14)
H9 H 1.0187 2.0479 0.1197
C12 C 1.0816(2) 2.0028(5) 0.07753(14)
H10 H 1.1125 2.0733 0.0912
C13 C 1.09188(19) 1.9129(5) 0.03951(13)
C14 C 1.04318(19) 1.8124(5) 0.02050(12)
H11 H 1.0477 1.7529 -0.0054
C15 C 0.98782(18) 1.7999(4) 0.03977(11)
C16 C 0.8343(2) 1.5993(6) 0.03082(14)
H12 H 0.8028 1.5825 0.0491
C17 C 0.8255(2) 1.5390(6) -0.01225(14)
H13 H 0.7878 1.4872 -0.0228
C18 C 0.8718(2) 1.5548(5) -0.03966(13)
C19 C 0.9267(2) 1.6344(5) -0.02193(12)
H14 H 0.9599 1.6446 -0.0390
C20 C 0.93265(18) 1.6991(4) 0.02108(11)
C21 C 1.1535(2) 1.9258(7) 0.02079(17)
H15 H 1.1806 2.0012 0.0387
H16 H 1.1465 1.9673 -0.0092
H17 H 1.1726 1.8171 0.0209
C22 C 0.8639(2) 1.4925(6) -0.08687(13)
H18 H 0.9014 1.5150 -0.1003
H19 H 0.8291 1.5488 -0.1033
H20 H 0.8562 1.3740 -0.0871
N1 N 0.48864(19) 0.9244(5) 0.14771(11)
N2 N 0.82355(19) 2.0874(5) 0.08788(11)
N3 N 0.39351(17) 0.5560(4) 0.21101(10)
N4 N 0.57923(17) 1.0802(4) 0.23256(10)
N5 N 0.79890(17) 1.6117(4) 0.14340(11)
N6 N 0.97925(16) 1.8853(4) 0.07690(10)
N7 N 0.88624(16) 1.6809(4) 0.04731(10)
O1 O 0.45334(15) 0.9783(4) 0.17546(10)
O2 O 0.4810(2) 0.9827(6) 0.10975(11)
O3 O 0.52952(17) 0.8203(4) 0.16005(10)
O4 O 0.80418(17) 1.9374(4) 0.09073(10)
O5 O 0.87840(17) 2.1180(4) 0.10394(12)
O6 O 0.78872(17) 2.1958(4) 0.07025(11)
O7 O 0.34778(15) 0.4709(4) 0.19557(10)
O8 O 0.38578(16) 0.6736(4) 0.23742(11)
O9 O 0.44696(15) 0.5268(4) 0.20075(10)
Pb2A Pb 0.102470(7) 1.791100(18) 0.373280(4)
Pb2B Pb 0.397530(7) 0.291100(18) 0.126720(4)
Pb2C Pb 0.602470(7) 0.291100(18) 0.373280(4)
C1A C 0.4380(2) 1.2280(5) 0.28538(12)
H1A H 0.4800 1.2585 0.2870
C2A C 0.39673(19) 1.3379(5) 0.30161(12)
H2A H 0.4112 1.4399 0.3136
C3A C 0.33386(19) 1.2974(5) 0.30021(11)
C4A C 0.3156(2) 1.1439(5) 0.28073(14)
H3A H 0.2738 1.1106 0.2785
C5A C 0.3599(2) 1.0419(5) 0.26483(14)
H4A H 0.3466 0.9410 0.2516
C6A C 0.2517(2) 1.6769(5) 0.34040(14)
H5A H 0.2572 1.7924 0.3417
C7A C 0.2958(2) 1.5818(5) 0.32187(13)
H6A H 0.3302 1.6329 0.3114
C8A C 0.28824(18) 1.4083(5) 0.31907(11)
C9A C 0.23564(19) 1.3425(5) 0.33572(13)
H7A H 0.2284 1.2276 0.3347
C10A C 0.1944(2) 1.4467(5) 0.35364(14)
H8A H 0.1595 1.3988 0.3643
C11A C -0.0251(2) 1.9860(5) 0.40540(14)
H9A H -0.0187 2.0479 0.3803
C12A C -0.0816(2) 2.0028(5) 0.42247(14)
H10A H -0.1125 2.0733 0.4088
C13A C -0.09188(19) 1.9129(5) 0.46049(13)
C14A C -0.04318(19) 1.8124(5) 0.47950(12)
H11A H -0.0477 1.7529 0.5054
C15A C 0.01218(18) 1.7999(4) 0.46023(11)
C16A C 0.1657(2) 1.5993(6) 0.46918(14)
H12A H 0.1972 1.5825 0.4509
C17A C 0.1745(2) 1.5390(6) 0.51225(14)
H13A H 0.2122 1.4872 0.5228
C18A C 0.1282(2) 1.5548(5) 0.53966(13)
C19A C 0.0733(2) 1.6344(5) 0.52193(12)
H14A H 0.0401 1.6446 0.5390
C20A C 0.06735(18) 1.6991(4) 0.47892(11)
C21A C -0.1535(2) 1.9258(7) 0.47921(17)
H15A H -0.1806 2.0012 0.4613
H16A H -0.1465 1.9673 0.5092
H17A H -0.1726 1.8171 0.4791
C22A C 0.1361(2) 1.4925(6) 0.58687(13)
H18A H 0.0986 1.5150 0.6003
H19A H 0.1709 1.5488 0.6033
H20A H 0.1438 1.3740 0.5871
N1A N 0.51136(19) 0.9244(5) 0.35229(11)
N2A N 0.17645(19) 2.0874(5) 0.41212(11)
N3A N 0.60649(17) 0.5560(4) 0.28899(10)
N4A N 0.42077(17) 1.0802(4) 0.26744(10)
N5A N 0.20110(17) 1.6117(4) 0.35660(11)
N6A N 0.02075(16) 1.8853(4) 0.42310(10)
N7A N 0.11376(16) 1.6809(4) 0.45269(10)
O1A O 0.54666(15) 0.9783(4) 0.32454(10)
O2A O 0.5190(2) 0.9827(6) 0.39025(11)
O3A O 0.47048(17) 0.8203(4) 0.33995(10)
O4A O 0.19582(17) 1.9374(4) 0.40927(10)
O5A O 0.12160(17) 2.1180(4) 0.39606(12)
O6A O 0.21128(17) 2.1958(4) 0.42975(11)
O7A O 0.65222(15) 0.4709(4) 0.30443(10)
O7B O 0.84778(15) 1.9709(4) 0.19557(10)
O7C O 0.15222(15) 1.9709(4) 0.30443(10)
O8A O 0.61422(16) 0.6736(4) 0.26258(11)
O9A O 0.55304(15) 0.5268(4) 0.29925(10)
loop_
_geom_bond_atom_site_label_1
_geom_bond_atom_site_label_2
_geom_bond_site_symmetry_1
_geom_bond_site_symmetry_2
Pb1 N4 1_555 1_555
Pb2 N5 1_555 1_555
C1 H1 1_555 1_555
C2 C1 1_555 1_555
H2 C2 1_555 1_555
C3 C2 1_555 1_555
C4 C3 1_555 1_555
H3 C4 1_555 1_555
C5 C4 1_555 1_555
H4 C5 1_555 1_555
C6 H5 1_555 1_555
C7 C6 1_555 1_555
H6 C7 1_555 1_555
C8 C3 1_555 1_555
C9 C8 1_555 1_555
H7 C9 1_555 1_555
C10 C9 1_555 1_555
H8 C10 1_555 1_555
C11 H9 1_555 1_555
C12 C11 1_555 1_555
H10 C12 1_555 1_555
C13 C12 1_555 1_555
C14 C13 1_555 1_555
H11 C14 1_555 1_555
C15 C14 1_555 1_555
C16 H12 1_555 1_555
C17 C16 1_555 1_555
H13 C17 1_555 1_555
C18 C17 1_555 1_555
C19 C18 1_555 1_555
H14 C19 1_555 1_555
C20 C15 1_555 1_555
C21 C13 1_555 1_555
H15 C21 1_555 1_555
H16 C21 1_555 1_555
H17 C21 1_555 1_555
C22 C18 1_555 1_555
H18 C22 1_555 1_555
H19 C22 1_555 1_555
H20 C22 1_555 1_555
N1 O1 1_555 1_555
N2 O4 1_555 1_555
N3 O7 1_555 1_555
N4 C1 1_555 1_555
N5 C6 1_555 1_555
N6 Pb2 1_555 1_555
N7 Pb2 1_555 1_555
O1 Pb1 1_555 1_555
O2 N1 1_555 1_555
O3 Pb1 1_555 1_555
O4 Pb2 1_555 1_555
O5 Pb2 1_555 1_555
O6 N2 1_555 1_555
O7 Pb2B 1_555 1_555
O8 Pb1 1_555 1_555
O9 N3 1_555 1_555
Pb2A N5A 1_555 1_555
Pb2C O7A 1_555 1_555
C1A H1A 1_555 1_555
C2A C1A 1_555 1_555
H2A C2A 1_555 1_555
C3A C2A 1_555 1_555
C4A C3A 1_555 1_555
H3A C4A 1_555 1_555
C5A C4A 1_555 1_555
H4A C5A 1_555 1_555
C6A H5A 1_555 1_555
C7A C6A 1_555 1_555
H6A C7A 1_555 1_555
C8A C3A 1_555 1_555
C9A C8A 1_555 1_555
H7A C9A 1_555 1_555
C10A C9A 1_555 1_555
H8A C10A 1_555 1_555
C11A H9A 1_555 1_555
C12A C11A 1_555 1_555
H10A C12A 1_555 1_555
C13A C12A 1_555 1_555
C14A C13A 1_555 1_555
H11A C14A 1_555 1_555
C15A C14A 1_555 1_555
C16A H12A 1_555 1_555
C17A C16A 1_555 1_555
H13A C17A 1_555 1_555
C18A C17A 1_555 1_555
C19A C18A 1_555 1_555
H14A C19A 1_555 1_555
C20A C15A 1_555 1_555
C21A C13A 1_555 1_555
H15A C21A 1_555 1_555
H16A C21A 1_555 1_555
H17A C21A 1_555 1_555
C22A C18A 1_555 1_555
H18A C22A 1_555 1_555
H19A C22A 1_555 1_555
H20A C22A 1_555 1_555
N1A O1A 1_555 1_555
N2A O4A 1_555 1_555
N3A O7A 1_555 1_555
N4A Pb1 1_555 1_555
N5A C6A 1_555 1_555
N6A Pb2A 1_555 1_555
N7A Pb2A 1_555 1_555
O1A Pb1 1_555 1_555
O2A N1A 1_555 1_555
O3A Pb1 1_555 1_555
O4A Pb2A 1_555 1_555
O5A Pb2A 1_555 1_555
O6A N2A 1_555 1_555
O7B Pb2 1_555 1_555
O7C Pb2A 1_555 1_555
O8A Pb1 1_555 1_555
O9A N3A 1_555 1_555
C5 N4 1_555 1_555
C7 C8 1_555 1_555
C10 N5 1_555 1_555
C11 N6 1_555 1_555
C15 N6 1_555 1_555
C16 N7 1_555 1_555
C19 C20 1_555 1_555
C20 N7 1_555 1_555
N1 O3 1_555 1_555
N2 O5 1_555 1_555
N3 O8 1_555 1_555
C1A N4A 1_555 1_555
C5A N4A 1_555 1_555
C7A C8A 1_555 1_555
C10A N5A 1_555 1_555
C11A N6A 1_555 1_555
C15A N6A 1_555 1_555
C16A N7A 1_555 1_555
C19A C20A 1_555 1_555
C20A N7A 1_555 1_555
N1A O3A 1_555 1_555
N2A O5A 1_555 1_555
N3A O8A 1_555 1_555

#END
