
#######################################################################
#
#                 Cambridge Crystallographic Data Centre
#                                CCDC 
#
#######################################################################
#
# If this CIF has been generated from an entry in the Cambridge 
# Structural Database, then it will include bibliographic, chemical, 
# crystal, experimental, refinement or atomic coordinate data resulting 
# from the CCDC's data processing and validation procedures.
#
#######################################################################

data_BURQOV
_symmetry_cell_setting           monoclinic
_symmetry_space_group_name_H-M   'C 2/c'
_symmetry_Int_Tables_number      15
_space_group_name_Hall           '-C 2yn'
loop_
_symmetry_equiv_pos_site_id
_symmetry_equiv_pos_as_xyz
1 x,y,z
2 -x,y,1/2-z
3 1/2+x,1/2+y,z
4 1/2-x,1/2+y,1/2-z
5 -x,-y,-z
6 x,-y,1/2+z
7 1/2-x,1/2-y,-z
8 1/2+x,1/2-y,1/2+z
_cell_length_a                   23.517(2)
_cell_length_b                   10.6678(8)
_cell_length_c                   25.1480(19)
_cell_angle_alpha                90
_cell_angle_beta                 96.667(2)
_cell_angle_gamma                90
_cell_volume                     6266.33
loop_
_atom_site_label
_atom_site_type_symbol
_atom_site_fract_x
_atom_site_fract_y
_atom_site_fract_z
Ag1 Ag 0.496230(11) 1.36538(3) 0.183830(10)
Ag2 Ag 0.343960(12) 0.89431(3) -0.155650(10)
N1 N 0.49350(11) 1.1632(3) 0.17982(10)
H1 H 0.5244 1.1334 0.2003
H2 H 0.4624 1.1373 0.1946
N2 N 0.34484(17) 1.0948(3) -0.15572(12)
H3 H 0.3737 1.1196 -0.1739
H4 H 0.3121 1.1209 -0.1745
N3 N 0.34682(12) 1.6952(3) -0.15376(10)
H5 H 0.3152 1.6676 -0.1739
H6 H 0.3769 1.6717 -0.1705
N4 N 0.50536(15) 1.5645(4) 0.17621(12)
H7 H 0.4764 1.6006 0.1911
H8 H 0.5380 1.5867 0.1962
C1 C 0.50647(19) 1.6210(4) 0.12268(17)
H9 H 0.5410 1.5948 0.1082
H10 H 0.5074 1.7115 0.1260
C2 C 0.45490(15) 1.5833(4) 0.08435(14)
H11 H 0.4204 1.6066 0.0996
H12 H 0.4548 1.4929 0.0801
C3 C 0.45402(14) 1.6446(3) 0.02913(14)
H13 H 0.4519 1.7348 0.0331
H14 H 0.4896 1.6255 0.0149
C4 C 0.40489(14) 1.6018(3) -0.01016(13)
H15 H 0.3694 1.6162 0.0051
H16 H 0.4084 1.5123 -0.0158
C5 C 0.40157(13) 1.6678(3) -0.06401(12)
H17 H 0.3989 1.7575 -0.0585
H18 H 0.4365 1.6517 -0.0799
C6 C 0.35089(15) 1.6256(3) -0.10250(14)
H19 H 0.3545 1.5367 -0.1096
H20 H 0.3160 1.6381 -0.0861
C7 C 0.35097(17) 1.1621(3) -0.10378(14)
H21 H 0.3150 1.1583 -0.0885
H22 H 0.3594 1.2496 -0.1099
C8 C 0.39772(14) 1.1076(3) -0.06451(13)
H23 H 0.4342 1.1193 -0.0782
H24 H 0.3914 1.0182 -0.0614
C9 C 0.40046(13) 1.1669(3) -0.00941(12)
H25 H 0.4092 1.2553 -0.0122
H26 H 0.3632 1.1599 0.0033
C10 C 0.44482(13) 1.1070(3) 0.03107(13)
H27 H 0.4822 1.1157 0.0187
H28 H 0.4366 1.0181 0.0333
C11 C 0.44674(12) 1.1644(3) 0.08693(12)
H29 H 0.4544 1.2535 0.0847
H30 H 0.4096 1.1544 0.0996
C12 C 0.49180(14) 1.1054(3) 0.12663(14)
H31 H 0.4839 1.0165 0.1294
H32 H 0.5289 1.1144 0.1138
Ag2_2 Ag 0.343960(12) 1.89431(3) -0.155650(10)
N3_2 N 0.34682(12) 0.6952(3) -0.15376(10)
H5_2 H 0.3152 0.6676 -0.1739
H6_2 H 0.3769 0.6717 -0.1705
O1 O 0.87435(11) 0.0628(2) 0.26534(9)
O2 O 0.90293(10) -0.1270(2) 0.24562(9)
O3 O 0.61672(13) 0.1085(3) -0.14411(12)
O4 O 0.67992(11) -0.0172(3) -0.17566(9)
C13 C 0.87488(12) -0.0283(3) 0.23423(11)
C14 C 0.84214(11) -0.0185(3) 0.17931(11)
C15 C 0.81668(14) 0.0933(3) 0.16133(12)
H33 H 0.8190 0.1624 0.1840
C16 C 0.78790(13) 0.1038(3) 0.11026(12)
H34 H 0.7717 0.1802 0.0990
C17 C 0.78292(11) 0.0015(3) 0.07541(10)
C18 C 0.80823(13) -0.1114(3) 0.09437(12)
H35 H 0.8052 -0.1817 0.0723
C19 C 0.83740(13) -0.1203(3) 0.14484(12)
H36 H 0.8543 -0.1961 0.1561
C20 C 0.75141(11) 0.0111(3) 0.02105(10)
C21 C 0.76386(12) -0.0684(3) -0.02033(12)
H37 H 0.7922 -0.1291 -0.0136
C22 C 0.73459(12) -0.0580(3) -0.07129(11)
H38 H 0.7440 -0.1109 -0.0983
C23 C 0.69145(12) 0.0303(3) -0.08258(11)
C24 C 0.67863(14) 0.1084(3) -0.04139(13)
H39 H 0.6496 0.1674 -0.0480
C25 C 0.70793(14) 0.0999(3) 0.00862(13)
H40 H 0.6988 0.1544 0.0352
C26 C 0.65986(14) 0.0417(3) -0.13843(13)
O5 O 0.39594(11) 0.8797(2) -0.24932(10)
H41 H 0.3801 0.8842 -0.2207
H42 H 0.4002 0.8032 -0.2575
O6 O 0.25095(14) 0.6331(3) 0.76753(14)
H43 H 0.2499 0.5554 0.7748
H44 H 0.2202 0.6679 0.7747
O7 O 0.27482(13) 0.6675(3) 0.29839(13)
H45 H 0.2482 0.6952 0.3153
H46 H 0.2965 0.6197 0.3188
O8 O 0.9206(4) 0.3062(6) 0.2492(3)
H47 H 0.9217 0.2266 0.2477
H48 H 0.9081 0.3351 0.2185
loop_
_geom_bond_atom_site_label_1
_geom_bond_atom_site_label_2
_geom_bond_site_symmetry_1
_geom_bond_site_symmetry_2
Ag1 N1 1_555 1_555
Ag2 N2 1_555 1_555
N1 H1 1_555 1_555
H2 N1 1_555 1_555
N2 H3 1_555 1_555
H4 N2 1_555 1_555
N3 H5 1_555 1_555
H6 N3 1_555 1_555
N4 Ag1 1_555 1_555
H7 N4 1_555 1_555
H8 N4 1_555 1_555
C1 N4 1_555 1_555
H9 C1 1_555 1_555
H10 C1 1_555 1_555
C2 C1 1_555 1_555
H11 C2 1_555 1_555
H12 C2 1_555 1_555
C3 C2 1_555 1_555
H13 C3 1_555 1_555
H14 C3 1_555 1_555
C4 C3 1_555 1_555
H15 C4 1_555 1_555
H16 C4 1_555 1_555
C5 C4 1_555 1_555
H17 C5 1_555 1_555
H18 C5 1_555 1_555
C6 N3 1_555 1_555
H19 C6 1_555 1_555
H20 C6 1_555 1_555
C7 N2 1_555 1_555
H21 C7 1_555 1_555
H22 C7 1_555 1_555
C8 C7 1_555 1_555
H23 C8 1_555 1_555
H24 C8 1_555 1_555
C9 C8 1_555 1_555
H25 C9 1_555 1_555
H26 C9 1_555 1_555
C10 C9 1_555 1_555
H27 C10 1_555 1_555
H28 C10 1_555 1_555
C11 C10 1_555 1_555
H29 C11 1_555 1_555
H30 C11 1_555 1_555
C12 N1 1_555 1_555
H31 C12 1_555 1_555
H32 C12 1_555 1_555
O1 C13 1_555 1_555
O2 C13 1_555 1_555
O3 C26 1_555 1_555
O4 C26 1_555 1_555
C13 C14 1_555 1_555
C14 C15 1_555 1_555
C15 H33 1_555 1_555
C16 C15 1_555 1_555
H34 C16 1_555 1_555
C17 C16 1_555 1_555
C18 C17 1_555 1_555
H35 C18 1_555 1_555
C19 C14 1_555 1_555
H36 C19 1_555 1_555
C20 C17 1_555 1_555
C21 C20 1_555 1_555
H37 C21 1_555 1_555
C22 C21 1_555 1_555
H38 C22 1_555 1_555
C23 C22 1_555 1_555
C24 C23 1_555 1_555
H39 C24 1_555 1_555
C25 C20 1_555 1_555
H40 C25 1_555 1_555
C26 C23 1_555 1_555
O5 H41 1_555 1_555
H42 O5 1_555 1_555
O6 H43 1_555 1_555
H44 O6 1_555 1_555
O7 H45 1_555 1_555
H46 O7 1_555 1_555
O8 H47 1_555 1_555
H48 O8 1_555 1_555
Ag2_2 N3 1_555 1_555
N3_2 Ag2 1_555 1_555
H5_2 N3_2 1_555 1_555
H6_2 N3_2 1_555 1_555
C5 C6 1_555 1_555
C11 C12 1_555 1_555
C18 C19 1_555 1_555
C24 C25 1_555 1_555

#END
