
#######################################################################
#
#                 Cambridge Crystallographic Data Centre
#                                CCDC 
#
#######################################################################
#
# If this CIF has been generated from an entry in the Cambridge 
# Structural Database, then it will include bibliographic, chemical, 
# crystal, experimental, refinement or atomic coordinate data resulting 
# from the CCDC's data processing and validation procedures.
#
#######################################################################

data_BURQOW
_symmetry_cell_setting           triclinic
_symmetry_space_group_name_H-M   'P -1'
_symmetry_Int_Tables_number      2
_space_group_name_Hall           '-P 1'
loop_
_symmetry_equiv_pos_site_id
_symmetry_equiv_pos_as_xyz
1 x,y,z
2 -x,-y,-z
_cell_length_a                   15.2502(9)
_cell_length_b                   16.6406(10)
_cell_length_c                   25.6709(14)
_cell_angle_alpha                89.014(2)
_cell_angle_beta                 78.289(2)
_cell_angle_gamma                64.668(3)
_cell_volume                     5747.71
loop_
_atom_site_label
_atom_site_type_symbol
_atom_site_fract_x
_atom_site_fract_y
_atom_site_fract_z
O43 O 0.7563(5) 0.3073(4) 0.9673(3)
H121 H 0.711(6) 0.327(5) 0.992(3)
H122 H 0.739(8) 0.344(7) 0.944(4)
O44 O 0.4768(4) 0.6093(4) 0.8298(3)
H123 H 0.521(5) 0.632(5) 0.827(3)
H124 H 0.519(8) 0.552(3) 0.820(5)
O45 O 1.0522(5) 0.8911(4) 0.6602(3)
H125 H 1.018(7) 0.859(7) 0.672(4)
H126 H 1.023(7) 0.946(7) 0.670(4)
O46 O 0.7403(5) 1.1831(5) 0.5361(3)
H127 H 0.762(8) 1.181(8) 0.5004(11)
H128 H 0.788(7) 1.130(4) 0.541(5)
O47 O -0.0954(6) 1.1454(6) 0.9468(3)
H129 H -0.1460 1.1946 0.9531
C109 C -0.1165(10) 1.0809(10) 0.9741(6)
H130 H -0.1337 1.0971 1.0126
H131 H -0.0581 1.0231 0.9658
H132 H -0.1726 1.0769 0.9632
La1 La 0.79839(3) 0.35922(3) 0.77819(2)
O1 O 0.6076(4) 0.4308(3) 0.8091(2)
O2 O 0.8186(4) 0.2405(3) 0.8443(2)
O3 O 0.6634(4) 0.2932(3) 0.7769(2)
O4 O 0.9607(4) 0.3096(3) 0.8098(2)
O5 O 0.7128(4) 0.4045(3) 0.6966(2)
O6 O 0.7043(4) 0.5292(4) 0.72945(19)
O7 O 0.9316(4) 0.3377(4) 0.6933(2)
O8 O 0.9103(4) 0.4571(3) 0.73935(19)
O9 O 0.7310(4) 0.4160(3) 0.88760(19)
O10 O 0.7469(4) 0.5098(3) 0.83020(18)
O11 O 0.8586(4) 0.2052(3) 0.72917(19)
C1 C 0.5908(5) 0.3644(5) 0.7987(3)
H1 H 0.8762 0.2166 0.8591
H2 H 0.7686 0.2201 0.8544
La2 La 0.72661(3) 0.14115(3) 0.72611(2)
H3 H 0.9768 0.2653 0.8347
H4 H 1.0049 0.3353 0.7967
C2 C 0.6760(6) 0.4891(5) 0.7011(3)
La3 La 0.78538(3) 0.61067(3) 0.76882(2)
C3 C 0.9523(6) 0.4017(5) 0.6985(3)
C4 C 0.7149(5) 0.4937(5) 0.8777(3)
C5 C 0.4874(5) 0.3733(5) 0.8120(3)
C6 C 0.5910(6) 0.5403(5) 0.6746(3)
O12 O 0.8221(4) 0.6198(3) 0.6699(2)
O13 O 0.9029(4) 0.5768(3) 0.8337(2)
O14 O 0.7656(4) 0.6992(3) 0.85416(19)
O15 O 0.5951(4) 0.7019(3) 0.8032(2)
O16 O 0.6687(4) 0.7765(3) 0.75729(19)
O17 O 0.8764(3) 0.7103(3) 0.74287(19)
C7 C 1.0269(7) 0.4155(6) 0.6560(3)
C8 C 0.6550(6) 0.5720(5) 0.9180(3)
H5 H 0.4498 0.4156 0.8440
H6 H 0.4889 0.3147 0.8208
C9 C 0.4345(6) 0.4061(6) 0.7666(3)
H7 H 0.5313 0.5348 0.6945
H8 H 0.6073 0.5124 0.6381
C10 C 0.5657(7) 0.6395(5) 0.6711(4)
H9 H 0.8231 0.5755 0.6467
H10 H 0.8351 0.6677 0.6556
C11 C 0.8509(6) 0.6500(5) 0.8622(3)
C12 C 0.5903(6) 0.7730(5) 0.7842(3)
La4 La 0.75113(3) 0.87993(3) 0.73423(2)
C13 C 0.9485(5) 0.7186(5) 0.7124(3)
H11 H 1.0771 0.4209 0.6731
H12 H 0.9924 0.4731 0.6411
C14 C 1.0809(8) 0.3443(6) 0.6103(3)
H13 H 0.6301 0.6268 0.8989
H14 H 0.6989 0.5776 0.9398
C15 C 0.5668(6) 0.5654(5) 0.9550(3)
H15 H 0.4295 0.4662 0.7589
H16 H 0.4732 0.3654 0.7341
C16 C 0.3320(6) 0.4098(6) 0.7809(3)
H17 H 0.5538 0.6670 0.7073
H18 H 0.6234 0.6454 0.6487
C17 C 0.4754(6) 0.6894(5) 0.6479(4)
C18 C 0.8924(6) 0.6799(5) 0.9025(3)
C19 C 0.4929(6) 0.8544(6) 0.7893(4)
O18 O 0.7191(4) 0.8670(3) 0.83327(19)
O19 O 0.9387(4) 0.7947(3) 0.6983(2)
O20 O 0.7754(4) 0.7888(3) 0.64701(19)
O21 O 0.6339(4) 0.9080(3) 0.6709(2)
O22 O 0.6105(4) 1.0236(4) 0.7665(2)
O23 O 0.7775(4) 0.9891(3) 0.67426(18)
O24 O 0.8144(4) 0.9760(3) 0.7742(2)
C20 C 1.0441(6) 0.6377(6) 0.6914(4)
H19 H 1.1413 0.2980 0.6199
H20 H 1.0376 0.3156 0.6058
C21 C 1.1107(6) 0.3771(5) 0.5582(3)
H21 H 0.5283 0.5506 0.9332
H22 H 0.5919 0.5161 0.9781
C22 C 0.4989(6) 0.6497(5) 0.9894(3)
C23 C 0.2490(6) 0.4898(6) 0.7993(3)
C24 C 0.3170(6) 0.3334(6) 0.7799(4)
C25 C 0.3829(7) 0.7377(6) 0.6813(4)
C26 C 0.4812(6) 0.6889(6) 0.5936(4)
H23 H 0.8368 0.7291 0.9265
H24 H 0.9379 0.7041 0.8834
C27 C 0.9484(6) 0.6074(6) 0.9366(3)
H25 H 0.5037 0.9075 0.7960
H26 H 0.4723 0.8595 0.7548
C28 C 0.4136(8) 0.8560(7) 0.8301(6)
H27 H 0.6668 0.9148 0.8564
H28 H 0.7593 0.8142 0.8476
C29 C 0.6895(6) 0.8383(5) 0.6392(3)
C30 C 0.5746(6) 1.0822(5) 0.8062(3)
C31 C 0.8042(5) 1.0090(5) 0.6276(3)
C32 C 0.8448(5) 1.0137(5) 0.8029(3)
H29 H 1.0569 0.5959 0.7199
H30 H 1.0352 0.6077 0.6613
C33 C 1.1306(8) 0.6535(7) 0.6735(7)
C34 C 1.0807(6) 0.3631(6) 0.5135(3)
C35 C 1.1708(6) 0.4229(5) 0.5526(3)
C36 C 0.4508(6) 0.7288(5) 0.9669(3)
C37 C 0.4838(6) 0.6508(6) 1.0449(3)
H31 H 0.2569 0.5431 0.8020
C38 C 0.1546(6) 0.4928(6) 0.8137(3)
C39 C 0.2236(6) 0.3358(6) 0.7947(4)
H32 H 0.3727 0.2775 0.7686
H33 H 0.3772 0.7392 0.7189
C40 C 0.2976(7) 0.7843(6) 0.6605(4)
C41 C 0.3972(6) 0.7342(6) 0.5727(3)
H34 H 0.5438 0.6570 0.5700
H35 H 1.0011 0.5561 0.9128
H36 H 0.9811 0.6310 0.9577
C42 C 0.8820(6) 0.5751(6) 0.9743(3)
H37 H 0.4342 0.8528 0.8646
H38 H 0.4060 0.8009 0.8242
C43 C 0.3122(6) 0.9341(6) 0.8363(4)
C44 C 0.6516(7) 0.8162(5) 0.5945(3)
O25 O 0.5965(4) 1.1459(4) 0.8066(2)
C45 C 0.5057(6) 1.0698(6) 0.8530(3)
O26 O 0.5699(4) 1.1738(4) 0.6925(2)
O27 O 0.6870(5) 1.2677(4) 0.6625(2)
O28 O 0.7918(4) 1.0883(3) 0.62079(19)
O29 O 0.8044(4) 1.0975(3) 0.8106(2)
O30 O 0.9201(4) 1.0660(3) 0.6991(2)
C46 C 0.8516(6) 0.9385(5) 0.5818(3)
C47 C 0.9315(6) 0.9614(5) 0.8280(3)
C48 C 1.2248(6) 0.5769(7) 0.6433(4)
H39 H 1.1461 0.6733 0.7052
H40 H 1.1129 0.7037 0.6504
H41 H 1.0430 0.3297 0.5159
C49 C 1.1034(7) 0.3958(6) 0.4652(3)
C50 C 1.1959(7) 0.4548(6) 0.5047(3)
H42 H 1.1944 0.4320 0.5824
H43 H 0.4607 0.7296 0.9292
C51 C 0.3880(6) 0.8073(6) 0.9990(3)
C52 C 0.4221(7) 0.7285(5) 1.0769(3)
H44 H 0.5165 0.5973 1.0610
H45 H 0.0983 0.5483 0.8248
C53 C 0.1423(6) 0.4169(5) 0.8122(3)
H46 H 0.2151 0.2827 0.7930
H47 H 0.2352 0.8183 0.6838
C54 C 0.3055(6) 0.7803(5) 0.6065(3)
H48 H 0.4029 0.7334 0.5352
C55 C 0.8908(6) 0.4892(5) 0.9681(3)
C56 C 0.8098(7) 0.6323(6) 1.0163(4)
C57 C 0.2945(7) 1.0085(6) 0.8074(3)
C58 C 0.2363(7) 0.9348(6) 0.8767(4)
H49 H 0.5904 0.8091 0.6097
H50 H 0.7018 0.7584 0.5757
C59 C 0.6286(7) 0.8867(5) 0.5543(3)
H51 H 0.5456 1.0340 0.8781
H52 H 0.4744 1.0350 0.8401
C60 C 0.4241(6) 1.1552(5) 0.8832(3)
H53 H 0.5115 1.1784 0.7166
H54 H 0.5697 1.1815 0.6557
H55 H 0.675(7) 1.331(7) 0.679(4)
H56 H 0.718(8) 1.248(7) 0.634(4)
C61 C 0.9328(5) 1.1302(5) 0.7156(3)
H57 H 0.8009 0.9440 0.5615
H58 H 0.8746 0.8791 0.5962
C62 C 0.9384(6) 0.9441(6) 0.5442(3)
H59 H 0.9116 0.9793 0.8667
H60 H 0.9866 0.9772 0.8127
C63 C 0.9697(7) 0.8604(5) 0.8203(4)
C64 C 1.2665(7) 0.4947(6) 0.6629(4)
C65 C 1.2750(7) 0.5943(6) 0.5948(4)
H61 H 1.0801 0.3867 0.4352
C66 C 1.1606(7) 0.4418(6) 0.4619(3)
H62 H 1.2369 0.4853 0.5013
H63 H 0.3551 0.8613 0.9835
C67 C 0.3746(7) 0.8051(6) 1.0538(3)
H64 H 0.4128 0.7285 1.1147
O31 O 0.0513(4) 0.4158(3) 0.8271(3)
O32 O 0.2241(4) 0.8241(4) 0.5841(2)
H65 H 0.9397 0.4493 0.9397
C68 C 0.8297(6) 0.4606(6) 1.0028(3)
C69 C 0.7471(7) 0.6047(6) 1.0510(4)
H66 H 0.8033 0.6911 1.0214
H67 H 0.3469 1.0099 0.7806
C70 C 0.2012(6) 1.0812(6) 0.8169(3)
C71 C 0.1421(7) 1.0078(6) 0.8857(4)
H68 H 0.2480 0.8859 0.8984
H69 H 0.5862 0.9461 0.5736
H70 H 0.6914 0.8873 0.5349
C72 C 0.5775(6) 0.8703(5) 0.5154(3)
H71 H 0.4525 1.1964 0.8903
H72 H 0.3739 1.1851 0.8615
C73 C 0.3754(6) 1.1332(5) 0.9355(3)
C74 C 1.0340(5) 1.1173(6) 0.7199(3)
H73 H 0.9798 0.9559 0.5653
H74 H 0.9131 0.9949 0.5221
C75 C 1.0026(6) 0.8596(5) 0.5079(3)
H75 H 0.9160 0.8440 0.8375
H76 H 0.9860 0.8427 0.7816
C76 C 1.0597(6) 0.8092(5) 0.8428(3)
H77 H 1.2320 0.4812 0.6943
C77 C 1.3602(7) 0.4308(6) 0.6362(4)
C78 C 1.3640(8) 0.5306(7) 0.5675(4)
H78 H 1.2464 0.6510 0.5812
O33 O 1.1829(7) 0.4734(5) 0.4126(2)
O34 O 0.3107(7) 0.8833(4) 1.0845(3)
H79 H 0.0063 0.4681 0.8293
H80 H 0.170(7) 0.849(6) 0.610(4)
H81 H 0.8374 0.4013 0.9983
C79 C 0.7570(6) 0.5189(6) 1.0443(3)
H82 H 0.6976 0.6448 1.0792
H83 H 0.1900 1.1320 0.7969
C80 C 0.1276(7) 1.0785(7) 0.8546(4)
H84 H 0.0892 1.0083 0.9128
C81 C 0.6325(7) 0.8037(6) 0.4718(4)
C82 C 0.4758(6) 0.9108(5) 0.5214(3)
C83 C 0.4026(7) 1.1435(7) 0.9816(3)
C84 C 0.3077(7) 1.0991(6) 0.9390(3)
H85 H 1.0627 1.0655 0.7408
H86 H 1.0284 1.1707 0.7394
C85 C 1.1033(6) 1.1022(7) 0.6660(4)
C86 C 1.0126(6) 0.8580(6) 0.4531(3)
C87 C 1.0560(7) 0.7819(5) 0.5291(3)
C88 C 1.0531(6) 0.8008(5) 0.8969(3)
C89 C 1.1536(6) 0.7703(6) 0.8090(4)
H87 H 1.3914 0.3749 0.6502
C90 C 1.4063(7) 0.4508(7) 0.5891(5)
H88 H 1.3959 0.5415 0.5341
H89 H 1.188(9) 0.517(8) 0.416(4)
H90 H 0.3307 0.8850 1.1124
O35 O 0.6917(5) 0.4960(4) 1.0787(3)
O36 O 0.0348(5) 1.1517(5) 0.8630(3)
H91 H 0.7029 0.7748 0.4657
C91 C 0.5854(6) 0.7812(7) 0.4388(3)
C92 C 0.4277(6) 0.8886(5) 0.4882(3)
H92 H 0.4372 0.9559 0.5496
H93 H 0.4463 1.1708 0.9807
C93 C 0.3687(8) 1.1158(7) 1.0296(4)
C94 C 0.2699(8) 1.0727(7) 0.9862(4)
H94 H 0.2856 1.0933 0.9078
H95 H 1.1097 1.0484 0.6466
H96 H 1.0743 1.1537 0.6449
C95 C 1.2037(6) 1.0906(6) 0.6705(3)
H97 H 0.9755 0.9106 0.4375
C96 C 1.0748(7) 0.7820(7) 0.4210(3)
C97 C 1.1191(7) 0.7036(6) 0.4968(4)
H98 H 1.0498 0.7813 0.5666
H99 H 0.9898 0.8276 0.9205
C98 C 1.1373(6) 0.7540(5) 0.9179(3)
C99 C 1.2378(6) 0.7240(5) 0.8289(3)
H100 H 1.1599 0.7756 0.7717
O37 O 1.4970(6) 0.3885(5) 0.5604(4)
H101 H 0.7043 0.4427 1.0711
H102 H 0.0036 1.1543 0.8944
H103 H 0.6231 0.7376 0.4097
C100 C 0.4844(6) 0.8212(6) 0.4476(3)
H104 H 0.3574 0.9185 0.4930
H105 H 0.3912 1.1207 1.0608
C101 C 0.3007(7) 1.0805(6) 1.0307(3)
H106 H 0.2226 1.0493 0.9874
C102 C 1.2870(7) 1.0088(6) 0.6585(3)
C103 C 1.2184(6) 1.1624(6) 0.6859(3)
H107 H 1.0808 0.7828 0.3835
C104 C 1.1276(8) 0.7062(6) 0.4418(4)
H108 H 1.1552 0.6500 0.5119
H109 H 1.1309 0.7485 0.9552
C105 C 1.2292(6) 0.7158(5) 0.8840(3)
H110 H 1.3012 0.6978 0.8054
H111 H 1.5321 0.3592 0.5816
O38 O 0.4398(4) 0.7901(4) 0.4156(2)
O39 O 0.2626(6) 1.0560(4) 1.0798(2)
H112 H 1.2791 0.9587 0.6470
C106 C 1.3808(6) 0.9973(6) 0.6624(3)
C107 C 1.3122(6) 1.1533(5) 0.6888(3)
H113 H 1.1631 1.2191 0.6947
O40 O 1.1936(7) 0.6267(5) 0.4118(3)
O41 O 1.3108(4) 0.6695(4) 0.9055(2)
H114 H 0.3782 0.8122 0.4281
H115 H 0.2945 1.0009 1.0817
H116 H 1.4357 0.9401 0.6551
C108 C 1.3924(6) 1.0705(6) 0.6771(3)
H117 H 1.3211 1.2037 0.6986
H118 H 1.181(9) 0.640(8) 0.376(5)
H119 H 1.3627 0.6536 0.8815
O42 O 1.4832(4) 1.0644(4) 0.6808(3)
H120 H 1.5258 1.0111 0.6743
La2_2 La 0.72661(3) 1.14115(3) 0.72611(2)
O11_2 O 0.8586(4) 1.2052(3) 0.72917(19)
O3_2 O 0.6634(4) 1.2932(3) 0.7769(2)
La1_2 La 0.79839(3) 1.35922(3) 0.77819(2)
loop_
_geom_bond_atom_site_label_1
_geom_bond_atom_site_label_2
_geom_bond_site_symmetry_1
_geom_bond_site_symmetry_2
La1 O1 1_555 1_555
O1 C1 1_555 1_555
O2 La1 1_555 1_555
O3 La1 1_555 1_555
O4 La1 1_555 1_555
O5 La1 1_555 1_555
O6 La1 1_555 1_555
O7 La1 1_555 1_555
O8 La1 1_555 1_555
O9 La1 1_555 1_555
O10 La1 1_555 1_555
O11 La1 1_555 1_555
C1 O3 1_555 1_555
H1 O2 1_555 1_555
H2 O2 1_555 1_555
La2 O3 1_555 1_555
H3 O4 1_555 1_555
H4 O4 1_555 1_555
C2 O5 1_555 1_555
La3 O6 1_555 1_555
C3 O7 1_555 1_555
C4 O9 1_555 1_555
C5 C1 1_555 1_555
C6 C2 1_555 1_555
O12 La3 1_555 1_555
O13 La3 1_555 1_555
O14 La3 1_555 1_555
O15 La3 1_555 1_555
O16 La3 1_555 1_555
O17 La3 1_555 1_555
C7 C3 1_555 1_555
C8 C4 1_555 1_555
H5 C5 1_555 1_555
H6 C5 1_555 1_555
C9 C5 1_555 1_555
H7 C6 1_555 1_555
H8 C6 1_555 1_555
C10 C6 1_555 1_555
H9 O12 1_555 1_555
H10 O12 1_555 1_555
C11 O13 1_555 1_555
C12 O15 1_555 1_555
La4 O16 1_555 1_555
C13 O17 1_555 1_555
H11 C7 1_555 1_555
H12 C7 1_555 1_555
C14 C7 1_555 1_555
H13 C8 1_555 1_555
H14 C8 1_555 1_555
C15 C8 1_555 1_555
H15 C9 1_555 1_555
H16 C9 1_555 1_555
C16 C9 1_555 1_555
H17 C10 1_555 1_555
H18 C10 1_555 1_555
C17 C10 1_555 1_555
C18 C11 1_555 1_555
C19 C12 1_555 1_555
O18 La4 1_555 1_555
O19 La4 1_555 1_555
O20 La4 1_555 1_555
O21 La4 1_555 1_555
O22 La4 1_555 1_555
O23 La4 1_555 1_555
O24 La4 1_555 1_555
C20 C13 1_555 1_555
H19 C14 1_555 1_555
H20 C14 1_555 1_555
C21 C14 1_555 1_555
H21 C15 1_555 1_555
H22 C15 1_555 1_555
C22 C15 1_555 1_555
C23 C16 1_555 1_555
C24 C16 1_555 1_555
C25 C17 1_555 1_555
C26 C17 1_555 1_555
H23 C18 1_555 1_555
H24 C18 1_555 1_555
C27 C18 1_555 1_555
H25 C19 1_555 1_555
H26 C19 1_555 1_555
C28 C19 1_555 1_555
H27 O18 1_555 1_555
H28 O18 1_555 1_555
C29 O20 1_555 1_555
C30 O22 1_555 1_555
C31 O23 1_555 1_555
C32 O24 1_555 1_555
H29 C20 1_555 1_555
H30 C20 1_555 1_555
C33 C20 1_555 1_555
C34 C21 1_555 1_555
C35 C21 1_555 1_555
C36 C22 1_555 1_555
C37 C22 1_555 1_555
H31 C23 1_555 1_555
C38 C23 1_555 1_555
C39 C24 1_555 1_555
H32 C24 1_555 1_555
H33 C25 1_555 1_555
C40 C25 1_555 1_555
C41 C26 1_555 1_555
H34 C26 1_555 1_555
H35 C27 1_555 1_555
H36 C27 1_555 1_555
C42 C27 1_555 1_555
H37 C28 1_555 1_555
H38 C28 1_555 1_555
C43 C28 1_555 1_555
C44 C29 1_555 1_555
O25 C30 1_555 1_555
C45 C30 1_555 1_555
O26 H53 1_555 1_555
O27 H55 1_555 1_555
O28 C31 1_555 1_555
O29 C32 1_555 1_555
O30 C61 1_555 1_555
C46 C31 1_555 1_555
C47 C32 1_555 1_555
C48 C33 1_555 1_555
H39 C33 1_555 1_555
H40 C33 1_555 1_555
H41 C34 1_555 1_555
C49 C34 1_555 1_555
C50 C35 1_555 1_555
H42 C35 1_555 1_555
H43 C36 1_555 1_555
C51 C36 1_555 1_555
C52 C37 1_555 1_555
H44 C37 1_555 1_555
H45 C38 1_555 1_555
C53 C38 1_555 1_555
H46 C39 1_555 1_555
H47 C40 1_555 1_555
C54 C40 1_555 1_555
H48 C41 1_555 1_555
C55 C42 1_555 1_555
C56 C42 1_555 1_555
C57 C43 1_555 1_555
C58 C43 1_555 1_555
H49 C44 1_555 1_555
H50 C44 1_555 1_555
C59 C44 1_555 1_555
H51 C45 1_555 1_555
H52 C45 1_555 1_555
C60 C45 1_555 1_555
H54 O26 1_555 1_555
H56 O27 1_555 1_555
C61 C74 1_555 1_555
H57 C46 1_555 1_555
H58 C46 1_555 1_555
C62 C46 1_555 1_555
H59 C47 1_555 1_555
H60 C47 1_555 1_555
C63 C47 1_555 1_555
C64 C48 1_555 1_555
C65 C48 1_555 1_555
H61 C49 1_555 1_555
C66 C49 1_555 1_555
H62 C50 1_555 1_555
H63 C51 1_555 1_555
C67 C51 1_555 1_555
H64 C52 1_555 1_555
O31 C53 1_555 1_555
O32 C54 1_555 1_555
H65 C55 1_555 1_555
C68 C55 1_555 1_555
C69 C56 1_555 1_555
H66 C56 1_555 1_555
H67 C57 1_555 1_555
C70 C57 1_555 1_555
C71 C58 1_555 1_555
H68 C58 1_555 1_555
H69 C59 1_555 1_555
H70 C59 1_555 1_555
C72 C59 1_555 1_555
H71 C60 1_555 1_555
H72 C60 1_555 1_555
C73 C60 1_555 1_555
C74 H85 1_555 1_555
H73 C62 1_555 1_555
H74 C62 1_555 1_555
C75 C62 1_555 1_555
H75 C63 1_555 1_555
H76 C63 1_555 1_555
C76 C63 1_555 1_555
H77 C64 1_555 1_555
C77 C64 1_555 1_555
C78 C65 1_555 1_555
H78 C65 1_555 1_555
O33 C66 1_555 1_555
O34 C67 1_555 1_555
H79 O31 1_555 1_555
H80 O32 1_555 1_555
H81 C68 1_555 1_555
C79 C68 1_555 1_555
H82 C69 1_555 1_555
H83 C70 1_555 1_555
C80 C70 1_555 1_555
H84 C71 1_555 1_555
C81 C72 1_555 1_555
C82 C72 1_555 1_555
C83 C73 1_555 1_555
C84 C73 1_555 1_555
H86 C74 1_555 1_555
C85 C74 1_555 1_555
C86 C75 1_555 1_555
C87 C75 1_555 1_555
C88 C76 1_555 1_555
C89 C76 1_555 1_555
H87 C77 1_555 1_555
C90 C77 1_555 1_555
H88 C78 1_555 1_555
H89 O33 1_555 1_555
H90 O34 1_555 1_555
O35 C79 1_555 1_555
O36 C80 1_555 1_555
H91 C81 1_555 1_555
C91 C81 1_555 1_555
C92 C82 1_555 1_555
H92 C82 1_555 1_555
H93 C83 1_555 1_555
C93 C83 1_555 1_555
C94 C84 1_555 1_555
H94 C84 1_555 1_555
H95 C85 1_555 1_555
H96 C85 1_555 1_555
C95 C85 1_555 1_555
H97 C86 1_555 1_555
C96 C86 1_555 1_555
C97 C87 1_555 1_555
H98 C87 1_555 1_555
H99 C88 1_555 1_555
C98 C88 1_555 1_555
C99 C89 1_555 1_555
H100 C89 1_555 1_555
O37 C90 1_555 1_555
H101 O35 1_555 1_555
H102 O36 1_555 1_555
H103 C91 1_555 1_555
C100 C91 1_555 1_555
H104 C92 1_555 1_555
H105 C93 1_555 1_555
C101 C93 1_555 1_555
H106 C94 1_555 1_555
C102 C95 1_555 1_555
C103 C95 1_555 1_555
H107 C96 1_555 1_555
C104 C96 1_555 1_555
H108 C97 1_555 1_555
H109 C98 1_555 1_555
C105 C98 1_555 1_555
H110 C99 1_555 1_555
H111 O37 1_555 1_555
O38 C100 1_555 1_555
O39 C101 1_555 1_555
H112 C102 1_555 1_555
C106 C102 1_555 1_555
C107 C103 1_555 1_555
H113 C103 1_555 1_555
O40 C104 1_555 1_555
O41 C105 1_555 1_555
H114 O38 1_555 1_555
H115 O39 1_555 1_555
H116 C106 1_555 1_555
C108 C106 1_555 1_555
H117 C107 1_555 1_555
H118 O40 1_555 1_555
H119 O41 1_555 1_555
O42 C108 1_555 1_555
H120 O42 1_555 1_555
O43 H121 1_555 1_555
H122 O43 1_555 1_555
O44 H123 1_555 1_555
H124 O44 1_555 1_555
O45 H125 1_555 1_555
H126 O45 1_555 1_555
O46 H127 1_555 1_555
H128 O46 1_555 1_555
O47 H129 1_555 1_555
C109 O47 1_555 1_555
H130 C109 1_555 1_555
H131 C109 1_555 1_555
H132 C109 1_555 1_555
La2_2 O23 1_555 1_555
O11_2 C61 1_555 1_555
O3_2 La2_2 1_555 1_555
La1_2 O11_2 1_555 1_555
O6 C2 1_555 1_555
O8 La3 1_555 1_555
O8 C3 1_555 1_555
O10 La3 1_555 1_555
O10 C4 1_555 1_555
O11 La2 1_555 1_555
O14 C11 1_555 1_555
O16 C12 1_555 1_555
O17 La4 1_555 1_555
C13 O19 1_555 1_555
O21 C29 1_555 1_555
O24 La2_2 1_555 1_555
C39 C53 1_555 1_555
C41 C54 1_555 1_555
O25 La2_2 1_555 1_555
O26 La2_2 1_555 1_555
O27 La2_2 1_555 1_555
O28 La2_2 1_555 1_555
O29 La2_2 1_555 1_555
O30 La2_2 1_555 1_555
C50 C66 1_555 1_555
C52 C67 1_555 1_555
C69 C79 1_555 1_555
C71 C80 1_555 1_555
C78 C90 1_555 1_555
C92 C100 1_555 1_555
C94 C101 1_555 1_555
C97 C104 1_555 1_555
C99 C105 1_555 1_555
C107 C108 1_555 1_555
La2_2 O11_2 1_555 1_555
O3_2 La1_2 1_555 1_555

#END
