
#######################################################################
#
#                 Cambridge Crystallographic Data Centre
#                                CCDC 
#
#######################################################################
#
# If this CIF has been generated from an entry in the Cambridge 
# Structural Database, then it will include bibliographic, chemical, 
# crystal, experimental, refinement or atomic coordinate data resulting 
# from the CCDC's data processing and validation procedures.
#
#######################################################################

data_BURSIS
_symmetry_cell_setting           monoclinic
_symmetry_space_group_name_H-M   'P 21/c'
_symmetry_Int_Tables_number      14
_space_group_name_Hall           '-P 2ybc'
loop_
_symmetry_equiv_pos_site_id
_symmetry_equiv_pos_as_xyz
1 x,y,z
2 -x,1/2+y,1/2-z
3 -x,-y,-z
4 x,1/2-y,1/2+z
_cell_length_a                   6.9599(2)
_cell_length_b                   13.9136(3)
_cell_length_c                   17.8236(4)
_cell_angle_alpha                90
_cell_angle_beta                 97.993(2)
_cell_angle_gamma                90
_cell_volume                     1709.22
loop_
_atom_site_label
_atom_site_type_symbol
_atom_site_fract_x
_atom_site_fract_y
_atom_site_fract_z
Cu1 Cu 0.79636(5) 0.26752(2) 0.341215(16)
S1 S 0.68270(10) 0.01204(5) 0.19753(3)
O1 O 0.8707(3) 0.25008(13) 0.45026(10)
H1 H 0.9857 0.2648 0.4593
H2 H 0.8076 0.2799 0.4792
O2 O 0.2576(3) 0.29862(19) 0.45750(11)
O3 O 0.1617(3) 0.25068(19) 0.34303(13)
O4 O 0.4533(3) 0.3027(2) 0.37399(14)
N1 N 0.7550(3) 0.28368(14) 0.23157(11)
N2 N 0.7478(3) 0.13288(14) 0.30945(11)
N3 N 0.8141(3) 0.41191(15) 0.33562(11)
N4 N 0.2930(3) 0.28203(17) 0.39138(13)
N5 N 0.7203(3) 0.20356(15) 0.18747(11)
C1 C 0.8064(4) 0.54120(19) 0.24759(16)
H3 H 0.7959 0.5626 0.1978
C2 C 0.8007(3) 0.44404(18) 0.26334(14)
C3 C 0.7096(4) -0.03305(18) 0.29001(14)
C4 C 0.7009(4) -0.12741(19) 0.31338(15)
H4 H 0.6791 -0.1769 0.2782
C5 C 0.7431(3) 0.04262(18) 0.34277(13)
C6 C 0.7720(3) 0.36890(18) 0.20415(13)
C7 C 0.7197(3) 0.12783(17) 0.23429(13)
C8 C 0.7663(4) 0.02257(19) 0.41948(14)
H5 H 0.7868 0.0719 0.4549
C9 C 0.8406(4) 0.5729(2) 0.38003(17)
H6 H 0.8543 0.6155 0.4207
C10 C 0.7586(4) -0.0726(2) 0.44264(15)
H7 H 0.7760 -0.0870 0.4941
C11 C 0.7253(4) -0.14656(19) 0.38996(16)
H8 H 0.7195 -0.2097 0.4066
C12 C 0.8281(4) 0.6062(2) 0.30696(17)
H9 H 0.8342 0.6718 0.2975
C13 C 0.7635(4) 0.3924(2) 0.12250(14)
H10 H 0.7547 0.3340 0.0935
H11 H 0.8786 0.4267 0.1146
H12 H 0.6517 0.4315 0.1066
C14 C 0.8324(4) 0.4752(2) 0.39197(15)
H13 H 0.8400 0.4526 0.4414
Cu1_2 Cu -0.20364(5) 0.26752(2) 0.341215(16)
O3_2 O 1.1617(3) 0.25068(19) 0.34303(13)
O5 O 0.6587(3) 0.34560(16) 0.53405(10)
H14 H 0.5444 0.3453 0.5156
H15 H 0.6815 0.3235 0.5769
loop_
_geom_bond_atom_site_label_1
_geom_bond_atom_site_label_2
_geom_bond_site_symmetry_1
_geom_bond_site_symmetry_2
Cu1 O1 1_555 1_555
S1 C3 1_555 1_555
O1 H1 1_555 1_555
H2 O1 1_555 1_555
O2 N4 1_555 1_555
O3 N4 1_555 1_555
O4 Cu1 1_555 1_555
N1 Cu1 1_555 1_555
N2 Cu1 1_555 1_555
N3 Cu1 1_555 1_555
N4 O4 1_555 1_555
N5 N1 1_555 1_555
C1 H3 1_555 1_555
C2 N3 1_555 1_555
C3 C4 1_555 1_555
C4 H4 1_555 1_555
C5 N2 1_555 1_555
C6 N1 1_555 1_555
C7 S1 1_555 1_555
C8 C5 1_555 1_555
H5 C8 1_555 1_555
C9 H6 1_555 1_555
C10 C8 1_555 1_555
H7 C10 1_555 1_555
C11 C4 1_555 1_555
H8 C11 1_555 1_555
C12 C1 1_555 1_555
H9 C12 1_555 1_555
C13 C6 1_555 1_555
H10 C13 1_555 1_555
H11 C13 1_555 1_555
H12 C13 1_555 1_555
C14 N3 1_555 1_555
H13 C14 1_555 1_555
O5 H14 1_555 1_555
H15 O5 1_555 1_555
Cu1_2 O3 1_555 1_555
O3_2 Cu1 1_555 1_555
N2 C7 1_555 1_555
N5 C7 1_555 1_555
C1 C2 1_555 1_555
C2 C6 1_555 1_555
C3 C5 1_555 1_555
C9 C12 1_555 1_555
C9 C14 1_555 1_555
C10 C11 1_555 1_555

#END
