
#######################################################################
#
#                 Cambridge Crystallographic Data Centre
#                                CCDC 
#
#######################################################################
#
# If this CIF has been generated from an entry in the Cambridge 
# Structural Database, then it will include bibliographic, chemical, 
# crystal, experimental, refinement or atomic coordinate data resulting 
# from the CCDC's data processing and validation procedures.
#
#######################################################################

data_BURTIS
_symmetry_cell_setting           monoclinic
_symmetry_space_group_name_H-M   'P 21/c'
_symmetry_Int_Tables_number      14
_space_group_name_Hall           '-P 2ybc'
loop_
_symmetry_equiv_pos_site_id
_symmetry_equiv_pos_as_xyz
1 x,y,z
2 -x,1/2+y,1/2-z
3 -x,-y,-z
4 x,1/2-y,1/2+z
_cell_length_a                   6.4882(5)
_cell_length_b                   20.6901(15)
_cell_length_c                   17.2655(12)
_cell_angle_alpha                90
_cell_angle_beta                 91.470(1)
_cell_angle_gamma                90
_cell_volume                     2316.98
loop_
_atom_site_label
_atom_site_type_symbol
_atom_site_fract_x
_atom_site_fract_y
_atom_site_fract_z
Cd1 Cd 0.29647(3) 0.261524(11) 0.496527(11)
O1 O 0.3596(4) 0.18198(12) 0.59240(12)
O2 O 0.3992(4) 0.14811(13) 0.47370(13)
N1 N 0.2797(3) 0.30513(12) 0.37621(13)
N2 N 0.3081(4) 0.31957(13) 0.25014(13)
H2 H 0.3550 0.3162 0.2042
N3 N 1.2371(4) 0.12169(13) 0.20650(14)
H3 H 1.1937 0.1177 0.2529
N4 N 1.2582(4) 0.15645(12) 0.08534(13)
N5 N -0.0363(4) 0.22093(16) 0.48189(19)
N6 N -0.1919(4) 0.24794(14) 0.49275(14)
N7 N -0.3441(4) 0.27536(17) 0.50345(18)
C1 C 0.1235(4) 0.34729(14) 0.35038(16)
C2 C -0.0321(5) 0.37813(16) 0.39074(19)
H4 H -0.0452 0.3726 0.4438
C3 C -0.1658(5) 0.41724(17) 0.3485(2)
H5 H -0.2701 0.4388 0.3739
C4 C -0.1484(5) 0.42537(17) 0.2684(2)
H6 H -0.2415 0.4520 0.2418
C5 C 0.0036(5) 0.39469(16) 0.22820(19)
H7 H 0.0146 0.3996 0.1749
C6 C 0.1395(4) 0.35610(14) 0.27083(16)
C7 C 0.3862(4) 0.29012(15) 0.31390(15)
C8 C 0.5702(5) 0.24684(17) 0.31379(18)
H8 H 0.5281 0.2038 0.3291
H9 H 0.6696 0.2623 0.3524
C9 C 0.6752(5) 0.24240(15) 0.23664(17)
H10 H 0.7104 0.2856 0.2197
H11 H 0.5790 0.2243 0.1986
C10 C 0.8697(4) 0.20124(15) 0.23946(15)
H12 H 0.8354 0.1573 0.2537
H13 H 0.9659 0.2183 0.2783
C11 C 0.9691(4) 0.20166(16) 0.16020(16)
H14 H 0.8659 0.1882 0.1219
H15 H 1.0063 0.2459 0.1482
C12 C 1.1556(4) 0.16043(14) 0.15096(15)
C13 C 1.4035(4) 0.08943(14) 0.17559(18)
C14 C 1.5444(5) 0.04529(16) 0.2075(2)
H16 H 1.5392 0.0322 0.2589
C15 C 1.6921(6) 0.02219(19) 0.1582(3)
H17 H 1.7908 -0.0067 0.1772
C16 C 1.6967(6) 0.0411(2) 0.0810(3)
H18 H 1.7951 0.0231 0.0492
C17 C 1.5609(6) 0.08512(18) 0.0506(2)
H19 H 1.5668 0.0978 -0.0009
C18 C 1.4133(4) 0.11041(15) 0.09908(18)
C21 C 0.4054(6) 0.13809(18) 0.5455(2)
C22 C 0.4698(11) 0.0729(3) 0.5777(3)
H25 H 0.3694 0.0410 0.5624
H26 H 0.4792 0.0751 0.6332
H27 H 0.6016 0.0613 0.5579
Cd1C Cd 1.29647(3) 0.238476(11) -0.003473(11)
Cd1_2 Cd -0.70353(3) 0.261524(11) 0.496527(11)
N4C N 0.2582(4) 0.34355(12) 0.58534(13)
N7_2 N 0.6559(4) 0.27536(17) 0.50345(18)
O3 O 1.1797(6) 0.0831(2) 0.35884(16)
H1 H 1.2496 0.1026 0.3914
C19 C 0.9953(15) 0.0632(5) 0.3914(5)
H20 H 1.0426 0.0307 0.4281
H21 H 0.9308 0.0390 0.3492
C20 C 0.8089(18) 0.0914(6) 0.4317(7)
H22 H 0.8159 0.1377 0.4305
H23 H 0.8089 0.0769 0.4845
H24 H 0.6848 0.0773 0.4054
loop_
_geom_bond_atom_site_label_1
_geom_bond_atom_site_label_2
_geom_bond_site_symmetry_1
_geom_bond_site_symmetry_2
Cd1 O1 1_555 1_555
O1 C21 1_555 1_555
O2 Cd1 1_555 1_555
O3 H1 1_555 1_555
N1 Cd1 1_555 1_555
N2 H2 1_555 1_555
N3 H3 1_555 1_555
N4 C12 1_555 1_555
N5 Cd1 1_555 1_555
N6 N5 1_555 1_555
N7 N6 1_555 1_555
C1 N1 1_555 1_555
C2 C1 1_555 1_555
H4 C2 1_555 1_555
C3 C2 1_555 1_555
H5 C3 1_555 1_555
C4 C3 1_555 1_555
H6 C4 1_555 1_555
C5 C4 1_555 1_555
H7 C5 1_555 1_555
C6 N2 1_555 1_555
C7 N1 1_555 1_555
C8 C7 1_555 1_555
H8 C8 1_555 1_555
H9 C8 1_555 1_555
C9 C8 1_555 1_555
H10 C9 1_555 1_555
H11 C9 1_555 1_555
C10 C9 1_555 1_555
H12 C10 1_555 1_555
H13 C10 1_555 1_555
C11 C10 1_555 1_555
H14 C11 1_555 1_555
H15 C11 1_555 1_555
C12 N3 1_555 1_555
C13 N3 1_555 1_555
C14 C13 1_555 1_555
H16 C14 1_555 1_555
C15 C14 1_555 1_555
H17 C15 1_555 1_555
C16 C15 1_555 1_555
H18 C16 1_555 1_555
C17 C16 1_555 1_555
H19 C17 1_555 1_555
C18 N4 1_555 1_555
C19 O3 1_555 1_555
H20 C19 1_555 1_555
H21 C19 1_555 1_555
C20 C19 1_555 1_555
H22 C20 1_555 1_555
H23 C20 1_555 1_555
H24 C20 1_555 1_555
C21 O2 1_555 1_555
C22 C21 1_555 1_555
H25 C22 1_555 1_555
H26 C22 1_555 1_555
H27 C22 1_555 1_555
Cd1C N4 1_555 1_555
Cd1_2 N7 1_555 1_555
N4C Cd1 1_555 1_555
N7_2 Cd1 1_555 1_555
N2 C7 1_555 1_555
C1 C6 1_555 1_555
C5 C6 1_555 1_555
C11 C12 1_555 1_555
C13 C18 1_555 1_555
C17 C18 1_555 1_555

#END
