
#######################################################################
#
#                 Cambridge Crystallographic Data Centre
#                                CCDC 
#
#######################################################################
#
# If this CIF has been generated from an entry in the Cambridge 
# Structural Database, then it will include bibliographic, chemical, 
# crystal, experimental, refinement or atomic coordinate data resulting 
# from the CCDC's data processing and validation procedures.
#
#######################################################################

data_BURTOY
_symmetry_cell_setting           monoclinic
_symmetry_space_group_name_H-M   'C c'
_symmetry_Int_Tables_number      9
_space_group_name_Hall           'C -2yc'
loop_
_symmetry_equiv_pos_site_id
_symmetry_equiv_pos_as_xyz
1 x,y,z
2 x,-y,1/2+z
3 1/2+x,1/2+y,z
4 1/2+x,1/2-y,1/2+z
_cell_length_a                   14.040(3)
_cell_length_b                   16.938(3)
_cell_length_c                   9.0994(18)
_cell_angle_alpha                90
_cell_angle_beta                 95.89(3)
_cell_angle_gamma                90
_cell_volume                     2152.5
loop_
_atom_site_label
_atom_site_type_symbol
_atom_site_fract_x
_atom_site_fract_y
_atom_site_fract_z
Cd1 Cd 0.919710(16) 0.837705(9) 0.542800(18)
S1 S 0.92696(5) 0.88545(4) 0.17157(7)
O1 O 0.81416(18) 0.94787(17) 0.4640(3)
O2 O 0.90135(17) 0.90232(15) 0.7608(2)
O3 O 1.03778(17) 0.93203(14) 0.5183(3)
O4 O 0.93055(17) 0.82700(11) 0.2912(2)
O5 O 0.82890(14) 0.91804(13) 0.1431(2)
O6 O 0.95568(17) 0.84861(13) 0.0373(2)
O7 O 0.99259(15) 0.95132(13) 0.2166(2)
N1 N 0.78984(18) 0.75825(15) 0.5112(3)
N2 N 0.64627(19) 0.70439(18) 0.5038(3)
H1 H 0.5860 0.6975 0.5195
N3 N 0.52983(17) 0.75464(16) 1.1432(3)
N4 N 0.6515(3) 0.83757(15) 1.1798(5)
H2 H 0.7083 0.8584 1.1738
C1 C 0.7895(2) 0.68926(18) 0.4290(3)
C2 C 0.8603(3) 0.65457(19) 0.3546(5)
H3 H 0.9218 0.6779 0.3551
C3 C 0.8379(3) 0.5843(2) 0.2791(4)
H4 H 0.8855 0.5593 0.2282
C4 C 0.7484(4) 0.5500(2) 0.2764(5)
H5 H 0.7357 0.5022 0.2235
C5 C 0.6765(3) 0.5844(2) 0.3497(4)
H6 H 0.6149 0.5611 0.3488
C6 C 0.6995(4) 0.6543(2) 0.4238(6)
C7 C 0.7020(2) 0.7654(2) 0.5535(3)
C8 C 0.6672(3) 0.8288(2) 0.6480(4)
H7 H 0.5971 0.8343 0.6253
H8 H 0.6970 0.8795 0.6236
C9 C 0.6900(3) 0.8127(2) 0.8133(4)
H9 H 0.7597 0.8194 0.8394
H10 H 0.6571 0.8530 0.8688
C10 C 0.6617(3) 0.7326(2) 0.8634(4)
H11 H 0.6976 0.6922 0.8128
H12 H 0.5927 0.7245 0.8326
C11 C 0.6799(2) 0.7197(2) 1.0288(4)
H13 H 0.6682 0.6635 1.0506
H14 H 0.7480 0.7311 1.0608
C12 C 0.6190(2) 0.76963(17) 1.1163(3)
C13 C 0.5039(2) 0.8162(2) 1.2333(4)
C14 C 0.4213(3) 0.8279(2) 1.3026(4)
H15 H 0.3693 0.7918 1.2890
C15 C 0.4173(3) 0.8931(2) 1.3913(4)
H16 H 0.3620 0.9017 1.4412
C16 C 0.4926(3) 0.9470(2) 1.4096(4)
H17 H 0.4865 0.9923 1.4696
C17 C 0.5750(3) 0.9366(2) 1.3436(5)
H18 H 0.6264 0.9732 1.3563
C18 C 0.5794(2) 0.86913(18) 1.2567(4)
H19 H 0.818(3) 0.986(3) 0.504(5)
H20 H 0.808(3) 0.951(3) 0.392(5)
H21 H 0.911(3) 0.947(2) 0.766(4)
H22 H 0.912(3) 0.885(2) 0.847(2)
H23 H 1.037(3) 0.939(2) 0.439(5)
H24 H 1.023(3) 0.965(3) 0.554(5)
Cd1C Cd 0.419710(16) 0.662295(9) 1.042800(18)
N3C N 1.02983(17) 0.74536(16) 0.6432(3)
loop_
_geom_bond_atom_site_label_1
_geom_bond_atom_site_label_2
_geom_bond_site_symmetry_1
_geom_bond_site_symmetry_2
Cd1 O1 1_555 1_555
S1 O4 1_555 1_555
O1 H19 1_555 1_555
O2 Cd1 1_555 1_555
O3 Cd1 1_555 1_555
O4 Cd1 1_555 1_555
O5 S1 1_555 1_555
O6 S1 1_555 1_555
O7 S1 1_555 1_555
N1 Cd1 1_555 1_555
N2 H1 1_555 1_555
N3 C12 1_555 1_555
N4 H2 1_555 1_555
C1 N1 1_555 1_555
C2 C1 1_555 1_555
H3 C2 1_555 1_555
C3 C2 1_555 1_555
H4 C3 1_555 1_555
C4 C3 1_555 1_555
H5 C4 1_555 1_555
C5 C4 1_555 1_555
H6 C5 1_555 1_555
C6 N2 1_555 1_555
C7 N1 1_555 1_555
C8 C7 1_555 1_555
H7 C8 1_555 1_555
H8 C8 1_555 1_555
C9 C8 1_555 1_555
H9 C9 1_555 1_555
H10 C9 1_555 1_555
C10 C9 1_555 1_555
H11 C10 1_555 1_555
H12 C10 1_555 1_555
C11 C10 1_555 1_555
H13 C11 1_555 1_555
H14 C11 1_555 1_555
C12 N4 1_555 1_555
C13 N3 1_555 1_555
C14 C13 1_555 1_555
H15 C14 1_555 1_555
C15 C14 1_555 1_555
H16 C15 1_555 1_555
C16 C15 1_555 1_555
H17 C16 1_555 1_555
C17 C16 1_555 1_555
H18 C17 1_555 1_555
C18 N4 1_555 1_555
H20 O1 1_555 1_555
H21 O2 1_555 1_555
H22 O2 1_555 1_555
H23 O3 1_555 1_555
H24 O3 1_555 1_555
Cd1C N3 1_555 1_555
N3C Cd1 1_555 1_555
N2 C7 1_555 1_555
C1 C6 1_555 1_555
C5 C6 1_555 1_555
C11 C12 1_555 1_555
C13 C18 1_555 1_555
C17 C18 1_555 1_555

#END
