
#######################################################################
#
#                 Cambridge Crystallographic Data Centre
#                                CCDC 
#
#######################################################################
#
# If this CIF has been generated from an entry in the Cambridge 
# Structural Database, then it will include bibliographic, chemical, 
# crystal, experimental, refinement or atomic coordinate data resulting 
# from the CCDC's data processing and validation procedures.
#
#######################################################################

data_BURWAN
_symmetry_cell_setting           monoclinic
_symmetry_space_group_name_H-M   'P 21/c'
_symmetry_Int_Tables_number      14
_space_group_name_Hall           '-P 2ybc'
loop_
_symmetry_equiv_pos_site_id
_symmetry_equiv_pos_as_xyz
1 x,y,z
2 -x,1/2+y,1/2-z
3 -x,-y,-z
4 x,1/2-y,1/2+z
_cell_length_a                   8.8400(11)
_cell_length_b                   12.7073(17)
_cell_length_c                   19.617(3)
_cell_angle_alpha                90
_cell_angle_beta                 100.998(4)
_cell_angle_gamma                90
_cell_volume                     2163.16
loop_
_atom_site_label
_atom_site_type_symbol
_atom_site_fract_x
_atom_site_fract_y
_atom_site_fract_z
Cu1 Cu 0.35406(4) 0.36910(3) 0.318660(18)
N1 N 0.1729(3) 0.3468(2) 0.24324(14)
C1 C 0.1711(4) 0.3434(3) 0.17456(16)
H1 H 0.2636 0.3491 0.1589
C2 C 0.0360(4) 0.3318(3) 0.12663(18)
H2 H 0.0376 0.3277 0.0794
C3 C -0.1028(4) 0.3262(3) 0.15017(19)
H3 H -0.1956 0.3211 0.1188
C4 C -0.1007(4) 0.3283(3) 0.22012(19)
H4 H -0.1922 0.3239 0.2367
C5 C 0.0385(4) 0.3371(2) 0.26594(17)
C6 C 0.0515(4) 0.3368(2) 0.34342(17)
O1 O -0.0629(3) 0.3281(2) 0.36941(13)
N2 N 0.2021(3) 0.3466(2) 0.37644(14)
C7 C 0.2531(4) 0.3391(3) 0.44624(17)
O2 O 0.1805(3) 0.3187(2) 0.49203(13)
C8 C 0.4256(4) 0.3578(2) 0.46440(16)
C9 C 0.5055(4) 0.3601(2) 0.53197(18)
H5 H 0.4547 0.3494 0.5688
C10 C 0.6627(4) 0.3787(3) 0.54412(17)
H6 H 0.7185 0.3816 0.5893
C11 C 0.7367(4) 0.3931(3) 0.48818(17)
H7 H 0.8426 0.4038 0.4952
C12 C 0.6484(4) 0.3909(3) 0.42173(17)
H8 H 0.6968 0.4011 0.3841
N3 N 0.4959(3) 0.37472(19) 0.40978(14)
O3 O 0.4814(3) 0.44184(17) 0.26176(11)
C13 C 0.4690(3) 0.5411(2) 0.26394(15)
O4 O 0.4047(3) 0.59221(18) 0.30447(12)
C14 C 0.5338(3) 0.6041(2) 0.20814(15)
C15 C 0.7069(3) 0.5874(2) 0.21645(16)
C16 C 0.7955(4) 0.5787(2) 0.28278(17)
H9 H 0.7478 0.5737 0.3210
C17 C 0.9544(4) 0.5773(2) 0.2920(2)
H10 H 1.0132 0.5720 0.3366
C18 C 1.0270(4) 0.5838(3) 0.2353(2)
H11 H 1.1340 0.5828 0.2416
C19 C 0.9393(4) 0.5916(3) 0.1698(2)
H12 H 0.9876 0.5955 0.1317
C20 C 0.7792(4) 0.5939(2) 0.15951(17)
H13 H 0.7210 0.5997 0.1149
C21 C 0.4368(3) 0.5722(2) 0.13840(15)
C22 C 0.4635(4) 0.4791(3) 0.10514(16)
H14 H 0.5476 0.4374 0.1238
C23 C 0.3664(4) 0.4480(3) 0.04467(17)
H15 H 0.3860 0.3856 0.0230
C24 C 0.2401(4) 0.5090(3) 0.01601(17)
H16 H 0.1746 0.4877 -0.0245
C25 C 0.2124(4) 0.6023(3) 0.04856(17)
H17 H 0.1286 0.6441 0.0295
C26 C 0.3098(4) 0.6333(3) 0.10942(17)
H18 H 0.2899 0.6955 0.1311
O5 O 0.5131(3) 0.71415(16) 0.21971(11)
H19 H 0.4621 0.7217 0.2502
Cu1A Cu 0.64594(4) 0.86910(3) 0.181340(18)
O5A O 0.4869(3) 0.21415(16) 0.28029(11)
H19A H 0.5379 0.2217 0.2498
loop_
_geom_bond_atom_site_label_1
_geom_bond_atom_site_label_2
_geom_bond_site_symmetry_1
_geom_bond_site_symmetry_2
Cu1 N1 1_555 1_555
N1 C1 1_555 1_555
C1 H1 1_555 1_555
C2 C1 1_555 1_555
H2 C2 1_555 1_555
C3 C2 1_555 1_555
H3 C3 1_555 1_555
C4 C3 1_555 1_555
H4 C4 1_555 1_555
C5 N1 1_555 1_555
C6 C5 1_555 1_555
O1 C6 1_555 1_555
N2 Cu1 1_555 1_555
C7 N2 1_555 1_555
O2 C7 1_555 1_555
C8 C7 1_555 1_555
C9 C8 1_555 1_555
H5 C9 1_555 1_555
C10 C9 1_555 1_555
H6 C10 1_555 1_555
C11 C10 1_555 1_555
H7 C11 1_555 1_555
C12 C11 1_555 1_555
H8 C12 1_555 1_555
N3 Cu1 1_555 1_555
O3 Cu1 1_555 1_555
C13 O3 1_555 1_555
O4 C13 1_555 1_555
C14 C13 1_555 1_555
C15 C14 1_555 1_555
C16 C15 1_555 1_555
H9 C16 1_555 1_555
C17 C16 1_555 1_555
H10 C17 1_555 1_555
C18 C17 1_555 1_555
H11 C18 1_555 1_555
C19 C18 1_555 1_555
H12 C19 1_555 1_555
C20 C15 1_555 1_555
H13 C20 1_555 1_555
C21 C14 1_555 1_555
C22 C21 1_555 1_555
H14 C22 1_555 1_555
C23 C22 1_555 1_555
H15 C23 1_555 1_555
C24 C23 1_555 1_555
H16 C24 1_555 1_555
C25 C24 1_555 1_555
H17 C25 1_555 1_555
C26 C21 1_555 1_555
H18 C26 1_555 1_555
O5 C14 1_555 1_555
H19 O5 1_555 1_555
Cu1A O5 1_555 1_555
O5A Cu1 1_555 1_555
H19A O5A 1_555 1_555
C4 C5 1_555 1_555
C6 N2 1_555 1_555
C8 N3 1_555 1_555
C12 N3 1_555 1_555
C19 C20 1_555 1_555
C25 C26 1_555 1_555

#END
