
#######################################################################
#
#                 Cambridge Crystallographic Data Centre
#                                CCDC 
#
#######################################################################
#
# If this CIF has been generated from an entry in the Cambridge 
# Structural Database, then it will include bibliographic, chemical, 
# crystal, experimental, refinement or atomic coordinate data resulting 
# from the CCDC's data processing and validation procedures.
#
#######################################################################

data_BURYET
_symmetry_cell_setting           monoclinic
_symmetry_space_group_name_H-M   'P 2/n'
_symmetry_Int_Tables_number      13
_space_group_name_Hall           '-P 2yac'
loop_
_symmetry_equiv_pos_site_id
_symmetry_equiv_pos_as_xyz
1 x,y,z
2 1/2-x,y,1/2-z
3 -x,-y,-z
4 1/2+x,-y,1/2+z
_cell_length_a                   9.5731(9)
_cell_length_b                   9.5962(10)
_cell_length_c                   16.5163(16)
_cell_angle_alpha                90
_cell_angle_beta                 95.070(2)
_cell_angle_gamma                90
_cell_volume                     1511.34
loop_
_atom_site_label
_atom_site_type_symbol
_atom_site_fract_x
_atom_site_fract_y
_atom_site_fract_z
Cu1 Cu 0.77464(9) 0.63071(9) 0.00801(5)
V1 V 1.10826(13) 0.24430(12) 0.17116(7)
P1 P 1.06081(18) 0.55874(18) 0.11515(11)
O1 O 0.9288(5) 0.6405(6) 0.0910(3)
O2 O 1.1537(5) 0.5284(5) 0.0477(3)
O3 O 1.0273(5) 0.4207(5) 0.1605(3)
O4 O 1.2500 0.2447(8) 0.2500
O5 O 0.9878(6) 0.1349(6) 0.1916(3)
O6 O 0.8369(6) 0.7959(6) -0.0831(3)
N1 N 0.6693(6) 0.7759(6) 0.0682(4)
N2 N 0.5834(6) 0.6091(6) -0.0533(4)
C1 C 1.2500 0.8766(11) 0.2500
H1 H 1.2500 0.9735 0.2500
C2 C 1.1597(8) 0.8048(7) 0.1940(4)
H2 H 1.0982 0.8540 0.1578
C3 C 1.1610(7) 0.6600(7) 0.1917(4)
C4 C 1.2500 0.5918(10) 0.2500
H3 H 1.2500 0.4949 0.2500
C5 C 0.5426(7) 0.5249(8) -0.1136(4)
H4 H 0.6062 0.4589 -0.1291
C6 C 0.4081(8) 0.5288(7) -0.1562(4)
H5 H 0.3841 0.4686 -0.1993
C7 C 0.3150(8) 0.6239(8) -0.1320(5)
H6 H 0.2256 0.6286 -0.1589
C8 C 0.3509(8) 0.7143(8) -0.0674(5)
C9 C 0.4889(7) 0.7049(8) -0.0302(4)
C10 C 0.2584(8) 0.8168(9) -0.0363(5)
H7 H 0.1673 0.8251 -0.0604
C11 C 0.3005(8) 0.9001(8) 0.0263(4)
H8 H 0.2383 0.9648 0.0447
C12 C 0.4418(8) 0.8907(8) 0.0657(5)
C13 C 0.5346(8) 0.7916(7) 0.0358(4)
C14 C 0.4949(9) 0.9734(8) 0.1306(5)
H9 H 0.4381 1.0396 0.1525
C15 C 0.6307(8) 0.9566(8) 0.1619(4)
H10 H 0.6670 1.0124 0.2047
C16 C 0.7151(8) 0.8562(8) 0.1298(4)
H11 H 0.8068 0.8453 0.1525
Cu1A Cu 1.72536(9) 0.63071(9) 0.49199(5)
Cu1B Cu 1.22536(9) 0.36929(9) -0.00801(5)
Cu1C Cu 1.27464(9) 0.36929(9) 0.50801(5)
V1A V 1.39174(13) 0.24430(12) 0.32884(7)
V1B V 0.89174(13) 0.75570(12) -0.17116(7)
P1A P 1.43919(18) 0.55874(18) 0.38485(11)
O1A O 1.5712(5) 0.6405(6) 0.4090(3)
O2A O 1.3463(5) 0.5284(5) 0.4523(3)
O2B O 0.8463(5) 0.4716(5) -0.0477(3)
O2C O 1.6537(5) 0.4716(5) 0.5477(3)
O3A O 1.4727(5) 0.4207(5) 0.3395(3)
O5A O 1.5122(6) 0.1349(6) 0.3084(3)
O6B O 1.1631(6) 0.2041(6) 0.0831(3)
O6A O 1.6631(6) 0.7959(6) 0.5831(3)
O6C O 1.3369(6) 0.2041(6) 0.4169(3)
N1A N 1.8307(6) 0.7759(6) 0.4318(4)
N2A N 1.9166(6) 0.6091(6) 0.5533(4)
C2A C 1.3403(8) 0.8048(7) 0.3060(4)
H2A H 1.4018 0.8540 0.3422
C3A C 1.3390(7) 0.6600(7) 0.3083(4)
C5A C 1.9574(7) 0.5249(8) 0.6136(4)
H4A H 1.8938 0.4589 0.6291
C6A C 2.0919(8) 0.5288(7) 0.6562(4)
H5A H 2.1159 0.4686 0.6993
C7A C 2.1850(8) 0.6239(8) 0.6320(5)
H6A H 2.2744 0.6286 0.6589
C8A C 2.1491(8) 0.7143(8) 0.5674(5)
C9A C 2.0111(7) 0.7049(8) 0.5302(4)
C10A C 2.2416(8) 0.8168(9) 0.5363(5)
H7A H 2.3327 0.8251 0.5604
C11A C 2.1995(8) 0.9001(8) 0.4737(4)
H8A H 2.2617 0.9648 0.4553
C12A C 2.0582(8) 0.8907(8) 0.4343(5)
C13A C 1.9654(8) 0.7916(7) 0.4642(4)
C14A C 2.0051(9) 0.9734(8) 0.3694(5)
H9A H 2.0619 1.0396 0.3475
C15A C 1.8693(8) 0.9566(8) 0.3381(4)
H10A H 1.8330 1.0124 0.2953
C16A C 1.7849(8) 0.8562(8) 0.3702(4)
H11A H 1.6932 0.8453 0.3475
loop_
_geom_bond_atom_site_label_1
_geom_bond_atom_site_label_2
_geom_bond_site_symmetry_1
_geom_bond_site_symmetry_2
Cu1 O1 1_555 1_555
V1 O3 1_555 1_555
P1 O1 1_555 1_555
O2 P1 1_555 1_555
O3 P1 1_555 1_555
O4 V1 1_555 1_555
O5 V1 1_555 1_555
O6 Cu1 1_555 1_555
N1 Cu1 1_555 1_555
N2 Cu1 1_555 1_555
C1 H1 1_555 1_555
C2 C1 1_555 1_555
H2 C2 1_555 1_555
C3 P1 1_555 1_555
C4 C3 1_555 1_555
H3 C4 1_555 1_555
C5 N2 1_555 1_555
H4 C5 1_555 1_555
C6 C5 1_555 1_555
H5 C6 1_555 1_555
C7 C6 1_555 1_555
H6 C7 1_555 1_555
C8 C7 1_555 1_555
C9 N2 1_555 1_555
C10 C8 1_555 1_555
H7 C10 1_555 1_555
C11 C10 1_555 1_555
H8 C11 1_555 1_555
C12 C11 1_555 1_555
C13 N1 1_555 1_555
C14 C12 1_555 1_555
H9 C14 1_555 1_555
C15 C14 1_555 1_555
H10 C15 1_555 1_555
C16 N1 1_555 1_555
H11 C16 1_555 1_555
Cu1A O1A 1_555 1_555
Cu1B O2 1_555 1_555
Cu1C O2A 1_555 1_555
V1A O4 1_555 1_555
V1B O6 1_555 1_555
P1A O1A 1_555 1_555
O2A P1A 1_555 1_555
O2B Cu1 1_555 1_555
O2C Cu1A 1_555 1_555
O3A V1A 1_555 1_555
O5A V1A 1_555 1_555
O6B V1 1_555 1_555
O6A Cu1A 1_555 1_555
O6C Cu1C 1_555 1_555
N1A Cu1A 1_555 1_555
N2A Cu1A 1_555 1_555
C2A C1 1_555 1_555
H2A C2A 1_555 1_555
C3A C4 1_555 1_555
C5A N2A 1_555 1_555
H4A C5A 1_555 1_555
C6A C5A 1_555 1_555
H5A C6A 1_555 1_555
C7A C6A 1_555 1_555
H6A C7A 1_555 1_555
C8A C7A 1_555 1_555
C9A N2A 1_555 1_555
C10A C8A 1_555 1_555
H7A C10A 1_555 1_555
C11A C10A 1_555 1_555
H8A C11A 1_555 1_555
C12A C11A 1_555 1_555
C13A N1A 1_555 1_555
C14A C12A 1_555 1_555
H9A C14A 1_555 1_555
C15A C14A 1_555 1_555
H10A C15A 1_555 1_555
C16A N1A 1_555 1_555
H11A C16A 1_555 1_555
C2 C3 1_555 1_555
C8 C9 1_555 1_555
C9 C13 1_555 1_555
C12 C13 1_555 1_555
C15 C16 1_555 1_555
Cu1B O6B 1_555 1_555
V1A O6C 1_555 1_555
P1A O3A 1_555 1_555
P1A C3A 1_555 1_555
C2A C3A 1_555 1_555
C8A C9A 1_555 1_555
C9A C13A 1_555 1_555
C12A C13A 1_555 1_555
C15A C16A 1_555 1_555

#END
