
#######################################################################
#
#                 Cambridge Crystallographic Data Centre
#                                CCDC 
#
#######################################################################
#
# If this CIF has been generated from an entry in the Cambridge 
# Structural Database, then it will include bibliographic, chemical, 
# crystal, experimental, refinement or atomic coordinate data resulting 
# from the CCDC's data processing and validation procedures.
#
#######################################################################

data_BURYUJ
_symmetry_cell_setting           monoclinic
_symmetry_space_group_name_H-M   'P 21/n'
_symmetry_Int_Tables_number      14
_space_group_name_Hall           '-P 2yn'
loop_
_symmetry_equiv_pos_site_id
_symmetry_equiv_pos_as_xyz
1 x,y,z
2 1/2-x,1/2+y,1/2-z
3 -x,-y,-z
4 1/2+x,1/2-y,1/2+z
_cell_length_a                   10.6351(8)
_cell_length_b                   14.8733(11)
_cell_length_c                   18.7757(13)
_cell_angle_alpha                90
_cell_angle_beta                 93.8310(10)
_cell_angle_gamma                90
_cell_volume                     2963.29
loop_
_atom_site_label
_atom_site_type_symbol
_atom_site_fract_x
_atom_site_fract_y
_atom_site_fract_z
O1 O 0.8692(4) 0.9579(2) 0.0346(2)
H23 H 0.802(7) 0.943(5) 0.037(3)
H24 H 0.899(5) 0.924(4) 0.006(3)
Cu1 Cu 0.48143(5) 0.93869(4) 0.10911(3)
Cu2 Cu 1.06051(5) 0.60705(4) 0.10256(3)
V1 V 1.06843(8) 0.74724(5) -0.05200(4)
P1 P 0.53016(11) 0.87317(7) -0.01426(6)
P2 P 0.86191(11) 0.58625(8) -0.03549(6)
F1 F 0.9388(3) 0.8316(2) -0.05966(17)
O2 O 0.4006(3) 0.8850(2) 0.01810(17)
O3 O 0.6227(3) 0.9078(2) 0.04666(17)
O4 O 0.5431(3) 0.9173(2) -0.08576(17)
O5 O 0.9100(3) 0.5790(2) 0.04207(16)
O6 O 0.9388(3) 0.6552(2) -0.07670(17)
O7 O 0.8491(3) 0.4985(2) -0.07589(19)
O8 O 1.1248(4) 0.7038(3) 0.0226(2)
O9 O 1.1565(4) 0.7191(3) -0.1161(2)
O10 O 1.1695(4) 0.8652(3) -0.0387(3)
N1 N 0.5937(3) 0.9622(3) 0.1948(2)
N2 N 0.4538(4) 0.9038(3) 0.2755(2)
N3 N 0.3345(4) 0.9289(3) 0.1667(2)
N4 N 0.9593(4) 0.6848(3) 0.1636(2)
N5 N 1.0764(4) 0.6369(3) 0.2677(2)
N6 N 1.2058(4) 0.6382(3) 0.1711(2)
C1 C 0.5566(4) 0.7544(3) -0.0264(2)
C2 C 0.4551(4) 0.6953(3) -0.0367(3)
H1 H 0.3712 0.7167 -0.0349
C3 C 0.4776(5) 0.6053(3) -0.0496(3)
H2 H 0.4087 0.5652 -0.0581
C4 C 0.6000(5) 0.5731(3) -0.0503(3)
H3 H 0.6136 0.5111 -0.0592
C5 C 0.7031(4) 0.6298(3) -0.0383(2)
C6 C 0.6788(4) 0.7218(3) -0.0283(2)
H4 H 0.7476 0.7625 -0.0226
C7 C 0.7051(5) 1.0025(3) 0.1834(3)
H5 H 0.7238 1.0161 0.1358
C8 C 0.7921(5) 1.0245(4) 0.2382(3)
H6 H 0.8703 1.0514 0.2287
C9 C 0.7631(5) 1.0065(4) 0.3077(3)
H7 H 0.8213 1.0214 0.3465
C10 C 0.6499(5) 0.9670(3) 0.3203(3)
H8 H 0.6286 0.9548 0.3677
C11 C 0.5666(5) 0.9449(3) 0.2620(2)
C12 C 0.3390(4) 0.9067(3) 0.2363(2)
C13 C 0.2306(5) 0.8866(4) 0.2709(3)
H9 H 0.2366 0.8678 0.3194
C14 C 0.1148(5) 0.8941(4) 0.2344(3)
H10 H 0.0401 0.8808 0.2573
C15 C 0.1082(5) 0.9214(4) 0.1627(3)
H11 H 0.0293 0.9285 0.1365
C16 C 0.2188(5) 0.9375(3) 0.1321(3)
H12 H 0.2146 0.9560 0.0835
C17 C 0.8631(5) 0.7331(3) 0.1329(3)
H13 H 0.8577 0.7397 0.0825
C18 C 0.7725(5) 0.7732(3) 0.1709(3)
H14 H 0.7063 0.8071 0.1474
C19 C 0.7802(5) 0.7629(3) 0.2443(3)
H15 H 0.7170 0.7878 0.2717
C20 C 0.8797(5) 0.7165(3) 0.2776(3)
H16 H 0.8867 0.7095 0.3280
C21 C 0.9705(4) 0.6796(3) 0.2350(2)
C22 C 1.1956(5) 0.6424(3) 0.2421(2)
C23 C 1.3012(5) 0.6533(3) 0.2899(3)
H17 H 1.2930 0.6522 0.3400
C24 C 1.4166(5) 0.6657(4) 0.2630(3)
H18 H 1.4893 0.6747 0.2944
C25 C 1.4270(5) 0.6649(4) 0.1894(3)
H19 H 1.5062 0.6741 0.1699
C26 C 1.3199(5) 0.6507(3) 0.1458(3)
H20 H 1.3268 0.6496 0.0957
H21 H 1.134(8) 0.915(6) -0.040(4)
H22 H 1.235(7) 0.870(5) -0.021(4)
H25 H 0.452(6) 0.888(4) 0.313(3)
H26 H 1.077(6) 0.631(4) 0.307(3)
Cu1B Cu 0.51857(5) 1.06131(4) -0.10911(3)
Cu2B Cu 0.93949(5) 0.39295(4) -0.10256(3)
O4B O 0.4569(3) 1.0827(2) 0.08576(17)
O7B O 1.1509(3) 0.5015(2) 0.07589(19)
loop_
_geom_bond_atom_site_label_1
_geom_bond_atom_site_label_2
_geom_bond_site_symmetry_1
_geom_bond_site_symmetry_2
O1 H23 1_555 1_555
Cu1 O2 1_555 1_555
Cu2 O5 1_555 1_555
V1 F1 1_555 1_555
P1 O2 1_555 1_555
P2 O5 1_555 1_555
O3 Cu1 1_555 1_555
O4 P1 1_555 1_555
O6 V1 1_555 1_555
O7 P2 1_555 1_555
O8 Cu2 1_555 1_555
O9 V1 1_555 1_555
O10 V1 1_555 1_555
N1 Cu1 1_555 1_555
N2 C11 1_555 1_555
N3 Cu1 1_555 1_555
N4 Cu2 1_555 1_555
N5 C21 1_555 1_555
N6 Cu2 1_555 1_555
C1 P1 1_555 1_555
C2 C1 1_555 1_555
H1 C2 1_555 1_555
C3 C2 1_555 1_555
H2 C3 1_555 1_555
C4 C3 1_555 1_555
H3 C4 1_555 1_555
C5 P2 1_555 1_555
C6 C1 1_555 1_555
H4 C6 1_555 1_555
C7 N1 1_555 1_555
H5 C7 1_555 1_555
C8 C7 1_555 1_555
H6 C8 1_555 1_555
C9 C8 1_555 1_555
H7 C9 1_555 1_555
C10 C9 1_555 1_555
H8 C10 1_555 1_555
C11 N1 1_555 1_555
C12 N2 1_555 1_555
C13 C12 1_555 1_555
H9 C13 1_555 1_555
C14 C13 1_555 1_555
H10 C14 1_555 1_555
C15 C14 1_555 1_555
H11 C15 1_555 1_555
C16 N3 1_555 1_555
H12 C16 1_555 1_555
C17 N4 1_555 1_555
H13 C17 1_555 1_555
C18 C17 1_555 1_555
H14 C18 1_555 1_555
C19 C18 1_555 1_555
H15 C19 1_555 1_555
C20 C19 1_555 1_555
H16 C20 1_555 1_555
C21 N4 1_555 1_555
C22 N5 1_555 1_555
C23 C22 1_555 1_555
H17 C23 1_555 1_555
C24 C23 1_555 1_555
H18 C24 1_555 1_555
C25 C24 1_555 1_555
H19 C25 1_555 1_555
C26 N6 1_555 1_555
H20 C26 1_555 1_555
H21 O10 1_555 1_555
H22 O10 1_555 1_555
H24 O1 1_555 1_555
H25 N2 1_555 1_555
H26 N5 1_555 1_555
Cu1B O4 1_555 1_555
Cu2B O7 1_555 1_555
O4B Cu1 1_555 1_555
O7B Cu2 1_555 1_555
V1 O8 1_555 1_555
P1 O3 1_555 1_555
P2 O6 1_555 1_555
N3 C12 1_555 1_555
N6 C22 1_555 1_555
C4 C5 1_555 1_555
C5 C6 1_555 1_555
C10 C11 1_555 1_555
C15 C16 1_555 1_555
C20 C21 1_555 1_555
C25 C26 1_555 1_555

#END
