
#######################################################################
#
#                 Cambridge Crystallographic Data Centre
#                                CCDC 
#
#######################################################################
#
# If this CIF has been generated from an entry in the Cambridge 
# Structural Database, then it will include bibliographic, chemical, 
# crystal, experimental, refinement or atomic coordinate data resulting 
# from the CCDC's data processing and validation procedures.
#
#######################################################################

data_BURZOE
_symmetry_cell_setting           monoclinic
_symmetry_space_group_name_H-M   'C 2/c'
_symmetry_Int_Tables_number      15
_space_group_name_Hall           '-C 2yn'
loop_
_symmetry_equiv_pos_site_id
_symmetry_equiv_pos_as_xyz
1 x,y,z
2 -x,y,1/2-z
3 1/2+x,1/2+y,z
4 1/2-x,1/2+y,1/2-z
5 -x,-y,-z
6 x,-y,1/2+z
7 1/2-x,1/2-y,-z
8 1/2+x,1/2-y,1/2+z
_cell_length_a                   11.2896(5)
_cell_length_b                   16.8485(8)
_cell_length_c                   20.5594(10)
_cell_angle_alpha                90
_cell_angle_beta                 93.9090(10)
_cell_angle_gamma                90
_cell_volume                     3901.56
loop_
_atom_site_label
_atom_site_type_symbol
_atom_site_fract_x
_atom_site_fract_y
_atom_site_fract_z
Cu1 Cu 0.69675(5) 0.30664(3) 0.64474(3)
V1 V 0.87419(7) 0.21023(5) 0.50993(4)
P1 P 0.98688(11) 0.29883(7) 0.64739(6)
P2 P 1.15725(11) 0.64992(7) 0.58331(6)
O1 O 0.9744(3) 0.2453(2) 0.58867(16)
O2 O 0.8819(3) 0.3025(2) 0.68892(16)
O3 O 1.0997(3) 0.2685(2) 0.68914(17)
O4 O 1.0771(3) 0.6874(2) 0.52777(16)
O5 O 1.2861(3) 0.6377(2) 0.56324(16)
O6 O 1.1525(3) 0.6963(2) 0.64711(16)
O7 O 0.7356(3) 0.2951(2) 0.55315(15)
O8 O 0.9730(3) 0.1506(2) 0.48613(17)
N1 N 0.6526(4) 0.3252(3) 0.7369(2)
N2 N 0.6866(4) 0.4251(3) 0.6401(2)
C1 C 1.0222(4) 0.3983(3) 0.6236(2)
C2 C 1.0875(5) 0.4131(3) 0.5703(3)
H1 H 1.1067 0.3707 0.5424
C3 C 1.1253(5) 0.4899(3) 0.5574(3)
H2 H 1.1692 0.4993 0.5203
C4 C 1.1001(4) 0.5526(3) 0.5976(2)
C5 C 1.0297(5) 0.5387(3) 0.6496(3)
H3 H 1.0084 0.5815 0.6765
C6 C 0.9906(5) 0.4624(3) 0.6620(3)
H4 H 0.9416 0.4536 0.6971
C7 C 0.6340(5) 0.2732(4) 0.7834(3)
H5 H 0.6327 0.2182 0.7733
C8 C 0.6162(5) 0.2973(5) 0.8472(3)
H6 H 0.6043 0.2588 0.8799
C9 C 0.6159(5) 0.3764(5) 0.8624(3)
H7 H 0.6023 0.3927 0.9055
C10 C 0.6355(5) 0.4332(4) 0.8146(3)
C11 C 0.6533(4) 0.4038(3) 0.7516(3)
C12 C 0.6331(6) 0.5176(4) 0.8234(3)
H8 H 0.6200 0.5381 0.8653
C13 C 0.6486(5) 0.5689(4) 0.7742(3)
H9 H 0.6471 0.6244 0.7823
C14 C 0.6675(5) 0.5407(3) 0.7095(3)
C15 C 0.6712(5) 0.4576(3) 0.6995(3)
C16 C 0.6765(6) 0.5890(4) 0.6549(4)
H10 H 0.6728 0.6451 0.6589
C17 C 0.6909(6) 0.5548(4) 0.5952(3)
H11 H 0.6968 0.5873 0.5578
C18 C 0.6969(5) 0.4721(3) 0.5895(3)
H12 H 0.7086 0.4493 0.5482
H13 H 1.104(6) 0.279(4) 0.721(4)
Cu1B Cu 1.19675(5) 0.80664(3) 0.64474(3)
V1D V 1.12581(7) 0.78977(5) 0.49007(4)
V1B V 1.37419(7) 0.71023(5) 0.50993(4)
V1F V 0.62581(7) 0.28977(5) 0.49007(4)
O4D O 0.9229(3) 0.3126(2) 0.47223(16)
O5B O 0.7861(3) 0.1377(2) 0.56324(16)
O6B O 0.6525(3) 0.1963(2) 0.64711(16)
O7F O 0.7644(3) 0.2049(2) 0.44685(15)
loop_
_geom_bond_atom_site_label_1
_geom_bond_atom_site_label_2
_geom_bond_site_symmetry_1
_geom_bond_site_symmetry_2
Cu1 O2 1_555 1_555
V1 O1 1_555 1_555
P1 O1 1_555 1_555
P2 O4 1_555 1_555
O2 P1 1_555 1_555
O3 P1 1_555 1_555
O4 V1D 1_555 1_555
O5 P2 1_555 1_555
O6 P2 1_555 1_555
O7 Cu1 1_555 1_555
O8 V1 1_555 1_555
N1 Cu1 1_555 1_555
N2 Cu1 1_555 1_555
C1 P1 1_555 1_555
C2 C1 1_555 1_555
H1 C2 1_555 1_555
C3 C2 1_555 1_555
H2 C3 1_555 1_555
C4 P2 1_555 1_555
C5 C4 1_555 1_555
H3 C5 1_555 1_555
C6 C1 1_555 1_555
H4 C6 1_555 1_555
C7 N1 1_555 1_555
H5 C7 1_555 1_555
C8 C7 1_555 1_555
H6 C8 1_555 1_555
C9 C8 1_555 1_555
H7 C9 1_555 1_555
C10 C9 1_555 1_555
C11 N1 1_555 1_555
C12 C10 1_555 1_555
H8 C12 1_555 1_555
C13 C12 1_555 1_555
H9 C13 1_555 1_555
C14 C13 1_555 1_555
C15 N2 1_555 1_555
C16 C14 1_555 1_555
H10 C16 1_555 1_555
C17 C16 1_555 1_555
H11 C17 1_555 1_555
C18 N2 1_555 1_555
H12 C18 1_555 1_555
H13 O3 1_555 1_555
Cu1B O6 1_555 1_555
V1B O5 1_555 1_555
V1F O7 1_555 1_555
O4D V1 1_555 1_555
O5B V1 1_555 1_555
O6B Cu1 1_555 1_555
O7F V1 1_555 1_555
V1 O7 1_555 1_555
C3 C4 1_555 1_555
C5 C6 1_555 1_555
C10 C11 1_555 1_555
C11 C15 1_555 1_555
C14 C15 1_555 1_555
C17 C18 1_555 1_555
V1F O7F 1_555 1_555

#END
