
#######################################################################
#
#                 Cambridge Crystallographic Data Centre
#                                CCDC 
#
#######################################################################
#
# If this CIF has been generated from an entry in the Cambridge 
# Structural Database, then it will include bibliographic, chemical, 
# crystal, experimental, refinement or atomic coordinate data resulting 
# from the CCDC's data processing and validation procedures.
#
#######################################################################

data_BURZAQ
_symmetry_cell_setting           monoclinic
_symmetry_space_group_name_H-M   'C 2/c'
_symmetry_Int_Tables_number      15
_space_group_name_Hall           '-C 2yn'
loop_
_symmetry_equiv_pos_site_id
_symmetry_equiv_pos_as_xyz
1 x,y,z
2 -x,y,1/2-z
3 1/2+x,1/2+y,z
4 1/2-x,1/2+y,1/2-z
5 -x,-y,-z
6 x,-y,1/2+z
7 1/2-x,1/2-y,-z
8 1/2+x,1/2-y,1/2+z
_cell_length_a                   19.628(2)
_cell_length_b                   8.5882(9)
_cell_length_c                   19.245(2)
_cell_angle_alpha                90
_cell_angle_beta                 112.378(2)
_cell_angle_gamma                90
_cell_volume                     2999.81
loop_
_atom_site_label
_atom_site_type_symbol
_atom_site_fract_x
_atom_site_fract_y
_atom_site_fract_z
Cu1 Cu 0.17809(2) 0.48466(6) 0.08682(2)
V1 V 0.29258(3) 0.27521(8) 0.27160(4)
P1 P 0.13112(5) 0.45437(11) 0.21962(5)
F1 F 0.25538(13) 0.2932(3) 0.16566(13)
O1 O 0.13832(15) 0.6251(3) 0.24620(15)
O2 O 0.19976(15) 0.3619(4) 0.26629(15)
O3 O 0.11178(14) 0.4358(3) 0.13568(14)
O4 O 0.20742(18) 0.6585(4) 0.15591(17)
O5 O 0.34852(16) 0.4157(4) 0.30679(18)
N1 N 0.25296(18) 0.5357(4) 0.04422(18)
N2 N 0.2021(2) 0.3742(5) -0.0632(2)
N3 N 0.11514(18) 0.3740(4) -0.00589(19)
C1 C 0.0000 0.4454(6) 0.2500
H1 H 0.0000 0.5560 0.2500
C2 C 0.05679(19) 0.3647(4) 0.2381(2)
C3 C 0.0553(2) 0.2022(5) 0.2367(2)
H2 H 0.0922 0.1460 0.2267
C4 C 0.0000 0.1231(6) 0.2500
H3 H 0.0000 0.0125 0.2500
C5 C 0.3086(2) 0.6323(5) 0.0851(2)
H4 H 0.3058 0.6808 0.1283
C6 C 0.3684(2) 0.6634(6) 0.0674(2)
H5 H 0.4054 0.7341 0.0966
C7 C 0.3734(3) 0.5880(6) 0.0049(3)
H6 H 0.4157 0.6018 -0.0071
C8 C 0.3173(2) 0.4950(5) -0.0384(2)
H7 H 0.3192 0.4466 -0.0820
C9 C 0.2563(2) 0.4705(5) -0.0182(2)
C10 C 0.1350(2) 0.3338(5) -0.0632(2)
C11 C 0.0877(2) 0.2496(5) -0.1255(2)
H8 H 0.1044 0.2152 -0.1632
C12 C 0.0180(3) 0.2176(6) -0.1315(2)
H9 H -0.0148 0.1627 -0.1739
C13 C -0.0048(2) 0.2659(6) -0.0749(2)
H10 H -0.0540 0.2487 -0.0790
C14 C 0.0446(2) 0.3384(5) -0.0133(2)
H11 H 0.0294 0.3656 0.0265
H12 H 0.211(3) 0.347(6) -0.093(3)
Cu1A Cu -0.17809(2) 0.48466(6) 0.41318(2)
Cu1C Cu 0.32191(2) -0.01534(6) 0.41318(2)
V1C V 0.20742(3) 0.77521(8) 0.22840(4)
V1B V -0.20742(3) 0.77521(8) 0.27160(4)
V1A V -0.29258(3) 0.27521(8) 0.22840(4)
P1A P -0.13112(5) 0.45437(11) 0.28038(5)
F1A F -0.25538(13) 0.2932(3) 0.33434(13)
F1C F 0.24462(13) 0.7932(3) 0.33434(13)
O1A O -0.13832(15) 0.6251(3) 0.25380(15)
O1C O 0.36168(15) 0.1251(3) 0.25380(15)
O2A O -0.19976(15) 0.3619(4) 0.23371(15)
O2C O 0.30024(15) 0.8619(4) 0.23371(15)
O3A O -0.11178(14) 0.4358(3) 0.36432(14)
O4C O 0.29258(18) 0.1585(4) 0.34409(17)
O4A O -0.20742(18) 0.6585(4) 0.34409(17)
O5C O 0.15148(16) 0.9157(4) 0.19321(18)
N1A N -0.25296(18) 0.5357(4) 0.45578(18)
N2A N -0.2021(2) 0.3742(5) 0.5632(2)
N3A N -0.11514(18) 0.3740(4) 0.50589(19)
C2A C -0.05679(19) 0.3647(4) 0.2619(2)
C3A C -0.0553(2) 0.2022(5) 0.2633(2)
H2A H -0.0922 0.1460 0.2733
C5A C -0.3086(2) 0.6323(5) 0.4149(2)
H4A H -0.3058 0.6808 0.3717
C6A C -0.3684(2) 0.6634(6) 0.4326(2)
H5A H -0.4054 0.7341 0.4034
C7A C -0.3734(3) 0.5880(6) 0.4951(3)
H6A H -0.4157 0.6018 0.5071
C8A C -0.3173(2) 0.4950(5) 0.5384(2)
H7A H -0.3192 0.4466 0.5820
C9A C -0.2563(2) 0.4705(5) 0.5182(2)
C10A C -0.1350(2) 0.3338(5) 0.5632(2)
C11A C -0.0877(2) 0.2496(5) 0.6255(2)
H8A H -0.1044 0.2152 0.6632
C12A C -0.0180(3) 0.2176(6) 0.6315(2)
H9A H 0.0148 0.1627 0.6739
C13A C 0.0048(2) 0.2659(6) 0.5749(2)
H10A H 0.0540 0.2487 0.5790
C14A C -0.0446(2) 0.3384(5) 0.5133(2)
H11A H -0.0294 0.3656 0.4735
H12A H -0.211(3) 0.347(6) 0.593(3)
loop_
_geom_bond_atom_site_label_1
_geom_bond_atom_site_label_2
_geom_bond_site_symmetry_1
_geom_bond_site_symmetry_2
Cu1 F1 1_555 1_555
V1 F1 1_555 1_555
P1 O1 1_555 1_555
O1 V1C 1_555 1_555
O2 V1 1_555 1_555
O3 Cu1 1_555 1_555
O4 Cu1 1_555 1_555
O5 V1 1_555 1_555
N1 Cu1 1_555 1_555
N2 C9 1_555 1_555
N3 Cu1 1_555 1_555
C1 H1 1_555 1_555
C2 P1 1_555 1_555
C3 C2 1_555 1_555
H2 C3 1_555 1_555
C4 C3 1_555 1_555
H3 C4 1_555 1_555
C5 N1 1_555 1_555
H4 C5 1_555 1_555
C6 C5 1_555 1_555
H5 C6 1_555 1_555
C7 C6 1_555 1_555
H6 C7 1_555 1_555
C8 C7 1_555 1_555
H7 C8 1_555 1_555
C9 N1 1_555 1_555
C10 N2 1_555 1_555
C11 C10 1_555 1_555
H8 C11 1_555 1_555
C12 C11 1_555 1_555
H9 C12 1_555 1_555
C13 C12 1_555 1_555
H10 C13 1_555 1_555
C14 N3 1_555 1_555
H11 C14 1_555 1_555
H12 N2 1_555 1_555
Cu1A F1A 1_555 1_555
Cu1C O4C 1_555 1_555
V1C O4 1_555 1_555
V1B O1A 1_555 1_555
V1A F1A 1_555 1_555
P1A O1A 1_555 1_555
F1C V1C 1_555 1_555
O1C V1 1_555 1_555
O2A V1A 1_555 1_555
O2C V1C 1_555 1_555
O3A Cu1A 1_555 1_555
O4C V1 1_555 1_555
O4A Cu1A 1_555 1_555
O5C V1C 1_555 1_555
N1A Cu1A 1_555 1_555
N2A C9A 1_555 1_555
N3A Cu1A 1_555 1_555
C2A C1 1_555 1_555
C3A C4 1_555 1_555
H2A C3A 1_555 1_555
C5A N1A 1_555 1_555
H4A C5A 1_555 1_555
C6A C5A 1_555 1_555
H5A C6A 1_555 1_555
C7A C6A 1_555 1_555
H6A C7A 1_555 1_555
C8A C7A 1_555 1_555
H7A C8A 1_555 1_555
C9A N1A 1_555 1_555
C10A N2A 1_555 1_555
C11A C10A 1_555 1_555
H8A C11A 1_555 1_555
C12A C11A 1_555 1_555
H9A C12A 1_555 1_555
C13A C12A 1_555 1_555
H10A C13A 1_555 1_555
C14A N3A 1_555 1_555
H11A C14A 1_555 1_555
H12A N2A 1_555 1_555
P1 O2 1_555 1_555
P1 O3 1_555 1_555
N3 C10 1_555 1_555
C1 C2 1_555 1_555
C8 C9 1_555 1_555
C13 C14 1_555 1_555
V1B O4A 1_555 1_555
P1A O2A 1_555 1_555
P1A O3A 1_555 1_555
P1A C2A 1_555 1_555
N3A C10A 1_555 1_555
C2A C3A 1_555 1_555
C8A C9A 1_555 1_555
C13A C14A 1_555 1_555

#END
