
#######################################################################
#
#                 Cambridge Crystallographic Data Centre
#                                CCDC 
#
#######################################################################
#
# If this CIF has been generated from an entry in the Cambridge 
# Structural Database, then it will include bibliographic, chemical, 
# crystal, experimental, refinement or atomic coordinate data resulting 
# from the CCDC's data processing and validation procedures.
#
#######################################################################

data_BURZEU
_symmetry_cell_setting           monoclinic
_symmetry_space_group_name_H-M   'P 21/n'
_symmetry_Int_Tables_number      14
_space_group_name_Hall           '-P 2yn'
loop_
_symmetry_equiv_pos_site_id
_symmetry_equiv_pos_as_xyz
1 x,y,z
2 1/2-x,1/2+y,1/2-z
3 -x,-y,-z
4 1/2+x,1/2-y,1/2+z
_cell_length_a                   10.9327(7)
_cell_length_b                   16.1475(10)
_cell_length_c                   11.8455(7)
_cell_angle_alpha                90
_cell_angle_beta                 104.3100(10)
_cell_angle_gamma                90
_cell_volume                     2026.27
loop_
_atom_site_label
_atom_site_type_symbol
_atom_site_fract_x
_atom_site_fract_y
_atom_site_fract_z
Cu1 Cu 0.95392(3) 0.70664(2) 0.51571(3)
V1 V 0.96099(4) 0.73662(3) 0.96406(4)
P1 P 1.01287(7) 0.82346(4) 0.74306(6)
P2 P 0.80261(7) 1.16693(4) 0.50545(6)
O1 O 0.95094(19) 0.75323(12) 0.66506(18)
O2 O 0.9679(2) 0.82068(12) 0.85830(18)
O3 O 1.15572(19) 0.82553(13) 0.77210(17)
O4 O 0.72747(19) 1.14832(13) 0.37912(18)
O5 O 0.90790(19) 1.22695(13) 0.51332(19)
O6 O 0.70398(19) 1.19562(13) 0.57089(18)
O7 O 0.9973(2) 0.77621(14) 1.09255(19)
O8 O 1.0619(2) 0.66370(14) 0.9581(2)
O9 O 0.8032(2) 0.78637(14) 0.4071(2)
N1 N 0.9694(2) 0.62751(15) 0.3886(2)
N2 N 0.8310(2) 0.61941(15) 0.5417(2)
C1 C 0.9546(3) 0.92018(17) 0.6760(2)
C2 C 1.0355(3) 0.98713(18) 0.6803(2)
H1 H 1.1224 0.9814 0.7183
C3 C 0.9901(3) 1.06292(17) 0.6291(2)
H2 H 1.0457 1.1087 0.6335
C4 C 0.8630(3) 1.07081(17) 0.5718(2)
C5 C 0.7816(3) 1.00292(18) 0.5657(2)
H3 H 0.6950 1.0080 0.5261
C6 C 0.8272(3) 0.92829(17) 0.6175(2)
H4 H 0.7718 0.8825 0.6133
C7 C 1.0372(3) 0.63460(19) 0.3102(3)
H5 H 1.0824 0.6845 0.3073
C8 C 1.0442(3) 0.5707(2) 0.2315(3)
H6 H 1.0929 0.5781 0.1760
C9 C 0.9810(3) 0.4979(2) 0.2346(3)
H7 H 0.9876 0.4539 0.1833
C10 C 0.9058(3) 0.48913(18) 0.3152(2)
C11 C 0.9030(3) 0.55601(18) 0.3898(2)
C12 C 0.8321(3) 0.41682(18) 0.3244(3)
H8 H 0.8363 0.3701 0.2768
C13 C 0.7568(3) 0.41413(19) 0.3995(3)
H9 H 0.7074 0.3662 0.4024
C14 C 0.7507(3) 0.48318(18) 0.4753(3)
C15 C 0.8265(3) 0.55262(17) 0.4712(2)
C16 C 0.6717(3) 0.48643(19) 0.5533(3)
H10 H 0.6178 0.4412 0.5588
C17 C 0.6736(3) 0.55557(19) 0.6210(3)
H11 H 0.6191 0.5592 0.6720
C18 C 0.7564(3) 0.62097(18) 0.6148(3)
H12 H 0.7590 0.6676 0.6642
H13 H 0.768(5) 1.156(3) 0.327(4)
H14 H 0.759(4) 0.751(3) 0.364(4)
H15 H 0.764(4) 0.808(3) 0.435(4)
Cu1B Cu 1.04608(3) 1.29336(2) 0.48429(3)
V1A V 0.53901(4) 1.23662(3) 0.53594(4)
O5B O 1.09210(19) 0.77305(13) 0.48668(19)
O6A O 0.79602(19) 0.69562(13) 0.92911(18)
loop_
_geom_bond_atom_site_label_1
_geom_bond_atom_site_label_2
_geom_bond_site_symmetry_1
_geom_bond_site_symmetry_2
Cu1 O1 1_555 1_555
V1 O2 1_555 1_555
P1 O1 1_555 1_555
P2 O4 1_555 1_555
O2 P1 1_555 1_555
O3 P1 1_555 1_555
O4 H13 1_555 1_555
O5 P2 1_555 1_555
O6 P2 1_555 1_555
O7 V1 1_555 1_555
O8 V1 1_555 1_555
O9 Cu1 1_555 1_555
N1 Cu1 1_555 1_555
N2 Cu1 1_555 1_555
C1 P1 1_555 1_555
C2 C1 1_555 1_555
H1 C2 1_555 1_555
C3 C2 1_555 1_555
H2 C3 1_555 1_555
C4 P2 1_555 1_555
C5 C4 1_555 1_555
H3 C5 1_555 1_555
C6 C1 1_555 1_555
H4 C6 1_555 1_555
C7 N1 1_555 1_555
H5 C7 1_555 1_555
C8 C7 1_555 1_555
H6 C8 1_555 1_555
C9 C8 1_555 1_555
H7 C9 1_555 1_555
C10 C9 1_555 1_555
C11 N1 1_555 1_555
C12 C10 1_555 1_555
H8 C12 1_555 1_555
C13 C12 1_555 1_555
H9 C13 1_555 1_555
C14 C13 1_555 1_555
C15 N2 1_555 1_555
C16 C14 1_555 1_555
H10 C16 1_555 1_555
C17 C16 1_555 1_555
H11 C17 1_555 1_555
C18 N2 1_555 1_555
H12 C18 1_555 1_555
H14 O9 1_555 1_555
H15 O9 1_555 1_555
Cu1B O5 1_555 1_555
V1A O6 1_555 1_555
O5B Cu1 1_555 1_555
O6A V1 1_555 1_555
C3 C4 1_555 1_555
C5 C6 1_555 1_555
C10 C11 1_555 1_555
C11 C15 1_555 1_555
C14 C15 1_555 1_555
C17 C18 1_555 1_555

#END
