
#######################################################################
#
#                 Cambridge Crystallographic Data Centre
#                                CCDC 
#
#######################################################################
#
# If this CIF has been generated from an entry in the Cambridge 
# Structural Database, then it will include bibliographic, chemical, 
# crystal, experimental, refinement or atomic coordinate data resulting 
# from the CCDC's data processing and validation procedures.
#
#######################################################################

data_BURZIY
_symmetry_cell_setting           monoclinic
_symmetry_space_group_name_H-M   'P 21/n'
_symmetry_Int_Tables_number      14
_space_group_name_Hall           '-P 2yn'
loop_
_symmetry_equiv_pos_site_id
_symmetry_equiv_pos_as_xyz
1 x,y,z
2 1/2-x,1/2+y,1/2-z
3 -x,-y,-z
4 1/2+x,1/2-y,1/2+z
_cell_length_a                   8.2372(6)
_cell_length_b                   16.1717(11)
_cell_length_c                   15.1183(10)
_cell_angle_alpha                90
_cell_angle_beta                 101.7140(10)
_cell_angle_gamma                90
_cell_volume                     1971.96
loop_
_atom_site_label
_atom_site_type_symbol
_atom_site_fract_x
_atom_site_fract_y
_atom_site_fract_z
Cu1 Cu 0.52395(4) 0.19944(2) 0.06317(2)
V1 V -0.04300(5) 0.23288(3) 0.17306(3)
P1 P 0.21388(9) 0.31798(4) 0.06978(5)
P2 P 0.52482(9) 0.68186(4) 0.12142(5)
O1 O 0.1298(2) 0.30657(12) -0.02875(13)
O2 O 0.3513(3) 0.25815(12) 0.10621(14)
O3 O 0.0795(3) 0.31350(12) 0.12910(14)
O4 O 0.4683(2) 0.72453(12) 0.20244(13)
O5 O 0.4623(3) 0.72803(12) 0.03544(13)
O6 O 0.7129(2) 0.67132(13) 0.14708(14)
H1 H 0.7537 0.6766 0.1008
O7 O -0.0230(3) 0.14359(13) 0.12983(15)
O8 O 0.7612(2) 0.25800(12) 0.14867(13)
N1 N 0.6463(3) 0.11013(15) 0.01124(16)
N2 N 0.5199(3) 0.11356(14) 0.15762(16)
C1 C 0.2953(3) 0.42136(16) 0.08526(18)
C2 C 0.4102(4) 0.44177(18) 0.16380(19)
H2 H 0.4434 0.4011 0.2092
C3 C 0.4761(4) 0.52103(17) 0.17606(19)
H3 H 0.5525 0.5345 0.2301
C4 C 0.4302(3) 0.58118(16) 0.10898(18)
C5 C 0.3155(4) 0.56111(18) 0.03061(19)
H4 H 0.2833 0.6016 -0.0151
C6 C 0.2482(4) 0.48195(18) 0.01936(19)
H5 H 0.1692 0.4690 -0.0339
C7 C 0.7072(4) 0.1114(2) -0.06347(19)
H6 H 0.6934 0.1597 -0.1000
C8 C 0.7915(4) 0.0435(2) -0.0899(2)
H7 H 0.8336 0.0461 -0.1438
C9 C 0.8132(4) -0.0266(2) -0.0383(2)
H8 H 0.8684 -0.0732 -0.0568
C10 C 0.7528(3) -0.02915(18) 0.0426(2)
C11 C 0.6693(3) 0.04164(17) 0.06383(19)
C12 C 0.7714(4) -0.09824(18) 0.1034(2)
H9 H 0.8279 -0.1463 0.0898
C13 C 0.7094(4) -0.09584(18) 0.1797(2)
H10 H 0.7252 -0.1420 0.2194
C14 C 0.6205(4) -0.02508(18) 0.2019(2)
C15 C 0.6019(3) 0.04331(17) 0.14359(19)
C16 C 0.5465(4) -0.01888(19) 0.2779(2)
H11 H 0.5551 -0.0633 0.3197
C17 C 0.4616(4) 0.0519(2) 0.2913(2)
H12 H 0.4100 0.0561 0.3418
C18 C 0.4516(4) 0.11751(19) 0.22999(19)
H13 H 0.3943 0.1664 0.2405
Cu1B Cu 0.47605(4) 0.80056(2) -0.06317(2)
V1A V 0.54300(5) 0.73288(3) 0.32694(3)
V1_2 V 0.95700(5) 0.23288(3) 0.17306(3)
O4A O 0.0317(2) 0.22453(12) 0.29756(13)
O5B O 0.5377(3) 0.27197(12) -0.03544(13)
O8_2 O -0.2388(2) 0.25800(12) 0.14867(13)
loop_
_geom_bond_atom_site_label_1
_geom_bond_atom_site_label_2
_geom_bond_site_symmetry_1
_geom_bond_site_symmetry_2
Cu1 O2 1_555 1_555
V1 O3 1_555 1_555
P1 O1 1_555 1_555
P2 O4 1_555 1_555
O2 P1 1_555 1_555
O3 P1 1_555 1_555
O4 V1A 1_555 1_555
O5 P2 1_555 1_555
O6 P2 1_555 1_555
H1 O6 1_555 1_555
O7 V1 1_555 1_555
O8 Cu1 1_555 1_555
N1 Cu1 1_555 1_555
N2 Cu1 1_555 1_555
C1 P1 1_555 1_555
C2 C1 1_555 1_555
H2 C2 1_555 1_555
C3 C2 1_555 1_555
H3 C3 1_555 1_555
C4 P2 1_555 1_555
C5 C4 1_555 1_555
H4 C5 1_555 1_555
C6 C1 1_555 1_555
H5 C6 1_555 1_555
C7 N1 1_555 1_555
H6 C7 1_555 1_555
C8 C7 1_555 1_555
H7 C8 1_555 1_555
C9 C8 1_555 1_555
H8 C9 1_555 1_555
C10 C9 1_555 1_555
C11 N1 1_555 1_555
C12 C10 1_555 1_555
H9 C12 1_555 1_555
C13 C12 1_555 1_555
H10 C13 1_555 1_555
C14 C13 1_555 1_555
C15 N2 1_555 1_555
C16 C14 1_555 1_555
H11 C16 1_555 1_555
C17 C16 1_555 1_555
H12 C17 1_555 1_555
C18 N2 1_555 1_555
H13 C18 1_555 1_555
Cu1B O5 1_555 1_555
V1_2 O8 1_555 1_555
O4A V1 1_555 1_555
O5B Cu1 1_555 1_555
O8_2 V1 1_555 1_555
C3 C4 1_555 1_555
C5 C6 1_555 1_555
C10 C11 1_555 1_555
C11 C15 1_555 1_555
C14 C15 1_555 1_555
C17 C18 1_555 1_555

#END
