
#######################################################################
#
#                 Cambridge Crystallographic Data Centre
#                                CCDC 
#
#######################################################################
#
# If this CIF has been generated from an entry in the Cambridge 
# Structural Database, then it will include bibliographic, chemical, 
# crystal, experimental, refinement or atomic coordinate data resulting 
# from the CCDC's data processing and validation procedures.
#
#######################################################################

data_BUSBOH
_symmetry_cell_setting           triclinic
_symmetry_space_group_name_H-M   'P -1'
_symmetry_Int_Tables_number      2
_space_group_name_Hall           '-P 1'
loop_
_symmetry_equiv_pos_site_id
_symmetry_equiv_pos_as_xyz
1 x,y,z
2 -x,-y,-z
_cell_length_a                   10.2667(11)
_cell_length_b                   10.3840(11)
_cell_length_c                   10.6223(11)
_cell_angle_alpha                99.967(2)
_cell_angle_beta                 92.781(2)
_cell_angle_gamma                101.734(2)
_cell_volume                     1087.91
loop_
_atom_site_label
_atom_site_type_symbol
_atom_site_fract_x
_atom_site_fract_y
_atom_site_fract_z
Cu1 Cu 0.65663(5) 0.13965(5) 0.55420(5)
V1 V 0.81294(7) 0.29873(7) 0.86988(7)
P1 P 0.57795(10) 0.38297(11) 0.72252(10)
P2 P 0.18333(10) 0.63009(10) 0.58023(10)
P3 P 0.12862(10) 0.38025(11) 0.99635(10)
O1 O 0.5451(3) 0.2625(3) 0.6137(3)
O2 O 0.6639(3) 0.5067(3) 0.6787(3)
O3 O 0.6389(3) 0.3551(3) 0.8453(3)
O4 O 0.1478(3) 0.5319(3) 0.4534(3)
O5 O 0.2794(3) 0.7585(3) 0.5754(3)
O6 O 0.0517(3) 0.6619(3) 0.6345(3)
O7 O 0.1153(3) 0.5038(3) 1.0890(3)
O8 O 0.2071(4) 0.2947(4) 1.0661(4)
O9 O -0.0022(3) 0.2930(3) 0.9349(3)
O10 O 0.8207(3) 0.2318(3) 0.7207(3)
O11 O 0.7468(3) 0.1827(3) 0.9465(3)
N1 N 0.5793(4) 0.0082(4) 0.6625(3)
N2 N 0.7476(4) -0.0060(3) 0.4877(4)
C1 C 0.4262(4) 0.4364(4) 0.7561(4)
C2 C 0.3759(4) 0.5110(4) 0.6754(4)
H1 H 0.4259 0.5381 0.6079
C3 C 0.2523(4) 0.5464(4) 0.6931(4)
C4 C 0.1803(4) 0.5067(4) 0.7925(4)
H2 H 0.0969 0.5309 0.8057
C5 C 0.2301(4) 0.4312(4) 0.8734(4)
C6 C 0.3530(4) 0.3974(4) 0.8551(4)
H3 H 0.3873 0.3473 0.9107
C7 C 0.4905(5) 0.0257(4) 0.7494(4)
H4 H 0.4490 0.1000 0.7533
C8 C 0.4578(5) -0.0620(5) 0.8336(4)
H5 H 0.3943 -0.0483 0.8940
C9 C 0.5188(5) -0.1691(5) 0.8280(5)
H6 H 0.4986 -0.2296 0.8855
C10 C 0.6097(5) -0.1880(5) 0.7381(5)
H7 H 0.6521 -0.2618 0.7329
C11 C 0.6380(4) -0.0971(4) 0.6552(4)
C12 C 0.7326(4) -0.1060(4) 0.5554(4)
C13 C 0.8023(5) -0.2086(5) 0.5289(5)
H8 H 0.7920 -0.2782 0.5774
C14 C 0.8861(5) -0.2076(5) 0.4314(5)
H9 H 0.9353 -0.2759 0.4135
C15 C 0.8985(5) -0.1075(5) 0.3597(5)
H10 H 0.9534 -0.1073 0.2903
C16 C 0.8284(5) -0.0072(5) 0.3922(5)
H11 H 0.8380 0.0634 0.3449
H12 H 0.726(7) 0.491(6) 0.639(6)
H13 H -0.005(6) 0.614(6) 0.615(6)
H14 H 0.184(11) 0.239(10) 1.052(11)
Cu1A Cu 0.34337(5) 0.86035(5) 0.44580(5)
V1A V 0.18706(7) 0.70127(7) 1.13012(7)
V1_2 V -0.18706(7) 0.29873(7) 0.86988(7)
O5A O 0.7206(3) 0.2415(3) 0.4246(3)
O7A O 0.8847(3) 0.4962(3) 0.9110(3)
O9_2 O 0.9978(3) 0.2930(3) 0.9349(3)
O12 O 0.8713(8) 0.9721(6) 0.9963(10)
O13 O -0.0458(14) 0.8567(14) 0.8108(13)
O14? O 0.0873(14) 0.8910(14) 0.8592(13)
loop_
_geom_bond_atom_site_label_1
_geom_bond_atom_site_label_2
_geom_bond_site_symmetry_1
_geom_bond_site_symmetry_2
Cu1 O1 1_555 1_555
V1 O3 1_555 1_555
P1 O1 1_555 1_555
P2 O4 1_555 1_555
P3 O7 1_555 1_555
O2 P1 1_555 1_555
O3 P1 1_555 1_555
O5 P2 1_555 1_555
O6 P2 1_555 1_555
O7 V1A 1_555 1_555
O8 P3 1_555 1_555
O9 P3 1_555 1_555
O10 Cu1 1_555 1_555
O11 V1 1_555 1_555
N1 Cu1 1_555 1_555
N2 Cu1 1_555 1_555
C1 P1 1_555 1_555
C2 C1 1_555 1_555
H1 C2 1_555 1_555
C3 P2 1_555 1_555
C4 C3 1_555 1_555
H2 C4 1_555 1_555
C5 P3 1_555 1_555
C6 C1 1_555 1_555
H3 C6 1_555 1_555
C7 N1 1_555 1_555
H4 C7 1_555 1_555
C8 C7 1_555 1_555
H5 C8 1_555 1_555
C9 C8 1_555 1_555
H6 C9 1_555 1_555
C10 C9 1_555 1_555
H7 C10 1_555 1_555
C11 N1 1_555 1_555
C12 N2 1_555 1_555
C13 C12 1_555 1_555
H8 C13 1_555 1_555
C14 C13 1_555 1_555
H9 C14 1_555 1_555
C15 C14 1_555 1_555
H10 C15 1_555 1_555
C16 N2 1_555 1_555
H11 C16 1_555 1_555
H12 O2 1_555 1_555
H13 O6 1_555 1_555
H14 O8 1_555 1_555
Cu1A O5 1_555 1_555
V1_2 O9 1_555 1_555
O5A Cu1 1_555 1_555
O7A V1 1_555 1_555
O9_2 V1 1_555 1_555
V1 O10 1_555 1_555
C2 C3 1_555 1_555
C4 C5 1_555 1_555
C5 C6 1_555 1_555
C10 C11 1_555 1_555
C11 C12 1_555 1_555
C15 C16 1_555 1_555

#END
