
#######################################################################
#
#                 Cambridge Crystallographic Data Centre
#                                CCDC 
#
#######################################################################
#
# If this CIF has been generated from an entry in the Cambridge 
# Structural Database, then it will include bibliographic, chemical, 
# crystal, experimental, refinement or atomic coordinate data resulting 
# from the CCDC's data processing and validation procedures.
#
#######################################################################

data_BUSBIB
_symmetry_cell_setting           monoclinic
_symmetry_space_group_name_H-M   'P 21/n'
_symmetry_Int_Tables_number      14
_space_group_name_Hall           '-P 2yn'
loop_
_symmetry_equiv_pos_site_id
_symmetry_equiv_pos_as_xyz
1 x,y,z
2 1/2-x,1/2+y,1/2-z
3 -x,-y,-z
4 1/2+x,1/2-y,1/2+z
_cell_length_a                   10.893(2)
_cell_length_b                   8.7599(18)
_cell_length_c                   16.069(3)
_cell_angle_alpha                90
_cell_angle_beta                 90.38(3)
_cell_angle_gamma                90
_cell_volume                     1533.3
loop_
_atom_site_label
_atom_site_type_symbol
_atom_site_fract_x
_atom_site_fract_y
_atom_site_fract_z
Cu1 Cu 0.52340(3) 0.29957(4) 0.16124(2)
V1 V 0.82043(5) 0.51195(6) 0.22571(3)
P1 P 0.61278(7) 0.33347(9) 0.34012(4)
F1 F 0.67956(17) 0.4794(2) 0.15862(11)
O1 O 0.50839(19) 0.3488(3) 0.27727(12)
O2 O 0.6440(2) 0.1674(2) 0.36250(13)
O3 O 0.7276(2) 0.4186(3) 0.31473(13)
O4 O 0.9186(2) 0.3835(3) 0.20385(15)
O5 O 0.6163(3) 0.1288(4) 0.20257(15)
N1 N 0.5482(2) 0.2334(3) 0.04479(15)
N2 N 0.3740(2) 0.4210(3) 0.13344(16)
N3 N 0.3795(3) 0.3702(3) -0.01136(16)
H1 H 0.3442 0.3936 -0.0576
C1 C 0.5352(3) 0.3479(3) 0.50731(18)
H2 H 0.5588 0.2463 0.5123
C2 C 0.5536(3) 0.4252(3) 0.43224(17)
C3 C 0.5182(3) 0.5784(3) 0.42584(18)
H3 H 0.5305 0.6310 0.3763
C4 C 0.6440(3) 0.1373(4) 0.0298(2)
H4 H 0.6921 0.1064 0.0747
C5 C 0.6734(3) 0.0838(4) -0.0477(2)
H5 H 0.7404 0.0196 -0.0552
C6 C 0.5996(3) 0.1284(4) -0.1154(2)
H6 H 0.6167 0.0940 -0.1688
C7 C 0.5027(3) 0.2230(4) -0.1015(2)
H7 H 0.4525 0.2530 -0.1456
C8 C 0.4787(3) 0.2752(3) -0.02048(19)
C9 C 0.3258(3) 0.4349(4) 0.05655(19)
C10 C 0.2171(3) 0.5180(4) 0.0418(2)
H8 H 0.1859 0.5275 -0.0120
C11 C 0.1582(3) 0.5840(4) 0.1065(2)
H9 H 0.0854 0.6373 0.0976
C12 C 0.2071(3) 0.5716(4) 0.1863(2)
H10 H 0.1682 0.6166 0.2314
C13 C 0.3136(3) 0.4916(4) 0.1967(2)
H11 H 0.3469 0.4849 0.2500
Cu1B Cu 0.47660(3) 0.70043(4) 0.83876(2)
Cu1A Cu 0.97660(3) 0.79957(4) 0.33876(2)
V1A V 0.67957(5) 0.01195(6) 0.27429(3)
V1C V 0.32043(5) 0.98805(6) 0.72571(3)
V1B V 0.17957(5) 0.48805(6) 0.77429(3)
P1B P 0.38722(7) 0.66653(9) 0.65988(4)
F1B F 0.32044(17) 0.5206(2) 0.84138(11)
F1A F 0.82044(17) -0.0206(2) 0.34138(11)
O1B O 0.49161(19) 0.6512(3) 0.72273(12)
O2B O 0.3560(2) 0.8326(2) 0.63750(13)
O2A O 0.8560(2) 0.6674(2) 0.13750(13)
O3B O 0.2724(2) 0.5814(3) 0.68527(13)
O3A O 0.7724(2) -0.0814(3) 0.18527(13)
O4A O 0.5814(2) -0.1165(3) 0.29615(15)
O5A O 0.8837(3) 0.6288(4) 0.29743(15)
O5B O 0.3837(3) 0.8712(4) 0.79743(15)
N1B N 0.4518(2) 0.7666(3) 0.95521(15)
N2B N 0.6260(2) 0.5790(3) 0.86656(16)
N3B N 0.6205(3) 0.6298(3) 1.01136(16)
H1B H 0.6558 0.6064 1.0576
C1B C 0.4648(3) 0.6521(3) 0.49269(18)
H2B H 0.4412 0.7537 0.4877
C2B C 0.4464(3) 0.5748(3) 0.56776(17)
C3B C 0.4818(3) 0.4216(3) 0.57416(18)
H3B H 0.4695 0.3690 0.6237
C4B C 0.3560(3) 0.8627(4) 0.9702(2)
H4B H 0.3079 0.8936 0.9253
C5B C 0.3266(3) 0.9162(4) 1.0477(2)
H5B H 0.2596 0.9804 1.0552
C6B C 0.4004(3) 0.8716(4) 1.1154(2)
H6B H 0.3833 0.9060 1.1688
C7B C 0.4973(3) 0.7770(4) 1.1015(2)
H7B H 0.5475 0.7470 1.1456
C8B C 0.5213(3) 0.7248(3) 1.02048(19)
C9B C 0.6742(3) 0.5651(4) 0.94345(19)
C10B C 0.7829(3) 0.4820(4) 0.9582(2)
H8B H 0.8141 0.4725 1.0120
C11B C 0.8418(3) 0.4160(4) 0.8935(2)
H9B H 0.9146 0.3627 0.9024
C12B C 0.7929(3) 0.4284(4) 0.8137(2)
H10B H 0.8318 0.3834 0.7686
C13B C 0.6864(3) 0.5084(4) 0.8033(2)
H11B H 0.6531 0.5151 0.7500
loop_
_geom_bond_atom_site_label_1
_geom_bond_atom_site_label_2
_geom_bond_site_symmetry_1
_geom_bond_site_symmetry_2
Cu1 F1 1_555 1_555
V1 F1 1_555 1_555
P1 O1 1_555 1_555
O1 Cu1 1_555 1_555
O2 P1 1_555 1_555
O3 V1 1_555 1_555
O4 V1 1_555 1_555
O5 Cu1 1_555 1_555
N1 Cu1 1_555 1_555
N2 Cu1 1_555 1_555
N3 H1 1_555 1_555
C1 H2 1_555 1_555
C2 P1 1_555 1_555
C3 C2 1_555 1_555
H3 C3 1_555 1_555
C4 N1 1_555 1_555
H4 C4 1_555 1_555
C5 C4 1_555 1_555
H5 C5 1_555 1_555
C6 C5 1_555 1_555
H6 C6 1_555 1_555
C7 C6 1_555 1_555
H7 C7 1_555 1_555
C8 N1 1_555 1_555
C9 N2 1_555 1_555
C10 C9 1_555 1_555
H8 C10 1_555 1_555
C11 C10 1_555 1_555
H9 C11 1_555 1_555
C12 C11 1_555 1_555
H10 C12 1_555 1_555
C13 N2 1_555 1_555
H11 C13 1_555 1_555
Cu1B F1B 1_555 1_555
Cu1A O5A 1_555 1_555
V1A O2 1_555 1_555
V1C O2B 1_555 1_555
V1B F1B 1_555 1_555
P1B O1B 1_555 1_555
F1A V1A 1_555 1_555
O1B Cu1B 1_555 1_555
O2B P1B 1_555 1_555
O2A V1 1_555 1_555
O3B V1B 1_555 1_555
O3A V1A 1_555 1_555
O4A V1A 1_555 1_555
O5A V1 1_555 1_555
O5B Cu1B 1_555 1_555
N1B Cu1B 1_555 1_555
N2B Cu1B 1_555 1_555
N3B H1B 1_555 1_555
C1B C3 1_555 1_555
H2B C1B 1_555 1_555
C2B P1B 1_555 1_555
C3B C1 1_555 1_555
H3B C3B 1_555 1_555
C4B N1B 1_555 1_555
H4B C4B 1_555 1_555
C5B C4B 1_555 1_555
H5B C5B 1_555 1_555
C6B C5B 1_555 1_555
H6B C6B 1_555 1_555
C7B C6B 1_555 1_555
H7B C7B 1_555 1_555
C8B N1B 1_555 1_555
C9B N2B 1_555 1_555
C10B C9B 1_555 1_555
H8B C10B 1_555 1_555
C11B C10B 1_555 1_555
H9B C11B 1_555 1_555
C12B C11B 1_555 1_555
H10B C12B 1_555 1_555
C13B N2B 1_555 1_555
H11B C13B 1_555 1_555
P1 O3 1_555 1_555
O5 V1A 1_555 1_555
N3 C8 1_555 1_555
N3 C9 1_555 1_555
C1 C2 1_555 1_555
C7 C8 1_555 1_555
C12 C13 1_555 1_555
V1C O5B 1_555 1_555
P1B O3B 1_555 1_555
N3B C8B 1_555 1_555
N3B C9B 1_555 1_555
C1B C2B 1_555 1_555
C2B C3B 1_555 1_555
C7B C8B 1_555 1_555
C12B C13B 1_555 1_555

#END
