
#######################################################################
#
#                 Cambridge Crystallographic Data Centre
#                                CCDC 
#
#######################################################################
#
# If this CIF has been generated from an entry in the Cambridge 
# Structural Database, then it will include bibliographic, chemical, 
# crystal, experimental, refinement or atomic coordinate data resulting 
# from the CCDC's data processing and validation procedures.
#
#######################################################################

data_BUSCOI
_symmetry_cell_setting           triclinic
_symmetry_space_group_name_H-M   'P -1'
_symmetry_Int_Tables_number      2
_space_group_name_Hall           '-P 1'
loop_
_symmetry_equiv_pos_site_id
_symmetry_equiv_pos_as_xyz
1 x,y,z
2 -x,-y,-z
_cell_length_a                   10.114(2)
_cell_length_b                   10.753(2)
_cell_length_c                   11.130(2)
_cell_angle_alpha                114.17(3)
_cell_angle_beta                 105.57(3)
_cell_angle_gamma                104.01(3)
_cell_volume                     974.762
loop_
_atom_site_label
_atom_site_type_symbol
_atom_site_fract_x
_atom_site_fract_y
_atom_site_fract_z
Cu1 Cu 0.32964(3) 1.03078(3) 0.63871(3)
P1 P 0.37230(6) 0.79014(6) 0.38268(6)
P2 P -0.12859(6) 0.25476(6) 0.10277(6)
P3 P 0.43751(6) 0.25250(6) 0.20176(6)
O1 O 0.37265(17) 0.85962(17) 0.53234(17)
O2 O 0.26335(19) 0.83265(19) 0.2932(2)
O3 O 0.52366(17) 0.82871(17) 0.37879(18)
O4 O -0.1666(2) 0.3360(2) 0.2314(2)
O5 O -0.21487(19) 0.2580(2) -0.02796(18)
O6 O -0.1418(2) 0.0998(2) 0.0752(2)
O7 O 0.59514(18) 0.35312(19) 0.2492(2)
O8 O 0.36576(18) 0.12553(18) 0.04510(18)
O9 O 0.4181(2) 0.1897(2) 0.3041(2)
O10 O 0.4765(2) 1.0623(2) 0.8415(2)
N1 N 0.2640(2) 1.1895(2) 0.7395(2)
N2 N 0.1275(2) 0.9021(2) 0.6064(2)
C1 C 0.2897(2) 0.5900(2) 0.2997(2)
C2 C 0.1346(2) 0.5116(2) 0.2412(2)
H1 H 0.0729 0.5634 0.2474
C3 C 0.0707(2) 0.3560(2) 0.1732(2)
C4 C 0.1647(2) 0.2790(2) 0.1611(2)
H2 H 0.1232 0.1757 0.1132
C5 C 0.3201(2) 0.3557(2) 0.2203(2)
C6 C 0.3813(2) 0.5105(2) 0.2912(2)
H3 H 0.4847 0.5621 0.3337
C7 C 0.3472(3) 1.3364(3) 0.8132(3)
H4 H 0.4393 1.3698 0.8099
C8 C 0.3015(3) 1.4400(3) 0.8938(3)
H5 H 0.3601 1.5413 0.9409
C9 C 0.1673(3) 1.3902(3) 0.9029(3)
H6 H 0.1354 1.4575 0.9584
C10 C 0.0809(3) 1.2389(3) 0.8286(3)
H7 H -0.0094 1.2034 0.8342
C11 C 0.1307(3) 1.1407(3) 0.7453(2)
C12 C 0.0474(2) 0.9779(3) 0.6596(2)
C13 C -0.0997(3) 0.9056(3) 0.6338(3)
H8 H -0.1532 0.9594 0.6696
C14 C -0.1650(3) 0.7514(3) 0.5534(3)
H9 H -0.2639 0.7005 0.5333
C15 C -0.0823(3) 0.6733(3) 0.5031(3)
H10 H -0.1239 0.5699 0.4508
C16 C 0.0644(3) 0.7534(3) 0.5327(3)
H11 H 0.1206 0.7015 0.5001
H12 H 0.250(4) 0.802(4) 0.219(4)
H13 H -0.241(5) 0.324(5) 0.218(5)
H14 H -0.227(5) 0.018(5) 0.027(5)
H15 H 0.480(4) 0.165(4) 0.338(4)
H16 H 0.448(4) 1.080(4) 0.899(4)
H17 H 0.550(5) 1.110(4) 0.868(4)
Cu1A Cu 0.67036(3) 0.96922(3) 0.36129(3)
O3A O 0.47634(17) 1.17129(17) 0.62121(18)
loop_
_geom_bond_atom_site_label_1
_geom_bond_atom_site_label_2
_geom_bond_site_symmetry_1
_geom_bond_site_symmetry_2
Cu1 O1 1_555 1_555
P1 O1 1_555 1_555
P2 O4 1_555 1_555
P3 O7 1_555 1_555
O2 P1 1_555 1_555
O3 P1 1_555 1_555
O4 H13 1_555 1_555
O5 P2 1_555 1_555
O6 P2 1_555 1_555
O8 P3 1_555 1_555
O9 P3 1_555 1_555
O10 Cu1 1_555 1_555
N1 Cu1 1_555 1_555
N2 Cu1 1_555 1_555
C1 P1 1_555 1_555
C2 C1 1_555 1_555
H1 C2 1_555 1_555
C3 P2 1_555 1_555
C4 C3 1_555 1_555
H2 C4 1_555 1_555
C5 P3 1_555 1_555
C6 C1 1_555 1_555
H3 C6 1_555 1_555
C7 N1 1_555 1_555
H4 C7 1_555 1_555
C8 C7 1_555 1_555
H5 C8 1_555 1_555
C9 C8 1_555 1_555
H6 C9 1_555 1_555
C10 C9 1_555 1_555
H7 C10 1_555 1_555
C11 N1 1_555 1_555
C12 N2 1_555 1_555
C13 C12 1_555 1_555
H8 C13 1_555 1_555
C14 C13 1_555 1_555
H9 C14 1_555 1_555
C15 C14 1_555 1_555
H10 C15 1_555 1_555
C16 N2 1_555 1_555
H11 C16 1_555 1_555
H12 O2 1_555 1_555
H14 O6 1_555 1_555
H15 O9 1_555 1_555
H16 O10 1_555 1_555
H17 O10 1_555 1_555
Cu1A O3 1_555 1_555
O3A Cu1 1_555 1_555
C2 C3 1_555 1_555
C4 C5 1_555 1_555
C5 C6 1_555 1_555
C10 C11 1_555 1_555
C11 C12 1_555 1_555
C15 C16 1_555 1_555

#END
