
#######################################################################
#
#                 Cambridge Crystallographic Data Centre
#                                CCDC 
#
#######################################################################
#
# If this CIF has been generated from an entry in the Cambridge 
# Structural Database, then it will include bibliographic, chemical, 
# crystal, experimental, refinement or atomic coordinate data resulting 
# from the CCDC's data processing and validation procedures.
#
#######################################################################

data_BUSCEY
_symmetry_cell_setting           triclinic
_symmetry_space_group_name_H-M   'P -1'
_symmetry_Int_Tables_number      2
_space_group_name_Hall           '-P 1'
loop_
_symmetry_equiv_pos_site_id
_symmetry_equiv_pos_as_xyz
1 x,y,z
2 -x,-y,-z
_cell_length_a                   6.4769(7)
_cell_length_b                   8.4915(9)
_cell_length_c                   18.798(2)
_cell_angle_alpha                92.437(2)
_cell_angle_beta                 98.233(2)
_cell_angle_gamma                92.697(2)
_cell_volume                     1020.81
loop_
_atom_site_label
_atom_site_type_symbol
_atom_site_fract_x
_atom_site_fract_y
_atom_site_fract_z
Cu1 Cu 0.5000 0.0000 1.0000
Cu2 Cu 0.5000 0.5000 0.5000
P1 P 0.71288(10) 0.03863(7) 0.83109(3)
P2 P 0.76016(10) 0.58931(7) 0.68682(3)
N1 N 0.5328(3) 0.2104(2) 1.05011(11)
N2 N 0.4709(3) 0.7108(2) 0.46228(11)
O1 O 0.4970(3) 0.0091(2) 0.79200(10)
O2 O 0.7075(3) 0.1133(2) 0.90719(10)
O3 O 0.8398(3) -0.1133(2) 0.84096(10)
O4 O 0.7589(3) 0.5925(2) 0.60409(10)
O5 O 0.8869(3) 0.7296(2) 0.72478(10)
O6 O 0.5331(3) 0.5708(2) 0.70125(11)
O7 O 0.2260(3) 0.0728(2) 0.95999(9)
O8 O 0.0149(3) 0.2694(2) 0.97345(10)
O9 O 0.2484(3) 0.5535(2) 0.54376(10)
O10 O 0.0150(3) 0.7410(2) 0.54250(10)
C1 C 0.8719(4) 0.4103(3) 0.71641(13)
C2 C 0.7655(4) 0.3069(3) 0.75600(13)
H1 H 0.6278 0.3276 0.7642
C3 C 0.8590(4) 0.1730(3) 0.78381(13)
C4 C 1.0624(4) 0.1464(3) 0.77313(14)
H2 H 1.1301 0.0587 0.7936
C5 C 1.1675(4) 0.2475(3) 0.73263(14)
H3 H 1.3056 0.2267 0.7248
C6 C 1.0735(4) 0.3787(3) 0.70341(14)
H4 H 1.1454 0.4460 0.6749
C7 C 0.7013(4) 0.2757(3) 1.09228(13)
H5 H 0.8222 0.2165 1.1023
C8 C 0.7027(4) 0.4294(3) 1.12192(14)
H6 H 0.8241 0.4752 1.1513
C9 C 0.5258(4) 0.5141(3) 1.10803(14)
H7 H 0.5247 0.6189 1.1277
C10 C 0.3485(4) 0.4448(3) 1.06500(13)
H8 H 0.2242 0.5001 1.0555
C11 C 0.3601(4) 0.2930(3) 1.03667(13)
C12 C 0.1856(4) 0.2058(3) 0.98654(13)
C13 C 0.5951(4) 0.7856(3) 0.42231(14)
H9 H 0.7229 0.7417 0.4147
C14 C 0.5405(5) 0.9272(3) 0.39147(14)
H10 H 0.6319 0.9809 0.3642
C15 C 0.3523(5) 0.9881(3) 0.40104(15)
H11 H 0.3103 1.0820 0.3787
C16 C 0.2247(4) 0.9115(3) 0.44350(14)
H12 H 0.0955 0.9525 0.4514
C17 C 0.2910(4) 0.7735(3) 0.47395(13)
C18 C 0.1739(4) 0.6820(3) 0.52371(13)
H13 H 0.803(7) 0.154(5) 0.926(2)
H14 H 0.864(9) 0.631(7) 0.587(3)
Cu2_2 Cu 0.5000 -0.5000 1.5000
P1A P 0.28712(10) -0.03863(7) 1.16891(3)
P2A P 0.23984(10) -0.58931(7) 1.31318(3)
N1A N 0.4672(3) -0.2104(2) 0.94989(11)
N2A N 0.5291(3) 0.2892(2) 0.53772(11)
O1A O 0.5030(3) -0.0091(2) 1.20800(10)
O2A O 0.2925(3) -0.1133(2) 1.09281(10)
O3A O 0.1602(3) 0.1133(2) 1.15904(10)
O4A O 0.2411(3) -0.5925(2) 1.39591(10)
O4A_2 O 0.2411(3) 0.4075(2) 0.39591(10)
O5A O 0.1131(3) -0.7296(2) 1.27522(10)
O6A O 0.4669(3) -0.5708(2) 1.29875(11)
O7A O 0.7740(3) -0.0728(2) 1.04001(9)
O8A O 0.9851(3) -0.2694(2) 1.02655(10)
O9A O 0.7516(3) 0.4465(2) 0.45624(10)
O10A O 0.9850(3) 0.2590(2) 0.45750(10)
C1A C 0.1281(4) -0.4103(3) 1.28359(13)
C2A C 0.2345(4) -0.3069(3) 1.24400(13)
H1A H 0.3722 -0.3276 1.2358
C3A C 0.1410(4) -0.1730(3) 1.21619(13)
C4A C -0.0624(4) -0.1464(3) 1.22687(14)
H2A H -0.1301 -0.0587 1.2064
C5A C -0.1675(4) -0.2475(3) 1.26737(14)
H3A H -0.3056 -0.2267 1.2752
C6A C -0.0735(4) -0.3787(3) 1.29659(14)
H4A H -0.1454 -0.4460 1.3251
C7A C 0.2987(4) -0.2757(3) 0.90772(13)
H5A H 0.1778 -0.2165 0.8977
C8A C 0.2973(4) -0.4294(3) 0.87808(14)
H6A H 0.1759 -0.4752 0.8487
C9A C 0.4742(4) -0.5141(3) 0.89197(14)
H7A H 0.4753 -0.6189 0.8723
C10A C 0.6515(4) -0.4448(3) 0.93500(13)
H8A H 0.7758 -0.5001 0.9445
C11A C 0.6399(4) -0.2930(3) 0.96333(13)
C12A C 0.8144(4) -0.2058(3) 1.01346(13)
C13A C 0.4049(4) 0.2144(3) 0.57769(14)
H9A H 0.2771 0.2583 0.5853
C14A C 0.4595(5) 0.0728(3) 0.60853(14)
H10A H 0.3681 0.0191 0.6358
C15A C 0.6477(5) 0.0119(3) 0.59896(15)
H11A H 0.6897 -0.0820 0.6213
C16A C 0.7753(4) 0.0885(3) 0.55650(14)
H12A H 0.9045 0.0475 0.5486
C17A C 0.7090(4) 0.2265(3) 0.52605(13)
C18A C 0.8261(4) 0.3180(3) 0.47629(13)
H13A H 0.197(7) -0.154(5) 1.074(2)
H14A H 0.136(9) -0.631(7) 1.413(3)
H14A_2 H 0.136(9) 0.369(7) 0.413(3)
O11 O 0.2998(3) 0.7882(2) 0.70711(11)
loop_
_geom_bond_atom_site_label_1
_geom_bond_atom_site_label_2
_geom_bond_site_symmetry_1
_geom_bond_site_symmetry_2
Cu1 N1 1_555 1_555
Cu2 N2 1_555 1_555
P1 O1 1_555 1_555
P2 O4 1_555 1_555
N1 C7 1_555 1_555
N2 C13 1_555 1_555
O2 Cu1 1_555 1_555
O3 P1 1_555 1_555
O4 Cu2 1_555 1_555
O5 P2 1_555 1_555
O6 P2 1_555 1_555
O7 Cu1 1_555 1_555
O8 C12 1_555 1_555
O9 Cu2 1_555 1_555
O10 C18 1_555 1_555
C1 P2 1_555 1_555
C2 C1 1_555 1_555
H1 C2 1_555 1_555
C3 P1 1_555 1_555
C4 C3 1_555 1_555
H2 C4 1_555 1_555
C5 C4 1_555 1_555
H3 C5 1_555 1_555
C6 C1 1_555 1_555
H4 C6 1_555 1_555
C7 H5 1_555 1_555
C8 C7 1_555 1_555
H6 C8 1_555 1_555
C9 C8 1_555 1_555
H7 C9 1_555 1_555
C10 C9 1_555 1_555
H8 C10 1_555 1_555
C11 N1 1_555 1_555
C12 O7 1_555 1_555
C13 H9 1_555 1_555
C14 C13 1_555 1_555
H10 C14 1_555 1_555
C15 C14 1_555 1_555
H11 C15 1_555 1_555
C16 C15 1_555 1_555
H12 C16 1_555 1_555
C17 N2 1_555 1_555
C18 O9 1_555 1_555
H13 O2 1_555 1_555
H14 O4 1_555 1_555
Cu2_2 O4A 1_555 1_555
P1A O1A 1_555 1_555
P2A O4A 1_555 1_555
N1A Cu1 1_555 1_555
N2A Cu2 1_555 1_555
O2A Cu1 1_555 1_555
O3A P1A 1_555 1_555
O4A H14A 1_555 1_555
O4A_2 Cu2 1_555 1_555
O5A P2A 1_555 1_555
O6A P2A 1_555 1_555
O7A Cu1 1_555 1_555
O8A C12A 1_555 1_555
O9A Cu2 1_555 1_555
O10A C18A 1_555 1_555
C1A P2A 1_555 1_555
C2A C1A 1_555 1_555
H1A C2A 1_555 1_555
C3A P1A 1_555 1_555
C4A C3A 1_555 1_555
H2A C4A 1_555 1_555
C5A C4A 1_555 1_555
H3A C5A 1_555 1_555
C6A C1A 1_555 1_555
H4A C6A 1_555 1_555
C7A N1A 1_555 1_555
H5A C7A 1_555 1_555
C8A C7A 1_555 1_555
H6A C8A 1_555 1_555
C9A C8A 1_555 1_555
H7A C9A 1_555 1_555
C10A C9A 1_555 1_555
H8A C10A 1_555 1_555
C11A N1A 1_555 1_555
C12A O7A 1_555 1_555
C13A N2A 1_555 1_555
H9A C13A 1_555 1_555
C14A C13A 1_555 1_555
H10A C14A 1_555 1_555
C15A C14A 1_555 1_555
H11A C15A 1_555 1_555
C16A C15A 1_555 1_555
H12A C16A 1_555 1_555
C17A N2A 1_555 1_555
C18A O9A 1_555 1_555
H13A O2A 1_555 1_555
H14A_2 O4A_2 1_555 1_555
P1 O2 1_555 1_555
C2 C3 1_555 1_555
C5 C6 1_555 1_555
C10 C11 1_555 1_555
C11 C12 1_555 1_555
C16 C17 1_555 1_555
C17 C18 1_555 1_555
P1A O2A 1_555 1_555
C2A C3A 1_555 1_555
C5A C6A 1_555 1_555
C10A C11A 1_555 1_555
C11A C12A 1_555 1_555
C16A C17A 1_555 1_555
C17A C18A 1_555 1_555

#END
