
#######################################################################
#
#                 Cambridge Crystallographic Data Centre
#                                CCDC 
#
#######################################################################
#
# If this CIF has been generated from an entry in the Cambridge 
# Structural Database, then it will include bibliographic, chemical, 
# crystal, experimental, refinement or atomic coordinate data resulting 
# from the CCDC's data processing and validation procedures.
#
#######################################################################

data_BUSDAV
_symmetry_cell_setting           monoclinic
_symmetry_space_group_name_H-M   'P 21/n'
_symmetry_Int_Tables_number      14
_space_group_name_Hall           '-P 2yn'
loop_
_symmetry_equiv_pos_site_id
_symmetry_equiv_pos_as_xyz
1 x,y,z
2 1/2-x,1/2+y,1/2-z
3 -x,-y,-z
4 1/2+x,1/2-y,1/2+z
_cell_length_a                   7.3298(7)
_cell_length_b                   16.0346(14)
_cell_length_c                   18.8682(17)
_cell_angle_alpha                90
_cell_angle_beta                 98.239(2)
_cell_angle_gamma                90
_cell_volume                     2194.7
loop_
_atom_site_label
_atom_site_type_symbol
_atom_site_fract_x
_atom_site_fract_y
_atom_site_fract_z
Cu1 Cu 0.21464(10) 0.30750(4) 0.10100(4)
P1 P 0.1139(2) 0.30482(9) 0.25651(7)
P2 P 0.1142(2) -0.02263(9) 0.34018(8)
P3 P 0.1974(2) 0.22429(9) 0.54737(7)
O1 O 0.2402(6) 0.2802(2) 0.2032(2)
O2 O 0.1468(6) 0.3906(2) 0.2890(2)
O3 O -0.0933(6) 0.2959(3) 0.2218(2)
H1 H -0.0995 0.2933 0.1770
O4 O -0.0765(6) -0.0523(3) 0.3541(3)
H2 H -0.0654 -0.0969 0.3778
O5 O 0.2699(6) -0.0714(2) 0.3814(2)
O6 O 0.1157(6) -0.0225(3) 0.2585(2)
H3 H 0.2062 -0.0503 0.2489
O7 O 0.3823(6) 0.1982(3) 0.5858(2)
O8 O 0.0428(6) 0.1849(3) 0.5819(2)
O9 O 0.1704(7) 0.3213(3) 0.5434(2)
H4 H 0.2021 0.3420 0.5842
N1 N 0.2272(7) 0.1861(3) 0.0730(2)
N2 N 0.1714(7) 0.3239(3) -0.0050(3)
C1 C 0.1352(8) 0.2297(4) 0.3283(3)
C2 C 0.1205(8) 0.1457(3) 0.3108(3)
H5 H 0.1040 0.1291 0.2619
C3 C 0.1298(8) 0.0854(3) 0.3645(3)
C4 C 0.1524(8) 0.1105(3) 0.4358(3)
H6 H 0.1572 0.0698 0.4725
C5 C 0.1683(8) 0.1957(3) 0.4543(3)
C6 C 0.1596(8) 0.2552(3) 0.3998(3)
H7 H 0.1702 0.3128 0.4113
C7 C 0.2609(8) 0.1194(4) 0.1137(3)
H8 H 0.2826 0.1260 0.1643
C8 C 0.2654(10) 0.0393(4) 0.0848(3)
H9 H 0.2906 -0.0075 0.1155
C9 C 0.2337(10) 0.0284(4) 0.0122(4)
H10 H 0.2357 -0.0259 -0.0077
C10 C 0.1980(9) 0.0984(4) -0.0330(3)
C11 C 0.1980(8) 0.1765(4) 0.0002(3)
C12 C 0.1613(10) 0.0947(4) -0.1098(4)
H11 H 0.1577 0.0419 -0.1330
C13 C 0.1318(9) 0.1643(5) -0.1496(3)
H12 H 0.1091 0.1598 -0.2004
C14 C 0.1341(8) 0.2461(4) -0.1166(3)
C15 C 0.1682(7) 0.2511(4) -0.0412(3)
C16 C 0.1036(9) 0.3217(5) -0.1540(3)
H13 H 0.0822 0.3219 -0.2048
C17 C 0.1049(9) 0.3950(4) -0.1167(3)
H14 H 0.0827 0.4465 -0.1414
C18 C 0.1391(8) 0.3936(4) -0.0421(3)
H15 H 0.1391 0.4449 -0.0168
Cu1A Cu 0.28536(10) -0.19250(4) 0.39900(4)
Cu1C Cu 0.71464(10) 0.19250(4) 0.60100(4)
Cu1C_2 Cu -0.28536(10) 0.19250(4) 0.60100(4)
O5A O 0.2301(6) 0.4286(2) 0.1186(2)
O7C O -0.1177(6) 0.3018(3) 0.0858(2)
O8C O 0.5428(6) 0.3151(3) 0.0819(2)
O10 O 0.8566(7) 0.5000(3) 0.2578(2)
O11 O 0.2617(9) 0.3790(4) 0.6701(3)
loop_
_geom_bond_atom_site_label_1
_geom_bond_atom_site_label_2
_geom_bond_site_symmetry_1
_geom_bond_site_symmetry_2
Cu1 O1 1_555 1_555
P1 O1 1_555 1_555
P2 O4 1_555 1_555
P3 O7 1_555 1_555
O2 P1 1_555 1_555
O3 P1 1_555 1_555
H1 O3 1_555 1_555
O4 H2 1_555 1_555
O5 P2 1_555 1_555
O6 P2 1_555 1_555
H3 O6 1_555 1_555
O7 Cu1C 1_555 1_555
O8 P3 1_555 1_555
O9 P3 1_555 1_555
H4 O9 1_555 1_555
N1 Cu1 1_555 1_555
N2 Cu1 1_555 1_555
C1 P1 1_555 1_555
C2 C1 1_555 1_555
H5 C2 1_555 1_555
C3 P2 1_555 1_555
C4 C3 1_555 1_555
H6 C4 1_555 1_555
C5 P3 1_555 1_555
C6 C1 1_555 1_555
H7 C6 1_555 1_555
C7 N1 1_555 1_555
H8 C7 1_555 1_555
C8 C7 1_555 1_555
H9 C8 1_555 1_555
C9 C8 1_555 1_555
H10 C9 1_555 1_555
C10 C9 1_555 1_555
C11 N1 1_555 1_555
C12 C10 1_555 1_555
H11 C12 1_555 1_555
C13 C12 1_555 1_555
H12 C13 1_555 1_555
C14 C13 1_555 1_555
C15 N2 1_555 1_555
C16 C14 1_555 1_555
H13 C16 1_555 1_555
C17 C16 1_555 1_555
H14 C17 1_555 1_555
C18 N2 1_555 1_555
H15 C18 1_555 1_555
Cu1A O5 1_555 1_555
Cu1C_2 O8 1_555 1_555
O5A Cu1 1_555 1_555
O7C Cu1 1_555 1_555
O8C Cu1 1_555 1_555
C2 C3 1_555 1_555
C4 C5 1_555 1_555
C5 C6 1_555 1_555
C10 C11 1_555 1_555
C11 C15 1_555 1_555
C14 C15 1_555 1_555
C17 C18 1_555 1_555

#END
