
#######################################################################
#
#                 Cambridge Crystallographic Data Centre
#                                CCDC 
#
#######################################################################
#
# If this CIF has been generated from an entry in the Cambridge 
# Structural Database, then it will include bibliographic, chemical, 
# crystal, experimental, refinement or atomic coordinate data resulting 
# from the CCDC's data processing and validation procedures.
#
#######################################################################

data_BUSFEB
_symmetry_cell_setting           monoclinic
_symmetry_space_group_name_H-M   'C 2/c'
_symmetry_Int_Tables_number      15
_space_group_name_Hall           '-C 2yn'
loop_
_symmetry_equiv_pos_site_id
_symmetry_equiv_pos_as_xyz
1 x,y,z
2 -x,y,1/2-z
3 1/2+x,1/2+y,z
4 1/2-x,1/2+y,1/2-z
5 -x,-y,-z
6 x,-y,1/2+z
7 1/2-x,1/2-y,-z
8 1/2+x,1/2-y,1/2+z
_cell_length_a                   21.831(4)
_cell_length_b                   9.1032(17)
_cell_length_c                   11.776(2)
_cell_angle_alpha                90
_cell_angle_beta                 120.469(2)
_cell_angle_gamma                90
_cell_volume                     2017.09
loop_
_atom_site_label
_atom_site_type_symbol
_atom_site_fract_x
_atom_site_fract_y
_atom_site_fract_z
Co1 Co 0.19644(2) -0.04129(5) -0.42482(4)
P1 P 0.33837(4) -0.25654(9) -0.32883(8)
O1 O 0.30389(12) -0.1079(2) -0.3369(2)
O2 O 0.34426(12) -0.2894(2) -0.4492(2)
O3 O 0.40934(12) -0.2747(3) -0.2018(2)
O4 O 0.27202(13) -0.3716(2) -0.2095(2)
H1 H 0.2474 -0.2993 -0.2196
O5 O 0.30914(12) -0.6355(2) -0.2355(2)
O6 O 0.30177(13) -0.5914(3) -0.4274(2)
O7 O 0.09223(15) 0.0403(4) -0.4940(3)
H2 H 0.0635 -0.0015 -0.5664
H3 H 0.0918 0.1324 -0.5062
C1 C 0.27724(17) -0.3932(3) -0.3253(3)
H9 H 0.2301 -0.3770 -0.4026
C2 C 0.29842(17) -0.5504(3) -0.3286(3)
Co1F Co 0.30356(2) -0.45871(5) -0.57518(4)
Co1C Co 0.30356(2) -0.54129(5) -0.07518(4)
Co1E Co 0.19644(2) 0.04129(5) -0.92482(4)
P1F P 0.16163(4) -0.24346(9) -0.67117(8)
O1F O 0.19611(12) -0.3921(2) -0.6631(2)
O2F O 0.15574(12) -0.2106(2) -0.5508(2)
O3F O 0.09066(12) -0.2253(3) -0.7982(2)
O4F O 0.22798(13) -0.1284(2) -0.7905(2)
O4C O 0.22798(13) 0.1284(2) -0.2905(2)
O4E O 0.27202(13) -0.6284(2) -0.7095(2)
H1F H 0.2526 -0.2007 -0.7804
H1C H 0.2526 0.2007 -0.2804
H1E H 0.2474 -0.7007 -0.7196
O5F O 0.19086(12) 0.1355(2) -0.7645(2)
O5C O 0.19086(12) -0.1355(2) -0.2645(2)
O5E O 0.30914(12) -0.3645(2) -0.7355(2)
O6F O 0.19823(13) 0.0914(3) -0.5726(2)
O7F O 0.40777(15) -0.5403(4) -0.5060(3)
H2F H 0.4365 -0.4985 -0.4336
H3F H 0.4082 -0.6324 -0.4938
C1F C 0.22276(17) -0.1068(3) -0.6747(3)
H9F H 0.2699 -0.1230 -0.5974
C2F C 0.20158(17) 0.0504(3) -0.6714(3)
O8 O 0.0000 0.0516(4) -0.2500
H4 H 0.0009 0.1042 -0.3087
H4A H -0.0009 0.1042 -0.1913
O9 O 0.36229(14) -0.1287(3) 0.1029(3)
H5 H 0.3959 -0.0663 0.1357
H6 H 0.3742 -0.2038 0.1525
N1 N 0.55997(18) -0.0762(4) 0.5111(3)
H7 H 0.579(2) -0.148(5) 0.594(4)
H8 H 0.587(2) -0.094(5) 0.487(4)
C3 C 0.5666(2) 0.0790(5) 0.5538(4)
H10 H 0.6143 0.0971 0.6265
H11 H 0.5581 0.1436 0.4817
C4 C 0.4867(2) -0.1103(5) 0.4037(4)
H12 H 0.476(2) -0.056(5) 0.329(4)
H13 H 0.483(2) -0.213(5) 0.386(4)
N1D N 0.44003(18) 0.0762(4) 0.4889(3)
H7D H 0.421(2) 0.148(5) 0.406(4)
H8D H 0.413(2) 0.094(5) 0.513(4)
C3D C 0.4334(2) -0.0790(5) 0.4462(4)
H10D H 0.3857 -0.0971 0.3735
H11D H 0.4419 -0.1436 0.5183
C4D C 0.5133(2) 0.1103(5) 0.5963(4)
H12D H 0.524(2) 0.056(5) 0.671(4)
H13D H 0.517(2) 0.213(5) 0.614(4)
loop_
_geom_bond_atom_site_label_1
_geom_bond_atom_site_label_2
_geom_bond_site_symmetry_1
_geom_bond_site_symmetry_2
Co1 O1 1_555 1_555
P1 O1 1_555 1_555
O2 P1 1_555 1_555
O3 P1 1_555 1_555
O4 H1 1_555 1_555
O5 C2 1_555 1_555
O6 C2 1_555 1_555
O7 Co1 1_555 1_555
H2 O7 1_555 1_555
H3 O7 1_555 1_555
O8 H4 1_555 1_555
O9 H5 1_555 1_555
H6 O9 1_555 1_555
N1 H7 1_555 1_555
H8 N1 1_555 1_555
C1 P1 1_555 1_555
H9 C1 1_555 1_555
C2 C1 1_555 1_555
C3 N1 1_555 1_555
H10 C3 1_555 1_555
H11 C3 1_555 1_555
C4 N1 1_555 1_555
H12 C4 1_555 1_555
H13 C4 1_555 1_555
Co1F O2 1_555 1_555
Co1C O4 1_555 1_555
Co1E O4F 1_555 1_555
P1F O1F 1_555 1_555
O1F Co1F 1_555 1_555
O2F Co1 1_555 1_555
O3F P1F 1_555 1_555
O4F H1F 1_555 1_555
O4C Co1 1_555 1_555
O4E Co1F 1_555 1_555
H1C O4C 1_555 1_555
H1E O4E 1_555 1_555
O5F Co1E 1_555 1_555
O5C Co1 1_555 1_555
O5E Co1F 1_555 1_555
O6F Co1 1_555 1_555
O7F Co1F 1_555 1_555
H2F O7F 1_555 1_555
H3F O7F 1_555 1_555
H4A O8 1_555 1_555
N1D H7D 1_555 1_555
H8D N1D 1_555 1_555
C1F P1F 1_555 1_555
H9F C1F 1_555 1_555
C2F O5F 1_555 1_555
C3D C4 1_555 1_555
H10D C3D 1_555 1_555
H11D C3D 1_555 1_555
C4D C3 1_555 1_555
H12D C4D 1_555 1_555
H13D C4D 1_555 1_555
O4 C1 1_555 1_555
O5 Co1C 1_555 1_555
O6 Co1F 1_555 1_555
P1F O2F 1_555 1_555
O4F C1F 1_555 1_555
O6F C2F 1_555 1_555
N1D C3D 1_555 1_555
N1D C4D 1_555 1_555
C1F C2F 1_555 1_555

#END
