
#######################################################################
#
#                 Cambridge Crystallographic Data Centre
#                                CCDC 
#
#######################################################################
#
# If this CIF has been generated from an entry in the Cambridge 
# Structural Database, then it will include bibliographic, chemical, 
# crystal, experimental, refinement or atomic coordinate data resulting 
# from the CCDC's data processing and validation procedures.
#
#######################################################################

data_BUSFOL
_symmetry_cell_setting           monoclinic
_symmetry_space_group_name_H-M   'C 2/c'
_symmetry_Int_Tables_number      15
_space_group_name_Hall           '-C 2yn'
loop_
_symmetry_equiv_pos_site_id
_symmetry_equiv_pos_as_xyz
1 x,y,z
2 -x,y,1/2-z
3 1/2+x,1/2+y,z
4 1/2-x,1/2+y,1/2-z
5 -x,-y,-z
6 x,-y,1/2+z
7 1/2-x,1/2-y,-z
8 1/2+x,1/2-y,1/2+z
_cell_length_a                   21.942(7)
_cell_length_b                   9.112(3)
_cell_length_c                   11.714(4)
_cell_angle_alpha                90
_cell_angle_beta                 120.039(4)
_cell_angle_gamma                90
_cell_volume                     2027.47
loop_
_atom_site_label
_atom_site_type_symbol
_atom_site_fract_x
_atom_site_fract_y
_atom_site_fract_z
Zn1 Zn 0.30339(3) 0.04476(6) 0.92633(5)
P1 P 0.33846(7) 0.24515(13) 1.17101(12)
O1 O 0.34353(18) 0.2134(4) 1.0493(3)
O2 O 0.30386(18) 0.3929(4) 1.1636(3)
O3 O 0.40900(18) 0.2282(4) 1.2976(3)
O4 O 0.27440(19) 0.1297(4) 1.2943(3)
H1 H 0.2494 0.2010 1.2846
O5 O 0.30881(18) -0.1356(4) 1.2644(3)
O6 O 0.30187(19) -0.0908(4) 1.0723(3)
O7 O 0.4083(2) -0.0377(5) 0.9964(4)
H2 H 0.4250 0.0009 0.9518
H3 H 0.4069 -0.1304 0.9872
C1 C 0.2786(3) 0.1083(5) 1.1771(4)
H9 H 0.2316 0.1253 1.1012
C2 C 0.2985(2) -0.0505(5) 1.1714(5)
Zn1F Zn 0.19661(3) 0.45524(6) 1.07367(5)
Zn1E Zn 0.30339(3) -0.04476(6) 1.42633(5)
Zn1C Zn 0.19661(3) 0.54476(6) 0.57367(5)
P1F P 0.16154(7) 0.25485(13) 0.82899(12)
O1F O 0.15647(18) 0.2866(4) 0.9507(3)
O2F O 0.19614(18) 0.1071(4) 0.8364(3)
O3F O 0.09100(18) 0.2718(4) 0.7024(3)
O4F O 0.22560(19) 0.3703(4) 0.7057(3)
O4E O 0.27440(19) -0.1297(4) 0.7943(3)
O4C O 0.22560(19) 0.6297(4) 1.2057(3)
H1F H 0.2506 0.2990 0.7154
H1E H 0.2494 -0.2010 0.7846
H1C H 0.2506 0.7010 1.2154
O5F O 0.19119(18) 0.6356(4) 0.7356(3)
O5E O 0.30881(18) 0.1356(4) 0.7644(3)
O5C O 0.19119(18) 0.3644(4) 1.2356(3)
O6F O 0.19813(19) 0.5908(4) 0.9277(3)
O7F O 0.0917(2) 0.5377(5) 1.0036(4)
H2F H 0.0750 0.4991 1.0482
H3F H 0.0931 0.6304 1.0128
C1F C 0.2214(3) 0.3917(5) 0.8229(4)
H9F H 0.2684 0.3747 0.8988
C2F C 0.2015(2) 0.5505(5) 0.8286(5)
O8 O 0.0000 0.4428(6) 0.7500
H4 H 0.0007 0.3906 0.6906
H4A H -0.0007 0.3906 0.8094
O9 O 0.1375(2) 0.8705(4) 0.8973(4)
H5 H 0.1720 0.9097 0.8951
H6 H 0.1031 0.8614 0.8192
N1 N -0.0596(2) -0.0753(5) 0.4900(4)
H7 H -0.0899 -0.0923 0.5191
H8 H -0.0714 -0.1343 0.4204
C3 C -0.0654(3) 0.0799(7) 0.4482(6)
H10 H -0.1127 0.0992 0.3766
H11 H -0.0563 0.1439 0.5212
C4 C 0.0132(3) -0.1107(7) 0.5966(5)
H12 H 0.0247 -0.0522 0.6740
H13 H 0.0158 -0.2133 0.6204
N1D N 0.0596(2) 0.0753(5) 0.5100(4)
H7D H 0.0899 0.0923 0.4809
H8D H 0.0714 0.1343 0.5796
C3D C 0.0654(3) -0.0799(7) 0.5518(6)
H10D H 0.1127 -0.0992 0.6234
H11D H 0.0563 -0.1439 0.4788
C4D C -0.0132(3) 0.1107(7) 0.4034(5)
H12D H -0.0247 0.0522 0.3260
H13D H -0.0158 0.2133 0.3796
loop_
_geom_bond_atom_site_label_1
_geom_bond_atom_site_label_2
_geom_bond_site_symmetry_1
_geom_bond_site_symmetry_2
Zn1 O1 1_555 1_555
P1 O1 1_555 1_555
O2 P1 1_555 1_555
O3 P1 1_555 1_555
O4 H1 1_555 1_555
O5 C2 1_555 1_555
O6 Zn1 1_555 1_555
O7 Zn1 1_555 1_555
H2 O7 1_555 1_555
H3 O7 1_555 1_555
O8 H4 1_555 1_555
O9 H5 1_555 1_555
H6 O9 1_555 1_555
N1 H7 1_555 1_555
H8 N1 1_555 1_555
C1 P1 1_555 1_555
H9 C1 1_555 1_555
C2 O6 1_555 1_555
C3 N1 1_555 1_555
H10 C3 1_555 1_555
H11 C3 1_555 1_555
C4 N1 1_555 1_555
H12 C4 1_555 1_555
H13 C4 1_555 1_555
Zn1F O2 1_555 1_555
Zn1E O4 1_555 1_555
Zn1C O4F 1_555 1_555
P1F O1F 1_555 1_555
O1F Zn1F 1_555 1_555
O2F Zn1 1_555 1_555
O3F P1F 1_555 1_555
O4F H1F 1_555 1_555
O4E Zn1 1_555 1_555
O4C Zn1F 1_555 1_555
H1E O4E 1_555 1_555
H1C O4C 1_555 1_555
O5F Zn1C 1_555 1_555
O5E Zn1 1_555 1_555
O5C Zn1F 1_555 1_555
O6F Zn1F 1_555 1_555
O7F Zn1F 1_555 1_555
H2F O7F 1_555 1_555
H3F O7F 1_555 1_555
H4A O8 1_555 1_555
N1D H7D 1_555 1_555
H8D N1D 1_555 1_555
C1F P1F 1_555 1_555
H9F C1F 1_555 1_555
C2F O5F 1_555 1_555
C3D C4 1_555 1_555
H10D C3D 1_555 1_555
H11D C3D 1_555 1_555
C4D C3 1_555 1_555
H12D C4D 1_555 1_555
H13D C4D 1_555 1_555
O4 C1 1_555 1_555
O5 Zn1E 1_555 1_555
C1 C2 1_555 1_555
P1F O2F 1_555 1_555
O4F C1F 1_555 1_555
O6F C2F 1_555 1_555
N1D C3D 1_555 1_555
N1D C4D 1_555 1_555
C1F C2F 1_555 1_555

#END
