
#######################################################################
#
#                 Cambridge Crystallographic Data Centre
#                                CCDC 
#
#######################################################################
#
# If this CIF has been generated from an entry in the Cambridge 
# Structural Database, then it will include bibliographic, chemical, 
# crystal, experimental, refinement or atomic coordinate data resulting 
# from the CCDC's data processing and validation procedures.
#
#######################################################################

data_BUSFIF
_symmetry_cell_setting           monoclinic
_symmetry_space_group_name_H-M   'C 2/c'
_symmetry_Int_Tables_number      15
_space_group_name_Hall           '-C 2yn'
loop_
_symmetry_equiv_pos_site_id
_symmetry_equiv_pos_as_xyz
1 x,y,z
2 -x,y,1/2-z
3 1/2+x,1/2+y,z
4 1/2-x,1/2+y,1/2-z
5 -x,-y,-z
6 x,-y,1/2+z
7 1/2-x,1/2-y,-z
8 1/2+x,1/2-y,1/2+z
_cell_length_a                   21.796(5)
_cell_length_b                   9.106(2)
_cell_length_c                   11.603(3)
_cell_angle_alpha                90
_cell_angle_beta                 119.955(3)
_cell_angle_gamma                90
_cell_volume                     1995.27
loop_
_atom_site_label
_atom_site_type_symbol
_atom_site_fract_x
_atom_site_fract_y
_atom_site_fract_z
Ni1 Ni 0.302935(19) 0.54007(4) 0.92515(4)
P1 P 0.33701(4) 0.74579(8) 1.16956(7)
O1 O 0.34247(11) 0.7114(2) 1.0475(2)
O2 O 0.30269(11) 0.8945(2) 1.1616(2)
O3 O 0.40792(11) 0.7294(2) 1.2974(2)
O4 O 0.27279(12) 0.6315(2) 1.2950(2)
H1 H 0.2482 0.7037 1.2855
O5 O 0.30858(11) 0.3674(2) 1.2664(2)
O6 O 0.30111(12) 0.4113(2) 1.0718(2)
O7 O 0.40554(14) 0.4606(3) 0.9968(3)
H2 H 0.4226 0.4974 0.9515
H3 H 0.4042 0.3676 0.9894
C1 C 0.27693(15) 0.6095(3) 1.1772(3)
H9 H 0.2296 0.6260 1.1006
C2 C 0.29747(15) 0.4524(3) 1.1715(3)
Ni1F Ni 0.197065(19) 0.95993(4) 1.07485(4)
Ni1E Ni 0.302935(19) 0.45993(4) 1.42515(4)
Ni1C Ni 0.197065(19) 1.04007(4) 0.57485(4)
P1F P 0.16299(4) 0.75421(8) 0.83044(7)
O1F O 0.15753(11) 0.7886(2) 0.9525(2)
O2F O 0.19731(11) 0.6055(2) 0.8384(2)
O3F O 0.09208(11) 0.7706(2) 0.7026(2)
O4F O 0.22721(12) 0.8685(2) 0.7050(2)
O4E O 0.27279(12) 0.3685(2) 0.7950(2)
O4C O 0.22721(12) 1.1315(2) 1.2050(2)
H1F H 0.2518 0.7963 0.7145
H1E H 0.2482 0.2963 0.7855
H1C H 0.2518 1.2037 1.2145
O5F O 0.19142(11) 1.1326(2) 0.7336(2)
O5E O 0.30858(11) 0.6326(2) 0.7664(2)
O5C O 0.19142(11) 0.8674(2) 1.2336(2)
O6F O 0.19889(12) 1.0887(2) 0.9282(2)
O7F O 0.09446(14) 1.0394(3) 1.0032(3)
H2F H 0.0774 1.0026 1.0485
H3F H 0.0958 1.1324 1.0106
C1F C 0.22307(15) 0.8905(3) 0.8228(3)
H9F H 0.2704 0.8740 0.8994
C2F C 0.20253(15) 1.0476(3) 0.8285(3)
O8 O 0.0000 0.9412(4) 0.7500
H4 H 0.0008 0.8865 0.6914
H4A H -0.0008 0.8865 0.8086
O9 O 0.13722(13) 0.3698(3) 0.8933(3)
H5 H 0.1758 0.3247 0.9164
H6 H 0.1153 0.3277 0.9274
N1 N -0.05981(15) 0.4257(3) 0.4908(3)
H7 H -0.0720 0.3672 0.4200
H8 H -0.0903 0.4088 0.5203
C3 C -0.06552(19) 0.5814(4) 0.4491(4)
H10 H -0.1132 0.6013 0.3774
H11 H -0.0559 0.6452 0.5232
C4 C 0.01285(19) 0.3881(5) 0.5971(4)
H12 H 0.0250 0.4459 0.6759
H13 H 0.0149 0.2852 0.6201
N1D N 0.05981(15) 0.5743(3) 0.5092(3)
H7D H 0.0720 0.6328 0.5800
H8D H 0.0903 0.5912 0.4797
C3D C 0.06552(19) 0.4186(4) 0.5509(4)
H10D H 0.1132 0.3987 0.6226
H11D H 0.0559 0.3548 0.4768
C4D C -0.01285(19) 0.6119(5) 0.4029(4)
H12D H -0.0250 0.5541 0.3241
H13D H -0.0149 0.7148 0.3799
loop_
_geom_bond_atom_site_label_1
_geom_bond_atom_site_label_2
_geom_bond_site_symmetry_1
_geom_bond_site_symmetry_2
Ni1 O1 1_555 1_555
P1 O1 1_555 1_555
O2 P1 1_555 1_555
O3 P1 1_555 1_555
O4 H1 1_555 1_555
O5 C2 1_555 1_555
O6 Ni1 1_555 1_555
O7 Ni1 1_555 1_555
H2 O7 1_555 1_555
H3 O7 1_555 1_555
O8 H4 1_555 1_555
O9 H5 1_555 1_555
H6 O9 1_555 1_555
N1 H7 1_555 1_555
H8 N1 1_555 1_555
C1 P1 1_555 1_555
H9 C1 1_555 1_555
C2 O6 1_555 1_555
C3 N1 1_555 1_555
H10 C3 1_555 1_555
H11 C3 1_555 1_555
C4 N1 1_555 1_555
H12 C4 1_555 1_555
H13 C4 1_555 1_555
Ni1F O2 1_555 1_555
Ni1E O4 1_555 1_555
Ni1C O4F 1_555 1_555
P1F O1F 1_555 1_555
O1F Ni1F 1_555 1_555
O2F Ni1 1_555 1_555
O3F P1F 1_555 1_555
O4F H1F 1_555 1_555
O4E Ni1 1_555 1_555
O4C Ni1F 1_555 1_555
H1E O4E 1_555 1_555
H1C O4C 1_555 1_555
O5F Ni1C 1_555 1_555
O5E Ni1 1_555 1_555
O5C Ni1F 1_555 1_555
O6F Ni1F 1_555 1_555
O7F Ni1F 1_555 1_555
H2F O7F 1_555 1_555
H3F O7F 1_555 1_555
H4A O8 1_555 1_555
N1D H7D 1_555 1_555
H8D N1D 1_555 1_555
C1F P1F 1_555 1_555
H9F C1F 1_555 1_555
C2F O5F 1_555 1_555
C3D C4 1_555 1_555
H10D C3D 1_555 1_555
H11D C3D 1_555 1_555
C4D C3 1_555 1_555
H12D C4D 1_555 1_555
H13D C4D 1_555 1_555
O4 C1 1_555 1_555
O5 Ni1E 1_555 1_555
C1 C2 1_555 1_555
P1F O2F 1_555 1_555
O4F C1F 1_555 1_555
O6F C2F 1_555 1_555
N1D C3D 1_555 1_555
N1D C4D 1_555 1_555
C1F C2F 1_555 1_555

#END
