
#######################################################################
#
#                 Cambridge Crystallographic Data Centre
#                                CCDC 
#
#######################################################################
#
# If this CIF has been generated from an entry in the Cambridge 
# Structural Database, then it will include bibliographic, chemical, 
# crystal, experimental, refinement or atomic coordinate data resulting 
# from the CCDC's data processing and validation procedures.
#
#######################################################################

data_BUSFAX
_symmetry_cell_setting           triclinic
_symmetry_space_group_name_H-M   'P -1'
_symmetry_Int_Tables_number      2
_space_group_name_Hall           '-P 1'
loop_
_symmetry_equiv_pos_site_id
_symmetry_equiv_pos_as_xyz
1 x,y,z
2 -x,-y,-z
_cell_length_a                   7.7445(10)
_cell_length_b                   7.8069(10)
_cell_length_c                   12.1600(16)
_cell_angle_alpha                97.687(2)
_cell_angle_beta                 96.118(2)
_cell_angle_gamma                91.270(2)
_cell_volume                     723.949
loop_
_atom_site_label
_atom_site_type_symbol
_atom_site_fract_x
_atom_site_fract_y
_atom_site_fract_z
Sb1 Sb 0.85424(6) 0.68654(6) 0.91948(4)
Sb2 Sb 0.39108(6) 0.79532(6) 1.07989(4)
P1 P 0.3555(2) 0.5253(3) 0.83537(16)
P2 P 0.9440(3) 0.9575(3) 1.16823(17)
O1 O 0.3083(7) 0.5851(7) 0.9540(5)
O2 O 0.2029(7) 0.4889(7) 0.7508(5)
O3 O 0.4794(8) 0.3727(7) 0.8376(5)
O4 O 0.6092(7) 0.7540(7) 0.9072(4)
H1 H 0.6095 0.8639 0.9182
O5 O 0.7717(7) 0.6187(8) 0.7445(5)
O6 O 0.5451(8) 0.6158(9) 0.6154(5)
O7 O 0.8178(7) 0.8596(7) 1.0761(5)
O8 O 1.0571(9) 1.0911(8) 1.1266(5)
O9 O 0.8501(7) 1.0476(8) 1.2646(5)
O10 O 1.1606(7) 0.7179(7) 1.1191(4)
H2 H 1.2623 0.6936 1.1335
O11 O 1.3853(7) 0.9195(7) 1.2597(5)
O12 O 1.2130(8) 0.9482(7) 1.3957(5)
C1 C 0.5008(10) 0.6987(10) 0.8065(6)
H6 H 0.4307 0.7954 0.7869
C2 C 0.6082(9) 0.6420(11) 0.7127(7)
C3 C 1.0983(10) 0.8025(10) 1.2168(6)
H7 H 1.0377 0.7180 1.2533
C4 C 1.2421(10) 0.8981(10) 1.2998(6)
Sb1A Sb 1.14576(6) 1.31346(6) 1.08052(4)
Sb1A_2 Sb 0.14576(6) 0.31346(6) 1.08052(4)
Sb2A Sb 0.60892(6) 0.20468(6) 0.92011(4)
Sb2_2 Sb 1.39108(6) 0.79532(6) 1.07989(4)
Sb2A_2 Sb 0.60892(6) 1.20468(6) 0.92011(4)
P1A P 0.6445(2) 0.4747(3) 1.16463(16)
P2A P 1.0560(3) 1.0425(3) 0.83177(17)
O1A O 0.6917(7) 0.4149(7) 1.0460(5)
O2A O 0.7971(7) 0.5111(7) 1.2492(5)
O3A O 0.5206(8) 0.6273(7) 1.1624(5)
O4A O 0.3908(7) 0.2460(7) 1.0928(4)
O4A_2 O 1.3908(7) 1.2460(7) 1.0928(4)
H1A H 0.3905 0.1361 1.0818
H1A_2 H 1.3905 1.1361 1.0818
O5A O 0.2283(7) 0.3813(8) 1.2555(5)
O5A_2 O 1.2283(7) 1.3813(8) 1.2555(5)
O6A O 0.4549(8) 0.3842(9) 1.3846(5)
O7A O 1.1822(7) 1.1404(7) 0.9239(5)
O8A O 0.9429(9) 0.9089(8) 0.8734(5)
O9A O 1.1499(7) 0.9524(8) 0.7354(5)
O10A O 0.8394(7) 1.2821(7) 0.8809(4)
O10_2 O 0.1606(7) 0.7179(7) 1.1191(4)
O10A_2 O 0.8394(7) 0.2821(7) 0.8809(4)
H2A H 0.7377 1.3064 0.8665
H2_2 H 0.2623 0.6936 1.1335
H2A_2 H 0.7377 0.3064 0.8665
O11A O 0.6147(7) 1.0805(7) 0.7403(5)
O11_2 O 0.3853(7) 0.9195(7) 1.2597(5)
O11A_2 O 0.6147(7) 0.0805(7) 0.7403(5)
O12A O 0.7870(8) 1.0518(7) 0.6043(5)
C1A C 0.4992(10) 0.3013(10) 1.1935(6)
H6A H 0.5693 0.2046 1.2131
C2A C 0.3918(9) 0.3580(11) 1.2873(7)
C3A C 0.9017(10) 1.1975(10) 0.7832(6)
H7A H 0.9623 1.2820 0.7467
C4A C 0.7579(10) 1.1019(10) 0.7002(6)
O13 O 0.6864(8) 0.9049(9) 0.3941(5)
H3 H 0.6579 0.8159 0.4223
H4 H 0.7753 0.9557 0.4330
N1 N 0.8265(8) 0.5626(8) 0.4798(5)
H5 H 0.7374 0.5914 0.4387
C5 C 0.8547(10) 0.3847(10) 0.5070(7)
H8 H 0.7587 0.3097 0.4723
C6 C 0.9714(11) 0.6851(11) 0.5328(8)
H10 H 0.9496 0.7990 0.5142
H11 H 0.9815 0.6880 0.6124
N1A N 1.1735(8) 0.4374(8) 0.5202(5)
H5A H 1.2626 0.4086 0.5613
C5A C 1.1453(10) 0.6153(10) 0.4930(7)
H8A H 1.2413 0.6903 0.5277
C6A C 1.0286(11) 0.3149(11) 0.4672(8)
H10A H 1.0504 0.2010 0.4858
H11A H 1.0185 0.3120 0.3876
H9? H 0.9601 0.3438 0.4794
loop_
_geom_bond_atom_site_label_1
_geom_bond_atom_site_label_2
_geom_bond_site_symmetry_1
_geom_bond_site_symmetry_2
Sb1 O4 1_555 1_555
Sb2 O1 1_555 1_555
P1 O1 1_555 1_555
P2 O7 1_555 1_555
O2 P1 1_555 1_555
O3 P1 1_555 1_555
O4 H1 1_555 1_555
O5 Sb1 1_555 1_555
O6 C2 1_555 1_555
O7 Sb1 1_555 1_555
O8 P2 1_555 1_555
O9 P2 1_555 1_555
O10 H2 1_555 1_555
O11 C4 1_555 1_555
O12 C4 1_555 1_555
O13 H3 1_555 1_555
H4 O13 1_555 1_555
N1 H5 1_555 1_555
C1 P1 1_555 1_555
H6 C1 1_555 1_555
C2 O5 1_555 1_555
C3 P2 1_555 1_555
H7 C3 1_555 1_555
C4 C3 1_555 1_555
C5 N1 1_555 1_555
H8 C5 1_555 1_555
C6 N1 1_555 1_555
H10 C6 1_555 1_555
H11 C6 1_555 1_555
Sb1A O8 1_555 1_555
Sb1A_2 O4A 1_555 1_555
Sb2A O3 1_555 1_555
Sb2_2 O10 1_555 1_555
Sb2A_2 O10A 1_555 1_555
P1A O1A 1_555 1_555
P2A O7A 1_555 1_555
O1A Sb2A 1_555 1_555
O2A P1A 1_555 1_555
O3A Sb2 1_555 1_555
O4A H1A 1_555 1_555
O4A_2 Sb1A 1_555 1_555
H1A_2 O4A_2 1_555 1_555
O5A Sb1A_2 1_555 1_555
O5A_2 Sb1A 1_555 1_555
O6A C2A 1_555 1_555
O7A Sb1A 1_555 1_555
O8A Sb1 1_555 1_555
O9A P2A 1_555 1_555
O10A H2A 1_555 1_555
O10_2 Sb2 1_555 1_555
O10A_2 Sb2A 1_555 1_555
H2_2 O10_2 1_555 1_555
H2A_2 O10A_2 1_555 1_555
O11A Sb2A_2 1_555 1_555
O11_2 Sb2 1_555 1_555
O11A_2 Sb2A 1_555 1_555
O12A C4A 1_555 1_555
N1A H5A 1_555 1_555
C1A P1A 1_555 1_555
H6A C1A 1_555 1_555
C2A O5A 1_555 1_555
C3A P2A 1_555 1_555
H7A C3A 1_555 1_555
C4A O11A 1_555 1_555
C5A C6 1_555 1_555
H8A C5A 1_555 1_555
C6A C5 1_555 1_555
H10A C6A 1_555 1_555
H11A C6A 1_555 1_555
O4 C1 1_555 1_555
O10 C3 1_555 1_555
O11 Sb2_2 1_555 1_555
C1 C2 1_555 1_555
P1A O3A 1_555 1_555
P2A O8A 1_555 1_555
O4A C1A 1_555 1_555
O10A C3A 1_555 1_555
N1A C5A 1_555 1_555
N1A C6A 1_555 1_555
C1A C2A 1_555 1_555
C3A C4A 1_555 1_555

#END
