
#######################################################################
#
#                 Cambridge Crystallographic Data Centre
#                                CCDC 
#
#######################################################################
#
# If this CIF has been generated from an entry in the Cambridge 
# Structural Database, then it will include bibliographic, chemical, 
# crystal, experimental, refinement or atomic coordinate data resulting 
# from the CCDC's data processing and validation procedures.
#
#######################################################################

data_BUSFUR
_symmetry_cell_setting           triclinic
_symmetry_space_group_name_H-M   'P -1'
_symmetry_Int_Tables_number      2
_space_group_name_Hall           '-P 1'
loop_
_symmetry_equiv_pos_site_id
_symmetry_equiv_pos_as_xyz
1 x,y,z
2 -x,-y,-z
_cell_length_a                   7.3503(7)
_cell_length_b                   9.7568(9)
_cell_length_c                   13.2101(12)
_cell_angle_alpha                104.458(2)
_cell_angle_beta                 92.634(2)
_cell_angle_gamma                108.157(2)
_cell_volume                     863.765
loop_
_atom_site_label
_atom_site_type_symbol
_atom_site_fract_x
_atom_site_fract_y
_atom_site_fract_z
Co1 Co -0.66709(7) -0.32540(5) -0.23919(4)
O1 O -0.4793(3) -0.1026(3) -0.15367(19)
O2 O -0.3577(3) -0.2817(3) -0.21083(19)
O3 O 0.0286(4) -0.1059(3) -0.2814(2)
O4 O 0.0885(3) -0.2800(3) -0.2162(2)
N1 N -0.6979(4) -0.4206(3) -0.1079(2)
N2 N -0.8104(4) -0.5507(3) -0.3071(2)
N3 N -0.6543(4) -0.3500(3) -0.4032(2)
C1 C -0.6341(6) -0.3471(5) -0.0063(3)
H1 H -0.5534 -0.2463 0.0102
C2 C -0.6793(6) -0.4100(5) 0.0756(3)
H2 H -0.6312 -0.3539 0.1460
C3 C -0.7977(6) -0.5582(5) 0.0510(3)
H3 H -0.8319 -0.6053 0.1047
C4 C -0.8645(6) -0.6358(4) -0.0525(3)
H4 H -0.9449 -0.7368 -0.0704
C5 C -0.8134(5) -0.5654(4) -0.1310(3)
C6 C -0.8764(5) -0.6397(4) -0.2454(3)
C7 C -0.9907(6) -0.7877(4) -0.2887(3)
H5 H -1.0388 -0.8508 -0.2457
C8 C -1.0320(6) -0.8400(4) -0.3972(3)
H6 H -1.1109 -0.9401 -0.4284
C9 C -0.9604(6) -0.7491(4) -0.4609(3)
H7 H -0.9877 -0.7857 -0.5348
C10 C -0.8464(5) -0.6015(4) -0.4121(3)
C11 C -0.7517(5) -0.4894(4) -0.4665(3)
C12 C -0.7519(6) -0.5225(5) -0.5756(3)
H8 H -0.8188 -0.6196 -0.6193
C13 C -0.6533(6) -0.4112(5) -0.6179(3)
H9 H -0.6524 -0.4322 -0.6912
C14 C -0.5558(6) -0.2695(5) -0.5547(3)
H10 H -0.4885 -0.1922 -0.5833
C15 C -0.5599(6) -0.2441(4) -0.4467(3)
H11 H -0.4929 -0.1474 -0.4023
C16 C -0.1753(5) 0.0174(4) 0.0217(3)
H12 H -0.2942 0.0300 0.0358
C17 C -0.1600(5) -0.0669(4) -0.0777(3)
C18 C 0.0168(5) -0.0830(4) -0.1003(3)
C19 C -0.3395(5) -0.1532(4) -0.1543(3)
C20 C 0.0451(5) -0.1622(4) -0.2095(3)
Co1A Co 0.66709(7) 0.32540(5) 0.23919(4)
Co1_2 Co 0.33291(7) -0.32540(5) -0.23919(4)
Co1A_2 Co -0.33291(7) 0.32540(5) 0.23919(4)
O1A O 0.4793(3) 0.1026(3) 0.15367(19)
O2A O 0.3577(3) 0.2817(3) 0.21083(19)
O3A O -0.0286(4) 0.1059(3) 0.2814(2)
O4A O -0.0885(3) 0.2800(3) 0.2162(2)
O4_2 O -0.9115(3) -0.2800(3) -0.2162(2)
O4A_2 O 0.9115(3) 0.2800(3) 0.2162(2)
N1A N 0.6979(4) 0.4206(3) 0.1079(2)
N2A N 0.8104(4) 0.5507(3) 0.3071(2)
N3A N 0.6543(4) 0.3500(3) 0.4032(2)
C1A C 0.6341(6) 0.3471(5) 0.0063(3)
H1A H 0.5534 0.2463 -0.0102
C2A C 0.6793(6) 0.4100(5) -0.0756(3)
H2A H 0.6312 0.3539 -0.1460
C3A C 0.7977(6) 0.5582(5) -0.0510(3)
H3A H 0.8319 0.6053 -0.1047
C4A C 0.8645(6) 0.6358(4) 0.0525(3)
H4A H 0.9449 0.7368 0.0704
C5A C 0.8134(5) 0.5654(4) 0.1310(3)
C6A C 0.8764(5) 0.6397(4) 0.2454(3)
C7A C 0.9907(6) 0.7877(4) 0.2887(3)
H5A H 1.0388 0.8508 0.2457
C8A C 1.0320(6) 0.8400(4) 0.3972(3)
H6A H 1.1109 0.9401 0.4284
C9A C 0.9604(6) 0.7491(4) 0.4609(3)
H7A H 0.9877 0.7857 0.5348
C10A C 0.8464(5) 0.6015(4) 0.4121(3)
C11A C 0.7517(5) 0.4894(4) 0.4665(3)
C12A C 0.7519(6) 0.5225(5) 0.5756(3)
H8A H 0.8188 0.6196 0.6193
C13A C 0.6533(6) 0.4112(5) 0.6179(3)
H9A H 0.6524 0.4322 0.6912
C14A C 0.5558(6) 0.2695(5) 0.5547(3)
H10A H 0.4885 0.1922 0.5833
C15A C 0.5599(6) 0.2441(4) 0.4467(3)
H11A H 0.4929 0.1474 0.4023
C16A C 0.1753(5) -0.0174(4) -0.0217(3)
H12A H 0.2942 -0.0300 -0.0358
C17A C 0.1600(5) 0.0669(4) 0.0777(3)
C18A C -0.0168(5) 0.0830(4) 0.1003(3)
C19A C 0.3395(5) 0.1532(4) 0.1543(3)
C20A C -0.0451(5) 0.1622(4) 0.2095(3)
O5 O -0.5745(6) 0.0941(4) -0.2619(3)
H13 H -0.518(9) 0.034(7) -0.219(5)
H14 H -0.725(7) 0.031(8) -0.277(6)
loop_
_geom_bond_atom_site_label_1
_geom_bond_atom_site_label_2
_geom_bond_site_symmetry_1
_geom_bond_site_symmetry_2
Co1 O1 1_555 1_555
O1 C19 1_555 1_555
O2 Co1 1_555 1_555
O3 C20 1_555 1_555
O4 C20 1_555 1_555
N1 Co1 1_555 1_555
N2 Co1 1_555 1_555
N3 Co1 1_555 1_555
C1 N1 1_555 1_555
H1 C1 1_555 1_555
C2 C1 1_555 1_555
H2 C2 1_555 1_555
C3 C2 1_555 1_555
H3 C3 1_555 1_555
C4 C3 1_555 1_555
H4 C4 1_555 1_555
C5 N1 1_555 1_555
C6 N2 1_555 1_555
C7 C6 1_555 1_555
H5 C7 1_555 1_555
C8 C7 1_555 1_555
H6 C8 1_555 1_555
C9 C8 1_555 1_555
H7 C9 1_555 1_555
C10 N2 1_555 1_555
C11 N3 1_555 1_555
C12 C11 1_555 1_555
H8 C12 1_555 1_555
C13 C12 1_555 1_555
H9 C13 1_555 1_555
C14 C13 1_555 1_555
H10 C14 1_555 1_555
C15 N3 1_555 1_555
H11 C15 1_555 1_555
C16 H12 1_555 1_555
C17 C16 1_555 1_555
C18 C17 1_555 1_555
C19 O2 1_555 1_555
C20 C18 1_555 1_555
O5 H13 1_555 1_555
H14 O5 1_555 1_555
Co1A O1A 1_555 1_555
Co1_2 O4 1_555 1_555
Co1A_2 O4A 1_555 1_555
O1A C19A 1_555 1_555
O2A Co1A 1_555 1_555
O3A C20A 1_555 1_555
O4A C20A 1_555 1_555
O4_2 Co1 1_555 1_555
O4A_2 Co1A 1_555 1_555
N1A Co1A 1_555 1_555
N2A Co1A 1_555 1_555
N3A Co1A 1_555 1_555
C1A N1A 1_555 1_555
H1A C1A 1_555 1_555
C2A C1A 1_555 1_555
H2A C2A 1_555 1_555
C3A C2A 1_555 1_555
H3A C3A 1_555 1_555
C4A C3A 1_555 1_555
H4A C4A 1_555 1_555
C5A N1A 1_555 1_555
C6A N2A 1_555 1_555
C7A C6A 1_555 1_555
H5A C7A 1_555 1_555
C8A C7A 1_555 1_555
H6A C8A 1_555 1_555
C9A C8A 1_555 1_555
H7A C9A 1_555 1_555
C10A N2A 1_555 1_555
C11A N3A 1_555 1_555
C12A C11A 1_555 1_555
H8A C12A 1_555 1_555
C13A C12A 1_555 1_555
H9A C13A 1_555 1_555
C14A C13A 1_555 1_555
H10A C14A 1_555 1_555
C15A N3A 1_555 1_555
H11A C15A 1_555 1_555
C16A C18 1_555 1_555
H12A C16A 1_555 1_555
C17A C16A 1_555 1_555
C18A C16 1_555 1_555
C19A O2A 1_555 1_555
C20A C18A 1_555 1_555
C4 C5 1_555 1_555
C5 C6 1_555 1_555
C9 C10 1_555 1_555
C10 C11 1_555 1_555
C14 C15 1_555 1_555
C17 C19 1_555 1_555
C4A C5A 1_555 1_555
C5A C6A 1_555 1_555
C9A C10A 1_555 1_555
C10A C11A 1_555 1_555
C14A C15A 1_555 1_555
C17A C18A 1_555 1_555
C17A C19A 1_555 1_555

#END
