
#######################################################################
#
#                 Cambridge Crystallographic Data Centre
#                                CCDC 
#
#######################################################################
#
# If this CIF has been generated from an entry in the Cambridge 
# Structural Database, then it will include bibliographic, chemical, 
# crystal, experimental, refinement or atomic coordinate data resulting 
# from the CCDC's data processing and validation procedures.
#
#######################################################################

data_BUSJAC
_symmetry_cell_setting           monoclinic
_symmetry_space_group_name_H-M   'C 2/c'
_symmetry_Int_Tables_number      15
_space_group_name_Hall           '-C 2yn'
loop_
_symmetry_equiv_pos_site_id
_symmetry_equiv_pos_as_xyz
1 x,y,z
2 -x,y,1/2-z
3 1/2+x,1/2+y,z
4 1/2-x,1/2+y,1/2-z
5 -x,-y,-z
6 x,-y,1/2+z
7 1/2-x,1/2-y,-z
8 1/2+x,1/2-y,1/2+z
_cell_length_a                   22.7005(11)
_cell_length_b                   11.3935(5)
_cell_length_c                   24.8275(16)
_cell_angle_alpha                90
_cell_angle_beta                 113.631(2)
_cell_angle_gamma                90
_cell_volume                     5882.88
loop_
_atom_site_label
_atom_site_type_symbol
_atom_site_fract_x
_atom_site_fract_y
_atom_site_fract_z
Zn1 Zn 0.68110(2) 0.76616(3) 0.33327(2)
Zn2 Zn 0.5000 0.77329(5) 0.2500
O1 O 0.59545(11) 0.7751(2) 0.25536(10)
N1 N 0.5000 0.5837(3) 0.2500
C1 C 0.52117(18) 0.5220(3) 0.21528(15)
H1 H 0.5359 0.5629 0.1907
C2 C 0.52219(18) 0.4015(3) 0.21417(15)
H2 H 0.5377 0.3628 0.1895
O2 O 0.53427(12) 0.7656(2) 0.34294(10)
O3 O 0.64117(12) 0.7724(2) 0.39277(10)
O4 O 0.44787(16) 0.6517(4) 0.57654(14)
N2 N 0.5000 -0.0381(3) 0.2500
O5 O 0.67321(13) 0.7562(2) 0.22475(14)
C3 C 0.64864(18) 1.5107(3) 0.35410(16)
H3 H 0.6280 1.5488 0.3748
O6 O 0.72885(12) 0.7519(2) 0.60955(12)
O7 O 0.67167(15) 0.6698(4) 0.65351(12)
C4 C 0.5000 0.3376(4) 0.2500
N3 N 0.44630(15) 0.6316(3) 0.48551(13)
H4 H 0.4219 0.6104 0.4504
N4 N 0.67588(13) 1.5760(2) 0.32571(12)
C5 C 0.70605(18) 1.3977(3) 0.29253(16)
H5 H 0.7252 1.3618 0.2700
N5 N 0.68648(14) 0.9555(3) 0.32730(13)
C6 C 0.5000 0.2079(4) 0.2500
C7 C 0.58440(16) 0.7594(3) 0.38895(14)
C8 C 0.57735(17) 0.7306(3) 0.44534(15)
C9 C 0.62899(18) 0.7375(3) 0.49985(15)
H6 H 0.6692 0.7607 0.5021
C10 C 0.62075(17) 0.7100(3) 0.55099(16)
C11 C 0.56047(18) 0.6753(4) 0.54783(16)
H7 H 0.5549 0.6569 0.5820
C12 C 0.50886(17) 0.6683(4) 0.49359(16)
C13 C 0.4197(2) 0.6252(4) 0.52495(18)
C14 C 0.3514(2) 0.5867(5) 0.4999(2)
H8 H 0.3470 0.5175 0.5200
H9 H 0.3382 0.5696 0.4588
H10 H 0.3249 0.6481 0.5046
C15 C 0.51787(17) 0.6950(4) 0.44288(16)
H11 H 0.4834 0.6890 0.4066
C16 C 0.67781(19) 0.7108(3) 0.60970(16)
C17 C 0.5092(2) 0.0235(3) 0.29848(16)
H12 H 0.5157 -0.0175 0.3328
C18 C 0.5095(2) 0.1444(3) 0.30044(16)
H13 H 0.5161 0.1831 0.3354
C19 C 0.61613(17) 0.7689(3) 0.21513(16)
H14 H 0.5866 0.7742 0.1763
C20 C 0.64958(18) 1.3899(3) 0.35440(16)
H15 H 0.6300 1.3484 0.3750
C21 C 0.67968(16) 1.3305(3) 0.32392(15)
C22 C 0.70347(18) 1.5182(3) 0.29518(16)
H16 H 0.7221 1.5620 0.2745
C23 C 0.68316(16) 1.2012(3) 0.32489(15)
C24 C 0.6903(2) 1.0174(3) 0.37382(17)
H17 H 0.6945 0.9772 0.4077
C25 C 0.6885(2) 1.1383(3) 0.37455(17)
H18 H 0.6909 1.1776 0.4082
C26 C 0.6808(2) 1.1365(3) 0.27688(17)
H19 H 0.6779 1.1742 0.2427
C27 C 0.6829(2) 1.0168(3) 0.28023(18)
H20 H 0.6817 0.9752 0.2476
C1A C 0.47883(18) 0.5220(3) 0.28472(15)
H1A H 0.4641 0.5629 0.3093
C2A C 0.47781(18) 0.4015(3) 0.28583(15)
H2A H 0.4623 0.3628 0.3105
C18A C 0.4905(2) 0.1444(3) 0.19956(16)
H13A H 0.4839 0.1831 0.1646
C17A C 0.4908(2) 0.0235(3) 0.20152(16)
H12A H 0.4843 -0.0175 0.1672
Zn1A Zn 0.31890(2) 0.76616(3) 0.16673(2)
O1A O 0.40455(11) 0.7751(2) 0.24464(10)
O2A O 0.46573(12) 0.7656(2) 0.15706(10)
O3A O 0.35883(12) 0.7724(2) 0.10723(10)
O4A O 0.55213(16) 0.6517(4) -0.07654(14)
O5A O 0.32679(13) 0.7562(2) 0.27525(14)
C3A C 0.35136(18) 1.5107(3) 0.14590(16)
H3A H 0.3720 1.5488 0.1252
O6A O 0.27115(12) 0.7519(2) -0.10955(12)
O7A O 0.32833(15) 0.6698(4) -0.15351(12)
N3A N 0.55370(15) 0.6316(3) 0.01449(13)
H4A H 0.5781 0.6104 0.0496
N4A N 0.32412(13) 1.5760(2) 0.17429(12)
C5A C 0.29395(18) 1.3977(3) 0.20747(16)
H5A H 0.2748 1.3618 0.2300
N5A N 0.31352(14) 0.9555(3) 0.17270(13)
C7A C 0.41560(16) 0.7594(3) 0.11105(14)
C8A C 0.42265(17) 0.7306(3) 0.05466(15)
C9A C 0.37101(18) 0.7375(3) 0.00015(15)
H6A H 0.3308 0.7607 -0.0021
C10A C 0.37925(17) 0.7100(3) -0.05099(16)
C11A C 0.43953(18) 0.6753(4) -0.04783(16)
H7A H 0.4451 0.6569 -0.0820
C12A C 0.49114(17) 0.6683(4) 0.00641(16)
C13A C 0.5803(2) 0.6252(4) -0.02495(18)
C14A C 0.6486(2) 0.5867(5) 0.0001(2)
H8A H 0.6530 0.5175 -0.0200
H9A H 0.6618 0.5696 0.0412
H10A H 0.6751 0.6481 -0.0046
C15A C 0.48213(17) 0.6950(4) 0.05712(16)
H11A H 0.5166 0.6890 0.0934
C16A C 0.32219(19) 0.7108(3) -0.10970(16)
C19A C 0.38387(17) 0.7689(3) 0.28487(16)
H14A H 0.4134 0.7742 0.3237
C20A C 0.35042(18) 1.3899(3) 0.14560(16)
H15A H 0.3700 1.3484 0.1250
C21A C 0.32032(16) 1.3305(3) 0.17608(15)
C22A C 0.29653(18) 1.5182(3) 0.20482(16)
H16A H 0.2779 1.5620 0.2255
C23A C 0.31684(16) 1.2012(3) 0.17511(15)
C24A C 0.3097(2) 1.0174(3) 0.12618(17)
H17A H 0.3055 0.9772 0.0923
C25A C 0.3115(2) 1.1383(3) 0.12545(17)
H18A H 0.3091 1.1776 0.0918
C26A C 0.3192(2) 1.1365(3) 0.22312(17)
H19A H 0.3221 1.1742 0.2573
C27A C 0.3171(2) 1.0168(3) 0.21977(18)
H20A H 0.3183 0.9752 0.2524
Zn1_2 Zn 0.68110(2) 1.76616(3) 0.33327(2)
Zn1A_2 Zn 0.31890(2) 1.76616(3) 0.16673(2)
Zn1F Zn 0.81890(2) 0.73384(3) 0.66673(2)
Zn1G Zn 0.18110(2) 0.73384(3) -0.16673(2)
Zn2_2 Zn 0.5000 -0.22671(5) 0.2500
N2_2 N 0.5000 0.9619(3) 0.2500
O6F O 0.77115(12) 0.7481(2) 0.39045(12)
O6G O 0.22885(12) 0.7481(2) 0.10955(12)
N4_2 N 0.67588(13) 0.5760(2) 0.32571(12)
N4A_2 N 0.32412(13) 0.5760(2) 0.17429(12)
O8 O 0.8670(2) 0.0644(4) 0.36391(16)
H21 H 0.858(12) 0.005(19) 0.349(11)
H22 H 0.838(10) 0.13(2) 0.344(10)
N6 N 0.1262(3) 0.4436(5) 0.0340(2)
C28 C 0.0768(5) 0.4458(10) -0.0169(4)
H23 H 0.0367 0.4411 -0.0152
C29 C 0.1931(4) 0.4269(11) 0.0307(5)
H24 H 0.1965 0.3482 0.0184
H25 H 0.2267 0.4409 0.0687
H26 H 0.1971 0.4814 0.0028
C30 C 0.1106(5) 0.4592(10) 0.0858(4)
H27 H 0.1197 0.5386 0.0997
H28 H 0.1361 0.4064 0.1164
H29 H 0.0658 0.4429 0.0752
O9 O 0.0761(8) 0.4523(15) -0.0595(5)
loop_
_geom_bond_atom_site_label_1
_geom_bond_atom_site_label_2
_geom_bond_site_symmetry_1
_geom_bond_site_symmetry_2
Zn1 O1 1_555 1_555
Zn2 O1 1_555 1_555
O1 C19 1_555 1_555
N1 Zn2 1_555 1_555
C1 N1 1_555 1_555
H1 C1 1_555 1_555
C2 C1 1_555 1_555
H2 C2 1_555 1_555
O2 Zn2 1_555 1_555
O3 Zn1 1_555 1_555
O4 C13 1_555 1_555
N2 C17 1_555 1_555
O5 C19 1_555 1_555
C3 H3 1_555 1_555
O6 C16 1_555 1_555
O7 C16 1_555 1_555
C4 C2 1_555 1_555
N3 H4 1_555 1_555
N4 C3 1_555 1_555
C5 H5 1_555 1_555
N5 Zn1 1_555 1_555
C6 C4 1_555 1_555
C7 O2 1_555 1_555
C8 C7 1_555 1_555
C9 C8 1_555 1_555
H6 C9 1_555 1_555
C10 C9 1_555 1_555
C11 C10 1_555 1_555
H7 C11 1_555 1_555
C12 N3 1_555 1_555
C13 N3 1_555 1_555
C14 C13 1_555 1_555
H8 C14 1_555 1_555
H9 C14 1_555 1_555
H10 C14 1_555 1_555
C15 C8 1_555 1_555
H11 C15 1_555 1_555
C16 C10 1_555 1_555
C17 H12 1_555 1_555
C18 C6 1_555 1_555
H13 C18 1_555 1_555
C19 H14 1_555 1_555
C20 C3 1_555 1_555
H15 C20 1_555 1_555
C21 C5 1_555 1_555
C22 N4 1_555 1_555
H16 C22 1_555 1_555
C23 C21 1_555 1_555
C24 N5 1_555 1_555
H17 C24 1_555 1_555
C25 C23 1_555 1_555
H18 C25 1_555 1_555
C26 C23 1_555 1_555
H19 C26 1_555 1_555
C27 N5 1_555 1_555
H20 C27 1_555 1_555
O8 H21 1_555 1_555
H22 O8 1_555 1_555
N6 C28 1_555 1_555
C28 H23 1_555 1_555
C29 N6 1_555 1_555
H24 C29 1_555 1_555
H25 C29 1_555 1_555
H26 C29 1_555 1_555
C30 N6 1_555 1_555
H27 C30 1_555 1_555
H28 C30 1_555 1_555
H29 C30 1_555 1_555
O9 C28 1_555 1_555
C1A N1 1_555 1_555
H1A C1A 1_555 1_555
C2A C4 1_555 1_555
H2A C2A 1_555 1_555
C18A C6 1_555 1_555
H13A C18A 1_555 1_555
C17A N2 1_555 1_555
H12A C17A 1_555 1_555
Zn1A O1A 1_555 1_555
O1A Zn2 1_555 1_555
O2A Zn2 1_555 1_555
O3A Zn1A 1_555 1_555
O4A C13A 1_555 1_555
O5A C19A 1_555 1_555
C3A H3A 1_555 1_555
O6A C16A 1_555 1_555
O7A C16A 1_555 1_555
N3A H4A 1_555 1_555
N4A C3A 1_555 1_555
C5A H5A 1_555 1_555
N5A Zn1A 1_555 1_555
C7A O2A 1_555 1_555
C8A C7A 1_555 1_555
C9A C8A 1_555 1_555
H6A C9A 1_555 1_555
C10A C9A 1_555 1_555
C11A C10A 1_555 1_555
H7A C11A 1_555 1_555
C12A N3A 1_555 1_555
C13A N3A 1_555 1_555
C14A C13A 1_555 1_555
H8A C14A 1_555 1_555
H9A C14A 1_555 1_555
H10A C14A 1_555 1_555
C15A C8A 1_555 1_555
H11A C15A 1_555 1_555
C16A C10A 1_555 1_555
C19A O1A 1_555 1_555
H14A C19A 1_555 1_555
C20A C3A 1_555 1_555
H15A C20A 1_555 1_555
C21A C5A 1_555 1_555
C22A N4A 1_555 1_555
H16A C22A 1_555 1_555
C23A C21A 1_555 1_555
C24A N5A 1_555 1_555
H17A C24A 1_555 1_555
C25A C23A 1_555 1_555
H18A C25A 1_555 1_555
C26A C23A 1_555 1_555
H19A C26A 1_555 1_555
C27A N5A 1_555 1_555
H20A C27A 1_555 1_555
Zn1_2 N4 1_555 1_555
Zn1A_2 N4A 1_555 1_555
Zn1F O6 1_555 1_555
Zn1G O6A 1_555 1_555
Zn2_2 N2 1_555 1_555
N2_2 Zn2 1_555 1_555
O6F Zn1 1_555 1_555
O6G Zn1A 1_555 1_555
N4_2 Zn1 1_555 1_555
N4A_2 Zn1A 1_555 1_555
O3 C7 1_555 1_555
C5 C22 1_555 1_555
C11 C12 1_555 1_555
C12 C15 1_555 1_555
C17 C18 1_555 1_555
C20 C21 1_555 1_555
C24 C25 1_555 1_555
C26 C27 1_555 1_555
C1A C2A 1_555 1_555
C18A C17A 1_555 1_555
O3A C7A 1_555 1_555
C5A C22A 1_555 1_555
C11A C12A 1_555 1_555
C12A C15A 1_555 1_555
C20A C21A 1_555 1_555
C24A C25A 1_555 1_555
C26A C27A 1_555 1_555

#END
