
#######################################################################
#
#                 Cambridge Crystallographic Data Centre
#                                CCDC 
#
#######################################################################
#
# If this CIF has been generated from an entry in the Cambridge 
# Structural Database, then it will include bibliographic, chemical, 
# crystal, experimental, refinement or atomic coordinate data resulting 
# from the CCDC's data processing and validation procedures.
#
#######################################################################

data_BUSJEG
_symmetry_cell_setting           monoclinic
_symmetry_space_group_name_H-M   'C 2/c'
_symmetry_Int_Tables_number      15
_space_group_name_Hall           '-C 2yn'
loop_
_symmetry_equiv_pos_site_id
_symmetry_equiv_pos_as_xyz
1 x,y,z
2 -x,y,1/2-z
3 1/2+x,1/2+y,z
4 1/2-x,1/2+y,1/2-z
5 -x,-y,-z
6 x,-y,1/2+z
7 1/2-x,1/2-y,-z
8 1/2+x,1/2-y,1/2+z
_cell_length_a                   18.882(5)
_cell_length_b                   14.835(5)
_cell_length_c                   12.602(5)
_cell_angle_alpha                90
_cell_angle_beta                 124.801(5)
_cell_angle_gamma                90
_cell_volume                     2898.62
loop_
_atom_site_label
_atom_site_type_symbol
_atom_site_fract_x
_atom_site_fract_y
_atom_site_fract_z
Mn1 Mn 1.0000 1.15930(10) 0.7500
O1 O 0.9316(2) 1.0653(3) 0.5950(3)
O2 O 0.8859(3) 0.9884(3) 0.6975(3)
N1 N 0.7841(3) 0.7245(4) 0.2346(4)
H1 H 0.7416 0.6836 0.2072
N2 N 0.8997(3) 0.8050(4) 0.2821(4)
N3 N 0.9161(3) 0.7183(3) 0.1072(4)
C1 C 0.8450(4) 0.7389(4) 0.2107(5)
C2 C 0.8717(3) 0.8369(4) 0.3570(5)
C3 C 0.9034(4) 0.9063(4) 0.4457(5)
H2 H 0.9502 0.9406 0.4632
C4 C 0.8631(4) 0.9236(4) 0.5085(5)
C5 C 0.7909(4) 0.8719(4) 0.4769(5)
H3 H 0.7651 0.8842 0.5199
C6 C 0.7566(4) 0.8046(5) 0.3865(5)
H4 H 0.7078 0.7729 0.3657
C7 C 0.7987(4) 0.7861(4) 0.3273(5)
C8 C 0.8961(4) 0.9969(5) 0.6077(5)
C9 C 0.8502(4) 0.6894(4) 0.1153(5)
C10 C 0.7954(4) 0.6205(5) 0.0380(5)
H5 H 0.7510 0.6025 0.0449
C11 C 0.8065(4) 0.5787(5) -0.0486(5)
H6 H 0.7700 0.5322 -0.1008
C12 C 0.8733(4) 0.6072(5) -0.0570(5)
H7 H 0.8822 0.5806 -0.1154
C13 C 0.9263(4) 0.6760(5) 0.0233(5)
H8 H 0.9716 0.6939 0.0186
O1A O 1.0684(2) 1.0653(3) 0.9050(3)
O2A O 1.1141(3) 0.9884(3) 0.8025(3)
N1A N 1.2159(3) 0.7245(4) 1.2654(4)
H1A H 1.2584 0.6836 1.2928
N2A N 1.1003(3) 0.8050(4) 1.2179(4)
N3A N 1.0839(3) 0.7183(3) 1.3928(4)
C1A C 1.1550(4) 0.7389(4) 1.2893(5)
C2A C 1.1283(3) 0.8369(4) 1.1430(5)
C3A C 1.0966(4) 0.9063(4) 1.0543(5)
H2A H 1.0498 0.9406 1.0368
C4A C 1.1369(4) 0.9236(4) 0.9915(5)
C5A C 1.2091(4) 0.8719(4) 1.0231(5)
H3A H 1.2349 0.8842 0.9801
C6A C 1.2434(4) 0.8046(5) 1.1135(5)
H4A H 1.2922 0.7729 1.1343
C7A C 1.2013(4) 0.7861(4) 1.1727(5)
C8A C 1.1039(4) 0.9969(5) 0.8923(5)
C9A C 1.1498(4) 0.6894(4) 1.3847(5)
C10A C 1.2046(4) 0.6205(5) 1.4620(5)
H5A H 1.2490 0.6025 1.4551
C11A C 1.1935(4) 0.5787(5) 1.5486(5)
H6A H 1.2300 0.5322 1.6008
C12A C 1.1267(4) 0.6072(5) 1.5570(5)
H7A H 1.1178 0.5806 1.6154
C13A C 1.0737(4) 0.6760(5) 1.4767(5)
H8A H 1.0284 0.6939 1.4814
Mn1D Mn 1.0000 0.84070(10) 0.2500
Mn1D_2 Mn 1.0000 0.84070(10) 1.2500
N2D N 1.1003(3) 1.1950(4) 0.7179(4)
N2E N 0.8997(3) 1.1950(4) 0.7821(4)
N3D N 1.0839(3) 1.2817(3) 0.8928(4)
N3E N 0.9161(3) 1.2817(3) 0.6072(4)
O3 O 0.6424(2) 0.6260(3) 0.1546(3)
H9 H 0.6275 0.5987 0.2024
H10 H 0.6120 0.5973 0.0790
O4 O 0.0000 0.4415(7) 0.2500
C14 C 0.0253(9) 0.3855(8) 0.3559(9)
H11 H 0.0852 0.3973 0.4243
H12 H -0.0091 0.3996 0.3886
C15 C 0.0156(8) 0.2950(7) 0.3229(8)
H13 H -0.0270 0.2670 0.3321
H14 H 0.0698 0.2631 0.3767
C14A C -0.0253(9) 0.3855(8) 0.1441(9)
H11A H -0.0852 0.3973 0.0757
H12A H 0.0091 0.3996 0.1114
C15A C -0.0156(8) 0.2950(7) 0.1771(8)
H13A H 0.0270 0.2670 0.1679
H14A H -0.0698 0.2631 0.1233
loop_
_geom_bond_atom_site_label_1
_geom_bond_atom_site_label_2
_geom_bond_site_symmetry_1
_geom_bond_site_symmetry_2
Mn1 O1 1_555 1_555
O1 C8 1_555 1_555
O2 C8 1_555 1_555
N1 H1 1_555 1_555
N2 C1 1_555 1_555
N3 C9 1_555 1_555
C1 N1 1_555 1_555
C2 N2 1_555 1_555
C3 C2 1_555 1_555
H2 C3 1_555 1_555
C4 C3 1_555 1_555
C5 C4 1_555 1_555
H3 C5 1_555 1_555
C6 C5 1_555 1_555
H4 C6 1_555 1_555
C7 N1 1_555 1_555
C8 C4 1_555 1_555
C9 C1 1_555 1_555
C10 C9 1_555 1_555
H5 C10 1_555 1_555
C11 C10 1_555 1_555
H6 C11 1_555 1_555
C12 C11 1_555 1_555
H7 C12 1_555 1_555
C13 N3 1_555 1_555
H8 C13 1_555 1_555
O3 H9 1_555 1_555
H10 O3 1_555 1_555
O4 C14 1_555 1_555
C14 H11 1_555 1_555
H12 C14 1_555 1_555
C15 C14 1_555 1_555
H13 C15 1_555 1_555
H14 C15 1_555 1_555
O1A Mn1 1_555 1_555
O2A C8A 1_555 1_555
N1A H1A 1_555 1_555
N2A C1A 1_555 1_555
N3A C9A 1_555 1_555
C1A N1A 1_555 1_555
C2A N2A 1_555 1_555
C3A C2A 1_555 1_555
H2A C3A 1_555 1_555
C4A C3A 1_555 1_555
C5A C4A 1_555 1_555
H3A C5A 1_555 1_555
C6A C5A 1_555 1_555
H4A C6A 1_555 1_555
C7A N1A 1_555 1_555
C8A O1A 1_555 1_555
C9A C1A 1_555 1_555
C10A C9A 1_555 1_555
H5A C10A 1_555 1_555
C11A C10A 1_555 1_555
H6A C11A 1_555 1_555
C12A C11A 1_555 1_555
H7A C12A 1_555 1_555
C13A N3A 1_555 1_555
H8A C13A 1_555 1_555
Mn1D N2 1_555 1_555
Mn1D_2 N2A 1_555 1_555
N2D Mn1 1_555 1_555
N2E Mn1 1_555 1_555
N3D Mn1 1_555 1_555
N3E Mn1 1_555 1_555
C14A O4 1_555 1_555
H11A C14A 1_555 1_555
H12A C14A 1_555 1_555
C15A C15 1_555 1_555
H13A C15A 1_555 1_555
H14A C15A 1_555 1_555
N3 Mn1D 1_555 1_555
C2 C7 1_555 1_555
C6 C7 1_555 1_555
C12 C13 1_555 1_555
N3A Mn1D_2 1_555 1_555
C2A C7A 1_555 1_555
C4A C8A 1_555 1_555
C6A C7A 1_555 1_555
C12A C13A 1_555 1_555
C14A C15A 1_555 1_555

#END
