
#######################################################################
#
#                 Cambridge Crystallographic Data Centre
#                                CCDC 
#
#######################################################################
#
# If this CIF has been generated from an entry in the Cambridge 
# Structural Database, then it will include bibliographic, chemical, 
# crystal, experimental, refinement or atomic coordinate data resulting 
# from the CCDC's data processing and validation procedures.
#
#######################################################################

data_BUSLIM
_symmetry_cell_setting           monoclinic
_symmetry_space_group_name_H-M   'C 2/c'
_symmetry_Int_Tables_number      15
_space_group_name_Hall           '-C 2yn'
loop_
_symmetry_equiv_pos_site_id
_symmetry_equiv_pos_as_xyz
1 x,y,z
2 -x,y,1/2-z
3 1/2+x,1/2+y,z
4 1/2-x,1/2+y,1/2-z
5 -x,-y,-z
6 x,-y,1/2+z
7 1/2-x,1/2-y,-z
8 1/2+x,1/2-y,1/2+z
_cell_length_a                   18.1409(6)
_cell_length_b                   16.0861(6)
_cell_length_c                   12.4109(4)
_cell_angle_alpha                90
_cell_angle_beta                 124.807(2)
_cell_angle_gamma                90
_cell_volume                     2973.71
loop_
_atom_site_label
_atom_site_type_symbol
_atom_site_fract_x
_atom_site_fract_y
_atom_site_fract_z
Mn1 Mn 1.0000 1.14504(2) 0.7500
O1 O 0.92561(8) 1.06135(7) 0.58850(11)
O2 O 0.87687(9) 0.99297(8) 0.69263(12)
N1 N 0.78557(9) 0.73573(9) 0.24897(14)
H1 H 0.7454 0.6955 0.2180
N2 N 0.89717(9) 0.81689(8) 0.28345(13)
N3 N 0.91453(9) 0.73808(9) 0.10688(13)
C1 C 0.84614(11) 0.75169(10) 0.22012(16)
C2 C 0.86756(11) 0.84690(10) 0.35733(15)
C3 C 0.89649(11) 0.91530(10) 0.44071(15)
H2 H 0.9423 0.9495 0.4539
C4 C 0.85457(11) 0.93063(10) 0.50328(16)
C5 C 0.78281(11) 0.87996(11) 0.47878(16)
H3 H 0.7554 0.8920 0.5214
C6 C 0.75217(12) 0.81336(11) 0.39401(17)
H4 H 0.7039 0.7812 0.3767
C7 C 0.79713(11) 0.79658(10) 0.33545(16)
C8 C 0.88757(11) 0.99921(10) 0.60288(16)
C9 C 0.85360(11) 0.70557(10) 0.12460(16)
C10 C 0.80100(12) 0.63739(11) 0.05502(17)
H5 H 0.7598 0.6163 0.0699
C11 C 0.81109(12) 0.60115(11) -0.03727(18)
H6 H 0.7760 0.5559 -0.0865
C12 C 0.87417(12) 0.63339(11) -0.05488(17)
H7 H 0.8830 0.6096 -0.1150
C13 C 0.92392(12) 0.70175(11) 0.01865(17)
H8 H 0.9660 0.7234 0.0060
O1A O 1.07439(8) 1.06135(7) 0.91150(11)
O2A O 1.12313(9) 0.99297(8) 0.80737(12)
N1A N 1.21443(9) 0.73573(9) 1.25103(14)
H1A H 1.2546 0.6955 1.2820
N2A N 1.10283(9) 0.81689(8) 1.21655(13)
N3A N 1.08547(9) 0.73808(9) 1.39312(13)
C1A C 1.15386(11) 0.75169(10) 1.27988(16)
C2A C 1.13244(11) 0.84690(10) 1.14267(15)
C3A C 1.10351(11) 0.91530(10) 1.05929(15)
H2A H 1.0577 0.9495 1.0461
C4A C 1.14543(11) 0.93063(10) 0.99672(16)
C5A C 1.21719(11) 0.87996(11) 1.02122(16)
H3A H 1.2446 0.8920 0.9786
C6A C 1.24783(12) 0.81336(11) 1.10599(17)
H4A H 1.2961 0.7812 1.1233
C7A C 1.20287(11) 0.79658(10) 1.16455(16)
C8A C 1.11243(11) 0.99921(10) 0.89712(16)
C9A C 1.14640(11) 0.70557(10) 1.37540(16)
C10A C 1.19900(12) 0.63739(11) 1.44498(17)
H5A H 1.2402 0.6163 1.4301
C11A C 1.18891(12) 0.60115(11) 1.53727(18)
H6A H 1.2240 0.5559 1.5865
C12A C 1.12583(12) 0.63339(11) 1.55488(17)
H7A H 1.1170 0.6096 1.6150
C13A C 1.07608(12) 0.70175(11) 1.48135(17)
H8A H 1.0340 0.7234 1.4940
Mn1D Mn 1.0000 0.85496(2) 0.2500
Mn1D_2 Mn 1.0000 0.85496(2) 1.2500
N2D N 1.10283(9) 1.18311(8) 0.71655(13)
N2E N 0.89717(9) 1.18311(8) 0.78345(13)
N3D N 1.08547(9) 1.26192(9) 0.89312(13)
N3E N 0.91453(9) 1.26192(9) 0.60688(13)
C14 C 1.0000 0.6944(2) 0.7500
C15 C 0.95663(16) 0.64994(17) 0.6318(3)
H9 H 0.9272 0.6782 0.5522
C16 C 0.9577(2) 0.5659(2) 0.6336(4)
H10 H 0.9294 0.5370 0.5547
C17 C 1.0000 0.5220(3) 0.7500
H11 H 1.0000 0.4642 0.7500
C18 C 1.0000 0.7859(2) 0.7500
C15A C 1.04337(16) 0.64994(17) 0.8682(3)
H9A H 1.0728 0.6782 0.9478
C16A C 1.0423(2) 0.5659(2) 0.8664(4)
H10A H 1.0706 0.5370 0.9453
O3 O 0.65360(9) 0.61989(8) 0.16624(13)
H12 H 0.6281 0.5991 0.0881
H13 H 0.6442 0.5917 0.2188
H14? H 0.9743 0.8058 0.6625
H15? H 1.0605 0.8058 0.8068
H16? H 0.9652 0.8058 0.7808
loop_
_geom_bond_atom_site_label_1
_geom_bond_atom_site_label_2
_geom_bond_site_symmetry_1
_geom_bond_site_symmetry_2
Mn1 O1 1_555 1_555
O1 C8 1_555 1_555
O2 C8 1_555 1_555
N1 H1 1_555 1_555
N2 C1 1_555 1_555
N3 C9 1_555 1_555
C1 N1 1_555 1_555
C2 N2 1_555 1_555
C3 C2 1_555 1_555
H2 C3 1_555 1_555
C4 C3 1_555 1_555
C5 C4 1_555 1_555
H3 C5 1_555 1_555
C6 C5 1_555 1_555
H4 C6 1_555 1_555
C7 N1 1_555 1_555
C8 C4 1_555 1_555
C9 C1 1_555 1_555
C10 C9 1_555 1_555
H5 C10 1_555 1_555
C11 C10 1_555 1_555
H6 C11 1_555 1_555
C12 C11 1_555 1_555
H7 C12 1_555 1_555
C13 N3 1_555 1_555
H8 C13 1_555 1_555
C14 C15 1_555 1_555
C15 H9 1_555 1_555
C16 C15 1_555 1_555
H10 C16 1_555 1_555
C17 C16 1_555 1_555
H11 C17 1_555 1_555
C18 C14 1_555 1_555
O3 H12 1_555 1_555
H13 O3 1_555 1_555
O1A Mn1 1_555 1_555
O2A C8A 1_555 1_555
N1A H1A 1_555 1_555
N2A C1A 1_555 1_555
N3A C9A 1_555 1_555
C1A N1A 1_555 1_555
C2A N2A 1_555 1_555
C3A C2A 1_555 1_555
H2A C3A 1_555 1_555
C4A C3A 1_555 1_555
C5A C4A 1_555 1_555
H3A C5A 1_555 1_555
C6A C5A 1_555 1_555
H4A C6A 1_555 1_555
C7A N1A 1_555 1_555
C8A O1A 1_555 1_555
C9A C1A 1_555 1_555
C10A C9A 1_555 1_555
H5A C10A 1_555 1_555
C11A C10A 1_555 1_555
H6A C11A 1_555 1_555
C12A C11A 1_555 1_555
H7A C12A 1_555 1_555
C13A N3A 1_555 1_555
H8A C13A 1_555 1_555
Mn1D N2 1_555 1_555
Mn1D_2 N2A 1_555 1_555
N2D Mn1 1_555 1_555
N2E Mn1 1_555 1_555
N3D Mn1 1_555 1_555
N3E Mn1 1_555 1_555
C15A C14 1_555 1_555
H9A C15A 1_555 1_555
C16A C17 1_555 1_555
H10A C16A 1_555 1_555
N3 Mn1D 1_555 1_555
C2 C7 1_555 1_555
C6 C7 1_555 1_555
C12 C13 1_555 1_555
N3A Mn1D_2 1_555 1_555
C2A C7A 1_555 1_555
C4A C8A 1_555 1_555
C6A C7A 1_555 1_555
C12A C13A 1_555 1_555
C15A C16A 1_555 1_555

#END
