
#######################################################################
#
#                 Cambridge Crystallographic Data Centre
#                                CCDC 
#
#######################################################################
#
# If this CIF has been generated from an entry in the Cambridge 
# Structural Database, then it will include bibliographic, chemical, 
# crystal, experimental, refinement or atomic coordinate data resulting 
# from the CCDC's data processing and validation procedures.
#
#######################################################################

data_BUSMUY
_symmetry_cell_setting           rhombohedral
_symmetry_space_group_name_H-M   'R -3'
_symmetry_Int_Tables_number      148
_space_group_name_Hall           '-R 3'
loop_
_symmetry_equiv_pos_site_id
_symmetry_equiv_pos_as_xyz
1 x,y,z
2 -y,x-y,z
3 -x+y,-x,z
4 2/3+x,1/3+y,1/3+z
5 2/3-y,1/3+x-y,1/3+z
6 2/3-x+y,1/3-x,1/3+z
7 1/3+x,2/3+y,2/3+z
8 1/3-y,2/3+x-y,2/3+z
9 1/3-x+y,2/3-x,2/3+z
10 -x,-y,-z
11 y,-x+y,-z
12 x-y,x,-z
13 1/3-x,2/3-y,2/3-z
14 1/3+y,2/3-x+y,2/3-z
15 1/3+x-y,2/3+x,2/3-z
16 2/3-x,1/3-y,1/3-z
17 2/3+y,1/3-x+y,1/3-z
18 2/3+x-y,1/3+x,1/3-z
_cell_length_a                   28.222(5)
_cell_length_b                   28.222(5)
_cell_length_c                   9.413(3)
_cell_angle_alpha                90
_cell_angle_beta                 90
_cell_angle_gamma                120
_cell_volume                     6492.83
loop_
_atom_site_label
_atom_site_type_symbol
_atom_site_fract_x
_atom_site_fract_y
_atom_site_fract_z
Co1 Co 0.0000 0.5000 1.0000
N1 N -0.06879(8) 0.48484(8) 0.8656(2)
N2 N 0.01567(8) 0.47118(8) 0.81846(19)
N3 N 0.05461(8) 0.45986(8) 0.7724(2)
N4 N -0.01175(9) 0.43189(8) 0.6051(2)
N5 N 0.12548(8) 0.37581(8) 0.4193(2)
C1 C -0.10855(13) 0.49622(13) 0.8912(3)
H1 H -0.1090 0.5115 0.9784
C2 C -0.14863(14) 0.48634(16) 0.7951(4)
H2 H -0.1756 0.4949 0.8168
C3 C -0.14877(15) 0.46374(16) 0.6662(4)
H3 H -0.1760 0.4565 0.5998
C4 C -0.10843(13) 0.45199(13) 0.6368(3)
H4 H -0.1076 0.4368 0.5498
C5 C -0.06888(10) 0.46299(10) 0.7380(3)
C6 C -0.02246(10) 0.45404(9) 0.7172(3)
C7 C 0.03624(10) 0.43642(9) 0.6461(2)
C8 C 0.06715(9) 0.41681(9) 0.5637(2)
C9 C 0.04748(11) 0.38659(13) 0.4427(3)
H5 H 0.0139 0.3794 0.4061
C10 C 0.07680(12) 0.36681(14) 0.3751(3)
H6 H 0.0620 0.3459 0.2936
C11 C 0.14465(11) 0.40610(12) 0.5346(3)
H7 H 0.1790 0.4141 0.5670
C12 C 0.11713(11) 0.42652(12) 0.6097(3)
H8 H 0.1324 0.4469 0.6917
Co1E Co 0.1667 0.3333 0.3333
Co1H Co -0.1667 0.6667 1.6667
N1I N 0.06879(8) 0.51516(8) 1.1344(2)
N2I N -0.01567(8) 0.52882(8) 1.18154(19)
N3I N -0.05461(8) 0.54014(8) 1.2276(2)
N4I N 0.01175(9) 0.56811(8) 1.3949(2)
N5I N -0.12548(8) 0.62419(8) 1.5807(2)
N5G N -0.04248(8) 0.41634(11) 1.0860(2)
N5P N 0.04248(8) 0.58366(11) 0.9140(2)
C1I C 0.10855(13) 0.50378(13) 1.1088(3)
H1I H 0.1090 0.4885 1.0216
C2I C 0.14863(14) 0.51366(16) 1.2049(4)
H2I H 0.1756 0.5051 1.1832
C3I C 0.14877(15) 0.53626(16) 1.3338(4)
H3I H 0.1760 0.5435 1.4002
C4I C 0.10843(13) 0.54801(13) 1.3632(3)
H4I H 0.1076 0.5632 1.4502
C5I C 0.06888(10) 0.53701(10) 1.2620(3)
C6I C 0.02246(10) 0.54596(9) 1.2828(3)
C7I C -0.03624(10) 0.56358(9) 1.3539(2)
C8I C -0.06715(9) 0.58319(9) 1.4363(2)
C9I C -0.04748(11) 0.61341(13) 1.5573(3)
H5I H -0.0139 0.6206 1.5939
C10I C -0.07680(12) 0.63319(14) 1.6249(3)
H6I H -0.0620 0.6541 1.7064
C11I C -0.14465(11) 0.59390(12) 1.4654(3)
H7I H -0.1790 0.5859 1.4330
C12I C -0.11713(11) 0.57348(12) 1.3903(3)
H8I H -0.1324 0.5531 1.3083
loop_
_geom_bond_atom_site_label_1
_geom_bond_atom_site_label_2
_geom_bond_site_symmetry_1
_geom_bond_site_symmetry_2
Co1 N1 1_555 1_555
N1 C1 1_555 1_555
N2 Co1 1_555 1_555
N3 N2 1_555 1_555
N4 C6 1_555 1_555
N5 C10 1_555 1_555
C1 H1 1_555 1_555
C2 C1 1_555 1_555
H2 C2 1_555 1_555
C3 C2 1_555 1_555
H3 C3 1_555 1_555
C4 C3 1_555 1_555
H4 C4 1_555 1_555
C5 N1 1_555 1_555
C6 N2 1_555 1_555
C7 N3 1_555 1_555
C8 C7 1_555 1_555
C9 C8 1_555 1_555
H5 C9 1_555 1_555
C10 C9 1_555 1_555
H6 C10 1_555 1_555
C11 N5 1_555 1_555
H7 C11 1_555 1_555
C12 C8 1_555 1_555
H8 C12 1_555 1_555
Co1E N5 1_555 1_555
Co1H N5I 1_555 1_555
N1I Co1 1_555 1_555
N2I Co1 1_555 1_555
N3I N2I 1_555 1_555
N4I C6I 1_555 1_555
N5I C10I 1_555 1_555
N5G Co1 1_555 1_555
N5P Co1 1_555 1_555
C1I N1I 1_555 1_555
H1I C1I 1_555 1_555
C2I C1I 1_555 1_555
H2I C2I 1_555 1_555
C3I C2I 1_555 1_555
H3I C3I 1_555 1_555
C4I C3I 1_555 1_555
H4I C4I 1_555 1_555
C5I N1I 1_555 1_555
C6I N2I 1_555 1_555
C7I N3I 1_555 1_555
C8I C7I 1_555 1_555
C9I C8I 1_555 1_555
H5I C9I 1_555 1_555
C10I C9I 1_555 1_555
H6I C10I 1_555 1_555
C11I N5I 1_555 1_555
H7I C11I 1_555 1_555
C12I C8I 1_555 1_555
H8I C12I 1_555 1_555
N4 C7 1_555 1_555
C4 C5 1_555 1_555
C5 C6 1_555 1_555
C11 C12 1_555 1_555
N4I C7I 1_555 1_555
C4I C5I 1_555 1_555
C5I C6I 1_555 1_555
C11I C12I 1_555 1_555

#END
