
#######################################################################
#
#                 Cambridge Crystallographic Data Centre
#                                CCDC 
#
#######################################################################
#
# If this CIF has been generated from an entry in the Cambridge 
# Structural Database, then it will include bibliographic, chemical, 
# crystal, experimental, refinement or atomic coordinate data resulting 
# from the CCDC's data processing and validation procedures.
#
#######################################################################

data_BUSMUZ
_symmetry_cell_setting           orthorhombic
_symmetry_space_group_name_H-M   'P c c a'
_symmetry_Int_Tables_number      54
_space_group_name_Hall           '-P 2a 2ac'
loop_
_symmetry_equiv_pos_site_id
_symmetry_equiv_pos_as_xyz
1 x,y,z
2 1/2-x,-y,z
3 1/2+x,-y,1/2-z
4 -x,y,1/2-z
5 -x,-y,-z
6 1/2+x,y,-z
7 1/2-x,y,1/2+z
8 x,-y,1/2+z
_cell_length_a                   23.874(5)
_cell_length_b                   7.4491(15)
_cell_length_c                   7.1787(14)
_cell_angle_alpha                90
_cell_angle_beta                 90
_cell_angle_gamma                90
_cell_volume                     1276.66
loop_
_atom_site_label
_atom_site_type_symbol
_atom_site_fract_x
_atom_site_fract_y
_atom_site_fract_z
La1 La 0.5000 0.70300(2) 0.2500
Cl1 Cl 0.5000 1.0000 0.0000
Cl2 Cl 0.43578(3) 0.43410(9) 0.06632(9)
N1 N 0.60942(8) 0.8317(3) 0.2603(4)
C1 C 0.65407(10) 0.7220(3) 0.2460(5)
H1 H 0.6475 0.5965 0.2372
C2 C 0.70912(10) 0.7814(3) 0.2433(5)
H2 H 0.7389 0.6976 0.2320
C3 C 0.72067(9) 0.9654(3) 0.2574(4)
C4 C 0.62033(10) 1.0086(4) 0.2693(4)
H3 H 0.5896 1.0896 0.2760
C5 C 0.67445(10) 1.0791(4) 0.2693(4)
H4 H 0.6798 1.2052 0.2775
N1A N 0.89058(8) 1.1683(3) 0.2603(4)
C1A C 0.84593(10) 1.2780(3) 0.2460(5)
H1A H 0.8525 1.4035 0.2372
C2A C 0.79088(10) 1.2186(3) 0.2433(5)
H2A H 0.7611 1.3024 0.2320
C3A C 0.77933(9) 1.0346(3) 0.2574(4)
C4A C 0.87967(10) 0.9914(4) 0.2693(4)
H3A H 0.9104 0.9104 0.2760
C5A C 0.82555(10) 0.9209(4) 0.2693(4)
H4A H 0.8202 0.7948 0.2775
Cl2C Cl 0.56422(3) 0.43410(9) 0.43368(9)
La1A La 1.0000 1.29700(2) 0.2500
La1D La 0.5000 0.29700(2) -0.2500
La1D_2 La 0.5000 0.29700(2) 0.7500
La1D_3 La 0.5000 1.29700(2) -0.2500
Cl1C Cl 0.5000 1.0000 0.5000
Cl2D Cl 0.56422(3) 0.56590(9) -0.06632(9)
Cl2G Cl 0.43578(3) 0.56590(9) 0.56632(9)
N1C N 0.39058(8) 0.8317(3) 0.2397(4)
loop_
_geom_bond_atom_site_label_1
_geom_bond_atom_site_label_2
_geom_bond_site_symmetry_1
_geom_bond_site_symmetry_2
La1 Cl1 1_555 1_555
Cl1 La1D_3 1_555 1_555
Cl2 La1 1_555 1_555
N1 La1 1_555 1_555
C1 N1 1_555 1_555
H1 C1 1_555 1_555
C2 C1 1_555 1_555
H2 C2 1_555 1_555
C3 C2 1_555 1_555
C4 N1 1_555 1_555
H3 C4 1_555 1_555
C5 C3 1_555 1_555
H4 C5 1_555 1_555
N1A C1A 1_555 1_555
C1A H1A 1_555 1_555
C2A C1A 1_555 1_555
H2A C2A 1_555 1_555
C3A C3 1_555 1_555
C4A N1A 1_555 1_555
H3A C4A 1_555 1_555
C5A C3A 1_555 1_555
H4A C5A 1_555 1_555
Cl2C La1 1_555 1_555
La1A N1A 1_555 1_555
La1D Cl2 1_555 1_555
La1D_2 Cl2C 1_555 1_555
Cl1C La1 1_555 1_555
Cl2D La1 1_555 1_555
Cl2G La1 1_555 1_555
N1C La1 1_555 1_555
C4 C5 1_555 1_555
C2A C3A 1_555 1_555
C4A C5A 1_555 1_555
La1D Cl2D 1_555 1_555
La1D_2 Cl2G 1_555 1_555

#END
