
#######################################################################
#
#                 Cambridge Crystallographic Data Centre
#                                CCDC 
#
#######################################################################
#
# If this CIF has been generated from an entry in the Cambridge 
# Structural Database, then it will include bibliographic, chemical, 
# crystal, experimental, refinement or atomic coordinate data resulting 
# from the CCDC's data processing and validation procedures.
#
#######################################################################

data_BUSNAG
_symmetry_cell_setting           orthorhombic
_symmetry_space_group_name_H-M   'C m c m'
_symmetry_Int_Tables_number      63
_space_group_name_Hall           '-C 2n 2'
loop_
_symmetry_equiv_pos_site_id
_symmetry_equiv_pos_as_xyz
1 x,y,z
2 -x,-y,1/2+z
3 x,-y,-z
4 -x,y,1/2-z
5 1/2+x,1/2+y,z
6 1/2-x,1/2-y,1/2+z
7 1/2+x,1/2-y,-z
8 1/2-x,1/2+y,1/2-z
9 -x,-y,-z
10 x,y,1/2-z
11 -x,y,z
12 x,-y,1/2+z
13 1/2-x,1/2-y,-z
14 1/2+x,1/2+y,1/2-z
15 1/2-x,1/2+y,z
16 1/2+x,1/2-y,1/2+z
_cell_length_a                   12.1349(14)
_cell_length_b                   20.155(2)
_cell_length_c                   16.062(2)
_cell_angle_alpha                90
_cell_angle_beta                 90
_cell_angle_gamma                90
_cell_volume                     3928.43
loop_
_atom_site_label
_atom_site_type_symbol
_atom_site_fract_x
_atom_site_fract_y
_atom_site_fract_z
Pr1 Pr 0.0000 0.06379(3) 0.88229(3)
Pr2 Pr 0.0000 0.25151(4) 0.7500
Cl1 Cl -0.13282(17) 0.12796(12) 0.7500
Cl2 Cl 0.0000 -0.02519(17) 0.7500
Cl3 Cl 0.0000 0.19805(14) 0.91894(19)
Cl4 Cl 0.0000 0.06927(12) 1.05636(16)
Cl5 Cl 0.0000 0.35341(17) 0.6414(3)
N1 N 0.2080(5) 0.0545(5) 0.9115(5)
C1 C 0.2645(7) 0.1021(7) 0.9494(6)
H1 H 0.2238 0.1353 0.9779
C2 C 0.3783(7) 0.1069(7) 0.9507(7)
H2 H 0.4143 0.1426 0.9782
C3 C 0.4385(7) 0.0572(6) 0.9099(6)
C4 C 0.3796(7) 0.0074(5) 0.8716(8)
H3 H 0.4173 -0.0277 0.8441
C5 C 0.2670(7) 0.0083(5) 0.8730(8)
H4 H 0.2287 -0.0261 0.8448
C6 C 0.2667(7) 0.2840(6) 0.6808(8)
H5 H 0.2268 0.2833 0.6299
N2 N 0.2099(7) 0.2811(5) 0.7500
C7 C 0.3789(7) 0.2877(7) 0.6762(8)
H6 H 0.4153 0.2884 0.6238
C8 C 0.4385(9) 0.2905(5) 0.7500
N1J N 0.7920(5) 0.0545(5) 0.9115(5)
C1J C 0.7355(7) 0.1021(7) 0.9494(6)
H1J H 0.7762 0.1353 0.9779
C2J C 0.6217(7) 0.1069(7) 0.9507(7)
H2J H 0.5857 0.1426 0.9782
C3J C 0.5615(7) 0.0572(6) 0.9099(6)
C4J C 0.6204(7) 0.0074(5) 0.8716(8)
H3J H 0.5827 -0.0277 0.8441
C5J C 0.7330(7) 0.0083(5) 0.8730(8)
H4J H 0.7713 -0.0261 0.8448
C6C C 0.7333(7) 0.2840(6) 0.8192(8)
H5C H 0.7732 0.2833 0.8701
N2C N 0.7901(7) 0.2811(5) 0.7500
C7C C 0.6211(7) 0.2877(7) 0.8238(8)
H6C H 0.5847 0.2884 0.8762
C8C C 0.5615(9) 0.2905(5) 0.7500
C6I C 0.2667(7) 0.2840(6) 0.8192(8)
H5I H 0.2268 0.2833 0.8701
C7I C 0.3789(7) 0.2877(7) 0.8238(8)
H6I H 0.4153 0.2884 0.8762
C6J C 0.7333(7) 0.2840(6) 0.6808(8)
H5J H 0.7732 0.2833 0.6299
C7J C 0.6211(7) 0.2877(7) 0.6762(8)
H6J H 0.5847 0.2884 0.6238
Pr1B Pr 0.0000 -0.06379(3) 1.11771(3)
Cl3B Cl 0.0000 -0.19805(14) 1.08106(19)
Cl4B Cl 0.0000 -0.06927(12) 0.94364(16)
N1B N 0.2080(5) -0.0545(5) 1.0885(5)
C1B C 0.2645(7) -0.1021(7) 1.0506(6)
H1B H 0.2238 -0.1353 1.0221
C2B C 0.3783(7) -0.1069(7) 1.0493(7)
H2B H 0.4143 -0.1426 1.0218
C3B C 0.4385(7) -0.0572(6) 1.0901(6)
C4B C 0.3796(7) -0.0074(5) 1.1284(8)
H3B H 0.4173 0.0277 1.1559
C5B C 0.2670(7) -0.0083(5) 1.1270(8)
H4B H 0.2287 0.0261 1.1552
N1H N 0.7920(5) -0.0545(5) 1.0885(5)
C1H C 0.7355(7) -0.1021(7) 1.0506(6)
H1H H 0.7762 -0.1353 1.0221
C2H C 0.6217(7) -0.1069(7) 1.0493(7)
H2H H 0.5857 -0.1426 1.0218
C3H C 0.5615(7) -0.0572(6) 1.0901(6)
C4H C 0.6204(7) -0.0074(5) 1.1284(8)
H3H H 0.5827 0.0277 1.1559
C5H C 0.7330(7) -0.0083(5) 1.1270(8)
H4H H 0.7713 0.0261 1.1552
Cl1C Cl 0.13282(17) 0.12796(12) 0.7500
Cl5C Cl 0.0000 0.35341(17) 0.8586(3)
Pr1_2 Pr 1.0000 0.06379(3) 0.88229(3)
Pr1B_2 Pr 1.0000 -0.06379(3) 1.11771(3)
Pr1C Pr 0.0000 0.06379(3) 0.61771(3)
Pr2_2 Pr 1.0000 0.25151(4) 0.7500
Pr2A Pr 0.0000 -0.25151(4) 1.2500
Cl1A Cl 0.13282(17) -0.12796(12) 1.2500
Cl1B Cl -0.13282(17) -0.12796(12) 1.2500
Cl2A Cl 0.0000 0.02519(17) 1.2500
Cl3C Cl 0.0000 0.19805(14) 0.58106(19)
N1H_2 N -0.2080(5) -0.0545(5) 1.0885(5)
N1J_2 N -0.2080(5) 0.0545(5) 0.9115(5)
N2C_2 N -0.2099(7) 0.2811(5) 0.7500
loop_
_geom_bond_atom_site_label_1
_geom_bond_atom_site_label_2
_geom_bond_site_symmetry_1
_geom_bond_site_symmetry_2
Pr1 Cl1 1_555 1_555
Pr2 Cl1 1_555 1_555
Cl1 Pr1C 1_555 1_555
Cl2 Pr1 1_555 1_555
Cl3 Pr1 1_555 1_555
Cl4 Pr1 1_555 1_555
Cl5 Pr2 1_555 1_555
N1 Pr1 1_555 1_555
C1 N1 1_555 1_555
H1 C1 1_555 1_555
C2 C1 1_555 1_555
H2 C2 1_555 1_555
C3 C2 1_555 1_555
C4 C3 1_555 1_555
H3 C4 1_555 1_555
C5 N1 1_555 1_555
H4 C5 1_555 1_555
C6 H5 1_555 1_555
N2 Pr2 1_555 1_555
C7 C6 1_555 1_555
H6 C7 1_555 1_555
C8 C7 1_555 1_555
N1J C1J 1_555 1_555
C1J H1J 1_555 1_555
C2J C1J 1_555 1_555
H2J C2J 1_555 1_555
C3J C3 1_555 1_555
C4J C3J 1_555 1_555
H3J C4J 1_555 1_555
C5J N1J 1_555 1_555
H4J C5J 1_555 1_555
C6C H5C 1_555 1_555
N2C C6C 1_555 1_555
C7C C6C 1_555 1_555
H6C C7C 1_555 1_555
C8C C8 1_555 1_555
C6I N2 1_555 1_555
H5I C6I 1_555 1_555
C7I C8 1_555 1_555
H6I C7I 1_555 1_555
C6J N2C 1_555 1_555
H5J C6J 1_555 1_555
C7J C8C 1_555 1_555
H6J C7J 1_555 1_555
Pr1B Cl4 1_555 1_555
Cl3B Pr1B 1_555 1_555
Cl4B Pr1 1_555 1_555
N1B Pr1B 1_555 1_555
C1B N1B 1_555 1_555
H1B C1B 1_555 1_555
C2B C1B 1_555 1_555
H2B C2B 1_555 1_555
C3B C2B 1_555 1_555
C4B C3B 1_555 1_555
H3B C4B 1_555 1_555
C5B N1B 1_555 1_555
H4B C5B 1_555 1_555
N1H C1H 1_555 1_555
C1H H1H 1_555 1_555
C2H C1H 1_555 1_555
H2H C2H 1_555 1_555
C3H C3B 1_555 1_555
C4H C3H 1_555 1_555
H3H C4H 1_555 1_555
C5H N1H 1_555 1_555
H4H C5H 1_555 1_555
Cl1C Pr1 1_555 1_555
Cl5C Pr2 1_555 1_555
Pr1_2 N1J 1_555 1_555
Pr1B_2 N1H 1_555 1_555
Pr1C Cl2 1_555 1_555
Pr2_2 N2C 1_555 1_555
Pr2A Cl3B 1_555 1_555
Cl1A Pr1B 1_555 1_555
Cl1B Pr1B 1_555 1_555
Cl2A Pr1B 1_555 1_555
Cl3C Pr2 1_555 1_555
N1H_2 Pr1B 1_555 1_555
N1J_2 Pr1 1_555 1_555
N2C_2 Pr2 1_555 1_555
Pr2 Cl3 1_555 1_555
Pr2 Cl1C 1_555 1_555
C4 C5 1_555 1_555
C6 N2 1_555 1_555
C2J C3J 1_555 1_555
C4J C5J 1_555 1_555
C7C C8C 1_555 1_555
C6I C7I 1_555 1_555
C6J C7J 1_555 1_555
Pr1B Cl4B 1_555 1_555
C4B C5B 1_555 1_555
C2H C3H 1_555 1_555
C4H C5H 1_555 1_555
Cl1C Pr1C 1_555 1_555
Pr1C Cl3C 1_555 1_555
Pr2A Cl1A 1_555 1_555
Pr2A Cl1B 1_555 1_555

#END
