
#######################################################################
#
#                 Cambridge Crystallographic Data Centre
#                                CCDC 
#
#######################################################################
#
# If this CIF has been generated from an entry in the Cambridge 
# Structural Database, then it will include bibliographic, chemical, 
# crystal, experimental, refinement or atomic coordinate data resulting 
# from the CCDC's data processing and validation procedures.
#
#######################################################################

data_BUSNIO
_symmetry_cell_setting           monoclinic
_symmetry_space_group_name_H-M   'P 21/c'
_symmetry_Int_Tables_number      14
_space_group_name_Hall           '-P 2ybc'
loop_
_symmetry_equiv_pos_site_id
_symmetry_equiv_pos_as_xyz
1 x,y,z
2 -x,1/2+y,1/2-z
3 -x,-y,-z
4 x,1/2-y,1/2+z
_cell_length_a                   9.884(2)
_cell_length_b                   24.631(6)
_cell_length_c                   11.372(3)
_cell_angle_alpha                90
_cell_angle_beta                 112.142(7)
_cell_angle_gamma                90
_cell_volume                     2564.37
loop_
_atom_site_label
_atom_site_type_symbol
_atom_site_fract_x
_atom_site_fract_y
_atom_site_fract_z
Ho1 Ho 0.54111(3) 0.132426(10) 0.14318(3)
Ho2 Ho 0.21660(3) 0.123361(11) 0.29326(3)
Cl1 Cl 0.37222(16) 0.19872(5) 0.22491(15)
Cl2 Cl 0.38069(16) 0.05846(5) 0.20927(15)
Cl3 Cl 0.65419(18) 0.21432(6) 0.08337(16)
Cl4 Cl 0.66270(18) 0.05559(6) 0.07744(16)
Cl5 Cl 0.08088(17) 0.19508(6) 0.36323(16)
Cl6 Cl 0.11654(17) 0.03495(6) 0.34260(16)
N1 N 0.7181(5) 0.13026(19) 0.3615(5)
N2 N 1.3407(5) 0.13334(19) 0.9368(5)
C1 C 0.8098(7) 0.0874(2) 0.4008(6)
H1 H 0.7906 0.0563 0.3475
C2 C 0.9292(6) 0.0863(2) 0.5135(6)
H2 H 0.9898 0.0550 0.5365
C3 C 0.9604(6) 0.1308(2) 0.5927(6)
C4 C 0.8644(6) 0.1748(2) 0.5561(6)
H3 H 0.8795 0.2057 0.6095
C5 C 0.7476(6) 0.1728(2) 0.4415(6)
H4 H 0.6840 0.2032 0.4176
C6 C 1.0932(6) 0.1314(2) 0.7124(5)
C7 C 1.1514(7) 0.0839(2) 0.7767(6)
H5 H 1.1070 0.0500 0.7448
C8 C 1.2738(7) 0.0860(2) 0.8871(6)
H6 H 1.3127 0.0530 0.9299
C9 C 1.1654(7) 0.1796(2) 0.7623(6)
H7 H 1.1311 0.2130 0.7197
C10 C 1.2854(7) 0.1787(2) 0.8723(6)
H8 H 1.3322 0.2122 0.9050
N3 N 0.4154(5) 0.12264(19) 0.5021(5)
N4 N 1.0428(5) 0.1255(2) 1.0718(5)
C11 C 0.5130(6) 0.0815(2) 0.5339(6)
H9 H 0.4948 0.0514 0.4776
C12 C 0.6365(7) 0.0805(2) 0.6422(6)
H10 H 0.7023 0.0507 0.6586
C13 C 0.6652(6) 0.1231(2) 0.7279(5)
C14 C 0.5621(7) 0.1654(2) 0.6981(6)
H11 H 0.5759 0.1952 0.7545
C15 C 0.4413(7) 0.1634(2) 0.5867(6)
H12 H 0.3726 0.1922 0.5685
C16 C 0.7983(6) 0.1248(2) 0.8444(6)
C17 C 0.8577(7) 0.0767(2) 0.9072(6)
H13 H 0.8162 0.0428 0.8721
C18 C 0.9767(7) 0.0785(2) 1.0204(6)
H14 H 1.0135 0.0455 1.0637
C19 C 0.8682(7) 0.1726(3) 0.8960(6)
H15 H 0.8337 0.2063 0.8546
C20 C 0.9901(7) 0.1711(3) 1.0093(6)
H16 H 1.0376 0.2043 1.0434
Ho1_2 Ho 1.54111(3) 0.132426(10) 1.14318(3)
Ho2_2 Ho 1.21660(3) 0.123361(11) 1.29326(3)
N2_2 N 0.3407(5) 0.13334(19) -0.0632(5)
N4_2 N 0.0428(5) 0.1255(2) 0.0718(5)
loop_
_geom_bond_atom_site_label_1
_geom_bond_atom_site_label_2
_geom_bond_site_symmetry_1
_geom_bond_site_symmetry_2
Ho1 Cl1 1_555 1_555
Ho2 Cl1 1_555 1_555
Cl2 Ho1 1_555 1_555
Cl3 Ho1 1_555 1_555
Cl4 Ho1 1_555 1_555
Cl5 Ho2 1_555 1_555
Cl6 Ho2 1_555 1_555
N1 Ho1 1_555 1_555
N2 C8 1_555 1_555
C1 N1 1_555 1_555
H1 C1 1_555 1_555
C2 C1 1_555 1_555
H2 C2 1_555 1_555
C3 C2 1_555 1_555
C4 C3 1_555 1_555
H3 C4 1_555 1_555
C5 N1 1_555 1_555
H4 C5 1_555 1_555
C6 C3 1_555 1_555
C7 C6 1_555 1_555
H5 C7 1_555 1_555
C8 C7 1_555 1_555
H6 C8 1_555 1_555
C9 C6 1_555 1_555
H7 C9 1_555 1_555
C10 N2 1_555 1_555
H8 C10 1_555 1_555
N3 Ho2 1_555 1_555
N4 C18 1_555 1_555
C11 N3 1_555 1_555
H9 C11 1_555 1_555
C12 C11 1_555 1_555
H10 C12 1_555 1_555
C13 C12 1_555 1_555
C14 C13 1_555 1_555
H11 C14 1_555 1_555
C15 N3 1_555 1_555
H12 C15 1_555 1_555
C16 C13 1_555 1_555
C17 C16 1_555 1_555
H13 C17 1_555 1_555
C18 C17 1_555 1_555
H14 C18 1_555 1_555
C19 C16 1_555 1_555
H15 C19 1_555 1_555
C20 N4 1_555 1_555
H16 C20 1_555 1_555
Ho1_2 N2 1_555 1_555
Ho2_2 N4 1_555 1_555
N2_2 Ho1 1_555 1_555
N4_2 Ho2 1_555 1_555
Ho2 Cl2 1_555 1_555
C4 C5 1_555 1_555
C9 C10 1_555 1_555
C14 C15 1_555 1_555
C19 C20 1_555 1_555

#END
