
#######################################################################
#
#                 Cambridge Crystallographic Data Centre
#                                CCDC 
#
#######################################################################
#
# If this CIF has been generated from an entry in the Cambridge 
# Structural Database, then it will include bibliographic, chemical, 
# crystal, experimental, refinement or atomic coordinate data resulting 
# from the CCDC's data processing and validation procedures.
#
#######################################################################

data_BUSNOU
_symmetry_cell_setting           monoclinic
_symmetry_space_group_name_H-M   'C 2/m'
_symmetry_Int_Tables_number      12
_space_group_name_Hall           '-C 2y'
loop_
_symmetry_equiv_pos_site_id
_symmetry_equiv_pos_as_xyz
1 x,y,z
2 -x,y,-z
3 1/2+x,1/2+y,z
4 1/2-x,1/2+y,-z
5 -x,-y,-z
6 x,-y,z
7 1/2-x,1/2-y,-z
8 1/2+x,1/2-y,z
_cell_length_a                   11.7753(13)
_cell_length_b                   23.517(2)
_cell_length_c                   16.8723(19)
_cell_angle_alpha                90
_cell_angle_beta                 107.710(3)
_cell_angle_gamma                90
_cell_volume                     4450.85
loop_
_atom_site_label
_atom_site_type_symbol
_atom_site_fract_x
_atom_site_fract_y
_atom_site_fract_z
Gd1 Gd 0.56547(10) 0.5000 0.13991(7)
Cl1 Cl 0.5000 0.5705(2) 0.0000
Cl2 Cl 0.6874(4) 0.4093(2) 0.2135(3)
N1 N 0.3848(11) 0.5561(6) 0.1491(8)
N2 N 0.7558(15) 0.5000 0.0845(11)
C1 C 0.2106(14) 0.5646(8) 0.1912(9)
H1 H 0.1499 0.5462 0.2082
C2 C 0.5091(19) 0.5000 0.4574(12)
C3 C 0.8045(14) 0.5476(8) 0.0679(10)
H2 H 0.7734 0.5830 0.0789
C4 C 0.3030(14) 0.6471(7) 0.1628(10)
H3 H 0.3089 0.6873 0.1590
C5 C 0.8978(14) 0.5476(8) 0.0356(11)
H4 H 0.9288 0.5832 0.0255
C6 C 0.2964(13) 0.5323(7) 0.1703(8)
C7 C 0.1251(18) 0.6612(9) 0.2078(13)
C8 C 0.5206(18) 0.5490(8) 0.4168(11)
H5 H 0.5162 0.5847 0.4421
C9 C 0.9483(17) 0.5000 0.0172(12)
C10 C 0.5385(17) 0.5474(8) 0.3400(10)
H6 H 0.5446 0.5824 0.3137
C11 C 0.141(2) 0.7213(9) 0.2208(15)
H7 H 0.2131 0.7387 0.2192
N3 N -0.0486(18) 0.7318(9) 0.2398(17)
C12 C 0.056(2) 0.7524(10) 0.2349(16)
H8 H 0.0699 0.7922 0.2420
C13 C -0.064(2) 0.6787(11) 0.237(2)
H9 H -0.1345 0.6640 0.2461
C14 C 0.019(2) 0.6400(12) 0.221(2)
H10 H 0.0042 0.6003 0.2200
N4 N 0.5475(17) 0.5000 0.3008(11)
C15 C 0.3839(15) 0.6126(8) 0.1437(11)
H11 H 0.4440 0.6301 0.1251
C16 C 0.2133(14) 0.6234(7) 0.1874(10)
N1E N 0.3848(11) 0.4439(6) 0.1491(8)
C1E C 0.2106(14) 0.4354(8) 0.1912(9)
H1E H 0.1499 0.4538 0.2082
C4E C 0.3030(14) 0.3529(7) 0.1628(10)
H3E H 0.3089 0.3127 0.1590
C7E C 0.1251(18) 0.3388(9) 0.2078(13)
C11E C 0.141(2) 0.2787(9) 0.2208(15)
H7E H 0.2131 0.2613 0.2192
N3E N -0.0486(18) 0.2682(9) 0.2398(17)
C12E C 0.056(2) 0.2476(10) 0.2349(16)
H8E H 0.0699 0.2078 0.2420
C13E C -0.064(2) 0.3213(11) 0.237(2)
H9E H -0.1345 0.3360 0.2461
C14E C 0.019(2) 0.3600(12) 0.221(2)
H10E H 0.0042 0.3997 0.2200
C15E C 0.3839(15) 0.3874(8) 0.1437(11)
H11E H 0.4440 0.3699 0.1251
C16E C 0.2133(14) 0.3766(7) 0.1874(10)
C6E C 0.2964(13) 0.4677(7) 0.1703(8)
N2A N 1.2442(15) 0.5000 -0.0845(11)
C3A C 1.1955(14) 0.5476(8) -0.0679(10)
H2A H 1.2266 0.5830 -0.0789
C5A C 1.1022(14) 0.5476(8) -0.0356(11)
H4A H 1.0712 0.5832 -0.0255
C9A C 1.0517(17) 0.5000 -0.0172(12)
C3D C 1.1955(14) 0.4524(8) -0.0679(10)
H2D H 1.2266 0.4170 -0.0789
C5D C 1.1022(14) 0.4524(8) -0.0356(11)
H4D H 1.0712 0.4168 -0.0255
C3E C 0.8045(14) 0.4524(8) 0.0679(10)
H2E H 0.7734 0.4170 0.0789
C5E C 0.8978(14) 0.4524(8) 0.0356(11)
H4E H 0.9288 0.4168 0.0255
C2A C 0.4909(19) 0.5000 0.5426(12)
C8A C 0.4794(18) 0.5490(8) 0.5832(11)
H5A H 0.4838 0.5847 0.5579
C10A C 0.4615(17) 0.5474(8) 0.6600(10)
H6A H 0.4554 0.5824 0.6863
N4A N 0.4525(17) 0.5000 0.6992(11)
C8D C 0.4794(18) 0.4510(8) 0.5832(11)
H5D H 0.4838 0.4153 0.5579
C10D C 0.4615(17) 0.4526(8) 0.6600(10)
H6D H 0.4554 0.4176 0.6863
C8E C 0.5206(18) 0.4510(8) 0.4168(11)
H5E H 0.5162 0.4153 0.4421
C10E C 0.5385(17) 0.4526(8) 0.3400(10)
H6E H 0.5446 0.4176 0.3137
Gd1A Gd 0.43453(10) 0.5000 -0.13991(7)
Cl2A Cl 0.3126(4) 0.4093(2) -0.2135(3)
N1A N 0.6152(11) 0.5561(6) -0.1491(8)
C1A C 0.7894(14) 0.5646(8) -0.1912(9)
H1A H 0.8501 0.5462 -0.2082
C4A C 0.6970(14) 0.6471(7) -0.1628(10)
H3A H 0.6911 0.6873 -0.1590
C6A C 0.7036(13) 0.5323(7) -0.1703(8)
C7A C 0.8749(18) 0.6612(9) -0.2078(13)
C11A C 0.859(2) 0.7213(9) -0.2208(15)
H7A H 0.7869 0.7387 -0.2192
N3A N 1.0486(18) 0.7318(9) -0.2398(17)
C12A C 0.944(2) 0.7524(10) -0.2349(16)
H8A H 0.9301 0.7922 -0.2420
C13A C 1.064(2) 0.6787(11) -0.237(2)
H9A H 1.1345 0.6640 -0.2461
C14A C 0.981(2) 0.6400(12) -0.221(2)
H10A H 0.9958 0.6003 -0.2200
C15A C 0.6161(15) 0.6126(8) -0.1437(11)
H11A H 0.5560 0.6301 -0.1251
C16A C 0.7867(14) 0.6234(7) -0.1874(10)
N1D N 0.6152(11) 0.4439(6) -0.1491(8)
C1D C 0.7894(14) 0.4354(8) -0.1912(9)
H1D H 0.8501 0.4538 -0.2082
C4D C 0.6970(14) 0.3529(7) -0.1628(10)
H3D H 0.6911 0.3127 -0.1590
C7D C 0.8749(18) 0.3388(9) -0.2078(13)
C11D C 0.859(2) 0.2787(9) -0.2208(15)
H7D H 0.7869 0.2613 -0.2192
N3D N 1.0486(18) 0.2682(9) -0.2398(17)
C12D C 0.944(2) 0.2476(10) -0.2349(16)
H8D H 0.9301 0.2078 -0.2420
C13D C 1.064(2) 0.3213(11) -0.237(2)
H9D H 1.1345 0.3360 -0.2461
C14D C 0.981(2) 0.3600(12) -0.221(2)
H10D H 0.9958 0.3997 -0.2200
C15D C 0.6161(15) 0.3874(8) -0.1437(11)
H11D H 0.5560 0.3699 -0.1251
C16D C 0.7867(14) 0.3766(7) -0.1874(10)
C6D C 0.7036(13) 0.4677(7) -0.1703(8)
Cl1D Cl 0.5000 0.4295(2) 0.0000
Cl2D Cl 0.3126(4) 0.5907(2) -0.2135(3)
Cl2E Cl 0.6874(4) 0.5907(2) 0.2135(3)
Gd1A_2 Gd 0.43453(10) 0.5000 0.86009(7)
Gd1A_3 Gd 1.43453(10) 0.5000 -0.13991(7)
N2A_2 N 0.2442(15) 0.5000 -0.0845(11)
N4A_2 N 0.4525(17) 0.5000 -0.3008(11)
N5 N 0.0586(18) 0.5000 0.3063(12)
C17 C 0.0125(19) 0.5000 0.4604(13)
C18 C -0.047(2) 0.5000 0.3116(15)
H12 H -0.1116 0.5000 0.2615
C19 C -0.073(2) 0.5000 0.3865(17)
H13 H -0.1536 0.5000 0.3855
C20 C 0.128(3) 0.5000 0.455(2)
H14 H 0.1947 0.5000 0.5041
C21 C 0.141(3) 0.5000 0.379(2)
H15 H 0.2208 0.5000 0.3773
N5A N -0.0586(18) 0.5000 0.6937(12)
C17A C -0.0125(19) 0.5000 0.5396(13)
C18A C 0.047(2) 0.5000 0.6884(15)
H12A H 0.1116 0.5000 0.7385
C19A C 0.073(2) 0.5000 0.6135(17)
H13A H 0.1536 0.5000 0.6145
C20A C -0.128(3) 0.5000 0.545(2)
H14A H -0.1947 0.5000 0.4959
C21A C -0.141(3) 0.5000 0.621(2)
H15A H -0.2208 0.5000 0.6227
loop_
_geom_bond_atom_site_label_1
_geom_bond_atom_site_label_2
_geom_bond_site_symmetry_1
_geom_bond_site_symmetry_2
Gd1 Cl1 1_555 1_555
Cl1 Gd1A 1_555 1_555
Cl2 Gd1 1_555 1_555
N1 Gd1 1_555 1_555
N2 Gd1 1_555 1_555
C1 H1 1_555 1_555
C2 C8 1_555 1_555
C3 N2 1_555 1_555
H2 C3 1_555 1_555
C4 H3 1_555 1_555
C5 C3 1_555 1_555
H4 C5 1_555 1_555
C6 N1 1_555 1_555
C7 C11 1_555 1_555
C8 H5 1_555 1_555
C9 C5 1_555 1_555
C10 C8 1_555 1_555
H6 C10 1_555 1_555
C11 H7 1_555 1_555
N3 C12 1_555 1_555
C12 C11 1_555 1_555
H8 C12 1_555 1_555
C13 N3 1_555 1_555
H9 C13 1_555 1_555
C14 C7 1_555 1_555
H10 C14 1_555 1_555
N4 Gd1 1_555 1_555
C15 N1 1_555 1_555
H11 C15 1_555 1_555
C16 C1 1_555 1_555
N5 C18 1_555 1_555
C17 C19 1_555 1_555
C18 H12 1_555 1_555
C19 C18 1_555 1_555
H13 C19 1_555 1_555
C20 C17 1_555 1_555
H14 C20 1_555 1_555
C21 N5 1_555 1_555
H15 C21 1_555 1_555
N1E Gd1 1_555 1_555
C1E H1E 1_555 1_555
C4E H3E 1_555 1_555
C7E C11E 1_555 1_555
C11E H7E 1_555 1_555
N3E C12E 1_555 1_555
C12E C11E 1_555 1_555
H8E C12E 1_555 1_555
C13E N3E 1_555 1_555
H9E C13E 1_555 1_555
C14E C7E 1_555 1_555
H10E C14E 1_555 1_555
C15E N1E 1_555 1_555
H11E C15E 1_555 1_555
C16E C1E 1_555 1_555
C6E C6 1_555 1_555
N2A C3A 1_555 1_555
C3A H2A 1_555 1_555
C5A C3A 1_555 1_555
H4A C5A 1_555 1_555
C9A C9 1_555 1_555
C3D N2A 1_555 1_555
H2D C3D 1_555 1_555
C5D C9A 1_555 1_555
H4D C5D 1_555 1_555
C3E N2 1_555 1_555
H2E C3E 1_555 1_555
C5E C9 1_555 1_555
H4E C5E 1_555 1_555
C2A C2 1_555 1_555
C8A C2A 1_555 1_555
H5A C8A 1_555 1_555
C10A C8A 1_555 1_555
H6A C10A 1_555 1_555
N4A C10A 1_555 1_555
C8D C2A 1_555 1_555
H5D C8D 1_555 1_555
C10D N4A 1_555 1_555
H6D C10D 1_555 1_555
C8E C2 1_555 1_555
H5E C8E 1_555 1_555
C10E N4 1_555 1_555
H6E C10E 1_555 1_555
Gd1A Cl2A 1_555 1_555
N1A Gd1A 1_555 1_555
C1A H1A 1_555 1_555
C4A H3A 1_555 1_555
C6A N1A 1_555 1_555
C7A C11A 1_555 1_555
C11A H7A 1_555 1_555
N3A C12A 1_555 1_555
C12A C11A 1_555 1_555
H8A C12A 1_555 1_555
C13A N3A 1_555 1_555
H9A C13A 1_555 1_555
C14A C7A 1_555 1_555
H10A C14A 1_555 1_555
C15A N1A 1_555 1_555
H11A C15A 1_555 1_555
C16A C1A 1_555 1_555
N1D Gd1A 1_555 1_555
C1D H1D 1_555 1_555
C4D H3D 1_555 1_555
C7D C11D 1_555 1_555
C11D H7D 1_555 1_555
N3D C12D 1_555 1_555
C12D C11D 1_555 1_555
H8D C12D 1_555 1_555
C13D N3D 1_555 1_555
H9D C13D 1_555 1_555
C14D C7D 1_555 1_555
H10D C14D 1_555 1_555
C15D N1D 1_555 1_555
H11D C15D 1_555 1_555
C16D C1D 1_555 1_555
C6D C6A 1_555 1_555
Cl1D Gd1 1_555 1_555
Cl2D Gd1A 1_555 1_555
Cl2E Gd1 1_555 1_555
Gd1A_2 N4A 1_555 1_555
Gd1A_3 N2A 1_555 1_555
N2A_2 Gd1A 1_555 1_555
N4A_2 Gd1A 1_555 1_555
N5A C18A 1_555 1_555
C17A C17 1_555 1_555
C18A H12A 1_555 1_555
C19A C17A 1_555 1_555
H13A C19A 1_555 1_555
C20A C17A 1_555 1_555
H14A C20A 1_555 1_555
C21A N5A 1_555 1_555
H15A C21A 1_555 1_555
C1 C6 1_555 1_555
C4 C15 1_555 1_555
C4 C16 1_555 1_555
C7 C16 1_555 1_555
C10 N4 1_555 1_555
C13 C14 1_555 1_555
C20 C21 1_555 1_555
N1E C6E 1_555 1_555
C1E C6E 1_555 1_555
C4E C15E 1_555 1_555
C4E C16E 1_555 1_555
C7E C16E 1_555 1_555
C13E C14E 1_555 1_555
C5A C9A 1_555 1_555
C3D C5D 1_555 1_555
C3E C5E 1_555 1_555
C8D C10D 1_555 1_555
C8E C10E 1_555 1_555
Gd1A Cl1D 1_555 1_555
C1A C6A 1_555 1_555
C4A C15A 1_555 1_555
C4A C16A 1_555 1_555
C7A C16A 1_555 1_555
C13A C14A 1_555 1_555
N1D C6D 1_555 1_555
C1D C6D 1_555 1_555
C4D C15D 1_555 1_555
C4D C16D 1_555 1_555
C7D C16D 1_555 1_555
C13D C14D 1_555 1_555
C18A C19A 1_555 1_555
C20A C21A 1_555 1_555

#END
