
#######################################################################
#
#                 Cambridge Crystallographic Data Centre
#                                CCDC 
#
#######################################################################
#
# If this CIF has been generated from an entry in the Cambridge 
# Structural Database, then it will include bibliographic, chemical, 
# crystal, experimental, refinement or atomic coordinate data resulting 
# from the CCDC's data processing and validation procedures.
#
#######################################################################

data_BUSNEK
_symmetry_cell_setting           orthorhombic
_symmetry_space_group_name_H-M   'C m c m'
_symmetry_Int_Tables_number      63
_space_group_name_Hall           '-C 2n 2'
loop_
_symmetry_equiv_pos_site_id
_symmetry_equiv_pos_as_xyz
1 x,y,z
2 -x,-y,1/2+z
3 x,-y,-z
4 -x,y,1/2-z
5 1/2+x,1/2+y,z
6 1/2-x,1/2-y,1/2+z
7 1/2+x,1/2-y,-z
8 1/2-x,1/2+y,1/2-z
9 -x,-y,-z
10 x,y,1/2-z
11 -x,y,z
12 x,-y,1/2+z
13 1/2-x,1/2-y,-z
14 1/2+x,1/2+y,1/2-z
15 1/2-x,1/2+y,z
16 1/2+x,1/2-y,1/2+z
_cell_length_a                   12.0699(5)
_cell_length_b                   20.1593(9)
_cell_length_c                   15.9081(7)
_cell_angle_alpha                90
_cell_angle_beta                 90
_cell_angle_gamma                90
_cell_volume                     3870.77
loop_
_atom_site_label
_atom_site_type_symbol
_atom_site_fract_x
_atom_site_fract_y
_atom_site_fract_z
Sm1 Sm 0.0000 0.062831(15) 0.882195(19)
Sm2 Sm 0.0000 0.24808(2) 0.7500
Cl1 Cl -0.13193(11) 0.12635(7) 0.7500
Cl2 Cl 0.0000 -0.02475(10) 0.7500
Cl3 Cl 0.0000 0.19515(7) 0.91924(10)
Cl4 Cl 0.0000 0.06818(7) 1.05587(9)
Cl5 Cl 0.0000 0.34910(8) 0.64190(11)
N1 N 0.2057(3) 0.0531(2) 0.9110(2)
C1 C 0.2628(4) 0.1021(3) 0.9469(4)
H1 H 0.2227 0.1364 0.9743
C2 C 0.3773(4) 0.1056(3) 0.9463(4)
H2 H 0.4140 0.1419 0.9724
C3 C 0.4380(4) 0.0562(2) 0.9076(3)
C4 C 0.3790(4) 0.0059(3) 0.8713(5)
H3 H 0.4170 -0.0291 0.8436
C5 C 0.2644(4) 0.0057(3) 0.8745(5)
H4 H 0.2259 -0.0303 0.8493
C6 C 0.2642(4) 0.2816(4) 0.6804(4)
H5 H 0.2247 0.2820 0.6287
N2 N 0.2065(4) 0.2771(3) 0.7500
C7 C 0.3783(4) 0.2858(4) 0.6771(4)
H6 H 0.4150 0.2875 0.6243
C8 C 0.4382(5) 0.2874(3) 0.7500
N1J N 0.7943(3) 0.0531(2) 0.9110(2)
C1J C 0.7372(4) 0.1021(3) 0.9469(4)
H1J H 0.7773 0.1364 0.9743
C2J C 0.6227(4) 0.1056(3) 0.9463(4)
H2J H 0.5860 0.1419 0.9724
C3J C 0.5620(4) 0.0562(2) 0.9076(3)
C4J C 0.6210(4) 0.0059(3) 0.8713(5)
H3J H 0.5830 -0.0291 0.8436
C5J C 0.7356(4) 0.0057(3) 0.8745(5)
H4J H 0.7741 -0.0303 0.8493
C6C C 0.7358(4) 0.2816(4) 0.8196(4)
H5C H 0.7753 0.2820 0.8713
N2C N 0.7935(4) 0.2771(3) 0.7500
C7C C 0.6217(4) 0.2858(4) 0.8229(4)
H6C H 0.5850 0.2875 0.8757
C8C C 0.5618(5) 0.2874(3) 0.7500
C6I C 0.2642(4) 0.2816(4) 0.8196(4)
H5I H 0.2247 0.2820 0.8713
C7I C 0.3783(4) 0.2858(4) 0.8229(4)
H6I H 0.4150 0.2875 0.8757
C6J C 0.7358(4) 0.2816(4) 0.6804(4)
H5J H 0.7753 0.2820 0.6287
C7J C 0.6217(4) 0.2858(4) 0.6771(4)
H6J H 0.5850 0.2875 0.6243
Sm1B Sm 0.0000 -0.062831(15) 1.117805(19)
Cl3B Cl 0.0000 -0.19515(7) 1.08076(10)
Cl4B Cl 0.0000 -0.06818(7) 0.94413(9)
N1B N 0.2057(3) -0.0531(2) 1.0890(2)
C1B C 0.2628(4) -0.1021(3) 1.0531(4)
H1B H 0.2227 -0.1364 1.0257
C2B C 0.3773(4) -0.1056(3) 1.0537(4)
H2B H 0.4140 -0.1419 1.0276
C3B C 0.4380(4) -0.0562(2) 1.0924(3)
C4B C 0.3790(4) -0.0059(3) 1.1287(5)
H3B H 0.4170 0.0291 1.1564
C5B C 0.2644(4) -0.0057(3) 1.1255(5)
H4B H 0.2259 0.0303 1.1507
N1H N 0.7943(3) -0.0531(2) 1.0890(2)
C1H C 0.7372(4) -0.1021(3) 1.0531(4)
H1H H 0.7773 -0.1364 1.0257
C2H C 0.6227(4) -0.1056(3) 1.0537(4)
H2H H 0.5860 -0.1419 1.0276
C3H C 0.5620(4) -0.0562(2) 1.0924(3)
C4H C 0.6210(4) -0.0059(3) 1.1287(5)
H3H H 0.5830 0.0291 1.1564
C5H C 0.7356(4) -0.0057(3) 1.1255(5)
H4H H 0.7741 0.0303 1.1507
Cl1C Cl 0.13193(11) 0.12635(7) 0.7500
Cl5C Cl 0.0000 0.34910(8) 0.85810(11)
Sm1_2 Sm 1.0000 0.062831(15) 0.882195(19)
Sm1B_2 Sm 1.0000 -0.062831(15) 1.117805(19)
Sm1C Sm 0.0000 0.062831(15) 0.617805(19)
Sm2_2 Sm 1.0000 0.24808(2) 0.7500
Sm2A Sm 0.0000 -0.24808(2) 1.2500
Cl1A Cl 0.13193(11) -0.12635(7) 1.2500
Cl1B Cl -0.13193(11) -0.12635(7) 1.2500
Cl2A Cl 0.0000 0.02475(10) 1.2500
Cl3C Cl 0.0000 0.19515(7) 0.58076(10)
N1H_2 N -0.2057(3) -0.0531(2) 1.0890(2)
N1J_2 N -0.2057(3) 0.0531(2) 0.9110(2)
N2C_2 N -0.2065(4) 0.2771(3) 0.7500
loop_
_geom_bond_atom_site_label_1
_geom_bond_atom_site_label_2
_geom_bond_site_symmetry_1
_geom_bond_site_symmetry_2
Sm1 Cl1 1_555 1_555
Sm2 Cl1 1_555 1_555
Cl1 Sm1C 1_555 1_555
Cl2 Sm1 1_555 1_555
Cl3 Sm1 1_555 1_555
Cl4 Sm1 1_555 1_555
Cl5 Sm2 1_555 1_555
N1 Sm1 1_555 1_555
C1 N1 1_555 1_555
H1 C1 1_555 1_555
C2 C1 1_555 1_555
H2 C2 1_555 1_555
C3 C2 1_555 1_555
C4 C3 1_555 1_555
H3 C4 1_555 1_555
C5 N1 1_555 1_555
H4 C5 1_555 1_555
C6 H5 1_555 1_555
N2 Sm2 1_555 1_555
C7 C6 1_555 1_555
H6 C7 1_555 1_555
C8 C7 1_555 1_555
N1J C1J 1_555 1_555
C1J H1J 1_555 1_555
C2J C1J 1_555 1_555
H2J C2J 1_555 1_555
C3J C3 1_555 1_555
C4J C3J 1_555 1_555
H3J C4J 1_555 1_555
C5J N1J 1_555 1_555
H4J C5J 1_555 1_555
C6C H5C 1_555 1_555
N2C C6C 1_555 1_555
C7C C6C 1_555 1_555
H6C C7C 1_555 1_555
C8C C8 1_555 1_555
C6I N2 1_555 1_555
H5I C6I 1_555 1_555
C7I C8 1_555 1_555
H6I C7I 1_555 1_555
C6J N2C 1_555 1_555
H5J C6J 1_555 1_555
C7J C8C 1_555 1_555
H6J C7J 1_555 1_555
Sm1B Cl4 1_555 1_555
Cl3B Sm1B 1_555 1_555
Cl4B Sm1 1_555 1_555
N1B Sm1B 1_555 1_555
C1B N1B 1_555 1_555
H1B C1B 1_555 1_555
C2B C1B 1_555 1_555
H2B C2B 1_555 1_555
C3B C2B 1_555 1_555
C4B C3B 1_555 1_555
H3B C4B 1_555 1_555
C5B N1B 1_555 1_555
H4B C5B 1_555 1_555
N1H C1H 1_555 1_555
C1H H1H 1_555 1_555
C2H C1H 1_555 1_555
H2H C2H 1_555 1_555
C3H C3B 1_555 1_555
C4H C3H 1_555 1_555
H3H C4H 1_555 1_555
C5H N1H 1_555 1_555
H4H C5H 1_555 1_555
Cl1C Sm1 1_555 1_555
Cl5C Sm2 1_555 1_555
Sm1_2 N1J 1_555 1_555
Sm1B_2 N1H 1_555 1_555
Sm1C Cl2 1_555 1_555
Sm2_2 N2C 1_555 1_555
Sm2A Cl3B 1_555 1_555
Cl1A Sm1B 1_555 1_555
Cl1B Sm1B 1_555 1_555
Cl2A Sm1B 1_555 1_555
Cl3C Sm2 1_555 1_555
N1H_2 Sm1B 1_555 1_555
N1J_2 Sm1 1_555 1_555
N2C_2 Sm2 1_555 1_555
Sm2 Cl3 1_555 1_555
Sm2 Cl1C 1_555 1_555
C4 C5 1_555 1_555
C6 N2 1_555 1_555
C2J C3J 1_555 1_555
C4J C5J 1_555 1_555
C7C C8C 1_555 1_555
C6I C7I 1_555 1_555
C6J C7J 1_555 1_555
Sm1B Cl4B 1_555 1_555
C4B C5B 1_555 1_555
C2H C3H 1_555 1_555
C4H C5H 1_555 1_555
Cl1C Sm1C 1_555 1_555
Sm1C Cl3C 1_555 1_555
Sm2A Cl1A 1_555 1_555
Sm2A Cl1B 1_555 1_555

#END
