
#######################################################################
#
#                 Cambridge Crystallographic Data Centre
#                                CCDC 
#
#######################################################################
#
# If this CIF has been generated from an entry in the Cambridge 
# Structural Database, then it will include bibliographic, chemical, 
# crystal, experimental, refinement or atomic coordinate data resulting 
# from the CCDC's data processing and validation procedures.
#
#######################################################################

data_BUSSIT
_symmetry_cell_setting           triclinic
_symmetry_space_group_name_H-M   'P -1'
_symmetry_Int_Tables_number      2
_space_group_name_Hall           '-P 1'
loop_
_symmetry_equiv_pos_site_id
_symmetry_equiv_pos_as_xyz
1 x,y,z
2 -x,-y,-z
_cell_length_a                   11.8254(7)
_cell_length_b                   12.7439(7)
_cell_length_c                   13.0312(5)
_cell_angle_alpha                72.740(4)
_cell_angle_beta                 69.644(5)
_cell_angle_gamma                68.491(5)
_cell_volume                     1680.44
loop_
_atom_site_label
_atom_site_type_symbol
_atom_site_fract_x
_atom_site_fract_y
_atom_site_fract_z
Nd1 Nd 0.669796(16) 0.194012(14) 0.174109(14)
Nd2 Nd 0.080686(16) 0.292622(14) 0.286876(13)
Nd3 Nd 0.363348(16) 0.288986(14) -0.220035(13)
N1 N 0.8921(3) 0.0732(2) 0.0577(2)
C1 C 0.9009(3) -0.0363(3) 0.0648(3)
C2 C 1.0084(3) -0.1094(3) 0.0077(3)
H1 H 1.0115 -0.1852 0.0151
C3 C 0.7867(3) -0.0781(3) 0.1390(3)
O1 O 0.6988(2) -0.01033(19) 0.19621(18)
O2 O 0.7903(2) -0.17591(19) 0.13456(18)
N2 N 0.5644(3) 0.3890(2) 0.0437(2)
C4 C 0.4386(3) 0.4319(3) 0.0825(3)
C5 C 0.3754(3) 0.5431(3) 0.0399(3)
H2 H 0.2889 0.5713 0.0700
C6 C 0.3730(3) 0.3479(3) 0.1706(3)
O3 O 0.4436(2) 0.24947(19) 0.19919(19)
O4 O 0.2553(2) 0.38184(19) 0.20459(18)
N3 N 0.1488(3) 0.2767(2) 0.4693(2)
C7 C 0.2546(3) 0.1932(3) 0.4835(3)
C8 C 0.3125(3) 0.1882(3) 0.5625(3)
H3 H 0.3842 0.1277 0.5717
N4 N 0.2669(3) 0.2687(2) 0.6253(2)
C9 C 0.1573(3) 0.3487(3) 0.6145(3)
C10 C 0.0984(3) 0.3506(3) 0.5378(3)
H4 H 0.0213 0.4056 0.5345
C11 C 0.3056(3) 0.1057(3) 0.4095(3)
O5 O 0.2542(2) 0.12623(19) 0.33406(17)
O6 O 0.3949(2) 0.01781(19) 0.43025(18)
C12 C 0.1056(3) 0.4381(3) 0.6862(3)
O7 O 0.1709(2) 0.43160(19) 0.74758(18)
O8 O 0.0020(2) 0.51170(18) 0.67885(18)
N5 N 0.0220(3) 0.0934(2) 0.4147(2)
C13 C -0.0712(3) 0.1077(3) 0.5084(3)
C14 C -0.0931(3) 0.0152(3) 0.5935(3)
H5 H -0.1585 0.0288 0.6577
C15 C -0.1498(3) 0.2311(3) 0.5170(3)
O9 O -0.1079(2) 0.30868(19) 0.44730(18)
O10 O -0.2513(2) 0.2464(2) 0.59375(19)
N6 N 0.0327(3) 0.4328(2) 0.0978(2)
C16 C -0.0520(3) 0.4172(3) 0.0614(3)
C17 C -0.0843(3) 0.4839(3) -0.0355(3)
H6 H -0.1436 0.4702 -0.0576
C18 C -0.1097(3) 0.3248(3) 0.1321(3)
O11 O -0.0812(2) 0.27439(19) 0.22270(18)
O12 O -0.1816(2) 0.30308(18) 0.09472(18)
N7 N 0.4642(3) 0.0914(2) -0.0852(2)
C19 C 0.4003(3) 0.0914(3) 0.0227(3)
C20 C 0.4359(3) 0.0004(3) 0.1073(3)
H7 H 0.3892 0.0035 0.1809
C21 C 0.2905(3) 0.1979(3) 0.0468(3)
O13 O 0.2965(2) 0.28843(18) -0.02566(18)
O14 O 0.2054(2) 0.18797(19) 0.13518(18)
N8 N 0.4506(3) 0.4240(2) -0.4089(2)
C22 C 0.4502(3) 0.5259(3) -0.3987(3)
C23 C 0.5000(3) 0.6011(3) -0.4892(3)
H8 H 0.4991 0.6706 -0.4788
C24 C 0.3983(3) 0.5537(3) -0.2822(3)
O15 O 0.3648(2) 0.47619(19) -0.20333(18)
O16 O 0.3950(2) 0.65078(19) -0.27523(18)
O17 O 0.8224(2) 0.0956(2) 0.29671(19)
O18 O 0.5704(2) 0.1288(2) 0.37060(18)
O19 O 0.6638(2) 0.1620(2) -0.00635(19)
O20 O 0.5768(2) 0.2872(2) -0.20005(18)
O21 O 0.5431(2) 0.16704(19) -0.34119(18)
H9 H 0.8704 0.1413 0.2788
H10 H 0.8780 0.0296 0.2931
H11 H 0.5099 0.1023 0.3773
H12 H 0.5848 0.0994 0.4380
H13 H 0.7355 0.1355 -0.0527
H14 H 0.6208 0.2143 -0.0524
H15 H 0.6335 0.2606 -0.2579
H16 H 0.6003 0.3510 -0.2255
H17 H 0.6103 0.1882 -0.3671
H18 H 0.5636 0.1053 -0.3654
N1A N 1.1079(3) -0.0732(2) -0.0577(2)
C1A C 1.0991(3) 0.0363(3) -0.0648(3)
C2A C 0.9916(3) 0.1094(3) -0.0077(3)
H1A H 0.9885 0.1852 -0.0151
C3A C 1.2133(3) 0.0781(3) -0.1390(3)
O1A O 1.3012(2) 0.01033(19) -0.19621(18)
O2A O 1.2097(2) 0.17591(19) -0.13456(18)
N2A N 0.4356(3) 0.6110(2) -0.0437(2)
C4A C 0.5614(3) 0.5681(3) -0.0825(3)
C5A C 0.6246(3) 0.4569(3) -0.0399(3)
H2A H 0.7111 0.4287 -0.0700
C6A C 0.6270(3) 0.6521(3) -0.1706(3)
O3A O 0.5564(2) 0.75053(19) -0.19919(19)
O4A O 0.7447(2) 0.61816(19) -0.20459(18)
N5A N -0.0220(3) -0.0934(2) 0.5853(2)
C13A C 0.0712(3) -0.1077(3) 0.4916(3)
C14A C 0.0931(3) -0.0152(3) 0.4065(3)
H5A H 0.1585 -0.0288 0.3423
C15A C 0.1498(3) -0.2311(3) 0.4830(3)
O9A O 0.1079(2) -0.30868(19) 0.55270(18)
O10A O 0.2513(2) -0.2464(2) 0.40625(19)
N6A N -0.0327(3) 0.5672(2) -0.0978(2)
C16A C 0.0520(3) 0.5828(3) -0.0614(3)
C17A C 0.0843(3) 0.5161(3) 0.0355(3)
H6A H 0.1436 0.5298 0.0576
C18A C 0.1097(3) 0.6752(3) -0.1321(3)
O11A O 0.0812(2) 0.72561(19) -0.22270(18)
O12A O 0.1816(2) 0.69692(18) -0.09472(18)
N7A N 0.5358(3) -0.0914(2) 0.0852(2)
C19A C 0.5997(3) -0.0914(3) -0.0227(3)
C20A C 0.5641(3) -0.0004(3) -0.1073(3)
H7A H 0.6108 -0.0035 -0.1809
C21A C 0.7095(3) -0.1979(3) -0.0468(3)
O13A O 0.7035(2) -0.28843(18) 0.02566(18)
O14A O 0.7946(2) -0.18797(19) -0.13518(18)
N8A N 0.5494(3) 0.5760(2) -0.5911(2)
C22A C 0.5498(3) 0.4741(3) -0.6013(3)
C23A C 0.5000(3) 0.3989(3) -0.5108(3)
H8A H 0.5009 0.3294 -0.5212
C24A C 0.6017(3) 0.4463(3) -0.7178(3)
O15A O 0.6352(2) 0.52381(19) -0.79667(18)
O16A O 0.6050(2) 0.34922(19) -0.72477(18)
Nd2A Nd -0.080686(16) -0.292622(14) 0.713124(13)
N3A N -0.1488(3) -0.2767(2) 0.5307(2)
C7A C -0.2546(3) -0.1932(3) 0.5165(3)
C8A C -0.3125(3) -0.1882(3) 0.4375(3)
H3A H -0.3842 -0.1277 0.4283
N4A N -0.2669(3) -0.2687(2) 0.3747(2)
C9A C -0.1573(3) -0.3487(3) 0.3855(3)
C10A C -0.0984(3) -0.3506(3) 0.4622(3)
H4A H -0.0213 -0.4056 0.4655
C11A C -0.3056(3) -0.1057(3) 0.5905(3)
O5A O -0.2542(2) -0.12623(19) 0.66594(17)
O6A O -0.3949(2) -0.01781(19) 0.56975(18)
C12A C -0.1056(3) -0.4381(3) 0.3138(3)
O7A O -0.1709(2) -0.43160(19) 0.25242(18)
O8A O -0.0020(2) -0.51170(18) 0.32115(18)
Nd1_2 Nd -0.330204(16) 0.194012(14) 0.174109(14)
O17_2 O -0.1776(2) 0.0956(2) 0.29671(19)
O18_2 O -0.4296(2) 0.1288(2) 0.37060(18)
O19_2 O -0.3362(2) 0.1620(2) -0.00635(19)
H9_2 H -0.1296 0.1413 0.2788
H10_2 H -0.1220 0.0296 0.2931
H11_2 H -0.4901 0.1023 0.3773
H12_2 H -0.4152 0.0994 0.4380
H13_2 H -0.2645 0.1355 -0.0527
H14_2 H -0.3792 0.2143 -0.0524
Nd3A Nd 0.636652(16) -0.288986(14) 0.220035(13)
O20A O 0.4232(2) -0.2872(2) 0.20005(18)
O21A O 0.4569(2) -0.16704(19) 0.34119(18)
H15A H 0.3665 -0.2606 0.2579
H16A H 0.3997 -0.3510 0.2255
H17A H 0.3897 -0.1882 0.3671
H18A H 0.4364 -0.1053 0.3654
Nd1_3 Nd 0.669796(16) 0.194012(14) -0.825891(14)
Nd1A Nd 0.330204(16) 0.805988(14) -0.174109(14)
Nd1A_2 Nd 1.330204(16) -0.194012(14) -0.174109(14)
Nd2_2 Nd 0.080686(16) -0.707378(14) 0.286876(13)
Nd2A_2 Nd -0.080686(16) 0.707378(14) -0.286876(13)
Nd2A_3 Nd -0.080686(16) 0.707378(14) 0.713124(13)
Nd2A_4 Nd 0.919314(16) -0.292622(14) -0.286876(13)
Nd2A_5 Nd 0.919314(16) 0.707378(14) -0.286876(13)
Nd3_2 Nd 0.363348(16) 0.288986(14) 0.779965(13)
Nd3_3 Nd 1.363348(16) 0.288986(14) -0.220035(13)
Nd3A_2 Nd -0.363348(16) -0.288986(14) 0.220035(13)
Nd3A_3 Nd 0.636652(16) 0.711014(14) -0.779965(13)
N1_2 N -0.1079(3) 0.0732(2) 0.0577(2)
O1_2 O -0.3012(2) -0.01033(19) 0.19621(18)
O2A_2 O 0.2097(2) 0.17591(19) -0.13456(18)
N2_2 N -0.4356(3) 0.3890(2) 0.0437(2)
O3_2 O -0.5564(2) 0.24947(19) 0.19919(19)
O4A_2 O -0.2553(2) -0.38184(19) 0.79541(18)
N4_2 N 0.2669(3) 0.2687(2) -0.3747(2)
N4A_2 N 0.7331(3) -0.2687(2) 0.3747(2)
O7_2 O 0.1709(2) 0.43160(19) -0.25242(18)
O7A_2 O 0.8291(2) -0.43160(19) 0.25242(18)
O8_2 O 0.0020(2) -0.48830(18) 0.67885(18)
O8A_2 O -0.0020(2) 0.48830(18) 0.32115(18)
N6A_2 N -0.0327(3) -0.4328(2) 0.9022(2)
O11A_2 O 0.0812(2) -0.27439(19) 0.77730(18)
O12_2 O 0.8184(2) 0.30308(18) 0.09472(18)
O14A_2 O -0.2054(2) -0.18797(19) 0.86482(18)
N8A_2 N 0.5494(3) -0.4240(2) 0.4089(2)
O15A_2 O 0.6352(2) -0.47619(19) 0.20333(18)
O16A_2 O -0.3950(2) 0.34922(19) 0.27523(18)
O16A_3 O 0.6050(2) 0.34922(19) 0.27523(18)
O22 O 0.8855(3) 0.2672(2) -0.2182(2)
N9 N 0.9289(3) 0.1664(3) -0.2334(2)
O23 O 0.8667(3) 0.0950(2) -0.1820(2)
O24 O 1.0362(2) 0.1333(2) -0.2987(2)
O25 O 0.6972(3) 0.4637(2) -0.3334(2)
H19 H 0.7024 0.4075 -0.3613
H20 H 0.7538 0.4237 -0.2952
loop_
_geom_bond_atom_site_label_1
_geom_bond_atom_site_label_2
_geom_bond_site_symmetry_1
_geom_bond_site_symmetry_2
Nd1 N1 1_555 1_555
Nd2 O4 1_555 1_555
Nd3 N7 1_555 1_555
N1 C1 1_555 1_555
C1 C2 1_555 1_555
C2 H1 1_555 1_555
C3 C1 1_555 1_555
O1 Nd1 1_555 1_555
O2 C3 1_555 1_555
N2 Nd1 1_555 1_555
C4 N2 1_555 1_555
C5 C4 1_555 1_555
H2 C5 1_555 1_555
C6 C4 1_555 1_555
O3 Nd1 1_555 1_555
O4 C6 1_555 1_555
N3 Nd2 1_555 1_555
C7 N3 1_555 1_555
C8 C7 1_555 1_555
H3 C8 1_555 1_555
N4 C8 1_555 1_555
C9 N4 1_555 1_555
C10 N3 1_555 1_555
H4 C10 1_555 1_555
C11 C7 1_555 1_555
O5 Nd2 1_555 1_555
O6 C11 1_555 1_555
C12 C9 1_555 1_555
O7 C12 1_555 1_555
O8 C12 1_555 1_555
N5 Nd2 1_555 1_555
C13 N5 1_555 1_555
C14 C13 1_555 1_555
H5 C14 1_555 1_555
C15 C13 1_555 1_555
O9 Nd2 1_555 1_555
O10 C15 1_555 1_555
N6 Nd2 1_555 1_555
C16 N6 1_555 1_555
C17 C16 1_555 1_555
H6 C17 1_555 1_555
C18 C16 1_555 1_555
O11 Nd2 1_555 1_555
O12 C18 1_555 1_555
N7 C19 1_555 1_555
C19 C20 1_555 1_555
C20 H7 1_555 1_555
C21 C19 1_555 1_555
O13 Nd3 1_555 1_555
O14 Nd2 1_555 1_555
N8 Nd3 1_555 1_555
C22 N8 1_555 1_555
C23 C22 1_555 1_555
H8 C23 1_555 1_555
C24 C22 1_555 1_555
O15 Nd3 1_555 1_555
O16 C24 1_555 1_555
O17 Nd1 1_555 1_555
O18 Nd1 1_555 1_555
O19 Nd1 1_555 1_555
O20 Nd3 1_555 1_555
O21 Nd3 1_555 1_555
H9 O17 1_555 1_555
H10 O17 1_555 1_555
H11 O18 1_555 1_555
H12 O18 1_555 1_555
H13 O19 1_555 1_555
H14 O19 1_555 1_555
H15 O20 1_555 1_555
H16 O20 1_555 1_555
H17 O21 1_555 1_555
H18 O21 1_555 1_555
O22 N9 1_555 1_555
N9 O23 1_555 1_555
O24 N9 1_555 1_555
O25 H19 1_555 1_555
H20 O25 1_555 1_555
N1A C2 1_555 1_555
C1A N1A 1_555 1_555
C2A N1 1_555 1_555
H1A C2A 1_555 1_555
C3A C1A 1_555 1_555
O1A C3A 1_555 1_555
O2A C3A 1_555 1_555
N2A C5 1_555 1_555
C4A N2A 1_555 1_555
C5A N2 1_555 1_555
H2A C5A 1_555 1_555
C6A C4A 1_555 1_555
O3A C6A 1_555 1_555
O4A C6A 1_555 1_555
N5A C14 1_555 1_555
C13A N5A 1_555 1_555
C14A N5 1_555 1_555
H5A C14A 1_555 1_555
C15A C13A 1_555 1_555
O9A C15A 1_555 1_555
O10A C15A 1_555 1_555
N6A C17 1_555 1_555
C16A N6A 1_555 1_555
C17A N6 1_555 1_555
H6A C17A 1_555 1_555
C18A C16A 1_555 1_555
O11A C18A 1_555 1_555
O12A C18A 1_555 1_555
N7A C20 1_555 1_555
C19A N7A 1_555 1_555
C20A N7 1_555 1_555
H7A C20A 1_555 1_555
C21A C19A 1_555 1_555
O13A C21A 1_555 1_555
O14A C21A 1_555 1_555
N8A C23 1_555 1_555
C22A N8A 1_555 1_555
C23A N8 1_555 1_555
H8A C23A 1_555 1_555
C24A C22A 1_555 1_555
O15A C24A 1_555 1_555
O16A C24A 1_555 1_555
Nd2A N5A 1_555 1_555
N3A Nd2A 1_555 1_555
C7A N3A 1_555 1_555
C8A C7A 1_555 1_555
H3A C8A 1_555 1_555
N4A C8A 1_555 1_555
C9A N4A 1_555 1_555
C10A N3A 1_555 1_555
H4A C10A 1_555 1_555
C11A C7A 1_555 1_555
O5A Nd2A 1_555 1_555
O6A C11A 1_555 1_555
C12A C9A 1_555 1_555
O7A C12A 1_555 1_555
O8A C12A 1_555 1_555
Nd1_2 O12 1_555 1_555
O17_2 Nd1_2 1_555 1_555
O18_2 Nd1_2 1_555 1_555
O19_2 Nd1_2 1_555 1_555
H9_2 O17_2 1_555 1_555
H10_2 O17_2 1_555 1_555
H11_2 O18_2 1_555 1_555
H12_2 O18_2 1_555 1_555
H13_2 O19_2 1_555 1_555
H14_2 O19_2 1_555 1_555
Nd3A O2 1_555 1_555
O20A Nd3A 1_555 1_555
O21A Nd3A 1_555 1_555
H15A O20A 1_555 1_555
H16A O20A 1_555 1_555
H17A O21A 1_555 1_555
H18A O21A 1_555 1_555
Nd1_3 O16A 1_555 1_555
Nd1A O16 1_555 1_555
Nd1A_2 N1A 1_555 1_555
Nd2_2 O8A 1_555 1_555
Nd2A_2 N6A 1_555 1_555
Nd2A_3 O8 1_555 1_555
Nd2A_4 O14A 1_555 1_555
Nd2A_5 O4A 1_555 1_555
Nd3_2 N4 1_555 1_555
Nd3_3 O2A 1_555 1_555
Nd3A_2 N4A 1_555 1_555
Nd3A_3 N8A 1_555 1_555
N1_2 Nd1_2 1_555 1_555
O1_2 Nd1_2 1_555 1_555
O2A_2 Nd3 1_555 1_555
N2_2 Nd1_2 1_555 1_555
O3_2 Nd1_2 1_555 1_555
O4A_2 Nd2A 1_555 1_555
N4_2 Nd3 1_555 1_555
N4A_2 Nd3A 1_555 1_555
O7_2 Nd3 1_555 1_555
O7A_2 Nd3A 1_555 1_555
O8_2 Nd2A 1_555 1_555
O8A_2 Nd2 1_555 1_555
N6A_2 Nd2A 1_555 1_555
O11A_2 Nd2A 1_555 1_555
O12_2 Nd1 1_555 1_555
O14A_2 Nd2A 1_555 1_555
N8A_2 Nd3A 1_555 1_555
O15A_2 Nd3A 1_555 1_555
O16A_2 Nd1_2 1_555 1_555
O16A_3 Nd1 1_555 1_555
C3 O1 1_555 1_555
C6 O3 1_555 1_555
C9 C10 1_555 1_555
C11 O5 1_555 1_555
O7 Nd3_2 1_555 1_555
C15 O9 1_555 1_555
C18 O11 1_555 1_555
C21 O13 1_555 1_555
C21 O14 1_555 1_555
C24 O15 1_555 1_555
C1A C2A 1_555 1_555
O1A Nd1A_2 1_555 1_555
N2A Nd1A 1_555 1_555
C4A C5A 1_555 1_555
O3A Nd1A 1_555 1_555
C13A C14A 1_555 1_555
O9A Nd2A 1_555 1_555
C16A C17A 1_555 1_555
O11A Nd2A_2 1_555 1_555
O12A Nd1A 1_555 1_555
N7A Nd3A 1_555 1_555
C19A C20A 1_555 1_555
O13A Nd3A 1_555 1_555
C22A C23A 1_555 1_555
O15A Nd3A_3 1_555 1_555
C9A C10A 1_555 1_555
C11A O5A 1_555 1_555
O7A Nd3A_2 1_555 1_555

#END
