
#######################################################################
#
#                 Cambridge Crystallographic Data Centre
#                                CCDC 
#
#######################################################################
#
# If this CIF has been generated from an entry in the Cambridge 
# Structural Database, then it will include bibliographic, chemical, 
# crystal, experimental, refinement or atomic coordinate data resulting 
# from the CCDC's data processing and validation procedures.
#
#######################################################################

data_BUSSOZ
_symmetry_cell_setting           monoclinic
_symmetry_space_group_name_H-M   'P 21/c'
_symmetry_Int_Tables_number      14
_space_group_name_Hall           '-P 2ybc'
loop_
_symmetry_equiv_pos_site_id
_symmetry_equiv_pos_as_xyz
1 x,y,z
2 -x,1/2+y,1/2-z
3 -x,-y,-z
4 x,1/2-y,1/2+z
_cell_length_a                   9.6106(2)
_cell_length_b                   7.4912(3)
_cell_length_c                   13.1850(3)
_cell_angle_alpha                90
_cell_angle_beta                 92.914(2)
_cell_angle_gamma                90
_cell_volume                     948.026
loop_
_atom_site_label
_atom_site_type_symbol
_atom_site_fract_x
_atom_site_fract_y
_atom_site_fract_z
Eu1 Eu 0.247223(13) 0.041147(19) 0.254856(9)
N1 N 0.2257(2) -0.1005(3) 0.43335(17)
C1 C 0.1161(3) -0.2077(4) 0.44546(19)
C2 C 0.1036(3) -0.3051(4) 0.5340(2)
H1 H 0.0237 -0.3726 0.5420
N2 N 0.2030(2) -0.3040(3) 0.60745(16)
C3 C 0.3102(3) -0.1943(4) 0.5959(2)
C4 C 0.3193(3) -0.0887(4) 0.5105(2)
H2 H 0.3924 -0.0080 0.5070
C5 C 0.0162(3) -0.2207(4) 0.3544(2)
O1 O 0.03935(19) -0.1220(3) 0.28181(13)
O2 O -0.07972(19) -0.3326(3) 0.35938(13)
C6 C 0.4221(3) -0.1951(4) 0.67941(19)
O3 O 0.39670(18) -0.2834(3) 0.75704(13)
O4 O 0.53068(18) -0.1110(3) 0.66335(13)
O5 O 0.2055(2) 0.2527(3) 0.39467(14)
N3 N 0.2711(2) 0.3827(3) 0.35813(17)
O6 O 0.2872(2) 0.3822(3) 0.26546(13)
O7 O 0.3221(2) 0.5002(3) 0.41554(15)
O8 O 0.3858(2) 0.1234(3) 0.11665(14)
H3 H 0.3768 0.0956 0.0542
H4 H 0.4704 0.1561 0.1257
Eu1A Eu -0.247223(13) -0.458853(19) 0.245144(9)
Eu1B Eu 0.752777(13) -0.041147(19) 0.745144(9)
Eu1C Eu 0.247223(13) -0.541147(19) 0.754856(9)
N2C N 0.2030(2) -0.1960(3) 0.10745(16)
O2A O 0.07972(19) 0.1674(3) 0.14062(13)
O3C O 0.39670(18) -0.2166(3) 0.25704(13)
O4B O 0.46932(18) 0.1110(3) 0.33665(13)
loop_
_geom_bond_atom_site_label_1
_geom_bond_atom_site_label_2
_geom_bond_site_symmetry_1
_geom_bond_site_symmetry_2
Eu1 N1 1_555 1_555
N1 C1 1_555 1_555
C1 C2 1_555 1_555
C2 H1 1_555 1_555
N2 C2 1_555 1_555
C3 N2 1_555 1_555
C4 N1 1_555 1_555
H2 C4 1_555 1_555
C5 C1 1_555 1_555
O1 Eu1 1_555 1_555
O2 C5 1_555 1_555
C6 C3 1_555 1_555
O3 C6 1_555 1_555
O4 C6 1_555 1_555
O5 Eu1 1_555 1_555
N3 O5 1_555 1_555
O6 Eu1 1_555 1_555
O7 N3 1_555 1_555
O8 Eu1 1_555 1_555
H3 O8 1_555 1_555
H4 O8 1_555 1_555
Eu1A O2 1_555 1_555
Eu1B O4 1_555 1_555
Eu1C N2 1_555 1_555
N2C Eu1 1_555 1_555
O2A Eu1 1_555 1_555
O3C Eu1 1_555 1_555
O4B Eu1 1_555 1_555
C3 C4 1_555 1_555
C5 O1 1_555 1_555
O3 Eu1C 1_555 1_555
N3 O6 1_555 1_555

#END
