
#######################################################################
#
#                 Cambridge Crystallographic Data Centre
#                                CCDC 
#
#######################################################################
#
# If this CIF has been generated from an entry in the Cambridge 
# Structural Database, then it will include bibliographic, chemical, 
# crystal, experimental, refinement or atomic coordinate data resulting 
# from the CCDC's data processing and validation procedures.
#
#######################################################################

data_BUSSUF
_symmetry_cell_setting           monoclinic
_symmetry_space_group_name_H-M   'P 21/c'
_symmetry_Int_Tables_number      14
_space_group_name_Hall           '-P 2ybc'
loop_
_symmetry_equiv_pos_site_id
_symmetry_equiv_pos_as_xyz
1 x,y,z
2 -x,1/2+y,1/2-z
3 -x,-y,-z
4 x,1/2-y,1/2+z
_cell_length_a                   9.6380(8)
_cell_length_b                   7.5510(5)
_cell_length_c                   13.2590(7)
_cell_angle_alpha                90
_cell_angle_beta                 92.943(6)
_cell_angle_gamma                90
_cell_volume                     963.671
loop_
_atom_site_label
_atom_site_type_symbol
_atom_site_fract_x
_atom_site_fract_y
_atom_site_fract_z
Tb1 Tb 0.7473(2) 0.0400(2) 0.75503(10)
N1 N 0.724(3) -0.104(5) 0.9335(19)
C1 C 0.614(4) -0.210(5) 0.947(2)
C2 C 0.605(4) -0.305(5) 1.034(2)
H1 H 0.5268 -0.3748 1.0421
N2 N 0.703(3) -0.303(4) 1.1092(19)
C3 C 0.809(4) -0.193(5) 1.096(2)
C4 C 0.821(4) -0.091(5) 1.010(2)
H2 H 0.8961 -0.0138 1.0047
C5 C 0.518(4) -0.222(5) 0.855(2)
O1 O 0.539(3) -0.122(4) 0.7824(16)
O2 O 0.420(3) -0.332(3) 0.8581(15)
C6 C 0.923(4) -0.196(5) 1.179(2)
O3 O 0.895(3) -0.283(3) 1.2572(15)
O4 O 1.031(3) -0.109(3) 1.1637(15)
O5 O 0.788(3) 0.379(4) 0.7652(16)
N3 N 0.772(3) 0.381(4) 0.8568(18)
O6 O 0.705(3) 0.252(4) 0.8941(16)
O7 O 0.820(3) 0.498(3) 0.9140(17)
O8 O 0.886(3) 0.122(4) 0.6164(16)
Tb1A Tb 0.2527(2) -0.4600(2) 0.74497(10)
Tb1B Tb 1.2527(2) -0.0400(2) 1.24497(10)
Tb1C Tb 0.7473(2) -0.5400(2) 1.25503(10)
N2C N 0.703(3) -0.197(4) 0.6092(19)
O2A O 0.580(3) 0.168(3) 0.6419(15)
O3C O 0.895(3) -0.217(3) 0.7572(15)
O4B O 0.969(3) 0.109(3) 0.8363(15)
loop_
_geom_bond_atom_site_label_1
_geom_bond_atom_site_label_2
_geom_bond_site_symmetry_1
_geom_bond_site_symmetry_2
Tb1 N1 1_555 1_555
N1 C1 1_555 1_555
C1 C2 1_555 1_555
C2 H1 1_555 1_555
N2 C2 1_555 1_555
C3 N2 1_555 1_555
C4 N1 1_555 1_555
H2 C4 1_555 1_555
C5 C1 1_555 1_555
O1 Tb1 1_555 1_555
O2 C5 1_555 1_555
C6 C3 1_555 1_555
O3 C6 1_555 1_555
O4 C6 1_555 1_555
O5 Tb1 1_555 1_555
N3 O5 1_555 1_555
O6 Tb1 1_555 1_555
O7 N3 1_555 1_555
O8 Tb1 1_555 1_555
Tb1A O2 1_555 1_555
Tb1B O4 1_555 1_555
Tb1C N2 1_555 1_555
N2C Tb1 1_555 1_555
O2A Tb1 1_555 1_555
O3C Tb1 1_555 1_555
O4B Tb1 1_555 1_555
C3 C4 1_555 1_555
C5 O1 1_555 1_555
O3 Tb1C 1_555 1_555
N3 O6 1_555 1_555

#END
