
#######################################################################
#
#                 Cambridge Crystallographic Data Centre
#                                CCDC 
#
#######################################################################
#
# If this CIF has been generated from an entry in the Cambridge 
# Structural Database, then it will include bibliographic, chemical, 
# crystal, experimental, refinement or atomic coordinate data resulting 
# from the CCDC's data processing and validation procedures.
#
#######################################################################

data_BUSWOC
_symmetry_cell_setting           orthorhombic
_symmetry_space_group_name_H-M   'P 21 21 21'
_symmetry_Int_Tables_number      19
_space_group_name_Hall           'P 2ac 2ab'
loop_
_symmetry_equiv_pos_site_id
_symmetry_equiv_pos_as_xyz
1 x,y,z
2 1/2-x,-y,1/2+z
3 -x,1/2+y,1/2-z
4 1/2+x,1/2-y,-z
_cell_length_a                   6.7160(7)
_cell_length_b                   13.8055(14)
_cell_length_c                   17.4205(18)
_cell_angle_alpha                90
_cell_angle_beta                 90
_cell_angle_gamma                90
_cell_volume                     1615.19
loop_
_atom_site_label
_atom_site_type_symbol
_atom_site_fract_x
_atom_site_fract_y
_atom_site_fract_z
Cd1 Cd 0.33976(3) 0.368277(12) 0.206749(11)
O1 O 0.2689(3) 0.25242(14) 0.31379(11)
O2 O 0.2476(3) 0.40916(13) 0.32971(11)
O3 O 0.1004(3) 0.54318(13) 0.58990(12)
O4 O 0.2358(3) 0.46407(13) 0.68571(11)
O5 O 0.2194(3) 0.11784(13) 0.58691(12)
H1 H 0.2119 0.0745 0.5532
N1 N 0.4819(4) 0.24247(16) 0.14763(13)
N2 N 0.6131(4) 0.09910(17) 0.12867(15)
H2 H 0.6567 0.0401 0.1376
C1 C 0.2179(4) 0.31029(18) 0.44144(15)
C2 C 0.1975(4) 0.39082(17) 0.48846(14)
H3 H 0.1853 0.4535 0.4665
C3 C 0.1949(4) 0.37954(18) 0.56749(14)
C4 C 0.2096(4) 0.28796(18) 0.59968(15)
H4 H 0.2141 0.2805 0.6539
C5 C 0.2175(4) 0.20740(18) 0.55227(16)
C6 C 0.2244(4) 0.21807(18) 0.47319(16)
H5 H 0.2334 0.1627 0.4410
C7 C 0.2434(4) 0.3239(2) 0.35638(15)
C8 C 0.1759(5) 0.46735(18) 0.61740(15)
C9 C 0.5323(5) 0.1594(2) 0.18017(17)
H6 H 0.5137 0.1446 0.2329
C10 C 0.6156(5) 0.1460(2) 0.05960(18)
H7 H 0.6654 0.1216 0.0124
C11 C 0.5335(5) 0.2335(2) 0.07169(16)
H8 H 0.5142 0.2818 0.0335
O6 O 0.6786(3) 0.40886(14) 0.25096(12)
H9 H 0.7290 0.4605 0.2375
H10 H 0.6983 0.3930 0.2957
O7 O 0.0159(4) 0.33444(18) 0.15431(13)
H11 H 0.0359 0.2764 0.1455
H12 H -0.0761 0.3452 0.1846
Cd1A Cd 0.16024(3) 0.631723(12) 0.706749(11)
O3A O 0.3996(3) 0.45682(13) 0.08990(12)
O4A O 0.2642(3) 0.53593(13) 0.18571(11)
O8 O 0.0608(4) 0.1389(2) 0.11612(19)
H13 H 0.1462 0.1098 0.0902
H14 H 0.0432 0.1134 0.1596
O9 O 0.1212(4) 0.07611(17) 0.27347(18)
H15 H 0.0118 0.0609 0.2912
H16 H 0.1743 0.1240 0.2927
O10 O 0.2498(5) -0.03124(18) 0.48587(18)
H17 H 0.3596 -0.0316 0.4656
H18 H 0.1689 -0.0715 0.4731
loop_
_geom_bond_atom_site_label_1
_geom_bond_atom_site_label_2
_geom_bond_site_symmetry_1
_geom_bond_site_symmetry_2
Cd1 O1 1_555 1_555
O1 C7 1_555 1_555
O2 Cd1 1_555 1_555
O3 C8 1_555 1_555
O4 C8 1_555 1_555
O5 H1 1_555 1_555
N1 Cd1 1_555 1_555
N2 H2 1_555 1_555
C1 C2 1_555 1_555
C2 H3 1_555 1_555
C3 C2 1_555 1_555
C4 C3 1_555 1_555
H4 C4 1_555 1_555
C5 O5 1_555 1_555
C6 C1 1_555 1_555
H5 C6 1_555 1_555
C7 O2 1_555 1_555
C8 C3 1_555 1_555
C9 N1 1_555 1_555
H6 C9 1_555 1_555
C10 N2 1_555 1_555
H7 C10 1_555 1_555
C11 N1 1_555 1_555
H8 C11 1_555 1_555
O6 Cd1 1_555 1_555
H9 O6 1_555 1_555
H10 O6 1_555 1_555
O7 Cd1 1_555 1_555
H11 O7 1_555 1_555
H12 O7 1_555 1_555
O8 H13 1_555 1_555
H14 O8 1_555 1_555
O9 H15 1_555 1_555
H16 O9 1_555 1_555
O10 H17 1_555 1_555
H18 O10 1_555 1_555
Cd1A O3 1_555 1_555
O3A Cd1 1_555 1_555
O4A Cd1 1_555 1_555
O4 Cd1A 1_555 1_555
N2 C9 1_555 1_555
C1 C7 1_555 1_555
C4 C5 1_555 1_555
C5 C6 1_555 1_555
C10 C11 1_555 1_555

#END
