
#######################################################################
#
#                 Cambridge Crystallographic Data Centre
#                                CCDC 
#
#######################################################################
#
# If this CIF has been generated from an entry in the Cambridge 
# Structural Database, then it will include bibliographic, chemical, 
# crystal, experimental, refinement or atomic coordinate data resulting 
# from the CCDC's data processing and validation procedures.
#
#######################################################################

data_BUSWUI
_symmetry_cell_setting           triclinic
_symmetry_space_group_name_H-M   'P -1'
_symmetry_Int_Tables_number      2
_space_group_name_Hall           '-P 1'
loop_
_symmetry_equiv_pos_site_id
_symmetry_equiv_pos_as_xyz
1 x,y,z
2 -x,-y,-z
_cell_length_a                   7.424(2)
_cell_length_b                   11.256(2)
_cell_length_c                   16.495(4)
_cell_angle_alpha                70.324(3)
_cell_angle_beta                 86.055(3)
_cell_angle_gamma                80.098(2)
_cell_volume                     1278.49
loop_
_atom_site_label
_atom_site_type_symbol
_atom_site_fract_x
_atom_site_fract_y
_atom_site_fract_z
Cu1 Cu 0.5000 0.0000 0.0000
Cu2 Cu 1.0000 0.5000 0.0000
Cl1 Cl 0.25808(8) 0.08632(6) 0.22216(4)
Cl2 Cl 0.31645(10) 0.09608(7) 0.40387(4)
Cl3 Cl 0.63764(11) 0.22108(7) 0.43466(4)
Cl4 Cl 0.90993(9) 0.32159(6) 0.28662(4)
O1 O 1.2010(2) 0.6375(2) 0.37590(13)
O2 O 0.6920(2) 0.67829(19) 0.21621(11)
O3 O 0.8258(2) 0.41955(16) 0.08644(10)
O4 O 0.9409(3) 0.22275(19) 0.08536(12)
O5 O 0.5230(3) 0.27035(16) 0.02401(10)
O6 O 0.5634(2) 0.05898(14) 0.09031(10)
O7 O 0.7885(3) -0.1187(2) 0.01674(13)
H1 H 0.8556 -0.1134 0.0548
H2 H 0.8361 -0.1662 -0.0122
O8 O 0.4191(2) -0.15585(16) 0.09536(10)
H3 H 0.4890 -0.1773 0.1384
H4 H 0.4245 -0.2110 0.0701
N1 N 1.1233(3) 0.53199(18) 0.09212(11)
N2 N 1.0385(2) 0.66520(19) 0.34729(12)
N3 N 0.7977(2) 0.68129(17) 0.27328(11)
C1 C 1.2869(3) 0.5716(2) 0.22373(15)
H5 H 1.3433 0.5845 0.2681
C2 C 1.3906(3) 0.5247(2) 0.16528(15)
H6 H 1.5173 0.5063 0.1698
C3 C 1.3060(3) 0.5055(2) 0.10059(15)
H7 H 1.3765 0.4732 0.0616
C4 C 1.0214(3) 0.5788(2) 0.14814(14)
H8 H 0.8952 0.5980 0.1414
C5 C 1.0974(3) 0.5997(2) 0.21605(13)
C6 C 0.9804(3) 0.6480(2) 0.27677(13)
C7 C 0.7184(3) 0.7074(2) 0.35303(14)
C8 C 0.6518(4) 0.5854(2) 0.41017(16)
H9 H 0.5654 0.5630 0.3793
H10 H 0.5942 0.5987 0.4610
H11 H 0.7539 0.5174 0.4263
C9 C 0.5604(4) 0.8168(3) 0.32811(18)
H12 H 0.5986 0.8873 0.2825
H13 H 0.5219 0.8431 0.3771
H14 H 0.4605 0.7895 0.3089
C10 C 0.8897(3) 0.7358(2) 0.38747(14)
C11 C 0.9070(4) 0.6842(3) 0.48514(16)
H15 H 0.9024 0.5942 0.5054
H16 H 0.8081 0.7273 0.5106
H17 H 1.0213 0.6987 0.5010
C12 C 0.9155(4) 0.8753(3) 0.3533(2)
H18 H 1.0339 0.8829 0.3692
H19 H 0.8227 0.9247 0.3774
H20 H 0.9061 0.9063 0.2917
C13 C 0.7096(3) 0.24676(19) 0.18711(13)
C14 C 0.5672(3) 0.18941(19) 0.17410(13)
C15 C 0.4426(3) 0.1474(2) 0.24044(14)
C16 C 0.4645(3) 0.1560(2) 0.32127(14)
C17 C 0.6090(3) 0.2099(2) 0.33490(13)
C18 C 0.7304(3) 0.2555(2) 0.26813(13)
C19 C 0.8387(3) 0.2988(2) 0.11304(14)
C20 C 0.5481(3) 0.1740(2) 0.08752(13)
Cu2_2 Cu 0.0000 -0.5000 0.0000
Cl1A Cl 0.74192(8) -0.08632(6) -0.22216(4)
Cl2A Cl 0.68355(10) -0.09608(7) -0.40387(4)
Cl3A Cl 0.36236(11) -0.22108(7) -0.43466(4)
Cl4A Cl 0.09007(9) -0.32159(6) -0.28662(4)
O1A O 0.7990(2) 0.3625(2) -0.37590(13)
O2A O 1.3080(2) 0.32171(19) -0.21621(11)
O3A O 0.1742(2) -0.41955(16) -0.08644(10)
O3A_2 O 1.1742(2) 0.58045(16) -0.08644(10)
O4A O 0.0591(3) -0.22275(19) -0.08536(12)
O5A O 0.4770(3) -0.27035(16) -0.02401(10)
O6A O 0.4366(2) -0.05898(14) -0.09031(10)
O7A O 0.2115(3) 0.1187(2) -0.01674(13)
H1A H 0.1444 0.1134 -0.0548
H2A H 0.1639 0.1662 0.0122
O8A O 0.5809(2) 0.15585(16) -0.09536(10)
H3A H 0.5110 0.1773 -0.1384
H4A H 0.5755 0.2110 -0.0701
N1A N 0.8767(3) 0.46801(18) -0.09212(11)
N2A N 0.9615(2) 0.33480(19) -0.34729(12)
N3A N 1.2023(2) 0.31871(17) -0.27328(11)
C1A C 0.7131(3) 0.4284(2) -0.22373(15)
H5A H 0.6567 0.4155 -0.2681
C2A C 0.6094(3) 0.4753(2) -0.16528(15)
H6A H 0.4827 0.4937 -0.1698
C3A C 0.6940(3) 0.4945(2) -0.10059(15)
H7A H 0.6235 0.5268 -0.0616
C4A C 0.9786(3) 0.4212(2) -0.14814(14)
H8A H 1.1048 0.4020 -0.1414
C5A C 0.9026(3) 0.4003(2) -0.21605(13)
C6A C 1.0196(3) 0.3520(2) -0.27677(13)
C7A C 1.2816(3) 0.2926(2) -0.35303(14)
C8A C 1.3482(4) 0.4146(2) -0.41017(16)
H9A H 1.4346 0.4370 -0.3793
H10A H 1.4058 0.4013 -0.4610
H11A H 1.2461 0.4826 -0.4263
C9A C 1.4396(4) 0.1832(3) -0.32811(18)
H12A H 1.4014 0.1127 -0.2825
H13A H 1.4781 0.1569 -0.3771
H14A H 1.5395 0.2105 -0.3089
C10A C 1.1103(3) 0.2642(2) -0.38747(14)
C11A C 1.0930(4) 0.3158(3) -0.48514(16)
H15A H 1.0976 0.4058 -0.5054
H16A H 1.1919 0.2727 -0.5106
H17A H 0.9787 0.3013 -0.5010
C12A C 1.0845(4) 0.1247(3) -0.3533(2)
H18A H 0.9661 0.1171 -0.3692
H19A H 1.1773 0.0753 -0.3774
H20A H 1.0939 0.0937 -0.2917
C13A C 0.2904(3) -0.24676(19) -0.18711(13)
C14A C 0.4328(3) -0.18941(19) -0.17410(13)
C15A C 0.5574(3) -0.1474(2) -0.24044(14)
C16A C 0.5355(3) -0.1560(2) -0.32127(14)
C17A C 0.3910(3) -0.2099(2) -0.33490(13)
C18A C 0.2696(3) -0.2555(2) -0.26813(13)
C19A C 0.1613(3) -0.2988(2) -0.11304(14)
C20A C 0.4519(3) -0.1740(2) -0.08752(13)
O9 O 0.0080(3) 0.9268(2) 0.13211(14)
H21 H -0.0320 1.0058 0.1221
H22 H 0.1191 0.9081 0.1184
loop_
_geom_bond_atom_site_label_1
_geom_bond_atom_site_label_2
_geom_bond_site_symmetry_1
_geom_bond_site_symmetry_2
Cu1 O6 1_555 1_555
Cu2 O3 1_555 1_555
Cl1 C15 1_555 1_555
Cl2 C16 1_555 1_555
Cl3 C17 1_555 1_555
Cl4 C18 1_555 1_555
O1 N2 1_555 1_555
O2 N3 1_555 1_555
O3 C19 1_555 1_555
O4 C19 1_555 1_555
O5 C20 1_555 1_555
O6 C20 1_555 1_555
O7 Cu1 1_555 1_555
H1 O7 1_555 1_555
H2 O7 1_555 1_555
O8 Cu1 1_555 1_555
H3 O8 1_555 1_555
H4 O8 1_555 1_555
N1 Cu2 1_555 1_555
N2 C6 1_555 1_555
N3 C6 1_555 1_555
C1 H5 1_555 1_555
C2 C1 1_555 1_555
H6 C2 1_555 1_555
C3 N1 1_555 1_555
H7 C3 1_555 1_555
C4 N1 1_555 1_555
H8 C4 1_555 1_555
C5 C1 1_555 1_555
C6 C5 1_555 1_555
C7 N3 1_555 1_555
C8 C7 1_555 1_555
H9 C8 1_555 1_555
H10 C8 1_555 1_555
H11 C8 1_555 1_555
C9 C7 1_555 1_555
H12 C9 1_555 1_555
H13 C9 1_555 1_555
H14 C9 1_555 1_555
C10 N2 1_555 1_555
C11 C10 1_555 1_555
H15 C11 1_555 1_555
H16 C11 1_555 1_555
H17 C11 1_555 1_555
C12 C10 1_555 1_555
H18 C12 1_555 1_555
H19 C12 1_555 1_555
H20 C12 1_555 1_555
C13 C14 1_555 1_555
C14 C15 1_555 1_555
C15 C16 1_555 1_555
C16 C17 1_555 1_555
C17 C18 1_555 1_555
C18 C13 1_555 1_555
C19 C13 1_555 1_555
C20 C14 1_555 1_555
O9 H21 1_555 1_555
H22 O9 1_555 1_555
Cu2_2 O3A 1_555 1_555
Cl1A C15A 1_555 1_555
Cl2A C16A 1_555 1_555
Cl3A C17A 1_555 1_555
Cl4A C18A 1_555 1_555
O1A N2A 1_555 1_555
O2A N3A 1_555 1_555
O3A C19A 1_555 1_555
O3A_2 Cu2 1_555 1_555
O4A C19A 1_555 1_555
O5A C20A 1_555 1_555
O6A Cu1 1_555 1_555
O7A Cu1 1_555 1_555
H1A O7A 1_555 1_555
H2A O7A 1_555 1_555
O8A Cu1 1_555 1_555
H3A O8A 1_555 1_555
H4A O8A 1_555 1_555
N1A Cu2 1_555 1_555
N2A C6A 1_555 1_555
N3A C6A 1_555 1_555
C1A H5A 1_555 1_555
C2A C1A 1_555 1_555
H6A C2A 1_555 1_555
C3A N1A 1_555 1_555
H7A C3A 1_555 1_555
C4A N1A 1_555 1_555
H8A C4A 1_555 1_555
C5A C1A 1_555 1_555
C6A C5A 1_555 1_555
C7A N3A 1_555 1_555
C8A C7A 1_555 1_555
H9A C8A 1_555 1_555
H10A C8A 1_555 1_555
H11A C8A 1_555 1_555
C9A C7A 1_555 1_555
H12A C9A 1_555 1_555
H13A C9A 1_555 1_555
H14A C9A 1_555 1_555
C10A N2A 1_555 1_555
C11A C10A 1_555 1_555
H15A C11A 1_555 1_555
H16A C11A 1_555 1_555
H17A C11A 1_555 1_555
C12A C10A 1_555 1_555
H18A C12A 1_555 1_555
H19A C12A 1_555 1_555
H20A C12A 1_555 1_555
C13A C14A 1_555 1_555
C14A C15A 1_555 1_555
C15A C16A 1_555 1_555
C16A C17A 1_555 1_555
C17A C18A 1_555 1_555
C18A C13A 1_555 1_555
C19A C13A 1_555 1_555
C20A O6A 1_555 1_555
C2 C3 1_555 1_555
C4 C5 1_555 1_555
C7 C10 1_555 1_555
C2A C3A 1_555 1_555
C4A C5A 1_555 1_555
C7A C10A 1_555 1_555
C14A C20A 1_555 1_555

#END
