
#######################################################################
#
#                 Cambridge Crystallographic Data Centre
#                                CCDC 
#
#######################################################################
#
# If this CIF has been generated from an entry in the Cambridge 
# Structural Database, then it will include bibliographic, chemical, 
# crystal, experimental, refinement or atomic coordinate data resulting 
# from the CCDC's data processing and validation procedures.
#
#######################################################################

data_BUSXUJ
_symmetry_cell_setting           monoclinic
_symmetry_space_group_name_H-M   'C 2/c'
_symmetry_Int_Tables_number      15
_space_group_name_Hall           '-C 2yn'
loop_
_symmetry_equiv_pos_site_id
_symmetry_equiv_pos_as_xyz
1 x,y,z
2 -x,y,1/2-z
3 1/2+x,1/2+y,z
4 1/2-x,1/2+y,1/2-z
5 -x,-y,-z
6 x,-y,1/2+z
7 1/2-x,1/2-y,-z
8 1/2+x,1/2-y,1/2+z
_cell_length_a                   20.416(6)
_cell_length_b                   8.4708(17)
_cell_length_c                   13.358(7)
_cell_angle_alpha                90
_cell_angle_beta                 125.89(3)
_cell_angle_gamma                90
_cell_volume                     1871.54
loop_
_atom_site_label
_atom_site_type_symbol
_atom_site_fract_x
_atom_site_fract_y
_atom_site_fract_z
Zn1 Zn 0.0000 0.30153(7) 0.2500
O1 O 0.07640(18) 0.1739(3) 0.2435(3)
O2 O 0.1331(2) 0.1591(3) 0.4425(3)
O3 O 0.2671(2) 0.0215(3) 0.6268(3)
H1 H 0.2292 0.0817 0.5823
N1 N 0.04141(18) 0.4865(4) 0.3722(3)
C1 C 0.1337(3) 0.1319(4) 0.3516(4)
C2 C 0.2045(3) 0.0496(5) 0.3676(4)
H2 H 0.2512 0.1189 0.4121
H3 H 0.1924 0.0302 0.2867
C3 C 0.2260(2) -0.1056(4) 0.4363(3)
C4 C 0.2584(2) -0.1117(5) 0.5611(3)
C5 C 0.2183(2) -0.2450(4) 0.3769(4)
H4 H 0.1971 -0.2428 0.2934
C6 C 0.0212(2) 0.6291(4) 0.3177(3)
C7 C 0.0396(3) 0.7654(5) 0.3868(4)
H5 H 0.0252 0.8638 0.3486
C8 C 0.0792(3) 0.7536(6) 0.5119(5)
H6 H 0.0910 0.8440 0.5592
C9 C 0.1015(3) 0.6086(6) 0.5672(4)
H7 H 0.1297 0.5987 0.6523
C10 C 0.0811(2) 0.4780(5) 0.4936(3)
H8 H 0.0959 0.3791 0.5308
Zn1F Zn 0.5000 -0.80153(7) 0.7500
O1F O 0.42360(18) -0.6739(3) 0.7565(3)
O1A O -0.07640(18) 0.1739(3) 0.2565(3)
O2F O 0.3669(2) -0.6591(3) 0.5575(3)
O3F O 0.2329(2) -0.5215(3) 0.3732(3)
H1F H 0.2708 -0.5817 0.4177
N1A N -0.04141(18) 0.4865(4) 0.1278(3)
C1F C 0.3663(3) -0.6319(4) 0.6484(4)
C2F C 0.2955(3) -0.5496(5) 0.6324(4)
H2F H 0.2488 -0.6189 0.5879
H3F H 0.3076 -0.5302 0.7133
C3F C 0.2740(2) -0.3944(4) 0.5637(3)
C4F C 0.2416(2) -0.3883(5) 0.4389(3)
C5F C 0.2817(2) -0.2550(4) 0.6231(4)
H4F H 0.3029 -0.2572 0.7066
C6A C -0.0212(2) 0.6291(4) 0.1823(3)
C7A C -0.0396(3) 0.7654(5) 0.1132(4)
H5A H -0.0252 0.8638 0.1514
C8A C -0.0792(3) 0.7536(6) -0.0119(5)
H6A H -0.0910 0.8440 -0.0592
C9A C -0.1015(3) 0.6086(6) -0.0672(4)
H7A H -0.1297 0.5987 -0.1523
C10A C -0.0811(2) 0.4780(5) 0.0064(3)
H8A H -0.0959 0.3791 -0.0308
loop_
_geom_bond_atom_site_label_1
_geom_bond_atom_site_label_2
_geom_bond_site_symmetry_1
_geom_bond_site_symmetry_2
Zn1 O1 1_555 1_555
O1 C1 1_555 1_555
O2 C1 1_555 1_555
O3 H1 1_555 1_555
N1 Zn1 1_555 1_555
C1 C2 1_555 1_555
C2 H2 1_555 1_555
H3 C2 1_555 1_555
C3 C2 1_555 1_555
C4 O3 1_555 1_555
C5 C3 1_555 1_555
H4 C5 1_555 1_555
C6 N1 1_555 1_555
C7 C6 1_555 1_555
H5 C7 1_555 1_555
C8 C7 1_555 1_555
H6 C8 1_555 1_555
C9 C8 1_555 1_555
H7 C9 1_555 1_555
C10 N1 1_555 1_555
H8 C10 1_555 1_555
Zn1F O1F 1_555 1_555
O1F C1F 1_555 1_555
O1A Zn1 1_555 1_555
O2F C1F 1_555 1_555
O3F H1F 1_555 1_555
N1A Zn1 1_555 1_555
C1F C2F 1_555 1_555
C2F H2F 1_555 1_555
H3F C2F 1_555 1_555
C3F C2F 1_555 1_555
C4F C5 1_555 1_555
C5F C4 1_555 1_555
H4F C5F 1_555 1_555
C6A C6 1_555 1_555
C7A C6A 1_555 1_555
H5A C7A 1_555 1_555
C8A C7A 1_555 1_555
H6A C8A 1_555 1_555
C9A C8A 1_555 1_555
H7A C9A 1_555 1_555
C10A N1A 1_555 1_555
H8A C10A 1_555 1_555
C3 C4 1_555 1_555
C9 C10 1_555 1_555
O3F C4F 1_555 1_555
N1A C6A 1_555 1_555
C3F C4F 1_555 1_555
C3F C5F 1_555 1_555
C9A C10A 1_555 1_555

#END
