
#######################################################################
#
#                 Cambridge Crystallographic Data Centre
#                                CCDC 
#
#######################################################################
#
# If this CIF has been generated from an entry in the Cambridge 
# Structural Database, then it will include bibliographic, chemical, 
# crystal, experimental, refinement or atomic coordinate data resulting 
# from the CCDC's data processing and validation procedures.
#
#######################################################################

data_BUSXET
_symmetry_cell_setting           rhombohedral
_symmetry_space_group_name_H-M   'R -3'
_symmetry_Int_Tables_number      148
_space_group_name_Hall           '-R 3'
loop_
_symmetry_equiv_pos_site_id
_symmetry_equiv_pos_as_xyz
1 x,y,z
2 -y,x-y,z
3 -x+y,-x,z
4 2/3+x,1/3+y,1/3+z
5 2/3-y,1/3+x-y,1/3+z
6 2/3-x+y,1/3-x,1/3+z
7 1/3+x,2/3+y,2/3+z
8 1/3-y,2/3+x-y,2/3+z
9 1/3-x+y,2/3-x,2/3+z
10 -x,-y,-z
11 y,-x+y,-z
12 x-y,x,-z
13 1/3-x,2/3-y,2/3-z
14 1/3+y,2/3-x+y,2/3-z
15 1/3+x-y,2/3+x,2/3-z
16 2/3-x,1/3-y,1/3-z
17 2/3+y,1/3-x+y,1/3-z
18 2/3+x-y,1/3+x,1/3-z
_cell_length_a                   26.523(4)
_cell_length_b                   26.523(4)
_cell_length_c                   7.7447(15)
_cell_angle_alpha                90
_cell_angle_beta                 90
_cell_angle_gamma                120
_cell_volume                     4718.25
loop_
_atom_site_label
_atom_site_type_symbol
_atom_site_fract_x
_atom_site_fract_y
_atom_site_fract_z
Co1 Co 0.97056(3) 0.60892(3) 1.16831(8)
O1 O 1.01596(14) 0.65542(14) 0.9353(4)
N1 N 0.91080(18) 0.47217(18) 0.7942(5)
N2 N 0.93033(18) 0.53031(17) 1.0228(5)
C1 C 0.8658(2) 0.4418(2) 0.9102(7)
C2 C 0.9486(2) 0.5243(2) 0.8690(7)
C3 C 0.9177(3) 0.4512(2) 0.6261(6)
C4 C 1.0663(2) 0.6672(2) 0.8843(6)
C5 C 0.8783(2) 0.4790(2) 1.0516(6)
C6 C 0.8166(3) 0.3863(2) 0.8995(8)
C7 C 0.8400(3) 0.4624(2) 1.1928(7)
C8 C 0.7785(3) 0.3697(3) 1.0399(9)
C9 C 0.7904(3) 0.4072(3) 1.1845(9)
C10 C 0.9419(2) 0.4096(2) 0.6434(6)
O2 O 0.96059(15) 0.40521(16) 0.7880(4)
O3 O 0.94114(15) 0.38353(14) 0.5065(4)
O4 O 1.09221(14) 0.69515(15) 0.7536(4)
H1 H 1.083(2) 0.651(3) 0.954(7)
Co1H Co 0.97169(4) 0.69611(3) 0.83498(8)
Co1I Co 1.02944(3) 0.39108(3) 0.83169(8)
Co1M Co 0.94225(3) 0.30503(4) 0.49836(8)
Co1D Co 1.05775(3) 0.69497(4) 0.50164(8)
O1D O 1.01125(14) 0.69387(20) 1.2686(4)
O2I O 1.03941(15) 0.59479(16) 1.2120(4)
O3N O 0.89094(21) 0.60781(15) 1.1602(4)
O4H O 0.93627(21) 0.57446(14) 1.4203(4)
loop_
_geom_bond_atom_site_label_1
_geom_bond_atom_site_label_2
_geom_bond_site_symmetry_1
_geom_bond_site_symmetry_2
Co1 O1 1_555 1_555
O1 C4 1_555 1_555
N1 C1 1_555 1_555
N2 Co1 1_555 1_555
C1 C5 1_555 1_555
C2 N1 1_555 1_555
C3 N1 1_555 1_555
C4 O4 1_555 1_555
C5 N2 1_555 1_555
C6 C1 1_555 1_555
C7 C5 1_555 1_555
C8 C6 1_555 1_555
C9 C7 1_555 1_555
C10 C3 1_555 1_555
O2 C10 1_555 1_555
O3 C10 1_555 1_555
O4 Co1D 1_555 1_555
H1 C4 1_555 1_555
Co1H O1 1_555 1_555
Co1I O2 1_555 1_555
Co1M O3 1_555 1_555
O1D Co1 1_555 1_555
O2I Co1 1_555 1_555
O3N Co1 1_555 1_555
O4H Co1 1_555 1_555
N2 C2 1_555 1_555
C8 C9 1_555 1_555

#END
