
#######################################################################
#
#                 Cambridge Crystallographic Data Centre
#                                CCDC 
#
#######################################################################
#
# If this CIF has been generated from an entry in the Cambridge 
# Structural Database, then it will include bibliographic, chemical, 
# crystal, experimental, refinement or atomic coordinate data resulting 
# from the CCDC's data processing and validation procedures.
#
#######################################################################

data_BUSYAQ
_symmetry_cell_setting           monoclinic
_symmetry_space_group_name_H-M   'C 2/c'
_symmetry_Int_Tables_number      15
_space_group_name_Hall           '-C 2yn'
loop_
_symmetry_equiv_pos_site_id
_symmetry_equiv_pos_as_xyz
1 x,y,z
2 -x,y,1/2-z
3 1/2+x,1/2+y,z
4 1/2-x,1/2+y,1/2-z
5 -x,-y,-z
6 x,-y,1/2+z
7 1/2-x,1/2-y,-z
8 1/2+x,1/2-y,1/2+z
_cell_length_a                   14.572(5)
_cell_length_b                   9.371(3)
_cell_length_c                   14.889(5)
_cell_angle_alpha                90
_cell_angle_beta                 94.629(6)
_cell_angle_gamma                90
_cell_volume                     2026.52
loop_
_atom_site_label
_atom_site_type_symbol
_atom_site_fract_x
_atom_site_fract_y
_atom_site_fract_z
Zn1 Zn 0.0000 0.48559(3) 0.2500
O1 O 0.06814(12) 0.6279(2) 0.12837(14)
O2 O -0.07203(12) 0.5733(2) 0.14634(12)
O3 O -0.16377(12) 0.9190(2) 0.06119(14)
H1 H -0.2011 0.9843 0.0542
N1 N 0.08357(11) 0.31812(19) 0.22007(11)
C1 C 0.16635(15) 0.3204(3) 0.19087(15)
H2 H 0.1935 0.4082 0.1809
C2 C 0.21454(17) 0.1976(3) 0.17446(18)
H3 H 0.2732 0.2029 0.1542
C3 C 0.17542(18) 0.0695(3) 0.18816(18)
H4 H 0.2069 -0.0140 0.1766
C4 C 0.08837(17) 0.0623(3) 0.21946(15)
C5 C 0.0422(2) -0.0669(3) 0.23555(17)
H5 H 0.0712 -0.1534 0.2258
C6 C 0.04515(14) 0.1909(2) 0.23436(12)
C7 C -0.01336(14) 0.6314(2) 0.10209(13)
C8 C -0.04566(17) 0.7015(2) 0.01497(15)
H6 H -0.1121 0.6919 0.0061
H7 H -0.0194 0.6510 -0.0337
C9 C -0.02162(15) 0.8564(2) 0.00863(13)
C10 C -0.08274(15) 0.9597(2) 0.03039(14)
C11 C 0.06062(15) 0.8984(2) -0.02203(14)
H8 H 0.1023 0.8293 -0.0375
Zn1D Zn 0.0000 1.51441(3) -0.2500
O1D O -0.06814(12) 1.3721(2) -0.12837(14)
O2D O 0.07203(12) 1.4267(2) -0.14634(12)
O2A O 0.07203(12) 0.5733(2) 0.35366(12)
O3D O 0.16377(12) 1.0810(2) -0.06119(14)
H1D H 0.2011 1.0157 -0.0542
N1A N -0.08357(11) 0.31812(19) 0.27993(11)
C1A C -0.16635(15) 0.3204(3) 0.30913(15)
H2A H -0.1935 0.4082 0.3191
C2A C -0.21454(17) 0.1976(3) 0.32554(18)
H3A H -0.2732 0.2029 0.3458
C3A C -0.17542(18) 0.0695(3) 0.31184(18)
H4A H -0.2069 -0.0140 0.3234
C4A C -0.08837(17) 0.0623(3) 0.28054(15)
C5A C -0.0422(2) -0.0669(3) 0.26445(17)
H5A H -0.0712 -0.1534 0.2742
C6A C -0.04515(14) 0.1909(2) 0.26564(12)
C7D C 0.01336(14) 1.3686(2) -0.10209(13)
C8D C 0.04566(17) 1.2985(2) -0.01497(15)
H6D H 0.1121 1.3081 -0.0061
H7D H 0.0194 1.3490 0.0337
C9D C 0.02162(15) 1.1436(2) -0.00863(13)
C10D C 0.08274(15) 1.0403(2) -0.03039(14)
C11D C -0.06062(15) 1.1016(2) 0.02203(14)
H8D H -0.1023 1.1707 0.0375
O4 O 0.1957(2) 0.5877(4) -0.0072(3)
O5? O 0.2342(3) 0.6613(6) 0.0838(4)
loop_
_geom_bond_atom_site_label_1
_geom_bond_atom_site_label_2
_geom_bond_site_symmetry_1
_geom_bond_site_symmetry_2
Zn1 O2 1_555 1_555
O1 C7 1_555 1_555
O2 C7 1_555 1_555
O3 H1 1_555 1_555
N1 Zn1 1_555 1_555
C1 N1 1_555 1_555
H2 C1 1_555 1_555
C2 C1 1_555 1_555
H3 C2 1_555 1_555
C3 C2 1_555 1_555
H4 C3 1_555 1_555
C4 C3 1_555 1_555
C5 C4 1_555 1_555
H5 C5 1_555 1_555
C6 N1 1_555 1_555
C7 C8 1_555 1_555
C8 H6 1_555 1_555
H7 C8 1_555 1_555
C9 C8 1_555 1_555
C10 O3 1_555 1_555
C11 C9 1_555 1_555
H8 C11 1_555 1_555
Zn1D O2D 1_555 1_555
O1D C7D 1_555 1_555
O2D C7D 1_555 1_555
O2A Zn1 1_555 1_555
O3D H1D 1_555 1_555
N1A Zn1 1_555 1_555
C1A N1A 1_555 1_555
H2A C1A 1_555 1_555
C2A C1A 1_555 1_555
H3A C2A 1_555 1_555
C3A C2A 1_555 1_555
H4A C3A 1_555 1_555
C4A C3A 1_555 1_555
C5A C5 1_555 1_555
H5A C5A 1_555 1_555
C6A C6 1_555 1_555
C7D C8D 1_555 1_555
C8D H6D 1_555 1_555
H7D C8D 1_555 1_555
C9D C8D 1_555 1_555
C10D C11 1_555 1_555
C11D C10 1_555 1_555
H8D C11D 1_555 1_555
C4 C6 1_555 1_555
C9 C10 1_555 1_555
O3D C10D 1_555 1_555
N1A C6A 1_555 1_555
C4A C5A 1_555 1_555
C4A C6A 1_555 1_555
C9D C10D 1_555 1_555
C9D C11D 1_555 1_555

#END
