
#######################################################################
#
#                 Cambridge Crystallographic Data Centre
#                                CCDC 
#
#######################################################################
#
# If this CIF has been generated from an entry in the Cambridge 
# Structural Database, then it will include bibliographic, chemical, 
# crystal, experimental, refinement or atomic coordinate data resulting 
# from the CCDC's data processing and validation procedures.
#
#######################################################################

data_BUTBEZ
_symmetry_cell_setting           orthorhombic
_symmetry_space_group_name_H-M   'P 21 21 21'
_symmetry_Int_Tables_number      19
_space_group_name_Hall           'P 2ac 2ab'
loop_
_symmetry_equiv_pos_site_id
_symmetry_equiv_pos_as_xyz
1 x,y,z
2 1/2-x,-y,1/2+z
3 -x,1/2+y,1/2-z
4 1/2+x,1/2-y,-z
_cell_length_a                   10.2867(4)
_cell_length_b                   17.0328(7)
_cell_length_c                   26.8808(11)
_cell_angle_alpha                90
_cell_angle_beta                 90
_cell_angle_gamma                90
_cell_volume                     4709.82
loop_
_atom_site_label
_atom_site_type_symbol
_atom_site_fract_x
_atom_site_fract_y
_atom_site_fract_z
Zn1 Zn 0.52406(2) 0.98187(2) 0.67608(2)
Zn2 Zn 0.30186(2) 1.08249(2) 0.75728(2)
N1 N 1.01341(16) 0.86300(9) 0.51641(6)
C1 C 0.95145(19) 0.89610(12) 0.47539(7)
C2 C 0.9057(2) 0.97254(13) 0.46907(8)
H1 H 0.9108 1.0102 0.4951
C3 C 0.8523(2) 0.99110(14) 0.42298(8)
H2 H 0.8192 1.0425 0.4176
C4 C 0.8461(2) 0.93588(15) 0.38421(8)
H3 H 0.8103 0.9506 0.353
C5 C 0.8915(2) 0.86053(15) 0.39113(8)
H4 H 0.8872 0.8233 0.3648
C6 C 0.9441(2) 0.83924(13) 0.43731(8)
C7 C 0.99990(19) 0.76781(12) 0.45673(8)
C8 C 1.0156(2) 0.69190(13) 0.43782(8)
H5 H 0.9852 0.679 0.4055
C9 C 1.0761(2) 0.63599(13) 0.46707(9)
H6 H 1.0863 0.5841 0.4547
C10 C 1.1228(2) 0.65440(13) 0.51475(9)
H7 H 1.1652 0.6151 0.5339
C11 C 1.1076(2) 0.72951(13) 0.53442(8)
H8 H 1.1396 0.7423 0.5666
C12 C 1.04404(19) 0.78507(12) 0.50537(7)
C13 C 1.0189(2) 0.89772(10) 0.56479(7)
C14 C 1.13827(19) 0.91247(11) 0.58751(7)
H9 H 1.2173 0.8991 0.5713
C15 C 1.13966(19) 0.94734(11) 0.63455(7)
C16 C 1.0238(2) 0.96674(10) 0.65848(7)
H10 H 1.0258 0.9911 0.6903
C17 C 0.90537(19) 0.95048(11) 0.63589(7)
C18 C 0.90292(19) 0.91604(11) 0.58874(7)
H11 H 0.8222 0.9052 0.573
C19 C 1.26733(18) 0.96743(10) 0.65857(7)
O1 O 1.36949(13) 0.93922(8) 0.63956(5)
O2 O 1.26507(14) 1.01114(9) 0.69596(5)
C20 C 0.77903(18) 0.97111(11) 0.66134(7)
O3 O 0.77960(14) 1.01396(9) 0.69850(5)
O4 O 0.67727(13) 0.94091(8) 0.64176(5)
N2 N 0.39399(18) 0.83315(10) 0.95005(6)
C21 C 0.4863(2) 0.83442(11) 0.98791(7)
C22 C 0.6179(2) 0.81631(12) 0.98552(8)
H12 H 0.6558 0.7959 0.956
C23 C 0.6920(3) 0.82912(12) 1.02792(8)
H13 H 0.7825 0.8181 1.0272
C24 C 0.6360(3) 0.85803(13) 1.07181(8)
H14 H 0.689 0.8669 1.1002
C25 C 0.5048(3) 0.87372(12) 1.07420(8)
H15 H 0.4673 0.8919 1.1044
C26 C 0.4265(2) 0.86281(12) 1.03187(8)
C27 C 0.2928(2) 0.87905(11) 1.01955(8)
C28 C 0.1854(3) 0.90598(12) 1.04676(8)
H16 H 0.1933 0.917 1.0813
C29 C 0.0688(3) 0.91627(14) 1.02287(10)
H17 H -0.0041 0.9346 1.0411
C30 C 0.0554(2) 0.90011(13) 0.97173(10)
H18 H -0.0264 0.9081 0.9561
C31 C 0.1596(2) 0.87272(12) 0.94368(8)
H19 H 0.1509 0.8617 0.9092
C32 C 0.2771(2) 0.86227(11) 0.96842(8)
C33 C 0.4234(2) 0.81833(11) 0.89901(7)
C34 C 0.42478(19) 0.88080(11) 0.86558(7)
H20 H 0.4032 0.9322 0.8765
C35 C 0.45792(18) 0.86756(11) 0.81612(7)
C36 C 0.48732(19) 0.79181(11) 0.79992(7)
H21 H 0.5115 0.7829 0.7663
C37 C 0.48112(19) 0.72937(10) 0.83313(7)
C38 C 0.45010(18) 0.74252(11) 0.88311(7)
H22 H 0.4474 0.7 0.9059
C39 C 0.45579(18) 0.93481(11) 0.77969(7)
O5 O 0.39906(14) 0.99586(8) 0.79345(5)
O6 O 0.51058(13) 0.92271(7) 0.73846(5)
C40 C 0.50276(18) 0.64683(11) 0.81456(7)
O7 O 0.53555(15) 0.63806(8) 0.77011(5)
O8 O 0.48208(14) 0.59232(7) 0.84533(5)
N3 N 0.18493(18) 1.29637(10) 0.69906(7)
C41 C 0.1585(3) 1.28253(18) 0.64698(9)
H23 H 0.1585 1.2259 0.6405
H24 H 0.2258 1.3078 0.6267
H25 H 0.0733 1.3045 0.6384
C42 C 0.1993(3) 1.37942(14) 0.71429(12)
H26 H 0.2282 1.3818 0.749
H27 H 0.1156 1.4063 0.711
H28 H 0.2638 1.4051 0.693
C43 C 0.2047(2) 1.23963(13) 0.73133(9)
H29 H 0.2304 1.2537 0.7641
O9 O 0.19190(17) 1.16868(9) 0.72161(6)
N4 N 0.23401(18) 1.14908(10) 0.90142(6)
C44 C 0.1897(2) 1.23038(12) 0.90000(8)
H30 H 0.2421 1.2599 0.876
H31 H 0.1991 1.2539 0.9331
H32 H 0.0982 1.2319 0.89
C45 C 0.2081(2) 1.10314(13) 0.94622(7)
H33 H 0.1143 1.0943 0.9494
H34 H 0.2396 1.1318 0.9754
H35 H 0.2529 1.0525 0.9439
C46 C 0.2883(2) 1.11725(12) 0.86199(7)
H36 H 0.317 1.0644 0.8644
O10 O 0.30448(16) 1.15212(8) 0.82162(5)
C47 C 0.0105(2) 1.06679(13) 0.80194(9)
H37 H 0.0221 1.1239 0.8027
H38 H -0.0201 1.0487 0.8345
H39 H -0.0536 1.053 0.7764
O11 O 0.13112(15) 1.03020(9) 0.79064(6)
H40 H 0.1229 0.9862 0.7954
Zn1_2 Zn 1.52406(2) 0.98187(2) 0.67608(2)
Zn1B Zn 0.47594(2) 0.48187(2) 0.82392(2)
Zn2_2 Zn 1.30186(2) 1.08249(2) 0.75728(2)
Zn2B Zn 0.69814(2) 0.58249(2) 0.74272(2)
O1_2 O 0.36949(13) 0.93922(8) 0.63956(5)
O2_2 O 0.26507(14) 1.01114(9) 0.69596(5)
O7B O 0.46445(15) 1.13806(8) 0.72989(5)
O8B O 0.51792(14) 1.09232(7) 0.65467(5)
N5 N 0.18348(18) 0.76557(10) 0.75996(7)
C48 C 0.1482(2) 0.70971(13) 0.79858(9)
H41 H 0.1474 0.7363 0.8309
H42 H 0.2117 0.6668 0.7992
H43 H 0.0616 0.6884 0.7916
C49 C 0.2438(3) 0.73480(16) 0.71458(9)
H44 H 0.2654 0.7784 0.6923
H45 H 0.183 0.6992 0.6978
H46 H 0.3232 0.7062 0.7232
C50 C 0.1679(2) 0.84238(13) 0.76636(8)
H47 H 0.1952 0.876 0.7402
O12 O 0.12041(16) 0.87346(9) 0.80389(6)
loop_
_geom_bond_atom_site_label_1
_geom_bond_atom_site_label_2
_geom_bond_site_symmetry_1
_geom_bond_site_symmetry_2
Zn1 O4 1_555 1_555
Zn2 O5 1_555 1_555
N1 C1 1_555 1_555
C1 C2 1_555 1_555
C2 H1 1_555 1_555
C3 C2 1_555 1_555
H2 C3 1_555 1_555
C4 C3 1_555 1_555
H3 C4 1_555 1_555
C5 C4 1_555 1_555
H4 C5 1_555 1_555
C6 C1 1_555 1_555
C7 C6 1_555 1_555
C8 C7 1_555 1_555
H5 C8 1_555 1_555
C9 C8 1_555 1_555
H6 C9 1_555 1_555
C10 C9 1_555 1_555
H7 C10 1_555 1_555
C11 C10 1_555 1_555
H8 C11 1_555 1_555
C12 N1 1_555 1_555
C13 N1 1_555 1_555
C14 C13 1_555 1_555
H9 C14 1_555 1_555
C15 C14 1_555 1_555
C16 C15 1_555 1_555
H10 C16 1_555 1_555
C17 C16 1_555 1_555
C18 C13 1_555 1_555
H11 C18 1_555 1_555
C19 C15 1_555 1_555
O1 C19 1_555 1_555
O2 C19 1_555 1_555
C20 C17 1_555 1_555
O3 C20 1_555 1_555
O4 C20 1_555 1_555
N2 C21 1_555 1_555
C21 C22 1_555 1_555
C22 H12 1_555 1_555
C23 C22 1_555 1_555
H13 C23 1_555 1_555
C24 C23 1_555 1_555
H14 C24 1_555 1_555
C25 C24 1_555 1_555
H15 C25 1_555 1_555
C26 C21 1_555 1_555
C27 C26 1_555 1_555
C28 C27 1_555 1_555
H16 C28 1_555 1_555
C29 C28 1_555 1_555
H17 C29 1_555 1_555
C30 C29 1_555 1_555
H18 C30 1_555 1_555
C31 C30 1_555 1_555
H19 C31 1_555 1_555
C32 N2 1_555 1_555
C33 N2 1_555 1_555
C34 C33 1_555 1_555
H20 C34 1_555 1_555
C35 C34 1_555 1_555
C36 C35 1_555 1_555
H21 C36 1_555 1_555
C37 C36 1_555 1_555
C38 C33 1_555 1_555
H22 C38 1_555 1_555
C39 C35 1_555 1_555
O5 C39 1_555 1_555
O6 Zn1 1_555 1_555
C40 C37 1_555 1_555
O7 C40 1_555 1_555
O8 C40 1_555 1_555
N3 C41 1_555 1_555
C41 H23 1_555 1_555
H24 C41 1_555 1_555
H25 C41 1_555 1_555
C42 N3 1_555 1_555
H26 C42 1_555 1_555
H27 C42 1_555 1_555
H28 C42 1_555 1_555
C43 N3 1_555 1_555
H29 C43 1_555 1_555
O9 Zn2 1_555 1_555
N4 C44 1_555 1_555
C44 H30 1_555 1_555
H31 C44 1_555 1_555
H32 C44 1_555 1_555
C45 N4 1_555 1_555
H33 C45 1_555 1_555
H34 C45 1_555 1_555
H35 C45 1_555 1_555
C46 N4 1_555 1_555
H36 C46 1_555 1_555
O10 Zn2 1_555 1_555
C47 H37 1_555 1_555
H38 C47 1_555 1_555
H39 C47 1_555 1_555
O11 Zn2 1_555 1_555
H40 O11 1_555 1_555
N5 C48 1_555 1_555
C48 H41 1_555 1_555
H42 C48 1_555 1_555
H43 C48 1_555 1_555
C49 N5 1_555 1_555
H44 C49 1_555 1_555
H45 C49 1_555 1_555
H46 C49 1_555 1_555
C50 N5 1_555 1_555
H47 C50 1_555 1_555
O12 C50 1_555 1_555
Zn1_2 O1 1_555 1_555
Zn1B O8 1_555 1_555
Zn2_2 O2 1_555 1_555
Zn2B O7 1_555 1_555
O1_2 Zn1 1_555 1_555
O2_2 Zn2 1_555 1_555
O7B Zn2 1_555 1_555
O8B Zn1 1_555 1_555
C5 C6 1_555 1_555
C7 C12 1_555 1_555
C11 C12 1_555 1_555
C17 C18 1_555 1_555
C25 C26 1_555 1_555
C27 C32 1_555 1_555
C31 C32 1_555 1_555
C37 C38 1_555 1_555
C39 O6 1_555 1_555
C43 O9 1_555 1_555
C46 O10 1_555 1_555
C47 O11 1_555 1_555

#END
