
#######################################################################
#
#                 Cambridge Crystallographic Data Centre
#                                CCDC 
#
#######################################################################
#
# If this CIF has been generated from an entry in the Cambridge 
# Structural Database, then it will include bibliographic, chemical, 
# crystal, experimental, refinement or atomic coordinate data resulting 
# from the CCDC's data processing and validation procedures.
#
#######################################################################

data_BUTDAW
_symmetry_cell_setting           monoclinic
_symmetry_space_group_name_H-M   'C 2/c'
_symmetry_Int_Tables_number      15
_space_group_name_Hall           '-C 2yn'
loop_
_symmetry_equiv_pos_site_id
_symmetry_equiv_pos_as_xyz
1 x,y,z
2 1/2+x,1/2+y,z
3 -x,y,1/2-z
4 1/2-x,1/2+y,1/2-z
5 -x,-y,-z
6 1/2-x,1/2-y,-z
7 x,-y,1/2+z
8 1/2+x,1/2-y,1/2+z
_cell_length_a                   17.679(5)
_cell_length_b                   6.894(2)
_cell_length_c                   26.408(8)
_cell_angle_alpha                90
_cell_angle_beta                 102.600(6)
_cell_angle_gamma                90
_cell_volume                     3141.07
loop_
_atom_site_label
_atom_site_type_symbol
_atom_site_fract_x
_atom_site_fract_y
_atom_site_fract_z
Cu1 Cu 0.73388(4) 0.06076(11) 0.82124(3)
N1 N 0.6443(3) -0.0088(7) 0.85259(17)
N2 N 0.7896(3) 0.0690(7) 0.89611(18)
N3 N 0.5957(3) -0.1175(8) 1.02776(19)
N4 N 0.7200(3) -0.0517(7) 1.06522(18)
O1 O 0.7044(2) 0.3735(6) 0.81012(15)
O2 O 0.6463(3) 0.4991(8) 0.86908(16)
O3 O 0.6725(2) 0.6080(6) 0.70622(15)
O4 O 0.6595(2) 0.2943(6) 0.69064(15)
O5 O 0.6716(2) -0.0166(6) 0.75087(15)
C1 C 0.8637(3) 0.1127(9) 0.9169(2)
H1 H 0.8961 0.1445 0.8947
C2 C 0.8942(3) 0.1128(9) 0.9700(2)
H2 H 0.9459 0.1451 0.9830
C3 C 0.8472(3) 0.0647(8) 1.0032(2)
H3 H 0.8672 0.0611 1.0388
C4 C 0.7692(3) 0.0211(8) 0.9832(2)
C5 C 0.7141(3) -0.0318(8) 1.0122(2)
C6 C 0.6494(4) -0.1010(9) 1.0701(2)
H4 H 0.6386 -0.1230 1.1026
C7 C 0.6369(3) -0.0693(8) 0.9895(2)
C8 C 0.6099(3) -0.0609(8) 0.9349(2)
C9 C 0.5311(3) -0.0848(9) 0.9082(2)
H5 H 0.4925 -0.1066 0.9265
C10 C 0.5139(3) -0.0750(10) 0.8556(2)
H6 H 0.4630 -0.0923 0.8375
C11 C 0.5717(3) -0.0393(10) 0.8288(2)
H7 H 0.5588 -0.0367 0.7927
C12 C 0.6627(3) -0.0174(8) 0.9046(2)
C13 C 0.7419(3) 0.0261(8) 0.9295(2)
C14 C 0.5031(3) 0.4486(9) 0.8025(2)
H8 H 0.5054 0.4486 0.8380
C15 C 0.5721(3) 0.4490(8) 0.7850(2)
C16 C 0.5689(3) 0.4482(8) 0.7316(2)
C17 C 0.6398(3) 0.4471(9) 0.7087(2)
C18 C 0.6482(3) 0.4415(9) 0.8245(2)
Cu1B Cu 0.26612(4) 0.06076(11) 0.67876(3)
Cu1C Cu 0.76612(4) 0.56076(11) 0.67876(3)
Cu1A Cu 0.23388(4) 0.56076(11) 0.82124(3)
N1B N 0.3557(3) -0.0088(7) 0.64741(17)
N2B N 0.2104(3) 0.0690(7) 0.60389(18)
N3B N 0.4043(3) -0.1175(8) 0.47224(19)
N4B N 0.2800(3) -0.0517(7) 0.43478(18)
O1B O 0.2956(2) 0.3735(6) 0.68988(15)
O2B O 0.3537(3) 0.4991(8) 0.63092(16)
O3B O 0.3275(2) 0.6080(6) 0.79378(15)
O3C O 0.8275(2) 0.1080(6) 0.79378(15)
O3A O 0.1725(2) 0.1080(6) 0.70622(15)
O4B O 0.3405(2) 0.2943(6) 0.80936(15)
O4C O 0.8405(2) -0.2057(6) 0.80936(15)
O4A O 0.1595(2) -0.2057(6) 0.69064(15)
O5B O 0.3284(2) -0.0166(6) 0.74913(15)
C1B C 0.1363(3) 0.1127(9) 0.5831(2)
H1B H 0.1039 0.1445 0.6053
C2B C 0.1058(3) 0.1128(9) 0.5300(2)
H2B H 0.0541 0.1451 0.5170
C3B C 0.1528(3) 0.0647(8) 0.4968(2)
H3B H 0.1328 0.0611 0.4612
C4B C 0.2308(3) 0.0211(8) 0.5168(2)
C5B C 0.2859(3) -0.0318(8) 0.4878(2)
C6B C 0.3506(4) -0.1010(9) 0.4299(2)
H4B H 0.3614 -0.1230 0.3974
C7B C 0.3631(3) -0.0693(8) 0.5105(2)
C8B C 0.3901(3) -0.0609(8) 0.5651(2)
C9B C 0.4689(3) -0.0848(9) 0.5918(2)
H5B H 0.5075 -0.1066 0.5735
C10B C 0.4861(3) -0.0750(10) 0.6444(2)
H6B H 0.5370 -0.0923 0.6625
C11B C 0.4283(3) -0.0393(10) 0.6712(2)
H7B H 0.4412 -0.0367 0.7073
C12B C 0.3373(3) -0.0174(8) 0.5954(2)
C13B C 0.2581(3) 0.0261(8) 0.5705(2)
C14B C 0.4969(3) 0.4486(9) 0.6975(2)
H8B H 0.4946 0.4486 0.6620
C15B C 0.4279(3) 0.4490(8) 0.7150(2)
C16B C 0.4311(3) 0.4482(8) 0.7684(2)
C17B C 0.3602(3) 0.4471(9) 0.7913(2)
C18B C 0.3518(3) 0.4415(9) 0.6755(2)
loop_
_geom_bond_atom_site_label_1
_geom_bond_atom_site_label_2
_geom_bond_site_symmetry_1
_geom_bond_site_symmetry_2
Cu1 N1 1_555 1_555
N1 C11 1_555 1_555
N2 Cu1 1_555 1_555
N3 C6 1_555 1_555
N4 C5 1_555 1_555
O1 Cu1 1_555 1_555
O2 C18 1_555 1_555
O3 C17 1_555 1_555
O4 C17 1_555 1_555
O5 Cu1 1_555 1_555
C1 N2 1_555 1_555
H1 C1 1_555 1_555
C2 C1 1_555 1_555
H2 C2 1_555 1_555
C3 C2 1_555 1_555
H3 C3 1_555 1_555
C4 C3 1_555 1_555
C5 C4 1_555 1_555
C6 N4 1_555 1_555
H4 C6 1_555 1_555
C7 N3 1_555 1_555
C8 C7 1_555 1_555
C9 C8 1_555 1_555
H5 C9 1_555 1_555
C10 C9 1_555 1_555
H6 C10 1_555 1_555
C11 C10 1_555 1_555
H7 C11 1_555 1_555
C12 N1 1_555 1_555
C13 N2 1_555 1_555
C14 H8 1_555 1_555
C15 C14 1_555 1_555
C16 C15 1_555 1_555
C17 C16 1_555 1_555
C18 O1 1_555 1_555
Cu1B N1B 1_555 1_555
Cu1C O3 1_555 1_555
Cu1A O3B 1_555 1_555
N1B C11B 1_555 1_555
N2B Cu1B 1_555 1_555
N3B C6B 1_555 1_555
N4B C5B 1_555 1_555
O1B Cu1B 1_555 1_555
O2B C18B 1_555 1_555
O3B C17B 1_555 1_555
O3C Cu1 1_555 1_555
O3A Cu1B 1_555 1_555
O4B Cu1A 1_555 1_555
O4C Cu1 1_555 1_555
O4A Cu1B 1_555 1_555
O5B Cu1B 1_555 1_555
C1B N2B 1_555 1_555
H1B C1B 1_555 1_555
C2B C1B 1_555 1_555
H2B C2B 1_555 1_555
C3B C2B 1_555 1_555
H3B C3B 1_555 1_555
C4B C3B 1_555 1_555
C5B C4B 1_555 1_555
C6B N4B 1_555 1_555
H4B C6B 1_555 1_555
C7B N3B 1_555 1_555
C8B C7B 1_555 1_555
C9B C8B 1_555 1_555
H5B C9B 1_555 1_555
C10B C9B 1_555 1_555
H6B C10B 1_555 1_555
C11B C10B 1_555 1_555
H7B C11B 1_555 1_555
C12B N1B 1_555 1_555
C13B N2B 1_555 1_555
C14B C16 1_555 1_555
H8B C14B 1_555 1_555
C15B C14B 1_555 1_555
C16B C14 1_555 1_555
C17B O4B 1_555 1_555
C18B O1B 1_555 1_555
O4 Cu1C 1_555 1_555
C4 C13 1_555 1_555
C5 C7 1_555 1_555
C8 C12 1_555 1_555
C12 C13 1_555 1_555
C15 C18 1_555 1_555
C4B C13B 1_555 1_555
C5B C7B 1_555 1_555
C8B C12B 1_555 1_555
C12B C13B 1_555 1_555
C15B C16B 1_555 1_555
C15B C18B 1_555 1_555
C16B C17B 1_555 1_555

#END
