
#######################################################################
#
#                 Cambridge Crystallographic Data Centre
#                                CCDC 
#
#######################################################################
#
# If this CIF has been generated from an entry in the Cambridge 
# Structural Database, then it will include bibliographic, chemical, 
# crystal, experimental, refinement or atomic coordinate data resulting 
# from the CCDC's data processing and validation procedures.
#
#######################################################################

data_BUTFAZ
_symmetry_cell_setting           monoclinic
_symmetry_space_group_name_H-M   'P 21/c'
_symmetry_Int_Tables_number      14
_space_group_name_Hall           '-P 2ybc'
loop_
_symmetry_equiv_pos_site_id
_symmetry_equiv_pos_as_xyz
1 x,y,z
2 -x,1/2+y,1/2-z
3 -x,-y,-z
4 x,1/2-y,1/2+z
_cell_length_a                   7.1457(14)
_cell_length_b                   26.002(5)
_cell_length_c                   10.043(2)
_cell_angle_alpha                90
_cell_angle_beta                 94.36(3)
_cell_angle_gamma                90
_cell_volume                     1860.61
loop_
_atom_site_label
_atom_site_type_symbol
_atom_site_fract_x
_atom_site_fract_y
_atom_site_fract_z
N1 N 0.7421(5) 0.57229(15) 0.4979(4)
Cd1 Cd 0.02622(4) 0.301789(11) 0.74665(3)
Cd2 Cd 0.0000 0.5000 1.0000
S1 S -0.26035(13) 0.47545(4) 0.79683(10)
S2 S 0.21742(15) 0.21181(4) 0.77700(10)
S3 S -0.29430(15) 0.25357(5) 0.63757(12)
N2 N 0.1698(4) 0.55127(11) 0.8336(3)
N3 N 0.3462(4) 0.59756(11) 0.6547(3)
N4 N 0.1443(5) 0.19630(12) 1.0436(3)
C1 C 0.3036(5) 0.54266(14) 0.6129(4)
H1 H 0.4197 0.5241 0.6032
H2 H 0.2302 0.5422 0.5276
N5 N -0.1089(5) 0.38314(13) 0.7054(3)
C2 C 0.0664(5) 0.59678(15) 0.7841(4)
H3 H 0.0541 0.6205 0.8576
H4 H -0.0588 0.5866 0.7501
C3 C 0.2498(5) 0.39627(15) 0.9236(4)
C4 C -0.1729(5) 0.42065(16) 0.7462(4)
C5 C 0.1752(5) 0.20396(13) 0.9342(4)
N6 N -0.1185(5) 0.20016(15) 0.4401(3)
C6 C 0.3556(5) 0.56799(17) 0.8884(4)
H5 H 0.4286 0.5381 0.9179
H6 H 0.3417 0.5897 0.9657
C7 C 0.4612(5) 0.59766(15) 0.7867(3)
H7 H 0.4826 0.6327 0.8170
H8 H 0.5820 0.5817 0.7770
N7 N 0.1875(4) 0.43272(12) 0.9669(3)
C8 C -0.1924(5) 0.22277(16) 0.5199(4)
C9 C 0.4469(5) 0.62521(14) 0.5505(4)
H9 H 0.3635 0.6293 0.4704
H10 H 0.4834 0.6592 0.5828
C10 C 0.1636(5) 0.62431(15) 0.6732(4)
H11 H 0.0839 0.6234 0.5906
H12 H 0.1865 0.6600 0.6975
C11 C 0.6146(6) 0.59640(16) 0.5185(4)
C12 C 0.1949(6) 0.51719(15) 0.7184(4)
H13 H 0.0726 0.5070 0.6786
H14 H 0.2607 0.4863 0.7496
S4 S 0.34782(16) 0.34544(5) 0.86551(14)
N1B N -0.7421(5) 0.42771(15) 1.5021(4)
Cd1B Cd -0.02622(4) 0.698211(11) 1.25335(3)
S1B S 0.26035(13) 0.52455(4) 1.20317(10)
S2B S -0.21742(15) 0.78819(4) 1.22300(10)
S3B S 0.29430(15) 0.74643(5) 1.36243(12)
N2B N -0.1698(4) 0.44873(11) 1.1664(3)
N3B N -0.3462(4) 0.40244(11) 1.3453(3)
N4B N -0.1443(5) 0.80370(12) 0.9564(3)
C1B C -0.3036(5) 0.45734(14) 1.3871(4)
H1B H -0.4197 0.4759 1.3968
H2B H -0.2302 0.4578 1.4724
N5B N 0.1089(5) 0.61686(13) 1.2946(3)
C2B C -0.0664(5) 0.40322(15) 1.2159(4)
H3B H -0.0541 0.3795 1.1424
H4B H 0.0588 0.4134 1.2499
C3B C -0.2498(5) 0.60373(15) 1.0764(4)
C4B C 0.1729(5) 0.57935(16) 1.2538(4)
C5B C -0.1752(5) 0.79604(13) 1.0658(4)
N6B N 0.1185(5) 0.79984(15) 1.5599(3)
C6B C -0.3556(5) 0.43201(17) 1.1116(4)
H5B H -0.4286 0.4619 1.0821
H6B H -0.3417 0.4103 1.0343
C7B C -0.4612(5) 0.40234(15) 1.2133(3)
H7B H -0.4826 0.3673 1.1830
H8B H -0.5820 0.4183 1.2230
N7B N -0.1875(4) 0.56728(12) 1.0331(3)
C8B C 0.1924(5) 0.77723(16) 1.4801(4)
C9B C -0.4469(5) 0.37479(14) 1.4495(4)
H9B H -0.3635 0.3707 1.5296
H10B H -0.4834 0.3408 1.4172
C10B C -0.1636(5) 0.37569(15) 1.3268(4)
H11B H -0.0839 0.3766 1.4094
H12B H -0.1865 0.3400 1.3025
C11B C -0.6146(6) 0.40360(16) 1.4815(4)
C12B C -0.1949(6) 0.48281(15) 1.2816(4)
H13B H -0.0726 0.4930 1.3214
H14B H -0.2607 0.5137 1.2504
S4B S -0.34782(16) 0.65456(5) 1.13449(14)
Cd1A Cd -0.02622(4) 0.801789(11) 0.75335(3)
Cd1A_2 Cd -0.02622(4) 0.801789(11) 1.75335(3)
Cd1C Cd 0.02622(4) 0.198211(11) 0.24665(3)
Cd1C_2 Cd 0.02622(4) 0.198211(11) 1.24665(3)
N4A N -0.1443(5) 0.69630(12) 1.4564(3)
N4C N 0.1443(5) 0.30370(12) 0.5436(3)
N6A N 0.1185(5) 0.70016(15) 1.0599(3)
N6C N -0.1185(5) 0.29984(15) 0.9401(3)
loop_
_geom_bond_atom_site_label_1
_geom_bond_atom_site_label_2
_geom_bond_site_symmetry_1
_geom_bond_site_symmetry_2
N1 C11 1_555 1_555
Cd1 S2 1_555 1_555
Cd2 S1 1_555 1_555
S1 C4 1_555 1_555
S2 C5 1_555 1_555
S3 Cd1 1_555 1_555
N2 Cd2 1_555 1_555
N3 C1 1_555 1_555
N4 C5 1_555 1_555
C1 H1 1_555 1_555
H2 C1 1_555 1_555
N5 Cd1 1_555 1_555
C2 N2 1_555 1_555
H3 C2 1_555 1_555
H4 C2 1_555 1_555
C3 N7 1_555 1_555
C4 N5 1_555 1_555
N6 C8 1_555 1_555
C6 N2 1_555 1_555
H5 C6 1_555 1_555
H6 C6 1_555 1_555
C7 N3 1_555 1_555
H7 C7 1_555 1_555
H8 C7 1_555 1_555
N7 Cd2 1_555 1_555
C8 S3 1_555 1_555
C9 N3 1_555 1_555
H9 C9 1_555 1_555
H10 C9 1_555 1_555
C10 N3 1_555 1_555
H11 C10 1_555 1_555
H12 C10 1_555 1_555
C11 C9 1_555 1_555
C12 N2 1_555 1_555
H13 C12 1_555 1_555
H14 C12 1_555 1_555
S4 Cd1 1_555 1_555
N1B C11B 1_555 1_555
Cd1B S2B 1_555 1_555
S1B Cd2 1_555 1_555
S2B C5B 1_555 1_555
S3B Cd1B 1_555 1_555
N2B Cd2 1_555 1_555
N3B C1B 1_555 1_555
N4B C5B 1_555 1_555
C1B H1B 1_555 1_555
H2B C1B 1_555 1_555
N5B Cd1B 1_555 1_555
C2B N2B 1_555 1_555
H3B C2B 1_555 1_555
H4B C2B 1_555 1_555
C3B N7B 1_555 1_555
C4B S1B 1_555 1_555
N6B C8B 1_555 1_555
C6B N2B 1_555 1_555
H5B C6B 1_555 1_555
H6B C6B 1_555 1_555
C7B N3B 1_555 1_555
H7B C7B 1_555 1_555
H8B C7B 1_555 1_555
N7B Cd2 1_555 1_555
C8B S3B 1_555 1_555
C9B N3B 1_555 1_555
H9B C9B 1_555 1_555
H10B C9B 1_555 1_555
C10B N3B 1_555 1_555
H11B C10B 1_555 1_555
H12B C10B 1_555 1_555
C11B C9B 1_555 1_555
C12B N2B 1_555 1_555
H13B C12B 1_555 1_555
H14B C12B 1_555 1_555
S4B Cd1B 1_555 1_555
Cd1A N4B 1_555 1_555
Cd1A_2 N6B 1_555 1_555
Cd1C N6 1_555 1_555
Cd1C_2 N4 1_555 1_555
N4A Cd1B 1_555 1_555
N4C Cd1 1_555 1_555
N6A Cd1B 1_555 1_555
N6C Cd1 1_555 1_555
C1 C12 1_555 1_555
C2 C10 1_555 1_555
C3 S4 1_555 1_555
C6 C7 1_555 1_555
C1B C12B 1_555 1_555
N5B C4B 1_555 1_555
C2B C10B 1_555 1_555
C3B S4B 1_555 1_555
C6B C7B 1_555 1_555

#END
