
#######################################################################
#
#                 Cambridge Crystallographic Data Centre
#                                CCDC 
#
#######################################################################
#
# If this CIF has been generated from an entry in the Cambridge 
# Structural Database, then it will include bibliographic, chemical, 
# crystal, experimental, refinement or atomic coordinate data resulting 
# from the CCDC's data processing and validation procedures.
#
#######################################################################

data_BUTFEC
_symmetry_cell_setting           triclinic
_symmetry_space_group_name_H-M   'P -1'
_symmetry_Int_Tables_number      2
_space_group_name_Hall           '-P 1'
loop_
_symmetry_equiv_pos_site_id
_symmetry_equiv_pos_as_xyz
1 x,y,z
2 -x,-y,-z
_cell_length_a                   7.9942(10)
_cell_length_b                   10.7267(10)
_cell_length_c                   14.4958(16)
_cell_angle_alpha                70.6900(10)
_cell_angle_beta                 75.4490(10)
_cell_angle_gamma                76.6690(10)
_cell_volume                     1120.58
loop_
_atom_site_label
_atom_site_type_symbol
_atom_site_fract_x
_atom_site_fract_y
_atom_site_fract_z
Sm1 Sm 0.59052(2) 0.592660(19) 0.358970(13)
Sm2 Sm 1.00641(2) 0.803572(19) 0.098218(13)
S1 S 0.63789(13) 0.40344(10) 0.22735(8)
S2 S 0.85534(15) 0.77772(14) 0.60085(10)
S3 S 0.41266(14) 1.15686(10) 0.15371(8)
O1 O 0.8360(3) 0.6158(3) 0.21526(19)
O2 O 1.0526(4) 0.5692(3) 0.0981(2)
O3 O 0.4122(4) 0.6595(3) 0.2366(2)
O4 O 0.3174(4) 0.7111(3) 0.0958(2)
O5 O 0.8235(4) 0.6466(4) 0.4319(2)
O6 O 0.5920(3) 0.5782(3) 0.53822(19)
O7 O 1.3035(4) 0.7036(3) 0.4228(2)
O8 O 1.2173(3) 0.6108(3) 0.58600(19)
O9 O 0.7688(4) 0.9475(3) 0.1726(2)
O10 O 0.6063(5) 0.8215(3) 0.2970(3)
O11 O 0.1237(3) 1.0084(3) 0.0465(2)
O12 O 0.2274(4) 1.1978(3) -0.0095(2)
O13 O 1.0603(4) 0.7694(3) 0.2642(2)
O14 O 1.1752(4) 0.7987(3) -0.0674(2)
C1 C 0.9229(5) 0.5371(4) 0.1639(3)
C2 C 0.8697(5) 0.4041(4) 0.1817(3)
H1 H 0.9333 0.3363 0.2295
H2 H 0.9029 0.3802 0.1198
C3 C 0.4161(5) 0.6398(4) 0.1546(3)
C4 C 0.5439(6) 0.5258(5) 0.1248(3)
H3 H 0.6379 0.5619 0.0727
H4 H 0.4843 0.4809 0.0975
C5 C 0.7407(5) 0.6153(4) 0.5193(3)
C6 C 0.8171(6) 0.6165(5) 0.6043(3)
H5 H 0.9273 0.5554 0.6051
H6 H 0.7384 0.5823 0.6662
C7 C 1.2003(5) 0.6983(4) 0.5042(3)
C8 C 1.0415(5) 0.8091(4) 0.5010(3)
H7 H 1.0033 0.8278 0.4386
H8 H 1.0788 0.8894 0.5002
C9 C 0.6374(5) 0.9308(4) 0.2418(3)
C10 C 0.5088(5) 1.0528(4) 0.2603(3)
H9 H 0.5690 1.1066 0.2794
H10 H 0.4156 1.0231 0.3157
C11 C 0.2210(5) 1.0847(4) 0.0513(3)
C12 C 0.3241(8) 1.0306(5) 0.1343(4)
H11 H 0.4193 0.9616 0.1188
H12 H 0.2485 0.9894 0.1954
H13 H 1.162(2) 0.739(5) 0.278(3)
H14 H 0.984(4) 0.736(5) 0.313(2)
H15 H 1.187(5) 0.876(2) -0.107(3)
H16 H 1.275(3) 0.754(4) -0.058(3)
Sm1A Sm 0.40948(2) 0.407340(19) 0.641030(13)
Sm1_2 Sm 1.59052(2) 0.592660(19) 0.358970(13)
Sm1A_2 Sm 1.40948(2) 0.407340(19) 0.641030(13)
Sm2_2 Sm 0.00641(2) 0.803572(19) 0.098218(13)
Sm2A Sm -0.00641(2) 1.196428(19) -0.098218(13)
O4_2 O 1.3174(4) 0.7111(3) 0.0958(2)
O6A O 0.4080(3) 0.4218(3) 0.46178(19)
O7_2 O 0.3035(4) 0.7036(3) 0.4228(2)
O8A O 0.7827(3) 0.3892(3) 0.41400(19)
O11_2 O 1.1237(3) 1.0084(3) 0.0465(2)
O11A O 0.8763(3) 0.9916(3) -0.0465(2)
O12A O 0.7726(4) 0.8022(3) 0.0095(2)
loop_
_geom_bond_atom_site_label_1
_geom_bond_atom_site_label_2
_geom_bond_site_symmetry_1
_geom_bond_site_symmetry_2
Sm1 S1 1_555 1_555
Sm2 O1 1_555 1_555
S1 C2 1_555 1_555
S2 C6 1_555 1_555
S3 C10 1_555 1_555
O1 Sm1 1_555 1_555
O2 Sm2 1_555 1_555
O3 Sm1 1_555 1_555
O4 C3 1_555 1_555
O5 Sm1 1_555 1_555
O6 Sm1 1_555 1_555
O7 C7 1_555 1_555
O8 C7 1_555 1_555
O9 Sm2 1_555 1_555
O10 Sm1 1_555 1_555
O11 C11 1_555 1_555
O12 C11 1_555 1_555
O13 Sm2 1_555 1_555
O14 Sm2 1_555 1_555
C1 O1 1_555 1_555
C2 C1 1_555 1_555
H1 C2 1_555 1_555
H2 C2 1_555 1_555
C3 O3 1_555 1_555
C4 S1 1_555 1_555
H3 C4 1_555 1_555
H4 C4 1_555 1_555
C5 O5 1_555 1_555
C6 C5 1_555 1_555
H5 C6 1_555 1_555
H6 C6 1_555 1_555
C7 C8 1_555 1_555
C8 S2 1_555 1_555
H7 C8 1_555 1_555
H8 C8 1_555 1_555
C9 O9 1_555 1_555
C10 C9 1_555 1_555
H9 C10 1_555 1_555
H10 C10 1_555 1_555
C11 C12 1_555 1_555
C12 S3 1_555 1_555
H11 C12 1_555 1_555
H12 C12 1_555 1_555
H13 O13 1_555 1_555
H14 O13 1_555 1_555
H15 O14 1_555 1_555
H16 O14 1_555 1_555
Sm1A O6 1_555 1_555
Sm1_2 O7 1_555 1_555
Sm1A_2 O8 1_555 1_555
Sm2_2 O4 1_555 1_555
Sm2A O11 1_555 1_555
O4_2 Sm2 1_555 1_555
O6A Sm1 1_555 1_555
O7_2 Sm1 1_555 1_555
O8A Sm1 1_555 1_555
O11_2 Sm2 1_555 1_555
O11A Sm2 1_555 1_555
O12A Sm2 1_555 1_555
O2 C1 1_555 1_555
O6 C5 1_555 1_555
O10 C9 1_555 1_555
O11 Sm2_2 1_555 1_555
O12 Sm2A 1_555 1_555
C3 C4 1_555 1_555
Sm1A O6A 1_555 1_555

#END
