
#######################################################################
#
#                 Cambridge Crystallographic Data Centre
#                                CCDC 
#
#######################################################################
#
# If this CIF has been generated from an entry in the Cambridge 
# Structural Database, then it will include bibliographic, chemical, 
# crystal, experimental, refinement or atomic coordinate data resulting 
# from the CCDC's data processing and validation procedures.
#
#######################################################################

data_BUTFIG
_symmetry_cell_setting           triclinic
_symmetry_space_group_name_H-M   'P -1'
_symmetry_Int_Tables_number      2
_space_group_name_Hall           '-P 1'
loop_
_symmetry_equiv_pos_site_id
_symmetry_equiv_pos_as_xyz
1 x,y,z
2 -x,-y,-z
_cell_length_a                   7.928(3)
_cell_length_b                   10.654(3)
_cell_length_c                   14.300(5)
_cell_angle_alpha                70.381(3)
_cell_angle_beta                 75.852(4)
_cell_angle_gamma                77.055(4)
_cell_volume                     1089.81
loop_
_atom_site_label
_atom_site_type_symbol
_atom_site_fract_x
_atom_site_fract_y
_atom_site_fract_z
Dy1 Dy 0.49384(2) 0.695594(17) 0.401946(11)
O1 O 0.7267(4) 0.5571(3) 0.3279(2)
Dy2 Dy 0.90973(2) 0.908054(17) 0.140580(11)
C1 C 0.8592(5) 0.5720(4) 0.2568(3)
O2 O 0.8943(5) 0.6822(3) 0.1998(3)
O3 O 1.0904(3) 1.0766(3) 0.03793(18)
C2 C 0.9828(5) 0.4479(4) 0.2387(3)
C3 C 1.2404(5) 1.1150(4) 0.0194(3)
S1 S 1.08284(13) 0.34318(10) 0.34579(7)
O4 O 1.1846(4) 0.7858(3) 0.40489(19)
O5 O 1.3248(4) 1.1451(4) -0.0686(2)
C4 C 1.3156(5) 1.1168(5) 0.1063(3)
C5 C 1.1751(7) 0.4707(5) 0.3638(4)
S2 S 1.35784(13) 1.28027(13) 0.10041(8)
C6 C 1.2797(5) 0.4173(4) 0.4481(3)
O6 O 1.3763(3) 0.4948(3) 0.45272(19)
O7 O 1.4485(4) 0.9261(3) 0.4010(2)
O8 O 1.6685(3) 0.8812(3) 0.28362(18)
O9 O 1.3324(3) 0.6985(3) 0.56677(18)
O10 O 1.4383(4) 0.7317(3) 0.23770(19)
O11 O 1.7257(4) 0.6974(3) 0.4894(2)
C7 C 1.5470(5) 1.3095(4) -0.0004(3)
C8 C 1.5802(5) 0.9604(4) 0.3351(3)
C9 C 1.7040(5) 1.1968(4) 0.0040(3)
C10 C 1.6313(5) 1.0941(4) 0.3187(3)
O12 O 1.7190(3) 1.1071(3) 0.08718(18)
O13 O 2.0854(4) 0.8407(3) 0.2627(2)
S3 S 1.86436(13) 1.09776(10) 0.27204(7)
O14 O 2.1927(4) 0.7971(3) 0.07864(19)
C11 C 2.0840(5) 0.8586(4) 0.3460(3)
C12 C 1.9596(6) 0.9737(5) 0.3763(3)
Dy2A Dy 1.09027(2) 1.091946(17) -0.140580(11)
Dy1_2 Dy 1.49384(2) 0.695594(17) 0.401946(11)
O6A O 1.6237(3) 0.5052(3) 0.54728(19)
O1_2 O 1.7267(4) 0.5571(3) 0.3279(2)
O11A O 1.2743(4) 0.3026(3) 0.5106(2)
Dy1A Dy 1.50616(2) 0.304406(17) 0.598054(11)
Dy2_2 Dy 1.90973(2) 0.908054(17) 0.140580(11)
O5A O 1.6752(4) 0.8549(4) 0.0686(2)
O3A O 1.9096(3) 0.9234(3) -0.03793(18)
O2_2 O 1.8943(5) 0.6822(3) 0.1998(3)
O3_2 O 2.0904(3) 1.0766(3) 0.03793(18)
O14A O 1.8073(4) 1.2029(3) -0.07864(19)
Dy2A_2 Dy 2.09027(2) 1.091946(17) -0.140580(11)
O4_2 O 2.1846(4) 0.7858(3) 0.40489(19)
Dy1_3 Dy 2.49384(2) 0.695594(17) 0.401946(11)
loop_
_geom_bond_atom_site_label_1
_geom_bond_atom_site_label_2
_geom_bond_site_symmetry_1
_geom_bond_site_symmetry_2
Dy1 O1 1_555 1_555
O1 C1 1_555 1_555
Dy2 O2 1_555 1_555
C1 O2 1_555 1_555
O3 Dy2 1_555 1_555
C2 C1 1_555 1_555
C3 O3 1_555 1_555
S1 C2 1_555 1_555
O4 Dy1_2 1_555 1_555
O5 C3 1_555 1_555
C4 C3 1_555 1_555
C5 S1 1_555 1_555
S2 C4 1_555 1_555
C6 C5 1_555 1_555
O6 C6 1_555 1_555
O7 C8 1_555 1_555
O8 C8 1_555 1_555
O9 Dy1_2 1_555 1_555
O10 Dy1_2 1_555 1_555
O11 Dy1_2 1_555 1_555
C7 S2 1_555 1_555
C8 C10 1_555 1_555
C9 C7 1_555 1_555
C10 S3 1_555 1_555
O12 C9 1_555 1_555
O13 C11 1_555 1_555
S3 C12 1_555 1_555
O14 Dy2_2 1_555 1_555
C11 C12 1_555 1_555
Dy2A O3 1_555 1_555
Dy1_2 O6 1_555 1_555
O6A Dy1_2 1_555 1_555
O1_2 Dy1_2 1_555 1_555
O11A C6 1_555 1_555
Dy1A O6 1_555 1_555
Dy2_2 O8 1_555 1_555
O5A Dy2_2 1_555 1_555
O3A Dy2_2 1_555 1_555
O2_2 Dy2_2 1_555 1_555
O3_2 Dy2_2 1_555 1_555
O14A C9 1_555 1_555
Dy2A_2 O3A 1_555 1_555
O4_2 C11 1_555 1_555
Dy1_3 O4_2 1_555 1_555
O5 Dy2A 1_555 1_555
O7 Dy1_2 1_555 1_555
O8 Dy1_2 1_555 1_555
O12 Dy2_2 1_555 1_555
O13 Dy2_2 1_555 1_555
S3 Dy2_2 1_555 1_555
O6A Dy1A 1_555 1_555
O11A Dy1A 1_555 1_555
O3_2 Dy2A_2 1_555 1_555
O14A Dy2A_2 1_555 1_555

#END
