
#######################################################################
#
#                 Cambridge Crystallographic Data Centre
#                                CCDC 
#
#######################################################################
#
# If this CIF has been generated from an entry in the Cambridge 
# Structural Database, then it will include bibliographic, chemical, 
# crystal, experimental, refinement or atomic coordinate data resulting 
# from the CCDC's data processing and validation procedures.
#
#######################################################################

data_BUTGAZ01
_symmetry_cell_setting           orthorhombic
_symmetry_space_group_name_H-M   'P b c a'
_symmetry_Int_Tables_number      61
_space_group_name_Hall           '-P 2ac 2ab'
loop_
_symmetry_equiv_pos_site_id
_symmetry_equiv_pos_as_xyz
1 x,y,z
2 1/2-x,-y,1/2+z
3 -x,1/2+y,1/2-z
4 1/2+x,1/2-y,-z
5 -x,-y,-z
6 1/2+x,y,1/2-z
7 x,1/2-y,1/2+z
8 1/2-x,1/2+y,z
_cell_length_a                   8.9904(7)
_cell_length_b                   25.1786(19)
_cell_length_c                   34.027(3)
_cell_angle_alpha                90
_cell_angle_beta                 90
_cell_angle_gamma                90
_cell_volume                     7702.55
loop_
_atom_site_label
_atom_site_type_symbol
_atom_site_fract_x
_atom_site_fract_y
_atom_site_fract_z
Ag1 Ag 0.49575(7) 0.60956(2) 0.73560(2)
N1 N 0.3362(6) 0.5483(2) 0.7431(2)
N2 N 0.3520(7) 0.1743(2) 0.7625(2)
C1 C 0.2723(9) 0.5257(3) 0.7128(2)
H1 H 0.2907 0.5398 0.6880
C2 C 0.1800(8) 0.4825(3) 0.7156(2)
H2 H 0.1372 0.4682 0.6931
C3 C 0.1512(7) 0.4606(2) 0.7517(2)
C4 C 0.2145(8) 0.4851(3) 0.7839(2)
H3 H 0.1952 0.4726 0.8091
C5 C 0.3052(8) 0.5275(3) 0.7785(2)
H4 H 0.3484 0.5431 0.8005
C6 C 0.2986(9) 0.1921(3) 0.7287(2)
H5 H 0.3257 0.1749 0.7055
C7 C 0.2043(9) 0.2352(3) 0.7266(2)
H6 H 0.1678 0.2460 0.7023
C8 C 0.1632(7) 0.2624(2) 0.7601(2)
C9 C 0.2217(10) 0.2431(3) 0.7941(3)
H7 H 0.1977 0.2596 0.8177
C10 C 0.3148(9) 0.2002(3) 0.7945(2)
H8 H 0.3534 0.1889 0.8185
C11 C 0.0564(8) 0.4106(2) 0.7553(2)
H9 H -0.0021 0.4122 0.7792
H10 H -0.0115 0.4084 0.7332
C12 C 0.1553(7) 0.3616(2) 0.7561(2)
H11 H 0.2211 0.3636 0.7786
H12 H 0.2164 0.3610 0.7326
C13 C 0.0650(8) 0.3104(2) 0.7583(2)
H13 H 0.0019 0.3114 0.7814
H14 H 0.0012 0.3080 0.7354
Ag1B Ag 0.50425(7) 0.10956(2) 0.76440(2)
N2B N 0.6480(7) 0.6743(2) 0.7375(2)
Ag2 Ag 0.21298(7) 0.49147(2) 0.50641(2)
N3 N 0.3761(6) 0.55390(18) 0.50965(19)
N4 N 0.4459(6) 0.92751(19) 0.5061(2)
C14 C 0.4493(9) 0.5672(3) 0.4771(2)
H15 H 0.4311 0.5481 0.4542
C15 C 0.5509(8) 0.6081(3) 0.4760(2)
H16 H 0.6007 0.6156 0.4526
C16 C 0.5795(7) 0.6379(2) 0.5086(2)
C17 C 0.5044(7) 0.6237(2) 0.5424(2)
H17 H 0.5208 0.6425 0.5656
C18 C 0.4058(8) 0.5820(3) 0.5421(2)
H18 H 0.3578 0.5729 0.5654
C19 C 0.4906(7) 0.9063(2) 0.4719(2)
H19 H 0.4630 0.9228 0.4486
C20 C 0.5762(7) 0.8608(2) 0.4702(2)
H20 H 0.6044 0.8470 0.4459
C21 C 0.6199(7) 0.8357(2) 0.5042(2)
C22 C 0.5748(8) 0.8579(3) 0.5391(2)
H21 H 0.6025 0.8422 0.5627
C23 C 0.4885(8) 0.9033(3) 0.5394(3)
H22 H 0.4592 0.9175 0.5634
C24 C 0.6859(7) 0.6836(2) 0.5075(2)
H23 H 0.7505 0.6802 0.4848
H24 H 0.7474 0.6831 0.5309
C25 C 0.6009(7) 0.7369(2) 0.5053(2)
H25 H 0.5376 0.7367 0.4822
H26 H 0.5374 0.7402 0.5282
C26 C 0.7033(7) 0.7845(2) 0.5034(2)
H27 H 0.7715 0.7834 0.5255
H28 H 0.7617 0.7827 0.4795
Ag2G Ag 0.28702(7) 0.99147(2) 0.50641(2)
N4G N 0.0541(6) 0.42751(19) 0.5061(2)
N5 N 0.5329(6) 0.2890(2) 0.61591(19)
O1 O 0.0874(6) 0.24837(19) 0.6159(2)
O2 O 0.0204(6) 0.3269(2) 0.63736(19)
O3 O 0.4207(6) 0.47248(17) 0.63237(16)
O4 O 0.6516(5) 0.44571(17) 0.62475(14)
C27 C 0.1140(8) 0.2949(3) 0.6264(2)
C28 C 0.5159(8) 0.4379(3) 0.6283(2)
C29 C 0.3883(8) 0.2762(3) 0.6182(2)
H29 H 0.3626 0.2407 0.6152
C30 C 0.2760(7) 0.3120(2) 0.62472(19)
C31 C 0.3179(7) 0.3649(2) 0.62950(18)
H30 H 0.2460 0.3906 0.6344
C32 C 0.4662(7) 0.3794(2) 0.62696(18)
C33 C 0.5674(8) 0.3400(3) 0.6205(2)
H31 H 0.6673 0.3494 0.6191
O5 O 0.2474(6) 0.47856(18) 0.42728(15)
H32 H 0.2780 0.5028 0.4119
H33 H 0.2399 0.4499 0.4142
O6 O 0.5193(5) 0.57577(17) 0.65223(15)
H34 H 0.4977 0.5445 0.6447
H35 H 0.5990 0.5854 0.6408
O7 O 0.7088(5) 0.72062(17) 0.60438(14)
H36 H 0.6235 0.7338 0.6090
H37 H 0.7743 0.7442 0.6088
O8 O 0.2727(5) 0.61664(17) 0.88036(15)
H38 H 0.3621 0.6125 0.8729
H39 H 0.2580 0.6495 0.8846
O9 O 0.3541(6) 1.00346(19) 0.60446(16)
H40 H 0.2675 0.9953 0.6124
H41 H 0.4160 0.9823 0.6150
O10 O 0.5450(6) 0.93082(18) 0.64122(15)
H42 H 0.5250 0.8979 0.6400
H43 H 0.6369 0.9350 0.6362
O11 O 0.3068(6) 0.6527(2) 0.63711(19)
H44 H 0.3453 0.6822 0.6306
H45 H 0.3764 0.6305 0.6412
O12 O 0.5537(7) 0.5972(2) 0.8564(2)
H46 H 0.5739 0.5678 0.8676
H47 H 0.6308 0.6167 0.8574
loop_
_geom_bond_atom_site_label_1
_geom_bond_atom_site_label_2
_geom_bond_site_symmetry_1
_geom_bond_site_symmetry_2
Ag1 N1 1_555 1_555
N1 C1 1_555 1_555
N2 C6 1_555 1_555
C1 H1 1_555 1_555
C2 C1 1_555 1_555
H2 C2 1_555 1_555
C3 C2 1_555 1_555
C4 C3 1_555 1_555
H3 C4 1_555 1_555
C5 N1 1_555 1_555
H4 C5 1_555 1_555
C6 H5 1_555 1_555
C7 C6 1_555 1_555
H6 C7 1_555 1_555
C8 C7 1_555 1_555
C9 C8 1_555 1_555
H7 C9 1_555 1_555
C10 N2 1_555 1_555
H8 C10 1_555 1_555
C11 C3 1_555 1_555
H9 C11 1_555 1_555
H10 C11 1_555 1_555
C12 C11 1_555 1_555
H11 C12 1_555 1_555
H12 C12 1_555 1_555
C13 C8 1_555 1_555
H13 C13 1_555 1_555
H14 C13 1_555 1_555
Ag2 N3 1_555 1_555
N3 C14 1_555 1_555
N4 C19 1_555 1_555
C14 H15 1_555 1_555
C15 C14 1_555 1_555
H16 C15 1_555 1_555
C16 C15 1_555 1_555
C17 C16 1_555 1_555
H17 C17 1_555 1_555
C18 N3 1_555 1_555
H18 C18 1_555 1_555
C19 H19 1_555 1_555
C20 C19 1_555 1_555
H20 C20 1_555 1_555
C21 C20 1_555 1_555
C22 C21 1_555 1_555
H21 C22 1_555 1_555
C23 N4 1_555 1_555
H22 C23 1_555 1_555
C24 C16 1_555 1_555
H23 C24 1_555 1_555
H24 C24 1_555 1_555
C25 C24 1_555 1_555
H25 C25 1_555 1_555
H26 C25 1_555 1_555
C26 C21 1_555 1_555
H27 C26 1_555 1_555
H28 C26 1_555 1_555
N5 C29 1_555 1_555
O1 C27 1_555 1_555
O2 C27 1_555 1_555
O3 C28 1_555 1_555
O4 C28 1_555 1_555
C27 C30 1_555 1_555
C28 C32 1_555 1_555
C29 H29 1_555 1_555
C30 C29 1_555 1_555
C31 C30 1_555 1_555
H30 C31 1_555 1_555
C32 C31 1_555 1_555
C33 N5 1_555 1_555
H31 C33 1_555 1_555
O5 H32 1_555 1_555
H33 O5 1_555 1_555
O6 H34 1_555 1_555
H35 O6 1_555 1_555
O7 H36 1_555 1_555
H37 O7 1_555 1_555
O8 H38 1_555 1_555
H39 O8 1_555 1_555
O9 H40 1_555 1_555
H41 O9 1_555 1_555
O10 H42 1_555 1_555
H43 O10 1_555 1_555
O11 H44 1_555 1_555
H45 O11 1_555 1_555
O12 H46 1_555 1_555
H47 O12 1_555 1_555
Ag1B N2 1_555 1_555
N2B Ag1 1_555 1_555
Ag2G N4 1_555 1_555
N4G Ag2 1_555 1_555
C4 C5 1_555 1_555
C9 C10 1_555 1_555
C12 C13 1_555 1_555
C17 C18 1_555 1_555
C22 C23 1_555 1_555
C25 C26 1_555 1_555
C32 C33 1_555 1_555

#END
