
#######################################################################
#
#                 Cambridge Crystallographic Data Centre
#                                CCDC 
#
#######################################################################
#
# If this CIF has been generated from an entry in the Cambridge 
# Structural Database, then it will include bibliographic, chemical, 
# crystal, experimental, refinement or atomic coordinate data resulting 
# from the CCDC's data processing and validation procedures.
#
#######################################################################

data_BUTGAZ
_symmetry_cell_setting           monoclinic
_symmetry_space_group_name_H-M   'P 21/c'
_symmetry_Int_Tables_number      14
_space_group_name_Hall           '-P 2ybc'
loop_
_symmetry_equiv_pos_site_id
_symmetry_equiv_pos_as_xyz
1 x,y,z
2 -x,1/2+y,1/2-z
3 -x,-y,-z
4 x,1/2-y,1/2+z
_cell_length_a                   24.640(8)
_cell_length_b                   16.930(6)
_cell_length_c                   9.153(3)
_cell_angle_alpha                90
_cell_angle_beta                 91.706(7)
_cell_angle_gamma                90
_cell_volume                     3816.53
loop_
_atom_site_label
_atom_site_type_symbol
_atom_site_fract_x
_atom_site_fract_y
_atom_site_fract_z
Ag1 Ag 1.05553(2) 0.25456(4) 0.88559(6)
Ag2 Ag 1.55406(2) 0.29841(4) 0.87168(5)
N1 N 1.4975(2) 0.2794(4) 1.0395(5)
N2 N 0.6169(2) 0.2859(4) 0.7157(5)
N3 N 0.9927(2) 0.2571(5) 0.7216(6)
N4 N 1.1206(2) 0.2496(5) 1.0445(6)
C1 C 0.9041(3) 0.2556(6) 0.5238(6)
C2 C 0.9253(3) 0.3247(5) 0.5796(8)
H1 H 0.9104 0.3730 0.5515
C3 C 0.9698(3) 0.3217(5) 0.6797(8)
H2 H 0.9833 0.3691 0.7175
C4 C 0.9724(3) 0.1913(5) 0.6628(9)
H3 H 0.9891 0.1439 0.6889
C5 C 0.9290(3) 0.1881(5) 0.5671(8)
H4 H 0.9166 0.1396 0.5319
C6 C 0.8536(2) 0.2559(4) 0.4257(6)
H5 H 0.8525 0.2083 0.3667
H6 H 0.8544 0.3010 0.3605
C7 C 0.8032(2) 0.2600(3) 0.5174(6)
H7 H 0.8057 0.3062 0.5799
H8 H 0.8023 0.2138 0.5799
C8 C 0.6334(3) 0.2168(5) 0.6698(7)
H9 H 0.6160 0.1718 0.7028
C9 C 0.6759(3) 0.2075(5) 0.5742(7)
H10 H 0.6861 0.1570 0.5456
C10 C 0.7027(3) 0.2718(5) 0.5218(6)
C11 C 0.6846(3) 0.3433(5) 0.5707(7)
H11 H 0.7010 0.3894 0.5387
C12 C 0.6425(3) 0.3486(4) 0.6664(7)
H12 H 0.6318 0.3984 0.6974
C13 C 0.7500(2) 0.2641(4) 0.4262(6)
H13 H 0.7511 0.3090 0.3605
H14 H 0.7461 0.2166 0.3674
C14 C 1.2113(3) 0.2371(5) 1.2367(6)
C15 C 1.1871(3) 0.3079(4) 1.2036(7)
H15 H 1.2011 0.3539 1.2455
C16 C 1.1425(3) 0.3127(5) 1.1092(9)
H16 H 1.1272 0.3620 1.0903
C17 C 1.1444(3) 0.1813(5) 1.0773(7)
H17 H 1.1306 0.1359 1.0327
C18 C 1.1875(3) 0.1734(4) 1.1716(7)
H18 H 1.2011 0.1232 1.1921
C19 C 1.2617(2) 0.2347(4) 1.3316(6)
H19 H 1.2629 0.1855 1.3862
H20 H 1.2613 0.2779 1.4011
C20 C 1.3120(2) 0.2412(3) 1.2381(5)
H21 H 1.3095 0.2893 1.1808
H22 H 1.3124 0.1970 1.1705
C21 C 1.4783(3) 0.2072(5) 1.0678(6)
H23 H 1.4936 0.1642 1.0208
C22 C 1.4371(3) 0.1933(4) 1.1634(6)
H24 H 1.4256 0.1418 1.1795
C23 C 1.4128(3) 0.2545(5) 1.2350(6)
C24 C 1.4337(3) 0.3283(5) 1.2083(7)
H25 H 1.4200 0.3718 1.2570
C25 C 1.4741(3) 0.3385(4) 1.1116(8)
H26 H 1.4862 0.3897 1.0949
C26 C 1.3661(2) 0.2418(4) 1.3290(6)
H27 H 1.3650 0.2835 1.4016
H28 H 1.3704 0.1919 1.3800
O1 O 1.53405(17) 0.4476(3) 0.8218(5)
H29 H 1.5029 0.4615 0.8328
H30 H 1.5432 0.4613 0.9067
Ag2_2 Ag 0.55406(2) 0.29841(4) 0.87168(5)
N2_2 N 1.6169(2) 0.2859(4) 0.7157(5)
N5 N 0.3021(3) 0.4827(4) 1.1336(6)
O2 O 0.17070(18) 0.5332(3) 0.7520(5)
O3 O 0.14581(18) 0.5164(3) 0.9809(5)
O4 O 0.3712(2) 0.4962(3) 0.6536(6)
O5 O 0.4273(2) 0.4964(3) 0.8469(6)
C27 C 0.1801(3) 0.5213(4) 0.8832(9)
C28 C 0.2389(3) 0.5091(4) 0.9334(7)
C29 C 0.2509(3) 0.4966(4) 1.0776(8)
H31 H 0.2224 0.4975 1.1422
C30 C 0.3426(3) 0.4844(4) 1.0360(10)
H32 H 0.3782 0.4780 1.0711
C31 C 0.3340(3) 0.4948(4) 0.8889(8)
C32 C 0.2807(3) 0.5071(3) 0.8361(7)
H33 H 0.2736 0.5139 0.7365
C33 C 0.3820(3) 0.4981(5) 0.7862(10)
O6 O 0.0422(2) 0.0765(3) 0.8980(5)
H34 H 0.0658 0.0505 0.8578
H35 H 0.0129 0.0543 0.8806
O7 O 0.4448(4) 0.4871(6) 0.4428(9)
H36 H 0.4219 0.4909 0.5057
H37 H 0.4502 0.5072 0.3651
O8 O 0.2022(2) 0.5192(3) 0.4712(5)
H38 H 0.1935 0.5221 0.5555
H39 H 0.2306 0.4937 0.4636
O9 O 0.1198(2) 0.5048(4) 0.2679(5)
H40 H 0.1449 0.5075 0.3289
H41 H 0.1280 0.5069 0.1846
O10 O 0.06194(19) 0.5032(3) 0.6641(5)
H42 H 0.0935 0.5112 0.6874
H43 H 0.0569 0.4804 0.5851
O11 O 0.0403(2) 0.4487(4) 0.9518(7)
H44 H 0.0710 0.4599 0.9802
H45 H 0.0477 0.4636 0.8697
O12 O 0.2985(2) 0.4353(3) 0.4403(5)
H46 H 0.2995 0.4481 0.3563
H47 H 0.3193 0.4526 0.5010
H48? H 0.4295 0.5241 0.5421
H49? H 0.4578 0.5405 0.4080
O13? O 0.4566(6) 0.5389(8) 0.4975(14)
loop_
_geom_bond_atom_site_label_1
_geom_bond_atom_site_label_2
_geom_bond_site_symmetry_1
_geom_bond_site_symmetry_2
Ag1 N3 1_555 1_555
Ag2 N1 1_555 1_555
N1 C21 1_555 1_555
N2 C8 1_555 1_555
N3 C3 1_555 1_555
N4 Ag1 1_555 1_555
C1 C2 1_555 1_555
C2 H1 1_555 1_555
C3 C2 1_555 1_555
H2 C3 1_555 1_555
C4 N3 1_555 1_555
H3 C4 1_555 1_555
C5 C1 1_555 1_555
H4 C5 1_555 1_555
C6 C1 1_555 1_555
H5 C6 1_555 1_555
H6 C6 1_555 1_555
C7 C6 1_555 1_555
H7 C7 1_555 1_555
H8 C7 1_555 1_555
C8 H9 1_555 1_555
C9 C8 1_555 1_555
H10 C9 1_555 1_555
C10 C9 1_555 1_555
C11 C10 1_555 1_555
H11 C11 1_555 1_555
C12 N2 1_555 1_555
H12 C12 1_555 1_555
C13 C7 1_555 1_555
H13 C13 1_555 1_555
H14 C13 1_555 1_555
C14 C15 1_555 1_555
C15 H15 1_555 1_555
C16 N4 1_555 1_555
H16 C16 1_555 1_555
C17 N4 1_555 1_555
H17 C17 1_555 1_555
C18 C14 1_555 1_555
H18 C18 1_555 1_555
C19 C14 1_555 1_555
H19 C19 1_555 1_555
H20 C19 1_555 1_555
C20 C19 1_555 1_555
H21 C20 1_555 1_555
H22 C20 1_555 1_555
C21 H23 1_555 1_555
C22 C21 1_555 1_555
H24 C22 1_555 1_555
C23 C22 1_555 1_555
C24 C23 1_555 1_555
H25 C24 1_555 1_555
C25 N1 1_555 1_555
H26 C25 1_555 1_555
C26 C20 1_555 1_555
H27 C26 1_555 1_555
H28 C26 1_555 1_555
O1 Ag2 1_555 1_555
H29 O1 1_555 1_555
H30 O1 1_555 1_555
N5 C29 1_555 1_555
O2 C27 1_555 1_555
O3 C27 1_555 1_555
O4 C33 1_555 1_555
O5 C33 1_555 1_555
C27 C28 1_555 1_555
C28 C29 1_555 1_555
C29 H31 1_555 1_555
C30 N5 1_555 1_555
H32 C30 1_555 1_555
C31 C30 1_555 1_555
C32 C28 1_555 1_555
H33 C32 1_555 1_555
C33 C31 1_555 1_555
O6 H34 1_555 1_555
H35 O6 1_555 1_555
O7 H36 1_555 1_555
H37 O7 1_555 1_555
O8 H38 1_555 1_555
H39 O8 1_555 1_555
O9 H40 1_555 1_555
H41 O9 1_555 1_555
O10 H42 1_555 1_555
H43 O10 1_555 1_555
O11 H44 1_555 1_555
H45 O11 1_555 1_555
O12 H46 1_555 1_555
H47 O12 1_555 1_555
Ag2_2 N2 1_555 1_555
N2_2 Ag2 1_555 1_555
C4 C5 1_555 1_555
C10 C13 1_555 1_555
C11 C12 1_555 1_555
C15 C16 1_555 1_555
C17 C18 1_555 1_555
C23 C26 1_555 1_555
C24 C25 1_555 1_555
C31 C32 1_555 1_555

#END
