
#######################################################################
#
#                 Cambridge Crystallographic Data Centre
#                                CCDC 
#
#######################################################################
#
# If this CIF has been generated from an entry in the Cambridge 
# Structural Database, then it will include bibliographic, chemical, 
# crystal, experimental, refinement or atomic coordinate data resulting 
# from the CCDC's data processing and validation procedures.
#
#######################################################################

data_BUTJEG
_symmetry_cell_setting           triclinic
_symmetry_space_group_name_H-M   'P -1'
_symmetry_Int_Tables_number      2
_space_group_name_Hall           '-P 1'
loop_
_symmetry_equiv_pos_site_id
_symmetry_equiv_pos_as_xyz
1 x,y,z
2 -x,-y,-z
_cell_length_a                   10.1657(10)
_cell_length_b                   10.3043(10)
_cell_length_c                   11.0817(11)
_cell_angle_alpha                117.093(2)
_cell_angle_beta                 92.521(2)
_cell_angle_gamma                100.847(2)
_cell_volume                     1003.74
loop_
_atom_site_label
_atom_site_type_symbol
_atom_site_fract_x
_atom_site_fract_y
_atom_site_fract_z
O1 O 0.9720(5) 0.7992(5) 0.8348(5)
O2 O 0.7982(4) 0.9830(5) 0.9883(5)
O3 O 0.9660(3) 0.5086(3) 0.7910(3)
C1 C 1.2033(3) 0.8131(3) 1.1815(3)
O4 O 1.3081(2) 0.9127(2) 1.2152(2)
Co1 Co 1.39709(3) 0.66491(4) 1.10891(3)
O5 O 0.6856(2) 0.5859(2) 1.0072(2)
O6 O 0.59066(18) 0.7566(2) 1.16239(19)
O7 O 0.8646(3) 1.2325(4) 1.5024(4)
O8 O 1.0783(3) 1.2736(3) 1.5291(4)
O9 O 1.20031(18) 0.6736(2) 1.11808(19)
N1 N 1.3928(2) 0.6811(3) 0.9353(2)
N2 N 1.4055(2) 0.6585(3) 0.2884(2)
C2 C 1.3965(3) 0.6787(3) 0.6822(3)
C3 C 1.4017(3) 0.6708(3) 0.5455(3)
C4 C 1.3419(3) 0.5412(3) 0.4261(3)
H1 H 1.2994 0.4555 0.4303
C5 C 0.6907(3) 0.7066(3) 1.1112(3)
C6 C 1.2946(3) 0.5908(4) 0.8304(3)
H2 H 1.2240 0.5281 0.8428
C7 C 0.9461(3) 0.7621(3) 1.1500(3)
H3 H 0.9416 0.6660 1.0800
C8 C 1.0716(3) 0.8579(3) 1.2183(3)
C9 C 1.4670(3) 0.7824(3) 0.4032(3)
H4 H 1.5112 0.8655 0.3958
C10 C 0.8273(3) 0.8088(3) 1.1858(3)
C11 C 1.3454(3) 0.5391(3) 0.3011(3)
H5 H 1.3043 0.4510 0.2223
C12 C 1.4679(3) 0.7930(3) 0.5313(3)
H6 H 1.5127 0.8813 0.6082
C13 C 1.4942(3) 0.7778(3) 0.7936(3)
H7 H 1.5628 0.8459 0.7854
N3 N 0.9682(3) 1.1936(3) 1.4690(4)
C14 C 0.8344(3) 0.9514(3) 1.2920(3)
H8 H 0.7560 0.9841 1.3181
C15 C 1.4896(3) 0.7753(3) 0.9165(3)
H9 H 1.5567 0.8421 0.9899
C16 C 1.0785(3) 1.0001(3) 1.3223(3)
H10 H 1.1619 1.0656 1.3678
C17 C 0.9602(3) 1.0434(3) 1.3578(3)
C18 C 1.2935(3) 0.5866(4) 0.7040(3)
H11 H 1.2233 0.5216 0.6333
Co1A Co 0.60291(3) 0.33509(4) 0.89109(3)
Co1_2 Co 0.39709(3) 0.66491(4) 1.10891(3)
Co1_3 Co 1.39709(3) 0.66491(4) 0.10891(3)
O5A O 1.3144(2) 0.4141(2) 0.9928(2)
O6_2 O 1.59066(18) 0.7566(2) 1.16239(19)
N2_2 N 1.4055(2) 0.6585(3) 1.2884(2)
loop_
_geom_bond_atom_site_label_1
_geom_bond_atom_site_label_2
_geom_bond_site_symmetry_1
_geom_bond_site_symmetry_2
C1 O4 1_555 1_555
Co1 O9 1_555 1_555
O5 C5 1_555 1_555
O6 C5 1_555 1_555
O7 N3 1_555 1_555
O8 N3 1_555 1_555
O9 C1 1_555 1_555
N1 Co1 1_555 1_555
N2 C9 1_555 1_555
C2 C3 1_555 1_555
C3 C4 1_555 1_555
C4 H1 1_555 1_555
C5 C10 1_555 1_555
C6 N1 1_555 1_555
H2 C6 1_555 1_555
C7 H3 1_555 1_555
C8 C1 1_555 1_555
C9 H4 1_555 1_555
C10 C7 1_555 1_555
C11 N2 1_555 1_555
H5 C11 1_555 1_555
C12 C3 1_555 1_555
H6 C12 1_555 1_555
C13 C2 1_555 1_555
H7 C13 1_555 1_555
N3 C17 1_555 1_555
C14 C10 1_555 1_555
H8 C14 1_555 1_555
C15 N1 1_555 1_555
H9 C15 1_555 1_555
C16 C8 1_555 1_555
H10 C16 1_555 1_555
C17 C14 1_555 1_555
C18 C2 1_555 1_555
H11 C18 1_555 1_555
Co1A O5 1_555 1_555
Co1_2 O6 1_555 1_555
Co1_3 N2 1_555 1_555
O5A Co1 1_555 1_555
O6_2 Co1 1_555 1_555
N2_2 Co1 1_555 1_555
C4 C11 1_555 1_555
C6 C18 1_555 1_555
C7 C8 1_555 1_555
C9 C12 1_555 1_555
C13 C15 1_555 1_555
C16 C17 1_555 1_555

#END
