
#######################################################################
#
#                 Cambridge Crystallographic Data Centre
#                                CCDC 
#
#######################################################################
#
# If this CIF has been generated from an entry in the Cambridge 
# Structural Database, then it will include bibliographic, chemical, 
# crystal, experimental, refinement or atomic coordinate data resulting 
# from the CCDC's data processing and validation procedures.
#
#######################################################################

data_BUTJIK01
_symmetry_cell_setting           triclinic
_symmetry_space_group_name_H-M   'P -1'
_symmetry_Int_Tables_number      2
_space_group_name_Hall           '-P 1'
loop_
_symmetry_equiv_pos_site_id
_symmetry_equiv_pos_as_xyz
1 x,y,z
2 -x,-y,-z
_cell_length_a                   9.643(5)
_cell_length_b                   10.148(4)
_cell_length_c                   11.571(5)
_cell_angle_alpha                74.364(5)
_cell_angle_beta                 78.652(6)
_cell_angle_gamma                68.720(5)
_cell_volume                     1009.86
loop_
_atom_site_label
_atom_site_type_symbol
_atom_site_fract_x
_atom_site_fract_y
_atom_site_fract_z
C1 C 0.37444(14) 0.07847(11) 0.76045(10)
C2 C 0.33961(16) 0.10487(12) 0.64423(11)
H1 H 0.3281 0.1950 0.5925
C3 C 0.32229(17) -0.00644(13) 0.60681(11)
C4 C 0.33435(16) -0.14062(12) 0.68179(11)
H2 H 0.3211 -0.2128 0.6543
C5 C 0.36670(13) -0.16552(11) 0.79908(10)
C6 C 0.38801(14) -0.05637(11) 0.83804(10)
H3 H 0.4114 -0.0735 0.9161
C7 C 0.40023(14) 0.19385(11) 0.80331(10)
C8 C 0.38384(12) -0.31203(11) 0.88214(9)
C9 C 0.16896(19) 0.47998(16) 1.06769(14)
H4 H 0.1785 0.5696 1.0281
C10 C 0.0567(2) 0.47551(18) 1.16232(15)
H5 H -0.0078 0.5609 1.1841
C11 C 0.04043(14) 0.34397(15) 1.22451(11)
C12 C 0.13610(17) 0.22272(16) 1.18383(12)
H6 H 0.1272 0.1322 1.2208
C13 C 0.24526(16) 0.23549(15) 1.08810(12)
H7 H 0.3084 0.1520 1.0627
C14 C -0.07387(16) 0.33367(18) 1.33292(12)
H8 H -0.0725 0.2341 1.3609
H9 H -0.1728 0.3930 1.3099
C15 C -0.0430(2) 0.3834(3) 1.43491(14)
H10 H 0.0551 0.3224 1.4588
H11 H -0.0411 0.4819 1.4057
C16 C -0.15786(17) 0.37853(19) 1.54398(12)
C17 C -0.3004(2) 0.47594(18) 1.53925(13)
H12 H -0.3271 0.5441 1.4684
C18 C -0.40435(18) 0.47237(16) 1.64033(12)
H13 H -0.5001 0.5397 1.6351
C19 C -0.23731(17) 0.28139(19) 1.74923(13)
H14 H -0.2143 0.2130 1.8206
C20 C -0.12709(18) 0.2787(2) 1.65188(15)
H15 H -0.0324 0.2097 1.6590
N1 N 0.2945(2) 0.01795(16) 0.48130(12)
N2 N 0.26453(12) 0.36205(11) 1.03023(9)
N3 N -0.37452(12) 0.37758(11) 1.74483(9)
O1 O 0.48662(11) 0.15455(9) 0.88380(8)
O2 O 0.33508(12) 0.32495(9) 0.75976(9)
O3 O 0.40720(11) -0.32933(9) 0.98839(8)
O4 O 0.36961(11) -0.40628(8) 0.83791(7)
O5 O 0.2626(3) -0.0720(2) 0.45239(15)
O6 O 0.3089(2) 0.12615(15) 0.41086(11)
Co1 Co 0.447175(17) 0.373258(14) 0.890652(12)
N3_2 N 0.62548(12) 0.37758(11) 0.74483(9)
O3A O 0.59280(11) 0.32933(9) 1.01161(8)
O4_2 O 0.36961(11) 0.59372(8) 0.83791(7)
Co1_2 Co -0.552825(17) 0.373258(14) 1.890652(12)
Co1_3 Co 0.447175(17) -0.626742(14) 0.890652(12)
Co1A Co 0.552825(17) -0.373258(14) 1.109348(12)
loop_
_geom_bond_atom_site_label_1
_geom_bond_atom_site_label_2
_geom_bond_site_symmetry_1
_geom_bond_site_symmetry_2
C1 C2 1_555 1_555
C2 H1 1_555 1_555
C3 C2 1_555 1_555
C4 C3 1_555 1_555
H2 C4 1_555 1_555
C5 C4 1_555 1_555
C6 C1 1_555 1_555
H3 C6 1_555 1_555
C7 C1 1_555 1_555
C8 C5 1_555 1_555
C9 H4 1_555 1_555
C10 C9 1_555 1_555
H5 C10 1_555 1_555
C11 C10 1_555 1_555
C12 C11 1_555 1_555
H6 C12 1_555 1_555
C13 C12 1_555 1_555
H7 C13 1_555 1_555
C14 C11 1_555 1_555
H8 C14 1_555 1_555
H9 C14 1_555 1_555
C15 C14 1_555 1_555
H10 C15 1_555 1_555
H11 C15 1_555 1_555
C16 C15 1_555 1_555
C17 C16 1_555 1_555
H12 C17 1_555 1_555
C18 C17 1_555 1_555
H13 C18 1_555 1_555
C19 H14 1_555 1_555
C20 C16 1_555 1_555
H15 C20 1_555 1_555
N1 C3 1_555 1_555
N2 C9 1_555 1_555
N3 C18 1_555 1_555
O1 C7 1_555 1_555
O2 C7 1_555 1_555
O3 C8 1_555 1_555
O4 C8 1_555 1_555
O5 N1 1_555 1_555
O6 N1 1_555 1_555
Co1 N2 1_555 1_555
N3_2 Co1 1_555 1_555
O3A Co1 1_555 1_555
O4_2 Co1 1_555 1_555
Co1_2 N3 1_555 1_555
Co1_3 O4 1_555 1_555
Co1A O3 1_555 1_555
C5 C6 1_555 1_555
C13 N2 1_555 1_555
C19 C20 1_555 1_555
C19 N3 1_555 1_555
O1 Co1 1_555 1_555
O2 Co1 1_555 1_555

#END
