
#######################################################################
#
#                 Cambridge Crystallographic Data Centre
#                                CCDC 
#
#######################################################################
#
# If this CIF has been generated from an entry in the Cambridge 
# Structural Database, then it will include bibliographic, chemical, 
# crystal, experimental, refinement or atomic coordinate data resulting 
# from the CCDC's data processing and validation procedures.
#
#######################################################################

data_BUTJOQ01
_symmetry_cell_setting           monoclinic
_symmetry_space_group_name_H-M   'C 2/c'
_symmetry_Int_Tables_number      15
_space_group_name_Hall           '-C 2yn'
loop_
_symmetry_equiv_pos_site_id
_symmetry_equiv_pos_as_xyz
1 x,y,z
2 -x,y,1/2-z
3 1/2+x,1/2+y,z
4 1/2-x,1/2+y,1/2-z
5 -x,-y,-z
6 x,-y,1/2+z
7 1/2-x,1/2-y,-z
8 1/2+x,1/2-y,1/2+z
_cell_length_a                   14.4137(15)
_cell_length_b                   18.2182(15)
_cell_length_c                   16.6210(16)
_cell_angle_alpha                90
_cell_angle_beta                 102.434(11)
_cell_angle_gamma                90
_cell_volume                     4262.16
loop_
_atom_site_label
_atom_site_type_symbol
_atom_site_fract_x
_atom_site_fract_y
_atom_site_fract_z
Co1 Co 0.86303(6) 0.42180(5) 0.53746(5)
O1 O 0.8770(3) 0.4450(2) 0.4078(2)
O2 O 1.0117(3) 0.4287(3) 0.5726(3)
N1 N 0.3595(3) 0.1540(3) 0.1337(3)
O3 O 0.8715(3) 0.3320(2) 0.4526(2)
O4 O 0.8623(3) 0.4893(2) 0.1111(3)
O5 O 0.8719(4) 0.3947(3) 0.0274(3)
N2 N 0.7121(3) 0.4268(3) 0.4938(3)
C1 C 0.8736(4) 0.2483(3) 0.2180(4)
C2 C 0.8706(4) 0.3702(3) 0.1664(3)
O6 O 0.8832(5) 0.1266(3) 0.2624(4)
C3 C 0.8738(4) 0.3946(3) 0.2457(3)
H1 H 0.8739 0.4459 0.2555
C4 C 0.3754(4) 0.2557(4) 0.2626(4)
C5 C 0.3769(5) 0.1813(4) 0.2782(4)
H2 H 0.3829 0.1637 0.3329
C6 C 0.6744(5) 0.4737(4) 0.4334(4)
H3 H 0.7158 0.5051 0.4121
C7 C 0.8767(4) 0.3470(3) 0.3115(4)
C8 C 0.3696(5) 0.1319(4) 0.2125(4)
H4 H 0.3720 0.0808 0.2240
O7 O 0.8675(6) 0.1466(3) 0.1343(4)
C9 C 0.8688(4) 0.4220(4) 0.0951(4)
C10 C 0.3634(4) 0.2774(4) 0.1813(4)
H5 H 0.3605 0.3282 0.1677
C11 C 0.5779(5) 0.4782(4) 0.4006(4)
H6 H 0.5553 0.5115 0.3567
N3 N 0.8760(6) 0.1684(4) 0.2045(5)
C12 C 0.8704(4) 0.2945(4) 0.1524(4)
H7 H 0.8680 0.2756 0.0988
C13 C 0.5520(5) 0.3886(4) 0.4931(4)
H8 H 0.5116 0.3581 0.5167
C14 C 0.3555(4) 0.2256(4) 0.1202(4)
H9 H 0.3468 0.2421 0.0649
C15 C 0.5137(5) 0.4354(4) 0.4304(4)
C16 C 0.8762(4) 0.2724(4) 0.2970(4)
H10 H 0.8776 0.2383 0.3406
C17 C 0.6510(5) 0.3856(4) 0.5227(4)
H11 H 0.6753 0.3521 0.5659
C18 C 0.3842(4) 0.3891(4) 0.3159(4)
H12 H 0.3193 0.4019 0.2856
H13 H 0.4285 0.3998 0.2794
C19 C 0.8752(4) 0.3762(4) 0.3958(4)
C20 C 0.3882(5) 0.3082(4) 0.3360(4)
H14 H 0.3383 0.2973 0.3669
H15 H 0.4503 0.2977 0.3730
C21 C 0.4100(4) 0.4365(4) 0.3924(4)
H16 H 0.3902 0.4877 0.3778
H17 H 0.3744 0.4191 0.4334
H18 H 1.045(4) 0.415(4) 0.538(3)
H19 H 1.034(5) 0.469(2) 0.593(4)
Co1E Co 0.86303(6) 0.57820(5) 0.03746(5)
Co1G Co 0.36303(6) 0.07820(5) 0.03746(5)
N1G N 0.8595(3) 0.3460(3) 0.6337(3)
O4E O 0.8623(3) 0.5107(2) 0.6111(3)
loop_
_geom_bond_atom_site_label_1
_geom_bond_atom_site_label_2
_geom_bond_site_symmetry_1
_geom_bond_site_symmetry_2
Co1 O1 1_555 1_555
O1 C19 1_555 1_555
O2 Co1 1_555 1_555
N1 C8 1_555 1_555
O3 Co1 1_555 1_555
O4 C9 1_555 1_555
O5 C9 1_555 1_555
N2 Co1 1_555 1_555
C1 N3 1_555 1_555
C2 C3 1_555 1_555
O6 N3 1_555 1_555
C3 H1 1_555 1_555
C4 C5 1_555 1_555
C5 H2 1_555 1_555
C6 N2 1_555 1_555
H3 C6 1_555 1_555
C7 C3 1_555 1_555
C8 C5 1_555 1_555
H4 C8 1_555 1_555
O7 N3 1_555 1_555
C9 C2 1_555 1_555
C10 C4 1_555 1_555
H5 C10 1_555 1_555
C11 C6 1_555 1_555
H6 C11 1_555 1_555
C12 C1 1_555 1_555
H7 C12 1_555 1_555
C13 H8 1_555 1_555
C14 N1 1_555 1_555
H9 C14 1_555 1_555
C15 C11 1_555 1_555
C16 C1 1_555 1_555
H10 C16 1_555 1_555
C17 N2 1_555 1_555
H11 C17 1_555 1_555
C18 H12 1_555 1_555
H13 C18 1_555 1_555
C19 O3 1_555 1_555
C20 C4 1_555 1_555
H14 C20 1_555 1_555
H15 C20 1_555 1_555
C21 C15 1_555 1_555
H16 C21 1_555 1_555
H17 C21 1_555 1_555
H18 O2 1_555 1_555
H19 O2 1_555 1_555
Co1E O4 1_555 1_555
Co1G N1 1_555 1_555
N1G Co1 1_555 1_555
O4E Co1 1_555 1_555
C2 C12 1_555 1_555
C7 C16 1_555 1_555
C7 C19 1_555 1_555
C10 C14 1_555 1_555
C13 C15 1_555 1_555
C13 C17 1_555 1_555
C18 C20 1_555 1_555
C18 C21 1_555 1_555

#END
