
#######################################################################
#
#                 Cambridge Crystallographic Data Centre
#                                CCDC 
#
#######################################################################
#
# If this CIF has been generated from an entry in the Cambridge 
# Structural Database, then it will include bibliographic, chemical, 
# crystal, experimental, refinement or atomic coordinate data resulting 
# from the CCDC's data processing and validation procedures.
#
#######################################################################

data_BUTJAC
_symmetry_cell_setting           triclinic
_symmetry_space_group_name_H-M   'P -1'
_symmetry_Int_Tables_number      2
_space_group_name_Hall           '-P 1'
loop_
_symmetry_equiv_pos_site_id
_symmetry_equiv_pos_as_xyz
1 x,y,z
2 -x,-y,-z
_cell_length_a                   13.305(4)
_cell_length_b                   13.882(4)
_cell_length_c                   17.031(5)
_cell_angle_alpha                68.109(5)
_cell_angle_beta                 71.511(4)
_cell_angle_gamma                88.407(5)
_cell_volume                     2753.5
loop_
_atom_site_label
_atom_site_type_symbol
_atom_site_fract_x
_atom_site_fract_y
_atom_site_fract_z
W1 W 0.757841 0.765403(1) 0.080630
W2 W 0.532208 0.896701(1) 0.183850
W3 W 0.785435 0.887630(1) 0.235473
W4 W 0.649858 0.771792 0.460304
W5 W 0.394236 0.784223 0.408993
W6 W 0.363735 0.670492(1) 0.271356
W7 W 0.587304 0.542170(1) 0.169542
W8 W 0.818820 0.529889(1) 0.213125
W9 W 0.850288 0.652272(1) 0.363683
As1 As 0.605388(1) 0.649391(1) 0.322386(1)
Ni1 Ni 0.828666(2) 0.984689(1) -0.148862(1)
Ni2 Ni 0.5000 0.5000 0.0000
Ni3 Ni 1.0000 0.5000 0.5000
Ni4 Ni 0.581912(1) 0.389297(2) 0.392530(1)
Ni5 Ni 0.610826(1) 0.495450(1) 0.521940(1)
O1 O 0.717650(14) 0.889263(14) -0.163715(10)
O2 O 0.817782(8) 0.848790(8) -0.027898(6)
O3 O 0.851562(7) 0.665679(8) 0.101823(6)
O5 O 0.667772(8) 0.675879(8) 0.068561(6)
O7 O 0.805299(8) 0.828614(8) 0.147439(6)
O8 O 0.668152(7) 0.631907(7) 0.227267(5)
O9 O 0.630147(7) 0.836104(7) 0.112048(6)
O10 O 0.526532(9) 1.017131(9) 0.105080(7)
O11 O 0.508529(7) 0.725017(7) 0.302124(6)
O12 O 0.446174(8) 0.907869(9) 0.292967(6)
O13 O 0.419648(8) 0.818280(8) 0.184652(6)
O14 O 0.650434(7) 0.921796(8) 0.218422(6)
O15 O 0.859950(8) 1.005655(8) 0.176454(6)
O16 O 0.885053(8) 0.801228(7) 0.277209(6)
O17 O 0.691798(7) 0.718047(8) 0.339211(6)
O18 O 0.727178(8) 0.894778(8) 0.348492(5)
O19 O 0.638597(9) 0.826482(9) 0.538592(7)
O20 O 0.784842(8) 0.723072(8) 0.447135(6)
O21 O 0.420850(8) 0.356660(8) 0.474880(6)
O22 O 0.524756(7) 0.816387(8) 0.424486(6)
O23 O 0.308627(8) 0.846500(9) 0.469247(7)
O24 O 0.613990(7) 0.353420(7) 0.510440(6)
O25 O 0.307163(8) 0.743352(8) 0.354196(6)
O26 O 0.250182(7) 0.657711(9) 0.243982(6)
O27 O 0.645220(7) 0.446430(8) 0.634880(5)
O28 O 0.472963(8) 0.629410(8) 0.190046(6)
O29 O 0.546491(8) 0.484001(9) 0.110288(6)
O30 O 0.539238(8) 0.451639(9) 0.281731(6)
O31 O 0.727436(8) 0.499337(9) 0.153532(6)
O32 O 0.927095(8) 0.466600(9) 0.181242(7)
O33 O 0.737420(8) 0.441986(8) 0.319104(6)
O34 O 0.868244(7) 0.612655(8) 0.266076(6)
O35 O 0.967472(7) 0.625386(8) 0.389719(6)
O36 O 0.760937(7) 0.540491(8) 0.441289(6)
O37 O 0.555785(7) 0.534987(8) 0.411027(6)
N1 N 0.711215(11) 1.043300(11) -0.077774(8)
H1 H 0.6727 1.0783 -0.1123
H2 H 0.6678 0.9903 -0.0306
N2 N 0.921265(12) 1.068422(12) -0.118455(10)
H3 H 0.9608 1.0249 -0.0894
H4 H 0.9664 1.1148 -0.1699
N3 N 0.842867(4) 1.105936(2) -0.263164(1)
H5 H 0.7785 1.1171 -0.2697
H6 H 0.8701 1.1639 -0.2621
N4 N 0.956166(16) 0.928003(13) -0.222189(6)
H7 H 1.0148 0.9344 -0.2082
H8 H 0.9403 0.8601 -0.2095
N5 N 0.622038(11) 0.620688(11) -0.080602(8)
H9 H 0.6115 0.6566 -0.1331
H10 H 0.6223 0.6649 -0.0532
N6 N 0.623507(11) 0.411696(12) -0.038720(8)
H11 H 0.6432 0.3739 0.0089
H12 H 0.5998 0.3671 -0.0576
N7 N 1.122983(11) 0.464731(10) 0.406458(8)
H13 H 1.1451 0.5213 0.3549
H14 H 1.1783 0.4485 0.4269
N8 N 0.912139(10) 0.389996(10) 0.485099(8)
H15 H 0.8901 0.3334 0.5367
H16 H 0.8542 0.4170 0.4725
N9 N 0.605256(12) 0.248362(10) 0.375138(7)
H17 H 0.6603 0.2223 0.3934
H18 H 0.5470 0.2034 0.4121
N10 N 0.578001(18) 0.056629(16) 0.322964(11)
H19 H 0.5677 0.0442 0.3803
H20 H 0.6082 0.0041 0.3098
H21 H 0.5157 0.0626 0.3135
C1 C 0.749292(7) 1.111493(16) -0.046061(12)
H22 H 0.7152 1.0867 0.0184
H23 H 0.7275 1.1802 -0.0721
C2 C 0.866741(8) 1.12194(3) -0.066248(19)
H24 H 0.8605 1.0611 -0.0113
C3 C 0.915163(16) 1.187692(18) -0.035546(15)
H25 H 0.8603 1.2159 -0.0006
H26 H 0.9615 1.2437 -0.0864
H27 H 0.9555 1.1468 0.0006
C4 C 0.913966(10) 1.082500(7) -0.338389(7)
H28 H 0.9648 1.1434 -0.3773
H29 H 0.8712 1.0738 -0.3725
C5 C 0.975208(8) 0.990330(8) -0.318538(6)
H30 H 0.9292 0.9440 -0.3273
C6 C 1.074984(11) 0.98874(2) -0.390580(10)
H31 H 1.1289 0.9609 -0.3644
H32 H 1.0996 1.0585 -0.4340
H33 H 1.0603 0.9458 -0.4194
C7 C 0.724361(15) 0.576330(16) -0.096882(12)
H34 H 0.7769 0.6266 -0.1494
H35 H 0.7486 0.5626 -0.0460
C8 C 0.715689(7) 0.479601(16) -0.110663(13)
H36 H 0.7045 0.4960 -0.1683
C9 C 0.832049(8) 0.47178(6) -0.12377(3)
H37 H 0.8730 0.5295 -0.1765
H38 H 0.8511 0.4075 -0.1308
H39 H 0.8466 0.4733 -0.0725
C10 C 1.091491(7) 0.382893(18) 0.390038(15)
H40 H 1.1193 0.3206 0.4221
H41 H 1.1228 0.3975 0.3265
C11 C 0.974246(7) 0.361482(17) 0.416570(13)
H42 H 0.9643 0.4210 0.3669
C12 C 0.937039(16) 0.279438(18) 0.394759(14)
H43 H 0.9914 0.2725 0.3449
H44 H 0.8736 0.2975 0.3794
H45 H 0.9217 0.2145 0.4457
C13 C 0.62562(2) 0.249814(7) 0.286930(9)
C14 C 0.64926(2) 0.155614(7) 0.264774(9)
H46 H 0.7190 0.1398 0.2715
C15 C 0.66459(2) 0.17567(2) 0.172148(17)
H47 H 0.7091 0.2400 0.1345
H48 H 0.5968 0.1807 0.1629
H49 H 0.6980 0.1196 0.1574
W1A W 0.242159 0.234597(1) 0.919370
W1A_2 W 0.242159 0.234597(1) -0.080630
W2A W 0.467792 0.103299(1) 0.816150
W3A W 0.214565 0.112370(1) 0.764527
W4A W 0.350142 0.228208 0.539696
W5A W 0.605764 0.215777 0.591007
W6A W 0.636265 0.329508(1) 0.728644
W6A_2 W 0.636265 0.329508(1) -0.271356
W7A W 0.412696 0.457830(1) -0.169542
W7A_2 W 0.412696 0.457830(1) 0.830458
W8A W 0.181180 0.470111(1) 0.786875
W8A_2 W 0.181180 0.470111(1) -0.213125
W9A W 0.149712 0.347728(1) 0.636317
As1A As 0.394612(1) 0.350609(1) 0.677614(1)
Ni1A Ni 0.171334(2) 0.015311(1) 1.148862(1)
Ni3_2 Ni 0.0000 0.5000 0.5000
Ni4A Ni 0.418088(1) 0.610703(2) 0.607470(1)
Ni5A Ni 0.389174(1) 0.504550(1) 0.478060(1)
O1A O 0.282350(14) 0.110737(14) 1.163715(10)
O2A O 0.182218(8) 0.151210(8) 1.027898(6)
O3A O 0.148438(7) 0.334321(8) 0.898177(6)
O5A O 0.332228(8) 0.324121(8) -0.068561(6)
O5A_2 O 0.332228(8) 0.324121(8) 0.931439(6)
O7A O 0.194701(8) 0.171386(8) 0.852561(6)
O8A O 0.331848(7) 0.368093(7) 0.772733(5)
O8A_2 O 0.331848(7) 0.368093(7) -0.227267(5)
O9A O 0.369853(7) 0.163896(7) 0.887952(6)
O10A O 0.473468(9) -0.017131(9) 0.894920(7)
O11A O 0.491471(7) 0.274983(7) 0.697876(6)
O12A O 0.553826(8) 0.092131(9) 0.707033(6)
O13A O 0.580352(8) 0.181720(8) 0.815348(6)
O14A O 0.349566(7) 0.078204(8) 0.781578(6)
O15A O 0.140050(8) -0.005655(8) 0.823546(6)
O16A O 0.114947(8) 0.198772(7) 0.722791(6)
O17A O 0.308202(7) 0.281953(8) 0.660789(6)
O18A O 0.272822(8) 0.105222(8) 0.651508(5)
O19A O 0.361403(9) 0.173518(9) 0.461408(7)
O20A O 0.215158(8) 0.276928(8) 0.552865(6)
O21A O 0.579150(8) 0.643340(8) 0.525120(6)
O22A O 0.475244(7) 0.183613(8) 0.575514(6)
O23A O 0.691373(8) 0.153500(9) 0.530753(7)
O24A O 0.386010(7) 0.646580(7) 0.489560(6)
O25A O 0.692837(8) 0.256648(8) 0.645804(6)
O26A O 0.749818(7) 0.342289(9) 0.756018(6)
O27A O 0.354780(7) 0.553570(8) 0.365120(5)
O28A O 0.527037(8) 0.370590(8) -0.190046(6)
O28A_2 O 0.527037(8) 0.370590(8) 0.809954(6)
O29A O 0.453509(8) 0.515999(9) -0.110288(6)
O30A O 0.460762(8) 0.548361(9) 0.718269(6)
O30A_2 O 0.460762(8) 0.548361(9) -0.281731(6)
O31A O 0.272564(8) 0.500663(9) -0.153532(6)
O31A_2 O 0.272564(8) 0.500663(9) 0.846468(6)
O32A O 0.072905(8) 0.533400(9) 0.818758(7)
O33A O 0.262580(8) 0.558014(8) 0.680896(6)
O34A O 0.131756(7) 0.387345(8) 0.733924(6)
O35A O 0.032528(7) 0.374614(8) 0.610281(6)
O35A_2 O 1.032528(7) 0.374614(8) 0.610281(6)
O36A O 0.239063(7) 0.459509(8) 0.558711(6)
O37A O 0.444215(7) 0.465013(8) 0.588973(6)
N1A N 0.288785(11) -0.043300(11) 1.077774(8)
H1A H 0.3273 -0.0783 1.1123
H2A H 0.3322 0.0097 1.0306
N2A N 0.078735(12) -0.068422(12) 1.118455(10)
H3A H 0.0392 -0.0249 1.0894
H4A H 0.0336 -0.1148 1.1699
N3A N 0.157133(4) -0.105936(2) 1.263164(1)
H5A H 0.2215 -0.1171 1.2697
H6A H 0.1299 -0.1639 1.2621
N4A N 0.043834(16) 0.071997(13) 1.222189(6)
H7A H -0.0148 0.0656 1.2082
H8A H 0.0597 0.1399 1.2095
N5A N 0.377962(11) 0.379312(11) 0.080602(8)
H9A H 0.3885 0.3434 0.1331
H10A H 0.3777 0.3351 0.0532
N6A N 0.376493(11) 0.588304(12) 0.038720(8)
H11A H 0.3568 0.6261 -0.0089
H12A H 0.4002 0.6329 0.0576
N7A N 0.877017(11) 0.535269(10) 0.593542(8)
H13A H 0.8549 0.4787 0.6451
H14A H 0.8217 0.5515 0.5731
N8A N 1.087861(10) 0.610004(10) 0.514901(8)
H15A H 1.1099 0.6666 0.4633
H16A H 1.1458 0.5830 0.5275
N9A N 0.394744(12) 0.751638(10) 0.624862(7)
H17A H 0.3397 0.7777 0.6066
H18A H 0.4530 0.7966 0.5879
N10A N 0.421999(18) 0.943371(16) 0.677036(11)
H19A H 0.4323 0.9558 0.6197
H20A H 0.3918 0.9959 0.6902
H21A H 0.4843 0.9374 0.6865
C1A C 0.250708(7) -0.111493(16) 1.046061(12)
H22A H 0.2848 -0.0867 0.9816
H23A H 0.2725 -0.1802 1.0721
C2A C 0.133259(8) -0.12194(3) 1.066248(19)
H24A H 0.1395 -0.0611 1.0113
C3A C 0.084837(16) -0.187692(18) 1.035546(15)
H25A H 0.1397 -0.2159 1.0006
H26A H 0.0385 -0.2437 1.0864
H27A H 0.0445 -0.1468 0.9994
C4A C 0.086034(10) -0.082500(7) 1.338389(7)
H28A H 0.0352 -0.1434 1.3773
H29A H 0.1288 -0.0738 1.3725
C5A C 0.024792(8) 0.009670(8) 1.318538(6)
H30A H 0.0708 0.0560 1.3273
C6A C -0.074984(11) 0.01126(2) 1.390580(10)
H31A H -0.1289 0.0391 1.3644
H32A H -0.0996 -0.0585 1.4340
H33A H -0.0603 0.0542 1.4194
C7A C 0.275639(15) 0.423670(16) 0.096882(12)
H34A H 0.2231 0.3734 0.1494
H35A H 0.2514 0.4374 0.0460
C8A C 0.284311(7) 0.520399(16) 0.110663(13)
H36A H 0.2955 0.5040 0.1683
C9A C 0.167951(8) 0.52822(6) 0.12377(3)
H37A H 0.1270 0.4705 0.1765
H38A H 0.1489 0.5925 0.1308
H39A H 0.1534 0.5267 0.0725
C10A C 0.908509(7) 0.617107(18) 0.609962(15)
H40A H 0.8807 0.6794 0.5779
H41A H 0.8772 0.6025 0.6735
C11A C 1.025754(7) 0.638518(17) 0.583430(13)
H42A H 1.0357 0.5790 0.6331
C12A C 1.062961(16) 0.720562(18) 0.605241(14)
H43A H 1.0086 0.7275 0.6551
H44A H 1.1264 0.7025 0.6206
H45A H 1.0783 0.7855 0.5543
C13A C 0.37438(2) 0.750186(7) 0.713070(9)
C14A C 0.35074(2) 0.844386(7) 0.735226(9)
H46A H 0.2810 0.8602 0.7285
C15A C 0.33541(2) 0.82433(2) 0.827852(17)
H47A H 0.2909 0.7600 0.8655
H48A H 0.4032 0.8193 0.8371
H49A H 0.3020 0.8804 0.8426
O4 O 0.475465(11) 0.201985(10) 0.015269(8)
O6 O 0.351425(17) 0.337193(16) 0.293763(13)
loop_
_geom_bond_atom_site_label_1
_geom_bond_atom_site_label_2
_geom_bond_site_symmetry_1
_geom_bond_site_symmetry_2
W1 O2 1_555 1_555
W2 O9 1_555 1_555
W3 O7 1_555 1_555
W4 O17 1_555 1_555
W5 O11 1_555 1_555
W6 O11 1_555 1_555
W7 O5 1_555 1_555
W8 O3 1_555 1_555
W9 O16 1_555 1_555
As1 O8 1_555 1_555
Ni1 O1 1_555 1_555
Ni2 O29 1_555 1_555
Ni3 O35 1_555 1_555
Ni4 O21 1_555 1_555
Ni5 O24 1_555 1_555
O2 Ni1 1_555 1_555
O3 W1 1_555 1_555
O5 W1 1_555 1_555
O7 W1 1_555 1_555
O8 W1 1_555 1_555
O9 W1 1_555 1_555
O10 W2 1_555 1_555
O11 W2 1_555 1_555
O12 W2 1_555 1_555
O13 W2 1_555 1_555
O14 W2 1_555 1_555
O15 W3 1_555 1_555
O16 W3 1_555 1_555
O17 W3 1_555 1_555
O18 W3 1_555 1_555
O19 W4 1_555 1_555
O20 W4 1_555 1_555
O21 W4A 1_555 1_555
O22 W4 1_555 1_555
O23 W5 1_555 1_555
O24 Ni4 1_555 1_555
O25 W5 1_555 1_555
O26 W6 1_555 1_555
O27 Ni5 1_555 1_555
O28 W6 1_555 1_555
O29 W7 1_555 1_555
O30 W7 1_555 1_555
O31 W7 1_555 1_555
O32 W8 1_555 1_555
O33 W8 1_555 1_555
O34 W8 1_555 1_555
O35 W9 1_555 1_555
O36 W9 1_555 1_555
O37 As1 1_555 1_555
N1 Ni1 1_555 1_555
H1 N1 1_555 1_555
H2 N1 1_555 1_555
N2 Ni1 1_555 1_555
H3 N2 1_555 1_555
H4 N2 1_555 1_555
N3 Ni1 1_555 1_555
H5 N3 1_555 1_555
H6 N3 1_555 1_555
N4 Ni1 1_555 1_555
H7 N4 1_555 1_555
H8 N4 1_555 1_555
N5 Ni2 1_555 1_555
H9 N5 1_555 1_555
H10 N5 1_555 1_555
N6 Ni2 1_555 1_555
H11 N6 1_555 1_555
H12 N6 1_555 1_555
N7 Ni3 1_555 1_555
H13 N7 1_555 1_555
H14 N7 1_555 1_555
N8 Ni3 1_555 1_555
H15 N8 1_555 1_555
H16 N8 1_555 1_555
N9 Ni4 1_555 1_555
H17 N9 1_555 1_555
H18 N9 1_555 1_555
N10 H19 1_555 1_555
H20 N10 1_555 1_555
H21 N10 1_555 1_555
C1 N1 1_555 1_555
H22 C1 1_555 1_555
H23 C1 1_555 1_555
C2 N2 1_555 1_555
H24 C2 1_555 1_555
C3 C2 1_555 1_555
H25 C3 1_555 1_555
H26 C3 1_555 1_555
H27 C3 1_555 1_555
C4 N3 1_555 1_555
H28 C4 1_555 1_555
H29 C4 1_555 1_555
C5 N4 1_555 1_555
H30 C5 1_555 1_555
C6 C5 1_555 1_555
H31 C6 1_555 1_555
H32 C6 1_555 1_555
H33 C6 1_555 1_555
C7 N5 1_555 1_555
H34 C7 1_555 1_555
H35 C7 1_555 1_555
C8 N6 1_555 1_555
H36 C8 1_555 1_555
C9 C8 1_555 1_555
H37 C9 1_555 1_555
H38 C9 1_555 1_555
H39 C9 1_555 1_555
C10 N7 1_555 1_555
H40 C10 1_555 1_555
H41 C10 1_555 1_555
C11 N8 1_555 1_555
H42 C11 1_555 1_555
C12 C11 1_555 1_555
H43 C12 1_555 1_555
H44 C12 1_555 1_555
H45 C12 1_555 1_555
C13 N9 1_555 1_555
C14 N10 1_555 1_555
H46 C14 1_555 1_555
C15 C14 1_555 1_555
H47 C15 1_555 1_555
H48 C15 1_555 1_555
H49 C15 1_555 1_555
W1A O2A 1_555 1_555
W1A_2 O5A 1_555 1_555
W2A O9A 1_555 1_555
W3A O7A 1_555 1_555
W4A O17A 1_555 1_555
W5A O24 1_555 1_555
W6A O27 1_555 1_555
W6A_2 O28A 1_555 1_555
W7A O5A 1_555 1_555
W7A_2 O5A_2 1_555 1_555
W8A O3A 1_555 1_555
W8A_2 O8A_2 1_555 1_555
W9A O16A 1_555 1_555
As1A O8A 1_555 1_555
Ni1A O1A 1_555 1_555
Ni3_2 O35A 1_555 1_555
Ni4A O21A 1_555 1_555
Ni5A O21 1_555 1_555
O2A Ni1A 1_555 1_555
O3A W1A 1_555 1_555
O5A_2 W1A 1_555 1_555
O7A W1A 1_555 1_555
O8A W1A 1_555 1_555
O8A_2 W1A_2 1_555 1_555
O9A W1A 1_555 1_555
O10A W2A 1_555 1_555
O11A W2A 1_555 1_555
O12A W2A 1_555 1_555
O13A W2A 1_555 1_555
O14A W2A 1_555 1_555
O15A W3A 1_555 1_555
O16A W3A 1_555 1_555
O17A W3A 1_555 1_555
O18A W3A 1_555 1_555
O19A W4A 1_555 1_555
O20A W4A 1_555 1_555
O21A W4 1_555 1_555
O22A W4A 1_555 1_555
O23A W5A 1_555 1_555
O24A W5 1_555 1_555
O25A W5A 1_555 1_555
O26A W6A 1_555 1_555
O27A W6 1_555 1_555
O28A W7A 1_555 1_555
O28A_2 W6A 1_555 1_555
O29A Ni2 1_555 1_555
O30A W7A_2 1_555 1_555
O30A_2 W7A 1_555 1_555
O31A W7A 1_555 1_555
O31A_2 W7A_2 1_555 1_555
O32A W8A 1_555 1_555
O33A W8A 1_555 1_555
O34A W8A 1_555 1_555
O35A W9A 1_555 1_555
O35A_2 Ni3 1_555 1_555
O36A W9A 1_555 1_555
O37A Ni5 1_555 1_555
N1A Ni1A 1_555 1_555
H1A N1A 1_555 1_555
H2A N1A 1_555 1_555
N2A Ni1A 1_555 1_555
H3A N2A 1_555 1_555
H4A N2A 1_555 1_555
N3A Ni1A 1_555 1_555
H5A N3A 1_555 1_555
H6A N3A 1_555 1_555
N4A Ni1A 1_555 1_555
H7A N4A 1_555 1_555
H8A N4A 1_555 1_555
N5A Ni2 1_555 1_555
H9A N5A 1_555 1_555
H10A N5A 1_555 1_555
N6A Ni2 1_555 1_555
H11A N6A 1_555 1_555
H12A N6A 1_555 1_555
N7A Ni3 1_555 1_555
H13A N7A 1_555 1_555
H14A N7A 1_555 1_555
N8A Ni3 1_555 1_555
H15A N8A 1_555 1_555
H16A N8A 1_555 1_555
N9A Ni4A 1_555 1_555
H17A N9A 1_555 1_555
H18A N9A 1_555 1_555
N10A H19A 1_555 1_555
H20A N10A 1_555 1_555
H21A N10A 1_555 1_555
C1A N1A 1_555 1_555
H22A C1A 1_555 1_555
H23A C1A 1_555 1_555
C2A N2A 1_555 1_555
H24A C2A 1_555 1_555
C3A C2A 1_555 1_555
H25A C3A 1_555 1_555
H26A C3A 1_555 1_555
H27A C3A 1_555 1_555
C4A N3A 1_555 1_555
H28A C4A 1_555 1_555
H29A C4A 1_555 1_555
C5A N4A 1_555 1_555
H30A C5A 1_555 1_555
C6A C5A 1_555 1_555
H31A C6A 1_555 1_555
H32A C6A 1_555 1_555
H33A C6A 1_555 1_555
C7A N5A 1_555 1_555
H34A C7A 1_555 1_555
H35A C7A 1_555 1_555
C8A N6A 1_555 1_555
H36A C8A 1_555 1_555
C9A C8A 1_555 1_555
H37A C9A 1_555 1_555
H38A C9A 1_555 1_555
H39A C9A 1_555 1_555
C10A N7A 1_555 1_555
H40A C10A 1_555 1_555
H41A C10A 1_555 1_555
C11A N8A 1_555 1_555
H42A C11A 1_555 1_555
C12A C11A 1_555 1_555
H43A C12A 1_555 1_555
H44A C12A 1_555 1_555
H45A C12A 1_555 1_555
C13A N9A 1_555 1_555
C14A N10A 1_555 1_555
H46A C14A 1_555 1_555
C15A C14A 1_555 1_555
H47A C15A 1_555 1_555
H48A C15A 1_555 1_555
H49A C15A 1_555 1_555
W3 O14 1_555 1_555
W4 O18 1_555 1_555
W5 O12 1_555 1_555
W5 O22 1_555 1_555
W6 O13 1_555 1_555
W6 O25 1_555 1_555
W7 O8 1_555 1_555
W7 O28 1_555 1_555
W8 O8 1_555 1_555
W8 O31 1_555 1_555
W9 O17 1_555 1_555
W9 O20 1_555 1_555
W9 O34 1_555 1_555
As1 O11 1_555 1_555
As1 O17 1_555 1_555
Ni4 O30 1_555 1_555
Ni4 O33 1_555 1_555
Ni4 O37 1_555 1_555
Ni5 O36 1_555 1_555
Ni5 O37 1_555 1_555
Ni5 O21A 1_555 1_555
O37 Ni5A 1_555 1_555
C1 C2 1_555 1_555
C4 C5 1_555 1_555
C7 C8 1_555 1_555
C10 C11 1_555 1_555
C13 C14 1_555 1_555
W3A O14A 1_555 1_555
W4A O18A 1_555 1_555
W5A O11A 1_555 1_555
W5A O12A 1_555 1_555
W5A O22A 1_555 1_555
W6A O11A 1_555 1_555
W6A O13A 1_555 1_555
W6A O25A 1_555 1_555
W7A O8A_2 1_555 1_555
W7A O29A 1_555 1_555
W7A_2 O8A 1_555 1_555
W7A_2 O28A_2 1_555 1_555
W8A O8A 1_555 1_555
W8A O31A_2 1_555 1_555
W8A_2 O31A 1_555 1_555
W9A O17A 1_555 1_555
W9A O20A 1_555 1_555
W9A O34A 1_555 1_555
As1A O11A 1_555 1_555
As1A O17A 1_555 1_555
As1A O37A 1_555 1_555
Ni4A O24A 1_555 1_555
Ni4A O30A 1_555 1_555
Ni4A O33A 1_555 1_555
Ni4A O37A 1_555 1_555
Ni5A O24A 1_555 1_555
Ni5A O27A 1_555 1_555
Ni5A O36A 1_555 1_555
Ni5A O37A 1_555 1_555
C1A C2A 1_555 1_555
C4A C5A 1_555 1_555
C7A C8A 1_555 1_555
C10A C11A 1_555 1_555
C13A C14A 1_555 1_555

#END
