
#######################################################################
#
#                 Cambridge Crystallographic Data Centre
#                                CCDC 
#
#######################################################################
#
# If this CIF has been generated from an entry in the Cambridge 
# Structural Database, then it will include bibliographic, chemical, 
# crystal, experimental, refinement or atomic coordinate data resulting 
# from the CCDC's data processing and validation procedures.
#
#######################################################################

data_BUTJUW
_symmetry_cell_setting           monoclinic
_symmetry_space_group_name_H-M   'C 2/c'
_symmetry_Int_Tables_number      15
_space_group_name_Hall           '-C 2yn'
loop_
_symmetry_equiv_pos_site_id
_symmetry_equiv_pos_as_xyz
1 x,y,z
2 -x,y,1/2-z
3 1/2+x,1/2+y,z
4 1/2-x,1/2+y,1/2-z
5 -x,-y,-z
6 x,-y,1/2+z
7 1/2-x,1/2-y,-z
8 1/2+x,1/2-y,1/2+z
_cell_length_a                   19.8112(12)
_cell_length_b                   17.5106(9)
_cell_length_c                   9.3803(6)
_cell_angle_alpha                90
_cell_angle_beta                 96.663(3)
_cell_angle_gamma                90
_cell_volume                     3232.1
loop_
_atom_site_label
_atom_site_type_symbol
_atom_site_fract_x
_atom_site_fract_y
_atom_site_fract_z
Ni1 Ni 0.2500 0.2500 0.5000
O1 O 0.23964(14) 0.10855(13) -0.1038(2)
H1 H 0.1951(19) 0.1202(19) -0.072(4)
O2 O 0.11899(10) 0.21325(11) 0.2146(2)
O3 O 0.17001(10) 0.29992(10) 0.36567(19)
N1 N 0.18481(11) 0.21602(13) 0.6446(2)
H2 H 0.2110 0.2005 0.7283
N2 N 0.23223(12) 0.14446(12) 0.4070(2)
H3 H 0.2005 0.1508 0.3268
N3 N 0.32674(12) 0.15494(13) 0.2589(2)
C1 C 0.14912(15) 0.14849(16) 0.5794(3)
H4 H 0.1124 0.1647 0.5049
H5 H 0.1284 0.1193 0.6536
C2 C 0.19983(16) 0.09885(16) 0.5130(3)
H6 H 0.2348 0.0799 0.5886
H7 H 0.1763 0.0542 0.4651
C3 C 0.29331(15) 0.10834(15) 0.3587(3)
H8 H 0.3262 0.0973 0.4438
H9 H 0.2800 0.0590 0.3120
C4 C 0.36154(16) 0.22166(17) 0.3174(3)
H10 H 0.3905 0.2416 0.2467
H11 H 0.3917 0.2069 0.4046
C5 C 0.28780(15) 0.16755(16) 0.1175(3)
H12 H 0.3120 0.2053 0.0634
H13 H 0.2428 0.1891 0.1309
C6 C 0.27809(18) 0.09549(17) 0.0318(3)
H14 H 0.3230 0.0743 0.0168
H15 H 0.2544 0.0574 0.0860
C7 C 0.12929(14) 0.28161(16) 0.2576(3)
C8 C 0.09124(12) 0.34526(15) 0.1788(3)
C9 C 0.10113(13) 0.41971(15) 0.2271(3)
H16 H 0.1324 0.4294 0.3098
C10 C 0.06630(13) 0.48028(15) 0.1574(3)
H17 H 0.0741 0.5307 0.1926
C11 C 0.01123(14) 0.39289(15) -0.0135(3)
H18 H -0.0193 0.3829 -0.0971
C12 C 0.04631(13) 0.33290(15) 0.0571(3)
H19 H 0.0394 0.2824 0.0212
C13 C 0.01993(12) 0.46785(14) 0.0360(2)
Ni1B Ni -0.2500 0.7500 -0.5000
O1F O 0.26036(14) 0.39145(13) 1.1038(2)
H1F H 0.3049(19) 0.3798(19) 1.072(4)
O2D O -0.11899(10) 0.78675(11) -0.2146(2)
O3D O -0.17001(10) 0.70008(10) -0.36567(19)
O3F O 0.32999(10) 0.20008(10) 0.63433(19)
N1F N 0.31519(11) 0.28398(13) 0.3554(2)
H2F H 0.2890 0.2995 0.2717
N2F N 0.26777(12) 0.35554(12) 0.5930(2)
H3F H 0.2995 0.3492 0.6732
N3F N 0.17326(12) 0.34506(13) 0.7411(2)
C1F C 0.35088(15) 0.35151(16) 0.4206(3)
H4F H 0.3876 0.3353 0.4951
H5F H 0.3716 0.3807 0.3464
C2F C 0.30017(16) 0.40115(16) 0.4870(3)
H6F H 0.2652 0.4201 0.4114
H7F H 0.3237 0.4458 0.5349
C3F C 0.20669(15) 0.39166(15) 0.6413(3)
H8F H 0.1738 0.4027 0.5562
H9F H 0.2200 0.4410 0.6880
C4F C 0.13846(16) 0.27834(17) 0.6826(3)
H10F H 0.1095 0.2584 0.7533
H11F H 0.1083 0.2931 0.5954
C5F C 0.21220(15) 0.33245(16) 0.8825(3)
H12F H 0.1880 0.2947 0.9366
H13F H 0.2572 0.3109 0.8691
C6F C 0.22191(18) 0.40451(17) 0.9682(3)
H14F H 0.1770 0.4257 0.9832
H15F H 0.2456 0.4426 0.9140
C7D C -0.12929(14) 0.71839(16) -0.2576(3)
C8D C -0.09124(12) 0.65474(15) -0.1788(3)
C9D C -0.10113(13) 0.58029(15) -0.2271(3)
H16D H -0.1324 0.5706 -0.3098
C10D C -0.06630(13) 0.51972(15) -0.1574(3)
H17D H -0.0741 0.4693 -0.1926
C11D C -0.01123(14) 0.60711(15) 0.0135(3)
H18D H 0.0193 0.6171 0.0971
C12D C -0.04631(13) 0.66710(15) -0.0571(3)
H19D H -0.0394 0.7176 -0.0212
C13D C -0.01993(12) 0.53215(14) -0.0360(2)
O4 O 0.0000 0.1339(2) 0.2500
H20 H 0.0359 0.1586 0.2390
H20A H -0.0359 0.1586 0.2610
O5 O 0.10989(15) 0.13365(18) -0.0465(3)
H21 H 0.0751 0.1063 -0.0456
H22 H 0.1127 0.1574 0.0318
loop_
_geom_bond_atom_site_label_1
_geom_bond_atom_site_label_2
_geom_bond_site_symmetry_1
_geom_bond_site_symmetry_2
Ni1 O3 1_555 1_555
O1 H1 1_555 1_555
O2 C7 1_555 1_555
O3 C7 1_555 1_555
N1 Ni1 1_555 1_555
H2 N1 1_555 1_555
N2 Ni1 1_555 1_555
H3 N2 1_555 1_555
N3 C3 1_555 1_555
C1 N1 1_555 1_555
H4 C1 1_555 1_555
H5 C1 1_555 1_555
C2 N2 1_555 1_555
H6 C2 1_555 1_555
H7 C2 1_555 1_555
C3 N2 1_555 1_555
H8 C3 1_555 1_555
H9 C3 1_555 1_555
C4 N3 1_555 1_555
H10 C4 1_555 1_555
H11 C4 1_555 1_555
C5 N3 1_555 1_555
H12 C5 1_555 1_555
H13 C5 1_555 1_555
C6 O1 1_555 1_555
H14 C6 1_555 1_555
H15 C6 1_555 1_555
C7 C8 1_555 1_555
C8 C9 1_555 1_555
C9 H16 1_555 1_555
C10 C9 1_555 1_555
H17 C10 1_555 1_555
C11 H18 1_555 1_555
C12 C8 1_555 1_555
H19 C12 1_555 1_555
C13 C10 1_555 1_555
O4 H20 1_555 1_555
O5 H21 1_555 1_555
H22 O5 1_555 1_555
Ni1B O3D 1_555 1_555
O1F H1F 1_555 1_555
O2D C7D 1_555 1_555
O3D C7D 1_555 1_555
O3F Ni1 1_555 1_555
N1F Ni1 1_555 1_555
H2F N1F 1_555 1_555
N2F Ni1 1_555 1_555
H3F N2F 1_555 1_555
N3F C3F 1_555 1_555
C1F N1F 1_555 1_555
H4F C1F 1_555 1_555
H5F C1F 1_555 1_555
C2F N2F 1_555 1_555
H6F C2F 1_555 1_555
H7F C2F 1_555 1_555
C3F N2F 1_555 1_555
H8F C3F 1_555 1_555
H9F C3F 1_555 1_555
C4F N1 1_555 1_555
H10F C4F 1_555 1_555
H11F C4F 1_555 1_555
C5F N3F 1_555 1_555
H12F C5F 1_555 1_555
H13F C5F 1_555 1_555
C6F O1F 1_555 1_555
H14F C6F 1_555 1_555
H15F C6F 1_555 1_555
C7D C8D 1_555 1_555
C8D C9D 1_555 1_555
C9D H16D 1_555 1_555
C10D C9D 1_555 1_555
H17D C10D 1_555 1_555
C11D H18D 1_555 1_555
C12D C8D 1_555 1_555
H19D C12D 1_555 1_555
C13D C13 1_555 1_555
H20A O4 1_555 1_555
C1 C2 1_555 1_555
C4 N1F 1_555 1_555
C5 C6 1_555 1_555
C11 C12 1_555 1_555
C11 C13 1_555 1_555
N3F C4F 1_555 1_555
C1F C2F 1_555 1_555
C5F C6F 1_555 1_555
C10D C13D 1_555 1_555
C11D C12D 1_555 1_555
C11D C13D 1_555 1_555

#END
