
#######################################################################
#
#                 Cambridge Crystallographic Data Centre
#                                CCDC 
#
#######################################################################
#
# If this CIF has been generated from an entry in the Cambridge 
# Structural Database, then it will include bibliographic, chemical, 
# crystal, experimental, refinement or atomic coordinate data resulting 
# from the CCDC's data processing and validation procedures.
#
#######################################################################

data_BUTJOQ02
_symmetry_cell_setting           monoclinic
_symmetry_space_group_name_H-M   'C 2/c'
_symmetry_Int_Tables_number      15
_space_group_name_Hall           '-C 2yn'
loop_
_symmetry_equiv_pos_site_id
_symmetry_equiv_pos_as_xyz
1 x,y,z
2 -x,y,1/2-z
3 1/2+x,1/2+y,z
4 1/2-x,1/2+y,1/2-z
5 -x,-y,-z
6 x,-y,1/2+z
7 1/2-x,1/2-y,-z
8 1/2+x,1/2-y,1/2+z
_cell_length_a                   14.489(6)
_cell_length_b                   18.242(8)
_cell_length_c                   19.414(9)
_cell_angle_alpha                90
_cell_angle_beta                 123.09(3)
_cell_angle_gamma                90
_cell_volume                     4299.06
loop_
_atom_site_label
_atom_site_type_symbol
_atom_site_fract_x
_atom_site_fract_y
_atom_site_fract_z
Co1 Co 0.42497(3) 0.327525(16) 0.538380(18)
O1 O 0.33349(15) 0.41642(10) 0.45308(10)
O2 O 0.30897(14) 0.32202(9) 0.57232(11)
O3 O 0.28342(14) 0.30334(10) 0.40821(10)
O4 O -0.00194(15) 0.26118(10) 0.11271(11)
O5 O -0.09630(18) 0.35572(13) 0.03213(12)
O6 O 0.0223(3) 0.60328(15) 0.1387(2)
O7 O 0.1341(3) 0.62278(13) 0.2666(2)
N1 N 0.0836(3) 0.58195(14) 0.2082(2)
N2 N 0.52320(16) 0.40378(11) 0.63404(12)
N3 N 0.53311(17) 0.67852(10) 0.99435(13)
C1 C 0.2727(2) 0.37199(14) 0.39703(14)
C2 C 0.18735(18) 0.40133(13) 0.31293(13)
C3 C 0.1744(2) 0.47674(13) 0.30032(16)
H1 H 0.2163 0.5093 0.3433
C4 C 0.0978(2) 0.50178(13) 0.22240(17)
C5 C 0.03403(19) 0.45555(14) 0.15677(16)
H2 H -0.0167 0.4745 0.1049
C6 C 0.04681(17) 0.38025(12) 0.16937(14)
C7 C -0.0239(2) 0.32840(13) 0.09803(16)
C8 C 0.12334(18) 0.35388(12) 0.24772(14)
H3 H 0.1318 0.3035 0.2566
C9 C 0.5109(2) 0.72556(14) 0.93378(16)
H4 H 0.4503 0.7564 0.9136
C10 C 0.5733(2) 0.73035(14) 0.90023(18)
H5 H 0.5534 0.7633 0.8577
C11 C 0.6658(2) 0.68647(15) 0.92926(18)
C12 C 0.7304(3) 0.68914(18) 0.8896(2)
H6 H 0.8051 0.6727 0.9287
H7 H 0.7339 0.7394 0.8748
C13 C 0.6784(2) 0.64087(16) 0.81239(18)
H8 H 0.6001 0.6510 0.7781
H9 H 0.7105 0.6534 0.7812
C14 C 0.6955(2) 0.55986(15) 0.83277(16)
H10 H 0.7738 0.5497 0.8618
H11 H 0.6726 0.5497 0.8704
C15 C 0.63635(19) 0.50698(14) 0.76159(15)
C16 C 0.5682(2) 0.52836(13) 0.68053(16)
H12 H 0.5589 0.5779 0.6669
C17 C 0.5140(2) 0.47596(13) 0.61973(15)
H13 H 0.4683 0.4919 0.5657
C18 C 0.5910(3) 0.38347(15) 0.71271(16)
H14 H 0.6001 0.3336 0.7247
C19 C 0.6478(2) 0.43198(16) 0.77654(16)
H15 H 0.6941 0.4146 0.8299
C20 C 0.6902(2) 0.63962(16) 0.99278(18)
H16 H 0.7522 0.6098 1.0156
C21 C 0.6227(2) 0.63682(15) 1.02283(16)
H17 H 0.6408 0.6041 1.0651
H18 H 0.3073 0.2769 0.5926
H19 H 0.2331 0.3319 0.5375
Co1E Co 0.42497(3) 0.672475(16) 1.038380(18)
Co1G Co -0.07503(3) 0.172475(16) 0.038380(18)
O4G O 0.49806(15) 0.23882(10) 0.61271(11)
N3E N 0.53311(17) 0.32148(10) 0.49435(13)
loop_
_geom_bond_atom_site_label_1
_geom_bond_atom_site_label_2
_geom_bond_site_symmetry_1
_geom_bond_site_symmetry_2
Co1 O1 1_555 1_555
O1 C1 1_555 1_555
O2 Co1 1_555 1_555
O3 Co1 1_555 1_555
O4 C7 1_555 1_555
O5 C7 1_555 1_555
O6 N1 1_555 1_555
O7 N1 1_555 1_555
N1 C4 1_555 1_555
N2 Co1 1_555 1_555
N3 C9 1_555 1_555
C1 O3 1_555 1_555
C2 C1 1_555 1_555
C3 C2 1_555 1_555
H1 C3 1_555 1_555
C4 C3 1_555 1_555
C5 C4 1_555 1_555
H2 C5 1_555 1_555
C6 C5 1_555 1_555
C7 C6 1_555 1_555
C8 C2 1_555 1_555
H3 C8 1_555 1_555
C9 H4 1_555 1_555
C10 C9 1_555 1_555
H5 C10 1_555 1_555
C11 C10 1_555 1_555
C12 C11 1_555 1_555
H6 C12 1_555 1_555
H7 C12 1_555 1_555
C13 C12 1_555 1_555
H8 C13 1_555 1_555
H9 C13 1_555 1_555
C14 C13 1_555 1_555
H10 C14 1_555 1_555
H11 C14 1_555 1_555
C15 C14 1_555 1_555
C16 C15 1_555 1_555
H12 C16 1_555 1_555
C17 N2 1_555 1_555
H13 C17 1_555 1_555
C18 N2 1_555 1_555
H14 C18 1_555 1_555
C19 C15 1_555 1_555
H15 C19 1_555 1_555
C20 C11 1_555 1_555
H16 C20 1_555 1_555
C21 N3 1_555 1_555
H17 C21 1_555 1_555
H18 O2 1_555 1_555
H19 O2 1_555 1_555
Co1E N3 1_555 1_555
Co1G O4 1_555 1_555
O4G Co1 1_555 1_555
N3E Co1 1_555 1_555
C6 C8 1_555 1_555
C16 C17 1_555 1_555
C18 C19 1_555 1_555
C20 C21 1_555 1_555

#END
