
#######################################################################
#
#                 Cambridge Crystallographic Data Centre
#                                CCDC 
#
#######################################################################
#
# If this CIF has been generated from an entry in the Cambridge 
# Structural Database, then it will include bibliographic, chemical, 
# crystal, experimental, refinement or atomic coordinate data resulting 
# from the CCDC's data processing and validation procedures.
#
#######################################################################

data_BUTKAD
_symmetry_cell_setting           monoclinic
_symmetry_space_group_name_H-M   'P 21/c'
_symmetry_Int_Tables_number      14
_space_group_name_Hall           '-P 2ybc'
loop_
_symmetry_equiv_pos_site_id
_symmetry_equiv_pos_as_xyz
1 x,y,z
2 -x,1/2+y,1/2-z
3 -x,-y,-z
4 x,1/2-y,1/2+z
_cell_length_a                   11.5124(5)
_cell_length_b                   15.6636(10)
_cell_length_c                   8.5530(7)
_cell_angle_alpha                90
_cell_angle_beta                 93.006(3)
_cell_angle_gamma                90
_cell_volume                     1540.2
loop_
_atom_site_label
_atom_site_type_symbol
_atom_site_fract_x
_atom_site_fract_y
_atom_site_fract_z
Ni1 Ni 0.5000 0.5000 0.5000
O1 O 0.2472(3) 0.72864(18) 0.7315(3)
H1 H 0.252(4) 0.783(3) 0.777(6)
O2 O 0.6562(2) 0.50857(14) 0.6468(3)
O3 O 0.7472(2) 0.38373(16) 0.6257(3)
N1 N 0.4612(3) 0.61847(18) 0.5844(3)
H2 H 0.3858 0.6319 0.5483
N2 N 0.3904(3) 0.56405(19) 0.8312(3)
N3 N 0.4111(3) 0.43651(18) 0.6671(3)
H3 H 0.3327 0.4374 0.6349
C1 C 0.5411(3) 0.6783(2) 0.5103(4)
H4 H 0.6190 0.6759 0.5649
H5 H 0.5113 0.7374 0.5174
C2 C 0.4660(3) 0.6238(2) 0.7582(4)
H6 H 0.5470 0.6134 0.7983
H7 H 0.4446 0.6824 0.7890
C3 C 0.4219(3) 0.4750(2) 0.8254(4)
H8 H 0.3720 0.4427 0.8953
H9 H 0.5034 0.4688 0.8669
C4 C 0.5495(3) 0.6531(2) 0.3390(4)
H10 H 0.6056 0.6907 0.2883
H11 H 0.4727 0.6592 0.2825
C5 C 0.2653(3) 0.5801(2) 0.8022(4)
H12 H 0.2212 0.5367 0.8590
H13 H 0.2451 0.5730 0.6889
C6 C 0.2277(4) 0.6681(2) 0.8523(4)
H14 H 0.1441 0.6673 0.8741
H15 H 0.2723 0.6849 0.9496
C7 C 0.7376(3) 0.4570(2) 0.6819(4)
C8 C 0.8291(3) 0.4874(2) 0.8018(4)
C9 C 0.8241(3) 0.5703(2) 0.8671(4)
H16 H 0.7637 0.6082 0.8324
C10 C 0.9051(3) 0.5964(2) 0.9797(4)
H17 H 0.8999 0.6520 1.0230
C11 C 0.9177(3) 0.4337(2) 0.8519(4)
H18 H 0.9216 0.3783 0.8075
C12 C 0.9971(3) 0.5414(2) 1.0325(4)
Ni1_2 Ni 1.5000 0.5000 1.5000
O1B O 0.7528(3) 0.27136(18) 0.2685(3)
H1B H 0.748(4) 0.217(3) 0.223(6)
O2B O 1.3438(2) 0.49143(14) 1.3532(3)
O2B_2 O 0.3438(2) 0.49143(14) 0.3532(3)
O3B O 1.2528(2) 0.61627(16) 1.3743(3)
N1B N 0.5388(3) 0.38153(18) 0.4156(3)
H2B H 0.6142 0.3681 0.4517
N2B N 0.6096(3) 0.43595(19) 0.1688(3)
N3B N 0.5889(3) 0.56349(18) 0.3329(3)
H3B H 0.6673 0.5626 0.3651
C1B C 0.4589(3) 0.3217(2) 0.4897(4)
H4B H 0.3810 0.3241 0.4351
H5B H 0.4887 0.2626 0.4826
C2B C 0.5340(3) 0.3762(2) 0.2418(4)
H6B H 0.4530 0.3866 0.2017
H7B H 0.5554 0.3176 0.2110
C3B C 0.5781(3) 0.5250(2) 0.1746(4)
H8B H 0.6280 0.5573 0.1047
H9B H 0.4966 0.5312 0.1331
C4B C 0.4505(3) 0.3469(2) 0.6610(4)
H10B H 0.3944 0.3093 0.7117
H11B H 0.5273 0.3408 0.7175
C5B C 0.7347(3) 0.4199(2) 0.1978(4)
H12B H 0.7788 0.4633 0.1410
H13B H 0.7549 0.4270 0.3111
C6B C 0.7723(4) 0.3319(2) 0.1477(4)
H14B H 0.8559 0.3327 0.1259
H15B H 0.7277 0.3151 0.0504
C7B C 1.2624(3) 0.5430(2) 1.3181(4)
C8B C 1.1709(3) 0.5126(2) 1.1982(4)
C9B C 1.1759(3) 0.4297(2) 1.1329(4)
H16B H 1.2363 0.3918 1.1676
C10B C 1.0949(3) 0.4036(2) 1.0203(4)
H17B H 1.1001 0.3480 0.9770
C11B C 1.0823(3) 0.5663(2) 1.1481(4)
H18B H 1.0784 0.6217 1.1925
C12B C 1.0029(3) 0.4586(2) 0.9675(4)
N4 N 0.8341(4) 0.6590(4) 1.3667(6)
C13 C 0.9100(5) 0.6535(4) 1.4510(7)
C14 C 1.0093(5) 0.6468(4) 1.5605(6)
H19 H 1.0806 0.6576 1.5060
H20 H 1.0123 0.5893 1.6058
H21 H 1.0024 0.6889 1.6442
loop_
_geom_bond_atom_site_label_1
_geom_bond_atom_site_label_2
_geom_bond_site_symmetry_1
_geom_bond_site_symmetry_2
Ni1 O2 1_555 1_555
O1 H1 1_555 1_555
O2 C7 1_555 1_555
O3 C7 1_555 1_555
N1 Ni1 1_555 1_555
H2 N1 1_555 1_555
N2 C2 1_555 1_555
N3 Ni1 1_555 1_555
H3 N3 1_555 1_555
C1 N1 1_555 1_555
H4 C1 1_555 1_555
H5 C1 1_555 1_555
C2 N1 1_555 1_555
H6 C2 1_555 1_555
H7 C2 1_555 1_555
C3 N2 1_555 1_555
H8 C3 1_555 1_555
H9 C3 1_555 1_555
C4 C1 1_555 1_555
H10 C4 1_555 1_555
H11 C4 1_555 1_555
C5 N2 1_555 1_555
H12 C5 1_555 1_555
H13 C5 1_555 1_555
C6 O1 1_555 1_555
H14 C6 1_555 1_555
H15 C6 1_555 1_555
C7 C8 1_555 1_555
C8 C9 1_555 1_555
C9 H16 1_555 1_555
C10 C9 1_555 1_555
H17 C10 1_555 1_555
C11 C8 1_555 1_555
H18 C11 1_555 1_555
C12 C10 1_555 1_555
N4 C13 1_555 1_555
C13 C14 1_555 1_555
C14 H19 1_555 1_555
H20 C14 1_555 1_555
H21 C14 1_555 1_555
Ni1_2 O2B 1_555 1_555
O1B H1B 1_555 1_555
O2B C7B 1_555 1_555
O2B_2 Ni1 1_555 1_555
O3B C7B 1_555 1_555
N1B Ni1 1_555 1_555
H2B N1B 1_555 1_555
N2B C2B 1_555 1_555
N3B Ni1 1_555 1_555
H3B N3B 1_555 1_555
C1B N1B 1_555 1_555
H4B C1B 1_555 1_555
H5B C1B 1_555 1_555
C2B N1B 1_555 1_555
H6B C2B 1_555 1_555
H7B C2B 1_555 1_555
C3B N2B 1_555 1_555
H8B C3B 1_555 1_555
H9B C3B 1_555 1_555
C4B N3 1_555 1_555
H10B C4B 1_555 1_555
H11B C4B 1_555 1_555
C5B N2B 1_555 1_555
H12B C5B 1_555 1_555
H13B C5B 1_555 1_555
C6B O1B 1_555 1_555
H14B C6B 1_555 1_555
H15B C6B 1_555 1_555
C7B C8B 1_555 1_555
C8B C9B 1_555 1_555
C9B H16B 1_555 1_555
C10B C9B 1_555 1_555
H17B C10B 1_555 1_555
C11B C12 1_555 1_555
H18B C11B 1_555 1_555
C12B C11 1_555 1_555
N3 C3 1_555 1_555
C4 N3B 1_555 1_555
C5 C6 1_555 1_555
C12 C12B 1_555 1_555
N3B C3B 1_555 1_555
C1B C4B 1_555 1_555
C5B C6B 1_555 1_555
C8B C11B 1_555 1_555
C10B C12B 1_555 1_555

#END
