
#######################################################################
#
#                 Cambridge Crystallographic Data Centre
#                                CCDC 
#
#######################################################################
#
# If this CIF has been generated from an entry in the Cambridge 
# Structural Database, then it will include bibliographic, chemical, 
# crystal, experimental, refinement or atomic coordinate data resulting 
# from the CCDC's data processing and validation procedures.
#
#######################################################################

data_BUTLIM
_symmetry_cell_setting           monoclinic
_symmetry_space_group_name_H-M   'P 21/n'
_symmetry_Int_Tables_number      14
_space_group_name_Hall           '-P 2yn'
loop_
_symmetry_equiv_pos_site_id
_symmetry_equiv_pos_as_xyz
1 x,y,z
2 1/2-x,1/2+y,1/2-z
3 -x,-y,-z
4 1/2+x,1/2-y,1/2+z
_cell_length_a                   16.1583(3)
_cell_length_b                   12.0884(2)
_cell_length_c                   23.3780(4)
_cell_angle_alpha                90
_cell_angle_beta                 100.113(1)
_cell_angle_gamma                90
_cell_volume                     4495.43
loop_
_atom_site_label
_atom_site_type_symbol
_atom_site_fract_x
_atom_site_fract_y
_atom_site_fract_z
Pb1 Pb 0.721206(10) 0.994057(11) 0.089070(7)
Pb2 Pb 0.828190(12) 0.911740(13) -0.074350(7)
S1 S 0.78066(7) 1.73378(8) 0.06815(5)
S2 S 0.60013(7) 1.61919(9) 0.33346(5)
S3 S 0.87151(7) 1.29210(9) -0.34886(4)
S4 S 0.73649(7) 1.15934(8) -0.06301(5)
O1 O 0.7682(2) 1.8164(3) 0.02154(15)
O2 O 0.7497(3) 1.7748(3) 0.11938(15)
O3 O 0.8663(2) 1.6931(3) 0.08064(17)
O4 O 0.6875(2) 1.6578(3) 0.34694(14)
O5 O 0.5917(3) 1.5118(3) 0.36017(17)
O6 O 0.5403(2) 1.7009(4) 0.34555(17)
O7 O 0.8157(4) 1.1990(5) -0.35560(19)
O8 O 0.8249(4) 1.3916(4) -0.37050(19)
O9 O 0.9451(3) 1.2778(8) -0.37211(19)
O10 O 0.7367(2) 1.0832(3) -0.01450(16)
O11 O 0.6545(2) 1.2050(3) -0.08631(18)
O12 O 0.7770(3) 1.1101(3) -0.10873(16)
N1 N 0.6727(2) 0.9935(3) 0.18697(16)
N2 N 0.6409(2) 1.1665(3) 0.11238(15)
N3 N 0.6439(2) 1.2534(3) 0.07726(16)
N4 N 0.6211(2) 1.2842(3) 0.18963(15)
N5 N 0.8424(2) 1.9028(3) -0.17976(17)
N6 N 0.8714(2) 1.7229(3) -0.11071(16)
N7 N 0.8742(2) 1.6355(3) -0.07627(16)
N8 N 0.8754(2) 1.6088(3) -0.19206(16)
C1 C 0.6815(3) 0.9048(3) 0.22151(19)
H1 H 0.6996 0.8388 0.2074
C2 C 0.6644(3) 0.9075(4) 0.2780(2)
H2 H 0.6703 0.8440 0.3009
C3 C 0.6387(3) 1.0055(4) 0.2996(2)
H3 H 0.6269 1.0090 0.3370
C4 C 0.6308(3) 1.0992(4) 0.26415(19)
H4 H 0.6152 1.1669 0.2779
C5 C 0.6468(3) 1.0893(3) 0.20774(17)
C6 C 0.6365(3) 1.1857(3) 0.16796(17)
C7 C 0.6163(2) 1.3702(3) 0.15389(17)
C8 C 0.6360(2) 1.3552(3) 0.09760(17)
C9 C 0.5887(3) 1.4764(3) 0.17602(18)
C10 C 0.5463(3) 1.5571(3) 0.13868(19)
H5 H 0.5336 1.5437 0.0989
C11 C 0.5233(3) 1.6569(4) 0.1608(2)
H6 H 0.4962 1.7104 0.1357
C12 C 0.5405(3) 1.6772(4) 0.2200(2)
H7 H 0.5262 1.7447 0.2346
C13 C 0.5793(3) 1.5957(3) 0.25742(19)
C14 C 0.6039(3) 1.4958(3) 0.23596(19)
H8 H 0.6304 1.4422 0.2613
C15 C 0.6530(3) 1.4448(3) 0.05805(18)
C16 C 0.6984(3) 1.5384(3) 0.07967(17)
H9 H 0.7158 1.5471 0.1195
C17 C 0.7177(3) 1.6188(3) 0.04153(18)
C18 C 0.6908(3) 1.6082(3) -0.01795(19)
H10 H 0.7031 1.6629 -0.0431
C19 C 0.6453(3) 1.5151(4) -0.03971(18)
H11 H 0.6270 1.5077 -0.0795
C20 C 0.6270(3) 1.4326(3) -0.00193(18)
H12 H 0.5975 1.3697 -0.0166
C21 C 0.8326(3) 1.9927(4) -0.2133(2)
H13 H 0.8279 2.0608 -0.1957
C22 C 0.8291(3) 1.9900(4) -0.2733(2)
H14 H 0.8218 2.0546 -0.2952
C23 C 0.8366(3) 1.8893(4) -0.2992(2)
H15 H 0.8356 1.8849 -0.3390
C24 C 0.8458(3) 1.7951(3) -0.26555(17)
H16 H 0.8491 1.7261 -0.2825
C25 C 0.8500(3) 1.8046(3) -0.20622(18)
C26 C 0.8648(3) 1.7068(3) -0.16806(18)
C27 C 0.8859(3) 1.5204(3) -0.15749(18)
C28 C 0.8770(3) 1.5334(3) -0.09833(18)
C29 C 0.8661(3) 1.4439(3) -0.05666(19)
C30 C 0.8195(3) 1.3506(3) -0.07595(18)
H17 H 0.8003 1.3401 -0.1155
C31 C 0.8014(3) 1.2724(3) -0.03607(19)
C32 C 0.8322(3) 1.2845(4) 0.02292(19)
H18 H 0.8207 1.2316 0.0493
C33 C 0.8804(4) 1.3769(4) 0.0418(2)
H19 H 0.9024 1.3848 0.0811
C34 C 0.8961(3) 1.4579(4) 0.00284(19)
H20 H 0.9264 1.5210 0.0162
C35 C 0.9075(3) 1.4165(3) -0.18525(18)
C36 C 0.9564(3) 1.3348(4) -0.15392(18)
H21 H 0.9746 1.3433 -0.1142
C37 C 0.9785(3) 1.2396(4) -0.18203(19)
H22 H 1.0112 1.1850 -0.1610
C38 C 0.9514(3) 1.2274(3) -0.24118(18)
H23 H 0.9655 1.1642 -0.2600
C39 C 0.9032(3) 1.3097(3) -0.27262(18)
C40 C 0.8815(3) 1.4046(3) -0.24545(18)
H24 H 0.8501 1.4598 -0.2669
C41 C 0.5517(4) 0.8491(5) 0.0139(3)
H25 H 0.4920 0.8402 0.0106
H26 H 0.5791 0.7799 0.0248
H27 H 0.5644 0.8726 -0.0228
O13 O 0.9627(3) 1.0096(4) -0.0770(2)
H28 H 0.9712 1.0763 -0.0660
H29 H 0.9874 0.9797 -0.1023
O16 O 0.5807(3) 0.9306(4) 0.05719(19)
Pb2A Pb 0.671810(12) 1.411740(13) -0.425650(7)
Pb2_2 Pb 0.828190(12) 1.911740(13) -0.074350(7)
O8A O 0.6751(4) 0.8916(4) -0.12950(19)
N5_2 N 0.8424(2) 0.9028(3) -0.17976(17)
N6_2 N 0.8714(2) 0.7229(3) -0.11071(16)
O14 O 0.9642(3) 1.8086(4) 0.0121(2)
H30 H 0.9367 1.8697 0.0191
H31 H 1.0194 1.8134 0.0068
O15 O 0.4728(3) 0.9478(4) 0.1276(2)
H32 H 0.5061 0.9534 0.1035
H33 H 0.4303 0.9105 0.1116
loop_
_geom_bond_atom_site_label_1
_geom_bond_atom_site_label_2
_geom_bond_site_symmetry_1
_geom_bond_site_symmetry_2
Pb1 O10 1_555 1_555
Pb2 O12 1_555 1_555
S1 O1 1_555 1_555
S2 O4 1_555 1_555
S3 O7 1_555 1_555
S4 O10 1_555 1_555
O2 S1 1_555 1_555
O3 S1 1_555 1_555
O5 S2 1_555 1_555
O6 S2 1_555 1_555
O8 S3 1_555 1_555
O9 S3 1_555 1_555
O11 S4 1_555 1_555
O12 S4 1_555 1_555
N1 Pb1 1_555 1_555
N2 Pb1 1_555 1_555
N3 N2 1_555 1_555
N4 C6 1_555 1_555
N5 C21 1_555 1_555
N6 N7 1_555 1_555
N7 C28 1_555 1_555
N8 C26 1_555 1_555
C1 N1 1_555 1_555
H1 C1 1_555 1_555
C2 C1 1_555 1_555
H2 C2 1_555 1_555
C3 C2 1_555 1_555
H3 C3 1_555 1_555
C4 C3 1_555 1_555
H4 C4 1_555 1_555
C5 N1 1_555 1_555
C6 N2 1_555 1_555
C7 N4 1_555 1_555
C8 N3 1_555 1_555
C9 C7 1_555 1_555
C10 C9 1_555 1_555
H5 C10 1_555 1_555
C11 C10 1_555 1_555
H6 C11 1_555 1_555
C12 C11 1_555 1_555
H7 C12 1_555 1_555
C13 S2 1_555 1_555
C14 C9 1_555 1_555
H8 C14 1_555 1_555
C15 C8 1_555 1_555
C16 C15 1_555 1_555
H9 C16 1_555 1_555
C17 S1 1_555 1_555
C18 C17 1_555 1_555
H10 C18 1_555 1_555
C19 C18 1_555 1_555
H11 C19 1_555 1_555
C20 C15 1_555 1_555
H12 C20 1_555 1_555
C21 H13 1_555 1_555
C22 C21 1_555 1_555
H14 C22 1_555 1_555
C23 C22 1_555 1_555
H15 C23 1_555 1_555
C24 C23 1_555 1_555
H16 C24 1_555 1_555
C25 N5 1_555 1_555
C26 N6 1_555 1_555
C27 N8 1_555 1_555
C28 C27 1_555 1_555
C29 C28 1_555 1_555
C30 C29 1_555 1_555
H17 C30 1_555 1_555
C31 S4 1_555 1_555
C32 C31 1_555 1_555
H18 C32 1_555 1_555
C33 C32 1_555 1_555
H19 C33 1_555 1_555
C34 C29 1_555 1_555
H20 C34 1_555 1_555
C35 C27 1_555 1_555
C36 C35 1_555 1_555
H21 C36 1_555 1_555
C37 C36 1_555 1_555
H22 C37 1_555 1_555
C38 C37 1_555 1_555
H23 C38 1_555 1_555
C39 S3 1_555 1_555
C40 C35 1_555 1_555
H24 C40 1_555 1_555
C41 H25 1_555 1_555
H26 C41 1_555 1_555
H27 C41 1_555 1_555
O13 Pb2 1_555 1_555
H28 O13 1_555 1_555
H29 O13 1_555 1_555
O14 H30 1_555 1_555
H31 O14 1_555 1_555
O15 H32 1_555 1_555
H33 O15 1_555 1_555
O16 Pb1 1_555 1_555
Pb2A O8 1_555 1_555
Pb2_2 N5 1_555 1_555
O8A Pb2 1_555 1_555
N5_2 Pb2 1_555 1_555
N6_2 Pb2 1_555 1_555
N6 Pb2_2 1_555 1_555
C4 C5 1_555 1_555
C5 C6 1_555 1_555
C7 C8 1_555 1_555
C12 C13 1_555 1_555
C13 C14 1_555 1_555
C16 C17 1_555 1_555
C19 C20 1_555 1_555
C24 C25 1_555 1_555
C25 C26 1_555 1_555
C30 C31 1_555 1_555
C33 C34 1_555 1_555
C38 C39 1_555 1_555
C39 C40 1_555 1_555
C41 O16 1_555 1_555

#END
