
#######################################################################
#
#                 Cambridge Crystallographic Data Centre
#                                CCDC 
#
#######################################################################
#
# If this CIF has been generated from an entry in the Cambridge 
# Structural Database, then it will include bibliographic, chemical, 
# crystal, experimental, refinement or atomic coordinate data resulting 
# from the CCDC's data processing and validation procedures.
#
#######################################################################

data_BUTQUD
_symmetry_cell_setting           monoclinic
_symmetry_space_group_name_H-M   'P 21/n'
_symmetry_Int_Tables_number      14
_space_group_name_Hall           '-P 2yn'
loop_
_symmetry_equiv_pos_site_id
_symmetry_equiv_pos_as_xyz
1 x,y,z
2 1/2-x,1/2+y,1/2-z
3 -x,-y,-z
4 1/2+x,1/2-y,1/2+z
_cell_length_a                   9.9825(4)
_cell_length_b                   31.8763(13)
_cell_length_c                   12.1733(5)
_cell_angle_alpha                90
_cell_angle_beta                 91.102(2)
_cell_angle_gamma                90
_cell_volume                     3872.89
loop_
_atom_site_label
_atom_site_type_symbol
_atom_site_fract_x
_atom_site_fract_y
_atom_site_fract_z
Zn1 Zn 0.85341(5) 0.808052(14) 0.70816(4)
O1 O 1.0121(5) 0.75889(15) 0.6498(4)
O2 O 1.0577(4) 0.82229(14) 0.6262(3)
O3 O 1.2096(5) 0.7760(2) 0.6038(5)
O4 O 0.6214(6) 0.79205(19) 0.8003(4)
O5 O 0.7633(5) 0.74920(15) 0.7544(3)
O6 O 0.5832(5) 0.72715(15) 0.8210(3)
N1 N 0.9582(4) 0.80950(10) 0.8670(3)
N2 N 1.3258(4) 0.87037(12) 1.0106(4)
H1 H 1.235(5) 0.8892(13) 1.010(3)
N3 N 2.1433(4) 0.98292(11) 1.3886(3)
H2 H 2.158(7) 0.965(2) 1.466(6)
N4 N 2.2075(4) 1.12835(11) 1.2772(3)
N5 N 0.7608(3) 0.80295(10) 0.5500(3)
N6 N 0.3732(4) 0.85015(12) 0.5182(4)
H3 H 0.327(4) 0.8435(12) 0.554(3)
N7 N 1.0975(4) 0.78502(18) 0.6252(3)
N8 N 0.6538(6) 0.75537(18) 0.7933(3)
C1 C 0.8950(4) 0.79840(13) 0.9583(3)
H4 H 0.8050 0.7910 0.9525
C2 C 0.9557(5) 0.79732(16) 1.0597(4)
H5 H 0.9076 0.7900 1.1215
C3 C 1.0893(6) 0.80721(16) 1.0683(4)
H6 H 1.1317 0.8077 1.1370
C4 C 1.1611(5) 0.81643(13) 0.9756(4)
C5 C 1.0905(5) 0.81775(14) 0.8787(4)
H7 H 1.1369 0.8249 0.8158
C6 C 1.3086(5) 0.82666(17) 0.9841(5)
H8 H 1.3509 0.8095 1.0407
H9 H 1.3510 0.8205 0.9148
C7 C 1.4476(4) 0.88601(13) 1.0574(3)
C8 C 1.5558(4) 0.86039(14) 1.0791(4)
H10 H 1.5512 0.8321 1.0611
C9 C 1.6715(4) 0.87643(14) 1.1274(4)
H11 H 1.7439 0.8586 1.1399
C10 C 1.6833(4) 0.91828(12) 1.1580(3)
C11 C 1.5715(4) 0.94369(13) 1.1309(3)
H12 H 1.5764 0.9722 1.1471
C12 C 1.4567(4) 0.92881(13) 1.0824(3)
C13 C 1.3415(6) 0.95768(16) 1.0568(5)
H13 H 1.2694 0.9420 1.0235
H14 H 1.3699 0.9791 1.0070
H15 H 1.3115 0.9704 1.1235
C14 C 1.8038(4) 0.93559(12) 1.2151(3)
C15 C 1.8962(4) 0.90952(13) 1.2673(3)
H16 H 1.8815 0.8807 1.2650
C16 C 2.0095(4) 0.92416(13) 1.3229(3)
C17 C 2.0316(4) 0.96722(13) 1.3300(3)
C18 C 1.9405(4) 0.99396(13) 1.2786(4)
H17 H 1.9536 1.0228 1.2822
C19 C 1.8298(4) 0.97800(13) 1.2219(3)
H18 H 1.7711 0.9966 1.1871
C20 C 2.1086(6) 0.89367(16) 1.3754(6)
H19 H 2.1807 0.9090 1.4098
H20 H 2.1437 0.8755 1.3200
H21 H 2.0640 0.8772 1.4297
C21 C 2.1493(4) 1.02590(13) 1.4257(3)
H22 H 2.2061 1.0273 1.4912
H23 H 2.0601 1.0346 1.4462
C22 C 2.2024(4) 1.05700(13) 1.3411(3)
C23 C 2.2877(5) 1.04549(15) 1.2617(4)
H24 H 2.3148 1.0177 1.2551
C24 C 2.3339(6) 1.07572(18) 1.1908(4)
H25 H 2.3942 1.0687 1.1366
C25 C 2.2907(5) 1.11572(15) 1.2009(4)
H26 H 2.3215 1.1355 1.1512
C26 C 2.1658(4) 1.09893(13) 1.3463(3)
H27 H 2.1084 1.1070 1.4017
C27 C 0.8222(5) 0.78894(16) 0.4615(4)
H28 H 0.9127 0.7822 0.4669
C28 C 0.7565(5) 0.78413(16) 0.3618(4)
H29 H 0.8019 0.7737 0.3017
C29 C 0.6247(5) 0.79471(15) 0.3516(4)
H30 H 0.5804 0.7923 0.2839
C30 C 0.5570(4) 0.80905(11) 0.4424(3)
C31 C 0.6293(4) 0.81275(12) 0.5404(3)
H31 H 0.5854 0.8224 0.6022
C32 C 0.4099(4) 0.82083(13) 0.4355(4)
H32 H 0.3902 0.8328 0.3638
H33 H 0.3562 0.7957 0.4429
C33 C 0.4089(4) 0.89174(12) 0.5137(3)
C34 C 0.4846(5) 0.90727(13) 0.4284(4)
H34 H 0.5125 0.8891 0.3737
C35 C 0.5194(4) 0.94888(12) 0.4228(3)
H35 H 0.5695 0.9582 0.3640
C36 C 0.4815(4) 0.97747(12) 0.5028(3)
C37 C 0.4066(4) 0.96088(13) 0.5867(3)
H36 H 0.3785 0.9792 0.6410
C38 C 0.3704(4) 0.91963(13) 0.5963(3)
C39 C 0.2926(7) 0.90330(16) 0.6920(5)
H37 H 0.2771 0.8738 0.6828
H38 H 0.2083 0.9177 0.6953
H39 H 0.3429 0.9080 0.7589
Zn1B Zn 2.14659(5) 1.191948(14) 1.29184(4)
Zn1B_2 Zn 0.14659(5) 1.191948(14) 0.29184(4)
O1B O 1.9879(5) 1.24111(15) 1.3502(4)
O2B O 1.9423(4) 1.17771(14) 1.3738(3)
O3B O 1.7904(5) 1.2240(2) 1.3962(5)
O4B O 2.3786(6) 1.20795(19) 1.1997(4)
O5B O 2.2367(5) 1.25080(15) 1.2456(3)
O6B O 2.4168(5) 1.27285(15) 1.1790(3)
N1B N 2.0418(4) 1.19050(10) 1.1330(3)
N2B N 1.6742(4) 1.12963(12) 0.9894(4)
H1B H 1.765(5) 1.1108(13) 0.990(3)
N3B N 0.8567(4) 1.01708(11) 0.6114(3)
H2B H 0.842(7) 1.035(2) 0.534(6)
N4B N 0.7925(4) 0.87165(11) 0.7228(3)
N5B N 0.2392(3) 1.19705(10) 0.4500(3)
N5B_2 N 2.2392(3) 1.19705(10) 1.4500(3)
N6B N 0.6268(4) 1.14985(12) 0.4818(4)
H3B H 0.673(4) 1.1565(12) 0.446(3)
N7B N 1.9025(4) 1.21498(18) 1.3748(3)
N8B N 2.3462(6) 1.24463(18) 1.2067(3)
C1B C 2.1050(4) 1.20160(13) 1.0417(3)
H4B H 2.1950 1.2090 1.0475
C2B C 2.0443(5) 1.20268(16) 0.9403(4)
H5B H 2.0924 1.2100 0.8785
C3B C 1.9107(6) 1.19279(16) 0.9317(4)
H6B H 1.8683 1.1923 0.8630
C4B C 1.8389(5) 1.18357(13) 1.0244(4)
C5B C 1.9095(5) 1.18225(14) 1.1213(4)
H7B H 1.8631 1.1751 1.1842
C6B C 1.6914(5) 1.17334(17) 1.0159(5)
H8B H 1.6491 1.1905 0.9593
H9B H 1.6490 1.1795 1.0852
C7B C 1.5524(4) 1.11399(13) 0.9426(3)
C8B C 1.4442(4) 1.13961(14) 0.9209(4)
H10B H 1.4488 1.1679 0.9389
C9B C 1.3285(4) 1.12357(14) 0.8726(4)
H11B H 1.2561 1.1414 0.8601
C10B C 1.3167(4) 1.08172(12) 0.8420(3)
C11B C 1.4285(4) 1.05631(13) 0.8691(3)
H12B H 1.4236 1.0278 0.8529
C12B C 1.5433(4) 1.07119(13) 0.9176(3)
C13B C 1.6585(6) 1.04232(16) 0.9432(5)
H13B H 1.7306 1.0580 0.9765
H14B H 1.6301 1.0209 0.9930
H15B H 1.6885 1.0296 0.8765
C14B C 1.1962(4) 1.06441(12) 0.7849(3)
C15B C 1.1038(4) 1.09048(13) 0.7327(3)
H16B H 1.1185 1.1193 0.7350
C16B C 0.9905(4) 1.07584(13) 0.6771(3)
C17B C 0.9684(4) 1.03278(13) 0.6700(3)
C18B C 1.0595(4) 1.00604(13) 0.7214(4)
H17B H 1.0464 0.9772 0.7178
C19B C 1.1702(4) 1.02200(13) 0.7781(3)
H18B H 1.2289 1.0034 0.8129
C20B C 0.8914(6) 1.10633(16) 0.6246(6)
H19B H 0.8193 1.0910 0.5902
H20B H 0.8563 1.1245 0.6800
H21B H 0.9360 1.1228 0.5703
C21B C 0.8507(4) 0.97410(13) 0.5743(3)
H22B H 0.7939 0.9727 0.5088
H23B H 0.9399 0.9654 0.5538
C22B C 0.7976(4) 0.94300(13) 0.6589(3)
C23B C 0.7123(5) 0.95451(15) 0.7383(4)
H24B H 0.6852 0.9823 0.7449
C24B C 0.6661(6) 0.92428(18) 0.8092(4)
H25B H 0.6058 0.9313 0.8634
C25B C 0.7093(5) 0.88428(15) 0.7991(4)
H26B H 0.6785 0.8645 0.8488
C26B C 0.8342(4) 0.90107(13) 0.6537(3)
H27B H 0.8916 0.8930 0.5983
C27B C 0.1778(5) 1.21106(16) 0.5385(4)
H28B H 0.0873 1.2178 0.5331
C28B C 0.2435(5) 1.21587(16) 0.6382(4)
H29B H 0.1981 1.2263 0.6983
C29B C 0.3753(5) 1.20529(15) 0.6484(4)
H30B H 0.4196 1.2077 0.7161
C30B C 0.4430(4) 1.19095(11) 0.5576(3)
C31B C 0.3707(4) 1.18725(12) 0.4596(3)
H31B H 0.4146 1.1776 0.3978
C32B C 0.5901(4) 1.17917(13) 0.5645(4)
H32B H 0.6098 1.1672 0.6362
H33B H 0.6438 1.2043 0.5571
C33B C 0.5911(4) 1.10826(12) 0.4863(3)
C34B C 0.5154(5) 1.09273(13) 0.5716(4)
H34B H 0.4875 1.1109 0.6263
C35B C 0.4806(4) 1.05112(12) 0.5772(3)
H35B H 0.4305 1.0418 0.6360
C36B C 0.5185(4) 1.02253(12) 0.4972(3)
C37B C 0.5934(4) 1.03912(13) 0.4133(3)
H36B H 0.6215 1.0208 0.3590
C38B C 0.6296(4) 1.08037(13) 0.4037(3)
C39B C 0.7074(7) 1.09670(16) 0.3080(5)
H37B H 0.7229 1.1262 0.3172
H38B H 0.7917 1.0823 0.3047
H39B H 0.6571 1.0920 0.2411
O7 O 0.0075(10) 0.9260(3) 0.9427(8)
H40 H 0.0623 0.9183 0.8976
C40 C 0.0440(15) 0.9144(5) 1.0354(12)
H41 H 0.0102 0.9335 1.0892
H42 H 0.1401 0.9140 1.0399
H43 H 0.0100 0.8868 1.0490
loop_
_geom_bond_atom_site_label_1
_geom_bond_atom_site_label_2
_geom_bond_site_symmetry_1
_geom_bond_site_symmetry_2
Zn1 O1 1_555 1_555
O1 N7 1_555 1_555
O2 Zn1 1_555 1_555
O3 N7 1_555 1_555
O4 N8 1_555 1_555
O5 Zn1 1_555 1_555
O6 N8 1_555 1_555
N1 Zn1 1_555 1_555
N2 H1 1_555 1_555
N3 H2 1_555 1_555
N4 C25 1_555 1_555
N5 Zn1 1_555 1_555
N6 H3 1_555 1_555
N7 O2 1_555 1_555
N8 O5 1_555 1_555
C1 N1 1_555 1_555
H4 C1 1_555 1_555
C2 C1 1_555 1_555
H5 C2 1_555 1_555
C3 C2 1_555 1_555
H6 C3 1_555 1_555
C4 C3 1_555 1_555
C5 N1 1_555 1_555
H7 C5 1_555 1_555
C6 N2 1_555 1_555
H8 C6 1_555 1_555
H9 C6 1_555 1_555
C7 N2 1_555 1_555
C8 C7 1_555 1_555
H10 C8 1_555 1_555
C9 C8 1_555 1_555
H11 C9 1_555 1_555
C10 C9 1_555 1_555
C11 C10 1_555 1_555
H12 C11 1_555 1_555
C12 C7 1_555 1_555
C13 C12 1_555 1_555
H13 C13 1_555 1_555
H14 C13 1_555 1_555
H15 C13 1_555 1_555
C14 C10 1_555 1_555
C15 C14 1_555 1_555
H16 C15 1_555 1_555
C16 C15 1_555 1_555
C17 N3 1_555 1_555
C18 C17 1_555 1_555
H17 C18 1_555 1_555
C19 C14 1_555 1_555
H18 C19 1_555 1_555
C20 C16 1_555 1_555
H19 C20 1_555 1_555
H20 C20 1_555 1_555
H21 C20 1_555 1_555
C21 N3 1_555 1_555
H22 C21 1_555 1_555
H23 C21 1_555 1_555
C22 C21 1_555 1_555
C23 C22 1_555 1_555
H24 C23 1_555 1_555
C24 C23 1_555 1_555
H25 C24 1_555 1_555
C25 C24 1_555 1_555
H26 C25 1_555 1_555
C26 N4 1_555 1_555
H27 C26 1_555 1_555
C27 N5 1_555 1_555
H28 C27 1_555 1_555
C28 C27 1_555 1_555
H29 C28 1_555 1_555
C29 C28 1_555 1_555
H30 C29 1_555 1_555
C30 C29 1_555 1_555
C31 N5 1_555 1_555
H31 C31 1_555 1_555
C32 N6 1_555 1_555
H32 C32 1_555 1_555
H33 C32 1_555 1_555
C33 N6 1_555 1_555
C34 C33 1_555 1_555
H34 C34 1_555 1_555
C35 C34 1_555 1_555
H35 C35 1_555 1_555
C36 C35 1_555 1_555
C37 C36 1_555 1_555
H36 C37 1_555 1_555
C38 C33 1_555 1_555
C39 C38 1_555 1_555
H37 C39 1_555 1_555
H38 C39 1_555 1_555
H39 C39 1_555 1_555
O7 H40 1_555 1_555
C40 O7 1_555 1_555
H41 C40 1_555 1_555
H42 C40 1_555 1_555
H43 C40 1_555 1_555
Zn1B N4 1_555 1_555
Zn1B_2 N5B 1_555 1_555
O1B Zn1B 1_555 1_555
O2B Zn1B 1_555 1_555
O3B N7B 1_555 1_555
O4B N8B 1_555 1_555
O5B Zn1B 1_555 1_555
O6B N8B 1_555 1_555
N1B Zn1B 1_555 1_555
N2B H1B 1_555 1_555
N3B H2B 1_555 1_555
N4B Zn1 1_555 1_555
N5B C27B 1_555 1_555
N5B_2 Zn1B 1_555 1_555
N6B H3B 1_555 1_555
N7B O1B 1_555 1_555
N8B O5B 1_555 1_555
C1B N1B 1_555 1_555
H4B C1B 1_555 1_555
C2B C1B 1_555 1_555
H5B C2B 1_555 1_555
C3B C2B 1_555 1_555
H6B C3B 1_555 1_555
C4B C3B 1_555 1_555
C5B N1B 1_555 1_555
H7B C5B 1_555 1_555
C6B N2B 1_555 1_555
H8B C6B 1_555 1_555
H9B C6B 1_555 1_555
C7B N2B 1_555 1_555
C8B C7B 1_555 1_555
H10B C8B 1_555 1_555
C9B C8B 1_555 1_555
H11B C9B 1_555 1_555
C10B C9B 1_555 1_555
C11B C10B 1_555 1_555
H12B C11B 1_555 1_555
C12B C7B 1_555 1_555
C13B C12B 1_555 1_555
H13B C13B 1_555 1_555
H14B C13B 1_555 1_555
H15B C13B 1_555 1_555
C14B C10B 1_555 1_555
C15B C14B 1_555 1_555
H16B C15B 1_555 1_555
C16B C15B 1_555 1_555
C17B N3B 1_555 1_555
C18B C17B 1_555 1_555
H17B C18B 1_555 1_555
C19B C14B 1_555 1_555
H18B C19B 1_555 1_555
C20B C16B 1_555 1_555
H19B C20B 1_555 1_555
H20B C20B 1_555 1_555
H21B C20B 1_555 1_555
C21B N3B 1_555 1_555
H22B C21B 1_555 1_555
H23B C21B 1_555 1_555
C22B C21B 1_555 1_555
C23B C22B 1_555 1_555
H24B C23B 1_555 1_555
C24B C23B 1_555 1_555
H25B C24B 1_555 1_555
C25B N4B 1_555 1_555
H26B C25B 1_555 1_555
C26B N4B 1_555 1_555
H27B C26B 1_555 1_555
C27B H28B 1_555 1_555
C28B C27B 1_555 1_555
H29B C28B 1_555 1_555
C29B C28B 1_555 1_555
H30B C29B 1_555 1_555
C30B C29B 1_555 1_555
C31B N5B 1_555 1_555
H31B C31B 1_555 1_555
C32B N6B 1_555 1_555
H32B C32B 1_555 1_555
H33B C32B 1_555 1_555
C33B N6B 1_555 1_555
C34B C33B 1_555 1_555
H34B C34B 1_555 1_555
C35B C34B 1_555 1_555
H35B C35B 1_555 1_555
C36B C36 1_555 1_555
C37B C36B 1_555 1_555
H36B C37B 1_555 1_555
C38B C33B 1_555 1_555
C39B C38B 1_555 1_555
H37B C39B 1_555 1_555
H38B C39B 1_555 1_555
H39B C39B 1_555 1_555
C4 C5 1_555 1_555
C4 C6 1_555 1_555
C11 C12 1_555 1_555
C16 C17 1_555 1_555
C18 C19 1_555 1_555
C22 C26 1_555 1_555
C30 C31 1_555 1_555
C30 C32 1_555 1_555
C37 C38 1_555 1_555
O2B N7B 1_555 1_555
C4B C5B 1_555 1_555
C4B C6B 1_555 1_555
C11B C12B 1_555 1_555
C16B C17B 1_555 1_555
C18B C19B 1_555 1_555
C22B C26B 1_555 1_555
C24B C25B 1_555 1_555
C30B C31B 1_555 1_555
C30B C32B 1_555 1_555
C35B C36B 1_555 1_555
C37B C38B 1_555 1_555

#END
