
#######################################################################
#
#                 Cambridge Crystallographic Data Centre
#                                CCDC 
#
#######################################################################
#
# If this CIF has been generated from an entry in the Cambridge 
# Structural Database, then it will include bibliographic, chemical, 
# crystal, experimental, refinement or atomic coordinate data resulting 
# from the CCDC's data processing and validation procedures.
#
#######################################################################

data_BUTRUC
_symmetry_cell_setting           tetragonal
_symmetry_space_group_name_H-M   'I -4 2 d'
_symmetry_Int_Tables_number      122
_space_group_name_Hall           'I -4 2bw'
loop_
_symmetry_equiv_pos_site_id
_symmetry_equiv_pos_as_xyz
1 x,y,z
2 1/2+x,1/2+y,1/2+z
3 -y,x,-z
4 1/2-y,1/2+x,1/2-z
5 -x,-y,z
6 1/2-x,1/2-y,1/2+z
7 y,-x,-z
8 1/2+y,1/2-x,1/2-z
9 y,1/2+x,1/4+z
10 1/2+y,x,3/4+z
11 x,1/2-y,1/4-z
12 1/2+x,-y,3/4-z
13 -y,1/2-x,1/4+z
14 1/2-y,-x,3/4+z
15 -x,1/2+y,1/4-z
16 1/2-x,y,3/4-z
_cell_length_a                   13.265(5)
_cell_length_b                   13.265(5)
_cell_length_c                   24.453(8)
_cell_angle_alpha                90
_cell_angle_beta                 90
_cell_angle_gamma                90
_cell_volume                     4302.76
loop_
_atom_site_label
_atom_site_type_symbol
_atom_site_fract_x
_atom_site_fract_y
_atom_site_fract_z
Cl1 Cl 0.12690 0.25000 0.12500
C1 C 0.12040 -0.06270 0.21090
C2 C 0.12890 -0.06060 0.06000
C3 C 0.18060 -0.09430 0.26270
C4 C 0.20980 -0.10120 0.02010
C5 C 0.29020 -0.05780 0.26140
C6 C 0.29080 -0.16010 0.05250
C7 C 0.34420 -0.09670 0.31580
C8 C 0.34760 -0.08960 0.09060
O1 O 0.13260 0.02730 0.19290
O2 O 0.13140 0.02900 0.07750
O3 O 0.05410 -0.12280 0.19370
O4 O 0.06150 -0.12280 0.07710
Ru1 Ru 0.03740 0.07740 0.13360
C1D C -0.12040 0.06270 0.21090
C3D C -0.18060 0.09430 0.26270
C5D C -0.29020 0.05780 0.26140
C7D C -0.34420 0.09670 0.31580
O1D O -0.13260 -0.02730 0.19290
O3D O -0.05410 0.12280 0.19370
C2D C -0.12890 0.06060 0.06000
C4D C -0.20980 0.10120 0.02010
C6D C -0.29080 0.16010 0.05250
C8D C -0.34760 0.08960 0.09060
O2D O -0.13140 -0.02900 0.07750
O4D O -0.06150 0.12280 0.07710
Ru1J Ru 0.03740 0.42260 0.11640
Ru1D Ru -0.03740 -0.07740 0.13360
O1J O 0.13260 0.47270 0.05710
O2J O 0.13140 0.47100 0.17250
O3N O -0.05410 0.37720 0.05630
O4N O -0.06150 0.37720 0.17290
Ru1N Ru -0.03740 0.57740 0.11640
Cl1D Cl -0.12690 -0.25000 0.12500
loop_
_geom_bond_atom_site_label_1
_geom_bond_atom_site_label_2
_geom_bond_site_symmetry_1
_geom_bond_site_symmetry_2
Cl1 Ru1 1_555 1_555
C1 C3 1_555 1_555
C2 C4 1_555 1_555
C3 C5 1_555 1_555
C4 C6 1_555 1_555
C5 C7 1_555 1_555
C6 C8 1_555 1_555
O1 C1 1_555 1_555
O2 C2 1_555 1_555
O3 C1 1_555 1_555
O4 C2 1_555 1_555
Ru1 O1 1_555 1_555
C1D C3D 1_555 1_555
C3D C5D 1_555 1_555
C5D C7D 1_555 1_555
O1D C1D 1_555 1_555
O3D Ru1 1_555 1_555
C2D C4D 1_555 1_555
C4D C6D 1_555 1_555
C6D C8D 1_555 1_555
O2D C2D 1_555 1_555
O4D Ru1 1_555 1_555
Ru1J Cl1 1_555 1_555
Ru1D O3 1_555 1_555
O1J Ru1J 1_555 1_555
O2J Ru1J 1_555 1_555
O3N Ru1J 1_555 1_555
O4N Ru1J 1_555 1_555
Ru1N Ru1J 1_555 1_555
Cl1D Ru1D 1_555 1_555
O2 Ru1 1_555 1_555
O4 Ru1D 1_555 1_555
Ru1 Ru1D 1_555 1_555
C1D O3D 1_555 1_555
O1D Ru1D 1_555 1_555
C2D O4D 1_555 1_555
O2D Ru1D 1_555 1_555

#END
