
#######################################################################
#
#                 Cambridge Crystallographic Data Centre
#                                CCDC 
#
#######################################################################
#
# If this CIF has been generated from an entry in the Cambridge 
# Structural Database, then it will include bibliographic, chemical, 
# crystal, experimental, refinement or atomic coordinate data resulting 
# from the CCDC's data processing and validation procedures.
#
#######################################################################

data_BUTRAK
_symmetry_cell_setting           monoclinic
_symmetry_space_group_name_H-M   'P 21/n'
_symmetry_Int_Tables_number      14
_space_group_name_Hall           '-P 2yn'
loop_
_symmetry_equiv_pos_site_id
_symmetry_equiv_pos_as_xyz
1 x,y,z
2 1/2-x,1/2+y,1/2-z
3 -x,-y,-z
4 1/2+x,1/2-y,1/2+z
_cell_length_a                   10.0466(8)
_cell_length_b                   31.996(3)
_cell_length_c                   12.2290(10)
_cell_angle_alpha                90
_cell_angle_beta                 90.647(4)
_cell_angle_gamma                90
_cell_volume                     3930.77
loop_
_atom_site_label
_atom_site_type_symbol
_atom_site_fract_x
_atom_site_fract_y
_atom_site_fract_z
Cd1 Cd 0.648725(19) 0.193051(6) 0.794758(17)
O1 O 0.8702(2) 0.20625(11) 0.7008(2)
O2 O 0.7423(2) 0.25727(8) 0.7388(2)
O3 O 0.9353(3) 0.26973(10) 0.6753(2)
O4 O 0.4302(2) 0.17946(8) 0.8816(2)
O5 O 0.4877(2) 0.24341(7) 0.86513(19)
O6 O 0.2859(3) 0.22805(11) 0.9090(3)
N1 N 0.5340(2) 0.19101(7) 0.6292(2)
N2 N 0.1666(2) 0.12938(8) 0.4920(2)
H1 H 0.2307 0.1122 0.5046
N3 N -0.6411(2) 0.02105(7) 0.1127(2)
H2 H -0.7059 0.0377 0.0981
N4 N -0.7142(2) -0.12316(8) 0.2197(2)
N5 N 0.7543(2) 0.19772(7) 0.9615(2)
N6 N 1.1356(2) 0.14834(8) 0.9855(2)
H3 H 1.1825 0.1570 0.9316
N7 N 0.8515(3) 0.24546(12) 0.7041(2)
N8 N 0.3996(3) 0.21774(11) 0.8868(2)
C1 C 0.4022(3) 0.18260(9) 0.6203(3)
H4 H 0.3561 0.1761 0.6836
C2 C 0.3331(3) 0.18309(9) 0.5235(3)
C3 C 0.4023(3) 0.19200(10) 0.4295(3)
H5 H 0.3593 0.1915 0.3618
C4 C 0.5358(3) 0.20160(11) 0.4368(3)
H6 H 0.5835 0.2084 0.3746
C5 C 0.5971(3) 0.20097(9) 0.5371(3)
H7 H 0.6870 0.2078 0.5416
C6 C 0.1860(3) 0.17265(10) 0.5179(3)
H8 H 0.1455 0.1788 0.5878
H9 H 0.1428 0.1898 0.4626
C7 C 0.0497(3) 0.11420(9) 0.4477(2)
C8 C 0.0391(3) 0.07123(9) 0.4208(2)
C9 C -0.0761(3) 0.05656(9) 0.3722(2)
H10 H -0.0826 0.0282 0.3563
C10 C -0.1851(3) 0.08281(9) 0.3454(2)
C11 C -0.1738(3) 0.12408(9) 0.3762(3)
H11 H -0.2449 0.1420 0.3624
C12 C -0.0607(3) 0.13997(9) 0.4268(3)
H12 H -0.0579 0.1680 0.4471
C13 C 0.1523(3) 0.04216(10) 0.4468(3)
H13 H 0.2239 0.0576 0.4802
H14 H 0.1827 0.0294 0.3806
H15 H 0.1227 0.0209 0.4963
C14 C -0.3051(3) 0.06606(9) 0.2870(2)
C15 C -0.3352(3) 0.02419(9) 0.2824(2)
H16 H -0.2795 0.0054 0.3185
C16 C -0.4449(3) 0.00888(9) 0.2263(3)
H17 H -0.4610 -0.0197 0.2249
C17 C -0.5320(3) 0.03613(9) 0.1714(2)
C18 C -0.5072(3) 0.07895(9) 0.1775(3)
C19 C -0.3930(3) 0.09301(9) 0.2345(3)
H18 H -0.3759 0.1216 0.2370
C20 C -0.5987(4) 0.10938(10) 0.1225(4)
H19 H -0.6709 0.0946 0.0882
H20 H -0.5507 0.1247 0.0682
H21 H -0.6332 0.1284 0.1758
C21 C -0.6492(3) -0.02195(9) 0.0754(3)
H22 H -0.5606 -0.0311 0.0554
H23 H -0.7044 -0.0228 0.0098
C22 C -0.7040(3) -0.05229(9) 0.1564(2)
C23 C -0.7949(3) -0.04094(11) 0.2336(3)
H24 H -0.8229 -0.0133 0.2391
C24 C -0.8450(4) -0.07141(12) 0.3037(3)
H25 H -0.9077 -0.0643 0.3559
C25 C -0.8021(4) -0.11141(11) 0.2957(3)
H26 H -0.8344 -0.1313 0.3442
C26 C -0.6682(3) -0.09381(9) 0.1525(3)
H27 H -0.6079 -0.1019 0.0995
C27 C 0.6946(3) 0.21182(11) 1.0504(3)
H28 H 0.6048 0.2187 1.0459
C28 C 0.7590(4) 0.21665(11) 1.1474(3)
H29 H 0.7153 0.2280 1.2071
C29 C 0.8897(4) 0.20459(11) 1.1560(3)
H30 H 0.9346 0.2068 1.2227
C30 C 0.9548(3) 0.18913(9) 1.0651(3)
C31 C 0.8802(3) 0.18697(9) 0.9697(3)
H31 H 0.9219 0.1772 0.9072
C32 C 1.0983(3) 0.17720(10) 1.0701(3)
H32 H 1.1521 0.2022 1.0640
H33 H 1.1175 0.1647 1.1408
C33 C 1.0972(3) 0.10732(10) 0.9896(3)
C34 C 1.0179(3) 0.09156(10) 1.0757(3)
H34 H 0.9901 0.1093 1.1313
C35 C 0.9826(3) 0.05052(10) 1.0768(3)
H35 H 0.9303 0.0411 1.1340
C36 C 1.0195(3) 0.02213(9) 0.9983(2)
C37 C 1.0988(3) 0.03787(10) 0.9150(3)
H36 H 1.1275 0.0193 0.8616
C38 C 1.1383(3) 0.07988(10) 0.9063(3)
C39 C 1.2161(4) 0.09409(12) 0.8126(3)
H37 H 1.2342 0.1234 0.8198
H38 H 1.1666 0.0892 0.7463
H39 H 1.2986 0.0790 0.8104
Cd1B Cd -0.648725(19) -0.193051(6) 0.205242(17)
Cd1B_2 Cd 1.351275(19) -0.193051(6) 1.205242(17)
O1B O -0.8702(2) -0.20625(11) 0.2992(2)
O2B O -0.7423(2) -0.25727(8) 0.2612(2)
O3B O -0.9353(3) -0.26973(10) 0.3247(2)
O4B O -0.4302(2) -0.17946(8) 0.1184(2)
O5B O -0.4877(2) -0.24341(7) 0.13487(19)
O6B O -0.2859(3) -0.22805(11) 0.0910(3)
N1B N -0.5340(2) -0.19101(7) 0.3708(2)
N2B N -0.1666(2) -0.12938(8) 0.5080(2)
H1B H -0.2307 -0.1122 0.4954
N3B N 0.6411(2) -0.02105(7) 0.8873(2)
H2B H 0.7059 -0.0377 0.9019
N4B N 0.7142(2) 0.12316(8) 0.7803(2)
N5B N 1.2457(2) -0.19772(7) 1.0385(2)
N5B_2 N -0.7543(2) -0.19772(7) 0.0385(2)
N6B N 0.8644(2) -0.14834(8) 1.0145(2)
H3B H 0.8175 -0.1570 1.0684
N7B N -0.8515(3) -0.24546(12) 0.2959(2)
N8B N -0.3996(3) -0.21774(11) 0.1132(2)
C1B C -0.4022(3) -0.18260(9) 0.3797(3)
H4B H -0.3561 -0.1761 0.3164
C2B C -0.3331(3) -0.18309(9) 0.4765(3)
C3B C -0.4023(3) -0.19200(10) 0.5705(3)
H5B H -0.3593 -0.1915 0.6382
C4B C -0.5358(3) -0.20160(11) 0.5632(3)
H6B H -0.5835 -0.2084 0.6254
C5B C -0.5971(3) -0.20097(9) 0.4629(3)
H7B H -0.6870 -0.2078 0.4584
C6B C -0.1860(3) -0.17265(10) 0.4821(3)
H8B H -0.1455 -0.1788 0.4122
H9B H -0.1428 -0.1898 0.5374
C7B C -0.0497(3) -0.11420(9) 0.5523(2)
C8B C -0.0391(3) -0.07123(9) 0.5792(2)
C9B C 0.0761(3) -0.05656(9) 0.6278(2)
H10B H 0.0826 -0.0282 0.6437
C10B C 0.1851(3) -0.08281(9) 0.6546(2)
C11B C 0.1738(3) -0.12408(9) 0.6238(3)
H11B H 0.2449 -0.1420 0.6376
C12B C 0.0607(3) -0.13997(9) 0.5732(3)
H12B H 0.0579 -0.1680 0.5529
C13B C -0.1523(3) -0.04216(10) 0.5532(3)
H13B H -0.2239 -0.0576 0.5198
H14B H -0.1827 -0.0294 0.6194
H15B H -0.1227 -0.0209 0.5037
C14B C 0.3051(3) -0.06606(9) 0.7130(2)
C15B C 0.3352(3) -0.02419(9) 0.7176(2)
H16B H 0.2795 -0.0054 0.6815
C16B C 0.4449(3) -0.00888(9) 0.7737(3)
H17B H 0.4610 0.0197 0.7751
C17B C 0.5320(3) -0.03613(9) 0.8286(2)
C18B C 0.5072(3) -0.07895(9) 0.8225(3)
C19B C 0.3930(3) -0.09301(9) 0.7655(3)
H18B H 0.3759 -0.1216 0.7630
C20B C 0.5987(4) -0.10938(10) 0.8775(4)
H19B H 0.6709 -0.0946 0.9118
H20B H 0.5507 -0.1247 0.9318
H21B H 0.6332 -0.1284 0.8242
C21B C 0.6492(3) 0.02195(9) 0.9246(3)
H22B H 0.5606 0.0311 0.9446
H23B H 0.7044 0.0228 0.9902
C22B C 0.7040(3) 0.05229(9) 0.8436(2)
C23B C 0.7949(3) 0.04094(11) 0.7664(3)
H24B H 0.8229 0.0133 0.7609
C24B C 0.8450(4) 0.07141(12) 0.6963(3)
H25B H 0.9077 0.0643 0.6441
C25B C 0.8021(4) 0.11141(11) 0.7043(3)
H26B H 0.8344 0.1313 0.6558
C26B C 0.6682(3) 0.09381(9) 0.8475(3)
H27B H 0.6079 0.1019 0.9005
C27B C 1.3054(3) -0.21182(11) 0.9496(3)
H28B H 1.3952 -0.2187 0.9541
C28B C 1.2410(4) -0.21665(11) 0.8526(3)
H29B H 1.2847 -0.2280 0.7929
C29B C 1.1103(4) -0.20459(11) 0.8440(3)
H30B H 1.0654 -0.2068 0.7773
C30B C 1.0452(3) -0.18913(9) 0.9349(3)
C31B C 1.1198(3) -0.18697(9) 1.0303(3)
H31B H 1.0781 -0.1772 1.0928
C32B C 0.9017(3) -0.17720(10) 0.9299(3)
H32B H 0.8479 -0.2022 0.9360
H33B H 0.8825 -0.1647 0.8592
C33B C 0.9028(3) -0.10732(10) 1.0104(3)
C34B C 0.9821(3) -0.09156(10) 0.9243(3)
H34B H 1.0099 -0.1093 0.8687
C35B C 1.0174(3) -0.05052(10) 0.9232(3)
H35B H 1.0697 -0.0411 0.8660
C36B C 0.9805(3) -0.02213(9) 1.0017(2)
C37B C 0.9012(3) -0.03787(10) 1.0850(3)
H36B H 0.8725 -0.0193 1.1384
C38B C 0.8617(3) -0.07988(10) 1.0937(3)
C39B C 0.7839(4) -0.09409(12) 1.1874(3)
H37B H 0.7658 -0.1234 1.1802
H38B H 0.8334 -0.0892 1.2537
H39B H 0.7014 -0.0790 1.1896
C40 C 0.4440(5) 0.08550(16) 0.4673(4)
H40 H 0.3660 0.0989 0.4954
H41 H 0.4180 0.0648 0.4144
H42 H 0.4998 0.1060 0.4333
O7 O 0.5098(7) 0.0674(3) 0.5480(6)
H43 H 0.5898 0.0685 0.5360
loop_
_geom_bond_atom_site_label_1
_geom_bond_atom_site_label_2
_geom_bond_site_symmetry_1
_geom_bond_site_symmetry_2
Cd1 O1 1_555 1_555
O1 N7 1_555 1_555
O2 Cd1 1_555 1_555
O3 N7 1_555 1_555
O4 Cd1 1_555 1_555
O5 Cd1 1_555 1_555
O6 N8 1_555 1_555
N1 Cd1 1_555 1_555
N2 H1 1_555 1_555
N3 H2 1_555 1_555
N4 C25 1_555 1_555
N5 Cd1 1_555 1_555
N6 H3 1_555 1_555
N7 O2 1_555 1_555
N8 O4 1_555 1_555
C1 N1 1_555 1_555
H4 C1 1_555 1_555
C2 C1 1_555 1_555
C3 C2 1_555 1_555
H5 C3 1_555 1_555
C4 C3 1_555 1_555
H6 C4 1_555 1_555
C5 N1 1_555 1_555
H7 C5 1_555 1_555
C6 N2 1_555 1_555
H8 C6 1_555 1_555
H9 C6 1_555 1_555
C7 N2 1_555 1_555
C8 C7 1_555 1_555
C9 C8 1_555 1_555
H10 C9 1_555 1_555
C10 C9 1_555 1_555
C11 C10 1_555 1_555
H11 C11 1_555 1_555
C12 C7 1_555 1_555
H12 C12 1_555 1_555
C13 C8 1_555 1_555
H13 C13 1_555 1_555
H14 C13 1_555 1_555
H15 C13 1_555 1_555
C14 C10 1_555 1_555
C15 C14 1_555 1_555
H16 C15 1_555 1_555
C16 C15 1_555 1_555
H17 C16 1_555 1_555
C17 N3 1_555 1_555
C18 C17 1_555 1_555
C19 C14 1_555 1_555
H18 C19 1_555 1_555
C20 C18 1_555 1_555
H19 C20 1_555 1_555
H20 C20 1_555 1_555
H21 C20 1_555 1_555
C21 N3 1_555 1_555
H22 C21 1_555 1_555
H23 C21 1_555 1_555
C22 C21 1_555 1_555
C23 C22 1_555 1_555
H24 C23 1_555 1_555
C24 C23 1_555 1_555
H25 C24 1_555 1_555
C25 C24 1_555 1_555
H26 C25 1_555 1_555
C26 N4 1_555 1_555
H27 C26 1_555 1_555
C27 N5 1_555 1_555
H28 C27 1_555 1_555
C28 C27 1_555 1_555
H29 C28 1_555 1_555
C29 C28 1_555 1_555
H30 C29 1_555 1_555
C30 C29 1_555 1_555
C31 N5 1_555 1_555
H31 C31 1_555 1_555
C32 N6 1_555 1_555
H32 C32 1_555 1_555
H33 C32 1_555 1_555
C33 N6 1_555 1_555
C34 C33 1_555 1_555
H34 C34 1_555 1_555
C35 C34 1_555 1_555
H35 C35 1_555 1_555
C36 C35 1_555 1_555
C37 C36 1_555 1_555
H36 C37 1_555 1_555
C38 C33 1_555 1_555
C39 C38 1_555 1_555
H37 C39 1_555 1_555
H38 C39 1_555 1_555
H39 C39 1_555 1_555
C40 H40 1_555 1_555
H41 C40 1_555 1_555
H42 C40 1_555 1_555
O7 C40 1_555 1_555
H43 O7 1_555 1_555
Cd1B N4 1_555 1_555
Cd1B_2 N5B 1_555 1_555
O1B Cd1B 1_555 1_555
O2B Cd1B 1_555 1_555
O3B N7B 1_555 1_555
O4B Cd1B 1_555 1_555
O5B Cd1B 1_555 1_555
O6B N8B 1_555 1_555
N1B Cd1B 1_555 1_555
N2B H1B 1_555 1_555
N3B H2B 1_555 1_555
N4B Cd1 1_555 1_555
N5B C27B 1_555 1_555
N5B_2 Cd1B 1_555 1_555
N6B H3B 1_555 1_555
N7B O1B 1_555 1_555
N8B O4B 1_555 1_555
C1B N1B 1_555 1_555
H4B C1B 1_555 1_555
C2B C1B 1_555 1_555
C3B C2B 1_555 1_555
H5B C3B 1_555 1_555
C4B C3B 1_555 1_555
H6B C4B 1_555 1_555
C5B N1B 1_555 1_555
H7B C5B 1_555 1_555
C6B N2B 1_555 1_555
H8B C6B 1_555 1_555
H9B C6B 1_555 1_555
C7B N2B 1_555 1_555
C8B C7B 1_555 1_555
C9B C8B 1_555 1_555
H10B C9B 1_555 1_555
C10B C9B 1_555 1_555
C11B C10B 1_555 1_555
H11B C11B 1_555 1_555
C12B C7B 1_555 1_555
H12B C12B 1_555 1_555
C13B C8B 1_555 1_555
H13B C13B 1_555 1_555
H14B C13B 1_555 1_555
H15B C13B 1_555 1_555
C14B C10B 1_555 1_555
C15B C14B 1_555 1_555
H16B C15B 1_555 1_555
C16B C15B 1_555 1_555
H17B C16B 1_555 1_555
C17B N3B 1_555 1_555
C18B C17B 1_555 1_555
C19B C14B 1_555 1_555
H18B C19B 1_555 1_555
C20B C18B 1_555 1_555
H19B C20B 1_555 1_555
H20B C20B 1_555 1_555
H21B C20B 1_555 1_555
C21B N3B 1_555 1_555
H22B C21B 1_555 1_555
H23B C21B 1_555 1_555
C22B C21B 1_555 1_555
C23B C22B 1_555 1_555
H24B C23B 1_555 1_555
C24B C23B 1_555 1_555
H25B C24B 1_555 1_555
C25B N4B 1_555 1_555
H26B C25B 1_555 1_555
C26B N4B 1_555 1_555
H27B C26B 1_555 1_555
C27B H28B 1_555 1_555
C28B C27B 1_555 1_555
H29B C28B 1_555 1_555
C29B C28B 1_555 1_555
H30B C29B 1_555 1_555
C30B C29B 1_555 1_555
C31B N5B 1_555 1_555
H31B C31B 1_555 1_555
C32B N6B 1_555 1_555
H32B C32B 1_555 1_555
H33B C32B 1_555 1_555
C33B N6B 1_555 1_555
C34B C33B 1_555 1_555
H34B C34B 1_555 1_555
C35B C34B 1_555 1_555
H35B C35B 1_555 1_555
C36B C36 1_555 1_555
C37B C36B 1_555 1_555
H36B C37B 1_555 1_555
C38B C33B 1_555 1_555
C39B C38B 1_555 1_555
H37B C39B 1_555 1_555
H38B C39B 1_555 1_555
H39B C39B 1_555 1_555
O5 N8 1_555 1_555
C2 C6 1_555 1_555
C4 C5 1_555 1_555
C11 C12 1_555 1_555
C16 C17 1_555 1_555
C18 C19 1_555 1_555
C22 C26 1_555 1_555
C30 C31 1_555 1_555
C30 C32 1_555 1_555
C37 C38 1_555 1_555
O2B N7B 1_555 1_555
O5B N8B 1_555 1_555
C2B C6B 1_555 1_555
C4B C5B 1_555 1_555
C11B C12B 1_555 1_555
C16B C17B 1_555 1_555
C18B C19B 1_555 1_555
C22B C26B 1_555 1_555
C24B C25B 1_555 1_555
C30B C31B 1_555 1_555
C30B C32B 1_555 1_555
C35B C36B 1_555 1_555
C37B C38B 1_555 1_555

#END
