
#######################################################################
#
#                 Cambridge Crystallographic Data Centre
#                                CCDC 
#
#######################################################################
#
# If this CIF has been generated from an entry in the Cambridge 
# Structural Database, then it will include bibliographic, chemical, 
# crystal, experimental, refinement or atomic coordinate data resulting 
# from the CCDC's data processing and validation procedures.
#
#######################################################################

data_BUTSOZ
_symmetry_cell_setting           triclinic
_symmetry_space_group_name_H-M   'P -1'
_symmetry_Int_Tables_number      2
_space_group_name_Hall           '-P 1'
loop_
_symmetry_equiv_pos_site_id
_symmetry_equiv_pos_as_xyz
1 x,y,z
2 -x,-y,-z
_cell_length_a                   10.732(5)
_cell_length_b                   11.903(5)
_cell_length_c                   11.912(5)
_cell_angle_alpha                111.236(5)
_cell_angle_beta                 95.319(3)
_cell_angle_gamma                102.150(3)
_cell_volume                     1362.54
loop_
_atom_site_label
_atom_site_type_symbol
_atom_site_fract_x
_atom_site_fract_y
_atom_site_fract_z
Cu1 Cu 0.22961(4) 0.23951(4) 0.44737(3)
P1 P 0.05562(7) 0.07119(7) 0.35569(6)
P2 P 0.31367(7) 0.38022(7) 0.36771(7)
O1 O 0.2263(2) 0.3138(3) 0.6332(2)
O2 O 0.3896(2) 0.1741(2) 0.4836(2)
C1 C 0.0748(3) -0.0435(3) 0.2122(3)
C2 C -0.0127(4) -0.0899(4) 0.1022(3)
H1 H -0.0865 -0.0612 0.0984
C3 C 0.0096(5) -0.1785(4) -0.0014(4)
H2 H -0.0498 -0.2094 -0.0744
C4 C 0.1177(5) -0.2211(4) 0.0024(4)
H3 H 0.1320 -0.2806 -0.0678
C5 C 0.2053(5) -0.1758(4) 0.1102(4)
H4 H 0.2784 -0.2056 0.1133
C6 C 0.1852(4) -0.0863(4) 0.2134(3)
H5 H 0.2467 -0.0541 0.2852
C7 C -0.1002(3) 0.1015(3) 0.3217(2)
C8 C -0.2186(3) 0.0203(4) 0.3092(3)
H6 H -0.2210 -0.0565 0.3139
C9 C -0.3325(3) 0.0514(4) 0.2899(4)
H7 H -0.4114 -0.0044 0.2810
C10 C -0.3302(4) 0.1652(5) 0.2836(3)
H8 H -0.4072 0.1874 0.2729
C11 C -0.2158(4) 0.2441(4) 0.2932(4)
H9 H -0.2147 0.3196 0.2861
C12 C -0.1001(3) 0.2149(3) 0.3133(3)
H10 H -0.0220 0.2713 0.3213
C13 C 0.0198(4) -0.0323(3) 0.4392(3)
H11 H 0.088(3) -0.050(3) 0.450(3)
H12 H -0.039(3) -0.091(3) 0.398(3)
C14 C 0.4456(3) 0.5170(3) 0.4693(3)
H13 H 0.407(3) 0.561(3) 0.521(3)
H14 H 0.484(3) 0.560(3) 0.428(3)
C15 C 0.3826(3) 0.3068(3) 0.2344(3)
C16 C 0.3248(3) 0.1821(3) 0.1602(3)
H15 H 0.2550 0.1387 0.1819
C17 C 0.3682(4) 0.1210(4) 0.0552(3)
H16 H 0.3268 0.0378 0.0067
C18 C 0.4714(4) 0.1819(4) 0.0221(3)
H17 H 0.5005 0.1408 -0.0488
C19 C 0.5312(4) 0.3037(4) 0.0941(4)
H18 H 0.6020 0.3451 0.0718
C20 C 0.4896(4) 0.3670(3) 0.1991(3)
H19 H 0.5326 0.4500 0.2469
C21 C 0.2110(3) 0.4613(3) 0.3119(3)
C22 C 0.1326(4) 0.5194(4) 0.3877(4)
H20 H 0.1314 0.5137 0.4634
C23 C 0.0565(4) 0.5853(4) 0.3526(5)
H21 H 0.0045 0.6233 0.4044
C24 C 0.0576(4) 0.5947(4) 0.2411(5)
H22 H 0.0077 0.6405 0.2178
C25 C 0.1323(5) 0.5367(4) 0.1651(4)
H23 H 0.1310 0.5413 0.0887
C26 C 0.2093(4) 0.4715(4) 0.1989(3)
H24 H 0.2607 0.4338 0.1461
C27 C 0.2823(4) 0.3667(4) 0.8455(3)
H25 H 0.2035 0.3926 0.8447
H26 H 0.3531 0.4370 0.8958
H27 H 0.2741 0.3031 0.8781
C28 C 0.3082(3) 0.3146(3) 0.7148(3)
C29 C 0.4200(3) 0.2729(3) 0.7008(3)
H28 H 0.482(3) 0.291(3) 0.783(3)
C30 C 0.4549(3) 0.2076(3) 0.5885(3)
C31 C 0.5849(4) 0.1772(4) 0.5951(4)
H29 H 0.5980 0.1333 0.5137
H30 H 0.5863 0.1258 0.6412
H31 H 0.6528 0.2533 0.6346
Cu1A Cu -0.22961(4) -0.23951(4) 0.55263(3)
Cu1A_2 Cu 0.77039(4) 0.76049(4) 0.55263(3)
P1A P -0.05562(7) -0.07119(7) 0.64431(6)
P2A P 0.68633(7) 0.61978(7) 0.63229(7)
P2A_2 P -0.31367(7) -0.38022(7) 0.63229(7)
O1A O -0.2263(2) -0.3138(3) 0.3668(2)
O2A O -0.3896(2) -0.1741(2) 0.5164(2)
C1A C -0.0748(3) 0.0435(3) 0.7878(3)
C2A C 0.0127(4) 0.0899(4) 0.8978(3)
H1A H 0.0865 0.0612 0.9016
C3A C -0.0096(5) 0.1785(4) 1.0014(4)
H2A H 0.0498 0.2094 1.0744
C4A C -0.1177(5) 0.2211(4) 0.9976(4)
H3A H -0.1320 0.2806 1.0678
C5A C -0.2053(5) 0.1758(4) 0.8898(4)
H4A H -0.2784 0.2056 0.8867
C6A C -0.1852(4) 0.0863(4) 0.7866(3)
H5A H -0.2467 0.0541 0.7148
C7A C 0.1002(3) -0.1015(3) 0.6783(2)
C8A C 0.2186(3) -0.0203(4) 0.6908(3)
H6A H 0.2210 0.0565 0.6861
C9A C 0.3325(3) -0.0514(4) 0.7101(4)
H7A H 0.4114 0.0044 0.7190
C10A C 0.3302(4) -0.1652(5) 0.7164(3)
H8A H 0.4072 -0.1874 0.7271
C11A C 0.2158(4) -0.2441(4) 0.7068(4)
H9A H 0.2147 -0.3196 0.7139
C12A C 0.1001(3) -0.2149(3) 0.6867(3)
H10A H 0.0220 -0.2713 0.6787
C13A C -0.0198(4) 0.0323(3) 0.5608(3)
H11A H -0.088(3) 0.050(3) 0.550(3)
H12A H 0.039(3) 0.091(3) 0.602(3)
C14A C 0.5544(3) 0.4830(3) 0.5307(3)
H13A H 0.593(3) 0.439(3) 0.479(3)
H14A H 0.516(3) 0.440(3) 0.572(3)
C15A C 0.6174(3) 0.6932(3) 0.7656(3)
C16A C 0.6752(3) 0.8179(3) 0.8398(3)
H15A H 0.7450 0.8613 0.8181
C17A C 0.6318(4) 0.8790(4) 0.9448(3)
H16A H 0.6732 0.9622 0.9933
C18A C 0.5286(4) 0.8181(4) 0.9779(3)
H17A H 0.4995 0.8592 1.0488
C19A C 0.4688(4) 0.6963(4) 0.9059(4)
H18A H 0.3980 0.6549 0.9282
C20A C 0.5104(4) 0.6330(3) 0.8009(3)
H19A H 0.4674 0.5500 0.7531
C21A C 0.7890(3) 0.5387(3) 0.6881(3)
C22A C 0.8674(4) 0.4806(4) 0.6123(4)
H20A H 0.8686 0.4863 0.5366
C23A C 0.9435(4) 0.4147(4) 0.6474(5)
H21A H 0.9955 0.3767 0.5956
C24A C 0.9424(4) 0.4053(4) 0.7589(5)
H22A H 0.9923 0.3595 0.7822
C25A C 0.8677(5) 0.4633(4) 0.8349(4)
H23A H 0.8690 0.4587 0.9113
C26A C 0.7907(4) 0.5285(4) 0.8011(3)
H24A H 0.7393 0.5662 0.8539
C27A C -0.2823(4) -0.3667(4) 0.1545(3)
H25A H -0.2035 -0.3926 0.1553
H26A H -0.3531 -0.4370 0.1042
H27A H -0.2741 -0.3031 0.1219
C28A C -0.3082(3) -0.3146(3) 0.2852(3)
C29A C -0.4200(3) -0.2729(3) 0.2992(3)
H28A H -0.482(3) -0.291(3) 0.217(3)
C30A C -0.4549(3) -0.2076(3) 0.4115(3)
C31A C -0.5849(4) -0.1772(4) 0.4049(4)
H29A H -0.5980 -0.1333 0.4863
H30A H -0.5863 -0.1258 0.3588
H31A H -0.6528 -0.2533 0.3654
loop_
_geom_bond_atom_site_label_1
_geom_bond_atom_site_label_2
_geom_bond_site_symmetry_1
_geom_bond_site_symmetry_2
Cu1 P1 1_555 1_555
P1 C1 1_555 1_555
P2 Cu1 1_555 1_555
O1 Cu1 1_555 1_555
O2 Cu1 1_555 1_555
C1 C2 1_555 1_555
C2 H1 1_555 1_555
C3 C2 1_555 1_555
H2 C3 1_555 1_555
C4 C3 1_555 1_555
H3 C4 1_555 1_555
C5 C4 1_555 1_555
H4 C5 1_555 1_555
C6 C1 1_555 1_555
H5 C6 1_555 1_555
C7 P1 1_555 1_555
C8 C7 1_555 1_555
H6 C8 1_555 1_555
C9 C8 1_555 1_555
H7 C9 1_555 1_555
C10 C9 1_555 1_555
H8 C10 1_555 1_555
C11 C10 1_555 1_555
H9 C11 1_555 1_555
C12 C7 1_555 1_555
H10 C12 1_555 1_555
C13 P1 1_555 1_555
H11 C13 1_555 1_555
H12 C13 1_555 1_555
C14 P2 1_555 1_555
H13 C14 1_555 1_555
H14 C14 1_555 1_555
C15 P2 1_555 1_555
C16 C15 1_555 1_555
H15 C16 1_555 1_555
C17 C16 1_555 1_555
H16 C17 1_555 1_555
C18 C17 1_555 1_555
H17 C18 1_555 1_555
C19 C18 1_555 1_555
H18 C19 1_555 1_555
C20 C15 1_555 1_555
H19 C20 1_555 1_555
C21 P2 1_555 1_555
C22 C21 1_555 1_555
H20 C22 1_555 1_555
C23 C22 1_555 1_555
H21 C23 1_555 1_555
C24 C23 1_555 1_555
H22 C24 1_555 1_555
C25 C24 1_555 1_555
H23 C25 1_555 1_555
C26 C21 1_555 1_555
H24 C26 1_555 1_555
C27 H25 1_555 1_555
H26 C27 1_555 1_555
H27 C27 1_555 1_555
C28 O1 1_555 1_555
C29 C28 1_555 1_555
H28 C29 1_555 1_555
C30 O2 1_555 1_555
C31 C30 1_555 1_555
H29 C31 1_555 1_555
H30 C31 1_555 1_555
H31 C31 1_555 1_555
Cu1A P1A 1_555 1_555
Cu1A_2 P2A 1_555 1_555
P1A C1A 1_555 1_555
P2A C14A 1_555 1_555
P2A_2 Cu1A 1_555 1_555
O1A Cu1A 1_555 1_555
O2A Cu1A 1_555 1_555
C1A C2A 1_555 1_555
C2A H1A 1_555 1_555
C3A C2A 1_555 1_555
H2A C3A 1_555 1_555
C4A C3A 1_555 1_555
H3A C4A 1_555 1_555
C5A C4A 1_555 1_555
H4A C5A 1_555 1_555
C6A C1A 1_555 1_555
H5A C6A 1_555 1_555
C7A P1A 1_555 1_555
C8A C7A 1_555 1_555
H6A C8A 1_555 1_555
C9A C8A 1_555 1_555
H7A C9A 1_555 1_555
C10A C9A 1_555 1_555
H8A C10A 1_555 1_555
C11A C10A 1_555 1_555
H9A C11A 1_555 1_555
C12A C7A 1_555 1_555
H10A C12A 1_555 1_555
C13A C13 1_555 1_555
H11A C13A 1_555 1_555
H12A C13A 1_555 1_555
C14A C14 1_555 1_555
H13A C14A 1_555 1_555
H14A C14A 1_555 1_555
C15A P2A 1_555 1_555
C16A C15A 1_555 1_555
H15A C16A 1_555 1_555
C17A C16A 1_555 1_555
H16A C17A 1_555 1_555
C18A C17A 1_555 1_555
H17A C18A 1_555 1_555
C19A C18A 1_555 1_555
H18A C19A 1_555 1_555
C20A C15A 1_555 1_555
H19A C20A 1_555 1_555
C21A P2A 1_555 1_555
C22A C21A 1_555 1_555
H20A C22A 1_555 1_555
C23A C22A 1_555 1_555
H21A C23A 1_555 1_555
C24A C23A 1_555 1_555
H22A C24A 1_555 1_555
C25A C24A 1_555 1_555
H23A C25A 1_555 1_555
C26A C21A 1_555 1_555
H24A C26A 1_555 1_555
C27A H25A 1_555 1_555
H26A C27A 1_555 1_555
H27A C27A 1_555 1_555
C28A O1A 1_555 1_555
C29A C28A 1_555 1_555
H28A C29A 1_555 1_555
C30A O2A 1_555 1_555
C31A C30A 1_555 1_555
H29A C31A 1_555 1_555
H30A C31A 1_555 1_555
H31A C31A 1_555 1_555
C5 C6 1_555 1_555
C11 C12 1_555 1_555
C19 C20 1_555 1_555
C25 C26 1_555 1_555
C27 C28 1_555 1_555
C29 C30 1_555 1_555
P1A C13A 1_555 1_555
C5A C6A 1_555 1_555
C11A C12A 1_555 1_555
C19A C20A 1_555 1_555
C25A C26A 1_555 1_555
C27A C28A 1_555 1_555
C29A C30A 1_555 1_555

#END
