
#######################################################################
#
#                 Cambridge Crystallographic Data Centre
#                                CCDC 
#
#######################################################################
#
# If this CIF has been generated from an entry in the Cambridge 
# Structural Database, then it will include bibliographic, chemical, 
# crystal, experimental, refinement or atomic coordinate data resulting 
# from the CCDC's data processing and validation procedures.
#
#######################################################################

data_BUTTUG
_symmetry_cell_setting           monoclinic
_symmetry_space_group_name_H-M   'C 2/c'
_symmetry_Int_Tables_number      15
_space_group_name_Hall           '-C 2yn'
loop_
_symmetry_equiv_pos_site_id
_symmetry_equiv_pos_as_xyz
1 x,y,z
2 -x,y,1/2-z
3 1/2+x,1/2+y,z
4 1/2-x,1/2+y,1/2-z
5 -x,-y,-z
6 x,-y,1/2+z
7 1/2-x,1/2-y,-z
8 1/2+x,1/2-y,1/2+z
_cell_length_a                   16.161(3)
_cell_length_b                   8.5138(13)
_cell_length_c                   16.893(3)
_cell_angle_alpha                90
_cell_angle_beta                 114.057(3)
_cell_angle_gamma                90
_cell_volume                     2122.44
loop_
_atom_site_label
_atom_site_type_symbol
_atom_site_fract_x
_atom_site_fract_y
_atom_site_fract_z
U1 U 0.7500 0.2500 0.5000
S1 S 0.81074(8) 0.57488(12) 0.40122(7)
O1 O 0.6512(2) 0.3088(4) 0.5111(2)
O2 O 0.8429(2) 0.4246(3) 0.62630(18)
O3 O 0.8250(2) 0.1885(4) 0.6608(2)
O4 O 0.8985(2) 0.3557(4) 0.7623(2)
O5 O 0.7718(2) 0.5124(3) 0.46453(18)
N1 N 0.8570(3) 0.3233(5) 0.6864(2)
C1 C 0.9843(3) 0.5566(5) 0.5255(3)
H1 H 1.0368 0.6149 0.5659
H2 H 0.9591 0.4963 0.5599
C2 C 0.9135(3) 0.6731(5) 0.4694(3)
H3 H 0.9373 0.7314 0.4332
H4 H 0.9004 0.7486 0.5066
C3 C 0.7432(4) 0.7453(4) 0.3546(4)
H5 H 0.7394 0.8108 0.4006
H6 H 0.7718 0.8073 0.3237
C4 C 0.6480(3) 0.6960(6) 0.2916(3)
H7 H 0.6248 0.6173 0.3198
H8 H 0.6078 0.7876 0.2785
C5 C 0.6450(3) 0.6287(5) 0.2077(3)
H9 H 0.6908 0.5458 0.2209
H10 H 0.6604 0.7115 0.1757
C6 C 0.5531(3) 0.5613(6) 0.1508(3)
H11 H 0.5547 0.5207 0.0977
H12 H 0.5076 0.6431 0.1368
H13 H 0.5383 0.4770 0.1814
U1B U 1.2500 0.7500 0.5000
S1D S 1.18926(8) 0.42512(12) 0.59878(7)
O1F O 0.8488(2) 0.1912(4) 0.4889(2)
O2F O 0.6571(2) 0.0754(3) 0.37370(18)
O3F O 0.6750(2) 0.3115(4) 0.3392(2)
O4F O 0.6015(2) 0.1443(4) 0.2377(2)
O5D O 1.2282(2) 0.4876(3) 0.53547(18)
O5F O 0.7282(2) -0.0124(3) 0.53547(18)
N1F N 0.6430(3) 0.1767(5) 0.3136(2)
C1D C 1.0157(3) 0.4434(5) 0.4745(3)
H1D H 0.9632 0.3851 0.4341
H2D H 1.0409 0.5037 0.4401
C2D C 1.0865(3) 0.3269(5) 0.5306(3)
H3D H 1.0627 0.2686 0.5668
H4D H 1.0996 0.2514 0.4934
C3D C 1.2568(4) 0.2547(4) 0.6454(4)
H5D H 1.2606 0.1892 0.5994
H6D H 1.2282 0.1927 0.6763
C4D C 1.3520(3) 0.3040(6) 0.7084(3)
H7D H 1.3752 0.3827 0.6802
H8D H 1.3922 0.2124 0.7215
C5D C 1.3550(3) 0.3713(5) 0.7923(3)
H9D H 1.3092 0.4542 0.7791
H10D H 1.3396 0.2885 0.8243
C6D C 1.4469(3) 0.4387(6) 0.8492(3)
H11D H 1.4453 0.4793 0.9023
H12D H 1.4924 0.3569 0.8632
H13D H 1.4617 0.5230 0.8186
loop_
_geom_bond_atom_site_label_1
_geom_bond_atom_site_label_2
_geom_bond_site_symmetry_1
_geom_bond_site_symmetry_2
U1 O1 1_555 1_555
S1 O5 1_555 1_555
O2 U1 1_555 1_555
O3 U1 1_555 1_555
O4 N1 1_555 1_555
O5 U1 1_555 1_555
N1 O2 1_555 1_555
C1 H1 1_555 1_555
H2 C1 1_555 1_555
C2 S1 1_555 1_555
H3 C2 1_555 1_555
H4 C2 1_555 1_555
C3 S1 1_555 1_555
H5 C3 1_555 1_555
H6 C3 1_555 1_555
C4 C3 1_555 1_555
H7 C4 1_555 1_555
H8 C4 1_555 1_555
C5 C4 1_555 1_555
H9 C5 1_555 1_555
H10 C5 1_555 1_555
C6 C5 1_555 1_555
H11 C6 1_555 1_555
H12 C6 1_555 1_555
H13 C6 1_555 1_555
U1B O5D 1_555 1_555
S1D O5D 1_555 1_555
O1F U1 1_555 1_555
O2F U1 1_555 1_555
O3F U1 1_555 1_555
O4F N1F 1_555 1_555
O5F U1 1_555 1_555
N1F O2F 1_555 1_555
C1D C1 1_555 1_555
H1D C1D 1_555 1_555
H2D C1D 1_555 1_555
C2D S1D 1_555 1_555
H3D C2D 1_555 1_555
H4D C2D 1_555 1_555
C3D S1D 1_555 1_555
H5D C3D 1_555 1_555
H6D C3D 1_555 1_555
C4D C3D 1_555 1_555
H7D C4D 1_555 1_555
H8D C4D 1_555 1_555
C5D C4D 1_555 1_555
H9D C5D 1_555 1_555
H10D C5D 1_555 1_555
C6D C5D 1_555 1_555
H11D C6D 1_555 1_555
H12D C6D 1_555 1_555
H13D C6D 1_555 1_555
O3 N1 1_555 1_555
C1 C2 1_555 1_555
O3F N1F 1_555 1_555
C1D C2D 1_555 1_555

#END
