
#######################################################################
#
#                 Cambridge Crystallographic Data Centre
#                                CCDC 
#
#######################################################################
#
# If this CIF has been generated from an entry in the Cambridge 
# Structural Database, then it will include bibliographic, chemical, 
# crystal, experimental, refinement or atomic coordinate data resulting 
# from the CCDC's data processing and validation procedures.
#
#######################################################################

data_BUTXIY
_symmetry_cell_setting           orthorhombic
_symmetry_space_group_name_H-M   'P m n 21'
_symmetry_Int_Tables_number      31
_space_group_name_Hall           'P 2ac -2'
loop_
_symmetry_equiv_pos_site_id
_symmetry_equiv_pos_as_xyz
1 x,y,z
2 1/2-x,-y,1/2+z
3 1/2+x,-y,1/2+z
4 -x,y,z
_cell_length_a                   13.619(3)
_cell_length_b                   4.2558(9)
_cell_length_c                   10.323(2)
_cell_angle_alpha                90
_cell_angle_beta                 90
_cell_angle_gamma                90
_cell_volume                     598.318
loop_
_atom_site_label
_atom_site_type_symbol
_atom_site_fract_x
_atom_site_fract_y
_atom_site_fract_z
Pb1 Pb 1.0000 0.81282(6) 0.7500
N1 N 0.9115(9) 0.722(2) 0.9799(11)
C1 C 0.8270(7) 0.576(2) 1.0054(8)
H1 H 0.8077 0.4104 0.9526
C2 C 0.7663(8) 0.6636(19) 1.1085(10)
N2 N 0.7949(8) 0.908(3) 1.1954(10)
C3 C 0.9382(8) 0.952(4) 1.0629(11)
C4 C 0.8834(7) 1.043(3) 1.1724(11)
H2 H 0.9078 1.1942 1.2287
O1 O 0.6536(7) 0.238(2) 1.0665(10)
C5 C 0.6705(6) 0.489(3) 1.1300(8)
O2 O 0.6123(5) 0.6075(19) 1.2162(7)
Pb1A Pb 0.5000 0.18718(6) 1.2500
Pb1A_2 Pb 0.5000 1.18718(6) 1.2500
Pb1A_3 Pb 1.5000 0.18718(6) 1.2500
Pb1A_4 Pb 1.5000 1.18718(6) 1.2500
N1C N 1.0885(9) 0.722(2) 0.9799(11)
C1C C 1.1730(7) 0.576(2) 1.0054(8)
H1C H 1.1923 0.4104 0.9526
C2C C 1.2337(8) 0.6636(19) 1.1085(10)
N2C N 1.2051(8) 0.908(3) 1.1954(10)
C3C C 1.0618(8) 0.952(4) 1.0629(11)
C4C C 1.1166(7) 1.043(3) 1.1724(11)
H2C H 1.0922 1.1942 1.2287
O1C O 1.3464(7) 0.238(2) 1.0665(10)
O1A O 0.8464(7) 0.762(2) 0.5665(10)
O1B O 1.1536(7) 0.762(2) 0.5665(10)
C5C C 1.3295(6) 0.489(3) 1.1300(8)
O2C O 1.3877(5) 0.6075(19) 1.2162(7)
O2A O 0.8877(5) 0.3925(19) 0.7162(7)
O2A_2 O 0.8877(5) 1.3925(19) 0.7162(7)
O2B O 1.1123(5) 0.3925(19) 0.7162(7)
O2B_2 O 1.1123(5) 1.3925(19) 0.7162(7)
loop_
_geom_bond_atom_site_label_1
_geom_bond_atom_site_label_2
_geom_bond_site_symmetry_1
_geom_bond_site_symmetry_2
Pb1 N1 1_555 1_555
N1 C1 1_555 1_555
C1 H1 1_555 1_555
C2 C1 1_555 1_555
N2 C2 1_555 1_555
C3 N1 1_555 1_555
C4 N2 1_555 1_555
H2 C4 1_555 1_555
O1 C5 1_555 1_555
C5 C2 1_555 1_555
O2 C5 1_555 1_555
Pb1A O1 1_555 1_555
Pb1A_2 O2 1_555 1_555
Pb1A_3 O1C 1_555 1_555
Pb1A_4 O2C 1_555 1_555
N1C Pb1 1_555 1_555
C1C N1C 1_555 1_555
H1C C1C 1_555 1_555
C2C C1C 1_555 1_555
N2C C2C 1_555 1_555
C3C C3 1_555 1_555
C4C N2C 1_555 1_555
H2C C4C 1_555 1_555
O1C C5C 1_555 1_555
O1A Pb1 1_555 1_555
O1B Pb1 1_555 1_555
C5C C2C 1_555 1_555
O2C Pb1A_3 1_555 1_555
O2A Pb1 1_555 1_555
O2A_2 Pb1 1_555 1_555
O2B Pb1 1_555 1_555
O2B_2 Pb1 1_555 1_555
C3 C4 1_555 1_555
O2 Pb1A 1_555 1_555
N1C C3C 1_555 1_555
C3C C4C 1_555 1_555
C5C O2C 1_555 1_555

#END
