
#######################################################################
#
#                 Cambridge Crystallographic Data Centre
#                                CCDC 
#
#######################################################################
#
# If this CIF has been generated from an entry in the Cambridge 
# Structural Database, then it will include bibliographic, chemical, 
# crystal, experimental, refinement or atomic coordinate data resulting 
# from the CCDC's data processing and validation procedures.
#
#######################################################################

data_BUVMIP
_symmetry_cell_setting           triclinic
_symmetry_space_group_name_H-M   'P -1'
_symmetry_Int_Tables_number      2
_space_group_name_Hall           '-P 1'
loop_
_symmetry_equiv_pos_site_id
_symmetry_equiv_pos_as_xyz
1 x,y,z
2 -x,-y,-z
_cell_length_a                   6.4218(6)
_cell_length_b                   13.1474(2)
_cell_length_c                   13.95590(10)
_cell_angle_alpha                65.054(11)
_cell_angle_beta                 85.539(14)
_cell_angle_gamma                86.710(13)
_cell_volume                     1064.74
loop_
_atom_site_label
_atom_site_type_symbol
_atom_site_fract_x
_atom_site_fract_y
_atom_site_fract_z
Pd1 Pd 1.0000 1.0000 0.0000
Pd2 Pd 0.5000 1.0000 1.0000
K1 K 0.90761(15) 0.63443(7) 0.67441(6)
O1 O 1.0523(5) 0.8379(2) 0.0895(2)
O2 O 1.0731(5) 0.7161(2) 0.2569(2)
O3 O 0.7419(6) 0.7148(3) 0.4124(2)
O4 O 1.0077(5) 0.7481(2) 0.4893(2)
O5 O 0.5478(5) 1.0136(2) 0.8521(2)
O6 O 0.6287(5) 0.9125(3) 0.7603(2)
O7 O 0.8673(5) 0.6782(2) 0.8261(2)
O8 O 0.5240(6) 0.6514(3) 0.8409(2)
O9 O 0.6899(6) 0.8079(3) 0.6149(3)
H1 H 0.589(6) 0.826(4) 0.576(4)
H2 H 0.659(9) 0.838(4) 0.654(4)
O10 O 0.6133(5) 0.5823(3) 0.6092(2)
H3 H 0.611(9) 0.517(3) 0.613(4)
H4 H 0.651(9) 0.627(4) 0.548(3)
O11 O 1.1084(6) 0.5101(3) 0.6039(3)
H5 H 1.121(9) 0.444(3) 0.612(4)
H6 H 1.180(9) 0.551(4) 0.549(3)
O12 O 1.2609(6) 0.6600(3) 0.6915(3)
H7 H 1.336(8) 0.637(4) 0.653(4)
H8 H 1.325(8) 0.675(5) 0.732(4)
O13 O 0.8708(6) 0.4556(3) 0.8121(2)
H9 H 0.850(10) 0.429(4) 0.877(2)
N1 N 0.9493(6) 1.0059(3) 0.1403(3)
N2 N 0.5670(6) 0.8391(3) 1.0351(3)
C1 C 1.0325(7) 0.8111(4) 0.1902(3)
C2 C 0.9001(8) 1.0972(4) 0.1580(4)
H16 H 0.8941 1.1689 0.0999
C3 C 0.8579(8) 1.0878(4) 0.2604(4)
H17 H 0.8295 1.1532 0.2728
C4 C 0.8574(8) 0.9834(4) 0.3440(4)
H18 H 0.8237 0.9761 0.4140
C5 C 0.9066(7) 0.8878(4) 0.3254(3)
C6 C 0.9582(8) 0.9037(4) 0.2225(3)
C7 C 0.8865(8) 0.7736(4) 0.4160(3)
C8 C 0.6067(7) 0.8180(4) 0.9480(3)
C9 C 0.6570(8) 0.7087(4) 0.9605(3)
C10 C 0.6695(8) 0.6247(4) 1.0617(3)
H19 H 0.7064 0.5501 1.0713
C11 C 0.6286(8) 0.6487(4) 1.1489(3)
H20 H 0.6362 0.5911 1.2185
C12 C 0.5765(8) 0.7579(4) 1.1328(3)
H21 H 0.5471 0.7753 1.1921
C13 C 0.5948(7) 0.9195(4) 0.8444(3)
C14 C 0.6867(8) 0.6785(4) 0.8667(3)
Pd2_2 Pd 1.5000 1.0000 -1.0000
K1A K 1.09239(15) 1.36557(7) -0.67441(6)
O1A O 0.9477(5) 1.1621(2) -0.0895(2)
O2A O 0.9269(5) 1.2839(2) -0.2569(2)
O3A O 1.2581(6) 1.2852(3) -0.4124(2)
O4A O 0.9923(5) 1.2519(2) -0.4893(2)
O5A O 1.4522(5) 0.9864(2) -0.8521(2)
O5A_2 O 0.4522(5) 0.9864(2) 1.1479(2)
O6A O 1.3713(5) 1.0875(3) -0.7603(2)
O7A O 1.1327(5) 1.3218(2) -0.8261(2)
O8A O 1.4760(6) 1.3486(3) -0.8409(2)
O9A O 1.3101(6) 1.1921(3) -0.6149(3)
H1A H 1.411(6) 1.174(4) -0.576(4)
H2A H 1.341(9) 1.162(4) -0.654(4)
O10A O 1.3867(5) 1.4177(3) -0.6092(2)
H3A H 1.389(9) 1.483(3) -0.613(4)
H4A H 1.349(9) 1.373(4) -0.548(3)
O11A O 0.8916(6) 1.4899(3) -0.6039(3)
H5A H 0.879(9) 1.556(3) -0.612(4)
H6A H 0.820(9) 1.449(4) -0.549(3)
O12A O 0.7391(6) 1.3400(3) -0.6915(3)
H7A H 0.664(8) 1.363(4) -0.653(4)
H8A H 0.675(8) 1.325(5) -0.732(4)
O13A O 1.1292(6) 1.5444(3) -0.8121(2)
H9A H 1.150(10) 1.571(4) -0.877(2)
N1A N 1.0507(6) 0.9941(3) -0.1403(3)
N2A N 1.4330(6) 1.1609(3) -1.0351(3)
N2A_2 N 0.4330(6) 1.1609(3) 0.9649(3)
C1A C 0.9675(7) 1.1889(4) -0.1902(3)
C2A C 1.0999(8) 0.9028(4) -0.1580(4)
H16A H 1.1059 0.8311 -0.0999
C3A C 1.1421(8) 0.9122(4) -0.2604(4)
H17A H 1.1705 0.8468 -0.2728
C4A C 1.1426(8) 1.0166(4) -0.3440(4)
H18A H 1.1763 1.0239 -0.4140
C5A C 1.0934(7) 1.1122(4) -0.3254(3)
C6A C 1.0418(8) 1.0963(4) -0.2225(3)
C7A C 1.1135(8) 1.2264(4) -0.4160(3)
C8A C 1.3933(7) 1.1820(4) -0.9480(3)
C9A C 1.3430(8) 1.2913(4) -0.9605(3)
C10A C 1.3305(8) 1.3753(4) -1.0617(3)
H19A H 1.2936 1.4499 -1.0713
C11A C 1.3714(8) 1.3513(4) -1.1489(3)
H20A H 1.3638 1.4089 -1.2185
C12A C 1.4235(8) 1.2421(4) -1.1328(3)
H21A H 1.4529 1.2247 -1.1921
C13A C 1.4052(7) 1.0805(4) -0.8444(3)
C14A C 1.3133(8) 1.3215(4) -0.8667(3)
O14 O 0.3677(6) 0.6205(3) 0.4030(3)
H10 H 0.469(7) 0.653(5) 0.409(4)
H11 H 0.282(8) 0.660(4) 0.361(4)
O15 O 0.1708(6) 0.6167(3) 0.9740(3)
H12 H 0.283(7) 0.626(5) 0.934(4)
H13 H 0.078(7) 0.624(5) 0.931(4)
O16 O 0.6350(7) 0.1116(3) 0.5303(3)
H14 H 0.740(8) 0.150(5) 0.523(5)
H15 H 0.619(12) 0.062(4) 0.591(3)
loop_
_geom_bond_atom_site_label_1
_geom_bond_atom_site_label_2
_geom_bond_site_symmetry_1
_geom_bond_site_symmetry_2
Pd1 O1 1_555 1_555
Pd2 O5 1_555 1_555
K1 O4 1_555 1_555
O1 C1 1_555 1_555
O2 C1 1_555 1_555
O3 C7 1_555 1_555
O4 C7 1_555 1_555
O5 C13 1_555 1_555
O6 C13 1_555 1_555
O7 K1 1_555 1_555
O8 C14 1_555 1_555
O9 K1 1_555 1_555
H1 O9 1_555 1_555
H2 O9 1_555 1_555
O10 K1 1_555 1_555
H3 O10 1_555 1_555
H4 O10 1_555 1_555
O11 K1 1_555 1_555
H5 O11 1_555 1_555
H6 O11 1_555 1_555
O12 K1 1_555 1_555
H7 O12 1_555 1_555
H8 O12 1_555 1_555
O13 K1 1_555 1_555
H9 O13 1_555 1_555
O14 H10 1_555 1_555
H11 O14 1_555 1_555
O15 H12 1_555 1_555
H13 O15 1_555 1_555
O16 H14 1_555 1_555
H15 O16 1_555 1_555
N1 Pd1 1_555 1_555
N2 Pd2 1_555 1_555
C1 C6 1_555 1_555
C2 N1 1_555 1_555
H16 C2 1_555 1_555
C3 C2 1_555 1_555
H17 C3 1_555 1_555
C4 C3 1_555 1_555
H18 C4 1_555 1_555
C5 C4 1_555 1_555
C6 N1 1_555 1_555
C7 C5 1_555 1_555
C8 N2 1_555 1_555
C9 C8 1_555 1_555
C10 C9 1_555 1_555
H19 C10 1_555 1_555
C11 C10 1_555 1_555
H20 C11 1_555 1_555
C12 N2 1_555 1_555
H21 C12 1_555 1_555
C13 C8 1_555 1_555
C14 O7 1_555 1_555
Pd2_2 O5A 1_555 1_555
K1A O4A 1_555 1_555
O1A Pd1 1_555 1_555
O2A C1A 1_555 1_555
O3A C7A 1_555 1_555
O4A C7A 1_555 1_555
O5A C13A 1_555 1_555
O5A_2 Pd2 1_555 1_555
O6A C13A 1_555 1_555
O7A K1A 1_555 1_555
O8A C14A 1_555 1_555
O9A K1A 1_555 1_555
H1A O9A 1_555 1_555
H2A O9A 1_555 1_555
O10A K1A 1_555 1_555
H3A O10A 1_555 1_555
H4A O10A 1_555 1_555
O11A K1A 1_555 1_555
H5A O11A 1_555 1_555
H6A O11A 1_555 1_555
O12A K1A 1_555 1_555
H7A O12A 1_555 1_555
H8A O12A 1_555 1_555
O13A K1A 1_555 1_555
H9A O13A 1_555 1_555
N1A Pd1 1_555 1_555
N2A Pd2_2 1_555 1_555
N2A_2 Pd2 1_555 1_555
C1A O1A 1_555 1_555
C2A N1A 1_555 1_555
H16A C2A 1_555 1_555
C3A C2A 1_555 1_555
H17A C3A 1_555 1_555
C4A C3A 1_555 1_555
H18A C4A 1_555 1_555
C5A C4A 1_555 1_555
C6A N1A 1_555 1_555
C7A C5A 1_555 1_555
C8A N2A 1_555 1_555
C9A C8A 1_555 1_555
C10A C9A 1_555 1_555
H19A C10A 1_555 1_555
C11A C10A 1_555 1_555
H20A C11A 1_555 1_555
C12A N2A 1_555 1_555
H21A C12A 1_555 1_555
C13A C8A 1_555 1_555
C14A O7A 1_555 1_555
C5 C6 1_555 1_555
C9 C14 1_555 1_555
C11 C12 1_555 1_555
C1A C6A 1_555 1_555
C5A C6A 1_555 1_555
C9A C14A 1_555 1_555
C11A C12A 1_555 1_555

#END
