
#######################################################################
#
#                 Cambridge Crystallographic Data Centre
#                                CCDC 
#
#######################################################################
#
# If this CIF has been generated from an entry in the Cambridge 
# Structural Database, then it will include bibliographic, chemical, 
# crystal, experimental, refinement or atomic coordinate data resulting 
# from the CCDC's data processing and validation procedures.
#
#######################################################################

data_BUVQOZ
_symmetry_cell_setting           monoclinic
_symmetry_space_group_name_H-M   'P 21/n'
_symmetry_Int_Tables_number      14
_space_group_name_Hall           '-P 2yn'
loop_
_symmetry_equiv_pos_site_id
_symmetry_equiv_pos_as_xyz
1 x,y,z
2 1/2-x,1/2+y,1/2-z
3 -x,-y,-z
4 1/2+x,1/2-y,1/2+z
_cell_length_a                   9.6572(4)
_cell_length_b                   6.6740(2)
_cell_length_c                   11.6097(3)
_cell_angle_alpha                90
_cell_angle_beta                 112.264(2)
_cell_angle_gamma                90
_cell_volume                     692.485
loop_
_atom_site_label
_atom_site_type_symbol
_atom_site_fract_x
_atom_site_fract_y
_atom_site_fract_z
C1 C 0.83008(11) 0.09779(16) -0.53119(9)
C2 C 0.84846(12) 0.08745(16) -0.39700(10)
H1 H 0.9426 0.0995 -0.334
C3 C 0.72825(12) 0.06090(17) -0.36990(10)
H2 H 0.6376 0.0404 -0.4359
C4 C 0.60481(12) 0.05333(17) -0.21980(10)
H3 H 0.5066 0.0497 -0.2772
C5 C 0.79788(12) 0.05927(18) -0.05460(10)
H4 H 0.8579 0.0601 0.0298
Co1 Co 0.50000 0.00000 0.00000
N1 N 0.85360(10) 0.06557(16) -0.14232(9)
N2 N 0.72681(10) 0.06125(15) -0.24875(8)
N3 N 0.64530(10) 0.05147(14) -0.09742(9)
O1 O 0.73104(9) -0.01114(12) -0.60854(7)
O2 O 0.91256(9) 0.21599(12) -0.56077(7)
O3 O 0.66917(10) 0.12054(14) 0.15539(8)
H5 H 0.6962(17) 0.089(3) 0.2285(13)
H6 H 0.7048(18) 0.227(2) 0.1495(16)
C1B C 0.16992(11) -0.09779(16) 0.53119(9)
C2B C 0.15154(12) -0.08745(16) 0.39700(10)
H1B H 0.0574 -0.0995 0.334
C3B C 0.27175(12) -0.06090(17) 0.36990(10)
H2B H 0.3624 -0.0404 0.4359
C4B C 0.39519(12) -0.05333(17) 0.21980(10)
H3B H 0.4934 -0.0497 0.2772
C5B C 0.20212(12) -0.05927(18) 0.05460(10)
H4B H 0.1421 -0.0601 -0.0298
Co1A Co 0.00000 -0.50000 0.50000
Co1A_2 Co 1.00000 0.50000 -0.50000
N1B N 0.14640(10) -0.06557(16) 0.14232(9)
N2B N 0.27319(10) -0.06125(15) 0.24875(8)
N3B N 0.35470(10) -0.05147(14) 0.09742(9)
O1B O 0.26896(9) 0.01114(12) 0.60854(7)
O2B O 0.08744(9) -0.21599(12) 0.56077(7)
O2A O 0.58744(9) -0.28401(12) 0.06077(7)
O2C O 0.41256(9) 0.28401(12) -0.06077(7)
O3B O 0.33083(10) -0.12054(14) -0.15539(8)
H5B H 0.3038(17) -0.089(3) -0.2285(13)
H6B H 0.2952(18) -0.227(2) -0.1495(16)
loop_
_geom_bond_atom_site_label_1
_geom_bond_atom_site_label_2
_geom_bond_site_symmetry_1
_geom_bond_site_symmetry_2
C1 C2 1_555 1_555
C2 H1 1_555 1_555
C3 C2 1_555 1_555
H2 C3 1_555 1_555
C4 H3 1_555 1_555
C5 H4 1_555 1_555
Co1 N3 1_555 1_555
N1 C5 1_555 1_555
N2 C3 1_555 1_555
N3 C4 1_555 1_555
O1 C1 1_555 1_555
O2 C1 1_555 1_555
O3 Co1 1_555 1_555
H5 O3 1_555 1_555
H6 O3 1_555 1_555
C1B C2B 1_555 1_555
C2B H1B 1_555 1_555
C3B C2B 1_555 1_555
H2B C3B 1_555 1_555
C4B H3B 1_555 1_555
C5B H4B 1_555 1_555
Co1A O2B 1_555 1_555
Co1A_2 O2 1_555 1_555
N1B C5B 1_555 1_555
N2B C3B 1_555 1_555
N3B Co1 1_555 1_555
O1B C1B 1_555 1_555
O2B C1B 1_555 1_555
O2A Co1 1_555 1_555
O2C Co1 1_555 1_555
O3B Co1 1_555 1_555
H5B O3B 1_555 1_555
H6B O3B 1_555 1_555
C4 N2 1_555 1_555
C5 N3 1_555 1_555
N1 N2 1_555 1_555
C4B N2B 1_555 1_555
C4B N3B 1_555 1_555
C5B N3B 1_555 1_555
N1B N2B 1_555 1_555

#END
