
#######################################################################
#
#                 Cambridge Crystallographic Data Centre
#                                CCDC 
#
#######################################################################
#
# If this CIF has been generated from an entry in the Cambridge 
# Structural Database, then it will include bibliographic, chemical, 
# crystal, experimental, refinement or atomic coordinate data resulting 
# from the CCDC's data processing and validation procedures.
#
#######################################################################

data_BUVQIT
_symmetry_cell_setting           orthorhombic
_symmetry_space_group_name_H-M   'F 2 d d'
_symmetry_Int_Tables_number      43
_space_group_name_Hall           'F -2d 2'
loop_
_symmetry_equiv_pos_site_id
_symmetry_equiv_pos_as_xyz
1 x,y,z
2 1/4+x,1/4+y,1/4-z
3 x,-y,-z
4 1/4+x,1/4-y,1/4+z
5 x,1/2+y,1/2+z
6 1/4+x,3/4+y,3/4-z
7 x,1/2-y,1/2-z
8 1/4+x,3/4-y,3/4+z
9 1/2+x,y,1/2+z
10 3/4+x,1/4+y,3/4-z
11 1/2+x,-y,1/2-z
12 3/4+x,1/4-y,3/4+z
13 1/2+x,1/2+y,z
14 3/4+x,3/4+y,1/4-z
15 1/2+x,1/2-y,-z
16 3/4+x,3/4-y,1/4+z
_cell_length_a                   11.3027(4)
_cell_length_b                   14.7218(11)
_cell_length_c                   15.2213(10)
_cell_angle_alpha                90
_cell_angle_beta                 90
_cell_angle_gamma                90
_cell_volume                     2532.76
loop_
_atom_site_label
_atom_site_type_symbol
_atom_site_fract_x
_atom_site_fract_y
_atom_site_fract_z
C1 C 2.51749(11) 0.90314(8) 1.10196(7)
C2 C 2.45047(12) 0.98953(8) 1.10979(9)
H1 H 2.4789 1.0414 1.0821
C3 C 2.35095(13) 0.99402(9) 1.15556(9)
H2 H 2.3261 0.9424 1.1856
C4 C 2.21277(13) 1.20188(10) 1.13375(9)
H3 H 2.2023 1.2596 1.1101
C5 C 2.18327(12) 1.08484(9) 1.21020(9)
H4 H 2.1527 1.0424 1.2494
Mn1 Mn 1.98287(2) 1.25000 1.25000
N1 N 2.28080(10) 1.07289(7) 1.16112(8)
N2 N 2.30136(11) 1.14885(8) 1.11117(9)
N3 N 2.13716(10) 1.16573(7) 1.19464(7)
O1 O 2.47385(9) 0.83118(6) 1.13410(5)
O2 O 2.61466(8) 0.90477(5) 1.06139(6)
C1F C 2.51749(11) 1.59686(8) 1.39804(7)
C2F C 2.45047(12) 1.51047(8) 1.39021(9)
H1F H 2.4789 1.4586 1.4179
C3F C 2.35095(13) 1.50598(9) 1.34444(9)
H2F H 2.3261 1.5576 1.3144
C4F C 2.21277(13) 1.29812(10) 1.36625(9)
H3F H 2.2023 1.2404 1.3899
C5F C 2.18327(12) 1.41516(9) 1.28980(9)
H4F H 2.1527 1.4576 1.2506
Mn1I Mn 2.73287(2) 1.50000 1.50000
Mn1J Mn 2.48287(2) 0.75000 1.25000
Mn1J_2 Mn 2.48287(2) 1.75000 1.25000
Mn1K Mn 2.73287(2) 1.00000 1.00000
N1F N 2.28080(10) 1.42711(7) 1.33888(8)
N2F N 2.30136(11) 1.35115(8) 1.38883(9)
N3F N 2.13716(10) 1.33427(7) 1.30536(7)
O1F O 2.47385(9) 1.66882(6) 1.36590(5)
O1J O 1.97385(9) 1.16882(6) 1.36590(5)
O1L O 1.97385(9) 1.33118(6) 1.13410(5)
O2F O 2.61466(8) 1.59523(5) 1.43861(6)
O2A O 1.86466(8) 1.15477(5) 1.18861(6)
O2C O 1.86466(8) 1.34523(5) 1.31139(6)
loop_
_geom_bond_atom_site_label_1
_geom_bond_atom_site_label_2
_geom_bond_site_symmetry_1
_geom_bond_site_symmetry_2
C1 C2 1_555 1_555
C2 H1 1_555 1_555
C3 C2 1_555 1_555
H2 C3 1_555 1_555
C4 H3 1_555 1_555
C5 H4 1_555 1_555
Mn1 N3 1_555 1_555
N1 C3 1_555 1_555
N2 C4 1_555 1_555
N3 C4 1_555 1_555
O1 C1 1_555 1_555
O2 C1 1_555 1_555
C1F C2F 1_555 1_555
C2F H1F 1_555 1_555
C3F C2F 1_555 1_555
H2F C3F 1_555 1_555
C4F H3F 1_555 1_555
C5F H4F 1_555 1_555
Mn1I O2F 1_555 1_555
Mn1J O1 1_555 1_555
Mn1J_2 O1F 1_555 1_555
Mn1K O2 1_555 1_555
N1F C3F 1_555 1_555
N2F C4F 1_555 1_555
N3F Mn1 1_555 1_555
O1F C1F 1_555 1_555
O1J Mn1 1_555 1_555
O1L Mn1 1_555 1_555
O2F C1F 1_555 1_555
O2A Mn1 1_555 1_555
O2C Mn1 1_555 1_555
C5 N1 1_555 1_555
C5 N3 1_555 1_555
N1 N2 1_555 1_555
C4F N3F 1_555 1_555
C5F N1F 1_555 1_555
C5F N3F 1_555 1_555
N1F N2F 1_555 1_555

#END
