
#######################################################################
#
#                 Cambridge Crystallographic Data Centre
#                                CCDC 
#
#######################################################################
#
# If this CIF has been generated from an entry in the Cambridge 
# Structural Database, then it will include bibliographic, chemical, 
# crystal, experimental, refinement or atomic coordinate data resulting 
# from the CCDC's data processing and validation procedures.
#
#######################################################################

data_BUVQUF
_symmetry_cell_setting           triclinic
_symmetry_space_group_name_H-M   'P -1'
_symmetry_Int_Tables_number      2
_space_group_name_Hall           '-P 1'
loop_
_symmetry_equiv_pos_site_id
_symmetry_equiv_pos_as_xyz
1 x,y,z
2 -x,-y,-z
_cell_length_a                   7.1423(14)
_cell_length_b                   9.659(2)
_cell_length_c                   9.9751(19)
_cell_angle_alpha                61.515(14)
_cell_angle_beta                 81.469(16)
_cell_angle_gamma                72.789(15)
_cell_volume                     577.744
loop_
_atom_site_label
_atom_site_type_symbol
_atom_site_fract_x
_atom_site_fract_y
_atom_site_fract_z
C1 C -0.1227(7) -0.5979(5) 0.2109(5)
C2 C -0.0907(7) -0.7188(5) 0.3744(5)
H1 H -0.1427 -0.8087 0.4172
C3 C 0.0144(7) -0.6954(5) 0.4586(5)
H2 H 0.0573 -0.6007 0.4124
C4 C 0.1105(7) -1.0112(6) 0.8214(5)
H3 H 0.1177 -1.1166 0.8987
C5 C 0.1343(7) -0.7709(6) 0.7085(5)
H4 H 0.1586 -0.672 0.6839
C6 C 0.3704(6) -0.4052(5) 0.2627(5)
C7 C 0.4095(7) -0.2796(5) 0.2951(5)
H5 H 0.4619 -0.3102 0.3881
C8 C 0.3690(6) -0.1262(5) 0.1908(5)
H6 H 0.3289 -0.1031 0.0962
C9 C 0.4249(7) 0.1419(5) 0.3104(5)
H7 H 0.4592 0.1708 0.3783
C10 C 0.3219(6) 0.1636(5) 0.1107(5)
H8 H 0.2714 0.2038 0.0146
N1 N 0.0643(5) -0.8027(4) 0.6103(4)
N2 N 0.0485(6) -0.9609(4) 0.6835(4)
N3 N 0.1633(6) -0.8987(5) 0.8435(4)
N4 N 0.3809(5) 0.0064(4) 0.2097(4)
N5 N 0.4478(6) -0.0101(4) 0.3407(4)
N6 N 0.3461(5) 0.2544(4) 0.1700(4)
O1 O -0.2355(5) -0.6190(4) 0.1391(3)
O2 O -0.0407(5) -0.4823(4) 0.1501(3)
O3 O 0.3369(5) -0.3581(4) 0.1214(3)
O4 O 0.3647(5) -0.5392(4) 0.3672(4)
Zn1 Zn 0.24409(8) -0.50552(6) 0.08644(5)
N6_2 N 0.3461(5) -0.7456(4) 0.1700(4)
O1A O 0.2355(5) -0.3810(4) -0.1391(3)
Zn1_2 Zn 0.24409(8) 0.49448(6) 0.08644(5)
Zn1A Zn -0.24409(8) -0.49448(6) -0.08644(5)
loop_
_geom_bond_atom_site_label_1
_geom_bond_atom_site_label_2
_geom_bond_site_symmetry_1
_geom_bond_site_symmetry_2
C1 C2 1_555 1_555
C2 H1 1_555 1_555
C3 C2 1_555 1_555
H2 C3 1_555 1_555
C4 H3 1_555 1_555
C5 H4 1_555 1_555
C6 C7 1_555 1_555
C7 H5 1_555 1_555
C8 C7 1_555 1_555
H6 C8 1_555 1_555
C9 H7 1_555 1_555
C10 H8 1_555 1_555
N1 C3 1_555 1_555
N2 C4 1_555 1_555
N3 C4 1_555 1_555
N4 C8 1_555 1_555
N5 C9 1_555 1_555
N6 C9 1_555 1_555
O1 C1 1_555 1_555
O2 C1 1_555 1_555
O3 C6 1_555 1_555
O4 C6 1_555 1_555
Zn1 O2 1_555 1_555
N6_2 Zn1 1_555 1_555
O1A Zn1 1_555 1_555
Zn1_2 N6 1_555 1_555
Zn1A O1 1_555 1_555
C5 N1 1_555 1_555
C5 N3 1_555 1_555
C10 N4 1_555 1_555
C10 N6 1_555 1_555
N1 N2 1_555 1_555
N4 N5 1_555 1_555
O3 Zn1 1_555 1_555

#END
