
#######################################################################
#
#                 Cambridge Crystallographic Data Centre
#                                CCDC 
#
#######################################################################
#
# If this CIF has been generated from an entry in the Cambridge 
# Structural Database, then it will include bibliographic, chemical, 
# crystal, experimental, refinement or atomic coordinate data resulting 
# from the CCDC's data processing and validation procedures.
#
#######################################################################

data_BUVWOF01
_symmetry_cell_setting           monoclinic
_symmetry_space_group_name_H-M   'P 21/n'
_symmetry_Int_Tables_number      14
_space_group_name_Hall           '-P 2yn'
loop_
_symmetry_equiv_pos_site_id
_symmetry_equiv_pos_as_xyz
1 x,y,z
2 1/2-x,1/2+y,1/2-z
3 -x,-y,-z
4 1/2+x,1/2-y,1/2+z
_cell_length_a                   8.8598(2)
_cell_length_b                   14.4118(4)
_cell_length_c                   9.0807(3)
_cell_angle_alpha                90
_cell_angle_beta                 104.708(3)
_cell_angle_gamma                90
_cell_volume                     1121.48
loop_
_atom_site_label
_atom_site_type_symbol
_atom_site_fract_x
_atom_site_fract_y
_atom_site_fract_z
Fe1 Fe 0.5000 0.0000 1.0000
N1 N 0.3421(2) 0.08490(14) 1.0372(2)
N2 N 0.3370(2) 0.15548(15) 1.1340(2)
N3 N 0.0934(2) 0.13466(13) 0.9794(2)
N4 N 0.3144(2) -0.04161(14) 0.8345(2)
N5 N 0.0539(2) 0.40434(14) 1.3545(2)
C1 C 0.1961(3) 0.07455(16) 0.9474(3)
C2 C 0.1863(3) 0.18314(17) 1.0949(3)
C3 C 0.1769(2) 0.0028(2) 0.8318(2)
C4 C 0.0373(3) -0.02044(17) 0.7296(3)
H1 H -0.0563 0.0111 0.7314
C5 C 0.0363(3) -0.09020(18) 0.6249(3)
H2 H -0.0581 -0.1075 0.5540
C6 C 0.1751(3) -0.13458(18) 0.6249(3)
H3 H 0.1772 -0.1823 0.5532
C7 C 0.3102(3) -0.10865(17) 0.7304(3)
H4 H 0.4046 -0.1396 0.7293
C8 C 0.1362(3) 0.26046(17) 1.1764(3)
C9 C -0.0183(3) 0.28588(17) 1.1614(3)
H5 H -0.0997 0.2553 1.0894
C10 C -0.0529(3) 0.35582(17) 1.2516(3)
H6 H -0.1598 0.3707 1.2400
C11 C 0.2040(3) 0.38204(17) 1.3630(3)
H7 H 0.2837 0.4165 1.4306
C12 C 0.2481(3) 0.31215(17) 1.2792(3)
H8 H 0.3557 0.2991 1.2917
Fe1A Fe 0.0000 0.5000 1.5000
Fe1A_2 Fe 1.0000 -0.5000 0.5000
N1B N 0.6579(2) -0.08490(14) 0.9628(2)
N2B N 0.6630(2) -0.15548(15) 0.8660(2)
N3B N 0.9066(2) -0.13466(13) 1.0206(2)
N4B N 0.6856(2) 0.04161(14) 1.1655(2)
N5B N 0.9461(2) -0.40434(14) 0.6455(2)
N5A N 0.4461(2) -0.09566(14) 1.1455(2)
N5C N 0.5539(2) 0.09566(14) 0.8545(2)
C1B C 0.8039(3) -0.07455(16) 1.0526(3)
C2B C 0.8137(3) -0.18314(17) 0.9051(3)
C3B C 0.8231(2) -0.0028(2) 1.1682(2)
C4B C 0.9627(3) 0.02044(17) 1.2704(3)
H1B H 1.0563 -0.0111 1.2686
C5B C 0.9637(3) 0.09020(18) 1.3751(3)
H2B H 1.0581 0.1075 1.4460
C6B C 0.8249(3) 0.13458(18) 1.3751(3)
H3B H 0.8228 0.1823 1.4468
C7B C 0.6898(3) 0.10865(17) 1.2696(3)
H4B H 0.5954 0.1396 1.2707
C8B C 0.8638(3) -0.26046(17) 0.8236(3)
C9B C 1.0183(3) -0.28588(17) 0.8386(3)
H5B H 1.0997 -0.2553 0.9106
C10B C 1.0529(3) -0.35582(17) 0.7484(3)
H6B H 1.1598 -0.3707 0.7600
C11B C 0.7960(3) -0.38204(17) 0.6370(3)
H7B H 0.7163 -0.4165 0.5694
C12B C 0.7519(3) -0.31215(17) 0.7208(3)
H8B H 0.6443 -0.2991 0.7083
loop_
_geom_bond_atom_site_label_1
_geom_bond_atom_site_label_2
_geom_bond_site_symmetry_1
_geom_bond_site_symmetry_2
Fe1 N1 1_555 1_555
N1 N2 1_555 1_555
N2 C2 1_555 1_555
N3 C1 1_555 1_555
N4 Fe1 1_555 1_555
N5 C10 1_555 1_555
C1 N1 1_555 1_555
C2 N3 1_555 1_555
C3 N4 1_555 1_555
C4 C3 1_555 1_555
H1 C4 1_555 1_555
C5 C4 1_555 1_555
H2 C5 1_555 1_555
C6 C5 1_555 1_555
H3 C6 1_555 1_555
C7 N4 1_555 1_555
H4 C7 1_555 1_555
C8 C2 1_555 1_555
C9 C8 1_555 1_555
H5 C9 1_555 1_555
C10 C9 1_555 1_555
H6 C10 1_555 1_555
C11 N5 1_555 1_555
H7 C11 1_555 1_555
C12 C8 1_555 1_555
H8 C12 1_555 1_555
Fe1A N5 1_555 1_555
Fe1A_2 N5B 1_555 1_555
N1B Fe1 1_555 1_555
N2B N1B 1_555 1_555
N3B C1B 1_555 1_555
N4B Fe1 1_555 1_555
N5B C10B 1_555 1_555
N5A Fe1 1_555 1_555
N5C Fe1 1_555 1_555
C1B N1B 1_555 1_555
C2B N2B 1_555 1_555
C3B N4B 1_555 1_555
C4B C3B 1_555 1_555
H1B C4B 1_555 1_555
C5B C4B 1_555 1_555
H2B C5B 1_555 1_555
C6B C5B 1_555 1_555
H3B C6B 1_555 1_555
C7B N4B 1_555 1_555
H4B C7B 1_555 1_555
C8B C2B 1_555 1_555
C9B C8B 1_555 1_555
H5B C9B 1_555 1_555
C10B C9B 1_555 1_555
H6B C10B 1_555 1_555
C11B N5B 1_555 1_555
H7B C11B 1_555 1_555
C12B C8B 1_555 1_555
H8B C12B 1_555 1_555
C1 C3 1_555 1_555
C6 C7 1_555 1_555
C11 C12 1_555 1_555
N3B C2B 1_555 1_555
C1B C3B 1_555 1_555
C6B C7B 1_555 1_555
C11B C12B 1_555 1_555

#END
