
#######################################################################
#
#                 Cambridge Crystallographic Data Centre
#                                CCDC 
#
#######################################################################
#
# If this CIF has been generated from an entry in the Cambridge 
# Structural Database, then it will include bibliographic, chemical, 
# crystal, experimental, refinement or atomic coordinate data resulting 
# from the CCDC's data processing and validation procedures.
#
#######################################################################

data_BUVWOF
_symmetry_cell_setting           monoclinic
_symmetry_space_group_name_H-M   'P 21/n'
_symmetry_Int_Tables_number      14
_space_group_name_Hall           '-P 2yn'
loop_
_symmetry_equiv_pos_site_id
_symmetry_equiv_pos_as_xyz
1 x,y,z
2 1/2-x,1/2+y,1/2-z
3 -x,-y,-z
4 1/2+x,1/2-y,1/2+z
_cell_length_a                   8.9558(10)
_cell_length_b                   14.7720(17)
_cell_length_c                   9.1803(13)
_cell_angle_alpha                90
_cell_angle_beta                 107.028(4)
_cell_angle_gamma                90
_cell_volume                     1161.27
loop_
_atom_site_label
_atom_site_type_symbol
_atom_site_fract_x
_atom_site_fract_y
_atom_site_fract_z
Fe1 Fe 0.0000 0.5000 1.5000
N1 N 0.02631(19) 0.41101(10) 1.33458(18)
N2 N 0.11817(19) 0.33912(11) 1.32988(18)
N3 N -0.03790(19) 0.36630(11) 1.09082(18)
N4 N -0.18082(19) 0.54433(11) 1.29089(19)
N5 N 0.3264(2) 0.09725(11) 1.05272(19)
C1 C -0.0648(2) 0.42488(12) 1.1915(2)
C2 C 0.0766(2) 0.31448(12) 1.1832(2)
C3 C -0.1787(2) 0.49898(12) 1.1636(2)
C4 C -0.2744(3) 0.52217(15) 1.0207(3)
H1 H -0.2701 0.4902 0.9348
C5 C -0.3767(3) 0.59386(17) 1.0084(3)
H2 H -0.4414 0.6112 0.9136
C6 C -0.3817(3) 0.63917(17) 1.1375(3)
H3 H -0.4510 0.6869 1.1314
C7 C -0.2827(3) 0.61298(14) 1.2760(3)
H4 H -0.2865 0.6441 1.3630
C8 C 0.1538(2) 0.23803(13) 1.1338(2)
C9 C 0.1363(3) 0.21681(15) 0.9824(2)
H5 H 0.0663 0.2491 0.9049
C10 C 0.2234(3) 0.14756(16) 0.9480(2)
H6 H 0.2101 0.1348 0.8458
C11 C 0.3372(2) 0.11660(14) 1.1981(2)
H7 H 0.4042 0.0816 1.2736
C12 C 0.2559(2) 0.18462(14) 1.2430(2)
H8 H 0.2691 0.1948 1.3460
Fe1A Fe -0.5000 1.0000 2.0000
Fe1A_2 Fe 0.5000 0.0000 1.0000
N1B N -0.02631(19) 0.58899(10) 1.66542(18)
N2B N -0.11817(19) 0.66088(11) 1.67012(18)
N3B N 0.03790(19) 0.63370(11) 1.90918(18)
N4B N 0.18082(19) 0.45567(11) 1.70911(19)
N5B N -0.3264(2) 0.90275(11) 1.94728(19)
N5A N 0.1736(2) 0.59725(11) 1.44728(19)
N5C N -0.1736(2) 0.40275(11) 1.55272(19)
C1B C 0.0648(2) 0.57512(12) 1.8085(2)
C2B C -0.0766(2) 0.68552(12) 1.8168(2)
C3B C 0.1787(2) 0.50102(12) 1.8364(2)
C4B C 0.2744(3) 0.47783(15) 1.9793(3)
H1B H 0.2701 0.5098 2.0652
C5B C 0.3767(3) 0.40614(17) 1.9916(3)
H2B H 0.4414 0.3888 2.0864
C6B C 0.3817(3) 0.36083(17) 1.8625(3)
H3B H 0.4510 0.3131 1.8686
C7B C 0.2827(3) 0.38702(14) 1.7240(3)
H4B H 0.2865 0.3559 1.6370
C8B C -0.1538(2) 0.76197(13) 1.8662(2)
C9B C -0.1363(3) 0.78319(15) 2.0176(2)
H5B H -0.0663 0.7509 2.0951
C10B C -0.2234(3) 0.85244(16) 2.0520(2)
H6B H -0.2101 0.8652 2.1542
C11B C -0.3372(2) 0.88340(14) 1.8019(2)
H7B H -0.4042 0.9184 1.7264
C12B C -0.2559(2) 0.81538(14) 1.7570(2)
H8B H -0.2691 0.8052 1.6540
loop_
_geom_bond_atom_site_label_1
_geom_bond_atom_site_label_2
_geom_bond_site_symmetry_1
_geom_bond_site_symmetry_2
Fe1 N1 1_555 1_555
N1 N2 1_555 1_555
N2 C2 1_555 1_555
N3 C1 1_555 1_555
N4 Fe1 1_555 1_555
N5 C10 1_555 1_555
C1 N1 1_555 1_555
C2 N3 1_555 1_555
C3 N4 1_555 1_555
C4 C3 1_555 1_555
H1 C4 1_555 1_555
C5 C4 1_555 1_555
H2 C5 1_555 1_555
C6 C5 1_555 1_555
H3 C6 1_555 1_555
C7 N4 1_555 1_555
H4 C7 1_555 1_555
C8 C2 1_555 1_555
C9 C8 1_555 1_555
H5 C9 1_555 1_555
C10 C9 1_555 1_555
H6 C10 1_555 1_555
C11 N5 1_555 1_555
H7 C11 1_555 1_555
C12 C8 1_555 1_555
H8 C12 1_555 1_555
Fe1A N5B 1_555 1_555
Fe1A_2 N5 1_555 1_555
N1B Fe1 1_555 1_555
N2B N1B 1_555 1_555
N3B C1B 1_555 1_555
N4B Fe1 1_555 1_555
N5B C10B 1_555 1_555
N5A Fe1 1_555 1_555
N5C Fe1 1_555 1_555
C1B N1B 1_555 1_555
C2B N2B 1_555 1_555
C3B N4B 1_555 1_555
C4B C3B 1_555 1_555
H1B C4B 1_555 1_555
C5B C4B 1_555 1_555
H2B C5B 1_555 1_555
C6B C5B 1_555 1_555
H3B C6B 1_555 1_555
C7B N4B 1_555 1_555
H4B C7B 1_555 1_555
C8B C2B 1_555 1_555
C9B C8B 1_555 1_555
H5B C9B 1_555 1_555
C10B C9B 1_555 1_555
H6B C10B 1_555 1_555
C11B N5B 1_555 1_555
H7B C11B 1_555 1_555
C12B C8B 1_555 1_555
H8B C12B 1_555 1_555
C1 C3 1_555 1_555
C6 C7 1_555 1_555
C11 C12 1_555 1_555
N3B C2B 1_555 1_555
C1B C3B 1_555 1_555
C6B C7B 1_555 1_555
C11B C12B 1_555 1_555

#END
