
#######################################################################
#
#                 Cambridge Crystallographic Data Centre
#                                CCDC 
#
#######################################################################
#
# If this CIF has been generated from an entry in the Cambridge 
# Structural Database, then it will include bibliographic, chemical, 
# crystal, experimental, refinement or atomic coordinate data resulting 
# from the CCDC's data processing and validation procedures.
#
#######################################################################

data_BUVWOF02
_symmetry_cell_setting           rhombohedral
_symmetry_space_group_name_H-M   'R -3'
_symmetry_Int_Tables_number      148
_space_group_name_Hall           '-R 3'
loop_
_symmetry_equiv_pos_site_id
_symmetry_equiv_pos_as_xyz
1 x,y,z
2 -y,x-y,z
3 -x+y,-x,z
4 2/3+x,1/3+y,1/3+z
5 2/3-y,1/3+x-y,1/3+z
6 2/3-x+y,1/3-x,1/3+z
7 1/3+x,2/3+y,2/3+z
8 1/3-y,2/3+x-y,2/3+z
9 1/3-x+y,2/3-x,2/3+z
10 -x,-y,-z
11 y,-x+y,-z
12 x-y,x,-z
13 1/3-x,2/3-y,2/3-z
14 1/3+y,2/3-x+y,2/3-z
15 1/3+x-y,2/3+x,2/3-z
16 2/3-x,1/3-y,1/3-z
17 2/3+y,1/3-x+y,1/3-z
18 2/3+x-y,1/3+x,1/3-z
_cell_length_a                   27.8061(17)
_cell_length_b                   27.8061(17)
_cell_length_c                   9.0879(9)
_cell_angle_alpha                90
_cell_angle_beta                 90
_cell_angle_gamma                120
_cell_volume                     6085.19
loop_
_atom_site_label
_atom_site_type_symbol
_atom_site_fract_x
_atom_site_fract_y
_atom_site_fract_z
Fe1 Fe 0.8333 0.1667 0.1667
N1 N 0.84896(14) 0.11513(13) 0.0445(4)
N2 N 0.86009(13) 0.21003(12) -0.0158(4)
N3 N 0.86927(14) 0.26032(13) -0.0655(4)
N4 N 0.90192(16) 0.22332(15) -0.2349(5)
N5 N 0.96051(14) 0.42099(14) -0.4207(4)
C1 C 0.8376(2) 0.06314(18) 0.0808(7)
H1 H 0.8216 0.0484 0.1716
C2 C 0.8494(3) 0.0316(2) -0.0158(7)
H2 H 0.8407 -0.0042 0.0102
C3 C 0.8737(3) 0.0530(2) -0.1488(8)
H3 H 0.8831 0.0325 -0.2115
C4 C 0.8843(2) 0.1050(2) -0.1891(7)
H4 H 0.8993 0.1197 -0.2808
C5 C 0.87186(17) 0.13511(16) -0.0891(5)
C6 C 0.87937(16) 0.19021(15) -0.1182(5)
C7 C 0.89476(16) 0.26612(16) -0.1955(5)
C8 C 0.91495(16) 0.31790(15) -0.2803(5)
C9 C 0.89882(19) 0.35643(17) -0.2449(6)
H5 H 0.8724 0.3483 -0.1718
C10 C 0.92145(18) 0.40571(17) -0.3165(5)
H6 H 0.9092 0.4303 -0.2920
C11 C 0.9749(2) 0.38338(18) -0.4587(6)
H7 H 1.0008 0.3922 -0.5336
C12 C 0.9528(2) 0.33178(18) -0.3911(6)
H8 H 0.9638 0.3068 -0.4213
Fe1E Fe 1.0001 0.5000 -0.5000
Fe1H Fe 0.6667 -0.1666 0.8334
N1O N 0.81771(14) 0.21820(13) 0.2888(4)
N2O N 0.80658(13) 0.12330(12) 0.3491(4)
N3O N 0.79740(14) 0.07301(13) 0.3988(4)
N4O N 0.76475(16) 0.11001(15) 0.5682(5)
N5O N 0.70616(14) -0.08766(14) 0.7540(4)
N5G N 0.91234(14) 0.20619(20) 0.2460(4)
N5M N 0.75432(14) 0.12715(20) 0.0874(4)
C1O C 0.8291(2) 0.27019(18) 0.2525(7)
H1O H 0.8451 0.2849 0.1617
C2O C 0.8173(3) 0.3017(2) 0.3491(7)
H2O H 0.8260 0.3375 0.3231
C3O C 0.7930(3) 0.2803(2) 0.4821(8)
H3O H 0.7836 0.3008 0.5448
C4O C 0.7824(2) 0.2283(2) 0.5224(7)
H4O H 0.7674 0.2136 0.6141
C5O C 0.79481(17) 0.19822(16) 0.4224(5)
C6O C 0.78730(16) 0.14312(15) 0.4515(5)
C7O C 0.77191(16) 0.06721(16) 0.5288(5)
C8O C 0.75172(16) 0.01543(15) 0.6136(5)
C9O C 0.76785(19) -0.02310(17) 0.5782(6)
H5O H 0.7943 -0.0150 0.5051
C10O C 0.74522(18) -0.07238(17) 0.6498(5)
H6O H 0.7575 -0.0970 0.6253
C11O C 0.6918(2) -0.05005(18) 0.7920(6)
H7O H 0.6659 -0.0589 0.8669
C12O C 0.7139(2) 0.00155(18) 0.7244(6)
H8O H 0.7029 0.0265 0.7546
loop_
_geom_bond_atom_site_label_1
_geom_bond_atom_site_label_2
_geom_bond_site_symmetry_1
_geom_bond_site_symmetry_2
Fe1 N1 1_555 1_555
N1 C1 1_555 1_555
N2 Fe1 1_555 1_555
N3 N2 1_555 1_555
N4 C6 1_555 1_555
N5 C10 1_555 1_555
C1 H1 1_555 1_555
C2 C1 1_555 1_555
H2 C2 1_555 1_555
C3 C2 1_555 1_555
H3 C3 1_555 1_555
C4 C3 1_555 1_555
H4 C4 1_555 1_555
C5 N1 1_555 1_555
C6 N2 1_555 1_555
C7 N3 1_555 1_555
C8 C7 1_555 1_555
C9 C8 1_555 1_555
H5 C9 1_555 1_555
C10 C9 1_555 1_555
H6 C10 1_555 1_555
C11 N5 1_555 1_555
H7 C11 1_555 1_555
C12 C8 1_555 1_555
H8 C12 1_555 1_555
Fe1E N5 1_555 1_555
Fe1H N5O 1_555 1_555
N1O Fe1 1_555 1_555
N2O Fe1 1_555 1_555
N3O N2O 1_555 1_555
N4O C6O 1_555 1_555
N5O C10O 1_555 1_555
N5G Fe1 1_555 1_555
N5M Fe1 1_555 1_555
C1O N1O 1_555 1_555
H1O C1O 1_555 1_555
C2O C1O 1_555 1_555
H2O C2O 1_555 1_555
C3O C2O 1_555 1_555
H3O C3O 1_555 1_555
C4O C3O 1_555 1_555
H4O C4O 1_555 1_555
C5O N1O 1_555 1_555
C6O N2O 1_555 1_555
C7O N3O 1_555 1_555
C8O C7O 1_555 1_555
C9O C8O 1_555 1_555
H5O C9O 1_555 1_555
C10O C9O 1_555 1_555
H6O C10O 1_555 1_555
C11O N5O 1_555 1_555
H7O C11O 1_555 1_555
C12O C8O 1_555 1_555
H8O C12O 1_555 1_555
N4 C7 1_555 1_555
C4 C5 1_555 1_555
C5 C6 1_555 1_555
C11 C12 1_555 1_555
N4O C7O 1_555 1_555
C4O C5O 1_555 1_555
C5O C6O 1_555 1_555
C11O C12O 1_555 1_555

#END
