
#######################################################################
#
#                 Cambridge Crystallographic Data Centre
#                                CCDC 
#
#######################################################################
#
# If this CIF has been generated from an entry in the Cambridge 
# Structural Database, then it will include bibliographic, chemical, 
# crystal, experimental, refinement or atomic coordinate data resulting 
# from the CCDC's data processing and validation procedures.
#
#######################################################################

data_BUVXAS01
_symmetry_cell_setting           monoclinic
_symmetry_space_group_name_H-M   'P 21/n'
_symmetry_Int_Tables_number      14
_space_group_name_Hall           '-P 2yn'
loop_
_symmetry_equiv_pos_site_id
_symmetry_equiv_pos_as_xyz
1 x,y,z
2 1/2-x,1/2+y,1/2-z
3 -x,-y,-z
4 1/2+x,1/2-y,1/2+z
_cell_length_a                   9.0619(10)
_cell_length_b                   14.6906(17)
_cell_length_c                   9.1423(11)
_cell_angle_alpha                90
_cell_angle_beta                 106.5470(10)
_cell_angle_gamma                90
_cell_volume                     1166.66
loop_
_atom_site_label
_atom_site_type_symbol
_atom_site_fract_x
_atom_site_fract_y
_atom_site_fract_z
Co1 Co 0.5000 0.0000 0.5000
N1 N 0.47281(15) 0.08754(8) 0.66356(14)
N2 N 0.37961(15) 0.15894(9) 0.66770(14)
N3 N 0.53417(15) 0.13385(9) 0.90693(14)
N4 N 0.67857(15) -0.04442(9) 0.70599(15)
N5 N 0.16966(16) 0.40133(9) 0.94508(15)
C1 C 0.7799(2) -0.11254(12) 0.7187(2)
H3 H 0.7827 -0.1440 0.6312
C2 C 0.8800(2) -0.13773(14) 0.8565(2)
H4 H 0.9497 -0.1850 0.8618
C3 C 0.8752(2) -0.09167(14) 0.9867(2)
H5 H 0.9407 -0.1083 1.0811
C4 C 0.7728(2) -0.02092(12) 0.9761(2)
H6 H 0.7685 0.0111 1.0625
C5 C 0.67646(18) 0.00143(10) 0.83373(19)
C6 C 0.56267(17) 0.07479(10) 0.80625(16)
C7 C 0.42045(17) 0.18440(10) 0.81453(17)
C8 C 0.1580(2) 0.38124(12) 0.79945(18)
H7 H 0.0905 0.4155 0.7238
C9 C 0.23947(19) 0.31311(11) 0.75476(18)
H8 H 0.2259 0.3022 0.6516
C10 C 0.34172(18) 0.26084(10) 0.86341(17)
C11 C 0.3595(2) 0.28285(13) 1.01518(19)
H9 H 0.4299 0.2515 1.0928
C12 C 0.2715(2) 0.35194(13) 1.04949(19)
H10 H 0.2838 0.3649 1.1518
Co1A Co 0.0000 0.5000 1.0000
Co1A_2 Co 1.0000 -0.5000 0.0000
N1B N 0.52719(15) -0.08754(8) 0.33644(14)
N2B N 0.62039(15) -0.15894(9) 0.33230(14)
N3B N 0.46583(15) -0.13385(9) 0.09307(14)
N4B N 0.32143(15) 0.04442(9) 0.29401(15)
N5B N 0.83034(16) -0.40133(9) 0.05492(15)
N5A N 0.33034(16) -0.09867(9) 0.55492(15)
N5C N 0.66966(16) 0.09867(9) 0.44508(15)
C1B C 0.2201(2) 0.11254(12) 0.2813(2)
H3B H 0.2173 0.1440 0.3688
C2B C 0.1200(2) 0.13773(14) 0.1435(2)
H4B H 0.0503 0.1850 0.1382
C3B C 0.1248(2) 0.09167(14) 0.0133(2)
H5B H 0.0593 0.1083 -0.0811
C4B C 0.2272(2) 0.02092(12) 0.0239(2)
H6B H 0.2315 -0.0111 -0.0625
C5B C 0.32354(18) -0.00143(10) 0.16627(19)
C6B C 0.43733(17) -0.07479(10) 0.19375(16)
C7B C 0.57955(17) -0.18440(10) 0.18547(17)
C8B C 0.8420(2) -0.38124(12) 0.20055(18)
H7B H 0.9095 -0.4155 0.2762
C9B C 0.76053(19) -0.31311(11) 0.24524(18)
H8B H 0.7741 -0.3022 0.3484
C10B C 0.65828(18) -0.26084(10) 0.13659(17)
C11B C 0.6405(2) -0.28285(13) -0.01518(19)
H9B H 0.5701 -0.2515 -0.0928
C12B C 0.7285(2) -0.35194(13) -0.04949(19)
H10B H 0.7162 -0.3649 -0.1518
O1 O 0.593(2) 0.4631(16) 0.126(2)
H1 H 0.6717 0.4327 0.1234
H2 H 0.5514 0.4854 0.0385
H11? H 0.6163 0.5168 0.1064
loop_
_geom_bond_atom_site_label_1
_geom_bond_atom_site_label_2
_geom_bond_site_symmetry_1
_geom_bond_site_symmetry_2
Co1 N1 1_555 1_555
N1 N2 1_555 1_555
N2 C7 1_555 1_555
N3 C6 1_555 1_555
N4 Co1 1_555 1_555
N5 C8 1_555 1_555
O1 H1 1_555 1_555
H2 O1 1_555 1_555
C1 N4 1_555 1_555
H3 C1 1_555 1_555
C2 C1 1_555 1_555
H4 C2 1_555 1_555
C3 C2 1_555 1_555
H5 C3 1_555 1_555
C4 C3 1_555 1_555
H6 C4 1_555 1_555
C5 N4 1_555 1_555
C6 N1 1_555 1_555
C7 N3 1_555 1_555
C8 H7 1_555 1_555
C9 C8 1_555 1_555
H8 C9 1_555 1_555
C10 C7 1_555 1_555
C11 C10 1_555 1_555
H9 C11 1_555 1_555
C12 N5 1_555 1_555
H10 C12 1_555 1_555
Co1A N5 1_555 1_555
Co1A_2 N5B 1_555 1_555
N1B Co1 1_555 1_555
N2B N1B 1_555 1_555
N3B C6B 1_555 1_555
N4B Co1 1_555 1_555
N5B C8B 1_555 1_555
N5A Co1 1_555 1_555
N5C Co1 1_555 1_555
C1B N4B 1_555 1_555
H3B C1B 1_555 1_555
C2B C1B 1_555 1_555
H4B C2B 1_555 1_555
C3B C2B 1_555 1_555
H5B C3B 1_555 1_555
C4B C3B 1_555 1_555
H6B C4B 1_555 1_555
C5B N4B 1_555 1_555
C6B N1B 1_555 1_555
C7B N2B 1_555 1_555
C8B H7B 1_555 1_555
C9B C8B 1_555 1_555
H8B C9B 1_555 1_555
C10B C7B 1_555 1_555
C11B C10B 1_555 1_555
H9B C11B 1_555 1_555
C12B N5B 1_555 1_555
H10B C12B 1_555 1_555
C4 C5 1_555 1_555
C5 C6 1_555 1_555
C9 C10 1_555 1_555
C11 C12 1_555 1_555
N3B C7B 1_555 1_555
C4B C5B 1_555 1_555
C5B C6B 1_555 1_555
C9B C10B 1_555 1_555
C11B C12B 1_555 1_555

#END
