
#######################################################################
#
#                 Cambridge Crystallographic Data Centre
#                                CCDC 
#
#######################################################################
#
# If this CIF has been generated from an entry in the Cambridge 
# Structural Database, then it will include bibliographic, chemical, 
# crystal, experimental, refinement or atomic coordinate data resulting 
# from the CCDC's data processing and validation procedures.
#
#######################################################################

data_BUVYIB
_symmetry_cell_setting           rhombohedral
_symmetry_space_group_name_H-M   'R -3'
_symmetry_Int_Tables_number      148
_space_group_name_Hall           '-R 3'
loop_
_symmetry_equiv_pos_site_id
_symmetry_equiv_pos_as_xyz
1 x,y,z
2 -y,x-y,z
3 -x+y,-x,z
4 2/3+x,1/3+y,1/3+z
5 2/3-y,1/3+x-y,1/3+z
6 2/3-x+y,1/3-x,1/3+z
7 1/3+x,2/3+y,2/3+z
8 1/3-y,2/3+x-y,2/3+z
9 1/3-x+y,2/3-x,2/3+z
10 -x,-y,-z
11 y,-x+y,-z
12 x-y,x,-z
13 1/3-x,2/3-y,2/3-z
14 1/3+y,2/3-x+y,2/3-z
15 1/3+x-y,2/3+x,2/3-z
16 2/3-x,1/3-y,1/3-z
17 2/3+y,1/3-x+y,1/3-z
18 2/3+x-y,1/3+x,1/3-z
_cell_length_a                   32.1469(10)
_cell_length_b                   32.1469(10)
_cell_length_c                   11.8998(7)
_cell_angle_alpha                90
_cell_angle_beta                 90
_cell_angle_gamma                120
_cell_volume                     10650
loop_
_atom_site_label
_atom_site_type_symbol
_atom_site_fract_x
_atom_site_fract_y
_atom_site_fract_z
Fe1 Fe 0.0000 0.5000 1.0000
N1 N -0.04831(12) 0.43270(11) 0.9714(3)
N2 N -0.05487(12) 0.39854(11) 0.8942(3)
N3 N -0.11388(13) 0.36537(12) 1.0257(3)
N4 N -0.04311(12) 0.48718(12) 1.1349(3)
N5 N -0.14531(12) 0.22701(11) 0.7517(3)
C1 C -0.08350(15) 0.41180(14) 1.0470(3)
C2 C -0.09466(15) 0.35875(14) 0.9302(3)
C3 C -0.08282(14) 0.44205(14) 1.1401(3)
C4 C -0.11730(17) 0.42759(16) 1.2222(4)
H1 H -0.1441 0.3959 1.2220
C5 C -0.11244(18) 0.45975(17) 1.3051(4)
H2 H -0.1357 0.4509 1.3630
C6 C -0.07226(18) 0.50569(17) 1.3010(4)
H3 H -0.0679 0.5287 1.3568
C7 C -0.03925(16) 0.51775(15) 1.2175(3)
H4 H -0.0121 0.5493 1.2172
C8 C -0.11276(14) 0.31363(14) 0.8697(3)
C9 C -0.09187(14) 0.31185(14) 0.7694(4)
H5 H -0.0659 0.3404 0.7393
C10 C -0.10827(15) 0.26946(14) 0.7131(3)
H6 H -0.0933 0.2695 0.6442
C11 C -0.16582(14) 0.22862(14) 0.8495(3)
H7 H -0.1918 0.1996 0.8778
C12 C -0.15093(15) 0.27019(14) 0.9103(4)
H8 H -0.1663 0.2695 0.9790
Fe1D Fe 0.1667 0.8333 1.3333
Fe1G Fe -0.1667 0.1667 0.6667
N1I N 0.04831(12) 0.56730(11) 1.0286(3)
N2I N 0.05487(12) 0.60146(11) 1.1058(3)
N3I N 0.11388(13) 0.63463(12) 0.9743(3)
N4I N 0.04311(12) 0.51282(12) 0.8651(3)
N5I N 0.14531(12) 0.77299(11) 1.2483(3)
N5E N 0.03899(16) 0.47864(12) 1.0850(3)
N5N N -0.03899(16) 0.52136(12) 0.9150(3)
C1I C 0.08350(15) 0.58820(14) 0.9530(3)
C2I C 0.09466(15) 0.64125(14) 1.0698(3)
C3I C 0.08282(14) 0.55795(14) 0.8599(3)
C4I C 0.11730(17) 0.57241(16) 0.7778(4)
H1I H 0.1441 0.6041 0.7780
C5I C 0.11244(18) 0.54025(17) 0.6949(4)
H2I H 0.1357 0.5491 0.6370
C6I C 0.07226(18) 0.49431(17) 0.6990(4)
H3I H 0.0679 0.4713 0.6432
C7I C 0.03925(16) 0.48225(15) 0.7825(3)
H4I H 0.0121 0.4507 0.7828
C8I C 0.11276(14) 0.68637(14) 1.1303(3)
C9I C 0.09187(14) 0.68815(14) 1.2306(4)
H5I H 0.0659 0.6596 1.2607
C10I C 0.10827(15) 0.73054(14) 1.2869(3)
H6I H 0.0933 0.7305 1.3558
C11I C 0.16582(14) 0.77138(14) 1.1505(3)
H7I H 0.1918 0.8004 1.1222
C12I C 0.15093(15) 0.72981(14) 1.0897(4)
H8I H 0.1663 0.7305 1.0210
O1 O -0.20420(13) 0.30874(14) 1.1388(3)
H9 H -0.1833 0.3314 1.0983
H10 H -0.2261 0.2888 1.0954
O2 O -0.24827(18) 0.33330(17) 1.3093(4)
H11 H -0.2744 0.3078 1.3252
H12 H -0.2335 0.3277 1.2576
O3 O -0.2788(2) 0.2299(3) 1.0301(6)
O4 O -0.3676(3) 0.2037(4) 0.9458(9)
C13 C -0.3221(4) 0.2068(4) 1.0990(9)
H13 H -0.3141 0.2175 1.1780
H14 H -0.3362 0.1715 1.0967
C14 C -0.3582(5) 0.2205(7) 1.0532(10)
H15 H -0.3880 0.2055 1.0987
H16 H -0.3444 0.2558 1.0544
C15 C -0.3236(4) 0.2248(6) 0.8758(10)
H17 H -0.3318 0.2112 0.7991
H18 H -0.3102 0.2600 0.8700
C16 C -0.2893(3) 0.2156(4) 0.9219(8)
H19 H -0.3012 0.1806 0.9176
H20 H -0.2596 0.2322 0.8766
O5 O 0.0124(2) 0.60416(19) 1.4264(4)
O6 O 0.0457(3) 0.6287(3) 1.6434(6)
C17 C -0.0171(3) 0.6039(3) 1.5169(7)
H21 H -0.0417 0.6110 1.4874
H22 H -0.0339 0.5717 1.5520
C18 C 0.0117(4) 0.6390(4) 1.5991(8)
H23 H 0.0282 0.6713 1.5641
H24 H -0.0091 0.6393 1.6603
C19 C 0.0770(4) 0.6283(4) 1.5508(8)
H25 H 0.0941 0.6600 1.5135
H26 H 0.1011 0.6205 1.5808
C20 C 0.0458(4) 0.5922(3) 1.4736(8)
H27 H 0.0650 0.5890 1.4127
H28 H 0.0282 0.5610 1.5128
loop_
_geom_bond_atom_site_label_1
_geom_bond_atom_site_label_2
_geom_bond_site_symmetry_1
_geom_bond_site_symmetry_2
Fe1 N1 1_555 1_555
N1 N2 1_555 1_555
N2 C2 1_555 1_555
N3 C1 1_555 1_555
N4 Fe1 1_555 1_555
N5 C10 1_555 1_555
C1 N1 1_555 1_555
C2 N3 1_555 1_555
C3 N4 1_555 1_555
C4 C3 1_555 1_555
H1 C4 1_555 1_555
C5 C4 1_555 1_555
H2 C5 1_555 1_555
C6 C5 1_555 1_555
H3 C6 1_555 1_555
C7 N4 1_555 1_555
H4 C7 1_555 1_555
C8 C2 1_555 1_555
C9 C8 1_555 1_555
H5 C9 1_555 1_555
C10 C9 1_555 1_555
H6 C10 1_555 1_555
C11 N5 1_555 1_555
H7 C11 1_555 1_555
C12 C8 1_555 1_555
H8 C12 1_555 1_555
O1 H9 1_555 1_555
H10 O1 1_555 1_555
O2 H11 1_555 1_555
H12 O2 1_555 1_555
O3 C13 1_555 1_555
O4 C14 1_555 1_555
C13 H13 1_555 1_555
H14 C13 1_555 1_555
C14 C13 1_555 1_555
H15 C14 1_555 1_555
H16 C14 1_555 1_555
C15 O4 1_555 1_555
H17 C15 1_555 1_555
H18 C15 1_555 1_555
C16 O3 1_555 1_555
H19 C16 1_555 1_555
H20 C16 1_555 1_555
O5 C17 1_555 1_555
O6 C18 1_555 1_555
C17 H21 1_555 1_555
H22 C17 1_555 1_555
C18 C17 1_555 1_555
H23 C18 1_555 1_555
H24 C18 1_555 1_555
C19 O6 1_555 1_555
H25 C19 1_555 1_555
H26 C19 1_555 1_555
C20 O5 1_555 1_555
H27 C20 1_555 1_555
H28 C20 1_555 1_555
Fe1D N5I 1_555 1_555
Fe1G N5 1_555 1_555
N1I Fe1 1_555 1_555
N2I N1I 1_555 1_555
N3I C1I 1_555 1_555
N4I Fe1 1_555 1_555
N5I C10I 1_555 1_555
N5E Fe1 1_555 1_555
N5N Fe1 1_555 1_555
C1I N1I 1_555 1_555
C2I N2I 1_555 1_555
C3I N4I 1_555 1_555
C4I C3I 1_555 1_555
H1I C4I 1_555 1_555
C5I C4I 1_555 1_555
H2I C5I 1_555 1_555
C6I C5I 1_555 1_555
H3I C6I 1_555 1_555
C7I N4I 1_555 1_555
H4I C7I 1_555 1_555
C8I C2I 1_555 1_555
C9I C8I 1_555 1_555
H5I C9I 1_555 1_555
C10I C9I 1_555 1_555
H6I C10I 1_555 1_555
C11I N5I 1_555 1_555
H7I C11I 1_555 1_555
C12I C8I 1_555 1_555
H8I C12I 1_555 1_555
C1 C3 1_555 1_555
C6 C7 1_555 1_555
C11 C12 1_555 1_555
C15 C16 1_555 1_555
C19 C20 1_555 1_555
N3I C2I 1_555 1_555
C1I C3I 1_555 1_555
C6I C7I 1_555 1_555
C11I C12I 1_555 1_555

#END
