
#######################################################################
#
#                 Cambridge Crystallographic Data Centre
#                                CCDC 
#
#######################################################################
#
# If this CIF has been generated from an entry in the Cambridge 
# Structural Database, then it will include bibliographic, chemical, 
# crystal, experimental, refinement or atomic coordinate data resulting 
# from the CCDC's data processing and validation procedures.
#
#######################################################################

data_BUVZOI
_symmetry_cell_setting           triclinic
_symmetry_space_group_name_H-M   'P -1'
_symmetry_Int_Tables_number      2
_space_group_name_Hall           '-P 1'
loop_
_symmetry_equiv_pos_site_id
_symmetry_equiv_pos_as_xyz
1 x,y,z
2 -x,-y,-z
_cell_length_a                   5.1653(6)
_cell_length_b                   10.3434(11)
_cell_length_c                   11.0739(12)
_cell_angle_alpha                99.015(2)
_cell_angle_beta                 98.899(2)
_cell_angle_gamma                91.963(2)
_cell_volume                     576.262
loop_
_atom_site_label
_atom_site_type_symbol
_atom_site_fract_x
_atom_site_fract_y
_atom_site_fract_z
O1 O 0.2460(3) 0.94756(16) 0.61592(16)
C1 C 0.3726(4) 0.8357(2) 0.6226(2)
C2 C 0.3249(4) 0.7559(2) 0.7164(2)
C3 C 0.4596(5) 0.6398(2) 0.7214(2)
H1 H 0.423(7) 0.581(3) 0.779(3)
C4 C 0.6352(4) 0.6034(2) 0.6429(2)
N1 N 0.7713(4) 0.4959(2) 0.6453(2)
H2 H 0.891(8) 0.482(4) 0.602(4)
H3 H 0.762(7) 0.456(4) 0.708(3)
C5 C 0.6867(4) 0.6860(2) 0.5486(2)
O2 O 0.8526(4) 0.65572(18) 0.48225(17)
N2 N 0.1616(4) 0.79147(19) 0.79521(18)
C6 C 0.5412(4) 0.8026(2) 0.5430(2)
H4 H 0.573(6) 0.854(3) 0.485(3)
C7 C 0.0769(4) 0.9842(2) 0.6975(2)
C8 C 0.0319(4) 0.9059(2) 0.7851(2)
C9 C -0.1530(4) 0.9447(2) 0.8619(2)
H5 H -0.186(7) 0.886(3) 0.918(3)
C10 C -0.2846(5) 1.0576(2) 0.8512(2)
H6 H -0.406(7) 1.079(3) 0.904(3)
C11 C -0.2310(5) 1.1356(2) 0.7640(2)
H7 H -0.314(6) 1.211(3) 0.752(3)
C12 C -0.0490(5) 1.0998(2) 0.6875(2)
H8 H -0.018(7) 1.150(4) 0.632(3)
Ag1 Ag 0.13411(3) 0.680533(18) 0.954085(17)
N3 N -0.3170(4) 0.6282(2) 1.08195(19)
O3 O -0.1163(4) 0.5717(2) 1.1177(2)
O4 O -0.5353(4) 0.59983(19) 1.10996(19)
O5 O -0.3032(4) 0.7123(2) 1.0135(2)
Ag1A Ag -0.13411(3) 0.319467(18) 1.045915(17)
Ag1_2 Ag -0.86589(3) 0.680533(18) 0.954085(17)
O3A O 0.1163(4) 0.4283(2) 0.8823(2)
O4_2 O 0.4647(4) 0.59983(19) 1.10996(19)
O5_2 O 0.6968(4) 0.7123(2) 1.0135(2)
loop_
_geom_bond_atom_site_label_1
_geom_bond_atom_site_label_2
_geom_bond_site_symmetry_1
_geom_bond_site_symmetry_2
O1 C1 1_555 1_555
C1 C2 1_555 1_555
C2 C3 1_555 1_555
C3 H1 1_555 1_555
C4 C3 1_555 1_555
N1 C4 1_555 1_555
H2 N1 1_555 1_555
H3 N1 1_555 1_555
C5 C4 1_555 1_555
O2 C5 1_555 1_555
N2 C2 1_555 1_555
C6 C1 1_555 1_555
H4 C6 1_555 1_555
C7 O1 1_555 1_555
C8 N2 1_555 1_555
C9 C8 1_555 1_555
H5 C9 1_555 1_555
C10 C9 1_555 1_555
H6 C10 1_555 1_555
C11 C10 1_555 1_555
H7 C11 1_555 1_555
C12 C7 1_555 1_555
H8 C12 1_555 1_555
Ag1 N2 1_555 1_555
N3 O3 1_555 1_555
O3 Ag1 1_555 1_555
O4 N3 1_555 1_555
O5 Ag1 1_555 1_555
Ag1A O3 1_555 1_555
Ag1_2 O4 1_555 1_555
O3A Ag1 1_555 1_555
O4_2 Ag1 1_555 1_555
O5_2 Ag1 1_555 1_555
C5 C6 1_555 1_555
C7 C8 1_555 1_555
C11 C12 1_555 1_555
N3 O5 1_555 1_555
O5 Ag1_2 1_555 1_555
Ag1A O3A 1_555 1_555

#END
