
#######################################################################
#
#                 Cambridge Crystallographic Data Centre
#                                CCDC 
#
#######################################################################
#
# If this CIF has been generated from an entry in the Cambridge 
# Structural Database, then it will include bibliographic, chemical, 
# crystal, experimental, refinement or atomic coordinate data resulting 
# from the CCDC's data processing and validation procedures.
#
#######################################################################

data_BUWLEL
_symmetry_cell_setting           orthorhombic
_symmetry_space_group_name_H-M   'P 21 21 21'
_symmetry_Int_Tables_number      19
_space_group_name_Hall           'P 2ac 2ab'
loop_
_symmetry_equiv_pos_site_id
_symmetry_equiv_pos_as_xyz
1 x,y,z
2 1/2-x,-y,1/2+z
3 1/2+x,1/2-y,-z
4 -x,1/2+y,1/2-z
_cell_length_a                   13.743(3)
_cell_length_b                   14.547(3)
_cell_length_c                   9.466(2)
_cell_angle_alpha                90
_cell_angle_beta                 90
_cell_angle_gamma                90
_cell_volume                     1892.44
loop_
_atom_site_label
_atom_site_type_symbol
_atom_site_fract_x
_atom_site_fract_y
_atom_site_fract_z
Zn1 Zn 1.24530(4) -0.00463(3) -0.44524(5)
O1 O 1.1585(3) -0.0348(2) -0.6092(4)
O2 O 1.0863(4) -0.1011(4) -0.4303(5)
O3 O 0.9089(4) -0.2540(3) -0.7933(4)
O4 O 1.3589(3) 0.0292(2) -0.5638(4)
O5 O 1.3668(4) 0.1645(3) -0.4620(6)
O6 O 1.5519(4) 0.2742(3) -0.7910(4)
N1 N 0.9596(4) -0.1925(3) -0.5885(4)
N2 N 0.8008(3) -0.3884(3) -0.6628(4)
N3 N 1.5396(3) 0.2050(3) -0.5770(5)
N4 N 1.6815(3) 0.4070(3) -0.6726(4)
C1 C 1.0918(4) -0.0841(3) -0.5549(6)
C2 C 1.0138(5) -0.1168(4) -0.6551(6)
C3 C 0.9132(4) -0.2547(4) -0.6616(6)
C4 C 0.8680(4) -0.3330(4) -0.5784(6)
C5 C 0.9469(6) -0.0366(5) -0.6918(10)
C6 C 1.3983(4) 0.1063(3) -0.5479(6)
C7 C 1.4926(5) 0.1227(4) -0.6277(6)
C8 C 1.5681(5) 0.2716(4) -0.6605(6)
C9 C 1.6152(5) 0.3533(4) -0.5851(6)
C10 C 1.5593(5) 0.0398(4) -0.6238(8)
H1 H 0.964(2) -0.1887(17) -0.4855(11)
H2 H 1.64760 0.43390 -0.74550
H3 H 1.04520 -0.13990 -0.74350
H4 H 1.72820 0.36910 -0.71080
H5 H 0.83300 -0.41020 -0.74120
H6 H 0.75060 -0.35170 -0.69360
H7 H 1.5528(7) 0.2042(10) -0.4761(11)
H8 H 0.92040 -0.37320 -0.54190
H9 H 0.83260 -0.30740 -0.49630
H10 H 0.89420 -0.05840 -0.75300
H11 H 0.98430 0.01090 -0.74110
H12 H 0.91930 -0.01100 -0.60490
H13 H 1.47500 0.13360 -0.72890
H14 H 1.56310 0.39440 -0.55000
H15 H 1.65140 0.33020 -0.50190
H16 H 1.59160 0.03660 -0.53160
H17 H 1.60850 0.04540 -0.69840
H18 H 1.52110 -0.01620 -0.63900
Zn1B Zn 0.74530(4) -0.49537(3) -0.55476(5)
Zn1B_2 Zn 1.74530(4) 0.50463(3) -0.55476(5)
N2B N 1.3008(3) -0.1116(3) -0.3372(4)
N4B N 1.1815(3) 0.0930(3) -0.3274(4)
H2B H 1.14760 0.06610 -0.25450
H4B H 1.22820 0.13090 -0.28920
H5B H 1.33300 -0.08980 -0.25880
H6B H 1.25060 -0.14830 -0.30640
O7 O 1.3268(7) 0.2679(6) -0.7820(8)
C11 C 1.3407(19) 0.2849(16) -0.9299(11)
O8 O 1.3689(10) 0.3499(8) -0.4764(14)
C12 C 1.3165(16) 0.3918(18) -0.591(2)
H19 H 1.368(5) 0.2840(6) -0.500(4)
O9 O 1.2893(9) 0.2668(7) -0.2231(12)
C13 C 1.3046(12) 0.3399(9) -0.1238(15)
O10? O 1.3172(12) 0.294(2) -0.269(4)
C14? C 1.4126(19) 0.331(3) -0.296(5)
H20? H 1.314(2) 0.240(2) -0.332(5)
C15? C 1.285(3) 0.3928(19) -0.553(3)
C16? C 1.317(4) 0.354(4) -0.431(3)
O11? O 1.3163(11) 0.3342(9) -0.6668(15)
O12? O 1.3673(14) 0.3488(14) -0.564(2)
loop_
_geom_bond_atom_site_label_1
_geom_bond_atom_site_label_2
_geom_bond_site_symmetry_1
_geom_bond_site_symmetry_2
Zn1 O1 1_555 1_555
O1 C1 1_555 1_555
O2 C1 1_555 1_555
O3 C3 1_555 1_555
O4 Zn1 1_555 1_555
O5 C6 1_555 1_555
O6 C8 1_555 1_555
N1 C2 1_555 1_555
N2 C4 1_555 1_555
N3 C7 1_555 1_555
N4 C9 1_555 1_555
C1 C2 1_555 1_555
C2 C5 1_555 1_555
C3 N1 1_555 1_555
C4 C3 1_555 1_555
C5 H10 1_555 1_555
C6 O4 1_555 1_555
C7 C6 1_555 1_555
C8 N3 1_555 1_555
C9 C8 1_555 1_555
C10 C7 1_555 1_555
O7 C11 1_555 1_555
O8 C12 1_555 1_555
O9 C13 1_555 1_555
H1 N1 1_555 1_555
H2 N4 1_555 1_555
H3 C2 1_555 1_555
H4 N4 1_555 1_555
H5 N2 1_555 1_555
H6 N2 1_555 1_555
H7 N3 1_555 1_555
H8 C4 1_555 1_555
H9 C4 1_555 1_555
H11 C5 1_555 1_555
H12 C5 1_555 1_555
H13 C7 1_555 1_555
H14 C9 1_555 1_555
H15 C9 1_555 1_555
H16 C10 1_555 1_555
H17 C10 1_555 1_555
H18 C10 1_555 1_555
H19 O8 1_555 1_555
Zn1B N2 1_555 1_555
Zn1B_2 N4 1_555 1_555
N2B Zn1 1_555 1_555
N4B Zn1 1_555 1_555
H2B N4B 1_555 1_555
H4B N4B 1_555 1_555
H5B N2B 1_555 1_555
H6B N2B 1_555 1_555

#END
