
#######################################################################
#
#                 Cambridge Crystallographic Data Centre
#                                CCDC 
#
#######################################################################
#
# If this CIF has been generated from an entry in the Cambridge 
# Structural Database, then it will include bibliographic, chemical, 
# crystal, experimental, refinement or atomic coordinate data resulting 
# from the CCDC's data processing and validation procedures.
#
#######################################################################

data_BUXCED
_symmetry_cell_setting           monoclinic
_symmetry_space_group_name_H-M   'C c'
_symmetry_Int_Tables_number      9
_space_group_name_Hall           'C -2yc'
loop_
_symmetry_equiv_pos_site_id
_symmetry_equiv_pos_as_xyz
1 x,y,z
2 x,-y,1/2+z
3 1/2+x,1/2+y,z
4 1/2+x,1/2-y,1/2+z
_cell_length_a                   19.7562(12)
_cell_length_b                   9.6058(6)
_cell_length_c                   10.2118(6)
_cell_angle_alpha                90
_cell_angle_beta                 97.6320(10)
_cell_angle_gamma                90
_cell_volume                     1920.77
loop_
_atom_site_label
_atom_site_type_symbol
_atom_site_fract_x
_atom_site_fract_y
_atom_site_fract_z
Eu1 Eu 0.51731(2) 0.465859(13) 0.04342(3)
O1 O 0.4248(3) 0.4079(6) 0.1546(5)
O2 O 0.6111(2) 0.4250(6) -0.0707(5)
O3 O 0.57548(16) 0.6925(3) 0.0265(3)
O4 O 0.48968(16) 0.6931(3) 0.1447(3)
O5 O 0.45263(16) 0.4094(4) 0.3718(3)
C1 C 0.4103(2) 0.4028(4) 0.2696(4)
O6 O 0.59419(19) 0.5333(3) -0.2654(3)
C2 C 0.6307(2) 0.4960(5) -0.1624(4)
C3 C 0.7037(2) 0.5448(4) -0.1458(5)
C4 C 0.3362(2) 0.3837(4) 0.2857(4)
C5 C 0.2902(2) 0.3329(6) 0.1841(5)
H1 H 0.3043 0.3089 0.1036
C6 C 0.3126(3) 0.4178(6) 0.4041(5)
H2 H 0.3423 0.4500 0.4761
C7 C 0.2222(3) 0.3179(7) 0.2040(5)
H3 H 0.1918 0.2806 0.1357
N1 N 0.1983(2) 0.3535(6) 0.3138(5)
C8 C 0.7533(3) 0.4835(7) -0.0565(7)
H4 H 0.7421 0.4108 -0.0032
C9 C 0.7241(3) 0.6523(6) -0.2186(6)
H5 H 0.6927 0.6971 -0.2805
C10 C 0.8202(4) 0.5315(7) -0.0469(9)
H6 H 0.8532 0.4876 0.0124
N2 N 0.8392(3) 0.6355(6) -0.1171(5)
C11 C 0.2437(3) 0.4020(8) 0.4107(6)
H7 H 0.2279 0.4273 0.4891
C12 C 0.7917(3) 0.6945(7) -0.2000(6)
H8 H 0.8041 0.7693 -0.2495
O7 O 0.45423(17) 0.3032(3) -0.1103(3)
H9 H 0.429(2) 0.235(4) -0.097(4)
H10 H 0.462(3) 0.295(5) -0.190(2)
C13 C 0.5402(2) 0.9130(4) 0.1004(4)
C14 C 0.5351(2) 0.7560(4) 0.0915(4)
C15 C 0.5776(3) 0.9849(4) 0.0169(5)
H11 H 0.6019 0.9371 -0.0408
C16 C 0.5783(3) 1.1278(4) 0.0205(5)
H12 H 0.6017 1.1751 -0.0390
C17 C 0.5075(3) 0.9884(5) 0.1883(5)
H13 H 0.4818 0.9436 0.2456
C18 C 0.5135(3) 1.1317(4) 0.1895(5)
H14 H 0.4934 1.1815 0.2522
N3 N 0.5470(2) 1.2023(4) 0.1050(4)
Eu1_2 Eu 0.51731(2) 1.465859(13) 0.04342(3)
Eu1A Eu 0.51731(2) 0.534141(13) -0.45658(3)
Eu1A_2 Eu 0.51731(2) 0.534141(13) 0.54342(3)
O5A O 0.45263(16) 0.5906(4) -0.1282(3)
O6A O 0.59419(19) 0.4667(3) 0.2346(3)
N3_2 N 0.5470(2) 0.2023(4) 0.1050(4)
loop_
_geom_bond_atom_site_label_1
_geom_bond_atom_site_label_2
_geom_bond_site_symmetry_1
_geom_bond_site_symmetry_2
Eu1 O1 1_555 1_555
O1 C1 1_555 1_555
O2 Eu1 1_555 1_555
O3 Eu1 1_555 1_555
O4 Eu1 1_555 1_555
O5 C1 1_555 1_555
C1 C4 1_555 1_555
O6 C2 1_555 1_555
C2 O2 1_555 1_555
C3 C2 1_555 1_555
C4 C5 1_555 1_555
C5 H1 1_555 1_555
C6 C4 1_555 1_555
H2 C6 1_555 1_555
C7 C5 1_555 1_555
H3 C7 1_555 1_555
N1 C7 1_555 1_555
C8 C3 1_555 1_555
H4 C8 1_555 1_555
C9 C3 1_555 1_555
H5 C9 1_555 1_555
C10 C8 1_555 1_555
H6 C10 1_555 1_555
N2 C10 1_555 1_555
C11 C6 1_555 1_555
H7 C11 1_555 1_555
C12 C9 1_555 1_555
H8 C12 1_555 1_555
O7 Eu1 1_555 1_555
H9 O7 1_555 1_555
H10 O7 1_555 1_555
C13 C14 1_555 1_555
C14 O3 1_555 1_555
C15 C13 1_555 1_555
H11 C15 1_555 1_555
C16 C15 1_555 1_555
H12 C16 1_555 1_555
C17 C13 1_555 1_555
H13 C17 1_555 1_555
C18 C17 1_555 1_555
H14 C18 1_555 1_555
N3 C16 1_555 1_555
Eu1_2 N3 1_555 1_555
Eu1A O6 1_555 1_555
Eu1A_2 O5 1_555 1_555
O5A Eu1 1_555 1_555
O6A Eu1 1_555 1_555
N3_2 Eu1 1_555 1_555
O4 C14 1_555 1_555
N1 C11 1_555 1_555
N2 C12 1_555 1_555
C18 N3 1_555 1_555

#END
