
#######################################################################
#
#                 Cambridge Crystallographic Data Centre
#                                CCDC 
#
#######################################################################
#
# If this CIF has been generated from an entry in the Cambridge 
# Structural Database, then it will include bibliographic, chemical, 
# crystal, experimental, refinement or atomic coordinate data resulting 
# from the CCDC's data processing and validation procedures.
#
#######################################################################

data_BUXCAZ
_symmetry_cell_setting           monoclinic
_symmetry_space_group_name_H-M   'P 21/c'
_symmetry_Int_Tables_number      14
_space_group_name_Hall           '-P 2ybc'
loop_
_symmetry_equiv_pos_site_id
_symmetry_equiv_pos_as_xyz
1 x,y,z
2 -x,1/2+y,1/2-z
3 -x,-y,-z
4 x,1/2-y,1/2+z
_cell_length_a                   10.6883(8)
_cell_length_b                   9.6931(7)
_cell_length_c                   17.4922(13)
_cell_angle_alpha                90
_cell_angle_beta                 101.3260(10)
_cell_angle_gamma                90
_cell_volume                     1776.95
loop_
_atom_site_label
_atom_site_type_symbol
_atom_site_fract_x
_atom_site_fract_y
_atom_site_fract_z
Eu1 Eu 0.259936(15) 0.403680(15) 0.031360(9)
O1 O 0.3480(2) 0.1775(2) 0.00198(14)
O2 O 0.1476(2) 0.1804(2) 0.01533(16)
C1 C 0.2467(3) 0.1161(3) 0.0096(2)
C2 C 0.2484(3) -0.0384(3) 0.0143(2)
O3 O 0.0921(2) 0.4509(2) -0.07567(13)
N1 N 0.3339(3) 0.2733(3) 0.16888(17)
C3 C 0.3166(4) 0.2344(4) 0.3012(2)
H1 H 0.2756 0.2553 0.3420
C4 C 0.2812(4) 0.2998(4) 0.2304(2)
H2 H 0.2171 0.3661 0.2252
C5 C 0.4721(4) 0.1142(4) 0.2499(2)
H3 H 0.5398 0.0524 0.2549
C6 C 0.4299(4) 0.1830(4) 0.1804(2)
H4 H 0.4710 0.1653 0.1392
C7 C 0.0189(3) 0.5462(3) -0.10484(19)
C8 C 0.0711(3) 0.6539(4) -0.1527(2)
C9 C 0.1616(4) 0.6206(4) -0.1958(2)
H5 H 0.1894 0.5300 -0.1979
C10 C 0.0320(4) 0.7900(4) -0.1526(2)
H6 H -0.0318 0.8164 -0.1263
C11 C 0.2108(5) 0.7242(5) -0.2361(3)
H7 H 0.2707 0.6997 -0.2657
C12 C 0.0906(5) 0.8862(5) -0.1930(3)
H8 H 0.0671 0.9782 -0.1904
N2 N 0.1776(4) 0.8558(5) -0.2348(3)
O4 O -0.0944(2) 0.5589(2) -0.09671(14)
C13 C 0.4486(3) 0.0550(3) 0.38620(19)
C14 C 0.4129(3) 0.1381(3) 0.3114(2)
O5 O 0.3729(2) 0.0588(2) 0.43199(13)
O6 O 0.5490(2) -0.0126(2) 0.39522(13)
C15 C 0.3398(3) -0.2569(3) -0.0040(2)
H9 H 0.4029 -0.3076 -0.0211
C16 C 0.1544(3) -0.1082(3) 0.0434(2)
H10 H 0.0891 -0.0600 0.0597
C17 C 0.3430(4) -0.1154(3) -0.0096(2)
H11 H 0.4076 -0.0720 -0.0292
C18 C 0.1594(3) -0.2502(3) 0.0477(2)
H12 H 0.0963 -0.2959 0.0676
N3 N 0.2499(3) -0.3256(3) 0.02482(17)
Eu1B Eu -0.259936(15) 0.596320(15) -0.031360(9)
Eu1_2 Eu 0.259936(15) -0.596320(15) 0.031360(9)
Eu1A Eu -0.259936(15) 0.903680(15) -0.531360(9)
Eu1A_2 Eu 0.740064(15) -0.096320(15) 0.468640(9)
Eu1B_2 Eu -0.259936(15) 1.596320(15) -0.031360(9)
Eu1C Eu -0.740064(15) 1.096320(15) -0.468640(9)
Eu1C_2 Eu 0.259936(15) 0.096320(15) 0.531360(9)
O1B O -0.3480(2) 0.8225(2) -0.00198(14)
O2B O -0.1476(2) 0.8196(2) -0.01533(16)
C1B C -0.2467(3) 0.8839(3) -0.0096(2)
C2B C -0.2484(3) 1.0384(3) -0.0143(2)
O3B O -0.0921(2) 0.5491(2) 0.07567(13)
N1B N -0.3339(3) 0.7267(3) -0.16888(17)
C3B C -0.3166(4) 0.7656(4) -0.3012(2)
H1B H -0.2756 0.7447 -0.3420
C4B C -0.2812(4) 0.7002(4) -0.2304(2)
H2B H -0.2171 0.6339 -0.2252
C5B C -0.4721(4) 0.8858(4) -0.2499(2)
H3B H -0.5398 0.9476 -0.2549
C6B C -0.4299(4) 0.8170(4) -0.1804(2)
H4B H -0.4710 0.8347 -0.1392
C7B C -0.0189(3) 0.4538(3) 0.10484(19)
C8B C -0.0711(3) 0.3461(4) 0.1527(2)
C9B C -0.1616(4) 0.3794(4) 0.1958(2)
H5B H -0.1894 0.4700 0.1979
C10B C -0.0320(4) 0.2100(4) 0.1526(2)
H6B H 0.0318 0.1836 0.1263
C11B C -0.2108(5) 0.2758(5) 0.2361(3)
H7B H -0.2707 0.3003 0.2657
C12B C -0.0906(5) 0.1138(5) 0.1930(3)
H8B H -0.0671 0.0218 0.1904
N2B N -0.1776(4) 0.1442(5) 0.2348(3)
O4B O 0.0944(2) 0.4411(2) 0.09671(14)
C13B C -0.4486(3) 0.9450(3) -0.38620(19)
C14B C -0.4129(3) 0.8619(3) -0.3114(2)
O5B O -0.3729(2) 0.9412(2) -0.43199(13)
O5A O -0.3729(2) 0.5588(2) 0.06801(13)
O5C O 0.3729(2) 0.4412(2) -0.06801(13)
O6B O -0.5490(2) 1.0126(2) -0.39522(13)
O6A O 0.4510(2) 0.4874(2) 0.10478(13)
O6C O -0.4510(2) 0.5126(2) -0.10478(13)
C15B C -0.3398(3) 1.2569(3) 0.0040(2)
H9B H -0.4029 1.3076 0.0211
C16B C -0.1544(3) 1.1082(3) -0.0434(2)
H10B H -0.0891 1.0600 -0.0597
C17B C -0.3430(4) 1.1154(3) 0.0096(2)
H11B H -0.4076 1.0720 0.0292
C18B C -0.1594(3) 1.2502(3) -0.0477(2)
H12B H -0.0963 1.2959 -0.0676
N3B N -0.2499(3) 1.3256(3) -0.02482(17)
N3_2 N 0.2499(3) 0.6744(3) 0.02482(17)
N3B_2 N -0.2499(3) 0.3256(3) -0.02482(17)
loop_
_geom_bond_atom_site_label_1
_geom_bond_atom_site_label_2
_geom_bond_site_symmetry_1
_geom_bond_site_symmetry_2
Eu1 O1 1_555 1_555
O1 C1 1_555 1_555
O2 Eu1 1_555 1_555
C1 O2 1_555 1_555
C2 C1 1_555 1_555
O3 Eu1 1_555 1_555
N1 Eu1 1_555 1_555
C3 H1 1_555 1_555
C4 N1 1_555 1_555
H2 C4 1_555 1_555
C5 H3 1_555 1_555
C6 N1 1_555 1_555
H4 C6 1_555 1_555
C7 O3 1_555 1_555
C8 C7 1_555 1_555
C9 C8 1_555 1_555
H5 C9 1_555 1_555
C10 C8 1_555 1_555
H6 C10 1_555 1_555
C11 C9 1_555 1_555
H7 C11 1_555 1_555
C12 C10 1_555 1_555
H8 C12 1_555 1_555
N2 C11 1_555 1_555
O4 C7 1_555 1_555
C13 C14 1_555 1_555
C14 C3 1_555 1_555
O5 C13 1_555 1_555
O6 C13 1_555 1_555
C15 H9 1_555 1_555
C16 C2 1_555 1_555
H10 C16 1_555 1_555
C17 C2 1_555 1_555
H11 C17 1_555 1_555
C18 C16 1_555 1_555
H12 C18 1_555 1_555
N3 C15 1_555 1_555
Eu1B O4 1_555 1_555
Eu1_2 N3 1_555 1_555
Eu1A O5B 1_555 1_555
Eu1A_2 O6 1_555 1_555
Eu1B_2 N3B 1_555 1_555
Eu1C O6B 1_555 1_555
Eu1C_2 O5 1_555 1_555
O1B Eu1B 1_555 1_555
O2B Eu1B 1_555 1_555
C1B O1B 1_555 1_555
C2B C1B 1_555 1_555
O3B Eu1B 1_555 1_555
N1B Eu1B 1_555 1_555
C3B H1B 1_555 1_555
C4B N1B 1_555 1_555
H2B C4B 1_555 1_555
C5B H3B 1_555 1_555
C6B N1B 1_555 1_555
H4B C6B 1_555 1_555
C7B O3B 1_555 1_555
C8B C7B 1_555 1_555
C9B C8B 1_555 1_555
H5B C9B 1_555 1_555
C10B C8B 1_555 1_555
H6B C10B 1_555 1_555
C11B C9B 1_555 1_555
H7B C11B 1_555 1_555
C12B C10B 1_555 1_555
H8B C12B 1_555 1_555
N2B C11B 1_555 1_555
O4B Eu1 1_555 1_555
C13B C14B 1_555 1_555
C14B C3B 1_555 1_555
O5B C13B 1_555 1_555
O5A Eu1B 1_555 1_555
O5C Eu1 1_555 1_555
O6B C13B 1_555 1_555
O6A Eu1 1_555 1_555
O6C Eu1B 1_555 1_555
C15B H9B 1_555 1_555
C16B C2B 1_555 1_555
H10B C16B 1_555 1_555
C17B C2B 1_555 1_555
H11B C17B 1_555 1_555
C18B C16B 1_555 1_555
H12B C18B 1_555 1_555
N3B C15B 1_555 1_555
N3_2 Eu1 1_555 1_555
N3B_2 Eu1B 1_555 1_555
C3 C4 1_555 1_555
C5 C6 1_555 1_555
C5 C14 1_555 1_555
C12 N2 1_555 1_555
C15 C17 1_555 1_555
C18 N3 1_555 1_555
O2B C1B 1_555 1_555
C3B C4B 1_555 1_555
C5B C6B 1_555 1_555
C5B C14B 1_555 1_555
C7B O4B 1_555 1_555
C12B N2B 1_555 1_555
C15B C17B 1_555 1_555
C18B N3B 1_555 1_555

#END
