
#######################################################################
#
#                 Cambridge Crystallographic Data Centre
#                                CCDC 
#
#######################################################################
#
# If this CIF has been generated from an entry in the Cambridge 
# Structural Database, then it will include bibliographic, chemical, 
# crystal, experimental, refinement or atomic coordinate data resulting 
# from the CCDC's data processing and validation procedures.
#
#######################################################################

data_BUXKEL
_symmetry_cell_setting           triclinic
_symmetry_space_group_name_H-M   'P -1'
_symmetry_Int_Tables_number      2
_space_group_name_Hall           '-P 1'
loop_
_symmetry_equiv_pos_site_id
_symmetry_equiv_pos_as_xyz
1 x,y,z
2 -x,-y,-z
_cell_length_a                   11.755(3)
_cell_length_b                   12.180(3)
_cell_length_c                   12.835(4)
_cell_angle_alpha                64.648(4)
_cell_angle_beta                 74.074(4)
_cell_angle_gamma                82.573(4)
_cell_volume                     1596.8
loop_
_atom_site_label
_atom_site_type_symbol
_atom_site_fract_x
_atom_site_fract_y
_atom_site_fract_z
Cd1 Cd -0.25065(5) 0.59727(5) 0.20893(5)
C1 C -0.0916(7) 0.7142(7) 0.2410(8)
C2 C -0.0072(6) 0.7895(7) 0.2508(7)
C3 C -0.0087(7) 0.7820(7) 0.3610(7)
H1 H -0.0601 0.7283 0.4278
C4 C 0.0654(7) 0.8535(7) 0.3753(7)
C5 C 0.0621(8) 0.8464(9) 0.4911(8)
H2 H 0.0126 0.7913 0.5584
C6 C 0.1307(9) 0.9196(9) 0.5019(8)
H3 H 0.1275 0.9151 0.5769
C7 C 0.2056(8) 1.0011(9) 0.4030(9)
H4 H 0.2499 1.0531 0.4118
C8 C 0.2156(7) 1.0064(7) 0.2924(8)
H5 H 0.2688 1.0602 0.2276
C9 C 0.1475(6) 0.9328(7) 0.2742(7)
C10 C 0.1546(6) 0.9367(7) 0.1573(7)
C11 C 0.0760(7) 0.8667(6) 0.1512(7)
C12 C 0.2410(6) 1.0138(6) 0.0465(6)
H6 H 0.2804 1.0662 0.0647
H7 H 0.1977 1.0654 -0.0120
C13 C 0.3347(6) 0.9417(7) -0.0083(7)
C14 C 0.3440(7) 0.9444(7) -0.1231(7)
C15 C 0.2698(7) 1.0176(7) -0.1982(7)
H8 H 0.2107 1.0655 -0.1726
C16 C 0.2842(8) 1.0186(8) -0.3079(8)
H9 H 0.2351 1.0675 -0.3562
C17 C 0.3702(9) 0.9484(9) -0.3476(8)
H10 H 0.3766 0.9488 -0.4216
C18 C 0.4469(8) 0.8778(9) -0.2812(8)
H11 H 0.5058 0.8322 -0.3104
C19 C 0.4353(6) 0.8751(7) -0.1673(7)
C20 C 0.5135(7) 0.8050(8) -0.0973(7)
H12 H 0.5720 0.7586 -0.1258
C21 C 0.5063(6) 0.8032(7) 0.0115(7)
C22 C 0.4158(6) 0.8735(7) 0.0550(6)
C23 C 0.5922(7) 0.7276(7) 0.0819(8)
C24 C -0.0233(9) 0.4312(10) 0.1603(9)
H13 H 0.0153 0.4887 0.1675
C25 C 0.0421(10) 0.3354(11) 0.1429(10)
H14 H 0.1233 0.3291 0.1362
C26 C -0.0182(13) 0.2479(10) 0.1359(10)
H15 H 0.0213 0.1787 0.1302
C27 C -0.1308(13) 0.2646(10) 0.1374(10)
H16 H -0.1707 0.2108 0.1264
C28 C -0.1892(9) 0.3628(9) 0.1555(9)
H17 H -0.2699 0.3714 0.1597
C29 C -0.3124(9) 0.3706(8) 0.4540(8)
H18 H -0.2323 0.3783 0.4455
C30 C -0.3727(12) 0.2777(10) 0.5501(9)
H19 H -0.3337 0.2254 0.6073
C31 C -0.4867(12) 0.2593(10) 0.5649(10)
H20 H -0.5268 0.1932 0.6291
C32 C -0.5409(11) 0.3404(12) 0.4828(10)
H21 H -0.6207 0.3319 0.4904
C33 C -0.4790(9) 0.4356(9) 0.3877(8)
H22 H -0.5186 0.4915 0.3327
N1 N -0.1374(6) 0.4456(6) 0.1672(6)
N2 N -0.3646(6) 0.4510(6) 0.3715(6)
O1 O -0.1595(5) 0.6421(6) 0.3308(5)
O2 O -0.0924(5) 0.7270(5) 0.1381(5)
O3 O 0.0823(5) 0.8725(5) 0.0413(4)
H23 H 0.0236 0.8410 0.0435
O4 O 0.4088(5) 0.8762(5) 0.1604(5)
H24 H 0.4466 0.8187 0.1986
O5 O 0.5897(5) 0.7342(5) 0.1778(5)
O6 O 0.6646(5) 0.6604(5) 0.0462(5)
Cd1_2 Cd 0.74935(5) 0.59727(5) 0.20893(5)
O5_2 O -0.4103(5) 0.7342(5) 0.1778(5)
O6_2 O -0.3354(5) 0.6604(5) 0.0462(5)
C34 C 0.7814(14) 0.6193(12) 0.6488(11)
H25 H 0.8099 0.6885 0.5810
C35 C 0.7959(12) 0.5163(15) 0.6461(12)
H26 H 0.8302 0.5131 0.5729
C36 C 0.7648(11) 0.4080(10) 0.7435(13)
H27 H 0.7765 0.3342 0.7364
C37 C 0.7173(12) 0.4131(11) 0.8478(12)
H28 H 0.6999 0.3429 0.9176
C38 C 0.6947(13) 0.5280(14) 0.8484(12)
H29 H 0.6577 0.5331 0.9202
N3 N 0.7226(14) 0.6280(11) 0.7543(14)
loop_
_geom_bond_atom_site_label_1
_geom_bond_atom_site_label_2
_geom_bond_site_symmetry_1
_geom_bond_site_symmetry_2
Cd1 N1 1_555 1_555
C1 C2 1_555 1_555
C2 C3 1_555 1_555
C3 H1 1_555 1_555
C4 C3 1_555 1_555
C5 C4 1_555 1_555
H2 C5 1_555 1_555
C6 C5 1_555 1_555
H3 C6 1_555 1_555
C7 C6 1_555 1_555
H4 C7 1_555 1_555
C8 C7 1_555 1_555
H5 C8 1_555 1_555
C9 C4 1_555 1_555
C10 C9 1_555 1_555
C11 C2 1_555 1_555
C12 C10 1_555 1_555
H6 C12 1_555 1_555
H7 C12 1_555 1_555
C13 C12 1_555 1_555
C14 C13 1_555 1_555
C15 C14 1_555 1_555
H8 C15 1_555 1_555
C16 C15 1_555 1_555
H9 C16 1_555 1_555
C17 C16 1_555 1_555
H10 C17 1_555 1_555
C18 C17 1_555 1_555
H11 C18 1_555 1_555
C19 C14 1_555 1_555
C20 C19 1_555 1_555
H12 C20 1_555 1_555
C21 C20 1_555 1_555
C22 C13 1_555 1_555
C23 C21 1_555 1_555
C24 H13 1_555 1_555
C25 C24 1_555 1_555
H14 C25 1_555 1_555
C26 C25 1_555 1_555
H15 C26 1_555 1_555
C27 C26 1_555 1_555
H16 C27 1_555 1_555
C28 C27 1_555 1_555
H17 C28 1_555 1_555
C29 H18 1_555 1_555
C30 C29 1_555 1_555
H19 C30 1_555 1_555
C31 C30 1_555 1_555
H20 C31 1_555 1_555
C32 C31 1_555 1_555
H21 C32 1_555 1_555
C33 C32 1_555 1_555
H22 C33 1_555 1_555
N1 C24 1_555 1_555
N2 Cd1 1_555 1_555
O1 Cd1 1_555 1_555
O2 Cd1 1_555 1_555
O3 C11 1_555 1_555
H23 O3 1_555 1_555
O4 C22 1_555 1_555
H24 O4 1_555 1_555
O5 C23 1_555 1_555
O6 C23 1_555 1_555
C34 H25 1_555 1_555
C35 C34 1_555 1_555
H26 C35 1_555 1_555
C36 C35 1_555 1_555
H27 C36 1_555 1_555
C37 C36 1_555 1_555
H28 C37 1_555 1_555
C38 C37 1_555 1_555
H29 C38 1_555 1_555
N3 C34 1_555 1_555
Cd1_2 O5 1_555 1_555
O5_2 Cd1 1_555 1_555
O6_2 Cd1 1_555 1_555
C1 O1 1_555 1_555
C1 O2 1_555 1_555
C8 C9 1_555 1_555
C10 C11 1_555 1_555
C18 C19 1_555 1_555
C21 C22 1_555 1_555
C28 N1 1_555 1_555
C29 N2 1_555 1_555
C33 N2 1_555 1_555
O6 Cd1_2 1_555 1_555
C38 N3 1_555 1_555

#END
