
#######################################################################
#
#                 Cambridge Crystallographic Data Centre
#                                CCDC 
#
#######################################################################
#
# If this CIF has been generated from an entry in the Cambridge 
# Structural Database, then it will include bibliographic, chemical, 
# crystal, experimental, refinement or atomic coordinate data resulting 
# from the CCDC's data processing and validation procedures.
#
#######################################################################

data_BUXKIP
_symmetry_cell_setting           triclinic
_symmetry_space_group_name_H-M   'P -1'
_symmetry_Int_Tables_number      2
_space_group_name_Hall           '-P 1'
loop_
_symmetry_equiv_pos_site_id
_symmetry_equiv_pos_as_xyz
1 x,y,z
2 -x,-y,-z
_cell_length_a                   10.036(3)
_cell_length_b                   13.534(4)
_cell_length_c                   14.417(4)
_cell_angle_alpha                92.329(5)
_cell_angle_beta                 95.839(4)
_cell_angle_gamma                106.177(4)
_cell_volume                     1866.05
loop_
_atom_site_label
_atom_site_type_symbol
_atom_site_fract_x
_atom_site_fract_y
_atom_site_fract_z
Mn1 Mn 0.5000 0.5000 0.5000
Mn2 Mn 1.0000 1.5000 0.0000
C1 C 0.4217(6) 0.7014(4) 0.4055(4)
C2 C 0.5039(5) 0.8121(4) 0.4012(4)
C3 C 0.4565(5) 0.8748(4) 0.3359(4)
C4 C 0.5307(5) 0.9770(4) 0.3276(4)
C5 C 0.6508(5) 1.0209(4) 0.3930(4)
C6 C 0.7294(6) 1.1275(4) 0.3976(4)
H1 H 0.7003 1.1707 0.3566
C7 C 0.8448(8) 1.1672(5) 0.4597(5)
H2 H 0.8931 1.2368 0.4609
C8 C 0.8921(9) 1.1036(6) 0.5226(6)
H3 H 0.9734 1.1305 0.5634
C9 C 0.8186(8) 1.0033(5) 0.5233(5)
H4 H 0.8481 0.9627 0.5668
C10 C 0.6977(6) 0.9588(4) 0.4591(4)
C11 C 0.6219(6) 0.8548(4) 0.4596(4)
H5 H 0.6541 0.8139 0.5016
C12 C 0.4829(5) 1.0397(4) 0.2523(4)
H6 H 0.4673 1.1003 0.2825
H7 H 0.3941 0.9986 0.2198
C13 C 0.5850(5) 1.0747(4) 0.1802(4)
C14 C 0.6487(5) 1.1795(4) 0.1748(4)
C15 C 0.7530(5) 1.2148(4) 0.1132(4)
C16 C 0.7884(5) 1.1433(4) 0.0594(4)
H8 H 0.8605 1.1655 0.0226
C17 C 0.7199(6) 1.0364(4) 0.0571(4)
C18 C 0.7507(7) 0.9645(5) -0.0046(4)
H9 H 0.8234 0.9868 -0.0408
C19 C 0.6759(7) 0.8631(5) -0.0121(4)
H10 H 0.6976 0.8160 -0.0524
C20 C 0.5653(7) 0.8315(5) 0.0424(5)
H11 H 0.5104 0.7633 0.0348
C21 C 0.5355(6) 0.8966(4) 0.1057(4)
H12 H 0.4640 0.8719 0.1425
C22 C 0.6131(5) 1.0028(4) 0.1163(4)
C23 C 0.8208(6) 1.3267(4) 0.1075(4)
C24 C 1.2807(7) 1.4298(5) 0.0530(5)
H13 H 1.2315 1.3732 0.0125
C25 C 1.4118(8) 1.4317(5) 0.0948(5)
H14 H 1.4493 1.3779 0.0815
C26 C 1.4860(7) 1.5127(6) 0.1557(5)
H15 H 1.5736 1.5150 0.1855
C27 C 1.4266(7) 1.5904(6) 0.1713(5)
H16 H 1.4740 1.6478 0.2113
C28 C 1.2958(7) 1.5822(5) 0.1269(5)
H17 H 1.2564 1.6352 0.1395
C29 C 0.7675(6) 0.6121(4) 0.4050(4)
H18 H 0.7269 0.6658 0.4095
C30 C 0.8973(6) 0.6320(5) 0.3741(4)
H19 H 0.9431 0.6982 0.3592
C31 C 0.9575(6) 0.5550(5) 0.3655(4)
H20 H 1.0448 0.5666 0.3445
C32 C 0.8853(6) 0.4584(5) 0.3888(5)
H21 H 0.9229 0.4032 0.3834
C33 C 0.7578(6) 0.4451(4) 0.4200(4)
H22 H 0.7108 0.3797 0.4359
C34 C 0.3705(6) 0.3111(5) 0.3372(4)
H23 H 0.4504 0.2926 0.3579
C35 C 0.2745(7) 0.2457(5) 0.2711(5)
H24 H 0.2880 0.1837 0.2502
C36 C 0.1589(7) 0.2729(5) 0.2368(5)
H25 H 0.0931 0.2305 0.1914
C37 C 0.1420(6) 0.3639(5) 0.2705(4)
H26 H 0.0646 0.3849 0.2487
C38 C 0.2429(6) 0.4238(4) 0.3378(4)
H27 H 0.2302 0.4857 0.3595
N1 N 0.6974(4) 0.5195(3) 0.4288(3)
N2 N 0.3561(4) 0.4011(3) 0.3741(3)
N3 N 1.2215(5) 1.5046(4) 0.0676(3)
O1 O 0.4819(3) 0.6456(2) 0.4535(2)
O2 O 0.3007(4) 0.6700(3) 0.3636(3)
O3 O 0.3359(4) 0.8336(3) 0.2779(3)
H33 H 0.2920 0.7793 0.2971
O4 O 0.9119(4) 1.3520(2) 0.0519(3)
O5 O 0.7842(4) 1.3912(3) 0.1577(3)
O6 O 0.6129(4) 1.2492(3) 0.2298(3)
H34 H 0.6506 1.3076 0.2155
O7 O 0.9656(5) 1.5734(3) 0.1277(3)
H35 H 0.8997 1.5350 0.1497
H36 H 0.938(5) 1.626(2) 0.138(3)
Mn2_2 Mn 0.0000 -0.5000 1.0000
C1A C 0.5783(6) 0.2986(4) 0.5945(4)
C2A C 0.4961(5) 0.1879(4) 0.5988(4)
C3A C 0.5435(5) 0.1252(4) 0.6641(4)
C4A C 0.4693(5) 0.0230(4) 0.6724(4)
C5A C 0.3492(5) -0.0209(4) 0.6070(4)
C6A C 0.2706(6) -0.1275(4) 0.6024(4)
H1A H 0.2997 -0.1707 0.6434
C7A C 0.1552(8) -0.1672(5) 0.5403(5)
H2A H 0.1069 -0.2368 0.5391
C8A C 0.1079(9) -0.1036(6) 0.4774(6)
H3A H 0.0266 -0.1305 0.4366
C9A C 0.1814(8) -0.0033(5) 0.4767(5)
H4A H 0.1519 0.0373 0.4332
C10A C 0.3023(6) 0.0412(4) 0.5409(4)
C11A C 0.3781(6) 0.1452(4) 0.5404(4)
H5A H 0.3459 0.1861 0.4984
C12A C 0.5171(5) -0.0397(4) 0.7477(4)
H6A H 0.5327 -0.1003 0.7175
H7A H 0.6059 0.0014 0.7802
C13A C 0.4150(5) -0.0747(4) 0.8198(4)
C14A C 0.3513(5) -0.1795(4) 0.8252(4)
C15A C 0.2470(5) -0.2148(4) 0.8868(4)
C16A C 0.2116(5) -0.1433(4) 0.9406(4)
H8A H 0.1395 -0.1655 0.9774
C17A C 0.2801(6) -0.0364(4) 0.9429(4)
C18A C 0.2493(7) 0.0355(5) 1.0046(4)
H9A H 0.1766 0.0132 1.0408
C19A C 0.3241(7) 0.1369(5) 1.0121(4)
H10A H 0.3024 0.1840 1.0524
C20A C 0.4347(7) 0.1685(5) 0.9576(5)
H11A H 0.4896 0.2367 0.9652
C21A C 0.4645(6) 0.1034(4) 0.8943(4)
H12A H 0.5360 0.1281 0.8575
C22A C 0.3869(5) -0.0028(4) 0.8837(4)
C23A C 0.1792(6) -0.3267(4) 0.8925(4)
C24A C 0.7193(7) 1.5702(5) -0.0530(5)
H13A H 0.7685 1.6268 -0.0125
C25A C 0.5882(8) 1.5683(5) -0.0948(5)
H14A H 0.5507 1.6221 -0.0815
C26A C 0.5140(7) 1.4873(6) -0.1557(5)
H15A H 0.4264 1.4850 -0.1855
C27A C 0.5734(7) 1.4096(6) -0.1713(5)
H16A H 0.5260 1.3522 -0.2113
C28A C 0.7042(7) 1.4178(5) -0.1269(5)
H17A H 0.7436 1.3648 -0.1395
C29A C 0.2325(6) 0.3879(4) 0.5950(4)
H18A H 0.2731 0.3342 0.5905
C30A C 0.1027(6) 0.3680(5) 0.6259(4)
H19A H 0.0569 0.3018 0.6408
C31A C 0.0425(6) 0.4450(5) 0.6345(4)
H20A H -0.0448 0.4334 0.6555
C32A C 0.1147(6) 0.5416(5) 0.6112(5)
H21A H 0.0771 0.5968 0.6166
C33A C 0.2422(6) 0.5549(4) 0.5800(4)
H22A H 0.2892 0.6203 0.5641
C34A C 0.6295(6) 0.6889(5) 0.6628(4)
H23A H 0.5496 0.7074 0.6421
C35A C 0.7255(7) 0.7543(5) 0.7289(5)
H24A H 0.7120 0.8163 0.7498
C36A C 0.8411(7) 0.7271(5) 0.7632(5)
H25A H 0.9069 0.7695 0.8086
C37A C 0.8580(6) 0.6361(5) 0.7295(4)
H26A H 0.9354 0.6151 0.7513
C38A C 0.7571(6) 0.5762(4) 0.6622(4)
H27A H 0.7698 0.5143 0.6405
N1A N 0.3026(4) 0.4805(3) 0.5712(3)
N2A N 0.6439(4) 0.5989(3) 0.6259(3)
N3A N 0.7785(5) 1.4954(4) -0.0676(3)
O1A O 0.5181(3) 0.3544(2) 0.5465(2)
O2A O 0.6993(4) 0.3300(3) 0.6364(3)
O3A O 0.6641(4) 0.1664(3) 0.7221(3)
H33A H 0.7080 0.2207 0.7029
O4A O 0.0881(4) -0.3520(2) 0.9481(3)
O4A_2 O 1.0881(4) 1.6480(2) -0.0519(3)
O5A O 0.2158(4) -0.3912(3) 0.8423(3)
O6A O 0.3871(4) -0.2492(3) 0.7702(3)
H34A H 0.3494 -0.3076 0.7845
O7A O 1.0344(5) 1.4266(3) -0.1277(3)
H35A H 1.1003 1.4650 -0.1497
H36A H 1.062(5) 1.374(2) -0.138(3)
C39 C 0.1792(7) 0.2172(5) 0.8024(5)
H28 H 0.2608 0.2716 0.8131
C40 C 0.1871(8) 0.1282(7) 0.7573(5)
H29 H 0.2697 0.1242 0.7356
C41 C 0.0725(9) 0.0470(6) 0.7452(5)
H30 H 0.0730 -0.0154 0.7159
C42 C -0.0439(8) 0.0602(6) 0.7775(5)
H31 H -0.1250 0.0053 0.7707
C43 C -0.0454(7) 0.1526(7) 0.8201(5)
H32 H -0.1274 0.1589 0.8412
N4 N 0.0668(7) 0.2322(4) 0.8318(4)
loop_
_geom_bond_atom_site_label_1
_geom_bond_atom_site_label_2
_geom_bond_site_symmetry_1
_geom_bond_site_symmetry_2
Mn1 N1 1_555 1_555
Mn2 N3 1_555 1_555
C1 C2 1_555 1_555
C2 C3 1_555 1_555
C3 C4 1_555 1_555
C4 C5 1_555 1_555
C5 C6 1_555 1_555
C6 H1 1_555 1_555
C7 C6 1_555 1_555
H2 C7 1_555 1_555
C8 C7 1_555 1_555
H3 C8 1_555 1_555
C9 C8 1_555 1_555
H4 C9 1_555 1_555
C10 C5 1_555 1_555
C11 C2 1_555 1_555
H5 C11 1_555 1_555
C12 C4 1_555 1_555
H6 C12 1_555 1_555
H7 C12 1_555 1_555
C13 C12 1_555 1_555
C14 C13 1_555 1_555
C15 C14 1_555 1_555
C16 C15 1_555 1_555
H8 C16 1_555 1_555
C17 C16 1_555 1_555
C18 C17 1_555 1_555
H9 C18 1_555 1_555
C19 C18 1_555 1_555
H10 C19 1_555 1_555
C20 C19 1_555 1_555
H11 C20 1_555 1_555
C21 C20 1_555 1_555
H12 C21 1_555 1_555
C22 C13 1_555 1_555
C23 C15 1_555 1_555
C24 H13 1_555 1_555
C25 C24 1_555 1_555
H14 C25 1_555 1_555
C26 C25 1_555 1_555
H15 C26 1_555 1_555
C27 C26 1_555 1_555
H16 C27 1_555 1_555
C28 C27 1_555 1_555
H17 C28 1_555 1_555
C29 H18 1_555 1_555
C30 C29 1_555 1_555
H19 C30 1_555 1_555
C31 C30 1_555 1_555
H20 C31 1_555 1_555
C32 C31 1_555 1_555
H21 C32 1_555 1_555
C33 C32 1_555 1_555
H22 C33 1_555 1_555
C34 H23 1_555 1_555
C35 C34 1_555 1_555
H24 C35 1_555 1_555
C36 C35 1_555 1_555
H25 C36 1_555 1_555
C37 C36 1_555 1_555
H26 C37 1_555 1_555
C38 C37 1_555 1_555
H27 C38 1_555 1_555
C39 H28 1_555 1_555
C40 C39 1_555 1_555
H29 C40 1_555 1_555
C41 C40 1_555 1_555
H30 C41 1_555 1_555
C42 C41 1_555 1_555
H31 C42 1_555 1_555
C43 C42 1_555 1_555
H32 C43 1_555 1_555
N1 C29 1_555 1_555
N2 Mn1 1_555 1_555
N3 C24 1_555 1_555
N4 C39 1_555 1_555
O1 Mn1 1_555 1_555
O2 C1 1_555 1_555
O3 C3 1_555 1_555
H33 O3 1_555 1_555
O4 Mn2 1_555 1_555
O5 C23 1_555 1_555
O6 C14 1_555 1_555
H34 O6 1_555 1_555
O7 Mn2 1_555 1_555
H35 O7 1_555 1_555
H36 O7 1_555 1_555
Mn2_2 O4A 1_555 1_555
C1A C2A 1_555 1_555
C2A C3A 1_555 1_555
C3A C4A 1_555 1_555
C4A C5A 1_555 1_555
C5A C6A 1_555 1_555
C6A H1A 1_555 1_555
C7A C6A 1_555 1_555
H2A C7A 1_555 1_555
C8A C7A 1_555 1_555
H3A C8A 1_555 1_555
C9A C8A 1_555 1_555
H4A C9A 1_555 1_555
C10A C5A 1_555 1_555
C11A C2A 1_555 1_555
H5A C11A 1_555 1_555
C12A C4A 1_555 1_555
H6A C12A 1_555 1_555
H7A C12A 1_555 1_555
C13A C12A 1_555 1_555
C14A C13A 1_555 1_555
C15A C14A 1_555 1_555
C16A C15A 1_555 1_555
H8A C16A 1_555 1_555
C17A C16A 1_555 1_555
C18A C17A 1_555 1_555
H9A C18A 1_555 1_555
C19A C18A 1_555 1_555
H10A C19A 1_555 1_555
C20A C19A 1_555 1_555
H11A C20A 1_555 1_555
C21A C20A 1_555 1_555
H12A C21A 1_555 1_555
C22A C13A 1_555 1_555
C23A C15A 1_555 1_555
C24A H13A 1_555 1_555
C25A C24A 1_555 1_555
H14A C25A 1_555 1_555
C26A C25A 1_555 1_555
H15A C26A 1_555 1_555
C27A C26A 1_555 1_555
H16A C27A 1_555 1_555
C28A C27A 1_555 1_555
H17A C28A 1_555 1_555
C29A H18A 1_555 1_555
C30A C29A 1_555 1_555
H19A C30A 1_555 1_555
C31A C30A 1_555 1_555
H20A C31A 1_555 1_555
C32A C31A 1_555 1_555
H21A C32A 1_555 1_555
C33A C32A 1_555 1_555
H22A C33A 1_555 1_555
C34A H23A 1_555 1_555
C35A C34A 1_555 1_555
H24A C35A 1_555 1_555
C36A C35A 1_555 1_555
H25A C36A 1_555 1_555
C37A C36A 1_555 1_555
H26A C37A 1_555 1_555
C38A C37A 1_555 1_555
H27A C38A 1_555 1_555
N1A Mn1 1_555 1_555
N2A Mn1 1_555 1_555
N3A Mn2 1_555 1_555
O1A Mn1 1_555 1_555
O2A C1A 1_555 1_555
O3A C3A 1_555 1_555
H33A O3A 1_555 1_555
O4A C23A 1_555 1_555
O4A_2 Mn2 1_555 1_555
O5A C23A 1_555 1_555
O6A C14A 1_555 1_555
H34A O6A 1_555 1_555
O7A Mn2 1_555 1_555
H35A O7A 1_555 1_555
H36A O7A 1_555 1_555
C1 O1 1_555 1_555
C9 C10 1_555 1_555
C10 C11 1_555 1_555
C17 C22 1_555 1_555
C21 C22 1_555 1_555
C23 O4 1_555 1_555
C28 N3 1_555 1_555
C33 N1 1_555 1_555
C34 N2 1_555 1_555
C38 N2 1_555 1_555
C43 N4 1_555 1_555
C1A O1A 1_555 1_555
C9A C10A 1_555 1_555
C10A C11A 1_555 1_555
C17A C22A 1_555 1_555
C21A C22A 1_555 1_555
C24A N3A 1_555 1_555
C28A N3A 1_555 1_555
C29A N1A 1_555 1_555
C33A N1A 1_555 1_555
C34A N2A 1_555 1_555
C38A N2A 1_555 1_555

#END
