
#######################################################################
#
#                 Cambridge Crystallographic Data Centre
#                                CCDC 
#
#######################################################################
#
# If this CIF has been generated from an entry in the Cambridge 
# Structural Database, then it will include bibliographic, chemical, 
# crystal, experimental, refinement or atomic coordinate data resulting 
# from the CCDC's data processing and validation procedures.
#
#######################################################################

data_BUXKAH
_symmetry_cell_setting           monoclinic
_symmetry_space_group_name_H-M   'P 2/c'
_symmetry_Int_Tables_number      13
_space_group_name_Hall           '-P 2yc'
loop_
_symmetry_equiv_pos_site_id
_symmetry_equiv_pos_as_xyz
1 x,y,z
2 -x,y,1/2-z
3 -x,-y,-z
4 x,-y,1/2+z
_cell_length_a                   13.932(2)
_cell_length_b                   8.0071(13)
_cell_length_c                   16.168(3)
_cell_angle_alpha                90
_cell_angle_beta                 108.855(2)
_cell_angle_gamma                90
_cell_volume                     1706.84
loop_
_atom_site_label
_atom_site_type_symbol
_atom_site_fract_x
_atom_site_fract_y
_atom_site_fract_z
Ni1 Ni 0.5000 -0.01065(7) 0.2500
C1 C 0.7153(2) 0.0926(4) 0.3605(2)
C2 C 0.8260(2) 0.0913(4) 0.36933(19)
C3 C 0.8644(2) -0.0042(4) 0.31292(19)
C4 C 0.9644(2) 0.0062(4) 0.31488(19)
C5 C 1.0326(2) 0.1056(4) 0.3817(2)
C6 C 1.1380(3) 0.1135(5) 0.3948(2)
H1 H 1.1646 0.0532 0.3581
C7 C 1.2017(3) 0.2081(5) 0.4605(2)
H2 H 1.2707 0.2102 0.4679
C8 C 1.1640(3) 0.3014(5) 0.5163(2)
H3 H 1.2075 0.3677 0.5596
C9 C 1.0639(3) 0.2949(5) 0.5071(2)
H4 H 1.0394 0.3553 0.5452
C10 C 0.9957(2) 0.1971(4) 0.4402(2)
C11 C 0.8919(2) 0.1895(4) 0.4313(2)
H5 H 0.8675 0.2528 0.4684
C12 C 1.0000 -0.0930(6) 0.2500
H6 H 1.0552 -0.1648 0.2829
C13 C 0.5606(2) -0.3203(4) 0.35647(19)
H7 H 0.6048 -0.3288 0.3241
C14 C 0.5649(2) -0.4408(4) 0.41817(19)
H8 H 0.6123 -0.5265 0.4275
C15 C 0.4991(2) -0.4349(4) 0.46658(18)
C16 C 0.4319(2) -0.3013(4) 0.45037(19)
H9 H 0.3861 -0.2912 0.4810
C17 C 0.4338(2) -0.1838(4) 0.38859(19)
H10 H 0.3892 -0.0941 0.3798
H14 H 0.5491(16) 0.189(5) 0.365(2)
N1 N 0.49586(18) -0.1914(3) 0.34058(15)
O1 O 0.65761(14) -0.0069(3) 0.30231(12)
O2 O 0.68477(17) 0.1878(3) 0.40691(15)
O3 O 0.80130(16) -0.1104(3) 0.25391(15)
H15 H 0.7444 -0.1058 0.2584
O4 O 0.4860(2) 0.1662(3) 0.33826(16)
H16 H 0.4526 0.2453 0.3118
Ni1_2 Ni 1.5000 -0.01065(7) 0.2500
Ni1B Ni 0.5000 -0.98935(7) 0.7500
C1A C 1.2847(2) 0.0926(4) 0.1395(2)
C2A C 1.1740(2) 0.0913(4) 0.13067(19)
C3A C 1.1356(2) -0.0042(4) 0.18708(19)
C4A C 1.0356(2) 0.0062(4) 0.18512(19)
C5A C 0.9674(2) 0.1056(4) 0.1183(2)
C6A C 0.8620(3) 0.1135(5) 0.1052(2)
H1A H 0.8354 0.0532 0.1419
C7A C 0.7983(3) 0.2081(5) 0.0395(2)
H2A H 0.7293 0.2102 0.0321
C8A C 0.8360(3) 0.3014(5) -0.0163(2)
H3A H 0.7925 0.3677 -0.0596
C9A C 0.9361(3) 0.2949(5) -0.0071(2)
H4A H 0.9606 0.3553 -0.0452
C10A C 1.0043(2) 0.1971(4) 0.0598(2)
C11A C 1.1081(2) 0.1895(4) 0.0687(2)
H5A H 1.1325 0.2528 0.0316
H6A H 0.9448 -0.1648 0.2171
C13B C 0.4394(2) -0.6797(4) 0.64353(19)
H7B H 0.3952 -0.6712 0.6759
C14B C 0.4351(2) -0.5592(4) 0.58183(19)
H8B H 0.3877 -0.4735 0.5725
C15B C 0.5009(2) -0.5651(4) 0.53342(18)
C16B C 0.5681(2) -0.6987(4) 0.54963(19)
H9B H 0.6139 -0.7088 0.5190
C17B C 0.5662(2) -0.8162(4) 0.61141(19)
H10B H 0.6108 -0.9059 0.6202
H14A H 0.4509(16) 0.189(5) 0.135(2)
N1B N 0.50414(18) -0.8086(3) 0.65942(15)
N1A N 0.50414(18) -0.1914(3) 0.15942(15)
O1A O 1.34239(14) -0.0069(3) 0.19769(12)
O1A_2 O 0.34239(14) -0.0069(3) 0.19769(12)
O2A O 1.31523(17) 0.1878(3) 0.09309(15)
O3A O 1.19870(16) -0.1104(3) 0.24609(15)
H15A H 1.2556 -0.1058 0.2416
O4A O 0.5140(2) 0.1662(3) 0.16174(16)
H16A H 0.5474 0.2453 0.1882
C18 C 0.1399(3) 0.4784(6) 0.2583(3)
H11 H 0.1165 0.5695 0.2182
H12 H 0.1338 0.5079 0.3139
H13 H 0.0995 0.3811 0.2360
C19 C 0.2455(4) 0.4432(5) 0.2685(3)
N2 N 0.3272(3) 0.4167(5) 0.2750(3)
loop_
_geom_bond_atom_site_label_1
_geom_bond_atom_site_label_2
_geom_bond_site_symmetry_1
_geom_bond_site_symmetry_2
Ni1 N1 1_555 1_555
C1 C2 1_555 1_555
C2 C3 1_555 1_555
C3 C4 1_555 1_555
C4 C5 1_555 1_555
C5 C6 1_555 1_555
C6 H1 1_555 1_555
C7 C6 1_555 1_555
H2 C7 1_555 1_555
C8 C7 1_555 1_555
H3 C8 1_555 1_555
C9 C8 1_555 1_555
H4 C9 1_555 1_555
C10 C5 1_555 1_555
C11 C2 1_555 1_555
H5 C11 1_555 1_555
C12 C4 1_555 1_555
H6 C12 1_555 1_555
C13 H7 1_555 1_555
C14 C13 1_555 1_555
H8 C14 1_555 1_555
C15 C14 1_555 1_555
C16 C15 1_555 1_555
H9 C16 1_555 1_555
C17 C16 1_555 1_555
H10 C17 1_555 1_555
C18 H11 1_555 1_555
H12 C18 1_555 1_555
H13 C18 1_555 1_555
C19 C18 1_555 1_555
H14 O4 1_555 1_555
N1 C13 1_555 1_555
N2 C19 1_555 1_555
O1 Ni1 1_555 1_555
O2 C1 1_555 1_555
O3 C3 1_555 1_555
H15 O3 1_555 1_555
O4 Ni1 1_555 1_555
H16 O4 1_555 1_555
Ni1_2 O1A 1_555 1_555
Ni1B N1B 1_555 1_555
C1A C2A 1_555 1_555
C2A C3A 1_555 1_555
C3A C4A 1_555 1_555
C4A C12 1_555 1_555
C5A C4A 1_555 1_555
C6A C5A 1_555 1_555
H1A C6A 1_555 1_555
C7A C6A 1_555 1_555
H2A C7A 1_555 1_555
C8A C7A 1_555 1_555
H3A C8A 1_555 1_555
C9A C8A 1_555 1_555
H4A C9A 1_555 1_555
C10A C5A 1_555 1_555
C11A C2A 1_555 1_555
H5A C11A 1_555 1_555
H6A C12 1_555 1_555
C13B H7B 1_555 1_555
C14B C13B 1_555 1_555
H8B C14B 1_555 1_555
C15B C15 1_555 1_555
C16B C15B 1_555 1_555
H9B C16B 1_555 1_555
C17B C16B 1_555 1_555
H10B C17B 1_555 1_555
H14A O4A 1_555 1_555
N1B C13B 1_555 1_555
N1A Ni1 1_555 1_555
O1A C1A 1_555 1_555
O1A_2 Ni1 1_555 1_555
O2A C1A 1_555 1_555
O3A C3A 1_555 1_555
H15A O3A 1_555 1_555
O4A Ni1 1_555 1_555
H16A O4A 1_555 1_555
C1 O1 1_555 1_555
C9 C10 1_555 1_555
C10 C11 1_555 1_555
C17 N1 1_555 1_555
C9A C10A 1_555 1_555
C10A C11A 1_555 1_555
C14B C15B 1_555 1_555
C17B N1B 1_555 1_555

#END
