
#######################################################################
#
#                 Cambridge Crystallographic Data Centre
#                                CCDC 
#
#######################################################################
#
# If this CIF has been generated from an entry in the Cambridge 
# Structural Database, then it will include bibliographic, chemical, 
# crystal, experimental, refinement or atomic coordinate data resulting 
# from the CCDC's data processing and validation procedures.
#
#######################################################################

data_BUYCII
_symmetry_cell_setting           triclinic
_symmetry_space_group_name_H-M   'P -1'
_symmetry_Int_Tables_number      2
_space_group_name_Hall           '-P 1'
loop_
_symmetry_equiv_pos_site_id
_symmetry_equiv_pos_as_xyz
1 x,y,z
2 -x,-y,-z
_cell_length_a                   7.9943(2)
_cell_length_b                   8.0290(8)
_cell_length_c                   21.4184(13)
_cell_angle_alpha                80.1040(10)
_cell_angle_beta                 80.173(7)
_cell_angle_gamma                83.8010(10)
_cell_volume                     1330.05
loop_
_atom_site_label
_atom_site_type_symbol
_atom_site_fract_x
_atom_site_fract_y
_atom_site_fract_z
Cu1 Cu 0.5000 0.5000 0.0000
Cu2 Cu 0.5000 0.5000 0.5000
N1 N 0.5538(11) 0.3047(11) 0.0689(4)
N2 N 0.6459(11) 0.3207(12) 0.1145(4)
N3 N 0.7091(11) 0.6041(12) 0.0115(4)
N4 N 0.7664(11) 0.5809(12) 0.0689(4)
N5 N 0.3925(14) 0.2941(12) 0.4881(5)
N6 N 0.4298(12) 0.2318(11) 0.4305(4)
N7 N 0.7054(12) 0.4376(13) 0.4376(5)
N8 N 0.6980(12) 0.3413(11) 0.3921(4)
C1 C 0.5531(17) 0.1382(15) 0.0716(6)
H1 H 0.4998 0.0885 0.0450
C2 C 0.639(2) 0.0478(16) 0.1182(7)
H2 H 0.6557 -0.0694 0.1288
C3 C 0.6967(18) 0.1694(18) 0.1455(7)
H3 H 0.7590 0.1501 0.1793
C4 C 0.8223(15) 0.6915(14) -0.0293(6)
H4 H 0.8173 0.7250 -0.0728
C5 C 0.9513(16) 0.7269(16) 0.0020(7)
H5 H 1.0455 0.7873 -0.0159
C6 C 0.9097(16) 0.6540(17) 0.0643(6)
H6 H 0.9707 0.6554 0.0975
C7 C 0.6703(15) 0.4888(15) 0.1255(5)
H7 H 0.7309 0.4797 0.1617
H8 H 0.5604 0.5501 0.1359
C8 C 0.2995(17) 0.1863(15) 0.5259(6)
H9 H 0.2598 0.1957 0.5686
C9 C 0.2627(19) 0.052(2) 0.4968(9)
H10 H 0.1941 -0.0361 0.5138
C10 C 0.3597(16) 0.0892(14) 0.4339(7)
H11 H 0.3709 0.0237 0.4014
C11 C 0.8707(16) 0.4353(18) 0.4392(6)
H12 H 0.9159 0.4913 0.4662
C12 C 0.9653(16) 0.3432(18) 0.3973(7)
H13 H 1.0832 0.3223 0.3910
C13 C 0.8532(16) 0.2867(15) 0.3660(6)
H14 H 0.8799 0.2225 0.3329
C14 C 0.5336(15) 0.3207(14) 0.3758(5)
H15 H 0.4771 0.4311 0.3626
H16 H 0.5490 0.2573 0.3403
Hg1 Hg 0.09260(7) 0.72527(7) 0.25504(2)
S1 S -0.2261(4) 0.6791(4) 0.26275(17)
C15 C -0.2973(16) 0.8608(15) 0.2877(6)
N9 N -0.3452(18) 0.9860(16) 0.3059(6)
S2 S 0.2740(4) 0.4496(4) 0.24716(16)
C16 C 0.1234(19) 0.3603(16) 0.2209(6)
N10 N 0.020(2) 0.3045(19) 0.2022(7)
S3 S 0.1597(5) 0.9259(4) 0.14892(19)
C17 C 0.2630(16) 0.7824(17) 0.1073(6)
N11 N 0.3343(14) 0.6826(16) 0.0769(5)
S4 S 0.1062(6) 0.8792(5) 0.3465(2)
C18 C 0.2439(16) 0.7460(14) 0.3845(6)
N12 N 0.3378(18) 0.6631(14) 0.4125(6)
Cu2_2 Cu 0.5000 0.5000 -0.5000
N1A N 0.4462(11) 0.6953(11) -0.0689(4)
N2A N 0.3541(11) 0.6793(12) -0.1145(4)
N3A N 0.2909(11) 0.3959(12) -0.0115(4)
N4A N 0.2336(11) 0.4191(12) -0.0689(4)
N5A N 0.6075(14) 0.7059(12) 0.5119(5)
N6A N 0.5702(12) 0.7682(11) 0.5695(4)
N7A N 0.2946(12) 0.5624(13) 0.5624(5)
N8A N 0.3020(12) 0.6587(11) 0.6079(4)
C1A C 0.4469(17) 0.8618(15) -0.0716(6)
H1A H 0.5002 0.9115 -0.0450
C2A C 0.361(2) 0.9522(16) -0.1182(7)
H2A H 0.3443 1.0694 -0.1288
C3A C 0.3033(18) 0.8306(18) -0.1455(7)
H3A H 0.2410 0.8499 -0.1793
C4A C 0.1777(15) 0.3085(14) 0.0293(6)
H4A H 0.1827 0.2750 0.0728
C5A C 0.0487(16) 0.2731(16) -0.0020(7)
H5A H -0.0455 0.2127 0.0159
C6A C 0.0903(16) 0.3460(17) -0.0643(6)
H6A H 0.0293 0.3446 -0.0975
C7A C 0.3297(15) 0.5112(15) -0.1255(5)
H7A H 0.2691 0.5203 -0.1617
H8A H 0.4396 0.4499 -0.1359
C8A C 0.7005(17) 0.8137(15) 0.4741(6)
H9A H 0.7402 0.8043 0.4314
C9A C 0.7373(19) 0.948(2) 0.5032(9)
H10A H 0.8059 1.0361 0.4862
C10A C 0.6403(16) 0.9108(14) 0.5661(7)
H11A H 0.6291 0.9763 0.5986
C11A C 0.1293(16) 0.5647(18) 0.5608(6)
H12A H 0.0841 0.5087 0.5338
C12A C 0.0347(16) 0.6568(18) 0.6027(7)
H13A H -0.0832 0.6777 0.6090
C13A C 0.1468(16) 0.7133(15) 0.6340(6)
H14A H 0.1201 0.7775 0.6671
C14A C 0.4664(15) 0.6793(14) 0.6242(5)
H15A H 0.5229 0.5689 0.6374
H16A H 0.4510 0.7427 0.6597
Hg1A Hg 0.90740(7) 0.27473(7) -0.25504(2)
S1A S 1.2261(4) 0.3209(4) -0.26275(17)
C15A C 1.2973(16) 0.1392(15) -0.2877(6)
N9A N 1.3452(18) 0.0140(16) -0.3059(6)
S2A S 0.7260(4) 0.5504(4) -0.24716(16)
C16A C 0.8766(19) 0.6397(16) -0.2209(6)
N10A N 0.980(2) 0.6955(19) -0.2022(7)
S3A S 0.8403(5) 0.0741(4) -0.14892(19)
C17A C 0.7370(16) 0.2176(17) -0.1073(6)
N11A N 0.6657(14) 0.3174(16) -0.0769(5)
S4A S 0.8938(6) 0.1208(5) -0.3465(2)
C18A C 0.7561(16) 0.2540(14) -0.3845(6)
N12A N 0.6622(18) 0.3369(14) -0.4125(6)
N12A_2 N 0.6622(18) 0.3369(14) 0.5875(6)
loop_
_geom_bond_atom_site_label_1
_geom_bond_atom_site_label_2
_geom_bond_site_symmetry_1
_geom_bond_site_symmetry_2
Cu1 N1 1_555 1_555
Cu2 N5 1_555 1_555
N1 N2 1_555 1_555
N2 C3 1_555 1_555
N3 Cu1 1_555 1_555
N4 N3 1_555 1_555
N5 N6 1_555 1_555
N6 C10 1_555 1_555
N7 Cu2 1_555 1_555
N8 N7 1_555 1_555
C1 N1 1_555 1_555
H1 C1 1_555 1_555
C2 C1 1_555 1_555
H2 C2 1_555 1_555
C3 C2 1_555 1_555
H3 C3 1_555 1_555
C4 N3 1_555 1_555
H4 C4 1_555 1_555
C5 C4 1_555 1_555
H5 C5 1_555 1_555
C6 N4 1_555 1_555
H6 C6 1_555 1_555
C7 N2 1_555 1_555
H7 C7 1_555 1_555
H8 C7 1_555 1_555
C8 N5 1_555 1_555
H9 C8 1_555 1_555
C9 C8 1_555 1_555
H10 C9 1_555 1_555
C10 C9 1_555 1_555
H11 C10 1_555 1_555
C11 N7 1_555 1_555
H12 C11 1_555 1_555
C12 C11 1_555 1_555
H13 C12 1_555 1_555
C13 N8 1_555 1_555
H14 C13 1_555 1_555
C14 N6 1_555 1_555
H15 C14 1_555 1_555
H16 C14 1_555 1_555
Hg1 S1 1_555 1_555
S1 C15 1_555 1_555
C15 N9 1_555 1_555
S2 Hg1 1_555 1_555
C16 S2 1_555 1_555
N10 C16 1_555 1_555
S3 Hg1 1_555 1_555
C17 S3 1_555 1_555
N11 Cu1 1_555 1_555
S4 Hg1 1_555 1_555
C18 S4 1_555 1_555
N12 Cu2 1_555 1_555
Cu2_2 N12A 1_555 1_555
N1A Cu1 1_555 1_555
N2A N1A 1_555 1_555
N3A Cu1 1_555 1_555
N4A N3A 1_555 1_555
N5A Cu2 1_555 1_555
N6A N5A 1_555 1_555
N7A Cu2 1_555 1_555
N8A N7A 1_555 1_555
C1A N1A 1_555 1_555
H1A C1A 1_555 1_555
C2A C1A 1_555 1_555
H2A C2A 1_555 1_555
C3A N2A 1_555 1_555
H3A C3A 1_555 1_555
C4A N3A 1_555 1_555
H4A C4A 1_555 1_555
C5A C4A 1_555 1_555
H5A C5A 1_555 1_555
C6A N4A 1_555 1_555
H6A C6A 1_555 1_555
C7A N2A 1_555 1_555
H7A C7A 1_555 1_555
H8A C7A 1_555 1_555
C8A N5A 1_555 1_555
H9A C8A 1_555 1_555
C9A C8A 1_555 1_555
H10A C9A 1_555 1_555
C10A N6A 1_555 1_555
H11A C10A 1_555 1_555
C11A N7A 1_555 1_555
H12A C11A 1_555 1_555
C12A C11A 1_555 1_555
H13A C12A 1_555 1_555
C13A N8A 1_555 1_555
H14A C13A 1_555 1_555
C14A N6A 1_555 1_555
H15A C14A 1_555 1_555
H16A C14A 1_555 1_555
Hg1A S1A 1_555 1_555
S1A C15A 1_555 1_555
C15A N9A 1_555 1_555
S2A Hg1A 1_555 1_555
C16A S2A 1_555 1_555
N10A C16A 1_555 1_555
S3A Hg1A 1_555 1_555
C17A S3A 1_555 1_555
N11A Cu1 1_555 1_555
S4A Hg1A 1_555 1_555
C18A S4A 1_555 1_555
N12A C18A 1_555 1_555
N12A_2 Cu2 1_555 1_555
N4 C7 1_555 1_555
N8 C14 1_555 1_555
C5 C6 1_555 1_555
C12 C13 1_555 1_555
C17 N11 1_555 1_555
C18 N12 1_555 1_555
N4A C7A 1_555 1_555
N8A C14A 1_555 1_555
C2A C3A 1_555 1_555
C5A C6A 1_555 1_555
C9A C10A 1_555 1_555
C12A C13A 1_555 1_555
C17A N11A 1_555 1_555

#END
