
#######################################################################
#
#                 Cambridge Crystallographic Data Centre
#                                CCDC 
#
#######################################################################
#
# If this CIF has been generated from an entry in the Cambridge 
# Structural Database, then it will include bibliographic, chemical, 
# crystal, experimental, refinement or atomic coordinate data resulting 
# from the CCDC's data processing and validation procedures.
#
#######################################################################

data_BUYHIN
_symmetry_cell_setting           monoclinic
_symmetry_space_group_name_H-M   'P 21/c'
_symmetry_Int_Tables_number      14
_space_group_name_Hall           '-P 2ybc'
loop_
_symmetry_equiv_pos_site_id
_symmetry_equiv_pos_as_xyz
1 x,y,z
2 -x,1/2+y,1/2-z
3 -x,-y,-z
4 x,1/2-y,1/2+z
_cell_length_a                   5.6298(18)
_cell_length_b                   18.673(7)
_cell_length_c                   27.932(10)
_cell_angle_alpha                90
_cell_angle_beta                 100.980(9)
_cell_angle_gamma                90
_cell_volume                     2882.6
loop_
_atom_site_label
_atom_site_type_symbol
_atom_site_fract_x
_atom_site_fract_y
_atom_site_fract_z
Co1 Co 0.32350(10) 0.17599(3) 0.75072(2)
Co2 Co 0.48878(10) 0.41256(3) 0.69720(2)
P1 P 0.7861(2) 0.27107(6) 0.72720(4)
P2 P 0.4999(2) 0.31981(6) 0.80156(4)
P3 P 0.78677(19) 0.05587(6) 0.78087(4)
P4 P 0.3546(2) 0.02009(6) 0.70749(4)
O1 O 0.5562(5) 0.22601(15) 0.71289(10)
O2 O 0.2252(5) 0.33823(15) 0.66069(10)
H1 H 0.1082 0.3285 0.6808
H2 H 0.3043 0.2945 0.6548
O3 O 0.7696(5) 0.34022(14) 0.69843(10)
O4 O 1.0064(5) 0.22630(15) 0.72423(10)
O5 O 0.3783(5) 0.24839(14) 0.80745(10)
O6 O 0.3893(5) 0.36771(15) 0.76022(9)
O7 O 0.5319(5) 0.35970(15) 0.85167(10)
H3 H 0.5976 0.3992 0.8466
O8 O 0.6345(5) 0.11886(15) 0.79183(10)
O9 O 0.7836(5) -0.01183(14) 0.80952(10)
O10 O 1.0551(5) 0.08406(14) 0.78762(10)
H4 H 1.1245 0.0868 0.7632
O11 O 0.2488(5) 0.09632(15) 0.70077(10)
O12 O 0.3014(5) -0.01154(15) 0.75551(10)
O13 O 0.2780(5) -0.02591(14) 0.66310(9)
N1 N 0.9135(6) 0.23764(18) 0.82501(12)
H5 H 1.0671 0.2327 0.8207
H6 H 0.8357 0.1969 0.8144
N2 N 0.7426(6) 0.09391(18) 0.68438(12)
H7 H 0.6858 0.1348 0.6949
H8 H 0.9046 0.0978 0.6892
N3 N 0.5379(6) 0.45160(17) 0.62422(12)
C1 C 1.1764(8) 0.2358(2) 0.98008(15)
H9 H 1.3444 0.2298 0.9773
H10 H 1.1681 0.2370 1.0144
C2 C 1.0293(9) 0.1738(2) 0.95585(16)
H11 H 0.8663 0.1772 0.9623
H12 H 1.0994 0.1294 0.9702
C3 C 1.0172(8) 0.1712(2) 0.90133(16)
H13 H 1.1772 0.1626 0.8944
H14 H 0.9120 0.1324 0.8872
C4 C 1.0793(8) 0.3056(2) 0.95597(14)
H15 H 1.1795 0.3450 0.9708
H16 H 0.9163 0.3134 0.9615
C5 C 1.0764(7) 0.3046(2) 0.90092(13)
H17 H 1.0099 0.3491 0.8862
H18 H 1.2395 0.2991 0.8949
C6 C 0.9201(7) 0.2417(2) 0.87935(15)
H19 H 0.7553 0.2486 0.8851
C7 C 0.8011(7) 0.2963(2) 0.79175(15)
H20 H 0.9041 0.3388 0.7985
C8 C 0.7622(8) 0.0895(2) 0.53193(15)
H21 H 0.9377 0.0904 0.5385
H22 H 0.7069 0.0888 0.4969
C9 C 0.6724(8) 0.0211(2) 0.55478(15)
H23 H 0.4974 0.0184 0.5460
H24 H 0.7390 -0.0210 0.5418
C10 C 0.7489(7) 0.0222(2) 0.60996(13)
H25 H 0.9240 0.0214 0.6188
H26 H 0.6869 -0.0200 0.6237
C11 C 0.6514(8) 0.0899(2) 0.63109(15)
H27 H 0.4741 0.0893 0.6243
C12 C 0.7444(8) 0.1572(2) 0.60805(15)
H28 H 0.6808 0.1999 0.6210
H29 H 0.9195 0.1590 0.6166
C13 C 0.6668(8) 0.1560(2) 0.55306(15)
H30 H 0.7279 0.1984 0.5393
H31 H 0.4916 0.1568 0.5445
C14 C 0.6844(7) 0.0343(2) 0.71660(15)
H32 H 0.7628 -0.0099 0.7089
C15 C 0.6821(8) 0.4166(2) 0.59620(15)
H33 H 0.7876 0.3805 0.6098
C16 C 0.6674(8) 0.4352(2) 0.54969(16)
H34 H 0.7662 0.4116 0.5316
C17 C 0.5083(7) 0.4892(2) 0.52615(15)
C18 C 0.3652(8) 0.5227(2) 0.55653(16)
H35 H 0.2570 0.5583 0.5432
C19 C 0.3795(8) 0.5052(2) 0.60365(16)
H36 H 0.2839 0.5288 0.6224
Co1B Co 0.67650(10) 0.82401(3) 0.24928(2)
Co1_2 Co 1.32350(10) 0.17599(3) 0.75072(2)
Co1B_2 Co -0.32350(10) 0.82401(3) 0.24928(2)
Co2B Co 0.51122(10) 0.58744(3) 0.30280(2)
Co2A Co 0.51122(10) -0.08744(3) 0.80280(2)
Co2C Co 0.48878(10) 1.08744(3) 0.19720(2)
P1B P 0.2139(2) 0.72893(6) 0.27280(4)
P2B P 0.5001(2) 0.68019(6) 0.19844(4)
P3B P 0.21323(19) 0.94413(6) 0.21913(4)
P4B P 0.6454(2) 0.97991(6) 0.29251(4)
O1B O 0.4438(5) 0.77399(15) 0.28711(10)
O2B O 0.7748(5) 0.66177(15) 0.33931(10)
H1B H 0.8918 0.6715 0.3192
H2B H 0.6957 0.7055 0.3452
O3B O 0.2304(5) 0.65978(14) 0.30157(10)
O4B O -0.0064(5) 0.77370(15) 0.27577(10)
O4_2 O 0.0064(5) 0.22630(15) 0.72423(10)
O4B_2 O 0.9936(5) 0.77370(15) 0.27577(10)
O5B O 0.6217(5) 0.75161(14) 0.19255(10)
O6B O 0.6107(5) 0.63229(15) 0.23978(9)
O7B O 0.4681(5) 0.64030(15) 0.14833(10)
H3B H 0.4024 0.6008 0.1534
O8B O 0.3655(5) 0.88114(15) 0.20817(10)
O9B O 0.2164(5) 1.01183(14) 0.19048(10)
O9A O 0.2164(5) 0.48817(14) 0.69048(10)
O9C O 0.7836(5) 0.51183(14) 0.30952(10)
O10B O -0.0551(5) 0.91594(14) 0.21238(10)
H4B H -0.1245 0.9132 0.2368
O11B O 0.7512(5) 0.90368(15) 0.29923(10)
O12B O 0.6986(5) 1.01154(15) 0.24449(10)
O12A O 0.6986(5) 0.48846(15) 0.74449(10)
O12C O 0.3014(5) 0.51154(15) 0.25551(10)
O13B O 0.7220(5) 1.02591(14) 0.33690(9)
N1B N 0.0865(6) 0.76236(18) 0.17499(12)
H5B H -0.0671 0.7673 0.1793
H6B H 0.1643 0.8031 0.1856
N2B N 0.2574(6) 0.90609(18) 0.31562(12)
H7B H 0.3142 0.8652 0.3051
H8B H 0.0954 0.9022 0.3108
N3B N 0.4621(6) 0.54840(17) 0.37578(12)
C1B C -0.1764(8) 0.7642(2) 0.01992(15)
H9B H -0.3444 0.7702 0.0227
H10B H -0.1681 0.7630 -0.0144
C2B C -0.0293(9) 0.8262(2) 0.04415(16)
H11B H 0.1337 0.8228 0.0377
H12B H -0.0994 0.8706 0.0298
C3B C -0.0172(8) 0.8288(2) 0.09867(16)
H13B H -0.1772 0.8374 0.1056
H14B H 0.0880 0.8676 0.1128
C4B C -0.0793(8) 0.6944(2) 0.04403(14)
H15B H -0.1795 0.6550 0.0292
H16B H 0.0837 0.6866 0.0385
C5B C -0.0764(7) 0.6954(2) 0.09908(13)
H17B H -0.0099 0.6509 0.1138
H18B H -0.2395 0.7009 0.1051
C6B C 0.0799(7) 0.7583(2) 0.12065(15)
H19B H 0.2447 0.7514 0.1149
C7B C 0.1989(7) 0.7037(2) 0.20825(15)
H20B H 0.0959 0.6612 0.2015
C8B C 0.2378(8) 0.9105(2) 0.46807(15)
H21B H 0.0623 0.9096 0.4615
H22B H 0.2931 0.9112 0.5031
C9B C 0.3276(8) 0.9789(2) 0.44522(15)
H23B H 0.5026 0.9816 0.4540
H24B H 0.2610 1.0210 0.4582
C10B C 0.2511(7) 0.9778(2) 0.39004(13)
H25B H 0.0760 0.9786 0.3812
H26B H 0.3131 1.0200 0.3763
C11B C 0.3486(8) 0.9101(2) 0.36891(15)
H27B H 0.5259 0.9107 0.3757
C12B C 0.2556(8) 0.8428(2) 0.39195(15)
H28B H 0.3192 0.8001 0.3790
H29B H 0.0805 0.8410 0.3834
C13B C 0.3332(8) 0.8440(2) 0.44694(15)
H30B H 0.2721 0.8016 0.4607
H31B H 0.5084 0.8432 0.4555
C14B C 0.3156(7) 0.9657(2) 0.28340(15)
H32B H 0.2372 1.0099 0.2911
C15B C 0.3179(8) 0.5834(2) 0.40380(15)
H33B H 0.2124 0.6195 0.3902
C16B C 0.3326(8) 0.5648(2) 0.45031(16)
H34B H 0.2338 0.5884 0.4684
C17B C 0.4917(7) 0.5108(2) 0.47385(15)
C18B C 0.6348(8) 0.4773(2) 0.44347(16)
H35B H 0.7430 0.4417 0.4568
C19B C 0.6205(8) 0.4948(2) 0.39635(16)
H36B H 0.7161 0.4712 0.3776
loop_
_geom_bond_atom_site_label_1
_geom_bond_atom_site_label_2
_geom_bond_site_symmetry_1
_geom_bond_site_symmetry_2
Co1 O1 1_555 1_555
Co2 O2 1_555 1_555
P1 O1 1_555 1_555
P2 O5 1_555 1_555
P3 O8 1_555 1_555
P4 O11 1_555 1_555
O2 H1 1_555 1_555
H2 O2 1_555 1_555
O3 Co2 1_555 1_555
O4 P1 1_555 1_555
O5 Co1 1_555 1_555
O6 Co2 1_555 1_555
O7 P2 1_555 1_555
H3 O7 1_555 1_555
O8 Co1 1_555 1_555
O9 P3 1_555 1_555
O10 P3 1_555 1_555
H4 O10 1_555 1_555
O11 Co1 1_555 1_555
O12 P4 1_555 1_555
O13 P4 1_555 1_555
N1 H5 1_555 1_555
H6 N1 1_555 1_555
N2 H7 1_555 1_555
H8 N2 1_555 1_555
N3 Co2 1_555 1_555
C1 H9 1_555 1_555
H10 C1 1_555 1_555
C2 C1 1_555 1_555
H11 C2 1_555 1_555
H12 C2 1_555 1_555
C3 C2 1_555 1_555
H13 C3 1_555 1_555
H14 C3 1_555 1_555
C4 C1 1_555 1_555
H15 C4 1_555 1_555
H16 C4 1_555 1_555
C5 C4 1_555 1_555
H17 C5 1_555 1_555
H18 C5 1_555 1_555
C6 N1 1_555 1_555
H19 C6 1_555 1_555
C7 P1 1_555 1_555
H20 C7 1_555 1_555
C8 H21 1_555 1_555
H22 C8 1_555 1_555
C9 C8 1_555 1_555
H23 C9 1_555 1_555
H24 C9 1_555 1_555
C10 C9 1_555 1_555
H25 C10 1_555 1_555
H26 C10 1_555 1_555
C11 N2 1_555 1_555
H27 C11 1_555 1_555
C12 C11 1_555 1_555
H28 C12 1_555 1_555
H29 C12 1_555 1_555
C13 C8 1_555 1_555
H30 C13 1_555 1_555
H31 C13 1_555 1_555
C14 P3 1_555 1_555
H32 C14 1_555 1_555
C15 N3 1_555 1_555
H33 C15 1_555 1_555
C16 C15 1_555 1_555
H34 C16 1_555 1_555
C17 C16 1_555 1_555
C18 C17 1_555 1_555
H35 C18 1_555 1_555
C19 N3 1_555 1_555
H36 C19 1_555 1_555
Co1B O1B 1_555 1_555
Co1_2 O4 1_555 1_555
Co1B_2 O4B 1_555 1_555
Co2B O2B 1_555 1_555
Co2A O9 1_555 1_555
Co2C O9B 1_555 1_555
P1B O1B 1_555 1_555
P2B O5B 1_555 1_555
P3B O8B 1_555 1_555
P4B O11B 1_555 1_555
O2B H1B 1_555 1_555
H2B O2B 1_555 1_555
O3B Co2B 1_555 1_555
O4B P1B 1_555 1_555
O4_2 Co1 1_555 1_555
O4B_2 Co1B 1_555 1_555
O5B Co1B 1_555 1_555
O6B Co2B 1_555 1_555
O7B P2B 1_555 1_555
H3B O7B 1_555 1_555
O8B Co1B 1_555 1_555
O9B P3B 1_555 1_555
O9A Co2 1_555 1_555
O9C Co2B 1_555 1_555
O10B P3B 1_555 1_555
H4B O10B 1_555 1_555
O11B Co1B 1_555 1_555
O12B Co2C 1_555 1_555
O12A Co2 1_555 1_555
O12C Co2B 1_555 1_555
O13B P4B 1_555 1_555
N1B H5B 1_555 1_555
H6B N1B 1_555 1_555
N2B H7B 1_555 1_555
H8B N2B 1_555 1_555
N3B Co2B 1_555 1_555
C1B H9B 1_555 1_555
H10B C1B 1_555 1_555
C2B C1B 1_555 1_555
H11B C2B 1_555 1_555
H12B C2B 1_555 1_555
C3B C2B 1_555 1_555
H13B C3B 1_555 1_555
H14B C3B 1_555 1_555
C4B C1B 1_555 1_555
H15B C4B 1_555 1_555
H16B C4B 1_555 1_555
C5B C4B 1_555 1_555
H17B C5B 1_555 1_555
H18B C5B 1_555 1_555
C6B N1B 1_555 1_555
H19B C6B 1_555 1_555
C7B P1B 1_555 1_555
H20B C7B 1_555 1_555
C8B H21B 1_555 1_555
H22B C8B 1_555 1_555
C9B C8B 1_555 1_555
H23B C9B 1_555 1_555
H24B C9B 1_555 1_555
C10B C9B 1_555 1_555
H25B C10B 1_555 1_555
H26B C10B 1_555 1_555
C11B N2B 1_555 1_555
H27B C11B 1_555 1_555
C12B C11B 1_555 1_555
H28B C12B 1_555 1_555
H29B C12B 1_555 1_555
C13B C8B 1_555 1_555
H30B C13B 1_555 1_555
H31B C13B 1_555 1_555
C14B P3B 1_555 1_555
H32B C14B 1_555 1_555
C15B N3B 1_555 1_555
H33B C15B 1_555 1_555
C16B C15B 1_555 1_555
H34B C16B 1_555 1_555
C17B C17 1_555 1_555
C18B C17B 1_555 1_555
H35B C18B 1_555 1_555
C19B N3B 1_555 1_555
H36B C19B 1_555 1_555
P1 O3 1_555 1_555
P2 O6 1_555 1_555
P2 C7 1_555 1_555
P4 C14 1_555 1_555
O12 Co2A 1_555 1_555
N1 C7 1_555 1_555
N2 C14 1_555 1_555
C3 C6 1_555 1_555
C5 C6 1_555 1_555
C10 C11 1_555 1_555
C12 C13 1_555 1_555
C18 C19 1_555 1_555
P1B O3B 1_555 1_555
P2B O6B 1_555 1_555
P2B C7B 1_555 1_555
P4B O12B 1_555 1_555
P4B C14B 1_555 1_555
N1B C7B 1_555 1_555
N2B C14B 1_555 1_555
C3B C6B 1_555 1_555
C5B C6B 1_555 1_555
C10B C11B 1_555 1_555
C12B C13B 1_555 1_555
C16B C17B 1_555 1_555
C18B C19B 1_555 1_555

#END
