
#######################################################################
#
#                 Cambridge Crystallographic Data Centre
#                                CCDC 
#
#######################################################################
#
# If this CIF has been generated from an entry in the Cambridge 
# Structural Database, then it will include bibliographic, chemical, 
# crystal, experimental, refinement or atomic coordinate data resulting 
# from the CCDC's data processing and validation procedures.
#
#######################################################################

data_BUYNAL
_symmetry_cell_setting           rhombohedral
_symmetry_space_group_name_H-M   'R -3'
_symmetry_Int_Tables_number      148
_space_group_name_Hall           '-R 3'
loop_
_symmetry_equiv_pos_site_id
_symmetry_equiv_pos_as_xyz
1 x,y,z
2 -y,x-y,z
3 -x+y,-x,z
4 2/3+x,1/3+y,1/3+z
5 2/3-y,1/3+x-y,1/3+z
6 2/3-x+y,1/3-x,1/3+z
7 1/3+x,2/3+y,2/3+z
8 1/3-y,2/3+x-y,2/3+z
9 1/3-x+y,2/3-x,2/3+z
10 -x,-y,-z
11 y,-x+y,-z
12 x-y,x,-z
13 1/3-x,2/3-y,2/3-z
14 1/3+y,2/3-x+y,2/3-z
15 1/3+x-y,2/3+x,2/3-z
16 2/3-x,1/3-y,1/3-z
17 2/3+y,1/3-x+y,1/3-z
18 2/3+x-y,1/3+x,1/3-z
_cell_length_a                   22.8249(14)
_cell_length_b                   22.8249(14)
_cell_length_c                   14.8386(19)
_cell_angle_alpha                90
_cell_angle_beta                 90
_cell_angle_gamma                120
_cell_volume                     6694.86
loop_
_atom_site_label
_atom_site_type_symbol
_atom_site_fract_x
_atom_site_fract_y
_atom_site_fract_z
Zn1 Zn 1.0000 0.0000 1.0000
O1 O 0.91649(12) 0.20111(13) 0.99906(18)
N1 N 0.98038(12) 0.06713(12) 0.91552(18)
N2 N 0.97477(13) 0.15516(13) 0.8684(2)
C1 C 0.94318(17) 0.05088(19) 0.8368(3)
H2 H 0.9237 0.0090 0.8083
C2 C 0.93925(19) 0.1042(2) 0.8076(3)
H3 H 0.9169 0.1063 0.7564
C3 C 0.99781(16) 0.13033(15) 0.9321(2)
H4 H 1.0230 0.1547 0.9819
C4 C 0.98345(19) 0.22420(18) 0.8691(3)
H5 H 0.9907 0.2416 0.8080
H6 H 1.0230 0.2541 0.9045
C5 C 0.92190(19) 0.22328(18) 0.9083(3)
H7 H 0.9272 0.2681 0.9062
H8 H 0.8817 0.1926 0.8746
C6 C 0.86371(17) 0.19558(16) 1.0496(3)
C7 C 0.81754(17) 0.21301(19) 1.0200(3)
H9 H 0.8213 0.2307 0.9625
C8 C 0.76503(19) 0.2041(2) 1.0766(3)
H10 H 0.7334 0.2152 1.0557
C9 C 0.86016(14) 0.17041(14) 1.1383(3)
C10 C 0.90779(16) 0.15392(18) 1.1714(3)
H11 H 0.9436 0.1598 1.1351
Zn1C Zn 0.6667 -0.6667 1.3333
Zn1C_2 Zn 0.6667 0.3333 1.3333
Zn1C_3 Zn 1.6667 0.3333 1.3333
O1O O 0.75018(12) 0.13222(13) 1.33427(18)
O1A O 0.79889(13) -0.28462(18) 0.99906(18)
O1P O 0.86778(13) -0.38205(18) 1.33427(18)
O1B O 1.28462(18) 0.08351(12) 0.99906(18)
O1Q O 1.38205(18) 0.24982(12) 1.33427(18)
N1O N 0.68629(12) 0.26620(12) 1.41781(18)
N1A N 0.93287(12) -0.08675(17) 0.91552(18)
N1P N 0.73380(12) -0.57992(17) 1.41781(18)
N1B N 1.08675(17) 0.01962(12) 0.91552(18)
N1Q N 1.57992(17) 0.31371(12) 1.41781(18)
N1I N 1.01962(12) -0.06713(12) 1.08448(18)
N1J N 1.06713(12) 0.08675(17) 1.08448(18)
N1K N 0.91325(17) -0.01962(12) 1.08448(18)
N2O N 0.69190(13) 0.17817(13) 1.4649(2)
N2A N 0.84484(13) -0.18039(18) 0.8684(2)
N2P N 0.82183(13) -0.48628(18) 1.4649(2)
N2B N 1.18039(18) 0.02523(13) 0.8684(2)
N2Q N 1.48628(18) 0.30810(13) 1.4649(2)
C1O C 0.72349(17) 0.28245(19) 1.4965(3)
C1A C 0.94912(19) -0.10770(25) 0.8368(3)
C1P C 0.71755(19) -0.55897(25) 1.4965(3)
C1B C 1.10770(25) 0.05682(17) 0.8368(3)
C1Q C 1.55897(25) 0.27651(17) 1.4965(3)
H2O H 0.7430 0.3243 1.5250
H2A H 0.9910 -0.0853 0.8083
H2P H 0.6757 -0.5814 1.5250
H2B H 1.0853 0.0763 0.8083
H2Q H 1.5814 0.2570 1.5250
C2O C 0.72742(19) 0.2291(2) 1.5257(3)
C2A C 0.8958(2) -0.16495(28) 0.8076(3)
C2P C 0.7709(2) -0.50172(28) 1.5257(3)
C2B C 1.16495(28) 0.06075(19) 0.8076(3)
C2Q C 1.50172(28) 0.27258(19) 1.5257(3)
H3O H 0.7498 0.2270 1.5769
H3A H 0.8937 -0.1894 0.7564
H3P H 0.7730 -0.4773 1.5769
H3B H 1.1894 0.0831 0.7564
H3Q H 1.4773 0.2502 1.5769
C3O C 0.66886(16) 0.20300(15) 1.4012(2)
C3A C 0.86967(15) -0.13252(22) 0.9321(2)
C3P C 0.79700(15) -0.53415(22) 1.4012(2)
C3B C 1.13252(22) 0.00219(16) 0.9321(2)
C3Q C 1.53415(22) 0.33114(16) 1.4012(2)
H4O H 0.6437 0.1786 1.3514
H4A H 0.8453 -0.1317 0.9819
H4P H 0.8214 -0.5350 1.3514
H4B H 1.1317 -0.0230 0.9819
H4Q H 1.5350 0.3563 1.3514
C4O C 0.68322(19) 0.10913(18) 1.4642(3)
C4A C 0.77580(18) -0.24075(26) 0.8691(3)
C4P C 0.89087(18) -0.42592(26) 1.4642(3)
C4B C 1.24075(26) 0.01655(19) 0.8691(3)
C4Q C 1.42592(26) 0.31678(19) 1.4642(3)
H5O H 0.6760 0.0917 1.5253
H5A H 0.7584 -0.2509 0.8080
H5P H 0.9083 -0.4158 1.5253
H5B H 1.2509 0.0093 0.8080
H5Q H 1.4158 0.3240 1.5253
H6O H 0.6437 0.0792 1.4288
H6A H 0.7459 -0.2311 0.9045
H6P H 0.9208 -0.4356 1.4288
H6B H 1.2311 -0.0230 0.9045
H6Q H 1.4356 0.3563 1.4288
C5O C 0.74477(19) 0.11005(18) 1.4250(3)
C5A C 0.77672(18) -0.30138(26) 0.9083(3)
C5P C 0.88995(18) -0.36529(26) 1.4250(3)
C5B C 1.30138(26) 0.07810(19) 0.9083(3)
C5Q C 1.36529(26) 0.25523(19) 1.4250(3)
H7O H 0.7395 0.0652 1.4271
H7A H 0.7319 -0.3409 0.9062
H7P H 0.9348 -0.3258 1.4271
H7B H 1.3409 0.0728 0.9062
H7Q H 1.3258 0.2605 1.4271
H8O H 0.7850 0.1407 1.4587
H8A H 0.8074 -0.3109 0.8746
H8P H 0.8593 -0.3558 1.4587
H8B H 1.3109 0.1183 0.8746
H8Q H 1.3558 0.2150 1.4587
C6O C 0.80296(17) 0.13775(16) 1.2837(3)
C6A C 0.80442(16) -0.33187(23) 1.0496(3)
C6P C 0.86225(16) -0.33480(23) 1.2837(3)
C6B C 1.33187(23) 0.13629(17) 1.0496(3)
C6Q C 1.33480(23) 0.19704(17) 1.2837(3)
C7O C 0.84913(17) 0.12032(19) 1.3133(3)
C7A C 0.78699(19) -0.39547(25) 1.0200(3)
C7P C 0.87968(19) -0.27120(25) 1.3133(3)
C7B C 1.39547(25) 0.18246(17) 1.0200(3)
C7Q C 1.27120(25) 0.15087(17) 1.3133(3)
H9O H 0.8454 0.1026 1.3708
H9A H 0.7693 -0.4094 0.9625
H9P H 0.8974 -0.2573 1.3708
H9B H 1.4094 0.1787 0.9625
H9Q H 1.2573 0.1546 1.3708
C8O C 0.90164(19) 0.1292(2) 1.2567(3)
C8A C 0.7959(2) -0.43907(28) 1.0766(3)
C8P C 0.8708(2) -0.22760(28) 1.2567(3)
C8B C 1.43907(28) 0.23497(19) 1.0766(3)
C8Q C 1.22760(28) 0.09836(19) 1.2567(3)
H10O H 0.9333 0.1181 1.2776
H10A H 0.7848 -0.4818 1.0557
H10P H 0.8819 -0.1849 1.2776
H10B H 1.4818 0.2666 1.0557
H10Q H 1.1849 0.0667 1.2776
C9O C 0.80651(14) 0.16292(14) 1.1950(3)
C9A C 0.82959(14) -0.31025(20) 1.1383(3)
C9P C 0.83708(14) -0.35642(20) 1.1950(3)
C9B C 1.31025(20) 0.13984(14) 1.1383(3)
C9Q C 1.35642(20) 0.19349(14) 1.1950(3)
C10O C 0.75888(16) 0.17941(18) 1.1619(3)
C10A C 0.84608(18) -0.24613(24) 1.1714(3)
C10P C 0.82059(18) -0.42054(24) 1.1619(3)
C10B C 1.24613(24) 0.09221(16) 1.1714(3)
C10Q C 1.42054(24) 0.24112(16) 1.1619(3)
H11O H 0.7231 0.1735 1.1982
H11A H 0.8402 -0.2162 1.1351
H11P H 0.8265 -0.4505 1.1982
H11B H 1.2162 0.0564 1.1351
H11Q H 1.4505 0.2769 1.1982
O2 O 0.0550(7) 0.3342(6) 0.1050(16)
H1 H 0.0224 0.3029 0.0796
C11 C 0.0610(11) 0.4004(9) 0.077(2)
H12 H 0.0242 0.4041 0.1024
H13 H 0.0594 0.4023 0.0125
H14 H 0.1032 0.4371 0.0984
O3 O 0.9370 0.9643 0.6196
N3 N 1.0000 1.0000 0.6177
O3A O 1.0357 0.9727 0.6196
O3B O 1.0273 1.0630 0.6196
loop_
_geom_bond_atom_site_label_1
_geom_bond_atom_site_label_2
_geom_bond_site_symmetry_1
_geom_bond_site_symmetry_2
Zn1 N1 1_555 1_555
O1 C5 1_555 1_555
O2 H1 1_555 1_555
O3 N3 1_555 1_555
N1 C1 1_555 1_555
N2 C2 1_555 1_555
N3 O3A 1_555 1_555
C1 H2 1_555 1_555
C2 C1 1_555 1_555
H3 C2 1_555 1_555
C3 N1 1_555 1_555
H4 C3 1_555 1_555
C4 N2 1_555 1_555
H5 C4 1_555 1_555
H6 C4 1_555 1_555
C5 C4 1_555 1_555
H7 C5 1_555 1_555
H8 C5 1_555 1_555
C6 O1 1_555 1_555
C7 C6 1_555 1_555
H9 C7 1_555 1_555
C8 C7 1_555 1_555
H10 C8 1_555 1_555
C9 C6 1_555 1_555
C10 C9 1_555 1_555
H11 C10 1_555 1_555
C11 O2 1_555 1_555
H12 C11 1_555 1_555
H13 C11 1_555 1_555
H14 C11 1_555 1_555
Zn1C N1P 1_555 1_555
Zn1C_2 N1O 1_555 1_555
Zn1C_3 N1Q 1_555 1_555
O1O C5O 1_555 1_555
O1A C5A 1_555 1_555
O1P C5P 1_555 1_555
O1B C5B 1_555 1_555
O1Q C5Q 1_555 1_555
O3B N3 1_555 1_555
N1O C1O 1_555 1_555
N1A Zn1 1_555 1_555
N1P C1P 1_555 1_555
N1B Zn1 1_555 1_555
N1Q C1Q 1_555 1_555
N1I Zn1 1_555 1_555
N1J Zn1 1_555 1_555
N1K Zn1 1_555 1_555
N2O C2O 1_555 1_555
N2A C2A 1_555 1_555
N2P C2P 1_555 1_555
N2B C2B 1_555 1_555
N2Q C2Q 1_555 1_555
C1O H2O 1_555 1_555
C1A N1A 1_555 1_555
C1P H2P 1_555 1_555
C1B N1B 1_555 1_555
C1Q H2Q 1_555 1_555
H2A C1A 1_555 1_555
H2B C1B 1_555 1_555
C2O C1O 1_555 1_555
C2A C1A 1_555 1_555
C2P C1P 1_555 1_555
C2B C1B 1_555 1_555
C2Q C1Q 1_555 1_555
H3O C2O 1_555 1_555
H3A C2A 1_555 1_555
H3P C2P 1_555 1_555
H3B C2B 1_555 1_555
H3Q C2Q 1_555 1_555
C3O N1O 1_555 1_555
C3A N1A 1_555 1_555
C3P N1P 1_555 1_555
C3B N1B 1_555 1_555
C3Q N1Q 1_555 1_555
H4O C3O 1_555 1_555
H4A C3A 1_555 1_555
H4P C3P 1_555 1_555
H4B C3B 1_555 1_555
H4Q C3Q 1_555 1_555
C4O N2O 1_555 1_555
C4A N2A 1_555 1_555
C4P N2P 1_555 1_555
C4B N2B 1_555 1_555
C4Q N2Q 1_555 1_555
H5O C4O 1_555 1_555
H5A C4A 1_555 1_555
H5P C4P 1_555 1_555
H5B C4B 1_555 1_555
H5Q C4Q 1_555 1_555
H6O C4O 1_555 1_555
H6A C4A 1_555 1_555
H6P C4P 1_555 1_555
H6B C4B 1_555 1_555
H6Q C4Q 1_555 1_555
C5O C4O 1_555 1_555
C5A C4A 1_555 1_555
C5P C4P 1_555 1_555
C5B C4B 1_555 1_555
C5Q C4Q 1_555 1_555
H7O C5O 1_555 1_555
H7A C5A 1_555 1_555
H7P C5P 1_555 1_555
H7B C5B 1_555 1_555
H7Q C5Q 1_555 1_555
H8O C5O 1_555 1_555
H8A C5A 1_555 1_555
H8P C5P 1_555 1_555
H8B C5B 1_555 1_555
H8Q C5Q 1_555 1_555
C6O O1O 1_555 1_555
C6A O1A 1_555 1_555
C6P O1P 1_555 1_555
C6B O1B 1_555 1_555
C6Q O1Q 1_555 1_555
C7O C6O 1_555 1_555
C7A C6A 1_555 1_555
C7P C6P 1_555 1_555
C7B C6B 1_555 1_555
C7Q C6Q 1_555 1_555
H9O C7O 1_555 1_555
H9A C7A 1_555 1_555
H9P C7P 1_555 1_555
H9B C7B 1_555 1_555
H9Q C7Q 1_555 1_555
C8O C10 1_555 1_555
C8A C7A 1_555 1_555
C8P C7P 1_555 1_555
C8B C7B 1_555 1_555
C8Q C7Q 1_555 1_555
H10O C8O 1_555 1_555
H10A C8A 1_555 1_555
H10P C8P 1_555 1_555
H10B C8B 1_555 1_555
H10Q C8Q 1_555 1_555
C9O C9 1_555 1_555
C9A C6A 1_555 1_555
C9P C6P 1_555 1_555
C9B C6B 1_555 1_555
C9Q C6Q 1_555 1_555
C10O C8 1_555 1_555
C10A C8P 1_555 1_555
C10P C8A 1_555 1_555
C10B C8Q 1_555 1_555
C10Q C8B 1_555 1_555
H11O C10O 1_555 1_555
H11A C10A 1_555 1_555
H11P C10P 1_555 1_555
H11B C10B 1_555 1_555
H11Q C10Q 1_555 1_555
N2 C3 1_555 1_555
N2O C3O 1_555 1_555
N2A C3A 1_555 1_555
N2P C3P 1_555 1_555
N2B C3B 1_555 1_555
N2Q C3Q 1_555 1_555
C6O C9O 1_555 1_555
C7O C8O 1_555 1_555
C9O C10O 1_555 1_555
C9A C9P 1_555 1_555
C9A C10A 1_555 1_555
C9P C10P 1_555 1_555
C9B C9Q 1_555 1_555
C9B C10B 1_555 1_555
C9Q C10Q 1_555 1_555

#END
