
#######################################################################
#
#                 Cambridge Crystallographic Data Centre
#                                CCDC 
#
#######################################################################
#
# If this CIF has been generated from an entry in the Cambridge 
# Structural Database, then it will include bibliographic, chemical, 
# crystal, experimental, refinement or atomic coordinate data resulting 
# from the CCDC's data processing and validation procedures.
#
#######################################################################

data_BUYRIX
_symmetry_cell_setting           monoclinic
_symmetry_space_group_name_H-M   'P 21/a'
_symmetry_Int_Tables_number      14
_space_group_name_Hall           '-P 2yab'
loop_
_symmetry_equiv_pos_site_id
_symmetry_equiv_pos_as_xyz
1 x,y,z
2 1/2-x,1/2+y,-z
3 -x,-y,-z
4 1/2+x,1/2-y,z
_cell_length_a                   7.179(3)
_cell_length_b                   19.629(12)
_cell_length_c                   9.921(8)
_cell_angle_alpha                90
_cell_angle_beta                 108.21(5)
_cell_angle_gamma                90
_cell_volume                     1328.02
loop_
_atom_site_label
_atom_site_type_symbol
_atom_site_fract_x
_atom_site_fract_y
_atom_site_fract_z
Cu1 Cu 0.94065(6) 0.23647(2) 0.41171(5)
O1 O 0.8960(4) 0.32572(12) 0.4639(3)
C1 C 0.9412(4) 0.35042(17) 0.5935(4)
N1 N 0.9436(4) 0.20168(14) 0.5997(3)
C2 C 0.9440(5) 0.12658(18) 0.6024(4)
C3 C 0.9743(4) 0.23567(18) 0.7171(4)
C4 C 0.9487(5) 0.42249(18) 0.6067(4)
N2 N 0.9487(5) 0.32372(18) 0.1992(3)
C5 C 0.9117(6) 0.1170(2) 0.2136(5)
C6 C 0.9760(4) 0.31065(18) 0.7175(4)
C7 C 1.0138(6) 0.3462(2) 0.8479(4)
C8 C 1.0150(7) 0.1986(3) 0.8566(5)
C9 C 0.9883(5) 0.4542(2) 0.7350(5)
N3 N 0.8840(6) 0.3739(2) 0.1478(4)
C10 C 0.8729(5) 0.10018(18) 0.4513(4)
C11 C 0.9672(8) 0.0449(2) 0.1887(6)
C12 C 1.0198(6) 0.4156(2) 0.8574(5)
N4 N 0.9708(4) 0.13813(15) 0.3637(3)
N5 N 1.0224(6) 0.27099(17) 0.2510(5)
H1 H 0.922(5) 0.4471(17) 0.518(4)
H2 H 0.991(6) 0.497(2) 0.732(4)
H3 H 1.040(6) 0.439(2) 0.946(4)
H4 H 1.030(7) 0.321(2) 0.929(5)
H5 H 0.894(5) 0.048(2) 0.460(4)
H6 H 0.732(6) 0.108(2) 0.415(4)
H7 H 0.860(5) 0.111(2) 0.663(4)
H8 H 0.966(6) 0.145(2) 0.169(4)
H9 H 0.921(8) 0.029(3) 0.087(6)
H10 H 1.077(6) 0.109(2) 0.652(4)
H11 H 0.769(7) 0.121(2) 0.183(4)
H12 H 1.090(6) 0.1280(19) 0.397(4)
H13 H 1.112(8) 0.039(3) 0.233(5)
H14 H 0.905(10) 0.010(4) 0.235(6)
H15 H 1.118(8) 0.168(3) 0.880(5)
H16 H 0.939(8) 0.224(3) 0.915(6)
H17 H 0.915(8) 0.166(3) 0.853(6)
Cu1C Cu 1.44065(6) 0.26353(2) 0.41171(5)
N5C N 0.5224(6) 0.22901(17) 0.2510(5)
loop_
_geom_bond_atom_site_label_1
_geom_bond_atom_site_label_2
_geom_bond_site_symmetry_1
_geom_bond_site_symmetry_2
Cu1 O1 1_555 1_555
O1 C1 1_555 1_555
C1 C4 1_555 1_555
N1 Cu1 1_555 1_555
C2 N1 1_555 1_555
C3 N1 1_555 1_555
C4 C9 1_555 1_555
N2 N3 1_555 1_555
C5 C11 1_555 1_555
C6 C1 1_555 1_555
C7 C6 1_555 1_555
C8 C3 1_555 1_555
C9 C12 1_555 1_555
C10 C2 1_555 1_555
C11 H9 1_555 1_555
C12 C7 1_555 1_555
N4 Cu1 1_555 1_555
N5 Cu1 1_555 1_555
H1 C4 1_555 1_555
H2 C9 1_555 1_555
H3 C12 1_555 1_555
H4 C7 1_555 1_555
H5 C10 1_555 1_555
H6 C10 1_555 1_555
H7 C2 1_555 1_555
H8 C5 1_555 1_555
H10 C2 1_555 1_555
H11 C5 1_555 1_555
H12 N4 1_555 1_555
H13 C11 1_555 1_555
H14 C11 1_555 1_555
H15 C8 1_555 1_555
H16 C8 1_555 1_555
H17 C8 1_555 1_555
Cu1C N5 1_555 1_555
N5C Cu1 1_555 1_555
C3 C6 1_555 1_555
N2 N5 1_555 1_555
C5 N4 1_555 1_555
C10 N4 1_555 1_555

#END
