
#######################################################################
#
#                 Cambridge Crystallographic Data Centre
#                                CCDC 
#
#######################################################################
#
# If this CIF has been generated from an entry in the Cambridge 
# Structural Database, then it will include bibliographic, chemical, 
# crystal, experimental, refinement or atomic coordinate data resulting 
# from the CCDC's data processing and validation procedures.
#
#######################################################################

data_BUYTUL
_symmetry_cell_setting           orthorhombic
_symmetry_space_group_name_H-M   'P c a 21'
_symmetry_Int_Tables_number      29
_space_group_name_Hall           'P 2c -2ac'
loop_
_symmetry_equiv_pos_site_id
_symmetry_equiv_pos_as_xyz
1 x,y,z
2 -x,-y,1/2+z
3 1/2-x,y,1/2+z
4 1/2+x,-y,z
_cell_length_a                   26.1038(10)
_cell_length_b                   9.5374(3)
_cell_length_c                   15.3152(4)
_cell_angle_alpha                90
_cell_angle_beta                 90
_cell_angle_gamma                90
_cell_volume                     3812.91
loop_
_atom_site_label
_atom_site_type_symbol
_atom_site_fract_x
_atom_site_fract_y
_atom_site_fract_z
Sn1 Sn 0.01565(6) 0.5002(2) 0.18561(11)
Sn2 Sn 0.27171(7) -0.04093(18) -0.05520(11)
Cu1 Cu 0.09864(11) 0.2244(3) -0.07884(19)
N1 N 0.0571(10) 0.350(2) 0.0983(15)
C1 C 0.0712(11) 0.297(3) 0.0385(18)
C2 C 0.0744(9) 0.476(2) 0.2816(15)
C3 C -0.0432(11) 0.350(3) 0.1953(19)
N2 N 0.1989(10) 0.058(2) -0.0852(14)
C4 C 0.2383(11) -0.241(3) -0.029(2)
C5 C 0.2905(12) 0.099(3) 0.0508(19)
C6 C 0.0332(13) 0.883(3) -0.028(2)
C7 C 0.0227(9) 0.668(2) 0.0927(16)
C8 C 0.3098(10) -0.024(2) -0.1737(15)
C9 C 0.2354(17) -0.449(4) 0.060(3)
C10 C -0.0970(11) 0.384(3) 0.198(2)
C11 C -0.1335(16) 0.284(4) 0.211(3)
C12 C 0.2004(13) -0.290(3) -0.080(3)
C13 C -0.0006(14) 0.788(3) 0.103(2)
C14 C -0.0355(12) 0.213(3) 0.2103(19)
C15 C 0.3516(13) 0.216(3) 0.137(2)
C16 C 0.0545(14) 0.770(3) -0.042(2)
C17 C -0.0751(13) 0.118(3) 0.216(2)
C18 C 0.0477(14) 0.655(3) 0.020(2)
C19 C 0.3718(17) 0.097(5) -0.272(3)
C20 C 0.011(2) 0.905(5) 0.050(3)
C21 C -0.1230(12) 0.154(3) 0.2212(19)
C22 C 0.1220(15) 0.503(3) 0.263(2)
C23 C 0.2551(15) -0.325(4) 0.030(2)
C24 C 0.3393(12) 0.135(3) 0.0689(19)
C25 C 0.318(2) 0.252(5) 0.190(4)
C26 C 0.2007(18) -0.508(4) 0.007(3)
C27 C 0.3399(15) 0.077(4) -0.194(2)
C28 C 0.3388(12) -0.122(3) -0.306(2)
C29 C 0.161(2) 0.498(5) 0.339(4)
C30 C 0.3117(12) -0.118(3) -0.236(2)
C31 C 0.1385(16) 0.454(4) 0.413(3)
C32 C 0.2652(14) 0.226(4) 0.187(3)
C33 C 0.1823(16) -0.426(4) -0.072(3)
C34 C 0.2529(13) 0.144(3) 0.105(2)
C35 C 0.3704(15) -0.014(4) -0.320(3)
C36 C 0.0588(16) 0.423(4) 0.362(2)
C37 C 0.0964(17) 0.401(4) 0.425(3)
C38 C 0.1587(12) 0.119(3) -0.0867(15)
N3 N 0.0316(10) 0.353(2) -0.2249(15)
C39 C 0.0565(13) 0.303(3) -0.1737(18)
H1 H 0.031124 0.950834 -0.073865
H2 H 0.246732 -0.488874 0.114483
H3 H -0.107241 0.479863 0.188657
H4 H -0.168733 0.312868 0.213423
H5 H 0.186219 -0.228692 -0.123708
H6 H -0.026070 0.797690 0.148126
H7 H -0.000939 0.179867 0.216028
H8 H 0.386413 0.245325 0.145529
H9 H 0.076999 0.759535 -0.091491
H10 H -0.068345 0.019298 0.216774
H11 H 0.062620 0.565714 0.005623
H12 H 0.004219 1.000079 0.067571
H13 H -0.149661 0.087631 0.233408
H14 H 0.286542 -0.300300 0.059101
H15 H 0.366596 0.103804 0.031689
H16 H 0.328116 0.308001 0.239088
H17 H 0.187501 -0.598433 0.023023
H18 H 0.343337 0.152632 -0.152745
H19 H 0.338192 -0.202024 -0.344284
H20 H 0.196266 0.518305 0.330867
H21 H 0.288491 -0.195599 -0.232880
H22 H 0.157605 0.467197 0.466259
H23 H 0.160253 -0.466041 -0.115794
H24 H 0.217913 0.121791 0.091540
H25 H 0.391075 -0.015837 -0.371304
H26 H 0.023594 0.398862 0.372303
H27 H 0.089142 0.348558 0.476568
H28 H 0.243546 0.256839 0.233454
H29 H 0.390789 0.182115 -0.280488
H30 H 0.131645 0.526205 0.204326
Sn1A Sn -0.01565(6) 0.4998(2) -0.31439(11)
N3A N -0.0316(10) 0.647(2) 0.2751(15)
loop_
_geom_bond_atom_site_label_1
_geom_bond_atom_site_label_2
_geom_bond_site_symmetry_1
_geom_bond_site_symmetry_2
Sn1 N1 1_555 1_555
Sn2 N2 1_555 1_555
Cu1 C1 1_555 1_555
N1 C1 1_555 1_555
C2 Sn1 1_555 1_555
C3 Sn1 1_555 1_555
N2 C38 1_555 1_555
C4 Sn2 1_555 1_555
C5 Sn2 1_555 1_555
C6 C16 1_555 1_555
C7 Sn1 1_555 1_555
C8 Sn2 1_555 1_555
C9 C23 1_555 1_555
C10 C3 1_555 1_555
C11 C10 1_555 1_555
C12 C4 1_555 1_555
C13 C7 1_555 1_555
C14 C3 1_555 1_555
C15 C24 1_555 1_555
C16 C18 1_555 1_555
C17 C14 1_555 1_555
C18 C7 1_555 1_555
C19 C27 1_555 1_555
C20 C6 1_555 1_555
C21 C11 1_555 1_555
C22 C2 1_555 1_555
C23 C4 1_555 1_555
C24 C5 1_555 1_555
C25 C15 1_555 1_555
C26 C9 1_555 1_555
C27 C8 1_555 1_555
C28 C30 1_555 1_555
C29 C22 1_555 1_555
C30 C8 1_555 1_555
C31 C29 1_555 1_555
C32 C25 1_555 1_555
C33 C12 1_555 1_555
C34 C5 1_555 1_555
C35 C19 1_555 1_555
C36 C2 1_555 1_555
C37 C31 1_555 1_555
C38 Cu1 1_555 1_555
N3 C39 1_555 1_555
C39 Cu1 1_555 1_555
H1 C6 1_555 1_555
H2 C9 1_555 1_555
H3 C10 1_555 1_555
H4 C11 1_555 1_555
H5 C12 1_555 1_555
H6 C13 1_555 1_555
H7 C14 1_555 1_555
H8 C15 1_555 1_555
H9 C16 1_555 1_555
H10 C17 1_555 1_555
H11 C18 1_555 1_555
H12 C20 1_555 1_555
H13 C21 1_555 1_555
H14 C23 1_555 1_555
H15 C24 1_555 1_555
H16 C25 1_555 1_555
H17 C26 1_555 1_555
H18 C27 1_555 1_555
H19 C28 1_555 1_555
H20 C29 1_555 1_555
H21 C30 1_555 1_555
H22 C31 1_555 1_555
H23 C33 1_555 1_555
H24 C34 1_555 1_555
H25 C35 1_555 1_555
H26 C36 1_555 1_555
H27 C37 1_555 1_555
H28 C32 1_555 1_555
H29 C19 1_555 1_555
H30 C22 1_555 1_555
Sn1A N3 1_555 1_555
N3A Sn1 1_555 1_555
C13 C20 1_555 1_555
C17 C21 1_555 1_555
C26 C33 1_555 1_555
C28 C35 1_555 1_555
C32 C34 1_555 1_555
C36 C37 1_555 1_555

#END
