
#######################################################################
#
#                 Cambridge Crystallographic Data Centre
#                                CCDC 
#
#######################################################################
#
# If this CIF has been generated from an entry in the Cambridge 
# Structural Database, then it will include bibliographic, chemical, 
# crystal, experimental, refinement or atomic coordinate data resulting 
# from the CCDC's data processing and validation procedures.
#
#######################################################################

data_BUYYEA
_symmetry_cell_setting           hexagonal
_symmetry_space_group_name_H-M   'P 64 2 2'
_symmetry_Int_Tables_number      181
_space_group_name_Hall           "P 64 2' (0,0,2)"
loop_
_symmetry_equiv_pos_site_id
_symmetry_equiv_pos_as_xyz
1 x,y,z
2 -x,-y,z
3 -y,-x,1/3-z
4 y,x,1/3-z
5 x-y,-y,-z
6 -x+y,y,-z
7 x,x-y,2/3-z
8 -x,-x+y,2/3-z
9 -y,x-y,1/3+z
10 y,-x+y,1/3+z
11 x-y,x,2/3+z
12 -x+y,-x,2/3+z
_cell_length_a                   11.7020(4)
_cell_length_b                   11.7020(4)
_cell_length_c                   18.720(1)
_cell_angle_alpha                90
_cell_angle_beta                 90
_cell_angle_gamma                120
_cell_volume                     2220.02
loop_
_atom_site_label
_atom_site_type_symbol
_atom_site_fract_x
_atom_site_fract_y
_atom_site_fract_z
Fe1 Fe 1.0000 1.0000 0.3333
O1 O 1.1452(2) 1.0843(3) 0.41230(13)
H1 H 1.2122 1.0790 0.4202
H2 H 1.1469 1.1373 0.4392
N1 N 1.0000 1.1937(3) 0.3333
C1 C 0.8913(3) 1.2006(3) 0.34685(17)
H6 H 0.8138 1.1222 0.3565
C2 C 0.8862(3) 1.3164(3) 0.34746(17)
H7 H 0.8072 1.3143 0.3572
C3 C 1.0000 1.4358(3) 0.3333
Fe1_2 Fe 1.0000 2.0000 0.3333
O1A O 0.8548(2) 0.9157(3) 0.41230(13)
O1F O 1.1452(2) 1.0609(4) 0.25437(13)
O1G O 0.8548(2) 0.9391(4) 0.25437(13)
H1A H 0.7878 0.9210 0.4202
H1F H 1.2122 1.1332 0.2465
H1G H 0.7878 0.8668 0.2465
H2A H 0.8531 0.8627 0.4392
H2F H 1.1469 1.0096 0.2275
H2G H 0.8531 0.9904 0.2275
N1A N 1.0000 1.8063(3) 0.3333
N1A_2 N 1.0000 0.8063(3) 0.3333
C1A C 1.1087(3) 1.7994(3) 0.34685(17)
C1F C 0.8913(3) 1.6907(4) 0.31982(17)
C1G C 1.1087(3) 1.3093(4) 0.31982(17)
H6A H 1.1862 1.8778 0.3565
H6F H 0.8138 1.6916 0.3102
H6G H 1.1862 1.3084 0.3102
C2A C 1.1138(3) 1.6836(3) 0.34746(17)
C2F C 0.8862(3) 1.5698(4) 0.31921(17)
C2G C 1.1138(3) 1.4302(4) 0.31921(17)
H7A H 1.1928 1.6857 0.3572
H7F H 0.8072 1.4929 0.3095
H7G H 1.1928 1.5071 0.3095
C3A C 1.0000 1.5642(3) 0.3333
O2 O 1.13446(14) 1.2689(3) 0.5000
O3 O 1.5165(2) 1.6529(2) 0.45795(15)
N2 N 1.3248(3) 1.4630(3) 0.48100(13)
C4 C 1.1956(2) 1.3912(4) 0.5000
C5 C 1.3976(4) 1.6001(4) 0.47891(16)
C6 C 1.3340(2) 1.6681(5) 0.5000
H8 H 1.3799 1.7598 0.5000
H9 H 1.365(3) 1.421(3) 0.4712(15)
O3E O 1.1364(3) 1.6529(2) 0.54205(15)
N2E N 1.1382(4) 1.4630(3) 0.51900(13)
C5E C 1.2025(6) 1.6001(4) 0.52109(16)
H9E H 1.056(4) 1.421(3) 0.5288(15)
O4 O 1.3660(3) 1.0793(3) 0.4408(2)
H3 H 1.4196 1.0686 0.4146
H4 H 1.3989 1.1588 0.4550
O5 O 1.5000 1.0000 0.3540(3)
H5 H 1.5627 1.0241 0.3270
H5A H 1.4373 0.9759 0.3270
loop_
_geom_bond_atom_site_label_1
_geom_bond_atom_site_label_2
_geom_bond_site_symmetry_1
_geom_bond_site_symmetry_2
Fe1 O1 1_555 1_555
O1 H1 1_555 1_555
H2 O1 1_555 1_555
O2 C4 1_555 1_555
O3 C5 1_555 1_555
O4 H3 1_555 1_555
H4 O4 1_555 1_555
O5 H5 1_555 1_555
N1 Fe1 1_555 1_555
N2 C4 1_555 1_555
C1 N1 1_555 1_555
H6 C1 1_555 1_555
C2 C1 1_555 1_555
H7 C2 1_555 1_555
C3 C2 1_555 1_555
C4 N2E 1_555 1_555
C5 N2 1_555 1_555
C6 C5 1_555 1_555
H8 C6 1_555 1_555
H9 N2 1_555 1_555
Fe1_2 N1A 1_555 1_555
O1A Fe1 1_555 1_555
O1F Fe1 1_555 1_555
O1G Fe1 1_555 1_555
H1A O1A 1_555 1_555
H1F O1F 1_555 1_555
H1G O1G 1_555 1_555
H2A O1A 1_555 1_555
H2F O1F 1_555 1_555
H2G O1G 1_555 1_555
O3E C5E 1_555 1_555
H5A O5 1_555 1_555
N1A C1A 1_555 1_555
N1A_2 Fe1 1_555 1_555
N2E C5E 1_555 1_555
C1A H6A 1_555 1_555
C1F N1A 1_555 1_555
C1G N1 1_555 1_555
H6F C1F 1_555 1_555
H6G C1G 1_555 1_555
C2A C1A 1_555 1_555
C2F C1F 1_555 1_555
C2G C3 1_555 1_555
H7A C2A 1_555 1_555
H7F C2F 1_555 1_555
H7G C2G 1_555 1_555
C3A C3 1_555 1_555
C5E C6 1_555 1_555
H9E N2E 1_555 1_555
C1G C2G 1_555 1_555
C2A C3A 1_555 1_555
C2F C3A 1_555 1_555

#END
