
#######################################################################
#
#                 Cambridge Crystallographic Data Centre
#                                CCDC 
#
#######################################################################
#
# If this CIF has been generated from an entry in the Cambridge 
# Structural Database, then it will include bibliographic, chemical, 
# crystal, experimental, refinement or atomic coordinate data resulting 
# from the CCDC's data processing and validation procedures.
#
#######################################################################

data_BUZBII
_symmetry_cell_setting           triclinic
_symmetry_space_group_name_H-M   'P -1'
_symmetry_Int_Tables_number      2
_space_group_name_Hall           '-P 1'
loop_
_symmetry_equiv_pos_site_id
_symmetry_equiv_pos_as_xyz
1 x,y,z
2 -x,-y,-z
_cell_length_a                   8.043(4)
_cell_length_b                   9.319(5)
_cell_length_c                   10.769(6)
_cell_angle_alpha                109.342(5)
_cell_angle_beta                 99.823(7)
_cell_angle_gamma                101.808(7)
_cell_volume                     720.233
loop_
_atom_site_label
_atom_site_type_symbol
_atom_site_fract_x
_atom_site_fract_y
_atom_site_fract_z
Mn1 Mn 0.32909(8) 0.02255(6) 0.84850(5)
N1 N 0.3497(4) -0.1767(4) 0.6634(3)
N2 N 0.3247(4) -0.7871(4) 0.0471(3)
O1 O 0.0510(4) 0.0091(4) 0.7450(3)
O2 O 0.2734(4) 0.1745(4) 0.7311(3)
O3 O 0.2386(4) -0.1551(3) 0.9188(3)
O4 O 0.4020(4) -0.1292(4) 1.1172(3)
C1 C 0.1104(6) 0.1170(5) 0.7079(4)
C2 C -0.0135(8) 0.1805(7) 0.6319(6)
H1 H 0.0535 0.2631 0.6108
H2 H -0.0870 0.2223 0.6877
H3 H -0.0856 0.0964 0.5489
C3 C 0.2684(6) -0.1903(4) 1.0200(4)
C4 C 0.1287(7) -0.3224(6) 1.0223(5)
H4 H 0.0333 -0.3592 0.9421
H5 H 0.0863 -0.2848 1.1018
H6 H 0.1768 -0.4079 1.0244
C5 C 0.4513(6) -0.1523(5) 0.5834(4)
H7 H 0.5268 -0.0513 0.6101
C6 C 0.4529(6) -0.2654(4) 0.4642(4)
H8 H 0.5268 -0.2396 0.4124
C7 C 0.3444(5) -0.4183(4) 0.4207(4)
C8 C 0.2421(6) -0.4453(5) 0.5063(4)
H9 H 0.1685 -0.5460 0.4841
C9 C 0.2486(6) -0.3247(5) 0.6233(4)
H10 H 0.1781 -0.3473 0.6783
C10 C 0.4229(6) -0.6385(5) 0.0845(4)
H11 H 0.4882 -0.6154 0.0266
C11 C 0.4334(6) -0.5181(5) 0.2027(4)
H12 H 0.5052 -0.4169 0.2237
C12 C 0.3371(5) -0.5465(4) 0.2914(4)
C13 C 0.2353(5) -0.7004(4) 0.2522(4)
H13 H 0.1689 -0.7271 0.3082
C14 C 0.2317(5) -0.8141(5) 0.1314(4)
H14 H 0.1597 -0.9160 0.1072
Mn1A Mn 0.67091(8) -0.02255(6) 1.15150(5)
Mn1_2 Mn 0.32909(8) -0.97745(6) -0.15150(5)
Mn1A_2 Mn 0.67091(8) 0.97745(6) 2.15150(5)
N1A N 0.6503(4) 0.1767(4) 1.3366(3)
N2A N 0.6753(4) 0.7871(4) 1.9529(3)
N2_2 N 0.3247(4) 0.2129(4) 1.0471(3)
N2A_2 N 0.6753(4) -0.2129(4) 0.9529(3)
O1A O 0.9490(4) -0.0091(4) 1.2550(3)
O2A O 0.7266(4) -0.1745(4) 1.2689(3)
O3A O 0.7614(4) 0.1551(3) 1.0812(3)
O4A O 0.5980(4) 0.1292(4) 0.8828(3)
C1A C 0.8896(6) -0.1170(5) 1.2921(4)
C2A C 1.0135(8) -0.1805(7) 1.3681(6)
H1A H 0.9465 -0.2631 1.3892
H2A H 1.0870 -0.2223 1.3123
H3A H 1.0856 -0.0964 1.4511
C3A C 0.7316(6) 0.1903(4) 0.9800(4)
C4A C 0.8713(7) 0.3224(6) 0.9777(5)
H4A H 0.9667 0.3592 1.0579
H5A H 0.9137 0.2848 0.8982
H6A H 0.8232 0.4079 0.9756
C5A C 0.5487(6) 0.1523(5) 1.4166(4)
H7A H 0.4732 0.0513 1.3899
C6A C 0.5471(6) 0.2654(4) 1.5358(4)
H8A H 0.4732 0.2396 1.5876
C7A C 0.6556(5) 0.4183(4) 1.5793(4)
C8A C 0.7579(6) 0.4453(5) 1.4937(4)
H9A H 0.8315 0.5460 1.5159
C9A C 0.7514(6) 0.3247(5) 1.3767(4)
H10A H 0.8219 0.3473 1.3217
C10A C 0.5771(6) 0.6385(5) 1.9155(4)
H11A H 0.5118 0.6154 1.9734
C11A C 0.5666(6) 0.5181(5) 1.7973(4)
H12A H 0.4948 0.4169 1.7763
C12A C 0.6629(5) 0.5465(4) 1.7086(4)
C13A C 0.7647(5) 0.7004(4) 1.7478(4)
H13A H 0.8311 0.7271 1.6918
C14A C 0.7683(5) 0.8141(5) 1.8686(4)
H14A H 0.8403 0.9160 1.8928
loop_
_geom_bond_atom_site_label_1
_geom_bond_atom_site_label_2
_geom_bond_site_symmetry_1
_geom_bond_site_symmetry_2
Mn1 N1 1_555 1_555
N1 C5 1_555 1_555
N2 C10 1_555 1_555
O1 Mn1 1_555 1_555
O2 Mn1 1_555 1_555
O3 Mn1 1_555 1_555
O4 C3 1_555 1_555
C1 O1 1_555 1_555
C2 C1 1_555 1_555
H1 C2 1_555 1_555
H2 C2 1_555 1_555
H3 C2 1_555 1_555
C3 O3 1_555 1_555
C4 C3 1_555 1_555
H4 C4 1_555 1_555
H5 C4 1_555 1_555
H6 C4 1_555 1_555
C5 H7 1_555 1_555
C6 C5 1_555 1_555
H8 C6 1_555 1_555
C7 C6 1_555 1_555
C8 C7 1_555 1_555
H9 C8 1_555 1_555
C9 N1 1_555 1_555
H10 C9 1_555 1_555
C10 H11 1_555 1_555
C11 C10 1_555 1_555
H12 C11 1_555 1_555
C12 C7 1_555 1_555
C13 C12 1_555 1_555
H13 C13 1_555 1_555
C14 N2 1_555 1_555
H14 C14 1_555 1_555
Mn1A O4 1_555 1_555
Mn1_2 N2 1_555 1_555
Mn1A_2 N2A 1_555 1_555
N1A Mn1A 1_555 1_555
N2A C10A 1_555 1_555
N2_2 Mn1 1_555 1_555
N2A_2 Mn1A 1_555 1_555
O1A Mn1A 1_555 1_555
O2A Mn1A 1_555 1_555
O3A Mn1A 1_555 1_555
O4A Mn1 1_555 1_555
C1A O1A 1_555 1_555
C2A C1A 1_555 1_555
H1A C2A 1_555 1_555
H2A C2A 1_555 1_555
H3A C2A 1_555 1_555
C3A O3A 1_555 1_555
C4A C3A 1_555 1_555
H4A C4A 1_555 1_555
H5A C4A 1_555 1_555
H6A C4A 1_555 1_555
C5A N1A 1_555 1_555
H7A C5A 1_555 1_555
C6A C5A 1_555 1_555
H8A C6A 1_555 1_555
C7A C6A 1_555 1_555
C8A C7A 1_555 1_555
H9A C8A 1_555 1_555
C9A N1A 1_555 1_555
H10A C9A 1_555 1_555
C10A H11A 1_555 1_555
C11A C10A 1_555 1_555
H12A C11A 1_555 1_555
C12A C7A 1_555 1_555
C13A C12A 1_555 1_555
H13A C13A 1_555 1_555
C14A N2A 1_555 1_555
H14A C14A 1_555 1_555
O2 C1 1_555 1_555
C8 C9 1_555 1_555
C11 C12 1_555 1_555
C13 C14 1_555 1_555
O2A C1A 1_555 1_555
O4A C3A 1_555 1_555
C8A C9A 1_555 1_555
C11A C12A 1_555 1_555
C13A C14A 1_555 1_555

#END
