
#######################################################################
#
#                 Cambridge Crystallographic Data Centre
#                                CCDC 
#
#######################################################################
#
# If this CIF has been generated from an entry in the Cambridge 
# Structural Database, then it will include bibliographic, chemical, 
# crystal, experimental, refinement or atomic coordinate data resulting 
# from the CCDC's data processing and validation procedures.
#
#######################################################################

data_BUZCEF
_symmetry_cell_setting           monoclinic
_symmetry_space_group_name_H-M   'C 2/c'
_symmetry_Int_Tables_number      15
_space_group_name_Hall           '-C 2yn'
loop_
_symmetry_equiv_pos_site_id
_symmetry_equiv_pos_as_xyz
1 x,y,z
2 -x,y,1/2-z
3 1/2+x,1/2+y,z
4 1/2-x,1/2+y,1/2-z
5 -x,-y,-z
6 x,-y,1/2+z
7 1/2-x,1/2-y,-z
8 1/2+x,1/2-y,1/2+z
_cell_length_a                   24.098(7)
_cell_length_b                   11.347(3)
_cell_length_c                   9.692(2)
_cell_angle_alpha                90
_cell_angle_beta                 99.173(7)
_cell_angle_gamma                90
_cell_volume                     2616.29
loop_
_atom_site_label
_atom_site_type_symbol
_atom_site_fract_x
_atom_site_fract_y
_atom_site_fract_z
Ni1 Ni 0.0000 0.0000 0.0000
N1 N 0.07574(16) -0.0777(4) 0.0134(4)
O1 O 0.0000 -0.0613(5) 0.2500
O2 O 0.03407(13) 0.1502(3) 0.0672(4)
O3 O 0.09115(16) 0.1836(4) -0.0898(4)
O4 O 0.1972(2) 0.2245(5) 0.0969(6)
H1 H 0.2148 0.2330 0.1760
O5 O 0.2115(2) 0.3812(5) -0.0286(7)
O6 O 0.0000 0.6709(5) 0.2500
C1 C 0.0876(2) -0.1505(5) -0.0859(6)
H2 H 0.0601 -0.1645 -0.1630
C2 C 0.1378(3) -0.2050(7) -0.0795(7)
H3 H 0.1442 -0.2542 -0.1520
C3 C 0.1794(3) -0.1884(9) 0.0329(7)
C4 C 0.1685(3) -0.1123(7) 0.1321(7)
H4 H 0.1962 -0.0955 0.2078
C5 C 0.1170(2) -0.0596(6) 0.1222(6)
H5 H 0.1102 -0.0092 0.1934
C6 C 0.2358(4) -0.2543(15) 0.0478(10)
H6 H 0.2484 -0.2996 0.1267
C7 C 0.0688(2) 0.2119(5) 0.0111(5)
C8 C 0.0813(2) 0.3300(4) 0.0804(5)
C9 C 0.1337(2) 0.3858(5) 0.0878(5)
C10 C 0.1407(2) 0.4975(5) 0.1487(7)
H7 H 0.1750 0.5358 0.1533
C11 C 0.0975(3) 0.5523(5) 0.2024(6)
H8 H 0.1031 0.6264 0.2432
C12 C 0.0462(2) 0.4972(5) 0.1953(5)
C13 C 0.0389(2) 0.3877(4) 0.1348(5)
H9 H 0.0042 0.3508 0.1301
C14 C 0.1836(2) 0.3297(6) 0.0409(7)
C15 C 0.0000 0.5624(6) 0.2500
H10 H -0.0228(19) -0.111(4) 0.212(6)
Ni1A Ni 0.0000 0.0000 0.5000
Ni1B Ni 0.5000 -0.5000 0.0000
N1F N 0.42426(16) -0.4223(4) -0.0134(4)
N1D N -0.07574(16) 0.0777(4) -0.0134(4)
O1D O 0.0000 0.0613(5) -0.2500
O2A O -0.03407(13) 0.1502(3) 0.4328(4)
O2D O -0.03407(13) -0.1502(3) -0.0672(4)
O3A O -0.09115(16) 0.1836(4) 0.5898(4)
O4A O -0.1972(2) 0.2245(5) 0.4031(6)
H1A H -0.2148 0.2330 0.3240
O5A O -0.2115(2) 0.3812(5) 0.5286(7)
C1F C 0.4124(2) -0.3495(5) 0.0859(6)
H2F H 0.4399 -0.3355 0.1630
C2F C 0.3622(3) -0.2950(7) 0.0795(7)
H3F H 0.3558 -0.2458 0.1520
C3F C 0.3206(3) -0.3116(9) -0.0329(7)
C4F C 0.3315(3) -0.3877(7) -0.1321(7)
H4F H 0.3038 -0.4045 -0.2078
C5F C 0.3830(2) -0.4404(6) -0.1222(6)
H5F H 0.3898 -0.4908 -0.1934
C6F C 0.2642(4) -0.2457(15) -0.0478(10)
H6F H 0.2516 -0.2004 -0.1267
C7A C -0.0688(2) 0.2119(5) 0.4889(5)
C8A C -0.0813(2) 0.3300(4) 0.4196(5)
C9A C -0.1337(2) 0.3858(5) 0.4122(5)
C10A C -0.1407(2) 0.4975(5) 0.3513(7)
H7A H -0.1750 0.5358 0.3467
C11A C -0.0975(3) 0.5523(5) 0.2976(6)
H8A H -0.1031 0.6264 0.2568
C12A C -0.0462(2) 0.4972(5) 0.3047(5)
C13A C -0.0389(2) 0.3877(4) 0.3652(5)
H9A H -0.0042 0.3508 0.3699
C14A C -0.1836(2) 0.3297(6) 0.4591(7)
H10A H 0.0228(19) -0.111(4) 0.288(6)
H10D H 0.0228(19) 0.111(4) -0.212(6)
H10E H -0.0228(19) 0.111(4) -0.288(6)
loop_
_geom_bond_atom_site_label_1
_geom_bond_atom_site_label_2
_geom_bond_site_symmetry_1
_geom_bond_site_symmetry_2
Ni1 N1 1_555 1_555
N1 C1 1_555 1_555
O1 Ni1 1_555 1_555
O2 Ni1 1_555 1_555
O3 C7 1_555 1_555
O4 H1 1_555 1_555
O5 C14 1_555 1_555
O6 C15 1_555 1_555
C1 H2 1_555 1_555
C2 C1 1_555 1_555
H3 C2 1_555 1_555
C3 C2 1_555 1_555
C4 C3 1_555 1_555
H4 C4 1_555 1_555
C5 N1 1_555 1_555
H5 C5 1_555 1_555
C6 C3 1_555 1_555
H6 C6 1_555 1_555
C7 O2 1_555 1_555
C8 C7 1_555 1_555
C9 C8 1_555 1_555
C10 C9 1_555 1_555
H7 C10 1_555 1_555
C11 C10 1_555 1_555
H8 C11 1_555 1_555
C12 C11 1_555 1_555
C13 C8 1_555 1_555
H9 C13 1_555 1_555
C14 O4 1_555 1_555
C15 C12 1_555 1_555
H10 O1 1_555 1_555
Ni1A O1 1_555 1_555
Ni1B N1F 1_555 1_555
N1F C1F 1_555 1_555
N1D Ni1 1_555 1_555
O1D Ni1 1_555 1_555
O2A Ni1A 1_555 1_555
O2D Ni1 1_555 1_555
O3A C7A 1_555 1_555
O4A H1A 1_555 1_555
O5A C14A 1_555 1_555
C1F H2F 1_555 1_555
C2F C1F 1_555 1_555
H3F C2F 1_555 1_555
C3F C2F 1_555 1_555
C4F C3F 1_555 1_555
H4F C4F 1_555 1_555
C5F N1F 1_555 1_555
H5F C5F 1_555 1_555
C6F C6 1_555 1_555
H6F C6F 1_555 1_555
C7A O2A 1_555 1_555
C8A C7A 1_555 1_555
C9A C8A 1_555 1_555
C10A C9A 1_555 1_555
H7A C10A 1_555 1_555
C11A C10A 1_555 1_555
H8A C11A 1_555 1_555
C12A C15 1_555 1_555
C13A C8A 1_555 1_555
H9A C13A 1_555 1_555
C14A O4A 1_555 1_555
H10A O1 1_555 1_555
H10D O1D 1_555 1_555
H10E O1D 1_555 1_555
C4 C5 1_555 1_555
C9 C14 1_555 1_555
C12 C13 1_555 1_555
C3F C6F 1_555 1_555
C4F C5F 1_555 1_555
C9A C14A 1_555 1_555
C11A C12A 1_555 1_555
C12A C13A 1_555 1_555

#END
