
#######################################################################
#
#                 Cambridge Crystallographic Data Centre
#                                CCDC 
#
#######################################################################
#
# If this CIF has been generated from an entry in the Cambridge 
# Structural Database, then it will include bibliographic, chemical, 
# crystal, experimental, refinement or atomic coordinate data resulting 
# from the CCDC's data processing and validation procedures.
#
#######################################################################

data_BUZDOQ
_symmetry_cell_setting           monoclinic
_symmetry_space_group_name_H-M   'P 21/c'
_symmetry_Int_Tables_number      14
_space_group_name_Hall           '-P 2ybc'
loop_
_symmetry_equiv_pos_site_id
_symmetry_equiv_pos_as_xyz
1 x,y,z
2 -x,1/2+y,1/2-z
3 -x,-y,-z
4 x,1/2-y,1/2+z
_cell_length_a                   9.080(1)
_cell_length_b                   22.871(4)
_cell_length_c                   7.309(2)
_cell_angle_alpha                90
_cell_angle_beta                 96.467(2)
_cell_angle_gamma                90
_cell_volume                     1508.19
loop_
_atom_site_label
_atom_site_type_symbol
_atom_site_fract_x
_atom_site_fract_y
_atom_site_fract_z
Zn1 Zn 0.40358(4) 0.742031(16) 0.19494(5)
Cl1 Cl 0.40678(13) 0.95138(4) 0.13567(18)
Cl2 Cl -0.15875(17) 0.96581(7) 0.2779(3)
O1 O 0.3561(3) 0.82671(10) 0.1368(3)
N1 N 0.1805(3) 0.72815(12) 0.1921(4)
N2 N 0.4081(4) 0.64954(12) 0.2472(4)
N3 N 0.5132(3) 0.73899(12) -0.0403(4)
N4 N 0.6435(4) 0.72968(15) -0.0345(4)
N5 N 0.7677(5) 0.7221(2) -0.0303(6)
C1 C 0.1040(4) 0.82949(16) 0.2023(5)
C2 C 0.2402(4) 0.85574(14) 0.1690(4)
C3 C 0.2430(4) 0.91741(15) 0.1727(5)
C4 C 0.1236(5) 0.95043(18) 0.2050(6)
H1 H 0.1307 0.9910 0.2073
C5 C -0.0072(5) 0.9237(2) 0.2340(6)
C6 C -0.0177(4) 0.86470(19) 0.2321(5)
H2 H -0.1072 0.8471 0.2509
C7 C 0.0821(4) 0.76761(17) 0.2078(5)
H3 H -0.0126 0.7547 0.2244
C8 C 0.1388(4) 0.66688(16) 0.2101(5)
H4 H 0.0493 0.6586 0.1289
H5 H 0.1194 0.6590 0.3356
C9 C 0.2629(5) 0.62860(16) 0.1609(5)
H6 H 0.2469 0.5889 0.2011
H7 H 0.2629 0.6281 0.0282
C10 C 0.5290(6) 0.61222(17) 0.1960(7)
H8 H 0.5408 0.6182 0.0670
H9 H 0.5036 0.5715 0.2122
C11 C 0.6731(6) 0.6257(2) 0.3113(8)
H10 H 0.6975 0.6661 0.2973
H11 H 0.7504 0.6017 0.2718
H12 H 0.6633 0.6177 0.4383
H13 H 0.403(4) 0.6477(14) 0.3683(16)
Zn1C Zn 0.40358(4) 0.757969(16) -0.30506(5)
N3C N 0.5132(3) 0.76101(12) 0.4597(4)
loop_
_geom_bond_atom_site_label_1
_geom_bond_atom_site_label_2
_geom_bond_site_symmetry_1
_geom_bond_site_symmetry_2
Zn1 O1 1_555 1_555
Cl1 C3 1_555 1_555
Cl2 C5 1_555 1_555
O1 C2 1_555 1_555
N1 Zn1 1_555 1_555
N2 Zn1 1_555 1_555
N3 Zn1 1_555 1_555
N4 N3 1_555 1_555
N5 N4 1_555 1_555
C1 C2 1_555 1_555
C2 C3 1_555 1_555
C3 C4 1_555 1_555
C4 H1 1_555 1_555
C5 C4 1_555 1_555
C6 C1 1_555 1_555
H2 C6 1_555 1_555
C7 N1 1_555 1_555
H3 C7 1_555 1_555
C8 N1 1_555 1_555
H4 C8 1_555 1_555
H5 C8 1_555 1_555
C9 N2 1_555 1_555
H6 C9 1_555 1_555
H7 C9 1_555 1_555
C10 N2 1_555 1_555
H8 C10 1_555 1_555
H9 C10 1_555 1_555
C11 C10 1_555 1_555
H10 C11 1_555 1_555
H11 C11 1_555 1_555
H12 C11 1_555 1_555
H13 N2 1_555 1_555
Zn1C N3 1_555 1_555
N3C Zn1 1_555 1_555
C1 C7 1_555 1_555
C5 C6 1_555 1_555
C8 C9 1_555 1_555

#END
