
#######################################################################
#
#                 Cambridge Crystallographic Data Centre
#                                CCDC 
#
#######################################################################
#
# If this CIF has been generated from an entry in the Cambridge 
# Structural Database, then it will include bibliographic, chemical, 
# crystal, experimental, refinement or atomic coordinate data resulting 
# from the CCDC's data processing and validation procedures.
#
#######################################################################

data_BUZDUW
_symmetry_cell_setting           monoclinic
_symmetry_space_group_name_H-M   'P 2/c'
_symmetry_Int_Tables_number      13
_space_group_name_Hall           '-P 2yc'
loop_
_symmetry_equiv_pos_site_id
_symmetry_equiv_pos_as_xyz
1 x,y,z
2 -x,y,1/2-z
3 -x,-y,-z
4 x,-y,1/2+z
_cell_length_a                   8.135(1)
_cell_length_b                   8.810(1)
_cell_length_c                   21.113(3)
_cell_angle_alpha                90
_cell_angle_beta                 92.126(2)
_cell_angle_gamma                90
_cell_volume                     1512.11
loop_
_atom_site_label
_atom_site_type_symbol
_atom_site_fract_x
_atom_site_fract_y
_atom_site_fract_z
Zn1 Zn 0.30641(6) 0.78693(6) 0.21858(2)
Br1 Br 0.19793(7) 0.81021(6) 0.44610(3)
Cl1 Cl 0.0458(2) 1.41504(16) 0.42280(8)
O1 O 0.2794(4) 0.8523(3) 0.30998(14)
N1 N 0.2934(5) 1.0141(5) 0.19624(18)
N2 N 0.3779(5) 0.7783(5) 0.11975(19)
N3 N 0.5000 0.6550(6) 0.2500
N4 N 0.5000 0.5225(8) 0.2500
N5 N 0.5000 0.3920(9) 0.2500
N6 N 0.1050(5) 0.6497(5) 0.2139(2)
N7 N 0.0000 0.6534(6) 0.2500
C1 C 0.2011(5) 1.1112(5) 0.2965(2)
C2 C 0.2215(5) 0.9772(5) 0.3319(2)
C3 C 0.1786(5) 0.9884(5) 0.3960(2)
C4 C 0.1236(6) 1.1177(5) 0.4232(2)
H1 H 0.0962 1.1186 0.4655
C5 C 0.1090(6) 1.2470(6) 0.3871(3)
C6 C 0.1456(6) 1.2457(5) 0.3252(3)
H2 H 0.1341 1.3340 0.3013
C7 C 0.2431(6) 1.1226(6) 0.2307(2)
H3 H 0.2326 1.2175 0.2118
C8 C 0.3456(7) 1.0492(6) 0.1315(2)
H4 H 0.2854 1.1366 0.1151
H5 H 0.4620 1.0736 0.1326
C9 C 0.3147(7) 0.9201(7) 0.0908(3)
H6 H 0.3668 0.9364 0.0507
H7 H 0.1972 0.9105 0.0821
C10 C 0.3346(8) 0.6508(8) 0.0776(3)
H8 H 0.2159 0.6396 0.0754
H9 H 0.3698 0.6741 0.0353
C11 C 0.4077(10) 0.5084(9) 0.0979(4)
H10 H 0.5221 0.5237 0.1088
H11 H 0.3967 0.4357 0.0641
H12 H 0.3527 0.4713 0.1343
H13 H 0.4860(18) 0.795(6) 0.126(2)
Zn1A Zn -0.30641(6) 0.78693(6) 0.28142(2)
Zn1A_2 Zn 0.69359(6) 0.78693(6) 0.28142(2)
Br1A Br -0.19793(7) 0.81021(6) 0.05390(3)
Cl1A Cl -0.0458(2) 1.41504(16) 0.07720(8)
O1A O -0.2794(4) 0.8523(3) 0.19002(14)
N1A N -0.2934(5) 1.0141(5) 0.30376(18)
N2A N -0.3779(5) 0.7783(5) 0.38025(19)
N3_2 N -0.5000 0.6550(6) 0.2500
N6A N -0.1050(5) 0.6497(5) 0.2861(2)
C1A C -0.2011(5) 1.1112(5) 0.2035(2)
C2A C -0.2215(5) 0.9772(5) 0.1681(2)
C3A C -0.1786(5) 0.9884(5) 0.1040(2)
C4A C -0.1236(6) 1.1177(5) 0.0768(2)
H1A H -0.0962 1.1186 0.0345
C5A C -0.1090(6) 1.2470(6) 0.1129(3)
C6A C -0.1456(6) 1.2457(5) 0.1748(3)
H2A H -0.1341 1.3340 0.1987
C7A C -0.2431(6) 1.1226(6) 0.2693(2)
H3A H -0.2326 1.2175 0.2882
C8A C -0.3456(7) 1.0492(6) 0.3685(2)
H4A H -0.2854 1.1366 0.3849
H5A H -0.4620 1.0736 0.3674
C9A C -0.3147(7) 0.9201(7) 0.4092(3)
H6A H -0.3668 0.9364 0.4493
H7A H -0.1972 0.9105 0.4179
C10A C -0.3346(8) 0.6508(8) 0.4224(3)
H8A H -0.2159 0.6396 0.4246
H9A H -0.3698 0.6741 0.4647
C11A C -0.4077(10) 0.5084(9) 0.4021(4)
H10A H -0.5221 0.5237 0.3912
H11A H -0.3967 0.4357 0.4359
H12A H -0.3527 0.4713 0.3657
H13A H -0.4860(18) 0.795(6) 0.374(2)
loop_
_geom_bond_atom_site_label_1
_geom_bond_atom_site_label_2
_geom_bond_site_symmetry_1
_geom_bond_site_symmetry_2
Zn1 O1 1_555 1_555
Br1 C3 1_555 1_555
Cl1 C5 1_555 1_555
O1 C2 1_555 1_555
N1 Zn1 1_555 1_555
N2 Zn1 1_555 1_555
N3 Zn1 1_555 1_555
N4 N3 1_555 1_555
N5 N4 1_555 1_555
N6 Zn1 1_555 1_555
N7 N6 1_555 1_555
C1 C2 1_555 1_555
C2 C3 1_555 1_555
C3 C4 1_555 1_555
C4 H1 1_555 1_555
C5 C4 1_555 1_555
C6 C1 1_555 1_555
H2 C6 1_555 1_555
C7 N1 1_555 1_555
H3 C7 1_555 1_555
C8 N1 1_555 1_555
H4 C8 1_555 1_555
H5 C8 1_555 1_555
C9 N2 1_555 1_555
H6 C9 1_555 1_555
H7 C9 1_555 1_555
C10 N2 1_555 1_555
H8 C10 1_555 1_555
H9 C10 1_555 1_555
C11 C10 1_555 1_555
H10 C11 1_555 1_555
H11 C11 1_555 1_555
H12 C11 1_555 1_555
H13 N2 1_555 1_555
Zn1A O1A 1_555 1_555
Zn1A_2 N3 1_555 1_555
Br1A C3A 1_555 1_555
Cl1A C5A 1_555 1_555
O1A C2A 1_555 1_555
N1A Zn1A 1_555 1_555
N2A Zn1A 1_555 1_555
N3_2 Zn1A 1_555 1_555
N6A N7 1_555 1_555
C1A C2A 1_555 1_555
C2A C3A 1_555 1_555
C3A C4A 1_555 1_555
C4A H1A 1_555 1_555
C5A C4A 1_555 1_555
C6A C1A 1_555 1_555
H2A C6A 1_555 1_555
C7A N1A 1_555 1_555
H3A C7A 1_555 1_555
C8A N1A 1_555 1_555
H4A C8A 1_555 1_555
H5A C8A 1_555 1_555
C9A N2A 1_555 1_555
H6A C9A 1_555 1_555
H7A C9A 1_555 1_555
C10A N2A 1_555 1_555
H8A C10A 1_555 1_555
H9A C10A 1_555 1_555
C11A C10A 1_555 1_555
H10A C11A 1_555 1_555
H11A C11A 1_555 1_555
H12A C11A 1_555 1_555
H13A N2A 1_555 1_555
C1 C7 1_555 1_555
C5 C6 1_555 1_555
C8 C9 1_555 1_555
Zn1A N6A 1_555 1_555
C1A C7A 1_555 1_555
C5A C6A 1_555 1_555
C8A C9A 1_555 1_555

#END
