
#######################################################################
#
#                 Cambridge Crystallographic Data Centre
#                                CCDC 
#
#######################################################################
#
# If this CIF has been generated from an entry in the Cambridge 
# Structural Database, then it will include bibliographic, chemical, 
# crystal, experimental, refinement or atomic coordinate data resulting 
# from the CCDC's data processing and validation procedures.
#
#######################################################################

data_BUZGAF
_symmetry_cell_setting           monoclinic
_symmetry_space_group_name_H-M   'C 2/c'
_symmetry_Int_Tables_number      15
_space_group_name_Hall           '-C 2yn'
loop_
_symmetry_equiv_pos_site_id
_symmetry_equiv_pos_as_xyz
1 x,y,z
2 -x,y,1/2-z
3 1/2+x,1/2+y,z
4 1/2-x,1/2+y,1/2-z
5 -x,-y,-z
6 x,-y,1/2+z
7 1/2-x,1/2-y,-z
8 1/2+x,1/2-y,1/2+z
_cell_length_a                   9.0903(8)
_cell_length_b                   20.8366(19)
_cell_length_c                   16.6015(15)
_cell_angle_alpha                90
_cell_angle_beta                 96.5810(10)
_cell_angle_gamma                90
_cell_volume                     3123.79
loop_
_atom_site_label
_atom_site_type_symbol
_atom_site_fract_x
_atom_site_fract_y
_atom_site_fract_z
Cu1 Cu 0.0000 0.49419(4) 0.7500
O1 O -0.2051(3) 0.4965(2) 0.69702(18)
O3 O -0.1906(5) 0.3934(3) 0.7100(3)
O4 O 0.0000 0.6175(3) 0.7500
H3 H -0.064(5) 0.5906(15) 0.724(3)
N1 N 0.0866(4) 0.48530(18) 0.64302(19)
N2 N 0.2022(4) 0.31555(17) 0.48533(19)
C1 C -0.2604(6) 0.4426(4) 0.6918(3)
C2 C -0.4254(6) 0.4355(5) 0.6637(4)
H4 H -0.4727 0.4780 0.6684
H5 H -0.4366 0.4240 0.6055
C3 C -0.5050(7) 0.3901(4) 0.7050(4)
H6 H -0.4742 0.3470 0.6883
H7 H -0.6110 0.3949 0.6843
C4 C 0.1838(5) 0.5285(2) 0.6208(2)
H8 H 0.2055 0.5652 0.6541
C5 C 0.2533(5) 0.5221(2) 0.5521(2)
H9 H 0.3223 0.5534 0.5386
C6 C 0.2213(5) 0.4696(2) 0.5032(2)
H10 H 0.2667 0.4647 0.4548
C7 C 0.1219(5) 0.4236(2) 0.5250(2)
C8 C 0.0573(4) 0.4343(2) 0.5957(2)
H11 H -0.0114 0.4036 0.6110
C9 C 0.0853(5) 0.3652(2) 0.4736(3)
H12 H -0.0091 0.3468 0.4872
H13 H 0.0712 0.3780 0.4158
C10 C 0.2077(6) 0.2856(2) 0.5660(2)
H14 H 0.1107 0.2657 0.5721
H15 H 0.2274 0.3189 0.6083
C11 C 0.1730(6) 0.2649(2) 0.4229(3)
H16 H 0.0754 0.2449 0.4274
H17 H 0.1704 0.2841 0.3682
Cu1_2 Cu -1.0000 0.49419(4) 0.7500
Cu1F Cu 0.5000 0.00581(4) 0.2500
O1A O -0.7949(3) 0.4965(2) 0.80298(18)
O1A_2 O 0.2051(3) 0.4965(2) 0.80298(18)
O3A O -0.8094(5) 0.3934(3) 0.7900(3)
H3A H 0.064(5) 0.5906(15) 0.776(3)
N1F N 0.4134(4) 0.01470(18) 0.35698(19)
N1A N -0.0866(4) 0.48530(18) 0.85698(19)
N2F N 0.2978(4) 0.18445(17) 0.51467(19)
C1A C -0.7396(6) 0.4426(4) 0.8082(3)
C2A C -0.5746(6) 0.4355(5) 0.8363(4)
H4A H -0.5273 0.4780 0.8316
H5A H -0.5634 0.4240 0.8945
C3A C -0.4950(7) 0.3901(4) 0.7950(4)
H6A H -0.5258 0.3470 0.8117
H7A H -0.3890 0.3949 0.8157
C4F C 0.3162(5) -0.0285(2) 0.3792(2)
H8F H 0.2945 -0.0652 0.3459
C5F C 0.2467(5) -0.0221(2) 0.4479(2)
H9F H 0.1777 -0.0534 0.4614
C6F C 0.2787(5) 0.0304(2) 0.4968(2)
H10F H 0.2333 0.0353 0.5452
C7F C 0.3781(5) 0.0764(2) 0.4750(2)
C8F C 0.4427(4) 0.0657(2) 0.4043(2)
H11F H 0.5114 0.0964 0.3890
C9F C 0.4147(5) 0.1348(2) 0.5264(3)
H12F H 0.5091 0.1532 0.5128
H13F H 0.4288 0.1220 0.5842
C10F C 0.2923(6) 0.2144(2) 0.4340(2)
H14F H 0.3893 0.2343 0.4279
H15F H 0.2726 0.1811 0.3917
C11F C 0.3270(6) 0.2351(2) 0.5771(3)
H16F H 0.4246 0.2551 0.5726
H17F H 0.3296 0.2159 0.6318
O2 O 0.4782(5) 0.36464(19) 0.4551(3)
H1 H 0.396(2) 0.3409(13) 0.457(3)
H2 H 0.5572 0.3424 0.4733
O5 O -0.1992(13) 0.6868(5) 0.7984(8)
O8 O -0.3997(19) 0.5973(6) 0.6964(9)
O13 O 0.7787(19) 0.2081(10) 0.5369(15)
O6? O -0.1079(16) 0.2751(6) 0.7511(8)
O7? O -0.1897(16) 0.2669(8) 0.6727(15)
O9? O -0.150(7) 0.346(3) 0.706(4)
O10? O -0.362(2) 0.6298(9) 0.7169(12)
O11? O 0.7500 0.2500 0.5000
O12? O 0.780(2) 0.1869(17) 0.4582(16)
loop_
_geom_bond_atom_site_label_1
_geom_bond_atom_site_label_2
_geom_bond_site_symmetry_1
_geom_bond_site_symmetry_2
Cu1 O1 1_555 1_555
O1 C1 1_555 1_555
O2 H1 1_555 1_555
H2 O2 1_555 1_555
O3 C1 1_555 1_555
O4 Cu1 1_555 1_555
H3 O4 1_555 1_555
N1 Cu1 1_555 1_555
N2 C9 1_555 1_555
C1 C2 1_555 1_555
C2 H4 1_555 1_555
H5 C2 1_555 1_555
C3 C2 1_555 1_555
H6 C3 1_555 1_555
H7 C3 1_555 1_555
C4 N1 1_555 1_555
H8 C4 1_555 1_555
C5 C4 1_555 1_555
H9 C5 1_555 1_555
C6 C5 1_555 1_555
H10 C6 1_555 1_555
C7 C6 1_555 1_555
C8 N1 1_555 1_555
H11 C8 1_555 1_555
C9 C7 1_555 1_555
H12 C9 1_555 1_555
H13 C9 1_555 1_555
C10 N2 1_555 1_555
H14 C10 1_555 1_555
H15 C10 1_555 1_555
C11 N2 1_555 1_555
H16 C11 1_555 1_555
H17 C11 1_555 1_555
Cu1_2 O1A 1_555 1_555
Cu1F N1F 1_555 1_555
O1A C1A 1_555 1_555
O1A_2 Cu1 1_555 1_555
O3A C1A 1_555 1_555
H3A O4 1_555 1_555
N1F C4F 1_555 1_555
N1A Cu1 1_555 1_555
N2F C9F 1_555 1_555
C1A C2A 1_555 1_555
C2A H4A 1_555 1_555
H5A C2A 1_555 1_555
C3A C3 1_555 1_555
H6A C3A 1_555 1_555
H7A C3A 1_555 1_555
C4F H8F 1_555 1_555
C5F C4F 1_555 1_555
H9F C5F 1_555 1_555
C6F C5F 1_555 1_555
H10F C6F 1_555 1_555
C7F C6F 1_555 1_555
C8F N1F 1_555 1_555
H11F C8F 1_555 1_555
C9F C7F 1_555 1_555
H12F C9F 1_555 1_555
H13F C9F 1_555 1_555
C10F C11 1_555 1_555
H14F C10F 1_555 1_555
H15F C10F 1_555 1_555
C11F C10 1_555 1_555
H16F C11F 1_555 1_555
H17F C11F 1_555 1_555
C7 C8 1_555 1_555
N2F C10F 1_555 1_555
N2F C11F 1_555 1_555
C2A C3A 1_555 1_555
C7F C8F 1_555 1_555

#END
