
#######################################################################
#
#                 Cambridge Crystallographic Data Centre
#                                CCDC 
#
#######################################################################
#
# If this CIF has been generated from an entry in the Cambridge 
# Structural Database, then it will include bibliographic, chemical, 
# crystal, experimental, refinement or atomic coordinate data resulting 
# from the CCDC's data processing and validation procedures.
#
#######################################################################

data_BUZGOT
_symmetry_cell_setting           triclinic
_symmetry_space_group_name_H-M   'P -1'
_symmetry_Int_Tables_number      2
_space_group_name_Hall           '-P 1'
loop_
_symmetry_equiv_pos_site_id
_symmetry_equiv_pos_as_xyz
1 x,y,z
2 -x,-y,-z
_cell_length_a                   9.2744(10)
_cell_length_b                   9.7625(12)
_cell_length_c                   16.032(2)
_cell_angle_alpha                102.195(2)
_cell_angle_beta                 90.155(2)
_cell_angle_gamma                110.701(4)
_cell_volume                     1322.44
loop_
_atom_site_label
_atom_site_type_symbol
_atom_site_fract_x
_atom_site_fract_y
_atom_site_fract_z
Cu1 Cu 0.24524(3) -0.01632(3) 0.250186(16)
O1 O 0.30412(18) 0.20386(16) 0.26051(10)
O3 O 0.1196(2) 0.21230(18) 0.17432(12)
O5 O 0.3698(2) 0.75390(18) 0.32089(12)
O7 O 0.18430(18) 0.76092(16) 0.23481(10)
O9 O 0.0779(2) -0.0815(2) 0.11466(11)
O11 O 0.3822(2) 0.03866(19) 0.38449(11)
N1 N 0.4341(2) -0.0152(2) 0.18657(12)
N2 N 0.0522(2) -0.02378(19) 0.31022(12)
N3 N 0.4918(2) -0.3754(2) -0.03034(13)
N4 N 0.0090(2) 0.35322(19) 0.49505(12)
C1 C 0.5790(3) 0.0655(3) 0.22089(16)
H13 H 0.5948 0.1284 0.2767
C2 C -0.0846(3) -0.1327(2) 0.28038(15)
H14 H -0.0897 -0.2063 0.2299
C3 C 0.7062(3) 0.0599(3) 0.17765(17)
H15 H 0.8076 0.1184 0.2036
C4 C -0.2180(3) -0.1418(3) 0.32034(17)
H16 H -0.3129 -0.2215 0.2984
C5 C 0.6855(3) -0.0308(3) 0.09678(17)
H17 H 0.7722 -0.0353 0.0664
C6 C -0.2119(3) -0.0336(3) 0.39242(16)
H18 H -0.3033 -0.0372 0.4200
C7 C 0.5365(3) -0.1154(2) 0.06027(15)
C8 C -0.0720(3) 0.0809(2) 0.42476(14)
C9 C 0.4153(3) -0.1031(2) 0.10809(14)
H19 H 0.3127 -0.1607 0.0835
C10 C 0.0580(3) 0.0807(2) 0.38104(14)
H20 H 0.1549 0.1580 0.4023
C11 C 0.5024(3) -0.2203(2) -0.02775(15)
H21 H 0.4035 -0.2243 -0.0535
H22 H 0.5845 -0.1765 -0.0641
C12 C -0.0614(3) 0.1974(2) 0.50555(15)
H23 H -0.1667 0.1810 0.5242
H24 H 0.0005 0.1835 0.5513
C13 C 0.3774(3) -0.4496(3) 0.02446(15)
H25 H 0.2767 -0.4420 0.0110
H26 H 0.4116 -0.3991 0.0853
C14 C -0.0781(3) 0.3817(2) 0.42844(14)
H27 H -0.1871 0.3581 0.4420
H28 H -0.0767 0.3157 0.3725
C15 C 0.6408(3) -0.3865(3) -0.00998(16)
H29 H 0.6778 -0.3353 0.0505
H30 H 0.7182 -0.3364 -0.0468
C16 C 0.0074(3) 0.4553(2) 0.57710(14)
H31 H 0.0661 0.4378 0.6229
H32 H -0.1006 0.4330 0.5924
C17 C 0.2304(3) 0.2735(2) 0.22988(14)
C18 C 0.2875(3) 0.4419(2) 0.26764(15)
H33 H 0.2824 0.4590 0.3305
H34 H 0.3974 0.4868 0.2565
C19 C 0.1967(3) 0.5223(2) 0.23230(14)
H35 H 0.0877 0.4803 0.2457
H36 H 0.1977 0.5012 0.1692
C20 C 0.2575(3) 0.6921(2) 0.26697(14)
Cu1_2 Cu 0.24524(3) 0.98368(3) 0.250186(16)
Cu1A Cu 0.75476(3) -0.98368(3) -0.250186(16)
Cu1A_2 Cu -0.24524(3) 1.01632(3) 0.749814(16)
Cu1A_3 Cu -0.24524(3) 0.01632(3) 0.749814(16)
O1A O -0.30412(18) 0.79614(16) 0.73949(10)
O3A O -0.1196(2) 0.78770(18) 0.82568(12)
O5A O -0.3698(2) 0.24610(18) 0.67911(12)
O7_2 O 0.18430(18) -0.23908(16) 0.23481(10)
O7A O -0.18430(18) 1.23908(16) 0.76519(10)
O7A_2 O -0.18430(18) 0.23908(16) 0.76519(10)
O9A O -0.0779(2) 1.0815(2) 0.88534(11)
O11A O -0.3822(2) 0.96134(19) 0.61551(11)
N1A N 0.5659(2) -0.9848(2) -0.18657(12)
N1A_2 N -0.4341(2) 1.0152(2) 0.81343(12)
N2A N -0.0522(2) 1.02378(19) 0.68978(12)
N3A N 0.5082(2) -0.6246(2) 0.03034(13)
N4A N -0.0090(2) 0.64678(19) 0.50495(12)
C1A C 0.4210(3) -1.0655(3) -0.22089(16)
H13A H 0.4052 -1.1284 -0.2767
C2A C 0.0846(3) 1.1327(2) 0.71962(15)
H14A H 0.0897 1.2063 0.7701
C3A C 0.2938(3) -1.0599(3) -0.17765(17)
H15A H 0.1924 -1.1184 -0.2036
C4A C 0.2180(3) 1.1418(3) 0.67966(17)
H16A H 0.3129 1.2215 0.7016
C5A C 0.3145(3) -0.9692(3) -0.09678(17)
H17A H 0.2278 -0.9647 -0.0664
C6A C 0.2119(3) 1.0336(3) 0.60758(16)
H18A H 0.3033 1.0372 0.5800
C7A C 0.4635(3) -0.8846(2) -0.06027(15)
C8A C 0.0720(3) 0.9191(2) 0.57524(14)
C9A C 0.5847(3) -0.8969(2) -0.10809(14)
H19A H 0.6873 -0.8393 -0.0835
C10A C -0.0580(3) 0.9193(2) 0.61896(14)
H20A H -0.1549 0.8420 0.5977
C11A C 0.4976(3) -0.7797(2) 0.02775(15)
H21A H 0.5965 -0.7757 0.0535
H22A H 0.4155 -0.8235 0.0641
C12A C 0.0614(3) 0.8026(2) 0.49445(15)
H23A H 0.1667 0.8190 0.4758
H24A H -0.0005 0.8165 0.4487
C13A C 0.6226(3) -0.5504(3) -0.02446(15)
H25A H 0.7233 -0.5580 -0.0110
H26A H 0.5884 -0.6009 -0.0853
C14A C 0.0781(3) 0.6183(2) 0.57156(14)
H27A H 0.1871 0.6419 0.5580
H28A H 0.0767 0.6843 0.6275
C15A C 0.3592(3) -0.6135(3) 0.00998(16)
H29A H 0.3222 -0.6647 -0.0505
H30A H 0.2818 -0.6636 0.0468
C16A C -0.0074(3) 0.5447(2) 0.42290(14)
H31A H -0.0661 0.5622 0.3771
H32A H 0.1006 0.5670 0.4076
C17A C -0.2304(3) 0.7265(2) 0.77012(14)
C18A C -0.2875(3) 0.5581(2) 0.73236(15)
H33A H -0.2824 0.5410 0.6695
H34A H -0.3974 0.5132 0.7435
C19A C -0.1967(3) 0.4777(2) 0.76770(14)
H35A H -0.0877 0.5197 0.7543
H36A H -0.1977 0.4988 0.8308
C20A C -0.2575(3) 0.3079(2) 0.73303(14)
O2 O -0.0432(3) 0.2739(2) 0.04706(12)
H1 H -0.043(3) 0.362(2) 0.0623(18)
H2 H 0.000(3) 0.256(3) 0.0891(15)
O4 O 0.5298(2) 0.2706(2) 0.52184(13)
H3 H 0.554(3) 0.267(3) 0.5731(13)
H4 H 0.466(3) 0.316(3) 0.5263(19)
O6 O -0.0433(3) 0.5661(3) 0.10339(14)
H5 H 0.026(3) 0.636(3) 0.1442(17)
H6 H -0.113(3) 0.540(4) 0.1388(19)
O8 O 0.6092(2) 0.3960(2) 0.33018(13)
H7 H 0.513(2) 0.338(3) 0.3192(19)
H8 H 0.635(3) 0.449(3) 0.2907(16)
O10 O 0.3164(3) -0.5212(3) -0.18961(14)
H9 H 0.389(3) -0.477(4) -0.1437(16)
H10 H 0.226(3) -0.514(4) -0.178(2)
O12 O 0.3285(2) 0.4206(3) 0.50634(16)
H11 H 0.348(4) 0.473(4) 0.5618(13)
H12 H 0.223(2) 0.393(4) 0.499(2)
loop_
_geom_bond_atom_site_label_1
_geom_bond_atom_site_label_2
_geom_bond_site_symmetry_1
_geom_bond_site_symmetry_2
Cu1 O1 1_555 1_555
O1 C17 1_555 1_555
O2 H1 1_555 1_555
H2 O2 1_555 1_555
O3 C17 1_555 1_555
O4 H3 1_555 1_555
H4 O4 1_555 1_555
O5 C20 1_555 1_555
O6 H5 1_555 1_555
H6 O6 1_555 1_555
O7 C20 1_555 1_555
O8 H7 1_555 1_555
H8 O8 1_555 1_555
O9 Cu1 1_555 1_555
O10 H9 1_555 1_555
H10 O10 1_555 1_555
O11 Cu1 1_555 1_555
O12 H11 1_555 1_555
H12 O12 1_555 1_555
N1 Cu1 1_555 1_555
N2 Cu1 1_555 1_555
N3 C11 1_555 1_555
N4 C12 1_555 1_555
C1 N1 1_555 1_555
H13 C1 1_555 1_555
C2 N2 1_555 1_555
H14 C2 1_555 1_555
C3 C1 1_555 1_555
H15 C3 1_555 1_555
C4 C2 1_555 1_555
H16 C4 1_555 1_555
C5 C3 1_555 1_555
H17 C5 1_555 1_555
C6 C4 1_555 1_555
H18 C6 1_555 1_555
C7 C5 1_555 1_555
C8 C6 1_555 1_555
C9 N1 1_555 1_555
H19 C9 1_555 1_555
C10 N2 1_555 1_555
H20 C10 1_555 1_555
C11 C7 1_555 1_555
H21 C11 1_555 1_555
H22 C11 1_555 1_555
C12 C8 1_555 1_555
H23 C12 1_555 1_555
H24 C12 1_555 1_555
C13 N3 1_555 1_555
H25 C13 1_555 1_555
H26 C13 1_555 1_555
C14 N4 1_555 1_555
H27 C14 1_555 1_555
H28 C14 1_555 1_555
C15 N3 1_555 1_555
H29 C15 1_555 1_555
H30 C15 1_555 1_555
C16 N4 1_555 1_555
H31 C16 1_555 1_555
H32 C16 1_555 1_555
C17 C18 1_555 1_555
C18 H33 1_555 1_555
H34 C18 1_555 1_555
C19 C18 1_555 1_555
H35 C19 1_555 1_555
H36 C19 1_555 1_555
C20 C19 1_555 1_555
Cu1_2 O7 1_555 1_555
Cu1A N1A 1_555 1_555
Cu1A_2 O1A 1_555 1_555
Cu1A_3 O7A_2 1_555 1_555
O1A C17A 1_555 1_555
O3A C17A 1_555 1_555
O5A C20A 1_555 1_555
O7_2 Cu1 1_555 1_555
O7A Cu1A_2 1_555 1_555
O7A_2 C20A 1_555 1_555
O9A Cu1A_2 1_555 1_555
O11A Cu1A_2 1_555 1_555
N1A C1A 1_555 1_555
N1A_2 Cu1A_2 1_555 1_555
N2A Cu1A_2 1_555 1_555
N3A C11A 1_555 1_555
N4A C12A 1_555 1_555
C1A H13A 1_555 1_555
C2A N2A 1_555 1_555
H14A C2A 1_555 1_555
C3A C1A 1_555 1_555
H15A C3A 1_555 1_555
C4A C2A 1_555 1_555
H16A C4A 1_555 1_555
C5A C3A 1_555 1_555
H17A C5A 1_555 1_555
C6A C4A 1_555 1_555
H18A C6A 1_555 1_555
C7A C5A 1_555 1_555
C8A C6A 1_555 1_555
C9A N1A 1_555 1_555
H19A C9A 1_555 1_555
C10A N2A 1_555 1_555
H20A C10A 1_555 1_555
C11A C7A 1_555 1_555
H21A C11A 1_555 1_555
H22A C11A 1_555 1_555
C12A C8A 1_555 1_555
H23A C12A 1_555 1_555
H24A C12A 1_555 1_555
C13A C15 1_555 1_555
H25A C13A 1_555 1_555
H26A C13A 1_555 1_555
C14A C16 1_555 1_555
H27A C14A 1_555 1_555
H28A C14A 1_555 1_555
C15A C13 1_555 1_555
H29A C15A 1_555 1_555
H30A C15A 1_555 1_555
C16A C14 1_555 1_555
H31A C16A 1_555 1_555
H32A C16A 1_555 1_555
C17A C18A 1_555 1_555
C18A H33A 1_555 1_555
H34A C18A 1_555 1_555
C19A C18A 1_555 1_555
H35A C19A 1_555 1_555
H36A C19A 1_555 1_555
C20A C19A 1_555 1_555
C7 C9 1_555 1_555
C8 C10 1_555 1_555
N3A C13A 1_555 1_555
N3A C15A 1_555 1_555
N4A C14A 1_555 1_555
N4A C16A 1_555 1_555
C7A C9A 1_555 1_555
C8A C10A 1_555 1_555

#END
