
#######################################################################
#
#                 Cambridge Crystallographic Data Centre
#                                CCDC 
#
#######################################################################
#
# If this CIF has been generated from an entry in the Cambridge 
# Structural Database, then it will include bibliographic, chemical, 
# crystal, experimental, refinement or atomic coordinate data resulting 
# from the CCDC's data processing and validation procedures.
#
#######################################################################

data_BUZGIN
_symmetry_cell_setting           triclinic
_symmetry_space_group_name_H-M   'P -1'
_symmetry_Int_Tables_number      2
_space_group_name_Hall           '-P 1'
loop_
_symmetry_equiv_pos_site_id
_symmetry_equiv_pos_as_xyz
1 x,y,z
2 -x,-y,-z
_cell_length_a                   8.1552(6)
_cell_length_b                   9.8677(7)
_cell_length_c                   12.2230(9)
_cell_angle_alpha                89.2820(10)
_cell_angle_beta                 77.0560(10)
_cell_angle_gamma                76.5920(10)
_cell_volume                     931.693
loop_
_atom_site_label
_atom_site_type_symbol
_atom_site_fract_x
_atom_site_fract_y
_atom_site_fract_z
Cu1 Cu 0.25402(4) 0.95935(3) 0.25459(3)
Cu2 Cu 0.20839(4) 1.24491(3) 0.25200(3)
O1 O 0.1845(3) 1.2131(2) 0.09754(15)
O2 O 0.2126(3) 0.9816(2) 0.10243(16)
O3 O 0.5039(2) 1.0527(2) -0.19287(17)
O4 O 0.5380(2) 0.8213(2) -0.20081(17)
O5 O 0.2211(3) 1.2105(2) 0.40845(16)
O6 O 0.2887(3) 0.9768(2) 0.40672(16)
O7 O -0.1543(3) 1.2708(2) 0.7043(2)
O8 O -0.0170(2) 1.0506(2) 0.68591(17)
O9 O 0.2421(3) 1.4511(2) 0.23783(19)
H1 H 0.184(4) 1.533(2) 0.265(3)
H2 H 0.338(3) 1.468(3) 0.200(3)
N1 N -0.0506(3) 1.3134(2) 0.29884(19)
N2 N -0.4688(3) 1.5222(2) 0.1093(2)
C1 C -0.1267(4) 1.4097(3) 0.2367(2)
H3 H -0.0552 1.4417 0.1742
C2 C -0.3028(4) 1.4656(3) 0.2579(2)
C3 C -0.4060(4) 1.4171(3) 0.3493(3)
H4 H -0.5279 1.4523 0.3669
C4 C -0.3293(4) 1.3173(3) 0.4141(3)
H5 H -0.3980 1.2830 0.4766
C5 C -0.1513(4) 1.2676(3) 0.3869(2)
H6 H -0.0989 1.1992 0.4319
C6 C -0.3779(4) 1.5758(3) 0.1840(3)
H7 H -0.4597 1.6537 0.2322
H8 H -0.2833 1.6132 0.1379
C7 C -0.5533(4) 1.6378(3) 0.0485(2)
H9 H -0.5479 1.7324 0.0554
C8 C -0.3494(4) 1.4176(3) 0.0271(2)
H10 H -0.2283 1.3884 0.0216
C9 C 0.1906(3) 1.0961(3) 0.0543(2)
C10 C 0.1635(3) 1.0953(3) -0.0643(2)
H11 H 0.2051 1.1734 -0.1037
H12 H 0.0378 1.1125 -0.0605
C11 C 0.2543(3) 0.9609(3) -0.1338(2)
H13 H 0.2352 0.8810 -0.0869
H14 H 0.1998 0.9576 -0.1981
C12 C 0.4472(3) 0.9431(3) -0.1786(2)
C13 C 0.2651(3) 1.0959(3) 0.4526(2)
C14 C 0.2941(4) 1.1038(3) 0.5702(2)
H15 H 0.4092 1.1231 0.5659
H16 H 0.2940 1.0124 0.6046
C15 C 0.1564(4) 1.2161(3) 0.6446(2)
H17 H 0.1424 1.3039 0.6038
H18 H 0.1966 1.2329 0.7128
C16 C -0.0188(4) 1.1798(3) 0.6801(2)
Cu1A Cu 0.74598(4) 1.04065(3) -0.25459(3)
Cu1A_2 Cu -0.25402(4) 1.04065(3) 0.74541(3)
Cu2A Cu 0.79161(4) 0.75509(3) -0.25200(3)
Cu2A_2 Cu -1.20839(4) 1.75509(3) -0.25200(3)
Cu2A_3 Cu -0.20839(4) 0.75509(3) 0.74800(3)
O1A O 0.8155(3) 0.7869(2) -0.09754(15)
O2A O 0.7874(3) 1.0184(2) -0.10243(16)
O3A O 0.4961(2) 0.9473(2) 0.19287(17)
O4A O 0.4620(2) 1.1787(2) 0.20081(17)
O5A O -0.2211(3) 0.7895(2) 0.59155(16)
O5A_2 O 0.7789(3) 0.7895(2) -0.40845(16)
O6A O -0.2887(3) 1.0232(2) 0.59328(16)
O6A_2 O 0.7113(3) 1.0232(2) -0.40672(16)
O7A O 0.1543(3) 0.7292(2) 0.2957(2)
O8A O 0.0170(2) 0.9494(2) 0.31409(17)
O8_2 O 0.9830(2) 1.0506(2) -0.31409(17)
O9A O 0.7579(3) 0.5489(2) -0.23783(19)
H1A H 0.816(4) 0.467(2) -0.265(3)
H2A H 0.662(3) 0.532(3) -0.200(3)
N1A N -0.9494(3) 1.6866(2) -0.29884(19)
N1A_2 N 1.0506(3) 0.6866(2) -0.29884(19)
N2A N -0.5312(3) 1.4778(2) -0.1093(2)
C1A C -0.8733(4) 1.5903(3) -0.2367(2)
H3A H -0.9448 1.5583 -0.1742
C2A C -0.6972(4) 1.5344(3) -0.2579(2)
C3A C -0.5940(4) 1.5829(3) -0.3493(3)
H4A H -0.4721 1.5477 -0.3669
C4A C -0.6707(4) 1.6827(3) -0.4141(3)
H5A H -0.6020 1.7170 -0.4766
C5A C -0.8487(4) 1.7324(3) -0.3869(2)
H6A H -0.9011 1.8008 -0.4319
C6A C -0.6221(4) 1.4242(3) -0.1840(3)
H7A H -0.5403 1.3463 -0.2322
H8A H -0.7167 1.3868 -0.1379
C7A C -0.4467(4) 1.3622(3) -0.0485(2)
H9A H -0.4521 1.2676 -0.0554
C8A C -0.6506(4) 1.5824(3) -0.0271(2)
H10A H -0.7717 1.6116 -0.0216
C9A C 0.8094(3) 0.9039(3) -0.0543(2)
C10A C 0.8365(3) 0.9047(3) 0.0643(2)
H11A H 0.7949 0.8266 0.1037
H12A H 0.9622 0.8875 0.0605
C11A C 0.7457(3) 1.0391(3) 0.1338(2)
H13A H 0.7648 1.1190 0.0869
H14A H 0.8002 1.0424 0.1981
C12A C 0.5528(3) 1.0569(3) 0.1786(2)
C13A C -0.2651(3) 0.9041(3) 0.5474(2)
C14A C -0.2941(4) 0.8962(3) 0.4298(2)
H15A H -0.4092 0.8769 0.4341
H16A H -0.2940 0.9876 0.3954
C15A C -0.1564(4) 0.7839(3) 0.3554(2)
H17A H -0.1424 0.6961 0.3962
H18A H -0.1966 0.7671 0.2872
C16A C 0.0188(4) 0.8202(3) 0.3199(2)
loop_
_geom_bond_atom_site_label_1
_geom_bond_atom_site_label_2
_geom_bond_site_symmetry_1
_geom_bond_site_symmetry_2
Cu1 O2 1_555 1_555
Cu2 O1 1_555 1_555
O1 C9 1_555 1_555
O2 C9 1_555 1_555
O3 C12 1_555 1_555
O4 C12 1_555 1_555
O5 Cu2 1_555 1_555
O6 Cu1 1_555 1_555
O7 C16 1_555 1_555
O8 C16 1_555 1_555
O9 Cu2 1_555 1_555
H1 O9 1_555 1_555
H2 O9 1_555 1_555
N1 Cu2 1_555 1_555
N2 C6 1_555 1_555
C1 N1 1_555 1_555
H3 C1 1_555 1_555
C2 C1 1_555 1_555
C3 C2 1_555 1_555
H4 C3 1_555 1_555
C4 C3 1_555 1_555
H5 C4 1_555 1_555
C5 N1 1_555 1_555
H6 C5 1_555 1_555
C6 C2 1_555 1_555
H7 C6 1_555 1_555
H8 C6 1_555 1_555
C7 N2 1_555 1_555
H9 C7 1_555 1_555
C8 N2 1_555 1_555
H10 C8 1_555 1_555
C9 C10 1_555 1_555
C10 H11 1_555 1_555
H12 C10 1_555 1_555
C11 C10 1_555 1_555
H13 C11 1_555 1_555
H14 C11 1_555 1_555
C12 C11 1_555 1_555
C13 O5 1_555 1_555
C14 C13 1_555 1_555
H15 C14 1_555 1_555
H16 C14 1_555 1_555
C15 C14 1_555 1_555
H17 C15 1_555 1_555
H18 C15 1_555 1_555
C16 C15 1_555 1_555
Cu1A O3 1_555 1_555
Cu1A_2 O8 1_555 1_555
Cu2A O4 1_555 1_555
Cu2A_2 N1A 1_555 1_555
Cu2A_3 O5A 1_555 1_555
O1A Cu2A 1_555 1_555
O2A Cu1A 1_555 1_555
O3A Cu1 1_555 1_555
O4A Cu2 1_555 1_555
O5A C13A 1_555 1_555
O5A_2 Cu2A 1_555 1_555
O6A Cu1A_2 1_555 1_555
O6A_2 Cu1A 1_555 1_555
O7A C16A 1_555 1_555
O8A Cu1 1_555 1_555
O8_2 Cu1A 1_555 1_555
O9A Cu2A 1_555 1_555
H1A O9A 1_555 1_555
H2A O9A 1_555 1_555
N1A C1A 1_555 1_555
N1A_2 Cu2A 1_555 1_555
N2A C6A 1_555 1_555
C1A H3A 1_555 1_555
C2A C1A 1_555 1_555
C3A C2A 1_555 1_555
H4A C3A 1_555 1_555
C4A C3A 1_555 1_555
H5A C4A 1_555 1_555
C5A N1A 1_555 1_555
H6A C5A 1_555 1_555
C6A C2A 1_555 1_555
H7A C6A 1_555 1_555
H8A C6A 1_555 1_555
C7A C8 1_555 1_555
H9A C7A 1_555 1_555
C8A C7 1_555 1_555
H10A C8A 1_555 1_555
C9A O1A 1_555 1_555
C10A C9A 1_555 1_555
H11A C10A 1_555 1_555
H12A C10A 1_555 1_555
C11A C10A 1_555 1_555
H13A C11A 1_555 1_555
H14A C11A 1_555 1_555
C12A O3A 1_555 1_555
C13A O6A 1_555 1_555
C14A C13A 1_555 1_555
H15A C14A 1_555 1_555
H16A C14A 1_555 1_555
C15A C14A 1_555 1_555
H17A C15A 1_555 1_555
H18A C15A 1_555 1_555
C16A O8A 1_555 1_555
O6 C13 1_555 1_555
C4 C5 1_555 1_555
O2A C9A 1_555 1_555
O4A C12A 1_555 1_555
N2A C7A 1_555 1_555
N2A C8A 1_555 1_555
C4A C5A 1_555 1_555
C11A C12A 1_555 1_555
C15A C16A 1_555 1_555

#END
