
#######################################################################
#
#                 Cambridge Crystallographic Data Centre
#                                CCDC 
#
#######################################################################
#
# If this CIF has been generated from an entry in the Cambridge 
# Structural Database, then it will include bibliographic, chemical, 
# crystal, experimental, refinement or atomic coordinate data resulting 
# from the CCDC's data processing and validation procedures.
#
#######################################################################

data_BUZGUZ
_symmetry_cell_setting           triclinic
_symmetry_space_group_name_H-M   'P -1'
_symmetry_Int_Tables_number      2
_space_group_name_Hall           '-P 1'
loop_
_symmetry_equiv_pos_site_id
_symmetry_equiv_pos_as_xyz
1 x,y,z
2 -x,-y,-z
_cell_length_a                   6.0717(6)
_cell_length_b                   7.3951(7)
_cell_length_c                   12.2021(12)
_cell_angle_alpha                100.705(4)
_cell_angle_beta                 94.465(4)
_cell_angle_gamma                95.973(4)
_cell_volume                     532.773
loop_
_atom_site_label
_atom_site_type_symbol
_atom_site_fract_x
_atom_site_fract_y
_atom_site_fract_z
Zn1 Zn 0.42324(5) 0.65424(4) 0.08823(2)
Zn2 Zn 1.08609(5) 0.43234(4) 0.82302(2)
O1 O 0.8251(3) 0.7193(3) 0.31635(16)
O2 O 0.6339(4) 0.8770(3) 0.0715(2)
H1 H 0.626(7) 0.983(4) 0.107(3)
H2 H 0.724(5) 0.891(5) 0.024(3)
O3 O 0.4644(3) 0.7277(3) 0.26260(17)
O4 O 0.4375(4) 0.8084(3) 0.77741(17)
O5 O 0.9368(4) 0.8075(3) 0.91062(19)
O6 O 0.9318(3) 0.6086(3) 0.75020(17)
O7 O 0.1158(3) 0.6868(3) 0.09453(16)
H3 H 0.058(6) 0.715(5) 0.038(2)
O8 O 0.6235(3) 0.4559(2) 0.08989(15)
H4 H 0.591(6) 0.381(4) 0.131(3)
N1 N 0.6802(4) 0.8394(3) 0.64810(18)
C1 C 0.7299(4) 0.8200(4) 0.5403(2)
H5 H 0.8757 0.8511 0.5258
C2 C 0.5702(4) 0.7557(4) 0.4527(2)
C3 C 0.3506(5) 0.7039(4) 0.4776(2)
H6 H 0.2382 0.6614 0.4194
C4 C 0.3035(5) 0.7159(4) 0.5847(2)
H7 H 0.1602 0.6760 0.5991
C5 C 0.4689(5) 0.7886(4) 0.6768(2)
C6 C 0.6245(5) 0.7332(4) 0.3345(2)
C7 C 0.8521(5) 0.9123(4) 0.7419(2)
H8 H 0.9857 0.9607 0.7131
H9 H 0.8006 1.0139 0.7917
C8 C 0.9085(4) 0.7646(4) 0.8081(2)
Zn1A Zn 0.57676(5) 0.34576(4) -0.08823(2)
Zn2A Zn 0.91391(5) 0.56766(4) 0.17698(2)
Zn2A_2 Zn -0.08609(5) 0.56766(4) 0.17698(2)
O1A O 1.1749(3) 0.2807(3) 0.68365(16)
O7A O 0.8842(3) 0.3132(3) 0.90547(16)
H3A H 0.942(6) 0.285(5) 0.962(2)
O8A O 0.3765(3) 0.5441(2) -0.08989(15)
O8A_2 O 1.3765(3) 0.5441(2) 0.91011(15)
H4A H 0.409(6) 0.619(4) -0.131(3)
H4A_2 H 1.409(6) 0.619(4) 0.869(3)
loop_
_geom_bond_atom_site_label_1
_geom_bond_atom_site_label_2
_geom_bond_site_symmetry_1
_geom_bond_site_symmetry_2
Zn1 O2 1_555 1_555
Zn2 O6 1_555 1_555
O1 C6 1_555 1_555
O2 H1 1_555 1_555
H2 O2 1_555 1_555
O3 Zn1 1_555 1_555
O4 C5 1_555 1_555
O5 C8 1_555 1_555
O6 C8 1_555 1_555
O7 Zn1 1_555 1_555
H3 O7 1_555 1_555
O8 Zn1 1_555 1_555
H4 O8 1_555 1_555
N1 C1 1_555 1_555
C1 H5 1_555 1_555
C2 C1 1_555 1_555
C3 C2 1_555 1_555
H6 C3 1_555 1_555
C4 C3 1_555 1_555
H7 C4 1_555 1_555
C5 N1 1_555 1_555
C6 O3 1_555 1_555
C7 N1 1_555 1_555
H8 C7 1_555 1_555
H9 C7 1_555 1_555
C8 C7 1_555 1_555
Zn1A O8 1_555 1_555
Zn2A O1 1_555 1_555
Zn2A_2 O7 1_555 1_555
O1A Zn2 1_555 1_555
O7A Zn2 1_555 1_555
H3A O7A 1_555 1_555
O8A Zn1 1_555 1_555
O8A_2 Zn2 1_555 1_555
H4A O8A 1_555 1_555
H4A_2 O8A_2 1_555 1_555
O8 Zn2A 1_555 1_555
C2 C6 1_555 1_555
C4 C5 1_555 1_555
Zn1A O8A 1_555 1_555

#END
