
#######################################################################
#
#                 Cambridge Crystallographic Data Centre
#                                CCDC 
#
#######################################################################
#
# If this CIF has been generated from an entry in the Cambridge 
# Structural Database, then it will include bibliographic, chemical, 
# crystal, experimental, refinement or atomic coordinate data resulting 
# from the CCDC's data processing and validation procedures.
#
#######################################################################

data_BUZHAG
_symmetry_cell_setting           monoclinic
_symmetry_space_group_name_H-M   'P 21/n'
_symmetry_Int_Tables_number      14
_space_group_name_Hall           '-P 2yn'
loop_
_symmetry_equiv_pos_site_id
_symmetry_equiv_pos_as_xyz
1 x,y,z
2 1/2-x,1/2+y,1/2-z
3 -x,-y,-z
4 1/2+x,1/2-y,1/2+z
_cell_length_a                   8.6597(3)
_cell_length_b                   17.6471(7)
_cell_length_c                   13.1451(5)
_cell_angle_alpha                90
_cell_angle_beta                 101.989(2)
_cell_angle_gamma                90
_cell_volume                     1965
loop_
_atom_site_label
_atom_site_type_symbol
_atom_site_fract_x
_atom_site_fract_y
_atom_site_fract_z
Zn1 Zn 0.01539(3) 0.512084(16) 0.19354(2)
O1 O -0.0891(2) 0.44105(11) 0.07633(13)
H1 H -0.145(3) 0.4642(14) 0.0246(17)
H2 H -0.022(2) 0.4186(13) 0.0498(19)
O2 O 0.1807(2) 0.59476(11) 0.26752(16)
O4 O 0.2332(2) 0.54338(11) 0.12753(15)
O5 O 0.7710(2) 0.78511(11) 0.21927(17)
O6 O 0.84880(19) 0.59177(10) 0.13773(15)
O7 O 0.9296(2) 0.65443(11) 0.00990(15)
N1 N 0.6087(2) 0.69352(12) 0.13660(17)
N2 N 0.1571(2) 0.41978(11) 0.27603(16)
N3 N -0.1076(2) 0.48421(10) 0.31209(16)
C1 C 0.4866(3) 0.64493(13) 0.1331(2)
H5 H 0.4627 0.6109 0.0780
C2 C 0.3983(3) 0.64394(14) 0.20665(19)
C3 C 0.4342(3) 0.69829(15) 0.2877(2)
H6 H 0.3733 0.7006 0.3382
C4 C 0.5556(3) 0.74632(15) 0.2920(2)
H7 H 0.5763 0.7818 0.3454
C5 C 0.6537(3) 0.74479(15) 0.2174(2)
C6 C 0.2630(3) 0.59073(16) 0.1998(2)
C7 C 0.6969(3) 0.69380(15) 0.0535(2)
H8 H 0.7319 0.7452 0.0450
H9 H 0.6258 0.6795 -0.0107
C8 C 0.8389(3) 0.64227(14) 0.0693(2)
C9 C 0.2859(3) 0.38825(15) 0.2562(2)
H10 H 0.3224 0.4041 0.1979
C10 C 0.3699(3) 0.33177(16) 0.3194(2)
H11 H 0.4605 0.3109 0.3034
C11 C 0.3176(3) 0.30797(15) 0.4042(2)
H12 H 0.3723 0.2703 0.4465
C12 C 0.1810(3) 0.33989(13) 0.42858(19)
C13 C 0.1176(3) 0.31999(14) 0.5171(2)
H13 H 0.1673 0.2827 0.5622
C14 C -0.0115(3) 0.35374(14) 0.5364(2)
H14 H -0.0477 0.3406 0.5958
C15 C -0.0941(3) 0.40910(14) 0.46811(19)
C16 C -0.2352(3) 0.44395(15) 0.4817(2)
H15 H -0.2789 0.4312 0.5384
C17 C -0.3070(3) 0.49636(16) 0.4113(2)
H16 H -0.4001 0.5195 0.4195
C18 C -0.2401(3) 0.51501(14) 0.3275(2)
H17 H -0.2906 0.5507 0.2800
C19 C -0.0360(2) 0.43074(13) 0.38070(18)
C20 C 0.1049(3) 0.39655(13) 0.36040(18)
Zn1_2 Zn 1.01539(3) 0.512084(16) 0.19354(2)
O6_2 O -0.15120(19) 0.59177(10) 0.13773(15)
O3 O 0.9020(3) 0.8875(2) 0.3739(2)
H3 H 0.825(3) 0.900(2) 0.397(3)
H4 H 0.864(4) 0.866(2) 0.317(2)
loop_
_geom_bond_atom_site_label_1
_geom_bond_atom_site_label_2
_geom_bond_site_symmetry_1
_geom_bond_site_symmetry_2
Zn1 O1 1_555 1_555
O1 H1 1_555 1_555
H2 O1 1_555 1_555
O2 Zn1 1_555 1_555
O3 H3 1_555 1_555
H4 O3 1_555 1_555
O4 Zn1 1_555 1_555
O5 C5 1_555 1_555
O6 C8 1_555 1_555
O7 C8 1_555 1_555
N1 C1 1_555 1_555
N2 Zn1 1_555 1_555
N3 Zn1 1_555 1_555
C1 H5 1_555 1_555
C2 C1 1_555 1_555
C3 C2 1_555 1_555
H6 C3 1_555 1_555
C4 C3 1_555 1_555
H7 C4 1_555 1_555
C5 N1 1_555 1_555
C6 O2 1_555 1_555
C7 N1 1_555 1_555
H8 C7 1_555 1_555
H9 C7 1_555 1_555
C8 C7 1_555 1_555
C9 N2 1_555 1_555
H10 C9 1_555 1_555
C10 C9 1_555 1_555
H11 C10 1_555 1_555
C11 C10 1_555 1_555
H12 C11 1_555 1_555
C12 C11 1_555 1_555
C13 C12 1_555 1_555
H13 C13 1_555 1_555
C14 C13 1_555 1_555
H14 C14 1_555 1_555
C15 C14 1_555 1_555
C16 C15 1_555 1_555
H15 C16 1_555 1_555
C17 C16 1_555 1_555
H16 C17 1_555 1_555
C18 N3 1_555 1_555
H17 C18 1_555 1_555
C19 N3 1_555 1_555
C20 N2 1_555 1_555
Zn1_2 O6 1_555 1_555
O6_2 Zn1 1_555 1_555
O4 C6 1_555 1_555
C2 C6 1_555 1_555
C4 C5 1_555 1_555
C12 C20 1_555 1_555
C15 C19 1_555 1_555
C17 C18 1_555 1_555
C19 C20 1_555 1_555

#END
