
#######################################################################
#
#                 Cambridge Crystallographic Data Centre
#                                CCDC 
#
#######################################################################
#
# If this CIF has been generated from an entry in the Cambridge 
# Structural Database, then it will include bibliographic, chemical, 
# crystal, experimental, refinement or atomic coordinate data resulting 
# from the CCDC's data processing and validation procedures.
#
#######################################################################

data_BUZHEK
_symmetry_cell_setting           monoclinic
_symmetry_space_group_name_H-M   'P 21/c'
_symmetry_Int_Tables_number      14
_space_group_name_Hall           '-P 2ybc'
loop_
_symmetry_equiv_pos_site_id
_symmetry_equiv_pos_as_xyz
1 x,y,z
2 -x,1/2+y,1/2-z
3 -x,-y,-z
4 x,1/2-y,1/2+z
_cell_length_a                   8.544(2)
_cell_length_b                   19.517(5)
_cell_length_c                   8.711(3)
_cell_angle_alpha                90
_cell_angle_beta                 111.271(9)
_cell_angle_gamma                90
_cell_volume                     1353.63
loop_
_atom_site_label
_atom_site_type_symbol
_atom_site_fract_x
_atom_site_fract_y
_atom_site_fract_z
Cd1 Cd 0.69071(2) 0.215270(10) 0.18856(2)
O1 O 0.4676(3) 0.15595(12) 0.1971(3)
H1 H 0.393(4) 0.1778(17) 0.218(5)
H2 H 0.479(4) 0.1199(12) 0.246(4)
O2 O 0.6409(3) 0.29302(10) 0.4135(3)
O3 O 0.9202(4) 0.28000(12) 0.2019(3)
H3 H 0.895(5) 0.3021(18) 0.113(3)
H4 H 0.931(5) 0.3119(16) 0.271(3)
O4 O -0.1062(3) 0.33208(12) -0.0895(3)
O5 O 0.5132(3) 0.51804(13) 0.2486(3)
O6 O 0.5201(3) 0.31211(12) 0.1482(2)
O9 O -0.1377(3) 0.39831(13) -0.3020(3)
N1 N 0.3424(3) 0.42360(12) 0.1860(3)
C1 C 0.2004(3) 0.39158(14) 0.0883(3)
H11 H 0.1736 0.3491 0.1205
C2 C 0.0960(3) 0.41965(14) -0.0552(3)
C3 C 0.1419(4) 0.48379(16) -0.1017(4)
H12 H 0.0758 0.5033 -0.2016
C4 C 0.2806(4) 0.51712(15) -0.0026(4)
H13 H 0.3074 0.5595 -0.0351
C5 C 0.3867(3) 0.48864(14) 0.1505(3)
C6 C -0.0586(3) 0.38174(15) -0.1554(3)
C7 C 0.4517(3) 0.38693(14) 0.3346(3)
H14 H 0.3839 0.3704 0.3952
H15 H 0.5336 0.4188 0.4050
C8 C 0.5438(3) 0.32669(14) 0.2952(3)
Cd1C Cd 0.69071(2) 0.284730(10) 0.68856(2)
Cd1C_2 Cd -0.30929(2) 0.284730(10) -0.31144(2)
O2C O 0.6409(3) 0.20698(10) -0.0865(3)
O4C O 0.8938(3) 0.16792(12) 0.4105(3)
O9C O 0.8623(3) 0.10169(13) 0.1980(3)
O7 O 0.9804(7) 0.3739(2) 0.4290(5)
H5 H 0.947(8) 0.371(3) 0.507(6)
H6 H 1.048(7) 0.406(3) 0.452(8)
O8 O 0.7949(4) 0.52439(15) 0.5351(4)
H7 H 0.847(5) 0.4874(17) 0.530(5)
H8 H 0.707(4) 0.517(2) 0.448(4)
O10 O 0.2684(4) 0.23081(16) 0.3235(4)
H9 H 0.290(5) 0.219(2) 0.423(3)
H10 H 0.165(3) 0.241(3) 0.292(5)
loop_
_geom_bond_atom_site_label_1
_geom_bond_atom_site_label_2
_geom_bond_site_symmetry_1
_geom_bond_site_symmetry_2
Cd1 O1 1_555 1_555
O1 H1 1_555 1_555
H2 O1 1_555 1_555
O2 Cd1 1_555 1_555
O3 Cd1 1_555 1_555
H3 O3 1_555 1_555
H4 O3 1_555 1_555
O4 C6 1_555 1_555
O5 C5 1_555 1_555
O6 Cd1 1_555 1_555
O7 H5 1_555 1_555
H6 O7 1_555 1_555
O8 H7 1_555 1_555
H8 O8 1_555 1_555
O9 C6 1_555 1_555
O10 H9 1_555 1_555
H10 O10 1_555 1_555
N1 C1 1_555 1_555
C1 H11 1_555 1_555
C2 C1 1_555 1_555
C3 C2 1_555 1_555
H12 C3 1_555 1_555
C4 C3 1_555 1_555
H13 C4 1_555 1_555
C5 N1 1_555 1_555
C6 C2 1_555 1_555
C7 N1 1_555 1_555
H14 C7 1_555 1_555
H15 C7 1_555 1_555
C8 O2 1_555 1_555
Cd1C O2 1_555 1_555
Cd1C_2 O4 1_555 1_555
O2C Cd1 1_555 1_555
O4C Cd1 1_555 1_555
O9C Cd1 1_555 1_555
O6 C8 1_555 1_555
O9 Cd1C_2 1_555 1_555
C4 C5 1_555 1_555
C7 C8 1_555 1_555

#END
