
#######################################################################
#
#                 Cambridge Crystallographic Data Centre
#                                CCDC 
#
#######################################################################
#
# If this CIF has been generated from an entry in the Cambridge 
# Structural Database, then it will include bibliographic, chemical, 
# crystal, experimental, refinement or atomic coordinate data resulting 
# from the CCDC's data processing and validation procedures.
#
#######################################################################

data_BUZJUC
_symmetry_cell_setting           triclinic
_symmetry_space_group_name_H-M   'P -1'
_symmetry_Int_Tables_number      2
_space_group_name_Hall           '-P 1'
loop_
_symmetry_equiv_pos_site_id
_symmetry_equiv_pos_as_xyz
1 x,y,z
2 -x,-y,-z
_cell_length_a                   10.5319(5)
_cell_length_b                   11.8784(4)
_cell_length_c                   17.7500(7)
_cell_angle_alpha                93.367(3)
_cell_angle_beta                 96.008(3)
_cell_angle_gamma                105.385(2)
_cell_volume                     2120.55
loop_
_atom_site_label
_atom_site_type_symbol
_atom_site_fract_x
_atom_site_fract_y
_atom_site_fract_z
Cu1 Cu -0.03537(6) 0.36245(5) 0.79804(3)
Cu2 Cu 0.35775(6) 0.31522(5) 0.82413(3)
O1 O 0.3218(3) 0.4223(2) 0.90896(17)
O2 O 0.2828(3) 0.1869(3) 0.87743(18)
N1 N -0.1244(3) 0.4001(3) 0.7031(2)
O3 O 0.0471(3) 0.5213(3) 0.83093(17)
O4 O 0.1486(3) 0.3143(2) 0.73274(16)
N2 N -0.3080(4) 0.3471(3) 0.90580(19)
N3 N -0.1019(3) 0.1855(3) 0.77708(19)
O5 O 0.0342(3) 0.3191(2) 0.90013(16)
N4 N 0.4141(3) 0.4686(3) 0.77696(19)
O6 O -0.2612(3) 0.3607(3) 0.84348(17)
O7 O -0.4224(3) 0.3564(3) 0.91190(17)
O8 O -0.2406(3) 0.3226(3) 0.96213(17)
C1 C 0.2535(4) 0.3903(4) 0.9740(2)
H1 H 0.302 0.443 1.0191
H2 H 0.2541 0.3093 0.984
C2 C -0.2158(4) 0.1973(4) 0.6483(2)
N6 N 0.4228(3) 0.2197(3) 0.7497(2)
C3 C -0.1500(4) 0.5020(4) 0.6986(2)
C4 C 0.2080(4) 0.3946(4) 0.6812(2)
H3 H 0.139 0.4206 0.6503
H4 H 0.2549 0.3564 0.6465
C5 C 0.4091(4) 0.0610(3) 0.8336(2)
C6 C -0.2299(4) 0.1559(4) 0.7254(2)
H5 H -0.2682 0.0698 0.72
H6 H -0.293 0.1913 0.749
C7 C -0.1058(4) 0.5996(3) 0.7551(2)
C8 C -0.0033(4) 0.1294(3) 0.7462(2)
H7 H 0.0556 0.1144 0.7894
H8 H -0.0521 0.0527 0.7187
C9 C -0.1293(4) 0.1435(4) 0.8526(2)
H9 H -0.1474 0.0571 0.8493
H10 H -0.2094 0.1637 0.867
C10 C -0.0079(4) 0.6068(4) 0.8182(2)
C11 C -0.1576(4) 0.6968(4) 0.7426(3)
H11 H -0.2218 0.6925 0.7
C12 C 0.4988(4) 0.3771(4) 0.6681(2)
C13 C 0.3050(4) 0.4985(4) 0.7280(2)
H12 H 0.3451 0.556 0.6931
H13 H 0.2554 0.5367 0.761
C14 C 0.5302(4) 0.4684(4) 0.7347(2)
H14 H 0.6024 0.4551 0.7704
H15 H 0.5633 0.5466 0.7162
C15 C 0.5245(4) 0.4113(4) 0.5960(3)
H16 H 0.5565 0.4924 0.5896
C16 C 0.0811(4) 0.2009(4) 0.6935(2)
H17 H 0.1467 0.1609 0.6779
H18 H 0.0248 0.2103 0.6473
C17 C 0.1124(4) 0.3972(4) 0.9635(2)
H19 H 0.0718 0.3769 1.0105
H20 H 0.1116 0.4786 0.955
C18 C 0.3298(4) 0.0954(4) 0.8851(2)
C19 C -0.1906(5) 0.2706(4) 0.5023(3)
H21 H -0.1802 0.2952 0.4528
C20 C 0.5044(5) 0.3302(4) 0.5336(3)
H22 H 0.523 0.3552 0.4851
C21 C -0.1157(5) 0.7974(4) 0.7918(3)
H23 H -0.1526 0.8613 0.7843
C22 C 0.4520(4) 0.2563(4) 0.6763(2)
C23 C 0.4270(4) 0.1756(4) 0.6132(2)
H24 H 0.3893 0.0949 0.6184
C24 C 0.4622(4) 0.5600(4) 0.8432(2)
H25 H 0.4773 0.6389 0.8246
H26 H 0.5478 0.5533 0.8686
C25 C -0.1656(4) 0.3172(4) 0.6371(2)
C26 C 0.4414(4) 0.1190(4) 0.7664(2)
C27 C 0.4214(5) -0.1048(4) 0.9055(3)
H27 H 0.452 -0.1722 0.913
C28 C 0.2975(5) 0.0264(4) 0.9460(3)
H28 H 0.243 0.047 0.9808
C30 C -0.2450(5) 0.1537(4) 0.5105(3)
H32 H -0.2743 0.0985 0.4671
C31 C -0.1505(4) 0.3535(4) 0.5653(3)
H33 H -0.1134 0.4339 0.5588
C32 C -0.2566(4) 0.1176(4) 0.5832(3)
H34 H -0.2931 0.0368 0.5889
C33 C 0.0362(4) 0.7115(4) 0.8650(3)
H35 H 0.1048 0.7194 0.9059
C35 C 0.3625(4) 0.5461(4) 0.8999(3)
H36 H 0.4038 0.5914 0.949
H37 H 0.2855 0.5738 0.8804
C36 C 0.4564(5) 0.2113(4) 0.5430(3)
H38 H 0.4439 0.1546 0.5009
C37 C 0.3440(5) -0.0705(4) 0.9558(3)
H39 H 0.3225 -0.1146 0.9979
C38 C -0.0174(5) 0.8039(4) 0.8532(3)
H40 H 0.0124 0.8731 0.8871
C39 C -0.0132(4) 0.1977(4) 0.9136(2)
H41 H -0.0421 0.1906 0.9648
H42 H 0.0578 0.1579 0.9102
C40 C 0.4539(5) -0.0410(4) 0.8445(3)
H43 H 0.5064 -0.0649 0.8097
H47 H 0.482(5) 0.076(4) 0.731(3)
H48 H -0.204(4) 0.510(3) 0.651(2)
Cu2_2 Cu -0.64225(6) 0.31522(5) 0.82413(3)
O7_2 O 0.5776(3) 0.3564(3) 0.91190(17)
N5 N -0.4357(4) 0.8303(3) 0.6624(2)
O9 O -0.5014(3) 0.9038(3) 0.6542(2)
O10 O -0.3144(4) 0.8585(3) 0.6574(2)
O11 O -0.4929(4) 0.7270(3) 0.6709(3)
N7 N -0.8459(4) 0.9520(4) 0.6621(3)
C29 C -0.7860(5) 0.7677(4) 0.7100(3)
H29 H -0.8564 0.6972 0.6897
H30 H -0.7759 0.7729 0.7657
H31 H -0.7023 0.7638 0.692
C34 C -0.8210(5) 0.8710(4) 0.6840(3)
C41 C -1.1402(6) 0.7338(5) 0.5292(3)
C42 C -1.1134(5) 0.8589(5) 0.5273(3)
H44 H -1.0176 0.8952 0.5383
H45 H -1.159 0.8899 0.5655
H46 H -1.1454 0.8767 0.4767
N8 N -1.1614(6) 0.6343(5) 0.5295(3)
loop_
_geom_bond_atom_site_label_1
_geom_bond_atom_site_label_2
_geom_bond_site_symmetry_1
_geom_bond_site_symmetry_2
Cu1 N1 1_555 1_555
Cu2 O1 1_555 1_555
O1 C1 1_555 1_555
O2 Cu2 1_555 1_555
N1 C3 1_555 1_555
O3 Cu1 1_555 1_555
O4 Cu1 1_555 1_555
N2 O6 1_555 1_555
N3 Cu1 1_555 1_555
O5 Cu1 1_555 1_555
N4 Cu2 1_555 1_555
O6 Cu1 1_555 1_555
O7 N2 1_555 1_555
N5 O9 1_555 1_555
O8 N2 1_555 1_555
C1 H1 1_555 1_555
H2 C1 1_555 1_555
C2 C6 1_555 1_555
N6 Cu2 1_555 1_555
C3 C7 1_555 1_555
O10 N5 1_555 1_555
C4 O4 1_555 1_555
H3 C4 1_555 1_555
H4 C4 1_555 1_555
C5 C18 1_555 1_555
C6 N3 1_555 1_555
H5 C6 1_555 1_555
H6 C6 1_555 1_555
C7 C10 1_555 1_555
C8 N3 1_555 1_555
H7 C8 1_555 1_555
H8 C8 1_555 1_555
C9 N3 1_555 1_555
H9 C9 1_555 1_555
H10 C9 1_555 1_555
C10 O3 1_555 1_555
C11 C7 1_555 1_555
H11 C11 1_555 1_555
C12 C14 1_555 1_555
C13 N4 1_555 1_555
H12 C13 1_555 1_555
H13 C13 1_555 1_555
C14 N4 1_555 1_555
H14 C14 1_555 1_555
H15 C14 1_555 1_555
C15 C12 1_555 1_555
H16 C15 1_555 1_555
C16 O4 1_555 1_555
H17 C16 1_555 1_555
H18 C16 1_555 1_555
C17 O5 1_555 1_555
H19 C17 1_555 1_555
H20 C17 1_555 1_555
C18 O2 1_555 1_555
C19 H21 1_555 1_555
C20 C15 1_555 1_555
H22 C20 1_555 1_555
O11 N5 1_555 1_555
N7 C34 1_555 1_555
C21 C11 1_555 1_555
H23 C21 1_555 1_555
C22 N6 1_555 1_555
C23 C22 1_555 1_555
H24 C23 1_555 1_555
C24 N4 1_555 1_555
H25 C24 1_555 1_555
H26 C24 1_555 1_555
C25 N1 1_555 1_555
C26 N6 1_555 1_555
C27 H27 1_555 1_555
C28 C18 1_555 1_555
H28 C28 1_555 1_555
C29 H29 1_555 1_555
H30 C29 1_555 1_555
H31 C29 1_555 1_555
C30 C19 1_555 1_555
H32 C30 1_555 1_555
C31 C19 1_555 1_555
H33 C31 1_555 1_555
C32 C2 1_555 1_555
H34 C32 1_555 1_555
C33 C10 1_555 1_555
H35 C33 1_555 1_555
C34 C29 1_555 1_555
C35 O1 1_555 1_555
H36 C35 1_555 1_555
H37 C35 1_555 1_555
C36 C20 1_555 1_555
H38 C36 1_555 1_555
C37 C27 1_555 1_555
H39 C37 1_555 1_555
C38 C21 1_555 1_555
H40 C38 1_555 1_555
C39 O5 1_555 1_555
H41 C39 1_555 1_555
H42 C39 1_555 1_555
C40 C5 1_555 1_555
H43 C40 1_555 1_555
C41 C42 1_555 1_555
C42 H44 1_555 1_555
H45 C42 1_555 1_555
H46 C42 1_555 1_555
N8 C41 1_555 1_555
H47 C26 1_555 1_555
H48 C3 1_555 1_555
Cu2_2 O7 1_555 1_555
O7_2 Cu2 1_555 1_555
Cu2 O4 1_555 1_555
C1 C17 1_555 1_555
C2 C25 1_555 1_555
C4 C13 1_555 1_555
C5 C26 1_555 1_555
C8 C16 1_555 1_555
C9 C39 1_555 1_555
C12 C22 1_555 1_555
C23 C36 1_555 1_555
C24 C35 1_555 1_555
C25 C31 1_555 1_555
C27 C40 1_555 1_555
C28 C37 1_555 1_555
C30 C32 1_555 1_555
C33 C38 1_555 1_555

#END
