
#######################################################################
#
#                 Cambridge Crystallographic Data Centre
#                                CCDC 
#
#######################################################################
#
# If this CIF has been generated from an entry in the Cambridge 
# Structural Database, then it will include bibliographic, chemical, 
# crystal, experimental, refinement or atomic coordinate data resulting 
# from the CCDC's data processing and validation procedures.
#
#######################################################################

data_BUZMUE
_symmetry_cell_setting           monoclinic
_symmetry_space_group_name_H-M   'P 21/c'
_symmetry_Int_Tables_number      14
_space_group_name_Hall           '-P 2ybc'
loop_
_symmetry_equiv_pos_site_id
_symmetry_equiv_pos_as_xyz
1 x,y,z
2 -x,1/2+y,1/2-z
3 -x,-y,-z
4 x,1/2-y,1/2+z
_cell_length_a                   8.045(2)
_cell_length_b                   17.412(4)
_cell_length_c                   8.501(1)
_cell_angle_alpha                90
_cell_angle_beta                 91.13(2)
_cell_angle_gamma                90
_cell_volume                     1190.58
loop_
_atom_site_label
_atom_site_type_symbol
_atom_site_fract_x
_atom_site_fract_y
_atom_site_fract_z
Ag1 Ag 0.09553 0.12951 0.30208
C1 C -0.13570 0.15660 0.49280
C2 C -0.17820 0.20260 0.37190
C3 C -0.29700 0.18500 0.24670
C4 C -0.29290 0.12680 0.15040
C5 C -0.16770 0.06480 0.15000
C6 C -0.12580 0.02060 0.27090
C7 C -0.20630 0.01880 0.42740
C8 C -0.21060 0.08110 0.52920
C9 C -0.28480 0.07230 0.67600
C10 C -0.35800 0.00500 0.71900
C11 C -0.35620 -0.05780 0.61790
C12 C -0.27720 -0.05180 0.47450
Cl1 Cl 0.25151 0.31575 0.43629
O1 O 0.25300 0.23550 0.45620
O2 O 0.26760 0.35230 0.58620
O3 O 0.10240 0.34110 0.36050
O4 O 0.39270 0.33960 0.34680
H1 H -0.04910 0.17480 0.56280
H2 H -0.12410 0.25160 0.36760
H3 H -0.38800 0.22020 0.23310
H4 H -0.37970 0.12420 0.07140
H5 H -0.11220 0.05530 0.05300
H6 H -0.03380 -0.01380 0.25740
H7 H -0.28240 0.11470 0.74800
H8 H -0.41240 0.00200 0.81830
H9 H -0.40750 -0.10520 0.64790
H10 H -0.27060 -0.09550 0.40600
C12B C 0.27720 0.05180 0.52550
C11B C 0.35620 0.05780 0.38210
O2C O 0.26760 0.14770 0.08620
Ag1B Ag -0.09553 -0.12951 0.69792
H10B H 0.27060 0.09550 0.59400
H9B H 0.40750 0.10520 0.35210
Ag1C Ag 0.09553 0.37049 0.80208
loop_
_geom_bond_atom_site_label_1
_geom_bond_atom_site_label_2
_geom_bond_site_symmetry_1
_geom_bond_site_symmetry_2
Ag1 C1 1_555 1_555
C1 C2 1_555 1_555
C2 Ag1 1_555 1_555
C3 C2 1_555 1_555
C4 C3 1_555 1_555
C5 Ag1 1_555 1_555
C6 Ag1 1_555 1_555
C7 C6 1_555 1_555
C8 C1 1_555 1_555
C9 C8 1_555 1_555
C10 C9 1_555 1_555
C11 C10 1_555 1_555
C12 C7 1_555 1_555
Cl1 O1 1_555 1_555
O1 Ag1 1_555 1_555
O2 Cl1 1_555 1_555
O3 Cl1 1_555 1_555
O4 Cl1 1_555 1_555
H1 C1 1_555 1_555
H2 C2 1_555 1_555
H3 C3 1_555 1_555
H4 C4 1_555 1_555
H5 C5 1_555 1_555
H6 C6 1_555 1_555
H7 C9 1_555 1_555
H8 C10 1_555 1_555
H9 C11 1_555 1_555
H10 C12 1_555 1_555
C12B Ag1 1_555 1_555
C11B Ag1 1_555 1_555
O2C Ag1 1_555 1_555
Ag1B C11 1_555 1_555
H10B C12B 1_555 1_555
H9B C11B 1_555 1_555
Ag1C O2 1_555 1_555
C4 C5 1_555 1_555
C5 C6 1_555 1_555
C7 C8 1_555 1_555
C11 C12 1_555 1_555
C12 Ag1B 1_555 1_555
C12B C11B 1_555 1_555

#END
