
#######################################################################
#
#                 Cambridge Crystallographic Data Centre
#                                CCDC 
#
#######################################################################
#
# If this CIF has been generated from an entry in the Cambridge 
# Structural Database, then it will include bibliographic, chemical, 
# crystal, experimental, refinement or atomic coordinate data resulting 
# from the CCDC's data processing and validation procedures.
#
#######################################################################

data_BUZQUJ
_symmetry_cell_setting           trigonal
_symmetry_space_group_name_H-M   'P -3'
_symmetry_Int_Tables_number      147
_space_group_name_Hall           '-P 3'
loop_
_symmetry_equiv_pos_site_id
_symmetry_equiv_pos_as_xyz
1 x,y,z
2 -y,x-y,z
3 -x+y,-x,z
4 -x,-y,-z
5 y,-x+y,-z
6 x-y,x,-z
_cell_length_a                   24.0296(3)
_cell_length_b                   24.0296(3)
_cell_length_c                   17.6698(4)
_cell_angle_alpha                90
_cell_angle_beta                 90
_cell_angle_gamma                120
_cell_volume                     8835.99
loop_
_atom_site_label
_atom_site_type_symbol
_atom_site_fract_x
_atom_site_fract_y
_atom_site_fract_z
N2 N -0.1482(13) -0.1356(13) 0.5202(15)
C42 C -0.1836(12) -0.2015(14) 0.5079(9)
H36 H -0.1911 -0.2175 0.4587
C43 C -0.2078(9) -0.2434(9) 0.5689(13)
H37 H -0.2315 -0.2875 0.5607
C44 C -0.1966(9) -0.2195(10) 0.6423(10)
H38 H -0.2128 -0.2475 0.6832
C45 C -0.1613(11) -0.1536(12) 0.6547(12)
H39 H -0.1538 -0.1375 0.7038
C46 C -0.1371(12) -0.1116(8) 0.5936(19)
H40 H -0.1134 -0.0675 0.6019
N3 N -0.0816(10) -0.2491(15) 0.6917(14)
C47 C -0.0664(9) -0.2957(9) 0.7126(11)
H41 H -0.0989 -0.3383 0.7181
C48 C -0.0028(11) -0.2787(11) 0.7253(11)
H42 H 0.0074 -0.3099 0.7393
C49 C 0.0457(8) -0.2152(12) 0.7171(12)
H43 H 0.0882 -0.2038 0.7256
C50 C 0.0305(13) -0.1686(9) 0.6962(17)
H44 H 0.0629 -0.126 0.6907
C51 C -0.0332(16) -0.1856(13) 0.6835(18)
H45 H -0.0434 -0.1544 0.6695
N1 N -0.4901(4) -0.4908(4) 0.2088(5)
C1 C -0.5491(5) -0.5151(6) 0.1812(7)
H1 H -0.5694 -0.5569 0.1626
C2 C -0.5819(6) -0.4822(6) 0.1787(7)
H2 H -0.6235 -0.5015 0.1596
C3 C -0.5526(6) -0.4211(6) 0.2043(7)
H3 H -0.574 -0.3979 0.2019
C4 C -0.4913(6) -0.3925(6) 0.2342(7)
H4 H -0.471 -0.3507 0.2529
C5 C -0.4613(6) -0.4298(5) 0.2346(7)
H5 H -0.4197 -0.4117 0.2535
C6 C -0.2173(5) -0.4549(5) 0.4273(6)
C7 C -0.2208(5) -0.4480(5) 0.5034(7)
H6 H -0.247 -0.4834 0.5333
C8 C -0.1844(6) -0.3869(7) 0.5363(8)
H7 H -0.1867 -0.3821 0.5882
C9 C -0.1458(6) -0.3345(7) 0.4929(9)
H8 H -0.1232 -0.2941 0.515
C10 C -0.1406(6) -0.3416(6) 0.4177(10)
H9 H -0.1126 -0.3061 0.3889
C11 C -0.1767(5) -0.4016(6) 0.3826(8)
H10 H -0.1739 -0.4059 0.3306
C12 C -0.3299(5) -0.4170(5) 0.1161(6)
C13 C -0.2851(6) -0.3534(6) 0.1013(7)
H11 H -0.2478 -0.3323 0.1301
C14 C -0.2963(8) -0.3213(6) 0.0426(8)
H12 H -0.2659 -0.2791 0.0309
C15 C -0.3530(8) -0.3526(8) 0.0020(8)
H13 H -0.3606 -0.3303 -0.0357
C16 C -0.3975(7) -0.4145(7) 0.0153(7)
H14 H -0.4349 -0.4346 -0.0135
C17 C -0.3868(6) -0.4485(6) 0.0734(6)
H15 H -0.417 -0.4912 0.0833
C18 C -0.4218(5) -0.4682(5) 0.4107(6)
C19 C -0.3555(6) -0.4380(5) 0.4152(8)
H16 H -0.3348 -0.4613 0.4051
C20 C -0.3193(6) -0.3735(6) 0.4344(9)
H17 H -0.2748 -0.3536 0.4367
C21 C -0.3496(6) -0.3392(6) 0.4503(9)
H18 H -0.3254 -0.2965 0.4656
C22 C -0.4145(6) -0.3666(6) 0.4438(7)
H19 H -0.4342 -0.3423 0.4518
C23 C -0.4517(6) -0.4323(6) 0.4249(7)
H20 H -0.4962 -0.4516 0.422
C24 C -0.2560(5) -0.4788(5) -0.0576(6)
C25 C -0.2578(5) -0.4217(5) -0.0625(6)
H21 H -0.2951 -0.421 -0.0503
C26 C -0.2030(6) -0.3657(6) -0.0859(7)
H22 H -0.2035 -0.3274 -0.09
C27 C -0.1477(6) -0.3676(6) -0.1030(7)
H23 H -0.1111 -0.33 -0.118
C28 C -0.1452(5) -0.4232(6) -0.0985(6)
H24 H -0.1076 -0.4234 -0.1105
C29 C -0.2000(5) -0.4796(5) -0.0754(6)
H25 H -0.1991 -0.5178 -0.072
C30 C -0.5897(5) -0.7105(5) 0.1550(6)
C31 C -0.6181(6) -0.6954(6) 0.2145(7)
H26 H -0.5939 -0.6585 0.2431
C32 C -0.6830(6) -0.7360(6) 0.2306(9)
H27 H -0.7017 -0.7269 0.2714
C33 C -0.7193(7) -0.7889(7) 0.1871(11)
H28 H -0.763 -0.8147 0.1968
C34 C -0.6913(6) -0.8042(6) 0.1288(9)
H29 H -0.7159 -0.8408 0.0999
C35 C -0.6256(6) -0.7646(6) 0.1130(8)
H30 H -0.6066 -0.7752 0.074
C36 C -0.3477(5) -0.5183(5) 0.6393(6)
C37 C -0.3594(6) -0.4692(6) 0.6176(7)
H31 H -0.39 -0.4765 0.5807
C38 C -0.3249(7) -0.4093(6) 0.6516(8)
H32 H -0.3326 -0.3764 0.638
C39 C -0.2783(6) -0.3987(6) 0.7067(8)
H33 H -0.2549 -0.3585 0.7292
C40 C -0.2672(6) -0.4473(6) 0.7274(7)
H34 H -0.2364 -0.4397 0.7641
C41 C -0.3011(5) -0.5075(5) 0.6946(6)
H35 H -0.2932 -0.5403 0.7087
Hg1 Hg -0.438740(19) -0.559280(19) 0.23648(2)
Hg2 Hg -0.289970(19) -0.553580(19) 0.13333(2)
Hg3 Hg -0.3333 -0.6667 -0.05456(4)
Te1 Te -0.3333 -0.6667 0.78765(10)
Te2 Te -0.40908(3) -0.61309(3) 0.59664(4)
Te3 Te -0.47845(3) -0.56739(3) 0.38331(4)
Te4 Te -0.31193(3) -0.46293(3) 0.20889(4)
Te5 Te -0.49315(3) -0.64710(3) 0.12100(4)
Te6 Te -0.34010(3) -0.55974(3) -0.01303(4)
Te7 Te -0.27109(3) -0.54420(3) 0.36949(4)
Te8 Te -0.3333 -0.6667 0.21237(6)
Hg4 Hg -0.390230(18) -0.604120(18) 0.43939(2)
Hg5 Hg -0.3333 -0.6667 0.61835(4)
N1B N -0.0007(6) -0.5099(4) 0.2088(5)
N1A N -0.5092(4) -0.9993(6) 0.2088(5)
C1B C 0.0340(8) -0.4509(5) 0.1812(7)
C1A C -0.4849(6) -1.0340(8) 0.1812(7)
H1B H 0.0125 -0.4306 0.1626
H1A H -0.4431 -1.0125 0.1626
C2B C 0.0997(8) -0.4181(6) 0.1787(7)
C2A C -0.5178(6) -1.0997(8) 0.1787(7)
H2B H 0.1220 -0.3765 0.1596
H2A H -0.4985 -1.1220 0.1596
C3B C 0.1315(8) -0.4474(6) 0.2043(7)
C3A C -0.5789(6) -1.1315(8) 0.2043(7)
H3B H 0.1761 -0.426 0.2019
H3A H -0.6021 -1.1761 0.2019
C4B C 0.0988(8) -0.5087(6) 0.2342(7)
C4A C -0.6075(6) -1.0988(8) 0.2342(7)
H4B H 0.1203 -0.529 0.2529
H4A H -0.6493 -1.1203 0.2529
C5B C 0.0315(8) -0.5387(6) 0.2346(7)
C5A C -0.5702(5) -1.0315(8) 0.2346(7)
H5B H 0.0080 -0.5803 0.2535
H5A H -0.5883 -1.0080 0.2535
C6A C -0.5451(5) -0.7624(7) 0.4273(6)
C6B C -0.2376(7) -0.7827(5) 0.4273(6)
C7A C -0.5520(5) -0.7728(7) 0.5034(7)
C7B C -0.2272(7) -0.7792(5) 0.5034(7)
H6A H -0.5166 -0.7636 0.5333
H6B H -0.2364 -0.753 0.5333
C8A C -0.6131(7) -0.7975(9) 0.5363(8)
C8B C -0.2025(9) -0.8156(6) 0.5363(8)
H7A H -0.6179 -0.8046 0.5882
H7B H -0.1954 -0.8133 0.5882
C9A C -0.6655(7) -0.8113(9) 0.4929(9)
C9B C -0.1887(9) -0.8542(6) 0.4929(9)
H8A H -0.7059 -0.8291 0.515
H8B H -0.1709 -0.8768 0.515
C10A C -0.6584(6) -0.7990(8) 0.4177(10)
C10B C -0.2010(8) -0.8594(6) 0.4177(10)
H9A H -0.6939 -0.8065 0.3889
H9B H -0.1935 -0.8874 0.3889
C11A C -0.5984(6) -0.7751(8) 0.3826(8)
C11B C -0.2249(8) -0.8233(5) 0.3826(8)
H10A H -0.5941 -0.7680 0.3306
H10B H -0.2320 -0.8261 0.3306
C12B C -0.0871(7) -0.6701(5) 0.1161(6)
C12A C -0.5830(5) -0.9129(7) 0.1161(6)
C13B C -0.0683(8) -0.7149(6) 0.1013(7)
C13A C -0.6466(6) -0.9317(8) 0.1013(7)
H11B H -0.0845 -0.7522 0.1301
H11A H -0.6677 -0.9155 0.1301
C14B C -0.0250(10) -0.7037(8) 0.0426(8)
C14A C -0.6787(6) -0.9750(10) 0.0426(8)
H12B H -0.0132 -0.7341 0.0309
H12A H -0.7209 -0.9868 0.0309
C15B C 0.0004(11) -0.6470(8) 0.0020(8)
C15A C -0.6474(8) -1.0004(11) 0.0020(8)
H13B H 0.0303 -0.6394 -0.0357
H13A H -0.6697 -1.0303 -0.0357
C16B C -0.0170(10) -0.6025(7) 0.0153(7)
C16A C -0.5855(7) -0.9830(10) 0.0153(7)
H14B H 0.0003 -0.5651 -0.0135
H14A H -0.5654 -1.0003 -0.0135
C17B C -0.0617(8) -0.6132(6) 0.0734(6)
C17A C -0.5515(6) -0.9383(8) 0.0734(6)
H15B H -0.0742 -0.583 0.0833
H15A H -0.5088 -0.9258 0.0833
C18A C -0.5318(5) -0.9536(7) 0.4107(6)
C18B C -0.0464(7) -0.5782(5) 0.4107(6)
C19A C -0.5620(5) -0.9175(8) 0.4152(8)
C19B C -0.0825(8) -0.6445(6) 0.4152(8)
H16A H -0.5387 -0.8735 0.4051
H16B H -0.1265 -0.6652 0.4051
C20A C -0.6265(6) -0.9458(8) 0.4344(9)
C20B C -0.0542(8) -0.6807(6) 0.4344(9)
H17A H -0.6464 -0.9212 0.4367
H17B H -0.0788 -0.7252 0.4367
C21A C -0.6608(6) -1.0104(8) 0.4503(9)
C21B C 0.0104(8) -0.6504(6) 0.4503(9)
H18A H -0.7035 -1.0289 0.4656
H18B H 0.0289 -0.6746 0.4656
C22A C -0.6334(6) -1.0479(8) 0.4438(7)
C22B C 0.0479(8) -0.5855(6) 0.4438(7)
H19A H -0.6577 -1.0919 0.4518
H19B H 0.0919 -0.5658 0.4518
C23A C -0.5677(6) -1.0194(8) 0.4249(7)
C23B C 0.0194(8) -0.5483(6) 0.4249(7)
H20A H -0.5484 -1.0446 0.422
H20B H 0.0446 -0.5038 0.422
C24B C -0.2228(7) -0.7440(5) -0.0576(6)
C24A C -0.5212(5) -0.7772(7) -0.0576(6)
C25B C -0.1639(7) -0.7422(5) -0.0625(6)
C25A C -0.5783(5) -0.8361(7) -0.0625(6)
H21B H -0.1259 -0.7049 -0.0503
H21A H -0.579 -0.8741 -0.0503
C26B C -0.1627(8) -0.7970(6) -0.0859(7)
C26A C -0.6343(6) -0.8373(8) -0.0859(7)
H22B H -0.1239 -0.7965 -0.09
H22A H -0.6726 -0.8761 -0.09
C27B C -0.2199(8) -0.8523(6) -0.1030(7)
C27A C -0.6324(6) -0.7801(8) -0.1030(7)
H23B H -0.2189 -0.8889 -0.118
H23A H -0.67 -0.7811 -0.118
C28B C -0.2780(8) -0.8548(5) -0.0985(6)
C28A C -0.5768(6) -0.7220(8) -0.0985(6)
H24B H -0.3158 -0.8924 -0.1105
H24A H -0.5766 -0.6842 -0.1105
C29B C -0.2796(7) -0.8000(5) -0.0754(6)
C29A C -0.5204(5) -0.7204(7) -0.0754(6)
H25B H -0.3187 -0.8009 -0.072
H25A H -0.4822 -0.6813 -0.072
C30B C -0.1208(7) -0.4103(5) 0.1550(6)
C30A C -0.2895(5) -0.8792(7) 0.1550(6)
C31B C -0.0773(8) -0.3819(6) 0.2145(7)
C31A C -0.3046(6) -0.9227(8) 0.2145(7)
H26B H -0.0646 -0.4061 0.2431
H26A H -0.3415 -0.9354 0.2431
C32B C -0.0530(8) -0.3170(6) 0.2306(9)
C32A C -0.2640(6) -0.9470(8) 0.2306(9)
H27B H -0.0252 -0.2983 0.2714
H27A H -0.2731 -0.9748 0.2714
C33B C -0.0696(10) -0.2807(7) 0.1871(11)
C33A C -0.2111(7) -0.9304(10) 0.1871(11)
H28B H -0.0517 -0.237 0.1968
H28A H -0.1853 -0.9483 0.1968
C34B C -0.1129(8) -0.3087(6) 0.1288(9)
C34A C -0.1958(6) -0.8871(8) 0.1288(9)
H29B H -0.1249 -0.2841 0.0999
H29A H -0.1592 -0.8751 0.0999
C35B C -0.1390(8) -0.3744(6) 0.1130(8)
C35A C -0.2354(6) -0.8610(8) 0.1130(8)
H30B H -0.1686 -0.3934 0.074
H30A H -0.2248 -0.8314 0.074
C36B C -0.1706(7) -0.6523(5) 0.6393(6)
C36A C -0.4817(5) -0.8294(7) 0.6393(6)
C37B C -0.1098(8) -0.6406(6) 0.6176(7)
C37A C -0.5308(6) -0.8902(8) 0.6176(7)
H31B H -0.0865 -0.61 0.5807
H31A H -0.5235 -0.9135 0.5807
C38B C -0.0844(9) -0.6751(7) 0.6516(8)
C38A C -0.5907(6) -0.9156(9) 0.6516(8)
H32B H -0.0438 -0.6674 0.638
H32A H -0.6236 -0.9562 0.638
C39B C -0.1204(8) -0.7217(6) 0.7067(8)
C39A C -0.6013(6) -0.8796(8) 0.7067(8)
H33B H -0.1036 -0.7451 0.7292
H33A H -0.6415 -0.8964 0.7292
C40B C -0.1801(8) -0.7328(6) 0.7274(7)
C40A C -0.5527(6) -0.8199(8) 0.7274(7)
H34B H -0.2033 -0.7636 0.7641
H34A H -0.5603 -0.7967 0.7641
C41B C -0.2064(7) -0.6989(5) 0.6946(6)
C41A C -0.4925(5) -0.7936(7) 0.6946(6)
H35B H -0.2471 -0.7068 0.7087
H35A H -0.4597 -0.7529 0.7087
Hg1B Hg -0.120540(27) -0.561260(19) 0.23648(2)
Hg1A Hg -0.440720(19) -0.879460(27) 0.23648(2)
Hg2B Hg -0.263610(27) -0.710030(19) 0.13333(2)
Hg2A Hg -0.446420(19) -0.736390(27) 0.13333(2)
Hg3_2 Hg -0.3333 -0.6667 0.94544(4)
Te1_2 Te -0.3333 -0.6667 -0.21235(10)
Te2B Te -0.20401(4) -0.59092(3) 0.59664(4)
Te2A Te -0.38691(3) -0.79599(4) 0.59664(4)
Te3A Te -0.43261(3) -0.91106(4) 0.38331(4)
Te3B Te -0.08894(4) -0.52155(3) 0.38331(4)
Te4B Te -0.15100(4) -0.68807(3) 0.20889(4)
Te4A Te -0.53707(3) -0.84900(4) 0.20889(4)
Te5B Te -0.15395(4) -0.50685(3) 0.12100(4)
Te5A Te -0.35290(3) -0.84605(4) 0.12100(4)
Te6B Te -0.21964(4) -0.65990(3) -0.01303(4)
Te6A Te -0.44026(3) -0.78036(4) -0.01303(4)
Te7A Te -0.45580(3) -0.72689(4) 0.36949(4)
Te7B Te -0.27311(4) -0.72891(3) 0.36949(4)
Hg4B Hg -0.213890(25) -0.609770(18) 0.43939(2)
Hg4A Hg -0.395880(18) -0.786110(25) 0.43939(2)
loop_
_geom_bond_atom_site_label_1
_geom_bond_atom_site_label_2
_geom_bond_site_symmetry_1
_geom_bond_site_symmetry_2
N1 C1 1_555 1_555
C1 H1 1_555 1_555
C2 C1 1_555 1_555
H2 C2 1_555 1_555
C3 C2 1_555 1_555
H3 C3 1_555 1_555
C4 C3 1_555 1_555
H4 C4 1_555 1_555
C5 N1 1_555 1_555
H5 C5 1_555 1_555
C6 C7 1_555 1_555
C7 H6 1_555 1_555
C8 C7 1_555 1_555
H7 C8 1_555 1_555
C9 C8 1_555 1_555
H8 C9 1_555 1_555
C10 C9 1_555 1_555
H9 C10 1_555 1_555
C11 C6 1_555 1_555
H10 C11 1_555 1_555
C12 C13 1_555 1_555
C13 H11 1_555 1_555
C14 C13 1_555 1_555
H12 C14 1_555 1_555
C15 C14 1_555 1_555
H13 C15 1_555 1_555
C16 C15 1_555 1_555
H14 C16 1_555 1_555
C17 C12 1_555 1_555
H15 C17 1_555 1_555
C18 C19 1_555 1_555
C19 H16 1_555 1_555
C20 C19 1_555 1_555
H17 C20 1_555 1_555
C21 C20 1_555 1_555
H18 C21 1_555 1_555
C22 C21 1_555 1_555
H19 C22 1_555 1_555
C23 C18 1_555 1_555
H20 C23 1_555 1_555
C24 C25 1_555 1_555
C25 H21 1_555 1_555
C26 C25 1_555 1_555
H22 C26 1_555 1_555
C27 C26 1_555 1_555
H23 C27 1_555 1_555
C28 C27 1_555 1_555
H24 C28 1_555 1_555
C29 C24 1_555 1_555
H25 C29 1_555 1_555
C30 C31 1_555 1_555
C31 H26 1_555 1_555
C32 C31 1_555 1_555
H27 C32 1_555 1_555
C33 C32 1_555 1_555
H28 C33 1_555 1_555
C34 C33 1_555 1_555
H29 C34 1_555 1_555
C35 C30 1_555 1_555
H30 C35 1_555 1_555
C36 C37 1_555 1_555
C37 H31 1_555 1_555
C38 C37 1_555 1_555
H32 C38 1_555 1_555
C39 C38 1_555 1_555
H33 C39 1_555 1_555
C40 C39 1_555 1_555
H34 C40 1_555 1_555
C41 C36 1_555 1_555
H35 C41 1_555 1_555
Hg1 N1 1_555 1_555
Hg2 Te4 1_555 1_555
Hg3 Te6 1_555 1_555
Te1 Hg5 1_555 1_555
Te2 C36 1_555 1_555
Te3 C18 1_555 1_555
Te4 C12 1_555 1_555
Te5 C30 1_555 1_555
Te6 C24 1_555 1_555
Te7 C6 1_555 1_555
Te8 Hg2 1_555 1_555
Hg4 Te2 1_555 1_555
Hg5 Te2 1_555 1_555
N2 C42 1_555 1_555
C42 H36 1_555 1_555
C43 C42 1_555 1_555
H37 C43 1_555 1_555
C44 C43 1_555 1_555
H38 C44 1_555 1_555
C45 C44 1_555 1_555
H39 C45 1_555 1_555
C46 N2 1_555 1_555
H40 C46 1_555 1_555
N3 C47 1_555 1_555
C47 H41 1_555 1_555
C48 C47 1_555 1_555
H42 C48 1_555 1_555
C49 C48 1_555 1_555
H43 C49 1_555 1_555
C50 C49 1_555 1_555
H44 C50 1_555 1_555
C51 N3 1_555 1_555
H45 C51 1_555 1_555
N1B C1B 1_555 1_555
N1A C1A 1_555 1_555
C1B H1B 1_555 1_555
C1A H1A 1_555 1_555
C2B C1B 1_555 1_555
C2A C1A 1_555 1_555
H2B C2B 1_555 1_555
H2A C2A 1_555 1_555
C3B C2B 1_555 1_555
C3A C2A 1_555 1_555
H3B C3B 1_555 1_555
H3A C3A 1_555 1_555
C4B C3B 1_555 1_555
C4A C3A 1_555 1_555
H4B C4B 1_555 1_555
H4A C4A 1_555 1_555
C5B N1B 1_555 1_555
C5A N1A 1_555 1_555
H5B C5B 1_555 1_555
H5A C5A 1_555 1_555
C6A C7A 1_555 1_555
C6B C7B 1_555 1_555
C7A H6A 1_555 1_555
C7B H6B 1_555 1_555
C8A C7A 1_555 1_555
C8B C7B 1_555 1_555
H7A C8A 1_555 1_555
H7B C8B 1_555 1_555
C9A C8A 1_555 1_555
C9B C8B 1_555 1_555
H8A C9A 1_555 1_555
H8B C9B 1_555 1_555
C10A C9A 1_555 1_555
C10B C9B 1_555 1_555
H9A C10A 1_555 1_555
H9B C10B 1_555 1_555
C11A C6A 1_555 1_555
C11B C6B 1_555 1_555
H10A C11A 1_555 1_555
H10B C11B 1_555 1_555
C12B C13B 1_555 1_555
C12A C13A 1_555 1_555
C13B H11B 1_555 1_555
C13A H11A 1_555 1_555
C14B C13B 1_555 1_555
C14A C13A 1_555 1_555
H12B C14B 1_555 1_555
H12A C14A 1_555 1_555
C15B C14B 1_555 1_555
C15A C14A 1_555 1_555
H13B C15B 1_555 1_555
H13A C15A 1_555 1_555
C16B C15B 1_555 1_555
C16A C15A 1_555 1_555
H14B C16B 1_555 1_555
H14A C16A 1_555 1_555
C17B C12B 1_555 1_555
C17A C12A 1_555 1_555
H15B C17B 1_555 1_555
H15A C17A 1_555 1_555
C18A C19A 1_555 1_555
C18B C19B 1_555 1_555
C19A H16A 1_555 1_555
C19B H16B 1_555 1_555
C20A C19A 1_555 1_555
C20B C19B 1_555 1_555
H17A C20A 1_555 1_555
H17B C20B 1_555 1_555
C21A C20A 1_555 1_555
C21B C20B 1_555 1_555
H18A C21A 1_555 1_555
H18B C21B 1_555 1_555
C22A C21A 1_555 1_555
C22B C21B 1_555 1_555
H19A C22A 1_555 1_555
H19B C22B 1_555 1_555
C23A C18A 1_555 1_555
C23B C18B 1_555 1_555
H20A C23A 1_555 1_555
H20B C23B 1_555 1_555
C24B C25B 1_555 1_555
C24A C25A 1_555 1_555
C25B H21B 1_555 1_555
C25A H21A 1_555 1_555
C26B C25B 1_555 1_555
C26A C25A 1_555 1_555
H22B C26B 1_555 1_555
H22A C26A 1_555 1_555
C27B C26B 1_555 1_555
C27A C26A 1_555 1_555
H23B C27B 1_555 1_555
H23A C27A 1_555 1_555
C28B C27B 1_555 1_555
C28A C27A 1_555 1_555
H24B C28B 1_555 1_555
H24A C28A 1_555 1_555
C29B C24B 1_555 1_555
C29A C24A 1_555 1_555
H25B C29B 1_555 1_555
H25A C29A 1_555 1_555
C30B C31B 1_555 1_555
C30A C31A 1_555 1_555
C31B H26B 1_555 1_555
C31A H26A 1_555 1_555
C32B C31B 1_555 1_555
C32A C31A 1_555 1_555
H27B C32B 1_555 1_555
H27A C32A 1_555 1_555
C33B C32B 1_555 1_555
C33A C32A 1_555 1_555
H28B C33B 1_555 1_555
H28A C33A 1_555 1_555
C34B C33B 1_555 1_555
C34A C33A 1_555 1_555
H29B C34B 1_555 1_555
H29A C34A 1_555 1_555
C35B C30B 1_555 1_555
C35A C30A 1_555 1_555
H30B C35B 1_555 1_555
H30A C35A 1_555 1_555
C36B C37B 1_555 1_555
C36A C37A 1_555 1_555
C37B H31B 1_555 1_555
C37A H31A 1_555 1_555
C38B C37B 1_555 1_555
C38A C37A 1_555 1_555
H32B C38B 1_555 1_555
H32A C38A 1_555 1_555
C39B C38B 1_555 1_555
C39A C38A 1_555 1_555
H33B C39B 1_555 1_555
H33A C39A 1_555 1_555
C40B C39B 1_555 1_555
C40A C39A 1_555 1_555
H34B C40B 1_555 1_555
H34A C40A 1_555 1_555
C41B C36B 1_555 1_555
C41A C36A 1_555 1_555
H35B C41B 1_555 1_555
H35A C41A 1_555 1_555
Hg1B N1B 1_555 1_555
Hg1A N1A 1_555 1_555
Hg2B Te8 1_555 1_555
Hg2A Te5 1_555 1_555
Hg3_2 Te1 1_555 1_555
Te1_2 Hg3 1_555 1_555
Te2B Hg5 1_555 1_555
Te2A Hg5 1_555 1_555
Te3A C18A 1_555 1_555
Te3B C18B 1_555 1_555
Te4B C12B 1_555 1_555
Te4A C12A 1_555 1_555
Te5B Hg2 1_555 1_555
Te5A C30A 1_555 1_555
Te6B Hg3 1_555 1_555
Te6A Hg3 1_555 1_555
Te7A Hg4 1_555 1_555
Te7B C6B 1_555 1_555
Hg4B Te7 1_555 1_555
Hg4A Te2A 1_555 1_555
C4 C5 1_555 1_555
C10 C11 1_555 1_555
C16 C17 1_555 1_555
C22 C23 1_555 1_555
C28 C29 1_555 1_555
C34 C35 1_555 1_555
C40 C41 1_555 1_555
Hg1 Te3 1_555 1_555
Hg1 Te4 1_555 1_555
Hg1 Te5 1_555 1_555
Hg2 Te6 1_555 1_555
Te3 Hg4 1_555 1_555
Te7 Hg4 1_555 1_555
Te8 Hg2A 1_555 1_555
C45 C46 1_555 1_555
C50 C51 1_555 1_555
C4B C5B 1_555 1_555
C4A C5A 1_555 1_555
C6A Te7A 1_555 1_555
C10A C11A 1_555 1_555
C10B C11B 1_555 1_555
C16B C17B 1_555 1_555
C16A C17A 1_555 1_555
C22A C23A 1_555 1_555
C22B C23B 1_555 1_555
C24B Te6B 1_555 1_555
C24A Te6A 1_555 1_555
C28B C29B 1_555 1_555
C28A C29A 1_555 1_555
C30B Te5B 1_555 1_555
C34B C35B 1_555 1_555
C34A C35A 1_555 1_555
C36B Te2B 1_555 1_555
C36A Te2A 1_555 1_555
C40B C41B 1_555 1_555
C40A C41A 1_555 1_555
Hg1B Te3B 1_555 1_555
Hg1B Te4B 1_555 1_555
Hg1B Te5B 1_555 1_555
Hg1A Te3A 1_555 1_555
Hg1A Te4A 1_555 1_555
Hg1A Te5A 1_555 1_555
Hg2B Te4B 1_555 1_555
Hg2B Te5A 1_555 1_555
Hg2B Te6B 1_555 1_555
Hg2A Te4A 1_555 1_555
Hg2A Te6A 1_555 1_555
Te2B Hg4B 1_555 1_555
Te3A Hg4A 1_555 1_555
Te3B Hg4B 1_555 1_555
Te7A Hg4A 1_555 1_555
Te7B Hg4B 1_555 1_555
Te7B Hg4A 1_555 1_555

#END
