
#######################################################################
#
#                 Cambridge Crystallographic Data Centre
#                                CCDC 
#
#######################################################################
#
# If this CIF has been generated from an entry in the Cambridge 
# Structural Database, then it will include bibliographic, chemical, 
# crystal, experimental, refinement or atomic coordinate data resulting 
# from the CCDC's data processing and validation procedures.
#
#######################################################################

data_BUZQOC
_symmetry_cell_setting           triclinic
_symmetry_space_group_name_H-M   'P -1'
_symmetry_Int_Tables_number      2
_space_group_name_Hall           '-P 1'
loop_
_symmetry_equiv_pos_site_id
_symmetry_equiv_pos_as_xyz
1 x,y,z
2 -x,-y,-z
_cell_length_a                   11.445(5)
_cell_length_b                   13.146(5)
_cell_length_c                   17.529(5)
_cell_angle_alpha                100.182(5)
_cell_angle_beta                 92.571(5)
_cell_angle_gamma                115.658(5)
_cell_volume                     2317.84
loop_
_atom_site_label
_atom_site_type_symbol
_atom_site_fract_x
_atom_site_fract_y
_atom_site_fract_z
C1 C 0.9425(5) 0.9197(4) 1.0410(3)
H1 H 0.9046 0.8647 1.0708
C2 C 1.0662(5) 1.0118(4) 1.0696(3)
C3 C 1.1356(5) 1.0194(4) 1.1468(3)
H2 H 1.0703 0.9781 1.1779
H3 H 1.1893 0.9795 1.1370
C4 C 1.1187(5) 1.2096(5) 1.2410(3)
H4 H 1.1636 1.2783 1.2825
H5 H 1.0564 1.1495 1.2638
C5 C 1.0444(5) 1.2357(4) 1.1805(3)
C6 C 0.9151(5) 1.1581(5) 1.1496(4)
H6 H 0.8724 1.0907 1.1677
C7 C 0.8510(6) 1.1822(6) 1.0919(4)
H7 H 0.7659 1.1301 1.0696
C8 C 0.9156(6) 1.2852(6) 1.0679(4)
H8 H 0.8738 1.3047 1.0304
C9 C 1.0438(6) 1.3585(5) 1.1010(3)
H9 H 1.0875 1.4268 1.0839
C10 C 0.6315(6) 0.3290(5) 0.8952(4)
H10 H 0.7206 0.3728 0.9124
C11 C 0.5651(6) 0.2274(5) 0.9216(4)
H11 H 0.6088 0.2041 0.9554
C12 C 0.4347(7) 0.1632(5) 0.8966(4)
H12 H 0.3875 0.0958 0.9140
C13 C 0.3721(6) 0.1990(5) 0.8449(3)
H13 H 0.2836 0.1549 0.8260
C14 C 0.4454(5) 0.3031(4) 0.8218(3)
C15 C 0.3793(5) 0.3434(5) 0.7665(3)
H14 H 0.2867 0.3095 0.7714
H15 H 0.3874 0.3126 0.7135
C16 C 0.3753(4) 0.5315(4) 0.8683(3)
H16 H 0.3874 0.6106 0.8769
H17 H 0.2821 0.4812 0.8623
C17 C 0.4406(4) 0.5168(4) 0.9386(3)
C18 C 0.3760(4) 0.4232(4) 0.9735(3)
H18 H 0.2893 0.3718 0.9541
N1 N 0.8773(4) 0.9077(3) 0.9727(2)
N2 N 1.1071(4) 1.3359(4) 1.1558(3)
N3 N 0.5741(4) 0.3668(3) 0.8463(2)
N4 N 0.5654(3) 0.5952(3) 0.9660(2)
S1 S 1.23821(13) 1.16338(11) 1.20428(7)
S2 S 0.43788(12) 0.49912(12) 0.77818(7)
Ag1 Ag 0.67000(4) 0.74931(3) 0.91325(2)
Ag2 Ag 1.31975(4) 1.45697(3) 1.19419(2)
N11 N 0.5259(19) 0.9044(16) 0.9085(14)
O8 O 0.459(2) 0.7937(19) 0.8559(16)
O9 O 0.492(2) 0.9600(17) 0.8815(17)
O10 O 0.6142(14) 0.9141(17) 0.9426(8)
N13 N 1.3982(3) 1.5364(2) 1.40550(17)
O14 O 1.3051(8) 1.4858(8) 1.3435(4)
O15 O 1.5154(5) 1.5994(5) 1.3966(4)
O16 O 1.3812(9) 1.4465(7) 1.4444(5)
N1A N 1.1227(4) 1.0923(3) 1.0273(2)
C1A C 1.0575(5) 1.0803(4) 0.9590(3)
H1A H 1.0954 1.1353 0.9292
C2A C 0.9338(5) 0.9882(4) 0.9304(3)
C3A C 0.8644(5) 0.9806(4) 0.8532(3)
H2A H 0.9297 1.0219 0.8221
H3A H 0.8107 1.0205 0.8630
S1A S 0.76179(13) 0.83662(11) 0.79572(7)
C4A C 0.8813(5) 0.7904(5) 0.7590(3)
H4A H 0.8364 0.7217 0.7175
H5A H 0.9436 0.8505 0.7362
C5A C 0.9556(5) 0.7643(4) 0.8195(3)
C6A C 1.0849(5) 0.8419(5) 0.8504(4)
H6A H 1.1276 0.9093 0.8323
C7A C 1.1490(6) 0.8178(6) 0.9081(4)
H7A H 1.2341 0.8699 0.9304
C8A C 1.0844(6) 0.7148(6) 0.9321(4)
H8A H 1.1262 0.6953 0.9696
C9A C 0.9562(6) 0.6415(5) 0.8990(3)
H9A H 0.9125 0.5732 0.9161
N2A N 0.8929(4) 0.6641(4) 0.8442(3)
N4A N 0.4346(3) 0.4048(3) 1.0340(2)
C17A C 0.5594(4) 0.4832(4) 1.0614(3)
C16A C 0.6247(4) 0.4685(4) 1.1317(3)
H16A H 0.6126 0.3894 1.1231
H17A H 0.7179 0.5188 1.1377
S2A S 0.56212(12) 0.50088(12) 1.22182(7)
C15A C 0.6207(5) 0.6566(5) 1.2335(3)
C14A C 0.5546(5) 0.6969(4) 1.1782(3)
C13A C 0.6279(6) 0.8010(5) 1.1551(3)
C12A C 0.5653(7) 0.8368(5) 1.1034(4)
C11A C 0.4349(6) 0.7726(5) 1.0784(4)
C10A C 0.3685(6) 0.6710(5) 1.1048(4)
H10A H 0.2794 0.6272 1.0876
N3A N 0.4259(4) 0.6332(3) 1.1537(2)
H11A H 0.3912 0.7959 1.0446
H12A H 0.6125 0.9042 1.0860
H13A H 0.7164 0.8451 1.1740
H14A H 0.7133 0.6905 1.2286
H15A H 0.6126 0.6874 1.2865
C18A C 0.6240(4) 0.5768(4) 1.0265(3)
H18A H 0.7107 0.6282 1.0459
Ag1A Ag 1.33000(4) 1.25069(3) 1.08675(2)
Ag2A Ag 0.68025(4) 0.54303(3) 0.80581(2)
N11A N 1.4741(19) 1.0956(16) 1.0915(14)
O8A O 1.541(2) 1.2063(19) 1.1441(16)
O9A O 1.508(2) 1.0400(17) 1.1185(17)
O10A O 1.3858(14) 1.0859(17) 1.0574(8)
N13A N 0.6018(3) 0.4636(2) 0.59450(17)
O14A O 0.6949(8) 0.5142(8) 0.6565(4)
O15A O 0.4846(5) 0.4006(5) 0.6034(4)
O16A O 0.6188(9) 0.5535(7) 0.5556(5)
N3A_2 N 1.4259(4) 1.6332(3) 1.1537(2)
S2A_2 S 1.56212(12) 1.50088(12) 1.22182(7)
Ag1A_2 Ag 0.33000(4) 0.25069(3) 1.08675(2)
Ag2_2 Ag 0.31975(4) 0.45697(3) 1.19419(2)
N4A_2 N 1.4346(3) 1.4048(3) 1.0340(2)
C19 C 0.0885(5) 0.4766(5) 0.7364(3)
H19 H 0.0345 0.4604 0.7752
C20 C 0.1582(6) 0.5896(5) 0.7310(3)
H20 H 0.1520 0.6484 0.7661
C21 C 0.2382(6) 0.6158(5) 0.6728(3)
H21 H 0.2876 0.6920 0.6689
C22 C 0.2422(5) 0.5268(5) 0.6217(3)
H22 H 0.2936 0.5418 0.5816
C23 C 0.1693(5) 0.4132(4) 0.6294(3)
C24 C 0.1740(5) 0.3134(5) 0.5741(3)
H23 H 0.2050 0.2730 0.6046
H24 H 0.2380 0.3446 0.5395
C25 C 0.0114(5) 0.2871(4) 0.4409(3)
H25 H 0.0880 0.3047 0.4142
H26 H -0.0648 0.2369 0.4026
C26 C 0.0032(5) 0.3989(4) 0.4721(3)
C27 C 0.0767(4) 0.4980(4) 0.4447(3)
H27 H 0.1296 0.4945 0.4066
C28 C -0.4625(5) 0.1722(4) 0.6367(3)
H28 H -0.5313 0.1375 0.6678
H29 H -0.4744 0.2340 0.6201
C29 C -0.4802(4) 0.0815(4) 0.5644(3)
C30 C -0.6007(4) -0.0116(4) 0.5385(3)
H30 H -0.6700 -0.0181 0.5663
C31 C -0.3228(5) 0.1135(4) 0.7410(3)
H31 H -0.2538 0.1414 0.7847
H32 H -0.4057 0.0838 0.7615
C32 C -0.3162(5) 0.0157(4) 0.6850(3)
C33 C -0.4243(5) -0.0878(4) 0.6588(3)
H33 H -0.5027 -0.1010 0.6782
C34 C -0.4168(6) -0.1726(5) 0.6035(4)
H34 H -0.4903 -0.2426 0.5840
C35 C -0.2977(6) -0.1514(5) 0.5777(4)
H35 H -0.2896 -0.2070 0.5405
C36 C -0.1916(6) -0.0470(5) 0.6080(3)
H36 H -0.1115 -0.0329 0.5907
N5 N 0.0951(4) 0.3886(3) 0.6878(2)
N6 N -0.0728(3) 0.4014(3) 0.5278(2)
N7 N -0.3784(4) 0.0930(3) 0.5254(2)
N8 N -0.1996(4) 0.0355(3) 0.6616(2)
N9 N 0.1466(4) 0.0426(4) 0.6740(3)
N10 N 0.0266(4) 0.3369(4) 0.8842(2)
O2 O 0.1684(6) 0.0836(5) 0.6163(3)
O3 O 0.1803(5) -0.0350(4) 0.6797(3)
O4 O 0.0915(4) 0.0726(4) 0.7267(3)
O5 O -0.0842(4) 0.3207(4) 0.8610(3)
O6 O 0.0930(4) 0.4208(4) 0.9395(2)
O7 O 0.0769(4) 0.2753(3) 0.8501(2)
S3 S 0.02077(12) 0.20883(11) 0.51456(8)
S4 S -0.30708(13) 0.23502(10) 0.69870(7)
Ag3 Ag -0.17065(4) 0.24007(3) 0.58320(2)
Ag4 Ag -0.01610(4) 0.20406(3) 0.70546(2)
N6A N 0.0728(3) 0.5986(3) 0.4722(2)
C26A C -0.0032(5) 0.6011(4) 0.5279(3)
C25A C -0.0114(5) 0.7129(4) 0.5591(3)
H25A H -0.0880 0.6953 0.5858
H26A H 0.0648 0.7631 0.5974
S3A S -0.02077(12) 0.79117(11) 0.48544(8)
C24A C -0.1740(5) 0.6866(5) 0.4259(3)
C23A C -0.1693(5) 0.5868(4) 0.3706(3)
C22A C -0.2422(5) 0.4732(5) 0.3783(3)
C21A C -0.2382(6) 0.3842(5) 0.3272(3)
C20A C -0.1582(6) 0.4104(5) 0.2690(3)
C19A C -0.0885(5) 0.5234(5) 0.2636(3)
H19A H -0.0345 0.5396 0.2248
N5A N -0.0951(4) 0.6114(3) 0.3122(2)
H20A H -0.1520 0.3516 0.2339
H21A H -0.2876 0.3080 0.3311
H22A H -0.2936 0.4582 0.4184
H23A H -0.2050 0.7270 0.3954
H24A H -0.2380 0.6554 0.4605
C27A C -0.0767(4) 0.5020(4) 0.5553(3)
H27A H -0.1296 0.5055 0.5934
N7A N -0.6216(4) -0.0930(3) 0.4746(2)
C29A C -0.5198(4) -0.0815(4) 0.4356(3)
C28A C -0.5375(5) -0.1722(4) 0.3633(3)
H28A H -0.4687 -0.1375 0.3322
H29A H -0.5256 -0.2340 0.3799
S4A S -0.69292(13) -0.23502(10) 0.30130(7)
C31A C -0.6772(5) -0.1135(4) 0.2590(3)
H31A H -0.7462 -0.1414 0.2153
H32A H -0.5943 -0.0838 0.2385
C32A C -0.6838(5) -0.0157(4) 0.3150(3)
C33A C -0.5757(5) 0.0878(4) 0.3412(3)
H33A H -0.4973 0.1010 0.3218
C34A C -0.5832(6) 0.1726(5) 0.3965(4)
H34A H -0.5097 0.2426 0.4160
C35A C -0.7023(6) 0.1514(5) 0.4223(4)
H35A H -0.7104 0.2070 0.4595
C36A C -0.8084(6) 0.0470(5) 0.3920(3)
H36A H -0.8885 0.0329 0.4093
N8A N -0.8004(4) -0.0355(3) 0.3384(2)
C30A C -0.3993(4) 0.0116(4) 0.4615(3)
H30A H -0.3300 0.0181 0.4337
Ag3A Ag 0.17065(4) 0.75993(3) 0.41680(2)
Ag4A Ag 0.01610(4) 0.79594(3) 0.29454(2)
N9A N -0.1466(4) 0.9574(4) 0.3260(3)
O2A O -0.1684(6) 0.9164(5) 0.3837(3)
O3A O -0.1803(5) 1.0350(4) 0.3203(3)
O4A O -0.0915(4) 0.9274(4) 0.2733(3)
N10A N -0.0266(4) 0.6631(4) 0.1158(2)
O5A O 0.0842(4) 0.6793(4) 0.1390(3)
O6A O -0.0930(4) 0.5792(4) 0.0605(2)
O7A O -0.0769(4) 0.7247(3) 0.1499(2)
Ag3A_2 Ag -0.82935(4) -0.24007(3) 0.41680(2)
Ag4A_2 Ag -0.98390(4) -0.20406(3) 0.29454(2)
N7A_2 N 0.3784(4) 0.9070(3) 0.4746(2)
S4A_2 S 0.30708(13) 0.76498(10) 0.30130(7)
N8A_2 N 0.1996(4) 0.9645(3) 0.3384(2)
O1 O 0.3261(10) 0.8896(10) 0.7321(6)
N12? N 0.4988(16) 0.8824(14) 0.8735(11)
O11? O 0.488(2) 0.807(2) 0.9016(14)
O12? O 0.435(2) 0.915(2) 0.8389(12)
O13? O 0.6133(18) 0.9776(15) 0.9083(19)
O17? O 0.6298(10) 0.3910(9) 0.5354(5)
O18? O 0.6609(18) 0.5649(15) 0.6003(10)
O19? O 0.6768(14) 0.4636(11) 0.6633(7)
loop_
_geom_bond_atom_site_label_1
_geom_bond_atom_site_label_2
_geom_bond_site_symmetry_1
_geom_bond_site_symmetry_2
C1 H1 1_555 1_555
C2 C1 1_555 1_555
C3 C2 1_555 1_555
H2 C3 1_555 1_555
H3 C3 1_555 1_555
C4 H4 1_555 1_555
H5 C4 1_555 1_555
C5 C4 1_555 1_555
C6 C5 1_555 1_555
H6 C6 1_555 1_555
C7 C6 1_555 1_555
H7 C7 1_555 1_555
C8 C7 1_555 1_555
H8 C8 1_555 1_555
C9 C8 1_555 1_555
H9 C9 1_555 1_555
C10 H10 1_555 1_555
C11 C10 1_555 1_555
H11 C11 1_555 1_555
C12 C11 1_555 1_555
H12 C12 1_555 1_555
C13 C12 1_555 1_555
H13 C13 1_555 1_555
C14 C13 1_555 1_555
C15 C14 1_555 1_555
H14 C15 1_555 1_555
H15 C15 1_555 1_555
C16 H16 1_555 1_555
H17 C16 1_555 1_555
C17 C16 1_555 1_555
C18 C17 1_555 1_555
H18 C18 1_555 1_555
C19 H19 1_555 1_555
C20 C19 1_555 1_555
H20 C20 1_555 1_555
C21 C20 1_555 1_555
H21 C21 1_555 1_555
C22 C21 1_555 1_555
H22 C22 1_555 1_555
C23 C22 1_555 1_555
C24 C23 1_555 1_555
H23 C24 1_555 1_555
H24 C24 1_555 1_555
C25 H25 1_555 1_555
H26 C25 1_555 1_555
C26 C25 1_555 1_555
C27 C26 1_555 1_555
H27 C27 1_555 1_555
C28 H28 1_555 1_555
H29 C28 1_555 1_555
C29 C28 1_555 1_555
C30 C29 1_555 1_555
H30 C30 1_555 1_555
C31 H31 1_555 1_555
H32 C31 1_555 1_555
C32 C31 1_555 1_555
C33 C32 1_555 1_555
H33 C33 1_555 1_555
C34 C33 1_555 1_555
H34 C34 1_555 1_555
C35 C34 1_555 1_555
H35 C35 1_555 1_555
C36 C35 1_555 1_555
H36 C36 1_555 1_555
N1 C1 1_555 1_555
N2 C5 1_555 1_555
N3 C10 1_555 1_555
N4 C17 1_555 1_555
N5 C19 1_555 1_555
N6 C26 1_555 1_555
N7 C29 1_555 1_555
N8 C32 1_555 1_555
N9 O2 1_555 1_555
N10 O5 1_555 1_555
O3 N9 1_555 1_555
O4 N9 1_555 1_555
O6 N10 1_555 1_555
O7 N10 1_555 1_555
S1 C3 1_555 1_555
S2 C15 1_555 1_555
S3 C24 1_555 1_555
S4 C28 1_555 1_555
Ag1 N1 1_555 1_555
Ag2 N2 1_555 1_555
Ag3 N6 1_555 1_555
Ag4 N5 1_555 1_555
N11 O8 1_555 1_555
O9 N11 1_555 1_555
O10 Ag1 1_555 1_555
N13 O14 1_555 1_555
O14 Ag2 1_555 1_555
O15 N13 1_555 1_555
O16 N13 1_555 1_555
N1A C2 1_555 1_555
C1A N1A 1_555 1_555
H1A C1A 1_555 1_555
C2A N1 1_555 1_555
C3A C2A 1_555 1_555
H2A C3A 1_555 1_555
H3A C3A 1_555 1_555
S1A Ag1 1_555 1_555
C4A S1A 1_555 1_555
H4A C4A 1_555 1_555
H5A C4A 1_555 1_555
C5A C4A 1_555 1_555
C6A C5A 1_555 1_555
H6A C6A 1_555 1_555
C7A C6A 1_555 1_555
H7A C7A 1_555 1_555
C8A C7A 1_555 1_555
H8A C8A 1_555 1_555
C9A C8A 1_555 1_555
H9A C9A 1_555 1_555
N2A C5A 1_555 1_555
N4A C18 1_555 1_555
C17A N4A 1_555 1_555
C16A C17A 1_555 1_555
H16A C16A 1_555 1_555
H17A C16A 1_555 1_555
S2A C16A 1_555 1_555
C15A S2A 1_555 1_555
C14A C15A 1_555 1_555
C13A C14A 1_555 1_555
C12A C13A 1_555 1_555
C11A C12A 1_555 1_555
C10A C11A 1_555 1_555
H10A C10A 1_555 1_555
N3A C14A 1_555 1_555
H11A C11A 1_555 1_555
H12A C12A 1_555 1_555
H13A C13A 1_555 1_555
H14A C15A 1_555 1_555
H15A C15A 1_555 1_555
C18A N4 1_555 1_555
H18A C18A 1_555 1_555
N6A C27 1_555 1_555
C26A N6A 1_555 1_555
C25A C26A 1_555 1_555
H25A C25A 1_555 1_555
H26A C25A 1_555 1_555
S3A C25A 1_555 1_555
C24A S3A 1_555 1_555
C23A C24A 1_555 1_555
C22A C23A 1_555 1_555
C21A C22A 1_555 1_555
C20A C21A 1_555 1_555
C19A C20A 1_555 1_555
H19A C19A 1_555 1_555
N5A C23A 1_555 1_555
H20A C20A 1_555 1_555
H21A C21A 1_555 1_555
H22A C22A 1_555 1_555
H23A C24A 1_555 1_555
H24A C24A 1_555 1_555
C27A N6 1_555 1_555
H27A C27A 1_555 1_555
N7A C30 1_555 1_555
C29A N7A 1_555 1_555
C28A C29A 1_555 1_555
H28A C28A 1_555 1_555
H29A C28A 1_555 1_555
S4A C28A 1_555 1_555
C31A S4A 1_555 1_555
H31A C31A 1_555 1_555
H32A C31A 1_555 1_555
C32A C31A 1_555 1_555
C33A C32A 1_555 1_555
H33A C33A 1_555 1_555
C34A C33A 1_555 1_555
H34A C34A 1_555 1_555
C35A C34A 1_555 1_555
H35A C35A 1_555 1_555
C36A C35A 1_555 1_555
H36A C36A 1_555 1_555
N8A C32A 1_555 1_555
C30A N7 1_555 1_555
H30A C30A 1_555 1_555
Ag1A S1 1_555 1_555
Ag2A N3 1_555 1_555
N11A O8A 1_555 1_555
O9A N11A 1_555 1_555
O10A Ag1A 1_555 1_555
N13A O14A 1_555 1_555
O14A Ag2A 1_555 1_555
O15A N13A 1_555 1_555
O16A N13A 1_555 1_555
Ag3A N6A 1_555 1_555
Ag4A N5A 1_555 1_555
N9A O2A 1_555 1_555
O3A N9A 1_555 1_555
O4A Ag4A 1_555 1_555
N10A O5A 1_555 1_555
O6A N10A 1_555 1_555
O7A Ag4A 1_555 1_555
N3A_2 Ag2 1_555 1_555
S2A_2 Ag2 1_555 1_555
Ag1A_2 N4A 1_555 1_555
Ag2_2 S2A 1_555 1_555
Ag3A_2 N7A 1_555 1_555
Ag4A_2 N8A 1_555 1_555
N4A_2 Ag1A 1_555 1_555
N7A_2 Ag3A 1_555 1_555
S4A_2 Ag3A 1_555 1_555
N8A_2 Ag4A 1_555 1_555
C4 S1 1_555 1_555
C9 N2 1_555 1_555
C14 N3 1_555 1_555
C16 S2 1_555 1_555
C23 N5 1_555 1_555
C25 S3 1_555 1_555
C31 S4 1_555 1_555
C36 N8 1_555 1_555
N4 Ag1 1_555 1_555
N7 Ag3 1_555 1_555
N8 Ag4 1_555 1_555
O4 Ag4 1_555 1_555
O7 Ag4 1_555 1_555
S2 Ag2A 1_555 1_555
S3 Ag3 1_555 1_555
S4 Ag3 1_555 1_555
N11 O10 1_555 1_555
N1A Ag1A 1_555 1_555
C1A C2A 1_555 1_555
C3A S1A 1_555 1_555
C9A N2A 1_555 1_555
N2A Ag2A 1_555 1_555
C17A C18A 1_555 1_555
C10A N3A 1_555 1_555
N3A Ag2_2 1_555 1_555
C26A C27A 1_555 1_555
S3A Ag3A 1_555 1_555
C19A N5A 1_555 1_555
C29A C30A 1_555 1_555
S4A Ag3A_2 1_555 1_555
C36A N8A 1_555 1_555
N11A O10A 1_555 1_555
N9A O4A 1_555 1_555
N10A O7A 1_555 1_555

#END
