
#######################################################################
#
#                 Cambridge Crystallographic Data Centre
#                                CCDC 
#
#######################################################################
#
# If this CIF has been generated from an entry in the Cambridge 
# Structural Database, then it will include bibliographic, chemical, 
# crystal, experimental, refinement or atomic coordinate data resulting 
# from the CCDC's data processing and validation procedures.
#
#######################################################################

data_BUZVOI
_symmetry_cell_setting           monoclinic
_symmetry_space_group_name_H-M   'P 21/c'
_symmetry_Int_Tables_number      14
_space_group_name_Hall           '-P 2ybc'
loop_
_symmetry_equiv_pos_site_id
_symmetry_equiv_pos_as_xyz
1 x,y,z
2 -x,1/2+y,1/2-z
3 -x,-y,-z
4 x,1/2-y,1/2+z
_cell_length_a                   11.3664(10)
_cell_length_b                   6.5070(6)
_cell_length_c                   15.6786(14)
_cell_angle_alpha                90
_cell_angle_beta                 105.5900(10)
_cell_angle_gamma                90
_cell_volume                     1116.94
loop_
_atom_site_label
_atom_site_type_symbol
_atom_site_fract_x
_atom_site_fract_y
_atom_site_fract_z
H1 H 1.060(3) 0.016(6) 0.609(2)
O1 O 1.0033(2) 0.0026(4) 0.62660(16)
Zn1 Zn 0.81715(3) 0.57437(5) 0.59585(2)
Zn2 Zn 0.99348(3) 0.20869(5) 0.72373(2)
C1 C 0.6099(3) 0.0737(4) 0.64934(18)
C2 C 0.6254(3) -0.1140(4) 0.69460(18)
C3 C 0.5259(3) -0.2418(4) 0.68655(19)
H2 H 0.5361 -0.3669 0.7164
C4 C 0.4110(3) -0.1863(4) 0.63451(19)
H3 H 0.3446 -0.2728 0.6307
C5 C 0.3949(3) -0.0023(4) 0.58820(17)
C6 C 0.4950(3) 0.1266(4) 0.59593(18)
H4 H 0.4849 0.2500 0.5649
C7 C 0.7142(3) 0.2181(4) 0.65474(19)
C8 C 0.7480(3) -0.1803(4) 0.75297(18)
C9 C 0.2740(3) 0.0620(4) 0.52775(18)
O2 O 0.81264(19) 0.1823(3) 0.71168(16)
O3 O 0.6960(2) 0.3657(3) 0.60184(14)
O4 O 0.82235(18) -0.2660(3) 0.71568(13)
O5 O 0.7702(2) -0.1583(4) 0.83333(14)
O6 O 0.17868(18) -0.0390(3) 0.52608(14)
O7 O 0.27718(19) 0.2135(3) 0.47987(14)
O8 O 0.9817(2) 0.4978(3) 0.67396(14)
H5 H 1.031(3) 0.487(6) 0.655(2)
O9 O 0.8603(2) 0.4504(4) 0.48445(17)
H6 H 0.842(4) 0.333(7) 0.477(3)
H7 H 0.827(5) 0.505(9) 0.437(4)
H8 H 0.948(4) 0.007(6) 0.584(3)
Zn1_2 Zn 0.81715(3) -0.42563(5) 0.59585(2)
Zn1B Zn 0.18285(3) 0.42563(5) 0.40415(2)
Zn2A Zn 1.00652(3) -0.29131(5) 0.77627(2)
Zn2A_2 Zn 1.00652(3) 0.70869(5) 0.77627(2)
O4_2 O 0.82235(18) 0.7340(3) 0.71568(13)
O4A O 1.17765(18) 0.2340(3) 0.78432(13)
O7B O 0.72282(19) 0.7865(3) 0.52013(14)
O8A O 1.0183(2) -0.0022(3) 0.82604(14)
H5A H 0.969(3) -0.013(6) 0.845(2)
loop_
_geom_bond_atom_site_label_1
_geom_bond_atom_site_label_2
_geom_bond_site_symmetry_1
_geom_bond_site_symmetry_2
H1 O1 1_555 1_555
O1 Zn2 1_555 1_555
Zn1 O3 1_555 1_555
Zn2 O2 1_555 1_555
C1 C2 1_555 1_555
C2 C3 1_555 1_555
C3 H2 1_555 1_555
C4 C3 1_555 1_555
H3 C4 1_555 1_555
C5 C4 1_555 1_555
C6 C1 1_555 1_555
H4 C6 1_555 1_555
C7 C1 1_555 1_555
C8 C2 1_555 1_555
C9 C5 1_555 1_555
O2 C7 1_555 1_555
O3 C7 1_555 1_555
O4 C8 1_555 1_555
O5 C8 1_555 1_555
O6 C9 1_555 1_555
O7 C9 1_555 1_555
O8 Zn1 1_555 1_555
H5 O8 1_555 1_555
O9 Zn1 1_555 1_555
H6 O9 1_555 1_555
H7 O9 1_555 1_555
H8 O1 1_555 1_555
Zn1_2 O4 1_555 1_555
Zn1B O7 1_555 1_555
Zn2A O4 1_555 1_555
Zn2A_2 O8 1_555 1_555
O4_2 Zn1 1_555 1_555
O4A Zn2 1_555 1_555
O7B Zn1 1_555 1_555
O8A Zn2 1_555 1_555
H5A O8A 1_555 1_555
Zn2 O8 1_555 1_555
C5 C6 1_555 1_555
Zn2A O8A 1_555 1_555
Zn2A_2 O4_2 1_555 1_555

#END
