
#######################################################################
#
#                 Cambridge Crystallographic Data Centre
#                                CCDC 
#
#######################################################################
#
# If this CIF has been generated from an entry in the Cambridge 
# Structural Database, then it will include bibliographic, chemical, 
# crystal, experimental, refinement or atomic coordinate data resulting 
# from the CCDC's data processing and validation procedures.
#
#######################################################################

data_BUZZUS
_symmetry_cell_setting           monoclinic
_symmetry_space_group_name_H-M   'C 2/c'
_symmetry_Int_Tables_number      15
_space_group_name_Hall           '-C 2yn'
loop_
_symmetry_equiv_pos_site_id
_symmetry_equiv_pos_as_xyz
1 x,y,z
2 1/2+x,1/2+y,z
3 -x,y,1/2-z
4 1/2-x,1/2+y,1/2-z
5 -x,-y,-z
6 1/2-x,1/2-y,-z
7 x,-y,1/2+z
8 1/2+x,1/2-y,1/2+z
_cell_length_a                   13.934(5)
_cell_length_b                   8.215(3)
_cell_length_c                   9.776(3)
_cell_angle_alpha                90
_cell_angle_beta                 108.387(12)
_cell_angle_gamma                90
_cell_volume                     1061.91
loop_
_atom_site_label
_atom_site_type_symbol
_atom_site_fract_x
_atom_site_fract_y
_atom_site_fract_z
Ca1 Ca 0.5000 0.11565(5) 0.7500
O1 O 0.63125(9) -0.14252(13) 1.14334(12)
O2 O 0.59297(10) -0.06467(15) 0.91651(13)
O3 O 0.57250(9) -0.67420(14) 0.90992(12)
N1 N 0.68415(12) -0.75812(19) 1.11756(16)
C1 C 0.61475(11) -0.17165(18) 1.01103(16)
C2 C 0.62177(14) -0.34517(19) 0.96161(17)
C3 C 0.65705(12) -0.47010(18) 1.08041(16)
C4 C 0.63551(12) -0.64332(18) 1.02839(16)
H1 H 0.6634(17) -0.345(2) 0.901(2)
H2 H 0.557(2) -0.372(2) 0.902(2)
H3 H 0.7267(16) -0.462(3) 1.121(2)
H4 H 0.6252(16) -0.450(3) 1.149(2)
H5 H 0.6717(18) -0.852(3) 1.097(2)
H6 H 0.7306(17) -0.732(3) 1.191(2)
Ca1_2 Ca 0.5000 -0.88435(5) 0.7500
Ca1D Ca 0.5000 -0.11565(5) 1.2500
Ca1D_2 Ca 0.5000 0.88435(5) 1.2500
O1D O 0.36875(9) 0.14252(13) 0.85666(12)
O1F O 0.63125(9) 0.14252(13) 0.64334(12)
O2D O 0.40703(10) 0.06467(15) 1.08349(13)
O2B O 0.40703(10) -0.06467(15) 0.58349(13)
O3D O 0.42750(9) 0.67420(14) 1.09008(12)
O3_2 O 0.57250(9) 0.32580(14) 0.90992(12)
O3B O 0.42750(9) 0.32580(14) 0.59008(12)
N1D N 0.31585(12) 0.75812(19) 0.88244(16)
C1D C 0.38525(11) 0.17165(18) 0.98897(16)
C2D C 0.37823(14) 0.34517(19) 1.03839(17)
C3D C 0.34295(12) 0.47010(18) 0.91959(16)
C4D C 0.36449(12) 0.64332(18) 0.97161(16)
H1D H 0.3366(17) 0.345(2) 1.099(2)
H2D H 0.443(2) 0.372(2) 1.098(2)
H3D H 0.2733(16) 0.462(3) 0.879(2)
H4D H 0.3748(16) 0.450(3) 0.851(2)
H5D H 0.3283(18) 0.852(3) 0.903(2)
H6D H 0.2694(17) 0.732(3) 0.809(2)
loop_
_geom_bond_atom_site_label_1
_geom_bond_atom_site_label_2
_geom_bond_site_symmetry_1
_geom_bond_site_symmetry_2
Ca1 O2 1_555 1_555
O1 C1 1_555 1_555
O2 C1 1_555 1_555
O3 C4 1_555 1_555
N1 C4 1_555 1_555
C1 C2 1_555 1_555
C2 C3 1_555 1_555
C3 C4 1_555 1_555
H1 C2 1_555 1_555
H2 C2 1_555 1_555
H3 C3 1_555 1_555
H4 C3 1_555 1_555
H5 N1 1_555 1_555
H6 N1 1_555 1_555
Ca1_2 O3 1_555 1_555
Ca1D O1 1_555 1_555
Ca1D_2 O3D 1_555 1_555
O1D Ca1 1_555 1_555
O1F Ca1 1_555 1_555
O2D Ca1D 1_555 1_555
O2B Ca1 1_555 1_555
O3D C4D 1_555 1_555
O3_2 Ca1 1_555 1_555
O3B Ca1 1_555 1_555
N1D C4D 1_555 1_555
C1D O1D 1_555 1_555
C2D C1D 1_555 1_555
C3D C2D 1_555 1_555
C4D C3D 1_555 1_555
H1D C2D 1_555 1_555
H2D C2D 1_555 1_555
H3D C3D 1_555 1_555
H4D C3D 1_555 1_555
H5D N1D 1_555 1_555
H6D N1D 1_555 1_555
O2D C1D 1_555 1_555

#END
