
#######################################################################
#
#                 Cambridge Crystallographic Data Centre
#                                CCDC 
#
#######################################################################
#
# If this CIF has been generated from an entry in the Cambridge 
# Structural Database, then it will include bibliographic, chemical, 
# crystal, experimental, refinement or atomic coordinate data resulting 
# from the CCDC's data processing and validation procedures.
#
#######################################################################

data_BZATMN10
_symmetry_cell_setting           triclinic
_symmetry_space_group_name_H-M   'P -1'
_symmetry_Int_Tables_number      2
_space_group_name_Hall           '-P 1'
loop_
_symmetry_equiv_pos_site_id
_symmetry_equiv_pos_as_xyz
1 x,y,z
2 -x,-y,-z
_cell_length_a                   6.763(2)
_cell_length_b                   11.750(2)
_cell_length_c                   14.712(3)
_cell_angle_alpha                111.46(2)
_cell_angle_beta                 90.31(2)
_cell_angle_gamma                91.04(2)
_cell_volume                     1087.77
loop_
_atom_site_label
_atom_site_type_symbol
_atom_site_fract_x
_atom_site_fract_y
_atom_site_fract_z
Mn1 Mn 0.24966(6) 0.00959(3) 0.27164(3)
O1 O 0.2572(3) 0.1455(2) 0.3902(1)
O2 O 0.2503(3) 0.1147(2) 0.1995(1)
N1 N 0.2590(3) -0.1076(2) 0.3393(2)
N2 N 0.2353(3) -0.1382(2) 0.1514(2)
C1 C 0.2409(4) 0.1451(2) 0.4788(2)
C2 C 0.2378(4) 0.0420(3) 0.5014(2)
C3 C 0.2553(4) -0.0802(2) 0.4339(2)
C4 C 0.2959(5) -0.2326(2) 0.2708(2)
C5 C 0.2017(5) -0.2497(3) 0.1730(2)
C6 C 0.2339(4) -0.1417(2) 0.0618(2)
C7 C 0.2520(4) -0.0332(2) 0.0395(2)
C8 C 0.2583(3) 0.0841(2) 0.1053(2)
C9 C 0.2695(5) -0.1762(3) 0.4780(2)
C10 C 0.2157(4) -0.2602(3) -0.0243(2)
C11 C 0.2299(4) 0.2696(2) 0.5556(2)
C12 C 0.2042(4) 0.2893(3) 0.6541(2)
C13 C 0.1965(6) 0.4068(3) 0.7230(3)
C14 C 0.2113(8) 0.5050(3) 0.6952(3)
C15 C 0.2350(10) 0.4876(4) 0.5978(3)
C16 C 0.2454(7) 0.3695(3) 0.5289(3)
C17 C 0.2723(4) 0.1903(2) 0.0728(2)
C18 C 0.2787(4) 0.1764(3) -0.0256(2)
C19 C 0.2906(4) 0.2775(3) -0.0526(2)
C20 C 0.2921(5) 0.3941(3) 0.0173(3)
C21 C 0.2876(5) 0.4092(3) 0.1149(3)
C22 C 0.2775(4) 0.3089(3) 0.1434(2)
O3 O -0.0861(3) -0.0148(2) 0.2722(1)
O4 O -0.4121(3) -0.0155(2) 0.2653(1)
C23 C -0.2466(4) 0.0355(2) 0.2686(2)
C24 C -0.2384(5) 0.1638(3) 0.2692(3)
H1 H 0.2218(48) 0.0547(30) 0.5774(7)
H2 H 0.4543(8) -0.2408(32) 0.2642(29)
H3 H 0.2277(49) -0.2962(27) 0.2992(27)
H4 H 0.0461(13) -0.2671(31) 0.1794(29)
H5 H 0.2725(47) -0.3280(20) 0.1211(21)
H6 H 0.2449(53) -0.0515(33) -0.0379(6)
H7 H 0.3626(40) -0.2473(21) 0.4317(21)
H8 H 0.1525(32) -0.2449(22) 0.4605(25)
H9 H 0.3496(43) -0.1423(28) 0.5467(13)
H10 H 0.0897(32) -0.3128(27) -0.0155(28)
H11 H 0.3381(34) -0.3212(26) -0.0343(30)
H12 H 0.1903(52) -0.2476(31) -0.0924(13)
H13 H 0.1825(48) 0.2110(20) 0.6750(25)
H14 H 0.1684(48) 0.4169(30) 0.7977(8)
H15 H 0.1959(47) 0.5939(14) 0.7520(18)
H16 H 0.2075(47) 0.5619(22) 0.5731(24)
H17 H 0.2462(49) 0.3502(29) 0.4512(5)
H18 H 0.2786(53) 0.0902(18) -0.0864(18)
H19 H 0.2789(52) 0.2647(32) -0.1289(7)
H20 H 0.2922(52) 0.4772(18) 0.0020(26)
H21 H 0.2738(52) 0.4971(16) 0.1732(19)
H22 H 0.2724(54) 0.3098(35) 0.2170(10)
H23 H -0.3181(47) 0.2271(26) 0.3293(18)
H24 H -0.1389(44) 0.1687(33) 0.2136(20)
H25 H -0.3287(45) 0.1732(33) 0.2117(19)
O4_2 O 0.5879(3) -0.0155(2) 0.2653(1)
Mn1_2 Mn -0.75034(6) 0.00959(3) 0.27164(3)
loop_
_geom_bond_atom_site_label_1
_geom_bond_atom_site_label_2
_geom_bond_site_symmetry_1
_geom_bond_site_symmetry_2
Mn1 O1 1_555 1_555
O1 C1 1_555 1_555
O2 Mn1 1_555 1_555
N1 Mn1 1_555 1_555
N2 Mn1 1_555 1_555
C1 C2 1_555 1_555
C2 C3 1_555 1_555
C3 N1 1_555 1_555
C4 N1 1_555 1_555
C5 N2 1_555 1_555
C6 N2 1_555 1_555
C7 C6 1_555 1_555
C8 O2 1_555 1_555
C9 C3 1_555 1_555
C10 C6 1_555 1_555
C11 C1 1_555 1_555
C12 C11 1_555 1_555
C13 C12 1_555 1_555
C14 C13 1_555 1_555
C15 C14 1_555 1_555
C16 C11 1_555 1_555
C17 C8 1_555 1_555
C18 C17 1_555 1_555
C19 C18 1_555 1_555
C20 C19 1_555 1_555
C21 C20 1_555 1_555
C22 C17 1_555 1_555
O3 Mn1 1_555 1_555
O4 C23 1_555 1_555
C23 O3 1_555 1_555
C24 C23 1_555 1_555
H1 C2 1_555 1_555
H2 C4 1_555 1_555
H3 C4 1_555 1_555
H4 C5 1_555 1_555
H5 C5 1_555 1_555
H6 C7 1_555 1_555
H7 C9 1_555 1_555
H8 C9 1_555 1_555
H9 C9 1_555 1_555
H10 C10 1_555 1_555
H11 C10 1_555 1_555
H12 C10 1_555 1_555
H13 C12 1_555 1_555
H14 C13 1_555 1_555
H15 C14 1_555 1_555
H16 C15 1_555 1_555
H17 C16 1_555 1_555
H18 C18 1_555 1_555
H19 C19 1_555 1_555
H20 C20 1_555 1_555
H21 C21 1_555 1_555
H22 C22 1_555 1_555
H23 C24 1_555 1_555
H24 C24 1_555 1_555
H25 C24 1_555 1_555
O4_2 Mn1 1_555 1_555
Mn1_2 O4 1_555 1_555
C4 C5 1_555 1_555
C7 C8 1_555 1_555
C15 C16 1_555 1_555
C21 C22 1_555 1_555

#END
