
#######################################################################
#
#                 Cambridge Crystallographic Data Centre
#                                CCDC 
#
#######################################################################
#
# If this CIF has been generated from an entry in the Cambridge 
# Structural Database, then it will include bibliographic, chemical, 
# crystal, experimental, refinement or atomic coordinate data resulting 
# from the CCDC's data processing and validation procedures.
#
#######################################################################

data_BZQPAG
_symmetry_cell_setting           monoclinic
_symmetry_space_group_name_H-M   'P 2/n'
_symmetry_Int_Tables_number      13
_space_group_name_Hall           '-P 2yac'
loop_
_symmetry_equiv_pos_site_id
_symmetry_equiv_pos_as_xyz
1 x,y,z
2 1/2-x,y,1/2-z
3 -x,-y,-z
4 1/2+x,-y,1/2+z
_cell_length_a                   6.773(3)
_cell_length_b                   13.635(6)
_cell_length_c                   15.723(13)
_cell_angle_alpha                90
_cell_angle_beta                 92.56(13)
_cell_angle_gamma                90
_cell_volume                     1450.57
loop_
_atom_site_label
_atom_site_type_symbol
_atom_site_fract_x
_atom_site_fract_y
_atom_site_fract_z
Ag1 Ag 0.25000 0.18700 0.75000
Cl1 Cl 0.25000 0.45400 0.75000
C1 C -0.06800 0.20300 1.02700
C2 C 0.39200 0.37400 1.04500
C3 C 0.39400 0.34000 1.13600
C4 C 0.41900 0.24600 1.15900
C5 C -0.05700 0.19200 0.93400
C6 C -0.08400 0.27800 0.88000
C7 C -0.11200 0.36600 0.91700
C8 C -0.11800 0.37400 1.00900
C9 C -0.09800 0.29900 1.06200
C10 C 0.44100 0.17200 1.09300
C11 C 0.44100 0.20400 1.00200
C12 C 0.41300 0.30700 0.98200
N1 N -0.04500 0.12000 1.06800
N2 N -0.01400 0.10400 0.91100
N3 N 0.45600 0.08200 1.10200
N4 N 0.46800 0.13100 0.95200
O1 O -0.05400 0.12000 1.15600
O2 O 0.00900 0.08100 0.82700
O3 O 0.45200 0.04000 1.18300
O4 O 0.48400 0.14900 0.86600
O5 O 0.18300 0.51000 0.81400
O6 O 0.13100 0.38700 0.72400
Pt1 Pt 0.00000 0.00000 1.00000
Pt2 Pt 0.50000 0.00000 1.00000
O2A O 0.49100 0.08100 0.67300
O4A O 0.01600 0.14900 0.63400
O6A O 0.36900 0.38700 0.77600
O5A O 0.31700 0.51000 0.68600
N1B N 0.04500 -0.12000 0.93200
N2B N 0.01400 -0.10400 1.08900
N3B N 0.54400 -0.08200 0.89800
N4B N 0.53200 -0.13100 1.04800
C10B C 0.55900 -0.17200 0.90700
O3B O 0.54800 -0.04000 0.81700
C5B C 0.05700 -0.19200 1.06600
O2B O -0.00900 -0.08100 1.17300
C4B C 0.58100 -0.24600 0.84100
C11B C 0.55900 -0.20400 0.99800
C1B C 0.06800 -0.20300 0.97300
C6B C 0.08400 -0.27800 1.12000
Ag1B Ag -0.25000 -0.18700 1.25000
C3B C 0.60600 -0.34000 0.86400
C12B C 0.58700 -0.30700 1.01800
C9B C 0.09800 -0.29900 0.93800
C7B C 0.11200 -0.36600 1.08300
C2B C 0.60800 -0.37400 0.95500
C8B C 0.11800 -0.37400 0.99100
O4B O 0.51600 -0.14900 1.13400
Ag1B_2 Ag 0.75000 -0.18700 1.25000
O1B O 0.05400 -0.12000 0.84400
loop_
_geom_bond_atom_site_label_1
_geom_bond_atom_site_label_2
_geom_bond_site_symmetry_1
_geom_bond_site_symmetry_2
Ag1 O2 1_555 1_555
Cl1 O5 1_555 1_555
C1 C5 1_555 1_555
C2 C3 1_555 1_555
C3 C4 1_555 1_555
C4 C10 1_555 1_555
C5 C6 1_555 1_555
C6 C7 1_555 1_555
C7 C8 1_555 1_555
C8 C9 1_555 1_555
C9 C1 1_555 1_555
C10 C11 1_555 1_555
C11 C12 1_555 1_555
C12 C2 1_555 1_555
N1 C1 1_555 1_555
N2 C5 1_555 1_555
N3 C10 1_555 1_555
N4 C11 1_555 1_555
O1 N1 1_555 1_555
O2 N2 1_555 1_555
O3 N3 1_555 1_555
O4 Ag1 1_555 1_555
O6 Ag1 1_555 1_555
Pt1 N1 1_555 1_555
Pt2 N3 1_555 1_555
O2A Ag1 1_555 1_555
O4A Ag1 1_555 1_555
O6A Ag1 1_555 1_555
O5A Cl1 1_555 1_555
N1B Pt1 1_555 1_555
N2B Pt1 1_555 1_555
N3B Pt2 1_555 1_555
N4B Pt2 1_555 1_555
C10B N3B 1_555 1_555
O3B N3B 1_555 1_555
C5B N2B 1_555 1_555
O2B N2B 1_555 1_555
C4B C10B 1_555 1_555
C11B N4B 1_555 1_555
C1B N1B 1_555 1_555
C6B C5B 1_555 1_555
Ag1B O2B 1_555 1_555
C3B C4B 1_555 1_555
C12B C11B 1_555 1_555
C9B C1B 1_555 1_555
C7B C6B 1_555 1_555
C2B C3B 1_555 1_555
C8B C9B 1_555 1_555
O4B N4B 1_555 1_555
Ag1B_2 O4B 1_555 1_555
O1B N1B 1_555 1_555
Cl1 O6 1_555 1_555
Cl1 O6A 1_555 1_555
N2 Pt1 1_555 1_555
N4 O4 1_555 1_555
N4 Pt2 1_555 1_555
C10B C11B 1_555 1_555
C5B C1B 1_555 1_555
C12B C2B 1_555 1_555
C7B C8B 1_555 1_555

#END
