
#######################################################################
#
#                 Cambridge Crystallographic Data Centre
#                                CCDC 
#
#######################################################################
#
# If this CIF has been generated from an entry in the Cambridge 
# Structural Database, then it will include bibliographic, chemical, 
# crystal, experimental, refinement or atomic coordinate data resulting 
# from the CCDC's data processing and validation procedures.
#
#######################################################################

data_BZTZTL
_symmetry_cell_setting           monoclinic
_symmetry_space_group_name_H-M   'C 2/c'
_symmetry_Int_Tables_number      15
_space_group_name_Hall           '-C 2yn'
loop_
_symmetry_equiv_pos_site_id
_symmetry_equiv_pos_as_xyz
1 x,y,z
2 1/2+x,1/2+y,z
3 -x,y,1/2-z
4 1/2-x,1/2+y,1/2-z
5 -x,-y,-z
6 1/2-x,1/2-y,-z
7 x,-y,1/2+z
8 1/2+x,1/2-y,1/2+z
_cell_length_a                   26.605(3)
_cell_length_b                   4.057(1)
_cell_length_c                   12.173(2)
_cell_angle_alpha                90
_cell_angle_beta                 93.74(1)
_cell_angle_gamma                90
_cell_volume                     1311.11
loop_
_atom_site_label
_atom_site_type_symbol
_atom_site_fract_x
_atom_site_fract_y
_atom_site_fract_z
Tl1 Tl 0.53728 0.53314 0.62796
N1 N 0.57920 0.92300 0.47620
N2 N 0.45210 0.93400 0.60310
N3 N 0.56850 0.93500 0.79910
C1 C 0.62170 0.82600 0.42520
C2 C 0.66580 0.66600 0.46420
C3 C 0.70090 0.59600 0.39120
C4 C 0.69340 0.68100 0.28000
C5 C 0.65120 0.84200 0.23970
C6 C 0.61530 1.08400 0.81380
H1 H 0.67010 0.60260 0.54230
H2 H 0.73210 0.47400 0.41920
H3 H 0.72010 0.62480 0.22810
H4 H 0.64620 0.90560 0.16390
N2D N 0.54790 1.06600 0.39690
N1D N 0.42080 1.07700 0.52380
N3B N 0.43150 0.93500 0.70090
N2B N 0.54790 0.93400 0.89690
C6F C 0.61530 0.91600 0.31380
C1F C 0.62170 1.17400 0.92520
C5F C 0.65120 1.15800 0.73970
Tl1D Tl 0.46272 1.46686 0.37204
N3F N 0.56850 1.06500 0.29910
C1D C 0.37830 1.17400 0.57480
Tl1B Tl 0.46272 0.53314 0.87204
C6B C 0.38470 1.08400 0.68620
N1F N 0.57920 1.07700 0.97620
C2F C 0.66580 1.33400 0.96420
C4F C 0.69340 1.31900 0.78000
H4F H 0.64620 1.09440 0.66390
N3D N 0.43150 1.06500 0.20090
Tl1F Tl 0.53728 1.46686 0.12796
C2D C 0.33420 1.33400 0.53580
N1B N 0.42080 0.92300 1.02380
C5D C 0.34880 1.15800 0.76030
Tl1F_2 Tl 0.53728 1.46686 1.12796
C3F C 0.70090 1.40400 0.89120
H1F H 0.67010 1.39740 1.04230
H3F H 0.72010 1.37520 0.72810
N2F N 0.45210 1.06600 0.10310
C6D C 0.38470 0.91600 0.18620
N1F_2 N 0.57920 1.07700 -0.02380
C3D C 0.29910 1.40400 0.60880
H1D H 0.32990 1.39740 0.45770
C4D C 0.30660 1.31900 0.72000
H4D H 0.35380 1.09440 0.83610
H2F H 0.73210 1.52600 0.91920
N1B_2 N 0.42080 0.92300 0.02380
C1B C 0.37830 0.82600 0.07480
C5B C 0.34880 0.84200 0.26030
H2D H 0.26790 1.52600 0.58080
H3D H 0.27990 1.37520 0.77190
C4B C 0.30660 0.68100 0.22000
H4B H 0.35380 0.90560 0.33610
C3B C 0.29910 0.59600 0.10880
H3B H 0.27990 0.62480 0.27190
Tl1B_2 Tl 0.46272 0.53314 -0.12796
C2B C 0.33420 0.66600 0.03580
H2B H 0.26790 0.47400 0.08080
H1B H 0.32990 0.60260 -0.04230
loop_
_geom_bond_atom_site_label_1
_geom_bond_atom_site_label_2
_geom_bond_site_symmetry_1
_geom_bond_site_symmetry_2
Tl1 N1 1_555 1_555
N1 C1 1_555 1_555
N2 Tl1 1_555 1_555
N3 Tl1 1_555 1_555
C1 C2 1_555 1_555
C2 C3 1_555 1_555
C3 C4 1_555 1_555
C4 C5 1_555 1_555
C5 H4 1_555 1_555
C6 N3 1_555 1_555
H1 C2 1_555 1_555
H2 C3 1_555 1_555
H3 C4 1_555 1_555
N2D N1 1_555 1_555
N1D N2 1_555 1_555
N3B N2 1_555 1_555
N2B N3 1_555 1_555
C6F C1 1_555 1_555
C1F C6 1_555 1_555
C5F C6 1_555 1_555
Tl1D N2D 1_555 1_555
N3F N2D 1_555 1_555
C1D N1D 1_555 1_555
Tl1B N3B 1_555 1_555
C6B N3B 1_555 1_555
N1F N2B 1_555 1_555
C2F C1F 1_555 1_555
C4F C5F 1_555 1_555
H4F C5F 1_555 1_555
N3D Tl1D 1_555 1_555
Tl1F N3F 1_555 1_555
C2D C1D 1_555 1_555
N1B Tl1B 1_555 1_555
C5D C6B 1_555 1_555
Tl1F_2 N1F 1_555 1_555
C3F C2F 1_555 1_555
H1F C2F 1_555 1_555
H3F C4F 1_555 1_555
N2F N3D 1_555 1_555
C6D N3D 1_555 1_555
N1F_2 Tl1F 1_555 1_555
C3D C2D 1_555 1_555
H1D C2D 1_555 1_555
C4D C5D 1_555 1_555
H4D C5D 1_555 1_555
H2F C3F 1_555 1_555
N1B_2 N2F 1_555 1_555
C1B C6D 1_555 1_555
C5B C6D 1_555 1_555
H2D C3D 1_555 1_555
H3D C4D 1_555 1_555
C4B C5B 1_555 1_555
H4B C5B 1_555 1_555
C3B C4B 1_555 1_555
H3B C4B 1_555 1_555
Tl1B_2 N1B_2 1_555 1_555
C2B C1B 1_555 1_555
H2B C3B 1_555 1_555
H1B C2B 1_555 1_555
C5 C6F 1_555 1_555
N1D Tl1D 1_555 1_555
N2B Tl1B 1_555 1_555
C6F N3F 1_555 1_555
C1F N1F 1_555 1_555
C1D C6B 1_555 1_555
C4F C3F 1_555 1_555
Tl1F N2F 1_555 1_555
C3D C4D 1_555 1_555
N1B_2 C1B 1_555 1_555
C3B C2B 1_555 1_555

#END
