
#######################################################################
#
#                 Cambridge Crystallographic Data Centre
#                                CCDC 
#
#######################################################################
#
# If this CIF has been generated from an entry in the Cambridge 
# Structural Database, then it will include bibliographic, chemical, 
# crystal, experimental, refinement or atomic coordinate data resulting 
# from the CCDC's data processing and validation procedures.
#
#######################################################################

data_CABCEP
_symmetry_cell_setting           monoclinic
_symmetry_space_group_name_H-M   'C c'
_symmetry_Int_Tables_number      9
_space_group_name_Hall           'C -2yc'
loop_
_symmetry_equiv_pos_site_id
_symmetry_equiv_pos_as_xyz
1 x,y,z
2 x,-y,1/2+z
3 1/2+x,1/2+y,z
4 1/2+x,1/2-y,1/2+z
_cell_length_a                   22.0482(8)
_cell_length_b                   14.1974(5)
_cell_length_c                   14.4931(5)
_cell_angle_alpha                90
_cell_angle_beta                 94.447(1)
_cell_angle_gamma                90
_cell_volume                     4523.08
loop_
_atom_site_label
_atom_site_type_symbol
_atom_site_fract_x
_atom_site_fract_y
_atom_site_fract_z
Nd1 Nd 0.459139(5) 0.311378(4) 0.180609(6)
Si1 Si 0.56299(2) 0.13023(3) 0.09115(3)
N1 N 0.54478(6) 0.22502(10) 0.15776(9)
C1 C 0.58622(6) 0.27917(10) 0.21638(10)
B1 B 0.42879(8) 0.36400(14) 0.00253(14)
H1 H 0.4267(10) 0.4155(14) 0.0579(13)
H2 H 0.4781(7) 0.3563(16) -0.0065(16)
H3 H 0.4119(11) 0.2949(12) 0.0267(17)
H4 H 0.3982(9) 0.3894(15) -0.0574(12)
O1 O 0.37681(6) 0.31605(7) -0.23451(10)
Li1 Li 0.44675(13) 0.3789(2) -0.1720(2)
Si2 Si 0.36057(2) 0.11848(3) 0.23135(4)
N2 N 0.37671(6) 0.23755(9) 0.23835(10)
C2 C 0.61703(7) 0.35872(10) 0.18144(11)
B2 B 0.47088(9) 0.45804(12) 0.29842(13)
H5 H 0.4688(11) 0.3849(11) 0.3217(15)
H6 H 0.4983(9) 0.4528(16) 0.2383(12)
H7 H 0.4250(7) 0.4808(15) 0.2747(15)
H8 H 0.4905(10) 0.5067(14) 0.3515(13)
O2 O 0.51690(6) 0.31230(8) -0.20974(10)
C3 C 0.65120(7) 0.41675(11) 0.24343(12)
H9 H 0.6717 0.4695 0.2200
C4 C 0.65630(8) 0.40022(12) 0.33727(12)
H10 H 0.6792 0.4417 0.3779
C5 C 0.62769(8) 0.32246(12) 0.37193(12)
H11 H 0.6314 0.3105 0.4366
C6 C 0.59343(6) 0.26134(11) 0.31290(10)
C7 C 0.61447(7) 0.38405(11) 0.07940(11)
H12 H 0.5888 0.3361 0.0443
C8 C 0.58601(8) 0.48164(12) 0.05950(12)
H13 H 0.5455 0.4838 0.0828
H14 H 0.5826 0.4931 -0.0074
H15 H 0.6118 0.5302 0.0904
C9 C 0.67852(9) 0.38138(16) 0.04386(15)
H16 H 0.6976 0.3205 0.0594
H17 H 0.7033 0.4321 0.0731
H18 H 0.6754 0.3899 -0.0234
C10 C 0.56726(8) 0.17275(13) 0.35320(13)
H19 H 0.5334 0.1499 0.3088
C11 C 0.54125(10) 0.18911(16) 0.44677(16)
H20 H 0.5162 0.1350 0.4617
H21 H 0.5162 0.2462 0.4437
H22 H 0.5747 0.1966 0.4948
C12 C 0.61584(9) 0.09583(14) 0.36239(15)
H23 H 0.6323 0.0857 0.3023
H24 H 0.5977 0.0372 0.3829
H25 H 0.6487 0.1153 0.4079
C13 C 0.54238(11) 0.01363(12) 0.14102(15)
H26 H 0.5634 0.0063 0.2027
H27 H 0.5547 -0.0372 0.1007
H28 H 0.4983 0.0109 0.1458
C14 C 0.51949(9) 0.13686(13) -0.02483(13)
H29 H 0.5284 0.1967 -0.0547
H30 H 0.4758 0.1329 -0.0170
H31 H 0.5315 0.0844 -0.0635
C15 C 0.64579(9) 0.12434(17) 0.07388(16)
H32 H 0.6693 0.1285 0.1340
H33 H 0.6568 0.1769 0.0346
H34 H 0.6548 0.0646 0.0440
C16 C 0.33165(7) 0.29688(10) 0.27540(11)
C17 C 0.33090(8) 0.31229(10) 0.37202(12)
C18 C 0.28504(8) 0.36717(12) 0.40543(11)
H35 H 0.2845 0.3761 0.4703
C19 C 0.24045(8) 0.40894(13) 0.34717(14)
H36 H 0.2095 0.4458 0.3715
C20 C 0.24166(7) 0.39624(12) 0.25285(12)
H37 H 0.2113 0.4255 0.2125
C21 C 0.28641(7) 0.34148(11) 0.21513(11)
C22 C 0.37888(8) 0.27133(13) 0.44177(11)
H38 H 0.4115 0.2427 0.4065
C23 C 0.35293(13) 0.19362(14) 0.50044(17)
H39 H 0.3337 0.1453 0.4597
H40 H 0.3227 0.2207 0.5388
H41 H 0.3859 0.1651 0.5403
C24 C 0.40854(9) 0.34767(15) 0.50577(13)
H42 H 0.4419 0.3198 0.5454
H43 H 0.3781 0.3738 0.5444
H44 H 0.4245 0.3980 0.4682
C25 C 0.28338(7) 0.33090(13) 0.11083(11)
H45 H 0.3207 0.2961 0.0952
C26 C 0.22807(9) 0.2732(2) 0.07324(14)
H46 H 0.2285 0.2117 0.1041
H47 H 0.2297 0.2640 0.0065
H48 H 0.1907 0.3069 0.0851
C27 C 0.28350(9) 0.42605(14) 0.06195(14)
H49 H 0.3192 0.4623 0.0856
H50 H 0.2465 0.4608 0.0737
H51 H 0.2849 0.4162 -0.0048
C28 C 0.41413(9) 0.04505(12) 0.30852(18)
H52 H 0.4561 0.0583 0.2948
H53 H 0.4052 -0.0218 0.2976
H54 H 0.4090 0.0604 0.3734
C29 C 0.28197(10) 0.08960(15) 0.2643(2)
H55 H 0.2518 0.1154 0.2177
H56 H 0.2759 0.1173 0.3248
H57 H 0.2772 0.0211 0.2675
C30 C 0.36610(11) 0.07751(16) 0.10966(18)
H58 H 0.3346 0.1085 0.0690
H59 H 0.3603 0.0091 0.1066
H60 H 0.4063 0.0935 0.0897
C31 C 0.36894(9) 0.21856(13) -0.21011(16)
H61 H 0.3686 0.1779 -0.2656
H62 H 0.4021 0.1976 -0.1648
C32 C 0.30858(12) 0.2146(2) -0.1685(3)
H63 H 0.3134 0.2277 -0.1012
H64 H 0.2893 0.1522 -0.1786
C33 C 0.27248(11) 0.2884(2) -0.2175(2)
H65 H 0.2488 0.2620 -0.2724
H66 H 0.2439 0.3174 -0.1764
C34 C 0.31761(8) 0.35967(15) -0.24623(15)
H67 H 0.3165 0.4168 -0.2072
H68 H 0.3081 0.3780 -0.3117
C35 C 0.52138(9) 0.23482(14) -0.27267(14)
H69 H 0.5076 0.1756 -0.2450
H70 H 0.4964 0.2465 -0.3313
C36 C 0.58631(13) 0.2296(3) -0.2889(3)
H71 H 0.5926 0.2541 -0.3514
H72 H 0.5999 0.1631 -0.2858
C37 C 0.62020(11) 0.2822(2) -0.2227(3)
H73 H 0.6401 0.2404 -0.1748
H74 H 0.6520 0.3185 -0.2517
C38 C 0.57733(8) 0.34664(16) -0.18119(15)
H75 H 0.5826 0.4118 -0.2035
H76 H 0.5842 0.3462 -0.1129
Li1A Li 0.44675(13) 0.6211(2) 0.3280(2)
H7A H 0.4250(7) 0.5192(15) -0.2253(15)
H8A H 0.4905(10) 0.4933(14) -0.1485(13)
loop_
_geom_bond_atom_site_label_1
_geom_bond_atom_site_label_2
_geom_bond_site_symmetry_1
_geom_bond_site_symmetry_2
Nd1 N1 1_555 1_555
Si1 N1 1_555 1_555
N1 C1 1_555 1_555
C1 C2 1_555 1_555
B1 H1 1_555 1_555
H1 Nd1 1_555 1_555
H2 B1 1_555 1_555
H3 Nd1 1_555 1_555
H4 B1 1_555 1_555
O1 Li1 1_555 1_555
Li1 H4 1_555 1_555
Si2 N2 1_555 1_555
N2 Nd1 1_555 1_555
C2 C3 1_555 1_555
B2 H5 1_555 1_555
H5 Nd1 1_555 1_555
H6 Nd1 1_555 1_555
H7 B2 1_555 1_555
H8 B2 1_555 1_555
O2 Li1 1_555 1_555
C3 H9 1_555 1_555
C4 C3 1_555 1_555
H10 C4 1_555 1_555
C5 C4 1_555 1_555
H11 C5 1_555 1_555
C6 C1 1_555 1_555
C7 C2 1_555 1_555
H12 C7 1_555 1_555
C8 C7 1_555 1_555
H13 C8 1_555 1_555
H14 C8 1_555 1_555
H15 C8 1_555 1_555
C9 C7 1_555 1_555
H16 C9 1_555 1_555
H17 C9 1_555 1_555
H18 C9 1_555 1_555
C10 C6 1_555 1_555
H19 C10 1_555 1_555
C11 C10 1_555 1_555
H20 C11 1_555 1_555
H21 C11 1_555 1_555
H22 C11 1_555 1_555
C12 C10 1_555 1_555
H23 C12 1_555 1_555
H24 C12 1_555 1_555
H25 C12 1_555 1_555
C13 Si1 1_555 1_555
H26 C13 1_555 1_555
H27 C13 1_555 1_555
H28 C13 1_555 1_555
C14 Si1 1_555 1_555
H29 C14 1_555 1_555
H30 C14 1_555 1_555
H31 C14 1_555 1_555
C15 Si1 1_555 1_555
H32 C15 1_555 1_555
H33 C15 1_555 1_555
H34 C15 1_555 1_555
C16 N2 1_555 1_555
C17 C16 1_555 1_555
C18 C17 1_555 1_555
H35 C18 1_555 1_555
C19 C18 1_555 1_555
H36 C19 1_555 1_555
C20 C19 1_555 1_555
H37 C20 1_555 1_555
C21 C16 1_555 1_555
C22 C17 1_555 1_555
H38 C22 1_555 1_555
C23 C22 1_555 1_555
H39 C23 1_555 1_555
H40 C23 1_555 1_555
H41 C23 1_555 1_555
C24 C22 1_555 1_555
H42 C24 1_555 1_555
H43 C24 1_555 1_555
H44 C24 1_555 1_555
C25 C21 1_555 1_555
H45 C25 1_555 1_555
C26 C25 1_555 1_555
H46 C26 1_555 1_555
H47 C26 1_555 1_555
H48 C26 1_555 1_555
C27 C25 1_555 1_555
H49 C27 1_555 1_555
H50 C27 1_555 1_555
H51 C27 1_555 1_555
C28 Si2 1_555 1_555
H52 C28 1_555 1_555
H53 C28 1_555 1_555
H54 C28 1_555 1_555
C29 Si2 1_555 1_555
H55 C29 1_555 1_555
H56 C29 1_555 1_555
H57 C29 1_555 1_555
C30 Si2 1_555 1_555
H58 C30 1_555 1_555
H59 C30 1_555 1_555
H60 C30 1_555 1_555
C31 O1 1_555 1_555
H61 C31 1_555 1_555
H62 C31 1_555 1_555
C32 C31 1_555 1_555
H63 C32 1_555 1_555
H64 C32 1_555 1_555
C33 C32 1_555 1_555
H65 C33 1_555 1_555
H66 C33 1_555 1_555
C34 O1 1_555 1_555
H67 C34 1_555 1_555
H68 C34 1_555 1_555
C35 O2 1_555 1_555
H69 C35 1_555 1_555
H70 C35 1_555 1_555
C36 C35 1_555 1_555
H71 C36 1_555 1_555
H72 C36 1_555 1_555
C37 C36 1_555 1_555
H73 C37 1_555 1_555
H74 C37 1_555 1_555
C38 O2 1_555 1_555
H75 C38 1_555 1_555
H76 C38 1_555 1_555
Li1A H7 1_555 1_555
H7A Li1 1_555 1_555
H8A Li1 1_555 1_555
B1 H3 1_555 1_555
B2 H6 1_555 1_555
H8 Li1A 1_555 1_555
C5 C6 1_555 1_555
C20 C21 1_555 1_555
C33 C34 1_555 1_555
C37 C38 1_555 1_555

#END
