
#######################################################################
#
#                 Cambridge Crystallographic Data Centre
#                                CCDC 
#
#######################################################################
#
# If this CIF has been generated from an entry in the Cambridge 
# Structural Database, then it will include bibliographic, chemical, 
# crystal, experimental, refinement or atomic coordinate data resulting 
# from the CCDC's data processing and validation procedures.
#
#######################################################################

data_CABDOZ
_symmetry_cell_setting           orthorhombic
_symmetry_space_group_name_H-M   'P n a 21'
_symmetry_Int_Tables_number      33
_space_group_name_Hall           'P 2c -2n'
loop_
_symmetry_equiv_pos_site_id
_symmetry_equiv_pos_as_xyz
1 x,y,z
2 -x,-y,1/2+z
3 1/2+x,1/2-y,z
4 1/2-x,1/2+y,1/2+z
_cell_length_a                   48.239(41)
_cell_length_b                   10.032(7)
_cell_length_c                   14.988(10)
_cell_angle_alpha                90
_cell_angle_beta                 90
_cell_angle_gamma                90
_cell_volume                     7253.2
loop_
_atom_site_label
_atom_site_type_symbol
_atom_site_fract_x
_atom_site_fract_y
_atom_site_fract_z
N1 N 1.1276(2) 0.4493(14) 0.9541(9)
S1 S 1.16068(10) 0.2480(6) 1.0131(5)
Sn1 Sn 1.09146(2) 0.58270(12) 0.90127(7)
Na1 Na 1.00621(12) 1.2898(8) 0.5556(4)
O1 O 0.9783(2) 1.0916(11) 0.6396(8)
O2 O 1.0293(2) 1.0384(12) 0.6083(8)
O3 O 1.0554(2) 1.2315(11) 0.5120(10)
O4 O 1.0327(2) 1.4588(13) 0.4508(10)
O5 O 1.0114(3) 1.5436(15) 0.6137(11)
O6 O 0.9749(3) 1.3665(11) 0.6721(11)
O7 O 1.0600(2) 0.7088(11) 0.8410(7)
O8 O 1.0274(2) 0.7140(11) 0.9462(7)
C1 C 1.1424(3) 0.3680(18) 0.9807(11)
C2 C 0.9912(2) 1.0108(9) 0.7029(6)
C3 C 1.0186(2) 0.9802(10) 0.6829(6)
C4 C 1.0334(2) 0.8942(11) 0.7377(8)
H1 H 1.0518(2) 0.8737(15) 0.7243(10)
C5 C 1.0209(2) 0.8390(11) 0.8126(7)
C6 C 0.9935(2) 0.8697(11) 0.8326(6)
H2 H 0.9851(3) 0.8327(14) 0.8827(7)
C7 C 0.9786(2) 0.9556(11) 0.7778(6)
H3 H 0.9603(2) 0.9761(14) 0.7912(8)
C8 C 1.0369(3) 0.7493(19) 0.8745(11)
C9 C 1.0575(3) 1.0350(17) 0.5920(12)
H4 H 1.0668(3) 1.0704(17) 0.6434(12)
H5 H 1.0633(3) 0.9442(17) 0.5845(12)
C10 C 1.0664(4) 1.1091(16) 0.5217(14)
H6 H 1.0607(4) 1.0607(16) 0.4696(14)
H7 H 1.0863(4) 1.1148(16) 0.5200(14)
C11 C 1.0693(4) 1.3156(15) 0.4502(16)
H8 H 1.0891(4) 1.3059(15) 0.4489(16)
H9 H 1.0623(4) 1.2903(15) 0.3926(16)
C12 C 1.0612(3) 1.4465(16) 0.4582(18)
H10 H 1.0694(3) 1.5020(16) 0.4130(18)
H11 H 1.0679(3) 1.4748(16) 0.5155(18)
C13 C 1.0231(5) 1.5897(18) 0.4659(12)
H12 H 1.0342(5) 1.6503(18) 0.4304(12)
H13 H 1.0042(5) 1.5959(18) 0.4446(12)
C14 C 1.0237(5) 1.6318(19) 0.5517(12)
H14 H 1.0144(5) 1.7172(19) 0.5553(12)
H15 H 1.0429(5) 1.6459(19) 0.5689(12)
C15 C 0.9890(4) 1.5885(17) 0.6580(17)
H16 H 0.9937(4) 1.6643(17) 0.6940(17)
H17 H 0.9765(4) 1.6183(17) 0.6124(17)
C16 C 0.9739(5) 1.4954(17) 0.7048(17)
H18 H 0.9552(5) 1.5254(17) 0.7143(17)
H19 H 0.9829(5) 1.4937(17) 0.7619(17)
C17 C 0.9570(4) 1.2761(17) 0.7154(14)
H20 H 0.9652(4) 1.2490(17) 0.7709(14)
H21 H 0.9395(4) 1.3179(17) 0.7278(14)
C18 C 0.9532(3) 1.1580(15) 0.6599(14)
H22 H 0.9445(3) 1.1867(15) 0.6056(14)
H23 H 0.9410(3) 1.0955(15) 0.6885(14)
C19 C 1.1130(2) 0.5996(9) 0.7745(7)
C20 C 1.1418(2) 0.5981(11) 0.7747(8)
H24 H 1.1514(2) 0.5847(15) 0.8278(9)
C21 C 1.1563(2) 0.6167(12) 0.6956(9)
H25 H 1.1756(2) 0.6156(18) 0.6957(12)
C22 C 1.1420(3) 0.6368(12) 0.6162(8)
H26 H 1.1517(3) 0.6492(16) 0.5632(9)
C23 C 1.1132(3) 0.6383(12) 0.6160(7)
H27 H 1.1036(3) 0.6517(16) 0.5629(7)
C24 C 1.0987(2) 0.6197(11) 0.6952(7)
H28 H 1.0794(2) 0.6208(16) 0.6950(9)
C25 C 1.1010(2) 0.7257(10) 0.9996(6)
C26 C 1.1117(2) 0.6885(11) 1.0820(7)
H29 H 1.1129(3) 0.5988(12) 1.0972(9)
C27 C 1.1207(2) 0.7854(14) 1.1417(6)
H30 H 1.1278(3) 0.7605(18) 1.1969(7)
C28 C 1.1189(3) 0.9195(13) 1.1190(8)
H31 H 1.1249(3) 0.9843(16) 1.1590(10)
C29 C 1.1082(3) 0.9567(10) 1.0366(9)
H32 H 1.1071(4) 1.0464(10) 1.0214(12)
C30 C 1.0993(2) 0.8598(11) 0.9769(7)
H33 H 1.0921(3) 0.8847(14) 0.9217(8)
C31 C 1.0665(2) 0.4093(10) 0.9113(9)
C32 C 1.0684(2) 0.3267(13) 0.9855(9)
H34 H 1.0798(3) 0.3500(18) 1.0330(10)
C33 C 1.0532(3) 0.2091(13) 0.9888(11)
H35 H 1.0544(4) 0.1538(17) 1.0384(13)
C34 C 1.0361(3) 0.1742(11) 0.9179(13)
H36 H 1.0259(3) 0.0956(13) 0.9201(17)
C35 C 1.0342(3) 0.2569(14) 0.8437(11)
H37 H 1.0228(3) 0.2335(19) 0.7962(13)
C36 C 1.0495(2) 0.3744(13) 0.8404(9)
H38 H 1.0482(3) 0.4297(17) 0.7908(10)
O8A O 0.9726(2) 1.2860(11) 0.4462(7)
Na1A Na 0.99379(12) 0.7102(8) 1.0556(4)
N2 N 0.8732(3) 1.0268(18) 0.9349(14)
S2 S 0.91162(10) 1.2013(7) 0.8875(4)
Sn2 Sn 0.83758(2) 0.88412(12) 0.99876(8)
Na2 Na 0.76110(11) 0.2318(7) 1.3614(4)
O9 O 0.7301(2) 0.3244(11) 1.2341(7)
O10 O 0.7703(2) 0.4569(12) 1.3070(7)
O11 O 0.7838(3) 0.3871(13) 1.4693(11)
O12 O 0.8056(3) 0.1499(14) 1.4337(10)
O13 O 0.7883(2) 0.0437(15) 1.2796(10)
O14 O 0.7323(2) 0.0609(11) 1.2769(8)
O15 O 0.8069(2) 0.7598(10) 1.0637(7)
O16 O 0.7768(2) 0.7378(12) 0.9513(8)
C37 C 0.8894(3) 1.0995(19) 0.9169(14)
C38 C 0.7413(2) 0.4209(8) 1.1817(6)
C39 C 0.7630(2) 0.4909(10) 1.2204(5)
C40 C 0.7771(2) 0.5876(10) 1.1716(7)
H39 H 0.7916(2) 0.6344(13) 1.1975(9)
C41 C 0.7693(2) 0.6144(10) 1.0842(7)
C42 C 0.7475(2) 0.5445(11) 1.0454(6)
H40 H 0.7423(3) 0.5624(14) 0.9869(6)
C43 C 0.7335(2) 0.4477(10) 1.0942(6)
H41 H 0.7189(2) 0.4009(12) 1.0683(7)
C44 C 0.7855(3) 0.7117(17) 1.0257(11)
C45 C 0.7823(4) 0.5553(16) 1.3622(8)
H42 H 0.8018(4) 0.5607(16) 1.3504(8)
H43 H 0.7740(4) 0.6404(16) 1.3506(8)
C46 C 0.7784(4) 0.5192(17) 1.4526(10)
H44 H 0.7592(4) 0.5345(17) 1.4658(10)
H45 H 0.7891(4) 0.5740(17) 1.4923(10)
C47 C 0.8076(4) 0.3523(16) 1.5149(16)
H46 H 0.8226(4) 0.4113(16) 1.5005(16)
H47 H 0.8034(4) 0.3636(16) 1.5770(16)
C48 C 0.8156(4) 0.2199(17) 1.5086(13)
H48 H 0.8105(4) 0.1693(17) 1.5604(13)
H49 H 0.8355(4) 0.2198(17) 1.5059(13)
C49 C 0.8238(3) 0.0816(19) 1.3818(13)
H50 H 0.8343(3) 0.1431(19) 1.3462(13)
H51 H 0.8365(3) 0.0353(19) 1.4201(13)
C50 C 0.8119(3) -0.0095(20) 1.3236(14)
H52 H 0.8057(3) -0.0845(20) 1.3580(14)
H53 H 0.8249(3) -0.0412(20) 1.2800(14)
C51 C 0.7719(3) -0.0555(18) 1.2424(14)
H54 H 0.7823(3) -0.1012(18) 1.1972(14)
H55 H 0.7672(3) -0.1185(18) 1.2882(14)
C52 C 0.7466(3) -0.0003(20) 1.2078(13)
H56 H 0.7351(3) -0.0682(20) 1.1816(13)
H57 H 0.7509(3) 0.0653(20) 1.1633(13)
C53 C 0.7070(3) 0.1219(19) 1.2525(15)
H58 H 0.6951(3) 0.0559(19) 1.2262(15)
H59 H 0.6980(3) 0.1557(19) 1.3050(15)
C54 C 0.7108(3) 0.2309(15) 1.1928(10)
H60 H 0.6935(3) 0.2738(15) 1.1792(10)
H61 H 0.7186(3) 0.1971(15) 1.1383(10)
C55 C 0.8589(2) 0.8889(10) 1.1223(6)
C56 C 0.8700(2) 1.0066(9) 1.1556(8)
H62 H 0.8682(3) 1.0855(10) 1.1236(10)
C57 C 0.8840(2) 1.0065(12) 1.2368(8)
H63 H 0.8914(3) 1.0852(13) 1.2591(10)
C58 C 0.8868(2) 0.8886(14) 1.2846(7)
H64 H 0.8961(3) 0.8884(18) 1.3389(8)
C59 C 0.8757(3) 0.7708(11) 1.2514(8)
H65 H 0.8776(4) 0.6919(13) 1.2834(10)
C60 C 0.8617(2) 0.7710(9) 1.1702(8)
H66 H 0.8543(3) 0.6922(10) 1.1479(10)
C61 C 0.8500(2) 0.7375(11) 0.9054(8)
C62 C 0.8613(2) 0.7706(13) 0.8231(9)
H67 H 0.8625(3) 0.8595(14) 0.8058(11)
C63 C 0.8708(3) 0.6710(17) 0.7664(8)
H68 H 0.8784(4) 0.6932(22) 0.7113(9)
C64 C 0.8691(3) 0.5381(15) 0.7922(10)
H69 H 0.8755(4) 0.4714(18) 0.7543(13)
C65 C 0.8578(3) 0.5050(11) 0.8746(11)
H70 H 0.8566(4) 0.4161(11) 0.8918(15)
C66 C 0.8482(2) 0.6046(12) 0.9312(8)
H71 H 0.8407(3) 0.5824(16) 0.9863(9)
C67 C 0.8114(2) 1.0461(9) 0.9638(7)
C68 C 0.8041(2) 1.1335(11) 1.0318(7)
H72 H 0.8086(4) 1.1134(15) 1.0907(7)
C69 C 0.7901(2) 1.2508(10) 1.0119(9)
H73 H 0.7852(3) 1.3093(13) 1.0574(11)
C70 C 0.7834(2) 1.2808(10) 0.9239(11)
H74 H 0.7740(3) 1.3594(12) 0.9106(14)
C71 C 0.7907(3) 1.1935(13) 0.8559(8)
H75 H 0.7863(4) 1.2136(18) 0.7971(9)
C72 C 0.8048(2) 1.0761(12) 0.8759(7)
H76 H 0.8097(4) 1.0177(15) 0.8304(7)
O16C O 0.7232(2) 0.2378(12) 1.4513(8)
Na2C Na 0.73890(11) 0.7318(7) 0.8614(4)
loop_
_geom_bond_atom_site_label_1
_geom_bond_atom_site_label_2
_geom_bond_site_symmetry_1
_geom_bond_site_symmetry_2
N1 Sn1 1_555 1_555
S1 C1 1_555 1_555
Sn1 O7 1_555 1_555
Na1 O1 1_555 1_555
O1 C2 1_555 1_555
O2 Na1 1_555 1_555
O3 Na1 1_555 1_555
O4 Na1 1_555 1_555
O5 Na1 1_555 1_555
O6 Na1 1_555 1_555
O7 C8 1_555 1_555
O8 C8 1_555 1_555
C1 N1 1_555 1_555
C2 C3 1_555 1_555
C3 O2 1_555 1_555
C4 C3 1_555 1_555
H1 C4 1_555 1_555
C5 C4 1_555 1_555
C6 C5 1_555 1_555
H2 C6 1_555 1_555
C7 C2 1_555 1_555
H3 C7 1_555 1_555
C8 C5 1_555 1_555
C9 O2 1_555 1_555
H4 C9 1_555 1_555
H5 C9 1_555 1_555
C10 O3 1_555 1_555
H6 C10 1_555 1_555
H7 C10 1_555 1_555
C11 O3 1_555 1_555
H8 C11 1_555 1_555
H9 C11 1_555 1_555
C12 O4 1_555 1_555
H10 C12 1_555 1_555
H11 C12 1_555 1_555
C13 O4 1_555 1_555
H12 C13 1_555 1_555
H13 C13 1_555 1_555
C14 O5 1_555 1_555
H14 C14 1_555 1_555
H15 C14 1_555 1_555
C15 O5 1_555 1_555
H16 C15 1_555 1_555
H17 C15 1_555 1_555
C16 O6 1_555 1_555
H18 C16 1_555 1_555
H19 C16 1_555 1_555
C17 O6 1_555 1_555
H20 C17 1_555 1_555
H21 C17 1_555 1_555
C18 O1 1_555 1_555
H22 C18 1_555 1_555
H23 C18 1_555 1_555
C19 Sn1 1_555 1_555
C20 C19 1_555 1_555
H24 C20 1_555 1_555
C21 C20 1_555 1_555
H25 C21 1_555 1_555
C22 C21 1_555 1_555
H26 C22 1_555 1_555
C23 C22 1_555 1_555
H27 C23 1_555 1_555
C24 C19 1_555 1_555
H28 C24 1_555 1_555
C25 Sn1 1_555 1_555
C26 C25 1_555 1_555
H29 C26 1_555 1_555
C27 C26 1_555 1_555
H30 C27 1_555 1_555
C28 C27 1_555 1_555
H31 C28 1_555 1_555
C29 C28 1_555 1_555
H32 C29 1_555 1_555
C30 C25 1_555 1_555
H33 C30 1_555 1_555
C31 Sn1 1_555 1_555
C32 C31 1_555 1_555
H34 C32 1_555 1_555
C33 C32 1_555 1_555
H35 C33 1_555 1_555
C34 C33 1_555 1_555
H36 C34 1_555 1_555
C35 C34 1_555 1_555
H37 C35 1_555 1_555
C36 C31 1_555 1_555
H38 C36 1_555 1_555
N2 Sn2 1_555 1_555
S2 C37 1_555 1_555
Sn2 O15 1_555 1_555
Na2 O9 1_555 1_555
O9 C38 1_555 1_555
O10 Na2 1_555 1_555
O11 Na2 1_555 1_555
O12 Na2 1_555 1_555
O13 Na2 1_555 1_555
O14 Na2 1_555 1_555
O15 C44 1_555 1_555
O16 C44 1_555 1_555
C37 N2 1_555 1_555
C38 C39 1_555 1_555
C39 O10 1_555 1_555
C40 C39 1_555 1_555
H39 C40 1_555 1_555
C41 C40 1_555 1_555
C42 C41 1_555 1_555
H40 C42 1_555 1_555
C43 C38 1_555 1_555
H41 C43 1_555 1_555
C44 C41 1_555 1_555
C45 O10 1_555 1_555
H42 C45 1_555 1_555
H43 C45 1_555 1_555
C46 O11 1_555 1_555
H44 C46 1_555 1_555
H45 C46 1_555 1_555
C47 O11 1_555 1_555
H46 C47 1_555 1_555
H47 C47 1_555 1_555
C48 O12 1_555 1_555
H48 C48 1_555 1_555
H49 C48 1_555 1_555
C49 O12 1_555 1_555
H50 C49 1_555 1_555
H51 C49 1_555 1_555
C50 O13 1_555 1_555
H52 C50 1_555 1_555
H53 C50 1_555 1_555
C51 O13 1_555 1_555
H54 C51 1_555 1_555
H55 C51 1_555 1_555
C52 O14 1_555 1_555
H56 C52 1_555 1_555
H57 C52 1_555 1_555
C53 O14 1_555 1_555
H58 C53 1_555 1_555
H59 C53 1_555 1_555
C54 O9 1_555 1_555
H60 C54 1_555 1_555
H61 C54 1_555 1_555
C55 Sn2 1_555 1_555
C56 C55 1_555 1_555
H62 C56 1_555 1_555
C57 C56 1_555 1_555
H63 C57 1_555 1_555
C58 C57 1_555 1_555
H64 C58 1_555 1_555
C59 C58 1_555 1_555
H65 C59 1_555 1_555
C60 C55 1_555 1_555
H66 C60 1_555 1_555
C61 Sn2 1_555 1_555
C62 C61 1_555 1_555
H67 C62 1_555 1_555
C63 C62 1_555 1_555
H68 C63 1_555 1_555
C64 C63 1_555 1_555
H69 C64 1_555 1_555
C65 C64 1_555 1_555
H70 C65 1_555 1_555
C66 C61 1_555 1_555
H71 C66 1_555 1_555
C67 Sn2 1_555 1_555
C68 C67 1_555 1_555
H72 C68 1_555 1_555
C69 C68 1_555 1_555
H73 C69 1_555 1_555
C70 C69 1_555 1_555
H74 C70 1_555 1_555
C71 C70 1_555 1_555
H75 C71 1_555 1_555
C72 C67 1_555 1_555
H76 C72 1_555 1_555
O8A Na1 1_555 1_555
Na1A O8 1_555 1_555
O16C Na2 1_555 1_555
Na2C O16 1_555 1_555
C6 C7 1_555 1_555
C9 C10 1_555 1_555
C11 C12 1_555 1_555
C13 C14 1_555 1_555
C15 C16 1_555 1_555
C17 C18 1_555 1_555
C23 C24 1_555 1_555
C29 C30 1_555 1_555
C35 C36 1_555 1_555
C42 C43 1_555 1_555
C45 C46 1_555 1_555
C47 C48 1_555 1_555
C49 C50 1_555 1_555
C51 C52 1_555 1_555
C53 C54 1_555 1_555
C59 C60 1_555 1_555
C65 C66 1_555 1_555
C71 C72 1_555 1_555

#END
