
#######################################################################
#
#                 Cambridge Crystallographic Data Centre
#                                CCDC 
#
#######################################################################
#
# If this CIF has been generated from an entry in the Cambridge 
# Structural Database, then it will include bibliographic, chemical, 
# crystal, experimental, refinement or atomic coordinate data resulting 
# from the CCDC's data processing and validation procedures.
#
#######################################################################

data_CABDUF
_symmetry_cell_setting           monoclinic
_symmetry_space_group_name_H-M   'P 21/n'
_symmetry_Int_Tables_number      14
_space_group_name_Hall           '-P 2yn'
loop_
_symmetry_equiv_pos_site_id
_symmetry_equiv_pos_as_xyz
1 x,y,z
2 1/2+x,1/2-y,1/2+z
3 -x,-y,-z
4 1/2-x,1/2+y,1/2-z
_cell_length_a                   15.018(7)
_cell_length_b                   15.138(6)
_cell_length_c                   15.156(7)
_cell_angle_alpha                90
_cell_angle_beta                 100.06(3)
_cell_angle_gamma                90
_cell_volume                     3392.63
loop_
_atom_site_label
_atom_site_type_symbol
_atom_site_fract_x
_atom_site_fract_y
_atom_site_fract_z
N1 N 0.2941(4) 0.1654(4) 0.2549(4)
S1 S 0.47735(11) 0.16630(14) 0.31127(13)
Sn1 Sn 0.14286(3) 0.13717(3) 0.24747(3)
Na1 Na -0.12725(15) 0.2905(2) 0.39493(15)
O1 O 0.0017(3) 0.0995(3) 0.2354(3)
O2 O -0.0672(3) 0.2069(3) 0.2995(3)
O3 O -0.2288(2) -0.1361(3) 0.1515(3)
O4 O -0.2611(4) -0.2498(3) 0.0191(4)
O5 O -0.4392(4) -0.2838(3) -0.0280(3)
O6 O -0.5090(3) -0.1336(3) 0.0366(3)
O7 O -0.3825(2) -0.0680(3) 0.1673(3)
C1 C 0.3704(4) 0.1661(4) 0.2784(4)
C2 C -0.0677(4) 0.1363(5) 0.2590(4)
C3 C -0.1527(4) 0.0839(4) 0.2332(3)
C4 C -0.1494(4) -0.0019(4) 0.2029(4)
H1 H -0.0921(4) -0.0274(4) 0.1971(4)
C5 C -0.2266(4) -0.0507(4) 0.1812(4)
C6 C -0.1537(4) -0.1665(4) 0.1139(4)
H2 H -0.1010(4) -0.1710(4) 0.1597(4)
H3 H -0.1411(4) -0.1257(4) 0.0691(4)
C7 C -0.1800(5) -0.2551(5) 0.0702(5)
H4 H -0.1361(5) -0.2735(5) 0.0350(5)
H5 H -0.1818(5) -0.2982(5) 0.1163(5)
C8 C -0.2908(6) -0.3300(5) -0.0295(6)
H6 H -0.2995(6) -0.3764(5) 0.0114(6)
H7 H -0.2484(6) -0.3498(5) -0.0659(6)
C9 C -0.3786(6) -0.3090(6) -0.0829(5)
H8 H -0.3702(6) -0.2602(6) -0.1210(5)
H9 H -0.4028(6) -0.3578(6) -0.1199(5)
C10 C -0.5199(6) -0.2441(5) -0.0737(5)
H10 H -0.5575(6) -0.2871(5) -0.1088(5)
H11 H -0.5057(6) -0.1984(5) -0.1129(5)
C11 C -0.5657(5) -0.2050(5) -0.0035(5)
H12 H -0.6241(5) -0.1824(5) -0.0296(5)
H13 H -0.5732(5) -0.2490(5) 0.0403(5)
C12 C -0.5356(4) -0.1000(5) 0.1148(5)
H14 H -0.5317(4) -0.1455(5) 0.1595(5)
H15 H -0.5969(4) -0.0792(5) 0.1018(5)
C13 C -0.4713(3) -0.0268(4) 0.1499(4)
H16 H -0.4734(3) 0.0185(4) 0.1052(4)
H17 H -0.4857(3) -0.0014(4) 0.2037(4)
C14 C -0.3098(4) -0.0138(4) 0.1893(4)
C15 C -0.3140(4) 0.0718(5) 0.2183(4)
H18 H -0.3714(4) 0.0973(5) 0.2233(4)
C16 C -0.2353(4) 0.1207(4) 0.2393(4)
H19 H -0.2379(4) 0.1810(4) 0.2584(4)
C17 C 0.1129(3) 0.2646(2) 0.1911(3)
C18 C 0.1661(3) 0.3373(3) 0.2214(3)
H20 H 0.2156(3) 0.3306(5) 0.2672(3)
C19 C 0.1453(4) 0.4199(3) 0.1832(4)
H21 H 0.1809(5) 0.4685(4) 0.2035(5)
C20 C 0.0713(4) 0.4298(3) 0.1148(4)
H22 H 0.0574(6) 0.4850(4) 0.0892(5)
C21 C 0.0181(3) 0.3571(5) 0.0844(3)
H23 H -0.0314(4) 0.3637(6) 0.0386(4)
C22 C 0.0389(3) 0.2745(4) 0.1226(3)
H24 H 0.0033(4) 0.2259(5) 0.1023(4)
C23 C 0.1672(3) 0.1137(3) 0.3875(2)
C24 C 0.1076(3) 0.0604(3) 0.4241(4)
H25 H 0.0575(3) 0.0362(4) 0.3874(5)
C25 C 0.1230(4) 0.0433(3) 0.5156(4)
H26 H 0.0831(5) 0.0077(4) 0.5401(6)
C26 C 0.1979(4) 0.0796(4) 0.5705(2)
H27 H 0.2082(6) 0.0681(6) 0.6318(3)
C27 C 0.2575(3) 0.1328(4) 0.5339(3)
H28 H 0.3076(4) 0.1571(6) 0.5707(5)
C28 C 0.2421(3) 0.1499(3) 0.4424(3)
H29 H 0.2820(4) 0.1855(4) 0.4179(5)
C29 C 0.1563(3) 0.0309(3) 0.1588(3)
C30 C 0.2147(3) 0.0404(4) 0.0976(4)
H30 H 0.2492(4) 0.0915(4) 0.0978(5)
C31 C 0.2215(4) -0.0264(5) 0.0363(3)
H31 H 0.2606(5) -0.0200(7) -0.0047(4)
C32 C 0.1700(5) -0.1027(4) 0.0360(3)
H32 H 0.1746(7) -0.1474(5) -0.0050(5)
C33 C 0.1117(4) -0.1122(3) 0.0972(5)
H33 H 0.0772(6) -0.1633(4) 0.0970(7)
C34 C 0.1048(3) -0.0454(4) 0.1586(4)
H34 H 0.0657(5) -0.0518(6) 0.1995(5)
O3C O -0.2712(2) 0.3639(3) 0.3485(3)
O4C O -0.2389(4) 0.2502(3) 0.4809(4)
O5C O -0.0608(4) 0.2162(3) 0.5280(3)
O6C O 0.0090(3) 0.3664(3) 0.4634(3)
O7C O -0.1175(2) 0.4320(3) 0.3327(3)
Na1C Na -0.37275(15) -0.2095(2) 0.10507(15)
loop_
_geom_bond_atom_site_label_1
_geom_bond_atom_site_label_2
_geom_bond_site_symmetry_1
_geom_bond_site_symmetry_2
N1 Sn1 1_555 1_555
S1 C1 1_555 1_555
Sn1 O1 1_555 1_555
Na1 O2 1_555 1_555
O1 C2 1_555 1_555
O2 C2 1_555 1_555
O3 C5 1_555 1_555
O4 C7 1_555 1_555
O5 C9 1_555 1_555
O6 C11 1_555 1_555
O7 C13 1_555 1_555
C1 N1 1_555 1_555
C2 C3 1_555 1_555
C3 C4 1_555 1_555
C4 H1 1_555 1_555
C5 C4 1_555 1_555
C6 O3 1_555 1_555
H2 C6 1_555 1_555
H3 C6 1_555 1_555
C7 C6 1_555 1_555
H4 C7 1_555 1_555
H5 C7 1_555 1_555
C8 O4 1_555 1_555
H6 C8 1_555 1_555
H7 C8 1_555 1_555
C9 C8 1_555 1_555
H8 C9 1_555 1_555
H9 C9 1_555 1_555
C10 O5 1_555 1_555
H10 C10 1_555 1_555
H11 C10 1_555 1_555
C11 C10 1_555 1_555
H12 C11 1_555 1_555
H13 C11 1_555 1_555
C12 O6 1_555 1_555
H14 C12 1_555 1_555
H15 C12 1_555 1_555
C13 C12 1_555 1_555
H16 C13 1_555 1_555
H17 C13 1_555 1_555
C14 O7 1_555 1_555
C15 C14 1_555 1_555
H18 C15 1_555 1_555
C16 C3 1_555 1_555
H19 C16 1_555 1_555
C17 Sn1 1_555 1_555
C18 C17 1_555 1_555
H20 C18 1_555 1_555
C19 C18 1_555 1_555
H21 C19 1_555 1_555
C20 C19 1_555 1_555
H22 C20 1_555 1_555
C21 C20 1_555 1_555
H23 C21 1_555 1_555
C22 C17 1_555 1_555
H24 C22 1_555 1_555
C23 Sn1 1_555 1_555
C24 C23 1_555 1_555
H25 C24 1_555 1_555
C25 C24 1_555 1_555
H26 C25 1_555 1_555
C26 C25 1_555 1_555
H27 C26 1_555 1_555
C27 C26 1_555 1_555
H28 C27 1_555 1_555
C28 C23 1_555 1_555
H29 C28 1_555 1_555
C29 Sn1 1_555 1_555
C30 C29 1_555 1_555
H30 C30 1_555 1_555
C31 C30 1_555 1_555
H31 C31 1_555 1_555
C32 C31 1_555 1_555
H32 C32 1_555 1_555
C33 C32 1_555 1_555
H33 C33 1_555 1_555
C34 C29 1_555 1_555
H34 C34 1_555 1_555
O3C Na1 1_555 1_555
O4C Na1 1_555 1_555
O5C Na1 1_555 1_555
O6C Na1 1_555 1_555
O7C Na1 1_555 1_555
Na1C O3 1_555 1_555
O4 Na1C 1_555 1_555
O5 Na1C 1_555 1_555
O6 Na1C 1_555 1_555
O7 Na1C 1_555 1_555
C5 C14 1_555 1_555
C15 C16 1_555 1_555
C21 C22 1_555 1_555
C27 C28 1_555 1_555
C33 C34 1_555 1_555

#END
