
#######################################################################
#
#                 Cambridge Crystallographic Data Centre
#                                CCDC 
#
#######################################################################
#
# If this CIF has been generated from an entry in the Cambridge 
# Structural Database, then it will include bibliographic, chemical, 
# crystal, experimental, refinement or atomic coordinate data resulting 
# from the CCDC's data processing and validation procedures.
#
#######################################################################

data_CABHUK
_symmetry_cell_setting           monoclinic
_symmetry_space_group_name_H-M   'C 2/c'
_symmetry_Int_Tables_number      15
_space_group_name_Hall           '-C 2yn'
loop_
_symmetry_equiv_pos_site_id
_symmetry_equiv_pos_as_xyz
1 x,y,z
2 -x,y,1/2-z
3 1/2+x,1/2+y,z
4 1/2-x,1/2+y,1/2-z
5 -x,-y,-z
6 x,-y,1/2+z
7 1/2-x,1/2-y,-z
8 1/2+x,1/2-y,1/2+z
_cell_length_a                   17.8712(19)
_cell_length_b                   10.6324(11)
_cell_length_c                   21.773(2)
_cell_angle_alpha                90
_cell_angle_beta                 106.0310(10)
_cell_angle_gamma                90
_cell_volume                     3976.28
loop_
_atom_site_label
_atom_site_type_symbol
_atom_site_fract_x
_atom_site_fract_y
_atom_site_fract_z
Co1 Co 0.5000 0.24450(6) 1.2500
C1 C 0.3609(2) 0.3378(4) 1.14799(17)
C2 C 0.3345(2) 0.3615(3) 1.07659(17)
C3 C 0.3562(2) 0.2793(3) 1.03542(18)
H1 H 0.3864 0.2094 1.0518
C4 C 0.3335(2) 0.2995(3) 0.97001(18)
C5 C 0.2887(2) 0.4032(3) 0.94539(17)
H2 H 0.2737 0.4186 0.9016
C6 C 0.2664(2) 0.4844(4) 0.98733(18)
C7 C 0.2885(2) 0.4645(3) 1.05204(17)
H3 H 0.2728 0.5197 1.0792
C8 C 0.3512(2) 0.2139(4) 0.86924(18)
C9 C 0.3828(2) 0.1018(3) 0.84251(18)
C10 C 0.4382(2) 0.0236(4) 0.87913(18)
H4 H 0.4562 0.0361 0.9230
C11 C 0.4670(3) -0.0740(4) 0.85073(19)
H5 H 0.5048 -0.1256 0.8766
C12 C 0.3897(3) -0.0226(4) 0.75414(19)
H6 H 0.3718 -0.0380 0.7105
C13 C 0.3580(3) 0.0778(4) 0.77834(19)
H7 H 0.3204 0.1282 0.7515
C14 C 0.1479(3) 0.6082(4) 0.96693(18)
C15 C 0.1042(2) 0.7185(3) 0.9316(2)
C16 C 0.1065(3) 0.7480(4) 0.8707(2)
H8 H 0.1374 0.7023 0.8506
C17 C 0.0614(3) 0.8482(5) 0.8398(2)
H9 H 0.0628 0.8676 0.7985
C18 C 0.0159(3) 0.8867(4) 0.9243(3)
H10 H -0.0152 0.9343 0.9433
C19 C 0.0574(3) 0.7906(4) 0.9587(2)
H11 H 0.0543 0.7736 0.9999
N1 N 0.44411(19) -0.0987(3) 0.78892(14)
N2 N 0.35551(18) 0.2064(3) 0.93152(14)
H12 H 0.3736 0.1373 0.9504
N3 N 0.0169(2) 0.9170(4) 0.8655(2)
N4 N 0.21866(19) 0.5888(3) 0.95977(15)
H13 H 0.2365 0.6418 0.9375
O1 O 0.33318(17) 0.4060(3) 1.18298(13)
O2 O 0.40954(16) 0.2521(2) 1.16668(12)
O3 O 0.32569(19) 0.3049(3) 0.83588(13)
O4 O 0.11742(18) 0.5412(3) 0.99950(15)
O5 O 0.4404(2) 0.3781(3) 1.29372(17)
H14 H 0.4060 0.4170 1.2653
H15 H 0.4726 0.4314 1.3153
Co1D Co 0.5000 -0.24450(6) 0.7500
Co1D_2 Co 0.5000 -0.24450(6) 1.7500
C1A C 0.6391(2) 0.3378(4) 1.35201(17)
C2A C 0.6655(2) 0.3615(3) 1.42341(17)
C3A C 0.6438(2) 0.2793(3) 1.46458(18)
H1A H 0.6136 0.2094 1.4482
C4A C 0.6665(2) 0.2995(3) 1.52999(18)
C5A C 0.7113(2) 0.4032(3) 1.55461(17)
H2A H 0.7263 0.4186 1.5984
C6A C 0.7336(2) 0.4844(4) 1.51267(18)
C7A C 0.7115(2) 0.4645(3) 1.44796(17)
H3A H 0.7272 0.5197 1.4208
C8A C 0.6488(2) 0.2139(4) 1.63076(18)
C9A C 0.6172(2) 0.1018(3) 1.65749(18)
C10A C 0.5618(2) 0.0236(4) 1.62087(18)
H4A H 0.5438 0.0361 1.5770
C11A C 0.5330(3) -0.0740(4) 1.64927(19)
H5A H 0.4952 -0.1256 1.6234
C12A C 0.6103(3) -0.0226(4) 1.74586(19)
H6A H 0.6282 -0.0380 1.7895
C13A C 0.6420(3) 0.0778(4) 1.72166(19)
H7A H 0.6796 0.1282 1.7485
C14A C 0.8521(3) 0.6082(4) 1.53307(18)
C15A C 0.8958(2) 0.7185(3) 1.5684(2)
C16A C 0.8935(3) 0.7480(4) 1.6293(2)
H8A H 0.8626 0.7023 1.6494
C17A C 0.9386(3) 0.8482(5) 1.6602(2)
H9A H 0.9372 0.8676 1.7015
C18A C 0.9841(3) 0.8867(4) 1.5757(3)
H10A H 1.0152 0.9343 1.5567
C19A C 0.9426(3) 0.7906(4) 1.5413(2)
H11A H 0.9457 0.7736 1.5001
N1A N 0.55589(19) -0.0987(3) 1.71108(14)
N1D N 0.55589(19) 0.0987(3) 1.21108(14)
N1E N 0.44411(19) 0.0987(3) 1.28892(14)
N2A N 0.64449(18) 0.2064(3) 1.56848(14)
H12A H 0.6264 0.1373 1.5496
N3A N 0.9831(2) 0.9170(4) 1.6345(2)
N4A N 0.78134(19) 0.5888(3) 1.54023(15)
H13A H 0.7635 0.6418 1.5625
O1A O 0.66682(17) 0.4060(3) 1.31702(13)
O2A O 0.59046(16) 0.2521(2) 1.33332(12)
O3A O 0.67431(19) 0.3049(3) 1.66412(13)
O4A O 0.88258(18) 0.5412(3) 1.50050(15)
O5A O 0.5596(2) 0.3781(3) 1.20628(17)
H14A H 0.5940 0.4170 1.2347
H15A H 0.5274 0.4314 1.1847
O6 O 0.27345(18) 0.6317(3) 0.20655(12)
H16 H 0.2944 0.5614 0.2029
H17 H 0.2874 0.6573 0.2450
O7 O 0.19371(18) 0.8089(3) 0.12375(12)
H18 H 0.1859 0.7300 0.1220
H19 H 0.2049 0.8114 0.1643
loop_
_geom_bond_atom_site_label_1
_geom_bond_atom_site_label_2
_geom_bond_site_symmetry_1
_geom_bond_site_symmetry_2
Co1 O2 1_555 1_555
C1 C2 1_555 1_555
C2 C3 1_555 1_555
C3 H1 1_555 1_555
C4 C3 1_555 1_555
C5 C4 1_555 1_555
H2 C5 1_555 1_555
C6 C5 1_555 1_555
C7 C2 1_555 1_555
H3 C7 1_555 1_555
C8 C9 1_555 1_555
C9 C10 1_555 1_555
C10 H4 1_555 1_555
C11 C10 1_555 1_555
H5 C11 1_555 1_555
C12 H6 1_555 1_555
C13 C9 1_555 1_555
H7 C13 1_555 1_555
C14 C15 1_555 1_555
C15 C16 1_555 1_555
C16 H8 1_555 1_555
C17 C16 1_555 1_555
H9 C17 1_555 1_555
C18 H10 1_555 1_555
C19 C15 1_555 1_555
H11 C19 1_555 1_555
N1 C11 1_555 1_555
N2 C4 1_555 1_555
H12 N2 1_555 1_555
N3 C17 1_555 1_555
N4 C6 1_555 1_555
H13 N4 1_555 1_555
O1 C1 1_555 1_555
O2 C1 1_555 1_555
O3 C8 1_555 1_555
O4 C14 1_555 1_555
O5 Co1 1_555 1_555
H14 O5 1_555 1_555
H15 O5 1_555 1_555
O6 H16 1_555 1_555
H17 O6 1_555 1_555
O7 H18 1_555 1_555
H19 O7 1_555 1_555
Co1D N1 1_555 1_555
Co1D_2 N1A 1_555 1_555
C1A C2A 1_555 1_555
C2A C3A 1_555 1_555
C3A H1A 1_555 1_555
C4A C3A 1_555 1_555
C5A C4A 1_555 1_555
H2A C5A 1_555 1_555
C6A C5A 1_555 1_555
C7A C2A 1_555 1_555
H3A C7A 1_555 1_555
C8A C9A 1_555 1_555
C9A C10A 1_555 1_555
C10A H4A 1_555 1_555
C11A C10A 1_555 1_555
H5A C11A 1_555 1_555
C12A H6A 1_555 1_555
C13A C9A 1_555 1_555
H7A C13A 1_555 1_555
C14A C15A 1_555 1_555
C15A C16A 1_555 1_555
C16A H8A 1_555 1_555
C17A C16A 1_555 1_555
H9A C17A 1_555 1_555
C18A H10A 1_555 1_555
C19A C15A 1_555 1_555
H11A C19A 1_555 1_555
N1A C11A 1_555 1_555
N1D Co1 1_555 1_555
N1E Co1 1_555 1_555
N2A C4A 1_555 1_555
H12A N2A 1_555 1_555
N3A C17A 1_555 1_555
N4A C6A 1_555 1_555
H13A N4A 1_555 1_555
O1A C1A 1_555 1_555
O2A Co1 1_555 1_555
O3A C8A 1_555 1_555
O4A C14A 1_555 1_555
O5A Co1 1_555 1_555
H14A O5A 1_555 1_555
H15A O5A 1_555 1_555
C6 C7 1_555 1_555
C8 N2 1_555 1_555
C12 C13 1_555 1_555
C12 N1 1_555 1_555
C14 N4 1_555 1_555
C18 C19 1_555 1_555
C18 N3 1_555 1_555
C1A O2A 1_555 1_555
C6A C7A 1_555 1_555
C8A N2A 1_555 1_555
C12A C13A 1_555 1_555
C12A N1A 1_555 1_555
C14A N4A 1_555 1_555
C18A C19A 1_555 1_555
C18A N3A 1_555 1_555

#END
