
#######################################################################
#
#                 Cambridge Crystallographic Data Centre
#                                CCDC 
#
#######################################################################
#
# If this CIF has been generated from an entry in the Cambridge 
# Structural Database, then it will include bibliographic, chemical, 
# crystal, experimental, refinement or atomic coordinate data resulting 
# from the CCDC's data processing and validation procedures.
#
#######################################################################

data_CABLUN
_symmetry_cell_setting           monoclinic
_symmetry_space_group_name_H-M   'P 21/c'
_symmetry_Int_Tables_number      14
_space_group_name_Hall           '-P 2ybc'
loop_
_symmetry_equiv_pos_site_id
_symmetry_equiv_pos_as_xyz
1 x,y,z
2 x,1/2-y,1/2+z
3 -x,-y,-z
4 -x,1/2+y,1/2-z
_cell_length_a                   5.2375(6)
_cell_length_b                   17.9063(19)
_cell_length_c                   16.2317(17)
_cell_angle_alpha                90
_cell_angle_beta                 95.527(2)
_cell_angle_gamma                90
_cell_volume                     1515.2
loop_
_atom_site_label
_atom_site_type_symbol
_atom_site_fract_x
_atom_site_fract_y
_atom_site_fract_z
Ag1 Ag 0.33888(4) 0.555084(12) 0.937546(12)
S1 S 0.19056(12) 0.42807(4) 0.89011(4)
O1 O 0.5501(4) 0.62560(15) 0.82567(15)
O2 O 0.8083(5) 0.55318(15) 0.89487(17)
O3 O 0.9505(6) 0.6231(2) 0.8053(2)
N1 N 0.6035(4) 0.35958(12) 0.96456(12)
N2 N 0.4585(4) 0.30281(12) 0.84686(12)
N3 N 0.7702(4) 0.60028(15) 0.83999(15)
C1 C 0.0950(6) 0.4368(2) 0.77886(19)
H1 H -0.0415 0.4011 0.7646
H2 H 0.0224 0.4862 0.7691
C2 C 0.2922(6) 0.42585(18) 0.72073(16)
C3 C 0.3768(9) 0.4851(2) 0.6747(2)
H3 H 0.3182 0.5332 0.6836
C4 C 0.5461(10) 0.4732(3) 0.6164(2)
H4 H 0.5983 0.5129 0.5852
C5 C 0.6395(9) 0.4019(3) 0.6040(2)
H5 H 0.7530 0.3939 0.5642
C6 C 0.5659(6) 0.3439(2) 0.64960(17)
H6 H 0.6313 0.2964 0.6417
C7 C 0.3923(5) 0.35496(16) 0.70847(14)
C8 C 0.3239(6) 0.29238(16) 0.76341(16)
H7 H 0.1400 0.2917 0.7668
H8 H 0.3733 0.2450 0.7406
C9 C 0.4366(5) 0.36134(14) 0.89860(14)
C10 C 0.7523(5) 0.29683(15) 0.95487(15)
C11 C 0.6673(5) 0.26060(15) 0.88017(15)
C12 C 0.7835(6) 0.19791(18) 0.85191(19)
H9 H 0.7238 0.1749 0.8024
C13 C 0.9953(7) 0.17084(19) 0.9014(2)
H10 H 1.0821 0.1290 0.8846
C14 C 1.0782(6) 0.2059(2) 0.9759(2)
H11 H 1.2196 0.1863 1.0077
C15 C 0.9626(6) 0.26727(18) 1.00402(18)
H12 H 1.0209 0.2890 1.0544
Ag1B Ag 0.66112(4) 0.444916(12) 1.062454(12)
O2_2 O -0.1917(5) 0.55318(15) 0.89487(17)
N1B N 0.3965(4) 0.64042(12) 1.03544(12)
Ag1_2 Ag 1.33888(4) 0.555084(12) 0.937546(12)
loop_
_geom_bond_atom_site_label_1
_geom_bond_atom_site_label_2
_geom_bond_site_symmetry_1
_geom_bond_site_symmetry_2
Ag1 S1 1_555 1_555
S1 C1 1_555 1_555
O1 Ag1 1_555 1_555
O2 Ag1 1_555 1_555
O3 N3 1_555 1_555
N1 C9 1_555 1_555
N2 C8 1_555 1_555
N3 O1 1_555 1_555
C1 H1 1_555 1_555
H2 C1 1_555 1_555
C2 C1 1_555 1_555
C3 C2 1_555 1_555
H3 C3 1_555 1_555
C4 C3 1_555 1_555
H4 C4 1_555 1_555
C5 C4 1_555 1_555
H5 C5 1_555 1_555
C6 C5 1_555 1_555
H6 C6 1_555 1_555
C7 C2 1_555 1_555
C8 C7 1_555 1_555
H7 C8 1_555 1_555
H8 C8 1_555 1_555
C9 S1 1_555 1_555
C10 N1 1_555 1_555
C11 N2 1_555 1_555
C12 C11 1_555 1_555
H9 C12 1_555 1_555
C13 C12 1_555 1_555
H10 C13 1_555 1_555
C14 C13 1_555 1_555
H11 C14 1_555 1_555
C15 C10 1_555 1_555
H12 C15 1_555 1_555
Ag1B N1 1_555 1_555
O2_2 Ag1 1_555 1_555
N1B Ag1 1_555 1_555
Ag1_2 O2 1_555 1_555
O2 N3 1_555 1_555
N2 C9 1_555 1_555
C6 C7 1_555 1_555
C10 C11 1_555 1_555
C14 C15 1_555 1_555

#END
