
#######################################################################
#
#                 Cambridge Crystallographic Data Centre
#                                CCDC 
#
#######################################################################
#
# If this CIF has been generated from an entry in the Cambridge 
# Structural Database, then it will include bibliographic, chemical, 
# crystal, experimental, refinement or atomic coordinate data resulting 
# from the CCDC's data processing and validation procedures.
#
#######################################################################

data_CABMIC
_symmetry_cell_setting           orthorhombic
_symmetry_space_group_name_H-M   'F d d 2'
_symmetry_Int_Tables_number      43
_space_group_name_Hall           'F 2 -2d'
loop_
_symmetry_equiv_pos_site_id
_symmetry_equiv_pos_as_xyz
1 x,y,z
2 -x,-y,z
3 1/4+x,1/4-y,1/4+z
4 1/4-x,1/4+y,1/4+z
5 x,1/2+y,1/2+z
6 -x,1/2-y,1/2+z
7 1/4+x,3/4-y,3/4+z
8 1/4-x,3/4+y,3/4+z
9 1/2+x,y,1/2+z
10 1/2-x,-y,1/2+z
11 3/4+x,1/4-y,3/4+z
12 3/4-x,1/4+y,3/4+z
13 1/2+x,1/2+y,z
14 1/2-x,1/2-y,z
15 3/4+x,3/4-y,1/4+z
16 3/4-x,3/4+y,1/4+z
_cell_length_a                   21.486(6)
_cell_length_b                   26.122(7)
_cell_length_c                   8.820(2)
_cell_angle_alpha                90
_cell_angle_beta                 90
_cell_angle_gamma                90
_cell_volume                     4950.29
loop_
_atom_site_label
_atom_site_type_symbol
_atom_site_fract_x
_atom_site_fract_y
_atom_site_fract_z
Ag1 Ag 0.53157(3) 0.07453(2) -0.23170(4)
S1 S 0.42008(9) 0.03810(8) -0.0009(2)
N1 N 0.4987(3) 0.1131(2) -0.0310(7)
N2 N 0.4317(3) 0.1180(3) 0.1855(8)
N3 N 0.4392(3) -0.0375(2) 0.5609(7)
C1 C 0.5216(4) 0.1592(3) 0.0080(12)
H1 H 0.5533 0.1731 -0.0510
C2 C 0.5010(4) 0.1864(3) 0.1283(10)
H2 H 0.5161 0.2191 0.1486
C3 C 0.4572(4) 0.1640(3) 0.2187(10)
H3 H 0.4445 0.1810 0.3061
C4 C 0.4527(3) 0.0955(3) 0.0599(8)
C5 C 0.3650(4) 0.0245(3) 0.1473(9)
H4 H 0.3425 0.0557 0.1710
H5 H 0.3350 -0.0001 0.1094
C6 C 0.3926(3) 0.0040(3) 0.2906(9)
C7 C 0.3850(4) 0.0285(3) 0.4287(9)
H6 H 0.3643 0.0598 0.4333
C8 C 0.4079(3) 0.0066(3) 0.5590(9)
H7 H 0.4013 0.0234 0.6506
C9 C 0.4488(4) -0.0603(3) 0.4247(10)
H8 H 0.4717 -0.0905 0.4218
C10 C 0.4262(3) -0.0409(3) 0.2913(9)
H9 H 0.4336 -0.0581 0.2008
N3A N 0.5608(3) 0.0375(2) -0.4391(7)
Ag1A Ag 0.46843(3) -0.07453(2) 0.76830(4)
N4 N 0.4372(4) 0.1648(3) 0.6260(8)
O1 O 0.4113(4) 0.1253(4) 0.6502(14)
O2 O 0.4070(4) 0.2026(3) 0.5918(10)
O3 O 0.4943(3) 0.1659(3) 0.6226(10)
loop_
_geom_bond_atom_site_label_1
_geom_bond_atom_site_label_2
_geom_bond_site_symmetry_1
_geom_bond_site_symmetry_2
Ag1 N1 1_555 1_555
S1 C4 1_555 1_555
N1 C1 1_555 1_555
N2 C3 1_555 1_555
N3 C8 1_555 1_555
C1 H1 1_555 1_555
C2 C1 1_555 1_555
H2 C2 1_555 1_555
C3 C2 1_555 1_555
H3 C3 1_555 1_555
C4 N1 1_555 1_555
C5 S1 1_555 1_555
H4 C5 1_555 1_555
H5 C5 1_555 1_555
C6 C5 1_555 1_555
C7 C6 1_555 1_555
H6 C7 1_555 1_555
C8 C7 1_555 1_555
H7 C8 1_555 1_555
C9 N3 1_555 1_555
H8 C9 1_555 1_555
C10 C6 1_555 1_555
H9 C10 1_555 1_555
N4 O1 1_555 1_555
O2 N4 1_555 1_555
O3 N4 1_555 1_555
N3A Ag1 1_555 1_555
Ag1A N3 1_555 1_555
N2 C4 1_555 1_555
C9 C10 1_555 1_555

#END
