
#######################################################################
#
#                 Cambridge Crystallographic Data Centre
#                                CCDC 
#
#######################################################################
#
# If this CIF has been generated from an entry in the Cambridge 
# Structural Database, then it will include bibliographic, chemical, 
# crystal, experimental, refinement or atomic coordinate data resulting 
# from the CCDC's data processing and validation procedures.
#
#######################################################################

data_CABMUO
_symmetry_cell_setting           triclinic
_symmetry_space_group_name_H-M   'P -1'
_symmetry_Int_Tables_number      2
_space_group_name_Hall           '-P 1'
loop_
_symmetry_equiv_pos_site_id
_symmetry_equiv_pos_as_xyz
1 x,y,z
2 -x,-y,-z
_cell_length_a                   8.3994(8)
_cell_length_b                   9.7788(10)
_cell_length_c                   15.1818(15)
_cell_angle_alpha                71.533(2)
_cell_angle_beta                 77.397(2)
_cell_angle_gamma                67.014(2)
_cell_volume                     1082.46
loop_
_atom_site_label
_atom_site_type_symbol
_atom_site_fract_x
_atom_site_fract_y
_atom_site_fract_z
Ag1 Ag 0.0000 1.0000 -1.0000
Ag2 Ag -0.5000 0.0000 0.0000
S1 S -0.5326(3) 0.7873(2) -0.54984(15)
S2 S -0.4446(3) 0.6918(2) -0.34526(15)
N1 N -0.2809(9) 0.5281(7) -0.5701(4)
N2 N -0.1832(9) 0.4538(8) -0.3902(4)
N3 N -0.1667(9) 0.9172(7) -0.8812(4)
N4 N -0.4384(11) 0.2029(8) -0.0688(5)
C1 C -0.0949(10) 0.3597(9) -0.4488(6)
C2 C -0.1451(11) 0.3937(9) -0.5375(6)
C3 C -0.4051(10) 0.8233(8) -0.7379(5)
C4 C 0.0418(11) 0.2250(9) -0.4208(6)
H1 H 0.0785 0.2019 -0.3627
C5 C -0.2857(11) 1.0121(9) -0.8336(6)
H2 H -0.2899 1.1133 -0.8493
C6 C -0.3675(11) 0.4631(9) -0.1790(5)
C7 C -0.3599(10) 0.6145(8) -0.5135(6)
C8 C -0.3157(10) 0.5743(9) -0.4194(5)
C9 C -0.2793(10) 0.7227(9) -0.7866(5)
H3 H -0.2724 0.6207 -0.7712
C10 C -0.0580(11) 0.2926(9) -0.5963(6)
H4 H -0.0901 0.3150 -0.6555
C11 C 0.0743(13) 0.1618(10) -0.5628(7)
H5 H 0.1337 0.0940 -0.6001
C12 C -0.5396(11) 0.7758(10) -0.6652(5)
H6 H -0.5242 0.6709 -0.6621
H7 H -0.6539 0.8407 -0.6847
C13 C -0.4008(11) 0.9694(9) -0.7635(6)
H8 H -0.4789 1.0408 -0.7319
C14 C -0.2581(12) 0.3150(10) -0.1818(6)
H9 H -0.1548 0.3008 -0.2214
C15 C -0.1662(10) 0.7721(10) -0.8568(5)
H10 H -0.0856 0.7028 -0.8890
C16 C 0.1225(13) 0.1273(10) -0.4739(8)
H11 H 0.2112 0.0360 -0.4517
C17 C -0.2974(14) 0.1943(11) -0.1297(7)
H12 H -0.2223 0.0976 -0.1358
C18 C -0.3257(13) 0.6028(9) -0.2440(6)
H13 H -0.2021 0.5714 -0.2647
H14 H -0.3520 0.6783 -0.2092
C19 C -0.5133(12) 0.4742(11) -0.1166(6)
H15 H -0.5921 0.5702 -0.1113
C20 C -0.5429(13) 0.3430(12) -0.0618(6)
H16 H -0.6403 0.3524 -0.0178
S1A S 0.5326(3) 1.2127(2) -1.45016(15)
S2A S 0.4446(3) 1.3082(2) -1.65474(15)
N1A N 0.2809(9) 1.4719(7) -1.4299(4)
N2A N 0.1832(9) 1.5462(8) -1.6098(4)
N3A N 0.1667(9) 1.0828(7) -1.1188(4)
N4A N 0.4384(11) 1.7971(8) -1.9312(5)
C1A C 0.0949(10) 1.6403(9) -1.5512(6)
C2A C 0.1451(11) 1.6063(9) -1.4625(6)
C3A C 0.4051(10) 1.1767(8) -1.2621(5)
C4A C -0.0418(11) 1.7750(9) -1.5792(6)
H1A H -0.0785 1.7981 -1.6373
C5A C 0.2857(11) 0.9879(9) -1.1664(6)
H2A H 0.2899 0.8867 -1.1507
C6A C 0.3675(11) 1.5369(9) -1.8210(5)
C7A C 0.3599(10) 1.3855(8) -1.4865(6)
C8A C 0.3157(10) 1.4257(9) -1.5806(5)
C9A C 0.2793(10) 1.2773(9) -1.2134(5)
H3A H 0.2724 1.3793 -1.2288
C10A C 0.0580(11) 1.7074(9) -1.4037(6)
H4A H 0.0901 1.6850 -1.3445
C11A C -0.0743(13) 1.8382(10) -1.4372(7)
H5A H -0.1337 1.9060 -1.3999
C12A C 0.5396(11) 1.2242(10) -1.3348(5)
H6A H 0.5242 1.3291 -1.3379
H7A H 0.6539 1.1593 -1.3153
C13A C 0.4008(11) 1.0306(9) -1.2365(6)
H8A H 0.4789 0.9592 -1.2681
C14A C 0.2581(12) 1.6850(10) -1.8182(6)
H9A H 0.1548 1.6992 -1.7786
C15A C 0.1662(10) 1.2279(10) -1.1432(5)
H10A H 0.0856 1.2972 -1.1110
C16A C -0.1225(13) 1.8727(10) -1.5261(8)
H11A H -0.2112 1.9640 -1.5483
C17A C 0.2974(14) 1.8057(11) -1.8703(7)
H12A H 0.2223 1.9024 -1.8642
C18A C 0.3257(13) 1.3972(9) -1.7560(6)
H13A H 0.2021 1.4286 -1.7353
H14A H 0.3520 1.3217 -1.7908
C19A C 0.5133(12) 1.5258(11) -1.8834(6)
H15A H 0.5921 1.4298 -1.8887
C20A C 0.5429(13) 1.6570(12) -1.9382(6)
H16A H 0.6403 1.6476 -1.9822
N4A_2 N -0.5616(11) -0.2029(8) 0.0688(5)
Ag2_2 Ag 0.5000 2.0000 -2.0000
Cl1 Cl -0.0350(4) -0.2492(3) -0.13660(19)
O1 O 0.0619(13) -0.2590(10) -0.0661(6)
O2 O 0.0094(14) -0.3934(9) -0.1486(7)
O3 O -0.0022(19) -0.1446(13) -0.2161(7)
O4 O -0.2056(12) -0.1952(11) -0.1034(9)
loop_
_geom_bond_atom_site_label_1
_geom_bond_atom_site_label_2
_geom_bond_site_symmetry_1
_geom_bond_site_symmetry_2
Ag1 N3 1_555 1_555
Ag2 N4 1_555 1_555
S1 C7 1_555 1_555
S2 C8 1_555 1_555
N1 C2 1_555 1_555
N2 C1 1_555 1_555
N3 C5 1_555 1_555
N4 C17 1_555 1_555
C1 C2 1_555 1_555
C2 C10 1_555 1_555
C3 C9 1_555 1_555
C4 C1 1_555 1_555
H1 C4 1_555 1_555
C5 H2 1_555 1_555
C6 C14 1_555 1_555
C7 N1 1_555 1_555
C8 N2 1_555 1_555
C9 H3 1_555 1_555
C10 H4 1_555 1_555
C11 C10 1_555 1_555
H5 C11 1_555 1_555
C12 S1 1_555 1_555
H6 C12 1_555 1_555
H7 C12 1_555 1_555
C13 C3 1_555 1_555
H8 C13 1_555 1_555
C14 H9 1_555 1_555
C15 N3 1_555 1_555
H10 C15 1_555 1_555
C16 C4 1_555 1_555
H11 C16 1_555 1_555
C17 C14 1_555 1_555
H12 C17 1_555 1_555
C18 S2 1_555 1_555
H13 C18 1_555 1_555
H14 C18 1_555 1_555
C19 C6 1_555 1_555
H15 C19 1_555 1_555
C20 N4 1_555 1_555
H16 C20 1_555 1_555
Cl1 O1 1_555 1_555
O2 Cl1 1_555 1_555
O3 Cl1 1_555 1_555
O4 Cl1 1_555 1_555
S1A C7A 1_555 1_555
S2A C8A 1_555 1_555
N1A C2A 1_555 1_555
N2A C1A 1_555 1_555
N3A Ag1 1_555 1_555
N4A C17A 1_555 1_555
C1A C2A 1_555 1_555
C2A C10A 1_555 1_555
C3A C9A 1_555 1_555
C4A C1A 1_555 1_555
H1A C4A 1_555 1_555
C5A N3A 1_555 1_555
H2A C5A 1_555 1_555
C6A C14A 1_555 1_555
C7A N1A 1_555 1_555
C8A N2A 1_555 1_555
C9A H3A 1_555 1_555
C10A H4A 1_555 1_555
C11A C10A 1_555 1_555
H5A C11A 1_555 1_555
C12A S1A 1_555 1_555
H6A C12A 1_555 1_555
H7A C12A 1_555 1_555
C13A C3A 1_555 1_555
H8A C13A 1_555 1_555
C14A H9A 1_555 1_555
C15A N3A 1_555 1_555
H10A C15A 1_555 1_555
C16A C4A 1_555 1_555
H11A C16A 1_555 1_555
C17A C14A 1_555 1_555
H12A C17A 1_555 1_555
C18A S2A 1_555 1_555
H13A C18A 1_555 1_555
H14A C18A 1_555 1_555
C19A C6A 1_555 1_555
H15A C19A 1_555 1_555
C20A N4A 1_555 1_555
H16A C20A 1_555 1_555
N4A_2 Ag2 1_555 1_555
Ag2_2 N4A 1_555 1_555
C3 C12 1_555 1_555
C5 C13 1_555 1_555
C6 C18 1_555 1_555
C7 C8 1_555 1_555
C9 C15 1_555 1_555
C11 C16 1_555 1_555
C19 C20 1_555 1_555
C3A C12A 1_555 1_555
C5A C13A 1_555 1_555
C6A C18A 1_555 1_555
C7A C8A 1_555 1_555
C9A C15A 1_555 1_555
C11A C16A 1_555 1_555
C19A C20A 1_555 1_555

#END
