
#######################################################################
#
#                 Cambridge Crystallographic Data Centre
#                                CCDC 
#
#######################################################################
#
# If this CIF has been generated from an entry in the Cambridge 
# Structural Database, then it will include bibliographic, chemical, 
# crystal, experimental, refinement or atomic coordinate data resulting 
# from the CCDC's data processing and validation procedures.
#
#######################################################################

data_CABNEZ
_symmetry_cell_setting           monoclinic
_symmetry_space_group_name_H-M   'C 2/c'
_symmetry_Int_Tables_number      15
_space_group_name_Hall           '-C 2yn'
loop_
_symmetry_equiv_pos_site_id
_symmetry_equiv_pos_as_xyz
1 x,y,z
2 -x,y,1/2-z
3 1/2+x,1/2+y,z
4 1/2-x,1/2+y,1/2-z
5 -x,-y,-z
6 x,-y,1/2+z
7 1/2-x,1/2-y,-z
8 1/2+x,1/2-y,1/2+z
_cell_length_a                   12.0929(6)
_cell_length_b                   12.1868(6)
_cell_length_c                   17.2851(9)
_cell_angle_alpha                90
_cell_angle_beta                 96.4060(10)
_cell_angle_gamma                90
_cell_volume                     2531.46
loop_
_atom_site_label
_atom_site_type_symbol
_atom_site_fract_x
_atom_site_fract_y
_atom_site_fract_z
Ni1 Ni 0.7107(1) 0.0371(1) 0.4725(1)
O1 O 0.7735(1) 0.1692(1) 0.4199(1)
O2 O 0.8056(1) 0.3479(1) 0.4414(1)
O3 O 0.5494(1) 0.0846(1) 0.4296(1)
O4 O 0.3790(1) 0.0742(1) 0.4686(1)
N1 N 0.7303(1) -0.0613(1) 0.3804(1)
N2 N 0.8376(1) -0.1912(1) 0.4574(1)
N3 N 0.8572(1) -0.0249(1) 0.5281(1)
C1 C 0.6847(2) -0.0290(2) 0.3088(1)
C2 C 0.6902(2) -0.0903(2) 0.2427(1)
C3 C 0.7452(2) -0.1917(2) 0.2498(1)
C4 C 0.7931(2) -0.2253(2) 0.3217(1)
C5 C 0.7859(2) -0.1565(2) 0.3864(1)
C6 C 0.8822(2) -0.1316(2) 0.5216(1)
C7 C 0.9543(2) -0.1864(2) 0.5780(1)
C8 C 1.0068(2) -0.1285(2) 0.6393(1)
C9 C 0.9882(2) -0.0155(2) 0.6436(1)
C10 C 0.9131(2) 0.0312(2) 0.5878(1)
C11 C 0.7734(2) 0.2551(2) 0.4600(1)
C12 C 0.4797(2) 0.0459(1) 0.4703(1)
H1 H 0.8432 -0.2629 0.4627
H2 H 0.6470 0.0395 0.3041
H3 H 0.6577 -0.0648 0.1934
H4 H 0.7493 -0.2368 0.2054
H5 H 0.8304 -0.2939 0.3277
H6 H 0.9666 -0.2630 0.5738
H7 H 1.0551 -0.1645 0.6784
H8 H 1.0264 0.0276 0.6838
H9 H 0.8994 0.1077 0.5913
C11F C 0.7266(2) 0.2449(2) 0.5400(1)
O1F O 0.7265(1) 0.3308(1) 0.5801(1)
O2F O 0.6944(1) 0.1521(1) 0.5586(1)
C12D C 0.5203(2) -0.0459(1) 0.5297(1)
O3D O 0.4506(1) -0.0846(1) 0.5704(1)
O4D O 0.6210(1) -0.0742(1) 0.5314(1)
Ni1F Ni 0.7893(1) 0.4629(1) 0.5275(1)
N1F N 0.7697(1) 0.5613(1) 0.6196(1)
N2F N 0.6624(1) 0.6912(1) 0.5426(1)
N3F N 0.6428(1) 0.5249(1) 0.4719(1)
C1F C 0.8153(2) 0.5290(2) 0.6912(1)
C2F C 0.8098(2) 0.5903(2) 0.7573(1)
C3F C 0.7548(2) 0.6917(2) 0.7502(1)
C4F C 0.7069(2) 0.7253(2) 0.6783(1)
C5F C 0.7141(2) 0.6565(2) 0.6136(1)
C6F C 0.6178(2) 0.6316(2) 0.4784(1)
C7F C 0.5457(2) 0.6864(2) 0.4220(1)
C8F C 0.4932(2) 0.6285(2) 0.3607(1)
C9F C 0.5118(2) 0.5155(2) 0.3564(1)
C10F C 0.5869(2) 0.4688(2) 0.4122(1)
H1F H 0.6568 0.7629 0.5373
H2F H 0.8530 0.4605 0.6959
H3F H 0.8423 0.5648 0.8066
H4F H 0.7507 0.7368 0.7946
H5F H 0.6696 0.7939 0.6723
H6F H 0.5334 0.7630 0.4262
H7F H 0.4449 0.6645 0.3216
H8F H 0.4736 0.4724 0.3162
H9F H 0.6006 0.3923 0.4087
Ni1D Ni 0.2893(1) -0.0371(1) 0.5275(1)
O3F O 0.9506(1) 0.4154(1) 0.5704(1)
O4B O 0.8790(1) 0.5742(1) 0.4686(1)
loop_
_geom_bond_atom_site_label_1
_geom_bond_atom_site_label_2
_geom_bond_site_symmetry_1
_geom_bond_site_symmetry_2
Ni1 O1 1_555 1_555
O1 C11 1_555 1_555
O2 C11 1_555 1_555
O3 Ni1 1_555 1_555
O4 C12 1_555 1_555
N1 Ni1 1_555 1_555
N2 C5 1_555 1_555
N3 Ni1 1_555 1_555
C1 N1 1_555 1_555
C2 C1 1_555 1_555
C3 C2 1_555 1_555
C4 C3 1_555 1_555
C5 N1 1_555 1_555
C6 N2 1_555 1_555
C7 C6 1_555 1_555
C8 C7 1_555 1_555
C9 C8 1_555 1_555
C10 N3 1_555 1_555
C11 C11F 1_555 1_555
C12 O3 1_555 1_555
H1 N2 1_555 1_555
H2 C1 1_555 1_555
H3 C2 1_555 1_555
H4 C3 1_555 1_555
H5 C4 1_555 1_555
H6 C7 1_555 1_555
H7 C8 1_555 1_555
H8 C9 1_555 1_555
H9 C10 1_555 1_555
C11F O1F 1_555 1_555
O1F Ni1F 1_555 1_555
O2F Ni1 1_555 1_555
C12D C12 1_555 1_555
O3D C12D 1_555 1_555
O4D Ni1 1_555 1_555
Ni1F O2 1_555 1_555
N1F Ni1F 1_555 1_555
N2F C5F 1_555 1_555
N3F Ni1F 1_555 1_555
C1F N1F 1_555 1_555
C2F C1F 1_555 1_555
C3F C2F 1_555 1_555
C4F C3F 1_555 1_555
C5F N1F 1_555 1_555
C6F N2F 1_555 1_555
C7F C6F 1_555 1_555
C8F C7F 1_555 1_555
C9F C8F 1_555 1_555
C10F N3F 1_555 1_555
H1F N2F 1_555 1_555
H2F C1F 1_555 1_555
H3F C2F 1_555 1_555
H4F C3F 1_555 1_555
H5F C4F 1_555 1_555
H6F C7F 1_555 1_555
H7F C8F 1_555 1_555
H8F C9F 1_555 1_555
H9F C10F 1_555 1_555
Ni1D O4 1_555 1_555
O3F Ni1F 1_555 1_555
O4B Ni1F 1_555 1_555
N3 C6 1_555 1_555
C4 C5 1_555 1_555
C9 C10 1_555 1_555
C11F O2F 1_555 1_555
C12D O4D 1_555 1_555
O3D Ni1D 1_555 1_555
N3F C6F 1_555 1_555
C4F C5F 1_555 1_555
C9F C10F 1_555 1_555

#END
