
#######################################################################
#
#                 Cambridge Crystallographic Data Centre
#                                CCDC 
#
#######################################################################
#
# If this CIF has been generated from an entry in the Cambridge 
# Structural Database, then it will include bibliographic, chemical, 
# crystal, experimental, refinement or atomic coordinate data resulting 
# from the CCDC's data processing and validation procedures.
#
#######################################################################

data_CABWOT
_symmetry_cell_setting           triclinic
_symmetry_space_group_name_H-M   'P -1'
_symmetry_Int_Tables_number      2
_space_group_name_Hall           '-P 1'
loop_
_symmetry_equiv_pos_site_id
_symmetry_equiv_pos_as_xyz
1 x,y,z
2 -x,-y,-z
_cell_length_a                   10.469(2)
_cell_length_b                   10.794(2)
_cell_length_c                   11.685(4)
_cell_angle_alpha                90.156(17)
_cell_angle_beta                 99.50(2)
_cell_angle_gamma                94.365(18)
_cell_volume                     1298.39
loop_
_atom_site_label
_atom_site_type_symbol
_atom_site_fract_x
_atom_site_fract_y
_atom_site_fract_z
C1 C 0.7565(5) 0.4851(5) 0.9599(6)
C2 C 0.5552(6) 0.4361(5) 0.7926(5)
C3 C 0.7946(6) 0.4379(6) 0.7469(5)
C4 C 0.6916(5) -0.1326(5) 0.7649(4)
C5 C 0.9728(5) -0.2718(5) 0.9000(5)
H1 H 1.0184 -0.3414 0.9278
C6 C 0.9296(5) -0.0799(5) 0.8590(4)
H2 H 0.9353 0.0079 0.8517
C7 C 1.0253(6) -0.1483(5) 0.9104(5)
H3 H 1.1104 -0.1187 0.9460
C8 C 0.6216(5) -0.3587(6) 0.5411(5)
H4 H 0.6133 -0.4419 0.5126
C9 C 0.6213(5) -0.1566(6) 0.5458(5)
H5 H 0.6132 -0.0721 0.5254
C10 C 0.5986(6) -0.2563(6) 0.4717(5)
H6 H 0.5724 -0.2558 0.3899
C11 C 0.4960(5) -0.3030(5) 0.9381(4)
H7 H 0.4674 -0.3775 0.9724
C12 C 0.5118(5) -0.1077(5) 0.8880(4)
H8 H 0.4989 -0.0219 0.8781
C13 C 0.4462(5) -0.1882(5) 0.9490(5)
H9 H 0.3794 -0.1704 0.9912
C14 C 0.9511(8) 0.2989(7) 0.4113(6)
H10 H 0.9799 0.2483 0.3509
H11 H 1.0281 0.3292 0.4681
C15 C 0.8809(10) 0.4050(8) 0.3582(8)
H12 H 0.8873 0.4750 0.4144
H13 H 0.9156 0.4346 0.2885
C16 C 0.7459(10) 0.3513(10) 0.3275(9)
H14 H 0.7301 0.3160 0.2477
H15 H 0.6843 0.4156 0.3322
C17 C 0.7303(7) 0.2529(8) 0.4127(6)
H16 H 0.6799 0.2812 0.4712
H17 H 0.6839 0.1771 0.3734
C18 C 1.1488(7) 0.2551(7) 0.7806(6)
H18 H 1.1000 0.3022 0.8295
H19 H 1.2093 0.3139 0.7471
C19 C 1.2195(8) 0.1598(8) 0.8486(7)
H20 H 1.1683 0.1214 0.9051
H21 H 1.3044 0.1951 0.8905
C20 C 1.2369(7) 0.0660(8) 0.7559(7)
H22 H 1.3200 0.0853 0.7274
H23 H 1.2353 -0.0194 0.7865
C21 C 1.1226(6) 0.0797(7) 0.6604(6)
H24 H 1.1525 0.0917 0.5848
H25 H 1.0613 0.0047 0.6547
Li1 Li 0.8852(9) 0.2107(9) 0.6339(8)
Mo1 Mo 0.70320(5) 0.55967(5) 0.81221(4)
N1 N 0.8498(4) -0.2783(4) 0.8456(4)
N2 N 0.8233(4) -0.1589(4) 0.8194(4)
N3 N 0.6566(4) -0.3268(4) 0.6521(4)
N4 N 0.6578(4) -0.2003(4) 0.6542(3)
N5 N 0.5893(4) -0.2938(4) 0.8728(4)
N6 N 0.6003(4) -0.1714(4) 0.8426(3)
O1 O 0.7908(4) 0.4412(4) 1.0505(4)
O2 O 0.4687(4) 0.3613(4) 0.7859(4)
O3 O 0.8469(4) 0.3581(4) 0.7060(4)
O4 O 0.7215(4) 0.0907(3) 0.8561(3)
O5 O 0.7808(4) 0.0633(3) 0.6657(3)
O6 O 0.5531(3) 0.0496(3) 0.6875(3)
O7 O 0.8594(4) 0.2275(4) 0.4675(3)
O8 O 1.0615(4) 0.1859(4) 0.6904(4)
S1 S 0.68505(14) 0.03897(13) 0.74128(12)
Mo1_2 Mo 0.70320(5) -0.44033(5) 0.81221(4)
N1_2 N 0.8498(4) 0.7217(4) 0.8456(4)
N3_2 N 0.6566(4) 0.6732(4) 0.6521(4)
N5_2 N 0.5893(4) 0.7062(4) 0.8728(4)
loop_
_geom_bond_atom_site_label_1
_geom_bond_atom_site_label_2
_geom_bond_site_symmetry_1
_geom_bond_site_symmetry_2
C1 Mo1 1_555 1_555
C2 Mo1 1_555 1_555
C3 Mo1 1_555 1_555
C4 N2 1_555 1_555
C5 H1 1_555 1_555
C6 H2 1_555 1_555
C7 C5 1_555 1_555
H3 C7 1_555 1_555
C8 H4 1_555 1_555
C9 H5 1_555 1_555
C10 C8 1_555 1_555
H6 C10 1_555 1_555
C11 H7 1_555 1_555
C12 H8 1_555 1_555
C13 C11 1_555 1_555
H9 C13 1_555 1_555
C14 H10 1_555 1_555
H11 C14 1_555 1_555
C15 C14 1_555 1_555
H12 C15 1_555 1_555
H13 C15 1_555 1_555
C16 C15 1_555 1_555
H14 C16 1_555 1_555
H15 C16 1_555 1_555
C17 C16 1_555 1_555
H16 C17 1_555 1_555
H17 C17 1_555 1_555
C18 H18 1_555 1_555
H19 C18 1_555 1_555
C19 C18 1_555 1_555
H20 C19 1_555 1_555
H21 C19 1_555 1_555
C20 C19 1_555 1_555
H22 C20 1_555 1_555
H23 C20 1_555 1_555
C21 C20 1_555 1_555
H24 C21 1_555 1_555
H25 C21 1_555 1_555
Li1 O3 1_555 1_555
Mo1 N1_2 1_555 1_555
N1 C5 1_555 1_555
N2 C6 1_555 1_555
N3 C8 1_555 1_555
N4 C4 1_555 1_555
N5 C11 1_555 1_555
N6 C4 1_555 1_555
O1 C1 1_555 1_555
O2 C2 1_555 1_555
O3 C3 1_555 1_555
O4 S1 1_555 1_555
O5 Li1 1_555 1_555
O6 S1 1_555 1_555
O7 C14 1_555 1_555
O8 C18 1_555 1_555
S1 C4 1_555 1_555
Mo1_2 N1 1_555 1_555
N3_2 Mo1 1_555 1_555
N5_2 Mo1 1_555 1_555
C6 C7 1_555 1_555
C9 C10 1_555 1_555
C9 N4 1_555 1_555
C12 C13 1_555 1_555
C12 N6 1_555 1_555
C17 O7 1_555 1_555
C21 O8 1_555 1_555
Li1 O7 1_555 1_555
Li1 O8 1_555 1_555
N1 N2 1_555 1_555
N3 N4 1_555 1_555
N3 Mo1_2 1_555 1_555
N5 N6 1_555 1_555
N5 Mo1_2 1_555 1_555
O5 S1 1_555 1_555

#END
