
#######################################################################
#
#                 Cambridge Crystallographic Data Centre
#                                CCDC 
#
#######################################################################
#
# If this CIF has been generated from an entry in the Cambridge 
# Structural Database, then it will include bibliographic, chemical, 
# crystal, experimental, refinement or atomic coordinate data resulting 
# from the CCDC's data processing and validation procedures.
#
#######################################################################

data_CACBOZ
_symmetry_cell_setting           orthorhombic
_symmetry_space_group_name_H-M   'P c c n'
_symmetry_Int_Tables_number      56
_space_group_name_Hall           '-P 2ab 2ac'
loop_
_symmetry_equiv_pos_site_id
_symmetry_equiv_pos_as_xyz
1 x,y,z
2 1/2-x,1/2-y,z
3 -x,1/2+y,1/2-z
4 1/2+x,-y,1/2-z
5 -x,-y,-z
6 1/2+x,1/2+y,-z
7 x,1/2-y,1/2+z
8 1/2-x,y,1/2+z
_cell_length_a                   9.8228(3)
_cell_length_b                   10.1176(4)
_cell_length_c                   22.2471(6)
_cell_angle_alpha                90
_cell_angle_beta                 90
_cell_angle_gamma                90
_cell_volume                     2210.99
loop_
_atom_site_label
_atom_site_type_symbol
_atom_site_fract_x
_atom_site_fract_y
_atom_site_fract_z
Cu1 Cu 0.2500 0.2500 0.183559(14)
N1 N 0.2500 0.2500 0.09307(10)
N2 N 0.2500 0.2500 -0.22552(10)
O1 O 0.07443(12) 0.15250(14) 0.18020(6)
H1 H 0.0221 0.1820 0.2055
H2 H 0.0825 0.0721 0.1825
O2 O 0.10601(14) 0.44089(15) 0.18741(6)
H3 H 0.1196 0.5194 0.1944
H4 H 0.0494 0.4090 0.2103
C1 C 0.2080(3) 0.3537(3) 0.06190(10)
H5 H 0.1780 0.4278 0.0828
C2 C 0.2065(3) 0.3575(3) -0.00006(10)
H6 H 0.1759 0.4330 -0.0197
C3 C 0.2500 0.2500 -0.03324(12)
C4 C 0.2500 0.2500 -0.09973(12)
C5 C 0.2213(2) 0.3625(2) -0.13244(9)
H7 H 0.2009 0.4409 -0.1126
C6 C 0.2226(2) 0.3594(2) -0.19439(9)
H8 H 0.2037 0.4369 -0.2153
Cu1F Cu 0.2500 0.2500 -0.316441(14)
N2F N 0.2500 0.2500 0.27448(10)
O1A O 0.42557(12) 0.34750(14) 0.18020(6)
H1A H 0.4779 0.3180 0.2055
H2A H 0.4175 0.4279 0.1825
O2A O 0.39399(14) 0.05911(15) 0.18741(6)
H3A H 0.3804 -0.0194 0.1944
H4A H 0.4506 0.0910 0.2103
C1A C 0.2920(3) 0.1463(3) 0.06190(10)
H5A H 0.3220 0.0722 0.0828
C2A C 0.2935(3) 0.1425(3) -0.00006(10)
H6A H 0.3241 0.0670 -0.0197
C5A C 0.2787(2) 0.1375(2) -0.13244(9)
H7A H 0.2991 0.0591 -0.1126
C6A C 0.2774(2) 0.1406(2) -0.19439(9)
H8A H 0.2963 0.0631 -0.2153
O3 O 0.94576(16) 0.09553(17) 0.78842(7)
O4 O 0.89521(15) 0.30362(16) 0.76740(7)
C7 C 0.8902(2) 0.2032(2) 0.80025(10)
C8 C 0.8152(2) 0.2194(2) 0.85900(9)
C9 C 0.8763(2) 0.1889(2) 0.91255(10)
H9 H 0.9608 0.1476 0.9122
C10 C 0.8144(2) 0.2185(2) 0.96824(10)
C11 C 0.8762(3) 0.1884(3) 1.02420(11)
H10 H 0.9606 0.1468 1.0250
C12 C 0.8134(3) 0.2199(3) 1.07668(11)
H11 H 0.8560 0.2008 1.1130
O3A O 0.55424(16) 0.40447(17) 0.78842(7)
O4A O 0.60479(15) 0.19638(16) 0.76740(7)
C7A C 0.6098(2) 0.2968(2) 0.80025(10)
C8A C 0.6848(2) 0.2806(2) 0.85900(9)
C9A C 0.6237(2) 0.3111(2) 0.91255(10)
H9A H 0.5392 0.3524 0.9122
C10A C 0.6856(2) 0.2815(2) 0.96824(10)
C11A C 0.6238(3) 0.3116(3) 1.02420(11)
H10A H 0.5394 0.3532 1.0250
C12A C 0.6866(3) 0.2801(3) 1.07668(11)
H11A H 0.6440 0.2992 1.1130
loop_
_geom_bond_atom_site_label_1
_geom_bond_atom_site_label_2
_geom_bond_site_symmetry_1
_geom_bond_site_symmetry_2
Cu1 N1 1_555 1_555
N1 C1 1_555 1_555
N2 C6 1_555 1_555
O1 Cu1 1_555 1_555
H1 O1 1_555 1_555
H2 O1 1_555 1_555
O2 Cu1 1_555 1_555
H3 O2 1_555 1_555
H4 O2 1_555 1_555
C1 H5 1_555 1_555
C2 C1 1_555 1_555
H6 C2 1_555 1_555
C3 C2 1_555 1_555
C4 C3 1_555 1_555
C5 C4 1_555 1_555
H7 C5 1_555 1_555
C6 C5 1_555 1_555
H8 C6 1_555 1_555
O3 C7 1_555 1_555
O4 C7 1_555 1_555
C7 C8 1_555 1_555
C8 C9 1_555 1_555
C9 H9 1_555 1_555
C10 C9 1_555 1_555
C11 C10 1_555 1_555
H10 C11 1_555 1_555
C12 C11 1_555 1_555
H11 C12 1_555 1_555
Cu1F N2 1_555 1_555
N2F Cu1 1_555 1_555
O1A Cu1 1_555 1_555
H1A O1A 1_555 1_555
H2A O1A 1_555 1_555
O2A Cu1 1_555 1_555
H3A O2A 1_555 1_555
H4A O2A 1_555 1_555
C1A N1 1_555 1_555
H5A C1A 1_555 1_555
C2A C3 1_555 1_555
H6A C2A 1_555 1_555
C5A C4 1_555 1_555
H7A C5A 1_555 1_555
C6A N2 1_555 1_555
H8A C6A 1_555 1_555
O3A C7A 1_555 1_555
O4A C7A 1_555 1_555
C7A C8A 1_555 1_555
C8A C8 1_555 1_555
C9A C8A 1_555 1_555
H9A C9A 1_555 1_555
C10A C10 1_555 1_555
C11A C10A 1_555 1_555
H10A C11A 1_555 1_555
C12A C12 1_555 1_555
H11A C12A 1_555 1_555
C1A C2A 1_555 1_555
C5A C6A 1_555 1_555
C9A C10A 1_555 1_555
C11A C12A 1_555 1_555

#END
