
#######################################################################
#
#                 Cambridge Crystallographic Data Centre
#                                CCDC 
#
#######################################################################
#
# If this CIF has been generated from an entry in the Cambridge 
# Structural Database, then it will include bibliographic, chemical, 
# crystal, experimental, refinement or atomic coordinate data resulting 
# from the CCDC's data processing and validation procedures.
#
#######################################################################

data_CACCIU
_symmetry_cell_setting           triclinic
_symmetry_space_group_name_H-M   'P -1'
_symmetry_Int_Tables_number      2
_space_group_name_Hall           '-P 1'
loop_
_symmetry_equiv_pos_site_id
_symmetry_equiv_pos_as_xyz
1 x,y,z
2 -x,-y,-z
_cell_length_a                   6.9522(4)
_cell_length_b                   11.2534(6)
_cell_length_c                   11.4833(7)
_cell_angle_alpha                109.022(5)
_cell_angle_beta                 99.214(5)
_cell_angle_gamma                101.017(5)
_cell_volume                     809.396
loop_
_atom_site_label
_atom_site_type_symbol
_atom_site_fract_x
_atom_site_fract_y
_atom_site_fract_z
Cu1 Cu 0.26586(4) -0.19871(3) 0.15540(3)
S1 S 0.77010(8) -0.24862(6) 0.20413(6)
S2 S 1.15090(9) -0.18638(6) 0.40846(6)
O1 O 0.6405(2) -0.16943(15) 0.17389(18)
O2 O 1.1146(2) -0.32609(15) 0.37021(18)
O3 O 0.6562(2) -0.36772(16) 0.2093(2)
O4 O 1.2861(2) -0.13469(15) 0.33943(16)
O5 O 0.9094(2) -0.26838(18) 0.12274(18)
O6 O 0.2594(2) -0.37795(17) 0.15155(18)
O7 O 1.2150(3) -0.11352(17) 0.54201(18)
C1 C 0.2000(4) -0.2866(2) -0.2863(3)
H1 H 0.1875 -0.3003 -0.3719
N1 N 0.2570(3) 0.09081(18) 0.0229(2)
C2 C 0.9170(4) -0.1525(2) 0.3606(3)
H2 H 0.8354 -0.1625 0.4195
H3 H 0.9450 -0.0619 0.3690
C3 C 0.2868(4) 0.3078(2) 0.1947(3)
H4 H 0.2758 0.3556 0.1426
C4 C 0.2778(3) 0.1755(2) 0.1456(3)
N2 N 0.2356(3) -0.24860(17) -0.03232(19)
C5 C 0.2597(3) -0.0261(2) 0.0313(2)
C6 C 0.1973(4) -0.3885(2) -0.2442(3)
H5 H 0.1833 -0.4719 -0.3015
N3 N 0.2799(3) -0.02396(17) 0.1476(2)
C7 C 0.2215(3) -0.1636(2) -0.1989(3)
H6 H 0.2245 -0.0928 -0.2242
C8 C 0.3125(4) 0.3639(3) 0.3228(3)
H7 H 0.3168 0.4517 0.3583
C9 C 0.2937(3) 0.1029(2) 0.2244(2)
C10 C 0.2383(3) -0.1486(2) -0.0744(2)
C11 C 0.2151(3) -0.3669(2) -0.1186(3)
H8 H 0.2129 -0.4366 -0.0918
C12 C 0.3326(4) 0.2930(3) 0.4026(3)
H9 H 0.3514 0.3350 0.4895
C13 C 0.3250(4) 0.1623(2) 0.3544(3)
H10 H 0.3403 0.1157 0.4075
H11 H 0.378(2) -0.386(3) 0.160(3)
H12 H 0.204(3) -0.384(3) 0.211(2)
Cu1_2 Cu 1.26586(4) -0.19871(3) 0.15540(3)
O4_2 O 0.2861(2) -0.13469(15) 0.33943(16)
O5_2 O -0.0906(2) -0.26838(18) 0.12274(18)
loop_
_geom_bond_atom_site_label_1
_geom_bond_atom_site_label_2
_geom_bond_site_symmetry_1
_geom_bond_site_symmetry_2
Cu1 O1 1_555 1_555
S1 O1 1_555 1_555
S2 O2 1_555 1_555
O3 S1 1_555 1_555
O4 S2 1_555 1_555
O5 S1 1_555 1_555
O6 Cu1 1_555 1_555
O7 S2 1_555 1_555
C1 H1 1_555 1_555
N1 C4 1_555 1_555
C2 S1 1_555 1_555
H2 C2 1_555 1_555
H3 C2 1_555 1_555
C3 H4 1_555 1_555
C4 C3 1_555 1_555
N2 Cu1 1_555 1_555
C5 N1 1_555 1_555
C6 C1 1_555 1_555
H5 C6 1_555 1_555
N3 Cu1 1_555 1_555
C7 C1 1_555 1_555
H6 C7 1_555 1_555
C8 C3 1_555 1_555
H7 C8 1_555 1_555
C9 C4 1_555 1_555
C10 N2 1_555 1_555
C11 N2 1_555 1_555
H8 C11 1_555 1_555
C12 C8 1_555 1_555
H9 C12 1_555 1_555
C13 C9 1_555 1_555
H10 C13 1_555 1_555
H11 O6 1_555 1_555
H12 O6 1_555 1_555
Cu1_2 O4 1_555 1_555
O4_2 Cu1 1_555 1_555
O5_2 Cu1 1_555 1_555
S2 C2 1_555 1_555
O5 Cu1_2 1_555 1_555
C5 N3 1_555 1_555
C5 C10 1_555 1_555
C6 C11 1_555 1_555
N3 C9 1_555 1_555
C7 C10 1_555 1_555
C12 C13 1_555 1_555

#END
