
#######################################################################
#
#                 Cambridge Crystallographic Data Centre
#                                CCDC 
#
#######################################################################
#
# If this CIF has been generated from an entry in the Cambridge 
# Structural Database, then it will include bibliographic, chemical, 
# crystal, experimental, refinement or atomic coordinate data resulting 
# from the CCDC's data processing and validation procedures.
#
#######################################################################

data_CACDIV
_symmetry_cell_setting           monoclinic
_symmetry_space_group_name_H-M   'P 21/n'
_symmetry_Int_Tables_number      14
_space_group_name_Hall           '-P 2yn'
loop_
_symmetry_equiv_pos_site_id
_symmetry_equiv_pos_as_xyz
1 x,y,z
2 1/2-x,1/2+y,1/2-z
3 -x,-y,-z
4 1/2+x,1/2-y,1/2+z
_cell_length_a                   15.2340(10)
_cell_length_b                   25.5360(14)
_cell_length_c                   15.9150(8)
_cell_angle_alpha                90
_cell_angle_beta                 114.613(7)
_cell_angle_gamma                90
_cell_volume                     5628.66
loop_
_atom_site_label
_atom_site_type_symbol
_atom_site_fract_x
_atom_site_fract_y
_atom_site_fract_z
Ag1 Ag -0.03342(3) -0.01369(2) 0.08463(3)
Ag2 Ag 0.51417(4) -0.01294(3) 0.89304(3)
N1 N 0.1834(3) 0.07301(19) 0.2969(3)
N2 N 0.2954(3) 0.0636(2) 0.6651(3)
N3 N -0.1833(4) -0.15077(19) -0.0499(3)
C1 C -0.2485(4) -0.1144(2) -0.1067(3)
C2 C 0.1293(4) 0.1155(3) 0.2492(3)
N4 N -0.1190(3) -0.07122(19) -0.0030(3)
C3 C -0.2095(4) -0.0650(2) -0.0777(3)
N5 N 0.0561(3) 0.0395(2) 0.1815(3)
C4 C -0.2681(5) -0.0921(3) 0.1206(4)
N6 N -0.3323(4) -0.1327(2) 0.0799(3)
C5 C 0.2753(4) 0.0783(3) 0.3791(3)
H1 H 0.3138 0.1054 0.3679
H2 H 0.3107 0.0457 0.3893
N7 N -0.3997(4) -0.0600(3) 0.0033(3)
C6 C 0.2019(4) 0.0650(3) 0.5858(4)
H3 H 0.1738 0.0995 0.5819
H4 H 0.1593 0.0399 0.5954
C7 C 0.2077(4) 0.0527(3) 0.4935(3)
H5 H 0.2387 0.0190 0.4984
H6 H 0.1427 0.0500 0.4453
C8 C 0.0483(4) 0.0934(3) 0.1772(4)
C9 C 0.1370(4) 0.0287(2) 0.2545(3)
C10 C 0.3547(4) 0.1073(3) 0.7024(4)
C11 C -0.1082(4) -0.1221(3) 0.0105(4)
C12 C -0.0231(5) 0.1265(3) 0.1159(4)
H7 H -0.0781 0.1130 0.0683
C13 C 0.3395(4) 0.0214(3) 0.7142(4)
C14 C 0.1408(5) 0.1694(3) 0.2607(4)
H8 H 0.1945 0.1838 0.3085
C15 C 0.4354(5) 0.0882(3) 0.7760(4)
C16 C 0.2611(4) 0.0921(3) 0.4661(3)
H9 H 0.3240 0.0971 0.5168
H10 H 0.2268 0.1252 0.4559
N8 N 0.4237(4) 0.0351(3) 0.7823(3)
C17 C 0.3019(6) -0.0313(3) 0.6963(5)
H11 H 0.3466 -0.0547 0.7409
H12 H 0.2933 -0.0416 0.6353
H13 H 0.2410 -0.0326 0.7006
C18 C -0.2635(6) 0.0003(3) 0.0978(5)
H14 H -0.2911 0.0305 0.0648
C19 C -0.1980(5) -0.2062(3) -0.0548(5)
H15 H -0.1372 -0.2235 -0.0187
H16 H -0.2196 -0.2175 -0.1185
C20 C -0.0205(5) -0.1453(3) 0.0865(4)
H17 H -0.0262 -0.1828 0.0850
H18 H -0.0153 -0.1325 0.1451
H19 H 0.0361 -0.1355 0.0780
C21 C -0.4104(5) -0.1111(3) 0.0098(4)
C22 C 0.0706(6) 0.2001(3) 0.1997(5)
H20 H 0.0768 0.2362 0.2064
C23 C 0.3442(5) 0.1592(3) 0.6782(4)
H21 H 0.2897 0.1717 0.6287
C24 C 0.5091(5) 0.1211(4) 0.8276(4)
H22 H 0.5631 0.1086 0.8775
C25 C -0.3108(5) -0.0478(3) 0.0722(4)
C26 C -0.3159(6) -0.1880(3) 0.1091(5)
H23 H -0.3758 -0.2073 0.0791
H24 H -0.2963 -0.1901 0.1753
C27 C -0.2715(6) -0.2225(3) -0.0193(5)
H25 H -0.2855 -0.2595 -0.0321
H26 H -0.3309 -0.2033 -0.0527
C28 C 0.4183(6) 0.1919(3) 0.7310(5)
H27 H 0.4137 0.2276 0.7182
C29 C -0.0090(6) 0.1800(3) 0.1285(5)
H28 H -0.0545 0.2028 0.0878
C30 C -0.2385(6) -0.2131(4) 0.0848(5)
H29 H -0.2196 -0.2463 0.1170
H30 H -0.1820 -0.1906 0.1067
C31 C -0.1773(6) -0.0903(4) 0.1969(5)
H31 H -0.1479 -0.1203 0.2299
C32 C -0.4941(5) -0.1417(4) -0.0502(5)
H32 H -0.4847 -0.1777 -0.0317
H33 H -0.5018 -0.1387 -0.1131
H34 H -0.5510 -0.1286 -0.0454
C33 C 0.5008(6) 0.1722(4) 0.8036(5)
H35 H 0.5512 0.1950 0.8363
C34 C -0.1772(6) 0.0022(4) 0.1712(6)
H36 H -0.1458 0.0342 0.1890
C35 C -0.1349(6) -0.0418(5) 0.2198(5)
H37 H -0.0754 -0.0389 0.2702
C36 C -0.2574(4) -0.0203(3) -0.1205(4)
H38 H -0.2321 0.0128 -0.0999
C37 C 0.1709(5) -0.0243(3) 0.2836(4)
H39 H 0.2310 -0.0230 0.3374
H40 H 0.1800 -0.0421 0.2346
H41 H 0.1240 -0.0428 0.2979
C38 C -0.3848(4) -0.0765(3) -0.2246(4)
H42 H -0.4449 -0.0793 -0.2741
C39 C -0.3449(5) -0.0269(3) -0.1957(4)
H43 H -0.3782 0.0025 -0.2279
C40 C -0.3374(4) -0.1210(3) -0.1817(4)
H44 H -0.3632 -0.1541 -0.2015
Ag2_2 Ag -0.48583(4) -0.01294(3) -0.10696(3)
N7_2 N 0.6003(4) -0.0600(3) 1.0033(3)
N9 N -0.5208(4) -0.1371(2) 0.4127(4)
C41 C -0.5644(4) -0.0281(3) 0.5193(4)
H45 H -0.6090 -0.0470 0.5330
C42 C -0.5410(5) -0.1628(3) 0.5516(4)
H46 H -0.5920 -0.1393 0.5371
C43 C -0.5428(4) -0.0448(2) 0.4475(3)
C44 C -0.4962(5) -0.1663(3) 0.4952(4)
C45 C -0.5137(5) -0.1932(3) 0.6319(4)
C46 C -0.5867(5) -0.0938(3) 0.3913(4)
H47 H -0.6423 -0.1042 0.4024
H48 H -0.6094 -0.0856 0.3262
O1 O -0.6376(6) -0.1577(3) 0.6660(4)
C47 C -0.4781(4) -0.0155(3) 0.4287(4)
H49 H -0.4625 -0.0251 0.3802
C48 C -0.4170(5) -0.2015(3) 0.5187(5)
H50 H -0.3844 -0.2047 0.4809
O2 O -0.2670(5) -0.2716(3) 0.5654(5)
C49 C -0.4349(6) -0.2268(3) 0.6554(5)
H51 H -0.4138 -0.2464 0.7096
C50 C -0.3895(5) -0.2308(3) 0.5984(5)
O3 O -0.5409(5) -0.2159(3) 0.7629(4)
C51 C -0.5643(7) -0.1891(4) 0.6924(7)
O4 O -0.2841(5) -0.2976(3) 0.6902(5)
C52 C -0.3068(6) -0.2707(4) 0.6183(7)
N9B N -0.4792(4) 0.1371(2) 0.5873(4)
C41B C -0.4356(4) 0.0281(3) 0.4807(4)
H45B H -0.3910 0.0470 0.4670
C42B C -0.4590(5) 0.1628(3) 0.4484(4)
H46B H -0.4080 0.1393 0.4629
C43B C -0.4572(4) 0.0448(2) 0.5525(3)
C44B C -0.5038(5) 0.1663(3) 0.5048(4)
C45B C -0.4863(5) 0.1932(3) 0.3681(4)
C46B C -0.4133(5) 0.0938(3) 0.6087(4)
H47B H -0.3577 0.1042 0.5976
H48B H -0.3906 0.0856 0.6738
O1B O -0.3624(6) 0.1577(3) 0.3340(4)
C47B C -0.5219(4) 0.0155(3) 0.5713(4)
H49B H -0.5375 0.0251 0.6198
C48B C -0.5830(5) 0.2015(3) 0.4813(5)
H50B H -0.6156 0.2047 0.5191
O2B O -0.7330(5) 0.2716(3) 0.4346(5)
C49B C -0.5651(6) 0.2268(3) 0.3446(5)
H51B H -0.5862 0.2464 0.2904
C50B C -0.6105(5) 0.2308(3) 0.4016(5)
O3B O -0.4591(5) 0.2159(3) 0.2371(4)
C51B C -0.4357(7) 0.1891(4) 0.3076(7)
O4B O -0.7159(5) 0.2976(3) 0.3098(5)
C52B C -0.6932(6) 0.2707(4) 0.3817(7)
O5 O -0.7740(5) -0.1102(4) 0.5002(5)
H52 H -0.736(7) -0.086(3) 0.508(8)
H53 H -0.750(8) -0.137(3) 0.532(8)
O6 O -0.2197(6) -0.3588(3) 0.4755(6)
H54 H -0.277(3) -0.351(4) 0.462(7)
H55 H -0.185(6) -0.332(3) 0.482(9)
O7 O -0.2645(8) -0.3964(3) 0.6270(8)
H56 H -0.289(8) -0.395(5) 0.5688(17)
H57 H -0.216(6) -0.415(5) 0.645(7)
O8 O -0.1417(9) -0.2178(5) 0.5092(8)
O9 O -0.8310(8) -0.1577(5) 0.3271(7)
O10 O -0.7484(13) -0.1546(7) 0.7710(11)
O11 O -0.9520(10) -0.0514(9) 0.5191(19)
O12 O -0.5044(10) -0.3140(5) 0.8186(9)
O13 O -0.6717(10) -0.2435(6) 0.8342(9)
loop_
_geom_bond_atom_site_label_1
_geom_bond_atom_site_label_2
_geom_bond_site_symmetry_1
_geom_bond_site_symmetry_2
Ag1 N4 1_555 1_555
Ag2 N8 1_555 1_555
N1 C2 1_555 1_555
N2 C6 1_555 1_555
N3 C1 1_555 1_555
C1 C3 1_555 1_555
C2 C8 1_555 1_555
N4 C3 1_555 1_555
C3 C36 1_555 1_555
N5 Ag1 1_555 1_555
C4 N6 1_555 1_555
N6 C21 1_555 1_555
C5 N1 1_555 1_555
H1 C5 1_555 1_555
H2 C5 1_555 1_555
N7 C21 1_555 1_555
C6 H3 1_555 1_555
H4 C6 1_555 1_555
C7 C6 1_555 1_555
H5 C7 1_555 1_555
H6 C7 1_555 1_555
C8 N5 1_555 1_555
C9 N1 1_555 1_555
C10 N2 1_555 1_555
C11 N3 1_555 1_555
C12 C8 1_555 1_555
H7 C12 1_555 1_555
C13 N2 1_555 1_555
C14 C2 1_555 1_555
H8 C14 1_555 1_555
C15 C10 1_555 1_555
C16 C5 1_555 1_555
H9 C16 1_555 1_555
H10 C16 1_555 1_555
N8 C13 1_555 1_555
C17 C13 1_555 1_555
H11 C17 1_555 1_555
H12 C17 1_555 1_555
H13 C17 1_555 1_555
C18 H14 1_555 1_555
C19 N3 1_555 1_555
H15 C19 1_555 1_555
H16 C19 1_555 1_555
C20 C11 1_555 1_555
H17 C20 1_555 1_555
H18 C20 1_555 1_555
H19 C20 1_555 1_555
C21 C32 1_555 1_555
C22 C14 1_555 1_555
H20 C22 1_555 1_555
C23 C10 1_555 1_555
H21 C23 1_555 1_555
C24 C15 1_555 1_555
H22 C24 1_555 1_555
C25 C4 1_555 1_555
C26 N6 1_555 1_555
H23 C26 1_555 1_555
H24 C26 1_555 1_555
C27 C19 1_555 1_555
H25 C27 1_555 1_555
H26 C27 1_555 1_555
C28 C23 1_555 1_555
H27 C28 1_555 1_555
C29 C12 1_555 1_555
H28 C29 1_555 1_555
C30 C26 1_555 1_555
H29 C30 1_555 1_555
H30 C30 1_555 1_555
C31 C4 1_555 1_555
H31 C31 1_555 1_555
C32 H32 1_555 1_555
H33 C32 1_555 1_555
H34 C32 1_555 1_555
C33 C24 1_555 1_555
H35 C33 1_555 1_555
C34 C18 1_555 1_555
H36 C34 1_555 1_555
C35 C31 1_555 1_555
H37 C35 1_555 1_555
C36 H38 1_555 1_555
C37 C9 1_555 1_555
H39 C37 1_555 1_555
H40 C37 1_555 1_555
H41 C37 1_555 1_555
C38 H42 1_555 1_555
C39 C36 1_555 1_555
H43 C39 1_555 1_555
C40 C1 1_555 1_555
H44 C40 1_555 1_555
N9 C44 1_555 1_555
C41 H45 1_555 1_555
C42 H46 1_555 1_555
C43 C41 1_555 1_555
C44 C42 1_555 1_555
C45 C42 1_555 1_555
C46 N9 1_555 1_555
H47 C46 1_555 1_555
H48 C46 1_555 1_555
O1 C51 1_555 1_555
C47 C43 1_555 1_555
H49 C47 1_555 1_555
C48 C44 1_555 1_555
H50 C48 1_555 1_555
O2 C52 1_555 1_555
C49 C45 1_555 1_555
H51 C49 1_555 1_555
C50 C48 1_555 1_555
O3 C51 1_555 1_555
C51 C45 1_555 1_555
O4 C52 1_555 1_555
C52 C50 1_555 1_555
O5 H52 1_555 1_555
H53 O5 1_555 1_555
O6 H54 1_555 1_555
H55 O6 1_555 1_555
O7 H56 1_555 1_555
H57 O7 1_555 1_555
Ag2_2 N7 1_555 1_555
N7_2 Ag2 1_555 1_555
N9B C44B 1_555 1_555
C41B C47 1_555 1_555
H45B C41B 1_555 1_555
C42B H46B 1_555 1_555
C43B C41B 1_555 1_555
C44B C42B 1_555 1_555
C45B C42B 1_555 1_555
C46B N9B 1_555 1_555
H47B C46B 1_555 1_555
H48B C46B 1_555 1_555
O1B C51B 1_555 1_555
C47B C41 1_555 1_555
H49B C47B 1_555 1_555
C48B C44B 1_555 1_555
H50B C48B 1_555 1_555
O2B C52B 1_555 1_555
C49B C45B 1_555 1_555
H51B C49B 1_555 1_555
C50B C48B 1_555 1_555
O3B C51B 1_555 1_555
C51B C45B 1_555 1_555
O4B C52B 1_555 1_555
C52B C50B 1_555 1_555
N4 C11 1_555 1_555
N5 C9 1_555 1_555
N7 C25 1_555 1_555
C7 C16 1_555 1_555
C15 N8 1_555 1_555
C18 C25 1_555 1_555
C22 C29 1_555 1_555
C27 C30 1_555 1_555
C28 C33 1_555 1_555
C34 C35 1_555 1_555
C38 C39 1_555 1_555
C38 C40 1_555 1_555
C43 C46 1_555 1_555
C49 C50 1_555 1_555
C43B C46B 1_555 1_555
C43B C47B 1_555 1_555
C49B C50B 1_555 1_555

#END
