
#######################################################################
#
#                 Cambridge Crystallographic Data Centre
#                                CCDC 
#
#######################################################################
#
# If this CIF has been generated from an entry in the Cambridge 
# Structural Database, then it will include bibliographic, chemical, 
# crystal, experimental, refinement or atomic coordinate data resulting 
# from the CCDC's data processing and validation procedures.
#
#######################################################################

data_CACFIX
_symmetry_cell_setting           monoclinic
_symmetry_space_group_name_H-M   'C 2/c'
_symmetry_Int_Tables_number      15
_space_group_name_Hall           '-C 2yn'
loop_
_symmetry_equiv_pos_site_id
_symmetry_equiv_pos_as_xyz
1 x,y,z
2 -x,y,1/2-z
3 1/2+x,1/2+y,z
4 1/2-x,1/2+y,1/2-z
5 -x,-y,-z
6 x,-y,1/2+z
7 1/2-x,1/2-y,-z
8 1/2+x,1/2-y,1/2+z
_cell_length_a                   12.2479(13)
_cell_length_b                   13.3451(15)
_cell_length_c                   11.315(1)
_cell_angle_alpha                90
_cell_angle_beta                 99.191(1)
_cell_angle_gamma                90
_cell_volume                     1825.69
loop_
_atom_site_label
_atom_site_type_symbol
_atom_site_fract_x
_atom_site_fract_y
_atom_site_fract_z
Ca1 Ca 0.5000 0.41831(4) 0.2500
N1 N 0.72908(14) 0.12639(13) 0.28285(15)
H1 H 0.7497 0.0665 0.3037
N2 N 0.63320(14) 0.26695(12) 0.26856(15)
O1 O 0.90224(15) 0.06490(12) 0.16500(15)
O2 O 0.91599(13) 0.21744(11) 0.09085(14)
O3 O 0.81637(13) 0.37802(11) 0.08417(15)
H2 H 0.8518 0.3256 0.0898
O4 O 0.66867(12) 0.43947(10) 0.14791(13)
O5 O 0.56159(13) 0.39359(12) 0.46580(13)
H3 H 0.5834 0.4474 0.5022
H4 H 0.5232 0.3628 0.5106
C1 C 0.87176(19) 0.15243(16) 0.15212(19)
C2 C 0.77713(17) 0.18697(15) 0.20842(17)
C3 C 0.71717(16) 0.27400(14) 0.20086(17)
C4 C 0.73370(17) 0.36924(15) 0.14027(18)
C5 C 0.64369(17) 0.17623(15) 0.31828(18)
C6 C 0.57546(19) 0.13340(17) 0.4041(2)
H5 H 0.5497 0.0675 0.3763
H6 H 0.5110 0.1755 0.4047
C7 C 0.6371(2) 0.1245(2) 0.5306(2)
H7 H 0.7003 0.0818 0.5311
H8 H 0.5891 0.0964 0.5811
H9 H 0.6612 0.1897 0.5597
Ca1B Ca 1.0000 -0.08169(4) 0.2500
Ca1B_2 Ca 0.0000 -0.08169(4) 0.2500
N1A N 0.27092(14) 0.12639(13) 0.21715(15)
H1A H 0.2503 0.0665 0.1963
N2A N 0.36680(14) 0.26695(12) 0.23144(15)
O1B O 0.40224(15) 0.56490(12) 0.16500(15)
O1A O 0.09776(15) 0.06490(12) 0.33500(15)
O1C O 0.59776(15) 0.56490(12) 0.33500(15)
O2A O 0.08401(13) 0.21744(11) 0.40915(14)
O3A O 0.18363(13) 0.37802(11) 0.41583(15)
H2A H 0.1482 0.3256 0.4102
O4A O 0.33133(12) 0.43947(10) 0.35209(13)
O5A O 0.43841(13) 0.39359(12) 0.03420(13)
H3A H 0.4166 0.4474 -0.0022
H4A H 0.4768 0.3628 -0.0106
C1A C 0.12824(19) 0.15243(16) 0.34788(19)
C2A C 0.22287(17) 0.18697(15) 0.29158(17)
C3A C 0.28283(16) 0.27400(14) 0.29914(17)
C4A C 0.26630(17) 0.36924(15) 0.35973(18)
C5A C 0.35631(17) 0.17623(15) 0.18172(18)
C6A C 0.42454(19) 0.13340(17) 0.0959(2)
H5A H 0.4503 0.0675 0.1237
H6A H 0.4890 0.1755 0.0953
C7A C 0.3629(2) 0.1245(2) -0.0306(2)
H7A H 0.2997 0.0818 -0.0311
H8A H 0.4109 0.0964 -0.0811
H9A H 0.3388 0.1897 -0.0597
loop_
_geom_bond_atom_site_label_1
_geom_bond_atom_site_label_2
_geom_bond_site_symmetry_1
_geom_bond_site_symmetry_2
Ca1 N2 1_555 1_555
N1 H1 1_555 1_555
N2 C3 1_555 1_555
O1 C1 1_555 1_555
O2 C1 1_555 1_555
O3 H2 1_555 1_555
O4 Ca1 1_555 1_555
O5 Ca1 1_555 1_555
H3 O5 1_555 1_555
H4 O5 1_555 1_555
C1 C2 1_555 1_555
C2 N1 1_555 1_555
C3 C2 1_555 1_555
C4 O3 1_555 1_555
C5 N1 1_555 1_555
C6 C5 1_555 1_555
H5 C6 1_555 1_555
H6 C6 1_555 1_555
C7 C6 1_555 1_555
H7 C7 1_555 1_555
H8 C7 1_555 1_555
H9 C7 1_555 1_555
Ca1B O1 1_555 1_555
Ca1B_2 O1A 1_555 1_555
N1A H1A 1_555 1_555
N2A Ca1 1_555 1_555
O1B Ca1 1_555 1_555
O1A C1A 1_555 1_555
O1C Ca1 1_555 1_555
O2A C1A 1_555 1_555
O3A H2A 1_555 1_555
O4A Ca1 1_555 1_555
O5A Ca1 1_555 1_555
H3A O5A 1_555 1_555
H4A O5A 1_555 1_555
C1A C2A 1_555 1_555
C2A N1A 1_555 1_555
C3A N2A 1_555 1_555
C4A O3A 1_555 1_555
C5A N1A 1_555 1_555
C6A C5A 1_555 1_555
H5A C6A 1_555 1_555
H6A C6A 1_555 1_555
C7A C6A 1_555 1_555
H7A C7A 1_555 1_555
H8A C7A 1_555 1_555
H9A C7A 1_555 1_555
N2 C5 1_555 1_555
O4 C4 1_555 1_555
C3 C4 1_555 1_555
N2A C5A 1_555 1_555
O4A C4A 1_555 1_555
C2A C3A 1_555 1_555
C3A C4A 1_555 1_555

#END
