
#######################################################################
#
#                 Cambridge Crystallographic Data Centre
#                                CCDC 
#
#######################################################################
#
# If this CIF has been generated from an entry in the Cambridge 
# Structural Database, then it will include bibliographic, chemical, 
# crystal, experimental, refinement or atomic coordinate data resulting 
# from the CCDC's data processing and validation procedures.
#
#######################################################################

data_CACHUK
_symmetry_cell_setting           triclinic
_symmetry_space_group_name_H-M   'P -1'
_symmetry_Int_Tables_number      2
_space_group_name_Hall           '-P 1'
loop_
_symmetry_equiv_pos_site_id
_symmetry_equiv_pos_as_xyz
1 x,y,z
2 -x,-y,-z
_cell_length_a                   8.0747(4)
_cell_length_b                   8.8350(4)
_cell_length_c                   13.7011(7)
_cell_angle_alpha                79.959(1)
_cell_angle_beta                 84.275(1)
_cell_angle_gamma                80.583(1)
_cell_volume                     946.939
loop_
_atom_site_label
_atom_site_type_symbol
_atom_site_fract_x
_atom_site_fract_y
_atom_site_fract_z
Ni1 Ni 0.0000 0.5000 0.5000
Mo1 Mo 0.3456(1) 0.1833(1) 0.5745(1)
Mo2 Mo 0.1935(1) 0.8737(1) 0.4525(1)
O1 O 0.2223(3) 0.3624(3) 0.5365(2)
O2 O 0.5647(3) 0.2163(3) 0.5655(2)
O3 O 0.2824(4) 0.1174(3) 0.6953(2)
O4 O 0.3115(3) 0.0474(3) 0.4980(2)
O5 O 0.0000 1.0000 0.5000
O6 O 0.1103(3) 0.7023(3) 0.4624(2)
O7 O 0.1844(3) 0.9499(3) 0.3299(2)
C1 C 0.1478(5) 0.3299(4) 0.3364(3)
C2 C 0.2282(5) 0.3030(4) 0.2464(3)
C3 C 0.2137(5) 0.4220(4) 0.1646(3)
C4 C 0.1161(5) 0.5631(4) 0.1779(3)
C5 C 0.0472(5) 0.5824(4) 0.2736(3)
C6 C 0.3053(5) 0.3954(4) 0.0686(3)
C7 C 0.3552(5) 0.4583(4) -0.0972(3)
C8 C 0.5102(5) 0.2489(4) -0.0140(3)
C9 C 0.6458(5) 0.1157(4) -0.0130(3)
C10 C 0.7336(5) 0.0814(4) -0.1022(3)
C11 C 0.8579(5) -0.0469(5) -0.0977(3)
C12 C 0.8159(5) -0.1071(5) 0.0710(3)
C13 C 0.6888(5) 0.0187(4) 0.0750(3)
C14 C 0.3651(5) 0.6135(4) -0.3701(3)
C15 C 0.4002(5) 0.5197(4) -0.2818(3)
C16 C 0.3193(5) 0.5622(4) -0.1940(3)
C17 C 0.2088(5) 0.6993(5) -0.1997(3)
C18 C 0.1828(5) 0.7906(5) -0.2929(3)
N1 N 0.0625(4) 0.4684(3) 0.3519(2)
N2 N 0.4269(4) 0.2721(4) 0.0731(2)
N3 N 0.4764(4) 0.3384(3) -0.1015(2)
N4 N 0.2648(4) 0.4944(4) -0.0146(2)
N5 N 0.2597(4) 0.7493(3) -0.3775(2)
N6 N 0.9024(4) -0.1429(4) -0.0131(3)
H1 H 0.1540(40) 0.2520(40) 0.3920(30)
H2 H 0.3030(50) 0.2040(50) 0.2400(30)
H3 H 0.0960(50) 0.6490(50) 0.1270(30)
H4 H -0.0180(50) 0.6820(40) 0.2870(30)
H5 H 0.7060(50) 0.1430(40) -0.1650(30)
H6 H 0.9330(50) -0.0690(40) -0.1590(30)
H7 H 0.8560(60) -0.1760(50) 0.1320(30)
H8 H 0.6160(60) 0.0340(50) 0.1370(30)
H9 H 0.4220(60) 0.5950(50) -0.4220(30)
H10 H 0.4620(50) 0.4410(40) -0.2800(30)
H11 H 0.1520(50) 0.7240(50) -0.1450(30)
H12 H 0.1210(50) 0.8790(50) -0.3040(30)
O1A O -0.2223(3) 0.6376(3) 0.4635(2)
O6A O -0.1103(3) 0.2977(3) 0.5376(2)
C1A C -0.1478(5) 0.6701(4) 0.6636(3)
C2A C -0.2282(5) 0.6970(4) 0.7536(3)
C3A C -0.2137(5) 0.5780(4) 0.8354(3)
C4A C -0.1161(5) 0.4369(4) 0.8221(3)
C5A C -0.0472(5) 0.4176(4) 0.7264(3)
C6A C -0.3053(5) 0.6046(4) 0.9314(3)
C7A C -0.3552(5) 0.5417(4) 1.0972(3)
C8A C -0.5102(5) 0.7511(4) 1.0140(3)
C9A C -0.6458(5) 0.8843(4) 1.0130(3)
C10A C -0.7336(5) 0.9186(4) 1.1022(3)
C11A C -0.8579(5) 1.0469(5) 1.0977(3)
C12A C -0.8159(5) 1.1071(5) 0.9290(3)
C13A C -0.6888(5) 0.9813(4) 0.9250(3)
C14A C -0.3651(5) 0.3865(4) 1.3701(3)
C15A C -0.4002(5) 0.4803(4) 1.2818(3)
C16A C -0.3193(5) 0.4378(4) 1.1940(3)
C17A C -0.2088(5) 0.3007(5) 1.1997(3)
C18A C -0.1828(5) 0.2094(5) 1.2929(3)
N1A N -0.0625(4) 0.5316(3) 0.6481(2)
N2A N -0.4269(4) 0.7279(4) 0.9269(2)
N3A N -0.4764(4) 0.6616(3) 1.1015(2)
N4A N -0.2648(4) 0.5056(4) 1.0146(2)
N5A N -0.2597(4) 0.2507(3) 1.3775(2)
N6A N -0.9024(4) 1.1429(4) 1.0131(3)
H1A H -0.1540(40) 0.7480(40) 0.6080(30)
H2A H -0.3030(50) 0.7960(50) 0.7600(30)
H3A H -0.0960(50) 0.3510(50) 0.8730(30)
H4A H 0.0180(50) 0.3180(40) 0.7130(30)
H5A H -0.7060(50) 0.8570(40) 1.1650(30)
H6A H -0.9330(50) 1.0690(40) 1.1590(30)
H7A H -0.8560(60) 1.1760(50) 0.8680(30)
H8A H -0.6160(60) 0.9660(50) 0.8630(30)
H9A H -0.4220(60) 0.4050(50) 1.4220(30)
H10A H -0.4620(50) 0.5590(40) 1.2800(30)
H11A H -0.1520(50) 0.2760(50) 1.1450(30)
H12A H -0.1210(50) 0.1210(50) 1.3040(30)
Mo1A Mo -0.3456(1) 0.8167(1) 0.4255(1)
Mo2A Mo -0.1935(1) 0.1263(1) 0.5475(1)
O2A O 0.4353(3) 0.7837(3) 0.4345(2)
O4_2 O 0.3115(3) 1.0474(3) 0.4980(2)
O3A O -0.2824(4) 0.8826(3) 0.3047(2)
O7A O -0.1844(3) 0.0501(3) 0.6701(2)
N5_2 N 0.2597(4) 0.7493(3) 0.6225(2)
Mo2A_2 Mo 0.8065(1) 0.1263(1) 0.5475(1)
Mo2_2 Mo 0.1935(1) -0.1263(1) 0.4525(1)
Mo2A_3 Mo -0.1935(1) 1.1263(1) 0.5475(1)
Mo2_3 Mo 0.1935(1) 0.8737(1) -0.5475(1)
Mo2A_4 Mo -0.1935(1) 0.1263(1) 1.5475(1)
O2A_2 O -0.5647(3) 0.7837(3) 0.4345(2)
O4A O -0.3115(3) 0.9526(3) 0.5020(2)
O2_2 O -0.4353(3) 0.2163(3) 0.5655(2)
O4A_2 O -0.3115(3) -0.0474(3) 0.5020(2)
O5_2 O 0.0000 0.0000 0.5000
N5A_2 N -0.2597(4) 0.2507(3) 0.3775(2)
Mo1A_2 Mo 0.6544(1) 0.8167(1) 0.4255(1)
Mo1_2 Mo 0.3456(1) 1.1833(1) 0.5745(1)
loop_
_geom_bond_atom_site_label_1
_geom_bond_atom_site_label_2
_geom_bond_site_symmetry_1
_geom_bond_site_symmetry_2
Ni1 O1 1_555 1_555
Mo1 O1 1_555 1_555
Mo2 O5 1_555 1_555
O2 Mo1 1_555 1_555
O3 Mo1 1_555 1_555
O4 Mo1 1_555 1_555
O5 Mo2A_3 1_555 1_555
O6 Ni1 1_555 1_555
O7 Mo2 1_555 1_555
C1 C2 1_555 1_555
C2 C3 1_555 1_555
C3 C4 1_555 1_555
C4 C5 1_555 1_555
C5 N1 1_555 1_555
C6 C3 1_555 1_555
C7 C16 1_555 1_555
C8 C9 1_555 1_555
C9 C10 1_555 1_555
C10 C11 1_555 1_555
C11 N6 1_555 1_555
C12 C13 1_555 1_555
C13 C9 1_555 1_555
C14 C15 1_555 1_555
C15 C16 1_555 1_555
C16 C17 1_555 1_555
C17 C18 1_555 1_555
C18 N5 1_555 1_555
N1 Ni1 1_555 1_555
N2 C6 1_555 1_555
N3 C7 1_555 1_555
N4 C6 1_555 1_555
N5 C14 1_555 1_555
N6 C12 1_555 1_555
H1 C1 1_555 1_555
H2 C2 1_555 1_555
H3 C4 1_555 1_555
H4 C5 1_555 1_555
H5 C10 1_555 1_555
H6 C11 1_555 1_555
H7 C12 1_555 1_555
H8 C13 1_555 1_555
H9 C14 1_555 1_555
H10 C15 1_555 1_555
H11 C17 1_555 1_555
H12 C18 1_555 1_555
O1A Ni1 1_555 1_555
O6A Ni1 1_555 1_555
C1A C2A 1_555 1_555
C2A C3A 1_555 1_555
C3A C4A 1_555 1_555
C4A C5A 1_555 1_555
C5A N1A 1_555 1_555
C6A C3A 1_555 1_555
C7A C16A 1_555 1_555
C8A C9A 1_555 1_555
C9A C10A 1_555 1_555
C10A C11A 1_555 1_555
C11A N6A 1_555 1_555
C12A C13A 1_555 1_555
C13A C9A 1_555 1_555
C14A C15A 1_555 1_555
C15A C16A 1_555 1_555
C16A C17A 1_555 1_555
C17A C18A 1_555 1_555
C18A N5A 1_555 1_555
N1A Ni1 1_555 1_555
N2A C6A 1_555 1_555
N3A C7A 1_555 1_555
N4A C6A 1_555 1_555
N5A C14A 1_555 1_555
N6A C12A 1_555 1_555
H1A C1A 1_555 1_555
H2A C2A 1_555 1_555
H3A C4A 1_555 1_555
H4A C5A 1_555 1_555
H5A C10A 1_555 1_555
H6A C11A 1_555 1_555
H7A C12A 1_555 1_555
H8A C13A 1_555 1_555
H9A C14A 1_555 1_555
H10A C15A 1_555 1_555
H11A C17A 1_555 1_555
H12A C18A 1_555 1_555
Mo1A O1A 1_555 1_555
Mo2A O6A 1_555 1_555
O2A Mo2 1_555 1_555
O4_2 Mo2 1_555 1_555
O3A Mo1A 1_555 1_555
O7A Mo2A 1_555 1_555
N5_2 Mo2 1_555 1_555
Mo2A_2 O2 1_555 1_555
Mo2_2 O4 1_555 1_555
Mo2A_3 O4A 1_555 1_555
Mo2_3 N5 1_555 1_555
Mo2A_4 N5A 1_555 1_555
O2A_2 Mo1A 1_555 1_555
O4A Mo1A 1_555 1_555
O2_2 Mo2A 1_555 1_555
O4A_2 Mo2A 1_555 1_555
O5_2 Mo2A 1_555 1_555
N5A_2 Mo2A 1_555 1_555
Mo1A_2 O2A 1_555 1_555
Mo1_2 O4_2 1_555 1_555
Mo2 O6 1_555 1_555
C1 N1 1_555 1_555
C7 N4 1_555 1_555
C8 N2 1_555 1_555
C8 N3 1_555 1_555
C1A N1A 1_555 1_555
C7A N4A 1_555 1_555
C8A N2A 1_555 1_555
C8A N3A 1_555 1_555
Mo2_2 O5_2 1_555 1_555

#END
