
#######################################################################
#
#                 Cambridge Crystallographic Data Centre
#                                CCDC 
#
#######################################################################
#
# If this CIF has been generated from an entry in the Cambridge 
# Structural Database, then it will include bibliographic, chemical, 
# crystal, experimental, refinement or atomic coordinate data resulting 
# from the CCDC's data processing and validation procedures.
#
#######################################################################

data_CACHOE
_symmetry_cell_setting           triclinic
_symmetry_space_group_name_H-M   'P -1'
_symmetry_Int_Tables_number      2
_space_group_name_Hall           '-P 1'
loop_
_symmetry_equiv_pos_site_id
_symmetry_equiv_pos_as_xyz
1 x,y,z
2 -x,-y,-z
_cell_length_a                   8.068(1)
_cell_length_b                   8.881(1)
_cell_length_c                   13.698(1)
_cell_angle_alpha                79.885(2)
_cell_angle_beta                 84.593(2)
_cell_angle_gamma                80.606(2)
_cell_volume                     951.1
loop_
_atom_site_label
_atom_site_type_symbol
_atom_site_fract_x
_atom_site_fract_y
_atom_site_fract_z
Co1 Co 0.0000 1.0000 0.5000
Mo1 Mo 0.3457(1) 0.6821(1) 0.5753(1)
Mo2 Mo -0.1930(1) 0.6237(1) 0.5488(1)
O1 O 0.2235(7) 0.8612(6) 0.5374(5)
O2 O 0.3122(7) 0.5488(7) 0.4965(4)
O3 O 0.2815(8) 0.6167(7) 0.6961(5)
O4 O -0.1826(8) 0.5452(7) 0.6713(5)
O5 O 0.0000 0.5000 0.5000
O6 O -0.1100(7) 0.7942(6) 0.5407(4)
O7 O 0.5646(7) 0.7138(6) 0.5674(4)
C1 C 0.1496(10) 0.8315(9) 0.3344(6)
C2 C 0.2302(10) 0.8044(9) 0.2434(6)
C3 C 0.2153(10) 0.9210(9) 0.1626(6)
C4 C 0.1163(11) 1.0617(9) 0.1742(6)
C5 C 0.0464(11) 1.0821(9) 0.2692(6)
C6 C 0.3069(10) 0.8954(9) 0.0659(6)
C7 C 0.5109(10) 0.7498(9) -0.0158(6)
C8 C 0.3562(10) 0.9590(9) -0.0994(6)
C9 C 0.6464(10) 0.6163(9) -0.0150(6)
C10 C 0.6889(10) 0.5210(10) 0.0743(6)
C11 C 0.8151(10) 0.3929(9) 0.0707(6)
C12 C 0.8582(10) 0.4521(10) -0.0970(6)
C13 C 0.7338(10) 0.5808(9) -0.1022(6)
C14 C 0.1831(10) 1.2913(9) -0.2943(6)
C15 C 0.2098(10) 1.1996(9) -0.2010(6)
C16 C 0.3207(10) 1.0618(9) -0.1959(6)
C17 C 0.4019(11) 1.0192(9) -0.2832(6)
C18 C 0.3661(10) 1.1149(9) -0.3729(6)
N1 N 0.0620(9) 0.9681(8) 0.3490(5)
N2 N 0.2657(9) 0.9941(8) -0.0168(5)
N3 N 0.4283(9) 0.7720(8) 0.0715(5)
N4 N 0.4775(9) 0.8384(8) -0.1032(5)
N5 N 0.9003(9) 0.3570(8) -0.0124(6)
N6 N 0.2601(8) 1.2502(8) -0.3793(5)
H1 H 0.1570 0.7505 0.3877
H2 H 0.2933 0.7087 0.2373
H3 H 0.0973 1.1401 0.1200
H4 H -0.0135 1.1781 0.2779
H5 H 0.6349 0.5420 0.1345
H6 H 0.8411 0.3287 0.1303
H7 H 0.9163 0.4303 -0.1560
H8 H 0.7096 0.6420 -0.1630
H9 H 0.1095 1.3840 -0.2974
H10 H 0.1542 1.2306 -0.1436
H11 H 0.4786 0.9285 -0.2817
H12 H 0.4177 1.0843 -0.4314
O1A O -0.2235(7) 1.1388(6) 0.4626(5)
O6A O 0.1100(7) 1.2058(6) 0.4593(4)
C1A C -0.1496(10) 1.1685(9) 0.6656(6)
C2A C -0.2302(10) 1.1956(9) 0.7566(6)
C3A C -0.2153(10) 1.0790(9) 0.8374(6)
C4A C -0.1163(11) 0.9383(9) 0.8258(6)
C5A C -0.0464(11) 0.9179(9) 0.7308(6)
C6A C -0.3069(10) 1.1046(9) 0.9341(6)
C7A C -0.5109(10) 1.2502(9) 1.0158(6)
C8A C -0.3562(10) 1.0410(9) 1.0994(6)
C9A C -0.6464(10) 1.3837(9) 1.0150(6)
C10A C -0.6889(10) 1.4790(10) 0.9257(6)
C11A C -0.8151(10) 1.6071(9) 0.9293(6)
C12A C -0.8582(10) 1.5479(10) 1.0970(6)
C13A C -0.7338(10) 1.4192(9) 1.1022(6)
C14A C -0.1831(10) 0.7087(9) 1.2943(6)
C15A C -0.2098(10) 0.8004(9) 1.2010(6)
C16A C -0.3207(10) 0.9382(9) 1.1959(6)
C17A C -0.4019(11) 0.9808(9) 1.2832(6)
C18A C -0.3661(10) 0.8851(9) 1.3729(6)
N1A N -0.0620(9) 1.0319(8) 0.6510(5)
N2A N -0.2657(9) 1.0059(8) 1.0168(5)
N3A N -0.4283(9) 1.2280(8) 0.9285(5)
N4A N -0.4775(9) 1.1616(8) 1.1032(5)
N5A N -0.9003(9) 1.6430(8) 1.0124(6)
N6A N -0.2601(8) 0.7498(8) 1.3793(5)
H1A H -0.1570 1.2495 0.6123
H2A H -0.2933 1.2913 0.7627
H3A H -0.0973 0.8599 0.8800
H4A H 0.0135 0.8219 0.7221
H5A H -0.6349 1.4580 0.8655
H6A H -0.8411 1.6713 0.8697
H7A H -0.9163 1.5697 1.1560
H8A H -0.7096 1.3580 1.1630
H9A H -0.1095 0.6160 1.2974
H10A H -0.1542 0.7694 1.1436
H11A H -0.4786 1.0715 1.2817
H12A H -0.4177 0.9157 1.4314
Mo1A Mo -0.3457(1) 1.3179(1) 0.4247(1)
Mo2A Mo 0.1930(1) 1.3763(1) 0.4512(1)
O2A O -0.3122(7) 0.4512(7) 0.5035(4)
O7_2 O -0.4354(7) 0.7138(6) 0.5674(4)
O3A O -0.2815(8) 1.3833(7) 0.3039(5)
O4A O 0.1826(8) 1.4548(7) 0.3287(5)
N6A_2 N -0.2601(8) 0.7498(8) 0.3793(5)
Mo2A_2 Mo 0.1930(1) 0.3763(1) 0.4512(1)
Mo2_2 Mo 0.8070(1) 0.6237(1) 0.5488(1)
Mo2A_3 Mo 0.1930(1) 1.3763(1) -0.5488(1)
Mo2_3 Mo -0.1930(1) 0.6237(1) 1.5488(1)
O2A_2 O -0.3122(7) 1.4512(7) 0.5035(4)
O7A O -0.5646(7) 1.2862(6) 0.4326(4)
O2_2 O 0.3122(7) 1.5488(7) 0.4965(4)
O5_2 O 0.0000 1.5000 0.5000
O7A_2 O 0.4354(7) 1.2862(6) 0.4326(4)
N6_2 N 0.2601(8) 1.2502(8) 0.6207(5)
Mo1A_2 Mo -0.3457(1) 0.3179(1) 0.4247(1)
Mo1_2 Mo -0.6543(1) 0.6821(1) 0.5753(1)
loop_
_geom_bond_atom_site_label_1
_geom_bond_atom_site_label_2
_geom_bond_site_symmetry_1
_geom_bond_site_symmetry_2
Co1 O1 1_555 1_555
Mo1 O1 1_555 1_555
Mo2 O4 1_555 1_555
O2 Mo1 1_555 1_555
O3 Mo1 1_555 1_555
O5 Mo2 1_555 1_555
O6 Co1 1_555 1_555
O7 Mo1 1_555 1_555
C1 C2 1_555 1_555
C2 C3 1_555 1_555
C3 C4 1_555 1_555
C4 C5 1_555 1_555
C5 N1 1_555 1_555
C6 C3 1_555 1_555
C7 C9 1_555 1_555
C8 C16 1_555 1_555
C9 C10 1_555 1_555
C10 C11 1_555 1_555
C11 N5 1_555 1_555
C12 C13 1_555 1_555
C13 C9 1_555 1_555
C14 C15 1_555 1_555
C15 C16 1_555 1_555
C16 C17 1_555 1_555
C17 C18 1_555 1_555
C18 N6 1_555 1_555
N1 Co1 1_555 1_555
N2 C6 1_555 1_555
N3 C6 1_555 1_555
N4 C7 1_555 1_555
N5 C12 1_555 1_555
N6 C14 1_555 1_555
H1 C1 1_555 1_555
H2 C2 1_555 1_555
H3 C4 1_555 1_555
H4 C5 1_555 1_555
H5 C10 1_555 1_555
H6 C11 1_555 1_555
H7 C12 1_555 1_555
H8 C13 1_555 1_555
H9 C14 1_555 1_555
H10 C15 1_555 1_555
H11 C17 1_555 1_555
H12 C18 1_555 1_555
O1A Co1 1_555 1_555
O6A Co1 1_555 1_555
C1A C2A 1_555 1_555
C2A C3A 1_555 1_555
C3A C4A 1_555 1_555
C4A C5A 1_555 1_555
C5A N1A 1_555 1_555
C6A C3A 1_555 1_555
C7A C9A 1_555 1_555
C8A C16A 1_555 1_555
C9A C10A 1_555 1_555
C10A C11A 1_555 1_555
C11A N5A 1_555 1_555
C12A C13A 1_555 1_555
C13A C9A 1_555 1_555
C14A C15A 1_555 1_555
C15A C16A 1_555 1_555
C16A C17A 1_555 1_555
C17A C18A 1_555 1_555
C18A N6A 1_555 1_555
N1A Co1 1_555 1_555
N2A C6A 1_555 1_555
N3A C6A 1_555 1_555
N4A C7A 1_555 1_555
N5A C12A 1_555 1_555
N6A C14A 1_555 1_555
H1A C1A 1_555 1_555
H2A C2A 1_555 1_555
H3A C4A 1_555 1_555
H4A C5A 1_555 1_555
H5A C10A 1_555 1_555
H6A C11A 1_555 1_555
H7A C12A 1_555 1_555
H8A C13A 1_555 1_555
H9A C14A 1_555 1_555
H10A C15A 1_555 1_555
H11A C17A 1_555 1_555
H12A C18A 1_555 1_555
Mo1A O1A 1_555 1_555
Mo2A O6A 1_555 1_555
O2A Mo2 1_555 1_555
O7_2 Mo2 1_555 1_555
O3A Mo1A 1_555 1_555
O4A Mo2A 1_555 1_555
N6A_2 Mo2 1_555 1_555
Mo2A_2 O2 1_555 1_555
Mo2_2 O7 1_555 1_555
Mo2A_3 N6 1_555 1_555
Mo2_3 N6A 1_555 1_555
O2A_2 Mo1A 1_555 1_555
O7A Mo1A 1_555 1_555
O2_2 Mo2A 1_555 1_555
O5_2 Mo2A 1_555 1_555
O7A_2 Mo2A 1_555 1_555
N6_2 Mo2A 1_555 1_555
Mo1A_2 O2A 1_555 1_555
Mo1_2 O7_2 1_555 1_555
Mo2 O6 1_555 1_555
O5 Mo2A_2 1_555 1_555
C1 N1 1_555 1_555
C7 N3 1_555 1_555
C8 N2 1_555 1_555
C8 N4 1_555 1_555
C1A N1A 1_555 1_555
C7A N3A 1_555 1_555
C8A N2A 1_555 1_555
C8A N4A 1_555 1_555

#END
