
#######################################################################
#
#                 Cambridge Crystallographic Data Centre
#                                CCDC 
#
#######################################################################
#
# If this CIF has been generated from an entry in the Cambridge 
# Structural Database, then it will include bibliographic, chemical, 
# crystal, experimental, refinement or atomic coordinate data resulting 
# from the CCDC's data processing and validation procedures.
#
#######################################################################

data_CACJAS
_symmetry_cell_setting           triclinic
_symmetry_space_group_name_H-M   'P -1'
_symmetry_Int_Tables_number      2
_space_group_name_Hall           '-P 1'
loop_
_symmetry_equiv_pos_site_id
_symmetry_equiv_pos_as_xyz
1 x,y,z
2 -x,-y,-z
_cell_length_a                   8.0888(6)
_cell_length_b                   8.9531(7)
_cell_length_c                   13.680(1)
_cell_angle_alpha                79.711(2)
_cell_angle_beta                 84.193(1)
_cell_angle_gamma                80.275(2)
_cell_volume                     958.186
loop_
_atom_site_label
_atom_site_type_symbol
_atom_site_fract_x
_atom_site_fract_y
_atom_site_fract_z
Zn1 Zn 0.5000 1.0000 0.5000
Mo1 Mo 0.1550(1) 1.3190(1) 0.4233(1)
Mo2 Mo 0.3063(1) 0.6217(1) 0.5491(1)
O1 O 0.2717(6) 1.1402(5) 0.4618(3)
O2 O -0.0656(6) 1.2904(5) 0.4315(3)
O3 O 0.2202(6) 1.3829(6) 0.3028(4)
O4 O 0.1885(5) 1.4517(5) 0.4996(4)
O5 O 0.5000 0.5000 0.5000
O6 O 0.3158(6) 0.5402(6) 0.6711(4)
O7 O 0.3883(5) 0.7912(5) 0.5426(3)
C1 C 0.3504(8) 1.1701(7) 0.6651(5)
C2 C 0.2691(8) 1.1955(7) 0.7562(5)
C3 C 0.2861(8) 1.0790(8) 0.8371(5)
C4 C 0.3832(8) 0.9398(8) 0.8246(5)
C5 C 0.4540(8) 0.9198(8) 0.7292(5)
C6 C 0.1918(8) 1.1058(7) 0.9323(5)
C7 C 0.1426(8) 1.0415(8) 1.0997(5)
C8 C -0.0124(8) 1.2512(8) 1.0157(5)
C9 C 0.1770(8) 0.9393(7) 1.1964(5)
C10 C 0.0983(8) 0.9805(8) 1.2846(5)
C11 C 0.1326(8) 0.8843(8) 1.3737(5)
C12 C 0.3152(8) 0.7107(8) 1.2938(5)
C13 C 0.2873(8) 0.8007(8) 1.2011(5)
C14 C -0.2352(8) 1.4194(8) 1.1036(5)
C15 C -0.3590(8) 1.5470(8) 1.0974(5)
C16 C -0.3152(8) 1.6068(8) 0.9309(5)
C17 C -0.1887(8) 1.4809(8) 0.9263(5)
C18 C -0.1467(8) 1.3850(8) 1.0154(5)
N1 N 0.4367(6) 1.0326(6) 0.6506(4)
N2 N 0.2313(7) 1.0063(6) 1.0167(4)
N3 N 0.0723(7) 1.2281(6) 0.9295(4)
N4 N 0.0215(7) 1.1616(6) 1.1033(4)
N5 N 0.2401(7) 0.7493(6) 1.3790(4)
N6 N -0.4009(7) 1.6411(7) 1.0144(4)
H1 H 0.3451 1.2512 0.6120
H2 H 0.2040 1.2897 0.7626
H3 H 0.4010 0.8609 0.8785
H4 H 0.5152 0.8249 0.7201
H5 H 0.0233 1.0716 1.2839
H6 H 0.0798 0.9133 1.4325
H7 H 0.3899 0.6191 1.2964
H8 H 0.3413 0.7691 1.1433
H9 H -0.2117 1.3585 1.1647
H10 H -0.4178 1.5686 1.1565
H11 H -0.3414 1.6714 0.8716
H12 H -0.1340 1.4614 0.8657
O1A O 0.7283(6) 0.8598(5) 0.5382(3)
O7A O 0.6117(5) 1.2088(5) 0.4574(3)
C1A C 0.6496(8) 0.8299(7) 0.3349(5)
C2A C 0.7309(8) 0.8045(7) 0.2438(5)
C3A C 0.7139(8) 0.9210(8) 0.1629(5)
C4A C 0.6168(8) 1.0602(8) 0.1754(5)
C5A C 0.5460(8) 1.0802(8) 0.2708(5)
C6A C 0.8082(8) 0.8942(7) 0.0677(5)
C7A C 0.8574(8) 0.9585(8) -0.0997(5)
C8A C 1.0124(8) 0.7488(8) -0.0157(5)
C9A C 0.8230(8) 1.0607(7) -0.1964(5)
C10A C 0.9017(8) 1.0195(8) -0.2846(5)
C11A C 0.8674(8) 1.1157(8) -0.3737(5)
C12A C 0.6848(8) 1.2893(8) -0.2938(5)
C13A C 0.7127(8) 1.1993(8) -0.2011(5)
C14A C 1.2352(8) 0.5806(8) -0.1036(5)
C15A C 1.3590(8) 0.4530(8) -0.0974(5)
C16A C 1.3152(8) 0.3932(8) 0.0691(5)
C17A C 1.1887(8) 0.5191(8) 0.0737(5)
C18A C 1.1467(8) 0.6150(8) -0.0154(5)
N1A N 0.5633(6) 0.9674(6) 0.3494(4)
N2A N 0.7687(7) 0.9937(6) -0.0167(4)
N3A N 0.9277(7) 0.7719(6) 0.0705(4)
N4A N 0.9785(7) 0.8384(6) -0.1033(4)
N5A N 0.7599(7) 1.2507(6) -0.3790(4)
N6A N 1.4009(7) 0.3589(7) -0.0144(4)
H1A H 0.6549 0.7488 0.3880
H2A H 0.7960 0.7103 0.2374
H3A H 0.5990 1.1391 0.1215
H4A H 0.4848 1.1751 0.2799
H5A H 0.9767 0.9284 -0.2839
H6A H 0.9202 1.0867 -0.4325
H7A H 0.6101 1.3809 -0.2964
H8A H 0.6587 1.2309 -0.1433
H9A H 1.2117 0.6415 -0.1647
H10A H 1.4178 0.4314 -0.1565
H11A H 1.3414 0.3286 0.1284
H12A H 1.1340 0.5386 0.1343
Mo1A Mo 0.8450(1) 0.6810(1) 0.5767(1)
Mo2A Mo 0.6937(1) 1.3783(1) 0.4509(1)
O2A O 0.0656(6) 0.7096(5) 0.5685(3)
O4_2 O 0.1885(5) 0.4517(5) 0.4996(4)
O3A O 0.7798(6) 0.6171(6) 0.6972(4)
O6A O 0.6842(6) 1.4598(6) 0.3289(4)
N5_2 N 0.2401(7) 0.7493(6) 0.3790(4)
Mo2A_2 Mo -0.3063(1) 1.3783(1) 0.4509(1)
Mo2_2 Mo 0.3063(1) 1.6217(1) 0.5491(1)
Mo2A_3 Mo 0.6937(1) 0.3783(1) 0.4509(1)
Mo2_3 Mo 0.3063(1) 0.6217(1) 1.5491(1)
Mo2A_4 Mo 0.6937(1) 1.3783(1) -0.5491(1)
O2A_2 O 1.0656(6) 0.7096(5) 0.5685(3)
O4A O 0.8115(5) 0.5483(5) 0.5004(4)
O2_2 O 0.9344(6) 1.2904(5) 0.4315(3)
O4A_2 O 0.8115(5) 1.5483(5) 0.5004(4)
O5_2 O 0.5000 1.5000 0.5000
N5A_2 N 0.7599(7) 1.2507(6) 0.6210(4)
Mo1A_2 Mo -0.1550(1) 0.6810(1) 0.5767(1)
Mo1_2 Mo 0.1550(1) 0.3190(1) 0.4233(1)
loop_
_geom_bond_atom_site_label_1
_geom_bond_atom_site_label_2
_geom_bond_site_symmetry_1
_geom_bond_site_symmetry_2
Zn1 O1 1_555 1_555
Mo1 O1 1_555 1_555
Mo2 O5 1_555 1_555
O2 Mo1 1_555 1_555
O3 Mo1 1_555 1_555
O4 Mo1 1_555 1_555
O5 Mo2A_3 1_555 1_555
O6 Mo2 1_555 1_555
O7 Zn1 1_555 1_555
C1 C2 1_555 1_555
C2 C3 1_555 1_555
C3 C4 1_555 1_555
C4 C5 1_555 1_555
C5 N1 1_555 1_555
C6 C3 1_555 1_555
C7 C9 1_555 1_555
C8 C18 1_555 1_555
C9 C10 1_555 1_555
C10 C11 1_555 1_555
C11 N5 1_555 1_555
C12 C13 1_555 1_555
C13 C9 1_555 1_555
C14 C15 1_555 1_555
C15 N6 1_555 1_555
C16 C17 1_555 1_555
C17 C18 1_555 1_555
C18 C14 1_555 1_555
N1 Zn1 1_555 1_555
N2 C6 1_555 1_555
N3 C6 1_555 1_555
N4 C7 1_555 1_555
N5 C12 1_555 1_555
N6 C16 1_555 1_555
H1 C1 1_555 1_555
H2 C2 1_555 1_555
H3 C4 1_555 1_555
H4 C5 1_555 1_555
H5 C10 1_555 1_555
H6 C11 1_555 1_555
H7 C12 1_555 1_555
H8 C13 1_555 1_555
H9 C14 1_555 1_555
H10 C15 1_555 1_555
H11 C16 1_555 1_555
H12 C17 1_555 1_555
O1A Zn1 1_555 1_555
O7A Zn1 1_555 1_555
C1A C2A 1_555 1_555
C2A C3A 1_555 1_555
C3A C4A 1_555 1_555
C4A C5A 1_555 1_555
C5A N1A 1_555 1_555
C6A C3A 1_555 1_555
C7A C9A 1_555 1_555
C8A C18A 1_555 1_555
C9A C10A 1_555 1_555
C10A C11A 1_555 1_555
C11A N5A 1_555 1_555
C12A C13A 1_555 1_555
C13A C9A 1_555 1_555
C14A C15A 1_555 1_555
C15A N6A 1_555 1_555
C16A C17A 1_555 1_555
C17A C18A 1_555 1_555
C18A C14A 1_555 1_555
N1A Zn1 1_555 1_555
N2A C6A 1_555 1_555
N3A C6A 1_555 1_555
N4A C7A 1_555 1_555
N5A C12A 1_555 1_555
N6A C16A 1_555 1_555
H1A C1A 1_555 1_555
H2A C2A 1_555 1_555
H3A C4A 1_555 1_555
H4A C5A 1_555 1_555
H5A C10A 1_555 1_555
H6A C11A 1_555 1_555
H7A C12A 1_555 1_555
H8A C13A 1_555 1_555
H9A C14A 1_555 1_555
H10A C15A 1_555 1_555
H11A C16A 1_555 1_555
H12A C17A 1_555 1_555
Mo1A O1A 1_555 1_555
Mo2A O7A 1_555 1_555
O2A Mo2 1_555 1_555
O4_2 Mo2 1_555 1_555
O3A Mo1A 1_555 1_555
O6A Mo2A 1_555 1_555
N5_2 Mo2 1_555 1_555
Mo2A_2 O2 1_555 1_555
Mo2_2 O4 1_555 1_555
Mo2A_3 O4A 1_555 1_555
Mo2_3 N5 1_555 1_555
Mo2A_4 N5A 1_555 1_555
O2A_2 Mo1A 1_555 1_555
O4A Mo1A 1_555 1_555
O2_2 Mo2A 1_555 1_555
O4A_2 Mo2A 1_555 1_555
O5_2 Mo2A 1_555 1_555
N5A_2 Mo2A 1_555 1_555
Mo1A_2 O2A 1_555 1_555
Mo1_2 O4_2 1_555 1_555
Mo2 O7 1_555 1_555
C1 N1 1_555 1_555
C7 N2 1_555 1_555
C8 N3 1_555 1_555
C8 N4 1_555 1_555
C1A N1A 1_555 1_555
C7A N2A 1_555 1_555
C8A N3A 1_555 1_555
C8A N4A 1_555 1_555
Mo2_2 O5_2 1_555 1_555

#END
