
#######################################################################
#
#                 Cambridge Crystallographic Data Centre
#                                CCDC 
#
#######################################################################
#
# If this CIF has been generated from an entry in the Cambridge 
# Structural Database, then it will include bibliographic, chemical, 
# crystal, experimental, refinement or atomic coordinate data resulting 
# from the CCDC's data processing and validation procedures.
#
#######################################################################

data_CACJIA
_symmetry_cell_setting           orthorhombic
_symmetry_space_group_name_H-M   'P n m a'
_symmetry_Int_Tables_number      62
_space_group_name_Hall           '-P 2ac 2n'
loop_
_symmetry_equiv_pos_site_id
_symmetry_equiv_pos_as_xyz
1 x,y,z
2 1/2-x,-y,1/2+z
3 1/2+x,1/2-y,1/2-z
4 -x,1/2+y,-z
5 -x,-y,-z
6 1/2+x,y,1/2-z
7 1/2-x,1/2+y,1/2+z
8 x,1/2-y,z
_cell_length_a                   8.5954(5)
_cell_length_b                   26.861(1)
_cell_length_c                   9.1687(5)
_cell_angle_alpha                90
_cell_angle_beta                 90
_cell_angle_gamma                90
_cell_volume                     2116.88
loop_
_atom_site_label
_atom_site_type_symbol
_atom_site_fract_x
_atom_site_fract_y
_atom_site_fract_z
Ni1 Ni 0.5000 0.5000 1.0000
Mo1 Mo 0.1156(1) 0.4614(1) 0.8693(1)
O1 O 0.3076(3) 0.4619(1) 0.9282(2)
O2 O 0.0501(4) 0.4018(1) 0.8648(3)
O3 O 0.3968(3) 0.5131(1) 1.1951(2)
O4 O 0.0000 0.5000 1.0000
C1 C 0.4414(4) 0.6109(1) 0.9903(3)
C2 C 0.4103(4) 0.6570(1) 0.9302(4)
C3 C 0.3522(3) 0.6598(1) 0.7882(3)
C4 C 0.3247(4) 0.6151(1) 0.7148(3)
C5 C 0.3596(4) 0.5711(1) 0.7832(3)
C6 C 0.3240(4) 0.7081(1) 0.7143(3)
C7 C 0.2469(5) 0.7500 0.5135(5)
C8 C 0.1940(5) 0.7500 0.3590(5)
C9 C 0.1684(4) 0.7057(1) 0.2845(4)
C10 C 0.1136(4) 0.7078(1) 0.1417(4)
N1 N 0.4196(3) 0.5678(1) 0.9176(3)
N2 N 0.3571(4) 0.7500 0.7877(4)
N3 N 0.2686(3) 0.7059(1) 0.5782(3)
N4 N 0.0864(5) 0.7500 0.0685(4)
H1 H 0.4792 0.6095 1.0853
H2 H 0.4278 0.6859 0.9837
H3 H 0.2835 0.6152 0.6210
H4 H 0.3403 0.5416 0.7331
H5 H 0.1873 0.6752 0.3292
H6 H 0.0948 0.6778 0.0939
C6G C 0.3240(4) 0.7919(1) 0.7143(3)
C3G C 0.3522(3) 0.8402(1) 0.7882(3)
C2G C 0.4103(4) 0.8430(1) 0.9302(4)
C1G C 0.4414(4) 0.8891(1) 0.9903(3)
N1G N 0.4196(3) 0.9322(1) 0.9176(3)
C5G C 0.3596(4) 0.9289(1) 0.7832(3)
C4G C 0.3247(4) 0.8849(1) 0.7148(3)
H3G H 0.2835 0.8848 0.6210
H4G H 0.3403 0.9584 0.7331
H1G H 0.4792 0.8905 1.0853
H2G H 0.4278 0.8141 0.9837
N3G N 0.2686(3) 0.7941(1) 0.5782(3)
C10G C 0.1136(4) 0.7922(1) 0.1417(4)
C9G C 0.1684(4) 0.7943(1) 0.2845(4)
H5G H 0.1873 0.8248 0.3292
H6G H 0.0948 0.8222 0.0939
O1D O 0.6924(3) 0.5381(1) 1.0718(2)
O3D O 0.6032(3) 0.4869(1) 0.8049(2)
Mo1D Mo 0.8844(1) 0.5386(1) 1.1307(1)
O2D O 0.9499(4) 0.5982(1) 1.1352(3)
N1D N 0.5804(3) 0.4322(1) 1.0824(3)
O3A O 0.1032(3) 0.4869(1) 0.6951(2)
Mo1A Mo 0.3844(1) 0.5386(1) 1.3693(1)
Mo1D_2 Mo -0.1156(1) 0.5386(1) 1.1307(1)
Ni1C Ni 0.5000 1.0000 1.0000
Mo1E Mo 0.6156(1) 0.4614(1) 0.6307(1)
O3E O 0.8968(3) 0.5131(1) 1.3049(2)
O4_2 O 1.0000 0.5000 1.0000
loop_
_geom_bond_atom_site_label_1
_geom_bond_atom_site_label_2
_geom_bond_site_symmetry_1
_geom_bond_site_symmetry_2
Ni1 O1 1_555 1_555
Mo1 O1 1_555 1_555
O2 Mo1 1_555 1_555
O3 Ni1 1_555 1_555
O4 Mo1 1_555 1_555
C1 C2 1_555 1_555
C2 C3 1_555 1_555
C3 C4 1_555 1_555
C4 C5 1_555 1_555
C5 N1 1_555 1_555
C6 C3 1_555 1_555
C7 C8 1_555 1_555
C8 C9 1_555 1_555
C9 C10 1_555 1_555
C10 N4 1_555 1_555
N1 Ni1 1_555 1_555
N2 C6 1_555 1_555
N3 C6 1_555 1_555
N4 C10G 1_555 1_555
H1 C1 1_555 1_555
H2 C2 1_555 1_555
H3 C4 1_555 1_555
H4 C5 1_555 1_555
H5 C9 1_555 1_555
H6 C10 1_555 1_555
C6G N2 1_555 1_555
C3G C6G 1_555 1_555
C2G C3G 1_555 1_555
C1G C2G 1_555 1_555
N1G C1G 1_555 1_555
C5G N1G 1_555 1_555
C4G C3G 1_555 1_555
H3G C4G 1_555 1_555
H4G C5G 1_555 1_555
H1G C1G 1_555 1_555
H2G C2G 1_555 1_555
N3G C7 1_555 1_555
C10G C9G 1_555 1_555
C9G C8 1_555 1_555
H5G C9G 1_555 1_555
H6G C10G 1_555 1_555
O1D Ni1 1_555 1_555
O3D Ni1 1_555 1_555
Mo1D O1D 1_555 1_555
O2D Mo1D 1_555 1_555
N1D Ni1 1_555 1_555
O3A Mo1 1_555 1_555
Mo1A O3 1_555 1_555
Mo1D_2 O4 1_555 1_555
Ni1C N1G 1_555 1_555
Mo1E O3D 1_555 1_555
O3E Mo1D 1_555 1_555
O4_2 Mo1D 1_555 1_555
C1 N1 1_555 1_555
C7 N3 1_555 1_555
C6G N3G 1_555 1_555
C5G C4G 1_555 1_555

#END
