
#######################################################################
#
#                 Cambridge Crystallographic Data Centre
#                                CCDC 
#
#######################################################################
#
# If this CIF has been generated from an entry in the Cambridge 
# Structural Database, then it will include bibliographic, chemical, 
# crystal, experimental, refinement or atomic coordinate data resulting 
# from the CCDC's data processing and validation procedures.
#
#######################################################################

data_CACJOG
_symmetry_cell_setting           orthorhombic
_symmetry_space_group_name_H-M   'P n m a'
_symmetry_Int_Tables_number      62
_space_group_name_Hall           '-P 2ac 2n'
loop_
_symmetry_equiv_pos_site_id
_symmetry_equiv_pos_as_xyz
1 x,y,z
2 1/2-x,-y,1/2+z
3 1/2+x,1/2-y,1/2-z
4 -x,1/2+y,-z
5 -x,-y,-z
6 1/2+x,y,1/2-z
7 1/2-x,1/2+y,1/2+z
8 x,1/2-y,z
_cell_length_a                   7.0350(6)
_cell_length_b                   30.007(3)
_cell_length_c                   10.3080(9)
_cell_angle_alpha                90
_cell_angle_beta                 90
_cell_angle_gamma                90
_cell_volume                     2176.01
loop_
_atom_site_label
_atom_site_type_symbol
_atom_site_fract_x
_atom_site_fract_y
_atom_site_fract_z
Zn1 Zn 0.3497(1) 0.4633(1) 0.4625(1)
Mo1 Mo 0.8449(1) 0.4441(1) 0.3869(1)
O1 O 0.6604(5) 0.4763(1) 0.4671(4)
O2 O 0.7807(7) 0.3891(2) 0.3932(5)
O3 O 0.3739(6) 0.4604(2) 0.2751(4)
O4 O 0.0610(5) 0.4502(1) 0.4701(4)
C1 C 0.4162(8) 0.4097(2) 0.7070(5)
C2 C 0.4323(8) 0.3713(2) 0.7812(5)
C3 C 0.4260(8) 0.3303(2) 0.7192(5)
C4 C 0.4050(8) 0.3294(2) 0.5843(5)
C5 C 0.3891(8) 0.3692(2) 0.5179(5)
C6 C 0.4419(8) 0.2879(2) 0.7906(5)
C7 C 0.5068(11) 0.2500 0.9758(7)
C8 C 0.5631(12) 0.2500 1.1140(7)
C9 C 0.5851(9) 0.2897(2) 1.1806(6)
C10 C 0.6222(8) 0.2881(2) 1.3133(6)
N1 N 0.3946(6) 0.4088(2) 0.5771(4)
N2 N 0.4889(7) 0.2897(2) 0.9167(5)
N3 N 0.4136(9) 0.2500 0.7230(6)
N4 N 0.6385(10) 0.2500 1.3802(6)
H1 H 0.4205 0.4372 0.7487
H2 H 0.4470 0.3730 0.8707
H3 H 0.4018 0.3024 0.5399
H4 H 0.3739 0.3684 0.4283
H5 H 0.5754 0.3169 1.1378
H6 H 0.6364 0.3149 1.3577
C10G C 0.6222(8) 0.2119(2) 1.3133(6)
C9G C 0.5851(9) 0.2103(2) 1.1806(6)
H5G H 0.5754 0.1831 1.1378
H6G H 0.6364 0.1851 1.3577
N2G N 0.4889(7) 0.2103(2) 0.9167(5)
C6G C 0.4419(8) 0.2121(2) 0.7906(5)
C3G C 0.4260(8) 0.1697(2) 0.7192(5)
C2G C 0.4323(8) 0.1287(2) 0.7812(5)
C1G C 0.4162(8) 0.0903(2) 0.7070(5)
N1G N 0.3946(6) 0.0912(2) 0.5771(4)
C5G C 0.3891(8) 0.1308(2) 0.5179(5)
C4G C 0.4050(8) 0.1706(2) 0.5843(5)
H3G H 0.4018 0.1976 0.5399
H4G H 0.3739 0.1316 0.4283
H1G H 0.4205 0.0628 0.7487
H2G H 0.4470 0.1270 0.8707
O1D O 0.3396(5) 0.5237(1) 0.5329(4)
Zn1D Zn 0.6503(1) 0.5367(1) 0.5375(1)
Mo1D Mo 0.1551(1) 0.5559(1) 0.6131(1)
O3E O 0.8739(6) 0.4604(2) 0.2249(4)
O4_2 O 1.0610(5) 0.4502(1) 0.4701(4)
O2D O 0.2193(7) 0.6109(2) 0.6068(5)
Mo1E Mo 0.3449(1) 0.4441(1) 0.1131(1)
Mo1_2 Mo -0.1551(1) 0.4441(1) 0.3869(1)
Zn1G Zn 0.3497(1) 0.0367(1) 0.4625(1)
O3D O 0.6261(6) 0.5396(2) 0.7249(4)
O4D O 0.9390(5) 0.5498(1) 0.5299(4)
N1D N 0.6054(6) 0.5912(2) 0.4229(4)
O3A O 0.1261(6) 0.5396(2) 0.7751(4)
O4D_2 O -0.0610(5) 0.5498(1) 0.5299(4)
Zn1E Zn 0.8497(1) 0.4633(1) 0.0375(1)
Zn1_2 Zn 1.3497(1) 0.4633(1) 0.4625(1)
loop_
_geom_bond_atom_site_label_1
_geom_bond_atom_site_label_2
_geom_bond_site_symmetry_1
_geom_bond_site_symmetry_2
Zn1 O1 1_555 1_555
Mo1 O1 1_555 1_555
O1 Zn1D 1_555 1_555
O2 Mo1 1_555 1_555
O3 Zn1 1_555 1_555
O4 Zn1 1_555 1_555
C1 C2 1_555 1_555
C2 C3 1_555 1_555
C3 C4 1_555 1_555
C4 C5 1_555 1_555
C5 N1 1_555 1_555
C6 C3 1_555 1_555
C7 C8 1_555 1_555
C8 C9 1_555 1_555
C9 C10 1_555 1_555
C10 N4 1_555 1_555
N1 Zn1 1_555 1_555
N2 C6 1_555 1_555
N3 C6 1_555 1_555
N4 C10G 1_555 1_555
H1 C1 1_555 1_555
H2 C2 1_555 1_555
H3 C4 1_555 1_555
H4 C5 1_555 1_555
H5 C9 1_555 1_555
H6 C10 1_555 1_555
C10G C9G 1_555 1_555
C9G C8 1_555 1_555
H5G C9G 1_555 1_555
H6G C10G 1_555 1_555
N2G C7 1_555 1_555
C6G N3 1_555 1_555
C3G C6G 1_555 1_555
C2G C3G 1_555 1_555
C1G C2G 1_555 1_555
N1G C1G 1_555 1_555
C5G N1G 1_555 1_555
C4G C3G 1_555 1_555
H3G C4G 1_555 1_555
H4G C5G 1_555 1_555
H1G C1G 1_555 1_555
H2G C2G 1_555 1_555
O1D Zn1 1_555 1_555
Zn1D Zn1 1_555 1_555
Mo1D O1D 1_555 1_555
O3E Mo1 1_555 1_555
O4_2 Mo1 1_555 1_555
O2D Mo1D 1_555 1_555
Mo1E O3 1_555 1_555
Mo1_2 O4 1_555 1_555
Zn1G N1G 1_555 1_555
O3D Zn1D 1_555 1_555
O4D Zn1D 1_555 1_555
N1D Zn1D 1_555 1_555
O3A Mo1D 1_555 1_555
O4D_2 Mo1D 1_555 1_555
Zn1E O3E 1_555 1_555
Zn1_2 O4_2 1_555 1_555
C1 N1 1_555 1_555
C7 N2 1_555 1_555
N2G C6G 1_555 1_555
C5G C4G 1_555 1_555
O1D Zn1D 1_555 1_555

#END
