
#######################################################################
#
#                 Cambridge Crystallographic Data Centre
#                                CCDC 
#
#######################################################################
#
# If this CIF has been generated from an entry in the Cambridge 
# Structural Database, then it will include bibliographic, chemical, 
# crystal, experimental, refinement or atomic coordinate data resulting 
# from the CCDC's data processing and validation procedures.
#
#######################################################################

data_CACROP
_symmetry_cell_setting           monoclinic
_symmetry_space_group_name_H-M   'C c'
_symmetry_Int_Tables_number      9
_space_group_name_Hall           'C -2yc'
loop_
_symmetry_equiv_pos_site_id
_symmetry_equiv_pos_as_xyz
1 x,y,z
2 x,-y,1/2+z
3 1/2+x,1/2+y,z
4 1/2+x,1/2-y,1/2+z
_cell_length_a                   10.8987(3)
_cell_length_b                   16.1660(3)
_cell_length_c                   8.9457(2)
_cell_angle_alpha                90
_cell_angle_beta                 95.6250(10)
_cell_angle_gamma                90
_cell_volume                     1568.54
loop_
_atom_site_label
_atom_site_type_symbol
_atom_site_fract_x
_atom_site_fract_y
_atom_site_fract_z
Cd1 Cd 1.02651(7) 1.257876(9) 0.38528(8)
O1 O 0.9606(3) 1.3905(3) 0.2822(4)
O2 O 0.8888(3) 1.22010(19) 0.1839(4)
H1 H 0.8868 1.1676 0.1783
H2 H 0.8174 1.2382 0.1968
O3 O 1.0858(3) 1.3888(3) 0.4903(4)
O5 O 1.1720(3) 1.19672(19) 0.5886(4)
O7 O 1.0591(2) 1.11578(13) 0.4319(3)
N1 N 0.8618(8) 1.2528(2) 0.5410(10)
N2 N 0.6882(8) 1.2477(2) 0.7195(10)
C1 C 0.7791(4) 1.1820(2) 0.5078(5)
H7 H 0.7348 1.1889 0.4065
H8 H 0.8286 1.1306 0.5073
C2 C 0.6842(4) 1.1736(2) 0.6247(5)
H9 H 0.7035 1.1241 0.6878
H10 H 0.6004 1.1668 0.5726
C3 C 0.7862(4) 1.3283(2) 0.5311(5)
H11 H 0.8362 1.3745 0.5664
H12 H 0.7646 1.3421 0.4164
C4 C 0.6751(4) 1.3208(2) 0.6252(5)
H13 H 0.5978 1.3171 0.5575
H14 H 0.6704 1.3706 0.6888
C5 C 0.8112(4) 1.2503(3) 0.8086(4)
H15 H 0.8202 1.3028 0.8656
H16 H 0.8183 1.2040 0.8814
C6 C 0.9136(4) 1.2435(3) 0.7017(4)
H17 H 0.9547 1.1890 0.7155
H18 H 0.9762 1.2870 0.7269
C7 C 1.0214(6) 1.42760(15) 0.3857(8)
C8 C 1.0262(7) 1.52100(16) 0.3890(10)
H19 H 1.0442 1.5417 0.2905
H20 H 1.0910 1.5391 0.4657
H21 H 0.9465 1.5428 0.4128
C9 C 1.1384(3) 1.12578(18) 0.5455(4)
C10 C 1.1895(4) 1.0503(2) 0.6256(5)
H22 H 1.2495 1.0668 0.7090
H23 H 1.2302 1.0155 0.5555
H24 H 1.1224 1.0192 0.6646
Cd1C Cd 0.52651(7) 1.242124(9) 0.88528(8)
N2C N 1.1882(8) 1.2523(2) 0.2195(10)
O4 O 0.9244(2) 0.97585(14) 0.3586(3)
H3 H 0.8770 0.9986 0.2895
H4 H 0.9611 1.0199 0.3899
O6 O 0.8104(3) 0.94042(16) 0.6093(3)
H5 H 0.8488 0.9498 0.5328
H6 H 0.7330 0.9348 0.5896
loop_
_geom_bond_atom_site_label_1
_geom_bond_atom_site_label_2
_geom_bond_site_symmetry_1
_geom_bond_site_symmetry_2
Cd1 O1 1_555 1_555
O1 C7 1_555 1_555
O2 Cd1 1_555 1_555
H1 O2 1_555 1_555
H2 O2 1_555 1_555
O3 Cd1 1_555 1_555
O4 H3 1_555 1_555
H4 O4 1_555 1_555
O5 Cd1 1_555 1_555
O6 H5 1_555 1_555
H6 O6 1_555 1_555
O7 Cd1 1_555 1_555
N1 Cd1 1_555 1_555
N2 C2 1_555 1_555
C1 N1 1_555 1_555
H7 C1 1_555 1_555
H8 C1 1_555 1_555
C2 C1 1_555 1_555
H9 C2 1_555 1_555
H10 C2 1_555 1_555
C3 N1 1_555 1_555
H11 C3 1_555 1_555
H12 C3 1_555 1_555
C4 N2 1_555 1_555
H13 C4 1_555 1_555
H14 C4 1_555 1_555
C5 N2 1_555 1_555
H15 C5 1_555 1_555
H16 C5 1_555 1_555
C6 N1 1_555 1_555
H17 C6 1_555 1_555
H18 C6 1_555 1_555
C7 O3 1_555 1_555
C8 C7 1_555 1_555
H19 C8 1_555 1_555
H20 C8 1_555 1_555
H21 C8 1_555 1_555
C9 O5 1_555 1_555
C10 C9 1_555 1_555
H22 C10 1_555 1_555
H23 C10 1_555 1_555
H24 C10 1_555 1_555
Cd1C N2 1_555 1_555
N2C Cd1 1_555 1_555
O7 C9 1_555 1_555
C3 C4 1_555 1_555
C5 C6 1_555 1_555

#END
