
#######################################################################
#
#                 Cambridge Crystallographic Data Centre
#                                CCDC 
#
#######################################################################
#
# If this CIF has been generated from an entry in the Cambridge 
# Structural Database, then it will include bibliographic, chemical, 
# crystal, experimental, refinement or atomic coordinate data resulting 
# from the CCDC's data processing and validation procedures.
#
#######################################################################

data_CACRAB
_symmetry_cell_setting           monoclinic
_symmetry_space_group_name_H-M   'P 21/n'
_symmetry_Int_Tables_number      14
_space_group_name_Hall           '-P 2yn'
loop_
_symmetry_equiv_pos_site_id
_symmetry_equiv_pos_as_xyz
1 x,y,z
2 1/2-x,1/2+y,1/2-z
3 -x,-y,-z
4 1/2+x,1/2-y,1/2+z
_cell_length_a                   13.064(2)
_cell_length_b                   11.432(2)
_cell_length_c                   16.064(3)
_cell_angle_alpha                90
_cell_angle_beta                 103.123(2)
_cell_angle_gamma                90
_cell_volume                     2336.47
loop_
_atom_site_label
_atom_site_type_symbol
_atom_site_fract_x
_atom_site_fract_y
_atom_site_fract_z
Sn1 Sn 0.258784(13) 0.824659(14) 1.216424(9)
O1 O 0.30466(14) 0.66317(13) 1.15662(11)
O2 O 0.28503(13) 0.50893(14) 1.23611(9)
O3 O 0.2602(2) 0.6002(3) 0.77607(16)
O4 O 0.3458(3) 0.6736(2) 0.89374(17)
N1 N 0.3171(2) 0.5909(3) 0.84718(17)
C1 C 0.30129(18) 0.5539(2) 1.16889(14)
C2 C 0.3182(2) 0.4775(2) 1.09907(15)
H1 H 0.3095 0.3974 1.1048
C3 C 0.3445(2) 0.5142(2) 1.02982(15)
H2 H 0.3502 0.5946 1.0234
C4 C 0.11853(19) 0.7500(2) 1.23850(15)
C5 C 0.0242(2) 0.7672(3) 1.1806(2)
H3 H 0.0224 0.8135 1.1327
C6 C -0.0682(2) 0.7168(3) 1.1925(2)
H4 H -0.1311 0.7293 1.1528
C7 C -0.0663(3) 0.6484(3) 1.2630(2)
H5 H -0.1281 0.6153 1.2716
C8 C 0.0265(2) 0.6293(3) 1.32048(19)
H6 H 0.0279 0.5820 1.3679
C9 C 0.1184(2) 0.6796(2) 1.30877(17)
H7 H 0.1811 0.6660 1.3486
C10 C 0.24564(19) 0.9094(2) 1.09611(14)
C11 C 0.1724(2) 0.9977(2) 1.06971(15)
H8 H 0.1254 1.0167 1.1032
C12 C 0.1684(3) 1.0577(2) 0.99404(17)
H9 H 0.1197 1.1175 0.9778
C13 C 0.2354(3) 1.0296(3) 0.94325(18)
H10 H 0.2332 1.0708 0.8929
C14 C 0.3057(3) 0.9407(3) 0.96691(19)
H11 H 0.3503 0.9199 0.9317
C15 C 0.3114(2) 0.8808(3) 1.04342(17)
H12 H 0.3602 0.8209 1.0590
C16 C 0.40109(19) 0.8285(2) 1.31249(14)
C17 C 0.4446(2) 0.9319(2) 1.35006(17)
H13 H 0.4116 1.0027 1.3327
C18 C 0.5371(3) 0.9308(3) 1.4134(2)
H14 H 0.5655 1.0008 1.4376
C19 C 0.5864(2) 0.8278(3) 1.4402(2)
H15 H 0.6473 0.8271 1.4834
C20 C 0.5454(2) 0.7257(3) 1.4029(2)
H16 H 0.5791 0.6554 1.4208
C21 C 0.4547(2) 0.7254(2) 1.33903(18)
H17 H 0.4290 0.6551 1.3134
C22 C 0.3662(2) 0.4395(2) 0.96085(16)
C23 C 0.3534(2) 0.4734(3) 0.87550(16)
C24 C 0.3728(3) 0.3976(4) 0.81330(19)
H18 H 0.3629 0.4228 0.7570
C25 C 0.4061(3) 0.2864(3) 0.8343(2)
H19 H 0.4201 0.2358 0.7930
C26 C 0.4187(3) 0.2501(3) 0.9171(2)
H20 H 0.4409 0.1740 0.9318
C27 C 0.3991(3) 0.3243(3) 0.9792(2)
H21 H 0.4081 0.2970 1.0349
Sn1A Sn 0.241216(13) 0.324659(14) 1.283576(9)
O2A O 0.21497(13) 1.00893(14) 1.26389(9)
loop_
_geom_bond_atom_site_label_1
_geom_bond_atom_site_label_2
_geom_bond_site_symmetry_1
_geom_bond_site_symmetry_2
Sn1 O1 1_555 1_555
O1 C1 1_555 1_555
O2 C1 1_555 1_555
O3 N1 1_555 1_555
O4 N1 1_555 1_555
N1 C23 1_555 1_555
C1 C2 1_555 1_555
C2 H1 1_555 1_555
C3 C2 1_555 1_555
H2 C3 1_555 1_555
C4 Sn1 1_555 1_555
C5 C4 1_555 1_555
H3 C5 1_555 1_555
C6 C5 1_555 1_555
H4 C6 1_555 1_555
C7 C6 1_555 1_555
H5 C7 1_555 1_555
C8 C7 1_555 1_555
H6 C8 1_555 1_555
C9 C4 1_555 1_555
H7 C9 1_555 1_555
C10 Sn1 1_555 1_555
C11 C10 1_555 1_555
H8 C11 1_555 1_555
C12 C11 1_555 1_555
H9 C12 1_555 1_555
C13 C12 1_555 1_555
H10 C13 1_555 1_555
C14 C13 1_555 1_555
H11 C14 1_555 1_555
C15 C10 1_555 1_555
H12 C15 1_555 1_555
C16 Sn1 1_555 1_555
C17 C16 1_555 1_555
H13 C17 1_555 1_555
C18 C17 1_555 1_555
H14 C18 1_555 1_555
C19 C18 1_555 1_555
H15 C19 1_555 1_555
C20 C19 1_555 1_555
H16 C20 1_555 1_555
C21 C16 1_555 1_555
H17 C21 1_555 1_555
C22 C3 1_555 1_555
C23 C22 1_555 1_555
C24 C23 1_555 1_555
H18 C24 1_555 1_555
C25 C24 1_555 1_555
H19 C25 1_555 1_555
C26 C25 1_555 1_555
H20 C26 1_555 1_555
C27 C22 1_555 1_555
H21 C27 1_555 1_555
Sn1A O2 1_555 1_555
O2A Sn1 1_555 1_555
C8 C9 1_555 1_555
C14 C15 1_555 1_555
C20 C21 1_555 1_555
C26 C27 1_555 1_555

#END
