
#######################################################################
#
#                 Cambridge Crystallographic Data Centre
#                                CCDC 
#
#######################################################################
#
# If this CIF has been generated from an entry in the Cambridge 
# Structural Database, then it will include bibliographic, chemical, 
# crystal, experimental, refinement or atomic coordinate data resulting 
# from the CCDC's data processing and validation procedures.
#
#######################################################################

data_CACSOQ
_symmetry_cell_setting           orthorhombic
_symmetry_space_group_name_H-M   'P b c a'
_symmetry_Int_Tables_number      61
_space_group_name_Hall           '-P 2ac 2ab'
loop_
_symmetry_equiv_pos_site_id
_symmetry_equiv_pos_as_xyz
1 x,y,z
2 1/2-x,-y,1/2+z
3 -x,1/2+y,1/2-z
4 1/2+x,1/2-y,-z
5 -x,-y,-z
6 1/2+x,y,1/2-z
7 x,1/2-y,1/2+z
8 1/2-x,1/2+y,z
_cell_length_a                   14.5587(14)
_cell_length_b                   20.683(2)
_cell_length_c                   23.360(2)
_cell_angle_alpha                90
_cell_angle_beta                 90
_cell_angle_gamma                90
_cell_volume                     7034.11
loop_
_atom_site_label
_atom_site_type_symbol
_atom_site_fract_x
_atom_site_fract_y
_atom_site_fract_z
Yb1 Yb -0.17648(5) 0.21790(3) 1.09747(3)
Yb2 Yb 0.07565(5) 0.35586(4) 1.02363(3)
N1 N -0.2435(10) 0.2180(7) 1.2092(6)
N2 N -0.0846(9) 0.1522(6) 1.1848(6)
O1 O -0.0390(7) 0.1715(5) 1.0577(4)
O2 O 0.0691(7) 0.2447(5) 1.0581(4)
O3 O 0.3751(6) 0.1892(4) 0.9712(4)
O4 O 0.4251(6) 0.0961(4) 1.0050(4)
O5 O -0.0975(7) 0.2994(5) 1.1542(4)
O6 O 0.0071(6) 0.3675(4) 1.1205(4)
O7 O -0.1292(7) 0.5761(5) 1.0571(4)
O8 O -0.2454(7) 0.6177(5) 1.1064(4)
O9 O -0.3223(7) 0.2738(5) 1.0947(4)
O10 O -0.4308(7) 0.2123(5) 1.0594(4)
O11 O -0.7859(7) 0.3776(5) 1.0789(5)
O12 O -0.7324(7) 0.3169(5) 1.0093(4)
O13 O 0.0773(7) 0.4766(5) 1.0545(4)
H1 H 0.0788 0.5153 1.0422
H2 H 0.0973 0.4761 1.0886
C1 C 0.0408(10) 0.1884(7) 1.0507(6)
C2 C 0.3599(9) 0.1340(6) 0.9919(6)
C3 C 0.1099(9) 0.1391(7) 1.0320(6)
C4 C 0.1987(9) 0.1573(7) 1.0194(6)
H5 H 0.2154 0.2006 1.0223
C5 C 0.2621(9) 0.1130(6) 1.0027(6)
C6 C 0.2393(10) 0.0489(6) 0.9991(6)
H6 H 0.2849 0.0183 0.9922
C7 C 0.1501(10) 0.0292(7) 1.0056(7)
H7 H 0.1334 -0.0131 0.9973
C8 C 0.0837(10) 0.0741(7) 1.0252(6)
H8 H 0.0241 0.0609 1.0333
C9 C -0.0681(9) 0.3541(7) 1.1441(6)
C10 C -0.1866(10) 0.5752(7) 1.0962(6)
C11 C -0.1302(10) 0.4114(7) 1.1593(6)
C12 C -0.1261(9) 0.4671(6) 1.1263(6)
H9 H -0.0824 0.4708 1.0974
C13 C -0.1866(10) 0.5170(6) 1.1360(6)
C14 C -0.2489(11) 0.5113(7) 1.1808(6)
H10 H -0.2894 0.5449 1.1885
C15 C -0.2513(12) 0.4577(8) 1.2130(7)
H11 H -0.2928 0.4553 1.2431
C16 C -0.1946(11) 0.4065(7) 1.2029(7)
H12 H -0.1991 0.3690 1.2247
C17 C -0.4034(10) 0.2630(8) 1.0813(6)
C18 C -0.7205(10) 0.3488(7) 1.0525(7)
C19 C -0.4754(10) 0.3140(7) 1.0938(6)
C20 C -0.5603(10) 0.3079(7) 1.0713(6)
H13 H -0.5741 0.2723 1.0485
C21 C -0.6273(10) 0.3541(7) 1.0817(6)
C22 C -0.6076(11) 0.4055(8) 1.1171(7)
H14 H -0.6534 0.4347 1.1273
C23 C -0.5174(12) 0.4134(8) 1.1377(8)
H15 H -0.5020 0.4501 1.1586
C24 C -0.4525(11) 0.3674(8) 1.1272(7)
H16 H -0.3936 0.3715 1.1421
C25 C -0.3208(14) 0.2453(9) 1.2231(8)
H17 H -0.3594 0.2575 1.1933
C26 C -0.3514(15) 0.2580(10) 1.2796(9)
H18 H -0.4057 0.2797 1.2879
C27 C -0.2938(16) 0.2354(10) 1.3202(9)
H19 H -0.3098 0.2415 1.3584
C28 C -0.2172(15) 0.2057(10) 1.3090(8)
C29 C -0.1922(13) 0.1950(8) 1.2524(7)
C30 C -0.1082(13) 0.1614(9) 1.2400(8)
C31 C -0.0550(15) 0.1371(10) 1.2849(9)
C32 C 0.0230(15) 0.1011(10) 1.2687(9)
H20 H 0.0598 0.0843 1.2976
C33 C 0.0462(14) 0.0904(10) 1.2176(9)
H21 H 0.0985 0.0667 1.2087
C34 C -0.0118(12) 0.1163(8) 1.1741(8)
H22 H 0.0025 0.1074 1.1362
C35 C -0.1565(16) 0.1812(11) 1.3543(9)
H23 H -0.1726 0.1886 1.3923
C36 C -0.0856(16) 0.1515(11) 1.3441(9)
H24 H -0.0496 0.1375 1.3746
Yb1C Yb 0.32352(5) 0.28210(3) 0.90253(3)
Yb1G Yb -0.32352(5) 0.71790(3) 1.09747(3)
Yb1C_2 Yb -0.67648(5) 0.28210(3) 0.90253(3)
Yb2C Yb 0.57565(5) 0.14414(4) 0.97637(3)
Yb2D Yb -0.07565(5) 0.64414(4) 0.97637(3)
Yb2C_2 Yb -0.42435(5) 0.14414(4) 0.97637(3)
Yb2_2 Yb -0.92435(5) 0.35586(4) 1.02363(3)
O3C O -0.1249(6) 0.3108(4) 1.0288(4)
O4C O -0.0749(6) 0.4039(4) 0.9950(4)
O7D O 0.1292(7) 0.4239(5) 0.9429(4)
O8G O -0.2546(7) 0.1177(5) 1.1064(4)
O10C O 0.0692(7) 0.2877(5) 0.9406(4)
O11_2 O 0.2141(7) 0.3776(5) 1.0789(5)
O12C O -0.2324(7) 0.1831(5) 0.9907(4)
O12_2 O 0.2676(7) 0.3169(5) 1.0093(4)
O14 O 0.3740(18) 0.5366(12) 0.6661(10)
H3 H 0.4172 0.5628 0.6737
H4 H 0.3273 0.5583 0.6557
Br1? Br 0.3382(14) 0.5524(9) 0.7263(8)
loop_
_geom_bond_atom_site_label_1
_geom_bond_atom_site_label_2
_geom_bond_site_symmetry_1
_geom_bond_site_symmetry_2
Yb1 N1 1_555 1_555
Yb2 O2 1_555 1_555
N1 C25 1_555 1_555
N2 Yb1 1_555 1_555
O1 Yb1 1_555 1_555
O2 C1 1_555 1_555
O3 C2 1_555 1_555
O4 C2 1_555 1_555
O5 Yb1 1_555 1_555
O6 Yb2 1_555 1_555
O7 C10 1_555 1_555
O8 C10 1_555 1_555
O9 Yb1 1_555 1_555
O10 C17 1_555 1_555
O11 C18 1_555 1_555
O12 C18 1_555 1_555
O13 Yb2 1_555 1_555
H1 O13 1_555 1_555
H2 O13 1_555 1_555
O14 H3 1_555 1_555
H4 O14 1_555 1_555
C1 O1 1_555 1_555
C2 C5 1_555 1_555
C3 C1 1_555 1_555
C4 C3 1_555 1_555
H5 C4 1_555 1_555
C5 C4 1_555 1_555
C6 C5 1_555 1_555
H6 C6 1_555 1_555
C7 C6 1_555 1_555
H7 C7 1_555 1_555
C8 C3 1_555 1_555
H8 C8 1_555 1_555
C9 O5 1_555 1_555
C10 C13 1_555 1_555
C11 C9 1_555 1_555
C12 C11 1_555 1_555
H9 C12 1_555 1_555
C13 C12 1_555 1_555
C14 C13 1_555 1_555
H10 C14 1_555 1_555
C15 C14 1_555 1_555
H11 C15 1_555 1_555
C16 C11 1_555 1_555
H12 C16 1_555 1_555
C17 O9 1_555 1_555
C18 C21 1_555 1_555
C19 C17 1_555 1_555
C20 C19 1_555 1_555
H13 C20 1_555 1_555
C21 C20 1_555 1_555
C22 C21 1_555 1_555
H14 C22 1_555 1_555
C23 C22 1_555 1_555
H15 C23 1_555 1_555
C24 C19 1_555 1_555
H16 C24 1_555 1_555
C25 H17 1_555 1_555
C26 C25 1_555 1_555
H18 C26 1_555 1_555
C27 C26 1_555 1_555
H19 C27 1_555 1_555
C28 C27 1_555 1_555
C29 N1 1_555 1_555
C30 N2 1_555 1_555
C31 C30 1_555 1_555
C32 C31 1_555 1_555
H20 C32 1_555 1_555
C33 C32 1_555 1_555
H21 C33 1_555 1_555
C34 N2 1_555 1_555
H22 C34 1_555 1_555
C35 C28 1_555 1_555
H23 C35 1_555 1_555
C36 C31 1_555 1_555
H24 C36 1_555 1_555
Yb1C O3 1_555 1_555
Yb1G O8 1_555 1_555
Yb1C_2 O12 1_555 1_555
Yb2C O4 1_555 1_555
Yb2D O7 1_555 1_555
Yb2C_2 O10 1_555 1_555
Yb2_2 O11 1_555 1_555
O3C Yb1 1_555 1_555
O4C Yb2 1_555 1_555
O7D Yb2 1_555 1_555
O8G Yb1 1_555 1_555
O10C Yb2 1_555 1_555
O11_2 Yb2 1_555 1_555
O12C Yb1 1_555 1_555
O12_2 Yb2 1_555 1_555
O6 C9 1_555 1_555
O12 Yb2_2 1_555 1_555
C7 C8 1_555 1_555
C15 C16 1_555 1_555
C23 C24 1_555 1_555
C28 C29 1_555 1_555
C29 C30 1_555 1_555
C33 C34 1_555 1_555
C35 C36 1_555 1_555
Yb1C O12_2 1_555 1_555
Yb2C_2 O12C 1_555 1_555

#END
