
#######################################################################
#
#                 Cambridge Crystallographic Data Centre
#                                CCDC 
#
#######################################################################
#
# If this CIF has been generated from an entry in the Cambridge 
# Structural Database, then it will include bibliographic, chemical, 
# crystal, experimental, refinement or atomic coordinate data resulting 
# from the CCDC's data processing and validation procedures.
#
#######################################################################

data_CACSIK
_symmetry_cell_setting           orthorhombic
_symmetry_space_group_name_H-M   'P b c a'
_symmetry_Int_Tables_number      61
_space_group_name_Hall           '-P 2ac 2ab'
loop_
_symmetry_equiv_pos_site_id
_symmetry_equiv_pos_as_xyz
1 x,y,z
2 1/2-x,-y,1/2+z
3 1/2+x,1/2-y,-z
4 -x,1/2+y,1/2-z
5 -x,-y,-z
6 1/2+x,y,1/2-z
7 1/2-x,1/2+y,z
8 x,1/2-y,1/2+z
_cell_length_a                   14.4930(15)
_cell_length_b                   20.638(2)
_cell_length_c                   23.459(3)
_cell_angle_alpha                90
_cell_angle_beta                 90
_cell_angle_gamma                90
_cell_volume                     7016.74
loop_
_atom_site_label
_atom_site_type_symbol
_atom_site_fract_x
_atom_site_fract_y
_atom_site_fract_z
Pr1 Pr 0.6756 0.2814 0.5985
Pr2 Pr 0.4232 0.1432 0.5238
N1 N 0.5852(9) 0.3466(6) 0.6836(5)
N2 N 0.7444(9) 0.2807(7) 0.7073(5)
O1 O 0.5393(6) 0.3259(4) 0.5587(4)
O2 O 0.4282(6) 0.2521(4) 0.5582(4)
O3 O 0.1248(6) 0.3095(4) 0.4703(4)
O4 O 0.0735(5) 0.4019(4) 0.5041(4)
O5 O 0.5978(6) 0.2002(4) 0.6530(4)
O6 O 0.4924(6) 0.1319(4) 0.6189(4)
O7 O 0.6322(6) -0.0768(4) 0.5551(4)
O8 O 0.7470(7) -0.1195(5) 0.6062(4)
O9 O 0.8207(6) 0.2276(4) 0.5941(4)
O10 O 0.9308(6) 0.2888(5) 0.5569(4)
O11 O 1.2842(6) 0.1212(5) 0.5792(5)
O12 O 1.2332(6) 0.1826(5) 0.5084(4)
O13 O 0.4221(6) 0.0235(4) 0.5535(4)
H1 H 0.4216 -0.0153 0.5414
H2 H 0.4038 0.0237 0.5879
C1 C 0.4569(8) 0.3080(7) 0.5521(6)
C2 C 0.1385(8) 0.3649(6) 0.4916(5)
C3 C 0.3902(8) 0.3591(6) 0.5327(6)
C4 C 0.3000(8) 0.3406(6) 0.5206(5)
H5 H 0.2829 0.2973 0.5240
C5 C 0.2359(8) 0.3861(6) 0.5036(5)
C6 C 0.2603(9) 0.4504(6) 0.4983(5)
H6 H 0.2164 0.4814 0.4886
C7 C 0.3517(9) 0.4683(6) 0.5078(6)
H7 H 0.3696 0.5111 0.5019
C8 C 0.4166(9) 0.4233(7) 0.5259(6)
H8 H 0.4770 0.4359 0.5334
C9 C 0.5688(8) 0.1449(6) 0.6430(5)
C10 C 0.6880(9) -0.0762(6) 0.5963(6)
C11 C 0.6310(9) 0.0880(6) 0.6576(6)
C12 C 0.6272(8) 0.0318(6) 0.6253(6)
H9 H 0.5827 0.0281 0.5969
C13 C 0.6880(8) -0.0188(6) 0.6344(6)
C14 C 0.7502(10) -0.0130(7) 0.6802(6)
H10 H 0.7905 -0.0469 0.6882
C15 C 0.7523(11) 0.0416(7) 0.7130(7)
H11 H 0.7931 0.0445 0.7435
C16 C 0.6939(10) 0.0925(7) 0.7008(6)
H12 H 0.6974 0.1303 0.7222
C17 C 0.9029(9) 0.2390(7) 0.5803(6)
C18 C 1.2210(9) 0.1503(7) 0.5528(6)
C19 C 0.9727(9) 0.1872(7) 0.5929(6)
C20 C 1.0614(8) 0.1921(7) 0.5702(6)
H13 H 1.0770 0.2279 0.5481
C21 C 1.1261(9) 0.1447(7) 0.5799(6)
C22 C 1.1053(10) 0.0930(8) 0.6150(7)
H14 H 1.1501 0.0622 0.6232
C23 C 1.0162(10) 0.0869(8) 0.6384(8)
H15 H 1.0018 0.0520 0.6619
C24 C 0.9505(10) 0.1334(8) 0.6261(7)
H16 H 0.8908 0.1287 0.6401
C25 C 0.5114(11) 0.3849(8) 0.6737(7)
H17 H 0.4977 0.3943 0.6358
C26 C 0.4543(14) 0.4114(10) 0.7149(8)
H18 H 0.4033 0.4365 0.7052
C27 C 0.4758(15) 0.3993(10) 0.7690(9)
H19 H 0.4382 0.4160 0.7976
C28 C 0.5516(14) 0.3629(10) 0.7844(8)
C29 C 0.6086(12) 0.3359(9) 0.7392(7)
C30 C 0.6909(13) 0.3020(9) 0.7521(7)
C31 C 0.7154(14) 0.2923(10) 0.8093(7)
C32 C 0.7979(15) 0.2614(10) 0.8183(8)
H20 H 0.8166 0.2547 0.8558
C33 C 0.8526(14) 0.2405(10) 0.7771(8)
H21 H 0.9075 0.2190 0.7849
C34 C 0.8236(12) 0.2523(9) 0.7209(7)
H22 H 0.8623 0.2394 0.6914
C35 C 0.5815(16) 0.3488(11) 0.8414(8)
H23 H 0.5451 0.3629 0.8716
C36 C 0.6550(16) 0.3181(10) 0.8526(8)
H24 H 0.6708 0.3119 0.8906
Pr1B Pr 0.1756 0.2186 0.4015
Pr1F Pr 0.8244 -0.2186 0.5985
Pr1B_2 Pr 1.1756 0.2186 0.4015
Pr2B Pr -0.0768 0.3568 0.4762
Pr2D Pr 0.5768 -0.1432 0.4762
Pr2B_2 Pr 0.9232 0.3568 0.4762
Pr2_2 Pr 1.4232 0.1432 0.5238
O3B O 0.6248(6) 0.1905(4) 0.5297(4)
O4B O 0.5735(5) 0.0981(4) 0.4959(4)
O7D O 0.3678(6) 0.0768(4) 0.4449(4)
O8F O 0.7530(7) 0.3805(5) 0.6062(4)
O10B O 0.4308(6) 0.2112(5) 0.4431(4)
O11_2 O 0.2842(6) 0.1212(5) 0.5792(5)
O12B O 0.7332(6) 0.3174(5) 0.4916(4)
O12_2 O 0.2332(6) 0.1826(5) 0.5084(4)
O14 O 0.636(2) 0.5358(14) 0.8328(13)
H3 H 0.5857 0.5565 0.8379
H4 H 0.6759 0.5517 0.8551
loop_
_geom_bond_atom_site_label_1
_geom_bond_atom_site_label_2
_geom_bond_site_symmetry_1
_geom_bond_site_symmetry_2
Pr1 N1 1_555 1_555
Pr2 O2 1_555 1_555
N1 C25 1_555 1_555
N2 Pr1 1_555 1_555
O1 Pr1 1_555 1_555
O2 C1 1_555 1_555
O3 C2 1_555 1_555
O4 C2 1_555 1_555
O5 Pr1 1_555 1_555
O6 Pr2 1_555 1_555
O7 C10 1_555 1_555
O8 C10 1_555 1_555
O9 Pr1 1_555 1_555
O10 C17 1_555 1_555
O11 C18 1_555 1_555
O12 C18 1_555 1_555
O13 Pr2 1_555 1_555
H1 O13 1_555 1_555
H2 O13 1_555 1_555
O14 H3 1_555 1_555
H4 O14 1_555 1_555
C1 O1 1_555 1_555
C2 C5 1_555 1_555
C3 C1 1_555 1_555
C4 C3 1_555 1_555
H5 C4 1_555 1_555
C5 C4 1_555 1_555
C6 C5 1_555 1_555
H6 C6 1_555 1_555
C7 C6 1_555 1_555
H7 C7 1_555 1_555
C8 C3 1_555 1_555
H8 C8 1_555 1_555
C9 O5 1_555 1_555
C10 C13 1_555 1_555
C11 C9 1_555 1_555
C12 C11 1_555 1_555
H9 C12 1_555 1_555
C13 C12 1_555 1_555
C14 C13 1_555 1_555
H10 C14 1_555 1_555
C15 C14 1_555 1_555
H11 C15 1_555 1_555
C16 C11 1_555 1_555
H12 C16 1_555 1_555
C17 O9 1_555 1_555
C18 C21 1_555 1_555
C19 C17 1_555 1_555
C20 C19 1_555 1_555
H13 C20 1_555 1_555
C21 C20 1_555 1_555
C22 C21 1_555 1_555
H14 C22 1_555 1_555
C23 C22 1_555 1_555
H15 C23 1_555 1_555
C24 C19 1_555 1_555
H16 C24 1_555 1_555
C25 H17 1_555 1_555
C26 C25 1_555 1_555
H18 C26 1_555 1_555
C27 C26 1_555 1_555
H19 C27 1_555 1_555
C28 C27 1_555 1_555
C29 N1 1_555 1_555
C30 N2 1_555 1_555
C31 C30 1_555 1_555
C32 C31 1_555 1_555
H20 C32 1_555 1_555
C33 C32 1_555 1_555
H21 C33 1_555 1_555
C34 N2 1_555 1_555
H22 C34 1_555 1_555
C35 C28 1_555 1_555
H23 C35 1_555 1_555
C36 C31 1_555 1_555
H24 C36 1_555 1_555
Pr1B O3 1_555 1_555
Pr1F O8 1_555 1_555
Pr1B_2 O12 1_555 1_555
Pr2B O4 1_555 1_555
Pr2D O7 1_555 1_555
Pr2B_2 O10 1_555 1_555
Pr2_2 O11 1_555 1_555
O3B Pr1 1_555 1_555
O4B Pr2 1_555 1_555
O7D Pr2 1_555 1_555
O8F Pr1 1_555 1_555
O10B Pr2 1_555 1_555
O11_2 Pr2 1_555 1_555
O12B Pr1 1_555 1_555
O12_2 Pr2 1_555 1_555
O6 C9 1_555 1_555
O12 Pr2_2 1_555 1_555
C7 C8 1_555 1_555
C15 C16 1_555 1_555
C23 C24 1_555 1_555
C28 C29 1_555 1_555
C29 C30 1_555 1_555
C33 C34 1_555 1_555
C35 C36 1_555 1_555
Pr1B O12_2 1_555 1_555
Pr2B_2 O12B 1_555 1_555

#END
