
#######################################################################
#
#                 Cambridge Crystallographic Data Centre
#                                CCDC 
#
#######################################################################
#
# If this CIF has been generated from an entry in the Cambridge 
# Structural Database, then it will include bibliographic, chemical, 
# crystal, experimental, refinement or atomic coordinate data resulting 
# from the CCDC's data processing and validation procedures.
#
#######################################################################

data_CADBIS
_symmetry_cell_setting           monoclinic
_symmetry_space_group_name_H-M   'P 21/c'
_symmetry_Int_Tables_number      14
_space_group_name_Hall           '-P 2ybc'
loop_
_symmetry_equiv_pos_site_id
_symmetry_equiv_pos_as_xyz
1 x,y,z
2 -x,1/2+y,1/2-z
3 -x,-y,-z
4 x,1/2-y,1/2+z
_cell_length_a                   12.9435(11)
_cell_length_b                   13.5769(10)
_cell_length_c                   15.7715(12)
_cell_angle_alpha                90
_cell_angle_beta                 108.919(6)
_cell_angle_gamma                90
_cell_volume                     2621.84
loop_
_atom_site_label
_atom_site_type_symbol
_atom_site_fract_x
_atom_site_fract_y
_atom_site_fract_z
Sn1 Sn 0.64543(7) -0.18567(6) 0.22902(6)
O1 O 0.5401(7) -0.0932(6) 0.1213(5)
O2 O 0.4586(7) -0.0190(7) 0.2090(7)
O3 O 0.2473(8) 0.2020(6) 0.1597(6)
N1 N 0.3098(9) 0.0715(7) 0.0701(7)
C1 C 0.4680(11) -0.0355(11) 0.1376(11)
C2 C 0.3910(11) 0.0089(10) 0.0508(8)
C3 C 0.2074(14) 0.0760(9) 0.0159(8)
C4 C 0.1226(13) 0.1344(10) 0.0277(10)
C5 C 0.0148(13) 0.1283(12) -0.0365(10)
C6 C -0.0133(14) 0.0687(11) -0.1125(12)
C7 C -0.1171(17) 0.0661(12) -0.1691(9)
C8 C -0.2000(14) 0.1238(16) -0.1528(14)
C9 C -0.1733(14) 0.1825(13) -0.0801(14)
C10 C -0.0659(14) 0.1855(13) -0.0205(12)
C11 C -0.0395(16) 0.2485(13) 0.0584(16)
C12 C 0.0610(18) 0.2538(11) 0.1154(11)
C13 C 0.1477(13) 0.1983(11) 0.1021(10)
C14 C 0.7146(11) -0.2419(11) 0.1339(9)
C15 C 0.7185(18) -0.3513(19) 0.1295(15)
C16 C 0.7716(22) -0.3880(22) 0.0589(18)
C17 C 0.794(3) -0.497(3) 0.0634(23)
C18 C 0.5117(10) -0.2588(10) 0.2516(9)
C19 C 0.4927(12) -0.2268(11) 0.3379(11)
C20 C 0.3932(14) -0.2781(15) 0.3532(16)
C21 C 0.3716(20) -0.2460(20) 0.4341(17)
C22 C 0.7300(11) -0.0655(10) 0.3082(8)
C23 C 0.7980(14) -0.0043(12) 0.2622(10)
C24 C 0.8604(15) 0.0809(14) 0.3164(12)
C25 C 0.9190(17) 0.1436(14) 0.2662(16)
H1 H 0.352 -0.048 0.003
H2 H 0.436 0.051 0.017
H3 H 0.186 0.029 -0.043
H4 H 0.045 0.021 -0.129
H5 H -0.143 0.023 -0.230
H6 H -0.286 0.121 -0.196
H7 H -0.231 0.232 -0.066
H8 H -0.101 0.293 0.070
H9 H 0.079 0.298 0.175
H10 H 0.798 -0.218 0.151
H11 H 0.669 -0.216 0.068
H12 H 0.767 -0.384 0.196
H13 H 0.637 -0.386 0.114
H14 H 0.850 -0.345 0.071
H15 H 0.720 -0.364 -0.008
H16 H 0.847 -0.519 0.129
H17 H 0.717 -0.538 0.050
H18 H 0.831 -0.522 0.014
H19 H 0.524 -0.338 0.253
H20 H 0.437 -0.245 0.196
H21 H 0.565 -0.245 0.393
H22 H 0.484 -0.148 0.337
H23 H 0.402 -0.356 0.356
H24 H 0.320 -0.263 0.297
H25 H 0.300 -0.279 0.446
H26 H 0.440 -0.259 0.493
H27 H 0.359 -0.167 0.435
H28 H 0.783 -0.095 0.371
H29 H 0.672 -0.018 0.325
H30 H 0.748 0.022 0.198
H31 H 0.856 -0.052 0.246
H32 H 0.802 0.122 0.339
H33 H 0.917 0.051 0.378
H34 H 0.961 0.203 0.308
H35 H 0.973 0.095 0.248
H36 H 0.856 0.168 0.206
O3A O 0.7527(8) -0.2980(6) 0.3403(6)
Sn1A Sn 0.35457(7) 0.31433(6) 0.27098(6)
loop_
_geom_bond_atom_site_label_1
_geom_bond_atom_site_label_2
_geom_bond_site_symmetry_1
_geom_bond_site_symmetry_2
Sn1 O1 1_555 1_555
O1 C1 1_555 1_555
O2 C1 1_555 1_555
O3 C13 1_555 1_555
N1 C2 1_555 1_555
C1 C2 1_555 1_555
C2 H1 1_555 1_555
C3 N1 1_555 1_555
C4 C3 1_555 1_555
C5 C4 1_555 1_555
C6 C5 1_555 1_555
C7 C6 1_555 1_555
C8 C7 1_555 1_555
C9 C8 1_555 1_555
C10 C5 1_555 1_555
C11 C10 1_555 1_555
C12 C11 1_555 1_555
C13 C4 1_555 1_555
C14 Sn1 1_555 1_555
C15 C14 1_555 1_555
C16 C15 1_555 1_555
C17 C16 1_555 1_555
C18 Sn1 1_555 1_555
C19 C18 1_555 1_555
C20 C19 1_555 1_555
C21 C20 1_555 1_555
C22 Sn1 1_555 1_555
C23 C22 1_555 1_555
C24 C23 1_555 1_555
C25 C24 1_555 1_555
H2 C2 1_555 1_555
H3 C3 1_555 1_555
H4 C6 1_555 1_555
H5 C7 1_555 1_555
H6 C8 1_555 1_555
H7 C9 1_555 1_555
H8 C11 1_555 1_555
H9 C12 1_555 1_555
H10 C14 1_555 1_555
H11 C14 1_555 1_555
H12 C15 1_555 1_555
H13 C15 1_555 1_555
H14 C16 1_555 1_555
H15 C16 1_555 1_555
H16 C17 1_555 1_555
H17 C17 1_555 1_555
H18 C17 1_555 1_555
H19 C18 1_555 1_555
H20 C18 1_555 1_555
H21 C19 1_555 1_555
H22 C19 1_555 1_555
H23 C20 1_555 1_555
H24 C20 1_555 1_555
H25 C21 1_555 1_555
H26 C21 1_555 1_555
H27 C21 1_555 1_555
H28 C22 1_555 1_555
H29 C22 1_555 1_555
H30 C23 1_555 1_555
H31 C23 1_555 1_555
H32 C24 1_555 1_555
H33 C24 1_555 1_555
H34 C25 1_555 1_555
H35 C25 1_555 1_555
H36 C25 1_555 1_555
O3A Sn1 1_555 1_555
Sn1A O3 1_555 1_555
C9 C10 1_555 1_555
C12 C13 1_555 1_555

#END
