
#######################################################################
#
#                 Cambridge Crystallographic Data Centre
#                                CCDC 
#
#######################################################################
#
# If this CIF has been generated from an entry in the Cambridge 
# Structural Database, then it will include bibliographic, chemical, 
# crystal, experimental, refinement or atomic coordinate data resulting 
# from the CCDC's data processing and validation procedures.
#
#######################################################################

data_CADCIT
_symmetry_cell_setting           monoclinic
_symmetry_space_group_name_H-M   'C 2/c'
_symmetry_Int_Tables_number      15
_space_group_name_Hall           '-C 2yn'
loop_
_symmetry_equiv_pos_site_id
_symmetry_equiv_pos_as_xyz
1 x,y,z
2 -x,y,1/2-z
3 1/2+x,1/2+y,z
4 1/2-x,1/2+y,1/2-z
5 -x,-y,-z
6 x,-y,1/2+z
7 1/2-x,1/2-y,-z
8 1/2+x,1/2-y,1/2+z
_cell_length_a                   24.588(14)
_cell_length_b                   9.733(3)
_cell_length_c                   27.611(12)
_cell_angle_alpha                90
_cell_angle_beta                 113.49(4)
_cell_angle_gamma                90
_cell_volume                     6060.14
loop_
_atom_site_label
_atom_site_type_symbol
_atom_site_fract_x
_atom_site_fract_y
_atom_site_fract_z
Sn1 Sn 0.269030(25) 0.09028(5) 0.230910(21)
N1 N 0.2557(4) -0.0970(7) 0.4294(3)
O1 O 0.2518(3) -0.0983(5) 0.27802(21)
O2 O 0.21378(24) -0.2444(5) 0.31664(20)
O3 O 0.3502(3) -0.0484(6) 0.5067(3)
C1 C 0.2278(4) -0.1228(7) 0.3090(3)
C2 C 0.2140(4) -0.0065(7) 0.3384(3)
C3 C 0.2024(4) -0.0498(8) 0.3865(4)
C4 C 0.2627(4) -0.2262(8) 0.4407(3)
C5 C 0.3156(4) -0.2765(9) 0.4830(3)
C6 C 0.3580(5) -0.1786(11) 0.5149(4)
C7 C 0.4091(5) -0.2291(13) 0.5562(5)
C8 C 0.4207(5) -0.3627(14) 0.5663(4)
C9 C 0.3793(5) -0.4667(11) 0.5352(4)
C10 C 0.3888(5) -0.6117(13) 0.5448(5)
C11 C 0.3466(7) -0.7065(11) 0.5138(6)
C12 C 0.2952(6) -0.6626(12) 0.4742(5)
C13 C 0.2840(5) -0.5253(10) 0.4638(4)
C14 C 0.3250(4) -0.4226(9) 0.4934(3)
C15 C 0.3038(4) -0.0596(8) 0.1948(4)
C16 C 0.3603(4) -0.0249(10) 0.1883(4)
C17 C 0.3855(5) -0.1359(10) 0.1652(5)
C18 C 0.4401(6) -0.1012(12) 0.1582(6)
C19 C 0.1747(4) 0.1118(8) 0.1964(3)
C20 C 0.1461(5) 0.1222(13) 0.1378(4)
C21 C 0.0793(5) 0.1353(16) 0.1141(5)
C22 C 0.0528(6) 0.164(3) 0.0609(6)
C23 C 0.3295(4) 0.1771(9) 0.3039(3)
C24 C 0.3730(5) 0.0764(12) 0.3420(4)
C25 C 0.4144(7) 0.1475(18) 0.3938(7)
C26 C 0.4443(12) 0.068(3) 0.4347(8)
H1 H 0.252 0.061 0.353
H2 H 0.177 0.051 0.311
H3 H 0.170 -0.130 0.374
H4 H 0.182 0.034 0.399
H5 H 0.229 -0.298 0.418
H6 H 0.443 -0.159 0.581
H7 H 0.460 -0.401 0.598
H8 H 0.430 -0.642 0.576
H9 H 0.358 -0.814 0.523
H10 H 0.265 -0.741 0.451
H11 H 0.243 -0.494 0.432
H12 H 0.271 -0.079 0.155
H13 H 0.311 -0.155 0.217
H14 H 0.354 0.067 0.165
H15 H 0.393 0.000 0.227
H16 H 0.353 -0.161 0.126
H17 H 0.391 -0.228 0.188
H18 H 0.460 -0.183 0.145
H19 H 0.437 -0.006 0.137
H20 H 0.472 -0.079 0.197
H21 H 0.163 0.204 0.212
H22 H 0.155 0.026 0.209
H23 H 0.165 0.209 0.125
H24 H 0.158 0.030 0.122
H25 H 0.068 0.223 0.132
H26 H 0.061 0.047 0.126
H27 H 0.005 0.156 0.045
H28 H 0.074 0.245 0.047
H29 H 0.063 0.073 0.045
H30 H 0.305 0.222 0.324
H31 H 0.356 0.255 0.296
H32 H 0.350 -0.008 0.351
H33 H 0.401 0.029 0.325
H34 H 0.387 0.214 0.407
H35 H 0.442 0.226 0.388
H36 H 0.470 0.125 0.470
H37 H 0.411 0.002 0.438
H38 H 0.470 0.011 0.418
O2C O 0.28622(24) 0.2556(5) 0.18336(20)
Sn1C Sn 0.230970(25) -0.40972(5) 0.269090(21)
C27 C 0.5101(10) -0.7183(22) 0.2278(8)
C28 C 0.5132(10) -0.4760(23) 0.2308(9)
C29 C 0.5426(10) -0.5994(25) 0.2301(9)
H39 H 0.470 -0.716 0.190
H40 H 0.534 -0.811 0.227
H41 H 0.545 -0.392 0.240
H42 H 0.479 -0.460 0.192
H43 H 0.583 -0.608 0.267
H44 H 0.557 -0.601 0.198
C27A C 0.4899(10) -0.7183(22) 0.2722(8)
C29A C 0.4574(10) -0.5994(25) 0.2699(9)
C28A C 0.4868(10) -0.4760(23) 0.2692(9)
H41A H 0.455 -0.392 0.260
H42A H 0.521 -0.460 0.308
H43A H 0.417 -0.608 0.233
H44A H 0.443 -0.601 0.302
H39A H 0.530 -0.716 0.310
H40A H 0.466 -0.811 0.273
loop_
_geom_bond_atom_site_label_1
_geom_bond_atom_site_label_2
_geom_bond_site_symmetry_1
_geom_bond_site_symmetry_2
Sn1 O1 1_555 1_555
N1 C3 1_555 1_555
O1 C1 1_555 1_555
O2 C1 1_555 1_555
O3 C6 1_555 1_555
C1 C2 1_555 1_555
C2 C3 1_555 1_555
C3 H3 1_555 1_555
C4 N1 1_555 1_555
C5 C4 1_555 1_555
C6 C5 1_555 1_555
C7 C6 1_555 1_555
C8 C7 1_555 1_555
C9 C8 1_555 1_555
C10 C9 1_555 1_555
C11 C10 1_555 1_555
C12 C11 1_555 1_555
C13 C12 1_555 1_555
C14 C5 1_555 1_555
C15 Sn1 1_555 1_555
C16 C15 1_555 1_555
C17 C16 1_555 1_555
C18 C17 1_555 1_555
C19 Sn1 1_555 1_555
C20 C19 1_555 1_555
C21 C20 1_555 1_555
C22 C21 1_555 1_555
C23 Sn1 1_555 1_555
C24 C23 1_555 1_555
C25 C24 1_555 1_555
C26 C25 1_555 1_555
C27 C29 1_555 1_555
C28 C29 1_555 1_555
C29 H43 1_555 1_555
H1 C2 1_555 1_555
H2 C2 1_555 1_555
H4 C3 1_555 1_555
H5 C4 1_555 1_555
H6 C7 1_555 1_555
H7 C8 1_555 1_555
H8 C10 1_555 1_555
H9 C11 1_555 1_555
H10 C12 1_555 1_555
H11 C13 1_555 1_555
H12 C15 1_555 1_555
H13 C15 1_555 1_555
H14 C16 1_555 1_555
H15 C16 1_555 1_555
H16 C17 1_555 1_555
H17 C17 1_555 1_555
H18 C18 1_555 1_555
H19 C18 1_555 1_555
H20 C18 1_555 1_555
H21 C19 1_555 1_555
H22 C19 1_555 1_555
H23 C20 1_555 1_555
H24 C20 1_555 1_555
H25 C21 1_555 1_555
H26 C21 1_555 1_555
H27 C22 1_555 1_555
H28 C22 1_555 1_555
H29 C22 1_555 1_555
H30 C23 1_555 1_555
H31 C23 1_555 1_555
H32 C24 1_555 1_555
H33 C24 1_555 1_555
H34 C25 1_555 1_555
H35 C25 1_555 1_555
H36 C26 1_555 1_555
H37 C26 1_555 1_555
H38 C26 1_555 1_555
H39 C27 1_555 1_555
H40 C27 1_555 1_555
H41 C28 1_555 1_555
H42 C28 1_555 1_555
H44 C29 1_555 1_555
O2C Sn1 1_555 1_555
Sn1C O2 1_555 1_555
C27A C27 1_555 1_555
C29A C27A 1_555 1_555
C28A C28 1_555 1_555
H41A C28A 1_555 1_555
H42A C28A 1_555 1_555
H43A C29A 1_555 1_555
H44A C29A 1_555 1_555
H39A C27A 1_555 1_555
H40A C27A 1_555 1_555
C9 C14 1_555 1_555
C13 C14 1_555 1_555
C29A C28A 1_555 1_555

#END
