
#######################################################################
#
#                 Cambridge Crystallographic Data Centre
#                                CCDC 
#
#######################################################################
#
# If this CIF has been generated from an entry in the Cambridge 
# Structural Database, then it will include bibliographic, chemical, 
# crystal, experimental, refinement or atomic coordinate data resulting 
# from the CCDC's data processing and validation procedures.
#
#######################################################################

data_CADGEU
_symmetry_cell_setting           orthorhombic
_symmetry_space_group_name_H-M   'P b c a'
_symmetry_Int_Tables_number      61
_space_group_name_Hall           '-P 2ac 2ab'
loop_
_symmetry_equiv_pos_site_id
_symmetry_equiv_pos_as_xyz
1 x,y,z
2 1/2+x,y,1/2-z
3 x,1/2-y,1/2+z
4 1/2-x,1/2+y,z
5 -x,-y,-z
6 1/2-x,-y,1/2+z
7 -x,1/2+y,1/2-z
8 1/2+x,1/2-y,-z
_cell_length_a                   18.5494(9)
_cell_length_b                   9.6858(5)
_cell_length_c                   19.9524(9)
_cell_angle_alpha                90
_cell_angle_beta                 90
_cell_angle_gamma                90
_cell_volume                     3584.76
loop_
_atom_site_label
_atom_site_type_symbol
_atom_site_fract_x
_atom_site_fract_y
_atom_site_fract_z
Cu1 Cu 0.194885(14) 0.17436(3) 0.343993(12)
O1 O 0.19712(8) 0.13496(16) 0.44153(7)
O2 O 0.24127(8) 0.38910(16) 0.35928(8)
O3 O 0.20711(8) 0.60281(16) 0.33277(7)
O4 O 0.17523(9) 0.19683(15) 0.25015(8)
O5 O 0.10626(13) 0.1561(2) 0.16175(9)
O6 O 0.02890(9) -0.18976(19) 0.45731(9)
N1 N 0.11469(10) 0.1167(2) 0.52457(9)
H3 H 0.0754 0.1527 0.5421
N2 N 0.10417(9) 0.29327(18) 0.36610(9)
N3 N 0.09150(10) -0.00112(18) 0.32566(9)
N4 N 0.14639(10) -0.13210(19) 0.45302(9)
H4 H 0.1835 -0.1198 0.4262
C1 C 0.14073(12) 0.1755(2) 0.46942(11)
C2 C 0.09983(12) 0.2966(2) 0.44070(11)
H5 H 0.0488 0.2923 0.4550
H6 H 0.1207 0.3840 0.4576
C3 C 0.11653(12) 0.4334(2) 0.33830(11)
H7 H 0.0856 0.5005 0.3623
H8 H 0.1025 0.4345 0.2904
C4 C 0.19499(11) 0.4773(2) 0.34480(10)
C5 C 0.03697(11) 0.2344(2) 0.33695(11)
H9 H 0.0368 0.2509 0.2880
H10 H -0.0051 0.2828 0.3563
C6 C 0.02954(12) 0.0814(2) 0.34983(12)
H11 H 0.0239 0.0663 0.3986
H12 H -0.0148 0.0478 0.3276
C7 C 0.09564(14) -0.0026(2) 0.25189(11)
H13 H 0.0464 -0.0166 0.2340
H14 H 0.1249 -0.0833 0.2382
C8 C 0.12768(14) 0.1270(3) 0.21867(11)
C9 C 0.08201(13) -0.1452(2) 0.34887(10)
H15 H 0.1210 -0.2030 0.3298
H16 H 0.0355 -0.1810 0.3318
C10 C 0.08318(12) -0.1579(2) 0.42508(11)
C11 C 0.15892(12) -0.1228(2) 0.52362(11)
C12 C 0.14530(11) 0.0002(2) 0.55762(11)
C13 C 0.15834(12) 0.0089(3) 0.62645(12)
H17 H 0.1488 0.0923 0.6499
C14 C 0.18515(13) -0.1046(3) 0.66027(12)
H18 H 0.1939 -0.0992 0.7071
C15 C 0.19920(14) -0.2251(3) 0.62647(13)
H19 H 0.2180 -0.3022 0.6501
C16 C 0.18624(13) -0.2355(3) 0.55817(12)
H20 H 0.1960 -0.3194 0.5352
O3C O 0.29289(8) 0.10281(16) 0.33277(7)
Cu1C Cu 0.305115(14) 0.67436(3) 0.343993(12)
O7 O 0.02991(13) 0.0087(2) 0.06936(10)
H1 H 0.0561 0.0543 0.0970
H2 H 0.0606 -0.0444 0.0486
loop_
_geom_bond_atom_site_label_1
_geom_bond_atom_site_label_2
_geom_bond_site_symmetry_1
_geom_bond_site_symmetry_2
Cu1 O1 1_555 1_555
O1 C1 1_555 1_555
O2 Cu1 1_555 1_555
O3 C4 1_555 1_555
O4 Cu1 1_555 1_555
O5 C8 1_555 1_555
O6 C10 1_555 1_555
O7 H1 1_555 1_555
H2 O7 1_555 1_555
N1 H3 1_555 1_555
N2 Cu1 1_555 1_555
N3 Cu1 1_555 1_555
N4 H4 1_555 1_555
C1 N1 1_555 1_555
C2 N2 1_555 1_555
H5 C2 1_555 1_555
H6 C2 1_555 1_555
C3 N2 1_555 1_555
H7 C3 1_555 1_555
H8 C3 1_555 1_555
C4 O2 1_555 1_555
C5 N2 1_555 1_555
H9 C5 1_555 1_555
H10 C5 1_555 1_555
C6 N3 1_555 1_555
H11 C6 1_555 1_555
H12 C6 1_555 1_555
C7 N3 1_555 1_555
H13 C7 1_555 1_555
H14 C7 1_555 1_555
C8 O4 1_555 1_555
C9 N3 1_555 1_555
H15 C9 1_555 1_555
H16 C9 1_555 1_555
C10 N4 1_555 1_555
C11 N4 1_555 1_555
C12 N1 1_555 1_555
C13 C12 1_555 1_555
H17 C13 1_555 1_555
C14 C13 1_555 1_555
H18 C14 1_555 1_555
C15 C14 1_555 1_555
H19 C15 1_555 1_555
C16 C11 1_555 1_555
H20 C16 1_555 1_555
O3C Cu1 1_555 1_555
Cu1C O3 1_555 1_555
C1 C2 1_555 1_555
C3 C4 1_555 1_555
C5 C6 1_555 1_555
C7 C8 1_555 1_555
C9 C10 1_555 1_555
C11 C12 1_555 1_555
C15 C16 1_555 1_555

#END
