
#######################################################################
#
#                 Cambridge Crystallographic Data Centre
#                                CCDC 
#
#######################################################################
#
# If this CIF has been generated from an entry in the Cambridge 
# Structural Database, then it will include bibliographic, chemical, 
# crystal, experimental, refinement or atomic coordinate data resulting 
# from the CCDC's data processing and validation procedures.
#
#######################################################################

data_CADJIB01
_symmetry_cell_setting           monoclinic
_symmetry_space_group_name_H-M   'I 2/a'
_symmetry_Int_Tables_number      15
_space_group_name_Hall           '-I 2ya'
loop_
_symmetry_equiv_pos_site_id
_symmetry_equiv_pos_as_xyz
1 x,y,z
2 1/2+x,1/2+y,1/2+z
3 1/2+x,-y,z
4 x,1/2-y,1/2+z
5 -x,-y,-z
6 1/2-x,1/2-y,1/2-z
7 1/2-x,y,-z
8 -x,1/2+y,1/2-z
_cell_length_a                   14.6736(18)
_cell_length_b                   9.8090(11)
_cell_length_c                   15.593(3)
_cell_angle_alpha                90
_cell_angle_beta                 103.581(3)
_cell_angle_gamma                90
_cell_volume                     2181.6
loop_
_atom_site_label
_atom_site_type_symbol
_atom_site_fract_x
_atom_site_fract_y
_atom_site_fract_z
Zn1 Zn 0.7500 0.74837(14) 0.5000
N1 N 0.7203(4) 0.8906(7) 0.5901(4)
N2 N 0.5655(6) 1.3213(9) 0.8906(5)
O1 O 0.6170(4) 0.7047(6) 0.4297(4)
O2 O 0.6637(3) 0.5836(6) 0.5493(4)
C1 C 0.6477(5) 0.9748(8) 0.5644(5)
H1 H 0.6152 0.9741 0.5055
C2 C 0.6195(5) 1.0612(8) 0.6206(5)
H2 H 0.5689 1.1189 0.5993
C3 C 0.6640(5) 1.0655(7) 0.7083(4)
C4 C 0.6316(5) 1.1535(8) 0.7722(5)
C5 C 0.5514(7) 1.2297(11) 0.7456(6)
H3 H 0.5170 1.2266 0.6874
C6 C 0.5225(8) 1.3110(12) 0.8068(7)
H4 H 0.4683 1.3624 0.7870
C7 C 0.6408(6) 1.2470(11) 0.9149(6)
H5 H 0.6732 1.2506 0.9737
C8 C 0.6753(6) 1.1634(10) 0.8589(5)
H6 H 0.7294 1.1130 0.8809
C9 C 0.7401(5) 0.9776(9) 0.7349(4)
H7 H 0.7734 0.9764 0.7935
C10 C 0.7656(5) 0.8932(8) 0.6748(5)
H8 H 0.8167 0.8355 0.6938
C11 C 0.6027(5) 0.6136(8) 0.4832(5)
C12 C 0.5072(5) 0.5462(9) 0.4639(5)
H9 H 0.4593 0.6165 0.4541
H10 H 0.4991 0.4939 0.4098
C12D C 0.4928(5) 0.4538(9) 0.5361(5)
C11D C 0.3973(5) 0.3864(8) 0.5168(5)
O1D O 0.3830(4) 0.2953(6) 0.5703(4)
O2D O 0.3363(3) 0.4164(6) 0.4507(4)
H9D H 0.5407 0.3835 0.5459
H10D H 0.5009 0.5061 0.5902
N1F N 0.7797(4) 0.8906(7) 0.4099(4)
N2F N 0.9345(6) 1.3213(9) 0.1094(5)
C1F C 0.8523(5) 0.9748(8) 0.4356(5)
H1F H 0.8848 0.9741 0.4945
C2F C 0.8805(5) 1.0612(8) 0.3794(5)
H2F H 0.9311 1.1189 0.4007
C3F C 0.8360(5) 1.0655(7) 0.2917(4)
C4F C 0.8684(5) 1.1535(8) 0.2278(5)
C5F C 0.9486(7) 1.2297(11) 0.2544(6)
H3F H 0.9830 1.2266 0.3126
C6F C 0.9775(8) 1.3110(12) 0.1932(7)
H4F H 1.0317 1.3624 0.2130
C7F C 0.8592(6) 1.2470(11) 0.0851(6)
H5F H 0.8268 1.2506 0.0263
C8F C 0.8247(6) 1.1634(10) 0.1411(5)
H6F H 0.7706 1.1130 0.1191
C9F C 0.7599(5) 0.9776(9) 0.2651(4)
H7F H 0.7266 0.9764 0.2065
C10F C 0.7344(5) 0.8932(8) 0.3252(5)
H8F H 0.6833 0.8355 0.3062
O1F O 0.8830(4) 0.7047(6) 0.5703(4)
O2F O 0.8363(3) 0.5836(6) 0.4507(4)
Zn1B Zn 0.2500 0.25163(14) 0.5000
loop_
_geom_bond_atom_site_label_1
_geom_bond_atom_site_label_2
_geom_bond_site_symmetry_1
_geom_bond_site_symmetry_2
Zn1 N1 1_555 1_555
N1 C1 1_555 1_555
N2 C6 1_555 1_555
O1 Zn1 1_555 1_555
O2 Zn1 1_555 1_555
C1 H1 1_555 1_555
C2 C1 1_555 1_555
H2 C2 1_555 1_555
C3 C2 1_555 1_555
C4 C3 1_555 1_555
C5 C4 1_555 1_555
H3 C5 1_555 1_555
C6 C5 1_555 1_555
H4 C6 1_555 1_555
C7 N2 1_555 1_555
H5 C7 1_555 1_555
C8 C4 1_555 1_555
H6 C8 1_555 1_555
C9 C3 1_555 1_555
H7 C9 1_555 1_555
C10 N1 1_555 1_555
H8 C10 1_555 1_555
C11 O1 1_555 1_555
C12 C11 1_555 1_555
H9 C12 1_555 1_555
H10 C12 1_555 1_555
C12D C12 1_555 1_555
C11D C12D 1_555 1_555
O1D C11D 1_555 1_555
O2D C11D 1_555 1_555
H9D C12D 1_555 1_555
H10D C12D 1_555 1_555
N1F Zn1 1_555 1_555
N2F C6F 1_555 1_555
C1F N1F 1_555 1_555
H1F C1F 1_555 1_555
C2F C1F 1_555 1_555
H2F C2F 1_555 1_555
C3F C2F 1_555 1_555
C4F C3F 1_555 1_555
C5F C4F 1_555 1_555
H3F C5F 1_555 1_555
C6F C5F 1_555 1_555
H4F C6F 1_555 1_555
C7F N2F 1_555 1_555
H5F C7F 1_555 1_555
C8F C4F 1_555 1_555
H6F C8F 1_555 1_555
C9F C3F 1_555 1_555
H7F C9F 1_555 1_555
C10F N1F 1_555 1_555
H8F C10F 1_555 1_555
O1F Zn1 1_555 1_555
O2F Zn1 1_555 1_555
Zn1B O1D 1_555 1_555
O2 C11 1_555 1_555
C7 C8 1_555 1_555
C9 C10 1_555 1_555
O2D Zn1B 1_555 1_555
C7F C8F 1_555 1_555
C9F C10F 1_555 1_555

#END
