
#######################################################################
#
#                 Cambridge Crystallographic Data Centre
#                                CCDC 
#
#######################################################################
#
# If this CIF has been generated from an entry in the Cambridge 
# Structural Database, then it will include bibliographic, chemical, 
# crystal, experimental, refinement or atomic coordinate data resulting 
# from the CCDC's data processing and validation procedures.
#
#######################################################################

data_CADJAT
_symmetry_cell_setting           monoclinic
_symmetry_space_group_name_H-M   'C 2/c'
_symmetry_Int_Tables_number      15
_space_group_name_Hall           '-C 2yn'
loop_
_symmetry_equiv_pos_site_id
_symmetry_equiv_pos_as_xyz
1 x,y,z
2 1/2+x,1/2+y,z
3 x,-y,1/2+z
4 1/2+x,1/2-y,1/2+z
5 -x,-y,-z
6 1/2-x,1/2-y,-z
7 -x,y,1/2-z
8 1/2-x,1/2+y,1/2-z
_cell_length_a                   15.298(4)
_cell_length_b                   13.195(2)
_cell_length_c                   9.451(5)
_cell_angle_alpha                90
_cell_angle_beta                 102.56(4)
_cell_angle_gamma                90
_cell_volume                     1862.1
loop_
_atom_site_label
_atom_site_type_symbol
_atom_site_fract_x
_atom_site_fract_y
_atom_site_fract_z
Co1 Co 0.0000 0.10136(9) 0.250000
O1 O 0.0710(3) -0.0131(3) 0.1683(4)
O2 O 0.0718(3) -0.0931(3) -0.0384(4)
C1 C 0.0409(3) -0.0307(4) 0.0382(6)
C2 C 0.0581(4) 0.2762(5) 0.0910(7)
N1 N 0.0887(4) 0.2137(4) 0.1990(6)
C3 C 0.1767(5) 0.2161(5) 0.2617(8)
C4 C 0.2344(4) 0.2831(6) 0.2221(8)
C5 C 0.2051(4) 0.3506(5) 0.1096(7)
C6 C 0.1127(4) 0.3482(6) 0.0419(7)
C7 C 0.0794(6) 0.4154(8) -0.0701(10)
C8 C 0.1343(6) 0.4835(8) -0.1143(11)
C9 C 0.2247(6) 0.4860(7) -0.0511(10)
C10 C 0.2600(5) 0.4227(6) 0.0597(9)
H1 H -0.0111 0.2775 0.0344
H2 H 0.2041 0.1634 0.3483
H3 H 0.3029 0.2847 0.2778
H4 H 0.0098 0.4137 -0.1194
H5 H 0.1079 0.5367 -0.1986
H6 H 0.2663 0.5359 -0.0958
H7 H 0.3286 0.428 0.1134
C1D C -0.0409(3) 0.0307(4) -0.0382(6)
O1D O -0.0710(3) 0.0131(3) -0.1683(4)
O2D O -0.0718(3) 0.0931(3) 0.0384(4)
C2F C -0.0581(4) 0.2762(5) 0.4090(7)
N1F N -0.0887(4) 0.2137(4) 0.3010(6)
C3F C -0.1767(5) 0.2161(5) 0.2383(8)
C4F C -0.2344(4) 0.2831(6) 0.2779(8)
C5F C -0.2051(4) 0.3506(5) 0.3904(7)
C6F C -0.1127(4) 0.3482(6) 0.4581(7)
C7F C -0.0794(6) 0.4154(8) 0.5701(10)
C8F C -0.1343(6) 0.4835(8) 0.6143(11)
C9F C -0.2247(6) 0.4860(7) 0.5511(10)
C10F C -0.2600(5) 0.4227(6) 0.4403(9)
H1F H 0.0111 0.2775 0.4656
H2F H -0.2041 0.1634 0.1517
H3F H -0.3029 0.2847 0.2222
H4F H -0.0098 0.4137 0.6194
H5F H -0.1079 0.5367 0.6986
H6F H -0.2663 0.5359 0.5958
H7F H -0.3286 0.428 0.3866
O1F O -0.0710(3) -0.0131(3) 0.3317(4)
O2B O 0.0718(3) 0.0931(3) 0.4616(4)
Co1B Co 0.0000 -0.10136(9) -0.250000
loop_
_geom_bond_atom_site_label_1
_geom_bond_atom_site_label_2
_geom_bond_site_symmetry_1
_geom_bond_site_symmetry_2
Co1 O1 1_555 1_555
O1 C1 1_555 1_555
O2 C1 1_555 1_555
C1 C1D 1_555 1_555
C2 N1 1_555 1_555
N1 Co1 1_555 1_555
C3 N1 1_555 1_555
C4 C3 1_555 1_555
C5 C4 1_555 1_555
C6 C2 1_555 1_555
C7 C6 1_555 1_555
C8 C7 1_555 1_555
C9 C8 1_555 1_555
C10 C5 1_555 1_555
H1 C2 1_555 1_555
H2 C3 1_555 1_555
H3 C4 1_555 1_555
H4 C7 1_555 1_555
H5 C8 1_555 1_555
H6 C9 1_555 1_555
H7 C10 1_555 1_555
C1D O1D 1_555 1_555
O1D Co1B 1_555 1_555
O2D Co1 1_555 1_555
C2F N1F 1_555 1_555
N1F Co1 1_555 1_555
C3F N1F 1_555 1_555
C4F C3F 1_555 1_555
C5F C4F 1_555 1_555
C6F C2F 1_555 1_555
C7F C6F 1_555 1_555
C8F C7F 1_555 1_555
C9F C8F 1_555 1_555
C10F C5F 1_555 1_555
H1F C2F 1_555 1_555
H2F C3F 1_555 1_555
H3F C4F 1_555 1_555
H4F C7F 1_555 1_555
H5F C8F 1_555 1_555
H6F C9F 1_555 1_555
H7F C10F 1_555 1_555
O1F Co1 1_555 1_555
O2B Co1 1_555 1_555
Co1B O2 1_555 1_555
C5 C6 1_555 1_555
C9 C10 1_555 1_555
C1D O2D 1_555 1_555
C5F C6F 1_555 1_555
C9F C10F 1_555 1_555

#END
