
#######################################################################
#
#                 Cambridge Crystallographic Data Centre
#                                CCDC 
#
#######################################################################
#
# If this CIF has been generated from an entry in the Cambridge 
# Structural Database, then it will include bibliographic, chemical, 
# crystal, experimental, refinement or atomic coordinate data resulting 
# from the CCDC's data processing and validation procedures.
#
#######################################################################

data_CADJIB
_symmetry_cell_setting           monoclinic
_symmetry_space_group_name_H-M   'C 2/c'
_symmetry_Int_Tables_number      15
_space_group_name_Hall           '-C 2yn'
loop_
_symmetry_equiv_pos_site_id
_symmetry_equiv_pos_as_xyz
1 x,y,z
2 1/2+x,1/2+y,z
3 x,-y,1/2+z
4 1/2+x,1/2-y,1/2+z
5 -x,-y,-z
6 1/2-x,1/2-y,-z
7 -x,y,1/2-z
8 1/2-x,1/2+y,1/2-z
_cell_length_a                   18.877(10)
_cell_length_b                   9.915(9)
_cell_length_c                   14.776(5)
_cell_angle_alpha                90
_cell_angle_beta                 125.990(10)
_cell_angle_gamma                90
_cell_volume                     2237.67
loop_
_atom_site_label
_atom_site_type_symbol
_atom_site_fract_x
_atom_site_fract_y
_atom_site_fract_z
Zn1 Zn 0.0000 0.75184(5) 0.2500
O1 O -0.06992(13) 0.7970(2) 0.31311(17)
O2 O 0.04980(13) 0.9163(2) 0.38613(16)
N1 N -0.08954(13) 0.6102(2) 0.13068(17)
N2 N -0.3907(2) 0.1789(3) -0.3244(3)
C1 C -0.17447(17) 0.6063(3) 0.0906(2)
H1 H -0.1934 0.6626 0.1228
C2 C -0.23489(16) 0.5229(3) 0.0043(2)
H2 H -0.2932 0.5252 -0.0215
C3 C -0.20857(15) 0.4354(2) -0.04436(19)
C4 C -0.12021(17) 0.4383(3) -0.0014(2)
H3 H -0.0991 0.3812 -0.0305
C5 C -0.06391(17) 0.5258(3) 0.0843(2)
H4 H -0.0053 0.5262 0.1112
C6 C -0.27167(17) 0.3469(3) -0.1405(2)
C7 C -0.35908(19) 0.3388(4) -0.1832(3)
H5 H -0.3810 0.3897 -0.1519
C8 C -0.4144(2) 0.2540(4) -0.2736(3)
H6 H -0.4728 0.2505 -0.2999
C9 C -0.3064(3) 0.1897(5) -0.2841(4)
H7 H -0.2869 0.1389 -0.3183
C10 C -0.2463(2) 0.2704(4) -0.1955(3)
H8 H -0.1887 0.2736 -0.1726
C11 C -0.01681(17) 0.8858(3) 0.3810(2)
C12 C -0.03590(19) 0.9529(3) 0.4566(2)
H9 H -0.0451 0.8835 0.4950
H10 H -0.0899 1.0038 0.4107
C12D C 0.03590(19) 1.0471(3) 0.5434(2)
C11D C 0.01681(17) 1.1142(3) 0.6190(2)
O1D O 0.06992(13) 1.2030(2) 0.68689(17)
O2D O -0.04980(13) 1.0837(2) 0.61387(16)
H9D H 0.0451 1.1165 0.5050
H10D H 0.0899 0.9962 0.5893
N1F N 0.08954(13) 0.6102(2) 0.36932(17)
N2F N 0.3907(2) 0.1789(3) 0.8244(3)
C1F C 0.17447(17) 0.6063(3) 0.4094(2)
H1F H 0.1934 0.6626 0.3772
C2F C 0.23489(16) 0.5229(3) 0.4957(2)
H2F H 0.2932 0.5252 0.5215
C3F C 0.20857(15) 0.4354(2) 0.54436(19)
C4F C 0.12021(17) 0.4383(3) 0.5014(2)
H3F H 0.0991 0.3812 0.5305
C5F C 0.06391(17) 0.5258(3) 0.4157(2)
H4F H 0.0053 0.5262 0.3888
C6F C 0.27167(17) 0.3469(3) 0.6405(2)
C7F C 0.35908(19) 0.3388(4) 0.6832(3)
H5F H 0.3810 0.3897 0.6519
C8F C 0.4144(2) 0.2540(4) 0.7736(3)
H6F H 0.4728 0.2505 0.7999
C9F C 0.3064(3) 0.1897(5) 0.7841(4)
H7F H 0.2869 0.1389 0.8183
C10F C 0.2463(2) 0.2704(4) 0.6955(3)
H8F H 0.1887 0.2736 0.6726
O1F O 0.06992(13) 0.7970(2) 0.18689(17)
O2F O -0.04980(13) 0.9163(2) 0.11387(16)
Zn1B Zn 0.0000 1.24816(5) 0.7500
loop_
_geom_bond_atom_site_label_1
_geom_bond_atom_site_label_2
_geom_bond_site_symmetry_1
_geom_bond_site_symmetry_2
Zn1 O1 1_555 1_555
O1 C11 1_555 1_555
O2 Zn1 1_555 1_555
N1 Zn1 1_555 1_555
N2 C8 1_555 1_555
C1 N1 1_555 1_555
H1 C1 1_555 1_555
C2 C1 1_555 1_555
H2 C2 1_555 1_555
C3 C2 1_555 1_555
C4 C3 1_555 1_555
H3 C4 1_555 1_555
C5 N1 1_555 1_555
H4 C5 1_555 1_555
C6 C3 1_555 1_555
C7 C6 1_555 1_555
H5 C7 1_555 1_555
C8 C7 1_555 1_555
H6 C8 1_555 1_555
C9 N2 1_555 1_555
H7 C9 1_555 1_555
C10 C6 1_555 1_555
H8 C10 1_555 1_555
C11 O2 1_555 1_555
C12 C11 1_555 1_555
H9 C12 1_555 1_555
H10 C12 1_555 1_555
C12D C12 1_555 1_555
C11D C12D 1_555 1_555
O1D C11D 1_555 1_555
O2D C11D 1_555 1_555
H9D C12D 1_555 1_555
H10D C12D 1_555 1_555
N1F Zn1 1_555 1_555
N2F C8F 1_555 1_555
C1F N1F 1_555 1_555
H1F C1F 1_555 1_555
C2F C1F 1_555 1_555
H2F C2F 1_555 1_555
C3F C2F 1_555 1_555
C4F C3F 1_555 1_555
H3F C4F 1_555 1_555
C5F N1F 1_555 1_555
H4F C5F 1_555 1_555
C6F C3F 1_555 1_555
C7F C6F 1_555 1_555
H5F C7F 1_555 1_555
C8F C7F 1_555 1_555
H6F C8F 1_555 1_555
C9F N2F 1_555 1_555
H7F C9F 1_555 1_555
C10F C6F 1_555 1_555
H8F C10F 1_555 1_555
O1F Zn1 1_555 1_555
O2F Zn1 1_555 1_555
Zn1B O1D 1_555 1_555
C4 C5 1_555 1_555
C9 C10 1_555 1_555
O2D Zn1B 1_555 1_555
C4F C5F 1_555 1_555
C9F C10F 1_555 1_555

#END
