
#######################################################################
#
#                 Cambridge Crystallographic Data Centre
#                                CCDC 
#
#######################################################################
#
# If this CIF has been generated from an entry in the Cambridge 
# Structural Database, then it will include bibliographic, chemical, 
# crystal, experimental, refinement or atomic coordinate data resulting 
# from the CCDC's data processing and validation procedures.
#
#######################################################################

data_CADJEX
_symmetry_cell_setting           monoclinic
_symmetry_space_group_name_H-M   'C 2/c'
_symmetry_Int_Tables_number      15
_space_group_name_Hall           '-C 2yn'
loop_
_symmetry_equiv_pos_site_id
_symmetry_equiv_pos_as_xyz
1 x,y,z
2 1/2+x,1/2+y,z
3 x,-y,1/2+z
4 1/2+x,1/2-y,1/2+z
5 -x,-y,-z
6 1/2-x,1/2-y,-z
7 -x,y,1/2-z
8 1/2-x,1/2+y,1/2-z
_cell_length_a                   15.203(2)
_cell_length_b                   13.246(2)
_cell_length_c                   9.430(1)
_cell_angle_alpha                90
_cell_angle_beta                 102.46(2)
_cell_angle_gamma                90
_cell_volume                     1854.28
loop_
_atom_site_label
_atom_site_type_symbol
_atom_site_fract_x
_atom_site_fract_y
_atom_site_fract_z
Cu1 Cu 0.0000 0.10515(4) 0.25000
O1 O 0.07004(15) -0.0021(2) 0.1730(2)
O2 O 0.07565(15) -0.0954(2) -0.0204(2)
C1 C 0.0422(2) -0.0289(2) 0.0434(3)
C2 C 0.0561(2) 0.2768(3) 0.0923(3)
N1 N 0.0850(2) 0.2123(2) 0.1986(3)
C3 C 0.1745(2) 0.2163(3) 0.2653(4)
C4 C 0.2324(2) 0.2827(3) 0.2250(4)
C5 C 0.2030(2) 0.3507(2) 0.1116(3)
C6 C 0.1111(2) 0.3477(3) 0.0432(3)
C7 C 0.0778(3) 0.4148(4) -0.0704(5)
C8 C 0.1331(3) 0.4819(4) -0.1152(5)
C9 C 0.2253(3) 0.4846(4) -0.0474(5)
C10 C 0.2591(3) 0.4221(3) 0.0624(4)
H1 H -0.010(3) 0.289(4) 0.054(5)
H2 H 0.191(2) 0.162(3) 0.334(4)
H3 H 0.284(3) 0.277(3) 0.259(4)
H4 H 0.018(2) 0.412(2) -0.105(4)
H5 H 0.106(3) 0.531(3) -0.180(5)
H6 H 0.257(3) 0.526(3) -0.083(5)
H7 H 0.322(3) 0.418(3) 0.110(5)
C1D C -0.0422(2) 0.0289(2) -0.0434(3)
O1D O -0.07004(15) 0.0021(2) -0.1730(2)
O2D O -0.07565(15) 0.0954(2) 0.0204(2)
C2F C -0.0561(2) 0.2768(3) 0.4077(3)
N1F N -0.0850(2) 0.2123(2) 0.3014(3)
C3F C -0.1745(2) 0.2163(3) 0.2347(4)
C4F C -0.2324(2) 0.2827(3) 0.2750(4)
C5F C -0.2030(2) 0.3507(2) 0.3884(3)
C6F C -0.1111(2) 0.3477(3) 0.4568(3)
C7F C -0.0778(3) 0.4148(4) 0.5704(5)
C8F C -0.1331(3) 0.4819(4) 0.6152(5)
C9F C -0.2253(3) 0.4846(4) 0.5474(5)
C10F C -0.2591(3) 0.4221(3) 0.4376(4)
H1F H 0.010(3) 0.289(4) 0.446(5)
H2F H -0.191(2) 0.162(3) 0.166(4)
H3F H -0.284(3) 0.277(3) 0.241(4)
H4F H -0.018(2) 0.412(2) 0.605(4)
H5F H -0.106(3) 0.531(3) 0.680(5)
H6F H -0.257(3) 0.526(3) 0.583(5)
H7F H -0.322(3) 0.418(3) 0.390(5)
O1F O -0.07004(15) -0.0021(2) 0.3270(2)
O2B O 0.07565(15) 0.0954(2) 0.4796(2)
Cu1B Cu 0.0000 -0.10515(4) -0.25000
loop_
_geom_bond_atom_site_label_1
_geom_bond_atom_site_label_2
_geom_bond_site_symmetry_1
_geom_bond_site_symmetry_2
Cu1 O1 1_555 1_555
O1 C1 1_555 1_555
O2 C1 1_555 1_555
C1 C1D 1_555 1_555
C2 N1 1_555 1_555
N1 Cu1 1_555 1_555
C3 N1 1_555 1_555
C4 C3 1_555 1_555
C5 C4 1_555 1_555
C6 C2 1_555 1_555
C7 C6 1_555 1_555
C8 C7 1_555 1_555
C9 C8 1_555 1_555
C10 C5 1_555 1_555
H1 C2 1_555 1_555
H2 C3 1_555 1_555
H3 C4 1_555 1_555
H4 C7 1_555 1_555
H5 C8 1_555 1_555
H6 C9 1_555 1_555
H7 C10 1_555 1_555
C1D O1D 1_555 1_555
O1D Cu1B 1_555 1_555
O2D Cu1 1_555 1_555
C2F N1F 1_555 1_555
N1F Cu1 1_555 1_555
C3F N1F 1_555 1_555
C4F C3F 1_555 1_555
C5F C4F 1_555 1_555
C6F C2F 1_555 1_555
C7F C6F 1_555 1_555
C8F C7F 1_555 1_555
C9F C8F 1_555 1_555
C10F C5F 1_555 1_555
H1F C2F 1_555 1_555
H2F C3F 1_555 1_555
H3F C4F 1_555 1_555
H4F C7F 1_555 1_555
H5F C8F 1_555 1_555
H6F C9F 1_555 1_555
H7F C10F 1_555 1_555
O1F Cu1 1_555 1_555
O2B Cu1 1_555 1_555
Cu1B O2 1_555 1_555
C5 C6 1_555 1_555
C9 C10 1_555 1_555
C1D O2D 1_555 1_555
C5F C6F 1_555 1_555
C9F C10F 1_555 1_555

#END
