
#######################################################################
#
#                 Cambridge Crystallographic Data Centre
#                                CCDC 
#
#######################################################################
#
# If this CIF has been generated from an entry in the Cambridge 
# Structural Database, then it will include bibliographic, chemical, 
# crystal, experimental, refinement or atomic coordinate data resulting 
# from the CCDC's data processing and validation procedures.
#
#######################################################################

data_CADNEC
_symmetry_cell_setting           triclinic
_symmetry_space_group_name_H-M   'P -1'
_symmetry_Int_Tables_number      2
_space_group_name_Hall           '-P 1'
loop_
_symmetry_equiv_pos_site_id
_symmetry_equiv_pos_as_xyz
1 x,y,z
2 -x,-y,-z
_cell_length_a                   10.1035(3)
_cell_length_b                   10.3932(4)
_cell_length_c                   15.2929(4)
_cell_angle_alpha                76.8780(10)
_cell_angle_beta                 72.2160(10)
_cell_angle_gamma                86.8610(10)
_cell_volume                     1489.02
loop_
_atom_site_label
_atom_site_type_symbol
_atom_site_fract_x
_atom_site_fract_y
_atom_site_fract_z
Ag1 Ag 0.60266(2) 0.89913(2) 1.045496(18)
Ag2 Ag 1.55119(2) 1.53228(2) 0.580800(19)
C1 C 0.9119(3) 0.9504(3) 0.9233(2)
H1 H 0.9087 0.8580 0.9272
C2 C 1.0356(3) 1.0190(3) 0.8723(2)
H2 H 1.1149 0.9739 0.8426
C3 C 1.0423(3) 1.1553(3) 0.8652(2)
C4 C 0.9227(3) 1.2144(3) 0.9112(2)
H3 H 0.9227 1.3066 0.9085
C5 C 0.8048(3) 1.1400(3) 0.9607(2)
H4 H 0.7245 1.1826 0.9918
C6 C 1.3018(4) 1.4378(3) 0.7585(3)
H5 H 1.3097 1.5257 0.7648
C7 C 1.1871(3) 1.3625(3) 0.8181(3)
H6 H 1.1199 1.3981 0.8648
C8 C 1.1709(3) 1.2355(3) 0.8095(2)
C9 C 1.2795(3) 1.1867(3) 0.7435(2)
H7 H 1.2766 1.0980 0.7374
C10 C 1.3891(3) 1.2678(3) 0.6883(2)
H8 H 1.4611 1.2329 0.6440
C11 C 0.3783(3) 0.6992(3) 1.1833(2)
H9 H 0.4373 0.6412 1.1493
C12 C 0.2543(3) 0.6495(3) 1.2480(3)
H10 H 0.2302 0.5592 1.2579
C13 C 0.1653(3) 0.7298(3) 1.2984(2)
C14 C 0.2099(4) 0.8604(3) 1.2818(3)
H11 H 0.1536 0.9199 1.3157
C15 C 0.3357(4) 0.9027(3) 1.2162(3)
H12 H 0.3640 0.9918 1.2064
C16 C -0.1932(3) 0.7180(3) 1.4745(3)
H13 H -0.2524 0.7763 1.5080
C17 C -0.0641(3) 0.7646(3) 1.4144(3)
H14 H -0.0373 0.8534 1.4074
C18 C 0.0264(3) 0.6838(3) 1.3643(2)
C19 C -0.0237(4) 0.5562(3) 1.3779(3)
H15 H 0.0320 0.4960 1.3444
C20 C -0.1524(4) 0.5167(3) 1.4391(3)
H16 H -0.1821 0.4284 1.4474
C21 C 0.5783(3) 0.7286(3) 0.9168(2)
C22 C 0.6009(3) 0.6430(3) 0.8454(2)
H17 H 0.5099 0.6214 0.8399
H18 H 0.6442 0.5592 0.8675
C23 C 0.6944(3) 0.7134(3) 0.7483(2)
H19 H 0.7003 0.6579 0.7025
H20 H 0.6514 0.7979 0.7271
C24 C 0.8410(3) 0.7416(3) 0.7484(2)
H21 H 0.8813 0.6581 0.7743
H22 H 0.8357 0.8029 0.7903
C25 C 0.9370(3) 0.8018(3) 0.6505(2)
H23 H 0.9405 0.7410 0.6085
H24 H 0.8967 0.8857 0.6251
C26 C 1.0847(3) 0.8294(3) 0.6481(2)
H25 H 1.1254 0.7459 0.6737
H26 H 1.0819 0.8914 0.6891
C27 C 1.1779(3) 0.8883(3) 0.5487(2)
H27 H 1.1391 0.9735 0.5241
H28 H 1.1777 0.8279 0.5071
C28 C 1.3286(4) 0.9114(3) 0.5452(3)
H29 H 1.3793 0.9644 0.4823
H30 H 1.3286 0.9623 0.5926
C29 C 1.4037(3) 0.7811(3) 0.5645(2)
N1 N 0.7973(3) 1.0083(2) 0.96709(18)
N2 N 1.4018(3) 1.3940(3) 0.69258(19)
N3 N -0.2379(3) 0.5949(3) 1.4875(2)
N4 N 0.4197(3) 0.8251(3) 1.1658(2)
O1 O 1.3968(2) 0.6974(2) 0.51950(17)
O3 O 1.4703(3) 0.7660(3) 0.6230(2)
O5 O 0.6358(3) 0.6959(2) 0.98069(19)
O7 O 0.5061(2) 0.8302(2) 0.90760(17)
Ag1A Ag 0.39734(2) 1.10087(2) 0.954504(18)
Ag2A Ag 1.44881(2) 1.46772(2) 0.419200(19)
Ag2_2 Ag -0.44881(2) 0.53228(2) 1.580800(19)
Ag2_3 Ag 1.55119(2) 0.53228(2) 0.580800(19)
N3_2 N 1.7621(3) 1.5949(3) 0.4875(2)
O1_2 O 1.3968(2) 1.6974(2) 0.51950(17)
O2 O 0.1108(3) 0.6594(2) 0.88678(18)
H31 H 0.1187 0.6579 0.9408
H32 H 0.1441 0.7316 0.8490
O4 O 0.8497(3) 0.5216(2) 0.96054(19)
H33 H 0.7842 0.5769 0.9666
H34 H 0.9266 0.5641 0.9388
O6 O 0.3331(2) 0.8467(2) 0.78936(17)
H35 H 0.3771 0.8217 0.7392
H36 H 0.3867 0.8410 0.8234
loop_
_geom_bond_atom_site_label_1
_geom_bond_atom_site_label_2
_geom_bond_site_symmetry_1
_geom_bond_site_symmetry_2
Ag1 N1 1_555 1_555
Ag2 N2 1_555 1_555
C1 H1 1_555 1_555
C2 C1 1_555 1_555
H2 C2 1_555 1_555
C3 C2 1_555 1_555
C4 C3 1_555 1_555
H3 C4 1_555 1_555
C5 C4 1_555 1_555
H4 C5 1_555 1_555
C6 H5 1_555 1_555
C7 C6 1_555 1_555
H6 C7 1_555 1_555
C8 C3 1_555 1_555
C9 C8 1_555 1_555
H7 C9 1_555 1_555
C10 C9 1_555 1_555
H8 C10 1_555 1_555
C11 H9 1_555 1_555
C12 C11 1_555 1_555
H10 C12 1_555 1_555
C13 C12 1_555 1_555
C14 C13 1_555 1_555
H11 C14 1_555 1_555
C15 C14 1_555 1_555
H12 C15 1_555 1_555
C16 H13 1_555 1_555
C17 C16 1_555 1_555
H14 C17 1_555 1_555
C18 C13 1_555 1_555
C19 C18 1_555 1_555
H15 C19 1_555 1_555
C20 C19 1_555 1_555
H16 C20 1_555 1_555
C21 C22 1_555 1_555
C22 H17 1_555 1_555
H18 C22 1_555 1_555
C23 C22 1_555 1_555
H19 C23 1_555 1_555
H20 C23 1_555 1_555
C24 C23 1_555 1_555
H21 C24 1_555 1_555
H22 C24 1_555 1_555
C25 C24 1_555 1_555
H23 C25 1_555 1_555
H24 C25 1_555 1_555
C26 C25 1_555 1_555
H25 C26 1_555 1_555
H26 C26 1_555 1_555
C27 C26 1_555 1_555
H27 C27 1_555 1_555
H28 C27 1_555 1_555
C28 C27 1_555 1_555
H29 C28 1_555 1_555
H30 C28 1_555 1_555
C29 C28 1_555 1_555
N1 C1 1_555 1_555
N2 C6 1_555 1_555
N3 C16 1_555 1_555
N4 Ag1 1_555 1_555
O1 C29 1_555 1_555
O2 H31 1_555 1_555
H32 O2 1_555 1_555
O3 C29 1_555 1_555
O4 H33 1_555 1_555
H34 O4 1_555 1_555
O5 Ag1 1_555 1_555
O6 H35 1_555 1_555
H36 O6 1_555 1_555
O7 C21 1_555 1_555
Ag1A Ag1 1_555 1_555
Ag2A Ag2 1_555 1_555
Ag2_2 N3 1_555 1_555
Ag2_3 O1 1_555 1_555
N3_2 Ag2 1_555 1_555
O1_2 Ag2 1_555 1_555
C5 N1 1_555 1_555
C7 C8 1_555 1_555
C10 N2 1_555 1_555
C11 N4 1_555 1_555
C15 N4 1_555 1_555
C17 C18 1_555 1_555
C20 N3 1_555 1_555
C21 O5 1_555 1_555

#END
