
#######################################################################
#
#                 Cambridge Crystallographic Data Centre
#                                CCDC 
#
#######################################################################
#
# If this CIF has been generated from an entry in the Cambridge 
# Structural Database, then it will include bibliographic, chemical, 
# crystal, experimental, refinement or atomic coordinate data resulting 
# from the CCDC's data processing and validation procedures.
#
#######################################################################

data_CADNEC01
_symmetry_cell_setting           triclinic
_symmetry_space_group_name_H-M   'P -1'
_symmetry_Int_Tables_number      2
_space_group_name_Hall           '-P 1'
loop_
_symmetry_equiv_pos_site_id
_symmetry_equiv_pos_as_xyz
1 x,y,z
2 -x,-y,-z
_cell_length_a                   10.048(3)
_cell_length_b                   10.366(3)
_cell_length_c                   15.233(4)
_cell_angle_alpha                77.056(5)
_cell_angle_beta                 72.279(5)
_cell_angle_gamma                86.777(5)
_cell_volume                     1472.82
loop_
_atom_site_label
_atom_site_type_symbol
_atom_site_fract_x
_atom_site_fract_y
_atom_site_fract_z
Ag1 Ag 0.60267(3) 0.89909(3) 0.545489(19)
Ag2 Ag 1.55118(3) 1.53221(3) 0.08086(2)
N1 N 0.7967(3) 1.0082(3) 0.46705(19)
N2 N 1.4014(3) 1.3940(3) 0.1924(2)
N3 N 0.4199(3) 0.8245(3) 0.6655(2)
N4 N -0.2383(3) 0.5950(3) 0.9877(2)
O2 O 0.6355(3) 0.6954(3) 0.48104(19)
O4 O 0.5059(3) 0.8298(2) 0.40724(17)
O5 O 1.3959(3) 0.6971(3) 0.01940(18)
O7 O 1.4707(3) 0.7664(3) 0.1231(2)
C1 C 0.5786(4) 0.7288(3) 0.4172(2)
C2 C 0.6009(4) 0.6437(4) 0.3445(3)
H7 H 0.5094 0.6228 0.3388
H8 H 0.6443 0.5593 0.3661
C3 C 0.6945(4) 0.7143(4) 0.2480(2)
H9 H 0.7005 0.6590 0.2018
H10 H 0.6511 0.7990 0.2272
C4 C 0.8412(4) 0.7422(4) 0.2481(2)
H11 H 0.8358 0.8036 0.2903
H12 H 0.8817 0.6584 0.2740
C5 C 0.9374(4) 0.8019(4) 0.1508(2)
H13 H 0.9411 0.7407 0.1087
H14 H 0.8966 0.8857 0.1254
C6 C 1.0848(4) 0.8298(4) 0.1478(2)
H15 H 1.1262 0.7464 0.1735
H16 H 1.0821 0.8923 0.1888
C7 C 1.1774(4) 0.8878(4) 0.0489(2)
H17 H 1.1381 0.9730 0.0242
H18 H 1.1771 0.8269 0.0073
C8 C 1.3283(4) 0.9110(4) 0.0452(3)
H19 H 1.3790 0.9637 -0.0179
H20 H 1.3283 0.9626 0.0926
C9 C 1.4041(4) 0.7816(4) 0.0646(2)
C10 C 0.9137(4) 0.9506(3) 0.4223(2)
H21 H 0.9114 0.8581 0.4254
C11 C 1.0355(3) 1.0194(3) 0.3726(2)
H22 H 1.1157 0.9742 0.3430
C12 C 1.0428(3) 1.1547(3) 0.3650(2)
C13 C 0.9225(4) 1.2143(4) 0.4112(2)
H23 H 0.9223 1.3066 0.4089
C14 C 0.8043(4) 1.1393(4) 0.4601(2)
H24 H 0.7232 1.1823 0.4908
C15 C 1.1710(3) 1.2352(3) 0.3095(2)
C16 C 1.2785(4) 1.1870(4) 0.2434(2)
H25 H 1.2754 1.0984 0.2368
C17 C 1.3892(4) 1.2687(4) 0.1879(2)
H26 H 1.4617 1.2336 0.1434
C18 C 1.3007(4) 1.4381(4) 0.2589(3)
H27 H 1.3081 1.5263 0.2653
C19 C 1.1878(4) 1.3633(4) 0.3179(3)
H28 H 1.1205 1.3991 0.3648
C20 C 0.3788(4) 0.6994(4) 0.6833(3)
H29 H 0.4387 0.6410 0.6496
C21 C 0.2549(4) 0.6496(4) 0.7476(3)
H30 H 0.2308 0.5592 0.7570
C22 C 0.1649(4) 0.7308(3) 0.7989(2)
C23 C 0.2089(4) 0.8600(4) 0.7820(3)
H31 H 0.1518 0.9197 0.8160
C24 C 0.3347(4) 0.9036(4) 0.7163(3)
H32 H 0.3623 0.9932 0.7065
C25 C -0.1530(4) 0.5161(4) 0.9389(3)
H33 H -0.1829 0.4278 0.9467
C26 C -0.0232(5) 0.5564(4) 0.8777(3)
H34 H 0.0338 0.4961 0.8444
C27 C 0.0254(4) 0.6840(3) 0.8641(2)
C28 C -0.0645(4) 0.7644(4) 0.9152(3)
H35 H -0.0375 0.8531 0.9092
C29 C -0.1928(4) 0.7174(4) 0.9745(3)
H36 H -0.2526 0.7760 1.0081
Ag2_2 Ag -0.44882(3) 0.53221(3) 1.08086(2)
Ag2_3 Ag 1.55118(3) 0.53221(3) 0.08086(2)
N4_2 N 1.7617(3) 1.5950(3) -0.0123(2)
O5_2 O 1.3959(3) 1.6971(3) 0.01940(18)
O7_2 O 1.4707(3) 1.7664(3) 0.1231(2)
O1 O 0.8505(3) 0.5223(3) 0.4607(2)
H1 H 0.7843 0.5775 0.4667
H2 H 0.9276 0.5651 0.4384
O3 O 0.8899(3) 1.3397(3) 0.61371(19)
H3 H 0.8207 1.2866 0.6402
H4 H 0.8676 1.3851 0.5666
O6 O 1.3331(3) 1.8466(3) 0.28963(18)
H5 H 1.3643 1.8261 0.2361
H6 H 1.3947 1.8265 0.3180
loop_
_geom_bond_atom_site_label_1
_geom_bond_atom_site_label_2
_geom_bond_site_symmetry_1
_geom_bond_site_symmetry_2
Ag1 N1 1_555 1_555
Ag2 N2 1_555 1_555
N1 C10 1_555 1_555
N2 C17 1_555 1_555
N3 Ag1 1_555 1_555
N4 C25 1_555 1_555
O1 H1 1_555 1_555
H2 O1 1_555 1_555
O2 Ag1 1_555 1_555
O3 H3 1_555 1_555
H4 O3 1_555 1_555
O4 C1 1_555 1_555
O5 C9 1_555 1_555
O6 H5 1_555 1_555
H6 O6 1_555 1_555
O7 C9 1_555 1_555
C1 O2 1_555 1_555
C2 C1 1_555 1_555
H7 C2 1_555 1_555
H8 C2 1_555 1_555
C3 C2 1_555 1_555
H9 C3 1_555 1_555
H10 C3 1_555 1_555
C4 C3 1_555 1_555
H11 C4 1_555 1_555
H12 C4 1_555 1_555
C5 C4 1_555 1_555
H13 C5 1_555 1_555
H14 C5 1_555 1_555
C6 C5 1_555 1_555
H15 C6 1_555 1_555
H16 C6 1_555 1_555
C7 C6 1_555 1_555
H17 C7 1_555 1_555
H18 C7 1_555 1_555
C8 C7 1_555 1_555
H19 C8 1_555 1_555
H20 C8 1_555 1_555
C9 C8 1_555 1_555
C10 H21 1_555 1_555
C11 C10 1_555 1_555
H22 C11 1_555 1_555
C12 C11 1_555 1_555
C13 C12 1_555 1_555
H23 C13 1_555 1_555
C14 N1 1_555 1_555
H24 C14 1_555 1_555
C15 C12 1_555 1_555
C16 C15 1_555 1_555
H25 C16 1_555 1_555
C17 C16 1_555 1_555
H26 C17 1_555 1_555
C18 N2 1_555 1_555
H27 C18 1_555 1_555
C19 C15 1_555 1_555
H28 C19 1_555 1_555
C20 N3 1_555 1_555
H29 C20 1_555 1_555
C21 C20 1_555 1_555
H30 C21 1_555 1_555
C22 C21 1_555 1_555
C23 C22 1_555 1_555
H31 C23 1_555 1_555
C24 N3 1_555 1_555
H32 C24 1_555 1_555
C25 H33 1_555 1_555
C26 C25 1_555 1_555
H34 C26 1_555 1_555
C27 C22 1_555 1_555
C28 C27 1_555 1_555
H35 C28 1_555 1_555
C29 N4 1_555 1_555
H36 C29 1_555 1_555
Ag2_2 N4 1_555 1_555
Ag2_3 O5 1_555 1_555
N4_2 Ag2 1_555 1_555
O5_2 Ag2 1_555 1_555
O7_2 Ag2 1_555 1_555
O7 Ag2_3 1_555 1_555
C13 C14 1_555 1_555
C18 C19 1_555 1_555
C23 C24 1_555 1_555
C26 C27 1_555 1_555
C28 C29 1_555 1_555

#END
