
#######################################################################
#
#                 Cambridge Crystallographic Data Centre
#                                CCDC 
#
#######################################################################
#
# If this CIF has been generated from an entry in the Cambridge 
# Structural Database, then it will include bibliographic, chemical, 
# crystal, experimental, refinement or atomic coordinate data resulting 
# from the CCDC's data processing and validation procedures.
#
#######################################################################

data_CADPOO
_symmetry_cell_setting           monoclinic
_symmetry_space_group_name_H-M   'P 21/c'
_symmetry_Int_Tables_number      14
_space_group_name_Hall           '-P 2ybc'
loop_
_symmetry_equiv_pos_site_id
_symmetry_equiv_pos_as_xyz
1 x,y,z
2 -x,1/2+y,1/2-z
3 -x,-y,-z
4 x,1/2-y,1/2+z
_cell_length_a                   6.5160(13)
_cell_length_b                   9.6687(19)
_cell_length_c                   19.524(4)
_cell_angle_alpha                90
_cell_angle_beta                 96.23(3)
_cell_angle_gamma                90
_cell_volume                     1222.77
loop_
_atom_site_label
_atom_site_type_symbol
_atom_site_fract_x
_atom_site_fract_y
_atom_site_fract_z
Cd1 Cd 0.41943(3) 0.933530(17) 0.402800(8)
O1 O 0.3325(3) 0.8078(2) 0.28808(9)
O2 O 0.4052(3) 1.0299(2) 0.29763(9)
O3 O 0.4059(4) 0.6124(2) 0.04687(11)
O4 O 0.0944(3) 1.0297(2) 0.41266(11)
H1 H 0.0357 0.9626 0.4273
H2 H 0.1109 1.0917 0.4414
O5 O 0.2432(3) 1.33661(18) 0.09287(9)
O6 O 0.3279(3) 0.7520(2) -0.04109(9)
O7 O 0.1556(3) 1.2380(2) -0.00898(9)
C1 C 0.3563(4) 0.9237(2) 0.26165(12)
C2 C 0.3284(4) 0.9414(2) 0.18471(11)
C3 C 0.2934(4) 1.0728(2) 0.15671(12)
H3 H 0.2917 1.1491 0.1857
C4 C 0.3431(4) 0.8275(2) 0.14169(11)
H4 H 0.3674 0.7398 0.1604
C5 C 0.2608(4) 1.0908(2) 0.08537(11)
C6 C 0.3534(4) 0.7282(2) 0.02270(12)
C7 C 0.2751(4) 0.9771(2) 0.04303(11)
H5 H 0.2535 0.9882 -0.0045
C8 C 0.3213(4) 0.8458(2) 0.07044(11)
C9 C 0.2166(4) 1.2314(2) 0.05391(11)
Cd1A Cd 0.58057(3) 0.433530(17) 0.097200(8)
Cd1A_2 Cd 0.58057(3) 1.433530(17) 0.097200(8)
Cd1C Cd 0.41943(3) 0.566470(17) -0.097200(8)
O3A O 0.5941(4) 1.1124(2) 0.45313(11)
O5A O 0.7568(3) 0.83661(18) 0.40713(9)
O6C O 0.3279(3) 0.7480(2) 0.45891(9)
C10 C 0.1989(4) 0.5396(3) 0.28591(12)
H6 H 0.2173 0.6232 0.2639
C11 C 0.1675(4) 0.3893(3) 0.36508(11)
H7 H 0.1610 0.3501 0.4083
C12 C 0.1663(5) 0.4142(3) 0.25364(14)
H8 H 0.1598 0.3972 0.2066
N1 N 0.1453(4) 0.3199(3) 0.30391(15)
H9 H 0.1224 0.2329 0.2983
N2 N 0.2001(4) 0.5233(3) 0.35261(14)
H10 H 0.2186 0.5876 0.3831
loop_
_geom_bond_atom_site_label_1
_geom_bond_atom_site_label_2
_geom_bond_site_symmetry_1
_geom_bond_site_symmetry_2
Cd1 O1 1_555 1_555
O1 C1 1_555 1_555
O2 Cd1 1_555 1_555
O3 C6 1_555 1_555
O4 Cd1 1_555 1_555
H1 O4 1_555 1_555
H2 O4 1_555 1_555
O5 C9 1_555 1_555
O6 C6 1_555 1_555
O7 C9 1_555 1_555
C1 O2 1_555 1_555
C2 C1 1_555 1_555
C3 C2 1_555 1_555
H3 C3 1_555 1_555
C4 C2 1_555 1_555
H4 C4 1_555 1_555
C5 C3 1_555 1_555
C6 C8 1_555 1_555
C7 C5 1_555 1_555
H5 C7 1_555 1_555
C8 C4 1_555 1_555
C9 C5 1_555 1_555
C10 H6 1_555 1_555
C11 H7 1_555 1_555
C12 C10 1_555 1_555
H8 C12 1_555 1_555
N1 C11 1_555 1_555
H9 N1 1_555 1_555
N2 C10 1_555 1_555
H10 N2 1_555 1_555
Cd1A O3 1_555 1_555
Cd1A_2 O5 1_555 1_555
Cd1C O6 1_555 1_555
O3A Cd1 1_555 1_555
O5A Cd1 1_555 1_555
O6C Cd1 1_555 1_555
C7 C8 1_555 1_555
C11 N2 1_555 1_555
C12 N1 1_555 1_555

#END
