
#######################################################################
#
#                 Cambridge Crystallographic Data Centre
#                                CCDC 
#
#######################################################################
#
# If this CIF has been generated from an entry in the Cambridge 
# Structural Database, then it will include bibliographic, chemical, 
# crystal, experimental, refinement or atomic coordinate data resulting 
# from the CCDC's data processing and validation procedures.
#
#######################################################################

data_CADZAK
_symmetry_cell_setting           monoclinic
_symmetry_space_group_name_H-M   'P 21/c'
_symmetry_Int_Tables_number      14
_space_group_name_Hall           '-P 2ybc'
loop_
_symmetry_equiv_pos_site_id
_symmetry_equiv_pos_as_xyz
1 x,y,z
2 -x,1/2+y,1/2-z
3 -x,-y,-z
4 x,1/2-y,1/2+z
_cell_length_a                   6.7848(2)
_cell_length_b                   13.6768(3)
_cell_length_c                   10.8009(2)
_cell_angle_alpha                90
_cell_angle_beta                 91.147(2)
_cell_angle_gamma                90
_cell_volume                     1002.06
loop_
_atom_site_label
_atom_site_type_symbol
_atom_site_fract_x
_atom_site_fract_y
_atom_site_fract_z
Ca1 Ca 0.26736(4) 0.219800(17) 1.10871(2)
O2 O -0.03196(14) 0.27758(8) 1.01696(9)
O3 O 0.43199(15) 0.32881(8) 0.98177(10)
O4 O 0.06739(15) 0.17142(8) 1.27388(10)
O5 O 0.56171(14) 0.20822(8) 1.23406(9)
N1 N 0.25559(15) 0.12185(7) 0.87327(9)
N2 N 0.25189(16) -0.11375(7) 1.03948(9)
N3 N 0.26874(16) -0.11652(8) 1.16429(10)
N4 N 0.28184(16) -0.02744(8) 1.20845(9)
N5 N 0.24799(15) 0.13262(7) 0.74907(10)
N6 N 0.23025(16) -0.02333(7) 0.78276(9)
N7 N 0.27406(15) 0.03672(8) 1.11370(9)
N8 N 0.23265(16) 0.04679(7) 0.69536(9)
C1 C 0.25544(17) -0.01851(8) 1.01243(11)
C2 C 0.24488(17) 0.02539(9) 0.88978(10)
H1 H -0.003(3) 0.1234(15) 1.2647(18)
H2 H 0.623(3) 0.2553(14) 1.2518(17)
H3 H 0.525(3) 0.3698(14) 1.0057(17)
H4 H -0.093(3) 0.3301(14) 1.0305(16)
H5 H -0.105(3) 0.2377(14) 1.0117(16)
H6 H 0.445(3) 0.3181(14) 0.912(2)
H7 H 0.050(3) 0.1960(15) 1.340(2)
H8 H 0.634(3) 0.1619(14) 1.2319(17)
Ca1C Ca 0.26736(4) 0.280200(17) 0.60871(2)
N5C N 0.24799(15) 0.36738(7) 1.24907(10)
O1 O 0.75087(15) 0.44516(7) 1.03685(10)
H9 H 0.759(3) 0.4832(13) 0.9869(19)
H10 H 0.745(2) 0.4711(13) 1.1058(18)
loop_
_geom_bond_atom_site_label_1
_geom_bond_atom_site_label_2
_geom_bond_site_symmetry_1
_geom_bond_site_symmetry_2
Ca1 O2 1_555 1_555
O1 H9 1_555 1_555
O2 H4 1_555 1_555
O3 Ca1 1_555 1_555
O4 Ca1 1_555 1_555
O5 Ca1 1_555 1_555
N1 Ca1 1_555 1_555
N2 N3 1_555 1_555
N3 N4 1_555 1_555
N4 N7 1_555 1_555
N5 N1 1_555 1_555
N6 N8 1_555 1_555
N7 Ca1 1_555 1_555
N8 N5 1_555 1_555
C1 N2 1_555 1_555
C2 N1 1_555 1_555
H1 O4 1_555 1_555
H2 O5 1_555 1_555
H3 O3 1_555 1_555
H5 O2 1_555 1_555
H6 O3 1_555 1_555
H7 O4 1_555 1_555
H8 O5 1_555 1_555
H10 O1 1_555 1_555
Ca1C N5 1_555 1_555
N5C Ca1 1_555 1_555
N6 C2 1_555 1_555
N7 C1 1_555 1_555
C1 C2 1_555 1_555

#END
