
#######################################################################
#
#                 Cambridge Crystallographic Data Centre
#                                CCDC 
#
#######################################################################
#
# If this CIF has been generated from an entry in the Cambridge 
# Structural Database, then it will include bibliographic, chemical, 
# crystal, experimental, refinement or atomic coordinate data resulting 
# from the CCDC's data processing and validation procedures.
#
#######################################################################

data_CAEADP01
_symmetry_cell_setting           triclinic
_symmetry_space_group_name_H-M   'P -1'
_symmetry_Int_Tables_number      2
_space_group_name_Hall           '-P 1'
loop_
_symmetry_equiv_pos_site_id
_symmetry_equiv_pos_as_xyz
1 x,y,z
2 -x,-y,-z
_cell_length_a                   6.943(5)
_cell_length_b                   7.581(6)
_cell_length_c                   9.662(6)
_cell_angle_alpha                92.734(5)
_cell_angle_beta                 106.176(10)
_cell_angle_gamma                112.524(14)
_cell_volume                     444.28
loop_
_atom_site_label
_atom_site_type_symbol
_atom_site_fract_x
_atom_site_fract_y
_atom_site_fract_z
Ca1 Ca 0.09207(16) -0.20575(14) 0.51489(12)
P1 P 0.4830(2) 0.2575(2) 0.62450(16)
P2 P 0.8594(2) 0.2024(2) 0.84394(16)
C1 C 0.5678(9) 0.1531(8) 0.7869(6)
C2 C 0.4959(9) 0.2138(8) 0.9069(6)
H1 H 0.5739 0.3515 0.9392
H2 H 0.5274 0.1486 0.9874
H3 H 0.3405 0.1801 0.8708
O1 O 0.6076(6) 0.2497(5) 0.5225(4)
O2 O 0.5322(6) 0.4753(6) 0.6834(5)
H4 H 0.6264 0.5500 0.6532
O3 O 0.2350(6) 0.1468(5) 0.5648(4)
O4 O 0.9842(6) 0.4246(6) 0.8771(4)
H5 H 1.0060 0.4640 0.8029
O5 O 0.9126(6) 0.1191(5) 0.9838(4)
O6 O 0.9036(6) 0.1119(5) 0.7197(5)
O7 O 0.4459(6) -0.0567(5) 0.7379(5)
H6 H 0.5067 -0.1174 0.7924
O8 O -0.1432(6) -0.5223(6) 0.3514(4)
O9 O -0.0755(6) -0.2308(5) 0.7143(5)
Ca1A Ca -0.09207(16) -0.79425(14) 0.48511(12)
Ca1_2 Ca -0.90793(16) -1.20575(14) 0.51489(12)
Ca1_3 Ca 0.09207(16) -1.20575(14) 0.51489(12)
Ca1A_2 Ca -0.09207(16) 0.20575(14) 0.48511(12)
Ca1A_3 Ca 0.90793(16) 0.20575(14) 0.48511(12)
P1A P -0.4830(2) -1.2575(2) 0.37550(16)
P2A P -0.8594(2) -1.2024(2) 0.15606(16)
C1A C -0.5678(9) -1.1531(8) 0.2131(6)
C2A C -0.4959(9) -1.2138(8) 0.0931(6)
H1A H -0.5739 -1.3515 0.0608
H2A H -0.5274 -1.1486 0.0126
H3A H -0.3405 -1.1801 0.1292
O1A O -0.6076(6) -1.2497(5) 0.4775(4)
O1_2 O -0.3924(6) -0.7503(5) 0.5225(4)
O1A_2 O 0.3924(6) -0.2497(5) 0.4775(4)
O2A O -0.5322(6) -1.4753(6) 0.3166(5)
H4A H -0.6264 -1.5500 0.3468
O3A O -0.2350(6) -1.1468(5) 0.4352(4)
O3_2 O 0.2350(6) -0.8532(5) 0.5648(4)
O3A_2 O -0.2350(6) -0.1468(5) 0.4352(4)
O4A O -0.9842(6) -1.4246(6) 0.1229(4)
H5A H -1.0060 -1.4640 0.1971
O5A O -0.9126(6) -1.1191(5) 0.0162(4)
O6A O -0.9036(6) -1.1119(5) 0.2803(5)
O6_2 O -0.0964(6) -0.8881(5) 0.7197(5)
O6A_2 O 0.0964(6) -0.1119(5) 0.2803(5)
O7A O -0.4459(6) -0.9433(5) 0.2621(5)
H6A H -0.5067 -0.8826 0.2076
O8A O 0.1432(6) -0.4777(6) 0.6486(4)
O9A O 0.0755(6) -0.7692(5) 0.2857(5)
loop_
_geom_bond_atom_site_label_1
_geom_bond_atom_site_label_2
_geom_bond_site_symmetry_1
_geom_bond_site_symmetry_2
Ca1 O3 1_555 1_555
P1 C1 1_555 1_555
P2 C1 1_555 1_555
C1 C2 1_555 1_555
C2 H1 1_555 1_555
H2 C2 1_555 1_555
H3 C2 1_555 1_555
O1 P1 1_555 1_555
O2 P1 1_555 1_555
H4 O2 1_555 1_555
O3 P1 1_555 1_555
O4 P2 1_555 1_555
H5 O4 1_555 1_555
O5 P2 1_555 1_555
O6 P2 1_555 1_555
O7 Ca1 1_555 1_555
H6 O7 1_555 1_555
O8 Ca1 1_555 1_555
O9 Ca1 1_555 1_555
Ca1A O8 1_555 1_555
Ca1_2 O1A 1_555 1_555
Ca1_3 O3A 1_555 1_555
Ca1A_2 O3 1_555 1_555
Ca1A_3 O1 1_555 1_555
P1A C1A 1_555 1_555
P2A C1A 1_555 1_555
C1A C2A 1_555 1_555
C2A H1A 1_555 1_555
H2A C2A 1_555 1_555
H3A C2A 1_555 1_555
O1A P1A 1_555 1_555
O1_2 Ca1A 1_555 1_555
O1A_2 Ca1 1_555 1_555
O2A P1A 1_555 1_555
H4A O2A 1_555 1_555
O3A Ca1A 1_555 1_555
O3_2 Ca1A 1_555 1_555
O3A_2 Ca1 1_555 1_555
O4A P2A 1_555 1_555
H5A O4A 1_555 1_555
O5A P2A 1_555 1_555
O6A Ca1_2 1_555 1_555
O6_2 Ca1A 1_555 1_555
O6A_2 Ca1 1_555 1_555
O7A Ca1A 1_555 1_555
H6A O7A 1_555 1_555
O8A Ca1 1_555 1_555
O9A Ca1A 1_555 1_555
C1 O7 1_555 1_555
O6 Ca1A_3 1_555 1_555
Ca1A O8A 1_555 1_555
Ca1_3 O3_2 1_555 1_555
Ca1A_2 O3A_2 1_555 1_555
P1A O3A 1_555 1_555
P2A O6A 1_555 1_555
C1A O7A 1_555 1_555

#END
