
#######################################################################
#
#                 Cambridge Crystallographic Data Centre
#                                CCDC 
#
#######################################################################
#
# If this CIF has been generated from an entry in the Cambridge 
# Structural Database, then it will include bibliographic, chemical, 
# crystal, experimental, refinement or atomic coordinate data resulting 
# from the CCDC's data processing and validation procedures.
#
#######################################################################

data_CAFCOD
_symmetry_cell_setting           monoclinic
_symmetry_space_group_name_H-M   'P 21/n'
_symmetry_Int_Tables_number      14
_space_group_name_Hall           '-P 2yn'
loop_
_symmetry_equiv_pos_site_id
_symmetry_equiv_pos_as_xyz
1 x,y,z
2 1/2-x,1/2+y,1/2-z
3 -x,-y,-z
4 1/2+x,1/2-y,1/2+z
_cell_length_a                   13.0203(2)
_cell_length_b                   8.43330(10)
_cell_length_c                   15.1799(3)
_cell_angle_alpha                90
_cell_angle_beta                 114.959(2)
_cell_angle_gamma                90
_cell_volume                     1511.15
loop_
_atom_site_label
_atom_site_type_symbol
_atom_site_fract_x
_atom_site_fract_y
_atom_site_fract_z
Cd1 Cd 0.178660(8) 0.542355(10) 0.204973(7)
N1 N 0.11440(10) 0.51232(13) 0.32513(8)
O1 O -0.06372(8) 0.75812(12) 0.14571(7)
O2 O -0.17721(8) 0.89118(12) 0.45099(7)
O3 O 0.14327(8) 1.04996(11) 0.16250(7)
O4 O 0.17223(7) 0.81270(11) 0.22853(7)
O5 O -0.20740(8) 0.93022(13) 0.61613(8)
O6 O -0.38567(7) 0.85708(12) 0.54162(7)
O7 O 0.06193(9) 0.34281(12) 0.12862(8)
C1 C -0.09210(11) 0.79771(16) 0.22099(10)
C2 C -0.17604(11) 0.70764(16) 0.22999(10)
H1 H -0.2123 0.6262 0.1841
C3 C -0.20811(12) 0.73476(17) 0.30531(10)
H2 H -0.266 0.6724 0.3107
C4 C -0.15485(11) 0.85384(16) 0.37264(10)
C5 C -0.07102(11) 0.94434(16) 0.36294(10)
H3 H -0.0346 1.0258 0.4087
C6 C -0.03978(12) 0.91785(16) 0.28794(11)
H4 H 0.0172 0.9813 0.282
C7 C -0.01717(11) 0.88311(17) 0.11132(10)
H5 H -0.0597 0.9816 0.1089
H6 H -0.0288 0.858 0.044
C8 C 0.10832(11) 0.91445(15) 0.17188(9)
C9 C -0.27288(11) 0.81819(18) 0.45598(10)
H7 H -0.2629 0.7016 0.4593
H8 H -0.3417 0.8437 0.3966
C10 C -0.28774(11) 0.87519(16) 0.54427(10)
C11 C 0.14430(14) 0.6180(2) 0.39746(12)
H9 H 0.1967 0.6987 0.4008
C12 C 0.10303(14) 0.6159(2) 0.46712(11)
H10 H 0.128 0.693 0.5174
C13 C 0.02512(11) 0.50160(15) 0.46434(10)
C14 C -0.00452(14) 0.39142(18) 0.38972(12)
H11 H -0.0568 0.3094 0.3845
C15 C 0.04143(13) 0.40034(18) 0.32332(11)
H12 H 0.02 0.3225 0.2735
H13 H 0.0120(15) 0.357(2) 0.0729(14)
H14 H 0.0861(15) 0.252(2) 0.1360(13)
Cd1B Cd -0.178660(8) 0.457645(10) 0.795027(7)
Cd1A Cd 0.321340(8) 1.042355(10) 0.295027(7)
Cd1C Cd -0.321340(8) 0.957645(10) 0.704973(7)
Cd1B_2 Cd 0.821340(8) 0.457645(10) -0.204973(7)
Cd1C_2 Cd 0.678660(8) 0.957645(10) -0.295027(7)
N1B N -0.11440(10) 0.48768(13) 0.67487(8)
O1C O 0.43628(8) 0.74188(12) -0.35429(7)
O2C O 0.32279(8) 0.60882(12) -0.04901(7)
O3C O 0.64327(8) 0.45004(11) -0.33750(7)
O3A O 0.35673(8) 0.54996(11) 0.33750(7)
O3C_2 O -0.35673(8) 0.45004(11) 0.66250(7)
O4C O 0.67223(7) 0.68730(11) -0.27147(7)
O4A O 0.32777(7) 0.31270(11) 0.27147(7)
O4B O -0.17223(7) 0.18730(11) 0.77147(7)
O4C_2 O -0.32777(7) 0.68730(11) 0.72853(7)
O5C O 0.29260(8) 0.56978(13) 0.11613(8)
O5A O -0.29260(8) 0.43022(13) 0.88387(8)
O6C O 0.11433(7) 0.64292(12) 0.04162(7)
O6A O -0.11433(7) 0.35708(12) 0.95838(7)
O7B O -0.06193(9) 0.65719(12) 0.87138(8)
C1C C 0.40790(11) 0.70229(16) -0.27901(10)
C2C C 0.32396(11) 0.79236(16) -0.27001(10)
H1C H 0.2877 0.8738 -0.3159
C3C C 0.29189(12) 0.76524(17) -0.19469(10)
H2C H 0.234 0.8276 -0.1893
C4C C 0.34515(11) 0.64616(16) -0.12736(10)
C5C C 0.42898(11) 0.55566(16) -0.13706(10)
H3C H 0.4654 0.4742 -0.0913
C6C C 0.46022(12) 0.58215(16) -0.21206(11)
H4C H 0.5172 0.5187 -0.218
C7C C 0.48283(11) 0.61689(17) -0.38868(10)
H5C H 0.4403 0.5184 -0.3911
H6C H 0.4712 0.642 -0.456
C8C C 0.60832(11) 0.58555(15) -0.32812(9)
C9C C 0.22712(11) 0.68181(18) -0.04402(10)
H7C H 0.2371 0.7984 -0.0407
H8C H 0.1583 0.6563 -0.1034
C10C C 0.21226(11) 0.62481(16) 0.04427(10)
C11B C -0.14430(14) 0.3820(2) 0.60254(12)
H9B H -0.1967 0.3013 0.5992
C12B C -0.10303(14) 0.3841(2) 0.53288(11)
H10B H -0.128 0.307 0.4826
C13B C -0.02512(11) 0.49840(15) 0.53566(10)
C14B C 0.00452(14) 0.60858(18) 0.61028(12)
H11B H 0.0568 0.6906 0.6155
C15B C -0.04143(13) 0.59966(18) 0.67668(11)
H12B H -0.02 0.6775 0.7265
H13B H -0.0120(15) 0.643(2) 0.9271(14)
H14B H -0.0861(15) 0.748(2) 0.8640(13)
loop_
_geom_bond_atom_site_label_1
_geom_bond_atom_site_label_2
_geom_bond_site_symmetry_1
_geom_bond_site_symmetry_2
Cd1 N1 1_555 1_555
N1 C11 1_555 1_555
O1 C1 1_555 1_555
O2 C4 1_555 1_555
O3 C8 1_555 1_555
O4 Cd1 1_555 1_555
O5 C10 1_555 1_555
O6 C10 1_555 1_555
O7 Cd1 1_555 1_555
C1 C2 1_555 1_555
C2 H1 1_555 1_555
C3 C2 1_555 1_555
H2 C3 1_555 1_555
C4 C3 1_555 1_555
C5 C4 1_555 1_555
H3 C5 1_555 1_555
C6 C1 1_555 1_555
H4 C6 1_555 1_555
C7 O1 1_555 1_555
H5 C7 1_555 1_555
H6 C7 1_555 1_555
C8 O4 1_555 1_555
C9 O2 1_555 1_555
H7 C9 1_555 1_555
H8 C9 1_555 1_555
C10 C9 1_555 1_555
C11 H9 1_555 1_555
C12 C11 1_555 1_555
H10 C12 1_555 1_555
C13 C12 1_555 1_555
C14 C13 1_555 1_555
H11 C14 1_555 1_555
C15 N1 1_555 1_555
H12 C15 1_555 1_555
H13 O7 1_555 1_555
H14 O7 1_555 1_555
Cd1B N1B 1_555 1_555
Cd1A O3 1_555 1_555
Cd1C O5 1_555 1_555
Cd1B_2 O3C 1_555 1_555
Cd1C_2 O4C 1_555 1_555
N1B C11B 1_555 1_555
O1C C1C 1_555 1_555
O2C C4C 1_555 1_555
O3C C8C 1_555 1_555
O3A Cd1 1_555 1_555
O3C_2 Cd1B 1_555 1_555
O4C Cd1B_2 1_555 1_555
O4A Cd1 1_555 1_555
O4B Cd1B 1_555 1_555
O4C_2 Cd1B 1_555 1_555
O5C Cd1 1_555 1_555
O5A Cd1B 1_555 1_555
O6C Cd1 1_555 1_555
O6A Cd1B 1_555 1_555
O7B Cd1B 1_555 1_555
C1C C2C 1_555 1_555
C2C H1C 1_555 1_555
C3C C2C 1_555 1_555
H2C C3C 1_555 1_555
C4C C3C 1_555 1_555
C5C C4C 1_555 1_555
H3C C5C 1_555 1_555
C6C C1C 1_555 1_555
H4C C6C 1_555 1_555
C7C O1C 1_555 1_555
H5C C7C 1_555 1_555
H6C C7C 1_555 1_555
C8C O4C 1_555 1_555
C9C O2C 1_555 1_555
H7C C9C 1_555 1_555
H8C C9C 1_555 1_555
C10C O5C 1_555 1_555
C11B H9B 1_555 1_555
C12B C11B 1_555 1_555
H10B C12B 1_555 1_555
C13B C13 1_555 1_555
C14B C13B 1_555 1_555
H11B C14B 1_555 1_555
C15B N1B 1_555 1_555
H12B C15B 1_555 1_555
H13B O7B 1_555 1_555
H14B O7B 1_555 1_555
O4 Cd1A 1_555 1_555
O6 Cd1C 1_555 1_555
C5 C6 1_555 1_555
C7 C8 1_555 1_555
C14 C15 1_555 1_555
Cd1C O4C_2 1_555 1_555
O6C C10C 1_555 1_555
C5C C6C 1_555 1_555
C7C C8C 1_555 1_555
C9C C10C 1_555 1_555
C12B C13B 1_555 1_555
C14B C15B 1_555 1_555

#END
