
#######################################################################
#
#                 Cambridge Crystallographic Data Centre
#                                CCDC 
#
#######################################################################
#
# If this CIF has been generated from an entry in the Cambridge 
# Structural Database, then it will include bibliographic, chemical, 
# crystal, experimental, refinement or atomic coordinate data resulting 
# from the CCDC's data processing and validation procedures.
#
#######################################################################

data_CAFCET
_symmetry_cell_setting           monoclinic
_symmetry_space_group_name_H-M   'C 2/c'
_symmetry_Int_Tables_number      15
_space_group_name_Hall           '-C 2yn'
loop_
_symmetry_equiv_pos_site_id
_symmetry_equiv_pos_as_xyz
1 x,y,z
2 -x,y,1/2-z
3 1/2+x,1/2+y,z
4 1/2-x,1/2+y,1/2-z
5 -x,-y,-z
6 x,-y,1/2+z
7 1/2-x,1/2-y,-z
8 1/2+x,1/2-y,1/2+z
_cell_length_a                   20.6217(9)
_cell_length_b                   6.47260(10)
_cell_length_c                   16.2460(13)
_cell_angle_alpha                90
_cell_angle_beta                 117.788(8)
_cell_angle_gamma                90
_cell_volume                     1918.38
loop_
_atom_site_label
_atom_site_type_symbol
_atom_site_fract_x
_atom_site_fract_y
_atom_site_fract_z
Cd1 Cd 1.00000 0.165281(17) 0.25000
O1 O 0.92159(5) 0.46271(13) 0.23636(7)
O2 O 0.87868(5) 0.15138(13) 0.23740(6)
O3 O 0.78603(5) 0.64109(13) 0.18105(6)
O4 O 1.00000 -0.1922(2) 0.25000
N1 N 1.05459(5) 0.16294(15) 0.41120(7)
C1 C 0.87120(6) 0.34320(17) 0.22839(8)
C2 C 0.79644(7) 0.42941(19) 0.20739(9)
C3 C 0.76954(6) 0.68691(18) 0.09067(8)
C4 C 0.77194(7) 0.54743(18) 0.02732(8)
C5 C 0.74794(7) 0.88887(19) 0.06280(9)
C6 C 1.05789(8) 0.3387(2) 0.45581(9)
C7 C 1.08264(8) 0.3470(2) 0.55099(9)
C8 C 1.10470(7) 0.1679(2) 0.60260(9)
C9 C 1.10272(7) -0.0133(2) 0.55698(8)
C10 C 1.07759(7) -0.0099(2) 0.46171(8)
H1 H 1.0339(10) -0.270(3) 0.2564(13)
H2 H 0.7906(9) 0.420(2) 0.2615(10)
H3 H 0.7584(9) 0.346(2) 0.1615(11)
H4 H 0.7894(9) 0.408(3) 0.0469(11)
H5 H 0.7472(9) 0.980(2) 0.1095(11)
H6 H 1.0426(10) 0.456(3) 0.4197(12)
H7 H 1.0836(11) 0.475(3) 0.5749(12)
H8 H 1.1212(9) 0.169(2) 0.6650(12)
H9 H 1.1187(11) -0.141(3) 0.5886(13)
H10 H 1.0756(10) -0.129(3) 0.4295(12)
Cd1F Cd 0.50000 1.334719(17) -0.25000
O1F O 0.57841(5) 1.03729(13) -0.23636(7)
O1A O 1.07841(5) 0.46271(13) 0.26364(7)
O2F O 0.62132(5) 1.34862(13) -0.23740(6)
O2A O 1.12132(5) 0.15138(13) 0.26260(6)
O3F O 0.71397(5) 0.85891(13) -0.18105(6)
N1A N 0.94541(5) 0.16294(15) 0.08880(7)
C1F C 0.62880(6) 1.15680(17) -0.22839(8)
C2F C 0.70356(7) 1.07059(19) -0.20739(9)
C3F C 0.73046(6) 0.81309(18) -0.09067(8)
C4F C 0.72806(7) 0.95257(18) -0.02732(8)
C5F C 0.75206(7) 0.61113(19) -0.06280(9)
C6A C 0.94211(8) 0.3387(2) 0.04419(9)
C7A C 0.91736(8) 0.3470(2) -0.05099(9)
C8A C 0.89530(7) 0.1679(2) -0.10260(9)
C9A C 0.89728(7) -0.0133(2) -0.05698(8)
C10A C 0.92241(7) -0.0099(2) 0.03829(8)
H1A H 0.9661(10) -0.270(3) 0.2436(13)
H2F H 0.7094(9) 1.080(2) -0.2615(10)
H3F H 0.7416(9) 1.154(2) -0.1615(11)
H4F H 0.7106(9) 1.092(3) -0.0469(11)
H5F H 0.7528(9) 0.520(2) -0.1095(11)
H6A H 0.9574(10) 0.456(3) 0.0803(12)
H7A H 0.9164(11) 0.475(3) -0.0749(12)
H8A H 0.8788(9) 0.169(2) -0.1650(12)
H9A H 0.8813(11) -0.141(3) -0.0886(13)
H10A H 0.9244(10) -0.129(3) 0.0705(12)
loop_
_geom_bond_atom_site_label_1
_geom_bond_atom_site_label_2
_geom_bond_site_symmetry_1
_geom_bond_site_symmetry_2
Cd1 O1 1_555 1_555
O1 C1 1_555 1_555
O2 Cd1 1_555 1_555
O3 C2 1_555 1_555
O4 Cd1 1_555 1_555
N1 Cd1 1_555 1_555
C1 O2 1_555 1_555
C2 C1 1_555 1_555
C3 O3 1_555 1_555
C4 C3 1_555 1_555
C5 C3 1_555 1_555
C6 N1 1_555 1_555
C7 C6 1_555 1_555
C8 C7 1_555 1_555
C9 C8 1_555 1_555
C10 N1 1_555 1_555
H1 O4 1_555 1_555
H2 C2 1_555 1_555
H3 C2 1_555 1_555
H4 C4 1_555 1_555
H5 C5 1_555 1_555
H6 C6 1_555 1_555
H7 C7 1_555 1_555
H8 C8 1_555 1_555
H9 C9 1_555 1_555
H10 C10 1_555 1_555
Cd1F O1F 1_555 1_555
O1F C1F 1_555 1_555
O1A Cd1 1_555 1_555
O2F Cd1F 1_555 1_555
O2A Cd1 1_555 1_555
O3F C2F 1_555 1_555
N1A Cd1 1_555 1_555
C1F O2F 1_555 1_555
C2F C1F 1_555 1_555
C3F O3F 1_555 1_555
C4F C5 1_555 1_555
C5F C4 1_555 1_555
C6A N1A 1_555 1_555
C7A C6A 1_555 1_555
C8A C7A 1_555 1_555
C9A C8A 1_555 1_555
C10A N1A 1_555 1_555
H1A O4 1_555 1_555
H2F C2F 1_555 1_555
H3F C2F 1_555 1_555
H4F C4F 1_555 1_555
H5F C5F 1_555 1_555
H6A C6A 1_555 1_555
H7A C7A 1_555 1_555
H8A C8A 1_555 1_555
H9A C9A 1_555 1_555
H10A C10A 1_555 1_555
C9 C10 1_555 1_555
C3F C4F 1_555 1_555
C3F C5F 1_555 1_555
C9A C10A 1_555 1_555

#END
