
#######################################################################
#
#                 Cambridge Crystallographic Data Centre
#                                CCDC 
#
#######################################################################
#
# If this CIF has been generated from an entry in the Cambridge 
# Structural Database, then it will include bibliographic, chemical, 
# crystal, experimental, refinement or atomic coordinate data resulting 
# from the CCDC's data processing and validation procedures.
#
#######################################################################

data_CAFGEX
_symmetry_cell_setting           triclinic
_symmetry_space_group_name_H-M   'P -1'
_symmetry_Int_Tables_number      2
_space_group_name_Hall           '-P 1'
loop_
_symmetry_equiv_pos_site_id
_symmetry_equiv_pos_as_xyz
1 x,y,z
2 -x,-y,-z
_cell_length_a                   6.6922(5)
_cell_length_b                   9.7291(8)
_cell_length_c                   12.2184(9)
_cell_angle_alpha                99.0020(10)
_cell_angle_beta                 99.1300(10)
_cell_angle_gamma                99.1910(10)
_cell_volume                     761.756
loop_
_atom_site_label
_atom_site_type_symbol
_atom_site_fract_x
_atom_site_fract_y
_atom_site_fract_z
Zn1 Zn 0.64530(4) 0.75767(3) 0.80821(2)
O1 O 0.3662(3) 0.6542(2) 0.73797(16)
O2 O 0.3556(4) 0.8443(2) 0.6636(2)
O3 O -0.1526(3) 0.7214(2) 0.71284(17)
O4 O -0.2059(4) 0.5227(2) 0.77549(19)
O5 O 0.2357(4) 0.7729(3) 0.38867(18)
O6 O 0.5209(3) 0.6976(3) 0.4566(2)
H1 H 0.5794 0.7775 0.4542
N1 N 0.7044(3) 0.9712(2) 0.87869(18)
N2 N 0.7049(3) 0.7475(2) 0.97745(17)
C1 C 0.1059(4) 0.6361(3) 0.5745(2)
H2 H 0.0215 0.7022 0.5480
C2 C -0.0294(4) 0.5246(3) 0.6197(2)
H3 H 0.0579 0.4640 0.6526
C3 C 0.1996(4) 0.5694(3) 0.4747(2)
H4 H 0.2955 0.5109 0.5027
C4 C 0.2866(4) 0.7198(3) 0.6656(2)
C5 C -0.1351(4) 0.5923(3) 0.7112(2)
C6 C 0.3181(5) 0.6896(3) 0.4329(2)
C7 C 0.7064(4) 1.0784(3) 0.8233(2)
H5 H 0.6750 1.0583 0.7448
C8 C 0.7535(4) 1.2188(3) 0.8774(3)
H6 H 0.7546 1.2919 0.8366
C9 C 0.7987(4) 1.2470(3) 0.9937(3)
H7 H 0.8317 1.3403 1.0325
C10 C 0.7948(4) 1.1372(3) 1.0522(2)
H8 H 0.8234 1.1554 1.1307
C11 C 0.7478(4) 0.9989(3) 0.9929(2)
C12 C 0.7447(4) 0.8739(3) 1.0482(2)
C13 C 0.7819(4) 0.8825(3) 1.1645(2)
H9 H 0.8111 0.9701 1.2127
C14 C 0.7751(5) 0.7600(3) 1.2070(2)
H10 H 0.7977 0.7640 1.2847
C15 C 0.7348(5) 0.6303(3) 1.1347(3)
H11 H 0.7296 0.5464 1.1625
C16 C 0.7026(4) 0.6291(3) 1.0204(2)
H12 H 0.6784 0.5425 0.9712
Zn1A Zn -0.64530(4) 0.24233(3) 0.19179(2)
Zn1_2 Zn -0.35470(4) 0.75767(3) 0.80821(2)
Zn1A_2 Zn 0.35470(4) 0.24233(3) 0.19179(2)
O1A O -0.3662(3) 0.3458(2) 0.26203(16)
O2A O -0.3556(4) 0.1557(2) 0.3364(2)
O3A O 0.1526(3) 0.2786(2) 0.28716(17)
O3_2 O 0.8474(3) 0.7214(2) 0.71284(17)
O3A_2 O -0.8474(3) 0.2786(2) 0.28716(17)
O4A O 0.2059(4) 0.4773(2) 0.22451(19)
O5A O -0.2357(4) 0.2271(3) 0.61133(18)
O6A O -0.5209(3) 0.3024(3) 0.5434(2)
H1A H -0.5794 0.2225 0.5458
N1A N -0.7044(3) 0.0288(2) 0.12131(18)
N2A N -0.7049(3) 0.2525(2) 0.02255(17)
C1A C -0.1059(4) 0.3639(3) 0.4255(2)
H2A H -0.0215 0.2978 0.4520
C2A C 0.0294(4) 0.4754(3) 0.3803(2)
H3A H -0.0579 0.5360 0.3474
C3A C -0.1996(4) 0.4306(3) 0.5253(2)
H4A H -0.2955 0.4891 0.4973
C4A C -0.2866(4) 0.2802(3) 0.3344(2)
C5A C 0.1351(4) 0.4077(3) 0.2888(2)
C6A C -0.3181(5) 0.3104(3) 0.5671(2)
C7A C -0.7064(4) -0.0784(3) 0.1767(2)
H5A H -0.6750 -0.0583 0.2552
C8A C -0.7535(4) -0.2188(3) 0.1226(3)
H6A H -0.7546 -0.2919 0.1634
C9A C -0.7987(4) -0.2470(3) 0.0063(3)
H7A H -0.8317 -0.3403 -0.0325
C10A C -0.7948(4) -0.1372(3) -0.0522(2)
H8A H -0.8234 -0.1554 -0.1307
C11A C -0.7478(4) 0.0011(3) 0.0071(2)
C12A C -0.7447(4) 0.1261(3) -0.0482(2)
C13A C -0.7819(4) 0.1175(3) -0.1645(2)
H9A H -0.8111 0.0299 -0.2127
C14A C -0.7751(5) 0.2400(3) -0.2070(2)
H10A H -0.7977 0.2360 -0.2847
C15A C -0.7348(5) 0.3697(3) -0.1347(3)
H11A H -0.7296 0.4536 -0.1625
C16A C -0.7026(4) 0.3709(3) -0.0204(2)
H12A H -0.6784 0.4575 0.0288
O7 O 0.7567(5) 0.9505(3) 0.4554(3)
H13 H 0.885(2) 0.990(4) 0.469(4)
H14 H 0.688(5) 1.009(4) 0.429(4)
loop_
_geom_bond_atom_site_label_1
_geom_bond_atom_site_label_2
_geom_bond_site_symmetry_1
_geom_bond_site_symmetry_2
Zn1 O1 1_555 1_555
O1 C4 1_555 1_555
O2 C4 1_555 1_555
O3 C5 1_555 1_555
O4 C5 1_555 1_555
O5 C6 1_555 1_555
O6 H1 1_555 1_555
N1 Zn1 1_555 1_555
N2 Zn1 1_555 1_555
C1 H2 1_555 1_555
C2 C1 1_555 1_555
H3 C2 1_555 1_555
C3 C1 1_555 1_555
H4 C3 1_555 1_555
C4 C1 1_555 1_555
C5 C2 1_555 1_555
C6 O6 1_555 1_555
C7 N1 1_555 1_555
H5 C7 1_555 1_555
C8 C7 1_555 1_555
H6 C8 1_555 1_555
C9 C8 1_555 1_555
H7 C9 1_555 1_555
C10 C9 1_555 1_555
H8 C10 1_555 1_555
C11 N1 1_555 1_555
C12 N2 1_555 1_555
C13 C12 1_555 1_555
H9 C13 1_555 1_555
C14 C13 1_555 1_555
H10 C14 1_555 1_555
C15 C14 1_555 1_555
H11 C15 1_555 1_555
C16 N2 1_555 1_555
H12 C16 1_555 1_555
O7 H13 1_555 1_555
H14 O7 1_555 1_555
Zn1A O1A 1_555 1_555
Zn1_2 O3 1_555 1_555
Zn1A_2 O3A 1_555 1_555
O1A C4A 1_555 1_555
O2A C4A 1_555 1_555
O3A C5A 1_555 1_555
O3_2 Zn1 1_555 1_555
O3A_2 Zn1A 1_555 1_555
O4A C5A 1_555 1_555
O5A C6A 1_555 1_555
O6A H1A 1_555 1_555
N1A Zn1A 1_555 1_555
N2A Zn1A 1_555 1_555
C1A H2A 1_555 1_555
C2A C3 1_555 1_555
H3A C2A 1_555 1_555
C3A C2 1_555 1_555
H4A C3A 1_555 1_555
C4A C1A 1_555 1_555
C5A C2A 1_555 1_555
C6A O6A 1_555 1_555
C7A N1A 1_555 1_555
H5A C7A 1_555 1_555
C8A C7A 1_555 1_555
H6A C8A 1_555 1_555
C9A C8A 1_555 1_555
H7A C9A 1_555 1_555
C10A C9A 1_555 1_555
H8A C10A 1_555 1_555
C11A N1A 1_555 1_555
C12A N2A 1_555 1_555
C13A C12A 1_555 1_555
H9A C13A 1_555 1_555
C14A C13A 1_555 1_555
H10A C14A 1_555 1_555
C15A C14A 1_555 1_555
H11A C15A 1_555 1_555
C16A N2A 1_555 1_555
H12A C16A 1_555 1_555
C3 C6 1_555 1_555
C10 C11 1_555 1_555
C11 C12 1_555 1_555
C15 C16 1_555 1_555
C1A C2A 1_555 1_555
C1A C3A 1_555 1_555
C3A C6A 1_555 1_555
C10A C11A 1_555 1_555
C11A C12A 1_555 1_555
C15A C16A 1_555 1_555

#END
