
#######################################################################
#
#                 Cambridge Crystallographic Data Centre
#                                CCDC 
#
#######################################################################
#
# If this CIF has been generated from an entry in the Cambridge 
# Structural Database, then it will include bibliographic, chemical, 
# crystal, experimental, refinement or atomic coordinate data resulting 
# from the CCDC's data processing and validation procedures.
#
#######################################################################

data_CAFHIC
_symmetry_cell_setting           monoclinic
_symmetry_space_group_name_H-M   'P 21/n'
_symmetry_Int_Tables_number      14
_space_group_name_Hall           '-P 2yn'
loop_
_symmetry_equiv_pos_site_id
_symmetry_equiv_pos_as_xyz
1 x,y,z
2 1/2-x,1/2+y,1/2-z
3 -x,-y,-z
4 1/2+x,1/2-y,1/2+z
_cell_length_a                   9.8047(10)
_cell_length_b                   15.1782(17)
_cell_length_c                   12.2693(14)
_cell_angle_alpha                90
_cell_angle_beta                 91.780(3)
_cell_angle_gamma                90
_cell_volume                     1825.01
loop_
_atom_site_label
_atom_site_type_symbol
_atom_site_fract_x
_atom_site_fract_y
_atom_site_fract_z
C1 C 0.5716(5) 0.2225(3) 0.7395(4)
H1 H 0.6554 0.1885 0.7381
H2 H 0.5784 0.2621 0.8015
C2 C 0.4528(5) 0.1601(3) 0.7546(5)
H3 H 0.4398 0.1230 0.6908
H4 H 0.4705 0.1226 0.8175
C3 C 0.2132(5) 0.1695(3) 0.7890(4)
C4 C 0.1946(5) 0.0793(3) 0.7815(4)
H5 H 0.2666 0.0431 0.7624
C5 C 0.0680(6) 0.0428(4) 0.8027(5)
H6 H 0.0558 -0.0178 0.7973
C6 C -0.0409(5) 0.0961(4) 0.8317(5)
H7 H -0.1250 0.0713 0.8466
C7 C -0.0222(5) 0.1859(4) 0.8381(4)
H8 H -0.0947 0.2217 0.8570
C8 C 0.1035(5) 0.2241(3) 0.8167(4)
C9 C 0.5583(5) 0.2768(3) 0.6356(4)
H9 H 0.4792 0.3149 0.6399
H10 H 0.5433 0.2375 0.5741
C10 C 0.6832(5) 0.3328(3) 0.6160(4)
H11 H 0.7024 0.3711 0.6779
H12 H 0.6690 0.3689 0.5515
C11 C 0.9219(5) 0.3054(3) 0.5837(4)
C12 C 0.9575(5) 0.3943(3) 0.5901(4)
H13 H 0.8930 0.4365 0.6077
C13 C 1.0912(5) 0.4188(3) 0.5697(4)
H14 H 1.1162 0.4778 0.5744
C14 C 1.1874(5) 0.3562(3) 0.5423(4)
H15 H 1.2760 0.3732 0.5274
C15 C 1.1506(5) 0.2678(3) 0.5373(4)
H16 H 1.2156 0.2256 0.5206
C16 C 1.0186(5) 0.2421(3) 0.5568(4)
N1 N 0.1259(4) 0.3176(3) 0.8212(3)
H17 H 0.0604 0.3523 0.8376
H18 H 0.2049 0.3388 0.8075
N2 N 0.9756(4) 0.1523(2) 0.5478(3)
H19 H 1.0327 0.1123 0.5297
H20 H 0.8926 0.1383 0.5605
O1 O 0.3328(3) 0.2128(2) 0.7705(3)
O2 O 0.7940(3) 0.2727(2) 0.6016(3)
Ag1 Ag 0.29373(4) 0.35375(3) 0.93561(3)
N2C N 0.4756(4) 0.3477(2) 1.0478(3)
H19C H 0.5327 0.3877 1.0297
H20C H 0.3926 0.3617 1.0605
Ag1C Ag 0.79373(4) 0.14625(3) 0.43561(3)
O3 O 0.3535(5) 0.5485(4) 1.1143(6)
O4 O 0.1703(7) 0.4666(5) 1.1398(9)
O5 O 0.1413(5) 0.6139(4) 1.1041(6)
O6 O 0.2133(11) 0.5227(6) 0.9774(6)
Cl1 Cl 0.21270(16) 0.53628(9) 1.08668(12)
loop_
_geom_bond_atom_site_label_1
_geom_bond_atom_site_label_2
_geom_bond_site_symmetry_1
_geom_bond_site_symmetry_2
C1 H1 1_555 1_555
H2 C1 1_555 1_555
C2 C1 1_555 1_555
H3 C2 1_555 1_555
H4 C2 1_555 1_555
C3 C4 1_555 1_555
C4 H5 1_555 1_555
C5 C4 1_555 1_555
H6 C5 1_555 1_555
C6 C5 1_555 1_555
H7 C6 1_555 1_555
C7 C6 1_555 1_555
H8 C7 1_555 1_555
C8 C3 1_555 1_555
C9 C1 1_555 1_555
H9 C9 1_555 1_555
H10 C9 1_555 1_555
C10 C9 1_555 1_555
H11 C10 1_555 1_555
H12 C10 1_555 1_555
C11 C12 1_555 1_555
C12 H13 1_555 1_555
C13 C12 1_555 1_555
H14 C13 1_555 1_555
C14 C13 1_555 1_555
H15 C14 1_555 1_555
C15 C14 1_555 1_555
H16 C15 1_555 1_555
C16 C11 1_555 1_555
N1 C8 1_555 1_555
H17 N1 1_555 1_555
H18 N1 1_555 1_555
N2 C16 1_555 1_555
H19 N2 1_555 1_555
H20 N2 1_555 1_555
O1 C2 1_555 1_555
O2 C10 1_555 1_555
O3 Cl1 1_555 1_555
O4 Cl1 1_555 1_555
O5 Cl1 1_555 1_555
O6 Cl1 1_555 1_555
Ag1 N1 1_555 1_555
N2C Ag1 1_555 1_555
H19C N2C 1_555 1_555
H20C N2C 1_555 1_555
Ag1C N2 1_555 1_555
C3 O1 1_555 1_555
C7 C8 1_555 1_555
C11 O2 1_555 1_555
C15 C16 1_555 1_555

#END
