
#######################################################################
#
#                 Cambridge Crystallographic Data Centre
#                                CCDC 
#
#######################################################################
#
# If this CIF has been generated from an entry in the Cambridge 
# Structural Database, then it will include bibliographic, chemical, 
# crystal, experimental, refinement or atomic coordinate data resulting 
# from the CCDC's data processing and validation procedures.
#
#######################################################################

data_CAFHEY
_symmetry_cell_setting           orthorhombic
_symmetry_space_group_name_H-M   'F d d 2'
_symmetry_Int_Tables_number      43
_space_group_name_Hall           'F 2 -2d'
loop_
_symmetry_equiv_pos_site_id
_symmetry_equiv_pos_as_xyz
1 x,y,z
2 -x,-y,z
3 1/4-x,1/4+y,1/4+z
4 1/4+x,1/4-y,1/4+z
5 x,1/2+y,1/2+z
6 -x,1/2-y,1/2+z
7 1/4-x,3/4+y,3/4+z
8 1/4+x,3/4-y,3/4+z
9 1/2+x,y,1/2+z
10 1/2-x,-y,1/2+z
11 3/4-x,1/4+y,3/4+z
12 3/4+x,1/4-y,3/4+z
13 1/2+x,1/2+y,z
14 1/2-x,1/2-y,z
15 3/4-x,3/4+y,1/4+z
16 3/4+x,3/4-y,1/4+z
_cell_length_a                   5.5162(2)
_cell_length_b                   14.6189(6)
_cell_length_c                   21.4031(10)
_cell_angle_alpha                90
_cell_angle_beta                 90
_cell_angle_gamma                90
_cell_volume                     1725.96
loop_
_atom_site_label
_atom_site_type_symbol
_atom_site_fract_x
_atom_site_fract_y
_atom_site_fract_z
Ag1 Ag 0.0000 0.0000 0.3458
C1 C 0.2500 -0.2500 0.34539(19)
H1 H 0.2500 -0.2500 0.3019
N2 N -0.0955(4) -0.14598(13) 0.34439(15)
H2 H -0.2016 -0.1141 0.3642
H3 H -0.0931 -0.1456 0.3042
C2 C 0.0778(5) -0.19981(16) 0.37837(13)
C3 C 0.0741(6) -0.2004(2) 0.44281(16)
H4 H -0.0437 -0.1684 0.4649
C4 C 0.2500 -0.2500 0.4735(3)
H5 H 0.2500 -0.2500 0.5170
Ag1L Ag 0.5000 -0.5000 0.3458
N2M N 0.5955(4) -0.35402(13) 0.34439(15)
N2A N 0.0955(4) 0.14598(13) 0.34439(15)
H2M H 0.7016 -0.3859 0.3642
H2A H 0.2016 0.1141 0.3642
H3M H 0.5931 -0.3544 0.3042
C2M C 0.4222(5) -0.30019(16) 0.37837(13)
C3M C 0.4259(6) -0.2996(2) 0.44281(16)
H4M H 0.5437 -0.3316 0.4649
N1 N -0.2500 -0.2500 0.1872(2)
O1 O -0.0765(5) -0.2180(2) 0.21457(13)
O2 O -0.2500 -0.2500 0.12915(17)
O1M O -0.4235(5) -0.2820(2) 0.21457(13)
loop_
_geom_bond_atom_site_label_1
_geom_bond_atom_site_label_2
_geom_bond_site_symmetry_1
_geom_bond_site_symmetry_2
Ag1 N2 1_555 1_555
N1 O1 1_555 1_555
C1 H1 1_555 1_555
N2 H2 1_555 1_555
H3 N2 1_555 1_555
C2 C1 1_555 1_555
O2 N1 1_555 1_555
C3 C2 1_555 1_555
H4 C3 1_555 1_555
C4 C3 1_555 1_555
H5 C4 1_555 1_555
Ag1L N2M 1_555 1_555
O1M N1 1_555 1_555
N2M H2M 1_555 1_555
N2A Ag1 1_555 1_555
H2A N2A 1_555 1_555
H3M N2M 1_555 1_555
C2M C1 1_555 1_555
C3M C4 1_555 1_555
H4M C3M 1_555 1_555
N2 C2 1_555 1_555
N2M C2M 1_555 1_555
C2M C3M 1_555 1_555

#END
