
#######################################################################
#
#                 Cambridge Crystallographic Data Centre
#                                CCDC 
#
#######################################################################
#
# If this CIF has been generated from an entry in the Cambridge 
# Structural Database, then it will include bibliographic, chemical, 
# crystal, experimental, refinement or atomic coordinate data resulting 
# from the CCDC's data processing and validation procedures.
#
#######################################################################

data_CAFRUX
_symmetry_cell_setting           cubic
_symmetry_space_group_name_H-M   'P 43 3 2'
_symmetry_Int_Tables_number      212
_space_group_name_Hall           'P 4acd 2ab 3'
loop_
_symmetry_equiv_pos_site_id
_symmetry_equiv_pos_as_xyz
1 x,y,z
2 1/2-x,-y,1/2+z
3 -x,1/2+y,1/2-z
4 1/2+x,1/2-y,-z
5 z,x,y
6 1/2+z,1/2-x,-y
7 1/2-z,-x,1/2+y
8 -z,1/2+x,1/2-y
9 y,z,x
10 -y,1/2+z,1/2-x
11 1/2+y,1/2-z,-x
12 1/2-y,-z,1/2+x
13 1/4+y,3/4+x,3/4-z
14 1/4-y,1/4-x,1/4-z
15 3/4+y,3/4-x,1/4+z
16 3/4-y,1/4+x,3/4+z
17 1/4+x,3/4+z,3/4-y
18 3/4-x,1/4+z,3/4+y
19 1/4-x,1/4-z,1/4-y
20 3/4+x,3/4-z,1/4+y
21 1/4+z,3/4+y,3/4-x
22 3/4+z,3/4-y,1/4+x
23 3/4-z,1/4+y,3/4+x
24 1/4-z,1/4-y,1/4-x
_cell_length_a                   17.350(3)
_cell_length_b                   17.350(3)
_cell_length_c                   17.350(3)
_cell_angle_alpha                90
_cell_angle_beta                 90
_cell_angle_gamma                90
_cell_volume                     5222.74
loop_
_atom_site_label
_atom_site_type_symbol
_atom_site_fract_x
_atom_site_fract_y
_atom_site_fract_z
Ag1 Ag 0.77358(3) 0.22642(3) 0.72642(3)
C1 C 0.6320(4) 0.1079(3) 0.7798(3)
C2 C 0.6796(4) 0.0435(4) 0.7792(5)
H1 H 0.7146 0.0364 0.7392
C3 C 0.6749(6) -0.0103(4) 0.8383(6)
H2 H 0.7068 -0.0534 0.8380
C4 C 0.6226(7) 0.0002(7) 0.8981(5)
H3 H 0.6194 -0.0358 0.9376
C5 C 0.5749(6) 0.0646(8) 0.8986(4)
H4 H 0.5399 0.0717 0.9386
C6 C 0.5796(4) 0.1185(5) 0.8395(4)
H5 H 0.5477 0.1615 0.8398
S1 S 0.63529(10) 0.17992(10) 0.70924(10)
C7 C 0.6286(4) 0.1250 0.6214(4)
H6 H 0.6717 0.0904 0.6162
S1W S 0.54076(10) 0.07008(10) 0.61471(10)
C1W C 0.4702(3) 0.1421(3) 0.6180(4)
C2W C 0.4708(5) 0.2065(4) 0.5704(4)
H1W H 0.5108 0.2136 0.5354
C3W C 0.4117(6) 0.2603(4) 0.5751(6)
H2W H 0.4120 0.3034 0.5432
C4W C 0.3519(5) 0.2498(7) 0.6274(7)
H3W H 0.3124 0.2858 0.6306
C5W C 0.3514(4) 0.1854(8) 0.6751(6)
H4W H 0.3114 0.1783 0.7101
C6W C 0.4105(4) 0.1315(5) 0.6704(4)
H5W H 0.4102 0.0885 0.7023
H6W H 0.6338 0.1596 0.5783
C1F C 0.7202(3) 0.3680(4) 0.6079(3)
C2F C 0.7208(5) 0.3204(4) 0.5435(4)
H1F H 0.7608 0.2854 0.5364
C3F C 0.6617(6) 0.3251(6) 0.4897(4)
H2F H 0.6620 0.2932 0.4466
C4F C 0.6019(5) 0.3774(7) 0.5002(7)
H3F H 0.5624 0.3806 0.4642
C5F C 0.6014(4) 0.4251(6) 0.5646(8)
H4F H 0.5614 0.4601 0.5717
C6F C 0.6605(4) 0.4204(4) 0.6185(5)
H5F H 0.6602 0.4523 0.6615
S1F S 0.79076(10) 0.36471(10) 0.67992(10)
C7F C 0.8786(4) 0.3714(4) 0.6250
H6F H 0.8838 0.3283 0.5904
S1P S 0.88529(10) 0.45924(10) 0.57008(10)
C1P C 0.8820(4) 0.5298(3) 0.6421(3)
C2P C 0.9296(4) 0.5292(5) 0.7065(4)
H1P H 0.9646 0.4892 0.7136
C3P C 0.9249(6) 0.5883(6) 0.7603(4)
H2P H 0.9568 0.5880 0.8034
C4P C 0.8726(7) 0.6481(5) 0.7498(7)
H3P H 0.8694 0.6876 0.7858
C5P C 0.8249(6) 0.6486(4) 0.6854(8)
H4P H 0.7899 0.6886 0.6783
C6P C 0.8296(4) 0.5895(4) 0.6315(5)
H5P H 0.7977 0.5898 0.5885
H6P H 0.9217 0.3662 0.6596
C1I C 0.8921(3) 0.2798(3) 0.8680(4)
C2I C 0.9565(4) 0.2792(5) 0.8204(4)
H1I H 0.9636 0.2392 0.7854
C3I C 1.0103(4) 0.3383(6) 0.8251(6)
H2I H 1.0534 0.3380 0.7932
C4I C 0.9998(7) 0.3981(5) 0.8774(7)
H3I H 1.0358 0.4376 0.8806
C5I C 0.9354(8) 0.3986(4) 0.9251(6)
H4I H 0.9283 0.4386 0.9601
C6I C 0.8815(5) 0.3395(4) 0.9204(4)
H5I H 0.8385 0.3398 0.9523
S1I S 0.82008(10) 0.20924(10) 0.86471(10)
C7I C 0.8750 0.1214(4) 0.8714(4)
H6I H 0.9096 0.1162 0.8283
S1N S 0.92992(10) 0.11471(10) 0.95924(10)
C1N C 0.8579(3) 0.1180(4) 1.0298(3)
C2N C 0.7935(4) 0.0704(4) 1.0292(5)
H1N H 0.7864 0.0354 0.9892
C3N C 0.7397(4) 0.0751(6) 1.0883(6)
H2N H 0.6966 0.0432 1.0880
C4N C 0.7502(7) 0.1274(7) 1.1481(5)
H3N H 0.7142 0.1306 1.1876
C5N C 0.8146(8) 0.1751(6) 1.1486(4)
H4N H 0.8217 0.2101 1.1886
C6N C 0.8685(5) 0.1704(4) 1.0895(4)
H5N H 0.9115 0.2023 1.0898
H6N H 0.8404 0.0783 0.8662
Ag1W Ag 0.52358(3) 0.02358(3) 0.47642(3)
Ag1M Ag 1.02358(3) 0.47642(3) 0.52358(3)
Ag1N Ag 0.97642(3) -0.02358(3) 0.97642(3)
S1O S 0.57008(10) -0.11471(10) 0.45924(10)
S1S S 0.38529(10) 0.04076(10) 0.42992(10)
Cl1 Cl 0.88052(13) 0.11948(13) 0.61948(13)
O1 O 0.9253(4) 0.0747(4) 0.5747(4)
O2 O 0.8594(12) 0.0809(11) 0.6880(7)
O2F O 0.8120(7) 0.1406(12) 0.5809(11)
O2I O 0.9191(11) 0.1880(7) 0.6406(12)
loop_
_geom_bond_atom_site_label_1
_geom_bond_atom_site_label_2
_geom_bond_site_symmetry_1
_geom_bond_site_symmetry_2
Ag1 S1 1_555 1_555
C1 C2 1_555 1_555
C2 H1 1_555 1_555
C3 C2 1_555 1_555
H2 C3 1_555 1_555
C4 C3 1_555 1_555
H3 C4 1_555 1_555
C5 C4 1_555 1_555
H4 C5 1_555 1_555
C6 C1 1_555 1_555
H5 C6 1_555 1_555
Cl1 O1 1_555 1_555
O2 Cl1 1_555 1_555
S1 C1 1_555 1_555
C7 S1 1_555 1_555
H6 C7 1_555 1_555
S1W C7 1_555 1_555
C1W S1W 1_555 1_555
C2W C1W 1_555 1_555
H1W C2W 1_555 1_555
C3W C2W 1_555 1_555
H2W C3W 1_555 1_555
C4W C3W 1_555 1_555
H3W C4W 1_555 1_555
C5W C4W 1_555 1_555
H4W C5W 1_555 1_555
C6W C1W 1_555 1_555
H5W C6W 1_555 1_555
H6W C7 1_555 1_555
O2F Cl1 1_555 1_555
O2I Cl1 1_555 1_555
C1F C2F 1_555 1_555
C2F H1F 1_555 1_555
C3F C2F 1_555 1_555
H2F C3F 1_555 1_555
C4F C3F 1_555 1_555
H3F C4F 1_555 1_555
C5F C4F 1_555 1_555
H4F C5F 1_555 1_555
C6F C1F 1_555 1_555
H5F C6F 1_555 1_555
S1F Ag1 1_555 1_555
C7F S1F 1_555 1_555
H6F C7F 1_555 1_555
S1P C7F 1_555 1_555
C1P S1P 1_555 1_555
C2P C1P 1_555 1_555
H1P C2P 1_555 1_555
C3P C2P 1_555 1_555
H2P C3P 1_555 1_555
C4P C3P 1_555 1_555
H3P C4P 1_555 1_555
C5P C4P 1_555 1_555
H4P C5P 1_555 1_555
C6P C1P 1_555 1_555
H5P C6P 1_555 1_555
H6P C7F 1_555 1_555
C1I C2I 1_555 1_555
C2I H1I 1_555 1_555
C3I C2I 1_555 1_555
H2I C3I 1_555 1_555
C4I C3I 1_555 1_555
H3I C4I 1_555 1_555
C5I C4I 1_555 1_555
H4I C5I 1_555 1_555
C6I C1I 1_555 1_555
H5I C6I 1_555 1_555
S1I Ag1 1_555 1_555
C7I S1I 1_555 1_555
H6I C7I 1_555 1_555
S1N C7I 1_555 1_555
C1N S1N 1_555 1_555
C2N C1N 1_555 1_555
H1N C2N 1_555 1_555
C3N C2N 1_555 1_555
H2N C3N 1_555 1_555
C4N C3N 1_555 1_555
H3N C4N 1_555 1_555
C5N C4N 1_555 1_555
H4N C5N 1_555 1_555
C6N C1N 1_555 1_555
H5N C6N 1_555 1_555
H6N C7I 1_555 1_555
Ag1W S1W 1_555 1_555
Ag1M S1P 1_555 1_555
Ag1N S1N 1_555 1_555
S1O Ag1W 1_555 1_555
S1S Ag1W 1_555 1_555
C5 C6 1_555 1_555
C5W C6W 1_555 1_555
C1F S1F 1_555 1_555
C5F C6F 1_555 1_555
C5P C6P 1_555 1_555
C1I S1I 1_555 1_555
C5I C6I 1_555 1_555
C5N C6N 1_555 1_555

#END
