
#######################################################################
#
#                 Cambridge Crystallographic Data Centre
#                                CCDC 
#
#######################################################################
#
# If this CIF has been generated from an entry in the Cambridge 
# Structural Database, then it will include bibliographic, chemical, 
# crystal, experimental, refinement or atomic coordinate data resulting 
# from the CCDC's data processing and validation procedures.
#
#######################################################################

data_CAFSUY
_symmetry_cell_setting           orthorhombic
_symmetry_space_group_name_H-M   'C 2 2 21'
_symmetry_Int_Tables_number      20
_space_group_name_Hall           'C 2n 2'
loop_
_symmetry_equiv_pos_site_id
_symmetry_equiv_pos_as_xyz
1 x,y,z
2 -x,-y,1/2+z
3 -x,y,1/2-z
4 x,-y,-z
5 1/2+x,1/2+y,z
6 1/2-x,1/2-y,1/2+z
7 1/2-x,1/2+y,1/2-z
8 1/2+x,1/2-y,-z
_cell_length_a                   14.3826(13)
_cell_length_b                   22.7555(19)
_cell_length_c                   8.9757(8)
_cell_angle_alpha                90
_cell_angle_beta                 90
_cell_angle_gamma                90
_cell_volume                     2937.6
loop_
_atom_site_label
_atom_site_type_symbol
_atom_site_fract_x
_atom_site_fract_y
_atom_site_fract_z
Cu1 Cu 1.0000 0.220098(15) 1.2500
C1 C 0.92525(19) 0.28159(13) 0.9809(3)
H1 H 0.9555 0.2519 0.9287
C2 C 0.8754(2) 0.32311(14) 0.9020(3)
H2 H 0.8718 0.3211 0.7987
C3 C 0.8309(2) 0.36782(13) 0.9789(3)
C4 C 0.8376(3) 0.36851(15) 1.1323(4)
H3 H 0.8085 0.3979 1.1871
C5 C 0.8877(2) 0.32509(13) 1.2035(3)
H4 H 0.8910 0.3256 1.3070
C6 C 0.7807(2) 0.41269(14) 0.9016(4)
C7 C 0.7412(3) 0.45147(14) 0.8373(4)
C8 C 0.6996(2) 0.49507(12) 0.7567(4)
C9 C 0.6658(2) 0.53250(14) 0.6793(4)
C10 C 0.64679(19) 0.65503(12) 0.4101(3)
H5 H 0.6858 0.6814 0.3614
C11 C 0.6848(2) 0.61561(13) 0.5093(4)
H6 H 0.7484 0.6159 0.5279
C12 C 0.6282(2) 0.57566(12) 0.5811(3)
C13 C 0.5332(2) 0.57688(13) 0.5504(3)
H7 H 0.4928 0.5505 0.5962
C14 C 0.5004(3) 0.61817(10) 0.4503(3)
H8 H 0.4370 0.6191 0.4301
N1 N 0.93174(16) 0.28241(10) 1.1301(2)
N2 N 0.55552(15) 0.65667(10) 0.3815(2)
N3 N 1.14225(19) 0.23726(14) 0.9644(3)
O1 O 1.13628(15) 0.21587(11) 1.0937(2)
O2 O 1.1332(4) 0.20476(19) 0.8570(4)
O3 O 1.1498(3) 0.29117(14) 0.9492(3)
C1B C 1.07475(19) 0.28159(13) 1.5191(3)
H1B H 1.0445 0.2519 1.5713
C2B C 1.1246(2) 0.32311(14) 1.5980(3)
H2B H 1.1282 0.3211 1.7013
C3B C 1.1691(2) 0.36782(13) 1.5211(3)
C4B C 1.1624(3) 0.36851(15) 1.3677(4)
H3B H 1.1915 0.3979 1.3129
C5B C 1.1123(2) 0.32509(13) 1.2965(3)
H4B H 1.1090 0.3256 1.1930
C6B C 1.2193(2) 0.41269(14) 1.5984(4)
C7B C 1.2588(3) 0.45147(14) 1.6627(4)
C8B C 1.3004(2) 0.49507(12) 1.7433(4)
C9B C 1.3342(2) 0.53250(14) 1.8207(4)
C10B C 1.35321(19) 0.65503(12) 2.0899(3)
H5B H 1.3142 0.6814 2.1386
C11B C 1.3152(2) 0.61561(13) 1.9907(4)
H6B H 1.2516 0.6159 1.9721
C12B C 1.3718(2) 0.57566(12) 1.9189(3)
C13B C 1.4668(2) 0.57688(13) 1.9496(3)
H7B H 1.5072 0.5505 1.9038
C14B C 1.4996(3) 0.61817(10) 2.0497(3)
H8B H 1.5630 0.6191 2.0699
N1B N 1.06826(16) 0.28241(10) 1.3699(2)
N2B N 1.44448(15) 0.65667(10) 2.1185(2)
N3B N 0.85775(19) 0.23726(14) 1.5356(3)
O1B O 0.86372(15) 0.21587(11) 1.4063(2)
O2B O 0.8668(4) 0.20476(19) 1.6430(4)
O3B O 0.8502(3) 0.29117(14) 1.5508(3)
N2D N 1.05552(15) 0.15667(10) 1.3815(2)
N2F N 0.94448(15) 0.15667(10) 1.1185(2)
Cu1D Cu 0.5000 0.720098(15) 0.2500
Cu1D_2 Cu 1.5000 0.720098(15) 2.2500
C15 C 0.004(3) 0.5000 1.0000
H9 H -0.0366 0.5044 0.9139
H10 H -0.0366 0.4956 1.0861
Cl1 Cl 0.0617(2) 0.43746(17) 0.9794(8)
Cl1C Cl 0.0617(2) 0.56254(17) 1.0206(8)
loop_
_geom_bond_atom_site_label_1
_geom_bond_atom_site_label_2
_geom_bond_site_symmetry_1
_geom_bond_site_symmetry_2
Cu1 N1 1_555 1_555
C1 H1 1_555 1_555
C2 C1 1_555 1_555
H2 C2 1_555 1_555
C3 C2 1_555 1_555
C4 C3 1_555 1_555
H3 C4 1_555 1_555
C5 C4 1_555 1_555
H4 C5 1_555 1_555
C6 C3 1_555 1_555
C7 C6 1_555 1_555
C8 C7 1_555 1_555
C9 C8 1_555 1_555
C10 H5 1_555 1_555
C11 C10 1_555 1_555
H6 C11 1_555 1_555
C12 C9 1_555 1_555
C13 C12 1_555 1_555
H7 C13 1_555 1_555
C14 C13 1_555 1_555
H8 C14 1_555 1_555
N1 C1 1_555 1_555
N2 C10 1_555 1_555
N3 O1 1_555 1_555
O1 Cu1 1_555 1_555
O2 N3 1_555 1_555
O3 N3 1_555 1_555
C15 H9 1_555 1_555
H10 C15 1_555 1_555
Cl1 C15 1_555 1_555
Cl1C C15 1_555 1_555
C1B H1B 1_555 1_555
C2B C1B 1_555 1_555
H2B C2B 1_555 1_555
C3B C2B 1_555 1_555
C4B C3B 1_555 1_555
H3B C4B 1_555 1_555
C5B C4B 1_555 1_555
H4B C5B 1_555 1_555
C6B C3B 1_555 1_555
C7B C6B 1_555 1_555
C8B C7B 1_555 1_555
C9B C8B 1_555 1_555
C10B H5B 1_555 1_555
C11B C10B 1_555 1_555
H6B C11B 1_555 1_555
C12B C9B 1_555 1_555
C13B C12B 1_555 1_555
H7B C13B 1_555 1_555
C14B C13B 1_555 1_555
H8B C14B 1_555 1_555
N1B Cu1 1_555 1_555
N2B C10B 1_555 1_555
N3B O1B 1_555 1_555
O1B Cu1 1_555 1_555
O2B N3B 1_555 1_555
O3B N3B 1_555 1_555
N2D Cu1 1_555 1_555
N2F Cu1 1_555 1_555
Cu1D N2 1_555 1_555
Cu1D_2 N2B 1_555 1_555
C5 N1 1_555 1_555
C11 C12 1_555 1_555
C14 N2 1_555 1_555
C1B N1B 1_555 1_555
C5B N1B 1_555 1_555
C11B C12B 1_555 1_555
C14B N2B 1_555 1_555

#END
