
#######################################################################
#
#                 Cambridge Crystallographic Data Centre
#                                CCDC 
#
#######################################################################
#
# If this CIF has been generated from an entry in the Cambridge 
# Structural Database, then it will include bibliographic, chemical, 
# crystal, experimental, refinement or atomic coordinate data resulting 
# from the CCDC's data processing and validation procedures.
#
#######################################################################

data_CAFSIM
_symmetry_cell_setting           monoclinic
_symmetry_space_group_name_H-M   'C 2/c'
_symmetry_Int_Tables_number      15
_space_group_name_Hall           '-C 2yn'
loop_
_symmetry_equiv_pos_site_id
_symmetry_equiv_pos_as_xyz
1 x,y,z
2 1/2+x,1/2+y,z
3 x,-y,1/2+z
4 1/2+x,1/2-y,1/2+z
5 -x,-y,-z
6 1/2-x,1/2-y,-z
7 -x,y,1/2-z
8 1/2-x,1/2+y,1/2-z
_cell_length_a                   28.135(3)
_cell_length_b                   8.4347(9)
_cell_length_c                   17.6423(19)
_cell_angle_alpha                90
_cell_angle_beta                 91.797(2)
_cell_angle_gamma                90
_cell_volume                     4184.64
loop_
_atom_site_label
_atom_site_type_symbol
_atom_site_fract_x
_atom_site_fract_y
_atom_site_fract_z
Cd1 Cd 0.269593(12) 0.11563(4) 0.655889(19)
C1 C 0.15895(19) 0.1611(7) 0.6214(3)
H1 H 0.1631 0.2297 0.6624
C2 C 0.11695(19) 0.1698(7) 0.5800(3)
H2 H 0.0939 0.2435 0.5924
C3 C 0.10927(19) 0.0677(7) 0.5194(3)
C4 C 0.14473(19) -0.0412(7) 0.5048(3)
H3 H 0.1408 -0.1141 0.4656
C5 C 0.18616(18) -0.0399(6) 0.5496(3)
H4 H 0.2098 -0.1132 0.5393
C6 C 0.06818(19) 0.0800(7) 0.4718(3)
C7 C 0.0328(2) 0.0970(7) 0.4325(3)
C8 C -0.0068(2) 0.1225(7) 0.3877(3)
C9 C -0.04237(19) 0.1481(7) 0.3495(3)
C10 C -0.13947(19) 0.1724(7) 0.2037(3)
H5 H -0.1482 0.1257 0.1575
C11 C -0.09825(19) 0.1223(7) 0.2392(3)
H6 H -0.0796 0.0443 0.2178
C12 C -0.08508(17) 0.1920(7) 0.3086(3)
C13 C -0.11473(18) 0.3056(7) 0.3373(3)
H7 H -0.1072 0.3535 0.3836
C14 C -0.15546(18) 0.3480(6) 0.2974(3)
H8 H -0.1750 0.4247 0.3178
N1 N 0.19383(14) 0.0621(5) 0.6071(2)
N2 N -0.16820(14) 0.2843(5) 0.2309(2)
N3 N 0.32737(19) 0.0276(6) 0.5272(3)
O1 O 0.34749(18) 0.0325(7) 0.5892(3)
O2 O 0.28538(16) 0.0790(5) 0.5243(2)
O3 O 0.3454(2) -0.0229(7) 0.4710(3)
N4 N 0.22365(14) 0.2508(5) 0.8158(2)
O4 O 0.22640(12) 0.1217(4) 0.78018(19)
O5 O 0.22355(16) 0.2529(5) 0.8853(2)
O6 O 0.22123(14) 0.3771(4) 0.7784(2)
O7 O 0.25934(18) 0.3698(5) 0.6157(3)
H9 H 0.260(2) 0.443(8) 0.641(4)
H10 H 0.249(2) 0.401(6) 0.579(3)
N2C N 0.33180(14) 0.2157(5) 0.7309(2)
O6G O 0.27877(14) -0.1229(4) 0.7216(2)
Cd1C Cd -0.230407(12) 0.38437(4) 0.155889(19)
Cd1G Cd 0.230407(12) 0.61563(4) 0.844111(19)
C15 C 0.9534(5) 0.4600(11) 0.6591(8)
H11 H 0.9311 0.5347 0.6360
H12 H 0.9731 0.5160 0.6964
Cl1 Cl 0.9879(3) 0.3779(10) 0.5916(6)
Cl2 Cl 0.9232(3) 0.3078(8) 0.7018(5)
loop_
_geom_bond_atom_site_label_1
_geom_bond_atom_site_label_2
_geom_bond_site_symmetry_1
_geom_bond_site_symmetry_2
Cd1 N1 1_555 1_555
C1 H1 1_555 1_555
C2 C1 1_555 1_555
H2 C2 1_555 1_555
C3 C2 1_555 1_555
C4 C3 1_555 1_555
H3 C4 1_555 1_555
C5 C4 1_555 1_555
H4 C5 1_555 1_555
C6 C3 1_555 1_555
C7 C6 1_555 1_555
C8 C7 1_555 1_555
C9 C8 1_555 1_555
C10 H5 1_555 1_555
C11 C10 1_555 1_555
H6 C11 1_555 1_555
C12 C9 1_555 1_555
C13 C12 1_555 1_555
H7 C13 1_555 1_555
C14 C13 1_555 1_555
H8 C14 1_555 1_555
N1 C1 1_555 1_555
N2 C10 1_555 1_555
N3 O1 1_555 1_555
O1 Cd1 1_555 1_555
O2 Cd1 1_555 1_555
O3 N3 1_555 1_555
N4 O4 1_555 1_555
O4 Cd1 1_555 1_555
O5 N4 1_555 1_555
O6 N4 1_555 1_555
O7 Cd1 1_555 1_555
H9 O7 1_555 1_555
H10 O7 1_555 1_555
C15 H11 1_555 1_555
H12 C15 1_555 1_555
Cl1 C15 1_555 1_555
Cl2 C15 1_555 1_555
N2C Cd1 1_555 1_555
O6G Cd1 1_555 1_555
Cd1C N2 1_555 1_555
Cd1G O6 1_555 1_555
C5 N1 1_555 1_555
C11 C12 1_555 1_555
C14 N2 1_555 1_555
N3 O2 1_555 1_555

#END
