
#######################################################################
#
#                 Cambridge Crystallographic Data Centre
#                                CCDC 
#
#######################################################################
#
# If this CIF has been generated from an entry in the Cambridge 
# Structural Database, then it will include bibliographic, chemical, 
# crystal, experimental, refinement or atomic coordinate data resulting 
# from the CCDC's data processing and validation procedures.
#
#######################################################################

data_CAFVAH
_symmetry_cell_setting           monoclinic
_symmetry_space_group_name_H-M   'P 2/c'
_symmetry_Int_Tables_number      13
_space_group_name_Hall           '-P 2yc'
loop_
_symmetry_equiv_pos_site_id
_symmetry_equiv_pos_as_xyz
1 x,y,z
2 x,-y,1/2+z
3 -x,-y,-z
4 -x,y,1/2-z
_cell_length_a                   9.60960(10)
_cell_length_b                   12.56100(10)
_cell_length_c                   13.9736(2)
_cell_angle_alpha                90
_cell_angle_beta                 109.2390(10)
_cell_angle_gamma                90
_cell_volume                     1592.5
loop_
_atom_site_label
_atom_site_type_symbol
_atom_site_fract_x
_atom_site_fract_y
_atom_site_fract_z
Co1 Co 0.06016(3) 1.778030(19) 0.153420(17)
Co2 Co 0.0000 1.0000 0.0000
O1 O 0.05327(17) 1.62228(10) 0.18931(11)
O2 O 0.00566(16) 1.27673(11) -0.00544(9)
O3 O 0.0151(2) 1.12876(11) 0.08632(11)
O4 O 0.6297(2) 1.27474(14) 0.1225(2)
H1 H 0.6222 1.3385 0.1325
O5 O 0.4009(2) 1.27042(14) 0.12692(18)
O6 O 0.16175(13) 0.91891(11) 0.12553(10)
O7 O 0.29348(16) 0.77332(11) 0.15121(12)
O8 O 0.86174(15) 0.81546(12) 0.17941(10)
O9 O 0.85547(16) 0.93898(15) 0.06564(12)
C1 C 0.0000 1.45712(19) 0.2500
C2 C 0.0095(2) 1.40183(14) 0.16556(13)
H2 H 0.0168 1.4389 0.1098
C3 C 0.0080(2) 1.29108(14) 0.16521(13)
C4 C 0.0000 1.2368(2) 0.2500
H3 H 0.0000 1.1627 0.2500
C5 C 0.0000 1.5765(2) 0.2500
C6 C 0.0111(2) 1.22776(14) 0.07453(13)
C7 C 0.5251(2) 1.10672(16) 0.12838(14)
C8 C 0.40338(19) 1.04598(16) 0.12884(13)
H4 H 0.3166 1.0794 0.1278
C9 C 0.41234(18) 0.93537(15) 0.13089(13)
C10 C 0.54373(19) 0.88459(15) 0.13419(13)
H5 H 0.5504 0.8107 0.1374
C11 C 0.66415(18) 0.94534(15) 0.13266(13)
C12 C 0.6538(2) 1.05654(17) 0.12869(14)
H6 H 0.7337 1.0970 0.1263
C13 C 0.5115(2) 1.22492(16) 0.12569(18)
C14 C 0.28355(19) 0.87159(15) 0.13465(13)
C15 C 0.80323(19) 0.89658(16) 0.12638(13)
O1C O -0.05327(17) 1.62228(10) 0.31069(11)
C3C C -0.0080(2) 1.29108(14) 0.33479(13)
C2C C -0.0095(2) 1.40183(14) 0.33444(13)
H2C H -0.0168 1.4389 0.3902
C6C C -0.0111(2) 1.22776(14) 0.42547(13)
O2C O -0.00566(16) 1.27673(11) 0.50544(9)
O3C O -0.0151(2) 1.12876(11) 0.41368(11)
O4B O -0.6297(2) 0.72526(14) -0.1225(2)
H1B H -0.6222 0.6615 -0.1325
O5B O -0.4009(2) 0.72958(14) -0.12692(18)
O6B O -0.16175(13) 1.08109(11) -0.12553(10)
O7B O -0.29348(16) 1.22668(11) -0.15121(12)
O8B O -0.86174(15) 1.18454(12) -0.17941(10)
O9B O -0.85547(16) 1.06102(15) -0.06564(12)
C7B C -0.5251(2) 0.89328(16) -0.12838(14)
C8B C -0.40338(19) 0.95402(16) -0.12884(13)
H4B H -0.3166 0.9206 -0.1278
C9B C -0.41234(18) 1.06463(15) -0.13089(13)
C10B C -0.54373(19) 1.11541(15) -0.13419(13)
H5B H -0.5504 1.1893 -0.1374
C11B C -0.66415(18) 1.05466(15) -0.13266(13)
C12B C -0.6538(2) 0.94346(17) -0.12869(14)
H6B H -0.7337 0.9030 -0.1263
C13B C -0.5115(2) 0.77508(16) -0.12569(18)
C14B C -0.28355(19) 1.12841(15) -0.13465(13)
C15B C -0.80323(19) 1.10342(16) -0.12638(13)
Co1C Co -0.06016(3) 1.778030(19) 0.346580(17)
O2B O -0.00566(16) 1.72327(11) 0.00544(9)
O6_2 O 0.16175(13) 1.91891(11) 0.12553(10)
O7_2 O 0.29348(16) 1.77332(11) 0.15121(12)
O8_2 O -0.13826(15) 1.81546(12) 0.17941(10)
O8C O 0.13826(15) 1.81546(12) 0.32059(10)
O3B O -0.0151(2) 0.87124(11) -0.08632(11)
O9_2 O -0.14453(16) 0.93898(15) 0.06564(12)
O9B_2 O 0.14453(16) 1.06102(15) -0.06564(12)
Co1B Co -0.06016(3) 1.221970(19) -0.153420(17)
Co1_2 Co 0.06016(3) 0.778030(19) 0.153420(17)
Co1_3 Co 1.06016(3) 0.778030(19) 0.153420(17)
Co1C_2 Co 0.93984(3) 0.778030(19) 0.346580(17)
Co2_2 Co 1.0000 1.0000 0.0000
Co1A Co 0.06016(3) 1.221970(19) 0.653420(17)
Co2A Co 0.0000 1.0000 0.5000
Co1A_2 Co -0.93984(3) 1.221970(19) -0.346580(17)
Co1B_2 Co -1.06016(3) 1.221970(19) -0.153420(17)
Co2_3 Co -1.0000 1.0000 0.0000
O2A O 0.00566(16) 1.72327(11) 0.49456(9)
O6C O -0.16175(13) 1.91891(11) 0.37447(10)
O7C O -0.29348(16) 1.77332(11) 0.34879(12)
K1 K 0.3234(2) 0.5588(2) 0.1608(2)
O11 O 0.2414(2) 0.42401(16) -0.00362(16)
O12 O 0.3817(3) 0.49040(17) 0.3638(2)
O10? O 0.3778(7) 0.5681(6) 0.1573(7)
loop_
_geom_bond_atom_site_label_1
_geom_bond_atom_site_label_2
_geom_bond_site_symmetry_1
_geom_bond_site_symmetry_2
Co1 O1 1_555 1_555
Co2 O3 1_555 1_555
O1 C5 1_555 1_555
O2 C6 1_555 1_555
O3 C6 1_555 1_555
O4 H1 1_555 1_555
O5 C13 1_555 1_555
O6 Co2 1_555 1_555
O7 C14 1_555 1_555
O8 C15 1_555 1_555
O9 C15 1_555 1_555
C1 C2 1_555 1_555
C2 H2 1_555 1_555
C3 C2 1_555 1_555
C4 C3 1_555 1_555
H3 C4 1_555 1_555
C5 C1 1_555 1_555
C6 C3 1_555 1_555
C7 C8 1_555 1_555
C8 H4 1_555 1_555
C9 C8 1_555 1_555
C10 C9 1_555 1_555
H5 C10 1_555 1_555
C11 C10 1_555 1_555
C12 C7 1_555 1_555
H6 C12 1_555 1_555
C13 O4 1_555 1_555
C14 O6 1_555 1_555
C15 C11 1_555 1_555
O1C C5 1_555 1_555
C3C C4 1_555 1_555
C2C C1 1_555 1_555
H2C C2C 1_555 1_555
C6C C3C 1_555 1_555
O2C C6C 1_555 1_555
O3C C6C 1_555 1_555
O4B H1B 1_555 1_555
O5B C13B 1_555 1_555
O6B Co2 1_555 1_555
O7B C14B 1_555 1_555
O8B C15B 1_555 1_555
O9B C15B 1_555 1_555
C7B C8B 1_555 1_555
C8B H4B 1_555 1_555
C9B C8B 1_555 1_555
C10B C9B 1_555 1_555
H5B C10B 1_555 1_555
C11B C10B 1_555 1_555
C12B C7B 1_555 1_555
H6B C12B 1_555 1_555
C13B O4B 1_555 1_555
C14B O6B 1_555 1_555
C15B C11B 1_555 1_555
Co1C O1C 1_555 1_555
O2B Co1 1_555 1_555
O6_2 Co1 1_555 1_555
O7_2 Co1 1_555 1_555
O8_2 Co1 1_555 1_555
O8C Co1 1_555 1_555
O3B Co2 1_555 1_555
O9_2 Co2 1_555 1_555
O9B_2 Co2 1_555 1_555
Co1B O2 1_555 1_555
Co1_2 O6 1_555 1_555
Co1_3 O8 1_555 1_555
Co1C_2 O8 1_555 1_555
Co2_2 O9 1_555 1_555
Co1A O2C 1_555 1_555
Co2A O3C 1_555 1_555
Co1A_2 O8B 1_555 1_555
Co1B_2 O8B 1_555 1_555
Co2_3 O9B 1_555 1_555
O2A Co1C 1_555 1_555
O6C Co1C 1_555 1_555
O7C Co1C 1_555 1_555
O7 Co1_2 1_555 1_555
C7 C13 1_555 1_555
C9 C14 1_555 1_555
C11 C12 1_555 1_555
C3C C2C 1_555 1_555
O6B Co1B 1_555 1_555
O7B Co1B 1_555 1_555
C7B C13B 1_555 1_555
C9B C14B 1_555 1_555
C11B C12B 1_555 1_555
Co1C O8_2 1_555 1_555
Co1C O8C 1_555 1_555

#END
