
#######################################################################
#
#                 Cambridge Crystallographic Data Centre
#                                CCDC 
#
#######################################################################
#
# If this CIF has been generated from an entry in the Cambridge 
# Structural Database, then it will include bibliographic, chemical, 
# crystal, experimental, refinement or atomic coordinate data resulting 
# from the CCDC's data processing and validation procedures.
#
#######################################################################

data_CAFZIT
_symmetry_cell_setting           orthorhombic
_symmetry_space_group_name_H-M   'P b c n'
_symmetry_Int_Tables_number      60
_space_group_name_Hall           '-P 2n 2ab'
loop_
_symmetry_equiv_pos_site_id
_symmetry_equiv_pos_as_xyz
1 x,y,z
2 1/2+x,1/2+y,1/2-z
3 1/2-x,1/2+y,z
4 x,-y,1/2+z
5 -x,-y,-z
6 1/2-x,1/2-y,1/2+z
7 1/2+x,1/2-y,-z
8 -x,y,1/2-z
_cell_length_a                   17.91(1)
_cell_length_b                   10.406(3)
_cell_length_c                   14.841(5)
_cell_angle_alpha                90
_cell_angle_beta                 90
_cell_angle_gamma                90
_cell_volume                     2765.94
loop_
_atom_site_label
_atom_site_type_symbol
_atom_site_fract_x
_atom_site_fract_y
_atom_site_fract_z
Cu1 Cu 0.50000 0.50000 0.50000
N1 N 0.5277(1) 0.3437(2) 0.5752(1)
N2 N 0.5912(1) 0.3307(3) 0.6235(2)
N3 N 0.5864(2) 0.2287(3) 0.6726(2)
N4 N 0.5203(1) 0.1753(2) 0.6569(1)
C1 C 0.4848(1) 0.2457(2) 0.5968(2)
C2 C 0.4931(2) 0.0573(2) 0.7003(2)
N5 N 0.5625(1) 0.6167(2) 0.5808(1)
N6 N 0.5302(1) 0.7038(3) 0.6359(2)
N7 N 0.5796(2) 0.7631(3) 0.6816(2)
N8 N 0.6457(1) 0.7157(2) 0.6567(1)
C3 C 0.6343(1) 0.6262(3) 0.5947(2)
C4 C 0.7125(2) 0.7660(4) 0.7007(2)
N9 N 0.6087(1) 0.5316(2) 0.9092(1)
N10 N 0.6289(2) 0.4421(2) 0.8486(2)
N11 N 0.6775(2) 0.4870(3) 0.7938(2)
N12 N 0.6911(1) 0.6068(2) 0.8191(1)
C5 C 0.6485(2) 0.6332(3) 0.8900(2)
C6 C 0.7455(2) 0.6796(4) 0.7666(2)
H1 H 0.429(1) 0.227(2) 0.574(1)
H2 H 0.515(1) -0.017(2) 0.669(1)
H3 H 0.434(1) 0.044(2) 0.682(1)
H4 H 0.669(1) 0.581(2) 0.568(1)
H5 H 0.739(1) 0.808(2) 0.660(1)
H6 H 0.705(1) 0.868(2) 0.745(1)
H7 H 0.652(1) 0.712(2) 0.917(1)
H8 H 0.785(1) 0.716(2) 0.805(1)
H9 H 0.779(1) 0.603(2) 0.722(1)
C2G C 0.5069(2) 0.0573(2) 0.7997(2)
N4G N 0.4797(1) 0.1753(2) 0.8431(1)
N3G N 0.4136(2) 0.2287(3) 0.8274(2)
N2G N 0.4088(1) 0.3307(3) 0.8765(2)
N1G N 0.4723(1) 0.3437(2) 0.9248(1)
C1G C 0.5152(1) 0.2457(2) 0.9032(2)
H1G H 0.571(1) 0.227(2) 0.926(1)
H2G H 0.485(1) -0.017(2) 0.831(1)
H3G H 0.566(1) 0.044(2) 0.818(1)
N5D N 0.4375(1) 0.3833(2) 0.4192(1)
N6D N 0.4698(1) 0.2962(3) 0.3641(2)
N7D N 0.4204(2) 0.2369(3) 0.3184(2)
N8D N 0.3543(1) 0.2843(2) 0.3433(1)
C3D C 0.3657(1) 0.3738(3) 0.4053(2)
C4D C 0.2875(2) 0.2340(4) 0.2993(2)
N9D N 0.3913(1) 0.4684(2) 0.0908(1)
N10D N 0.3711(2) 0.5579(2) 0.1514(2)
N11D N 0.3225(2) 0.5130(3) 0.2062(2)
N12D N 0.3089(1) 0.3932(2) 0.1809(1)
C5D C 0.3515(2) 0.3668(3) 0.1100(2)
C6D C 0.2545(2) 0.3204(4) 0.2334(2)
H4D H 0.331(1) 0.419(2) 0.432(1)
H5D H 0.261(1) 0.192(2) 0.340(1)
H6D H 0.295(1) 0.132(2) 0.255(1)
H7D H 0.348(1) 0.288(2) 0.083(1)
H8D H 0.215(1) 0.284(2) 0.195(1)
H9D H 0.221(1) 0.397(2) 0.278(1)
N1D N 0.4723(1) 0.6563(2) 0.4248(1)
N9C N 0.6087(1) 0.4684(2) 0.4092(1)
N9G N 0.3913(1) 0.5316(2) 0.5908(1)
Cu1C Cu 0.50000 0.50000 1.00000
Cu1C_2 Cu 0.50000 0.50000 0.00000
Cl1 Cl 0.33579(3) 1.00220(7) 0.50865(5)
O1 O 0.3261(2) 1.1320(3) 0.5355(3)
O2 O 0.4099(2) 0.9745(7) 0.5013(4)
O3 O 0.3019(3) 0.9868(5) 0.4227(4)
O4 O 0.2976(5) 0.9242(5) 0.5655(5)
loop_
_geom_bond_atom_site_label_1
_geom_bond_atom_site_label_2
_geom_bond_site_symmetry_1
_geom_bond_site_symmetry_2
Cu1 N1 1_555 1_555
Cl1 O1 1_555 1_555
O2 Cl1 1_555 1_555
O3 Cl1 1_555 1_555
O4 Cl1 1_555 1_555
N1 N2 1_555 1_555
N2 N3 1_555 1_555
N3 N4 1_555 1_555
N4 C1 1_555 1_555
C1 N1 1_555 1_555
C2 N4 1_555 1_555
N5 Cu1 1_555 1_555
N6 N5 1_555 1_555
N7 N6 1_555 1_555
N8 N7 1_555 1_555
C3 N5 1_555 1_555
C4 N8 1_555 1_555
N9 N10 1_555 1_555
N10 N11 1_555 1_555
N11 N12 1_555 1_555
N12 C5 1_555 1_555
C5 N9 1_555 1_555
C6 C4 1_555 1_555
H1 C1 1_555 1_555
H2 C2 1_555 1_555
H3 C2 1_555 1_555
H4 C3 1_555 1_555
H5 C4 1_555 1_555
H6 C4 1_555 1_555
H7 C5 1_555 1_555
H8 C6 1_555 1_555
H9 C6 1_555 1_555
C2G C2 1_555 1_555
N4G C2G 1_555 1_555
N3G N4G 1_555 1_555
N2G N3G 1_555 1_555
N1G N2G 1_555 1_555
C1G N4G 1_555 1_555
H1G C1G 1_555 1_555
H2G C2G 1_555 1_555
H3G C2G 1_555 1_555
N5D Cu1 1_555 1_555
N6D N5D 1_555 1_555
N7D N6D 1_555 1_555
N8D N7D 1_555 1_555
C3D N5D 1_555 1_555
C4D N8D 1_555 1_555
N9D N10D 1_555 1_555
N10D N11D 1_555 1_555
N11D N12D 1_555 1_555
N12D C5D 1_555 1_555
C5D N9D 1_555 1_555
C6D C4D 1_555 1_555
H4D C3D 1_555 1_555
H5D C4D 1_555 1_555
H6D C4D 1_555 1_555
H7D C5D 1_555 1_555
H8D C6D 1_555 1_555
H9D C6D 1_555 1_555
N1D Cu1 1_555 1_555
N9C Cu1 1_555 1_555
N9G Cu1 1_555 1_555
Cu1C N9 1_555 1_555
Cu1C_2 N9D 1_555 1_555
N8 C3 1_555 1_555
N12 C6 1_555 1_555
N1G C1G 1_555 1_555
N1G Cu1C 1_555 1_555
N8D C3D 1_555 1_555
N12D C6D 1_555 1_555

#END
