
#######################################################################
#
#                 Cambridge Crystallographic Data Centre
#                                CCDC 
#
#######################################################################
#
# If this CIF has been generated from an entry in the Cambridge 
# Structural Database, then it will include bibliographic, chemical, 
# crystal, experimental, refinement or atomic coordinate data resulting 
# from the CCDC's data processing and validation procedures.
#
#######################################################################

data_CAGBOD
_symmetry_cell_setting           monoclinic
_symmetry_space_group_name_H-M   'P 21/c'
_symmetry_Int_Tables_number      14
_space_group_name_Hall           '-P 2ybc'
loop_
_symmetry_equiv_pos_site_id
_symmetry_equiv_pos_as_xyz
1 x,y,z
2 -x,1/2+y,1/2-z
3 -x,-y,-z
4 x,1/2-y,1/2+z
_cell_length_a                   13.2362(14)
_cell_length_b                   11.5572(13)
_cell_length_c                   20.694(3)
_cell_angle_alpha                90
_cell_angle_beta                 91.336(11)
_cell_angle_gamma                90
_cell_volume                     3164.77
loop_
_atom_site_label
_atom_site_type_symbol
_atom_site_fract_x
_atom_site_fract_y
_atom_site_fract_z
C1 C 0.1748(4) 0.5341(7) 0.3059(6)
C2 C 0.2338(5) 0.5126(10) 0.3611(6)
H1 H 0.3036 0.5204 0.3642
C3 C 0.1699(6) 0.4764(12) 0.4128(6)
H2 H 0.1898 0.4511 0.4538
C4 C 0.0686(6) 0.4878(11) 0.3871(7)
H3 H 0.0100 0.4779 0.4103
C5 C 0.0726(5) 0.5159(9) 0.3223(6)
H4 H 0.0172 0.5219 0.2940
C6 C 0.1216(5) 0.2026(9) 0.3633(6)
C7 C 0.0736(6) 0.2271(10) 0.3038(7)
H5 H 0.0047 0.2237 0.2941
C8 C 0.1517(10) 0.2581(12) 0.2614(8)
H6 H 0.1419 0.2802 0.2185
C9 C 0.2445(9) 0.2506(12) 0.2930(9)
H7 H 0.3070 0.2653 0.2751
C10 C 0.2277(5) 0.2174(9) 0.3559(7)
H8 H 0.2771 0.2065 0.3880
C11 C 0.0733(4) 0.1626(9) 0.4262(6)
H9 H 0.1001 0.2084 0.4620
H10 H 0.0009 0.1752 0.4233
C12 C 0.0941(4) 0.0360(7) 0.4391(5)
C13 C 0.1805(4) 0.0011(10) 0.4746(5)
H11 H 0.2241 0.0566 0.4920
C14 C 0.2013(5) -0.1137(10) 0.4840(6)
H12 H 0.2598 -0.1364 0.5062
C15 C 0.1353(5) -0.1938(9) 0.4604(6)
H13 H 0.1477 -0.2722 0.4667
C16 C 0.0497(4) -0.1574(8) 0.4269(6)
H14 H 0.0040 -0.2127 0.4117
C17 C 0.2113(4) 0.7262(8) 0.2223(6)
C18 C 0.1867(4) 0.7976(9) 0.2740(6)
H15 H 0.1742 0.7643 0.3140
C19 C 0.1805(5) 0.9161(10) 0.2674(7)
H16 H 0.1634 0.9620 0.3024
C20 C 0.1999(5) 0.9659(9) 0.2086(7)
H17 H 0.1946 1.0457 0.2035
C21 C 0.2263(7) 0.9000(11) 0.1590(8)
H18 H 0.2418 0.9344 0.1198
C22 C 0.2309(6) 0.7836(11) 0.1649(7)
H19 H 0.2478 0.7400 0.1289
C23 C 0.3446(4) 0.5330(7) 0.2203(6)
C24 C 0.3713(5) 0.4426(9) 0.1810(6)
H20 H 0.3223 0.4034 0.1566
C25 C 0.4713(6) 0.4104(12) 0.1782(7)
H21 H 0.4892 0.3484 0.1521
C26 C 0.5413(6) 0.4650(12) 0.2111(9)
H22 H 0.6083 0.4428 0.2066
C27 C 0.5194(5) 0.5559(13) 0.2533(7)
H23 H 0.5694 0.5920 0.2783
C28 C 0.4174(4) 0.5896(9) 0.2554(6)
H24 H 0.3994 0.6516 0.2813
N1 N 0.0296(3) -0.0444(6) 0.4154(4)
P1 P 0.21208(10) 0.5721(2) 0.22587(14)
Fe1 Fe 0.15316(6) 0.36876(11) 0.33590(9)
Ag1 Ag -0.09901(3) -0.00098(7) 0.35382(4)
P1A P -0.21208(10) 0.0721(2) 0.27413(14)
Ag1A Ag 0.09901(3) 0.49902(7) 0.14618(4)
C29 C -0.5035(6) 0.6980(13) 0.5248(7)
H25 H -0.4401 0.6813 0.5031
Cl1 Cl -0.5964(2) 0.6616(6) 0.4794(4)
Cl2 Cl -0.4998(2) 0.6383(7) 0.6026(4)
Cl3 Cl -0.5100(2) 0.8463(6) 0.5431(4)
B1 B -0.2360(6) 0.7053(14) 0.4256(8)
F1 F -0.3038(3) 0.6740(6) 0.3781(4)
F2 F -0.2810(3) 0.7284(7) 0.4807(4)
F3 F -0.1859(3) 0.8044(7) 0.4053(4)
F4 F -0.1616(3) 0.6250(7) 0.4323(4)
loop_
_geom_bond_atom_site_label_1
_geom_bond_atom_site_label_2
_geom_bond_site_symmetry_1
_geom_bond_site_symmetry_2
C1 C2 1_555 1_555
C2 H1 1_555 1_555
C3 C2 1_555 1_555
H2 C3 1_555 1_555
C4 C3 1_555 1_555
H3 C4 1_555 1_555
C5 C1 1_555 1_555
H4 C5 1_555 1_555
C6 C7 1_555 1_555
C7 H5 1_555 1_555
C8 C7 1_555 1_555
H6 C8 1_555 1_555
C9 C8 1_555 1_555
H7 C9 1_555 1_555
C10 C6 1_555 1_555
H8 C10 1_555 1_555
C11 C6 1_555 1_555
H9 C11 1_555 1_555
H10 C11 1_555 1_555
C12 C11 1_555 1_555
C13 C12 1_555 1_555
H11 C13 1_555 1_555
C14 C13 1_555 1_555
H12 C14 1_555 1_555
C15 C14 1_555 1_555
H13 C15 1_555 1_555
C16 C15 1_555 1_555
H14 C16 1_555 1_555
C17 C18 1_555 1_555
C18 H15 1_555 1_555
C19 C18 1_555 1_555
H16 C19 1_555 1_555
C20 C19 1_555 1_555
H17 C20 1_555 1_555
C21 C20 1_555 1_555
H18 C21 1_555 1_555
C22 C17 1_555 1_555
H19 C22 1_555 1_555
C23 C24 1_555 1_555
C24 H20 1_555 1_555
C25 C24 1_555 1_555
H21 C25 1_555 1_555
C26 C25 1_555 1_555
H22 C26 1_555 1_555
C27 C26 1_555 1_555
H23 C27 1_555 1_555
C28 C23 1_555 1_555
H24 C28 1_555 1_555
C29 H25 1_555 1_555
B1 F1 1_555 1_555
N1 C12 1_555 1_555
F2 B1 1_555 1_555
F3 B1 1_555 1_555
F4 B1 1_555 1_555
P1 C1 1_555 1_555
Fe1 C1 1_555 1_555
Ag1 N1 1_555 1_555
Cl1 C29 1_555 1_555
Cl2 C29 1_555 1_555
Cl3 C29 1_555 1_555
P1A Ag1 1_555 1_555
Ag1A P1 1_555 1_555
C2 Fe1 1_555 1_555
C3 Fe1 1_555 1_555
C4 C5 1_555 1_555
C4 Fe1 1_555 1_555
C5 Fe1 1_555 1_555
C6 Fe1 1_555 1_555
C7 Fe1 1_555 1_555
C8 Fe1 1_555 1_555
C9 C10 1_555 1_555
C9 Fe1 1_555 1_555
C10 Fe1 1_555 1_555
C16 N1 1_555 1_555
C17 P1 1_555 1_555
C21 C22 1_555 1_555
C23 P1 1_555 1_555
C27 C28 1_555 1_555

#END
