
#######################################################################
#
#                 Cambridge Crystallographic Data Centre
#                                CCDC 
#
#######################################################################
#
# If this CIF has been generated from an entry in the Cambridge 
# Structural Database, then it will include bibliographic, chemical, 
# crystal, experimental, refinement or atomic coordinate data resulting 
# from the CCDC's data processing and validation procedures.
#
#######################################################################

data_CAGBIX
_symmetry_cell_setting           monoclinic
_symmetry_space_group_name_H-M   'P 21/c'
_symmetry_Int_Tables_number      14
_space_group_name_Hall           '-P 2ybc'
loop_
_symmetry_equiv_pos_site_id
_symmetry_equiv_pos_as_xyz
1 x,y,z
2 -x,1/2+y,1/2-z
3 -x,-y,-z
4 x,1/2-y,1/2+z
_cell_length_a                   10.5259(10)
_cell_length_b                   11.9401(16)
_cell_length_c                   26.573(3)
_cell_angle_alpha                90
_cell_angle_beta                 93.193(7)
_cell_angle_gamma                90
_cell_volume                     3334.52
loop_
_atom_site_label
_atom_site_type_symbol
_atom_site_fract_x
_atom_site_fract_y
_atom_site_fract_z
C1 C 0.7802(3) 0.1202(2) 0.21066(10)
C2 C 0.8269(3) 0.0705(2) 0.16562(10)
H1 H 0.7833 0.0681 0.1334
C3 C 0.9504(3) 0.0255(2) 0.17830(11)
H2 H 1.0032 -0.0125 0.1560
C4 C 0.9806(3) 0.0481(2) 0.23081(11)
H3 H 1.0574 0.0275 0.2490
C5 C 0.8777(3) 0.1059(2) 0.25113(11)
H4 H 0.8732 0.1308 0.2849
C6 C 0.7059(3) -0.1746(2) 0.19364(11)
C7 C 0.8301(3) -0.2151(2) 0.21104(12)
H5 H 0.8896 -0.2517 0.1911
C8 C 0.8477(3) -0.1903(2) 0.26376(12)
H6 H 0.9209 -0.2082 0.2847
C9 C 0.7376(3) -0.1345(2) 0.27931(11)
H7 H 0.7244 -0.1084 0.3124
C10 C 0.6496(3) -0.1245(2) 0.23624(11)
H8 H 0.5680 -0.0904 0.2360
C11 C 0.6515(3) -0.1853(2) 0.14059(11)
C12 C 0.7242(3) -0.1690(2) 0.09913(11)
H9 H 0.8105 -0.1464 0.1041
C13 C 0.6716(3) -0.1856(2) 0.05017(11)
H10 H 0.7215 -0.1752 0.0218
C14 C 0.5442(3) -0.2177(2) 0.04380(12)
H11 H 0.5054 -0.2293 0.0111
C15 C 0.4759(3) -0.2321(2) 0.08639(12)
H12 H 0.3888 -0.2529 0.0821
C16 C 0.5093(3) 0.1244(2) 0.17905(11)
C17 C 0.4077(3) 0.0770(2) 0.20346(12)
H13 H 0.4028 0.0839 0.2389
C18 C 0.3129(3) 0.0189(2) 0.17461(13)
H14 H 0.2445 -0.0147 0.1909
C19 C 0.3176(3) 0.0099(2) 0.12227(13)
H15 H 0.2525 -0.0291 0.1033
C20 C 0.4177(3) 0.0582(2) 0.09812(12)
H16 H 0.4210 0.0523 0.0626
C21 C 0.5134(3) 0.1154(2) 0.12607(11)
H17 H 0.5817 0.1483 0.1094
C22 C 0.6589(3) 0.3259(2) 0.18351(10)
C23 C 0.5581(3) 0.3794(2) 0.15642(11)
H18 H 0.4756 0.3470 0.1553
C24 C 0.5776(3) 0.4792(2) 0.13114(12)
H19 H 0.5086 0.5150 0.1130
C25 C 0.6983(3) 0.5265(2) 0.13246(12)
H20 H 0.7121 0.5941 0.1147
C26 C 0.7992(3) 0.4753(2) 0.15960(12)
H21 H 0.8814 0.5084 0.1607
C27 C 0.7795(3) 0.3750(2) 0.18532(11)
H22 H 0.8483 0.3403 0.2040
N1 N 0.5275(2) -0.21788(18) 0.13429(9)
P1 P 0.63446(6) 0.19526(5) 0.21738(3)
Fe1 Fe 0.81664(4) -0.04581(3) 0.222209(14)
Ag1 Ag 0.42365(2) -0.263830(17) 0.199680(8)
P1A P 0.36554(6) -0.30474(5) 0.28262(3)
Ag1A Ag 0.57635(2) 0.236170(17) 0.300320(8)
C28 C 0.7974(3) -0.0490(3) 0.47039(12)
H23 H 0.8459 0.0129 0.4548
Cl4 Cl 0.88968(7) -0.10315(6) 0.52262(3)
Cl5 Cl 0.76478(11) -0.15501(9) 0.42433(4)
Cl6 Cl 0.65241(8) 0.00518(7) 0.49032(3)
C29 C 1.1089(3) -0.3200(3) 0.47345(11)
H24 H 1.0865 -0.2874 0.5065
Cl1 Cl 1.24420(9) -0.40722(7) 0.48372(3)
Cl2 Cl 1.14356(9) -0.20964(7) 0.43234(4)
Cl3 Cl 0.97834(9) -0.39781(7) 0.44843(3)
B1 B 0.8933(3) 0.2377(3) 0.38728(13)
F1 F 0.82286(18) 0.18638(15) 0.42418(7)
F2 F 0.95328(18) 0.33179(15) 0.40908(7)
F3 F 0.98301(17) 0.16317(15) 0.37100(7)
F4 F 0.8121(2) 0.27170(15) 0.34627(7)
loop_
_geom_bond_atom_site_label_1
_geom_bond_atom_site_label_2
_geom_bond_site_symmetry_1
_geom_bond_site_symmetry_2
C1 C2 1_555 1_555
C2 H1 1_555 1_555
C3 C2 1_555 1_555
H2 C3 1_555 1_555
C4 C3 1_555 1_555
H3 C4 1_555 1_555
C5 C1 1_555 1_555
H4 C5 1_555 1_555
C6 C7 1_555 1_555
C7 H5 1_555 1_555
C8 C7 1_555 1_555
H6 C8 1_555 1_555
C9 C8 1_555 1_555
H7 C9 1_555 1_555
C10 C6 1_555 1_555
H8 C10 1_555 1_555
C11 C6 1_555 1_555
C12 C11 1_555 1_555
H9 C12 1_555 1_555
C13 C12 1_555 1_555
H10 C13 1_555 1_555
C14 C13 1_555 1_555
H11 C14 1_555 1_555
C15 C14 1_555 1_555
H12 C15 1_555 1_555
C16 C17 1_555 1_555
C17 H13 1_555 1_555
C18 C17 1_555 1_555
H14 C18 1_555 1_555
C19 C18 1_555 1_555
H15 C19 1_555 1_555
C20 C19 1_555 1_555
H16 C20 1_555 1_555
C21 C16 1_555 1_555
H17 C21 1_555 1_555
C22 C23 1_555 1_555
C23 H18 1_555 1_555
C24 C23 1_555 1_555
H19 C24 1_555 1_555
C25 C24 1_555 1_555
H20 C25 1_555 1_555
C26 C25 1_555 1_555
H21 C26 1_555 1_555
C27 C22 1_555 1_555
H22 C27 1_555 1_555
C28 H23 1_555 1_555
C29 H24 1_555 1_555
N1 C11 1_555 1_555
P1 C1 1_555 1_555
Fe1 C1 1_555 1_555
Ag1 N1 1_555 1_555
Cl1 C29 1_555 1_555
Cl2 C29 1_555 1_555
Cl3 C29 1_555 1_555
Cl4 C28 1_555 1_555
Cl5 C28 1_555 1_555
Cl6 C28 1_555 1_555
B1 F1 1_555 1_555
F2 B1 1_555 1_555
F3 B1 1_555 1_555
F4 B1 1_555 1_555
P1A Ag1 1_555 1_555
Ag1A P1 1_555 1_555
C2 Fe1 1_555 1_555
C3 Fe1 1_555 1_555
C4 C5 1_555 1_555
C4 Fe1 1_555 1_555
C5 Fe1 1_555 1_555
C6 Fe1 1_555 1_555
C7 Fe1 1_555 1_555
C8 Fe1 1_555 1_555
C9 C10 1_555 1_555
C9 Fe1 1_555 1_555
C10 Fe1 1_555 1_555
C15 N1 1_555 1_555
C16 P1 1_555 1_555
C20 C21 1_555 1_555
C22 P1 1_555 1_555
C26 C27 1_555 1_555

#END
