
#######################################################################
#
#                 Cambridge Crystallographic Data Centre
#                                CCDC 
#
#######################################################################
#
# If this CIF has been generated from an entry in the Cambridge 
# Structural Database, then it will include bibliographic, chemical, 
# crystal, experimental, refinement or atomic coordinate data resulting 
# from the CCDC's data processing and validation procedures.
#
#######################################################################

data_CAGHIC
_symmetry_cell_setting           monoclinic
_symmetry_space_group_name_H-M   'P 21/c'
_symmetry_Int_Tables_number      14
_space_group_name_Hall           '-P 2ybc'
loop_
_symmetry_equiv_pos_site_id
_symmetry_equiv_pos_as_xyz
1 x,y,z
2 x,1/2-y,1/2+z
3 -x,-y,-z
4 -x,1/2+y,1/2-z
_cell_length_a                   8.1554(12)
_cell_length_b                   15.503(2)
_cell_length_c                   9.2057(13)
_cell_angle_alpha                90
_cell_angle_beta                 107.259(2)
_cell_angle_gamma                90
_cell_volume                     1111.5
loop_
_atom_site_label
_atom_site_type_symbol
_atom_site_fract_x
_atom_site_fract_y
_atom_site_fract_z
Ni1 Ni 0.0000 0.0000 0.0000
N1 N -0.1870(2) 0.12715(13) 0.1928(2)
N2 N -0.0814(3) -0.02143(13) 0.1903(2)
C1 C -0.6363(3) 0.08551(17) 0.1964(3)
N3 N -0.7712(3) 0.06235(14) 0.1366(2)
N4 N -0.1268(3) 0.11586(12) -0.0527(2)
C2 C -0.1190(3) 0.16967(16) 0.0837(3)
H1 H -0.0003 0.1853 0.1332
H2 H -0.1828 0.2225 0.0506
C3 C -0.0838(3) 0.05894(16) 0.2809(3)
H3 H -0.1277 0.0447 0.3650
H4 H 0.0329 0.0796 0.3233
C4 C 0.0330(3) -0.09052(18) 0.2760(3)
H5 H 0.1449 -0.0669 0.3291
H6 H -0.0154 -0.1158 0.3505
C5 C -0.0500(4) 0.15859(16) -0.1625(3)
H7 H 0.0618 0.1822 -0.1092
H8 H -0.1233 0.2053 -0.2147
C6 C -0.3713(3) 0.10958(17) 0.1360(3)
H9 H -0.3889 0.0532 0.0881
H10 H -0.4251 0.1521 0.0593
C7 C -0.4570(3) 0.11192(18) 0.2623(3)
H11 H -0.3988 0.0729 0.3437
H12 H -0.4515 0.1697 0.3038
C4B C -0.0330(3) 0.09052(18) -0.2760(3)
N2B N 0.0814(3) 0.02143(13) -0.1903(2)
C3B C 0.0838(3) -0.05894(16) -0.2809(3)
N1B N 0.1870(2) -0.12715(13) -0.1928(2)
C2B C 0.1190(3) -0.16967(16) -0.0837(3)
N4B N 0.1268(3) -0.11586(12) 0.0527(2)
C5B C 0.0500(4) -0.15859(16) 0.1625(3)
H7B H -0.0618 -0.1822 0.1092
H8B H 0.1233 -0.2053 0.2147
H1B H 0.0003 -0.1853 -0.1332
H2B H 0.1828 -0.2225 -0.0506
C6B C 0.3713(3) -0.10958(17) -0.1360(3)
H9B H 0.3889 -0.0532 -0.0881
H10B H 0.4251 -0.1521 -0.0593
C7B C 0.4570(3) -0.11192(18) -0.2623(3)
C1B C 0.6363(3) -0.08551(17) -0.1964(3)
N3B N 0.7712(3) -0.06235(14) -0.1366(2)
H11B H 0.3988 -0.0729 -0.3437
H12B H 0.4515 -0.1697 -0.3038
H3B H 0.1277 -0.0447 -0.3650
H4B H -0.0329 -0.0796 -0.3233
H5B H -0.1449 0.0669 -0.3291
H6B H 0.0154 0.1158 -0.3505
N3_2 N 0.2288(3) 0.06235(14) 0.1366(2)
N3B_2 N -0.2288(3) -0.06235(14) -0.1366(2)
Ni1_2 Ni -1.0000 0.0000 0.0000
Ni1_3 Ni 1.0000 0.0000 0.0000
Cl1 Cl -0.60042(9) 0.35544(5) 0.13797(8)
O1 O -0.6748(4) 0.4191(2) 0.0270(3)
O2 O -0.5734(5) 0.3962(2) 0.2814(3)
O3 O -0.4384(3) 0.3282(2) 0.1277(4)
O4 O -0.7100(5) 0.2862(2) 0.1228(6)
loop_
_geom_bond_atom_site_label_1
_geom_bond_atom_site_label_2
_geom_bond_site_symmetry_1
_geom_bond_site_symmetry_2
Ni1 N2 1_555 1_555
Cl1 O1 1_555 1_555
N1 C2 1_555 1_555
N2 C3 1_555 1_555
C1 N3 1_555 1_555
N3 Ni1_2 1_555 1_555
N4 Ni1 1_555 1_555
C2 N4 1_555 1_555
H1 C2 1_555 1_555
H2 C2 1_555 1_555
C3 N1 1_555 1_555
H3 C3 1_555 1_555
H4 C3 1_555 1_555
C4 N2 1_555 1_555
H5 C4 1_555 1_555
H6 C4 1_555 1_555
C5 N4 1_555 1_555
H7 C5 1_555 1_555
H8 C5 1_555 1_555
C6 N1 1_555 1_555
H9 C6 1_555 1_555
H10 C6 1_555 1_555
C7 C1 1_555 1_555
H11 C7 1_555 1_555
H12 C7 1_555 1_555
O2 Cl1 1_555 1_555
O3 Cl1 1_555 1_555
O4 Cl1 1_555 1_555
C4B C5 1_555 1_555
N2B Ni1 1_555 1_555
C3B N2B 1_555 1_555
N1B C3B 1_555 1_555
C2B N1B 1_555 1_555
N4B Ni1 1_555 1_555
C5B C4 1_555 1_555
H7B C5B 1_555 1_555
H8B C5B 1_555 1_555
H1B C2B 1_555 1_555
H2B C2B 1_555 1_555
C6B N1B 1_555 1_555
H9B C6B 1_555 1_555
H10B C6B 1_555 1_555
C7B C6B 1_555 1_555
C1B C7B 1_555 1_555
N3B C1B 1_555 1_555
H11B C7B 1_555 1_555
H12B C7B 1_555 1_555
H3B C3B 1_555 1_555
H4B C3B 1_555 1_555
H5B C4B 1_555 1_555
H6B C4B 1_555 1_555
N3_2 Ni1 1_555 1_555
N3B_2 Ni1 1_555 1_555
Ni1_3 N3B 1_555 1_555
C6 C7 1_555 1_555
C4B N2B 1_555 1_555
C2B N4B 1_555 1_555
N4B C5B 1_555 1_555

#END
