
#######################################################################
#
#                 Cambridge Crystallographic Data Centre
#                                CCDC 
#
#######################################################################
#
# If this CIF has been generated from an entry in the Cambridge 
# Structural Database, then it will include bibliographic, chemical, 
# crystal, experimental, refinement or atomic coordinate data resulting 
# from the CCDC's data processing and validation procedures.
#
#######################################################################

data_CAHHIC
_symmetry_cell_setting           monoclinic
_symmetry_space_group_name_H-M   'P 21/c'
_symmetry_Int_Tables_number      14
_space_group_name_Hall           '-P 2ybc'
loop_
_symmetry_equiv_pos_site_id
_symmetry_equiv_pos_as_xyz
1 x,y,z
2 -x,1/2+y,1/2-z
3 -x,-y,-z
4 x,1/2-y,1/2+z
_cell_length_a                   7.490(2)
_cell_length_b                   14.335(4)
_cell_length_c                   8.310(2)
_cell_angle_alpha                90
_cell_angle_beta                 113.72(2)
_cell_angle_gamma                90
_cell_volume                     816.863
loop_
_atom_site_label
_atom_site_type_symbol
_atom_site_fract_x
_atom_site_fract_y
_atom_site_fract_z
Mo1 Mo 0.25660 0.24920 0.09970
O1 O 0.40430 0.34490 0.16920
O2 O 0.24970 0.22170 -0.10400
O3 O 0.00160 0.30350 0.02790
O4 O 0.42630 0.15140 0.23400
N1 N 0.07010 0.14140 0.13810
C1 C -0.12280 0.15780 0.07510
C2 C -0.24460 0.09120 0.09730
C3 C -0.16540 0.01100 0.18660
C4 C 0.03670 -0.00330 0.25480
C5 C 0.15340 0.06470 0.22810
C6 C -0.17100 0.25170 -0.01100
C7 C 0.37030 0.06770 0.29020
H1 H -0.38290 0.10110 0.05070
H2 H -0.24860 -0.03570 0.20260
H3 H 0.09310 -0.05920 0.31870
H4 H -0.25470 0.28460 0.03190
H5 H -0.23650 0.24390 -0.13600
H6 H 0.41320 0.01560 0.24250
H7 H 0.42900 0.06470 0.41630
O2C O 0.24970 0.27830 0.39600
Mo1C Mo 0.25660 0.25080 -0.40030
Mo1C_2 Mo 0.25660 0.25080 0.59970
O1C O 0.40430 0.15510 -0.33080
O2C_2 O 0.24970 0.27830 -0.60400
O3C O 0.00160 0.19650 -0.47210
O4C O 0.42630 0.34860 -0.26600
N1C N 0.07010 0.35860 -0.36190
C6C C -0.17100 0.24830 -0.51100
C7C C 0.37030 0.43230 -0.20980
C1C C -0.12280 0.34220 -0.42490
C5C C 0.15340 0.43530 -0.27190
H4C H -0.25470 0.21540 -0.46810
H5C H -0.23650 0.25610 -0.63600
H6C H 0.41320 0.48440 -0.25750
H7C H 0.42900 0.43530 -0.08370
C2C C -0.24460 0.40880 -0.40270
C4C C 0.03670 0.50330 -0.24520
C3C C -0.16540 0.48900 -0.31340
H1C H -0.38290 0.39890 -0.44930
H3C H 0.09310 0.55920 -0.18130
H2C H -0.24860 0.53570 -0.29740
loop_
_geom_bond_atom_site_label_1
_geom_bond_atom_site_label_2
_geom_bond_site_symmetry_1
_geom_bond_site_symmetry_2
Mo1 O1 1_555 1_555
O2 Mo1 1_555 1_555
O3 Mo1 1_555 1_555
O4 Mo1 1_555 1_555
N1 Mo1 1_555 1_555
C1 N1 1_555 1_555
C2 C1 1_555 1_555
C3 C2 1_555 1_555
C4 C3 1_555 1_555
C5 N1 1_555 1_555
C6 O3 1_555 1_555
C7 O4 1_555 1_555
H1 C2 1_555 1_555
H2 C3 1_555 1_555
H3 C4 1_555 1_555
H4 C6 1_555 1_555
H5 C6 1_555 1_555
H6 C7 1_555 1_555
H7 C7 1_555 1_555
O2C Mo1 1_555 1_555
Mo1C O2 1_555 1_555
Mo1C_2 O2C 1_555 1_555
O1C Mo1C 1_555 1_555
O2C_2 Mo1C 1_555 1_555
O3C Mo1C 1_555 1_555
O4C Mo1C 1_555 1_555
N1C Mo1C 1_555 1_555
C6C O3C 1_555 1_555
C7C O4C 1_555 1_555
C1C N1C 1_555 1_555
C5C N1C 1_555 1_555
H4C C6C 1_555 1_555
H5C C6C 1_555 1_555
H6C C7C 1_555 1_555
H7C C7C 1_555 1_555
C2C C1C 1_555 1_555
C4C C5C 1_555 1_555
C3C C2C 1_555 1_555
H1C C2C 1_555 1_555
H3C C4C 1_555 1_555
H2C C3C 1_555 1_555
C1 C6 1_555 1_555
C4 C5 1_555 1_555
C5 C7 1_555 1_555
C6C C1C 1_555 1_555
C7C C5C 1_555 1_555
C4C C3C 1_555 1_555

#END
