
#######################################################################
#
#                 Cambridge Crystallographic Data Centre
#                                CCDC 
#
#######################################################################
#
# If this CIF has been generated from an entry in the Cambridge 
# Structural Database, then it will include bibliographic, chemical, 
# crystal, experimental, refinement or atomic coordinate data resulting 
# from the CCDC's data processing and validation procedures.
#
#######################################################################

data_CAHJOL
_symmetry_cell_setting           triclinic
_symmetry_space_group_name_H-M   'P -1'
_symmetry_Int_Tables_number      2
_space_group_name_Hall           '-P 1'
loop_
_symmetry_equiv_pos_site_id
_symmetry_equiv_pos_as_xyz
1 x,y,z
2 -x,-y,-z
_cell_length_a                   5.4620(11)
_cell_length_b                   6.9400(14)
_cell_length_c                   10.435(2)
_cell_angle_alpha                95.35(3)
_cell_angle_beta                 104.56(3)
_cell_angle_gamma                110.13(3)
_cell_volume                     352.36
loop_
_atom_site_label
_atom_site_type_symbol
_atom_site_fract_x
_atom_site_fract_y
_atom_site_fract_z
Cu1 Cu 0.4610(1) 0.6138(1) 0.6618(1)
O1 O 0.2557(7) 0.6420(6) 0.4651(3)
C1 C 0.1103(9) 0.5208(7) 0.3552(5)
O2 O 0.1579(7) 0.3744(5) 0.2989(4)
C2 C -0.1378(9) 0.5553(7) 0.2776(5)
C3 C -0.2341(9) 0.6914(7) 0.3309(5)
C4 C -0.4073(9) 0.7890(7) 0.2545(5)
C5 C -0.3950(10) 0.9818(8) 0.3167(5)
C6 C -0.5874(11) 0.7036(8) 0.1244(5)
C7 C -0.7097(11) 1.0010(8) 0.1304(6)
N1 N -0.5367(8) 1.0886(6) 0.2574(4)
C8 C -0.7373(12) 0.8107(9) 0.0611(6)
H1 H -0.2299 0.4808 0.1896
H2 H -0.1850 0.7255 0.4245
H3 H -0.2807 1.0384 0.4048
H4 H -0.6066 0.5741 0.0802
H5 H -0.8140 1.0716 0.0882
H6 H -0.8549 0.7563 -0.0266
O2A O 0.8421(7) 0.6256(5) 0.7011(4)
C2A C 0.1378(9) 0.4447(7) 0.7224(5)
C3A C 0.2341(9) 0.3086(7) 0.6691(5)
N1A N 0.5367(8) 0.9114(6) 0.7426(4)
Cu1A Cu 0.5390(1) 0.3862(1) 0.3382(1)
Cu1A_2 Cu -0.4610(1) 0.3862(1) 0.3382(1)
Cu1A_3 Cu -0.4610(1) 1.3862(1) 0.3382(1)
H1A H 0.2299 0.5192 0.8104
H2A H 0.1850 0.2745 0.5755
loop_
_geom_bond_atom_site_label_1
_geom_bond_atom_site_label_2
_geom_bond_site_symmetry_1
_geom_bond_site_symmetry_2
Cu1 O1 1_555 1_555
O1 C1 1_555 1_555
C1 O2 1_555 1_555
O2 Cu1A 1_555 1_555
C2 C1 1_555 1_555
C3 C2 1_555 1_555
C4 C3 1_555 1_555
C5 C4 1_555 1_555
C6 C4 1_555 1_555
C7 N1 1_555 1_555
N1 C5 1_555 1_555
C8 C6 1_555 1_555
H1 C2 1_555 1_555
H2 C3 1_555 1_555
H3 C5 1_555 1_555
H4 C6 1_555 1_555
H5 C7 1_555 1_555
H6 C8 1_555 1_555
O2A Cu1 1_555 1_555
C2A Cu1 1_555 1_555
C3A Cu1 1_555 1_555
N1A Cu1 1_555 1_555
Cu1A_2 C2 1_555 1_555
Cu1A_3 N1 1_555 1_555
H1A C2A 1_555 1_555
H2A C3A 1_555 1_555
C3 Cu1A_2 1_555 1_555
C7 C8 1_555 1_555
C2A C3A 1_555 1_555

#END
