
#######################################################################
#
#                 Cambridge Crystallographic Data Centre
#                                CCDC 
#
#######################################################################
#
# If this CIF has been generated from an entry in the Cambridge 
# Structural Database, then it will include bibliographic, chemical, 
# crystal, experimental, refinement or atomic coordinate data resulting 
# from the CCDC's data processing and validation procedures.
#
#######################################################################

data_CAHJUR
_symmetry_cell_setting           orthorhombic
_symmetry_space_group_name_H-M   'P b c n'
_symmetry_Int_Tables_number      60
_space_group_name_Hall           '-P 2n 2ab'
loop_
_symmetry_equiv_pos_site_id
_symmetry_equiv_pos_as_xyz
1 x,y,z
2 1/2-x,1/2-y,1/2+z
3 1/2+x,1/2-y,-z
4 -x,y,1/2-z
5 -x,-y,-z
6 1/2+x,1/2+y,1/2-z
7 1/2-x,1/2+y,z
8 x,-y,1/2+z
_cell_length_a                   20.149(4)
_cell_length_b                   5.1578(10)
_cell_length_c                   15.397(3)
_cell_angle_alpha                90
_cell_angle_beta                 90
_cell_angle_gamma                90
_cell_volume                     1600.13
loop_
_atom_site_label
_atom_site_type_symbol
_atom_site_fract_x
_atom_site_fract_y
_atom_site_fract_z
Cu1 Cu 0.4817(1) 0.2022(1) 0.6187(1)
C1 C 0.5660(2) 0.3360(7) 0.6799(2)
C2 C 0.6043(2) 0.1210(6) 0.7198(2)
C3 C 0.5676(2) 0.3927(7) 0.5917(2)
N1 N 0.5918(1) 0.0671(5) 0.8045(2)
C4 C 0.6520(2) -0.0151(8) 0.6740(2)
C5 C 0.6280(2) -0.1222(8) 0.8429(2)
C6 C 0.6872(2) -0.2123(7) 0.7136(3)
C7 C 0.6755(2) -0.2659(8) 0.7996(3)
C8 C 0.5485(2) 0.6553(7) 0.5577(2)
O2 O 0.5752(1) 0.7184(5) 0.4852(2)
O3 O 0.5093(2) 0.7879(5) 0.6007(2)
H1 H 0.5590 0.4862 0.7178
H2 H 0.6003 0.2968 0.5573
H4 H 0.6576(19) 0.0260(90) 0.6180(20)
H5 H 0.7160(20) -0.2930(90) 0.6820(30)
H6 H 0.6960(20) -0.3910(90) 0.8280(30)
H7 H 0.6210(20) -0.1520(80) 0.9010(30)
N1C N 0.4082(1) 0.0671(5) 0.6955(2)
O2D O 0.4248(1) 0.2816(5) 0.5148(2)
O3_2 O 0.5093(2) -0.2121(5) 0.6007(2)
Cu1C Cu 0.5183(1) 0.2022(1) 0.8813(1)
Cu1D Cu 0.5183(1) 0.7978(1) 0.3813(1)
Cu1_2 Cu 0.4817(1) 1.2022(1) 0.6187(1)
O1 O 0.2825(2) 0.3732(8) 0.5115(3)
H3 H 0.2620(30) 0.234(12) 0.5120(30)
H8 H 0.3190(40) 0.338(15) 0.5390(50)
loop_
_geom_bond_atom_site_label_1
_geom_bond_atom_site_label_2
_geom_bond_site_symmetry_1
_geom_bond_site_symmetry_2
Cu1 C1 1_555 1_555
C1 C2 1_555 1_555
C2 N1 1_555 1_555
O1 H3 1_555 1_555
C3 Cu1 1_555 1_555
N1 C5 1_555 1_555
C4 C2 1_555 1_555
C5 C7 1_555 1_555
C6 C4 1_555 1_555
C7 C6 1_555 1_555
C8 C3 1_555 1_555
O2 C8 1_555 1_555
O3 C8 1_555 1_555
H1 C1 1_555 1_555
H2 C3 1_555 1_555
H4 C4 1_555 1_555
H5 C6 1_555 1_555
H6 C7 1_555 1_555
H7 C5 1_555 1_555
H8 O1 1_555 1_555
N1C Cu1 1_555 1_555
O2D Cu1 1_555 1_555
O3_2 Cu1 1_555 1_555
Cu1C N1 1_555 1_555
Cu1D O2 1_555 1_555
Cu1_2 O3 1_555 1_555
C1 C3 1_555 1_555

#END
