
#######################################################################
#
#                 Cambridge Crystallographic Data Centre
#                                CCDC 
#
#######################################################################
#
# If this CIF has been generated from an entry in the Cambridge 
# Structural Database, then it will include bibliographic, chemical, 
# crystal, experimental, refinement or atomic coordinate data resulting 
# from the CCDC's data processing and validation procedures.
#
#######################################################################

data_CAHLUU01
_symmetry_cell_setting           monoclinic
_symmetry_space_group_name_H-M   'P 21/c'
_symmetry_Int_Tables_number      14
_space_group_name_Hall           '-P 2ybc'
loop_
_symmetry_equiv_pos_site_id
_symmetry_equiv_pos_as_xyz
1 x,y,z
2 -x,1/2+y,1/2-z
3 -x,-y,-z
4 x,1/2-y,1/2+z
_cell_length_a                   17.0147(3)
_cell_length_b                   18.4431(3)
_cell_length_c                   16.7487(3)
_cell_angle_alpha                90
_cell_angle_beta                 102.469(2)
_cell_angle_gamma                90
_cell_volume                     5131.84
loop_
_atom_site_label
_atom_site_type_symbol
_atom_site_fract_x
_atom_site_fract_y
_atom_site_fract_z
La1 La 0.525167(17) 0.336489(16) 0.671753(17)
La2 La 0.505499(17) 0.316625(16) 0.933363(17)
I1 I 1.01323(3) -0.01065(3) 0.66850(3)
I2 I 1.00530(3) 0.22162(3) 0.71379(3)
I3 I 1.03905(3) 0.07817(3) 0.91975(2)
Cu1 Cu 0.95883(6) 0.06127(8) 0.77778(6)
Cu2 Cu 1.08788(6) 0.10043(6) 0.73635(6)
Cu3 Cu 1.01326(5) 0.17104(7) 0.57287(6)
Cu4 Cu 1.00771(5) 0.07195(6) 1.08127(6)
O1 O 0.5106(2) 0.25137(19) 0.8003(2)
O2 O 0.4233(2) 0.2336(2) 0.6837(2)
O3 O 0.6663(2) 0.3459(2) 0.7637(2)
O4 O 0.6144(2) 0.3655(2) 0.8719(2)
O5 O 0.4201(2) 0.39163(19) 0.7303(2)
O6 O 0.3753(2) 0.3415(2) 0.8328(2)
O7 O 0.5858(3) 0.2197(2) 0.6553(3)
O8 O 0.5818(2) 0.1336(2) 0.5621(2)
O9 O 0.6101(2) 0.1441(2) 1.0733(2)
O10 O 0.6230(2) 0.2257(2) 0.9786(2)
O11 O 0.3693(3) 0.4688(2) 1.0055(3)
O12 O 0.3992(2) 0.3515(2) 1.0045(2)
O13 O 0.4220(2) 0.3881(2) 0.5520(2)
O14 O 0.4476(2) 0.2921(2) 0.4847(3)
O15 O 0.4926(2) 0.4539(2) 0.9144(2)
H1 H 0.5343 0.4770 0.9382
H2 H 0.4559 0.4582 0.9413
N1 N 0.4512(3) -0.0155(2) 0.8086(3)
N2 N 0.9059(3) 0.3330(3) 0.9967(3)
N3 N 0.1208(3) 0.4160(3) 0.6413(3)
N4 N 0.8424(3) 0.0840(3) 0.7466(3)
N5 N 0.8983(3) 0.1156(3) 1.0666(3)
N6 N 0.1194(3) 0.3499(4) 1.0497(4)
N7 N 0.2000(3) 0.3890(3) 0.3005(3)
C1 C 0.4626(3) 0.2112(3) 0.7505(3)
C2 C 0.4573(3) 0.1318(3) 0.7729(3)
C3 C 0.5105(4) 0.1019(3) 0.8376(4)
H3 H 0.5495 0.1306 0.8706
C4 C 0.5056(4) 0.0285(3) 0.8534(4)
H4 H 0.5422 0.0089 0.8974
C5 C 0.3989(4) 0.0147(3) 0.7475(4)
H5 H 0.3595 -0.0147 0.7162
C6 C 0.3998(4) 0.0878(3) 0.7279(4)
H6 H 0.3617 0.1066 0.6845
C7 C 0.6720(3) 0.3528(3) 0.8390(3)
C8 C 0.7556(3) 0.3458(3) 0.8939(3)
C9 C 0.8228(3) 0.3319(4) 0.8632(4)
H7 H 0.8185 0.3262 0.8072
C10 C 0.8966(4) 0.3263(4) 0.9164(4)
H8 H 0.9418 0.3174 0.8950
C11 C 0.8405(4) 0.3463(5) 1.0253(4)
H9 H 0.8464 0.3512 1.0816
C12 C 0.7651(3) 0.3533(4) 0.9774(3)
H10 H 0.7212 0.3630 1.0005
C13 C 0.3657(3) 0.3729(3) 0.7648(3)
C14 C 0.2798(3) 0.3891(3) 0.7223(3)
C15 C 0.2155(3) 0.3698(3) 0.7558(3)
H11 H 0.2244 0.3474 0.8067
C16 C 0.1382(3) 0.3837(3) 0.7139(4)
H12 H 0.0959 0.3697 0.7376
C17 C 0.1840(4) 0.4369(4) 0.6100(4)
H13 H 0.1736 0.4616 0.5604
C18 C 0.2631(3) 0.4237(4) 0.6475(3)
H14 H 0.3045 0.4379 0.6228
C19 C 0.6121(3) 0.1643(3) 0.6280(3)
C20 C 0.6895(3) 0.1329(3) 0.6751(3)
C21 C 0.7177(4) 0.0671(3) 0.6524(4)
H15 H 0.6854 0.0383 0.6130
C22 C 0.7936(4) 0.0455(3) 0.6887(4)
H16 H 0.8123 0.0017 0.6724
C23 C 0.8137(4) 0.1458(4) 0.7706(4)
H17 H 0.8463 0.1723 0.8122
C24 C 0.7383(4) 0.1722(4) 0.7369(3)
H18 H 0.7205 0.2155 0.7552
C25 C 0.6493(3) 0.1784(3) 1.0301(3)
C26 C 0.7372(3) 0.1577(3) 1.0420(3)
C27 C 0.7777(4) 0.1578(4) 0.9795(4)
H19 H 0.7516 0.1726 0.9275
C28 C 0.8558(4) 0.1363(5) 0.9936(4)
H20 H 0.8812 0.1359 0.9497
C29 C 0.8602(4) 0.1186(4) 1.1275(4)
H21 H 0.8889 0.1071 1.1797
C30 C 0.7808(4) 0.1378(4) 1.1182(3)
H22 H 0.7566 0.1374 1.1629
C31 C 0.3537(3) 0.4039(3) 1.0106(3)
C32 C 0.2717(3) 0.3840(3) 1.0242(3)
C33 C 0.2534(4) 0.3147(4) 1.0454(4)
H23 H 0.2918 0.2782 1.0513
C34 C 0.1768(5) 0.3002(5) 1.0580(5)
H24 H 0.1653 0.2534 1.0729
C35 C 0.1373(5) 0.4155(5) 1.0284(4)
H25 H 0.0973 0.4508 1.0212
C36 C 0.2122(4) 0.4348(4) 1.0163(4)
H26 H 0.2221 0.4823 1.0028
C37 C 0.4074(3) 0.3470(3) 0.4916(3)
C38 C 0.3352(3) 0.3636(3) 0.4237(3)
C39 C 0.3054(4) 0.4329(3) 0.4089(4)
H27 H 0.3295 0.4719 0.4401
C40 C 0.2381(4) 0.4428(4) 0.3460(4)
H28 H 0.2186 0.4897 0.3351
C41 C 0.2305(4) 0.3231(4) 0.3154(4)
H29 H 0.2053 0.2850 0.2835
C42 C 0.2977(4) 0.3079(3) 0.3755(4)
H30 H 0.3172 0.2608 0.3834
La1A La 0.474833(17) -0.163511(16) 0.828247(17)
La1C La 0.525167(17) 0.163511(16) 1.171753(17)
La2C La 0.505499(17) 0.183375(16) 0.433363(17)
I3B I 0.96095(3) -0.07817(3) 1.08025(2)
Cu2C Cu 0.08788(6) 0.39957(6) 0.23635(6)
Cu3C Cu 0.01326(5) 0.32896(7) 1.07287(6)
Cu3C_2 Cu 1.01326(5) 0.32896(7) 1.07287(6)
Cu4B Cu 0.99229(5) -0.07195(6) 0.91873(6)
Cu4C Cu 0.00771(5) 0.42805(6) 0.58127(6)
O8C O 0.5818(2) 0.3664(2) 1.0621(2)
O9C O 0.6101(2) 0.3559(2) 0.5733(2)
O14C O 0.4476(2) 0.2079(2) 0.9847(3)
N1A N 0.5488(3) 0.4845(2) 0.6914(3)
N2C N 0.9059(3) 0.1670(3) 0.4967(3)
N3C N 1.1208(3) 0.0840(3) 1.1413(3)
N6C N 1.1194(3) 0.1501(4) 0.5497(4)
N7C N 1.2000(3) 0.1110(3) 0.8005(3)
loop_
_geom_bond_atom_site_label_1
_geom_bond_atom_site_label_2
_geom_bond_site_symmetry_1
_geom_bond_site_symmetry_2
La1 O1 1_555 1_555
La2 O1 1_555 1_555
I1 Cu1 1_555 1_555
I2 Cu1 1_555 1_555
I3 Cu1 1_555 1_555
Cu1 Cu2 1_555 1_555
Cu2 I1 1_555 1_555
Cu3 I2 1_555 1_555
Cu4 I3 1_555 1_555
O1 C1 1_555 1_555
O2 La1 1_555 1_555
O3 La1 1_555 1_555
O4 La2 1_555 1_555
O5 La1 1_555 1_555
O6 La2 1_555 1_555
O7 La1 1_555 1_555
O8 C19 1_555 1_555
O9 C25 1_555 1_555
O10 La2 1_555 1_555
O11 C31 1_555 1_555
O12 La2 1_555 1_555
O13 La1 1_555 1_555
O14 C37 1_555 1_555
O15 La2 1_555 1_555
H1 O15 1_555 1_555
H2 O15 1_555 1_555
N1 C4 1_555 1_555
N2 C10 1_555 1_555
N3 C16 1_555 1_555
N4 Cu1 1_555 1_555
N5 Cu4 1_555 1_555
N6 C34 1_555 1_555
N7 C40 1_555 1_555
C1 O2 1_555 1_555
C2 C1 1_555 1_555
C3 C2 1_555 1_555
H3 C3 1_555 1_555
C4 C3 1_555 1_555
H4 C4 1_555 1_555
C5 N1 1_555 1_555
H5 C5 1_555 1_555
C6 C2 1_555 1_555
H6 C6 1_555 1_555
C7 O3 1_555 1_555
C8 C7 1_555 1_555
C9 C8 1_555 1_555
H7 C9 1_555 1_555
C10 C9 1_555 1_555
H8 C10 1_555 1_555
C11 N2 1_555 1_555
H9 C11 1_555 1_555
C12 C8 1_555 1_555
H10 C12 1_555 1_555
C13 O5 1_555 1_555
C14 C13 1_555 1_555
C15 C14 1_555 1_555
H11 C15 1_555 1_555
C16 C15 1_555 1_555
H12 C16 1_555 1_555
C17 N3 1_555 1_555
H13 C17 1_555 1_555
C18 C14 1_555 1_555
H14 C18 1_555 1_555
C19 O7 1_555 1_555
C20 C19 1_555 1_555
C21 C20 1_555 1_555
H15 C21 1_555 1_555
C22 N4 1_555 1_555
H16 C22 1_555 1_555
C23 N4 1_555 1_555
H17 C23 1_555 1_555
C24 C20 1_555 1_555
H18 C24 1_555 1_555
C25 O10 1_555 1_555
C26 C25 1_555 1_555
C27 C26 1_555 1_555
H19 C27 1_555 1_555
C28 N5 1_555 1_555
H20 C28 1_555 1_555
C29 N5 1_555 1_555
H21 C29 1_555 1_555
C30 C26 1_555 1_555
H22 C30 1_555 1_555
C31 O12 1_555 1_555
C32 C31 1_555 1_555
C33 C32 1_555 1_555
H23 C33 1_555 1_555
C34 C33 1_555 1_555
H24 C34 1_555 1_555
C35 N6 1_555 1_555
H25 C35 1_555 1_555
C36 C32 1_555 1_555
H26 C36 1_555 1_555
C37 O13 1_555 1_555
C38 C37 1_555 1_555
C39 C38 1_555 1_555
H27 C39 1_555 1_555
C40 C39 1_555 1_555
H28 C40 1_555 1_555
C41 N7 1_555 1_555
H29 C41 1_555 1_555
C42 C38 1_555 1_555
H30 C42 1_555 1_555
La1A N1 1_555 1_555
La1C O9 1_555 1_555
La2C O8 1_555 1_555
I3B Cu4 1_555 1_555
Cu2C N7 1_555 1_555
Cu3C N6 1_555 1_555
Cu3C_2 N2 1_555 1_555
Cu4B I3 1_555 1_555
Cu4C N3 1_555 1_555
O8C La2 1_555 1_555
O9C La1 1_555 1_555
O14C La2 1_555 1_555
N1A La1 1_555 1_555
N2C Cu3 1_555 1_555
N3C Cu4 1_555 1_555
N6C Cu3 1_555 1_555
N7C Cu2 1_555 1_555
I2 Cu2 1_555 1_555
O4 C7 1_555 1_555
O6 C13 1_555 1_555
O14 La2C 1_555 1_555
C5 C6 1_555 1_555
C11 C12 1_555 1_555
C17 C18 1_555 1_555
C21 C22 1_555 1_555
C23 C24 1_555 1_555
C27 C28 1_555 1_555
C29 C30 1_555 1_555
C35 C36 1_555 1_555
C41 C42 1_555 1_555
I3B Cu4B 1_555 1_555

#END
