
#######################################################################
#
#                 Cambridge Crystallographic Data Centre
#                                CCDC 
#
#######################################################################
#
# If this CIF has been generated from an entry in the Cambridge 
# Structural Database, then it will include bibliographic, chemical, 
# crystal, experimental, refinement or atomic coordinate data resulting 
# from the CCDC's data processing and validation procedures.
#
#######################################################################

data_CAHLII
_symmetry_cell_setting           monoclinic
_symmetry_space_group_name_H-M   'P 21/c'
_symmetry_Int_Tables_number      14
_space_group_name_Hall           '-P 2ybc'
loop_
_symmetry_equiv_pos_site_id
_symmetry_equiv_pos_as_xyz
1 x,y,z
2 -x,1/2+y,1/2-z
3 -x,-y,-z
4 x,1/2-y,1/2+z
_cell_length_a                   22.478(5)
_cell_length_b                   15.248(3)
_cell_length_c                   7.9012(16)
_cell_angle_alpha                90
_cell_angle_beta                 91.08(3)
_cell_angle_gamma                90
_cell_volume                     2707.61
loop_
_atom_site_label
_atom_site_type_symbol
_atom_site_fract_x
_atom_site_fract_y
_atom_site_fract_z
Eu1 Eu 0.468172(9) 0.883578(14) 0.54292(2)
I1 I -0.064536(14) 0.46780(2) 0.80238(4)
Cu1 Cu -0.00895(3) 0.60337(4) 0.95772(8)
O1 O 0.41036(12) 0.82044(19) 0.3258(3)
O2 O 0.40455(13) 0.68385(19) 0.2284(4)
O3 O 0.39815(14) 0.9925(2) 0.6125(4)
O4 O 0.43854(14) 1.12583(19) 0.5798(4)
O5 O 0.52783(13) 1.00691(19) 0.6741(3)
O6 O 0.52729(15) 0.88394(19) 0.8130(4)
O7 O 0.49828(15) 0.7297(2) 0.5690(4)
N1 N 0.05159(17) 0.6455(3) 0.7898(5)
N2 N 0.07543(17) 1.3275(3) 0.9393(5)
C1 C 0.0772(2) 0.5857(4) 0.6888(6)
H1 H 0.0579 0.5312 0.6693
C2 C 0.1306(2) 0.6019(3) 0.6136(6)
H2 H 0.1482 0.5570 0.5479
C3 C 0.1591(2) 0.6803(3) 0.6298(5)
C4 C 0.1305(2) 0.7441(3) 0.7252(6)
H3 H 0.1470 0.8012 0.7377
C5 C 0.0774(2) 0.7223(3) 0.8012(6)
H4 H 0.0584 0.7662 0.8663
C6 C 0.21665(19) 0.6996(3) 0.5481(5)
C7 C 0.2380(2) 0.7853(3) 0.5298(5)
H5 H 0.2148 0.8330 0.5691
C8 C 0.29239(19) 0.8019(3) 0.4554(5)
H6 H 0.3066 0.8604 0.4469
C9 C 0.32607(19) 0.7322(3) 0.3932(5)
C10 C 0.3049(2) 0.6470(3) 0.4095(5)
H7 H 0.3273 0.5995 0.3665
C11 C 0.2517(2) 0.6307(3) 0.4873(5)
H8 H 0.2386 0.5719 0.5001
C12 C 0.38448(19) 0.7464(3) 0.3111(5)
C13 C 0.39611(19) 1.0751(3) 0.6205(5)
C14 C 0.3411(2) 1.1171(3) 0.6822(5)
C15 C 0.2874(2) 1.0706(3) 0.6758(5)
H9 H 0.2868 1.0115 0.6378
C16 C 0.2349(2) 1.1107(3) 0.7250(6)
H10 H 0.1985 1.0793 0.7173
C17 C 0.2354(2) 1.1967(3) 0.7857(6)
C18 C 0.2898(2) 1.2408(3) 0.7964(6)
H11 H 0.2910 1.2985 0.8419
C19 C 0.3417(2) 1.2026(3) 0.7425(6)
H12 H 0.3779 1.2348 0.7465
C20 C 0.1790(2) 1.2416(3) 0.8356(5)
C21 C 0.1303(2) 1.1948(3) 0.8918(6)
H13 H 0.1315 1.1325 0.8968
C22 C 0.0798(2) 1.2400(3) 0.9406(6)
H14 H 0.0465 1.2070 0.9768
C23 C 0.1225(2) 1.3717(3) 0.8826(7)
H15 H 0.1205 1.4339 0.8797
C24 C 0.1736(2) 1.3319(3) 0.8284(6)
H16 H 0.2052 1.3665 0.7861
C25 C 0.5471(2) 0.9597(3) 0.7941(5)
C26 C 0.5933(2) 0.9956(3) 0.9162(6)
H17 H 0.5737 1.0203 1.0150
H18 H 0.6163 1.0416 0.8603
H19 H 0.6202 0.9483 0.9527
H20 H 0.508(2) 0.697(3) 0.488(4)
H21 H 0.477(3) 0.707(3) 0.645(6)
Eu1C Eu 0.468172(9) 0.616422(14) 0.04292(2)
Eu1B Eu 0.531828(9) 1.116422(14) 0.45708(2)
I1B I 0.064536(14) 0.53220(2) 1.19762(4)
Cu1B Cu 0.00895(3) 0.39663(4) 1.04228(8)
Cu1B_2 Cu 0.00895(3) 1.39663(4) 1.04228(8)
O2C O 0.40455(13) 0.81615(19) 0.7284(4)
O4B O 0.56146(14) 0.87417(19) 0.4202(4)
O5B O 0.47217(13) 0.99309(19) 0.3259(3)
N2B N -0.07543(17) 0.6725(3) 1.0607(5)
loop_
_geom_bond_atom_site_label_1
_geom_bond_atom_site_label_2
_geom_bond_site_symmetry_1
_geom_bond_site_symmetry_2
Eu1 O1 1_555 1_555
I1 Cu1 1_555 1_555
Cu1 N1 1_555 1_555
O1 C12 1_555 1_555
O2 C12 1_555 1_555
O3 Eu1 1_555 1_555
O4 C13 1_555 1_555
O5 Eu1 1_555 1_555
O6 Eu1 1_555 1_555
O7 Eu1 1_555 1_555
N1 C1 1_555 1_555
N2 C22 1_555 1_555
C1 H1 1_555 1_555
C2 C1 1_555 1_555
H2 C2 1_555 1_555
C3 C2 1_555 1_555
C4 C3 1_555 1_555
H3 C4 1_555 1_555
C5 N1 1_555 1_555
H4 C5 1_555 1_555
C6 C3 1_555 1_555
C7 C6 1_555 1_555
H5 C7 1_555 1_555
C8 C7 1_555 1_555
H6 C8 1_555 1_555
C9 C8 1_555 1_555
C10 C9 1_555 1_555
H7 C10 1_555 1_555
C11 C6 1_555 1_555
H8 C11 1_555 1_555
C12 C9 1_555 1_555
C13 O3 1_555 1_555
C14 C13 1_555 1_555
C15 C14 1_555 1_555
H9 C15 1_555 1_555
C16 C15 1_555 1_555
H10 C16 1_555 1_555
C17 C16 1_555 1_555
C18 C17 1_555 1_555
H11 C18 1_555 1_555
C19 C14 1_555 1_555
H12 C19 1_555 1_555
C20 C17 1_555 1_555
C21 C20 1_555 1_555
H13 C21 1_555 1_555
C22 C21 1_555 1_555
H14 C22 1_555 1_555
C23 N2 1_555 1_555
H15 C23 1_555 1_555
C24 C20 1_555 1_555
H16 C24 1_555 1_555
C25 O5 1_555 1_555
C26 C25 1_555 1_555
H17 C26 1_555 1_555
H18 C26 1_555 1_555
H19 C26 1_555 1_555
H20 O7 1_555 1_555
H21 O7 1_555 1_555
Eu1C O2 1_555 1_555
Eu1B O4 1_555 1_555
I1B Cu1 1_555 1_555
Cu1B I1 1_555 1_555
Cu1B_2 N2 1_555 1_555
O2C Eu1 1_555 1_555
O4B Eu1 1_555 1_555
O5B Eu1 1_555 1_555
N2B Cu1 1_555 1_555
O5 Eu1B 1_555 1_555
O6 C25 1_555 1_555
C4 C5 1_555 1_555
C10 C11 1_555 1_555
C18 C19 1_555 1_555
C23 C24 1_555 1_555
Eu1B O5B 1_555 1_555
I1B Cu1B 1_555 1_555

#END
