
#######################################################################
#
#                 Cambridge Crystallographic Data Centre
#                                CCDC 
#
#######################################################################
#
# If this CIF has been generated from an entry in the Cambridge 
# Structural Database, then it will include bibliographic, chemical, 
# crystal, experimental, refinement or atomic coordinate data resulting 
# from the CCDC's data processing and validation procedures.
#
#######################################################################

data_CAHMAB
_symmetry_cell_setting           monoclinic
_symmetry_space_group_name_H-M   'P 21/c'
_symmetry_Int_Tables_number      14
_space_group_name_Hall           '-P 2ybc'
loop_
_symmetry_equiv_pos_site_id
_symmetry_equiv_pos_as_xyz
1 x,y,z
2 -x,1/2+y,1/2-z
3 -x,-y,-z
4 x,1/2-y,1/2+z
_cell_length_a                   22.297(5)
_cell_length_b                   15.432(3)
_cell_length_c                   7.9465(16)
_cell_angle_alpha                90
_cell_angle_beta                 92.43(3)
_cell_angle_gamma                90
_cell_volume                     2731.83
loop_
_atom_site_label
_atom_site_type_symbol
_atom_site_fract_x
_atom_site_fract_y
_atom_site_fract_z
Nd1 Nd 0.033120(4) 0.116530(7) -0.040490(13)
Cu1 Cu 0.509200(12) 0.105390(19) -0.95506(4)
I1 I 0.434180(6) 0.031420(9) -1.193230(19)
O1 O -0.06308(6) 0.12567(9) 0.0749(2)
O2 O -0.10424(6) -0.00640(9) 0.1053(2)
O3 O 0.09798(6) 0.18458(9) -0.22488(18)
O4 O 0.09321(6) 0.32034(9) -0.31766(17)
O5 O -0.02868(6) -0.00682(9) -0.17939(17)
O6 O -0.02698(7) 0.11521(9) -0.31721(19)
O7 O 0.00401(6) 0.27219(9) -0.06747(18)
N1 N -0.42513(7) 0.32661(12) 0.4411(2)
N2 N 0.45016(7) 0.14482(12) -0.7866(2)
C1 C -0.10546(9) 0.07557(14) 0.1148(3)
C2 C -0.16081(9) 0.11734(13) 0.1770(3)
C3 C -0.21474(9) 0.07156(14) 0.1747(3)
H1 H -0.2160 0.0130 0.1378
C4 C -0.26657(9) 0.11134(14) 0.2261(3)
H2 H -0.3032 0.0799 0.2218
C5 C -0.26590(9) 0.19648(14) 0.2840(3)
C6 C -0.21100(9) 0.24071(14) 0.2919(3)
H3 H -0.2092 0.2980 0.3354
C7 C -0.15926(9) 0.20208(14) 0.2370(3)
H4 H -0.1226 0.2335 0.2404
C8 C -0.32132(9) 0.24096(14) 0.3349(3)
C9 C -0.37060(9) 0.19489(15) 0.3913(3)
H5 H -0.3700 0.1334 0.3948
C10 C -0.42048(10) 0.24019(15) 0.4422(3)
H6 H -0.4535 0.2077 0.4804
C11 C -0.37762(10) 0.37028(15) 0.3825(3)
H7 H -0.3796 0.4317 0.3780
C12 C -0.32693(9) 0.33044(15) 0.3293(3)
H8 H -0.2952 0.3645 0.2881
C13 C 0.42515(9) 0.22306(14) -0.7909(3)
H9 H 0.4444 0.2674 -0.8517
C14 C 0.37287(9) 0.24383(14) -0.7124(3)
H10 H 0.3572 0.3010 -0.7198
C15 C 0.34327(8) 0.18059(13) -0.6225(2)
C16 C 0.37111(9) 0.10045(14) -0.6112(3)
H11 H 0.3539 0.0557 -0.5468
C17 C 0.42332(9) 0.08478(16) -0.6920(3)
H12 H 0.4413 0.0292 -0.6808
C18 C 0.28579(9) 0.19916(14) -0.5397(2)
C19 C 0.26511(9) 0.28373(14) -0.5213(3)
H13 H 0.2883 0.3307 -0.5603
C20 C 0.21100(9) 0.30036(13) -0.4469(3)
H14 H 0.1971 0.3583 -0.4372
C21 C 0.17709(8) 0.23194(13) -0.3863(2)
C22 C 0.19812(9) 0.14776(13) -0.4011(3)
H15 H 0.1758 0.1010 -0.3573
C23 C 0.25101(9) 0.13130(14) -0.4788(3)
H16 H 0.2641 0.0731 -0.4913
C24 C 0.11896(8) 0.24655(13) -0.3046(2)
C25 C -0.04783(9) 0.03995(14) -0.2996(3)
C26 C -0.09418(11) 0.00565(16) -0.4230(3)
H17 H -0.1183 0.0537 -0.4694
H18 H -0.1202 -0.0352 -0.3662
H19 H -0.0744 -0.0241 -0.5144
H20 H 0.0267(4) 0.2914(11) -0.1422(12)
H21 H -0.0108(6) 0.3098(8) -0.0024(15)
Nd1B Nd -0.033120(4) -0.116530(7) 0.040490(13)
Nd1C Nd 0.033120(4) 0.383470(7) -0.540490(13)
Cu1C Cu -0.490800(12) 0.394610(19) 0.54494(4)
Cu1B Cu 0.490800(12) -0.105390(19) -1.04494(4)
I1B I 0.565820(6) -0.031420(9) -0.806770(19)
O2B O 0.10424(6) 0.00640(9) -0.1053(2)
O4C O 0.09321(6) 0.17966(9) 0.18234(17)
O5B O 0.02868(6) 0.00682(9) 0.17939(17)
N1C N 0.57487(7) 0.17339(12) -1.0589(2)
loop_
_geom_bond_atom_site_label_1
_geom_bond_atom_site_label_2
_geom_bond_site_symmetry_1
_geom_bond_site_symmetry_2
Nd1 O1 1_555 1_555
Cu1 I1 1_555 1_555
I1 Cu1B 1_555 1_555
O1 C1 1_555 1_555
O2 C1 1_555 1_555
O3 Nd1 1_555 1_555
O4 C24 1_555 1_555
O5 Nd1 1_555 1_555
O6 Nd1 1_555 1_555
O7 Nd1 1_555 1_555
N1 C10 1_555 1_555
N2 Cu1 1_555 1_555
C1 C2 1_555 1_555
C2 C3 1_555 1_555
C3 H1 1_555 1_555
C4 C3 1_555 1_555
H2 C4 1_555 1_555
C5 C4 1_555 1_555
C6 C5 1_555 1_555
H3 C6 1_555 1_555
C7 C2 1_555 1_555
H4 C7 1_555 1_555
C8 C5 1_555 1_555
C9 C8 1_555 1_555
H5 C9 1_555 1_555
C10 C9 1_555 1_555
H6 C10 1_555 1_555
C11 N1 1_555 1_555
H7 C11 1_555 1_555
C12 C8 1_555 1_555
H8 C12 1_555 1_555
C13 N2 1_555 1_555
H9 C13 1_555 1_555
C14 C13 1_555 1_555
H10 C14 1_555 1_555
C15 C14 1_555 1_555
C16 C15 1_555 1_555
H11 C16 1_555 1_555
C17 N2 1_555 1_555
H12 C17 1_555 1_555
C18 C15 1_555 1_555
C19 C18 1_555 1_555
H13 C19 1_555 1_555
C20 C19 1_555 1_555
H14 C20 1_555 1_555
C21 C20 1_555 1_555
C22 C21 1_555 1_555
H15 C22 1_555 1_555
C23 C18 1_555 1_555
H16 C23 1_555 1_555
C24 O3 1_555 1_555
C25 O5 1_555 1_555
C26 C25 1_555 1_555
H17 C26 1_555 1_555
H18 C26 1_555 1_555
H19 C26 1_555 1_555
H20 O7 1_555 1_555
H21 O7 1_555 1_555
Nd1B O2 1_555 1_555
Nd1C O4 1_555 1_555
Cu1C N1 1_555 1_555
Cu1B I1B 1_555 1_555
I1B Cu1 1_555 1_555
O2B Nd1 1_555 1_555
O4C Nd1 1_555 1_555
O5B Nd1 1_555 1_555
N1C Cu1 1_555 1_555
O5 Nd1B 1_555 1_555
O6 C25 1_555 1_555
C6 C7 1_555 1_555
C11 C12 1_555 1_555
C16 C17 1_555 1_555
C21 C24 1_555 1_555
C22 C23 1_555 1_555
Nd1B O5B 1_555 1_555

#END
