
#######################################################################
#
#                 Cambridge Crystallographic Data Centre
#                                CCDC 
#
#######################################################################
#
# If this CIF has been generated from an entry in the Cambridge 
# Structural Database, then it will include bibliographic, chemical, 
# crystal, experimental, refinement or atomic coordinate data resulting 
# from the CCDC's data processing and validation procedures.
#
#######################################################################

data_CAHMIJ
_symmetry_cell_setting           monoclinic
_symmetry_space_group_name_H-M   'P 21/c'
_symmetry_Int_Tables_number      14
_space_group_name_Hall           '-P 2ybc'
loop_
_symmetry_equiv_pos_site_id
_symmetry_equiv_pos_as_xyz
1 x,y,z
2 -x,1/2+y,1/2-z
3 -x,-y,-z
4 x,1/2-y,1/2+z
_cell_length_a                   16.965(3)
_cell_length_b                   18.157(4)
_cell_length_c                   15.636(3)
_cell_angle_alpha                90
_cell_angle_beta                 102.47(3)
_cell_angle_gamma                90
_cell_volume                     4702.79
loop_
_atom_site_label
_atom_site_type_symbol
_atom_site_fract_x
_atom_site_fract_y
_atom_site_fract_z
Pr1 Pr 0.007878(18) 0.317359(16) 0.928874(18)
Pr2 Pr -0.027200(18) -0.163100(16) 0.830460(18)
I1 I -0.46010(3) 0.42121(2) 0.41928(3)
I2 I 0.51118(3) 0.51495(2) 1.16628(3)
I3 I -0.49634(3) 0.22192(2) 0.71549(3)
Cu1 Cu -0.49109(5) 0.43012(5) 0.58048(5)
Cu2 Cu 0.45796(5) 0.44438(6) 1.27870(6)
Cu3 Cu -0.41552(5) 0.09874(5) 0.73344(5)
Cu4 Cu -0.48490(5) 0.32538(5) 1.07275(6)
N1 N -0.3027(3) 0.1091(3) 0.7988(3)
N2 N -0.3782(3) 0.3461(4) 1.0511(4)
N3 N -0.3771(3) 0.4182(3) 0.6388(3)
N4 N -0.0510(3) -0.0159(2) 0.8117(3)
N5 N 0.4001(3) 0.1153(3) 1.0652(3)
N6 N 0.4079(3) 0.3300(3) 0.9969(3)
N7 N 0.3413(3) 0.4191(3) 1.2445(3)
C1 C -0.2652(4) 0.0546(3) 0.8459(4)
H1 H -0.2860 0.0072 0.8363
C2 C -0.1969(4) 0.0656(3) 0.9082(4)
H2 H -0.1723 0.0267 0.9424
C3 C -0.1644(4) 0.1363(3) 0.9198(4)
C4 C -0.2016(4) 0.1914(3) 0.8682(4)
H3 H -0.1800 0.2387 0.8729
C5 C -0.2710(4) 0.1761(3) 0.8093(4)
H4 H -0.2974 0.2143 0.7749
C6 C -0.0911(3) 0.1545(3) 0.9845(4)
C7 C -0.3593(4) 0.4149(4) 1.0327(4)
H5 H -0.3984 0.4515 1.0278
C8 C -0.2837(4) 0.4330(4) 1.0206(4)
H6 H -0.2720 0.4817 1.0095
C9 C -0.2253(4) 0.3798(3) 1.0249(4)
C10 C -0.2446(4) 0.3082(3) 1.0434(4)
H7 H -0.2070 0.2705 1.0463
C11 C -0.3206(4) 0.2940(4) 1.0575(4)
H8 H -0.3327 0.2463 1.0720
C12 C -0.1421(4) 0.3984(3) 1.0100(3)
C13 C -0.3591(4) 0.3834(3) 0.7113(4)
H9 H -0.4007 0.3672 0.7368
C14 C -0.2805(4) 0.3689(3) 0.7536(4)
H10 H -0.2706 0.3440 0.8068
C15 C -0.2171(4) 0.3903(3) 0.7189(4)
C16 C -0.2342(4) 0.4264(3) 0.6436(4)
H11 H -0.1933 0.4426 0.6170
C17 C -0.3139(4) 0.4392(4) 0.6058(4)
H12 H -0.3250 0.4646 0.5529
C18 C -0.1309(4) 0.3736(3) 0.7617(4)
C19 C 0.0068(4) 0.0282(3) 0.8541(4)
H13 H 0.0455 0.0077 0.8992
C20 C 0.0139(4) 0.1027(3) 0.8362(4)
H14 H 0.0564 0.1305 0.8677
C21 C -0.0425(4) 0.1335(3) 0.7719(4)
C22 C -0.1033(4) 0.0886(3) 0.7295(4)
H15 H -0.1436 0.1079 0.6852
C23 C -0.1060(4) 0.0150(3) 0.7513(4)
H16 H -0.1488 -0.0136 0.7218
C24 C -0.0355(4) 0.2128(3) 0.7475(4)
C25 C 0.3571(4) 0.1347(4) 0.9907(4)
H17 H 0.3812 0.1339 0.9426
C26 C 0.2780(4) 0.1564(3) 0.9772(4)
H18 H 0.2514 0.1702 0.9211
C27 C 0.2378(3) 0.1585(3) 1.0416(4)
C28 C 0.2814(4) 0.1397(3) 1.1182(4)
H19 H 0.2577 0.1393 1.1665
C29 C 0.3624(4) 0.1202(3) 1.1290(4)
H20 H 0.3912 0.1101 1.1855
C30 C 0.1501(3) 0.1798(3) 1.0293(3)
C31 C 0.3977(4) 0.3210(3) 0.9161(4)
H21 H 0.4419 0.3093 0.8924
C32 C 0.3236(4) 0.3277(3) 0.8620(4)
H22 H 0.3188 0.3204 0.8022
C33 C 0.2556(3) 0.3448(3) 0.8927(4)
C34 C 0.2658(4) 0.3540(3) 0.9775(4)
H23 H 0.2229 0.3658 1.0032
C35 C 0.3419(4) 0.3454(3) 1.0260(4)
H24 H 0.3484 0.3509 1.0862
C36 C 0.1724(3) 0.3530(3) 0.8378(4)
C37 C 0.2934(4) 0.4581(3) 1.1851(4)
H25 H 0.3118 0.5026 1.1675
C38 C 0.2168(4) 0.4355(3) 1.1479(4)
H26 H 0.1837 0.4652 1.1067
C39 C 0.1885(4) 0.3692(3) 1.1711(4)
C40 C 0.2375(4) 0.3292(3) 1.2354(4)
H27 H 0.2201 0.2853 1.2558
C41 C 0.3133(4) 0.3564(3) 1.2687(4)
H28 H 0.3475 0.3287 1.3112
C42 C 0.1111(4) 0.3363(3) 1.1228(4)
O1 O -0.0760(3) 0.1174(2) 1.0499(2)
O2 O -0.0477(2) 0.2063(2) 0.9692(3)
O3 O -0.1261(2) 0.4652(2) 1.0075(3)
O4 O -0.0984(3) 0.3451(2) 1.0009(3)
O5 O -0.1210(2) 0.3410(2) 0.8291(2)
O6 O -0.0752(2) 0.3926(2) 0.7267(2)
O7 O 0.0154(2) 0.2534(2) 0.7969(2)
O8 O -0.0752(2) 0.2351(2) 0.6802(2)
O9 O 0.1107(2) 0.1443(2) 1.0719(2)
O10 O 0.1244(2) 0.2288(2) 0.9767(2)
O11 O 0.1656(2) 0.3442(2) 0.7615(2)
O12 O 0.1158(2) 0.3682(2) 0.8719(2)
O13 O 0.0810(2) 0.3678(2) 1.0563(2)
O14 O 0.0846(3) 0.2799(2) 1.1506(3)
O15 O -0.0096(3) 0.4536(2) 0.9116(2)
H29 H -0.0442 0.4676 0.9373
H30 H 0.0180 0.4690 0.9295
Pr2B Pr 0.027200(18) 0.163100(16) 1.169540(18)
Pr2A Pr 0.027200(18) 0.336900(16) 0.669540(18)
I1B I -0.53990(3) 0.57879(2) 0.58072(3)
I1_2 I 0.53990(3) 0.42121(2) 1.41928(3)
I2C I -0.48882(3) -0.01495(2) 0.66628(3)
I3C I -0.49634(3) 0.27808(2) 1.21549(3)
Cu1B Cu -0.50891(5) 0.56988(5) 0.41952(5)
Cu1C Cu 0.50891(5) 0.06988(5) 1.08048(5)
Cu2_2 Cu -0.54204(5) 0.44438(6) 0.27870(6)
Cu3C Cu 0.58448(5) 0.40126(5) 1.23344(5)
Cu4C Cu -0.48490(5) 0.17462(5) 0.57275(6)
Cu4_2 Cu 0.51510(5) 0.32538(5) 1.07275(6)
N5C N -0.5999(3) 0.3847(3) 0.5652(3)
N6_2 N -0.5921(3) 0.3300(3) 0.9969(3)
O1B O 0.0760(3) -0.1174(2) 0.9501(2)
O6A O 0.0752(2) -0.1074(2) 0.7733(2)
O7A O -0.0154(2) -0.2466(2) 0.7031(2)
O8A O 0.0752(2) -0.2649(2) 0.8198(2)
O9B O -0.1107(2) -0.1443(2) 0.9281(2)
O11A O -0.1656(2) -0.1558(2) 0.7385(2)
O14B O -0.0846(3) -0.2799(2) 0.8494(3)
loop_
_geom_bond_atom_site_label_1
_geom_bond_atom_site_label_2
_geom_bond_site_symmetry_1
_geom_bond_site_symmetry_2
Pr1 O2 1_555 1_555
Pr2 N4 1_555 1_555
I1 Cu1 1_555 1_555
I2 Cu2 1_555 1_555
I3 Cu3 1_555 1_555
Cu1 N3 1_555 1_555
Cu2 N7 1_555 1_555
Cu3 N1 1_555 1_555
Cu4 N2 1_555 1_555
N1 C1 1_555 1_555
N2 C7 1_555 1_555
N3 C13 1_555 1_555
N4 C19 1_555 1_555
N5 C25 1_555 1_555
N6 C31 1_555 1_555
N7 C37 1_555 1_555
C1 H1 1_555 1_555
C2 C1 1_555 1_555
H2 C2 1_555 1_555
C3 C2 1_555 1_555
C4 C3 1_555 1_555
H3 C4 1_555 1_555
C5 N1 1_555 1_555
H4 C5 1_555 1_555
C6 C3 1_555 1_555
C7 H5 1_555 1_555
C8 C7 1_555 1_555
H6 C8 1_555 1_555
C9 C8 1_555 1_555
C10 C9 1_555 1_555
H7 C10 1_555 1_555
C11 N2 1_555 1_555
H8 C11 1_555 1_555
C12 C9 1_555 1_555
C13 H9 1_555 1_555
C14 C13 1_555 1_555
H10 C14 1_555 1_555
C15 C14 1_555 1_555
C16 C15 1_555 1_555
H11 C16 1_555 1_555
C17 N3 1_555 1_555
H12 C17 1_555 1_555
C18 C15 1_555 1_555
C19 H13 1_555 1_555
C20 C19 1_555 1_555
H14 C20 1_555 1_555
C21 C20 1_555 1_555
C22 C21 1_555 1_555
H15 C22 1_555 1_555
C23 N4 1_555 1_555
H16 C23 1_555 1_555
C24 C21 1_555 1_555
C25 H17 1_555 1_555
C26 C25 1_555 1_555
H18 C26 1_555 1_555
C27 C26 1_555 1_555
C28 C27 1_555 1_555
H19 C28 1_555 1_555
C29 N5 1_555 1_555
H20 C29 1_555 1_555
C30 C27 1_555 1_555
C31 H21 1_555 1_555
C32 C31 1_555 1_555
H22 C32 1_555 1_555
C33 C32 1_555 1_555
C34 C33 1_555 1_555
H23 C34 1_555 1_555
C35 N6 1_555 1_555
H24 C35 1_555 1_555
C36 C33 1_555 1_555
C37 H25 1_555 1_555
C38 C37 1_555 1_555
H26 C38 1_555 1_555
C39 C38 1_555 1_555
C40 C39 1_555 1_555
H27 C40 1_555 1_555
C41 N7 1_555 1_555
H28 C41 1_555 1_555
C42 C39 1_555 1_555
O1 C6 1_555 1_555
O2 C6 1_555 1_555
O3 C12 1_555 1_555
O4 Pr1 1_555 1_555
O5 Pr1 1_555 1_555
O6 C18 1_555 1_555
O7 Pr1 1_555 1_555
O8 C24 1_555 1_555
O9 C30 1_555 1_555
O10 Pr1 1_555 1_555
O11 C36 1_555 1_555
O12 Pr1 1_555 1_555
O13 Pr1 1_555 1_555
O14 C42 1_555 1_555
O15 Pr1 1_555 1_555
H29 O15 1_555 1_555
H30 O15 1_555 1_555
Pr2B O1 1_555 1_555
Pr2A O6 1_555 1_555
I1B Cu1 1_555 1_555
I1_2 Cu2 1_555 1_555
I2C Cu3 1_555 1_555
I3C Cu4 1_555 1_555
Cu1B I1 1_555 1_555
Cu1C N5 1_555 1_555
Cu2_2 I1 1_555 1_555
Cu3C I2 1_555 1_555
Cu4C I3 1_555 1_555
Cu4_2 N6 1_555 1_555
N5C Cu1 1_555 1_555
N6_2 Cu4 1_555 1_555
O1B Pr2 1_555 1_555
O6A Pr2 1_555 1_555
O7A Pr2 1_555 1_555
O8A Pr2 1_555 1_555
O9B Pr2 1_555 1_555
O11A Pr2 1_555 1_555
O14B Pr2 1_555 1_555
C4 C5 1_555 1_555
C10 C11 1_555 1_555
C12 O4 1_555 1_555
C16 C17 1_555 1_555
C18 O5 1_555 1_555
C22 C23 1_555 1_555
C24 O7 1_555 1_555
C28 C29 1_555 1_555
C30 O10 1_555 1_555
C34 C35 1_555 1_555
C36 O12 1_555 1_555
C40 C41 1_555 1_555
C42 O13 1_555 1_555
O7 Pr2A 1_555 1_555
O8 Pr2A 1_555 1_555
O9 Pr2B 1_555 1_555
O11 Pr2A 1_555 1_555
O14 Pr2B 1_555 1_555
I1B Cu1B 1_555 1_555

#END
