
#######################################################################
#
#                 Cambridge Crystallographic Data Centre
#                                CCDC 
#
#######################################################################
#
# If this CIF has been generated from an entry in the Cambridge 
# Structural Database, then it will include bibliographic, chemical, 
# crystal, experimental, refinement or atomic coordinate data resulting 
# from the CCDC's data processing and validation procedures.
#
#######################################################################

data_CAHMAZ
_symmetry_cell_setting           hexagonal
_symmetry_space_group_name_H-M   'P 63/m'
_symmetry_Int_Tables_number      176
_space_group_name_Hall           '-P 6c'
loop_
_symmetry_equiv_pos_site_id
_symmetry_equiv_pos_as_xyz
1 x,y,z
2 -y,x-y,z
3 -x+y,-x,z
4 -x,-y,1/2+z
5 y,-x+y,1/2+z
6 x-y,x,1/2+z
7 -x,-y,-z
8 y,-x+y,-z
9 x-y,x,-z
10 x,y,1/2-z
11 -y,x-y,1/2-z
12 -x+y,-x,1/2-z
_cell_length_a                   9.482(2)
_cell_length_b                   9.482(2)
_cell_length_c                   14.721(3)
_cell_angle_alpha                90
_cell_angle_beta                 90
_cell_angle_gamma                120
_cell_volume                     1146.22
loop_
_atom_site_label
_atom_site_type_symbol
_atom_site_fract_x
_atom_site_fract_y
_atom_site_fract_z
Bi1 Bi 0.66700 0.33300 0.39409
Cl1 Cl 0.42800 0.13400 0.25000
O1 O 0.42000 0.37600 0.40300
O2 O 0.69500 0.52000 0.51000
C1 C 0.42200 0.45500 0.46900
Cl1A Cl 0.86600 0.29400 0.25000
Cl1B Cl 0.70600 0.57200 0.25000
O1A O 0.62400 0.04400 0.40300
O1B O 0.95600 0.58000 0.40300
O2A O 0.48000 0.17500 0.51000
O2B O 0.82500 0.30500 0.51000
Bi1I Bi 0.66700 0.33300 0.10591
C1F C 0.57800 0.54500 0.53100
O2F O 0.30500 0.48000 0.49000
C1A C 0.54500 -0.03300 0.46900
C1B C 1.03300 0.57800 0.46900
C1G C 0.45500 0.03300 0.53100
C1H C 0.96700 0.42200 0.53100
O1F O 0.58000 0.62400 0.59700
Bi1F Bi 0.33300 0.66700 0.60591
O2G O 0.52000 -0.17500 0.49000
O2H O 1.17500 0.69500 0.49000
O1G O 0.37600 -0.04400 0.59700
O1H O 1.04400 0.42000 0.59700
Bi1F_2 Bi 0.33300 -0.33300 0.60591
Bi1F_3 Bi 1.33300 0.66700 0.60591
O1I O 0.42000 0.37600 0.09700
O1J O 0.62400 0.04400 0.09700
O1K O 0.95600 0.58000 0.09700
O2I O 0.69500 0.52000 -0.01000
O2J O 0.48000 0.17500 -0.01000
O2K O 0.82500 0.30500 -0.01000
N1 N 0.16200 0.10500 0.61400
C2 C 0.00000 0.00000 0.61600
N1B N -0.05700 -0.16200 0.61400
N1A N -0.10500 0.05700 0.61400
N2 N 0.73000 0.50100 0.75000
C3 C 0.66700 0.33300 0.75000
N2B N 0.77100 0.27000 0.75000
N2A N 0.49900 0.22900 0.75000
loop_
_geom_bond_atom_site_label_1
_geom_bond_atom_site_label_2
_geom_bond_site_symmetry_1
_geom_bond_site_symmetry_2
Bi1 Cl1 1_555 1_555
Cl1 Bi1I 1_555 1_555
O1 Bi1 1_555 1_555
O2 Bi1 1_555 1_555
N1 C2 1_555 1_555
N2 C3 1_555 1_555
C1 O1 1_555 1_555
C2 N1B 1_555 1_555
C3 N2B 1_555 1_555
Cl1A Bi1 1_555 1_555
Cl1B Bi1 1_555 1_555
O1A Bi1 1_555 1_555
O1B Bi1 1_555 1_555
O2A Bi1 1_555 1_555
O2B Bi1 1_555 1_555
Bi1I Cl1A 1_555 1_555
C1F O2 1_555 1_555
O2F C1 1_555 1_555
N1A C2 1_555 1_555
N2A C3 1_555 1_555
C1A O1A 1_555 1_555
C1B O1B 1_555 1_555
C1G O2A 1_555 1_555
C1H O2B 1_555 1_555
O1F C1F 1_555 1_555
Bi1F O2F 1_555 1_555
O2G C1A 1_555 1_555
O2H C1B 1_555 1_555
O1G C1G 1_555 1_555
O1H C1H 1_555 1_555
Bi1F_2 O2G 1_555 1_555
Bi1F_3 O2H 1_555 1_555
O1I Bi1I 1_555 1_555
O1J Bi1I 1_555 1_555
O1K Bi1I 1_555 1_555
O2I Bi1I 1_555 1_555
O2J Bi1I 1_555 1_555
O2K Bi1I 1_555 1_555
C1 C1F 1_555 1_555
Cl1B Bi1I 1_555 1_555
C1A C1G 1_555 1_555
C1B C1H 1_555 1_555
O1F Bi1F 1_555 1_555
O1G Bi1F_2 1_555 1_555
O1H Bi1F_3 1_555 1_555

#END
