
#######################################################################
#
#                 Cambridge Crystallographic Data Centre
#                                CCDC 
#
#######################################################################
#
# If this CIF has been generated from an entry in the Cambridge 
# Structural Database, then it will include bibliographic, chemical, 
# crystal, experimental, refinement or atomic coordinate data resulting 
# from the CCDC's data processing and validation procedures.
#
#######################################################################

data_CAHMEF
_symmetry_cell_setting           monoclinic
_symmetry_space_group_name_H-M   'P 21/c'
_symmetry_Int_Tables_number      14
_space_group_name_Hall           '-P 2ybc'
loop_
_symmetry_equiv_pos_site_id
_symmetry_equiv_pos_as_xyz
1 x,y,z
2 -x,1/2+y,1/2-z
3 -x,-y,-z
4 x,1/2-y,1/2+z
_cell_length_a                   22.135(4)
_cell_length_b                   15.490(3)
_cell_length_c                   8.0108(16)
_cell_angle_alpha                90
_cell_angle_beta                 93.37(3)
_cell_angle_gamma                90
_cell_volume                     2741.92
loop_
_atom_site_label
_atom_site_type_symbol
_atom_site_fract_x
_atom_site_fract_y
_atom_site_fract_z
Pr1 Pr 0.466208(8) 0.116817(9) 0.03854(2)
I1 I -0.066205(11) 0.531975(13) 0.30732(3)
Cu1 Cu -0.00908(2) 0.39392(3) 0.45140(6)
O1 O 0.40545(10) 0.17986(12) -0.1873(3)
O2 O 0.40054(10) 0.31525(12) -0.2806(3)
O3 O 0.39496(11) 0.00556(13) 0.1032(3)
O4 O 0.43638(11) -0.12523(12) 0.0742(3)
O5 O 0.52687(12) 0.11483(12) 0.3178(3)
O6 O 0.52987(11) -0.00650(13) 0.1806(3)
O7 O 0.49562(12) 0.27335(13) 0.0660(3)
N1 N 0.04991(13) 0.35678(17) 0.2844(3)
N2 N 0.07536(14) -0.32584(17) 0.4475(4)
C1 C 0.37922(14) 0.25326(17) -0.2012(4)
C2 C 0.32147(14) 0.26814(18) -0.1207(4)
C3 C 0.28707(15) 0.20049(19) -0.0600(4)
H1 H 0.3007 0.1426 -0.0695
C4 C 0.23353(15) 0.21742(19) 0.0136(4)
H2 H 0.2103 0.1706 0.0520
C5 C 0.21253(15) 0.30196(18) 0.0332(4)
C6 C 0.24757(16) 0.3690(2) -0.0294(4)
H3 H 0.2346 0.4271 -0.0178
C7 C 0.30002(15) 0.35246(19) -0.1069(4)
H4 H 0.3220 0.3989 -0.1517
C8 C 0.15599(15) 0.32043(19) 0.1159(4)
C9 C 0.12510(16) 0.2572(2) 0.2008(4)
H5 H 0.1397 0.1995 0.2036
C10 C 0.07356(15) 0.2776(2) 0.2807(4)
H6 H 0.0537 0.2326 0.3365
C11 C 0.07736(17) 0.4171(2) 0.1953(5)
H7 H 0.0603 0.4734 0.1888
C12 C 0.39372(16) -0.07577(19) 0.1131(4)
C13 C 0.33854(16) -0.11706(18) 0.1763(4)
C14 C 0.34106(16) -0.20185(19) 0.2372(4)
H8 H 0.3780 -0.2331 0.2405
C15 C 0.28922(16) -0.2397(2) 0.2926(4)
H9 H 0.2914 -0.2968 0.3358
C16 C 0.23396(15) -0.19660(19) 0.2868(4)
C17 C 0.23212(16) -0.11149(19) 0.2284(4)
H10 H 0.1951 -0.0803 0.2248
C18 C 0.28437(16) -0.07227(19) 0.1756(4)
H11 H 0.2828 -0.0140 0.1386
C19 C 0.17822(15) -0.24029(19) 0.3392(4)
C20 C 0.17295(17) -0.3292(2) 0.3336(5)
H12 H 0.2045 -0.3630 0.2917
C21 C 0.12202(18) -0.3689(2) 0.3887(5)
H13 H 0.1200 -0.4302 0.3847
C22 C 0.07936(17) -0.2397(2) 0.4476(4)
H14 H 0.0463 -0.2073 0.4850
C23 C 0.12931(16) -0.1956(2) 0.3959(4)
H15 H 0.1300 -0.1343 0.3993
C24 C 0.54824(16) 0.03992(18) 0.3016(4)
C25 C 0.5943(2) 0.0061(2) 0.4266(5)
H16 H 0.6228 0.0522 0.4600
H17 H 0.6162 -0.0417 0.3776
H18 H 0.5743 -0.0146 0.5250
C26 C 0.12909(17) 0.4013(2) 0.1129(5)
H19 H 0.1467 0.4468 0.0528
H20 H 0.4715(18) 0.294(2) 0.134(5)
H21 H 0.5120(17) 0.3093(17) 0.002(4)
Pr1B Pr 0.533792(8) -0.116817(9) -0.03854(2)
Pr1C Pr 0.466208(8) 0.383183(9) -0.46146(2)
I1B I 0.066205(11) 0.468025(13) 0.69268(3)
Cu1B Cu 0.00908(2) 0.60608(3) 0.54860(6)
Cu1B_2 Cu 0.00908(2) -0.39392(3) 0.54860(6)
O2C O 0.40054(10) 0.18475(12) 0.2194(3)
O4B O 0.56362(11) 0.12523(12) -0.0742(3)
O6B O 0.47013(11) 0.00650(13) -0.1806(3)
N2B N -0.07536(14) 0.32584(17) 0.5525(4)
loop_
_geom_bond_atom_site_label_1
_geom_bond_atom_site_label_2
_geom_bond_site_symmetry_1
_geom_bond_site_symmetry_2
Pr1 O1 1_555 1_555
I1 Cu1 1_555 1_555
Cu1 N1 1_555 1_555
O1 C1 1_555 1_555
O2 C1 1_555 1_555
O3 Pr1 1_555 1_555
O4 C12 1_555 1_555
O5 Pr1 1_555 1_555
O6 Pr1 1_555 1_555
O7 Pr1 1_555 1_555
N1 C10 1_555 1_555
N2 C21 1_555 1_555
C1 C2 1_555 1_555
C2 C3 1_555 1_555
C3 H1 1_555 1_555
C4 C3 1_555 1_555
H2 C4 1_555 1_555
C5 C4 1_555 1_555
C6 C5 1_555 1_555
H3 C6 1_555 1_555
C7 C2 1_555 1_555
H4 C7 1_555 1_555
C8 C5 1_555 1_555
C9 C8 1_555 1_555
H5 C9 1_555 1_555
C10 C9 1_555 1_555
H6 C10 1_555 1_555
C11 N1 1_555 1_555
H7 C11 1_555 1_555
C12 O3 1_555 1_555
C13 C12 1_555 1_555
C14 C13 1_555 1_555
H8 C14 1_555 1_555
C15 C14 1_555 1_555
H9 C15 1_555 1_555
C16 C15 1_555 1_555
C17 C16 1_555 1_555
H10 C17 1_555 1_555
C18 C13 1_555 1_555
H11 C18 1_555 1_555
C19 C16 1_555 1_555
C20 C19 1_555 1_555
H12 C20 1_555 1_555
C21 C20 1_555 1_555
H13 C21 1_555 1_555
C22 N2 1_555 1_555
H14 C22 1_555 1_555
C23 C19 1_555 1_555
H15 C23 1_555 1_555
C24 O5 1_555 1_555
C25 C24 1_555 1_555
H16 C25 1_555 1_555
H17 C25 1_555 1_555
H18 C25 1_555 1_555
C26 C8 1_555 1_555
H19 C26 1_555 1_555
H20 O7 1_555 1_555
H21 O7 1_555 1_555
Pr1B O4 1_555 1_555
Pr1C O2 1_555 1_555
I1B Cu1 1_555 1_555
Cu1B I1 1_555 1_555
Cu1B_2 N2 1_555 1_555
O2C Pr1 1_555 1_555
O4B Pr1 1_555 1_555
O6B Pr1 1_555 1_555
N2B Cu1 1_555 1_555
O6 C24 1_555 1_555
O6 Pr1B 1_555 1_555
C6 C7 1_555 1_555
C11 C26 1_555 1_555
C17 C18 1_555 1_555
C22 C23 1_555 1_555
Pr1B O6B 1_555 1_555
I1B Cu1B 1_555 1_555

#END
