
#######################################################################
#
#                 Cambridge Crystallographic Data Centre
#                                CCDC 
#
#######################################################################
#
# If this CIF has been generated from an entry in the Cambridge 
# Structural Database, then it will include bibliographic, chemical, 
# crystal, experimental, refinement or atomic coordinate data resulting 
# from the CCDC's data processing and validation procedures.
#
#######################################################################

data_CAHNIK
_symmetry_cell_setting           monoclinic
_symmetry_space_group_name_H-M   'P 21/c'
_symmetry_Int_Tables_number      14
_space_group_name_Hall           '-P 2ybc'
loop_
_symmetry_equiv_pos_site_id
_symmetry_equiv_pos_as_xyz
1 x,y,z
2 -x,1/2+y,1/2-z
3 -x,-y,-z
4 x,1/2-y,1/2+z
_cell_length_a                   13.1739(15)
_cell_length_b                   11.9326(13)
_cell_length_c                   13.7668(16)
_cell_angle_alpha                90
_cell_angle_beta                 100.455(2)
_cell_angle_gamma                90
_cell_volume                     2128.2
loop_
_atom_site_label
_atom_site_type_symbol
_atom_site_fract_x
_atom_site_fract_y
_atom_site_fract_z
Co1 Co 0.65712(4) 0.59108(5) 0.66674(4)
O1 O 0.7976(2) 0.5198(3) 0.7263(2)
O2 O 0.7266(2) 0.7476(3) 0.6739(2)
N1 N 0.6174(3) 0.4184(3) 0.6776(2)
O3 O 0.6844(3) 0.5644(3) 0.5260(2)
H1 H 0.7228 0.5105 0.5146
H2 H 0.6573 0.6075 0.4793
C1 C 0.8027(3) 0.4118(4) 0.7366(3)
O4 O 0.3302(2) 0.2631(3) 0.6015(2)
C3 C 0.5095(3) 0.2563(4) 0.6688(3)
O5 O 0.8808(3) 0.3590(3) 0.7648(3)
O6 O 0.2181(2) 0.6158(3) 0.5188(3)
C5 C 0.5948(3) 0.1891(4) 0.6994(3)
H7 H 0.5872 0.1123 0.7072
N2 N 0.5303(3) 0.6956(3) 0.6041(2)
O7 O 0.3882(2) 0.1160(3) 0.6938(2)
O8 O 0.1777(2) 0.7960(3) 0.5002(3)
C6 C 0.6924(3) 0.2384(4) 0.7183(3)
H8 H 0.7511 0.1947 0.7373
O9 O 0.6961(3) 0.9295(3) 0.6496(4)
C7 C 0.3540(3) 0.7510(4) 0.5467(3)
C9 C 0.4851(4) 0.8891(4) 0.5833(4)
H11 H 0.5055 0.9638 0.5864
C10 C 0.4299(3) 0.6707(4) 0.5721(3)
H12 H 0.4108 0.5956 0.5669
C11 C 0.5239(3) 0.3699(4) 0.6573(3)
H13 H 0.4666 0.4146 0.6346
C12 C 0.6695(4) 0.8298(4) 0.6470(4)
C14 C 0.5568(3) 0.8056(4) 0.6090(3)
C15 C 0.7005(3) 0.3533(4) 0.7086(3)
C16 C 0.4012(3) 0.2081(4) 0.6529(3)
C17 C 0.2417(3) 0.7166(4) 0.5189(3)
C18 C 0.3829(4) 0.8616(4) 0.5529(3)
H17 H 0.3337 0.9176 0.5366
Co1A Co 0.34288(4) 0.09108(5) 0.83326(4)
O7A O 0.6118(2) 0.6160(3) 0.8062(2)
C2 C 0.1402(3) 0.3100(3) 0.1328(3)
H3 H 0.1519 0.3547 0.1927
H4 H 0.2065 0.2819 0.1225
C4 C 0.0061(3) 0.2173(3) -0.0327(3)
H5 H -0.0608 0.2450 -0.0236
H6 H -0.0042 0.1723 -0.0923
C8 C 0.0959(4) 0.3814(4) 0.0493(4)
H9 H 0.1439 0.4412 0.0419
H10 H 0.0326 0.4152 0.0618
C13 C 0.0502(4) 0.1466(4) 0.0523(4)
H14 H 0.1135 0.1124 0.0401
H15 H 0.0020 0.0870 0.0596
N3 N 0.0736(4) 0.3134(4) -0.0448(4)
H16 H 0.0968 0.3284 -0.0978
N4 N 0.0727(4) 0.2137(5) 0.1462(4)
H18 H 0.0499 0.1986 0.1995
O10 O 0.8665(3) 0.0470(3) 0.6450(3)
H19 H 0.9162 0.0256 0.6894
H20 H 0.8419 0.0031 0.5980
O11 O 1.0049(3) 0.0810(3) 0.8106(3)
H21 H 0.9969 0.0224 0.7750
H22 H 1.0514 0.0831 0.8622
loop_
_geom_bond_atom_site_label_1
_geom_bond_atom_site_label_2
_geom_bond_site_symmetry_1
_geom_bond_site_symmetry_2
Co1 O1 1_555 1_555
O1 C1 1_555 1_555
O2 Co1 1_555 1_555
N1 Co1 1_555 1_555
O3 Co1 1_555 1_555
H1 O3 1_555 1_555
H2 O3 1_555 1_555
C1 O5 1_555 1_555
O4 C16 1_555 1_555
C2 H3 1_555 1_555
H4 C2 1_555 1_555
C3 C5 1_555 1_555
O6 C17 1_555 1_555
C4 H5 1_555 1_555
H6 C4 1_555 1_555
C5 H7 1_555 1_555
N2 Co1 1_555 1_555
O7 C16 1_555 1_555
O8 C17 1_555 1_555
C6 C5 1_555 1_555
H8 C6 1_555 1_555
O9 C12 1_555 1_555
C7 C10 1_555 1_555
C8 C2 1_555 1_555
H9 C8 1_555 1_555
H10 C8 1_555 1_555
C9 H11 1_555 1_555
C10 N2 1_555 1_555
H12 C10 1_555 1_555
C11 N1 1_555 1_555
H13 C11 1_555 1_555
C12 O2 1_555 1_555
C13 C4 1_555 1_555
H14 C13 1_555 1_555
H15 C13 1_555 1_555
C14 N2 1_555 1_555
N3 C4 1_555 1_555
H16 N3 1_555 1_555
C15 N1 1_555 1_555
C16 C3 1_555 1_555
C17 C7 1_555 1_555
C18 C7 1_555 1_555
H17 C18 1_555 1_555
N4 C2 1_555 1_555
H18 N4 1_555 1_555
O10 H19 1_555 1_555
H20 O10 1_555 1_555
O11 H21 1_555 1_555
H22 O11 1_555 1_555
Co1A O7 1_555 1_555
O7A Co1 1_555 1_555
C1 C15 1_555 1_555
C3 C11 1_555 1_555
C6 C15 1_555 1_555
C8 N3 1_555 1_555
C9 C14 1_555 1_555
C9 C18 1_555 1_555
C12 C14 1_555 1_555
C13 N4 1_555 1_555

#END
