
#######################################################################
#
#                 Cambridge Crystallographic Data Centre
#                                CCDC 
#
#######################################################################
#
# If this CIF has been generated from an entry in the Cambridge 
# Structural Database, then it will include bibliographic, chemical, 
# crystal, experimental, refinement or atomic coordinate data resulting 
# from the CCDC's data processing and validation procedures.
#
#######################################################################

data_CAHNEF
_symmetry_cell_setting           monoclinic
_symmetry_space_group_name_H-M   'P 21/n'
_symmetry_Int_Tables_number      14
_space_group_name_Hall           '-P 2yn'
loop_
_symmetry_equiv_pos_site_id
_symmetry_equiv_pos_as_xyz
1 x,y,z
2 1/2-x,1/2+y,1/2-z
3 -x,-y,-z
4 1/2+x,1/2-y,1/2+z
_cell_length_a                   12.0158(3)
_cell_length_b                   10.1883(3)
_cell_length_c                   19.2059(5)
_cell_angle_alpha                90
_cell_angle_beta                 92.790(2)
_cell_angle_gamma                90
_cell_volume                     2348.41
loop_
_atom_site_label
_atom_site_type_symbol
_atom_site_fract_x
_atom_site_fract_y
_atom_site_fract_z
Ag1 Ag 0.75566(3) 1.42105(3) 0.397789(17)
Ag2 Ag 0.51240(3) 1.70387(3) 0.136320(18)
Ag3 Ag 0.26957(3) 1.57568(4) 0.409510(19)
S1 S 0.35221(9) 1.37816(11) 0.30162(5)
S2 S 0.49390(9) 1.53203(11) 0.40749(5)
S3 S 0.38618(9) 1.67203(10) 0.28311(5)
S4 S 0.60229(9) 1.34056(10) 0.31114(5)
S5 S 0.49147(8) 1.47752(10) 0.18671(5)
S6 S 0.63627(8) 1.63136(10) 0.29234(5)
C1 C 0.4650(4) 1.2705(5) 0.4109(2)
H1 H 0.5312 1.2673 0.4428
H2 H 0.4564 1.1864 0.3865
H3 H 0.3989 1.2873 0.4375
C2 C 0.4782(3) 1.3805(4) 0.3577(2)
C3 C 0.7127(3) 1.4483(5) 0.2067(2)
H4 H 0.7209 1.5186 0.1725
H5 H 0.7028 1.3643 0.1823
H6 H 0.7795 1.4444 0.2379
C4 C 0.6107(3) 1.4759(4) 0.2493(2)
C5 C 0.2714(3) 1.5170(5) 0.1922(2)
H7 H 0.2618 1.4325 0.1682
H8 H 0.2802 1.5867 0.1577
H9 H 0.2058 1.5352 0.2189
C6 C 0.3755(3) 1.5116(4) 0.2417(2)
C7 C 0.5263(4) 1.7857(4) 0.3785(2)
H10 H 0.5360 1.8565 0.3448
H11 H 0.5923 1.7806 0.4104
H12 H 0.4603 1.8034 0.4051
C8 C 0.5111(3) 1.6553(4) 0.3397(2)
P1 P 0.84898(10) 1.67419(12) 0.50433(6)
O1 O 0.7806(3) 1.5555(4) 0.49186(17)
O2 O 0.8489(3) 1.7420(3) 0.57162(16)
F1 F 0.9688(2) 1.6449(3) 0.48469(16)
F2 F 0.8175(3) 1.7725(3) 0.44554(15)
P2 P 0.99571(10) 1.53540(12) 0.31846(6)
O3 O 1.1108(3) 1.5592(4) 0.3398(2)
O4 O 0.9318(3) 1.4223(3) 0.34256(18)
F3 F 0.9861(3) 1.5351(3) 0.23747(14)
F4 F 0.9251(3) 1.6585(3) 0.33014(14)
P3 P 0.77559(10) 1.13809(12) 0.48973(6)
O5 O 0.7142(3) 1.2148(4) 0.5393(2)
O6 O 0.8178(3) 1.1976(3) 0.42669(17)
F5 F 0.7021(3) 1.0199(3) 0.46769(19)
F6 F 0.8707(3) 1.0628(4) 0.52736(18)
O2C O 0.3489(3) 1.7580(3) 0.07162(16)
O4A O 0.5682(3) 1.9223(3) 0.15744(18)
O6A O 0.6822(3) 1.6976(3) 0.07331(17)
O1B O 0.2194(3) 1.4445(4) 0.50814(17)
O3_2 O 0.1108(3) 1.5592(4) 0.3398(2)
O5B O 0.2858(3) 1.7852(4) 0.4607(2)
Ag3B Ag 0.73043(3) 1.42432(4) 0.590490(19)
Ag2C Ag 1.01240(3) 1.79613(3) 0.636320(18)
Ag3_2 Ag 1.26957(3) 1.57568(4) 0.409510(19)
Ag2A Ag 0.98760(3) 1.20387(3) 0.363680(18)
loop_
_geom_bond_atom_site_label_1
_geom_bond_atom_site_label_2
_geom_bond_site_symmetry_1
_geom_bond_site_symmetry_2
Ag1 S4 1_555 1_555
Ag2 S5 1_555 1_555
Ag3 S2 1_555 1_555
S1 C2 1_555 1_555
S2 C2 1_555 1_555
S3 C6 1_555 1_555
S4 C2 1_555 1_555
S5 C4 1_555 1_555
S6 C4 1_555 1_555
C1 H1 1_555 1_555
H2 C1 1_555 1_555
H3 C1 1_555 1_555
C2 C1 1_555 1_555
C3 H4 1_555 1_555
H5 C3 1_555 1_555
H6 C3 1_555 1_555
C4 S4 1_555 1_555
C5 H7 1_555 1_555
H8 C5 1_555 1_555
H9 C5 1_555 1_555
C6 S1 1_555 1_555
C7 H10 1_555 1_555
H11 C7 1_555 1_555
H12 C7 1_555 1_555
C8 S2 1_555 1_555
P1 O1 1_555 1_555
O1 Ag1 1_555 1_555
O2 P1 1_555 1_555
F1 P1 1_555 1_555
F2 P1 1_555 1_555
P2 O3 1_555 1_555
O3 Ag3_2 1_555 1_555
O4 Ag1 1_555 1_555
F3 P2 1_555 1_555
F4 P2 1_555 1_555
P3 O5 1_555 1_555
O5 Ag3B 1_555 1_555
O6 Ag1 1_555 1_555
F5 P3 1_555 1_555
F6 P3 1_555 1_555
O2C Ag2 1_555 1_555
O4A Ag2 1_555 1_555
O6A Ag2 1_555 1_555
O1B Ag3 1_555 1_555
O3_2 Ag3 1_555 1_555
O5B Ag3 1_555 1_555
Ag3B O1 1_555 1_555
Ag2C O2 1_555 1_555
Ag2A O4 1_555 1_555
S3 C8 1_555 1_555
S5 C6 1_555 1_555
S6 C8 1_555 1_555
C3 C4 1_555 1_555
C5 C6 1_555 1_555
C7 C8 1_555 1_555
P2 O4 1_555 1_555
P3 O6 1_555 1_555
O6 Ag2A 1_555 1_555

#END
