
#######################################################################
#
#                 Cambridge Crystallographic Data Centre
#                                CCDC 
#
#######################################################################
#
# If this CIF has been generated from an entry in the Cambridge 
# Structural Database, then it will include bibliographic, chemical, 
# crystal, experimental, refinement or atomic coordinate data resulting 
# from the CCDC's data processing and validation procedures.
#
#######################################################################

data_CAJCUL
_symmetry_cell_setting           monoclinic
_symmetry_space_group_name_H-M   'P 2/c'
_symmetry_Int_Tables_number      13
_space_group_name_Hall           '-P 2yc'
loop_
_symmetry_equiv_pos_site_id
_symmetry_equiv_pos_as_xyz
1 x,y,z
2 -x,y,1/2-z
3 -x,-y,-z
4 x,-y,1/2+z
_cell_length_a                   9.307(3)
_cell_length_b                   5.194(2)
_cell_length_c                   10.850(5)
_cell_angle_alpha                90
_cell_angle_beta                 99.74(1)
_cell_angle_gamma                90
_cell_volume                     516.935
loop_
_atom_site_label
_atom_site_type_symbol
_atom_site_fract_x
_atom_site_fract_y
_atom_site_fract_z
O1 O -0.50000 0.67090 0.25000
Zn1 Zn 0.00000 0.82263 0.25000
O2 O -0.10880 0.77820 0.41500
O3 O -0.16160 0.52180 0.25730
O4 O 0.14240 1.06650 0.35150
C1 C -0.18190 0.59300 0.36430
C2 C -0.28900 0.45510 0.43320
C3 C -0.40060 0.28850 0.34940
C4 C -0.50000 0.44160 0.25000
H1 H -0.34300 0.58200 0.48900
H2 H -0.22200 0.33200 0.50000
H3 H -0.47300 0.18600 0.40000
H4 H -0.34300 0.15200 0.30000
H5 H 0.12400 1.12300 0.43200
H6 H 0.17800 1.21800 0.31600
C3A C -0.59940 0.28850 0.15060
O2A O 0.10880 0.77820 0.08500
O3A O 0.16160 0.52180 0.24270
O4A O -0.14240 1.06650 0.14850
C2A C -0.71100 0.45510 0.06680
H3A H -0.52700 0.18600 0.10000
H4A H -0.65700 0.15200 0.20000
H5A H -0.12400 1.12300 0.06800
H6A H -0.17800 1.21800 0.18400
C1A C -0.81810 0.59300 0.13570
H1A H -0.65700 0.58200 0.01100
H2A H -0.77800 0.33200 0.00000
O2A_2 O -0.89120 0.77820 0.08500
O3A_2 O -0.83840 0.52180 0.24270
Zn1_2 Zn -1.00000 0.82263 0.25000
loop_
_geom_bond_atom_site_label_1
_geom_bond_atom_site_label_2
_geom_bond_site_symmetry_1
_geom_bond_site_symmetry_2
O1 C4 1_555 1_555
Zn1 O2 1_555 1_555
O2 C1 1_555 1_555
O3 Zn1 1_555 1_555
O4 Zn1 1_555 1_555
C1 O3 1_555 1_555
C2 C1 1_555 1_555
C3 C2 1_555 1_555
C4 C3 1_555 1_555
H1 C2 1_555 1_555
H2 C2 1_555 1_555
H3 C3 1_555 1_555
H4 C3 1_555 1_555
H5 O4 1_555 1_555
H6 O4 1_555 1_555
C3A C4 1_555 1_555
O2A Zn1 1_555 1_555
O3A Zn1 1_555 1_555
O4A Zn1 1_555 1_555
C2A C3A 1_555 1_555
H3A C3A 1_555 1_555
H4A C3A 1_555 1_555
H5A O4A 1_555 1_555
H6A O4A 1_555 1_555
C1A C2A 1_555 1_555
H1A C2A 1_555 1_555
H2A C2A 1_555 1_555
O2A_2 C1A 1_555 1_555
O3A_2 C1A 1_555 1_555
Zn1_2 O2A_2 1_555 1_555
O3A_2 Zn1_2 1_555 1_555

#END
