
#######################################################################
#
#                 Cambridge Crystallographic Data Centre
#                                CCDC 
#
#######################################################################
#
# If this CIF has been generated from an entry in the Cambridge 
# Structural Database, then it will include bibliographic, chemical, 
# crystal, experimental, refinement or atomic coordinate data resulting 
# from the CCDC's data processing and validation procedures.
#
#######################################################################

data_CAJJOO
_symmetry_cell_setting           triclinic
_symmetry_space_group_name_H-M   'P -1'
_symmetry_Int_Tables_number      2
_space_group_name_Hall           '-P 1'
loop_
_symmetry_equiv_pos_site_id
_symmetry_equiv_pos_as_xyz
1 x,y,z
2 -x,-y,-z
_cell_length_a                   11.731(5)
_cell_length_b                   12.755(5)
_cell_length_c                   13.466(5)
_cell_angle_alpha                96.358(5)
_cell_angle_beta                 111.362(5)
_cell_angle_gamma                106.794(5)
_cell_volume                     1742.93
loop_
_atom_site_label
_atom_site_type_symbol
_atom_site_fract_x
_atom_site_fract_y
_atom_site_fract_z
W1 W 0.82657(7) 0.57965(7) 0.20275(7)
W2 W 1.49949(8) 0.21995(7) -0.05328(7)
W3 W 0.74653(8) 0.44731(7) -0.07291(7)
W4 W 0.75333(8) 0.72771(6) -0.00829(7)
W5 W 1.58271(8) 0.64250(7) 0.27163(7)
W6 W 1.57004(8) 0.35903(7) 0.21723(7)
Ag1 Ag 1.4262(2) 0.22044(19) 0.41181(18)
Ag2 Ag 1.2326(2) 0.60739(15) 0.35931(18)
Ag3 Ag 1.5000 0.5000 0.5000
Ag4 Ag 1.27775(16) 0.02464(16) 0.49434(16)
P1 P 0.5000 0.5000 0.0000
N1 N 1.0013(19) -0.0961(16) 0.3287(16)
N2 N 0.8814(18) -0.0937(15) 0.2878(16)
H1 H 0.8143 -0.1471 0.2379
N3 N 1.2095(17) 0.4350(14) 0.3327(17)
N4 N 1.0816(15) 0.0025(15) 0.4019(14)
N5 N 1.4836(15) 0.0826(13) 0.5786(15)
N6 N 1.2818(19) 0.2917(16) 0.3376(15)
N7 N 1.3118(18) 0.4011(15) 0.3755(14)
N8 N 1.5467(17) 0.1692(15) 0.5482(15)
N9 N 1.6719(17) 0.2116(16) 0.6139(14)
C1 C 0.942(2) 0.129(2) 0.143(2)
H2 H 0.8816 0.0576 0.1019
C2 C 0.898(3) 0.220(3) 0.140(2)
H3 H 0.8115 0.2061 0.0946
C3 C 0.974(3) 0.324(2) 0.198(3)
H4 H 0.9413 0.3822 0.1961
C4 C 0.818(2) 0.157(2) 0.379(2)
H5 H 0.7559 0.1907 0.3710
C5 C 0.953(3) 0.2210(19) 0.453(2)
H6 H 0.9748 0.2938 0.4931
C6 C 0.7795(19) 0.0483(17) 0.321(2)
H7 H 0.6923 0.0068 0.2743
C7 C 1.108(2) 0.3418(18) 0.2640(19)
C8 C 1.5760(19) 0.0680(18) 0.6637(18)
C9 C 1.802(2) 0.0837(18) 0.839(2)
H8 H 1.8761 0.0865 0.8976
C10 C 1.070(3) 0.140(2) 0.2029(19)
H9 H 1.0990 0.0799 0.2031
C11 C 1.567(2) -0.0167(17) 0.7278(19)
H10 H 1.4880 -0.0746 0.7110
C12 C 0.878(2) 0.0032(18) 0.3346(18)
C13 C 1.676(2) -0.0064(18) 0.8110(18)
H11 H 1.6735 -0.0585 0.8540
C14 C 1.0101(19) 0.0691(16) 0.4066(15)
C15 C 1.811(2) 0.1611(18) 0.7809(19)
H12 H 1.8902 0.2193 0.8001
C16 C 1.044(2) 0.1774(19) 0.4650(18)
H13 H 1.1305 0.2192 0.5124
C17 C 1.698(2) 0.1530(15) 0.6898(18)
O2 O 0.833(2) 0.4971(13) 0.0834(13)
O3 O 0.531(3) 0.416(2) -0.071(2)
O4 O 0.584(2) 0.511(2) 0.119(2)
O5 O 0.531(2) 0.6097(19) -0.034(2)
O6 O 0.7390(19) 0.4487(15) 0.2328(19)
O7 O 1.5623(18) 0.4885(12) 0.2863(19)
O8 O 1.5672(18) 0.2568(16) 0.0996(14)
O9 O 1.6604(15) 0.3017(19) -0.0503(19)
O10 O 0.837(2) 0.6984(15) 0.1263(14)
O11 O 0.7485(16) 0.6564(11) 0.2767(17)
O12 O 1.3296(15) 0.1967(16) -0.0543(12)
O13 O 1.4202(17) 0.240(2) -0.1972(19)
O14 O 1.3858(15) 0.2989(16) 0.1468(14)
O15 O 0.777(2) 0.6027(16) -0.0717(13)
O16 O 0.646(2) 0.5517(18) 0.0224(19)
O17 O 0.9823(15) 0.6184(14) 0.2970(14)
O18 O 1.6018(15) 0.2964(16) 0.3227(13)
O19 O 0.8754(17) 0.8361(16) -0.0093(15)
O20 O 0.6039(15) 0.407(2) -0.2067(18)
O21 O 0.8561(18) 0.4202(15) -0.1102(15)
O22 O 1.4982(16) 0.0905(15) -0.0801(15)
O23 O 1.6218(16) 0.7081(12) 0.4011(12)
C18 C 1.1506(19) 0.2492(16) 0.2631(15)
O3A O 0.469(3) 0.584(2) 0.071(2)
O16A O 0.354(2) 0.4483(18) -0.0224(19)
O4A O 0.416(2) 0.489(2) -0.119(2)
O5A O 0.469(2) 0.3903(19) 0.034(2)
N3A N 1.7905(17) 0.5650(14) 0.6673(17)
N6A N 1.7182(19) 0.7083(16) 0.6624(15)
N7A N 1.6882(18) 0.5989(15) 0.6245(14)
C1A C 2.058(2) 0.871(2) 0.857(2)
H2A H 2.1184 0.9424 0.8981
C2A C 2.102(3) 0.780(3) 0.860(2)
H3A H 2.1885 0.7939 0.9054
C3A C 2.026(3) 0.676(2) 0.802(3)
H4A H 2.0587 0.6178 0.8039
C7A C 1.892(2) 0.6582(18) 0.7360(19)
C10A C 1.930(3) 0.860(2) 0.7971(19)
H9A H 1.9010 0.9201 0.7969
C18A C 1.8494(19) 0.7508(16) 0.7369(15)
Ag1A Ag 1.5738(2) 0.77956(19) 0.58819(18)
Ag2A Ag 1.7674(2) 0.39261(15) 0.64069(18)
N5A N 1.5164(15) 0.9174(13) 0.4214(15)
N8A N 1.4533(17) 0.8308(15) 0.4518(15)
N9A N 1.3281(17) 0.7884(16) 0.3861(14)
C8A C 1.4240(19) 0.9320(18) 0.3363(18)
C9A C 1.198(2) 0.9163(18) 0.161(2)
H8A H 1.1239 0.9135 0.1024
C11A C 1.433(2) 1.0167(17) 0.2722(19)
H10A H 1.5120 1.0746 0.2890
C13A C 1.324(2) 1.0064(18) 0.1890(18)
H11A H 1.3265 1.0585 0.1460
C15A C 1.189(2) 0.8389(18) 0.2191(19)
H12A H 1.1098 0.7807 0.1999
C17A C 1.302(2) 0.8470(15) 0.3102(18)
O18A O 1.3982(15) 0.7036(16) 0.6773(13)
O17A O 2.0177(15) 0.3816(14) 0.7030(14)
W1A W 2.17343(7) 0.42035(7) 0.79725(7)
W6A W 1.42996(8) 0.64097(7) 0.78277(7)
Ag4A Ag 1.72225(16) 0.97536(16) 0.50566(16)
O6_2 O 1.7390(19) 0.4487(15) 0.2328(19)
O2A O 2.167(2) 0.5029(13) 0.9166(13)
O10A O 2.163(2) 0.3016(15) 0.8737(14)
O11A O 2.2515(16) 0.3436(11) 0.7233(17)
O7A O 1.4377(18) 0.5115(12) 0.7137(19)
O8A O 1.4328(18) 0.7432(16) 0.9004(14)
O14A O 1.6142(15) 0.7011(16) 0.8532(14)
N1A N 1.9987(19) 1.0961(16) 0.6713(16)
N2A N 2.1186(18) 1.0937(15) 0.7122(16)
H1A H 2.1857 1.1471 0.7621
N4A N 1.9184(15) 0.9975(15) 0.5981(14)
C4A C 2.182(2) 0.843(2) 0.621(2)
H5A H 2.2441 0.8093 0.6290
C5A C 2.047(3) 0.7790(19) 0.547(2)
H6A H 2.0252 0.7062 0.5069
C6A C 2.2205(19) 0.9517(17) 0.679(2)
H7A H 2.3077 0.9932 0.7257
C12A C 2.122(2) 0.9968(18) 0.6654(18)
C14A C 1.9899(19) 0.9309(16) 0.5934(15)
C16A C 1.956(2) 0.8226(19) 0.5350(18)
H13A H 1.8695 0.7808 0.4876
W2A W 1.50051(8) 0.78005(7) 1.05328(7)
W3A W 2.25347(8) 0.55269(7) 1.07291(7)
W4A W 2.24667(8) 0.27229(6) 1.00829(7)
W5A W 1.41729(8) 0.35750(7) 0.72837(7)
O9_2 O 0.6604(15) 0.3017(19) -0.0503(19)
O12A O 0.6704(15) 0.8033(16) 0.0543(12)
O13A O 1.5798(17) 0.760(2) 0.1972(19)
O20A O 1.3961(15) 0.593(2) 0.2067(18)
O22A O 1.5018(16) 0.9095(15) 1.0801(15)
O15A O 2.223(2) 0.3973(16) 1.0717(13)
O21A O 2.1439(18) 0.5798(15) 1.1102(15)
O19A O 2.1246(17) 0.1639(16) 1.0093(15)
O23A O 1.3782(16) 0.2919(12) 0.5989(12)
O14A_2 O 0.6142(15) 0.7011(16) -0.1468(14)
O11_2 O 1.7485(16) 0.6564(11) 0.2767(17)
W6_2 W 0.57004(8) 0.35903(7) 0.21723(7)
W3_2 W 1.74653(8) 0.44731(7) -0.07291(7)
W5_2 W 0.58271(8) 0.64250(7) 0.27163(7)
W4A_2 W 1.24667(8) 0.27229(6) 0.00829(7)
W5A_2 W 1.41729(8) 0.35750(7) -0.27163(7)
W5A_3 W 0.41729(8) 0.35750(7) -0.27163(7)
W4A_3 W 0.24667(8) 0.27229(6) 0.00829(7)
O6A O 2.2610(19) 0.5513(15) 0.7672(19)
O6A_2 O 1.2610(19) 0.5513(15) 0.7672(19)
W1_2 W 1.82657(7) 0.57965(7) 0.20275(7)
W5A_4 W 2.41729(8) 0.35750(7) 0.72837(7)
W4_2 W 1.75333(8) 0.72771(6) 0.99171(7)
O9A O 1.3396(15) 0.6983(19) 1.0503(19)
O12A_2 O 1.6704(15) 0.8033(16) 1.0543(12)
O13A_2 O 1.5798(17) 0.760(2) 1.1972(19)
O20A_2 O 2.3961(15) 0.593(2) 1.2067(18)
O9A_2 O 2.3396(15) 0.6983(19) 1.0503(19)
O16A_2 O 2.354(2) 0.4483(18) 0.9776(19)
O12_2 O 2.3296(15) 0.1967(16) 0.9457(12)
O14_2 O 2.3858(15) 0.2989(16) 1.1468(14)
O11A_2 O 1.2515(16) 0.3436(11) 0.7233(17)
O13_2 O 1.4202(17) 0.240(2) 0.8028(19)
O20_2 O 1.6039(15) 0.407(2) 0.7933(18)
W2_2 W 0.49949(8) 0.21995(7) -0.05328(7)
W2A_2 W 0.50051(8) 0.78005(7) 0.05328(7)
W2A_3 W 1.50051(8) 0.78005(7) 0.05328(7)
W3A_2 W 1.25347(8) 0.55269(7) 0.07291(7)
W6A_2 W 0.42996(8) 0.64097(7) -0.21723(7)
W6A_3 W 2.42996(8) 0.64097(7) 0.78277(7)
W1A_2 W 1.17343(7) 0.42035(7) 0.79725(7)
W3A_3 W 1.25347(8) 0.55269(7) 1.07291(7)
W5_3 W 1.58271(8) 0.64250(7) 1.27163(7)
W5_4 W 2.58271(8) 0.64250(7) 1.27163(7)
W2A_4 W 2.50051(8) 0.78005(7) 1.05328(7)
O3A_2 O 2.469(3) 0.584(2) 1.071(2)
P1A P 2.5000 0.5000 1.0000
O4A_2 O 2.416(2) 0.489(2) 0.881(2)
O5A_2 O 2.469(2) 0.3903(19) 1.034(2)
W2_3 W 2.49949(8) 0.21995(7) 0.94672(7)
W6_3 W 2.57004(8) 0.35903(7) 1.21723(7)
W2_4 W 1.49949(8) 0.21995(7) 0.94672(7)
W3_3 W 1.74653(8) 0.44731(7) 0.92709(7)
O4_2 O 2.584(2) 0.511(2) 1.119(2)
O5_2 O 2.531(2) 0.6097(19) 0.966(2)
O3_2 O 2.531(3) 0.416(2) 0.929(2)
O16_2 O 2.646(2) 0.5517(18) 1.0224(19)
W4_3 W 2.75333(8) 0.72771(6) 0.99171(7)
O1 O 1.100(16) 0.533(15) -0.496(16)
loop_
_geom_bond_atom_site_label_1
_geom_bond_atom_site_label_2
_geom_bond_site_symmetry_1
_geom_bond_site_symmetry_2
W1 O2 1_555 1_555
W2 O8 1_555 1_555
W3 O2 1_555 1_555
W4 O10 1_555 1_555
W5 O7 1_555 1_555
W6 O7 1_555 1_555
Ag1 Ag3 1_555 1_555
Ag2 Ag3 1_555 1_555
Ag3 N7 1_555 1_555
Ag4 Ag1 1_555 1_555
P1 O3 1_555 1_555
N1 N2 1_555 1_555
N2 H1 1_555 1_555
N3 Ag2 1_555 1_555
N4 Ag4 1_555 1_555
N5 Ag4 1_555 1_555
N6 Ag1 1_555 1_555
N7 N3 1_555 1_555
N8 Ag1 1_555 1_555
N9 N8 1_555 1_555
C1 H2 1_555 1_555
C2 C1 1_555 1_555
H3 C2 1_555 1_555
C3 C2 1_555 1_555
H4 C3 1_555 1_555
C4 H5 1_555 1_555
C5 C4 1_555 1_555
H6 C5 1_555 1_555
C6 C4 1_555 1_555
H7 C6 1_555 1_555
C7 N3 1_555 1_555
C8 N5 1_555 1_555
C9 H8 1_555 1_555
C10 C1 1_555 1_555
H9 C10 1_555 1_555
C11 C8 1_555 1_555
H10 C11 1_555 1_555
C12 N2 1_555 1_555
C13 C9 1_555 1_555
H11 C13 1_555 1_555
C14 N4 1_555 1_555
C15 C9 1_555 1_555
H12 C15 1_555 1_555
C16 C5 1_555 1_555
H13 C16 1_555 1_555
C17 N9 1_555 1_555
O3 O16 1_555 1_555
O4 P1 1_555 1_555
O5 P1 1_555 1_555
O6 W1 1_555 1_555
O8 W6 1_555 1_555
O9 W2 1_555 1_555
O10 W1 1_555 1_555
O11 W1 1_555 1_555
O12 W2 1_555 1_555
O13 W2 1_555 1_555
O14 W6 1_555 1_555
O15 W3 1_555 1_555
O16 W4 1_555 1_555
O17 W1 1_555 1_555
O18 W6 1_555 1_555
O19 W4 1_555 1_555
O20 W3 1_555 1_555
O21 W3 1_555 1_555
O22 W2 1_555 1_555
O23 W5 1_555 1_555
C18 N6 1_555 1_555
O3A P1 1_555 1_555
O16A P1 1_555 1_555
O4A P1 1_555 1_555
O5A P1 1_555 1_555
N3A N7A 1_555 1_555
N6A N7A 1_555 1_555
N7A Ag3 1_555 1_555
C1A H2A 1_555 1_555
C2A C1A 1_555 1_555
H3A C2A 1_555 1_555
C3A C2A 1_555 1_555
H4A C3A 1_555 1_555
C7A N3A 1_555 1_555
C10A C1A 1_555 1_555
H9A C10A 1_555 1_555
C18A N6A 1_555 1_555
Ag1A Ag3 1_555 1_555
Ag2A Ag3 1_555 1_555
N5A N8A 1_555 1_555
N8A Ag1A 1_555 1_555
N9A Ag2 1_555 1_555
C8A N5A 1_555 1_555
C9A H8A 1_555 1_555
C11A C8A 1_555 1_555
H10A C11A 1_555 1_555
C13A C9A 1_555 1_555
H11A C13A 1_555 1_555
C15A C9A 1_555 1_555
H12A C15A 1_555 1_555
C17A N9A 1_555 1_555
O18A Ag1A 1_555 1_555
O17A Ag2A 1_555 1_555
W1A O17A 1_555 1_555
W6A O18A 1_555 1_555
Ag4A Ag1A 1_555 1_555
O6_2 W6 1_555 1_555
O2A W1A 1_555 1_555
O10A W1A 1_555 1_555
O11A W1A 1_555 1_555
O7A W6A 1_555 1_555
O8A W6A 1_555 1_555
O14A W6A 1_555 1_555
N1A N2A 1_555 1_555
N2A H1A 1_555 1_555
N4A Ag4A 1_555 1_555
C4A H5A 1_555 1_555
C5A C4A 1_555 1_555
H6A C5A 1_555 1_555
C6A C4A 1_555 1_555
H7A C6A 1_555 1_555
C12A N2A 1_555 1_555
C14A N4A 1_555 1_555
C16A C5A 1_555 1_555
H13A C16A 1_555 1_555
W2A O8A 1_555 1_555
W3A O2A 1_555 1_555
W4A O10A 1_555 1_555
W5A O7A 1_555 1_555
O9_2 W3 1_555 1_555
O12A W4 1_555 1_555
O13A W5 1_555 1_555
O20A W5 1_555 1_555
O22A W2A 1_555 1_555
O15A W3A 1_555 1_555
O21A W3A 1_555 1_555
O19A W4A 1_555 1_555
O23A W5A 1_555 1_555
O14A_2 W4 1_555 1_555
O11_2 W5 1_555 1_555
W6_2 O6 1_555 1_555
W3_2 O9 1_555 1_555
W5_2 O11 1_555 1_555
W4A_2 O12 1_555 1_555
W5A_2 O13 1_555 1_555
W5A_3 O20 1_555 1_555
W4A_3 O16A 1_555 1_555
O6A W1A 1_555 1_555
O6A_2 W6A 1_555 1_555
W1_2 O6_2 1_555 1_555
W5A_4 O11A 1_555 1_555
W4_2 O14A 1_555 1_555
O9A W2A 1_555 1_555
O12A_2 W2A 1_555 1_555
O13A_2 W2A 1_555 1_555
O20A_2 W3A 1_555 1_555
O9A_2 W3A 1_555 1_555
O16A_2 W4A 1_555 1_555
O12_2 W4A 1_555 1_555
O14_2 W4A 1_555 1_555
O11A_2 W5A 1_555 1_555
O13_2 W5A 1_555 1_555
O20_2 W5A 1_555 1_555
W2_2 O9_2 1_555 1_555
W2A_2 O12A 1_555 1_555
W2A_3 O13A 1_555 1_555
W3A_2 O20A 1_555 1_555
W6A_2 O14A_2 1_555 1_555
W6A_3 O6A 1_555 1_555
W1A_2 O6A_2 1_555 1_555
W3A_3 O9A 1_555 1_555
W5_3 O13A_2 1_555 1_555
W5_4 O20A_2 1_555 1_555
W2A_4 O9A_2 1_555 1_555
O3A_2 O16A_2 1_555 1_555
P1A O16A_2 1_555 1_555
O4A_2 O16A_2 1_555 1_555
O5A_2 O16A_2 1_555 1_555
W2_3 O12_2 1_555 1_555
W6_3 O14_2 1_555 1_555
W2_4 O13_2 1_555 1_555
W3_3 O20_2 1_555 1_555
O4_2 O3A_2 1_555 1_555
O5_2 O3A_2 1_555 1_555
O3_2 P1A 1_555 1_555
O16_2 P1A 1_555 1_555
W4_3 O16_2 1_555 1_555
W4 O15 1_555 1_555
Ag1 O18 1_555 1_555
Ag2 O17 1_555 1_555
P1 O16 1_555 1_555
N1 N4 1_555 1_555
N5 N8 1_555 1_555
N6 N7 1_555 1_555
N9 Ag2A 1_555 1_555
C3 C7 1_555 1_555
C6 C12 1_555 1_555
C7 C18 1_555 1_555
C8 C17 1_555 1_555
C10 C18 1_555 1_555
C11 C13 1_555 1_555
C12 C14 1_555 1_555
C14 C16 1_555 1_555
C15 C17 1_555 1_555
O3 O4A 1_555 1_555
O3 O5A 1_555 1_555
O4 O16 1_555 1_555
O4 O3A 1_555 1_555
O4 O5A 1_555 1_555
O5 O16 1_555 1_555
O5 O3A 1_555 1_555
O5 O4A 1_555 1_555
O14 W4A_2 1_555 1_555
O3A O16A 1_555 1_555
O16A O4A 1_555 1_555
O16A O5A 1_555 1_555
N3A Ag2A 1_555 1_555
N6A Ag1A 1_555 1_555
C3A C7A 1_555 1_555
C7A C18A 1_555 1_555
C10A C18A 1_555 1_555
N5A Ag4A 1_555 1_555
N8A N9A 1_555 1_555
C8A C17A 1_555 1_555
C11A C13A 1_555 1_555
C15A C17A 1_555 1_555
N1A N4A 1_555 1_555
C6A C12A 1_555 1_555
C12A C14A 1_555 1_555
C14A C16A 1_555 1_555
W4A O15A 1_555 1_555
O11_2 W1_2 1_555 1_555
W4_2 O12A_2 1_555 1_555
O11A_2 W1A_2 1_555 1_555
O3A_2 P1A 1_555 1_555
P1A O4A_2 1_555 1_555
P1A O5A_2 1_555 1_555
P1A O4_2 1_555 1_555
P1A O5_2 1_555 1_555
O4A_2 O5_2 1_555 1_555
O4A_2 O3_2 1_555 1_555
O5A_2 O4_2 1_555 1_555
O5A_2 O3_2 1_555 1_555
O4_2 O16_2 1_555 1_555
O5_2 O16_2 1_555 1_555
O3_2 O16_2 1_555 1_555

#END
