
#######################################################################
#
#                 Cambridge Crystallographic Data Centre
#                                CCDC 
#
#######################################################################
#
# If this CIF has been generated from an entry in the Cambridge 
# Structural Database, then it will include bibliographic, chemical, 
# crystal, experimental, refinement or atomic coordinate data resulting 
# from the CCDC's data processing and validation procedures.
#
#######################################################################

data_CAJMIL01
_symmetry_cell_setting           monoclinic
_symmetry_space_group_name_H-M   'C 2/c'
_symmetry_Int_Tables_number      15
_space_group_name_Hall           '-C 2yn'
loop_
_symmetry_equiv_pos_site_id
_symmetry_equiv_pos_as_xyz
1 x,y,z
2 -x,y,1/2-z
3 1/2+x,1/2+y,z
4 1/2-x,1/2+y,1/2-z
5 -x,-y,-z
6 x,-y,1/2+z
7 1/2-x,1/2-y,-z
8 1/2+x,1/2-y,1/2+z
_cell_length_a                   19.669(3)
_cell_length_b                   16.081(2)
_cell_length_c                   14.875(2)
_cell_angle_alpha                90
_cell_angle_beta                 111.510(3)
_cell_angle_gamma                90
_cell_volume                     4377.24
loop_
_atom_site_label
_atom_site_type_symbol
_atom_site_fract_x
_atom_site_fract_y
_atom_site_fract_z
Co1 Co 0.333469(17) 0.16786(2) 0.28839(3)
Br1 Br 0.604068(14) 0.526792(19) 0.43265(2)
C1 C 0.37923(14) 0.31551(15) 0.30822(18)
C2 C 0.40583(13) 0.40377(14) 0.32184(17)
C3 C 0.47999(13) 0.42085(15) 0.36204(18)
H1 H 0.5141 0.3779 0.3793
C4 C 0.50232(13) 0.50292(16) 0.37604(18)
C5 C 0.45342(13) 0.56785(15) 0.35105(18)
H2 H 0.4700 0.6225 0.3611
C6 C 0.37882(13) 0.55094(15) 0.31057(17)
C7 C 0.35593(13) 0.46879(15) 0.29662(17)
H3 H 0.3062 0.4570 0.2699
C8 C 0.32479(14) 0.62194(16) 0.28316(18)
C9 C 0.29932(15) 0.10798(18) 0.4648(2)
H4 H 0.2832 0.0621 0.4246
C10 C 0.28813(16) 0.1088(2) 0.5503(2)
H5 H 0.2652 0.0642 0.5673
C11 C 0.31125(16) 0.1768(2) 0.6115(2)
H6 H 0.3025 0.1800 0.6687
C12 C 0.34735(17) 0.23888(19) 0.5845(2)
H7 H 0.3656 0.2844 0.6247
C13 C 0.35634(15) 0.23318(18) 0.4975(2)
H8 H 0.3808 0.2762 0.4803
C14 C 0.27651(15) 0.13187(18) 0.0671(2)
H9 H 0.2428 0.1004 0.0829
C15 C 0.26755(16) 0.1386(2) -0.0286(2)
H10 H 0.2289 0.1117 -0.0757
C16 C 0.31566(17) 0.18498(19) -0.0543(2)
H11 H 0.3098 0.1918 -0.1188
C17 C 0.37345(17) 0.22147(19) 0.0188(2)
H12 H 0.4081 0.2524 0.0043
C18 C 0.37914(15) 0.21149(18) 0.1133(2)
H13 H 0.4184 0.2362 0.1617
C19 C 0.38288(16) -0.01648(17) 0.3091(2)
H14 H 0.3330 -0.0268 0.2800
C20 C 0.42952(18) -0.08359(18) 0.3328(2)
H15 H 0.4117 -0.1376 0.3204
C21 C 0.50298(18) -0.0686(2) 0.3751(2)
H16 H 0.5362 -0.1124 0.3920
C22 C 0.52655(17) 0.0112(2) 0.3919(3)
H17 H 0.5762 0.0228 0.4201
C23 C 0.47626(15) 0.07474(19) 0.3668(2)
H18 H 0.4931 0.1291 0.3796
N1 N 0.33222(11) 0.16981(13) 0.43597(16)
N2 N 0.40478(11) 0.06209(13) 0.32516(16)
N3 N 0.33116(11) 0.16820(13) 0.13912(16)
O1 O 0.42523(10) 0.25671(10) 0.33221(14)
O2 O 0.31183(9) 0.30068(11) 0.27398(13)
O3 O 0.25775(9) 0.59942(11) 0.25292(13)
O4 O 0.34747(10) 0.69397(12) 0.29252(16)
Co1C Co 0.166531(17) 0.66786(2) 0.21161(3)
O3C O 0.24225(9) 0.09942(11) 0.24708(13)
loop_
_geom_bond_atom_site_label_1
_geom_bond_atom_site_label_2
_geom_bond_site_symmetry_1
_geom_bond_site_symmetry_2
Co1 N1 1_555 1_555
Br1 C4 1_555 1_555
C1 C2 1_555 1_555
C2 C3 1_555 1_555
C3 H1 1_555 1_555
C4 C3 1_555 1_555
C5 C4 1_555 1_555
H2 C5 1_555 1_555
C6 C5 1_555 1_555
C7 C2 1_555 1_555
H3 C7 1_555 1_555
C8 C6 1_555 1_555
C9 H4 1_555 1_555
C10 C9 1_555 1_555
H5 C10 1_555 1_555
C11 C10 1_555 1_555
H6 C11 1_555 1_555
C12 C11 1_555 1_555
H7 C12 1_555 1_555
C13 C12 1_555 1_555
H8 C13 1_555 1_555
C14 H9 1_555 1_555
C15 C14 1_555 1_555
H10 C15 1_555 1_555
C16 C15 1_555 1_555
H11 C16 1_555 1_555
C17 C16 1_555 1_555
H12 C17 1_555 1_555
C18 C17 1_555 1_555
H13 C18 1_555 1_555
C19 H14 1_555 1_555
C20 C19 1_555 1_555
H15 C20 1_555 1_555
C21 C20 1_555 1_555
H16 C21 1_555 1_555
C22 C21 1_555 1_555
H17 C22 1_555 1_555
C23 C22 1_555 1_555
H18 C23 1_555 1_555
N1 C9 1_555 1_555
N2 Co1 1_555 1_555
N3 Co1 1_555 1_555
O1 Co1 1_555 1_555
O2 Co1 1_555 1_555
O3 C8 1_555 1_555
O4 C8 1_555 1_555
Co1C O3 1_555 1_555
O3C Co1 1_555 1_555
C1 O1 1_555 1_555
C1 O2 1_555 1_555
C6 C7 1_555 1_555
C13 N1 1_555 1_555
C14 N3 1_555 1_555
C18 N3 1_555 1_555
C19 N2 1_555 1_555
C23 N2 1_555 1_555

#END
