
#######################################################################
#
#                 Cambridge Crystallographic Data Centre
#                                CCDC 
#
#######################################################################
#
# If this CIF has been generated from an entry in the Cambridge 
# Structural Database, then it will include bibliographic, chemical, 
# crystal, experimental, refinement or atomic coordinate data resulting 
# from the CCDC's data processing and validation procedures.
#
#######################################################################

data_CAJMUX01
_symmetry_cell_setting           orthorhombic
_symmetry_space_group_name_H-M   'P 21 21 21'
_symmetry_Int_Tables_number      19
_space_group_name_Hall           'P 2ac 2ab'
loop_
_symmetry_equiv_pos_site_id
_symmetry_equiv_pos_as_xyz
1 x,y,z
2 1/2-x,-y,1/2+z
3 -x,1/2+y,1/2-z
4 1/2+x,1/2-y,-z
_cell_length_a                   8.3786(6)
_cell_length_b                   12.9562(9)
_cell_length_c                   17.6231(12)
_cell_angle_alpha                90
_cell_angle_beta                 90
_cell_angle_gamma                90
_cell_volume                     1913.07
loop_
_atom_site_label
_atom_site_type_symbol
_atom_site_fract_x
_atom_site_fract_y
_atom_site_fract_z
Zn1 Zn 0.75434(4) 0.83148(2) 0.672420(17)
Br1 Br 0.97790(6) 0.78755(4) 1.11401(2)
C1 C 0.8654(3) 0.8047(2) 0.81726(16)
C2 C 0.9363(3) 0.7455(2) 0.88304(16)
C3 C 0.9293(3) 0.7877(2) 0.95515(16)
H1 H 0.8845 0.8524 0.9632
C4 C 1.0599(4) 0.6359(2) 1.00506(17)
H2 H 1.0989 0.5991 1.0464
C5 C 1.0703(3) 0.5956(2) 0.93182(16)
C6 C 1.0060(3) 0.6501(2) 0.87155(15)
H3 H 1.0097 0.6223 0.8229
C7 C 1.1544(4) 0.4951(2) 0.91829(17)
C8 C 0.4959(5) 0.9656(3) 0.7193(2)
H4 H 0.5786 1.0135 0.7208
C9 C 0.3437(5) 0.9958(3) 0.7402(2)
H5 H 0.3248 1.0636 0.7550
C10 C 0.2207(4) 0.9259(3) 0.7394(2)
H6 H 0.1179 0.9452 0.7533
C11 C 0.2534(5) 0.8273(3) 0.71749(19)
H7 H 0.1730 0.7778 0.7171
C12 C 0.4057(4) 0.8013(3) 0.69604(18)
H8 H 0.4260 0.7341 0.6803
C13 C 0.6688(4) 0.7163(3) 0.53193(19)
H9 H 0.5988 0.7711 0.5245
C14 C 0.6742(6) 0.6390(4) 0.4790(2)
H10 H 0.6077 0.6410 0.4368
C15 C 0.7781(6) 0.5592(4) 0.4887(3)
H11 H 0.7837 0.5062 0.4532
C16 C 0.8733(6) 0.5581(4) 0.5511(3)
H12 H 0.9454 0.5046 0.5589
C17 C 0.8614(4) 0.6376(3) 0.6027(2)
H13 H 0.9266 0.6365 0.6454
C18 C 0.9907(4) 0.7310(2) 1.01469(15)
N1 N 0.5264(3) 0.86924(19) 0.69688(13)
N2 N 0.7607(3) 0.71561(19) 0.59388(12)
O1 O 0.8566(3) 0.75500(16) 0.75459(11)
O2 O 0.8220(3) 0.89444(17) 0.82576(14)
O3 O 1.1306(3) 0.45516(16) 0.85314(11)
O4 O 1.2384(3) 0.45611(17) 0.96764(12)
Zn1B Zn 1.24566(4) 0.33148(2) 0.827580(17)
O3B O 0.8694(3) 0.95516(16) 0.64686(11)
O5 O 0.2276(4) 0.4085(2) 0.12688(17)
H14 H 0.2560 0.4732 0.1416
H15 H 0.1147 0.4027 0.1168
loop_
_geom_bond_atom_site_label_1
_geom_bond_atom_site_label_2
_geom_bond_site_symmetry_1
_geom_bond_site_symmetry_2
Zn1 N1 1_555 1_555
Br1 C18 1_555 1_555
C1 C2 1_555 1_555
C2 C3 1_555 1_555
C3 H1 1_555 1_555
C4 H2 1_555 1_555
C5 C4 1_555 1_555
C6 C2 1_555 1_555
H3 C6 1_555 1_555
C7 C5 1_555 1_555
C8 H4 1_555 1_555
C9 C8 1_555 1_555
H5 C9 1_555 1_555
C10 C9 1_555 1_555
H6 C10 1_555 1_555
C11 C10 1_555 1_555
H7 C11 1_555 1_555
C12 C11 1_555 1_555
H8 C12 1_555 1_555
C13 H9 1_555 1_555
C14 C13 1_555 1_555
H10 C14 1_555 1_555
C15 C14 1_555 1_555
H11 C15 1_555 1_555
C16 C15 1_555 1_555
H12 C16 1_555 1_555
C17 C16 1_555 1_555
H13 C17 1_555 1_555
C18 C3 1_555 1_555
N1 C8 1_555 1_555
N2 Zn1 1_555 1_555
O1 Zn1 1_555 1_555
O2 C1 1_555 1_555
O3 C7 1_555 1_555
O4 C7 1_555 1_555
O5 H14 1_555 1_555
H15 O5 1_555 1_555
Zn1B O3 1_555 1_555
O3B Zn1 1_555 1_555
C1 O1 1_555 1_555
C4 C18 1_555 1_555
C5 C6 1_555 1_555
C12 N1 1_555 1_555
C13 N2 1_555 1_555
C17 N2 1_555 1_555

#END
