
#######################################################################
#
#                 Cambridge Crystallographic Data Centre
#                                CCDC 
#
#######################################################################
#
# If this CIF has been generated from an entry in the Cambridge 
# Structural Database, then it will include bibliographic, chemical, 
# crystal, experimental, refinement or atomic coordinate data resulting 
# from the CCDC's data processing and validation procedures.
#
#######################################################################

data_CAJMUX
_symmetry_cell_setting           orthorhombic
_symmetry_space_group_name_H-M   'P 21 21 21'
_symmetry_Int_Tables_number      19
_space_group_name_Hall           'P 2ac 2ab'
loop_
_symmetry_equiv_pos_site_id
_symmetry_equiv_pos_as_xyz
1 x,y,z
2 1/2-x,-y,1/2+z
3 -x,1/2+y,1/2-z
4 1/2+x,1/2-y,-z
_cell_length_a                   8.3666(13)
_cell_length_b                   12.949(2)
_cell_length_c                   17.602(3)
_cell_angle_alpha                90
_cell_angle_beta                 90
_cell_angle_gamma                90
_cell_volume                     1906.98
loop_
_atom_site_label
_atom_site_type_symbol
_atom_site_fract_x
_atom_site_fract_y
_atom_site_fract_z
C1 C 0.5061(4) 0.6499(2) 0.87211(18)
H1 H 0.5105 0.6218 0.8235
O1 O 0.3562(3) 0.75479(17) 0.75425(12)
C2 C 0.3651(4) 0.8043(3) 0.8173(2)
Br1 Br 0.47758(7) 0.78701(4) 1.11386(2)
C3 C 1.0039(5) 0.4649(3) 0.7812(2)
H2 H 0.9207 0.5125 0.7793
C4 C 0.6390(5) 0.1380(3) 0.8972(3)
H3 H 0.5742 0.1362 0.8543
C5 C 1.1558(6) 0.4960(4) 0.7607(3)
H4 H 1.1746 0.5640 0.7463
C6 C 0.6531(5) 0.4946(3) 0.9183(2)
C7 C 1.2776(5) 0.4266(4) 0.7615(3)
H5 H 1.3805 0.4462 0.7478
C8 C 0.4908(5) 0.7306(3) 1.01482(18)
C9 C 1.2455(6) 0.3269(3) 0.7830(2)
H6 H 1.3264 0.2777 0.7833
C10 C 0.5587(4) 0.6358(3) 1.0045(2)
H7 H 0.5972 0.5986 1.0459
C11 C 1.0937(5) 0.3006(3) 0.8038(2)
H8 H 1.0728 0.2329 0.8186
C12 C 0.4306(4) 0.7868(3) 0.95495(19)
H9 H 0.3869 0.8519 0.9632
C13 C 0.8288(5) 0.2156(3) 0.9677(2)
H10 H 0.8987 0.2705 0.9755
C14 C 0.8246(6) 0.1388(4) 1.0206(3)
H11 H 0.8911 0.1413 1.0629
C15 C 0.5695(4) 0.5956(3) 0.9316(2)
C16 C 0.7226(7) 0.0589(4) 1.0108(3)
H12 H 0.7184 0.0051 1.0458
C17 C 0.6271(7) 0.0590(4) 0.9493(3)
H13 H 0.5536 0.0061 0.9420
N1 N 0.7391(4) 0.2164(2) 0.90584(15)
N2 N 0.9737(4) 0.3697(2) 0.80347(15)
O2 O 0.3221(3) 0.89437(18) 0.82590(16)
O3 O 0.7376(4) 0.45585(18) 0.96767(15)
O4 O 0.6300(3) 0.45536(17) 0.85275(13)
Zn1 Zn 0.74537(5) 0.33134(3) 0.82772(2)
C18 C 0.4356(4) 0.7457(2) 0.88228(19)
O1B O 0.6438(3) 0.25479(17) 0.74575(12)
Zn1B Zn 0.25463(5) 0.83134(3) 0.67228(2)
O5 O 0.2207(4) 0.0910(2) 0.87215(18)
H14 H 0.2969 0.0797 0.8413
H15 H 0.2231 0.0435 0.9054
loop_
_geom_bond_atom_site_label_1
_geom_bond_atom_site_label_2
_geom_bond_site_symmetry_1
_geom_bond_site_symmetry_2
C1 H1 1_555 1_555
O1 C2 1_555 1_555
C2 O2 1_555 1_555
Br1 C8 1_555 1_555
C3 H2 1_555 1_555
C4 H3 1_555 1_555
C5 C3 1_555 1_555
H4 C5 1_555 1_555
C6 C15 1_555 1_555
C7 C5 1_555 1_555
H5 C7 1_555 1_555
C8 C10 1_555 1_555
C9 C7 1_555 1_555
H6 C9 1_555 1_555
C10 H7 1_555 1_555
C11 C9 1_555 1_555
H8 C11 1_555 1_555
C12 C8 1_555 1_555
H9 C12 1_555 1_555
C13 H10 1_555 1_555
C14 C13 1_555 1_555
H11 C14 1_555 1_555
C15 C1 1_555 1_555
C16 C14 1_555 1_555
H12 C16 1_555 1_555
C17 C4 1_555 1_555
H13 C17 1_555 1_555
N1 C4 1_555 1_555
N2 C3 1_555 1_555
O3 C6 1_555 1_555
O4 C6 1_555 1_555
Zn1 N1 1_555 1_555
C18 C1 1_555 1_555
O5 H14 1_555 1_555
H15 O5 1_555 1_555
O1B Zn1 1_555 1_555
Zn1B O1 1_555 1_555
C2 C18 1_555 1_555
C10 C15 1_555 1_555
C11 N2 1_555 1_555
C12 C18 1_555 1_555
C13 N1 1_555 1_555
C16 C17 1_555 1_555
N2 Zn1 1_555 1_555
O4 Zn1 1_555 1_555

#END
