
#######################################################################
#
#                 Cambridge Crystallographic Data Centre
#                                CCDC 
#
#######################################################################
#
# If this CIF has been generated from an entry in the Cambridge 
# Structural Database, then it will include bibliographic, chemical, 
# crystal, experimental, refinement or atomic coordinate data resulting 
# from the CCDC's data processing and validation procedures.
#
#######################################################################

data_CAJTOX
_symmetry_cell_setting           monoclinic
_symmetry_space_group_name_H-M   'C 2/c'
_symmetry_Int_Tables_number      15
_space_group_name_Hall           '-C 2yn'
loop_
_symmetry_equiv_pos_site_id
_symmetry_equiv_pos_as_xyz
1 x,y,z
2 -x,y,1/2-z
3 1/2+x,1/2+y,z
4 1/2-x,1/2+y,1/2-z
5 -x,-y,-z
6 x,-y,1/2+z
7 1/2-x,1/2-y,-z
8 1/2+x,1/2-y,1/2+z
_cell_length_a                   13.828(2)
_cell_length_b                   7.3125(6)
_cell_length_c                   19.731(2)
_cell_angle_alpha                90
_cell_angle_beta                 107.692(6)
_cell_angle_gamma                90
_cell_volume                     1900.78
loop_
_atom_site_label
_atom_site_type_symbol
_atom_site_fract_x
_atom_site_fract_y
_atom_site_fract_z
K1 K -0.1550(1) 0.3167(1) -0.3049(1)
K2 K -0.8050(1) 0.3447(1) -0.3867(1)
K3 K -0.3838(1) 0.3452(1) -0.5057(1)
C1 C -0.5148(2) 0.2664(3) -0.3554(1)
N1 N -0.4087(1) 0.2142(2) -0.3341(1)
O1 O -0.3546(1) 0.2215(3) -0.3774(1)
N2 N -0.3753(1) 0.1682(2) -0.2674(1)
O2 O -0.2811(1) 0.1304(2) -0.2454(1)
N3 N -0.5735(1) 0.1968(2) -0.4254(1)
O3 O -0.5654(1) 0.2721(2) -0.4832(1)
N4 N -0.6354(1) 0.0661(2) -0.4215(1)
O4 O -0.6892(1) 0.0040(2) -0.4819(1)
N5 N -0.5292(1) 0.4641(2) -0.3552(1)
O5 O -0.6231(1) 0.5152(2) -0.3662(1)
N6 N -0.4507(1) 0.5700(3) -0.3428(1)
O6 O -0.4726(1) 0.7408(2) -0.3405(1)
H1 H -0.5400(15) 0.2231(29) -0.3213(11)
O2C O -0.2189(1) 0.6304(2) -0.2546(1)
K1C K -0.3450(1) -0.1833(1) -0.1951(1)
O5D O -0.3769(1) 0.4848(2) -0.6338(1)
K3D K -0.6162(1) 0.6548(1) -0.4943(1)
K1B K -0.6550(1) 0.8167(1) -0.3049(1)
O5B O -0.1231(1) 0.0152(2) -0.3662(1)
loop_
_geom_bond_atom_site_label_1
_geom_bond_atom_site_label_2
_geom_bond_site_symmetry_1
_geom_bond_site_symmetry_2
K1 O2 1_555 1_555
K2 O5 1_555 1_555
K3 O1 1_555 1_555
C1 N1 1_555 1_555
N1 O1 1_555 1_555
N2 N1 1_555 1_555
O2 N2 1_555 1_555
N3 C1 1_555 1_555
O3 K3 1_555 1_555
N4 N3 1_555 1_555
O4 N4 1_555 1_555
N5 C1 1_555 1_555
O5 N5 1_555 1_555
N6 N5 1_555 1_555
O6 N6 1_555 1_555
H1 C1 1_555 1_555
O2C K1 1_555 1_555
K1C O2 1_555 1_555
O5D K3 1_555 1_555
K3D O5 1_555 1_555
K1B O5 1_555 1_555
O5B K1 1_555 1_555
N3 O3 1_555 1_555

#END
