
#######################################################################
#
#                 Cambridge Crystallographic Data Centre
#                                CCDC 
#
#######################################################################
#
# If this CIF has been generated from an entry in the Cambridge 
# Structural Database, then it will include bibliographic, chemical, 
# crystal, experimental, refinement or atomic coordinate data resulting 
# from the CCDC's data processing and validation procedures.
#
#######################################################################

data_CAJTUD
_symmetry_cell_setting           triclinic
_symmetry_space_group_name_H-M   'P -1'
_symmetry_Int_Tables_number      2
_space_group_name_Hall           '-P 1'
loop_
_symmetry_equiv_pos_site_id
_symmetry_equiv_pos_as_xyz
1 x,y,z
2 -x,-y,-z
_cell_length_a                   7.636(2)
_cell_length_b                   9.3213(11)
_cell_length_c                   9.42239(17)
_cell_angle_alpha                63.21(2)
_cell_angle_beta                 88.84(3)
_cell_angle_gamma                72.97(2)
_cell_volume                     567.496
loop_
_atom_site_label
_atom_site_type_symbol
_atom_site_fract_x
_atom_site_fract_y
_atom_site_fract_z
K1 K -0.7080(1) 0.3757(1) -0.9778(1)
K2 K 0.0261(1) 0.2813(1) -0.2912(1)
K3 K -0.4992(1) -0.2370(1) -0.5004(1)
C1 C -0.0763(2) 0.1450(2) -0.7244(2)
N1 N -0.2756(2) 0.1820(2) -0.7498(2)
O1 O -0.3853(2) 0.3381(2) -0.8148(2)
N2 N -0.3259(2) 0.0463(2) -0.6953(2)
O2 O -0.5010(2) 0.0785(2) -0.7134(2)
N3 N -0.0411(2) 0.2456(2) -0.6520(2)
O3 O -0.1287(2) 0.2377(2) -0.5281(1)
N4 N 0.0879(2) 0.3139(2) -0.6993(2)
O4 O 0.1246(2) 0.3801(2) -0.6150(2)
N5 N 0.0052(2) 0.1737(2) -0.8715(2)
O5 O -0.0542(2) 0.3201(2) -1.0019(1)
N6 N 0.1316(2) 0.0391(2) -0.8595(2)
O6 O 0.2022(2) 0.0608(2) -0.9889(2)
O7 O -0.3271(3) -0.4152(2) -0.6557(2)
H1 H -0.0230(20) 0.0300(20) -0.6550(20)
H2 H -0.2810(40) -0.5140(40) -0.6200(30)
H3 H -0.4160(40) -0.3930(40) -0.7210(40)
K1A K -0.2920(1) 0.6243(1) -1.0222(1)
O1A O -0.6147(2) 0.6619(2) -1.1852(2)
O5A O -0.9458(2) 0.6799(2) -0.9981(1)
O4A O -0.1246(2) 0.6199(2) -0.3850(2)
O4A_2 O -0.1246(2) -0.3801(2) -0.3850(2)
O6_2 O 0.2022(2) 0.0608(2) 0.0111(2)
K2A K -0.0261(1) 0.7187(1) -0.7088(1)
K3A K 0.4992(1) 0.2370(1) -0.4996(1)
K2_2 K 0.0261(1) 0.2813(1) -1.2912(1)
O8 O 0.3701(3) -0.2822(3) -0.8698(2)
H4 H 0.3360(40) -0.1820(40) -0.9080(40)
H5 H 0.2990(40) -0.3160(40) -0.9020(40)
loop_
_geom_bond_atom_site_label_1
_geom_bond_atom_site_label_2
_geom_bond_site_symmetry_1
_geom_bond_site_symmetry_2
K1 O1 1_555 1_555
K2 O3 1_555 1_555
K3 O2 1_555 1_555
C1 N1 1_555 1_555
N1 O1 1_555 1_555
O1 K1A 1_555 1_555
N2 N1 1_555 1_555
O2 K1 1_555 1_555
N3 C1 1_555 1_555
O3 N3 1_555 1_555
N4 N3 1_555 1_555
O4 N4 1_555 1_555
N5 C1 1_555 1_555
O5 N5 1_555 1_555
N6 N5 1_555 1_555
O6 N6 1_555 1_555
O7 K3 1_555 1_555
O8 H4 1_555 1_555
H1 C1 1_555 1_555
H2 O7 1_555 1_555
H3 O7 1_555 1_555
H5 O8 1_555 1_555
K1A O5 1_555 1_555
O1A K1 1_555 1_555
O5A K1 1_555 1_555
O4A K2 1_555 1_555
O4A_2 K3 1_555 1_555
O6_2 K2 1_555 1_555
K2A O4 1_555 1_555
K3A O4 1_555 1_555
K2_2 O6 1_555 1_555
N2 O2 1_555 1_555
K1A O1A 1_555 1_555

#END
