
#######################################################################
#
#                 Cambridge Crystallographic Data Centre
#                                CCDC 
#
#######################################################################
#
# If this CIF has been generated from an entry in the Cambridge 
# Structural Database, then it will include bibliographic, chemical, 
# crystal, experimental, refinement or atomic coordinate data resulting 
# from the CCDC's data processing and validation procedures.
#
#######################################################################

data_CAJVUG
_symmetry_cell_setting           tetragonal
_symmetry_space_group_name_H-M   'P 41'
_symmetry_Int_Tables_number      76
_space_group_name_Hall           'P 4w'
loop_
_symmetry_equiv_pos_site_id
_symmetry_equiv_pos_as_xyz
1 x,y,z
2 -y,x,1/4+z
3 -x,-y,1/2+z
4 y,-x,3/4+z
_cell_length_a                   9.8480(2)
_cell_length_b                   9.8480(2)
_cell_length_c                   35.0588(14)
_cell_angle_alpha                90
_cell_angle_beta                 90
_cell_angle_gamma                90
_cell_volume                     3400.11
loop_
_atom_site_label
_atom_site_type_symbol
_atom_site_fract_x
_atom_site_fract_y
_atom_site_fract_z
C31 C 0.8503(11) -0.4547(12) 0.3296(3)
H17 H 0.8719 -0.4492 0.3559
N1 N 0.7434(12) -0.5244(10) 0.3199(3)
O9 O 0.9253(9) -0.3953(11) 0.3070(2)
C32 C 0.6574(16) -0.5796(16) 0.3493(4)
H18 H 0.6965 -0.5594 0.3743
H19 H 0.6503 -0.6782 0.3460
H20 H 0.5669 -0.5388 0.3474
C33 C 0.6968(16) -0.5372(15) 0.2811(3)
H21 H 0.7627 -0.4948 0.2639
H22 H 0.6087 -0.4921 0.2784
H23 H 0.6874 -0.6336 0.2746
N2 N -0.0302(18) 0.1581(16) 0.0817(6)
H24 H -0.0951 0.1607 0.1006
H25 H -0.0747 0.1511 0.0588
C34 C 0.0451(19) 0.0460(18) 0.0867(6)
H26 H -0.0142 -0.0339 0.0869
H27 H 0.0940 0.0521 0.1110
H28 H 0.1104 0.0380 0.0657
C35 C 0.040(2) 0.279(2) 0.0822(7)
H29 H -0.0234 0.3539 0.0778
H30 H 0.1089 0.2780 0.0621
H31 H 0.0838 0.2902 0.1071
O10 O 0.8117(17) -0.1921(16) 0.2708(5)
In1 In 0.15131(5) -0.76937(5) -0.06417(2)
O1 O 0.1480(7) -0.5375(6) -0.07194(15)
O2 O -0.0068(7) -0.2203(7) 0.38898(18)
O3 O 0.7155(6) -0.2362(7) 0.38388(15)
O4 O 0.1630(7) 0.0844(6) -0.01782(18)
O5 O 0.1496(6) -0.6311(5) -0.01440(16)
O6 O 0.0941(6) -0.2310(6) 0.44370(19)
O7 O 0.6177(6) -0.2489(10) 0.4391(3)
O8 O 0.1691(8) -0.0111(6) -0.07327(17)
C1 C 0.1785(9) -0.3942(9) -0.0171(3)
C2 C 0.1714(8) -0.2763(8) -0.0385(3)
H1 H 0.1519 -0.2775 -0.0650
C3 C 0.1950(8) -0.1538(9) -0.0185(2)
C4 C 0.2295(11) -0.1552(9) 0.0196(2)
H2 H 0.2489 -0.0712 0.0318
C5 C 0.2368(10) -0.2689(9) 0.0402(2)
C6 C 0.2087(10) -0.3925(9) 0.0219(2)
H3 H 0.2103 -0.4750 0.0359
C7 C 0.4724(9) -0.2468(10) 0.3848(2)
C8 C 0.4691(9) -0.2532(12) 0.3460(2)
H4 H 0.5521 -0.2533 0.3322
C9 C 0.3453(8) -0.2597(11) 0.3259(2)
C10 C 0.2265(8) -0.2498(11) 0.3482(2)
H5 H 0.1408 -0.2487 0.3358
C11 C 0.2311(9) -0.2418(9) 0.3872(2)
C12 C 0.3533(8) -0.2411(10) 0.4053(3)
H6 H 0.3565 -0.2367 0.4324
C13 C 0.3394(9) -0.2657(13) 0.2839(3)
C14 C 0.2354(10) -0.3279(15) 0.2667(3)
H7 H 0.1686 -0.3711 0.2820
C15 C 0.2212(11) -0.3317(15) 0.2276(3)
C16 C 0.3196(9) -0.2689(12) 0.2045(3)
C17 C 0.4350(12) -0.2125(14) 0.2214(3)
H8 H 0.5083 -0.1787 0.2065
C18 C 0.4370(11) -0.2082(14) 0.2609(3)
H9 H 0.5106 -0.1627 0.2728
C19 C 0.2623(10) -0.2694(9) 0.0820(2)
C20 C 0.3548(13) -0.1813(10) 0.0992(3)
H10 H 0.4034 -0.1186 0.0838
C21 C 0.3782(11) -0.1827(10) 0.1389(3)
H11 H 0.4443 -0.1237 0.1497
C22 C 0.3025(8) -0.2730(12) 0.1632(3)
C23 C 0.2111(13) -0.3613(12) 0.1461(3)
C24 C 0.1907(9) -0.3606(11) 0.1060(3)
H12 H 0.1278 -0.4225 0.0950
C25 C 0.6098(9) -0.2362(9) 0.4040(3)
C26 C 0.1562(10) -0.5227(9) -0.0358(2)
C27 C 0.1780(11) -0.0238(9) -0.0382(3)
C28 C 0.0987(10) -0.2351(9) 0.4085(3)
C29 C 0.1322(10) -0.4571(13) 0.1707(3)
H13 H 0.1882 -0.5382 0.1763
H14 H 0.0499 -0.4873 0.1569
C30 C 0.0913(12) -0.3893(17) 0.2079(3)
H15 H 0.0465 -0.4561 0.2248
H16 H 0.0264 -0.3148 0.2027
In1_2 In 0.15131(5) 0.23063(5) -0.06417(2)
In1B In -0.15131(5) -0.23063(5) 0.43583(2)
In1B_2 In 0.84869(5) -0.23063(5) 0.43583(2)
O2B O 0.0068(7) -0.7797(7) -0.11102(18)
O3B O 0.2845(6) -0.7638(7) -0.11612(15)
O4_2 O 0.1630(7) -0.9156(6) -0.01782(18)
O6B O -0.0941(6) -0.7690(6) -0.05630(19)
O7B O 0.3823(6) -0.7511(10) -0.0609(3)
O8_2 O 0.1691(8) -1.0111(6) -0.07327(17)
loop_
_geom_bond_atom_site_label_1
_geom_bond_atom_site_label_2
_geom_bond_site_symmetry_1
_geom_bond_site_symmetry_2
In1 O1 1_555 1_555
O1 C26 1_555 1_555
O2 C28 1_555 1_555
O3 C25 1_555 1_555
O4 C27 1_555 1_555
O5 In1 1_555 1_555
O6 C28 1_555 1_555
O7 C25 1_555 1_555
O8 C27 1_555 1_555
C1 C2 1_555 1_555
C2 H1 1_555 1_555
C3 C2 1_555 1_555
C4 C3 1_555 1_555
H2 C4 1_555 1_555
C5 C4 1_555 1_555
C6 C1 1_555 1_555
H3 C6 1_555 1_555
C7 C8 1_555 1_555
C8 H4 1_555 1_555
C9 C8 1_555 1_555
C10 C9 1_555 1_555
H5 C10 1_555 1_555
C11 C10 1_555 1_555
C12 C7 1_555 1_555
H6 C12 1_555 1_555
C13 C9 1_555 1_555
C14 C13 1_555 1_555
H7 C14 1_555 1_555
C15 C14 1_555 1_555
C16 C15 1_555 1_555
C17 C16 1_555 1_555
H8 C17 1_555 1_555
C18 C13 1_555 1_555
H9 C18 1_555 1_555
C19 C5 1_555 1_555
C20 C19 1_555 1_555
H10 C20 1_555 1_555
C21 C20 1_555 1_555
H11 C21 1_555 1_555
C22 C16 1_555 1_555
C23 C22 1_555 1_555
C24 C19 1_555 1_555
H12 C24 1_555 1_555
C25 C7 1_555 1_555
C26 O5 1_555 1_555
C27 C3 1_555 1_555
C28 C11 1_555 1_555
C29 C23 1_555 1_555
H13 C29 1_555 1_555
H14 C29 1_555 1_555
C30 C15 1_555 1_555
H15 C30 1_555 1_555
H16 C30 1_555 1_555
C31 H17 1_555 1_555
N1 C31 1_555 1_555
O9 C31 1_555 1_555
C32 N1 1_555 1_555
H18 C32 1_555 1_555
H19 C32 1_555 1_555
H20 C32 1_555 1_555
C33 N1 1_555 1_555
H21 C33 1_555 1_555
H22 C33 1_555 1_555
H23 C33 1_555 1_555
N2 H24 1_555 1_555
H25 N2 1_555 1_555
C34 N2 1_555 1_555
H26 C34 1_555 1_555
H27 C34 1_555 1_555
H28 C34 1_555 1_555
C35 N2 1_555 1_555
H29 C35 1_555 1_555
H30 C35 1_555 1_555
H31 C35 1_555 1_555
In1_2 O4 1_555 1_555
In1B O2 1_555 1_555
In1B_2 O3 1_555 1_555
O2B In1 1_555 1_555
O3B In1 1_555 1_555
O4_2 In1 1_555 1_555
O6B In1 1_555 1_555
O7B In1 1_555 1_555
O8_2 In1 1_555 1_555
O6 In1B 1_555 1_555
O7 In1B_2 1_555 1_555
O8 In1_2 1_555 1_555
C1 C26 1_555 1_555
C5 C6 1_555 1_555
C11 C12 1_555 1_555
C17 C18 1_555 1_555
C21 C22 1_555 1_555
C23 C24 1_555 1_555
C29 C30 1_555 1_555

#END
