
#######################################################################
#
#                 Cambridge Crystallographic Data Centre
#                                CCDC 
#
#######################################################################
#
# If this CIF has been generated from an entry in the Cambridge 
# Structural Database, then it will include bibliographic, chemical, 
# crystal, experimental, refinement or atomic coordinate data resulting 
# from the CCDC's data processing and validation procedures.
#
#######################################################################

data_CAJWAN
_symmetry_cell_setting           monoclinic
_symmetry_space_group_name_H-M   'P 21/n'
_symmetry_Int_Tables_number      14
_space_group_name_Hall           '-P 2yn'
loop_
_symmetry_equiv_pos_site_id
_symmetry_equiv_pos_as_xyz
1 x,y,z
2 1/2-x,1/2+y,1/2-z
3 -x,-y,-z
4 1/2+x,1/2-y,1/2+z
_cell_length_a                   9.892(10)
_cell_length_b                   9.617(9)
_cell_length_c                   35.11(3)
_cell_angle_alpha                90
_cell_angle_beta                 90.544(17)
_cell_angle_gamma                90
_cell_volume                     3339.91
loop_
_atom_site_label
_atom_site_type_symbol
_atom_site_fract_x
_atom_site_fract_y
_atom_site_fract_z
In1 In 1.15879(19) 0.47836(9) -0.07759(4)
Li1 Li 1.0000 0.5000 0.0000
O1 O 0.8823(16) 0.4940(15) -0.0623(4)
O2 O 0.9948(17) 0.4830(13) -0.1143(5)
O3 O 0.2877(14) 0.4815(13) -0.1279(4)
O4 O 0.3787(15) 0.4805(12) -0.0735(4)
O5 O 0.6388(15) 0.1565(12) -0.5268(4)
O6 O 0.6684(17) 0.2588(10) -0.5807(4)
O7 O 0.6391(17) 0.8843(11) -0.5265(3)
O8 O 0.6741(16) 0.7827(9) -0.5799(4)
C1 C 0.892(2) 0.4880(18) -0.0979(8)
C2 C 0.390(3) 0.4797(18) -0.1080(7)
C3 C 0.657(2) 0.2650(16) -0.5462(5)
C4 C 0.661(2) 0.7792(17) -0.5447(5)
C5 C 0.7622(19) 0.4913(19) -0.1218(6)
C6 C 0.6334(16) 0.4852(16) -0.1044(5)
H1 H 0.6274 0.4813 -0.0774
C7 C 0.522(2) 0.4848(17) -0.1253(5)
C8 C 0.5285(18) 0.4915(18) -0.1640(6)
H2 H 0.4468 0.4939 -0.1784
C9 C 0.656(2) 0.4952(17) -0.1836(6)
C10 C 0.776(2) 0.4961(17) -0.1601(6)
H3 H 0.8628 0.4999 -0.1712
C11 C 0.668(3) 0.5063(19) -0.2219(5)
C12 C 0.761(3) 0.569(3) -0.2432(6)
H4 H 0.8368 0.6053 -0.2299
C13 C 0.578(2) 0.440(2) -0.2858(6)
C14 C 0.671(3) 0.5156(16) -0.3033(4)
C15 C 0.759(3) 0.587(2) -0.2817(6)
H5 H 0.8208 0.6504 -0.2931
C16 C 0.572(2) 0.438(2) -0.2469(6)
H6 H 0.5003 0.3883 -0.2355
C17 C 0.675(3) 0.5226(15) -0.3448(5)
C18 C 0.612(3) 0.422(2) -0.3649(6)
C19 C 0.618(3) 0.4187(19) -0.4042(5)
H7 H 0.5814 0.3419 -0.4178
C20 C 0.6755(19) 0.5220(13) -0.4229(5)
C21 C 0.734(3) 0.6256(18) -0.4034(5)
H8 H 0.7766 0.6997 -0.4166
C22 C 0.732(3) 0.6245(19) -0.3657(5)
H9 H 0.7724 0.7003 -0.3525
C23 C 0.678(2) 0.5232(15) -0.4663(5)
C24 C 0.663(3) 0.3983(15) -0.4866(4)
H10 H 0.6500 0.3130 -0.4735
C25 C 0.666(2) 0.4010(16) -0.5249(4)
C26 C 0.670(3) 0.5226(15) -0.5435(6)
H11 H 0.6724 0.5233 -0.5705
C27 C 0.669(2) 0.6455(14) -0.5241(4)
C28 C 0.670(3) 0.6441(16) -0.4869(4)
H12 H 0.6653 0.7300 -0.4736
C29 C 0.473(3) 0.367(2) -0.3081(6)
H13 H 0.3991 0.4323 -0.3148
H14 H 0.4341 0.2905 -0.2928
C30 C 0.535(3) 0.308(2) -0.3441(6)
H15 H 0.4628 0.2708 -0.3609
H16 H 0.5973 0.2314 -0.3375
In1B In 0.84121(19) 0.52164(9) 0.07759(4)
In1_2 In 0.15879(19) 0.47836(9) -0.07759(4)
In1C In 0.65879(19) 0.02164(9) -0.57759(4)
In1C_2 In 0.65879(19) 1.02164(9) -0.57759(4)
In1B_2 In 1.84121(19) 0.52164(9) 0.07759(4)
In1A In 1.34121(19) 0.97836(9) 0.57759(4)
In1A_2 In 1.34121(19) -0.02164(9) 0.57759(4)
Li1A Li 0.5000 0.0000 -0.5000
Li1A_2 Li 0.5000 1.0000 -0.5000
Li1A_3 Li 1.5000 1.0000 0.5000
Li1A_4 Li 1.5000 0.0000 0.5000
O1B O 1.1177(16) 0.5060(15) 0.0623(4)
O2B O 1.0052(17) 0.5170(13) 0.1143(5)
O3B O 1.7123(14) 0.5185(13) 0.1279(4)
O3_2 O 1.2877(14) 0.4815(13) -0.1279(4)
O3B_2 O 0.7123(14) 0.5185(13) 0.1279(4)
O4B O 1.6213(15) 0.5195(12) 0.0735(4)
O4_2 O 1.3787(15) 0.4805(12) -0.0735(4)
O4B_2 O 0.6213(15) 0.5195(12) 0.0735(4)
O5B O 1.3612(15) 0.8435(12) 0.5268(4)
O5C O 1.1388(15) 0.3435(12) -0.0268(4)
O5A O 0.8612(15) 0.6565(12) 0.0268(4)
O6B O 1.3316(17) 0.7412(10) 0.5807(4)
O6C O 1.1684(17) 0.2412(10) -0.0807(4)
O6A O 0.8316(17) 0.7588(10) 0.0807(4)
O7B O 1.3609(17) 0.1157(11) 0.5265(3)
O7C O 1.1391(17) 0.6157(11) -0.0265(3)
O7A O 0.8609(17) 0.3843(11) 0.0265(3)
O8B O 1.3259(16) 0.2173(9) 0.5799(4)
O8C O 1.1741(16) 0.7173(9) -0.0799(4)
O8A O 0.8259(16) 0.2827(9) 0.0799(4)
C1B C 1.108(2) 0.5120(18) 0.0979(8)
C2B C 1.610(3) 0.5203(18) 0.1080(7)
C3B C 1.343(2) 0.7350(16) 0.5462(5)
C4B C 1.339(2) 0.2208(17) 0.5447(5)
C5B C 1.2378(19) 0.5087(19) 0.1218(6)
C6B C 1.3666(16) 0.5148(16) 0.1044(5)
H1B H 1.3726 0.5187 0.0774
C7B C 1.478(2) 0.5152(17) 0.1253(5)
C8B C 1.4715(18) 0.5085(18) 0.1640(6)
H2B H 1.5532 0.5061 0.1784
C9B C 1.344(2) 0.5048(17) 0.1836(6)
C10B C 1.224(2) 0.5039(17) 0.1601(6)
H3B H 1.1372 0.5001 0.1712
C11B C 1.332(3) 0.4937(19) 0.2219(5)
C12B C 1.239(3) 0.431(3) 0.2432(6)
H4B H 1.1632 0.3947 0.2299
C13B C 1.422(2) 0.560(2) 0.2858(6)
C14B C 1.329(3) 0.4844(16) 0.3033(4)
C15B C 1.241(3) 0.413(2) 0.2817(6)
H5B H 1.1792 0.3496 0.2931
C16B C 1.428(2) 0.562(2) 0.2469(6)
H6B H 1.4997 0.6117 0.2355
C17B C 1.325(3) 0.4774(15) 0.3448(5)
C18B C 1.388(3) 0.578(2) 0.3649(6)
C19B C 1.382(3) 0.5813(19) 0.4042(5)
H7B H 1.4186 0.6581 0.4178
C20B C 1.3245(19) 0.4780(13) 0.4229(5)
C21B C 1.266(3) 0.3744(18) 0.4034(5)
H8B H 1.2234 0.3003 0.4166
C22B C 1.268(3) 0.3755(19) 0.3657(5)
H9B H 1.2276 0.2997 0.3525
C23B C 1.322(2) 0.4768(15) 0.4663(5)
C24B C 1.337(3) 0.6017(15) 0.4866(4)
H10B H 1.3500 0.6870 0.4735
C25B C 1.334(2) 0.5990(16) 0.5249(4)
C26B C 1.330(3) 0.4774(15) 0.5435(6)
H11B H 1.3276 0.4767 0.5705
C27B C 1.331(2) 0.3545(14) 0.5241(4)
C28B C 1.330(3) 0.3559(16) 0.4869(4)
H12B H 1.3347 0.2700 0.4736
C29B C 1.527(3) 0.633(2) 0.3081(6)
H13B H 1.6009 0.5677 0.3148
H14B H 1.5659 0.7095 0.2928
C30B C 1.465(3) 0.692(2) 0.3441(6)
H15B H 1.5372 0.7292 0.3609
H16B H 1.4027 0.7686 0.3375
loop_
_geom_bond_atom_site_label_1
_geom_bond_atom_site_label_2
_geom_bond_site_symmetry_1
_geom_bond_site_symmetry_2
In1 O2 1_555 1_555
Li1 O1 1_555 1_555
O1 C1 1_555 1_555
O2 C1 1_555 1_555
O3 C2 1_555 1_555
O4 C2 1_555 1_555
O5 C3 1_555 1_555
O6 C3 1_555 1_555
O7 C4 1_555 1_555
O8 C4 1_555 1_555
C1 C5 1_555 1_555
C2 C7 1_555 1_555
C3 C25 1_555 1_555
C4 C27 1_555 1_555
C5 C6 1_555 1_555
C6 H1 1_555 1_555
C7 C6 1_555 1_555
C8 C7 1_555 1_555
H2 C8 1_555 1_555
C9 C8 1_555 1_555
C10 C5 1_555 1_555
H3 C10 1_555 1_555
C11 C9 1_555 1_555
C12 C11 1_555 1_555
H4 C12 1_555 1_555
C13 C14 1_555 1_555
C14 C15 1_555 1_555
C15 C12 1_555 1_555
H5 C15 1_555 1_555
C16 C11 1_555 1_555
H6 C16 1_555 1_555
C17 C14 1_555 1_555
C18 C17 1_555 1_555
C19 C18 1_555 1_555
H7 C19 1_555 1_555
C20 C19 1_555 1_555
C21 C20 1_555 1_555
H8 C21 1_555 1_555
C22 C17 1_555 1_555
H9 C22 1_555 1_555
C23 C20 1_555 1_555
C24 C23 1_555 1_555
H10 C24 1_555 1_555
C25 C24 1_555 1_555
C26 C25 1_555 1_555
H11 C26 1_555 1_555
C27 C26 1_555 1_555
C28 C23 1_555 1_555
H12 C28 1_555 1_555
C29 C13 1_555 1_555
H13 C29 1_555 1_555
H14 C29 1_555 1_555
C30 C18 1_555 1_555
H15 C30 1_555 1_555
H16 C30 1_555 1_555
In1B O2B 1_555 1_555
In1_2 O3 1_555 1_555
In1C O5 1_555 1_555
In1C_2 O7 1_555 1_555
In1B_2 O3B 1_555 1_555
In1A O5B 1_555 1_555
In1A_2 O7B 1_555 1_555
Li1A O5 1_555 1_555
Li1A_2 O7 1_555 1_555
Li1A_3 O5B 1_555 1_555
Li1A_4 O7B 1_555 1_555
O1B Li1 1_555 1_555
O2B C1B 1_555 1_555
O3B C2B 1_555 1_555
O3_2 In1 1_555 1_555
O3B_2 In1B 1_555 1_555
O4B In1B_2 1_555 1_555
O4_2 In1 1_555 1_555
O4B_2 In1B 1_555 1_555
O5B C3B 1_555 1_555
O5C In1 1_555 1_555
O5A Li1 1_555 1_555
O6B In1A 1_555 1_555
O6C In1 1_555 1_555
O6A In1B 1_555 1_555
O7B C4B 1_555 1_555
O7C In1 1_555 1_555
O7A Li1 1_555 1_555
O8B In1A_2 1_555 1_555
O8C In1 1_555 1_555
O8A In1B 1_555 1_555
C1B O1B 1_555 1_555
C2B O4B 1_555 1_555
C3B O6B 1_555 1_555
C4B O8B 1_555 1_555
C5B C1B 1_555 1_555
C6B C5B 1_555 1_555
H1B C6B 1_555 1_555
C7B C2B 1_555 1_555
C8B C7B 1_555 1_555
H2B C8B 1_555 1_555
C9B C8B 1_555 1_555
C10B C5B 1_555 1_555
H3B C10B 1_555 1_555
C11B C9B 1_555 1_555
C12B C11B 1_555 1_555
H4B C12B 1_555 1_555
C13B C14B 1_555 1_555
C14B C15B 1_555 1_555
C15B C12B 1_555 1_555
H5B C15B 1_555 1_555
C16B C11B 1_555 1_555
H6B C16B 1_555 1_555
C17B C14B 1_555 1_555
C18B C17B 1_555 1_555
C19B C18B 1_555 1_555
H7B C19B 1_555 1_555
C20B C19B 1_555 1_555
C21B C20B 1_555 1_555
H8B C21B 1_555 1_555
C22B C17B 1_555 1_555
H9B C22B 1_555 1_555
C23B C20B 1_555 1_555
C24B C23B 1_555 1_555
H10B C24B 1_555 1_555
C25B C3B 1_555 1_555
C26B C25B 1_555 1_555
H11B C26B 1_555 1_555
C27B C4B 1_555 1_555
C28B C23B 1_555 1_555
H12B C28B 1_555 1_555
C29B C13B 1_555 1_555
H13B C29B 1_555 1_555
H14B C29B 1_555 1_555
C30B C18B 1_555 1_555
H15B C30B 1_555 1_555
H16B C30B 1_555 1_555
Li1 O5C 1_555 1_555
Li1 O7C 1_555 1_555
O4 In1_2 1_555 1_555
O6 In1C 1_555 1_555
O8 In1C_2 1_555 1_555
C9 C10 1_555 1_555
C13 C16 1_555 1_555
C21 C22 1_555 1_555
C27 C28 1_555 1_555
C29 C30 1_555 1_555
In1B O5A 1_555 1_555
In1B O7A 1_555 1_555
C6B C7B 1_555 1_555
C9B C10B 1_555 1_555
C13B C16B 1_555 1_555
C21B C22B 1_555 1_555
C24B C25B 1_555 1_555
C26B C27B 1_555 1_555
C27B C28B 1_555 1_555
C29B C30B 1_555 1_555

#END
