
#######################################################################
#
#                 Cambridge Crystallographic Data Centre
#                                CCDC 
#
#######################################################################
#
# If this CIF has been generated from an entry in the Cambridge 
# Structural Database, then it will include bibliographic, chemical, 
# crystal, experimental, refinement or atomic coordinate data resulting 
# from the CCDC's data processing and validation procedures.
#
#######################################################################

data_CAJYIX
_symmetry_cell_setting           monoclinic
_symmetry_space_group_name_H-M   'C 2'
_symmetry_Int_Tables_number      5
_space_group_name_Hall           'C 2y'
loop_
_symmetry_equiv_pos_site_id
_symmetry_equiv_pos_as_xyz
1 x,y,z
2 -x,y,-z
3 1/2+x,1/2+y,z
4 1/2-x,1/2+y,-z
_cell_length_a                   24.0723(18)
_cell_length_b                   13.7658(11)
_cell_length_c                   23.2674(18)
_cell_angle_alpha                90
_cell_angle_beta                 95.9300(10)
_cell_angle_gamma                90
_cell_volume                     7668.96
loop_
_atom_site_label
_atom_site_type_symbol
_atom_site_fract_x
_atom_site_fract_y
_atom_site_fract_z
C1 C 0.7573(4) 0.3005(8) 0.3516(4)
H1 H 0.7639 0.2829 0.3930
H2 H 0.7284 0.3518 0.3476
C2 C 0.7362(4) 0.2141(8) 0.3184(5)
C3 C 0.7380(5) 0.1225(9) 0.3435(5)
H3 H 0.7528 0.1162 0.3828
C4 C 0.7194(6) 0.0413(9) 0.3141(7)
H4 H 0.7200 -0.0191 0.3338
C5 C 0.7001(5) 0.0449(8) 0.2570(6)
H5 H 0.6883 -0.0124 0.2365
C6 C 0.6979(4) 0.1375(8) 0.2288(6)
H6 H 0.6853 0.1423 0.1889
C7 C 0.7143(4) 0.2196(7) 0.2599(4)
C8 C 0.7066(3) 0.3172(7) 0.2272(4)
H7 H 0.7313 0.3664 0.2476
H8 H 0.7186 0.3089 0.1880
C9 C 0.6388(4) 0.4176(7) 0.1721(5)
H9 H 0.6743 0.4502 0.1659
H10 H 0.6114 0.4684 0.1798
C10 C 0.6175(4) 0.3631(8) 0.1182(4)
C11 C 0.6149(4) 0.4040(10) 0.0638(5)
H11 H 0.6300 0.4668 0.0588
C12 C 0.5906(5) 0.3544(13) 0.0177(5)
H12 H 0.5874 0.3832 -0.0196
C13 C 0.5699(5) 0.2587(10) 0.0253(5)
H13 H 0.5528 0.2210 -0.0059
C14 C 0.5764(4) 0.2266(10) 0.0797(5)
H14 H 0.5645 0.1618 0.0852
C15 C 0.6338(4) 0.4006(8) 0.2756(4)
H15 H 0.6042 0.4496 0.2663
H16 H 0.6672 0.4346 0.2943
C16 C 0.6142(4) 0.3270(7) 0.3170(4)
C17 C 0.6147(5) 0.3491(10) 0.3760(4)
H17 H 0.6304 0.4079 0.3916
C18 C 0.5918(6) 0.2833(12) 0.4097(5)
H18 H 0.5906 0.2973 0.4495
C19 C 0.5701(6) 0.1960(12) 0.3879(6)
H19 H 0.5543 0.1498 0.4119
C20 C 0.5725(5) 0.1791(10) 0.3287(5)
H20 H 0.5590 0.1194 0.3122
C21 C 0.8226(5) 0.4360(10) 0.3569(4)
H21 H 0.8611 0.4545 0.3500
H22 H 0.8208 0.4333 0.3992
C22 C 0.7830(5) 0.5118(8) 0.3317(5)
C23 C 0.7418(5) 0.5522(10) 0.3654(6)
H23 H 0.7410 0.5316 0.4043
C24 C 0.7032(5) 0.6203(9) 0.3429(7)
H24 H 0.6789 0.6508 0.3670
C25 C 0.7006(5) 0.6428(8) 0.2863(7)
H25 H 0.6719 0.6850 0.2700
C26 C 0.7391(4) 0.6054(7) 0.2515(6)
H26 H 0.7375 0.6232 0.2119
C27 C 0.7816(4) 0.5392(6) 0.2761(4)
C28 C 0.8251(4) 0.5109(6) 0.2371(4)
H27 H 0.8063 0.4974 0.1981
H28 H 0.8432 0.4499 0.2518
C29 C 0.8960(4) 0.5729(6) 0.1774(4)
H29 H 0.8984 0.5027 0.1688
H30 H 0.9343 0.6001 0.1813
C30 C 0.8613(4) 0.6228(8) 0.1295(5)
C31 C 0.8634(5) 0.5979(9) 0.0721(5)
H31 H 0.8866 0.5471 0.0606
C32 C 0.8281(6) 0.6541(13) 0.0309(6)
H32 H 0.8274 0.6408 -0.0093
C33 C 0.7963(6) 0.7253(11) 0.0492(7)
H33 H 0.7731 0.7624 0.0219
C34 C 0.7970(5) 0.7438(9) 0.1039(6)
H34 H 0.7737 0.7948 0.1150
C35 C 0.9125(4) 0.5856(8) 0.2821(4)
H35 H 0.9192 0.5177 0.2950
H36 H 0.9480 0.6120 0.2709
C36 C 0.8948(5) 0.6430(10) 0.3302(5)
C37 C 0.9148(7) 0.6243(12) 0.3890(6)
H37 H 0.9395 0.5716 0.3988
C38 C 0.8981(10) 0.6830(16) 0.4304(7)
H38 H 0.9128 0.6749 0.4696
C39 C 0.8587(8) 0.7562(15) 0.4149(8)
H39 H 0.8452 0.7962 0.4436
C40 C 0.8403(6) 0.7691(11) 0.3580(6)
H40 H 0.8142 0.8193 0.3475
C41 C 0.8582(5) 0.2692(9) 0.3464(5)
H41 H 0.8696 0.2695 0.3885
H42 H 0.8454 0.2028 0.3353
C42 C 0.9070(4) 0.2950(8) 0.3150(5)
C43 C 0.9540(5) 0.3319(9) 0.3468(7)
H43 H 0.9549 0.3349 0.3876
C44 C 1.0017(5) 0.3660(8) 0.3198(5)
H44 H 1.0337 0.3925 0.3415
C45 C 0.9978(5) 0.3576(9) 0.2589(6)
H45 H 1.0275 0.3801 0.2385
C46 C 0.9520(5) 0.3176(7) 0.2297(6)
H46 H 0.9509 0.3120 0.1889
C47 C 0.9065(4) 0.2845(7) 0.2559(5)
C48 C 0.8592(4) 0.2361(7) 0.2184(5)
H47 H 0.8253 0.2376 0.2391
H48 H 0.8512 0.2743 0.1825
C49 C 0.8318(4) 0.1037(8) 0.1526(5)
H49 H 0.7956 0.1369 0.1547
H50 H 0.8252 0.0328 0.1538
C50 C 0.8540(5) 0.1294(7) 0.0972(5)
C51 C 0.8202(5) 0.1283(9) 0.0455(6)
H51 H 0.7817 0.1128 0.0450
C52 C 0.8420(5) 0.1494(9) -0.0043(6)
H52 H 0.8191 0.1494 -0.0401
C53 C 0.9010(6) 0.1719(11) -0.0020(5)
H53 H 0.9181 0.1881 -0.0357
C54 C 0.9302(4) 0.1688(8) 0.0505(5)
H54 H 0.9691 0.1819 0.0529
C55 C 0.8700(4) 0.0643(8) 0.2518(5)
H55 H 0.8606 -0.0018 0.2373
H56 H 0.8409 0.0849 0.2764
C56 C 0.9277(5) 0.0624(8) 0.2886(5)
C57 C 0.9332(6) 0.0342(9) 0.3420(7)
H57 H 0.9017 0.0120 0.3598
C58 C 0.9858(7) 0.0367(10) 0.3727(7)
H58 H 0.9905 0.0194 0.4125
C59 C 1.0316(6) 0.0648(10) 0.3450(6)
H59 H 1.0682 0.0668 0.3646
C60 C 1.0212(5) 0.0897(8) 0.2874(5)
H60 H 1.0518 0.1077 0.2669
Cl1 Cl 0.54481(10) 0.10231(18) 0.19669(13)
Cl2 Cl 0.78453(13) 0.8547(2) 0.22965(19)
Cl3 Cl 1.03594(10) 0.1290(2) 0.14993(13)
Cu1 Cu 0.59283(4) 0.24064(8) 0.20906(5)
Cu2 Cu 0.83637(5) 0.72167(8) 0.23078(6)
Cu3 Cu 0.94962(5) 0.11983(8) 0.17586(5)
N1 N 0.8103(3) 0.3406(6) 0.3326(3)
N2 N 0.6478(3) 0.3542(6) 0.2218(3)
N3 N 0.5971(3) 0.2722(6) 0.1266(3)
N4 N 0.5938(3) 0.2466(6) 0.2947(3)
N5 N 0.8703(3) 0.5869(6) 0.2319(3)
N6 N 0.8282(3) 0.6960(6) 0.1459(4)
N7 N 0.8580(4) 0.7126(7) 0.3166(5)
N8 N 0.8705(3) 0.1319(6) 0.2024(4)
N9 N 0.9080(3) 0.1484(5) 0.0991(4)
N10 N 0.9702(4) 0.0895(6) 0.2593(4)
O1 O 0.5250(3) 0.3688(4) 0.2035(3)
O2 O 0.9222(3) 0.7864(5) 0.2243(3)
O3 O 0.9239(3) -0.0441(5) 0.1552(4)
O4 O 0.4570(3) 0.2762(5) 0.1126(3)
Re1 Re 0.457534(13) 0.34748(2) 0.173881(16)
O2B O 0.4222(3) 0.2864(5) 0.2243(3)
O3B O 0.4239(3) 0.4559(5) 0.1552(4)
Re1B Re 0.957534(13) 0.84748(2) 0.173881(16)
Re1B_2 Re 0.957534(13) -0.15252(2) 0.173881(16)
F1 F 0.6830(4) 0.4347(9) 0.4857(4)
F2 F 0.7132(6) 0.5848(12) 0.5110(4)
F3 F 0.6766(5) 0.4868(9) 0.5766(3)
F4 F 0.6330(5) 0.5690(8) 0.4514(4)
F5 F 0.5997(4) 0.4664(8) 0.5152(4)
F6 F 0.6287(8) 0.6165(9) 0.5416(5)
P1 P 0.6504(2) 0.5299(3) 0.51280(13)
O5 O 0.3447(3) 0.8793(5) 0.1070(3)
O6 O 0.2407(3) 0.7893(5) 0.0893(3)
O7 O 0.2750(3) 0.9102(7) 0.0042(4)
O8 O 0.2460(3) 0.9914(5) 0.1084(3)
Re2 Re 0.276425(14) 0.89407(3) 0.076233(15)
loop_
_geom_bond_atom_site_label_1
_geom_bond_atom_site_label_2
_geom_bond_site_symmetry_1
_geom_bond_site_symmetry_2
C1 H1 1_555 1_555
H2 C1 1_555 1_555
C2 C1 1_555 1_555
C3 C2 1_555 1_555
H3 C3 1_555 1_555
C4 C3 1_555 1_555
H4 C4 1_555 1_555
C5 C4 1_555 1_555
H5 C5 1_555 1_555
C6 C5 1_555 1_555
H6 C6 1_555 1_555
C7 C2 1_555 1_555
C8 C7 1_555 1_555
H7 C8 1_555 1_555
H8 C8 1_555 1_555
C9 H9 1_555 1_555
H10 C9 1_555 1_555
C10 C9 1_555 1_555
C11 C10 1_555 1_555
H11 C11 1_555 1_555
C12 C11 1_555 1_555
H12 C12 1_555 1_555
C13 C12 1_555 1_555
H13 C13 1_555 1_555
C14 C13 1_555 1_555
H14 C14 1_555 1_555
C15 H15 1_555 1_555
H16 C15 1_555 1_555
C16 C15 1_555 1_555
C17 C16 1_555 1_555
H17 C17 1_555 1_555
C18 C17 1_555 1_555
H18 C18 1_555 1_555
C19 C18 1_555 1_555
H19 C19 1_555 1_555
C20 C19 1_555 1_555
H20 C20 1_555 1_555
C21 H21 1_555 1_555
H22 C21 1_555 1_555
C22 C21 1_555 1_555
C23 C22 1_555 1_555
H23 C23 1_555 1_555
C24 C23 1_555 1_555
H24 C24 1_555 1_555
C25 C24 1_555 1_555
H25 C25 1_555 1_555
C26 C25 1_555 1_555
H26 C26 1_555 1_555
C27 C22 1_555 1_555
C28 C27 1_555 1_555
H27 C28 1_555 1_555
H28 C28 1_555 1_555
C29 H29 1_555 1_555
H30 C29 1_555 1_555
C30 C29 1_555 1_555
C31 C30 1_555 1_555
H31 C31 1_555 1_555
C32 C31 1_555 1_555
H32 C32 1_555 1_555
C33 C32 1_555 1_555
H33 C33 1_555 1_555
C34 C33 1_555 1_555
H34 C34 1_555 1_555
C35 H35 1_555 1_555
H36 C35 1_555 1_555
C36 C35 1_555 1_555
C37 C36 1_555 1_555
H37 C37 1_555 1_555
C38 C37 1_555 1_555
H38 C38 1_555 1_555
C39 C38 1_555 1_555
H39 C39 1_555 1_555
C40 C39 1_555 1_555
H40 C40 1_555 1_555
C41 H41 1_555 1_555
H42 C41 1_555 1_555
C42 C41 1_555 1_555
C43 C42 1_555 1_555
H43 C43 1_555 1_555
C44 C43 1_555 1_555
H44 C44 1_555 1_555
C45 C44 1_555 1_555
H45 C45 1_555 1_555
C46 C45 1_555 1_555
H46 C46 1_555 1_555
C47 C42 1_555 1_555
C48 C47 1_555 1_555
H47 C48 1_555 1_555
H48 C48 1_555 1_555
C49 H49 1_555 1_555
H50 C49 1_555 1_555
C50 C49 1_555 1_555
C51 C50 1_555 1_555
H51 C51 1_555 1_555
C52 C51 1_555 1_555
H52 C52 1_555 1_555
C53 C52 1_555 1_555
H53 C53 1_555 1_555
C54 C53 1_555 1_555
H54 C54 1_555 1_555
C55 H55 1_555 1_555
H56 C55 1_555 1_555
C56 C55 1_555 1_555
C57 C56 1_555 1_555
H57 C57 1_555 1_555
C58 C57 1_555 1_555
H58 C58 1_555 1_555
C59 C58 1_555 1_555
H59 C59 1_555 1_555
C60 C59 1_555 1_555
H60 C60 1_555 1_555
Cl1 Cu1 1_555 1_555
Cl2 Cu2 1_555 1_555
Cl3 Cu3 1_555 1_555
Cu1 N2 1_555 1_555
Cu2 N5 1_555 1_555
Cu3 N8 1_555 1_555
F1 P1 1_555 1_555
F2 P1 1_555 1_555
F3 P1 1_555 1_555
F4 P1 1_555 1_555
F5 P1 1_555 1_555
F6 P1 1_555 1_555
N1 C1 1_555 1_555
N2 C8 1_555 1_555
N3 C10 1_555 1_555
N4 C16 1_555 1_555
N5 C28 1_555 1_555
N6 C30 1_555 1_555
N7 C36 1_555 1_555
N8 C48 1_555 1_555
N9 C50 1_555 1_555
N10 C56 1_555 1_555
O1 Cu1 1_555 1_555
O2 Cu2 1_555 1_555
O3 Cu3 1_555 1_555
O4 Re1 1_555 1_555
O5 Re2 1_555 1_555
O6 Re2 1_555 1_555
O7 Re2 1_555 1_555
O8 Re2 1_555 1_555
Re1 O1 1_555 1_555
O2B Re1 1_555 1_555
O3B Re1 1_555 1_555
Re1B O2 1_555 1_555
Re1B_2 O3 1_555 1_555
C6 C7 1_555 1_555
C9 N2 1_555 1_555
C14 N3 1_555 1_555
C15 N2 1_555 1_555
C20 N4 1_555 1_555
C21 N1 1_555 1_555
C26 C27 1_555 1_555
C29 N5 1_555 1_555
C34 N6 1_555 1_555
C35 N5 1_555 1_555
C40 N7 1_555 1_555
C41 N1 1_555 1_555
C46 C47 1_555 1_555
C49 N8 1_555 1_555
C54 N9 1_555 1_555
C55 N8 1_555 1_555
C60 N10 1_555 1_555
Cu1 N3 1_555 1_555
Cu1 N4 1_555 1_555
Cu2 N6 1_555 1_555
Cu2 N7 1_555 1_555
Cu3 N9 1_555 1_555
Cu3 N10 1_555 1_555

#END
