
#######################################################################
#
#                 Cambridge Crystallographic Data Centre
#                                CCDC 
#
#######################################################################
#
# If this CIF has been generated from an entry in the Cambridge 
# Structural Database, then it will include bibliographic, chemical, 
# crystal, experimental, refinement or atomic coordinate data resulting 
# from the CCDC's data processing and validation procedures.
#
#######################################################################

data_CAKFEB01
_symmetry_cell_setting           monoclinic
_symmetry_space_group_name_H-M   'P 21/c'
_symmetry_Int_Tables_number      14
_space_group_name_Hall           '-P 2ybc'
loop_
_symmetry_equiv_pos_site_id
_symmetry_equiv_pos_as_xyz
1 x,y,z
2 -x,1/2+y,1/2-z
3 -x,-y,-z
4 x,1/2-y,1/2+z
_cell_length_a                   21.863(2)
_cell_length_b                   10.035(1)
_cell_length_c                   13.854(1)
_cell_angle_alpha                90
_cell_angle_beta                 91.53(1)
_cell_angle_gamma                90
_cell_volume                     3038.42
loop_
_atom_site_label
_atom_site_type_symbol
_atom_site_fract_x
_atom_site_fract_y
_atom_site_fract_z
Gd1 Gd 0.259518(8) 0.560979(19) 0.269620(13)
O1 O 0.36389(12) 0.4961(3) 0.21557(18)
O2 O 0.32390(11) 0.6659(3) 0.13739(17)
O3 O 0.21451(11) 0.7638(3) 0.20536(16)
O4 O 0.21829(11) 0.5256(2) 0.10940(17)
C1 C 0.36713(17) 0.5811(4) 0.1498(3)
Gd2 Gd 0.248554(8) 0.74949(2) 0.029034(13)
C2 C 0.18268(17) 0.8677(4) 0.1858(3)
C3 C 0.16531(16) 0.5362(4) 0.0686(2)
C4 C 0.41892(17) 0.5844(5) 0.0805(3)
O5 O 0.18790(11) 0.9227(3) 0.10572(17)
O6 O 0.31454(11) 0.9280(3) 0.03714(17)
O7 O 0.15263(11) 0.6361(3) 0.01746(18)
O8 O 0.30934(10) 0.7620(3) -0.13889(16)
O9 O 0.28024(12) 0.5723(3) -0.07734(17)
O10 O 0.19643(11) 0.8639(3) -0.09573(17)
C5 C 0.13907(16) 0.9241(4) 0.2576(2)
C6 C 0.11916(16) 0.4263(4) 0.0810(3)
H1 H 0.4213 0.6736 0.0538
H2 H 0.4091 0.5243 0.0275
C7 C 0.48124(17) 0.5476(5) 0.1218(3)
C8 C 0.32928(17) 1.0253(4) -0.0142(3)
C9 C 0.30655(17) 0.6359(4) -0.1433(3)
C10 C 0.14709(18) 0.9217(4) -0.1270(3)
H3 H 0.1581 0.9995 0.2902
H4 H 0.1306 0.8569 0.3058
C11 C 0.07930(16) 0.9686(4) 0.2095(2)
H5 H 0.1157 0.4069 0.1492
H6 H 0.1336 0.3464 0.0495
C12 C 0.05685(16) 0.4624(4) 0.0395(3)
C13 C 0.52591(18) 0.6434(4) 0.1349(3)
C14 C 0.49581(17) 0.4158(4) 0.1445(3)
C15 C 0.37850(16) 1.1159(4) 0.0272(3)
O11 O 0.30644(11) 1.0508(3) -0.09616(17)
O12 O 0.14938(14) 0.9829(4) -0.2038(2)
O13 O 0.2517(2) 1.1749(3) -0.2518(2)
C16 C 0.33658(16) 0.5604(4) -0.2228(2)
C17 C 0.09019(17) 0.9101(4) -0.0682(3)
C18 C 0.06776(17) 1.1007(4) 0.1893(3)
C19 C 0.03589(18) 0.8745(4) 0.1800(3)
C20 C 0.04313(16) 0.4413(4) -0.0578(3)
C21 C 0.01341(18) 0.5212(4) 0.0968(3)
H7 H 0.5168 0.7320 0.1211
C22 C 0.58453(18) 0.6091(4) 0.1685(3)
C23 C 0.55403(17) 0.3826(4) 0.1784(3)
H8 H 0.4663 0.3497 0.1368
H9 H 0.3722 1.1292 0.0955
H10 H 0.3761 1.2020 -0.0045
C24 C 0.44152(16) 1.0550(4) 0.0128(3)
H11 H 0.2404(14) 1.210(3) -0.3042(10)
H12 H 0.2328(14) 1.208(3) -0.2056(12)
C25 C 0.40096(17) 0.5218(4) -0.1903(2)
H13 H 0.3131 0.4810 -0.2385
H14 H 0.3380 0.6155 -0.2803
C26 C 0.03141(16) 0.9532(4) -0.1187(2)
H15 H 0.0959 0.9632 -0.0101
H16 H 0.0858 0.8180 -0.0483
H17 H 0.0970 1.1645 0.2058
C27 C 0.01310(17) 1.1400(4) 0.1445(2)
C28 C -0.01884(17) 0.9142(4) 0.1358(3)
H18 H 0.0436 0.7843 0.1900
H19 H 0.0719 0.4020 -0.0970
H20 H 0.0222 0.5356 0.1620
H21 H 0.6142 0.6750 0.1763
H22 H 0.5630 0.2943 0.1934
C29 C 0.48451(17) 1.0475(4) 0.0888(3)
C30 C 0.45815(17) 1.0054(4) -0.0761(3)
H23 H 0.0062 1.2298 0.1317
H24 H -0.0476 0.8501 0.1174
H25 H 0.4742 1.0790 0.1494
H26 H 0.4302 1.0080 -0.1279
Gd1C Gd 0.259518(8) 0.939021(19) -0.230380(13)
O2C O 0.32390(11) 0.8341(3) -0.36261(17)
O4C O 0.21829(11) 0.9744(2) -0.39060(17)
O1C O 0.36389(12) 1.0039(3) -0.28443(18)
O3C O 0.21451(11) 0.7362(3) -0.29464(16)
C21B C -0.01341(18) 0.4788(4) -0.0968(3)
C20B C -0.04313(16) 0.5587(4) 0.0578(3)
C25B C 0.59904(17) 0.4782(4) 0.1903(2)
C22B C 0.41547(18) 0.3909(4) -0.1685(3)
C23B C 0.44597(17) 0.6174(4) -0.1784(3)
C28B C 0.01884(17) 1.0858(4) -0.1358(3)
C27B C -0.01310(17) 0.8600(4) -0.1445(2)
C26B C -0.03141(16) 1.0468(4) 0.1187(2)
C12B C -0.05685(16) 0.5376(4) -0.0395(3)
H20B H -0.0222 0.4644 -0.1620
H19B H -0.0719 0.5980 0.0970
C16B C 0.66342(16) 0.4396(4) 0.2228(2)
C30B C 0.54185(17) 0.9946(4) 0.0761(3)
C29B C 0.51549(17) 0.9525(4) -0.0888(3)
C13B C 0.47409(18) 0.3566(4) -0.1349(3)
H21B H 0.3858 0.3250 -0.1763
C14B C 0.50419(17) 0.5842(4) -0.1445(3)
H22B H 0.4370 0.7057 -0.1934
H24B H 0.0476 1.1499 -0.1174
C19B C -0.03589(18) 1.1255(4) -0.1800(3)
H23B H -0.0062 0.7702 -0.1317
C18B C -0.06776(17) 0.8993(4) -0.1893(3)
C17B C -0.09019(17) 1.0899(4) 0.0682(3)
C6B C -0.11916(16) 0.5737(4) -0.0810(3)
H13B H 0.6869 0.5190 0.2385
H14B H 0.6620 0.3845 0.2803
C9B C 0.69345(17) 0.3641(4) 0.1433(3)
C24B C 0.55848(16) 0.9450(4) -0.0128(3)
H26B H 0.5698 0.9920 0.1279
H25B H 0.5258 0.9210 -0.1494
C7B C 0.51876(17) 0.4524(5) -0.1218(3)
H7B H 0.4832 0.2680 -0.1211
H8B H 0.5337 0.6503 -0.1368
H18B H -0.0436 1.2157 -0.1900
C11B C -0.07930(16) 1.0314(4) -0.2095(2)
H17B H -0.0970 0.8355 -0.2058
H15B H -0.0959 1.0368 0.0101
H16B H -0.0858 1.1820 0.0483
C10B C -0.14709(18) 1.0783(4) 0.1270(3)
C3B C -0.16531(16) 0.4638(4) -0.0686(2)
H5B H -0.1157 0.5931 -0.1492
H6B H -0.1336 0.6536 -0.0495
O8B O 0.69066(10) 0.2380(3) 0.13889(16)
O9B O 0.71976(12) 0.4277(3) 0.07734(17)
C15B C 0.62150(16) 0.8841(4) -0.0272(3)
C4B C 0.58108(17) 0.4156(5) -0.0805(3)
C5B C -0.13907(16) 1.0759(4) -0.2576(2)
O10B O -0.19643(11) 1.1361(3) 0.09573(17)
O12B O -0.14938(14) 1.0171(4) 0.2038(2)
O4B O -0.21829(11) 0.4744(2) -0.10940(17)
O7B O -0.15263(11) 0.3639(3) -0.01746(18)
Gd1A Gd 0.740482(8) 0.060979(19) 0.230380(13)
Gd2B Gd 0.751446(8) 0.25051(2) -0.029034(13)
C8B C 0.67072(17) 0.9747(4) 0.0142(3)
H9B H 0.6278 0.8708 -0.0955
H10B H 0.6239 0.7980 0.0045
C1B C 0.63287(17) 0.4189(4) -0.1498(3)
H1B H 0.5787 0.3264 -0.0538
H2B H 0.5909 0.4757 -0.0275
H4B H -0.1306 1.1431 -0.3058
C2B C -0.18268(17) 1.1323(4) -0.1858(3)
H3B H -0.1581 1.0005 -0.2902
Gd1A_2 Gd -0.259518(8) 1.060979(19) 0.230380(13)
Gd2B_2 Gd -0.248554(8) 1.25051(2) -0.029034(13)
Gd1B Gd -0.259518(8) 0.439021(19) -0.269620(13)
Gd2B_3 Gd -0.248554(8) 0.25051(2) -0.029034(13)
Gd1A_3 Gd 0.740482(8) 1.060979(19) 0.230380(13)
O2B O 0.67610(11) 0.3341(3) -0.13739(17)
O6B O 0.68546(11) 1.0720(3) -0.03714(17)
O11B O 0.69356(11) 0.9492(3) 0.09616(17)
O1B O 0.63611(12) 0.5039(3) -0.21557(18)
O5B O -0.18790(11) 1.0773(3) -0.10572(17)
O3B O -0.21451(11) 1.2362(3) -0.20536(16)
O2A O -0.32390(11) 1.1659(3) 0.36261(17)
O4A O -0.21829(11) 1.0256(2) 0.39060(17)
O1A O -0.36389(12) 0.9961(3) 0.28443(18)
O8B_2 O -0.30934(10) 1.2380(3) 0.13889(16)
O3A O -0.21451(11) 1.2638(3) 0.29464(16)
O13B O -0.2517(2) 0.8251(3) 0.2518(2)
O11B_2 O -0.30644(11) 0.9492(3) 0.09616(17)
O7B_2 O -0.15263(11) 1.3639(3) -0.01746(18)
O2B_2 O -0.32390(11) 1.3341(3) -0.13739(17)
O4B_2 O -0.21829(11) 1.4744(2) -0.10940(17)
O9B_2 O -0.28024(12) 1.4277(3) 0.07734(17)
O6B_2 O -0.31454(11) 1.0720(3) -0.03714(17)
Gd1B_2 Gd 0.740482(8) 0.439021(19) -0.269620(13)
Gd2B_4 Gd 0.751446(8) 1.25051(2) -0.029034(13)
Gd1B_3 Gd -0.259518(8) 1.439021(19) -0.269620(13)
H11B H -0.2404(14) 0.790(3) 0.3042(10)
H12B H -0.2328(14) 0.792(3) 0.2056(12)
O14 O 0.22985(16) 1.1874(3) 0.0928(2)
H27 H 0.2163(16) 1.1092(14) 0.0938(19)
H28 H 0.2267(16) 1.219(3) 0.0368(9)
O15 O 0.2419(3) 1.3115(4) -0.0826(3)
H29 H 0.2042(3) 1.325(3) -0.091(4)
H30 H 0.2617(11) 1.3820(18) -0.091(3)
loop_
_geom_bond_atom_site_label_1
_geom_bond_atom_site_label_2
_geom_bond_site_symmetry_1
_geom_bond_site_symmetry_2
Gd1 O1 1_555 1_555
O1 C1 1_555 1_555
O2 Gd1 1_555 1_555
O3 Gd1 1_555 1_555
O4 Gd1 1_555 1_555
C1 O2 1_555 1_555
Gd2 O2 1_555 1_555
C2 O3 1_555 1_555
C3 O4 1_555 1_555
C4 C1 1_555 1_555
O5 Gd2 1_555 1_555
O6 Gd2 1_555 1_555
O7 Gd2 1_555 1_555
O8 Gd2 1_555 1_555
O9 Gd2 1_555 1_555
O10 Gd2 1_555 1_555
C5 C2 1_555 1_555
C6 C3 1_555 1_555
H1 C4 1_555 1_555
H2 C4 1_555 1_555
C7 C4 1_555 1_555
C8 O6 1_555 1_555
C9 O8 1_555 1_555
C10 O10 1_555 1_555
H3 C5 1_555 1_555
H4 C5 1_555 1_555
C11 C5 1_555 1_555
H5 C6 1_555 1_555
H6 C6 1_555 1_555
C12 C6 1_555 1_555
C13 C7 1_555 1_555
C14 C7 1_555 1_555
C15 C8 1_555 1_555
O11 C8 1_555 1_555
O12 C10 1_555 1_555
O13 H11 1_555 1_555
C16 C9 1_555 1_555
C17 C10 1_555 1_555
C18 C11 1_555 1_555
C19 C11 1_555 1_555
C20 C12 1_555 1_555
C21 C12 1_555 1_555
H7 C13 1_555 1_555
C22 C13 1_555 1_555
C23 C14 1_555 1_555
H8 C14 1_555 1_555
H9 C15 1_555 1_555
H10 C15 1_555 1_555
C24 C15 1_555 1_555
H12 O13 1_555 1_555
C25 C16 1_555 1_555
H13 C16 1_555 1_555
H14 C16 1_555 1_555
C26 C17 1_555 1_555
H15 C17 1_555 1_555
H16 C17 1_555 1_555
H17 C18 1_555 1_555
C27 C18 1_555 1_555
C28 C19 1_555 1_555
H18 C19 1_555 1_555
H19 C20 1_555 1_555
H20 C21 1_555 1_555
H21 C22 1_555 1_555
H22 C23 1_555 1_555
C29 C24 1_555 1_555
C30 C24 1_555 1_555
H23 C27 1_555 1_555
H24 C28 1_555 1_555
H25 C29 1_555 1_555
H26 C30 1_555 1_555
O14 H27 1_555 1_555
H28 O14 1_555 1_555
O15 H29 1_555 1_555
H30 O15 1_555 1_555
Gd1C O8 1_555 1_555
O2C Gd1C 1_555 1_555
O4C Gd1C 1_555 1_555
O1C Gd1C 1_555 1_555
O3C Gd1C 1_555 1_555
C21B C20 1_555 1_555
C20B C21 1_555 1_555
C25B C22 1_555 1_555
C22B C25 1_555 1_555
C23B C25 1_555 1_555
C28B C26 1_555 1_555
C27B C26 1_555 1_555
C26B C27 1_555 1_555
C12B C21B 1_555 1_555
H20B C21B 1_555 1_555
H19B C20B 1_555 1_555
C16B C25B 1_555 1_555
C30B C29 1_555 1_555
C29B C30 1_555 1_555
C13B C22B 1_555 1_555
H21B C22B 1_555 1_555
C14B C23B 1_555 1_555
H22B C23B 1_555 1_555
H24B C28B 1_555 1_555
C19B C28B 1_555 1_555
H23B C27B 1_555 1_555
C18B C27B 1_555 1_555
C17B C26B 1_555 1_555
C6B C12B 1_555 1_555
H13B C16B 1_555 1_555
H14B C16B 1_555 1_555
C9B C16B 1_555 1_555
C24B C30B 1_555 1_555
H26B C30B 1_555 1_555
H25B C29B 1_555 1_555
C7B C13B 1_555 1_555
H7B C13B 1_555 1_555
H8B C14B 1_555 1_555
H18B C19B 1_555 1_555
C11B C19B 1_555 1_555
H17B C18B 1_555 1_555
H15B C17B 1_555 1_555
H16B C17B 1_555 1_555
C10B C17B 1_555 1_555
C3B C6B 1_555 1_555
H5B C6B 1_555 1_555
H6B C6B 1_555 1_555
O8B C9B 1_555 1_555
O9B C9B 1_555 1_555
C15B C24B 1_555 1_555
C4B C7B 1_555 1_555
C5B C11B 1_555 1_555
O10B C10B 1_555 1_555
O12B C10B 1_555 1_555
O4B C3B 1_555 1_555
O7B C3B 1_555 1_555
Gd1A O8B 1_555 1_555
Gd2B O8B 1_555 1_555
C8B C15B 1_555 1_555
H9B C15B 1_555 1_555
H10B C15B 1_555 1_555
C1B C4B 1_555 1_555
H1B C4B 1_555 1_555
H2B C4B 1_555 1_555
H4B C5B 1_555 1_555
C2B C5B 1_555 1_555
H3B C5B 1_555 1_555
Gd1A_2 O10B 1_555 1_555
Gd2B_2 O10B 1_555 1_555
Gd1B O4B 1_555 1_555
Gd2B_3 O4B 1_555 1_555
Gd1A_3 O11B 1_555 1_555
O2B Gd2B 1_555 1_555
O6B C8B 1_555 1_555
O11B C8B 1_555 1_555
O1B C1B 1_555 1_555
O5B C2B 1_555 1_555
O3B C2B 1_555 1_555
O2A Gd1A_2 1_555 1_555
O4A Gd1A_2 1_555 1_555
O1A Gd1A_2 1_555 1_555
O8B_2 Gd1A_2 1_555 1_555
O3A Gd1A_2 1_555 1_555
O13B Gd1A_2 1_555 1_555
O11B_2 Gd1A_2 1_555 1_555
O7B_2 Gd2B_2 1_555 1_555
O2B_2 Gd2B_2 1_555 1_555
O4B_2 Gd2B_2 1_555 1_555
O9B_2 Gd2B_2 1_555 1_555
O6B_2 Gd2B_2 1_555 1_555
Gd1B_2 O2B 1_555 1_555
Gd2B_4 O6B 1_555 1_555
Gd1B_3 O3B 1_555 1_555
H11B O13B 1_555 1_555
H12B O13B 1_555 1_555
O3 Gd2 1_555 1_555
O4 Gd2 1_555 1_555
C2 O5 1_555 1_555
C3 O7 1_555 1_555
O9 C9 1_555 1_555
O10 Gd1C 1_555 1_555
O11 Gd1C 1_555 1_555
O12 Gd1C 1_555 1_555
O13 Gd1C 1_555 1_555
C23 C25B 1_555 1_555
C28 C26B 1_555 1_555
C20B C12B 1_555 1_555
C29B C24B 1_555 1_555
C14B C7B 1_555 1_555
C18B C11B 1_555 1_555
O9B Gd2B 1_555 1_555
O12B Gd1A_2 1_555 1_555
O7B Gd2B_3 1_555 1_555
C1B O2B 1_555 1_555
Gd2B_2 O5B 1_555 1_555
Gd2B_2 O3B 1_555 1_555
Gd2B_2 O8B_2 1_555 1_555
O1B Gd1B_2 1_555 1_555
O2B_2 Gd1B_3 1_555 1_555
O4B_2 Gd1B_3 1_555 1_555

#END
