
#######################################################################
#
#                 Cambridge Crystallographic Data Centre
#                                CCDC 
#
#######################################################################
#
# If this CIF has been generated from an entry in the Cambridge 
# Structural Database, then it will include bibliographic, chemical, 
# crystal, experimental, refinement or atomic coordinate data resulting 
# from the CCDC's data processing and validation procedures.
#
#######################################################################

data_CAKFEB
_symmetry_cell_setting           monoclinic
_symmetry_space_group_name_H-M   'P 21/c'
_symmetry_Int_Tables_number      14
_space_group_name_Hall           '-P 2ybc'
loop_
_symmetry_equiv_pos_site_id
_symmetry_equiv_pos_as_xyz
1 x,y,z
2 -x,1/2+y,1/2-z
3 -x,-y,-z
4 x,1/2-y,1/2+z
_cell_length_a                   21.835(4)
_cell_length_b                   10.110(2)
_cell_length_c                   13.987(3)
_cell_angle_alpha                90
_cell_angle_beta                 91.62(3)
_cell_angle_gamma                90
_cell_volume                     3086.42
loop_
_atom_site_label
_atom_site_type_symbol
_atom_site_fract_x
_atom_site_fract_y
_atom_site_fract_z
Gd1 Gd 0.240250(6) -0.436660(14) 0.231280(9)
Gd2 Gd 0.251320(6) -0.250150(14) -0.027000(10)
O1 O 0.24946(16) -0.6708(3) 0.2525(2)
H1 H 0.2544 -0.7029 0.3083
H2 H 0.2477 -0.7219 0.2042
O2 O 0.30350(9) -0.3653(2) 0.09636(14)
O3 O 0.21800(12) -0.0742(2) 0.07697(17)
O4 O -0.17645(9) 0.1690(2) 0.13475(16)
C1 C 0.19255(13) -0.1376(3) 0.1424(2)
C2 C 0.35263(14) -0.4198(4) 0.1279(2)
O5 O 0.18768(12) -0.4310(2) -0.03584(16)
O6 O 0.28205(9) -0.0292(2) -0.10936(14)
O7 O 0.34580(10) -0.1331(3) -0.01343(19)
C3 C 0.46872(14) -0.4511(4) 0.1189(2)
C4 C 0.57950(14) -0.5314(3) 0.2076(2)
C5 C 0.53595(16) -0.6224(4) 0.1792(2)
H3 H 0.5433 -0.7120 0.1895
C6 C -0.00474(17) -0.0769(4) 0.1430(3)
H4 H -0.0349 -0.1411 0.1340
C7 C 0.16281(15) -0.0619(3) 0.2215(2)
H5 H 0.1607 -0.1171 0.2781
H6 H 0.1871 0.0156 0.2378
O8 O -0.13555(12) 0.0084(3) 0.21612(19)
C8 C 0.09884(15) -0.0200(3) 0.1893(2)
C9 C 0.08492(17) 0.1118(4) 0.1714(3)
H7 H 0.1146 0.1766 0.1815
C10 C 0.48126(16) -0.5831(4) 0.1357(3)
H8 H 0.4524 -0.6467 0.1174
C11 C -0.01838(16) 0.0527(4) 0.1232(3)
C12 C 0.05326(16) -0.1141(4) 0.1763(3)
H9 H 0.0615 -0.2024 0.1898
C13 C 0.51306(15) -0.3602(4) 0.1458(2)
H10 H 0.5062 -0.2708 0.1340
O9 O 0.35091(12) -0.4813(4) 0.20396(19)
C14 C 0.40984(15) -0.4070(4) 0.0701(2)
H11 H 0.4040 -0.4581 0.0118
H12 H 0.4143 -0.3151 0.0517
C15 C 0.02662(19) 0.1468(4) 0.1385(3)
H13 H 0.0177 0.2353 0.1265
C16 C 0.56774(15) -0.3999(4) 0.1903(2)
H14 H 0.5967 -0.3368 0.2087
C17 C 0.68202(14) -0.6360(3) 0.1863(2)
C18 C 0.45737(15) 0.0584(3) 0.0566(2)
H15 H 0.4286 0.0978 0.0952
C19 C 0.44286(14) 0.0363(3) -0.0394(2)
C20 C 0.33394(14) -0.0376(3) -0.0663(2)
C21 C 0.48628(15) -0.0227(3) -0.0956(2)
H16 H 0.4774 -0.0385 -0.1600
C22 C 0.38071(14) 0.0695(3) -0.0800(2)
H17 H 0.3665 0.1500 -0.0500
H18 H 0.3839 0.0869 -0.1478
C23 C -0.13291(14) 0.0885(4) 0.1491(2)
C24 C 0.63864(16) -0.5766(4) 0.2557(2)
H19 H 0.6583 -0.5017 0.2872
H20 H 0.6295 -0.6415 0.3043
C25 C -0.08025(18) 0.0936(6) 0.0824(3)
H21 H -0.0901 0.0372 0.0280
H22 H -0.0769 0.1834 0.0586
C26 C 0.17143(14) -0.5236(3) 0.0166(2)
C27 C 0.12161(14) -0.6145(3) -0.0225(2)
H23 H 0.1237 -0.6984 0.0111
H24 H 0.1282 -0.6314 -0.0897
C28 C 0.05875(15) -0.5538(3) -0.0111(2)
C29 C 0.01683(16) -0.5503(4) -0.0868(2)
H25 H 0.0278 -0.5833 -0.1460
C30 C 0.04121(16) -0.5014(4) 0.0761(2)
H26 H 0.0689 -0.5011 0.1278
O10 O 0.68662(12) -0.5847(3) 0.10550(16)
O11 O 0.19086(10) -0.2614(2) 0.13879(17)
O12 O 0.19324(11) -0.5457(2) 0.09866(15)
O13 O 0.71476(11) -0.7352(2) 0.20708(18)
Gd1A Gd 0.759750(6) 0.063340(14) 0.268720(9)
Gd1A_2 Gd 0.759750(6) -0.936660(14) 0.268720(9)
Gd1B Gd -0.240250(6) -0.563340(14) -0.231280(9)
Gd1A_3 Gd -0.240250(6) 0.063340(14) 0.268720(9)
Gd1C Gd 0.240250(6) -0.063340(14) -0.268720(9)
Gd1B_2 Gd 0.759750(6) -0.563340(14) -0.231280(9)
Gd1B_3 Gd -0.240250(6) 0.436660(14) -0.231280(9)
Gd2B Gd 0.748680(6) -0.749850(14) 0.027000(10)
Gd2B_2 Gd -0.251320(6) -0.749850(14) 0.027000(10)
Gd2B_3 Gd -0.251320(6) 0.250150(14) 0.027000(10)
Gd2B_4 Gd 0.748680(6) 0.250150(14) 0.027000(10)
O1B O 0.75054(16) -0.3292(3) -0.2525(2)
H1B H 0.7456 -0.2971 -0.3083
H2B H 0.7523 -0.2781 -0.2042
O2B O 0.69650(9) -0.6347(2) -0.09636(14)
O3B O 0.78200(12) -0.9258(2) -0.07697(17)
O3B_2 O -0.21800(12) 0.0742(2) -0.07697(17)
O4A O 0.17645(9) -0.3310(2) 0.36525(16)
O4B O 0.17645(9) -0.1690(2) -0.13475(16)
O4_2 O 0.82355(9) -0.8310(2) 0.13475(16)
O4C O 0.82355(9) -0.6690(2) -0.36525(16)
C1B C -0.19255(13) 0.1376(3) -0.1424(2)
C2B C 0.64737(14) -0.5802(4) -0.1279(2)
O5B O -0.18768(12) -0.5690(2) 0.03584(16)
O5B_2 O 0.81232(12) -0.5690(2) 0.03584(16)
O6C O 0.28205(9) -0.4708(2) 0.39064(14)
O6B O 0.71795(9) 0.0292(2) 0.10936(14)
O6B_2 O 0.71795(9) -0.9708(2) 0.10936(14)
O6A O 0.71795(9) -0.5292(2) -0.39064(14)
O7B O 0.65420(10) -0.8669(3) 0.01343(19)
O7B_2 O 0.65420(10) 0.1331(3) 0.01343(19)
C3B C 0.53128(14) -0.5489(4) -0.1189(2)
C4B C 0.42050(14) -0.4686(3) -0.2076(2)
C5B C 0.46405(16) -0.3776(4) -0.1792(2)
H3B H 0.4567 -0.2880 -0.1895
C6B C 0.00474(17) 0.0769(4) -0.1430(3)
H4B H 0.0349 0.1411 -0.1340
C7B C -0.16281(15) 0.0619(3) -0.2215(2)
H5B H -0.1607 0.1171 -0.2781
H6B H -0.1871 -0.0156 -0.2378
O8A O 0.13555(12) -0.4916(3) 0.28388(19)
O8B O 0.13555(12) -0.0084(3) -0.21612(19)
O8C O 0.86445(12) -0.5084(3) -0.28388(19)
C8B C -0.09884(15) 0.0200(3) -0.1893(2)
C9B C -0.08492(17) -0.1118(4) -0.1714(3)
H7B H -0.1146 -0.1766 -0.1815
C10B C 0.51874(16) -0.4169(4) -0.1357(3)
H8B H 0.5476 -0.3533 -0.1174
C11B C 0.01838(16) -0.0527(4) -0.1232(3)
C12B C -0.05326(16) 0.1141(4) -0.1763(3)
H9B H -0.0615 0.2024 -0.1898
C13B C 0.48694(15) -0.6398(4) -0.1458(2)
H10B H 0.4938 -0.7292 -0.1340
O9B O 0.64909(12) -0.5187(4) -0.20396(19)
C14B C 0.59016(15) -0.5930(4) -0.0701(2)
H11B H 0.5960 -0.5419 -0.0118
H12B H 0.5857 -0.6849 -0.0517
C15B C -0.02662(19) -0.1468(4) -0.1385(3)
H13B H -0.0177 -0.2353 -0.1265
C16B C 0.43226(15) -0.6001(4) -0.1903(2)
H14B H 0.4033 -0.6632 -0.2087
C17B C 0.31798(14) -0.3640(3) -0.1863(2)
C18B C 0.54263(15) -0.0584(3) -0.0566(2)
H15B H 0.5714 -0.0978 -0.0952
C19B C 0.55714(14) -0.0363(3) 0.0394(2)
C20B C 0.66606(14) 0.0376(3) 0.0663(2)
C21B C 0.51372(15) 0.0227(3) 0.0956(2)
H16B H 0.5226 0.0385 0.1600
C22B C 0.61929(14) -0.0695(3) 0.0800(2)
H17B H 0.6335 -0.1500 0.0500
H18B H 0.6161 -0.0869 0.1478
C23B C 0.13291(14) -0.0885(4) -0.1491(2)
C24B C 0.36136(16) -0.4234(4) -0.2557(2)
H19B H 0.3417 -0.4983 -0.2872
H20B H 0.3705 -0.3585 -0.3043
C25B C 0.08025(18) -0.0936(6) -0.0824(3)
H21B H 0.0901 -0.0372 -0.0280
H22B H 0.0769 -0.1834 -0.0586
C26B C -0.17143(14) -0.4764(3) -0.0166(2)
C27B C -0.12161(14) -0.3855(3) 0.0225(2)
H23B H -0.1237 -0.3016 -0.0111
H24B H -0.1282 -0.3686 0.0897
C28B C -0.05875(15) -0.4462(3) 0.0111(2)
C29B C -0.01683(16) -0.4497(4) 0.0868(2)
H25B H -0.0278 -0.4167 0.1460
C30B C -0.04121(16) -0.4986(4) -0.0761(2)
H26B H -0.0689 -0.4989 -0.1278
O10B O 0.31338(12) -0.4153(3) -0.10550(16)
O11B O 0.80914(10) -0.7386(2) -0.13879(17)
O11B_2 O -0.19086(10) 0.2614(2) -0.13879(17)
O12B O -0.19324(11) -0.4543(2) -0.09866(15)
O12B_2 O 0.80676(11) -0.4543(2) -0.09866(15)
O13A O 0.28524(11) -0.2352(2) 0.29292(18)
O13B O 0.28524(11) -0.2648(2) -0.20708(18)
O13C O 0.71476(11) -0.7648(2) -0.29292(18)
O14 O 0.27682(17) -0.8186(3) 0.4097(2)
H27 H 0.2736 -0.8498 0.3534
H28 H 0.2839 -0.8701 0.4568
O15 O 0.2582(2) -0.8155(3) 0.0874(2)
H29 H 0.2685 -0.8839 0.1194
H30 H 0.2516 -0.8212 0.0274
loop_
_geom_bond_atom_site_label_1
_geom_bond_atom_site_label_2
_geom_bond_site_symmetry_1
_geom_bond_site_symmetry_2
Gd1 O1 1_555 1_555
Gd2 O2 1_555 1_555
O1 H1 1_555 1_555
H2 O1 1_555 1_555
O2 Gd1 1_555 1_555
O3 Gd2 1_555 1_555
O4 C23 1_555 1_555
C1 O3 1_555 1_555
C2 O2 1_555 1_555
O5 Gd2 1_555 1_555
O6 Gd2 1_555 1_555
O7 Gd2 1_555 1_555
C3 C10 1_555 1_555
C4 C5 1_555 1_555
C5 H3 1_555 1_555
C6 H4 1_555 1_555
C7 C1 1_555 1_555
H5 C7 1_555 1_555
H6 C7 1_555 1_555
O8 C23 1_555 1_555
C8 C7 1_555 1_555
C9 C8 1_555 1_555
H7 C9 1_555 1_555
C10 C5 1_555 1_555
H8 C10 1_555 1_555
C11 C6 1_555 1_555
C12 C6 1_555 1_555
H9 C12 1_555 1_555
C13 C3 1_555 1_555
H10 C13 1_555 1_555
O9 Gd1 1_555 1_555
C14 C2 1_555 1_555
H11 C14 1_555 1_555
H12 C14 1_555 1_555
C15 C9 1_555 1_555
H13 C15 1_555 1_555
C16 C4 1_555 1_555
H14 C16 1_555 1_555
C17 C24 1_555 1_555
C18 H15 1_555 1_555
C19 C18 1_555 1_555
C20 O6 1_555 1_555
C21 C19 1_555 1_555
H16 C21 1_555 1_555
C22 C19 1_555 1_555
H17 C22 1_555 1_555
H18 C22 1_555 1_555
C23 C25 1_555 1_555
C24 C4 1_555 1_555
H19 C24 1_555 1_555
H20 C24 1_555 1_555
C25 C11 1_555 1_555
H21 C25 1_555 1_555
H22 C25 1_555 1_555
C26 O5 1_555 1_555
C27 C26 1_555 1_555
H23 C27 1_555 1_555
H24 C27 1_555 1_555
C28 C27 1_555 1_555
C29 C28 1_555 1_555
H25 C29 1_555 1_555
C30 C28 1_555 1_555
H26 C30 1_555 1_555
O10 C17 1_555 1_555
O11 Gd1 1_555 1_555
O12 Gd1 1_555 1_555
O13 C17 1_555 1_555
O14 H27 1_555 1_555
H28 O14 1_555 1_555
O15 H29 1_555 1_555
H30 O15 1_555 1_555
Gd1A O6B 1_555 1_555
Gd1A_2 O13 1_555 1_555
Gd1B O12B 1_555 1_555
Gd1A_3 O4 1_555 1_555
Gd1C O6 1_555 1_555
Gd1B_2 O1B 1_555 1_555
Gd1B_3 O11B_2 1_555 1_555
Gd2B O10 1_555 1_555
Gd2B_2 O5B 1_555 1_555
Gd2B_3 O4 1_555 1_555
Gd2B_4 O6B 1_555 1_555
O1B H1B 1_555 1_555
H2B O1B 1_555 1_555
O2B Gd1B_2 1_555 1_555
O3B Gd2B 1_555 1_555
O3B_2 Gd2B_3 1_555 1_555
O4A Gd1 1_555 1_555
O4B Gd2 1_555 1_555
O4_2 Gd1A_2 1_555 1_555
O4C Gd1B_2 1_555 1_555
C1B O3B_2 1_555 1_555
C2B O2B 1_555 1_555
O5B C26B 1_555 1_555
O5B_2 Gd2B 1_555 1_555
O6C Gd1 1_555 1_555
O6B C20B 1_555 1_555
O6B_2 Gd1A_2 1_555 1_555
O6A Gd1B_2 1_555 1_555
O7B Gd2B 1_555 1_555
O7B_2 Gd2B_4 1_555 1_555
C3B C10B 1_555 1_555
C4B C5B 1_555 1_555
C5B H3B 1_555 1_555
C6B H4B 1_555 1_555
C7B C1B 1_555 1_555
H5B C7B 1_555 1_555
H6B C7B 1_555 1_555
O8A Gd1 1_555 1_555
O8B Gd1C 1_555 1_555
O8C Gd1B_2 1_555 1_555
C8B C7B 1_555 1_555
C9B C8B 1_555 1_555
H7B C9B 1_555 1_555
C10B C5B 1_555 1_555
H8B C10B 1_555 1_555
C11B C6B 1_555 1_555
C12B C6B 1_555 1_555
H9B C12B 1_555 1_555
C13B C3B 1_555 1_555
H10B C13B 1_555 1_555
O9B Gd1B_2 1_555 1_555
C14B C2B 1_555 1_555
H11B C14B 1_555 1_555
H12B C14B 1_555 1_555
C15B C9B 1_555 1_555
H13B C15B 1_555 1_555
C16B C4B 1_555 1_555
H14B C16B 1_555 1_555
C17B C24B 1_555 1_555
C18B C21 1_555 1_555
H15B C18B 1_555 1_555
C19B C18B 1_555 1_555
C20B O7B_2 1_555 1_555
C21B C18 1_555 1_555
H16B C21B 1_555 1_555
C22B C19B 1_555 1_555
H17B C22B 1_555 1_555
H18B C22B 1_555 1_555
C23B O4B 1_555 1_555
C24B C4B 1_555 1_555
H19B C24B 1_555 1_555
H20B C24B 1_555 1_555
C25B C11B 1_555 1_555
H21B C25B 1_555 1_555
H22B C25B 1_555 1_555
C26B C27B 1_555 1_555
C27B H23B 1_555 1_555
H24B C27B 1_555 1_555
C28B C27B 1_555 1_555
C29B C30 1_555 1_555
H25B C29B 1_555 1_555
C30B C29 1_555 1_555
H26B C30B 1_555 1_555
O10B Gd2 1_555 1_555
O11B Gd1B_2 1_555 1_555
O11B_2 Gd2B_3 1_555 1_555
O12B C26B 1_555 1_555
O12B_2 Gd1B_2 1_555 1_555
O13A Gd1 1_555 1_555
O13B Gd2 1_555 1_555
O13C Gd1B_2 1_555 1_555
Gd2 O11 1_555 1_555
C1 O11 1_555 1_555
C2 O9 1_555 1_555
O7 C20 1_555 1_555
C3 C14 1_555 1_555
O8 Gd1A_3 1_555 1_555
C8 C12 1_555 1_555
C11 C15 1_555 1_555
C13 C16 1_555 1_555
C20 C22 1_555 1_555
C26 O12 1_555 1_555
O13 Gd2B 1_555 1_555
Gd1C O4B 1_555 1_555
Gd1C O13B 1_555 1_555
Gd2B O2B 1_555 1_555
Gd2B O4_2 1_555 1_555
Gd2B O6B_2 1_555 1_555
Gd2B O11B 1_555 1_555
C1B O11B_2 1_555 1_555
C2B O9B 1_555 1_555
C3B C14B 1_555 1_555
O8B C23B 1_555 1_555
C8B C12B 1_555 1_555
C11B C15B 1_555 1_555
C13B C16B 1_555 1_555
C17B O10B 1_555 1_555
C17B O13B 1_555 1_555
C19B C21B 1_555 1_555
C20B C22B 1_555 1_555
C23B C25B 1_555 1_555
C28B C29B 1_555 1_555
C28B C30B 1_555 1_555

#END
