
#######################################################################
#
#                 Cambridge Crystallographic Data Centre
#                                CCDC 
#
#######################################################################
#
# If this CIF has been generated from an entry in the Cambridge 
# Structural Database, then it will include bibliographic, chemical, 
# crystal, experimental, refinement or atomic coordinate data resulting 
# from the CCDC's data processing and validation procedures.
#
#######################################################################

data_CAKFIF
_symmetry_cell_setting           monoclinic
_symmetry_space_group_name_H-M   'P 21/c'
_symmetry_Int_Tables_number      14
_space_group_name_Hall           '-P 2ybc'
loop_
_symmetry_equiv_pos_site_id
_symmetry_equiv_pos_as_xyz
1 x,y,z
2 -x,1/2+y,1/2-z
3 -x,-y,-z
4 x,1/2-y,1/2+z
_cell_length_a                   21.787(4)
_cell_length_b                   10.082(2)
_cell_length_c                   13.977(3)
_cell_angle_alpha                90
_cell_angle_beta                 91.59(3)
_cell_angle_gamma                90
_cell_volume                     3068.96
loop_
_atom_site_label
_atom_site_type_symbol
_atom_site_fract_x
_atom_site_fract_y
_atom_site_fract_z
Tb1 Tb 0.759660(9) 0.06400(2) -0.230540(15)
Tb2 Tb 0.251270(9) -0.24922(2) -0.027380(16)
O1 O 0.17667(16) -0.3289(4) -0.1347(3)
O2 O 0.18852(19) -0.0684(4) -0.0354(3)
O3 O 0.3126(2) -0.0871(4) -0.1073(3)
O4 O 0.28555(18) -0.2353(4) -0.2101(3)
O5 O 0.28213(15) -0.4693(4) -0.1111(2)
O6 O 0.34524(17) -0.3666(4) -0.0130(3)
O7 O 0.1366(2) -0.4914(5) -0.2152(3)
C1 C 0.4571(2) -0.5591(5) 0.0568(4)
H1 H 0.4283 -0.5989 0.0955
C2 C 0.1720(2) 0.0239(5) 0.0172(3)
C3 C 0.3179(2) -0.1365(5) -0.1882(4)
C4 C 0.3339(2) -0.4612(5) -0.0664(3)
C5 C 0.1219(2) 0.1145(5) -0.0231(4)
H2 H 0.1286 0.1302 -0.0905
H3 H 0.1239 0.1993 0.0096
C6 C 0.4427(2) -0.5356(5) -0.0394(4)
C7 C 0.3804(2) -0.5688(5) -0.0816(4)
H4 H 0.3839 -0.5842 -0.1497
H5 H 0.3660 -0.6503 -0.0529
C8 C 0.0590(2) 0.0533(5) -0.0111(4)
C9 C 0.0167(3) 0.0501(6) -0.0871(4)
H6 H 0.0278 0.0830 -0.1463
C10 C 0.4204(2) -0.0291(5) -0.2072(3)
C11 C 0.4641(3) -0.1221(6) -0.1795(4)
H7 H 0.4566 -0.2117 -0.1904
C12 C 0.3613(3) -0.0754(7) -0.2570(4)
H8 H 0.3414 -0.0004 -0.2885
H9 H 0.3710 -0.1399 -0.3058
C13 C 0.1338(2) -0.4110(6) -0.1487(4)
C14 C 0.4327(2) 0.1015(6) -0.1899(4)
H10 H 0.4039 0.1654 -0.2083
C15 C 0.0414(2) 0.0009(6) 0.0764(4)
H11 H 0.0692 0.0004 0.1281
C16 C 0.0191(3) -0.4480(7) -0.1229(4)
C17 C 0.0053(3) -0.5778(7) -0.1440(5)
H12 H 0.0354 -0.6424 -0.1363
C18 C 0.0809(3) -0.4075(10) -0.0819(5)
H13 H 0.0775 -0.3179 -0.0572
H14 H 0.0908 -0.4649 -0.0280
C19 C -0.0989(2) -0.5194(5) -0.1887(3)
C20 C -0.0527(3) -0.6136(6) -0.1763(5)
H15 H -0.0611 -0.7021 -0.1901
C21 C -0.0847(3) -0.3879(6) -0.1705(5)
H16 H -0.1144 -0.3226 -0.1800
C22 C -0.0257(3) -0.3533(7) -0.1379(5)
H17 H -0.0165 -0.2647 -0.1260
O8 O 0.7508(3) -0.1698(5) -0.2514(4)
H18 H 0.7460 -0.2020 -0.3073
H19 H 0.7526 -0.2209 -0.2031
O9 O -0.19292(18) -0.0455(4) -0.0999(3)
C23 C 0.4876(2) 0.1410(6) -0.1450(4)
H20 H 0.4947 0.2304 -0.1329
C24 C 0.5189(3) -0.0829(6) -0.1358(4)
H21 H 0.5477 -0.1468 -0.1177
C25 C 0.5315(2) 0.0485(6) -0.1185(4)
C26 C 0.5906(2) 0.0918(7) -0.0695(4)
H22 H 0.5963 0.0401 -0.0114
H23 H 0.5863 0.1839 -0.0507
O10 O 0.6492(2) 0.0190(6) -0.2033(3)
C27 C 0.6478(2) 0.0792(6) -0.1270(4)
O11 O 0.69745(14) 0.1337(4) -0.0950(2)
C28 C -0.1628(2) -0.5607(5) -0.2206(4)
H24 H -0.1609 -0.6151 -0.2777
H25 H -0.1872 -0.4828 -0.2360
O12 O -0.18999(17) -0.7624(4) -0.1390(3)
O13 O -0.2176(2) -0.5760(4) -0.0753(3)
C29 C -0.1924(2) -0.6381(5) -0.1418(4)
C30 C 0.4862(2) -0.4761(5) -0.0950(3)
H26 H 0.4772 -0.4595 -0.1593
Tb1_2 Tb -0.240340(9) 0.06400(2) -0.230540(15)
Tb1A Tb 0.240340(9) -0.43600(2) -0.269460(15)
Tb1_3 Tb -0.240340(9) -0.93600(2) -0.230540(15)
Tb1C Tb 0.759660(9) -0.56400(2) 0.269460(15)
Tb1B Tb 0.240340(9) -0.06400(2) 0.230540(15)
Tb1C_2 Tb 0.759660(9) 0.43600(2) 0.269460(15)
Tb1C_3 Tb -0.240340(9) -0.56400(2) 0.269460(15)
Tb2B Tb 0.748730(9) 0.24922(2) 0.027380(16)
Tb2B_2 Tb -0.251270(9) -0.75078(2) 0.027380(16)
Tb2B_3 Tb 0.748730(9) -0.75078(2) 0.027380(16)
Tb2B_4 Tb -0.251270(9) 0.24922(2) 0.027380(16)
O1A O 0.82333(16) 0.1711(4) -0.3653(3)
O1B O 0.82333(16) 0.3289(4) 0.1347(3)
O1B_2 O -0.17667(16) -0.6711(4) 0.1347(3)
O1C O 0.17667(16) -0.1711(4) 0.3653(3)
O2B O 0.81148(19) 0.0684(4) 0.0354(3)
O2B_2 O -0.18852(19) 0.0684(4) 0.0354(3)
O3B O 0.6874(2) 0.0871(4) 0.1073(3)
O4A O 0.71445(18) 0.2647(4) -0.2899(3)
O4B O 0.71445(18) 0.2353(4) 0.2101(3)
O4C O 0.28555(18) -0.2647(4) 0.2899(3)
O5B O 0.71787(15) -0.5307(4) 0.1111(2)
O5A O 0.71787(15) 0.0307(4) -0.3889(2)
O5B_2 O 0.71787(15) 0.4693(4) 0.1111(2)
O5C O 0.28213(15) -0.0307(4) 0.3889(2)
O6B O 0.65476(17) -0.6334(4) 0.0130(3)
O6B_2 O 0.65476(17) 0.3666(4) 0.0130(3)
O7A O 0.8634(2) 0.0086(5) -0.2848(3)
O7C O 0.1366(2) -0.0086(5) 0.2848(3)
O7B O -0.1366(2) -0.5086(5) 0.2152(3)
C1B C 0.5429(2) -0.4409(5) -0.0568(4)
H1B H 0.5717 -0.4011 -0.0955
C2B C -0.1720(2) -0.0239(5) -0.0172(3)
C3B C 0.6821(2) 0.1365(5) 0.1882(4)
C4B C 0.6661(2) -0.5388(5) 0.0664(3)
C5B C -0.1219(2) -0.1145(5) 0.0231(4)
H2B H -0.1286 -0.1302 0.0905
H3B H -0.1239 -0.1993 -0.0096
C6B C 0.5573(2) -0.4644(5) 0.0394(4)
C7B C 0.6196(2) -0.4312(5) 0.0816(4)
H4B H 0.6161 -0.4158 0.1497
H5B H 0.6340 -0.3497 0.0529
C8B C -0.0590(2) -0.0533(5) 0.0111(4)
C9B C -0.0167(3) -0.0501(6) 0.0871(4)
H6B H -0.0278 -0.0830 0.1463
C10B C 0.5796(2) 0.0291(5) 0.2072(3)
C11B C 0.5359(3) 0.1221(6) 0.1795(4)
H7B H 0.5434 0.2117 0.1904
C12B C 0.6387(3) 0.0754(7) 0.2570(4)
H8B H 0.6586 0.0004 0.2885
H9B H 0.6290 0.1399 0.3058
C13B C -0.1338(2) -0.5890(6) 0.1487(4)
C14B C 0.5673(2) -0.1015(6) 0.1899(4)
H10B H 0.5961 -0.1654 0.2083
C15B C -0.0414(2) -0.0009(6) -0.0764(4)
H11B H -0.0692 -0.0004 -0.1281
C16B C -0.0191(3) -0.5520(7) 0.1229(4)
C17B C -0.0053(3) -0.4222(7) 0.1440(5)
H12B H -0.0354 -0.3576 0.1363
C18B C -0.0809(3) -0.5925(10) 0.0819(5)
H13B H -0.0775 -0.6821 0.0572
H14B H -0.0908 -0.5351 0.0280
C19B C 0.0989(2) -0.4806(5) 0.1887(3)
C20B C 0.0527(3) -0.3864(6) 0.1763(5)
H15B H 0.0611 -0.2979 0.1901
C21B C 0.0847(3) -0.6121(6) 0.1705(5)
H16B H 0.1144 -0.6774 0.1800
C22B C 0.0257(3) -0.6467(7) 0.1379(5)
H17B H 0.0165 -0.7353 0.1260
O8B O 0.2492(3) 0.1698(5) 0.2514(4)
H18B H 0.2540 0.2020 0.3073
H19B H 0.2474 0.2209 0.2031
O9_2 O 0.80708(18) -0.0455(4) -0.0999(3)
O9B O 0.19292(18) 0.0455(4) 0.0999(3)
C23B C 0.5124(2) -0.1410(6) 0.1450(4)
H20B H 0.5053 -0.2304 0.1329
C24B C 0.4811(3) 0.0829(6) 0.1358(4)
H21B H 0.4523 0.1468 0.1177
C25B C 0.4685(2) -0.0485(6) 0.1185(4)
C26B C 0.4094(2) -0.0918(7) 0.0695(4)
H22B H 0.4037 -0.0401 0.0114
H23B H 0.4137 -0.1839 0.0507
O10B O 0.3508(2) -0.0190(6) 0.2033(3)
C27B C 0.3522(2) -0.0792(6) 0.1270(4)
O11B O 0.30255(14) -0.1337(4) 0.0950(2)
C28B C 0.1628(2) -0.4393(5) 0.2206(4)
H24B H 0.1609 -0.3849 0.2777
H25B H 0.1872 -0.5172 0.2360
O12B O 0.18999(17) -0.2376(4) 0.1390(3)
O12_2 O 0.81001(17) 0.2376(4) -0.1390(3)
O13B O 0.2176(2) -0.4240(4) 0.0753(3)
O13_2 O 0.7824(2) 0.4240(4) -0.0753(3)
C29B C 0.1924(2) -0.3619(5) 0.1418(4)
C30B C 0.5138(2) -0.5239(5) 0.0950(3)
H26B H 0.5228 -0.5405 0.1593
O14 O 0.2764(3) -0.8189(5) -0.0908(4)
H27 H 0.2732 -0.8502 -0.1472
H28 H 0.2833 -0.8706 -0.0437
O15 O 0.2598(4) -0.8164(6) -0.4130(4)
H29 H 0.2703 -0.8848 -0.3810
H30 H 0.2531 -0.8223 -0.4731
loop_
_geom_bond_atom_site_label_1
_geom_bond_atom_site_label_2
_geom_bond_site_symmetry_1
_geom_bond_site_symmetry_2
Tb1 O8 1_555 1_555
Tb2 O1 1_555 1_555
O1 C13 1_555 1_555
O2 Tb2 1_555 1_555
O3 Tb2 1_555 1_555
O4 Tb2 1_555 1_555
O5 Tb2 1_555 1_555
O6 Tb2 1_555 1_555
O7 C13 1_555 1_555
C1 H1 1_555 1_555
C2 O2 1_555 1_555
C3 O3 1_555 1_555
C4 O5 1_555 1_555
C5 C2 1_555 1_555
H2 C5 1_555 1_555
H3 C5 1_555 1_555
C6 C1 1_555 1_555
C7 C4 1_555 1_555
H4 C7 1_555 1_555
H5 C7 1_555 1_555
C8 C5 1_555 1_555
C9 C8 1_555 1_555
H6 C9 1_555 1_555
C10 C11 1_555 1_555
C11 H7 1_555 1_555
C12 C3 1_555 1_555
H8 C12 1_555 1_555
H9 C12 1_555 1_555
C13 C18 1_555 1_555
C14 C10 1_555 1_555
H10 C14 1_555 1_555
C15 C8 1_555 1_555
H11 C15 1_555 1_555
C16 C17 1_555 1_555
C17 H12 1_555 1_555
C18 C16 1_555 1_555
H13 C18 1_555 1_555
H14 C18 1_555 1_555
C19 C20 1_555 1_555
C20 C17 1_555 1_555
H15 C20 1_555 1_555
C21 C19 1_555 1_555
H16 C21 1_555 1_555
C22 C16 1_555 1_555
H17 C22 1_555 1_555
O8 H18 1_555 1_555
H19 O8 1_555 1_555
O9 Tb1_2 1_555 1_555
C23 C14 1_555 1_555
H20 C23 1_555 1_555
C24 C11 1_555 1_555
H21 C24 1_555 1_555
C25 C23 1_555 1_555
C26 C25 1_555 1_555
H22 C26 1_555 1_555
H23 C26 1_555 1_555
O10 Tb1 1_555 1_555
C27 C26 1_555 1_555
O11 Tb1 1_555 1_555
C28 C19 1_555 1_555
H24 C28 1_555 1_555
H25 C28 1_555 1_555
O12 C29 1_555 1_555
O13 C29 1_555 1_555
C29 C28 1_555 1_555
C30 C6 1_555 1_555
H26 C30 1_555 1_555
O14 H27 1_555 1_555
H28 O14 1_555 1_555
O15 H29 1_555 1_555
H30 O15 1_555 1_555
Tb1A O1 1_555 1_555
Tb1_3 O12 1_555 1_555
Tb1C O5B 1_555 1_555
Tb1B O1C 1_555 1_555
Tb1C_2 O1B 1_555 1_555
Tb1C_3 O1B_2 1_555 1_555
Tb2B O11 1_555 1_555
Tb2B_2 O12 1_555 1_555
Tb2B_3 O5B 1_555 1_555
Tb2B_4 O2B_2 1_555 1_555
O1A Tb1 1_555 1_555
O1B Tb2B 1_555 1_555
O1B_2 Tb2B_2 1_555 1_555
O2B Tb2B 1_555 1_555
O2B_2 C2B 1_555 1_555
O3B Tb2B 1_555 1_555
O4A Tb1 1_555 1_555
O4B Tb1C_2 1_555 1_555
O4C Tb1B 1_555 1_555
O5B C4B 1_555 1_555
O5A Tb1 1_555 1_555
O5B_2 Tb1C_2 1_555 1_555
O5C Tb1B 1_555 1_555
O6B Tb2B_3 1_555 1_555
O6B_2 Tb2B 1_555 1_555
O7A Tb1 1_555 1_555
O7C Tb1B 1_555 1_555
O7B Tb1C_3 1_555 1_555
C1B C30 1_555 1_555
H1B C1B 1_555 1_555
C2B O9 1_555 1_555
C3B O3B 1_555 1_555
C4B O6B 1_555 1_555
C5B C2B 1_555 1_555
H2B C5B 1_555 1_555
H3B C5B 1_555 1_555
C6B C1B 1_555 1_555
C7B C4B 1_555 1_555
H4B C7B 1_555 1_555
H5B C7B 1_555 1_555
C8B C5B 1_555 1_555
C9B C15 1_555 1_555
H6B C9B 1_555 1_555
C10B C11B 1_555 1_555
C11B H7B 1_555 1_555
C12B C3B 1_555 1_555
H8B C12B 1_555 1_555
H9B C12B 1_555 1_555
C13B O1B_2 1_555 1_555
C14B C10B 1_555 1_555
H10B C14B 1_555 1_555
C15B C9 1_555 1_555
H11B C15B 1_555 1_555
C16B C17B 1_555 1_555
C17B H12B 1_555 1_555
C18B C13B 1_555 1_555
H13B C18B 1_555 1_555
H14B C18B 1_555 1_555
C19B C20B 1_555 1_555
C20B C17B 1_555 1_555
H15B C20B 1_555 1_555
C21B C19B 1_555 1_555
H16B C21B 1_555 1_555
C22B C16B 1_555 1_555
H17B C22B 1_555 1_555
O8B Tb1B 1_555 1_555
H18B O8B 1_555 1_555
H19B O8B 1_555 1_555
O9_2 Tb1 1_555 1_555
O9B C2 1_555 1_555
C23B C14B 1_555 1_555
H20B C23B 1_555 1_555
C24B C11B 1_555 1_555
H21B C24B 1_555 1_555
C25B C23B 1_555 1_555
C26B C25B 1_555 1_555
H22B C26B 1_555 1_555
H23B C26B 1_555 1_555
O10B Tb1B 1_555 1_555
C27B C26B 1_555 1_555
O11B Tb2 1_555 1_555
C28B C19B 1_555 1_555
H24B C28B 1_555 1_555
H25B C28B 1_555 1_555
O12B Tb2 1_555 1_555
O12_2 Tb1 1_555 1_555
O13B Tb2 1_555 1_555
O13_2 Tb2B 1_555 1_555
C29B C28B 1_555 1_555
C30B C1 1_555 1_555
H26B C30B 1_555 1_555
O4 C3 1_555 1_555
O4 Tb1A 1_555 1_555
O5 Tb1A 1_555 1_555
O6 C4 1_555 1_555
O7 Tb1A 1_555 1_555
C6 C7 1_555 1_555
C10 C12 1_555 1_555
C21 C22 1_555 1_555
C24 C25 1_555 1_555
O10 C27 1_555 1_555
C27 O11 1_555 1_555
O13 Tb2B_2 1_555 1_555
Tb1B O9B 1_555 1_555
Tb1B O11B 1_555 1_555
Tb1B O12B 1_555 1_555
Tb2B O4B 1_555 1_555
Tb2B O5B_2 1_555 1_555
Tb2B O12_2 1_555 1_555
O4B C3B 1_555 1_555
O7B C13B 1_555 1_555
C6B C7B 1_555 1_555
C6B C30B 1_555 1_555
C8B C9B 1_555 1_555
C8B C15B 1_555 1_555
C10B C12B 1_555 1_555
C16B C18B 1_555 1_555
C21B C22B 1_555 1_555
C24B C25B 1_555 1_555
O10B C27B 1_555 1_555
C27B O11B 1_555 1_555
O12B C29B 1_555 1_555
O13B C29B 1_555 1_555

#END
