
#######################################################################
#
#                 Cambridge Crystallographic Data Centre
#                                CCDC 
#
#######################################################################
#
# If this CIF has been generated from an entry in the Cambridge 
# Structural Database, then it will include bibliographic, chemical, 
# crystal, experimental, refinement or atomic coordinate data resulting 
# from the CCDC's data processing and validation procedures.
#
#######################################################################

data_CAKLOR
_symmetry_cell_setting           monoclinic
_symmetry_space_group_name_H-M   'P 2/c'
_symmetry_Int_Tables_number      13
_space_group_name_Hall           '-P 2yc'
loop_
_symmetry_equiv_pos_site_id
_symmetry_equiv_pos_as_xyz
1 x,y,z
2 -x,y,1/2-z
3 -x,-y,-z
4 x,-y,1/2+z
_cell_length_a                   16.1050(12)
_cell_length_b                   4.7876(4)
_cell_length_c                   9.2686(7)
_cell_angle_alpha                90
_cell_angle_beta                 90.024(4)
_cell_angle_gamma                90
_cell_volume                     714.649
loop_
_atom_site_label
_atom_site_type_symbol
_atom_site_fract_x
_atom_site_fract_y
_atom_site_fract_z
Zn1 Zn 0.24670(2) 0.46496(5) 0.21960(3)
O1 O 0.34769(11) 0.6013(4) 0.31712(18)
O2 O 0.27535(10) 0.5127(4) 0.51293(19)
O3 O 0.14798(11) 0.6814(4) 0.2717(2)
O4 O 0.21883(10) 1.0683(3) 0.2360(2)
C1 C 0.33760(15) 0.6246(5) 0.4521(3)
C2 C 0.39952(16) 0.7892(5) 0.5395(3)
C3 C 0.46863(16) 0.9260(6) 0.4515(3)
C4 C 0.15791(15) 0.9411(5) 0.2899(3)
C5 C 0.09472(17) 1.0963(5) 0.3811(3)
C6 C 0.03116(17) 0.9112(6) 0.4570(3)
H1 H 0.42510 0.66300 0.61150
H2 H 0.36940 0.93680 0.59300
H3 H 0.49750 0.78150 0.39390
H4 H 0.44400 1.06290 0.38370
H5 H 0.06470 1.23000 0.31850
H6 H 0.12480 1.20620 0.45500
H7 H 0.06020 0.78160 0.52320
H8 H 0.00100 0.79830 0.38450
Zn1B Zn 0.75330(2) 1.53504(5) 0.78040(3)
Zn1C Zn 0.24670(2) 0.53504(5) 0.71960(3)
Zn1_2 Zn 0.24670(2) 1.46496(5) 0.21960(3)
Zn1A Zn 0.75330(2) 1.46496(5) 0.28040(3)
Zn1B_2 Zn -0.24670(2) 1.53504(5) 0.78040(3)
Zn1B_3 Zn -0.24670(2) 0.53504(5) 0.78040(3)
O1B O 0.65231(11) 1.3987(4) 0.68288(18)
O2B O 0.72465(10) 1.4873(4) 0.48707(19)
O2C O 0.27535(10) 0.4873(4) 0.01293(19)
O2A O 0.72465(10) 1.5127(4) 0.98707(19)
O3B O -0.14798(11) 1.3186(4) 0.7283(2)
O3B_2 O 0.85202(11) 1.3186(4) 0.7283(2)
O4B O -0.21883(10) 0.9317(3) 0.7640(2)
O4_2 O 0.21883(10) 0.0683(3) 0.2360(2)
O4B_2 O 0.78117(10) 1.9317(3) 0.7640(2)
C1B C 0.66240(15) 1.3754(5) 0.5479(3)
C2B C 0.60048(16) 1.2108(5) 0.4605(3)
C3B C 0.53137(16) 1.0740(6) 0.5485(3)
C4B C -0.15791(15) 1.0589(5) 0.7101(3)
C5B C -0.09472(17) 0.9037(5) 0.6189(3)
C6B C -0.03116(17) 1.0888(6) 0.5430(3)
H1B H 0.57490 1.33700 0.38850
H2B H 0.63060 1.06320 0.40700
H3B H 0.50250 1.21850 0.60610
H4B H 0.55600 0.93710 0.61630
H5B H -0.06470 0.77000 0.68150
H6B H -0.12480 0.79380 0.54500
H7B H -0.06020 1.21840 0.47680
H8B H -0.00100 1.20170 0.61550
loop_
_geom_bond_atom_site_label_1
_geom_bond_atom_site_label_2
_geom_bond_site_symmetry_1
_geom_bond_site_symmetry_2
Zn1 O1 1_555 1_555
O1 C1 1_555 1_555
O2 C1 1_555 1_555
O3 Zn1 1_555 1_555
O4 C4 1_555 1_555
C1 C2 1_555 1_555
C2 C3 1_555 1_555
C3 H3 1_555 1_555
C4 O3 1_555 1_555
C5 C4 1_555 1_555
C6 C5 1_555 1_555
H1 C2 1_555 1_555
H2 C2 1_555 1_555
H4 C3 1_555 1_555
H5 C5 1_555 1_555
H6 C5 1_555 1_555
H7 C6 1_555 1_555
H8 C6 1_555 1_555
Zn1B O1B 1_555 1_555
Zn1C O2 1_555 1_555
Zn1_2 O4 1_555 1_555
Zn1A O2B 1_555 1_555
Zn1B_2 O3B 1_555 1_555
Zn1B_3 O4B 1_555 1_555
O1B C1B 1_555 1_555
O2B C1B 1_555 1_555
O2C Zn1 1_555 1_555
O2A Zn1B 1_555 1_555
O3B C4B 1_555 1_555
O3B_2 Zn1B 1_555 1_555
O4B C4B 1_555 1_555
O4_2 Zn1 1_555 1_555
O4B_2 Zn1B 1_555 1_555
C1B C2B 1_555 1_555
C2B C3B 1_555 1_555
C3B C3 1_555 1_555
C4B C5B 1_555 1_555
C5B C6B 1_555 1_555
C6B C6 1_555 1_555
H1B C2B 1_555 1_555
H2B C2B 1_555 1_555
H3B C3B 1_555 1_555
H4B C3B 1_555 1_555
H5B C5B 1_555 1_555
H6B C5B 1_555 1_555
H7B C6B 1_555 1_555
H8B C6B 1_555 1_555

#END
