
#######################################################################
#
#                 Cambridge Crystallographic Data Centre
#                                CCDC 
#
#######################################################################
#
# If this CIF has been generated from an entry in the Cambridge 
# Structural Database, then it will include bibliographic, chemical, 
# crystal, experimental, refinement or atomic coordinate data resulting 
# from the CCDC's data processing and validation procedures.
#
#######################################################################

data_CAKSOX
_symmetry_cell_setting           monoclinic
_symmetry_space_group_name_H-M   'C 2/c'
_symmetry_Int_Tables_number      15
_space_group_name_Hall           '-C 2yn'
loop_
_symmetry_equiv_pos_site_id
_symmetry_equiv_pos_as_xyz
1 x,y,z
2 1/2+x,1/2+y,z
3 x,-y,1/2+z
4 1/2+x,1/2-y,1/2+z
5 -x,-y,-z
6 1/2-x,1/2-y,-z
7 -x,y,1/2-z
8 1/2-x,1/2+y,1/2-z
_cell_length_a                   20.696(4)
_cell_length_b                   9.425(2)
_cell_length_c                   18.835(4)
_cell_angle_alpha                90
_cell_angle_beta                 113.83(3)
_cell_angle_gamma                90
_cell_volume                     3360.74
loop_
_atom_site_label
_atom_site_type_symbol
_atom_site_fract_x
_atom_site_fract_y
_atom_site_fract_z
Cu1 Cu 0.33212(2) 0.40504(3) 0.08082(2)
S1 S 0.25948(3) 0.14518(7) 0.12443(4)
O1 O 0.27751(9) 0.3011(2) 0.12891(10)
O2 O 0.23544(10) 0.0994(2) 0.04368(10)
O3 O 0.32229(10) 0.0645(2) 0.17282(10)
O4 O 0.20344(10) 0.1313(2) 0.15279(11)
O5 O 0.28802(11) 0.5780(2) 0.09847(14)
H1 H 0.2539 0.5819 0.1126
H2 H 0.2987 0.6615 0.0928
N1 N 0.40906(11) 0.5292(2) 0.07463(11)
N2 N 0.39318(10) 0.2382(2) 0.08433(11)
C1 C 0.40419(14) 0.5879(3) 0.00771(15)
H9 H 0.36090(14) 0.5802(3) -0.03672(15)
C2 C 0.45987(15) 0.6590(3) 0.0012(2)
H10 H 0.45474(15) 0.7024(3) -0.0464(2)
C3 C 0.52286(15) 0.6654(3) 0.0652(2)
H11 H 0.56271(15) 0.7096(3) 0.0616(2)
C4 C 0.52815(15) 0.6075(3) 0.1347(2)
H12 H 0.57143(15) 0.6129(3) 0.1793(2)
C5 C 0.47039(13) 0.5418(3) 0.13905(14)
C6 C 0.46631(13) 0.4820(3) 0.21138(14)
H13 H 0.42590(13) 0.5257(3) 0.21972(14)
C7 C 0.46325(13) 0.3158(3) 0.21656(14)
H14 H 0.42755(13) 0.2901(3) 0.23768(14)
C8 C 0.45319(12) 0.2207(3) 0.14921(13)
C9 C 0.50023(14) 0.1124(3) 0.1540(2)
H15 H 0.54287(14) 0.1028(3) 0.1991(2)
C10 C 0.48479(14) 0.0190(3) 0.09311(15)
H16 H 0.51657(14) -0.0556(3) 0.09584(15)
C11 C 0.42266(14) 0.0349(3) 0.02812(15)
H17 H 0.41046(14) -0.0296(3) -0.01405(15)
C12 C 0.37874(14) 0.1460(3) 0.02553(14)
H18 H 0.33644(14) 0.1580(3) -0.01969(14)
C6F C 0.53369(13) 0.4820(3) 0.28862(14)
C5F C 0.52961(13) 0.5418(3) 0.36095(14)
N1F N 0.59094(11) 0.5292(2) 0.42537(11)
C1F C 0.59581(14) 0.5879(3) 0.49229(15)
H9F H 0.63910(14) 0.5802(3) 0.53672(15)
C2F C 0.54013(15) 0.6590(3) 0.4988(2)
H10F H 0.54526(15) 0.7024(3) 0.5464(2)
C3F C 0.47714(15) 0.6654(3) 0.4348(2)
H11F H 0.43729(15) 0.7096(3) 0.4384(2)
C4F C 0.47185(15) 0.6075(3) 0.3653(2)
H12F H 0.42857(15) 0.6129(3) 0.3207(2)
H13F H 0.57410(13) 0.5257(3) 0.28028(14)
C7F C 0.53675(13) 0.3158(3) 0.28344(14)
H14F H 0.57245(13) 0.2901(3) 0.26232(14)
C8F C 0.54681(12) 0.2207(3) 0.35079(13)
N2F N 0.60682(10) 0.2382(2) 0.41567(11)
C12F C 0.62126(14) 0.1460(3) 0.47447(14)
C11F C 0.57734(14) 0.0349(3) 0.47188(15)
C10F C 0.51521(14) 0.0190(3) 0.40689(15)
C9F C 0.49977(14) 0.1124(3) 0.3460(2)
H15F H 0.45713(14) 0.1028(3) 0.3009(2)
H16F H 0.48343(14) -0.0556(3) 0.40416(15)
H17F H 0.58954(14) -0.0296(3) 0.51405(15)
H18F H 0.66356(14) 0.1580(3) 0.51969(14)
S1E S 0.24052(3) 0.35482(7) -0.12443(4)
O1E O 0.22249(9) 0.1989(2) -0.12891(10)
O2E O 0.26456(10) 0.4006(2) -0.04368(10)
O3E O 0.17771(10) 0.4355(2) -0.17282(10)
O4E O 0.29656(10) 0.3687(2) -0.15279(11)
Cu1E Cu 0.16788(2) 0.09496(3) -0.08082(2)
O5E O 0.21198(11) -0.0780(2) -0.09847(14)
H1E H 0.2461 -0.0819 -0.1126
H2E H 0.2013 -0.1615 -0.0928
Cu1F Cu 0.66788(2) 0.40504(3) 0.41918(2)
N1E N 0.09094(11) -0.0292(2) -0.07463(11)
N2E N 0.10682(10) 0.2618(2) -0.08433(11)
O6 O 0.18041(12) 0.6172(2) 0.13770(13)
H3 H 0.1715 0.5421 0.1652
H4 H 0.1808 0.7023 0.1655
O7 O 0.14721(12) 0.3719(3) 0.1990(2)
H5 H 0.1708 0.4027 0.2494
H6 H 0.1668 0.2861 0.1879
O8 O 0.17077(11) -0.1256(2) 0.20824(11)
H7 H 0.1919 -0.1326 0.2541
H8 H 0.1828 -0.0449 0.1932
O10 O 0.3195(2) 0.8298(4) 0.0732(2)
O9? O 0.4673(3) 0.8161(6) 0.2389(4)
O11? O 0.3779(3) 0.8082(6) 0.1646(4)
loop_
_geom_bond_atom_site_label_1
_geom_bond_atom_site_label_2
_geom_bond_site_symmetry_1
_geom_bond_site_symmetry_2
Cu1 O1 1_555 1_555
S1 O1 1_555 1_555
O2 S1 1_555 1_555
O3 S1 1_555 1_555
O4 S1 1_555 1_555
O5 Cu1 1_555 1_555
H1 O5 1_555 1_555
H2 O5 1_555 1_555
O6 H3 1_555 1_555
H4 O6 1_555 1_555
O7 H5 1_555 1_555
H6 O7 1_555 1_555
O8 H7 1_555 1_555
H8 O8 1_555 1_555
N1 Cu1 1_555 1_555
N2 Cu1 1_555 1_555
C1 N1 1_555 1_555
H9 C1 1_555 1_555
C2 C1 1_555 1_555
H10 C2 1_555 1_555
C3 C2 1_555 1_555
H11 C3 1_555 1_555
C4 C3 1_555 1_555
H12 C4 1_555 1_555
C5 N1 1_555 1_555
C6 C5 1_555 1_555
H13 C6 1_555 1_555
C7 C6 1_555 1_555
H14 C7 1_555 1_555
C8 N2 1_555 1_555
C9 C8 1_555 1_555
H15 C9 1_555 1_555
C10 C9 1_555 1_555
H16 C10 1_555 1_555
C11 C10 1_555 1_555
H17 C11 1_555 1_555
C12 N2 1_555 1_555
H18 C12 1_555 1_555
C6F C6 1_555 1_555
C5F C6F 1_555 1_555
N1F C5F 1_555 1_555
C1F N1F 1_555 1_555
H9F C1F 1_555 1_555
C2F C1F 1_555 1_555
H10F C2F 1_555 1_555
C3F C2F 1_555 1_555
H11F C3F 1_555 1_555
C4F C5F 1_555 1_555
H12F C4F 1_555 1_555
H13F C6F 1_555 1_555
C7F C7 1_555 1_555
H14F C7F 1_555 1_555
C8F C7F 1_555 1_555
N2F C8F 1_555 1_555
C12F N2F 1_555 1_555
C11F C12F 1_555 1_555
C10F C11F 1_555 1_555
C9F C8F 1_555 1_555
H15F C9F 1_555 1_555
H16F C10F 1_555 1_555
H17F C11F 1_555 1_555
H18F C12F 1_555 1_555
S1E O1E 1_555 1_555
O1E Cu1E 1_555 1_555
O2E Cu1 1_555 1_555
O3E S1E 1_555 1_555
O4E S1E 1_555 1_555
Cu1E O2 1_555 1_555
O5E Cu1E 1_555 1_555
H1E O5E 1_555 1_555
H2E O5E 1_555 1_555
Cu1F N1F 1_555 1_555
N1E Cu1E 1_555 1_555
N2E Cu1E 1_555 1_555
C4 C5 1_555 1_555
C7 C8 1_555 1_555
C11 C12 1_555 1_555
C6F C7F 1_555 1_555
C3F C4F 1_555 1_555
N2F Cu1F 1_555 1_555
C10F C9F 1_555 1_555
S1E O2E 1_555 1_555

#END
