
#######################################################################
#
#                 Cambridge Crystallographic Data Centre
#                                CCDC 
#
#######################################################################
#
# If this CIF has been generated from an entry in the Cambridge 
# Structural Database, then it will include bibliographic, chemical, 
# crystal, experimental, refinement or atomic coordinate data resulting 
# from the CCDC's data processing and validation procedures.
#
#######################################################################

data_CAKTEP
_symmetry_cell_setting           triclinic
_symmetry_space_group_name_H-M   'P -1'
_symmetry_Int_Tables_number      2
_space_group_name_Hall           '-P 1'
loop_
_symmetry_equiv_pos_site_id
_symmetry_equiv_pos_as_xyz
1 x,y,z
2 -x,-y,-z
_cell_length_a                   7.663(4)
_cell_length_b                   8.605(4)
_cell_length_c                   13.055(6)
_cell_angle_alpha                74.023(5)
_cell_angle_beta                 88.687(6)
_cell_angle_gamma                72.059(5)
_cell_volume                     785.549
loop_
_atom_site_label
_atom_site_type_symbol
_atom_site_fract_x
_atom_site_fract_y
_atom_site_fract_z
Zn1 Zn 0.30477(11) 0.56019(10) 0.31388(6)
N1 N 0.2995(14) 0.4763(13) 0.1592(8)
N2 N 0.3797(15) 0.3400(14) 0.0345(8)
N3 N 0.4872(15) 0.0251(13) 0.2138(9)
N4 N 0.5361(18) -0.0359(15) 0.1280(10)
N5 N 0.4815(18) -0.1686(13) 0.1420(9)
N6 N 0.3973(16) -0.1964(14) 0.2342(9)
O1 O 0.6003(13) 0.3923(13) 0.3528(8)
O2 O 0.7614(14) 0.5662(12) 0.3990(8)
O3 O 0.6971(16) 0.3424(13) 0.5373(8)
O4 O 0.9163(13) 0.2722(12) 0.4110(8)
O5 O -0.0047(13) 0.7198(13) 0.2834(8)
H1 H -0.0723 0.6624 0.3145
H2 H -0.0209 0.8035 0.3092
O6 O 0.2437(15) 0.3233(14) 0.4194(10)
H3 H 0.2470 0.3575 0.4742
H4 H 0.1414 0.3062 0.4148
S1 S 0.7427(4) 0.3950(4) 0.4259(2)
C1 C 0.3987(18) 0.3343(16) 0.1400(10)
C2 C 0.2536(17) 0.4981(15) -0.0163(10)
C3 C 0.2059(17) 0.5806(15) 0.0624(9)
C4 C 0.075(2) 0.7448(16) 0.0371(11)
H8 H 0.0424 0.8042 0.0880
C5 C -0.004(2) 0.8133(17) -0.0653(12)
H9 H -0.0924 0.9201 -0.0832
C6 C 0.046(2) 0.7268(19) -0.1446(11)
H10 H -0.0078 0.7789 -0.2138
C7 C 0.176(2) 0.5621(18) -0.1201(11)
H11 H 0.2076 0.5011 -0.1702
C8 C 0.522(2) 0.1791(16) 0.2198(12)
H12 H 0.6495 0.1697 0.2062
H13 H 0.5025 0.1914 0.2912
C9 C 0.4050(19) -0.0754(16) 0.2789(10)
H14 H 0.3607 -0.0638 0.3442
Zn1_2 Zn 0.30477(11) -0.43981(10) 0.31388(6)
Zn1A Zn 0.69523(11) 0.43981(10) 0.68612(6)
Zn1A_2 Zn 0.69523(11) 1.43981(10) 0.68612(6)
N1A N 0.7005(14) 0.5237(13) 0.8408(8)
N2A N 0.6203(15) 0.6600(14) 0.9655(8)
N3A N 0.5128(15) 0.9749(13) 0.7862(9)
N4A N 0.4639(18) 1.0359(15) 0.8720(10)
N5A N 0.5185(18) 1.1686(13) 0.8580(9)
N6_2 N 0.3973(16) 0.8036(14) 0.2342(9)
N6A N 0.6027(16) 0.1964(14) 0.7658(9)
N6A_2 N 0.6027(16) 1.1964(14) 0.7658(9)
O1A O 0.3997(13) 0.6077(13) 0.6472(8)
O2A O 0.2386(14) 0.4338(12) 0.6010(8)
O3A O 0.3029(16) 0.6576(13) 0.4627(8)
O4A O 0.0837(13) 0.7278(12) 0.5890(8)
O5A O 1.0047(13) 0.2802(13) 0.7166(8)
H1A H 1.0723 0.3376 0.6855
H2A H 1.0209 0.1965 0.6908
O6A O 0.7563(15) 0.6767(14) 0.5806(10)
H3A H 0.7530 0.6425 0.5258
H4A H 0.8586 0.6938 0.5852
S1A S 0.2573(4) 0.6050(4) 0.5741(2)
C1A C 0.6013(18) 0.6657(16) 0.8600(10)
C2A C 0.7464(17) 0.5019(15) 1.0163(10)
C3A C 0.7941(17) 0.4194(15) 0.9376(9)
C4A C 0.925(2) 0.2552(16) 0.9629(11)
H8A H 0.9576 0.1958 0.9120
C5A C 1.004(2) 0.1867(17) 1.0653(12)
H9A H 1.0924 0.0799 1.0832
C6A C 0.954(2) 0.2732(19) 1.1446(11)
H10A H 1.0078 0.2211 1.2138
C7A C 0.824(2) 0.4379(18) 1.1201(11)
H11A H 0.7924 0.4989 1.1702
C8A C 0.478(2) 0.8209(16) 0.7802(12)
H12A H 0.3505 0.8303 0.7938
H13A H 0.4975 0.8086 0.7088
C9A C 0.5950(19) 1.0754(16) 0.7211(10)
H14A H 0.6393 1.0638 0.6558
O7 O 0.901(3) 0.9666(16) 0.3839(12)
H5 H 0.9015 1.0632 0.3882
H6 H 0.9514 0.8922 0.4417
O8 O 0.5000 0.0000 0.5000
H7 H 0.4241 0.0993 0.4737
H7A H 0.5759 -0.0993 0.5263
H15? H 0.3998 0.0059 0.5300
loop_
_geom_bond_atom_site_label_1
_geom_bond_atom_site_label_2
_geom_bond_site_symmetry_1
_geom_bond_site_symmetry_2
Zn1 N1 1_555 1_555
N1 C1 1_555 1_555
N2 C1 1_555 1_555
N3 N4 1_555 1_555
N4 N5 1_555 1_555
N5 N6 1_555 1_555
N6 C9 1_555 1_555
O1 Zn1 1_555 1_555
O2 S1 1_555 1_555
O3 S1 1_555 1_555
O4 S1 1_555 1_555
O5 Zn1 1_555 1_555
H1 O5 1_555 1_555
H2 O5 1_555 1_555
O6 Zn1 1_555 1_555
H3 O6 1_555 1_555
H4 O6 1_555 1_555
O7 H5 1_555 1_555
H6 O7 1_555 1_555
O8 H7 1_555 1_555
S1 O1 1_555 1_555
C1 C8 1_555 1_555
C2 N2 1_555 1_555
C3 N1 1_555 1_555
C4 C3 1_555 1_555
H8 C4 1_555 1_555
C5 C4 1_555 1_555
H9 C5 1_555 1_555
C6 C5 1_555 1_555
H10 C6 1_555 1_555
C7 C2 1_555 1_555
H11 C7 1_555 1_555
C8 N3 1_555 1_555
H12 C8 1_555 1_555
H13 C8 1_555 1_555
C9 N3 1_555 1_555
H14 C9 1_555 1_555
Zn1_2 N6 1_555 1_555
Zn1A O3 1_555 1_555
Zn1A_2 N6A_2 1_555 1_555
N1A Zn1A 1_555 1_555
N2A C1A 1_555 1_555
N3A N4A 1_555 1_555
N4A N5A 1_555 1_555
N5A N6A_2 1_555 1_555
N6_2 Zn1 1_555 1_555
N6A Zn1A 1_555 1_555
N6A_2 C9A 1_555 1_555
O1A Zn1A 1_555 1_555
O2A S1A 1_555 1_555
O3A Zn1 1_555 1_555
O4A S1A 1_555 1_555
O5A Zn1A 1_555 1_555
H1A O5A 1_555 1_555
H2A O5A 1_555 1_555
O6A Zn1A 1_555 1_555
H3A O6A 1_555 1_555
H4A O6A 1_555 1_555
H7A O8 1_555 1_555
S1A O1A 1_555 1_555
C1A N1A 1_555 1_555
C2A N2A 1_555 1_555
C3A N1A 1_555 1_555
C4A C3A 1_555 1_555
H8A C4A 1_555 1_555
C5A C4A 1_555 1_555
H9A C5A 1_555 1_555
C6A C5A 1_555 1_555
H10A C6A 1_555 1_555
C7A C2A 1_555 1_555
H11A C7A 1_555 1_555
C8A N3A 1_555 1_555
H12A C8A 1_555 1_555
H13A C8A 1_555 1_555
C9A N3A 1_555 1_555
H14A C9A 1_555 1_555
C2 C3 1_555 1_555
C6 C7 1_555 1_555
O3A S1A 1_555 1_555
C1A C8A 1_555 1_555
C2A C3A 1_555 1_555
C6A C7A 1_555 1_555

#END
