
#######################################################################
#
#                 Cambridge Crystallographic Data Centre
#                                CCDC 
#
#######################################################################
#
# If this CIF has been generated from an entry in the Cambridge 
# Structural Database, then it will include bibliographic, chemical, 
# crystal, experimental, refinement or atomic coordinate data resulting 
# from the CCDC's data processing and validation procedures.
#
#######################################################################

data_CAKWOC
_symmetry_cell_setting           monoclinic
_symmetry_space_group_name_H-M   'P 21/n'
_symmetry_Int_Tables_number      14
_space_group_name_Hall           '-P 2yn'
loop_
_symmetry_equiv_pos_site_id
_symmetry_equiv_pos_as_xyz
1 x,y,z
2 1/2-x,1/2+y,1/2-z
3 -x,-y,-z
4 1/2+x,1/2-y,1/2+z
_cell_length_a                   5.2971(2)
_cell_length_b                   16.2625(5)
_cell_length_c                   13.1013(4)
_cell_angle_alpha                90
_cell_angle_beta                 98.2440(10)
_cell_angle_gamma                90
_cell_volume                     1116.94
loop_
_atom_site_label
_atom_site_type_symbol
_atom_site_fract_x
_atom_site_fract_y
_atom_site_fract_z
Cu1 Cu 0.78866(4) -0.020164(15) 1.069619(16)
C1 C 1.2556(4) 0.22781(14) 1.71979(16)
H1 H 1.1700 0.2125 1.7768
H2 H 1.2476 0.2864 1.7109
H3 H 1.4308 0.2108 1.7333
C2 C 0.9314(4) 0.13676(13) 1.62895(14)
H4 H 0.8697 0.1292 1.6912
C3 C 0.8185(4) 0.09619(13) 1.54271(15)
H5 H 0.6805 0.0616 1.5465
C4 C 0.9112(3) 0.10700(12) 1.44928(14)
C5 C 1.1142(4) 0.16082(13) 1.44649(15)
H6 H 1.1781 0.1701 1.3850
C6 C 1.2192(4) 0.19998(13) 1.53508(16)
H7 H 1.3547 0.2360 1.5331
C7 C 0.8001(3) 0.06056(12) 1.35825(13)
N1 N 1.1300(3) 0.18732(10) 1.62474(12)
N2 N 0.8861(3) 0.06325(11) 1.26807(12)
N3 N 0.7407(3) 0.00871(11) 1.21097(12)
N4 N 0.5750(4) -0.02579(11) 1.26473(13)
N5 N 0.6096(4) 0.00653(12) 1.35837(13)
N6 N 0.7386(5) -0.16720(15) 0.8441(2)
N7 N 0.8209(3) -0.11065(11) 0.88721(13)
N8 N 0.9031(3) -0.05101(11) 0.93484(12)
N9 N 0.4933(3) -0.09419(12) 1.03841(13)
N10 N 0.3416(3) -0.12199(10) 1.08762(11)
N11 N 0.1840(4) -0.15036(13) 1.12845(14)
Cu1B Cu 1.21134(4) 0.020164(15) 0.930381(16)
Cu1B_2 Cu 0.21134(4) 0.020164(15) 0.930381(16)
N8B N 1.0969(3) 0.05101(11) 1.06516(12)
N9B N 0.5067(3) 0.09419(12) 0.96159(13)
loop_
_geom_bond_atom_site_label_1
_geom_bond_atom_site_label_2
_geom_bond_site_symmetry_1
_geom_bond_site_symmetry_2
Cu1 N3 1_555 1_555
C1 H1 1_555 1_555
H2 C1 1_555 1_555
H3 C1 1_555 1_555
C2 H4 1_555 1_555
C3 C2 1_555 1_555
H5 C3 1_555 1_555
C4 C3 1_555 1_555
C5 C4 1_555 1_555
H6 C5 1_555 1_555
C6 C5 1_555 1_555
H7 C6 1_555 1_555
C7 C4 1_555 1_555
N1 C1 1_555 1_555
N2 C7 1_555 1_555
N3 N2 1_555 1_555
N4 N3 1_555 1_555
N5 C7 1_555 1_555
N6 N7 1_555 1_555
N7 N8 1_555 1_555
N8 Cu1 1_555 1_555
N9 Cu1 1_555 1_555
N10 N9 1_555 1_555
N11 N10 1_555 1_555
Cu1B N8 1_555 1_555
Cu1B_2 N9 1_555 1_555
N8B Cu1 1_555 1_555
N9B Cu1 1_555 1_555
C2 N1 1_555 1_555
C6 N1 1_555 1_555
N4 N5 1_555 1_555
Cu1B N8B 1_555 1_555
Cu1B_2 N9B 1_555 1_555

#END
