
#######################################################################
#
#                 Cambridge Crystallographic Data Centre
#                                CCDC 
#
#######################################################################
#
# If this CIF has been generated from an entry in the Cambridge 
# Structural Database, then it will include bibliographic, chemical, 
# crystal, experimental, refinement or atomic coordinate data resulting 
# from the CCDC's data processing and validation procedures.
#
#######################################################################

data_CAKXOD
_symmetry_cell_setting           monoclinic
_symmetry_space_group_name_H-M   'P 21/n'
_symmetry_Int_Tables_number      14
_space_group_name_Hall           '-P 2yn'
loop_
_symmetry_equiv_pos_site_id
_symmetry_equiv_pos_as_xyz
1 x,y,z
2 1/2-x,1/2+y,1/2-z
3 -x,-y,-z
4 1/2+x,1/2-y,1/2+z
_cell_length_a                   9.693(1)
_cell_length_b                   15.869(1)
_cell_length_c                   7.955(1)
_cell_angle_alpha                90
_cell_angle_beta                 96.356(6)
_cell_angle_gamma                90
_cell_volume                     1216.1
loop_
_atom_site_label
_atom_site_type_symbol
_atom_site_fract_x
_atom_site_fract_y
_atom_site_fract_z
Gd1 Gd 0.866108(14) 0.673077(9) 0.078551(17)
O1 O 0.7058(2) 0.57072(13) -0.0483(3)
O3 O 0.1105(2) 0.68917(13) 0.1491(3)
O4 O 0.9435(2) 0.53583(13) 0.1880(3)
O5 O 0.1870(2) 0.76100(14) 0.3808(3)
O6 O 0.8355(2) 0.81792(13) 0.1616(3)
O7 O 1.0236(2) 0.40982(13) 0.1251(2)
O8 O 0.8981(2) 0.67667(15) 0.3874(3)
N1 N 0.6230(2) 0.67150(16) 0.1884(3)
N2 N 0.4500(2) 0.73310(16) 0.3361(3)
C1 C 0.5255(3) 0.63183(18) 0.0861(3)
C2 C 0.2042(3) 0.71600(19) 0.2562(3)
C3 C 0.3848(3) 0.64113(20) 0.1039(3)
C4 C 0.3522(3) 0.69396(18) 0.2304(3)
O10 O 0.4884(2) 0.55714(13) -0.1719(3)
C5 C 0.5764(3) 0.58148(18) -0.0570(3)
C6 C 0.5813(3) 0.72010(19) 0.3098(3)
C7 C 0.9907(3) 0.48451(19) 0.0901(3)
H1 H 0.315038 0.612087 0.0314
H2 H 0.652930 0.748530 0.382630
Gd1_2 Gd 1.866108(14) 0.673077(9) 0.078551(17)
Gd1_3 Gd -0.133892(14) 0.673077(9) 0.078551(17)
Gd1C Gd 0.366108(14) 0.826923(9) 0.578551(17)
Gd1B Gd 1.133892(14) 0.326923(9) -0.078551(17)
Gd1C_2 Gd 1.366108(14) 0.826923(9) 0.578551(17)
O1_2 O 1.7058(2) 0.57072(13) -0.0483(3)
O3_2 O 1.1105(2) 0.68917(13) 0.1491(3)
O3_3 O 2.1105(2) 0.68917(13) 0.1491(3)
O4B O 1.0565(2) 0.46417(13) -0.1880(3)
O4_2 O 1.9435(2) 0.53583(13) 0.1880(3)
O5_2 O 1.1870(2) 0.76100(14) 0.3808(3)
O5C O 0.6870(2) 0.73900(14) -0.1192(3)
O5C_2 O 1.6870(2) 0.73900(14) -0.1192(3)
O6_2 O 1.8355(2) 0.81792(13) 0.1616(3)
O7B O 0.9764(2) 0.59018(13) -0.1251(2)
O7B_2 O 1.9764(2) 0.59018(13) -0.1251(2)
O8_2 O 1.8981(2) 0.67667(15) 0.3874(3)
N1_2 N 1.6230(2) 0.67150(16) 0.1884(3)
N2_2 N 1.4500(2) 0.73310(16) 0.3361(3)
N2C N 0.9500(2) 0.76690(16) -0.1639(3)
N2C_2 N 1.9500(2) 0.76690(16) -0.1639(3)
C1_2 C 1.5255(3) 0.63183(18) 0.0861(3)
C2_2 C 1.2042(3) 0.71600(19) 0.2562(3)
C3_2 C 1.3848(3) 0.64113(20) 0.1039(3)
C4_2 C 1.3522(3) 0.69396(18) 0.2304(3)
O10_2 O 1.4884(2) 0.55714(13) -0.1719(3)
C5_2 C 1.5764(3) 0.58148(18) -0.0570(3)
C6_2 C 1.5813(3) 0.72010(19) 0.3098(3)
C7B C 1.0093(3) 0.51549(19) -0.0901(3)
H1_2 H 1.315038 0.612087 0.0314
H2_2 H 1.652930 0.748530 0.382630
O2 O 0.6283(3) 0.92543(16) 0.0416(3)
O9 O 0.7565(3) 0.57183(17) 0.5723(3)
O11 O 0.50000 0.50000 0.50000
loop_
_geom_bond_atom_site_label_1
_geom_bond_atom_site_label_2
_geom_bond_site_symmetry_1
_geom_bond_site_symmetry_2
Gd1 O1 1_555 1_555
O1 C5 1_555 1_555
O3 C2 1_555 1_555
O4 Gd1 1_555 1_555
O5 C2 1_555 1_555
O6 Gd1 1_555 1_555
O7 C7 1_555 1_555
O8 Gd1 1_555 1_555
N1 Gd1 1_555 1_555
N2 C4 1_555 1_555
C1 N1 1_555 1_555
C2 C4 1_555 1_555
C3 C1 1_555 1_555
C4 C3 1_555 1_555
O10 C5 1_555 1_555
C5 C1 1_555 1_555
C6 N1 1_555 1_555
C7 O4 1_555 1_555
H1 C3 1_555 1_555
H2 C6 1_555 1_555
Gd1_2 O1_2 1_555 1_555
Gd1_3 O3 1_555 1_555
Gd1C O5 1_555 1_555
Gd1B O7 1_555 1_555
Gd1C_2 O5_2 1_555 1_555
O1_2 C5_2 1_555 1_555
O3_2 Gd1 1_555 1_555
O3_3 Gd1_2 1_555 1_555
O4B Gd1B 1_555 1_555
O4_2 Gd1_2 1_555 1_555
O5_2 C2_2 1_555 1_555
O5C Gd1 1_555 1_555
O5C_2 Gd1_2 1_555 1_555
O6_2 Gd1_2 1_555 1_555
O7B Gd1 1_555 1_555
O7B_2 Gd1_2 1_555 1_555
O8_2 Gd1_2 1_555 1_555
N1_2 Gd1_2 1_555 1_555
N2_2 Gd1C_2 1_555 1_555
N2C Gd1 1_555 1_555
N2C_2 Gd1_2 1_555 1_555
C1_2 N1_2 1_555 1_555
C2_2 O3_2 1_555 1_555
C3_2 C1_2 1_555 1_555
C4_2 N2_2 1_555 1_555
O10_2 C5_2 1_555 1_555
C5_2 C1_2 1_555 1_555
C6_2 N1_2 1_555 1_555
C7B C7 1_555 1_555
H1_2 C3_2 1_555 1_555
H2_2 C6_2 1_555 1_555
N2 C6 1_555 1_555
N2 Gd1C 1_555 1_555
O4B C7B 1_555 1_555
O7B C7B 1_555 1_555
N2_2 C6_2 1_555 1_555
C2_2 C4_2 1_555 1_555
C3_2 C4_2 1_555 1_555

#END
