
#######################################################################
#
#                 Cambridge Crystallographic Data Centre
#                                CCDC 
#
#######################################################################
#
# If this CIF has been generated from an entry in the Cambridge 
# Structural Database, then it will include bibliographic, chemical, 
# crystal, experimental, refinement or atomic coordinate data resulting 
# from the CCDC's data processing and validation procedures.
#
#######################################################################

data_CAKXUJ
_symmetry_cell_setting           monoclinic
_symmetry_space_group_name_H-M   'P 21/n'
_symmetry_Int_Tables_number      14
_space_group_name_Hall           '-P 2yn'
loop_
_symmetry_equiv_pos_site_id
_symmetry_equiv_pos_as_xyz
1 x,y,z
2 1/2-x,1/2+y,1/2-z
3 -x,-y,-z
4 1/2+x,1/2-y,1/2+z
_cell_length_a                   9.664(4)
_cell_length_b                   15.844(7)
_cell_length_c                   7.959(1)
_cell_angle_alpha                90
_cell_angle_beta                 96.489(4)
_cell_angle_gamma                90
_cell_volume                     1210.85
loop_
_atom_site_label
_atom_site_type_symbol
_atom_site_fract_x
_atom_site_fract_y
_atom_site_fract_z
Tb1 Tb 0.866676(12) 0.672929(8) 0.077057(16)
O1 O 0.70713(19) 0.57081(12) -0.0499(3)
O3 O 0.11009(19) 0.68929(12) 0.1482(3)
O4 O 0.9431(2) 0.53632(12) 0.1875(3)
O5 O 0.18740(19) 0.76121(12) 0.3802(2)
O6 O 0.8374(2) 0.81698(12) 0.1598(3)
O7 O 1.02308(20) 0.40965(11) 0.1255(2)
O8 O 0.8989(2) 0.67722(12) 0.3850(3)
N1 N 0.6243(2) 0.67181(14) 0.1869(3)
N2 N 0.4509(2) 0.73339(14) 0.3347(3)
C1 C 0.5264(3) 0.63222(16) 0.0850(3)
C2 C 0.2041(3) 0.71622(16) 0.2550(3)
C3 C 0.3856(3) 0.64137(17) 0.1033(3)
C4 C 0.3527(3) 0.69439(16) 0.2296(3)
O10 O 0.48860(20) 0.55682(12) -0.1727(3)
C5 C 0.5771(3) 0.58143(16) -0.0584(3)
C6 C 0.5823(3) 0.72056(16) 0.3084(4)
C7 C 0.9904(2) 0.48474(16) 0.0903(3)
H1 H 0.315038 0.612087 0.0314
H2 H 0.652930 0.748530 0.382630
Tb1_2 Tb 1.866676(12) 0.672929(8) 0.077057(16)
Tb1_3 Tb -0.133324(12) 0.672929(8) 0.077057(16)
Tb1C Tb 0.366676(12) 0.827071(8) 0.577057(16)
Tb1B Tb 1.133324(12) 0.327071(8) -0.077057(16)
Tb1C_2 Tb 1.366676(12) 0.827071(8) 0.577057(16)
O1_2 O 1.70713(19) 0.57081(12) -0.0499(3)
O3_2 O 1.11009(19) 0.68929(12) 0.1482(3)
O3_3 O 2.11009(19) 0.68929(12) 0.1482(3)
O4B O 1.0569(2) 0.46368(12) -0.1875(3)
O4_2 O 1.9431(2) 0.53632(12) 0.1875(3)
O5_2 O 1.18740(19) 0.76121(12) 0.3802(2)
O5C O 0.68740(19) 0.73879(12) -0.1198(2)
O5C_2 O 1.68740(19) 0.73879(12) -0.1198(2)
O6_2 O 1.8374(2) 0.81698(12) 0.1598(3)
O7B O 0.97692(20) 0.59035(11) -0.1255(2)
O7B_2 O 1.97692(20) 0.59035(11) -0.1255(2)
O8_2 O 1.8989(2) 0.67722(12) 0.3850(3)
N1_2 N 1.6243(2) 0.67181(14) 0.1869(3)
N2_2 N 1.4509(2) 0.73339(14) 0.3347(3)
N2C N 0.9509(2) 0.76661(14) -0.1653(3)
N2C_2 N 1.9509(2) 0.76661(14) -0.1653(3)
C1_2 C 1.5264(3) 0.63222(16) 0.0850(3)
C2_2 C 1.2041(3) 0.71622(16) 0.2550(3)
C3_2 C 1.3856(3) 0.64137(17) 0.1033(3)
C4_2 C 1.3527(3) 0.69439(16) 0.2296(3)
O10_2 O 1.48860(20) 0.55682(12) -0.1727(3)
C5_2 C 1.5771(3) 0.58143(16) -0.0584(3)
C6_2 C 1.5823(3) 0.72056(16) 0.3084(4)
C7B C 1.0096(2) 0.51526(16) -0.0903(3)
H1_2 H 1.315038 0.612087 0.0314
H2_2 H 1.652930 0.748530 0.382630
O2 O 0.6293(2) 0.92508(13) 0.0421(3)
O9 O 0.7571(3) 0.57267(15) 0.5723(3)
O11 O 0.50000 0.50000 0.50000
loop_
_geom_bond_atom_site_label_1
_geom_bond_atom_site_label_2
_geom_bond_site_symmetry_1
_geom_bond_site_symmetry_2
Tb1 O1 1_555 1_555
O1 C5 1_555 1_555
O3 C2 1_555 1_555
O4 Tb1 1_555 1_555
O5 C2 1_555 1_555
O6 Tb1 1_555 1_555
O7 C7 1_555 1_555
O8 Tb1 1_555 1_555
N1 Tb1 1_555 1_555
N2 C4 1_555 1_555
C1 N1 1_555 1_555
C2 C4 1_555 1_555
C3 C1 1_555 1_555
C4 C3 1_555 1_555
O10 C5 1_555 1_555
C5 C1 1_555 1_555
C6 N1 1_555 1_555
C7 O4 1_555 1_555
H1 C3 1_555 1_555
H2 C6 1_555 1_555
Tb1_2 O1_2 1_555 1_555
Tb1_3 O3 1_555 1_555
Tb1C O5 1_555 1_555
Tb1B O7 1_555 1_555
Tb1C_2 O5_2 1_555 1_555
O1_2 C5_2 1_555 1_555
O3_2 Tb1 1_555 1_555
O3_3 Tb1_2 1_555 1_555
O4B Tb1B 1_555 1_555
O4_2 Tb1_2 1_555 1_555
O5_2 C2_2 1_555 1_555
O5C Tb1 1_555 1_555
O5C_2 Tb1_2 1_555 1_555
O6_2 Tb1_2 1_555 1_555
O7B Tb1 1_555 1_555
O7B_2 Tb1_2 1_555 1_555
O8_2 Tb1_2 1_555 1_555
N1_2 Tb1_2 1_555 1_555
N2_2 Tb1C_2 1_555 1_555
N2C Tb1 1_555 1_555
N2C_2 Tb1_2 1_555 1_555
C1_2 N1_2 1_555 1_555
C2_2 O3_2 1_555 1_555
C3_2 C1_2 1_555 1_555
C4_2 N2_2 1_555 1_555
O10_2 C5_2 1_555 1_555
C5_2 C1_2 1_555 1_555
C6_2 N1_2 1_555 1_555
C7B C7 1_555 1_555
H1_2 C3_2 1_555 1_555
H2_2 C6_2 1_555 1_555
N2 C6 1_555 1_555
N2 Tb1C 1_555 1_555
O4B C7B 1_555 1_555
O7B C7B 1_555 1_555
N2_2 C6_2 1_555 1_555
C2_2 C4_2 1_555 1_555
C3_2 C4_2 1_555 1_555

#END
