
#######################################################################
#
#                 Cambridge Crystallographic Data Centre
#                                CCDC 
#
#######################################################################
#
# If this CIF has been generated from an entry in the Cambridge 
# Structural Database, then it will include bibliographic, chemical, 
# crystal, experimental, refinement or atomic coordinate data resulting 
# from the CCDC's data processing and validation procedures.
#
#######################################################################

data_CAKXIX
_symmetry_cell_setting           monoclinic
_symmetry_space_group_name_H-M   'P 21/n'
_symmetry_Int_Tables_number      14
_space_group_name_Hall           '-P 2yn'
loop_
_symmetry_equiv_pos_site_id
_symmetry_equiv_pos_as_xyz
1 x,y,z
2 1/2-x,1/2+y,1/2-z
3 -x,-y,-z
4 1/2+x,1/2-y,1/2+z
_cell_length_a                   9.723(1)
_cell_length_b                   15.909(1)
_cell_length_c                   7.981(2)
_cell_angle_alpha                90
_cell_angle_beta                 96.290(5)
_cell_angle_gamma                90
_cell_volume                     1227.09
loop_
_atom_site_label
_atom_site_type_symbol
_atom_site_fract_x
_atom_site_fract_y
_atom_site_fract_z
Eu1 Eu 0.865537(16) 0.673228(11) 0.07870(2)
O1 O 0.7050(2) 0.57118(15) -0.0496(3)
O3 O 0.1108(2) 0.68944(14) 0.1484(3)
O4 O 0.9432(2) 0.53575(15) 0.1877(3)
O5 O 0.1867(2) 0.76034(16) 0.3808(3)
O6 O 0.8337(2) 0.81853(15) 0.1629(3)
O7 O 1.0236(2) 0.41019(15) 0.1250(3)
O8 O 0.8987(2) 0.67673(17) 0.3887(3)
N1 N 0.6221(2) 0.67081(19) 0.1882(3)
N2 N 0.4492(3) 0.73226(18) 0.3358(3)
C1 C 0.5251(3) 0.6317(2) 0.0859(4)
C2 C 0.2040(3) 0.7156(2) 0.2562(4)
C3 C 0.3851(3) 0.6408(2) 0.1039(4)
C4 C 0.3518(3) 0.6937(2) 0.2308(4)
O10 O 0.4872(2) 0.55709(15) -0.1718(3)
C5 C 0.5757(3) 0.5815(2) -0.0568(4)
C6 C 0.5805(3) 0.7191(2) 0.3103(4)
C7 C 0.9903(3) 0.4841(2) 0.0899(4)
H1 H 0.315038 0.612087 0.0314
H2 H 0.652930 0.748530 0.382630
Eu1_2 Eu 1.865537(16) 0.673228(11) 0.07870(2)
Eu1_3 Eu -0.134463(16) 0.673228(11) 0.07870(2)
Eu1C Eu 0.365537(16) 0.826772(11) 0.57870(2)
Eu1B Eu 1.134463(16) 0.326772(11) -0.07870(2)
Eu1C_2 Eu 1.365537(16) 0.826772(11) 0.57870(2)
O1_2 O 1.7050(2) 0.57118(15) -0.0496(3)
O3_2 O 1.1108(2) 0.68944(14) 0.1484(3)
O3_3 O 2.1108(2) 0.68944(14) 0.1484(3)
O4B O 1.0568(2) 0.46425(15) -0.1877(3)
O4_2 O 1.9432(2) 0.53575(15) 0.1877(3)
O5_2 O 1.1867(2) 0.76034(16) 0.3808(3)
O5C O 0.6867(2) 0.73966(16) -0.1192(3)
O5C_2 O 1.6867(2) 0.73966(16) -0.1192(3)
O6_2 O 1.8337(2) 0.81853(15) 0.1629(3)
O7B O 0.9764(2) 0.58981(15) -0.1250(3)
O7B_2 O 1.9764(2) 0.58981(15) -0.1250(3)
O8_2 O 1.8987(2) 0.67673(17) 0.3887(3)
N1_2 N 1.6221(2) 0.67081(19) 0.1882(3)
N2_2 N 1.4492(3) 0.73226(18) 0.3358(3)
N2C N 0.9492(3) 0.76774(18) -0.1642(3)
N2C_2 N 1.9492(3) 0.76774(18) -0.1642(3)
C1_2 C 1.5251(3) 0.6317(2) 0.0859(4)
C2_2 C 1.2040(3) 0.7156(2) 0.2562(4)
C3_2 C 1.3851(3) 0.6408(2) 0.1039(4)
C4_2 C 1.3518(3) 0.6937(2) 0.2308(4)
O10_2 O 1.4872(2) 0.55709(15) -0.1718(3)
C5_2 C 1.5757(3) 0.5815(2) -0.0568(4)
C6_2 C 1.5805(3) 0.7191(2) 0.3103(4)
C7B C 1.0097(3) 0.5159(2) -0.0899(4)
H1_2 H 1.315038 0.612087 0.0314
H2_2 H 1.652930 0.748530 0.382630
O2 O 0.6278(3) 0.92534(18) 0.0414(3)
O9 O 0.7570(3) 0.5715(2) 0.5720(4)
O11 O 0.50000 0.50000 0.50000
loop_
_geom_bond_atom_site_label_1
_geom_bond_atom_site_label_2
_geom_bond_site_symmetry_1
_geom_bond_site_symmetry_2
Eu1 O1 1_555 1_555
O1 C5 1_555 1_555
O3 C2 1_555 1_555
O4 Eu1 1_555 1_555
O5 C2 1_555 1_555
O6 Eu1 1_555 1_555
O7 C7 1_555 1_555
O8 Eu1 1_555 1_555
N1 Eu1 1_555 1_555
N2 C4 1_555 1_555
C1 N1 1_555 1_555
C2 C4 1_555 1_555
C3 C1 1_555 1_555
C4 C3 1_555 1_555
O10 C5 1_555 1_555
C5 C1 1_555 1_555
C6 N1 1_555 1_555
C7 O4 1_555 1_555
H1 C3 1_555 1_555
H2 C6 1_555 1_555
Eu1_2 O1_2 1_555 1_555
Eu1_3 O3 1_555 1_555
Eu1C O5 1_555 1_555
Eu1B O7 1_555 1_555
Eu1C_2 O5_2 1_555 1_555
O1_2 C5_2 1_555 1_555
O3_2 Eu1 1_555 1_555
O3_3 Eu1_2 1_555 1_555
O4B Eu1B 1_555 1_555
O4_2 Eu1_2 1_555 1_555
O5_2 C2_2 1_555 1_555
O5C Eu1 1_555 1_555
O5C_2 Eu1_2 1_555 1_555
O6_2 Eu1_2 1_555 1_555
O7B Eu1 1_555 1_555
O7B_2 Eu1_2 1_555 1_555
O8_2 Eu1_2 1_555 1_555
N1_2 Eu1_2 1_555 1_555
N2_2 Eu1C_2 1_555 1_555
N2C Eu1 1_555 1_555
N2C_2 Eu1_2 1_555 1_555
C1_2 N1_2 1_555 1_555
C2_2 O3_2 1_555 1_555
C3_2 C1_2 1_555 1_555
C4_2 N2_2 1_555 1_555
O10_2 C5_2 1_555 1_555
C5_2 C1_2 1_555 1_555
C6_2 N1_2 1_555 1_555
C7B C7 1_555 1_555
H1_2 C3_2 1_555 1_555
H2_2 C6_2 1_555 1_555
N2 C6 1_555 1_555
N2 Eu1C 1_555 1_555
O4B C7B 1_555 1_555
O7B C7B 1_555 1_555
N2_2 C6_2 1_555 1_555
C2_2 C4_2 1_555 1_555
C3_2 C4_2 1_555 1_555

#END
