
#######################################################################
#
#                 Cambridge Crystallographic Data Centre
#                                CCDC 
#
#######################################################################
#
# If this CIF has been generated from an entry in the Cambridge 
# Structural Database, then it will include bibliographic, chemical, 
# crystal, experimental, refinement or atomic coordinate data resulting 
# from the CCDC's data processing and validation procedures.
#
#######################################################################

data_CAKYAQ
_symmetry_cell_setting           monoclinic
_symmetry_space_group_name_H-M   'P 21/n'
_symmetry_Int_Tables_number      14
_space_group_name_Hall           '-P 2yn'
loop_
_symmetry_equiv_pos_site_id
_symmetry_equiv_pos_as_xyz
1 x,y,z
2 1/2-x,1/2+y,1/2-z
3 -x,-y,-z
4 1/2+x,1/2-y,1/2+z
_cell_length_a                   9.650(4)
_cell_length_b                   15.845(5)
_cell_length_c                   7.955(3)
_cell_angle_alpha                90
_cell_angle_beta                 96.555(4)
_cell_angle_gamma                90
_cell_volume                     1208.4
loop_
_atom_site_label
_atom_site_type_symbol
_atom_site_fract_x
_atom_site_fract_y
_atom_site_fract_z
Dy1 Dy 0.86690(2) 0.672903(14) 0.07562(3)
O1 O 0.7082(3) 0.5706(2) -0.0505(5)
O3 O 0.1096(4) 0.6895(2) 0.1473(5)
O4 O 0.9433(4) 0.5369(2) 0.1874(4)
O5 O 0.1876(3) 0.7617(2) 0.3793(4)
O6 O 0.8391(4) 0.8168(2) 0.1575(5)
O7 O 1.0229(3) 0.4096(2) 0.1261(4)
O8 O 0.8987(4) 0.6773(2) 0.3830(5)
N1 N 0.6250(4) 0.6722(2) 0.1862(5)
N2 N 0.4517(4) 0.7341(3) 0.3335(5)
C1 C 0.5267(5) 0.6319(3) 0.0839(6)
C2 C 0.2048(5) 0.7166(3) 0.2539(6)
C3 C 0.3858(5) 0.6411(3) 0.1023(6)
C4 C 0.3530(5) 0.6946(3) 0.2282(6)
O10 O 0.4892(4) 0.5565(2) -0.1734(4)
C5 C 0.5769(5) 0.5812(3) -0.0584(6)
C6 C 0.5832(5) 0.7210(3) 0.3074(6)
C7 C 0.9904(5) 0.4849(3) 0.0898(6)
H1 H 0.315038 0.612087 0.0314
H2 H 0.652930 0.748530 0.382630
Dy1_2 Dy 1.86690(2) 0.672903(14) 0.07562(3)
Dy1_3 Dy -0.13310(2) 0.672903(14) 0.07562(3)
Dy1C Dy 0.36690(2) 0.827097(14) 0.57562(3)
Dy1B Dy 1.13310(2) 0.327097(14) -0.07562(3)
Dy1C_2 Dy 1.36690(2) 0.827097(14) 0.57562(3)
O1_2 O 1.7082(3) 0.5706(2) -0.0505(5)
O3_2 O 1.1096(4) 0.6895(2) 0.1473(5)
O3_3 O 2.1096(4) 0.6895(2) 0.1473(5)
O4B O 1.0567(4) 0.4631(2) -0.1874(4)
O4_2 O 1.9433(4) 0.5369(2) 0.1874(4)
O5_2 O 1.1876(3) 0.7617(2) 0.3793(4)
O5C O 0.6876(3) 0.7383(2) -0.1207(4)
O5C_2 O 1.6876(3) 0.7383(2) -0.1207(4)
O6_2 O 1.8391(4) 0.8168(2) 0.1575(5)
O7B O 0.9771(3) 0.5904(2) -0.1261(4)
O7B_2 O 1.9771(3) 0.5904(2) -0.1261(4)
O8_2 O 1.8987(4) 0.6773(2) 0.3830(5)
N1_2 N 1.6250(4) 0.6722(2) 0.1862(5)
N2_2 N 1.4517(4) 0.7341(3) 0.3335(5)
N2C N 0.9517(4) 0.7659(3) -0.1665(5)
N2C_2 N 1.9517(4) 0.7659(3) -0.1665(5)
C1_2 C 1.5267(5) 0.6319(3) 0.0839(6)
C2_2 C 1.2048(5) 0.7166(3) 0.2539(6)
C3_2 C 1.3858(5) 0.6411(3) 0.1023(6)
C4_2 C 1.3530(5) 0.6946(3) 0.2282(6)
O10_2 O 1.4892(4) 0.5565(2) -0.1734(4)
C5_2 C 1.5769(5) 0.5812(3) -0.0584(6)
C6_2 C 1.5832(5) 0.7210(3) 0.3074(6)
C7B C 1.0096(5) 0.5151(3) -0.0898(6)
H1_2 H 1.315038 0.612087 0.0314
H2_2 H 1.652930 0.748530 0.382630
O2 O 0.6297(4) 0.9254(3) 0.0420(5)
O9 O 0.7559(5) 0.5729(3) 0.5707(6)
O11 O 0.50000 0.50000 0.50000
loop_
_geom_bond_atom_site_label_1
_geom_bond_atom_site_label_2
_geom_bond_site_symmetry_1
_geom_bond_site_symmetry_2
Dy1 O1 1_555 1_555
O1 C5 1_555 1_555
O3 C2 1_555 1_555
O4 Dy1 1_555 1_555
O5 C2 1_555 1_555
O6 Dy1 1_555 1_555
O7 C7 1_555 1_555
O8 Dy1 1_555 1_555
N1 Dy1 1_555 1_555
N2 C4 1_555 1_555
C1 N1 1_555 1_555
C2 C4 1_555 1_555
C3 C1 1_555 1_555
C4 C3 1_555 1_555
O10 C5 1_555 1_555
C5 C1 1_555 1_555
C6 N1 1_555 1_555
C7 O4 1_555 1_555
H1 C3 1_555 1_555
H2 C6 1_555 1_555
Dy1_2 O1_2 1_555 1_555
Dy1_3 O3 1_555 1_555
Dy1C O5 1_555 1_555
Dy1B O7 1_555 1_555
Dy1C_2 O5_2 1_555 1_555
O1_2 C5_2 1_555 1_555
O3_2 Dy1 1_555 1_555
O3_3 Dy1_2 1_555 1_555
O4B Dy1B 1_555 1_555
O4_2 Dy1_2 1_555 1_555
O5_2 C2_2 1_555 1_555
O5C Dy1 1_555 1_555
O5C_2 Dy1_2 1_555 1_555
O6_2 Dy1_2 1_555 1_555
O7B Dy1 1_555 1_555
O7B_2 Dy1_2 1_555 1_555
O8_2 Dy1_2 1_555 1_555
N1_2 Dy1_2 1_555 1_555
N2_2 Dy1C_2 1_555 1_555
N2C Dy1 1_555 1_555
N2C_2 Dy1_2 1_555 1_555
C1_2 N1_2 1_555 1_555
C2_2 O3_2 1_555 1_555
C3_2 C1_2 1_555 1_555
C4_2 N2_2 1_555 1_555
O10_2 C5_2 1_555 1_555
C5_2 C1_2 1_555 1_555
C6_2 N1_2 1_555 1_555
C7B C7 1_555 1_555
H1_2 C3_2 1_555 1_555
H2_2 C6_2 1_555 1_555
N2 C6 1_555 1_555
N2 Dy1C 1_555 1_555
O4B C7B 1_555 1_555
O7B C7B 1_555 1_555
N2_2 C6_2 1_555 1_555
C2_2 C4_2 1_555 1_555
C3_2 C4_2 1_555 1_555

#END
