
#######################################################################
#
#                 Cambridge Crystallographic Data Centre
#                                CCDC 
#
#######################################################################
#
# If this CIF has been generated from an entry in the Cambridge 
# Structural Database, then it will include bibliographic, chemical, 
# crystal, experimental, refinement or atomic coordinate data resulting 
# from the CCDC's data processing and validation procedures.
#
#######################################################################

data_CAKYEU
_symmetry_cell_setting           monoclinic
_symmetry_space_group_name_H-M   'P 21/n'
_symmetry_Int_Tables_number      14
_space_group_name_Hall           '-P 2yn'
loop_
_symmetry_equiv_pos_site_id
_symmetry_equiv_pos_as_xyz
1 x,y,z
2 1/2-x,1/2+y,1/2-z
3 -x,-y,-z
4 1/2+x,1/2-y,1/2+z
_cell_length_a                   9.6219(3)
_cell_length_b                   15.8216(4)
_cell_length_c                   7.9375(2)
_cell_angle_alpha                90
_cell_angle_beta                 96.625(3)
_cell_angle_gamma                90
_cell_volume                     1200.29
loop_
_atom_site_label
_atom_site_type_symbol
_atom_site_fract_x
_atom_site_fract_y
_atom_site_fract_z
Ho1 Ho 0.866924(17) 0.672765(11) 0.07276(2)
O1 O 0.7084(3) 0.57069(16) -0.0515(3)
O3 O 0.1091(3) 0.68988(16) 0.1439(3)
O4 O 0.9436(3) 0.53773(16) 0.1870(3)
O5 O 0.1874(3) 0.76254(17) 0.3764(3)
O6 O 0.8400(3) 0.81660(16) 0.1517(3)
O7 O 1.0226(3) 0.41026(16) 0.1273(3)
O8 O 0.8983(3) 0.67869(18) 0.3793(3)
N1 N 0.6257(3) 0.67276(19) 0.1828(3)
N2 N 0.4522(3) 0.73498(19) 0.3312(4)
C1 C 0.5271(3) 0.6321(2) 0.0819(4)
C2 C 0.2042(4) 0.7171(2) 0.2513(4)
C3 C 0.3862(3) 0.6414(2) 0.1005(4)
C4 C 0.3527(4) 0.6950(2) 0.2253(4)
O10 O 0.4886(3) 0.55561(16) -0.1752(3)
C5 C 0.5774(4) 0.5811(2) -0.0604(4)
C6 C 0.5845(4) 0.7220(2) 0.3034(4)
C7 C 0.9901(3) 0.4850(2) 0.0912(4)
H1 H 0.315038 0.612087 0.0314
H2 H 0.652930 0.748530 0.382630
Ho1_2 Ho 1.866924(17) 0.672765(11) 0.07276(2)
Ho1_3 Ho -0.133076(17) 0.672765(11) 0.07276(2)
Ho1C Ho 0.366924(17) 0.827235(11) 0.57276(2)
Ho1B Ho 1.133076(17) 0.327235(11) -0.07276(2)
Ho1C_2 Ho 1.366924(17) 0.827235(11) 0.57276(2)
O1_2 O 1.7084(3) 0.57069(16) -0.0515(3)
O3_2 O 1.1091(3) 0.68988(16) 0.1439(3)
O3_3 O 2.1091(3) 0.68988(16) 0.1439(3)
O4B O 1.0564(3) 0.46227(16) -0.1870(3)
O4_2 O 1.9436(3) 0.53773(16) 0.1870(3)
O5_2 O 1.1874(3) 0.76254(17) 0.3764(3)
O5C O 0.6874(3) 0.73746(17) -0.1236(3)
O5C_2 O 1.6874(3) 0.73746(17) -0.1236(3)
O6_2 O 1.8400(3) 0.81660(16) 0.1517(3)
O7B O 0.9774(3) 0.58974(16) -0.1273(3)
O7B_2 O 1.9774(3) 0.58974(16) -0.1273(3)
O8_2 O 1.8983(3) 0.67869(18) 0.3793(3)
N1_2 N 1.6257(3) 0.67276(19) 0.1828(3)
N2_2 N 1.4522(3) 0.73498(19) 0.3312(4)
N2C N 0.9522(3) 0.76502(19) -0.1688(4)
N2C_2 N 1.9522(3) 0.76502(19) -0.1688(4)
C1_2 C 1.5271(3) 0.6321(2) 0.0819(4)
C2_2 C 1.2042(4) 0.7171(2) 0.2513(4)
C3_2 C 1.3862(3) 0.6414(2) 0.1005(4)
C4_2 C 1.3527(4) 0.6950(2) 0.2253(4)
O10_2 O 1.4886(3) 0.55561(16) -0.1752(3)
C5_2 C 1.5774(4) 0.5811(2) -0.0604(4)
C6_2 C 1.5845(4) 0.7220(2) 0.3034(4)
C7B C 1.0099(3) 0.5150(2) -0.0912(4)
H1_2 H 1.315038 0.612087 0.0314
H2_2 H 1.652930 0.748530 0.382630
O2 O 0.6298(3) 0.9249(2) 0.0407(4)
O9 O 0.7552(5) 0.5744(2) 0.5662(4)
O11 O 0.50000 0.50000 0.50000
loop_
_geom_bond_atom_site_label_1
_geom_bond_atom_site_label_2
_geom_bond_site_symmetry_1
_geom_bond_site_symmetry_2
Ho1 O1 1_555 1_555
O1 C5 1_555 1_555
O3 C2 1_555 1_555
O4 Ho1 1_555 1_555
O5 C2 1_555 1_555
O6 Ho1 1_555 1_555
O7 C7 1_555 1_555
O8 Ho1 1_555 1_555
N1 Ho1 1_555 1_555
N2 C4 1_555 1_555
C1 N1 1_555 1_555
C2 C4 1_555 1_555
C3 C1 1_555 1_555
C4 C3 1_555 1_555
O10 C5 1_555 1_555
C5 C1 1_555 1_555
C6 N1 1_555 1_555
C7 O4 1_555 1_555
H1 C3 1_555 1_555
H2 C6 1_555 1_555
Ho1_2 O1_2 1_555 1_555
Ho1_3 O3 1_555 1_555
Ho1C O5 1_555 1_555
Ho1B O7 1_555 1_555
Ho1C_2 O5_2 1_555 1_555
O1_2 C5_2 1_555 1_555
O3_2 Ho1 1_555 1_555
O3_3 Ho1_2 1_555 1_555
O4B Ho1B 1_555 1_555
O4_2 Ho1_2 1_555 1_555
O5_2 C2_2 1_555 1_555
O5C Ho1 1_555 1_555
O5C_2 Ho1_2 1_555 1_555
O6_2 Ho1_2 1_555 1_555
O7B Ho1 1_555 1_555
O7B_2 Ho1_2 1_555 1_555
O8_2 Ho1_2 1_555 1_555
N1_2 Ho1_2 1_555 1_555
N2_2 Ho1C_2 1_555 1_555
N2C Ho1 1_555 1_555
N2C_2 Ho1_2 1_555 1_555
C1_2 N1_2 1_555 1_555
C2_2 O3_2 1_555 1_555
C3_2 C1_2 1_555 1_555
C4_2 N2_2 1_555 1_555
O10_2 C5_2 1_555 1_555
C5_2 C1_2 1_555 1_555
C6_2 N1_2 1_555 1_555
C7B C7 1_555 1_555
H1_2 C3_2 1_555 1_555
H2_2 C6_2 1_555 1_555
N2 C6 1_555 1_555
N2 Ho1C 1_555 1_555
O4B C7B 1_555 1_555
O7B C7B 1_555 1_555
N2_2 C6_2 1_555 1_555
C2_2 C4_2 1_555 1_555
C3_2 C4_2 1_555 1_555

#END
