
#######################################################################
#
#                 Cambridge Crystallographic Data Centre
#                                CCDC 
#
#######################################################################
#
# If this CIF has been generated from an entry in the Cambridge 
# Structural Database, then it will include bibliographic, chemical, 
# crystal, experimental, refinement or atomic coordinate data resulting 
# from the CCDC's data processing and validation procedures.
#
#######################################################################

data_CALBUO
_symmetry_cell_setting           monoclinic
_symmetry_space_group_name_H-M   'P 21/c'
_symmetry_Int_Tables_number      14
_space_group_name_Hall           '-P 2ybc'
loop_
_symmetry_equiv_pos_site_id
_symmetry_equiv_pos_as_xyz
1 x,y,z
2 -x,1/2+y,1/2-z
3 -x,-y,-z
4 x,1/2-y,1/2+z
_cell_length_a                   11.817(3)
_cell_length_b                   9.871(2)
_cell_length_c                   14.106(3)
_cell_angle_alpha                90
_cell_angle_beta                 95.305(4)
_cell_angle_gamma                90
_cell_volume                     1638.36
loop_
_atom_site_label
_atom_site_type_symbol
_atom_site_fract_x
_atom_site_fract_y
_atom_site_fract_z
Cu1 Cu 1.05825(2) 0.59104(3) 0.40651(2)
N1 N 0.96321(18) 0.7580(2) 0.41391(15)
C1 C 0.9890(3) 0.8781(3) 0.3788(2)
H1 H 1.0590 0.8988 0.3573
N2 N 0.9034(2) 0.9647(3) 0.37823(19)
H2 H 0.896(3) 1.041(4) 0.352(3)
C2 C 0.8157(3) 0.8987(3) 0.4145(3)
H3 H 0.7441 0.9336 0.4227
C3 C 0.8535(3) 0.7724(3) 0.4360(2)
H4 H 0.8111 0.7049 0.4621
N3 N 1.15042(19) 0.4320(2) 0.37451(15)
C4 C 1.1126(2) 0.3139(3) 0.33940(19)
H5 H 1.0362 0.2918 0.3269
N4 N 1.1981(2) 0.2314(3) 0.32436(18)
H6 H 1.185(3) 0.151(4) 0.301(3)
C5 C 1.2966(3) 0.2978(3) 0.3501(2)
H7 H 1.3700 0.2650 0.3470
C6 C 1.2672(2) 0.4207(3) 0.3811(2)
H8 H 1.3179 0.4879 0.4036
O1 O 1.19108(15) 0.70647(18) 0.39250(13)
O2 O 1.15831(16) 0.69392(19) 0.23474(14)
O3 O 1.12550(15) 1.00886(18) 0.22560(12)
O4 O 1.07498(15) 0.97182(18) 0.07356(12)
C7 C 1.3204(2) 0.8174(3) 0.30251(18)
C8 C 1.3991(2) 0.8237(3) 0.3822(2)
H9 H 1.3861 0.7740 0.4362
C9 C 1.4952(3) 0.9014(4) 0.3831(3)
H10 H 1.5470 0.9031 0.4368
C10 C 1.5151(3) 0.9770(4) 0.3042(3)
H11 H 1.5798 1.0307 0.3047
C11 C 1.4380(2) 0.9722(4) 0.2244(2)
H12 H 1.4518 1.0238 0.1715
C12 C 1.3409(2) 0.8933(3) 0.2207(2)
C13 C 1.2152(2) 0.7324(2) 0.30784(19)
C14 C 1.2591(2) 0.8985(3) 0.13245(19)
H13 H 1.2455 0.8069 0.1093
H14 H 1.2942 0.9483 0.0837
C15 C 1.1458(2) 0.9638(2) 0.14671(17)
Cu1A Cu 0.94175(2) 1.09104(3) 0.09349(2)
Cu1C Cu 1.05825(2) 0.90896(3) -0.09349(2)
O4A O 0.92502(15) 0.47182(18) 0.42644(12)
O4C O 1.07498(15) 0.52818(18) 0.57356(12)
loop_
_geom_bond_atom_site_label_1
_geom_bond_atom_site_label_2
_geom_bond_site_symmetry_1
_geom_bond_site_symmetry_2
Cu1 N1 1_555 1_555
N1 C1 1_555 1_555
C1 H1 1_555 1_555
N2 C1 1_555 1_555
H2 N2 1_555 1_555
C2 N2 1_555 1_555
H3 C2 1_555 1_555
C3 N1 1_555 1_555
H4 C3 1_555 1_555
N3 Cu1 1_555 1_555
C4 N3 1_555 1_555
H5 C4 1_555 1_555
N4 C4 1_555 1_555
H6 N4 1_555 1_555
C5 N4 1_555 1_555
H7 C5 1_555 1_555
C6 N3 1_555 1_555
H8 C6 1_555 1_555
O1 Cu1 1_555 1_555
O2 C13 1_555 1_555
O3 C15 1_555 1_555
O4 C15 1_555 1_555
C7 C8 1_555 1_555
C8 H9 1_555 1_555
C9 C8 1_555 1_555
H10 C9 1_555 1_555
C10 C9 1_555 1_555
H11 C10 1_555 1_555
C11 C10 1_555 1_555
H12 C11 1_555 1_555
C12 C7 1_555 1_555
C13 O1 1_555 1_555
C14 C12 1_555 1_555
H13 C14 1_555 1_555
H14 C14 1_555 1_555
C15 C14 1_555 1_555
Cu1A O4 1_555 1_555
Cu1C O4 1_555 1_555
O4A Cu1 1_555 1_555
O4C Cu1 1_555 1_555
C2 C3 1_555 1_555
C5 C6 1_555 1_555
C7 C13 1_555 1_555
C11 C12 1_555 1_555

#END
