
#######################################################################
#
#                 Cambridge Crystallographic Data Centre
#                                CCDC 
#
#######################################################################
#
# If this CIF has been generated from an entry in the Cambridge 
# Structural Database, then it will include bibliographic, chemical, 
# crystal, experimental, refinement or atomic coordinate data resulting 
# from the CCDC's data processing and validation procedures.
#
#######################################################################

data_CALBUO01
_symmetry_cell_setting           monoclinic
_symmetry_space_group_name_H-M   'P 21/c'
_symmetry_Int_Tables_number      14
_space_group_name_Hall           '-P 2ybc'
loop_
_symmetry_equiv_pos_site_id
_symmetry_equiv_pos_as_xyz
1 x,y,z
2 -x,1/2+y,1/2-z
3 -x,-y,-z
4 x,1/2-y,1/2+z
_cell_length_a                   11.8066(4)
_cell_length_b                   9.8601(3)
_cell_length_c                   13.8923(4)
_cell_angle_alpha                90
_cell_angle_beta                 94.462(2)
_cell_angle_gamma                90
_cell_volume                     1612.36
loop_
_atom_site_label
_atom_site_type_symbol
_atom_site_fract_x
_atom_site_fract_y
_atom_site_fract_z
C1 C 0.28497(12) 0.73384(15) 0.19389(11)
C2 C 0.17936(12) 0.81925(16) 0.19928(11)
C3 C 0.10266(14) 0.82517(19) 0.11776(12)
H1 H 0.1170 0.7750 0.0633
C4 C 0.00560(15) 0.9043(2) 0.11632(13)
H2 H -0.0454 0.9056 0.0618
C5 C -0.01524(15) 0.9816(2) 0.19642(14)
H3 H -0.0797 1.0359 0.1958
C6 C 0.06113(14) 0.97708(18) 0.27763(12)
H4 H 0.0471 1.0296 0.3310
C7 C 0.15808(13) 0.89619(16) 0.28141(11)
C8 C 0.23859(13) 0.90138(16) 0.37107(11)
H5 H 0.2504 0.8100 0.3956
H6 H 0.2038 0.9536 0.4201
C9 C 0.35326(12) 0.96369(15) 0.35437(10)
C10 C 0.65071(13) 0.76840(17) 0.06380(12)
H7 H 0.6930 0.7000 0.0376
C11 C 0.68898(15) 0.89532(18) 0.08651(14)
H8 H 0.7612 0.9296 0.0790
C12 C 0.51248(14) 0.87703(17) 0.12124(11)
H9 H 0.4419 0.8986 0.1424
C13 C 0.23257(14) 0.42469(16) 0.12357(11)
H10 H 0.1825 0.4934 0.1027
C14 C 0.20220(14) 0.30007(17) 0.15476(12)
H11 H 0.1288 0.2677 0.1592
C15 C 0.38794(13) 0.31417(16) 0.16142(11)
H12 H 0.4643 0.2912 0.1719
N1 N 0.53919(11) 0.75716(14) 0.08581(9)
N2 N 0.60031(12) 0.96264(15) 0.12252(10)
N3 N 0.34986(11) 0.43302(14) 0.12780(9)
N4 N 0.30165(12) 0.23188(15) 0.17823(10)
O1 O 0.31038(9) 0.70733(11) 0.10796(8)
O2 O 0.34063(10) 0.69608(11) 0.26873(8)
O3 O 0.42476(9) 0.97052(11) 0.42800(7)
O4 O 0.37394(9) 1.00833(11) 0.27386(8)
Cu1 Cu 0.442734(14) 0.591181(18) 0.093185(12)
H13 H 0.314(2) 0.155(3) 0.2038(17)
H14 H 0.608(2) 1.034(3) 0.1497(18)
O3A O 0.57524(9) 0.47052(11) 0.07200(7)
O3C O 0.42476(9) 0.52948(11) -0.07200(7)
Cu1A Cu 0.557266(14) 1.091181(18) 0.406815(12)
Cu1C Cu 0.442734(14) 0.908819(18) 0.593185(12)
loop_
_geom_bond_atom_site_label_1
_geom_bond_atom_site_label_2
_geom_bond_site_symmetry_1
_geom_bond_site_symmetry_2
C1 C2 1_555 1_555
C2 C3 1_555 1_555
C3 H1 1_555 1_555
C4 C3 1_555 1_555
H2 C4 1_555 1_555
C5 C4 1_555 1_555
H3 C5 1_555 1_555
C6 C5 1_555 1_555
H4 C6 1_555 1_555
C7 C2 1_555 1_555
C8 C7 1_555 1_555
H5 C8 1_555 1_555
H6 C8 1_555 1_555
C9 C8 1_555 1_555
C10 H7 1_555 1_555
C11 C10 1_555 1_555
H8 C11 1_555 1_555
C12 H9 1_555 1_555
C13 H10 1_555 1_555
C14 C13 1_555 1_555
H11 C14 1_555 1_555
C15 H12 1_555 1_555
N1 C10 1_555 1_555
N2 C11 1_555 1_555
N3 C13 1_555 1_555
N4 C14 1_555 1_555
O1 C1 1_555 1_555
O2 C1 1_555 1_555
O3 C9 1_555 1_555
O4 C9 1_555 1_555
Cu1 N1 1_555 1_555
H13 N4 1_555 1_555
H14 N2 1_555 1_555
O3A Cu1 1_555 1_555
O3C Cu1 1_555 1_555
Cu1A O3 1_555 1_555
Cu1C O3 1_555 1_555
C6 C7 1_555 1_555
C12 N1 1_555 1_555
C12 N2 1_555 1_555
C15 N3 1_555 1_555
C15 N4 1_555 1_555
N3 Cu1 1_555 1_555
O1 Cu1 1_555 1_555

#END
