
#######################################################################
#
#                 Cambridge Crystallographic Data Centre
#                                CCDC 
#
#######################################################################
#
# If this CIF has been generated from an entry in the Cambridge 
# Structural Database, then it will include bibliographic, chemical, 
# crystal, experimental, refinement or atomic coordinate data resulting 
# from the CCDC's data processing and validation procedures.
#
#######################################################################

data_CALDEA
_symmetry_cell_setting           triclinic
_symmetry_space_group_name_H-M   'P -1'
_symmetry_Int_Tables_number      2
_space_group_name_Hall           '-P 1'
loop_
_symmetry_equiv_pos_site_id
_symmetry_equiv_pos_as_xyz
1 x,y,z
2 -x,-y,-z
_cell_length_a                   8.1262(14)
_cell_length_b                   10.5663(19)
_cell_length_c                   10.8076(19)
_cell_angle_alpha                73.150(3)
_cell_angle_beta                 78.568(3)
_cell_angle_gamma                83.055(3)
_cell_volume                     868.527
loop_
_atom_site_label
_atom_site_type_symbol
_atom_site_fract_x
_atom_site_fract_y
_atom_site_fract_z
Cd1 Cd 0.70921(3) 0.77295(3) 0.78625(3)
O1 O 0.3941(3) 0.8972(3) 0.8252(3)
O2 O 0.5858(3) 0.9786(3) 0.6559(3)
O3 O 0.5748(5) 0.6559(4) 0.5407(3)
O4 O 0.5265(4) 0.6567(3) 0.7444(3)
N1 N -0.1001(3) 0.9190(3) 0.7910(3)
N2 N -0.0624(3) 0.7719(3) 0.6151(3)
N3 N 0.1347(3) 1.0194(3) 0.7073(3)
N4 N 0.1804(3) 0.8439(3) 0.5038(3)
H1 H 0.2697 0.8871 0.4792
N5 N 0.3739(3) 0.2764(3) 0.9870(3)
N6 N 0.1668(4) 0.4527(3) 1.1106(3)
N7 N 0.2520(4) 0.6263(3) 0.9499(3)
H2 H 0.2995 0.6725 0.8746
N8 N 0.3742(3) 0.4141(3) 0.7904(3)
C1 C -0.0887(4) 1.0046(4) 0.8601(4)
H3 H -0.1679 1.0183 0.9308
C2 C 0.0564(4) 1.0679(4) 0.8106(4)
H4 H 0.0947 1.1312 0.8407
C3 C 0.3032(4) 1.0502(4) 0.6393(3)
H5 H 0.3163 1.1434 0.6265
H6 H 0.3191 1.0346 0.5534
C4 C 0.4373(4) 0.9678(4) 0.7139(4)
C5 C 0.0365(4) 0.9296(3) 0.6992(3)
C6 C 0.0565(4) 0.8506(3) 0.6054(3)
C7 C -0.0115(5) 0.7122(4) 0.5163(4)
H7 H -0.0708 0.6508 0.4993
C8 C 0.3552(4) 0.5320(3) 0.6814(3)
H8 H 0.3501 0.5049 0.6039
H9 H 0.2499 0.5813 0.7031
C9 C 0.5010(4) 0.6227(4) 0.6508(4)
C10 C 0.3341(4) 0.3990(3) 0.9208(3)
C11 C 0.2508(4) 0.4942(3) 0.9900(3)
C12 C 0.1127(5) 0.5675(4) 1.1470(4)
H10 H 0.0490 0.5709 1.2277
C13 C 0.1649(5) 0.6740(4) 1.0494(4)
H11 H 0.1453 0.7623 1.0500
C14 C 0.1376(5) 0.7555(4) 0.4472(4)
H12 H 0.1992 0.7302 0.3750
C15 C 0.4447(4) 0.2941(4) 0.7737(4)
H13 H 0.4851 0.2737 0.6945
C16 C 0.4433(4) 0.2115(4) 0.8957(4)
H14 H 0.4840 0.1231 0.9143
Cd1_2 Cd -0.29079(3) 0.77295(3) 0.78625(3)
Cd1A Cd 0.29079(3) 0.22705(3) 1.21375(3)
N1_2 N 0.8999(3) 0.9190(3) 0.7910(3)
N2_2 N 0.9376(3) 0.7719(3) 0.6151(3)
N5A N 0.6261(3) 0.7236(3) 1.0130(3)
N6A N 0.8332(4) 0.5473(3) 0.8894(3)
loop_
_geom_bond_atom_site_label_1
_geom_bond_atom_site_label_2
_geom_bond_site_symmetry_1
_geom_bond_site_symmetry_2
Cd1 O2 1_555 1_555
O1 C4 1_555 1_555
O2 C4 1_555 1_555
O3 C9 1_555 1_555
O4 Cd1 1_555 1_555
N1 C1 1_555 1_555
N2 C6 1_555 1_555
N3 C2 1_555 1_555
N4 H1 1_555 1_555
N5 C10 1_555 1_555
N6 C11 1_555 1_555
N7 H2 1_555 1_555
N8 C8 1_555 1_555
C1 H3 1_555 1_555
C2 C1 1_555 1_555
H4 C2 1_555 1_555
C3 N3 1_555 1_555
H5 C3 1_555 1_555
H6 C3 1_555 1_555
C4 C3 1_555 1_555
C5 N1 1_555 1_555
C6 N4 1_555 1_555
C7 N2 1_555 1_555
H7 C7 1_555 1_555
C8 H8 1_555 1_555
H9 C8 1_555 1_555
C9 O4 1_555 1_555
C10 N8 1_555 1_555
C11 N7 1_555 1_555
C12 N6 1_555 1_555
H10 C12 1_555 1_555
C13 N7 1_555 1_555
H11 C13 1_555 1_555
C14 N4 1_555 1_555
H12 C14 1_555 1_555
C15 N8 1_555 1_555
H13 C15 1_555 1_555
C16 N5 1_555 1_555
H14 C16 1_555 1_555
Cd1_2 N1 1_555 1_555
Cd1A N5 1_555 1_555
N1_2 Cd1 1_555 1_555
N2_2 Cd1 1_555 1_555
N5A Cd1 1_555 1_555
N6A Cd1 1_555 1_555
N2 Cd1_2 1_555 1_555
N3 C5 1_555 1_555
N6 Cd1A 1_555 1_555
C5 C6 1_555 1_555
C7 C14 1_555 1_555
C8 C9 1_555 1_555
C10 C11 1_555 1_555
C12 C13 1_555 1_555
C15 C16 1_555 1_555

#END
