
#######################################################################
#
#                 Cambridge Crystallographic Data Centre
#                                CCDC 
#
#######################################################################
#
# If this CIF has been generated from an entry in the Cambridge 
# Structural Database, then it will include bibliographic, chemical, 
# crystal, experimental, refinement or atomic coordinate data resulting 
# from the CCDC's data processing and validation procedures.
#
#######################################################################

data_CALDIE
_symmetry_cell_setting           monoclinic
_symmetry_space_group_name_H-M   'P 2/n'
_symmetry_Int_Tables_number      13
_space_group_name_Hall           '-P 2yac'
loop_
_symmetry_equiv_pos_site_id
_symmetry_equiv_pos_as_xyz
1 x,y,z
2 1/2-x,y,1/2-z
3 -x,-y,-z
4 1/2+x,-y,1/2+z
_cell_length_a                   18.068(4)
_cell_length_b                   9.346(2)
_cell_length_c                   18.209(4)
_cell_angle_alpha                90
_cell_angle_beta                 96.421(6)
_cell_angle_gamma                90
_cell_volume                     3055.55
loop_
_atom_site_label
_atom_site_type_symbol
_atom_site_fract_x
_atom_site_fract_y
_atom_site_fract_z
N3 N 0.33837(10) 0.91781(19) 0.51918(10)
H21 H 0.3508(16) 0.977(3) 0.4789(16)
C26 C 0.26605(12) 0.8888(2) 0.52268(12)
H22 H 0.2293 0.9314 0.4881
C27 C 0.24461(12) 0.7982(2) 0.57579(12)
H23 H 0.1933 0.7778 0.5776
C28 C 0.29807(11) 0.7362(2) 0.62699(11)
C29 C 0.37223(12) 0.7688(3) 0.62167(12)
H24 H 0.4102 0.7291 0.6560
C30 C 0.39095(12) 0.8588(3) 0.56664(12)
H25 H 0.4419 0.8788 0.5626
C31 C 0.27622(11) 0.6424(2) 0.68812(11)
H26 H 0.3194 0.5836 0.7081
H27 H 0.2357 0.5770 0.6683
C32 C 0.2500 0.7334(3) 0.7500
H28 H 0.2086 0.7958 0.7291
N3A N 0.16163(10) 0.91781(19) 0.98082(10)
H21A H 0.1492(16) 0.977(3) 1.0211(16)
C26A C 0.23395(12) 0.8888(2) 0.97732(12)
H22A H 0.2707 0.9314 1.0119
C27A C 0.25539(12) 0.7982(2) 0.92421(12)
H23A H 0.3067 0.7778 0.9224
C28A C 0.20193(11) 0.7362(2) 0.87301(11)
C29A C 0.12777(12) 0.7688(3) 0.87833(12)
H24A H 0.0898 0.7291 0.8440
C30A C 0.10905(12) 0.8588(3) 0.93336(12)
H25A H 0.0581 0.8788 0.9374
C31A C 0.22378(11) 0.6424(2) 0.81188(11)
H26A H 0.1806 0.5836 0.7919
H27A H 0.2643 0.5770 0.8317
H28A H 0.2914 0.7958 0.7709
O11 O 0.89175(11) 0.88639(18) 0.52078(9)
H33 H 0.9245(17) 0.822(3) 0.5367(16)
H34 H 0.8595(18) 0.876(3) 0.5461(17)
O12 O 0.77770(12) 0.8425(3) 0.61098(14)
H35 H 0.781(2) 0.821(4) 0.653(2)
H36 H 0.7302(19) 0.860(3) 0.6073(17)
O13 O 0.7500 0.7177(3) 0.7500
H37 H 0.7834(17) 0.672(3) 0.7726(18)
H37A H 0.7166(17) 0.672(3) 0.7274(18)
Co1 Co 0.5000 0.5000 0.5000
Co2 Co 0.5000 0.5000 1.0000
C1 C 0.48876(11) 0.9303(2) 0.80253(11)
C2 C 0.51798(12) 0.9948(2) 0.74278(11)
H1 H 0.5147 1.0958 0.7373
C3 C 0.55188(11) 0.9152(2) 0.69085(11)
C4 C 0.55714(10) 0.7659(2) 0.69914(10)
C5 C 0.53088(11) 0.7028(2) 0.76060(10)
H2 H 0.5371 0.6027 0.7679
C6 C 0.49583(10) 0.7817(2) 0.81157(10)
C7 C 0.45052(11) 1.0234(2) 0.85379(11)
C8 C 0.58081(11) 0.9933(2) 0.62667(12)
C9 C 0.57758(11) 0.6627(2) 0.64005(10)
C10 C 0.46370(11) 0.6936(2) 0.87045(11)
O1 O 0.43006(9) 0.95596(17) 0.91189(9)
H3 H 0.412(2) 1.019(4) 0.940(2)
O2 O 0.43995(10) 1.15004(16) 0.84260(8)
O3 O 0.55778(10) 1.11596(17) 0.61300(10)
O4 O 0.62654(8) 0.92567(16) 0.59127(8)
O5 O 0.52941(8) 0.65433(15) 0.58418(7)
O6 O 0.63449(8) 0.58587(15) 0.65347(8)
O7 O 0.40241(8) 0.63738(16) 0.85238(8)
O8 O 0.50545(8) 0.67515(15) 0.93073(7)
N1 N 0.42304(10) 0.40110(19) 0.56384(9)
C11 C 0.35708(12) 0.3509(2) 0.53401(12)
H4 H 0.3418 0.3702 0.4834
C12 C 0.30992(13) 0.2720(3) 0.57354(12)
H5 H 0.2631 0.2401 0.5504
C13 C 0.33181(12) 0.2400(2) 0.64724(12)
C14 C 0.39948(12) 0.2965(2) 0.67882(12)
H6 H 0.4155 0.2810 0.7297
C15 C 0.44278(12) 0.3745(2) 0.63604(11)
H7 H 0.4888 0.4115 0.6585
C16 C 0.28542(13) 0.1503(2) 0.69342(13)
H8 H 0.3172 0.0760 0.7197
H9 H 0.2457 0.1016 0.6608
C17 C 0.2500 0.2426(3) 0.7500
H10 H 0.2116 0.3049 0.7233
N2 N 0.58874(10) 0.4057(2) 0.94744(10)
C18 C 0.64402(14) 0.4857(3) 0.92498(15)
H11 H 0.6470 0.5838 0.9387
C19 C 0.69665(16) 0.4311(4) 0.88271(16)
H12 H 0.7349 0.4913 0.8684
C20 C 0.69341(17) 0.2887(4) 0.86127(15)
C21 C 0.63620(16) 0.2066(3) 0.88507(14)
H13 H 0.6313 0.1087 0.8713
C22 C 0.58662(14) 0.2673(3) 0.92862(13)
H14 H 0.5495 0.2082 0.9459
C23 C 0.7470(5) 0.1788(8) 0.8258(4)
C24 C 0.7900(4) 0.2585(8) 0.7702(3)
O9 O 0.58851(9) 0.37203(18) 0.55185(8)
H29 H 0.5811(15) 0.289(3) 0.5697(15)
H30 H 0.6096(17) 0.423(4) 0.5848(18)
O10 O 0.41393(9) 0.39625(19) 0.92896(9)
H31 H 0.4003(19) 0.463(4) 0.8990(19)
H32 H 0.4199(18) 0.328(4) 0.9049(18)
Co1A Co 0.0000 0.5000 1.0000
Co2A Co 1.0000 0.5000 0.5000
Co2_2 Co 0.5000 0.5000 0.0000
C1B C 0.51124(11) 0.0697(2) 0.19747(11)
C2B C 0.48202(12) 0.0052(2) 0.25722(11)
H1B H 0.4853 -0.0958 0.2627
C3B C 0.44812(11) 0.0848(2) 0.30915(11)
C4B C 0.44286(10) 0.2341(2) 0.30086(10)
C5B C 0.46912(11) 0.2972(2) 0.23940(10)
H2B H 0.4629 0.3973 0.2321
C6B C 0.50417(10) 0.2183(2) 0.18843(10)
C7B C 0.54948(11) -0.0234(2) 0.14621(11)
C8B C 0.41919(11) 0.0067(2) 0.37333(12)
C9B C 0.42242(11) 0.3373(2) 0.35995(10)
C10B C 0.53630(11) 0.3064(2) 0.12955(11)
O1B O 0.56994(9) 0.04404(17) 0.08811(9)
H3B H 0.588(2) -0.019(4) 0.060(2)
O2B O 0.56005(10) -0.15004(16) 0.15740(8)
O3B O 0.44222(10) -0.11596(17) 0.38700(10)
O4B O 0.37346(8) 0.07433(16) 0.40873(8)
O5B O 0.47059(8) 0.34567(15) 0.41582(7)
O6B O 0.36551(8) 0.41413(15) 0.34653(8)
O7B O 0.59759(8) 0.36262(16) 0.14762(8)
O8B O 0.49455(8) 0.32485(15) 0.06927(7)
O8B_2 O 0.49455(8) 0.32485(15) 1.06927(7)
N1A N 0.07696(10) 0.40110(19) 0.93616(9)
N1B N 0.57696(10) 0.59890(19) 0.43616(9)
C11A C 0.14292(12) 0.3509(2) 0.96599(12)
H4A H 0.1582 0.3702 1.0166
C12A C 0.19008(13) 0.2720(3) 0.92646(12)
H5A H 0.2369 0.2401 0.9496
C13A C 0.16819(12) 0.2400(2) 0.85276(12)
C14A C 0.10052(12) 0.2965(2) 0.82118(12)
H6A H 0.0845 0.2810 0.7703
C15A C 0.05722(12) 0.3745(2) 0.86396(11)
H7A H 0.0112 0.4115 0.8415
C16A C 0.21458(13) 0.1503(2) 0.80658(13)
H8A H 0.1828 0.0760 0.7803
H9A H 0.2543 0.1016 0.8392
H10A H 0.2884 0.3049 0.7767
N2A N 0.91126(10) 0.4057(2) 0.55256(10)
N2B N 0.41126(10) 0.5943(2) 1.05256(10)
C18A C 0.85598(14) 0.4857(3) 0.57502(15)
H11A H 0.8530 0.5838 0.5613
C19A C 0.80335(16) 0.4311(4) 0.61729(16)
H12A H 0.7651 0.4913 0.6316
C20A C 0.80659(17) 0.2887(4) 0.63873(15)
C21A C 0.86380(16) 0.2066(3) 0.61493(14)
H13A H 0.8687 0.1087 0.6287
C22A C 0.91338(14) 0.2673(3) 0.57138(13)
H14A H 0.9505 0.2082 0.5541
C23A C 0.7530(5) 0.1788(8) 0.6742(4)
C24A C 0.7100(4) 0.2585(8) 0.7298(3)
O9B O 0.41149(9) 0.62797(18) 0.44815(8)
H29B H 0.4189(15) 0.711(3) 0.4303(15)
H30B H 0.3904(17) 0.577(4) 0.4152(18)
O10B O 0.58607(9) 0.60375(19) 1.07104(9)
H31B H 0.5997(19) 0.537(4) 1.1010(19)
H32B H 0.5801(18) 0.672(4) 1.0951(18)
H15? H 0.7824 0.1360 0.8651
H16? H 0.7172 0.1007 0.8005
H17? H 0.8430 0.2835 0.7836
H18? H 0.7706 0.2594 0.7171
C25? C 0.7545(3) 0.2613(8) 0.8086(3)
H19? H 0.7951 0.2572 0.8499
H20? H 0.7404 0.1595 0.8011
loop_
_geom_bond_atom_site_label_1
_geom_bond_atom_site_label_2
_geom_bond_site_symmetry_1
_geom_bond_site_symmetry_2
Co1 O5 1_555 1_555
Co2 O8 1_555 1_555
C1 C2 1_555 1_555
C2 H1 1_555 1_555
C3 C2 1_555 1_555
C4 C3 1_555 1_555
C5 C4 1_555 1_555
H2 C5 1_555 1_555
C6 C1 1_555 1_555
C7 C1 1_555 1_555
C8 C3 1_555 1_555
C9 C4 1_555 1_555
C10 C6 1_555 1_555
O1 C7 1_555 1_555
H3 O1 1_555 1_555
O2 C7 1_555 1_555
O3 C8 1_555 1_555
O4 C8 1_555 1_555
O5 C9 1_555 1_555
O6 C9 1_555 1_555
O7 C10 1_555 1_555
O8 C10 1_555 1_555
N1 Co1 1_555 1_555
C11 N1 1_555 1_555
H4 C11 1_555 1_555
C12 C11 1_555 1_555
H5 C12 1_555 1_555
C13 C12 1_555 1_555
C14 C13 1_555 1_555
H6 C14 1_555 1_555
C15 N1 1_555 1_555
H7 C15 1_555 1_555
C16 C13 1_555 1_555
H8 C16 1_555 1_555
H9 C16 1_555 1_555
C17 C16 1_555 1_555
H10 C17 1_555 1_555
N2 Co2 1_555 1_555
C18 N2 1_555 1_555
H11 C18 1_555 1_555
C19 C18 1_555 1_555
H12 C19 1_555 1_555
C20 C19 1_555 1_555
C21 C20 1_555 1_555
H13 C21 1_555 1_555
C22 N2 1_555 1_555
H14 C22 1_555 1_555
C23 C20 1_555 1_555
C24 C23 1_555 1_555
N3 H21 1_555 1_555
C26 N3 1_555 1_555
H22 C26 1_555 1_555
C27 C26 1_555 1_555
H23 C27 1_555 1_555
C28 C27 1_555 1_555
C29 C28 1_555 1_555
H24 C29 1_555 1_555
C30 N3 1_555 1_555
H25 C30 1_555 1_555
C31 C28 1_555 1_555
H26 C31 1_555 1_555
H27 C31 1_555 1_555
C32 C31 1_555 1_555
H28 C32 1_555 1_555
O9 Co1 1_555 1_555
H29 O9 1_555 1_555
H30 O9 1_555 1_555
O10 Co2 1_555 1_555
H31 O10 1_555 1_555
H32 O10 1_555 1_555
O11 H33 1_555 1_555
H34 O11 1_555 1_555
O12 H35 1_555 1_555
H36 O12 1_555 1_555
O13 H37 1_555 1_555
Co1A N1A 1_555 1_555
Co2A N2A 1_555 1_555
Co2_2 O8B 1_555 1_555
C1B C2B 1_555 1_555
C2B H1B 1_555 1_555
C3B C2B 1_555 1_555
C4B C3B 1_555 1_555
C5B C4B 1_555 1_555
H2B C5B 1_555 1_555
C6B C1B 1_555 1_555
C7B C1B 1_555 1_555
C8B C3B 1_555 1_555
C9B C4B 1_555 1_555
C10B C6B 1_555 1_555
O1B C7B 1_555 1_555
H3B O1B 1_555 1_555
O2B C7B 1_555 1_555
O3B C8B 1_555 1_555
O4B C8B 1_555 1_555
O5B Co1 1_555 1_555
O6B C9B 1_555 1_555
O7B C10B 1_555 1_555
O8B C10B 1_555 1_555
O8B_2 Co2 1_555 1_555
N1A C11A 1_555 1_555
N1B Co1 1_555 1_555
C11A H4A 1_555 1_555
C12A C11A 1_555 1_555
H5A C12A 1_555 1_555
C13A C12A 1_555 1_555
C14A C13A 1_555 1_555
H6A C14A 1_555 1_555
C15A N1A 1_555 1_555
H7A C15A 1_555 1_555
C16A C17 1_555 1_555
H8A C16A 1_555 1_555
H9A C16A 1_555 1_555
H10A C17 1_555 1_555
N2A C18A 1_555 1_555
N2B Co2 1_555 1_555
C18A H11A 1_555 1_555
C19A C18A 1_555 1_555
H12A C19A 1_555 1_555
C20A C19A 1_555 1_555
C21A C20A 1_555 1_555
H13A C21A 1_555 1_555
C22A N2A 1_555 1_555
H14A C22A 1_555 1_555
C23A C20A 1_555 1_555
C24A C24 1_555 1_555
N3A H21A 1_555 1_555
C26A N3A 1_555 1_555
H22A C26A 1_555 1_555
C27A C26A 1_555 1_555
H23A C27A 1_555 1_555
C28A C27A 1_555 1_555
C29A C28A 1_555 1_555
H24A C29A 1_555 1_555
C30A N3A 1_555 1_555
H25A C30A 1_555 1_555
C31A C32 1_555 1_555
H26A C31A 1_555 1_555
H27A C31A 1_555 1_555
H28A C32 1_555 1_555
O9B Co1 1_555 1_555
H29B O9B 1_555 1_555
H30B O9B 1_555 1_555
O10B Co2 1_555 1_555
H31B O10B 1_555 1_555
H32B O10B 1_555 1_555
H37A O13 1_555 1_555
C5 C6 1_555 1_555
C14 C15 1_555 1_555
C21 C22 1_555 1_555
C29 C30 1_555 1_555
C5B C6B 1_555 1_555
C9B O5B 1_555 1_555
C13A C16A 1_555 1_555
C14A C15A 1_555 1_555
C21A C22A 1_555 1_555
C23A C24A 1_555 1_555
C28A C31A 1_555 1_555
C29A C30A 1_555 1_555

#END
