
#######################################################################
#
#                 Cambridge Crystallographic Data Centre
#                                CCDC 
#
#######################################################################
#
# If this CIF has been generated from an entry in the Cambridge 
# Structural Database, then it will include bibliographic, chemical, 
# crystal, experimental, refinement or atomic coordinate data resulting 
# from the CCDC's data processing and validation procedures.
#
#######################################################################

data_CALDIE01
_symmetry_cell_setting           monoclinic
_symmetry_space_group_name_H-M   'P 2/n'
_symmetry_Int_Tables_number      13
_space_group_name_Hall           '-P 2yac'
loop_
_symmetry_equiv_pos_site_id
_symmetry_equiv_pos_as_xyz
1 x,y,z
2 1/2-x,y,1/2-z
3 -x,-y,-z
4 1/2+x,-y,1/2+z
_cell_length_a                   18.198(4)
_cell_length_b                   9.3723(19)
_cell_length_c                   18.236(4)
_cell_angle_alpha                90
_cell_angle_beta                 96.60(3)
_cell_angle_gamma                90
_cell_volume                     3089.67
loop_
_atom_site_label
_atom_site_type_symbol
_atom_site_fract_x
_atom_site_fract_y
_atom_site_fract_z
Co1 Co -0.5000 0.0000 0.5000
Co2 Co -0.5000 0.0000 1.0000
C1 C -0.42320(13) 0.1627(2) 0.63972(12)
C2 C -0.44342(12) 0.2657(2) 0.69896(12)
C3 C -0.46936(14) 0.2024(3) 0.76002(12)
H1 H -0.4635 0.1046 0.7669
C4 C -0.50387(13) 0.2810(2) 0.81128(12)
C5 C -0.53528(13) 0.1923(2) 0.86973(12)
C6 C -0.51111(13) 0.4282(2) 0.80211(12)
C7 C -0.54895(15) 0.5219(3) 0.85297(13)
C8 C -0.48154(15) 0.4928(2) 0.74310(12)
H2 H -0.4841 0.5915 0.7384
C9 C -0.44826(13) 0.4142(2) 0.69101(12)
C10 C -0.41894(15) 0.4924(3) 0.62780(14)
C11 C -0.44283(16) 0.1240(3) 0.36401(14)
H3 H -0.4882 0.0901 0.3423
C12 C -0.39912(16) 0.1991(3) 0.32097(14)
H4 H -0.4146 0.2137 0.2711
C13 C -0.33189(16) 0.2529(3) 0.35221(15)
C14 C -0.31015(17) 0.2208(3) 0.42539(15)
H5 H -0.2641 0.2499 0.4478
C15 C -0.35741(16) 0.1451(3) 0.46487(15)
H6 H -0.3425 0.1266 0.5144
C16 C -0.28478(19) 0.3412(3) 0.30595(17)
H7 H -0.2460 0.3881 0.3381
H8 H -0.3152 0.4144 0.2800
C17 C -0.2500 0.2489(4) 0.2500
H9 H -0.2126 0.1888 0.2754
C18 C -0.58511(18) 0.2341(3) 1.06912(17)
H10 H -0.5496 0.2904 1.0503
C19 C -0.6309(2) 0.2977(4) 1.11278(18)
H11 H -0.6252 0.3938 1.1248
C20 C -0.6862(3) 0.2187(5) 1.13935(19)
C21 C -0.6924(2) 0.0756(5) 1.1190(2)
H12 H -0.7299 0.0193 1.1343
C22 C -0.6422(2) 0.0184(3) 1.0756(2)
H13 H -0.6463 -0.0776 1.0628
C23 C -0.7392(4) 0.2891(8) 1.1863(3)
H14 H -0.7217 0.3853 1.1973
H15 H -0.7869 0.2971 1.1567
C24 C -0.7500 0.2265(12) 1.2500
H16 H -0.7919 0.1649 1.2390
N1 N -0.42325(12) 0.0971(2) 0.43588(11)
N2 N -0.58780(14) 0.0952(2) 1.05129(13)
O1 O -0.47067(10) 0.15413(18) 0.58399(9)
O2 O -0.41238(10) -0.12932(18) 0.55219(9)
H25 H -0.3986 -0.0671 0.5848
H26 H -0.4207 -0.2070 0.5738
O3 O -0.36645(10) 0.0863(2) 0.65330(10)
O4 O -0.58577(11) -0.1039(2) 0.92837(10)
H27 H -0.5781 -0.1746 0.9011
H28 H -0.5889 -0.0289 0.9020
O5 O -0.49404(10) 0.17350(18) 0.92982(9)
O7 O -0.59649(11) 0.1364(2) 0.85199(11)
O9 O -0.56878(13) 0.4558(2) 0.91127(10)
H32 H -0.5812 0.5132 0.9438
O11 O -0.55964(14) 0.64729(19) 0.84204(10)
O12 O -0.44108(15) 0.6148(2) 0.61460(14)
O13 O -0.37402(11) 0.4261(2) 0.59221(10)
Co1A Co 0.0000 0.0000 0.0000
Co2A Co -1.0000 0.0000 1.5000
Co2_2 Co -0.5000 0.0000 0.0000
C1B C -0.57680(13) -0.1627(2) 0.36028(12)
C2B C -0.55658(12) -0.2657(2) 0.30104(12)
C3B C -0.53064(14) -0.2024(3) 0.23998(12)
H1B H -0.5365 -0.1046 0.2331
C4B C -0.49613(13) -0.2810(2) 0.18872(12)
C5B C -0.46472(13) -0.1923(2) 0.13027(12)
C6B C -0.48889(13) -0.4282(2) 0.19789(12)
C7B C -0.45105(15) -0.5219(3) 0.14703(13)
C8B C -0.51846(15) -0.4928(2) 0.25690(12)
H2B H -0.5159 -0.5915 0.2616
C9B C -0.55174(13) -0.4142(2) 0.30899(12)
C10B C -0.58106(15) -0.4924(3) 0.37220(14)
C11A C -0.05717(16) 0.1240(3) 0.13599(14)
H3A H -0.0118 0.0901 0.1577
C12A C -0.10088(16) 0.1991(3) 0.17903(14)
H4A H -0.0854 0.2137 0.2289
C13A C -0.16811(16) 0.2529(3) 0.14779(15)
C14A C -0.18985(17) 0.2208(3) 0.07461(15)
H5A H -0.2359 0.2499 0.0522
C15A C -0.14259(16) 0.1451(3) 0.03513(15)
H6A H -0.1575 0.1266 -0.0144
C16A C -0.21522(19) 0.3412(3) 0.19405(17)
H7A H -0.2540 0.3881 0.1619
H8A H -0.1848 0.4144 0.2200
H9A H -0.2874 0.1888 0.2246
C18A C -0.91489(18) 0.2341(3) 1.43088(17)
H10A H -0.9504 0.2904 1.4497
C19A C -0.8691(2) 0.2977(4) 1.38722(18)
H11A H -0.8748 0.3938 1.3752
C20A C -0.8138(3) 0.2187(5) 1.36065(19)
C21A C -0.8076(2) 0.0756(5) 1.3810(2)
H12A H -0.7701 0.0193 1.3657
C22A C -0.8578(2) 0.0184(3) 1.4244(2)
H13A H -0.8537 -0.0776 1.4372
C23A C -0.7608(4) 0.2891(8) 1.3137(3)
H14A H -0.7783 0.3853 1.3027
H15A H -0.7131 0.2971 1.3433
H16A H -0.7081 0.1649 1.2610
N1A N -0.07675(12) 0.0971(2) 0.06412(11)
N1B N -0.57675(12) -0.0971(2) 0.56412(11)
N2A N -0.91220(14) 0.0952(2) 1.44871(13)
N2B N -0.41220(14) -0.0952(2) 0.94871(13)
O1B O -0.52933(10) -0.15413(18) 0.41601(9)
O2B O -0.58762(10) 0.12932(18) 0.44781(9)
H25B H -0.6014 0.0671 0.4152
H26B H -0.5793 0.2070 0.4262
O3B O -0.63355(10) -0.0863(2) 0.34670(10)
O4B O -0.41423(11) 0.1039(2) 1.07163(10)
H27B H -0.4219 0.1746 1.0989
H28B H -0.4111 0.0289 1.0980
O5B O -0.50596(10) -0.17350(18) 0.07018(9)
O5B_2 O -0.50596(10) -0.17350(18) 1.07018(9)
O7B O -0.40351(11) -0.1364(2) 0.14801(11)
O9B O -0.43122(13) -0.4558(2) 0.08873(10)
H32B H -0.4188 -0.5132 0.0562
O11B O -0.44036(14) -0.64729(19) 0.15796(10)
O12B O -0.55892(15) -0.6148(2) 0.38540(14)
O13B O -0.62598(11) -0.4261(2) 0.40779(10)
C25 C 0.60967(16) 0.6361(4) 0.43262(16)
H17 H 0.5601 0.6163 0.4360
C26 C 0.62889(16) 0.7236(4) 0.37730(15)
H18 H 0.5923 0.7609 0.3428
C27 C 0.70225(14) 0.7565(3) 0.37284(12)
C28 C 0.75405(16) 0.6983(3) 0.42534(16)
H19 H 0.8039 0.7190 0.4245
C29 C 0.73228(17) 0.6097(3) 0.47907(16)
H20 H 0.7675 0.5703 0.5143
C30 C 0.72382(15) 0.8492(3) 0.31133(13)
H21 H 0.7632 0.9135 0.3305
H22 H 0.6817 0.9062 0.2913
C31 C 0.7500 0.7564(4) 0.2500
H23 H 0.7900 0.6964 0.2703
N3 N 0.66097(12) 0.5801(2) 0.48077(11)
H24 H 0.6482 0.5232 0.5141
C25A C 0.89033(16) 0.6361(4) 0.06738(16)
H17A H 0.9399 0.6163 0.0640
C26A C 0.87111(16) 0.7236(4) 0.12270(15)
H18A H 0.9077 0.7609 0.1572
C27A C 0.79775(14) 0.7565(3) 0.12716(12)
C28A C 0.74595(16) 0.6983(3) 0.07466(16)
H19A H 0.6961 0.7190 0.0755
C29A C 0.76772(17) 0.6097(3) 0.02093(16)
H20A H 0.7325 0.5703 -0.0143
C30A C 0.77618(15) 0.8492(3) 0.18867(13)
H21A H 0.7368 0.9135 0.1695
H22A H 0.8183 0.9062 0.2087
H23A H 0.7100 0.6964 0.2297
N3A N 0.83903(12) 0.5801(2) 0.01923(11)
H24A H 0.8518 0.5232 -0.0141
O6 O 0.27760(14) -0.3399(3) 0.10986(15)
H29 H 0.2777 -0.2990 0.1515
H30 H 0.2343 -0.3720 0.0972
O8 O 0.2500 -0.2156(4) 0.2500
H31 H 0.2190 -0.1627 0.2243
H31A H 0.2810 -0.1627 0.2757
O10 O -0.10921(13) -0.6160(2) 0.51864(11)
H33 H -0.0765 -0.6781 0.5325
H34 H -0.1447 -0.6255 0.5448
loop_
_geom_bond_atom_site_label_1
_geom_bond_atom_site_label_2
_geom_bond_site_symmetry_1
_geom_bond_site_symmetry_2
Co1 N1 1_555 1_555
Co2 N2 1_555 1_555
C1 C2 1_555 1_555
C2 C3 1_555 1_555
C3 H1 1_555 1_555
C4 C3 1_555 1_555
C5 C4 1_555 1_555
C6 C4 1_555 1_555
C7 C6 1_555 1_555
C8 C6 1_555 1_555
H2 C8 1_555 1_555
C9 C2 1_555 1_555
C10 C9 1_555 1_555
C11 H3 1_555 1_555
C12 C11 1_555 1_555
H4 C12 1_555 1_555
C13 C12 1_555 1_555
C14 C13 1_555 1_555
H5 C14 1_555 1_555
C15 C14 1_555 1_555
H6 C15 1_555 1_555
C16 C13 1_555 1_555
H7 C16 1_555 1_555
H8 C16 1_555 1_555
C17 C16 1_555 1_555
H9 C17 1_555 1_555
C18 H10 1_555 1_555
C19 C18 1_555 1_555
H11 C19 1_555 1_555
C20 C19 1_555 1_555
C21 C20 1_555 1_555
H12 C21 1_555 1_555
C22 C21 1_555 1_555
H13 C22 1_555 1_555
C23 C20 1_555 1_555
H14 C23 1_555 1_555
H15 C23 1_555 1_555
C24 C23 1_555 1_555
H16 C24 1_555 1_555
C25 H17 1_555 1_555
C26 C25 1_555 1_555
H18 C26 1_555 1_555
C27 C26 1_555 1_555
C28 C27 1_555 1_555
H19 C28 1_555 1_555
C29 C28 1_555 1_555
H20 C29 1_555 1_555
C30 C27 1_555 1_555
H21 C30 1_555 1_555
H22 C30 1_555 1_555
C31 C30 1_555 1_555
H23 C31 1_555 1_555
N1 C11 1_555 1_555
N2 C18 1_555 1_555
N3 C25 1_555 1_555
H24 N3 1_555 1_555
O1 Co1 1_555 1_555
O2 Co1 1_555 1_555
H25 O2 1_555 1_555
H26 O2 1_555 1_555
O3 C1 1_555 1_555
O4 Co2 1_555 1_555
H27 O4 1_555 1_555
H28 O4 1_555 1_555
O5 Co2 1_555 1_555
O6 H29 1_555 1_555
H30 O6 1_555 1_555
O7 C5 1_555 1_555
O8 H31 1_555 1_555
O9 C7 1_555 1_555
H32 O9 1_555 1_555
O10 H33 1_555 1_555
H34 O10 1_555 1_555
O11 C7 1_555 1_555
O12 C10 1_555 1_555
O13 C10 1_555 1_555
Co1A N1A 1_555 1_555
Co2A N2A 1_555 1_555
Co2_2 O5B 1_555 1_555
C1B C2B 1_555 1_555
C2B C3B 1_555 1_555
C3B H1B 1_555 1_555
C4B C3B 1_555 1_555
C5B C4B 1_555 1_555
C6B C4B 1_555 1_555
C7B C6B 1_555 1_555
C8B C6B 1_555 1_555
H2B C8B 1_555 1_555
C9B C2B 1_555 1_555
C10B C9B 1_555 1_555
C11A H3A 1_555 1_555
C12A C11A 1_555 1_555
H4A C12A 1_555 1_555
C13A C12A 1_555 1_555
C14A C13A 1_555 1_555
H5A C14A 1_555 1_555
C15A C14A 1_555 1_555
H6A C15A 1_555 1_555
C16A C17 1_555 1_555
H7A C16A 1_555 1_555
H8A C16A 1_555 1_555
H9A C17 1_555 1_555
C18A H10A 1_555 1_555
C19A C18A 1_555 1_555
H11A C19A 1_555 1_555
C20A C19A 1_555 1_555
C21A C20A 1_555 1_555
H12A C21A 1_555 1_555
C22A C21A 1_555 1_555
H13A C22A 1_555 1_555
C23A C24 1_555 1_555
H14A C23A 1_555 1_555
H15A C23A 1_555 1_555
H16A C24 1_555 1_555
C25A H17A 1_555 1_555
C26A C25A 1_555 1_555
H18A C26A 1_555 1_555
C27A C26A 1_555 1_555
C28A C27A 1_555 1_555
H19A C28A 1_555 1_555
C29A C28A 1_555 1_555
H20A C29A 1_555 1_555
C30A C31 1_555 1_555
H21A C30A 1_555 1_555
H22A C30A 1_555 1_555
H23A C31 1_555 1_555
N1A C11A 1_555 1_555
N1B Co1 1_555 1_555
N2A C18A 1_555 1_555
N2B Co2 1_555 1_555
N3A C25A 1_555 1_555
H24A N3A 1_555 1_555
O1B Co1 1_555 1_555
O2B Co1 1_555 1_555
H25B O2B 1_555 1_555
H26B O2B 1_555 1_555
O3B C1B 1_555 1_555
O4B Co2 1_555 1_555
H27B O4B 1_555 1_555
H28B O4B 1_555 1_555
O5B C5B 1_555 1_555
O5B_2 Co2 1_555 1_555
O7B C5B 1_555 1_555
H31A O8 1_555 1_555
O9B C7B 1_555 1_555
H32B O9B 1_555 1_555
O11B C7B 1_555 1_555
O12B C10B 1_555 1_555
O13B C10B 1_555 1_555
C1 O1 1_555 1_555
C5 O5 1_555 1_555
C8 C9 1_555 1_555
C15 N1 1_555 1_555
C22 N2 1_555 1_555
C29 N3 1_555 1_555
C1B O1B 1_555 1_555
C8B C9B 1_555 1_555
C13A C16A 1_555 1_555
C15A N1A 1_555 1_555
C20A C23A 1_555 1_555
C22A N2A 1_555 1_555
C27A C30A 1_555 1_555
C29A N3A 1_555 1_555

#END
