
#######################################################################
#
#                 Cambridge Crystallographic Data Centre
#                                CCDC 
#
#######################################################################
#
# If this CIF has been generated from an entry in the Cambridge 
# Structural Database, then it will include bibliographic, chemical, 
# crystal, experimental, refinement or atomic coordinate data resulting 
# from the CCDC's data processing and validation procedures.
#
#######################################################################

data_CALOXM13
_symmetry_cell_setting           monoclinic
_symmetry_space_group_name_H-M   'P 21/a'
_symmetry_Int_Tables_number      14
_space_group_name_Hall           '-P 2yab'
loop_
_symmetry_equiv_pos_site_id
_symmetry_equiv_pos_as_xyz
1 x,y,z
2 1/2-x,1/2+y,-z
3 -x,-y,-z
4 1/2+x,1/2-y,z
_cell_length_a                   10.090(2)
_cell_length_b                   14.549(4)
_cell_length_c                   6.270(3)
_cell_angle_alpha                90
_cell_angle_beta                 109.53(2)
_cell_angle_gamma                90
_cell_volume                     867.477
loop_
_atom_site_label
_atom_site_type_symbol
_atom_site_fract_x
_atom_site_fract_y
_atom_site_fract_z
Ca1 Ca 0.94556(8) 0.12400(7) 0.53514(16)
Ca2 Ca 0.56485(8) 0.12305(7) 0.50580(16)
O1 O 0.8592(3) -0.0341(2) 0.5066(7)
O2 O 0.6429(3) -0.0348(2) 0.5116(7)
O3 O 0.6335(3) -0.2178(2) 0.4731(6)
O4 O 0.8515(3) -0.2182(2) 0.4742(6)
C1 C 0.8143(4) 0.1271(3) 0.9799(9)
C2 C 0.6895(4) 0.1170(3) 1.0566(9)
O5 O 0.7996(3) 0.1223(2) 0.7757(6)
O6 O 0.7072(3) 0.1221(2) 1.2610(6)
C3 C 0.7460(4) -0.1808(3) 0.4821(8)
C4 C 0.7498(4) -0.0728(3) 0.5028(8)
O7 O 0.9286(3) 0.1437(3) 1.1391(7)
O8 O 0.5753(3) 0.1064(3) 0.8968(7)
O9 O 0.3955(4) 0.1541(3) 0.1094(7)
O10 O 1.1153(4) 0.1104(3) 0.9150(8)
Ca1B Ca 1.05444(8) -0.12400(7) 0.46486(16)
Ca1A Ca 0.55444(8) -0.37600(7) 0.46486(16)
Ca1_2 Ca 0.94556(8) 0.12400(7) 1.53514(16)
Ca2B Ca 0.43515(8) -0.12305(7) 0.49420(16)
Ca2A Ca 0.93515(8) -0.37695(7) 0.49420(16)
Ca2_2 Ca 0.56485(8) 0.12305(7) 1.50580(16)
O1B O 1.1408(3) 0.0341(2) 0.4934(7)
O2B O 0.3571(3) 0.0348(2) 0.4884(7)
O3A O 0.8665(3) 0.2822(2) 0.5269(6)
O3B O 0.3665(3) 0.2178(2) 0.5269(6)
O4B O 1.1485(3) 0.2182(2) 0.5258(6)
O4A O 0.6485(3) 0.2818(2) 0.5258(6)
O6_2 O 0.7072(3) 0.1221(2) 0.2610(6)
O7_2 O 0.9286(3) 0.1437(3) 0.1391(7)
loop_
_geom_bond_atom_site_label_1
_geom_bond_atom_site_label_2
_geom_bond_site_symmetry_1
_geom_bond_site_symmetry_2
Ca1 O1 1_555 1_555
Ca2 O2 1_555 1_555
O1 C4 1_555 1_555
O2 C4 1_555 1_555
O3 C3 1_555 1_555
O4 C3 1_555 1_555
C1 C2 1_555 1_555
C2 O6 1_555 1_555
O5 Ca1 1_555 1_555
O6 Ca1_2 1_555 1_555
C3 C4 1_555 1_555
O7 C1 1_555 1_555
O8 Ca2 1_555 1_555
O9 Ca2 1_555 1_555
O10 Ca1 1_555 1_555
Ca1B O1 1_555 1_555
Ca1A O3 1_555 1_555
Ca1_2 O7 1_555 1_555
Ca2B O2 1_555 1_555
Ca2A O4 1_555 1_555
Ca2_2 O6 1_555 1_555
O1B Ca1 1_555 1_555
O2B Ca2 1_555 1_555
O3A Ca1 1_555 1_555
O3B Ca2 1_555 1_555
O4B Ca1 1_555 1_555
O4A Ca2 1_555 1_555
O6_2 Ca1 1_555 1_555
O7_2 Ca1 1_555 1_555
Ca2 O5 1_555 1_555
Ca2 O6_2 1_555 1_555
O3 Ca2B 1_555 1_555
O4 Ca1B 1_555 1_555
C1 O5 1_555 1_555
C2 O8 1_555 1_555
Ca1B O1B 1_555 1_555
Ca2B O2B 1_555 1_555

#END
