
#######################################################################
#
#                 Cambridge Crystallographic Data Centre
#                                CCDC 
#
#######################################################################
#
# If this CIF has been generated from an entry in the Cambridge 
# Structural Database, then it will include bibliographic, chemical, 
# crystal, experimental, refinement or atomic coordinate data resulting 
# from the CCDC's data processing and validation procedures.
#
#######################################################################

data_CALOXM14
_symmetry_cell_setting           monoclinic
_symmetry_space_group_name_H-M   'P 21/c'
_symmetry_Int_Tables_number      14
_space_group_name_Hall           '-P 2ybc'
loop_
_symmetry_equiv_pos_site_id
_symmetry_equiv_pos_as_xyz
1 x,y,z
2 -x,1/2+y,1/2-z
3 -x,-y,-z
4 x,1/2-y,1/2+z
_cell_length_a                   6.316(5)
_cell_length_b                   14.541(3)
_cell_length_c                   10.116(2)
_cell_angle_alpha                90
_cell_angle_beta                 109.0(3)
_cell_angle_gamma                90
_cell_volume                     878.446
loop_
_atom_site_label
_atom_site_type_symbol
_atom_site_fract_x
_atom_site_fract_y
_atom_site_fract_z
C1 C 0.9826(2) 0.32014(11) 0.24497(17)
C2 C 1.00111(19) 0.42754(12) 0.24937(15)
C3 C 0.5180(2) 0.12705(15) 0.18112(15)
C4 C 0.4485(2) 0.11744(14) 0.31305(16)
Ca1 Ca 0.9664(3) 0.12422(17) 0.0544(2)
Ca2 Ca 0.9951(3) 0.12347(16) 0.4356(2)
O1 O 0.9736(3) 0.28245(14) 0.1321(3)
O2 O 1.0080(3) 0.46572(15) 0.1400(3)
O3 O 0.9782(3) 0.28165(14) 0.3546(3)
O4 O 1.0082(3) 0.46548(14) 0.3616(3)
O5 O 0.3613(3) 0.1425(2) 0.0692(2)
O6 O 0.7226(2) 0.12210(18) 0.19753(18)
O7 O 0.2426(2) 0.12200(18) 0.29558(19)
O8 O 0.6060(3) 0.1066(2) 0.4263(2)
O9 O 1.3920(4) 0.1536(3) 0.6022(3)
H1 H 1.4886(7) 0.1304(5) 0.5496(5)
H2 H 1.3956(12) 0.2181(8) 0.5941(10)
O10 O 0.5895(4) 0.1130(5) -0.1090(3)
H3 H 0.4783(8) 0.1229(8) -0.0636(6)
H4 H 0.5213(8) 0.1234(8) -0.2074(6)
Ca1_2 Ca -0.0336(3) 0.12422(17) 0.0544(2)
Ca1A Ca 1.0336(3) 0.62422(17) 0.4456(2)
Ca1C Ca 0.9664(3) 0.37578(17) 0.5544(2)
Ca2_2 Ca -0.0049(3) 0.12347(16) 0.4356(2)
Ca2A Ca 1.0049(3) 0.62347(16) 0.0644(2)
Ca2C Ca 0.9951(3) 0.37653(16) -0.0644(2)
O1C O 0.9736(3) 0.21755(14) 0.6321(3)
O2A O 0.9920(3) -0.03428(15) 0.3600(3)
O2C O 1.0080(3) 0.03428(15) 0.6400(3)
O3C O 0.9782(3) 0.21835(14) -0.1454(3)
O4A O 0.9918(3) -0.03452(14) 0.1384(3)
O4C O 1.0082(3) 0.03452(14) -0.1384(3)
O5_2 O 1.3613(3) 0.1425(2) 0.0692(2)
O7_2 O 1.2426(2) 0.12200(18) 0.29558(19)
loop_
_geom_bond_atom_site_label_1
_geom_bond_atom_site_label_2
_geom_bond_site_symmetry_1
_geom_bond_site_symmetry_2
C1 C2 1_555 1_555
C2 O2 1_555 1_555
C3 C4 1_555 1_555
C4 O7 1_555 1_555
Ca1 O1 1_555 1_555
Ca2 O3 1_555 1_555
O1 C1 1_555 1_555
O2 Ca2A 1_555 1_555
O3 C1 1_555 1_555
O4 C2 1_555 1_555
O5 C3 1_555 1_555
O6 C3 1_555 1_555
O7 Ca1_2 1_555 1_555
O8 C4 1_555 1_555
O9 Ca2 1_555 1_555
H1 O9 1_555 1_555
H2 O9 1_555 1_555
O10 Ca1 1_555 1_555
H3 O10 1_555 1_555
H4 O10 1_555 1_555
Ca1_2 O5 1_555 1_555
Ca1A O4 1_555 1_555
Ca1C O3 1_555 1_555
Ca2_2 O7 1_555 1_555
Ca2C O1 1_555 1_555
O1C Ca2 1_555 1_555
O2A Ca2 1_555 1_555
O2C Ca2 1_555 1_555
O3C Ca1 1_555 1_555
O4A Ca1 1_555 1_555
O4C Ca1 1_555 1_555
O5_2 Ca1 1_555 1_555
O7_2 Ca1 1_555 1_555
Ca1 O6 1_555 1_555
Ca2 O6 1_555 1_555
Ca2 O8 1_555 1_555
Ca2 O7_2 1_555 1_555
O2 Ca2C 1_555 1_555
O4 Ca1C 1_555 1_555
Ca1C O1C 1_555 1_555
Ca2C O3C 1_555 1_555

#END
