
#######################################################################
#
#                 Cambridge Crystallographic Data Centre
#                                CCDC 
#
#######################################################################
#
# If this CIF has been generated from an entry in the Cambridge 
# Structural Database, then it will include bibliographic, chemical, 
# crystal, experimental, refinement or atomic coordinate data resulting 
# from the CCDC's data processing and validation procedures.
#
#######################################################################

data_CALPUA
_symmetry_cell_setting           orthorhombic
_symmetry_space_group_name_H-M   'P c a b'
_symmetry_Int_Tables_number      61
_space_group_name_Hall           '-P 2bc 2ac'
loop_
_symmetry_equiv_pos_site_id
_symmetry_equiv_pos_as_xyz
1 x,y,z
2 -x,1/2-y,1/2+z
3 1/2+x,-y,1/2-z
4 1/2-x,1/2+y,-z
5 -x,-y,-z
6 x,1/2+y,1/2-z
7 1/2-x,y,1/2+z
8 1/2+x,1/2-y,z
_cell_length_a                   16.424(3)
_cell_length_b                   17.955(6)
_cell_length_c                   20.545(2)
_cell_angle_alpha                90
_cell_angle_beta                 90
_cell_angle_gamma                90
_cell_volume                     6058.58
loop_
_atom_site_label
_atom_site_type_symbol
_atom_site_fract_x
_atom_site_fract_y
_atom_site_fract_z
Pd1 Pd 0.04590 0.03640 0.27250
I1 I -0.04410 0.08470 0.17350
I2 I -0.07300 0.04410 0.35960
I3 I -0.05090 0.23840 0.34160
I4 I -0.04810 -0.10930 0.17010
P1 P 0.15900 0.03850 0.21050
P2 P 0.12860 -0.00250 0.35260
C1 C 0.23970 -0.00800 0.25450
C2 C 0.22750 -0.02390 0.31610
C3 C 0.16080 -0.00160 0.13040
C4 C 0.17530 -0.07790 0.12470
C5 C 0.16890 -0.11260 0.06420
C6 C 0.14790 -0.07100 0.00940
C7 C 0.13330 0.00520 0.01500
C8 C 0.13980 0.04000 0.07560
C9 C 0.19880 0.13160 0.20420
C10 C 0.27520 0.14380 0.17670
C11 C 0.31040 0.21450 0.17940
C12 C 0.26900 0.27290 0.20960
C13 C 0.19250 0.26060 0.23720
C14 C 0.15740 0.18990 0.23440
C15 C 0.15280 0.06720 0.41240
C16 C 0.21750 0.11510 0.39890
C17 C 0.23800 0.17120 0.44300
C18 C 0.19380 0.17940 0.50050
C19 C 0.12900 0.13150 0.51390
C20 C 0.10850 0.07550 0.46990
C21 C 0.10210 -0.08750 0.39300
C22 C 0.13480 -0.10600 0.45360
C23 C 0.12070 -0.17630 0.48020
C24 C 0.07380 -0.22810 0.44620
C25 C 0.04110 -0.20960 0.38570
C26 C 0.05520 -0.13940 0.35910
H1 H 0.29620 -0.02240 0.23070
H2 H 0.27520 -0.04910 0.34490
H3 H 0.19150 -0.11000 0.16720
H4 H 0.18810 -0.17160 0.05980
H5 H 0.14290 -0.09790 -0.03750
H6 H 0.11710 0.03740 -0.02750
H7 H 0.12850 0.09900 0.07990
H8 H 0.30730 0.09870 0.15320
H9 H 0.36960 0.22400 0.15810
H10 H 0.29620 0.32760 0.21180
H11 H 0.16050 0.30580 0.26060
H12 H 0.09820 0.18040 0.25570
H13 H 0.25180 0.10870 0.35440
H14 H 0.28820 0.20820 0.43260
H15 H 0.20970 0.22280 0.53460
H16 H 0.09470 0.13790 0.55850
H17 H 0.05840 0.03840 0.48030
H18 H 0.17120 -0.06580 0.47980
H19 H 0.14600 -0.19060 0.52700
H20 H 0.06280 -0.28250 0.46680
H21 H 0.00480 -0.24980 0.35940
H22 H 0.02990 -0.12510 0.31220
I4E I -0.04810 0.39070 0.32990
I3E I -0.05090 -0.26160 0.15840
I1E I -0.04410 0.58470 0.32650
I2E I -0.07300 -0.45590 0.14040
Pd1E Pd 0.04590 0.53640 0.22750
Pd1E_2 Pd 0.04590 -0.46360 0.22750
I2E_2 I -0.07300 0.54410 0.14040
P1E P 0.15900 0.53850 0.28950
P2E P 0.12860 0.49750 0.14740
C1E C 0.23970 0.49200 0.24550
C3E C 0.16080 0.49840 0.36960
C9E C 0.19880 0.63160 0.29580
C2E C 0.22750 0.47610 0.18390
C15E C 0.15280 0.56720 0.08760
C21E C 0.10210 0.41250 0.10700
H1E H 0.29620 0.47760 0.26930
C4E C 0.17530 0.42210 0.37530
C8E C 0.13980 0.54000 0.42440
C10E C 0.27520 0.64380 0.32330
C14E C 0.15740 0.68990 0.26560
H2E H 0.27520 0.45090 0.15510
C16E C 0.21750 0.61510 0.10110
C20E C 0.10850 0.57550 0.03010
C22E C 0.13480 0.39400 0.04640
C26E C 0.05520 0.36060 0.14090
C5E C 0.16890 0.38740 0.43580
H3E H 0.19150 0.39000 0.33280
C7E C 0.13330 0.50520 0.48500
H7E H 0.12850 0.59900 0.42010
C11E C 0.31040 0.71450 0.32060
H8E H 0.30730 0.59870 0.34680
C13E C 0.19250 0.76060 0.26280
H12E H 0.09820 0.68040 0.24430
C17E C 0.23800 0.67120 0.05700
H13E H 0.25180 0.60870 0.14560
C19E C 0.12900 0.63150 -0.01390
H17E H 0.05840 0.53840 0.01970
C23E C 0.12070 0.32370 0.01980
H18E H 0.17120 0.43420 0.02020
C25E C 0.04110 0.29040 0.11430
H22E H 0.02990 0.37490 0.18780
C6E C 0.14790 0.42900 0.49060
H4E H 0.18810 0.32840 0.44020
H6E H 0.11710 0.53740 0.52750
C12E C 0.26900 0.77290 0.29040
H9E H 0.36960 0.72400 0.34190
H11E H 0.16050 0.80580 0.23940
C18E C 0.19380 0.67940 -0.00050
H14E H 0.28820 0.70820 0.06740
H16E H 0.09470 0.63790 -0.05850
C24E C 0.07380 0.27190 0.05380
H19E H 0.14600 0.30940 -0.02700
H21E H 0.00480 0.25020 0.14060
H5E H 0.14290 0.40210 0.53750
H10E H 0.29620 0.82760 0.28820
H15E H 0.20970 0.72280 -0.03460
H20E H 0.06280 0.21750 0.03320
loop_
_geom_bond_atom_site_label_1
_geom_bond_atom_site_label_2
_geom_bond_site_symmetry_1
_geom_bond_site_symmetry_2
Pd1 I1 1_555 1_555
I1 I4 1_555 1_555
I2 Pd1 1_555 1_555
I3 I2 1_555 1_555
I4 I3E 1_555 1_555
P1 Pd1 1_555 1_555
P2 Pd1 1_555 1_555
C1 P1 1_555 1_555
C2 P2 1_555 1_555
C3 P1 1_555 1_555
C4 C3 1_555 1_555
C5 C4 1_555 1_555
C6 C5 1_555 1_555
C7 C6 1_555 1_555
C8 C3 1_555 1_555
C9 P1 1_555 1_555
C10 C9 1_555 1_555
C11 C10 1_555 1_555
C12 C11 1_555 1_555
C13 C12 1_555 1_555
C14 C9 1_555 1_555
C15 P2 1_555 1_555
C16 C15 1_555 1_555
C17 C16 1_555 1_555
C18 C17 1_555 1_555
C19 C18 1_555 1_555
C20 C15 1_555 1_555
C21 P2 1_555 1_555
C22 C21 1_555 1_555
C23 C22 1_555 1_555
C24 C23 1_555 1_555
C25 C24 1_555 1_555
C26 C21 1_555 1_555
H1 C1 1_555 1_555
H2 C2 1_555 1_555
H3 C4 1_555 1_555
H4 C5 1_555 1_555
H5 C6 1_555 1_555
H6 C7 1_555 1_555
H7 C8 1_555 1_555
H8 C10 1_555 1_555
H9 C11 1_555 1_555
H10 C12 1_555 1_555
H11 C13 1_555 1_555
H12 C14 1_555 1_555
H13 C16 1_555 1_555
H14 C17 1_555 1_555
H15 C18 1_555 1_555
H16 C19 1_555 1_555
H17 C20 1_555 1_555
H18 C22 1_555 1_555
H19 C23 1_555 1_555
H20 C24 1_555 1_555
H21 C25 1_555 1_555
H22 C26 1_555 1_555
I4E I3 1_555 1_555
I3E I2E 1_555 1_555
I1E I4E 1_555 1_555
I2E Pd1E_2 1_555 1_555
Pd1E I1E 1_555 1_555
I2E_2 Pd1E 1_555 1_555
P1E Pd1E 1_555 1_555
P2E Pd1E 1_555 1_555
C1E P1E 1_555 1_555
C3E P1E 1_555 1_555
C9E P1E 1_555 1_555
C2E P2E 1_555 1_555
C15E P2E 1_555 1_555
C21E P2E 1_555 1_555
H1E C1E 1_555 1_555
C4E C3E 1_555 1_555
C8E C3E 1_555 1_555
C10E C9E 1_555 1_555
C14E C9E 1_555 1_555
H2E C2E 1_555 1_555
C16E C15E 1_555 1_555
C20E C15E 1_555 1_555
C22E C21E 1_555 1_555
C26E C21E 1_555 1_555
C5E C4E 1_555 1_555
H3E C4E 1_555 1_555
C7E C8E 1_555 1_555
H7E C8E 1_555 1_555
C11E C10E 1_555 1_555
H8E C10E 1_555 1_555
C13E C14E 1_555 1_555
H12E C14E 1_555 1_555
C17E C16E 1_555 1_555
H13E C16E 1_555 1_555
C19E C20E 1_555 1_555
H17E C20E 1_555 1_555
C23E C22E 1_555 1_555
H18E C22E 1_555 1_555
C25E C26E 1_555 1_555
H22E C26E 1_555 1_555
C6E C5E 1_555 1_555
H4E C5E 1_555 1_555
H6E C7E 1_555 1_555
C12E C11E 1_555 1_555
H9E C11E 1_555 1_555
H11E C13E 1_555 1_555
C18E C17E 1_555 1_555
H14E C17E 1_555 1_555
H16E C19E 1_555 1_555
C24E C23E 1_555 1_555
H19E C23E 1_555 1_555
H21E C25E 1_555 1_555
H5E C6E 1_555 1_555
H10E C12E 1_555 1_555
H15E C18E 1_555 1_555
H20E C24E 1_555 1_555
C1 C2 1_555 1_555
C7 C8 1_555 1_555
C13 C14 1_555 1_555
C19 C20 1_555 1_555
C25 C26 1_555 1_555
C1E C2E 1_555 1_555
C7E C6E 1_555 1_555
C13E C12E 1_555 1_555
C19E C18E 1_555 1_555
C25E C24E 1_555 1_555

#END
