
#######################################################################
#
#                 Cambridge Crystallographic Data Centre
#                                CCDC 
#
#######################################################################
#
# If this CIF has been generated from an entry in the Cambridge 
# Structural Database, then it will include bibliographic, chemical, 
# crystal, experimental, refinement or atomic coordinate data resulting 
# from the CCDC's data processing and validation procedures.
#
#######################################################################

data_CAMFAZ
_symmetry_cell_setting           orthorhombic
_symmetry_space_group_name_H-M   'P 21 21 21'
_symmetry_Int_Tables_number      19
_space_group_name_Hall           'P 2ac 2ab'
loop_
_symmetry_equiv_pos_site_id
_symmetry_equiv_pos_as_xyz
1 x,y,z
2 1/2-x,-y,1/2+z
3 1/2+x,1/2-y,-z
4 -x,1/2+y,1/2-z
_cell_length_a                   6.6251(7)
_cell_length_b                   8.6595(8)
_cell_length_c                   17.832(2)
_cell_angle_alpha                90
_cell_angle_beta                 90
_cell_angle_gamma                90
_cell_volume                     1023.02
loop_
_atom_site_label
_atom_site_type_symbol
_atom_site_fract_x
_atom_site_fract_y
_atom_site_fract_z
Cu1 Cu 0.57369(10) 0.68017(6) 0.55798(3)
S1 S 0.89960(15) 0.62914(11) 0.51331(4)
C1 C 0.3956(8) 0.4947(5) 0.6010(2)
H1 H 0.2815 0.5155 0.6142
H2 H 0.4845 0.4327 0.6431
C2 C 0.4424(7) 0.4640(5) 0.5291(2)
H3 H 0.3251 0.4757 0.4989
C3 C 0.6090(7) 0.3548(4) 0.5069(2)
H4 H 0.7127 0.3387 0.5455
H5 H 0.5503 0.2595 0.4970
N1 N 0.7178(5) 0.4006(4) 0.43907(19)
H6 H 0.6460 0.3830 0.3999
C4 C 0.8483(6) 0.5159(4) 0.4364(2)
N2 N 0.9427(6) 0.5350(4) 0.37083(18)
H7 H 0.9760 0.4529 0.3395
N3 N 1.0807(6) 0.6575(4) 0.35886(16)
H8 H 1.0362 0.6914 0.3171
H9 H 1.1838 0.6337 0.3415
Cu1B Cu 1.07369(10) 0.81983(6) 0.44202(3)
S1B S 0.39960(15) 0.87086(11) 0.48669(4)
N3B N 0.5807(6) 0.8425(4) 0.64114(16)
H8B H 0.5362 0.8086 0.6829
H9B H 0.6838 0.8663 0.6585
C5 C 1.4195(8) 0.1865(6) 0.2605(3)
F1 F 1.4315(6) 0.2103(4) 0.18610(16)
F2 F 1.3490(6) 0.0439(4) 0.2694(2)
F3 F 1.6068(6) 0.1901(5) 0.2851(2)
C6 C 1.2787(7) 0.3047(5) 0.2984(2)
O1 O 1.1040(5) 0.3085(4) 0.27429(17)
O2 O 1.3576(5) 0.3811(5) 0.34903(19)
loop_
_geom_bond_atom_site_label_1
_geom_bond_atom_site_label_2
_geom_bond_site_symmetry_1
_geom_bond_site_symmetry_2
Cu1 S1 1_555 1_555
S1 C4 1_555 1_555
C1 Cu1 1_555 1_555
H1 C1 1_555 1_555
H2 C1 1_555 1_555
C2 Cu1 1_555 1_555
H3 C2 1_555 1_555
C3 C2 1_555 1_555
H4 C3 1_555 1_555
H5 C3 1_555 1_555
N1 C3 1_555 1_555
H6 N1 1_555 1_555
C4 N1 1_555 1_555
N2 C4 1_555 1_555
H7 N2 1_555 1_555
N3 N2 1_555 1_555
H8 N3 1_555 1_555
H9 N3 1_555 1_555
C5 F1 1_555 1_555
F2 C5 1_555 1_555
F3 C5 1_555 1_555
C6 C5 1_555 1_555
O1 C6 1_555 1_555
O2 C6 1_555 1_555
Cu1B S1 1_555 1_555
S1B Cu1 1_555 1_555
N3B Cu1 1_555 1_555
H8B N3B 1_555 1_555
H9B N3B 1_555 1_555
C1 C2 1_555 1_555
N3 Cu1B 1_555 1_555

#END
