
#######################################################################
#
#                 Cambridge Crystallographic Data Centre
#                                CCDC 
#
#######################################################################
#
# If this CIF has been generated from an entry in the Cambridge 
# Structural Database, then it will include bibliographic, chemical, 
# crystal, experimental, refinement or atomic coordinate data resulting 
# from the CCDC's data processing and validation procedures.
#
#######################################################################

data_CAMYAS
_symmetry_cell_setting           triclinic
_symmetry_space_group_name_H-M   'P -1'
_symmetry_Int_Tables_number      2
_space_group_name_Hall           '-P 1'
loop_
_symmetry_equiv_pos_site_id
_symmetry_equiv_pos_as_xyz
1 x,y,z
2 -x,-y,-z
_cell_length_a                   17.9996(12)
_cell_length_b                   21.5294(13)
_cell_length_c                   23.2308(14)
_cell_angle_alpha                69.029(7)
_cell_angle_beta                 73.284(8)
_cell_angle_gamma                65.655(7)
_cell_volume                     7554.08
loop_
_atom_site_label
_atom_site_type_symbol
_atom_site_fract_x
_atom_site_fract_y
_atom_site_fract_z
S7 S 1.13475(10) -0.77939(10) -0.32328(12)
O7 O 1.0568(3) -0.7464(3) -0.3457(3)
O8 O 1.1854(3) -0.8473(3) -0.3347(4)
O9 O 1.1792(3) -0.7325(3) -0.3347(3)
C148 C 1.1049(4) -0.8018(5) -0.2399(5)
F1 F 1.0533(3) -0.7455(3) -0.2182(3)
F2 F 1.0642(3) -0.8480(3) -0.2191(3)
F3 F 1.1698(3) -0.8313(3) -0.2089(3)
S8 S 1.05916(14) -0.71053(11) 0.00560(11)
O10 O 1.0166(8) -0.6802(7) 0.0521(6)
O11 O 1.1256(3) -0.7738(3) 0.0211(3)
O12 O 1.0697(4) -0.6622(4) -0.0551(3)
C149 C 0.9842(11) -0.7455(10) -0.0026(10)
F4 F 0.9658(8) -0.7849(7) 0.0545(7)
F5 F 0.9144(7) -0.6954(6) -0.0194(5)
F6 F 1.0135(10) -0.7737(8) -0.0467(8)
O13 O 0.0832(9) -0.5083(7) -0.3558(7)
C150 C 0.2074(13) -0.4896(12) -0.3777(11)
H157 H 0.2541 -0.4854 -0.4114
H158 H 0.2283 -0.5211 -0.3389
H159 H 0.1728 -0.4426 -0.3717
C151 C 0.1573(12) -0.5192(11) -0.3944(10)
H160 H 0.1489 -0.4956 -0.4384
H161 H 0.1866 -0.5706 -0.3897
C152 C 0.0305(12) -0.5449(11) -0.3613(10)
H162 H 0.0108 -0.5240 -0.4020
H163 H 0.0604 -0.5965 -0.3550
C153 C -0.0387(13) -0.5295(12) -0.3085(10)
H164 H -0.0770 -0.5532 -0.3042
H165 H -0.0682 -0.4782 -0.3171
H166 H -0.0162 -0.5469 -0.2696
O14 O 1.0005(11) -0.9704(8) -0.0068(9)
C154 C 1.0641(16) -0.9580(15) -0.0605(12)
H167 H 1.0631 -0.9095 -0.0704
H168 H 1.0533 -0.9646 -0.0966
H169 H 1.1184 -0.9917 -0.0507
O14A O 0.9995(11) -1.0296(8) 0.0068(9)
C154A C 0.9359(16) -1.0420(15) 0.0605(12)
H167A H 0.9369 -1.0905 0.0704
H168A H 0.9467 -1.0354 0.0966
H169A H 0.8816 -1.0083 0.0507
La1 La 0.537450(16) -0.423610(13) 0.168420(13)
La2 La 0.257550(16) -0.063400(13) 0.338660(13)
Ag1 Ag 0.72062(2) -0.51114(2) 0.06158(2)
Ag2 Ag 0.17282(3) 0.13211(2) 0.33081(2)
S1 S 0.63754(9) -0.83090(7) 0.19972(7)
S2 S -0.11316(10) -0.13885(8) 0.55990(8)
O1 O 0.5082(2) -0.53484(16) 0.19868(16)
O2 O 0.1895(2) -0.07351(18) 0.44598(16)
N1 N 0.3946(2) -0.4165(2) 0.14410(19)
N2 N 0.3470(3) -0.2383(2) 0.0412(2)
N3 N 0.4220(2) -0.2934(2) 0.11964(19)
N4 N 0.5527(2) -0.1459(2) 0.3256(2)
N5 N 0.4281(2) -0.1303(2) 0.3088(2)
N6 N 0.3546(2) -0.1332(2) 0.4286(2)
C1 C 0.7085(7) -0.9812(5) 0.1743(7)
H1 H 0.7490 -1.0142 0.1507
H2 H 0.6682 -1.0026 0.2031
H3 H 0.6799 -0.9370 0.1454
C2 C 0.7499(6) -0.9665(5) 0.2091(6)
H4 H 0.7800 -1.0117 0.2371
H5 H 0.7915 -0.9462 0.1795
C3 C 0.6936(5) -0.9156(4) 0.2482(4)
H6 H 0.6538 -0.9366 0.2797
H7 H 0.7272 -0.9084 0.2707
C4 C 0.5836(4) -0.7816(3) 0.2585(3)
H8 H 0.6230 -0.7691 0.2705
H9 H 0.5590 -0.8111 0.2963
C5 C 0.5159(4) -0.7146(3) 0.2306(3)
H10 H 0.5401 -0.6895 0.1894
H11 H 0.4733 -0.7279 0.2238
C6 C 0.4743(4) -0.6636(3) 0.2729(3)
H12 H 0.5171 -0.6519 0.2816
H13 H 0.4472 -0.6874 0.3133
C7 C 0.4110(3) -0.5961(3) 0.2424(2)
C8 C 0.3302(4) -0.5934(3) 0.2461(3)
H14 H 0.3157 -0.6339 0.2709
C9 C 0.2714(3) -0.5355(3) 0.2159(3)
H15 H 0.2177 -0.5363 0.2200
C10 C 0.2915(3) -0.4742(3) 0.1784(3)
C11 C 0.2369(3) -0.4109(3) 0.1450(3)
H16 H 0.1829 -0.4084 0.1451
C12 C 0.2609(3) -0.3531(3) 0.1123(2)
H17 H 0.2247 -0.3111 0.0889
C13 C 0.3402(3) -0.3577(2) 0.1143(2)
C14 C 0.3720(3) -0.4747(2) 0.1752(2)
C15 C 0.4348(3) -0.5362(3) 0.2055(2)
C16 C 0.3706(3) -0.2967(2) 0.0902(2)
C17 C 0.3848(3) -0.1929(3) 0.0395(2)
C18 C 0.3847(4) -0.1260(3) 0.0001(3)
H18 H 0.3555 -0.1030 -0.0343
C19 C 0.4288(3) -0.0952(3) 0.0136(3)
H19 H 0.4294 -0.0498 -0.0124
C20 C 0.4734(3) -0.1280(2) 0.0643(2)
C21 C 0.4740(3) -0.1947(2) 0.1023(2)
H20 H 0.5035 -0.2178 0.1366
C22 C 0.4303(3) -0.2270(2) 0.0888(2)
C23 C 0.5217(3) -0.0905(3) 0.0746(3)
H21 H 0.5770 -0.1026 0.0484
H22 H 0.4933 -0.0388 0.0592
C24 C 0.5335(3) -0.1070(2) 0.1417(3)
C25 C 0.6100(3) -0.1143(3) 0.1533(3)
H23 H 0.6533 -0.1101 0.1189
C26 C 0.6247(3) -0.1271(3) 0.2121(3)
H24 H 0.6769 -0.1323 0.2187
C27 C 0.5588(3) -0.1322(3) 0.2621(3)
C28 C 0.4732(3) -0.1438(2) 0.3508(3)
C29 C 0.4819(3) -0.1232(2) 0.2514(2)
C30 C 0.4686(3) -0.1114(2) 0.1912(2)
H25 H 0.4167 -0.1067 0.1844
C31 C 0.4375(3) -0.1585(3) 0.4184(3)
C32 C 0.4826(3) -0.2006(3) 0.4679(3)
H26 H 0.5413 -0.2186 0.4597
C33 C 0.4416(4) -0.2154(3) 0.5275(3)
H27 H 0.4722 -0.2440 0.5607
C34 C 0.3545(4) -0.1890(3) 0.5408(3)
C35 C 0.3061(4) -0.2008(3) 0.6012(3)
H28 H 0.3317 -0.2295 0.6369
C36 C 0.2216(4) -0.1701(3) 0.6071(3)
H29 H 0.1899 -0.1783 0.6478
C37 C 0.1794(4) -0.1271(3) 0.5563(3)
C38 C 0.2241(3) -0.1141(3) 0.4953(2)
C39 C 0.3133(3) -0.1461(3) 0.4882(2)
C40 C 0.0865(4) -0.0939(3) 0.5656(3)
H30 H 0.0672 -0.0834 0.6067
H31 H 0.0712 -0.0481 0.5331
C41 C 0.0409(4) -0.1386(3) 0.5632(3)
H32 H 0.0754 -0.1684 0.5346
H33 H 0.0308 -0.1704 0.6053
C42 C -0.0414(4) -0.0912(3) 0.5406(3)
H34 H -0.0673 -0.0513 0.5598
H35 H -0.0310 -0.0712 0.4947
C43 C -0.1981(4) -0.0715(3) 0.5200(3)
H36 H -0.2105 -0.0259 0.5284
H37 H -0.2479 -0.0852 0.5377
C44 C -0.1807(5) -0.0606(4) 0.4508(4)
H38 H -0.1338 -0.0430 0.4323
H39 H -0.1645 -0.1066 0.4419
C45 C -0.2563(6) -0.0076(5) 0.4203(4)
H40 H -0.2429 -0.0019 0.3751
H41 H -0.3026 -0.0253 0.4381
H42 H -0.2718 0.0383 0.4282
C46 C 0.3030(3) -0.2278(3) -0.0077(3)
H43 H 0.3357 -0.2131 -0.0490
H44 H 0.2992 -0.2737 -0.0042
C47 C 0.2165(4) -0.1729(3) -0.0045(3)
H45 H 0.1908 -0.1689 -0.0381
H46 H 0.1833 -0.1874 0.0360
H47 H 0.2197 -0.1269 -0.0093
C48 C 0.6192(3) -0.1511(3) 0.3546(3)
H48 H 0.6276 -0.1930 0.3915
H49 H 0.6714 -0.1581 0.3243
C49 C 0.5992(4) -0.0862(4) 0.3744(4)
H50 H 0.6449 -0.0917 0.3929
H51 H 0.5914 -0.0447 0.3380
H52 H 0.5484 -0.0799 0.4054
S3 S 0.31567(8) -0.40060(7) -0.04088(7)
S4 S 0.20459(11) 0.21826(10) 0.23134(9)
N7 N 0.6276(2) -0.3419(2) 0.08630(19)
N8 N 0.6983(3) -0.3115(2) 0.2021(2)
N9 N 0.5934(2) -0.34698(19) 0.20832(19)
N10 N 0.1674(3) -0.2659(3) 0.4235(3)
N11 N 0.2417(2) -0.1940(2) 0.3768(2)
N12 N 0.1123(2) -0.0765(2) 0.3432(2)
O3 O 0.5692(2) -0.42123(17) 0.05780(15)
O4 O 0.1397(2) 0.04581(17) 0.31105(17)
C50 C 0.2291(4) -0.2673(4) -0.2079(4)
H53 H 0.2405 -0.2754 -0.2489
H54 H 0.1716 -0.2626 -0.1888
H55 H 0.2382 -0.2237 -0.2128
C51 C 0.2872(4) -0.3301(3) -0.1657(3)
H56 H 0.3452 -0.3351 -0.1855
H57 H 0.2788 -0.3742 -0.1617
C52 C 0.2728(4) -0.3211(3) -0.1013(3)
H58 H 0.2965 -0.2855 -0.1047
H59 H 0.2125 -0.3014 -0.0875
C53 C 0.4267(3) -0.4231(3) -0.0682(2)
H60 H 0.4375 -0.4141 -0.1142
H61 H 0.4544 -0.4744 -0.0499
C54 C 0.4641(3) -0.3815(3) -0.0513(2)
H62 H 0.4399 -0.3305 -0.0726
H63 H 0.4491 -0.3872 -0.0057
C55 C 0.5580(3) -0.4048(3) -0.0692(2)
H64 H 0.5732 -0.3993 -0.1148
H65 H 0.5825 -0.4556 -0.0476
C56 C 0.5935(3) -0.3626(3) -0.0524(2)
C57 C 0.6252(3) -0.3118(3) -0.0988(3)
H66 H 0.6235 -0.3049 -0.1412
C58 C 0.6581(3) -0.2719(3) -0.0860(3)
H67 H 0.6788 -0.2387 -0.1190
C59 C 0.6607(3) -0.2809(2) -0.0238(2)
C60 C 0.6977(3) -0.2465(3) -0.0041(3)
H68 H 0.7210 -0.2132 -0.0344
C61 C 0.7002(3) -0.2604(3) 0.0576(3)
H69 H 0.7261 -0.2380 0.0703
C62 C 0.6636(3) -0.3091(2) 0.1025(2)
C63 C 0.6274(3) -0.3300(2) 0.0251(2)
C64 C 0.5944(3) -0.3728(2) 0.0109(2)
C65 C 0.6547(3) -0.3241(2) 0.1709(2)
C66 C 0.6616(3) -0.3265(3) 0.2658(3)
C67 C 0.6762(4) -0.3194(3) 0.3183(3)
H70 H 0.7185 -0.3028 0.3162
C68 C 0.6249(4) -0.3380(3) 0.3742(3)
H71 H 0.6333 -0.3346 0.4113
C69 C 0.5606(3) -0.3619(2) 0.3779(2)
C70 C 0.5464(3) -0.3673(2) 0.3246(2)
H72 H 0.5033 -0.3830 0.3265
C71 C 0.5971(3) -0.3490(2) 0.2678(2)
C72 C 0.5066(3) -0.3825(3) 0.4402(2)
H73 H 0.5139 -0.3636 0.4706
H74 H 0.5260 -0.4348 0.4563
C73 C 0.4153(3) -0.3555(3) 0.4367(2)
C74 C 0.3684(4) -0.3997(3) 0.4657(4)
H75 H 0.3949 -0.4474 0.4876
C75 C 0.2849(5) -0.3769(4) 0.4638(4)
H76 H 0.2544 -0.4081 0.4828
C76 C 0.2479(4) -0.3064(3) 0.4332(3)
C77 C 0.1676(3) -0.1986(3) 0.3889(3)
C78 C 0.2936(3) -0.2613(2) 0.4048(2)
C79 C 0.3778(3) -0.2856(2) 0.4053(2)
H77 H 0.4089 -0.2550 0.3847
C80 C 0.0979(3) -0.1377(3) 0.3626(3)
C81 C 0.0275(3) -0.1429(3) 0.3527(3)
H78 H 0.0182 -0.1868 0.3680
C82 C -0.0273(4) -0.0835(3) 0.3204(4)
H79 H -0.0739 -0.0868 0.3118
C83 C -0.0161(3) -0.0182(3) 0.3000(3)
C84 C -0.0698(4) 0.0458(4) 0.2671(4)
H80 H -0.1178 0.0466 0.2572
C85 C -0.0524(4) 0.1067(3) 0.2497(4)
H81 H -0.0887 0.1490 0.2267
C86 C 0.0160(3) 0.1098(3) 0.2640(3)
C87 C 0.0727(3) 0.0485(3) 0.2953(3)
C88 C 0.0562(3) -0.0167(3) 0.3137(3)
C89 C 0.0317(4) 0.1796(3) 0.2442(3)
H82 H -0.0200 0.2192 0.2337
H83 H 0.0457 0.1846 0.2802
C90 C 0.1008(4) 0.1862(3) 0.1885(3)
H84 H 0.0810 0.1941 0.1500
H85 H 0.1483 0.1411 0.1941
C91 C 0.1297(5) 0.2464(4) 0.1803(3)
H86 H 0.1552 0.2618 0.1362
H87 H 0.0816 0.2873 0.1902
C92 C 0.1960(7) 0.2967(6) 0.2430(6)
H88 H 0.1757 0.3360 0.2065
H89 H 0.2523 0.2939 0.2430
C93 C 0.1476(8) 0.3145(6) 0.2945(6)
H90 H 0.1668 0.2747 0.3311
H91 H 0.1565 0.3558 0.2970
C94 C 0.0640(7) 0.3308(6) 0.3001(5)
H92 H 0.0361 0.3417 0.3401
H93 H 0.0428 0.3722 0.2658
H94 H 0.0535 0.2904 0.2984
C95 C 0.7785(4) -0.2996(3) 0.1805(3)
H95 H 0.7914 -0.2885 0.1344
H96 H 0.7737 -0.2582 0.1924
C96 C 0.8484(6) -0.3630(5) 0.2078(5)
H97 H 0.8997 -0.3522 0.1929
H98 H 0.8360 -0.3742 0.2535
H99 H 0.8549 -0.4037 0.1947
C97 C 0.1022(8) -0.3039(7) 0.4404(7)
H100 H 0.1279 -0.3561 0.4496
H101 H 0.0667 -0.2853 0.4081
C98 C 0.0604(10) -0.2806(9) 0.4949(7)
H102 H 0.0137 -0.2977 0.5140
H103 H 0.0986 -0.2994 0.5246
H104 H 0.0398 -0.2287 0.4835
S5 S 0.81481(9) -0.44148(8) 0.02221(9)
S6 S 0.33834(12) 0.24869(10) 0.45310(10)
O5 O 0.6841(2) -0.49866(17) 0.16950(17)
O6 O 0.3065(2) 0.02594(18) 0.34572(17)
N13 N 0.5800(2) -0.5133(2) 0.27823(19)
N14 N 0.3701(3) -0.5004(2) 0.3526(2)
N15 N 0.4201(2) -0.4191(2) 0.27857(19)
N16 N 0.2101(3) -0.0006(2) 0.1299(2)
N17 N 0.2553(2) -0.0730(2) 0.22036(19)
N18 N 0.3103(2) 0.0232(2) 0.23089(19)
C99 C 0.9218(5) -0.5130(7) -0.1383(4)
H105 H 0.9347 -0.5594 -0.1442
H106 H 0.8843 -0.4763 -0.1668
H107 H 0.9729 -0.5030 -0.1470
C100 C 0.8807(5) -0.5135(5) -0.0716(4)
H108 H 0.9185 -0.5511 -0.0430
H109 H 0.8299 -0.5250 -0.0627
C101 C 0.8584(4) -0.4434(4) -0.0589(4)
H110 H 0.9087 -0.4305 -0.0712
H111 H 0.8180 -0.4066 -0.0859
C102 C 0.9039(4) -0.4890(4) 0.0614(4)
H112 H 0.9381 -0.4591 0.0507
H113 H 0.9382 -0.5327 0.0483
C103 C 0.8725(4) -0.5073(5) 0.1312(4)
H114 H 0.9127 -0.5083 0.1533
H115 H 0.8195 -0.4696 0.1402
C104 C 0.8590(4) -0.5792(3) 0.1569(3)
H116 H 0.9129 -0.6178 0.1625
H117 H 0.8364 -0.5854 0.1260
C105 C 0.8004(3) -0.5851(3) 0.2187(3)
C106 C 0.8270(3) -0.6339(3) 0.2746(3)
H118 H 0.8844 -0.6607 0.2728
C107 C 0.7772(4) -0.6459(3) 0.3314(3)
H119 H 0.7989 -0.6799 0.3674
C108 C 0.6908(4) -0.6049(3) 0.3340(3)
C109 C 0.6309(4) -0.6133(3) 0.3883(3)
H120 H 0.6475 -0.6457 0.4266
C110 C 0.5488(4) -0.5745(3) 0.3856(3)
H121 H 0.5083 -0.5809 0.4217
C111 C 0.5248(3) -0.5252(2) 0.3293(2)
C112 C 0.6616(3) -0.5532(3) 0.2793(2)
C113 C 0.7166(3) -0.5439(3) 0.2198(3)
C114 C 0.4387(3) -0.4820(2) 0.3205(2)
C115 C 0.3029(3) -0.4444(3) 0.3296(2)
C116 C 0.2173(3) -0.4344(3) 0.3432(3)
H122 H 0.1962 -0.4696 0.3727
C117 C 0.1666(3) -0.3705(3) 0.3112(3)
H123 H 0.1087 -0.3615 0.3199
C118 C 0.1962(3) -0.3180(3) 0.2664(3)
C119 C 0.2807(3) -0.3298(3) 0.2518(2)
H124 H 0.3018 -0.2954 0.2208
C120 C 0.3335(3) -0.3933(3) 0.2841(2)
C121 C 0.1333(3) -0.2522(3) 0.2320(3)
H125 H 0.0807 -0.2420 0.2616
H126 H 0.1232 -0.2640 0.1981
C122 C 0.1536(3) -0.1844(3) 0.2033(3)
C123 C 0.1212(4) -0.1364(3) 0.1484(3)
H127 H 0.0891 -0.1484 0.1309
C124 C 0.1348(4) -0.0727(3) 0.1198(3)
H128 H 0.1125 -0.0411 0.0833
C125 C 0.1824(3) -0.0565(3) 0.1463(3)
C126 C 0.2534(3) -0.0130(3) 0.1746(2)
C127 C 0.2118(3) -0.1023(3) 0.2026(2)
C128 C 0.1986(3) -0.1669(3) 0.2304(2)
H129 H 0.2201 -0.1983 0.2673
C129 C 0.3019(3) 0.0280(2) 0.1742(2)
C130 C 0.3452(3) 0.0631(3) 0.1187(2)
H130 H 0.3372 0.0675 0.0786
C131 C 0.3982(3) 0.0901(3) 0.1246(3)
H131 H 0.4290 0.1119 0.0882
C132 C 0.4081(3) 0.0862(3) 0.1840(3)
C133 C 0.4606(4) 0.1137(3) 0.1946(3)
H132 H 0.4943 0.1351 0.1605
C134 C 0.4621(3) 0.1092(3) 0.2539(3)
H133 H 0.4988 0.1269 0.2600
C135 C 0.4124(3) 0.0795(3) 0.3077(3)
C136 C 0.3589(3) 0.0521(2) 0.2998(3)
C137 C 0.3600(3) 0.0534(2) 0.2368(3)
C138 C 0.4142(4) 0.0825(3) 0.3710(3)
H134 H 0.3878 0.0498 0.4035
H135 H 0.4725 0.0656 0.3766
C139 C 0.3699(4) 0.1572(3) 0.3805(3)
H136 H 0.3098 0.1711 0.3819
H137 H 0.3901 0.1914 0.3444
C140 C 0.3842(4) 0.1612(3) 0.4407(4)
H138 H 0.3616 0.1285 0.4766
H139 H 0.4445 0.1444 0.4400
C141 C 0.2330(6) 0.2483(5) 0.4914(5)
H140 H 0.2371 0.2122 0.5324
H141 H 0.2120 0.2331 0.4657
C142 C 0.1742(10) 0.3131(9) 0.5012(8)
H142 H 0.1232 0.3051 0.5277
H143 H 0.1963 0.3314 0.5237
C143 C 0.1538(10) 0.3672(9) 0.4403(8)
H144 H 0.1136 0.4118 0.4484
H145 H 0.2042 0.3752 0.4141
H146 H 0.1302 0.3498 0.4187
C144 C 0.3651(4) -0.5699(3) 0.3928(3)
H147 H 0.3310 -0.5837 0.3763
H148 H 0.4213 -0.6061 0.3916
C145 C 0.3278(4) -0.5687(3) 0.4602(3)
H149 H 0.3261 -0.6158 0.4853
H150 H 0.3617 -0.5556 0.4770
H151 H 0.2716 -0.5339 0.4619
C146 C 0.1825(4) 0.0653(3) 0.0791(3)
H152 H 0.1221 0.0802 0.0816
H153 H 0.1938 0.1035 0.0855
C147 C 0.2247(4) 0.0566(3) 0.0149(3)
H154 H 0.2041 0.1014 -0.0166
H155 H 0.2845 0.0431 0.0117
H156 H 0.2129 0.0195 0.0079
Ag1A Ag 0.27938(2) -0.48886(2) -0.06158(2)
Ag2A Ag -0.17282(3) -0.13211(2) 0.66919(2)
S2A S 0.11316(10) 0.13885(8) 0.44010(8)
S3A S 0.68433(8) -0.59940(7) 0.04088(7)
S4A S -0.20459(11) -0.21826(10) 0.76866(9)
loop_
_geom_bond_atom_site_label_1
_geom_bond_atom_site_label_2
_geom_bond_site_symmetry_1
_geom_bond_site_symmetry_2
La1 O1 1_555 1_555
La2 O2 1_555 1_555
Ag1 O3 1_555 1_555
Ag2 S4 1_555 1_555
S1 C3 1_555 1_555
S2 C42 1_555 1_555
O1 C15 1_555 1_555
O2 C38 1_555 1_555
N1 La1 1_555 1_555
N2 C16 1_555 1_555
N3 La1 1_555 1_555
N4 C27 1_555 1_555
N5 La2 1_555 1_555
N6 La2 1_555 1_555
C1 H1 1_555 1_555
H2 C1 1_555 1_555
H3 C1 1_555 1_555
C2 C1 1_555 1_555
H4 C2 1_555 1_555
H5 C2 1_555 1_555
C3 C2 1_555 1_555
H6 C3 1_555 1_555
H7 C3 1_555 1_555
C4 S1 1_555 1_555
H8 C4 1_555 1_555
H9 C4 1_555 1_555
C5 C4 1_555 1_555
H10 C5 1_555 1_555
H11 C5 1_555 1_555
C6 C5 1_555 1_555
H12 C6 1_555 1_555
H13 C6 1_555 1_555
C7 C6 1_555 1_555
C8 C7 1_555 1_555
H14 C8 1_555 1_555
C9 C8 1_555 1_555
H15 C9 1_555 1_555
C10 C9 1_555 1_555
C11 C10 1_555 1_555
H16 C11 1_555 1_555
C12 C11 1_555 1_555
H17 C12 1_555 1_555
C13 N1 1_555 1_555
C14 N1 1_555 1_555
C15 C7 1_555 1_555
C16 N3 1_555 1_555
C17 N2 1_555 1_555
C18 C17 1_555 1_555
H18 C18 1_555 1_555
C19 C18 1_555 1_555
H19 C19 1_555 1_555
C20 C19 1_555 1_555
C21 C20 1_555 1_555
H20 C21 1_555 1_555
C22 N3 1_555 1_555
C23 C20 1_555 1_555
H21 C23 1_555 1_555
H22 C23 1_555 1_555
C24 C23 1_555 1_555
C25 C24 1_555 1_555
H23 C25 1_555 1_555
C26 C25 1_555 1_555
H24 C26 1_555 1_555
C27 C26 1_555 1_555
C28 N4 1_555 1_555
C29 N5 1_555 1_555
C30 C24 1_555 1_555
H25 C30 1_555 1_555
C31 N6 1_555 1_555
C32 C31 1_555 1_555
H26 C32 1_555 1_555
C33 C32 1_555 1_555
H27 C33 1_555 1_555
C34 C33 1_555 1_555
C35 C34 1_555 1_555
H28 C35 1_555 1_555
C36 C35 1_555 1_555
H29 C36 1_555 1_555
C37 C36 1_555 1_555
C38 C37 1_555 1_555
C39 N6 1_555 1_555
C40 C37 1_555 1_555
H30 C40 1_555 1_555
H31 C40 1_555 1_555
C41 C40 1_555 1_555
H32 C41 1_555 1_555
H33 C41 1_555 1_555
C42 C41 1_555 1_555
H34 C42 1_555 1_555
H35 C42 1_555 1_555
C43 S2 1_555 1_555
H36 C43 1_555 1_555
H37 C43 1_555 1_555
C44 C43 1_555 1_555
H38 C44 1_555 1_555
H39 C44 1_555 1_555
C45 C44 1_555 1_555
H40 C45 1_555 1_555
H41 C45 1_555 1_555
H42 C45 1_555 1_555
C46 N2 1_555 1_555
H43 C46 1_555 1_555
H44 C46 1_555 1_555
C47 C46 1_555 1_555
H45 C47 1_555 1_555
H46 C47 1_555 1_555
H47 C47 1_555 1_555
C48 N4 1_555 1_555
H48 C48 1_555 1_555
H49 C48 1_555 1_555
C49 C48 1_555 1_555
H50 C49 1_555 1_555
H51 C49 1_555 1_555
H52 C49 1_555 1_555
S3 C52 1_555 1_555
S4 C91 1_555 1_555
N7 La1 1_555 1_555
N8 C65 1_555 1_555
N9 La1 1_555 1_555
N10 C76 1_555 1_555
N11 La2 1_555 1_555
N12 La2 1_555 1_555
O3 La1 1_555 1_555
O4 La2 1_555 1_555
C50 H53 1_555 1_555
H54 C50 1_555 1_555
H55 C50 1_555 1_555
C51 C50 1_555 1_555
H56 C51 1_555 1_555
H57 C51 1_555 1_555
C52 C51 1_555 1_555
H58 C52 1_555 1_555
H59 C52 1_555 1_555
C53 S3 1_555 1_555
H60 C53 1_555 1_555
H61 C53 1_555 1_555
C54 C53 1_555 1_555
H62 C54 1_555 1_555
H63 C54 1_555 1_555
C55 C54 1_555 1_555
H64 C55 1_555 1_555
H65 C55 1_555 1_555
C56 C55 1_555 1_555
C57 C56 1_555 1_555
H66 C57 1_555 1_555
C58 C57 1_555 1_555
H67 C58 1_555 1_555
C59 C58 1_555 1_555
C60 C59 1_555 1_555
H68 C60 1_555 1_555
C61 C60 1_555 1_555
H69 C61 1_555 1_555
C62 N7 1_555 1_555
C63 N7 1_555 1_555
C64 O3 1_555 1_555
C65 N9 1_555 1_555
C66 N8 1_555 1_555
C67 C66 1_555 1_555
H70 C67 1_555 1_555
C68 C67 1_555 1_555
H71 C68 1_555 1_555
C69 C68 1_555 1_555
C70 C69 1_555 1_555
H72 C70 1_555 1_555
C71 N9 1_555 1_555
C72 C69 1_555 1_555
H73 C72 1_555 1_555
H74 C72 1_555 1_555
C73 C72 1_555 1_555
C74 C73 1_555 1_555
H75 C74 1_555 1_555
C75 C74 1_555 1_555
H76 C75 1_555 1_555
C76 C75 1_555 1_555
C77 N10 1_555 1_555
C78 N11 1_555 1_555
C79 C73 1_555 1_555
H77 C79 1_555 1_555
C80 N12 1_555 1_555
C81 C80 1_555 1_555
H78 C81 1_555 1_555
C82 C81 1_555 1_555
H79 C82 1_555 1_555
C83 C82 1_555 1_555
C84 C83 1_555 1_555
H80 C84 1_555 1_555
C85 C84 1_555 1_555
H81 C85 1_555 1_555
C86 C85 1_555 1_555
C87 O4 1_555 1_555
C88 N12 1_555 1_555
C89 C86 1_555 1_555
H82 C89 1_555 1_555
H83 C89 1_555 1_555
C90 C89 1_555 1_555
H84 C90 1_555 1_555
H85 C90 1_555 1_555
C91 C90 1_555 1_555
H86 C91 1_555 1_555
H87 C91 1_555 1_555
C92 S4 1_555 1_555
H88 C92 1_555 1_555
H89 C92 1_555 1_555
C93 C92 1_555 1_555
H90 C93 1_555 1_555
H91 C93 1_555 1_555
C94 C93 1_555 1_555
H92 C94 1_555 1_555
H93 C94 1_555 1_555
H94 C94 1_555 1_555
C95 N8 1_555 1_555
H95 C95 1_555 1_555
H96 C95 1_555 1_555
C96 C95 1_555 1_555
H97 C96 1_555 1_555
H98 C96 1_555 1_555
H99 C96 1_555 1_555
C97 N10 1_555 1_555
H100 C97 1_555 1_555
H101 C97 1_555 1_555
C98 C97 1_555 1_555
H102 C98 1_555 1_555
H103 C98 1_555 1_555
H104 C98 1_555 1_555
S5 Ag1 1_555 1_555
S6 C140 1_555 1_555
O5 La1 1_555 1_555
O6 La2 1_555 1_555
N13 La1 1_555 1_555
N14 C114 1_555 1_555
N15 La1 1_555 1_555
N16 C125 1_555 1_555
N17 La2 1_555 1_555
N18 La2 1_555 1_555
C99 H105 1_555 1_555
H106 C99 1_555 1_555
H107 C99 1_555 1_555
C100 C99 1_555 1_555
H108 C100 1_555 1_555
H109 C100 1_555 1_555
C101 S5 1_555 1_555
H110 C101 1_555 1_555
H111 C101 1_555 1_555
C102 S5 1_555 1_555
H112 C102 1_555 1_555
H113 C102 1_555 1_555
C103 C102 1_555 1_555
H114 C103 1_555 1_555
H115 C103 1_555 1_555
C104 C103 1_555 1_555
H116 C104 1_555 1_555
H117 C104 1_555 1_555
C105 C104 1_555 1_555
C106 C105 1_555 1_555
H118 C106 1_555 1_555
C107 C106 1_555 1_555
H119 C107 1_555 1_555
C108 C107 1_555 1_555
C109 C108 1_555 1_555
H120 C109 1_555 1_555
C110 C109 1_555 1_555
H121 C110 1_555 1_555
C111 N13 1_555 1_555
C112 N13 1_555 1_555
C113 O5 1_555 1_555
C114 N15 1_555 1_555
C115 N14 1_555 1_555
C116 C115 1_555 1_555
H122 C116 1_555 1_555
C117 C116 1_555 1_555
H123 C117 1_555 1_555
C118 C117 1_555 1_555
C119 C118 1_555 1_555
H124 C119 1_555 1_555
C120 N15 1_555 1_555
C121 C118 1_555 1_555
H125 C121 1_555 1_555
H126 C121 1_555 1_555
C122 C121 1_555 1_555
C123 C122 1_555 1_555
H127 C123 1_555 1_555
C124 C123 1_555 1_555
H128 C124 1_555 1_555
C125 C124 1_555 1_555
C126 N16 1_555 1_555
C127 N17 1_555 1_555
C128 C122 1_555 1_555
H129 C128 1_555 1_555
C129 N18 1_555 1_555
C130 C129 1_555 1_555
H130 C130 1_555 1_555
C131 C130 1_555 1_555
H131 C131 1_555 1_555
C132 C131 1_555 1_555
C133 C132 1_555 1_555
H132 C133 1_555 1_555
C134 C133 1_555 1_555
H133 C134 1_555 1_555
C135 C134 1_555 1_555
C136 O6 1_555 1_555
C137 N18 1_555 1_555
C138 C135 1_555 1_555
H134 C138 1_555 1_555
H135 C138 1_555 1_555
C139 C138 1_555 1_555
H136 C139 1_555 1_555
H137 C139 1_555 1_555
C140 C139 1_555 1_555
H138 C140 1_555 1_555
H139 C140 1_555 1_555
C141 S6 1_555 1_555
H140 C141 1_555 1_555
H141 C141 1_555 1_555
C142 C141 1_555 1_555
H142 C142 1_555 1_555
H143 C142 1_555 1_555
C143 C142 1_555 1_555
H144 C143 1_555 1_555
H145 C143 1_555 1_555
H146 C143 1_555 1_555
C144 N14 1_555 1_555
H147 C144 1_555 1_555
H148 C144 1_555 1_555
C145 C144 1_555 1_555
H149 C145 1_555 1_555
H150 C145 1_555 1_555
H151 C145 1_555 1_555
C146 N16 1_555 1_555
H152 C146 1_555 1_555
H153 C146 1_555 1_555
C147 C146 1_555 1_555
H154 C147 1_555 1_555
H155 C147 1_555 1_555
H156 C147 1_555 1_555
S7 O7 1_555 1_555
O8 S7 1_555 1_555
O9 S7 1_555 1_555
C148 S7 1_555 1_555
F1 C148 1_555 1_555
F2 C148 1_555 1_555
F3 C148 1_555 1_555
S8 O10 1_555 1_555
O11 S8 1_555 1_555
O12 S8 1_555 1_555
C149 S8 1_555 1_555
F4 C149 1_555 1_555
F5 C149 1_555 1_555
F6 C149 1_555 1_555
O13 C151 1_555 1_555
C150 H157 1_555 1_555
H158 C150 1_555 1_555
H159 C150 1_555 1_555
C151 C150 1_555 1_555
H160 C151 1_555 1_555
H161 C151 1_555 1_555
C152 O13 1_555 1_555
H162 C152 1_555 1_555
H163 C152 1_555 1_555
C153 C152 1_555 1_555
H164 C153 1_555 1_555
H165 C153 1_555 1_555
H166 C153 1_555 1_555
O14 C154 1_555 1_555
C154 H167 1_555 1_555
H168 C154 1_555 1_555
H169 C154 1_555 1_555
Ag1A S3 1_555 1_555
Ag2A S2 1_555 1_555
S2A Ag2 1_555 1_555
S3A Ag1 1_555 1_555
S4A Ag2A 1_555 1_555
O14A O14 1_555 1_555
C154A O14A 1_555 1_555
H167A C154A 1_555 1_555
H168A C154A 1_555 1_555
H169A C154A 1_555 1_555
Ag1 O5 1_555 1_555
Ag2 O4 1_555 1_555
Ag2 O6 1_555 1_555
N5 C28 1_555 1_555
C10 C14 1_555 1_555
C12 C13 1_555 1_555
C13 C16 1_555 1_555
C14 C15 1_555 1_555
C17 C22 1_555 1_555
C21 C22 1_555 1_555
C27 C29 1_555 1_555
C28 C31 1_555 1_555
C29 C30 1_555 1_555
C34 C39 1_555 1_555
C38 C39 1_555 1_555
N11 C77 1_555 1_555
C56 C64 1_555 1_555
C59 C63 1_555 1_555
C61 C62 1_555 1_555
C62 C65 1_555 1_555
C63 C64 1_555 1_555
C66 C71 1_555 1_555
C70 C71 1_555 1_555
C76 C78 1_555 1_555
C77 C80 1_555 1_555
C78 C79 1_555 1_555
C83 C88 1_555 1_555
C86 C87 1_555 1_555
C87 C88 1_555 1_555
N17 C126 1_555 1_555
C100 C101 1_555 1_555
C105 C113 1_555 1_555
C108 C112 1_555 1_555
C110 C111 1_555 1_555
C111 C114 1_555 1_555
C112 C113 1_555 1_555
C115 C120 1_555 1_555
C119 C120 1_555 1_555
C125 C127 1_555 1_555
C126 C129 1_555 1_555
C127 C128 1_555 1_555
C132 C137 1_555 1_555
C135 C136 1_555 1_555
C136 C137 1_555 1_555

#END
