
#######################################################################
#
#                 Cambridge Crystallographic Data Centre
#                                CCDC 
#
#######################################################################
#
# If this CIF has been generated from an entry in the Cambridge 
# Structural Database, then it will include bibliographic, chemical, 
# crystal, experimental, refinement or atomic coordinate data resulting 
# from the CCDC's data processing and validation procedures.
#
#######################################################################

data_CANDOM
_symmetry_cell_setting           monoclinic
_symmetry_space_group_name_H-M   'P 21/c'
_symmetry_Int_Tables_number      14
_space_group_name_Hall           '-P 2ybc'
loop_
_symmetry_equiv_pos_site_id
_symmetry_equiv_pos_as_xyz
1 x,y,z
2 -x,1/2+y,1/2-z
3 -x,-y,-z
4 x,1/2-y,1/2+z
_cell_length_a                   10.561(2)
_cell_length_b                   13.980(3)
_cell_length_c                   21.625(4)
_cell_angle_alpha                90
_cell_angle_beta                 95.61(3)
_cell_angle_gamma                90
_cell_volume                     3177.48
loop_
_atom_site_label
_atom_site_type_symbol
_atom_site_fract_x
_atom_site_fract_y
_atom_site_fract_z
Ce1 Ce 0.13808(4) 0.69386(3) 0.260709(18)
Ce2 Ce -0.06408(4) 0.93316(3) 0.190360(18)
C1 C 0.1356(9) 0.5448(6) 0.0880(4)
H1 H 0.0871 0.5899 0.1068
C2 C 0.1961(8) 0.4724(6) 0.1231(4)
C3 C 0.2704(9) 0.4052(7) 0.0956(4)
H2 H 0.3104 0.3566 0.1195
C4 C 0.1476(9) 0.5501(6) 0.0240(4)
C5 C -0.4509(9) 0.5682(7) 0.1257(5)
H3 H -0.5347 0.5694 0.1080
C6 C -0.3802(9) 0.6510(7) 0.1313(4)
H4 H -0.4177 0.7085 0.1179
C7 C 0.2351(8) 0.8153(6) 0.0628(4)
C8 C 0.3283(8) 0.7461(6) 0.0542(4)
H5 H 0.3564 0.7048 0.0863
C9 C 0.2850(10) 0.4111(7) 0.0315(4)
H6 H 0.3344 0.3662 0.0131
O1 O -0.2315(6) 0.8194(4) 0.1453(3)
O2 O 0.2046(6) 0.3902(4) 0.2227(3)
O3 O 0.1187(6) 0.5342(4) 0.2161(2)
O4 O 0.2049(6) 0.7545(5) 0.1644(3)
O5 O 0.3654(7) 0.6407(5) 0.2485(3)
C10 C 0.1761(8) 0.8194(6) 0.1239(4)
C11 C 0.1737(7) 0.4642(6) 0.1911(4)
O6 O 0.0061(7) 0.6835(5) 0.0117(3)
O7 O 0.1014(6) 0.8870(5) 0.1318(3)
O8 O 0.0924(7) 0.6283(5) -0.0729(3)
H7 H 0.0586 0.6761 -0.0890
C12 C 0.3338(9) 0.8008(6) -0.0529(4)
H8 H 0.3651 0.7952 -0.0915
C13 C -0.2674(8) 0.4804(6) 0.1730(3)
C14 C 0.1928(8) 0.8767(6) 0.0144(4)
H9 H 0.1316 0.9228 0.0204
C15 C 0.3789(9) 0.7399(7) -0.0040(4)
H10 H 0.4421 0.6954 -0.0098
C16 C 0.0746(9) 0.6267(6) -0.0123(4)
C17 C 0.2250(10) 0.4845(7) -0.0042(4)
H11 H 0.2362 0.4899 -0.0462
C18 C -0.3945(8) 0.4822(6) 0.1472(4)
H12 H -0.4417 0.4259 0.1443
C19 C -0.1798(9) 0.7418(6) 0.1663(3)
C20 C -0.1963(8) 0.5643(6) 0.1771(3)
H13 H -0.1114 0.5629 0.1933
C21 C -0.2523(8) 0.6507(6) 0.1569(4)
O10 O -0.0669(6) 0.7443(4) 0.1962(3)
C22 C -0.2134(9) 0.3871(6) 0.1955(3)
O11 O -0.1009(6) 0.3834(4) 0.2272(2)
O12 O -0.2770(6) 0.3122(4) 0.1845(3)
C23 C 0.2427(8) 0.8691(6) -0.0437(4)
C24 C 0.1908(9) 0.9334(6) -0.0963(4)
O13 O 0.2178(6) 0.9183(4) -0.1528(2)
O14 O 0.1196(7) 1.0016(5) -0.0847(2)
O15 O -0.0444(6) 0.5905(4) 0.3008(2)
C25 C -0.0733(8) 0.6518(6) 0.3421(4)
C26 C -0.1842(9) 0.6298(6) 0.3789(4)
C27 C -0.2829(8) 0.5706(6) 0.3520(4)
H14 H -0.2818 0.5493 0.3113
C28 C -0.1889(9) 0.6645(6) 0.4394(4)
H15 H -0.1251 0.7049 0.4567
C29 C -0.3831(8) 0.5437(6) 0.3870(4)
C30 C -0.4835(9) 0.4782(7) 0.3587(4)
C31 C -0.3860(9) 0.5766(7) 0.4480(4)
H16 H -0.4513 0.5579 0.4713
C32 C -0.2893(10) 0.6384(7) 0.4742(4)
H17 H -0.2921 0.6619 0.5143
O16 O -0.5523(7) 0.4338(5) 0.3984(3)
O17 O -0.5038(8) 0.4657(6) 0.3021(3)
O18 O -0.0033(6) 0.7250(4) 0.3519(3)
H20 H 0.388(10) 0.600(6) 0.273(4)
H21 H 0.414(8) 0.680(6) 0.263(5)
H22 H -0.538(10) 0.425(8) 0.4350(11)
Ce1A Ce -0.13808(4) 0.19386(3) 0.239291(18)
Ce1C Ce 0.13808(4) 0.80614(3) -0.239291(18)
Ce2A Ce 0.06408(4) 0.43316(3) 0.309640(18)
Ce2B Ce 0.06408(4) 1.06684(3) -0.190360(18)
O2A O -0.2046(6) 0.8902(4) 0.2773(3)
O3A O -0.1187(6) 1.0342(4) 0.2839(2)
O11A O 0.1009(6) 0.8834(4) 0.2728(2)
O12A O 0.2770(6) 0.8122(4) 0.3155(3)
O13C O 0.2178(6) 0.5817(4) 0.3472(2)
O13B O -0.2178(6) 1.0817(4) 0.1528(2)
O14B O -0.1196(7) 0.9984(5) 0.0847(2)
O15A O 0.0444(6) 1.0905(4) 0.1992(2)
O9 O 0.5518(9) 0.7806(7) 0.2634(6)
H18 H 0.532(11) 0.835(3) 0.255(5)
H19 H 0.621(4) 0.796(8) 0.256(5)
loop_
_geom_bond_atom_site_label_1
_geom_bond_atom_site_label_2
_geom_bond_site_symmetry_1
_geom_bond_site_symmetry_2
Ce1 O3 1_555 1_555
Ce2 O1 1_555 1_555
C1 H1 1_555 1_555
C2 C1 1_555 1_555
C3 C2 1_555 1_555
H2 C3 1_555 1_555
C4 C1 1_555 1_555
C5 H3 1_555 1_555
C6 C5 1_555 1_555
H4 C6 1_555 1_555
C7 C8 1_555 1_555
C8 H5 1_555 1_555
C9 C3 1_555 1_555
H6 C9 1_555 1_555
O1 C19 1_555 1_555
O2 C11 1_555 1_555
O3 C11 1_555 1_555
O4 Ce1 1_555 1_555
O5 Ce1 1_555 1_555
C10 C7 1_555 1_555
C11 C2 1_555 1_555
O6 C16 1_555 1_555
O7 Ce2 1_555 1_555
O8 H7 1_555 1_555
C12 H8 1_555 1_555
C13 C18 1_555 1_555
C14 C7 1_555 1_555
H9 C14 1_555 1_555
C15 C8 1_555 1_555
H10 C15 1_555 1_555
C16 C4 1_555 1_555
C17 C4 1_555 1_555
H11 C17 1_555 1_555
C18 C5 1_555 1_555
H12 C18 1_555 1_555
C19 C21 1_555 1_555
C20 C13 1_555 1_555
H13 C20 1_555 1_555
C21 C6 1_555 1_555
O9 H18 1_555 1_555
O10 Ce1 1_555 1_555
C22 C13 1_555 1_555
O11 C22 1_555 1_555
O12 C22 1_555 1_555
C23 C12 1_555 1_555
C24 C23 1_555 1_555
O13 C24 1_555 1_555
O14 C24 1_555 1_555
O15 Ce1 1_555 1_555
C25 O15 1_555 1_555
C26 C25 1_555 1_555
C27 C26 1_555 1_555
H14 C27 1_555 1_555
C28 C26 1_555 1_555
H15 C28 1_555 1_555
C29 C27 1_555 1_555
C30 C29 1_555 1_555
C31 C29 1_555 1_555
H16 C31 1_555 1_555
C32 C28 1_555 1_555
H17 C32 1_555 1_555
O16 C30 1_555 1_555
O17 C30 1_555 1_555
O18 Ce1 1_555 1_555
H19 O9 1_555 1_555
H20 O5 1_555 1_555
H21 O5 1_555 1_555
H22 O16 1_555 1_555
Ce1A O11 1_555 1_555
Ce1C O13 1_555 1_555
Ce2A O2 1_555 1_555
Ce2B O13 1_555 1_555
O2A Ce2 1_555 1_555
O3A Ce2 1_555 1_555
O11A Ce1 1_555 1_555
O12A Ce1 1_555 1_555
O13C Ce1 1_555 1_555
O13B Ce2 1_555 1_555
O14B Ce2 1_555 1_555
O15A Ce2 1_555 1_555
Ce2 O10 1_555 1_555
Ce2 O11A 1_555 1_555
C9 C17 1_555 1_555
O3 Ce2A 1_555 1_555
O4 C10 1_555 1_555
C10 O7 1_555 1_555
O8 C16 1_555 1_555
C12 C15 1_555 1_555
C14 C23 1_555 1_555
C19 O10 1_555 1_555
C20 C21 1_555 1_555
O11 Ce2A 1_555 1_555
O12 Ce1A 1_555 1_555
O14 Ce2B 1_555 1_555
O15 Ce2A 1_555 1_555
C25 O18 1_555 1_555
C31 C32 1_555 1_555
Ce2A O13C 1_555 1_555

#END
