
#######################################################################
#
#                 Cambridge Crystallographic Data Centre
#                                CCDC 
#
#######################################################################
#
# If this CIF has been generated from an entry in the Cambridge 
# Structural Database, then it will include bibliographic, chemical, 
# crystal, experimental, refinement or atomic coordinate data resulting 
# from the CCDC's data processing and validation procedures.
#
#######################################################################

data_CANFON
_symmetry_cell_setting           hexagonal
_symmetry_space_group_name_H-M   'P 61 2 2'
_symmetry_Int_Tables_number      178
_space_group_name_Hall           "P 61 2' (0,0,5)"
loop_
_symmetry_equiv_pos_site_id
_symmetry_equiv_pos_as_xyz
1 x,y,z
2 -y,x-y,1/3+z
3 -x+y,-x,2/3+z
4 -x,-y,1/2+z
5 y,-x+y,5/6+z
6 x-y,x,1/6+z
7 y,x,1/3-z
8 x-y,-y,-z
9 -x,-x+y,2/3-z
10 -y,-x,5/6-z
11 -x+y,y,1/2-z
12 x,x-y,1/6-z
_cell_length_a                   10.5488(5)
_cell_length_b                   10.5488(5)
_cell_length_c                   68.256(4)
_cell_angle_alpha                90
_cell_angle_beta                 90
_cell_angle_gamma                120
_cell_volume                     6577.75
loop_
_atom_site_label
_atom_site_type_symbol
_atom_site_fract_x
_atom_site_fract_y
_atom_site_fract_z
Cd1 Cd 0.52181(6) 0.0000 0.0000
Cl1 Cl 0.6687(2) 0.3645(2) 0.01819(2)
O1 O 0.6488(6) 0.2185(6) 0.01891(7)
C1 C 0.1120(8) -0.1779(8) 0.09639(9)
N1 N 0.3363(6) -0.0568(6) 0.02228(7)
C2 C 0.1684(8) -0.2140(7) 0.04641(8)
H1 H 0.1323 -0.2992 0.0538
C3 C -0.0039(7) -0.2237(7) 0.08287(8)
N2 N -0.2413(6) -0.3624(7) 0.07200(8)
H2 H -0.3349 -0.4147 0.0730
C4 C 0.1130(7) -0.1191(7) 0.04937(8)
C5 C 0.2762(8) -0.1818(8) 0.03261(8)
H3 H 0.3080 -0.2485 0.0304
C6 C 0.1748(7) 0.0083(8) 0.03804(8)
H4 H 0.1419 0.0749 0.0392
C7 C -0.0076(7) -0.1548(7) 0.06339(7)
H5 H -0.0136 -0.0666 0.0659
C8 C 0.2859(8) 0.0335(8) 0.02510(8)
H6 H 0.3278 0.1199 0.0179
C9 C -0.1373(8) -0.3409(8) 0.08638(8)
C10 C -0.1560(7) -0.2755(7) 0.05451(9)
H7 H -0.1367 -0.3389 0.0460
C11 C 0.2503(8) -0.0530(9) 0.09367(10)
H8 H 0.2709 0.0024 0.0823
O2 O 0.6506(7) 0.4016(7) 0.03767(7)
C12 C -0.0551(10) -0.3885(10) 0.11621(10)
H9 H -0.0718 -0.4466 0.1272
O3 O 0.5591(7) 0.3640(7) 0.00548(7)
C13 C 0.3563(9) -0.0131(12) 0.10822(11)
H10 H 0.4473 0.0704 0.1066
C14 C 0.0824(9) -0.2650(10) 0.11361(10)
C15 C 0.3274(12) -0.0982(14) 0.12560(13)
H11 H 0.3991 -0.0709 0.1352
O4 O 0.8114(7) 0.4656(7) 0.01152(8)
C16 C 0.1938(11) -0.2199(12) 0.12803(11)
H12 H 0.1750 -0.2749 0.1394
C17 C -0.1661(9) -0.4268(10) 0.10302(10)
H13 H -0.2582 -0.5079 0.1051
C18 C -0.2347(7) -0.2152(7) 0.04273(8)
C19 C -0.2925(8) -0.1363(9) 0.05084(9)
H14 H -0.2864 -0.1201 0.0643
C20 C -0.2452(8) -0.2334(8) 0.02249(8)
H15 H -0.2053 -0.2840 0.0163
C21 C -0.3138(9) -0.1768(8) 0.01184(8)
H16 H -0.3215 -0.1922 -0.0016
C22 C -0.3590(8) -0.0814(9) 0.03922(9)
H17 H -0.3979 -0.0286 0.0450
N3 N -0.3705(6) -0.1008(6) 0.01960(7)
Cd1_2 Cd -0.47819(6) 0.0000 0.0000
Cl1G Cl 0.3042(3) -0.3645(2) -0.01819(2)
O1G O 0.4303(8) -0.2185(6) -0.01891(7)
C1G C 0.2899(11) 0.1779(8) -0.09639(9)
N1G N 0.3931(8) 0.0568(6) -0.02228(7)
C2G C 0.3824(11) 0.2140(7) -0.04641(8)
H1G H 0.4315 0.2992 -0.0538
C3G C 0.2198(10) 0.2237(7) -0.08287(8)
N2G N 0.1211(9) 0.3624(7) -0.07200(8)
H2G H 0.0798 0.4147 -0.0730
C4G C 0.2321(10) 0.1191(7) -0.04937(8)
C5G C 0.4580(11) 0.1818(8) -0.03261(8)
H3G H 0.5565 0.2485 -0.0304
C6G C 0.1665(11) -0.0083(8) -0.03804(8)
H4G H 0.0670 -0.0749 -0.0392
C7G C 0.1472(10) 0.1548(7) -0.06339(7)
H5G H 0.0530 0.0666 -0.0659
C8G C 0.2524(11) -0.0335(8) -0.02510(8)
H6G H 0.2079 -0.1199 -0.0179
C9G C 0.2036(11) 0.3409(8) -0.08638(8)
C10G C 0.1195(10) 0.2755(7) -0.05451(9)
H7G H 0.2022 0.3389 -0.0460
C11G C 0.3033(12) 0.0530(9) -0.09367(10)
H8G H 0.2685 -0.0024 -0.0823
O2G O 0.2490(10) -0.4016(7) -0.03767(7)
C12G C 0.3334(14) 0.3885(10) -0.11621(10)
H9G H 0.3748 0.4466 -0.1272
O3G O 0.1951(10) -0.3640(7) -0.00548(7)
C13G C 0.3694(15) 0.0131(12) -0.10822(11)
H10G H 0.3769 -0.0704 -0.1066
C14G C 0.3474(13) 0.2650(10) -0.11361(10)
C15G C 0.4256(18) 0.0982(14) -0.12560(13)
H11G H 0.4700 0.0709 -0.1352
O4G O 0.3458(10) -0.4656(7) -0.01152(8)
C16G C 0.4137(16) 0.2199(12) -0.12803(11)
H12G H 0.4499 0.2749 -0.1394
C17G C 0.2607(13) 0.4268(10) -0.10302(10)
H13G H 0.2497 0.5079 -0.1051
C18G C -0.0195(10) 0.2152(7) -0.04273(8)
C19G C -0.1562(12) 0.1363(9) -0.05084(9)
H14G H -0.1663 0.1201 -0.0643
C20G C -0.0118(11) 0.2334(8) -0.02249(8)
H15G H 0.0787 0.2840 -0.0163
C21G C -0.1370(12) 0.1768(8) -0.01184(8)
H16G H -0.1293 0.1922 0.0016
C22G C -0.2776(12) 0.0814(9) -0.03922(9)
H17G H -0.3693 0.0286 -0.0450
N3_2 N 0.6295(6) -0.1008(6) 0.01960(7)
N3G N -0.2697(8) 0.1008(6) -0.01960(7)
N3G_2 N 0.7303(8) 0.1008(6) -0.01960(7)
loop_
_geom_bond_atom_site_label_1
_geom_bond_atom_site_label_2
_geom_bond_site_symmetry_1
_geom_bond_site_symmetry_2
Cd1 O1 1_555 1_555
Cl1 O1 1_555 1_555
C1 C3 1_555 1_555
N1 Cd1 1_555 1_555
C2 H1 1_555 1_555
C3 C7 1_555 1_555
N2 H2 1_555 1_555
C4 C2 1_555 1_555
C5 N1 1_555 1_555
H3 C5 1_555 1_555
C6 C4 1_555 1_555
H4 C6 1_555 1_555
C7 C4 1_555 1_555
H5 C7 1_555 1_555
C8 N1 1_555 1_555
H6 C8 1_555 1_555
C9 C3 1_555 1_555
C10 N2 1_555 1_555
H7 C10 1_555 1_555
C11 C1 1_555 1_555
H8 C11 1_555 1_555
O2 Cl1 1_555 1_555
C12 H9 1_555 1_555
O3 Cl1 1_555 1_555
C13 C11 1_555 1_555
H10 C13 1_555 1_555
C14 C1 1_555 1_555
C15 C13 1_555 1_555
H11 C15 1_555 1_555
O4 Cl1 1_555 1_555
C16 C14 1_555 1_555
H12 C16 1_555 1_555
C17 C9 1_555 1_555
H13 C17 1_555 1_555
C18 C10 1_555 1_555
C19 C18 1_555 1_555
H14 C19 1_555 1_555
C20 C18 1_555 1_555
H15 C20 1_555 1_555
C21 C20 1_555 1_555
H16 C21 1_555 1_555
C22 C19 1_555 1_555
H17 C22 1_555 1_555
N3 C21 1_555 1_555
Cd1_2 N3 1_555 1_555
Cl1G O1G 1_555 1_555
O1G Cd1 1_555 1_555
C1G C3G 1_555 1_555
N1G Cd1 1_555 1_555
C2G H1G 1_555 1_555
C3G C7G 1_555 1_555
N2G H2G 1_555 1_555
C4G C2G 1_555 1_555
C5G N1G 1_555 1_555
H3G C5G 1_555 1_555
C6G C4G 1_555 1_555
H4G C6G 1_555 1_555
C7G C4G 1_555 1_555
H5G C7G 1_555 1_555
C8G N1G 1_555 1_555
H6G C8G 1_555 1_555
C9G C3G 1_555 1_555
C10G N2G 1_555 1_555
H7G C10G 1_555 1_555
C11G C1G 1_555 1_555
H8G C11G 1_555 1_555
O2G Cl1G 1_555 1_555
C12G H9G 1_555 1_555
O3G Cl1G 1_555 1_555
C13G C11G 1_555 1_555
H10G C13G 1_555 1_555
C14G C1G 1_555 1_555
C15G C13G 1_555 1_555
H11G C15G 1_555 1_555
O4G Cl1G 1_555 1_555
C16G C14G 1_555 1_555
H12G C16G 1_555 1_555
C17G C9G 1_555 1_555
H13G C17G 1_555 1_555
C18G C10G 1_555 1_555
C19G C18G 1_555 1_555
H14G C19G 1_555 1_555
C20G C18G 1_555 1_555
H15G C20G 1_555 1_555
C21G C20G 1_555 1_555
H16G C21G 1_555 1_555
C22G C19G 1_555 1_555
H17G C22G 1_555 1_555
N3_2 Cd1 1_555 1_555
N3G Cd1_2 1_555 1_555
N3G_2 Cd1 1_555 1_555
C2 C5 1_555 1_555
N2 C9 1_555 1_555
C6 C8 1_555 1_555
C7 C10 1_555 1_555
C12 C14 1_555 1_555
C12 C17 1_555 1_555
C15 C16 1_555 1_555
C22 N3 1_555 1_555
C2G C5G 1_555 1_555
N2G C9G 1_555 1_555
C6G C8G 1_555 1_555
C7G C10G 1_555 1_555
C12G C14G 1_555 1_555
C12G C17G 1_555 1_555
C15G C16G 1_555 1_555
C21G N3G 1_555 1_555
C22G N3G 1_555 1_555

#END
