
#######################################################################
#
#                 Cambridge Crystallographic Data Centre
#                                CCDC 
#
#######################################################################
#
# If this CIF has been generated from an entry in the Cambridge 
# Structural Database, then it will include bibliographic, chemical, 
# crystal, experimental, refinement or atomic coordinate data resulting 
# from the CCDC's data processing and validation procedures.
#
#######################################################################

data_CANHAC
_symmetry_cell_setting           monoclinic
_symmetry_space_group_name_H-M   'P 21/c'
_symmetry_Int_Tables_number      14
_space_group_name_Hall           '-P 2ybc'
loop_
_symmetry_equiv_pos_site_id
_symmetry_equiv_pos_as_xyz
1 x,y,z
2 -x,1/2+y,1/2-z
3 -x,-y,-z
4 x,1/2-y,1/2+z
_cell_length_a                   7.003(5)
_cell_length_b                   18.111(5)
_cell_length_c                   16.566(5)
_cell_angle_alpha                90
_cell_angle_beta                 92.295(5)
_cell_angle_gamma                90
_cell_volume                     2099.4
loop_
_atom_site_label
_atom_site_type_symbol
_atom_site_fract_x
_atom_site_fract_y
_atom_site_fract_z
C1 C -0.4244(5) 0.07159(19) 0.7191(2)
H1 H -0.3959 0.0505 0.6698
C2 C -0.5829(5) 0.05116(19) 0.7599(2)
H2 H -0.6639 0.0152 0.7376
C3 C -0.6263(5) 0.0830(2) 0.8343(2)
H3 H -0.7357 0.0681 0.8599
C4 C -0.5095(5) 0.13588(19) 0.8700(2)
H4 H -0.5371 0.1565 0.9196
C5 C -0.3486(4) 0.15736(18) 0.82922(18)
C6 C -0.3092(5) 0.12530(18) 0.75540(18)
C7 C -0.0896(4) 0.20952(19) 0.78899(18)
C8 C 0.0836(5) 0.2571(2) 0.78473(19)
H5 H 0.1646 0.2489 0.8328
H6 H 0.0443 0.3085 0.7847
C9 C 0.1998(5) 0.24306(19) 0.71077(18)
H7 H 0.1198 0.2523 0.6627
H8 H 0.2369 0.1915 0.7101
C10 C 0.3787(4) 0.29051(19) 0.70747(18)
H9 H 0.4603 0.2820 0.7553
H10 H 0.3437 0.3423 0.7060
C11 C 0.4856(5) 0.27060(18) 0.6318(2)
H11 H 0.5190 0.2187 0.6348
H12 H 0.3986 0.2769 0.5852
C12 C 0.6636(5) 0.31354(18) 0.61728(19)
C13 C 0.9118(5) 0.35888(18) 0.56122(19)
C14 C 1.0608(5) 0.3761(2) 0.5115(2)
H13 H 1.0740 0.3524 0.4623
C15 C 1.1881(5) 0.4296(2) 0.5378(2)
H14 H 1.2884 0.4424 0.5054
C16 C 1.1704(5) 0.4653(2) 0.6119(2)
H15 H 1.2589 0.5014 0.6276
C17 C 1.0256(5) 0.44836(19) 0.6619(2)
H16 H 1.0144 0.4716 0.7116
C18 C 0.8967(5) 0.39482(18) 0.63483(19)
C19 C 0.4157(5) 0.39257(19) 0.9744(2)
C20 C 0.2663(4) 0.41414(19) 1.03351(19)
H17 H 0.3192 0.4084 1.0882
H18 H 0.2337 0.4658 1.0257
C21 C 0.0869(4) 0.36806(19) 1.02349(19)
N1 N -0.1434(4) 0.15918(17) 0.73270(18)
N2 N -0.2093(4) 0.20984(15) 0.84922(14)
N3 N 0.7365(4) 0.36460(18) 0.66841(19)
N4 N 0.7644(4) 0.30724(15) 0.55156(15)
O1 O 0.5254(4) 0.34161(15) 0.99704(15)
O2 O 0.4199(4) 0.42548(14) 0.90861(15)
O4 O -0.0466(3) 0.38016(14) 1.07003(14)
O5 O 0.0784(3) 0.32096(13) 0.96868(14)
O6 O -0.2566(4) 0.38271(14) 0.84536(15)
Cd1 Cd -0.22364(3) 0.286271(13) 0.956007(14)
H21 H -0.102(5) 0.1547(18) 0.6942(18)
H22 H 0.723(6) 0.370(2) 0.710(2)
H23 H -0.354(3) 0.3990(19) 0.864(2)
H24 H -0.170(4) 0.4120(18) 0.850(3)
N4C N -0.2356(4) 0.19276(15) 1.05156(15)
O1_2 O -0.4746(4) 0.34161(15) 0.99704(15)
Cd1C Cd 0.77636(3) 0.213729(13) 0.456007(14)
Cd1_2 Cd 0.77636(3) 0.286271(13) 0.956007(14)
O3 O 0.0449(4) 0.47811(17) 0.86321(18)
H19 H 0.037(5) 0.5177(14) 0.887(2)
H20 H 0.155(3) 0.463(2) 0.866(3)
loop_
_geom_bond_atom_site_label_1
_geom_bond_atom_site_label_2
_geom_bond_site_symmetry_1
_geom_bond_site_symmetry_2
C1 H1 1_555 1_555
C2 C1 1_555 1_555
H2 C2 1_555 1_555
C3 C2 1_555 1_555
H3 C3 1_555 1_555
C4 C3 1_555 1_555
H4 C4 1_555 1_555
C5 C4 1_555 1_555
C6 C1 1_555 1_555
C7 C8 1_555 1_555
C8 H5 1_555 1_555
H6 C8 1_555 1_555
C9 C8 1_555 1_555
H7 C9 1_555 1_555
H8 C9 1_555 1_555
C10 C9 1_555 1_555
H9 C10 1_555 1_555
H10 C10 1_555 1_555
C11 C10 1_555 1_555
H11 C11 1_555 1_555
H12 C11 1_555 1_555
C12 C11 1_555 1_555
C13 C14 1_555 1_555
C14 H13 1_555 1_555
C15 C14 1_555 1_555
H14 C15 1_555 1_555
C16 C15 1_555 1_555
H15 C16 1_555 1_555
C17 C16 1_555 1_555
H16 C17 1_555 1_555
C18 C13 1_555 1_555
C19 C20 1_555 1_555
C20 H17 1_555 1_555
H18 C20 1_555 1_555
C21 C20 1_555 1_555
N1 C6 1_555 1_555
N2 C5 1_555 1_555
N3 C12 1_555 1_555
N4 C12 1_555 1_555
O1 C19 1_555 1_555
O2 C19 1_555 1_555
O3 H19 1_555 1_555
O4 C21 1_555 1_555
O5 C21 1_555 1_555
O6 Cd1 1_555 1_555
Cd1 N2 1_555 1_555
H20 O3 1_555 1_555
H21 N1 1_555 1_555
H22 N3 1_555 1_555
H23 O6 1_555 1_555
H24 O6 1_555 1_555
N4C Cd1 1_555 1_555
O1_2 Cd1 1_555 1_555
Cd1C N4 1_555 1_555
Cd1_2 O1 1_555 1_555
C5 C6 1_555 1_555
C7 N1 1_555 1_555
C7 N2 1_555 1_555
C13 N4 1_555 1_555
C17 C18 1_555 1_555
C18 N3 1_555 1_555
O5 Cd1 1_555 1_555

#END
