
#######################################################################
#
#                 Cambridge Crystallographic Data Centre
#                                CCDC 
#
#######################################################################
#
# If this CIF has been generated from an entry in the Cambridge 
# Structural Database, then it will include bibliographic, chemical, 
# crystal, experimental, refinement or atomic coordinate data resulting 
# from the CCDC's data processing and validation procedures.
#
#######################################################################

data_CANYIA01
_symmetry_cell_setting           triclinic
_symmetry_space_group_name_H-M   'P -1'
_symmetry_Int_Tables_number      2
_space_group_name_Hall           '-P 1'
loop_
_symmetry_equiv_pos_site_id
_symmetry_equiv_pos_as_xyz
1 x,y,z
2 -x,-y,-z
_cell_length_a                   9.5058(6)
_cell_length_b                   9.9341(7)
_cell_length_c                   12.6460(8)
_cell_angle_alpha                70.5080(10)
_cell_angle_beta                 73.5740(10)
_cell_angle_gamma                75.0720(10)
_cell_volume                     1062.05
loop_
_atom_site_label
_atom_site_type_symbol
_atom_site_fract_x
_atom_site_fract_y
_atom_site_fract_z
Cu1 Cu 0.207091(18) 0.339312(17) 0.166689(14)
O1 O 0.32888(12) 0.16822(12) 0.00779(9)
O2 O 0.10628(11) 0.28065(11) 0.08118(9)
O3 O -0.03982(12) 0.14196(11) 0.36014(9)
O4 O 0.20109(12) 0.15511(11) 0.28623(10)
O5 O -0.00237(12) -0.50561(11) 0.23215(9)
C1 C -0.00530(16) -0.14443(15) 0.35444(12)
H1 H -0.0520 -0.1573 0.4351
H2 H -0.0775 -0.0816 0.3100
O6 O -0.10608(15) -0.61764(12) 0.41179(10)
N1 N 0.25601(13) 0.51476(13) 0.03724(10)
N2 N 0.33109(13) 0.40606(13) 0.23608(10)
C2 C 0.19110(16) 0.20535(15) 0.01569(12)
C3 C 0.09192(17) 0.08685(15) 0.32442(12)
C4 C 0.37612(15) 0.53319(15) 0.17268(12)
C5 C 0.33311(16) 0.76575(16) -0.12623(13)
H3 H 0.3604 0.8491 -0.1817
C6 C 0.45182(17) 0.60034(16) 0.21358(13)
H4 H 0.4811 0.6882 0.1692
C7 C 0.04382(16) 0.02515(15) 0.02947(12)
H5 H 0.1222 -0.0539 0.0549
H6 H -0.0220 0.0505 0.0968
C8 C 0.37714(16) 0.71917(16) -0.02147(13)
H7 H 0.4329 0.7717 -0.0057
C9 C 0.33646(15) 0.59334(15) 0.05860(12)
C10 C 0.11332(16) 0.15657(16) -0.05045(12)
H8 H 0.1844 0.1305 -0.1157
H9 H 0.0363 0.2349 -0.0790
C11 C 0.21206(16) 0.56165(16) -0.06270(12)
H10 H 0.1550 0.5084 -0.0763
C12 C 0.12933(16) -0.07152(15) 0.32518(13)
H11 H 0.1913 -0.1250 0.3804
H12 H 0.1877 -0.0783 0.2500
C13 C 0.36395(16) 0.34135(16) 0.34005(12)
H13 H 0.3346 0.2529 0.3827
C14 C 0.44040(17) 0.40246(17) 0.38581(13)
H14 H 0.4623 0.3557 0.4579
C15 C 0.24852(17) 0.68667(17) -0.14658(13)
H15 H 0.2166 0.7167 -0.2153
C16 C 0.48331(18) 0.53419(18) 0.32213(14)
H16 H 0.5328 0.5781 0.3516
C17 C 0.03735(16) -0.29168(15) 0.32976(12)
H17 H 0.1157 -0.3520 0.3691
H18 H 0.0758 -0.2782 0.2479
C18 C -0.06340(16) -0.50394(15) 0.33085(13)
C19 C -0.09682(16) -0.36850(15) 0.36943(13)
H19 H -0.1261 -0.3942 0.4526
H20 H -0.1800 -0.3023 0.3390
H21 H -0.082(3) -0.686(3) 0.389(3)
Cu1A Cu -0.207091(18) -0.339312(17) -0.166689(14)
Cu1_2 Cu 0.207091(18) -0.660688(17) 0.166689(14)
Cu1A_2 Cu -0.207091(18) 0.660688(17) -0.166689(14)
O1A O -0.32888(12) -0.16822(12) -0.00779(9)
O2A O -0.10628(11) -0.28065(11) -0.08118(9)
O3A O 0.03982(12) -0.14196(11) -0.36014(9)
O4A O -0.20109(12) -0.15511(11) -0.28623(10)
O5A O 0.00237(12) 0.50561(11) -0.23215(9)
O5_2 O -0.00237(12) 0.49439(11) 0.23215(9)
O5A_2 O 0.00237(12) -0.49439(11) -0.23215(9)
C1A C 0.00530(16) 0.14443(15) -0.35444(12)
H1A H 0.0520 0.1573 -0.4351
H2A H 0.0775 0.0816 -0.3100
O6A O 0.10608(15) 0.61764(12) -0.41179(10)
N1A N -0.25601(13) -0.51476(13) -0.03724(10)
N2A N -0.33109(13) -0.40606(13) -0.23608(10)
C2A C -0.19110(16) -0.20535(15) -0.01569(12)
C3A C -0.09192(17) -0.08685(15) -0.32442(12)
C4A C -0.37612(15) -0.53319(15) -0.17268(12)
C5A C -0.33311(16) -0.76575(16) 0.12623(13)
H3A H -0.3604 -0.8491 0.1817
C6A C -0.45182(17) -0.60034(16) -0.21358(13)
H4A H -0.4811 -0.6882 -0.1692
C7A C -0.04382(16) -0.02515(15) -0.02947(12)
H5A H -0.1222 0.0539 -0.0549
H6A H 0.0220 -0.0505 -0.0968
C8A C -0.37714(16) -0.71917(16) 0.02147(13)
H7A H -0.4329 -0.7717 0.0057
C9A C -0.33646(15) -0.59334(15) -0.05860(12)
C10A C -0.11332(16) -0.15657(16) 0.05045(12)
H8A H -0.1844 -0.1305 0.1157
H9A H -0.0363 -0.2349 0.0790
C11A C -0.21206(16) -0.56165(16) 0.06270(12)
H10A H -0.1550 -0.5084 0.0763
C12A C -0.12933(16) 0.07152(15) -0.32518(13)
H11A H -0.1913 0.1250 -0.3804
H12A H -0.1877 0.0783 -0.2500
C13A C -0.36395(16) -0.34135(16) -0.34005(12)
H13A H -0.3346 -0.2529 -0.3827
C14A C -0.44040(17) -0.40246(17) -0.38581(13)
H14A H -0.4623 -0.3557 -0.4579
C15A C -0.24852(17) -0.68667(17) 0.14658(13)
H15A H -0.2166 -0.7167 0.2153
C16A C -0.48331(18) -0.53419(18) -0.32213(14)
H16A H -0.5328 -0.5781 -0.3516
C17A C -0.03735(16) 0.29168(15) -0.32976(12)
H17A H -0.1157 0.3520 -0.3691
H18A H -0.0758 0.2782 -0.2479
C18A C 0.06340(16) 0.50394(15) -0.33085(13)
C19A C 0.09682(16) 0.36850(15) -0.36943(13)
H19A H 0.1261 0.3942 -0.4526
H20A H 0.1800 0.3023 -0.3390
H21A H 0.082(3) 0.686(3) -0.389(3)
O7 O 0.49952(15) 0.95461(14) 0.16338(11)
H22 H 0.444(3) 1.012(3) 0.140(2)
H23 H 0.553(3) 0.923(3) 0.108(2)
O8 O 0.45352(17) 0.12797(17) 0.61680(12)
H24 H 0.468(3) 0.098(3) 0.682(3)
H25 H 0.421(4) 0.081(4) 0.614(3)
O9 O 0.66894(18) 0.06790(17) 0.42845(15)
H26 H 0.749(3) 0.071(3) 0.422(2)
H27 H 0.628(3) 0.076(3) 0.483(3)
loop_
_geom_bond_atom_site_label_1
_geom_bond_atom_site_label_2
_geom_bond_site_symmetry_1
_geom_bond_site_symmetry_2
Cu1 O2 1_555 1_555
O1 C2 1_555 1_555
O2 C2 1_555 1_555
O3 C3 1_555 1_555
O4 Cu1 1_555 1_555
O5 C18 1_555 1_555
C1 H1 1_555 1_555
H2 C1 1_555 1_555
O6 C18 1_555 1_555
N1 Cu1 1_555 1_555
N2 Cu1 1_555 1_555
C2 C10 1_555 1_555
C3 O4 1_555 1_555
C4 N2 1_555 1_555
C5 H3 1_555 1_555
C6 C4 1_555 1_555
H4 C6 1_555 1_555
C7 H5 1_555 1_555
H6 C7 1_555 1_555
C8 C5 1_555 1_555
H7 C8 1_555 1_555
C9 N1 1_555 1_555
C10 C7 1_555 1_555
H8 C10 1_555 1_555
H9 C10 1_555 1_555
C11 N1 1_555 1_555
H10 C11 1_555 1_555
C12 C1 1_555 1_555
H11 C12 1_555 1_555
H12 C12 1_555 1_555
C13 N2 1_555 1_555
H13 C13 1_555 1_555
C14 C13 1_555 1_555
H14 C14 1_555 1_555
C15 C5 1_555 1_555
H15 C15 1_555 1_555
C16 C6 1_555 1_555
H16 C16 1_555 1_555
C17 C1 1_555 1_555
H17 C17 1_555 1_555
H18 C17 1_555 1_555
C18 C19 1_555 1_555
C19 C17 1_555 1_555
H19 C19 1_555 1_555
H20 C19 1_555 1_555
H21 O6 1_555 1_555
O7 H22 1_555 1_555
H23 O7 1_555 1_555
O8 H24 1_555 1_555
H25 O8 1_555 1_555
O9 H26 1_555 1_555
H27 O9 1_555 1_555
Cu1A O2A 1_555 1_555
Cu1_2 O5 1_555 1_555
Cu1A_2 O5A 1_555 1_555
O1A C2A 1_555 1_555
O2A C2A 1_555 1_555
O3A C3A 1_555 1_555
O4A Cu1A 1_555 1_555
O5A C18A 1_555 1_555
O5_2 Cu1 1_555 1_555
O5A_2 Cu1A 1_555 1_555
C1A H1A 1_555 1_555
H2A C1A 1_555 1_555
O6A C18A 1_555 1_555
N1A Cu1A 1_555 1_555
N2A Cu1A 1_555 1_555
C2A C10A 1_555 1_555
C3A O4A 1_555 1_555
C4A N2A 1_555 1_555
C5A H3A 1_555 1_555
C6A C4A 1_555 1_555
H4A C6A 1_555 1_555
C7A C7 1_555 1_555
H5A C7A 1_555 1_555
H6A C7A 1_555 1_555
C8A C5A 1_555 1_555
H7A C8A 1_555 1_555
C9A N1A 1_555 1_555
C10A C7A 1_555 1_555
H8A C10A 1_555 1_555
H9A C10A 1_555 1_555
C11A N1A 1_555 1_555
H10A C11A 1_555 1_555
C12A C1A 1_555 1_555
H11A C12A 1_555 1_555
H12A C12A 1_555 1_555
C13A N2A 1_555 1_555
H13A C13A 1_555 1_555
C14A C13A 1_555 1_555
H14A C14A 1_555 1_555
C15A C5A 1_555 1_555
H15A C15A 1_555 1_555
C16A C6A 1_555 1_555
H16A C16A 1_555 1_555
C17A C1A 1_555 1_555
H17A C17A 1_555 1_555
H18A C17A 1_555 1_555
C18A C19A 1_555 1_555
C19A C17A 1_555 1_555
H19A C19A 1_555 1_555
H20A C19A 1_555 1_555
H21A O6A 1_555 1_555
C3 C12 1_555 1_555
C4 C9 1_555 1_555
C8 C9 1_555 1_555
C11 C15 1_555 1_555
C14 C16 1_555 1_555
C3A C12A 1_555 1_555
C4A C9A 1_555 1_555
C8A C9A 1_555 1_555
C11A C15A 1_555 1_555
C14A C16A 1_555 1_555

#END
