
#######################################################################
#
#                 Cambridge Crystallographic Data Centre
#                                CCDC 
#
#######################################################################
#
# If this CIF has been generated from an entry in the Cambridge 
# Structural Database, then it will include bibliographic, chemical, 
# crystal, experimental, refinement or atomic coordinate data resulting 
# from the CCDC's data processing and validation procedures.
#
#######################################################################

data_CANYIA02
_symmetry_cell_setting           triclinic
_symmetry_space_group_name_H-M   'P -1'
_symmetry_Int_Tables_number      2
_space_group_name_Hall           '-P 1'
loop_
_symmetry_equiv_pos_site_id
_symmetry_equiv_pos_as_xyz
1 x,y,z
2 -x,-y,-z
_cell_length_a                   9.509(3)
_cell_length_b                   9.912(3)
_cell_length_c                   12.656(4)
_cell_angle_alpha                70.486(5)
_cell_angle_beta                 73.604(5)
_cell_angle_gamma                75.162(5)
_cell_volume                     1061.22
loop_
_atom_site_label
_atom_site_type_symbol
_atom_site_fract_x
_atom_site_fract_y
_atom_site_fract_z
Cu1 Cu 0.20714(3) 0.33925(3) 0.66661(3)
O1 O -0.0399(2) 0.1418(2) 0.86026(17)
O2 O 0.3283(2) 0.1681(2) 0.50818(17)
O3 O -0.0028(2) -0.5058(2) 0.73240(17)
O4 O 0.2012(2) 0.1549(2) 0.78608(17)
O5 O 0.1060(2) 0.2807(2) 0.58140(16)
O6 O -0.1055(2) -0.6182(2) 0.91158(17)
N1 N 0.2558(2) 0.5148(2) 0.53735(19)
C1 C -0.0969(3) -0.3686(3) 0.8694(2)
H1 H -0.1265 -0.3944 0.9525
H2 H -0.1797 -0.3023 0.8387
N2 N 0.3311(2) 0.4063(2) 0.73585(19)
C2 C 0.1908(3) 0.2051(3) 0.5159(2)
C3 C -0.0636(3) -0.5036(3) 0.8311(2)
C4 C 0.3760(3) 0.5336(3) 0.6726(2)
C5 C 0.2124(3) 0.5619(3) 0.4369(2)
H3 H 0.1558 0.5082 0.4232
C6 C -0.0045(3) -0.1445(3) 0.8541(2)
H4 H -0.0513 -0.1571 0.9347
H5 H -0.0766 -0.0816 0.8096
C7 C 0.3770(3) 0.7193(3) 0.4784(2)
H6 H 0.4328 0.7719 0.4942
C8 C 0.3330(3) 0.7661(3) 0.3739(2)
H7 H 0.3601 0.8499 0.3187
C9 C 0.0372(3) -0.2918(3) 0.8301(2)
H8 H 0.1151 -0.3524 0.8697
H9 H 0.0761 -0.2786 0.7484
C10 C 0.0438(3) 0.0252(3) 0.5295(2)
H10 H 0.1221 -0.0540 0.5548
H11 H -0.0220 0.0503 0.5968
C11 C 0.1130(3) 0.1569(3) 0.4498(2)
H12 H 0.1838 0.1311 0.3845
H13 H 0.0360 0.2355 0.4216
C12 C 0.3362(3) 0.5934(3) 0.5582(2)
C13 C 0.2485(3) 0.6866(3) 0.3532(2)
H14 H 0.2168 0.7166 0.2845
C14 C 0.4516(3) 0.6000(3) 0.7140(2)
H15 H 0.4813 0.6881 0.6698
C15 C 0.3646(3) 0.3419(3) 0.8398(2)
H16 H 0.3357 0.2531 0.8825
C16 C 0.4829(3) 0.5339(3) 0.8224(3)
H17 H 0.5323 0.5780 0.8520
C17 C 0.4401(3) 0.4026(3) 0.8855(3)
H18 H 0.4617 0.3556 0.9576
C18 C 0.0917(3) 0.0864(3) 0.8246(2)
C19 C 0.1296(3) -0.0712(3) 0.8248(2)
H19 H 0.1918 -0.1248 0.8798
H20 H 0.1876 -0.0775 0.7496
Cu1_2 Cu 0.20714(3) 1.33925(3) 0.66661(3)
Cu1_3 Cu 0.20714(3) -0.66075(3) 0.66661(3)
Cu1A Cu -0.20714(3) -0.33925(3) 0.33339(3)
O1_2 O -0.0399(2) 1.1418(2) 0.86026(17)
O2A O -0.3283(2) -0.1681(2) 0.49182(17)
O3_2 O -0.0028(2) 0.4942(2) 0.73240(17)
O3_3 O -0.0028(2) 1.4942(2) 0.73240(17)
O4_2 O 0.2012(2) 1.1549(2) 0.78608(17)
O5A O -0.1060(2) -0.2807(2) 0.41860(16)
O5_2 O 0.1060(2) 1.2807(2) 0.58140(16)
O6_2 O -0.1055(2) 0.3818(2) 0.91158(17)
N1_2 N 0.2558(2) 1.5148(2) 0.53735(19)
C1_2 C -0.0969(3) 0.6314(3) 0.8694(2)
H1_2 H -0.1265 0.6056 0.9525
H2_2 H -0.1797 0.6977 0.8387
N2_2 N 0.3311(2) 1.4063(2) 0.73585(19)
C2A C -0.1908(3) -0.2051(3) 0.4841(2)
C3_2 C -0.0636(3) 0.4964(3) 0.8311(2)
C4_2 C 0.3760(3) 1.5336(3) 0.6726(2)
C5_2 C 0.2124(3) 1.5619(3) 0.4369(2)
H3_2 H 0.1558 1.5082 0.4232
C6_2 C -0.0045(3) 0.8555(3) 0.8541(2)
H4_2 H -0.0513 0.8429 0.9347
H5_2 H -0.0766 0.9184 0.8096
C7_2 C 0.3770(3) 1.7193(3) 0.4784(2)
H6_2 H 0.4328 1.7719 0.4942
C8_2 C 0.3330(3) 1.7661(3) 0.3739(2)
H7_2 H 0.3601 1.8499 0.3187
C9_2 C 0.0372(3) 0.7082(3) 0.8301(2)
H8_2 H 0.1151 0.6476 0.8697
H9_2 H 0.0761 0.7214 0.7484
C10A C -0.0438(3) -0.0252(3) 0.4705(2)
H10A H -0.1221 0.0540 0.4452
H11A H 0.0220 -0.0503 0.4032
C11A C -0.1130(3) -0.1569(3) 0.5502(2)
H12A H -0.1838 -0.1311 0.6155
H13A H -0.0360 -0.2355 0.5784
C12_2 C 0.3362(3) 1.5934(3) 0.5582(2)
C13_2 C 0.2485(3) 1.6866(3) 0.3532(2)
H14_2 H 0.2168 1.7166 0.2845
C14_2 C 0.4516(3) 1.6000(3) 0.7140(2)
H15_2 H 0.4813 1.6881 0.6698
C15_2 C 0.3646(3) 1.3419(3) 0.8398(2)
H16_2 H 0.3357 1.2531 0.8825
C16_2 C 0.4829(3) 1.5339(3) 0.8224(3)
H17_2 H 0.5323 1.5780 0.8520
C17_2 C 0.4401(3) 1.4026(3) 0.8855(3)
H18_2 H 0.4617 1.3556 0.9576
C18_2 C 0.0917(3) 1.0864(3) 0.8246(2)
C19_2 C 0.1296(3) 0.9288(3) 0.8248(2)
H19_2 H 0.1918 0.8752 0.8798
H20_2 H 0.1876 0.9225 0.7496
O7 O 0.5006(2) 0.0449(2) 0.33691(18)
H21 H 0.452(5) 0.084(5) 0.401(3)
H22 H 0.569(4) -0.033(4) 0.372(4)
O8 O 0.4524(3) 0.1270(3) 1.1175(2)
H23 H 0.473(6) 0.101(6) 1.190(3)
H24 H 0.427(6) 0.048(4) 1.108(5)
O9 O -0.3310(3) 0.0684(3) 0.9300(2)
H25 H -0.401(4) 0.064(6) 1.001(3)
H26 H -0.228(3) 0.043(6) 0.938(5)
loop_
_geom_bond_atom_site_label_1
_geom_bond_atom_site_label_2
_geom_bond_site_symmetry_1
_geom_bond_site_symmetry_2
Cu1 O4 1_555 1_555
O1 C18 1_555 1_555
O2 C2 1_555 1_555
O3 C3 1_555 1_555
O4 C18 1_555 1_555
O5 Cu1 1_555 1_555
O6 C3 1_555 1_555
N1 Cu1 1_555 1_555
C1 H1 1_555 1_555
H2 C1 1_555 1_555
N2 Cu1 1_555 1_555
C2 O5 1_555 1_555
C3 C1 1_555 1_555
C4 N2 1_555 1_555
C5 N1 1_555 1_555
H3 C5 1_555 1_555
C6 H4 1_555 1_555
H5 C6 1_555 1_555
C7 H6 1_555 1_555
C8 C7 1_555 1_555
H7 C8 1_555 1_555
C9 C1 1_555 1_555
H8 C9 1_555 1_555
H9 C9 1_555 1_555
C10 H10 1_555 1_555
H11 C10 1_555 1_555
C11 C2 1_555 1_555
H12 C11 1_555 1_555
H13 C11 1_555 1_555
C12 N1 1_555 1_555
C13 C5 1_555 1_555
H14 C13 1_555 1_555
C14 C4 1_555 1_555
H15 C14 1_555 1_555
C15 N2 1_555 1_555
H16 C15 1_555 1_555
C16 C14 1_555 1_555
H17 C16 1_555 1_555
C17 C15 1_555 1_555
H18 C17 1_555 1_555
C18 C19 1_555 1_555
C19 C6 1_555 1_555
H19 C19 1_555 1_555
H20 C19 1_555 1_555
O7 H21 1_555 1_555
H22 O7 1_555 1_555
O8 H23 1_555 1_555
H24 O8 1_555 1_555
O9 H25 1_555 1_555
H26 O9 1_555 1_555
Cu1_2 O3_3 1_555 1_555
Cu1_3 O3 1_555 1_555
Cu1A O5A 1_555 1_555
O1_2 C18_2 1_555 1_555
O2A C2A 1_555 1_555
O3_2 Cu1 1_555 1_555
O4_2 Cu1_2 1_555 1_555
O5A C2A 1_555 1_555
O5_2 Cu1_2 1_555 1_555
O6_2 C3_2 1_555 1_555
N1_2 Cu1_2 1_555 1_555
C1_2 H1_2 1_555 1_555
H2_2 C1_2 1_555 1_555
N2_2 Cu1_2 1_555 1_555
C2A C11A 1_555 1_555
C3_2 O3_2 1_555 1_555
C4_2 N2_2 1_555 1_555
C5_2 N1_2 1_555 1_555
H3_2 C5_2 1_555 1_555
C6_2 H4_2 1_555 1_555
H5_2 C6_2 1_555 1_555
C7_2 H6_2 1_555 1_555
C8_2 C7_2 1_555 1_555
H7_2 C8_2 1_555 1_555
C9_2 C1_2 1_555 1_555
H8_2 C9_2 1_555 1_555
H9_2 C9_2 1_555 1_555
C10A C10 1_555 1_555
H10A C10A 1_555 1_555
H11A C10A 1_555 1_555
C11A C10A 1_555 1_555
H12A C11A 1_555 1_555
H13A C11A 1_555 1_555
C12_2 N1_2 1_555 1_555
C13_2 C5_2 1_555 1_555
H14_2 C13_2 1_555 1_555
C14_2 C4_2 1_555 1_555
H15_2 C14_2 1_555 1_555
C15_2 N2_2 1_555 1_555
H16_2 C15_2 1_555 1_555
C16_2 C14_2 1_555 1_555
H17_2 C16_2 1_555 1_555
C17_2 C15_2 1_555 1_555
H18_2 C17_2 1_555 1_555
C18_2 O4_2 1_555 1_555
C19_2 C6_2 1_555 1_555
H19_2 C19_2 1_555 1_555
H20_2 C19_2 1_555 1_555
C4 C12 1_555 1_555
C6 C9 1_555 1_555
C7 C12 1_555 1_555
C8 C13 1_555 1_555
C10 C11 1_555 1_555
C16 C17 1_555 1_555
C1_2 C3_2 1_555 1_555
C4_2 C12_2 1_555 1_555
C6_2 C9_2 1_555 1_555
C7_2 C12_2 1_555 1_555
C8_2 C13_2 1_555 1_555
C16_2 C17_2 1_555 1_555
C18_2 C19_2 1_555 1_555

#END
