
#######################################################################
#
#                 Cambridge Crystallographic Data Centre
#                                CCDC 
#
#######################################################################
#
# If this CIF has been generated from an entry in the Cambridge 
# Structural Database, then it will include bibliographic, chemical, 
# crystal, experimental, refinement or atomic coordinate data resulting 
# from the CCDC's data processing and validation procedures.
#
#######################################################################

data_CANYEW
_symmetry_cell_setting           monoclinic
_symmetry_space_group_name_H-M   'C 2/c'
_symmetry_Int_Tables_number      15
_space_group_name_Hall           '-C 2yn'
loop_
_symmetry_equiv_pos_site_id
_symmetry_equiv_pos_as_xyz
1 x,y,z
2 1/2+x,1/2+y,z
3 -x,y,1/2-z
4 1/2-x,1/2+y,1/2-z
5 -x,-y,-z
6 1/2-x,1/2-y,-z
7 x,-y,1/2+z
8 1/2+x,1/2-y,1/2+z
_cell_length_a                   16.3160(7)
_cell_length_b                   32.4817(12)
_cell_length_c                   6.6248(3)
_cell_angle_alpha                90
_cell_angle_beta                 113.105(3)
_cell_angle_gamma                90
_cell_volume                     3229.33
loop_
_atom_site_label
_atom_site_type_symbol
_atom_site_fract_x
_atom_site_fract_y
_atom_site_fract_z
Co1 Co 0.2500 0.2500 0.0000
N1 N 0.25355(8) 0.18961(4) -0.00114(19)
H1 H 0.2494 0.1800 0.1203
H2 H 0.3047 0.1813 -0.0062
H3 H 0.2082 0.1801 -0.1181
N2 N 0.17898(9) 0.24858(4) 0.1785(2)
H4 H 0.1224 0.2433 0.0931
H5 H 0.1825 0.2728 0.2439
H6 H 0.1997 0.2290 0.2798
N3 N 0.35755(9) 0.24900(4) 0.2712(2)
H7 H 0.3616 0.2724 0.3443
H8 H 0.4053 0.2462 0.2387
H9 H 0.3547 0.2279 0.3540
N1E N 0.24645(8) 0.31039(4) 0.00114(19)
H1E H 0.2506 0.3200 -0.1203
H2E H 0.1953 0.3187 0.0062
H3E H 0.2918 0.3199 0.1181
N2E N 0.32102(9) 0.25142(4) -0.1785(2)
H4E H 0.3776 0.2567 -0.0931
H5E H 0.3175 0.2272 -0.2439
H6E H 0.3003 0.2710 -0.2798
N3E N 0.14245(9) 0.25100(4) -0.2712(2)
H7E H 0.1384 0.2276 -0.3443
H8E H 0.0947 0.2538 -0.2387
H9E H 0.1453 0.2721 -0.3540
C1 C 0.23281(10) 0.11307(5) 1.4959(2)
C2 C 0.30130(13) 0.09615(6) 1.4478(3)
H10 H 0.3396 0.1132 1.4131
C3 C 0.31257(18) 0.05372(8) 1.4516(4)
H11 H 0.3576 0.0426 1.4156
C4 C 0.25819(16) 0.02817(7) 1.5077(3)
H12 H 0.2669 -0.0002 1.5124
C5 C 0.19121(17) 0.04441(6) 1.5567(4)
H13 H 0.1543 0.0271 1.5951
C6 C 0.17777(12) 0.08669(6) 1.5498(3)
H14 H 0.1313 0.0974 1.5816
C7 C 0.21735(11) 0.15877(5) 1.4878(2)
O1 O 0.14649(8) 0.17179(4) 1.4990(2)
O2 O 0.27630(9) 0.18167(4) 1.4702(2)
C8 C 0.0000 0.17432(6) 0.7500
O3 O 0.03477(8) 0.19214(4) 0.93189(19)
C9 C 0.0000 0.12751(7) 0.7500
C10 C 0.05265(12) 0.10588(6) 0.9357(3)
H15 H 0.0880 0.1200 1.0620
C11 C 0.05289(16) 0.06303(7) 0.9340(4)
H16 H 0.0891 0.0486 1.0585
C12 C 0.0000 0.04196(9) 0.7500
H17 H 0.0000 0.0133 0.7500
Na1 Na 0.0000 0.19065(3) 1.2500
O4 O 0.0000 0.27007(6) 1.2500
H18 H 0.0108 0.2865 1.1517
C1B C -0.23281(10) 0.11307(5) 1.0041(2)
C2B C -0.30130(13) 0.09615(6) 1.0522(3)
H10B H -0.3396 0.1132 1.0869
C3B C -0.31257(18) 0.05372(8) 1.0484(4)
H11B H -0.3576 0.0426 1.0844
C4B C -0.25819(16) 0.02817(7) 0.9923(3)
H12B H -0.2669 -0.0002 0.9876
C5B C -0.19121(17) 0.04441(6) 0.9433(4)
H13B H -0.1543 0.0271 0.9049
C6B C -0.17777(12) 0.08669(6) 0.9502(3)
H14B H -0.1313 0.0974 0.9184
C7B C -0.21735(11) 0.15877(5) 1.0122(2)
O1B O -0.14649(8) 0.17179(4) 1.0010(2)
O2B O -0.27630(9) 0.18167(4) 1.0298(2)
O3B O -0.03477(8) 0.19214(4) 0.56811(19)
O3B_2 O -0.03477(8) 0.19214(4) 1.56811(19)
C10B C -0.05265(12) 0.10588(6) 0.5643(3)
H15B H -0.0880 0.1200 0.4380
C11B C -0.05289(16) 0.06303(7) 0.5660(4)
H16B H -0.0891 0.0486 0.4415
Na1_2 Na 0.0000 0.19065(3) 0.2500
H18B H -0.0108 0.2865 1.3483
C13 C 0.0000 0.32973(7) 0.7500
O5 O 0.04830(9) 0.31194(4) 0.9242(2)
C14 C 0.0000 0.37644(7) 0.7500
C15 C 0.05061(13) 0.39812(6) 0.9367(3)
H19 H 0.0850 0.3841 1.0643
C16 C 0.05033(17) 0.44123(8) 0.9343(5)
H20 H 0.0850 0.4557 1.0601
C17 C 0.0000 0.46203(10) 0.7500
H21 H 0.0000 0.4907 0.7500
O5B O -0.04830(9) 0.31194(4) 0.5758(2)
C15B C -0.05061(13) 0.39812(6) 0.5633(3)
H19B H -0.0850 0.3841 0.4357
C16B C -0.05033(17) 0.44123(8) 0.5657(5)
H20B H -0.0850 0.4557 0.4399
loop_
_geom_bond_atom_site_label_1
_geom_bond_atom_site_label_2
_geom_bond_site_symmetry_1
_geom_bond_site_symmetry_2
Co1 N1 1_555 1_555
N1 H1 1_555 1_555
H2 N1 1_555 1_555
H3 N1 1_555 1_555
N2 Co1 1_555 1_555
H4 N2 1_555 1_555
H5 N2 1_555 1_555
H6 N2 1_555 1_555
N3 Co1 1_555 1_555
H7 N3 1_555 1_555
H8 N3 1_555 1_555
H9 N3 1_555 1_555
C1 C2 1_555 1_555
C2 H10 1_555 1_555
C3 C2 1_555 1_555
H11 C3 1_555 1_555
C4 C3 1_555 1_555
H12 C4 1_555 1_555
C5 C4 1_555 1_555
H13 C5 1_555 1_555
C6 C1 1_555 1_555
H14 C6 1_555 1_555
C7 C1 1_555 1_555
O1 C7 1_555 1_555
O2 C7 1_555 1_555
C8 O3 1_555 1_555
O3 Na1 1_555 1_555
C9 C8 1_555 1_555
C10 C9 1_555 1_555
H15 C10 1_555 1_555
C11 C10 1_555 1_555
H16 C11 1_555 1_555
C12 C11 1_555 1_555
H17 C12 1_555 1_555
Na1 O1 1_555 1_555
O4 Na1 1_555 1_555
H18 O4 1_555 1_555
C13 O5 1_555 1_555
C14 C13 1_555 1_555
C15 C14 1_555 1_555
H19 C15 1_555 1_555
C16 C15 1_555 1_555
H20 C16 1_555 1_555
C17 C16 1_555 1_555
H21 C17 1_555 1_555
N1E Co1 1_555 1_555
H1E N1E 1_555 1_555
H2E N1E 1_555 1_555
H3E N1E 1_555 1_555
N2E Co1 1_555 1_555
H4E N2E 1_555 1_555
H5E N2E 1_555 1_555
H6E N2E 1_555 1_555
N3E Co1 1_555 1_555
H7E N3E 1_555 1_555
H8E N3E 1_555 1_555
H9E N3E 1_555 1_555
C1B C2B 1_555 1_555
C2B H10B 1_555 1_555
C3B C2B 1_555 1_555
H11B C3B 1_555 1_555
C4B C3B 1_555 1_555
H12B C4B 1_555 1_555
C5B C4B 1_555 1_555
H13B C5B 1_555 1_555
C6B C1B 1_555 1_555
H14B C6B 1_555 1_555
C7B C1B 1_555 1_555
O1B Na1 1_555 1_555
O2B C7B 1_555 1_555
O3B C8 1_555 1_555
O3B_2 Na1 1_555 1_555
C10B C9 1_555 1_555
H15B C10B 1_555 1_555
C11B C12 1_555 1_555
H16B C11B 1_555 1_555
Na1_2 O3B 1_555 1_555
H18B O4 1_555 1_555
O5B C13 1_555 1_555
C15B C14 1_555 1_555
H19B C15B 1_555 1_555
C16B C17 1_555 1_555
H20B C16B 1_555 1_555
C5 C6 1_555 1_555
C5B C6B 1_555 1_555
C7B O1B 1_555 1_555
C10B C11B 1_555 1_555
C15B C16B 1_555 1_555

#END
