
#######################################################################
#
#                 Cambridge Crystallographic Data Centre
#                                CCDC 
#
#######################################################################
#
# If this CIF has been generated from an entry in the Cambridge 
# Structural Database, then it will include bibliographic, chemical, 
# crystal, experimental, refinement or atomic coordinate data resulting 
# from the CCDC's data processing and validation procedures.
#
#######################################################################

data_CANZAU
_symmetry_cell_setting           rhombohedral
_symmetry_space_group_name_H-M   'R -3'
_symmetry_Int_Tables_number      148
_space_group_name_Hall           '-R 3'
loop_
_symmetry_equiv_pos_site_id
_symmetry_equiv_pos_as_xyz
1 x,y,z
2 -y,x-y,z
3 -x+y,-x,z
4 1/3+x,2/3+y,2/3+z
5 1/3-y,2/3+x-y,2/3+z
6 1/3-x+y,2/3-x,2/3+z
7 2/3+x,1/3+y,1/3+z
8 2/3-y,1/3+x-y,1/3+z
9 2/3-x+y,1/3-x,1/3+z
10 -x,-y,-z
11 y,-x+y,-z
12 x-y,x,-z
13 2/3-x,1/3-y,1/3-z
14 2/3+y,1/3-x+y,1/3-z
15 2/3+x-y,1/3+x,1/3-z
16 1/3-x,2/3-y,2/3-z
17 1/3+y,2/3-x+y,2/3-z
18 1/3+x-y,2/3+x,2/3-z
_cell_length_a                   54.074(16)
_cell_length_b                   54.074(16)
_cell_length_c                   21.379(6)
_cell_angle_alpha                90
_cell_angle_beta                 90
_cell_angle_gamma                120
_cell_volume                     54137.1
loop_
_atom_site_label
_atom_site_type_symbol
_atom_site_fract_x
_atom_site_fract_y
_atom_site_fract_z
N9 N 0.2779(3) 0.1688(3) 0.1231(6)
O19 O 0.2834(5) 0.1956(5) 0.2049(9)
C91 C 0.2720(6) 0.1880(5) 0.1550(10)
H122 H 0.2600 0.1944 0.1383
C92 C 0.2642(4) 0.1588(4) 0.0651(7)
H123 H 0.2520 0.1671 0.0566
H124 H 0.2524 0.1379 0.0663
H125 H 0.2786 0.1644 0.0320
C93 C 0.2960(3) 0.1594(4) 0.1467(7)
H126 H 0.3029 0.1678 0.1882
H127 H 0.3123 0.1655 0.1184
H128 H 0.2855 0.1386 0.1499
N10 N 0.2706(4) 0.2597(5) 0.3035(9)
O20 O 0.2936(3) 0.2361(3) 0.3241(7)
C94 C 0.2813(5) 0.2420(4) 0.2838(9)
H129 H 0.2791 0.2351 0.2422
C95 C 0.2623(6) 0.2711(6) 0.2539(10)
H130 H 0.2547 0.2828 0.2708
H131 H 0.2476 0.2555 0.2289
H132 H 0.2790 0.2830 0.2275
C96 C 0.2542(6) 0.2525(7) 0.3586(11)
H133 H 0.2476 0.2661 0.3655
H134 H 0.2660 0.2531 0.3941
H135 H 0.2378 0.2332 0.3546
N11 N 0.1683(5) 0.0715(4) 0.9554(9)
O21 O 0.1641(4) 0.0403(4) 0.8820(9)
C97 C 0.1778(7) 0.0647(5) 0.9006(15)
H136 H 0.1943 0.0786 0.8789
C98 C 0.1394(5) 0.0638(8) 0.9582(16)
H137 H 0.1352 0.0688 0.9994
H138 H 0.1275 0.0432 0.9515
H139 H 0.1354 0.0741 0.9257
C99 C 0.1885(7) 0.0926(9) 0.9939(18)
H140 H 0.1790 0.0945 1.0313
H141 H 0.1978 0.1108 0.9713
H142 H 0.2028 0.0875 1.0063
N12 N 0.1941(4) -0.1987(4) 0.3221(9)
O22 O 0.2152(3) -0.1593(3) 0.2607(6)
C100 C 0.2109(4) -0.1830(3) 0.2724(7)
H143 H 0.2193 -0.1910 0.2466
C101 C 0.1875(7) -0.1835(6) 0.3662(11)
H144 H 0.1864 -0.1680 0.3451
H145 H 0.2025 -0.1754 0.3982
H146 H 0.1691 -0.1964 0.3860
C102 C 0.1961(7) -0.2222(5) 0.3431(14)
H147 H 0.2015 -0.2302 0.3082
H148 H 0.1776 -0.2367 0.3599
H149 H 0.2106 -0.2160 0.3760
N13 N 0.1546(4) -0.0268(5) 0.7514(8)
O23 O 0.1576(7) -0.0288(9) 0.8505(11)
C103 C 0.1434(5) -0.0261(6) 0.8100(9)
H150 H 0.1272 -0.0238 0.8169
C104 C 0.1387(5) -0.0303(6) 0.6979(10)
H151 H 0.1495 -0.0301 0.6610
H152 H 0.1345 -0.0147 0.6948
H153 H 0.1208 -0.0486 0.7000
C105 C 0.1781(6) -0.0309(8) 0.7503(13)
H154 H 0.1840 -0.0308 0.7069
H155 H 0.1729 -0.0493 0.7697
H156 H 0.1939 -0.0155 0.7737
Fe1 Fe 0.21085(3) -0.02869(3) 0.21791(6)
Fe2 Fe 0.22141(3) 0.02120(3) 0.31934(6)
Fe3 Fe 0.03962(3) 0.01381(3) 0.71193(7)
Ni1 Ni 0.03881(3) -0.20847(3) -0.17832(6)
N1 N 0.19254(17) -0.07331(18) 0.1924(4)
N2 N 0.14294(19) -0.16158(18) 0.0639(4)
N3 N 0.07155(19) -0.19970(19) -0.1090(4)
N4 N 0.2106(2) -0.2705(2) 0.1349(6)
N5 N 0.21612(19) 0.03320(16) 0.4144(4)
N6 N 0.17719(18) 0.04298(16) 0.6199(4)
N7 N 0.08533(18) 0.02835(19) 0.7064(4)
N8 N 0.2969(2) 0.0674(3) 0.9025(5)
O1 O 0.22650(13) 0.01019(13) 0.2384(3)
O2 O 0.0000 0.0000 0.7149(5)
O3 O 0.22098(16) -0.04081(14) 0.2992(3)
O4 O 0.23045(15) -0.00570(15) 0.3661(3)
O5 O 0.17154(14) -0.03997(14) 0.2484(4)
O6 O 0.17851(16) -0.00799(16) 0.3210(4)
O7 O 0.19685(17) -0.02560(17) 0.1315(3)
O8 O 0.21886(16) 0.02047(18) 0.1088(3)
O9 O 0.24763(15) -0.02369(15) 0.1819(3)
O10 O 0.27036(15) 0.02056(17) 0.1470(4)
O11 O 0.21053(16) 0.05012(16) 0.2922(3)
O12 O 0.22957(17) 0.06366(15) 0.1969(3)
O13 O 0.26316(15) 0.05275(15) 0.3318(3)
O14 O 0.28073(15) 0.06362(15) 0.2352(3)
O15 O 0.03837(16) -0.01086(17) 0.6387(4)
O16 O -0.00333(17) -0.05110(15) 0.6532(4)
O17 O 0.04881(14) 0.04034(15) 0.7856(3)
O18 O 0.01646(17) 0.05360(15) 0.7735(3)
C1 C 0.2291(3) -0.0282(3) 0.3513(5)
C2 C 0.2383(3) -0.0433(3) 0.3992(5)
C3 C 0.2386(4) -0.0328(3) 0.4658(4)
H1 H 0.2518 -0.0122 0.4680
H2 H 0.2449 -0.0426 0.4948
H3 H 0.2194 -0.0370 0.4772
C4 C 0.2170(4) -0.0763(2) 0.3958(7)
H4 H 0.1977 -0.0803 0.4065
H5 H 0.2230 -0.0861 0.4254
H6 H 0.2170 -0.0832 0.3533
C5 C 0.2684(3) -0.0386(4) 0.3816(8)
H7 H 0.2825 -0.0182 0.3830
H8 H 0.2678 -0.0460 0.3394
H9 H 0.2738 -0.0489 0.4115
C6 C 0.1629(2) -0.0281(3) 0.2827(6)
C7 C 0.1315(2) -0.0353(3) 0.2808(5)
C8 C 0.1148(3) -0.0597(3) 0.2345(7)
H10 H 0.0948 -0.0641 0.2333
H11 H 0.1155 -0.0766 0.2479
H12 H 0.1232 -0.0539 0.1928
C9 C 0.1188(3) -0.0433(4) 0.3469(6)
H13 H 0.0988 -0.0481 0.3459
H14 H 0.1296 -0.0272 0.3752
H15 H 0.1199 -0.0599 0.3618
C10 C 0.1311(3) -0.0082(3) 0.2602(8)
H16 H 0.1113 -0.0122 0.2583
H17 H 0.1399 -0.0023 0.2188
H18 H 0.1418 0.0071 0.2904
C11 C 0.2011(3) -0.0039(4) 0.0972(6)
C12 C 0.1871(4) -0.0145(4) 0.0319(7)
C13 C 0.1863(5) 0.0102(5) -0.0029(13)
H19 H 0.1744 0.0159 0.0205
H20 H 0.1782 0.0038 -0.0448
H21 H 0.2057 0.0265 -0.0065
C14 C 0.1564(4) -0.0401(5) 0.0388(14)
H22 H 0.1446 -0.0340 0.0614
H23 H 0.1569 -0.0554 0.0622
H24 H 0.1483 -0.0471 -0.0027
C15 C 0.2057(4) -0.0238(5) -0.0063(12)
H25 H 0.1973 -0.0303 -0.0478
H26 H 0.2064 -0.0393 0.0156
H27 H 0.2251 -0.0075 -0.0107
C20 C 0.2674(3) -0.0039(3) 0.1553(8)
C21 C 0.2951(3) -0.0054(3) 0.1486(7)
C22 C 0.2889(3) -0.0363(3) 0.1511(9)
H37 H 0.2758 -0.0473 0.1171
H38 H 0.2801 -0.0448 0.1913
H39 H 0.3068 -0.0366 0.1464
C23 C 0.3159(4) 0.0117(4) 0.2051(8)
H40 H 0.3336 0.0111 0.2010
H41 H 0.3066 0.0028 0.2447
H42 H 0.3202 0.0316 0.2042
C24 C 0.3108(4) 0.0094(4) 0.0879(8)
H43 H 0.2989 -0.0008 0.0518
H44 H 0.3289 0.0093 0.0856
H45 H 0.3148 0.0292 0.0877
C25 C 0.2151(3) 0.0639(3) 0.2447(7)
C26 C 0.2047(3) 0.0857(3) 0.2407(6)
C27 C 0.1817(3) 0.0799(4) 0.2891(8)
H46 H 0.1644 0.0618 0.2794
H47 H 0.1773 0.0954 0.2883
H48 H 0.1885 0.0787 0.3308
C28 C 0.2294(4) 0.1148(3) 0.2615(9)
H49 H 0.2454 0.1210 0.2323
H50 H 0.2356 0.1131 0.3036
H51 H 0.2230 0.1288 0.2620
C29 C 0.2001(4) 0.0914(4) 0.1734(7)
H52 H 0.1838 0.0743 0.1557
H53 H 0.2173 0.0966 0.1489
H54 H 0.1961 0.1072 0.1724
C30 C 0.2819(2) 0.0667(2) 0.2925(6)
C31 C 0.3097(2) 0.0913(2) 0.3184(5)
C32 C 0.3127(3) 0.0888(3) 0.3892(5)
H55 H 0.2966 0.0885 0.4108
H56 H 0.3306 0.1052 0.4037
H57 H 0.3129 0.0711 0.3983
C33 C 0.3349(3) 0.0916(3) 0.2850(7)
H58 H 0.3331 0.0931 0.2398
H59 H 0.3350 0.0739 0.2943
H60 H 0.3528 0.1080 0.2996
C34 C 0.3104(3) 0.1191(2) 0.3010(7)
H61 H 0.2945 0.1197 0.3215
H62 H 0.3086 0.1200 0.2556
H63 H 0.3285 0.1354 0.3149
C35 C 0.0220(3) -0.0373(3) 0.6316(5)
C36 C 0.0340(2) -0.0545(2) 0.5999(5)
C37 C 0.0120(3) -0.0856(2) 0.5880(8)
H64 H 0.0047 -0.0954 0.6280
H65 H 0.0209 -0.0947 0.5647
H66 H -0.0039 -0.0866 0.5635
C38 C 0.0444(3) -0.0410(3) 0.5345(6)
H67 H 0.0281 -0.0436 0.5096
H68 H 0.0537 -0.0503 0.5134
H69 H 0.0581 -0.0206 0.5392
C39 C 0.0592(3) -0.0510(4) 0.6407(7)
H70 H 0.0519 -0.0602 0.6813
H71 H 0.0727 -0.0306 0.6469
H72 H 0.0688 -0.0599 0.6196
C40 C 0.0370(3) 0.0537(3) 0.8016(5)
C41 C 0.0477(3) 0.0721(3) 0.8606(6)
C42 C 0.0749(3) 0.0737(4) 0.8857(9)
H73 H 0.0896 0.0814 0.8532
H74 H 0.0709 0.0545 0.8975
H75 H 0.0816 0.0862 0.9224
C43 C 0.0237(4) 0.0612(4) 0.9089(8)
H76 H 0.0195 0.0424 0.9241
H77 H 0.0065 0.0596 0.8894
H78 H 0.0296 0.0746 0.9440
C44 C 0.0496(4) 0.1008(3) 0.8476(9)
H79 H 0.0644 0.1113 0.8162
H80 H 0.0545 0.1119 0.8863
H81 H 0.0312 0.0975 0.8320
C45 C 0.2065(2) -0.0877(2) 0.1997(5)
H82 H 0.2241 -0.0786 0.2218
C46 C 0.1973(2) -0.1144(2) 0.1778(5)
H83 H 0.2077 -0.1238 0.1870
C47 C 0.1726(2) -0.1282(2) 0.1419(4)
C48 C 0.1573(2) -0.1135(2) 0.1356(5)
H84 H 0.1396 -0.1220 0.1137
C49 C 0.1682(2) -0.0868(2) 0.1614(6)
H85 H 0.1575 -0.0773 0.1566
C50 C 0.1624(2) -0.1557(2) 0.1089(5)
C51 C 0.1738(2) -0.1728(2) 0.1230(5)
H86 H 0.1872 -0.1681 0.1559
C52 C 0.1650(2) -0.1972(2) 0.0872(5)
C53 C 0.1447(2) -0.2042(2) 0.0403(5)
H87 H 0.1383 -0.2210 0.0158
C54 C 0.1342(2) -0.1855(2) 0.0306(5)
C55 C 0.1118(2) -0.1909(2) -0.0168(5)
C56 C 0.1032(2) -0.2129(2) -0.0613(5)
H88 H 0.1110 -0.2253 -0.0601
C57 C 0.0840(2) -0.2166(2) -0.1056(5)
H89 H 0.0789 -0.2313 -0.1356
C58 C 0.0800(2) -0.1792(2) -0.0679(5)
H90 H 0.0722 -0.1669 -0.0702
C59 C 0.0997(2) -0.1742(2) -0.0212(5)
H91 H 0.1047 -0.1591 0.0077
C60 C 0.1770(2) -0.2167(2) 0.0993(5)
C61 C 0.1608(3) -0.2465(3) 0.0902(6)
H92 H 0.1417 -0.2546 0.0752
C62 C 0.1715(3) -0.2636(3) 0.1023(7)
H93 H 0.1599 -0.2835 0.0944
C63 C 0.1991(3) -0.2536(3) 0.1261(6)
C64 C 0.2152(3) -0.2239(3) 0.1301(6)
H94 H 0.2347 -0.2156 0.1416
C65 C 0.2048(2) -0.2065(2) 0.1188(5)
H95 H 0.2170 -0.1866 0.1243
C66 C 0.2387(3) -0.2591(3) 0.1630(7)
H96 H 0.2491 -0.2382 0.1598
H97 H 0.2494 -0.2667 0.1409
H98 H 0.2367 -0.2647 0.2071
C67 C 0.1926(4) -0.3009(3) 0.1328(11)
H99 H 0.1745 -0.3057 0.1122
H100 H 0.1888 -0.3085 0.1754
H101 H 0.2022 -0.3093 0.1092
C68 C 0.1922(2) 0.0323(2) 0.4339(5)
H102 H 0.1776 0.0282 0.4042
C69 C 0.1878(2) 0.0370(2) 0.4950(5)
H103 H 0.1703 0.0357 0.5071
C70 C 0.2087(2) 0.0434(2) 0.5380(5)
C71 C 0.2338(2) 0.0458(2) 0.5187(5)
H104 H 0.2491 0.0512 0.5473
C72 C 0.2366(2) 0.0401(2) 0.4577(5)
H105 H 0.2540 0.0412 0.4451
C73 C 0.2026(2) 0.0467(2) 0.6065(4)
C74 C 0.2234(2) 0.0531(2) 0.6510(5)
H106 H 0.2416 0.0561 0.6395
C75 C 0.2169(2) 0.0552(2) 0.7152(5)
C76 C 0.1897(2) 0.0512(2) 0.7266(5)
H107 H 0.1844 0.0527 0.7682
C77 C 0.1706(2) 0.0452(2) 0.6792(5)
C78 C 0.1412(2) 0.0395(2) 0.6898(5)
C79 C 0.1251(2) 0.0392(2) 0.6395(5)
H108 H 0.1327 0.0425 0.5983
C80 C 0.0978(3) 0.0339(2) 0.6508(5)
H109 H 0.0871 0.0343 0.6160
C81 C 0.1009(2) 0.0284(2) 0.7536(5)
H110 H 0.0927 0.0243 0.7942
C82 C 0.1282(3) 0.0340(2) 0.7476(5)
H111 H 0.1384 0.0340 0.7837
C83 C 0.2380(2) 0.0612(3) 0.7648(5)
C84 C 0.2675(3) 0.0770(3) 0.7531(6)
H112 H 0.2743 0.0861 0.7138
C85 C 0.2871(2) 0.0793(3) 0.7988(6)
H113 H 0.3069 0.0899 0.7900
C86 C 0.2779(3) 0.0663(3) 0.8570(5)
C87 C 0.2486(3) 0.0515(3) 0.8677(5)
H114 H 0.2416 0.0426 0.9071
C88 C 0.2293(3) 0.0493(3) 0.8222(5)
H115 H 0.2095 0.0392 0.8316
C89 C 0.3272(3) 0.0791(3) 0.8811(7)
H116 H 0.3316 0.0935 0.8485
H117 H 0.3296 0.0636 0.8642
H118 H 0.3402 0.0879 0.9165
C90 C 0.2866(3) 0.0456(3) 0.9501(6)
H119 H 0.2667 0.0397 0.9600
H120 H 0.2983 0.0532 0.9879
H121 H 0.2878 0.0292 0.9349
Fe1K Fe 0.23954(4) 0.21085(3) -0.21791(6)
Fe1J Fe -0.02869(3) -0.23954(4) -0.21791(6)
Fe2J Fe 0.02120(3) -0.20021(4) -0.31934(6)
Fe2K Fe 0.20021(4) 0.22141(3) -0.31934(6)
Fe3J Fe 0.01381(3) -0.02581(4) -0.71193(7)
Fe3A Fe -0.01381(3) 0.02581(4) 0.71193(7)
Fe3B Fe -0.02581(4) -0.03962(3) 0.71193(7)
Fe3K Fe 0.02581(4) 0.03962(3) -0.71193(7)
Fe3I Fe -0.03962(3) -0.01381(3) -0.71193(7)
Ni1K Ni 0.24728(4) 0.03881(3) 0.17832(6)
Ni1J Ni -0.20847(3) -0.24728(4) 0.17832(6)
Ni1A Ni 0.20847(3) 0.24728(4) -0.17832(6)
N1K N 0.26585(25) 0.19254(17) -0.1924(4)
N1J N -0.07331(18) -0.26585(25) -0.1924(4)
N2K N 0.30452(26) 0.14294(19) -0.0639(4)
N2J N -0.16158(18) -0.30452(26) -0.0639(4)
N3K N 0.27125(27) 0.07155(19) 0.1090(4)
N3J N -0.19970(19) -0.27125(27) 0.1090(4)
N4K N 0.4811(3) 0.2106(2) -0.1349(6)
N4J N -0.2705(2) -0.4811(3) -0.1349(6)
N5J N 0.03320(16) -0.18292(25) -0.4144(4)
N5K N 0.18292(25) 0.21612(19) -0.4144(4)
N6J N 0.04298(16) -0.13421(24) -0.6199(4)
N6K N 0.13421(24) 0.17719(18) -0.6199(4)
N7J N 0.02835(19) -0.05698(26) -0.7064(4)
N7K N 0.05698(26) 0.08533(18) -0.7064(4)
N7A N -0.02835(19) 0.05698(26) 0.7064(4)
N8J N 0.0674(3) -0.2295(4) -0.9025(5)
N8K N 0.2295(4) 0.2969(2) -0.9025(5)
O1J O 0.01019(13) -0.21631(18) -0.2384(3)
O1K O 0.21631(18) 0.22650(13) -0.2384(3)
O1B O -0.21631(18) -0.22650(13) 0.2384(3)
O2I O 0.0000 0.0000 -0.7149(5)
O3K O 0.26179(21) 0.22098(16) -0.2992(3)
O3J O -0.04081(14) -0.26179(21) -0.2992(3)
O4K O 0.23615(21) 0.23045(15) -0.3661(3)
O4J O -0.00570(15) -0.23615(21) -0.3661(3)
O5K O 0.21151(20) 0.17154(14) -0.2484(4)
O5J O -0.03997(14) -0.21151(20) -0.2484(4)
O6K O 0.18650(23) 0.17851(16) -0.3210(4)
O6J O -0.00799(16) -0.18650(23) -0.3210(4)
O7J O -0.02560(17) -0.22245(24) -0.1315(3)
O7K O 0.22245(24) 0.19685(17) -0.1315(3)
O8J O 0.02047(18) -0.19839(24) -0.1088(3)
O8K O 0.19839(24) 0.21886(16) -0.1088(3)
O8B O -0.19839(24) -0.21886(16) 0.1088(3)
O9J O -0.02369(15) -0.27132(21) -0.1819(3)
O9K O 0.27132(21) 0.24763(15) -0.1819(3)
O10J O 0.02056(17) -0.24980(23) -0.1470(4)
O10K O 0.24980(23) 0.27036(15) -0.1470(4)
O10B O -0.24980(23) -0.27036(15) 0.1470(4)
O11J O 0.05012(16) -0.16041(23) -0.2922(3)
O11K O 0.16041(23) 0.21053(16) -0.2922(3)
O12J O 0.06366(15) -0.16591(23) -0.1969(3)
O12K O 0.16591(23) 0.22957(17) -0.1969(3)
O12B O -0.16591(23) -0.22957(17) 0.1969(3)
O13J O 0.05275(15) -0.21041(21) -0.3318(3)
O13K O 0.21041(21) 0.26316(15) -0.3318(3)
O14J O 0.06362(15) -0.21711(21) -0.2352(3)
O14K O 0.21711(21) 0.28073(15) -0.2352(3)
O14B O -0.21711(21) -0.28073(15) 0.2352(3)
O15A O 0.01086(17) 0.04923(23) 0.6387(4)
O15J O -0.01086(17) -0.04923(23) -0.6387(4)
O16A O 0.05110(15) 0.04777(23) 0.6532(4)
O16J O -0.05110(15) -0.04777(23) -0.6532(4)
O16K O 0.04777(23) -0.00333(17) -0.6532(4)
O16B O -0.04777(23) 0.00333(17) 0.6532(4)
O17B O -0.00847(21) -0.04881(14) 0.7856(3)
O17J O 0.04034(15) -0.00847(21) -0.7856(3)
O17A O -0.04034(15) 0.00847(21) 0.7856(3)
O18B O 0.03714(23) -0.01646(17) 0.7735(3)
O18J O 0.05360(15) 0.03714(23) -0.7735(3)
O18I O -0.01646(17) -0.05360(15) -0.7735(3)
C1K C 0.2573(4) 0.2291(3) -0.3513(5)
C1J C -0.0282(3) -0.2573(4) -0.3513(5)
C2K C 0.2816(4) 0.2383(3) -0.3992(5)
C2J C -0.0433(3) -0.2816(4) -0.3992(5)
C3K C 0.2714(5) 0.2386(4) -0.4658(4)
C3J C -0.0328(3) -0.2714(5) -0.4658(4)
H1K H 0.2640 0.2518 -0.4680
H1J H -0.0122 -0.2640 -0.4680
H2K H 0.2875 0.2449 -0.4948
H2J H -0.0426 -0.2875 -0.4948
H3K H 0.2564 0.2194 -0.4772
H3J H -0.0370 -0.2564 -0.4772
C4K C 0.2933(4) 0.2170(4) -0.3958(7)
C4J C -0.0763(2) -0.2933(4) -0.3958(7)
H4K H 0.2780 0.1977 -0.4065
H4J H -0.0803 -0.2780 -0.4065
H5K H 0.3091 0.2230 -0.4254
H5J H -0.0861 -0.3091 -0.4254
H6K H 0.3002 0.2170 -0.3533
H6J H -0.0832 -0.3002 -0.3533
C5K C 0.3070(5) 0.2684(3) -0.3816(8)
C5J C -0.0386(4) -0.3070(5) -0.3816(8)
H7K H 0.3007 0.2825 -0.3830
H7J H -0.0182 -0.3007 -0.3830
H8K H 0.3138 0.2678 -0.3394
H8J H -0.0460 -0.3138 -0.3394
H9K H 0.3227 0.2738 -0.4115
H9J H -0.0489 -0.3227 -0.4115
C6K C 0.1910(4) 0.1629(2) -0.2827(6)
C6J C -0.0281(3) -0.1910(4) -0.2827(6)
C7K C 0.1668(4) 0.1315(2) -0.2808(5)
C7J C -0.0353(3) -0.1668(4) -0.2808(5)
C8K C 0.1745(4) 0.1148(3) -0.2345(7)
C8J C -0.0597(3) -0.1745(4) -0.2345(7)
H10K H 0.1589 0.0948 -0.2333
H10J H -0.0641 -0.1589 -0.2333
H11K H 0.1921 0.1155 -0.2479
H11J H -0.0766 -0.1921 -0.2479
H12K H 0.1771 0.1232 -0.1928
H12J H -0.0539 -0.1771 -0.1928
C9K C 0.1621(5) 0.1188(3) -0.3469(6)
C9J C -0.0433(4) -0.1621(5) -0.3469(6)
H13K H 0.1469 0.0988 -0.3459
H13J H -0.0481 -0.1469 -0.3459
H14K H 0.1568 0.1296 -0.3752
H14J H -0.0272 -0.1568 -0.3752
H15K H 0.1798 0.1199 -0.3618
H15J H -0.0599 -0.1798 -0.3618
C10K C 0.1393(4) 0.1311(3) -0.2602(8)
C10J C -0.0082(3) -0.1393(4) -0.2602(8)
H16K H 0.1235 0.1113 -0.2583
H16J H -0.0122 -0.1235 -0.2583
H17K H 0.1422 0.1399 -0.2188
H17J H -0.0023 -0.1422 -0.2188
H18K H 0.1347 0.1418 -0.2904
H18J H 0.0071 -0.1347 -0.2904
C11J C -0.0039(4) -0.2050(5) -0.0972(6)
C11K C 0.2050(5) 0.2011(3) -0.0972(6)
C12J C -0.0145(4) -0.2016(6) -0.0319(7)
C12K C 0.2016(6) 0.1871(4) -0.0319(7)
C13J C 0.0102(5) -0.1761(7) 0.0029(13)
C13K C 0.1761(7) 0.1863(5) 0.0029(13)
H19J H 0.0159 -0.1585 -0.0205
H19K H 0.1585 0.1744 -0.0205
H20J H 0.0038 -0.1744 0.0448
H20K H 0.1744 0.1782 0.0448
H21J H 0.0265 -0.1792 0.0065
H21K H 0.1792 0.2057 0.0065
C14J C -0.0401(5) -0.1965(6) -0.0388(14)
C14K C 0.1965(6) 0.1564(4) -0.0388(14)
H22J H -0.0340 -0.1786 -0.0614
H22K H 0.1786 0.1446 -0.0614
H23J H -0.0554 -0.2123 -0.0622
H23K H 0.2123 0.1569 -0.0622
H24J H -0.0471 -0.1954 0.0027
H24K H 0.1954 0.1483 0.0027
C15J C -0.0238(5) -0.2295(6) 0.0063(12)
C15K C 0.2295(6) 0.2057(4) 0.0063(12)
H25J H -0.0303 -0.2276 0.0478
H25K H 0.2276 0.1973 0.0478
H26J H -0.0393 -0.2457 -0.0156
H26K H 0.2457 0.2064 -0.0156
H27J H -0.0075 -0.2326 0.0107
H27K H 0.2326 0.2251 0.0107
C20J C -0.0039(3) -0.2713(4) -0.1553(8)
C20K C 0.2713(4) 0.2674(3) -0.1553(8)
C21J C -0.0054(3) -0.3005(4) -0.1486(7)
C21K C 0.3005(4) 0.2951(3) -0.1486(7)
C22J C -0.0363(3) -0.3252(4) -0.1511(9)
C22K C 0.3252(4) 0.2889(3) -0.1511(9)
H37J H -0.0473 -0.3231 -0.1171
H37K H 0.3231 0.2758 -0.1171
H38J H -0.0448 -0.3249 -0.1913
H38K H 0.3249 0.2801 -0.1913
H39J H -0.0366 -0.3434 -0.1464
H39K H 0.3434 0.3068 -0.1464
C23J C 0.0117(4) -0.3042(6) -0.2051(8)
C23K C 0.3042(6) 0.3159(4) -0.2051(8)
H40J H 0.0111 -0.3225 -0.2010
H40K H 0.3225 0.3336 -0.2010
H41J H 0.0028 -0.3038 -0.2447
H41K H 0.3038 0.3066 -0.2447
H42J H 0.0316 -0.2886 -0.2042
H42K H 0.2886 0.3202 -0.2042
C24J C 0.0094(4) -0.3014(6) -0.0879(8)
C24K C 0.3014(6) 0.3108(4) -0.0879(8)
H43J H -0.0008 -0.2997 -0.0518
H43K H 0.2997 0.2989 -0.0518
H44J H 0.0093 -0.3196 -0.0856
H44K H 0.3196 0.3289 -0.0856
H45J H 0.0292 -0.2856 -0.0877
H45K H 0.2856 0.3148 -0.0877
C25J C 0.0639(3) -0.1512(4) -0.2447(7)
C25K C 0.1512(4) 0.2151(3) -0.2447(7)
C26J C 0.0857(3) -0.1190(4) -0.2407(6)
C26K C 0.1190(4) 0.2047(3) -0.2407(6)
C27J C 0.0799(4) -0.1018(5) -0.2891(8)
C27K C 0.1018(5) 0.1817(3) -0.2891(8)
H46J H 0.0618 -0.1026 -0.2794
H46K H 0.1026 0.1644 -0.2794
H47J H 0.0954 -0.0819 -0.2883
H47K H 0.0819 0.1773 -0.2883
H48J H 0.0787 -0.1098 -0.3308
H48K H 0.1098 0.1885 -0.3308
C28J C 0.1148(3) -0.1146(5) -0.2615(9)
C28K C 0.1146(5) 0.2294(4) -0.2615(9)
H49J H 0.1210 -0.1244 -0.2323
H49K H 0.1244 0.2454 -0.2323
H50J H 0.1131 -0.1225 -0.3036
H50K H 0.1225 0.2356 -0.3036
H51J H 0.1288 -0.0942 -0.2620
H51K H 0.0942 0.2230 -0.2620
C29J C 0.0914(4) -0.1087(6) -0.1734(7)
C29K C 0.1087(6) 0.2001(4) -0.1734(7)
H52J H 0.0743 -0.1095 -0.1557
H52K H 0.1095 0.1838 -0.1557
H53J H 0.0966 -0.1207 -0.1489
H53K H 0.1207 0.2173 -0.1489
H54J H 0.1072 -0.0889 -0.1724
H54K H 0.0889 0.1961 -0.1724
C30J C 0.0667(2) -0.2152(3) -0.2925(6)
C30K C 0.2152(3) 0.2819(2) -0.2925(6)
C31J C 0.0913(2) -0.2184(3) -0.3184(5)
C31K C 0.2184(3) 0.3097(2) -0.3184(5)
C32J C 0.0888(3) -0.2239(4) -0.3892(5)
C32K C 0.2239(4) 0.3127(3) -0.3892(5)
H55J H 0.0885 -0.2081 -0.4108
H55K H 0.2081 0.2966 -0.4108
H56J H 0.1052 -0.2254 -0.4037
H56K H 0.2254 0.3306 -0.4037
H57J H 0.0711 -0.2418 -0.3983
H57K H 0.2418 0.3129 -0.3983
C33J C 0.0916(3) -0.2433(4) -0.2850(7)
C33K C 0.2433(4) 0.3349(3) -0.2850(7)
H58J H 0.0931 -0.2400 -0.2398
H58K H 0.2400 0.3331 -0.2398
H59J H 0.0739 -0.2611 -0.2943
H59K H 0.2611 0.3350 -0.2943
H60J H 0.1080 -0.2448 -0.2996
H60K H 0.2448 0.3528 -0.2996
C34J C 0.1191(2) -0.1913(4) -0.3010(7)
C34K C 0.1913(4) 0.3104(3) -0.3010(7)
H61J H 0.1197 -0.1748 -0.3215
H61K H 0.1748 0.2945 -0.3215
H62J H 0.1200 -0.1886 -0.2556
H62K H 0.1886 0.3086 -0.2556
H63J H 0.1354 -0.1931 -0.3149
H63K H 0.1931 0.3285 -0.3149
C35A C 0.0373(3) 0.0593(4) 0.6316(5)
C35J C -0.0373(3) -0.0593(4) -0.6316(5)
C36A C 0.0545(2) 0.0885(3) 0.5999(5)
C36J C -0.0545(2) -0.0885(3) -0.5999(5)
C37A C 0.0856(2) 0.0976(4) 0.5880(8)
C37J C -0.0856(2) -0.0976(4) -0.5880(8)
H64A H 0.0954 0.1001 0.6280
H64J H -0.0954 -0.1001 -0.6280
H65A H 0.0947 0.1156 0.5647
H65J H -0.0947 -0.1156 -0.5647
H66A H 0.0866 0.0827 0.5635
H66J H -0.0866 -0.0827 -0.5635
C38A C 0.0410(3) 0.0854(4) 0.5345(6)
C38J C -0.0410(3) -0.0854(4) -0.5345(6)
H67A H 0.0436 0.0717 0.5096
H67J H -0.0436 -0.0717 -0.5096
H68A H 0.0503 0.1040 0.5134
H68J H -0.0503 -0.1040 -0.5134
H69A H 0.0206 0.0787 0.5392
H69J H -0.0206 -0.0787 -0.5392
C39A C 0.0510(4) 0.1102(5) 0.6407(7)
C39J C -0.0510(4) -0.1102(5) -0.6407(7)
H70A H 0.0602 0.1121 0.6813
H70J H -0.0602 -0.1121 -0.6813
H71A H 0.0306 0.1033 0.6469
H71J H -0.0306 -0.1033 -0.6469
H72A H 0.0599 0.1287 0.6196
H72J H -0.0599 -0.1287 -0.6196
C40B C 0.0167(4) -0.0370(3) 0.8016(5)
C40J C 0.0537(3) 0.0167(4) -0.8016(5)
C41B C 0.0244(4) -0.0477(3) 0.8606(6)
C41J C 0.0721(3) 0.0244(4) -0.8606(6)
C42B C -0.0012(5) -0.0749(3) 0.8857(9)
C42J C 0.0737(4) -0.0012(5) -0.8857(9)
H73B H -0.0082 -0.0896 0.8532
H73J H 0.0814 -0.0082 -0.8532
H74B H -0.0164 -0.0709 0.8975
H74J H 0.0545 -0.0164 -0.8975
H75B H 0.0046 -0.0816 0.9224
H75J H 0.0862 0.0046 -0.9224
C43B C 0.0375(6) -0.0237(4) 0.9089(8)
C43J C 0.0612(4) 0.0375(6) -0.9089(8)
H76B H 0.0229 -0.0195 0.9241
H76J H 0.0424 0.0229 -0.9241
H77B H 0.0531 -0.0065 0.8894
H77J H 0.0596 0.0531 -0.8894
H78B H 0.0450 -0.0296 0.9440
H78J H 0.0746 0.0450 -0.9440
C44B C 0.0512(5) -0.0496(4) 0.8476(9)
C44J C 0.1008(3) 0.0512(5) -0.8476(9)
H79B H 0.0469 -0.0644 0.8162
H79J H 0.1113 0.0469 -0.8162
H80B H 0.0574 -0.0545 0.8863
H80J H 0.1119 0.0574 -0.8863
H81B H 0.0663 -0.0312 0.8320
H81J H 0.0975 0.0663 -0.8320
C45K C 0.2942(3) 0.2065(2) -0.1997(5)
C45J C -0.0877(2) -0.2942(3) -0.1997(5)
H82K H 0.3027 0.2241 -0.2218
H82J H -0.0786 -0.3027 -0.2218
C46K C 0.3117(3) 0.1973(2) -0.1778(5)
C46J C -0.1144(2) -0.3117(3) -0.1778(5)
H83K H 0.3315 0.2077 -0.1870
H83J H -0.1238 -0.3315 -0.1870
C47K C 0.3008(3) 0.1726(2) -0.1419(4)
C47J C -0.1282(2) -0.3008(3) -0.1419(4)
C48K C 0.2708(3) 0.1573(2) -0.1356(5)
C48J C -0.1135(2) -0.2708(3) -0.1356(5)
H84K H 0.2616 0.1396 -0.1137
H84J H -0.1220 -0.2616 -0.1137
C49K C 0.2550(3) 0.1682(2) -0.1614(6)
C49J C -0.0868(2) -0.2550(3) -0.1614(6)
H85K H 0.2348 0.1575 -0.1566
H85J H -0.0773 -0.2348 -0.1566
C50K C 0.3181(3) 0.1624(2) -0.1089(5)
C50J C -0.1557(2) -0.3181(3) -0.1089(5)
C51K C 0.3466(3) 0.1738(2) -0.1230(5)
C51J C -0.1728(2) -0.3466(3) -0.1230(5)
H86K H 0.3553 0.1872 -0.1559
H86J H -0.1681 -0.3553 -0.1559
C52K C 0.3622(3) 0.1650(2) -0.0872(5)
C52J C -0.1972(2) -0.3622(3) -0.0872(5)
C53K C 0.3489(3) 0.1447(2) -0.0403(5)
C53J C -0.2042(2) -0.3489(3) -0.0403(5)
H87K H 0.3593 0.1383 -0.0158
H87J H -0.2210 -0.3593 -0.0158
C54K C 0.3197(3) 0.1342(2) -0.0306(5)
C54J C -0.1855(2) -0.3197(3) -0.0306(5)
C55K C 0.3027(3) 0.1118(2) 0.0168(5)
C55J C -0.1909(2) -0.3027(3) 0.0168(5)
C56K C 0.3161(3) 0.1032(2) 0.0613(5)
C56J C -0.2129(2) -0.3161(3) 0.0613(5)
H88K H 0.3363 0.1110 0.0601
H88J H -0.2253 -0.3363 0.0601
C57K C 0.3006(3) 0.0840(2) 0.1056(5)
C57J C -0.2166(2) -0.3006(3) 0.1056(5)
H89K H 0.3102 0.0789 0.1356
H89J H -0.2313 -0.3102 0.1356
C58K C 0.2592(3) 0.0800(2) 0.0679(5)
C58J C -0.1792(2) -0.2592(3) 0.0679(5)
H90K H 0.2391 0.0722 0.0702
H90J H -0.1669 -0.2391 0.0702
C59K C 0.2739(3) 0.0997(2) 0.0212(5)
C59J C -0.1742(2) -0.2739(3) 0.0212(5)
H91K H 0.2638 0.1047 -0.0077
H91J H -0.1591 -0.2638 -0.0077
C60K C 0.3937(3) 0.1770(2) -0.0993(5)
C60J C -0.2167(2) -0.3937(3) -0.0993(5)
C61K C 0.4073(4) 0.1608(3) -0.0902(6)
C61J C -0.2465(3) -0.4073(4) -0.0902(6)
H92K H 0.3963 0.1417 -0.0752
H92J H -0.2546 -0.3963 -0.0752
C62K C 0.4351(4) 0.1715(3) -0.1023(7)
C62J C -0.2636(3) -0.4351(4) -0.1023(7)
H93K H 0.4434 0.1599 -0.0944
H93J H -0.2835 -0.4434 -0.0944
C63K C 0.4527(4) 0.1991(3) -0.1261(6)
C63J C -0.2536(3) -0.4527(4) -0.1261(6)
C64K C 0.4391(4) 0.2152(3) -0.1301(6)
C64J C -0.2239(3) -0.4391(4) -0.1301(6)
H94K H 0.4503 0.2347 -0.1416
H94J H -0.2156 -0.4503 -0.1416
C65K C 0.4113(3) 0.2048(2) -0.1188(5)
C65J C -0.2065(2) -0.4113(3) -0.1188(5)
H95K H 0.4036 0.2170 -0.1243
H95J H -0.1866 -0.4036 -0.1243
C66K C 0.4978(4) 0.2387(3) -0.1630(7)
C66J C -0.2591(3) -0.4978(4) -0.1630(7)
H96K H 0.4873 0.2491 -0.1598
H96J H -0.2382 -0.4873 -0.1598
H97K H 0.5161 0.2494 -0.1409
H97J H -0.2667 -0.5161 -0.1409
H98K H 0.5014 0.2367 -0.2071
H98J H -0.2647 -0.5014 -0.2071
C67K C 0.4935(5) 0.1926(4) -0.1328(11)
C67J C -0.3009(3) -0.4935(5) -0.1328(11)
H99K H 0.4802 0.1745 -0.1122
H99J H -0.3057 -0.4802 -0.1122
H100K H 0.4973 0.1888 -0.1754
H100J H -0.3085 -0.4973 -0.1754
H101K H 0.5115 0.2022 -0.1092
H101J H -0.3093 -0.5115 -0.1092
C68J C 0.0323(2) -0.1599(3) -0.4339(5)
C68K C 0.1599(3) 0.1922(2) -0.4339(5)
H102J H 0.0282 -0.1494 -0.4042
H102K H 0.1494 0.1776 -0.4042
C69J C 0.0370(2) -0.1508(3) -0.4950(5)
C69K C 0.1508(3) 0.1878(2) -0.4950(5)
H103J H 0.0357 -0.1346 -0.5071
H103K H 0.1346 0.1703 -0.5071
C70J C 0.0434(2) -0.1653(3) -0.5380(5)
C70K C 0.1653(3) 0.2087(2) -0.5380(5)
C71J C 0.0458(2) -0.1880(3) -0.5187(5)
C71K C 0.1880(3) 0.2338(2) -0.5187(5)
H104J H 0.0512 -0.1979 -0.5473
H104K H 0.1979 0.2491 -0.5473
C72J C 0.0401(2) -0.1965(3) -0.4577(5)
C72K C 0.1965(3) 0.2366(2) -0.4577(5)
H105J H 0.0412 -0.2128 -0.4451
H105K H 0.2128 0.2540 -0.4451
C73J C 0.0467(2) -0.1559(3) -0.6065(4)
C73K C 0.1559(3) 0.2026(2) -0.6065(4)
C74J C 0.0531(2) -0.1703(3) -0.6510(5)
C74K C 0.1703(3) 0.2234(2) -0.6510(5)
H106J H 0.0561 -0.1855 -0.6395
H106K H 0.1855 0.2416 -0.6395
C75J C 0.0552(2) -0.1617(3) -0.7152(5)
C75K C 0.1617(3) 0.2169(2) -0.7152(5)
C76J C 0.0512(2) -0.1385(3) -0.7266(5)
C76K C 0.1385(3) 0.1897(2) -0.7266(5)
H107J H 0.0527 -0.1317 -0.7682
H107K H 0.1317 0.1844 -0.7682
C77J C 0.0452(2) -0.1254(3) -0.6792(5)
C77K C 0.1254(3) 0.1706(2) -0.6792(5)
C78J C 0.0395(2) -0.1017(3) -0.6898(5)
C78K C 0.1017(3) 0.1412(2) -0.6898(5)
C79J C 0.0392(2) -0.0859(3) -0.6395(5)
C79K C 0.0859(3) 0.1251(2) -0.6395(5)
H108J H 0.0425 -0.0902 -0.5983
H108K H 0.0902 0.1327 -0.5983
C80J C 0.0339(2) -0.0639(4) -0.6508(5)
C80K C 0.0639(4) 0.0978(3) -0.6508(5)
H109J H 0.0343 -0.0528 -0.6160
H109K H 0.0528 0.0871 -0.6160
C81J C 0.0284(2) -0.0725(3) -0.7536(5)
C81K C 0.0725(3) 0.1009(2) -0.7536(5)
H110J H 0.0243 -0.0684 -0.7942
H110K H 0.0684 0.0927 -0.7942
C82J C 0.0340(2) -0.0942(4) -0.7476(5)
C82K C 0.0942(4) 0.1282(3) -0.7476(5)
H111J H 0.0340 -0.1044 -0.7837
H111K H 0.1044 0.1384 -0.7837
C83J C 0.0612(3) -0.1768(4) -0.7648(5)
C83K C 0.1768(4) 0.2380(2) -0.7648(5)
C84J C 0.0770(3) -0.1905(4) -0.7531(6)
C84K C 0.1905(4) 0.2675(3) -0.7531(6)
H112J H 0.0861 -0.1882 -0.7138
H112K H 0.1882 0.2743 -0.7138
C85J C 0.0793(3) -0.2078(4) -0.7988(6)
C85K C 0.2078(4) 0.2871(2) -0.7988(6)
H113J H 0.0899 -0.2170 -0.7900
H113K H 0.2170 0.3069 -0.7900
C86J C 0.0663(3) -0.2116(4) -0.8570(5)
C86K C 0.2116(4) 0.2779(3) -0.8570(5)
C87J C 0.0515(3) -0.1971(4) -0.8677(5)
C87K C 0.1971(4) 0.2486(3) -0.8677(5)
H114J H 0.0426 -0.1990 -0.9071
H114K H 0.1990 0.2416 -0.9071
C88J C 0.0493(3) -0.1800(4) -0.8222(5)
C88K C 0.1800(4) 0.2293(3) -0.8222(5)
H115J H 0.0392 -0.1703 -0.8316
H115K H 0.1703 0.2095 -0.8316
C89J C 0.0791(3) -0.2481(4) -0.8811(7)
C89K C 0.2481(4) 0.3272(3) -0.8811(7)
H116J H 0.0935 -0.2381 -0.8485
H116K H 0.2381 0.3316 -0.8485
H117J H 0.0636 -0.2660 -0.8642
H117K H 0.2660 0.3296 -0.8642
H118J H 0.0879 -0.2523 -0.9165
H118K H 0.2523 0.3402 -0.9165
C90J C 0.0456(3) -0.2410(4) -0.9501(6)
C90K C 0.2410(4) 0.2866(3) -0.9501(6)
H119J H 0.0397 -0.2270 -0.9600
H119K H 0.2270 0.2667 -0.9600
H120J H 0.0532 -0.2451 -0.9879
H120K H 0.2451 0.2983 -0.9879
H121J H 0.0292 -0.2586 -0.9349
H121K H 0.2586 0.2878 -0.9349
Ni2? Ni 0.03962(3) 0.01381(3) 0.71193(7)
C16? C 0.1812(5) -0.0076(6) 0.0416(10)
C17? C 0.1999(7) 0.0115(8) -0.0132(17)
H28? H 0.1876 0.0098 -0.0485
H29? H 0.2133 0.0052 -0.0261
H30? H 0.2106 0.0314 0.0006
C18? C 0.1658(8) -0.0392(6) 0.021(2)
H31? H 0.1525 -0.0421 -0.0132
H32? H 0.1552 -0.0514 0.0563
H33? H 0.1799 -0.0442 0.0063
C19? C 0.1594(7) 0.0014(8) 0.0613(16)
H34? H 0.1467 -0.0013 0.0261
H35? H 0.1696 0.0216 0.0736
H36? H 0.1481 -0.0103 0.0967
loop_
_geom_bond_atom_site_label_1
_geom_bond_atom_site_label_2
_geom_bond_site_symmetry_1
_geom_bond_site_symmetry_2
Fe1 N1 1_555 1_555
Fe2 N5 1_555 1_555
Fe3 N7 1_555 1_555
Ni1 N3 1_555 1_555
N1 C45 1_555 1_555
N2 C50 1_555 1_555
N3 C57 1_555 1_555
N4 C63 1_555 1_555
N5 C68 1_555 1_555
N6 C73 1_555 1_555
N7 C80 1_555 1_555
N8 C86 1_555 1_555
O1 Fe1 1_555 1_555
O2 Fe3 1_555 1_555
O3 Fe1 1_555 1_555
O4 Fe2 1_555 1_555
O5 Fe1 1_555 1_555
O6 Fe2 1_555 1_555
O7 Fe1 1_555 1_555
O8 C11 1_555 1_555
O9 Fe1 1_555 1_555
O10 C20 1_555 1_555
O11 Fe2 1_555 1_555
O12 C25 1_555 1_555
O13 Fe2 1_555 1_555
O14 C30 1_555 1_555
O15 Fe3 1_555 1_555
O16 C35 1_555 1_555
O17 Fe3 1_555 1_555
O18 C40 1_555 1_555
C1 O3 1_555 1_555
C2 C1 1_555 1_555
C3 C2 1_555 1_555
H1 C3 1_555 1_555
H2 C3 1_555 1_555
H3 C3 1_555 1_555
C4 C2 1_555 1_555
H4 C4 1_555 1_555
H5 C4 1_555 1_555
H6 C4 1_555 1_555
C5 C2 1_555 1_555
H7 C5 1_555 1_555
H8 C5 1_555 1_555
H9 C5 1_555 1_555
C6 O5 1_555 1_555
C7 C6 1_555 1_555
C8 C7 1_555 1_555
H10 C8 1_555 1_555
H11 C8 1_555 1_555
H12 C8 1_555 1_555
C9 C7 1_555 1_555
H13 C9 1_555 1_555
H14 C9 1_555 1_555
H15 C9 1_555 1_555
C10 C7 1_555 1_555
H16 C10 1_555 1_555
H17 C10 1_555 1_555
H18 C10 1_555 1_555
C11 O7 1_555 1_555
C12 C11 1_555 1_555
C13 C12 1_555 1_555
H19 C13 1_555 1_555
H20 C13 1_555 1_555
H21 C13 1_555 1_555
C14 C12 1_555 1_555
H22 C14 1_555 1_555
H23 C14 1_555 1_555
H24 C14 1_555 1_555
C15 C12 1_555 1_555
H25 C15 1_555 1_555
H26 C15 1_555 1_555
H27 C15 1_555 1_555
C20 O9 1_555 1_555
C21 C20 1_555 1_555
C22 C21 1_555 1_555
H37 C22 1_555 1_555
H38 C22 1_555 1_555
H39 C22 1_555 1_555
C23 C21 1_555 1_555
H40 C23 1_555 1_555
H41 C23 1_555 1_555
H42 C23 1_555 1_555
C24 C21 1_555 1_555
H43 C24 1_555 1_555
H44 C24 1_555 1_555
H45 C24 1_555 1_555
C25 O11 1_555 1_555
C26 C25 1_555 1_555
C27 C26 1_555 1_555
H46 C27 1_555 1_555
H47 C27 1_555 1_555
H48 C27 1_555 1_555
C28 C26 1_555 1_555
H49 C28 1_555 1_555
H50 C28 1_555 1_555
H51 C28 1_555 1_555
C29 C26 1_555 1_555
H52 C29 1_555 1_555
H53 C29 1_555 1_555
H54 C29 1_555 1_555
C30 O13 1_555 1_555
C31 C30 1_555 1_555
C32 C31 1_555 1_555
H55 C32 1_555 1_555
H56 C32 1_555 1_555
H57 C32 1_555 1_555
C33 C31 1_555 1_555
H58 C33 1_555 1_555
H59 C33 1_555 1_555
H60 C33 1_555 1_555
C34 C31 1_555 1_555
H61 C34 1_555 1_555
H62 C34 1_555 1_555
H63 C34 1_555 1_555
C35 O15 1_555 1_555
C36 C35 1_555 1_555
C37 C36 1_555 1_555
H64 C37 1_555 1_555
H65 C37 1_555 1_555
H66 C37 1_555 1_555
C38 C36 1_555 1_555
H67 C38 1_555 1_555
H68 C38 1_555 1_555
H69 C38 1_555 1_555
C39 C36 1_555 1_555
H70 C39 1_555 1_555
H71 C39 1_555 1_555
H72 C39 1_555 1_555
C40 O17 1_555 1_555
C41 C40 1_555 1_555
C42 C41 1_555 1_555
H73 C42 1_555 1_555
H74 C42 1_555 1_555
H75 C42 1_555 1_555
C43 C41 1_555 1_555
H76 C43 1_555 1_555
H77 C43 1_555 1_555
H78 C43 1_555 1_555
C44 C41 1_555 1_555
H79 C44 1_555 1_555
H80 C44 1_555 1_555
H81 C44 1_555 1_555
C45 H82 1_555 1_555
C46 C45 1_555 1_555
H83 C46 1_555 1_555
C47 C46 1_555 1_555
C48 C47 1_555 1_555
H84 C48 1_555 1_555
C49 N1 1_555 1_555
H85 C49 1_555 1_555
C50 C47 1_555 1_555
C51 C50 1_555 1_555
H86 C51 1_555 1_555
C52 C51 1_555 1_555
C53 C52 1_555 1_555
H87 C53 1_555 1_555
C54 N2 1_555 1_555
C55 C54 1_555 1_555
C56 C55 1_555 1_555
H88 C56 1_555 1_555
C57 C56 1_555 1_555
H89 C57 1_555 1_555
C58 N3 1_555 1_555
H90 C58 1_555 1_555
C59 C55 1_555 1_555
H91 C59 1_555 1_555
C60 C52 1_555 1_555
C61 C60 1_555 1_555
H92 C61 1_555 1_555
C62 C61 1_555 1_555
H93 C62 1_555 1_555
C63 C62 1_555 1_555
C64 C63 1_555 1_555
H94 C64 1_555 1_555
C65 C60 1_555 1_555
H95 C65 1_555 1_555
C66 N4 1_555 1_555
H96 C66 1_555 1_555
H97 C66 1_555 1_555
H98 C66 1_555 1_555
C67 N4 1_555 1_555
H99 C67 1_555 1_555
H100 C67 1_555 1_555
H101 C67 1_555 1_555
C68 H102 1_555 1_555
C69 C68 1_555 1_555
H103 C69 1_555 1_555
C70 C69 1_555 1_555
C71 C70 1_555 1_555
H104 C71 1_555 1_555
C72 N5 1_555 1_555
H105 C72 1_555 1_555
C73 C70 1_555 1_555
C74 C73 1_555 1_555
H106 C74 1_555 1_555
C75 C74 1_555 1_555
C76 C75 1_555 1_555
H107 C76 1_555 1_555
C77 N6 1_555 1_555
C78 C77 1_555 1_555
C79 C78 1_555 1_555
H108 C79 1_555 1_555
C80 C79 1_555 1_555
H109 C80 1_555 1_555
C81 N7 1_555 1_555
H110 C81 1_555 1_555
C82 C78 1_555 1_555
H111 C82 1_555 1_555
C83 C75 1_555 1_555
C84 C83 1_555 1_555
H112 C84 1_555 1_555
C85 C84 1_555 1_555
H113 C85 1_555 1_555
C86 C85 1_555 1_555
C87 C86 1_555 1_555
H114 C87 1_555 1_555
C88 C83 1_555 1_555
H115 C88 1_555 1_555
C89 N8 1_555 1_555
H116 C89 1_555 1_555
H117 C89 1_555 1_555
H118 C89 1_555 1_555
C90 N8 1_555 1_555
H119 C90 1_555 1_555
H120 C90 1_555 1_555
H121 C90 1_555 1_555
N9 C91 1_555 1_555
O19 C91 1_555 1_555
C91 H122 1_555 1_555
C92 N9 1_555 1_555
H123 C92 1_555 1_555
H124 C92 1_555 1_555
H125 C92 1_555 1_555
C93 N9 1_555 1_555
H126 C93 1_555 1_555
H127 C93 1_555 1_555
H128 C93 1_555 1_555
N10 C94 1_555 1_555
O20 C94 1_555 1_555
C94 H129 1_555 1_555
C95 N10 1_555 1_555
H130 C95 1_555 1_555
H131 C95 1_555 1_555
H132 C95 1_555 1_555
C96 N10 1_555 1_555
H133 C96 1_555 1_555
H134 C96 1_555 1_555
H135 C96 1_555 1_555
N11 C97 1_555 1_555
O21 C97 1_555 1_555
C97 H136 1_555 1_555
C98 N11 1_555 1_555
H137 C98 1_555 1_555
H138 C98 1_555 1_555
H139 C98 1_555 1_555
C99 N11 1_555 1_555
H140 C99 1_555 1_555
H141 C99 1_555 1_555
H142 C99 1_555 1_555
N12 C100 1_555 1_555
O22 C100 1_555 1_555
C100 H143 1_555 1_555
C101 N12 1_555 1_555
H144 C101 1_555 1_555
H145 C101 1_555 1_555
H146 C101 1_555 1_555
C102 N12 1_555 1_555
H147 C102 1_555 1_555
H148 C102 1_555 1_555
H149 C102 1_555 1_555
N13 C103 1_555 1_555
O23 C103 1_555 1_555
C103 H150 1_555 1_555
C104 N13 1_555 1_555
H151 C104 1_555 1_555
H152 C104 1_555 1_555
H153 C104 1_555 1_555
C105 N13 1_555 1_555
H154 C105 1_555 1_555
H155 C105 1_555 1_555
H156 C105 1_555 1_555
Fe1K N1K 1_555 1_555
Fe1J N1J 1_555 1_555
Fe2J N5J 1_555 1_555
Fe2K N5K 1_555 1_555
Fe3J N7J 1_555 1_555
Fe3A O2 1_555 1_555
Fe3B O2 1_555 1_555
Fe3K N7K 1_555 1_555
Fe3I O2I 1_555 1_555
Ni1K O1 1_555 1_555
Ni1J N3J 1_555 1_555
Ni1A O1K 1_555 1_555
N1K C45K 1_555 1_555
N1J C45J 1_555 1_555
N2K C50K 1_555 1_555
N2J C50J 1_555 1_555
N3K Ni1K 1_555 1_555
N3J C57J 1_555 1_555
N4K C63K 1_555 1_555
N4J C63J 1_555 1_555
N5J C68J 1_555 1_555
N5K C68K 1_555 1_555
N6J C73J 1_555 1_555
N6K C73K 1_555 1_555
N7J C80J 1_555 1_555
N7K C80K 1_555 1_555
N7A Fe3A 1_555 1_555
N8J C86J 1_555 1_555
N8K C86K 1_555 1_555
O1J Ni1 1_555 1_555
O1K Fe1K 1_555 1_555
O1B Ni1J 1_555 1_555
O2I Fe3J 1_555 1_555
O3K Fe1K 1_555 1_555
O3J Fe1J 1_555 1_555
O4K Fe2K 1_555 1_555
O4J Fe2J 1_555 1_555
O5K Fe1K 1_555 1_555
O5J Fe1J 1_555 1_555
O6K Fe2K 1_555 1_555
O6J Fe2J 1_555 1_555
O7J Fe1J 1_555 1_555
O7K Fe1K 1_555 1_555
O8J Ni1 1_555 1_555
O8K Ni1A 1_555 1_555
O8B Ni1J 1_555 1_555
O9J Fe1J 1_555 1_555
O9K Fe1K 1_555 1_555
O10J Ni1 1_555 1_555
O10K Ni1A 1_555 1_555
O10B Ni1J 1_555 1_555
O11J Fe2J 1_555 1_555
O11K Fe2K 1_555 1_555
O12J Ni1 1_555 1_555
O12K Ni1A 1_555 1_555
O12B Ni1J 1_555 1_555
O13J Fe2J 1_555 1_555
O13K Fe2K 1_555 1_555
O14J Ni1 1_555 1_555
O14K Ni1A 1_555 1_555
O14B Ni1J 1_555 1_555
O15A Fe3A 1_555 1_555
O15J Fe3J 1_555 1_555
O16A Fe3 1_555 1_555
O16J Fe3I 1_555 1_555
O16K Fe3J 1_555 1_555
O16B Fe3A 1_555 1_555
O17B Fe3B 1_555 1_555
O17J Fe3J 1_555 1_555
O17A Fe3A 1_555 1_555
O18B Fe3 1_555 1_555
O18J Fe3K 1_555 1_555
O18I Fe3J 1_555 1_555
C1K O3K 1_555 1_555
C1J O3J 1_555 1_555
C2K C1K 1_555 1_555
C2J C1J 1_555 1_555
C3K C2K 1_555 1_555
C3J C2J 1_555 1_555
H1K C3K 1_555 1_555
H1J C3J 1_555 1_555
H2K C3K 1_555 1_555
H2J C3J 1_555 1_555
H3K C3K 1_555 1_555
H3J C3J 1_555 1_555
C4K C2K 1_555 1_555
C4J C2J 1_555 1_555
H4K C4K 1_555 1_555
H4J C4J 1_555 1_555
H5K C4K 1_555 1_555
H5J C4J 1_555 1_555
H6K C4K 1_555 1_555
H6J C4J 1_555 1_555
C5K C2K 1_555 1_555
C5J C2J 1_555 1_555
H7K C5K 1_555 1_555
H7J C5J 1_555 1_555
H8K C5K 1_555 1_555
H8J C5J 1_555 1_555
H9K C5K 1_555 1_555
H9J C5J 1_555 1_555
C6K O5K 1_555 1_555
C6J O5J 1_555 1_555
C7K C6K 1_555 1_555
C7J C6J 1_555 1_555
C8K C7K 1_555 1_555
C8J C7J 1_555 1_555
H10K C8K 1_555 1_555
H10J C8J 1_555 1_555
H11K C8K 1_555 1_555
H11J C8J 1_555 1_555
H12K C8K 1_555 1_555
H12J C8J 1_555 1_555
C9K C7K 1_555 1_555
C9J C7J 1_555 1_555
H13K C9K 1_555 1_555
H13J C9J 1_555 1_555
H14K C9K 1_555 1_555
H14J C9J 1_555 1_555
H15K C9K 1_555 1_555
H15J C9J 1_555 1_555
C10K C7K 1_555 1_555
C10J C7J 1_555 1_555
H16K C10K 1_555 1_555
H16J C10J 1_555 1_555
H17K C10K 1_555 1_555
H17J C10J 1_555 1_555
H18K C10K 1_555 1_555
H18J C10J 1_555 1_555
C11J O7J 1_555 1_555
C11K O7K 1_555 1_555
C12J C11J 1_555 1_555
C12K C11K 1_555 1_555
C13J C12J 1_555 1_555
C13K C12K 1_555 1_555
H19J C13J 1_555 1_555
H19K C13K 1_555 1_555
H20J C13J 1_555 1_555
H20K C13K 1_555 1_555
H21J C13J 1_555 1_555
H21K C13K 1_555 1_555
C14J C12J 1_555 1_555
C14K C12K 1_555 1_555
H22J C14J 1_555 1_555
H22K C14K 1_555 1_555
H23J C14J 1_555 1_555
H23K C14K 1_555 1_555
H24J C14J 1_555 1_555
H24K C14K 1_555 1_555
C15J C12J 1_555 1_555
C15K C12K 1_555 1_555
H25J C15J 1_555 1_555
H25K C15K 1_555 1_555
H26J C15J 1_555 1_555
H26K C15K 1_555 1_555
H27J C15J 1_555 1_555
H27K C15K 1_555 1_555
C20J O9J 1_555 1_555
C20K O9K 1_555 1_555
C21J C20J 1_555 1_555
C21K C20K 1_555 1_555
C22J C21J 1_555 1_555
C22K C21K 1_555 1_555
H37J C22J 1_555 1_555
H37K C22K 1_555 1_555
H38J C22J 1_555 1_555
H38K C22K 1_555 1_555
H39J C22J 1_555 1_555
H39K C22K 1_555 1_555
C23J C21J 1_555 1_555
C23K C21K 1_555 1_555
H40J C23J 1_555 1_555
H40K C23K 1_555 1_555
H41J C23J 1_555 1_555
H41K C23K 1_555 1_555
H42J C23J 1_555 1_555
H42K C23K 1_555 1_555
C24J C21J 1_555 1_555
C24K C21K 1_555 1_555
H43J C24J 1_555 1_555
H43K C24K 1_555 1_555
H44J C24J 1_555 1_555
H44K C24K 1_555 1_555
H45J C24J 1_555 1_555
H45K C24K 1_555 1_555
C25J O11J 1_555 1_555
C25K O11K 1_555 1_555
C26J C25J 1_555 1_555
C26K C25K 1_555 1_555
C27J C26J 1_555 1_555
C27K C26K 1_555 1_555
H46J C27J 1_555 1_555
H46K C27K 1_555 1_555
H47J C27J 1_555 1_555
H47K C27K 1_555 1_555
H48J C27J 1_555 1_555
H48K C27K 1_555 1_555
C28J C26J 1_555 1_555
C28K C26K 1_555 1_555
H49J C28J 1_555 1_555
H49K C28K 1_555 1_555
H50J C28J 1_555 1_555
H50K C28K 1_555 1_555
H51J C28J 1_555 1_555
H51K C28K 1_555 1_555
C29J C26J 1_555 1_555
C29K C26K 1_555 1_555
H52J C29J 1_555 1_555
H52K C29K 1_555 1_555
H53J C29J 1_555 1_555
H53K C29K 1_555 1_555
H54J C29J 1_555 1_555
H54K C29K 1_555 1_555
C30J O13J 1_555 1_555
C30K O13K 1_555 1_555
C31J C30J 1_555 1_555
C31K C30K 1_555 1_555
C32J C31J 1_555 1_555
C32K C31K 1_555 1_555
H55J C32J 1_555 1_555
H55K C32K 1_555 1_555
H56J C32J 1_555 1_555
H56K C32K 1_555 1_555
H57J C32J 1_555 1_555
H57K C32K 1_555 1_555
C33J C31J 1_555 1_555
C33K C31K 1_555 1_555
H58J C33J 1_555 1_555
H58K C33K 1_555 1_555
H59J C33J 1_555 1_555
H59K C33K 1_555 1_555
H60J C33J 1_555 1_555
H60K C33K 1_555 1_555
C34J C31J 1_555 1_555
C34K C31K 1_555 1_555
H61J C34J 1_555 1_555
H61K C34K 1_555 1_555
H62J C34J 1_555 1_555
H62K C34K 1_555 1_555
H63J C34J 1_555 1_555
H63K C34K 1_555 1_555
C35A O15A 1_555 1_555
C35J O15J 1_555 1_555
C36A C35A 1_555 1_555
C36J C35J 1_555 1_555
C37A C36A 1_555 1_555
C37J C36J 1_555 1_555
H64A C37A 1_555 1_555
H64J C37J 1_555 1_555
H65A C37A 1_555 1_555
H65J C37J 1_555 1_555
H66A C37A 1_555 1_555
H66J C37J 1_555 1_555
C38A C36A 1_555 1_555
C38J C36J 1_555 1_555
H67A C38A 1_555 1_555
H67J C38J 1_555 1_555
H68A C38A 1_555 1_555
H68J C38J 1_555 1_555
H69A C38A 1_555 1_555
H69J C38J 1_555 1_555
C39A C36A 1_555 1_555
C39J C36J 1_555 1_555
H70A C39A 1_555 1_555
H70J C39J 1_555 1_555
H71A C39A 1_555 1_555
H71J C39J 1_555 1_555
H72A C39A 1_555 1_555
H72J C39J 1_555 1_555
C40B O17B 1_555 1_555
C40J O17J 1_555 1_555
C41B C40B 1_555 1_555
C41J C40J 1_555 1_555
C42B C41B 1_555 1_555
C42J C41J 1_555 1_555
H73B C42B 1_555 1_555
H73J C42J 1_555 1_555
H74B C42B 1_555 1_555
H74J C42J 1_555 1_555
H75B C42B 1_555 1_555
H75J C42J 1_555 1_555
C43B C41B 1_555 1_555
C43J C41J 1_555 1_555
H76B C43B 1_555 1_555
H76J C43J 1_555 1_555
H77B C43B 1_555 1_555
H77J C43J 1_555 1_555
H78B C43B 1_555 1_555
H78J C43J 1_555 1_555
C44B C41B 1_555 1_555
C44J C41J 1_555 1_555
H79B C44B 1_555 1_555
H79J C44J 1_555 1_555
H80B C44B 1_555 1_555
H80J C44J 1_555 1_555
H81B C44B 1_555 1_555
H81J C44J 1_555 1_555
C45K H82K 1_555 1_555
C45J H82J 1_555 1_555
C46K C45K 1_555 1_555
C46J C45J 1_555 1_555
H83K C46K 1_555 1_555
H83J C46J 1_555 1_555
C47K C46K 1_555 1_555
C47J C46J 1_555 1_555
C48K C47K 1_555 1_555
C48J C47J 1_555 1_555
H84K C48K 1_555 1_555
H84J C48J 1_555 1_555
C49K N1K 1_555 1_555
C49J N1J 1_555 1_555
H85K C49K 1_555 1_555
H85J C49J 1_555 1_555
C50K C47K 1_555 1_555
C50J C47J 1_555 1_555
C51K C50K 1_555 1_555
C51J C50J 1_555 1_555
H86K C51K 1_555 1_555
H86J C51J 1_555 1_555
C52K C51K 1_555 1_555
C52J C51J 1_555 1_555
C53K C52K 1_555 1_555
C53J C52J 1_555 1_555
H87K C53K 1_555 1_555
H87J C53J 1_555 1_555
C54K N2K 1_555 1_555
C54J N2J 1_555 1_555
C55K C54K 1_555 1_555
C55J C54J 1_555 1_555
C56K C55K 1_555 1_555
C56J C55J 1_555 1_555
H88K C56K 1_555 1_555
H88J C56J 1_555 1_555
C57K N3K 1_555 1_555
C57J C56J 1_555 1_555
H89K C57K 1_555 1_555
H89J C57J 1_555 1_555
C58K N3K 1_555 1_555
C58J N3J 1_555 1_555
H90K C58K 1_555 1_555
H90J C58J 1_555 1_555
C59K C55K 1_555 1_555
C59J C55J 1_555 1_555
H91K C59K 1_555 1_555
H91J C59J 1_555 1_555
C60K C52K 1_555 1_555
C60J C52J 1_555 1_555
C61K C60K 1_555 1_555
C61J C60J 1_555 1_555
H92K C61K 1_555 1_555
H92J C61J 1_555 1_555
C62K C61K 1_555 1_555
C62J C61J 1_555 1_555
H93K C62K 1_555 1_555
H93J C62J 1_555 1_555
C63K C62K 1_555 1_555
C63J C62J 1_555 1_555
C64K C63K 1_555 1_555
C64J C63J 1_555 1_555
H94K C64K 1_555 1_555
H94J C64J 1_555 1_555
C65K C60K 1_555 1_555
C65J C60J 1_555 1_555
H95K C65K 1_555 1_555
H95J C65J 1_555 1_555
C66K N4K 1_555 1_555
C66J N4J 1_555 1_555
H96K C66K 1_555 1_555
H96J C66J 1_555 1_555
H97K C66K 1_555 1_555
H97J C66J 1_555 1_555
H98K C66K 1_555 1_555
H98J C66J 1_555 1_555
C67K N4K 1_555 1_555
C67J N4J 1_555 1_555
H99K C67K 1_555 1_555
H99J C67J 1_555 1_555
H100K C67K 1_555 1_555
H100J C67J 1_555 1_555
H101K C67K 1_555 1_555
H101J C67J 1_555 1_555
C68J H102J 1_555 1_555
C68K H102K 1_555 1_555
C69J C68J 1_555 1_555
C69K C68K 1_555 1_555
H103J C69J 1_555 1_555
H103K C69K 1_555 1_555
C70J C69J 1_555 1_555
C70K C69K 1_555 1_555
C71J C70J 1_555 1_555
C71K C70K 1_555 1_555
H104J C71J 1_555 1_555
H104K C71K 1_555 1_555
C72J N5J 1_555 1_555
C72K N5K 1_555 1_555
H105J C72J 1_555 1_555
H105K C72K 1_555 1_555
C73J C70J 1_555 1_555
C73K C70K 1_555 1_555
C74J C73J 1_555 1_555
C74K C73K 1_555 1_555
H106J C74J 1_555 1_555
H106K C74K 1_555 1_555
C75J C74J 1_555 1_555
C75K C74K 1_555 1_555
C76J C75J 1_555 1_555
C76K C75K 1_555 1_555
H107J C76J 1_555 1_555
H107K C76K 1_555 1_555
C77J N6J 1_555 1_555
C77K N6K 1_555 1_555
C78J C77J 1_555 1_555
C78K C77K 1_555 1_555
C79J C78J 1_555 1_555
C79K C78K 1_555 1_555
H108J C79J 1_555 1_555
H108K C79K 1_555 1_555
C80J C79J 1_555 1_555
C80K C79K 1_555 1_555
H109J C80J 1_555 1_555
H109K C80K 1_555 1_555
C81J N7J 1_555 1_555
C81K N7K 1_555 1_555
H110J C81J 1_555 1_555
H110K C81K 1_555 1_555
C82J C78J 1_555 1_555
C82K C78K 1_555 1_555
H111J C82J 1_555 1_555
H111K C82K 1_555 1_555
C83J C75J 1_555 1_555
C83K C75K 1_555 1_555
C84J C83J 1_555 1_555
C84K C83K 1_555 1_555
H112J C84J 1_555 1_555
H112K C84K 1_555 1_555
C85J C84J 1_555 1_555
C85K C84K 1_555 1_555
H113J C85J 1_555 1_555
H113K C85K 1_555 1_555
C86J C85J 1_555 1_555
C86K C85K 1_555 1_555
C87J C86J 1_555 1_555
C87K C86K 1_555 1_555
H114J C87J 1_555 1_555
H114K C87K 1_555 1_555
C88J C83J 1_555 1_555
C88K C83K 1_555 1_555
H115J C88J 1_555 1_555
H115K C88K 1_555 1_555
C89J N8J 1_555 1_555
C89K N8K 1_555 1_555
H116J C89J 1_555 1_555
H116K C89K 1_555 1_555
H117J C89J 1_555 1_555
H117K C89K 1_555 1_555
H118J C89J 1_555 1_555
H118K C89K 1_555 1_555
C90J N8J 1_555 1_555
C90K N8K 1_555 1_555
H119J C90J 1_555 1_555
H119K C90K 1_555 1_555
H120J C90J 1_555 1_555
H120K C90K 1_555 1_555
H121J C90J 1_555 1_555
H121K C90K 1_555 1_555
Fe2 O1 1_555 1_555
O4 C1 1_555 1_555
O6 C6 1_555 1_555
O8 Ni1K 1_555 1_555
O10 Ni1K 1_555 1_555
O12 Ni1K 1_555 1_555
O14 Ni1K 1_555 1_555
O16 Fe3B 1_555 1_555
O18 Fe3A 1_555 1_555
C48 C49 1_555 1_555
C53 C54 1_555 1_555
C58 C59 1_555 1_555
C64 C65 1_555 1_555
C71 C72 1_555 1_555
C76 C77 1_555 1_555
C81 C82 1_555 1_555
C87 C88 1_555 1_555
Fe1J O1J 1_555 1_555
Fe2J O1J 1_555 1_555
Fe2K O1K 1_555 1_555
Fe3K O2I 1_555 1_555
O4K C1K 1_555 1_555
O4J C1J 1_555 1_555
O6K C6K 1_555 1_555
O6J C6J 1_555 1_555
O8J C11J 1_555 1_555
O8K C11K 1_555 1_555
O10J C20J 1_555 1_555
O10K C20K 1_555 1_555
O12J C25J 1_555 1_555
O12K C25K 1_555 1_555
O14J C30J 1_555 1_555
O14K C30K 1_555 1_555
O16A C35A 1_555 1_555
O16J C35J 1_555 1_555
O18B C40B 1_555 1_555
O18J C40J 1_555 1_555
C48K C49K 1_555 1_555
C48J C49J 1_555 1_555
C53K C54K 1_555 1_555
C53J C54J 1_555 1_555
C56K C57K 1_555 1_555
C58K C59K 1_555 1_555
C58J C59J 1_555 1_555
C64K C65K 1_555 1_555
C64J C65J 1_555 1_555
C71J C72J 1_555 1_555
C71K C72K 1_555 1_555
C76J C77J 1_555 1_555
C76K C77K 1_555 1_555
C81J C82J 1_555 1_555
C81K C82K 1_555 1_555
C87J C88J 1_555 1_555
C87K C88K 1_555 1_555

#END
