
#######################################################################
#
#                 Cambridge Crystallographic Data Centre
#                                CCDC 
#
#######################################################################
#
# If this CIF has been generated from an entry in the Cambridge 
# Structural Database, then it will include bibliographic, chemical, 
# crystal, experimental, refinement or atomic coordinate data resulting 
# from the CCDC's data processing and validation procedures.
#
#######################################################################

data_CAPDUT
_symmetry_cell_setting           orthorhombic
_symmetry_space_group_name_H-M   'P n a 21'
_symmetry_Int_Tables_number      33
_space_group_name_Hall           'P 2c -2n'
loop_
_symmetry_equiv_pos_site_id
_symmetry_equiv_pos_as_xyz
1 x,y,z
2 -x,-y,1/2+z
3 1/2+x,1/2-y,z
4 1/2-x,1/2+y,1/2+z
_cell_length_a                   12.634(3)
_cell_length_b                   10.180(2)
_cell_length_c                   13.594(3)
_cell_angle_alpha                90
_cell_angle_beta                 90
_cell_angle_gamma                90
_cell_volume                     1748.38
loop_
_atom_site_label
_atom_site_type_symbol
_atom_site_fract_x
_atom_site_fract_y
_atom_site_fract_z
Ag1 Ag 0.22766(3) -0.21694(3) 1.44257(5)
O1 O 0.3816(3) -0.0501(3) 1.4508(4)
O2 O 0.3860(3) 0.6226(3) 1.3919(3)
N1 N 0.1813(3) -0.0377(4) 1.5244(3)
N2 N 0.3480(3) 0.2887(3) 1.4198(3)
N3 N 0.1749(3) 0.6228(3) 1.3462(3)
C1 C 0.0907(4) -0.0347(5) 1.5766(4)
H1 H 0.0445 -0.1056 1.5719
C2 C 0.0638(4) 0.0696(5) 1.6368(4)
H2 H 0.0006 0.0690 1.6717
C3 C 0.1320(5) 0.1739(5) 1.6440(4)
H3 H 0.1166 0.2436 1.6859
C4 C 0.2236(4) 0.1749(5) 1.5889(4)
H4 H 0.2697 0.2460 1.5916
C5 C 0.2456(4) 0.0679(4) 1.5295(4)
C6 C 0.3455(4) 0.0570(4) 1.4712(3)
C7 C 0.4043(3) 0.1793(4) 1.4404(4)
C8 C 0.5134(3) 0.1718(4) 1.4298(4)
H5 H 0.5498 0.0955 1.4464
C9 C 0.5670(4) 0.2807(5) 1.3938(5)
H6 H 0.6397 0.2778 1.3835
C10 C 0.5105(4) 0.3929(5) 1.3738(4)
H7 H 0.5447 0.4678 1.3510
C11 C 0.4029(3) 0.3930(4) 1.3880(4)
C12 C 0.3437(3) 0.5193(4) 1.3713(3)
C13 C 0.2363(4) 0.5182(5) 1.3254(4)
C14 C 0.2060(4) 0.4215(5) 1.2591(4)
H8 H 0.2499 0.3498 1.2475
C15 C 0.1102(4) 0.4320(5) 1.2104(4)
H9 H 0.0897 0.3699 1.1640
C16 C 0.0463(4) 0.5377(5) 1.2328(5)
H10 H -0.0195 0.5467 1.2029
C17 C 0.0808(4) 0.6304(5) 1.3002(4)
H11 H 0.0368 0.7013 1.3144
Ag1_2 Ag 0.22766(3) 0.78306(3) 1.44257(5)
O2_2 O 0.3860(3) -0.3774(3) 1.3919(3)
N3_2 N 0.1749(3) -0.3772(3) 1.3462(3)
Cl1 Cl 0.25133(13) -0.94031(16) 1.15870(14)
O3 O 0.3013(7) -1.0071(8) 1.0823(6)
O4 O 0.2141(8) -1.0384(12) 1.2209(9)
O5 O 0.1694(6) -0.8582(6) 1.1256(6)
O6 O 0.3216(8) -0.8646(9) 1.2110(11)
loop_
_geom_bond_atom_site_label_1
_geom_bond_atom_site_label_2
_geom_bond_site_symmetry_1
_geom_bond_site_symmetry_2
Ag1 O1 1_555 1_555
O1 C6 1_555 1_555
O2 C12 1_555 1_555
N1 Ag1 1_555 1_555
N2 C7 1_555 1_555
N3 C13 1_555 1_555
C1 N1 1_555 1_555
H1 C1 1_555 1_555
C2 C1 1_555 1_555
H2 C2 1_555 1_555
C3 C2 1_555 1_555
H3 C3 1_555 1_555
C4 C3 1_555 1_555
H4 C4 1_555 1_555
C5 N1 1_555 1_555
C6 C5 1_555 1_555
C7 C6 1_555 1_555
C8 C7 1_555 1_555
H5 C8 1_555 1_555
C9 C8 1_555 1_555
H6 C9 1_555 1_555
C10 C9 1_555 1_555
H7 C10 1_555 1_555
C11 N2 1_555 1_555
C12 C11 1_555 1_555
C13 C12 1_555 1_555
C14 C13 1_555 1_555
H8 C14 1_555 1_555
C15 C14 1_555 1_555
H9 C15 1_555 1_555
C16 C15 1_555 1_555
H10 C16 1_555 1_555
C17 N3 1_555 1_555
H11 C17 1_555 1_555
Cl1 O3 1_555 1_555
O4 Cl1 1_555 1_555
O5 Cl1 1_555 1_555
O6 Cl1 1_555 1_555
Ag1_2 O2 1_555 1_555
O2_2 Ag1 1_555 1_555
N3_2 Ag1 1_555 1_555
N3 Ag1_2 1_555 1_555
C4 C5 1_555 1_555
C10 C11 1_555 1_555
C16 C17 1_555 1_555

#END
