
#######################################################################
#
#                 Cambridge Crystallographic Data Centre
#                                CCDC 
#
#######################################################################
#
# If this CIF has been generated from an entry in the Cambridge 
# Structural Database, then it will include bibliographic, chemical, 
# crystal, experimental, refinement or atomic coordinate data resulting 
# from the CCDC's data processing and validation procedures.
#
#######################################################################

data_CAPFAB
_symmetry_cell_setting           monoclinic
_symmetry_space_group_name_H-M   'P 21/c'
_symmetry_Int_Tables_number      14
_space_group_name_Hall           '-P 2ybc'
loop_
_symmetry_equiv_pos_site_id
_symmetry_equiv_pos_as_xyz
1 x,y,z
2 -x,1/2+y,1/2-z
3 -x,-y,-z
4 x,1/2-y,1/2+z
_cell_length_a                   15.4129(11)
_cell_length_b                   21.1731(15)
_cell_length_c                   12.2206(9)
_cell_angle_alpha                90
_cell_angle_beta                 93.362(2)
_cell_angle_gamma                90
_cell_volume                     3981.19
loop_
_atom_site_label
_atom_site_type_symbol
_atom_site_fract_x
_atom_site_fract_y
_atom_site_fract_z
Ag1 Ag 0.05757(2) 0.830614(15) 1.47741(3)
Ag2 Ag -0.43742(2) 0.842261(14) 1.58639(3)
N1 N -0.04031(19) 0.82584(13) 1.6069(3)
N2 N -0.27099(16) 0.91364(12) 1.5041(2)
N3 N -0.37483(19) 0.91258(15) 1.7022(3)
N4 N 0.4568(2) 0.82354(14) 1.4545(3)
N5 N 0.22846(16) 0.91369(13) 1.5382(2)
N6 N 0.1028(2) 0.89746(15) 1.3488(3)
N7 N 0.1703(2) 0.71639(16) 1.4980(3)
N8 N -0.3433(2) 0.72036(16) 1.5616(3)
C1 C -0.0135(3) 0.81424(19) 1.7109(4)
H1 H 0.0460 0.8110 1.7278
C2 C -0.0682(3) 0.8069(2) 1.7939(4)
H2 H -0.0465 0.7985 1.8651
C3 C -0.1569(3) 0.8121(2) 1.7692(4)
H3 H -0.1960 0.8069 1.8236
C4 C -0.1861(2) 0.82504(17) 1.6636(4)
H4 H -0.2454 0.8290 1.6458
C5 C -0.1268(2) 0.83221(15) 1.5835(3)
C6 C -0.1522(2) 0.84306(15) 1.4653(3)
C7 C -0.2341(2) 0.87823(15) 1.4293(3)
C8 C -0.2658(3) 0.87372(19) 1.3212(3)
H5 H -0.2396 0.8470 1.2726
C9 C -0.3376(3) 0.9100(2) 1.2868(3)
H6 H -0.3596 0.9088 1.2144
C10 C -0.3747(2) 0.9471(2) 1.3610(3)
H7 H -0.4224 0.9720 1.3399
C11 C -0.3411(2) 0.94760(16) 1.4690(3)
C12 C -0.3790(2) 0.98943(16) 1.5525(3)
C13 C -0.3635(2) 0.97353(18) 1.6714(3)
C14 C -0.3388(3) 1.0202(2) 1.7455(4)
H8 H -0.3333 1.0617 1.7221
C15 C -0.3221(4) 1.0049(3) 1.8551(5)
H9 H -0.3040 1.0357 1.9056
C16 C -0.3328(4) 0.9442(3) 1.8870(4)
H10 H -0.3224 0.9329 1.9601
C17 C -0.3590(3) 0.9002(2) 1.8113(4)
H11 H -0.3666 0.8590 1.8352
C18 C 0.4763(3) 0.80577(18) 1.3534(4)
H12 H 0.5346 0.8015 1.3391
C19 C 0.4161(3) 0.7936(2) 1.2709(4)
H13 H 0.4331 0.7818 1.2021
C20 C 0.3281(3) 0.79920(19) 1.2906(4)
H14 H 0.2852 0.7906 1.2360
C21 C 0.3070(2) 0.81795(17) 1.3940(3)
H15 H 0.2490 0.8221 1.4099
C22 C 0.3718(2) 0.83053(15) 1.4736(4)
C23 C 0.3556(2) 0.84937(16) 1.5891(3)
C24 C 0.2742(2) 0.88262(16) 1.6173(3)
C25 C 0.2517(3) 0.8823(2) 1.7259(3)
H16 H 0.2840 0.8592 1.7786
C26 C 0.1809(3) 0.9168(3) 1.7537(4)
H17 H 0.1638 0.9168 1.8255
C27 C 0.1362(3) 0.9509(2) 1.6751(4)
H18 H 0.0901 0.9765 1.6931
C28 C 0.1599(2) 0.94729(16) 1.5686(3)
C29 C 0.1125(2) 0.98451(17) 1.4809(4)
C30 C 0.1079(2) 0.96089(19) 1.3653(4)
C31 C 0.1095(3) 1.0029(3) 1.2809(5)
H19 H 0.1120 1.0460 1.2952
C32 C 0.1076(4) 0.9824(3) 1.1789(6)
H20 H 0.1081 1.0112 1.1214
C33 C 0.1050(4) 0.9188(4) 1.1571(5)
H21 H 0.1057 0.9035 1.0858
C34 C 0.1011(3) 0.8782(3) 1.2460(4)
H22 H 0.0972 0.8350 1.2322
O1 O -0.10622(19) 0.82321(14) 1.3955(2)
O2 O -0.42004(16) 1.03596(12) 1.5255(3)
O3 O 0.40989(19) 0.83848(14) 1.6633(3)
O4 O 0.07839(17) 1.03461(12) 1.5007(3)
O5 O 0.1215(2) 0.72653(17) 1.4177(3)
O6 O 0.1690(2) 0.75397(17) 1.5753(3)
O7 O 0.2241(3) 0.67283(18) 1.5000(4)
O8 O -0.3838(3) 0.73551(16) 1.6407(3)
O9 O -0.3370(3) 0.75803(18) 1.4864(3)
O10 O -0.3049(4) 0.66905(18) 1.5572(4)
Ag2_2 Ag 0.56258(2) 0.842261(14) 1.58639(3)
N4_2 N -0.5432(2) 0.82354(14) 1.4545(3)
O3_2 O -0.59011(19) 0.83848(14) 1.6633(3)
N9 N -0.8771(5) 1.0431(4) 0.9201(6)
C35 C -0.9016(6) 1.1626(3) 0.8992(6)
H23 H -0.9513 1.1743 0.9386
H24 H -0.9123 1.1725 0.8230
H25 H -0.8516 1.1855 0.9280
C36 C -0.8864(5) 1.0968(4) 0.9113(5)
N10 N -0.5739(6) 0.5267(4) 1.3767(6)
C37 C -0.5531(5) 0.6309(4) 1.4725(8)
H26 H -0.6085 0.6460 1.4930
H27 H -0.5290 0.6602 1.4226
H28 H -0.5146 0.6269 1.5368
C38 C -0.5633(5) 0.5725(5) 1.4223(6)
loop_
_geom_bond_atom_site_label_1
_geom_bond_atom_site_label_2
_geom_bond_site_symmetry_1
_geom_bond_site_symmetry_2
Ag1 N1 1_555 1_555
Ag2 N3 1_555 1_555
N1 C1 1_555 1_555
N2 C7 1_555 1_555
N3 C13 1_555 1_555
N4 C18 1_555 1_555
N5 C24 1_555 1_555
N6 Ag1 1_555 1_555
N7 O5 1_555 1_555
N8 O8 1_555 1_555
N9 C36 1_555 1_555
N10 C38 1_555 1_555
C1 H1 1_555 1_555
C2 C1 1_555 1_555
H2 C2 1_555 1_555
C3 C2 1_555 1_555
H3 C3 1_555 1_555
C4 C3 1_555 1_555
H4 C4 1_555 1_555
C5 N1 1_555 1_555
C6 C5 1_555 1_555
C7 C6 1_555 1_555
C8 C7 1_555 1_555
H5 C8 1_555 1_555
C9 C8 1_555 1_555
H6 C9 1_555 1_555
C10 C9 1_555 1_555
H7 C10 1_555 1_555
C11 N2 1_555 1_555
C12 C11 1_555 1_555
C13 C12 1_555 1_555
C14 C13 1_555 1_555
H8 C14 1_555 1_555
C15 C14 1_555 1_555
H9 C15 1_555 1_555
C16 C15 1_555 1_555
H10 C16 1_555 1_555
C17 N3 1_555 1_555
H11 C17 1_555 1_555
C18 H12 1_555 1_555
C19 C18 1_555 1_555
H13 C19 1_555 1_555
C20 C19 1_555 1_555
H14 C20 1_555 1_555
C21 C20 1_555 1_555
H15 C21 1_555 1_555
C22 N4 1_555 1_555
C23 C22 1_555 1_555
C24 C23 1_555 1_555
C25 C24 1_555 1_555
H16 C25 1_555 1_555
C26 C25 1_555 1_555
H17 C26 1_555 1_555
C27 C26 1_555 1_555
H18 C27 1_555 1_555
C28 N5 1_555 1_555
C29 C28 1_555 1_555
C30 N6 1_555 1_555
C31 C30 1_555 1_555
H19 C31 1_555 1_555
C32 C31 1_555 1_555
H20 C32 1_555 1_555
C33 C32 1_555 1_555
H21 C33 1_555 1_555
C34 N6 1_555 1_555
H22 C34 1_555 1_555
C35 H23 1_555 1_555
H24 C35 1_555 1_555
H25 C35 1_555 1_555
C36 C35 1_555 1_555
C37 H26 1_555 1_555
H27 C37 1_555 1_555
H28 C37 1_555 1_555
C38 C37 1_555 1_555
O1 Ag1 1_555 1_555
O2 C12 1_555 1_555
O3 C23 1_555 1_555
O4 C29 1_555 1_555
O5 Ag1 1_555 1_555
O6 Ag1 1_555 1_555
O7 N7 1_555 1_555
O8 Ag2 1_555 1_555
O9 Ag2 1_555 1_555
O10 N8 1_555 1_555
Ag2_2 N4 1_555 1_555
N4_2 Ag2 1_555 1_555
O3_2 Ag2 1_555 1_555
N7 O6 1_555 1_555
N8 O9 1_555 1_555
C4 C5 1_555 1_555
C6 O1 1_555 1_555
C10 C11 1_555 1_555
C16 C17 1_555 1_555
C21 C22 1_555 1_555
C27 C28 1_555 1_555
C29 C30 1_555 1_555
C33 C34 1_555 1_555
O3 Ag2_2 1_555 1_555

#END
