
#######################################################################
#
#                 Cambridge Crystallographic Data Centre
#                                CCDC 
#
#######################################################################
#
# If this CIF has been generated from an entry in the Cambridge 
# Structural Database, then it will include bibliographic, chemical, 
# crystal, experimental, refinement or atomic coordinate data resulting 
# from the CCDC's data processing and validation procedures.
#
#######################################################################

data_CAPHTH02
_symmetry_cell_setting           monoclinic
_symmetry_space_group_name_H-M   'P 21/c'
_symmetry_Int_Tables_number      14
_space_group_name_Hall           '-P 2ybc'
loop_
_symmetry_equiv_pos_site_id
_symmetry_equiv_pos_as_xyz
1 x,y,z
2 -x,1/2+y,1/2-z
3 -x,-y,-z
4 x,1/2-y,1/2+z
_cell_length_a                   11.2023(7)
_cell_length_b                   6.6774(4)
_cell_length_c                   11.9840(8)
_cell_angle_alpha                90
_cell_angle_beta                 98.910(7)
_cell_angle_gamma                90
_cell_volume                     885.613
loop_
_atom_site_label
_atom_site_type_symbol
_atom_site_fract_x
_atom_site_fract_y
_atom_site_fract_z
Ca1 Ca 0.44242(5) 0.11917(7) 0.30615(4)
C1 C 0.7686(2) 0.1401(4) 0.1507(2)
C2 C 0.8635(3) 0.0184(4) 0.1974(2)
H1 H 0.8507 -0.0809 0.2486
C3 C 0.9768(3) 0.0438(5) 0.1683(3)
H2 H 1.0408 -0.0353 0.2017
C4 C 0.9952(3) 0.1861(5) 0.0896(3)
H3 H 1.0715 0.2021 0.0694
C5 C 0.9009(3) 0.3049(4) 0.0410(2)
H4 H 0.9136 0.3988 -0.0133
C6 C 0.7871(2) 0.2859(4) 0.0720(2)
C7 C 0.6481(3) 0.1195(4) 0.1867(2)
C8 C 0.6828(2) 0.4060(4) 0.0124(2)
O1 O 0.61207(17) -0.0485(3) 0.21457(15)
O2 O 0.32366(18) 0.0881(3) 0.12435(15)
H5 H 0.3312 0.1755 0.0743
H6 H 0.3358 -0.0156 0.0865
O3 O 0.58491(16) 0.2742(3) 0.19191(14)
O4 O 0.67011(18) 0.5854(3) 0.04119(15)
O5 O 0.61549(17) 0.3151(3) -0.06410(15)
Ca1A Ca 0.55758(5) -0.38083(7) 0.19385(4)
Ca1A_2 Ca 0.55758(5) 0.61917(7) 0.19385(4)
Ca1C Ca 0.44242(5) 0.38083(7) -0.19385(4)
O1A O 0.38793(17) 0.4515(3) 0.28543(15)
O3A O 0.41509(16) -0.2258(3) 0.30809(14)
O4A O 0.32989(18) 0.0854(3) 0.45881(15)
O5C O 0.61549(17) 0.1849(3) 0.43590(15)
loop_
_geom_bond_atom_site_label_1
_geom_bond_atom_site_label_2
_geom_bond_site_symmetry_1
_geom_bond_site_symmetry_2
Ca1 O1 1_555 1_555
C1 C2 1_555 1_555
C2 H1 1_555 1_555
C3 C2 1_555 1_555
H2 C3 1_555 1_555
C4 C3 1_555 1_555
H3 C4 1_555 1_555
C5 C4 1_555 1_555
H4 C5 1_555 1_555
C6 C1 1_555 1_555
C7 C1 1_555 1_555
C8 C6 1_555 1_555
O1 C7 1_555 1_555
O2 Ca1 1_555 1_555
H5 O2 1_555 1_555
H6 O2 1_555 1_555
O3 Ca1 1_555 1_555
O4 C8 1_555 1_555
O5 C8 1_555 1_555
Ca1A O1 1_555 1_555
Ca1A_2 O3 1_555 1_555
Ca1C O5 1_555 1_555
O1A Ca1 1_555 1_555
O3A Ca1 1_555 1_555
O4A Ca1 1_555 1_555
O5C Ca1 1_555 1_555
C5 C6 1_555 1_555
C7 O3 1_555 1_555
O4 Ca1A_2 1_555 1_555
Ca1A O3A 1_555 1_555
Ca1A_2 O1A 1_555 1_555

#END
