
#######################################################################
#
#                 Cambridge Crystallographic Data Centre
#                                CCDC 
#
#######################################################################
#
# If this CIF has been generated from an entry in the Cambridge 
# Structural Database, then it will include bibliographic, chemical, 
# crystal, experimental, refinement or atomic coordinate data resulting 
# from the CCDC's data processing and validation procedures.
#
#######################################################################

data_CAPICL
_symmetry_cell_setting           monoclinic
_symmetry_space_group_name_H-M   'P 21/n'
_symmetry_Int_Tables_number      14
_space_group_name_Hall           '-P 2yn'
loop_
_symmetry_equiv_pos_site_id
_symmetry_equiv_pos_as_xyz
1 x,y,z
2 1/2-x,1/2+y,1/2-z
3 -x,-y,-z
4 1/2+x,1/2-y,1/2+z
_cell_length_a                   5.8693(12)
_cell_length_b                   17.848(4)
_cell_length_c                   9.897(2)
_cell_angle_alpha                90
_cell_angle_beta                 98.62(3)
_cell_angle_gamma                90
_cell_volume                     1025.05
loop_
_atom_site_label
_atom_site_type_symbol
_atom_site_fract_x
_atom_site_fract_y
_atom_site_fract_z
Ca1 Ca 0.23147(12) 0.07872(4) 0.47038(7)
O1 O -0.1211(4) 0.00491(13) 0.3640(2)
O2 O -0.3873(4) -0.02107(15) 0.1840(2)
O3 O 0.4816(4) 0.15489(14) 0.3543(2)
O4 O 0.5282(4) 0.23078(15) 0.1814(3)
O5 O 0.3765(5) -0.03929(17) 0.3937(3)
O6 O -0.0961(5) 0.15327(16) 0.5066(3)
O7 O 0.3627(5) 0.16257(18) 0.6725(3)
H1 H 0.2526 0.1727 0.7113
N1 N 0.0950(5) 0.10033(16) 0.2217(3)
C1 C -0.0983(6) 0.0686(2) 0.1569(3)
C2 C -0.1856(7) 0.0840(2) 0.0223(4)
H2 H -0.3192 0.0608 -0.0203
C3 C -0.0691(7) 0.1349(2) -0.0473(4)
H3 H -0.1247 0.1471 -0.1376
C4 C 0.1308(7) 0.1674(2) 0.0183(4)
H4 H 0.2129 0.2012 -0.0274
C5 C 0.2065(6) 0.1490(2) 0.1527(3)
C6 C 0.4236(6) 0.1816(2) 0.2354(4)
C7 C -0.2111(6) 0.0129(2) 0.2411(4)
H5 H 0.413 -0.034 0.316
H6 H 0.298 -0.072 0.396
H7 H -0.075 0.190 0.557
H8 H -0.216 0.160 0.451
H9 H 0.354 0.205 0.672
Ca1B Ca -0.23147(12) -0.07872(4) 0.52962(7)
Ca1B_2 Ca 0.76853(12) -0.07872(4) 0.52962(7)
O1B O 0.1211(4) -0.00491(13) 0.6360(2)
O5B O 0.6235(5) 0.03929(17) 0.6063(3)
H5B H 0.587 0.034 0.684
H6B H 0.702 0.072 0.604
loop_
_geom_bond_atom_site_label_1
_geom_bond_atom_site_label_2
_geom_bond_site_symmetry_1
_geom_bond_site_symmetry_2
Ca1 O1 1_555 1_555
O1 C7 1_555 1_555
O2 C7 1_555 1_555
O3 Ca1 1_555 1_555
O4 C6 1_555 1_555
O5 Ca1 1_555 1_555
O6 Ca1 1_555 1_555
O7 Ca1 1_555 1_555
H1 O7 1_555 1_555
N1 Ca1 1_555 1_555
C1 N1 1_555 1_555
C2 C1 1_555 1_555
H2 C2 1_555 1_555
C3 C2 1_555 1_555
H3 C3 1_555 1_555
C4 C3 1_555 1_555
H4 C4 1_555 1_555
C5 N1 1_555 1_555
C6 O3 1_555 1_555
C7 C1 1_555 1_555
H5 O5 1_555 1_555
H6 O5 1_555 1_555
H7 O6 1_555 1_555
H8 O6 1_555 1_555
H9 O7 1_555 1_555
Ca1B O1 1_555 1_555
Ca1B_2 O5 1_555 1_555
O1B Ca1 1_555 1_555
O5B Ca1 1_555 1_555
H5B O5B 1_555 1_555
H6B O5B 1_555 1_555
C4 C5 1_555 1_555
C5 C6 1_555 1_555
Ca1B O1B 1_555 1_555
Ca1B_2 O5B 1_555 1_555

#END
