
#######################################################################
#
#                 Cambridge Crystallographic Data Centre
#                                CCDC 
#
#######################################################################
#
# If this CIF has been generated from an entry in the Cambridge 
# Structural Database, then it will include bibliographic, chemical, 
# crystal, experimental, refinement or atomic coordinate data resulting 
# from the CCDC's data processing and validation procedures.
#
#######################################################################

data_CAPLUC
_symmetry_cell_setting           monoclinic
_symmetry_space_group_name_H-M   'P 21/n'
_symmetry_Int_Tables_number      14
_space_group_name_Hall           '-P 2yn'
loop_
_symmetry_equiv_pos_site_id
_symmetry_equiv_pos_as_xyz
1 x,y,z
2 1/2-x,1/2+y,1/2-z
3 -x,-y,-z
4 1/2+x,1/2-y,1/2+z
_cell_length_a                   11.1365(7)
_cell_length_b                   45.542(3)
_cell_length_c                   14.9617(9)
_cell_angle_alpha                90
_cell_angle_beta                 96.861(2)
_cell_angle_gamma                90
_cell_volume                     7533.91
loop_
_atom_site_label
_atom_site_type_symbol
_atom_site_fract_x
_atom_site_fract_y
_atom_site_fract_z
Cd1 Cd 0.38267(6) 0.335310(14) -0.10138(4)
I1 I 0.58624(6) 0.363590(14) -0.16959(4)
I2 I 0.18779(7) 0.303920(15) -0.02782(5)
Cd2 Cd 1.0000 0.5000 0.5000
I3 I 1.19126(8) 0.461940(19) 0.45343(6)
N1 N 0.5045(8) 0.32728(17) 0.0426(5)
N2 N 0.6915(7) 0.61820(17) 0.0521(5)
N3 N 0.2606(7) 0.34443(17) -0.2441(5)
N4 N 0.7171(8) 0.46097(18) 0.0295(6)
N5 N 0.6314(8) 0.46115(17) -0.0513(6)
N6 N 0.5546(7) 0.34328(18) 0.5275(5)
N7 N 0.6555(8) 0.36182(19) 0.5201(6)
N8 N 0.7513(7) 0.30046(17) 0.4418(5)
C1 C 0.4799(9) 0.2948(2) 0.5176(7)
C2 C 0.7070(8) 0.3047(2) 0.5153(6)
C3 C 0.7782(9) 0.2968(2) 0.6001(6)
C4 C 0.5797(9) 0.3158(2) 0.5193(6)
N9 N 0.6668(8) 0.30736(19) 0.3667(6)
C5 C 0.2871(9) 0.3652(2) -0.3013(6)
H1 H 0.3536 0.3772 -0.2847
C6 C 0.7746(9) 0.3127(2) 0.6781(7)
H2 H 0.7264 0.3295 0.6767
N10 N 0.2198(8) 0.33294(18) -0.6992(6)
N11 N 0.0863(7) 0.37164(18) -0.5585(5)
N12 N 0.0061(7) 0.37335(18) -0.6367(5)
N13 N 0.1298(8) 0.31245(18) -0.6844(6)
C7 C 0.6412(9) 0.3162(2) 0.2078(6)
C8 C -0.0266(10) 0.3706(2) -0.7957(6)
C9 C 0.1849(9) 0.3591(2) -0.7060(6)
C10 C 0.0499(9) 0.3553(2) -0.4983(7)
H3 H -0.0234 0.3454 -0.5099
N14 N -0.0523(8) 0.21143(17) -0.6608(6)
N15 N 0.8947(8) 0.45609(19) 0.5339(6)
N16 N 0.8963(9) 0.48895(19) 0.3444(6)
N17 N 0.8693(7) 0.49599(17) -0.0960(5)
N18 N 0.7919(7) 0.51764(17) -0.0675(5)
C11 C 0.8827(8) 0.4486(2) -0.1604(6)
C12 C 0.8154(9) 0.4720(2) -0.1216(6)
C13 C 0.6702(9) 0.5679(2) 0.0043(6)
H4 H 0.6192 0.5520 -0.0099
C14 C 0.8088(10) 0.6154(2) 0.0479(7)
H5 H 0.8576 0.6317 0.0627
C15 C 0.8639(10) 0.5900(2) 0.0231(7)
H6 H 0.9472 0.5894 0.0219
C16 C 0.6247(9) 0.5944(2) 0.0301(6)
H7 H 0.5418 0.5957 0.0322
C17 C 0.6204(9) 0.3205(2) 0.0479(7)
H8 H 0.6565 0.3197 -0.0050
C18 C 0.0121(11) 0.2124(2) -0.7307(7)
H9 H 0.0168 0.1956 -0.7654
C19 C 0.8695(10) 0.4674(2) 0.1960(7)
H10 H 0.9025 0.4565 0.1524
C20 C 0.9369(10) 0.4729(2) 0.2790(8)
H11 H 1.0144 0.4651 0.2896
C21 C 0.0659(10) 0.2628(2) -0.7033(7)
C22 C 0.1406(11) 0.2879(2) -0.7219(8)
H12 H 0.1974 0.2858 -0.7622
C23 C 0.1653(9) 0.3272(2) -0.2703(6)
H13 H 0.1459 0.3124 -0.2318
C24 C 0.1231(9) 0.3521(2) -0.4104(6)
C25 C 0.0949(10) 0.3306(2) -0.3516(7)
H14 H 0.0285 0.3184 -0.3668
C26 C 0.2202(9) 0.3697(2) -0.3842(7)
H15 H 0.2412 0.3846 -0.4218
C27 C 0.4551(10) 0.3283(2) 0.1201(7)
H16 H 0.3735 0.3331 0.1174
C28 C 0.8418(10) 0.3044(2) 0.7597(7)
H17 H 0.8385 0.3155 0.8115
C29 C 0.9128(11) 0.2794(2) 0.7617(8)
H18 H 0.9575 0.2736 0.8152
C30 C 0.7150(10) 0.3098(2) 0.2945(7)
H19 H 0.7982 0.3074 0.2960
C31 C 0.7559(10) 0.4780(2) 0.1798(7)
C32 C 0.6789(10) 0.4742(2) 0.0934(7)
H20 H 0.6008 0.4818 0.0864
C33 C 0.0064(10) 0.3564(3) -0.8722(7)
H21 H 0.0780 0.3457 -0.8694
C34 C 0.7403(10) 0.4092(2) 0.5535(7)
C35 C 0.8366(9) 0.4200(2) -0.1669(7)
H22 H 0.7643 0.4156 -0.1446
C36 C 0.7403(10) 0.4334(2) 0.6078(7)
H23 H 0.6878 0.4346 0.6515
C37 C 0.4480(10) 0.4475(3) -0.3158(8)
H24 H 0.3886 0.4335 -0.3313
C38 C 0.6491(10) 0.3861(2) 0.5608(7)
H25 H 0.5864 0.3894 0.5955
C39 C 0.6042(9) 0.4677(2) -0.2078(6)
C40 C 0.7937(9) 0.5655(2) 0.0001(6)
C41 C 0.4066(10) 0.2448(2) 0.5065(8)
H26 H 0.4217 0.2248 0.4998
C42 C 0.2772(10) 0.3826(2) -0.7119(6)
C43 C 0.2507(11) 0.4080(2) -0.7610(7)
H27 H 0.1733 0.4111 -0.7903
C44 C 0.5015(10) 0.2647(2) 0.5096(7)
H28 H 0.5797 0.2579 0.5063
C45 C 0.3632(10) 0.3034(2) 0.5229(7)
H29 H 0.3469 0.3232 0.5291
C46 C 0.3411(12) 0.4290(2) -0.7662(7)
H30 H 0.3241 0.4459 -0.8004
C47 C -0.0058(9) 0.2624(2) -0.6347(7)
C48 C 0.9908(10) 0.4544(2) -0.1945(7)
H31 H 1.0243 0.4732 -0.1887
C49 C 0.8508(9) 0.2716(2) 0.6044(6)
H32 H 0.8544 0.2603 0.5530
C50 C 0.8520(9) 0.5388(2) -0.0313(6)
H33 H 0.9360 0.5376 -0.0241
C51 C 0.9172(10) 0.2633(2) 0.6843(7)
H34 H 0.9655 0.2466 0.6859
C52 C 0.0538(9) 0.3679(2) -0.7095(6)
C53 C 0.6808(10) 0.4669(2) -0.1198(7)
C54 C 0.5594(11) 0.4895(3) -0.3552(8)
H35 H 0.5729 0.5040 -0.3967
C55 C 0.8993(10) 0.3984(2) -0.2069(7)
H36 H 0.8695 0.3793 -0.2095
C56 C 0.5131(9) 0.4475(2) -0.2304(7)
H37 H 0.4950 0.4337 -0.1881
C57 C 0.6263(10) 0.4888(2) -0.2717(7)
H38 H 0.6873 0.5026 -0.2575
C58 C 1.0033(11) 0.4044(3) -0.2423(8)
H39 H 1.0434 0.3897 -0.2700
C59 C 0.4722(11) 0.4684(3) -0.3763(8)
H40 H 0.4286 0.4684 -0.4333
C60 C 1.0487(11) 0.4328(3) -0.2366(8)
H41 H 1.1192 0.4372 -0.2616
C61 C 0.8948(10) 0.4313(2) 0.4836(7)
H42 H 0.9503 0.4301 0.4420
C62 C 0.8196(9) 0.4079(2) 0.4894(7)
H43 H 0.8216 0.3917 0.4516
C63 C 0.8209(11) 0.4559(3) 0.5960(8)
H44 H 0.8227 0.4719 0.6346
C64 C 0.5179(9) 0.3229(2) 0.2034(6)
H45 H 0.4796 0.3236 0.2553
C65 C 0.6898(10) 0.3147(2) 0.1272(7)
H46 H 0.7706 0.3095 0.1271
C66 C 0.3919(11) 0.3788(2) -0.6678(7)
H47 H 0.4099 0.3620 -0.6335
C67 C 0.4803(12) 0.3996(3) -0.6741(8)
H48 H 0.5584 0.3966 -0.6460
C68 C -0.0704(14) 0.3586(4) -0.9528(8)
H49 H -0.0521 0.3486 -1.0036
C69 C 0.2687(11) 0.2837(3) 0.5192(8)
H50 H 0.1901 0.2904 0.5208
C70 C -0.0625(10) 0.2364(2) -0.6168(8)
H51 H -0.1114 0.2365 -0.5706
C71 C 0.0712(11) 0.2370(2) -0.7531(7)
H52 H 0.1155 0.2367 -0.8020
C72 C -0.1299(12) 0.3869(3) -0.8003(8)
H53 H -0.1510 0.3962 -0.7490
C73 C -0.2041(13) 0.3898(3) -0.8819(10)
H54 H -0.2738 0.4012 -0.8855
C74 C 0.4520(13) 0.4250(3) -0.7225(9)
H55 H 0.5104 0.4395 -0.7247
C75 C 0.7834(12) 0.4981(3) 0.3276(8)
H56 H 0.7503 0.5084 0.3725
C76 C 0.2912(11) 0.2540(3) 0.5132(8)
H57 H 0.2287 0.2405 0.5137
C77 C -0.1729(15) 0.3755(3) -0.9570(10)
H58 H -0.2222 0.3774 -1.0114
C78 C 0.7112(12) 0.4933(3) 0.2466(8)
H59 H 0.6325 0.5005 0.2380
Cd1B Cd 1.61733(6) 0.664690(14) 1.10138(4)
Cd1B_2 Cd 0.61733(6) 0.664690(14) 0.10138(4)
Cd1C Cd -0.11733(6) 0.164690(14) -0.60138(4)
Cd1_2 Cd 1.38267(6) 0.335310(14) 0.89862(4)
Cd1C_2 Cd 0.88267(6) 0.164690(14) 0.39862(4)
I1B I 1.41376(6) 0.636410(14) 1.16959(4)
I2B I 1.81221(7) 0.696080(15) 1.02782(5)
I3B I 0.80874(8) 0.538060(19) 0.54657(6)
N1B N 1.4955(8) 0.67272(17) 0.9574(5)
N2B N 1.3085(7) 0.38180(17) 0.9479(5)
N2B_2 N 0.3085(7) 0.38180(17) -0.0521(5)
N2_2 N 1.6915(7) 0.61820(17) 1.0521(5)
N3C N 0.7606(7) 0.15557(17) 0.2559(5)
N3B N 1.7394(7) 0.65557(17) 1.2441(5)
N4B N 1.2829(8) 0.53903(18) 0.9705(6)
N5B N 1.3686(8) 0.53885(17) 1.0513(6)
N6B N 1.4454(7) 0.65672(18) 0.4725(5)
N7B N 1.3445(8) 0.63818(19) 0.4799(6)
N8B N 1.2487(7) 0.69954(17) 0.5582(5)
C1B C 1.5201(9) 0.7052(2) 0.4824(7)
C2B C 1.2930(8) 0.6953(2) 0.4847(6)
C3B C 1.2218(9) 0.7032(2) 0.3999(6)
C4B C 1.4203(9) 0.6842(2) 0.4807(6)
N9B N 1.3332(8) 0.69264(19) 0.6333(6)
C5C C 0.7871(9) 0.1348(2) 0.1987(6)
H1C H 0.8536 0.1228 0.2153
C6B C 1.2254(9) 0.6873(2) 0.3219(7)
H2B H 1.2736 0.6705 0.3233
N10C N 0.7198(8) 0.16706(18) -0.1992(6)
N11C N 0.5863(7) 0.12836(18) -0.0585(5)
N12C N 0.5061(7) 0.12665(18) -0.1367(5)
N13C N 0.6298(8) 0.18755(18) -0.1844(6)
C7B C 1.3588(9) 0.6838(2) 0.7922(6)
C8C C 0.4734(10) 0.1294(2) -0.2957(6)
C9C C 0.6849(9) 0.1409(2) -0.2060(6)
C10C C 0.5499(9) 0.1447(2) 0.0017(7)
H3C H 0.4766 0.1546 -0.0099
N14C N 0.4477(8) 0.28857(17) -0.1608(6)
N14A N 1.5523(8) 0.71143(17) 1.1608(6)
N15B N 1.1053(8) 0.54391(19) 0.4661(6)
N16B N 1.1037(9) 0.51105(19) 0.6556(6)
N17B N 1.1307(7) 0.50401(17) 1.0960(5)
N18B N 1.2081(7) 0.48236(17) 1.0675(5)
C11B C 1.1173(8) 0.5514(2) 1.1604(6)
C12B C 1.1846(9) 0.5280(2) 1.1216(6)
C13B C 1.3298(9) 0.4321(2) 0.9957(6)
H4B H 1.3808 0.4480 1.0099
C14B C 1.1912(10) 0.3846(2) 0.9521(7)
H5B H 1.1424 0.3683 0.9373
C15B C 1.1361(10) 0.4100(2) 0.9769(7)
H6B H 1.0528 0.4106 0.9781
C16B C 1.3753(9) 0.4056(2) 0.9699(6)
H7B H 1.4582 0.4043 0.9678
C17B C 1.3796(9) 0.6795(2) 0.9521(7)
H8B H 1.3435 0.6803 1.0050
C18C C 0.5121(11) 0.2876(2) -0.2307(7)
H9C H 0.5168 0.3044 -0.2654
C19B C 1.1305(10) 0.5326(2) 0.8040(7)
H10B H 1.0975 0.5435 0.8476
C20B C 1.0631(10) 0.5271(2) 0.7210(8)
H11B H 0.9856 0.5349 0.7104
C21C C 0.5659(10) 0.2372(2) -0.2033(7)
C22C C 0.6406(11) 0.2121(2) -0.2219(8)
H12C H 0.6974 0.2142 -0.2622
C23C C 0.6653(9) 0.1728(2) 0.2297(6)
H13C H 0.6459 0.1876 0.2682
C24C C 0.6231(9) 0.1479(2) 0.0896(6)
C25C C 0.5949(10) 0.1694(2) 0.1484(7)
H14C H 0.5285 0.1816 0.1332
C26C C 0.7202(9) 0.1303(2) 0.1158(7)
H15C H 0.7412 0.1154 0.0782
C27B C 1.5449(10) 0.6717(2) 0.8799(7)
H16B H 1.6265 0.6669 0.8826
C28B C 1.1582(10) 0.6956(2) 0.2403(7)
H17B H 1.1615 0.6845 0.1885
C29B C 1.0872(11) 0.7206(2) 0.2383(8)
H18B H 1.0425 0.7264 0.1848
C30B C 1.2850(10) 0.6902(2) 0.7055(7)
H19B H 1.2018 0.6926 0.7040
C31B C 1.2441(10) 0.5220(2) 0.8202(7)
C32B C 1.3211(10) 0.5258(2) 0.9066(7)
H20B H 1.3992 0.5182 0.9136
C33C C 0.5064(10) 0.1436(3) -0.3722(7)
H21C H 0.5780 0.1543 -0.3694
C34B C 1.2597(10) 0.5908(2) 0.4465(7)
C35B C 1.1634(9) 0.5800(2) 1.1669(7)
H22B H 1.2357 0.5844 1.1446
C36B C 1.2597(10) 0.5666(2) 0.3922(7)
H23B H 1.3122 0.5654 0.3485
C37B C 1.5520(10) 0.5525(3) 1.3158(8)
H24B H 1.6114 0.5665 1.3313
C38B C 1.3509(10) 0.6139(2) 0.4392(7)
H25B H 1.4136 0.6106 0.4045
C39B C 1.3958(9) 0.5323(2) 1.2078(6)
C40B C 1.2063(9) 0.4345(2) 0.9999(6)
C41B C 1.5934(10) 0.7552(2) 0.4935(8)
H26B H 1.5783 0.7752 0.5002
C42C C 0.7772(10) 0.1174(2) -0.2119(6)
C43C C 0.7507(11) 0.0920(2) -0.2610(7)
H27C H 0.6733 0.0889 -0.2903
C44B C 1.4985(10) 0.7353(2) 0.4904(7)
H28B H 1.4203 0.7421 0.4937
C45B C 1.6368(10) 0.6966(2) 0.4771(7)
H29B H 1.6531 0.6768 0.4709
C46C C 0.8411(12) 0.0710(2) -0.2662(7)
H30C H 0.8241 0.0541 -0.3004
C47C C 0.4942(9) 0.2376(2) -0.1347(7)
C48B C 1.0092(10) 0.5456(2) 1.1945(7)
H31B H 0.9757 0.5268 1.1887
C49B C 1.1492(9) 0.7284(2) 0.3956(6)
H32B H 1.1456 0.7397 0.4470
C50B C 1.1480(9) 0.4612(2) 1.0313(6)
H33B H 1.0640 0.4624 1.0241
C51B C 1.0828(10) 0.7367(2) 0.3157(7)
H34B H 1.0345 0.7534 0.3141
C52C C 0.5538(9) 0.1321(2) -0.2095(6)
C53B C 1.3192(10) 0.5331(2) 1.1198(7)
C54B C 1.4406(11) 0.5105(3) 1.3552(8)
H35B H 1.4271 0.4960 1.3967
C55B C 1.1007(10) 0.6016(2) 1.2069(7)
H36B H 1.1305 0.6207 1.2095
C56B C 1.4869(9) 0.5525(2) 1.2304(7)
H37B H 1.5050 0.5663 1.1881
C57B C 1.3737(10) 0.5112(2) 1.2717(7)
H38B H 1.3127 0.4974 1.2575
C58B C 0.9967(11) 0.5956(3) 1.2423(8)
H39B H 0.9566 0.6103 1.2700
C59B C 1.5278(11) 0.5316(3) 1.3763(8)
H40B H 1.5714 0.5316 1.4333
C60B C 0.9513(11) 0.5672(3) 1.2366(8)
H41B H 0.8808 0.5628 1.2616
C61B C 1.1052(10) 0.5687(2) 0.5164(7)
H42B H 1.0497 0.5699 0.5580
C62B C 1.1804(9) 0.5921(2) 0.5106(7)
H43B H 1.1784 0.6083 0.5484
C63B C 1.1791(11) 0.5441(3) 0.4040(8)
H44B H 1.1773 0.5281 0.3654
C64B C 1.4821(9) 0.6771(2) 0.7966(6)
H45B H 1.5204 0.6764 0.7447
C65B C 1.3102(10) 0.6853(2) 0.8728(7)
H46B H 1.2294 0.6905 0.8729
C66C C 0.8919(11) 0.1212(2) -0.1678(7)
H47C H 0.9099 0.1380 -0.1335
C67C C 0.9803(12) 0.1004(3) -0.1741(8)
H48C H 1.0584 0.1034 -0.1460
C68C C 0.4296(14) 0.1414(4) -0.4528(8)
H49C H 0.4479 0.1514 -0.5036
C69B C 1.7313(11) 0.7163(3) 0.4808(8)
H50B H 1.8099 0.7096 0.4792
C70C C 0.4375(10) 0.2636(2) -0.1168(8)
H51C H 0.3886 0.2635 -0.0706
C71C C 0.5712(11) 0.2630(2) -0.2531(7)
H52C H 0.6155 0.2633 -0.3020
C72C C 0.3701(12) 0.1131(3) -0.3003(8)
H53C H 0.3490 0.1038 -0.2490
C73C C 0.2959(13) 0.1102(3) -0.3819(10)
H54C H 0.2262 0.0988 -0.3855
C74C C 0.9520(13) 0.0750(3) -0.2225(9)
H55C H 1.0104 0.0605 -0.2247
C75B C 1.2166(12) 0.5019(3) 0.6724(8)
H56B H 1.2497 0.4916 0.6275
C76B C 1.7088(11) 0.7460(3) 0.4868(8)
H57B H 1.7713 0.7595 0.4863
C77C C 0.3271(15) 0.1245(3) -0.4570(10)
H58C H 0.2778 0.1226 -0.5114
C78B C 1.2888(12) 0.5067(3) 0.7534(8)
H59B H 1.3675 0.4995 0.7620
loop_
_geom_bond_atom_site_label_1
_geom_bond_atom_site_label_2
_geom_bond_site_symmetry_1
_geom_bond_site_symmetry_2
Cd1 I1 1_555 1_555
I2 Cd1 1_555 1_555
Cd2 I3 1_555 1_555
N1 Cd1 1_555 1_555
N2 C14 1_555 1_555
N3 Cd1 1_555 1_555
N4 N5 1_555 1_555
N5 C53 1_555 1_555
N6 N7 1_555 1_555
N7 C38 1_555 1_555
N8 C2 1_555 1_555
C1 C4 1_555 1_555
C2 C3 1_555 1_555
C3 C6 1_555 1_555
C4 N6 1_555 1_555
N9 N8 1_555 1_555
C5 N3 1_555 1_555
H1 C5 1_555 1_555
C6 H2 1_555 1_555
N10 N13 1_555 1_555
N11 N12 1_555 1_555
N12 C52 1_555 1_555
N13 C22 1_555 1_555
C7 C30 1_555 1_555
C8 C33 1_555 1_555
C9 N10 1_555 1_555
C10 N11 1_555 1_555
H3 C10 1_555 1_555
N14 C18 1_555 1_555
N15 Cd2 1_555 1_555
N16 Cd2 1_555 1_555
N17 N18 1_555 1_555
N18 C50 1_555 1_555
C11 C12 1_555 1_555
C12 N17 1_555 1_555
C13 H4 1_555 1_555
C14 H5 1_555 1_555
C15 C14 1_555 1_555
H6 C15 1_555 1_555
C16 N2 1_555 1_555
H7 C16 1_555 1_555
C17 N1 1_555 1_555
H8 C17 1_555 1_555
C18 H9 1_555 1_555
C19 H10 1_555 1_555
C20 N16 1_555 1_555
H11 C20 1_555 1_555
C21 C22 1_555 1_555
C22 H12 1_555 1_555
C23 N3 1_555 1_555
H13 C23 1_555 1_555
C24 C10 1_555 1_555
C25 C23 1_555 1_555
H14 C25 1_555 1_555
C26 C5 1_555 1_555
H15 C26 1_555 1_555
C27 N1 1_555 1_555
H16 C27 1_555 1_555
C28 C6 1_555 1_555
H17 C28 1_555 1_555
C29 C28 1_555 1_555
H18 C29 1_555 1_555
C30 N9 1_555 1_555
H19 C30 1_555 1_555
C31 C19 1_555 1_555
C32 N4 1_555 1_555
H20 C32 1_555 1_555
C33 H21 1_555 1_555
C34 C36 1_555 1_555
C35 C11 1_555 1_555
H22 C35 1_555 1_555
C36 H23 1_555 1_555
C37 H24 1_555 1_555
C38 C34 1_555 1_555
H25 C38 1_555 1_555
C39 C53 1_555 1_555
C40 C13 1_555 1_555
C41 H26 1_555 1_555
C42 C9 1_555 1_555
C43 C42 1_555 1_555
H27 C43 1_555 1_555
C44 C1 1_555 1_555
H28 C44 1_555 1_555
C45 C1 1_555 1_555
H29 C45 1_555 1_555
C46 C43 1_555 1_555
H30 C46 1_555 1_555
C47 C21 1_555 1_555
C48 C11 1_555 1_555
H31 C48 1_555 1_555
C49 C3 1_555 1_555
H32 C49 1_555 1_555
C50 C40 1_555 1_555
H33 C50 1_555 1_555
C51 C29 1_555 1_555
H34 C51 1_555 1_555
C52 C8 1_555 1_555
C53 C12 1_555 1_555
C54 H35 1_555 1_555
C55 C35 1_555 1_555
H36 C55 1_555 1_555
C56 C37 1_555 1_555
H37 C56 1_555 1_555
C57 C39 1_555 1_555
H38 C57 1_555 1_555
C58 C55 1_555 1_555
H39 C58 1_555 1_555
C59 C37 1_555 1_555
H40 C59 1_555 1_555
C60 C48 1_555 1_555
H41 C60 1_555 1_555
C61 N15 1_555 1_555
H42 C61 1_555 1_555
C62 C34 1_555 1_555
H43 C62 1_555 1_555
C63 N15 1_555 1_555
H44 C63 1_555 1_555
C64 C7 1_555 1_555
H45 C64 1_555 1_555
C65 C7 1_555 1_555
H46 C65 1_555 1_555
C66 C42 1_555 1_555
H47 C66 1_555 1_555
C67 C66 1_555 1_555
H48 C67 1_555 1_555
C68 C33 1_555 1_555
H49 C68 1_555 1_555
C69 C45 1_555 1_555
H50 C69 1_555 1_555
C70 N14 1_555 1_555
H51 C70 1_555 1_555
C71 C18 1_555 1_555
H52 C71 1_555 1_555
C72 C8 1_555 1_555
H53 C72 1_555 1_555
C73 C72 1_555 1_555
H54 C73 1_555 1_555
C74 C46 1_555 1_555
H55 C74 1_555 1_555
C75 N16 1_555 1_555
H56 C75 1_555 1_555
C76 C41 1_555 1_555
H57 C76 1_555 1_555
C77 C68 1_555 1_555
H58 C77 1_555 1_555
C78 C31 1_555 1_555
H59 C78 1_555 1_555
Cd1B I1B 1_555 1_555
Cd1B_2 N2 1_555 1_555
Cd1C N14 1_555 1_555
Cd1_2 N2B 1_555 1_555
Cd1C_2 N3C 1_555 1_555
I2B Cd1B 1_555 1_555
I3B Cd2 1_555 1_555
N1B Cd1B 1_555 1_555
N2B C14B 1_555 1_555
N2B_2 Cd1 1_555 1_555
N2_2 Cd1B 1_555 1_555
N3C C5C 1_555 1_555
N3B Cd1B 1_555 1_555
N4B N5B 1_555 1_555
N5B C53B 1_555 1_555
N6B N7B 1_555 1_555
N7B C38B 1_555 1_555
N8B C2B 1_555 1_555
C1B C4B 1_555 1_555
C2B C3B 1_555 1_555
C3B C6B 1_555 1_555
C4B N6B 1_555 1_555
N9B N8B 1_555 1_555
C5C H1C 1_555 1_555
C6B H2B 1_555 1_555
N10C N13C 1_555 1_555
N11C N12C 1_555 1_555
N12C C52C 1_555 1_555
N13C C22C 1_555 1_555
C7B C30B 1_555 1_555
C8C C33C 1_555 1_555
C9C N10C 1_555 1_555
C10C N11C 1_555 1_555
H3C C10C 1_555 1_555
N14C Cd1 1_555 1_555
N14A Cd1B 1_555 1_555
N15B Cd2 1_555 1_555
N16B Cd2 1_555 1_555
N17B N18B 1_555 1_555
N18B C50B 1_555 1_555
C11B C12B 1_555 1_555
C12B N17B 1_555 1_555
C13B H4B 1_555 1_555
C14B H5B 1_555 1_555
C15B C14B 1_555 1_555
H6B C15B 1_555 1_555
C16B N2B 1_555 1_555
H7B C16B 1_555 1_555
C17B N1B 1_555 1_555
H8B C17B 1_555 1_555
C18C N14C 1_555 1_555
H9C C18C 1_555 1_555
C19B H10B 1_555 1_555
C20B N16B 1_555 1_555
H11B C20B 1_555 1_555
C21C C22C 1_555 1_555
C22C H12C 1_555 1_555
C23C N3C 1_555 1_555
H13C C23C 1_555 1_555
C24C C10C 1_555 1_555
C25C C23C 1_555 1_555
H14C C25C 1_555 1_555
C26C C5C 1_555 1_555
H15C C26C 1_555 1_555
C27B N1B 1_555 1_555
H16B C27B 1_555 1_555
C28B C6B 1_555 1_555
H17B C28B 1_555 1_555
C29B C28B 1_555 1_555
H18B C29B 1_555 1_555
C30B N9B 1_555 1_555
H19B C30B 1_555 1_555
C31B C19B 1_555 1_555
C32B N4B 1_555 1_555
H20B C32B 1_555 1_555
C33C H21C 1_555 1_555
C34B C36B 1_555 1_555
C35B C11B 1_555 1_555
H22B C35B 1_555 1_555
C36B H23B 1_555 1_555
C37B H24B 1_555 1_555
C38B C34B 1_555 1_555
H25B C38B 1_555 1_555
C39B C53B 1_555 1_555
C40B C13B 1_555 1_555
C41B H26B 1_555 1_555
C42C C9C 1_555 1_555
C43C C42C 1_555 1_555
H27C C43C 1_555 1_555
C44B C1B 1_555 1_555
H28B C44B 1_555 1_555
C45B C1B 1_555 1_555
H29B C45B 1_555 1_555
C46C C43C 1_555 1_555
H30C C46C 1_555 1_555
C47C C21C 1_555 1_555
C48B C11B 1_555 1_555
H31B C48B 1_555 1_555
C49B C3B 1_555 1_555
H32B C49B 1_555 1_555
C50B C40B 1_555 1_555
H33B C50B 1_555 1_555
C51B C29B 1_555 1_555
H34B C51B 1_555 1_555
C52C C8C 1_555 1_555
C53B C12B 1_555 1_555
C54B H35B 1_555 1_555
C55B C35B 1_555 1_555
H36B C55B 1_555 1_555
C56B C37B 1_555 1_555
H37B C56B 1_555 1_555
C57B C39B 1_555 1_555
H38B C57B 1_555 1_555
C58B C55B 1_555 1_555
H39B C58B 1_555 1_555
C59B C37B 1_555 1_555
H40B C59B 1_555 1_555
C60B C48B 1_555 1_555
H41B C60B 1_555 1_555
C61B N15B 1_555 1_555
H42B C61B 1_555 1_555
C62B C34B 1_555 1_555
H43B C62B 1_555 1_555
C63B N15B 1_555 1_555
H44B C63B 1_555 1_555
C64B C7B 1_555 1_555
H45B C64B 1_555 1_555
C65B C7B 1_555 1_555
H46B C65B 1_555 1_555
C66C C42C 1_555 1_555
H47C C66C 1_555 1_555
C67C C66C 1_555 1_555
H48C C67C 1_555 1_555
C68C C33C 1_555 1_555
H49C C68C 1_555 1_555
C69B C45B 1_555 1_555
H50B C69B 1_555 1_555
C70C N14C 1_555 1_555
H51C C70C 1_555 1_555
C71C C18C 1_555 1_555
H52C C71C 1_555 1_555
C72C C8C 1_555 1_555
H53C C72C 1_555 1_555
C73C C72C 1_555 1_555
H54C C73C 1_555 1_555
C74C C46C 1_555 1_555
H55C C74C 1_555 1_555
C75B N16B 1_555 1_555
H56B C75B 1_555 1_555
C76B C41B 1_555 1_555
H57B C76B 1_555 1_555
C77C C68C 1_555 1_555
H58C C77C 1_555 1_555
C78B C31B 1_555 1_555
H59B C78B 1_555 1_555
C2 C4 1_555 1_555
C9 C52 1_555 1_555
C13 C16 1_555 1_555
C15 C40 1_555 1_555
C17 C65 1_555 1_555
C19 C20 1_555 1_555
C21 C71 1_555 1_555
C24 C25 1_555 1_555
C24 C26 1_555 1_555
C27 C64 1_555 1_555
C31 C32 1_555 1_555
C36 C63 1_555 1_555
C39 C56 1_555 1_555
C41 C44 1_555 1_555
C47 C70 1_555 1_555
C49 C51 1_555 1_555
C54 C57 1_555 1_555
C54 C59 1_555 1_555
C58 C60 1_555 1_555
C61 C62 1_555 1_555
C67 C74 1_555 1_555
C69 C76 1_555 1_555
C73 C77 1_555 1_555
C75 C78 1_555 1_555
C2B C4B 1_555 1_555
C9C C52C 1_555 1_555
C13B C16B 1_555 1_555
C15B C40B 1_555 1_555
C17B C65B 1_555 1_555
C19B C20B 1_555 1_555
C21C C71C 1_555 1_555
C24C C25C 1_555 1_555
C24C C26C 1_555 1_555
C27B C64B 1_555 1_555
C31B C32B 1_555 1_555
C36B C63B 1_555 1_555
C39B C56B 1_555 1_555
C41B C44B 1_555 1_555
C47C C70C 1_555 1_555
C49B C51B 1_555 1_555
C54B C57B 1_555 1_555
C54B C59B 1_555 1_555
C58B C60B 1_555 1_555
C61B C62B 1_555 1_555
C67C C74C 1_555 1_555
C69B C76B 1_555 1_555
C73C C77C 1_555 1_555
C75B C78B 1_555 1_555

#END
