
#######################################################################
#
#                 Cambridge Crystallographic Data Centre
#                                CCDC 
#
#######################################################################
#
# If this CIF has been generated from an entry in the Cambridge 
# Structural Database, then it will include bibliographic, chemical, 
# crystal, experimental, refinement or atomic coordinate data resulting 
# from the CCDC's data processing and validation procedures.
#
#######################################################################

data_CAPLIP
_symmetry_cell_setting           triclinic
_symmetry_space_group_name_H-M   'P -1'
_symmetry_Int_Tables_number      2
_space_group_name_Hall           '-P 1'
loop_
_symmetry_equiv_pos_site_id
_symmetry_equiv_pos_as_xyz
1 x,y,z
2 -x,-y,-z
_cell_length_a                   7.2056(2)
_cell_length_b                   12.84940(10)
_cell_length_c                   17.1730(4)
_cell_angle_alpha                103.5160(10)
_cell_angle_beta                 95.157(2)
_cell_angle_gamma                99.4580(10)
_cell_volume                     1511.25
loop_
_atom_site_label
_atom_site_type_symbol
_atom_site_fract_x
_atom_site_fract_y
_atom_site_fract_z
Cd1 Cd 0.54615(11) 0.84401(6) 0.44082(4)
Br1 Br 0.24160(16) 0.93829(9) 0.47667(7)
Br2 Br 0.3498(2) 0.63868(11) 0.37751(8)
N1 N 0.6122(12) 0.8074(7) 0.5657(4)
N2 N 1.4118(13) 1.1116(7) 0.6809(5)
O1 O 0.8750(9) 0.7749(5) 0.8427(3)
O2 O 1.2485(9) 0.9407(5) 0.9047(3)
O3 O 0.8330(12) 0.7691(8) 0.4112(5)
C1 C 1.1463(12) 0.7194(7) 0.8939(5)
C2 C 1.0008(13) 0.7047(7) 0.8323(5)
C3 C 0.9793(14) 0.6195(7) 0.7604(5)
H1 H 0.8789 0.6102 0.7198
C4 C 1.1052(14) 0.5526(8) 0.7516(6)
H2 H 1.0905 0.4975 0.7042
C5 C 1.2572(13) 0.5630(7) 0.8110(6)
C6 C 1.3880(16) 0.4926(8) 0.8036(7)
H3 H 1.3756 0.4379 0.7561
C7 C 1.5309(16) 0.5012(8) 0.8625(7)
H4 H 1.6141 0.4527 0.8553
C8 C 1.5541(15) 0.5838(9) 0.9348(7)
H5 H 1.6518 0.5893 0.9757
C9 C 1.4318(13) 0.6560(8) 0.9447(6)
H6 H 1.4497 0.7116 0.9920
C10 C 1.2776(13) 0.6475(7) 0.8837(5)
C11 C 0.6898(14) 0.7397(9) 0.7984(6)
H7 H 0.6015 0.7744 0.8301
H8 H 0.6526 0.6616 0.7910
C12 C 0.6726(13) 0.7643(7) 0.7169(5)
C13 C 0.4993(15) 0.7275(8) 0.6675(5)
H9 H 0.3994 0.6867 0.6845
C14 C 0.4749(14) 0.7504(8) 0.5955(6)
H10 H 0.3564 0.7254 0.5644
C15 C 0.7772(15) 0.8410(8) 0.6123(6)
H11 H 0.8755 0.8802 0.5931
C16 C 0.8147(14) 0.8218(8) 0.6884(5)
H12 H 0.9339 0.8478 0.7187
C17 C 1.1592(11) 0.8036(7) 0.9727(4)
C18 C 1.2095(12) 0.9134(7) 0.9751(5)
C19 C 1.2227(13) 0.9930(7) 1.0493(5)
H13 H 1.2504 1.0665 1.0500
C20 C 1.1960(13) 0.9644(7) 1.1183(5)
H14 H 1.2118 1.0179 1.1666
C21 C 1.1437(12) 0.8530(8) 1.1179(5)
C22 C 1.1133(14) 0.8195(9) 1.1913(5)
H15 H 1.1286 0.8723 1.2399
C23 C 1.0635(16) 0.7140(9) 1.1906(6)
H16 H 1.0474 0.6936 1.2384
C24 C 1.0361(15) 0.6348(9) 1.1165(6)
H17 H 0.9972 0.5619 1.1160
C25 C 1.0645(13) 0.6610(8) 1.0454(6)
H18 H 1.0470 0.6063 0.9976
C26 C 1.1205(12) 0.7711(7) 1.0444(5)
C27 C 1.3021(13) 1.0534(7) 0.9092(5)
H19 H 1.4163 1.0842 0.9474
H20 H 1.2020 1.0910 0.9280
C28 C 1.3370(12) 1.0690(7) 0.8278(5)
C29 C 1.3444(16) 0.9872(8) 0.7627(6)
H21 H 1.3251 0.9154 0.7667
C30 C 1.3808(17) 1.0107(9) 0.6899(6)
H22 H 1.3835 0.9534 0.6458
C31 C 1.4081(17) 1.1910(8) 0.7446(6)
H23 H 1.4305 1.2622 0.7393
C32 C 1.3728(14) 1.1743(7) 0.8188(6)
H24 H 1.3731 1.2332 0.8623
Cd1A Cd 0.45385(11) 1.15599(6) 0.55918(4)
Cd1A_2 Cd 1.45385(11) 1.15599(6) 0.55918(4)
Br1A Br 0.75840(16) 1.06171(9) 0.52333(7)
N2A N 0.5882(13) 0.8884(7) 0.3191(5)
O4 O 0.7114(14) 0.5427(7) 0.4712(6)
O5 O 0.9779(14) 0.6119(7) 0.4807(6)
loop_
_geom_bond_atom_site_label_1
_geom_bond_atom_site_label_2
_geom_bond_site_symmetry_1
_geom_bond_site_symmetry_2
Cd1 Br1 1_555 1_555
Br1 Cd1A 1_555 1_555
Br2 Cd1 1_555 1_555
N1 Cd1 1_555 1_555
N2 C30 1_555 1_555
O1 C2 1_555 1_555
O2 C18 1_555 1_555
O3 Cd1 1_555 1_555
C1 C2 1_555 1_555
C2 C3 1_555 1_555
C3 H1 1_555 1_555
C4 C3 1_555 1_555
H2 C4 1_555 1_555
C5 C4 1_555 1_555
C6 C5 1_555 1_555
H3 C6 1_555 1_555
C7 C6 1_555 1_555
H4 C7 1_555 1_555
C8 C7 1_555 1_555
H5 C8 1_555 1_555
C9 C8 1_555 1_555
H6 C9 1_555 1_555
C10 C1 1_555 1_555
C11 O1 1_555 1_555
H7 C11 1_555 1_555
H8 C11 1_555 1_555
C12 C11 1_555 1_555
C13 C12 1_555 1_555
H9 C13 1_555 1_555
C14 N1 1_555 1_555
H10 C14 1_555 1_555
C15 N1 1_555 1_555
H11 C15 1_555 1_555
C16 C12 1_555 1_555
H12 C16 1_555 1_555
C17 C1 1_555 1_555
C18 C17 1_555 1_555
C19 C18 1_555 1_555
H13 C19 1_555 1_555
C20 C19 1_555 1_555
H14 C20 1_555 1_555
C21 C20 1_555 1_555
C22 C21 1_555 1_555
H15 C22 1_555 1_555
C23 C22 1_555 1_555
H16 C23 1_555 1_555
C24 C23 1_555 1_555
H17 C24 1_555 1_555
C25 C24 1_555 1_555
H18 C25 1_555 1_555
C26 C17 1_555 1_555
C27 O2 1_555 1_555
H19 C27 1_555 1_555
H20 C27 1_555 1_555
C28 C27 1_555 1_555
C29 C28 1_555 1_555
H21 C29 1_555 1_555
C30 C29 1_555 1_555
H22 C30 1_555 1_555
C31 N2 1_555 1_555
H23 C31 1_555 1_555
C32 C28 1_555 1_555
H24 C32 1_555 1_555
Cd1A Br1A 1_555 1_555
Cd1A_2 N2 1_555 1_555
Br1A Cd1 1_555 1_555
N2A Cd1 1_555 1_555
C5 C10 1_555 1_555
C9 C10 1_555 1_555
C13 C14 1_555 1_555
C15 C16 1_555 1_555
C21 C26 1_555 1_555
C25 C26 1_555 1_555
C31 C32 1_555 1_555

#END
