
#######################################################################
#
#                 Cambridge Crystallographic Data Centre
#                                CCDC 
#
#######################################################################
#
# If this CIF has been generated from an entry in the Cambridge 
# Structural Database, then it will include bibliographic, chemical, 
# crystal, experimental, refinement or atomic coordinate data resulting 
# from the CCDC's data processing and validation procedures.
#
#######################################################################

data_CAPLEL
_symmetry_cell_setting           monoclinic
_symmetry_space_group_name_H-M   'C 2'
_symmetry_Int_Tables_number      5
_space_group_name_Hall           'C 2y'
loop_
_symmetry_equiv_pos_site_id
_symmetry_equiv_pos_as_xyz
1 x,y,z
2 -x,y,-z
3 1/2+x,1/2+y,z
4 1/2-x,1/2+y,-z
_cell_length_a                   25.376(6)
_cell_length_b                   7.2855(17)
_cell_length_c                   17.166(4)
_cell_angle_alpha                90
_cell_angle_beta                 104.766(5)
_cell_angle_gamma                90
_cell_volume                     3068.79
loop_
_atom_site_label
_atom_site_type_symbol
_atom_site_fract_x
_atom_site_fract_y
_atom_site_fract_z
Cd1 Cd 0.17342(3) 0.86414(11) 0.44889(4)
Br1 Br 0.07018(5) 0.9631(2) 0.38366(8)
Br2 Br 0.22274(5) 1.20154(15) 0.47166(7)
N1 N 0.1981(3) 0.8380(13) 0.3276(4)
N2 N 0.3399(3) 0.3546(16) 0.4217(4)
O1 O 0.2834(3) 0.8350(12) 0.0947(4)
O2 O 0.1411(4) 0.5538(12) 0.4242(5)
O3 O 0.3638(3) 0.5173(10) 0.1457(4)
C1 C 0.2263(4) 0.8206(15) 0.0923(5)
H1 H 0.2114 0.7084 0.0649
H2 H 0.2065 0.9237 0.0629
C2 C 0.2200(4) 0.8193(14) 0.1778(6)
C3 C 0.1724(4) 0.7527(16) 0.1925(6)
H3 H 0.1464 0.6976 0.1510
C4 C 0.1633(5) 0.7665(17) 0.2650(7)
H4 H 0.1304 0.7229 0.2719
C5 C 0.2435(4) 0.9040(17) 0.3155(5)
H5 H 0.2686 0.9569 0.3587
C6 C 0.2556(4) 0.8987(17) 0.2422(5)
H6 H 0.2880 0.9492 0.2363
C7 C 0.3517(4) 0.7872(14) 0.0280(5)
C8 C 0.2969(4) 0.8148(14) 0.0245(5)
C9 C 0.2575(4) 0.8219(16) -0.0502(6)
H7 H 0.2210 0.8388 -0.0508
C10 C 0.2715(5) 0.8046(16) -0.1217(6)
H8 H 0.2451 0.8151 -0.1702
C11 C 0.3272(4) 0.7702(14) -0.1217(6)
C12 C 0.3430(4) 0.7494(15) -0.1947(6)
H9 H 0.3170 0.7590 -0.2437
C13 C 0.3960(5) 0.7152(18) -0.1936(7)
H10 H 0.4060 0.6984 -0.2416
C14 C 0.4358(4) 0.7054(18) -0.1189(7)
H11 H 0.4720 0.6837 -0.1185
C15 C 0.4221(4) 0.7274(15) -0.0471(5)
H12 H 0.4491 0.7218 0.0011
C16 C 0.3682(4) 0.7580(14) -0.0460(6)
C17 C 0.3941(4) 0.7988(14) 0.1055(6)
C18 C 0.3994(4) 0.6617(14) 0.1616(5)
C19 C 0.4413(4) 0.6771(17) 0.2353(6)
H13 H 0.4453 0.5850 0.2739
C20 C 0.4736(4) 0.8176(16) 0.2486(6)
H14 H 0.5000 0.8237 0.2974
C21 C 0.4706(4) 0.9611(16) 0.1931(6)
C22 C 0.5084(4) 1.1123(19) 0.2065(8)
H15 H 0.5358 1.1194 0.2540
C23 C 0.5038(5) 1.2421(19) 0.1504(9)
H16 H 0.5281 1.3399 0.1600
C24 C 0.4647(5) 1.2367(16) 0.0796(7)
H17 H 0.4630 1.3294 0.0418
C25 C 0.4278(4) 1.0958(16) 0.0635(6)
H18 H 0.4009 1.0946 0.0152
C26 C 0.4302(4) 0.9508(14) 0.1201(5)
C27 C 0.3776(4) 0.3568(18) 0.1931(5)
H19 H 0.4165 0.3363 0.2022
H20 H 0.3592 0.2535 0.1621
C28 C 0.3643(4) 0.3566(17) 0.2723(5)
C29 C 0.3304(5) 0.4822(17) 0.2931(6)
H21 H 0.3152 0.5748 0.2571
C30 C 0.3188(5) 0.4733(18) 0.3657(6)
H22 H 0.2941 0.5578 0.3764
C31 C 0.3728(6) 0.231(2) 0.4020(7)
H23 H 0.3896 0.1458 0.4408
C32 C 0.3834(6) 0.222(2) 0.3266(7)
H24 H 0.4033 0.1244 0.3135
Cd1C Cd 0.32658(3) 1.36414(11) 0.55111(4)
Cd1C_2 Cd 0.32658(3) 0.36414(11) 0.55111(4)
Br2C Br 0.27726(5) 0.70154(15) 0.52834(7)
N2C N 0.1601(3) 0.8546(16) 0.5783(4)
O4 O 0.0579(11) 1.386(5) 0.4700(14)
loop_
_geom_bond_atom_site_label_1
_geom_bond_atom_site_label_2
_geom_bond_site_symmetry_1
_geom_bond_site_symmetry_2
Cd1 Br1 1_555 1_555
Br2 Cd1 1_555 1_555
N1 Cd1 1_555 1_555
N2 C30 1_555 1_555
O1 C1 1_555 1_555
O2 Cd1 1_555 1_555
O3 C18 1_555 1_555
C1 H1 1_555 1_555
H2 C1 1_555 1_555
C2 C1 1_555 1_555
C3 C2 1_555 1_555
H3 C3 1_555 1_555
C4 N1 1_555 1_555
H4 C4 1_555 1_555
C5 N1 1_555 1_555
H5 C5 1_555 1_555
C6 C2 1_555 1_555
H6 C6 1_555 1_555
C7 C8 1_555 1_555
C8 O1 1_555 1_555
C9 C8 1_555 1_555
H7 C9 1_555 1_555
C10 C9 1_555 1_555
H8 C10 1_555 1_555
C11 C10 1_555 1_555
C12 C11 1_555 1_555
H9 C12 1_555 1_555
C13 C12 1_555 1_555
H10 C13 1_555 1_555
C14 C13 1_555 1_555
H11 C14 1_555 1_555
C15 C14 1_555 1_555
H12 C15 1_555 1_555
C16 C7 1_555 1_555
C17 C7 1_555 1_555
C18 C17 1_555 1_555
C19 C18 1_555 1_555
H13 C19 1_555 1_555
C20 C19 1_555 1_555
H14 C20 1_555 1_555
C21 C20 1_555 1_555
C22 C21 1_555 1_555
H15 C22 1_555 1_555
C23 C22 1_555 1_555
H16 C23 1_555 1_555
C24 C23 1_555 1_555
H17 C24 1_555 1_555
C25 C24 1_555 1_555
H18 C25 1_555 1_555
C26 C17 1_555 1_555
C27 O3 1_555 1_555
H19 C27 1_555 1_555
H20 C27 1_555 1_555
C28 C27 1_555 1_555
C29 C28 1_555 1_555
H21 C29 1_555 1_555
C30 C29 1_555 1_555
H22 C30 1_555 1_555
C31 N2 1_555 1_555
H23 C31 1_555 1_555
C32 C28 1_555 1_555
H24 C32 1_555 1_555
Cd1C Br2 1_555 1_555
Cd1C_2 N2 1_555 1_555
Br2C Cd1 1_555 1_555
N2C Cd1 1_555 1_555
C3 C4 1_555 1_555
C5 C6 1_555 1_555
C11 C16 1_555 1_555
C15 C16 1_555 1_555
C21 C26 1_555 1_555
C25 C26 1_555 1_555
C31 C32 1_555 1_555
Cd1C_2 Br2C 1_555 1_555

#END
