
#######################################################################
#
#                 Cambridge Crystallographic Data Centre
#                                CCDC 
#
#######################################################################
#
# If this CIF has been generated from an entry in the Cambridge 
# Structural Database, then it will include bibliographic, chemical, 
# crystal, experimental, refinement or atomic coordinate data resulting 
# from the CCDC's data processing and validation procedures.
#
#######################################################################

data_CAPMAJ
_symmetry_cell_setting           monoclinic
_symmetry_space_group_name_H-M   'P 21/c'
_symmetry_Int_Tables_number      14
_space_group_name_Hall           '-P 2ybc'
loop_
_symmetry_equiv_pos_site_id
_symmetry_equiv_pos_as_xyz
1 x,y,z
2 -x,1/2+y,1/2-z
3 -x,-y,-z
4 x,1/2-y,1/2+z
_cell_length_a                   11.8336(5)
_cell_length_b                   18.0240(7)
_cell_length_c                   14.1586(6)
_cell_angle_alpha                90
_cell_angle_beta                 91.245(2)
_cell_angle_gamma                90
_cell_volume                     3019.16
loop_
_atom_site_label
_atom_site_type_symbol
_atom_site_fract_x
_atom_site_fract_y
_atom_site_fract_z
C1 C -0.2864(6) 0.2158(4) -1.0730(5)
H1 H -0.2756 0.2341 -1.1336
C2 C -0.3936(6) 0.1525(4) -0.9697(5)
H2 H -0.4585 0.1254 -0.9572
C3 C -0.3157(6) 0.1649(4) -0.8975(5)
H3 H -0.3282 0.1457 -0.8376
C4 C -0.2045(6) 0.2297(4) -1.0048(5)
H4 H -0.1392 0.2553 -1.0200
C5 C -0.2203(5) 0.2054(3) -0.9136(4)
C6 C -0.1371(5) 0.2221(3) -0.8368(4)
C7 C -0.0485(7) 0.2791(5) -0.8524(6)
H5 H -0.0014 0.2835 -0.7966
H6 H -0.0837 0.3260 -0.8659
H7 H -0.0032 0.2646 -0.9047
C8 C -0.0111(5) 0.1523(3) -0.6507(4)
C9 C 0.0761(5) 0.1708(4) -0.5780(4)
C10 C 0.1131(6) 0.1186(4) -0.5134(5)
H8 H 0.0859 0.0703 -0.5176
C11 C 0.1899(7) 0.1369(5) -0.4426(6)
H9 H 0.2139 0.1015 -0.3987
C12 C 0.2303(7) 0.2078(6) -0.4379(7)
H10 H 0.2805 0.2208 -0.3892
C13 C 0.1988(7) 0.2599(5) -0.5028(6)
H11 H 0.2298 0.3072 -0.4997
C14 C 0.1206(6) 0.2424(4) -0.5733(5)
H12 H 0.0979 0.2780 -0.6172
C15 C -0.0322(5) 0.0726(3) -0.6770(4)
C16 C 0.0275(5) 0.0407(4) -0.7576(4)
C17 C 0.1228(6) 0.0752(4) -0.7928(5)
H13 H 0.1488 0.1190 -0.7651
C18 C 0.1788(6) 0.0459(5) -0.8673(5)
H14 H 0.2431 0.0695 -0.8891
C19 C 0.1418(7) -0.0175(5) -0.9103(5)
H15 H 0.1794 -0.0366 -0.9619
C20 C 0.0490(8) -0.0524(5) -0.8766(6)
H16 H 0.0240 -0.0963 -0.9045
C21 C -0.0082(6) -0.0229(4) -0.8012(5)
H17 H -0.0723 -0.0469 -0.7798
C22 C -0.2612(6) 0.0642(3) -0.5575(4)
C23 C -0.3345(6) 0.0455(4) -0.6401(5)
H18 H -0.2883 0.0318 -0.6922
H19 H -0.3796 0.0879 -0.6573
H20 H -0.3830 0.0049 -0.6244
C24 C -0.3153(5) 0.0873(4) -0.4684(4)
C25 C -0.2678(6) 0.0733(4) -0.3807(5)
H21 H -0.1990 0.0485 -0.3755
C26 C -0.3216(7) 0.0958(5) -0.3009(5)
H22 H -0.2881 0.0844 -0.2427
C27 C -0.4634(6) 0.1476(4) -0.3856(5)
H23 H -0.5300 0.1750 -0.3884
C28 C -0.4169(6) 0.1248(4) -0.4690(4)
H24 H -0.4542 0.1347 -0.5260
N1 N -0.3786(5) 0.1782(3) -1.0571(4)
N2 N -0.1442(4) 0.1849(3) -0.7606(4)
N3 N -0.0644(4) 0.2059(3) -0.6902(3)
N4 N -0.1033(4) 0.0318(3) -0.6345(4)
N5 N -0.1536(5) 0.0626(3) -0.5544(4)
N6 N -0.4177(5) 0.1325(3) -0.3014(4)
Cd1 Cd -0.51837(4) 0.16829(3) -1.17096(3)
I1 I -0.58448(4) 0.30759(3) -1.21841(4)
I2 I -0.65101(6) 0.05662(4) -1.11656(4)
N6_2 N -0.4177(5) 0.1325(3) -1.3014(4)
Cd1_2 Cd -0.51837(4) 0.16829(3) -0.17096(3)
loop_
_geom_bond_atom_site_label_1
_geom_bond_atom_site_label_2
_geom_bond_site_symmetry_1
_geom_bond_site_symmetry_2
C1 H1 1_555 1_555
C2 H2 1_555 1_555
C3 C2 1_555 1_555
H3 C3 1_555 1_555
C4 C1 1_555 1_555
H4 C4 1_555 1_555
C5 C3 1_555 1_555
C6 C5 1_555 1_555
C7 C6 1_555 1_555
H5 C7 1_555 1_555
H6 C7 1_555 1_555
H7 C7 1_555 1_555
C8 C9 1_555 1_555
C9 C10 1_555 1_555
C10 H8 1_555 1_555
C11 C10 1_555 1_555
H9 C11 1_555 1_555
C12 C11 1_555 1_555
H10 C12 1_555 1_555
C13 C12 1_555 1_555
H11 C13 1_555 1_555
C14 C9 1_555 1_555
H12 C14 1_555 1_555
C15 C8 1_555 1_555
C16 C15 1_555 1_555
C17 C16 1_555 1_555
H13 C17 1_555 1_555
C18 C17 1_555 1_555
H14 C18 1_555 1_555
C19 C18 1_555 1_555
H15 C19 1_555 1_555
C20 C19 1_555 1_555
H16 C20 1_555 1_555
C21 C16 1_555 1_555
H17 C21 1_555 1_555
C22 C23 1_555 1_555
C23 H18 1_555 1_555
H19 C23 1_555 1_555
H20 C23 1_555 1_555
C24 C22 1_555 1_555
C25 C24 1_555 1_555
H21 C25 1_555 1_555
C26 C25 1_555 1_555
H22 C26 1_555 1_555
C27 H23 1_555 1_555
C28 C24 1_555 1_555
H24 C28 1_555 1_555
N1 C1 1_555 1_555
N2 C6 1_555 1_555
N3 C8 1_555 1_555
N4 C15 1_555 1_555
N5 C22 1_555 1_555
N6 C26 1_555 1_555
Cd1 N1 1_555 1_555
I1 Cd1 1_555 1_555
I2 Cd1 1_555 1_555
N6_2 Cd1 1_555 1_555
Cd1_2 N6 1_555 1_555
C2 N1 1_555 1_555
C4 C5 1_555 1_555
C13 C14 1_555 1_555
C20 C21 1_555 1_555
C27 C28 1_555 1_555
C27 N6 1_555 1_555
N2 N3 1_555 1_555
N4 N5 1_555 1_555

#END
