
#######################################################################
#
#                 Cambridge Crystallographic Data Centre
#                                CCDC 
#
#######################################################################
#
# If this CIF has been generated from an entry in the Cambridge 
# Structural Database, then it will include bibliographic, chemical, 
# crystal, experimental, refinement or atomic coordinate data resulting 
# from the CCDC's data processing and validation procedures.
#
#######################################################################

data_CAPNIS
_symmetry_cell_setting           triclinic
_symmetry_space_group_name_H-M   'P -1'
_symmetry_Int_Tables_number      2
_space_group_name_Hall           '-P 1'
loop_
_symmetry_equiv_pos_site_id
_symmetry_equiv_pos_as_xyz
1 x,y,z
2 -x,-y,-z
_cell_length_a                   9.854(2)
_cell_length_b                   11.064(2)
_cell_length_c                   13.508(3)
_cell_angle_alpha                72.27(3)
_cell_angle_beta                 84.12(3)
_cell_angle_gamma                66.99(3)
_cell_volume                     1290.92
loop_
_atom_site_label
_atom_site_type_symbol
_atom_site_fract_x
_atom_site_fract_y
_atom_site_fract_z
La1 La 0.29591(2) 0.97583(2) 0.021025(15)
La2 La 0.59105(2) 0.43020(2) -0.126440(15)
O1 O 0.3460(3) 0.7730(3) -0.05005(19)
O2 O 0.4599(3) 0.6853(3) -0.1791(2)
O3 O 0.2401(3) 1.0258(3) -0.1729(2)
H1 H 0.1577 1.0596 -0.1988
O4 O 0.0623(4) 0.9277(4) -0.3932(2)
H2 H -0.0052 0.8998 -0.3826
O5 O 0.0989(4) 0.8340(4) -0.2213(2)
O6 O 0.4007(3) 0.6163(3) 0.30548(19)
H3 H 0.4549 0.6489 0.3052
O7 O 0.2157(3) 0.7965(3) 0.15237(19)
O8 O 0.2677(3) 1.2148(3) -0.0691(2)
O9 O 0.4812(3) 1.2463(3) -0.11008(19)
O10 O 0.3772(3) 1.3070(3) -0.3384(2)
O11 O 0.1564(4) 1.3570(4) -0.4030(2)
O12 O 0.3469(3) 1.5024(3) -0.22004(19)
H4 H 0.3249 1.5497 -0.2796
O13 O 0.2006(4) 0.3607(3) 0.4114(2)
H5 H 0.1898 0.3641 0.4716
O14 O 0.3676(3) 1.4724(3) -0.01317(19)
O15 O 0.5135(3) 0.9614(3) -0.08928(19)
O16 O 0.6857(3) 0.9774(3) -0.2024(2)
O17 O 0.2395(3) 0.4852(3) 0.2588(2)
O18 O 0.0256(3) 0.8472(3) 0.2582(2)
O19 O 0.4818(4) 0.6828(4) 0.5153(2)
H6 H 0.5130 0.7089 0.4574
O20 O 0.2795(4) 0.6580(4) 0.5828(2)
O21 O 0.1565(3) 1.6044(3) 0.0352(2)
O22 O 0.0301(3) 1.1224(3) 0.0386(2)
H7 H -0.0220 1.0717 0.0461
H8 H -0.0055 1.1317 0.0936
C1 C 0.3356(4) 0.9263(4) -0.2233(3)
C2 C 0.1555(4) 0.7862(4) 0.2416(3)
C3 C 0.1558(4) 1.4314(4) -0.2581(3)
H11 H 0.0883 1.3884 -0.2228
H12 H 0.0968 1.5254 -0.2951
C4 C 0.2387(5) 1.3579(4) -0.3378(3)
C5 C 0.1466(4) 1.5105(4) -0.1012(3)
H13 H 0.0802 1.5992 -0.1423
H14 H 0.0872 1.4590 -0.0645
C6 C 0.2632(5) 0.7808(4) 0.4030(3)
H15 H 0.3124 0.8403 0.3627
H16 H 0.1634 0.8387 0.4147
C7 C 0.3420(4) 1.2852(4) -0.1128(3)
C8 C 0.3832(4) 0.7822(4) -0.1443(3)
C9 C 0.2625(5) 0.9350(5) -0.3215(3)
H17 H 0.3364 0.8779 -0.3587
H18 H 0.2310 1.0289 -0.3659
C10 C 0.2271(4) 1.5315(4) -0.0226(3)
C11 C 0.2499(4) 1.4338(4) -0.1750(3)
C12 C 0.2156(4) 0.4719(5) 0.3518(3)
C13 C 0.5638(4) 0.9653(4) -0.1795(3)
C14 C 0.2570(4) 0.6884(4) 0.3391(3)
C15 C 0.1331(5) 0.8931(4) -0.3050(3)
C16 C 0.3430(5) 0.7012(5) 0.5072(3)
C17 C 0.1966(5) 0.5812(4) 0.4024(3)
H19 H 0.2460 0.5379 0.4699
H20 H 0.0925 0.6269 0.4136
C18 C 0.4739(5) 0.9599(4) -0.2615(3)
H21 H 0.4427 1.0480 -0.3143
H22 H 0.5379 0.8917 -0.2944
La1A La 0.70409(2) 1.02417(2) -0.021025(15)
La2A La 0.40895(2) 0.56980(2) 0.126440(15)
La2_2 La 0.59105(2) 1.43020(2) -0.126440(15)
La2A_2 La 0.40895(2) 1.56980(2) 0.126440(15)
O1A O 0.6540(3) 0.2270(3) 0.05005(19)
O6A O 0.5993(3) 0.3837(3) -0.30548(19)
H3A H 0.5451 0.3511 -0.3052
O7A O 0.7843(3) 0.2035(3) -0.15237(19)
O9A O 0.5188(3) 0.7537(3) 0.11008(19)
O9_2 O 0.4812(3) 0.2463(3) -0.11008(19)
O12_2 O 0.3469(3) 0.5024(3) -0.22004(19)
H4_2 H 0.3249 0.5497 -0.2796
O14A O 0.6324(3) 0.5276(3) 0.01317(19)
O14_2 O 0.3676(3) 0.4724(3) -0.01317(19)
O15A O 0.4865(3) 1.0386(3) 0.08928(19)
O16A O 0.3143(3) 1.0226(3) 0.2024(2)
O17A O 0.7605(3) 0.5148(3) -0.2588(2)
O21A O 0.8435(3) 0.3956(3) -0.0352(2)
O23 O 0.1702(5) 0.1363(5) 0.3652(3)
H9 H 0.1880 0.2038 0.3785
H10 H 0.1273 0.2151 0.3074
loop_
_geom_bond_atom_site_label_1
_geom_bond_atom_site_label_2
_geom_bond_site_symmetry_1
_geom_bond_site_symmetry_2
La1 O1 1_555 1_555
La2 O2 1_555 1_555
O1 C8 1_555 1_555
O2 C8 1_555 1_555
O3 La1 1_555 1_555
H1 O3 1_555 1_555
O4 H2 1_555 1_555
O5 C15 1_555 1_555
O6 H3 1_555 1_555
O7 La1 1_555 1_555
O8 La1 1_555 1_555
O9 C7 1_555 1_555
O10 C4 1_555 1_555
O11 C4 1_555 1_555
O12 H4 1_555 1_555
O13 H5 1_555 1_555
O14 C10 1_555 1_555
O15 La1 1_555 1_555
O16 C13 1_555 1_555
O17 C12 1_555 1_555
O18 C2 1_555 1_555
O19 H6 1_555 1_555
O20 C16 1_555 1_555
O21 C10 1_555 1_555
O22 La1 1_555 1_555
H7 O22 1_555 1_555
H8 O22 1_555 1_555
O23 H9 1_555 1_555
H10 O23 1_555 1_555
C1 O3 1_555 1_555
C2 O7 1_555 1_555
C3 H11 1_555 1_555
H12 C3 1_555 1_555
C4 C3 1_555 1_555
C5 H13 1_555 1_555
H14 C5 1_555 1_555
C6 H15 1_555 1_555
H16 C6 1_555 1_555
C7 O8 1_555 1_555
C8 C1 1_555 1_555
C9 C1 1_555 1_555
H17 C9 1_555 1_555
H18 C9 1_555 1_555
C10 C5 1_555 1_555
C11 O12 1_555 1_555
C12 O13 1_555 1_555
C13 O15 1_555 1_555
C14 O6 1_555 1_555
C15 O4 1_555 1_555
C16 O19 1_555 1_555
C17 C12 1_555 1_555
H19 C17 1_555 1_555
H20 C17 1_555 1_555
C18 C1 1_555 1_555
H21 C18 1_555 1_555
H22 C18 1_555 1_555
La1A O9 1_555 1_555
La2A O1 1_555 1_555
La2_2 O9 1_555 1_555
La2A_2 O14 1_555 1_555
O1A La2 1_555 1_555
O6A La2 1_555 1_555
H3A O6A 1_555 1_555
O7A La2 1_555 1_555
O9A La1 1_555 1_555
O9_2 La2 1_555 1_555
O12_2 La2 1_555 1_555
H4_2 O12_2 1_555 1_555
O14A La2 1_555 1_555
O14_2 La2 1_555 1_555
O15A La1 1_555 1_555
O16A La1 1_555 1_555
O17A La2 1_555 1_555
O21A La2 1_555 1_555
O6 La2A 1_555 1_555
O7 La2A 1_555 1_555
O12 La2_2 1_555 1_555
O14 La2_2 1_555 1_555
O15 La1A 1_555 1_555
O16 La1A 1_555 1_555
O17 La2A 1_555 1_555
O21 La2A_2 1_555 1_555
C2 C14 1_555 1_555
C3 C11 1_555 1_555
C5 C11 1_555 1_555
C6 C14 1_555 1_555
C6 C16 1_555 1_555
C7 C11 1_555 1_555
C9 C15 1_555 1_555
C13 C18 1_555 1_555
C14 C17 1_555 1_555
La1A O15A 1_555 1_555
La2A O9A 1_555 1_555
La2A O14A 1_555 1_555
La2A O14_2 1_555 1_555

#END
