
#######################################################################
#
#                 Cambridge Crystallographic Data Centre
#                                CCDC 
#
#######################################################################
#
# If this CIF has been generated from an entry in the Cambridge 
# Structural Database, then it will include bibliographic, chemical, 
# crystal, experimental, refinement or atomic coordinate data resulting 
# from the CCDC's data processing and validation procedures.
#
#######################################################################

data_CAPPEQ
_symmetry_cell_setting           monoclinic
_symmetry_space_group_name_H-M   'P 21/c'
_symmetry_Int_Tables_number      14
_space_group_name_Hall           '-P 2ybc'
loop_
_symmetry_equiv_pos_site_id
_symmetry_equiv_pos_as_xyz
1 x,y,z
2 -x,1/2+y,1/2-z
3 -x,-y,-z
4 x,1/2-y,1/2+z
_cell_length_a                   6.4536(15)
_cell_length_b                   7.4490(16)
_cell_length_c                   26.307(6)
_cell_angle_alpha                90
_cell_angle_beta                 98.027(18)
_cell_angle_gamma                90
_cell_volume                     1252.26
loop_
_atom_site_label
_atom_site_type_symbol
_atom_site_fract_x
_atom_site_fract_y
_atom_site_fract_z
Co1 Co 1.0000 0.5000 0.5000
C1 C 1.2730(6) 0.3854(5) 0.80221(14)
H1 H 1.3981 0.3502 0.7915
C2 C 1.2512(8) 0.3762(5) 0.85411(15)
H2 H 1.3613 0.3350 0.8778
C3 C 1.0675(9) 0.4280(7) 0.86996(16)
H3 H 1.0534 0.4226 0.9046
C4 C 0.9032(8) 0.4881(5) 0.83517(16)
H4 H 0.7783 0.5220 0.8463
C5 C 0.9238(6) 0.4981(4) 0.78314(14)
H5 H 0.8129 0.5392 0.7596
C6 C 1.1104(6) 0.4465(5) 0.76647(12)
C7 C 1.1504(6) 0.4627(5) 0.71191(13)
C8 C 0.9819(5) 0.4424(4) 0.66727(11)
C9 C 0.7828(5) 0.3764(4) 0.66951(12)
H6 H 0.7445 0.3383 0.7006
C10 C 0.6413(5) 0.3680(4) 0.62476(12)
H7 H 0.5049 0.3292 0.6257
C11 C 0.7045(5) 0.4175(4) 0.57895(12)
H8 H 0.6075 0.4136 0.5493
C12 C 1.0339(5) 0.4867(4) 0.61901(11)
H9 H 1.1681 0.5291 0.6171
C13 C 0.7198(4) 1.1562(4) 0.46275(11)
C14 C 0.7244(4) 0.8519(4) 0.46869(11)
O1 O 1.3295(4) 0.4888(5) 0.70406(11)
N1 N 0.9002(4) 0.4713(3) 0.57522(9)
N2 N 0.7775(4) 1.3009(3) 0.47023(9)
N3 N 0.7839(4) 0.7121(3) 0.48122(10)
N4 N 0.6393(6) 1.0004(3) 0.45020(15)
Co1_2 Co 1.0000 -0.5000 0.5000
Co1_3 Co 1.0000 1.5000 0.5000
C1B C 0.7270(6) 0.6146(5) 0.19779(14)
H1B H 0.6019 0.6498 0.2085
C2B C 0.7488(8) 0.6238(5) 0.14589(15)
H2B H 0.6387 0.6650 0.1222
C3B C 0.9325(9) 0.5720(7) 0.13004(16)
H3B H 0.9466 0.5774 0.0954
C4B C 1.0968(8) 0.5119(5) 0.16483(16)
H4B H 1.2217 0.4780 0.1537
C5B C 1.0762(6) 0.5019(4) 0.21686(14)
H5B H 1.1871 0.4608 0.2404
C6B C 0.8896(6) 0.5535(5) 0.23353(12)
C7B C 0.8496(6) 0.5373(5) 0.28809(13)
C8B C 1.0181(5) 0.5576(4) 0.33273(11)
C9B C 1.2172(5) 0.6236(4) 0.33049(12)
H6B H 1.2555 0.6617 0.2994
C10B C 1.3587(5) 0.6320(4) 0.37524(12)
H7B H 1.4951 0.6708 0.3743
C11B C 1.2955(5) 0.5825(4) 0.42105(12)
H8B H 1.3925 0.5864 0.4507
C12B C 0.9661(5) 0.5133(4) 0.38099(11)
H9B H 0.8319 0.4709 0.3829
C13B C 1.2802(4) -0.1562(4) 0.53725(11)
C14B C 1.2756(4) 0.1481(4) 0.53131(11)
O1B O 0.6705(4) 0.5112(5) 0.29594(11)
N1B N 1.0998(4) 0.5287(3) 0.42478(9)
N2B N 1.2225(4) -0.3009(3) 0.52977(9)
N2_2 N 0.7775(4) 0.3009(3) 0.47023(9)
N2B_2 N 1.2225(4) 0.6991(3) 0.52977(9)
N3B N 1.2161(4) 0.2879(3) 0.51878(10)
N4B N 1.3607(6) -0.0004(3) 0.54980(15)
loop_
_geom_bond_atom_site_label_1
_geom_bond_atom_site_label_2
_geom_bond_site_symmetry_1
_geom_bond_site_symmetry_2
Co1 N1 1_555 1_555
C1 H1 1_555 1_555
C2 C1 1_555 1_555
H2 C2 1_555 1_555
C3 C2 1_555 1_555
H3 C3 1_555 1_555
C4 C3 1_555 1_555
H4 C4 1_555 1_555
C5 C4 1_555 1_555
H5 C5 1_555 1_555
C6 C1 1_555 1_555
C7 C6 1_555 1_555
C8 C7 1_555 1_555
C9 C8 1_555 1_555
H6 C9 1_555 1_555
C10 C9 1_555 1_555
H7 C10 1_555 1_555
C11 C10 1_555 1_555
H8 C11 1_555 1_555
C12 C8 1_555 1_555
H9 C12 1_555 1_555
C13 N2 1_555 1_555
C14 N3 1_555 1_555
O1 C7 1_555 1_555
N1 C11 1_555 1_555
N2 Co1_3 1_555 1_555
N3 Co1 1_555 1_555
N4 C13 1_555 1_555
Co1_2 N2B 1_555 1_555
C1B H1B 1_555 1_555
C2B C1B 1_555 1_555
H2B C2B 1_555 1_555
C3B C2B 1_555 1_555
H3B C3B 1_555 1_555
C4B C3B 1_555 1_555
H4B C4B 1_555 1_555
C5B C4B 1_555 1_555
H5B C5B 1_555 1_555
C6B C1B 1_555 1_555
C7B C6B 1_555 1_555
C8B C7B 1_555 1_555
C9B C8B 1_555 1_555
H6B C9B 1_555 1_555
C10B C9B 1_555 1_555
H7B C10B 1_555 1_555
C11B C10B 1_555 1_555
H8B C11B 1_555 1_555
C12B C8B 1_555 1_555
H9B C12B 1_555 1_555
C13B N2B 1_555 1_555
C14B N3B 1_555 1_555
O1B C7B 1_555 1_555
N1B Co1 1_555 1_555
N2_2 Co1 1_555 1_555
N2B_2 Co1 1_555 1_555
N3B Co1 1_555 1_555
N4B C13B 1_555 1_555
C5 C6 1_555 1_555
C12 N1 1_555 1_555
C14 N4 1_555 1_555
C5B C6B 1_555 1_555
C11B N1B 1_555 1_555
C12B N1B 1_555 1_555
C14B N4B 1_555 1_555

#END
