
#######################################################################
#
#                 Cambridge Crystallographic Data Centre
#                                CCDC 
#
#######################################################################
#
# If this CIF has been generated from an entry in the Cambridge 
# Structural Database, then it will include bibliographic, chemical, 
# crystal, experimental, refinement or atomic coordinate data resulting 
# from the CCDC's data processing and validation procedures.
#
#######################################################################

data_CAPQIU
_symmetry_cell_setting           tetragonal
_symmetry_space_group_name_H-M   'I 41/a'
_symmetry_Int_Tables_number      88
_space_group_name_Hall           '-I 4ad'
loop_
_symmetry_equiv_pos_site_id
_symmetry_equiv_pos_as_xyz
1 x,y,z
2 3/4-y,1/4+x,1/4+z
3 1/2+x,1/2+y,1/2+z
4 1/4-y,3/4+x,3/4+z
5 1/4+y,1/4-x,1/4+z
6 1/2-x,-y,1/2+z
7 3/4+y,3/4-x,3/4+z
8 -x,1/2-y,z
9 -x,-y,-z
10 1/4+y,3/4-x,3/4-z
11 1/2-x,1/2-y,1/2-z
12 3/4+y,1/4-x,1/4-z
13 3/4-y,3/4+x,3/4-z
14 1/2+x,y,1/2-z
15 1/4-y,1/4+x,1/4-z
16 x,1/2+y,-z
_cell_length_a                   17.5832(4)
_cell_length_b                   17.5832(4)
_cell_length_c                   12.1881(6)
_cell_angle_alpha                90
_cell_angle_beta                 90
_cell_angle_gamma                90
_cell_volume                     3768.18
loop_
_atom_site_label
_atom_site_type_symbol
_atom_site_fract_x
_atom_site_fract_y
_atom_site_fract_z
Cu1 Cu 0.0000 0.7500 0.09016(13)
Cu2 Cu 0.14046(7) 0.80280(7) -0.12705(10)
S1 S 0.09773(11) 0.70730(11) -0.01972(16)
Cl1 Cl 0.2500 0.7500 -0.2500
Cl2 Cl 0.04812(12) 0.84903(12) 0.20431(18)
Cl3 Cl 0.20213(12) 0.90588(12) -0.0395(2)
Cu3 Cu 0.09439(9) 0.90926(8) 0.05683(12)
C1 C 0.1596(5) 0.6087(5) 0.1312(7)
H1 H 0.1144 0.5814 0.1269
C2 C 0.2378(5) 0.7140(5) 0.0784(7)
H2 H 0.2463 0.7575 0.0368
C3 C 0.1689(4) 0.6752(4) 0.0699(6)
N1 N 0.2812(4) 0.6244(5) 0.2043(6)
H3 H 0.3165 0.6085 0.2474
C4 C 0.2928(5) 0.6882(6) 0.1476(8)
H4 H 0.3381 0.7149 0.1553
C5 C 0.2167(5) 0.5841(6) 0.1969(8)
H5 H 0.2111 0.5394 0.2368
Cu2G Cu -0.14046(7) 0.69720(7) -0.12705(10)
Cu2I Cu 0.05280(7) 0.60954(7) -0.12295(10)
Cu2J Cu 0.35954(7) 0.69720(7) -0.37295(10)
Cu2L Cu -0.05280(7) 0.89046(7) -0.12295(10)
S1G S -0.09773(11) 0.79270(11) -0.01972(16)
S1L S 0.04270(11) 0.84773(11) -0.23028(16)
S1I S -0.04270(11) 0.65227(11) -0.23028(16)
Cl1D Cl 0.0000 1.0000 0.0000
Cl1M Cl -0.2500 0.7500 -0.2500
Cl1A Cl 0.0000 0.5000 0.0000
Cl2G Cl -0.04812(12) 0.65097(12) 0.20431(18)
Cl3G Cl -0.20213(12) 0.59412(12) -0.0395(2)
Cu3G Cu -0.09439(9) 0.59074(8) 0.05683(12)
Cu3C Cu 0.34074(8) 0.84439(9) -0.19317(12)
Cu3I Cu 0.15926(8) 0.65561(9) -0.30683(12)
C1G C -0.1596(5) 0.8913(5) 0.1312(7)
H1G H -0.1144 0.9186 0.1269
C2G C -0.2378(5) 0.7860(5) 0.0784(7)
H2G H -0.2463 0.7425 0.0368
C3G C -0.1689(4) 0.8248(4) 0.0699(6)
N1G N -0.2812(4) 0.8756(5) 0.2043(6)
H3G H -0.3165 0.8915 0.2474
C4G C -0.2928(5) 0.8118(6) 0.1476(8)
H4G H -0.3381 0.7851 0.1553
C5G C -0.2167(5) 0.9159(6) 0.1969(8)
H5G H -0.2111 0.9606 0.2368
loop_
_geom_bond_atom_site_label_1
_geom_bond_atom_site_label_2
_geom_bond_site_symmetry_1
_geom_bond_site_symmetry_2
Cu1 S1 1_555 1_555
Cu2 S1 1_555 1_555
S1 C3 1_555 1_555
Cl1 Cu2 1_555 1_555
Cl2 Cu1 1_555 1_555
Cl3 Cu2 1_555 1_555
Cu3 Cl2 1_555 1_555
C1 H1 1_555 1_555
C2 H2 1_555 1_555
C3 C1 1_555 1_555
N1 H3 1_555 1_555
C4 C2 1_555 1_555
H4 C4 1_555 1_555
C5 C1 1_555 1_555
H5 C5 1_555 1_555
Cu2G S1G 1_555 1_555
Cu2I S1 1_555 1_555
Cu2J Cl1 1_555 1_555
Cu2L S1G 1_555 1_555
S1G Cu1 1_555 1_555
S1L Cu2 1_555 1_555
S1I Cu2G 1_555 1_555
Cl1D Cu3 1_555 1_555
Cl1M Cu2G 1_555 1_555
Cl1A Cu2I 1_555 1_555
Cl2G Cu1 1_555 1_555
Cl3G Cu2G 1_555 1_555
Cu3G Cl1A 1_555 1_555
Cu3C Cl1 1_555 1_555
Cu3I Cl1 1_555 1_555
C1G H1G 1_555 1_555
C2G H2G 1_555 1_555
C3G S1G 1_555 1_555
N1G H3G 1_555 1_555
C4G C2G 1_555 1_555
H4G C4G 1_555 1_555
C5G C1G 1_555 1_555
H5G C5G 1_555 1_555
Cl3 Cu3 1_555 1_555
C2 C3 1_555 1_555
N1 C4 1_555 1_555
N1 C5 1_555 1_555
Cu2I S1I 1_555 1_555
Cu2L S1L 1_555 1_555
Cu2L Cl1D 1_555 1_555
Cl2G Cu3G 1_555 1_555
Cl3G Cu3G 1_555 1_555
C1G C3G 1_555 1_555
C2G C3G 1_555 1_555
N1G C4G 1_555 1_555
N1G C5G 1_555 1_555

#END
