
#######################################################################
#
#                 Cambridge Crystallographic Data Centre
#                                CCDC 
#
#######################################################################
#
# If this CIF has been generated from an entry in the Cambridge 
# Structural Database, then it will include bibliographic, chemical, 
# crystal, experimental, refinement or atomic coordinate data resulting 
# from the CCDC's data processing and validation procedures.
#
#######################################################################

data_CAPROB
_symmetry_cell_setting           orthorhombic
_symmetry_space_group_name_H-M   'P b c n'
_symmetry_Int_Tables_number      60
_space_group_name_Hall           '-P 2n 2ab'
loop_
_symmetry_equiv_pos_site_id
_symmetry_equiv_pos_as_xyz
1 x,y,z
2 -x,y,1/2-z
3 1/2+x,1/2-y,-z
4 1/2-x,1/2-y,1/2+z
5 -x,-y,-z
6 x,-y,1/2+z
7 1/2-x,1/2+y,z
8 1/2+x,1/2+y,1/2-z
_cell_length_a                   11.903(2)
_cell_length_b                   9.3733(16)
_cell_length_c                   17.981(3)
_cell_angle_alpha                90
_cell_angle_beta                 90
_cell_angle_gamma                90
_cell_volume                     2006.15
loop_
_atom_site_label
_atom_site_type_symbol
_atom_site_fract_x
_atom_site_fract_y
_atom_site_fract_z
Mn1 Mn 0.0000 0.05906(11) 0.2500
O2 O -0.1200(3) 0.2230(4) 0.2493(2)
N1 N -0.3666(3) 0.3955(4) 0.2921(2)
N2 N -0.2760(4) 0.3586(5) 0.2541(2)
N3 N -0.2144(4) 0.2230(6) 0.3592(3)
N4 N -0.3039(4) 0.2645(6) 0.3961(3)
N5 N -0.4786(3) 0.3806(5) 0.3975(2)
N6 N -0.5446(4) 0.4864(4) 0.3669(2)
C2 C -0.3785(4) 0.3436(5) 0.3605(3)
C3 C -0.2025(4) 0.2652(5) 0.2867(3)
C4 C -0.6334(4) 0.4932(6) 0.4113(3)
C5 C -0.6251(5) 0.3957(6) 0.4692(3)
H1 H -0.6781 0.3821 0.5080
C6 C -0.5268(4) 0.3232(6) 0.4600(3)
C7 C -0.4809(5) 0.2013(6) 0.5024(3)
H2 H -0.4085 0.1730 0.4812
H3 H -0.4705 0.2292 0.5545
H4 H -0.5334 0.1209 0.4997
C8 C -0.7292(5) 0.5924(7) 0.3971(3)
H5 H -0.7137 0.6488 0.3524
H6 H -0.7982 0.5370 0.3897
H7 H -0.7386 0.6563 0.4397
Mn1F Mn -0.5000 0.55906(11) 0.2500
Mn1F_2 Mn 0.5000 0.55906(11) 0.2500
O2A O 0.1200(3) 0.2230(4) 0.2507(2)
N1A N 0.3666(3) 0.3955(4) 0.2079(2)
N1F N -0.1334(3) -0.1045(4) 0.2921(2)
N1G N 0.1334(3) -0.1045(4) 0.2079(2)
N2A N 0.2760(4) 0.3586(5) 0.2459(2)
N3A N 0.2144(4) 0.2230(6) 0.1408(3)
N4A N 0.3039(4) 0.2645(6) 0.1039(3)
N5A N 0.4786(3) 0.3806(5) 0.1025(2)
N6A N 0.5446(4) 0.4864(4) 0.1331(2)
N6F N 0.0446(4) -0.0136(4) 0.3669(2)
N6G N -0.0446(4) -0.0136(4) 0.1331(2)
C2A C 0.3785(4) 0.3436(5) 0.1395(3)
C3A C 0.2025(4) 0.2652(5) 0.2133(3)
C4A C 0.6334(4) 0.4932(6) 0.0887(3)
C5A C 0.6251(5) 0.3957(6) 0.0308(3)
H1A H 0.6781 0.3821 -0.0080
C6A C 0.5268(4) 0.3232(6) 0.0400(3)
C7A C 0.4809(5) 0.2013(6) -0.0024(3)
H2A H 0.4085 0.1730 0.0188
H3A H 0.4705 0.2292 -0.0545
H4A H 0.5334 0.1209 0.0003
C8A C 0.7292(5) 0.5924(7) 0.1029(3)
H5A H 0.7137 0.6488 0.1476
H6A H 0.7982 0.5370 0.1103
H7A H 0.7386 0.6563 0.0603
O1 O 0.0195(8) -0.5399(11) 0.3310(5)
C1 C -0.0036(11) -0.4509(12) 0.2877(7)
O1A O -0.0195(8) -0.5399(11) 0.1690(5)
C1A C 0.0036(11) -0.4509(12) 0.2123(7)
loop_
_geom_bond_atom_site_label_1
_geom_bond_atom_site_label_2
_geom_bond_site_symmetry_1
_geom_bond_site_symmetry_2
O1 C1 1_555 1_555
C1 C1A 1_555 1_555
Mn1 O2 1_555 1_555
O2 C3 1_555 1_555
N1 N2 1_555 1_555
N2 C3 1_555 1_555
N3 N4 1_555 1_555
N4 C2 1_555 1_555
N5 N6 1_555 1_555
N6 C4 1_555 1_555
C2 N1 1_555 1_555
C3 N3 1_555 1_555
C4 C5 1_555 1_555
C5 H1 1_555 1_555
C6 N5 1_555 1_555
C7 C6 1_555 1_555
H2 C7 1_555 1_555
H3 C7 1_555 1_555
H4 C7 1_555 1_555
C8 C4 1_555 1_555
H5 C8 1_555 1_555
H6 C8 1_555 1_555
H7 C8 1_555 1_555
O1A C1A 1_555 1_555
Mn1F N1 1_555 1_555
Mn1F_2 N1A 1_555 1_555
O2A Mn1 1_555 1_555
N1A N2A 1_555 1_555
N1F Mn1 1_555 1_555
N1G Mn1 1_555 1_555
N2A C3A 1_555 1_555
N3A N4A 1_555 1_555
N4A C2A 1_555 1_555
N5A N6A 1_555 1_555
N6A Mn1F_2 1_555 1_555
N6F Mn1 1_555 1_555
N6G Mn1 1_555 1_555
C2A N1A 1_555 1_555
C3A O2A 1_555 1_555
C4A N6A 1_555 1_555
C5A C4A 1_555 1_555
H1A C5A 1_555 1_555
C6A N5A 1_555 1_555
C7A C6A 1_555 1_555
H2A C7A 1_555 1_555
H3A C7A 1_555 1_555
H4A C7A 1_555 1_555
C8A C4A 1_555 1_555
H5A C8A 1_555 1_555
H6A C8A 1_555 1_555
H7A C8A 1_555 1_555
N5 C2 1_555 1_555
N6 Mn1F 1_555 1_555
C5 C6 1_555 1_555
N3A C3A 1_555 1_555
N5A C2A 1_555 1_555
C5A C6A 1_555 1_555

#END
