
#######################################################################
#
#                 Cambridge Crystallographic Data Centre
#                                CCDC 
#
#######################################################################
#
# If this CIF has been generated from an entry in the Cambridge 
# Structural Database, then it will include bibliographic, chemical, 
# crystal, experimental, refinement or atomic coordinate data resulting 
# from the CCDC's data processing and validation procedures.
#
#######################################################################

data_CAPSAO
_symmetry_cell_setting           monoclinic
_symmetry_space_group_name_H-M   'P 21/c'
_symmetry_Int_Tables_number      14
_space_group_name_Hall           '-P 2ybc'
loop_
_symmetry_equiv_pos_site_id
_symmetry_equiv_pos_as_xyz
1 x,y,z
2 -x,1/2+y,1/2-z
3 -x,-y,-z
4 x,1/2-y,1/2+z
_cell_length_a                   6.4592(13)
_cell_length_b                   7.6431(15)
_cell_length_c                   25.592(5)
_cell_angle_alpha                90
_cell_angle_beta                 91.39(3)
_cell_angle_gamma                90
_cell_volume                     1263.06
loop_
_atom_site_label
_atom_site_type_symbol
_atom_site_fract_x
_atom_site_fract_y
_atom_site_fract_z
Cu1 Cu 0.27614(12) 0.72568(10) 0.09845(3)
Cu2 Cu 0.0000 1.5000 0.0000
O1 O 0.5409(6) 0.7738(5) 0.06524(16)
O2 O 0.7755(7) 0.9797(5) 0.05058(17)
O3 O 0.0219(7) 0.6872(6) 0.13247(18)
O4 O 0.4340(9) 1.4163(7) 0.1366(2)
O5 O 0.2671(8) 1.4887(7) 0.0648(2)
O6 O 0.0568(7) 1.7611(6) 0.01013(18)
O7 O -0.1903(7) 1.5027(6) 0.05719(19)
N1 N 0.3069(8) 0.9636(7) 0.1224(2)
C1 C 0.6115(10) 0.9299(8) 0.0698(2)
C2 C 0.4842(11) 1.0595(9) 0.1007(3)
H1 H 0.5718 1.1067 0.1302
C3 C 0.4132(12) 1.2091(9) 0.0665(3)
H2 H 0.5204 1.2303 0.0403
H3 H 0.2856 1.1723 0.0473
C4 C 0.3702(10) 1.3782(8) 0.0933(3)
C5 C 0.1931(11) 1.0347(9) 0.1569(3)
C6 C 0.0136(10) 0.9584(9) 0.1799(2)
C7 C -0.0847(11) 1.0585(11) 0.2186(3)
H4 H -0.0305 1.1701 0.2279
C8 C -0.2571(11) 0.9971(12) 0.2429(3)
H5 H -0.3184 1.0632 0.2699
C9 C -0.3396(11) 0.8398(11) 0.2278(3)
H6 H -0.4614 0.7994 0.2440
C10 C -0.2513(11) 0.7380(11) 0.1898(3)
H7 H -0.3148 0.6309 0.1795
C11 C -0.0656(10) 0.7931(9) 0.1660(2)
H8 H 0.2434 1.1300 0.1672
H9 H -0.0369 1.8055 0.0162
H10 H 0.1557 1.8044 0.0273
H11 H -0.2867 1.5792 0.0542
H12 H -0.1113 1.5315 0.0856
Cu1B Cu -0.27614(12) 2.27432(10) -0.09845(3)
Cu1_2 Cu 0.27614(12) 1.72568(10) 0.09845(3)
Cu1B_2 Cu -0.27614(12) 1.27432(10) -0.09845(3)
O1B O -0.5409(6) 2.2262(5) -0.06524(16)
O2B O -0.7755(7) 2.0203(5) -0.05058(17)
O3B O -0.0219(7) 2.3128(6) -0.13247(18)
O4B O -0.4340(9) 1.5837(7) -0.1366(2)
O5B O -0.2671(8) 1.5113(7) -0.0648(2)
O5_2 O 0.2671(8) 0.4887(7) 0.0648(2)
O5B_2 O -0.2671(8) 2.5113(7) -0.0648(2)
O6B O -0.0568(7) 1.2389(6) -0.01013(18)
O7B O 0.1903(7) 1.4973(6) -0.05719(19)
N1B N -0.3069(8) 2.0364(7) -0.1224(2)
C1B C -0.6115(10) 2.0701(8) -0.0698(2)
C2B C -0.4842(11) 1.9405(9) -0.1007(3)
H1B H -0.5718 1.8933 -0.1302
C3B C -0.4132(12) 1.7909(9) -0.0665(3)
H2B H -0.5204 1.7697 -0.0403
H3B H -0.2856 1.8277 -0.0473
C4B C -0.3702(10) 1.6218(8) -0.0933(3)
C5B C -0.1931(11) 1.9653(9) -0.1569(3)
C6B C -0.0136(10) 2.0416(9) -0.1799(2)
C7B C 0.0847(11) 1.9415(11) -0.2186(3)
H4B H 0.0305 1.8299 -0.2279
C8B C 0.2571(11) 2.0029(12) -0.2429(3)
H5B H 0.3184 1.9368 -0.2699
C9B C 0.3396(11) 2.1602(11) -0.2278(3)
H6B H 0.4614 2.2006 -0.2440
C10B C 0.2513(11) 2.2620(11) -0.1898(3)
H7B H 0.3148 2.3691 -0.1795
C11B C 0.0656(10) 2.2069(9) -0.1660(2)
H8B H -0.2434 1.8700 -0.1672
H9B H 0.0369 1.1945 -0.0162
H10B H -0.1557 1.1956 -0.0273
H11B H 0.2867 1.4208 -0.0542
H12B H 0.1113 1.4685 -0.0856
O8 O -0.111(5) 0.373(4) 0.1418(16)
loop_
_geom_bond_atom_site_label_1
_geom_bond_atom_site_label_2
_geom_bond_site_symmetry_1
_geom_bond_site_symmetry_2
Cu1 O1 1_555 1_555
Cu2 O5 1_555 1_555
O1 C1 1_555 1_555
O2 C1 1_555 1_555
O3 Cu1 1_555 1_555
O4 C4 1_555 1_555
O5 C4 1_555 1_555
O6 Cu2 1_555 1_555
O7 Cu2 1_555 1_555
N1 Cu1 1_555 1_555
C1 C2 1_555 1_555
C2 N1 1_555 1_555
H1 C2 1_555 1_555
C3 C2 1_555 1_555
H2 C3 1_555 1_555
H3 C3 1_555 1_555
C4 C3 1_555 1_555
C5 N1 1_555 1_555
C6 C5 1_555 1_555
C7 C6 1_555 1_555
H4 C7 1_555 1_555
C8 C7 1_555 1_555
H5 C8 1_555 1_555
C9 C8 1_555 1_555
H6 C9 1_555 1_555
C10 C9 1_555 1_555
H7 C10 1_555 1_555
C11 O3 1_555 1_555
H8 C5 1_555 1_555
H9 O6 1_555 1_555
H10 O6 1_555 1_555
H11 O7 1_555 1_555
H12 O7 1_555 1_555
Cu1B O1B 1_555 1_555
Cu1_2 O5 1_555 1_555
Cu1B_2 O5B 1_555 1_555
O1B C1B 1_555 1_555
O2B C1B 1_555 1_555
O3B Cu1B 1_555 1_555
O4B C4B 1_555 1_555
O5B Cu2 1_555 1_555
O5_2 Cu1 1_555 1_555
O5B_2 Cu1B 1_555 1_555
O6B Cu2 1_555 1_555
O7B Cu2 1_555 1_555
N1B Cu1B 1_555 1_555
C1B C2B 1_555 1_555
C2B N1B 1_555 1_555
H1B C2B 1_555 1_555
C3B C2B 1_555 1_555
H2B C3B 1_555 1_555
H3B C3B 1_555 1_555
C4B O5B 1_555 1_555
C5B N1B 1_555 1_555
C6B C5B 1_555 1_555
C7B C6B 1_555 1_555
H4B C7B 1_555 1_555
C8B C7B 1_555 1_555
H5B C8B 1_555 1_555
C9B C8B 1_555 1_555
H6B C9B 1_555 1_555
C10B C9B 1_555 1_555
H7B C10B 1_555 1_555
C11B O3B 1_555 1_555
H8B C5B 1_555 1_555
H9B O6B 1_555 1_555
H10B O6B 1_555 1_555
H11B O7B 1_555 1_555
H12B O7B 1_555 1_555
C6 C11 1_555 1_555
C10 C11 1_555 1_555
C3B C4B 1_555 1_555
C6B C11B 1_555 1_555
C10B C11B 1_555 1_555

#END
