
#######################################################################
#
#                 Cambridge Crystallographic Data Centre
#                                CCDC 
#
#######################################################################
#
# If this CIF has been generated from an entry in the Cambridge 
# Structural Database, then it will include bibliographic, chemical, 
# crystal, experimental, refinement or atomic coordinate data resulting 
# from the CCDC's data processing and validation procedures.
#
#######################################################################

data_CAPXIC
_symmetry_cell_setting           monoclinic
_symmetry_space_group_name_H-M   'C 2/c'
_symmetry_Int_Tables_number      15
_space_group_name_Hall           '-C 2yn'
loop_
_symmetry_equiv_pos_site_id
_symmetry_equiv_pos_as_xyz
1 x,y,z
2 -x,y,1/2-z
3 1/2+x,1/2+y,z
4 1/2-x,1/2+y,1/2-z
5 -x,-y,-z
6 x,-y,1/2+z
7 1/2-x,1/2-y,-z
8 1/2+x,1/2-y,1/2+z
_cell_length_a                   20.028(9)
_cell_length_b                   12.447(6)
_cell_length_c                   19.136(12)
_cell_angle_alpha                90
_cell_angle_beta                 119.145(6)
_cell_angle_gamma                90
_cell_volume                     4166.41
loop_
_atom_site_label
_atom_site_type_symbol
_atom_site_fract_x
_atom_site_fract_y
_atom_site_fract_z
Sn1 Sn 0.16337(2) 0.16235(4) 0.21143(2)
O1 O -0.2281(3) 0.2758(4) -0.1964(3)
O2 O -0.2704(3) 0.2961(6) -0.1104(3)
O3 O 0.0444(2) 0.0815(4) 0.1080(3)
N1 N -0.0168(3) 0.1296(4) 0.0536(3)
C1 C -0.2220(4) 0.2686(6) -0.1268(4)
C2 C -0.1487(4) 0.2230(6) -0.0639(4)
C3 C -0.1371(4) 0.2073(6) 0.0128(4)
H1 H -0.1742 0.2290 0.0257
C4 C -0.0708(4) 0.1598(6) 0.0704(4)
H2 H -0.0640 0.1488 0.1215
C5 C -0.0260(4) 0.1460(5) -0.0197(4)
H3 H 0.0125 0.1252 -0.0308
C6 C -0.0906(4) 0.1926(6) -0.0787(4)
H4 H -0.0954 0.2039 -0.1290
C7 C 0.0952(6) 0.2901(8) 0.2174(6)
H5 H 0.0460 0.2621 0.2070
H6 H 0.1202 0.3209 0.2707
C8 C 0.0833(8) 0.3769(9) 0.1565(8)
H7 H 0.1324 0.4057 0.1672
H8 H 0.0586 0.3462 0.1032
C9 C 0.0341(8) 0.4664(10) 0.1611(8)
H9 H 0.0000 0.4574 0.1806
C10 C 0.0461(9) 0.5660(11) 0.1318(10)
H10 H 0.0792 0.5548 0.1095
H11 H 0.0691 0.6166 0.1751
H12 H -0.0021 0.5937 0.0913
C11 C 0.1743(5) 0.0079(7) 0.2620(5)
H13 H 0.1626 -0.0454 0.2205
H14 H 0.2272 -0.0025 0.3027
C12 C 0.1243(4) -0.0125(6) 0.2988(5)
H15 H 0.0715 0.0013 0.2590
H16 H 0.1379 0.0379 0.3424
C13 C 0.1302(5) -0.1249(7) 0.3303(5)
H17 H 0.1832 -0.1397 0.3686
H18 H 0.1146 -0.1752 0.2864
C14 C 0.0820(6) -0.1438(8) 0.3701(7)
H19 H 0.0941 -0.0907 0.4109
H20 H 0.0925 -0.2141 0.3937
H21 H 0.0289 -0.1386 0.3309
C15 C 0.2003(6) 0.1786(8) 0.1261(7)
H22 H 0.1568 0.1979 0.0751
H23 H 0.2368 0.2371 0.1422
C16 C 0.2367(6) 0.0785(8) 0.1150(6)
H24 H 0.2739 0.0520 0.1674
H25 H 0.1975 0.0239 0.0901
C17 C 0.2752(6) 0.0921(9) 0.0661(7)
H26 H 0.2376 0.1155 0.0129
H27 H 0.3131 0.1487 0.0897
C18 C 0.3130(8) -0.0050(11) 0.0587(8)
H28 H 0.3673 0.0017 0.0922
H29 H 0.3013 -0.0137 0.0041
H30 H 0.2951 -0.0665 0.0751
Sn1G Sn -0.33663(2) 0.33765(4) -0.28857(2)
O1G O 0.2719(3) 0.2242(4) 0.3036(3)
loop_
_geom_bond_atom_site_label_1
_geom_bond_atom_site_label_2
_geom_bond_site_symmetry_1
_geom_bond_site_symmetry_2
Sn1 O3 1_555 1_555
O1 C1 1_555 1_555
O2 C1 1_555 1_555
O3 N1 1_555 1_555
N1 C4 1_555 1_555
C1 C2 1_555 1_555
C2 C3 1_555 1_555
C3 H1 1_555 1_555
C4 C3 1_555 1_555
H2 C4 1_555 1_555
C5 N1 1_555 1_555
H3 C5 1_555 1_555
C6 C2 1_555 1_555
H4 C6 1_555 1_555
C7 Sn1 1_555 1_555
H5 C7 1_555 1_555
H6 C7 1_555 1_555
C8 C7 1_555 1_555
H7 C8 1_555 1_555
H8 C8 1_555 1_555
C9 C8 1_555 1_555
H9 C9 1_555 1_555
C10 C9 1_555 1_555
H10 C10 1_555 1_555
H11 C10 1_555 1_555
H12 C10 1_555 1_555
C11 Sn1 1_555 1_555
H13 C11 1_555 1_555
H14 C11 1_555 1_555
C12 C11 1_555 1_555
H15 C12 1_555 1_555
H16 C12 1_555 1_555
C13 C12 1_555 1_555
H17 C13 1_555 1_555
H18 C13 1_555 1_555
C14 C13 1_555 1_555
H19 C14 1_555 1_555
H20 C14 1_555 1_555
H21 C14 1_555 1_555
C15 Sn1 1_555 1_555
H22 C15 1_555 1_555
H23 C15 1_555 1_555
C16 C15 1_555 1_555
H24 C16 1_555 1_555
H25 C16 1_555 1_555
C17 C16 1_555 1_555
H26 C17 1_555 1_555
H27 C17 1_555 1_555
C18 C17 1_555 1_555
H28 C18 1_555 1_555
H29 C18 1_555 1_555
H30 C18 1_555 1_555
Sn1G O1 1_555 1_555
O1G Sn1 1_555 1_555
C5 C6 1_555 1_555

#END
