
#######################################################################
#
#                 Cambridge Crystallographic Data Centre
#                                CCDC 
#
#######################################################################
#
# If this CIF has been generated from an entry in the Cambridge 
# Structural Database, then it will include bibliographic, chemical, 
# crystal, experimental, refinement or atomic coordinate data resulting 
# from the CCDC's data processing and validation procedures.
#
#######################################################################

data_CAPYUP
_symmetry_cell_setting           monoclinic
_symmetry_space_group_name_H-M   'C 2/c'
_symmetry_Int_Tables_number      15
_space_group_name_Hall           '-C 2yn'
loop_
_symmetry_equiv_pos_site_id
_symmetry_equiv_pos_as_xyz
1 x,y,z
2 -x,y,1/2-z
3 1/2+x,1/2+y,z
4 1/2-x,1/2+y,1/2-z
5 -x,-y,-z
6 x,-y,1/2+z
7 1/2-x,1/2-y,-z
8 1/2+x,1/2-y,1/2+z
_cell_length_a                   23.415(3)
_cell_length_b                   14.3646(16)
_cell_length_c                   14.5598(17)
_cell_angle_alpha                90
_cell_angle_beta                 102.616(2)
_cell_angle_gamma                90
_cell_volume                     4778.91
loop_
_atom_site_label
_atom_site_type_symbol
_atom_site_fract_x
_atom_site_fract_y
_atom_site_fract_z
Mn1 Mn 0.80469(2) 0.26816(3) -0.08971(3)
Ni1 Ni 1.023846(16) 0.22099(3) 0.12855(3)
O1 O 0.87755(9) 0.34486(14) 0.00104(15)
O2 O 0.87104(9) 0.16312(14) -0.03047(14)
O3 O 0.74973(9) 0.14778(14) -0.12134(14)
O4 O 0.75619(9) 0.15114(14) 0.03347(15)
O5 O 0.69532(9) -0.14570(16) -0.29732(15)
O6 O 0.65678(16) -0.26164(18) -0.2312(2)
N1 N 0.97248(10) 0.32536(17) 0.09380(16)
N2 N 1.08345(10) 0.29129(18) 0.20485(17)
N3 N 1.07600(11) 0.11992(18) 0.12765(17)
N4 N 0.95920(10) 0.14530(17) 0.07924(17)
C1 C 0.92121(13) 0.2980(2) 0.0394(2)
C2 C 0.98622(13) 0.4212(2) 0.1090(2)
C3 C 1.04191(13) 0.4457(2) 0.1644(2)
C4 C 1.05724(14) 0.5399(2) 0.1786(2)
H1 H 1.0944 0.5555 0.2164
C5 C 1.01997(14) 0.6101(2) 0.1394(2)
H2 H 1.0314 0.6735 0.1481
C6 C 0.96541(14) 0.5858(2) 0.0868(2)
H3 H 0.9391 0.6337 0.0599
C7 C 0.94793(14) 0.4938(2) 0.0720(2)
H4 H 0.9098 0.4798 0.0366
C8 C 1.08452(13) 0.3801(2) 0.2140(2)
H5 H 1.1168 0.4055 0.2580
C9 C 1.12848(13) 0.2365(2) 0.2698(2)
H6 H 1.1089 0.1907 0.3035
H7 H 1.1519 0.2788 0.3172
C10 C 1.16913(13) 0.1852(2) 0.2186(2)
H8 H 1.1882 0.1331 0.2583
H9 H 1.2002 0.2283 0.2084
C11 C 1.13610(13) 0.1472(2) 0.1239(2)
H10 H 1.1347 0.1953 0.0748
H11 H 1.1572 0.0925 0.1066
C12 C 1.06318(14) 0.0330(2) 0.1210(2)
H12 H 1.0938 -0.0095 0.1179
C13 C 1.00511(13) -0.0056(2) 0.1178(2)
C14 C 0.95423(13) 0.0491(2) 0.0956(2)
C15 C 0.90007(14) 0.0074(2) 0.0951(2)
H13 H 0.8654 0.0438 0.0812
C16 C 0.89676(15) -0.0865(2) 0.1145(2)
H14 H 0.8599 -0.1138 0.1154
C17 C 0.94731(15) -0.1419(2) 0.1331(2)
H15 H 0.9446 -0.2066 0.1450
C18 C 1.00080(15) -0.1019(2) 0.1338(2)
H16 H 1.0351 -0.1394 0.1452
C19 C 0.91517(13) 0.1931(2) 0.0255(2)
C20 C 0.72509(13) 0.0099(2) -0.0478(2)
C21 C 0.71195(12) -0.0386(2) -0.1328(2)
H17 H 0.7152 -0.0082 -0.1894
C22 C 0.69399(13) -0.1315(2) -0.1354(2)
C23 C 0.68938(15) -0.1748(2) -0.0523(2)
H18 H 0.6767 -0.2376 -0.0532
C24 C 0.70320(16) -0.1266(2) 0.0323(2)
H19 H 0.7009 -0.1575 0.0891
C25 C 0.72033(14) -0.0345(2) 0.0352(2)
H20 H 0.7288 -0.0017 0.0932
C26 C 0.74472(12) 0.1094(2) -0.0452(2)
C27 C 0.68073(14) -0.1848(2) -0.2275(2)
Mn1F Mn 0.69531(2) 0.23184(3) 0.08971(3)
Mn1C Mn 0.69531(2) -0.23184(3) -0.41029(3)
O4F O 0.74381(9) 0.34886(14) -0.03347(15)
O5C O 0.80468(9) 0.35430(16) -0.20268(15)
O7 O 0.81463(16) 0.0567(3) 0.7602(3)
loop_
_geom_bond_atom_site_label_1
_geom_bond_atom_site_label_2
_geom_bond_site_symmetry_1
_geom_bond_site_symmetry_2
Mn1 O1 1_555 1_555
Ni1 N1 1_555 1_555
O1 C1 1_555 1_555
O2 Mn1 1_555 1_555
O3 Mn1 1_555 1_555
O4 C26 1_555 1_555
O5 C27 1_555 1_555
O6 C27 1_555 1_555
N1 C1 1_555 1_555
N2 Ni1 1_555 1_555
N3 Ni1 1_555 1_555
N4 Ni1 1_555 1_555
C1 C19 1_555 1_555
C2 N1 1_555 1_555
C3 C2 1_555 1_555
C4 C3 1_555 1_555
H1 C4 1_555 1_555
C5 C4 1_555 1_555
H2 C5 1_555 1_555
C6 C5 1_555 1_555
H3 C6 1_555 1_555
C7 C2 1_555 1_555
H4 C7 1_555 1_555
C8 N2 1_555 1_555
H5 C8 1_555 1_555
C9 N2 1_555 1_555
H6 C9 1_555 1_555
H7 C9 1_555 1_555
C10 C9 1_555 1_555
H8 C10 1_555 1_555
H9 C10 1_555 1_555
C11 N3 1_555 1_555
H10 C11 1_555 1_555
H11 C11 1_555 1_555
C12 N3 1_555 1_555
H12 C12 1_555 1_555
C13 C12 1_555 1_555
C14 N4 1_555 1_555
C15 C14 1_555 1_555
H13 C15 1_555 1_555
C16 C15 1_555 1_555
H14 C16 1_555 1_555
C17 C16 1_555 1_555
H15 C17 1_555 1_555
C18 C13 1_555 1_555
H16 C18 1_555 1_555
C19 O2 1_555 1_555
C20 C21 1_555 1_555
C21 H17 1_555 1_555
C22 C21 1_555 1_555
C23 C22 1_555 1_555
H18 C23 1_555 1_555
C24 C23 1_555 1_555
H19 C24 1_555 1_555
C25 C20 1_555 1_555
H20 C25 1_555 1_555
C26 O3 1_555 1_555
C27 C22 1_555 1_555
Mn1F O4 1_555 1_555
Mn1C O5 1_555 1_555
O4F Mn1 1_555 1_555
O5C Mn1 1_555 1_555
N4 C19 1_555 1_555
C3 C8 1_555 1_555
C6 C7 1_555 1_555
C10 C11 1_555 1_555
C13 C14 1_555 1_555
C17 C18 1_555 1_555
C20 C26 1_555 1_555
C24 C25 1_555 1_555

#END
