
#######################################################################
#
#                 Cambridge Crystallographic Data Centre
#                                CCDC 
#
#######################################################################
#
# If this CIF has been generated from an entry in the Cambridge 
# Structural Database, then it will include bibliographic, chemical, 
# crystal, experimental, refinement or atomic coordinate data resulting 
# from the CCDC's data processing and validation procedures.
#
#######################################################################

data_CAPYID
_symmetry_cell_setting           monoclinic
_symmetry_space_group_name_H-M   'P 21/c'
_symmetry_Int_Tables_number      14
_space_group_name_Hall           '-P 2ybc'
loop_
_symmetry_equiv_pos_site_id
_symmetry_equiv_pos_as_xyz
1 x,y,z
2 -x,1/2+y,1/2-z
3 -x,-y,-z
4 x,1/2-y,1/2+z
_cell_length_a                   11.7853(7)
_cell_length_b                   18.7920(10)
_cell_length_c                   14.9202(6)
_cell_angle_alpha                90
_cell_angle_beta                 115.137(3)
_cell_angle_gamma                90
_cell_volume                     2991.43
loop_
_atom_site_label
_atom_site_type_symbol
_atom_site_fract_x
_atom_site_fract_y
_atom_site_fract_z
Cu1 Cu 0.64405(3) 0.630241(17) 0.13316(3)
Co1 Co 0.96291(3) 0.456635(16) 0.08185(2)
O1 O 0.93957(16) 0.50571(9) 0.19224(12)
O2 O 0.78384(15) 0.48979(9) 0.00821(12)
O3 O 0.96477(19) 0.42850(10) -0.04526(13)
O4 O 1.12040(17) 0.35020(9) -0.00215(13)
O5 O 1.0947(2) 0.16299(12) -0.24501(16)
O6 O 0.91855(18) 0.14881(10) -0.38135(14)
O7 O 0.6285(3) 0.3542(2) -0.4799(2)
O8 O 0.6163(3) 0.41787(19) -0.3665(2)
O9 O 1.14863(17) 0.43842(10) 0.16159(14)
H1 H 1.1568 0.4097 0.2079
H2 H 1.1797 0.4257 0.1220
N1 N 0.8072(2) 0.58744(11) 0.21590(15)
N2 N 0.6642(2) 0.70683(12) 0.22687(19)
N3 N 0.4617(2) 0.64069(12) 0.0731(2)
N4 N 0.64117(18) 0.56628(11) 0.02844(15)
N5 N 0.6663(3) 0.37270(18) -0.3943(2)
C1 C 0.8400(2) 0.54125(12) 0.16492(18)
C2 C 0.8856(3) 0.60364(14) 0.31544(19)
C3 C 0.8620(3) 0.66613(15) 0.3576(2)
C4 C 0.9429(3) 0.68399(18) 0.4544(2)
H5 H 0.9291 0.7260 0.4812
C5 C 1.0417(4) 0.6420(2) 0.5114(2)
H6 H 1.0948 0.6551 0.5758
C6 C 1.0611(4) 0.5799(2) 0.4715(2)
H7 H 1.1268 0.5502 0.5100
C7 C 0.9852(3) 0.56100(17) 0.3758(2)
H8 H 1.0008 0.5187 0.3507
C8 C 0.7586(3) 0.71488(15) 0.3098(2)
H9 H 0.7614 0.7569 0.3435
C9 C 0.5679(3) 0.76318(17) 0.1908(3)
H10 H 0.5607 0.7802 0.1272
H11 H 0.5942 0.8028 0.2368
C10 C 0.4413(4) 0.7373(2) 0.1798(3)
H12 H 0.3782 0.7704 0.1374
H13 H 0.4401 0.7389 0.2444
C11 C 0.4033(3) 0.66302(19) 0.1379(3)
H14 H 0.4262 0.6295 0.1923
H15 H 0.3129 0.6614 0.1009
C12 C 0.3920(3) 0.62625(14) -0.0167(2)
H16 H 0.3068 0.6349 -0.0380
C13 C 0.4301(2) 0.59774(14) -0.0899(2)
C14 C 0.5481(2) 0.56641(14) -0.06956(19)
C15 C 0.5664(3) 0.53827(16) -0.1488(2)
H17 H 0.6427 0.5171 -0.1372
C16 C 0.4730(3) 0.54122(19) -0.2447(2)
H18 H 0.4881 0.5230 -0.2965
C17 C 0.3586(3) 0.5709(2) -0.2638(3)
H19 H 0.2960 0.5728 -0.3281
C18 C 0.3379(3) 0.59754(17) -0.1867(3)
H20 H 0.2594 0.6162 -0.1995
C19 C 0.7475(2) 0.53102(12) 0.05731(18)
C20 C 0.9502(2) 0.34042(13) -0.16169(19)
C21 C 0.9975(2) 0.27979(14) -0.18693(19)
H21 H 1.0725 0.2603 -0.1416
C22 C 0.9342(2) 0.24768(14) -0.27914(19)
C23 C 0.8256(3) 0.27832(15) -0.3473(2)
H22 H 0.7830 0.2583 -0.4098
C24 C 0.7812(3) 0.33922(16) -0.3212(2)
C25 C 0.8410(3) 0.37075(14) -0.2293(2)
H23 H 0.8083 0.4114 -0.2134
C26 C 1.0189(2) 0.37419(13) -0.06113(19)
C27 C 0.9863(3) 0.18119(14) -0.3039(2)
Co1C Co 0.96291(3) 0.043365(16) -0.41815(2)
O6C O 0.91855(18) 0.35119(10) 0.11865(14)
O10 O 0.6660(2) 0.71789(13) 0.0125(2)
H3 H 0.6268 0.7573 -0.0007
H4 H 0.7201 0.7117 -0.0105
O11 O 0.7306(3) 0.85611(17) 0.0553(2)
H24 H 0.7804 0.8533 0.1137
C28 C 0.7057(6) 0.9246(3) 0.0303(6)
H25 H 0.6696 0.9461 0.0705
H26 H 0.6477 0.9279 -0.0382
H27 H 0.7819 0.9489 0.0405
loop_
_geom_bond_atom_site_label_1
_geom_bond_atom_site_label_2
_geom_bond_site_symmetry_1
_geom_bond_site_symmetry_2
Cu1 N1 1_555 1_555
Co1 O1 1_555 1_555
O1 C1 1_555 1_555
O2 Co1 1_555 1_555
O3 Co1 1_555 1_555
O4 C26 1_555 1_555
O5 C27 1_555 1_555
O6 C27 1_555 1_555
O7 N5 1_555 1_555
O8 N5 1_555 1_555
O9 Co1 1_555 1_555
H1 O9 1_555 1_555
H2 O9 1_555 1_555
O10 H3 1_555 1_555
H4 O10 1_555 1_555
N1 C1 1_555 1_555
N2 Cu1 1_555 1_555
N3 Cu1 1_555 1_555
N4 Cu1 1_555 1_555
N5 C24 1_555 1_555
C1 C19 1_555 1_555
C2 N1 1_555 1_555
C3 C2 1_555 1_555
C4 C3 1_555 1_555
H5 C4 1_555 1_555
C5 C4 1_555 1_555
H6 C5 1_555 1_555
C6 C5 1_555 1_555
H7 C6 1_555 1_555
C7 C2 1_555 1_555
H8 C7 1_555 1_555
C8 N2 1_555 1_555
H9 C8 1_555 1_555
C9 N2 1_555 1_555
H10 C9 1_555 1_555
H11 C9 1_555 1_555
C10 C9 1_555 1_555
H12 C10 1_555 1_555
H13 C10 1_555 1_555
C11 N3 1_555 1_555
H14 C11 1_555 1_555
H15 C11 1_555 1_555
C12 N3 1_555 1_555
H16 C12 1_555 1_555
C13 C12 1_555 1_555
C14 N4 1_555 1_555
C15 C14 1_555 1_555
H17 C15 1_555 1_555
C16 C15 1_555 1_555
H18 C16 1_555 1_555
C17 C16 1_555 1_555
H19 C17 1_555 1_555
C18 C13 1_555 1_555
H20 C18 1_555 1_555
C19 O2 1_555 1_555
C20 C21 1_555 1_555
C21 H21 1_555 1_555
C22 C21 1_555 1_555
C23 C22 1_555 1_555
H22 C23 1_555 1_555
C24 C23 1_555 1_555
C25 C20 1_555 1_555
H23 C25 1_555 1_555
C26 O3 1_555 1_555
C27 C22 1_555 1_555
O11 H24 1_555 1_555
C28 O11 1_555 1_555
H25 C28 1_555 1_555
H26 C28 1_555 1_555
H27 C28 1_555 1_555
Co1C O6 1_555 1_555
O6C Co1 1_555 1_555
N4 C19 1_555 1_555
C3 C8 1_555 1_555
C6 C7 1_555 1_555
C10 C11 1_555 1_555
C13 C14 1_555 1_555
C17 C18 1_555 1_555
C20 C26 1_555 1_555
C24 C25 1_555 1_555

#END
