
#######################################################################
#
#                 Cambridge Crystallographic Data Centre
#                                CCDC 
#
#######################################################################
#
# If this CIF has been generated from an entry in the Cambridge 
# Structural Database, then it will include bibliographic, chemical, 
# crystal, experimental, refinement or atomic coordinate data resulting 
# from the CCDC's data processing and validation procedures.
#
#######################################################################

data_CAQDEE
_symmetry_cell_setting           orthorhombic
_symmetry_space_group_name_H-M   'P c a b'
_symmetry_Int_Tables_number      61
_space_group_name_Hall           '-P 2bc 2ac'
loop_
_symmetry_equiv_pos_site_id
_symmetry_equiv_pos_as_xyz
1 x,y,z
2 -x,1/2-y,1/2+z
3 1/2+x,-y,1/2-z
4 1/2-x,1/2+y,-z
5 -x,-y,-z
6 x,1/2+y,1/2-z
7 1/2-x,y,1/2+z
8 1/2+x,1/2-y,z
_cell_length_a                   13.70950(10)
_cell_length_b                   14.8578(2)
_cell_length_c                   39.4425(4)
_cell_angle_alpha                90
_cell_angle_beta                 90
_cell_angle_gamma                90
_cell_volume                     8034.16
loop_
_atom_site_label
_atom_site_type_symbol
_atom_site_fract_x
_atom_site_fract_y
_atom_site_fract_z
Nd1 Nd 0.066069(13) 0.263301(11) 0.134578(4)
Cu1 Cu 0.06509(4) 0.50056(3) 0.254667(11)
O1 O 0.0405(2) 0.41840(16) 0.21738(6)
O2 O 0.0577(2) 0.40790(15) 0.16118(6)
N1 N 0.1169(2) 0.58037(19) 0.21872(7)
C1 C 0.0657(3) 0.4488(2) 0.18873(9)
C2 C 0.1095(3) 0.5414(2) 0.18788(9)
C3 C 0.1416(3) 0.5825(3) 0.15864(10)
H1 H 0.1353 0.5540 0.1378
C4 C 0.1832(3) 0.6666(3) 0.16089(11)
H2 H 0.2053 0.6960 0.1416
C5 C 0.1914(3) 0.7062(3) 0.19211(11)
H3 H 0.2192 0.7631 0.1941
C6 C 0.1586(3) 0.6618(3) 0.22034(11)
H4 H 0.1656 0.6892 0.2414
O3 O 0.0823(2) 0.08393(16) 0.20757(6)
O4 O 0.05323(19) 0.09976(15) 0.15264(6)
N2 N 0.0161(2) -0.08016(19) 0.20941(7)
C7 C 0.0533(3) 0.0545(2) 0.17879(9)
C8 C 0.0160(2) -0.0415(2) 0.17852(8)
C9 C -0.0175(3) -0.0852(2) 0.14992(10)
H5 H -0.0169 -0.0567 0.1289
C10 C -0.0516(3) -0.1715(3) 0.15316(11)
H6 H -0.0740 -0.2028 0.1343
C11 C -0.0521(3) -0.2111(3) 0.18470(11)
H7 H -0.0753 -0.2695 0.1873
C12 C -0.0185(3) -0.1648(2) 0.21229(10)
H8 H -0.0196 -0.1922 0.2335
Cu2 Cu 0.12652(3) 0.54408(3) 0.016603(11)
O5 O 0.09058(17) 0.48909(15) 0.05968(6)
O6 O 0.0909(2) 0.35367(16) 0.08450(6)
N3 N 0.1187(2) 0.42024(18) -0.00053(7)
C13 C 0.0958(2) 0.4025(2) 0.05967(8)
C14 C 0.1066(2) 0.3612(2) 0.02505(9)
C15 C 0.1055(3) 0.2692(2) 0.01985(10)
H9 H 0.0986 0.2291 0.0378
C16 C 0.1153(3) 0.2392(2) -0.01333(10)
H10 H 0.1142 0.1777 -0.0177
C17 C 0.1265(3) 0.2985(2) -0.03996(10)
H11 H 0.1324 0.2778 -0.0621
C18 C 0.1289(3) 0.3901(2) -0.03263(10)
H12 H 0.1376 0.4312 -0.0501
O7 O 0.1493(2) 0.59477(16) -0.02813(6)
O8 O 0.1682(2) 0.72486(17) -0.05536(7)
N4 N 0.1229(2) 0.67101(18) 0.03102(7)
C19 C 0.1520(3) 0.6812(2) -0.02915(9)
C20 C 0.1361(2) 0.7273(2) 0.00427(9)
C21 C 0.1357(3) 0.8196(2) 0.00777(11)
H13 H 0.1443 0.8574 -0.0108
C22 C 0.1218(3) 0.8540(3) 0.04063(12)
H14 H 0.1218 0.9160 0.0441
C23 C 0.1083(3) 0.7974(3) 0.06746(12)
H15 H 0.0987 0.8200 0.0892
C24 C 0.1093(3) 0.7058(3) 0.06169(10)
H16 H 0.1001 0.6670 0.0799
O9 O -0.0891(2) 0.35081(19) 0.11790(8)
O10 O 0.1564(2) 0.24667(17) 0.18849(7)
O11 O 0.1785(2) 0.15957(18) 0.10191(8)
O12 O 0.24026(19) 0.32834(19) 0.13214(7)
O13 O -0.0338(2) 0.17782(16) 0.09259(7)
O14 O -0.0730(2) 0.24212(19) 0.17550(8)
Cu1E Cu 0.06509(4) 0.00056(3) 0.245333(11)
O3E O 0.0823(2) 0.58393(16) 0.29243(6)
N2E N 0.0161(2) 0.41984(19) 0.29059(7)
O15 O -0.1825(2) 0.3867(2) 0.19838(9)
Cl1 Cl 0.79641(9) 0.57298(7) 0.12978(3)
O16 O 0.8882(3) 0.5435(3) 0.1247(2)
O17 O 0.7932(4) 0.6634(2) 0.12261(12)
O18 O 0.7389(4) 0.5264(2) 0.10515(11)
O19 O 0.7593(6) 0.5519(6) 0.15997(14)
Cl2 Cl 0.34131(7) 0.52449(6) 0.06554(3)
O20 O 0.3033(2) 0.52715(19) 0.03123(7)
O21 O 0.4432(2) 0.5115(3) 0.06434(9)
O22 O 0.3167(3) 0.6061(2) 0.08189(9)
O23 O 0.3009(3) 0.4508(2) 0.08281(11)
Cl3 Cl 0.81738(8) 0.59547(7) 0.25849(3)
O24 O 0.7306(3) 0.5936(4) 0.24062(11)
O25 O 0.8087(3) 0.5860(3) 0.29373(10)
O26 O 0.8612(5) 0.6779(4) 0.25284(14)
O27 O 0.8813(4) 0.5409(4) 0.24442(15)
loop_
_geom_bond_atom_site_label_1
_geom_bond_atom_site_label_2
_geom_bond_site_symmetry_1
_geom_bond_site_symmetry_2
Nd1 O2 1_555 1_555
Cu1 O1 1_555 1_555
O1 C1 1_555 1_555
O2 C1 1_555 1_555
N1 Cu1 1_555 1_555
C1 C2 1_555 1_555
C2 N1 1_555 1_555
C3 C2 1_555 1_555
H1 C3 1_555 1_555
C4 C3 1_555 1_555
H2 C4 1_555 1_555
C5 C4 1_555 1_555
H3 C5 1_555 1_555
C6 N1 1_555 1_555
H4 C6 1_555 1_555
O3 C7 1_555 1_555
O4 Nd1 1_555 1_555
N2 C8 1_555 1_555
C7 O4 1_555 1_555
C8 C7 1_555 1_555
C9 C8 1_555 1_555
H5 C9 1_555 1_555
C10 C9 1_555 1_555
H6 C10 1_555 1_555
C11 C10 1_555 1_555
H7 C11 1_555 1_555
C12 N2 1_555 1_555
H8 C12 1_555 1_555
Cu2 O5 1_555 1_555
O5 C13 1_555 1_555
O6 Nd1 1_555 1_555
N3 Cu2 1_555 1_555
C13 O6 1_555 1_555
C14 N3 1_555 1_555
C15 C14 1_555 1_555
H9 C15 1_555 1_555
C16 C15 1_555 1_555
H10 C16 1_555 1_555
C17 C16 1_555 1_555
H11 C17 1_555 1_555
C18 N3 1_555 1_555
H12 C18 1_555 1_555
O7 Cu2 1_555 1_555
O8 C19 1_555 1_555
N4 Cu2 1_555 1_555
C19 O7 1_555 1_555
C20 N4 1_555 1_555
C21 C20 1_555 1_555
H13 C21 1_555 1_555
C22 C21 1_555 1_555
H14 C22 1_555 1_555
C23 C22 1_555 1_555
H15 C23 1_555 1_555
C24 N4 1_555 1_555
H16 C24 1_555 1_555
O9 Nd1 1_555 1_555
O10 Nd1 1_555 1_555
O11 Nd1 1_555 1_555
O12 Nd1 1_555 1_555
O13 Nd1 1_555 1_555
O14 Nd1 1_555 1_555
Cl1 O16 1_555 1_555
O17 Cl1 1_555 1_555
O18 Cl1 1_555 1_555
O19 Cl1 1_555 1_555
Cl2 O20 1_555 1_555
O21 Cl2 1_555 1_555
O22 Cl2 1_555 1_555
O23 Cl2 1_555 1_555
Cl3 O24 1_555 1_555
O25 Cl3 1_555 1_555
O26 Cl3 1_555 1_555
O27 Cl3 1_555 1_555
Cu1E O3 1_555 1_555
O3E Cu1 1_555 1_555
N2E Cu1 1_555 1_555
C5 C6 1_555 1_555
N2 Cu1E 1_555 1_555
C11 C12 1_555 1_555
C13 C14 1_555 1_555
C17 C18 1_555 1_555
C19 C20 1_555 1_555
C23 C24 1_555 1_555

#END
