
#######################################################################
#
#                 Cambridge Crystallographic Data Centre
#                                CCDC 
#
#######################################################################
#
# If this CIF has been generated from an entry in the Cambridge 
# Structural Database, then it will include bibliographic, chemical, 
# crystal, experimental, refinement or atomic coordinate data resulting 
# from the CCDC's data processing and validation procedures.
#
#######################################################################

data_CAQDAA
_symmetry_cell_setting           orthorhombic
_symmetry_space_group_name_H-M   'P c a b'
_symmetry_Int_Tables_number      61
_space_group_name_Hall           '-P 2bc 2ac'
loop_
_symmetry_equiv_pos_site_id
_symmetry_equiv_pos_as_xyz
1 x,y,z
2 -x,1/2-y,1/2+z
3 1/2+x,-y,1/2-z
4 1/2-x,1/2+y,-z
5 -x,-y,-z
6 x,1/2+y,1/2-z
7 1/2-x,y,1/2+z
8 1/2+x,1/2-y,z
_cell_length_a                   13.690(2)
_cell_length_b                   14.8425(6)
_cell_length_c                   39.3740(6)
_cell_angle_alpha                90
_cell_angle_beta                 90
_cell_angle_gamma                90
_cell_volume                     8000.55
loop_
_atom_site_label
_atom_site_type_symbol
_atom_site_fract_x
_atom_site_fract_y
_atom_site_fract_z
Sm1 Sm 0.066051(13) 0.263311(11) 0.134566(4)
Cu1 Cu 0.06519(4) 0.50054(3) 0.254616(10)
O1 O 0.0407(2) 0.41913(16) 0.21724(6)
O2 O 0.0573(2) 0.40778(17) 0.16110(6)
N1 N 0.1165(2) 0.57982(18) 0.21858(7)
C1 C 0.0651(3) 0.4492(2) 0.18871(8)
C2 C 0.1094(3) 0.5413(2) 0.18758(8)
C3 C 0.1421(3) 0.5831(3) 0.15859(10)
H1 H 0.1358 0.5549 0.1376
C4 C 0.1840(3) 0.6664(3) 0.16094(11)
H2 H 0.2073 0.6950 0.1416
C5 C 0.1915(4) 0.7084(3) 0.19256(11)
H3 H 0.2177 0.7660 0.1945
C6 C 0.1589(3) 0.6621(3) 0.22106(10)
H4 H 0.1664 0.6882 0.2424
O3 O 0.0823(2) 0.08331(16) 0.20784(6)
O4 O 0.0519(2) 0.09999(16) 0.15239(6)
N2 N 0.0157(2) -0.07993(17) 0.20952(7)
C7 C 0.0529(2) 0.0540(2) 0.17864(8)
C8 C 0.0152(2) -0.0410(2) 0.17843(8)
C9 C -0.0161(3) -0.0841(2) 0.14964(9)
H5 H -0.0140 -0.0561 0.1285
C10 C -0.0515(3) -0.1720(3) 0.15347(10)
H6 H -0.0755 -0.2033 0.1348
C11 C -0.0506(3) -0.2117(3) 0.18488(11)
H7 H -0.0723 -0.2707 0.1875
C12 C -0.0178(3) -0.1646(2) 0.21243(9)
H8 H -0.0186 -0.1919 0.2337
Cu2 Cu 0.12661(3) 0.54411(3) 0.016575(10)
O5 O 0.09079(18) 0.48911(16) 0.05986(6)
O6 O 0.0910(2) 0.35421(17) 0.08447(6)
N3 N 0.11900(19) 0.41936(17) -0.00054(7)
C13 C 0.0951(2) 0.4035(2) 0.05952(8)
C14 C 0.1075(2) 0.3606(2) 0.02509(8)
C15 C 0.1057(3) 0.2688(2) 0.01975(9)
H9 H 0.0976 0.2289 0.0378
C16 C 0.1161(3) 0.2382(2) -0.01278(11)
H10 H 0.1159 0.1766 -0.0170
C17 C 0.1269(3) 0.2981(2) -0.03958(9)
H11 H 0.1327 0.2775 -0.0618
C18 C 0.1287(3) 0.3905(2) -0.03226(9)
H12 H 0.1367 0.4318 -0.0498
O7 O 0.1486(2) 0.59510(15) -0.02808(6)
O8 O 0.1675(2) 0.72503(17) -0.05525(6)
N4 N 0.1228(2) 0.67178(18) 0.03059(7)
C19 C 0.1528(3) 0.6804(2) -0.02949(8)
C20 C 0.1360(2) 0.7266(2) 0.00424(9)
C21 C 0.1346(3) 0.8204(2) 0.00775(10)
H13 H 0.1423 0.8579 -0.0110
C22 C 0.1216(3) 0.8551(3) 0.03979(12)
H14 H 0.1213 0.9172 0.0430
C23 C 0.1090(3) 0.7983(3) 0.06712(10)
H15 H 0.1003 0.8216 0.0888
C24 C 0.10946(4) 0.70560(3) 0.061790(12)
H16 H 0.1004 0.6668 0.0801
O9 O -0.08860(4) 0.35057(3) 0.117841(12)
O10 O 0.15629(4) 0.24605(3) 0.188695(12)
O11 O 0.17880(4) 0.15957(3) 0.101389(12)
O12 O 0.24041(4) 0.32722(3) 0.132363(12)
O13 O -0.03417(4) 0.17777(3) 0.092872(12)
O14 O -0.07340(4) 0.24227(3) 0.175376(12)
Cu1E Cu 0.06519(4) 0.00054(3) 0.245384(10)
O3E O 0.0823(2) 0.58331(16) 0.29216(6)
N2E N 0.0157(2) 0.42007(17) 0.29048(7)
O15 O -0.18200(4) 0.38581(3) 0.198274(12)
Cl1 Cl 0.79660(4) 0.57297(3) 0.129685(12)
O16 O 0.88544(4) 0.54140(3) 0.124959(12)
O17 O 0.79237(4) 0.66442(3) 0.122204(12)
O18 O 0.73770(4) 0.52647(3) 0.105126(12)
O19 O 0.75614(4) 0.55452(3) 0.159827(12)
Cl2 Cl 0.34115(4) 0.52452(3) 0.065476(12)
O20 O 0.30225(4) 0.52618(3) 0.031738(12)
O21 O 0.44291(4) 0.51125(3) 0.064601(12)
O22 O 0.31801(4) 0.60621(3) 0.081837(12)
O23 O 0.30050(4) 0.45022(3) 0.082973(12)
Cl3 Cl 0.81711(4) 0.59572(3) 0.258358(12)
O24 O 0.88106(4) 0.53880(3) 0.245164(12)
O25 O 0.86225(4) 0.67621(3) 0.252869(12)
O26 O 0.80804(4) 0.58662(3) 0.293647(12)
O27 O 0.72953(4) 0.59305(3) 0.240478(12)
loop_
_geom_bond_atom_site_label_1
_geom_bond_atom_site_label_2
_geom_bond_site_symmetry_1
_geom_bond_site_symmetry_2
Sm1 O2 1_555 1_555
Cu1 O1 1_555 1_555
O1 C1 1_555 1_555
O2 C1 1_555 1_555
N1 Cu1 1_555 1_555
C1 C2 1_555 1_555
C2 N1 1_555 1_555
C3 C2 1_555 1_555
H1 C3 1_555 1_555
C4 C3 1_555 1_555
H2 C4 1_555 1_555
C5 C4 1_555 1_555
H3 C5 1_555 1_555
C6 N1 1_555 1_555
H4 C6 1_555 1_555
O3 C7 1_555 1_555
O4 Sm1 1_555 1_555
N2 C8 1_555 1_555
C7 O4 1_555 1_555
C8 C7 1_555 1_555
C9 C8 1_555 1_555
H5 C9 1_555 1_555
C10 C9 1_555 1_555
H6 C10 1_555 1_555
C11 C10 1_555 1_555
H7 C11 1_555 1_555
C12 N2 1_555 1_555
H8 C12 1_555 1_555
Cu2 O5 1_555 1_555
O5 C13 1_555 1_555
O6 Sm1 1_555 1_555
N3 Cu2 1_555 1_555
C13 O6 1_555 1_555
C14 N3 1_555 1_555
C15 C14 1_555 1_555
H9 C15 1_555 1_555
C16 C15 1_555 1_555
H10 C16 1_555 1_555
C17 C16 1_555 1_555
H11 C17 1_555 1_555
C18 N3 1_555 1_555
H12 C18 1_555 1_555
O7 Cu2 1_555 1_555
O8 C19 1_555 1_555
N4 Cu2 1_555 1_555
C19 O7 1_555 1_555
C20 N4 1_555 1_555
C21 C20 1_555 1_555
H13 C21 1_555 1_555
C22 C21 1_555 1_555
H14 C22 1_555 1_555
C23 C22 1_555 1_555
H15 C23 1_555 1_555
C24 N4 1_555 1_555
H16 C24 1_555 1_555
O9 Sm1 1_555 1_555
O10 Sm1 1_555 1_555
O11 Sm1 1_555 1_555
O12 Sm1 1_555 1_555
O13 Sm1 1_555 1_555
O14 Sm1 1_555 1_555
Cl1 O16 1_555 1_555
O17 Cl1 1_555 1_555
O18 Cl1 1_555 1_555
O19 Cl1 1_555 1_555
Cl2 O20 1_555 1_555
O21 Cl2 1_555 1_555
O22 Cl2 1_555 1_555
O23 Cl2 1_555 1_555
Cl3 O24 1_555 1_555
O25 Cl3 1_555 1_555
O26 Cl3 1_555 1_555
O27 Cl3 1_555 1_555
Cu1E O3 1_555 1_555
O3E Cu1 1_555 1_555
N2E Cu1 1_555 1_555
C5 C6 1_555 1_555
N2 Cu1E 1_555 1_555
C11 C12 1_555 1_555
C13 C14 1_555 1_555
C17 C18 1_555 1_555
C19 C20 1_555 1_555
C23 C24 1_555 1_555

#END
