
#######################################################################
#
#                 Cambridge Crystallographic Data Centre
#                                CCDC 
#
#######################################################################
#
# If this CIF has been generated from an entry in the Cambridge 
# Structural Database, then it will include bibliographic, chemical, 
# crystal, experimental, refinement or atomic coordinate data resulting 
# from the CCDC's data processing and validation procedures.
#
#######################################################################

data_CAQDUU
_symmetry_cell_setting           triclinic
_symmetry_space_group_name_H-M   'P -1'
_symmetry_Int_Tables_number      2
_space_group_name_Hall           '-P 1'
loop_
_symmetry_equiv_pos_site_id
_symmetry_equiv_pos_as_xyz
1 x,y,z
2 -x,-y,-z
_cell_length_a                   8.721
_cell_length_b                   14.91450(10)
_cell_length_c                   16.8147(2)
_cell_angle_alpha                81.5625(5)
_cell_angle_beta                 86.2598(7)
_cell_angle_gamma                84.6208(5)
_cell_volume                     2150.93
loop_
_atom_site_label
_atom_site_type_symbol
_atom_site_fract_x
_atom_site_fract_y
_atom_site_fract_z
Nd1 Nd 0.680327(17) 0.738646(10) 0.220387(9)
Cu1 Cu 0.41872(5) 0.90686(3) 0.49226(2)
O1 O 0.5025(3) 0.83316(17) 0.41163(14)
O2 O 0.4597(3) 0.80302(17) 0.28906(14)
N1 N 0.2687(3) 0.95589(19) 0.41136(17)
C1 C 0.4270(4) 0.8430(2) 0.34901(19)
C2 C 0.2866(4) 0.9107(2) 0.34766(19)
C3 C 0.1841(4) 0.9264(3) 0.2864(2)
H1 H 0.1981 0.8951 0.2422
C4 C 0.0611(5) 0.9901(3) 0.2934(3)
H2 H -0.0110 1.0012 0.2540
C5 C 0.0438(4) 1.0372(3) 0.3580(3)
H3 H -0.0372 1.0818 0.3618
C6 C 0.1482(4) 1.0173(2) 0.4170(2)
H4 H 0.1347 1.0473 0.4620
O3 O 0.3394(4) 0.98552(18) 0.57095(15)
O4 O 0.3232(4) 0.9851(2) 0.70448(17)
N2 N 0.5475(3) 0.84748(19) 0.57904(18)
C7 C 0.3753(5) 0.9535(3) 0.6431(2)
C8 C 0.4957(4) 0.8738(2) 0.6502(2)
C9 C 0.5548(5) 0.8331(3) 0.7220(2)
H5 H 0.5165 0.8516 0.7705
C10 C 0.6732(5) 0.7635(3) 0.7204(3)
H6 H 0.7124 0.7330 0.7680
C11 C 0.7310(5) 0.7409(3) 0.6471(3)
H7 H 0.8143 0.6975 0.6446
C12 C 0.6643(4) 0.7831(3) 0.5772(2)
H8 H 0.7016 0.7662 0.5280
Cu2 Cu 1.0000 0.5000 0.5000
O5 O 0.9323(3) 0.5683(2) 0.39853(15)
O6 O 0.7322(3) 0.65302(17) 0.34517(15)
N3 N 0.7861(3) 0.5318(2) 0.53778(17)
C13 C 0.7947(4) 0.6035(2) 0.4013(2)
C14 C 0.7051(4) 0.5820(2) 0.4803(2)
C15 C 0.5532(4) 0.6143(3) 0.4931(2)
H9 H 0.5003 0.6504 0.4520
C16 C 0.4807(5) 0.5915(3) 0.5691(3)
H10 H 0.3779 0.6110 0.5794
C17 C 0.5660(5) 0.5390(3) 0.6286(3)
H11 H 0.5205 0.5229 0.6796
C18 C 0.7199(5) 0.5106(3) 0.6117(2)
H12 H 0.7774 0.4767 0.6521
Cu3 Cu 1.0000 0.5000 0.0000
O7 O 0.8941(3) 0.58718(17) 0.06621(15)
O8 O 0.7922(3) 0.59561(17) 0.19110(15)
N4 N 0.9577(3) 0.41124(19) 0.09687(16)
C19 C 0.8573(4) 0.5520(2) 0.1372(2)
C20 C 0.8904(4) 0.4510(2) 0.1589(2)
C21 C 0.8565(6) 0.4039(3) 0.2327(2)
H13 H 0.8113 0.4338 0.2742
C22 C 0.8906(6) 0.3116(3) 0.2442(3)
H14 H 0.8654 0.2773 0.2933
C23 C 0.9630(5) 0.2700(3) 0.1821(3)
H15 H 0.9895 0.2076 0.1899
C24 C 0.9960(4) 0.3207(2) 0.1088(2)
H16 H 1.0450 0.2923 0.0672
Cu4 Cu 1.0000 1.0000 0.0000
O9 O 0.9054(3) 0.92047(17) 0.08953(16)
O10 O 0.9238(3) 0.77799(17) 0.15335(15)
N5 N 1.1380(3) 0.8887(2) -0.01116(19)
C25 C 0.9692(4) 0.8403(2) 0.1027(2)
C26 C 1.1055(4) 0.8182(2) 0.0471(2)
C27 C 1.1890(4) 0.7344(3) 0.0533(2)
H17 H 1.1653 0.6879 0.0942
C28 C 1.3098(5) 0.7215(3) -0.0034(2)
H18 H 1.3675 0.6656 -0.0014
C29 C 1.3432(5) 0.7928(3) -0.0628(3)
H19 H 1.4236 0.7854 -0.1010
C30 C 1.25510(5) 0.87502(3) -0.06439(3)
H20 H 1.2784 0.9227 -0.1042
O11 O 0.65252(5) 0.73203(3) 0.07602(3)
O12 O 0.61096(5) 0.88760(3) 0.15547(3)
O13 O 0.46701(5) 0.65068(3) 0.21732(3)
O14 O 0.79624(5) 0.83523(3) 0.30267(3)
Nd1A Nd 1.319673(17) 0.261354(10) 0.779613(9)
Cu1A Cu 1.58128(5) 0.09314(3) 0.50774(2)
O1A O 1.4975(3) 0.16684(17) 0.58837(14)
O2A O 1.5403(3) 0.19698(17) 0.71094(14)
N1A N 1.7313(3) 0.04411(19) 0.58864(17)
C1A C 1.5730(4) 0.1570(2) 0.65099(19)
C2A C 1.7134(4) 0.0893(2) 0.65234(19)
C3A C 1.8159(4) 0.0736(3) 0.7136(2)
H1A H 1.8019 0.1049 0.7578
C4A C 1.9389(5) 0.0099(3) 0.7066(3)
H2A H 2.0110 -0.0012 0.7460
C5A C 1.9562(4) -0.0372(3) 0.6420(3)
H3A H 2.0372 -0.0818 0.6382
C6A C 1.8518(4) -0.0173(2) 0.5830(2)
H4A H 1.8653 -0.0473 0.5380
O3A O 1.6606(4) 0.01448(18) 0.42905(15)
O4A O 1.6768(4) 0.0149(2) 0.29552(17)
N2A N 1.4525(3) 0.15252(19) 0.42096(18)
C7A C 1.6247(5) 0.0465(3) 0.3569(2)
C8A C 1.5043(4) 0.1262(2) 0.3498(2)
C9A C 1.4452(5) 0.1669(3) 0.2780(2)
H5A H 1.4835 0.1484 0.2295
C10A C 1.3268(5) 0.2365(3) 0.2796(3)
H6A H 1.2876 0.2670 0.2320
C11A C 1.2690(5) 0.2591(3) 0.3529(3)
H7A H 1.1857 0.3025 0.3554
C12A C 1.3357(4) 0.2169(3) 0.4228(2)
H8A H 1.2984 0.2338 0.4720
O5A O 1.0677(3) 0.4317(2) 0.60147(15)
O6A O 1.2678(3) 0.34698(17) 0.65483(15)
N3A N 1.2139(3) 0.4682(2) 0.46222(17)
C13A C 1.2053(4) 0.3965(2) 0.5987(2)
C14A C 1.2949(4) 0.4180(2) 0.5197(2)
C15A C 1.4468(4) 0.3857(3) 0.5069(2)
H9A H 1.4997 0.3496 0.5480
C16A C 1.5193(5) 0.4085(3) 0.4309(3)
H10A H 1.6221 0.3890 0.4206
C17A C 1.4340(5) 0.4610(3) 0.3714(3)
H11A H 1.4795 0.4771 0.3204
C18A C 1.2801(5) 0.4894(3) 0.3883(2)
H12A H 1.2226 0.5233 0.3479
Cu3_2 Cu 1.0000 0.5000 1.0000
O7A O 1.1059(3) 0.41282(17) 0.93379(15)
O7A_2 O 1.1059(3) 0.41282(17) -0.06621(15)
O8A O 1.2078(3) 0.40439(17) 0.80890(15)
N4A N 1.0423(3) 0.58876(19) 0.90313(16)
N4A_2 N 1.0423(3) 0.58876(19) -0.09687(16)
C19A C 1.1427(4) 0.4480(2) 0.8628(2)
C20A C 1.1096(4) 0.5490(2) 0.8411(2)
C21A C 1.1435(6) 0.5961(3) 0.7673(2)
H13A H 1.1887 0.5662 0.7258
C22A C 1.1094(6) 0.6884(3) 0.7558(3)
H14A H 1.1346 0.7227 0.7067
C23A C 1.0370(5) 0.7300(3) 0.8179(3)
H15A H 1.0105 0.7924 0.8101
C24A C 1.0040(4) 0.6793(2) 0.8912(2)
H16A H 0.9550 0.7077 0.9328
Cu4_2 Cu 1.0000 0.0000 1.0000
O9A O 1.0946(3) 0.07953(17) 0.91047(16)
O9A_2 O 1.0946(3) 1.07953(17) -0.08953(16)
O10A O 1.0762(3) 0.22201(17) 0.84665(15)
N5A N 0.8620(3) 0.1113(2) 1.01116(19)
N5A_2 N 0.8620(3) 1.1113(2) 0.01116(19)
C25A C 1.0308(4) 0.1597(2) 0.8973(2)
C26A C 0.8945(4) 0.1818(2) 0.9529(2)
C27A C 0.8110(4) 0.2656(3) 0.9467(2)
H17A H 0.8347 0.3121 0.9058
C28A C 0.6902(5) 0.2785(3) 1.0034(2)
H18A H 0.6325 0.3344 1.0014
C29A C 0.6568(5) 0.2072(3) 1.0628(3)
H19A H 0.5764 0.2146 1.1010
C30A C 0.74490(5) 0.12498(3) 1.06439(3)
H20A H 0.7216 0.0773 1.1042
O11A O 1.34748(5) 0.26797(3) 0.92398(3)
O12A O 1.38904(5) 0.11240(3) 0.84453(3)
O13A O 1.53299(5) 0.34932(3) 0.78268(3)
O14A O 1.20376(5) 0.16477(3) 0.69733(3)
O15 O 0.16560(5) 0.68924(3) 0.26579(3)
Cl1 Cl 0.89405(5) 0.26471(3) 0.50155(3)
O16 O 0.79032(5) 0.28899(3) 0.56578(3)
O17 O 0.93613(5) 0.34528(3) 0.45031(3)
O18 O 1.02749(5) 0.21441(3) 0.53444(3)
O19 O 0.81670(5) 0.21176(3) 0.45389(3)
Cl2 Cl 0.70307(5) 0.92454(3) -0.09415(3)
O20 O 0.60257(5) 0.96298(3) -0.15544(3)
O21 O 0.84601(5) 0.96209(3) -0.10551(3)
O22 O 0.63250(5) 0.93421(3) -0.01795(3)
O23 O 0.72672(5) 0.82946(3) -0.09773(3)
Cl3 Cl 1.34495(5) 0.46291(3) 0.11901(3)
O24 O 1.37914(5) 0.37490(3) 0.09777(3)
O25 O 1.25501(5) 0.51697(3) 0.05876(3)
O26 O 1.48210(5) 0.50708(3) 0.12383(3)
O27 O 1.25514(5) 0.45716(3) 0.19314(3)
loop_
_geom_bond_atom_site_label_1
_geom_bond_atom_site_label_2
_geom_bond_site_symmetry_1
_geom_bond_site_symmetry_2
Nd1 O2 1_555 1_555
Cu1 O1 1_555 1_555
O1 C1 1_555 1_555
O2 C1 1_555 1_555
N1 Cu1 1_555 1_555
C1 C2 1_555 1_555
C2 N1 1_555 1_555
C3 C2 1_555 1_555
H1 C3 1_555 1_555
C4 C3 1_555 1_555
H2 C4 1_555 1_555
C5 C4 1_555 1_555
H3 C5 1_555 1_555
C6 N1 1_555 1_555
H4 C6 1_555 1_555
O3 Cu1 1_555 1_555
O4 C7 1_555 1_555
N2 Cu1 1_555 1_555
C7 O3 1_555 1_555
C8 N2 1_555 1_555
C9 C8 1_555 1_555
H5 C9 1_555 1_555
C10 C9 1_555 1_555
H6 C10 1_555 1_555
C11 C10 1_555 1_555
H7 C11 1_555 1_555
C12 N2 1_555 1_555
H8 C12 1_555 1_555
Cu2 O5 1_555 1_555
O5 C13 1_555 1_555
O6 Nd1 1_555 1_555
N3 Cu2 1_555 1_555
C13 O6 1_555 1_555
C14 N3 1_555 1_555
C15 C14 1_555 1_555
H9 C15 1_555 1_555
C16 C15 1_555 1_555
H10 C16 1_555 1_555
C17 C16 1_555 1_555
H11 C17 1_555 1_555
C18 N3 1_555 1_555
H12 C18 1_555 1_555
Cu3 O7 1_555 1_555
O7 C19 1_555 1_555
O8 Nd1 1_555 1_555
N4 Cu3 1_555 1_555
C19 O8 1_555 1_555
C20 N4 1_555 1_555
C21 C20 1_555 1_555
H13 C21 1_555 1_555
C22 C21 1_555 1_555
H14 C22 1_555 1_555
C23 C22 1_555 1_555
H15 C23 1_555 1_555
C24 N4 1_555 1_555
H16 C24 1_555 1_555
Cu4 O9 1_555 1_555
O9 C25 1_555 1_555
O10 Nd1 1_555 1_555
N5 Cu4 1_555 1_555
C25 O10 1_555 1_555
C26 N5 1_555 1_555
C27 C26 1_555 1_555
H17 C27 1_555 1_555
C28 C27 1_555 1_555
H18 C28 1_555 1_555
C29 C28 1_555 1_555
H19 C29 1_555 1_555
C30 N5 1_555 1_555
H20 C30 1_555 1_555
O11 Nd1 1_555 1_555
O12 Nd1 1_555 1_555
O13 Nd1 1_555 1_555
O14 Nd1 1_555 1_555
Cl1 O16 1_555 1_555
O17 Cl1 1_555 1_555
O18 Cl1 1_555 1_555
O19 Cl1 1_555 1_555
Cl2 O20 1_555 1_555
O21 Cl2 1_555 1_555
O22 Cl2 1_555 1_555
O23 Cl2 1_555 1_555
Cl3 O24 1_555 1_555
O25 Cl3 1_555 1_555
O26 Cl3 1_555 1_555
O27 Cl3 1_555 1_555
Nd1A O2A 1_555 1_555
Cu1A O1A 1_555 1_555
O1A C1A 1_555 1_555
O2A C1A 1_555 1_555
N1A Cu1A 1_555 1_555
C1A C2A 1_555 1_555
C2A N1A 1_555 1_555
C3A C2A 1_555 1_555
H1A C3A 1_555 1_555
C4A C3A 1_555 1_555
H2A C4A 1_555 1_555
C5A C4A 1_555 1_555
H3A C5A 1_555 1_555
C6A N1A 1_555 1_555
H4A C6A 1_555 1_555
O3A Cu1A 1_555 1_555
O4A C7A 1_555 1_555
N2A Cu1A 1_555 1_555
C7A O3A 1_555 1_555
C8A N2A 1_555 1_555
C9A C8A 1_555 1_555
H5A C9A 1_555 1_555
C10A C9A 1_555 1_555
H6A C10A 1_555 1_555
C11A C10A 1_555 1_555
H7A C11A 1_555 1_555
C12A N2A 1_555 1_555
H8A C12A 1_555 1_555
O5A Cu2 1_555 1_555
O6A Nd1A 1_555 1_555
N3A Cu2 1_555 1_555
C13A O5A 1_555 1_555
C14A N3A 1_555 1_555
C15A C14A 1_555 1_555
H9A C15A 1_555 1_555
C16A C15A 1_555 1_555
H10A C16A 1_555 1_555
C17A C16A 1_555 1_555
H11A C17A 1_555 1_555
C18A N3A 1_555 1_555
H12A C18A 1_555 1_555
Cu3_2 O7A 1_555 1_555
O7A C19A 1_555 1_555
O7A_2 Cu3 1_555 1_555
O8A Nd1A 1_555 1_555
N4A Cu3_2 1_555 1_555
N4A_2 Cu3 1_555 1_555
C19A O8A 1_555 1_555
C20A N4A 1_555 1_555
C21A C20A 1_555 1_555
H13A C21A 1_555 1_555
C22A C21A 1_555 1_555
H14A C22A 1_555 1_555
C23A C22A 1_555 1_555
H15A C23A 1_555 1_555
C24A N4A 1_555 1_555
H16A C24A 1_555 1_555
Cu4_2 O9A 1_555 1_555
O9A C25A 1_555 1_555
O9A_2 Cu4 1_555 1_555
O10A Nd1A 1_555 1_555
N5A Cu4_2 1_555 1_555
N5A_2 Cu4 1_555 1_555
C25A O10A 1_555 1_555
C26A N5A 1_555 1_555
C27A C26A 1_555 1_555
H17A C27A 1_555 1_555
C28A C27A 1_555 1_555
H18A C28A 1_555 1_555
C29A C28A 1_555 1_555
H19A C29A 1_555 1_555
C30A N5A 1_555 1_555
H20A C30A 1_555 1_555
O11A Nd1A 1_555 1_555
O12A Nd1A 1_555 1_555
O13A Nd1A 1_555 1_555
O14A Nd1A 1_555 1_555
C5 C6 1_555 1_555
C7 C8 1_555 1_555
C11 C12 1_555 1_555
C13 C14 1_555 1_555
C17 C18 1_555 1_555
C19 C20 1_555 1_555
C23 C24 1_555 1_555
C25 C26 1_555 1_555
C29 C30 1_555 1_555
C5A C6A 1_555 1_555
C7A C8A 1_555 1_555
C11A C12A 1_555 1_555
O6A C13A 1_555 1_555
C13A C14A 1_555 1_555
C17A C18A 1_555 1_555
C19A C20A 1_555 1_555
C23A C24A 1_555 1_555
C25A C26A 1_555 1_555
C29A C30A 1_555 1_555

#END
