
#######################################################################
#
#                 Cambridge Crystallographic Data Centre
#                                CCDC 
#
#######################################################################
#
# If this CIF has been generated from an entry in the Cambridge 
# Structural Database, then it will include bibliographic, chemical, 
# crystal, experimental, refinement or atomic coordinate data resulting 
# from the CCDC's data processing and validation procedures.
#
#######################################################################

data_CAQDII
_symmetry_cell_setting           orthorhombic
_symmetry_space_group_name_H-M   'P c a b'
_symmetry_Int_Tables_number      61
_space_group_name_Hall           '-P 2bc 2ac'
loop_
_symmetry_equiv_pos_site_id
_symmetry_equiv_pos_as_xyz
1 x,y,z
2 -x,1/2-y,1/2+z
3 1/2+x,-y,1/2-z
4 1/2-x,1/2+y,-z
5 -x,-y,-z
6 x,1/2+y,1/2-z
7 1/2-x,y,1/2+z
8 1/2+x,1/2-y,z
_cell_length_a                   13.7046(3)
_cell_length_b                   14.8745(1)
_cell_length_c                   39.4457(7)
_cell_angle_alpha                90
_cell_angle_beta                 90
_cell_angle_gamma                90
_cell_volume                     8040.97
loop_
_atom_site_label
_atom_site_type_symbol
_atom_site_fract_x
_atom_site_fract_y
_atom_site_fract_z
Pr1 Pr 0.066106(13) 0.263296(11) 0.134562(4)
Cu1 Cu 0.06523(4) 0.50054(3) 0.254711(10)
O1 O 0.0404(2) 0.41911(16) 0.21748(6)
O2 O 0.0581(2) 0.40768(16) 0.16139(6)
N1 N 0.1171(2) 0.58017(18) 0.21849(7)
C1 C 0.0648(3) 0.4484(2) 0.18879(9)
C2 C 0.1095(3) 0.5418(2) 0.18786(8)
C3 C 0.1422(3) 0.5835(3) 0.15872(10)
H1 H 0.1360 0.5552 0.1378
C4 C 0.1835(4) 0.6661(3) 0.16088(11)
H2 H 0.2056 0.6954 0.1415
C5 C 0.1922(4) 0.7060(3) 0.19243(11)
H3 H 0.2209 0.7623 0.1945
C6 C 0.1581(4) 0.6617(3) 0.22054(10)
H4 H 0.1637 0.6891 0.2416
O3 O 0.0828(2) 0.08283(16) 0.20748(6)
O4 O 0.0527(2) 0.09912(16) 0.15216(6)
N2 N 0.0158(2) -0.08041(18) 0.20937(7)
C7 C 0.0529(3) 0.0545(2) 0.17888(8)
C8 C 0.0159(2) -0.0411(2) 0.17826(8)
C9 C -0.0165(3) -0.0852(3) 0.14974(9)
H5 H -0.0157 -0.0569 0.1287
C10 C -0.0501(3) -0.1720(3) 0.15291(11)
H6 H -0.0719 -0.2034 0.1340
C11 C -0.0510(3) -0.2123(3) 0.18484(11)
H7 H -0.0730 -0.2711 0.1874
C12 C -0.0191(3) -0.1646(2) 0.21241(10)
H8 H -0.0216 -0.1910 0.2338
Cu2 Cu 0.12656(3) 0.54413(3) 0.016569(10)
O5 O 0.09114(19) 0.48933(16) 0.05986(6)
O6 O 0.0908(2) 0.35387(17) 0.08443(6)
N3 N 0.1186(2) 0.41920(18) -0.00089(7)
C13 C 0.0961(2) 0.4043(2) 0.05943(8)
C14 C 0.1078(2) 0.3603(2) 0.02494(8)
C15 C 0.1063(3) 0.2694(2) 0.01954(10)
H9 H 0.0990 0.2297 0.0376
C16 C 0.1156(3) 0.2381(3) -0.01319(11)
H10 H 0.1142 0.1767 -0.0176
C17 C 0.1272(3) 0.2988(3) -0.03945(9)
H11 H 0.1340 0.2783 -0.0616
C18 C 0.1288(3) 0.3902(3) -0.03270(9)
H12 H 0.1368 0.4312 -0.0503
O7 O 0.1492(2) 0.59463(16) -0.02822(6)
O8 O 0.1678(2) 0.72552(18) -0.05554(7)
N4 N 0.1220(2) 0.67212(18) 0.03078(7)
C19 C 0.1520(3) 0.6809(2) -0.02926(9)
C20 C 0.1362(2) 0.7272(2) 0.00414(9)
C21 C 0.1352(3) 0.8196(2) 0.00758(11)
H13 H 0.1437 0.8570 -0.0111
C22 C 0.1211(3) 0.8549(3) 0.04009(12)
H14 H 0.1197 0.9168 0.0433
C23 C 0.1093(3) 0.7980(3) 0.06741(11)
H15 H 0.1013 0.8207 0.0892
C24 C 0.1096(3) 0.7069(3) 0.06171(9)
H16 H 0.1009 0.6682 0.0800
O9 O -0.0894(2) 0.3507(2) 0.11787(8)
O10 O 0.1571(3) 0.24583(18) 0.18882(7)
O11 O 0.1790(2) 0.15972(18) 0.10164(8)
O12 O 0.2404(2) 0.3273(2) 0.13209(8)
O13 O -0.0349(2) 0.17793(17) 0.09274(7)
O14 O -0.0736(2) 0.24209(19) 0.17527(8)
Cu1E Cu 0.06523(4) 0.00054(3) 0.245289(10)
O3E O 0.0828(2) 0.58283(16) 0.29252(6)
N2E N 0.0158(2) 0.41959(18) 0.29063(7)
O15 O -0.1829(3) 0.3859(2) 0.19829(10)
Cl1 Cl 0.79640(9) 0.57295(7) 0.12969(3)
O16 O 0.8875(4) 0.5422(4) 0.1251(2)
O17 O 0.7933(4) 0.6643(3) 0.12244(13)
O18 O 0.7372(4) 0.5270(3) 0.10495(12)
O19 O 0.7585(7) 0.5521(7) 0.16012(17)
Cl2 Cl 0.34131(7) 0.52435(6) 0.06546(3)
O20 O 0.3020(2) 0.5269(2) 0.03140(7)
O21 O 0.4426(2) 0.5113(3) 0.06396(10)
O22 O 0.3182(4) 0.6061(3) 0.08146(10)
O23 O 0.3003(3) 0.4500(3) 0.08211(12)
Cl3 Cl 0.81719(8) 0.59556(7) 0.25840(2)
O24 O 0.7327(3) 0.5946(4) 0.24064(11)
O25 O 0.8076(4) 0.5877(3) 0.29359(10)
O26 O 0.8617(6) 0.6779(5) 0.25319(16)
O27 O 0.8819(4) 0.5399(5) 0.24510(15)
loop_
_geom_bond_atom_site_label_1
_geom_bond_atom_site_label_2
_geom_bond_site_symmetry_1
_geom_bond_site_symmetry_2
Pr1 O2 1_555 1_555
Cu1 O1 1_555 1_555
O1 C1 1_555 1_555
O2 C1 1_555 1_555
N1 Cu1 1_555 1_555
C1 C2 1_555 1_555
C2 N1 1_555 1_555
C3 C2 1_555 1_555
H1 C3 1_555 1_555
C4 C3 1_555 1_555
H2 C4 1_555 1_555
C5 C4 1_555 1_555
H3 C5 1_555 1_555
C6 N1 1_555 1_555
H4 C6 1_555 1_555
O3 C7 1_555 1_555
O4 Pr1 1_555 1_555
N2 C8 1_555 1_555
C7 O4 1_555 1_555
C8 C7 1_555 1_555
C9 C8 1_555 1_555
H5 C9 1_555 1_555
C10 C9 1_555 1_555
H6 C10 1_555 1_555
C11 C10 1_555 1_555
H7 C11 1_555 1_555
C12 N2 1_555 1_555
H8 C12 1_555 1_555
Cu2 O5 1_555 1_555
O5 C13 1_555 1_555
O6 Pr1 1_555 1_555
N3 Cu2 1_555 1_555
C13 O6 1_555 1_555
C14 N3 1_555 1_555
C15 C14 1_555 1_555
H9 C15 1_555 1_555
C16 C15 1_555 1_555
H10 C16 1_555 1_555
C17 C16 1_555 1_555
H11 C17 1_555 1_555
C18 N3 1_555 1_555
H12 C18 1_555 1_555
O7 Cu2 1_555 1_555
O8 C19 1_555 1_555
N4 Cu2 1_555 1_555
C19 O7 1_555 1_555
C20 N4 1_555 1_555
C21 C20 1_555 1_555
H13 C21 1_555 1_555
C22 C21 1_555 1_555
H14 C22 1_555 1_555
C23 C22 1_555 1_555
H15 C23 1_555 1_555
C24 N4 1_555 1_555
H16 C24 1_555 1_555
O9 Pr1 1_555 1_555
O10 Pr1 1_555 1_555
O11 Pr1 1_555 1_555
O12 Pr1 1_555 1_555
O13 Pr1 1_555 1_555
O14 Pr1 1_555 1_555
Cl1 O16 1_555 1_555
O17 Cl1 1_555 1_555
O18 Cl1 1_555 1_555
O19 Cl1 1_555 1_555
Cl2 O20 1_555 1_555
O21 Cl2 1_555 1_555
O22 Cl2 1_555 1_555
O23 Cl2 1_555 1_555
Cl3 O24 1_555 1_555
O25 Cl3 1_555 1_555
O26 Cl3 1_555 1_555
O27 Cl3 1_555 1_555
Cu1E O3 1_555 1_555
O3E Cu1 1_555 1_555
N2E Cu1 1_555 1_555
C5 C6 1_555 1_555
N2 Cu1E 1_555 1_555
C11 C12 1_555 1_555
C13 C14 1_555 1_555
C17 C18 1_555 1_555
C19 C20 1_555 1_555
C23 C24 1_555 1_555

#END
