
#######################################################################
#
#                 Cambridge Crystallographic Data Centre
#                                CCDC 
#
#######################################################################
#
# If this CIF has been generated from an entry in the Cambridge 
# Structural Database, then it will include bibliographic, chemical, 
# crystal, experimental, refinement or atomic coordinate data resulting 
# from the CCDC's data processing and validation procedures.
#
#######################################################################

data_CAQFUW
_symmetry_cell_setting           triclinic
_symmetry_space_group_name_H-M   'P -1'
_symmetry_Int_Tables_number      2
_space_group_name_Hall           '-P 1'
loop_
_symmetry_equiv_pos_site_id
_symmetry_equiv_pos_as_xyz
1 x,y,z
2 -x,-y,-z
_cell_length_a                   8.67570(10)
_cell_length_b                   14.8466(3)
_cell_length_c                   16.7580(1)
_cell_angle_alpha                81.346(1)
_cell_angle_beta                 85.909(1)
_cell_angle_gamma                84.322(1)
_cell_volume                     2119.96
loop_
_atom_site_label
_atom_site_type_symbol
_atom_site_fract_x
_atom_site_fract_y
_atom_site_fract_z
Yb1 Yb 0.683944(12) 0.738206(7) 0.221507(6)
Cu1 Cu 0.42079(4) 0.90653(2) 0.492220(18)
O1 O 0.5077(2) 0.83164(12) 0.41246(10)
O2 O 0.4679(2) 0.80111(12) 0.28981(10)
N1 N 0.2721(2) 0.95497(14) 0.41091(12)
C1 C 0.4325(3) 0.84138(16) 0.34886(15)
C2 C 0.2917(3) 0.90871(16) 0.34632(14)
C3 C 0.1897(3) 0.92468(18) 0.28546(16)
H1 H 0.2049 0.8929 0.2413
C4 C 0.0640(3) 0.9889(2) 0.29122(18)
H2 H -0.0074 1.0001 0.2513
C5 C 0.0453(3) 1.03605(19) 0.35621(17)
H3 H -0.0377 1.0802 0.3603
C6 C 0.1514(3) 1.01715(17) 0.41559(16)
H4 H 0.1381 1.0486 0.4599
O3 O 0.3387(2) 0.98564(12) 0.56993(10)
O4 O 0.3209(3) 0.98775(14) 0.70346(11)
N2 N 0.5474(2) 0.84724(14) 0.58012(12)
C7 C 0.3751(3) 0.95576(18) 0.64284(16)
C8 C 0.4939(3) 0.87430(17) 0.65085(15)
C9 C 0.5532(4) 0.8346(2) 0.72269(17)
H5 H 0.5137 0.8538 0.7710
C10 C 0.6722(4) 0.7659(2) 0.72238(18)
H6 H 0.7129 0.7374 0.7706
C11 C 0.7301(4) 0.7400(2) 0.64986(19)
H7 H 0.8121 0.6948 0.6482
C12 C 0.6646(3) 0.78220(18) 0.57989(17)
H8 H 0.7034 0.7647 0.5308
Cu2 Cu 1.0000 0.5000 0.5000
O5 O 0.9340(2) 0.56820(13) 0.39712(11)
O6 O 0.7324(2) 0.65400(12) 0.34277(10)
N3 N 0.7846(2) 0.53215(14) 0.53733(12)
C13 C 0.7953(3) 0.60365(16) 0.39910(15)
C14 C 0.7029(3) 0.58324(17) 0.47856(15)
C15 C 0.5501(3) 0.61452(18) 0.49117(17)
H9 H 0.4958 0.6497 0.4497
C16 C 0.4788(3) 0.5922(2) 0.56750(18)
H10 H 0.3751 0.6117 0.5778
C17 C 0.5628(4) 0.5410(2) 0.62784(18)
H11 H 0.5166 0.5264 0.6794
C18 C 0.7156(3) 0.51178(19) 0.61124(16)
H12 H 0.7722 0.4772 0.6521
Cu3 Cu 1.0000 0.5000 0.0000
O7 O 0.8954(2) 0.58930(12) 0.06632(10)
O8 O 0.7961(2) 0.59897(12) 0.19163(10)
N4 N 0.9571(2) 0.41206(13) 0.09797(12)
C19 C 0.8578(3) 0.55563(17) 0.13839(15)
C20 C 0.8890(3) 0.45358(17) 0.15956(15)
C21 C 0.8536(4) 0.40683(19) 0.23411(17)
H13 H 0.8073 0.4375 0.2754
C22 C 0.8879(4) 0.3130(2) 0.24714(19)
H14 H 0.8643 0.2793 0.2972
C23 C 0.9578(4) 0.27001(19) 0.18426(18)
H15 H 0.9814 0.2069 0.1916
C24 C 0.9922(3) 0.32152(17) 0.11091(16)
H16 H 1.0411 0.2926 0.0692
Cu4 Cu 1.0000 1.0000 0.0000
O9 O 0.9039(2) 0.92007(12) 0.09027(11)
O10 O 0.9212(2) 0.77606(12) 0.15447(10)
N5 N 1.1382(2) 0.88748(14) -0.01096(13)
C25 C 0.9675(3) 0.83846(17) 0.10249(15)
C26 C 1.1066(3) 0.81730(17) 0.04737(15)
C27 C 1.1910(3) 0.73378(18) 0.05337(16)
H17 H 1.1664 0.6868 0.0941
C28 C 1.3135(3) 0.72077(19) -0.00235(17)
H18 H 1.3735 0.6650 0.0007
C29 C 1.3450(3) 0.7910(2) -0.06183(18)
H19 H 1.4266 0.7833 -0.1001
C30 C 1.25503(4) 0.87367(2) -0.064987(19)
H20 H 1.2768 0.9210 -0.1061
O11 O 0.65100(4) 0.73416(2) 0.080957(19)
O12 O 0.61814(4) 0.88464(2) 0.159631(19)
O13 O 0.47789(4) 0.65132(2) 0.220520(19)
O14 O 0.79769(4) 0.83163(2) 0.300389(19)
Yb1A Yb 1.316056(12) 0.261794(7) 0.778493(6)
Cu1A Cu 1.57921(4) 0.09347(2) 0.507780(18)
O1A O 1.4923(2) 0.16836(12) 0.58754(10)
O2A O 1.5321(2) 0.19889(12) 0.71019(10)
N1A N 1.7279(2) 0.04503(14) 0.58909(12)
C1A C 1.5675(3) 0.15862(16) 0.65114(15)
C2A C 1.7083(3) 0.09129(16) 0.65368(14)
C3A C 1.8103(3) 0.07532(18) 0.71454(16)
H1A H 1.7951 0.1071 0.7587
C4A C 1.9360(3) 0.0111(2) 0.70878(18)
H2A H 2.0074 -0.0001 0.7487
C5A C 1.9547(3) -0.03605(19) 0.64379(17)
H3A H 2.0377 -0.0802 0.6397
C6A C 1.8486(3) -0.01715(17) 0.58441(16)
H4A H 1.8619 -0.0486 0.5401
O3A O 1.6613(2) 0.01436(12) 0.43007(10)
O4A O 1.6791(3) 0.01225(14) 0.29654(11)
N2A N 1.4526(2) 0.15276(14) 0.41988(12)
C7A C 1.6249(3) 0.04424(18) 0.35716(16)
C8A C 1.5061(3) 0.12570(17) 0.34915(15)
C9A C 1.4468(4) 0.1654(2) 0.27731(17)
H5A H 1.4863 0.1462 0.2290
C10A C 1.3278(4) 0.2341(2) 0.27762(18)
H6A H 1.2871 0.2626 0.2294
C11A C 1.2699(4) 0.2600(2) 0.35014(19)
H7A H 1.1879 0.3052 0.3518
C12A C 1.3354(3) 0.21780(18) 0.42011(17)
H8A H 1.2966 0.2353 0.4692
O5A O 1.0660(2) 0.43180(13) 0.60288(11)
O6A O 1.2676(2) 0.34600(12) 0.65723(10)
N3A N 1.2154(2) 0.46785(14) 0.46267(12)
C13A C 1.2047(3) 0.39635(16) 0.60090(15)
C14A C 1.2971(3) 0.41676(17) 0.52144(15)
C15A C 1.4499(3) 0.38548(18) 0.50883(17)
H9A H 1.5042 0.3503 0.5503
C16A C 1.5212(3) 0.4078(2) 0.43250(18)
H10A H 1.6249 0.3883 0.4222
C17A C 1.4372(4) 0.4590(2) 0.37216(18)
H11A H 1.4834 0.4736 0.3206
C18A C 1.2844(3) 0.48822(19) 0.38876(16)
H12A H 1.2278 0.5228 0.3479
Cu3_2 Cu 1.0000 0.5000 1.0000
O7A O 1.1046(2) 0.41070(12) 0.93368(10)
O7A_2 O 1.1046(2) 0.41070(12) -0.06632(10)
O8A O 1.2039(2) 0.40103(12) 0.80837(10)
N4A N 1.0429(2) 0.58794(13) 0.90203(12)
N4A_2 N 1.0429(2) 0.58794(13) -0.09797(12)
C19A C 1.1422(3) 0.44437(17) 0.86161(15)
C20A C 1.1110(3) 0.54642(17) 0.84044(15)
C21A C 1.1464(4) 0.59317(19) 0.76589(17)
H13A H 1.1927 0.5625 0.7246
C22A C 1.1121(4) 0.6870(2) 0.75286(19)
H14A H 1.1357 0.7207 0.7028
C23A C 1.0422(4) 0.72999(19) 0.81574(18)
H15A H 1.0186 0.7931 0.8084
C24A C 1.0078(3) 0.67848(17) 0.88909(16)
H16A H 0.9589 0.7074 0.9308
Cu4_2 Cu 1.0000 0.0000 1.0000
O9A O 1.0961(2) 0.07993(12) 0.90973(11)
O9A_2 O 1.0961(2) 1.07993(12) -0.09027(11)
O10A O 1.0788(2) 0.22394(12) 0.84553(10)
N5A N 0.8618(2) 0.11252(14) 1.01096(13)
N5A_2 N 0.8618(2) 1.11252(14) 0.01096(13)
C25A C 1.0325(3) 0.16154(17) 0.89751(15)
C26A C 0.8934(3) 0.18270(17) 0.95263(15)
C27A C 0.8090(3) 0.26622(18) 0.94663(16)
H17A H 0.8336 0.3132 0.9059
C28A C 0.6865(3) 0.27923(19) 1.00235(17)
H18A H 0.6265 0.3350 0.9993
C29A C 0.6550(3) 0.2090(2) 1.06183(18)
H19A H 0.5734 0.2167 1.1001
C30A C 0.74497(4) 0.12633(2) 1.064987(19)
H20A H 0.7232 0.0790 1.1061
O11A O 1.34900(4) 0.26584(2) 0.919043(19)
O12A O 1.38186(4) 0.11536(2) 0.840369(19)
O13A O 1.52211(4) 0.34868(2) 0.779480(19)
O14A O 1.20231(4) 0.16837(2) 0.699611(19)
O15 O 0.17034(4) 0.69091(2) 0.266004(19)
Cl1 Cl 0.89660(4) 0.26384(2) 0.502527(19)
O16 O 0.78984(4) 0.28872(2) 0.566070(19)
O17 O 0.93889(4) 0.34495(2) 0.450749(19)
O18 O 1.02941(4) 0.21314(2) 0.536245(19)
O19 O 0.82173(4) 0.21026(2) 0.455059(19)
Cl2 Cl 0.70106(4) 0.92463(2) -0.092154(19)
O20 O 0.59615(4) 0.96418(2) -0.151969(19)
O21 O 0.84010(4) 0.96742(2) -0.103463(19)
O22 O 0.63313(4) 0.92851(2) -0.013654(19)
O23 O 0.73284(4) 0.83051(2) -0.100022(19)
Cl3 Cl 1.34681(4) 0.46460(2) 0.120464(19)
O24 O 1.38384(4) 0.37566(2) 0.101532(19)
O25 O 1.25594(4) 0.51571(2) 0.058056(19)
O26 O 1.48257(4) 0.50992(2) 0.124173(19)
O27 O 1.25676(4) 0.46027(2) 0.194606(19)
loop_
_geom_bond_atom_site_label_1
_geom_bond_atom_site_label_2
_geom_bond_site_symmetry_1
_geom_bond_site_symmetry_2
Yb1 O2 1_555 1_555
Cu1 O1 1_555 1_555
O1 C1 1_555 1_555
O2 C1 1_555 1_555
N1 Cu1 1_555 1_555
C1 C2 1_555 1_555
C2 N1 1_555 1_555
C3 C2 1_555 1_555
H1 C3 1_555 1_555
C4 C3 1_555 1_555
H2 C4 1_555 1_555
C5 C4 1_555 1_555
H3 C5 1_555 1_555
C6 N1 1_555 1_555
H4 C6 1_555 1_555
O3 Cu1 1_555 1_555
O4 C7 1_555 1_555
N2 Cu1 1_555 1_555
C7 O3 1_555 1_555
C8 N2 1_555 1_555
C9 C8 1_555 1_555
H5 C9 1_555 1_555
C10 C9 1_555 1_555
H6 C10 1_555 1_555
C11 C10 1_555 1_555
H7 C11 1_555 1_555
C12 N2 1_555 1_555
H8 C12 1_555 1_555
Cu2 O5 1_555 1_555
O5 C13 1_555 1_555
O6 Yb1 1_555 1_555
N3 Cu2 1_555 1_555
C13 O6 1_555 1_555
C14 N3 1_555 1_555
C15 C14 1_555 1_555
H9 C15 1_555 1_555
C16 C15 1_555 1_555
H10 C16 1_555 1_555
C17 C16 1_555 1_555
H11 C17 1_555 1_555
C18 N3 1_555 1_555
H12 C18 1_555 1_555
Cu3 O7 1_555 1_555
O7 C19 1_555 1_555
O8 Yb1 1_555 1_555
N4 Cu3 1_555 1_555
C19 O8 1_555 1_555
C20 N4 1_555 1_555
C21 C20 1_555 1_555
H13 C21 1_555 1_555
C22 C21 1_555 1_555
H14 C22 1_555 1_555
C23 C22 1_555 1_555
H15 C23 1_555 1_555
C24 N4 1_555 1_555
H16 C24 1_555 1_555
Cu4 O9 1_555 1_555
O9 C25 1_555 1_555
O10 Yb1 1_555 1_555
N5 Cu4 1_555 1_555
C25 O10 1_555 1_555
C26 N5 1_555 1_555
C27 C26 1_555 1_555
H17 C27 1_555 1_555
C28 C27 1_555 1_555
H18 C28 1_555 1_555
C29 C28 1_555 1_555
H19 C29 1_555 1_555
C30 N5 1_555 1_555
H20 C30 1_555 1_555
O11 Yb1 1_555 1_555
O12 Yb1 1_555 1_555
O13 Yb1 1_555 1_555
O14 Yb1 1_555 1_555
Cl1 O16 1_555 1_555
O17 Cl1 1_555 1_555
O18 Cl1 1_555 1_555
O19 Cl1 1_555 1_555
Cl2 O20 1_555 1_555
O21 Cl2 1_555 1_555
O22 Cl2 1_555 1_555
O23 Cl2 1_555 1_555
Cl3 O24 1_555 1_555
O25 Cl3 1_555 1_555
O26 Cl3 1_555 1_555
O27 Cl3 1_555 1_555
Yb1A O2A 1_555 1_555
Cu1A O1A 1_555 1_555
O1A C1A 1_555 1_555
O2A C1A 1_555 1_555
N1A Cu1A 1_555 1_555
C1A C2A 1_555 1_555
C2A N1A 1_555 1_555
C3A C2A 1_555 1_555
H1A C3A 1_555 1_555
C4A C3A 1_555 1_555
H2A C4A 1_555 1_555
C5A C4A 1_555 1_555
H3A C5A 1_555 1_555
C6A N1A 1_555 1_555
H4A C6A 1_555 1_555
O3A Cu1A 1_555 1_555
O4A C7A 1_555 1_555
N2A Cu1A 1_555 1_555
C7A O3A 1_555 1_555
C8A N2A 1_555 1_555
C9A C8A 1_555 1_555
H5A C9A 1_555 1_555
C10A C9A 1_555 1_555
H6A C10A 1_555 1_555
C11A C10A 1_555 1_555
H7A C11A 1_555 1_555
C12A N2A 1_555 1_555
H8A C12A 1_555 1_555
O5A Cu2 1_555 1_555
O6A Yb1A 1_555 1_555
N3A Cu2 1_555 1_555
C13A O5A 1_555 1_555
C14A N3A 1_555 1_555
C15A C14A 1_555 1_555
H9A C15A 1_555 1_555
C16A C15A 1_555 1_555
H10A C16A 1_555 1_555
C17A C16A 1_555 1_555
H11A C17A 1_555 1_555
C18A N3A 1_555 1_555
H12A C18A 1_555 1_555
Cu3_2 O7A 1_555 1_555
O7A C19A 1_555 1_555
O7A_2 Cu3 1_555 1_555
O8A Yb1A 1_555 1_555
N4A Cu3_2 1_555 1_555
N4A_2 Cu3 1_555 1_555
C19A O8A 1_555 1_555
C20A N4A 1_555 1_555
C21A C20A 1_555 1_555
H13A C21A 1_555 1_555
C22A C21A 1_555 1_555
H14A C22A 1_555 1_555
C23A C22A 1_555 1_555
H15A C23A 1_555 1_555
C24A N4A 1_555 1_555
H16A C24A 1_555 1_555
Cu4_2 O9A 1_555 1_555
O9A C25A 1_555 1_555
O9A_2 Cu4 1_555 1_555
O10A Yb1A 1_555 1_555
N5A Cu4_2 1_555 1_555
N5A_2 Cu4 1_555 1_555
C25A O10A 1_555 1_555
C26A N5A 1_555 1_555
C27A C26A 1_555 1_555
H17A C27A 1_555 1_555
C28A C27A 1_555 1_555
H18A C28A 1_555 1_555
C29A C28A 1_555 1_555
H19A C29A 1_555 1_555
C30A N5A 1_555 1_555
H20A C30A 1_555 1_555
O11A Yb1A 1_555 1_555
O12A Yb1A 1_555 1_555
O13A Yb1A 1_555 1_555
O14A Yb1A 1_555 1_555
C5 C6 1_555 1_555
C7 C8 1_555 1_555
C11 C12 1_555 1_555
C13 C14 1_555 1_555
C17 C18 1_555 1_555
C19 C20 1_555 1_555
C23 C24 1_555 1_555
C25 C26 1_555 1_555
C29 C30 1_555 1_555
C5A C6A 1_555 1_555
C7A C8A 1_555 1_555
C11A C12A 1_555 1_555
O6A C13A 1_555 1_555
C13A C14A 1_555 1_555
C17A C18A 1_555 1_555
C19A C20A 1_555 1_555
C23A C24A 1_555 1_555
C25A C26A 1_555 1_555
C29A C30A 1_555 1_555

#END
