
#######################################################################
#
#                 Cambridge Crystallographic Data Centre
#                                CCDC 
#
#######################################################################
#
# If this CIF has been generated from an entry in the Cambridge 
# Structural Database, then it will include bibliographic, chemical, 
# crystal, experimental, refinement or atomic coordinate data resulting 
# from the CCDC's data processing and validation procedures.
#
#######################################################################

data_CAQFEG
_symmetry_cell_setting           triclinic
_symmetry_space_group_name_H-M   'P -1'
_symmetry_Int_Tables_number      2
_space_group_name_Hall           '-P 1'
loop_
_symmetry_equiv_pos_site_id
_symmetry_equiv_pos_as_xyz
1 x,y,z
2 -x,-y,-z
_cell_length_a                   8.71790(10)
_cell_length_b                   14.9062(3)
_cell_length_c                   16.8218(3)
_cell_angle_alpha                81.5480(10)
_cell_angle_beta                 86.2290(10)
_cell_angle_gamma                84.4550(10)
_cell_volume                     2149.19
loop_
_atom_site_label
_atom_site_type_symbol
_atom_site_fract_x
_atom_site_fract_y
_atom_site_fract_z
Dy1 Dy 0.681701(16) 0.738557(9) 0.220940(8)
Cu1 Cu 0.41946(5) 0.90674(3) 0.49221(2)
O1 O 0.5042(2) 0.83262(14) 0.41188(12)
O2 O 0.4632(2) 0.80189(13) 0.28982(12)
N1 N 0.2696(3) 0.95608(15) 0.41128(14)
C1 C 0.4286(3) 0.84203(19) 0.34872(17)
C2 C 0.2878(3) 0.91000(18) 0.34698(17)
C3 C 0.1868(4) 0.9263(2) 0.28647(19)
H1 H 0.2023 0.8950 0.2423
C4 C 0.0616(4) 0.9897(2) 0.2919(2)
H2 H -0.0098 1.0008 0.2520
C5 C 0.0442(4) 1.0363(2) 0.3574(2)
H3 H -0.0385 1.0799 0.3616
C6 C 0.1497(4) 1.0181(2) 0.4167(2)
H4 H 0.1370 1.0494 0.4609
O3 O 0.3394(3) 0.98546(14) 0.57067(13)
O4 O 0.3215(3) 0.98572(16) 0.70398(14)
N2 N 0.5486(3) 0.84730(16) 0.57977(15)
C7 C 0.3741(4) 0.9544(2) 0.64279(19)
C8 C 0.4938(4) 0.8740(2) 0.65064(19)
C9 C 0.5541(4) 0.8336(2) 0.72201(19)
H5 H 0.5158 0.8525 0.7703
C10 C 0.6726(5) 0.7644(2) 0.7213(2)
H6 H 0.7121 0.7347 0.7691
C11 C 0.7302(4) 0.7408(2) 0.6487(2)
H7 H 0.8130 0.6968 0.6464
C12 C 0.6639(4) 0.7832(2) 0.5788(2)
H8 H 0.7016 0.7659 0.5298
Cu2 Cu 1.0000 0.5000 0.5000
O5 O 0.9332(3) 0.56864(15) 0.39800(12)
O6 O 0.7322(3) 0.65368(14) 0.34395(12)
N3 N 0.7860(3) 0.53182(17) 0.53782(15)
C13 C 0.7970(4) 0.6031(2) 0.40055(18)
C14 C 0.7040(4) 0.58298(19) 0.47927(18)
C15 C 0.5521(4) 0.6139(2) 0.4927(2)
H9 H 0.4980 0.6492 0.4516
C16 C 0.4806(4) 0.5920(2) 0.5682(2)
H10 H 0.3775 0.6114 0.5782
C17 C 0.5648(4) 0.5409(2) 0.6282(2)
H11 H 0.5195 0.5268 0.6795
C18 C 0.7176(4) 0.5106(2) 0.61163(19)
H12 H 0.7735 0.4752 0.6519
Cu3 Cu 1.0000 0.5000 0.0000
O7 O 0.8947(3) 0.58807(14) 0.06679(12)
O8 O 0.7946(3) 0.59678(14) 0.19101(12)
N4 N 0.9566(3) 0.41184(16) 0.09755(14)
C19 C 0.8555(4) 0.5536(2) 0.13807(17)
C20 C 0.8896(4) 0.4524(2) 0.15867(18)
C21 C 0.8548(4) 0.4057(2) 0.2329(2)
H13 H 0.8083 0.4360 0.2740
C22 C 0.8907(5) 0.3118(3) 0.2457(2)
H14 H 0.8680 0.2780 0.2954
C23 C 0.9600(4) 0.2699(2) 0.1835(2)
H15 H 0.9842 0.2072 0.1907
C24 C 0.9940(4) 0.3214(2) 0.10986(19)
H16 H 1.0433 0.2929 0.0684
Cu4 Cu 1.0000 1.0000 0.0000
O9 O 0.9049(2) 0.92043(14) 0.08977(13)
O10 O 0.9219(2) 0.77777(14) 0.15407(12)
N5 N 1.1391(3) 0.88825(17) -0.01092(15)
C25 C 0.9677(3) 0.8397(2) 0.10159(18)
C26 C 1.1068(3) 0.8177(2) 0.04709(18)
C27 C 1.1907(4) 0.7340(2) 0.0531(2)
H17 H 1.1671 0.6874 0.0939
C28 C 1.3126(4) 0.7210(2) -0.0037(2)
H18 H 1.3711 0.6652 -0.0018
C29 C 1.3437(4) 0.7912(2) -0.0615(2)
H19 H 1.4247 0.7838 -0.0995
C30 C 1.25527(5) 0.87410(3) -0.06439(2)
H20 H 1.2778 0.9212 -0.1049
O11 O 0.65271(5) 0.73318(3) 0.07792(2)
O12 O 0.61412(5) 0.88662(3) 0.15668(2)
O13 O 0.47072(5) 0.65071(3) 0.21854(2)
O14 O 0.79628(5) 0.83417(3) 0.30180(2)
Dy1A Dy 1.318299(16) 0.261443(9) 0.779060(8)
Cu1A Cu 1.58054(5) 0.09326(3) 0.50779(2)
O1A O 1.4958(2) 0.16738(14) 0.58812(12)
O2A O 1.5368(2) 0.19811(13) 0.71018(12)
N1A N 1.7304(3) 0.04392(15) 0.58872(14)
C1A C 1.5714(3) 0.15797(19) 0.65128(17)
C2A C 1.7122(3) 0.09000(18) 0.65302(17)
C3A C 1.8132(4) 0.0737(2) 0.71353(19)
H1A H 1.7977 0.1050 0.7577
C4A C 1.9384(4) 0.0103(2) 0.7081(2)
H2A H 2.0098 -0.0008 0.7480
C5A C 1.9558(4) -0.0363(2) 0.6426(2)
H3A H 2.0385 -0.0799 0.6384
C6A C 1.8503(4) -0.0181(2) 0.5833(2)
H4A H 1.8630 -0.0494 0.5391
O3A O 1.6606(3) 0.01454(14) 0.42933(13)
O4A O 1.6785(3) 0.01428(16) 0.29602(14)
N2A N 1.4514(3) 0.15270(16) 0.42023(15)
C7A C 1.6259(4) 0.0456(2) 0.35721(19)
C8A C 1.5062(4) 0.1260(2) 0.34936(19)
C9A C 1.4459(4) 0.1664(2) 0.27799(19)
H5A H 1.4842 0.1475 0.2297
C10A C 1.3274(5) 0.2356(2) 0.2787(2)
H6A H 1.2879 0.2653 0.2309
C11A C 1.2698(4) 0.2592(2) 0.3513(2)
H7A H 1.1870 0.3032 0.3536
C12A C 1.3361(4) 0.2168(2) 0.4212(2)
H8A H 1.2984 0.2341 0.4702
O5A O 1.0668(3) 0.43136(15) 0.60200(12)
O6A O 1.2678(3) 0.34632(14) 0.65605(12)
N3A N 1.2140(3) 0.46818(17) 0.46218(15)
C13A C 1.2030(4) 0.3969(2) 0.59945(18)
C14A C 1.2960(4) 0.41702(19) 0.52073(18)
C15A C 1.4479(4) 0.3861(2) 0.5073(2)
H9A H 1.5020 0.3508 0.5484
C16A C 1.5194(4) 0.4080(2) 0.4318(2)
H10A H 1.6225 0.3886 0.4218
C17A C 1.4352(4) 0.4591(2) 0.3718(2)
H11A H 1.4805 0.4732 0.3205
C18A C 1.2824(4) 0.4894(2) 0.38837(19)
H12A H 1.2265 0.5248 0.3481
Cu3_2 Cu 1.0000 0.5000 1.0000
O7A O 1.1053(3) 0.41193(14) 0.93321(12)
O7A_2 O 1.1053(3) 0.41193(14) -0.06679(12)
O8A O 1.2054(3) 0.40322(14) 0.80899(12)
N4A N 1.0434(3) 0.58816(16) 0.90245(14)
N4A_2 N 1.0434(3) 0.58816(16) -0.09755(14)
C19A C 1.1445(4) 0.4464(2) 0.86193(17)
C20A C 1.1104(4) 0.5476(2) 0.84133(18)
C21A C 1.1452(4) 0.5943(2) 0.7671(2)
H13A H 1.1917 0.5640 0.7260
C22A C 1.1093(5) 0.6882(3) 0.7543(2)
H14A H 1.1320 0.7220 0.7046
C23A C 1.0400(4) 0.7301(2) 0.8165(2)
H15A H 1.0158 0.7928 0.8093
C24A C 1.0060(4) 0.6786(2) 0.89014(19)
H16A H 0.9567 0.7071 0.9316
Cu4_2 Cu 1.0000 0.0000 1.0000
O9A O 1.0951(2) 0.07957(14) 0.91023(13)
O9A_2 O 1.0951(2) 1.07957(14) -0.08977(13)
O10A O 1.0781(2) 0.22223(14) 0.84593(12)
N5A N 0.8609(3) 0.11175(17) 1.01092(15)
N5A_2 N 0.8609(3) 1.11175(17) 0.01092(15)
C25A C 1.0323(3) 0.1603(2) 0.89841(18)
C26A C 0.8932(3) 0.1823(2) 0.95291(18)
C27A C 0.8093(4) 0.2660(2) 0.9469(2)
H17A H 0.8329 0.3126 0.9061
C28A C 0.6874(4) 0.2790(2) 1.0037(2)
H18A H 0.6289 0.3348 1.0018
C29A C 0.6563(4) 0.2088(2) 1.0615(2)
H19A H 0.5753 0.2162 1.0995
C30A C 0.74473(5) 0.12590(3) 1.06439(2)
H20A H 0.7222 0.0788 1.1049
O11A O 1.34729(5) 0.26682(3) 0.92208(2)
O12A O 1.38588(5) 0.11338(3) 0.84332(2)
O13A O 1.52928(5) 0.34929(3) 0.78146(2)
O14A O 1.20372(5) 0.16583(3) 0.69820(2)
O15 O 0.16732(5) 0.69069(3) 0.26659(2)
Cl1 Cl 0.89530(5) 0.26445(3) 0.50172(2)
O16 O 0.79045(5) 0.28909(3) 0.56589(2)
O17 O 0.93589(5) 0.34497(3) 0.45043(2)
O18 O 1.02775(5) 0.21412(3) 0.53478(2)
O19 O 0.82053(5) 0.21093(3) 0.45423(2)
Cl2 Cl 0.70237(5) 0.92448(3) -0.09332(2)
O20 O 0.59987(5) 0.96328(3) -0.15430(2)
O21 O 0.84258(5) 0.96486(3) -0.10463(2)
O22 O 0.63357(5) 0.93148(3) -0.01586(2)
O23 O 0.72947(5) 0.82978(3) -0.09827(2)
Cl3 Cl 1.34543(5) 0.46343(3) 0.11964(2)
O24 O 1.38059(5) 0.37591(3) 0.09824(2)
O25 O 1.25514(5) 0.51613(3) 0.05843(2)
O26 O 1.48288(5) 0.50775(3) 0.12416(2)
O27 O 1.25696(5) 0.45679(3) 0.19388(2)
loop_
_geom_bond_atom_site_label_1
_geom_bond_atom_site_label_2
_geom_bond_site_symmetry_1
_geom_bond_site_symmetry_2
Dy1 O2 1_555 1_555
Cu1 O1 1_555 1_555
O1 C1 1_555 1_555
O2 C1 1_555 1_555
N1 Cu1 1_555 1_555
C1 C2 1_555 1_555
C2 N1 1_555 1_555
C3 C2 1_555 1_555
H1 C3 1_555 1_555
C4 C3 1_555 1_555
H2 C4 1_555 1_555
C5 C4 1_555 1_555
H3 C5 1_555 1_555
C6 N1 1_555 1_555
H4 C6 1_555 1_555
O3 Cu1 1_555 1_555
O4 C7 1_555 1_555
N2 Cu1 1_555 1_555
C7 O3 1_555 1_555
C8 N2 1_555 1_555
C9 C8 1_555 1_555
H5 C9 1_555 1_555
C10 C9 1_555 1_555
H6 C10 1_555 1_555
C11 C10 1_555 1_555
H7 C11 1_555 1_555
C12 N2 1_555 1_555
H8 C12 1_555 1_555
Cu2 O5 1_555 1_555
O5 C13 1_555 1_555
O6 Dy1 1_555 1_555
N3 Cu2 1_555 1_555
C13 O6 1_555 1_555
C14 N3 1_555 1_555
C15 C14 1_555 1_555
H9 C15 1_555 1_555
C16 C15 1_555 1_555
H10 C16 1_555 1_555
C17 C16 1_555 1_555
H11 C17 1_555 1_555
C18 N3 1_555 1_555
H12 C18 1_555 1_555
Cu3 O7 1_555 1_555
O7 C19 1_555 1_555
O8 Dy1 1_555 1_555
N4 Cu3 1_555 1_555
C19 O8 1_555 1_555
C20 N4 1_555 1_555
C21 C20 1_555 1_555
H13 C21 1_555 1_555
C22 C21 1_555 1_555
H14 C22 1_555 1_555
C23 C22 1_555 1_555
H15 C23 1_555 1_555
C24 N4 1_555 1_555
H16 C24 1_555 1_555
Cu4 O9 1_555 1_555
O9 C25 1_555 1_555
O10 Dy1 1_555 1_555
N5 Cu4 1_555 1_555
C25 O10 1_555 1_555
C26 N5 1_555 1_555
C27 C26 1_555 1_555
H17 C27 1_555 1_555
C28 C27 1_555 1_555
H18 C28 1_555 1_555
C29 C28 1_555 1_555
H19 C29 1_555 1_555
C30 N5 1_555 1_555
H20 C30 1_555 1_555
O11 Dy1 1_555 1_555
O12 Dy1 1_555 1_555
O13 Dy1 1_555 1_555
O14 Dy1 1_555 1_555
Cl1 O16 1_555 1_555
O17 Cl1 1_555 1_555
O18 Cl1 1_555 1_555
O19 Cl1 1_555 1_555
Cl2 O20 1_555 1_555
O21 Cl2 1_555 1_555
O22 Cl2 1_555 1_555
O23 Cl2 1_555 1_555
Cl3 O24 1_555 1_555
O25 Cl3 1_555 1_555
O26 Cl3 1_555 1_555
O27 Cl3 1_555 1_555
Dy1A O2A 1_555 1_555
Cu1A O1A 1_555 1_555
O1A C1A 1_555 1_555
O2A C1A 1_555 1_555
N1A Cu1A 1_555 1_555
C1A C2A 1_555 1_555
C2A N1A 1_555 1_555
C3A C2A 1_555 1_555
H1A C3A 1_555 1_555
C4A C3A 1_555 1_555
H2A C4A 1_555 1_555
C5A C4A 1_555 1_555
H3A C5A 1_555 1_555
C6A N1A 1_555 1_555
H4A C6A 1_555 1_555
O3A Cu1A 1_555 1_555
O4A C7A 1_555 1_555
N2A Cu1A 1_555 1_555
C7A O3A 1_555 1_555
C8A N2A 1_555 1_555
C9A C8A 1_555 1_555
H5A C9A 1_555 1_555
C10A C9A 1_555 1_555
H6A C10A 1_555 1_555
C11A C10A 1_555 1_555
H7A C11A 1_555 1_555
C12A N2A 1_555 1_555
H8A C12A 1_555 1_555
O5A Cu2 1_555 1_555
O6A Dy1A 1_555 1_555
N3A Cu2 1_555 1_555
C13A O5A 1_555 1_555
C14A N3A 1_555 1_555
C15A C14A 1_555 1_555
H9A C15A 1_555 1_555
C16A C15A 1_555 1_555
H10A C16A 1_555 1_555
C17A C16A 1_555 1_555
H11A C17A 1_555 1_555
C18A N3A 1_555 1_555
H12A C18A 1_555 1_555
Cu3_2 O7A 1_555 1_555
O7A C19A 1_555 1_555
O7A_2 Cu3 1_555 1_555
O8A Dy1A 1_555 1_555
N4A Cu3_2 1_555 1_555
N4A_2 Cu3 1_555 1_555
C19A O8A 1_555 1_555
C20A N4A 1_555 1_555
C21A C20A 1_555 1_555
H13A C21A 1_555 1_555
C22A C21A 1_555 1_555
H14A C22A 1_555 1_555
C23A C22A 1_555 1_555
H15A C23A 1_555 1_555
C24A N4A 1_555 1_555
H16A C24A 1_555 1_555
Cu4_2 O9A 1_555 1_555
O9A C25A 1_555 1_555
O9A_2 Cu4 1_555 1_555
O10A Dy1A 1_555 1_555
N5A Cu4_2 1_555 1_555
N5A_2 Cu4 1_555 1_555
C25A O10A 1_555 1_555
C26A N5A 1_555 1_555
C27A C26A 1_555 1_555
H17A C27A 1_555 1_555
C28A C27A 1_555 1_555
H18A C28A 1_555 1_555
C29A C28A 1_555 1_555
H19A C29A 1_555 1_555
C30A N5A 1_555 1_555
H20A C30A 1_555 1_555
O11A Dy1A 1_555 1_555
O12A Dy1A 1_555 1_555
O13A Dy1A 1_555 1_555
O14A Dy1A 1_555 1_555
C5 C6 1_555 1_555
C7 C8 1_555 1_555
C11 C12 1_555 1_555
C13 C14 1_555 1_555
C17 C18 1_555 1_555
C19 C20 1_555 1_555
C23 C24 1_555 1_555
C25 C26 1_555 1_555
C29 C30 1_555 1_555
C5A C6A 1_555 1_555
C7A C8A 1_555 1_555
C11A C12A 1_555 1_555
O6A C13A 1_555 1_555
C13A C14A 1_555 1_555
C17A C18A 1_555 1_555
C19A C20A 1_555 1_555
C23A C24A 1_555 1_555
C25A C26A 1_555 1_555
C29A C30A 1_555 1_555

#END
