
#######################################################################
#
#                 Cambridge Crystallographic Data Centre
#                                CCDC 
#
#######################################################################
#
# If this CIF has been generated from an entry in the Cambridge 
# Structural Database, then it will include bibliographic, chemical, 
# crystal, experimental, refinement or atomic coordinate data resulting 
# from the CCDC's data processing and validation procedures.
#
#######################################################################

data_CAQFIK
_symmetry_cell_setting           triclinic
_symmetry_space_group_name_H-M   'P -1'
_symmetry_Int_Tables_number      2
_space_group_name_Hall           '-P 1'
loop_
_symmetry_equiv_pos_site_id
_symmetry_equiv_pos_as_xyz
1 x,y,z
2 -x,-y,-z
_cell_length_a                   8.7140(2)
_cell_length_b                   14.8939(3)
_cell_length_c                   16.7935(4)
_cell_angle_alpha                81.6600(10)
_cell_angle_beta                 86.3550(10)
_cell_angle_gamma                84.5680(10)
_cell_volume                     2144.07
loop_
_atom_site_label
_atom_site_type_symbol
_atom_site_fract_x
_atom_site_fract_y
_atom_site_fract_z
Eu1 Eu 0.67997(2) 0.738866(12) 0.220412(10)
Cu1 Cu 0.41833(6) 0.90704(3) 0.49229(3)
O1 O 0.5018(3) 0.83352(16) 0.41206(14)
O2 O 0.4592(3) 0.80315(15) 0.28948(13)
N1 N 0.2677(3) 0.95637(18) 0.41186(16)
C1 C 0.4262(4) 0.8432(2) 0.3491(2)
C2 C 0.2855(4) 0.9106(2) 0.3463(2)
C3 C 0.1831(4) 0.9275(2) 0.2872(2)
H1 H 0.1966 0.8963 0.2428
C4 C 0.0599(5) 0.9908(3) 0.2933(2)
H2 H -0.0120 1.0023 0.2536
C5 C 0.0441(5) 1.0365(3) 0.3580(2)
H3 H -0.0383 1.0803 0.3625
C6 C 0.1486(4) 1.0184(2) 0.4165(2)
H4 H 0.1363 1.0502 0.4606
O3 O 0.3409(3) 0.98474(17) 0.57076(14)
O4 O 0.3231(3) 0.98472(18) 0.70301(15)
N2 N 0.5479(3) 0.84784(19) 0.57947(17)
C7 C 0.3766(4) 0.9531(2) 0.6426(2)
C8 C 0.4959(4) 0.8732(2) 0.6505(2)
C9 C 0.5546(5) 0.8323(3) 0.7209(2)
H5 H 0.5159 0.8502 0.7696
C10 C 0.6722(5) 0.7642(3) 0.7192(2)
H6 H 0.7117 0.7344 0.7670
C11 C 0.7312(5) 0.7401(3) 0.6468(3)
H7 H 0.8137 0.6959 0.6446
C12 C 0.6643(4) 0.7834(2) 0.5771(2)
H8 H 0.7016 0.7671 0.5276
Cu2 Cu 1.0000 0.5000 0.5000
O5 O 0.9326(3) 0.56879(17) 0.39885(14)
O6 O 0.7317(3) 0.65359(16) 0.34552(14)
N3 N 0.7866(3) 0.53093(18) 0.53875(17)
C13 C 0.7956(4) 0.6032(2) 0.4009(2)
C14 C 0.7058(4) 0.5836(2) 0.4797(2)
C15 C 0.5530(4) 0.6138(2) 0.4939(2)
H9 H 0.4982 0.6491 0.4530
C16 C 0.4819(5) 0.5912(3) 0.5697(2)
H10 H 0.3795 0.6115 0.5806
C17 C 0.5664(5) 0.5384(3) 0.6279(2)
H11 H 0.5205 0.5210 0.6786
C18 C 0.7182(5) 0.5112(3) 0.6117(2)
H12 H 0.7752 0.4780 0.6528
Cu3 Cu 1.0000 0.5000 0.0000
O7 O 0.8948(3) 0.58768(15) 0.06634(14)
O8 O 0.7919(3) 0.59602(15) 0.19055(14)
N4 N 0.9585(3) 0.41099(18) 0.09719(16)
C19 C 0.8550(4) 0.5533(2) 0.1377(2)
C20 C 0.8886(4) 0.4512(2) 0.1578(2)
C21 C 0.8555(5) 0.4036(3) 0.2316(2)
H13 H 0.8089 0.4335 0.2729
C22 C 0.8918(5) 0.3113(3) 0.2441(3)
H14 H 0.8689 0.2776 0.2938
C23 C 0.9627(5) 0.2690(3) 0.1820(2)
H15 H 0.9877 0.2064 0.1890
C24 C 0.9962(4) 0.3216(2) 0.1089(2)
H16 H 1.0461 0.2937 0.0672
Cu4 Cu 1.0000 1.0000 0.0000
O9 O 0.9051(3) 0.92064(16) 0.08916(14)
O10 O 0.9233(3) 0.77831(16) 0.15407(14)
N5 N 1.1375(3) 0.88886(19) -0.01080(18)
C25 C 0.9683(4) 0.8404(2) 0.1022(2)
C26 C 1.1059(4) 0.8182(2) 0.0471(2)
C27 C 1.1895(4) 0.7349(3) 0.0528(2)
H17 H 1.1652 0.6880 0.0931
C28 C 1.3112(4) 0.7223(3) -0.0031(2)
H18 H 1.3708 0.6669 -0.0006
C29 C 1.3416(5) 0.7925(3) -0.0615(2)
H19 H 1.4217 0.7850 -0.0999
C30 C 1.25347(5) 0.87517(3) -0.06389(3)
H20 H 1.2764 0.9226 -0.1040
O11 O 0.65222(5) 0.73195(3) 0.07493(3)
O12 O 0.60931(5) 0.88866(3) 0.15395(3)
O13 O 0.46471(5) 0.65008(3) 0.21712(3)
O14 O 0.79441(5) 0.83671(3) 0.30302(3)
Eu1A Eu 1.32003(2) 0.261134(12) 0.779588(10)
Cu1A Cu 1.58167(6) 0.09296(3) 0.50771(3)
O1A O 1.4982(3) 0.16648(16) 0.58794(14)
O2A O 1.5408(3) 0.19685(15) 0.71052(13)
N1A N 1.7323(3) 0.04363(18) 0.58814(16)
C1A C 1.5738(4) 0.1568(2) 0.6509(2)
C2A C 1.7145(4) 0.0894(2) 0.6537(2)
C3A C 1.8169(4) 0.0725(2) 0.7128(2)
H1A H 1.8034 0.1037 0.7572
C4A C 1.9401(5) 0.0092(3) 0.7067(2)
H2A H 2.0120 -0.0023 0.7464
C5A C 1.9559(5) -0.0365(3) 0.6420(2)
H3A H 2.0383 -0.0803 0.6375
C6A C 1.8514(4) -0.0184(2) 0.5835(2)
H4A H 1.8637 -0.0502 0.5394
O3A O 1.6591(3) 0.01526(17) 0.42924(14)
O4A O 1.6769(3) 0.01528(18) 0.29699(15)
N2A N 1.4521(3) 0.15216(19) 0.42053(17)
C7A C 1.6234(4) 0.0469(2) 0.3574(2)
C8A C 1.5041(4) 0.1268(2) 0.3495(2)
C9A C 1.4454(5) 0.1677(3) 0.2791(2)
H5A H 1.4841 0.1498 0.2304
C10A C 1.3278(5) 0.2358(3) 0.2808(2)
H6A H 1.2883 0.2656 0.2330
C11A C 1.2688(5) 0.2599(3) 0.3532(3)
H7A H 1.1863 0.3041 0.3554
C12A C 1.3357(4) 0.2166(2) 0.4229(2)
H8A H 1.2984 0.2329 0.4724
O5A O 1.0674(3) 0.43121(17) 0.60115(14)
O6A O 1.2683(3) 0.34641(16) 0.65448(14)
N3A N 1.2134(3) 0.46907(18) 0.46125(17)
C13A C 1.2044(4) 0.3968(2) 0.5991(2)
C14A C 1.2942(4) 0.4164(2) 0.5203(2)
C15A C 1.4470(4) 0.3862(2) 0.5061(2)
H9A H 1.5018 0.3509 0.5470
C16A C 1.5181(5) 0.4088(3) 0.4303(2)
H10A H 1.6205 0.3885 0.4194
C17A C 1.4336(5) 0.4616(3) 0.3721(2)
H11A H 1.4795 0.4790 0.3214
C18A C 1.2818(5) 0.4888(3) 0.3883(2)
H12A H 1.2248 0.5220 0.3472
Cu3_2 Cu 1.0000 0.5000 1.0000
O7A O 1.1052(3) 0.41232(15) 0.93366(14)
O7A_2 O 1.1052(3) 0.41232(15) -0.06634(14)
O8A O 1.2081(3) 0.40398(15) 0.80945(14)
N4A N 1.0415(3) 0.58901(18) 0.90281(16)
N4A_2 N 1.0415(3) 0.58901(18) -0.09719(16)
C19A C 1.1450(4) 0.4467(2) 0.8623(2)
C20A C 1.1114(4) 0.5488(2) 0.8422(2)
C21A C 1.1445(5) 0.5964(3) 0.7684(2)
H13A H 1.1911 0.5665 0.7271
C22A C 1.1082(5) 0.6887(3) 0.7559(3)
H14A H 1.1311 0.7224 0.7062
C23A C 1.0373(5) 0.7310(3) 0.8180(2)
H15A H 1.0123 0.7936 0.8110
C24A C 1.0038(4) 0.6784(2) 0.8911(2)
H16A H 0.9539 0.7063 0.9328
Cu4_2 Cu 1.0000 0.0000 1.0000
O9A O 1.0949(3) 0.07936(16) 0.91084(14)
O9A_2 O 1.0949(3) 1.07936(16) -0.08916(14)
O10A O 1.0767(3) 0.22169(16) 0.84593(14)
N5A N 0.8625(3) 0.11114(19) 1.01080(18)
N5A_2 N 0.8625(3) 1.11114(19) 0.01080(18)
C25A C 1.0317(4) 0.1596(2) 0.8978(2)
C26A C 0.8941(4) 0.1818(2) 0.9529(2)
C27A C 0.8105(4) 0.2651(3) 0.9472(2)
H17A H 0.8348 0.3120 0.9069
C28A C 0.6888(4) 0.2777(3) 1.0031(2)
H18A H 0.6292 0.3331 1.0006
C29A C 0.6584(5) 0.2075(3) 1.0615(2)
H19A H 0.5783 0.2150 1.0999
C30A C 0.74653(5) 0.12483(3) 1.06389(3)
H20A H 0.7236 0.0774 1.1040
O11A O 1.34778(5) 0.26805(3) 0.92507(3)
O12A O 1.39069(5) 0.11134(3) 0.84605(3)
O13A O 1.53529(5) 0.34992(3) 0.78288(3)
O14A O 1.20559(5) 0.16329(3) 0.69698(3)
O15 O 0.16345(5) 0.68894(3) 0.26674(3)
Cl1 Cl 0.89408(5) 0.26467(3) 0.50138(3)
O16 O 0.78917(5) 0.28929(3) 0.56484(3)
O17 O 0.93524(5) 0.34468(3) 0.45066(3)
O18 O 1.02772(5) 0.21575(3) 0.53332(3)
O19 O 0.81775(5) 0.21058(3) 0.45339(3)
Cl2 Cl 0.70397(5) 0.92459(3) -0.09449(3)
O20 O 0.60369(5) 0.96326(3) -0.15635(3)
O21 O 0.84674(5) 0.96085(3) -0.10602(3)
O22 O 0.63383(5) 0.93551(3) -0.01840(3)
O23 O 0.72670(5) 0.82938(3) -0.09690(3)
Cl3 Cl 1.34468(5) 0.46288(3) 0.11913(3)
O24 O 1.37808(5) 0.37560(3) 0.09756(3)
O25 O 1.25518(5) 0.51673(3) 0.05830(3)
O26 O 1.48320(5) 0.50542(3) 0.12481(3)
O27 O 1.25592(5) 0.45603(3) 0.19365(3)
loop_
_geom_bond_atom_site_label_1
_geom_bond_atom_site_label_2
_geom_bond_site_symmetry_1
_geom_bond_site_symmetry_2
Eu1 O2 1_555 1_555
Cu1 O1 1_555 1_555
O1 C1 1_555 1_555
O2 C1 1_555 1_555
N1 Cu1 1_555 1_555
C1 C2 1_555 1_555
C2 N1 1_555 1_555
C3 C2 1_555 1_555
H1 C3 1_555 1_555
C4 C3 1_555 1_555
H2 C4 1_555 1_555
C5 C4 1_555 1_555
H3 C5 1_555 1_555
C6 N1 1_555 1_555
H4 C6 1_555 1_555
O3 Cu1 1_555 1_555
O4 C7 1_555 1_555
N2 Cu1 1_555 1_555
C7 O3 1_555 1_555
C8 N2 1_555 1_555
C9 C8 1_555 1_555
H5 C9 1_555 1_555
C10 C9 1_555 1_555
H6 C10 1_555 1_555
C11 C10 1_555 1_555
H7 C11 1_555 1_555
C12 N2 1_555 1_555
H8 C12 1_555 1_555
Cu2 O5 1_555 1_555
O5 C13 1_555 1_555
O6 Eu1 1_555 1_555
N3 Cu2 1_555 1_555
C13 O6 1_555 1_555
C14 N3 1_555 1_555
C15 C14 1_555 1_555
H9 C15 1_555 1_555
C16 C15 1_555 1_555
H10 C16 1_555 1_555
C17 C16 1_555 1_555
H11 C17 1_555 1_555
C18 N3 1_555 1_555
H12 C18 1_555 1_555
Cu3 O7 1_555 1_555
O7 C19 1_555 1_555
O8 Eu1 1_555 1_555
N4 Cu3 1_555 1_555
C19 O8 1_555 1_555
C20 N4 1_555 1_555
C21 C20 1_555 1_555
H13 C21 1_555 1_555
C22 C21 1_555 1_555
H14 C22 1_555 1_555
C23 C22 1_555 1_555
H15 C23 1_555 1_555
C24 N4 1_555 1_555
H16 C24 1_555 1_555
Cu4 O9 1_555 1_555
O9 C25 1_555 1_555
O10 Eu1 1_555 1_555
N5 Cu4 1_555 1_555
C25 O10 1_555 1_555
C26 N5 1_555 1_555
C27 C26 1_555 1_555
H17 C27 1_555 1_555
C28 C27 1_555 1_555
H18 C28 1_555 1_555
C29 C28 1_555 1_555
H19 C29 1_555 1_555
C30 N5 1_555 1_555
H20 C30 1_555 1_555
O11 Eu1 1_555 1_555
O12 Eu1 1_555 1_555
O13 Eu1 1_555 1_555
O14 Eu1 1_555 1_555
Cl1 O16 1_555 1_555
O17 Cl1 1_555 1_555
O18 Cl1 1_555 1_555
O19 Cl1 1_555 1_555
Cl2 O20 1_555 1_555
O21 Cl2 1_555 1_555
O22 Cl2 1_555 1_555
O23 Cl2 1_555 1_555
Cl3 O24 1_555 1_555
O25 Cl3 1_555 1_555
O26 Cl3 1_555 1_555
O27 Cl3 1_555 1_555
Eu1A O2A 1_555 1_555
Cu1A O1A 1_555 1_555
O1A C1A 1_555 1_555
O2A C1A 1_555 1_555
N1A Cu1A 1_555 1_555
C1A C2A 1_555 1_555
C2A N1A 1_555 1_555
C3A C2A 1_555 1_555
H1A C3A 1_555 1_555
C4A C3A 1_555 1_555
H2A C4A 1_555 1_555
C5A C4A 1_555 1_555
H3A C5A 1_555 1_555
C6A N1A 1_555 1_555
H4A C6A 1_555 1_555
O3A Cu1A 1_555 1_555
O4A C7A 1_555 1_555
N2A Cu1A 1_555 1_555
C7A O3A 1_555 1_555
C8A N2A 1_555 1_555
C9A C8A 1_555 1_555
H5A C9A 1_555 1_555
C10A C9A 1_555 1_555
H6A C10A 1_555 1_555
C11A C10A 1_555 1_555
H7A C11A 1_555 1_555
C12A N2A 1_555 1_555
H8A C12A 1_555 1_555
O5A Cu2 1_555 1_555
O6A Eu1A 1_555 1_555
N3A Cu2 1_555 1_555
C13A O5A 1_555 1_555
C14A N3A 1_555 1_555
C15A C14A 1_555 1_555
H9A C15A 1_555 1_555
C16A C15A 1_555 1_555
H10A C16A 1_555 1_555
C17A C16A 1_555 1_555
H11A C17A 1_555 1_555
C18A N3A 1_555 1_555
H12A C18A 1_555 1_555
Cu3_2 O7A 1_555 1_555
O7A C19A 1_555 1_555
O7A_2 Cu3 1_555 1_555
O8A Eu1A 1_555 1_555
N4A Cu3_2 1_555 1_555
N4A_2 Cu3 1_555 1_555
C19A O8A 1_555 1_555
C20A N4A 1_555 1_555
C21A C20A 1_555 1_555
H13A C21A 1_555 1_555
C22A C21A 1_555 1_555
H14A C22A 1_555 1_555
C23A C22A 1_555 1_555
H15A C23A 1_555 1_555
C24A N4A 1_555 1_555
H16A C24A 1_555 1_555
Cu4_2 O9A 1_555 1_555
O9A C25A 1_555 1_555
O9A_2 Cu4 1_555 1_555
O10A Eu1A 1_555 1_555
N5A Cu4_2 1_555 1_555
N5A_2 Cu4 1_555 1_555
C25A O10A 1_555 1_555
C26A N5A 1_555 1_555
C27A C26A 1_555 1_555
H17A C27A 1_555 1_555
C28A C27A 1_555 1_555
H18A C28A 1_555 1_555
C29A C28A 1_555 1_555
H19A C29A 1_555 1_555
C30A N5A 1_555 1_555
H20A C30A 1_555 1_555
O11A Eu1A 1_555 1_555
O12A Eu1A 1_555 1_555
O13A Eu1A 1_555 1_555
O14A Eu1A 1_555 1_555
C5 C6 1_555 1_555
C7 C8 1_555 1_555
C11 C12 1_555 1_555
C13 C14 1_555 1_555
C17 C18 1_555 1_555
C19 C20 1_555 1_555
C23 C24 1_555 1_555
C25 C26 1_555 1_555
C29 C30 1_555 1_555
C5A C6A 1_555 1_555
C7A C8A 1_555 1_555
C11A C12A 1_555 1_555
O6A C13A 1_555 1_555
C13A C14A 1_555 1_555
C17A C18A 1_555 1_555
C19A C20A 1_555 1_555
C23A C24A 1_555 1_555
C25A C26A 1_555 1_555
C29A C30A 1_555 1_555

#END
