
#######################################################################
#
#                 Cambridge Crystallographic Data Centre
#                                CCDC 
#
#######################################################################
#
# If this CIF has been generated from an entry in the Cambridge 
# Structural Database, then it will include bibliographic, chemical, 
# crystal, experimental, refinement or atomic coordinate data resulting 
# from the CCDC's data processing and validation procedures.
#
#######################################################################

data_CAQGAD
_symmetry_cell_setting           monoclinic
_symmetry_space_group_name_H-M   'P 21/c'
_symmetry_Int_Tables_number      14
_space_group_name_Hall           '-P 2ybc'
loop_
_symmetry_equiv_pos_site_id
_symmetry_equiv_pos_as_xyz
1 x,y,z
2 -x,1/2+y,1/2-z
3 -x,-y,-z
4 x,1/2-y,1/2+z
_cell_length_a                   10.514(2)
_cell_length_b                   22.311(5)
_cell_length_c                   25.781(5)
_cell_angle_alpha                90
_cell_angle_beta                 96.35(3)
_cell_angle_gamma                90
_cell_volume                     6010.55
loop_
_atom_site_label
_atom_site_type_symbol
_atom_site_fract_x
_atom_site_fract_y
_atom_site_fract_z
Nd1 Nd 0.323694(14) 0.343696(7) 0.186053(6)
Cu1 Cu -0.18316(3) 0.327300(19) 0.179820(14)
O1 O 0.00280(19) 0.32493(10) 0.18964(8)
O2 O 0.16906(18) 0.32416(10) 0.25122(9)
N1 N -0.1648(2) 0.33375(11) 0.25659(9)
C1 C 0.0508(3) 0.32503(13) 0.23692(12)
C2 C -0.0415(3) 0.32720(13) 0.27702(12)
C3 C -0.0076(3) 0.32159(16) 0.32971(13)
H1 H 0.0777 0.3175 0.3433
C4 C -0.1040(4) 0.32218(19) 0.36211(14)
H2 H -0.0839 0.3180 0.3980
C5 C -0.2276(3) 0.32878(19) 0.34184(14)
H3 H -0.2926 0.3294 0.3635
C6 C -0.2555(3) 0.33461(17) 0.28870(13)
H4 H -0.3404 0.3393 0.2748
O3 O 0.63042(19) 0.32675(11) 0.17308(8)
O4 O 0.46049(19) 0.29772(10) 0.12121(9)
N2 N 0.7903(2) 0.29243(11) 0.10857(10)
C7 C 0.5767(3) 0.30384(13) 0.13112(12)
C8 C 0.6655(3) 0.28387(14) 0.09211(12)
C9 C 0.6235(3) 0.25931(16) 0.04480(13)
H5 H 0.5368 0.2541 0.0343
C10 C 0.7162(4) 0.24227(18) 0.01287(14)
H6 H 0.6915 0.2255 -0.0197
C11 C 0.8432(3) 0.25014(18) 0.02943(13)
H7 H 0.9053 0.2382 0.0085
C12 C 0.8778(3) 0.27589(16) 0.07737(13)
H8 H 0.9641 0.2820 0.0884
O5 O 0.1807(2) 0.42849(10) 0.18127(10)
C13 C 0.1586(3) 0.47659(15) 0.20308(13)
N3 N 0.2514(3) 0.50908(14) 0.22878(16)
H9 H 0.3295 0.4970 0.2307
H10 H 0.2334 0.5421 0.2435
N4 N 0.0418(3) 0.49727(15) 0.20186(16)
H11 H -0.0211 0.4776 0.1858
H12 H 0.0279 0.5306 0.2171
O8 O 0.2242(2) 0.25068(10) 0.16114(9)
N6 N 0.1150(3) 0.16678(15) 0.13806(14)
H17 H 0.0935 0.1625 0.1691
H18 H 0.0900 0.1411 0.1142
N7 N 0.2146(4) 0.21795(16) 0.07872(13)
H19 H 0.2595 0.2477 0.0698
H20 H 0.1878 0.1913 0.0560
C20 C 0.1872(3) 0.21313(15) 0.12702(13)
O11 O 0.4338(2) 0.27321(10) 0.24508(9)
N9 N 0.3078(3) 0.19922(14) 0.26976(13)
H25 H 0.2453 0.2237 0.2717
H26 H 0.2988 0.1619 0.2769
N10 N 0.5130(3) 0.18040(14) 0.25602(14)
H27 H 0.5867 0.1924 0.2488
H28 H 0.5014 0.1433 0.2634
C27 C 0.4174(3) 0.21890(14) 0.25582(11)
O14 O 0.4201(2) 0.40177(10) 0.25874(8)
N12 N 0.3876(3) 0.36417(16) 0.33776(12)
H33 H 0.3407 0.3357 0.3237
H34 H 0.4016 0.3668 0.3712
N13 N 0.5051(4) 0.44762(17) 0.33137(12)
H35 H 0.5369 0.4749 0.3131
H36 H 0.5174 0.4491 0.3649
C34 C 0.4380(3) 0.40376(15) 0.30815(13)
O29 O 0.23520(4) 0.362933(19) 0.091455(17)
O30 O 0.44673(4) 0.430210(19) 0.151915(17)
O31 O -0.16473(4) 0.424340(19) 0.139960(17)
Cu1_2 Cu 0.81684(3) 0.327300(19) 0.179820(14)
O3_2 O -0.36958(19) 0.32675(11) 0.17308(8)
N2_2 N -0.2097(2) 0.29243(11) 0.10857(10)
Cu2 Cu 0.23752(4) 0.494309(18) -0.002490(14)
O6 O 0.1109(2) 0.46908(10) 0.04340(8)
O7 O -0.0765(2) 0.42070(11) 0.03941(9)
N5 N 0.1541(2) 0.43350(11) -0.04927(10)
C14 C 0.0245(3) 0.43433(14) 0.02175(12)
C15 C 0.0510(3) 0.40842(14) -0.03062(12)
C16 C -0.0224(4) 0.36525(16) -0.05734(14)
H13 H -0.0925 0.3487 -0.0435
C17 C 0.0104(4) 0.34710(17) -0.10502(16)
H14 H -0.0376 0.3177 -0.1238
C18 C 0.1130(4) 0.37199(16) -0.12503(15)
H15 H 0.1345 0.3603 -0.1576
C19 C 0.1845(4) 0.41483(16) -0.09620(13)
H16 H 0.2555 0.4313 -0.1095
O9 O 0.3629(2) 0.52145(11) -0.04759(8)
O10 O 0.5333(3) 0.58069(12) -0.04735(10)
N8 N 0.3243(2) 0.55142(13) 0.04675(10)
C21 C 0.4428(3) 0.56037(15) -0.02732(13)
C22 C 0.4186(3) 0.58103(15) 0.02708(12)
C23 C 0.4870(3) 0.62634(16) 0.05341(14)
H21 H 0.5511 0.6465 0.0384
C24 C 0.4583(4) 0.64102(19) 0.10241(15)
H22 H 0.5027 0.6715 0.1212
C25 C 0.3622(4) 0.6099(2) 0.12381(15)
H23 H 0.3424 0.6190 0.1572
C26 C 0.2967(3) 0.56558(19) 0.09515(13)
H24 H 0.2320 0.5449 0.1094
Cu3 Cu 0.29971(3) 0.075294(18) -0.009915(15)
O12 O 0.17129(19) 0.09396(11) 0.03456(9)
O13 O -0.0390(2) 0.10379(14) 0.03391(11)
N11 N 0.1535(2) 0.05198(12) -0.06021(10)
C28 C 0.0545(3) 0.08836(15) 0.01298(14)
C29 C 0.0415(3) 0.06087(14) -0.04105(13)
C30 C -0.0732(3) 0.04706(16) -0.06897(15)
H29 H -0.1497 0.0545 -0.0551
C31 C -0.0735(4) 0.0221(2) -0.11780(17)
H30 H -0.1503 0.0120 -0.1373
C32 C 0.0407(4) 0.0122(2) -0.13724(16)
H31 H 0.0427 -0.0055 -0.1698
C33 C 0.1524(3) 0.02890(17) -0.10800(14)
H32 H 0.2296 0.0240 -0.1220
O15 O 0.4296(2) 0.06010(12) -0.05445(9)
O16 O 0.6367(2) 0.0675(2) -0.05700(12)
N14 N 0.4444(2) 0.08783(12) 0.04379(10)
C35 C 0.5440(3) 0.0700(2) -0.03388(14)
C36 C 0.5575(3) 0.08496(15) 0.02374(13)
C37 C 0.6711(3) 0.09682(17) 0.05241(14)
H37 H 0.7472 0.0964 0.0372
C38 C 0.6704(4) 0.1095(2) 0.10505(15)
H38 H 0.7467 0.1171 0.1259
C39 C 0.5576(4) 0.1109(2) 0.12591(16)
H39 H 0.5565 0.1195 0.1612
C40 C 0.44344(4) 0.099520(19) 0.094690(17)
H40 H 0.3663 0.1000 0.1092
Cl1 Cl 0.26795(4) 0.268843(19) 0.447447(17)
O17 O 0.34899(4) 0.313799(19) 0.465460(17)
O18 O 0.28865(4) 0.219037(19) 0.480441(17)
O19 O 0.27709(4) 0.253170(19) 0.394687(17)
O20 O 0.13663(4) 0.290150(19) 0.451858(17)
Cl2 Cl 0.87668(4) 0.165706(19) 0.238805(17)
O21 O 0.81763(4) 0.159430(19) 0.284538(17)
O22 O 0.80075(4) 0.203422(19) 0.203163(17)
O23 O 0.89123(4) 0.108664(19) 0.215677(17)
O24 O 0.99968(4) 0.192078(19) 0.251867(17)
Cl3 Cl 0.68582(4) 0.529171(19) 0.235803(17)
O25 O 0.65312(4) 0.503164(19) 0.189285(17)
O26 O 0.72369(4) 0.475494(19) 0.254186(17)
O27 O 0.58363(4) 0.549646(19) 0.257262(17)
O28 O 0.78325(4) 0.568454(19) 0.229210(17)
loop_
_geom_bond_atom_site_label_1
_geom_bond_atom_site_label_2
_geom_bond_site_symmetry_1
_geom_bond_site_symmetry_2
Nd1 O2 1_555 1_555
Cu1 O1 1_555 1_555
O1 C1 1_555 1_555
O2 C1 1_555 1_555
N1 Cu1 1_555 1_555
C1 C2 1_555 1_555
C2 N1 1_555 1_555
C3 C2 1_555 1_555
H1 C3 1_555 1_555
C4 C3 1_555 1_555
H2 C4 1_555 1_555
C5 C4 1_555 1_555
H3 C5 1_555 1_555
C6 N1 1_555 1_555
H4 C6 1_555 1_555
O3 C7 1_555 1_555
O4 Nd1 1_555 1_555
N2 C8 1_555 1_555
C7 O4 1_555 1_555
C8 C7 1_555 1_555
C9 C8 1_555 1_555
H5 C9 1_555 1_555
C10 C9 1_555 1_555
H6 C10 1_555 1_555
C11 C10 1_555 1_555
H7 C11 1_555 1_555
C12 N2 1_555 1_555
H8 C12 1_555 1_555
O5 Nd1 1_555 1_555
C13 O5 1_555 1_555
N3 C13 1_555 1_555
H9 N3 1_555 1_555
H10 N3 1_555 1_555
N4 C13 1_555 1_555
H11 N4 1_555 1_555
H12 N4 1_555 1_555
Cu2 O6 1_555 1_555
O6 C14 1_555 1_555
O7 C14 1_555 1_555
N5 Cu2 1_555 1_555
C14 C15 1_555 1_555
C15 N5 1_555 1_555
C16 C15 1_555 1_555
H13 C16 1_555 1_555
C17 C16 1_555 1_555
H14 C17 1_555 1_555
C18 C17 1_555 1_555
H15 C18 1_555 1_555
C19 N5 1_555 1_555
H16 C19 1_555 1_555
O8 Nd1 1_555 1_555
N6 H17 1_555 1_555
H18 N6 1_555 1_555
N7 H19 1_555 1_555
H20 N7 1_555 1_555
C20 O8 1_555 1_555
O9 Cu2 1_555 1_555
O10 C21 1_555 1_555
N8 Cu2 1_555 1_555
C21 O9 1_555 1_555
C22 N8 1_555 1_555
C23 C22 1_555 1_555
H21 C23 1_555 1_555
C24 C23 1_555 1_555
H22 C24 1_555 1_555
C25 C24 1_555 1_555
H23 C25 1_555 1_555
C26 N8 1_555 1_555
H24 C26 1_555 1_555
O11 Nd1 1_555 1_555
N9 H25 1_555 1_555
H26 N9 1_555 1_555
N10 H27 1_555 1_555
H28 N10 1_555 1_555
C27 O11 1_555 1_555
Cu3 O12 1_555 1_555
O12 C28 1_555 1_555
O13 C28 1_555 1_555
N11 Cu3 1_555 1_555
C28 C29 1_555 1_555
C29 N11 1_555 1_555
C30 C29 1_555 1_555
H29 C30 1_555 1_555
C31 C30 1_555 1_555
H30 C31 1_555 1_555
C32 C31 1_555 1_555
H31 C32 1_555 1_555
C33 N11 1_555 1_555
H32 C33 1_555 1_555
O14 Nd1 1_555 1_555
N12 H33 1_555 1_555
H34 N12 1_555 1_555
N13 H35 1_555 1_555
H36 N13 1_555 1_555
C34 O14 1_555 1_555
O15 Cu3 1_555 1_555
O16 C35 1_555 1_555
N14 Cu3 1_555 1_555
C35 O15 1_555 1_555
C36 N14 1_555 1_555
C37 C36 1_555 1_555
H37 C37 1_555 1_555
C38 C37 1_555 1_555
H38 C38 1_555 1_555
C39 C38 1_555 1_555
H39 C39 1_555 1_555
C40 N14 1_555 1_555
H40 C40 1_555 1_555
Cl1 O17 1_555 1_555
O18 Cl1 1_555 1_555
O19 Cl1 1_555 1_555
O20 Cl1 1_555 1_555
Cl2 O21 1_555 1_555
O22 Cl2 1_555 1_555
O23 Cl2 1_555 1_555
O24 Cl2 1_555 1_555
Cl3 O25 1_555 1_555
O26 Cl3 1_555 1_555
O27 Cl3 1_555 1_555
O28 Cl3 1_555 1_555
O29 Nd1 1_555 1_555
O30 Nd1 1_555 1_555
O31 Cu1 1_555 1_555
Cu1_2 O3 1_555 1_555
O3_2 Cu1 1_555 1_555
N2_2 Cu1 1_555 1_555
C5 C6 1_555 1_555
N2 Cu1_2 1_555 1_555
C11 C12 1_555 1_555
C18 C19 1_555 1_555
N6 C20 1_555 1_555
N7 C20 1_555 1_555
C21 C22 1_555 1_555
C25 C26 1_555 1_555
N9 C27 1_555 1_555
N10 C27 1_555 1_555
C32 C33 1_555 1_555
N12 C34 1_555 1_555
N13 C34 1_555 1_555
C35 C36 1_555 1_555
C39 C40 1_555 1_555

#END
