
#######################################################################
#
#                 Cambridge Crystallographic Data Centre
#                                CCDC 
#
#######################################################################
#
# If this CIF has been generated from an entry in the Cambridge 
# Structural Database, then it will include bibliographic, chemical, 
# crystal, experimental, refinement or atomic coordinate data resulting 
# from the CCDC's data processing and validation procedures.
#
#######################################################################

data_CAQMUE
_symmetry_cell_setting           monoclinic
_symmetry_space_group_name_H-M   'P 21/c'
_symmetry_Int_Tables_number      14
_space_group_name_Hall           '-P 2ybc'
loop_
_symmetry_equiv_pos_site_id
_symmetry_equiv_pos_as_xyz
1 x,y,z
2 -x,1/2+y,1/2-z
3 -x,-y,-z
4 x,1/2-y,1/2+z
_cell_length_a                   14.6291(13)
_cell_length_b                   11.2293(10)
_cell_length_c                   17.3085(15)
_cell_angle_alpha                90
_cell_angle_beta                 107.402(2)
_cell_angle_gamma                90
_cell_volume                     2713.21
loop_
_atom_site_label
_atom_site_type_symbol
_atom_site_fract_x
_atom_site_fract_y
_atom_site_fract_z
Cu1 Cu 0.25473(3) -0.36619(4) -0.15911(3)
Br1 Br 0.26359(3) -0.58470(4) -0.15878(3)
C1 C 0.0894(3) -0.3914(4) -0.1079(2)
H1 H 0.0872 -0.4617 -0.1368
C2 C 0.0149(3) -0.3672(5) -0.0776(3)
H2 H -0.0367 -0.4190 -0.0861
C3 C 0.0190(3) -0.2640(5) -0.0344(3)
H3 H -0.0304 -0.2447 -0.0131
C4 C 0.0959(3) -0.1894(4) -0.0227(3)
H4 H 0.0988 -0.1188 0.0060
C5 C 0.1697(3) -0.2199(3) -0.0541(2)
C6 C 0.3435(3) -0.1939(4) -0.0328(2)
C7 C 0.4074(3) -0.1221(4) -0.0549(3)
H5 H 0.3896 -0.0479 -0.0784
C8 C 0.4999(4) -0.1658(6) -0.0405(4)
H6 H 0.5462 -0.1200 -0.0535
C9 C 0.5227(4) -0.2772(7) -0.0068(4)
H7 H 0.5842 -0.3081 0.0034
C10 C 0.4536(4) -0.3396(5) 0.0109(3)
H8 H 0.4692 -0.4148 0.0334
C11 C 0.2490(3) -0.0326(3) -0.0050(2)
C12 C 0.2061(3) 0.0629(4) -0.0518(2)
H9 H 0.1783 0.0533 -0.1072
C13 C 0.2041(3) 0.1739(3) -0.0164(2)
H10 H 0.1756 0.2380 -0.0487
C14 C 0.2441(3) 0.1903(3) 0.0667(2)
C15 C 0.2870(3) 0.0926(3) 0.1125(2)
H11 H 0.3140 0.1013 0.1681
C16 C 0.2904(3) -0.0172(3) 0.0774(2)
H12 H 0.3206 -0.0809 0.1092
C17 C 0.2420(2) 0.3084(3) 0.1045(2)
C18 C 0.2471(3) 0.3181(3) 0.1863(2)
H13 H 0.2482 0.2492 0.2164
C19 C 0.2503(3) 0.4279(3) 0.2232(2)
H14 H 0.2560 0.4320 0.2781
C20 C 0.2453(3) 0.5306(3) 0.1795(2)
C21 C 0.2366(3) 0.5231(4) 0.0977(2)
H15 H 0.2311 0.5923 0.0671
C22 C 0.2359(3) 0.4137(3) 0.0611(2)
H16 H 0.2313 0.4104 0.0064
C23 C 0.3353(3) 0.7109(3) 0.2349(2)
C24 C 0.4113(3) 0.6735(4) 0.2074(3)
H17 H 0.4058 0.6041 0.1770
C25 C 0.4934(3) 0.7391(4) 0.2254(3)
H18 H 0.5445 0.7144 0.2078
C26 C 0.5001(3) 0.8423(4) 0.2699(3)
H19 H 0.5549 0.8894 0.2820
C27 C 0.4243(3) 0.8730(4) 0.2953(3)
H20 H 0.4287 0.9429 0.3250
C28 C 0.1606(3) 0.6962(3) 0.2169(2)
C29 C 0.1017(2) 0.6256(3) 0.2398(2)
H21 H 0.1201 0.5488 0.2581
C30 C 0.0162(3) 0.6666(5) 0.2361(3)
H22 H -0.0255 0.6161 0.2517
C31 C -0.0149(3) 0.7781(5) 0.2110(3)
H23 H -0.0753 0.8039 0.2109
C32 C 0.0452(3) 0.8514(4) 0.1858(3)
H24 H 0.0249 0.9273 0.1667
N1 N 0.1656(2) -0.3192(3) -0.09820(18)
N2 N 0.2504(2) -0.1477(3) -0.04093(18)
N3 N 0.3640(3) -0.3017(3) -0.0015(2)
N4 N 0.2503(2) 0.6462(3) 0.21728(19)
N5 N 0.3432(2) 0.8093(3) 0.28064(18)
N6 N 0.1375(3) 0.8125(4) 0.1887(2)
Cu1C Cu 0.25473(3) 0.86619(4) 0.34089(3)
N5C N 0.3432(2) -0.3093(3) -0.21936(18)
loop_
_geom_bond_atom_site_label_1
_geom_bond_atom_site_label_2
_geom_bond_site_symmetry_1
_geom_bond_site_symmetry_2
Cu1 Br1 1_555 1_555
C1 H1 1_555 1_555
C2 C1 1_555 1_555
H2 C2 1_555 1_555
C3 C2 1_555 1_555
H3 C3 1_555 1_555
C4 C3 1_555 1_555
H4 C4 1_555 1_555
C5 C4 1_555 1_555
C6 C7 1_555 1_555
C7 H5 1_555 1_555
C8 C7 1_555 1_555
H6 C8 1_555 1_555
C9 C8 1_555 1_555
H7 C9 1_555 1_555
C10 C9 1_555 1_555
H8 C10 1_555 1_555
C11 C12 1_555 1_555
C12 H9 1_555 1_555
C13 C12 1_555 1_555
H10 C13 1_555 1_555
C14 C13 1_555 1_555
C15 C14 1_555 1_555
H11 C15 1_555 1_555
C16 C11 1_555 1_555
H12 C16 1_555 1_555
C17 C14 1_555 1_555
C18 C17 1_555 1_555
H13 C18 1_555 1_555
C19 C18 1_555 1_555
H14 C19 1_555 1_555
C20 C19 1_555 1_555
C21 C20 1_555 1_555
H15 C21 1_555 1_555
C22 C17 1_555 1_555
H16 C22 1_555 1_555
C23 C24 1_555 1_555
C24 H17 1_555 1_555
C25 C24 1_555 1_555
H18 C25 1_555 1_555
C26 C25 1_555 1_555
H19 C26 1_555 1_555
C27 C26 1_555 1_555
H20 C27 1_555 1_555
C28 C29 1_555 1_555
C29 H21 1_555 1_555
C30 C29 1_555 1_555
H22 C30 1_555 1_555
C31 C30 1_555 1_555
H23 C31 1_555 1_555
C32 C31 1_555 1_555
H24 C32 1_555 1_555
N1 Cu1 1_555 1_555
N2 C5 1_555 1_555
N3 C6 1_555 1_555
N4 C20 1_555 1_555
N5 C23 1_555 1_555
N6 C28 1_555 1_555
Cu1C N5 1_555 1_555
N5C Cu1 1_555 1_555
C1 N1 1_555 1_555
C5 N1 1_555 1_555
C6 N2 1_555 1_555
C10 N3 1_555 1_555
C11 N2 1_555 1_555
C15 C16 1_555 1_555
C21 C22 1_555 1_555
C23 N4 1_555 1_555
C27 N5 1_555 1_555
C28 N4 1_555 1_555
C32 N6 1_555 1_555

#END
