
#######################################################################
#
#                 Cambridge Crystallographic Data Centre
#                                CCDC 
#
#######################################################################
#
# If this CIF has been generated from an entry in the Cambridge 
# Structural Database, then it will include bibliographic, chemical, 
# crystal, experimental, refinement or atomic coordinate data resulting 
# from the CCDC's data processing and validation procedures.
#
#######################################################################

data_CAQMIS
_symmetry_cell_setting           monoclinic
_symmetry_space_group_name_H-M   'P 21/c'
_symmetry_Int_Tables_number      14
_space_group_name_Hall           '-P 2ybc'
loop_
_symmetry_equiv_pos_site_id
_symmetry_equiv_pos_as_xyz
1 x,y,z
2 -x,1/2+y,1/2-z
3 -x,-y,-z
4 x,1/2-y,1/2+z
_cell_length_a                   12.3130(9)
_cell_length_b                   17.5191(12)
_cell_length_c                   7.3772(5)
_cell_angle_alpha                90
_cell_angle_beta                 104.2390(10)
_cell_angle_gamma                90
_cell_volume                     1542.47
loop_
_atom_site_label
_atom_site_type_symbol
_atom_site_fract_x
_atom_site_fract_y
_atom_site_fract_z
Br1 Br 0.59145(6) 1.23244(4) 0.06617(10)
Br2 Br 0.88536(5) 1.18658(4) -0.02609(9)
Br3 Br 0.78398(5) 1.09013(4) 0.45023(9)
C1 C 0.5778(6) 1.0462(4) -0.1753(9)
H1 H 0.5575 1.0973 -0.1926
C2 C 0.5079(5) 0.9923(4) -0.2780(9)
H2 H 0.4403 1.0064 -0.3587
C3 C 0.5401(6) 0.9168(4) -0.2589(9)
H3 H 0.4943 0.8789 -0.3256
C4 C 0.6421(6) 0.8984(4) -0.1382(10)
H4 H 0.6677 0.8483 -0.1278
C5 C 0.7046(5) 0.9554(3) -0.0344(8)
C6 C 0.8114(5) 0.8923(3) 0.2469(8)
C7 C 0.7132(5) 0.8690(4) 0.2935(9)
H5 H 0.6442 0.8843 0.2192
C8 C 0.7166(6) 0.8241(4) 0.4465(9)
H6 H 0.6509 0.8073 0.4742
C9 C 0.8213(6) 0.8039(4) 0.5605(9)
H7 H 0.8275 0.7755 0.6691
C10 C 0.9144(6) 0.8274(4) 0.5056(9)
H8 H 0.9841 0.8136 0.5800
C11 C 0.9073(5) 0.9693(3) 0.0512(8)
C12 C 0.9170(5) 0.9649(4) -0.1333(8)
H9 H 0.8605 0.9418 -0.2237
C13 C 0.9909(5) 1.0055(3) 0.1826(8)
H10 H 0.9848 1.0098 0.3054
Cu1 Cu 0.75421(9) 1.11517(6) 0.11050(13)
Cu2 Cu 0.72119(9) 1.27343(7) -0.12536(16)
Cu3 Cu 0.93925(7) 1.12129(6) -0.27754(12)
N1 N 0.6741(4) 1.0286(3) -0.0508(7)
N2 N 0.8087(4) 0.9389(3) 0.0946(7)
N3 N 0.9119(4) 0.8692(3) 0.3516(7)
Br1C Br 0.59145(6) 1.26756(4) -0.43383(10)
Br1C_2 Br 0.59145(6) 1.26756(4) 0.56617(10)
Br2B Br 1.11464(5) 0.81342(4) 0.02609(9)
Br2C Br 0.88536(5) 1.31342(4) 0.47391(9)
Br2_2 Br 0.88536(5) 1.18658(4) 0.97391(9)
Br3C Br 0.78398(5) 1.40987(4) -0.04977(9)
Br3_2 Br 0.78398(5) 1.09013(4) -0.54977(9)
Br3B Br 1.21602(5) 0.90987(4) -0.45023(9)
C1B C 1.4222(6) 0.9538(4) 0.1753(9)
H1B H 1.4425 0.9027 0.1926
C2B C 1.4921(5) 1.0077(4) 0.2780(9)
H2B H 1.5597 0.9936 0.3587
C3B C 1.4599(6) 1.0832(4) 0.2589(9)
H3B H 1.5057 1.1211 0.3256
C4B C 1.3579(6) 1.1016(4) 0.1382(10)
H4B H 1.3323 1.1517 0.1278
C5B C 1.2954(5) 1.0446(3) 0.0344(8)
C6B C 1.1886(5) 1.1077(3) -0.2469(8)
C7B C 1.2868(5) 1.1310(4) -0.2935(9)
H5B H 1.3558 1.1157 -0.2192
C8B C 1.2834(6) 1.1759(4) -0.4465(9)
H6B H 1.3491 1.1927 -0.4742
C9B C 1.1787(6) 1.1961(4) -0.5605(9)
H7B H 1.1725 1.2245 -0.6691
C10B C 1.0856(6) 1.1726(4) -0.5056(9)
H8B H 1.0159 1.1864 -0.5800
C11B C 1.0927(5) 1.0307(3) -0.0512(8)
C12B C 1.0830(5) 1.0351(4) 0.1333(8)
H9B H 1.1395 1.0582 0.2237
C13B C 1.0091(5) 0.9945(3) -0.1826(8)
H10B H 1.0152 0.9902 -0.3054
Cu1B Cu 1.24579(9) 0.88483(6) -0.11050(13)
Cu1C Cu 0.75421(9) 1.38483(6) -0.38950(13)
Cu2C Cu 0.72119(9) 1.22657(7) 0.37464(16)
Cu2C_2 Cu 0.72119(9) 1.22657(7) -0.62536(16)
Cu2B Cu 1.27881(9) 0.72657(7) 0.12536(16)
Cu3_2 Cu 0.93925(7) 1.12129(6) 0.72246(12)
Cu3B Cu 1.06075(7) 0.87871(6) 0.27754(12)
Cu3C Cu 0.93925(7) 1.37871(6) 0.22246(12)
N1B N 1.3259(4) 0.9714(3) 0.0508(7)
N2B N 1.1913(4) 1.0611(3) -0.0946(7)
N3B N 1.0881(4) 1.1308(3) -0.3516(7)
N3B_2 N 1.0881(4) 1.1308(3) 0.6484(7)
loop_
_geom_bond_atom_site_label_1
_geom_bond_atom_site_label_2
_geom_bond_site_symmetry_1
_geom_bond_site_symmetry_2
Br1 Cu2 1_555 1_555
Br2 Cu1 1_555 1_555
Br3 Cu1 1_555 1_555
C1 H1 1_555 1_555
C2 C1 1_555 1_555
H2 C2 1_555 1_555
C3 C2 1_555 1_555
H3 C3 1_555 1_555
C4 C3 1_555 1_555
H4 C4 1_555 1_555
C5 C4 1_555 1_555
C6 C7 1_555 1_555
C7 H5 1_555 1_555
C8 C7 1_555 1_555
H6 C8 1_555 1_555
C9 C8 1_555 1_555
H7 C9 1_555 1_555
C10 C9 1_555 1_555
H8 C10 1_555 1_555
C11 C12 1_555 1_555
C12 H9 1_555 1_555
C13 C11 1_555 1_555
H10 C13 1_555 1_555
Cu1 N1 1_555 1_555
Cu2 Br2 1_555 1_555
Cu3 Br2 1_555 1_555
N1 C1 1_555 1_555
N2 C5 1_555 1_555
N3 C6 1_555 1_555
Br1C Cu2 1_555 1_555
Br1C_2 Cu2C 1_555 1_555
Br2B Cu1B 1_555 1_555
Br2C Cu2C 1_555 1_555
Br2_2 Cu3_2 1_555 1_555
Br3C Cu2 1_555 1_555
Br3_2 Cu3 1_555 1_555
Br3B Cu1B 1_555 1_555
C1B H1B 1_555 1_555
C2B C1B 1_555 1_555
H2B C2B 1_555 1_555
C3B C2B 1_555 1_555
H3B C3B 1_555 1_555
C4B C3B 1_555 1_555
H4B C4B 1_555 1_555
C5B C4B 1_555 1_555
C6B C7B 1_555 1_555
C7B H5B 1_555 1_555
C8B C7B 1_555 1_555
H6B C8B 1_555 1_555
C9B C8B 1_555 1_555
H7B C9B 1_555 1_555
C10B C9B 1_555 1_555
H8B C10B 1_555 1_555
C11B C12B 1_555 1_555
C12B C13 1_555 1_555
H9B C12B 1_555 1_555
C13B C12 1_555 1_555
H10B C13B 1_555 1_555
Cu1B N1B 1_555 1_555
Cu1C Br3C 1_555 1_555
Cu2C Br1 1_555 1_555
Cu2C_2 Br1C 1_555 1_555
Cu2B Br2B 1_555 1_555
Cu3_2 Br3 1_555 1_555
Cu3B N3 1_555 1_555
Cu3C Br2C 1_555 1_555
N1B C1B 1_555 1_555
N2B C5B 1_555 1_555
N3B Cu3 1_555 1_555
N3B_2 Cu3_2 1_555 1_555
Br3 Cu2C 1_555 1_555
C5 N1 1_555 1_555
C6 N2 1_555 1_555
C10 N3 1_555 1_555
C11 N2 1_555 1_555
Br2B Cu3B 1_555 1_555
Br3C Cu3C 1_555 1_555
Br3_2 Cu2C_2 1_555 1_555
C5B N1B 1_555 1_555
C6B N2B 1_555 1_555
C6B N3B 1_555 1_555
C10B N3B 1_555 1_555
C11B C13B 1_555 1_555
C11B N2B 1_555 1_555

#END
