
#######################################################################
#
#                 Cambridge Crystallographic Data Centre
#                                CCDC 
#
#######################################################################
#
# If this CIF has been generated from an entry in the Cambridge 
# Structural Database, then it will include bibliographic, chemical, 
# crystal, experimental, refinement or atomic coordinate data resulting 
# from the CCDC's data processing and validation procedures.
#
#######################################################################

data_CAQMOX
_symmetry_cell_setting           triclinic
_symmetry_space_group_name_H-M   'P -1'
_symmetry_Int_Tables_number      2
_space_group_name_Hall           '-P 1'
loop_
_symmetry_equiv_pos_site_id
_symmetry_equiv_pos_as_xyz
1 x,y,z
2 -x,-y,-z
_cell_length_a                   9.083(6)
_cell_length_b                   10.023(7)
_cell_length_c                   11.325(8)
_cell_angle_alpha                69.469(9)
_cell_angle_beta                 76.003(10)
_cell_angle_gamma                66.717(10)
_cell_volume                     880.488
loop_
_atom_site_label
_atom_site_type_symbol
_atom_site_fract_x
_atom_site_fract_y
_atom_site_fract_z
Bi1 Bi 0.16350(6) 0.78201(4) 0.17873(4)
N1 N 0.4528(11) 0.7689(9) 0.4406(7)
N2 N 0.1176(11) 1.3744(9) 0.1400(7)
N3 N -0.1984(14) 1.0068(12) 0.1287(9)
O1 O 0.6349(9) 0.7839(8) 0.6016(7)
O2 O 0.1855(9) 1.0595(7) 0.1954(6)
O3 O -0.1113(12) 0.9190(11) 0.0615(9)
O4 O -0.1491(10) 0.9769(8) 0.2326(7)
O5 O -0.3168(11) 1.1067(10) 0.0904(8)
S1 S 0.1818(4) 0.7317(4) 0.4298(3)
S2 S 0.4647(4) 0.6959(3) 0.2342(3)
S3 S 0.0310(4) 1.5665(3) 0.2759(2)
S4 S 0.2749(4) 1.5689(3) 0.0512(3)
C1 C 0.3733(14) 0.7334(10) 0.3761(9)
C2 C 0.3719(14) 0.8051(13) 0.5647(9)
C3 C 0.4986(15) 0.7380(13) 0.6549(10)
C4 C 0.7191(14) 0.7337(13) 0.4892(10)
C5 C 0.6046(14) 0.7977(13) 0.3908(11)
C6 C 0.1387(12) 1.4883(10) 0.1548(8)
C7 C 0.2173(15) 1.2929(12) 0.0441(10)
C8 C 0.3040(14) 1.1240(12) 0.1183(11)
C9 C 0.0900(14) 1.1350(11) 0.2913(10)
C10 C -0.0020(13) 1.3042(11) 0.2231(9)
Bi1_2 Bi 0.16350(6) 1.78201(4) 0.17873(4)
S3_2 S 0.0310(4) 0.5665(3) 0.2759(2)
S4_2 S 0.2749(4) 0.5689(3) 0.0512(3)
loop_
_geom_bond_atom_site_label_1
_geom_bond_atom_site_label_2
_geom_bond_site_symmetry_1
_geom_bond_site_symmetry_2
Bi1 O2 1_555 1_555
N1 C1 1_555 1_555
N2 C6 1_555 1_555
N3 O3 1_555 1_555
O1 C3 1_555 1_555
O2 C8 1_555 1_555
O3 Bi1 1_555 1_555
O4 Bi1 1_555 1_555
O5 N3 1_555 1_555
S1 Bi1 1_555 1_555
S2 Bi1 1_555 1_555
S3 C6 1_555 1_555
S4 C6 1_555 1_555
C1 S1 1_555 1_555
C2 N1 1_555 1_555
C3 C2 1_555 1_555
C4 O1 1_555 1_555
C5 N1 1_555 1_555
C7 N2 1_555 1_555
C8 C7 1_555 1_555
C9 O2 1_555 1_555
C10 N2 1_555 1_555
Bi1_2 S3 1_555 1_555
S3_2 Bi1 1_555 1_555
S4_2 Bi1 1_555 1_555
N3 O4 1_555 1_555
S2 C1 1_555 1_555
S4 Bi1_2 1_555 1_555
C4 C5 1_555 1_555
C9 C10 1_555 1_555

#END
