
#######################################################################
#
#                 Cambridge Crystallographic Data Centre
#                                CCDC 
#
#######################################################################
#
# If this CIF has been generated from an entry in the Cambridge 
# Structural Database, then it will include bibliographic, chemical, 
# crystal, experimental, refinement or atomic coordinate data resulting 
# from the CCDC's data processing and validation procedures.
#
#######################################################################

data_CAQMAK
_symmetry_cell_setting           monoclinic
_symmetry_space_group_name_H-M   'P 21/n'
_symmetry_Int_Tables_number      14
_space_group_name_Hall           '-P 2yn'
loop_
_symmetry_equiv_pos_site_id
_symmetry_equiv_pos_as_xyz
1 x,y,z
2 1/2-x,1/2+y,1/2-z
3 -x,-y,-z
4 1/2+x,1/2-y,1/2+z
_cell_length_a                   18.6210(14)
_cell_length_b                   10.0925(8)
_cell_length_c                   18.7696(14)
_cell_angle_alpha                90
_cell_angle_beta                 117.6270(10)
_cell_angle_gamma                90
_cell_volume                     3125.24
loop_
_atom_site_label
_atom_site_type_symbol
_atom_site_fract_x
_atom_site_fract_y
_atom_site_fract_z
C1 C 0.9447(6) 0.3469(10) 0.4346(6)
H1 H 0.9812 0.3637 0.4880
C2 C 0.8709(6) 0.3989(10) 0.4069(6)
H2 H 0.8573 0.4565 0.4374
C3 C 0.8171(5) 0.3623(9) 0.3313(6)
H3 H 0.7636 0.3908 0.3100
C4 C 0.8397(5) 0.2847(9) 0.2862(5)
H4 H 0.8021 0.2596 0.2346
C5 C 0.9184(4) 0.2437(6) 0.3175(4)
C6 C 1.0291(4) 0.1268(6) 0.3034(4)
C7 C 1.0673(4) 0.1442(7) 0.2555(4)
H5 H 1.0402 0.1849 0.2055
C8 C 1.1441(5) 0.1012(8) 0.2824(5)
H6 H 1.1699 0.1099 0.2504
C9 C 1.1839(4) 0.0444(8) 0.3573(5)
H7 H 1.2371 0.0151 0.3771
C10 C 1.1437(4) 0.0319(8) 0.4017(4)
H8 H 1.1710 -0.0057 0.4526
C11 C 0.8932(4) 0.1283(6) 0.1935(4)
C12 C 0.8550(5) 0.2183(7) 0.1314(4)
H9 H 0.8657 0.3083 0.1413
C13 C 0.8015(5) 0.1762(7) 0.0555(4)
H10 H 0.7758 0.2386 0.0150
C14 C 0.7850(4) 0.0424(6) 0.0378(4)
C15 C 0.8277(4) -0.0439(7) 0.0990(4)
H11 H 0.8208 -0.1343 0.0885
C16 C 0.8804(4) -0.0027(6) 0.1755(4)
H12 H 0.9075 -0.0653 0.2155
C17 C 0.7263(4) -0.0047(6) -0.0431(4)
C18 C 0.6589(4) 0.0672(7) -0.0930(4)
H13 H 0.6497 0.1484 -0.0752
C19 C 0.6046(4) 0.0233(7) -0.1681(4)
H14 H 0.5605 0.0760 -0.2006
C20 C 0.6147(4) -0.0995(6) -0.1961(4)
C21 C 0.6826(4) -0.1727(7) -0.1467(4)
H15 H 0.6914 -0.2546 -0.1639
C22 C 0.7374(4) -0.1249(7) -0.0718(4)
H16 H 0.7830 -0.1751 -0.0400
C23 C 0.4743(4) -0.1229(6) -0.2986(4)
C24 C 0.4391(5) -0.1417(7) -0.2490(4)
H17 H 0.4705 -0.1672 -0.1958
C25 C 0.3577(5) -0.1227(8) -0.2785(5)
H18 H 0.3337 -0.1322 -0.2450
C26 C 0.3114(5) -0.0892(8) -0.3580(6)
H19 H 0.2555 -0.0802 -0.3800
C27 C 0.3502(4) -0.0698(7) -0.4035(4)
H20 H 0.3193 -0.0448 -0.4569
C28 C 0.5782(4) -0.2373(7) -0.3168(4)
C29 C 0.6499(5) -0.2288(8) -0.3208(5)
H21 H 0.6859 -0.1597 -0.2958
C30 C 0.6673(5) -0.3248(10) -0.3625(6)
H22 H 0.7165 -0.3236 -0.3641
C31 C 0.6125(5) -0.4207(9) -0.4011(5)
H23 H 0.6225 -0.4853 -0.4307
C32 C 0.5421(5) -0.4205(8) -0.3956(5)
H24 H 0.5039 -0.4857 -0.4234
Cu1 Cu 1.01598(6) 0.06151(11) 0.45018(5)
Cu2 Cu 0.48089(6) -0.03855(10) -0.44638(5)
I1 I 1.10758(3) 0.10321(6) 0.60006(3)
I2 I 0.58803(4) 0.14237(6) -0.41224(3)
N1 N 0.9715(4) 0.2714(7) 0.3918(4)
N2 N 0.9478(3) 0.1691(5) 0.2733(3)
N3 N 1.0670(3) 0.0709(5) 0.3761(3)
N4 N 0.4312(3) -0.0847(5) -0.3753(3)
N5 N 0.5574(3) -0.1453(5) -0.2728(3)
N6 N 0.5243(3) -0.3320(6) -0.3526(3)
Cu1B Cu 0.98402(6) -0.06151(11) 0.54982(5)
Cu2B Cu 0.51911(6) 0.03855(10) -0.55362(5)
I1B I 0.89242(3) -0.10321(6) 0.39994(3)
I2B I 0.41197(4) -0.14237(6) -0.58776(3)
loop_
_geom_bond_atom_site_label_1
_geom_bond_atom_site_label_2
_geom_bond_site_symmetry_1
_geom_bond_site_symmetry_2
C1 H1 1_555 1_555
C2 C1 1_555 1_555
H2 C2 1_555 1_555
C3 C2 1_555 1_555
H3 C3 1_555 1_555
C4 C3 1_555 1_555
H4 C4 1_555 1_555
C5 C4 1_555 1_555
C6 C7 1_555 1_555
C7 H5 1_555 1_555
C8 C7 1_555 1_555
H6 C8 1_555 1_555
C9 C8 1_555 1_555
H7 C9 1_555 1_555
C10 C9 1_555 1_555
H8 C10 1_555 1_555
C11 C12 1_555 1_555
C12 H9 1_555 1_555
C13 C12 1_555 1_555
H10 C13 1_555 1_555
C14 C13 1_555 1_555
C15 C14 1_555 1_555
H11 C15 1_555 1_555
C16 C11 1_555 1_555
H12 C16 1_555 1_555
C17 C14 1_555 1_555
C18 C17 1_555 1_555
H13 C18 1_555 1_555
C19 C18 1_555 1_555
H14 C19 1_555 1_555
C20 C19 1_555 1_555
C21 C20 1_555 1_555
H15 C21 1_555 1_555
C22 C17 1_555 1_555
H16 C22 1_555 1_555
C23 C24 1_555 1_555
C24 H17 1_555 1_555
C25 C24 1_555 1_555
H18 C25 1_555 1_555
C26 C25 1_555 1_555
H19 C26 1_555 1_555
C27 C26 1_555 1_555
H20 C27 1_555 1_555
C28 C29 1_555 1_555
C29 H21 1_555 1_555
C30 C29 1_555 1_555
H22 C30 1_555 1_555
C31 C30 1_555 1_555
H23 C31 1_555 1_555
C32 C31 1_555 1_555
H24 C32 1_555 1_555
Cu1 I1 1_555 1_555
Cu2 I2 1_555 1_555
I1 Cu1B 1_555 1_555
I2 Cu2B 1_555 1_555
N1 C1 1_555 1_555
N2 C5 1_555 1_555
N3 C6 1_555 1_555
N4 C23 1_555 1_555
N5 C20 1_555 1_555
N6 C28 1_555 1_555
Cu1B I1B 1_555 1_555
Cu2B I2B 1_555 1_555
I1B Cu1 1_555 1_555
I2B Cu2 1_555 1_555
C5 N1 1_555 1_555
C6 N2 1_555 1_555
C10 N3 1_555 1_555
C11 N2 1_555 1_555
C15 C16 1_555 1_555
C21 C22 1_555 1_555
C23 N5 1_555 1_555
C27 N4 1_555 1_555
C28 N5 1_555 1_555
C32 N6 1_555 1_555
Cu1 N3 1_555 1_555
Cu2 N4 1_555 1_555

#END
