
#######################################################################
#
#                 Cambridge Crystallographic Data Centre
#                                CCDC 
#
#######################################################################
#
# If this CIF has been generated from an entry in the Cambridge 
# Structural Database, then it will include bibliographic, chemical, 
# crystal, experimental, refinement or atomic coordinate data resulting 
# from the CCDC's data processing and validation procedures.
#
#######################################################################

data_CAQNEP
_symmetry_cell_setting           monoclinic
_symmetry_space_group_name_H-M   'P 21/n'
_symmetry_Int_Tables_number      14
_space_group_name_Hall           '-P 2yn'
loop_
_symmetry_equiv_pos_site_id
_symmetry_equiv_pos_as_xyz
1 x,y,z
2 1/2-x,1/2+y,1/2-z
3 -x,-y,-z
4 1/2+x,1/2-y,1/2+z
_cell_length_a                   10.092(2)
_cell_length_b                   6.8365(14)
_cell_length_c                   26.072(5)
_cell_angle_alpha                90
_cell_angle_beta                 90.17(3)
_cell_angle_gamma                90
_cell_volume                     1798.8
loop_
_atom_site_label
_atom_site_type_symbol
_atom_site_fract_x
_atom_site_fract_y
_atom_site_fract_z
Mn1 Mn 0.37679(5) 0.42566(8) 0.13235(2)
Mn2 Mn 1.24960(5) 0.17394(8) 0.25026(2)
O1 O 1.0528(3) 0.2604(4) 0.22550(12)
O2 O 1.0553(3) 0.5880(4) 0.22438(13)
O3 O -0.3022(3) 0.3190(5) 0.04116(14)
O4 O -0.2759(3) 0.6343(6) 0.02430(14)
O5 O 0.3413(3) 0.4235(4) 0.21538(11)
O6 O 0.4468(3) 0.4173(6) 0.05567(11)
N1 N 0.6014(3) 0.4266(5) 0.16006(14)
N2 N 0.1631(3) 0.4427(5) 0.10144(14)
N3 N 0.5085(5) -0.0723(7) 0.07441(18)
N4 N 0.3742(3) 0.0873(5) 0.13628(13)
N5 N 0.2975(3) 0.0193(5) 0.17481(13)
N6 N 0.2994(3) -0.1706(5) 0.17493(13)
N7 N 0.3779(3) -0.2362(5) 0.13661(12)
C1 C 0.6615(4) 0.2614(7) 0.17457(19)
H1 H 0.6148 0.1446 0.1717
C2 C 0.7894(4) 0.2550(7) 0.19354(19)
H2 H 0.8270 0.1363 0.2032
C3 C 0.8605(4) 0.4256(6) 0.19806(15)
C4 C 0.8006(4) 0.5977(6) 0.18306(19)
H3 H 0.8456 0.7161 0.1854
C5 C 0.6718(4) 0.5905(7) 0.1644(2)
H4 H 0.6322 0.7072 0.1543
C6 C 1.0023(4) 0.4237(6) 0.21751(16)
C7 C 0.1113(4) 0.6116(7) 0.08363(19)
H5 H 0.1633 0.7239 0.0851
C8 C -0.0150(4) 0.6264(7) 0.06327(18)
H6 H -0.0464 0.7462 0.0515
C9 C -0.0941(4) 0.4620(7) 0.06050(16)
C10 C -0.0414(4) 0.2877(7) 0.07751(18)
H7 H -0.0913 0.1734 0.0758
C11 C 0.0862(4) 0.2836(7) 0.09708(18)
H8 H 0.1205 0.1641 0.1078
C12 C -0.2352(4) 0.4732(7) 0.04006(16)
C13 C 0.4212(4) -0.0730(6) 0.11340(16)
H9 H 0.5224(16) 0.387(7) 0.0464(14)
H10 H 0.397(3) 0.406(7) 0.0303(10)
H13 H 0.416(2) 0.417(7) 0.2294(16)
H14 H 0.529(5) -0.182(9) 0.058(2)
H15 H 0.537(6) 0.029(9) 0.062(2)
Mn1_2 Mn 0.37679(5) -0.57434(8) 0.13235(2)
Mn2A Mn 1.25040(5) 0.67394(8) 0.24974(2)
Mn2A_2 Mn 0.25040(5) 0.67394(8) 0.24974(2)
Mn2_2 Mn 0.24960(5) 0.17394(8) 0.25026(2)
Mn2A_3 Mn 0.25040(5) -0.32606(8) 0.24974(2)
O2A O 1.4447(3) 0.0880(4) 0.27562(13)
O5A O 1.1587(3) -0.0765(4) 0.28462(11)
O5_2 O 1.3413(3) 0.4235(4) 0.21538(11)
N5_2 N 1.2975(3) 0.0193(5) 0.17481(13)
N6A N 1.2006(3) 0.3294(5) 0.32507(13)
N7_2 N 0.3779(3) 0.7638(5) 0.13661(12)
H13A H 1.084(2) -0.083(7) 0.2706(16)
H13_2 H 1.416(2) 0.417(7) 0.2294(16)
O7 O -0.2036(7) 1.0023(8) -0.0192(2)
H11 H -0.218(8) 0.896(5) -0.006(3)
H12 H -0.242(8) 1.087(7) -0.003(3)
loop_
_geom_bond_atom_site_label_1
_geom_bond_atom_site_label_2
_geom_bond_site_symmetry_1
_geom_bond_site_symmetry_2
Mn1 O5 1_555 1_555
Mn2 O1 1_555 1_555
O1 C6 1_555 1_555
O2 C6 1_555 1_555
O3 C12 1_555 1_555
O4 C12 1_555 1_555
O5 H13 1_555 1_555
O6 Mn1 1_555 1_555
O7 H11 1_555 1_555
N1 Mn1 1_555 1_555
N2 Mn1 1_555 1_555
N3 C13 1_555 1_555
N4 Mn1 1_555 1_555
N5 N4 1_555 1_555
N6 N5 1_555 1_555
N7 N6 1_555 1_555
C1 N1 1_555 1_555
H1 C1 1_555 1_555
C2 C1 1_555 1_555
H2 C2 1_555 1_555
C3 C2 1_555 1_555
C4 C3 1_555 1_555
H3 C4 1_555 1_555
C5 N1 1_555 1_555
H4 C5 1_555 1_555
C6 C3 1_555 1_555
C7 N2 1_555 1_555
H5 C7 1_555 1_555
C8 C7 1_555 1_555
H6 C8 1_555 1_555
C9 C8 1_555 1_555
C10 C9 1_555 1_555
H7 C10 1_555 1_555
C11 N2 1_555 1_555
H8 C11 1_555 1_555
C12 C9 1_555 1_555
C13 N4 1_555 1_555
H9 O6 1_555 1_555
H10 O6 1_555 1_555
H12 O7 1_555 1_555
H14 N3 1_555 1_555
H15 N3 1_555 1_555
Mn1_2 N7 1_555 1_555
Mn2A O2 1_555 1_555
Mn2A_2 O5 1_555 1_555
Mn2_2 O5 1_555 1_555
Mn2A_3 N6 1_555 1_555
O2A Mn2 1_555 1_555
O5A Mn2 1_555 1_555
O5_2 Mn2 1_555 1_555
N5_2 Mn2 1_555 1_555
N6A Mn2 1_555 1_555
N7_2 Mn1 1_555 1_555
H13A O5A 1_555 1_555
H13_2 O5_2 1_555 1_555
N5 Mn2_2 1_555 1_555
N7 C13 1_555 1_555
C4 C5 1_555 1_555
C10 C11 1_555 1_555
Mn2A O5_2 1_555 1_555

#END
