
#######################################################################
#
#                 Cambridge Crystallographic Data Centre
#                                CCDC 
#
#######################################################################
#
# If this CIF has been generated from an entry in the Cambridge 
# Structural Database, then it will include bibliographic, chemical, 
# crystal, experimental, refinement or atomic coordinate data resulting 
# from the CCDC's data processing and validation procedures.
#
#######################################################################

data_CAQVIB
_symmetry_cell_setting           triclinic
_symmetry_space_group_name_H-M   'P -1'
_symmetry_Int_Tables_number      2
_space_group_name_Hall           '-P 1'
loop_
_symmetry_equiv_pos_site_id
_symmetry_equiv_pos_as_xyz
1 x,y,z
2 -x,-y,-z
_cell_length_a                   7.94743(19)
_cell_length_b                   8.9815(2)
_cell_length_c                   16.7706(4)
_cell_angle_alpha                95.8831(13)
_cell_angle_beta                 97.3703(17)
_cell_angle_gamma                112.3417(19)
_cell_volume                     1083.04
loop_
_atom_site_label
_atom_site_type_symbol
_atom_site_fract_x
_atom_site_fract_y
_atom_site_fract_z
Fe1 Fe 0.824(2) 0.835(2) 0.8316(11)
Fe2 Fe 0.50000 0.50000 0.50000
Se1 Se 1.1888(15) 0.8935(18) 0.8865(6)
C1 C 1.2032(15) 0.9884(18) 0.9846(6)
N1 N 1.2028(15) 1.0483(18) 1.0463(6)
Se2 Se 0.8313(15) 0.5485(17) 0.5637(5)
C2 C 0.8214(15) 0.6221(17) 0.6616(5)
N2 N 0.8155(15) 0.6667(17) 0.7241(5)
Se3 Se 0.4420(15) 0.7728(17) 0.7640(6)
C3 C 0.4406(15) 0.6645(17) 0.6720(6)
N3 N 0.4368(15) 0.5962(17) 0.6134(6)
N4 N 0.727(3) 0.600(3) 0.8925(16)
C4 C 0.589(3) 0.466(3) 0.8525(16)
C5 C 0.522(3) 0.324(3) 0.8827(16)
C6 C 0.603(3) 0.330(3) 0.9596(16)
C7 C 0.743(3) 0.461(3) 0.9985(16)
C8 C 0.798(3) 0.594(3) 0.9621(16)
N5 N 0.907(3) 1.074(3) 0.7775(16)
C9 C 0.873(3) 1.200(3) 0.8018(16)
C10 C 0.925(3) 1.341(3) 0.7751(16)
C11 C 1.034(3) 1.353(3) 0.7168(16)
C12 C 1.065(3) 1.228(3) 0.6886(16)
C13 C 1.006(3) 1.093(3) 0.7212(16)
N6 N 0.617(3) 0.771(3) 0.4736(15)
C14 C 0.748(3) 0.900(3) 0.5186(15)
C15 C 0.793(3) 1.053(3) 0.4994(15)
C16 C 0.720(3) 1.062(3) 0.4261(15)
C17 C 0.583(3) 0.933(3) 0.3803(15)
C18 C 0.544(3) 0.785(3) 0.4036(15)
Fe1A Fe 0.176(2) 0.165(2) 0.1684(11)
Fe1_2 Fe -0.176(2) -0.165(2) -0.1684(11)
Fe1A_2 Fe 1.176(2) 1.165(2) 1.1684(11)
Se1A Se -0.1888(15) 0.1065(18) 0.1135(6)
C1A C -0.2032(15) 0.0116(18) 0.0154(6)
N1A N -0.2028(15) -0.0483(18) -0.0463(6)
N1_2 N 0.2028(15) 0.0483(18) 0.0463(6)
N1A_2 N 0.7972(15) 0.9517(18) 0.9537(6)
Se2A Se 0.1687(15) 0.4515(17) 0.4363(5)
C2A C 0.1786(15) 0.3779(17) 0.3384(5)
N2A N 0.1845(15) 0.3333(17) 0.2759(5)
Se3A Se 0.5580(15) 0.2272(17) 0.2360(6)
C3A C 0.5594(15) 0.3355(17) 0.3280(6)
N3A N 0.5632(15) 0.4038(17) 0.3866(6)
N4A N 0.273(3) 0.400(3) 0.1075(16)
C4A C 0.411(3) 0.534(3) 0.1475(16)
C5A C 0.478(3) 0.676(3) 0.1173(16)
C6A C 0.397(3) 0.670(3) 0.0404(16)
C7A C 0.257(3) 0.539(3) 0.0015(16)
C8A C 0.202(3) 0.406(3) 0.0379(16)
N5A N 0.093(3) -0.074(3) 0.2225(16)
C9A C 0.127(3) -0.200(3) 0.1982(16)
C10A C 0.075(3) -0.341(3) 0.2249(16)
C11A C -0.034(3) -0.353(3) 0.2832(16)
C12A C -0.065(3) -0.228(3) 0.3114(16)
C13A C -0.006(3) -0.093(3) 0.2788(16)
N6A N 0.383(3) 0.229(3) 0.5264(15)
C14A C 0.252(3) 0.100(3) 0.4814(15)
C15A C 0.207(3) -0.053(3) 0.5006(15)
C16A C 0.280(3) -0.062(3) 0.5739(15)
C17A C 0.417(3) 0.067(3) 0.6197(15)
C18A C 0.456(3) 0.215(3) 0.5964(15)
loop_
_geom_bond_atom_site_label_1
_geom_bond_atom_site_label_2
_geom_bond_site_symmetry_1
_geom_bond_site_symmetry_2
Fe1 Se1 1_555 1_555
Fe2 Se2 1_555 1_555
Se1 C1 1_555 1_555
C1 N1 1_555 1_555
N1 Fe1A_2 1_555 1_555
Se2 C2 1_555 1_555
C2 N2 1_555 1_555
N2 Fe1 1_555 1_555
Se3 Fe1 1_555 1_555
C3 Se3 1_555 1_555
N3 Fe2 1_555 1_555
N4 Fe1 1_555 1_555
C4 N4 1_555 1_555
C5 C4 1_555 1_555
C6 C5 1_555 1_555
C7 C6 1_555 1_555
C8 N4 1_555 1_555
N5 Fe1 1_555 1_555
C9 N5 1_555 1_555
C10 C9 1_555 1_555
C11 C10 1_555 1_555
C12 C11 1_555 1_555
C13 N5 1_555 1_555
N6 Fe2 1_555 1_555
C14 N6 1_555 1_555
C15 C14 1_555 1_555
C16 C15 1_555 1_555
C17 C16 1_555 1_555
C18 N6 1_555 1_555
Fe1A Se1A 1_555 1_555
Fe1_2 N1A 1_555 1_555
Se1A C1A 1_555 1_555
C1A N1A 1_555 1_555
N1_2 Fe1A 1_555 1_555
N1A_2 Fe1 1_555 1_555
Se2A Fe2 1_555 1_555
C2A Se2A 1_555 1_555
N2A Fe1A 1_555 1_555
Se3A Fe1A 1_555 1_555
C3A Se3A 1_555 1_555
N3A Fe2 1_555 1_555
N4A Fe1A 1_555 1_555
C4A N4A 1_555 1_555
C5A C4A 1_555 1_555
C6A C5A 1_555 1_555
C7A C6A 1_555 1_555
C8A N4A 1_555 1_555
N5A Fe1A 1_555 1_555
C9A N5A 1_555 1_555
C10A C9A 1_555 1_555
C11A C10A 1_555 1_555
C12A C11A 1_555 1_555
C13A N5A 1_555 1_555
N6A Fe2 1_555 1_555
C14A N6A 1_555 1_555
C15A C14A 1_555 1_555
C16A C15A 1_555 1_555
C17A C16A 1_555 1_555
C18A N6A 1_555 1_555
C3 N3 1_555 1_555
C7 C8 1_555 1_555
C12 C13 1_555 1_555
C17 C18 1_555 1_555
C2A N2A 1_555 1_555
C3A N3A 1_555 1_555
C7A C8A 1_555 1_555
C12A C13A 1_555 1_555
C17A C18A 1_555 1_555

#END
