
#######################################################################
#
#                 Cambridge Crystallographic Data Centre
#                                CCDC 
#
#######################################################################
#
# If this CIF has been generated from an entry in the Cambridge 
# Structural Database, then it will include bibliographic, chemical, 
# crystal, experimental, refinement or atomic coordinate data resulting 
# from the CCDC's data processing and validation procedures.
#
#######################################################################

data_CAQXIB
_symmetry_cell_setting           orthorhombic
_symmetry_space_group_name_H-M   'P b c a'
_symmetry_Int_Tables_number      61
_space_group_name_Hall           '-P 2ac 2ab'
loop_
_symmetry_equiv_pos_site_id
_symmetry_equiv_pos_as_xyz
1 x,y,z
2 1/2+x,y,1/2-z
3 x,1/2-y,1/2+z
4 1/2-x,1/2+y,z
5 -x,-y,-z
6 1/2-x,-y,1/2+z
7 -x,1/2+y,1/2-z
8 1/2+x,1/2-y,-z
_cell_length_a                   14.018(4)
_cell_length_b                   7.2333(14)
_cell_length_c                   17.136(3)
_cell_angle_alpha                90
_cell_angle_beta                 90
_cell_angle_gamma                90
_cell_volume                     1737.53
loop_
_atom_site_label
_atom_site_type_symbol
_atom_site_fract_x
_atom_site_fract_y
_atom_site_fract_z
I1 I 0.82387(4) 0.18785(9) 0.39291(4)
I2 I 0.99557(4) -0.31300(10) 0.39839(4)
N1 N 0.8356(5) -0.1434(12) 0.5603(5)
N2 N 0.9148(5) -0.1908(12) 0.6021(5)
C1 C 0.9152(7) -0.1504(15) 0.6788(6)
H1 H 0.9693(7) -0.1814(15) 0.7073(6)
C2 C 0.8419(8) -0.0673(18) 0.7177(7)
H2 H 0.8470(8) -0.0393(18) 0.7705(7)
C3 C 0.7631(8) -0.0275(17) 0.6783(7)
H3 H 0.7104(8) 0.0227(17) 0.7034(7)
C4 C 0.7611(7) -0.0633(16) 0.5966(6)
H4 H 0.7074(7) -0.0309(16) 0.5678(6)
Cu1 Cu 0.83539(9) -0.1594(2) 0.44208(8)
Cu2 Cu 0.97970(9) 0.3405(2) 0.45051(8)
Cu1C Cu 0.66461(9) 0.3406(2) 0.44208(8)
Cu2_2 Cu 0.97970(9) -0.6595(2) 0.45051(8)
Cu2D Cu 1.02030(9) -0.3405(2) 0.54949(8)
I1C I 0.67613(4) -0.31215(9) 0.39291(4)
I2_2 I 0.99557(4) 0.68700(10) 0.39839(4)
I2D I 1.00443(4) 0.31300(10) 0.60161(4)
N2D N 1.0852(5) 0.1908(12) 0.3979(5)
loop_
_geom_bond_atom_site_label_1
_geom_bond_atom_site_label_2
_geom_bond_site_symmetry_1
_geom_bond_site_symmetry_2
I1 Cu1 1_555 1_555
I2 Cu1 1_555 1_555
N1 N2 1_555 1_555
N2 C1 1_555 1_555
C1 H1 1_555 1_555
C2 C1 1_555 1_555
H2 C2 1_555 1_555
C3 C2 1_555 1_555
H3 C3 1_555 1_555
C4 N1 1_555 1_555
H4 C4 1_555 1_555
Cu1 N1 1_555 1_555
Cu2 I1 1_555 1_555
Cu1C I1 1_555 1_555
Cu2_2 I2 1_555 1_555
Cu2D I2 1_555 1_555
I1C Cu1 1_555 1_555
I2_2 Cu2 1_555 1_555
I2D Cu2 1_555 1_555
N2D Cu2 1_555 1_555
N2 Cu2D 1_555 1_555
C3 C4 1_555 1_555

#END
