
#######################################################################
#
#                 Cambridge Crystallographic Data Centre
#                                CCDC 
#
#######################################################################
#
# If this CIF has been generated from an entry in the Cambridge 
# Structural Database, then it will include bibliographic, chemical, 
# crystal, experimental, refinement or atomic coordinate data resulting 
# from the CCDC's data processing and validation procedures.
#
#######################################################################

data_CAQXEX
_symmetry_cell_setting           orthorhombic
_symmetry_space_group_name_H-M   'C m c a'
_symmetry_Int_Tables_number      64
_space_group_name_Hall           '-C 2ac 2'
loop_
_symmetry_equiv_pos_site_id
_symmetry_equiv_pos_as_xyz
1 x,y,z
2 1/2+x,1/2+y,z
3 x,1/2+y,1/2-z
4 x,1/2-y,1/2+z
5 -x,y,z
6 1/2+x,y,1/2-z
7 1/2+x,-y,1/2+z
8 1/2-x,1/2+y,z
9 -x,-y,-z
10 1/2-x,1/2-y,-z
11 -x,1/2-y,1/2+z
12 -x,1/2+y,1/2-z
13 x,-y,-z
14 1/2-x,-y,1/2+z
15 1/2-x,y,1/2-z
16 1/2+x,1/2-y,-z
_cell_length_a                   12.336(3)
_cell_length_b                   14.805(4)
_cell_length_c                   13.055(6)
_cell_angle_alpha                90
_cell_angle_beta                 90
_cell_angle_gamma                90
_cell_volume                     2384.29
loop_
_atom_site_label
_atom_site_type_symbol
_atom_site_fract_x
_atom_site_fract_y
_atom_site_fract_z
Br1 Br 0.30932(9) 0.37211(10) 0.11073(8)
Cu1 Cu 0.13052(12) 0.37757(13) 0.21183(11)
N1 N 0.4441(8) 0.4884(7) 0.3435(7)
N2 N 0.5561(8) 0.2610(7) 0.3274(7)
C1 C 0.6080(11) 0.5601(9) 0.3806(10)
H1 H 0.6834(11) 0.5591(9) 0.3811(10)
C2 C 0.5558(11) 0.6369(11) 0.4189(8)
H2 H 0.4051(11) 0.6860(11) 0.4434(8)
C3 C 0.3931(11) 0.1854(10) 0.3515(9)
H3 H 0.3177(11) 0.1861(10) 0.3517(9)
C4 C 0.4432(10) 0.1064(9) 0.3763(8)
H4 H 0.5962(10) 0.0547(9) 0.3925(8)
Br1N Br 0.19068(9) 0.37211(10) 0.38927(8)
Cu1N Cu 0.36948(12) 0.37757(13) 0.28817(11)
N1N N 0.0559(8) 0.4884(7) 0.1565(7)
N1D N 0.5559(8) 0.4884(7) 0.3435(7)
Cu1E Cu 0.63052(12) 0.37757(13) 0.28817(11)
N2E N 0.0561(8) 0.2610(7) 0.1726(7)
N2D N 0.4439(8) 0.2610(7) 0.3274(7)
C4D C 0.5568(10) 0.1064(9) 0.3763(8)
C3D C 0.6069(11) 0.1854(10) 0.3515(9)
H3D H 0.6823(11) 0.1861(10) 0.3517(9)
H4D H 0.4038(10) 0.0547(9) 0.3925(8)
C2D C 0.4442(11) 0.6369(11) 0.4189(8)
C1D C 0.3920(11) 0.5601(9) 0.3806(10)
H1D H 0.3166(11) 0.5591(9) 0.3811(10)
H2D H 0.5949(11) 0.6860(11) 0.4434(8)
loop_
_geom_bond_atom_site_label_1
_geom_bond_atom_site_label_2
_geom_bond_site_symmetry_1
_geom_bond_site_symmetry_2
Br1 Cu1 1_555 1_555
Cu1 Br1N 1_555 1_555
N1 Cu1N 1_555 1_555
N2 Cu1E 1_555 1_555
C1 H1 1_555 1_555
C2 C1 1_555 1_555
H2 C2D 1_555 1_555
C3 H3 1_555 1_555
C4 C3 1_555 1_555
H4 C4D 1_555 1_555
Br1N Cu1N 1_555 1_555
Cu1N Br1 1_555 1_555
N1N Cu1 1_555 1_555
N1D N1 1_555 1_555
Cu1E N1D 1_555 1_555
N2E Cu1 1_555 1_555
N2D N2 1_555 1_555
C4D C4 1_555 1_555
C3D N2 1_555 1_555
H3D C3D 1_555 1_555
H4D C4 1_555 1_555
C2D C2 1_555 1_555
C1D N1 1_555 1_555
H1D C1D 1_555 1_555
H2D C2 1_555 1_555
C1 N1D 1_555 1_555
C3 N2D 1_555 1_555
Cu1N N2D 1_555 1_555
C4D C3D 1_555 1_555
C2D C1D 1_555 1_555

#END
