
#######################################################################
#
#                 Cambridge Crystallographic Data Centre
#                                CCDC 
#
#######################################################################
#
# If this CIF has been generated from an entry in the Cambridge 
# Structural Database, then it will include bibliographic, chemical, 
# crystal, experimental, refinement or atomic coordinate data resulting 
# from the CCDC's data processing and validation procedures.
#
#######################################################################

data_CAQZOK
_symmetry_cell_setting           monoclinic
_symmetry_space_group_name_H-M   'C 2/c'
_symmetry_Int_Tables_number      15
_space_group_name_Hall           '-C 2yn'
loop_
_symmetry_equiv_pos_site_id
_symmetry_equiv_pos_as_xyz
1 x,y,z
2 1/2+x,1/2+y,z
3 -x,y,1/2-z
4 1/2-x,1/2+y,1/2-z
5 -x,-y,-z
6 1/2-x,1/2-y,-z
7 x,-y,1/2+z
8 1/2+x,1/2-y,1/2+z
_cell_length_a                   32.0393(19)
_cell_length_b                   9.5376(6)
_cell_length_c                   14.2443(9)
_cell_angle_alpha                90
_cell_angle_beta                 91.948(2)
_cell_angle_gamma                90
_cell_volume                     4350.23
loop_
_atom_site_label
_atom_site_type_symbol
_atom_site_fract_x
_atom_site_fract_y
_atom_site_fract_z
Zn1 Zn 0.24037(2) 0.18964(8) 0.62347(6)
C1 C 0.3261(2) 0.2752(8) 0.6890(6)
H1 H 0.3177 0.3645 0.6702
C2 C 0.3658(2) 0.2582(8) 0.7294(6)
H2 H 0.3836 0.3348 0.7371
C3 C 0.37876(19) 0.1254(7) 0.7581(5)
C4 C 0.42132(19) 0.1019(7) 0.8025(5)
C5 C 0.4459(2) 0.2116(9) 0.8336(7)
H3 H 0.4360 0.3031 0.8295
C6 C 0.4854(2) 0.1852(9) 0.8710(7)
H4 H 0.5020 0.2606 0.8901
C7 C 0.4772(2) -0.0508(9) 0.8542(6)
H5 H 0.4878 -0.1410 0.8623
C8 C 0.4370(2) -0.0324(9) 0.8140(6)
H6 H 0.4210 -0.1097 0.7954
C9 C 0.3510(2) 0.0158(7) 0.7438(5)
H7 H 0.3583 -0.0748 0.7621
C10 C 0.31275(19) 0.0420(7) 0.7023(4)
H8 H 0.2948 -0.0333 0.6917
C11 C 0.22604(18) 0.4677(6) 0.5824(4)
C12 C 0.0863(2) 0.6127(8) 0.4405(5)
C13 C 0.1885(2) 0.9756(7) 0.5568(5)
C14 C 0.19600(18) 0.5805(6) 0.5490(4)
C15 C 0.15737(19) 0.5446(7) 0.5081(4)
H9 H 0.1506 0.4508 0.4982
C16 C 0.12894(18) 0.6483(7) 0.4820(5)
C17 C 0.13954(19) 0.7884(7) 0.4960(4)
H10 H 0.1205 0.8581 0.4786
C18 C 0.17834(18) 0.8258(6) 0.5356(4)
C19 C 0.20646(17) 0.7203(6) 0.5629(4)
H11 H 0.2322 0.7438 0.5905
N1 N 0.29963(15) 0.1700(5) 0.6761(4)
N2 N 0.50050(18) 0.0578(7) 0.8807(4)
O1 O 0.21756(15) 0.3440(4) 0.5522(3)
O2 O 0.25570(14) 0.4963(5) 0.6364(3)
O3 O 0.06322(17) 0.7040(6) 0.4081(5)
O4 O 0.07647(14) 0.4828(5) 0.4432(4)
H12 H 0.0530 0.4720 0.4195
O5 O 0.16179(18) 1.0672(5) 0.5416(5)
O6 O 0.22523(14) 0.9992(4) 0.5885(3)
O7 O 0.21204(18) 0.2017(5) 0.7520(4)
H13 H 0.2214 0.1401 0.7869
H14 H 0.189(2) 0.201(7) 0.763(5)
Zn1_2 Zn 0.24037(2) 1.18964(8) 0.62347(6)
O6_2 O 0.22523(14) -0.0008(4) 0.5885(3)
O8 O 0.1280(2) 0.1612(8) 0.7274(7)
O9 O 0.4119(3) 0.3129(10) 0.5139(8)
O10 O 0.0639(5) 0.0346(16) 0.8256(14)
O11 O 0.4670(9) 0.559(3) 0.890(5)
loop_
_geom_bond_atom_site_label_1
_geom_bond_atom_site_label_2
_geom_bond_site_symmetry_1
_geom_bond_site_symmetry_2
Zn1 N1 1_555 1_555
C1 H1 1_555 1_555
C2 C1 1_555 1_555
H2 C2 1_555 1_555
C3 C2 1_555 1_555
C4 C3 1_555 1_555
C5 C4 1_555 1_555
H3 C5 1_555 1_555
C6 C5 1_555 1_555
H4 C6 1_555 1_555
C7 H5 1_555 1_555
C8 C4 1_555 1_555
H6 C8 1_555 1_555
C9 C3 1_555 1_555
H7 C9 1_555 1_555
C10 C9 1_555 1_555
H8 C10 1_555 1_555
C11 C14 1_555 1_555
C12 C16 1_555 1_555
C13 C18 1_555 1_555
C14 C15 1_555 1_555
C15 H9 1_555 1_555
C16 C15 1_555 1_555
C17 C16 1_555 1_555
H10 C17 1_555 1_555
C18 C17 1_555 1_555
C19 C14 1_555 1_555
H11 C19 1_555 1_555
N1 C1 1_555 1_555
N2 C6 1_555 1_555
O1 Zn1 1_555 1_555
O2 C11 1_555 1_555
O3 C12 1_555 1_555
O4 C12 1_555 1_555
H12 O4 1_555 1_555
O5 C13 1_555 1_555
O6 C13 1_555 1_555
O7 Zn1 1_555 1_555
H13 O7 1_555 1_555
H14 O7 1_555 1_555
Zn1_2 O6 1_555 1_555
O6_2 Zn1 1_555 1_555
C7 C8 1_555 1_555
C7 N2 1_555 1_555
C10 N1 1_555 1_555
C11 O1 1_555 1_555
C18 C19 1_555 1_555

#END
