
#######################################################################
#
#                 Cambridge Crystallographic Data Centre
#                                CCDC 
#
#######################################################################
#
# If this CIF has been generated from an entry in the Cambridge 
# Structural Database, then it will include bibliographic, chemical, 
# crystal, experimental, refinement or atomic coordinate data resulting 
# from the CCDC's data processing and validation procedures.
#
#######################################################################

data_CAQZIE01
_symmetry_cell_setting           monoclinic
_symmetry_space_group_name_H-M   'C 2/c'
_symmetry_Int_Tables_number      15
_space_group_name_Hall           '-C 2yn'
loop_
_symmetry_equiv_pos_site_id
_symmetry_equiv_pos_as_xyz
1 x,y,z
2 1/2+x,1/2+y,z
3 -x,y,1/2-z
4 1/2-x,1/2+y,1/2-z
5 -x,-y,-z
6 1/2-x,1/2-y,-z
7 x,-y,1/2+z
8 1/2+x,1/2-y,1/2+z
_cell_length_a                   7.874(3)
_cell_length_b                   17.312(6)
_cell_length_c                   32.429(11)
_cell_angle_alpha                90
_cell_angle_beta                 92.308(6)
_cell_angle_gamma                90
_cell_volume                     4416.96
loop_
_atom_site_label
_atom_site_type_symbol
_atom_site_fract_x
_atom_site_fract_y
_atom_site_fract_z
Zn1 Zn -0.09254(12) 0.67134(5) 0.51038(3)
N1 N -0.0254(7) 0.6414(3) 0.45287(19)
N2 N 0.2363(10) 0.5333(4) 0.2556(2)
O1 O 0.0985(7) 0.8162(3) 0.49854(17)
O2 O -0.1229(7) 0.7735(3) 0.53222(17)
O3 O 0.2557(6) 1.0894(3) 0.52629(16)
O4 O 0.2217(9) 1.1405(3) 0.5884(2)
O5 O -0.1488(9) 0.9976(3) 0.68400(18)
H1 H -0.1922 0.9872 0.7059
O6 O -0.1874(9) 0.8715(3) 0.67367(19)
O7 O 0.1300(7) 0.6331(3) 0.53995(19)
C1 C -0.0041(9) 0.8224(4) 0.5259(2)
C2 C 0.0037(9) 0.8892(4) 0.5554(2)
C3 C 0.0877(9) 0.9560(4) 0.5454(2)
H2 H 0.1397 0.9594 0.5202
C4 C 0.0959(9) 1.0188(4) 0.5724(2)
C5 C 0.0201(9) 1.0127(4) 0.6101(2)
H3 H 0.0243 1.0540 0.6285
C6 C -0.0629(9) 0.9442(4) 0.6205(2)
C7 C -0.0705(9) 0.8837(4) 0.5934(2)
H4 H -0.1259 0.8384 0.6005
C8 C 0.1953(10) 1.0892(4) 0.5621(3)
C9 C -0.1395(10) 0.9356(5) 0.6618(3)
C10 C -0.0420(10) 0.5681(4) 0.4402(2)
H5 H -0.0866 0.5319 0.4580
C11 C 0.0050(10) 0.5445(4) 0.4017(2)
H6 H -0.0090 0.4932 0.3939
C12 C 0.0727(9) 0.5965(4) 0.3746(2)
C13 C 0.0878(12) 0.6712(5) 0.3884(3)
H7 H 0.1315 0.7088 0.3714
C14 C 0.0395(12) 0.6907(5) 0.4270(3)
H8 H 0.0532 0.7418 0.4355
C15 C 0.2206(17) 0.6057(7) 0.2666(3)
H9 H 0.2461 0.6440 0.2477
C16 C 0.1676(18) 0.6280(6) 0.3052(3)
H10 H 0.1611 0.6802 0.3118
C17 C 0.1257(10) 0.5746(5) 0.3332(2)
C18 C 0.1387(12) 0.4974(5) 0.3204(3)
H11 H 0.1089 0.4577 0.3380
C19 C 0.1947(13) 0.4803(6) 0.2821(3)
H12 H 0.2038 0.4287 0.2746
Zn1A Zn 0.40746(12) 1.17134(5) 0.51038(3)
O3A O -0.2443(6) 0.5894(3) 0.52629(16)
O8 O 0.1221(15) 0.6617(7) 0.6218(3)
O9 O 0.256(2) 0.2138(6) 0.6609(3)
O10 O 0.872(3) 0.1527(8) 0.6923(5)
loop_
_geom_bond_atom_site_label_1
_geom_bond_atom_site_label_2
_geom_bond_site_symmetry_1
_geom_bond_site_symmetry_2
Zn1 N1 1_555 1_555
N1 C10 1_555 1_555
N2 C15 1_555 1_555
O1 C1 1_555 1_555
O2 Zn1 1_555 1_555
O3 C8 1_555 1_555
O4 C8 1_555 1_555
O5 H1 1_555 1_555
O6 C9 1_555 1_555
O7 Zn1 1_555 1_555
C1 O2 1_555 1_555
C2 C1 1_555 1_555
C3 C2 1_555 1_555
H2 C3 1_555 1_555
C4 C3 1_555 1_555
C5 C4 1_555 1_555
H3 C5 1_555 1_555
C6 C5 1_555 1_555
C7 C2 1_555 1_555
H4 C7 1_555 1_555
C8 C4 1_555 1_555
C9 O5 1_555 1_555
C10 H5 1_555 1_555
C11 C10 1_555 1_555
H6 C11 1_555 1_555
C12 C11 1_555 1_555
C13 C12 1_555 1_555
H7 C13 1_555 1_555
C14 N1 1_555 1_555
H8 C14 1_555 1_555
C15 H9 1_555 1_555
C16 C15 1_555 1_555
H10 C16 1_555 1_555
C17 C12 1_555 1_555
C18 C17 1_555 1_555
H11 C18 1_555 1_555
C19 N2 1_555 1_555
H12 C19 1_555 1_555
Zn1A O3 1_555 1_555
O3A Zn1 1_555 1_555
C6 C7 1_555 1_555
C6 C9 1_555 1_555
C13 C14 1_555 1_555
C16 C17 1_555 1_555
C18 C19 1_555 1_555

#END
