
#######################################################################
#
#                 Cambridge Crystallographic Data Centre
#                                CCDC 
#
#######################################################################
#
# If this CIF has been generated from an entry in the Cambridge 
# Structural Database, then it will include bibliographic, chemical, 
# crystal, experimental, refinement or atomic coordinate data resulting 
# from the CCDC's data processing and validation procedures.
#
#######################################################################

data_CARCEE
_symmetry_cell_setting           monoclinic
_symmetry_space_group_name_H-M   'P 21/c'
_symmetry_Int_Tables_number      14
_space_group_name_Hall           '-P 2ybc'
loop_
_symmetry_equiv_pos_site_id
_symmetry_equiv_pos_as_xyz
1 x,y,z
2 -x,1/2+y,1/2-z
3 -x,-y,-z
4 x,1/2-y,1/2+z
_cell_length_a                   8.561(5)
_cell_length_b                   10.060(5)
_cell_length_c                   13.561(5)
_cell_angle_alpha                90
_cell_angle_beta                 99.628(5)
_cell_angle_gamma                90
_cell_volume                     1151.47
loop_
_atom_site_label
_atom_site_type_symbol
_atom_site_fract_x
_atom_site_fract_y
_atom_site_fract_z
Cu1 Cu 0.67881(3) 0.14337(2) 0.771275(18)
O1 O 0.23714(17) 0.06824(15) 0.63994(11)
O2 O 0.49406(16) 0.04509(14) 0.69776(11)
O3 O 0.6220(2) -0.01357(19) 0.91435(13)
O4 O 0.6415(2) -0.19667(17) 0.99849(12)
O5 O 0.8087(2) -0.03847(18) 1.04201(15)
O6 O 0.6541(2) 0.28678(17) 0.63288(13)
N1 N 0.86123(19) 0.24289(17) 0.85262(13)
N2 N 1.17173(19) 0.51443(18) 0.78005(13)
N3 N 1.2862(2) 0.5295(2) 0.94966(15)
N4 N 0.9567(2) 0.36583(17) 0.71995(14)
N5 N 1.0310(2) 0.32446(18) 0.98095(14)
N6 N 0.6916(2) -0.08210(19) 0.98579(14)
N7 N 0.5129(2) 0.24793(19) 0.82419(14)
C1 C 1.0624(2) 0.4572(2) 0.70879(16)
C2 C 1.1796(2) 0.4771(2) 0.87775(16)
C3 C 1.0673(2) 0.3814(2) 0.89570(16)
C4 C 0.9613(2) 0.3306(2) 0.81650(16)
C5 C 0.9085(2) 0.2421(2) 0.95176(16)
C6 C 0.3583(2) 0.2257(2) 0.75979(17)
C7 C 0.3619(2) 0.1040(2) 0.69460(15)
H1 H 0.861(3) 0.192(3) 0.9998(18)
H2 H 1.075(3) 0.336(3) 1.033(2)
H3 H 1.285(3) 0.504(3) 1.002(2)
H4 H 1.338(4) 0.593(3) 0.933(2)
H5 H 1.065(3) 0.485(2) 0.6458(18)
H6 H 0.536(3) 0.322(3) 0.825(2)
H7 H 0.506(3) 0.223(3) 0.882(2)
H8 H 0.338(3) 0.296(3) 0.7147(18)
H9 H 0.272(3) 0.216(3) 0.799(2)
H10 H 0.585(5) 0.329(4) 0.605(3)
H11 H 0.731(5) 0.326(4) 0.644(3)
Cu1A Cu 1.32119(3) 0.64337(2) 0.728725(18)
N2A N 0.82827(19) 0.01443(18) 0.71995(13)
loop_
_geom_bond_atom_site_label_1
_geom_bond_atom_site_label_2
_geom_bond_site_symmetry_1
_geom_bond_site_symmetry_2
Cu1 O2 1_555 1_555
O1 C7 1_555 1_555
O2 C7 1_555 1_555
O3 Cu1 1_555 1_555
O4 N6 1_555 1_555
O5 N6 1_555 1_555
O6 Cu1 1_555 1_555
N1 Cu1 1_555 1_555
N2 C1 1_555 1_555
N3 C2 1_555 1_555
N4 C1 1_555 1_555
N5 C3 1_555 1_555
N6 O3 1_555 1_555
N7 Cu1 1_555 1_555
C1 H5 1_555 1_555
C2 N2 1_555 1_555
C3 C2 1_555 1_555
C4 N1 1_555 1_555
C5 N1 1_555 1_555
C6 N7 1_555 1_555
C7 C6 1_555 1_555
H1 C5 1_555 1_555
H2 N5 1_555 1_555
H3 N3 1_555 1_555
H4 N3 1_555 1_555
H6 N7 1_555 1_555
H7 N7 1_555 1_555
H8 C6 1_555 1_555
H9 C6 1_555 1_555
H10 O6 1_555 1_555
H11 O6 1_555 1_555
Cu1A N2 1_555 1_555
N2A Cu1 1_555 1_555
N4 C4 1_555 1_555
N5 C5 1_555 1_555
C3 C4 1_555 1_555

#END
