
#######################################################################
#
#                 Cambridge Crystallographic Data Centre
#                                CCDC 
#
#######################################################################
#
# If this CIF has been generated from an entry in the Cambridge 
# Structural Database, then it will include bibliographic, chemical, 
# crystal, experimental, refinement or atomic coordinate data resulting 
# from the CCDC's data processing and validation procedures.
#
#######################################################################

data_CARDEF
_symmetry_cell_setting           triclinic
_symmetry_space_group_name_H-M   'P -1'
_symmetry_Int_Tables_number      2
_space_group_name_Hall           '-P 1'
loop_
_symmetry_equiv_pos_site_id
_symmetry_equiv_pos_as_xyz
1 x,y,z
2 -x,-y,-z
_cell_length_a                   10.538(14)
_cell_length_b                   12.004(14)
_cell_length_c                   20.61(2)
_cell_angle_alpha                92.410(10)
_cell_angle_beta                 92.758(10)
_cell_angle_gamma                112.720(10)
_cell_volume                     2396.83
loop_
_atom_site_label
_atom_site_type_symbol
_atom_site_fract_x
_atom_site_fract_y
_atom_site_fract_z
Gd1 Gd 0.13604(6) 0.41092(5) 0.25123(3)
N1 N 0.1234(12) 0.2249(10) 0.3183(6)
C1 C 0.1536(17) 0.2332(14) 0.3823(7)
H1 H 0.1921 0.3103 0.4030
C2 C 0.1322(19) 0.1355(15) 0.4207(8)
H2 H 0.1581 0.1478 0.4650
C3 C 0.0724(17) 0.0218(13) 0.3917(8)
H3 H 0.0554 -0.0452 0.4161
C4 C 0.0364(14) 0.0064(12) 0.3241(8)
C5 C 0.0629(14) 0.1087(11) 0.2877(7)
C6 C 0.0331(13) 0.0969(11) 0.2182(7)
C7 C -0.0298(16) -0.0231(13) 0.1881(8)
C8 C -0.0592(17) -0.0315(16) 0.1193(10)
H4 H -0.1008 -0.1070 0.0969
C9 C -0.0263(19) 0.0711(16) 0.0867(8)
H5 H -0.0451 0.0661 0.0418
C10 C 0.0366(18) 0.1853(15) 0.1213(7)
H6 H 0.0591 0.2541 0.0979
N2 N 0.0654(13) 0.2000(10) 0.1855(6)
C11 C -0.0281(16) -0.1124(14) 0.2907(9)
H7 H -0.0500 -0.1810 0.3143
C12 C -0.0558(16) -0.1239(13) 0.2279(9)
H8 H -0.0943 -0.2016 0.2077
N3 N 0.3515(14) 0.4466(13) 0.1860(7)
C13 C 0.345(2) 0.427(2) 0.1193(10)
H9 H 0.2597 0.4103 0.0971
C14 C 0.448(3) 0.430(3) 0.0831(13)
H10 H 0.4358 0.4123 0.0383
C15 C 0.582(3) 0.462(2) 0.1192(17)
H11 H 0.6585 0.4672 0.0970
C16 C 0.595(2) 0.4842(18) 0.1863(15)
C17 C 0.4747(16) 0.4723(13) 0.2171(9)
C18 C 0.4894(16) 0.4946(13) 0.2867(9)
C19 C 0.6198(17) 0.5295(17) 0.3219(12)
C20 C 0.629(2) 0.5631(19) 0.3908(12)
H12 H 0.7115 0.5803 0.4153
C21 C 0.522(2) 0.5697(18) 0.4196(11)
H13 H 0.5313 0.5983 0.4629
C22 C 0.3906(18) 0.5317(17) 0.3827(9)
H14 H 0.3147 0.5341 0.4030
N4 N 0.3753(12) 0.4920(11) 0.3177(6)
C23 C 0.720(2) 0.507(2) 0.2270(17)
H15 H 0.7951 0.5021 0.2066
C24 C 0.736(2) 0.531(2) 0.2861(18)
H16 H 0.8219 0.5509 0.3079
N5 N 0.0766(13) 0.4613(10) 0.3599(5)
C25 C 0.0427(14) 0.4755(11) 0.4117(6)
N6 N 0.0498(14) 0.4520(11) 0.1430(6)
C26 C 0.0259(15) 0.4712(13) 0.0905(6)
C27 C -0.1955(15) 0.4033(13) 0.4779(7)
N7 N -0.3137(15) 0.3470(13) 0.4685(8)
N8 N -0.0335(14) 0.7370(12) 0.4586(7)
C28 C -0.0234(13) 0.6477(13) 0.4749(6)
N9 N -0.110(2) 0.6986(16) 0.0348(8)
C29 C -0.0710(18) 0.6223(14) 0.0234(7)
N10 N 0.309(2) 0.6767(16) 0.0108(10)
C30 C 0.199(2) 0.625(2) 0.0052(8)
O1 O 0.1876(13) 0.6187(9) 0.2507(5)
O2 O -0.1051(10) 0.3306(9) 0.2534(5)
Fe1 Fe 0.0000 0.5000 0.5000
Fe2 Fe 0.0000 0.5000 0.0000
Gd1A Gd -0.13604(6) 0.58908(5) 0.74877(3)
N1A N -0.1234(12) 0.7751(10) 0.6817(6)
C1A C -0.1536(17) 0.7668(14) 0.6177(7)
H1A H -0.1921 0.6897 0.5970
C2A C -0.1322(19) 0.8645(15) 0.5793(8)
H2A H -0.1581 0.8522 0.5350
C3A C -0.0724(17) 0.9782(13) 0.6083(8)
H3A H -0.0554 1.0452 0.5839
C4A C -0.0364(14) 0.9936(12) 0.6759(8)
C5A C -0.0629(14) 0.8913(11) 0.7123(7)
C6A C -0.0331(13) 0.9031(11) 0.7818(7)
C7A C 0.0298(16) 1.0231(13) 0.8119(8)
C8A C 0.0592(17) 1.0315(16) 0.8807(10)
H4A H 0.1008 1.1070 0.9031
C9A C 0.0263(19) 0.9289(16) 0.9133(8)
H5A H 0.0451 0.9339 0.9582
C10A C -0.0366(18) 0.8147(15) 0.8787(7)
H6A H -0.0591 0.7459 0.9021
N2A N -0.0654(13) 0.8000(10) 0.8145(6)
C11A C 0.0281(16) 1.1124(14) 0.7093(9)
H7A H 0.0500 1.1810 0.6857
C12A C 0.0558(16) 1.1239(13) 0.7721(9)
H8A H 0.0943 1.2016 0.7923
N3A N -0.3515(14) 0.5534(13) 0.8140(7)
C13A C -0.345(2) 0.573(2) 0.8807(10)
H9A H -0.2597 0.5897 0.9029
C14A C -0.448(3) 0.570(3) 0.9169(13)
H10A H -0.4358 0.5877 0.9617
C15A C -0.582(3) 0.538(2) 0.8808(17)
H11A H -0.6585 0.5328 0.9030
C16A C -0.595(2) 0.5158(18) 0.8137(15)
C17A C -0.4747(16) 0.5277(13) 0.7829(9)
C18A C -0.4894(16) 0.5054(13) 0.7133(9)
C19A C -0.6198(17) 0.4705(17) 0.6781(12)
C20A C -0.629(2) 0.4369(19) 0.6092(12)
H12A H -0.7115 0.4197 0.5847
C21A C -0.522(2) 0.4303(18) 0.5804(11)
H13A H -0.5313 0.4017 0.5371
C22A C -0.3906(18) 0.4683(17) 0.6173(9)
H14A H -0.3147 0.4659 0.5970
N4A N -0.3753(12) 0.5080(11) 0.6823(6)
C23A C -0.720(2) 0.493(2) 0.7730(17)
H15A H -0.7951 0.4979 0.7934
C24A C -0.736(2) 0.469(2) 0.7139(18)
H16A H -0.8219 0.4491 0.6921
N5A N -0.0766(13) 0.5387(10) 0.6401(5)
C25A C -0.0427(14) 0.5245(11) 0.5883(6)
N6A N -0.0498(14) 0.5480(11) 0.8570(6)
C26A C -0.0259(15) 0.5288(13) 0.9095(6)
C26A_2 C -0.0259(15) 0.5288(13) -0.0905(6)
C27A C 0.1955(15) 0.5967(13) 0.5221(7)
N7A N 0.3137(15) 0.6530(13) 0.5315(8)
N8A N 0.0335(14) 0.2630(12) 0.5414(7)
C28A C 0.0234(13) 0.3523(13) 0.5251(6)
N9A N 0.110(2) 0.3014(16) -0.0348(8)
C29A C 0.0710(18) 0.3777(14) -0.0234(7)
N10A N -0.309(2) 0.3233(16) -0.0108(10)
C30A C -0.199(2) 0.375(2) -0.0052(8)
O1A O -0.1876(13) 0.3813(9) 0.7493(5)
O2A O 0.1051(10) 0.6694(9) 0.7466(5)
Fe2_2 Fe 0.0000 0.5000 1.0000
N11 N 0.2743(12) 0.8261(11) 0.3280(6)
C31 C 0.2882(18) 0.8172(17) 0.3928(8)
H17 H 0.2499 0.7414 0.4094
C32 C 0.359(2) 0.919(2) 0.4360(10)
H18 H 0.3698 0.9094 0.4802
C33 C 0.412(2) 1.033(2) 0.4128(9)
H19 H 0.4557 1.1007 0.4412
C34 C 0.3982(17) 1.0445(14) 0.3448(9)
C35 C 0.3273(13) 0.9376(11) 0.3033(6)
C36 C 0.3042(15) 0.9453(13) 0.2322(8)
C37 C 0.3529(17) 1.0604(16) 0.2079(9)
C38 C 0.331(2) 1.070(2) 0.1426(12)
H20 H 0.3634 1.1461 0.1254
C39 C 0.265(3) 0.972(3) 0.1047(11)
H21 H 0.2467 0.9775 0.0606
C40 C 0.221(2) 0.857(2) 0.1315(9)
H22 H 0.1773 0.7889 0.1035
N12 N 0.2387(14) 0.8421(13) 0.1944(6)
C41 C 0.4520(19) 1.1604(16) 0.3160(12)
H23 H 0.5027 1.2304 0.3419
C42 C 0.4288(18) 1.1665(15) 0.2521(11)
H24 H 0.4627 1.2420 0.2349
N13 N -0.2831(14) 0.1372(13) 0.1812(7)
C43 C -0.304(2) 0.152(3) 0.1174(11)
H25 H -0.2700 0.2292 0.1017
C44 C -0.376(3) 0.052(4) 0.0762(15)
H26 H -0.3898 0.0624 0.0324
C45 C -0.426(3) -0.061(3) 0.0962(16)
H27 H -0.4710 -0.1269 0.0666
C46 C -0.4086(15) -0.0794(12) 0.1680(4)
C47 C -0.3336(12) 0.0267(9) 0.2057(5)
C48 C -0.3086(12) 0.0228(9) 0.2722(5)
C49 C -0.3586(15) -0.0872(12) 0.3010(5)
C50 C -0.4336(16) -0.1933(9) 0.2633(7)
H28 H -0.4670 -0.2669 0.2825
C51 C -0.4586(15) -0.1894(9) 0.1967(7)
H29 H -0.5087 -0.2604 0.1715
C52 C -0.333(3) -0.105(2) 0.3660(16)
H30 H -0.3627 -0.1817 0.3813
C53 C -0.262(3) -0.004(3) 0.4064(13)
H31 H -0.2426 -0.0098 0.4503
C54 C -0.2196(19) 0.1109(19) 0.3780(9)
H32 H -0.1753 0.1806 0.4052
N14 N -0.2404(13) 0.1228(12) 0.3143(7)
loop_
_geom_bond_atom_site_label_1
_geom_bond_atom_site_label_2
_geom_bond_site_symmetry_1
_geom_bond_site_symmetry_2
Gd1 N1 1_555 1_555
N1 C1 1_555 1_555
C1 H1 1_555 1_555
C2 C1 1_555 1_555
H2 C2 1_555 1_555
C3 C2 1_555 1_555
H3 C3 1_555 1_555
C4 C3 1_555 1_555
C5 N1 1_555 1_555
C6 C5 1_555 1_555
C7 C6 1_555 1_555
C8 C7 1_555 1_555
H4 C8 1_555 1_555
C9 C8 1_555 1_555
H5 C9 1_555 1_555
C10 C9 1_555 1_555
H6 C10 1_555 1_555
N2 Gd1 1_555 1_555
C11 C4 1_555 1_555
H7 C11 1_555 1_555
C12 C7 1_555 1_555
H8 C12 1_555 1_555
N3 Gd1 1_555 1_555
C13 N3 1_555 1_555
H9 C13 1_555 1_555
C14 C13 1_555 1_555
H10 C14 1_555 1_555
C15 C14 1_555 1_555
H11 C15 1_555 1_555
C16 C15 1_555 1_555
C17 N3 1_555 1_555
C18 C17 1_555 1_555
C19 C18 1_555 1_555
C20 C19 1_555 1_555
H12 C20 1_555 1_555
C21 C20 1_555 1_555
H13 C21 1_555 1_555
C22 C21 1_555 1_555
H14 C22 1_555 1_555
N4 Gd1 1_555 1_555
C23 C16 1_555 1_555
H15 C23 1_555 1_555
C24 C19 1_555 1_555
H16 C24 1_555 1_555
N5 Gd1 1_555 1_555
C25 N5 1_555 1_555
N6 Gd1 1_555 1_555
C26 N6 1_555 1_555
C27 N7 1_555 1_555
N8 C28 1_555 1_555
C28 Fe1 1_555 1_555
N9 C29 1_555 1_555
C29 Fe2 1_555 1_555
N10 C30 1_555 1_555
C30 Fe2 1_555 1_555
O1 Gd1 1_555 1_555
O2 Gd1 1_555 1_555
Fe1 C25 1_555 1_555
Fe2 C26 1_555 1_555
N11 C31 1_555 1_555
C31 H17 1_555 1_555
C32 C31 1_555 1_555
H18 C32 1_555 1_555
C33 C32 1_555 1_555
H19 C33 1_555 1_555
C34 C33 1_555 1_555
C35 N11 1_555 1_555
C36 C35 1_555 1_555
C37 C36 1_555 1_555
C38 C37 1_555 1_555
H20 C38 1_555 1_555
C39 C38 1_555 1_555
H21 C39 1_555 1_555
C40 C39 1_555 1_555
H22 C40 1_555 1_555
N12 C36 1_555 1_555
C41 C34 1_555 1_555
H23 C41 1_555 1_555
C42 C37 1_555 1_555
H24 C42 1_555 1_555
N13 C43 1_555 1_555
C43 H25 1_555 1_555
C44 C43 1_555 1_555
H26 C44 1_555 1_555
C45 C44 1_555 1_555
H27 C45 1_555 1_555
C46 C45 1_555 1_555
C47 N13 1_555 1_555
C48 C47 1_555 1_555
C49 C48 1_555 1_555
C50 C49 1_555 1_555
H28 C50 1_555 1_555
C51 C46 1_555 1_555
H29 C51 1_555 1_555
C52 C49 1_555 1_555
H30 C52 1_555 1_555
C53 C52 1_555 1_555
H31 C53 1_555 1_555
C54 C53 1_555 1_555
H32 C54 1_555 1_555
N14 C48 1_555 1_555
Gd1A N1A 1_555 1_555
N1A C1A 1_555 1_555
C1A H1A 1_555 1_555
C2A C1A 1_555 1_555
H2A C2A 1_555 1_555
C3A C2A 1_555 1_555
H3A C3A 1_555 1_555
C4A C3A 1_555 1_555
C5A N1A 1_555 1_555
C6A C5A 1_555 1_555
C7A C6A 1_555 1_555
C8A C7A 1_555 1_555
H4A C8A 1_555 1_555
C9A C8A 1_555 1_555
H5A C9A 1_555 1_555
C10A C9A 1_555 1_555
H6A C10A 1_555 1_555
N2A Gd1A 1_555 1_555
C11A C4A 1_555 1_555
H7A C11A 1_555 1_555
C12A C7A 1_555 1_555
H8A C12A 1_555 1_555
N3A Gd1A 1_555 1_555
C13A N3A 1_555 1_555
H9A C13A 1_555 1_555
C14A C13A 1_555 1_555
H10A C14A 1_555 1_555
C15A C14A 1_555 1_555
H11A C15A 1_555 1_555
C16A C15A 1_555 1_555
C17A N3A 1_555 1_555
C18A C17A 1_555 1_555
C19A C18A 1_555 1_555
C20A C19A 1_555 1_555
H12A C20A 1_555 1_555
C21A C20A 1_555 1_555
H13A C21A 1_555 1_555
C22A C21A 1_555 1_555
H14A C22A 1_555 1_555
N4A Gd1A 1_555 1_555
C23A C16A 1_555 1_555
H15A C23A 1_555 1_555
C24A C19A 1_555 1_555
H16A C24A 1_555 1_555
N5A Gd1A 1_555 1_555
C25A Fe1 1_555 1_555
N6A Gd1A 1_555 1_555
C26A N6A 1_555 1_555
C26A_2 Fe2 1_555 1_555
C27A Fe1 1_555 1_555
N7A C27A 1_555 1_555
N8A C28A 1_555 1_555
C28A Fe1 1_555 1_555
N9A C29A 1_555 1_555
C29A Fe2 1_555 1_555
N10A C30A 1_555 1_555
C30A Fe2 1_555 1_555
O1A Gd1A 1_555 1_555
O2A Gd1A 1_555 1_555
Fe2_2 C26A 1_555 1_555
C4 C5 1_555 1_555
C6 N2 1_555 1_555
C10 N2 1_555 1_555
C11 C12 1_555 1_555
C16 C17 1_555 1_555
C18 N4 1_555 1_555
C22 N4 1_555 1_555
C23 C24 1_555 1_555
C27 Fe1 1_555 1_555
C34 C35 1_555 1_555
C40 N12 1_555 1_555
C41 C42 1_555 1_555
C46 C47 1_555 1_555
C50 C51 1_555 1_555
C54 N14 1_555 1_555
C4A C5A 1_555 1_555
C6A N2A 1_555 1_555
C10A N2A 1_555 1_555
C11A C12A 1_555 1_555
C16A C17A 1_555 1_555
C18A N4A 1_555 1_555
C22A N4A 1_555 1_555
C23A C24A 1_555 1_555
N5A C25A 1_555 1_555

#END
