
#######################################################################
#
#                 Cambridge Crystallographic Data Centre
#                                CCDC 
#
#######################################################################
#
# If this CIF has been generated from an entry in the Cambridge 
# Structural Database, then it will include bibliographic, chemical, 
# crystal, experimental, refinement or atomic coordinate data resulting 
# from the CCDC's data processing and validation procedures.
#
#######################################################################

data_CASHOU
_symmetry_cell_setting           triclinic
_symmetry_space_group_name_H-M   'P -1'
_symmetry_Int_Tables_number      2
_space_group_name_Hall           '-P 1'
loop_
_symmetry_equiv_pos_site_id
_symmetry_equiv_pos_as_xyz
1 x,y,z
2 -x,-y,-z
_cell_length_a                   5.5931(6)
_cell_length_b                   8.8605(10)
_cell_length_c                   14.0427(15)
_cell_angle_alpha                90.206(2)
_cell_angle_beta                 96.662(2)
_cell_angle_gamma                96.181(2)
_cell_volume                     687.115
loop_
_atom_site_label
_atom_site_type_symbol
_atom_site_fract_x
_atom_site_fract_y
_atom_site_fract_z
Zn1 Zn 0.39175(9) 0.45322(6) 0.75447(4)
Br1 Br 0.65796(9) 0.58024(6) 0.65460(3)
Br2 Br 0.52298(9) 0.29251(5) 0.88079(3)
N1 N 0.1340(7) 0.3199(5) 0.6675(3)
N2 N 0.2353(7) 0.6176(5) 0.8192(3)
C1 C 0.1088(10) 0.3339(7) 0.5719(4)
H1 H 0.2133 0.4065 0.5455
C2 C -0.0609(11) 0.2481(9) 0.5114(4)
H2 H -0.0687 0.2614 0.4454
C3 C -0.2201(11) 0.1421(9) 0.5485(4)
C4 C -0.1994(12) 0.1257(9) 0.6465(4)
H3 H -0.3025 0.0536 0.6741
C5 C -0.0211(10) 0.2190(7) 0.7040(4)
H4 H -0.0113 0.2097 0.7703
C6 C -0.4117(13) 0.0530(10) 0.4788(5)
H5 H -0.4994 0.1247 0.4405
H6 H -0.3306 -0.0040 0.4355
C7 C 0.0574(9) 0.5830(6) 0.8721(4)
H7 H 0.0044 0.4810 0.8794
C8 C -0.0541(9) 0.6902(6) 0.9171(4)
H8 H -0.1787 0.6599 0.9536
C9 C 0.0208(9) 0.8438(6) 0.9075(4)
C10 C 0.2068(10) 0.8800(6) 0.8511(4)
H9 H 0.2626 0.9810 0.8421
C11 C 0.3088(10) 0.7656(6) 0.8085(4)
H10 H 0.4329 0.7919 0.7710
C12 C -0.0864(9) 0.9648(6) 0.9575(4)
H11 H -0.2360 0.9217 0.9801
H12 H -0.1250 1.0436 0.9123
Zn1A Zn -1.39175(9) -0.45322(6) 0.24553(4)
Zn1A_2 Zn -0.39175(9) 1.54678(6) 1.24553(4)
Br1A Br -1.65796(9) -0.58024(6) 0.34540(3)
Br2A Br -1.52298(9) -0.29251(5) 0.11921(3)
N1A N -1.1340(7) -0.3199(5) 0.3325(3)
N2A N -0.2353(7) 1.3824(5) 1.1808(3)
N2A_2 N -1.2353(7) -0.6176(5) 0.1808(3)
C1A C -1.1088(10) -0.3339(7) 0.4281(4)
H1A H -1.2133 -0.4065 0.4545
C2A C -0.9391(11) -0.2481(9) 0.4886(4)
H2A H -0.9313 -0.2614 0.5546
C3A C -0.7799(11) -0.1421(9) 0.4515(4)
C4A C -0.8006(12) -0.1257(9) 0.3535(4)
H3A H -0.6975 -0.0536 0.3259
C5A C -0.9789(10) -0.2190(7) 0.2960(4)
H4A H -0.9887 -0.2097 0.2297
C6A C -0.5883(13) -0.0530(10) 0.5212(5)
H5A H -0.5006 -0.1247 0.5595
H6A H -0.6694 0.0040 0.5645
C7A C -0.0574(9) 1.4170(6) 1.1279(4)
H7A H -0.0044 1.5190 1.1206
C8A C 0.0541(9) 1.3098(6) 1.0829(4)
H8A H 0.1787 1.3401 1.0464
C9A C -0.0208(9) 1.1562(6) 1.0925(4)
C10A C -0.2068(10) 1.1200(6) 1.1489(4)
H9A H -0.2626 1.0190 1.1579
C11A C -0.3088(10) 1.2344(6) 1.1915(4)
H10A H -0.4329 1.2081 1.2290
C12A C 0.0864(9) 1.0352(6) 1.0425(4)
H11A H 0.2360 1.0783 1.0199
H12A H 0.1250 0.9564 1.0877
loop_
_geom_bond_atom_site_label_1
_geom_bond_atom_site_label_2
_geom_bond_site_symmetry_1
_geom_bond_site_symmetry_2
Zn1 Br1 1_555 1_555
Br2 Zn1 1_555 1_555
N1 Zn1 1_555 1_555
N2 Zn1 1_555 1_555
C1 N1 1_555 1_555
H1 C1 1_555 1_555
C2 C1 1_555 1_555
H2 C2 1_555 1_555
C3 C2 1_555 1_555
C4 C3 1_555 1_555
H3 C4 1_555 1_555
C5 N1 1_555 1_555
H4 C5 1_555 1_555
C6 C3 1_555 1_555
H5 C6 1_555 1_555
H6 C6 1_555 1_555
C7 N2 1_555 1_555
H7 C7 1_555 1_555
C8 C7 1_555 1_555
H8 C8 1_555 1_555
C9 C8 1_555 1_555
C10 C9 1_555 1_555
H9 C10 1_555 1_555
C11 N2 1_555 1_555
H10 C11 1_555 1_555
C12 C9 1_555 1_555
H11 C12 1_555 1_555
H12 C12 1_555 1_555
Zn1A Br1A 1_555 1_555
Zn1A_2 N2A 1_555 1_555
Br2A Zn1A 1_555 1_555
N1A Zn1A 1_555 1_555
N2A C7A 1_555 1_555
N2A_2 Zn1A 1_555 1_555
C1A N1A 1_555 1_555
H1A C1A 1_555 1_555
C2A C1A 1_555 1_555
H2A C2A 1_555 1_555
C3A C2A 1_555 1_555
C4A C3A 1_555 1_555
H3A C4A 1_555 1_555
C5A N1A 1_555 1_555
H4A C5A 1_555 1_555
C6A C6 1_555 1_555
H5A C6A 1_555 1_555
H6A C6A 1_555 1_555
C7A H7A 1_555 1_555
C8A C7A 1_555 1_555
H8A C8A 1_555 1_555
C9A C8A 1_555 1_555
C10A C9A 1_555 1_555
H9A C10A 1_555 1_555
C11A N2A 1_555 1_555
H10A C11A 1_555 1_555
C12A C12 1_555 1_555
H11A C12A 1_555 1_555
H12A C12A 1_555 1_555
C4 C5 1_555 1_555
C10 C11 1_555 1_555
C3A C6A 1_555 1_555
C4A C5A 1_555 1_555
C9A C12A 1_555 1_555
C10A C11A 1_555 1_555

#END
