
#######################################################################
#
#                 Cambridge Crystallographic Data Centre
#                                CCDC 
#
#######################################################################
#
# If this CIF has been generated from an entry in the Cambridge 
# Structural Database, then it will include bibliographic, chemical, 
# crystal, experimental, refinement or atomic coordinate data resulting 
# from the CCDC's data processing and validation procedures.
#
#######################################################################

data_CASPET
_symmetry_cell_setting           triclinic
_symmetry_space_group_name_H-M   'P -1'
_symmetry_Int_Tables_number      2
_space_group_name_Hall           '-P 1'
loop_
_symmetry_equiv_pos_site_id
_symmetry_equiv_pos_as_xyz
1 x,y,z
2 -x,-y,-z
_cell_length_a                   12.283(8)
_cell_length_b                   13.153(9)
_cell_length_c                   13.176(8)
_cell_angle_alpha                69.374(12)
_cell_angle_beta                 71.181(11)
_cell_angle_gamma                62.580(11)
_cell_volume                     1735.17
loop_
_atom_site_label
_atom_site_type_symbol
_atom_site_fract_x
_atom_site_fract_y
_atom_site_fract_z
Mn1 Mn 0.70283(7) 0.38549(7) 0.00952(7)
O1 O 0.6106(3) 0.5388(3) 0.0736(3)
O2 O 0.4127(3) 0.5628(3) 0.1016(3)
O3 O 0.4278(4) 0.5076(4) 0.3341(3)
O4 O 0.2509(5) 0.6362(5) 0.4023(5)
N1 N 0.6232(4) 0.2597(4) 0.1360(4)
N2 N 0.8127(4) 0.2019(4) -0.0381(4)
N3 N 0.8618(4) 0.3356(4) 0.0917(4)
N4 N 0.8476(4) 0.4403(4) -0.1229(4)
N5 N 0.4625(5) 1.0061(6) 0.0425(5)
C1 C 0.8409(6) 0.4892(5) -0.2285(5)
H1 H 0.7667 0.5113 -0.2504
C2 C 0.9411(7) 0.5090(6) -0.3084(6)
H2 H 0.9331 0.5432 -0.3820
C3 C 1.0499(7) 0.4783(6) -0.2786(6)
H3 H 1.1175 0.4898 -0.3314
C4 C 1.0592(5) 0.4293(5) -0.1680(6)
C5 C 0.9568(5) 0.4093(5) -0.0925(5)
C6 C 1.1681(6) 0.3992(6) -0.1271(7)
H4 H 1.2365 0.4128 -0.1765
C7 C 1.1740(6) 0.3522(6) -0.0201(7)
H5 H 1.2457 0.3353 0.0032
C8 C 1.0719(6) 0.3271(5) 0.0600(6)
C9 C 0.9625(5) 0.3565(5) 0.0212(5)
C10 C 1.0749(7) 0.2757(6) 0.1712(7)
H6 H 1.1459 0.2534 0.1982
C11 C 0.9722(8) 0.2586(6) 0.2401(6)
H7 H 0.9712 0.2270 0.3155
C12 C 0.8680(6) 0.2886(5) 0.1974(6)
H8 H 0.7994 0.2747 0.2459
C13 C 0.8995(5) 0.1757(5) -0.1257(5)
H9 H 0.9252 0.2346 -0.1756
C14 C 0.9549(6) 0.0642(6) -0.1477(5)
H10 H 1.0180 0.0487 -0.2092
C15 C 0.9149(6) -0.0205(6) -0.0776(6)
H11 H 0.9500 -0.0950 -0.0914
C16 C 0.8207(6) 0.0028(5) 0.0158(5)
C17 C 0.7709(5) 0.1181(5) 0.0316(5)
C18 C 0.7738(7) -0.0822(5) 0.0923(6)
H12 H 0.8083 -0.1586 0.0829
C19 C 0.6799(7) -0.0531(5) 0.1782(6)
H13 H 0.6519 -0.1106 0.2281
C20 C 0.6218(5) 0.0639(5) 0.1949(5)
C21 C 0.6708(5) 0.1473(5) 0.1235(5)
C22 C 0.5193(6) 0.0984(6) 0.2778(5)
H14 H 0.4843 0.0451 0.3257
C23 C 0.4697(6) 0.2132(6) 0.2883(5)
H15 H 0.3995 0.2388 0.3421
C24 C 0.5264(5) 0.2897(5) 0.2173(5)
H16 H 0.4951 0.3655 0.2273
C25 C 0.4391(6) 0.8980(5) 0.1110(7)
C26 C 0.4848(5) 0.7933(5) 0.0755(5)
H17 H 0.5344 0.7877 0.0058
C27 C 0.4549(5) 0.7001(5) 0.1453(5)
C28 C 0.3806(5) 0.7101(5) 0.2502(5)
C29 C 0.3385(6) 0.8147(6) 0.2805(6)
H18 H 0.2886 0.8217 0.3499
C30 C 0.3676(7) 0.9067(6) 0.2126(7)
H19 H 0.3386 0.9756 0.2355
C31 C 0.4963(5) 0.5916(5) 0.1042(4)
C32 C 0.3506(6) 0.6101(6) 0.3336(5)
O10 O 0.381(4) 1.099(2) 0.102(4)
Mn1A Mn 0.29717(7) 1.61451(7) -0.00952(7)
Mn1A_2 Mn 0.29717(7) 0.61451(7) -0.00952(7)
Mn1_2 Mn 0.70283(7) 1.38549(7) 0.00952(7)
O1A O 0.3894(3) 1.4612(3) -0.0736(3)
O2A O 0.5873(3) 1.4372(3) -0.1016(3)
O2A_2 O 0.5873(3) 0.4372(3) -0.1016(3)
O2_2 O 0.4127(3) 1.5628(3) 0.1016(3)
O3A O 0.5722(4) 1.4924(4) -0.3341(3)
O4A O 0.7491(5) 1.3638(5) -0.4023(5)
N1A N 0.3768(4) 1.7403(4) -0.1360(4)
N2A N 0.1873(4) 1.7981(4) 0.0381(4)
N3A N 0.1382(4) 1.6644(4) -0.0917(4)
N4A N 0.1524(4) 1.5597(4) 0.1229(4)
N5A N 0.5375(5) 0.9939(6) -0.0425(5)
C1A C 0.1591(6) 1.5108(5) 0.2285(5)
H1A H 0.2333 1.4887 0.2504
C2A C 0.0589(7) 1.4910(6) 0.3084(6)
H2A H 0.0669 1.4568 0.3820
C3A C -0.0499(7) 1.5217(6) 0.2786(6)
H3A H -0.1175 1.5102 0.3314
C4A C -0.0592(5) 1.5707(5) 0.1680(6)
C5A C 0.0432(5) 1.5907(5) 0.0925(5)
C6A C -0.1681(6) 1.6008(6) 0.1271(7)
H4A H -0.2365 1.5872 0.1765
C7A C -0.1740(6) 1.6478(6) 0.0201(7)
H5A H -0.2457 1.6647 -0.0032
C8A C -0.0719(6) 1.6729(5) -0.0600(6)
C9A C 0.0375(5) 1.6435(5) -0.0212(5)
C10A C -0.0749(7) 1.7243(6) -0.1712(7)
H6A H -0.1459 1.7466 -0.1982
C11A C 0.0278(8) 1.7414(6) -0.2401(6)
H7A H 0.0288 1.7730 -0.3155
C12A C 0.1320(6) 1.7114(5) -0.1974(6)
H8A H 0.2006 1.7253 -0.2459
C13A C 0.1005(5) 1.8243(5) 0.1257(5)
H9A H 0.0748 1.7654 0.1756
C14A C 0.0451(6) 1.9358(6) 0.1477(5)
H10A H -0.0180 1.9513 0.2092
C15A C 0.0851(6) 2.0205(6) 0.0776(6)
H11A H 0.0500 2.0950 0.0914
C16A C 0.1793(6) 1.9972(5) -0.0158(5)
C17A C 0.2291(5) 1.8819(5) -0.0316(5)
C18A C 0.2262(7) 2.0822(5) -0.0923(6)
H12A H 0.1917 2.1586 -0.0829
C19A C 0.3201(7) 2.0531(5) -0.1782(6)
H13A H 0.3481 2.1106 -0.2281
C20A C 0.3782(5) 1.9361(5) -0.1949(5)
C21A C 0.3292(5) 1.8527(5) -0.1235(5)
C22A C 0.4807(6) 1.9016(6) -0.2778(5)
H14A H 0.5157 1.9549 -0.3257
C23A C 0.5303(6) 1.7868(6) -0.2883(5)
H15A H 0.6005 1.7612 -0.3421
C24A C 0.4736(5) 1.7103(5) -0.2173(5)
H16A H 0.5049 1.6345 -0.2273
C25A C 0.5609(6) 1.1020(5) -0.1110(7)
C26A C 0.5152(5) 1.2067(5) -0.0755(5)
H17A H 0.4656 1.2123 -0.0058
C27A C 0.5451(5) 1.2999(5) -0.1453(5)
C28A C 0.6194(5) 1.2899(5) -0.2502(5)
C29A C 0.6615(6) 1.1853(6) -0.2805(6)
H18A H 0.7114 1.1783 -0.3499
C30A C 0.6324(7) 1.0933(6) -0.2126(7)
H19A H 0.6614 1.0244 -0.2355
C31A C 0.5037(5) 1.4084(5) -0.1042(4)
C32A C 0.6494(6) 1.3899(6) -0.3336(5)
O10A O 0.619(4) 0.901(2) -0.102(4)
O5 O -0.0179(5) 0.3336(4) 0.5590(4)
H20 H -0.0895 0.3368 0.5777
O6 O 0.4439(4) -0.1332(4) 0.4772(4)
H21 H 0.4897 -0.1979 0.5105
O7 O 0.2964(4) -0.2060(4) 0.5559(4)
C33 C 0.2386(6) -0.0013(5) 0.5325(5)
C34 C 0.1125(6) 0.0265(6) 0.5460(5)
H22 H 0.0860 -0.0307 0.5498
C35 C 0.0253(6) 0.1386(6) 0.5539(5)
H23 H -0.0592 0.1569 0.5613
C36 C 0.0634(7) 0.2227(6) 0.5510(5)
C37 C 0.1897(7) 0.1947(7) 0.5380(5)
H24 H 0.2160 0.2513 0.5362
C38 C 0.2764(6) 0.0842(6) 0.5278(5)
H25 H 0.3611 0.0669 0.5177
C39 C 0.3272(6) -0.1224(6) 0.5249(5)
O8 O 0.3896(4) 0.3459(4) 0.5236(4)
H26 H 0.4552 0.3580 0.4960
H27 H 0.3282 0.3940 0.4860
O9 O 0.6603(4) 0.4849(4) 0.3667(4)
H28 H 0.7006 0.4208 0.4063
H29 H 0.5926 0.4830 0.3581
loop_
_geom_bond_atom_site_label_1
_geom_bond_atom_site_label_2
_geom_bond_site_symmetry_1
_geom_bond_site_symmetry_2
Mn1 O1 1_555 1_555
O1 C31 1_555 1_555
O2 C31 1_555 1_555
O3 C32 1_555 1_555
O4 C32 1_555 1_555
N1 Mn1 1_555 1_555
N2 Mn1 1_555 1_555
N3 Mn1 1_555 1_555
N4 Mn1 1_555 1_555
N5 C25 1_555 1_555
C1 N4 1_555 1_555
H1 C1 1_555 1_555
C2 C1 1_555 1_555
H2 C2 1_555 1_555
C3 C2 1_555 1_555
H3 C3 1_555 1_555
C4 C3 1_555 1_555
C5 N4 1_555 1_555
C6 C4 1_555 1_555
H4 C6 1_555 1_555
C7 C6 1_555 1_555
H5 C7 1_555 1_555
C8 C7 1_555 1_555
C9 N3 1_555 1_555
C10 C8 1_555 1_555
H6 C10 1_555 1_555
C11 C10 1_555 1_555
H7 C11 1_555 1_555
C12 N3 1_555 1_555
H8 C12 1_555 1_555
C13 N2 1_555 1_555
H9 C13 1_555 1_555
C14 C13 1_555 1_555
H10 C14 1_555 1_555
C15 C14 1_555 1_555
H11 C15 1_555 1_555
C16 C15 1_555 1_555
C17 N2 1_555 1_555
C18 C16 1_555 1_555
H12 C18 1_555 1_555
C19 C18 1_555 1_555
H13 C19 1_555 1_555
C20 C19 1_555 1_555
C21 N1 1_555 1_555
C22 C20 1_555 1_555
H14 C22 1_555 1_555
C23 C22 1_555 1_555
H15 C23 1_555 1_555
C24 N1 1_555 1_555
H16 C24 1_555 1_555
C25 C26 1_555 1_555
C26 H17 1_555 1_555
C27 C26 1_555 1_555
C28 C27 1_555 1_555
C29 C28 1_555 1_555
H18 C29 1_555 1_555
C30 C25 1_555 1_555
H19 C30 1_555 1_555
C31 C27 1_555 1_555
C32 C28 1_555 1_555
O5 H20 1_555 1_555
O6 H21 1_555 1_555
O7 C39 1_555 1_555
C33 C34 1_555 1_555
C34 H22 1_555 1_555
C35 C34 1_555 1_555
H23 C35 1_555 1_555
C36 O5 1_555 1_555
C37 C36 1_555 1_555
H24 C37 1_555 1_555
C38 C33 1_555 1_555
H25 C38 1_555 1_555
C39 O6 1_555 1_555
O8 H26 1_555 1_555
H27 O8 1_555 1_555
O9 H28 1_555 1_555
H29 O9 1_555 1_555
O10 N5 1_555 1_555
Mn1A O1A 1_555 1_555
Mn1A_2 O2 1_555 1_555
Mn1_2 O2A 1_555 1_555
O1A C31A 1_555 1_555
O2A C31A 1_555 1_555
O2A_2 Mn1 1_555 1_555
O2_2 Mn1A 1_555 1_555
O3A C32A 1_555 1_555
O4A C32A 1_555 1_555
N1A Mn1A 1_555 1_555
N2A Mn1A 1_555 1_555
N3A Mn1A 1_555 1_555
N4A Mn1A 1_555 1_555
N5A N5 1_555 1_555
C1A N4A 1_555 1_555
H1A C1A 1_555 1_555
C2A C1A 1_555 1_555
H2A C2A 1_555 1_555
C3A C2A 1_555 1_555
H3A C3A 1_555 1_555
C4A C3A 1_555 1_555
C5A N4A 1_555 1_555
C6A C4A 1_555 1_555
H4A C6A 1_555 1_555
C7A C6A 1_555 1_555
H5A C7A 1_555 1_555
C8A C7A 1_555 1_555
C9A N3A 1_555 1_555
C10A C8A 1_555 1_555
H6A C10A 1_555 1_555
C11A C10A 1_555 1_555
H7A C11A 1_555 1_555
C12A N3A 1_555 1_555
H8A C12A 1_555 1_555
C13A N2A 1_555 1_555
H9A C13A 1_555 1_555
C14A C13A 1_555 1_555
H10A C14A 1_555 1_555
C15A C14A 1_555 1_555
H11A C15A 1_555 1_555
C16A C15A 1_555 1_555
C17A N2A 1_555 1_555
C18A C16A 1_555 1_555
H12A C18A 1_555 1_555
C19A C18A 1_555 1_555
H13A C19A 1_555 1_555
C20A C19A 1_555 1_555
C21A N1A 1_555 1_555
C22A C20A 1_555 1_555
H14A C22A 1_555 1_555
C23A C22A 1_555 1_555
H15A C23A 1_555 1_555
C24A N1A 1_555 1_555
H16A C24A 1_555 1_555
C25A N5A 1_555 1_555
C26A C25A 1_555 1_555
H17A C26A 1_555 1_555
C27A C26A 1_555 1_555
C28A C27A 1_555 1_555
C29A C28A 1_555 1_555
H18A C29A 1_555 1_555
C30A C25A 1_555 1_555
H19A C30A 1_555 1_555
C31A C27A 1_555 1_555
C32A C28A 1_555 1_555
O10A N5A 1_555 1_555
C4 C5 1_555 1_555
C5 C9 1_555 1_555
C8 C9 1_555 1_555
C11 C12 1_555 1_555
C16 C17 1_555 1_555
C17 C21 1_555 1_555
C20 C21 1_555 1_555
C23 C24 1_555 1_555
C29 C30 1_555 1_555
C33 C39 1_555 1_555
C35 C36 1_555 1_555
C37 C38 1_555 1_555
C4A C5A 1_555 1_555
C5A C9A 1_555 1_555
C8A C9A 1_555 1_555
C11A C12A 1_555 1_555
C16A C17A 1_555 1_555
C17A C21A 1_555 1_555
C20A C21A 1_555 1_555
C23A C24A 1_555 1_555
C29A C30A 1_555 1_555

#END
