
#######################################################################
#
#                 Cambridge Crystallographic Data Centre
#                                CCDC 
#
#######################################################################
#
# If this CIF has been generated from an entry in the Cambridge 
# Structural Database, then it will include bibliographic, chemical, 
# crystal, experimental, refinement or atomic coordinate data resulting 
# from the CCDC's data processing and validation procedures.
#
#######################################################################

data_CASPUJ
_symmetry_cell_setting           triclinic
_symmetry_space_group_name_H-M   'P -1'
_symmetry_Int_Tables_number      2
_space_group_name_Hall           '-P 1'
loop_
_symmetry_equiv_pos_site_id
_symmetry_equiv_pos_as_xyz
1 x,y,z
2 -x,-y,-z
_cell_length_a                   13.724(2)
_cell_length_b                   16.653(2)
_cell_length_c                   18.152(3)
_cell_angle_alpha                104.270(2)
_cell_angle_beta                 107.900(2)
_cell_angle_gamma                105.653(2)
_cell_volume                     3547.19
loop_
_atom_site_label
_atom_site_type_symbol
_atom_site_fract_x
_atom_site_fract_y
_atom_site_fract_z
Ce1 Ce 0.84512(3) 0.82870(2) 0.88002(2)
Ce2 Ce 0.66369(3) 0.66945(2) 0.61461(2)
Ce3 Ce 0.66098(3) 0.05191(2) 1.09622(2)
Ce4 Ce 0.82659(3) 0.41819(2) 1.37235(2)
S1 S 0.82583(16) 0.70376(12) 1.15690(11)
S2 S 0.91883(16) 0.57711(12) 1.07638(11)
S3 S 0.99143(18) 0.42368(13) 1.08170(14)
S4 S 0.51476(16) 0.30976(13) 1.03098(12)
S5 S 0.46061(16) 0.35292(13) 0.87634(12)
S6 S 0.51291(16) 0.48299(14) 0.79294(12)
S7 S 0.27370(15) 0.55511(11) 0.29345(11)
S8 S 0.22564(16) 0.60854(12) 0.14265(12)
S9 S 0.27841(16) 0.75135(13) 0.07301(12)
S10 S 0.48814(18) 0.92455(13) 0.57523(13)
S11 S 0.41339(17) 1.07722(12) 0.57586(11)
S12 S 0.32770(16) 1.20526(12) 0.66392(11)
S13 S 0.99597(17) 1.01922(15) 0.70575(13)
S14 S 1.04477(17) 1.15368(14) 0.62670(13)
S15 S 0.99591(16) 1.20174(14) 0.47617(13)
S16 S 0.77300(15) 1.05438(11) 0.78729(11)
O1 O 0.8716(5) 0.6922(4) 0.6569(4)
H1 H 0.9107 0.7025 0.7059
H2 H 0.9033 0.6785 0.6260
O2 O 0.6403(5) 0.8078(4) 0.8348(3)
H3 H 0.6225 0.8320 0.8717
H4 H 0.5962 0.7991 0.7880
O3 O 0.6252(5) 0.3738(4) 1.3239(5)
H5 H 0.5884 0.4030 1.3084
H6 H 0.5715 0.3363 1.3265
O4 O 0.7840(5) 0.5264(4) 1.3083(3)
H7 H 0.7662 0.5721 1.3294
H8 H 0.8092 0.5349 1.2734
O5 O 0.8057(7) 0.5414(4) 1.4725(4)
H9 H 0.7701 0.5362 1.5031
H10 H 0.7570 0.5529 1.4419
O6 O 0.7007(5) -0.0427(4) 1.1770(3)
H11 H 0.7256 -0.0826 1.1675
H12 H 0.6857 -0.0390 1.2186
O7 O 0.6110(4) 0.0967(3) 1.2159(3)
H13 H 0.6505 0.1496 1.2475
H14 H 0.6124 0.0629 1.2432
O8 O 0.8332(4) 0.1800(3) 1.1977(3)
H15 H 0.8311 0.2306 1.2114
H16 H 0.8988 0.1826 1.2150
O9 O 0.8282(4) 0.0213(4) 1.0892(3)
H17 H 0.8823 0.0264 1.1294
H18 H 0.8068 -0.0269 1.0503
O10 O 0.6142(4) -0.1008(3) 0.9836(3)
H19 H 0.5536 -0.1256 0.9859
H20 H 0.6572 -0.1266 0.9966
O11 O 0.7868(6) 0.8145(4) 0.9900(4)
O12 O 0.7462(6) 0.8242(5) 1.0990(4)
O13 O 1.0783(4) 0.2888(3) 1.0812(3)
O14 O 1.0270(4) 0.2383(3) 1.1693(3)
O15 O 0.6248(4) 0.2053(3) 1.1112(3)
O16 O 0.7622(4) 0.3201(3) 1.2203(3)
O17 O 0.5587(4) 0.5729(3) 0.6867(3)
O18 O 0.7228(4) 0.6764(3) 0.7693(3)
O19 O 0.4798(5) 0.5878(4) 0.5129(3)
O20 O 0.3238(4) 0.4787(3) 0.4181(3)
O21 O 0.4639(4) 0.9540(3) 0.0498(3)
O22 O 0.2850(4) 0.8830(4) 0.0035(3)
O23 O 0.5455(4) 0.7450(3) 0.6668(3)
O24 O 0.5890(4) 0.7934(3) 0.5745(3)
O25 O 0.2627(6) 1.3373(4) 0.6164(4)
O26 O 0.2890(5) 1.3204(4) 0.5002(4)
O27 O 0.8270(4) 0.9756(3) 0.9114(3)
O28 O 0.9753(5) 1.0869(4) 1.0080(3)
O29 O 0.8266(6) 1.3872(4) 0.4995(4)
O30 O 0.9924(5) 1.4843(5) 0.5885(5)
O31 O 0.7882(4) 0.8219(3) 0.7257(3)
O32 O 0.9494(4) 0.9287(3) 0.8108(3)
O33 O 0.7546(4) 1.2474(3) 0.3459(3)
O34 O 0.9333(5) 1.3126(4) 0.3857(4)
S17 S 0.72743(16) 1.11222(12) 0.63836(11)
S18 S 0.78776(16) 1.25967(13) 0.57336(12)
N1 N 0.8647(5) 0.5687(4) 1.1969(4)
N2 N 0.9055(5) 0.5019(4) 1.1816(4)
N3 N 0.6224(6) 0.4614(4) 1.0116(4)
N4 N 0.6218(5) 0.5039(4) 0.9540(4)
N5 N 0.3806(6) 0.7136(4) 0.2844(4)
N6 N 0.3820(5) 0.7609(4) 0.2316(4)
N7 N 0.4091(5) 1.0026(4) 0.6821(4)
N8 N 0.3690(5) 1.0695(4) 0.7005(4)
N9 N 0.8865(6) 1.0010(4) 0.5459(4)
N10 N 0.8856(6) 1.0455(5) 0.4893(4)
N11 N 0.8800(5) 1.2146(4) 0.7813(4)
N12 N 0.8829(5) 1.2633(4) 0.7300(4)
C1 C 0.7838(6) 0.7922(4) 1.0504(4)
C2 C 0.8215(6) 0.7170(5) 1.0608(4)
H21 H 0.7713 0.6619 1.0149
H22 H 0.8944 0.7297 1.0600
C3 C 0.8670(5) 0.6137(4) 1.1486(4)
C4 C 0.9354(6) 0.4986(5) 1.1201(4)
C5 C 0.9679(8) 0.3513(6) 1.1375(7)
H23 H 0.8894 0.3171 1.1167
H24 H 0.9935 0.3865 1.1958
C6 C 1.0280(6) 0.2890(5) 1.1280(4)
C7 C 0.6757(6) 0.2854(5) 1.1517(4)
C8 C 0.6432(7) 0.3559(5) 1.1219(5)
H25 H 0.7016 0.3895 1.1093
H26 H 0.6365 0.3972 1.1664
C9 C 0.5434(6) 0.3838(5) 0.9798(4)
C10 C 0.5433(6) 0.4553(5) 0.8824(4)
C11 C 0.6326(6) 0.5855(5) 0.8291(4)
H27 H 0.6275 0.6327 0.8697
H28 H 0.6995 0.5761 0.8553
C12 C 0.6364(6) 0.6121(4) 0.7566(4)
C13 C 0.3991(5) 0.5541(4) 0.4439(4)
C14 C 0.3972(6) 0.6096(5) 0.3890(5)
H29 H 0.4619 0.6186 0.3760
H30 H 0.3998 0.6678 0.4185
C15 C 0.3027(6) 0.6337(5) 0.2473(4)
C16 C 0.3069(6) 0.7148(5) 0.1567(4)
C17 C 0.3988(6) 0.8530(5) 0.1140(5)
H31 H 0.4076 0.8910 0.1675
H32 H 0.4648 0.8395 0.1208
C18 C 0.3799(5) 0.8990(4) 0.0519(4)
C19 C 0.5430(6) 0.7951(4) 0.6237(4)
C20 C 0.4825(7) 0.8568(5) 0.6371(5)
H33 H 0.5151 0.8948 0.6952
H34 H 0.4060 0.8217 0.6232
C21 C 0.4346(6) 0.9989(4) 0.6184(4)
C22 C 0.3666(5) 1.1137(4) 0.6516(4)
C23 C 0.3171(7) 1.2182(5) 0.5667(4)
H35 H 0.3867 1.2254 0.5611
H36 H 0.2604 1.1651 0.5213
C24 C 0.2883(6) 1.2994(5) 0.5620(4)
C25 C 0.8735(5) 0.8881(4) 0.7401(4)
C26 C 0.8787(6) 0.9159(5) 0.6679(4)
H37 H 0.8113 0.9241 0.6406
H38 H 0.8862 0.8697 0.6279
C27 C 0.9637(6) 1.0490(5) 0.6179(5)
C28 C 0.9644(6) 1.1240(5) 0.5232(5)
C29 C 0.8633(7) 1.1654(5) 0.3895(5)
H39 H 0.8610 1.1235 0.3407
H40 H 0.8037 1.1361 0.4033
C30 C 0.8503(6) 1.2479(4) 0.3725(4)
C31 C 0.8980(5) 1.0524(4) 0.9377(4)
C32 C 0.8953(6) 1.1087(5) 0.8836(4)
H41 H 0.9606 1.1192 0.8714
H42 H 0.8964 1.1661 0.9136
C33 C 0.8026(6) 1.1350(5) 0.7427(4)
C34 C 0.8095(6) 1.2192(4) 0.6549(4)
C35 C 0.9100(6) 1.3621(5) 0.6220(5)
H43 H 0.9122 1.3979 0.6740
H44 H 0.9758 1.3478 0.6340
C36 C 0.9078(7) 1.4140(5) 0.5655(5)
Ce1A Ce 1.15488(3) 0.17130(2) 1.11998(2)
Ce1A_2 Ce 1.15488(3) 1.17130(2) 1.11998(2)
Ce2A Ce 0.33631(3) 0.33055(2) 0.38539(2)
Ce2A_2 Ce 0.33631(3) 1.33055(2) 0.38539(2)
Ce3A Ce 0.33902(3) 0.94809(2) -0.09622(2)
Ce3_2 Ce 0.66098(3) 1.05191(2) 0.09622(2)
Ce4_2 Ce 0.82659(3) 1.41819(2) 0.37235(2)
Ce4A Ce 1.17341(3) 1.58181(2) 0.62765(2)
O13A O 0.9217(4) 0.7112(3) 0.9188(3)
O14A O 0.9730(4) 0.7617(3) 0.8307(3)
O20A O 0.6762(4) 0.5213(3) 0.5819(3)
O21A O 0.5361(4) 0.0460(3) 0.9502(3)
O21_2 O 0.4639(4) -0.0460(3) 1.0498(3)
O22A O 0.7150(4) 0.1170(4) 0.9965(3)
O26A O 0.7110(5) 0.6796(4) 0.4998(4)
O28A O 1.0247(5) 0.9131(4) 0.9920(3)
O29_2 O 0.8266(6) 0.3872(4) 1.4995(4)
O30A O 1.0076(5) 0.5157(5) 1.4115(5)
O33_2 O 0.7546(4) 0.2474(3) 1.3459(3)
O34_2 O 0.9333(5) 0.3126(4) 1.3857(4)
loop_
_geom_bond_atom_site_label_1
_geom_bond_atom_site_label_2
_geom_bond_site_symmetry_1
_geom_bond_site_symmetry_2
Ce1 O2 1_555 1_555
Ce2 O1 1_555 1_555
Ce3 O6 1_555 1_555
Ce4 O3 1_555 1_555
S1 C2 1_555 1_555
S2 C3 1_555 1_555
S3 C4 1_555 1_555
S4 C8 1_555 1_555
S5 C9 1_555 1_555
S6 C10 1_555 1_555
S7 C14 1_555 1_555
S8 C15 1_555 1_555
S9 C16 1_555 1_555
S10 C20 1_555 1_555
S11 C21 1_555 1_555
S12 C22 1_555 1_555
S13 C26 1_555 1_555
S14 C27 1_555 1_555
S15 C28 1_555 1_555
S16 C32 1_555 1_555
O1 H1 1_555 1_555
H2 O1 1_555 1_555
O2 H3 1_555 1_555
H4 O2 1_555 1_555
O3 H5 1_555 1_555
H6 O3 1_555 1_555
O4 Ce4 1_555 1_555
H7 O4 1_555 1_555
H8 O4 1_555 1_555
O5 Ce4 1_555 1_555
H9 O5 1_555 1_555
H10 O5 1_555 1_555
O6 H11 1_555 1_555
H12 O6 1_555 1_555
O7 Ce3 1_555 1_555
H13 O7 1_555 1_555
H14 O7 1_555 1_555
O8 Ce3 1_555 1_555
H15 O8 1_555 1_555
H16 O8 1_555 1_555
O9 Ce3 1_555 1_555
H17 O9 1_555 1_555
H18 O9 1_555 1_555
O10 Ce3 1_555 1_555
H19 O10 1_555 1_555
H20 O10 1_555 1_555
O11 Ce1 1_555 1_555
O12 C1 1_555 1_555
O13 C6 1_555 1_555
O14 C6 1_555 1_555
O15 Ce3 1_555 1_555
O16 Ce4 1_555 1_555
O17 Ce2 1_555 1_555
O18 Ce1 1_555 1_555
O19 Ce2 1_555 1_555
O20 C13 1_555 1_555
O21 C18 1_555 1_555
O22 C18 1_555 1_555
O23 Ce2 1_555 1_555
O24 Ce2 1_555 1_555
O25 C24 1_555 1_555
O26 C24 1_555 1_555
O27 Ce1 1_555 1_555
O28 C31 1_555 1_555
O29 C36 1_555 1_555
O30 C36 1_555 1_555
O31 Ce1 1_555 1_555
O32 Ce1 1_555 1_555
O33 C30 1_555 1_555
O34 C30 1_555 1_555
S17 C33 1_555 1_555
S18 C34 1_555 1_555
N1 N2 1_555 1_555
N2 C4 1_555 1_555
N3 N4 1_555 1_555
N4 C10 1_555 1_555
N5 N6 1_555 1_555
N6 C16 1_555 1_555
N7 N8 1_555 1_555
N8 C22 1_555 1_555
N9 N10 1_555 1_555
N10 C28 1_555 1_555
N11 N12 1_555 1_555
N12 C34 1_555 1_555
C1 O11 1_555 1_555
C2 C1 1_555 1_555
H21 C2 1_555 1_555
H22 C2 1_555 1_555
C3 S1 1_555 1_555
C4 S2 1_555 1_555
C5 S3 1_555 1_555
H23 C5 1_555 1_555
H24 C5 1_555 1_555
C6 C5 1_555 1_555
C7 O15 1_555 1_555
C8 C7 1_555 1_555
H25 C8 1_555 1_555
H26 C8 1_555 1_555
C9 S4 1_555 1_555
C10 S5 1_555 1_555
C11 S6 1_555 1_555
H27 C11 1_555 1_555
H28 C11 1_555 1_555
C12 O17 1_555 1_555
C13 O19 1_555 1_555
C14 C13 1_555 1_555
H29 C14 1_555 1_555
H30 C14 1_555 1_555
C15 S7 1_555 1_555
C16 S8 1_555 1_555
C17 S9 1_555 1_555
H31 C17 1_555 1_555
H32 C17 1_555 1_555
C18 C17 1_555 1_555
C19 O23 1_555 1_555
C20 C19 1_555 1_555
H33 C20 1_555 1_555
H34 C20 1_555 1_555
C21 S10 1_555 1_555
C22 S11 1_555 1_555
C23 S12 1_555 1_555
H35 C23 1_555 1_555
H36 C23 1_555 1_555
C24 C23 1_555 1_555
C25 O31 1_555 1_555
C26 C25 1_555 1_555
H37 C26 1_555 1_555
H38 C26 1_555 1_555
C27 S13 1_555 1_555
C28 S14 1_555 1_555
C29 S15 1_555 1_555
H39 C29 1_555 1_555
H40 C29 1_555 1_555
C30 C29 1_555 1_555
C31 O27 1_555 1_555
C32 C31 1_555 1_555
H41 C32 1_555 1_555
H42 C32 1_555 1_555
C33 S16 1_555 1_555
C34 S17 1_555 1_555
C35 S18 1_555 1_555
H43 C35 1_555 1_555
H44 C35 1_555 1_555
C36 C35 1_555 1_555
Ce1A O13 1_555 1_555
Ce1A_2 O28 1_555 1_555
Ce2A O20 1_555 1_555
Ce2A_2 O26 1_555 1_555
Ce3A O21 1_555 1_555
Ce3_2 O21 1_555 1_555
Ce4_2 O29 1_555 1_555
Ce4A O30 1_555 1_555
O13A Ce1 1_555 1_555
O14A Ce1 1_555 1_555
O20A Ce2 1_555 1_555
O21A Ce3 1_555 1_555
O21_2 Ce3 1_555 1_555
O22A Ce3 1_555 1_555
O26A Ce2 1_555 1_555
O28A Ce1 1_555 1_555
O29_2 Ce4 1_555 1_555
O30A Ce4 1_555 1_555
O33_2 Ce4 1_555 1_555
O34_2 Ce4 1_555 1_555
Ce2 O18 1_555 1_555
Ce2 O31 1_555 1_555
O14 Ce1A 1_555 1_555
O16 C7 1_555 1_555
O18 C12 1_555 1_555
O22 Ce3A 1_555 1_555
O24 C19 1_555 1_555
O32 C25 1_555 1_555
O33 Ce4_2 1_555 1_555
O34 Ce4_2 1_555 1_555
N1 C3 1_555 1_555
N3 C9 1_555 1_555
N5 C15 1_555 1_555
N7 C21 1_555 1_555
N9 C27 1_555 1_555
N11 C33 1_555 1_555
C11 C12 1_555 1_555

#END
