
#######################################################################
#
#                 Cambridge Crystallographic Data Centre
#                                CCDC 
#
#######################################################################
#
# If this CIF has been generated from an entry in the Cambridge 
# Structural Database, then it will include bibliographic, chemical, 
# crystal, experimental, refinement or atomic coordinate data resulting 
# from the CCDC's data processing and validation procedures.
#
#######################################################################

data_CASWUP
_symmetry_cell_setting           triclinic
_symmetry_space_group_name_H-M   'P -1'
_symmetry_Int_Tables_number      2
_space_group_name_Hall           '-P 1'
loop_
_symmetry_equiv_pos_site_id
_symmetry_equiv_pos_as_xyz
1 x,y,z
2 -x,-y,-z
_cell_length_a                   13.280(3)
_cell_length_b                   13.641(3)
_cell_length_c                   16.356(3)
_cell_angle_alpha                89.68(3)
_cell_angle_beta                 88.31(3)
_cell_angle_gamma                75.87(3)
_cell_volume                     2872.03
loop_
_atom_site_label
_atom_site_type_symbol
_atom_site_fract_x
_atom_site_fract_y
_atom_site_fract_z
Na1 Na 0.5819(7) -0.3274(6) 0.5000(7)
Na2 Na 0.9184(6) -0.6724(6) 0.4999(6)
Ag3 Ag 0.86885(13) -0.47485(10) -0.00008(10)
Ag4 Ag 0.63148(12) -0.52529(10) 0.99990(10)
O29 O 0.7482(14) -0.3488(10) 0.4183(11)
O30 O 0.7835(11) -0.5161(9) 0.4280(10)
O31 O 1.0684(13) -0.6498(8) 0.4161(9)
O32 O 0.9754(11) -0.5165(9) 0.5708(10)
O33 O 0.7178(11) -0.4838(9) 0.5720(10)
O34 O 0.7591(15) -0.6488(11) 0.5858(12)
O35 O 0.5255(11) -0.4839(9) 0.4280(9)
O36 O 0.4296(16) -0.3512(13) 0.5832(13)
N1 N 0.8522(12) -0.4692(10) 0.1315(11)
N2 N 0.8826(11) -0.4675(9) 0.8701(11)
N3 N 0.6472(10) -0.5325(9) 0.8690(10)
N4 N 0.3805(11) -0.4694(10) 0.8683(10)
C1 C 0.8601(13) -0.5496(12) 0.1800(13)
H5 H 0.8801 -0.6140 0.1574
C2 C 0.8395(15) -0.5391(14) 0.2619(15)
H6 H 0.8480 -0.5967 0.2943
C3 C 0.8057(11) -0.4438(11) 0.2986(11)
C4 C 0.8015(12) -0.3625(11) 0.2473(12)
H7 H 0.7831 -0.2970 0.2681
C5 C 0.8243(13) -0.3783(12) 0.1661(12)
H8 H 0.8201 -0.3221 0.1328
C6 C 0.7748(13) -0.4329(11) 0.3903(10)
C7 C 0.8660(13) -0.3777(13) 0.8351(12)
H9 H 0.8434 -0.3208 0.8681
C8 C 0.8801(14) -0.3639(12) 0.7533(13)
H10 H 0.8648 -0.2994 0.7309
C9 C 0.9182(13) -0.4490(12) 0.7039(12)
C10 C 0.9325(11) -0.5429(9) 0.7358(10)
H11 H 0.9519 -0.6005 0.7032
C11 C 0.9164(13) -0.5489(11) 0.8218(12)
H12 H 0.9300 -0.6125 0.8459
C12 C 1.0609(13) -0.5663(11) 0.3886(12)
C13 C 0.6386(13) -0.4527(12) 0.8219(13)
H13 H 0.6153 -0.3891 0.8458
C14 C 0.6629(11) -0.4578(9) 0.7371(11)
H14 H 0.6595 -0.3995 0.7065
C15 C 0.6908(14) -0.5488(12) 0.7024(13)
C16 C 0.6993(14) -0.6357(13) 0.7518(14)
H15 H 0.7200 -0.6999 0.7288
C17 C 0.6764(13) -0.6244(12) 0.8342(13)
H16 H 0.6813 -0.6816 0.8665
C18 C 0.7230(17) -0.5630(15) 0.6164(16)
C19 C 0.4121(14) -0.5492(13) 0.8200(13)
H17 H 0.4207 -0.6136 0.8422
C20 C 0.4319(15) -0.5395(12) 0.7401(14)
H18 H 0.4583 -0.5979 0.7095
C21 C 0.4148(12) -0.4455(11) 0.7000(12)
C22 C 0.3810(12) -0.3629(11) 0.7499(11)
H19 H 0.3700 -0.2980 0.7284
C23 C 0.3630(12) -0.3767(11) 0.8336(12)
H20 H 0.3382 -0.3200 0.8665
C24 C 0.5563(16) -0.5639(15) 0.3848(16)
O37 O 0.4304(13) -0.2316(11) 0.4403(10)
O38 O 0.6862(14) -0.2322(12) 0.5599(10)
O39 O 0.5332(10) -0.1259(8) 0.4997(8)
O40 O 1.0691(15) -0.7668(13) 0.5614(13)
O41 O 0.8137(15) -0.7683(12) 0.4404(12)
Na1A Na 1.4181(7) -0.6726(6) 0.5000(7)
Na1A_2 Na 0.4181(7) -0.6726(6) 0.5000(7)
Na2A Na 1.0816(6) -0.3276(6) 0.5001(6)
Ag3_2 Ag 0.86885(13) -0.47485(10) 0.99992(10)
Ag3A Ag 1.13115(13) -0.52515(10) 1.00008(10)
Ag3A_2 Ag 1.13115(13) -0.52515(10) 0.00008(10)
Ag4A Ag 0.36852(12) -0.47471(10) 1.00010(10)
Ag4_2 Ag 0.63148(12) -0.52529(10) -0.00010(10)
Ag4A_2 Ag 1.36852(12) -0.47471(10) 0.00010(10)
O29A O 1.2518(14) -0.6512(10) 0.5817(11)
O30A O 1.2165(11) -0.4839(9) 0.5720(10)
O31A O 0.9316(13) -0.3502(8) 0.5839(9)
O32A O 1.0246(11) -0.4835(9) 0.4292(10)
O33A O 1.2822(11) -0.5162(9) 0.4280(10)
O34A O 1.2409(15) -0.3512(11) 0.4142(12)
O35A O 0.4745(11) -0.5161(9) 0.5720(9)
O35A_2 O 1.4745(11) -0.5161(9) 0.5720(9)
O36A O 0.5704(16) -0.6488(13) 0.4168(13)
O36A_2 O 1.5704(16) -0.6488(13) 0.4168(13)
N1A N 1.1478(12) -0.5308(10) 0.8685(11)
N2_2 N 0.8826(11) -0.4675(9) -0.1299(11)
N2A N 1.1174(11) -0.5325(9) 1.1299(11)
N2A_2 N 1.1174(11) -0.5325(9) 0.1299(11)
N3A N 1.3528(10) -0.4675(9) 0.1310(10)
N4A N 0.6195(11) -0.5306(10) 1.1317(10)
N4A_2 N 0.6195(11) -0.5306(10) 0.1317(10)
N4_2 N 1.3805(11) -0.4694(10) -0.1317(10)
C1A C 1.1399(13) -0.4504(12) 0.8200(13)
H5A H 1.1199 -0.3860 0.8426
C2A C 1.1605(15) -0.4609(14) 0.7381(15)
H6A H 1.1520 -0.4033 0.7057
C3A C 1.1943(11) -0.5562(11) 0.7014(11)
C4A C 1.1985(12) -0.6375(11) 0.7527(12)
H7A H 1.2169 -0.7030 0.7319
C5A C 1.1757(13) -0.6217(12) 0.8339(12)
H8A H 1.1799 -0.6779 0.8672
C6A C 1.2252(13) -0.5671(11) 0.6097(10)
C7A C 1.1340(13) -0.6223(13) 0.1649(12)
H9A H 1.1566 -0.6792 0.1319
C8A C 1.1199(14) -0.6361(12) 0.2467(13)
H10A H 1.1352 -0.7006 0.2691
C9A C 1.0818(13) -0.5510(12) 0.2961(12)
C10A C 1.0675(11) -0.4571(9) 0.2642(10)
H11A H 1.0481 -0.3995 0.2968
C11A C 1.0836(13) -0.4511(11) 0.1782(12)
H12A H 1.0700 -0.3875 0.1541
C12A C 0.9391(13) -0.4337(11) 0.6114(12)
C13A C 1.3614(13) -0.5473(12) 0.1781(13)
H13A H 1.3847 -0.6109 0.1542
C14A C 1.3371(11) -0.5422(9) 0.2629(11)
H14A H 1.3405 -0.6005 0.2935
C15A C 1.3092(14) -0.4512(12) 0.2976(13)
C16A C 1.3007(14) -0.3643(13) 0.2482(14)
H15A H 1.2800 -0.3001 0.2712
C17A C 1.3236(13) -0.3756(12) 0.1658(13)
H16A H 1.3187 -0.3184 0.1335
C18A C 1.2770(17) -0.4370(15) 0.3836(16)
C19A C 0.5879(14) -0.4508(13) 0.1800(13)
H17A H 0.5793 -0.3864 0.1578
C20A C 0.5681(15) -0.4605(12) 0.2599(14)
H18A H 0.5417 -0.4021 0.2905
C21A C 0.5852(12) -0.5545(11) 0.3000(12)
C22A C 0.6190(12) -0.6371(11) 0.2501(11)
H19A H 0.6300 -0.7020 0.2716
C23A C 0.6370(12) -0.6233(11) 0.1664(12)
H20A H 0.6618 -0.6800 0.1335
C24A C 0.4437(16) -0.4361(15) 0.6152(16)
O37A O 1.5696(13) -0.7684(11) 0.5597(10)
O38A O 1.3138(14) -0.7678(12) 0.4401(10)
O39A O 1.4668(10) -0.8741(8) 0.5003(8)
O40A O 0.9309(15) -0.2332(13) 0.4386(13)
O41A O 1.1863(15) -0.2317(12) 0.5596(12)
I1 I 0.0000 0.0000 0.0000
I2 I -0.5000 0.0000 0.0000
Ag1 Ag -0.22237(12) -0.11045(14) 0.00003(13)
Ag2 Ag -0.27771(12) 0.11114(15) 0.00007(12)
Mo1 Mo -0.07362(12) -0.12722(10) 0.18894(10)
Mo2 Mo 0.06035(11) -0.24119(9) -0.00003(10)
Mo3 Mo -0.13730(11) 0.12738(10) 0.18898(10)
Mo4 Mo -0.42626(11) 0.12737(10) -0.18908(10)
Mo5 Mo -0.56016(11) 0.24098(9) -0.00008(10)
Mo6 Mo -0.36257(11) -0.12735(10) -0.18908(10)
O1 O -0.0560(9) 0.0007(7) 0.1080(7)
O2 O 0.0956(9) -0.1045(8) 0.2207(9)
O3 O 0.0097(9) -0.2120(7) 0.1110(8)
O4 O 0.0436(9) 0.1042(8) 0.2218(9)
O5 O -0.0582(9) -0.2039(8) 0.2724(8)
O6 O -0.5940(9) 0.1011(8) -0.2209(8)
H1 H -0.645(6) 0.128(8) -0.193(6)
H2 H -0.616(9) 0.133(8) -0.262(4)
O7 O -0.1928(9) -0.1302(8) 0.1545(9)
O8 O -0.5433(10) -0.1017(9) -0.2201(9)
H3 H -0.571(9) -0.123(9) -0.181(5)
H4 H -0.544(10) -0.134(8) -0.262(4)
O9 O 0.1789(10) -0.3203(9) 0.0199(9)
O10 O -0.0199(10) -0.3201(8) -0.0201(9)
O11 O -0.0947(9) 0.2110(7) 0.1118(8)
O12 O 0.1146(8) -0.1028(7) 0.0273(7)
O13 O 0.0625(8) 0.1038(7) 0.0287(8)
O14 O -0.2594(9) 0.1295(8) 0.1548(9)
O15 O -0.1589(10) 0.2037(8) 0.2728(8)
O16 O -0.1102(9) -0.0012(8) 0.2506(8)
O17 O -0.3047(8) 0.1290(7) -0.1555(8)
O18 O -0.5103(9) 0.2125(7) -0.1123(8)
O19 O -0.4461(8) 0.0008(7) -0.1090(7)
O20 O -0.4409(9) 0.2034(8) -0.2732(9)
O21 O -0.3856(7) -0.1021(7) 0.0276(7)
O22 O -0.4361(7) 0.1023(6) 0.0268(7)
O23 O -0.5971(9) 0.2124(7) 0.1124(8)
O24 O -0.4811(11) 0.3185(9) 0.0203(9)
O25 O -0.6784(10) 0.3185(8) -0.0197(9)
O26 O -0.2417(9) -0.1300(8) -0.1552(9)
O27 O -0.3900(8) 0.0001(7) -0.2500(7)
O28 O -0.3377(9) -0.2055(8) -0.2728(8)
Ag1A Ag 0.22237(12) 0.11045(14) -0.00003(13)
Ag1A_2 Ag -0.77763(12) 0.11045(14) -0.00003(13)
Ag2A Ag 0.27771(12) -0.11114(15) -0.00007(12)
Ag2A_2 Ag -0.72229(12) -0.11114(15) -0.00007(12)
Mo1A Mo 0.07362(12) 0.12722(10) -0.18894(10)
Mo2A Mo -0.06035(11) 0.24119(9) 0.00003(10)
Mo3A Mo 0.13730(11) -0.12738(10) -0.18898(10)
Mo4A Mo -0.57374(11) -0.12737(10) 0.18908(10)
Mo5A Mo -0.43984(11) -0.24098(9) 0.00008(10)
Mo6A Mo -0.63743(11) 0.12735(10) 0.18908(10)
O1A O 0.0560(9) -0.0007(7) -0.1080(7)
O2A O -0.0956(9) 0.1045(8) -0.2207(9)
O3A O -0.0097(9) 0.2120(7) -0.1110(8)
O4A O -0.0436(9) -0.1042(8) -0.2218(9)
O5A O 0.0582(9) 0.2039(8) -0.2724(8)
O6A O -0.4060(9) -0.1011(8) 0.2209(8)
H1A H -0.355(6) -0.128(8) 0.193(6)
H2A H -0.384(9) -0.133(8) 0.262(4)
O7A O 0.1928(9) 0.1302(8) -0.1545(9)
O8A O -0.4567(10) 0.1017(9) 0.2201(9)
H3A H -0.429(9) 0.123(9) 0.181(5)
H4A H -0.456(10) 0.134(8) 0.262(4)
O9A O -0.1789(10) 0.3203(9) -0.0199(9)
O10A O 0.0199(10) 0.3201(8) 0.0201(9)
O11A O 0.0947(9) -0.2110(7) -0.1118(8)
O12A O -0.1146(8) 0.1028(7) -0.0273(7)
O13A O -0.0625(8) -0.1038(7) -0.0287(8)
O14A O 0.2594(9) -0.1295(8) -0.1548(9)
O15A O 0.1589(10) -0.2037(8) -0.2728(8)
O16A O 0.1102(9) 0.0012(8) -0.2506(8)
O17A O -0.6953(8) -0.1290(7) 0.1555(8)
O17A_2 O 0.3047(8) -0.1290(7) 0.1555(8)
O18A O -0.4897(9) -0.2125(7) 0.1123(8)
O19A O -0.5539(8) -0.0008(7) 0.1090(7)
O20A O -0.5591(9) -0.2034(8) 0.2732(9)
O21A O -0.6144(7) 0.1021(7) -0.0276(7)
O21A_2 O 0.3856(7) 0.1021(7) -0.0276(7)
O22A O -0.5639(7) -0.1023(6) -0.0268(7)
O22A_2 O 0.4361(7) -0.1023(6) -0.0268(7)
O23A O -0.4029(9) -0.2124(7) -0.1124(8)
O24A O -0.5189(11) -0.3185(9) -0.0203(9)
O25A O -0.3216(10) -0.3185(8) 0.0197(9)
O26A O -0.7583(9) 0.1300(8) 0.1552(9)
O26A_2 O 0.2417(9) 0.1300(8) 0.1552(9)
O27A O -0.6100(8) -0.0001(7) 0.2500(7)
O28A O -0.6623(9) 0.2055(8) 0.2728(8)
O42 O 0.0237(18) -0.1058(17) 0.4999(15)
O43 O 0.1576(13) -0.1489(11) 0.3798(12)
O44 O 0.6551(15) -0.1497(12) 0.3802(13)
O45 O 0.4173(15) -0.1485(13) -0.3805(14)
O46 O -0.0836(12) -0.1487(9) -0.3790(10)
O47 O 0.722(2) 0.000(2) -0.3929(19)
O48 O 0.202(2) 0.000(2) -0.4016(16)
O49 O 0.7901(15) -0.1026(12) 0.5033(11)
O50 O 0.241(3) -0.097(2) 0.493(2)
loop_
_geom_bond_atom_site_label_1
_geom_bond_atom_site_label_2
_geom_bond_site_symmetry_1
_geom_bond_site_symmetry_2
Na1 O29 1_555 1_555
Na2 O30 1_555 1_555
I1 O1 1_555 1_555
I2 O19 1_555 1_555
Ag1 O7 1_555 1_555
Ag2 O14 1_555 1_555
Ag3 N1 1_555 1_555
Ag4 N3 1_555 1_555
Mo1 O1 1_555 1_555
Mo2 O3 1_555 1_555
Mo3 O1 1_555 1_555
Mo4 O6 1_555 1_555
Mo5 O18 1_555 1_555
Mo6 O8 1_555 1_555
O2 Mo1 1_555 1_555
O3 Mo1 1_555 1_555
O4 Mo3 1_555 1_555
O5 Mo1 1_555 1_555
O6 H1 1_555 1_555
H2 O6 1_555 1_555
O7 Mo1 1_555 1_555
O8 H3 1_555 1_555
H4 O8 1_555 1_555
O9 Mo2 1_555 1_555
O10 Mo2 1_555 1_555
O11 Mo3 1_555 1_555
O12 I1 1_555 1_555
O13 I1 1_555 1_555
O14 Mo3 1_555 1_555
O15 Mo3 1_555 1_555
O16 Mo1 1_555 1_555
O17 Ag2 1_555 1_555
O18 Mo4 1_555 1_555
O19 Mo4 1_555 1_555
O20 Mo4 1_555 1_555
O21 I2 1_555 1_555
O22 I2 1_555 1_555
O23 Mo5 1_555 1_555
O24 Mo5 1_555 1_555
O25 Mo5 1_555 1_555
O26 Ag1 1_555 1_555
O27 Mo4 1_555 1_555
O28 Mo6 1_555 1_555
O29 C6 1_555 1_555
O30 C6 1_555 1_555
O31 Na2 1_555 1_555
O32 Na2 1_555 1_555
O33 Na1 1_555 1_555
O34 Na2 1_555 1_555
O35 Na1 1_555 1_555
O36 Na1 1_555 1_555
N1 C1 1_555 1_555
N2 C7 1_555 1_555
N3 C13 1_555 1_555
N4 C19 1_555 1_555
C1 H5 1_555 1_555
C2 C1 1_555 1_555
H6 C2 1_555 1_555
C3 C2 1_555 1_555
C4 C3 1_555 1_555
H7 C4 1_555 1_555
C5 N1 1_555 1_555
H8 C5 1_555 1_555
C6 C3 1_555 1_555
C7 H9 1_555 1_555
C8 C7 1_555 1_555
H10 C8 1_555 1_555
C9 C8 1_555 1_555
C10 C9 1_555 1_555
H11 C10 1_555 1_555
C11 N2 1_555 1_555
H12 C11 1_555 1_555
C12 O31 1_555 1_555
C13 H13 1_555 1_555
C14 C13 1_555 1_555
H14 C14 1_555 1_555
C15 C14 1_555 1_555
C16 C15 1_555 1_555
H15 C16 1_555 1_555
C17 N3 1_555 1_555
H16 C17 1_555 1_555
C18 O33 1_555 1_555
C19 H17 1_555 1_555
C20 C19 1_555 1_555
H18 C20 1_555 1_555
C21 C20 1_555 1_555
C22 C21 1_555 1_555
H19 C22 1_555 1_555
C23 N4 1_555 1_555
H20 C23 1_555 1_555
C24 O35 1_555 1_555
O37 Na1 1_555 1_555
O38 Na1 1_555 1_555
O39 Na1 1_555 1_555
O40 Na2 1_555 1_555
O41 Na2 1_555 1_555
Na1A O29A 1_555 1_555
Na1A_2 O35A 1_555 1_555
Na2A O30A 1_555 1_555
Ag1A O13 1_555 1_555
Ag1A_2 O21A 1_555 1_555
Ag2A O12 1_555 1_555
Ag2A_2 O17A 1_555 1_555
Ag3_2 N2 1_555 1_555
Ag3A N1A 1_555 1_555
Ag3A_2 N2A_2 1_555 1_555
Ag4A N4 1_555 1_555
Ag4_2 N4A_2 1_555 1_555
Ag4A_2 N3A 1_555 1_555
Mo1A O1A 1_555 1_555
Mo2A O11 1_555 1_555
Mo3A O1A 1_555 1_555
Mo4A O6A 1_555 1_555
Mo5A O21 1_555 1_555
Mo6A O23 1_555 1_555
O1A I1 1_555 1_555
O2A Mo1A 1_555 1_555
O3A Mo1A 1_555 1_555
O4A Mo3A 1_555 1_555
O5A Mo1A 1_555 1_555
O6A H1A 1_555 1_555
H2A O6A 1_555 1_555
O7A Ag1A 1_555 1_555
O8A Mo6A 1_555 1_555
H3A O8A 1_555 1_555
H4A O8A 1_555 1_555
O9A Mo2A 1_555 1_555
O10A Mo2A 1_555 1_555
O11A Mo2 1_555 1_555
O12A I1 1_555 1_555
O13A I1 1_555 1_555
O14A Ag2A 1_555 1_555
O15A Mo3A 1_555 1_555
O16A Mo1A 1_555 1_555
O17A Mo4A 1_555 1_555
O17A_2 Ag2A 1_555 1_555
O18A Mo4A 1_555 1_555
O19A I2 1_555 1_555
O20A Mo4A 1_555 1_555
O21A I2 1_555 1_555
O21A_2 Ag1A 1_555 1_555
O22A I2 1_555 1_555
O22A_2 Ag2A 1_555 1_555
O23A Mo6 1_555 1_555
O24A Mo5A 1_555 1_555
O25A Mo5A 1_555 1_555
O26A Ag1A_2 1_555 1_555
O26A_2 Ag1A 1_555 1_555
O27A Mo4A 1_555 1_555
O28A Mo6A 1_555 1_555
O29A C6A 1_555 1_555
O30A C6A 1_555 1_555
O31A Na2A 1_555 1_555
O32A C12 1_555 1_555
O33A Na1A 1_555 1_555
O34A Na2A 1_555 1_555
O35A C24A 1_555 1_555
O35A_2 Na1A 1_555 1_555
O36A C24 1_555 1_555
O36A_2 Na1A 1_555 1_555
N1A C1A 1_555 1_555
N2_2 Ag3 1_555 1_555
N2A Ag3A 1_555 1_555
N2A_2 C7A 1_555 1_555
N3A C13A 1_555 1_555
N4A Ag4 1_555 1_555
N4A_2 C19A 1_555 1_555
N4_2 Ag4A_2 1_555 1_555
C1A H5A 1_555 1_555
C2A C1A 1_555 1_555
H6A C2A 1_555 1_555
C3A C2A 1_555 1_555
C4A C3A 1_555 1_555
H7A C4A 1_555 1_555
C5A N1A 1_555 1_555
H8A C5A 1_555 1_555
C6A C3A 1_555 1_555
C7A H9A 1_555 1_555
C8A C7A 1_555 1_555
H10A C8A 1_555 1_555
C9A C12 1_555 1_555
C10A C9A 1_555 1_555
H11A C10A 1_555 1_555
C11A N2A_2 1_555 1_555
H12A C11A 1_555 1_555
C12A O32 1_555 1_555
C13A H13A 1_555 1_555
C14A C13A 1_555 1_555
H14A C14A 1_555 1_555
C15A C14A 1_555 1_555
C16A C15A 1_555 1_555
H15A C16A 1_555 1_555
C17A N3A 1_555 1_555
H16A C17A 1_555 1_555
C18A O33A 1_555 1_555
C19A H17A 1_555 1_555
C20A C19A 1_555 1_555
H18A C20A 1_555 1_555
C21A C24 1_555 1_555
C22A C21A 1_555 1_555
H19A C22A 1_555 1_555
C23A N4A_2 1_555 1_555
H20A C23A 1_555 1_555
C24A O36 1_555 1_555
O37A Na1A 1_555 1_555
O38A Na1A 1_555 1_555
O39A Na1A 1_555 1_555
O40A Na2A 1_555 1_555
O41A Na2A 1_555 1_555
Ag1 O21 1_555 1_555
Ag1 O13A 1_555 1_555
Ag2 O22 1_555 1_555
Ag2 O12A 1_555 1_555
Mo2 O12 1_555 1_555
Mo2 O13A 1_555 1_555
Mo3 O16 1_555 1_555
Mo4 O17 1_555 1_555
Mo5 O22 1_555 1_555
Mo5 O21A 1_555 1_555
Mo6 O19 1_555 1_555
Mo6 O26 1_555 1_555
Mo6 O27 1_555 1_555
O13 Mo2A 1_555 1_555
O34 C18 1_555 1_555
C4 C5 1_555 1_555
C9 C12A 1_555 1_555
C10 C11 1_555 1_555
C15 C18 1_555 1_555
C16 C17 1_555 1_555
C21 C24A 1_555 1_555
C22 C23 1_555 1_555
Na1A_2 O36A 1_555 1_555
Na2A O32A 1_555 1_555
Ag2A_2 O22A 1_555 1_555
Mo1A O7A 1_555 1_555
Mo2A O3A 1_555 1_555
Mo2A O12A 1_555 1_555
Mo3A O11A 1_555 1_555
Mo3A O14A 1_555 1_555
Mo3A O16A 1_555 1_555
Mo4A O19A 1_555 1_555
Mo5A O18A 1_555 1_555
Mo5A O22A 1_555 1_555
Mo5A O23A 1_555 1_555
Mo6A O19A 1_555 1_555
Mo6A O26A 1_555 1_555
Mo6A O27A 1_555 1_555
O31A C12A 1_555 1_555
O34A C18A 1_555 1_555
C4A C5A 1_555 1_555
C8A C9A 1_555 1_555
C10A C11A 1_555 1_555
C15A C18A 1_555 1_555
C16A C17A 1_555 1_555
C20A C21A 1_555 1_555
C22A C23A 1_555 1_555

#END
