
#######################################################################
#
#                 Cambridge Crystallographic Data Centre
#                                CCDC 
#
#######################################################################
#
# If this CIF has been generated from an entry in the Cambridge 
# Structural Database, then it will include bibliographic, chemical, 
# crystal, experimental, refinement or atomic coordinate data resulting 
# from the CCDC's data processing and validation procedures.
#
#######################################################################

data_CASXEA
_symmetry_cell_setting           triclinic
_symmetry_space_group_name_H-M   'P -1'
_symmetry_Int_Tables_number      2
_space_group_name_Hall           '-P 1'
loop_
_symmetry_equiv_pos_site_id
_symmetry_equiv_pos_as_xyz
1 x,y,z
2 -x,-y,-z
_cell_length_a                   10.458(2)
_cell_length_b                   10.644(2)
_cell_length_c                   12.295(3)
_cell_angle_alpha                97.40(3)
_cell_angle_beta                 112.38(3)
_cell_angle_gamma                113.59(3)
_cell_volume                     1094.07
loop_
_atom_site_label
_atom_site_type_symbol
_atom_site_fract_x
_atom_site_fract_y
_atom_site_fract_z
Cr1 Cr 0.0000 0.0000 0.0000
Mo1 Mo 0.16498(2) 0.32021(2) 0.212368(19)
Mo2 Mo -0.08466(3) 0.02151(3) 0.23530(2)
Mo3 Mo -0.24941(2) -0.29970(2) 0.02118(2)
Ag1 Ag 0.0000 0.5000 0.0000
O1 O 0.1178(2) 0.0824(2) 0.18418(16)
H1 H 0.181(6) 0.054(6) 0.214(5)
O2 O -0.1894(2) -0.0685(2) 0.02512(17)
H2 H -0.255(4) -0.058(4) -0.012(3)
O3 O -0.0363(2) -0.19700(19) -0.00898(16)
H3 H 0.061(5) -0.193(5) 0.045(4)
O4 O -0.0356(2) 0.2052(2) 0.20563(18)
O5 O -0.1077(2) -0.1724(2) 0.19359(17)
O6 O 0.3237(2) 0.3406(2) 0.15885(16)
O7 O 0.1365(2) 0.4636(2) 0.18435(19)
O8 O 0.2893(2) 0.3783(2) 0.36831(18)
O9 O -0.2641(3) -0.0191(3) 0.2254(2)
O10 O 0.0439(3) 0.0757(3) 0.39016(19)
O11 O -0.4288(2) -0.3404(3) 0.0113(2)
O12 O -0.2192(2) -0.4442(2) 0.04266(19)
O13 O 0.1931(3) 0.7648(2) 0.1049(2)
O14 O 0.2876(3) 0.9439(3) 0.2797(2)
C1 C 0.5726(4) 0.7758(4) 0.4705(3)
H5 H 0.608(4) 0.779(4) 0.552(4)
C2 C 0.4690(4) 0.8227(4) 0.4120(3)
H6 H 0.457(5) 0.874(5) 0.454(4)
C3 C 0.4074(3) 0.7952(3) 0.2841(3)
C4 C 0.4553(3) 0.7248(3) 0.2198(3)
H7 H 0.423(4) 0.697(4) 0.143(3)
C5 C 0.5609(4) 0.6816(4) 0.2820(3)
H8 H 0.605(4) 0.647(4) 0.249(3)
C6 C 0.2867(3) 0.8407(3) 0.2195(3)
N1 N 0.6133(3) 0.7063(3) 0.4039(3)
H13 H 0.682(5) 0.687(4) 0.451(4)
Mo1A Mo -0.16498(2) -0.32021(2) -0.212368(19)
Mo2A Mo 0.08466(3) -0.02151(3) -0.23530(2)
Mo3A Mo 0.24941(2) 0.29970(2) -0.02118(2)
Ag1_2 Ag 0.0000 -0.5000 0.0000
O1A O -0.1178(2) -0.0824(2) -0.18418(16)
H1A H -0.181(6) -0.054(6) -0.214(5)
O2A O 0.1894(2) 0.0685(2) -0.02512(17)
H2A H 0.255(4) 0.058(4) 0.012(3)
O3A O 0.0363(2) 0.19700(19) 0.00898(16)
H3A H -0.061(5) 0.193(5) -0.045(4)
O4A O 0.0356(2) -0.2052(2) -0.20563(18)
O5A O 0.1077(2) 0.1724(2) -0.19359(17)
O6A O -0.3237(2) -0.3406(2) -0.15885(16)
O7A O -0.1365(2) -0.4636(2) -0.18435(19)
O7A_2 O -0.1365(2) 0.5364(2) -0.18435(19)
O8A O -0.2893(2) -0.3783(2) -0.36831(18)
O9A O 0.2641(3) 0.0191(3) -0.2254(2)
O10A O -0.0439(3) -0.0757(3) -0.39016(19)
O11A O 0.4288(2) 0.3404(3) -0.0113(2)
O12A O 0.2192(2) 0.4442(2) -0.04266(19)
O13A O -0.1931(3) 0.2352(2) -0.1049(2)
O14A O -0.2876(3) 0.0561(3) -0.2797(2)
C1A C -0.5726(4) 0.2242(4) -0.4705(3)
H5A H -0.608(4) 0.221(4) -0.552(4)
C2A C -0.4690(4) 0.1773(4) -0.4120(3)
H6A H -0.457(5) 0.126(5) -0.454(4)
C3A C -0.4074(3) 0.2048(3) -0.2841(3)
C4A C -0.4553(3) 0.2752(3) -0.2198(3)
H7A H -0.423(4) 0.303(4) -0.143(3)
C5A C -0.5609(4) 0.3184(4) -0.2820(3)
H8A H -0.605(4) 0.353(4) -0.249(3)
C6A C -0.2867(3) 0.1593(3) -0.2195(3)
N1A N -0.6133(3) 0.2937(3) -0.4039(3)
H13A H -0.682(5) 0.313(4) -0.451(4)
O15 O 0.2613(3) -1.5214(3) -0.3850(2)
O16 O 0.4627(3) -1.2928(3) -0.3041(2)
H4 H 0.532(5) -1.332(5) -0.253(5)
C7 C 0.1592(4) -1.1539(4) -0.5062(3)
H9 H 0.161(4) -1.069(4) -0.489(3)
C8 C 0.2478(4) -1.1996(4) -0.4241(3)
H10 H 0.318(5) -1.139(5) -0.352(4)
C9 C 0.2203(3) -1.3398(3) -0.4611(3)
C10 C 0.1015(4) -1.4336(4) -0.5806(3)
H11 H 0.079(3) -1.526(4) -0.599(3)
C11 C 0.0206(4) -1.3804(4) -0.6607(3)
H12 H -0.057(4) -1.436(4) -0.745(3)
C12 C 0.3166(3) -1.3956(4) -0.3787(3)
N2 N 0.0516(3) -1.2442(3) -0.6221(2)
H14 H 0.000(5) -1.222(5) -0.677(4)
O17 O -0.2750(4) 0.2869(4) 0.1402(4)
O18 O -0.4449(3) -0.0416(3) -0.0934(3)
loop_
_geom_bond_atom_site_label_1
_geom_bond_atom_site_label_2
_geom_bond_site_symmetry_1
_geom_bond_site_symmetry_2
Cr1 O1 1_555 1_555
Mo1 O1 1_555 1_555
Mo2 O1 1_555 1_555
Mo3 O2 1_555 1_555
Ag1 O7 1_555 1_555
O1 H1 1_555 1_555
O2 Cr1 1_555 1_555
H2 O2 1_555 1_555
O3 Cr1 1_555 1_555
H3 O3 1_555 1_555
O4 Mo1 1_555 1_555
O5 Mo2 1_555 1_555
O6 Mo1 1_555 1_555
O7 Mo1 1_555 1_555
O8 Mo1 1_555 1_555
O9 Mo2 1_555 1_555
O10 Mo2 1_555 1_555
O11 Mo3 1_555 1_555
O12 Mo3 1_555 1_555
O13 Ag1 1_555 1_555
O14 C6 1_555 1_555
O15 C12 1_555 1_555
O16 H4 1_555 1_555
C1 H5 1_555 1_555
C2 C1 1_555 1_555
H6 C2 1_555 1_555
C3 C2 1_555 1_555
C4 C3 1_555 1_555
H7 C4 1_555 1_555
C5 C4 1_555 1_555
H8 C5 1_555 1_555
C6 O13 1_555 1_555
C7 H9 1_555 1_555
C8 C7 1_555 1_555
H10 C8 1_555 1_555
C9 C8 1_555 1_555
C10 C9 1_555 1_555
H11 C10 1_555 1_555
C11 C10 1_555 1_555
H12 C11 1_555 1_555
C12 O16 1_555 1_555
N1 C1 1_555 1_555
H13 N1 1_555 1_555
N2 C7 1_555 1_555
H14 N2 1_555 1_555
Mo1A O3 1_555 1_555
Mo2A O1A 1_555 1_555
Mo3A O6 1_555 1_555
Ag1_2 O7A 1_555 1_555
O1A Cr1 1_555 1_555
H1A O1A 1_555 1_555
O2A Cr1 1_555 1_555
H2A O2A 1_555 1_555
O3A Cr1 1_555 1_555
H3A O3A 1_555 1_555
O4A Mo1A 1_555 1_555
O5A Mo2A 1_555 1_555
O6A Mo3 1_555 1_555
O7A Mo1A 1_555 1_555
O7A_2 Ag1 1_555 1_555
O8A Mo1A 1_555 1_555
O9A Mo2A 1_555 1_555
O10A Mo2A 1_555 1_555
O11A Mo3A 1_555 1_555
O12A Mo3A 1_555 1_555
O13A Ag1 1_555 1_555
O14A C6A 1_555 1_555
C1A H5A 1_555 1_555
C2A C1A 1_555 1_555
H6A C2A 1_555 1_555
C3A C2A 1_555 1_555
C4A C3A 1_555 1_555
H7A C4A 1_555 1_555
C5A C4A 1_555 1_555
H8A C5A 1_555 1_555
C6A O13A 1_555 1_555
N1A C1A 1_555 1_555
H13A N1A 1_555 1_555
Mo1 O3A 1_555 1_555
Mo2 O2 1_555 1_555
Mo2 O4 1_555 1_555
Mo3 O3 1_555 1_555
Mo3 O5 1_555 1_555
C3 C6 1_555 1_555
C5 N1 1_555 1_555
C9 C12 1_555 1_555
C11 N2 1_555 1_555
Mo1A O1A 1_555 1_555
Mo1A O6A 1_555 1_555
Mo2A O2A 1_555 1_555
Mo2A O4A 1_555 1_555
Mo3A O2A 1_555 1_555
Mo3A O3A 1_555 1_555
Mo3A O5A 1_555 1_555
C3A C6A 1_555 1_555
C5A N1A 1_555 1_555

#END
