
#######################################################################
#
#                 Cambridge Crystallographic Data Centre
#                                CCDC 
#
#######################################################################
#
# If this CIF has been generated from an entry in the Cambridge 
# Structural Database, then it will include bibliographic, chemical, 
# crystal, experimental, refinement or atomic coordinate data resulting 
# from the CCDC's data processing and validation procedures.
#
#######################################################################

data_CASYEC
_symmetry_cell_setting           rhombohedral
_symmetry_space_group_name_H-M   'R 3 c'
_symmetry_Int_Tables_number      161
_space_group_name_Hall           'R 3 -2"c'
loop_
_symmetry_equiv_pos_site_id
_symmetry_equiv_pos_as_xyz
1 x,y,z
2 -y,x-y,z
3 -x+y,-x,z
4 -y,-x,1/2+z
5 -x+y,y,1/2+z
6 x,x-y,1/2+z
7 2/3+x,1/3+y,1/3+z
8 2/3-y,1/3+x-y,1/3+z
9 2/3-x+y,1/3-x,1/3+z
10 2/3-y,1/3-x,5/6+z
11 2/3-x+y,1/3+y,5/6+z
12 2/3+x,1/3+x-y,5/6+z
13 1/3+x,2/3+y,2/3+z
14 1/3-y,2/3+x-y,2/3+z
15 1/3-x+y,2/3-x,2/3+z
16 1/3-y,2/3-x,1/6+z
17 1/3-x+y,2/3+y,1/6+z
18 1/3+x,2/3+x-y,1/6+z
_cell_length_a                   14.406(2)
_cell_length_b                   14.406(2)
_cell_length_c                   40.948(8)
_cell_angle_alpha                90
_cell_angle_beta                 90
_cell_angle_gamma                120
_cell_volume                     7359.53
loop_
_atom_site_label
_atom_site_type_symbol
_atom_site_fract_x
_atom_site_fract_y
_atom_site_fract_z
C1 C 0.2214(6) -0.1069(4) 0.74126(12)
C2 C 0.2015(6) -0.0244(4) 0.73369(15)
C3 C 0.2810(6) 0.0817(4) 0.73834(19)
H1 H 0.2676 0.1368 0.7333
C4 C 0.3804(8) 0.1052(4) 0.75057(19)
H2 H 0.4337 0.1762 0.7537
C5 C 0.4003(8) 0.0227(6) 0.75814(19)
H3 H 0.4669 0.0385 0.7663
C6 C 0.3209(7) -0.0833(5) 0.75350(17)
H4 H 0.3342 -0.1385 0.7586
C7 C -0.1487(7) -0.7389(5) 0.66590(19)
H5 H -0.2190 -0.7910 0.6704
C8 C -0.0774(8) -0.7683(6) 0.6533(2)
H6 H -0.1002 -0.8402 0.6494
C9 C 0.0278(11) -0.6904(8) 0.6466(3)
H7 H 0.0754 -0.7101 0.6382
C10 C 0.0618(11) -0.5830(7) 0.6524(3)
H8 H 0.1321 -0.5309 0.6479
C11 C -0.0095(9) -0.5536(5) 0.6650(3)
C12 C -0.1147(8) -0.6315(6) 0.6717(2)
Ag1 Ag -0.3333 -0.6667 0.709843(19)
Ag2 Ag 0.0000 0.0000 0.69842(2)
N1 N -0.1722(10) -0.5956(6) 0.6898(3)
N2 N -0.0911(9) -0.4902(6) 0.6864(3)
N3 N 0.0098(9) -0.4503(5) 0.6724(3)
N4 N 0.1340(7) -0.1980(5) 0.73301(19)
N5 N 0.0459(10) -0.1887(6) 0.7215(2)
N6 N 0.0981(8) -0.0781(5) 0.7236(2)
C13 C 0.1076(9) -0.3313(6) 0.6733(2)
H9 H 0.1457 -0.3149 0.6529
H10 H 0.0777 -0.2852 0.6756
C14 C 0.1555(7) -0.3446(6) 0.7063(2)
H11 H 0.1419 -0.4175 0.7082
H12 H 0.2325 -0.2966 0.7065
C15 C 0.1064(10) -0.3199(6) 0.7343(3)
H13 H 0.1396 -0.3329 0.7527
H14 H 0.0313 -0.3720 0.7336
C1A C -0.8931(4) -0.6717(7) 0.74126(12)
C1B C -0.3283(7) -1.2214(6) 0.74126(12)
C2A C -0.9756(4) -0.7741(7) 0.73369(15)
C2B C -0.2259(7) -1.2015(6) 0.73369(15)
C3A C -1.0817(4) -0.8007(7) 0.73834(19)
C3B C -0.1993(7) -1.2810(6) 0.73834(19)
H1A H -1.1368 -0.8692 0.7333
H1B H -0.1308 -1.2676 0.7333
C4A C -1.1052(4) -0.7248(9) 0.75057(19)
C4B C -0.2752(9) -1.3804(8) 0.75057(19)
H2A H -1.1762 -0.7425 0.7537
H2B H -0.2575 -1.4337 0.7537
C5A C -1.0227(6) -0.6224(10) 0.75814(19)
C5B C -0.3776(10) -1.4003(8) 0.75814(19)
H3A H -1.0385 -0.5716 0.7663
H3B H -0.4284 -1.4669 0.7663
C6A C -0.9167(5) -0.5958(9) 0.75350(17)
C6B C -0.4042(9) -1.3209(7) 0.75350(17)
H4A H -0.8615 -0.5273 0.7586
H4B H -0.4727 -1.3342 0.7586
C7A C -0.2611(5) -0.4098(9) 0.66590(19)
C7B C -0.5902(9) -0.8513(7) 0.66590(19)
H5A H -0.2090 -0.4280 0.6704
H5B H -0.5720 -0.7810 0.6704
C8A C -0.2317(6) -0.3091(10) 0.6533(2)
C8B C -0.6909(10) -0.9226(8) 0.6533(2)
H6A H -0.1598 -0.2600 0.6494
H6B H -0.7400 -0.8998 0.6494
C9A C -0.3096(8) -0.2818(14) 0.6466(3)
C9B C -0.7182(14) -1.0278(11) 0.6466(3)
H7A H -0.2899 -0.2145 0.6382
H7B H -0.7855 -1.0754 0.6382
C10A C -0.4170(7) -0.3552(13) 0.6524(3)
C10B C -0.6448(13) -1.0618(11) 0.6524(3)
H8A H -0.4691 -0.3370 0.6479
H8B H -0.6630 -1.1321 0.6479
C11A C -0.4464(5) -0.4559(10) 0.6650(3)
C11B C -0.5441(10) -0.9905(9) 0.6650(3)
C12A C -0.3685(6) -0.4832(10) 0.6717(2)
C12B C -0.5168(10) -0.8853(8) 0.6717(2)
Ag2_2 Ag -1.0000 -1.0000 0.69842(2)
Ag2_3 Ag 0.0000 -1.0000 0.69842(2)
N1A N -0.4044(6) -0.5766(12) 0.6898(3)
N1B N -0.4234(12) -0.8278(10) 0.6898(3)
N2A N -0.5098(6) -0.6009(11) 0.6864(3)
N2B N -0.3991(11) -0.9089(9) 0.6864(3)
N3A N -0.5497(5) -0.5399(10) 0.6724(3)
N3B N -0.4601(10) -1.0098(9) 0.6724(3)
N4A N -0.8020(5) -0.6680(9) 0.73301(19)
N4B N -0.3320(9) -1.1340(7) 0.73301(19)
N5A N -0.8113(6) -0.7654(12) 0.7215(2)
N5B N -0.2346(12) -1.0459(10) 0.7215(2)
N6A N -0.9219(5) -0.8238(9) 0.7236(2)
N6B N -0.1762(9) -1.0981(8) 0.7236(2)
N6A_2 N 0.0781(5) 0.1762(9) 0.7236(2)
N6B_2 N -0.1762(9) -0.0981(8) 0.7236(2)
C13A C -0.6687(6) -0.5611(11) 0.6733(2)
C13B C -0.4389(11) -1.1076(9) 0.6733(2)
H9A H -0.6851 -0.5394 0.6529
H9B H -0.4606 -1.1457 0.6529
H10A H -0.7148 -0.6371 0.6756
H10B H -0.3629 -1.0777 0.6756
C14A C -0.6554(6) -0.4999(9) 0.7063(2)
C14B C -0.5001(9) -1.1555(7) 0.7063(2)
H11A H -0.5825 -0.4406 0.7082
H11B H -0.5594 -1.1419 0.7082
H12A H -0.7034 -0.4709 0.7065
H12B H -0.5291 -1.2325 0.7065
C15A C -0.6801(6) -0.5737(12) 0.7343(3)
C15B C -0.4263(12) -1.1064(10) 0.7343(3)
H13A H -0.6671 -0.5275 0.7527
H13B H -0.4725 -1.1396 0.7527
H14A H -0.6280 -0.5967 0.7336
H14B H -0.4033 -1.0313 0.7336
N8 N 0.0000 1.0000 0.6228(3)
O4 O -0.0929(12) 0.9501(7) 0.6370(3)
O4A O 0.0499(7) 0.9570(14) 0.6370(3)
O4B O 0.0430(14) 1.0929(12) 0.6370(3)
O5 O 0.0000 0.0000 0.7950(5)
N7? N 0.6667 0.3333 0.78877(18)
O1? O 0.6108(9) 0.3541(12) 0.7722(2)
O2? O 0.6667 0.3333 0.81810(17)
O3? O 0.0000 1.0000 0.5946(4)
H15? H 0.0514 0.0273 0.8086
H16? H 0.0187 -0.0353 0.7826
C16? C 0.6364(6) 0.5301(5) 0.73412(19)
C17? C 0.1027(5) 0.3279(7) 0.6681(2)
C18? C 0.0197(6) 0.2255(7) 0.6754(2)
C19? C -0.0850(5) 0.1954(7) 0.6669(2)
C20? C -0.1068(5) 0.2678(9) 0.6510(2)
C21? C -0.0238(8) 0.3702(8) 0.6437(2)
C22? C 0.0809(6) 0.4003(7) 0.6522(2)
C23? C 0.5593(6) 0.5553(7) 0.7440(2)
C24? C 0.5901(9) 0.6528(8) 0.7591(3)
C25? C 0.6981(10) 0.7252(7) 0.7644(3)
C26? C 0.7753(7) 0.7001(7) 0.7545(3)
C27? C 0.7444(6) 0.6025(7) 0.7394(3)
H17? H -0.1405 0.1269 0.6718
H18? H -0.1769 0.2477 0.6454
H19? H -0.0384 0.4186 0.6331
H20? H 0.1364 0.4688 0.6473
H21? H 0.5385 0.6697 0.7657
H22? H 0.7188 0.7905 0.7745
H23? H 0.8475 0.7485 0.7580
H24? H 0.7960 0.5857 0.7328
H25? H 0.3529 0.4788 0.6532
H26? H 0.3762 0.4092 0.6784
H27? H 0.3072 0.4592 0.7528
H28? H 0.2719 0.3503 0.7349
N9? N 0.5931(11) 0.4250(7) 0.7231(3)
N10? N 0.4922(7) 0.3944(7) 0.7230(3)
N11? N 0.4675(8) 0.4752(8) 0.7291(4)
N12? N 0.1988(6) 0.3304(7) 0.6735(3)
N13? N 0.1829(14) 0.2465(11) 0.6941(4)
N14? N 0.0752(11) 0.1826(12) 0.6902(3)
loop_
_geom_bond_atom_site_label_1
_geom_bond_atom_site_label_2
_geom_bond_site_symmetry_1
_geom_bond_site_symmetry_2
C1 C2 1_555 1_555
C2 C3 1_555 1_555
C3 H1 1_555 1_555
C4 C3 1_555 1_555
H2 C4 1_555 1_555
C5 C4 1_555 1_555
H3 C5 1_555 1_555
C6 C1 1_555 1_555
H4 C6 1_555 1_555
C7 H5 1_555 1_555
C8 C7 1_555 1_555
H6 C8 1_555 1_555
C9 C8 1_555 1_555
H7 C9 1_555 1_555
C10 C9 1_555 1_555
H8 C10 1_555 1_555
C11 C10 1_555 1_555
C12 C7 1_555 1_555
Ag1 N1 1_555 1_555
Ag2 N6 1_555 1_555
N1 C12 1_555 1_555
N2 N1 1_555 1_555
N3 C11 1_555 1_555
N4 C1 1_555 1_555
N5 N4 1_555 1_555
N6 C2 1_555 1_555
C13 N3 1_555 1_555
H9 C13 1_555 1_555
H10 C13 1_555 1_555
C14 C13 1_555 1_555
H11 C14 1_555 1_555
H12 C14 1_555 1_555
C15 N4 1_555 1_555
H13 C15 1_555 1_555
H14 C15 1_555 1_555
N8 O4 1_555 1_555
C1A C2A 1_555 1_555
C1B C2B 1_555 1_555
C2A C3A 1_555 1_555
C2B C3B 1_555 1_555
C3A H1A 1_555 1_555
C3B H1B 1_555 1_555
C4A C3A 1_555 1_555
C4B C3B 1_555 1_555
H2A C4A 1_555 1_555
H2B C4B 1_555 1_555
C5A C4A 1_555 1_555
C5B C4B 1_555 1_555
H3A C5A 1_555 1_555
H3B C5B 1_555 1_555
C6A C1A 1_555 1_555
C6B C1B 1_555 1_555
H4A C6A 1_555 1_555
H4B C6B 1_555 1_555
C7A H5A 1_555 1_555
C7B H5B 1_555 1_555
C8A C7A 1_555 1_555
C8B C7B 1_555 1_555
H6A C8A 1_555 1_555
H6B C8B 1_555 1_555
C9A C8A 1_555 1_555
C9B C8B 1_555 1_555
H7A C9A 1_555 1_555
H7B C9B 1_555 1_555
C10A C9A 1_555 1_555
C10B C9B 1_555 1_555
H8A C10A 1_555 1_555
H8B C10B 1_555 1_555
C11A C10A 1_555 1_555
C11B C10B 1_555 1_555
C12A C7A 1_555 1_555
C12B C7B 1_555 1_555
Ag2_2 N6A 1_555 1_555
Ag2_3 N6B 1_555 1_555
N1A Ag1 1_555 1_555
N1B Ag1 1_555 1_555
N2A N1A 1_555 1_555
N2B N1B 1_555 1_555
N3A C11A 1_555 1_555
N3B C11B 1_555 1_555
N4A C1A 1_555 1_555
N4B C1B 1_555 1_555
N5A N4A 1_555 1_555
N5B N4B 1_555 1_555
N6A C2A 1_555 1_555
N6B C2B 1_555 1_555
N6A_2 Ag2 1_555 1_555
N6B_2 Ag2 1_555 1_555
C13A N3A 1_555 1_555
C13B N3B 1_555 1_555
H9A C13A 1_555 1_555
H9B C13B 1_555 1_555
H10A C13A 1_555 1_555
H10B C13B 1_555 1_555
C14A C13A 1_555 1_555
C14B C13B 1_555 1_555
H11A C14A 1_555 1_555
H11B C14B 1_555 1_555
H12A C14A 1_555 1_555
H12B C14B 1_555 1_555
C15A N4A 1_555 1_555
C15B N4B 1_555 1_555
H13A C15A 1_555 1_555
H13B C15B 1_555 1_555
H14A C15A 1_555 1_555
H14B C15B 1_555 1_555
O4A N8 1_555 1_555
O4B N8 1_555 1_555
C5 C6 1_555 1_555
C11 C12 1_555 1_555
N2 N3 1_555 1_555
N5 N6 1_555 1_555
C14 C15 1_555 1_555
C5A C6A 1_555 1_555
C5B C6B 1_555 1_555
C11A C12A 1_555 1_555
C11B C12B 1_555 1_555
C12A N1A 1_555 1_555
C12B N1B 1_555 1_555
N2A N3A 1_555 1_555
N2B N3B 1_555 1_555
N5A N6A 1_555 1_555
N5B N6B 1_555 1_555
C14A C15A 1_555 1_555
C14B C15B 1_555 1_555

#END
