
#######################################################################
#
#                 Cambridge Crystallographic Data Centre
#                                CCDC 
#
#######################################################################
#
# If this CIF has been generated from an entry in the Cambridge 
# Structural Database, then it will include bibliographic, chemical, 
# crystal, experimental, refinement or atomic coordinate data resulting 
# from the CCDC's data processing and validation procedures.
#
#######################################################################

data_CATDIL
_symmetry_cell_setting           rhombohedral
_symmetry_space_group_name_H-M   'R -3'
_symmetry_Int_Tables_number      148
_space_group_name_Hall           '-R 3'
loop_
_symmetry_equiv_pos_site_id
_symmetry_equiv_pos_as_xyz
1 x,y,z
2 -y,x-y,z
3 -x+y,-x,z
4 2/3+x,1/3+y,1/3+z
5 2/3-y,1/3+x-y,1/3+z
6 2/3-x+y,1/3-x,1/3+z
7 1/3+x,2/3+y,2/3+z
8 1/3-y,2/3+x-y,2/3+z
9 1/3-x+y,2/3-x,2/3+z
10 -x,-y,-z
11 y,-x+y,-z
12 x-y,x,-z
13 1/3-x,2/3-y,2/3-z
14 1/3+y,2/3-x+y,2/3-z
15 1/3+x-y,2/3+x,2/3-z
16 2/3-x,1/3-y,1/3-z
17 2/3+y,1/3-x+y,1/3-z
18 2/3+x-y,1/3+x,1/3-z
_cell_length_a                   33.0583(7)
_cell_length_b                   33.0583(7)
_cell_length_c                   9.3302(5)
_cell_angle_alpha                90
_cell_angle_beta                 90
_cell_angle_gamma                120.00
_cell_volume                     8830.45
loop_
_atom_site_label
_atom_site_type_symbol
_atom_site_fract_x
_atom_site_fract_y
_atom_site_fract_z
Zn1 Zn 0.5000 1.0000 0.5000
N1 N 0.44059(7) 0.94169(7) 0.4274(2)
N2 N 0.53356(7) 0.99896(7) 0.3142(2)
C1 C 0.39743(9) 0.92315(9) 0.4902(3)
C2 C 0.36310(10) 0.88592(10) 0.4004(3)
H1 H 0.3307 0.8669 0.4201
C3 C 0.38578(10) 0.88340(10) 0.2840(3)
H2 H 0.3723 0.8624 0.2059
C4 C 0.43447(9) 0.91856(9) 0.2997(3)
C5 C 0.46952(9) 0.92865(9) 0.1982(3)
C6 C 0.51630(9) 0.96561(9) 0.2080(3)
C7 C 0.55382(10) 0.97218(10) 0.1131(3)
H3 H 0.5511 0.9542 0.0305
C8 C 0.59331(10) 1.00875(11) 0.1646(3)
H4 H 0.6237 1.0213 0.1248
C9 C 0.58112(9) 1.02553(9) 0.2913(3)
C10 C 0.38769(9) 0.93862(9) 0.6202(3)
C11 C 0.45636(9) 0.89720(10) 0.0702(3)
C12 C 0.45712(10) 0.91409(11) -0.0665(3)
H5 H 0.4668 0.9462 -0.0790
C13 C 0.44392(11) 0.88486(12) -0.1857(3)
H6 H 0.4443 0.8969 -0.2784
C14 C 0.43035(12) 0.83839(12) -0.1682(4)
H7 H 0.4213 0.8183 -0.2491
C15 C 0.42994(12) 0.82103(12) -0.0336(4)
H8 H 0.4209 0.7890 -0.0221
C16 C 0.44277(11) 0.85015(11) 0.0855(3)
H9 H 0.4423 0.8379 0.1780
C17 C 0.33715(9) 0.91336(9) 0.6636(3)
C18 C 0.32089(10) 0.88086(11) 0.7741(3)
H10 H 0.3419 0.8745 0.8258
C19 C 0.27405(11) 0.85791(11) 0.8081(3)
H11 H 0.2634 0.8356 0.8836
N3 N 0.24282(8) 0.86542(8) 0.7402(2)
C20 C 0.25839(11) 0.89675(10) 0.6360(3)
H12 H 0.2367 0.9026 0.5871
C21 C 0.30492(9) 0.92146(10) 0.5945(3)
H13 H 0.3145 0.9437 0.5192
Zn1E Zn 0.1667 0.8333 0.8333
Zn1N Zn 0.8333 1.1667 0.1667
N1I N 0.55941(7) 1.05831(7) 0.5726(2)
N2I N 0.46644(7) 1.00104(7) 0.6858(2)
C1I C 0.60257(9) 1.07685(9) 0.5098(3)
C2I C 0.63690(10) 1.11408(10) 0.5996(3)
H1I H 0.6693 1.1331 0.5799
C3I C 0.61422(10) 1.11660(10) 0.7160(3)
H2I H 0.6277 1.1376 0.7941
C4I C 0.56553(9) 1.08144(9) 0.7003(3)
C5I C 0.53048(9) 1.07135(9) 0.8018(3)
C6I C 0.48370(9) 1.03439(9) 0.7920(3)
C7I C 0.44618(10) 1.02782(10) 0.8869(3)
H3I H 0.4489 1.0458 0.9695
C8I C 0.40669(10) 0.99125(11) 0.8354(3)
H4I H 0.3763 0.9787 0.8752
C9I C 0.41888(9) 0.97447(9) 0.7087(3)
C10I C 0.61231(9) 1.06138(9) 0.3798(3)
C11I C 0.54364(9) 1.10280(10) 0.9298(3)
C12I C 0.54288(10) 1.08591(11) 1.0665(3)
H5I H 0.5332 1.0538 1.0790
C13I C 0.55608(11) 1.11514(12) 1.1857(3)
H6I H 0.5557 1.1031 1.2784
C14I C 0.56965(12) 1.16161(12) 1.1682(4)
H7I H 0.5787 1.1817 1.2491
C15I C 0.57006(12) 1.17897(12) 1.0336(4)
H8I H 0.5791 1.2110 1.0221
C16I C 0.55723(11) 1.14985(11) 0.9145(3)
H9I H 0.5577 1.1621 0.8220
C17I C 0.66285(9) 1.08664(9) 0.3364(3)
C18I C 0.67911(10) 1.11914(11) 0.2259(3)
H10I H 0.6581 1.1255 0.1742
C19I C 0.72595(11) 1.14209(11) 0.1919(3)
H11I H 0.7366 1.1644 0.1164
N3I N 0.75718(8) 1.13458(8) 0.2598(2)
N3P N 0.53209(8) 0.95593(11) 0.5931(2)
N3G N 0.46791(8) 1.04407(11) 0.4069(2)
C20I C 0.74161(11) 1.10325(10) 0.3640(3)
H12I H 0.7633 1.0974 0.4129
C21I C 0.69508(9) 1.07854(10) 0.4055(3)
H13I H 0.6855 1.0563 0.4808
C22 C 0.3817(2) 0.7039(2) 0.1475(9)
C22P C 0.3706(2) 0.6555(3) 0.1858(9)
C22B C 0.3222(3) 0.6183(2) 0.1475(9)
C22O C 0.2850(2) 0.6294(2) 0.1858(9)
C22A C 0.2961(2) 0.6778(3) 0.1475(9)
C22Q C 0.3445(3) 0.7150(2) 0.1858(9)
C23 C 0.3387(3) 0.7125(3) 0.6824(11)
C23P C 0.3792(3) 0.7071(4) 0.6509(11)
C23B C 0.3738(4) 0.6613(3) 0.6824(11)
C23O C 0.3280(3) 0.6208(3) 0.6509(11)
C23A C 0.2875(3) 0.6262(4) 0.6824(11)
C23Q C 0.2929(4) 0.6720(3) 0.6509(11)
loop_
_geom_bond_atom_site_label_1
_geom_bond_atom_site_label_2
_geom_bond_site_symmetry_1
_geom_bond_site_symmetry_2
Zn1 N1 1_555 1_555
N1 C1 1_555 1_555
N2 Zn1 1_555 1_555
C1 C2 1_555 1_555
C2 H1 1_555 1_555
C3 C2 1_555 1_555
H2 C3 1_555 1_555
C4 N1 1_555 1_555
C5 C4 1_555 1_555
C6 N2 1_555 1_555
C7 C6 1_555 1_555
H3 C7 1_555 1_555
C8 C7 1_555 1_555
H4 C8 1_555 1_555
C9 N2 1_555 1_555
C10 C1 1_555 1_555
C11 C5 1_555 1_555
C12 C11 1_555 1_555
H5 C12 1_555 1_555
C13 C12 1_555 1_555
H6 C13 1_555 1_555
C14 C13 1_555 1_555
H7 C14 1_555 1_555
C15 C14 1_555 1_555
H8 C15 1_555 1_555
C16 C11 1_555 1_555
H9 C16 1_555 1_555
C17 C10 1_555 1_555
C18 C17 1_555 1_555
H10 C18 1_555 1_555
C19 C18 1_555 1_555
H11 C19 1_555 1_555
N3 C19 1_555 1_555
C20 N3 1_555 1_555
H12 C20 1_555 1_555
C21 C17 1_555 1_555
H13 C21 1_555 1_555
C22 C22P 1_555 1_555
C23 C23P 1_555 1_555
Zn1E N3 1_555 1_555
Zn1N N3I 1_555 1_555
N1I Zn1 1_555 1_555
N2I Zn1 1_555 1_555
C1I N1I 1_555 1_555
C2I C1I 1_555 1_555
H1I C2I 1_555 1_555
C3I C2I 1_555 1_555
H2I C3I 1_555 1_555
C4I N1I 1_555 1_555
C5I C4I 1_555 1_555
C6I N2I 1_555 1_555
C7I C6I 1_555 1_555
H3I C7I 1_555 1_555
C8I C7I 1_555 1_555
H4I C8I 1_555 1_555
C9I C10 1_555 1_555
C10I C9 1_555 1_555
C11I C5I 1_555 1_555
C12I C11I 1_555 1_555
H5I C12I 1_555 1_555
C13I C12I 1_555 1_555
H6I C13I 1_555 1_555
C14I C13I 1_555 1_555
H7I C14I 1_555 1_555
C15I C14I 1_555 1_555
H8I C15I 1_555 1_555
C16I C11I 1_555 1_555
H9I C16I 1_555 1_555
C17I C10I 1_555 1_555
C18I C17I 1_555 1_555
H10I C18I 1_555 1_555
C19I C18I 1_555 1_555
H11I C19I 1_555 1_555
N3I C19I 1_555 1_555
N3P Zn1 1_555 1_555
N3G Zn1 1_555 1_555
C20I N3I 1_555 1_555
H12I C20I 1_555 1_555
C21I C17I 1_555 1_555
H13I C21I 1_555 1_555
C22P C22B 1_555 1_555
C22B C22O 1_555 1_555
C22O C22A 1_555 1_555
C22A C22Q 1_555 1_555
C22Q C22 1_555 1_555
C23P C23B 1_555 1_555
C23B C23O 1_555 1_555
C23O C23A 1_555 1_555
C23A C23Q 1_555 1_555
C23Q C23 1_555 1_555
C3 C4 1_555 1_555
C5 C6 1_555 1_555
C8 C9 1_555 1_555
C15 C16 1_555 1_555
C20 C21 1_555 1_555
N2I C9I 1_555 1_555
C1I C10I 1_555 1_555
C3I C4I 1_555 1_555
C5I C6I 1_555 1_555
C8I C9I 1_555 1_555
C15I C16I 1_555 1_555
C20I C21I 1_555 1_555

#END
