
#######################################################################
#
#                 Cambridge Crystallographic Data Centre
#                                CCDC 
#
#######################################################################
#
# If this CIF has been generated from an entry in the Cambridge 
# Structural Database, then it will include bibliographic, chemical, 
# crystal, experimental, refinement or atomic coordinate data resulting 
# from the CCDC's data processing and validation procedures.
#
#######################################################################

data_CATFEK
_symmetry_cell_setting           orthorhombic
_symmetry_space_group_name_H-M   'C m c a'
_symmetry_Int_Tables_number      64
_space_group_name_Hall           '-C 2ac 2'
loop_
_symmetry_equiv_pos_site_id
_symmetry_equiv_pos_as_xyz
1 x,y,z
2 -x,1/2-y,1/2+z
3 -x,1/2+y,1/2-z
4 x,-y,-z
5 1/2+x,1/2+y,z
6 1/2-x,-y,1/2+z
7 1/2-x,y,1/2-z
8 1/2+x,1/2-y,-z
9 -x,-y,-z
10 x,1/2+y,1/2-z
11 x,1/2-y,1/2+z
12 -x,y,z
13 1/2-x,1/2-y,-z
14 1/2+x,y,1/2-z
15 1/2+x,-y,1/2+z
16 1/2-x,1/2+y,z
_cell_length_a                   21.901(5)
_cell_length_b                   30.645(7)
_cell_length_c                   14.201(3)
_cell_angle_alpha                90
_cell_angle_beta                 90
_cell_angle_gamma                90
_cell_volume                     9531.09
loop_
_atom_site_label
_atom_site_type_symbol
_atom_site_fract_x
_atom_site_fract_y
_atom_site_fract_z
Ag2 Ag 0.2500 0.32757(3) 0.2500
C1 C 0.0318(5) 0.3933(4) -0.1482(7)
H1 H 0.0533 0.4108 -0.1925
C2 C 0.0314(5) 0.3434(3) -0.0223(6)
H2 H 0.0528 0.3258 0.0218
C3 C 0.0634(4) 0.3685(3) -0.0855(6)
C4 C 0.1326(5) 0.3695(4) -0.0914(7)
H3 H 0.1451 0.3566 -0.1523
H4 H 0.1461 0.4004 -0.0914
C5 C 0.1815(5) 0.3023(4) -0.0243(7)
H5 H 0.1740 0.2834 -0.0760
C6 C 0.2095(5) 0.2927(3) 0.0541(7)
H6 H 0.2266 0.2651 0.0688
C7 C 0.1830(4) 0.3600(3) 0.0685(7)
C8 C 0.1733(5) 0.4044(3) 0.1038(10)
H7 H 0.1510 0.4214 0.0567
H8 H 0.2129 0.4181 0.1162
H9 H 0.1496 0.4032 0.1623
N1 N 0.2108(3) 0.3294(3) 0.1138(5)
N2 N 0.1645(4) 0.3468(3) -0.0165(6)
Ag2K Ag -0.2500 0.32757(3) 0.2500
C1K C -0.0318(5) 0.3933(4) -0.1482(7)
H1K H -0.0533 0.4108 -0.1925
C2K C -0.0314(5) 0.3434(3) -0.0223(6)
H2K H -0.0528 0.3258 0.0218
C3K C -0.0634(4) 0.3685(3) -0.0855(6)
C4K C -0.1326(5) 0.3695(4) -0.0914(7)
H3K H -0.1451 0.3566 -0.1523
H4K H -0.1461 0.4004 -0.0914
C5K C -0.1815(5) 0.3023(4) -0.0243(7)
H5K H -0.1740 0.2834 -0.0760
C6K C -0.2095(5) 0.2927(3) 0.0541(7)
H6K H -0.2266 0.2651 0.0688
C7K C -0.1830(4) 0.3600(3) 0.0685(7)
C8K C -0.1733(5) 0.4044(3) 0.1038(10)
H7K H -0.1510 0.4214 0.0567
H8K H -0.2129 0.4181 0.1162
H9K H -0.1496 0.4032 0.1623
N1K N -0.2108(3) 0.3294(3) 0.1138(5)
N1F N 0.2892(3) 0.3294(3) 0.3862(5)
N2K N -0.1645(4) 0.3468(3) -0.0165(6)
Ag3 Ag 0.27104(6) 0.5000 1.0000
C15 C 0.2944(6) 0.5825(4) 1.1298(7)
H13 H 0.2778 0.5677 1.1826
C16 C 0.3160(5) 0.6225(3) 1.1313(7)
H14 H 0.3169 0.6417 1.1838
C17 C 0.3258(4) 0.5952(3) 0.9899(7)
C18 C 0.3435(5) 0.5917(4) 0.8904(7)
H15 H 0.3316 0.5630 0.8661
H16 H 0.3878 0.5952 0.8846
H17 H 0.3229 0.6146 0.8540
C19 C 0.3672(4) 0.6707(3) 1.0125(7)
H18 H 0.3532 0.6949 1.0533
H19 H 0.3544 0.6775 0.9473
C20 C 0.4365(4) 0.6689(3) 1.0158(6)
C21 C 0.4684(4) 0.7039(3) 0.9816(5)
H20 H 0.4469 0.7284 0.9575
C22 C 0.4685(5) 0.6338(3) 1.0493(8)
H21 H 0.4471 0.6091 1.0729
N3 N 0.2994(4) 0.5650(2) 1.0407(6)
N4 N 0.3368(3) 0.6311(2) 1.0419(5)
Ag3H Ag 0.72896(6) 0.5000 1.0000
C15K C 0.7056(6) 0.5825(4) 1.1298(7)
H13K H 0.7222 0.5677 1.1826
C16K C 0.6840(5) 0.6225(3) 1.1313(7)
H14K H 0.6831 0.6417 1.1838
C17K C 0.6742(4) 0.5952(3) 0.9899(7)
C18K C 0.6565(5) 0.5917(4) 0.8904(7)
H15K H 0.6684 0.5630 0.8661
H16K H 0.6122 0.5952 0.8846
H17K H 0.6771 0.6146 0.8540
C19K C 0.6328(4) 0.6707(3) 1.0125(7)
H18K H 0.6468 0.6949 1.0533
H19K H 0.6456 0.6775 0.9473
C20K C 0.5635(4) 0.6689(3) 1.0158(6)
C21K C 0.5316(4) 0.7039(3) 0.9816(5)
H20K H 0.5531 0.7284 0.9575
C22K C 0.5315(5) 0.6338(3) 1.0493(8)
H21K H 0.5529 0.6091 1.0729
N3K N 0.7006(4) 0.5650(2) 1.0407(6)
N3C N 0.2994(4) 0.4350(2) 0.9593(6)
N4K N 0.6632(3) 0.6311(2) 1.0419(5)
O5 O 0.2500 0.5212(5) 0.7500
H24 H 0.2231 0.5075 0.7814
H24F H 0.2769 0.5075 0.7186
Ag1 Ag 0.2500 0.21919(3) 0.2500
C9 C 0.1316(4) 0.2496(3) 0.2586(6)
C10 C 0.0321(4) 0.2156(3) 0.2389(6)
H10 H 0.0534 0.1886 0.2353
C11 C 0.0639(4) 0.2534(3) 0.2440(6)
C12 C 0.0323(4) 0.2944(3) 0.2403(5)
C13 C 0.0633(4) 0.3349(3) 0.2360(6)
H11 H 0.1067 0.3355 0.2361
C14 C 0.0315(4) 0.3729(3) 0.2318(6)
H12 H 0.0530 0.3998 0.2288
O1 O 0.1565(3) 0.2168(2) 0.2198(5)
O2 O 0.1594(3) 0.2765(2) 0.3079(4)
Ag1K Ag -0.2500 0.21919(3) 0.2500
C9K C -0.1316(4) 0.2496(3) 0.2586(6)
C10K C -0.0321(4) 0.2156(3) 0.2389(6)
H10K H -0.0534 0.1886 0.2353
C11K C -0.0639(4) 0.2534(3) 0.2440(6)
C12K C -0.0323(4) 0.2944(3) 0.2403(5)
C13K C -0.0633(4) 0.3349(3) 0.2360(6)
H11K H -0.1067 0.3355 0.2361
C14K C -0.0315(4) 0.3729(3) 0.2318(6)
H12K H -0.0530 0.3998 0.2288
O1K O -0.1565(3) 0.2168(2) 0.2198(5)
O1F O 0.3435(3) 0.2168(2) 0.2802(5)
O2K O -0.1594(3) 0.2765(2) 0.3079(4)
C23? C 0.0357(13) 0.4988(9) 0.846(2)
C24? C 0.0669(8) 0.4970(8) 0.9217(13)
C25? C 0.0328(12) 0.5000 1.0000
C26? C 0.1369(8) 0.4885(9) 0.9235(10)
C27? C 0.0587(13) 0.5063(9) 0.7517(16)
H22? H 0.1005 0.5146 0.7491
C28? C 0.0310(2) 0.5034(13) 0.666(2)
H23? H 0.0538 0.5015 0.6094
O3? O 0.1634(9) 0.4768(6) 0.8508(12)
O4? O 0.1554(8) 0.5000 1.0000
loop_
_geom_bond_atom_site_label_1
_geom_bond_atom_site_label_2
_geom_bond_site_symmetry_1
_geom_bond_site_symmetry_2
Ag1 O1 1_555 1_555
Ag2 N1 1_555 1_555
Ag3 N3 1_555 1_555
C1 H1 1_555 1_555
C2 H2 1_555 1_555
C3 C1 1_555 1_555
C4 C3 1_555 1_555
H3 C4 1_555 1_555
H4 C4 1_555 1_555
C5 H5 1_555 1_555
C6 C5 1_555 1_555
H6 C6 1_555 1_555
C7 C8 1_555 1_555
C8 H7 1_555 1_555
H8 C8 1_555 1_555
H9 C8 1_555 1_555
C9 C11 1_555 1_555
C10 H10 1_555 1_555
C11 C10 1_555 1_555
C12 C11 1_555 1_555
C13 C12 1_555 1_555
H11 C13 1_555 1_555
C14 C13 1_555 1_555
H12 C14 1_555 1_555
C15 H13 1_555 1_555
C16 C15 1_555 1_555
H14 C16 1_555 1_555
C17 C18 1_555 1_555
C18 H15 1_555 1_555
H16 C18 1_555 1_555
H17 C18 1_555 1_555
C19 H18 1_555 1_555
H19 C19 1_555 1_555
C20 C19 1_555 1_555
C21 C20 1_555 1_555
H20 C21 1_555 1_555
C22 C20 1_555 1_555
H21 C22 1_555 1_555
N1 C6 1_555 1_555
N2 C4 1_555 1_555
N3 C15 1_555 1_555
N4 C16 1_555 1_555
O1 C9 1_555 1_555
O2 C9 1_555 1_555
O5 H24 1_555 1_555
Ag1K O1K 1_555 1_555
Ag2K N1K 1_555 1_555
Ag3H N3K 1_555 1_555
C1K C1 1_555 1_555
H1K C1K 1_555 1_555
C2K C2 1_555 1_555
H2K C2K 1_555 1_555
C3K C1K 1_555 1_555
C4K C3K 1_555 1_555
H3K C4K 1_555 1_555
H4K C4K 1_555 1_555
C5K H5K 1_555 1_555
C6K C5K 1_555 1_555
H6K C6K 1_555 1_555
C7K C8K 1_555 1_555
C8K H7K 1_555 1_555
H8K C8K 1_555 1_555
H9K C8K 1_555 1_555
C9K C11K 1_555 1_555
C10K C10 1_555 1_555
H10K C10K 1_555 1_555
C11K C10K 1_555 1_555
C12K C12 1_555 1_555
C13K C12K 1_555 1_555
H11K C13K 1_555 1_555
C14K C14 1_555 1_555
H12K C14K 1_555 1_555
C15K H13K 1_555 1_555
C16K C15K 1_555 1_555
H14K C16K 1_555 1_555
C17K C18K 1_555 1_555
C18K H15K 1_555 1_555
H16K C18K 1_555 1_555
H17K C18K 1_555 1_555
C19K H18K 1_555 1_555
H19K C19K 1_555 1_555
C20K C19K 1_555 1_555
C21K C21 1_555 1_555
H20K C21K 1_555 1_555
C22K C22 1_555 1_555
H21K C22K 1_555 1_555
N1K C6K 1_555 1_555
N1F Ag2 1_555 1_555
N2K C4K 1_555 1_555
N3K C15K 1_555 1_555
N3C Ag3 1_555 1_555
N4K C16K 1_555 1_555
O1K C9K 1_555 1_555
O1F Ag1 1_555 1_555
O2K C9K 1_555 1_555
H24F O5 1_555 1_555
C2 C3 1_555 1_555
C5 N2 1_555 1_555
C7 N1 1_555 1_555
C7 N2 1_555 1_555
C17 N3 1_555 1_555
C17 N4 1_555 1_555
C19 N4 1_555 1_555
C2K C3K 1_555 1_555
C5K N2K 1_555 1_555
C7K N1K 1_555 1_555
C7K N2K 1_555 1_555
C11K C12K 1_555 1_555
C13K C14K 1_555 1_555
C17K N3K 1_555 1_555
C17K N4K 1_555 1_555
C19K N4K 1_555 1_555
C20K C21K 1_555 1_555
C20K C22K 1_555 1_555

#END
