
#######################################################################
#
#                 Cambridge Crystallographic Data Centre
#                                CCDC 
#
#######################################################################
#
# If this CIF has been generated from an entry in the Cambridge 
# Structural Database, then it will include bibliographic, chemical, 
# crystal, experimental, refinement or atomic coordinate data resulting 
# from the CCDC's data processing and validation procedures.
#
#######################################################################

data_CATPAL
_symmetry_cell_setting           monoclinic
_symmetry_space_group_name_H-M   'P 21/c'
_symmetry_Int_Tables_number      14
_space_group_name_Hall           '-P 2ybc'
loop_
_symmetry_equiv_pos_site_id
_symmetry_equiv_pos_as_xyz
1 x,y,z
2 -x,1/2+y,1/2-z
3 -x,-y,-z
4 x,1/2-y,1/2+z
_cell_length_a                   7.11(1)
_cell_length_b                   21.67(2)
_cell_length_c                   6.59(1)
_cell_angle_alpha                90
_cell_angle_beta                 92.3(2)
_cell_angle_gamma                90
_cell_volume                     1014.53
loop_
_atom_site_label
_atom_site_type_symbol
_atom_site_fract_x
_atom_site_fract_y
_atom_site_fract_z
Ca1 Ca 0.16480 0.21410 -0.00550
C1 C 0.26080 -0.04320 -0.50330
C2 C 0.23510 -0.01010 -0.32190
C3 C 0.22840 0.05360 -0.32570
C4 C 0.25080 0.08690 -0.50550
C5 C 0.27800 0.05370 -0.68410
C6 C 0.28330 -0.01010 -0.68390
C7 C 0.26380 -0.11220 -0.50440
C8 C 0.24200 0.15540 -0.50560
O1 O 0.27220 -0.13990 -0.66870
O2 O -0.03510 0.12660 0.00240
O3 O -0.09370 0.25060 -0.25290
O4 O 0.48230 0.17710 -0.00330
O5 O 0.25780 -0.13940 -0.33210
O6 O 0.22740 0.18380 -0.33840
O7 O 0.25080 0.18440 -0.67100
O7C O 0.25080 0.31560 -0.17100
Ca1C Ca 0.16480 0.28590 -0.50550
Ca1_2 Ca 0.16480 0.21410 -1.00550
O3C O -0.09370 0.24940 0.24710
O6C O 0.22740 0.31620 0.16160
O7_2 O 0.25080 0.18440 0.32900
loop_
_geom_bond_atom_site_label_1
_geom_bond_atom_site_label_2
_geom_bond_site_symmetry_1
_geom_bond_site_symmetry_2
Ca1 O2 1_555 1_555
C1 C2 1_555 1_555
C2 C3 1_555 1_555
C3 C4 1_555 1_555
C4 C5 1_555 1_555
C5 C6 1_555 1_555
C6 C1 1_555 1_555
C7 C1 1_555 1_555
C8 C4 1_555 1_555
O1 C7 1_555 1_555
O3 Ca1 1_555 1_555
O4 Ca1 1_555 1_555
O5 C7 1_555 1_555
O6 Ca1 1_555 1_555
O7 C8 1_555 1_555
O7C Ca1 1_555 1_555
Ca1C O3 1_555 1_555
Ca1_2 O7 1_555 1_555
O3C Ca1 1_555 1_555
O6C Ca1 1_555 1_555
O7_2 Ca1 1_555 1_555
C8 O6 1_555 1_555
O6 Ca1C 1_555 1_555
O7 Ca1C 1_555 1_555
O7C Ca1C 1_555 1_555

#END
