
#######################################################################
#
#                 Cambridge Crystallographic Data Centre
#                                CCDC 
#
#######################################################################
#
# If this CIF has been generated from an entry in the Cambridge 
# Structural Database, then it will include bibliographic, chemical, 
# crystal, experimental, refinement or atomic coordinate data resulting 
# from the CCDC's data processing and validation procedures.
#
#######################################################################

data_CATTUN
_symmetry_cell_setting           orthorhombic
_symmetry_space_group_name_H-M   'P b c a'
_symmetry_Int_Tables_number      61
_space_group_name_Hall           '-P 2ac 2ab'
loop_
_symmetry_equiv_pos_site_id
_symmetry_equiv_pos_as_xyz
1 x,y,z
2 1/2-x,-y,1/2+z
3 -x,1/2+y,1/2-z
4 1/2+x,1/2-y,-z
5 -x,-y,-z
6 1/2+x,y,1/2-z
7 x,1/2-y,1/2+z
8 1/2-x,1/2+y,z
_cell_length_a                   7.1774(4)
_cell_length_b                   15.4432(9)
_cell_length_c                   20.6586(11)
_cell_angle_alpha                90
_cell_angle_beta                 90
_cell_angle_gamma                90
_cell_volume                     2289.84
loop_
_atom_site_label
_atom_site_type_symbol
_atom_site_fract_x
_atom_site_fract_y
_atom_site_fract_z
Ag1 Ag 0.36277(3) 0.325699(12) 0.454064(9)
N1 N 0.4818(3) 0.28679(12) 0.35340(9)
N2 N 0.5555(3) 0.59032(13) 0.45825(9)
C1 C 0.5402(4) 0.20447(16) 0.34761(13)
H1 H 0.5646 0.1732 0.3852
C2 C 0.5660(4) 0.16383(17) 0.28841(16)
H2 H 0.6056 0.1066 0.2864
C3 C 0.5320(4) 0.2097(2) 0.23323(14)
H3 H 0.5483 0.1839 0.1929
C4 C 0.4731(4) 0.29516(18) 0.23756(11)
H4 H 0.4494 0.3275 0.2005
C5 C 0.4505(3) 0.33086(14) 0.29852(10)
C6 C 0.3841(3) 0.42280(15) 0.30405(11)
C7 C 0.6740(3) 0.53204(15) 0.43335(11)
H5 H 0.7949 0.5302 0.4494
C8 C 0.6250(3) 0.47442(15) 0.38487(11)
H6 H 0.7104 0.4342 0.3693
C9 C 0.4453(3) 0.47810(13) 0.36003(10)
C10 C 0.3225(3) 0.53880(15) 0.38521(12)
H7 H 0.2016 0.5430 0.3693
C11 C 0.3822(3) 0.59291(16) 0.43428(12)
H8 H 0.2985 0.6328 0.4514
O1 O 0.2826(3) 0.45342(12) 0.26280(9)
N3 N 0.4495(4) 0.15903(18) 0.54885(12)
O2 O 0.5399(3) 0.19821(15) 0.50734(11)
O3 O 0.5450(3) 0.1250(2) 0.59126(11)
Ag1D Ag 0.63723(3) 0.674301(12) 0.545936(9)
Ag1C Ag 0.86277(3) 0.174301(12) 0.545936(9)
N2D N 0.4445(3) 0.40968(13) 0.54175(9)
O2C O 0.0399(3) 0.30179(15) 0.49266(11)
O3C O 0.0450(3) 0.3750(2) 0.40874(11)
loop_
_geom_bond_atom_site_label_1
_geom_bond_atom_site_label_2
_geom_bond_site_symmetry_1
_geom_bond_site_symmetry_2
Ag1 N1 1_555 1_555
N1 C1 1_555 1_555
N2 C7 1_555 1_555
C1 H1 1_555 1_555
C2 C1 1_555 1_555
H2 C2 1_555 1_555
C3 C2 1_555 1_555
H3 C3 1_555 1_555
C4 C3 1_555 1_555
H4 C4 1_555 1_555
C5 N1 1_555 1_555
C6 C5 1_555 1_555
C7 H5 1_555 1_555
C8 C7 1_555 1_555
H6 C8 1_555 1_555
C9 C6 1_555 1_555
C10 C9 1_555 1_555
H7 C10 1_555 1_555
C11 N2 1_555 1_555
H8 C11 1_555 1_555
O1 C6 1_555 1_555
N3 O2 1_555 1_555
O2 Ag1 1_555 1_555
O3 N3 1_555 1_555
Ag1D N2 1_555 1_555
Ag1C O2 1_555 1_555
N2D Ag1 1_555 1_555
O2C Ag1 1_555 1_555
O3C Ag1 1_555 1_555
C4 C5 1_555 1_555
C8 C9 1_555 1_555
C10 C11 1_555 1_555
O3 Ag1C 1_555 1_555

#END
