
#######################################################################
#
#                 Cambridge Crystallographic Data Centre
#                                CCDC 
#
#######################################################################
#
# If this CIF has been generated from an entry in the Cambridge 
# Structural Database, then it will include bibliographic, chemical, 
# crystal, experimental, refinement or atomic coordinate data resulting 
# from the CCDC's data processing and validation procedures.
#
#######################################################################

data_CATVAV
_symmetry_cell_setting           orthorhombic
_symmetry_space_group_name_H-M   'P b c a'
_symmetry_Int_Tables_number      61
_space_group_name_Hall           '-P 2ac 2ab'
loop_
_symmetry_equiv_pos_site_id
_symmetry_equiv_pos_as_xyz
1 x,y,z
2 1/2-x,-y,1/2+z
3 -x,1/2+y,1/2-z
4 1/2+x,1/2-y,-z
5 -x,-y,-z
6 1/2+x,y,1/2-z
7 x,1/2-y,1/2+z
8 1/2-x,1/2+y,z
_cell_length_a                   7.0155(3)
_cell_length_b                   15.5043(7)
_cell_length_c                   21.0588(10)
_cell_angle_alpha                90
_cell_angle_beta                 90
_cell_angle_gamma                90
_cell_volume                     2290.57
loop_
_atom_site_label
_atom_site_type_symbol
_atom_site_fract_x
_atom_site_fract_y
_atom_site_fract_z
Ag1 Ag 0.37526(4) 0.330687(13) 0.452523(9)
N1 N 0.4949(3) 0.29050(13) 0.35275(10)
N2 N 0.5539(4) 0.58918(14) 0.45848(10)
C1 C 0.5490(4) 0.20749(18) 0.34816(14)
H1 H 0.5708 0.1766 0.3853
C2 C 0.5735(5) 0.16591(18) 0.29052(17)
H2 H 0.6086 0.1081 0.2892
C3 C 0.5453(4) 0.2111(2) 0.23556(15)
H3 H 0.5625 0.1845 0.1964
C4 C 0.4911(4) 0.29660(19) 0.23888(13)
H4 H 0.4712 0.3286 0.2021
C5 C 0.4671(4) 0.33354(15) 0.29834(12)
C6 C 0.4016(4) 0.42557(16) 0.30258(12)
C7 C 0.6809(4) 0.53418(17) 0.43365(13)
H5 H 0.8034 0.5334 0.4505
C8 C 0.6390(4) 0.47858(16) 0.38432(12)
H6 H 0.7311 0.4411 0.3686
C9 C 0.4571(4) 0.47968(15) 0.35864(11)
C10 C 0.3250(4) 0.53746(18) 0.38336(13)
H7 H 0.2022 0.5403 0.3669
C11 C 0.3790(4) 0.59053(17) 0.43271(14)
H8 H 0.2900 0.6291 0.4489
O1 O 0.3049(4) 0.45667(13) 0.26071(10)
C12 C 0.4652(5) 0.1757(2) 0.55199(14)
O2 O 0.5339(4) 0.20161(16) 0.50183(11)
O3 O 0.5500(4) 0.1384(2) 0.59503(12)
H9 H 0.322(6) 0.185(2) 0.562(2)
Ag1D Ag 0.62474(4) 0.669313(13) 0.547477(9)
Ag1C Ag 0.87526(4) 0.169313(13) 0.547477(9)
N2D N 0.4461(4) 0.41082(14) 0.54152(10)
O2C O 0.0339(4) 0.29839(16) 0.49817(11)
O3C O 0.0500(4) 0.3616(2) 0.40497(12)
loop_
_geom_bond_atom_site_label_1
_geom_bond_atom_site_label_2
_geom_bond_site_symmetry_1
_geom_bond_site_symmetry_2
Ag1 N1 1_555 1_555
N1 C1 1_555 1_555
N2 C7 1_555 1_555
C1 H1 1_555 1_555
C2 C1 1_555 1_555
H2 C2 1_555 1_555
C3 C2 1_555 1_555
H3 C3 1_555 1_555
C4 C3 1_555 1_555
H4 C4 1_555 1_555
C5 N1 1_555 1_555
C6 C5 1_555 1_555
C7 H5 1_555 1_555
C8 C7 1_555 1_555
H6 C8 1_555 1_555
C9 C6 1_555 1_555
C10 C9 1_555 1_555
H7 C10 1_555 1_555
C11 N2 1_555 1_555
H8 C11 1_555 1_555
O1 C6 1_555 1_555
C12 O2 1_555 1_555
O2 Ag1 1_555 1_555
O3 C12 1_555 1_555
H9 C12 1_555 1_555
Ag1D N2 1_555 1_555
Ag1C O2 1_555 1_555
N2D Ag1 1_555 1_555
O2C Ag1 1_555 1_555
O3C Ag1 1_555 1_555
C4 C5 1_555 1_555
C8 C9 1_555 1_555
C10 C11 1_555 1_555
O3 Ag1C 1_555 1_555

#END
