
#######################################################################
#
#                 Cambridge Crystallographic Data Centre
#                                CCDC 
#
#######################################################################
#
# If this CIF has been generated from an entry in the Cambridge 
# Structural Database, then it will include bibliographic, chemical, 
# crystal, experimental, refinement or atomic coordinate data resulting 
# from the CCDC's data processing and validation procedures.
#
#######################################################################

data_CATVID
_symmetry_cell_setting           triclinic
_symmetry_space_group_name_H-M   'P -1'
_symmetry_Int_Tables_number      2
_space_group_name_Hall           '-P 1'
loop_
_symmetry_equiv_pos_site_id
_symmetry_equiv_pos_as_xyz
1 x,y,z
2 -x,-y,-z
_cell_length_a                   9.1591(13)
_cell_length_b                   9.2888(13)
_cell_length_c                   10.1933(14)
_cell_angle_alpha                88.633(3)
_cell_angle_beta                 70.997(2)
_cell_angle_gamma                64.430(2)
_cell_volume                     732.692
loop_
_atom_site_label
_atom_site_type_symbol
_atom_site_fract_x
_atom_site_fract_y
_atom_site_fract_z
Ag1 Ag 0.40869(3) 0.44650(3) 0.29600(2)
N1 N 0.3806(3) 0.2187(3) 0.3406(3)
N2 N 0.6221(4) 0.3612(3) -0.1567(3)
C1 C 0.2404(5) 0.2334(5) 0.4483(3)
H1 H 0.1557 0.3362 0.4913
C2 C 0.2170(6) 0.1028(6) 0.4978(4)
H2 H 0.1167 0.1179 0.5707
C3 C 0.3436(6) -0.0502(6) 0.4382(4)
H3 H 0.3307 -0.1401 0.4702
C4 C 0.4905(5) -0.0674(5) 0.3297(4)
H4 H 0.5798 -0.1693 0.2893
C5 C 0.5026(4) 0.0684(4) 0.2825(3)
C6 C 0.6600(5) 0.0463(4) 0.1601(3)
C7 C 0.4892(5) 0.3302(4) -0.0860(3)
H5 H 0.3894 0.3767 -0.1084
C8 C 0.4939(4) 0.2323(4) 0.0187(3)
H6 H 0.3981 0.2157 0.0663
C9 C 0.6412(4) 0.1598(4) 0.0516(3)
C10 C 0.7818(4) 0.1872(4) -0.0231(4)
H7 H 0.8844 0.1387 -0.0049
C11 C 0.7653(5) 0.2880(5) -0.1249(4)
H8 H 0.8597 0.3059 -0.1743
O1 O 0.7982(4) -0.0676(3) 0.1437(3)
S1 S 0.23020(11) 0.60949(11) 0.64645(8)
O2 O 0.1825(3) 0.6325(4) 0.5239(2)
O3 O 0.2638(4) 0.7318(5) 0.6935(3)
O4 O 0.3556(4) 0.4490(4) 0.6459(4)
C12 C 0.0351(5) 0.6296(6) 0.7855(4)
F1 F 0.0614(4) 0.6025(4) 0.9061(2)
F2 F -0.0927(3) 0.7772(4) 0.8064(3)
F3 F -0.0223(4) 0.5322(5) 0.7544(3)
Ag1A Ag 0.59131(3) 0.55350(3) -0.29600(2)
Ag1A_2 Ag 0.59131(3) 0.55350(3) 0.70400(2)
N2A N 0.3779(4) 0.6388(3) 0.1567(3)
O3A O 0.7362(4) 0.2682(5) 0.3065(3)
loop_
_geom_bond_atom_site_label_1
_geom_bond_atom_site_label_2
_geom_bond_site_symmetry_1
_geom_bond_site_symmetry_2
Ag1 N1 1_555 1_555
N1 C1 1_555 1_555
N2 C7 1_555 1_555
C1 H1 1_555 1_555
C2 C1 1_555 1_555
H2 C2 1_555 1_555
C3 C2 1_555 1_555
H3 C3 1_555 1_555
C4 C3 1_555 1_555
H4 C4 1_555 1_555
C5 N1 1_555 1_555
C6 C5 1_555 1_555
C7 H5 1_555 1_555
C8 C7 1_555 1_555
H6 C8 1_555 1_555
C9 C6 1_555 1_555
C10 C9 1_555 1_555
H7 C10 1_555 1_555
C11 N2 1_555 1_555
H8 C11 1_555 1_555
O1 C6 1_555 1_555
S1 O2 1_555 1_555
O2 Ag1 1_555 1_555
O3 S1 1_555 1_555
O4 S1 1_555 1_555
C12 S1 1_555 1_555
F1 C12 1_555 1_555
F2 C12 1_555 1_555
F3 C12 1_555 1_555
Ag1A N2 1_555 1_555
Ag1A_2 O3 1_555 1_555
N2A Ag1 1_555 1_555
O3A Ag1 1_555 1_555
C4 C5 1_555 1_555
C8 C9 1_555 1_555
C10 C11 1_555 1_555

#END
