
#######################################################################
#
#                 Cambridge Crystallographic Data Centre
#                                CCDC 
#
#######################################################################
#
# If this CIF has been generated from an entry in the Cambridge 
# Structural Database, then it will include bibliographic, chemical, 
# crystal, experimental, refinement or atomic coordinate data resulting 
# from the CCDC's data processing and validation procedures.
#
#######################################################################

data_CAVCAE
_symmetry_cell_setting           monoclinic
_symmetry_space_group_name_H-M   'C 2/c'
_symmetry_Int_Tables_number      15
_space_group_name_Hall           '-C 2yn'
loop_
_symmetry_equiv_pos_site_id
_symmetry_equiv_pos_as_xyz
1 x,y,z
2 1/2+x,1/2+y,z
3 -x,y,1/2-z
4 1/2-x,1/2+y,1/2-z
5 -x,-y,-z
6 1/2-x,1/2-y,-z
7 x,-y,1/2+z
8 1/2+x,1/2-y,1/2+z
_cell_length_a                   16.1044(7)
_cell_length_b                   18.9447(6)
_cell_length_c                   8.1713(6)
_cell_angle_alpha                90
_cell_angle_beta                 94.175(4)
_cell_angle_gamma                90
_cell_volume                     2486.39
loop_
_atom_site_label
_atom_site_type_symbol
_atom_site_fract_x
_atom_site_fract_y
_atom_site_fract_z
Zn1 Zn 0.5000 0.235302(18) 0.2500
Zn2 Zn 0.5000 -0.019836(19) 0.2500
P1 P 0.58876(4) 0.09901(3) 0.06936(7)
H1 H 0.6710(19) 0.0993(14) 0.018(4)
O1 O 0.57730(10) 0.17104(8) 0.1393(2)
O2 O 0.59180(11) 0.03957(10) 0.1922(2)
O3 O 0.53186(17) 0.08639(11) -0.0789(3)
N1 N 0.41346(11) 0.25856(9) 0.0403(2)
N2 N 0.42093(12) 0.32851(10) 0.3309(2)
C1 C 0.41154(16) 0.22565(13) -0.1029(3)
H2 H 0.4505 0.1904 -0.1175
C2 C 0.35305(18) 0.24177(15) -0.2338(3)
H3 H 0.3546 0.2185 -0.3338
C3 C 0.29412(17) 0.29193(15) -0.2124(3)
H4 H 0.2542 0.3023 -0.2970
C4 C 0.29409(14) 0.32762(13) -0.0626(3)
C5 C 0.35639(13) 0.30991(12) 0.0610(3)
C6 C 0.36021(14) 0.34690(11) 0.2150(3)
C7 C 0.30247(17) 0.40136(12) 0.2390(4)
C8 C 0.3117(2) 0.43824(15) 0.3876(4)
H5 H 0.2757 0.4750 0.4078
C9 C 0.3734(2) 0.42034(17) 0.5021(4)
H6 H 0.3807 0.4451 0.6004
C10 C 0.42583(19) 0.36394(16) 0.4694(3)
H7 H 0.4665 0.3508 0.5503
C11 C 0.23391(17) 0.38096(15) -0.0300(4)
H8 H 0.1912 0.3913 -0.1093
C12 C 0.23842(18) 0.41616(15) 0.1135(4)
H9 H 0.1991 0.4508 0.1313
Zn2F Zn 0.5000 0.019836(19) -0.2500
Zn2F_2 Zn 0.5000 0.019836(19) 0.7500
P1B P 0.41124(4) 0.09901(3) 0.43064(7)
H1B H 0.3290(19) 0.0993(14) 0.482(4)
O1B O 0.42270(10) 0.17104(8) 0.3607(2)
O2B O 0.40820(11) 0.03957(10) 0.3078(2)
O3B O 0.46814(17) 0.08639(11) 0.5789(3)
O3F O 0.53186(17) -0.08639(11) 0.4211(3)
O3D O 0.46814(17) -0.08639(11) 0.0789(3)
N1B N 0.58654(11) 0.25856(9) 0.4597(2)
N2B N 0.57907(12) 0.32851(10) 0.1691(2)
C1B C 0.58846(16) 0.22565(13) 0.6029(3)
H2B H 0.5495 0.1904 0.6175
C2B C 0.64695(18) 0.24177(15) 0.7338(3)
H3B H 0.6454 0.2185 0.8338
C3B C 0.70588(17) 0.29193(15) 0.7124(3)
H4B H 0.7458 0.3023 0.7970
C4B C 0.70591(14) 0.32762(13) 0.5626(3)
C5B C 0.64361(13) 0.30991(12) 0.4390(3)
C6B C 0.63979(14) 0.34690(11) 0.2850(3)
C7B C 0.69753(17) 0.40136(12) 0.2610(4)
C8B C 0.6883(2) 0.43824(15) 0.1124(4)
H5B H 0.7243 0.4750 0.0922
C9B C 0.6266(2) 0.42034(17) -0.0021(4)
H6B H 0.6193 0.4451 -0.1004
C10B C 0.57417(19) 0.36394(16) 0.0306(3)
H7B H 0.5335 0.3508 -0.0503
C11B C 0.76609(17) 0.38096(15) 0.5300(4)
H8B H 0.8088 0.3913 0.6093
C12B C 0.76158(18) 0.41616(15) 0.3865(4)
H9B H 0.8009 0.4508 0.3687
loop_
_geom_bond_atom_site_label_1
_geom_bond_atom_site_label_2
_geom_bond_site_symmetry_1
_geom_bond_site_symmetry_2
Zn1 O1 1_555 1_555
Zn2 O2 1_555 1_555
P1 H1 1_555 1_555
O1 P1 1_555 1_555
O2 P1 1_555 1_555
O3 P1 1_555 1_555
N1 Zn1 1_555 1_555
N2 Zn1 1_555 1_555
C1 N1 1_555 1_555
H2 C1 1_555 1_555
C2 C1 1_555 1_555
H3 C2 1_555 1_555
C3 C2 1_555 1_555
H4 C3 1_555 1_555
C4 C3 1_555 1_555
C5 N1 1_555 1_555
C6 N2 1_555 1_555
C7 C6 1_555 1_555
C8 C7 1_555 1_555
H5 C8 1_555 1_555
C9 C8 1_555 1_555
H6 C9 1_555 1_555
C10 N2 1_555 1_555
H7 C10 1_555 1_555
C11 C4 1_555 1_555
H8 C11 1_555 1_555
C12 C7 1_555 1_555
H9 C12 1_555 1_555
Zn2F O3 1_555 1_555
Zn2F_2 O3B 1_555 1_555
P1B H1B 1_555 1_555
O1B Zn1 1_555 1_555
O2B Zn2 1_555 1_555
O3B P1B 1_555 1_555
O3F Zn2 1_555 1_555
O3D Zn2 1_555 1_555
N1B Zn1 1_555 1_555
N2B Zn1 1_555 1_555
C1B N1B 1_555 1_555
H2B C1B 1_555 1_555
C2B C1B 1_555 1_555
H3B C2B 1_555 1_555
C3B C2B 1_555 1_555
H4B C3B 1_555 1_555
C4B C3B 1_555 1_555
C5B N1B 1_555 1_555
C6B N2B 1_555 1_555
C7B C6B 1_555 1_555
C8B C7B 1_555 1_555
H5B C8B 1_555 1_555
C9B C8B 1_555 1_555
H6B C9B 1_555 1_555
C10B N2B 1_555 1_555
H7B C10B 1_555 1_555
C11B C4B 1_555 1_555
H8B C11B 1_555 1_555
C12B C7B 1_555 1_555
H9B C12B 1_555 1_555
C4 C5 1_555 1_555
C5 C6 1_555 1_555
C9 C10 1_555 1_555
C11 C12 1_555 1_555
P1B O1B 1_555 1_555
P1B O2B 1_555 1_555
C4B C5B 1_555 1_555
C5B C6B 1_555 1_555
C9B C10B 1_555 1_555
C11B C12B 1_555 1_555

#END
