
#######################################################################
#
#                 Cambridge Crystallographic Data Centre
#                                CCDC 
#
#######################################################################
#
# If this CIF has been generated from an entry in the Cambridge 
# Structural Database, then it will include bibliographic, chemical, 
# crystal, experimental, refinement or atomic coordinate data resulting 
# from the CCDC's data processing and validation procedures.
#
#######################################################################

data_CAVFEL
_symmetry_cell_setting           triclinic
_symmetry_space_group_name_H-M   'P -1'
_symmetry_Int_Tables_number      2
_space_group_name_Hall           '-P 1'
loop_
_symmetry_equiv_pos_site_id
_symmetry_equiv_pos_as_xyz
1 x,y,z
2 -x,-y,-z
_cell_length_a                   8.101(3)
_cell_length_b                   10.151(4)
_cell_length_c                   12.198(5)
_cell_angle_alpha                105.682(3)
_cell_angle_beta                 108.594(4)
_cell_angle_gamma                95.902(3)
_cell_volume                     895.482
loop_
_atom_site_label
_atom_site_type_symbol
_atom_site_fract_x
_atom_site_fract_y
_atom_site_fract_z
Zn1 Zn 0.5000 1.0000 0.5000
Mo1 Mo 0.88434(3) 1.60834(2) 0.43729(2)
Mo2 Mo 0.51537(3) 1.34509(2) 0.43500(2)
Mo3 Mo 0.12487(3) 1.35667(2) 0.28924(2)
O1 O 0.2429(3) 1.0217(2) 0.5073(2)
H1 H 0.1766 0.9537 0.5233
H2 H 0.1976 1.0992 0.4946
O2 O 1.0360(3) 1.7575(2) 0.46967(19)
O3 O 0.7421(3) 1.5840(2) 0.29135(18)
O4 O 0.0870(3) 1.4542(2) 0.19025(18)
O5 O 0.3194(3) 1.2767(2) 0.27448(17)
O6 O 0.6867(3) 1.3828(2) 0.38641(18)
O7 O -0.0450(3) 1.2144(2) 0.21605(18)
O8 O 0.6003(3) 1.4742(2) 0.59070(17)
O9 O 1.0311(3) 1.4668(2) 0.40658(17)
O10 O 0.2447(3) 1.3201(2) 0.46617(18)
O11 O 0.5339(3) 1.1866(2) 0.46297(17)
N1 N 0.1905(3) 0.4702(2) -0.0430(2)
H3 H 0.1096 0.4998 -0.0898
N2 N 0.4118(3) 0.4677(3) 0.1144(2)
H4 H 0.4968 0.4948 0.1845
N3 N 0.3760(3) 0.8890(2) 0.3080(2)
C1 C 0.2222(4) 0.3362(3) -0.0708(3)
C2 C 0.1410(4) 0.2199(3) -0.1761(3)
H5 H 0.0486 0.2231 -0.2435
C3 C 0.2069(5) 0.1001(3) -0.1733(3)
H6 H 0.1587 0.0200 -0.2413
C4 C 0.3447(5) 0.0963(3) -0.0703(3)
H7 H 0.3827 0.0127 -0.0716
C5 C 0.4267(5) 0.2121(3) 0.0334(3)
H8 H 0.5188 0.2091 0.1011
C6 C 0.3622(4) 0.3327(3) 0.0296(3)
C7 C 0.3060(4) 0.5471(3) 0.0688(2)
C8 C 0.3052(4) 0.6933(3) 0.1269(3)
C9 C 0.3831(4) 0.7564(3) 0.2535(3)
H9 H 0.4412 0.7056 0.3013
C10 C 0.2892(4) 0.9601(3) 0.2374(3)
H10 H 0.2806 1.0505 0.2751
C11 C 0.2124(4) 0.9053(3) 0.1120(3)
H11 H 0.1549 0.9584 0.0664
C12 C 0.2221(4) 0.7704(3) 0.0551(3)
H12 H 0.1741 0.7318 -0.0296
Mo1A Mo 0.11566(3) 0.39166(2) 0.56271(2)
Mo1A_2 Mo 1.11566(3) 1.39166(2) 0.56271(2)
Mo1A_3 Mo 0.11566(3) 1.39166(2) 0.56271(2)
Mo1_2 Mo 0.88434(3) 0.60834(2) 0.43729(2)
Mo2A Mo 0.48463(3) 0.65491(2) 0.56500(2)
Mo2A_2 Mo 0.48463(3) 1.65491(2) 0.56500(2)
Mo3A Mo 0.87513(3) 0.64333(2) 0.71076(2)
Mo3A_2 Mo 0.87513(3) 1.64333(2) 0.71076(2)
Mo3_2 Mo 1.12487(3) 1.35667(2) 0.28924(2)
O1A O 0.7571(3) 0.9783(2) 0.4927(2)
H1A H 0.8234 1.0463 0.4767
H2A H 0.8024 0.9008 0.5054
O2A O -0.0360(3) 0.2425(2) 0.53033(19)
O3A O 0.2579(3) 0.4160(2) 0.70865(18)
O4A O 0.9130(3) 0.5458(2) 0.80975(18)
O5A O 0.6806(3) 0.7233(2) 0.72552(17)
O6A O 0.3133(3) 0.6172(2) 0.61359(18)
O7A O 1.0450(3) 0.7856(2) 0.78395(18)
O8A O 0.3997(3) 1.5258(2) 0.40930(17)
O8_2 O 0.6003(3) 0.4742(2) 0.59070(17)
O8A_2 O 0.3997(3) 0.5258(2) 0.40930(17)
O9A O 0.9689(3) 1.5332(2) 0.59342(17)
O9_2 O 0.0311(3) 1.4668(2) 0.40658(17)
O9_3 O 0.0311(3) 0.4668(2) 0.40658(17)
O9A_2 O -0.0311(3) 0.5332(2) 0.59342(17)
O9A_3 O 0.9689(3) 0.5332(2) 0.59342(17)
O10A O 0.7553(3) 0.6799(2) 0.53383(18)
O10A_2 O 0.7553(3) 1.6799(2) 0.53383(18)
O10_2 O 0.2447(3) 0.3201(2) 0.46617(18)
O11A O 0.4661(3) 0.8134(2) 0.53703(17)
N1A N 0.8095(3) 1.5298(2) 1.0430(2)
H3A H 0.8904 1.5002 1.0898
N2A N 0.5882(3) 1.5323(3) 0.8856(2)
H4A H 0.5032 1.5052 0.8155
N3A N 0.6240(3) 1.1110(2) 0.6920(2)
C1A C 0.7778(4) 1.6638(3) 1.0708(3)
C2A C 0.8590(4) 1.7801(3) 1.1761(3)
H5A H 0.9514 1.7769 1.2435
C3A C 0.7931(5) 1.8999(3) 1.1733(3)
H6A H 0.8413 1.9800 1.2413
C4A C 0.6553(5) 1.9037(3) 1.0703(3)
H7A H 0.6173 1.9873 1.0716
C5A C 0.5733(5) 1.7879(3) 0.9666(3)
H8A H 0.4812 1.7909 0.8989
C6A C 0.6378(4) 1.6673(3) 0.9704(3)
C7A C 0.6940(4) 1.4529(3) 0.9312(2)
C8A C 0.6948(4) 1.3067(3) 0.8731(3)
C9A C 0.6169(4) 1.2436(3) 0.7465(3)
H9A H 0.5588 1.2944 0.6987
C10A C 0.7108(4) 1.0399(3) 0.7626(3)
H10A H 0.7194 0.9495 0.7249
C11A C 0.7876(4) 1.0947(3) 0.8880(3)
H11A H 0.8451 1.0416 0.9336
C12A C 0.7779(4) 1.2296(3) 0.9449(3)
H12A H 0.8259 1.2682 1.0296
loop_
_geom_bond_atom_site_label_1
_geom_bond_atom_site_label_2
_geom_bond_site_symmetry_1
_geom_bond_site_symmetry_2
Zn1 O1 1_555 1_555
Mo1 O2 1_555 1_555
Mo2 O5 1_555 1_555
Mo3 O4 1_555 1_555
O1 H1 1_555 1_555
H2 O1 1_555 1_555
O3 Mo1 1_555 1_555
O5 Mo3 1_555 1_555
O6 Mo1 1_555 1_555
O7 Mo3 1_555 1_555
O8 Mo2 1_555 1_555
O9 Mo1 1_555 1_555
O10 Mo2 1_555 1_555
O11 Zn1 1_555 1_555
N1 H3 1_555 1_555
N2 H4 1_555 1_555
N3 Zn1 1_555 1_555
C1 N1 1_555 1_555
C2 C1 1_555 1_555
H5 C2 1_555 1_555
C3 C2 1_555 1_555
H6 C3 1_555 1_555
C4 C3 1_555 1_555
H7 C4 1_555 1_555
C5 C4 1_555 1_555
H8 C5 1_555 1_555
C6 N2 1_555 1_555
C7 N1 1_555 1_555
C8 C7 1_555 1_555
C9 N3 1_555 1_555
H9 C9 1_555 1_555
C10 N3 1_555 1_555
H10 C10 1_555 1_555
C11 C10 1_555 1_555
H11 C11 1_555 1_555
C12 C8 1_555 1_555
H12 C12 1_555 1_555
Mo1A O2A 1_555 1_555
Mo1A_2 O9 1_555 1_555
Mo1A_3 O10 1_555 1_555
Mo1_2 O9A_3 1_555 1_555
Mo2A O5A 1_555 1_555
Mo2A_2 O8 1_555 1_555
Mo3A O4A 1_555 1_555
Mo3A_2 O8 1_555 1_555
Mo3_2 O9 1_555 1_555
O1A Zn1 1_555 1_555
H1A O1A 1_555 1_555
H2A O1A 1_555 1_555
O3A Mo1A 1_555 1_555
O5A Mo3A 1_555 1_555
O6A Mo1A 1_555 1_555
O7A Mo3A 1_555 1_555
O8A Mo2 1_555 1_555
O8_2 Mo2A 1_555 1_555
O8A_2 Mo2A 1_555 1_555
O9A Mo1 1_555 1_555
O9_2 Mo3 1_555 1_555
O9_3 Mo1A 1_555 1_555
O9A_2 Mo1A 1_555 1_555
O9A_3 Mo3A 1_555 1_555
O10A Mo1_2 1_555 1_555
O10A_2 Mo1 1_555 1_555
O10_2 Mo1A 1_555 1_555
O11A Zn1 1_555 1_555
N1A H3A 1_555 1_555
N2A H4A 1_555 1_555
N3A Zn1 1_555 1_555
C1A N1A 1_555 1_555
C2A C1A 1_555 1_555
H5A C2A 1_555 1_555
C3A C2A 1_555 1_555
H6A C3A 1_555 1_555
C4A C3A 1_555 1_555
H7A C4A 1_555 1_555
C5A C4A 1_555 1_555
H8A C5A 1_555 1_555
C6A N2A 1_555 1_555
C7A N1A 1_555 1_555
C8A C7A 1_555 1_555
C9A N3A 1_555 1_555
H9A C9A 1_555 1_555
C10A N3A 1_555 1_555
H10A C10A 1_555 1_555
C11A C10A 1_555 1_555
H11A C11A 1_555 1_555
C12A C8A 1_555 1_555
H12A C12A 1_555 1_555
Mo2 O6 1_555 1_555
Mo2 O11 1_555 1_555
Mo3 O10 1_555 1_555
Mo3 O8A 1_555 1_555
N2 C7 1_555 1_555
C1 C6 1_555 1_555
C5 C6 1_555 1_555
C8 C9 1_555 1_555
C11 C12 1_555 1_555
Mo1A_2 O9A 1_555 1_555
Mo1A_3 O9_2 1_555 1_555
Mo2A O6A 1_555 1_555
Mo2A O10A 1_555 1_555
Mo2A O11A 1_555 1_555
Mo2A_2 O8A 1_555 1_555
Mo2A_2 O10A_2 1_555 1_555
Mo3A O8_2 1_555 1_555
Mo3A O10A 1_555 1_555
Mo3A_2 O9A 1_555 1_555
Mo3A_2 O10A_2 1_555 1_555
N2A C7A 1_555 1_555
C1A C6A 1_555 1_555
C5A C6A 1_555 1_555
C8A C9A 1_555 1_555
C11A C12A 1_555 1_555

#END
