
#######################################################################
#
#                 Cambridge Crystallographic Data Centre
#                                CCDC 
#
#######################################################################
#
# If this CIF has been generated from an entry in the Cambridge 
# Structural Database, then it will include bibliographic, chemical, 
# crystal, experimental, refinement or atomic coordinate data resulting 
# from the CCDC's data processing and validation procedures.
#
#######################################################################

data_CAVLOC
_symmetry_cell_setting           cubic
_symmetry_space_group_name_H-M   'I 21 3'
_symmetry_Int_Tables_number      199
_space_group_name_Hall           'I 2b 2c 3'
loop_
_symmetry_equiv_pos_site_id
_symmetry_equiv_pos_as_xyz
1 x,y,z
2 1/2-x,-y,1/2+z
3 -x,1/2+y,1/2-z
4 1/2+x,1/2-y,-z
5 z,x,y
6 1/2+z,1/2-x,-y
7 1/2-z,-x,1/2+y
8 -z,1/2+x,1/2-y
9 y,z,x
10 -y,1/2+z,1/2-x
11 1/2+y,1/2-z,-x
12 1/2-y,-z,1/2+x
13 1/2+x,1/2+y,1/2+z
14 -x,1/2-y,z
15 1/2-x,y,-z
16 x,-y,1/2-z
17 1/2+z,1/2+x,1/2+y
18 z,-x,1/2-y
19 -z,1/2-x,y
20 1/2-z,x,-y
21 1/2+y,1/2+z,1/2+x
22 1/2-y,z,-x
23 y,-z,1/2-x
24 -y,1/2-z,x
_cell_length_a                   17.124(2)
_cell_length_b                   17.124(2)
_cell_length_c                   17.124(2)
_cell_angle_alpha                90
_cell_angle_beta                 90
_cell_angle_gamma                90
_cell_volume                     5021.29
loop_
_atom_site_label
_atom_site_type_symbol
_atom_site_fract_x
_atom_site_fract_y
_atom_site_fract_z
Ca1 Ca 0.66382(7) 0.33618(7) 0.83618(7)
P1 P 0.54621(10) 0.04621(10) 0.45379(10)
O1 O 0.6509(4) 0.3319(3) 0.7045(3)
O2 O 0.6565(4) 0.3977(3) 0.5946(3)
O3 O 0.5287(3) 0.3231(3) 0.8558(7)
H1 H 0.5057(19) 0.2790(18) 0.854(7)
H2 H 0.4952(13) 0.354(5) 0.836(7)
C1 C 0.5753(4) 0.1315(3) 0.5064(3)
C2 C 0.4878(4) -0.0122(4) 0.5122(4)
H3 H 0.4505 0.0133 0.5281
C3 C 0.5987(4) 0.1981(4) 0.4683(3)
H4 H 0.5985 0.1992 0.4140
C4 C 0.6224(4) 0.2634(3) 0.5089(4)
H5 H 0.6383 0.3075 0.4815
C5 C 0.6230(4) 0.2644(3) 0.5891(4)
C6 C 0.5983(4) 0.1978(4) 0.6286(3)
H6 H 0.5984 0.1969 0.6829
C7 C 0.5731(4) 0.1322(3) 0.5868(3)
H7 H 0.5547 0.0886 0.6136
C8 C 0.6469(4) 0.3373(5) 0.6344(5)
Ca1C Ca 0.16382(7) 0.16382(7) 0.16382(7)
Ca1A Ca 0.83618(7) -0.33618(7) 0.33618(7)
O1G O 0.2955(3) 0.1509(4) 0.1681(3)
O1J O 0.8319(3) -0.2045(3) 0.3491(4)
O1I O 0.6681(3) 0.2045(3) 0.8491(4)
O1F O 0.7955(3) 0.3491(4) 0.8319(3)
O2G O 0.4054(3) 0.1565(4) 0.1023(3)
O2J O 0.8977(3) -0.0946(3) 0.3435(4)
O3F O 0.6442(7) 0.4713(3) 0.8231(3)
O3I O 0.6769(3) 0.3558(7) 0.9713(3)
H1F H 0.646(7) 0.4943(19) 0.7790(18)
H1I H 0.7210(18) 0.354(7) 0.9943(19)
H2F H 0.664(7) 0.5048(13) 0.854(5)
H2I H 0.646(5) 0.336(7) 1.0048(13)
C1G C 0.4936(3) 0.0753(4) 0.3685(3)
C1J C 0.6315(3) -0.0064(3) 0.4247(4)
H3G H 0.4719 -0.0495 0.4867
H3J H 0.5133 -0.0281 0.5495
C3G C 0.5317(3) 0.0987(4) 0.3019(4)
C3J C 0.6981(4) 0.0317(3) 0.4013(4)
H4G H 0.5860 0.0985 0.3008
H4J H 0.6992 0.0860 0.4015
C4G C 0.4911(4) 0.1224(4) 0.2366(3)
C4J C 0.7634(3) -0.0089(4) 0.3776(4)
H5G H 0.5185 0.1383 0.1925
H5J H 0.8075 0.0185 0.3617
C5G C 0.4109(4) 0.1230(4) 0.2356(3)
C5J C 0.7644(3) -0.0891(4) 0.3770(4)
C6G C 0.3714(3) 0.0983(4) 0.3022(4)
C6J C 0.6978(4) -0.1286(3) 0.4017(4)
H6G H 0.3171 0.0984 0.3031
H6J H 0.6969 -0.1829 0.4016
C7G C 0.4132(3) 0.0731(4) 0.3678(3)
C7J C 0.6322(3) -0.0868(3) 0.4269(4)
H7G H 0.3864 0.0547 0.4114
H7J H 0.5886 -0.1136 0.4453
C8G C 0.3656(5) 0.1469(4) 0.1627(5)
C8J C 0.8373(5) -0.1344(5) 0.3531(4)
O4 O 0.5000 0.2500 1.0281(5)
loop_
_geom_bond_atom_site_label_1
_geom_bond_atom_site_label_2
_geom_bond_site_symmetry_1
_geom_bond_site_symmetry_2
Ca1 O1 1_555 1_555
P1 C1 1_555 1_555
O1 C8 1_555 1_555
O2 C8 1_555 1_555
O3 Ca1 1_555 1_555
H1 O3 1_555 1_555
H2 O3 1_555 1_555
C1 C3 1_555 1_555
C2 P1 1_555 1_555
H3 C2 1_555 1_555
C3 H4 1_555 1_555
C4 C3 1_555 1_555
H5 C4 1_555 1_555
C5 C4 1_555 1_555
C6 C5 1_555 1_555
H6 C6 1_555 1_555
C7 C1 1_555 1_555
H7 C7 1_555 1_555
C8 C5 1_555 1_555
Ca1C O1G 1_555 1_555
Ca1A O1J 1_555 1_555
O1G C8G 1_555 1_555
O1J C8J 1_555 1_555
O1I Ca1 1_555 1_555
O1F Ca1 1_555 1_555
O2G C8G 1_555 1_555
O2J C8J 1_555 1_555
O3F Ca1 1_555 1_555
O3I Ca1 1_555 1_555
H1F O3F 1_555 1_555
H1I O3I 1_555 1_555
H2F O3F 1_555 1_555
H2I O3I 1_555 1_555
C1G P1 1_555 1_555
C1J P1 1_555 1_555
H3G C2 1_555 1_555
H3J C2 1_555 1_555
C3G C1G 1_555 1_555
C3J C1J 1_555 1_555
H4G C3G 1_555 1_555
H4J C3J 1_555 1_555
C4G C3G 1_555 1_555
C4J C3J 1_555 1_555
H5G C4G 1_555 1_555
H5J C4J 1_555 1_555
C5G C4G 1_555 1_555
C5J C4J 1_555 1_555
C6G C5G 1_555 1_555
C6J C5J 1_555 1_555
H6G C6G 1_555 1_555
H6J C6J 1_555 1_555
C7G C1G 1_555 1_555
C7J C1J 1_555 1_555
H7G C7G 1_555 1_555
H7J C7J 1_555 1_555
C8G C5G 1_555 1_555
C8J C5J 1_555 1_555
C6 C7 1_555 1_555
C6G C7G 1_555 1_555
C6J C7J 1_555 1_555

#END
