
#######################################################################
#
#                 Cambridge Crystallographic Data Centre
#                                CCDC 
#
#######################################################################
#
# If this CIF has been generated from an entry in the Cambridge 
# Structural Database, then it will include bibliographic, chemical, 
# crystal, experimental, refinement or atomic coordinate data resulting 
# from the CCDC's data processing and validation procedures.
#
#######################################################################

data_CAVLOB
_symmetry_cell_setting           monoclinic
_symmetry_space_group_name_H-M   'C 2/c'
_symmetry_Int_Tables_number      15
_space_group_name_Hall           '-C 2yn'
loop_
_symmetry_equiv_pos_site_id
_symmetry_equiv_pos_as_xyz
1 x,y,z
2 1/2+x,1/2+y,z
3 -x,y,1/2-z
4 1/2-x,1/2+y,1/2-z
5 -x,-y,-z
6 1/2-x,1/2-y,-z
7 x,-y,1/2+z
8 1/2+x,1/2-y,1/2+z
_cell_length_a                   5.8736(12)
_cell_length_b                   17.266(3)
_cell_length_c                   12.983(3)
_cell_angle_alpha                90
_cell_angle_beta                 93.40(2)
_cell_angle_gamma                90
_cell_volume                     1314.33
loop_
_atom_site_label
_atom_site_type_symbol
_atom_site_fract_x
_atom_site_fract_y
_atom_site_fract_z
Cu1 Cu 0.2414(2) 0.40080(7) -0.40833(8)
N1 N 0.0579(13) 0.2916(4) -0.4110(5)
N2 N 0.0864(13) 0.1642(4) -0.4791(5)
C1 C -0.1226(17) 0.2697(6) -0.3613(6)
H1 H -0.1998 0.3070 -0.3225
C2 C -0.2012(17) 0.1946(7) -0.3645(7)
H2 H -0.3277 0.1789 -0.3272
C3 C -0.0883(18) 0.1431(6) -0.4243(7)
H3 H -0.1366 0.0906 -0.4266
C4 C 0.1523(15) 0.2372(5) -0.4708(6)
C5 C 0.4362(17) 0.4061(5) -0.2864(6)
N3 N 0.4430(16) 0.0227(5) -0.5222(6)
N4 N 0.5638(17) 0.4061(5) -0.2136(6)
C6 C 0.5570(16) -0.0227(5) -0.4778(6)
Cu1E Cu 0.2586(2) 0.09920(7) -0.59167(8)
Cu1B Cu 0.7586(2) 0.40080(7) -0.09167(8)
Cu1A Cu 0.7414(2) -0.09920(7) -0.40833(8)
N1E N 0.4421(13) 0.2084(4) -0.5890(5)
N2E N 0.4136(13) 0.3358(4) -0.5209(5)
C1E C 0.6226(17) 0.2303(6) -0.6387(6)
H1E H 0.6998 0.1930 -0.6775
C2E C 0.7012(17) 0.3054(7) -0.6355(7)
H2E H 0.8277 0.3211 -0.6728
C3E C 0.5883(18) 0.3569(6) -0.5757(7)
H3E H 0.6366 0.4094 -0.5734
C4E C 0.3477(15) 0.2628(5) -0.5292(6)
C5E C 0.0638(17) 0.0939(5) -0.7136(6)
N3E N 0.0570(16) 0.4773(5) -0.4778(6)
N5 N 0.0000 0.5650(8) -0.2500
loop_
_geom_bond_atom_site_label_1
_geom_bond_atom_site_label_2
_geom_bond_site_symmetry_1
_geom_bond_site_symmetry_2
Cu1 N1 1_555 1_555
N1 C1 1_555 1_555
N2 C3 1_555 1_555
C1 H1 1_555 1_555
C2 C1 1_555 1_555
H2 C2 1_555 1_555
C3 C2 1_555 1_555
H3 C3 1_555 1_555
C4 N1 1_555 1_555
C5 Cu1 1_555 1_555
N3 C6 1_555 1_555
N4 C5 1_555 1_555
C6 Cu1A 1_555 1_555
Cu1E N2 1_555 1_555
Cu1B N4 1_555 1_555
N1E Cu1E 1_555 1_555
N2E Cu1 1_555 1_555
C1E N1E 1_555 1_555
H1E C1E 1_555 1_555
C2E C1E 1_555 1_555
H2E C2E 1_555 1_555
C3E N2E 1_555 1_555
H3E C3E 1_555 1_555
C4E C4 1_555 1_555
C5E Cu1E 1_555 1_555
N3E Cu1 1_555 1_555
N2 C4 1_555 1_555
N3 Cu1E 1_555 1_555
N1E C4E 1_555 1_555
N2E C4E 1_555 1_555
C2E C3E 1_555 1_555

#END
