
#######################################################################
#
#                 Cambridge Crystallographic Data Centre
#                                CCDC 
#
#######################################################################
#
# If this CIF has been generated from an entry in the Cambridge 
# Structural Database, then it will include bibliographic, chemical, 
# crystal, experimental, refinement or atomic coordinate data resulting 
# from the CCDC's data processing and validation procedures.
#
#######################################################################

data_CAVLIV
_symmetry_cell_setting           monoclinic
_symmetry_space_group_name_H-M   'P 21/n'
_symmetry_Int_Tables_number      14
_space_group_name_Hall           '-P 2yn'
loop_
_symmetry_equiv_pos_site_id
_symmetry_equiv_pos_as_xyz
1 x,y,z
2 1/2-x,1/2+y,1/2-z
3 -x,-y,-z
4 1/2+x,1/2-y,1/2+z
_cell_length_a                   9.1210(8)
_cell_length_b                   11.4690(10)
_cell_length_c                   13.5610(12)
_cell_angle_alpha                90
_cell_angle_beta                 104.623(2)
_cell_angle_gamma                90
_cell_volume                     1372.65
loop_
_atom_site_label
_atom_site_type_symbol
_atom_site_fract_x
_atom_site_fract_y
_atom_site_fract_z
Ni1 Ni 0.87457(7) 0.15170(5) 0.12527(5)
Ni2 Ni 0.77926(8) 0.06700(6) 0.46891(5)
N1 N 0.9578(4) -0.0218(3) 0.1211(3)
N2 N 1.0614(4) -0.1481(3) 0.0161(3)
N3 N 0.8328(5) 0.1296(4) 0.2654(3)
N4 N 0.7987(5) 0.3208(4) 0.1022(3)
N5 N 1.0910(5) 0.2095(4) 0.1999(3)
H1 H 1.1421 0.2276 0.1540
H2 H 1.1397 0.1533 0.2405
H3 H 1.0836 0.2723 0.2369
N6 N 0.7091(6) 0.0008(4) 0.6666(3)
C1 C 1.0210(6) -0.2175(5) 0.1721(4)
C2 C 0.9688(6) -0.1084(5) 0.1879(4)
C3 C 1.0067(5) -0.0471(4) 0.0378(3)
C4 C 0.8143(6) 0.1076(4) 0.3439(4)
C5 C 1.0674(6) -0.2327(5) 0.0845(4)
N7 N 0.8268(5) 0.3131(4) 0.5476(3)
C6 C 0.7647(6) 0.4141(5) 0.0761(4)
C7 C 0.7375(6) 0.0269(4) 0.5927(4)
C8 C 0.8145(6) 0.2197(5) 0.5161(4)
N8 N 0.6611(4) 0.0908(4) 0.0541(3)
H4 H 0.6491 0.0915 -0.0131
H5 H 0.5915 0.1364 0.0701
H6 H 0.6505 0.0183 0.0746
H7 H 1.033(4) -0.272(3) 0.221(3)
H8 H 0.938(5) -0.090(4) 0.243(3)
H9 H 1.100(5) -0.299(4) 0.074(3)
Ni1B Ni 1.12543(7) -0.15170(5) -0.12527(5)
Ni1A Ni 0.62543(7) -0.34830(5) 0.37473(5)
Ni1A_2 Ni 0.62543(7) 0.65170(5) 0.37473(5)
Ni2A Ni 0.72074(8) 0.56700(6) 0.03109(5)
N1B N 1.0422(4) 0.0218(3) -0.1211(3)
N2B N 0.9386(4) 0.1481(3) -0.0161(3)
N3B N 1.1672(5) -0.1296(4) -0.2654(3)
N3A N 0.6672(5) 0.6296(4) 0.2346(3)
N4A N 0.7013(5) -0.1792(4) 0.3978(3)
N4B N 1.2013(5) -0.3208(4) -0.1022(3)
N5B N 0.9090(5) -0.2095(4) -0.1999(3)
H1B H 0.8579 -0.2276 -0.1540
H2B H 0.8603 -0.1533 -0.2405
H3B H 0.9164 -0.2723 -0.2369
N6A N 0.7909(6) 0.5008(4) -0.1666(3)
C1B C 0.9790(6) 0.2175(5) -0.1721(4)
C2B C 1.0312(6) 0.1084(5) -0.1879(4)
C3B C 0.9933(5) 0.0471(4) -0.0378(3)
C4A C 0.6857(6) 0.6076(4) 0.1561(4)
C5B C 0.9326(6) 0.2327(5) -0.0845(4)
N7A N 0.6732(5) 0.8131(4) -0.0476(3)
C6A C 0.7353(6) -0.0859(5) 0.4239(4)
C7A C 0.7625(6) 0.5269(4) -0.0927(4)
C8A C 0.6855(6) 0.7197(5) -0.0161(4)
N8B N 1.3389(4) -0.0908(4) -0.0541(3)
H4B H 1.3509 -0.0915 0.0131
H5B H 1.4085 -0.1364 -0.0701
H6B H 1.3495 -0.0183 -0.0746
H7B H 0.967(4) 0.272(3) -0.221(3)
H8B H 1.062(5) 0.090(4) -0.243(3)
H9B H 0.900(5) 0.299(4) -0.074(3)
O1 O 0.9291(9) 0.5411(6) 0.6726(4)
loop_
_geom_bond_atom_site_label_1
_geom_bond_atom_site_label_2
_geom_bond_site_symmetry_1
_geom_bond_site_symmetry_2
Ni1 N1 1_555 1_555
Ni2 C4 1_555 1_555
N1 C2 1_555 1_555
N2 C3 1_555 1_555
N3 Ni1 1_555 1_555
N4 Ni1 1_555 1_555
N5 Ni1 1_555 1_555
H1 N5 1_555 1_555
H2 N5 1_555 1_555
H3 N5 1_555 1_555
N6 C7 1_555 1_555
C1 C2 1_555 1_555
C2 H8 1_555 1_555
C3 N1 1_555 1_555
C4 N3 1_555 1_555
C5 N2 1_555 1_555
N7 C8 1_555 1_555
C6 N4 1_555 1_555
C7 Ni2 1_555 1_555
C8 Ni2 1_555 1_555
N8 Ni1 1_555 1_555
H4 N8 1_555 1_555
H5 N8 1_555 1_555
H6 N8 1_555 1_555
H7 C1 1_555 1_555
H9 C5 1_555 1_555
Ni1B N2 1_555 1_555
Ni1A N4A 1_555 1_555
Ni1A_2 N3A 1_555 1_555
Ni2A C6 1_555 1_555
N1B Ni1B 1_555 1_555
N2B Ni1 1_555 1_555
N3B Ni1B 1_555 1_555
N3A C4A 1_555 1_555
N4A C6A 1_555 1_555
N4B Ni1B 1_555 1_555
N5B Ni1B 1_555 1_555
H1B N5B 1_555 1_555
H2B N5B 1_555 1_555
H3B N5B 1_555 1_555
N6A C7A 1_555 1_555
C1B C2B 1_555 1_555
C2B N1B 1_555 1_555
C3B C3 1_555 1_555
C4A Ni2A 1_555 1_555
C5B N2B 1_555 1_555
N7A C8A 1_555 1_555
C6A Ni2 1_555 1_555
C7A Ni2A 1_555 1_555
C8A Ni2A 1_555 1_555
N8B Ni1B 1_555 1_555
H4B N8B 1_555 1_555
H5B N8B 1_555 1_555
H6B N8B 1_555 1_555
H7B C1B 1_555 1_555
H8B C2B 1_555 1_555
H9B C5B 1_555 1_555
C1 C5 1_555 1_555
N1B C3B 1_555 1_555
N2B C3B 1_555 1_555
C1B C5B 1_555 1_555

#END
