
#######################################################################
#
#                 Cambridge Crystallographic Data Centre
#                                CCDC 
#
#######################################################################
#
# If this CIF has been generated from an entry in the Cambridge 
# Structural Database, then it will include bibliographic, chemical, 
# crystal, experimental, refinement or atomic coordinate data resulting 
# from the CCDC's data processing and validation procedures.
#
#######################################################################

data_CAVMUJ
_symmetry_cell_setting           monoclinic
_symmetry_space_group_name_H-M   'P 21/c'
_symmetry_Int_Tables_number      14
_space_group_name_Hall           '-P 2ybc'
loop_
_symmetry_equiv_pos_site_id
_symmetry_equiv_pos_as_xyz
1 x,y,z
2 -x,1/2+y,1/2-z
3 -x,-y,-z
4 x,1/2-y,1/2+z
_cell_length_a                   20.29839(17)
_cell_length_b                   7.33083(8)
_cell_length_c                   11.69125(15)
_cell_angle_alpha                90
_cell_angle_beta                 104.9584(12)
_cell_angle_gamma                90
_cell_volume                     1680.75
loop_
_atom_site_label
_atom_site_type_symbol
_atom_site_fract_x
_atom_site_fract_y
_atom_site_fract_z
Sc1 Sc -0.00272(22) 0.9102(6) 0.2476(4)
Sc2 Sc 0.49515(21) 1.0817(6) 0.2431(4)
O1 O 0.5153(5) 0.8305(8) 0.1755(7)
O2 O 0.40115(34) 0.9769(14) 0.2534(11)
O3 O 0.0899(4) 0.9936(14) 0.3615(10)
O4 O 0.0125(5) 0.6621(8) 0.3388(6)
O5 O 0.4378(5) 1.3403(10) 0.5747(11)
O6 O 0.41548(34) 0.6824(16) 0.2909(9)
O7 O 0.0911(4) 1.2954(13) 0.3623(8)
O8 O 0.0698(4) 0.5035(14) 0.1562(8)
O9 O 0.0442(4) 0.8123(15) 0.1202(6)
O10 O 0.4457(5) 1.0282(10) 0.5978(7)
C1 C 0.41395(23) 1.1780(9) 0.5656(11)
C2 C 0.19000(18) 0.8831(5) 0.1605(12)
C3 C 0.25817(17) 0.9339(5) 0.1872(13)
C4 C 0.30070(21) 1.3034(9) 0.4834(13)
C5 C 0.12428(18) 1.1460(23) 0.3777(14)
C6 C 0.23271(18) 0.9701(5) 0.4405(16)
C7 C 0.20008(16) 1.1382(4) 0.4203(14)
C8 C 0.23052(20) 1.3094(5) 0.4355(15)
C9 C 0.34115(19) 1.1433(7) 0.5027(11)
C10 C 0.16548(15) 0.7067(5) 0.1652(11)
C11 C 0.30340(18) 0.9837(6) 0.4735(16)
C12 C 0.09129(20) 0.6707(21) 0.1477(14)
C13 C 0.21596(16) 0.5759(6) 0.2043(13)
C14 C 0.30302(16) 0.7877(5) 0.2135(11)
C15 C 0.28573(18) 0.6081(6) 0.2304(11)
C16 C 0.37702(21) 0.8309(20) 0.2568(14)
Sc1A Sc 0.00272(22) 0.4102(6) 0.2524(4)
Sc1A_2 Sc 0.00272(22) 1.4102(6) 0.2524(4)
Sc2A Sc 0.50485(21) 0.5817(6) 0.2569(4)
Sc2C Sc 0.49515(21) 1.4183(6) 0.7431(4)
Sc2B Sc 0.50485(21) 0.9183(6) 0.7569(4)
O1A O 0.4847(5) 1.3305(8) 0.3245(7)
O4A O -0.0125(5) 1.1621(8) 0.1612(6)
O5C O 0.4378(5) 1.1597(10) 0.0747(11)
O6A O 0.58452(34) 1.1824(16) 0.2091(9)
O7A O -0.0911(4) 0.7954(13) 0.1377(8)
O8A O -0.0698(4) 1.0035(14) 0.3438(8)
O10B O 0.5543(5) 0.9718(10) 0.4022(7)
loop_
_geom_bond_atom_site_label_1
_geom_bond_atom_site_label_2
_geom_bond_site_symmetry_1
_geom_bond_site_symmetry_2
Sc1 O3 1_555 1_555
Sc2 O1 1_555 1_555
O1 Sc2A 1_555 1_555
O2 Sc2 1_555 1_555
O3 C5 1_555 1_555
O4 Sc1 1_555 1_555
O5 C1 1_555 1_555
O6 C16 1_555 1_555
O7 C5 1_555 1_555
O8 C12 1_555 1_555
O9 Sc1 1_555 1_555
O10 C1 1_555 1_555
C1 C9 1_555 1_555
C2 C3 1_555 1_555
C3 C14 1_555 1_555
C4 C8 1_555 1_555
C5 C7 1_555 1_555
C6 C7 1_555 1_555
C7 C8 1_555 1_555
C9 C4 1_555 1_555
C10 C2 1_555 1_555
C11 C6 1_555 1_555
C12 O9 1_555 1_555
C13 C10 1_555 1_555
C14 C15 1_555 1_555
C15 C13 1_555 1_555
C16 O2 1_555 1_555
Sc1A O4 1_555 1_555
Sc1A_2 O7 1_555 1_555
Sc2A O6 1_555 1_555
Sc2C O5 1_555 1_555
Sc2B O10 1_555 1_555
O1A Sc2 1_555 1_555
O4A Sc1 1_555 1_555
O5C Sc2 1_555 1_555
O6A Sc2 1_555 1_555
O7A Sc1 1_555 1_555
O8A Sc1 1_555 1_555
O10B Sc2 1_555 1_555
O8 Sc1A 1_555 1_555
C9 C11 1_555 1_555
C10 C12 1_555 1_555
C14 C16 1_555 1_555
Sc1A_2 O4A 1_555 1_555

#END
