
#######################################################################
#
#                 Cambridge Crystallographic Data Centre
#                                CCDC 
#
#######################################################################
#
# If this CIF has been generated from an entry in the Cambridge 
# Structural Database, then it will include bibliographic, chemical, 
# crystal, experimental, refinement or atomic coordinate data resulting 
# from the CCDC's data processing and validation procedures.
#
#######################################################################

data_CAVMIW
_symmetry_cell_setting           monoclinic
_symmetry_space_group_name_H-M   'C c'
_symmetry_Int_Tables_number      9
_space_group_name_Hall           'C -2yc'
loop_
_symmetry_equiv_pos_site_id
_symmetry_equiv_pos_as_xyz
1 x,y,z
2 x,-y,1/2+z
3 1/2+x,1/2+y,z
4 1/2+x,1/2-y,1/2+z
_cell_length_a                   9.2090(5)
_cell_length_b                   14.7120(8)
_cell_length_c                   12.5178(6)
_cell_angle_alpha                90
_cell_angle_beta                 109.01(3)
_cell_angle_gamma                90
_cell_volume                     1603.45
loop_
_atom_site_label
_atom_site_type_symbol
_atom_site_fract_x
_atom_site_fract_y
_atom_site_fract_z
Fe1 Fe -0.04710(7) 0.04238(4) 0.33270(5)
Fe2 Fe -0.16837(6) 0.20033(4) 0.10783(5)
Cl1 Cl 0.00501(16) -0.06245(8) 0.22280(11)
Cl2 Cl -0.01569(14) 0.30327(8) 0.23520(10)
O1 O -0.1950(4) 0.1130(2) 0.2098(3)
H1 H -0.2995 0.1002 0.2006
O2 O -0.0477(4) 0.1391(2) 0.4533(3)
O3 O 0.1577(4) 0.1089(2) 0.3610(3)
O4 O 0.1133(4) 0.2444(2) 0.5684(3)
O5 O 0.3205(4) 0.2130(2) 0.4755(3)
O6 O -0.2871(4) -0.1087(2) 0.4741(3)
O7 O 0.0195(4) -0.1393(2) 0.5880(3)
O8 O 0.0750(4) -0.0392(2) 0.4776(3)
O9 O -0.2334(4) -0.0160(2) 0.3549(3)
C1 C 0.0757(6) 0.1847(3) 0.4913(4)
C2 C 0.1951(6) 0.1680(3) 0.4380(4)
C3 C -0.1959(6) -0.0674(3) 0.4390(4)
C4 C -0.0181(6) -0.0825(3) 0.5073(4)
Fe2C Fe 0.33163(6) 0.29967(4) 0.60783(5)
Fe2A Fe -0.16837(6) -0.20033(4) 0.60783(5)
O4C O -0.3867(4) 0.2556(2) 0.0684(3)
O5C O -0.1795(4) 0.2870(2) -0.0245(3)
O6A O -0.2871(4) 0.1087(2) -0.0259(3)
O7A O 0.0195(4) 0.1393(2) 0.0880(3)
C5 C 0.4238(6) 0.2096(4) 0.2577(5)
H2 H 0.3498 0.2469 0.2810
H3 H 0.4355 0.2374 0.1889
C6 C 0.5809(7) 0.2100(4) 0.3531(5)
H4 H 0.6181 0.2727 0.3684
H5 H 0.6549 0.1741 0.3297
H6 H 0.5693 0.1836 0.4218
N1 N 0.3614(6) 0.1148(3) 0.2308(4)
H7 H 0.2692 0.1169 0.1745
H8 H 0.3487 0.0895 0.2936
H9 H 0.4284 0.0806 0.2081
O10 O -0.6082(4) 0.0385(3) -0.1103(3)
H10 H -0.707(3) 0.063(4) -0.150(5)
H11 H -0.541(5) 0.085(3) -0.120(6)
O11 O -0.4723(4) 0.0160(3) 0.1201(3)
H12 H -0.482(7) 0.004(5) 0.192(2)
H13 H -0.573(3) 0.019(5) 0.067(4)
loop_
_geom_bond_atom_site_label_1
_geom_bond_atom_site_label_2
_geom_bond_site_symmetry_1
_geom_bond_site_symmetry_2
Fe1 Cl1 1_555 1_555
Fe2 Cl2 1_555 1_555
O1 Fe1 1_555 1_555
H1 O1 1_555 1_555
O2 Fe1 1_555 1_555
O3 Fe1 1_555 1_555
O4 C1 1_555 1_555
O5 C2 1_555 1_555
O6 C3 1_555 1_555
O7 C4 1_555 1_555
O8 Fe1 1_555 1_555
O9 Fe1 1_555 1_555
C1 O2 1_555 1_555
C2 O3 1_555 1_555
C3 O9 1_555 1_555
C4 O8 1_555 1_555
C5 H2 1_555 1_555
H3 C5 1_555 1_555
C6 C5 1_555 1_555
H4 C6 1_555 1_555
H5 C6 1_555 1_555
H6 C6 1_555 1_555
N1 C5 1_555 1_555
H7 N1 1_555 1_555
H8 N1 1_555 1_555
H9 N1 1_555 1_555
O10 H10 1_555 1_555
O11 H12 1_555 1_555
H11 O10 1_555 1_555
H13 O11 1_555 1_555
Fe2C O4 1_555 1_555
Fe2A O6 1_555 1_555
O4C Fe2 1_555 1_555
O5C Fe2 1_555 1_555
O6A Fe2 1_555 1_555
O7A Fe2 1_555 1_555
Fe2 O1 1_555 1_555
O5 Fe2C 1_555 1_555
O7 Fe2A 1_555 1_555
C1 C2 1_555 1_555
C3 C4 1_555 1_555

#END
