
#######################################################################
#
#                 Cambridge Crystallographic Data Centre
#                                CCDC 
#
#######################################################################
#
# If this CIF has been generated from an entry in the Cambridge 
# Structural Database, then it will include bibliographic, chemical, 
# crystal, experimental, refinement or atomic coordinate data resulting 
# from the CCDC's data processing and validation procedures.
#
#######################################################################

data_CAVMUJ02
_symmetry_cell_setting           monoclinic
_symmetry_space_group_name_H-M   'P 21/c'
_symmetry_Int_Tables_number      14
_space_group_name_Hall           '-P 2ybc'
loop_
_symmetry_equiv_pos_site_id
_symmetry_equiv_pos_as_xyz
1 x,y,z
2 -x,1/2+y,1/2-z
3 -x,-y,-z
4 x,1/2-y,1/2+z
_cell_length_a                   20.53822(25)
_cell_length_b                   7.29921(12)
_cell_length_c                   12.56044(25)
_cell_angle_alpha                90
_cell_angle_beta                 106.5514(17)
_cell_angle_gamma                90
_cell_volume                     1804.95
loop_
_atom_site_label
_atom_site_type_symbol
_atom_site_fract_x
_atom_site_fract_y
_atom_site_fract_z
Sc1 Sc -0.00468(20) 0.9350(5) 0.24040(34)
Sc2 Sc 0.49878(22) 1.0719(6) 0.2626(4)
O1 O 0.5087(5) 0.8342(7) 0.1744(5)
O2 O 0.40892(32) 0.9446(9) 0.2702(11)
O3 O 0.0834(4) 1.0147(10) 0.3602(8)
O4 O 0.0075(6) 0.6931(7) 0.3343(5)
O5 O 0.4400(5) 1.3363(11) 0.6025(9)
O6 O 0.41912(33) 0.6432(10) 0.2966(7)
O7 O 0.09616(33) 1.3281(9) 0.3575(8)
O8 O 0.0717(4) 0.5047(8) 0.1682(7)
O9 O 0.05237(31) 0.7985(10) 0.1512(5)
O10 O 0.4349(5) 1.0397(10) 0.5939(6)
C1 C 0.40710(14) 1.1929(8) 0.5592(11)
C2 C 0.19505(12) 0.8888(4) 0.1852(10)
C3 C 0.26408(13) 0.9292(4) 0.2155(11)
C4 C 0.29532(14) 1.32743(34) 0.5002(11)
C5 C 0.11716(15) 1.1636(8) 0.3736(11)
C6 C 0.22358(14) 1.00079(33) 0.4504(13)
C7 C 0.19202(11) 1.17063(34) 0.4262(10)
C8 C 0.22570(15) 1.33769(33) 0.4500(11)
C9 C 0.33228(10) 1.16482(35) 0.5149(12)
C10 C 0.16868(9) 0.7139(4) 0.1890(9)
C11 C 0.29406(13) 1.00480(33) 0.4905(16)
C12 C 0.09590(15) 0.6674(8) 0.1741(11)
C13 C 0.21635(13) 0.5741(4) 0.2210(11)
C14 C 0.30753(10) 0.7803(4) 0.2483(8)
C15 C 0.28585(13) 0.6040(4) 0.2634(8)
C16 C 0.38218(15) 0.7852(8) 0.2630(11)
Sc1A Sc 0.00468(20) 0.4350(5) 0.25960(34)
Sc1A_2 Sc 0.00468(20) 1.4350(5) 0.25960(34)
Sc2A Sc 0.50122(22) 0.5719(6) 0.2374(4)
Sc2C Sc 0.49878(22) 1.4281(6) 0.7626(4)
Sc2B Sc 0.50122(22) 0.9281(6) 0.7374(4)
O1A O 0.4913(5) 1.3342(7) 0.3256(5)
O4A O -0.0075(6) 1.1931(7) 0.1657(5)
O5C O 0.4400(5) 1.1637(11) 0.1025(9)
O6A O 0.58088(33) 1.1432(10) 0.2034(7)
O7A O -0.09616(33) 0.8281(9) 0.1425(8)
O8A O -0.0717(4) 1.0047(8) 0.3318(7)
O10B O 0.5651(5) 0.9603(10) 0.4061(6)
loop_
_geom_bond_atom_site_label_1
_geom_bond_atom_site_label_2
_geom_bond_site_symmetry_1
_geom_bond_site_symmetry_2
Sc1 O3 1_555 1_555
Sc2 O1 1_555 1_555
O1 Sc2A 1_555 1_555
O2 Sc2 1_555 1_555
O3 C5 1_555 1_555
O4 Sc1 1_555 1_555
O5 C1 1_555 1_555
O6 C16 1_555 1_555
O7 C5 1_555 1_555
O8 C12 1_555 1_555
O9 Sc1 1_555 1_555
O10 C1 1_555 1_555
C1 C9 1_555 1_555
C2 C3 1_555 1_555
C3 C14 1_555 1_555
C4 C8 1_555 1_555
C5 C7 1_555 1_555
C6 C7 1_555 1_555
C7 C8 1_555 1_555
C9 C4 1_555 1_555
C10 C2 1_555 1_555
C11 C6 1_555 1_555
C12 O9 1_555 1_555
C13 C10 1_555 1_555
C14 C15 1_555 1_555
C15 C13 1_555 1_555
C16 O2 1_555 1_555
Sc1A O4 1_555 1_555
Sc1A_2 O7 1_555 1_555
Sc2A O6 1_555 1_555
Sc2C O5 1_555 1_555
Sc2B O10 1_555 1_555
O1A Sc2 1_555 1_555
O4A Sc1 1_555 1_555
O5C Sc2 1_555 1_555
O6A Sc2 1_555 1_555
O7A Sc1 1_555 1_555
O8A Sc1 1_555 1_555
O10B Sc2 1_555 1_555
O8 Sc1A 1_555 1_555
C9 C11 1_555 1_555
C10 C12 1_555 1_555
C14 C16 1_555 1_555
Sc1A_2 O4A 1_555 1_555

#END
