
#######################################################################
#
#                 Cambridge Crystallographic Data Centre
#                                CCDC 
#
#######################################################################
#
# If this CIF has been generated from an entry in the Cambridge 
# Structural Database, then it will include bibliographic, chemical, 
# crystal, experimental, refinement or atomic coordinate data resulting 
# from the CCDC's data processing and validation procedures.
#
#######################################################################

data_CAVMAP
_symmetry_cell_setting           monoclinic
_symmetry_space_group_name_H-M   'P 21/c'
_symmetry_Int_Tables_number      14
_space_group_name_Hall           '-P 2ybc'
loop_
_symmetry_equiv_pos_site_id
_symmetry_equiv_pos_as_xyz
1 x,y,z
2 -x,1/2+y,1/2-z
3 -x,-y,-z
4 x,1/2-y,1/2+z
_cell_length_a                   9.072(6)
_cell_length_b                   21.526(12)
_cell_length_c                   14.375(9)
_cell_angle_alpha                90
_cell_angle_beta                 99.212(12)
_cell_angle_gamma                90
_cell_volume                     2771
loop_
_atom_site_label
_atom_site_type_symbol
_atom_site_fract_x
_atom_site_fract_y
_atom_site_fract_z
Zn1 Zn 0.81863(6) 0.44509(3) 0.04358(4)
Fe1 Fe 0.30057(9) 0.29746(3) 0.03174(6)
O1 O 0.6364(4) 0.41001(17) 0.0922(3)
O2 O 0.7298(5) 0.32184(19) 0.0461(4)
O3 O 0.2163(4) 0.46214(16) -0.0576(3)
O4 O 0.0047(4) 0.4282(2) -0.0152(3)
N1 N 0.6893(5) 0.43935(19) -0.0955(3)
N2 N -0.0500(5) 0.4356(2) -0.8186(4)
C1 C 0.6313(6) 0.3506(3) 0.0801(4)
C2 C 0.1261(6) 0.4188(3) -0.0431(4)
C3 C 0.5033(6) 0.3174(3) 0.1116(4)
C4 C 0.4776(7) 0.2512(3) 0.1088(5)
C5 C 0.3419(8) 0.2413(3) 0.1484(5)
C6 C 0.2870(7) 0.2998(3) 0.1723(5)
C7 C 0.3842(7) 0.3465(3) 0.1515(4)
C8 C 0.1694(6) 0.3533(3) -0.0623(4)
C9 C 0.2955(7) 0.3335(3) -0.1008(4)
C10 C 0.2928(8) 0.2667(3) -0.1022(5)
C11 C 0.1621(8) 0.2471(3) -0.0684(6)
C12 C 0.0842(7) 0.3010(3) -0.0427(5)
C13 C 0.7183(6) 0.3983(3) -0.1628(4)
C14 C 0.6290(6) 0.3927(3) -0.2496(4)
C15 C 0.5030(6) 0.4323(3) -0.2726(4)
C16 C 0.4761(6) 0.4740(3) -0.2027(4)
C17 C 0.5743(6) 0.4769(3) -0.1174(4)
C18 C 0.4047(6) 0.4304(3) -0.3650(4)
C19 C 0.4673(7) 0.4191(3) -0.4482(4)
C20 C 0.3772(7) 0.4193(3) -0.5356(5)
C21 C 0.2239(7) 0.4308(3) -0.5442(4)
C22 C 0.1616(7) 0.4399(3) -0.4615(4)
C23 C 0.2537(7) 0.4401(3) -0.3736(4)
C24 C 0.1264(6) 0.4321(3) -0.6378(4)
C25 C 0.1816(7) 0.4555(3) -0.7173(5)
C26 C 0.0902(7) 0.4572(3) -0.8034(5)
C27 C -0.1043(7) 0.4124(3) -0.7435(4)
C28 C -0.0189(7) 0.4089(3) -0.6529(4)
H1 H 0.5406 0.2191 0.0856
H2 H 0.2943 0.2006 0.1559
H3 H 0.1945 0.3066 0.1992
H4 H 0.3723 0.3916 0.1612
H5 H 0.3721 0.3605 -0.1219
H6 H 0.3670 0.2394 -0.1252
H7 H 0.1311 0.2034 -0.0617
H8 H -0.0096 0.3015 -0.0157
H9 H 0.8029 0.3726 -0.1493
H10 H 0.6514 0.3630 -0.2932
H11 H 0.3919 0.5001 -0.2131
H12 H 0.5575 0.5072 -0.0733
H13 H 0.5702 0.4115 -0.4437
H14 H 0.4198 0.4117 -0.5899
H15 H 0.0582 0.4460 -0.4654
H16 H 0.2111 0.4470 -0.3191
H17 H 0.2806 0.4697 -0.7114
H18 H 0.1284 0.4747 -0.8546
H19 H -0.2033 0.3979 -0.7522
H20 H -0.0595 0.3911 -0.6029
Zn1_2 Zn -0.18137(6) 0.44509(3) -0.95642(4)
Zn1B Zn 0.18137(6) 0.55491(3) -0.04358(4)
Zn1_3 Zn -0.18137(6) 0.44509(3) 0.04358(4)
O3B O 0.7837(4) 0.53786(16) 0.0576(3)
O4_2 O 1.0047(4) 0.4282(2) -0.0152(3)
N2_2 N 0.9500(5) 0.4356(2) 0.1814(4)
loop_
_geom_bond_atom_site_label_1
_geom_bond_atom_site_label_2
_geom_bond_site_symmetry_1
_geom_bond_site_symmetry_2
Zn1 O1 1_555 1_555
Fe1 C3 1_555 1_555
O1 C1 1_555 1_555
O2 Zn1 1_555 1_555
O3 C2 1_555 1_555
O4 C2 1_555 1_555
N1 Zn1 1_555 1_555
N2 C26 1_555 1_555
C1 O2 1_555 1_555
C2 C8 1_555 1_555
C3 C1 1_555 1_555
C4 Fe1 1_555 1_555
C5 Fe1 1_555 1_555
C6 Fe1 1_555 1_555
C7 Fe1 1_555 1_555
C8 Fe1 1_555 1_555
C9 Fe1 1_555 1_555
C10 Fe1 1_555 1_555
C11 Fe1 1_555 1_555
C12 Fe1 1_555 1_555
C13 N1 1_555 1_555
C14 C13 1_555 1_555
C15 C14 1_555 1_555
C16 C15 1_555 1_555
C17 N1 1_555 1_555
C18 C15 1_555 1_555
C19 C18 1_555 1_555
C20 C19 1_555 1_555
C21 C20 1_555 1_555
C22 C21 1_555 1_555
C23 C18 1_555 1_555
C24 C21 1_555 1_555
C25 C24 1_555 1_555
C26 C25 1_555 1_555
C27 N2 1_555 1_555
C28 C24 1_555 1_555
H1 C4 1_555 1_555
H2 C5 1_555 1_555
H3 C6 1_555 1_555
H4 C7 1_555 1_555
H5 C9 1_555 1_555
H6 C10 1_555 1_555
H7 C11 1_555 1_555
H8 C12 1_555 1_555
H9 C13 1_555 1_555
H10 C14 1_555 1_555
H11 C16 1_555 1_555
H12 C17 1_555 1_555
H13 C19 1_555 1_555
H14 C20 1_555 1_555
H15 C22 1_555 1_555
H16 C23 1_555 1_555
H17 C25 1_555 1_555
H18 C26 1_555 1_555
H19 C27 1_555 1_555
H20 C28 1_555 1_555
Zn1_2 N2 1_555 1_555
Zn1B O3 1_555 1_555
Zn1_3 O4 1_555 1_555
O3B Zn1 1_555 1_555
O4_2 Zn1 1_555 1_555
N2_2 Zn1 1_555 1_555
C3 C4 1_555 1_555
C3 C7 1_555 1_555
C4 C5 1_555 1_555
C5 C6 1_555 1_555
C6 C7 1_555 1_555
C8 C9 1_555 1_555
C8 C12 1_555 1_555
C9 C10 1_555 1_555
C10 C11 1_555 1_555
C11 C12 1_555 1_555
C16 C17 1_555 1_555
C22 C23 1_555 1_555
C27 C28 1_555 1_555

#END
