
#######################################################################
#
#                 Cambridge Crystallographic Data Centre
#                                CCDC 
#
#######################################################################
#
# If this CIF has been generated from an entry in the Cambridge 
# Structural Database, then it will include bibliographic, chemical, 
# crystal, experimental, refinement or atomic coordinate data resulting 
# from the CCDC's data processing and validation procedures.
#
#######################################################################

data_CAVNUK
_symmetry_cell_setting           triclinic
_symmetry_space_group_name_H-M   'P -1'
_symmetry_Int_Tables_number      2
_space_group_name_Hall           '-P 1'
loop_
_symmetry_equiv_pos_site_id
_symmetry_equiv_pos_as_xyz
1 x,y,z
2 -x,-y,-z
_cell_length_a                   18.8164(2)
_cell_length_b                   19.3559(2)
_cell_length_c                   30.0200(4)
_cell_angle_alpha                103.749(2)
_cell_angle_beta                 93.328(2)
_cell_angle_gamma                117.501(2)
_cell_volume                     9239.81
loop_
_atom_site_label
_atom_site_type_symbol
_atom_site_fract_x
_atom_site_fract_y
_atom_site_fract_z
Cd1 Cd 0.25023(4) 0.03690(3) 0.25388(2)
Cd2 Cd 0.22795(4) 0.21014(4) 0.21514(2)
Cd3 Cd 0.87161(4) 0.82968(4) 0.15388(2)
Cd4 Cd 0.04222(4) -0.17915(4) 0.23714(2)
Cd5 Cd 0.27119(4) -0.13224(4) 0.15428(2)
Cd6 Cd 0.09726(4) -0.06539(4) 0.12880(2)
Cd7 Cd 0.26448(4) -0.14465(4) 0.29486(2)
Cd8 Cd 0.02709(4) 0.02953(4) 0.24850(2)
Cd9 Cd 0.46141(4) 0.24788(4) 0.26632(3)
Cd10 Cd 0.21342(4) 0.20520(4) 0.35257(2)
Cd11 Cd 0.46612(4) 0.03821(4) 0.26538(3)
Cd12 Cd 0.41108(4) 0.80500(4) 0.22120(2)
Cd13 Cd 0.17916(4) -0.01115(4) 0.37360(2)
Cd14 Cd 0.33436(4) 0.08694(4) 0.13361(3)
Cd15 Cd 0.42238(4) 0.31483(4) 0.16014(3)
Cd16 Cd 0.41072(4) 0.16705(4) 0.37877(2)
Cd17 Cd 0.29002(5) 0.20782(5) 0.48445(3)
S1 S 0.26319(12) 0.10145(12) 0.33862(7)
S2 S 0.31988(12) 0.14674(11) 0.21567(7)
S3 S 0.31171(12) -0.05569(11) 0.24066(7)
S4 S 0.10180(12) -0.04642(11) 0.21552(7)
S5 S 0.26955(18) 0.29375(16) 0.43648(8)
S6 S 0.47297(16) 0.29400(16) 0.35282(10)
S7 S 0.51476(15) 0.15327(16) 0.22980(10)
S8 S 0.16257(16) 0.06587(16) 0.44874(9)
S9 S 0.37468(16) -0.02206(15) 0.12292(11)
S10 S 0.04123(15) -0.10217(15) 0.31874(9)
S11 S 0.26751(16) -0.07869(16) 0.37832(9)
S12 S 0.53079(15) -0.05178(15) 0.25337(9)
S13 S 0.32567(14) -0.23918(14) 0.28082(9)
S14 S 0.06081(15) 0.10580(15) 0.33355(8)
S15 S 0.27289(15) 0.29591(14) 0.30015(8)
S16 S 0.12656(14) -0.24790(14) 0.23774(9)
S17 S 0.87526(13) 0.94663(14) 0.21470(8)
S18 S 0.33341(16) -0.22555(14) 0.14105(8)
S19 S 0.12433(14) -0.18674(14) 0.11939(8)
S20 S 0.19054(14) 0.05090(14) 0.09929(8)
S21 S 0.07655(13) 0.10950(13) 0.18816(8)
S22 S 0.89536(14) 0.73666(13) 0.19279(9)
S23 S 0.27710(13) 0.28804(12) 0.15587(8)
S24 S 0.95179(12) 0.89588(13) 0.09711(7)
S25 S 0.2933(2) 0.2392(2) 0.56782(11)
S26 S 0.44673(18) 0.20413(15) 0.11362(13)
S27 S 0.49843(17) 0.37572(15) 0.24292(11)
S28 S 0.45710(16) 0.06317(17) 0.35082(9)
S29 S 0.41448(18) 0.1944(2) 0.46466(10)
N1 N 0.4715(4) 0.7296(4) 0.2024(3)
N2 N 0.5112(4) 0.6539(4) 0.1547(2)
N3 N 0.7439(4) 0.7473(4) 0.1128(3)
N4 N 0.6103(4) 0.6660(4) 0.0995(2)
N5 N 0.4796(5) 0.4142(5) 0.1286(3)
N6 N 0.5223(4) 0.5314(4) 0.1133(3)
N7 N 0.3855(6) 0.5961(7) 0.0108(3)
N8 N 0.4591(4) 0.5874(4) 0.0678(2)
B1 B 0.5257(6) 0.6102(6) 0.1088(3)
C1 C 0.4670(5) 0.6916(5) 0.1586(3)
H1 H 0.4362 0.6913 0.1331
C2 C 0.5464(6) 0.6690(6) 0.2000(3)
H2 H 0.5809 0.6505 0.2091
C3 C 0.5221(6) 0.7153(6) 0.2288(3)
H3 H 0.5373 0.7343 0.2612
C4 C 0.6777(5) 0.7212(5) 0.1308(3)
H4 H 0.6780 0.7395 0.1624
C5 C 0.7173(5) 0.7046(6) 0.0660(3)
H5 H 0.7503 0.7095 0.0437
C6 C 0.6360(5) 0.6546(6) 0.0576(3)
H6 H 0.6031 0.6188 0.0289
C7 C 0.4798(5) 0.4830(5) 0.1376(3)
H7 H 0.4522 0.4974 0.1595
C8 C 0.5271(8) 0.4182(7) 0.0959(5)
H8 H 0.5395 0.3776 0.0824
C9 C 0.5535(7) 0.4880(6) 0.0857(4)
H9 H 0.5865 0.5046 0.0642
C10 C 0.4527(6) 0.6340(7) 0.0423(4)
H10 H 0.4924 0.6879 0.0468
C11 C 0.3446(7) 0.5215(8) 0.0171(4)
H11 H 0.2931 0.4808 0.0001
C12 C 0.3873(6) 0.5143(7) 0.0503(4)
H12 H 0.3718 0.4682 0.0601
C13 C 0.1865(6) 0.3042(8) 0.4542(4)
C14 C 0.1180(8) 0.2418(6) 0.4628(5)
H13 H 0.1147 0.1914 0.4596
C15 C 0.0545(7) 0.2548(10) 0.4760(5)
H14 H 0.0087 0.2131 0.4817
C16 C 0.0595(9) 0.3302(13) 0.4807(5)
H15 H 0.0170 0.3389 0.4895
C17 C 0.1280(12) 0.3926(9) 0.4721(6)
H16 H 0.1313 0.4430 0.4753
C18 C 0.1914(9) 0.3796(7) 0.4589(6)
H17 H 0.2372 0.4213 0.4532
C19 C 0.5799(5) 0.3489(6) 0.3712(3)
C20 C 0.6219(6) 0.3204(5) 0.3944(3)
H18 H 0.5935 0.2706 0.4003
C21 C 0.7063(7) 0.3664(8) 0.4087(4)
H19 H 0.7344 0.3474 0.4242
C22 C 0.7487(5) 0.4410(8) 0.3998(5)
H20 H 0.8052 0.4717 0.4093
C23 C 0.7067(7) 0.4694(6) 0.3766(5)
H21 H 0.7351 0.5193 0.3707
C24 C 0.6223(7) 0.4234(6) 0.3623(4)
H22 H 0.5942 0.4425 0.3468
C25 C 0.6211(5) 0.2065(6) 0.2382(4)
C26 C 0.6713(7) 0.2599(7) 0.2809(3)
H23 H 0.6486 0.2669 0.3072
C27 C 0.7554(7) 0.3028(7) 0.2844(4)
H24 H 0.7890 0.3385 0.3130
C28 C 0.7893(5) 0.2923(8) 0.2451(6)
H25 H 0.8456 0.3209 0.2474
C29 C 0.7391(8) 0.2389(9) 0.2024(5)
H26 H 0.7618 0.2319 0.1761
C30 C 0.6550(7) 0.1960(7) 0.1989(3)
H27 H 0.6214 0.1603 0.1704
C31 C 0.1666(6) 0.0183(5) 0.4917(3)
C32 C 0.2356(5) 0.0131(6) 0.5048(4)
H28 H 0.2789 0.0307 0.4891
C33 C 0.2400(7) -0.0186(7) 0.5412(4)
H29 H 0.2861 -0.0221 0.5499
C34 C 0.1753(9) -0.0449(8) 0.5646(4)
H30 H 0.1781 -0.0661 0.5890
C35 C 0.1062(8) -0.0397(8) 0.5516(4)
H31 H 0.0629 -0.0573 0.5672
C36 C 0.1019(5) -0.0081(7) 0.5151(4)
H32 H 0.0557 -0.0045 0.5064
C37 C 0.3655(6) -0.0647(6) 0.0629(3)
C38 C 0.3242(6) -0.1482(5) 0.0405(4)
H33 H 0.2994 -0.1846 0.0573
C39 C 0.3201(7) -0.1773(6) -0.0072(4)
H34 H 0.2924 -0.2331 -0.0222
C40 C 0.3572(9) -0.1228(10) -0.0324(3)
H35 H 0.3545 -0.1422 -0.0643
C41 C 0.3986(9) -0.0393(9) -0.0099(5)
H36 H 0.4234 -0.0029 -0.0268
C42 C 0.4027(7) -0.0102(5) 0.0377(5)
H37 H 0.4304 0.0456 0.0527
C43 C -0.0205(5) -0.1692(5) 0.3489(3)
C44 C -0.0529(6) -0.2531(5) 0.3310(3)
H38 H -0.0420 -0.2749 0.3029
C45 C -0.1017(6) -0.3044(5) 0.3552(4)
H39 H -0.1234 -0.3606 0.3432
C46 C -0.1180(7) -0.2718(7) 0.3972(4)
H40 H -0.1506 -0.3061 0.4134
C47 C -0.0856(7) -0.1878(8) 0.4151(3)
H41 H -0.0965 -0.1660 0.4433
C48 C -0.0368(6) -0.1365(5) 0.3909(3)
H42 H -0.0151 -0.0804 0.4029
C49 C 0.2174(5) -0.1606(4) 0.4015(3)
C50 C 0.1445(5) -0.1783(5) 0.4170(3)
H43 H 0.1197 -0.1471 0.4147
C51 C 0.1088(5) -0.2426(6) 0.4359(4)
H44 H 0.0600 -0.2544 0.4463
C52 C 0.1459(7) -0.2892(5) 0.4394(4)
H45 H 0.1220 -0.3322 0.4520
C53 C 0.2188(6) -0.2716(5) 0.4238(4)
H46 H 0.2437 -0.3028 0.4261
C54 C 0.2546(5) -0.2073(6) 0.4049(3)
H47 H 0.3033 -0.1955 0.3945
C55 C 0.5863(7) -0.0274(6) 0.2097(3)
C56 C 0.5492(6) -0.0476(7) 0.1637(4)
H48 H 0.4925 -0.0753 0.1552
C57 C 0.5967(11) -0.0265(9) 0.1303(3)
H49 H 0.5719 -0.0400 0.0995
C58 C 0.6814(10) 0.0149(9) 0.1430(6)
H50 H 0.7132 0.0290 0.1207
C59 C 0.7186(6) 0.0351(9) 0.1891(7)
H51 H 0.7752 0.0627 0.1976
C60 C 0.6710(7) 0.0139(8) 0.2224(4)
H52 H 0.6958 0.0274 0.2533
C61 C 0.4020(4) -0.2152(5) 0.3279(2)
C62 C 0.4632(5) -0.1356(4) 0.3503(3)
H53 H 0.4632 -0.0925 0.3417
C63 C 0.5244(5) -0.1204(5) 0.3856(3)
H54 H 0.5654 -0.0671 0.4006
C64 C 0.5244(6) -0.1847(7) 0.3985(3)
H55 H 0.5654 -0.1745 0.4221
C65 C 0.4632(6) -0.2644(6) 0.3761(3)
H56 H 0.4632 -0.3074 0.3847
C66 C 0.4020(5) -0.2796(4) 0.3408(3)
H57 H 0.3610 -0.3329 0.3258
C67 C 0.0054(5) 0.1589(5) 0.3347(3)
C68 C -0.0777(5) 0.1169(5) 0.3346(4)
H58 H -0.1025 0.0625 0.3342
C69 C -0.1238(5) 0.1561(7) 0.3352(4)
H59 H -0.1794 0.1280 0.3351
C70 C -0.0867(7) 0.2374(8) 0.3358(4)
H60 H -0.1175 0.2637 0.3362
C71 C -0.0035(8) 0.2794(5) 0.3360(4)
H61 H 0.0213 0.3338 0.3364
C72 C 0.0425(5) 0.2402(5) 0.3354(4)
H62 H 0.0982 0.2683 0.3355
C73 C 0.2351(4) 0.3658(4) 0.3075(2)
C74 C 0.1762(4) 0.3572(4) 0.2731(2)
H63 H 0.1533 0.3121 0.2465
C75 C 0.1518(5) 0.4158(5) 0.2784(3)
H64 H 0.1124 0.4100 0.2553
C76 C 0.1861(6) 0.4832(5) 0.3181(3)
H65 H 0.1697 0.5224 0.3216
C77 C 0.2449(6) 0.4919(4) 0.3525(3)
H66 H 0.2679 0.5369 0.3790
C78 C 0.2694(4) 0.4332(5) 0.3472(2)
H67 H 0.3087 0.4390 0.3702
C79 C 0.0713(5) -0.3345(5) 0.2566(3)
C80 C 0.0064(6) -0.4039(6) 0.2253(3)
H68 H -0.0081 -0.4039 0.1952
C81 C -0.0369(6) -0.4734(5) 0.2390(4)
H69 H -0.0803 -0.5199 0.2181
C82 C -0.0152(7) -0.4735(6) 0.2840(5)
H70 H -0.0441 -0.5200 0.2932
C83 C 0.0498(7) -0.4041(7) 0.3154(3)
H71 H 0.0643 -0.4042 0.3455
C84 C 0.0930(5) -0.3346(5) 0.3016(3)
H72 H 0.1365 -0.2882 0.3226
C85 C 0.8175(5) 0.9071(5) 0.2569(2)
C86 C 0.8357(5) 0.8652(5) 0.2833(3)
H73 H 0.8782 0.8541 0.2785
C87 C 0.7904(6) 0.8400(6) 0.3169(3)
H74 H 0.8026 0.8120 0.3345
C88 C 0.7269(6) 0.8567(6) 0.3241(3)
H75 H 0.6965 0.8398 0.3466
C89 C 0.7087(5) 0.8986(7) 0.2977(4)
H76 H 0.6662 0.9097 0.3025
C90 C 0.7540(6) 0.9238(6) 0.2641(3)
H77 H 0.7418 0.9518 0.2465
C91 C 0.2538(4) -0.3276(3) 0.1237(2)
C92 C 0.2466(4) -0.3761(4) 0.0795(2)
H78 H 0.2848 -0.3553 0.0612
C93 C 0.1823(5) -0.4558(4) 0.0626(2)
H79 H 0.1775 -0.4882 0.0330
C94 C 0.1252(4) -0.4869(3) 0.0900(3)
H80 H 0.0821 -0.5402 0.0787
C95 C 0.1323(4) -0.4384(5) 0.1342(3)
H81 H 0.0941 -0.4592 0.1525
C96 C 0.1966(4) -0.3587(4) 0.1511(2)
H82 H 0.2014 -0.3263 0.1807
C97 C 0.1116(4) -0.2391(4) 0.05987(18)
C98 C 0.0997(4) -0.3181(4) 0.0487(2)
H83 H 0.0995 -0.3419 0.0722
C99 C 0.0882(5) -0.3615(3) 0.0023(2)
H84 H 0.0802 -0.4144 -0.0052
C100 C 0.0885(5) -0.3259(4) -0.03290(18)
H85 H 0.0807 -0.3550 -0.0639
C101 C 0.1003(5) -0.2469(5) -0.0217(2)
H86 H 0.1006 -0.2231 -0.0452
C102 C 0.1119(5) -0.2035(3) 0.0247(2)
H87 H 0.1198 -0.1507 0.0322
C103 C 0.1667(5) 0.0069(5) 0.0379(2)
C104 C 0.0912(4) -0.0152(5) 0.0127(3)
H88 H 0.0523 -0.0089 0.0283
C105 C 0.0739(5) -0.0466(5) -0.0357(3)
H89 H 0.0234 -0.0614 -0.0526
C106 C 0.1321(6) -0.0560(6) -0.0590(2)
H90 H 0.1205 -0.0771 -0.0914
C107 C 0.2076(6) -0.0340(6) -0.0339(3)
H91 H 0.2465 -0.0402 -0.0495
C108 C 0.2249(4) -0.0025(6) 0.0146(3)
H92 H 0.2754 0.0122 0.0314
C109 C 0.0305(4) 0.1689(4) 0.1803(2)
C110 C 0.0569(4) 0.2152(4) 0.1496(2)
H93 H 0.0980 0.2148 0.1339
C111 C 0.0218(5) 0.2619(5) 0.1423(3)
H94 H 0.0394 0.2928 0.1217
C112 C -0.0397(5) 0.2624(5) 0.1657(3)
H95 H -0.0631 0.2937 0.1608
C113 C -0.0660(5) 0.2162(6) 0.1964(3)
H96 H -0.1071 0.2165 0.2120
C114 C -0.0309(5) 0.1694(5) 0.2037(3)
H97 H -0.0485 0.1385 0.2242
C115 C 0.8743(4) 0.6475(3) 0.1477(2)
C116 C 0.9355(3) 0.6338(4) 0.1311(2)
H98 H 0.9901 0.6728 0.1430
C117 C 0.9152(4) 0.5618(4) 0.0967(2)
H99 H 0.9561 0.5526 0.0856
C118 C 0.8336(4) 0.5035(3) 0.0790(2)
H100 H 0.8200 0.4553 0.0559
C119 C 0.7724(3) 0.5172(4) 0.0956(2)
H101 H 0.7179 0.4782 0.0837
C120 C 0.7928(3) 0.5892(4) 0.1299(2)
H102 H 0.7518 0.5984 0.1411
C121 C 0.2972(4) 0.3898(3) 0.1805(2)
C122 C 0.3409(4) 0.4374(4) 0.22557(19)
H103 H 0.3615 0.4164 0.2444
C123 C 0.3537(4) 0.5164(3) 0.24250(18)
H104 H 0.3829 0.5483 0.2726
C124 C 0.3228(5) 0.5479(3) 0.2144(3)
H105 H 0.3314 0.6007 0.2257
C125 C 0.2791(5) 0.5002(4) 0.1694(2)
H106 H 0.2584 0.5213 0.1506
C126 C 0.2663(4) 0.4212(4) 0.15243(18)
H107 H 0.2371 0.3893 0.1223
C127 C 0.9171(3) 0.8089(3) 0.04741(17)
C128 C 0.9184(4) 0.7390(3) 0.05060(17)
H108 H 0.9393 0.7376 0.0790
C129 C 0.8886(4) 0.6713(3) 0.0113(2)
H109 H 0.8895 0.6246 0.0135
C130 C 0.8575(4) 0.6735(3) -0.03115(18)
H110 H 0.8375 0.6282 -0.0574
C131 C 0.8561(4) 0.7434(4) -0.03434(16)
H111 H 0.8353 0.7448 -0.0627
C132 C 0.8859(4) 0.8111(3) 0.0049(2)
H112 H 0.8850 0.8578 0.0028
C133 C 0.3748(5) 0.3331(5) 0.5948(4)
C134 C 0.4197(7) 0.3907(8) 0.5729(3)
H113 H 0.4041 0.3804 0.5410
C135 C 0.4877(7) 0.4639(7) 0.5987(5)
H114 H 0.5177 0.5024 0.5841
C136 C 0.5109(6) 0.4794(6) 0.6464(5)
H115 H 0.5564 0.5283 0.6637
C137 C 0.4660(8) 0.4217(8) 0.6683(3)
H116 H 0.4815 0.4321 0.7002
C138 C 0.3980(7) 0.3486(7) 0.6425(4)
H117 H 0.3680 0.3101 0.6572
C139 C 0.4168(6) 0.1947(6) 0.0578(3)
C140 C 0.4647(5) 0.1841(6) 0.0262(4)
H118 H 0.5130 0.1855 0.0366
C141 C 0.4404(7) 0.1715(7) -0.0210(4)
H119 H 0.4724 0.1643 -0.0421
C142 C 0.3683(8) 0.1694(7) -0.0365(3)
H120 H 0.3520 0.1610 -0.0681
C143 C 0.3204(6) 0.1801(7) -0.0049(4)
H121 H 0.2721 0.1787 -0.0153
C144 C 0.3447(6) 0.1927(6) 0.0423(4)
H122 H 0.3127 0.1998 0.0634
C145 C 0.5981(6) 0.4303(7) 0.2370(4)
C146 C 0.6394(9) 0.5141(8) 0.2587(5)
H123 H 0.6133 0.5387 0.2759
C147 C 0.7198(9) 0.5611(6) 0.2546(5)
H124 H 0.7474 0.6171 0.2691
C148 C 0.7589(6) 0.5243(10) 0.2289(6)
H125 H 0.8126 0.5557 0.2262
C149 C 0.7176(9) 0.4405(11) 0.2073(5)
H126 H 0.7438 0.4159 0.1901
C150 C 0.6372(8) 0.3935(6) 0.2113(4)
H127 H 0.6096 0.3375 0.1968
C151 C 0.5516(7) 0.1025(7) 0.3855(5)
C152 C 0.6240(9) 0.1353(8) 0.3690(4)
H128 H 0.6227 0.1367 0.3382
C153 C 0.6983(7) 0.1660(9) 0.3985(7)
H129 H 0.7468 0.1879 0.3874
C154 C 0.7003(9) 0.1638(10) 0.4445(6)
H130 H 0.7501 0.1844 0.4642
C155 C 0.6280(13) 0.1310(10) 0.4610(4)
H131 H 0.6293 0.1296 0.4918
C156 C 0.5536(9) 0.1004(9) 0.4315(5)
H132 H 0.5052 0.0784 0.4426
C157 C 0.5012(6) 0.2914(6) 0.4861(4)
C158 C 0.5033(7) 0.3608(8) 0.4793(4)
H133 H 0.4569 0.3572 0.4638
C159 C 0.5747(10) 0.4356(6) 0.4956(5)
H134 H 0.5761 0.4821 0.4911
C160 C 0.6440(7) 0.4410(7) 0.5189(5)
H135 H 0.6918 0.4911 0.5298
C161 C 0.6419(6) 0.3716(10) 0.5257(4)
H136 H 0.6883 0.3752 0.5412
C162 C 0.5705(8) 0.2968(7) 0.5093(4)
H137 H 0.5691 0.2504 0.5139
S22_2 S -0.10464(14) -0.26334(13) 0.19279(9)
S24_2 S -0.04821(12) -0.10412(13) 0.09711(7)
S17_2 S -0.12474(13) -0.05337(14) 0.21470(8)
S12_2 S 0.53079(15) 0.94822(15) 0.25337(9)
S13_2 S 0.32567(14) 0.76082(14) 0.28082(9)
S18_2 S 0.33341(16) 0.77445(14) 0.14105(8)
Cd12_2 Cd 0.41108(4) -0.19500(4) 0.22120(2)
Cd8_2 Cd 1.02709(4) 1.02953(4) 0.24850(2)
Cd4_2 Cd 1.04222(4) 0.82085(4) 0.23714(2)
Cd6_2 Cd 1.09726(4) 0.93461(4) 0.12880(2)
loop_
_geom_bond_atom_site_label_1
_geom_bond_atom_site_label_2
_geom_bond_site_symmetry_1
_geom_bond_site_symmetry_2
Cd1 S1 1_555 1_555
Cd2 S2 1_555 1_555
Cd3 S17 1_555 1_555
Cd4 S4 1_555 1_555
Cd5 S3 1_555 1_555
Cd6 S4 1_555 1_555
Cd7 S3 1_555 1_555
Cd8 S4 1_555 1_555
Cd9 S2 1_555 1_555
Cd10 S1 1_555 1_555
Cd11 S3 1_555 1_555
Cd12 N1 1_555 1_555
Cd13 S1 1_555 1_555
Cd14 S2 1_555 1_555
Cd15 S23 1_555 1_555
Cd16 S1 1_555 1_555
Cd17 S5 1_555 1_555
S2 Cd1 1_555 1_555
S3 Cd1 1_555 1_555
S4 Cd1 1_555 1_555
S5 Cd10 1_555 1_555
S6 Cd9 1_555 1_555
S7 Cd9 1_555 1_555
S8 Cd13 1_555 1_555
S9 Cd5 1_555 1_555
S10 Cd4 1_555 1_555
S11 Cd7 1_555 1_555
S12 Cd11 1_555 1_555
S13 Cd7 1_555 1_555
S14 Cd8 1_555 1_555
S15 Cd2 1_555 1_555
S16 Cd4 1_555 1_555
S17 C85 1_555 1_555
S18 Cd5 1_555 1_555
S19 Cd5 1_555 1_555
S20 Cd6 1_555 1_555
S21 Cd2 1_555 1_555
S22 Cd3 1_555 1_555
S23 Cd2 1_555 1_555
S24 Cd3 1_555 1_555
S25 Cd17 1_555 1_555
S26 Cd14 1_555 1_555
S27 Cd9 1_555 1_555
S28 Cd11 1_555 1_555
S29 Cd16 1_555 1_555
N1 C1 1_555 1_555
N2 B1 1_555 1_555
N3 Cd3 1_555 1_555
N4 B1 1_555 1_555
N5 Cd15 1_555 1_555
N6 B1 1_555 1_555
N7 C10 1_555 1_555
N8 B1 1_555 1_555
C1 N2 1_555 1_555
H1 C1 1_555 1_555
C2 N2 1_555 1_555
H2 C2 1_555 1_555
C3 N1 1_555 1_555
H3 C3 1_555 1_555
C4 N3 1_555 1_555
H4 C4 1_555 1_555
C5 N3 1_555 1_555
H5 C5 1_555 1_555
C6 N4 1_555 1_555
H6 C6 1_555 1_555
C7 N5 1_555 1_555
H7 C7 1_555 1_555
C8 N5 1_555 1_555
H8 C8 1_555 1_555
C9 N6 1_555 1_555
H9 C9 1_555 1_555
C10 N8 1_555 1_555
H10 C10 1_555 1_555
C11 N7 1_555 1_555
H11 C11 1_555 1_555
C12 N8 1_555 1_555
H12 C12 1_555 1_555
C13 S5 1_555 1_555
C14 C13 1_555 1_555
H13 C14 1_555 1_555
C15 C14 1_555 1_555
H14 C15 1_555 1_555
C16 C15 1_555 1_555
H15 C16 1_555 1_555
C17 C16 1_555 1_555
H16 C17 1_555 1_555
C18 C13 1_555 1_555
H17 C18 1_555 1_555
C19 S6 1_555 1_555
C20 C19 1_555 1_555
H18 C20 1_555 1_555
C21 C20 1_555 1_555
H19 C21 1_555 1_555
C22 C21 1_555 1_555
H20 C22 1_555 1_555
C23 C22 1_555 1_555
H21 C23 1_555 1_555
C24 C19 1_555 1_555
H22 C24 1_555 1_555
C25 S7 1_555 1_555
C26 C25 1_555 1_555
H23 C26 1_555 1_555
C27 C26 1_555 1_555
H24 C27 1_555 1_555
C28 C27 1_555 1_555
H25 C28 1_555 1_555
C29 C28 1_555 1_555
H26 C29 1_555 1_555
C30 C25 1_555 1_555
H27 C30 1_555 1_555
C31 S8 1_555 1_555
C32 C31 1_555 1_555
H28 C32 1_555 1_555
C33 C32 1_555 1_555
H29 C33 1_555 1_555
C34 C33 1_555 1_555
H30 C34 1_555 1_555
C35 C34 1_555 1_555
H31 C35 1_555 1_555
C36 C31 1_555 1_555
H32 C36 1_555 1_555
C37 S9 1_555 1_555
C38 C37 1_555 1_555
H33 C38 1_555 1_555
C39 C38 1_555 1_555
H34 C39 1_555 1_555
C40 C39 1_555 1_555
H35 C40 1_555 1_555
C41 C40 1_555 1_555
H36 C41 1_555 1_555
C42 C37 1_555 1_555
H37 C42 1_555 1_555
C43 S10 1_555 1_555
C44 C43 1_555 1_555
H38 C44 1_555 1_555
C45 C44 1_555 1_555
H39 C45 1_555 1_555
C46 C45 1_555 1_555
H40 C46 1_555 1_555
C47 C46 1_555 1_555
H41 C47 1_555 1_555
C48 C43 1_555 1_555
H42 C48 1_555 1_555
C49 S11 1_555 1_555
C50 C49 1_555 1_555
H43 C50 1_555 1_555
C51 C50 1_555 1_555
H44 C51 1_555 1_555
C52 C51 1_555 1_555
H45 C52 1_555 1_555
C53 C52 1_555 1_555
H46 C53 1_555 1_555
C54 C49 1_555 1_555
H47 C54 1_555 1_555
C55 S12 1_555 1_555
C56 C55 1_555 1_555
H48 C56 1_555 1_555
C57 C56 1_555 1_555
H49 C57 1_555 1_555
C58 C57 1_555 1_555
H50 C58 1_555 1_555
C59 C58 1_555 1_555
H51 C59 1_555 1_555
C60 C55 1_555 1_555
H52 C60 1_555 1_555
C61 S13 1_555 1_555
C62 C61 1_555 1_555
H53 C62 1_555 1_555
C63 C62 1_555 1_555
H54 C63 1_555 1_555
C64 C63 1_555 1_555
H55 C64 1_555 1_555
C65 C64 1_555 1_555
H56 C65 1_555 1_555
C66 C61 1_555 1_555
H57 C66 1_555 1_555
C67 S14 1_555 1_555
C68 C67 1_555 1_555
H58 C68 1_555 1_555
C69 C68 1_555 1_555
H59 C69 1_555 1_555
C70 C69 1_555 1_555
H60 C70 1_555 1_555
C71 C70 1_555 1_555
H61 C71 1_555 1_555
C72 C67 1_555 1_555
H62 C72 1_555 1_555
C73 S15 1_555 1_555
C74 C73 1_555 1_555
H63 C74 1_555 1_555
C75 C74 1_555 1_555
H64 C75 1_555 1_555
C76 C75 1_555 1_555
H65 C76 1_555 1_555
C77 C76 1_555 1_555
H66 C77 1_555 1_555
C78 C73 1_555 1_555
H67 C78 1_555 1_555
C79 S16 1_555 1_555
C80 C79 1_555 1_555
H68 C80 1_555 1_555
C81 C80 1_555 1_555
H69 C81 1_555 1_555
C82 C81 1_555 1_555
H70 C82 1_555 1_555
C83 C82 1_555 1_555
H71 C83 1_555 1_555
C84 C79 1_555 1_555
H72 C84 1_555 1_555
C85 C86 1_555 1_555
C86 H73 1_555 1_555
C87 C86 1_555 1_555
H74 C87 1_555 1_555
C88 C87 1_555 1_555
H75 C88 1_555 1_555
C89 C88 1_555 1_555
H76 C89 1_555 1_555
C90 C85 1_555 1_555
H77 C90 1_555 1_555
C91 S18 1_555 1_555
C92 C91 1_555 1_555
H78 C92 1_555 1_555
C93 C92 1_555 1_555
H79 C93 1_555 1_555
C94 C93 1_555 1_555
H80 C94 1_555 1_555
C95 C94 1_555 1_555
H81 C95 1_555 1_555
C96 C91 1_555 1_555
H82 C96 1_555 1_555
C97 S19 1_555 1_555
C98 C97 1_555 1_555
H83 C98 1_555 1_555
C99 C98 1_555 1_555
H84 C99 1_555 1_555
C100 C99 1_555 1_555
H85 C100 1_555 1_555
C101 C100 1_555 1_555
H86 C101 1_555 1_555
C102 C97 1_555 1_555
H87 C102 1_555 1_555
C103 S20 1_555 1_555
C104 C103 1_555 1_555
H88 C104 1_555 1_555
C105 C104 1_555 1_555
H89 C105 1_555 1_555
C106 C105 1_555 1_555
H90 C106 1_555 1_555
C107 C106 1_555 1_555
H91 C107 1_555 1_555
C108 C103 1_555 1_555
H92 C108 1_555 1_555
C109 S21 1_555 1_555
C110 C109 1_555 1_555
H93 C110 1_555 1_555
C111 C110 1_555 1_555
H94 C111 1_555 1_555
C112 C111 1_555 1_555
H95 C112 1_555 1_555
C113 C112 1_555 1_555
H96 C113 1_555 1_555
C114 C109 1_555 1_555
H97 C114 1_555 1_555
C115 S22 1_555 1_555
C116 C115 1_555 1_555
H98 C116 1_555 1_555
C117 C116 1_555 1_555
H99 C117 1_555 1_555
C118 C117 1_555 1_555
H100 C118 1_555 1_555
C119 C118 1_555 1_555
H101 C119 1_555 1_555
C120 C115 1_555 1_555
H102 C120 1_555 1_555
C121 S23 1_555 1_555
C122 C121 1_555 1_555
H103 C122 1_555 1_555
C123 C122 1_555 1_555
H104 C123 1_555 1_555
C124 C123 1_555 1_555
H105 C124 1_555 1_555
C125 C124 1_555 1_555
H106 C125 1_555 1_555
C126 C121 1_555 1_555
H107 C126 1_555 1_555
C127 S24 1_555 1_555
C128 C127 1_555 1_555
H108 C128 1_555 1_555
C129 C128 1_555 1_555
H109 C129 1_555 1_555
C130 C129 1_555 1_555
H110 C130 1_555 1_555
C131 C130 1_555 1_555
H111 C131 1_555 1_555
C132 C127 1_555 1_555
H112 C132 1_555 1_555
C133 S25 1_555 1_555
C134 C133 1_555 1_555
H113 C134 1_555 1_555
C135 C134 1_555 1_555
H114 C135 1_555 1_555
C136 C135 1_555 1_555
H115 C136 1_555 1_555
C137 C136 1_555 1_555
H116 C137 1_555 1_555
C138 C133 1_555 1_555
H117 C138 1_555 1_555
C139 S26 1_555 1_555
C140 C139 1_555 1_555
H118 C140 1_555 1_555
C141 C140 1_555 1_555
H119 C141 1_555 1_555
C142 C141 1_555 1_555
H120 C142 1_555 1_555
C143 C142 1_555 1_555
H121 C143 1_555 1_555
C144 C139 1_555 1_555
H122 C144 1_555 1_555
C145 S27 1_555 1_555
C146 C145 1_555 1_555
H123 C146 1_555 1_555
C147 C146 1_555 1_555
H124 C147 1_555 1_555
C148 C147 1_555 1_555
H125 C148 1_555 1_555
C149 C148 1_555 1_555
H126 C149 1_555 1_555
C150 C145 1_555 1_555
H127 C150 1_555 1_555
C151 S28 1_555 1_555
C152 C151 1_555 1_555
H128 C152 1_555 1_555
C153 C152 1_555 1_555
H129 C153 1_555 1_555
C154 C153 1_555 1_555
H130 C154 1_555 1_555
C155 C154 1_555 1_555
H131 C155 1_555 1_555
C156 C151 1_555 1_555
H132 C156 1_555 1_555
C157 S29 1_555 1_555
C158 C157 1_555 1_555
H133 C158 1_555 1_555
C159 C158 1_555 1_555
H134 C159 1_555 1_555
C160 C159 1_555 1_555
H135 C160 1_555 1_555
C161 C160 1_555 1_555
H136 C161 1_555 1_555
C162 C157 1_555 1_555
H137 C162 1_555 1_555
S22_2 Cd4 1_555 1_555
S24_2 Cd6 1_555 1_555
S17_2 Cd8 1_555 1_555
S12_2 Cd12 1_555 1_555
S13_2 Cd12 1_555 1_555
S18_2 Cd12 1_555 1_555
Cd12_2 S12 1_555 1_555
Cd8_2 S17 1_555 1_555
Cd4_2 S22 1_555 1_555
Cd6_2 S24 1_555 1_555
Cd6 S19 1_555 1_555
Cd7 S16 1_555 1_555
Cd8 S21 1_555 1_555
Cd10 S14 1_555 1_555
Cd10 S15 1_555 1_555
Cd11 S7 1_555 1_555
Cd13 S10 1_555 1_555
Cd13 S11 1_555 1_555
Cd14 S9 1_555 1_555
Cd14 S20 1_555 1_555
Cd15 S26 1_555 1_555
Cd15 S27 1_555 1_555
Cd16 S6 1_555 1_555
Cd16 S28 1_555 1_555
Cd17 S29 1_555 1_555
Cd17 S8 1_555 1_555
S13 Cd12_2 1_555 1_555
S18 Cd12_2 1_555 1_555
N4 C4 1_555 1_555
N6 C7 1_555 1_555
C2 C3 1_555 1_555
C5 C6 1_555 1_555
C8 C9 1_555 1_555
C11 C12 1_555 1_555
C17 C18 1_555 1_555
C23 C24 1_555 1_555
C29 C30 1_555 1_555
C35 C36 1_555 1_555
C41 C42 1_555 1_555
C47 C48 1_555 1_555
C53 C54 1_555 1_555
C59 C60 1_555 1_555
C65 C66 1_555 1_555
C71 C72 1_555 1_555
C77 C78 1_555 1_555
C83 C84 1_555 1_555
C89 C90 1_555 1_555
C95 C96 1_555 1_555
C101 C102 1_555 1_555
C107 C108 1_555 1_555
C113 C114 1_555 1_555
C119 C120 1_555 1_555
C125 C126 1_555 1_555
C131 C132 1_555 1_555
C137 C138 1_555 1_555
C143 C144 1_555 1_555
C149 C150 1_555 1_555
C155 C156 1_555 1_555
C161 C162 1_555 1_555

#END
