
#######################################################################
#
#                 Cambridge Crystallographic Data Centre
#                                CCDC 
#
#######################################################################
#
# If this CIF has been generated from an entry in the Cambridge 
# Structural Database, then it will include bibliographic, chemical, 
# crystal, experimental, refinement or atomic coordinate data resulting 
# from the CCDC's data processing and validation procedures.
#
#######################################################################

data_CAVQEX
_symmetry_cell_setting           triclinic
_symmetry_space_group_name_H-M   'P -1'
_symmetry_Int_Tables_number      2
_space_group_name_Hall           '-P 1'
loop_
_symmetry_equiv_pos_site_id
_symmetry_equiv_pos_as_xyz
1 x,y,z
2 -x,-y,-z
_cell_length_a                   4.6188(16)
_cell_length_b                   6.049(2)
_cell_length_c                   13.927(5)
_cell_angle_alpha                87.525(4)
_cell_angle_beta                 85.217(4)
_cell_angle_gamma                84.475(4)
_cell_volume                     385.709
loop_
_atom_site_label
_atom_site_type_symbol
_atom_site_fract_x
_atom_site_fract_y
_atom_site_fract_z
O1 O -0.3327(4) 1.2221(3) 0.55523(13)
Co1 Co -1.0000 1.0000 0.5000
P1 P 0.11749(15) 0.66385(11) 0.87231(5)
P2 P -0.57225(15) 1.20800(11) 0.63449(5)
O2 O -0.7783(4) 1.0329(3) 0.62329(13)
O3 O -0.0464(4) 0.4595(3) 0.88174(13)
O4 O 0.3299(4) 0.6688(3) 0.78361(13)
O5 O -0.7999(4) 1.2691(3) 0.42186(13)
H1 H -0.9272 1.3754 0.4132
H2 H -0.6675 1.3190 0.4354
O6 O -0.7504(4) 1.4398(3) 0.64528(14)
H3 H -0.7299 1.4888 0.6996
O7 O 0.2731(4) 0.7037(3) 0.96357(13)
H4 H 0.1795 0.6525 1.0125
N1 N -0.2391(5) 0.9473(4) 0.76296(16)
H5 H -0.0818 0.9415 0.7178
H6 H -0.3495 0.8336 0.7519
C1 C -0.1317(6) 0.9139(4) 0.86155(19)
H7 H -0.3007 0.9040 0.9097
H8 H -0.0310 1.0443 0.8762
C2 C -0.4178(6) 1.1635(4) 0.7511(2)
H9 H -0.2947 1.2852 0.7600
H10 H -0.5794 1.1725 0.8026
O1A O -1.6673(4) 0.7779(3) 0.44477(13)
O1_2 O -1.3327(4) 1.2221(3) 0.55523(13)
O1A_2 O -0.6673(4) 0.7779(3) 0.44477(13)
Co1_2 Co -2.0000 1.0000 0.5000
Co1_3 Co 0.0000 1.0000 0.5000
P1A P -2.11749(15) 1.33615(11) 0.12769(5)
P2A P -1.42775(15) 0.79200(11) 0.36551(5)
O2A O -1.2217(4) 0.9671(3) 0.37671(13)
O3A O -1.9536(4) 1.5405(3) 0.11826(13)
O4A O -2.3299(4) 1.3312(3) 0.21639(13)
O5A O -1.2001(4) 0.7309(3) 0.57814(13)
H1A H -1.0728 0.6246 0.5868
H2A H -1.3325 0.6810 0.5646
O6A O -1.2496(4) 0.5602(3) 0.35472(14)
H3A H -1.2701 0.5112 0.3004
O7A O -2.2731(4) 1.2963(3) 0.03643(13)
H4A H -2.1795 1.3475 -0.0125
N1A N -1.7609(5) 1.0527(4) 0.23704(16)
H5A H -1.9182 1.0585 0.2822
H6A H -1.6505 1.1664 0.2481
C1A C -1.8683(6) 1.0861(4) 0.13845(19)
H7A H -1.6993 1.0960 0.0903
H8A H -1.9690 0.9557 0.1238
C2A C -1.5822(6) 0.8365(4) 0.2489(2)
H9A H -1.7053 0.7148 0.2400
H10A H -1.4206 0.8275 0.1974
loop_
_geom_bond_atom_site_label_1
_geom_bond_atom_site_label_2
_geom_bond_site_symmetry_1
_geom_bond_site_symmetry_2
O1 P2 1_555 1_555
Co1 O2 1_555 1_555
P1 O3 1_555 1_555
P2 O2 1_555 1_555
O4 P1 1_555 1_555
O5 Co1 1_555 1_555
H1 O5 1_555 1_555
H2 O5 1_555 1_555
O6 P2 1_555 1_555
H3 O6 1_555 1_555
O7 P1 1_555 1_555
H4 O7 1_555 1_555
N1 H5 1_555 1_555
H6 N1 1_555 1_555
C1 P1 1_555 1_555
H7 C1 1_555 1_555
H8 C1 1_555 1_555
C2 P2 1_555 1_555
H9 C2 1_555 1_555
H10 C2 1_555 1_555
O1A Co1_2 1_555 1_555
O1_2 Co1 1_555 1_555
O1A_2 Co1 1_555 1_555
Co1_3 O1 1_555 1_555
P1A O3A 1_555 1_555
P2A O1A 1_555 1_555
O2A Co1 1_555 1_555
O4A P1A 1_555 1_555
O5A Co1 1_555 1_555
H1A O5A 1_555 1_555
H2A O5A 1_555 1_555
O6A P2A 1_555 1_555
H3A O6A 1_555 1_555
O7A P1A 1_555 1_555
H4A O7A 1_555 1_555
N1A H5A 1_555 1_555
H6A N1A 1_555 1_555
C1A P1A 1_555 1_555
H7A C1A 1_555 1_555
H8A C1A 1_555 1_555
C2A P2A 1_555 1_555
H9A C2A 1_555 1_555
H10A C2A 1_555 1_555
N1 C1 1_555 1_555
N1 C2 1_555 1_555
P2A O2A 1_555 1_555
N1A C1A 1_555 1_555
N1A C2A 1_555 1_555

#END
