
#######################################################################
#
#                 Cambridge Crystallographic Data Centre
#                                CCDC 
#
#######################################################################
#
# If this CIF has been generated from an entry in the Cambridge 
# Structural Database, then it will include bibliographic, chemical, 
# crystal, experimental, refinement or atomic coordinate data resulting 
# from the CCDC's data processing and validation procedures.
#
#######################################################################

data_CAVQAT
_symmetry_cell_setting           monoclinic
_symmetry_space_group_name_H-M   'P 21/c'
_symmetry_Int_Tables_number      14
_space_group_name_Hall           '-P 2ybc'
loop_
_symmetry_equiv_pos_site_id
_symmetry_equiv_pos_as_xyz
1 x,y,z
2 -x,1/2+y,1/2-z
3 -x,-y,-z
4 x,1/2-y,1/2+z
_cell_length_a                   9.3609(3)
_cell_length_b                   8.5315(3)
_cell_length_c                   9.3542(3)
_cell_angle_alpha                90
_cell_angle_beta                 96.530(2)
_cell_angle_gamma                90
_cell_volume                     742.203
loop_
_atom_site_label
_atom_site_type_symbol
_atom_site_fract_x
_atom_site_fract_y
_atom_site_fract_z
Co1 Co 0.5000 0.0000 1.0000
P1 P 0.17077(5) -0.34076(5) 1.46220(5)
P2 P 0.41527(5) 0.18608(5) 1.28466(5)
O1 O 0.12189(14) -0.39067(16) 1.60378(14)
O2 O 0.32502(14) -0.36191(15) 1.43961(15)
O3 O 0.54814(14) 0.09059(15) 1.36032(14)
O4 O 0.38396(14) 0.14041(15) 1.12966(14)
O5 O 0.43517(14) 0.35848(15) 1.31537(14)
N1 N 0.25655(18) -0.05596(19) 1.36887(18)
O6 O 0.06965(15) -0.41425(17) 1.33405(14)
C1 C 0.2675(2) 0.1186(2) 1.3795(2)
C2 C 0.1445(2) -0.1281(2) 1.4496(2)
H1 H 0.176(3) 0.161(3) 1.337(3)
H2 H 0.285(3) 0.148(3) 1.477(3)
H3 H 0.239(3) -0.080(3) 1.284(3)
H4 H 0.055(3) -0.096(3) 1.402(3)
H5 H 0.159(2) -0.081(3) 1.549(3)
H6 H 0.336(3) -0.096(3) 1.402(3)
H7 H 0.010(2) -0.480(2) 1.359(3)
H8 H 0.563(3) 0.0094(19) 1.313(2)
Co1A Co 0.5000 -0.5000 1.5000
Co1A_2 Co 0.5000 0.5000 1.5000
Co1_2 Co 0.5000 1.0000 1.0000
Co1A_3 Co 0.5000 0.5000 0.5000
P1C P 0.17077(5) 0.84076(5) 0.96220(5)
P2C P 0.41527(5) 0.31392(5) 0.78466(5)
O1C O 0.12189(14) 0.89067(16) 1.10378(14)
O2C O 0.32502(14) 0.86191(15) 0.93961(15)
O2A O 0.67498(14) 0.13809(15) 1.06039(15)
O2C_2 O 0.32502(14) -0.13809(15) 0.93961(15)
O3C O 0.54814(14) 0.40941(15) 0.86032(14)
O4C O 0.38396(14) 0.35959(15) 0.62966(14)
O4B O 0.61604(14) -0.14041(15) 0.87034(14)
O5C O 0.43517(14) 0.14152(15) 0.81537(14)
O5A O 0.56483(14) -0.14152(15) 1.18463(14)
N1C N 0.25655(18) 0.55596(19) 0.86887(18)
O6C O 0.06965(15) 0.91425(17) 0.83405(14)
C1C C 0.2675(2) 0.3814(2) 0.8795(2)
C2C C 0.1445(2) 0.6281(2) 0.9496(2)
H1C H 0.176(3) 0.339(3) 0.837(3)
H2C H 0.285(3) 0.352(3) 0.977(3)
H3C H 0.239(3) 0.580(3) 0.784(3)
H4C H 0.055(3) 0.596(3) 0.902(3)
H5C H 0.159(2) 0.581(3) 1.049(3)
H6C H 0.336(3) 0.596(3) 0.902(3)
H7C H 0.010(2) 0.980(2) 0.859(3)
H8C H 0.563(3) 0.4906(19) 0.813(2)
loop_
_geom_bond_atom_site_label_1
_geom_bond_atom_site_label_2
_geom_bond_site_symmetry_1
_geom_bond_site_symmetry_2
Co1 O4 1_555 1_555
P1 O1 1_555 1_555
P2 O3 1_555 1_555
O2 P1 1_555 1_555
O3 H8 1_555 1_555
O4 P2 1_555 1_555
O5 P2 1_555 1_555
N1 C1 1_555 1_555
O6 P1 1_555 1_555
C1 P2 1_555 1_555
C2 P1 1_555 1_555
H1 C1 1_555 1_555
H2 C1 1_555 1_555
H3 N1 1_555 1_555
H4 C2 1_555 1_555
H5 C2 1_555 1_555
H6 N1 1_555 1_555
H7 O6 1_555 1_555
Co1A O2 1_555 1_555
Co1A_2 O5 1_555 1_555
Co1_2 O2C 1_555 1_555
Co1A_3 O4C 1_555 1_555
P1C O1C 1_555 1_555
P2C O3C 1_555 1_555
O2C P1C 1_555 1_555
O2A Co1 1_555 1_555
O2C_2 Co1 1_555 1_555
O3C H8C 1_555 1_555
O4C P2C 1_555 1_555
O4B Co1 1_555 1_555
O5C Co1 1_555 1_555
O5A Co1 1_555 1_555
N1C C1C 1_555 1_555
O6C P1C 1_555 1_555
C1C P2C 1_555 1_555
C2C P1C 1_555 1_555
H1C C1C 1_555 1_555
H2C C1C 1_555 1_555
H3C N1C 1_555 1_555
H4C C2C 1_555 1_555
H5C C2C 1_555 1_555
H6C N1C 1_555 1_555
H7C O6C 1_555 1_555
N1 C2 1_555 1_555
P2C O5C 1_555 1_555
N1C C2C 1_555 1_555

#END
