
#######################################################################
#
#                 Cambridge Crystallographic Data Centre
#                                CCDC 
#
#######################################################################
#
# If this CIF has been generated from an entry in the Cambridge 
# Structural Database, then it will include bibliographic, chemical, 
# crystal, experimental, refinement or atomic coordinate data resulting 
# from the CCDC's data processing and validation procedures.
#
#######################################################################

data_CAVQUN
_symmetry_cell_setting           monoclinic
_symmetry_space_group_name_H-M   'C 2/m'
_symmetry_Int_Tables_number      12
_space_group_name_Hall           '-C 2y'
loop_
_symmetry_equiv_pos_site_id
_symmetry_equiv_pos_as_xyz
1 x,y,z
2 -x,y,-z
3 1/2+x,1/2+y,z
4 1/2-x,1/2+y,-z
5 -x,-y,-z
6 x,-y,z
7 1/2-x,1/2-y,-z
8 1/2+x,1/2-y,z
_cell_length_a                   14.354(7)
_cell_length_b                   6.278(2)
_cell_length_c                   7.706(3)
_cell_angle_alpha                90
_cell_angle_beta                 112.927(7)
_cell_angle_gamma                90
_cell_volume                     639.564
loop_
_atom_site_label
_atom_site_type_symbol
_atom_site_fract_x
_atom_site_fract_y
_atom_site_fract_z
Cu1 Cu 0.09967(2) 0.0000 0.91917(4)
Cl1 Cl -0.07391(4) 0.0000 0.74031(9)
P1 P 0.34079(4) 0.0000 1.03227(8)
O1 O 0.24418(12) 0.0000 1.0661(2)
C1 C 0.30504(19) 0.0000 0.7794(4)
O2 O 0.40758(8) -0.1946(2) 1.10984(17)
N1 N 0.39415(16) 0.0000 0.7270(3)
C2 C 0.3676(2) 0.0000 0.5194(4)
H1 H 0.2939 0.0000 0.4529
H2 H 0.3958 -0.1275 0.4846
H3 H 0.2672(18) 0.129(4) 0.725(3)
H4 H 0.4296(17) 0.105(4) 0.773(3)
Cu1A Cu -0.09967(2) 0.0000 1.08083(4)
Cu1C Cu 0.40033(2) -0.5000 1.08083(4)
Cu1C_2 Cu 0.40033(2) 0.5000 1.08083(4)
Cl1A Cl 0.07391(4) 0.0000 1.25969(9)
O2E O 0.40758(8) 0.1946(2) 1.10984(17)
O2C O 0.09242(8) 0.3054(2) 0.89016(17)
O2F O 0.09242(8) -0.3054(2) 0.89016(17)
H2E H 0.3958 0.1275 0.4846
H3E H 0.2672(18) -0.129(4) 0.725(3)
H4E H 0.4296(17) -0.105(4) 0.773(3)
loop_
_geom_bond_atom_site_label_1
_geom_bond_atom_site_label_2
_geom_bond_site_symmetry_1
_geom_bond_site_symmetry_2
Cu1 Cl1 1_555 1_555
Cl1 Cu1A 1_555 1_555
P1 O1 1_555 1_555
O1 Cu1 1_555 1_555
C1 P1 1_555 1_555
O2 P1 1_555 1_555
N1 C1 1_555 1_555
C2 N1 1_555 1_555
H1 C2 1_555 1_555
H2 C2 1_555 1_555
H3 C1 1_555 1_555
H4 N1 1_555 1_555
Cu1A Cl1A 1_555 1_555
Cu1C O2 1_555 1_555
Cu1C_2 O2E 1_555 1_555
Cl1A Cu1 1_555 1_555
O2E P1 1_555 1_555
O2C Cu1 1_555 1_555
O2F Cu1 1_555 1_555
H2E C2 1_555 1_555
H3E C1 1_555 1_555
H4E N1 1_555 1_555

#END
