
#######################################################################
#
#                 Cambridge Crystallographic Data Centre
#                                CCDC 
#
#######################################################################
#
# If this CIF has been generated from an entry in the Cambridge 
# Structural Database, then it will include bibliographic, chemical, 
# crystal, experimental, refinement or atomic coordinate data resulting 
# from the CCDC's data processing and validation procedures.
#
#######################################################################

data_CAVQOH
_symmetry_cell_setting           orthorhombic
_symmetry_space_group_name_H-M   'P 21 21 2'
_symmetry_Int_Tables_number      18
_space_group_name_Hall           'P 2 2ab'
loop_
_symmetry_equiv_pos_site_id
_symmetry_equiv_pos_as_xyz
1 x,y,z
2 -x,-y,z
3 1/2+x,1/2-y,-z
4 1/2-x,1/2+y,-z
_cell_length_a                   10.6881(3)
_cell_length_b                   13.3129(3)
_cell_length_c                   5.4266(2)
_cell_angle_alpha                90
_cell_angle_beta                 90
_cell_angle_gamma                90
_cell_volume                     772.149
loop_
_atom_site_label
_atom_site_type_symbol
_atom_site_fract_x
_atom_site_fract_y
_atom_site_fract_z
Zn1 Zn -0.31969 -0.12269 0.50986
Zn2 Zn 0.0000 0.0000 0.31303
P1 P -0.27191 -0.00439 0.01656
P2 P -0.45082 0.28204 0.43073
O1 O -0.1358 -0.0224 0.0828
O2 O -0.3591 -0.0602 0.1809
O3 O -0.3006 -0.0193 -0.2517
O4 O -0.5248 0.3787 0.4891
C1 C -0.4587 0.2613 0.1085
O5 O -0.519 0.1917 0.5546
N1 N -0.4264 0.1574 0.0216
O6 O -0.3194 0.2839 0.5243
C2 C -0.2941 0.1279 0.0677
Zn1A Zn 0.31969 0.12269 0.50986
Zn1_2 Zn -0.31969 -0.12269 -0.49014
Zn1A_2 Zn -0.68031 0.12269 0.50986
Zn1C Zn -0.18031 0.37731 0.49014
Zn1A_3 Zn 0.31969 0.12269 -0.49014
Zn1_3 Zn 0.68031 -0.12269 0.50986
Zn1B Zn 0.18031 -0.37731 0.49014
Zn2B Zn -0.5000 0.5000 0.68697
Zn2B_2 Zn 0.5000 -0.5000 0.68697
P1A P 0.27191 0.00439 0.01656
P2A P 0.45082 -0.28204 0.43073
O1A O 0.1358 0.0224 0.0828
O2A O 0.3591 0.0602 0.1809
O3A O 0.3006 0.0193 -0.2517
O3_2 O -0.3006 -0.0193 0.7483
O3A_2 O 0.3006 0.0193 0.7483
O4A O 0.5248 -0.3787 0.4891
O4B O -0.0248 0.1213 0.5109
O4C O 0.0248 -0.1213 0.5109
C1A C 0.4587 -0.2613 0.1085
O5A O 0.519 -0.1917 0.5546
O5A_2 O -0.481 -0.1917 0.5546
O5_2 O 0.481 0.1917 0.5546
N1A N 0.4264 -0.1574 0.0216
O6A O 0.3194 -0.2839 0.5243
O6C O -0.1806 -0.2161 0.4757
O6B O 0.1806 0.2161 0.4757
C2A C 0.2941 -0.1279 0.0677
loop_
_geom_bond_atom_site_label_1
_geom_bond_atom_site_label_2
_geom_bond_site_symmetry_1
_geom_bond_site_symmetry_2
Zn1 O2 1_555 1_555
Zn2 O1 1_555 1_555
P1 O1 1_555 1_555
P2 O4 1_555 1_555
O2 P1 1_555 1_555
O3 P1 1_555 1_555
O4 Zn2B 1_555 1_555
C1 P2 1_555 1_555
O5 P2 1_555 1_555
N1 C1 1_555 1_555
O6 P2 1_555 1_555
C2 P1 1_555 1_555
Zn1A O2A 1_555 1_555
Zn1_2 O3 1_555 1_555
Zn1A_2 O5 1_555 1_555
Zn1C O6 1_555 1_555
Zn1A_3 O3A 1_555 1_555
Zn1_3 O5A 1_555 1_555
Zn1B O6A 1_555 1_555
Zn2B_2 O4A 1_555 1_555
P1A O1A 1_555 1_555
P2A O4A 1_555 1_555
O1A Zn2 1_555 1_555
O2A P1A 1_555 1_555
O3A P1A 1_555 1_555
O3_2 Zn1 1_555 1_555
O3A_2 Zn1A 1_555 1_555
O4B Zn2 1_555 1_555
O4C Zn2 1_555 1_555
C1A P2A 1_555 1_555
O5A P2A 1_555 1_555
O5A_2 Zn1 1_555 1_555
O5_2 Zn1A 1_555 1_555
N1A C1A 1_555 1_555
O6A P2A 1_555 1_555
O6C Zn1 1_555 1_555
O6B Zn1A 1_555 1_555
C2A P1A 1_555 1_555
N1 C2 1_555 1_555
N1A C2A 1_555 1_555

#END
