
#######################################################################
#
#                 Cambridge Crystallographic Data Centre
#                                CCDC 
#
#######################################################################
#
# If this CIF has been generated from an entry in the Cambridge 
# Structural Database, then it will include bibliographic, chemical, 
# crystal, experimental, refinement or atomic coordinate data resulting 
# from the CCDC's data processing and validation procedures.
#
#######################################################################

data_CAVSAV01
_symmetry_cell_setting           triclinic
_symmetry_space_group_name_H-M   'P -1'
_symmetry_Int_Tables_number      2
_space_group_name_Hall           '-P 1'
loop_
_symmetry_equiv_pos_site_id
_symmetry_equiv_pos_as_xyz
1 x,y,z
2 -x,-y,-z
_cell_length_a                   7.2247(16)
_cell_length_b                   9.021(2)
_cell_length_c                   11.662(2)
_cell_angle_alpha                97.094(17)
_cell_angle_beta                 98.186(17)
_cell_angle_gamma                110.63(2)
_cell_volume                     691.59
loop_
_atom_site_label
_atom_site_type_symbol
_atom_site_fract_x
_atom_site_fract_y
_atom_site_fract_z
Mn1 Mn -0.5000 -0.5000 -0.5000
O1 O -0.5006(4) -0.4777(3) 0.3130(2)
O2 O -0.1791(4) -0.4374(3) 0.2947(2)
N1 N 0.4219(5) 0.2343(3) 0.4516(3)
O3 O -0.1713(4) -0.4485(3) -0.4693(2)
H1 H -0.142(6) -0.443(5) -0.5350(19)
H2 H -0.085(5) -0.371(4) -0.422(3)
C1 C -0.4289(5) -0.4756(4) 0.1228(3)
C2 C -0.6060(5) -0.6039(4) 0.0660(3)
H3 H -0.6788 -0.6766 0.1109
C3 C -0.3612(6) -0.4606(4) 0.2548(3)
O5 O -0.1310(4) -0.1255(3) 0.1948(2)
N2 N 0.0237(4) -0.2024(3) 0.0534(3)
H8 H 0.0128 -0.2813 -0.0030
N3 N 0.3698(5) -0.0053(4) 0.3456(3)
C4 C -0.1315(5) -0.2219(4) 0.1099(3)
C5 C -0.3200(5) -0.3711(4) 0.0553(3)
C6 C 0.3963(6) -0.0836(5) 0.1369(3)
H9 H 0.4158 -0.1688 0.0836
H10 H 0.5152 0.0173 0.1450
C7 C 0.2080(5) -0.0585(4) 0.0801(3)
H11 H 0.1881 0.0262 0.1338
H12 H 0.2317 -0.0184 0.0061
C8 C 0.2697(6) 0.1129(4) 0.4876(3)
H13 H 0.1994 0.1301 0.5476
C9 C 0.4761(6) 0.1552(4) 0.3662(3)
H14 H 0.5778 0.2060 0.3248
C10 C 0.3881(7) -0.1307(5) 0.2573(4)
H15 H 0.2714 -0.2330 0.2495
H16 H 0.5121 -0.1496 0.2860
C11 C 0.2387(6) -0.0347(5) 0.4222(4)
H17 H 0.1452 -0.1366 0.4288
Mn1_2 Mn -1.5000 -1.5000 -0.5000
Mn1_3 Mn 0.5000 0.5000 0.5000
Mn1_4 Mn -0.5000 -0.5000 0.5000
O1A O -0.4994(4) -0.5223(3) -0.3130(2)
O1_2 O -0.5006(4) -0.4777(3) -0.6870(2)
O2A O -0.8209(4) -0.5626(3) -0.2947(2)
N1A N -1.4219(5) -1.2343(3) -0.4516(3)
N1_2 N -0.5781(5) -0.7657(3) -0.5484(3)
N1A_2 N -0.4219(5) -0.2343(3) -0.4516(3)
O3A O -0.8287(4) -0.5515(3) -0.5307(2)
H1A H -0.858(6) -0.557(5) -0.4650(19)
H2A H -0.915(5) -0.629(4) -0.578(3)
C1A C -0.5711(5) -0.5244(4) -0.1228(3)
C2A C -0.3940(5) -0.3961(4) -0.0660(3)
H3A H -0.3212 -0.3234 -0.1109
C3A C -0.6388(6) -0.5394(4) -0.2548(3)
O5A O -0.8690(4) -0.8745(3) -0.1948(2)
N2A N -1.0237(4) -0.7976(3) -0.0534(3)
H8A H -1.0128 -0.7187 0.0030
N3A N -1.3698(5) -0.9947(4) -0.3456(3)
C4A C -0.8685(5) -0.7781(4) -0.1099(3)
C5A C -0.6800(5) -0.6289(4) -0.0553(3)
C6A C -1.3963(6) -0.9164(5) -0.1369(3)
H9A H -1.4158 -0.8312 -0.0836
H10A H -1.5152 -1.0173 -0.1450
C7A C -1.2080(5) -0.9415(4) -0.0801(3)
H11A H -1.1881 -1.0262 -0.1338
H12A H -1.2317 -0.9816 -0.0061
C8A C -1.2697(6) -1.1129(4) -0.4876(3)
H13A H -1.1994 -1.1301 -0.5476
C9A C -1.4761(6) -1.1552(4) -0.3662(3)
H14A H -1.5778 -1.2060 -0.3248
C10A C -1.3881(7) -0.8693(5) -0.2573(4)
H15A H -1.2714 -0.7670 -0.2495
H16A H -1.5121 -0.8504 -0.2860
C11A C -1.2387(6) -0.9653(5) -0.4222(4)
H17A H -1.1452 -0.8634 -0.4288
O4 O -0.0928(5) 0.1868(3) 0.2945(3)
H4 H -0.045(7) 0.246(4) 0.249(3)
H5 H -0.087(7) 0.099(3) 0.274(4)
O6 O -0.9392(5) -0.5568(3) 0.1771(2)
H6 H -0.834(4) -0.509(5) 0.225(3)
H7 H -1.036(4) -0.539(4) 0.194(3)
loop_
_geom_bond_atom_site_label_1
_geom_bond_atom_site_label_2
_geom_bond_site_symmetry_1
_geom_bond_site_symmetry_2
Mn1 O3 1_555 1_555
O1 C3 1_555 1_555
O2 C3 1_555 1_555
N1 C8 1_555 1_555
O3 H1 1_555 1_555
H2 O3 1_555 1_555
C1 C2 1_555 1_555
C2 H3 1_555 1_555
C3 C1 1_555 1_555
O4 H4 1_555 1_555
H5 O4 1_555 1_555
O5 C4 1_555 1_555
O6 H6 1_555 1_555
H7 O6 1_555 1_555
N2 H8 1_555 1_555
N3 C9 1_555 1_555
C4 N2 1_555 1_555
C5 C1 1_555 1_555
C6 H9 1_555 1_555
H10 C6 1_555 1_555
C7 N2 1_555 1_555
H11 C7 1_555 1_555
H12 C7 1_555 1_555
C8 H13 1_555 1_555
C9 N1 1_555 1_555
H14 C9 1_555 1_555
C10 N3 1_555 1_555
H15 C10 1_555 1_555
H16 C10 1_555 1_555
C11 N3 1_555 1_555
H17 C11 1_555 1_555
Mn1_2 N1A 1_555 1_555
Mn1_3 N1 1_555 1_555
Mn1_4 O1 1_555 1_555
O1A Mn1 1_555 1_555
O1_2 Mn1 1_555 1_555
O2A C3A 1_555 1_555
N1A C8A 1_555 1_555
N1_2 Mn1 1_555 1_555
N1A_2 Mn1 1_555 1_555
O3A Mn1 1_555 1_555
H1A O3A 1_555 1_555
H2A O3A 1_555 1_555
C1A C2A 1_555 1_555
C2A C5 1_555 1_555
H3A C2A 1_555 1_555
C3A O1A 1_555 1_555
O5A C4A 1_555 1_555
N2A H8A 1_555 1_555
N3A C9A 1_555 1_555
C4A N2A 1_555 1_555
C5A C2 1_555 1_555
C6A H9A 1_555 1_555
H10A C6A 1_555 1_555
C7A N2A 1_555 1_555
H11A C7A 1_555 1_555
H12A C7A 1_555 1_555
C8A H13A 1_555 1_555
C9A N1A 1_555 1_555
H14A C9A 1_555 1_555
C10A N3A 1_555 1_555
H15A C10A 1_555 1_555
H16A C10A 1_555 1_555
C11A N3A 1_555 1_555
H17A C11A 1_555 1_555
C4 C5 1_555 1_555
C6 C7 1_555 1_555
C6 C10 1_555 1_555
C8 C11 1_555 1_555
C1A C3A 1_555 1_555
C1A C5A 1_555 1_555
C4A C5A 1_555 1_555
C6A C7A 1_555 1_555
C6A C10A 1_555 1_555
C8A C11A 1_555 1_555

#END
