
#######################################################################
#
#                 Cambridge Crystallographic Data Centre
#                                CCDC 
#
#######################################################################
#
# If this CIF has been generated from an entry in the Cambridge 
# Structural Database, then it will include bibliographic, chemical, 
# crystal, experimental, refinement or atomic coordinate data resulting 
# from the CCDC's data processing and validation procedures.
#
#######################################################################

data_CAVSAV
_symmetry_cell_setting           monoclinic
_symmetry_space_group_name_H-M   'P 21/c'
_symmetry_Int_Tables_number      14
_space_group_name_Hall           '-P 2ybc'
loop_
_symmetry_equiv_pos_site_id
_symmetry_equiv_pos_as_xyz
1 x,y,z
2 -x,1/2+y,1/2-z
3 -x,-y,-z
4 x,1/2-y,1/2+z
_cell_length_a                   11.4968(5)
_cell_length_b                   8.5830(3)
_cell_length_c                   13.5611(5)
_cell_angle_alpha                90
_cell_angle_beta                 93.193(2)
_cell_angle_gamma                90
_cell_volume                     1336.09
loop_
_atom_site_label
_atom_site_type_symbol
_atom_site_fract_x
_atom_site_fract_y
_atom_site_fract_z
Mn1 Mn 0.5000 0.5000 -0.5000
C1 C 0.03086(18) 0.4326(2) -0.40823(14)
C2 C -0.08575(18) 0.4534(2) -0.43849(15)
H1 H -0.1445 0.4211 -0.3963
C3 C 0.11810(19) 0.4792(2) -0.47046(16)
C4 C 0.05938(18) 0.3503(2) -0.31151(15)
O1 O 0.09998(15) 0.21678(19) -0.31100(12)
N1 N 0.0322(2) 0.4276(2) -0.23109(14)
H2 H 0.0050 0.5231 -0.2382
C5 C 0.0448(2) 0.3627(3) -0.13133(16)
H3 H 0.0752 0.2551 -0.1348
H4 H -0.0326 0.3580 -0.1030
C6 C 0.1268(2) 0.4595(3) -0.06385(17)
H5 H 0.1015 0.5697 -0.0663
H6 H 0.1224 0.4225 0.0050
C7 C 0.2522(2) 0.4489(3) -0.09350(19)
H7 H 0.2800 0.3402 -0.0855
H8 H 0.2558 0.4774 -0.1640
N2 N 0.32900(19) 0.5527(3) -0.03333(16)
C8 C 0.3717(2) 0.6909(3) -0.06121(18)
H9 H 0.3578 0.7352 -0.1250
N3 N 0.43570(18) 0.7574(3) 0.01132(15)
C9 C 0.4334(2) 0.6559(3) 0.09000(19)
H10 H 0.4713 0.6722 0.1532
C10 C 0.3683(3) 0.5288(4) 0.0631(2)
H11 H 0.3531 0.4409 0.1030
C11 C 0.24566(19) 0.4645(3) -0.43953(16)
O2 O 0.31420(14) 0.4330(2) -0.50711(12)
O3 O 0.27482(15) 0.4873(2) -0.35027(13)
O4 O 0.49574(17) 0.5342(3) -0.66225(14)
H12 H 0.454(3) 0.481(4) -0.700(3)
H13 H 0.5630(17) 0.519(4) -0.678(3)
Mn1A Mn 0.5000 1.0000 0.0000
Mn1A_2 Mn -0.5000 0.0000 -1.0000
Mn1_2 Mn -0.5000 0.5000 -0.5000
C1B C -0.03086(18) 0.5674(2) -0.59177(14)
C2B C 0.08575(18) 0.5466(2) -0.56151(15)
H1B H 0.1445 0.5789 -0.6037
C3B C -0.11810(19) 0.5208(2) -0.52954(16)
C4B C -0.05938(18) 0.6497(2) -0.68849(15)
O1B O -0.09998(15) 0.78322(19) -0.68900(12)
N1B N -0.0322(2) 0.5724(2) -0.76891(14)
H2B H -0.0050 0.4769 -0.7618
C5B C -0.0448(2) 0.6373(3) -0.86867(16)
H3B H -0.0752 0.7449 -0.8652
H4B H 0.0326 0.6420 -0.8970
C6B C -0.1268(2) 0.5405(3) -0.93615(17)
H5B H -0.1015 0.4303 -0.9337
H6B H -0.1224 0.5775 -1.0050
C7B C -0.2522(2) 0.5511(3) -0.90650(19)
H7B H -0.2800 0.6598 -0.9145
H8B H -0.2558 0.5226 -0.8360
N2B N -0.32900(19) 0.4473(3) -0.96667(16)
C8B C -0.3717(2) 0.3091(3) -0.93879(18)
H9B H -0.3578 0.2648 -0.8750
N3B N -0.43570(18) 0.2426(3) -1.01132(15)
N3A N 0.56430(18) 0.2574(3) -0.51132(15)
N3C N 0.43570(18) 0.7426(3) -0.48868(15)
C9B C -0.4334(2) 0.3441(3) -1.09000(19)
H10B H -0.4713 0.3278 -1.1532
C10B C -0.3683(3) 0.4712(4) -1.0631(2)
H11B H -0.3531 0.5591 -1.1030
C11B C -0.24566(19) 0.5355(3) -0.56047(16)
O2B O -0.31420(14) 0.5670(2) -0.49289(12)
O2B_2 O 0.68580(14) 0.5670(2) -0.49289(12)
O3B O -0.27482(15) 0.5127(2) -0.64973(13)
O4B O 0.50426(17) 0.4658(3) -0.33775(14)
H12B H 0.546(3) 0.519(4) -0.300(3)
H13B H 0.4370(17) 0.481(4) -0.322(3)
O5 O 0.1993(3) 0.7575(4) -0.2534(2)
H14 H 0.232(5) 0.682(4) -0.292(4)
H15 H 0.246(5) 0.831(5) -0.281(4)
O6 O 0.2955(2) 0.0858(4) -0.21772(18)
H16 H 0.286(5) 0.104(6) -0.1591(15)
H17 H 0.262(5) 0.158(5) -0.248(3)
O7? O 0.3564(8) 0.2009(12) -0.2649(8)
loop_
_geom_bond_atom_site_label_1
_geom_bond_atom_site_label_2
_geom_bond_site_symmetry_1
_geom_bond_site_symmetry_2
Mn1 O2 1_555 1_555
C1 C2 1_555 1_555
C2 H1 1_555 1_555
C3 C1 1_555 1_555
C4 C1 1_555 1_555
O1 C4 1_555 1_555
N1 C4 1_555 1_555
H2 N1 1_555 1_555
C5 N1 1_555 1_555
H3 C5 1_555 1_555
H4 C5 1_555 1_555
C6 C5 1_555 1_555
H5 C6 1_555 1_555
H6 C6 1_555 1_555
C7 C6 1_555 1_555
H7 C7 1_555 1_555
H8 C7 1_555 1_555
N2 C7 1_555 1_555
C8 N2 1_555 1_555
H9 C8 1_555 1_555
N3 C8 1_555 1_555
C9 N3 1_555 1_555
H10 C9 1_555 1_555
C10 N2 1_555 1_555
H11 C10 1_555 1_555
C11 C3 1_555 1_555
O2 C11 1_555 1_555
O3 C11 1_555 1_555
O4 Mn1 1_555 1_555
H12 O4 1_555 1_555
H13 O4 1_555 1_555
O5 H14 1_555 1_555
H15 O5 1_555 1_555
O6 H16 1_555 1_555
H17 O6 1_555 1_555
Mn1A N3 1_555 1_555
Mn1A_2 N3B 1_555 1_555
Mn1_2 O2B 1_555 1_555
C1B C2B 1_555 1_555
C2B C3 1_555 1_555
H1B C2B 1_555 1_555
C3B C2 1_555 1_555
C4B C1B 1_555 1_555
O1B C4B 1_555 1_555
N1B C4B 1_555 1_555
H2B N1B 1_555 1_555
C5B N1B 1_555 1_555
H3B C5B 1_555 1_555
H4B C5B 1_555 1_555
C6B C5B 1_555 1_555
H5B C6B 1_555 1_555
H6B C6B 1_555 1_555
C7B C6B 1_555 1_555
H7B C7B 1_555 1_555
H8B C7B 1_555 1_555
N2B C7B 1_555 1_555
C8B N2B 1_555 1_555
H9B C8B 1_555 1_555
N3B C8B 1_555 1_555
N3A Mn1 1_555 1_555
N3C Mn1 1_555 1_555
C9B N3B 1_555 1_555
H10B C9B 1_555 1_555
C10B N2B 1_555 1_555
H11B C10B 1_555 1_555
C11B C3B 1_555 1_555
O2B C11B 1_555 1_555
O2B_2 Mn1 1_555 1_555
O3B C11B 1_555 1_555
O4B Mn1 1_555 1_555
H12B O4B 1_555 1_555
H13B O4B 1_555 1_555
C9 C10 1_555 1_555
C1B C3B 1_555 1_555
C9B C10B 1_555 1_555

#END
