
#######################################################################
#
#                 Cambridge Crystallographic Data Centre
#                                CCDC 
#
#######################################################################
#
# If this CIF has been generated from an entry in the Cambridge 
# Structural Database, then it will include bibliographic, chemical, 
# crystal, experimental, refinement or atomic coordinate data resulting 
# from the CCDC's data processing and validation procedures.
#
#######################################################################

data_CAVSID
_symmetry_cell_setting           triclinic
_symmetry_space_group_name_H-M   'P -1'
_symmetry_Int_Tables_number      2
_space_group_name_Hall           '-P 1'
loop_
_symmetry_equiv_pos_site_id
_symmetry_equiv_pos_as_xyz
1 x,y,z
2 -x,-y,-z
_cell_length_a                   9.3009(6)
_cell_length_b                   10.5787(7)
_cell_length_c                   11.2121(7)
_cell_angle_alpha                92.593(5)
_cell_angle_beta                 97.681(5)
_cell_angle_gamma                111.597(6)
_cell_volume                     1011.17
loop_
_atom_site_label
_atom_site_type_symbol
_atom_site_fract_x
_atom_site_fract_y
_atom_site_fract_z
Cu1 Cu 0.0000 0.0000 0.0000
O1 O 0.0809(14) -0.1958(18) 0.0139(8)
O2 O 0.3564(3) 0.0183(3) -0.3065(2)
O3 O 0.0149(3) 0.0268(3) -0.1727(2)
O4 O 0.0555(3) -0.1616(3) -0.2270(2)
N1 N 0.2906(4) -0.1640(3) -0.4458(3)
H1 H 0.2346 -0.2044 -0.5163
N2 N 0.5545(4) -0.2655(3) -0.1420(3)
N3 N 0.7768(3) -0.1167(3) -0.0434(3)
C1 C 0.1272(4) -0.0329(4) -0.4521(3)
C2 C 0.0209(4) -0.0210(3) -0.3786(3)
C3 C 0.1045(4) -0.0122(4) -0.5737(3)
H2 H 0.1752 -0.0209 -0.6243
C4 C 0.2681(4) -0.0586(4) -0.3958(3)
C5 C 0.4058(4) -0.2157(4) -0.3877(3)
H3 H 0.4945 -0.1397 -0.3387
H4 H 0.4472 -0.2553 -0.4502
C6 C 0.3288(5) -0.3245(4) -0.3068(4)
H5 H 0.2772 -0.2868 -0.2510
H6 H 0.2466 -0.4035 -0.3579
C7 C 0.4436(5) -0.3740(4) -0.2329(4)
H7 H 0.3848 -0.4533 -0.1918
H8 H 0.5024 -0.4043 -0.2877
C8 C 0.7092(4) -0.2111(4) -0.1370(3)
H9 H 0.7641 -0.2365 -0.1932
C9 C 0.6551(4) -0.1110(4) 0.0138(3)
H10 H 0.6666 -0.0517 0.0836
C10 C 0.5176(5) -0.2034(4) -0.0462(3)
H11 H 0.4162 -0.2218 -0.0263
C11 C 0.0334(4) -0.0544(4) -0.2491(3)
H12 H 0.093(10) -0.225(6) -0.052(3)
H13 H 0.160(6) -0.188(9) 0.063(5)
Cu1_2 Cu 1.0000 0.0000 0.0000
Cu1_3 Cu 0.0000 0.0000 -1.0000
Cu1_4 Cu -1.0000 0.0000 -1.0000
O1A O -0.0809(14) 0.1958(18) -0.0139(8)
O2A O -0.3564(3) -0.0183(3) -0.6935(2)
O3A O -0.0149(3) -0.0268(3) -0.8273(2)
O3A_2 O -0.0149(3) -0.0268(3) 0.1727(2)
O4A O -0.0555(3) 0.1616(3) -0.7730(2)
N1A N -0.2906(4) 0.1640(3) -0.5542(3)
H1A H -0.2346 0.2044 -0.4837
N2A N -0.5545(4) 0.2655(3) -0.8580(3)
N3A N -0.7768(3) 0.1167(3) -0.9566(3)
N3_2 N -0.2232(3) -0.1167(3) -0.0434(3)
N3A_2 N 0.2232(3) 0.1167(3) 0.0434(3)
C1A C -0.1272(4) 0.0329(4) -0.5479(3)
C2A C -0.0209(4) 0.0210(3) -0.6214(3)
C3A C -0.1045(4) 0.0122(4) -0.4263(3)
H2A H -0.1752 0.0209 -0.3757
C4A C -0.2681(4) 0.0586(4) -0.6042(3)
C5A C -0.4058(4) 0.2157(4) -0.6123(3)
H3A H -0.4945 0.1397 -0.6613
H4A H -0.4472 0.2553 -0.5498
C6A C -0.3288(5) 0.3245(4) -0.6932(4)
H5A H -0.2772 0.2868 -0.7490
H6A H -0.2466 0.4035 -0.6421
C7A C -0.4436(5) 0.3740(4) -0.7671(4)
H7A H -0.3848 0.4533 -0.8082
H8A H -0.5024 0.4043 -0.7123
C8A C -0.7092(4) 0.2111(4) -0.8630(3)
H9A H -0.7641 0.2365 -0.8068
C9A C -0.6551(4) 0.1110(4) -1.0138(3)
H10A H -0.6666 0.0517 -1.0836
C10A C -0.5176(5) 0.2034(4) -0.9538(3)
H11A H -0.4162 0.2218 -0.9737
C11A C -0.0334(4) 0.0544(4) -0.7509(3)
H12A H -0.093(10) 0.225(6) 0.052(3)
H13A H -0.160(6) 0.188(9) -0.063(5)
O5 O 0.0406(7) -0.3768(6) -0.5999(6)
O6 O 0.6320(4) -0.3848(3) -0.4892(3)
O7 O -0.091(2) -0.4029(11) -0.393(3)
H14 H -0.181(3) -0.408(5) -0.402(4)
H15 H -0.039(3) -0.343(3) -0.336(3)
O8 O 0.3740(3) 0.2858(3) -0.2876(3)
H16 H 0.364(6) 0.205(3) -0.286(5)
H17 H 0.302(5) 0.296(5) -0.258(5)
O9 O 0.1534(5) -0.4691(5) -0.0278(4)
H18 H 0.138(9) -0.544(4) -0.065(5)
H19 H 0.199(9) -0.468(7) 0.042(3)
O10 O 0.6876(4) 0.1355(4) -0.2179(3)
H20 H 0.596(3) 0.084(5) -0.241(6)
H21 H 0.704(8) 0.211(3) -0.240(6)
O11 O 0.1251(4) 0.3172(3) -0.1968(3)
H22 H 0.082(6) 0.239(3) -0.181(5)
H23 H 0.074(6) 0.332(5) -0.256(4)
O12 O 0.3166(4) -0.4368(6) 0.1986(4)
H24 H 0.262(7) -0.466(9) 0.250(5)
H25 H 0.410(3) -0.408(9) 0.227(6)
H26? H 0.122(19) -0.184(11) -0.054(7)
H27? H 0.152(17) -0.293(10) -0.018(11)
H28? H -0.039(3) -0.343(3) -0.336(3)
H29? H -0.181(3) -0.408(5) -0.402(4)
O13? O 0.125(3) -0.2306(19) 0.0024(14)
O14? O -0.1221(14) -0.4081(9) -0.341(3)
O15? O 0.1159(8) -0.3401(6) -0.6591(6)
loop_
_geom_bond_atom_site_label_1
_geom_bond_atom_site_label_2
_geom_bond_site_symmetry_1
_geom_bond_site_symmetry_2
Cu1 O1 1_555 1_555
O1 H12 1_555 1_555
O2 C4 1_555 1_555
O3 Cu1 1_555 1_555
O4 C11 1_555 1_555
N1 H1 1_555 1_555
N2 C7 1_555 1_555
N3 C8 1_555 1_555
C1 C2 1_555 1_555
C2 C11 1_555 1_555
C3 C1 1_555 1_555
H2 C3 1_555 1_555
C4 N1 1_555 1_555
C5 N1 1_555 1_555
H3 C5 1_555 1_555
H4 C5 1_555 1_555
C6 C5 1_555 1_555
H5 C6 1_555 1_555
H6 C6 1_555 1_555
C7 C6 1_555 1_555
H7 C7 1_555 1_555
H8 C7 1_555 1_555
C8 N2 1_555 1_555
H9 C8 1_555 1_555
C9 N3 1_555 1_555
H10 C9 1_555 1_555
C10 N2 1_555 1_555
H11 C10 1_555 1_555
C11 O3 1_555 1_555
H13 O1 1_555 1_555
O7 H14 1_555 1_555
H15 O7 1_555 1_555
O8 H16 1_555 1_555
H17 O8 1_555 1_555
O9 H18 1_555 1_555
H19 O9 1_555 1_555
O10 H20 1_555 1_555
H21 O10 1_555 1_555
O11 H22 1_555 1_555
H23 O11 1_555 1_555
O12 H24 1_555 1_555
H25 O12 1_555 1_555
Cu1_2 N3 1_555 1_555
Cu1_3 O3A 1_555 1_555
Cu1_4 N3A 1_555 1_555
O1A Cu1 1_555 1_555
O2A C4A 1_555 1_555
O3A C11A 1_555 1_555
O3A_2 Cu1 1_555 1_555
O4A C11A 1_555 1_555
N1A H1A 1_555 1_555
N2A C7A 1_555 1_555
N3A C8A 1_555 1_555
N3_2 Cu1 1_555 1_555
N3A_2 Cu1 1_555 1_555
C1A C2A 1_555 1_555
C2A C3 1_555 1_555
C3A C2 1_555 1_555
H2A C3A 1_555 1_555
C4A N1A 1_555 1_555
C5A N1A 1_555 1_555
H3A C5A 1_555 1_555
H4A C5A 1_555 1_555
C6A C5A 1_555 1_555
H5A C6A 1_555 1_555
H6A C6A 1_555 1_555
C7A C6A 1_555 1_555
H7A C7A 1_555 1_555
H8A C7A 1_555 1_555
C8A N2A 1_555 1_555
H9A C8A 1_555 1_555
C9A N3A 1_555 1_555
H10A C9A 1_555 1_555
C10A N2A 1_555 1_555
H11A C10A 1_555 1_555
C11A C2A 1_555 1_555
H12A O1A 1_555 1_555
H13A O1A 1_555 1_555
C1 C4 1_555 1_555
C9 C10 1_555 1_555
C1A C3A 1_555 1_555
C1A C4A 1_555 1_555
C9A C10A 1_555 1_555

#END
