
#######################################################################
#
#                 Cambridge Crystallographic Data Centre
#                                CCDC 
#
#######################################################################
#
# If this CIF has been generated from an entry in the Cambridge 
# Structural Database, then it will include bibliographic, chemical, 
# crystal, experimental, refinement or atomic coordinate data resulting 
# from the CCDC's data processing and validation procedures.
#
#######################################################################

data_CAVTIE
_symmetry_cell_setting           monoclinic
_symmetry_space_group_name_H-M   'P 21/c'
_symmetry_Int_Tables_number      14
_space_group_name_Hall           '-P 2ybc'
loop_
_symmetry_equiv_pos_site_id
_symmetry_equiv_pos_as_xyz
1 x,y,z
2 -x,1/2+y,1/2-z
3 -x,-y,-z
4 x,1/2-y,1/2+z
_cell_length_a                   9.0134(18)
_cell_length_b                   8.6684(17)
_cell_length_c                   10.313(2)
_cell_angle_alpha                90
_cell_angle_beta                 114.68(3)
_cell_angle_gamma                90
_cell_volume                     732.169
loop_
_atom_site_label
_atom_site_type_symbol
_atom_site_fract_x
_atom_site_fract_y
_atom_site_fract_z
Ca1 Ca 0.5000 0.5000 0.5000
N1 N 0.6206(5) 0.6385(5) 0.7322(3)
N2 N 0.6321(5) 0.8166(5) 0.8966(4)
N3 N 0.7402(5) 0.3290(5) 0.5788(4)
N4 N 0.9779(6) 0.2412(6) 0.6082(5)
H1 H 1.0692 0.2339 0.6007
C1 C 0.5864(6) 0.7775(6) 0.7578(4)
H2 H 0.5331 0.8471 0.6844
C2 C 0.6972(6) 0.5709(6) 0.8666(4)
H3 H 0.7367 0.4705 0.8869
C3 C 0.7026(6) 0.6830(6) 0.9637(4)
H4 H 0.7485 0.6691 1.0621
C4 C 0.8624(7) 0.3448(7) 0.5451(5)
H5 H 0.8684 0.4204 0.4835
C5 C 0.7815(8) 0.2037(7) 0.6677(5)
H6 H 0.7168 0.1622 0.7095
C6 C 0.9268(9) 0.1496(8) 0.6859(6)
H7 H 0.9817 0.0655 0.7412
Ca1A Ca 0.5000 1.0000 1.0000
Ca1A_2 Ca 0.5000 1.0000 0.0000
N1C N 0.6206(5) 0.8615(5) 0.2322(3)
N1B N 0.3794(5) 0.3615(5) 0.2678(3)
N2C N 0.6321(5) 0.6834(5) 0.3966(4)
N2A N 0.3679(5) 0.3166(5) 0.6034(4)
N3B N 0.2598(5) 0.6710(5) 0.4212(4)
N4B N 0.0221(6) 0.7588(6) 0.3918(5)
H1B H -0.0692 0.7661 0.3993
C1C C 0.5864(6) 0.7225(6) 0.2578(4)
H2C H 0.5331 0.6529 0.1844
C2C C 0.6972(6) 0.9291(6) 0.3666(4)
H3C H 0.7367 1.0295 0.3869
C3C C 0.7026(6) 0.8170(6) 0.4637(4)
H4C H 0.7485 0.8309 0.5621
C4B C 0.1376(7) 0.6552(7) 0.4549(5)
H5B H 0.1316 0.5796 0.5165
C5B C 0.2185(8) 0.7963(7) 0.3323(5)
H6B H 0.2832 0.8378 0.2905
C6B C 0.0732(9) 0.8504(8) 0.3141(6)
H7B H 0.0183 0.9345 0.2588
loop_
_geom_bond_atom_site_label_1
_geom_bond_atom_site_label_2
_geom_bond_site_symmetry_1
_geom_bond_site_symmetry_2
Ca1 N1 1_555 1_555
N1 C1 1_555 1_555
N2 C1 1_555 1_555
N3 Ca1 1_555 1_555
N4 H1 1_555 1_555
C1 H2 1_555 1_555
C2 N1 1_555 1_555
H3 C2 1_555 1_555
C3 N2 1_555 1_555
H4 C3 1_555 1_555
C4 N3 1_555 1_555
H5 C4 1_555 1_555
C5 N3 1_555 1_555
H6 C5 1_555 1_555
C6 N4 1_555 1_555
H7 C6 1_555 1_555
Ca1A N2 1_555 1_555
Ca1A_2 N1C 1_555 1_555
N1C C1C 1_555 1_555
N1B Ca1 1_555 1_555
N2C Ca1 1_555 1_555
N2A Ca1 1_555 1_555
N3B Ca1 1_555 1_555
N4B H1B 1_555 1_555
C1C N2C 1_555 1_555
H2C C1C 1_555 1_555
C2C N1C 1_555 1_555
H3C C2C 1_555 1_555
C3C N2C 1_555 1_555
H4C C3C 1_555 1_555
C4B N3B 1_555 1_555
H5B C4B 1_555 1_555
C5B N3B 1_555 1_555
H6B C5B 1_555 1_555
C6B N4B 1_555 1_555
H7B C6B 1_555 1_555
N4 C4 1_555 1_555
C2 C3 1_555 1_555
C5 C6 1_555 1_555
N4B C4B 1_555 1_555
C2C C3C 1_555 1_555
C5B C6B 1_555 1_555

#END
