
#######################################################################
#
#                 Cambridge Crystallographic Data Centre
#                                CCDC 
#
#######################################################################
#
# If this CIF has been generated from an entry in the Cambridge 
# Structural Database, then it will include bibliographic, chemical, 
# crystal, experimental, refinement or atomic coordinate data resulting 
# from the CCDC's data processing and validation procedures.
#
#######################################################################

data_CAVTEA
_symmetry_cell_setting           monoclinic
_symmetry_space_group_name_H-M   'C 2/c'
_symmetry_Int_Tables_number      15
_space_group_name_Hall           '-C 2yn'
loop_
_symmetry_equiv_pos_site_id
_symmetry_equiv_pos_as_xyz
1 x,y,z
2 -x,y,1/2-z
3 1/2+x,1/2+y,z
4 1/2-x,1/2+y,1/2-z
5 -x,-y,-z
6 x,-y,1/2+z
7 1/2-x,1/2-y,-z
8 1/2+x,1/2-y,1/2+z
_cell_length_a                   24.122(5)
_cell_length_b                   8.3816(17)
_cell_length_c                   17.332(4)
_cell_angle_alpha                90
_cell_angle_beta                 95.05(3)
_cell_angle_gamma                90
_cell_volume                     3490.6
loop_
_atom_site_label
_atom_site_type_symbol
_atom_site_fract_x
_atom_site_fract_y
_atom_site_fract_z
Mg1 Mg 0.2500 0.7500 0.5000
Mg2 Mg 0.5000 0.5000 0.5000
N1 N 0.33327(7) 0.6993(2) 0.46188(10)
N2 N 0.42241(6) 0.6155(2) 0.46432(9)
N3 N 0.21117(7) 0.6618(2) 0.38969(10)
N4 N 0.14576(8) 0.5745(3) 0.29858(11)
N5 N 0.25577(7) 0.9932(2) 0.44744(10)
N6 N 0.24136(9) 1.2088(3) 0.37642(12)
N7 N 0.47526(7) 0.3005(2) 0.42171(10)
N8 N 0.43565(8) 0.1731(3) 0.32021(11)
N9 N 0.54220(7) 0.6140(2) 0.40524(10)
N10 N 0.58818(8) 0.7860(3) 0.33947(11)
C1 C 0.37216(8) 0.5982(3) 0.49137(12)
C2 C 0.41428(9) 0.7378(3) 0.41239(12)
C3 C 0.36057(9) 0.7887(3) 0.41116(12)
C4 C 0.15730(9) 0.6445(3) 0.36725(13)
C5 C 0.19771(10) 0.5444(3) 0.27481(13)
C6 C 0.23690(9) 0.5985(3) 0.32967(13)
C7 C 0.22344(10) 1.0607(3) 0.39127(13)
C8 C 0.28779(11) 1.2371(4) 0.42436(15)
H1 H 0.3648(10) 0.516(3) 0.5312(14)
H2 H 0.4445(11) 0.779(3) 0.3829(14)
H3 H 0.5933(11) 0.647(4) 0.2417(17)
H4 H 0.5659(10) 0.828(4) 0.4463(15)
H5 H 0.3419(10) 0.875(3) 0.3818(14)
H6 H 0.1281(11) 0.672(3) 0.3999(15)
H7 H 0.5391(10) 0.135(3) 0.4441(14)
H8 H 0.1916(11) 1.010(3) 0.3641(14)
H9 H 0.4086(14) 0.145(4) 0.2755(19)
H10 H 0.4029(11) 0.383(4) 0.3597(14)
H11 H 0.2772(12) 0.597(4) 0.3309(15)
H12 H 0.4897(11) -0.008(4) 0.3250(16)
H13 H 0.3251(12) 1.078(4) 0.5102(17)
H14 H 0.2016(11) 0.503(4) 0.2253(17)
H15 H 0.6048(13) 0.880(4) 0.3283(18)
H16 H 0.3058(13) 1.335(4) 0.4264(17)
H17 H 0.5391(12) 0.437(4) 0.3171(16)
H18 H 0.2254(14) 1.290(5) 0.339(2)
C9 C 0.29613(10) 1.1049(3) 0.46770(15)
C10 C 0.43343(9) 0.2996(3) 0.36698(12)
C11 C 0.48128(9) 0.0858(3) 0.34702(13)
C12 C 0.50534(9) 0.1651(3) 0.40927(12)
C13 C 0.56506(9) 0.7561(3) 0.40545(13)
C14 C 0.58031(10) 0.6533(3) 0.29387(14)
C15 C 0.55170(9) 0.5487(3) 0.33475(12)
Mg2B Mg 0.0000 1.0000 0.5000
N1F N 0.16673(7) 0.8007(2) 0.53812(10)
N2F N 0.07759(6) 0.8845(2) 0.53568(9)
N2D N 0.57759(6) 0.3845(2) 0.53568(9)
N3F N 0.28883(7) 0.8382(2) 0.61031(10)
N4F N 0.35424(8) 0.9255(3) 0.70142(11)
N5F N 0.24423(7) 0.5068(2) 0.55256(10)
N6F N 0.25864(9) 0.2912(3) 0.62358(12)
N7D N 0.52474(7) 0.6995(2) 0.57829(10)
N8D N 0.56435(8) 0.8269(3) 0.67979(11)
N9D N 0.45780(7) 0.3860(2) 0.59476(10)
N10D N 0.41182(8) 0.2140(3) 0.66053(11)
C1F C 0.12784(8) 0.9018(3) 0.50863(12)
C2F C 0.08572(9) 0.7622(3) 0.58761(12)
C3F C 0.13943(9) 0.7113(3) 0.58884(12)
C4F C 0.34270(9) 0.8555(3) 0.63275(13)
C5F C 0.30229(10) 0.9556(3) 0.72519(13)
C6F C 0.26310(9) 0.9015(3) 0.67033(13)
C7F C 0.27656(10) 0.4393(3) 0.60873(13)
C8F C 0.21221(11) 0.2629(4) 0.57564(15)
H1F H 0.1352(10) 0.984(3) 0.4688(14)
H2F H 0.0555(11) 0.721(3) 0.6171(14)
H3D H 0.4067(11) 0.353(4) 0.7583(17)
H4D H 0.4341(10) 0.172(4) 0.5537(15)
H5F H 0.1581(10) 0.625(3) 0.6182(14)
H6F H 0.3719(11) 0.828(3) 0.6001(15)
H7D H 0.4609(10) 0.865(3) 0.5559(14)
H8F H 0.3084(11) 0.490(3) 0.6359(14)
H9D H 0.5914(14) 0.855(4) 0.7245(19)
H10D H 0.5971(11) 0.617(4) 0.6403(14)
H11F H 0.2228(12) 0.903(4) 0.6691(15)
H12D H 0.5103(11) 1.008(4) 0.6750(16)
H13F H 0.1749(12) 0.422(4) 0.4898(17)
H14F H 0.2984(11) 0.997(4) 0.7747(17)
H15D H 0.3952(13) 0.120(4) 0.6717(18)
H16F H 0.1942(13) 0.165(4) 0.5736(17)
H17D H 0.4609(12) 0.563(4) 0.6829(16)
H18F H 0.2746(14) 0.210(5) 0.661(2)
C9F C 0.20387(10) 0.3951(3) 0.53230(15)
C10D C 0.56657(9) 0.7004(3) 0.63302(12)
C11D C 0.51872(9) 0.9142(3) 0.65298(13)
C12D C 0.49466(9) 0.8349(3) 0.59073(12)
C13D C 0.43494(9) 0.2439(3) 0.59455(13)
C14D C 0.41969(10) 0.3467(3) 0.70613(14)
C15D C 0.44830(9) 0.4513(3) 0.66525(12)
loop_
_geom_bond_atom_site_label_1
_geom_bond_atom_site_label_2
_geom_bond_site_symmetry_1
_geom_bond_site_symmetry_2
Mg1 N1 1_555 1_555
Mg2 N2 1_555 1_555
N1 C1 1_555 1_555
N2 C1 1_555 1_555
N3 Mg1 1_555 1_555
N4 C4 1_555 1_555
N5 Mg1 1_555 1_555
N6 C7 1_555 1_555
N7 Mg2 1_555 1_555
N8 H9 1_555 1_555
N9 Mg2 1_555 1_555
N10 H15 1_555 1_555
C1 H1 1_555 1_555
C2 N2 1_555 1_555
C3 N1 1_555 1_555
C4 N3 1_555 1_555
C5 N4 1_555 1_555
C6 N3 1_555 1_555
C7 N5 1_555 1_555
C8 N6 1_555 1_555
H2 C2 1_555 1_555
H3 C14 1_555 1_555
H4 C13 1_555 1_555
H5 C3 1_555 1_555
H6 C4 1_555 1_555
H7 C12 1_555 1_555
H8 C7 1_555 1_555
H10 C10 1_555 1_555
H11 C6 1_555 1_555
H12 C11 1_555 1_555
H13 C9 1_555 1_555
H14 C5 1_555 1_555
H16 C8 1_555 1_555
H17 C15 1_555 1_555
H18 N6 1_555 1_555
C9 N5 1_555 1_555
C10 N7 1_555 1_555
C11 N8 1_555 1_555
C12 N7 1_555 1_555
C13 N9 1_555 1_555
C14 N10 1_555 1_555
C15 N9 1_555 1_555
Mg2B N2F 1_555 1_555
N1F Mg1 1_555 1_555
N2F C1F 1_555 1_555
N2D Mg2 1_555 1_555
N3F Mg1 1_555 1_555
N4F C4F 1_555 1_555
N5F Mg1 1_555 1_555
N6F C7F 1_555 1_555
N7D Mg2 1_555 1_555
N8D H9D 1_555 1_555
N9D Mg2 1_555 1_555
N10D H15D 1_555 1_555
C1F N1F 1_555 1_555
C2F N2F 1_555 1_555
C3F N1F 1_555 1_555
C4F N3F 1_555 1_555
C5F N4F 1_555 1_555
C6F N3F 1_555 1_555
C7F N5F 1_555 1_555
C8F N6F 1_555 1_555
H1F C1F 1_555 1_555
H2F C2F 1_555 1_555
H3D C14D 1_555 1_555
H4D C13D 1_555 1_555
H5F C3F 1_555 1_555
H6F C4F 1_555 1_555
H7D C12D 1_555 1_555
H8F C7F 1_555 1_555
H10D C10D 1_555 1_555
H11F C6F 1_555 1_555
H12D C11D 1_555 1_555
H13F C9F 1_555 1_555
H14F C5F 1_555 1_555
H16F C8F 1_555 1_555
H17D C15D 1_555 1_555
H18F N6F 1_555 1_555
C9F N5F 1_555 1_555
C10D N7D 1_555 1_555
C11D N8D 1_555 1_555
C12D N7D 1_555 1_555
C13D N9D 1_555 1_555
C14D N10D 1_555 1_555
C15D N9D 1_555 1_555
N8 C10 1_555 1_555
N10 C13 1_555 1_555
C2 C3 1_555 1_555
C5 C6 1_555 1_555
C8 C9 1_555 1_555
C11 C12 1_555 1_555
C14 C15 1_555 1_555
N8D C10D 1_555 1_555
N10D C13D 1_555 1_555
C2F C3F 1_555 1_555
C5F C6F 1_555 1_555
C8F C9F 1_555 1_555
C11D C12D 1_555 1_555
C14D C15D 1_555 1_555

#END
