
#######################################################################
#
#                 Cambridge Crystallographic Data Centre
#                                CCDC 
#
#######################################################################
#
# If this CIF has been generated from an entry in the Cambridge 
# Structural Database, then it will include bibliographic, chemical, 
# crystal, experimental, refinement or atomic coordinate data resulting 
# from the CCDC's data processing and validation procedures.
#
#######################################################################

data_CAVVAY
_symmetry_cell_setting           monoclinic
_symmetry_space_group_name_H-M   'P 21'
_symmetry_Int_Tables_number      4
_space_group_name_Hall           'P 2yb'
loop_
_symmetry_equiv_pos_site_id
_symmetry_equiv_pos_as_xyz
1 x,y,z
2 -x,1/2+y,-z
_cell_length_a                   9.939(8)
_cell_length_b                   6.873(6)
_cell_length_c                   12.286(10)
_cell_angle_alpha                90
_cell_angle_beta                 93.407(11)
_cell_angle_gamma                90
_cell_volume                     837.782
loop_
_atom_site_label
_atom_site_type_symbol
_atom_site_fract_x
_atom_site_fract_y
_atom_site_fract_z
Zn1 Zn 0.32556(11) 0.14093(17) 0.74874(8)
P1 P 0.3707(3) 0.2960(5) 0.4980(2)
O1 O 0.4804(8) 0.2471(13) 0.4238(7)
O2 O 0.3339(8) 0.5168(13) 0.4959(7)
H1 H 0.3976 0.5799 0.5227
O3 O 0.4015(9) 0.2204(14) 0.6101(7)
O4 O -0.2197(9) 0.0134(15) 0.2390(7)
O5 O -0.1349(9) -0.2694(13) 0.2890(8)
O6 O 0.3451(9) -0.1433(14) 0.7208(8)
H2 H 0.277(11) -0.213(19) 0.735(12)
H3 H 0.379(13) -0.20(2) 0.667(9)
N1 N 0.5220(9) 0.1607(19) 0.8301(7)
N2 N 0.2877(10) 0.135(2) 0.9211(7)
C1 C 0.6350(14) 0.174(3) 0.7760(11)
H4 H 0.6302 0.1983 0.7014
C2 C 0.7592(13) 0.149(5) 0.8325(12)
H5 H 0.8380 0.1475 0.7953
C3 C 0.7644(14) 0.128(4) 0.9463(12)
H6 H 0.8470 0.1182 0.9857
C4 C 0.6481(14) 0.121(3) 0.9983(10)
H7 H 0.6495 0.1007 1.0732
C5 C 0.5289(12) 0.144(2) 0.9388(8)
C6 C 0.3974(11) 0.130(2) 0.9896(8)
C7 C 0.3862(15) 0.137(3) 1.1032(9)
H8 H 0.4621 0.1496 1.1506
C8 C 0.2572(17) 0.123(4) 1.1427(12)
H9 H 0.2466 0.1113 1.2171
C9 C 0.1460(19) 0.128(6) 1.0700(13)
H10 H 0.0597 0.1386 1.0948
C10 C 0.1653(13) 0.117(3) 0.9601(11)
H11 H 0.0912 0.0974 0.9115
C11 C 0.2145(12) 0.188(2) 0.4387(10)
C12 C 0.1156(14) 0.297(3) 0.3892(12)
H12 H 0.1237 0.4317 0.3900
C13 C 0.0045(14) 0.2146(19) 0.3384(11)
H13 H -0.0602 0.2932 0.3027
C14 C -0.0133(11) 0.012(2) 0.3393(10)
C15 C 0.0910(13) -0.097(2) 0.3941(10)
H14 H 0.0857 -0.2317 0.3948
C16 C 0.2024(14) -0.004(2) 0.4476(11)
H15 H 0.2666 -0.0754 0.4885
C17 C -0.1301(13) -0.086(2) 0.2849(9)
Zn1A Zn -0.32556(11) -0.35907(17) 0.25126(8)
O5A O 0.1349(9) 0.2306(13) 0.7110(8)
loop_
_geom_bond_atom_site_label_1
_geom_bond_atom_site_label_2
_geom_bond_site_symmetry_1
_geom_bond_site_symmetry_2
Zn1 O3 1_555 1_555
P1 O1 1_555 1_555
O2 P1 1_555 1_555
H1 O2 1_555 1_555
O3 P1 1_555 1_555
O4 C17 1_555 1_555
O5 C17 1_555 1_555
O6 Zn1 1_555 1_555
H2 O6 1_555 1_555
H3 O6 1_555 1_555
N1 Zn1 1_555 1_555
N2 Zn1 1_555 1_555
C1 N1 1_555 1_555
H4 C1 1_555 1_555
C2 C1 1_555 1_555
H5 C2 1_555 1_555
C3 C2 1_555 1_555
H6 C3 1_555 1_555
C4 C3 1_555 1_555
H7 C4 1_555 1_555
C5 N1 1_555 1_555
C6 N2 1_555 1_555
C7 C6 1_555 1_555
H8 C7 1_555 1_555
C8 C7 1_555 1_555
H9 C8 1_555 1_555
C9 C8 1_555 1_555
H10 C9 1_555 1_555
C10 N2 1_555 1_555
H11 C10 1_555 1_555
C11 P1 1_555 1_555
C12 C11 1_555 1_555
H12 C12 1_555 1_555
C13 C12 1_555 1_555
H13 C13 1_555 1_555
C14 C13 1_555 1_555
C15 C14 1_555 1_555
H14 C15 1_555 1_555
C16 C11 1_555 1_555
H15 C16 1_555 1_555
C17 C14 1_555 1_555
Zn1A O5 1_555 1_555
O5A Zn1 1_555 1_555
C4 C5 1_555 1_555
C5 C6 1_555 1_555
C9 C10 1_555 1_555
C15 C16 1_555 1_555

#END
