
#######################################################################
#
#                 Cambridge Crystallographic Data Centre
#                                CCDC 
#
#######################################################################
#
# If this CIF has been generated from an entry in the Cambridge 
# Structural Database, then it will include bibliographic, chemical, 
# crystal, experimental, refinement or atomic coordinate data resulting 
# from the CCDC's data processing and validation procedures.
#
#######################################################################

data_CAVVEC
_symmetry_cell_setting           triclinic
_symmetry_space_group_name_H-M   'P -1'
_symmetry_Int_Tables_number      2
_space_group_name_Hall           '-P 1'
loop_
_symmetry_equiv_pos_site_id
_symmetry_equiv_pos_as_xyz
1 x,y,z
2 -x,-y,-z
_cell_length_a                   8.488(3)
_cell_length_b                   11.944(4)
_cell_length_c                   17.641(5)
_cell_angle_alpha                102.156(4)
_cell_angle_beta                 94.261(4)
_cell_angle_gamma                90.904(4)
_cell_volume                     1742.62
loop_
_atom_site_label
_atom_site_type_symbol
_atom_site_fract_x
_atom_site_fract_y
_atom_site_fract_z
Zn1 Zn 0.28376(4) 0.25369(3) 0.38869(2)
Zn2 Zn 0.80655(4) 0.01463(3) 0.44749(2)
P1 P 0.35516(10) 0.23080(8) 0.57194(5)
P2 P 0.62700(10) 0.17982(7) 0.35775(5)
P3 P 0.11792(10) 0.00543(7) 0.37852(5)
O1 O 0.2389(3) 0.1454(2) 0.58938(14)
O2 O 0.5201(3) 0.1758(3) 0.56351(15)
H1 H 0.5395 0.1628 0.5177
O3 O 0.3087(3) 0.2864(2) 0.50604(13)
O4 O 0.3896(6) 0.5789(4) 0.9283(2)
H2 H 0.4112 0.6329 0.9651
O5 O 0.5501(5) 0.6777(3) 0.87182(18)
O6 O 0.5064(3) 0.2701(2) 0.36354(14)
O7 O 0.7918(3) 0.2390(2) 0.35224(14)
H3 H 0.8628 0.1965 0.3607
O8 O 0.6366(3) 0.11697(19) 0.42415(12)
O9 O 0.5957(5) -0.1567(3) -0.00262(18)
H4 H 0.5766 -0.2113 -0.0392
O10 O 0.4387(6) -0.2601(3) 0.0542(2)
O11 O -0.0394(3) 0.0678(2) 0.38375(13)
O12 O 0.2526(3) 0.0855(2) 0.37189(14)
O13 O 0.1420(3) -0.0593(2) 0.44311(13)
O14 O -0.0581(5) -0.3648(3) 0.03263(19)
N1 N 0.1787(3) 0.4146(3) 0.39626(17)
N2 N 0.1701(4) 0.2475(3) 0.27200(18)
C1 C 0.1956(5) 0.4986(3) 0.4605(2)
H5 H 0.2538 0.4854 0.5044
C2 C 0.1292(5) 0.6042(4) 0.4634(3)
H6 H 0.1445 0.6616 0.5082
C3 C 0.0405(5) 0.6233(4) 0.3995(3)
H7 H -0.0057 0.6936 0.4005
C4 C 0.0209(5) 0.5374(4) 0.3341(3)
H8 H -0.0405 0.5485 0.2905
C5 C 0.0935(4) 0.4333(3) 0.3333(2)
C6 C 0.0866(4) 0.3379(4) 0.2637(2)
C7 C 0.0054(6) 0.3425(5) 0.1933(3)
H9 H -0.0544 0.4055 0.1882
C8 C 0.0151(7) 0.2519(5) 0.1311(3)
H10 H -0.0371 0.2540 0.0832
C9 C 0.1002(7) 0.1601(5) 0.1394(3)
H11 H 0.1072 0.0984 0.0978
C10 C 0.1766(5) 0.1601(4) 0.2113(2)
H12 H 0.2346 0.0969 0.2176
C11 C 0.4613(6) 0.5936(4) 0.8702(2)
C12 C 0.4348(5) 0.5050(3) 0.7978(2)
C13 C 0.4917(5) 0.5231(3) 0.7299(2)
H13 H 0.5465 0.5912 0.7299
C14 C 0.4677(5) 0.4409(3) 0.6620(2)
H14 H 0.5071 0.4540 0.6167
C15 C 0.3860(4) 0.3393(3) 0.66033(19)
C16 C 0.3249(4) 0.3214(3) 0.7287(2)
H15 H 0.2673 0.2544 0.7282
C17 C 0.3503(5) 0.4032(3) 0.7966(2)
H16 H 0.3109 0.3906 0.8420
C18 C 0.5951(4) 0.0761(3) 0.2676(2)
C19 C 0.6445(5) 0.1005(4) 0.1990(2)
H17 H 0.6923 0.1713 0.1997
C20 C 0.6227(6) 0.0199(4) 0.1301(2)
H18 H 0.6588 0.0360 0.0850
C21 C 0.5480(5) -0.0839(4) 0.1279(2)
C22 C 0.4962(5) -0.1088(3) 0.1958(2)
H19 H 0.4448 -0.1787 0.1943
C23 C 0.5212(4) -0.0298(3) 0.2655(2)
H20 H 0.4886 -0.0472 0.3109
C24 C 0.5244(6) -0.1725(4) 0.0554(2)
C25 C 0.0963(4) -0.1062(3) 0.29095(19)
C26 C -0.0094(5) -0.0967(3) 0.2284(2)
H21 H -0.0694 -0.0317 0.2313
C27 C -0.0259(5) -0.1831(3) 0.1622(2)
H22 H -0.0965 -0.1757 0.1207
C28 C 0.0620(5) -0.2806(3) 0.1574(2)
C29 C 0.1682(5) -0.2909(3) 0.2193(2)
H23 H 0.2285 -0.3558 0.2161
C30 C 0.1841(4) -0.2045(3) 0.2855(2)
H24 H 0.2543 -0.2123 0.3270
C31 C 0.0394(6) -0.3744(4) 0.0874(2)
O15 O 0.1217(5) -0.4633(3) 0.08739(19)
H25 H 0.0949 -0.5124 0.0484
Zn2A Zn 0.19345(4) -0.01463(3) 0.55251(2)
Zn2_2 Zn -0.19345(4) 0.01463(3) 0.44749(2)
O1A O 0.7611(3) -0.1454(2) 0.41062(14)
O11_2 O 0.9606(3) 0.0678(2) 0.38375(13)
O13A O 0.8580(3) 0.0593(2) 0.55689(13)
loop_
_geom_bond_atom_site_label_1
_geom_bond_atom_site_label_2
_geom_bond_site_symmetry_1
_geom_bond_site_symmetry_2
Zn1 O3 1_555 1_555
Zn2 O8 1_555 1_555
P1 O1 1_555 1_555
P2 O6 1_555 1_555
P3 O11 1_555 1_555
O1 Zn2A 1_555 1_555
O2 P1 1_555 1_555
H1 O2 1_555 1_555
O3 P1 1_555 1_555
O4 H2 1_555 1_555
O5 C11 1_555 1_555
O6 Zn1 1_555 1_555
O7 P2 1_555 1_555
H3 O7 1_555 1_555
O8 P2 1_555 1_555
O9 H4 1_555 1_555
O10 C24 1_555 1_555
O11 Zn2_2 1_555 1_555
O12 Zn1 1_555 1_555
O13 P3 1_555 1_555
O14 C31 1_555 1_555
N1 Zn1 1_555 1_555
N2 Zn1 1_555 1_555
C1 N1 1_555 1_555
H5 C1 1_555 1_555
C2 C1 1_555 1_555
H6 C2 1_555 1_555
C3 C2 1_555 1_555
H7 C3 1_555 1_555
C4 C3 1_555 1_555
H8 C4 1_555 1_555
C5 N1 1_555 1_555
C6 N2 1_555 1_555
C7 C6 1_555 1_555
H9 C7 1_555 1_555
C8 C7 1_555 1_555
H10 C8 1_555 1_555
C9 C8 1_555 1_555
H11 C9 1_555 1_555
C10 N2 1_555 1_555
H12 C10 1_555 1_555
C11 O4 1_555 1_555
C12 C11 1_555 1_555
C13 C12 1_555 1_555
H13 C13 1_555 1_555
C14 C13 1_555 1_555
H14 C14 1_555 1_555
C15 P1 1_555 1_555
C16 C15 1_555 1_555
H15 C16 1_555 1_555
C17 C12 1_555 1_555
H16 C17 1_555 1_555
C18 P2 1_555 1_555
C19 C18 1_555 1_555
H17 C19 1_555 1_555
C20 C19 1_555 1_555
H18 C20 1_555 1_555
C21 C20 1_555 1_555
C22 C21 1_555 1_555
H19 C22 1_555 1_555
C23 C18 1_555 1_555
H20 C23 1_555 1_555
C24 O9 1_555 1_555
C25 P3 1_555 1_555
C26 C25 1_555 1_555
H21 C26 1_555 1_555
C27 C26 1_555 1_555
H22 C27 1_555 1_555
C28 C27 1_555 1_555
C29 C28 1_555 1_555
H23 C29 1_555 1_555
C30 C25 1_555 1_555
H24 C30 1_555 1_555
C31 C28 1_555 1_555
O15 C31 1_555 1_555
H25 O15 1_555 1_555
Zn2A O13 1_555 1_555
O1A Zn2 1_555 1_555
O11_2 Zn2 1_555 1_555
O13A Zn2 1_555 1_555
P3 O12 1_555 1_555
C4 C5 1_555 1_555
C5 C6 1_555 1_555
C9 C10 1_555 1_555
C14 C15 1_555 1_555
C16 C17 1_555 1_555
C21 C24 1_555 1_555
C22 C23 1_555 1_555
C29 C30 1_555 1_555

#END
