
#######################################################################
#
#                 Cambridge Crystallographic Data Centre
#                                CCDC 
#
#######################################################################
#
# If this CIF has been generated from an entry in the Cambridge 
# Structural Database, then it will include bibliographic, chemical, 
# crystal, experimental, refinement or atomic coordinate data resulting 
# from the CCDC's data processing and validation procedures.
#
#######################################################################

data_CAVVIG
_symmetry_cell_setting           triclinic
_symmetry_space_group_name_H-M   'P -1'
_symmetry_Int_Tables_number      2
_space_group_name_Hall           '-P 1'
loop_
_symmetry_equiv_pos_site_id
_symmetry_equiv_pos_as_xyz
1 x,y,z
2 -x,-y,-z
_cell_length_a                   10.299(3)
_cell_length_b                   14.826(4)
_cell_length_c                   19.221(6)
_cell_angle_alpha                88.308(4)
_cell_angle_beta                 86.341(5)
_cell_angle_gamma                74.338(4)
_cell_volume                     2819.95
loop_
_atom_site_label
_atom_site_type_symbol
_atom_site_fract_x
_atom_site_fract_y
_atom_site_fract_z
Zn1 Zn -0.39958(7) 0.42265(5) 0.57046(3)
Zn2 Zn -0.17807(7) 0.75427(5) 0.51184(4)
Zn3 Zn 0.11170(7) 0.43895(4) 0.57020(3)
Zn4 Zn -0.31380(7) -0.07011(5) 0.93303(3)
Zn5 Zn -0.19512(7) 0.06447(5) 0.07185(3)
Zn6 Zn -0.18580(8) 0.25576(5) -0.01141(4)
P1 P -0.20143(15) 0.55524(10) 0.58410(8)
P2 P -0.31256(15) 0.44188(10) 0.41917(8)
P3 P -0.39708(16) 0.94639(11) 0.08765(8)
P4 P -0.10486(15) 0.05613(10) 0.91777(8)
O1 O -0.3326(4) 0.5303(3) 0.5858(2)
O2 O -0.1833(4) 0.6191(3) 0.5209(2)
O3 O -0.0802(4) 0.4705(3) 0.5852(2)
O4 O 0.0253(4) 0.7127(3) 0.5110(2)
O5 O -0.1965(5) 0.7837(3) 0.4089(2)
O6 O -0.1805(4) 0.6503(3) 0.3562(2)
O7 O -0.3186(4) 0.8855(3) 0.0286(2)
O8 O -0.5472(4) 0.9587(3) 0.0879(2)
O9 O -0.3650(4) 1.0404(3) 0.0895(2)
O10 O -0.1673(4) 0.4475(3) 0.4270(2)
O11 O -0.3540(4) 0.3811(3) 0.4755(2)
O12 O -0.4050(4) 0.5381(3) 0.4130(2)
O13 O -0.2237(5) 0.2953(3) 0.0871(2)
O14 O -0.1981(5) 0.1568(3) 0.1421(2)
O15 O 0.0222(4) 0.2243(3) -0.0066(2)
O16 O 0.0451(4) 0.0439(3) 0.9209(2)
O17 O -0.1831(4) 0.1213(2) 0.97701(19)
O18 O -0.1428(4) -0.0349(3) 0.9199(2)
O19 O -0.3502(5) 0.3297(3) 0.6443(2)
O20 O -0.1676(5) 0.2367(4) 0.5930(2)
O21 O -0.3098(5) 0.8376(3) 0.8634(2)
O22 O -0.1136(5) 0.7400(4) 0.8876(2)
N1 N -0.1928(6) 0.8485(4) 0.5929(3)
N2 N -0.3868(5) 0.8125(4) 0.5296(3)
N3 N -0.1886(7) 0.3467(4) -0.0947(3)
N4 N -0.3979(5) 0.3084(4) -0.0261(3)
C1 C -0.2054(6) 0.6233(4) 0.6602(3)
C2 C -0.3266(6) 0.6758(4) 0.6916(3)
H1 H -0.4071 0.6782 0.6713
C3 C -0.3301(6) 0.7247(4) 0.7524(3)
H2 H -0.4118 0.7609 0.7719
C4 C -0.2108(7) 0.7190(4) 0.7837(3)
C5 C -0.0923(6) 0.6682(5) 0.7535(3)
H3 H -0.0125 0.6642 0.7750
C6 C -0.0872(6) 0.6220(5) 0.6910(3)
H4 H -0.0042 0.5902 0.6700
C7 C -0.2120(7) 0.7700(5) 0.8508(3)
C8 C -0.3004(6) 0.3825(4) 0.3370(3)
C9 C -0.2901(7) 0.2891(4) 0.3332(3)
H5 H -0.2997 0.2552 0.3738
C10 C -0.2654(7) 0.2442(5) 0.2694(3)
H6 H -0.2582 0.1804 0.2677
C11 C -0.2515(6) 0.2933(4) 0.2088(3)
C12 C -0.2642(7) 0.3868(4) 0.2123(3)
H7 H -0.2542 0.4205 0.1717
C13 C -0.2923(7) 0.4333(4) 0.2763(3)
H8 H -0.3054 0.4977 0.2778
C14 C -0.2228(7) 0.2446(5) 0.1404(3)
C15 C -0.3425(6) 0.8853(4) 0.1680(3)
C16 C -0.3192(6) 0.9320(4) 0.2248(3)
H9 H -0.3312 0.9964 0.2214
C17 C -0.2785(6) 0.8863(4) 0.2863(3)
H10 H -0.2671 0.9203 0.3243
C18 C -0.2543(6) 0.7891(5) 0.2919(3)
C19 C -0.2761(7) 0.7399(5) 0.2349(3)
H11 H -0.2607 0.6752 0.2375
C20 C -0.3206(8) 0.7883(5) 0.1747(3)
H12 H -0.3367 0.7552 0.1373
C21 C -0.2054(6) 0.7374(5) 0.3573(3)
C22 C -0.1520(6) 0.1195(4) 0.8381(3)
C23 C -0.0483(7) 0.1172(5) 0.7860(3)
H13 H 0.0407 0.0853 0.7938
C24 C -0.0811(7) 0.1630(5) 0.7237(3)
H14 H -0.0134 0.1609 0.6888
C25 C -0.2142(6) 0.2127(4) 0.7116(3)
C26 C -0.3131(6) 0.2128(4) 0.7631(3)
H15 H -0.4020 0.2455 0.7560
C27 C -0.2822(6) 0.1650(4) 0.8254(3)
H16 H -0.3510 0.1639 0.8589
C28 C -0.2418(6) 0.2616(5) 0.6435(3)
C29 C -0.0876(9) 0.8529(6) 0.6292(4)
H17 H -0.0020 0.8149 0.6167
C30 C -0.1048(10) 0.9136(7) 0.6854(5)
H18 H -0.0301 0.9193 0.7079
C31 C -0.2250(12) 0.9618(6) 0.7062(5)
H19 H -0.2366 0.9983 0.7458
C32 C -0.3385(10) 0.9598(6) 0.6696(5)
H20 H -0.4251 0.9962 0.6822
C33 C -0.3113(8) 0.8988(5) 0.6127(4)
C34 C -0.4256(8) 0.8862(5) 0.5720(4)
C35 C -0.5529(9) 0.9406(6) 0.5772(5)
H21 H -0.5767 0.9928 0.6058
C36 C -0.6474(9) 0.9173(7) 0.5392(6)
H22 H -0.7359 0.9549 0.5422
C37 C -0.6171(8) 0.8435(6) 0.4986(5)
H23 H -0.6824 0.8273 0.4742
C38 C -0.4815(9) 0.7907(6) 0.4939(4)
H24 H -0.4565 0.7389 0.4651
C39 C -0.0779(9) 0.3497(6) -0.1353(4)
H25 H 0.0070 0.3186 -0.1204
C40 C -0.0869(12) 0.3976(7) -0.1986(5)
H26 H -0.0117 0.3940 -0.2290
C41 C -0.2198(13) 0.4532(8) -0.2145(6)
H27 H -0.2315 0.4949 -0.2522
C42 C -0.3224(10) 0.4442(6) -0.1755(6)
H28 H -0.4086 0.4734 -0.1895
C43 C -0.3104(7) 0.3943(5) -0.1149(4)
C44 C -0.4235(8) 0.3807(5) -0.0708(4)
C45 C -0.5599(9) 0.4407(6) -0.0728(6)
H29 H -0.5803 0.4959 -0.0990
C46 C -0.6543(9) 0.4120(8) -0.0347(7)
H30 H -0.7435 0.4462 -0.0393
C47 C -0.6335(9) 0.3391(7) 0.0096(6)
H31 H -0.7028 0.3234 0.0364
C48 C -0.5009(9) 0.2896(6) 0.0117(4)
H32 H -0.4809 0.2384 0.0422
Zn1A Zn -0.60042(7) 0.57735(5) 0.42954(3)
Zn3A Zn -0.11170(7) 0.56105(4) 0.42980(3)
Zn4_2 Zn -0.31380(7) 0.92989(5) -0.06697(3)
Zn4A Zn -0.68620(7) 1.07011(5) 0.06697(3)
Zn4_3 Zn -0.31380(7) 0.92989(5) 0.93303(3)
Zn5_2 Zn -0.19512(7) 1.06447(5) 0.07185(3)
Zn5A Zn 0.19512(7) -0.06447(5) 0.92815(3)
Zn5_3 Zn -0.19512(7) 0.06447(5) 1.07185(3)
Zn6_2 Zn -0.18580(8) 0.25576(5) 0.98859(4)
O2A O 0.1833(4) 0.3809(3) 0.4791(2)
O6A O 0.1805(4) 0.3497(3) 0.6438(2)
O7_2 O -0.3186(4) -0.1145(3) 1.0286(2)
O8A O -0.4528(4) 0.0413(3) 0.9121(2)
O9_2 O -0.3650(4) 0.0404(3) 0.0895(2)
O10A O 0.1673(4) 0.5525(3) 0.5730(2)
O12A O -0.5950(4) 0.4619(3) 0.5870(2)
O16A O -0.0451(4) -0.0439(3) 0.0791(2)
O17_2 O -0.1831(4) 0.1213(2) -0.02299(19)
O21_2 O -0.3098(5) -0.1624(3) 0.8634(2)
O23 O 0.9769(11) 0.4514(6) 0.0697(5)
O24 O 0.9833(10) 0.9369(6) 0.4449(5)
loop_
_geom_bond_atom_site_label_1
_geom_bond_atom_site_label_2
_geom_bond_site_symmetry_1
_geom_bond_site_symmetry_2
Zn1 O1 1_555 1_555
Zn2 O2 1_555 1_555
Zn3 O3 1_555 1_555
Zn4 O18 1_555 1_555
Zn5 O14 1_555 1_555
Zn6 O13 1_555 1_555
P1 O1 1_555 1_555
P2 O10 1_555 1_555
P3 O7 1_555 1_555
P4 O16 1_555 1_555
O2 P1 1_555 1_555
O3 P1 1_555 1_555
O4 Zn2 1_555 1_555
O5 Zn2 1_555 1_555
O6 C21 1_555 1_555
O7 Zn4_2 1_555 1_555
O8 P3 1_555 1_555
O9 P3 1_555 1_555
O10 Zn3A 1_555 1_555
O11 Zn1 1_555 1_555
O12 P2 1_555 1_555
O13 C14 1_555 1_555
O14 C14 1_555 1_555
O15 Zn6 1_555 1_555
O16 Zn5A 1_555 1_555
O17 P4 1_555 1_555
O18 P4 1_555 1_555
O19 Zn1 1_555 1_555
O20 C28 1_555 1_555
O21 C7 1_555 1_555
O22 C7 1_555 1_555
N1 Zn2 1_555 1_555
N2 Zn2 1_555 1_555
N3 Zn6 1_555 1_555
N4 Zn6 1_555 1_555
C1 P1 1_555 1_555
C2 C1 1_555 1_555
H1 C2 1_555 1_555
C3 C2 1_555 1_555
H2 C3 1_555 1_555
C4 C3 1_555 1_555
C5 C4 1_555 1_555
H3 C5 1_555 1_555
C6 C1 1_555 1_555
H4 C6 1_555 1_555
C7 C4 1_555 1_555
C8 P2 1_555 1_555
C9 C8 1_555 1_555
H5 C9 1_555 1_555
C10 C9 1_555 1_555
H6 C10 1_555 1_555
C11 C10 1_555 1_555
C12 C11 1_555 1_555
H7 C12 1_555 1_555
C13 C8 1_555 1_555
H8 C13 1_555 1_555
C14 C11 1_555 1_555
C15 P3 1_555 1_555
C16 C15 1_555 1_555
H9 C16 1_555 1_555
C17 C16 1_555 1_555
H10 C17 1_555 1_555
C18 C17 1_555 1_555
C19 C18 1_555 1_555
H11 C19 1_555 1_555
C20 C15 1_555 1_555
H12 C20 1_555 1_555
C21 O5 1_555 1_555
C22 P4 1_555 1_555
C23 C22 1_555 1_555
H13 C23 1_555 1_555
C24 C23 1_555 1_555
H14 C24 1_555 1_555
C25 C24 1_555 1_555
C26 C25 1_555 1_555
H15 C26 1_555 1_555
C27 C22 1_555 1_555
H16 C27 1_555 1_555
C28 O19 1_555 1_555
C29 N1 1_555 1_555
H17 C29 1_555 1_555
C30 C29 1_555 1_555
H18 C30 1_555 1_555
C31 C30 1_555 1_555
H19 C31 1_555 1_555
C32 C31 1_555 1_555
H20 C32 1_555 1_555
C33 N1 1_555 1_555
C34 N2 1_555 1_555
C35 C34 1_555 1_555
H21 C35 1_555 1_555
C36 C35 1_555 1_555
H22 C36 1_555 1_555
C37 C36 1_555 1_555
H23 C37 1_555 1_555
C38 N2 1_555 1_555
H24 C38 1_555 1_555
C39 N3 1_555 1_555
H25 C39 1_555 1_555
C40 C39 1_555 1_555
H26 C40 1_555 1_555
C41 C40 1_555 1_555
H27 C41 1_555 1_555
C42 C41 1_555 1_555
H28 C42 1_555 1_555
C43 N3 1_555 1_555
C44 N4 1_555 1_555
C45 C44 1_555 1_555
H29 C45 1_555 1_555
C46 C45 1_555 1_555
H30 C46 1_555 1_555
C47 C46 1_555 1_555
H31 C47 1_555 1_555
C48 N4 1_555 1_555
H32 C48 1_555 1_555
Zn1A O12 1_555 1_555
Zn3A O2 1_555 1_555
Zn4A O8 1_555 1_555
Zn4_3 O21 1_555 1_555
Zn5_2 O9 1_555 1_555
Zn5_3 O17 1_555 1_555
Zn6_2 O17 1_555 1_555
O2A Zn3 1_555 1_555
O6A Zn3 1_555 1_555
O7_2 Zn4 1_555 1_555
O8A Zn4 1_555 1_555
O9_2 Zn5 1_555 1_555
O10A Zn3 1_555 1_555
O12A Zn1 1_555 1_555
O16A Zn5 1_555 1_555
O17_2 Zn5 1_555 1_555
O21_2 Zn4 1_555 1_555
Zn6 O17_2 1_555 1_555
P2 O11 1_555 1_555
O6 Zn3A 1_555 1_555
C5 C6 1_555 1_555
C12 C13 1_555 1_555
C18 C21 1_555 1_555
C19 C20 1_555 1_555
C25 C28 1_555 1_555
C26 C27 1_555 1_555
C32 C33 1_555 1_555
C33 C34 1_555 1_555
C37 C38 1_555 1_555
C42 C43 1_555 1_555
C43 C44 1_555 1_555
C47 C48 1_555 1_555

#END
