
#######################################################################
#
#                 Cambridge Crystallographic Data Centre
#                                CCDC 
#
#######################################################################
#
# If this CIF has been generated from an entry in the Cambridge 
# Structural Database, then it will include bibliographic, chemical, 
# crystal, experimental, refinement or atomic coordinate data resulting 
# from the CCDC's data processing and validation procedures.
#
#######################################################################

data_CAVWIG
_symmetry_cell_setting           monoclinic
_symmetry_space_group_name_H-M   'I 2/a'
_symmetry_Int_Tables_number      15
_space_group_name_Hall           '-I 2ya'
loop_
_symmetry_equiv_pos_site_id
_symmetry_equiv_pos_as_xyz
1 x,y,z
2 1/2+x,1/2+y,1/2+z
3 1/2-x,y,-z
4 -x,1/2+y,1/2-z
5 -x,-y,-z
6 1/2-x,1/2-y,1/2-z
7 1/2+x,-y,z
8 x,1/2-y,1/2+z
_cell_length_a                   21.1694(16)
_cell_length_b                   10.5140(8)
_cell_length_c                   21.321(3)
_cell_angle_alpha                90
_cell_angle_beta                 104.4960(10)
_cell_angle_gamma                90
_cell_volume                     4594.45
loop_
_atom_site_label
_atom_site_type_symbol
_atom_site_fract_x
_atom_site_fract_y
_atom_site_fract_z
Re1 Re -0.038640(14) 0.04827(4) -0.036090(14)
O1 O -0.1225(2) 0.1498(5) -0.1082(2)
O2 O -0.1975(3) 0.2585(8) -0.0737(3)
N1 N -0.1076(3) -0.0342(7) 0.0056(3)
N2 N -0.0512(3) -0.1025(7) -0.0985(3)
N3 N -0.0258(3) -0.1248(7) 0.0828(3)
N4 N 0.0262(3) -0.2094(7) -0.0205(3)
C1 C -0.1779(4) -0.0324(11) -0.0264(5)
H1 H -0.2015 -0.0753 0.0004
H2 H -0.1926 0.0541 -0.0330
H3 H -0.1854 -0.0748 -0.0675
C2 C -0.0891(4) -0.1084(8) 0.0579(3)
C3 C -0.1373(4) -0.1680(12) 0.0898(5)
C4 C -0.1631(4) -0.1010(14) 0.1332(5)
H4 H -0.1538 -0.0151 0.1410
C5 C -0.2038(6) -0.166(2) 0.1653(7)
H5 H -0.2201 -0.1227 0.1959
C6 C -0.2194(10) -0.287(3) 0.1532(11)
H6 H -0.2460 -0.3268 0.1760
C7 C -0.1981(9) -0.354(2) 0.1090(9)
H7 H -0.2111 -0.4383 0.0998
C8 C -0.1543(5) -0.2932(14) 0.0759(6)
H8 H -0.1379 -0.3377 0.0457
C9 C -0.0909(4) -0.0967(8) -0.1671(3)
H9 H -0.0900 -0.1780 -0.1873
H10 H -0.1351 -0.0749 -0.1679
H11 H -0.0730 -0.0334 -0.1902
C10 C -0.0177(4) -0.2107(10) -0.0796(4)
C11 C -0.0283(5) -0.3236(11) -0.1217(5)
C12 C -0.0862(6) -0.3906(12) -0.1342(6)
H12 H -0.1179 -0.3678 -0.1130
C13 C -0.0982(11) -0.4900(17) -0.1772(9)
H13 H -0.1370 -0.5354 -0.1836
C14 C -0.0545(16) -0.522(2) -0.2100(9)
H14 H -0.0641 -0.5835 -0.2423
C15 C 0.0072(11) -0.4595(19) -0.1944(7)
H15 H 0.0398 -0.4863 -0.2136
C16 C 0.0191(7) -0.3587(12) -0.1508(5)
H16 H 0.0588 -0.3161 -0.1416
C17 C -0.0051(4) -0.1993(9) 0.1432(4)
H17 H -0.0429 -0.2270 0.1567
H18 H 0.0217 -0.1473 0.1765
H19 H 0.0194 -0.2722 0.1358
C18 C 0.0491(4) -0.3372(9) 0.0044(4)
H20 H 0.0384 -0.3978 -0.0303
H21 H 0.0282 -0.3612 0.0377
H22 H 0.0955 -0.3354 0.0219
C19 C -0.1763(4) 0.2108(10) -0.1163(4)
C20 C -0.2140(3) 0.2302(8) -0.1859(3)
C21 C -0.1904(4) 0.1946(9) -0.2376(3)
H23 H -0.1493 0.1577 -0.2299
C22 C -0.2741(3) 0.2884(8) -0.1992(3)
H24 H -0.2910 0.3165 -0.1654
C22E C -0.2259(3) 0.2116(8) -0.3008(3)
C20E C -0.2860(3) 0.2698(8) -0.3141(3)
C19E C -0.3237(4) 0.2892(10) -0.3837(4)
O1E O -0.3775(2) 0.3502(5) -0.3918(2)
O2E O -0.3025(3) 0.2415(8) -0.4263(3)
C21E C -0.3096(4) 0.3054(9) -0.2624(3)
H23E H -0.3507 0.3423 -0.2701
H24E H -0.2090 0.1835 -0.3346
N1D N 0.1076(3) 0.0342(7) -0.0056(3)
N3D N 0.0258(3) 0.1248(7) -0.0828(3)
C1D C 0.1779(4) 0.0324(11) 0.0264(5)
H1D H 0.2015 0.0753 -0.0004
H2D H 0.1926 -0.0541 0.0330
H3D H 0.1854 0.0748 0.0675
C2D C 0.0891(4) 0.1084(8) -0.0579(3)
C3D C 0.1373(4) 0.1680(12) -0.0898(5)
C4D C 0.1631(4) 0.1010(14) -0.1332(5)
H4D H 0.1538 0.0151 -0.1410
C5D C 0.2038(6) 0.166(2) -0.1653(7)
H5D H 0.2201 0.1227 -0.1959
C6D C 0.2194(10) 0.287(3) -0.1532(11)
H6D H 0.2460 0.3268 -0.1760
C7D C 0.1981(9) 0.354(2) -0.1090(9)
H7D H 0.2111 0.4383 -0.0998
C8D C 0.1543(5) 0.2932(14) -0.0759(6)
H8D H 0.1379 0.3377 -0.0457
C17D C 0.0051(4) 0.1993(9) -0.1432(4)
H17D H 0.0429 0.2270 -0.1567
H18D H -0.0217 0.1473 -0.1765
H19D H -0.0194 0.2722 -0.1358
N2D N 0.0512(3) 0.1025(7) 0.0985(3)
N4D N -0.0262(3) 0.2094(7) 0.0205(3)
C9D C 0.0909(4) 0.0967(8) 0.1671(3)
H9D H 0.0900 0.1780 0.1873
H10D H 0.1351 0.0749 0.1679
H11D H 0.0730 0.0334 0.1902
C10D C 0.0177(4) 0.2107(10) 0.0796(4)
C11D C 0.0283(5) 0.3236(11) 0.1217(5)
C12D C 0.0862(6) 0.3906(12) 0.1342(6)
H12D H 0.1179 0.3678 0.1130
C13D C 0.0982(11) 0.4900(17) 0.1772(9)
H13D H 0.1370 0.5354 0.1836
C14D C 0.0545(16) 0.522(2) 0.2100(9)
H14D H 0.0641 0.5835 0.2423
C15D C -0.0072(11) 0.4595(19) 0.1944(7)
H15D H -0.0398 0.4863 0.2136
C16D C -0.0191(7) 0.3587(12) 0.1508(5)
H16D H -0.0588 0.3161 0.1416
C18D C -0.0491(4) 0.3372(9) -0.0044(4)
H20D H -0.0384 0.3978 0.0303
H21D H -0.0282 0.3612 -0.0377
H22D H -0.0955 0.3354 -0.0219
Re1E Re -0.461360(14) 0.45173(4) -0.463910(14)
Re1D Re 0.038640(14) -0.04827(4) 0.036090(14)
O1D O 0.1225(2) -0.1498(5) 0.1082(2)
O3 O 0.1756(5) -0.2651(16) -0.0633(4)
loop_
_geom_bond_atom_site_label_1
_geom_bond_atom_site_label_2
_geom_bond_site_symmetry_1
_geom_bond_site_symmetry_2
Re1 O1 1_555 1_555
O1 C19 1_555 1_555
O2 C19 1_555 1_555
N1 Re1 1_555 1_555
N2 Re1 1_555 1_555
N3 C2 1_555 1_555
N4 C10 1_555 1_555
C1 N1 1_555 1_555
H1 C1 1_555 1_555
H2 C1 1_555 1_555
H3 C1 1_555 1_555
C2 N1 1_555 1_555
C3 C2 1_555 1_555
C4 C3 1_555 1_555
H4 C4 1_555 1_555
C5 C4 1_555 1_555
H5 C5 1_555 1_555
C6 C5 1_555 1_555
H6 C6 1_555 1_555
C7 C6 1_555 1_555
H7 C7 1_555 1_555
C8 C3 1_555 1_555
H8 C8 1_555 1_555
C9 N2 1_555 1_555
H9 C9 1_555 1_555
H10 C9 1_555 1_555
H11 C9 1_555 1_555
C10 N2 1_555 1_555
C11 C10 1_555 1_555
C12 C11 1_555 1_555
H12 C12 1_555 1_555
C13 C12 1_555 1_555
H13 C13 1_555 1_555
C14 C13 1_555 1_555
H14 C14 1_555 1_555
C15 C14 1_555 1_555
H15 C15 1_555 1_555
C16 C11 1_555 1_555
H16 C16 1_555 1_555
C17 N3 1_555 1_555
H17 C17 1_555 1_555
H18 C17 1_555 1_555
H19 C17 1_555 1_555
C18 N4 1_555 1_555
H20 C18 1_555 1_555
H21 C18 1_555 1_555
H22 C18 1_555 1_555
C19 C20 1_555 1_555
C20 C21 1_555 1_555
C21 H23 1_555 1_555
C22 C20 1_555 1_555
H24 C22 1_555 1_555
C22E C21 1_555 1_555
C20E C22E 1_555 1_555
C19E C20E 1_555 1_555
O1E C19E 1_555 1_555
O2E C19E 1_555 1_555
C21E C22 1_555 1_555
H23E C21E 1_555 1_555
H24E C22E 1_555 1_555
N1D C1D 1_555 1_555
N3D Re1 1_555 1_555
C1D H1D 1_555 1_555
H2D C1D 1_555 1_555
H3D C1D 1_555 1_555
C2D N1D 1_555 1_555
C3D C2D 1_555 1_555
C4D C3D 1_555 1_555
H4D C4D 1_555 1_555
C5D C4D 1_555 1_555
H5D C5D 1_555 1_555
C6D C5D 1_555 1_555
H6D C6D 1_555 1_555
C7D C6D 1_555 1_555
H7D C7D 1_555 1_555
C8D C3D 1_555 1_555
H8D C8D 1_555 1_555
C17D N3D 1_555 1_555
H17D C17D 1_555 1_555
H18D C17D 1_555 1_555
H19D C17D 1_555 1_555
N2D C9D 1_555 1_555
N4D Re1 1_555 1_555
C9D H9D 1_555 1_555
H10D C9D 1_555 1_555
H11D C9D 1_555 1_555
C10D N2D 1_555 1_555
C11D C10D 1_555 1_555
C12D C11D 1_555 1_555
H12D C12D 1_555 1_555
C13D C12D 1_555 1_555
H13D C13D 1_555 1_555
C14D C13D 1_555 1_555
H14D C14D 1_555 1_555
C15D C14D 1_555 1_555
H15D C15D 1_555 1_555
C16D C11D 1_555 1_555
H16D C16D 1_555 1_555
C18D N4D 1_555 1_555
H20D C18D 1_555 1_555
H21D C18D 1_555 1_555
H22D C18D 1_555 1_555
Re1E O1E 1_555 1_555
Re1D Re1 1_555 1_555
O1D Re1D 1_555 1_555
N3 Re1D 1_555 1_555
N4 Re1D 1_555 1_555
C7 C8 1_555 1_555
C15 C16 1_555 1_555
C20E C21E 1_555 1_555
N1D Re1D 1_555 1_555
N3D C2D 1_555 1_555
C7D C8D 1_555 1_555
N2D Re1D 1_555 1_555
N4D C10D 1_555 1_555
C15D C16D 1_555 1_555

#END
