
#######################################################################
#
#                 Cambridge Crystallographic Data Centre
#                                CCDC 
#
#######################################################################
#
# If this CIF has been generated from an entry in the Cambridge 
# Structural Database, then it will include bibliographic, chemical, 
# crystal, experimental, refinement or atomic coordinate data resulting 
# from the CCDC's data processing and validation procedures.
#
#######################################################################

data_CAVWAZ
_symmetry_cell_setting           triclinic
_symmetry_space_group_name_H-M   'P -1'
_symmetry_Int_Tables_number      2
_space_group_name_Hall           '-P 1'
loop_
_symmetry_equiv_pos_site_id
_symmetry_equiv_pos_as_xyz
1 x,y,z
2 -x,-y,-z
_cell_length_a                   12.469(3)
_cell_length_b                   13.905(3)
_cell_length_c                   18.135(4)
_cell_angle_alpha                88.61(3)
_cell_angle_beta                 70.12(3)
_cell_angle_gamma                73.73(3)
_cell_volume                     2829.68
loop_
_atom_site_label
_atom_site_type_symbol
_atom_site_fract_x
_atom_site_fract_y
_atom_site_fract_z
Mo1 Mo -0.51493(10) -0.39065(8) 0.05602(7)
Mo2 Mo -0.75435(10) -0.41827(8) 0.04116(7)
Mo5 Mo -0.63090(11) -0.41985(9) -0.14913(7)
Mo6 Mo -0.61197(10) -0.60373(8) 0.13197(7)
O2 O -0.6586(8) -0.4301(6) 0.1105(5)
O3 O -0.4643(8) -0.4326(7) -0.1958(6)
O4 O -0.4590(8) -0.4128(6) 0.1333(5)
O5 O -0.5554(9) -0.7292(7) 0.1190(6)
O6 O -0.8052(8) -0.2921(7) 0.0494(6)
O7 O -0.5575(8) -0.4275(6) -0.0407(5)
O8 O -0.3626(7) -0.4137(6) -0.0277(5)
O9 O -0.6870(10) -0.2936(7) -0.1429(7)
O10 O -0.7518(8) -0.4494(6) -0.0612(5)
O11 O -0.5685(9) -0.2637(6) 0.0617(6)
O12 O -0.7546(9) -0.5810(7) 0.1954(6)
O19 O -0.8728(9) -0.4574(8) 0.0965(7)
O21 O -0.6586(10) -0.4612(9) -0.2293(7)
Mo1A Mo -0.48507(10) -0.60935(8) -0.05602(7)
Mo2A Mo -0.24565(10) -0.58173(8) -0.04116(7)
Mo5A Mo -0.36910(11) -0.58015(9) 0.14913(7)
Mo6A Mo -0.38803(10) -0.39627(8) -0.13197(7)
O2A O -0.3414(8) -0.5699(6) -0.1105(5)
O3A O -0.5357(8) -0.5674(7) 0.1958(6)
O4A O -0.5410(8) -0.5872(6) -0.1333(5)
O5A O -0.4446(9) -0.2708(7) -0.1190(6)
O6A O -0.1948(8) -0.7079(7) -0.0494(6)
O7A O -0.4425(8) -0.5725(6) 0.0407(5)
O8A O -0.6374(7) -0.5863(6) 0.0277(5)
O9A O -0.3130(10) -0.7064(7) 0.1429(7)
O10A O -0.2482(8) -0.5506(6) 0.0612(5)
O11A O -0.4315(9) -0.7363(6) -0.0617(6)
O12A O -0.2454(9) -0.4190(7) -0.1954(6)
O19A O -0.1272(9) -0.5426(8) -0.0965(7)
O21A O -0.3414(10) -0.5388(9) 0.2293(7)
Mo3 Mo -0.77907(10) -0.91558(8) -0.49121(7)
Mo4 Mo -0.50303(10) -0.87188(8) -0.47200(7)
Mo7 Mo -0.71773(10) -1.00741(9) -0.33279(7)
Mo8 Mo -0.56265(12) -0.90862(10) -0.66413(8)
O1 O -0.5380(11) -0.8074(9) -0.7090(7)
O13 O -0.8214(9) -0.9008(7) -0.2802(6)
O14 O -0.6854(9) -0.8485(7) -0.5689(6)
O15 O -0.8839(9) -0.8164(7) -0.4294(6)
O16 O -0.8537(9) -0.9548(7) -0.5416(6)
O17 O -0.7764(8) -1.0157(6) -0.4155(6)
O18 O -0.6432(8) -0.8983(7) -0.4308(6)
O20 O -0.5998(8) -1.0434(7) -0.5624(5)
O22 O -0.4524(9) -0.8871(8) -0.5791(6)
O23 O -0.5871(9) -0.9954(8) -0.3034(6)
O24 O -0.7543(10) -1.1029(8) -0.2823(6)
O25 O -0.5221(10) -0.7517(7) -0.4413(7)
O26 O -0.6296(11) -0.9603(11) -0.7120(8)
Mo3A Mo -0.22093(10) -1.08442(8) -0.50879(7)
Mo4A Mo -0.49697(10) -1.12812(8) -0.52800(7)
Mo7A Mo -0.28227(10) -0.99259(9) -0.66721(7)
Mo8A Mo -0.43735(12) -1.09138(10) -0.33587(8)
O1A O -0.4620(11) -1.1926(9) -0.2910(7)
O13A O -0.1786(9) -1.0992(7) -0.7198(6)
O14A O -0.3146(9) -1.1515(7) -0.4311(6)
O15A O -0.1161(9) -1.1836(7) -0.5706(6)
O16A O -0.1463(9) -1.0452(7) -0.4584(6)
O17A O -0.2236(8) -0.9843(6) -0.5845(6)
O18A O -0.3568(8) -1.1017(7) -0.5692(6)
O20A O -0.4002(8) -0.9566(7) -0.4376(5)
O22A O -0.5476(9) -1.1129(8) -0.4209(6)
O23A O -0.4129(9) -1.0046(8) -0.6966(6)
O24A O -0.2457(10) -0.8971(8) -0.7177(6)
O25A O -0.4779(10) -1.2483(7) -0.5587(7)
O26A O -0.3704(11) -1.0397(11) -0.2880(8)
Cu1 Cu -0.46432(19) -0.28521(17) -0.77490(12)
Cu2 Cu -0.37756(18) 0.04957(16) -1.15770(15)
Cu3 Cu -0.62981(17) -0.54376(15) -0.34318(14)
Cu4 Cu 0.01517(19) 0.23375(14) -1.27841(14)
C1 C -0.1934(12) 0.1572(10) -1.2079(9)
H1 H -0.2421 0.2174 -1.1761
C2 C -0.0474(12) 0.0517(9) -1.2911(9)
H2 H 0.0269 0.0219 -1.3314
C3 C -0.1209(12) -0.1003(9) -1.2700(9)
H3 H -0.0523 -0.1310 -1.3181
H4 H -0.1940 -0.1061 -1.2775
C4 C -0.1043(12) -0.1578(9) -1.1984(8)
C5 C -0.1820(13) -0.2119(10) -1.1598(9)
H5 H -0.2481 -0.2108 -1.1749
C6 C -0.0140(13) -0.1567(10) -1.1711(9)
H6 H 0.0377 -0.1172 -1.1951
C7 C -0.1624(12) -0.2676(9) -1.0989(7)
H7 H -0.2130 -0.3078 -1.0747
C8 C 0.0024(13) -0.2110(9) -1.1109(8)
H8 H 0.0672 -0.2106 -1.0947
C9 C -0.0717(12) -0.2663(10) -1.0728(8)
C10 C -0.0511(14) -0.3290(13) -1.0070(10)
H9 H -0.0408 -0.4001 -1.0213
H10 H 0.0233 -0.3250 -1.0006
C11 C -0.2634(17) -0.2032(11) -0.8342(9)
H11 H -0.2967 -0.1509 -0.7931
C12 C -0.2384(13) -0.3320(10) -0.9024(9)
H12 H -0.2483 -0.3901 -0.9226
C13 C -0.4386(14) -0.4468(11) -0.3761(10)
H13 H -0.4755 -0.4015 -0.3303
C14 C -0.4020(12) -0.5596(10) -0.4664(9)
H14 H -0.4113 -0.6112 -0.4950
C15 C -0.2524(15) -0.3930(12) -0.4395(13)
H15 H -0.2708 -0.3602 -0.3870
H16 H -0.2676 -0.3393 -0.4747
C16 C -0.1222(14) -0.4510(11) -0.4708(9)
C17 C -0.0522(14) -0.4284(10) -0.5400(9)
H17 H -0.0865 -0.3785 -0.5687
C18 C -0.0702(15) -0.5227(11) -0.4299(10)
H18 H -0.1177 -0.5391 -0.3808
C19 C -0.5761(13) -0.0374(12) -1.1072(10)
H19 H -0.5454 -0.0857 -1.1509
C20 C -0.6048(14) 0.0840(11) -1.0274(10)
H20 H -0.5954 0.1406 -1.0046
C21 C -0.7506(15) -0.0961(11) -1.0265(12)
H21 H -0.7433 -0.1290 -0.9787
H22 H -0.7211 -0.1496 -1.0697
C22 C -0.8798(14) -0.0451(9) -1.0120(9)
C23 C -0.9151(14) 0.0090(11) -1.0687(9)
H23 H -0.8563 0.0154 -1.1167
C24 C -0.9649(13) -0.0545(10) -0.9428(9)
H24 H -0.9423 -0.0915 -0.9030
C25 C -0.9659(13) -0.5645(10) -0.2568(8)
H25 H -1.0489 -0.5355 -0.2302
C26 C -0.7995(13) -0.6656(9) -0.3181(9)
H26 H -0.7401 -0.7248 -0.3456
C27 C -0.9043(14) -0.4084(10) -0.2560(8)
H27 H -0.8435 -0.4016 -0.2344
H28 H -0.9837 -0.3800 -0.2152
C28 C -0.8958(12) -0.3491(8) -0.3279(7)
C29 C -0.9775(12) -0.3397(10) -0.3648(8)
H29 H -1.0399 -0.3702 -0.3450
C30 C -0.8094(12) -0.2992(9) -0.3558(8)
H30 H -0.7537 -0.3045 -0.3298
C31 C -0.9687(14) -0.2838(9) -0.4333(9)
H31 H -1.0239 -0.2795 -0.4595
C32 C -0.8015(13) -0.2432(10) -0.4185(10)
H32 H -0.7430 -0.2082 -0.4345
C33 C -0.8817(13) -0.2369(10) -0.4610(9)
C34 C -0.8749(15) -0.1801(11) -0.5334(9)
H33 H -0.9501 -0.1694 -0.5439
H34 H -0.8665 -0.1133 -0.5237
C35 C -0.6793(14) -0.2086(11) -0.6411(10)
H35 H -0.6579 -0.1519 -0.6292
C36 C -0.6827(14) -0.3405(10) -0.6957(8)
H36 H -0.6599 -0.3971 -0.7318
N1 N -0.0853(11) 0.1468(8) -1.2584(7)
N2 N -0.2272(10) 0.0735(8) -1.2064(7)
N3 N -0.1302(9) 0.0067(8) -1.2582(6)
N4 N -0.1493(11) -0.2962(9) -0.9323(7)
N5 N -0.1642(14) -0.2125(11) -0.8912(9)
N6 N -0.3142(11) -0.2735(9) -0.8384(8)
N7 N -0.4817(11) -0.5149(9) -0.3963(8)
N8 N -0.3100(12) -0.5237(10) -0.4907(9)
N9 N -0.3331(11) -0.4538(8) -0.4325(7)
N10 N -0.5255(11) 0.0338(9) -1.0978(8)
N11 N -0.6938(12) 0.0474(10) -0.9945(8)
N12 N -0.6735(11) -0.0295(8) -1.0470(8)
N13 N -0.9154(10) -0.6613(8) -0.2816(7)
N14 N -0.7769(9) -0.5791(8) -0.3118(7)
N15 N -0.8865(10) -0.5139(8) -0.2738(6)
N16 N -0.6146(11) -0.2766(9) -0.7011(7)
N17 N -0.7802(13) -0.3157(9) -0.6370(8)
N18 N -0.7786(11) -0.2313(8) -0.6001(7)
Cu1_2 Cu -1.46432(19) -1.28521(17) 0.22510(12)
Cu1_3 Cu 0.53568(19) 0.71479(17) -1.77490(12)
Cu2_2 Cu -1.37756(18) -0.95043(16) -0.15770(15)
Cu2A Cu -1.62244(18) -0.04957(16) -0.84230(15)
Cu3_2 Cu 0.37019(17) 0.45624(15) -1.34318(14)
Cu3A Cu 0.62981(17) -0.45624(15) -0.65682(14)
Cu4_2 Cu -0.98483(19) -0.76625(14) -0.27841(14)
C1_2 C -1.1934(12) -0.8428(10) -0.2079(9)
H1_2 H -1.2421 -0.7826 -0.1761
C2_2 C -1.0474(12) -0.9483(9) -0.2911(9)
H2_2 H -0.9731 -0.9781 -0.3314
C3_2 C -1.1209(12) -1.1003(9) -0.2700(9)
H3_2 H -1.0523 -1.1310 -0.3181
H4_2 H -1.1940 -1.1061 -0.2775
C4_2 C -1.1043(12) -1.1578(9) -0.1984(8)
C5_2 C -1.1820(13) -1.2119(10) -0.1598(9)
H5_2 H -1.2481 -1.2108 -0.1749
C6_2 C -1.0140(13) -1.1567(10) -0.1711(9)
H6_2 H -0.9623 -1.1172 -0.1951
C7_2 C -1.1624(12) -1.2676(9) -0.0989(7)
H7_2 H -1.2130 -1.3078 -0.0747
C8_2 C -0.9976(13) -1.2110(9) -0.1109(8)
H8_2 H -0.9328 -1.2106 -0.0947
C9_2 C -1.0717(12) -1.2663(10) -0.0728(8)
C10_2 C -1.0511(14) -1.3290(13) -0.0070(10)
H9_2 H -1.0408 -1.4001 -0.0213
H10_2 H -0.9767 -1.3250 -0.0006
C11_2 C -1.2634(17) -1.2032(11) 0.1658(9)
H11_2 H -1.2967 -1.1509 0.2069
C12_2 C -1.2384(13) -1.3320(10) 0.0976(9)
H12_2 H -1.2483 -1.3901 0.0774
C13A C 0.4386(14) -0.5532(11) -0.6239(10)
H13A H 0.4755 -0.5985 -0.6697
C14A C 0.4020(12) -0.4404(10) -0.5336(9)
H14A H 0.4113 -0.3888 -0.5050
C15A C 0.2524(15) -0.6070(12) -0.5605(13)
H15A H 0.2708 -0.6398 -0.6130
H16A H 0.2676 -0.6607 -0.5253
C16A C 0.1222(14) -0.5490(11) -0.5292(9)
C17A C 0.0522(14) -0.5716(10) -0.4600(9)
H17A H 0.0865 -0.6215 -0.4313
C18A C 0.0702(15) -0.4773(11) -0.5701(10)
H18A H 0.1177 -0.4609 -0.6192
C19A C -1.4239(13) 0.0374(12) -0.8928(10)
H19A H -1.4546 0.0857 -0.8491
C20A C -1.3952(14) -0.0840(11) -0.9726(10)
H20A H -1.4046 -0.1406 -0.9954
C21A C -1.2494(15) 0.0961(11) -0.9735(12)
H21A H -1.2567 0.1290 -1.0213
H22A H -1.2789 0.1496 -0.9303
C22A C -1.1202(14) 0.0451(9) -0.9880(9)
C23A C -1.0849(14) -0.0090(11) -0.9313(9)
H23A H -1.1437 -0.0154 -0.8833
C24A C -1.0351(13) 0.0545(10) -1.0572(9)
H24A H -1.0577 0.0915 -1.0970
C25_2 C 0.0341(13) 0.4355(10) -1.2568(8)
H25_2 H -0.0489 0.4645 -1.2302
C26_2 C 0.2005(13) 0.3344(9) -1.3181(9)
H26_2 H 0.2599 0.2752 -1.3456
C27_2 C 0.0957(14) 0.5916(10) -1.2560(8)
H27_2 H 0.1565 0.5984 -1.2344
H28_2 H 0.0163 0.6200 -1.2152
C28_2 C 0.1042(12) 0.6509(8) -1.3279(7)
C29_2 C 0.0225(12) 0.6603(10) -1.3648(8)
H29_2 H -0.0399 0.6298 -1.3450
C30_2 C 0.1906(12) 0.7008(9) -1.3558(8)
H30_2 H 0.2463 0.6955 -1.3298
C31_2 C 0.0313(14) 0.7162(9) -1.4333(9)
H31_2 H -0.0239 0.7205 -1.4595
C32_2 C 0.1985(13) 0.7568(10) -1.4185(10)
H32_2 H 0.2570 0.7918 -1.4345
C33_2 C 0.1183(13) 0.7631(10) -1.4610(9)
C34_2 C 0.1251(15) 0.8199(11) -1.5334(9)
H33_2 H 0.0499 0.8306 -1.5439
H34_2 H 0.1335 0.8867 -1.5237
C35_2 C 0.3207(14) 0.7914(11) -1.6411(10)
H35_2 H 0.3421 0.8481 -1.6292
C36_2 C 0.3173(14) 0.6595(10) -1.6957(8)
H36_2 H 0.3401 0.6029 -1.7318
N1_2 N -1.0853(11) -0.8532(8) -0.2584(7)
N2_2 N -1.2272(10) -0.9265(8) -0.2064(7)
N3_2 N -1.1302(9) -0.9933(8) -0.2582(6)
N4_2 N -1.1493(11) -1.2962(9) 0.0677(7)
N5_2 N -1.1642(14) -1.2125(11) 0.1088(9)
N6_2 N -1.3142(11) -1.2735(9) 0.1616(8)
N7A N 0.4817(11) -0.4851(9) -0.6037(8)
N7_2 N 0.5183(11) 0.4851(9) -1.3963(8)
N8A N 0.3100(12) -0.4763(10) -0.5093(9)
N9A N 0.3331(11) -0.5462(8) -0.5675(7)
N10A N -1.4745(11) -0.0338(9) -0.9022(8)
N10_2 N -1.5255(11) -0.9662(9) -0.0978(8)
N11A N -1.3062(12) -0.0474(10) -1.0055(8)
N12A N -1.3265(11) 0.0295(8) -0.9530(8)
N13_2 N 0.0846(10) 0.3387(8) -1.2816(7)
N14_2 N 0.2231(9) 0.4209(8) -1.3118(7)
N15_2 N 0.1135(10) 0.4861(8) -1.2738(6)
N16_2 N 0.3854(11) 0.7234(9) -1.7011(7)
N16_3 N -1.6146(11) -1.2766(9) 0.2989(7)
N17_2 N 0.2198(13) 0.6843(9) -1.6370(8)
N18_2 N 0.2214(11) 0.7687(8) -1.6001(7)
loop_
_geom_bond_atom_site_label_1
_geom_bond_atom_site_label_2
_geom_bond_site_symmetry_1
_geom_bond_site_symmetry_2
Mo1 O2 1_555 1_555
Mo2 O2 1_555 1_555
Mo3 O14 1_555 1_555
Mo4 O18 1_555 1_555
Mo5 O3 1_555 1_555
Mo6 O2 1_555 1_555
Mo7 O13 1_555 1_555
Mo8 O1 1_555 1_555
Cu1 N6 1_555 1_555
Cu2 N2 1_555 1_555
Cu3 N7 1_555 1_555
Cu4 N1 1_555 1_555
O3 Mo6A 1_555 1_555
O4 Mo1 1_555 1_555
O5 Mo6 1_555 1_555
O6 Mo2 1_555 1_555
O7 Mo1 1_555 1_555
O8 Mo1 1_555 1_555
O9 Mo5 1_555 1_555
O10 Mo2 1_555 1_555
O11 Mo1 1_555 1_555
O12 Mo6 1_555 1_555
O14 Mo8 1_555 1_555
O15 Mo3 1_555 1_555
O16 Mo3 1_555 1_555
O17 Mo3 1_555 1_555
O18 Mo3 1_555 1_555
O19 Mo2 1_555 1_555
O20 Mo3 1_555 1_555
O21 Mo5 1_555 1_555
O22 Mo4 1_555 1_555
O23 Mo7 1_555 1_555
O24 Mo7 1_555 1_555
O25 Mo4 1_555 1_555
O26 Mo8 1_555 1_555
C1 H1 1_555 1_555
C2 H2 1_555 1_555
C3 H3 1_555 1_555
H4 C3 1_555 1_555
C4 C3 1_555 1_555
C5 C4 1_555 1_555
H5 C5 1_555 1_555
C6 C4 1_555 1_555
H6 C6 1_555 1_555
C7 C5 1_555 1_555
H7 C7 1_555 1_555
C8 C6 1_555 1_555
H8 C8 1_555 1_555
C9 C7 1_555 1_555
C10 C9 1_555 1_555
H9 C10 1_555 1_555
H10 C10 1_555 1_555
C11 H11 1_555 1_555
C12 H12 1_555 1_555
C13 H13 1_555 1_555
C14 H14 1_555 1_555
C15 H15 1_555 1_555
H16 C15 1_555 1_555
C16 C15 1_555 1_555
C17 C16 1_555 1_555
H17 C17 1_555 1_555
C18 C16 1_555 1_555
H18 C18 1_555 1_555
C19 H19 1_555 1_555
C20 H20 1_555 1_555
C21 H21 1_555 1_555
H22 C21 1_555 1_555
C22 C21 1_555 1_555
C23 C22 1_555 1_555
H23 C23 1_555 1_555
C24 C22 1_555 1_555
H24 C24 1_555 1_555
C25 H25 1_555 1_555
C26 H26 1_555 1_555
C27 H27 1_555 1_555
H28 C27 1_555 1_555
C28 C27 1_555 1_555
C29 C28 1_555 1_555
H29 C29 1_555 1_555
C30 C28 1_555 1_555
H30 C30 1_555 1_555
C31 C29 1_555 1_555
H31 C31 1_555 1_555
C32 C30 1_555 1_555
H32 C32 1_555 1_555
C33 C31 1_555 1_555
C34 C33 1_555 1_555
H33 C34 1_555 1_555
H34 C34 1_555 1_555
C35 H35 1_555 1_555
C36 H36 1_555 1_555
N1 C1 1_555 1_555
N2 C1 1_555 1_555
N3 C2 1_555 1_555
N4 C10 1_555 1_555
N5 C11 1_555 1_555
N6 C11 1_555 1_555
N7 C13 1_555 1_555
N8 C14 1_555 1_555
N9 C13 1_555 1_555
N10 Cu2 1_555 1_555
N11 C20 1_555 1_555
N12 C19 1_555 1_555
N13 C25 1_555 1_555
N14 Cu3 1_555 1_555
N15 C25 1_555 1_555
N16 Cu1 1_555 1_555
N17 C36 1_555 1_555
N18 C34 1_555 1_555
Mo1A O7 1_555 1_555
Mo2A O8 1_555 1_555
Mo3A O14A 1_555 1_555
Mo4A O20 1_555 1_555
Mo5A O4 1_555 1_555
Mo6A O7 1_555 1_555
Mo7A O22 1_555 1_555
Mo8A O23 1_555 1_555
Cu1_2 N6_2 1_555 1_555
Cu1_3 N16_2 1_555 1_555
Cu2_2 N2_2 1_555 1_555
Cu2A N10A 1_555 1_555
Cu3_2 N7_2 1_555 1_555
Cu3A N7A 1_555 1_555
Cu4_2 N13 1_555 1_555
O1A Mo8A 1_555 1_555
O2A Mo1A 1_555 1_555
O3A Mo6 1_555 1_555
O4A Mo5 1_555 1_555
O5A Mo6A 1_555 1_555
O6A Mo2A 1_555 1_555
O7A Mo1 1_555 1_555
O8A Mo2 1_555 1_555
O9A Mo5A 1_555 1_555
O10A Mo2A 1_555 1_555
O11A Mo1A 1_555 1_555
O12A Mo6A 1_555 1_555
O13A Mo7A 1_555 1_555
O14A Mo8A 1_555 1_555
O15A Mo3A 1_555 1_555
O16A Mo3A 1_555 1_555
O17A Mo3A 1_555 1_555
O18A Mo3A 1_555 1_555
O19A Mo2A 1_555 1_555
O20A Mo4 1_555 1_555
O21A Mo5A 1_555 1_555
O22A Mo7 1_555 1_555
O23A Mo8 1_555 1_555
O24A Mo7A 1_555 1_555
O25A Mo4A 1_555 1_555
O26A Mo8A 1_555 1_555
C1_2 H1_2 1_555 1_555
C2_2 H2_2 1_555 1_555
C3_2 H3_2 1_555 1_555
H4_2 C3_2 1_555 1_555
C4_2 C3_2 1_555 1_555
C5_2 C4_2 1_555 1_555
H5_2 C5_2 1_555 1_555
C6_2 C4_2 1_555 1_555
H6_2 C6_2 1_555 1_555
C7_2 C5_2 1_555 1_555
H7_2 C7_2 1_555 1_555
C8_2 C6_2 1_555 1_555
H8_2 C8_2 1_555 1_555
C9_2 C7_2 1_555 1_555
C10_2 C9_2 1_555 1_555
H9_2 C10_2 1_555 1_555
H10_2 C10_2 1_555 1_555
C11_2 H11_2 1_555 1_555
C12_2 H12_2 1_555 1_555
C13A H13A 1_555 1_555
C14A H14A 1_555 1_555
C15A H15A 1_555 1_555
H16A C15A 1_555 1_555
C16A C15A 1_555 1_555
C17A C18 1_555 1_555
H17A C17A 1_555 1_555
C18A C17 1_555 1_555
H18A C18A 1_555 1_555
C19A H19A 1_555 1_555
C20A H20A 1_555 1_555
C21A H21A 1_555 1_555
H22A C21A 1_555 1_555
C22A C21A 1_555 1_555
C23A C24 1_555 1_555
H23A C23A 1_555 1_555
C24A C23 1_555 1_555
H24A C24A 1_555 1_555
C25_2 H25_2 1_555 1_555
C26_2 H26_2 1_555 1_555
C27_2 H27_2 1_555 1_555
H28_2 C27_2 1_555 1_555
C28_2 C27_2 1_555 1_555
C29_2 C28_2 1_555 1_555
H29_2 C29_2 1_555 1_555
C30_2 C28_2 1_555 1_555
H30_2 C30_2 1_555 1_555
C31_2 C29_2 1_555 1_555
H31_2 C31_2 1_555 1_555
C32_2 C30_2 1_555 1_555
H32_2 C32_2 1_555 1_555
C33_2 C31_2 1_555 1_555
C34_2 C33_2 1_555 1_555
H33_2 C34_2 1_555 1_555
H34_2 C34_2 1_555 1_555
C35_2 H35_2 1_555 1_555
C36_2 H36_2 1_555 1_555
N1_2 Cu4_2 1_555 1_555
N2_2 C1_2 1_555 1_555
N3_2 C2_2 1_555 1_555
N4_2 C10_2 1_555 1_555
N5_2 C11_2 1_555 1_555
N6_2 C11_2 1_555 1_555
N7A C13A 1_555 1_555
N8A C14A 1_555 1_555
N9A C13A 1_555 1_555
N10A C19A 1_555 1_555
N10_2 Cu2_2 1_555 1_555
N11A C20A 1_555 1_555
N12A C19A 1_555 1_555
N13_2 Cu4 1_555 1_555
N14_2 Cu3_2 1_555 1_555
N15_2 C25_2 1_555 1_555
N16_2 C35_2 1_555 1_555
N16_3 Cu1_2 1_555 1_555
N17_2 C36_2 1_555 1_555
N18_2 C34_2 1_555 1_555
Mo2 O7 1_555 1_555
Mo5 O7 1_555 1_555
Mo5 O10 1_555 1_555
Mo6 O7A 1_555 1_555
Mo6 O8A 1_555 1_555
Mo7 O17 1_555 1_555
Mo7 O18 1_555 1_555
Mo8 O22 1_555 1_555
O8 Mo6A 1_555 1_555
C2 N1 1_555 1_555
C3 N3 1_555 1_555
C8 C9 1_555 1_555
C12 N4 1_555 1_555
C12 N6 1_555 1_555
C14 N7 1_555 1_555
C15 N9 1_555 1_555
C19 N10 1_555 1_555
C20 N10 1_555 1_555
C21 N12 1_555 1_555
C26 N13 1_555 1_555
C26 N14 1_555 1_555
C27 N15 1_555 1_555
C32 C33 1_555 1_555
C35 N16 1_555 1_555
C35 N18 1_555 1_555
C36 N16 1_555 1_555
N2 N3 1_555 1_555
N4 N5 1_555 1_555
N8 N9 1_555 1_555
N11 N12 1_555 1_555
N14 N15 1_555 1_555
N17 N18 1_555 1_555
Mo1A O4A 1_555 1_555
Mo1A O7A 1_555 1_555
Mo1A O8A 1_555 1_555
Mo2A O2A 1_555 1_555
Mo2A O7A 1_555 1_555
Mo3A O20A 1_555 1_555
Mo4A O18A 1_555 1_555
Mo4A O22A 1_555 1_555
Mo5A O3A 1_555 1_555
Mo5A O7A 1_555 1_555
Mo5A O10A 1_555 1_555
Mo6A O2A 1_555 1_555
Mo7A O17A 1_555 1_555
Mo7A O18A 1_555 1_555
Mo7A O23A 1_555 1_555
Mo8A O22A 1_555 1_555
C1_2 N1_2 1_555 1_555
C2_2 N1_2 1_555 1_555
C3_2 N3_2 1_555 1_555
C8_2 C9_2 1_555 1_555
C12_2 N4_2 1_555 1_555
C12_2 N6_2 1_555 1_555
C14A N7A 1_555 1_555
C15A N9A 1_555 1_555
C16A C17A 1_555 1_555
C16A C18A 1_555 1_555
C20A N10A 1_555 1_555
C21A N12A 1_555 1_555
C22A C23A 1_555 1_555
C22A C24A 1_555 1_555
C25_2 N13_2 1_555 1_555
C26_2 N13_2 1_555 1_555
C26_2 N14_2 1_555 1_555
C27_2 N15_2 1_555 1_555
C32_2 C33_2 1_555 1_555
C35_2 N18_2 1_555 1_555
C36_2 N16_2 1_555 1_555
N2_2 N3_2 1_555 1_555
N4_2 N5_2 1_555 1_555
N8A N9A 1_555 1_555
N11A N12A 1_555 1_555
N14_2 N15_2 1_555 1_555
N17_2 N18_2 1_555 1_555

#END
