
#######################################################################
#
#                 Cambridge Crystallographic Data Centre
#                                CCDC 
#
#######################################################################
#
# If this CIF has been generated from an entry in the Cambridge 
# Structural Database, then it will include bibliographic, chemical, 
# crystal, experimental, refinement or atomic coordinate data resulting 
# from the CCDC's data processing and validation procedures.
#
#######################################################################

data_CAVWED
_symmetry_cell_setting           triclinic
_symmetry_space_group_name_H-M   'P -1'
_symmetry_Int_Tables_number      2
_space_group_name_Hall           '-P 1'
loop_
_symmetry_equiv_pos_site_id
_symmetry_equiv_pos_as_xyz
1 x,y,z
2 -x,-y,-z
_cell_length_a                   10.357(2)
_cell_length_b                   12.884(3)
_cell_length_c                   15.307(3)
_cell_angle_alpha                112.97(3)
_cell_angle_beta                 98.94(3)
_cell_angle_gamma                101.66(3)
_cell_volume                     1778.55
loop_
_atom_site_label
_atom_site_type_symbol
_atom_site_fract_x
_atom_site_fract_y
_atom_site_fract_z
Cu2 Cu 0.15366(16) 0.55815(15) -0.50667(11)
N1 N 0.2574(9) 0.6175(8) -0.3759(7)
N2 N 0.3870(10) 0.7391(8) -0.2320(7)
N3 N 0.3989(10) 0.6312(8) -0.2437(7)
N4 N 0.0596(10) 0.4899(9) -0.6400(7)
N5 N -0.0594(11) 0.4550(11) -0.7821(8)
N6 N -0.0253(16) 0.3567(10) -0.7964(8)
C1 C 0.3039(12) 0.7297(10) -0.3102(8)
H1 H 0.2805 0.7933 -0.3187
C2 C 0.3179(11) 0.5623(10) -0.3307(8)
H2 H 0.3027 0.4794 -0.3600
C3 C 0.4652(12) 0.8457(10) -0.1432(8)
H3 H 0.4597 0.9157 -0.1541
H4 H 0.5623 0.8471 -0.1299
C4 C 0.4137(12) 0.8523(9) -0.0556(8)
C5 C 0.3002(12) 0.8893(11) -0.0402(9)
H5 H 0.2496 0.9076 -0.0868
C6 C 0.4853(13) 0.8250(10) 0.0135(9)
H6 H 0.5638 0.7997 0.0028
C7 C 0.4448(14) 0.8339(11) 0.0960(9)
H7 H 0.4937 0.8135 0.1417
C8 C 0.2603(13) 0.8997(12) 0.0465(12)
H8 H 0.1824 0.9256 0.0586
C9 C 0.3330(14) 0.8726(11) 0.1128(9)
C10 C 0.2925(19) 0.8907(13) 0.2078(12)
H9 H 0.1933 0.8534 0.1927
H10 H 0.3414 0.8521 0.2410
C11 C -0.0106(13) 0.5342(12) -0.6887(8)
H11 H -0.0240 0.6100 -0.6616
C12 C 0.0468(17) 0.3806(12) -0.7088(10)
H12 H 0.0862 0.3265 -0.6950
C13 C -0.1476(13) 0.4648(16) -0.8624(11)
H13 H -0.1852 0.5318 -0.8343
H14 H -0.2251 0.3921 -0.8983
C14 C -0.0697(13) 0.4830(13) -0.9331(10)
C15 C -0.0416(14) 0.3894(13) -1.0035(10)
H15 H -0.0696 0.3131 -1.0061
C16 C -0.0265(14) 0.5941(12) -0.9302(9)
H16 H -0.0441 0.6593 -0.8821
C17 C 0.6688(19) 1.5863(14) 0.8959(12)
H17 H 0.6348 1.6489 0.8869
H18 H 0.7621 1.6249 0.9402
C18 C 0.5815(15) 1.5398(12) 0.9492(10)
C19 C 0.4672(16) 1.4458(13) 0.8990(11)
H19 H 0.4429 1.4090 0.8292
C20 C 0.6128(16) 1.5958(13) 1.0516(11)
H20 H 0.6899 1.6631 1.0873
N7 N 0.424(2) 1.1908(13) 0.3867(12)
C21 C 0.427(2) 1.0809(18) 0.3539(15)
H21 H 0.4907 1.0523 0.3825
N8 N 0.326(3) 1.0175(18) 0.274(2)
N9 N 0.260(2) 1.088(2) 0.2582(18)
C22 C 0.321(2) 1.1953(15) 0.3276(17)
H22 H 0.2948 1.2639 0.3339
N10 N 0.6335(19) 1.3922(17) 0.6461(9)
C23 C 0.629(2) 1.4943(17) 0.7103(13)
H23 H 0.5931 1.5496 0.6953
N11 N 0.682(3) 1.5063(18) 0.7988(14)
N12 N 0.719(3) 1.412(2) 0.7894(16)
C24 C 0.689(3) 1.3411(17) 0.6950(13)
H24 H 0.7057 1.2665 0.6670
Cu4 Cu 0.5781(6) 1.2825(7) 0.5352(4)
Cu2A Cu -0.15366(16) 0.44185(15) -1.49333(11)
N1A N -0.2574(9) 0.3825(8) -1.6241(7)
N2A N -0.3870(10) 0.2609(8) -1.7680(7)
N3A N -0.3989(10) 0.3688(8) -1.7563(7)
N4A N -0.0596(10) 0.5101(9) -1.3600(7)
N5A N 0.0594(11) 0.5450(11) -1.2179(8)
N6A N 0.0253(16) 0.6433(10) -1.2036(8)
C1A C -0.3039(12) 0.2703(10) -1.6898(8)
H1A H -0.2805 0.2067 -1.6813
C2A C -0.3179(11) 0.4377(10) -1.6693(8)
H2A H -0.3027 0.5206 -1.6400
C3A C -0.4652(12) 0.1543(10) -1.8568(8)
H3A H -0.4597 0.0843 -1.8459
H4A H -0.5623 0.1529 -1.8701
C4A C -0.4137(12) 0.1477(9) -1.9444(8)
C5A C -0.3002(12) 0.1107(11) -1.9598(9)
H5A H -0.2496 0.0924 -1.9132
C6A C -0.4853(13) 0.1750(10) -2.0135(9)
H6A H -0.5638 0.2003 -2.0028
C7A C -0.4448(14) 0.1661(11) -2.0960(9)
H7A H -0.4937 0.1865 -2.1417
C8A C -0.2603(13) 0.1003(12) -2.0465(12)
H8A H -0.1824 0.0744 -2.0586
C9A C -0.3330(14) 0.1274(11) -2.1128(9)
C10A C -0.2925(19) 0.1093(13) -2.2078(12)
H9A H -0.1933 0.1466 -2.1927
H10A H -0.3414 0.1479 -2.2410
C11A C 0.0106(13) 0.4658(12) -1.3113(8)
H11A H 0.0240 0.3900 -1.3384
C12A C -0.0468(17) 0.6194(12) -1.2912(10)
H12A H -0.0862 0.6735 -1.3050
C13A C 0.1476(13) 0.5352(16) -1.1376(11)
H13A H 0.1852 0.4682 -1.1657
H14A H 0.2251 0.6079 -1.1017
C14A C 0.0697(13) 0.5170(13) -1.0669(10)
C15A C 0.0416(14) 0.6106(13) -0.9965(10)
H15A H 0.0696 0.6869 -0.9939
C16A C 0.0265(14) 0.4059(12) -1.0698(9)
H16A H 0.0441 0.3407 -1.1179
C17A C 0.3312(19) 1.4137(14) 1.1041(12)
H17A H 0.3652 1.3511 1.1131
H18A H 0.2379 1.3751 1.0598
C18A C 0.4185(15) 1.4602(12) 1.0508(10)
C19A C 0.5328(16) 1.5542(13) 1.1010(11)
H19A H 0.5571 1.5910 1.1708
C20A C 0.3872(16) 1.4042(13) 0.9484(11)
H20A H 0.3101 1.3369 0.9127
N7A N -0.424(2) -0.1908(13) -2.3867(12)
C21A C -0.427(2) -0.0809(18) -2.3539(15)
H21A H -0.4907 -0.0523 -2.3825
N8A N -0.326(3) -0.0175(18) -2.274(2)
N9A N -0.260(2) -0.088(2) -2.2582(18)
C22A C -0.321(2) -0.1953(15) -2.3276(17)
H22A H -0.2948 -0.2639 -2.3339
N10A N 0.3665(19) 1.6078(17) 1.3539(9)
N10A_2 N -0.6335(19) -0.3922(17) -2.6461(9)
C23A C 0.371(2) 1.5057(17) 1.2897(13)
H23A H 0.4069 1.4504 1.3047
N11A N 0.318(3) 1.4937(18) 1.2012(14)
N12A N 0.281(3) 1.588(2) 1.2106(16)
C24A C 0.311(3) 1.6589(17) 1.3050(13)
H24A H 0.2943 1.7335 1.3330
Cu4A Cu -0.5781(6) -0.2825(7) -2.5352(4)
Cu4A_2 Cu 0.4219(6) 1.7175(7) 1.4648(4)
O18 O 0.3921(16) 1.3442(14) 0.4373(12)
Mo1 Mo 0.08943(10) 0.93187(8) -0.58415(7)
Mo2 Mo -0.26257(11) 0.83365(10) -0.60789(9)
Mo3 Mo -0.01297(13) 0.80516(9) -0.45460(8)
Cu1 Cu -0.16250(15) 0.95791(10) -0.74387(9)
O1 O 0.0211(12) 0.8926(8) -0.3185(7)
O2 O -0.1611(15) 0.9045(11) -0.8665(6)
O3 O -0.0486(8) 0.8011(6) -0.5875(5)
O4 O -0.3315(11) 0.6899(9) -0.6325(9)
O5 O 0.1751(9) 1.0990(7) -0.5346(6)
O6 O 0.2287(11) 0.8817(10) -0.5846(8)
O7 O -0.2397(10) 0.8188(7) -0.7312(6)
O8 O 0.0979(8) 0.9923(6) -0.4327(5)
O9 O 0.0261(11) 0.9036(8) -0.7054(7)
O10 O 0.1288(12) 0.7588(8) -0.4653(8)
O11 O -0.1346(13) 0.6826(8) -0.4749(8)
O12 O -0.3941(11) 0.8937(10) -0.5980(9)
O13 O -0.3019(9) 1.0134(9) -0.7361(8)
Mo1A Mo -0.08943(10) 1.06813(8) -0.41585(7)
Mo2A Mo 0.26257(11) 1.16635(10) -0.39211(9)
Mo3A Mo 0.01297(13) 1.19484(9) -0.54540(8)
Cu1A Cu 0.16250(15) 1.04209(10) -0.25613(9)
O1A O -0.0211(12) 1.1074(8) -0.6815(7)
O2A O 0.1611(15) 1.0955(11) -0.1335(6)
O3A O 0.0486(8) 1.1989(6) -0.4125(5)
O4A O 0.3315(11) 1.3101(9) -0.3675(9)
O5A O -0.1751(9) 0.9010(7) -0.4654(6)
O6A O -0.2287(11) 1.1183(10) -0.4154(8)
O7A O 0.2397(10) 1.1812(7) -0.2688(6)
O8A O -0.0979(8) 1.0077(6) -0.5673(5)
O9A O -0.0261(11) 1.0964(8) -0.2946(7)
O10A O -0.1288(12) 1.2412(8) -0.5347(8)
O11A O 0.1346(13) 1.3174(8) -0.5251(8)
O12A O 0.3941(11) 1.1063(10) -0.4020(9)
O13A O 0.3019(9) 0.9866(9) -0.2639(8)
Mo4? Mo 0.16250(15) 1.04209(10) -0.25613(9)
Cu3? Cu 0.5260(6) 1.3321(5) 0.5080(4)
O14? O 0.5000 1.5000 0.5000
O15? O 0.6171(19) 1.2275(16) 0.5322(13)
O16? O 0.2345(9) 1.3367(7) 0.3562(7)
N13? N 0.471(2) 1.1602(16) 0.4058(10)
C25? C 0.449(2) 1.049(2) 0.3590(17)
H25? H 0.4971 1.0026 0.3785
N14? N 0.353(3) 1.0112(18) 0.2812(19)
N15? N 0.314(2) 1.0990(19) 0.2800(16)
C26? C 0.387(2) 1.1911(14) 0.3570(16)
H26? H 0.3805 1.2688 0.3748
N16? N 0.668(2) 1.3710(16) 0.6766(8)
C27? C 0.629(2) 1.4618(19) 0.7259(13)
H27? H 0.5735 1.4975 0.6986
N17? N 0.681(3) 1.4952(18) 0.8190(14)
N18? N 0.751(2) 1.4250(18) 0.8274(13)
C28? C 0.743(2) 1.3483(15) 0.7394(12)
H28? H 0.7853 1.2865 0.7237
O17? O 0.4358(13) 1.4859(11) 0.4693(10)
H29? H 0.1919 0.8710 0.1949
H30? H 0.3231 0.8372 0.2329
H31? H 0.6268 1.6366 0.8727
H32? H 0.7602 1.6347 0.9406
loop_
_geom_bond_atom_site_label_1
_geom_bond_atom_site_label_2
_geom_bond_site_symmetry_1
_geom_bond_site_symmetry_2
Mo1 O3 1_555 1_555
Mo2 O3 1_555 1_555
Mo3 O1 1_555 1_555
Cu1 O2 1_555 1_555
O1 Cu1A 1_555 1_555
O3 Mo3 1_555 1_555
O4 Mo2 1_555 1_555
O5 Mo1 1_555 1_555
O6 Mo1 1_555 1_555
O7 Mo2 1_555 1_555
O8 Mo1 1_555 1_555
O9 Mo1 1_555 1_555
O10 Mo3 1_555 1_555
O11 Mo3 1_555 1_555
O12 Mo2 1_555 1_555
O13 Cu1 1_555 1_555
Cu2 N1 1_555 1_555
N1 C1 1_555 1_555
N2 N3 1_555 1_555
N3 C2 1_555 1_555
N4 Cu2 1_555 1_555
N5 N6 1_555 1_555
N6 C12 1_555 1_555
C1 N2 1_555 1_555
H1 C1 1_555 1_555
C2 N1 1_555 1_555
H2 C2 1_555 1_555
C3 N2 1_555 1_555
H3 C3 1_555 1_555
H4 C3 1_555 1_555
C4 C3 1_555 1_555
C5 C4 1_555 1_555
H5 C5 1_555 1_555
C6 C4 1_555 1_555
H6 C6 1_555 1_555
C7 C6 1_555 1_555
H7 C7 1_555 1_555
C8 C5 1_555 1_555
H8 C8 1_555 1_555
C9 C7 1_555 1_555
C10 C9 1_555 1_555
H9 C10 1_555 1_555
H10 C10 1_555 1_555
C11 N4 1_555 1_555
H11 C11 1_555 1_555
C12 N4 1_555 1_555
H12 C12 1_555 1_555
C13 N5 1_555 1_555
H13 C13 1_555 1_555
H14 C13 1_555 1_555
C14 C13 1_555 1_555
C15 C14 1_555 1_555
H15 C15 1_555 1_555
C16 C14 1_555 1_555
H16 C16 1_555 1_555
C17 H17 1_555 1_555
H18 C17 1_555 1_555
C18 C17 1_555 1_555
C19 C18 1_555 1_555
H19 C19 1_555 1_555
C20 C18 1_555 1_555
H20 C20 1_555 1_555
N7 C21 1_555 1_555
C21 H21 1_555 1_555
N8 C10 1_555 1_555
N9 N8 1_555 1_555
C22 N7 1_555 1_555
H22 C22 1_555 1_555
N10 C23 1_555 1_555
C23 H23 1_555 1_555
N11 C17 1_555 1_555
N12 N11 1_555 1_555
C24 N10 1_555 1_555
H24 C24 1_555 1_555
Cu4 N7 1_555 1_555
Mo1A O8 1_555 1_555
Mo2A O5 1_555 1_555
Mo3A O5 1_555 1_555
Cu1A O2A 1_555 1_555
O1A Cu1 1_555 1_555
O3A Mo1A 1_555 1_555
O4A Mo2A 1_555 1_555
O5A Mo2 1_555 1_555
O6A Mo1A 1_555 1_555
O7A Mo2A 1_555 1_555
O8A Mo1 1_555 1_555
O9A Mo1A 1_555 1_555
O10A Mo3A 1_555 1_555
O11A Mo3A 1_555 1_555
O12A Mo2A 1_555 1_555
O13A Cu1A 1_555 1_555
Cu2A N1A 1_555 1_555
N1A C1A 1_555 1_555
N2A N3A 1_555 1_555
N3A C2A 1_555 1_555
N4A Cu2A 1_555 1_555
N5A N6A 1_555 1_555
N6A C12A 1_555 1_555
C1A N2A 1_555 1_555
H1A C1A 1_555 1_555
C2A N1A 1_555 1_555
H2A C2A 1_555 1_555
C3A N2A 1_555 1_555
H3A C3A 1_555 1_555
H4A C3A 1_555 1_555
C4A C3A 1_555 1_555
C5A C4A 1_555 1_555
H5A C5A 1_555 1_555
C6A C4A 1_555 1_555
H6A C6A 1_555 1_555
C7A C6A 1_555 1_555
H7A C7A 1_555 1_555
C8A C5A 1_555 1_555
H8A C8A 1_555 1_555
C9A C7A 1_555 1_555
C10A C9A 1_555 1_555
H9A C10A 1_555 1_555
H10A C10A 1_555 1_555
C11A N4A 1_555 1_555
H11A C11A 1_555 1_555
C12A N4A 1_555 1_555
H12A C12A 1_555 1_555
C13A N5A 1_555 1_555
H13A C13A 1_555 1_555
H14A C13A 1_555 1_555
C14A C13A 1_555 1_555
C15A C16 1_555 1_555
H15A C15A 1_555 1_555
C16A C15 1_555 1_555
H16A C16A 1_555 1_555
C17A H17A 1_555 1_555
H18A C17A 1_555 1_555
C18A C17A 1_555 1_555
C19A C20 1_555 1_555
H19A C19A 1_555 1_555
C20A C19 1_555 1_555
H20A C20A 1_555 1_555
N7A C21A 1_555 1_555
C21A H21A 1_555 1_555
N8A C10A 1_555 1_555
N9A N8A 1_555 1_555
C22A N7A 1_555 1_555
H22A C22A 1_555 1_555
N10A C23A 1_555 1_555
N10A_2 Cu4A 1_555 1_555
C23A H23A 1_555 1_555
N11A C17A 1_555 1_555
N12A N11A 1_555 1_555
C24A N10A 1_555 1_555
H24A C24A 1_555 1_555
Cu4A N7A 1_555 1_555
Cu4A_2 N10A 1_555 1_555
Mo2 O8A 1_555 1_555
Mo3 O8 1_555 1_555
Mo3 O5A 1_555 1_555
Cu1 O7 1_555 1_555
Cu1 O9 1_555 1_555
O8 Mo2A 1_555 1_555
N5 C11 1_555 1_555
C8 C9 1_555 1_555
C21 N8 1_555 1_555
N9 C22 1_555 1_555
N10 Cu4 1_555 1_555
C23 N11 1_555 1_555
N12 C24 1_555 1_555
Mo1A O5A 1_555 1_555
Mo1A O8A 1_555 1_555
Mo2A O3A 1_555 1_555
Mo3A O1A 1_555 1_555
Mo3A O3A 1_555 1_555
Mo3A O8A 1_555 1_555
Cu1A O7A 1_555 1_555
Cu1A O9A 1_555 1_555
N5A C11A 1_555 1_555
C8A C9A 1_555 1_555
C14A C15A 1_555 1_555
C14A C16A 1_555 1_555
C18A C19A 1_555 1_555
C18A C20A 1_555 1_555
C21A N8A 1_555 1_555
N9A C22A 1_555 1_555
C23A N11A 1_555 1_555
N12A C24A 1_555 1_555

#END
