
#######################################################################
#
#                 Cambridge Crystallographic Data Centre
#                                CCDC 
#
#######################################################################
#
# If this CIF has been generated from an entry in the Cambridge 
# Structural Database, then it will include bibliographic, chemical, 
# crystal, experimental, refinement or atomic coordinate data resulting 
# from the CCDC's data processing and validation procedures.
#
#######################################################################

data_CAVWAY
_symmetry_cell_setting           tetragonal
_symmetry_space_group_name_H-M   'P 43 21 2'
_symmetry_Int_Tables_number      96
_space_group_name_Hall           'P 4nw 2abw'
loop_
_symmetry_equiv_pos_site_id
_symmetry_equiv_pos_as_xyz
1 x,y,z
2 1/2+x,1/2-y,1/4-z
3 -x,-y,1/2+z
4 1/2-x,1/2+y,3/4-z
5 y,x,-z
6 1/2+y,1/2-x,1/4+z
7 1/2-y,1/2+x,3/4+z
8 -y,-x,1/2-z
_cell_length_a                   7.61200(10)
_cell_length_b                   7.61200(10)
_cell_length_c                   49.4945(9)
_cell_angle_alpha                90
_cell_angle_beta                 90
_cell_angle_gamma                90
_cell_volume                     2867.84
loop_
_atom_site_label
_atom_site_type_symbol
_atom_site_fract_x
_atom_site_fract_y
_atom_site_fract_z
Re1 Re 0.54035(2) -0.10729(2) 0.249320(4)
O1 O 0.5290(5) -0.1486(5) 0.28337(7)
O2 O 0.3719(5) 0.0325(5) 0.23958(7)
O3 O 0.5282(6) -0.3001(5) 0.23099(8)
O4 O -0.2648(5) -0.0032(5) 0.24237(7)
Ag1 Ag 0.05349(4) -0.05349(4) 0.2500
Ag2 Ag 0.61480(5) -0.61480(5) 0.2500
Cu1 Cu -0.00368(7) -0.60567(7) 0.376170(10)
O5 O -0.2494(5) -0.6985(4) 0.40554(7)
O6 O -0.4082(5) -0.8667(4) 0.37782(6)
O7 O 0.2339(5) -0.5041(4) 0.34348(7)
O8 O 0.4114(5) -0.3437(4) 0.37005(7)
N1 N 0.3547(5) -0.0572(5) 0.34219(7)
N2 N -0.1875(5) -1.1412(5) 0.45615(7)
N3 N -0.3576(5) -1.1482(5) 0.40711(8)
N4 N 0.1496(5) -0.0509(5) 0.29618(8)
C1 C 0.1699(6) -0.1988(6) 0.31046(8)
H1 H 0.1115 -0.3026 0.3048
C2 C -0.3357(6) -1.2945(6) 0.42084(8)
H2 H -0.3768 -1.4030 0.4138
C3 C 0.3066(6) -0.3656(6) 0.35004(9)
C4 C 0.2747(6) -0.2038(6) 0.33347(8)
C5 C 0.3320(6) 0.0927(6) 0.32866(9)
H3 H 0.3849 0.1980 0.3350
C6 C 0.2314(6) 0.0943(6) 0.30551(9)
H4 H 0.2192 0.2012 0.2958
C7 C -0.2517(7) -1.2891(6) 0.44582(9)
H5 H -0.2399 -1.3948 0.4558
C8 C -0.3165(6) -0.8382(6) 0.39877(9)
C9 C -0.2890(6) -0.9987(6) 0.41645(8)
C10 C -0.2024(6) -0.9961(6) 0.44096(9)
H6 H -0.1522 -0.8892 0.4472
Re1G Re 0.10729(2) -0.54035(2) 0.250680(4)
Re1_2 Re -0.45965(2) -0.10729(2) 0.249320(4)
Re1G_2 Re 0.10729(2) 0.45965(2) 0.250680(4)
O1G O 0.1486(5) -0.5290(5) 0.21663(7)
O2G O -0.0325(5) -0.3719(5) 0.26042(7)
O3G O 0.3001(5) -0.5282(6) 0.26901(8)
O4G O 0.0032(5) 0.2648(5) 0.25763(7)
O4_2 O 0.7352(5) -0.0032(5) 0.24237(7)
O4G_2 O 0.0032(5) -0.7352(5) 0.25763(7)
Ag2C Ag -0.11480(5) -1.11480(5) 0.5000
Ag2_2 Ag -0.38520(5) -0.61480(5) 0.2500
Cu1G Cu 0.60567(7) 0.00368(7) 0.123830(10)
Cu1C Cu -0.49632(7) -1.10567(7) 0.373830(10)
Cu1C_2 Cu 0.50368(7) -0.10567(7) 0.373830(10)
Cu1F Cu 0.10567(7) -0.50368(7) 0.126170(10)
Cu1C_3 Cu -0.49632(7) -0.10567(7) 0.373830(10)
O5C O -0.2506(5) -0.1985(4) 0.34446(7)
O5G O 0.6985(4) 0.2494(5) 0.09446(7)
O6C O -0.0918(5) -0.3667(4) 0.37218(6)
O6F O 0.3667(4) 0.0918(5) 0.12782(6)
O7G O 0.5041(4) -0.2339(5) 0.15652(7)
O8G O 0.3437(4) -0.4114(5) 0.12995(7)
O8C O 0.0886(5) -0.8437(4) 0.37995(7)
O8F O 0.8437(4) -0.0886(5) 0.12005(7)
N1G N 0.0572(5) -0.3547(5) 0.15781(7)
N1C N 0.1453(5) -0.5572(5) 0.40781(7)
N1F N 0.5572(5) -0.1453(5) 0.09219(7)
N2C N -0.3125(5) -0.6412(5) 0.29385(7)
N2C_2 N 0.6875(5) -0.6412(5) 0.29385(7)
N2F N 0.6412(5) -0.6875(5) 0.20615(7)
N3C N -0.1424(5) -0.6482(5) 0.34289(8)
N3F N 0.6482(5) 0.1424(5) 0.15711(8)
N4G N 0.0509(5) -0.1496(5) 0.20382(8)
C1G C 0.1988(6) -0.1699(6) 0.18954(8)
H1G H 0.3026 -0.1115 0.1952
C2C C -0.1643(6) -0.7945(6) 0.32916(8)
H2C H -0.1232 -0.9030 0.3362
C3G C 0.3656(6) -0.3066(6) 0.14996(9)
C4G C 0.2038(6) -0.2747(6) 0.16653(8)
C5G C -0.0927(6) -0.3320(6) 0.17134(9)
H3G H -0.1980 -0.3849 0.1650
C6G C -0.0943(6) -0.2314(6) 0.19449(9)
H4G H -0.2012 -0.2192 0.2042
C7C C -0.2483(7) -0.7891(6) 0.30418(9)
H5C H -0.2601 -0.8948 0.2942
C8C C -0.1835(6) -0.3382(6) 0.35123(9)
C9C C -0.2110(6) -0.4987(6) 0.33355(8)
C10C C -0.2976(6) -0.4961(6) 0.30904(9)
H6C H -0.3478 -0.3892 0.3028
loop_
_geom_bond_atom_site_label_1
_geom_bond_atom_site_label_2
_geom_bond_site_symmetry_1
_geom_bond_site_symmetry_2
Re1 O1 1_555 1_555
O2 Re1 1_555 1_555
O3 Re1 1_555 1_555
O4 Ag1 1_555 1_555
Ag1 O2 1_555 1_555
Ag2 O3 1_555 1_555
Cu1 O5 1_555 1_555
O5 C8 1_555 1_555
O6 C8 1_555 1_555
O7 Cu1 1_555 1_555
O8 C3 1_555 1_555
N1 C4 1_555 1_555
N2 C7 1_555 1_555
N3 C2 1_555 1_555
N4 Ag1 1_555 1_555
C1 N4 1_555 1_555
H1 C1 1_555 1_555
C2 H2 1_555 1_555
C3 O7 1_555 1_555
C4 C1 1_555 1_555
C5 N1 1_555 1_555
H3 C5 1_555 1_555
C6 N4 1_555 1_555
H4 C6 1_555 1_555
C7 C2 1_555 1_555
H5 C7 1_555 1_555
C8 C9 1_555 1_555
C9 N3 1_555 1_555
C10 N2 1_555 1_555
H6 C10 1_555 1_555
Re1G O1G 1_555 1_555
Re1_2 O4 1_555 1_555
Re1G_2 O4G 1_555 1_555
O2G Ag1 1_555 1_555
O3G Ag2 1_555 1_555
O4G Ag1 1_555 1_555
O4_2 Re1 1_555 1_555
O4G_2 Re1G 1_555 1_555
Ag2C N2 1_555 1_555
Ag2_2 N2C 1_555 1_555
Cu1G O5G 1_555 1_555
Cu1C O6 1_555 1_555
Cu1C_2 O8 1_555 1_555
Cu1F O8G 1_555 1_555
Cu1C_3 O5C 1_555 1_555
O5C C8C 1_555 1_555
O6C Cu1 1_555 1_555
O6F Cu1G 1_555 1_555
O7G Cu1G 1_555 1_555
O8G C3G 1_555 1_555
O8C Cu1 1_555 1_555
O8F Cu1G 1_555 1_555
N1G Cu1F 1_555 1_555
N1C Cu1 1_555 1_555
N1F Cu1G 1_555 1_555
N2C C7C 1_555 1_555
N2C_2 Ag2 1_555 1_555
N2F Ag2 1_555 1_555
N3C Cu1 1_555 1_555
N3F Cu1G 1_555 1_555
N4G Ag1 1_555 1_555
C1G N4G 1_555 1_555
H1G C1G 1_555 1_555
C2C N3C 1_555 1_555
H2C C2C 1_555 1_555
C3G O7G 1_555 1_555
C4G N1G 1_555 1_555
C5G N1G 1_555 1_555
H3G C5G 1_555 1_555
C6G N4G 1_555 1_555
H4G C6G 1_555 1_555
C7C C2C 1_555 1_555
H5C C7C 1_555 1_555
C8C O6C 1_555 1_555
C9C N3C 1_555 1_555
C10C N2C 1_555 1_555
H6C C10C 1_555 1_555
N1 Cu1C_2 1_555 1_555
N3 Cu1C 1_555 1_555
C3 C4 1_555 1_555
C5 C6 1_555 1_555
C9 C10 1_555 1_555
Re1G O2G 1_555 1_555
Re1G O3G 1_555 1_555
C1G C4G 1_555 1_555
C3G C4G 1_555 1_555
C5G C6G 1_555 1_555
C8C C9C 1_555 1_555
C9C C10C 1_555 1_555

#END
