
#######################################################################
#
#                 Cambridge Crystallographic Data Centre
#                                CCDC 
#
#######################################################################
#
# If this CIF has been generated from an entry in the Cambridge 
# Structural Database, then it will include bibliographic, chemical, 
# crystal, experimental, refinement or atomic coordinate data resulting 
# from the CCDC's data processing and validation procedures.
#
#######################################################################

data_CAVWEC
_symmetry_cell_setting           monoclinic
_symmetry_space_group_name_H-M   'P 21/n'
_symmetry_Int_Tables_number      14
_space_group_name_Hall           '-P 2yn'
loop_
_symmetry_equiv_pos_site_id
_symmetry_equiv_pos_as_xyz
1 x,y,z
2 1/2-x,1/2+y,1/2-z
3 -x,-y,-z
4 1/2+x,1/2-y,1/2+z
_cell_length_a                   12.5968(4)
_cell_length_b                   19.5102(6)
_cell_length_c                   34.6185(11)
_cell_angle_alpha                90
_cell_angle_beta                 93.8030(10)
_cell_angle_gamma                90
_cell_volume                     8489.32
loop_
_atom_site_label
_atom_site_type_symbol
_atom_site_fract_x
_atom_site_fract_y
_atom_site_fract_z
Re1 Re 0.07180(4) 0.40272(3) 0.230011(15)
Re2 Re 0.00603(5) 0.37409(3) 0.285271(15)
Re3 Re 0.03798(5) 0.48250(4) 0.027821(17)
Re4 Re -0.02146(5) 0.46312(4) 0.476618(16)
W1 W 0.20035(5) 0.43450(4) 0.128418(17)
W2 W -0.10958(7) 0.33619(5) 0.389021(19)
O1 O 0.1298(7) 0.4260(5) 0.1721(2)
O2 O 0.1123(7) 0.4497(6) 0.0865(3)
O3 O 0.2884(9) 0.5037(7) 0.1353(3)
O4 O 0.2734(10) 0.3613(7) 0.1218(3)
O5 O -0.0550(7) 0.3527(5) 0.3436(3)
O6 O -0.0573(7) 0.3917(5) 0.4258(3)
O7 O -0.2455(11) 0.3473(14) 0.3821(4)
O8 O -0.088(2) 0.2542(9) 0.4035(5)
N1 N -0.0788(8) 0.4357(6) 0.2092(3)
N2 N -0.1459(9) 0.3961(7) 0.2637(3)
N3 N 0.1026(9) 0.5029(6) 0.2480(3)
N4 N 0.0203(8) 0.4773(6) 0.3028(3)
N5 N 0.2237(9) 0.3736(6) 0.2502(3)
N6 N 0.1574(9) 0.3462(6) 0.3085(3)
N7 N 0.0388(9) 0.3038(6) 0.2089(3)
N8 N -0.0201(9) 0.2731(6) 0.2678(3)
N9 N -0.1083(10) 0.4625(7) 0.0487(4)
N10 N 0.0416(10) 0.3818(7) 0.0098(4)
N11 N -0.1892(9) 0.5008(7) -0.0094(4)
N12 N -0.0362(9) 0.4192(8) -0.0488(3)
N13 N -0.1113(9) 0.5370(8) 0.4471(3)
N14 N 0.1180(9) 0.4900(6) 0.4507(3)
N15 N -0.0590(10) 0.6147(6) 0.4938(4)
N16 N 0.1579(10) 0.5683(7) 0.4985(3)
C1 C -0.1614(11) 0.4246(7) 0.2291(4)
C2 C -0.2704(10) 0.4432(8) 0.2135(4)
C3 C -0.3244(16) 0.3968(10) 0.1890(6)
H1 H -0.2916 0.3561 0.1826
C4 C -0.426(2) 0.4107(14) 0.1742(7)
H2 H -0.4631 0.3787 0.1587
C5 C -0.4718(18) 0.4723(17) 0.1826(7)
H3 H -0.5389 0.4830 0.1713
C6 C -0.4216(17) 0.5174(14) 0.2067(7)
H4 H -0.4533 0.5583 0.2135
C7 C -0.3216(14) 0.4999(10) 0.2207(6)
H5 H -0.2860 0.5314 0.2371
C8 C -0.0915(16) 0.4865(12) 0.1776(6)
H6 H -0.1658 0.4952 0.1716
H7 H -0.0605 0.4689 0.1550
H8 H -0.0565 0.5284 0.1855
C9 C -0.2434(13) 0.3753(10) 0.2829(5)
H9 H -0.3053 0.3913 0.2679
H10 H -0.2419 0.3949 0.3083
H11 H -0.2459 0.3262 0.2848
C10 C 0.0649(12) 0.5225(8) 0.2811(4)
C11 C 0.0688(17) 0.5963(9) 0.2940(5)
C12 C -0.0052(18) 0.6413(12) 0.2782(6)
H12 H -0.0567 0.6268 0.2595
C13 C -0.002(2) 0.7091(15) 0.2908(9)
H13 H -0.0520 0.7400 0.2801
C14 C 0.071(3) 0.7311(13) 0.3182(9)
H14 H 0.0691 0.7756 0.3278
C15 C 0.147(2) 0.6877(14) 0.3311(8)
H15 H 0.2024 0.7039 0.3478
C16 C 0.1467(19) 0.6181(12) 0.3204(6)
H16 H 0.1977 0.5879 0.3310
C17 C 0.1634(16) 0.5510(9) 0.2258(5)
H17 H 0.1686 0.5942 0.2391
H18 H 0.1282 0.5574 0.2007
H19 H 0.2335 0.5330 0.2232
C18 C -0.0415(13) 0.5042(9) 0.3347(4)
H20 H -0.0254 0.5519 0.3387
H21 H -0.0226 0.4793 0.3581
H22 H -0.1162 0.4989 0.3280
C19 C 0.2381(11) 0.3497(8) 0.2870(4)
C20 C 0.3459(13) 0.3263(10) 0.3020(5)
C21 C 0.4179(16) 0.3747(12) 0.3185(6)
H23 H 0.4002 0.4209 0.3198
C22 C 0.5146(17) 0.3514(13) 0.3327(7)
H24 H 0.5616 0.3829 0.3447
C23 C 0.5456(16) 0.2875(19) 0.3307(6)
H25 H 0.6131 0.2750 0.3408
C24 C 0.480(2) 0.2391(16) 0.3137(7)
H26 H 0.5010 0.1936 0.3118
C25 C 0.3760(14) 0.2615(13) 0.2988(5)
H27 H 0.3293 0.2300 0.2868
C26 C 0.3170(11) 0.3806(10) 0.2261(5)
H28 H 0.3800 0.3648 0.2405
H29 H 0.3257 0.4279 0.2193
H30 H 0.3053 0.3537 0.2030
C27 C 0.1776(13) 0.3162(11) 0.3473(5)
H31 H 0.2523 0.3074 0.3520
H32 H 0.1389 0.2740 0.3488
H33 H 0.1547 0.3477 0.3664
C28 C -0.0014(11) 0.2564(8) 0.2310(4)
C29 C -0.0263(15) 0.1863(10) 0.2168(4)
C30 C 0.049(2) 0.1345(15) 0.2182(8)
H34 H 0.1156 0.1412 0.2307
C31 C 0.022(4) 0.0718(17) 0.2006(13)
H35 H 0.0748 0.0394 0.1976
C32 C -0.077(4) 0.0575(15) 0.1881(10)
H36 H -0.0965 0.0130 0.1811
C33 C -0.149(3) 0.1083(15) 0.1856(7)
H37 H -0.2167 0.1006 0.1740
C34 C -0.1216(18) 0.1712(11) 0.2002(6)
H38 H -0.1728 0.2057 0.1984
C35 C 0.0548(16) 0.2846(9) 0.1690(5)
H39 H 0.0344 0.2376 0.1648
H40 H 0.1285 0.2901 0.1641
H41 H 0.0121 0.3134 0.1517
C36 C -0.0616(17) 0.2214(9) 0.2927(5)
H42 H -0.0669 0.1784 0.2792
H43 H -0.1308 0.2349 0.3000
H44 H -0.0146 0.2165 0.3156
C37 C -0.1972(13) 0.4728(10) 0.0267(5)
C38 C -0.3058(16) 0.4584(13) 0.0418(5)
C39 C -0.353(2) 0.5030(16) 0.0635(6)
H45 H -0.3215 0.5459 0.0672
C40 C -0.448(3) 0.4894(19) 0.0816(11)
H46 H -0.4780 0.5205 0.0981
C41 C -0.489(2) 0.432(2) 0.0735(8)
H47 H -0.5521 0.4217 0.0849
C42 C -0.451(2) 0.3798(17) 0.0491(10)
H48 H -0.4883 0.3399 0.0430
C43 C -0.3482(19) 0.3945(15) 0.0347(8)
H49 H -0.3122 0.3617 0.0210
C44 C -0.1206(16) 0.4253(15) 0.0858(6)
H50 H -0.1947 0.4222 0.0904
H51 H -0.0837 0.4497 0.1066
H52 H -0.0913 0.3801 0.0841
C45 C 0.0828(14) 0.3232(8) 0.0338(4)
H53 H 0.0755 0.2816 0.0190
H54 H 0.0431 0.3194 0.0564
H55 H 0.1566 0.3307 0.0414
C46 C -0.2879(13) 0.5176(11) -0.0321(5)
H56 H -0.3477 0.5059 -0.0177
H57 H -0.2895 0.5658 -0.0378
H58 H -0.2912 0.4921 -0.0559
C47 C -0.0025(12) 0.3668(10) -0.0269(4)
C48 C -0.0169(14) 0.2927(10) -0.0388(4)
C49 C -0.1126(17) 0.2590(16) -0.0366(7)
H59 H -0.1666 0.2811 -0.0243
C50 C -0.132(2) 0.1961(15) -0.0511(8)
H60 H -0.1984 0.1753 -0.0512
C51 C -0.042(3) 0.1640(13) -0.0664(7)
H61 H -0.0502 0.1194 -0.0755
C52 C 0.0472(19) 0.1926(16) -0.0683(7)
H62 H 0.1019 0.1692 -0.0793
C53 C 0.0646(15) 0.2567(12) -0.0546(6)
H63 H 0.1314 0.2767 -0.0558
C54 C -0.0770(18) 0.3991(11) -0.0894(5)
H64 H -0.0674 0.3507 -0.0929
H65 H -0.1513 0.4101 -0.0930
H66 H -0.0384 0.4237 -0.1079
C55 C -0.1121(12) 0.5995(10) 0.4594(4)
C56 C -0.1675(13) 0.6568(9) 0.4367(5)
C57 C -0.1168(15) 0.6872(12) 0.4069(6)
H67 H -0.0481 0.6737 0.4020
C58 C -0.167(2) 0.7373(13) 0.3842(7)
H68 H -0.1336 0.7569 0.3639
C59 C -0.266(2) 0.7577(13) 0.3919(8)
H69 H -0.2978 0.7937 0.3778
C60 C -0.3195(17) 0.7260(12) 0.4202(7)
H70 H -0.3896 0.7375 0.4241
C61 C -0.2658(18) 0.6754(10) 0.4432(6)
H71 H -0.3000 0.6548 0.4632
C62 C -0.1891(14) 0.5222(10) 0.4145(5)
H72 H -0.2213 0.5642 0.4053
H73 H -0.2431 0.4920 0.4231
H74 H -0.1537 0.5006 0.3940
C63 C 0.1831(11) 0.5360(9) 0.4665(5)
C64 C 0.2851(13) 0.5550(9) 0.4483(4)
C65 C 0.3777(16) 0.5198(13) 0.4567(7)
H75 H 0.3783 0.4836 0.4742
C66 C 0.4707(18) 0.5370(16) 0.4395(10)
H76 H 0.5331 0.5128 0.4458
C67 C 0.471(2) 0.5874(19) 0.4144(8)
H77 H 0.5328 0.5991 0.4028
C68 C 0.378(3) 0.6224(19) 0.4053(9)
H78 H 0.3770 0.6586 0.3878
C69 C 0.2897(17) 0.6037(12) 0.4222(7)
H79 H 0.2271 0.6268 0.4149
C70 C 0.1545(15) 0.4544(12) 0.4171(5)
H80 H 0.2197 0.4747 0.4099
H81 H 0.1016 0.4581 0.3960
H82 H 0.1664 0.4070 0.4234
C71 C -0.0548(16) 0.6881(10) 0.5072(5)
H83 H -0.0972 0.7159 0.4892
H84 H -0.0821 0.6914 0.5323
H85 H 0.0175 0.7039 0.5084
C72 C 0.2307(14) 0.6206(10) 0.5144(5)
H86 H 0.2881 0.6262 0.4977
H87 H 0.1934 0.6632 0.5162
H88 H 0.2587 0.6068 0.5397
Re3B Re -0.03798(5) 0.51750(4) -0.027821(17)
Re4B Re 0.02146(5) 0.53688(4) 0.523382(16)
N11B N 0.1892(9) 0.4992(7) 0.0094(4)
N12B N 0.0362(9) 0.5808(8) 0.0488(3)
N15B N 0.0590(10) 0.3853(6) 0.5062(4)
N16B N -0.1579(10) 0.4317(7) 0.5015(3)
O9 O -0.157(2) 0.1879(15) 0.4760(8)
O10 O -0.6539(15) 0.2619(9) 0.0695(7)
O11 O 0.349(3) 0.6303(14) 0.1566(11)
O12 O 0.404(4) 0.668(2) 0.084(2)
O13 O -0.281(5) 0.6423(17) 0.1350(17)
loop_
_geom_bond_atom_site_label_1
_geom_bond_atom_site_label_2
_geom_bond_site_symmetry_1
_geom_bond_site_symmetry_2
Re1 Re2 1_555 1_555
Re2 O5 1_555 1_555
Re3 O2 1_555 1_555
Re4 O6 1_555 1_555
W1 O1 1_555 1_555
W2 O5 1_555 1_555
O1 Re1 1_555 1_555
O2 W1 1_555 1_555
O3 W1 1_555 1_555
O4 W1 1_555 1_555
O6 W2 1_555 1_555
O7 W2 1_555 1_555
O8 W2 1_555 1_555
N1 Re1 1_555 1_555
N2 Re2 1_555 1_555
N3 Re1 1_555 1_555
N4 Re2 1_555 1_555
N5 Re1 1_555 1_555
N6 Re2 1_555 1_555
N7 Re1 1_555 1_555
N8 Re2 1_555 1_555
N9 Re3 1_555 1_555
N10 Re3 1_555 1_555
N11 C37 1_555 1_555
N12 C47 1_555 1_555
N13 Re4 1_555 1_555
N14 Re4 1_555 1_555
N15 C55 1_555 1_555
N16 C63 1_555 1_555
C1 N1 1_555 1_555
C2 C1 1_555 1_555
C3 C2 1_555 1_555
H1 C3 1_555 1_555
C4 C3 1_555 1_555
H2 C4 1_555 1_555
C5 C4 1_555 1_555
H3 C5 1_555 1_555
C6 C5 1_555 1_555
H4 C6 1_555 1_555
C7 C2 1_555 1_555
H5 C7 1_555 1_555
C8 N1 1_555 1_555
H6 C8 1_555 1_555
H7 C8 1_555 1_555
H8 C8 1_555 1_555
C9 N2 1_555 1_555
H9 C9 1_555 1_555
H10 C9 1_555 1_555
H11 C9 1_555 1_555
C10 N3 1_555 1_555
C11 C10 1_555 1_555
C12 C11 1_555 1_555
H12 C12 1_555 1_555
C13 C12 1_555 1_555
H13 C13 1_555 1_555
C14 C13 1_555 1_555
H14 C14 1_555 1_555
C15 C14 1_555 1_555
H15 C15 1_555 1_555
C16 C11 1_555 1_555
H16 C16 1_555 1_555
C17 N3 1_555 1_555
H17 C17 1_555 1_555
H18 C17 1_555 1_555
H19 C17 1_555 1_555
C18 N4 1_555 1_555
H20 C18 1_555 1_555
H21 C18 1_555 1_555
H22 C18 1_555 1_555
C19 N5 1_555 1_555
C20 C19 1_555 1_555
C21 C20 1_555 1_555
H23 C21 1_555 1_555
C22 C21 1_555 1_555
H24 C22 1_555 1_555
C23 C22 1_555 1_555
H25 C23 1_555 1_555
C24 C23 1_555 1_555
H26 C24 1_555 1_555
C25 C20 1_555 1_555
H27 C25 1_555 1_555
C26 N5 1_555 1_555
H28 C26 1_555 1_555
H29 C26 1_555 1_555
H30 C26 1_555 1_555
C27 N6 1_555 1_555
H31 C27 1_555 1_555
H32 C27 1_555 1_555
H33 C27 1_555 1_555
C28 N7 1_555 1_555
C29 C28 1_555 1_555
C30 C29 1_555 1_555
H34 C30 1_555 1_555
C31 C30 1_555 1_555
H35 C31 1_555 1_555
C32 C31 1_555 1_555
H36 C32 1_555 1_555
C33 C32 1_555 1_555
H37 C33 1_555 1_555
C34 C29 1_555 1_555
H38 C34 1_555 1_555
C35 N7 1_555 1_555
H39 C35 1_555 1_555
H40 C35 1_555 1_555
H41 C35 1_555 1_555
C36 N8 1_555 1_555
H42 C36 1_555 1_555
H43 C36 1_555 1_555
H44 C36 1_555 1_555
C37 N9 1_555 1_555
C38 C37 1_555 1_555
C39 C38 1_555 1_555
H45 C39 1_555 1_555
C40 C39 1_555 1_555
H46 C40 1_555 1_555
C41 C40 1_555 1_555
H47 C41 1_555 1_555
C42 C41 1_555 1_555
H48 C42 1_555 1_555
C43 C38 1_555 1_555
H49 C43 1_555 1_555
C44 N9 1_555 1_555
H50 C44 1_555 1_555
H51 C44 1_555 1_555
H52 C44 1_555 1_555
C45 N10 1_555 1_555
H53 C45 1_555 1_555
H54 C45 1_555 1_555
H55 C45 1_555 1_555
C46 N11 1_555 1_555
H56 C46 1_555 1_555
H57 C46 1_555 1_555
H58 C46 1_555 1_555
C47 N10 1_555 1_555
C48 C47 1_555 1_555
C49 C48 1_555 1_555
H59 C49 1_555 1_555
C50 C49 1_555 1_555
H60 C50 1_555 1_555
C51 C50 1_555 1_555
H61 C51 1_555 1_555
C52 C51 1_555 1_555
H62 C52 1_555 1_555
C53 C48 1_555 1_555
H63 C53 1_555 1_555
C54 N12 1_555 1_555
H64 C54 1_555 1_555
H65 C54 1_555 1_555
H66 C54 1_555 1_555
C55 N13 1_555 1_555
C56 C55 1_555 1_555
C57 C56 1_555 1_555
H67 C57 1_555 1_555
C58 C57 1_555 1_555
H68 C58 1_555 1_555
C59 C58 1_555 1_555
H69 C59 1_555 1_555
C60 C59 1_555 1_555
H70 C60 1_555 1_555
C61 C56 1_555 1_555
H71 C61 1_555 1_555
C62 N13 1_555 1_555
H72 C62 1_555 1_555
H73 C62 1_555 1_555
H74 C62 1_555 1_555
C63 N14 1_555 1_555
C64 C63 1_555 1_555
C65 C64 1_555 1_555
H75 C65 1_555 1_555
C66 C65 1_555 1_555
H76 C66 1_555 1_555
C67 C66 1_555 1_555
H77 C67 1_555 1_555
C68 C67 1_555 1_555
H78 C68 1_555 1_555
C69 C64 1_555 1_555
H79 C69 1_555 1_555
C70 N14 1_555 1_555
H80 C70 1_555 1_555
H81 C70 1_555 1_555
H82 C70 1_555 1_555
C71 N15 1_555 1_555
H83 C71 1_555 1_555
H84 C71 1_555 1_555
H85 C71 1_555 1_555
C72 N16 1_555 1_555
H86 C72 1_555 1_555
H87 C72 1_555 1_555
H88 C72 1_555 1_555
Re3B Re3 1_555 1_555
Re4B Re4 1_555 1_555
N11B Re3 1_555 1_555
N12B Re3 1_555 1_555
N15B Re4 1_555 1_555
N16B Re4 1_555 1_555
N2 C1 1_555 1_555
N4 C10 1_555 1_555
N6 C19 1_555 1_555
N8 C28 1_555 1_555
N11 Re3B 1_555 1_555
N12 Re3B 1_555 1_555
N15 Re4B 1_555 1_555
N16 Re4B 1_555 1_555
C6 C7 1_555 1_555
C15 C16 1_555 1_555
C24 C25 1_555 1_555
C33 C34 1_555 1_555
C42 C43 1_555 1_555
C52 C53 1_555 1_555
C60 C61 1_555 1_555
C68 C69 1_555 1_555

#END
