
#######################################################################
#
#                 Cambridge Crystallographic Data Centre
#                                CCDC 
#
#######################################################################
#
# If this CIF has been generated from an entry in the Cambridge 
# Structural Database, then it will include bibliographic, chemical, 
# crystal, experimental, refinement or atomic coordinate data resulting 
# from the CCDC's data processing and validation procedures.
#
#######################################################################

data_CAWCOU
_symmetry_cell_setting           monoclinic
_symmetry_space_group_name_H-M   'C 2/c'
_symmetry_Int_Tables_number      15
_space_group_name_Hall           '-C 2yn'
loop_
_symmetry_equiv_pos_site_id
_symmetry_equiv_pos_as_xyz
1 x,y,z
2 -x,y,1/2-z
3 1/2+x,1/2+y,z
4 1/2-x,1/2+y,1/2-z
5 -x,-y,-z
6 x,-y,1/2+z
7 1/2-x,1/2-y,-z
8 1/2+x,1/2-y,1/2+z
_cell_length_a                   35.796(3)
_cell_length_b                   6.2276(4)
_cell_length_c                   17.465(2)
_cell_angle_alpha                90
_cell_angle_beta                 106.620(10)
_cell_angle_gamma                90
_cell_volume                     3730.7
loop_
_atom_site_label
_atom_site_type_symbol
_atom_site_fract_x
_atom_site_fract_y
_atom_site_fract_z
Sr1 Sr 0.5000 0.98218(16) 0.2500
S1 S 0.43540(6) 0.4912(3) 0.15674(13)
O1 O 0.44954(14) 0.6692(8) 0.2113(3)
O2 O 0.45515(16) 0.2924(8) 0.1845(3)
O3 O 0.43610(15) 0.5410(8) 0.0746(3)
O4 O 0.43875(15) 1.0159(8) 0.3041(3)
O5 O 0.48566(18) 0.8842(9) 0.0985(4)
H1 H 0.4733(19) 0.757(7) 0.089(5)
H2 H 0.5039(18) 0.850(11) 0.075(5)
N1 N 0.38050(18) 0.7763(9) 0.2272(4)
H5 H 0.4058 0.7983 0.2399
N2 N 0.35790(19) 0.9095(10) 0.2528(4)
C1 C 0.3846(2) 0.4561(11) 0.1484(5)
C2 C 0.3653(2) 0.2790(12) 0.1019(5)
C3 C 0.3243(2) 0.2564(12) 0.0870(5)
C4 C 0.3040(2) 0.4087(12) 0.1202(5)
H6 H 0.2767 0.3923 0.1116
C5 C 0.3225(2) 0.5768(12) 0.1637(5)
H7 H 0.3080 0.6795 0.1837
C6 C 0.3640(2) 0.6010(12) 0.1799(5)
C7 C 0.3841(3) 0.1197(13) 0.0673(5)
H8 H 0.4113 0.1315 0.0742
C8 C 0.3643(3) -0.0488(12) 0.0246(5)
H9 H 0.3779 -0.1519 0.0026
C9 C 0.3239(3) -0.0716(12) 0.0126(6)
H10 H 0.3104 -0.1915 -0.0160
C10 C 0.3045(3) 0.0775(13) 0.0421(5)
H11 H 0.2771 0.0634 0.0329
C11 C 0.3723(2) 1.0790(12) 0.2961(5)
C12 C 0.4144(2) 1.1380(13) 0.3214(5)
C13 C 0.4251(3) 1.3370(13) 0.3633(5)
H12 H 0.4518 1.3792 0.3791
C14 C 0.3984(2) 1.4656(13) 0.3808(5)
H13 H 0.4067 1.5958 0.4088
C15 C 0.3571(2) 1.4115(12) 0.3582(5)
C16 C 0.3448(2) 1.2191(12) 0.3181(5)
C17 C 0.3305(2) 1.5538(12) 0.3756(5)
H14 H 0.3394 1.6852 0.4021
C18 C 0.2910(2) 1.5046(14) 0.3542(5)
H15 H 0.2728 1.6012 0.3656
C19 C 0.2789(2) 1.3133(13) 0.3161(5)
H16 H 0.2520 1.2789 0.3017
C20 C 0.3043(2) 1.1693(13) 0.2979(5)
H17 H 0.2949 1.0376 0.2720
Sr1_2 Sr 0.5000 -0.01782(16) 0.2500
Sr1_3 Sr 0.5000 1.98218(16) 0.2500
S1_2 S 0.43540(6) 1.4912(3) 0.15674(13)
O1_2 O 0.44954(14) 1.6692(8) 0.2113(3)
O1A O 0.55046(14) 0.6692(8) 0.2887(3)
O2_2 O 0.45515(16) 1.2924(8) 0.1845(3)
O2A O 0.54485(16) 1.2924(8) 0.3155(3)
O3_2 O 0.43610(15) 1.5410(8) 0.0746(3)
O4_2 O 0.43875(15) 2.0159(8) 0.3041(3)
O4A O 0.56125(15) 1.0159(8) 0.1959(3)
O5A O 0.51434(18) 0.8842(9) 0.4015(4)
H1A H 0.5267(19) 0.757(7) 0.411(5)
H2A H 0.4961(18) 0.850(11) 0.425(5)
N1_2 N 0.38050(18) 1.7763(9) 0.2272(4)
H5_2 H 0.4058 1.7983 0.2399
N2_2 N 0.35790(19) 1.9095(10) 0.2528(4)
C1_2 C 0.3846(2) 1.4561(11) 0.1484(5)
C2_2 C 0.3653(2) 1.2790(12) 0.1019(5)
C3_2 C 0.3243(2) 1.2564(12) 0.0870(5)
C4_2 C 0.3040(2) 1.4087(12) 0.1202(5)
H6_2 H 0.2767 1.3923 0.1116
C5_2 C 0.3225(2) 1.5768(12) 0.1637(5)
H7_2 H 0.3080 1.6795 0.1837
C6_2 C 0.3640(2) 1.6010(12) 0.1799(5)
C7_2 C 0.3841(3) 1.1197(13) 0.0673(5)
H8_2 H 0.4113 1.1315 0.0742
C8_2 C 0.3643(3) 0.9512(12) 0.0246(5)
H9_2 H 0.3779 0.8481 0.0026
C9_2 C 0.3239(3) 0.9284(12) 0.0126(6)
H10_2 H 0.3104 0.8085 -0.0160
C10_2 C 0.3045(3) 1.0775(13) 0.0421(5)
H11_2 H 0.2771 1.0634 0.0329
C11_2 C 0.3723(2) 2.0790(12) 0.2961(5)
C12_2 C 0.4144(2) 2.1380(13) 0.3214(5)
C13_2 C 0.4251(3) 2.3370(13) 0.3633(5)
H12_2 H 0.4518 2.3792 0.3791
C14_2 C 0.3984(2) 2.4656(13) 0.3808(5)
H13_2 H 0.4067 2.5958 0.4088
C15_2 C 0.3571(2) 2.4115(12) 0.3582(5)
C16_2 C 0.3448(2) 2.2191(12) 0.3181(5)
C17_2 C 0.3305(2) 2.5538(12) 0.3756(5)
H14_2 H 0.3394 2.6852 0.4021
C18_2 C 0.2910(2) 2.5046(14) 0.3542(5)
H15_2 H 0.2728 2.6012 0.3656
C19_2 C 0.2789(2) 2.3133(13) 0.3161(5)
H16_2 H 0.2520 2.2789 0.3017
C20_2 C 0.3043(2) 2.1693(13) 0.2979(5)
H17_2 H 0.2949 2.0376 0.2720
O6 O 0.5328(2) 1.2299(10) 0.5075(4)
H3 H 0.536(3) 1.329(9) 0.474(4)
H4 H 0.526(3) 1.123(8) 0.473(4)
loop_
_geom_bond_atom_site_label_1
_geom_bond_atom_site_label_2
_geom_bond_site_symmetry_1
_geom_bond_site_symmetry_2
Sr1 O1 1_555 1_555
S1 O1 1_555 1_555
O2 S1 1_555 1_555
O3 S1 1_555 1_555
O4 Sr1 1_555 1_555
O5 Sr1 1_555 1_555
H1 O5 1_555 1_555
H2 O5 1_555 1_555
O6 H3 1_555 1_555
H4 O6 1_555 1_555
N1 H5 1_555 1_555
N2 N1 1_555 1_555
C1 S1 1_555 1_555
C2 C1 1_555 1_555
C3 C2 1_555 1_555
C4 C3 1_555 1_555
H6 C4 1_555 1_555
C5 C4 1_555 1_555
H7 C5 1_555 1_555
C6 N1 1_555 1_555
C7 C2 1_555 1_555
H8 C7 1_555 1_555
C8 C7 1_555 1_555
H9 C8 1_555 1_555
C9 C8 1_555 1_555
H10 C9 1_555 1_555
C10 C3 1_555 1_555
H11 C10 1_555 1_555
C11 N2 1_555 1_555
C12 O4 1_555 1_555
C13 C12 1_555 1_555
H12 C13 1_555 1_555
C14 C13 1_555 1_555
H13 C14 1_555 1_555
C15 C14 1_555 1_555
C16 C11 1_555 1_555
C17 C15 1_555 1_555
H14 C17 1_555 1_555
C18 C17 1_555 1_555
H15 C18 1_555 1_555
C19 C18 1_555 1_555
H16 C19 1_555 1_555
C20 C16 1_555 1_555
H17 C20 1_555 1_555
Sr1_2 O2 1_555 1_555
Sr1_3 O1_2 1_555 1_555
S1_2 O1_2 1_555 1_555
O1A Sr1 1_555 1_555
O2_2 Sr1 1_555 1_555
O2A Sr1 1_555 1_555
O3_2 S1_2 1_555 1_555
O4_2 Sr1_3 1_555 1_555
O4A Sr1 1_555 1_555
O5A Sr1 1_555 1_555
H1A O5A 1_555 1_555
H2A O5A 1_555 1_555
N1_2 H5_2 1_555 1_555
N2_2 N1_2 1_555 1_555
C1_2 S1_2 1_555 1_555
C2_2 C1_2 1_555 1_555
C3_2 C2_2 1_555 1_555
C4_2 C3_2 1_555 1_555
H6_2 C4_2 1_555 1_555
C5_2 C4_2 1_555 1_555
H7_2 C5_2 1_555 1_555
C6_2 N1_2 1_555 1_555
C7_2 C2_2 1_555 1_555
H8_2 C7_2 1_555 1_555
C8_2 C7_2 1_555 1_555
H9_2 C8_2 1_555 1_555
C9_2 C8_2 1_555 1_555
H10_2 C9_2 1_555 1_555
C10_2 C3_2 1_555 1_555
H11_2 C10_2 1_555 1_555
C11_2 N2_2 1_555 1_555
C12_2 O4_2 1_555 1_555
C13_2 C12_2 1_555 1_555
H12_2 C13_2 1_555 1_555
C14_2 C13_2 1_555 1_555
H13_2 C14_2 1_555 1_555
C15_2 C14_2 1_555 1_555
C16_2 C11_2 1_555 1_555
C17_2 C15_2 1_555 1_555
H14_2 C17_2 1_555 1_555
C18_2 C17_2 1_555 1_555
H15_2 C18_2 1_555 1_555
C19_2 C18_2 1_555 1_555
H16_2 C19_2 1_555 1_555
C20_2 C16_2 1_555 1_555
H17_2 C20_2 1_555 1_555
C1 C6 1_555 1_555
C5 C6 1_555 1_555
C9 C10 1_555 1_555
C11 C12 1_555 1_555
C15 C16 1_555 1_555
C19 C20 1_555 1_555
S1_2 O2_2 1_555 1_555
C1_2 C6_2 1_555 1_555
C5_2 C6_2 1_555 1_555
C9_2 C10_2 1_555 1_555
C11_2 C12_2 1_555 1_555
C15_2 C16_2 1_555 1_555
C19_2 C20_2 1_555 1_555

#END
