
#######################################################################
#
#                 Cambridge Crystallographic Data Centre
#                                CCDC 
#
#######################################################################
#
# If this CIF has been generated from an entry in the Cambridge 
# Structural Database, then it will include bibliographic, chemical, 
# crystal, experimental, refinement or atomic coordinate data resulting 
# from the CCDC's data processing and validation procedures.
#
#######################################################################

data_CAWDOU02
_symmetry_cell_setting           tetragonal
_symmetry_space_group_name_H-M   'P 41 21 2'
_symmetry_Int_Tables_number      92
_space_group_name_Hall           'P 4abw 2nw'
loop_
_symmetry_equiv_pos_site_id
_symmetry_equiv_pos_as_xyz
1 x,y,z
2 -x,-y,1/2+z
3 1/2-y,1/2+x,1/4+z
4 1/2+y,1/2-x,3/4+z
5 1/2-x,1/2+y,1/4-z
6 1/2+x,1/2-y,3/4-z
7 y,x,-z
8 -y,-x,1/2-z
_cell_length_a                   16.4355(6)
_cell_length_b                   16.4355(6)
_cell_length_c                   13.9077(6)
_cell_angle_alpha                90
_cell_angle_beta                 90
_cell_angle_gamma                90
_cell_volume                     3756.83
loop_
_atom_site_label
_atom_site_type_symbol
_atom_site_fract_x
_atom_site_fract_y
_atom_site_fract_z
Cu1 Cu 0.182614(16) 0.182614(16) 0.5000
C1 C 0.07176(15) 0.24761(15) 0.35016(17)
H1 H 0.0321 0.2187 0.3834
C2 C 0.04938(13) 0.29093(13) 0.27037(16)
H2 H -0.0042 0.2901 0.2489
C3 C 0.10730(12) 0.33579(12) 0.22235(14)
C4 C 0.18552(14) 0.33484(14) 0.25632(16)
H3 H 0.2258 0.3650 0.2257
C5 C 0.20402(15) 0.28937(15) 0.33541(17)
H4 H 0.2574 0.2892 0.3576
C6 C 0.08635(13) 0.38430(12) 0.13763(15)
C7 C 0.10635(13) 0.46383(13) 0.02114(14)
C8 C 0.16467(14) 0.60307(14) -0.17775(16)
H5 H 0.1400 0.6294 -0.2292
C9 C 0.11702(14) 0.55542(14) -0.11896(18)
H6 H 0.0616 0.5498 -0.1305
C10 C 0.15359(14) 0.51582(13) -0.04187(16)
C11 C 0.23495(15) 0.52780(15) -0.02753(17)
H7 H 0.2607 0.5035 0.0246
C12 C 0.27863(15) 0.57530(15) -0.08950(17)
H8 H 0.3342 0.5814 -0.0791
N1 N 0.14866(10) 0.24519(11) 0.38230(12)
N2 N 0.01741(12) 0.39118(12) 0.09546(14)
N3 N 0.03015(12) 0.44478(12) 0.01792(15)
N4 N 0.24454(12) 0.61346(12) -0.16479(13)
O1 O 0.14618(9) 0.42857(8) 0.09634(9)
O2 O 0.08728(9) 0.08728(9) 0.5000
H9 H 0.0933 0.0352 0.4967
Cu1B Cu 0.317386(16) 0.682614(16) -0.2500
Cu1C Cu 0.682614(16) 0.317386(16) 1.2500
C1F C 0.24761(15) 0.07176(15) 0.64984(17)
H1F H 0.2187 0.0321 0.6166
C2F C 0.29093(13) 0.04938(13) 0.72963(16)
H2F H 0.2901 -0.0042 0.7511
C3F C 0.33579(12) 0.10730(12) 0.77765(14)
C4F C 0.33484(14) 0.18552(14) 0.74368(16)
H3F H 0.3650 0.2258 0.7743
C5F C 0.28937(15) 0.20402(15) 0.66459(17)
H4F H 0.2892 0.2574 0.6424
C6F C 0.38430(12) 0.08635(13) 0.86237(15)
C7F C 0.46383(13) 0.10635(13) 0.97886(14)
C8F C 0.60307(14) 0.16467(14) 1.17775(16)
H5F H 0.6294 0.1400 1.2292
C9F C 0.55542(14) 0.11702(14) 1.11896(18)
H6F H 0.5498 0.0616 1.1305
C10F C 0.51582(13) 0.15359(14) 1.04187(16)
C11F C 0.52780(15) 0.23495(15) 1.02753(17)
H7F H 0.5035 0.2607 0.9754
C12F C 0.57530(15) 0.27863(15) 1.08950(17)
H8F H 0.5814 0.3342 1.0791
N1F N 0.24519(11) 0.14866(10) 0.61770(12)
N2F N 0.39118(12) 0.01741(12) 0.90454(14)
N3F N 0.44478(12) 0.03015(12) 0.98208(15)
N4F N 0.61346(12) 0.24454(12) 1.16479(13)
N4C N 0.11346(12) 0.25546(12) 0.58521(13)
N4D N 0.25546(12) 0.11346(12) 0.41479(13)
O1F O 0.42857(8) 0.14618(9) 0.90366(9)
H9F H 0.0352 0.0933 0.5033
loop_
_geom_bond_atom_site_label_1
_geom_bond_atom_site_label_2
_geom_bond_site_symmetry_1
_geom_bond_site_symmetry_2
Cu1 N1 1_555 1_555
C1 H1 1_555 1_555
C2 C1 1_555 1_555
H2 C2 1_555 1_555
C3 C2 1_555 1_555
C4 C3 1_555 1_555
H3 C4 1_555 1_555
C5 C4 1_555 1_555
H4 C5 1_555 1_555
C6 C3 1_555 1_555
C7 C10 1_555 1_555
C8 H5 1_555 1_555
C9 C8 1_555 1_555
H6 C9 1_555 1_555
C10 C9 1_555 1_555
C11 C10 1_555 1_555
H7 C11 1_555 1_555
C12 C11 1_555 1_555
H8 C12 1_555 1_555
N1 C1 1_555 1_555
N2 C6 1_555 1_555
N3 C7 1_555 1_555
N4 C8 1_555 1_555
O1 C6 1_555 1_555
O2 Cu1 1_555 1_555
H9 O2 1_555 1_555
Cu1B N4 1_555 1_555
Cu1C N4F 1_555 1_555
C1F H1F 1_555 1_555
C2F C1F 1_555 1_555
H2F C2F 1_555 1_555
C3F C2F 1_555 1_555
C4F C3F 1_555 1_555
H3F C4F 1_555 1_555
C5F C4F 1_555 1_555
H4F C5F 1_555 1_555
C6F C3F 1_555 1_555
C7F C10F 1_555 1_555
C8F H5F 1_555 1_555
C9F C8F 1_555 1_555
H6F C9F 1_555 1_555
C10F C9F 1_555 1_555
C11F C10F 1_555 1_555
H7F C11F 1_555 1_555
C12F C11F 1_555 1_555
H8F C12F 1_555 1_555
N1F Cu1 1_555 1_555
N2F C6F 1_555 1_555
N3F C7F 1_555 1_555
N4F C8F 1_555 1_555
N4C Cu1 1_555 1_555
N4D Cu1 1_555 1_555
O1F C6F 1_555 1_555
H9F O2 1_555 1_555
C5 N1 1_555 1_555
C7 O1 1_555 1_555
C12 N4 1_555 1_555
N2 N3 1_555 1_555
C1F N1F 1_555 1_555
C5F N1F 1_555 1_555
C7F O1F 1_555 1_555
C12F N4F 1_555 1_555
N2F N3F 1_555 1_555

#END
