
#######################################################################
#
#                 Cambridge Crystallographic Data Centre
#                                CCDC 
#
#######################################################################
#
# If this CIF has been generated from an entry in the Cambridge 
# Structural Database, then it will include bibliographic, chemical, 
# crystal, experimental, refinement or atomic coordinate data resulting 
# from the CCDC's data processing and validation procedures.
#
#######################################################################

data_CAWDOU01
_symmetry_cell_setting           tetragonal
_symmetry_space_group_name_H-M   'P 41 21 2'
_symmetry_Int_Tables_number      92
_space_group_name_Hall           'P 4abw 2nw'
loop_
_symmetry_equiv_pos_site_id
_symmetry_equiv_pos_as_xyz
1 x,y,z
2 -x,-y,1/2+z
3 1/2-y,1/2+x,1/4+z
4 1/2+y,1/2-x,3/4+z
5 1/2-x,1/2+y,1/4-z
6 1/2+x,1/2-y,3/4-z
7 y,x,-z
8 -y,-x,1/2-z
_cell_length_a                   16.403(2)
_cell_length_b                   16.403(2)
_cell_length_c                   13.905(3)
_cell_angle_alpha                90
_cell_angle_beta                 90
_cell_angle_gamma                90
_cell_volume                     3741.26
loop_
_atom_site_label
_atom_site_type_symbol
_atom_site_fract_x
_atom_site_fract_y
_atom_site_fract_z
O3 O 1.6095(8) 1.4248(5) 0.9510(9)
Cl1 Cl 1.12827(12) 1.12827(12) 0.5000
O5 O 1.0801(6) 1.1545(7) 0.5843(7)
O7 O 1.2121(4) 1.1331(5) 0.5262(6)
O5F O 1.1545(7) 1.0801(6) 0.4157(7)
O7F O 1.1331(5) 1.2121(4) 0.4738(6)
O8 O 1.4844(6) 1.3064(8) 0.9909(10)
O9 O 1.3774(5) 1.2064(5) 0.9503(7)
O10 O 1.3537(10) 1.3527(8) 0.9209(10)
Cl3 Cl 1.3081(4) 1.2369(4) 0.9236(5)
O12 O 1.3204(9) 1.3041(6) 0.8691(9)
O14 O 1.2664(8) 1.1820(8) 0.8721(11)
O1 O 0.4136(2) 0.4136(2) 0.5000
H1 H 0.444(2) 0.385(2) 0.525(3)
O2 O 0.14565(17) 0.57246(17) 0.15451(19)
N1 N 0.2427(2) 0.3884(2) 0.4145(2)
N2 N 0.0304(2) 0.5553(2) 0.2318(3)
N3 N 0.0174(2) 0.6097(2) 0.1553(3)
N4 N 0.2542(2) 0.3510(2) 0.6157(2)
C1 C 0.2780(3) 0.4262(3) 0.3401(3)
H3 H 0.3337 0.4195 0.3303
C2 C 0.2360(3) 0.4733(3) 0.2793(3)
H4 H 0.2626 0.4984 0.2282
C3 C 0.1530(3) 0.4849(3) 0.2920(3)
C4 C 0.1171(3) 0.4451(3) 0.3705(3)
H5 H 0.0615 0.4506 0.3823
C5 C 0.1637(3) 0.3988(3) 0.4285(3)
H6 H 0.1393 0.3731 0.4807
C6 C 0.1059(3) 0.5372(3) 0.2297(3)
C7 C 0.0865(2) 0.6173(3) 0.1125(3)
C8 C 0.1063(2) 0.6639(2) 0.0280(3)
C9 C 0.1869(3) 0.6657(3) -0.0061(3)
H7 H 0.2277 0.6361 0.0245
C10 C 0.2114(3) 0.2963(3) 0.6657(3)
H8 H 0.2132 0.2424 0.6451
C11 C 0.2526(3) 0.4279(3) 0.6496(4)
H9 H 0.2820 0.4678 0.6173
C12 C 0.0502(3) 0.7090(3) -0.0195(3)
H10 H -0.0034 0.7107 0.0024
Cu1 Cu 0.31741(3) 0.31741(3) 0.5000
H1F H 0.385(2) 0.444(2) 0.475(3)
N1F N 0.3884(2) 0.2427(2) 0.5855(2)
N4F N 0.3510(2) 0.2542(2) 0.3843(2)
C9C C 0.1657(3) 0.3131(3) 0.7439(3)
C10B C 0.2037(3) 0.7114(3) -0.0843(3)
C11B C 0.0721(3) 0.7526(3) -0.1004(4)
C12C C 0.2090(3) 0.4498(3) 0.7305(3)
H2? H -0.1421 0.2291 1.2024
O4? O 1.1076(8) 1.0510(6) 0.4648(11)
O6? O 1.1106(6) 1.1851(7) 0.4232(6)
Cl2? Cl 1.3926(6) 1.2917(6) 0.9873(7)
O11? O 1.3571(10) 1.2996(10) 1.0863(9)
O13? O 1.2613(7) 1.2613(7) 1.0000
loop_
_geom_bond_atom_site_label_1
_geom_bond_atom_site_label_2
_geom_bond_site_symmetry_1
_geom_bond_site_symmetry_2
O1 H1 1_555 1_555
O2 C6 1_555 1_555
N1 C1 1_555 1_555
N2 N3 1_555 1_555
N3 C7 1_555 1_555
N4 C10 1_555 1_555
C1 H3 1_555 1_555
C2 C1 1_555 1_555
H4 C2 1_555 1_555
C3 C2 1_555 1_555
C4 C3 1_555 1_555
H5 C4 1_555 1_555
C5 N1 1_555 1_555
H6 C5 1_555 1_555
C6 N2 1_555 1_555
C7 O2 1_555 1_555
C8 C7 1_555 1_555
C9 C8 1_555 1_555
H7 C9 1_555 1_555
C10 H8 1_555 1_555
C11 N4 1_555 1_555
H9 C11 1_555 1_555
C12 C8 1_555 1_555
H10 C12 1_555 1_555
Cl1 O5 1_555 1_555
O7 Cl1 1_555 1_555
O9 Cl3 1_555 1_555
O10 Cl3 1_555 1_555
Cl3 O12 1_555 1_555
O12 O10 1_555 1_555
O14 Cl3 1_555 1_555
Cu1 O1 1_555 1_555
H1F O1 1_555 1_555
N1F Cu1 1_555 1_555
N4F Cu1 1_555 1_555
C9C C10 1_555 1_555
C10B C9 1_555 1_555
C11B C12 1_555 1_555
C12C C11 1_555 1_555
O5F Cl1 1_555 1_555
O7F Cl1 1_555 1_555
N1 Cu1 1_555 1_555
N4 Cu1 1_555 1_555
C3 C6 1_555 1_555
C4 C5 1_555 1_555

#END
