
#######################################################################
#
#                 Cambridge Crystallographic Data Centre
#                                CCDC 
#
#######################################################################
#
# If this CIF has been generated from an entry in the Cambridge 
# Structural Database, then it will include bibliographic, chemical, 
# crystal, experimental, refinement or atomic coordinate data resulting 
# from the CCDC's data processing and validation procedures.
#
#######################################################################

data_CAWDOU
_symmetry_cell_setting           orthorhombic
_symmetry_space_group_name_H-M   'P 21 21 21'
_symmetry_Int_Tables_number      19
_space_group_name_Hall           'P 2ac 2ab'
loop_
_symmetry_equiv_pos_site_id
_symmetry_equiv_pos_as_xyz
1 x,y,z
2 1/2-x,-y,1/2+z
3 -x,1/2+y,1/2-z
4 1/2+x,1/2-y,-z
_cell_length_a                   13.7327(14)
_cell_length_b                   16.4189(16)
_cell_length_c                   16.5975(16)
_cell_angle_alpha                90
_cell_angle_beta                 90
_cell_angle_gamma                90
_cell_volume                     3742.34
loop_
_atom_site_label
_atom_site_type_symbol
_atom_site_fract_x
_atom_site_fract_y
_atom_site_fract_z
Cu1 Cu 0.37634(7) 0.43889(6) 0.32204(6)
C1 C 0.5421(6) 0.4755(6) 0.4266(6)
H1 H 0.5556 0.4193 0.4190
C2 C 0.6016(6) 0.5244(5) 0.4749(6)
H2 H 0.6547 0.5001 0.5026
C3 C 0.5855(6) 0.6071(5) 0.4834(5)
C4 C 0.5061(5) 0.6415(4) 0.4459(4)
H3 H 0.4912 0.6975 0.4534
C5 C 0.4491(6) 0.5938(5) 0.3978(5)
H4 H 0.3981 0.6191 0.3684
C6 C 0.6503(5) 0.6512(4) 0.5353(4)
C7 C 0.7627(6) 0.6703(5) 0.6195(4)
C8 C 0.9600(7) 0.5464(6) 0.7154(6)
H5 H 0.9820 0.4915 0.7155
C9 C 0.8833(6) 0.5675(5) 0.6668(6)
H6 H 0.8541 0.5275 0.6332
C10 C 0.8488(5) 0.6443(4) 0.6662(4)
C11 C 0.8934(7) 0.7006(5) 0.7184(5)
H7 H 0.8684 0.7543 0.7236
C12 C 0.9745(6) 0.6765(5) 0.7622(5)
H8 H 1.0092 0.7160 0.7927
C13 C 0.2192(6) 0.4967(5) 0.4299(5)
H9 H 0.2509 0.4637 0.4689
C14 C 0.1351(6) 0.5400(4) 0.4515(4)
H10 H 0.1096 0.5377 0.5047
C15 C 0.0921(5) 0.5847(4) 0.3940(4)
C16 C 0.1260(5) 0.5910(4) 0.3183(5)
H11 H 0.0949 0.6239 0.2788
C17 C 0.2119(5) 0.5449(5) 0.3007(4)
H12 H 0.2381 0.5461 0.2478
C18 C 0.0031(5) 0.6337(4) 0.4144(5)
C19 C -0.1131(7) 0.7186(4) 0.3920(4)
C20 C -0.3086(6) 0.8584(5) 0.3346(5)
H13 H -0.3620 0.8850 0.3597
C21 C -0.2519(6) 0.8093(5) 0.3784(4)
H14 H -0.2672 0.8008 0.4336
C22 C -0.1714(7) 0.7704(5) 0.3459(5)
C23 C -0.1515(6) 0.7841(6) 0.2660(5)
H15 H -0.0967 0.7589 0.2415
C24 C -0.2098(7) 0.8334(6) 0.2223(6)
H16 H -0.1939 0.8423 0.1673
N1 N 0.4613(5) 0.5130(4) 0.3897(4)
N2 N 0.6496(5) 0.7259(4) 0.5573(4)
N3 N 0.7263(5) 0.7402(4) 0.6115(4)
N4 N 1.0044(4) 0.6005(4) 0.7625(4)
N5 N 0.2553(5) 0.5010(4) 0.3562(4)
N6 N -0.0425(5) 0.6408(4) 0.4803(4)
N7 N -0.1190(6) 0.6927(4) 0.4670(4)
N8 N -0.2912(4) 0.8715(4) 0.2531(4)
O1 O 0.7236(3) 0.6110(3) 0.5743(3)
O2 O -0.0346(4) 0.6806(3) 0.3549(3)
O3 O 0.3731(5) 0.3461(3) 0.4155(3)
H17 H 0.3590 0.2955 0.3996
H18 H 0.3922 0.3516 0.4647
Cu1A Cu 1.12366(7) 0.56111(6) 0.82204(6)
Cu1B Cu -0.37634(7) 0.93889(6) 0.17796(6)
N4A N 0.4956(4) 0.3995(4) 0.2625(4)
N8B N 0.2912(4) 0.3715(4) 0.2469(4)
Cl1 Cl 0.3779(11) 0.6242(10) 0.1283(9)
O4 O 0.4450(13) 0.6381(12) 0.1921(10)
O5 O 0.3512(16) 0.5391(9) 0.1291(13)
O6 O 0.2933(12) 0.6737(11) 0.1394(12)
O7 O 0.4256(14) 0.6398(14) 0.0528(9)
Cl2? Cl 0.3833(13) 0.6073(10) 0.1328(10)
O8? O 0.2905(11) 0.5743(11) 0.1092(13)
O9? O 0.3917(16) 0.6892(11) 0.1039(11)
O10? O 0.3916(17) 0.6014(13) 0.2185(8)
O11? O 0.4595(12) 0.5616(14) 0.0946(11)
Cl3? Cl 0.3809(13) 0.6185(10) 0.1298(11)
O12? O 0.3116(13) 0.5527(10) 0.1185(14)
O13? O 0.4099(17) 0.6179(14) 0.2123(9)
O14? O 0.4628(11) 0.6037(13) 0.0781(11)
O15? O 0.3374(16) 0.6951(9) 0.1113(12)
loop_
_geom_bond_atom_site_label_1
_geom_bond_atom_site_label_2
_geom_bond_site_symmetry_1
_geom_bond_site_symmetry_2
Cu1 N1 1_555 1_555
C1 H1 1_555 1_555
C2 C1 1_555 1_555
H2 C2 1_555 1_555
C3 C2 1_555 1_555
C4 C3 1_555 1_555
H3 C4 1_555 1_555
C5 C4 1_555 1_555
H4 C5 1_555 1_555
C6 C3 1_555 1_555
C7 C10 1_555 1_555
C8 H5 1_555 1_555
C9 C8 1_555 1_555
H6 C9 1_555 1_555
C10 C9 1_555 1_555
C11 C10 1_555 1_555
H7 C11 1_555 1_555
C12 C11 1_555 1_555
H8 C12 1_555 1_555
C13 H9 1_555 1_555
C14 C13 1_555 1_555
H10 C14 1_555 1_555
C15 C14 1_555 1_555
C16 C15 1_555 1_555
H11 C16 1_555 1_555
C17 C16 1_555 1_555
H12 C17 1_555 1_555
C18 C15 1_555 1_555
C19 C22 1_555 1_555
C20 H13 1_555 1_555
C21 C20 1_555 1_555
H14 C21 1_555 1_555
C22 C21 1_555 1_555
C23 C22 1_555 1_555
H15 C23 1_555 1_555
C24 C23 1_555 1_555
H16 C24 1_555 1_555
N1 C1 1_555 1_555
N2 C6 1_555 1_555
N3 C7 1_555 1_555
N4 C8 1_555 1_555
N5 Cu1 1_555 1_555
N6 C18 1_555 1_555
N7 C19 1_555 1_555
N8 C20 1_555 1_555
O1 C6 1_555 1_555
O2 C18 1_555 1_555
O3 Cu1 1_555 1_555
H17 O3 1_555 1_555
H18 O3 1_555 1_555
Cl1 O4 1_555 1_555
O5 Cl1 1_555 1_555
O6 Cl1 1_555 1_555
O7 Cl1 1_555 1_555
Cu1A N4 1_555 1_555
Cu1B N8 1_555 1_555
N4A Cu1 1_555 1_555
N8B Cu1 1_555 1_555
C5 N1 1_555 1_555
C7 O1 1_555 1_555
C12 N4 1_555 1_555
C13 N5 1_555 1_555
C17 N5 1_555 1_555
C19 O2 1_555 1_555
C24 N8 1_555 1_555
N2 N3 1_555 1_555
N6 N7 1_555 1_555

#END
