
#######################################################################
#
#                 Cambridge Crystallographic Data Centre
#                                CCDC 
#
#######################################################################
#
# If this CIF has been generated from an entry in the Cambridge 
# Structural Database, then it will include bibliographic, chemical, 
# crystal, experimental, refinement or atomic coordinate data resulting 
# from the CCDC's data processing and validation procedures.
#
#######################################################################

data_CAWFEM
_symmetry_cell_setting           hexagonal
_symmetry_space_group_name_H-M   'P 61'
_symmetry_Int_Tables_number      169
_space_group_name_Hall           'P 61'
loop_
_symmetry_equiv_pos_site_id
_symmetry_equiv_pos_as_xyz
1 x,y,z
2 -y,x-y,1/3+z
3 -x+y,-x,2/3+z
4 -x,-y,1/2+z
5 y,-x+y,5/6+z
6 x-y,x,1/6+z
_cell_length_a                   11.559(3)
_cell_length_b                   11.559(3)
_cell_length_c                   44.627(14)
_cell_angle_alpha                90
_cell_angle_beta                 90
_cell_angle_gamma                120
_cell_volume                     5163.79
loop_
_atom_site_label
_atom_site_type_symbol
_atom_site_fract_x
_atom_site_fract_y
_atom_site_fract_z
F1 F -0.6013(16) 0.1559(18) 0.3131(5)
F2 F -0.627(2) -0.0751(17) 0.2947(5)
F3 F -0.446(2) -0.0750(17) 0.2556(6)
F4 F -0.243(2) 0.1557(19) 0.2349(4)
F5 F 0.1090(19) 0.5250(19) 0.2132(5)
F6 F 0.3314(17) 0.761(2) 0.1986(4)
F7 F 0.3542(18) 0.9920(18) 0.2170(5)
F8 F 0.1616(17) 0.9995(18) 0.2515(4)
F9 F -0.1619(17) 0.997(2) 0.2978(5)
F10 F -0.361(2) 0.9936(17) 0.3314(4)
F11 F -0.5698(16) 0.7623(19) 0.3502(4)
F12 F -0.5853(18) 0.5259(18) 0.3359(5)
C1 C -0.316(2) 0.276(2) 0.2641(6)
C2 C -0.410(2) 0.276(2) 0.2849(5)
C3 C -0.511(3) 0.155(3) 0.2937(6)
C4 C -0.531(3) 0.032(3) 0.2840(8)
C5 C -0.438(3) 0.032(4) 0.2639(7)
C6 C -0.336(3) 0.154(3) 0.2547(6)
C7 C 0.033(3) 0.763(3) 0.2488(8)
C8 C 0.016(2) 0.639(2) 0.2390(6)
C9 C 0.114(3) 0.642(3) 0.2227(6)
C10 C 0.230(3) 0.760(3) 0.2147(6)
C11 C 0.241(3) 0.878(3) 0.2255(7)
C12 C 0.145(3) 0.878(3) 0.2412(7)
C13 C -0.377(2) 0.641(2) 0.3095(6)
C14 C -0.273(3) 0.761(3) 0.3003(6)
C15 C -0.268(3) 0.879(3) 0.3077(7)
C16 C -0.365(3) 0.876(2) 0.3240(6)
C17 C -0.468(3) 0.763(3) 0.3335(7)
C18 C -0.476(3) 0.645(3) 0.3258(7)
N1 N -0.0524(18) 0.553(2) 0.3364(5)
N2 N 0.0526(18) 0.606(2) 0.3794(5)
O1 O -0.115(2) 0.559(2) 0.3135(4)
O2 O 0.114(2) 0.6726(18) 0.4026(4)
C19 C 0.000(4) 0.778(3) 0.3582(10)
C20 C 0.086(3) 0.878(3) 0.3400(8)
H1 H 0.1458 0.8676 0.3279
C21 C 0.082(3) 0.996(3) 0.3401(8)
H2 H 0.1379 1.0650 0.3273
C22 C 0.001(4) 1.013(3) 0.3576(10)
H3 H 0.0019 1.0944 0.3574
C23 C -0.082(3) 0.917(3) 0.3756(8)
H4 H -0.1390 0.9301 0.3881
C24 C -0.085(3) 0.792(3) 0.3759(8)
H5 H -0.1442 0.7222 0.3882
C25 C 0.000(2) 0.648(2) 0.3579(7)
C26 C 0.014(3) 0.463(3) 0.3754(8)
C27 C -0.014(3) 0.444(3) 0.3402(8)
C28 C 0.128(3) 0.441(3) 0.3829(8)
H6 H 0.1430 0.4493 0.4042
H7 H 0.2073 0.5061 0.3728
H8 H 0.1068 0.3530 0.3767
C29 C -0.099(3) 0.384(3) 0.3946(8)
H9 H -0.0713 0.4002 0.4151
H10 H -0.1343 0.2905 0.3901
H11 H -0.1666 0.4071 0.3911
C30 C 0.107(4) 0.485(5) 0.3222(12)
H12 H 0.0845 0.4747 0.3013
H13 H 0.1449 0.4295 0.3271
H14 H 0.1712 0.5763 0.3264
C31 C -0.127(4) 0.318(3) 0.3315(9)
H15 H -0.1365 0.3147 0.3101
H16 H -0.2065 0.3092 0.3406
H17 H -0.1144 0.2460 0.3381
Hg1 Hg -0.14908(9) 0.45663(10) 0.250048(19)
Hg2 Hg -0.11639(11) 0.76719(9) 0.27438(3)
Hg3 Hg -0.39417(10) 0.45681(10) 0.298711(19)
O2D O -0.3274(18) 0.5586(27) 0.2359(4)
Hg1E Hg 0.39429(13) 0.85092(9) 0.416715(19)
Hg2E Hg 0.11642(14) 0.88361(11) 0.44105(3)
Hg3E Hg 0.14902(14) 0.60583(10) 0.465378(19)
loop_
_geom_bond_atom_site_label_1
_geom_bond_atom_site_label_2
_geom_bond_site_symmetry_1
_geom_bond_site_symmetry_2
F1 C3 1_555 1_555
F2 C4 1_555 1_555
F3 C5 1_555 1_555
F4 C6 1_555 1_555
F5 C9 1_555 1_555
F6 C10 1_555 1_555
F7 C11 1_555 1_555
F8 C12 1_555 1_555
F9 C15 1_555 1_555
F10 C16 1_555 1_555
F11 C17 1_555 1_555
F12 C18 1_555 1_555
C1 C2 1_555 1_555
C2 C3 1_555 1_555
C3 C4 1_555 1_555
C4 C5 1_555 1_555
C5 C6 1_555 1_555
C6 C1 1_555 1_555
C7 C8 1_555 1_555
C8 C9 1_555 1_555
C9 C10 1_555 1_555
C10 C11 1_555 1_555
C11 C12 1_555 1_555
C12 C7 1_555 1_555
C13 C14 1_555 1_555
C14 C15 1_555 1_555
C15 C16 1_555 1_555
C16 C17 1_555 1_555
C17 C18 1_555 1_555
C18 C13 1_555 1_555
N1 O1 1_555 1_555
N2 O2 1_555 1_555
O1 Hg1 1_555 1_555
O2 Hg1E 1_555 1_555
C19 C20 1_555 1_555
C20 H1 1_555 1_555
C21 C20 1_555 1_555
H2 C21 1_555 1_555
C22 C21 1_555 1_555
H3 C22 1_555 1_555
C23 C22 1_555 1_555
H4 C23 1_555 1_555
C24 C19 1_555 1_555
H5 C24 1_555 1_555
C25 N1 1_555 1_555
C26 N2 1_555 1_555
C27 N1 1_555 1_555
C28 C26 1_555 1_555
H6 C28 1_555 1_555
H7 C28 1_555 1_555
H8 C28 1_555 1_555
C29 C26 1_555 1_555
H9 C29 1_555 1_555
H10 C29 1_555 1_555
H11 C29 1_555 1_555
C30 C27 1_555 1_555
H12 C30 1_555 1_555
H13 C30 1_555 1_555
H14 C30 1_555 1_555
C31 C27 1_555 1_555
H15 C31 1_555 1_555
H16 C31 1_555 1_555
H17 C31 1_555 1_555
Hg1 C1 1_555 1_555
Hg2 C7 1_555 1_555
Hg3 C2 1_555 1_555
O2D Hg1 1_555 1_555
Hg2E O2 1_555 1_555
Hg3E O2 1_555 1_555
C8 Hg1 1_555 1_555
C13 Hg3 1_555 1_555
C14 Hg2 1_555 1_555
N2 C25 1_555 1_555
O1 Hg2 1_555 1_555
O1 Hg3 1_555 1_555
C19 C25 1_555 1_555
C23 C24 1_555 1_555
C26 C27 1_555 1_555
Hg2 O2D 1_555 1_555
Hg3 O2D 1_555 1_555

#END
