
#######################################################################
#
#                 Cambridge Crystallographic Data Centre
#                                CCDC 
#
#######################################################################
#
# If this CIF has been generated from an entry in the Cambridge 
# Structural Database, then it will include bibliographic, chemical, 
# crystal, experimental, refinement or atomic coordinate data resulting 
# from the CCDC's data processing and validation procedures.
#
#######################################################################

data_CAWKAO
_symmetry_cell_setting           monoclinic
_symmetry_space_group_name_H-M   'P 21/c'
_symmetry_Int_Tables_number      14
_space_group_name_Hall           '-P 2ybc'
loop_
_symmetry_equiv_pos_site_id
_symmetry_equiv_pos_as_xyz
1 x,y,z
2 -x,1/2+y,1/2-z
3 -x,-y,-z
4 x,1/2-y,1/2+z
_cell_length_a                   13.302(4)
_cell_length_b                   10.981(3)
_cell_length_c                   13.804(4)
_cell_angle_alpha                90
_cell_angle_beta                 93.587(5)
_cell_angle_gamma                90
_cell_volume                     2012.39
loop_
_atom_site_label
_atom_site_type_symbol
_atom_site_fract_x
_atom_site_fract_y
_atom_site_fract_z
Zn1 Zn 0.443185(15) 0.847856(18) 0.512308(16)
O1 O 0.46042(12) 0.72649(14) 0.61740(12)
F1 F 0.80644(11) 0.83510(15) 0.01764(11)
F2 F 0.91679(12) 0.96397(13) 0.07265(11)
F3 F 0.95916(12) 0.82047(18) -0.02073(11)
O2 O 0.56914(11) 0.82622(13) 0.44759(12)
O3 O 0.60541(12) 1.01865(13) 0.41218(12)
F4 F 0.84260(11) 0.60155(15) 0.05232(12)
F5 F 0.92662(11) 0.55581(11) 0.18489(12)
O4 O 1.36559(12) 0.94186(16) 0.33300(13)
F6 F 1.00443(12) 0.60609(16) 0.05937(14)
C1 C 1.10869(17) 0.8484(2) 0.14901(17)
H1 H 1.0998 0.8750 0.0851
C2 C 0.69733(14) 0.86494(16) 0.34045(14)
C3 C 0.90238(18) 0.8465(2) 0.05257(17)
C4 C 1.19996(16) 0.8685(2) 0.20155(17)
H2 H 1.2510 0.9104 0.1728
O5 O 1.32621(11) 0.79335(14) 0.43343(12)
C5 C 0.84287(13) 0.79401(16) 0.21363(13)
C6 C 0.61819(13) 0.90638(17) 0.40565(13)
C7 C 0.77841(14) 0.94057(18) 0.32504(15)
H3 H 0.7838 1.0157 0.3560
N1 N 0.49947(15) 0.53936(17) 0.68183(15)
H4 H 0.4569 0.5405 0.7262
C8 C 1.04854(15) 0.7439(2) 0.28557(16)
H5 H 0.9980 0.7010 0.3143
C9 C 0.92533(14) 0.76530(18) 0.14267(14)
C10 C 0.51142(15) 0.62975(18) 0.62011(15)
C11 C 1.31042(16) 0.85730(18) 0.35627(16)
C12 C 0.85111(14) 0.90454(18) 0.26384(15)
H6 H 0.9064 0.9546 0.2559
N2 N 0.58458(14) 0.60198(16) 0.56118(14)
H7 H 0.5999 0.6455 0.5124
C13 C 1.21579(15) 0.82685(18) 0.29599(16)
C14 C 0.63469(16) 0.48900(19) 0.59022(17)
H8 H 0.7022 0.5041 0.6183
H9 H 0.6383 0.4339 0.5356
C15 C 1.14000(15) 0.7619(2) 0.33698(16)
H10 H 1.1506 0.7302 0.3993
C16 C 0.76078(15) 0.71972(17) 0.22789(15)
H11 H 0.7531 0.6468 0.1940
C17 C 1.03062(13) 0.78838(17) 0.19227(14)
C18 C 0.68976(14) 0.75395(17) 0.29281(16)
H12 H 0.6367 0.7017 0.3043
C19 C 0.92410(17) 0.6315(2) 0.10877(18)
C20 C 0.56667(17) 0.43796(19) 0.66587(17)
H13 H 0.5296 0.3673 0.6411
H14 H 0.6054 0.4159 0.7252
Zn1B Zn 0.556815(15) 1.152144(18) 0.487692(16)
Zn1_2 Zn 1.443185(15) 0.847856(18) 0.512308(16)
O3B O 0.39459(12) 0.98135(13) 0.58782(12)
O5_2 O 0.32621(11) 0.79335(14) 0.43343(12)
loop_
_geom_bond_atom_site_label_1
_geom_bond_atom_site_label_2
_geom_bond_site_symmetry_1
_geom_bond_site_symmetry_2
Zn1 O1 1_555 1_555
O1 C10 1_555 1_555
F1 C3 1_555 1_555
F2 C3 1_555 1_555
F3 C3 1_555 1_555
O2 Zn1 1_555 1_555
O3 C6 1_555 1_555
F4 C19 1_555 1_555
F5 C19 1_555 1_555
O4 C11 1_555 1_555
F6 C19 1_555 1_555
C1 H1 1_555 1_555
C2 C6 1_555 1_555
C3 C9 1_555 1_555
C4 C1 1_555 1_555
H2 C4 1_555 1_555
O5 C11 1_555 1_555
C5 C9 1_555 1_555
C6 O2 1_555 1_555
C7 C2 1_555 1_555
H3 C7 1_555 1_555
N1 H4 1_555 1_555
C8 H5 1_555 1_555
C9 C17 1_555 1_555
C10 N1 1_555 1_555
C11 C13 1_555 1_555
C12 C5 1_555 1_555
H6 C12 1_555 1_555
N2 C10 1_555 1_555
H7 N2 1_555 1_555
C13 C4 1_555 1_555
C14 N2 1_555 1_555
H8 C14 1_555 1_555
H9 C14 1_555 1_555
C15 C8 1_555 1_555
H10 C15 1_555 1_555
C16 C5 1_555 1_555
H11 C16 1_555 1_555
C17 C1 1_555 1_555
C18 C2 1_555 1_555
H12 C18 1_555 1_555
C19 C9 1_555 1_555
C20 N1 1_555 1_555
H13 C20 1_555 1_555
H14 C20 1_555 1_555
Zn1B O3 1_555 1_555
Zn1_2 O5 1_555 1_555
O3B Zn1 1_555 1_555
O5_2 Zn1 1_555 1_555
C7 C12 1_555 1_555
C8 C17 1_555 1_555
C13 C15 1_555 1_555
C14 C20 1_555 1_555
C16 C18 1_555 1_555

#END
