
#######################################################################
#
#                 Cambridge Crystallographic Data Centre
#                                CCDC 
#
#######################################################################
#
# If this CIF has been generated from an entry in the Cambridge 
# Structural Database, then it will include bibliographic, chemical, 
# crystal, experimental, refinement or atomic coordinate data resulting 
# from the CCDC's data processing and validation procedures.
#
#######################################################################

data_CAWKES
_symmetry_cell_setting           monoclinic
_symmetry_space_group_name_H-M   'C 2/c'
_symmetry_Int_Tables_number      15
_space_group_name_Hall           '-C 2yn'
loop_
_symmetry_equiv_pos_site_id
_symmetry_equiv_pos_as_xyz
1 x,y,z
2 -x,y,1/2-z
3 1/2+x,1/2+y,z
4 1/2-x,1/2+y,1/2-z
5 -x,-y,-z
6 x,-y,1/2+z
7 1/2-x,1/2-y,-z
8 1/2+x,1/2-y,1/2+z
_cell_length_a                   26.127(3)
_cell_length_b                   10.6143(14)
_cell_length_c                   14.5676(19)
_cell_angle_alpha                90
_cell_angle_beta                 111.289(2)
_cell_angle_gamma                90
_cell_volume                     3764.21
loop_
_atom_site_label
_atom_site_type_symbol
_atom_site_fract_x
_atom_site_fract_y
_atom_site_fract_z
Cu1 Cu 0.2500 0.2500 0.0000
Cl1 Cl 0.10067(11) -0.36426(19) -0.28479(16)
C1 C 0.25254(17) 0.3774(4) 0.4856(3)
H1 H 0.2542 0.4635 0.4751
O1 O 0.16600(12) 0.4017(3) 0.0155(2)
O2 O 0.17295(10) 0.2045(3) -0.02838(17)
C2 C 0.1122(2) -0.2736(5) -0.1060(5)
H2 H 0.1238 -0.3539 -0.0819
N1 N 0.26933(12) 0.1920(3) 0.1383(2)
O3 O 0.11744(12) 0.0305(3) 0.07818(19)
N2 N 0.25982(13) 0.1138(3) 0.2706(2)
C3 C -0.0065(2) 0.3670(7) -0.1103(5)
H3 H -0.0292 0.4370 -0.1302
C4 C 0.24335(15) 0.1663(4) 0.4222(3)
C5 C 0.09343(16) -0.0582(4) -0.0800(3)
C6 C 0.14604(16) 0.2990(4) -0.0160(3)
C7 C 0.06172(15) 0.1601(4) -0.0499(3)
C8 C 0.23351(17) 0.0735(4) 0.3391(3)
H4 H 0.2474 -0.0076 0.3657
H5 H 0.1947 0.0659 0.3038
C9 C 0.23479(16) 0.1574(3) 0.1795(3)
H6 H 0.1968 0.1626 0.1486
C10 C 0.08451(16) 0.2785(4) -0.0466(3)
C11 C 0.32010(17) 0.1694(5) 0.2081(3)
H7 H 0.3534 0.1847 0.2007
C12 C 0.31413(18) 0.1213(5) 0.2897(3)
H8 H 0.3422 0.0980 0.3478
C13 C 0.09420(16) 0.0430(4) -0.0102(3)
C14 C 0.11138(18) -0.1783(5) -0.0438(4)
H9 H 0.1229 -0.1936 0.0235
C15 C 0.24606(17) 0.2942(4) 0.4092(3)
H10 H 0.2435 0.3252 0.3480
C16 C 0.07665(18) -0.0375(5) -0.1798(3)
H11 H 0.0647 0.0424 -0.2046
C17 C 0.0498(2) 0.3822(5) -0.0769(4)
H12 H 0.0647 0.4623 -0.0746
C18 C 0.00451(18) 0.1482(5) -0.0843(3)
H13 H -0.0111 0.0689 -0.0867
C19 C 0.0955(2) -0.2479(6) -0.2057(5)
C20 C 0.0772(2) -0.1322(6) -0.2435(4)
H14 H 0.0654 -0.1176 -0.3110
C21 C -0.0288(2) 0.2511(8) -0.1144(4)
H15 H -0.0668 0.2416 -0.1377
Cu1_2 Cu 0.2500 0.2500 1.0000
Cl1F Cl 0.39933(11) 0.86426(19) 0.28479(16)
C1F C 0.24746(17) 0.1226(4) 0.5144(3)
H1F H 0.2458 0.0365 0.5249
O1F O 0.33400(12) 0.0983(3) -0.0155(2)
O2F O 0.32705(10) 0.2955(3) 0.02838(17)
C2F C 0.3878(2) 0.7736(5) 0.1060(5)
H2F H 0.3762 0.8539 0.0819
N1F N 0.23067(12) 0.3080(3) 0.8617(2)
N1F_2 N 0.23067(12) 0.3080(3) -0.1383(2)
O3F O 0.38256(12) 0.4695(3) -0.07818(19)
N2F N 0.24018(13) 0.3862(3) 0.7294(2)
C3F C 0.5065(2) 0.1330(7) 0.1103(5)
H3F H 0.5292 0.0630 0.1302
C4F C 0.25665(15) 0.3337(4) 0.5778(3)
C5F C 0.40657(16) 0.5582(4) 0.0800(3)
C6F C 0.35396(16) 0.2010(4) 0.0160(3)
C7F C 0.43828(15) 0.3399(4) 0.0499(3)
C8F C 0.26649(17) 0.4265(4) 0.6609(3)
H4F H 0.2526 0.5076 0.6343
H5F H 0.3053 0.4341 0.6962
C9F C 0.26521(16) 0.3426(3) 0.8205(3)
H6F H 0.3032 0.3374 0.8514
C10F C 0.41549(16) 0.2215(4) 0.0466(3)
C11F C 0.17990(17) 0.3306(5) 0.7919(3)
H7F H 0.1466 0.3153 0.7993
C12F C 0.18587(18) 0.3787(5) 0.7103(3)
H8F H 0.1578 0.4020 0.6522
C13F C 0.40580(16) 0.4570(4) 0.0102(3)
C14F C 0.38862(18) 0.6783(5) 0.0438(4)
H9F H 0.3771 0.6936 -0.0235
C15F C 0.25394(17) 0.2058(4) 0.5908(3)
H10F H 0.2565 0.1748 0.6520
C16F C 0.42335(18) 0.5375(5) 0.1798(3)
H11F H 0.4353 0.4576 0.2046
C17F C 0.4502(2) 0.1178(5) 0.0769(4)
H12F H 0.4353 0.0377 0.0746
C18F C 0.49549(18) 0.3518(5) 0.0843(3)
H13F H 0.5111 0.4311 0.0867
C19F C 0.4045(2) 0.7479(6) 0.2057(5)
C20F C 0.4228(2) 0.6322(6) 0.2435(4)
H14F H 0.4346 0.6176 0.3110
C21F C 0.5288(2) 0.2489(8) 0.1144(4)
H15F H 0.5668 0.2584 0.1377
loop_
_geom_bond_atom_site_label_1
_geom_bond_atom_site_label_2
_geom_bond_site_symmetry_1
_geom_bond_site_symmetry_2
Cu1 O1 1_555 1_555
Cl1 C19 1_555 1_555
C1 H1 1_555 1_555
O1 C6 1_555 1_555
O2 Cu1 1_555 1_555
C2 H2 1_555 1_555
N1 Cu1 1_555 1_555
O3 C13 1_555 1_555
N2 C8 1_555 1_555
C3 H3 1_555 1_555
C4 C8 1_555 1_555
C5 C13 1_555 1_555
C6 O2 1_555 1_555
C7 C10 1_555 1_555
C8 H4 1_555 1_555
H5 C8 1_555 1_555
C9 N1 1_555 1_555
H6 C9 1_555 1_555
C10 C6 1_555 1_555
C11 N1 1_555 1_555
H7 C11 1_555 1_555
C12 N2 1_555 1_555
H8 C12 1_555 1_555
C13 C7 1_555 1_555
C14 C2 1_555 1_555
H9 C14 1_555 1_555
C15 C1 1_555 1_555
H10 C15 1_555 1_555
C16 C5 1_555 1_555
H11 C16 1_555 1_555
C17 C3 1_555 1_555
H12 C17 1_555 1_555
C18 C7 1_555 1_555
H13 C18 1_555 1_555
C19 C2 1_555 1_555
C20 C16 1_555 1_555
H14 C20 1_555 1_555
C21 C3 1_555 1_555
H15 C21 1_555 1_555
Cu1_2 N1F 1_555 1_555
Cl1F C19F 1_555 1_555
C1F C4 1_555 1_555
H1F C1F 1_555 1_555
O1F Cu1 1_555 1_555
O2F Cu1 1_555 1_555
C2F H2F 1_555 1_555
N1F C9F 1_555 1_555
N1F_2 Cu1 1_555 1_555
O3F C13F 1_555 1_555
N2F C8F 1_555 1_555
C3F H3F 1_555 1_555
C4F C1 1_555 1_555
C5F C13F 1_555 1_555
C6F O1F 1_555 1_555
C7F C10F 1_555 1_555
C8F C4F 1_555 1_555
H4F C8F 1_555 1_555
H5F C8F 1_555 1_555
C9F N2F 1_555 1_555
H6F C9F 1_555 1_555
C10F C6F 1_555 1_555
C11F N1F 1_555 1_555
H7F C11F 1_555 1_555
C12F N2F 1_555 1_555
H8F C12F 1_555 1_555
C13F C7F 1_555 1_555
C14F C2F 1_555 1_555
H9F C14F 1_555 1_555
C15F C1F 1_555 1_555
H10F C15F 1_555 1_555
C16F C5F 1_555 1_555
H11F C16F 1_555 1_555
C17F C3F 1_555 1_555
H12F C17F 1_555 1_555
C18F C7F 1_555 1_555
H13F C18F 1_555 1_555
C19F C2F 1_555 1_555
C20F C16F 1_555 1_555
H14F C20F 1_555 1_555
C21F C3F 1_555 1_555
H15F C21F 1_555 1_555
N2 C9 1_555 1_555
C4 C15 1_555 1_555
C5 C14 1_555 1_555
C10 C17 1_555 1_555
C11 C12 1_555 1_555
C18 C21 1_555 1_555
C19 C20 1_555 1_555
O2F C6F 1_555 1_555
C4F C15F 1_555 1_555
C5F C14F 1_555 1_555
C10F C17F 1_555 1_555
C11F C12F 1_555 1_555
C18F C21F 1_555 1_555
C19F C20F 1_555 1_555

#END
