
#######################################################################
#
#                 Cambridge Crystallographic Data Centre
#                                CCDC 
#
#######################################################################
#
# If this CIF has been generated from an entry in the Cambridge 
# Structural Database, then it will include bibliographic, chemical, 
# crystal, experimental, refinement or atomic coordinate data resulting 
# from the CCDC's data processing and validation procedures.
#
#######################################################################

data_CAWLOD
_symmetry_cell_setting           triclinic
_symmetry_space_group_name_H-M   'P -1'
_symmetry_Int_Tables_number      2
_space_group_name_Hall           '-P 1'
loop_
_symmetry_equiv_pos_site_id
_symmetry_equiv_pos_as_xyz
1 x,y,z
2 -x,-y,-z
_cell_length_a                   9.0220(18)
_cell_length_b                   13.731(3)
_cell_length_c                   13.782(3)
_cell_angle_alpha                70.87(3)
_cell_angle_beta                 71.71(3)
_cell_angle_gamma                71.71(3)
_cell_volume                     1488.59
loop_
_atom_site_label
_atom_site_type_symbol
_atom_site_fract_x
_atom_site_fract_y
_atom_site_fract_z
Nd1 Nd 0.71875(7) 0.43247(5) 0.55358(4)
C1 C 0.0026(15) 0.3284(9) 1.2052(8)
H1 H 0.0642 0.3145 1.2532
C2 C 0.0780(13) 0.3461(8) 1.0984(8)
H2 H 0.1876 0.3427 1.0758
C3 C -0.0134(12) 0.3688(8) 1.0260(7)
C4 C -0.1744(12) 0.3689(9) 1.0648(7)
H3 H -0.2389 0.3815 1.0189
C5 C -0.2395(14) 0.3500(9) 1.1741(8)
H4 H -0.3484 0.3513 1.1991
C6 C 0.0561(12) 0.3882(8) 0.9128(7)
C7 C 0.2320(11) 0.4149(8) 0.7591(7)
C8 C 0.0843(10) 0.4195(7) 0.7453(7)
C9 C 0.3919(11) 0.4249(7) 0.6907(7)
C10 C 0.0341(11) 0.4261(7) 0.6497(8)
N1 N -0.1546(12) 0.3305(7) 1.2427(6)
N2 N 0.2121(8) 0.3954(6) 0.8654(5)
N3 N -0.0219(9) 0.4027(6) 0.8407(6)
O1 O 0.5061(7) 0.4041(5) 0.7339(5)
O2 O 0.4146(8) 0.4517(5) 0.5917(5)
O3 O 0.1322(8) 0.4348(5) 0.5615(5)
O4 O -0.1051(8) 0.4154(6) 0.6638(5)
O9 O 0.6164(8) 0.5925(6) 0.6231(5)
O10 O 0.9899(8) 0.3460(6) 0.4667(5)
O11 O 0.6978(9) 0.3187(7) 0.4535(5)
O12 O 0.7463(8) 0.2388(5) 0.6658(5)
H9 H 0.5281 0.6326 0.6109
H10 H 0.6939 0.6125 0.5757
H11 H 1.0119 0.2797 0.4797
H12 H 1.0381 0.3660 0.4982
H13 H 0.6858 0.1960 0.6858
H14 H 0.8432 0.2061 0.6473
H15 H 0.7057 0.2527 0.4836
H16 H 0.7391 0.3271 0.3888
H20 H 0.2921 0.3888 0.8907
Nd1A Nd 0.28125(7) 0.56753(5) 0.44642(4)
Nd1_2 Nd -0.28125(7) 0.43247(5) 0.55358(4)
O2A O 0.5854(8) 0.5483(5) 0.4083(5)
O3A O 0.8678(8) 0.5652(5) 0.4385(5)
O4_2 O 0.8949(8) 0.4154(6) 0.6638(5)
C11 C 0.3400(15) 0.1653(9) -0.2325(9)
H5 H 0.3339 0.1817 -0.3024
C12 C 0.4828(14) 0.1384(10) -0.1146(9)
H6 H 0.5784 0.1358 -0.1004
C13 C 0.2058(13) 0.1450(8) -0.1547(8)
H7 H 0.1124 0.1481 -0.1720
C14 C 0.3585(13) 0.1167(9) -0.0304(9)
H8 H 0.3702 0.1000 0.0382
C15 C 0.2130(13) 0.1198(8) -0.0491(8)
C16 C 0.0781(13) 0.0971(8) 0.0388(9)
C17 C -0.1688(13) 0.0992(8) 0.1297(8)
C18 C -0.0624(13) 0.0526(8) 0.1954(8)
C19 C -0.3459(15) 0.1241(10) 0.1476(10)
C20 C -0.0985(16) 0.0056(10) 0.3125(9)
N4 N 0.4776(12) 0.1631(8) -0.2149(8)
N5 N -0.0748(10) 0.1243(7) 0.0311(6)
N6 N 0.0911(10) 0.0517(7) 0.1382(7)
O5 O -0.4090(10) 0.1647(7) 0.0740(7)
O6 O -0.4286(9) 0.1031(7) 0.2446(7)
O7 O -0.2470(10) 0.0203(7) 0.3633(6)
O8 O 0.0142(9) -0.0457(7) 0.3548(6)
H17 H -0.1157 0.1635 -0.0219
H21 H -0.3734 0.0682 0.2921
O13 O 0.4512(9) 0.3780(6) 0.9743(6)
H18 H 0.4504 0.4089 1.0196
H19 H 0.5288 0.3250 0.9727
O14 O 0.3555(11) 0.4674(7) 0.1603(7)
H30 H 0.2829 0.4407 0.2119
H31 H 0.3972 0.4311 0.1157
O15 O 0.6479(12) 0.1069(7) 0.5398(7)
H25 H 0.6797 0.0609 0.5926
H27 H 0.7281 0.1191 0.4893
O16 O 0.3504(12) 0.2089(8) 0.4917(8)
H24 H 0.3903 0.2131 0.4264
H26 H 0.3428 0.2679 0.5040
O17 O 0.1006(12) 0.1528(7) 0.4405(7)
H22 H 0.0451 0.1122 0.4898
H23 H 0.1255 0.1354 0.3826
O18 O 0.2730(10) 0.0589(7) 0.2773(7)
H32 H 0.3353 0.1030 0.2503
H33 H 0.2556 0.0378 0.2199
O19 O 0.8018(8) 0.2518(5) 0.8564(4)
H28 H 0.7785 0.3086 0.8091
H29 H 0.8854 0.2105 0.8286
loop_
_geom_bond_atom_site_label_1
_geom_bond_atom_site_label_2
_geom_bond_site_symmetry_1
_geom_bond_site_symmetry_2
Nd1 O1 1_555 1_555
C1 H1 1_555 1_555
C2 C1 1_555 1_555
H2 C2 1_555 1_555
C3 C2 1_555 1_555
C4 C3 1_555 1_555
H3 C4 1_555 1_555
C5 C4 1_555 1_555
H4 C5 1_555 1_555
C6 C3 1_555 1_555
C7 C8 1_555 1_555
C8 C10 1_555 1_555
C9 C7 1_555 1_555
C10 O3 1_555 1_555
C11 H5 1_555 1_555
C12 H6 1_555 1_555
C13 C11 1_555 1_555
H7 C13 1_555 1_555
C14 C12 1_555 1_555
H8 C14 1_555 1_555
C15 C13 1_555 1_555
C16 C15 1_555 1_555
C17 C18 1_555 1_555
C18 C20 1_555 1_555
C19 C17 1_555 1_555
C20 O7 1_555 1_555
N1 C1 1_555 1_555
N2 C6 1_555 1_555
N3 C6 1_555 1_555
N4 C11 1_555 1_555
N5 C16 1_555 1_555
N6 C16 1_555 1_555
O1 C9 1_555 1_555
O2 Nd1 1_555 1_555
O3 Nd1A 1_555 1_555
O4 C10 1_555 1_555
O5 C19 1_555 1_555
O6 C19 1_555 1_555
O8 C20 1_555 1_555
O9 Nd1 1_555 1_555
O10 Nd1 1_555 1_555
O11 Nd1 1_555 1_555
O12 Nd1 1_555 1_555
O13 H18 1_555 1_555
O14 H30 1_555 1_555
O15 H25 1_555 1_555
O16 H24 1_555 1_555
O17 H22 1_555 1_555
O18 H32 1_555 1_555
O19 H28 1_555 1_555
H9 O9 1_555 1_555
H10 O9 1_555 1_555
H11 O10 1_555 1_555
H12 O10 1_555 1_555
H13 O12 1_555 1_555
H14 O12 1_555 1_555
H15 O11 1_555 1_555
H16 O11 1_555 1_555
H17 N5 1_555 1_555
H19 O13 1_555 1_555
H20 N2 1_555 1_555
H21 O6 1_555 1_555
H23 O17 1_555 1_555
H26 O16 1_555 1_555
H27 O15 1_555 1_555
H29 O19 1_555 1_555
H31 O14 1_555 1_555
H33 O18 1_555 1_555
Nd1A O2 1_555 1_555
Nd1_2 O4 1_555 1_555
O2A Nd1 1_555 1_555
O3A Nd1 1_555 1_555
O4_2 Nd1 1_555 1_555
C5 N1 1_555 1_555
C7 N2 1_555 1_555
C8 N3 1_555 1_555
C9 O2 1_555 1_555
C12 N4 1_555 1_555
C14 C15 1_555 1_555
C17 N5 1_555 1_555
C18 N6 1_555 1_555
Nd1A O2A 1_555 1_555

#END
