
#######################################################################
#
#                 Cambridge Crystallographic Data Centre
#                                CCDC 
#
#######################################################################
#
# If this CIF has been generated from an entry in the Cambridge 
# Structural Database, then it will include bibliographic, chemical, 
# crystal, experimental, refinement or atomic coordinate data resulting 
# from the CCDC's data processing and validation procedures.
#
#######################################################################

data_CAWLUI
_symmetry_cell_setting           monoclinic
_symmetry_space_group_name_H-M   'C c'
_symmetry_Int_Tables_number      9
_space_group_name_Hall           'C -2yc'
loop_
_symmetry_equiv_pos_site_id
_symmetry_equiv_pos_as_xyz
1 x,y,z
2 x,-y,1/2+z
3 1/2+x,1/2+y,z
4 1/2+x,1/2-y,1/2+z
_cell_length_a                   14.8610(3)
_cell_length_b                   27.8527(7)
_cell_length_c                   7.1196(2)
_cell_angle_alpha                90
_cell_angle_beta                 90.799(2)
_cell_angle_gamma                90
_cell_volume                     2946.65
loop_
_atom_site_label
_atom_site_type_symbol
_atom_site_fract_x
_atom_site_fract_y
_atom_site_fract_z
Mn1 Mn 0.67978(5) 0.64783(2) 0.83948(9)
O1 O 0.7420(2) 0.64261(11) 1.1155(5)
H2 H 0.725(3) 0.6672(12) 1.172(7)
O2 O 0.6167(3) 0.65981(13) 0.5670(5)
H3 H 0.559(4) 0.6535(18) 0.560(8)
H4 H 0.629(3) 0.6867(11) 0.525(7)
N1 N 0.8087(3) 0.62040(14) 0.7043(5)
C1 C 0.8755(3) 0.64735(17) 0.6372(7)
H5 H 0.8674 0.6811 0.6286
C2 C 0.9583(3) 0.62699(19) 0.5784(7)
H6 H 1.0049 0.6469 0.5324
C3 C 0.9695(3) 0.5790(2) 0.5890(7)
H7 H 1.0250 0.5652 0.5522
C4 C 0.9003(3) 0.54915(17) 0.6536(6)
C5 C 0.8208(3) 0.57206(16) 0.7082(7)
C6 C 0.9074(4) 0.49797(18) 0.6582(7)
H8 H 0.9619 0.4829 0.6228
C7 C 0.8357(4) 0.47067(18) 0.7134(7)
H9 H 0.8412 0.4367 0.7165
C8 C 0.7530(3) 0.49256(18) 0.7664(7)
C9 C 0.6768(5) 0.46525(16) 0.8210(8)
H10 H 0.6796 0.4312 0.8251
C10 C 0.5999(4) 0.48847(19) 0.8673(7)
H11 H 0.5475 0.4709 0.8991
C11 C 0.5988(4) 0.53874(18) 0.8675(7)
H12 H 0.5449 0.5544 0.9030
N2 N 0.6683(3) 0.56581(12) 0.8214(6)
C12 C 0.7454(3) 0.54255(17) 0.7673(6)
C13 C 0.7837(3) 0.80185(14) 0.7966(6)
C14 C 0.8652(3) 0.79138(15) 0.7118(6)
H13 H 0.8818 0.7589 0.6909
C15 C 0.9231(3) 0.82845(15) 0.6570(6)
C16 C 0.8981(3) 0.87589(15) 0.6896(6)
H14 H 0.9368 0.9012 0.6525
C17 C 0.8181(3) 0.88634(14) 0.7751(6)
C18 C 0.7597(3) 0.84913(14) 0.8267(6)
H15 H 0.7036 0.8565 0.8824
C19 C 0.7203(3) 0.76234(15) 0.8484(6)
O4 O 0.7403(2) 0.72024(10) 0.8181(4)
O5 O 0.6467(2) 0.77698(11) 0.9245(5)
C20 C 1.0096(3) 0.81620(15) 0.5595(6)
O6 O 1.0512(2) 0.84861(11) 0.4779(5)
O7 O 1.0319(2) 0.77258(12) 0.5676(6)
C21 C 0.7899(3) 0.93646(15) 0.8080(7)
O8 O 0.7111(2) 0.94451(12) 0.8674(6)
O9 O 0.8463(2) 0.96992(11) 0.7748(6)
Mn1C Mn 1.17978(5) 0.85217(2) 0.33948(9)
O6C O 0.5512(2) 0.65139(11) 0.9779(5)
H1 H 0.839(4) 0.6399(18) 1.100(7)
C22 C 1.1723(3) 0.61379(15) 0.8924(6)
C23 C 1.2243(3) 0.65248(15) 0.8347(6)
H16 H 1.2804 0.6469 0.7765
C24 C 1.1942(3) 0.69926(14) 0.8620(6)
C25 C 1.1101(3) 0.70621(14) 0.9445(6)
H17 H 1.0883 0.7379 0.9619
C26 C 1.0584(3) 0.66775(16) 1.0009(6)
C27 C 1.0896(3) 0.62131(14) 0.9754(6)
H18 H 1.0545 0.5947 1.0147
C28 C 1.2055(3) 0.56418(16) 0.8647(7)
O10 O 1.1497(3) 0.52950(12) 0.8976(6)
O11 O 1.2856(2) 0.55742(13) 0.8144(6)
C29 C 1.2489(3) 0.74209(15) 0.8072(6)
O12 O 1.2193(2) 0.78319(12) 0.8437(5)
O13 O 1.3216(2) 0.73362(12) 0.7245(5)
C30 C 0.9686(3) 0.67589(15) 1.0854(6)
O14 O 0.9478(2) 0.72134(12) 1.0968(6)
O15 O 0.9218(2) 0.64242(12) 1.1347(6)
O3 O 0.4388(3) 0.65607(16) 0.6321(6)
loop_
_geom_bond_atom_site_label_1
_geom_bond_atom_site_label_2
_geom_bond_site_symmetry_1
_geom_bond_site_symmetry_2
Mn1 O1 1_555 1_555
O1 H2 1_555 1_555
H1 O15 1_555 1_555
O2 Mn1 1_555 1_555
H3 O2 1_555 1_555
H4 O2 1_555 1_555
N1 Mn1 1_555 1_555
C1 N1 1_555 1_555
H5 C1 1_555 1_555
C2 C1 1_555 1_555
H6 C2 1_555 1_555
C3 C2 1_555 1_555
H7 C3 1_555 1_555
C4 C3 1_555 1_555
C5 N1 1_555 1_555
C6 C4 1_555 1_555
H8 C6 1_555 1_555
C7 C6 1_555 1_555
H9 C7 1_555 1_555
C8 C7 1_555 1_555
C9 C8 1_555 1_555
H10 C9 1_555 1_555
C10 C9 1_555 1_555
H11 C10 1_555 1_555
C11 C10 1_555 1_555
H12 C11 1_555 1_555
N2 Mn1 1_555 1_555
C12 C5 1_555 1_555
C13 C14 1_555 1_555
C14 H13 1_555 1_555
C15 C14 1_555 1_555
C16 C15 1_555 1_555
H14 C16 1_555 1_555
C17 C16 1_555 1_555
C18 C13 1_555 1_555
H15 C18 1_555 1_555
C19 C13 1_555 1_555
O4 Mn1 1_555 1_555
O5 C19 1_555 1_555
C20 C15 1_555 1_555
O6 C20 1_555 1_555
O7 C20 1_555 1_555
C21 C17 1_555 1_555
O8 C21 1_555 1_555
O9 C21 1_555 1_555
C22 C23 1_555 1_555
C23 H16 1_555 1_555
C24 C23 1_555 1_555
C25 C24 1_555 1_555
H17 C25 1_555 1_555
C26 C25 1_555 1_555
C27 C22 1_555 1_555
H18 C27 1_555 1_555
C28 C22 1_555 1_555
O10 C28 1_555 1_555
O11 C28 1_555 1_555
C29 C24 1_555 1_555
O12 C29 1_555 1_555
O13 C29 1_555 1_555
C30 C26 1_555 1_555
O14 C30 1_555 1_555
O15 C30 1_555 1_555
Mn1C O6 1_555 1_555
O6C Mn1 1_555 1_555
C4 C5 1_555 1_555
C8 C12 1_555 1_555
C11 N2 1_555 1_555
N2 C12 1_555 1_555
C17 C18 1_555 1_555
C19 O4 1_555 1_555
C26 C27 1_555 1_555

#END
