
#######################################################################
#
#                 Cambridge Crystallographic Data Centre
#                                CCDC 
#
#######################################################################
#
# If this CIF has been generated from an entry in the Cambridge 
# Structural Database, then it will include bibliographic, chemical, 
# crystal, experimental, refinement or atomic coordinate data resulting 
# from the CCDC's data processing and validation procedures.
#
#######################################################################

data_CAWTAX
_symmetry_cell_setting           rhombohedral
_symmetry_space_group_name_H-M   'R 3 c'
_symmetry_Int_Tables_number      161
_space_group_name_Hall           'R 3 -2"c'
loop_
_symmetry_equiv_pos_site_id
_symmetry_equiv_pos_as_xyz
1 x,y,z
2 -y,x-y,z
3 -x+y,-x,z
4 -x+y,y,1/2+z
5 x,x-y,1/2+z
6 -y,-x,1/2+z
7 2/3+x,1/3+y,1/3+z
8 2/3-y,1/3+x-y,1/3+z
9 2/3-x+y,1/3-x,1/3+z
10 2/3-x+y,1/3+y,5/6+z
11 2/3+x,1/3+x-y,5/6+z
12 2/3-y,1/3-x,5/6+z
13 1/3+x,2/3+y,2/3+z
14 1/3-y,2/3+x-y,2/3+z
15 1/3-x+y,2/3-x,2/3+z
16 1/3-x+y,2/3+y,1/6+z
17 1/3+x,2/3+x-y,1/6+z
18 1/3-y,2/3-x,1/6+z
_cell_length_a                   9.3928(13)
_cell_length_b                   9.3928(13)
_cell_length_c                   51.0080(13)
_cell_angle_alpha                90
_cell_angle_beta                 90
_cell_angle_gamma                120
_cell_volume                     3897.26
loop_
_atom_site_label
_atom_site_type_symbol
_atom_site_fract_x
_atom_site_fract_y
_atom_site_fract_z
Mn1 Mn 0.6667 0.3333 0.53785(3)
Cr1 Cr 0.3333 0.6667 0.53814(3)
O2 O 0.5055(6) 0.6559(6) 0.51676(11)
O3 O 0.3440(6) 0.4987(5) 0.55928(9)
O4 O 0.6400(5) 0.5209(6) 0.51544(11)
O5 O 0.4852(6) 0.3597(6) 0.56001(11)
C7 C 0.5402(9) 0.5531(9) 0.52513(16)
C8 C 0.4498(7) 0.4601(7) 0.55031(17)
Mn1_2 Mn 0.6667 1.3333 0.53785(3)
Cr1A Cr 0.3333 -0.3334 0.53814(3)
O2A O 0.3441(6) -0.1504(8) 0.51676(11)
O2A_2 O 0.3441(6) 0.8496(8) 0.51676(11)
O2B O 0.1504(8) 0.4945(6) 0.51676(11)
O3A O 0.5013(5) -0.1547(8) 0.55928(9)
O3A_2 O 0.5013(5) 0.8453(8) 0.55928(9)
O3B O 0.1547(8) 0.6560(6) 0.55928(9)
O4A O 0.4791(6) 0.1191(8) 0.51544(11)
O4B O 0.8809(8) 0.3600(5) 0.51544(11)
O4A_2 O 0.4791(6) 1.1191(8) 0.51544(11)
O5A O 0.6403(6) 0.1255(8) 0.56001(11)
O5B O 0.8745(8) 0.5148(6) 0.56001(11)
O5A_2 O 0.6403(6) 1.1255(8) 0.56001(11)
C7A C 0.4469(9) -0.0129(13) 0.52513(16)
C7A_2 C 0.4469(9) 0.9871(13) 0.52513(16)
C8A C 0.5399(7) -0.0103(10) 0.55031(17)
C8A_2 C 0.5399(7) 0.9897(10) 0.55031(17)
O1 O 0.242(4) 0.666(5) 0.7224(5)
N1 N 0.3333 0.6667 0.6444(4)
C1 C 0.345(6) 0.748(5) 0.6707(8)
C2 C 0.3333 0.6667 0.6931(10)
C3 C 0.470(4) 0.636(4) 0.6258(6)
C4 C 0.625(6) 0.673(4) 0.6387(9)
C5 C 0.708(3) 0.713(4) 0.6132(6)
C6 C 0.828(3) 0.680(4) 0.6161(5)
O1B O 0.424(6) 0.758(4) 0.7224(5)
O1A O 0.334(5) 0.576(6) 0.7224(5)
C1A C 0.252(5) 0.597(8) 0.6707(8)
C1B C 0.403(8) 0.655(6) 0.6707(8)
C3A C 0.364(4) 0.834(6) 0.6258(6)
C3B C 0.166(6) 0.530(4) 0.6258(6)
C4A C 0.327(4) 0.952(7) 0.6387(9)
C4B C 0.048(7) 0.375(6) 0.6387(9)
C5A C 0.287(4) 0.995(5) 0.6132(6)
C5B C 0.005(5) 0.292(3) 0.6132(6)
C6A C 0.320(4) 1.148(5) 0.6161(5)
C6B C -0.148(5) 0.172(3) 0.6161(5)
C9? C -0.087(4) 0.337(3) 0.6173(5)
loop_
_geom_bond_atom_site_label_1
_geom_bond_atom_site_label_2
_geom_bond_site_symmetry_1
_geom_bond_site_symmetry_2
O1 C2 1_555 1_555
N1 C1 1_555 1_555
C1 C2 1_555 1_555
C2 O1B 1_555 1_555
C3 N1 1_555 1_555
C4 C3 1_555 1_555
C5 C4 1_555 1_555
C6 C5 1_555 1_555
Mn1 O4 1_555 1_555
Cr1 O2 1_555 1_555
O2 C7 1_555 1_555
O3 Cr1 1_555 1_555
O4 C7 1_555 1_555
O5 Mn1 1_555 1_555
C7 C8 1_555 1_555
C8 O3 1_555 1_555
O1B O1 1_555 1_555
O1A O1 1_555 1_555
C1A N1 1_555 1_555
C1B N1 1_555 1_555
C3A N1 1_555 1_555
C3B N1 1_555 1_555
C4A C3A 1_555 1_555
C4B C3B 1_555 1_555
C5A C4A 1_555 1_555
C5B C4B 1_555 1_555
C6A C5A 1_555 1_555
C6B C5B 1_555 1_555
Mn1_2 O4A_2 1_555 1_555
Cr1A O2A 1_555 1_555
O2A C7A 1_555 1_555
O2A_2 Cr1 1_555 1_555
O2B Cr1 1_555 1_555
O3A Cr1A 1_555 1_555
O3A_2 Cr1 1_555 1_555
O3B Cr1 1_555 1_555
O4A Mn1 1_555 1_555
O4B Mn1 1_555 1_555
O4A_2 C7A_2 1_555 1_555
O5A Mn1 1_555 1_555
O5B Mn1 1_555 1_555
O5A_2 Mn1_2 1_555 1_555
C7A O4A 1_555 1_555
C7A_2 O2A_2 1_555 1_555
C8A O3A 1_555 1_555
C8A_2 O3A_2 1_555 1_555
C1 C1A 1_555 1_555
C1 C1B 1_555 1_555
C2 O1A 1_555 1_555
C2 C1A 1_555 1_555
C2 C1B 1_555 1_555
O5 C8 1_555 1_555
O1B O1A 1_555 1_555
C1A C1B 1_555 1_555
O5A C8A 1_555 1_555
O5A_2 C8A_2 1_555 1_555
C7A C8A 1_555 1_555
C7A_2 C8A_2 1_555 1_555

#END
