
#######################################################################
#
#                 Cambridge Crystallographic Data Centre
#                                CCDC 
#
#######################################################################
#
# If this CIF has been generated from an entry in the Cambridge 
# Structural Database, then it will include bibliographic, chemical, 
# crystal, experimental, refinement or atomic coordinate data resulting 
# from the CCDC's data processing and validation procedures.
#
#######################################################################

data_CAWVIH
_symmetry_cell_setting           orthorhombic
_symmetry_space_group_name_H-M   'P c c a'
_symmetry_Int_Tables_number      54
_space_group_name_Hall           '-P 2a 2ac'
loop_
_symmetry_equiv_pos_site_id
_symmetry_equiv_pos_as_xyz
1 x,y,z
2 1/2-x,-y,z
3 -x,y,1/2-z
4 1/2+x,-y,1/2-z
5 -x,-y,-z
6 1/2+x,y,-z
7 x,-y,1/2+z
8 1/2-x,y,1/2+z
_cell_length_a                   11.9887(4)
_cell_length_b                   18.6365(4)
_cell_length_c                   17.9807(6)
_cell_angle_alpha                90
_cell_angle_beta                 90
_cell_angle_gamma                90
_cell_volume                     4017.38
loop_
_atom_site_label
_atom_site_type_symbol
_atom_site_fract_x
_atom_site_fract_y
_atom_site_fract_z
N2 N 0.7894(12) -0.3939(8) 0.0494(7)
O5 O 0.7238(13) -0.4098(10) -0.0517(8)
C23 C 0.680(2) -0.3608(12) -0.0114(11)
H13 H 0.6232 -0.3268 -0.0125
C24 C 0.8857(14) -0.4442(13) 0.0488(11)
H14 H 0.8871 -0.4699 0.0025
H15 H 0.8785 -0.4776 0.0891
H16 H 0.9538 -0.4176 0.0543
C25 C 0.7689(14) -0.3431(9) 0.1122(11)
H17 H 0.8225 -0.3517 0.1509
H18 H 0.6951 -0.3504 0.1313
H19 H 0.7762 -0.2947 0.0947
Zn1 Zn 0.38961(4) 0.00897(2) 0.19758(2)
O1 O 0.2500 0.0000 0.1468(2)
C1 C 0.5985(4) -0.0524(2) 0.1507(2)
O2 O 0.5052(3) -0.02658(16) 0.13231(16)
C2 C 0.6627(4) -0.0900(2) 0.0923(2)
O3 O 0.9223(3) -0.88950(15) -0.21632(17)
C3 C 0.8837(4) -0.2214(3) -0.2075(3)
H1 H 0.8740 -0.2073 -0.2567
O4 O 0.6402(3) -0.04900(17) 0.21458(16)
C4 C 0.9481(5) -0.2804(2) -0.1915(2)
C5 C 0.6197(4) -0.0971(3) 0.0217(3)
H2 H 0.5505 -0.0774 0.0103
C6 C 0.9309(5) -0.7401(3) -0.2025(3)
H3 H 0.8834 -0.7646 -0.1704
N1 N 1.0000 -0.3196(3) -0.2500
C7 C 1.0000 -0.3958(3) -0.2500
C8 C 0.6795(4) -0.1336(3) -0.0324(3)
H4 H 0.6491 -0.1384 -0.0797
C9 C 1.0000 -0.6268(3) -0.2500
C10 C 1.0000 -0.8587(3) -0.2500
C11 C 1.0000 -0.5471(3) -0.2500
C12 C 0.7836(4) -0.1633(2) -0.0177(2)
C13 C 0.8450(4) -0.2022(2) -0.0767(3)
C14 C 0.9321(5) -0.6659(3) -0.2023(3)
H5 H 0.8861 -0.6415 -0.1693
C15 C 0.9142(5) -0.4341(3) -0.2179(3)
H6 H 0.8547 -0.4099 -0.1962
C16 C 0.8266(5) -0.1550(3) 0.0537(3)
H7 H 0.8965 -0.1736 0.0651
C17 C 1.0000 -0.7782(3) -0.2500
C18 C 0.7663(4) -0.1196(3) 0.1075(3)
H8 H 0.7958 -0.1153 0.1552
C19 C 0.8333(4) -0.1830(2) -0.1510(2)
H9 H 0.7903 -0.1431 -0.1630
C20 C 0.9162(5) -0.5079(3) -0.2176(4)
H10 H 0.8581 -0.5324 -0.1945
C21 C 0.9640(5) -0.2998(3) -0.1179(3)
H11 H 1.0086 -0.3391 -0.1064
C22 C 0.9134(5) -0.2607(3) -0.0608(3)
H12 H 0.9255 -0.2738 -0.0115
Zn1B Zn 1.61039(4) 0.00897(2) -0.69758(2)
Zn1A Zn 0.11039(4) -0.00897(2) 0.19758(2)
Zn1E Zn 0.88961(4) -0.99103(2) -0.19758(2)
Zn1B_2 Zn 0.61039(4) 0.00897(2) 0.30242(2)
Zn1_2 Zn 1.38961(4) 0.00897(2) -0.80242(2)
Zn1G Zn 1.11039(4) -0.99103(2) -0.30242(2)
O1B O 1.7500 0.0000 -0.6468(2)
C1B C 1.4015(4) -0.0524(2) -0.6507(2)
O2B O 1.4948(3) -0.02658(16) -0.63231(16)
C2B C 1.3373(4) -0.0900(2) -0.5923(2)
O3B O 1.0777(3) -0.88950(15) -0.28368(17)
O3E O 0.4223(3) 0.11050(15) 0.21632(17)
O3G O 1.5777(3) 0.11050(15) -0.71632(17)
C3B C 1.1163(4) -0.2214(3) -0.2925(3)
H1B H 1.1260 -0.2073 -0.2433
O4B O 1.3598(3) -0.04900(17) -0.71458(16)
O4B_2 O 0.3598(3) -0.04900(17) 0.28542(16)
O4_2 O 1.6402(3) -0.04900(17) -0.78542(16)
C4B C 1.0519(5) -0.2804(2) -0.3085(2)
C5B C 1.3803(4) -0.0971(3) -0.5217(3)
H2B H 1.4495 -0.0774 -0.5103
C6B C 1.0691(5) -0.7401(3) -0.2975(3)
H3B H 1.1166 -0.7646 -0.3296
C8B C 1.3205(4) -0.1336(3) -0.4676(3)
H4B H 1.3509 -0.1384 -0.4203
C12B C 1.2164(4) -0.1633(2) -0.4823(2)
C13B C 1.1550(4) -0.2022(2) -0.4233(3)
C14B C 1.0679(5) -0.6659(3) -0.2977(3)
H5B H 1.1139 -0.6415 -0.3307
C15B C 1.0858(5) -0.4341(3) -0.2821(3)
H6B H 1.1453 -0.4099 -0.3038
C16B C 1.1734(5) -0.1550(3) -0.5537(3)
H7B H 1.1035 -0.1736 -0.5651
C18B C 1.2337(4) -0.1196(3) -0.6075(3)
H8B H 1.2042 -0.1153 -0.6552
C19B C 1.1667(4) -0.1830(2) -0.3490(2)
H9B H 1.2097 -0.1431 -0.3370
C20B C 1.0838(5) -0.5079(3) -0.2824(4)
H10B H 1.1419 -0.5324 -0.3055
C21B C 1.0360(5) -0.2998(3) -0.3821(3)
H11B H 0.9914 -0.3391 -0.3936
C22B C 1.0866(5) -0.2607(3) -0.4392(3)
H12B H 1.0745 -0.2738 -0.4885
loop_
_geom_bond_atom_site_label_1
_geom_bond_atom_site_label_2
_geom_bond_site_symmetry_1
_geom_bond_site_symmetry_2
Zn1 O1 1_555 1_555
O1 Zn1A 1_555 1_555
C1 O2 1_555 1_555
O2 Zn1 1_555 1_555
C2 C1 1_555 1_555
O3 C10 1_555 1_555
C3 H1 1_555 1_555
O4 C1 1_555 1_555
C4 C3 1_555 1_555
C5 C2 1_555 1_555
H2 C5 1_555 1_555
C6 H3 1_555 1_555
N1 C4 1_555 1_555
C7 N1 1_555 1_555
C8 C5 1_555 1_555
H4 C8 1_555 1_555
C9 C11 1_555 1_555
C10 C17 1_555 1_555
C11 C20 1_555 1_555
C12 C8 1_555 1_555
C13 C12 1_555 1_555
C14 C6 1_555 1_555
H5 C14 1_555 1_555
C15 C7 1_555 1_555
H6 C15 1_555 1_555
C16 C12 1_555 1_555
H7 C16 1_555 1_555
C17 C6 1_555 1_555
C18 C2 1_555 1_555
H8 C18 1_555 1_555
C19 C3 1_555 1_555
H9 C19 1_555 1_555
C20 C15 1_555 1_555
H10 C20 1_555 1_555
C21 C4 1_555 1_555
H11 C21 1_555 1_555
C22 C13 1_555 1_555
H12 C22 1_555 1_555
N2 C23 1_555 1_555
O5 C23 1_555 1_555
C23 H13 1_555 1_555
C24 N2 1_555 1_555
H14 C24 1_555 1_555
H15 C24 1_555 1_555
H16 C24 1_555 1_555
C25 N2 1_555 1_555
H17 C25 1_555 1_555
H18 C25 1_555 1_555
H19 C25 1_555 1_555
Zn1B O1B 1_555 1_555
Zn1E O3 1_555 1_555
Zn1B_2 O4 1_555 1_555
Zn1_2 O4B 1_555 1_555
Zn1G O3B 1_555 1_555
C1B O2B 1_555 1_555
O2B Zn1B 1_555 1_555
C2B C1B 1_555 1_555
O3B C10 1_555 1_555
O3E Zn1 1_555 1_555
O3G Zn1B 1_555 1_555
C3B H1B 1_555 1_555
O4B C1B 1_555 1_555
O4B_2 Zn1 1_555 1_555
O4_2 Zn1B 1_555 1_555
C4B N1 1_555 1_555
C5B C2B 1_555 1_555
H2B C5B 1_555 1_555
C6B C17 1_555 1_555
H3B C6B 1_555 1_555
C8B C5B 1_555 1_555
H4B C8B 1_555 1_555
C12B C8B 1_555 1_555
C13B C12B 1_555 1_555
C14B C9 1_555 1_555
H5B C14B 1_555 1_555
C15B C7 1_555 1_555
H6B C15B 1_555 1_555
C16B C12B 1_555 1_555
H7B C16B 1_555 1_555
C18B C2B 1_555 1_555
H8B C18B 1_555 1_555
C19B C3B 1_555 1_555
H9B C19B 1_555 1_555
C20B C11 1_555 1_555
H10B C20B 1_555 1_555
C21B C4B 1_555 1_555
H11B C21B 1_555 1_555
C22B C13B 1_555 1_555
H12B C22B 1_555 1_555
C9 C14 1_555 1_555
C13 C19 1_555 1_555
C16 C18 1_555 1_555
C21 C22 1_555 1_555
C3B C4B 1_555 1_555
C6B C14B 1_555 1_555
C13B C19B 1_555 1_555
C15B C20B 1_555 1_555
C16B C18B 1_555 1_555
C21B C22B 1_555 1_555

#END
