
#######################################################################
#
#                 Cambridge Crystallographic Data Centre
#                                CCDC 
#
#######################################################################
#
# If this CIF has been generated from an entry in the Cambridge 
# Structural Database, then it will include bibliographic, chemical, 
# crystal, experimental, refinement or atomic coordinate data resulting 
# from the CCDC's data processing and validation procedures.
#
#######################################################################

data_CAWZOR
_symmetry_cell_setting           monoclinic
_symmetry_space_group_name_H-M   'C 2/c'
_symmetry_Int_Tables_number      15
_space_group_name_Hall           '-C 2yn'
loop_
_symmetry_equiv_pos_site_id
_symmetry_equiv_pos_as_xyz
1 x,y,z
2 -x,y,1/2-z
3 1/2+x,1/2+y,z
4 1/2-x,1/2+y,1/2-z
5 -x,-y,-z
6 x,-y,1/2+z
7 1/2-x,1/2-y,-z
8 1/2+x,1/2-y,1/2+z
_cell_length_a                   17.3457(8)
_cell_length_b                   5.6766(3)
_cell_length_c                   10.6979(5)
_cell_angle_alpha                90
_cell_angle_beta                 115.593(2)
_cell_angle_gamma                90
_cell_volume                     950.014
loop_
_atom_site_label
_atom_site_type_symbol
_atom_site_fract_x
_atom_site_fract_y
_atom_site_fract_z
Br1 Br 0.384076(11) 0.13635(3) 0.179840(17)
Cu1 Cu 0.2500 0.2500 0.0000
O1 O 0.23460(11) 0.4745(3) 0.12708(16)
H1 H 0.2606(18) 0.471(5) 0.2081(19)
H2 H 0.2121(18) 0.599(4) 0.107(3)
O2 O 0.16873(9) -0.0682(3) 0.08540(15)
N1 N 0.08591(11) -0.0357(3) 0.04271(16)
C1 C 0.02814(13) -0.1855(4) -0.0470(2)
H3 H 0.0471 -0.3164 -0.0815
C2 C 0.05750(14) 0.1512(3) 0.0890(2)
H4 H 0.0973 0.2596 0.1512
Br1F Br 0.115924(11) 0.36365(3) -0.179840(17)
Cu1B Cu -0.2500 -0.2500 0.0000
O1F O 0.26540(11) 0.0255(3) -0.12708(16)
H1F H 0.2394(18) 0.029(5) -0.2081(19)
H2F H 0.2879(18) -0.099(4) -0.107(3)
O2D O -0.16873(9) 0.0682(3) -0.08540(15)
O2F O 0.33127(9) 0.5682(3) -0.08540(15)
N1D N -0.08591(11) 0.0357(3) -0.04271(16)
C1D C -0.02814(13) 0.1855(4) 0.0470(2)
H3D H -0.0471 0.3164 0.0815
C2D C -0.05750(14) -0.1512(3) -0.0890(2)
H4D H -0.0973 -0.2596 -0.1512
loop_
_geom_bond_atom_site_label_1
_geom_bond_atom_site_label_2
_geom_bond_site_symmetry_1
_geom_bond_site_symmetry_2
Br1 Cu1 1_555 1_555
Cu1 O1 1_555 1_555
O1 H1 1_555 1_555
H2 O1 1_555 1_555
O2 Cu1 1_555 1_555
N1 O2 1_555 1_555
C1 N1 1_555 1_555
H3 C1 1_555 1_555
C2 N1 1_555 1_555
H4 C2 1_555 1_555
Br1F Cu1 1_555 1_555
Cu1B O2D 1_555 1_555
O1F Cu1 1_555 1_555
H1F O1F 1_555 1_555
H2F O1F 1_555 1_555
O2D N1D 1_555 1_555
O2F Cu1 1_555 1_555
N1D C1D 1_555 1_555
C1D C2 1_555 1_555
H3D C1D 1_555 1_555
C2D C1 1_555 1_555
H4D C2D 1_555 1_555
N1D C2D 1_555 1_555

#END
