
#######################################################################
#
#                 Cambridge Crystallographic Data Centre
#                                CCDC 
#
#######################################################################
#
# If this CIF has been generated from an entry in the Cambridge 
# Structural Database, then it will include bibliographic, chemical, 
# crystal, experimental, refinement or atomic coordinate data resulting 
# from the CCDC's data processing and validation procedures.
#
#######################################################################

data_CAWZUX
_symmetry_cell_setting           monoclinic
_symmetry_space_group_name_H-M   'P 21/c'
_symmetry_Int_Tables_number      14
_space_group_name_Hall           '-P 2ybc'
loop_
_symmetry_equiv_pos_site_id
_symmetry_equiv_pos_as_xyz
1 x,y,z
2 -x,1/2+y,1/2-z
3 -x,-y,-z
4 x,1/2-y,1/2+z
_cell_length_a                   13.5536(2)
_cell_length_b                   19.0463(2)
_cell_length_c                   27.7435(3)
_cell_angle_alpha                90
_cell_angle_beta                 112.388(1)
_cell_angle_gamma                90
_cell_volume                     6622.05
loop_
_atom_site_label
_atom_site_type_symbol
_atom_site_fract_x
_atom_site_fract_y
_atom_site_fract_z
N1 N 0.8953(6) 0.2266(5) -0.0542(4)
C1 C 0.8054(7) 0.1974(4) -0.0535(4)
H1 H 0.7642 0.2228 -0.0394
C2 C 0.7725(7) 0.1312(4) -0.0730(4)
H2 H 0.71 0.1126 -0.0719
C3 C 0.8326(7) 0.0920(4) -0.0945(3)
C4 C 0.9279(7) 0.1219(4) -0.0949(3)
H3 H 0.9708 0.0972 -0.1083
C5 C 0.9562(8) 0.1896(4) -0.0745(4)
H4 H 1.0183 0.2098 -0.075
C6 C 0.7954(8) 0.0211(5) -0.1205(5)
H5 H 0.847 0.0046 -0.1344
H6 H 0.795 -0.0122 -0.0941
C7 C 0.6874(4) 0.0208(3) -0.1635(3)
H7 H 0.684 0.0563 -0.1892
H8 H 0.6332 0.0314 -0.1497
C8 C 0.6302(3) -0.1733(2) -0.18841(16)
H9 H 0.6127 -0.2113 -0.1721
C9 C 0.6431(4) -0.1085(2) -0.16465(18)
H10 H 0.6352 -0.1035 -0.133
C10 C 0.6680(4) -0.0507(2) -0.18838(19)
C11 C 0.6798(4) -0.0624(2) -0.23585(17)
H11 H 0.6972 -0.0254 -0.253
C12 C 0.6656(3) -0.12925(19) -0.25718(16)
H12 H 0.6731 -0.136 -0.2888
C13 C 0.3976(3) -0.2452(2) -0.30452(16)
H13 H 0.4184 -0.2165 -0.3261
C14 C 0.2912(3) -0.2441(3) -0.30955(17)
H14 H 0.2422 -0.2155 -0.3344
C15 C 0.2589(3) -0.2859(2) -0.27716(16)
C16 C 0.3359(3) -0.3249(2) -0.24034(19)
H15 H 0.3185 -0.3515 -0.2166
C17 C 0.4395(3) -0.3249(2) -0.23829(17)
H16 H 0.4896 -0.3533 -0.2138
C18 C 0.1432(3) -0.2901(3) -0.28388(17)
H17 H 0.1207 -0.3388 -0.289
H18 H 0.1005 -0.2645 -0.3151
C19 C 0.1213(3) -0.2609(3) -0.23791(17)
H19 H 0.1657 -0.2855 -0.2065
H20 H 0.1414 -0.2117 -0.2335
C20 C -0.1315(3) -0.2569(2) -0.20993(14)
H21 H -0.1507 -0.2457 -0.182
C21 C -0.0255(3) -0.2509(2) -0.20326(15)
H22 H 0.0248 -0.2357 -0.1716
C22 C 0.0055(3) -0.2675(2) -0.24414(16)
C23 C -0.0743(3) -0.2889(2) -0.29087(16)
H23 H -0.0575 -0.2999 -0.3195
C24 C -0.1785(3) -0.2934(2) -0.29425(15)
H24 H -0.2307 -0.3078 -0.3257
C25 C 0.8639(3) 0.4179(2) -0.11709(17)
H25 H 0.8148 0.4316 -0.1029
C26 C 0.8572(3) 0.4477(2) -0.16341(16)
H26 H 0.8048 0.481 -0.1796
C27 C 0.9288(3) 0.4282(2) -0.18628(15)
C28 C 1.0065(3) 0.3793(2) -0.15876(17)
H27 H 1.0571 0.3652 -0.1718
C29 C 1.0089(3) 0.3519(2) -0.11239(17)
H28 H 1.0619 0.3195 -0.0949
C30 C 0.9262(3) 0.4617(2) -0.23583(16)
H29 H 0.9728 0.436 -0.2488
H30 H 0.8543 0.4593 -0.262
C31 C 0.9622(3) 0.5394(2) -0.22700(16)
H31 H 0.9107 0.5665 -0.2182
H32 H 0.9649 0.5586 -0.2589
C32 C 1.2616(3) 0.5326(2) -0.15095(15)
H33 H 1.3228 0.5237 -0.1575
C33 C 1.1634(3) 0.5314(3) -0.19217(15)
H34 H 1.1597 0.5212 -0.2256
C34 C 1.0701(3) 0.5455(2) -0.18382(15)
C35 C 1.0813(3) 0.5600(2) -0.13301(16)
H35 H 1.0216 0.57 -0.1255
C36 C 1.1820(3) 0.5595(2) -0.09343(15)
H36 H 1.1876 0.5687 -0.0596
C37 C 1.3388(3) 0.7050(2) -0.06161(15)
H37 H 1.2834 0.6856 -0.054
C38 C 1.3328(3) 0.7755(2) -0.07534(16)
H38 H 1.2741 0.8023 -0.0771
C39 C 1.4149(3) 0.8057(2) -0.08635(16)
C40 C 1.4989(3) 0.7626(2) -0.08398(16)
H39 H 1.5549 0.7805 -0.0918
C41 C 1.4997(3) 0.69315(19) -0.07004(14)
H40 H 1.5575 0.6654 -0.0683
C42 C 1.4150(4) 0.8828(2) -0.09971(18)
H41 H 1.4871 0.901 -0.0838
H42 H 1.3708 0.9085 -0.0853
C43 C 1.3740(3) 0.8950(2) -0.15767(17)
H43 H 1.4131 0.8649 -0.1724
H44 H 1.2996 0.8812 -0.1728
C44 C 1.3902(4) 1.0945(2) -0.15832(16)
H45 H 1.3954 1.1316 -0.1357
C45 C 1.3875(4) 1.0270(2) -0.14103(17)
H46 H 1.3884 1.0195 -0.1077
C46 C 1.3835(4) 0.9699(2) -0.17310(16)
C47 C 1.3877(3) 0.9851(2) -0.22101(15)
H47 H 1.3909 0.949 -0.2429
C48 C 1.3871(3) 1.05421(19) -0.23632(14)
H48 H 1.3878 1.063 -0.2692
N2 N 0.6415(2) -0.18443(15) -0.23397(12)
N3 N 0.4706(2) -0.28592(15) -0.26997(11)
N4 N -0.2082(2) -0.27816(15) -0.25472(12)
N5 N 0.9383(3) 0.36988(18) -0.09126(13)
N6 N 1.2714(2) 0.54634(15) -0.10166(12)
N7 N 1.4211(2) 0.66367(15) -0.05885(12)
N8 N 1.3856(2) 1.10911(15) -0.20661(11)
O1 O 1.41360(19) 0.25391(12) -0.16176(9)
O2 O 1.32072(19) 0.32788(12) 0.19033(10)
O3 O 1.3873(2) 0.36356(15) -0.10634(11)
O4 O 1.3972(3) 0.22799(18) -0.06558(13)
O5 O 1.1333(2) 0.36850(14) 0.11675(11)
O6 O 1.3198(2) 0.42211(17) 0.11008(11)
O7 O 1.5121(2) 0.47289(14) 0.18549(10)
O8 O 1.3781(2) 0.57084(16) 0.11529(10)
O9 O 0.6387(2) 0.42078(14) -0.01158(10)
O10 O 1.4967(2) 0.46547(13) 0.08709(10)
O11 O 0.5855(2) 0.29647(15) -0.07181(11)
O12 O 0.7865(2) 0.35787(16) -0.03879(11)
O13 O 1.0943(3) 0.29643(17) -0.00273(13)
O14 O 1.2663(3) 0.2176(3) -0.00340(15)
O15 O 1.2654(2) 0.27335(17) 0.09189(11)
O16 O 1.2147(3) 0.14354(19) -0.09635(13)
O17 O 1.3876(3) 0.10212(19) -0.01666(17)
O18 O 0.9445(2) 0.29567(15) 0.05234(11)
O19 O 0.9949(4) 0.42230(18) 0.01656(13)
O20 O 1.4255(2) 0.44816(13) -0.02230(10)
V1 V 1.18314(5) 0.23544(4) 0.02995(3)
O21 O 1.1252(3) 0.1641(2) 0.03719(16)
V2 V 1.25773(4) 0.34908(3) 0.12856(2)
V3 V 1.43174(5) 0.48240(3) 0.12549(2)
V4 V 0.65895(5) 0.37677(3) -0.05806(2)
V5 V 1.44210(5) 0.28634(3) -0.10271(2)
V6 V 1.31526(6) 0.17011(4) -0.04580(3)
Ni1 Ni 0.93950(6) 0.32556(3) -0.02140(3)
Ni2 Ni 1.42058(5) 0.55749(3) -0.04277(2)
Ni3 Ni 0.63010(4) -0.28598(3) -0.26420(2)
H49 H 1.417(5) 0.422(3) -0.0519(18)
H50 H 1.372(4) 0.426(3) -0.016(3)
H51 H 0.999(4) 0.314(3) 0.0809(18)
H52 H 0.947(5) 0.2519(16) 0.065(2)
H53 H 1.049(4) 0.423(4) 0.0486(14)
H54 H 0.956(4) 0.457(3) 0.021(3)
N4_2 N 0.7918(2) -0.27816(15) -0.25472(12)
N8A N 0.6144(2) -0.39089(15) -0.29339(11)
O1A O 0.58640(19) -0.24609(12) -0.33824(9)
O2B O 0.67928(19) -0.32788(12) -0.19033(10)
O8B O 0.6219(2) 0.42916(16) -0.11529(10)
O9B O 1.3613(2) 0.57922(14) 0.01158(10)
O10B O 1.5033(2) 0.53453(13) -0.08709(10)
O11_2 O 1.5855(2) 0.29647(15) -0.07181(11)
O20B O 1.5745(2) 0.55184(13) 0.02230(10)
V4B V 1.34105(5) 0.62323(3) 0.05806(2)
V5_2 V 0.44210(5) 0.28634(3) -0.10271(2)
Ni2B Ni 0.57942(5) 0.44251(3) 0.04277(2)
Ni2B_2 Ni 1.57942(5) 0.44251(3) 0.04277(2)
Ni3_2 Ni -0.36990(4) -0.28598(3) -0.26420(2)
Ni3A Ni 1.36990(4) 1.21402(3) -0.23580(2)
Ni3A_2 Ni 1.36990(4) 0.21402(3) -0.23580(2)
Ni3B Ni 1.36990(4) 0.28598(3) 0.26420(2)
H49B H 1.583(5) 0.578(3) 0.0519(18)
H50B H 1.628(4) 0.574(3) 0.016(3)
O22 O 1.0224(4) 0.8390(2) -0.08480(19)
O23 O 0.7610(4) 0.5800(3) 0.0010(2)
O24 O 0.9140(6) 0.9686(4) 0.0261(3)
O26 O 0.9495(10) -0.0553(7) -0.1789(5)
O27 O 0.4223(7) -0.1287(4) 0.0316(3)
O28 O 0.1498(8) -0.0781(5) -0.1195(4)
O29 O 0.4027(5) -0.0396(4) 0.0104(3)
O31 O 0.0521(7) 0.0533(4) -0.1362(3)
O25? O 0.8383(6) 0.5332(4) -0.0145(3)
O30? O 0.1448(7) 0.0068(5) -0.1360(4)
C49? C 0.7792(9) 0.2078(6) -0.0452(4)
C50? C 0.7275(9) 0.1461(5) -0.0662(4)
C51? C 0.7689(9) 0.1027(5) -0.0942(4)
C52? C 0.8646(9) 0.1245(5) -0.0986(4)
C53? C 0.9131(10) 0.1871(5) -0.0759(4)
C54? C 0.7204(13) 0.0304(7) -0.1114(6)
H55? H 0.750 0.236 -0.0267
H56? H 0.6652 0.1337 -0.0617
H57? H 0.8953 0.0969 -0.1167
H58? H 0.9769 0.1999 -0.0788
H59? H 0.773 -0.0052 -0.0938
H60? H 0.6602 0.0243 -0.1011
N9? N 0.8713(9) 0.2298(6) -0.0500(5)
O32? O 0.2829(7) -0.0234(5) -0.0214(4)
O33? O 0.7318(19) 0.6387(13) 0.0028(10)
O34? O 0.1827(6) -0.0580(4) -0.0432(3)
O35? O 0.9118(8) 0.9738(5) -0.0089(4)
O36? O 0.7419(8) 0.6271(5) 0.0412(4)
V7? V 0.7793(5) 0.7025(3) -0.0163(2)
loop_
_geom_bond_atom_site_label_1
_geom_bond_atom_site_label_2
_geom_bond_site_symmetry_1
_geom_bond_site_symmetry_2
N1 C1 1_555 1_555
C1 H1 1_555 1_555
C2 C1 1_555 1_555
H2 C2 1_555 1_555
C3 C2 1_555 1_555
C4 C3 1_555 1_555
H3 C4 1_555 1_555
C5 N1 1_555 1_555
H4 C5 1_555 1_555
C6 C3 1_555 1_555
H5 C6 1_555 1_555
H6 C6 1_555 1_555
C7 C6 1_555 1_555
H7 C7 1_555 1_555
H8 C7 1_555 1_555
C8 H9 1_555 1_555
C9 C8 1_555 1_555
H10 C9 1_555 1_555
C10 C7 1_555 1_555
C11 C10 1_555 1_555
H11 C11 1_555 1_555
C12 C11 1_555 1_555
H12 C12 1_555 1_555
C13 H13 1_555 1_555
C14 C13 1_555 1_555
H14 C14 1_555 1_555
C15 C14 1_555 1_555
C16 C15 1_555 1_555
H15 C16 1_555 1_555
C17 C16 1_555 1_555
H16 C17 1_555 1_555
C18 C15 1_555 1_555
H17 C18 1_555 1_555
H18 C18 1_555 1_555
C19 C18 1_555 1_555
H19 C19 1_555 1_555
H20 C19 1_555 1_555
C20 H21 1_555 1_555
C21 C20 1_555 1_555
H22 C21 1_555 1_555
C22 C19 1_555 1_555
C23 C22 1_555 1_555
H23 C23 1_555 1_555
C24 C23 1_555 1_555
H24 C24 1_555 1_555
C25 H25 1_555 1_555
C26 C25 1_555 1_555
H26 C26 1_555 1_555
C27 C26 1_555 1_555
C28 C27 1_555 1_555
H27 C28 1_555 1_555
C29 C28 1_555 1_555
H28 C29 1_555 1_555
C30 C27 1_555 1_555
H29 C30 1_555 1_555
H30 C30 1_555 1_555
C31 C30 1_555 1_555
H31 C31 1_555 1_555
H32 C31 1_555 1_555
C32 H33 1_555 1_555
C33 C32 1_555 1_555
H34 C33 1_555 1_555
C34 C31 1_555 1_555
C35 C34 1_555 1_555
H35 C35 1_555 1_555
C36 C35 1_555 1_555
H36 C36 1_555 1_555
C37 H37 1_555 1_555
C38 C37 1_555 1_555
H38 C38 1_555 1_555
C39 C38 1_555 1_555
C40 C39 1_555 1_555
H39 C40 1_555 1_555
C41 C40 1_555 1_555
H40 C41 1_555 1_555
C42 C39 1_555 1_555
H41 C42 1_555 1_555
H42 C42 1_555 1_555
C43 C42 1_555 1_555
H43 C43 1_555 1_555
H44 C43 1_555 1_555
C44 H45 1_555 1_555
C45 C44 1_555 1_555
H46 C45 1_555 1_555
C46 C43 1_555 1_555
C47 C46 1_555 1_555
H47 C47 1_555 1_555
C48 C47 1_555 1_555
H48 C48 1_555 1_555
N2 C8 1_555 1_555
N3 C13 1_555 1_555
N4 C20 1_555 1_555
N5 C25 1_555 1_555
N6 C32 1_555 1_555
N7 C37 1_555 1_555
N8 C44 1_555 1_555
O1 V5 1_555 1_555
O2 V2 1_555 1_555
O3 V5 1_555 1_555
O4 V5 1_555 1_555
O5 V2 1_555 1_555
O6 V2 1_555 1_555
O7 V3 1_555 1_555
O8 V3 1_555 1_555
O9 V4 1_555 1_555
O10 V3 1_555 1_555
O11 V4 1_555 1_555
O12 V4 1_555 1_555
O13 V1 1_555 1_555
O14 V1 1_555 1_555
O15 V1 1_555 1_555
O16 V6 1_555 1_555
O17 V6 1_555 1_555
O18 Ni1 1_555 1_555
O19 Ni1 1_555 1_555
O20 Ni2 1_555 1_555
V1 O21 1_555 1_555
V2 O15 1_555 1_555
V3 O6 1_555 1_555
V4 O8B 1_555 1_555
V5 O11_2 1_555 1_555
V6 O4 1_555 1_555
Ni1 N1 1_555 1_555
Ni2 N6 1_555 1_555
Ni3 N2 1_555 1_555
H49 O20 1_555 1_555
H50 O20 1_555 1_555
H51 O18 1_555 1_555
H52 O18 1_555 1_555
H53 O19 1_555 1_555
H54 O19 1_555 1_555
N4_2 Ni3 1_555 1_555
N8A Ni3 1_555 1_555
O1A Ni3 1_555 1_555
O2B Ni3 1_555 1_555
O9B Ni2 1_555 1_555
O10B Ni2 1_555 1_555
O20B Ni2 1_555 1_555
V4B O8 1_555 1_555
V5_2 O11 1_555 1_555
Ni2B O9 1_555 1_555
Ni2B_2 O10 1_555 1_555
Ni3_2 N4 1_555 1_555
Ni3A N8 1_555 1_555
Ni3A_2 O1 1_555 1_555
Ni3B O2 1_555 1_555
H49B O20B 1_555 1_555
H50B O20B 1_555 1_555
C4 C5 1_555 1_555
C9 C10 1_555 1_555
C12 N2 1_555 1_555
C17 N3 1_555 1_555
C21 C22 1_555 1_555
C24 N4 1_555 1_555
C29 N5 1_555 1_555
C33 C34 1_555 1_555
C36 N6 1_555 1_555
C41 N7 1_555 1_555
C45 C46 1_555 1_555
C48 N8 1_555 1_555
N3 Ni3 1_555 1_555
N5 Ni1 1_555 1_555
N7 Ni2 1_555 1_555
O12 Ni1 1_555 1_555
O13 Ni1 1_555 1_555
O14 V6 1_555 1_555
O20 Ni2B_2 1_555 1_555
O9B V4B 1_555 1_555
O20B Ni2B_2 1_555 1_555

#END
