
#######################################################################
#
#                 Cambridge Crystallographic Data Centre
#                                CCDC 
#
#######################################################################
#
# If this CIF has been generated from an entry in the Cambridge 
# Structural Database, then it will include bibliographic, chemical, 
# crystal, experimental, refinement or atomic coordinate data resulting 
# from the CCDC's data processing and validation procedures.
#
#######################################################################

data_CAWZIL
_symmetry_cell_setting           monoclinic
_symmetry_space_group_name_H-M   'C 2/c'
_symmetry_Int_Tables_number      15
_space_group_name_Hall           '-C 2yn'
loop_
_symmetry_equiv_pos_site_id
_symmetry_equiv_pos_as_xyz
1 x,y,z
2 -x,y,1/2-z
3 1/2+x,1/2+y,z
4 1/2-x,1/2+y,1/2-z
5 -x,-y,-z
6 x,-y,1/2+z
7 1/2-x,1/2-y,-z
8 1/2+x,1/2-y,1/2+z
_cell_length_a                   17.0515(7)
_cell_length_b                   5.5560(2)
_cell_length_c                   10.4254(5)
_cell_angle_alpha                90
_cell_angle_beta                 115.400(2)
_cell_angle_gamma                90
_cell_volume                     892.209
loop_
_atom_site_label
_atom_site_type_symbol
_atom_site_fract_x
_atom_site_fract_y
_atom_site_fract_z
Cl1 Cl 0.379013(19) 0.13784(5) 0.17543(3)
Cu1 Cu 0.2500 0.2500 0.0000
O1 O 0.23319(7) 0.47710(18) 0.12920(11)
H1 H 0.2634(12) 0.472(4) 0.2146(17)
H2 H 0.2159(13) 0.610(3) 0.104(2)
O2 O 0.17081(6) -0.06260(16) 0.08257(10)
N1 N 0.08684(7) -0.03220(18) 0.04130(11)
C1 C 0.02920(8) -0.1881(2) -0.04988(14)
H3 H 0.0491 -0.3203 -0.0856
C2 C 0.05823(8) 0.1564(2) 0.09133(14)
H4 H 0.0986 0.2671 0.1552
Cl1F Cl 0.120987(19) 0.36216(5) -0.17543(3)
Cu1B Cu -0.2500 -0.2500 0.0000
O1F O 0.26681(7) 0.02290(18) -0.12920(11)
H1F H 0.2366(12) 0.028(4) -0.2146(17)
H2F H 0.2841(13) -0.110(3) -0.104(2)
O2D O -0.17081(6) 0.06260(16) -0.08257(10)
O2F O 0.32919(6) 0.56260(16) -0.08257(10)
N1D N -0.08684(7) 0.03220(18) -0.04130(11)
C1D C -0.02920(8) 0.1881(2) 0.04988(14)
H3D H -0.0491 0.3203 0.0856
C2D C -0.05823(8) -0.1564(2) -0.09133(14)
H4D H -0.0986 -0.2671 -0.1552
loop_
_geom_bond_atom_site_label_1
_geom_bond_atom_site_label_2
_geom_bond_site_symmetry_1
_geom_bond_site_symmetry_2
Cl1 Cu1 1_555 1_555
Cu1 O1 1_555 1_555
O1 H1 1_555 1_555
H2 O1 1_555 1_555
O2 Cu1 1_555 1_555
N1 O2 1_555 1_555
C1 N1 1_555 1_555
H3 C1 1_555 1_555
C2 N1 1_555 1_555
H4 C2 1_555 1_555
Cl1F Cu1 1_555 1_555
Cu1B O2D 1_555 1_555
O1F Cu1 1_555 1_555
H1F O1F 1_555 1_555
H2F O1F 1_555 1_555
O2D N1D 1_555 1_555
O2F Cu1 1_555 1_555
N1D C1D 1_555 1_555
C1D C2 1_555 1_555
H3D C1D 1_555 1_555
C2D C1 1_555 1_555
H4D C2D 1_555 1_555
N1D C2D 1_555 1_555

#END
