
#######################################################################
#
#                 Cambridge Crystallographic Data Centre
#                                CCDC 
#
#######################################################################
#
# If this CIF has been generated from an entry in the Cambridge 
# Structural Database, then it will include bibliographic, chemical, 
# crystal, experimental, refinement or atomic coordinate data resulting 
# from the CCDC's data processing and validation procedures.
#
#######################################################################

data_CAXBOU
_symmetry_cell_setting           monoclinic
_symmetry_space_group_name_H-M   'P 21'
_symmetry_Int_Tables_number      4
_space_group_name_Hall           'P 2yb'
loop_
_symmetry_equiv_pos_site_id
_symmetry_equiv_pos_as_xyz
1 x,y,z
2 -x,1/2+y,-z
_cell_length_a                   13.3781(9)
_cell_length_b                   14.1119(9)
_cell_length_c                   20.8914(14)
_cell_angle_alpha                90
_cell_angle_beta                 92.229(1)
_cell_angle_gamma                90
_cell_volume                     3941.11
loop_
_atom_site_label
_atom_site_type_symbol
_atom_site_fract_x
_atom_site_fract_y
_atom_site_fract_z
B1 B 0.9006(5) 0.9262(5) 0.6699(3)
H1 H 0.9456 0.9564 0.7004
C1 C 0.9025(5) 1.0774(4) 0.5966(3)
H2 H 0.9475 1.1138 0.6211
C2 C 0.8564(5) 1.1072(5) 0.5391(3)
H3 H 0.8629 1.1650 0.5183
C3 C 0.7963(4) 1.0272(4) 0.5196(3)
H4 H 0.7548 1.0240 0.4829
C4 C 0.7789(4) 0.9024(5) 0.7612(3)
H5 H 0.8181 0.9290 0.7943
C5 C 0.6843(5) 0.8623(5) 0.7673(3)
H6 H 0.6477 0.8593 0.8042
C6 C 0.6545(4) 0.8257(5) 0.7033(3)
H7 H 0.5962 0.7930 0.6917
C7 C 1.0377(4) 0.7938(6) 0.6537(3)
H8 H 1.0878 0.8187 0.6808
C8 C 1.0432(5) 0.7115(5) 0.6191(3)
H9 H 1.0957 0.6684 0.6187
C9 C 0.9501(4) 0.7074(5) 0.5839(3)
H10 H 0.9320 0.6600 0.5547
C10 C 0.7788(3) 0.7930(4) 0.4766(2)
C11 C 0.7003(4) 0.6908(4) 0.5751(2)
C12 C 0.6116(4) 0.8689(4) 0.5420(2)
C13 C 0.7504(4) 0.4016(4) 0.5541(3)
C14 C 0.8071(4) 0.3534(4) 0.6050(3)
H11 H 0.7751 0.3264 0.6393
C15 C 0.9089(4) 0.3488(4) 0.6012(3)
H12 H 0.9451 0.3188 0.6342
C16 C 0.9594(4) 0.3846(5) 0.5529(3)
H13 H 1.0286 0.3789 0.5532
C17 C 0.9093(4) 0.4305(5) 0.5023(3)
H14 H 0.9442 0.4542 0.4681
C18 C 0.8047(4) 0.4404(4) 0.5038(2)
C19 C 0.7537(4) 0.4902(4) 0.4525(3)
H15 H 0.7913 0.5049 0.4173
C20 C 0.6250(4) 0.5756(4) 0.3978(2)
H16 H 0.6556 0.6384 0.4034
C21 C 0.6461(5) 0.5417(5) 0.3311(3)
C22 C 0.6028(5) 0.4593(6) 0.3063(3)
H17 H 0.5671 0.4196 0.3326
C23 C 0.6127(6) 0.4363(6) 0.2422(3)
H18 H 0.5837 0.3812 0.2256
C24 C 0.6660(5) 0.4957(7) 0.2028(3)
H19 H 0.6726 0.4804 0.1599
C25 C 0.7093(6) 0.5781(6) 0.2276(3)
H20 H 0.7449 0.6179 0.2013
C26 C 0.6993(5) 0.6011(5) 0.2917(3)
H21 H 0.7283 0.6562 0.3083
C27 C 0.5104(4) 0.5871(5) 0.4041(3)
H22 H 0.4783 0.5279 0.3900
C28 C 0.4709(4) 0.6669(4) 0.3598(2)
C29 C 0.4036(4) 0.6443(5) 0.3115(3)
H23 H 0.3745 0.5845 0.3093
C30 C 0.3812(5) 0.7081(5) 0.2690(3)
H24 H 0.3486 0.6879 0.2313
C31 C 0.4007(5) 0.8002(5) 0.2745(3)
H25 H 0.3715 0.8444 0.2465
C32 C 0.4666(4) 0.8273(4) 0.3239(2)
H26 H 0.4850 0.8905 0.3283
C33 C 0.5038(4) 0.7627(4) 0.3652(3)
H27 H 0.5506 0.7801 0.3971
C34 C 0.4298(4) 0.6601(4) 0.4947(2)
H28 H 0.4009 0.7056 0.4675
C35 C 0.4041(3) 0.6590(4) 0.5600(3)
C36 C 0.3439(4) 0.7409(5) 0.5770(3)
H29 H 0.3266 0.7869 0.5466
C37 C 0.3126(4) 0.7488(5) 0.6401(3)
H30 H 0.2781 0.8022 0.6531
C38 C 0.3349(5) 0.6733(5) 0.6841(3)
H31 H 0.3084 0.6739 0.7246
C39 C 0.3958(4) 0.5993(5) 0.6663(3)
H32 H 0.4146 0.5539 0.6967
C40 C 0.4305(3) 0.5906(4) 0.6035(2)
Cr1 Cr 0.75328(5) 0.82401(9) 0.57018(4)
Mn1 Mn 0.56978(6) 0.50308(9) 0.52323(4)
N1 N 0.8742(3) 0.9915(4) 0.6118(2)
N2 N 0.8093(3) 0.9596(3) 0.5619(2)
N3 N 0.8041(4) 0.8964(4) 0.6993(2)
N4 N 0.7331(3) 0.8507(3) 0.6633(2)
N5 N 0.9453(3) 0.8326(4) 0.6412(2)
N6 N 0.8930(3) 0.7802(4) 0.5982(2)
N7 N 0.7954(4) 0.7717(4) 0.4264(2)
N8 N 0.6650(3) 0.6209(4) 0.5733(2)
N9 N 0.5349(3) 0.8956(4) 0.5251(2)
N10 N 0.6615(3) 0.5168(4) 0.4497(2)
N11 N 0.4933(3) 0.5991(4) 0.47115(19)
O1 O 0.6523(3) 0.4081(3) 0.55934(18)
O2 O 0.4800(3) 0.5149(3) 0.59087(17)
Mn1A Mn 0.43022(6) 1.00308(9) 0.47677(4)
N9A N 0.4651(3) 0.3956(4) 0.4749(2)
B2 B 0.6379(5) 0.5110(6) 0.8286(3)
H33 H 0.5937 0.4774 0.7992
C41 C 0.7531(4) 0.5521(5) 0.7316(3)
H34 H 0.7166 0.5252 0.6974
C42 C 0.8418(5) 0.6023(5) 0.7291(3)
H35 H 0.8762 0.6168 0.6925
C43 C 0.8684(5) 0.6255(5) 0.7886(3)
H36 H 0.9266 0.6583 0.8002
C44 C 0.6663(5) 0.3449(5) 0.8914(3)
H37 H 0.6235 0.3058 0.8672
C45 C 0.7234(5) 0.3186(6) 0.9439(3)
H38 H 0.7280 0.2583 0.9618
C46 C 0.7716(5) 0.3965(5) 0.9645(3)
H39 H 0.8168 0.3984 0.9995
C47 C 0.4942(5) 0.6175(6) 0.8556(3)
H40 H 0.4436 0.5895 0.8303
C48 C 0.4807(5) 0.6950(6) 0.8918(3)
H41 H 0.4240 0.7327 0.8941
C49 C 0.5733(5) 0.7050(5) 0.9253(3)
H42 H 0.5880 0.7500 0.9568
C50 C 0.9291(4) 0.5840(5) 0.9493(3)
C51 C 0.7638(4) 0.6271(5) 1.0225(3)
C52 C 0.8148(4) 0.7610(5) 0.9259(3)
C53 C 0.9333(4) 0.3890(5) 1.1084(2)
C54 C 0.8887(4) 0.3909(6) 1.1683(3)
H43 H 0.9040 0.4402 1.1966
C55 C 0.8234(5) 0.3222(6) 1.1860(3)
H44 H 0.7985 0.3245 1.2270
C56 C 0.7934(4) 0.2507(5) 1.1463(3)
H45 H 0.7465 0.2067 1.1592
C57 C 0.8334(4) 0.2439(5) 1.0859(3)
H46 H 0.8141 0.1944 1.0588
C58 C 0.9027(4) 0.3112(5) 1.0659(2)
C59 C 0.9417(3) 0.3042(4) 1.0020(2)
H47 H 0.9139 0.2576 0.9753
C60 C 1.0509(4) 0.3246(5) 0.9160(2)
H48 H 1.1028 0.2768 0.9247
C61 C 0.9766(4) 0.2847(5) 0.8661(3)
C62 C 0.9838(6) 0.1942(5) 0.8524(3)
H49 H 1.0320 0.1576 0.8740
C63 C 0.9198(6) 0.1518(6) 0.8057(3)
H50 H 0.9227 0.0873 0.7967
C64 C 0.8552(5) 0.2085(6) 0.7752(3)
H51 H 0.8159 0.1827 0.7419
C65 C 0.8422(5) 0.3024(6) 0.7890(3)
H52 H 0.7934 0.3374 0.7667
C66 C 0.9033(4) 0.3458(5) 0.8374(3)
H53 H 0.8962 0.4088 0.8494
C67 C 1.1022(4) 0.4160(4) 0.8907(3)
H54 H 1.0494 0.4618 0.8793
C68 C 1.1595(4) 0.3970(4) 0.8312(2)
C69 C 1.2300(4) 0.3278(5) 0.8261(3)
H55 H 1.2478 0.2909 0.8616
C70 C 1.2761(5) 0.3117(6) 0.7676(3)
H56 H 1.3266 0.2667 0.7657
C71 C 1.2483(5) 0.3602(6) 0.7149(4)
H57 H 1.2771 0.3461 0.6762
C72 C 1.1763(5) 0.4319(6) 0.7173(3)
H58 H 1.1583 0.4667 0.6809
C73 C 1.1310(5) 0.4507(5) 0.7767(3)
H59 H 1.0831 0.4980 0.7794
C74 C 1.2546(4) 0.4685(4) 0.9483(3)
H60 H 1.2876 0.4560 0.9108
C75 C 1.3125(3) 0.5018(4) 1.0031(3)
C76 C 1.4174(4) 0.4976(5) 1.0006(3)
H61 H 1.4471 0.4757 0.9639
C77 C 1.4755(5) 0.5263(5) 1.0528(3)
H62 H 1.5446 0.5194 1.0525
C78 C 1.4319(4) 0.5652(4) 1.1059(3)
H63 H 1.4720 0.5874 1.1401
C79 C 1.3253(4) 0.5714(5) 1.1082(3)
H64 H 1.2958 0.5976 1.1436
C80 C 1.2674(4) 0.5385(4) 1.0578(2)
Cr2 Cr 0.78389(7) 0.61498(10) 0.92678(5)
Mn2 Mn 1.08045(6) 0.46006(10) 1.02442(4)
N12 N 0.7312(4) 0.5506(4) 0.7933(2)
N13 N 0.8033(3) 0.5971(4) 0.8288(2)
N14 N 0.6834(4) 0.4396(4) 0.8805(2)
N15 N 0.7444(4) 0.4768(4) 0.9256(2)
N16 N 0.5874(3) 0.5853(4) 0.8599(2)
N17 N 0.6354(3) 0.6411(4) 0.9052(2)
N18 N 0.9725(3) 0.5699(4) 0.9721(2)
N19 N 0.7524(4) 0.6375(4) 1.0762(3)
N20 N 0.8285(3) 0.8403(4) 0.9298(2)
N21 N 1.0070(3) 0.3530(4) 0.9798(2)
N22 N 1.1627(3) 0.4555(4) 0.9483(2)
O3 O 0.9949(3) 0.4546(3) 1.09361(17)
O4 O 1.1677(3) 0.5476(3) 1.06058(19)
Mn2A Mn 0.91955(6) 0.96006(10) 0.97558(4)
N20A N 1.1715(3) 0.3403(4) 1.0702(2)
loop_
_geom_bond_atom_site_label_1
_geom_bond_atom_site_label_2
_geom_bond_site_symmetry_1
_geom_bond_site_symmetry_2
B1 H1 1_555 1_555
C1 H2 1_555 1_555
C2 C1 1_555 1_555
H3 C2 1_555 1_555
C3 C2 1_555 1_555
H4 C3 1_555 1_555
C4 H5 1_555 1_555
C5 C4 1_555 1_555
H6 C5 1_555 1_555
C6 C5 1_555 1_555
H7 C6 1_555 1_555
C7 H8 1_555 1_555
C8 C7 1_555 1_555
H9 C8 1_555 1_555
C9 C8 1_555 1_555
H10 C9 1_555 1_555
C10 Cr1 1_555 1_555
C11 Cr1 1_555 1_555
C12 Cr1 1_555 1_555
C13 C14 1_555 1_555
C14 H11 1_555 1_555
C15 C14 1_555 1_555
H12 C15 1_555 1_555
C16 C15 1_555 1_555
H13 C16 1_555 1_555
C17 C16 1_555 1_555
H14 C17 1_555 1_555
C18 C13 1_555 1_555
C19 C18 1_555 1_555
H15 C19 1_555 1_555
C20 H16 1_555 1_555
C21 C20 1_555 1_555
C22 C21 1_555 1_555
H17 C22 1_555 1_555
C23 C22 1_555 1_555
H18 C23 1_555 1_555
C24 C23 1_555 1_555
H19 C24 1_555 1_555
C25 C24 1_555 1_555
H20 C25 1_555 1_555
C26 C21 1_555 1_555
H21 C26 1_555 1_555
C27 C20 1_555 1_555
H22 C27 1_555 1_555
C28 C27 1_555 1_555
C29 C28 1_555 1_555
H23 C29 1_555 1_555
C30 C29 1_555 1_555
H24 C30 1_555 1_555
C31 C30 1_555 1_555
H25 C31 1_555 1_555
C32 C31 1_555 1_555
H26 C32 1_555 1_555
C33 C28 1_555 1_555
H27 C33 1_555 1_555
C34 H28 1_555 1_555
C35 C34 1_555 1_555
C36 C35 1_555 1_555
H29 C36 1_555 1_555
C37 C36 1_555 1_555
H30 C37 1_555 1_555
C38 C37 1_555 1_555
H31 C38 1_555 1_555
C39 C38 1_555 1_555
H32 C39 1_555 1_555
C40 C35 1_555 1_555
Cr1 N2 1_555 1_555
Mn1 N8 1_555 1_555
N1 B1 1_555 1_555
N2 C3 1_555 1_555
N3 B1 1_555 1_555
N4 C6 1_555 1_555
N5 B1 1_555 1_555
N6 C9 1_555 1_555
N7 C10 1_555 1_555
N8 C11 1_555 1_555
N9 C12 1_555 1_555
N10 C19 1_555 1_555
N11 C27 1_555 1_555
O1 C13 1_555 1_555
O2 C40 1_555 1_555
B2 H33 1_555 1_555
C41 H34 1_555 1_555
C42 C41 1_555 1_555
H35 C42 1_555 1_555
C43 C42 1_555 1_555
H36 C43 1_555 1_555
C44 H37 1_555 1_555
C45 C44 1_555 1_555
H38 C45 1_555 1_555
C46 C45 1_555 1_555
H39 C46 1_555 1_555
C47 H40 1_555 1_555
C48 C47 1_555 1_555
H41 C48 1_555 1_555
C49 C48 1_555 1_555
H42 C49 1_555 1_555
C50 Cr2 1_555 1_555
C51 Cr2 1_555 1_555
C52 Cr2 1_555 1_555
C53 C54 1_555 1_555
C54 H43 1_555 1_555
C55 C54 1_555 1_555
H44 C55 1_555 1_555
C56 C55 1_555 1_555
H45 C56 1_555 1_555
C57 C56 1_555 1_555
H46 C57 1_555 1_555
C58 C53 1_555 1_555
C59 C58 1_555 1_555
H47 C59 1_555 1_555
C60 H48 1_555 1_555
C61 C60 1_555 1_555
C62 C61 1_555 1_555
H49 C62 1_555 1_555
C63 C62 1_555 1_555
H50 C63 1_555 1_555
C64 C63 1_555 1_555
H51 C64 1_555 1_555
C65 C64 1_555 1_555
H52 C65 1_555 1_555
C66 C61 1_555 1_555
H53 C66 1_555 1_555
C67 C60 1_555 1_555
H54 C67 1_555 1_555
C68 C67 1_555 1_555
C69 C68 1_555 1_555
H55 C69 1_555 1_555
C70 C69 1_555 1_555
H56 C70 1_555 1_555
C71 C70 1_555 1_555
H57 C71 1_555 1_555
C72 C71 1_555 1_555
H58 C72 1_555 1_555
C73 C68 1_555 1_555
H59 C73 1_555 1_555
C74 H60 1_555 1_555
C75 C74 1_555 1_555
C76 C75 1_555 1_555
H61 C76 1_555 1_555
C77 C76 1_555 1_555
H62 C77 1_555 1_555
C78 C77 1_555 1_555
H63 C78 1_555 1_555
C79 C78 1_555 1_555
H64 C79 1_555 1_555
C80 C75 1_555 1_555
Cr2 N13 1_555 1_555
Mn2 N18 1_555 1_555
N12 B2 1_555 1_555
N13 C43 1_555 1_555
N14 B2 1_555 1_555
N15 C46 1_555 1_555
N16 B2 1_555 1_555
N17 C49 1_555 1_555
N18 C50 1_555 1_555
N19 C51 1_555 1_555
N20 C52 1_555 1_555
N21 C59 1_555 1_555
N22 C67 1_555 1_555
O3 C53 1_555 1_555
O4 C80 1_555 1_555
Mn1A N9 1_555 1_555
N9A Mn1 1_555 1_555
Mn2A N20 1_555 1_555
N20A Mn2 1_555 1_555
C1 N1 1_555 1_555
C4 N3 1_555 1_555
C7 N5 1_555 1_555
C17 C18 1_555 1_555
C20 N10 1_555 1_555
C25 C26 1_555 1_555
C32 C33 1_555 1_555
C34 N11 1_555 1_555
C39 C40 1_555 1_555
Cr1 N4 1_555 1_555
Cr1 N6 1_555 1_555
Mn1 N10 1_555 1_555
Mn1 N11 1_555 1_555
Mn1 O1 1_555 1_555
Mn1 O2 1_555 1_555
N1 N2 1_555 1_555
N3 N4 1_555 1_555
N5 N6 1_555 1_555
C41 N12 1_555 1_555
C44 N14 1_555 1_555
C47 N16 1_555 1_555
C57 C58 1_555 1_555
C60 N21 1_555 1_555
C65 C66 1_555 1_555
C72 C73 1_555 1_555
C74 N22 1_555 1_555
C79 C80 1_555 1_555
Cr2 N15 1_555 1_555
Cr2 N17 1_555 1_555
Mn2 N21 1_555 1_555
Mn2 N22 1_555 1_555
Mn2 O3 1_555 1_555
Mn2 O4 1_555 1_555
N12 N13 1_555 1_555
N14 N15 1_555 1_555
N16 N17 1_555 1_555

#END
