
#######################################################################
#
#                 Cambridge Crystallographic Data Centre
#                                CCDC 
#
#######################################################################
#
# If this CIF has been generated from an entry in the Cambridge 
# Structural Database, then it will include bibliographic, chemical, 
# crystal, experimental, refinement or atomic coordinate data resulting 
# from the CCDC's data processing and validation procedures.
#
#######################################################################

data_CAXBIO
_symmetry_cell_setting           monoclinic
_symmetry_space_group_name_H-M   'P 21'
_symmetry_Int_Tables_number      4
_space_group_name_Hall           'P 2yb'
loop_
_symmetry_equiv_pos_site_id
_symmetry_equiv_pos_as_xyz
1 x,y,z
2 -x,1/2+y,-z
_cell_length_a                   13.3709(17)
_cell_length_b                   14.1169(17)
_cell_length_c                   20.935(3)
_cell_angle_alpha                90
_cell_angle_beta                 92.279(2)
_cell_angle_gamma                90
_cell_volume                     3948.47
loop_
_atom_site_label
_atom_site_type_symbol
_atom_site_fract_x
_atom_site_fract_y
_atom_site_fract_z
B1 B 0.5941(5) 0.4358(5) 0.8312(3)
H1 H 0.5467 0.4653 0.8004
C1 C 0.7156(4) 0.4085(5) 0.7373(3)
H3 H 0.6759 0.4320 0.7034
C2 C 0.8071(4) 0.3711(4) 0.7328(3)
H4 H 0.8442 0.3655 0.6963
C3 C 0.8338(4) 0.3430(4) 0.7929(3)
H5 H 0.8932 0.3117 0.8042
C4 C 0.4629(4) 0.3092(4) 0.8537(2)
H6 H 0.4123 0.3301 0.8254
C5 C 0.4535(4) 0.2312(4) 0.8922(3)
H7 H 0.3986 0.1915 0.8963
C6 C 0.5476(4) 0.2270(4) 0.9235(3)
H8 H 0.5684 0.1803 0.9523
C7 C 0.5986(5) 0.5963(4) 0.8967(3)
H9 H 0.5536 0.6318 0.8716
C8 C 0.6477(4) 0.6268(4) 0.9511(2)
H10 H 0.6443 0.6861 0.9702
C9 C 0.7026(4) 0.5513(4) 0.9711(3)
H11 H 0.7437 0.5514 1.0079
C10 C 0.7240(4) 0.3209(4) 1.0242(2)
C11 C 0.7928(3) 0.2015(3) 0.9268(2)
C12 C 0.8880(4) 0.3847(3) 0.9564(2)
C13 C 1.0631(4) 0.1005(4) 0.8961(2)
C14 C 1.1091(4) 0.1045(4) 0.8364(3)
H12 H 1.0998 0.0558 0.8069
C15 C 1.1640(4) 0.1763(4) 0.8237(3)
H13 H 1.1926 0.1775 0.7839
C16 C 1.1841(4) 0.2517(4) 0.8640(3)
H14 H 1.2240 0.3019 0.8514
C17 C 1.1441(4) 0.2508(4) 0.9228(2)
H15 H 1.1578 0.2998 0.9514
C18 C 1.0818(4) 0.1752(4) 0.9400(2)
C19 C 1.0397(3) 0.1791(3) 1.0026(2)
H16 H 1.0591 0.2287 1.0295
C20 C 0.9315(3) 0.1390(3) 1.0870(2)
H17 H 0.8753 0.1824 1.0785
C21 C 1.0002(4) 0.1856(4) 1.1359(3)
C22 C 0.9787(5) 0.2780(5) 1.1543(3)
H18 H 0.9263 0.3110 1.1340
C23 C 1.0361(4) 0.3204(5) 1.2031(3)
H19 H 1.0224 0.3822 1.2153
C24 C 1.1144(5) 0.2706(5) 1.2338(3)
H20 H 1.1534 0.2992 1.2661
C25 C 1.1337(5) 0.1777(5) 1.2157(3)
H21 H 1.1852 0.1439 1.2364
C26 C 1.0765(4) 0.1353(5) 1.1670(3)
H22 H 1.0893 0.0730 1.1553
C27 C 0.8874(4) 0.0456(3) 1.1094(2)
H23 H 0.9437 0.0037 1.1210
C28 C 0.8270(4) 0.0557(4) 1.1672(3)
C29 C 0.7493(5) 0.1157(4) 1.1724(3)
H24 H 0.7271 0.1509 1.1371
C30 C 0.7018(5) 0.1256(4) 1.2302(3)
H25 H 0.6479 0.1669 1.2327
C31 C 0.7327(5) 0.0765(5) 1.2818(3)
H26 H 0.7005 0.0845 1.3200
C32 C 0.8116(4) 0.0140(5) 1.2791(3)
H27 H 0.8326 -0.0203 1.3151
C33 C 0.8590(4) 0.0030(5) 1.2224(3)
H28 H 0.9123 -0.0391 1.2200
C34 C 0.7426(3) -0.0218(3) 1.0483(2)
H29 H 0.7072 -0.0162 1.0855
C35 C 0.6899(3) -0.0583(3) 0.9930(2)
C36 C 0.5860(4) -0.0632(5) 0.9905(3)
H30 H 0.5514 -0.0424 1.0255
C37 C 0.5336(4) -0.0969(4) 0.9393(3)
H31 H 0.4643 -0.1021 0.9394
C38 C 0.5864(4) -0.1238(4) 0.8860(3)
H32 H 0.5521 -0.1438 0.8489
C39 C 0.6874(4) -0.1207(4) 0.8888(3)
H33 H 0.7212 -0.1429 0.8538
C40 C 0.7426(3) -0.0869(4) 0.9399(3)
Cr1 Cr 0.74584(5) 0.34141(8) 0.93021(3)
Mn1 Mn 0.91910(5) 0.00991(8) 0.97533(3)
N1 N 0.6907(3) 0.4067(3) 0.7985(2)
N2 N 0.7652(3) 0.3657(3) 0.8332(2)
N3 N 0.5489(3) 0.3506(4) 0.86053(18)
N4 N 0.6024(3) 0.2997(3) 0.90592(19)
N5 N 0.6256(3) 0.5074(4) 0.8854(2)
N6 N 0.6918(3) 0.4770(3) 0.93265(19)
N7 N 0.7146(3) 0.3085(4) 1.0771(2)
N8 N 0.8137(3) 0.1262(3) 0.9310(2)
N9 N 0.9639(3) 0.4122(3) 0.9732(2)
N10 N 0.8350(3) 0.0041(3) 1.05090(16)
N11 N 0.9777(3) 0.1188(3) 1.02308(16)
O1 O 0.8421(2) -0.0870(3) 0.93701(16)
O2 O 1.0064(2) 0.0273(2) 0.90809(15)
Mn1A Mn 1.08090(5) 0.50991(8) 1.02467(3)
N9A N 1.0361(3) -0.0878(3) 1.0268(2)
B2 B 0.9070(6) 0.0560(6) 0.6687(4)
H2 H 0.9557 0.0277 0.6993
C41 C 0.2992(4) 0.0645(4) 0.4365(2)
C42 C 0.2495(5) 0.1148(4) 0.3844(3)
H34 H 0.2846 0.1348 0.3494
C43 C 0.1525(5) 0.1319(5) 0.3878(3)
H35 H 0.1214 0.1643 0.3539
C44 C 0.0954(4) 0.1064(5) 0.4360(3)
H36 H 0.0274 0.1207 0.4345
C45 C 0.1381(4) 0.0584(5) 0.4885(3)
H37 H 0.1000 0.0436 0.5233
C46 C 0.2399(4) 0.0326(4) 0.4880(3)
C47 C 0.2821(4) -0.0204(3) 0.5417(2)
H38 H 0.2405 -0.0319 0.5754
C48 C 0.3969(4) -0.1165(3) 0.6002(2)
H39 H 0.3580 -0.1749 0.5948
C49 C 0.3779(4) -0.0751(4) 0.6664(2)
C50 C 0.4265(4) 0.0033(5) 0.6901(3)
H40 H 0.4689 0.0377 0.6646
C51 C 0.4121(5) 0.0306(5) 0.7514(3)
H41 H 0.4445 0.0841 0.7679
C52 C 0.3480(5) -0.0220(5) 0.7902(3)
H42 H 0.3401 -0.0044 0.8325
C53 C 0.3004(5) -0.0951(5) 0.7666(3)
H43 H 0.2574 -0.1285 0.7923
C54 C 0.3121(5) -0.1247(5) 0.7031(3)
H44 H 0.2766 -0.1763 0.6864
C55 C 0.5074(4) -0.1405(4) 0.5970(2)
H45 H 0.5447 -0.0843 0.6117
C56 C 0.5374(4) -0.2196(4) 0.6415(2)
C57 C 0.6054(4) -0.1996(4) 0.6918(2)
H46 H 0.6347 -0.1399 0.6952
C58 C 0.6293(4) -0.2685(4) 0.7368(3)
H47 H 0.6743 -0.2548 0.7705
C59 C 0.5866(4) -0.3582(4) 0.7320(2)
H48 H 0.6025 -0.4044 0.7623
C60 C 0.5199(4) -0.3777(4) 0.6811(2)
H49 H 0.4917 -0.4378 0.6772
C61 C 0.4946(4) -0.3086(4) 0.6359(2)
H50 H 0.4493 -0.3220 0.6023
C62 C 0.5834(3) -0.2202(4) 0.5073(2)
H51 H 0.6052 -0.2666 0.5361
C63 C 0.6136(4) -0.2307(4) 0.4432(2)
C64 C 0.6637(4) -0.3154(4) 0.4269(3)
H52 H 0.6741 -0.3619 0.4580
C65 C 0.6977(4) -0.3308(5) 0.3657(3)
H53 H 0.7296 -0.3865 0.3544
C66 C 0.6810(5) -0.2586(5) 0.3236(3)
H54 H 0.7057 -0.2652 0.2830
C67 C 0.6297(4) -0.1756(5) 0.3368(3)
H55 H 0.6167 -0.1312 0.3048
C68 C 0.5987(4) -0.1599(4) 0.3974(2)
C69 C 0.7785(4) 0.1831(4) 0.4775(3)
C70 C 0.6173(4) 0.0882(5) 0.5404(3)
C71 C 0.6821(4) 0.2734(4) 0.5772(2)
C72 C 0.8231(4) -0.0500(4) 0.5177(3)
H56 H 0.7830 -0.0507 0.4804
C73 C 0.8917(5) -0.1199(5) 0.5372(3)
H57 H 0.9087 -0.1736 0.5142
C74 C 0.9283(5) -0.0948(5) 0.5950(3)
H58 H 0.9726 -0.1305 0.6205
C75 C 0.6539(5) 0.1230(5) 0.7007(3)
H59 H 0.5921 0.1481 0.6878
C76 C 0.6797(5) 0.0924(5) 0.7639(3)
H60 H 0.6408 0.0940 0.7997
C77 C 0.7759(5) 0.0599(5) 0.7592(3)
H61 H 0.8140 0.0326 0.7925
C78 C 0.9353(4) 0.2821(5) 0.5899(3)
H62 H 0.9140 0.3291 0.5613
C79 C 1.0233(4) 0.2834(5) 0.6275(3)
H63 H 1.0687 0.3334 0.6299
C80 C 1.0330(5) 0.2010(5) 0.6601(3)
H64 H 1.0864 0.1811 0.6866
Cr2 Cr 0.75277(6) 0.14553(8) 0.57014(4)
Mn2 Mn 0.46534(6) -0.05282(8) 0.47452(3)
N12 N 0.3703(3) -0.0524(3) 0.54691(18)
N13 N 0.5298(3) -0.1545(3) 0.52955(19)
N14 N 0.7915(4) 0.2119(4) 0.4275(2)
N15 N 0.5783(4) 0.0438(4) 0.5222(3)
N16 N 0.6398(3) 0.3428(3) 0.5761(2)
N17 N 0.8249(3) 0.0179(3) 0.5620(2)
N18 N 0.8901(4) -0.0081(4) 0.6109(2)
N19 N 0.7301(3) 0.1109(3) 0.6626(2)
N20 N 0.8066(4) 0.0731(4) 0.7003(2)
N21 N 0.8859(3) 0.2007(3) 0.6019(2)
N22 N 0.9453(4) 0.1530(4) 0.6447(2)
O3 O 0.5553(3) -0.0776(3) 0.40836(17)
O4 O 0.3954(2) 0.0476(3) 0.43502(18)
Mn2A Mn 0.53466(6) 0.44718(8) 0.52548(3)
N16A N 0.3602(3) -0.1572(3) 0.4239(2)
loop_
_geom_bond_atom_site_label_1
_geom_bond_atom_site_label_2
_geom_bond_site_symmetry_1
_geom_bond_site_symmetry_2
B1 H1 1_555 1_555
B2 H2 1_555 1_555
C1 H3 1_555 1_555
C2 C1 1_555 1_555
H4 C2 1_555 1_555
C3 C2 1_555 1_555
H5 C3 1_555 1_555
C4 H6 1_555 1_555
C5 C4 1_555 1_555
H7 C5 1_555 1_555
C6 C5 1_555 1_555
H8 C6 1_555 1_555
C7 H9 1_555 1_555
C8 C7 1_555 1_555
H10 C8 1_555 1_555
C9 C8 1_555 1_555
H11 C9 1_555 1_555
C10 Cr1 1_555 1_555
C11 Cr1 1_555 1_555
C12 Cr1 1_555 1_555
C13 C14 1_555 1_555
C14 H12 1_555 1_555
C15 C14 1_555 1_555
H13 C15 1_555 1_555
C16 C15 1_555 1_555
H14 C16 1_555 1_555
C17 C16 1_555 1_555
H15 C17 1_555 1_555
C18 C13 1_555 1_555
C19 C18 1_555 1_555
H16 C19 1_555 1_555
C20 H17 1_555 1_555
C21 C20 1_555 1_555
C22 C21 1_555 1_555
H18 C22 1_555 1_555
C23 C22 1_555 1_555
H19 C23 1_555 1_555
C24 C23 1_555 1_555
H20 C24 1_555 1_555
C25 C24 1_555 1_555
H21 C25 1_555 1_555
C26 C21 1_555 1_555
H22 C26 1_555 1_555
C27 C20 1_555 1_555
H23 C27 1_555 1_555
C28 C27 1_555 1_555
C29 C28 1_555 1_555
H24 C29 1_555 1_555
C30 C29 1_555 1_555
H25 C30 1_555 1_555
C31 C30 1_555 1_555
H26 C31 1_555 1_555
C32 C31 1_555 1_555
H27 C32 1_555 1_555
C33 C28 1_555 1_555
H28 C33 1_555 1_555
C34 H29 1_555 1_555
C35 C34 1_555 1_555
C36 C35 1_555 1_555
H30 C36 1_555 1_555
C37 C36 1_555 1_555
H31 C37 1_555 1_555
C38 C37 1_555 1_555
H32 C38 1_555 1_555
C39 C38 1_555 1_555
H33 C39 1_555 1_555
C40 C35 1_555 1_555
C41 C42 1_555 1_555
C42 H34 1_555 1_555
C43 C42 1_555 1_555
H35 C43 1_555 1_555
C44 C43 1_555 1_555
H36 C44 1_555 1_555
C45 C44 1_555 1_555
H37 C45 1_555 1_555
C46 C41 1_555 1_555
C47 C46 1_555 1_555
H38 C47 1_555 1_555
C48 H39 1_555 1_555
C49 C48 1_555 1_555
C50 C49 1_555 1_555
H40 C50 1_555 1_555
C51 C50 1_555 1_555
H41 C51 1_555 1_555
C52 C51 1_555 1_555
H42 C52 1_555 1_555
C53 C52 1_555 1_555
H43 C53 1_555 1_555
C54 C49 1_555 1_555
H44 C54 1_555 1_555
C55 C48 1_555 1_555
H45 C55 1_555 1_555
C56 C55 1_555 1_555
C57 C56 1_555 1_555
H46 C57 1_555 1_555
C58 C57 1_555 1_555
H47 C58 1_555 1_555
C59 C58 1_555 1_555
H48 C59 1_555 1_555
C60 C59 1_555 1_555
H49 C60 1_555 1_555
C61 C56 1_555 1_555
H50 C61 1_555 1_555
C62 H51 1_555 1_555
C63 C62 1_555 1_555
C64 C63 1_555 1_555
H52 C64 1_555 1_555
C65 C64 1_555 1_555
H53 C65 1_555 1_555
C66 C65 1_555 1_555
H54 C66 1_555 1_555
C67 C66 1_555 1_555
H55 C67 1_555 1_555
C68 C63 1_555 1_555
C69 Cr2 1_555 1_555
C70 Cr2 1_555 1_555
C71 Cr2 1_555 1_555
C72 H56 1_555 1_555
C73 C72 1_555 1_555
H57 C73 1_555 1_555
C74 C73 1_555 1_555
H58 C74 1_555 1_555
C75 H59 1_555 1_555
C76 C75 1_555 1_555
H60 C76 1_555 1_555
C77 C76 1_555 1_555
H61 C77 1_555 1_555
C78 H62 1_555 1_555
C79 C78 1_555 1_555
H63 C79 1_555 1_555
C80 C79 1_555 1_555
H64 C80 1_555 1_555
Cr1 N2 1_555 1_555
Cr2 N17 1_555 1_555
Mn1 N8 1_555 1_555
Mn2 N12 1_555 1_555
N1 B1 1_555 1_555
N2 C3 1_555 1_555
N3 B1 1_555 1_555
N4 C6 1_555 1_555
N5 B1 1_555 1_555
N6 C9 1_555 1_555
N7 C10 1_555 1_555
N8 C11 1_555 1_555
N9 C12 1_555 1_555
N10 C27 1_555 1_555
N11 C19 1_555 1_555
N12 C47 1_555 1_555
N13 C55 1_555 1_555
N14 C69 1_555 1_555
N15 C70 1_555 1_555
N16 C71 1_555 1_555
N17 C72 1_555 1_555
N18 B2 1_555 1_555
N19 C75 1_555 1_555
N20 B2 1_555 1_555
N21 C78 1_555 1_555
N22 B2 1_555 1_555
O1 C40 1_555 1_555
O2 C13 1_555 1_555
O3 C68 1_555 1_555
O4 C41 1_555 1_555
Mn1A N9 1_555 1_555
Mn2A N16 1_555 1_555
N9A Mn1 1_555 1_555
N16A Mn2 1_555 1_555
C1 N1 1_555 1_555
C4 N3 1_555 1_555
C7 N5 1_555 1_555
C17 C18 1_555 1_555
C20 N11 1_555 1_555
C25 C26 1_555 1_555
C32 C33 1_555 1_555
C34 N10 1_555 1_555
C39 C40 1_555 1_555
C45 C46 1_555 1_555
C48 N12 1_555 1_555
C53 C54 1_555 1_555
C60 C61 1_555 1_555
C62 N13 1_555 1_555
C67 C68 1_555 1_555
C74 N18 1_555 1_555
C77 N20 1_555 1_555
C80 N22 1_555 1_555
Cr1 N4 1_555 1_555
Cr1 N6 1_555 1_555
Cr2 N19 1_555 1_555
Cr2 N21 1_555 1_555
Mn1 N10 1_555 1_555
Mn1 N11 1_555 1_555
Mn1 O1 1_555 1_555
Mn1 O2 1_555 1_555
Mn2 N13 1_555 1_555
Mn2 N15 1_555 1_555
Mn2 O3 1_555 1_555
Mn2 O4 1_555 1_555
N1 N2 1_555 1_555
N3 N4 1_555 1_555
N5 N6 1_555 1_555
N17 N18 1_555 1_555
N19 N20 1_555 1_555
N21 N22 1_555 1_555

#END
