
#######################################################################
#
#                 Cambridge Crystallographic Data Centre
#                                CCDC 
#
#######################################################################
#
# If this CIF has been generated from an entry in the Cambridge 
# Structural Database, then it will include bibliographic, chemical, 
# crystal, experimental, refinement or atomic coordinate data resulting 
# from the CCDC's data processing and validation procedures.
#
#######################################################################

data_CAXBAG
_symmetry_cell_setting           orthorhombic
_symmetry_space_group_name_H-M   'P 21 21 2'
_symmetry_Int_Tables_number      18
_space_group_name_Hall           'P 2 2ab'
loop_
_symmetry_equiv_pos_site_id
_symmetry_equiv_pos_as_xyz
1 x,y,z
2 -x,-y,z
3 1/2-x,1/2+y,-z
4 1/2+x,1/2-y,-z
_cell_length_a                   15.729(2)
_cell_length_b                   25.025(3)
_cell_length_c                   9.1759(12)
_cell_angle_alpha                90
_cell_angle_beta                 90
_cell_angle_gamma                90
_cell_volume                     3611.8
loop_
_atom_site_label
_atom_site_type_symbol
_atom_site_fract_x
_atom_site_fract_y
_atom_site_fract_z
B1 B 0.7126(4) 0.6046(2) 0.9727(7)
H1 H 0.6787 0.5811 1.0645
C1 C 0.8109(3) 0.73082(18) 0.8975(5)
H2 H 0.8388 0.7543 0.8350
C2 C 0.7901(3) 0.7428(2) 1.0380(5)
H3 H 0.8004 0.7744 1.0880
C3 C 0.7487(3) 0.6955(2) 1.0918(6)
H4 H 0.7267 0.6905 1.1849
C4 C 0.8864(3) 0.53508(17) 0.8007(5)
H5 H 0.9238 0.5301 0.7234
C5 C 0.8863(3) 0.5045(2) 0.9178(5)
H6 H 0.9217 0.4759 0.9399
C6 C 0.8200(3) 0.52552(19) 0.9999(5)
H7 H 0.8020 0.5125 1.0896
C7 C 0.6044(3) 0.61470(18) 0.6216(5)
H8 H 0.6032 0.6230 0.5228
C8 C 0.5348(3) 0.59653(18) 0.7032(5)
H9 H 0.4798 0.5902 0.6701
C9 C 0.5645(3) 0.59022(18) 0.8393(5)
H10 H 0.5323 0.5785 0.9181
C10 C 0.9250(3) 0.65678(17) 0.6573(5)
C11 C 0.8033(3) 0.59382(19) 0.4850(5)
C12 C 0.7607(3) 0.70441(18) 0.5573(5)
C13 C 1.0669(3) 0.71936(19) 0.2873(5)
H11 H 1.1225 0.7332 0.2570
C14 C 1.0058(3) 0.73152(19) 0.1661(5)
H12 H 1.0037 0.7698 0.1492
H13 H 0.9492 0.7196 0.1925
C15 C 1.0363(3) 0.70164(19) 0.0215(5)
H14 H 0.9948 0.7074 -0.0551
H15 H 1.0899 0.7168 -0.0105
C16 C 1.0470(3) 0.6436(2) 0.0457(5)
H16 H 1.0676 0.6270 -0.0431
H17 H 0.9924 0.6278 0.0695
C17 C 1.1091(3) 0.6330(2) 0.1680(5)
H18 H 1.1642 0.6477 0.1428
H19 H 1.1155 0.5948 0.1814
C18 C 1.0777(3) 0.65832(16) 0.3100(5)
H20 H 1.0219 0.6431 0.3331
C19 C 1.1748(3) 0.60844(18) 0.4622(5)
H21 H 1.1731 0.5833 0.3877
C20 C 1.2235(3) 0.59464(15) 0.5902(5)
C21 C 1.2689(3) 0.54573(17) 0.5889(5)
H22 H 1.2662 0.5238 0.5072
C22 C 1.3161(3) 0.53051(17) 0.7048(5)
H23 H 1.3465 0.4986 0.7025
C23 C 1.3186(3) 0.56217(19) 0.8238(5)
H24 H 1.3507 0.5513 0.9036
C24 C 1.2754(3) 0.61026(18) 0.8315(6)
H25 H 1.2792 0.6310 0.9153
C25 C 1.2258(3) 0.62798(17) 0.7140(5)
C26 C 1.0241(3) 0.79771(17) 0.7065(5)
C27 C 1.0026(3) 0.82694(18) 0.8330(5)
H26 H 1.0359 0.8238 0.9164
C28 C 0.9337(3) 0.85963(19) 0.8337(6)
H27 H 0.9216 0.8797 0.9165
C29 C 0.8812(3) 0.86354(18) 0.7131(5)
H28 H 0.8340 0.8859 0.7153
C30 C 0.8986(3) 0.83514(18) 0.5937(5)
H29 H 0.8627 0.8378 0.5136
C31 C 0.9693(3) 0.80160(16) 0.5858(5)
C32 C 0.9884(3) 0.77589(16) 0.4480(5)
H30 H 0.9543 0.7845 0.3685
Cr1 Cr 0.79789(5) 0.63814(3) 0.67390(8)
Mn1 Mn 1.11929(5) 0.70986(3) 0.58720(7)
N1 N 0.7870(3) 0.68216(14) 0.8604(4)
N2 N 0.7479(2) 0.65984(15) 0.9815(4)
N3 N 0.8279(2) 0.57381(14) 0.8031(4)
N4 N 0.7863(3) 0.56708(16) 0.9311(4)
N5 N 0.6729(2) 0.61826(14) 0.7071(4)
N6 N 0.6493(3) 0.60343(16) 0.8461(5)
N7 N 0.9958(3) 0.66693(16) 0.6510(4)
N8 N 0.8055(3) 0.56646(17) 0.3843(5)
N9 N 0.7338(3) 0.74159(16) 0.5003(5)
N10 N 1.0492(2) 0.74194(14) 0.4275(4)
N11 N 1.1332(2) 0.65255(14) 0.4409(4)
O1 O 1.18488(19) 0.67325(11) 0.7241(3)
O2 O 1.0929(2) 0.76710(12) 0.7117(3)
Mn1C Mn 0.61929(5) 0.79014(3) 0.41280(7)
N9C N 1.2338(3) 0.75841(16) 0.4997(5)
C33 C 0.5000 0.5000 0.1543(8)
H31 H 0.5196 0.4713 0.0918
Cl1 Cl 0.58941(8) 0.52416(5) 0.26059(13)
H31A H 0.4804 0.5287 0.0918
Cl1A Cl 0.41059(8) 0.47584(5) 0.26059(13)
O3 O 1.0000 0.5000 0.3574(10)
H32 H 0.9872 0.4727 0.4081
H32A H 1.0128 0.5273 0.4081
H33? H 0.9607 0.5232 0.3646
loop_
_geom_bond_atom_site_label_1
_geom_bond_atom_site_label_2
_geom_bond_site_symmetry_1
_geom_bond_site_symmetry_2
B1 H1 1_555 1_555
C1 H2 1_555 1_555
C2 C1 1_555 1_555
H3 C2 1_555 1_555
C3 C2 1_555 1_555
H4 C3 1_555 1_555
C4 H5 1_555 1_555
C5 C4 1_555 1_555
H6 C5 1_555 1_555
C6 C5 1_555 1_555
H7 C6 1_555 1_555
C7 H8 1_555 1_555
C8 C7 1_555 1_555
H9 C8 1_555 1_555
C9 C8 1_555 1_555
H10 C9 1_555 1_555
C10 Cr1 1_555 1_555
C11 Cr1 1_555 1_555
C12 Cr1 1_555 1_555
C13 H11 1_555 1_555
C14 C13 1_555 1_555
H12 C14 1_555 1_555
H13 C14 1_555 1_555
C15 C14 1_555 1_555
H14 C15 1_555 1_555
H15 C15 1_555 1_555
C16 C15 1_555 1_555
H16 C16 1_555 1_555
H17 C16 1_555 1_555
C17 C16 1_555 1_555
H18 C17 1_555 1_555
H19 C17 1_555 1_555
C18 C13 1_555 1_555
H20 C18 1_555 1_555
C19 H21 1_555 1_555
C20 C19 1_555 1_555
C21 C20 1_555 1_555
H22 C21 1_555 1_555
C22 C21 1_555 1_555
H23 C22 1_555 1_555
C23 C22 1_555 1_555
H24 C23 1_555 1_555
C24 C23 1_555 1_555
H25 C24 1_555 1_555
C25 C20 1_555 1_555
C26 C27 1_555 1_555
C27 H26 1_555 1_555
C28 C27 1_555 1_555
H27 C28 1_555 1_555
C29 C28 1_555 1_555
H28 C29 1_555 1_555
C30 C29 1_555 1_555
H29 C30 1_555 1_555
C31 C26 1_555 1_555
C32 C31 1_555 1_555
H30 C32 1_555 1_555
C33 H31 1_555 1_555
Cl1 C33 1_555 1_555
Cr1 N1 1_555 1_555
Mn1 N7 1_555 1_555
N1 C1 1_555 1_555
N2 B1 1_555 1_555
N3 C4 1_555 1_555
N4 B1 1_555 1_555
N5 C7 1_555 1_555
N6 B1 1_555 1_555
N7 C10 1_555 1_555
N8 C11 1_555 1_555
N9 C12 1_555 1_555
N10 C13 1_555 1_555
N11 C18 1_555 1_555
O1 C25 1_555 1_555
O2 C26 1_555 1_555
O3 H32 1_555 1_555
H31A C33 1_555 1_555
Cl1A C33 1_555 1_555
Mn1C N9 1_555 1_555
N9C Mn1 1_555 1_555
H32A O3 1_555 1_555
C3 N2 1_555 1_555
C6 N4 1_555 1_555
C9 N6 1_555 1_555
C17 C18 1_555 1_555
C19 N11 1_555 1_555
C24 C25 1_555 1_555
C30 C31 1_555 1_555
C32 N10 1_555 1_555
Cr1 N3 1_555 1_555
Cr1 N5 1_555 1_555
Mn1 N10 1_555 1_555
Mn1 N11 1_555 1_555
Mn1 O1 1_555 1_555
Mn1 O2 1_555 1_555
N1 N2 1_555 1_555
N3 N4 1_555 1_555
N5 N6 1_555 1_555

#END
