
#######################################################################
#
#                 Cambridge Crystallographic Data Centre
#                                CCDC 
#
#######################################################################
#
# If this CIF has been generated from an entry in the Cambridge 
# Structural Database, then it will include bibliographic, chemical, 
# crystal, experimental, refinement or atomic coordinate data resulting 
# from the CCDC's data processing and validation procedures.
#
#######################################################################

data_CAXBEK
_symmetry_cell_setting           orthorhombic
_symmetry_space_group_name_H-M   'P 21 21 2'
_symmetry_Int_Tables_number      18
_space_group_name_Hall           'P 2 2ab'
loop_
_symmetry_equiv_pos_site_id
_symmetry_equiv_pos_as_xyz
1 x,y,z
2 -x,-y,z
3 1/2-x,1/2+y,-z
4 1/2+x,1/2-y,-z
_cell_length_a                   15.708(3)
_cell_length_b                   25.004(5)
_cell_length_c                   9.1688(18)
_cell_angle_alpha                90
_cell_angle_beta                 90
_cell_angle_gamma                90
_cell_volume                     3601.16
loop_
_atom_site_label
_atom_site_type_symbol
_atom_site_fract_x
_atom_site_fract_y
_atom_site_fract_z
B1 B -0.2890(4) 0.6042(2) -0.4712(7)
H1 H -0.3208 0.5899 -0.5774
C1 C -0.4346(3) 0.5900(2) -0.3384(6)
H2 H -0.4670 0.5784 -0.4171
C2 C -0.4642(3) 0.5961(2) -0.2044(6)
H3 H -0.5195 0.5900 -0.1720
C3 C -0.3950(3) 0.6138(2) -0.1218(6)
H4 H -0.3962 0.6211 -0.0224
C4 C -0.2519(3) 0.6952(2) -0.5919(6)
H5 H -0.2730 0.6895 -0.6854
C5 C -0.2121(3) 0.7426(2) -0.5371(6)
H6 H -0.2041 0.7748 -0.5865
C6 C -0.1883(4) 0.7310(2) -0.3971(6)
H7 H -0.1590 0.7540 -0.3353
C7 C -0.1802(3) 0.5255(2) -0.5028(6)
H8 H -0.1977 0.5129 -0.5935
C8 C -0.1137(4) 0.5045(2) -0.4184(6)
H9 H -0.0780 0.4760 -0.4402
C9 C -0.1136(4) 0.5354(2) -0.2985(6)
H10 H -0.0760 0.5307 -0.2212
C10 C -0.2382(4) 0.7047(2) -0.0544(6)
C11 C -0.1963(4) 0.5929(2) 0.0175(6)
C12 C -0.0760(3) 0.65677(19) -0.1549(5)
C13 C -0.2744(3) 0.8722(2) 0.2110(6)
C14 C -0.2247(3) 0.8901(2) 0.3320(7)
H11 H -0.2219 0.8692 0.4157
C15 C -0.1806(3) 0.9383(2) 0.3269(7)
H12 H -0.1492 0.9494 0.4074
C16 C -0.1830(3) 0.9695(2) 0.2038(6)
H13 H -0.1516 1.0010 0.1999
C17 C -0.2313(4) 0.9544(2) 0.0870(7)
H14 H -0.2343 0.9767 0.0059
C18 C -0.2774(3) 0.90517(19) 0.0867(6)
C19 C -0.3265(3) 0.8916(2) -0.0407(6)
H15 H -0.3287 0.9169 -0.1149
C20 C -0.4218(3) 0.84195(19) -0.1917(5)
H16 H -0.4778 0.8572 -0.1693
C21 C -0.3908(3) 0.8668(2) -0.3319(6)
H17 H -0.3845 0.9051 -0.3185
H18 H -0.3355 0.8522 -0.3565
C22 C -0.4518(3) 0.8563(2) -0.4544(6)
H19 H -0.4305 0.8728 -0.5430
H20 H -0.5065 0.8723 -0.4318
C23 C -0.4631(4) 0.7971(2) -0.4789(6)
H21 H -0.4094 0.7815 -0.5092
H22 H -0.5043 0.7912 -0.5561
C24 C -0.4946(3) 0.7691(2) -0.3349(6)
H23 H -0.5506 0.7825 -0.3090
H24 H -0.4989 0.7308 -0.3503
C25 C -0.4332(3) 0.7804(2) -0.2137(6)
H25 H -0.3778 0.7663 -0.2443
C26 C -0.5112(3) 0.7246(2) -0.0524(6)
H26 H -0.5455 0.7165 -0.1320
C27 C -0.5306(3) 0.6984(2) 0.0856(6)
C28 C -0.6025(3) 0.6642(2) 0.0933(6)
H27 H -0.6379 0.6612 0.0125
C29 C -0.6208(4) 0.6363(2) 0.2134(5)
H28 H -0.6684 0.6142 0.2162
C30 C -0.5675(3) 0.6407(2) 0.3346(7)
H29 H -0.5804 0.6213 0.4185
C31 C -0.4970(3) 0.6726(2) 0.3332(6)
H30 H -0.4625 0.6748 0.4153
C32 C -0.4768(3) 0.70218(19) 0.2078(5)
Cr1 Cr -0.20228(5) 0.63813(3) -0.17400(9)
Mn1 Mn -0.38109(5) 0.79014(3) 0.08732(9)
N1 N -0.3521(3) 0.60281(18) -0.3461(5)
N2 N -0.3275(3) 0.61840(17) -0.2067(5)
N3 N -0.2524(3) 0.66066(17) -0.4809(5)
N4 N -0.2128(3) 0.68222(16) -0.3627(4)
N5 N -0.2144(3) 0.56689(19) -0.4301(5)
N6 N -0.1727(2) 0.57341(16) -0.3017(5)
N7 N -0.2670(3) 0.74095(19) 0.0008(5)
N8 N -0.1946(3) 0.56714(18) 0.1161(5)
N9 N -0.0046(3) 0.66659(17) -0.1491(5)
N10 N -0.3676(3) 0.84789(16) -0.0613(5)
N11 N -0.4514(2) 0.75764(17) -0.0722(5)
O1 O -0.3155(2) 0.82673(13) 0.2246(3)
O2 O -0.4078(2) 0.73287(13) 0.2109(3)
Mn1C Mn 0.11891(5) 0.70986(3) -0.08732(9)
N9C N -0.5046(3) 0.83341(17) 0.1491(5)
C33 C 0.5000 0.5000 0.3598(9)
H31 H 0.4763 0.5288 0.4179
Cl1 Cl 0.59482(9) 0.52851(6) 0.26146(15)
H31A H 0.5237 0.4712 0.4179
Cl1A Cl 0.40518(9) 0.47149(6) 0.26146(15)
O3 O 1.0000 0.5000 0.1440(12)
H32 H 1.0000 0.5338 0.1345
H32A H 1.0000 0.4662 0.1345
H33? H 0.9829 0.4857 0.0652
loop_
_geom_bond_atom_site_label_1
_geom_bond_atom_site_label_2
_geom_bond_site_symmetry_1
_geom_bond_site_symmetry_2
B1 H1 1_555 1_555
C1 H2 1_555 1_555
C2 C1 1_555 1_555
H3 C2 1_555 1_555
C3 C2 1_555 1_555
H4 C3 1_555 1_555
C4 H5 1_555 1_555
C5 C4 1_555 1_555
H6 C5 1_555 1_555
C6 C5 1_555 1_555
H7 C6 1_555 1_555
C7 H8 1_555 1_555
C8 C7 1_555 1_555
H9 C8 1_555 1_555
C9 C8 1_555 1_555
H10 C9 1_555 1_555
C10 Cr1 1_555 1_555
C11 Cr1 1_555 1_555
C12 Cr1 1_555 1_555
C13 C14 1_555 1_555
C14 H11 1_555 1_555
C15 C14 1_555 1_555
H12 C15 1_555 1_555
C16 C15 1_555 1_555
H13 C16 1_555 1_555
C17 C16 1_555 1_555
H14 C17 1_555 1_555
C18 C13 1_555 1_555
C19 C18 1_555 1_555
H15 C19 1_555 1_555
C20 H16 1_555 1_555
C21 C20 1_555 1_555
H17 C21 1_555 1_555
H18 C21 1_555 1_555
C22 C21 1_555 1_555
H19 C22 1_555 1_555
H20 C22 1_555 1_555
C23 C22 1_555 1_555
H21 C23 1_555 1_555
H22 C23 1_555 1_555
C24 C23 1_555 1_555
H23 C24 1_555 1_555
H24 C24 1_555 1_555
C25 C20 1_555 1_555
H25 C25 1_555 1_555
C26 H26 1_555 1_555
C27 C26 1_555 1_555
C28 C27 1_555 1_555
H27 C28 1_555 1_555
C29 C28 1_555 1_555
H28 C29 1_555 1_555
C30 C29 1_555 1_555
H29 C30 1_555 1_555
C31 C30 1_555 1_555
H30 C31 1_555 1_555
C32 C27 1_555 1_555
C33 H31 1_555 1_555
Cl1 C33 1_555 1_555
Cr1 N2 1_555 1_555
Mn1 N7 1_555 1_555
N1 B1 1_555 1_555
N2 C3 1_555 1_555
N3 B1 1_555 1_555
N4 C6 1_555 1_555
N5 B1 1_555 1_555
N6 C9 1_555 1_555
N7 C10 1_555 1_555
N8 C11 1_555 1_555
N9 C12 1_555 1_555
N10 C19 1_555 1_555
N11 C25 1_555 1_555
O1 C13 1_555 1_555
O2 C32 1_555 1_555
O3 H32 1_555 1_555
H31A C33 1_555 1_555
Cl1A C33 1_555 1_555
Mn1C N9 1_555 1_555
N9C Mn1 1_555 1_555
H32A O3 1_555 1_555
C1 N1 1_555 1_555
C4 N3 1_555 1_555
C7 N5 1_555 1_555
C17 C18 1_555 1_555
C20 N10 1_555 1_555
C24 C25 1_555 1_555
C26 N11 1_555 1_555
C31 C32 1_555 1_555
Cr1 N4 1_555 1_555
Cr1 N6 1_555 1_555
Mn1 N10 1_555 1_555
Mn1 N11 1_555 1_555
Mn1 O1 1_555 1_555
Mn1 O2 1_555 1_555
N1 N2 1_555 1_555
N3 N4 1_555 1_555
N5 N6 1_555 1_555

#END
