
#######################################################################
#
#                 Cambridge Crystallographic Data Centre
#                                CCDC 
#
#######################################################################
#
# If this CIF has been generated from an entry in the Cambridge 
# Structural Database, then it will include bibliographic, chemical, 
# crystal, experimental, refinement or atomic coordinate data resulting 
# from the CCDC's data processing and validation procedures.
#
#######################################################################

data_CAXCIO
_symmetry_cell_setting           monoclinic
_symmetry_space_group_name_H-M   'P 21/c'
_symmetry_Int_Tables_number      14
_space_group_name_Hall           '-P 2ybc'
loop_
_symmetry_equiv_pos_site_id
_symmetry_equiv_pos_as_xyz
1 x,y,z
2 -x,1/2+y,1/2-z
3 -x,-y,-z
4 x,1/2-y,1/2+z
_cell_length_a                   13.1671(3)
_cell_length_b                   13.7336(3)
_cell_length_c                   11.31000(10)
_cell_angle_alpha                90
_cell_angle_beta                 115.4110(10)
_cell_angle_gamma                90
_cell_volume                     1847.34
loop_
_atom_site_label
_atom_site_type_symbol
_atom_site_fract_x
_atom_site_fract_y
_atom_site_fract_z
Gd1 Gd 0.896673(17) 0.113756(13) 0.535887(17)
O1 O 0.9357(3) -0.0525(2) 0.5677(3)
O2 O 0.7120(2) 0.0713(2) 0.5270(3)
O3 O 0.7995(3) 0.0523(2) 0.3176(3)
O4 O 0.9906(2) -0.2008(2) 0.5541(3)
O5 O 0.9960(2) -0.24533(19) 0.8148(3)
O6 O 0.8468(3) 0.1059(2) 0.7204(3)
O7 O 0.7910(2) 0.2509(2) 0.9381(3)
O8 O 0.9174(3) -0.39050(18) 0.7795(3)
O9 O 0.6916(3) 0.2836(2) 0.7249(3)
C1 C 0.9148(4) -0.3005(3) 0.7510(4)
C2 C 0.8106(4) -0.2622(3) 0.6413(4)
C3 C 0.7075(4) -0.3042(3) 0.6155(4)
H1 H 0.7041 -0.3559 0.6668
C4 C 0.6111(4) -0.2710(3) 0.5164(5)
H2 H 0.5428 -0.3004 0.5006
C5 C 0.6139(4) -0.1943(3) 0.4392(4)
H3 H 0.5477 -0.1720 0.3717
C6 C 0.7148(4) -0.1507(3) 0.4622(4)
H4 H 0.7161 -0.0987 0.4103
C7 C 0.8150(3) -0.1834(3) 0.5620(4)
C8 C 0.9213(4) -0.1433(3) 0.5655(4)
C9 C 0.7448(4) 0.0835(3) 0.6468(4)
C10 C 0.6664(3) 0.0663(3) 0.7098(4)
C11 C 0.6644(4) 0.1316(3) 0.8042(4)
C12 C 0.6037(4) 0.1084(3) 0.8738(4)
H5 H 0.6059 0.1494 0.9402
C13 C 0.5398(4) 0.0246(4) 0.8457(5)
H6 H 0.4985 0.0099 0.8926
C14 C 0.5369(5) -0.0372(4) 0.7488(5)
H7 H 0.4915 -0.0923 0.7277
C15 C 0.6015(4) -0.0171(3) 0.6827(4)
H8 H 0.6014 -0.0602 0.6192
C16 C 0.7208(4) 0.2305(3) 0.8223(4)
H15 H 0.767(5) 0.097(3) 0.262(4)
H16 H 0.823(4) 0.011(3) 0.281(5)
Gd1B Gd 1.103327(17) -0.113756(13) 0.464113(17)
Gd1A Gd 1.103327(17) -0.386244(13) 0.964113(17)
Gd1C Gd 0.896673(17) 0.386244(13) 1.035887(17)
Gd1C_2 Gd 0.896673(17) 0.386244(13) 0.035887(17)
O1B O 1.0643(3) 0.0525(2) 0.4323(3)
O2C O 0.7120(2) 0.4287(2) 0.0270(3)
O2B O 1.2880(2) -0.0713(2) 0.4730(3)
O3B O 1.2005(3) -0.0523(2) 0.6824(3)
O4B O 1.0094(2) 0.2008(2) 0.4459(3)
O5B O 1.0040(2) 0.24533(19) 0.1852(3)
O5A O 1.0040(2) 0.25467(19) 0.6852(3)
O5C O 0.9960(2) -0.25467(19) 0.3148(3)
O6C O 0.8468(3) 0.3941(2) 0.2204(3)
O6B O 1.1532(3) -0.1059(2) 0.2796(3)
O7C O 0.7910(2) 0.2491(2) 0.4381(3)
O7A O 1.2090(2) -0.2491(2) 0.5619(3)
O8B O 1.0826(3) 0.39050(18) 0.2205(3)
O8A O 1.0826(3) 0.10950(18) 0.7205(3)
O8C O 0.9174(3) -0.10950(18) 0.2795(3)
O9C O 0.6916(3) 0.2164(2) 0.2249(3)
C1B C 1.0852(4) 0.3005(3) 0.2490(4)
C2B C 1.1894(4) 0.2622(3) 0.3587(4)
C3B C 1.2925(4) 0.3042(3) 0.3845(4)
H1B H 1.2959 0.3559 0.3332
C4B C 1.3889(4) 0.2710(3) 0.4836(5)
H2B H 1.4572 0.3004 0.4994
C5B C 1.3861(4) 0.1943(3) 0.5608(4)
H3B H 1.4523 0.1720 0.6283
C6B C 1.2852(4) 0.1507(3) 0.5378(4)
H4B H 1.2839 0.0987 0.5897
C7B C 1.1850(3) 0.1834(3) 0.4380(4)
C8B C 1.0787(4) 0.1433(3) 0.4345(4)
C9C C 0.7448(4) 0.4165(3) 0.1468(4)
C10C C 0.6664(3) 0.4337(3) 0.2098(4)
C11C C 0.6644(4) 0.3684(3) 0.3042(4)
C12C C 0.6037(4) 0.3916(3) 0.3738(4)
H5C H 0.6059 0.3506 0.4402
C13C C 0.5398(4) 0.4754(4) 0.3457(5)
H6C H 0.4985 0.4901 0.3926
C14C C 0.5369(5) 0.5372(4) 0.2488(5)
H7C H 0.4915 0.5923 0.2277
C15C C 0.6015(4) 0.5171(3) 0.1827(4)
H8C H 0.6014 0.5602 0.1192
C16C C 0.7208(4) 0.2695(3) 0.3223(4)
H15B H 1.233(5) -0.097(3) 0.738(4)
H16B H 1.177(4) -0.011(3) 0.719(5)
N1 N 0.9696(3) 0.4002(2) 0.4963(4)
H9 H 0.9702 0.3443 0.5380
H10 H 0.9322 0.3896 0.4097
C17 C 1.0859(4) 0.4292(3) 0.5274(4)
H11 H 1.1215 0.3790 0.4979
H12 H 1.1279 0.4355 0.6215
C18 C 0.9103(4) 0.4766(3) 0.5361(4)
H13 H 0.9461 0.4841 0.6306
H14 H 0.8328 0.4575 0.5102
N1B N 1.0304(3) 0.5998(2) 0.5037(4)
H9B H 1.0298 0.6557 0.4620
H10B H 1.0678 0.6104 0.5903
C17B C 0.9141(4) 0.5708(3) 0.4726(4)
H11B H 0.8785 0.6210 0.5021
H12B H 0.8721 0.5645 0.3785
C18B C 1.0897(4) 0.5234(3) 0.4639(4)
H13B H 1.0539 0.5159 0.3694
H14B H 1.1672 0.5425 0.4898
loop_
_geom_bond_atom_site_label_1
_geom_bond_atom_site_label_2
_geom_bond_site_symmetry_1
_geom_bond_site_symmetry_2
Gd1 O1 1_555 1_555
O1 C8 1_555 1_555
O2 Gd1 1_555 1_555
O3 Gd1 1_555 1_555
O4 C8 1_555 1_555
O5 C1 1_555 1_555
O6 Gd1 1_555 1_555
O7 C16 1_555 1_555
O8 C1 1_555 1_555
O9 C16 1_555 1_555
C1 C2 1_555 1_555
C2 C3 1_555 1_555
C3 H1 1_555 1_555
C4 C3 1_555 1_555
H2 C4 1_555 1_555
C5 C4 1_555 1_555
H3 C5 1_555 1_555
C6 C5 1_555 1_555
H4 C6 1_555 1_555
C7 C2 1_555 1_555
C8 C7 1_555 1_555
C9 O2 1_555 1_555
C10 C9 1_555 1_555
C11 C10 1_555 1_555
C12 C11 1_555 1_555
H5 C12 1_555 1_555
C13 C12 1_555 1_555
H6 C13 1_555 1_555
C14 C13 1_555 1_555
H7 C14 1_555 1_555
C15 C10 1_555 1_555
H8 C15 1_555 1_555
C16 C11 1_555 1_555
N1 H9 1_555 1_555
H10 N1 1_555 1_555
C17 N1 1_555 1_555
H11 C17 1_555 1_555
H12 C17 1_555 1_555
C18 N1 1_555 1_555
H13 C18 1_555 1_555
H14 C18 1_555 1_555
H15 O3 1_555 1_555
H16 O3 1_555 1_555
Gd1B O4 1_555 1_555
Gd1A O5 1_555 1_555
Gd1C O7 1_555 1_555
Gd1C_2 O2C 1_555 1_555
O1B Gd1B 1_555 1_555
O2C C9C 1_555 1_555
O2B Gd1B 1_555 1_555
O3B Gd1B 1_555 1_555
O4B Gd1 1_555 1_555
O5B Gd1C_2 1_555 1_555
O5A Gd1 1_555 1_555
O5C Gd1B 1_555 1_555
O6C Gd1C_2 1_555 1_555
O6B Gd1B 1_555 1_555
O7C Gd1 1_555 1_555
O7A Gd1B 1_555 1_555
O8B Gd1C_2 1_555 1_555
O8A Gd1 1_555 1_555
O8C Gd1B 1_555 1_555
O9C C16C 1_555 1_555
C1B O5B 1_555 1_555
C2B C1B 1_555 1_555
C3B C2B 1_555 1_555
H1B C3B 1_555 1_555
C4B C3B 1_555 1_555
H2B C4B 1_555 1_555
C5B C4B 1_555 1_555
H3B C5B 1_555 1_555
C6B C5B 1_555 1_555
H4B C6B 1_555 1_555
C7B C2B 1_555 1_555
C8B O1B 1_555 1_555
C9C O6C 1_555 1_555
C10C C9C 1_555 1_555
C11C C10C 1_555 1_555
C12C C11C 1_555 1_555
H5C C12C 1_555 1_555
C13C C12C 1_555 1_555
H6C C13C 1_555 1_555
C14C C13C 1_555 1_555
H7C C14C 1_555 1_555
C15C C10C 1_555 1_555
H8C C15C 1_555 1_555
C16C O7C 1_555 1_555
N1B H9B 1_555 1_555
H10B N1B 1_555 1_555
C17B C18 1_555 1_555
H11B C17B 1_555 1_555
H12B C17B 1_555 1_555
C18B C17 1_555 1_555
H13B C18B 1_555 1_555
H14B C18B 1_555 1_555
H15B O3B 1_555 1_555
H16B O3B 1_555 1_555
O6 C9 1_555 1_555
O8 Gd1A 1_555 1_555
C6 C7 1_555 1_555
C14 C15 1_555 1_555
O4B C8B 1_555 1_555
O8B C1B 1_555 1_555
C6B C7B 1_555 1_555
C7B C8B 1_555 1_555
C11C C16C 1_555 1_555
C14C C15C 1_555 1_555
N1B C17B 1_555 1_555
N1B C18B 1_555 1_555

#END
