
#######################################################################
#
#                 Cambridge Crystallographic Data Centre
#                                CCDC 
#
#######################################################################
#
# If this CIF has been generated from an entry in the Cambridge 
# Structural Database, then it will include bibliographic, chemical, 
# crystal, experimental, refinement or atomic coordinate data resulting 
# from the CCDC's data processing and validation procedures.
#
#######################################################################

data_CAXCIP
_symmetry_cell_setting           triclinic
_symmetry_space_group_name_H-M   'P -1'
_symmetry_Int_Tables_number      2
_space_group_name_Hall           '-P 1'
loop_
_symmetry_equiv_pos_site_id
_symmetry_equiv_pos_as_xyz
1 x,y,z
2 -x,-y,-z
_cell_length_a                   9.2072(12)
_cell_length_b                   9.3200(12)
_cell_length_c                   9.4981(12)
_cell_angle_alpha                86.174(1)
_cell_angle_beta                 88.281(1)
_cell_angle_gamma                84.732(1)
_cell_volume                     809.557
loop_
_atom_site_label
_atom_site_type_symbol
_atom_site_fract_x
_atom_site_fract_y
_atom_site_fract_z
Nd1 Nd 0.405868(19) 0.872379(18) 0.646522(19)
O1 O 0.5364(3) 0.8614(3) 0.8768(3)
H1 H 0.4845 0.8342 0.9434
H2 H 0.6084 0.8987 0.9011
O2 O 0.1788(3) 0.8001(3) 0.5403(3)
H3 H 0.1055 0.8560 0.5562
H4 H 0.1902 0.7891 0.4546
O3 O 0.2057(3) 0.8706(2) 0.8227(2)
O4 O 0.0314(3) 0.7502(3) 0.9347(3)
O5 O 0.5456(2) 0.2482(2) 0.5819(2)
O6 O 0.4010(3) 0.1165(2) 0.7219(3)
O7 O 0.6330(3) 0.2688(3) 0.9089(3)
O8 O 0.8164(3) 0.1843(2) 0.7664(3)
H5 H 0.8087 0.1085 0.8139
O9 O 0.6434(2) 0.9393(2) 0.5614(2)
O10 O 0.8805(3) 0.8921(3) 0.5188(6)
N1 N 0.3643(3) 0.6216(3) 0.7746(3)
N2 N 0.6188(3) 0.6631(3) 0.6542(3)
C1 C 0.7635(4) 0.8561(4) 0.5612(4)
C2 C 0.7534(4) 0.7009(4) 0.6170(4)
C3 C 0.8760(4) 0.6043(4) 0.6258(4)
H6 H 0.9669 0.6315 0.5947
C4 C 0.8599(4) 0.4662(4) 0.6821(4)
H7 H 0.9410 0.3991 0.6903
C5 C 0.7242(4) 0.4268(3) 0.7265(4)
C6 C 0.6015(4) 0.5275(3) 0.7044(3)
C7 C 0.4462(3) 0.5006(3) 0.7407(3)
C8 C 0.3852(4) 0.3668(3) 0.7474(3)
C9 C 0.2471(4) 0.3600(4) 0.8107(4)
H8 H 0.2058 0.2724 0.8206
C10 C 0.1715(4) 0.4824(4) 0.8587(4)
H9 H 0.0833 0.4773 0.9084
C11 C 0.2302(4) 0.6134(3) 0.8310(3)
C12 C 0.1472(4) 0.7558(4) 0.8660(4)
C13 C 0.4514(4) 0.2330(3) 0.6790(4)
C14 C 0.7169(4) 0.2843(4) 0.8090(4)
Nd1A Nd 0.594132(19) 0.127621(18) 0.353478(19)
Nd1_2 Nd 0.405868(19) -0.127621(18) 0.646522(19)
Nd1A_2 Nd 0.594132(19) 1.127621(18) 0.353478(19)
O5A O 0.4544(2) 0.7518(2) 0.4181(2)
O6_2 O 0.4010(3) 1.1165(2) 0.7219(3)
O9A O 0.3566(2) 1.0607(2) 0.4386(2)
O11 O 0.1892(3) 0.0393(3) 0.0567(3)
H10 H 0.1120 0.0904 0.0675
H11 H 0.1929 0.0021 -0.0204
loop_
_geom_bond_atom_site_label_1
_geom_bond_atom_site_label_2
_geom_bond_site_symmetry_1
_geom_bond_site_symmetry_2
Nd1 O1 1_555 1_555
O1 H1 1_555 1_555
H2 O1 1_555 1_555
O2 Nd1 1_555 1_555
H3 O2 1_555 1_555
H4 O2 1_555 1_555
O3 Nd1 1_555 1_555
O4 C12 1_555 1_555
O5 C13 1_555 1_555
O6 C13 1_555 1_555
O7 C14 1_555 1_555
O8 H5 1_555 1_555
O9 Nd1 1_555 1_555
O10 C1 1_555 1_555
N1 Nd1 1_555 1_555
N2 Nd1 1_555 1_555
C1 O9 1_555 1_555
C2 N2 1_555 1_555
C3 C2 1_555 1_555
H6 C3 1_555 1_555
C4 C3 1_555 1_555
H7 C4 1_555 1_555
C5 C4 1_555 1_555
C6 N2 1_555 1_555
C7 N1 1_555 1_555
C8 C7 1_555 1_555
C9 C8 1_555 1_555
H8 C9 1_555 1_555
C10 C9 1_555 1_555
H9 C10 1_555 1_555
C11 N1 1_555 1_555
C12 O3 1_555 1_555
C13 C8 1_555 1_555
C14 O8 1_555 1_555
O11 H10 1_555 1_555
H11 O11 1_555 1_555
Nd1A O5 1_555 1_555
Nd1_2 O6 1_555 1_555
Nd1A_2 O9 1_555 1_555
O5A Nd1 1_555 1_555
O6_2 Nd1 1_555 1_555
O9A Nd1 1_555 1_555
C1 C2 1_555 1_555
C5 C6 1_555 1_555
C5 C14 1_555 1_555
C6 C7 1_555 1_555
C10 C11 1_555 1_555
C11 C12 1_555 1_555
Nd1A_2 O9A 1_555 1_555

#END
