
#######################################################################
#
#                 Cambridge Crystallographic Data Centre
#                                CCDC 
#
#######################################################################
#
# If this CIF has been generated from an entry in the Cambridge 
# Structural Database, then it will include bibliographic, chemical, 
# crystal, experimental, refinement or atomic coordinate data resulting 
# from the CCDC's data processing and validation procedures.
#
#######################################################################

data_CAXDIQ
_symmetry_cell_setting           triclinic
_symmetry_space_group_name_H-M   'P -1'
_symmetry_Int_Tables_number      2
_space_group_name_Hall           '-P 1'
loop_
_symmetry_equiv_pos_site_id
_symmetry_equiv_pos_as_xyz
1 x,y,z
2 -x,-y,-z
_cell_length_a                   9.1986(11)
_cell_length_b                   9.2305(11)
_cell_length_c                   9.3993(12)
_cell_angle_alpha                86.997(1)
_cell_angle_beta                 86.233(1)
_cell_angle_gamma                85.740(1)
_cell_volume                     793.243
loop_
_atom_site_label
_atom_site_type_symbol
_atom_site_fract_x
_atom_site_fract_y
_atom_site_fract_z
Ho1 Ho 0.130733(13) 0.085037(14) 0.853209(14)
O1 O 0.1250(2) 0.2821(2) 0.6780(2)
O2 O 0.2429(3) 0.4664(3) 0.5701(3)
O3 O 0.0547(2) -0.1407(2) 0.9466(2)
O4 O 0.0985(3) -0.3773(3) 1.0058(4)
O5 O 0.7295(3) -0.1312(3) 0.5914(3)
O6 O 0.8132(2) -0.3155(3) 0.7366(3)
H1 H 0.8868 -0.3129 0.6825
O7 O 0.8907(2) 0.0975(3) 0.7752(2)
O8 O 0.7537(2) -0.0451(2) 0.9223(2)
O9 O 0.1408(3) -0.0372(3) 0.6310(2)
H2 H 0.1870 0.0047 0.5643
H3 H 0.0907 -0.0994 0.6016
O10 O 0.1976(2) 0.3116(2) 0.9493(2)
H4 H 0.2112 0.2943 1.0348
H5 H 0.1224 0.3648 0.9383
N1 N 0.3768(3) 0.1338(3) 0.7315(3)
N2 N 0.3332(3) -0.1200(3) 0.8517(3)
C1 C 0.2391(3) 0.3474(3) 0.6375(3)
C2 C 0.3853(3) 0.2688(3) 0.6723(3)
C3 C 0.5169(4) 0.3304(4) 0.6426(4)
H8 H 0.5214 0.4200 0.5930
C4 C 0.6424(3) 0.2543(3) 0.6890(3)
H9 H 0.7314 0.2965 0.6770
C5 C 0.6361(3) 0.1153(3) 0.7533(3)
C6 C 0.4994(3) 0.0528(3) 0.7624(3)
C7 C 0.4706(3) -0.1022(3) 0.8001(3)
C8 C 0.5694(3) -0.2248(3) 0.7772(3)
C9 C 0.5261(4) -0.3616(3) 0.8224(4)
H10 H 0.5917 -0.4427 0.8134
C10 C 0.3858(4) -0.3777(4) 0.8806(4)
H11 H 0.3557 -0.4685 0.9120
C11 C 0.2916(3) -0.2535(3) 0.8906(3)
C12 C 0.1359(4) -0.2618(4) 0.9519(4)
C13 C 0.7721(3) 0.0482(3) 0.8206(3)
C14 C 0.7132(3) -0.2163(3) 0.6931(3)
Ho1A Ho -0.130733(13) -0.085037(14) 1.146791(14)
Ho1_2 Ho 1.130733(13) 0.085037(14) 0.853209(14)
Ho1A_2 Ho 0.869267(13) -0.085037(14) 1.146791(14)
O3A O -0.0547(2) 0.1407(2) 1.0534(2)
O7_2 O -0.1093(2) 0.0975(3) 0.7752(2)
O8A O 0.2463(2) 0.0451(2) 1.0777(2)
O11 O 0.9601(2) 0.3077(3) 0.4390(3)
H6 H 0.9999 0.3085 0.5159
H7 H 0.9057 0.3826 0.4262
loop_
_geom_bond_atom_site_label_1
_geom_bond_atom_site_label_2
_geom_bond_site_symmetry_1
_geom_bond_site_symmetry_2
Ho1 O1 1_555 1_555
O1 C1 1_555 1_555
O2 C1 1_555 1_555
O3 Ho1 1_555 1_555
O4 C12 1_555 1_555
O5 C14 1_555 1_555
O6 H1 1_555 1_555
O7 C13 1_555 1_555
O8 C13 1_555 1_555
O9 Ho1 1_555 1_555
H2 O9 1_555 1_555
H3 O9 1_555 1_555
O10 Ho1 1_555 1_555
H4 O10 1_555 1_555
H5 O10 1_555 1_555
O11 H6 1_555 1_555
H7 O11 1_555 1_555
N1 Ho1 1_555 1_555
N2 Ho1 1_555 1_555
C1 C2 1_555 1_555
C2 N1 1_555 1_555
C3 C2 1_555 1_555
H8 C3 1_555 1_555
C4 C3 1_555 1_555
H9 C4 1_555 1_555
C5 C4 1_555 1_555
C6 N1 1_555 1_555
C7 N2 1_555 1_555
C8 C7 1_555 1_555
C9 C8 1_555 1_555
H10 C9 1_555 1_555
C10 C9 1_555 1_555
H11 C10 1_555 1_555
C11 N2 1_555 1_555
C12 O3 1_555 1_555
C13 C5 1_555 1_555
C14 O6 1_555 1_555
Ho1A O3 1_555 1_555
Ho1_2 O7 1_555 1_555
Ho1A_2 O8 1_555 1_555
O3A Ho1 1_555 1_555
O7_2 Ho1 1_555 1_555
O8A Ho1 1_555 1_555
C5 C6 1_555 1_555
C6 C7 1_555 1_555
C8 C14 1_555 1_555
C10 C11 1_555 1_555
C11 C12 1_555 1_555
Ho1A O3A 1_555 1_555

#END
