
#######################################################################
#
#                 Cambridge Crystallographic Data Centre
#                                CCDC 
#
#######################################################################
#
# If this CIF has been generated from an entry in the Cambridge 
# Structural Database, then it will include bibliographic, chemical, 
# crystal, experimental, refinement or atomic coordinate data resulting 
# from the CCDC's data processing and validation procedures.
#
#######################################################################

data_CAXDOW
_symmetry_cell_setting           triclinic
_symmetry_space_group_name_H-M   'P -1'
_symmetry_Int_Tables_number      2
_space_group_name_Hall           '-P 1'
loop_
_symmetry_equiv_pos_site_id
_symmetry_equiv_pos_as_xyz
1 x,y,z
2 -x,-y,-z
_cell_length_a                   9.1813(11)
_cell_length_b                   9.2376(11)
_cell_length_c                   9.3885(11)
_cell_angle_alpha                86.856(1)
_cell_angle_beta                 86.224(1)
_cell_angle_gamma                85.846(1)
_cell_volume                     791.449
loop_
_atom_site_label
_atom_site_type_symbol
_atom_site_fract_x
_atom_site_fract_y
_atom_site_fract_z
Er1 Er 0.368854(13) 0.415916(13) 0.146815(13)
O2 O 0.3594(3) 0.5373(3) 0.3681(2)
H3 H 0.4033 0.6050 0.3959
H4 H 0.3212 0.4906 0.4372
O3 O 0.3027(2) 0.1901(2) 0.0518(2)
H5 H 0.2927 0.2187 -0.0324
H6 H 0.3723 0.1282 0.0581
O4 O 0.3752(2) 0.2193(2) 0.3216(2)
O5 O 0.2583(3) 0.0338(3) 0.4291(3)
O6 O 0.4463(2) 0.6404(2) 0.0527(2)
O7 O 0.4027(3) 0.8767(3) -0.0086(4)
O8 O -0.3130(2) 0.8153(3) 0.2628(3)
H7 H -0.3866 0.8128 0.3171
O9 O -0.2297(3) 0.6308(3) 0.4086(2)
O10 O -0.2541(2) 0.5449(2) 0.0770(2)
O11 O -0.3918(2) 0.4028(2) 0.2248(2)
N1 N 0.1671(3) 0.6200(3) 0.1474(3)
N2 N 0.1240(3) 0.3660(3) 0.2675(3)
C1 C 0.2622(3) 0.1529(3) 0.3619(3)
C2 C 0.1153(3) 0.2310(3) 0.3278(3)
C3 C -0.0173(3) 0.1693(3) 0.3573(4)
H8 H -0.0220 0.0795 0.4067
C4 C -0.1429(3) 0.2456(3) 0.3108(4)
H9 H -0.2321 0.2033 0.3229
C5 C -0.1367(3) 0.3846(3) 0.2464(3)
C6 C 0.0002(3) 0.4468(3) 0.2369(3)
C7 C 0.0297(3) 0.6024(3) 0.1992(3)
C8 C -0.0693(3) 0.7244(3) 0.2226(3)
C9 C -0.0245(4) 0.8611(3) 0.1773(4)
H10 H -0.0896 0.9424 0.1870
C10 C 0.1153(4) 0.8776(3) 0.1182(4)
H11 H 0.1455 0.9684 0.0865
C11 C 0.2093(3) 0.7530(3) 0.1080(3)
C12 C 0.3642(4) 0.7610(3) 0.0472(4)
C13 C -0.2128(3) 0.7161(3) 0.3068(3)
C14 C -0.2721(3) 0.4517(3) 0.1792(3)
Er1A Er 0.631146(13) 0.584084(13) -0.146815(13)
Er1A_2 Er -0.368854(13) 0.584084(13) -0.146815(13)
Er1_2 Er -0.631146(13) 0.415916(13) 0.146815(13)
O6A O 0.5537(2) 0.3596(2) -0.0527(2)
O10A O 0.2541(2) 0.4551(2) -0.0770(2)
O11_2 O 0.6082(2) 0.4028(2) 0.2248(2)
O1 O 0.4601(2) 0.8074(2) 0.4381(3)
H1 H 0.4134 0.8859 0.4206
H2 H 0.4837 0.8004 0.5225
loop_
_geom_bond_atom_site_label_1
_geom_bond_atom_site_label_2
_geom_bond_site_symmetry_1
_geom_bond_site_symmetry_2
Er1 O2 1_555 1_555
O1 H1 1_555 1_555
H2 O1 1_555 1_555
O2 H3 1_555 1_555
H4 O2 1_555 1_555
O3 Er1 1_555 1_555
H5 O3 1_555 1_555
H6 O3 1_555 1_555
O4 Er1 1_555 1_555
O5 C1 1_555 1_555
O6 Er1 1_555 1_555
O7 C12 1_555 1_555
O8 H7 1_555 1_555
O9 C13 1_555 1_555
O10 C14 1_555 1_555
O11 C14 1_555 1_555
N1 Er1 1_555 1_555
N2 Er1 1_555 1_555
C1 O4 1_555 1_555
C2 N2 1_555 1_555
C3 C2 1_555 1_555
H8 C3 1_555 1_555
C4 C3 1_555 1_555
H9 C4 1_555 1_555
C5 C4 1_555 1_555
C6 N2 1_555 1_555
C7 N1 1_555 1_555
C8 C7 1_555 1_555
C9 C8 1_555 1_555
H10 C9 1_555 1_555
C10 C9 1_555 1_555
H11 C10 1_555 1_555
C11 N1 1_555 1_555
C12 O6 1_555 1_555
C13 O8 1_555 1_555
C14 C5 1_555 1_555
Er1A O6 1_555 1_555
Er1A_2 O10 1_555 1_555
Er1_2 O11 1_555 1_555
O6A Er1 1_555 1_555
O10A Er1 1_555 1_555
O11_2 Er1 1_555 1_555
C1 C2 1_555 1_555
C5 C6 1_555 1_555
C6 C7 1_555 1_555
C8 C13 1_555 1_555
C10 C11 1_555 1_555
C11 C12 1_555 1_555
Er1A O6A 1_555 1_555

#END
