
#######################################################################
#
#                 Cambridge Crystallographic Data Centre
#                                CCDC 
#
#######################################################################
#
# If this CIF has been generated from an entry in the Cambridge 
# Structural Database, then it will include bibliographic, chemical, 
# crystal, experimental, refinement or atomic coordinate data resulting 
# from the CCDC's data processing and validation procedures.
#
#######################################################################

data_CAXDEM
_symmetry_cell_setting           triclinic
_symmetry_space_group_name_H-M   'P -1'
_symmetry_Int_Tables_number      2
_space_group_name_Hall           '-P 1'
loop_
_symmetry_equiv_pos_site_id
_symmetry_equiv_pos_as_xyz
1 x,y,z
2 -x,-y,-z
_cell_length_a                   9.2185(11)
_cell_length_b                   9.2289(11)
_cell_length_c                   9.4132(11)
_cell_angle_alpha                87.167(1)
_cell_angle_beta                 86.227(1)
_cell_angle_gamma                85.664(1)
_cell_volume                     796.025
loop_
_atom_site_label
_atom_site_type_symbol
_atom_site_fract_x
_atom_site_fract_y
_atom_site_fract_z
Dy1 Dy 0.630433(13) 0.085898(13) 0.853140(13)
O1 O 0.7440(2) 0.4665(3) 0.5698(3)
O2 O 0.6260(2) 0.2832(2) 0.6778(2)
O3 O 0.5555(2) -0.1415(2) 0.9455(2)
O4 O 0.5998(3) -0.3778(3) 1.0029(4)
O5 O 1.3897(2) 0.0977(3) 0.7756(2)
O6 O 1.2535(2) -0.0452(2) 0.9219(2)
O7 O 1.2296(3) -0.1318(3) 0.5914(2)
O8 O 1.3134(2) -0.3156(3) 0.7368(2)
H1 H 1.3897 -0.3079 0.6880
O9 O 0.6975(2) 0.3129(2) 0.9507(2)
H2 H 0.7036 0.2870 1.0357
H3 H 0.6335 0.3804 0.9411
O10 O 0.6405(3) -0.0372(3) 0.6301(2)
H4 H 0.6694 0.0142 0.5607
H5 H 0.5927 -0.1034 0.6048
N1 N 0.8770(3) 0.1342(3) 0.7312(3)
N2 N 0.8336(3) -0.1199(3) 0.8512(3)
C1 C 0.7399(3) 0.3483(3) 0.6375(3)
C2 C 0.8846(3) 0.2695(3) 0.6722(3)
C3 C 1.0169(3) 0.3302(3) 0.6423(3)
H6 H 1.0215 0.4193 0.5922
C4 C 1.1422(3) 0.2547(3) 0.6889(3)
H7 H 1.2309 0.2969 0.6772
C5 C 1.1354(3) 0.1156(3) 0.7531(3)
C6 C 1.0001(3) 0.0530(3) 0.7622(3)
C7 C 0.9711(3) -0.1023(3) 0.7990(3)
C8 C 1.0698(3) -0.2244(3) 0.7770(3)
C9 C 1.0265(3) -0.3612(3) 0.8224(3)
H8 H 1.0922 -0.4423 0.8134
C10 C 0.8864(4) -0.3777(3) 0.8809(4)
H9 H 0.8566 -0.4684 0.9128
C11 C 0.7928(3) -0.2536(3) 0.8899(3)
C12 C 0.6369(3) -0.2615(4) 0.9498(4)
C13 C 1.2716(3) 0.0484(3) 0.8204(3)
C14 C 1.2132(3) -0.2163(3) 0.6923(3)
Dy1A Dy 0.369567(13) -0.085898(13) 1.146860(13)
Dy1_2 Dy 1.630433(13) 0.085898(13) 0.853140(13)
Dy1A_2 Dy 1.369567(13) -0.085898(13) 1.146860(13)
O3A O 0.4445(2) 0.1415(2) 1.0545(2)
O5_2 O 0.3897(2) 0.0977(3) 0.7756(2)
O6A O 0.7465(2) 0.0452(2) 1.0781(2)
O11 O 0.5399(2) 0.6920(2) 0.5602(2)
H10 H 0.5814 0.6136 0.5880
H11 H 0.5093 0.6848 0.4798
loop_
_geom_bond_atom_site_label_1
_geom_bond_atom_site_label_2
_geom_bond_site_symmetry_1
_geom_bond_site_symmetry_2
Dy1 O2 1_555 1_555
O1 C1 1_555 1_555
O2 C1 1_555 1_555
O3 Dy1 1_555 1_555
O4 C12 1_555 1_555
O5 C13 1_555 1_555
O6 C13 1_555 1_555
O7 C14 1_555 1_555
O8 H1 1_555 1_555
O9 Dy1 1_555 1_555
H2 O9 1_555 1_555
H3 O9 1_555 1_555
O10 Dy1 1_555 1_555
H4 O10 1_555 1_555
H5 O10 1_555 1_555
N1 Dy1 1_555 1_555
N2 Dy1 1_555 1_555
C1 C2 1_555 1_555
C2 N1 1_555 1_555
C3 C2 1_555 1_555
H6 C3 1_555 1_555
C4 C3 1_555 1_555
H7 C4 1_555 1_555
C5 C4 1_555 1_555
C6 N1 1_555 1_555
C7 N2 1_555 1_555
C8 C7 1_555 1_555
C9 C8 1_555 1_555
H8 C9 1_555 1_555
C10 C9 1_555 1_555
H9 C10 1_555 1_555
C11 N2 1_555 1_555
C12 O3 1_555 1_555
C13 C5 1_555 1_555
C14 O8 1_555 1_555
O11 H10 1_555 1_555
H11 O11 1_555 1_555
Dy1A O3 1_555 1_555
Dy1_2 O5 1_555 1_555
Dy1A_2 O6 1_555 1_555
O3A Dy1 1_555 1_555
O5_2 Dy1 1_555 1_555
O6A Dy1 1_555 1_555
C5 C6 1_555 1_555
C6 C7 1_555 1_555
C8 C14 1_555 1_555
C10 C11 1_555 1_555
C11 C12 1_555 1_555
Dy1A O3A 1_555 1_555

#END
