
#######################################################################
#
#                 Cambridge Crystallographic Data Centre
#                                CCDC 
#
#######################################################################
#
# If this CIF has been generated from an entry in the Cambridge 
# Structural Database, then it will include bibliographic, chemical, 
# crystal, experimental, refinement or atomic coordinate data resulting 
# from the CCDC's data processing and validation procedures.
#
#######################################################################

data_CAXGUD
_symmetry_cell_setting           triclinic
_symmetry_space_group_name_H-M   'P 1'
_symmetry_Int_Tables_number      1
_space_group_name_Hall           'P 1'
loop_
_symmetry_equiv_pos_site_id
_symmetry_equiv_pos_as_xyz
1 x,y,z
_cell_length_a                   3.852(2)
_cell_length_b                   5.760(4)
_cell_length_c                   9.248(3)
_cell_angle_alpha                94.45(5)
_cell_angle_beta                 97.82(3)
_cell_angle_gamma                106.60(4)
_cell_volume                     193.339
loop_
_atom_site_label
_atom_site_type_symbol
_atom_site_fract_x
_atom_site_fract_y
_atom_site_fract_z
Cu1 Cu -0.48903(4) 0.13929(3) -0.12226(3)
S1 S 0.0072(2) 0.99852(12) 0.00017(9)
C1 C -0.1701(10) 0.7007(6) -0.0548(4)
N1 N -0.3000(10) 0.4935(5) -0.0898(4)
N2 N -0.5697(9) -0.0302(5) -0.3338(3)
N3 N -0.7634(10) -0.4040(5) -0.4935(3)
C2 C -0.7361(11) -0.2696(6) -0.3671(4)
H1 H -0.8444(11) -0.3506(6) -0.2939(4)
C3 C -0.6021(10) -0.2901(7) -0.5990(4)
C4 C -0.6216(14) -0.4427(10) -0.7406(4)
H2 H -0.4006(54) -0.4887(68) -0.7387(20)
H3 H -0.648(12) -0.3502(30) -0.8213(6)
H4 H -0.8290(72) -0.5867(41) -0.7525(24)
C5 C -0.4235(12) -0.0421(7) -0.5752(5)
H5 H -0.3127(12) 0.0387(7) -0.6480(5)
C6 C -0.4142(12) 0.0818(7) -0.4407(5)
H6 H -0.2959(12) 0.2489(7) -0.4236(5)
S1_2 S 0.0072(2) -0.00148(12) 0.00017(9)
S1_3 S -0.9928(2) -0.00148(12) 0.00017(9)
Cu1_2 Cu 0.51097(4) 1.13929(3) -0.12226(3)
Cu1_3 Cu -0.48903(4) 1.13929(3) -0.12226(3)
loop_
_geom_bond_atom_site_label_1
_geom_bond_atom_site_label_2
_geom_bond_site_symmetry_1
_geom_bond_site_symmetry_2
Cu1 N1 1_555 1_555
S1 C1 1_555 1_555
C1 N1 1_555 1_555
N2 Cu1 1_555 1_555
N3 C2 1_555 1_555
C2 N2 1_555 1_555
H1 C2 1_555 1_555
C3 N3 1_555 1_555
C4 C3 1_555 1_555
H2 C4 1_555 1_555
H3 C4 1_555 1_555
H4 C4 1_555 1_555
C5 C3 1_555 1_555
H5 C5 1_555 1_555
C6 N2 1_555 1_555
H6 C6 1_555 1_555
S1_2 Cu1 1_555 1_555
S1_3 Cu1 1_555 1_555
Cu1_2 S1 1_555 1_555
Cu1_3 S1 1_555 1_555
C5 C6 1_555 1_555

#END
