
#######################################################################
#
#                 Cambridge Crystallographic Data Centre
#                                CCDC 
#
#######################################################################
#
# If this CIF has been generated from an entry in the Cambridge 
# Structural Database, then it will include bibliographic, chemical, 
# crystal, experimental, refinement or atomic coordinate data resulting 
# from the CCDC's data processing and validation procedures.
#
#######################################################################

data_CAXHOY
_symmetry_cell_setting           triclinic
_symmetry_space_group_name_H-M   'P -1'
_symmetry_Int_Tables_number      2
_space_group_name_Hall           '-P 1'
loop_
_symmetry_equiv_pos_site_id
_symmetry_equiv_pos_as_xyz
1 x,y,z
2 -x,-y,-z
_cell_length_a                   5.792(3)
_cell_length_b                   6.752(3)
_cell_length_c                   11.316(5)
_cell_angle_alpha                77.08(4)
_cell_angle_beta                 75.23(3)
_cell_angle_gamma                88.96(4)
_cell_volume                     416.73
loop_
_atom_site_label
_atom_site_type_symbol
_atom_site_fract_x
_atom_site_fract_y
_atom_site_fract_z
Cu1 Cu 0.4088(2) 0.76979(14) 0.23747(8)
S1 S 0.1805(4) 1.0482(3) 0.1759(2)
N1 N -0.2772(13) 0.8630(11) 0.2385(6)
C1 C -0.0888(15) 0.9373(12) 0.2128(6)
N2 N 0.4511(10) 0.5958(8) 0.0995(5)
N3 N 0.1840(9) 0.5958(8) 0.3986(4)
C2 C 0.6080(12) 0.4548(10) 0.0893(6)
C3 C 0.7182(23) 0.4007(20) 0.1950(10)
H1 H 0.799(14) 0.5188(39) 0.2019(54)
H2 H 0.831(13) 0.297(10) 0.1810(43)
H3 H 0.5966(32) 0.351(13) 0.2712(16)
C4 C 0.3407(13) 0.6408(10) 0.0092(6)
H4 H 0.2259(13) 0.7390(10) 0.0120(6)
C5 C 0.1216(14) 0.6606(11) 0.5057(6)
C6 C 0.2594(25) 0.8382(21) 0.5116(9)
H5 H 0.1739(43) 0.8948(40) 0.5801(21)
H6 H 0.2814(15) 0.9389(10) 0.4344(16)
H7 H 0.4124(40) 0.7966(15) 0.5241(14)
C7 C 0.0611(11) 0.4351(9) 0.3954(5)
H8 H 0.1000(11) 0.3845(9) 0.3231(5)
C4A C 0.6593(13) 0.3592(10) -0.0092(6)
N2A N 0.5489(10) 0.4042(8) -0.0995(5)
C2A C 0.3920(12) 0.5452(10) -0.0893(6)
C3A C 0.2818(23) 0.5993(20) -0.1950(10)
H1A H 0.201(14) 0.4812(39) -0.2019(54)
H2A H 0.169(13) 0.703(10) -0.1810(43)
H3A H 0.4034(32) 0.649(13) -0.2712(16)
H4A H 0.7741(13) 0.2610(10) -0.0120(6)
C7A C -0.0611(11) 0.5649(9) 0.6046(5)
N3A N -0.1840(9) 0.4042(8) 0.6014(4)
C5A C -0.1216(14) 0.3394(11) 0.4943(6)
C6A C -0.2594(25) 0.1618(21) 0.4884(9)
H5A H -0.1739(43) 0.1052(40) 0.4199(21)
H6A H -0.2814(15) 0.0611(10) 0.5656(16)
H7A H -0.4124(40) 0.2034(15) 0.4759(14)
H8A H -0.1000(11) 0.6155(9) 0.6769(5)
S1_2 S 1.1805(4) 1.0482(3) 0.1759(2)
N1_2 N 0.7228(13) 0.8630(11) 0.2385(6)
C1_2 C 0.9112(15) 0.9373(12) 0.2128(6)
Cu1_2 Cu 1.4088(2) 0.76979(14) 0.23747(8)
Cu1_3 Cu -0.5912(2) 0.76979(14) 0.23747(8)
Cu1A Cu 0.5912(2) 0.23021(14) -0.23747(8)
Cu1A_2 Cu -0.4088(2) 0.23021(14) 0.76253(8)
S1A S 0.8195(4) -0.0482(3) -0.1759(2)
N1A N 1.2772(13) 0.1370(11) -0.2385(6)
C1A C 1.0888(15) 0.0627(12) -0.2128(6)
S1A_2 S -0.1805(4) -0.0482(3) -0.1759(2)
N1A_2 N 0.2772(13) 0.1370(11) -0.2385(6)
C1A_2 C 0.0888(15) 0.0627(12) -0.2128(6)
N3A_2 N 0.8160(9) 0.4042(8) -0.3986(4)
C5A_2 C 0.8784(14) 0.3394(11) -0.5057(6)
C6A_2 C 0.7406(25) 0.1618(21) -0.5116(9)
H5A_2 H 0.8261(43) 0.1052(40) -0.5801(21)
H6A_2 H 0.7186(15) 0.0611(10) -0.4344(16)
H7A_2 H 0.5876(40) 0.2034(15) -0.5241(14)
C7A_2 C 0.9389(11) 0.5649(9) -0.3954(5)
H8A_2 H 0.9000(11) 0.6155(9) -0.3231(5)
C7_2 C 1.0611(11) 0.4351(9) -0.6046(5)
N3_2 N 1.1840(9) 0.5958(8) -0.6014(4)
C5_2 C 1.1216(14) 0.6606(11) -0.4943(6)
C6_2 C 1.2594(25) 0.8382(21) -0.4884(9)
H5_2 H 1.1739(43) 0.8948(40) -0.4199(21)
H6_2 H 1.2814(15) 0.9389(10) -0.5656(16)
H7_2 H 1.4124(40) 0.7966(15) -0.4759(14)
H8_2 H 1.1000(11) 0.3845(9) -0.6769(5)
Cu1A_3 Cu -0.4088(2) 0.23021(14) -0.23747(8)
Cu1A_4 Cu 1.5912(2) 0.23021(14) -0.23747(8)
Cu1_4 Cu 1.4088(2) 0.76979(14) -0.76253(8)
N1_3 N 1.7228(13) 0.8630(11) 0.2385(6)
N2_2 N 1.4511(10) 0.5958(8) 0.0995(5)
N3_3 N 1.1840(9) 0.5958(8) 0.3986(4)
S1_3 S -0.8195(4) 1.0482(3) 0.1759(2)
N2_3 N -0.5489(10) 0.5958(8) 0.0995(5)
N3_4 N -0.8160(9) 0.5958(8) 0.3986(4)
S1A_3 S -0.1805(4) -0.0482(3) 0.8241(2)
N1A_3 N -0.7228(13) 0.1370(11) 0.7615(6)
N2A_2 N -0.4511(10) 0.4042(8) 0.9005(5)
N1A_4 N -0.7228(13) 0.1370(11) -0.2385(6)
N2A_3 N -0.4511(10) 0.4042(8) -0.0995(5)
N3A_3 N -0.1840(9) 0.4042(8) -0.3986(4)
S1A_4 S 1.8195(4) -0.0482(3) -0.1759(2)
N2A_4 N 1.5489(10) 0.4042(8) -0.0995(5)
N3A_4 N 1.8160(9) 0.4042(8) -0.3986(4)
S1_4 S 1.1805(4) 1.0482(3) -0.8241(2)
N1_4 N 1.7228(13) 0.8630(11) -0.7615(6)
N2_4 N 1.4511(10) 0.5958(8) -0.9005(5)
loop_
_geom_bond_atom_site_label_1
_geom_bond_atom_site_label_2
_geom_bond_site_symmetry_1
_geom_bond_site_symmetry_2
Cu1 S1 1_555 1_555
S1 C1 1_555 1_555
N1 C1 1_555 1_555
N2 Cu1 1_555 1_555
N3 Cu1 1_555 1_555
C2 N2 1_555 1_555
C3 C2 1_555 1_555
H1 C3 1_555 1_555
H2 C3 1_555 1_555
H3 C3 1_555 1_555
C4 N2 1_555 1_555
H4 C4 1_555 1_555
C5 N3 1_555 1_555
C6 C5 1_555 1_555
H5 C6 1_555 1_555
H6 C6 1_555 1_555
H7 C6 1_555 1_555
C7 N3 1_555 1_555
H8 C7 1_555 1_555
C4A C2 1_555 1_555
N2A C4A 1_555 1_555
C2A C4 1_555 1_555
C3A C2A 1_555 1_555
H1A C3A 1_555 1_555
H2A C3A 1_555 1_555
H3A C3A 1_555 1_555
H4A C4A 1_555 1_555
C7A C5 1_555 1_555
N3A C7A 1_555 1_555
C5A C7 1_555 1_555
C6A C5A 1_555 1_555
H5A C6A 1_555 1_555
H6A C6A 1_555 1_555
H7A C6A 1_555 1_555
H8A C7A 1_555 1_555
S1_2 C1_2 1_555 1_555
N1_2 Cu1 1_555 1_555
C1_2 N1_2 1_555 1_555
Cu1_2 S1_2 1_555 1_555
Cu1_3 N1 1_555 1_555
Cu1A N2A 1_555 1_555
Cu1A_2 N3A 1_555 1_555
S1A Cu1A 1_555 1_555
N1A C1A 1_555 1_555
C1A S1A 1_555 1_555
S1A_2 C1A_2 1_555 1_555
N1A_2 Cu1A 1_555 1_555
C1A_2 N1A_2 1_555 1_555
N3A_2 Cu1A 1_555 1_555
C5A_2 N3A_2 1_555 1_555
C6A_2 C5A_2 1_555 1_555
H5A_2 C6A_2 1_555 1_555
H6A_2 C6A_2 1_555 1_555
H7A_2 C6A_2 1_555 1_555
C7A_2 N3A_2 1_555 1_555
H8A_2 C7A_2 1_555 1_555
C7_2 C5A_2 1_555 1_555
N3_2 C7_2 1_555 1_555
C5_2 C7A_2 1_555 1_555
C6_2 C5_2 1_555 1_555
H5_2 C6_2 1_555 1_555
H6_2 C6_2 1_555 1_555
H7_2 C6_2 1_555 1_555
H8_2 C7_2 1_555 1_555
Cu1A_3 S1A_2 1_555 1_555
Cu1A_4 N1A 1_555 1_555
Cu1_4 N3_2 1_555 1_555
N1_3 Cu1_2 1_555 1_555
N2_2 Cu1_2 1_555 1_555
N3_3 Cu1_2 1_555 1_555
S1_3 Cu1_3 1_555 1_555
N2_3 Cu1_3 1_555 1_555
N3_4 Cu1_3 1_555 1_555
S1A_3 Cu1A_2 1_555 1_555
N1A_3 Cu1A_2 1_555 1_555
N2A_2 Cu1A_2 1_555 1_555
N1A_4 Cu1A_3 1_555 1_555
N2A_3 Cu1A_3 1_555 1_555
N3A_3 Cu1A_3 1_555 1_555
S1A_4 Cu1A_4 1_555 1_555
N2A_4 Cu1A_4 1_555 1_555
N3A_4 Cu1A_4 1_555 1_555
S1_4 Cu1_4 1_555 1_555
N1_4 Cu1_4 1_555 1_555
N2_4 Cu1_4 1_555 1_555
N2A C2A 1_555 1_555
N3A C5A 1_555 1_555
N3_2 C5_2 1_555 1_555

#END
