
#######################################################################
#
#                 Cambridge Crystallographic Data Centre
#                                CCDC 
#
#######################################################################
#
# If this CIF has been generated from an entry in the Cambridge 
# Structural Database, then it will include bibliographic, chemical, 
# crystal, experimental, refinement or atomic coordinate data resulting 
# from the CCDC's data processing and validation procedures.
#
#######################################################################

data_CAXLET
_symmetry_cell_setting           monoclinic
_symmetry_space_group_name_H-M   'C 2/c'
_symmetry_Int_Tables_number      15
_space_group_name_Hall           '-C 2yn'
loop_
_symmetry_equiv_pos_site_id
_symmetry_equiv_pos_as_xyz
1 x,y,z
2 1/2+x,1/2+y,z
3 -x,y,1/2-z
4 1/2-x,1/2+y,1/2-z
5 -x,-y,-z
6 1/2-x,1/2-y,-z
7 x,-y,1/2+z
8 1/2+x,1/2-y,1/2+z
_cell_length_a                   19.000(7)
_cell_length_b                   14.018(5)
_cell_length_c                   15.438(6)
_cell_angle_alpha                90.00
_cell_angle_beta                 122.141(4)
_cell_angle_gamma                90.00
_cell_volume                     3481.62
loop_
_atom_site_label
_atom_site_type_symbol
_atom_site_fract_x
_atom_site_fract_y
_atom_site_fract_z
Mn1 Mn 0.5000 0.18451(3) 0.2500
O1 O 0.46702(9) 0.19015(10) 0.36061(11)
O2 O 0.57035(9) 0.27010(11) 0.49023(12)
O3 O 0.25974(10) 0.23104(12) 0.19066(14)
O4 O 0.15163(9) 0.14227(12) 0.16022(12)
H1 H 0.1274 0.1740 0.1058
O5 O 0.63164(10) 0.18759(12) 0.37549(14)
N1 N 0.5000 0.35049(16) 0.2500
N2 N 0.5000 1.02334(18) 0.2500
C1 C 0.23024(13) 0.16653(15) 0.21435(16)
C2 C 0.28057(13) 0.10441(16) 0.30589(17)
C3 C 0.26751(15) 0.00583(18) 0.2941(2)
H2 H 0.2236 -0.0193 0.2311
C4 C 0.31825(18) -0.0555(2) 0.3739(2)
H3 H 0.3090 -0.1223 0.3658
C5 C 0.38258(19) -0.0188(2) 0.4656(2)
H4 H 0.4184 -0.0607 0.5198
C6 C 0.39450(17) 0.0782(2) 0.4781(2)
H5 H 0.4381 0.1025 0.5418
C7 C 0.34415(14) 0.14186(17) 0.39953(17)
C8 C 0.35624(13) 0.24589(17) 0.42329(16)
C9 C 0.29555(15) 0.2960(2) 0.42950(18)
H6 H 0.2449 0.2650 0.4107
C10 C 0.30764(15) 0.3897(2) 0.46243(19)
H7 H 0.2652 0.4228 0.4652
C11 C 0.38189(15) 0.43537(18) 0.49141(17)
H8 H 0.3906 0.4996 0.5145
C12 C 0.44317(14) 0.38671(15) 0.48649(16)
H9 H 0.4942 0.4178 0.5073
C13 C 0.43108(13) 0.29287(15) 0.45143(15)
C14 C 0.49432(13) 0.24716(14) 0.43451(15)
C15 C 0.56196(15) 0.40056(16) 0.25490(18)
H10 H 0.6068 0.3667 0.2586
C16 C 0.5639(2) 0.49890(18) 0.2549(2)
H11 H 0.6093 0.5311 0.2582
C17 C 0.5000 0.5506(2) 0.2500
C18 C 0.4744(3) 0.6551(3) 0.2453(3)
C19 C 0.5264(3) 0.7181(3) 0.2427(3)
C20 C 0.5164(3) 0.8240(3) 0.2412(3)
C21 C 0.5610(3) 0.8750(2) 0.2471(2)
H12 H 0.6093 0.8480 0.2533
C22 C 0.55923(19) 0.97394(18) 0.2470(2)
H13 H 0.6015 1.0080 0.2448
H14 H 0.633(2) 0.217(3) 0.426(3)
H15 H 0.666(2) 0.210(3) 0.362(3)
Mn1_2 Mn 0.5000 1.18451(3) 0.2500
O1B O 0.53298(9) 0.19015(10) 0.13939(11)
O2B O 0.42965(9) 0.27010(11) 0.00977(12)
O3B O 0.74026(10) 0.23104(12) 0.30934(14)
O4B O 0.84837(9) 0.14227(12) 0.33978(12)
H1B H 0.8726 0.1740 0.3942
O5B O 0.36836(10) 0.18759(12) 0.12451(14)
N2_2 N 0.5000 0.02334(18) 0.2500
C1B C 0.76976(13) 0.16653(15) 0.28565(16)
C2B C 0.71943(13) 0.10441(16) 0.19411(17)
C3B C 0.73249(15) 0.00583(18) 0.2059(2)
H2B H 0.7764 -0.0193 0.2689
C4B C 0.68175(18) -0.0555(2) 0.1261(2)
H3B H 0.6910 -0.1223 0.1342
C5B C 0.61742(19) -0.0188(2) 0.0344(2)
H4B H 0.5816 -0.0607 -0.0198
C6B C 0.60550(17) 0.0782(2) 0.0219(2)
H5B H 0.5619 0.1025 -0.0418
C7B C 0.65585(14) 0.14186(17) 0.10047(17)
C8B C 0.64376(13) 0.24589(17) 0.07671(16)
C9B C 0.70445(15) 0.2960(2) 0.07050(18)
H6B H 0.7551 0.2650 0.0893
C10B C 0.69236(15) 0.3897(2) 0.03757(19)
H7B H 0.7348 0.4228 0.0348
C11B C 0.61811(15) 0.43537(18) 0.00859(17)
H8B H 0.6094 0.4996 -0.0145
C12B C 0.55683(14) 0.38671(15) 0.01351(16)
H9B H 0.5058 0.4178 -0.0073
C13B C 0.56892(13) 0.29287(15) 0.04857(15)
C14B C 0.50568(13) 0.24716(14) 0.06549(15)
C15B C 0.43804(15) 0.40056(16) 0.24510(18)
H10B H 0.3932 0.3667 0.2414
C16B C 0.4361(2) 0.49890(18) 0.2451(2)
H11B H 0.3907 0.5311 0.2418
C18B C 0.5256(3) 0.6551(3) 0.2547(3)
C19B C 0.4736(3) 0.7181(3) 0.2573(3)
C20B C 0.4836(3) 0.8240(3) 0.2588(3)
C21B C 0.4390(3) 0.8750(2) 0.2529(2)
H12B H 0.3907 0.8480 0.2467
C22B C 0.44077(19) 0.97394(18) 0.2530(2)
H13B H 0.3985 1.0080 0.2552
H14B H 0.367(2) 0.217(3) 0.074(3)
H15B H 0.334(2) 0.210(3) 0.138(3)
loop_
_geom_bond_atom_site_label_1
_geom_bond_atom_site_label_2
_geom_bond_site_symmetry_1
_geom_bond_site_symmetry_2
Mn1 O1 1_555 1_555
O1 C14 1_555 1_555
O2 C14 1_555 1_555
O3 C1 1_555 1_555
O4 H1 1_555 1_555
O5 Mn1 1_555 1_555
N1 Mn1 1_555 1_555
N2 C22 1_555 1_555
C1 O4 1_555 1_555
C2 C1 1_555 1_555
C3 C2 1_555 1_555
H2 C3 1_555 1_555
C4 C3 1_555 1_555
H3 C4 1_555 1_555
C5 C4 1_555 1_555
H4 C5 1_555 1_555
C6 C5 1_555 1_555
H5 C6 1_555 1_555
C7 C2 1_555 1_555
C8 C7 1_555 1_555
C9 C8 1_555 1_555
H6 C9 1_555 1_555
C10 C9 1_555 1_555
H7 C10 1_555 1_555
C11 C10 1_555 1_555
H8 C11 1_555 1_555
C12 C11 1_555 1_555
H9 C12 1_555 1_555
C13 C8 1_555 1_555
C14 C13 1_555 1_555
C15 N1 1_555 1_555
H10 C15 1_555 1_555
C16 C15 1_555 1_555
H11 C16 1_555 1_555
C17 C16 1_555 1_555
C18 C17 1_555 1_555
C19 C18 1_555 1_555
C20 C19 1_555 1_555
C21 C20 1_555 1_555
H12 C21 1_555 1_555
C22 C21 1_555 1_555
H13 C22 1_555 1_555
H14 O5 1_555 1_555
H15 O5 1_555 1_555
Mn1_2 N2 1_555 1_555
O1B Mn1 1_555 1_555
O2B C14B 1_555 1_555
O3B C1B 1_555 1_555
O4B H1B 1_555 1_555
O5B Mn1 1_555 1_555
N2_2 Mn1 1_555 1_555
C1B O4B 1_555 1_555
C2B C1B 1_555 1_555
C3B C2B 1_555 1_555
H2B C3B 1_555 1_555
C4B C3B 1_555 1_555
H3B C4B 1_555 1_555
C5B C4B 1_555 1_555
H4B C5B 1_555 1_555
C6B C5B 1_555 1_555
H5B C6B 1_555 1_555
C7B C2B 1_555 1_555
C8B C7B 1_555 1_555
C9B C8B 1_555 1_555
H6B C9B 1_555 1_555
C10B C9B 1_555 1_555
H7B C10B 1_555 1_555
C11B C10B 1_555 1_555
H8B C11B 1_555 1_555
C12B C11B 1_555 1_555
H9B C12B 1_555 1_555
C13B C8B 1_555 1_555
C14B O1B 1_555 1_555
C15B N1 1_555 1_555
H10B C15B 1_555 1_555
C16B C17 1_555 1_555
H11B C16B 1_555 1_555
C18B C17 1_555 1_555
C19B C18 1_555 1_555
C20B C20 1_555 1_555
C21B C20 1_555 1_555
H12B C21B 1_555 1_555
C22B N2 1_555 1_555
H13B C22B 1_555 1_555
H14B O5B 1_555 1_555
H15B O5B 1_555 1_555
C6 C7 1_555 1_555
C12 C13 1_555 1_555
C18 C18B 1_555 1_555
C19 C18B 1_555 1_555
C19 C19B 1_555 1_555
C21 C20B 1_555 1_555
C6B C7B 1_555 1_555
C12B C13B 1_555 1_555
C13B C14B 1_555 1_555
C15B C16B 1_555 1_555
C18B C19B 1_555 1_555
C19B C20B 1_555 1_555
C20B C21B 1_555 1_555
C21B C22B 1_555 1_555

#END
