
#######################################################################
#
#                 Cambridge Crystallographic Data Centre
#                                CCDC 
#
#######################################################################
#
# If this CIF has been generated from an entry in the Cambridge 
# Structural Database, then it will include bibliographic, chemical, 
# crystal, experimental, refinement or atomic coordinate data resulting 
# from the CCDC's data processing and validation procedures.
#
#######################################################################

data_CAXMEV
_symmetry_cell_setting           monoclinic
_symmetry_space_group_name_H-M   'P 21/c'
_symmetry_Int_Tables_number      14
_space_group_name_Hall           '-P 2ybc'
loop_
_symmetry_equiv_pos_site_id
_symmetry_equiv_pos_as_xyz
1 x,y,z
2 -x,1/2+y,1/2-z
3 -x,-y,-z
4 x,1/2-y,1/2+z
_cell_length_a                   7.1953(15)
_cell_length_b                   20.339(3)
_cell_length_c                   29.599(5)
_cell_angle_alpha                90
_cell_angle_beta                 94.67(2)
_cell_angle_gamma                90
_cell_volume                     4317.29
loop_
_atom_site_label
_atom_site_type_symbol
_atom_site_fract_x
_atom_site_fract_y
_atom_site_fract_z
Ni1 Ni 0.0000 1.5000 0.5000
Ni2 Ni 0.71454(19) 0.72172(6) 0.73739(4)
N1 N 0.9030(11) 0.7892(4) 0.7160(2)
H1 H 1.0192 0.7764 0.7270
N2 N 0.6684(12) 0.7893(4) 0.7870(3)
H2 H 0.5648 0.8124 0.7770
O1 O 0.0914(11) 0.8922(3) 0.2466(2)
O2 O 0.4953(10) 0.7633(3) 0.6922(2)
C1 C 0.3998(14) 0.8150(5) 0.6967(4)
O3 O 0.3330(10) 0.8319(3) 0.7328(2)
C2 C 0.4836(17) 0.7127(6) 0.8300(4)
H3 H 0.3735 0.7309 0.8134
H4 H 0.4523 0.7042 0.8607
O4 O 0.1139(10) 1.4046(3) 0.5018(2)
N3 N 0.5338(12) 0.6526(4) 0.7586(3)
H5 H 0.4176 0.6652 0.7475
C3 C 0.1162(15) 1.2022(5) 0.4845(3)
H6 H 0.0299 1.1825 0.4636
O5 O -0.0673(10) 0.8174(3) 0.2826(2)
C4 C 0.3696(13) 0.8582(5) 0.6554(3)
C5 C 0.3809(15) 1.1953(4) 0.5387(3)
H7 H 0.4741 1.1711 0.5547
C6 C 0.1676(14) 0.9621(4) 0.4120(3)
C7 C 0.3728(15) 1.2629(5) 0.5449(3)
H8 H 0.4619 1.2833 0.5647
C8 C 0.0940(14) 0.8993(5) 0.4092(3)
H9 H 0.0731 0.8764 0.4355
C9 C 0.6361(16) 0.7646(5) 0.8319(3)
H10 H 0.6012 0.8009 0.8507
H11 H 0.7509 0.7458 0.8458
N4 N 0.7624(12) 0.6547(4) 0.6869(3)
H12 H 0.8694 0.6329 0.6959
C10 C 0.1098(15) 1.2687(4) 0.4912(3)
H13 H 0.0193 1.2931 0.4745
C11 C 0.3166(13) 0.9396(4) 0.5788(3)
C12 C 0.3786(14) 0.8748(5) 0.5752(3)
H14 H 0.4037 0.8580 0.5471
C13 C 0.9435(14) 0.7319(5) 0.6445(3)
H15 H 0.9769 0.7405 0.6140
H16 H 1.0513 0.7122 0.6611
C14 C 0.1939(13) 0.9937(4) 0.3715(3)
H17 H 0.2424 1.0361 0.3727
C15 C 0.7862(16) 0.6820(5) 0.6419(4)
H18 H 0.6713 0.7030 0.6301
H19 H 0.8139 0.6469 0.6213
C16 C 0.2886(13) 0.9821(4) 0.5378(3)
C17 C 0.1512(14) 0.9650(5) 0.3288(3)
H20 H 0.1703 0.9882 0.3026
C18 C 0.4028(14) 0.8351(5) 0.6139(3)
H21 H 0.4425 0.7919 0.6111
C19 C 0.2332(14) 1.3007(4) 0.5219(3)
C20 C 0.0507(13) 0.8700(5) 0.3666(3)
H22 H 0.0003 0.8279 0.3654
C21 C 0.5291(15) 0.6469(5) 0.8081(3)
H23 H 0.6492 0.6314 0.8211
H24 H 0.4359 0.6146 0.8148
C22 C 0.3077(13) 0.9213(5) 0.6589(3)
H25 H 0.2799 0.9373 0.6871
C23 C 0.2513(15) 1.1632(5) 0.5088(3)
C24 C 0.0322(14) 0.8689(5) 0.2811(4)
C25 C 0.9045(15) 0.7973(5) 0.6667(3)
H26 H 0.9996 0.8289 0.6601
H27 H 0.7847 0.8141 0.6543
N5 N -0.0509(12) 1.4873(4) 0.4309(3)
H28 H -0.1245 1.5213 0.4204
O6 O 0.3020(11) 1.3968(3) 0.5642(3)
C26 C 0.0804(13) 0.9016(5) 0.3262(3)
C27 C 0.8279(15) 0.8353(5) 0.7872(3)
H29 H 0.9389 0.8151 0.8020
H30 H 0.8013 0.8751 0.8036
C28 C 0.2859(14) 0.9614(5) 0.6218(3)
H31 H 0.2491 1.0047 0.6256
N6 N -0.2518(12) 1.4602(4) 0.5144(3)
H32 H -0.3374 1.4931 0.5104
C29 C 0.8585(16) 0.8516(5) 0.7387(4)
H33 H 0.7471 0.8712 0.7237
H34 H 0.9607 0.8825 0.7375
C30 C 0.6068(16) 0.6065(5) 0.6873(4)
H35 H 0.6382 0.5668 0.6714
H36 H 0.4946 0.6249 0.6720
C31 C -0.1462(15) 1.4261(5) 0.4160(4)
H37 H -0.0671 1.3889 0.4250
H38 H -0.1653 1.4260 0.3832
C32 C 0.2105(12) 1.0610(4) 0.4618(3)
H39 H 0.1794 1.0873 0.4366
C33 C 0.2176(15) 1.3725(5) 0.5302(4)
C34 C -0.3232(15) 1.4053(5) 0.4858(4)
H40 H -0.4479 1.3946 0.4937
H41 H -0.2451 1.3671 0.4927
C35 C 0.2541(13) 1.0908(4) 0.5036(3)
C36 C 0.2957(13) 1.0504(4) 0.5409(3)
H42 H 0.3295 1.0696 0.5689
C37 C 0.5722(16) 0.5898(5) 0.7363(4)
H43 H 0.4665 0.5603 0.7371
H44 H 0.6810 0.5687 0.7515
C38 C 0.2470(13) 0.9544(5) 0.4957(3)
H45 H 0.2420 0.9089 0.4932
C39 C -0.3304(16) 1.4181(6) 0.4355(4)
H46 H -0.3964 1.3821 0.4199
H47 H -0.4030 1.4577 0.4290
C40 C 0.2121(12) 0.9928(4) 0.4566(3)
C41 C 0.1360(17) 1.4967(5) 0.4130(3)
H48 H 0.2106 1.4573 0.4180
H49 H 0.1211 1.5052 0.3807
C42 C -0.2313(16) 1.4463(6) 0.5629(4)
H50 H -0.3529 1.4394 0.5741
H51 H -0.1581 1.4067 0.5686
Ni2B Ni -0.71454(19) 2.27828(6) 0.26261(4)
Ni2C Ni -0.28546(19) 0.77828(6) 0.23739(4)
Ni2A Ni 0.28546(19) 2.22172(6) 0.76261(4)
N1B N -0.9030(11) 2.2108(4) 0.2840(2)
H1B H -1.0192 2.2236 0.2730
N2B N -0.6684(12) 2.2107(4) 0.2130(3)
H2B H -0.5648 2.1876 0.2230
O1B O -0.0914(11) 2.1078(3) 0.7534(2)
O2B O -0.4953(10) 2.2367(3) 0.3078(2)
C1B C -0.3998(14) 2.1850(5) 0.3033(4)
O3B O -0.3330(10) 2.1681(3) 0.2672(2)
C2B C -0.4836(17) 2.2873(6) 0.1700(4)
H3B H -0.3735 2.2691 0.1866
H4B H -0.4523 2.2958 0.1393
O4B O -0.1139(10) 1.5954(3) 0.4982(2)
N3B N -0.5338(12) 2.3474(4) 0.2414(3)
H5B H -0.4176 2.3348 0.2525
C3B C -0.1162(15) 1.7978(5) 0.5155(3)
H6B H -0.0299 1.8175 0.5364
O5B O 0.0673(10) 2.1826(3) 0.7174(2)
O5C O 0.9327(10) 0.6826(3) 0.7826(2)
O5A O -0.9327(10) 2.3174(3) 0.2174(2)
C4B C -0.3696(13) 2.1418(5) 0.3446(3)
C5B C -0.3809(15) 1.8047(4) 0.4613(3)
H7B H -0.4741 1.8289 0.4453
C6B C -0.1676(14) 2.0379(4) 0.5880(3)
C7B C -0.3728(15) 1.7371(5) 0.4551(3)
H8B H -0.4619 1.7167 0.4353
C8B C -0.0940(14) 2.1007(5) 0.5908(3)
H9B H -0.0731 2.1236 0.5645
C9B C -0.6361(16) 2.2354(5) 0.1681(3)
H10B H -0.6012 2.1991 0.1493
H11B H -0.7509 2.2542 0.1542
N4B N -0.7624(12) 2.3453(4) 0.3131(3)
H12B H -0.8694 2.3671 0.3041
C10B C -0.1098(15) 1.7313(4) 0.5088(3)
H13B H -0.0193 1.7069 0.5255
C11B C -0.3166(13) 2.0604(4) 0.4212(3)
C12B C -0.3786(14) 2.1252(5) 0.4248(3)
H14B H -0.4037 2.1420 0.4529
C13B C -0.9435(14) 2.2681(5) 0.3555(3)
H15B H -0.9769 2.2595 0.3860
H16B H -1.0513 2.2878 0.3389
C14B C -0.1939(13) 2.0063(4) 0.6285(3)
H17B H -0.2424 1.9639 0.6273
C15B C -0.7862(16) 2.3180(5) 0.3581(4)
H18B H -0.6713 2.2970 0.3699
H19B H -0.8139 2.3531 0.3787
C16B C -0.2886(13) 2.0179(4) 0.4622(3)
C17B C -0.1512(14) 2.0350(5) 0.6712(3)
H20B H -0.1703 2.0118 0.6974
C18B C -0.4028(14) 2.1649(5) 0.3861(3)
H21B H -0.4425 2.2081 0.3889
C19B C -0.2332(14) 1.6993(4) 0.4781(3)
C20B C -0.0507(13) 2.1300(5) 0.6334(3)
H22B H -0.0003 2.1721 0.6346
C21B C -0.5291(15) 2.3531(5) 0.1919(3)
H23B H -0.6492 2.3686 0.1789
H24B H -0.4359 2.3854 0.1852
C22B C -0.3077(13) 2.0787(5) 0.3411(3)
H25B H -0.2799 2.0627 0.3129
C23B C -0.2513(15) 1.8368(5) 0.4912(3)
C24B C -0.0322(14) 2.1311(5) 0.7189(4)
C25B C -0.9045(15) 2.2027(5) 0.3333(3)
H26B H -0.9996 2.1711 0.3399
H27B H -0.7847 2.1859 0.3457
N5B N 0.0509(12) 1.5127(4) 0.5691(3)
H28B H 0.1245 1.4787 0.5796
O6B O -0.3020(11) 1.6032(3) 0.4358(3)
C26B C -0.0804(13) 2.0984(5) 0.6738(3)
C27B C -0.8279(15) 2.1647(5) 0.2128(3)
H29B H -0.9389 2.1849 0.1980
H30B H -0.8013 2.1249 0.1964
C28B C -0.2859(14) 2.0386(5) 0.3782(3)
H31B H -0.2491 1.9953 0.3744
N6B N 0.2518(12) 1.5398(4) 0.4856(3)
H32B H 0.3374 1.5069 0.4896
C29B C -0.8585(16) 2.1484(5) 0.2613(4)
H33B H -0.7471 2.1288 0.2763
H34B H -0.9607 2.1175 0.2625
C30B C -0.6068(16) 2.3935(5) 0.3127(4)
H35B H -0.6382 2.4332 0.3286
H36B H -0.4946 2.3751 0.3280
C31B C 0.1462(15) 1.5739(5) 0.5840(4)
H37B H 0.0671 1.6111 0.5750
H38B H 0.1653 1.5740 0.6168
C32B C -0.2105(12) 1.9390(4) 0.5382(3)
H39B H -0.1794 1.9127 0.5634
C33B C -0.2176(15) 1.6275(5) 0.4698(4)
C34B C 0.3232(15) 1.5947(5) 0.5142(4)
H40B H 0.4479 1.6054 0.5063
H41B H 0.2451 1.6329 0.5073
C35B C -0.2541(13) 1.9092(4) 0.4964(3)
C36B C -0.2957(13) 1.9496(4) 0.4591(3)
H42B H -0.3295 1.9304 0.4311
C37B C -0.5722(16) 2.4102(5) 0.2637(4)
H43B H -0.4665 2.4397 0.2629
H44B H -0.6810 2.4313 0.2485
C38B C -0.2470(13) 2.0456(5) 0.5043(3)
H45B H -0.2420 2.0911 0.5068
C39B C 0.3304(16) 1.5819(6) 0.5645(4)
H46B H 0.3964 1.6179 0.5801
H47B H 0.4030 1.5423 0.5710
C40B C -0.2121(12) 2.0072(4) 0.5434(3)
C41B C -0.1360(17) 1.5033(5) 0.5870(3)
H48B H -0.2106 1.5427 0.5820
H49B H -0.1211 1.4948 0.6193
C42B C 0.2313(16) 1.5537(6) 0.4371(4)
H50B H 0.3529 1.5606 0.4259
H51B H 0.1581 1.5933 0.4314
O7 O 0.3847(10) 1.4596(3) 0.6512(2)
H52 H 0.4978 1.4466 0.6628
H53 H 0.3636 1.4318 0.6275
O8 O 0.2864(12) 0.9293(4) 0.7985(3)
H54 H 0.3066 0.8975 0.7785
H55 H 0.1689 0.9223 0.8048
O9 O 0.0597(11) 1.0056(3) 0.1987(2)
H56 H 0.0996 0.9724 0.2165
H57 H 0.1555 1.0138 0.1821
loop_
_geom_bond_atom_site_label_1
_geom_bond_atom_site_label_2
_geom_bond_site_symmetry_1
_geom_bond_site_symmetry_2
Ni1 O4 1_555 1_555
Ni2 N1 1_555 1_555
N1 H1 1_555 1_555
N2 Ni2 1_555 1_555
H2 N2 1_555 1_555
O1 C24 1_555 1_555
O2 Ni2 1_555 1_555
C1 O2 1_555 1_555
O3 C1 1_555 1_555
C2 H3 1_555 1_555
H4 C2 1_555 1_555
O4 C33 1_555 1_555
N3 Ni2 1_555 1_555
H5 N3 1_555 1_555
C3 H6 1_555 1_555
O5 C24 1_555 1_555
C4 C1 1_555 1_555
C5 H7 1_555 1_555
C6 C8 1_555 1_555
C7 C5 1_555 1_555
H8 C7 1_555 1_555
C8 H9 1_555 1_555
C9 N2 1_555 1_555
H10 C9 1_555 1_555
H11 C9 1_555 1_555
N4 Ni2 1_555 1_555
H12 N4 1_555 1_555
C10 C3 1_555 1_555
H13 C10 1_555 1_555
C11 C12 1_555 1_555
C12 H14 1_555 1_555
C13 H15 1_555 1_555
H16 C13 1_555 1_555
C14 C6 1_555 1_555
H17 C14 1_555 1_555
C15 N4 1_555 1_555
H18 C15 1_555 1_555
H19 C15 1_555 1_555
C16 C11 1_555 1_555
C17 C14 1_555 1_555
H20 C17 1_555 1_555
C18 C4 1_555 1_555
H21 C18 1_555 1_555
C19 C7 1_555 1_555
C20 C8 1_555 1_555
H22 C20 1_555 1_555
C21 C2 1_555 1_555
H23 C21 1_555 1_555
H24 C21 1_555 1_555
C22 C4 1_555 1_555
H25 C22 1_555 1_555
C23 C3 1_555 1_555
C24 C26 1_555 1_555
C25 N1 1_555 1_555
H26 C25 1_555 1_555
H27 C25 1_555 1_555
N5 Ni1 1_555 1_555
H28 N5 1_555 1_555
O6 C33 1_555 1_555
C26 C17 1_555 1_555
C27 N2 1_555 1_555
H29 C27 1_555 1_555
H30 C27 1_555 1_555
C28 C11 1_555 1_555
H31 C28 1_555 1_555
N6 Ni1 1_555 1_555
H32 N6 1_555 1_555
C29 N1 1_555 1_555
H33 C29 1_555 1_555
H34 C29 1_555 1_555
C30 N4 1_555 1_555
H35 C30 1_555 1_555
H36 C30 1_555 1_555
C31 N5 1_555 1_555
H37 C31 1_555 1_555
H38 C31 1_555 1_555
C32 H39 1_555 1_555
C33 C19 1_555 1_555
C34 N6 1_555 1_555
H40 C34 1_555 1_555
H41 C34 1_555 1_555
C35 C23 1_555 1_555
C36 C16 1_555 1_555
H42 C36 1_555 1_555
C37 N3 1_555 1_555
H43 C37 1_555 1_555
H44 C37 1_555 1_555
C38 C16 1_555 1_555
H45 C38 1_555 1_555
C39 C31 1_555 1_555
H46 C39 1_555 1_555
H47 C39 1_555 1_555
C40 C6 1_555 1_555
C41 N5 1_555 1_555
H48 C41 1_555 1_555
H49 C41 1_555 1_555
C42 N6 1_555 1_555
H50 C42 1_555 1_555
H51 C42 1_555 1_555
O7 H52 1_555 1_555
H53 O7 1_555 1_555
O8 H54 1_555 1_555
H55 O8 1_555 1_555
O9 H56 1_555 1_555
H57 O9 1_555 1_555
Ni2B N1B 1_555 1_555
Ni2C O5 1_555 1_555
Ni2A O5B 1_555 1_555
N1B H1B 1_555 1_555
N2B Ni2B 1_555 1_555
H2B N2B 1_555 1_555
O1B C24B 1_555 1_555
O2B Ni2B 1_555 1_555
C1B O2B 1_555 1_555
O3B C1B 1_555 1_555
C2B H3B 1_555 1_555
H4B C2B 1_555 1_555
O4B Ni1 1_555 1_555
N3B Ni2B 1_555 1_555
H5B N3B 1_555 1_555
C3B H6B 1_555 1_555
O5B C24B 1_555 1_555
O5C Ni2 1_555 1_555
O5A Ni2B 1_555 1_555
C4B C1B 1_555 1_555
C5B H7B 1_555 1_555
C6B C8B 1_555 1_555
C7B C5B 1_555 1_555
H8B C7B 1_555 1_555
C8B H9B 1_555 1_555
C9B N2B 1_555 1_555
H10B C9B 1_555 1_555
H11B C9B 1_555 1_555
N4B Ni2B 1_555 1_555
H12B N4B 1_555 1_555
C10B C3B 1_555 1_555
H13B C10B 1_555 1_555
C11B C12B 1_555 1_555
C12B H14B 1_555 1_555
C13B H15B 1_555 1_555
H16B C13B 1_555 1_555
C14B C6B 1_555 1_555
H17B C14B 1_555 1_555
C15B N4B 1_555 1_555
H18B C15B 1_555 1_555
H19B C15B 1_555 1_555
C16B C11B 1_555 1_555
C17B C14B 1_555 1_555
H20B C17B 1_555 1_555
C18B C4B 1_555 1_555
H21B C18B 1_555 1_555
C19B C7B 1_555 1_555
C20B C8B 1_555 1_555
H22B C20B 1_555 1_555
C21B C2B 1_555 1_555
H23B C21B 1_555 1_555
H24B C21B 1_555 1_555
C22B C4B 1_555 1_555
H25B C22B 1_555 1_555
C23B C3B 1_555 1_555
C24B C26B 1_555 1_555
C25B N1B 1_555 1_555
H26B C25B 1_555 1_555
H27B C25B 1_555 1_555
N5B Ni1 1_555 1_555
H28B N5B 1_555 1_555
O6B C33B 1_555 1_555
C26B C17B 1_555 1_555
C27B N2B 1_555 1_555
H29B C27B 1_555 1_555
H30B C27B 1_555 1_555
C28B C11B 1_555 1_555
H31B C28B 1_555 1_555
N6B Ni1 1_555 1_555
H32B N6B 1_555 1_555
C29B N1B 1_555 1_555
H33B C29B 1_555 1_555
H34B C29B 1_555 1_555
C30B N4B 1_555 1_555
H35B C30B 1_555 1_555
H36B C30B 1_555 1_555
C31B N5B 1_555 1_555
H37B C31B 1_555 1_555
H38B C31B 1_555 1_555
C32B H39B 1_555 1_555
C33B O4B 1_555 1_555
C34B N6B 1_555 1_555
H40B C34B 1_555 1_555
H41B C34B 1_555 1_555
C35B C23B 1_555 1_555
C36B C16B 1_555 1_555
H42B C36B 1_555 1_555
C37B N3B 1_555 1_555
H43B C37B 1_555 1_555
H44B C37B 1_555 1_555
C38B C16B 1_555 1_555
H45B C38B 1_555 1_555
C39B C31B 1_555 1_555
H46B C39B 1_555 1_555
H47B C39B 1_555 1_555
C40B C6B 1_555 1_555
C41B C42 1_555 1_555
H48B C41B 1_555 1_555
H49B C41B 1_555 1_555
C42B C41 1_555 1_555
H50B C42B 1_555 1_555
H51B C42B 1_555 1_555
C2 C9 1_555 1_555
N3 C21 1_555 1_555
C5 C23 1_555 1_555
C10 C19 1_555 1_555
C12 C18 1_555 1_555
C13 C15 1_555 1_555
C13 C25 1_555 1_555
C20 C26 1_555 1_555
C22 C28 1_555 1_555
C27 C29 1_555 1_555
C30 C37 1_555 1_555
C32 C35 1_555 1_555
C32 C40 1_555 1_555
C34 C39 1_555 1_555
C35 C36 1_555 1_555
C38 C40 1_555 1_555
C2B C9B 1_555 1_555
N3B C21B 1_555 1_555
C5B C23B 1_555 1_555
C10B C19B 1_555 1_555
C12B C18B 1_555 1_555
C13B C15B 1_555 1_555
C13B C25B 1_555 1_555
C19B C33B 1_555 1_555
C20B C26B 1_555 1_555
C22B C28B 1_555 1_555
N5B C41B 1_555 1_555
C27B C29B 1_555 1_555
N6B C42B 1_555 1_555
C30B C37B 1_555 1_555
C32B C35B 1_555 1_555
C32B C40B 1_555 1_555
C34B C39B 1_555 1_555
C35B C36B 1_555 1_555
C38B C40B 1_555 1_555

#END
