
#######################################################################
#
#                 Cambridge Crystallographic Data Centre
#                                CCDC 
#
#######################################################################
#
# If this CIF has been generated from an entry in the Cambridge 
# Structural Database, then it will include bibliographic, chemical, 
# crystal, experimental, refinement or atomic coordinate data resulting 
# from the CCDC's data processing and validation procedures.
#
#######################################################################

data_CAXNOG
_symmetry_cell_setting           monoclinic
_symmetry_space_group_name_H-M   'P 21/c'
_symmetry_Int_Tables_number      14
_space_group_name_Hall           '-P 2ybc'
loop_
_symmetry_equiv_pos_site_id
_symmetry_equiv_pos_as_xyz
1 x,y,z
2 -x,1/2+y,1/2-z
3 -x,-y,-z
4 x,1/2-y,1/2+z
_cell_length_a                   14.249(5)
_cell_length_b                   10.089(5)
_cell_length_c                   21.025(5)
_cell_angle_alpha                90
_cell_angle_beta                 101.954(5)
_cell_angle_gamma                90
_cell_volume                     2956.97
loop_
_atom_site_label
_atom_site_type_symbol
_atom_site_fract_x
_atom_site_fract_y
_atom_site_fract_z
C1 C 0.7149(2) 0.4633(3) 0.54129(16)
C2 C 0.7029(2) 0.3324(3) 0.57417(16)
C3 C 0.6919(3) 0.3242(4) 0.63857(17)
H1 H 0.6921 0.4004 0.6635
C4 C 0.6810(3) 0.2007(4) 0.66437(17)
H2 H 0.6723 0.1930 0.7069
C5 C 0.6828(2) 0.0886(4) 0.62692(16)
H3 H 0.6754 0.0047 0.6435
C6 C 0.6961(2) 0.1046(3) 0.56375(16)
C7 C 0.7052(2) -0.0113(3) 0.51977(16)
C8 C 0.5024(3) 0.2253(4) 0.37257(17)
C9 C 0.5376(2) 0.1334(3) 0.32486(15)
C10 C 0.4750(2) 0.0626(4) 0.27652(16)
H4 H 0.4089 0.0722 0.2712
C11 C 0.5136(3) -0.0218(4) 0.23684(17)
H5 H 0.4736 -0.0700 0.2045
C12 C 0.6124(2) -0.0339(3) 0.24565(16)
H6 H 0.6395 -0.0919 0.2201
C13 C 0.6704(2) 0.0426(3) 0.29359(15)
C14 C 0.7793(2) 0.0400(3) 0.30725(15)
C15 C 0.7788(2) 0.4634(3) 0.31299(15)
C16 C 0.8796(2) 0.4471(3) 0.35399(15)
C17 C 0.9602(3) 0.5005(4) 0.33591(17)
H7 H 0.9544 0.5510 0.2983
C18 C 1.0497(3) 0.4768(4) 0.37548(18)
H8 H 1.1050 0.5090 0.3639
C19 C 1.0558(2) 0.4050(4) 0.43206(17)
H9 H 1.1149 0.3902 0.4596
C20 C 0.9720(2) 0.3554(3) 0.44717(16)
C21 C 0.9703(3) 0.2693(4) 0.50619(17)
N1 N 0.70440(19) 0.2244(3) 0.53817(13)
N2 N 0.63254(19) 0.1242(3) 0.33187(12)
N3 N 0.88621(19) 0.3761(3) 0.40824(13)
O1 O 0.72761(17) 0.4577(2) 0.48327(11)
O2 O 0.71268(18) 0.5661(2) 0.57294(12)
O3 O 0.71094(19) 0.0153(2) 0.46220(11)
O4 O 0.70714(18) -0.1262(2) 0.54295(11)
O5 O 0.56548(18) 0.2839(3) 0.41377(12)
O6 O 0.41433(18) 0.2345(2) 0.36668(13)
O7 O 0.82278(16) 0.1117(3) 0.35283(11)
O8 O 0.81909(17) -0.0337(2) 0.27281(11)
O9 O 0.71170(17) 0.4046(3) 0.33299(11)
O10 O 0.76933(18) 0.5332(3) 0.26366(11)
O11 O 0.89085(18) 0.2190(3) 0.51005(12)
O12 O 1.0474(2) 0.2542(2) 0.54655(13)
O13 O 0.8027(2) 0.7531(3) 0.68838(13)
Bi1 Bi 0.739382(8) 0.248650(11) 0.424967(5)
Li1 Li 0.7035(4) 0.7395(5) 0.6077(3)
H26 H 0.802(3) 0.690(5) 0.710(2)
H27 H 0.800(3) 0.813(5) 0.713(2)
O4_2 O 0.70714(18) 0.8738(2) 0.54295(11)
O6B O 0.58567(18) 0.7655(2) 0.63332(13)
Li1_2 Li 0.7035(4) -0.2605(5) 0.6077(3)
Li1B Li 0.2965(4) 0.2605(5) 0.3923(3)
C22 C 0.9391(3) 0.1523(4) 0.6709(2)
H10 H 0.8916 0.1985 0.6397
H11 H 0.9756 0.2149 0.7004
H12 H 0.9081 0.0909 0.6947
C23 C 0.9572(3) -0.0379(4) 0.6003(2)
H13 H 0.9338 -0.0961 0.6296
H14 H 1.0031 -0.0840 0.5808
H15 H 0.9046 -0.0090 0.5669
N4 N 1.0039(2) 0.0792(3) 0.63670(15)
H22 H 1.024(4) 0.137(6) 0.606(3)
H23 H 1.062(3) 0.039(4) 0.6678(19)
C24 C 0.7189(4) -0.2632(4) 0.3835(2)
H16 H 0.6901 -0.3095 0.3445
H17 H 0.7836 -0.2934 0.3983
H18 H 0.7191 -0.1698 0.3749
C25 C 0.5658(5) -0.2587(12) 0.4146(5)
H19 H 0.5551 -0.1687 0.4261
H20 H 0.5296 -0.3172 0.4364
H21 H 0.5456 -0.2697 0.3685
N5 N 0.6640(3) -0.2888(4) 0.43354(18)
H24 H 0.683(5) -0.232(6) 0.460(3)
H25 H 0.673(6) -0.380(9) 0.442(4)
loop_
_geom_bond_atom_site_label_1
_geom_bond_atom_site_label_2
_geom_bond_site_symmetry_1
_geom_bond_site_symmetry_2
C1 C2 1_555 1_555
C2 C3 1_555 1_555
C3 H1 1_555 1_555
C4 C3 1_555 1_555
H2 C4 1_555 1_555
C5 C4 1_555 1_555
H3 C5 1_555 1_555
C6 C5 1_555 1_555
C7 C6 1_555 1_555
C8 C9 1_555 1_555
C9 C10 1_555 1_555
C10 H4 1_555 1_555
C11 C10 1_555 1_555
H5 C11 1_555 1_555
C12 C11 1_555 1_555
H6 C12 1_555 1_555
C13 C12 1_555 1_555
C14 C13 1_555 1_555
C15 C16 1_555 1_555
C16 C17 1_555 1_555
C17 H7 1_555 1_555
C18 C17 1_555 1_555
H8 C18 1_555 1_555
C19 C18 1_555 1_555
H9 C19 1_555 1_555
C20 C19 1_555 1_555
C21 C20 1_555 1_555
C22 H10 1_555 1_555
H11 C22 1_555 1_555
H12 C22 1_555 1_555
C23 H13 1_555 1_555
H14 C23 1_555 1_555
H15 C23 1_555 1_555
C24 H16 1_555 1_555
H17 C24 1_555 1_555
H18 C24 1_555 1_555
C25 H19 1_555 1_555
H20 C25 1_555 1_555
H21 C25 1_555 1_555
N1 C2 1_555 1_555
N2 C9 1_555 1_555
N3 C16 1_555 1_555
N4 C22 1_555 1_555
N5 C24 1_555 1_555
O1 C1 1_555 1_555
O2 C1 1_555 1_555
O3 C7 1_555 1_555
O4 C7 1_555 1_555
O5 C8 1_555 1_555
O6 C8 1_555 1_555
O7 C14 1_555 1_555
O8 C14 1_555 1_555
O9 C15 1_555 1_555
O10 C15 1_555 1_555
O11 C21 1_555 1_555
O12 C21 1_555 1_555
O13 Li1 1_555 1_555
Bi1 N1 1_555 1_555
Li1 O2 1_555 1_555
H22 N4 1_555 1_555
H23 N4 1_555 1_555
H24 N5 1_555 1_555
H25 N5 1_555 1_555
H26 O13 1_555 1_555
H27 O13 1_555 1_555
O4_2 Li1 1_555 1_555
O6B Li1 1_555 1_555
Li1_2 O4 1_555 1_555
Li1B O6 1_555 1_555
C6 N1 1_555 1_555
C13 N2 1_555 1_555
C20 N3 1_555 1_555
C23 N4 1_555 1_555
C25 N5 1_555 1_555
N2 Bi1 1_555 1_555
N3 Bi1 1_555 1_555
O1 Bi1 1_555 1_555
O3 Bi1 1_555 1_555
O5 Bi1 1_555 1_555
O7 Bi1 1_555 1_555
O9 Bi1 1_555 1_555
O11 Bi1 1_555 1_555

#END
