
#######################################################################
#
#                 Cambridge Crystallographic Data Centre
#                                CCDC 
#
#######################################################################
#
# If this CIF has been generated from an entry in the Cambridge 
# Structural Database, then it will include bibliographic, chemical, 
# crystal, experimental, refinement or atomic coordinate data resulting 
# from the CCDC's data processing and validation procedures.
#
#######################################################################

data_CAXPOI
_symmetry_cell_setting           monoclinic
_symmetry_space_group_name_H-M   'P 21/c'
_symmetry_Int_Tables_number      14
_space_group_name_Hall           '-P 2ybc'
loop_
_symmetry_equiv_pos_site_id
_symmetry_equiv_pos_as_xyz
1 x,y,z
2 -x,1/2+y,1/2-z
3 -x,-y,-z
4 x,1/2-y,1/2+z
_cell_length_a                   10.5193(2)
_cell_length_b                   12.5170(2)
_cell_length_c                   11.5835(2)
_cell_angle_alpha                90
_cell_angle_beta                 103.723(1)
_cell_angle_gamma                90
_cell_volume                     1481.66
loop_
_atom_site_label
_atom_site_type_symbol
_atom_site_fract_x
_atom_site_fract_y
_atom_site_fract_z
Co1 Co 0.56971(2) 0.112186(18) 0.01223(2)
Co2 Co 0.46289(2) 0.062529(18) 0.25104(2)
O1 O 0.42381(12) 0.03265(10) 0.07309(11)
O2 O 0.7226(2) 0.1737(2) -0.05537(19)
O3 O 0.72245(16) 0.05278(13) 0.16095(15)
O4 O 0.65683(15) 0.08399(16) 0.32754(15)
O5 O 1.34076(15) 0.10521(13) 0.35741(18)
O6 O 0.9563(2) 0.1820(2) 0.6873(2)
O7 O 1.1617(2) 0.1817(2) 0.7036(2)
O8 O 1.2101(2) 0.0439(2) 0.1970(2)
N1 N 0.53811(17) 0.24640(12) 0.10837(14)
N2 N 0.42375(16) 0.33504(13) 0.35261(14)
H1 H 0.3968 0.2808 0.3857
H2 H 0.4217 0.3978 0.3824
N3 N 0.52304(17) 0.40142(12) 0.19822(15)
N4 N 0.47689(16) 0.22736(12) 0.20012(14)
N5 N 1.0509(2) 0.17160(17) 0.64555(19)
C1 C 0.74319(19) 0.07535(15) 0.26971(19)
C2 C 0.88164(19) 0.09394(16) 0.33843(18)
C3 C 0.9868(2) 0.08153(17) 0.2865(2)
H3 H 0.9723 0.0618 0.2070
C4 C 1.1144(2) 0.09859(17) 0.3529(2)
C5 C 1.1370(2) 0.13007(17) 0.4706(2)
H4 H 1.2215 0.1430 0.5152
C6 C 1.0304(2) 0.14166(17) 0.52012(19)
C7 C 0.90362(19) 0.12351(16) 0.45668(19)
H5 H 0.8341 0.1310 0.4928
C8 C 1.2285(2) 0.08137(19) 0.2969(2)
C9 C 0.47120(17) 0.32120(14) 0.24992(16)
C10 C 0.5624(2) 0.34964(15) 0.11025(17)
H6 H 0.6024 0.3834 0.0567
H7 H 0.3506(16) 0.063(2) 0.048(2)
Co1B Co 0.43029(2) -0.112186(18) -0.01223(2)
Co1C Co 0.56971(2) 0.387814(18) 0.51223(2)
Co2_2 Co 1.46289(2) 0.062529(18) 0.25104(2)
Co2A Co 0.53711(2) 0.562529(18) 0.24896(2)
O1B O 0.57619(12) -0.03265(10) -0.07309(11)
O5_2 O 0.34076(15) 0.10521(13) 0.35741(18)
O8_2 O 0.2101(2) 0.0439(2) 0.1970(2)
N2C N 0.42375(16) 0.16496(13) -0.14739(14)
H1C H 0.3968 0.2192 -0.1143
H2C H 0.4217 0.1022 -0.1176
N3A N 0.47696(17) -0.09858(12) 0.30178(15)
H7B H 0.6494(16) -0.063(2) -0.048(2)
O9 O 0.9675(9) 0.1052(5) -0.0381(8)
loop_
_geom_bond_atom_site_label_1
_geom_bond_atom_site_label_2
_geom_bond_site_symmetry_1
_geom_bond_site_symmetry_2
Co1 O1 1_555 1_555
Co2 O1 1_555 1_555
O1 H7 1_555 1_555
O2 Co1 1_555 1_555
O3 Co1 1_555 1_555
O4 Co2 1_555 1_555
O5 C8 1_555 1_555
O6 N5 1_555 1_555
O7 N5 1_555 1_555
O8 C8 1_555 1_555
N1 Co1 1_555 1_555
N2 H1 1_555 1_555
H2 N2 1_555 1_555
N3 C9 1_555 1_555
N4 Co2 1_555 1_555
N5 C6 1_555 1_555
C1 O3 1_555 1_555
C2 C1 1_555 1_555
C3 C2 1_555 1_555
H3 C3 1_555 1_555
C4 C3 1_555 1_555
C5 C4 1_555 1_555
H4 C5 1_555 1_555
C6 C5 1_555 1_555
C7 C2 1_555 1_555
H5 C7 1_555 1_555
C8 C4 1_555 1_555
C9 N2 1_555 1_555
C10 N1 1_555 1_555
H6 C10 1_555 1_555
Co1B O1 1_555 1_555
Co1C N2 1_555 1_555
Co2_2 O5 1_555 1_555
Co2A N3 1_555 1_555
O1B Co1 1_555 1_555
O5_2 Co2 1_555 1_555
O8_2 Co2 1_555 1_555
N2C Co1 1_555 1_555
H1C N2C 1_555 1_555
H2C N2C 1_555 1_555
N3A Co2 1_555 1_555
H7B O1B 1_555 1_555
O4 C1 1_555 1_555
O8 Co2_2 1_555 1_555
N1 N4 1_555 1_555
N3 C10 1_555 1_555
N4 C9 1_555 1_555
C6 C7 1_555 1_555
Co1B O1B 1_555 1_555

#END
