
#######################################################################
#
#                 Cambridge Crystallographic Data Centre
#                                CCDC 
#
#######################################################################
#
# If this CIF has been generated from an entry in the Cambridge 
# Structural Database, then it will include bibliographic, chemical, 
# crystal, experimental, refinement or atomic coordinate data resulting 
# from the CCDC's data processing and validation procedures.
#
#######################################################################

data_CAXPAU
_symmetry_cell_setting           triclinic
_symmetry_space_group_name_H-M   'P -1'
_symmetry_Int_Tables_number      2
_space_group_name_Hall           '-P 1'
loop_
_symmetry_equiv_pos_site_id
_symmetry_equiv_pos_as_xyz
1 x,y,z
2 -x,-y,-z
_cell_length_a                   9.5395(2)
_cell_length_b                   11.7926(2)
_cell_length_c                   11.8861(2)
_cell_angle_alpha                110.204(1)
_cell_angle_beta                 111.329(1)
_cell_angle_gamma                90.908(1)
_cell_volume                     1153.5
loop_
_atom_site_label
_atom_site_type_symbol
_atom_site_fract_x
_atom_site_fract_y
_atom_site_fract_z
Co1 Co 0.64490(3) 0.36922(2) 1.26241(3)
Co2 Co 0.0000 0.5000 0.5000
Co3 Co 0.60882(3) 0.83865(2) 0.70784(3)
O1 O 0.42724(18) 0.36354(16) 1.15943(18)
O2 O 0.26846(18) 0.55287(15) 0.82859(15)
O3 O 0.15795(16) 0.68039(13) 0.61070(14)
O4 O 0.6381(2) 0.19048(15) 1.11375(16)
O5 O 0.37947(16) 0.75150(13) 0.62657(14)
O6 O 0.03227(17) 0.48420(15) 0.67475(14)
O7 O 0.27169(18) 0.20722(15) 1.13599(15)
O8 O 0.38766(18) 1.03429(15) 0.38043(16)
O9 O 0.54326(19) 0.97545(14) 0.84334(16)
O10 O 0.17011(18) 1.05549(15) 0.24784(16)
O11 O -0.2803(2) 0.21914(19) 0.9096(2)
O12 O -0.3441(2) 0.3284(2) 0.7938(3)
O13 O -0.3051(2) 0.8871(2) 0.2353(2)
O14 O -0.3070(2) 0.7902(3) 0.3578(3)
N1 N 0.33204(19) 0.46986(15) 0.58203(17)
N2 N 0.18723(19) 0.42550(16) 0.48732(17)
N3 N 0.3424(2) 0.30837(16) 0.42113(18)
N4 N -0.2496(2) 0.28808(18) 0.86309(19)
N5 N -0.2411(2) 0.84235(18) 0.3155(2)
C1 C 0.1364(2) 0.49416(18) 0.78071(19)
C2 C 0.0982(2) 0.42794(18) 0.85624(19)
C3 C 0.2125(2) 0.39889(18) 0.94974(19)
H1 H 0.3143 0.4269 0.9718
C4 C 0.1752(2) 0.32807(18) 1.01056(19)
C5 C 0.0233(2) 0.28835(19) 0.9810(2)
H2 H -0.0029 0.2393 1.0194
C6 C -0.0877(2) 0.32446(18) 0.89246(19)
C7 C -0.0541(2) 0.39168(18) 0.82824(19)
H3 H -0.1316 0.4123 0.7675
C8 C 0.3017(2) 0.29635(19) 1.10999(19)
C9 C 0.2369(2) 0.74402(17) 0.58112(18)
C10 C 0.1581(2) 0.80966(18) 0.49391(19)
C11 C 0.2396(2) 0.87874(18) 0.4560(2)
H4 H 0.3453 0.8870 0.4871
C12 C 0.1609(2) 0.93548(18) 0.3710(2)
C13 C 0.0030(2) 0.92288(19) 0.3242(2)
H5 H -0.0500 0.9593 0.2668
C14 C -0.0735(2) 0.85524(19) 0.3646(2)
C15 C 0.0000(2) 0.79924(18) 0.4493(2)
H6 H -0.0548 0.7555 0.4761
C16 C 0.2451(2) 1.01197(19) 0.3305(2)
C17 C 0.1991(2) 0.33059(19) 0.3945(2)
H7 H 0.1167 0.2838 0.3184
C18 C 0.4199(2) 0.39714(19) 0.5386(2)
H8 H 0.5245 0.4063 0.5844
Co1A Co -0.64490(3) 0.63078(2) -0.26241(3)
Co1A_2 Co 0.35510(3) 0.63078(2) 0.73759(3)
Co1_2 Co -0.35510(3) 0.36922(2) 0.26241(3)
Co3A Co -0.60882(3) 0.16135(2) 0.29216(3)
Co3A_2 Co 0.39118(3) 0.16135(2) 1.29216(3)
Co3A_3 Co 0.39118(3) 1.16135(2) 0.29216(3)
Co3A_4 Co 0.39118(3) 0.16135(2) 0.29216(3)
Co3_2 Co -0.39118(3) -0.16135(2) 0.70784(3)
Co3_3 Co -0.39118(3) 0.83865(2) -0.29216(3)
Co3_4 Co -0.39118(3) 0.83865(2) 0.70784(3)
O1A O -0.42724(18) 0.63646(16) -0.15943(18)
O2A O -0.26846(18) 0.44713(15) 0.17141(15)
O2A_2 O 0.73154(18) 0.44713(15) 1.17141(15)
O2_2 O -0.73154(18) 0.55287(15) -0.17141(15)
O3A O -0.15795(16) 0.31961(13) 0.38930(14)
O3A_2 O 0.84205(16) 0.31961(13) 1.38930(14)
O3_2 O -0.84205(16) 0.68039(13) -0.38930(14)
O4A O -0.6381(2) 0.80952(15) -0.11375(16)
O5A O -0.37947(16) 0.24850(13) 0.37343(14)
O5A_2 O 0.62053(16) 0.24850(13) 1.37343(14)
O5_2 O -0.62053(16) 0.75150(13) -0.37343(14)
O6A O -0.03227(17) 0.51580(15) 0.32525(14)
O7A O -0.27169(18) 0.79278(15) -0.13599(15)
O7A_2 O 0.72831(18) 0.79278(15) 0.86401(15)
O7_2 O -0.72831(18) 0.20722(15) 0.13599(15)
O8A O -0.38766(18) -0.03429(15) 0.61957(16)
O8A_2 O 0.61234(18) 0.96571(15) 0.61957(16)
O8_2 O -0.61234(18) 0.03429(15) 0.38043(16)
O9A O -0.54326(19) 0.02455(14) 0.15666(16)
O10A O -0.17011(18) -0.05549(15) 0.75216(16)
O10A_2 O 0.82989(18) 0.94451(15) 0.75216(16)
O10_2 O -0.82989(18) 0.05549(15) 0.24784(16)
O11A O 0.2803(2) 0.78086(19) 0.0904(2)
O12A O 0.3441(2) 0.6716(2) 0.2062(3)
O13A O 0.3051(2) 0.1129(2) 0.7647(2)
O14A O 0.3070(2) 0.2098(3) 0.6422(3)
N1A N -0.33204(19) 0.53014(15) 0.41797(17)
N1A_2 N 0.66796(19) 0.53014(15) 1.41797(17)
N1_2 N -0.66796(19) 0.46986(15) -0.41797(17)
N2A N -0.18723(19) 0.57450(16) 0.51268(17)
N3A N -0.3424(2) 0.69163(16) 0.57887(18)
N3A_2 N 0.6576(2) 0.69163(16) 0.57887(18)
N3_2 N -0.6576(2) 0.30837(16) 0.42113(18)
N4A N 0.2496(2) 0.71192(18) 0.13691(19)
N5A N 0.2411(2) 0.15765(18) 0.6845(2)
C1A C -0.1364(2) 0.50584(18) 0.21929(19)
C2A C -0.0982(2) 0.57206(18) 0.14376(19)
C3A C -0.2125(2) 0.60111(18) 0.05026(19)
H1A H -0.3143 0.5731 0.0282
C4A C -0.1752(2) 0.67193(18) -0.01056(19)
C5A C -0.0233(2) 0.71165(19) 0.0190(2)
H2A H 0.0029 0.7607 -0.0194
C6A C 0.0877(2) 0.67554(18) 0.10754(19)
C7A C 0.0541(2) 0.60832(18) 0.17176(19)
H3A H 0.1316 0.5877 0.2325
C8A C -0.3017(2) 0.70365(19) -0.10999(19)
C9A C -0.2369(2) 0.25598(17) 0.41888(18)
C10A C -0.1581(2) 0.19034(18) 0.50609(19)
C11A C -0.2396(2) 0.12126(18) 0.5440(2)
H4A H -0.3453 0.1130 0.5129
C12A C -0.1609(2) 0.06452(18) 0.6290(2)
C13A C -0.0030(2) 0.07712(19) 0.6758(2)
H5A H 0.0500 0.0407 0.7332
C14A C 0.0735(2) 0.14476(19) 0.6354(2)
C15A C 0.0000(2) 0.20076(18) 0.5507(2)
H6A H 0.0548 0.2445 0.5239
C16A C -0.2451(2) -0.01197(19) 0.6695(2)
C17A C -0.1991(2) 0.66941(19) 0.6055(2)
H7A H -0.1167 0.7162 0.6816
C18A C -0.4199(2) 0.60286(19) 0.4614(2)
H8A H -0.5245 0.5937 0.4156
O15 O 0.1262(3) 0.9350(2) 0.9086(2)
loop_
_geom_bond_atom_site_label_1
_geom_bond_atom_site_label_2
_geom_bond_site_symmetry_1
_geom_bond_site_symmetry_2
Co1 O1 1_555 1_555
Co2 O3 1_555 1_555
Co3 O5 1_555 1_555
O1 C8 1_555 1_555
O2 C1 1_555 1_555
O3 C9 1_555 1_555
O4 Co1 1_555 1_555
O5 C9 1_555 1_555
O6 Co2 1_555 1_555
O7 C8 1_555 1_555
O8 C16 1_555 1_555
O9 Co3 1_555 1_555
O10 C16 1_555 1_555
O11 N4 1_555 1_555
O12 N4 1_555 1_555
O13 N5 1_555 1_555
O14 N5 1_555 1_555
N1 N2 1_555 1_555
N2 Co2 1_555 1_555
N3 C17 1_555 1_555
N4 C6 1_555 1_555
N5 C14 1_555 1_555
C1 O6 1_555 1_555
C2 C1 1_555 1_555
C3 C2 1_555 1_555
H1 C3 1_555 1_555
C4 C3 1_555 1_555
C5 C4 1_555 1_555
H2 C5 1_555 1_555
C6 C5 1_555 1_555
C7 C2 1_555 1_555
H3 C7 1_555 1_555
C8 C4 1_555 1_555
C9 C10 1_555 1_555
C10 C11 1_555 1_555
C11 H4 1_555 1_555
C12 C11 1_555 1_555
C13 C12 1_555 1_555
H5 C13 1_555 1_555
C14 C13 1_555 1_555
C15 C10 1_555 1_555
H6 C15 1_555 1_555
C16 C12 1_555 1_555
C17 N2 1_555 1_555
H7 C17 1_555 1_555
C18 N1 1_555 1_555
H8 C18 1_555 1_555
Co1A O1A 1_555 1_555
Co1A_2 O2 1_555 1_555
Co1_2 O2A 1_555 1_555
Co3A O5A 1_555 1_555
Co3A_2 O7 1_555 1_555
Co3A_3 O8 1_555 1_555
Co3A_4 N3 1_555 1_555
Co3_2 O8A 1_555 1_555
Co3_3 O5_2 1_555 1_555
Co3_4 N3A 1_555 1_555
O1A C8A 1_555 1_555
O2A C1A 1_555 1_555
O2A_2 Co1 1_555 1_555
O2_2 Co1A 1_555 1_555
O3A Co2 1_555 1_555
O3A_2 Co1 1_555 1_555
O3_2 Co1A 1_555 1_555
O4A Co1A 1_555 1_555
O5A Co1_2 1_555 1_555
O5A_2 Co1 1_555 1_555
O5_2 Co1A 1_555 1_555
O6A Co2 1_555 1_555
O7A Co3_3 1_555 1_555
O7A_2 Co3 1_555 1_555
O7_2 Co3A 1_555 1_555
O8A C16A 1_555 1_555
O8A_2 Co3 1_555 1_555
O8_2 Co3A 1_555 1_555
O9A Co3A 1_555 1_555
O10A Co3_2 1_555 1_555
O10A_2 Co3 1_555 1_555
O10_2 Co3A 1_555 1_555
O11A N4A 1_555 1_555
O12A N4A 1_555 1_555
O13A N5A 1_555 1_555
O14A N5A 1_555 1_555
N1A Co1_2 1_555 1_555
N1A_2 Co1 1_555 1_555
N1_2 Co1A 1_555 1_555
N2A Co2 1_555 1_555
N3A C17A 1_555 1_555
N3A_2 Co3 1_555 1_555
N3_2 Co3A 1_555 1_555
N4A C6A 1_555 1_555
N5A C14A 1_555 1_555
C1A O6A 1_555 1_555
C2A C1A 1_555 1_555
C3A C2A 1_555 1_555
H1A C3A 1_555 1_555
C4A C3A 1_555 1_555
C5A C4A 1_555 1_555
H2A C5A 1_555 1_555
C6A C5A 1_555 1_555
C7A C2A 1_555 1_555
H3A C7A 1_555 1_555
C8A O7A 1_555 1_555
C9A O3A 1_555 1_555
C10A C9A 1_555 1_555
C11A C10A 1_555 1_555
H4A C11A 1_555 1_555
C12A C11A 1_555 1_555
C13A C12A 1_555 1_555
H5A C13A 1_555 1_555
C14A C13A 1_555 1_555
C15A C10A 1_555 1_555
H6A C15A 1_555 1_555
C16A O10A 1_555 1_555
C17A N2A 1_555 1_555
H7A C17A 1_555 1_555
C18A N1A 1_555 1_555
H8A C18A 1_555 1_555
O3 Co1A_2 1_555 1_555
O5 Co1A_2 1_555 1_555
O10 Co3A_3 1_555 1_555
N1 Co1A_2 1_555 1_555
N3 C18 1_555 1_555
C6 C7 1_555 1_555
C14 C15 1_555 1_555
Co1_2 O3A 1_555 1_555
Co3A_2 O5A_2 1_555 1_555
O5A C9A 1_555 1_555
N1A N2A 1_555 1_555
N3A C18A 1_555 1_555
C4A C8A 1_555 1_555
C6A C7A 1_555 1_555
C12A C16A 1_555 1_555
C14A C15A 1_555 1_555

#END
