
#######################################################################
#
#                 Cambridge Crystallographic Data Centre
#                                CCDC 
#
#######################################################################
#
# If this CIF has been generated from an entry in the Cambridge 
# Structural Database, then it will include bibliographic, chemical, 
# crystal, experimental, refinement or atomic coordinate data resulting 
# from the CCDC's data processing and validation procedures.
#
#######################################################################

data_CAXQID
_symmetry_cell_setting           triclinic
_symmetry_space_group_name_H-M   'P -1'
_symmetry_Int_Tables_number      2
_space_group_name_Hall           '-P 1'
loop_
_symmetry_equiv_pos_site_id
_symmetry_equiv_pos_as_xyz
1 x,y,z
2 -x,-y,-z
_cell_length_a                   10.5853(5)
_cell_length_b                   12.8836(5)
_cell_length_c                   14.6733(6)
_cell_angle_alpha                108.865(4)
_cell_angle_beta                 107.898(4)
_cell_angle_gamma                99.825(4)
_cell_volume                     1719.05
loop_
_atom_site_label
_atom_site_type_symbol
_atom_site_fract_x
_atom_site_fract_y
_atom_site_fract_z
Co1 Co 0.90634(5) 0.01938(4) 0.72152(3)
N1 N 0.9899(3) 0.1196(2) 0.6555(2)
N2 N 1.1020(3) 0.3469(2) 0.5246(2)
H1 H 1.0736 0.3182 0.4576
N3 N 1.0465(3) 0.3682(2) 0.1794(2)
H2 H 1.0365 0.3338 0.2192
N4 N 0.9585(3) 0.1460(2) -0.1275(2)
N5 N 0.5061(4) 0.0753(3) 0.6810(3)
O1 O 1.2204(3) 0.5113(2) 0.6701(2)
O2 O 1.0935(4) 0.5422(2) 0.1739(2)
O3 O 1.0845(2) -0.0221(2) 0.77154(18)
O4 O 1.0442(2) -0.21192(19) 0.71781(18)
O5 O 0.7878(3) -0.1149(2) 0.7488(2)
O6 O 0.7801(2) -0.1358(2) 0.59250(18)
O7 O 0.7181(3) 0.0794(2) 0.67486(19)
C1 C 1.0960(4) 0.2162(3) 0.7127(3)
H3 H 1.1435 0.2317 0.7828
C2 C 1.1396(4) 0.2939(3) 0.6752(3)
H4 H 1.2125 0.3610 0.7195
C3 C 1.0736(4) 0.2713(3) 0.5703(3)
C4 C 0.9708(4) 0.1666(3) 0.5080(3)
H5 H 0.9289 0.1447 0.4361
C5 C 0.9318(4) 0.0961(3) 0.5533(3)
H6 H 0.8606 0.0276 0.5106
C6 C 1.1705(4) 0.4621(3) 0.5752(3)
C7 C 1.1818(3) 0.5268(3) 0.5078(3)
C8 C 1.1231(4) 0.4762(3) 0.3998(3)
H7 H 1.0697 0.3994 0.3659
C9 C 1.1425(4) 0.5381(3) 0.3412(3)
C10 C 1.2181(4) 0.6529(3) 0.3914(3)
H8 H 1.2293 0.6960 0.3528
C11 C 1.2773(4) 0.7036(3) 0.4994(3)
H9 H 1.3301 0.7806 0.5332
C12 C 1.2589(4) 0.6416(3) 0.5573(3)
H10 H 1.2984 0.6769 0.6299
C13 C 1.0011(4) 0.1171(3) -0.0457(3)
H11 H 1.0117 0.0443 -0.0581
C14 C 1.0297(4) 0.1888(3) 0.0548(3)
H12 H 1.0582 0.1642 0.1087
C15 C 1.0162(4) 0.2977(3) 0.0757(3)
C16 C 0.9738(4) 0.3291(3) -0.0077(3)
H13 H 0.9635 0.4018 0.0027
C17 C 0.9469(4) 0.2514(3) -0.1063(3)
H14 H 0.9190 0.2741 -0.1615
C18 C 1.0898(4) 0.4846(3) 0.2244(3)
C19 C 0.7454(4) -0.1746(3) 0.6536(3)
C20 C 0.6525(4) -0.2957(3) 0.6104(3)
C21 C 0.5973(4) -0.3599(3) 0.5058(3)
H15 H 0.6149 -0.3280 0.4608
C22 C 0.5109(4) -0.4783(3) 0.4636(3)
C23 C 0.4559(4) -0.5454(3) 0.3578(3)
H16 H 0.4731 -0.5151 0.3117
C24 C 0.6246(4) -0.3426(3) 0.6792(3)
H17 H 0.6610 -0.2973 0.7505
C25 C 1.1172(4) -0.1113(3) 0.7751(3)
C26 C 1.2590(3) -0.0885(3) 0.8554(3)
C27 C 1.3335(4) 0.0203(3) 0.9283(3)
H18 H 1.2938 0.0795 0.9295
C28 C 1.4702(4) 0.0456(3) 1.0024(3)
C29 C 1.5498(4) 0.1575(3) 1.0780(3)
H19 H 1.5113 0.2177 1.0811
C30 C 1.3187(4) -0.1791(3) 0.8538(3)
H20 H 1.2677 -0.2538 0.8058
C31 C 0.4055(5) 0.0452(5) 0.7231(4)
H21 H 0.4432 0.0130 0.7720
H22 H 0.3221 -0.0102 0.6672
H23 H 0.3841 0.1129 0.7579
C32 C 0.4691(5) 0.1247(5) 0.6058(4)
H24 H 0.5448 0.1403 0.5843
H25 H 0.4499 0.1951 0.6364
H26 H 0.3879 0.0718 0.5461
C33 C 0.6274(5) 0.0574(3) 0.7084(3)
H27 H 0.6474 0.0253 0.7575
Co1_2 Co 0.90634(5) 0.01938(4) 1.72152(3)
Co1_3 Co 0.90634(5) 0.01938(4) -0.27848(3)
Co1A Co 2.09366(5) -0.01938(4) 1.27848(3)
Co1A_2 Co 0.09366(5) -1.01938(4) 0.27848(3)
N1_2 N 0.9899(3) 0.1196(2) 1.6555(2)
N2_2 N 1.1020(3) 0.3469(2) 1.5246(2)
H1_2 H 1.0736 0.3182 1.4576
N3_2 N 1.0465(3) 0.3682(2) 1.1794(2)
H2_2 H 1.0365 0.3338 1.2192
N4_2 N 0.9585(3) 0.1460(2) 0.8725(2)
N4_3 N 0.9585(3) 0.1460(2) 1.8725(2)
N5_2 N 0.5061(4) 0.0753(3) 1.6810(3)
O1_2 O 1.2204(3) 0.5113(2) 1.6701(2)
O2_2 O 1.0935(4) 0.5422(2) 1.1739(2)
O3A O 1.9155(2) 0.0221(2) 1.22846(18)
O3_2 O 1.0845(2) -0.0221(2) 1.77154(18)
O4A O 1.9558(2) 0.21192(19) 1.28219(18)
O5A O 0.2122(3) -0.8851(2) 0.2512(2)
O5_2 O 0.7878(3) -0.1149(2) 1.7488(2)
O6A O 0.2199(2) -0.8642(2) 0.40750(18)
O6_2 O 0.7801(2) -0.1358(2) 1.59250(18)
O7_2 O 0.7181(3) 0.0794(2) 1.67486(19)
C1_2 C 1.0960(4) 0.2162(3) 1.7127(3)
H3_2 H 1.1435 0.2317 1.7828
C2_2 C 1.1396(4) 0.2939(3) 1.6752(3)
H4_2 H 1.2125 0.3610 1.7195
C3_2 C 1.0736(4) 0.2713(3) 1.5703(3)
C4_2 C 0.9708(4) 0.1666(3) 1.5080(3)
H5_2 H 0.9289 0.1447 1.4361
C5_2 C 0.9318(4) 0.0961(3) 1.5533(3)
H6_2 H 0.8606 0.0276 1.5106
C6_2 C 1.1705(4) 0.4621(3) 1.5752(3)
C7_2 C 1.1818(3) 0.5268(3) 1.5078(3)
C8_2 C 1.1231(4) 0.4762(3) 1.3998(3)
H7_2 H 1.0697 0.3994 1.3659
C9_2 C 1.1425(4) 0.5381(3) 1.3412(3)
C10_2 C 1.2181(4) 0.6529(3) 1.3914(3)
H8_2 H 1.2293 0.6960 1.3528
C11_2 C 1.2773(4) 0.7036(3) 1.4994(3)
H9_2 H 1.3301 0.7806 1.5332
C12_2 C 1.2589(4) 0.6416(3) 1.5573(3)
H10_2 H 1.2984 0.6769 1.6299
C13_2 C 1.0011(4) 0.1171(3) 0.9543(3)
H11_2 H 1.0117 0.0443 0.9419
C14_2 C 1.0297(4) 0.1888(3) 1.0548(3)
H12_2 H 1.0582 0.1642 1.1087
C15_2 C 1.0162(4) 0.2977(3) 1.0757(3)
C16_2 C 0.9738(4) 0.3291(3) 0.9923(3)
H13_2 H 0.9635 0.4018 1.0027
C17_2 C 0.9469(4) 0.2514(3) 0.8937(3)
H14_2 H 0.9190 0.2741 0.8385
C18_2 C 1.0898(4) 0.4846(3) 1.2244(3)
C19A C 0.2546(4) -0.8254(3) 0.3464(3)
C20A C 0.3475(4) -0.7043(3) 0.3896(3)
C21A C 0.4027(4) -0.6401(3) 0.4942(3)
H15A H 0.3851 -0.6720 0.5392
C22A C 0.4891(4) -0.5217(3) 0.5364(3)
C23A C 0.5441(4) -0.4546(3) 0.6422(3)
H16A H 0.5269 -0.4849 0.6883
C24A C 0.3754(4) -0.6574(3) 0.3208(3)
H17A H 0.3390 -0.7027 0.2495
C25A C 1.8828(4) 0.1113(3) 1.2249(3)
C26A C 1.7410(3) 0.0885(3) 1.1446(3)
C27A C 1.6665(4) -0.0203(3) 1.0717(3)
H18A H 1.7062 -0.0795 1.0705
C28A C 1.5298(4) -0.0456(3) 0.9976(3)
C29A C 1.4502(4) -0.1575(3) 0.9220(3)
H19A H 1.4887 -0.2177 0.9189
C30A C 1.6813(4) 0.1791(3) 1.1462(3)
H20A H 1.7323 0.2538 1.1942
C31_2 C 0.4055(5) 0.0452(5) 1.7231(4)
H21_2 H 0.4432 0.0130 1.7720
H22_2 H 0.3221 -0.0102 1.6672
H23_2 H 0.3841 0.1129 1.7579
C32_2 C 0.4691(5) 0.1247(5) 1.6058(4)
H24_2 H 0.5448 0.1403 1.5843
H25_2 H 0.4499 0.1951 1.6364
H26_2 H 0.3879 0.0718 1.5461
C33_2 C 0.6274(5) 0.0574(3) 1.7084(3)
H27_2 H 0.6474 0.0253 1.7575
N6 N 1.3508(7) 0.5273(6) 1.0389(6)
O8 O 1.3287(9) 0.3364(8) 0.9648(7)
C34 C 1.2917(10) 0.5389(8) 0.9422(8)
H28 H 1.2577 0.4648 0.8853
H29 H 1.3616 0.5890 0.9339
H30 H 1.2162 0.5709 0.9426
C35 C 1.4087(11) 0.6269(9) 1.1415(8)
H31 H 1.4050 0.6961 1.1306
H32 H 1.5035 0.6328 1.1786
H33 H 1.3549 0.6162 1.1816
C36 C 1.3524(11) 0.4273(11) 1.0524(10)
H34 H 1.3685 0.4225 1.1167
loop_
_geom_bond_atom_site_label_1
_geom_bond_atom_site_label_2
_geom_bond_site_symmetry_1
_geom_bond_site_symmetry_2
Co1 N1 1_555 1_555
N1 C1 1_555 1_555
N2 H1 1_555 1_555
N3 H2 1_555 1_555
N4 C13 1_555 1_555
N5 C31 1_555 1_555
N6 C34 1_555 1_555
O1 C6 1_555 1_555
O2 C18 1_555 1_555
O3 Co1 1_555 1_555
O4 C25 1_555 1_555
O5 Co1 1_555 1_555
O6 Co1 1_555 1_555
O7 Co1 1_555 1_555
O8 C36 1_555 1_555
C1 H3 1_555 1_555
C2 C1 1_555 1_555
H4 C2 1_555 1_555
C3 N2 1_555 1_555
C4 C3 1_555 1_555
H5 C4 1_555 1_555
C5 N1 1_555 1_555
H6 C5 1_555 1_555
C6 N2 1_555 1_555
C7 C6 1_555 1_555
C8 C7 1_555 1_555
H7 C8 1_555 1_555
C9 C8 1_555 1_555
C10 C9 1_555 1_555
H8 C10 1_555 1_555
C11 C10 1_555 1_555
H9 C11 1_555 1_555
C12 C7 1_555 1_555
H10 C12 1_555 1_555
C13 H11 1_555 1_555
C14 C13 1_555 1_555
H12 C14 1_555 1_555
C15 N3 1_555 1_555
C16 C15 1_555 1_555
H13 C16 1_555 1_555
C17 N4 1_555 1_555
H14 C17 1_555 1_555
C18 N3 1_555 1_555
C19 O5 1_555 1_555
C20 C19 1_555 1_555
C21 C20 1_555 1_555
H15 C21 1_555 1_555
C22 C21 1_555 1_555
C23 C22 1_555 1_555
H16 C23 1_555 1_555
C24 C20 1_555 1_555
H17 C24 1_555 1_555
C25 O3 1_555 1_555
C26 C25 1_555 1_555
C27 C26 1_555 1_555
H18 C27 1_555 1_555
C28 C27 1_555 1_555
C29 C28 1_555 1_555
H19 C29 1_555 1_555
C30 C26 1_555 1_555
H20 C30 1_555 1_555
C31 H21 1_555 1_555
H22 C31 1_555 1_555
H23 C31 1_555 1_555
C32 N5 1_555 1_555
H24 C32 1_555 1_555
H25 C32 1_555 1_555
H26 C32 1_555 1_555
C33 N5 1_555 1_555
H27 C33 1_555 1_555
C34 H28 1_555 1_555
H29 C34 1_555 1_555
H30 C34 1_555 1_555
C35 N6 1_555 1_555
H31 C35 1_555 1_555
H32 C35 1_555 1_555
H33 C35 1_555 1_555
C36 N6 1_555 1_555
H34 C36 1_555 1_555
Co1_2 N1_2 1_555 1_555
Co1_3 N4 1_555 1_555
Co1A O3A 1_555 1_555
Co1A_2 O5A 1_555 1_555
N1_2 C1_2 1_555 1_555
N2_2 H1_2 1_555 1_555
N3_2 H2_2 1_555 1_555
N4_2 Co1 1_555 1_555
N4_3 Co1_2 1_555 1_555
N5_2 C31_2 1_555 1_555
O1_2 C6_2 1_555 1_555
O2_2 C18_2 1_555 1_555
O3A C25A 1_555 1_555
O3_2 Co1_2 1_555 1_555
O4A C25A 1_555 1_555
O5A C19A 1_555 1_555
O5_2 Co1_2 1_555 1_555
O6A Co1A_2 1_555 1_555
O6_2 Co1_2 1_555 1_555
O7_2 Co1_2 1_555 1_555
C1_2 H3_2 1_555 1_555
C2_2 C1_2 1_555 1_555
H4_2 C2_2 1_555 1_555
C3_2 N2_2 1_555 1_555
C4_2 C3_2 1_555 1_555
H5_2 C4_2 1_555 1_555
C5_2 N1_2 1_555 1_555
H6_2 C5_2 1_555 1_555
C6_2 N2_2 1_555 1_555
C7_2 C6_2 1_555 1_555
C8_2 C7_2 1_555 1_555
H7_2 C8_2 1_555 1_555
C9_2 C8_2 1_555 1_555
C10_2 C9_2 1_555 1_555
H8_2 C10_2 1_555 1_555
C11_2 C10_2 1_555 1_555
H9_2 C11_2 1_555 1_555
C12_2 C7_2 1_555 1_555
H10_2 C12_2 1_555 1_555
C13_2 N4_2 1_555 1_555
H11_2 C13_2 1_555 1_555
C14_2 C13_2 1_555 1_555
H12_2 C14_2 1_555 1_555
C15_2 N3_2 1_555 1_555
C16_2 C15_2 1_555 1_555
H13_2 C16_2 1_555 1_555
C17_2 N4_2 1_555 1_555
H14_2 C17_2 1_555 1_555
C18_2 N3_2 1_555 1_555
C19A O6A 1_555 1_555
C20A C19A 1_555 1_555
C21A C20A 1_555 1_555
H15A C21A 1_555 1_555
C22A C22 1_555 1_555
C23A C24 1_555 1_555
H16A C23A 1_555 1_555
C24A C23 1_555 1_555
H17A C24A 1_555 1_555
C25A C26A 1_555 1_555
C26A C27A 1_555 1_555
C27A H18A 1_555 1_555
C28A C28 1_555 1_555
C29A C30 1_555 1_555
H19A C29A 1_555 1_555
C30A C29 1_555 1_555
H20A C30A 1_555 1_555
C31_2 H21_2 1_555 1_555
H22_2 C31_2 1_555 1_555
H23_2 C31_2 1_555 1_555
C32_2 N5_2 1_555 1_555
H24_2 C32_2 1_555 1_555
H25_2 C32_2 1_555 1_555
H26_2 C32_2 1_555 1_555
C33_2 N5_2 1_555 1_555
H27_2 C33_2 1_555 1_555
O6 C19 1_555 1_555
O7 C33 1_555 1_555
C2 C3 1_555 1_555
C4 C5 1_555 1_555
C9 C18 1_555 1_555
C11 C12 1_555 1_555
C14 C15 1_555 1_555
C16 C17 1_555 1_555
O7_2 C33_2 1_555 1_555
C2_2 C3_2 1_555 1_555
C4_2 C5_2 1_555 1_555
C9_2 C18_2 1_555 1_555
C11_2 C12_2 1_555 1_555
C14_2 C15_2 1_555 1_555
C16_2 C17_2 1_555 1_555
C20A C24A 1_555 1_555
C21A C22A 1_555 1_555
C22A C23A 1_555 1_555
C26A C30A 1_555 1_555
C27A C28A 1_555 1_555
C28A C29A 1_555 1_555

#END
