
#######################################################################
#
#                 Cambridge Crystallographic Data Centre
#                                CCDC 
#
#######################################################################
#
# If this CIF has been generated from an entry in the Cambridge 
# Structural Database, then it will include bibliographic, chemical, 
# crystal, experimental, refinement or atomic coordinate data resulting 
# from the CCDC's data processing and validation procedures.
#
#######################################################################

data_CAXRAW
_symmetry_cell_setting           monoclinic
_symmetry_space_group_name_H-M   'P 21/a'
_symmetry_Int_Tables_number      14
_space_group_name_Hall           '-P 2yab'
loop_
_symmetry_equiv_pos_site_id
_symmetry_equiv_pos_as_xyz
1 x,y,z
2 1/2-x,1/2+y,-z
3 -x,-y,-z
4 1/2+x,1/2-y,z
_cell_length_a                   14.5630(4)
_cell_length_b                   11.4730(3)
_cell_length_c                   16.3770(6)
_cell_angle_alpha                90
_cell_angle_beta                 100.289(1)
_cell_angle_gamma                90
_cell_volume                     2692.29
loop_
_atom_site_label
_atom_site_type_symbol
_atom_site_fract_x
_atom_site_fract_y
_atom_site_fract_z
Cu1 Cu 0.26412(3) -0.00035(3) 0.16657(3)
O1 O 0.24446(16) -0.02178(19) 0.04650(15)
O2 O 0.37254(16) 0.1018(2) 0.16677(15)
O3 O 0.28600(17) 0.01748(19) 0.28717(16)
O4 O 0.15472(16) -0.1009(2) 0.16496(15)
N1 N 0.1919(2) -0.0501(3) -0.2604(2)
N2 N 0.6500(2) 0.3454(3) 0.1479(2)
N3 N 0.3718(3) -0.0123(3) 0.5957(2)
N4 N -0.1203(2) -0.3468(3) 0.1880(2)
C1 C 0.2973(3) 0.0165(3) -0.0018(2)
C2 C 0.2645(3) -0.0075(3) -0.0921(2)
C3 C 0.2013(3) -0.0973(3) -0.1168(2)
H1 H 0.1817 -0.1464 -0.0765
C4 C 0.1680(3) -0.1146(3) -0.1985(3)
H2 H 0.1248 -0.1764 -0.2133
C5 C 0.2523(3) 0.0346(4) -0.2364(3)
H3 H 0.2711 0.0815 -0.2783
C6 C 0.2901(3) 0.0601(4) -0.1551(2)
H4 H 0.3330 0.1227 -0.1422
C7 C 0.3791(3) 0.0809(3) 0.0228(2)
H5 H 0.4160 0.0984 -0.0179
C8 C 0.4101(2) 0.1212(3) 0.1038(2)
C9 C 0.4954(2) 0.1975(3) 0.1193(2)
C10 C 0.5112(3) 0.2788(3) 0.0598(2)
H6 H 0.4700 0.2844 0.0080
C11 C 0.5888(3) 0.3513(3) 0.0783(3)
H7 H 0.5981 0.4083 0.0384
C12 C 0.6344(2) 0.2673(3) 0.2047(2)
H8 H 0.6776 0.2628 0.2555
C13 C 0.5582(2) 0.1931(3) 0.1932(2)
H9 H 0.5493 0.1398 0.2354
C14 C 0.2451(2) -0.0410(3) 0.3368(2)
C15 C 0.2865(3) -0.0307(3) 0.4271(2)
C16 C 0.3607(3) 0.0437(4) 0.4523(3)
H10 H 0.3840 0.0903 0.4126
C17 C 0.40096(17) 0.0504(2) 0.53518(16)
H11 H 0.4521 0.1020 0.5506
C20 C 0.3015(3) -0.0841(4) 0.5711(3)
H18 H 0.2797 -0.1298 0.6121
C21 C 0.2571(3) -0.0972(4) 0.4892(3)
H19 H 0.2071 -0.1509 0.4755
C22 C 0.1678(3) -0.1116(3) 0.3124(2)
H20 H 0.1408 -0.1472 0.3548
C23 C 0.1264(2) -0.1344(3) 0.2298(2)
C24 C 0.0397(2) -0.2077(3) 0.2157(2)
C25 C 0.0308(2) -0.3027(3) 0.2665(2)
H21 H 0.0790 -0.3216 0.3116
C26 C -0.0499(2) -0.3694(3) 0.2500(2)
H22 H -0.0553 -0.4346 0.2846
C27 C -0.1112(2) -0.2562(3) 0.1394(2)
H23 H -0.1606 -0.2399 0.0946
C28 C -0.0338(2) -0.1843(3) 0.1505(2)
H24 H -0.0307 -0.1202 0.1144
Cu1C Cu 0.76412(3) 0.50035(3) 0.16657(3)
Cu1C_2 Cu -0.23588(3) -0.49965(3) 0.16657(3)
N2C N 0.1500(2) 0.1546(3) 0.1479(2)
N4C N 0.3797(2) -0.1532(3) 0.1880(2)
S1 S -0.03763(10) -0.20628(12) 0.50274(10)
O5 O 0.04468(17) -0.1685(2) 0.47410(16)
C18 C -0.04671(17) -0.1216(2) 0.59249(16)
H12 H 0.0081 -0.1357 0.6356
H13 H -0.1033 -0.1440 0.6133
H14 H -0.0499 -0.0387 0.5778
C19 C -0.13452(17) -0.1479(2) 0.43309(16)
H15 H -0.1281 -0.0631 0.4302
H16 H -0.1923 -0.1670 0.4529
H17 H -0.1365 -0.1815 0.3778
loop_
_geom_bond_atom_site_label_1
_geom_bond_atom_site_label_2
_geom_bond_site_symmetry_1
_geom_bond_site_symmetry_2
Cu1 O1 1_555 1_555
S1 O5 1_555 1_555
O1 C1 1_555 1_555
O2 Cu1 1_555 1_555
O3 Cu1 1_555 1_555
O4 Cu1 1_555 1_555
N1 C4 1_555 1_555
N2 C11 1_555 1_555
N3 C17 1_555 1_555
N4 C26 1_555 1_555
C1 C2 1_555 1_555
C2 C3 1_555 1_555
C3 H1 1_555 1_555
C4 C3 1_555 1_555
H2 C4 1_555 1_555
C5 N1 1_555 1_555
H3 C5 1_555 1_555
C6 C2 1_555 1_555
H4 C6 1_555 1_555
C7 C1 1_555 1_555
H5 C7 1_555 1_555
C8 O2 1_555 1_555
C9 C8 1_555 1_555
C10 C9 1_555 1_555
H6 C10 1_555 1_555
C11 C10 1_555 1_555
H7 C11 1_555 1_555
C12 N2 1_555 1_555
H8 C12 1_555 1_555
C13 C9 1_555 1_555
H9 C13 1_555 1_555
C14 O3 1_555 1_555
C15 C14 1_555 1_555
C16 C15 1_555 1_555
H10 C16 1_555 1_555
C17 C16 1_555 1_555
H11 C17 1_555 1_555
C18 S1 1_555 1_555
H12 C18 1_555 1_555
H13 C18 1_555 1_555
H14 C18 1_555 1_555
C19 S1 1_555 1_555
H15 C19 1_555 1_555
H16 C19 1_555 1_555
H17 C19 1_555 1_555
C20 N3 1_555 1_555
H18 C20 1_555 1_555
C21 C15 1_555 1_555
H19 C21 1_555 1_555
C22 C14 1_555 1_555
H20 C22 1_555 1_555
C23 O4 1_555 1_555
C24 C23 1_555 1_555
C25 C24 1_555 1_555
H21 C25 1_555 1_555
C26 C25 1_555 1_555
H22 C26 1_555 1_555
C27 N4 1_555 1_555
H23 C27 1_555 1_555
C28 C24 1_555 1_555
H24 C28 1_555 1_555
Cu1C N2 1_555 1_555
Cu1C_2 N4 1_555 1_555
N2C Cu1 1_555 1_555
N4C Cu1 1_555 1_555
C5 C6 1_555 1_555
C7 C8 1_555 1_555
C12 C13 1_555 1_555
C20 C21 1_555 1_555
C22 C23 1_555 1_555
C27 C28 1_555 1_555

#END
