
#######################################################################
#
#                 Cambridge Crystallographic Data Centre
#                                CCDC 
#
#######################################################################
#
# If this CIF has been generated from an entry in the Cambridge 
# Structural Database, then it will include bibliographic, chemical, 
# crystal, experimental, refinement or atomic coordinate data resulting 
# from the CCDC's data processing and validation procedures.
#
#######################################################################

data_CAXREA
_symmetry_cell_setting           monoclinic
_symmetry_space_group_name_H-M   'P 21/n'
_symmetry_Int_Tables_number      14
_space_group_name_Hall           '-P 2yn'
loop_
_symmetry_equiv_pos_site_id
_symmetry_equiv_pos_as_xyz
1 x,y,z
2 1/2-x,1/2+y,1/2-z
3 -x,-y,-z
4 1/2+x,1/2-y,1/2+z
_cell_length_a                   9.0820(16)
_cell_length_b                   9.9551(17)
_cell_length_c                   13.093(2)
_cell_angle_alpha                90
_cell_angle_beta                 109.136(3)
_cell_angle_gamma                90
_cell_volume                     1118.36
loop_
_atom_site_label
_atom_site_type_symbol
_atom_site_fract_x
_atom_site_fract_y
_atom_site_fract_z
Zn1 Zn 0.0000 0.0000 0.0000
O1 O 0.0938(3) 0.1541(2) -0.06391(17)
O2 O 0.0286(3) 0.1159(2) 0.13643(17)
N1 N 0.1409(4) 0.4210(3) -0.2834(2)
N2 N 0.2743(3) 0.4111(3) 0.4185(2)
C1 C 0.1665(4) 0.3688(3) -0.0984(3)
C2 C 0.1055(4) 0.3454(3) -0.2094(3)
C3 C 0.2388(5) 0.5238(3) -0.2471(3)
H1 H 0.2665 0.5753 -0.2972
C4 C 0.3007(5) 0.5574(4) -0.1394(3)
H2 H 0.3656 0.6317 -0.1180
C5 C 0.2650(5) 0.4788(3) -0.0633(3)
H3 H 0.3061 0.4991 0.0099
C6 C 0.1274(4) 0.2697(3) -0.0245(2)
C7 C 0.1312(4) 0.3108(3) 0.0784(2)
H4 H 0.1641 0.3981 0.0989
C8 C 0.0895(4) 0.2313(3) 0.1538(2)
C9 C 0.1164(4) 0.2861(3) 0.2648(2)
C10 C 0.2432(4) 0.3685(3) 0.3157(2)
C11 C 0.1773(4) 0.3774(4) 0.4708(3)
H5 H 0.1977 0.4087 0.5410
C12 C 0.0469(4) 0.2978(4) 0.4260(3)
H6 H -0.0205 0.2781 0.4642
C13 C 0.0198(4) 0.2487(4) 0.3233(3)
H7 H -0.0631 0.1904 0.2930
Zn1A Zn 0.5000 0.5000 0.5000
Zn1A_2 Zn -0.5000 -0.5000 -0.5000
O1B O -0.0938(3) -0.1541(2) 0.06391(17)
O2B O -0.0286(3) -0.1159(2) -0.13643(17)
N1B N -0.1409(4) -0.4210(3) 0.2834(2)
N2A N 0.2257(3) -0.0889(3) 0.0815(2)
N2B N -0.2743(3) -0.4111(3) -0.4185(2)
N2C N -0.2257(3) 0.0889(3) -0.0815(2)
C1B C -0.1665(4) -0.3688(3) 0.0984(3)
C2B C -0.1055(4) -0.3454(3) 0.2094(3)
C3B C -0.2388(5) -0.5238(3) 0.2471(3)
H1B H -0.2665 -0.5753 0.2972
C4B C -0.3007(5) -0.5574(4) 0.1394(3)
H2B H -0.3656 -0.6317 0.1180
C5B C -0.2650(5) -0.4788(3) 0.0633(3)
H3B H -0.3061 -0.4991 -0.0099
C6B C -0.1274(4) -0.2697(3) 0.0245(2)
C7B C -0.1312(4) -0.3108(3) -0.0784(2)
H4B H -0.1641 -0.3981 -0.0989
C8B C -0.0895(4) -0.2313(3) -0.1538(2)
C9B C -0.1164(4) -0.2861(3) -0.2648(2)
C10B C -0.2432(4) -0.3685(3) -0.3157(2)
C11B C -0.1773(4) -0.3774(4) -0.4708(3)
H5B H -0.1977 -0.4087 -0.5410
C12B C -0.0469(4) -0.2978(4) -0.4260(3)
H6B H 0.0205 -0.2781 -0.4642
C13B C -0.0198(4) -0.2487(4) -0.3233(3)
H7B H 0.0631 -0.1904 -0.2930
loop_
_geom_bond_atom_site_label_1
_geom_bond_atom_site_label_2
_geom_bond_site_symmetry_1
_geom_bond_site_symmetry_2
Zn1 O1 1_555 1_555
O1 C6 1_555 1_555
O2 Zn1 1_555 1_555
N1 C2 1_555 1_555
N2 C10 1_555 1_555
C1 C2 1_555 1_555
C3 N1 1_555 1_555
H1 C3 1_555 1_555
C4 C3 1_555 1_555
H2 C4 1_555 1_555
C5 C1 1_555 1_555
H3 C5 1_555 1_555
C6 C1 1_555 1_555
C7 C6 1_555 1_555
H4 C7 1_555 1_555
C8 O2 1_555 1_555
C9 C8 1_555 1_555
C10 C9 1_555 1_555
C11 N2 1_555 1_555
H5 C11 1_555 1_555
C12 C11 1_555 1_555
H6 C12 1_555 1_555
C13 C9 1_555 1_555
H7 C13 1_555 1_555
Zn1A N2 1_555 1_555
Zn1A_2 N2B 1_555 1_555
O1B Zn1 1_555 1_555
O2B Zn1 1_555 1_555
N1B C2B 1_555 1_555
N2A Zn1 1_555 1_555
N2B C10B 1_555 1_555
N2C Zn1 1_555 1_555
C1B C2B 1_555 1_555
C3B N1B 1_555 1_555
H1B C3B 1_555 1_555
C4B C3B 1_555 1_555
H2B C4B 1_555 1_555
C5B C1B 1_555 1_555
H3B C5B 1_555 1_555
C6B O1B 1_555 1_555
C7B C6B 1_555 1_555
H4B C7B 1_555 1_555
C8B O2B 1_555 1_555
C9B C8B 1_555 1_555
C10B C9B 1_555 1_555
C11B N2B 1_555 1_555
H5B C11B 1_555 1_555
C12B C11B 1_555 1_555
H6B C12B 1_555 1_555
C13B C9B 1_555 1_555
H7B C13B 1_555 1_555
C4 C5 1_555 1_555
C7 C8 1_555 1_555
C12 C13 1_555 1_555
C1B C6B 1_555 1_555
C4B C5B 1_555 1_555
C7B C8B 1_555 1_555
C12B C13B 1_555 1_555

#END
