
#######################################################################
#
#                 Cambridge Crystallographic Data Centre
#                                CCDC 
#
#######################################################################
#
# If this CIF has been generated from an entry in the Cambridge 
# Structural Database, then it will include bibliographic, chemical, 
# crystal, experimental, refinement or atomic coordinate data resulting 
# from the CCDC's data processing and validation procedures.
#
#######################################################################

data_CAXSOL
_symmetry_cell_setting           triclinic
_symmetry_space_group_name_H-M   'P -1'
_symmetry_Int_Tables_number      2
_space_group_name_Hall           '-P 1'
loop_
_symmetry_equiv_pos_site_id
_symmetry_equiv_pos_as_xyz
1 x,y,z
2 -x,-y,-z
_cell_length_a                   11.789(2)
_cell_length_b                   13.259(3)
_cell_length_c                   16.790(3)
_cell_angle_alpha                102.365(2)
_cell_angle_beta                 91.136(2)
_cell_angle_gamma                104.490(2)
_cell_volume                     2474.54
loop_
_atom_site_label
_atom_site_type_symbol
_atom_site_fract_x
_atom_site_fract_y
_atom_site_fract_z
Cl1 Cl 0.5793(5) 0.5833(5) -0.0392(4)
C46 C 0.5497(19) 0.482(3) 0.014(3)
H31 H 0.5835 0.4256 -0.0173
H32 H 0.5991 0.5116 0.0661
Cl1A Cl 0.4207(5) 0.4167(5) 0.0392(4)
C46A C 0.4503(19) 0.518(3) -0.014(3)
H31A H 0.4165 0.5744 0.0173
H32A H 0.4009 0.4884 -0.0661
F4 F 0.7527(6) 0.0946(4) -0.0180(4)
F5 F 0.9024(5) 0.2169(6) -0.0277(4)
F6 F 0.8377(5) 0.2043(4) 0.0908(3)
O9 O 0.7747(5) 0.3686(4) 0.0417(3)
O10 O 0.6420(5) 0.2358(5) -0.0438(4)
C42 C 0.7317(6) 0.2752(7) 0.0032(4)
C43 C 0.8029(8) 0.1967(7) 0.0124(6)
N7 N 1.0364(13) 0.2916(9) 0.7563(6)
C44 C 1.0871(12) 0.3194(9) 0.8158(8)
C45 C 1.1599(14) 0.3538(12) 0.8917(8)
H28 H 1.2255 0.3203 0.8866
H29 H 1.1130 0.3325 0.9358
H30 H 1.1905 0.4317 0.9043
N8 N 0.6449(7) 0.0996(5) 0.2424(4)
C47 C 0.5055(11) 0.0894(13) 0.1191(8)
H33 H 0.5530 0.1071 0.0743
H34 H 0.4554 0.1386 0.1324
H35 H 0.4562 0.0158 0.1023
C48 C 0.5838(8) 0.0994(8) 0.1918(6)
Ag1 Ag 0.05727(4) -0.34244(4) 0.69884(3)
Ag2 Ag -0.00065(4) -0.05712(4) 0.70928(3)
Fe1 Fe -0.49934(7) -0.27314(7) 0.41899(5)
F1 F -0.0979(7) -0.0891(5) 0.9029(4)
F2 F -0.1480(8) -0.2402(6) 0.9280(4)
F3 F -0.2687(6) -0.1699(8) 0.8840(4)
O1 O -0.3757(3) -0.3479(3) 0.4267(2)
O2 O -0.5732(3) -0.3464(3) 0.5055(2)
O3 O -0.4046(3) -0.1498(3) 0.5070(2)
O4 O -0.6235(3) -0.1925(3) 0.4297(2)
O5 O -0.6075(3) -0.3777(3) 0.3304(2)
O6 O -0.4137(3) -0.2124(3) 0.3326(2)
O7 O -0.0415(4) -0.2117(4) 0.7698(3)
O8 O -0.2330(5) -0.2980(5) 0.7480(3)
N1 N -0.0310(4) -0.3609(4) 0.5691(3)
N2 N -0.7568(4) -0.3595(4) 0.7051(3)
N3 N -0.1792(4) -0.0241(4) 0.7111(3)
N4 N -0.9311(4) -0.0992(4) 0.5814(3)
N5 N -0.9350(4) -0.5401(4) 0.2311(3)
N6 N -0.1635(4) -0.0512(4) 0.2126(3)
C1 C -0.3990(5) -0.3668(5) 0.5621(4)
H1 H -0.3603 -0.3730 0.6103
C2 C -0.3356(5) -0.3623(5) 0.4949(4)
C3 C -0.2111(5) -0.3717(4) 0.4948(4)
C4 C -0.1597(5) -0.3905(5) 0.4214(4)
H2 H -0.2030 -0.3987 0.3711
C5 C -0.0432(5) -0.3972(5) 0.4226(4)
H3 H -0.0063 -0.4123 0.3733
C6 C 0.0160(5) -0.3816(5) 0.4968(4)
H4 H 0.0954 -0.3854 0.4975
C7 C -0.1434(5) -0.3568(5) 0.5668(4)
H5 H -0.1783 -0.3430 0.6171
C8 C -0.5157(5) -0.3628(4) 0.5652(3)
C9 C -0.5806(5) -0.3736(5) 0.6390(4)
C10 C -0.6889(5) -0.3501(5) 0.6436(4)
H6 H -0.7164 -0.3256 0.5996
C11 C -0.7151(6) -0.3896(7) 0.7684(4)
H7 H -0.7609 -0.3956 0.8139
C12 C -0.6055(7) -0.4126(9) 0.7691(5)
H8 H -0.5784 -0.4346 0.8146
C13 C -0.5377(7) -0.4036(8) 0.7055(5)
H9 H -0.4625 -0.4175 0.7063
C14 C -0.5650(5) -0.0924(5) 0.5657(4)
H10 H -0.5905 -0.0549 0.6138
C15 C -0.4476(5) -0.0976(4) 0.5662(4)
C16 C -0.3673(5) -0.0417(5) 0.6398(4)
C17 C -0.2625(5) -0.0710(5) 0.6482(4)
H11 H -0.2488 -0.1274 0.6073
C18 C -0.2018(5) 0.0553(5) 0.7688(4)
H12 H -0.1452 0.0898 0.8137
C19 C -0.3037(6) 0.0883(5) 0.7652(4)
H13 H -0.3173 0.1434 0.8073
C20 C -0.3853(5) 0.0397(5) 0.6995(4)
H14 H -0.4547 0.0630 0.6956
C21 C -0.6468(5) -0.1400(5) 0.4976(4)
C22 C -0.7701(5) -0.1293(4) 0.5017(4)
C23 C -0.8190(5) -0.1067(5) 0.5753(4)
H15 H -0.7715 -0.0959 0.6244
C24 C -0.9966(5) -0.1157(4) 0.5111(4)
H16 H -1.0751 -0.1096 0.5141
C25 C -0.9562(5) -0.1406(5) 0.4356(4)
H17 H -1.0060 -0.1522 0.3876
C26 C -0.8405(5) -0.1487(5) 0.4300(4)
H18 H -0.8107 -0.1670 0.3782
C27 C -0.5437(5) -0.3005(5) 0.2182(4)
H19 H -0.5617 -0.3028 0.1623
C28 C -0.6253(5) -0.3684(5) 0.2581(4)
C29 C -0.7429(5) -0.4311(5) 0.2162(4)
C30 C -0.8263(5) -0.4847(5) 0.2618(4)
H20 H -0.8045 -0.4814 0.3172
C31 C -0.9648(6) -0.5435(6) 0.1520(4)
H21 H -1.0414 -0.5830 0.1289
C32 C -0.8888(5) -0.4922(6) 0.1045(4)
H22 H -0.9132 -0.4960 0.0494
C33 C -0.7769(5) -0.4348(5) 0.1359(4)
H23 H -0.7240 -0.3983 0.1031
C34 C -0.4408(5) -0.2325(5) 0.2561(4)
C35 C -0.3558(5) -0.1702(5) 0.2095(4)
C36 C -0.2471(5) -0.1121(5) 0.2473(4)
H24 H -0.2304 -0.1155 0.3021
C37 C -0.1854(6) -0.0470(6) 0.1348(4)
H25 H -0.1264 -0.0051 0.1089
C38 C -0.2938(5) -0.1030(6) 0.0905(4)
H26 H -0.3079 -0.0980 0.0357
C39 C -0.3797(5) -0.1656(5) 0.1275(4)
H27 H -0.4529 -0.2045 0.0985
C40 C -0.1463(6) -0.2374(6) 0.7884(4)
C41 C -0.1628(7) -0.1879(8) 0.8753(5)
Ag1_2 Ag -0.94273(4) -0.34244(4) 0.69884(3)
Ag1A Ag -1.05727(4) -0.65756(4) 0.30116(3)
Ag2_2 Ag -1.00065(4) -0.05712(4) 0.70928(3)
Ag2A Ag 0.00065(4) 0.05712(4) 0.29072(3)
N2_2 N 0.2432(4) -0.3595(4) 0.7051(3)
N4_2 N 0.0689(4) -0.0992(4) 0.5814(3)
N5A N -0.0650(4) -0.4599(4) 0.7689(3)
N6A N 0.1635(4) 0.0512(4) 0.7874(3)
loop_
_geom_bond_atom_site_label_1
_geom_bond_atom_site_label_2
_geom_bond_site_symmetry_1
_geom_bond_site_symmetry_2
Ag1 O7 1_555 1_555
Ag2 O7 1_555 1_555
Fe1 O1 1_555 1_555
Cl1 C46 1_555 1_555
F1 C41 1_555 1_555
F2 C41 1_555 1_555
F3 C41 1_555 1_555
F4 C43 1_555 1_555
F5 C43 1_555 1_555
F6 C43 1_555 1_555
O1 C2 1_555 1_555
O2 Fe1 1_555 1_555
O3 Fe1 1_555 1_555
O4 Fe1 1_555 1_555
O5 Fe1 1_555 1_555
O6 Fe1 1_555 1_555
O7 C40 1_555 1_555
O8 C40 1_555 1_555
O9 C42 1_555 1_555
O10 C42 1_555 1_555
N1 Ag1 1_555 1_555
N2 C10 1_555 1_555
N3 Ag2 1_555 1_555
N4 C23 1_555 1_555
N5 C30 1_555 1_555
N6 C36 1_555 1_555
N7 C44 1_555 1_555
N8 C48 1_555 1_555
C1 H1 1_555 1_555
C2 C1 1_555 1_555
C3 C2 1_555 1_555
C4 C3 1_555 1_555
H2 C4 1_555 1_555
C5 C4 1_555 1_555
H3 C5 1_555 1_555
C6 N1 1_555 1_555
H4 C6 1_555 1_555
C7 N1 1_555 1_555
H5 C7 1_555 1_555
C8 O2 1_555 1_555
C9 C8 1_555 1_555
C10 C9 1_555 1_555
H6 C10 1_555 1_555
C11 N2 1_555 1_555
H7 C11 1_555 1_555
C12 C11 1_555 1_555
H8 C12 1_555 1_555
C13 C9 1_555 1_555
H9 C13 1_555 1_555
C14 H10 1_555 1_555
C15 O3 1_555 1_555
C16 C15 1_555 1_555
C17 N3 1_555 1_555
H11 C17 1_555 1_555
C18 N3 1_555 1_555
H12 C18 1_555 1_555
C19 C18 1_555 1_555
H13 C19 1_555 1_555
C20 C16 1_555 1_555
H14 C20 1_555 1_555
C21 O4 1_555 1_555
C22 C21 1_555 1_555
C23 C22 1_555 1_555
H15 C23 1_555 1_555
C24 N4 1_555 1_555
H16 C24 1_555 1_555
C25 C24 1_555 1_555
H17 C25 1_555 1_555
C26 C22 1_555 1_555
H18 C26 1_555 1_555
C27 H19 1_555 1_555
C28 O5 1_555 1_555
C29 C28 1_555 1_555
C30 C29 1_555 1_555
H20 C30 1_555 1_555
C31 N5 1_555 1_555
H21 C31 1_555 1_555
C32 C31 1_555 1_555
H22 C32 1_555 1_555
C33 C29 1_555 1_555
H23 C33 1_555 1_555
C34 O6 1_555 1_555
C35 C34 1_555 1_555
C36 C35 1_555 1_555
H24 C36 1_555 1_555
C37 N6 1_555 1_555
H25 C37 1_555 1_555
C38 C37 1_555 1_555
H26 C38 1_555 1_555
C39 C35 1_555 1_555
H27 C39 1_555 1_555
C40 C41 1_555 1_555
C42 C43 1_555 1_555
C44 C45 1_555 1_555
C45 H28 1_555 1_555
H29 C45 1_555 1_555
H30 C45 1_555 1_555
C46 H31 1_555 1_555
H32 C46 1_555 1_555
C47 H33 1_555 1_555
H34 C47 1_555 1_555
H35 C47 1_555 1_555
C48 C47 1_555 1_555
Ag1_2 N2 1_555 1_555
Ag1A N5 1_555 1_555
Ag2_2 N4 1_555 1_555
Ag2A N6 1_555 1_555
Cl1A C46 1_555 1_555
N2_2 Ag1 1_555 1_555
N4_2 Ag2 1_555 1_555
N5A Ag1 1_555 1_555
N6A Ag2 1_555 1_555
C46A Cl1 1_555 1_555
H31A C46A 1_555 1_555
H32A C46A 1_555 1_555
C1 C8 1_555 1_555
C3 C7 1_555 1_555
C5 C6 1_555 1_555
C12 C13 1_555 1_555
C14 C15 1_555 1_555
C14 C21 1_555 1_555
C16 C17 1_555 1_555
C19 C20 1_555 1_555
C25 C26 1_555 1_555
C27 C28 1_555 1_555
C27 C34 1_555 1_555
C32 C33 1_555 1_555
C38 C39 1_555 1_555
C46 C46A 1_555 1_555
Cl1A C46A 1_555 1_555

#END
