
#######################################################################
#
#                 Cambridge Crystallographic Data Centre
#                                CCDC 
#
#######################################################################
#
# If this CIF has been generated from an entry in the Cambridge 
# Structural Database, then it will include bibliographic, chemical, 
# crystal, experimental, refinement or atomic coordinate data resulting 
# from the CCDC's data processing and validation procedures.
#
#######################################################################

data_CAXVAA
_symmetry_cell_setting           monoclinic
_symmetry_space_group_name_H-M   'C 2/c'
_symmetry_Int_Tables_number      15
_space_group_name_Hall           '-C 2yn'
loop_
_symmetry_equiv_pos_site_id
_symmetry_equiv_pos_as_xyz
1 x,y,z
2 -x,y,1/2-z
3 1/2+x,1/2+y,z
4 1/2-x,1/2+y,1/2-z
5 -x,-y,-z
6 x,-y,1/2+z
7 1/2-x,1/2-y,-z
8 1/2+x,1/2-y,1/2+z
_cell_length_a                   23.934(5)
_cell_length_b                   41.860(8)
_cell_length_c                   45.532(9)
_cell_angle_alpha                90
_cell_angle_beta                 90.12(3)
_cell_angle_gamma                90
_cell_volume                     45617.4
loop_
_atom_site_label
_atom_site_type_symbol
_atom_site_fract_x
_atom_site_fract_y
_atom_site_fract_z
Zn4 Zn 0.12598(3) 0.636644(13) 0.415638(18)
Zn5 Zn 0.11707(6) 0.63695(2) 0.48558(3)
O15 O 0.1414(3) 0.59283(10) 0.42492(14)
O16 O 0.1454(3) 0.59488(12) 0.47162(16)
O17 O 0.18496(12) 0.63142(6) 0.50202(6)
O18 O 0.1095(5) 0.6417(2) 0.5211(3)
O19 O 0.0692(5) 0.6095(2) 0.4987(5)
O20 O 0.5472(2) 0.15008(13) 0.46523(14)
O21 O 0.56081(19) 0.16263(12) 0.41724(12)
O22 O -0.3239(2) 0.16997(11) 0.47375(10)
O23 O -0.30806(16) 0.16208(8) 0.42643(8)
O24 O 0.13945(19) 0.63396(10) 0.37190(11)
C86 C 0.1479(3) 0.58066(13) 0.4472(2)
C87 C 0.1505(3) 0.54485(12) 0.44911(17)
C88 C 0.1419(4) 0.52930(16) 0.4769(2)
H50 H 0.1358 0.5413 0.4938
C89 C 0.1428(4) 0.49598(14) 0.47815(19)
H51 H 0.1395 0.4856 0.4961
C90 C 0.1488(3) 0.47772(12) 0.45167(15)
C91 C 0.1579(4) 0.49310(14) 0.42664(18)
H52 H 0.1634 0.4814 0.4095
C92 C 0.1593(3) 0.52695(14) 0.42537(18)
H53 H 0.1666 0.5369 0.4075
C93 C 0.1447(2) 0.44257(11) 0.45311(14)
C94 C 0.1800(3) 0.42275(11) 0.43667(14)
H54 H 0.2067 0.4319 0.4245
C95 C 0.1759(2) 0.38959(10) 0.43820(12)
H55 H 0.2017 0.3770 0.4282
C96 C 0.1344(2) 0.37524(10) 0.45431(11)
C97 C 0.0977(3) 0.39512(12) 0.47012(15)
H56 H 0.0684 0.3862 0.4808
C98 C 0.1053(3) 0.42812(13) 0.46974(17)
H57 H 0.0823 0.4407 0.4814
C99 C 0.1298(2) 0.34005(10) 0.45538(9)
C100 C 0.1771(2) 0.32081(9) 0.45467(9)
H58 H 0.2122 0.3303 0.4544
C101 C 0.1728(2) 0.28768(9) 0.45429(9)
C102 C 0.22517(19) 0.26784(9) 0.45180(9)
C103 C 0.2297(2) 0.23839(10) 0.46538(10)
H59 H 0.2000 0.2306 0.4764
C104 C 0.2774(2) 0.22055(10) 0.46284(10)
H60 H 0.2791 0.2006 0.4718
C105 C 0.3239(2) 0.23180(10) 0.44698(10)
C106 C 0.3760(2) 0.21304(10) 0.44480(10)
C107 C 0.4090(2) 0.21352(12) 0.41965(12)
H61 H 0.3965 0.2251 0.4035
C108 C 0.4589(2) 0.19793(13) 0.41758(13)
H62 H 0.4801 0.1993 0.4006
C109 C 0.4774(2) 0.17980(12) 0.44153(13)
C110 C 0.5330(3) 0.16315(14) 0.4403(2)
C111 C 0.4441(2) 0.17808(13) 0.46659(12)
H63 H 0.4553 0.1658 0.4826
C112 C 0.3950(2) 0.19444(12) 0.46761(11)
H64 H 0.3733 0.1930 0.4845
C113 C 0.3182(2) 0.26113(11) 0.43386(11)
H65 H 0.3478 0.2692 0.4230
C114 C 0.2700(2) 0.27906(10) 0.43629(11)
H66 H 0.2680 0.2990 0.4273
C115 C 0.1204(2) 0.27401(10) 0.45484(9)
H67 H 0.1174 0.2519 0.4548
C116 C 0.0725(2) 0.29204(9) 0.45545(9)
C117 C 0.0151(2) 0.27671(10) 0.45463(10)
C118 C 0.0075(2) 0.24753(11) 0.43990(11)
H68 H 0.0375 0.2382 0.4302
C119 C -0.0432(3) 0.23272(12) 0.43970(11)
H69 H -0.0469 0.2133 0.4300
C120 C -0.0888(2) 0.24571(11) 0.45349(10)
C121 C -0.1444(2) 0.22859(11) 0.45337(11)
C122 C -0.1804(3) 0.22924(13) 0.47668(13)
H70 H -0.1712 0.2414 0.4931
C123 C -0.2308(3) 0.21206(14) 0.47662(13)
H71 H -0.2544 0.2125 0.4928
C124 C -0.2447(2) 0.19429(12) 0.45151(12)
C125 C -0.2973(2) 0.17406(12) 0.45062(13)
C126 C -0.2086(3) 0.19423(14) 0.42802(12)
H72 H -0.2173 0.1825 0.4113
C127 C -0.1606(3) 0.21107(14) 0.42904(11)
H73 H -0.1373 0.2109 0.4127
C128 C -0.0827(2) 0.27501(12) 0.46746(12)
H74 H -0.1132 0.2847 0.4764
C129 C -0.0309(2) 0.28974(11) 0.46802(12)
H75 H -0.0272 0.3091 0.4778
C130 C 0.0757(2) 0.32524(10) 0.45525(10)
H76 H 0.0434 0.3376 0.4550
Zn4B Zn -0.37402(3) 1.136644(13) 0.415638(18)
Zn4B_2 Zn 0.62598(3) 0.136644(13) 0.415638(18)
Zn4B_3 Zn -0.37402(3) 0.136644(13) 0.415638(18)
Zn4_2 Zn -0.87402(3) 0.636644(13) 0.415638(18)
Zn5B Zn -0.38293(6) 1.13695(2) 0.48558(3)
Zn5B_2 Zn 0.61707(6) 0.13695(2) 0.48558(3)
Zn5B_3 Zn -0.38293(6) 0.13695(2) 0.48558(3)
Zn5_2 Zn -0.88293(6) 0.63695(2) 0.48558(3)
O15B O -0.3586(3) 1.09283(10) 0.42492(14)
O16B O -0.3546(3) 1.09488(12) 0.47162(16)
O17B O -0.31504(12) 1.13142(6) 0.50202(6)
O18B O -0.3905(5) 1.1417(2) 0.5211(3)
O19B O -0.4308(5) 1.1095(2) 0.4987(5)
O20B O 0.0472(2) 0.65008(13) 0.46523(14)
O20_2 O -0.4528(2) 1.15008(13) 0.46523(14)
O21B O 0.06081(19) 0.66263(12) 0.41724(12)
O21_2 O -0.43919(19) 1.16263(12) 0.41724(12)
O22B O -0.8239(2) 0.66997(11) 0.47375(10)
O22B_2 O 0.1761(2) 0.66997(11) 0.47375(10)
O22_2 O -0.3239(2) 1.16997(11) 0.47375(10)
O23B O -0.80806(16) 0.66208(8) 0.42643(8)
O23B_2 O 0.19194(16) 0.66208(8) 0.42643(8)
O23_2 O -0.30806(16) 1.16208(8) 0.42643(8)
O24B O -0.36055(19) 1.13396(10) 0.37190(11)
C86B C -0.3521(3) 1.08066(13) 0.4472(2)
C87B C -0.3495(3) 1.04485(12) 0.44911(17)
C88B C -0.3581(4) 1.02930(16) 0.4769(2)
H50B H -0.3642 1.0413 0.4938
C89B C -0.3572(4) 0.99598(14) 0.47815(19)
H51B H -0.3605 0.9856 0.4961
C90B C -0.3512(3) 0.97772(12) 0.45167(15)
C91B C -0.3421(4) 0.99310(14) 0.42664(18)
H52B H -0.3366 0.9814 0.4095
C92B C -0.3407(3) 1.02695(14) 0.42537(18)
H53B H -0.3334 1.0369 0.4075
C93B C -0.3553(2) 0.94257(11) 0.45311(14)
C94B C -0.3200(3) 0.92275(11) 0.43667(14)
H54B H -0.2933 0.9319 0.4245
C95B C -0.3241(2) 0.88959(10) 0.43820(12)
H55B H -0.2983 0.8770 0.4282
C96B C -0.3656(2) 0.87524(10) 0.45431(11)
C97B C -0.4023(3) 0.89512(12) 0.47012(15)
H56B H -0.4316 0.8862 0.4808
C98B C -0.3947(3) 0.92812(13) 0.46974(17)
H57B H -0.4177 0.9407 0.4814
C99B C -0.3702(2) 0.84005(10) 0.45538(9)
C100B C -0.3229(2) 0.82081(9) 0.45467(9)
H58B H -0.2878 0.8303 0.4544
C101B C -0.3272(2) 0.78768(9) 0.45429(9)
C102B C -0.27483(19) 0.76784(9) 0.45180(9)
C103B C -0.2703(2) 0.73839(10) 0.46538(10)
H59B H -0.3000 0.7306 0.4764
C104B C -0.2226(2) 0.72055(10) 0.46284(10)
H60B H -0.2209 0.7006 0.4718
C105B C -0.1761(2) 0.73180(10) 0.44698(10)
C106B C -0.1240(2) 0.71304(10) 0.44480(10)
C107B C -0.0910(2) 0.71352(12) 0.41965(12)
H61B H -0.1035 0.7251 0.4035
C108B C -0.0411(2) 0.69793(13) 0.41758(13)
H62B H -0.0199 0.6993 0.4006
C109B C -0.0226(2) 0.67980(12) 0.44153(13)
C110B C 0.0330(3) 0.66315(14) 0.4403(2)
C111B C -0.0559(2) 0.67808(13) 0.46659(12)
H63B H -0.0447 0.6658 0.4826
C112B C -0.1050(2) 0.69444(12) 0.46761(11)
H64B H -0.1267 0.6930 0.4845
C113B C -0.1818(2) 0.76113(11) 0.43386(11)
H65B H -0.1522 0.7692 0.4230
C114B C -0.2300(2) 0.77906(10) 0.43629(11)
H66B H -0.2320 0.7990 0.4273
C115B C -0.3796(2) 0.77401(10) 0.45484(9)
H67B H -0.3826 0.7519 0.4548
C116B C -0.4275(2) 0.79204(9) 0.45545(9)
C117B C -0.4849(2) 0.77671(10) 0.45463(10)
C118B C -0.4925(2) 0.74753(11) 0.43990(11)
H68B H -0.4625 0.7382 0.4302
C119B C -0.5432(3) 0.73272(12) 0.43970(11)
H69B H -0.5469 0.7133 0.4300
C120B C -0.5888(2) 0.74571(11) 0.45349(10)
C121B C -0.6444(2) 0.72859(11) 0.45337(11)
C122B C -0.6804(3) 0.72924(13) 0.47668(13)
H70B H -0.6712 0.7414 0.4931
C123B C -0.7308(3) 0.71206(14) 0.47662(13)
H71B H -0.7544 0.7125 0.4928
C124B C -0.7447(2) 0.69429(12) 0.45151(12)
C125B C -0.7973(2) 0.67406(12) 0.45062(13)
C126B C -0.7086(3) 0.69423(14) 0.42802(12)
H72B H -0.7173 0.6825 0.4113
C127B C -0.6606(3) 0.71107(14) 0.42904(11)
H73B H -0.6373 0.7109 0.4127
C128B C -0.5827(2) 0.77501(12) 0.46746(12)
H74B H -0.6132 0.7847 0.4764
C129B C -0.5309(2) 0.78974(11) 0.46802(12)
H75B H -0.5272 0.8091 0.4778
C130B C -0.4243(2) 0.82524(10) 0.45525(10)
H76B H -0.4566 0.8376 0.4550
N1 N 0.4796(3) 0.29930(18) 0.04278(16)
O25 O 0.4202(5) 0.3400(3) 0.0576(3)
C131 C 0.4667(7) 0.3295(3) 0.0564(3)
H77 H 0.4957 0.3413 0.0647
C132 C 0.4344(6) 0.2811(3) 0.0290(2)
H78 H 0.4455 0.2753 0.0092
H79 H 0.4016 0.2946 0.0275
C133 C 0.4185(6) 0.2496(3) 0.0465(2)
H80 H 0.4518 0.2375 0.0505
H81 H 0.3934 0.2369 0.0348
H82 H 0.4008 0.2552 0.0646
C134 C 0.5347(5) 0.2867(2) 0.04232(19)
H83 H 0.5345 0.2665 0.0528
H84 H 0.5588 0.3012 0.0531
C135 C 0.5599(5) 0.28121(19) 0.01243(17)
H85 H 0.5370 0.2665 0.0016
H86 H 0.5967 0.2725 0.0146
H87 H 0.5619 0.3011 0.0021
N2 N 0.2225(4) 0.2025(2) 0.35783(18)
O26 O 0.2692(5) 0.1594(3) 0.3379(4)
C136 C 0.2290(7) 0.1739(3) 0.3417(4)
H88 H 0.1967 0.1658 0.3331
C137 C 0.1676(4) 0.2155(2) 0.35919(19)
H89 H 0.1430 0.2026 0.3472
H90 H 0.1682 0.2368 0.3508
C138 C 0.1443(5) 0.2173(2) 0.38935(19)
H91 H 0.1048 0.2132 0.3887
H92 H 0.1507 0.2382 0.3973
H93 H 0.1622 0.2017 0.4016
C139 C 0.2690(5) 0.2178(3) 0.3697(3)
H94 H 0.3005 0.2032 0.3695
H95 H 0.2614 0.2232 0.3900
C140 C 0.2844(5) 0.2479(3) 0.3531(2)
H96 H 0.2956 0.2423 0.3335
H97 H 0.3147 0.2584 0.3630
H98 H 0.2526 0.2618 0.3523
Zn1 Zn 0.821240(19) 0.136802(9) 0.892340(9)
Zn2 Zn 0.997203(17) 0.142808(10) 1.212464(9)
Zn3 Zn 0.81837(2) 0.132178(11) 0.818918(10)
O1 O 0.81221(15) 0.14406(7) 0.93536(6)
O2 O 0.89767(18) 0.12578(11) 0.92730(8)
O3 O 0.91459(19) 0.12898(12) 1.17832(8)
O4 O 0.99823(14) 0.14602(7) 1.16967(6)
O5 O 1.07048(11) 0.16164(7) 1.22326(6)
O6 O 1.50190(16) 0.59852(7) 1.22547(7)
O7 O 1.05601(12) 0.17285(7) 1.27061(6)
O8 O 0.87252(13) 0.16722(7) 0.87412(7)
O9 O 0.88646(12) 0.15675(7) 0.82656(7)
O10 O 1.75741(14) 0.15890(9) 0.82955(7)
O11 O 1.74804(12) 0.15337(7) 0.87788(7)
O12 O 1.3347(2) 0.59104(8) 0.83470(10)
O13 O 1.31753(15) 0.59098(7) 0.88212(8)
O14 O 0.81851(18) 0.12801(9) 0.77443(8)
C1 C 0.8591(3) 0.13572(11) 0.94431(11)
C2 C 0.8719(2) 0.13783(11) 0.97687(9)
C3 C 0.8341(3) 0.14907(14) 0.99657(11)
H1 H 0.7996 0.1563 0.9899
C4 C 0.8459(2) 0.14995(14) 1.02626(11)
H2 H 0.8186 0.1570 1.0393
C5 C 0.8969(2) 0.14067(12) 1.03692(10)
C6 C 0.9343(3) 0.12881(15) 1.01709(11)
H3 H 0.9689 0.1218 1.0238
C7 C 0.9223(3) 0.12678(15) 0.98730(11)
H4 H 0.9483 0.1180 0.9745
C8 C 0.9113(2) 0.14061(12) 1.06860(11)
C9 C 0.9611(2) 0.15189(14) 1.07891(10)
H5 H 0.9874 0.1599 1.0658
C10 C 0.9730(2) 0.15160(13) 1.10863(10)
H6 H 1.0071 0.1597 1.1150
C11 C 0.9358(2) 0.13965(11) 1.12935(10)
C12 C 0.9488(2) 0.13786(11) 1.16140(10)
C13 C 1.08370(17) 0.17405(9) 1.24725(8)
C14 C 1.13762(17) 0.19231(9) 1.24831(9)
C15 C 1.1535(2) 0.20802(13) 1.27392(10)
H7 H 1.1305 0.2072 1.2903
C16 C 1.2027(2) 0.22462(12) 1.27508(10)
H8 H 1.2121 0.2353 1.2923
C17 C 1.23919(18) 0.22596(10) 1.25117(10)
C18 C 1.2225(2) 0.20919(13) 1.22590(10)
H9 H 1.2460 0.2088 1.2096
C19 C 1.17298(19) 0.19367(11) 1.22479(9)
H10 H 1.1626 0.1836 1.2074
C20 C 1.29308(18) 0.24320(9) 1.25189(10)
C21 C 1.29987(18) 0.27090(11) 1.26820(11)
H11 H 1.2701 0.2786 1.2792
C22 C 1.34978(19) 0.28731(10) 1.26841(11)
H12 H 1.3530 0.3059 1.2795
C23 C 1.39593(16) 0.27645(9) 1.25217(9)
C24 C 1.38830(19) 0.24862(10) 1.23584(12)
H13 H 1.4176 0.2408 1.2246
C25 C 1.33861(19) 0.23265(11) 1.23605(12)
H14 H 1.3353 0.2140 1.2251
C26 C 1.44981(16) 0.29408(8) 1.25143(8)
C27 C 1.44949(17) 0.32751(9) 1.25159(8)
H15 H 1.4158 0.3385 1.2528
C28 C 1.5000 0.34439(11) 1.2500
C29 C 1.5000 0.37971(12) 1.2500
C30 C 1.53415(19) 0.39671(9) 1.23136(11)
H16 H 1.5572 0.3858 1.2184
C31 C 1.5347(2) 0.42979(10) 1.23156(11)
H17 H 1.5589 0.4406 1.2191
C32 C 1.5000 0.44716(14) 1.2500
C33 C 1.5000 0.48213(14) 1.2500
C34 C 1.5075(3) 0.50006(11) 1.22418(11)
H18 H 1.5120 0.4894 1.2064
C35 C 1.5083(3) 0.53223(10) 1.22439(11)
H19 H 1.5147 0.5431 1.2069
C36 C 1.5000 0.54976(14) 1.2500
C37 C 1.5000 0.27829(12) 1.2500
H20 H 1.5000 0.2561 1.2500
C38 C 1.5000 0.58532(13) 1.2500
C39 C 0.8850(3) 0.12853(14) 1.11892(11)
H21 H 0.8592 0.1205 1.1322
C40 C 0.8716(3) 0.12890(14) 1.08978(10)
H22 H 0.8368 0.1216 1.0836
C41 C 0.89971(18) 0.16945(9) 0.85056(9)
C42 C 1.73110(18) 0.16260(9) 0.85357(9)
C43 C 1.67681(18) 0.18037(10) 0.85218(9)
C44 C 1.6449(2) 0.18446(12) 0.87713(10)
H23 H 1.6576 0.1763 0.8949
C45 C 1.5958(2) 0.20006(13) 0.87614(10)
H24 H 1.5749 0.2019 0.8932
C46 C 1.5749(2) 0.21386(10) 0.84984(10)
C47 C 1.6086(2) 0.20999(12) 0.82490(10)
H25 H 1.5975 0.2192 0.8072
C48 C 1.6576(2) 0.19286(12) 0.82600(10)
H26 H 1.6781 0.1897 0.8089
C49 C 1.52162(19) 0.23172(10) 0.84939(10)
C50 C 1.4766(2) 0.22241(10) 0.86662(11)
H27 H 1.4798 0.2043 0.8783
C51 C 1.4276(2) 0.23928(10) 0.86688(11)
H28 H 1.3981 0.2322 0.8785
C52 C 1.42122(17) 0.26698(8) 0.84999(9)
C53 C 1.46607(18) 0.27612(9) 0.83275(10)
H29 H 1.4629 0.2944 0.8213
C54 C 1.51476(19) 0.25910(10) 0.83213(11)
H30 H 1.5438 0.2658 0.8201
C55 C 1.36878(18) 0.28551(8) 0.85093(9)
C56 C 1.36971(17) 0.31897(8) 0.85130(8)
H31 H 1.4037 0.3297 0.8503
C57 C 1.32061(16) 0.33616(8) 0.85320(8)
C58 C 1.32219(17) 0.37205(9) 0.85408(9)
C59 C 1.28505(19) 0.38921(9) 0.87137(11)
H32 H 1.2587 0.3784 0.8826
C60 C 1.2869(2) 0.42190(10) 0.87203(11)
H33 H 1.2615 0.4326 0.8839
C61 C 1.3239(2) 0.43943(10) 0.85614(11)
C62 C 1.3254(2) 0.47477(10) 0.85665(11)
C63 C 1.3636(2) 0.42233(10) 0.83891(12)
H34 H 1.3907 0.4334 0.8283
C64 C 1.3619(2) 0.38926(9) 0.83797(11)
H35 H 1.3875 0.3783 0.8264
C65 C 1.27003(17) 0.32063(9) 0.85375(9)
H36 H 1.2372 0.3325 0.8546
C66 C 1.26704(17) 0.28708(9) 0.85307(9)
C67 C 1.21282(17) 0.27079(8) 0.85346(9)
C68 C 1.2042(2) 0.24221(11) 0.83742(12)
H37 H 1.2335 0.2336 0.8266
C69 C 1.1541(2) 0.22724(11) 0.83751(12)
H38 H 1.1502 0.2083 0.8270
C70 C 1.10740(18) 0.23911(10) 0.85293(10)
C71 C 1.11644(19) 0.26714(10) 0.86832(11)
H39 H 1.0870 0.2759 0.8790
C72 C 1.16709(19) 0.28268(10) 0.86855(11)
H40 H 1.1707 0.3016 0.8791
C73 C 1.31748(16) 0.27030(9) 0.85144(9)
H41 H 1.3165 0.2481 0.8507
C74 C 1.3260(2) 0.57730(11) 0.85835(12)
C75 C 1.3266(2) 0.54191(10) 0.85842(11)
C76 C 1.3120(3) 0.52413(10) 0.88285(12)
H42 H 1.3019 0.5346 0.9001
C77 C 1.3120(3) 0.49168(11) 0.88220(12)
H43 H 1.3030 0.4804 0.8991
C78 C 1.3414(3) 0.52541(10) 0.83323(13)
H44 H 1.3526 0.5367 0.8167
C79 C 1.3399(3) 0.49224(11) 0.83222(13)
H45 H 1.3487 0.4817 0.8148
C80 C 0.95242(19) 0.18874(10) 0.85084(9)
C81 C 0.9677(2) 0.20625(12) 0.87546(10)
H46 H 0.9442 0.2068 0.8917
C82 C 1.0173(2) 0.22274(13) 0.87604(10)
H47 H 1.0263 0.2346 0.8927
C83 C 1.05446(19) 0.22231(10) 0.85250(10)
C84 C 1.0374(2) 0.20451(14) 0.82783(11)
H48 H 1.0606 0.2037 0.8115
C85 C 0.9877(2) 0.18842(13) 0.82727(10)
H49 H 0.9777 0.1770 0.8105
Zn1_2 Zn -0.178760(19) 0.136802(9) 0.892340(9)
Zn1_3 Zn 1.821240(19) 0.136802(9) 0.892340(9)
Zn1B Zn 1.321240(19) 0.636802(9) 0.892340(9)
Zn1B_2 Zn 0.321240(19) 0.636802(9) 0.892340(9)
Zn2_2 Zn -0.002797(17) 0.142808(10) 1.212464(9)
Zn2B Zn 1.497203(17) 0.642808(10) 1.212464(9)
Zn2A Zn 1.002797(17) 0.142808(10) 1.287536(9)
Zn2A_2 Zn 2.002797(17) 0.142808(10) 1.287536(9)
Zn2_3 Zn 1.997203(17) 0.142808(10) 1.212464(9)
Zn2C Zn 1.502797(17) 0.642808(10) 1.287536(9)
Zn3_2 Zn -0.18163(2) 0.132178(11) 0.818918(10)
Zn3_3 Zn 1.81837(2) 0.132178(11) 0.818918(10)
Zn3B Zn 1.31837(2) 0.632178(11) 0.818918(10)
Zn3B_2 Zn 0.31837(2) 0.632178(11) 0.818918(10)
O1_2 O -0.18779(15) 0.14406(7) 0.93536(6)
O2_2 O -0.10233(18) 0.12578(11) 0.92730(8)
O3_2 O -0.08541(19) 0.12898(12) 1.17832(8)
O4_2 O -0.00177(14) 0.14602(7) 1.16967(6)
O5A O 1.92952(11) 0.16164(7) 1.27674(6)
O5_2 O 0.07048(11) 0.16164(7) 1.22326(6)
O6A O 1.49810(16) 0.59852(7) 1.27453(7)
O6B O 1.00190(16) 0.09852(7) 1.22547(7)
O6B_2 O 0.00190(16) 0.09852(7) 1.22547(7)
O7A O 1.94399(12) 0.17285(7) 1.22939(6)
O7A_2 O 0.94399(12) 0.17285(7) 1.22939(6)
O7A_3 O -0.05601(12) 0.17285(7) 1.22939(6)
O8_2 O -0.12748(13) 0.16722(7) 0.87412(7)
O9_2 O -0.11354(12) 0.15675(7) 0.82656(7)
O10_2 O 0.75741(14) 0.15890(9) 0.82955(7)
O10_3 O -0.24259(14) 0.15890(9) 0.82955(7)
O11_2 O 0.74804(12) 0.15337(7) 0.87788(7)
O11_3 O -0.25196(12) 0.15337(7) 0.87788(7)
O12_2 O 0.3347(2) 0.59104(8) 0.83470(10)
O12B O 0.8347(2) 0.09104(8) 0.83470(10)
O12B_2 O -0.1653(2) 0.09104(8) 0.83470(10)
O13_2 O 0.31753(15) 0.59098(7) 0.88212(8)
O13B O 0.81753(15) 0.09098(7) 0.88212(8)
O13B_2 O -0.18247(15) 0.09098(7) 0.88212(8)
O14_2 O -0.18149(18) 0.12801(9) 0.77443(8)
C1_2 C -0.1409(3) 0.13572(11) 0.94431(11)
C2_2 C -0.1281(2) 0.13783(11) 0.97687(9)
C3_2 C -0.1659(3) 0.14907(14) 0.99657(11)
H1_2 H -0.2004 0.1563 0.9899
C4_2 C -0.1541(2) 0.14995(14) 1.02626(11)
H2_2 H -0.1814 0.1570 1.0393
C5_2 C -0.1031(2) 0.14067(12) 1.03692(10)
C6_2 C -0.0657(3) 0.12881(15) 1.01709(11)
H3_2 H -0.0311 0.1218 1.0238
C7_2 C -0.0777(3) 0.12678(15) 0.98730(11)
H4_2 H -0.0517 0.1180 0.9745
C8_2 C -0.0887(2) 0.14061(12) 1.06860(11)
C9_2 C -0.0389(2) 0.15189(14) 1.07891(10)
H5_2 H -0.0126 0.1599 1.0658
C10_2 C -0.0270(2) 0.15160(13) 1.10863(10)
H6_2 H 0.0071 0.1597 1.1150
C11_2 C -0.0642(2) 0.13965(11) 1.12935(10)
C12_2 C -0.0512(2) 0.13786(11) 1.16140(10)
C13A C 1.91630(17) 0.17405(9) 1.25275(8)
C14A C 1.86238(17) 0.19231(9) 1.25169(9)
C15A C 1.8465(2) 0.20802(13) 1.22608(10)
H7A H 1.8695 0.2072 1.2097
C16A C 1.7973(2) 0.22462(12) 1.22492(10)
H8A H 1.7879 0.2353 1.2077
C17A C 1.76081(18) 0.22596(10) 1.24883(10)
C18A C 1.7775(2) 0.20919(13) 1.27410(10)
H9A H 1.7540 0.2088 1.2904
C19A C 1.82702(19) 0.19367(11) 1.27521(9)
H10A H 1.8374 0.1836 1.2926
C20A C 1.70692(18) 0.24320(9) 1.24811(10)
C21A C 1.70013(18) 0.27090(11) 1.23180(11)
H11A H 1.7299 0.2786 1.2208
C22A C 1.65022(19) 0.28731(10) 1.23159(11)
H12A H 1.6470 0.3059 1.2205
C23A C 1.60407(16) 0.27645(9) 1.24783(9)
C24A C 1.61170(19) 0.24862(10) 1.26416(12)
H13A H 1.5824 0.2408 1.2754
C25A C 1.66139(19) 0.23265(11) 1.26395(12)
H14A H 1.6647 0.2140 1.2749
C26A C 1.55019(16) 0.29408(8) 1.24857(8)
C27A C 1.55051(17) 0.32751(9) 1.24841(8)
H15A H 1.5842 0.3385 1.2472
C30A C 1.46585(19) 0.39671(9) 1.26864(11)
H16A H 1.4428 0.3858 1.2816
C31A C 1.4653(2) 0.42979(10) 1.26844(11)
H17A H 1.4411 0.4406 1.2809
C34A C 1.4925(3) 0.50006(11) 1.27582(11)
H18A H 1.4880 0.4894 1.2936
C35A C 1.4917(3) 0.53223(10) 1.27561(11)
H19A H 1.4853 0.5431 1.2931
C39_2 C -0.1150(3) 0.12853(14) 1.11892(11)
H21_2 H -0.1408 0.1205 1.1322
C40_2 C -0.1284(3) 0.12890(14) 1.08978(10)
H22_2 H -0.1632 0.1216 1.0836
C41_2 C -0.10029(18) 0.16945(9) 0.85056(9)
C42_2 C 0.73110(18) 0.16260(9) 0.85357(9)
C43_2 C 0.67681(18) 0.18037(10) 0.85218(9)
C44_2 C 0.6449(2) 0.18446(12) 0.87713(10)
H23_2 H 0.6576 0.1763 0.8949
C45_2 C 0.5958(2) 0.20006(13) 0.87614(10)
H24_2 H 0.5749 0.2019 0.8932
C46_2 C 0.5749(2) 0.21386(10) 0.84984(10)
C47_2 C 0.6086(2) 0.20999(12) 0.82490(10)
H25_2 H 0.5975 0.2192 0.8072
C48_2 C 0.6576(2) 0.19286(12) 0.82600(10)
H26_2 H 0.6781 0.1897 0.8089
C49_2 C 0.52162(19) 0.23172(10) 0.84939(10)
C50_2 C 0.4766(2) 0.22241(10) 0.86662(11)
H27_2 H 0.4798 0.2043 0.8783
C51_2 C 0.4276(2) 0.23928(10) 0.86688(11)
H28_2 H 0.3981 0.2322 0.8785
C52_2 C 0.42122(17) 0.26698(8) 0.84999(9)
C53_2 C 0.46607(18) 0.27612(9) 0.83275(10)
H29_2 H 0.4629 0.2944 0.8213
C54_2 C 0.51476(19) 0.25910(10) 0.83213(11)
H30_2 H 0.5438 0.2658 0.8201
C55_2 C 0.36878(18) 0.28551(8) 0.85093(9)
C56_2 C 0.36971(17) 0.31897(8) 0.85130(8)
H31_2 H 0.4037 0.3297 0.8503
C57_2 C 0.32061(16) 0.33616(8) 0.85320(8)
C58_2 C 0.32219(17) 0.37205(9) 0.85408(9)
C59_2 C 0.28505(19) 0.38921(9) 0.87137(11)
H32_2 H 0.2587 0.3784 0.8826
C60_2 C 0.2869(2) 0.42190(10) 0.87203(11)
H33_2 H 0.2615 0.4326 0.8839
C61_2 C 0.3239(2) 0.43943(10) 0.85614(11)
C62_2 C 0.3254(2) 0.47477(10) 0.85665(11)
C63_2 C 0.3636(2) 0.42233(10) 0.83891(12)
H34_2 H 0.3907 0.4334 0.8283
C64_2 C 0.3619(2) 0.38926(9) 0.83797(11)
H35_2 H 0.3875 0.3783 0.8264
C65_2 C 0.27003(17) 0.32063(9) 0.85375(9)
H36_2 H 0.2372 0.3325 0.8546
C66_2 C 0.26704(17) 0.28708(9) 0.85307(9)
C67_2 C 0.21282(17) 0.27079(8) 0.85346(9)
C68_2 C 0.2042(2) 0.24221(11) 0.83742(12)
H37_2 H 0.2335 0.2336 0.8266
C69_2 C 0.1541(2) 0.22724(11) 0.83751(12)
H38_2 H 0.1502 0.2083 0.8270
C70_2 C 0.10740(18) 0.23911(10) 0.85293(10)
C71_2 C 0.11644(19) 0.26714(10) 0.86832(11)
H39_2 H 0.0870 0.2759 0.8790
C72_2 C 0.16709(19) 0.28268(10) 0.86855(11)
H40_2 H 0.1707 0.3016 0.8791
C73_2 C 0.31748(16) 0.27030(9) 0.85144(9)
H41_2 H 0.3165 0.2481 0.8507
C74_2 C 0.3260(2) 0.57730(11) 0.85835(12)
C75_2 C 0.3266(2) 0.54191(10) 0.85842(11)
C76_2 C 0.3120(3) 0.52413(10) 0.88285(12)
H42_2 H 0.3019 0.5346 0.9001
C77_2 C 0.3120(3) 0.49168(11) 0.88220(12)
H43_2 H 0.3030 0.4804 0.8991
C78_2 C 0.3414(3) 0.52541(10) 0.83323(13)
H44_2 H 0.3526 0.5367 0.8167
C79_2 C 0.3399(3) 0.49224(11) 0.83222(13)
H45_2 H 0.3487 0.4817 0.8148
C80_2 C -0.04758(19) 0.18874(10) 0.85084(9)
C81_2 C -0.0323(2) 0.20625(12) 0.87546(10)
H46_2 H -0.0558 0.2068 0.8917
C82_2 C 0.0173(2) 0.22274(13) 0.87604(10)
H47_2 H 0.0263 0.2346 0.8927
C83_2 C 0.05446(19) 0.22231(10) 0.85250(10)
C84_2 C 0.0374(2) 0.20451(14) 0.82783(11)
H48_2 H 0.0606 0.2037 0.8115
C85_2 C -0.0123(2) 0.18842(13) 0.82727(10)
H49_2 H -0.0223 0.1770 0.8105
loop_
_geom_bond_atom_site_label_1
_geom_bond_atom_site_label_2
_geom_bond_site_symmetry_1
_geom_bond_site_symmetry_2
Zn1 O1 1_555 1_555
Zn2 O4 1_555 1_555
Zn3 O9 1_555 1_555
Zn4 O15 1_555 1_555
Zn5 O16 1_555 1_555
N1 C131 1_555 1_555
N2 C136 1_555 1_555
O1 C1 1_555 1_555
O2 C1 1_555 1_555
O3 C12 1_555 1_555
O4 C12 1_555 1_555
O5 Zn2 1_555 1_555
O6 C38 1_555 1_555
O7 C13 1_555 1_555
O8 Zn1 1_555 1_555
O9 C41 1_555 1_555
O10 C42 1_555 1_555
O11 C42 1_555 1_555
O12 C74 1_555 1_555
O13 C74 1_555 1_555
O14 Zn3 1_555 1_555
O15 C86 1_555 1_555
O16 C86 1_555 1_555
O17 Zn5 1_555 1_555
O18 Zn5 1_555 1_555
O19 Zn5 1_555 1_555
O20 C110 1_555 1_555
O21 C110 1_555 1_555
O22 C125 1_555 1_555
O23 C125 1_555 1_555
O24 Zn4 1_555 1_555
O25 C131 1_555 1_555
O26 C136 1_555 1_555
C1 C2 1_555 1_555
C2 C3 1_555 1_555
C3 H1 1_555 1_555
C4 C3 1_555 1_555
H2 C4 1_555 1_555
C5 C4 1_555 1_555
C6 C5 1_555 1_555
H3 C6 1_555 1_555
C7 C2 1_555 1_555
H4 C7 1_555 1_555
C8 C5 1_555 1_555
C9 C8 1_555 1_555
H5 C9 1_555 1_555
C10 C9 1_555 1_555
H6 C10 1_555 1_555
C11 C10 1_555 1_555
C12 C11 1_555 1_555
C13 O5 1_555 1_555
C14 C13 1_555 1_555
C15 C14 1_555 1_555
H7 C15 1_555 1_555
C16 C15 1_555 1_555
H8 C16 1_555 1_555
C17 C16 1_555 1_555
C18 C17 1_555 1_555
H9 C18 1_555 1_555
C19 C14 1_555 1_555
H10 C19 1_555 1_555
C20 C17 1_555 1_555
C21 C20 1_555 1_555
H11 C21 1_555 1_555
C22 C21 1_555 1_555
H12 C22 1_555 1_555
C23 C22 1_555 1_555
C24 C23 1_555 1_555
H13 C24 1_555 1_555
C25 C20 1_555 1_555
H14 C25 1_555 1_555
C26 C23 1_555 1_555
C27 C26 1_555 1_555
H15 C27 1_555 1_555
C28 C27 1_555 1_555
C29 C28 1_555 1_555
C30 C29 1_555 1_555
H16 C30 1_555 1_555
C31 C30 1_555 1_555
H17 C31 1_555 1_555
C32 C31 1_555 1_555
C33 C32 1_555 1_555
C34 C33 1_555 1_555
H18 C34 1_555 1_555
C35 C34 1_555 1_555
H19 C35 1_555 1_555
C36 C35 1_555 1_555
C37 C26 1_555 1_555
H20 C37 1_555 1_555
C38 C36 1_555 1_555
C39 C11 1_555 1_555
H21 C39 1_555 1_555
C40 C8 1_555 1_555
H22 C40 1_555 1_555
C41 O8 1_555 1_555
C42 C43 1_555 1_555
C43 C44 1_555 1_555
C44 H23 1_555 1_555
C45 C44 1_555 1_555
H24 C45 1_555 1_555
C46 C45 1_555 1_555
C47 C46 1_555 1_555
H25 C47 1_555 1_555
C48 C43 1_555 1_555
H26 C48 1_555 1_555
C49 C46 1_555 1_555
C50 C49 1_555 1_555
H27 C50 1_555 1_555
C51 C50 1_555 1_555
H28 C51 1_555 1_555
C52 C51 1_555 1_555
C53 C52 1_555 1_555
H29 C53 1_555 1_555
C54 C49 1_555 1_555
H30 C54 1_555 1_555
C55 C52 1_555 1_555
C56 C55 1_555 1_555
H31 C56 1_555 1_555
C57 C56 1_555 1_555
C58 C57 1_555 1_555
C59 C58 1_555 1_555
H32 C59 1_555 1_555
C60 C59 1_555 1_555
H33 C60 1_555 1_555
C61 C60 1_555 1_555
C62 C61 1_555 1_555
C63 C61 1_555 1_555
H34 C63 1_555 1_555
C64 C58 1_555 1_555
H35 C64 1_555 1_555
C65 C57 1_555 1_555
H36 C65 1_555 1_555
C66 C65 1_555 1_555
C67 C66 1_555 1_555
C68 C67 1_555 1_555
H37 C68 1_555 1_555
C69 C68 1_555 1_555
H38 C69 1_555 1_555
C70 C69 1_555 1_555
C71 C70 1_555 1_555
H39 C71 1_555 1_555
C72 C67 1_555 1_555
H40 C72 1_555 1_555
C73 C55 1_555 1_555
H41 C73 1_555 1_555
C74 C75 1_555 1_555
C75 C76 1_555 1_555
C76 H42 1_555 1_555
C77 C62 1_555 1_555
H43 C77 1_555 1_555
C78 C75 1_555 1_555
H44 C78 1_555 1_555
C79 C62 1_555 1_555
H45 C79 1_555 1_555
C80 C41 1_555 1_555
C81 C80 1_555 1_555
H46 C81 1_555 1_555
C82 C81 1_555 1_555
H47 C82 1_555 1_555
C83 C70 1_555 1_555
C84 C83 1_555 1_555
H48 C84 1_555 1_555
C85 C80 1_555 1_555
H49 C85 1_555 1_555
C86 C87 1_555 1_555
C87 C88 1_555 1_555
C88 H50 1_555 1_555
C89 C88 1_555 1_555
H51 C89 1_555 1_555
C90 C89 1_555 1_555
C91 C90 1_555 1_555
H52 C91 1_555 1_555
C92 C87 1_555 1_555
H53 C92 1_555 1_555
C93 C90 1_555 1_555
C94 C93 1_555 1_555
H54 C94 1_555 1_555
C95 C94 1_555 1_555
H55 C95 1_555 1_555
C96 C95 1_555 1_555
C97 C96 1_555 1_555
H56 C97 1_555 1_555
C98 C93 1_555 1_555
H57 C98 1_555 1_555
C99 C96 1_555 1_555
C100 C99 1_555 1_555
H58 C100 1_555 1_555
C101 C100 1_555 1_555
C102 C101 1_555 1_555
C103 C102 1_555 1_555
H59 C103 1_555 1_555
C104 C103 1_555 1_555
H60 C104 1_555 1_555
C105 C104 1_555 1_555
C106 C105 1_555 1_555
C107 C106 1_555 1_555
H61 C107 1_555 1_555
C108 C107 1_555 1_555
H62 C108 1_555 1_555
C109 C108 1_555 1_555
C110 C109 1_555 1_555
C111 C109 1_555 1_555
H63 C111 1_555 1_555
C112 C106 1_555 1_555
H64 C112 1_555 1_555
C113 C105 1_555 1_555
H65 C113 1_555 1_555
C114 C102 1_555 1_555
H66 C114 1_555 1_555
C115 C101 1_555 1_555
H67 C115 1_555 1_555
C116 C115 1_555 1_555
C117 C116 1_555 1_555
C118 C117 1_555 1_555
H68 C118 1_555 1_555
C119 C118 1_555 1_555
H69 C119 1_555 1_555
C120 C119 1_555 1_555
C121 C120 1_555 1_555
C122 C121 1_555 1_555
H70 C122 1_555 1_555
C123 C122 1_555 1_555
H71 C123 1_555 1_555
C124 C123 1_555 1_555
C125 C124 1_555 1_555
C126 C124 1_555 1_555
H72 C126 1_555 1_555
C127 C121 1_555 1_555
H73 C127 1_555 1_555
C128 C120 1_555 1_555
H74 C128 1_555 1_555
C129 C117 1_555 1_555
H75 C129 1_555 1_555
C130 C99 1_555 1_555
H76 C130 1_555 1_555
C131 H77 1_555 1_555
C132 N1 1_555 1_555
H78 C132 1_555 1_555
H79 C132 1_555 1_555
C133 C132 1_555 1_555
H80 C133 1_555 1_555
H81 C133 1_555 1_555
H82 C133 1_555 1_555
C134 N1 1_555 1_555
H83 C134 1_555 1_555
H84 C134 1_555 1_555
C135 C134 1_555 1_555
H85 C135 1_555 1_555
H86 C135 1_555 1_555
H87 C135 1_555 1_555
C136 H88 1_555 1_555
C137 N2 1_555 1_555
H89 C137 1_555 1_555
H90 C137 1_555 1_555
C138 C137 1_555 1_555
H91 C138 1_555 1_555
H92 C138 1_555 1_555
H93 C138 1_555 1_555
C139 N2 1_555 1_555
H94 C139 1_555 1_555
H95 C139 1_555 1_555
C140 C139 1_555 1_555
H96 C140 1_555 1_555
H97 C140 1_555 1_555
H98 C140 1_555 1_555
Zn1_2 O1_2 1_555 1_555
Zn1_3 O11 1_555 1_555
Zn1B O13 1_555 1_555
Zn1B_2 O13_2 1_555 1_555
Zn2_2 O4_2 1_555 1_555
Zn2B O6 1_555 1_555
Zn2A O7 1_555 1_555
Zn2A_2 O5A 1_555 1_555
Zn2_3 O7A 1_555 1_555
Zn2C O6A 1_555 1_555
Zn3_2 O9_2 1_555 1_555
Zn3_3 O10 1_555 1_555
Zn3B O12 1_555 1_555
Zn3B_2 O12_2 1_555 1_555
Zn4B O15B 1_555 1_555
Zn4B_2 O21 1_555 1_555
Zn4B_3 O23 1_555 1_555
Zn4_2 O23B 1_555 1_555
Zn5B O16B 1_555 1_555
Zn5B_2 O20 1_555 1_555
Zn5B_3 O22 1_555 1_555
Zn5_2 O22B 1_555 1_555
O1_2 C1_2 1_555 1_555
O2_2 C1_2 1_555 1_555
O3_2 C12_2 1_555 1_555
O4_2 C12_2 1_555 1_555
O5A C13A 1_555 1_555
O5_2 Zn2_2 1_555 1_555
O6A C38 1_555 1_555
O6B Zn2 1_555 1_555
O6B_2 Zn2_2 1_555 1_555
O7A C13A 1_555 1_555
O7A_2 Zn2 1_555 1_555
O7A_3 Zn2_2 1_555 1_555
O8_2 Zn1_2 1_555 1_555
O9_2 C41_2 1_555 1_555
O10_2 Zn3 1_555 1_555
O10_3 Zn3_2 1_555 1_555
O11_2 Zn1 1_555 1_555
O11_3 Zn1_2 1_555 1_555
O12_2 C74_2 1_555 1_555
O12B Zn3 1_555 1_555
O12B_2 Zn3_2 1_555 1_555
O13_2 C74_2 1_555 1_555
O13B Zn1 1_555 1_555
O13B_2 Zn1_2 1_555 1_555
O14_2 Zn3_2 1_555 1_555
O15B C86B 1_555 1_555
O16B C86B 1_555 1_555
O17B Zn5B 1_555 1_555
O18B Zn5B 1_555 1_555
O19B Zn5B 1_555 1_555
O20B Zn5 1_555 1_555
O20_2 Zn5B 1_555 1_555
O21B Zn4 1_555 1_555
O21_2 Zn4B 1_555 1_555
O22B C125B 1_555 1_555
O22B_2 Zn5 1_555 1_555
O22_2 Zn5B 1_555 1_555
O23B C125B 1_555 1_555
O23B_2 Zn4 1_555 1_555
O23_2 Zn4B 1_555 1_555
O24B Zn4B 1_555 1_555
C1_2 C2_2 1_555 1_555
C2_2 C3_2 1_555 1_555
C3_2 H1_2 1_555 1_555
C4_2 C3_2 1_555 1_555
H2_2 C4_2 1_555 1_555
C5_2 C4_2 1_555 1_555
C6_2 C5_2 1_555 1_555
H3_2 C6_2 1_555 1_555
C7_2 C2_2 1_555 1_555
H4_2 C7_2 1_555 1_555
C8_2 C5_2 1_555 1_555
C9_2 C8_2 1_555 1_555
H5_2 C9_2 1_555 1_555
C10_2 C9_2 1_555 1_555
H6_2 C10_2 1_555 1_555
C11_2 C10_2 1_555 1_555
C12_2 C11_2 1_555 1_555
C13A C14A 1_555 1_555
C14A C15A 1_555 1_555
C15A H7A 1_555 1_555
C16A C15A 1_555 1_555
H8A C16A 1_555 1_555
C17A C16A 1_555 1_555
C18A C17A 1_555 1_555
H9A C18A 1_555 1_555
C19A C14A 1_555 1_555
H10A C19A 1_555 1_555
C20A C17A 1_555 1_555
C21A C20A 1_555 1_555
H11A C21A 1_555 1_555
C22A C21A 1_555 1_555
H12A C22A 1_555 1_555
C23A C22A 1_555 1_555
C24A C23A 1_555 1_555
H13A C24A 1_555 1_555
C25A C20A 1_555 1_555
H14A C25A 1_555 1_555
C26A C37 1_555 1_555
C27A C28 1_555 1_555
H15A C27A 1_555 1_555
C30A C29 1_555 1_555
H16A C30A 1_555 1_555
C31A C32 1_555 1_555
H17A C31A 1_555 1_555
C34A C33 1_555 1_555
H18A C34A 1_555 1_555
C35A C36 1_555 1_555
H19A C35A 1_555 1_555
C39_2 C11_2 1_555 1_555
H21_2 C39_2 1_555 1_555
C40_2 C8_2 1_555 1_555
H22_2 C40_2 1_555 1_555
C41_2 O8_2 1_555 1_555
C42_2 O10_2 1_555 1_555
C43_2 C42_2 1_555 1_555
C44_2 C43_2 1_555 1_555
H23_2 C44_2 1_555 1_555
C45_2 C44_2 1_555 1_555
H24_2 C45_2 1_555 1_555
C46_2 C45_2 1_555 1_555
C47_2 C46_2 1_555 1_555
H25_2 C47_2 1_555 1_555
C48_2 C43_2 1_555 1_555
H26_2 C48_2 1_555 1_555
C49_2 C46_2 1_555 1_555
C50_2 C49_2 1_555 1_555
H27_2 C50_2 1_555 1_555
C51_2 C50_2 1_555 1_555
H28_2 C51_2 1_555 1_555
C52_2 C51_2 1_555 1_555
C53_2 C52_2 1_555 1_555
H29_2 C53_2 1_555 1_555
C54_2 C49_2 1_555 1_555
H30_2 C54_2 1_555 1_555
C55_2 C52_2 1_555 1_555
C56_2 C55_2 1_555 1_555
H31_2 C56_2 1_555 1_555
C57_2 C56_2 1_555 1_555
C58_2 C57_2 1_555 1_555
C59_2 C58_2 1_555 1_555
H32_2 C59_2 1_555 1_555
C60_2 C59_2 1_555 1_555
H33_2 C60_2 1_555 1_555
C61_2 C60_2 1_555 1_555
C62_2 C61_2 1_555 1_555
C63_2 C61_2 1_555 1_555
H34_2 C63_2 1_555 1_555
C64_2 C58_2 1_555 1_555
H35_2 C64_2 1_555 1_555
C65_2 C57_2 1_555 1_555
H36_2 C65_2 1_555 1_555
C66_2 C65_2 1_555 1_555
C67_2 C66_2 1_555 1_555
C68_2 C67_2 1_555 1_555
H37_2 C68_2 1_555 1_555
C69_2 C68_2 1_555 1_555
H38_2 C69_2 1_555 1_555
C70_2 C69_2 1_555 1_555
C71_2 C70_2 1_555 1_555
H39_2 C71_2 1_555 1_555
C72_2 C67_2 1_555 1_555
H40_2 C72_2 1_555 1_555
C73_2 C55_2 1_555 1_555
H41_2 C73_2 1_555 1_555
C74_2 C75_2 1_555 1_555
C75_2 C76_2 1_555 1_555
C76_2 H42_2 1_555 1_555
C77_2 C62_2 1_555 1_555
H43_2 C77_2 1_555 1_555
C78_2 C75_2 1_555 1_555
H44_2 C78_2 1_555 1_555
C79_2 C62_2 1_555 1_555
H45_2 C79_2 1_555 1_555
C80_2 C41_2 1_555 1_555
C81_2 C80_2 1_555 1_555
H46_2 C81_2 1_555 1_555
C82_2 C81_2 1_555 1_555
H47_2 C82_2 1_555 1_555
C83_2 C70_2 1_555 1_555
C84_2 C83_2 1_555 1_555
H48_2 C84_2 1_555 1_555
C85_2 C80_2 1_555 1_555
H49_2 C85_2 1_555 1_555
C86B C87B 1_555 1_555
C87B C88B 1_555 1_555
C88B H50B 1_555 1_555
C89B C88B 1_555 1_555
H51B C89B 1_555 1_555
C90B C89B 1_555 1_555
C91B C90B 1_555 1_555
H52B C91B 1_555 1_555
C92B C87B 1_555 1_555
H53B C92B 1_555 1_555
C93B C90B 1_555 1_555
C94B C93B 1_555 1_555
H54B C94B 1_555 1_555
C95B C94B 1_555 1_555
H55B C95B 1_555 1_555
C96B C95B 1_555 1_555
C97B C96B 1_555 1_555
H56B C97B 1_555 1_555
C98B C93B 1_555 1_555
H57B C98B 1_555 1_555
C99B C96B 1_555 1_555
C100B C99B 1_555 1_555
H58B C100B 1_555 1_555
C101B C100B 1_555 1_555
C102B C101B 1_555 1_555
C103B C102B 1_555 1_555
H59B C103B 1_555 1_555
C104B C103B 1_555 1_555
H60B C104B 1_555 1_555
C105B C104B 1_555 1_555
C106B C105B 1_555 1_555
C107B C106B 1_555 1_555
H61B C107B 1_555 1_555
C108B C107B 1_555 1_555
H62B C108B 1_555 1_555
C109B C108B 1_555 1_555
C110B O20B 1_555 1_555
C111B C109B 1_555 1_555
H63B C111B 1_555 1_555
C112B C106B 1_555 1_555
H64B C112B 1_555 1_555
C113B C105B 1_555 1_555
H65B C113B 1_555 1_555
C114B C102B 1_555 1_555
H66B C114B 1_555 1_555
C115B C101B 1_555 1_555
H67B C115B 1_555 1_555
C116B C115B 1_555 1_555
C117B C116B 1_555 1_555
C118B C117B 1_555 1_555
H68B C118B 1_555 1_555
C119B C118B 1_555 1_555
H69B C119B 1_555 1_555
C120B C119B 1_555 1_555
C121B C120B 1_555 1_555
C122B C121B 1_555 1_555
H70B C122B 1_555 1_555
C123B C122B 1_555 1_555
H71B C123B 1_555 1_555
C124B C123B 1_555 1_555
C125B C124B 1_555 1_555
C126B C124B 1_555 1_555
H72B C126B 1_555 1_555
C127B C121B 1_555 1_555
H73B C127B 1_555 1_555
C128B C120B 1_555 1_555
H74B C128B 1_555 1_555
C129B C117B 1_555 1_555
H75B C129B 1_555 1_555
C130B C99B 1_555 1_555
H76B C130B 1_555 1_555
C6 C7 1_555 1_555
C18 C19 1_555 1_555
C24 C25 1_555 1_555
C39 C40 1_555 1_555
C47 C48 1_555 1_555
C53 C54 1_555 1_555
C63 C64 1_555 1_555
C66 C73 1_555 1_555
C71 C72 1_555 1_555
C76 C77 1_555 1_555
C78 C79 1_555 1_555
C82 C83 1_555 1_555
C84 C85 1_555 1_555
C91 C92 1_555 1_555
C97 C98 1_555 1_555
C111 C112 1_555 1_555
C113 C114 1_555 1_555
C116 C130 1_555 1_555
C126 C127 1_555 1_555
C128 C129 1_555 1_555
O11_2 C42_2 1_555 1_555
O21B C110B 1_555 1_555
C6_2 C7_2 1_555 1_555
C18A C19A 1_555 1_555
C23A C26A 1_555 1_555
C24A C25A 1_555 1_555
C26A C27A 1_555 1_555
C30A C31A 1_555 1_555
C34A C35A 1_555 1_555
C39_2 C40_2 1_555 1_555
C47_2 C48_2 1_555 1_555
C53_2 C54_2 1_555 1_555
C63_2 C64_2 1_555 1_555
C66_2 C73_2 1_555 1_555
C71_2 C72_2 1_555 1_555
C76_2 C77_2 1_555 1_555
C78_2 C79_2 1_555 1_555
C82_2 C83_2 1_555 1_555
C84_2 C85_2 1_555 1_555
C91B C92B 1_555 1_555
C97B C98B 1_555 1_555
C109B C110B 1_555 1_555
C111B C112B 1_555 1_555
C113B C114B 1_555 1_555
C116B C130B 1_555 1_555
C126B C127B 1_555 1_555
C128B C129B 1_555 1_555

#END
