
#######################################################################
#
#                 Cambridge Crystallographic Data Centre
#                                CCDC 
#
#######################################################################
#
# If this CIF has been generated from an entry in the Cambridge 
# Structural Database, then it will include bibliographic, chemical, 
# crystal, experimental, refinement or atomic coordinate data resulting 
# from the CCDC's data processing and validation procedures.
#
#######################################################################

data_CAXVEE
_symmetry_cell_setting           monoclinic
_symmetry_space_group_name_H-M   'C 2/c'
_symmetry_Int_Tables_number      15
_space_group_name_Hall           '-C 2yn'
loop_
_symmetry_equiv_pos_site_id
_symmetry_equiv_pos_as_xyz
1 x,y,z
2 -x,y,1/2-z
3 1/2+x,1/2+y,z
4 1/2-x,1/2+y,1/2-z
5 -x,-y,-z
6 x,-y,1/2+z
7 1/2-x,1/2-y,-z
8 1/2+x,1/2-y,1/2+z
_cell_length_a                   39.776(8)
_cell_length_b                   24.693(5)
_cell_length_c                   21.823(4)
_cell_angle_alpha                90
_cell_angle_beta                 117.94(3)
_cell_angle_gamma                90
_cell_volume                     18935.9
loop_
_atom_site_label
_atom_site_type_symbol
_atom_site_fract_x
_atom_site_fract_y
_atom_site_fract_z
Co1 Co 0.243183(12) 0.473734(14) 0.26312(2)
Co2 Co 0.294763(12) 0.490064(16) 0.43802(2)
N1 N 0.2879(2) 0.63039(18) 0.5395(4)
N2 N 0.28238(19) 0.4032(2) 0.5925(3)
N3 N 0.23079(15) 0.46694(16) 0.1366(2)
O1 O 0.28952(7) 0.52166(8) 0.34350(13)
O2 O 0.73705(7) 0.98818(10) 0.40450(14)
O3 O 0.70194(7) 0.97354(10) 0.29087(13)
O4 O 0.29821(8) 1.41285(9) 0.40733(13)
O5 O 0.26609(8) 1.40064(9) 0.29206(14)
O6 O 0.29497(9) 0.56811(10) 0.47474(16)
O7 O 0.30220(9) 0.45776(11) 0.53298(14)
O8 O 0.35393(9) 0.49874(16) 0.4825(2)
O9 O 0.24440(8) 0.56053(10) 0.25366(15)
O10 O 0.26501(12) 0.47126(13) 0.1826(2)
O11 O 0.20672(8) 0.46390(11) 0.15759(14)
O12 O 0.22241(17) 0.4660(2) 0.0767(2)
C1 C 0.70599(10) 0.98035(12) 0.3509(2)
C2 C 0.67110(10) 0.97955(13) 0.35891(18)
C3 C 0.67232(11) 0.98642(16) 0.4230(2)
H1 H 0.6957 0.9920 0.4619
C4 C 0.64021(11) 0.98515(16) 0.43024(19)
H2 H 0.6422 0.9900 0.4740
C5 C 0.60403(10) 0.97665(14) 0.37312(18)
C6 C 0.60288(11) 0.96972(16) 0.30904(19)
H3 H 0.5796 0.9639 0.2701
C7 C 0.63539(11) 0.97126(16) 0.30165(19)
H4 H 0.6336 0.9667 0.2579
C8 C 0.56958(9) 0.97440(14) 0.38095(17)
C9 C 0.56305(10) 1.00981(14) 0.42468(19)
H5 H 0.5818 1.0347 0.4512
C10 C 0.53027(10) 1.00887(12) 0.42950(18)
H6 H 0.5270 1.0334 0.4586
C11 C 0.50154(9) 0.97197(11) 0.39184(16)
C12 C 0.50785(10) 0.93477(14) 0.35085(18)
H7 H 0.4893 0.9090 0.3263
C13 C 0.54144(11) 0.93533(15) 0.3458(2)
H8 H 0.5453 0.9094 0.3188
C14 C 0.46476(8) 0.97178(10) 0.39499(15)
C15 C 0.44621(8) 0.92326(11) 0.39316(15)
H9 H 0.4579 0.8907 0.3930
C16 C 0.41151(8) 0.92225(10) 0.39157(14)
C17 C 0.39133(8) 0.87016(11) 0.38695(16)
C18 C 0.35181(10) 0.86707(12) 0.3516(2)
H10 H 0.3376 0.8983 0.3329
C19 C 0.33357(10) 0.81820(13) 0.3439(3)
H11 H 0.3071 0.8174 0.3204
C20 C 0.35326(9) 0.76996(12) 0.36997(18)
C21 C 0.33335(9) 0.71696(11) 0.35705(18)
C22 C 0.29717(11) 0.71085(13) 0.3043(2)
H12 H 0.2846 0.7409 0.2777
C23 C 0.27883(11) 0.66224(14) 0.2893(2)
H13 H 0.2544 0.6598 0.2523
C24 C 0.29557(9) 0.61680(11) 0.32768(17)
C25 C 0.33175(11) 0.62128(13) 0.3794(2)
H14 H 0.3442 0.5908 0.4050
C26 C 0.35033(11) 0.67061(15) 0.3945(2)
H15 H 0.3750 0.6727 0.4309
C27 C 0.39265(10) 0.77429(14) 0.4054(3)
H16 H 0.4070 0.7432 0.4243
C28 C 0.41121(10) 0.82257(13) 0.4135(2)
H17 H 0.4377 0.8234 0.4374
C29 C 0.39400(9) 0.97136(10) 0.39230(15)
H18 H 0.3702 0.9712 0.3906
C30 C 0.41197(9) 1.02010(10) 0.39557(16)
C31 C 0.39286(9) 1.07279(11) 0.39380(17)
C32 C 0.35440(9) 1.07992(12) 0.35028(19)
H19 H 0.3397 1.0510 0.3241
C33 C 0.33763(9) 1.12978(12) 0.3455(2)
H20 H 0.3118 1.1337 0.3156
C34 C 0.35769(10) 1.17370(12) 0.38309(19)
C35 C 0.33902(11) 1.22779(12) 0.37496(19)
C36 C 0.31244(10) 1.24664(13) 0.3129(2)
H21 H 0.3053 1.2247 0.2741
C37 C 0.29549(11) 1.29643(13) 0.3039(2)
H22 H 0.2773 1.3076 0.2602
C38 C 0.34978(13) 1.26205(14) 0.4325(2)
H23 H 0.3685 1.2510 0.4759
C39 C 0.33274(13) 1.31211(14) 0.4250(2)
H24 H 0.3397 1.3338 0.4639
C40 C 0.39641(11) 1.16585(13) 0.4285(2)
H25 H 0.4109 1.1947 0.4553
C41 C 0.41333(10) 1.11643(13) 0.4343(2)
H26 H 0.4389 1.1120 0.4659
C42 C 0.44704(9) 1.01987(11) 0.39661(16)
H27 H 0.4590 1.0526 0.3984
C43 C 0.28823(11) 1.38537(12) 0.3529(2)
C44 C 0.30594(10) 1.33044(12) 0.36174(18)
C45 C 0.2845(2) 0.58153(18) 0.5163(3)
H28 H 0.2736 0.5556 0.5322
C46 C 0.3115(5) 0.6706(3) 0.5241(7)
H29 H 0.3259 0.6921 0.5654
H30 H 0.3296 0.6506 0.5148
C47 C 0.2908(7) 0.7072(7) 0.4665(11)
H31 H 0.2908 0.6931 0.4255
H32 H 0.3028 0.7421 0.4772
H33 H 0.2650 0.7105 0.4587
C48 C 0.2859(6) 0.6404(4) 0.6058(9)
H34 H 0.2853 0.6061 0.6270
H35 H 0.3082 0.6603 0.6381
C49 C 0.2517(6) 0.6713(7) 0.5903(10)
H36 H 0.2501 0.7018 0.5618
H37 H 0.2527 0.6839 0.6328
H38 H 0.2297 0.6487 0.5662
C50 C 0.2817(2) 0.4253(3) 0.5378(3)
H39 H 0.2619 0.4138 0.4958
C51 C 0.3096(4) 0.4260(4) 0.6609(5)
H40 H 0.2993 0.4265 0.6933
H41 H 0.3182 0.4619 0.6570
C52 C 0.3403(4) 0.3842(9) 0.6799(11)
H42 H 0.3632 0.4014 0.6848
H43 H 0.3323 0.3573 0.6440
H44 H 0.3452 0.3674 0.7229
C53 C 0.2431(4) 0.3847(5) 0.5946(6)
H45 H 0.2429 0.3926 0.6379
H46 H 0.2198 0.3966 0.5549
C54 C 0.2540(5) 0.3330(7) 0.5894(8)
H47 H 0.2591 0.3306 0.5506
H48 H 0.2339 0.3082 0.5828
H49 H 0.2766 0.3238 0.6312
C55 C 0.27498(10) 0.56391(12) 0.30763(19)
Co1B Co 0.743183(12) 0.973734(14) 0.26312(2)
Co1_2 Co 0.243183(12) 1.473734(14) 0.26312(2)
Co2B Co 0.794763(12) 0.990064(16) 0.43802(2)
Co2_2 Co 0.294763(12) 1.490064(16) 0.43802(2)
O2B O 0.23705(7) 0.48818(10) 0.40450(14)
O3B O 0.20194(7) 0.47354(10) 0.29087(13)
O4_2 O 0.29821(8) 0.41285(9) 0.40733(13)
O5_2 O 0.26609(8) 0.40064(9) 0.29206(14)
loop_
_geom_bond_atom_site_label_1
_geom_bond_atom_site_label_2
_geom_bond_site_symmetry_1
_geom_bond_site_symmetry_2
Co1 O1 1_555 1_555
Co2 O1 1_555 1_555
N1 C45 1_555 1_555
N2 C50 1_555 1_555
N3 O10 1_555 1_555
O1 C55 1_555 1_555
O2 C1 1_555 1_555
O3 C1 1_555 1_555
O4 C43 1_555 1_555
O5 C43 1_555 1_555
O6 Co2 1_555 1_555
O7 Co2 1_555 1_555
O8 Co2 1_555 1_555
O9 Co1 1_555 1_555
O10 Co1 1_555 1_555
O11 Co1 1_555 1_555
O12 N3 1_555 1_555
C1 C2 1_555 1_555
C2 C3 1_555 1_555
C3 H1 1_555 1_555
C4 C3 1_555 1_555
H2 C4 1_555 1_555
C5 C4 1_555 1_555
C6 C5 1_555 1_555
H3 C6 1_555 1_555
C7 C2 1_555 1_555
H4 C7 1_555 1_555
C8 C5 1_555 1_555
C9 C8 1_555 1_555
H5 C9 1_555 1_555
C10 C9 1_555 1_555
H6 C10 1_555 1_555
C11 C10 1_555 1_555
C12 C11 1_555 1_555
H7 C12 1_555 1_555
C13 C8 1_555 1_555
H8 C13 1_555 1_555
C14 C11 1_555 1_555
C15 C14 1_555 1_555
H9 C15 1_555 1_555
C16 C15 1_555 1_555
C17 C16 1_555 1_555
C18 C17 1_555 1_555
H10 C18 1_555 1_555
C19 C18 1_555 1_555
H11 C19 1_555 1_555
C20 C19 1_555 1_555
C21 C20 1_555 1_555
C22 C21 1_555 1_555
H12 C22 1_555 1_555
C23 C22 1_555 1_555
H13 C23 1_555 1_555
C24 C23 1_555 1_555
C25 C24 1_555 1_555
H14 C25 1_555 1_555
C26 C21 1_555 1_555
H15 C26 1_555 1_555
C27 C20 1_555 1_555
H16 C27 1_555 1_555
C28 C17 1_555 1_555
H17 C28 1_555 1_555
C29 C16 1_555 1_555
H18 C29 1_555 1_555
C30 C29 1_555 1_555
C31 C30 1_555 1_555
C32 C31 1_555 1_555
H19 C32 1_555 1_555
C33 C32 1_555 1_555
H20 C33 1_555 1_555
C34 C33 1_555 1_555
C35 C34 1_555 1_555
C36 C35 1_555 1_555
H21 C36 1_555 1_555
C37 C36 1_555 1_555
H22 C37 1_555 1_555
C38 C35 1_555 1_555
H23 C38 1_555 1_555
C39 C38 1_555 1_555
H24 C39 1_555 1_555
C40 C34 1_555 1_555
H25 C40 1_555 1_555
C41 C31 1_555 1_555
H26 C41 1_555 1_555
C42 C14 1_555 1_555
H27 C42 1_555 1_555
C43 C44 1_555 1_555
C44 C37 1_555 1_555
C45 O6 1_555 1_555
H28 C45 1_555 1_555
C46 N1 1_555 1_555
H29 C46 1_555 1_555
H30 C46 1_555 1_555
C47 C46 1_555 1_555
H31 C47 1_555 1_555
H32 C47 1_555 1_555
H33 C47 1_555 1_555
C48 N1 1_555 1_555
H34 C48 1_555 1_555
H35 C48 1_555 1_555
C49 C48 1_555 1_555
H36 C49 1_555 1_555
H37 C49 1_555 1_555
H38 C49 1_555 1_555
C50 O7 1_555 1_555
H39 C50 1_555 1_555
C51 N2 1_555 1_555
H40 C51 1_555 1_555
H41 C51 1_555 1_555
C52 C51 1_555 1_555
H42 C52 1_555 1_555
H43 C52 1_555 1_555
H44 C52 1_555 1_555
C53 N2 1_555 1_555
H45 C53 1_555 1_555
H46 C53 1_555 1_555
C54 C53 1_555 1_555
H47 C54 1_555 1_555
H48 C54 1_555 1_555
H49 C54 1_555 1_555
C55 O9 1_555 1_555
Co1B O3 1_555 1_555
Co1_2 O5 1_555 1_555
Co2B O2 1_555 1_555
Co2_2 O4 1_555 1_555
O2B Co2 1_555 1_555
O3B Co1 1_555 1_555
O4_2 Co2 1_555 1_555
O5_2 Co1 1_555 1_555
N3 O11 1_555 1_555
C6 C7 1_555 1_555
C12 C13 1_555 1_555
C24 C55 1_555 1_555
C25 C26 1_555 1_555
C27 C28 1_555 1_555
C30 C42 1_555 1_555
C39 C44 1_555 1_555
C40 C41 1_555 1_555

#END
