
#######################################################################
#
#                 Cambridge Crystallographic Data Centre
#                                CCDC 
#
#######################################################################
#
# If this CIF has been generated from an entry in the Cambridge 
# Structural Database, then it will include bibliographic, chemical, 
# crystal, experimental, refinement or atomic coordinate data resulting 
# from the CCDC's data processing and validation procedures.
#
#######################################################################

data_CAXWOP
_symmetry_cell_setting           triclinic
_symmetry_space_group_name_H-M   'P -1'
_symmetry_Int_Tables_number      2
_space_group_name_Hall           '-P 1'
loop_
_symmetry_equiv_pos_site_id
_symmetry_equiv_pos_as_xyz
1 x,y,z
2 -x,-y,-z
_cell_length_a                   7.6829(17)
_cell_length_b                   10.533(2)
_cell_length_c                   11.055(2)
_cell_angle_alpha                62.913(2)
_cell_angle_beta                 80.351(2)
_cell_angle_gamma                85.288(2)
_cell_volume                     785.205
loop_
_atom_site_label
_atom_site_type_symbol
_atom_site_fract_x
_atom_site_fract_y
_atom_site_fract_z
Mn1 Mn 0.70449(4) 0.84415(3) -0.24329(3)
Mn2 Mn 0.5000 0.5000 0.0000
C1 C 0.8488(3) 0.6224(2) 0.02276(19)
C2 C 0.9604(3) 0.6083(2) 0.13042(19)
H1 H 1.0763 0.5715 0.1116
H2 H 0.9756 0.7019 0.1238
C3 C 0.8315(3) 0.5647(2) 0.36323(19)
H3 H 0.8538 0.6597 0.3379
C4 C 0.7506(3) 0.4789(2) 0.4941(2)
C5 C 0.7106(3) 0.3392(2) 0.5269(2)
H4 H 0.6501 0.2808 0.6129
C6 C 0.7607(3) 0.2881(2) 0.4323(2)
H5 H 0.7354 0.1945 0.4544
C7 C 0.8482(3) 0.3750(2) 0.3048(2)
H6 H 0.8865 0.3395 0.2416
C8 C 0.7114(3) 0.5344(2) 0.59648(19)
O1 O 0.8795(2) 0.72893(16) -0.09018(14)
O2 O 0.7447(2) 0.52419(15) 0.05382(15)
O3 O 0.6833(2) 0.99438(17) -0.15246(17)
H7 H 0.7837 1.0387 -0.1756
H8 H 0.5908 1.0504 -0.1782
N1 N 0.2382(3) 0.8764(3) -0.0498(3)
N2 N 0.3505(3) 0.80560(19) -0.06993(19)
N3 N 0.4698(2) 0.73375(17) -0.08836(18)
N4 N 0.6267(2) 0.45854(18) 0.72322(17)
N5 N 0.6250(2) 0.54369(18) 0.78304(16)
N6 N 0.7051(2) 0.66435(19) 0.69586(17)
N7 N 0.7620(3) 0.66163(19) 0.57567(17)
N8 N 0.5000 1.0000 -0.5000
N9 N 0.5359(4) 0.9777(2) -0.3941(2)
N10 N 1.0000 1.0000 -0.5000
N11 N 0.9465(3) 0.9470(2) -0.3828(2)
N12 N 0.8784(2) 0.51227(17) 0.27178(15)
Mn1A Mn 0.29551(4) 0.15585(3) 0.24329(3)
Mn1_2 Mn 0.70449(4) 0.84415(3) 0.75671(3)
Mn1A_2 Mn 0.29551(4) 1.15585(3) -0.75671(3)
Mn1A_3 Mn 1.29551(4) 1.15585(3) -0.75671(3)
Mn1A_4 Mn 0.29551(4) 0.15585(3) -0.75671(3)
Mn2_2 Mn 0.5000 0.5000 1.0000
Mn2_3 Mn 0.5000 0.5000 -1.0000
C1A C 0.1512(3) 0.3776(2) -0.02276(19)
C2A C 0.0396(3) 0.3917(2) -0.13042(19)
H1A H -0.0763 0.4285 -0.1116
H2A H 0.0244 0.2981 -0.1238
C3A C 0.1685(3) 0.4353(2) -0.36323(19)
H3A H 0.1462 0.3403 -0.3379
C4A C 0.2494(3) 0.5211(2) -0.4941(2)
C5A C 0.2894(3) 0.6608(2) -0.5269(2)
H4A H 0.3499 0.7192 -0.6129
C6A C 0.2393(3) 0.7119(2) -0.4323(2)
H5A H 0.2646 0.8055 -0.4544
C7A C 0.1518(3) 0.6250(2) -0.3048(2)
H6A H 0.1135 0.6605 -0.2416
C8A C 0.2886(3) 0.4656(2) -0.59648(19)
O1A O 0.1205(2) 0.27107(16) 0.09018(14)
O2A O 0.2553(2) 0.47581(15) -0.05382(15)
O3A O 0.3167(2) 0.00562(17) 0.15246(17)
H7A H 0.2163 -0.0387 0.1756
H8A H 0.4092 -0.0504 0.1782
N1A N 0.7618(3) 0.1236(3) 0.0498(3)
N2A N 0.6495(3) 0.19440(19) 0.06993(19)
N3A N 0.5302(2) 0.26625(17) 0.08836(18)
N4A N 0.3733(2) 0.54146(18) -0.72322(17)
N5A N 0.3750(2) 0.45631(18) -0.78304(16)
N5_2 N 0.6250(2) 0.54369(18) -0.21696(16)
N5A_2 N 0.3750(2) 0.45631(18) 0.21696(16)
N6A N 0.2949(2) 0.33565(19) -0.69586(17)
N6_2 N 0.7051(2) 0.66435(19) -0.30414(17)
N6A_2 N 0.2949(2) 0.33565(19) 0.30414(17)
N7A N 0.2380(3) 0.33837(19) -0.57567(17)
N9A N 0.4641(4) 1.0223(2) -0.6059(2)
N9A_2 N 0.4641(4) 0.0223(2) 0.3941(2)
N11A N 1.0535(3) 1.0530(2) -0.6172(2)
N11A_2 N 0.0535(3) 0.0530(2) 0.3828(2)
N12A N 0.1216(2) 0.48773(17) -0.27178(15)
O4 O 0.5857(2) 0.80700(18) 0.15024(17)
H9 H 0.5089 0.7555 0.1568
H10 H 0.5987 0.8613 0.0738
O5 O 0.0225(3) 0.1089(2) 0.7720(2)
H11 H 0.0748 0.0478 0.8520
H12 H 0.0341 0.0876 0.7044
loop_
_geom_bond_atom_site_label_1
_geom_bond_atom_site_label_2
_geom_bond_site_symmetry_1
_geom_bond_site_symmetry_2
Mn1 O1 1_555 1_555
Mn2 O2 1_555 1_555
C1 C2 1_555 1_555
C2 H1 1_555 1_555
H2 C2 1_555 1_555
C3 H3 1_555 1_555
C4 C3 1_555 1_555
C5 C4 1_555 1_555
H4 C5 1_555 1_555
C6 C5 1_555 1_555
H5 C6 1_555 1_555
C7 C6 1_555 1_555
H6 C7 1_555 1_555
C8 C4 1_555 1_555
O1 C1 1_555 1_555
O2 C1 1_555 1_555
O3 Mn1 1_555 1_555
H7 O3 1_555 1_555
H8 O3 1_555 1_555
O4 H9 1_555 1_555
H10 O4 1_555 1_555
O5 H11 1_555 1_555
H12 O5 1_555 1_555
N1 N2 1_555 1_555
N2 N3 1_555 1_555
N3 Mn1 1_555 1_555
N4 C8 1_555 1_555
N5 N4 1_555 1_555
N6 N5 1_555 1_555
N7 C8 1_555 1_555
N8 N9 1_555 1_555
N9 Mn1 1_555 1_555
N10 N11 1_555 1_555
N11 Mn1 1_555 1_555
N12 C2 1_555 1_555
Mn1A O1A 1_555 1_555
Mn1_2 N6 1_555 1_555
Mn1A_2 N9A 1_555 1_555
Mn1A_3 N11A 1_555 1_555
Mn1A_4 N6A 1_555 1_555
Mn2_2 N5 1_555 1_555
Mn2_3 N5A 1_555 1_555
C1A C2A 1_555 1_555
C2A H1A 1_555 1_555
H2A C2A 1_555 1_555
C3A H3A 1_555 1_555
C4A C3A 1_555 1_555
C5A C4A 1_555 1_555
H4A C5A 1_555 1_555
C6A C5A 1_555 1_555
H5A C6A 1_555 1_555
C7A C6A 1_555 1_555
H6A C7A 1_555 1_555
C8A C4A 1_555 1_555
O1A C1A 1_555 1_555
O2A Mn2 1_555 1_555
O3A Mn1A 1_555 1_555
H7A O3A 1_555 1_555
H8A O3A 1_555 1_555
N1A N2A 1_555 1_555
N2A N3A 1_555 1_555
N3A Mn2 1_555 1_555
N4A C8A 1_555 1_555
N5A N4A 1_555 1_555
N5_2 Mn2 1_555 1_555
N5A_2 Mn2 1_555 1_555
N6A N5A 1_555 1_555
N6_2 Mn1 1_555 1_555
N6A_2 Mn1A 1_555 1_555
N7A C8A 1_555 1_555
N9A N8 1_555 1_555
N9A_2 Mn1A 1_555 1_555
N11A N10 1_555 1_555
N11A_2 Mn1A 1_555 1_555
N12A C2A 1_555 1_555
Mn2 N3 1_555 1_555
C3 N12 1_555 1_555
C7 N12 1_555 1_555
N6 N7 1_555 1_555
Mn1A N3A 1_555 1_555
C1A O2A 1_555 1_555
C3A N12A 1_555 1_555
C7A N12A 1_555 1_555
N5_2 N6_2 1_555 1_555
N5A_2 N6A_2 1_555 1_555
N6A N7A 1_555 1_555

#END
