
#######################################################################
#
#                 Cambridge Crystallographic Data Centre
#                                CCDC 
#
#######################################################################
#
# If this CIF has been generated from an entry in the Cambridge 
# Structural Database, then it will include bibliographic, chemical, 
# crystal, experimental, refinement or atomic coordinate data resulting 
# from the CCDC's data processing and validation procedures.
#
#######################################################################

data_CAXXAC
_symmetry_cell_setting           monoclinic
_symmetry_space_group_name_H-M   'P 21/n'
_symmetry_Int_Tables_number      14
_space_group_name_Hall           '-P 2yn'
loop_
_symmetry_equiv_pos_site_id
_symmetry_equiv_pos_as_xyz
1 x,y,z
2 1/2-x,1/2+y,1/2-z
3 -x,-y,-z
4 1/2+x,1/2-y,1/2+z
_cell_length_a                   13.0975(6)
_cell_length_b                   18.1635(9)
_cell_length_c                   21.5542(10)
_cell_angle_alpha                90
_cell_angle_beta                 102.238(1)
_cell_angle_gamma                90
_cell_volume                     5011.14
loop_
_atom_site_label
_atom_site_type_symbol
_atom_site_fract_x
_atom_site_fract_y
_atom_site_fract_z
N6 N 0.5389(15) 0.3578(11) 0.2940(10)
O14 O 0.4537(14) 0.3602(10) 0.3063(9)
O15 O 0.6008(12) 0.4055(8) 0.3118(7)
O16 O 0.5499(10) 0.3158(7) 0.2534(6)
Co1 Co 0.97164(5) 0.21664(3) 0.21797(3)
C1 C 1.2049(4) 0.0021(2) 0.2587(2)
N1 N 1.0645(3) 0.11857(19) 0.22585(17)
O1 O 1.3562(2) -0.06108(16) 0.24740(14)
Co2 Co 0.77503(5) 0.29236(3) 0.13423(3)
C2 C 1.1265(4) 0.0147(3) 0.2910(2)
H1 H 1.1193 -0.0166 0.3251
N2 N 0.8688(5) 0.0122(3) -0.0322(3)
O2 O 1.2806(2) -0.09418(16) 0.32739(14)
Co3 Co 1.49007(4) -0.12247(3) 0.26595(3)
C3 C 1.0579(4) 0.0728(3) 0.2737(2)
H2 H 1.0043 0.0806 0.2966
N3 N 1.5738(3) -0.03022(19) 0.24378(17)
O3 O 0.9036(2) 0.22003(16) 0.11822(13)
Co4 Co 1.39059(5) -0.16615(3) 0.38154(3)
C4 C 1.1381(4) 0.1043(3) 0.1929(2)
H3 H 1.1417 0.1350 0.1577
N4 N 1.3811(3) -0.1040(2) 0.46589(18)
O4 O 1.4868(3) -0.24129(17) 0.44217(14)
C5 C 1.2087(4) 0.0477(3) 0.2073(2)
H4 H 1.2595 0.0397 0.1825
N5 N 0.6838(3) 0.2648(2) 0.04383(17)
O5 O 0.8513(2) 0.15014(17) 0.22988(15)
C6 C 1.2868(3) -0.0566(2) 0.2795(2)
O6 O 0.7098(2) 0.20277(16) 0.16899(14)
C7 C 0.9263(4) 0.1433(3) 0.0350(2)
O7 O 1.5130(2) -0.08842(16) 0.36611(13)
C8 C 0.8928(5) 0.0812(3) 0.0643(3)
H5 H 0.8885 0.0829 0.1078
O8 O 0.8201(3) 0.38557(17) 0.09134(15)
C9 C 0.8662(6) 0.0176(3) 0.0291(4)
H6 H 0.8450 -0.0242 0.0496
O9 O 1.0187(3) 0.22426(16) 0.31537(13)
C10 C 0.9027(6) 0.0715(4) -0.0590(3)
H7 H 0.9052 0.0683 -0.1027
O10 O 1.4528(2) -0.15419(17) 0.17036(14)
C11 C 0.9345(5) 0.1375(3) -0.0278(3)
H8 H 0.9607 0.1770 -0.0487
O11 O 0.8794(2) 0.31170(15) 0.21646(13)
H9 H 0.8440 0.3122 0.2533
C12 C 0.9509(4) 0.2135(2) 0.0728(2)
O12 O 1.0852(2) 0.28712(15) 0.20048(13)
H10 H 1.1535 0.2766 0.2300
C13 C 1.6905(4) 0.0896(2) 0.2180(2)
C14 C 1.5870(5) 0.0840(3) 0.1922(4)
H11 H 1.5529 0.1215 0.1647
O13 O 0.6518(3) 0.35476(18) 0.15747(16)
C15 C 1.5311(4) 0.0236(3) 0.2060(4)
H12 H 1.4586 0.0209 0.1874
C16 C 1.6742(4) -0.0237(3) 0.2679(4)
H13 H 1.7070 -0.0616 0.2955
C17 C 1.7347(5) 0.0338(3) 0.2562(4)
H14 H 1.8072 0.0346 0.2748
C18 C 0.7562(4) 0.1528(2) 0.20457(19)
C19 C 1.3910(4) 0.0089(2) 0.5548(2)
C20 C 1.3048(4) 0.0008(3) 0.5051(2)
H15 H 1.2472 0.0336 0.5007
C21 C 1.3043(4) -0.0555(3) 0.4621(2)
H16 H 1.2455 -0.0598 0.4279
C22 C 1.4606(4) -0.1000(2) 0.5167(2)
H17 H 1.5136 -0.1366 0.5221
C23 C 1.4682(4) -0.0443(2) 0.5616(2)
H18 H 1.5260 -0.0427 0.5967
C24 C 1.6008(3) -0.0761(2) 0.40260(19)
C25 C 0.5912(4) 0.2338(3) -0.0818(2)
C26 C 0.5913(4) 0.3050(3) -0.0578(2)
H19 H 0.5597 0.3441 -0.0844
C27 C 0.6372(4) 0.3186(3) 0.0047(2)
H20 H 0.6361 0.3672 0.0207
C28 C 0.6773(4) 0.1964(3) 0.0218(2)
H21 H 0.7050 0.1579 0.0502
C29 C 0.6320(4) 0.1781(3) -0.0405(2)
H22 H 0.6293 0.1284 -0.0543
C30 C 1.0477(3) 0.2802(2) 0.3484(2)
O17 O 1.2662(3) -0.23561(19) 0.38813(18)
C31 C 1.1655(13) -0.2356(8) 0.3646(7)
C32 C 1.0919(16) -0.2353(11) 0.4145(10)
Co3A Co 1.00993(4) 0.37753(3) 0.23405(3)
Co4A Co 1.10941(5) 0.33385(3) 0.11846(3)
O4A O 1.0132(3) 0.25871(17) 0.05783(14)
O8A O 1.6799(3) -0.11443(17) 0.40866(15)
O10A O 1.0472(2) 0.34581(17) 0.32964(14)
O11A O 1.6206(2) -0.18830(15) 0.28354(13)
C12A C 1.5491(4) -0.2865(2) 0.4272(2)
O12A O 1.4148(2) -0.21288(15) 0.29952(13)
C13_2 C 0.6905(4) 0.0896(2) 0.2180(2)
C18_2 C 1.7562(4) 0.1528(2) 0.20457(19)
C19B C 1.6090(4) -0.0089(2) 0.4452(2)
C24A C 0.8992(3) 0.4239(2) 0.09740(19)
C24B C 1.3992(3) 0.0761(2) 0.59740(19)
C25C C 1.0912(4) 0.2662(3) 0.4182(2)
C30A C 1.4523(3) -0.2198(2) 0.1516(2)
C30C C 0.5477(3) 0.2198(2) -0.1516(2)
loop_
_geom_bond_atom_site_label_1
_geom_bond_atom_site_label_2
_geom_bond_site_symmetry_1
_geom_bond_site_symmetry_2
Co1 N1 1_555 1_555
C1 C2 1_555 1_555
N1 C3 1_555 1_555
O1 Co3 1_555 1_555
Co2 O3 1_555 1_555
C2 H1 1_555 1_555
N2 C9 1_555 1_555
O2 Co4 1_555 1_555
Co3 N3 1_555 1_555
C3 C2 1_555 1_555
H2 C3 1_555 1_555
N3 C15 1_555 1_555
O3 Co1 1_555 1_555
Co4 N4 1_555 1_555
C4 N1 1_555 1_555
H3 C4 1_555 1_555
N4 C21 1_555 1_555
O4 Co4 1_555 1_555
C5 C1 1_555 1_555
H4 C5 1_555 1_555
N5 Co2 1_555 1_555
O5 Co1 1_555 1_555
C6 C1 1_555 1_555
N6 O14 1_555 1_555
O6 Co2 1_555 1_555
C7 C8 1_555 1_555
O7 Co3 1_555 1_555
C8 H5 1_555 1_555
O8 Co2 1_555 1_555
C9 C8 1_555 1_555
H6 C9 1_555 1_555
O9 Co1 1_555 1_555
C10 N2 1_555 1_555
H7 C10 1_555 1_555
O10 Co3 1_555 1_555
C11 C7 1_555 1_555
H8 C11 1_555 1_555
O11 Co1 1_555 1_555
H9 O11 1_555 1_555
C12 O3 1_555 1_555
O12 Co1 1_555 1_555
H10 O12 1_555 1_555
C13 C14 1_555 1_555
C14 H11 1_555 1_555
O13 Co2 1_555 1_555
C15 C14 1_555 1_555
H12 C15 1_555 1_555
C16 N3 1_555 1_555
H13 C16 1_555 1_555
O15 N6 1_555 1_555
C17 C13 1_555 1_555
H14 C17 1_555 1_555
O16 N6 1_555 1_555
C18 O5 1_555 1_555
C19 C20 1_555 1_555
C20 H15 1_555 1_555
C21 C20 1_555 1_555
H16 C21 1_555 1_555
C22 N4 1_555 1_555
H17 C22 1_555 1_555
C23 C19 1_555 1_555
H18 C23 1_555 1_555
C24 O7 1_555 1_555
C25 C26 1_555 1_555
C26 H19 1_555 1_555
C27 N5 1_555 1_555
H20 C27 1_555 1_555
C28 N5 1_555 1_555
H21 C28 1_555 1_555
C29 C25 1_555 1_555
H22 C29 1_555 1_555
C30 O9 1_555 1_555
O17 Co4 1_555 1_555
C31 O17 1_555 1_555
C32 C31 1_555 1_555
Co3A O11 1_555 1_555
Co4A O12 1_555 1_555
O4A C12 1_555 1_555
O8A C24 1_555 1_555
O10A C30 1_555 1_555
O11A Co3 1_555 1_555
C12A O4 1_555 1_555
O12A Co3 1_555 1_555
C13_2 C18 1_555 1_555
C18_2 C13 1_555 1_555
C19B C24 1_555 1_555
C24A O8 1_555 1_555
C24B C19 1_555 1_555
C25C C30 1_555 1_555
C30A O10 1_555 1_555
C30C C25 1_555 1_555
O1 C6 1_555 1_555
Co2 O11 1_555 1_555
O2 C6 1_555 1_555
Co4 O7 1_555 1_555
Co4 O12A 1_555 1_555
C4 C5 1_555 1_555
O6 C18 1_555 1_555
C7 C12 1_555 1_555
C10 C11 1_555 1_555
O12 Co3A 1_555 1_555
C16 C17 1_555 1_555
C22 C23 1_555 1_555
C26 C27 1_555 1_555
C28 C29 1_555 1_555
Co3A O10A 1_555 1_555
Co4A O4A 1_555 1_555

#END
