
#######################################################################
#
#                 Cambridge Crystallographic Data Centre
#                                CCDC 
#
#######################################################################
#
# If this CIF has been generated from an entry in the Cambridge 
# Structural Database, then it will include bibliographic, chemical, 
# crystal, experimental, refinement or atomic coordinate data resulting 
# from the CCDC's data processing and validation procedures.
#
#######################################################################

data_CAXYOP
_symmetry_cell_setting           monoclinic
_symmetry_space_group_name_H-M   'P 21/n'
_symmetry_Int_Tables_number      14
_space_group_name_Hall           '-P 2yn'
loop_
_symmetry_equiv_pos_site_id
_symmetry_equiv_pos_as_xyz
1 x,y,z
2 1/2-x,1/2+y,1/2-z
3 -x,-y,-z
4 1/2+x,1/2-y,1/2+z
_cell_length_a                   5.246(1)
_cell_length_b                   10.709(1)
_cell_length_c                   13.134(1)
_cell_angle_alpha                90
_cell_angle_beta                 94.49(1)
_cell_angle_gamma                90
_cell_volume                     735.596
loop_
_atom_site_label
_atom_site_type_symbol
_atom_site_fract_x
_atom_site_fract_y
_atom_site_fract_z
Cu1 Cu 0.00000 0.00000 0.00000
O1 O -0.25990 -0.01110 0.09630
O2 O -0.14240 -0.17320 0.19580
O3 O 0.66610 -0.11150 -0.12550
O4 O -0.31700 -0.18950 0.37400
O5 O 0.16120 -0.15920 0.04270
C1 C -0.27940 -0.08010 0.17570
C2 C -0.47550 -0.04130 0.24520
C3 C -0.48750 -0.09940 0.34040
C4 C -0.67140 -0.06660 0.40520
C5 C -0.83760 0.02940 0.37710
C6 C -0.83150 0.08940 0.28520
C7 C -0.65250 0.05370 0.21840
H1 H -0.68300 -0.10800 0.46600
H2 H -0.94500 0.05600 0.41900
H3 H -0.93100 0.15600 0.26300
H4 H 0.56600 -0.09700 -0.10300
H5 H -0.24200 -0.20300 0.33900
H6 H 0.09100 -0.18400 0.08500
H7 H 0.16400 -0.20700 -0.00500
O1B O 0.25990 0.01110 -0.09630
O3_2 O -0.33390 -0.11150 -0.12550
O5B O -0.16120 0.15920 -0.04270
C1B C 0.27940 0.08010 -0.17570
H4_2 H -0.43400 -0.09700 -0.10300
H6B H -0.09100 0.18400 -0.08500
H7B H -0.16400 0.20700 0.00500
O2B O 0.14240 0.17320 -0.19580
C2B C 0.47550 0.04130 -0.24520
C3B C 0.48750 0.09940 -0.34040
C7B C 0.65250 -0.05370 -0.21840
O4B O 0.31700 0.18950 -0.37400
C4B C 0.67140 0.06660 -0.40520
H5B H 0.24200 0.20300 -0.33900
C5B C 0.83760 -0.02940 -0.37710
H1B H 0.68300 0.10800 -0.46600
O3B O 0.33390 0.11150 0.12550
C6B C 0.83150 -0.08940 -0.28520
H2B H 0.94500 -0.05600 -0.41900
O3B_2 O -0.66610 0.11150 0.12550
Cu1_2 Cu 1.00000 0.00000 0.00000
H4B H 0.43400 0.09700 0.10300
H3B H 0.93100 -0.15600 -0.26300
Cu1_3 Cu -1.00000 0.00000 0.00000
H4B_2 H -0.56600 0.09700 0.10300
loop_
_geom_bond_atom_site_label_1
_geom_bond_atom_site_label_2
_geom_bond_site_symmetry_1
_geom_bond_site_symmetry_2
Cu1 O1 1_555 1_555
O1 C1 1_555 1_555
O2 C1 1_555 1_555
O3 H4 1_555 1_555
O4 C3 1_555 1_555
O5 Cu1 1_555 1_555
C1 C2 1_555 1_555
C2 C3 1_555 1_555
C3 C4 1_555 1_555
C4 C5 1_555 1_555
C5 C6 1_555 1_555
C6 C7 1_555 1_555
C7 C2 1_555 1_555
H1 C4 1_555 1_555
H2 C5 1_555 1_555
H3 C6 1_555 1_555
H5 O4 1_555 1_555
H6 O5 1_555 1_555
H7 O5 1_555 1_555
O1B Cu1 1_555 1_555
O3_2 Cu1 1_555 1_555
O5B Cu1 1_555 1_555
C1B O1B 1_555 1_555
H4_2 O3_2 1_555 1_555
H6B O5B 1_555 1_555
H7B O5B 1_555 1_555
O2B C1B 1_555 1_555
C2B C1B 1_555 1_555
C3B C2B 1_555 1_555
C7B O3 1_555 1_555
O4B C3B 1_555 1_555
C4B C3B 1_555 1_555
H5B O4B 1_555 1_555
C5B C4B 1_555 1_555
H1B C4B 1_555 1_555
O3B Cu1 1_555 1_555
C6B C7B 1_555 1_555
H2B C5B 1_555 1_555
O3B_2 C7 1_555 1_555
Cu1_2 O3 1_555 1_555
H4B O3B 1_555 1_555
H3B C6B 1_555 1_555
Cu1_3 O3B_2 1_555 1_555
H4B_2 O3B_2 1_555 1_555
C2B C7B 1_555 1_555
C5B C6B 1_555 1_555

#END
