
#######################################################################
#
#                 Cambridge Crystallographic Data Centre
#                                CCDC 
#
#######################################################################
#
# If this CIF has been generated from an entry in the Cambridge 
# Structural Database, then it will include bibliographic, chemical, 
# crystal, experimental, refinement or atomic coordinate data resulting 
# from the CCDC's data processing and validation procedures.
#
#######################################################################

data_CAXYEH
_symmetry_cell_setting           monoclinic
_symmetry_space_group_name_H-M   'P 21/c'
_symmetry_Int_Tables_number      14
_space_group_name_Hall           '-P 2ybc'
loop_
_symmetry_equiv_pos_site_id
_symmetry_equiv_pos_as_xyz
1 x,y,z
2 -x,1/2+y,1/2-z
3 -x,-y,-z
4 x,1/2-y,1/2+z
_cell_length_a                   7.633(6)
_cell_length_b                   12.718(9)
_cell_length_c                   10.105(7)
_cell_angle_alpha                90
_cell_angle_beta                 101.016(8)
_cell_angle_gamma                90
_cell_volume                     962.883
loop_
_atom_site_label
_atom_site_type_symbol
_atom_site_fract_x
_atom_site_fract_y
_atom_site_fract_z
Cu1 Cu 0.20952(5) 0.55719(3) 0.63544(4)
O1 O 0.2039(3) 0.68772(18) 0.7422(2)
O2 O 0.0337(3) 0.82763(18) 0.7684(2)
C1 C 0.0610(4) 0.7434(3) 0.7152(3)
C2 C -0.0786(4) 0.6955(2) 0.6069(3)
N1 N -0.0388(3) 0.6040(2) 0.5557(3)
N2 N -0.1858(4) 0.5781(2) 0.4657(3)
N3 N -0.3086(4) 0.6515(2) 0.4643(3)
N4 N -0.2441(4) 0.7271(2) 0.5548(3)
N5 N 0.4393(4) 0.5212(2) 0.7578(3)
N6 N 0.9415(4) 0.4665(2) 1.0044(3)
C3 C 0.4747(4) 0.4312(2) 0.8274(3)
H1 H 0.3845 0.3789 0.8195
C4 C 0.6401(4) 0.4119(3) 0.9114(3)
H2 H 0.6616 0.3485 0.9614
C5 C 0.7718(4) 0.4886(3) 0.9194(3)
C6 C 0.7333(4) 0.5827(3) 0.8486(3)
H3 H 0.8206 0.6366 0.8546
C7 C 0.5668(4) 0.5959(3) 0.7701(3)
H4 H 0.5405 0.6602 0.7225
O3 O 0.3180(3) 0.6369(2) 0.4752(2)
H5 H 0.4137 0.6377 0.4456
H6 H 0.2454 0.6556 0.4060
Cu1B Cu -0.20952(5) 0.44281(3) 0.36456(4)
Cu1B_2 Cu 1.79048(5) 0.44281(3) 1.36456(4)
O1B O -0.2039(3) 0.31228(18) 0.2578(2)
O2B O -0.0337(3) 0.17237(18) 0.2316(2)
C1B C -0.0610(4) 0.2566(3) 0.2848(3)
C2B C 0.0786(4) 0.3045(2) 0.3931(3)
N1B N 0.0388(3) 0.3960(2) 0.4443(3)
N2B N 0.1858(4) 0.4219(2) 0.5343(3)
N3B N 0.3086(4) 0.3485(2) 0.5357(3)
N4B N 0.2441(4) 0.2729(2) 0.4452(3)
N5B N 1.5607(4) 0.4788(2) 1.2422(3)
N5B_2 N -0.4393(4) 0.4788(2) 0.2422(3)
N6B N 1.0585(4) 0.5335(2) 0.9956(3)
C3B C 1.5253(4) 0.5688(2) 1.1726(3)
H1B H 1.6155 0.6211 1.1805
C4B C 1.3599(4) 0.5881(3) 1.0886(3)
H2B H 1.3384 0.6515 1.0386
C5B C 1.2282(4) 0.5114(3) 1.0806(3)
C6B C 1.2667(4) 0.4173(3) 1.1514(3)
H3B H 1.1794 0.3634 1.1454
C7B C 1.4332(4) 0.4041(3) 1.2299(3)
H4B H 1.4595 0.3398 1.2775
O3B O -0.3180(3) 0.3631(2) 0.5248(2)
H5B H -0.4137 0.3623 0.5544
H6B H -0.2454 0.3444 0.5940
loop_
_geom_bond_atom_site_label_1
_geom_bond_atom_site_label_2
_geom_bond_site_symmetry_1
_geom_bond_site_symmetry_2
Cu1 O1 1_555 1_555
O1 C1 1_555 1_555
O2 C1 1_555 1_555
C1 C2 1_555 1_555
C2 N1 1_555 1_555
N1 Cu1 1_555 1_555
N2 N1 1_555 1_555
N3 N2 1_555 1_555
N4 C2 1_555 1_555
N5 Cu1 1_555 1_555
N6 C5 1_555 1_555
C3 N5 1_555 1_555
H1 C3 1_555 1_555
C4 C3 1_555 1_555
H2 C4 1_555 1_555
C5 C4 1_555 1_555
C6 C5 1_555 1_555
H3 C6 1_555 1_555
C7 N5 1_555 1_555
H4 C7 1_555 1_555
O3 Cu1 1_555 1_555
H5 O3 1_555 1_555
H6 O3 1_555 1_555
Cu1B N2 1_555 1_555
Cu1B_2 N5B 1_555 1_555
O1B Cu1B 1_555 1_555
O2B C1B 1_555 1_555
C1B O1B 1_555 1_555
C2B C1B 1_555 1_555
N1B Cu1B 1_555 1_555
N2B Cu1 1_555 1_555
N3B N2B 1_555 1_555
N4B C2B 1_555 1_555
N5B C3B 1_555 1_555
N5B_2 Cu1B 1_555 1_555
N6B N6 1_555 1_555
C3B H1B 1_555 1_555
C4B C3B 1_555 1_555
H2B C4B 1_555 1_555
C5B N6B 1_555 1_555
C6B C5B 1_555 1_555
H3B C6B 1_555 1_555
C7B N5B 1_555 1_555
H4B C7B 1_555 1_555
O3B Cu1B 1_555 1_555
H5B O3B 1_555 1_555
H6B O3B 1_555 1_555
N3 N4 1_555 1_555
C6 C7 1_555 1_555
C2B N1B 1_555 1_555
N1B N2B 1_555 1_555
N3B N4B 1_555 1_555
C4B C5B 1_555 1_555
C6B C7B 1_555 1_555

#END
