
#######################################################################
#
#                 Cambridge Crystallographic Data Centre
#                                CCDC 
#
#######################################################################
#
# If this CIF has been generated from an entry in the Cambridge 
# Structural Database, then it will include bibliographic, chemical, 
# crystal, experimental, refinement or atomic coordinate data resulting 
# from the CCDC's data processing and validation procedures.
#
#######################################################################

data_CAXZEI
_symmetry_cell_setting           triclinic
_symmetry_space_group_name_H-M   'P -1'
_symmetry_Int_Tables_number      2
_space_group_name_Hall           '-P 1'
loop_
_symmetry_equiv_pos_site_id
_symmetry_equiv_pos_as_xyz
1 x,y,z
2 -x,-y,-z
_cell_length_a                   8.0047(16)
_cell_length_b                   9.6594(19)
_cell_length_c                   10.952(2)
_cell_angle_alpha                101.18(3)
_cell_angle_beta                 105.39(3)
_cell_angle_gamma                105.40(3)
_cell_volume                     754.629
loop_
_atom_site_label
_atom_site_type_symbol
_atom_site_fract_x
_atom_site_fract_y
_atom_site_fract_z
Cd1 Cd 0.21928(2) 0.344783(19) 0.351974(16)
O1 O -0.0061(2) 0.1045(2) 0.19362(18)
O2 O -0.1026(2) 0.29125(19) 0.26028(18)
O3 O 0.2579(2) 0.59556(18) 0.41144(17)
O4 O 0.4888(2) 0.65557(19) 0.60054(17)
N1 N 0.1922(3) 0.2973(2) 0.5440(2)
N2 N 0.1242(3) 0.3389(2) 0.72662(19)
N3 N 0.1778(3) 0.4339(2) 0.96155(19)
N4 N 0.2585(3) 0.3995(2) 1.1593(2)
C1 C 0.1610(3) 0.3955(3) 0.6298(2)
H1 H 0.1641 0.4909 0.6241
C2 C 0.1737(4) 0.1722(3) 0.5888(3)
H2 H 0.1885 0.0844 0.5483
C3 C 0.1306(4) 0.1965(3) 0.7006(3)
H3 H 0.1095 0.1296 0.7500
C4 C 0.0634(4) 0.4135(3) 0.8270(2)
H4 H 0.0638 0.5107 0.8156
H5 H -0.0622 0.3549 0.8139
C5 C 0.3309(4) 0.5537(3) 1.0390(3)
H6 H 0.3898 0.6343 1.0136
C6 C 0.3794(4) 0.5315(3) 1.1595(3)
H7 H 0.4794 0.5958 1.2321
C7 C 0.1396(4) 0.3449(3) 1.0388(2)
H8 H 0.0410 0.2558 1.0101
C8 C -0.1307(3) 0.1617(3) 0.1890(2)
C9 C -0.3233(3) 0.0760(3) 0.0913(2)
C10 C -0.3543(4) -0.0471(3) -0.0125(3)
H9 H -0.2570 -0.0789 -0.0211
C11 C -0.4705(3) 0.1225(3) 0.1032(3)
H10 H -0.4509 0.2045 0.1725
C12 C 0.3943(3) 0.6887(3) 0.5056(2)
C13 C 0.4482(3) 0.8505(3) 0.5038(2)
C14 C 0.3800(4) 0.8886(3) 0.3888(3)
H11 H 0.2989 0.8138 0.3130
C15 C 0.5690(4) 0.9641(3) 0.6145(3)
H12 H 0.6166 0.9412 0.6923
Cd1A Cd -1.21928(2) -0.344783(19) -0.351974(16)
Cd1A_2 Cd 0.78072(2) 0.655217(19) 0.648026(16)
Cd1_2 Cd 0.21928(2) 0.344783(19) 1.351974(16)
Cd1A_3 Cd 0.78072(2) 1.655217(19) 0.648026(16)
Cd1_3 Cd 0.21928(2) 1.344783(19) 0.351974(16)
Cd1_4 Cd 0.21928(2) 0.344783(19) -0.648026(16)
O1A O -0.9939(2) -0.1045(2) -0.19362(18)
O2A O -0.8974(2) -0.29125(19) -0.26028(18)
O3A O 0.7421(2) 1.40444(18) 0.58856(17)
O3A_2 O -1.2579(2) -0.59556(18) -0.41144(17)
O4A O 0.5112(2) 1.34443(19) 0.39946(17)
O4A_2 O 0.5112(2) 0.34443(19) 0.39946(17)
O4_2 O -1.5112(2) -0.34443(19) -0.39946(17)
N1_2 N 0.1922(3) 0.2973(2) -0.4560(2)
N1A N -1.1922(3) -0.2973(2) -0.5440(2)
N2_2 N 0.1242(3) 0.3389(2) -0.27338(19)
N3_2 N 0.1778(3) 0.4339(2) -0.03845(19)
N4_2 N 0.2585(3) 0.3995(2) 0.1593(2)
N4A N -1.2585(3) -0.3995(2) -0.1593(2)
C1_2 C 0.1610(3) 0.3955(3) -0.3702(2)
H1_2 H 0.1641 0.4909 -0.3759
C2_2 C 0.1737(4) 0.1722(3) -0.4112(3)
H2_2 H 0.1885 0.0844 -0.4517
C3_2 C 0.1306(4) 0.1965(3) -0.2994(3)
H3_2 H 0.1095 0.1296 -0.2500
C4_2 C 0.0634(4) 0.4135(3) -0.1730(2)
H4_2 H 0.0638 0.5107 -0.1844
H5_2 H -0.0622 0.3549 -0.1861
C5_2 C 0.3309(4) 0.5537(3) 0.0390(3)
H6_2 H 0.3898 0.6343 0.0136
C6_2 C 0.3794(4) 0.5315(3) 0.1595(3)
H7_2 H 0.4794 0.5958 0.2321
C7_2 C 0.1396(4) 0.3449(3) 0.0388(2)
H8_2 H 0.0410 0.2558 0.0101
C8A C -0.8693(3) -0.1617(3) -0.1890(2)
C9A C -0.6767(3) -0.0760(3) -0.0913(2)
C10A C -0.6457(4) 0.0471(3) 0.0125(3)
H9A H -0.7430 0.0789 0.0211
C11A C -0.5295(3) -0.1225(3) -0.1032(3)
H10A H -0.5491 -0.2045 -0.1725
C12A C 0.6057(3) 1.3113(3) 0.4944(2)
C13A C 0.5518(3) 1.1495(3) 0.4962(2)
C14A C 0.6200(4) 1.1114(3) 0.6112(3)
H11A H 0.7011 1.1862 0.6870
C15A C 0.4310(4) 1.0359(3) 0.3855(3)
H12A H 0.3834 1.0588 0.3077
loop_
_geom_bond_atom_site_label_1
_geom_bond_atom_site_label_2
_geom_bond_site_symmetry_1
_geom_bond_site_symmetry_2
Cd1 O1 1_555 1_555
O1 C8 1_555 1_555
O2 Cd1 1_555 1_555
O3 Cd1 1_555 1_555
O4 C12 1_555 1_555
N1 Cd1 1_555 1_555
N2 C1 1_555 1_555
N3 C4 1_555 1_555
N4 C6 1_555 1_555
C1 N1 1_555 1_555
H1 C1 1_555 1_555
C2 N1 1_555 1_555
H2 C2 1_555 1_555
C3 N2 1_555 1_555
H3 C3 1_555 1_555
C4 N2 1_555 1_555
H4 C4 1_555 1_555
H5 C4 1_555 1_555
C5 N3 1_555 1_555
H6 C5 1_555 1_555
C6 C5 1_555 1_555
H7 C6 1_555 1_555
C7 N3 1_555 1_555
H8 C7 1_555 1_555
C8 O2 1_555 1_555
C9 C8 1_555 1_555
C10 C9 1_555 1_555
H9 C10 1_555 1_555
C11 C9 1_555 1_555
H10 C11 1_555 1_555
C12 O3 1_555 1_555
C13 C12 1_555 1_555
C14 C13 1_555 1_555
H11 C14 1_555 1_555
C15 C13 1_555 1_555
H12 C15 1_555 1_555
Cd1A O1A 1_555 1_555
Cd1A_2 O4 1_555 1_555
Cd1_2 N4 1_555 1_555
Cd1A_3 O3A 1_555 1_555
Cd1_3 O4A 1_555 1_555
Cd1_4 N1_2 1_555 1_555
O1A C8A 1_555 1_555
O2A Cd1A 1_555 1_555
O3A C12A 1_555 1_555
O3A_2 Cd1A 1_555 1_555
O4A C12A 1_555 1_555
O4A_2 Cd1 1_555 1_555
O4_2 Cd1A 1_555 1_555
N1_2 C1_2 1_555 1_555
N1A Cd1A 1_555 1_555
N2_2 C1_2 1_555 1_555
N3_2 C4_2 1_555 1_555
N4_2 Cd1 1_555 1_555
N4A Cd1A 1_555 1_555
C1_2 H1_2 1_555 1_555
C2_2 N1_2 1_555 1_555
H2_2 C2_2 1_555 1_555
C3_2 N2_2 1_555 1_555
H3_2 C3_2 1_555 1_555
C4_2 N2_2 1_555 1_555
H4_2 C4_2 1_555 1_555
H5_2 C4_2 1_555 1_555
C5_2 N3_2 1_555 1_555
H6_2 C5_2 1_555 1_555
C6_2 N4_2 1_555 1_555
H7_2 C6_2 1_555 1_555
C7_2 N3_2 1_555 1_555
H8_2 C7_2 1_555 1_555
C8A O2A 1_555 1_555
C9A C8A 1_555 1_555
C10A C11 1_555 1_555
H9A C10A 1_555 1_555
C11A C10 1_555 1_555
H10A C11A 1_555 1_555
C12A C13A 1_555 1_555
C13A C14A 1_555 1_555
C14A C15 1_555 1_555
H11A C14A 1_555 1_555
C15A C14 1_555 1_555
H12A C15A 1_555 1_555
N4 C7 1_555 1_555
C2 C3 1_555 1_555
N4_2 C7_2 1_555 1_555
C2_2 C3_2 1_555 1_555
C5_2 C6_2 1_555 1_555
C9A C10A 1_555 1_555
C9A C11A 1_555 1_555
C13A C15A 1_555 1_555

#END
