
#######################################################################
#
#                 Cambridge Crystallographic Data Centre
#                                CCDC 
#
#######################################################################
#
# If this CIF has been generated from an entry in the Cambridge 
# Structural Database, then it will include bibliographic, chemical, 
# crystal, experimental, refinement or atomic coordinate data resulting 
# from the CCDC's data processing and validation procedures.
#
#######################################################################

data_CAXZAE
_symmetry_cell_setting           monoclinic
_symmetry_space_group_name_H-M   'P 21/c'
_symmetry_Int_Tables_number      14
_space_group_name_Hall           '-P 2ybc'
loop_
_symmetry_equiv_pos_site_id
_symmetry_equiv_pos_as_xyz
1 x,y,z
2 -x,1/2+y,1/2-z
3 -x,-y,-z
4 x,1/2-y,1/2+z
_cell_length_a                   10.234(2)
_cell_length_b                   9.1507(18)
_cell_length_c                   16.895(3)
_cell_angle_alpha                90
_cell_angle_beta                 103.79(3)
_cell_angle_gamma                90
_cell_volume                     1536.58
loop_
_atom_site_label
_atom_site_type_symbol
_atom_site_fract_x
_atom_site_fract_y
_atom_site_fract_z
C1 C 0.8919(4) 0.7995(5) 0.0162(2)
C2 C 0.7512(3) 0.7397(4) -0.0100(2)
C3 C 0.7272(4) 0.6174(4) -0.0601(2)
H1 H 0.7983 0.5699 -0.0746
C4 C 0.5974(4) 0.5666(4) -0.0883(2)
H2 H 0.5805 0.4882 -0.1243
C5 C 0.4919(4) 0.6322(4) -0.0630(2)
H3 H 0.4048 0.5971 -0.0819
C6 C 0.5157(3) 0.7501(4) -0.0097(2)
C7 C 0.6458(3) 0.8052(4) 0.0150(2)
H4 H 0.6622 0.8869 0.0487
C8 C 0.4057(4) 0.8126(4) 0.0260(2)
C9 C 1.1184(4) 1.1671(4) 0.1788(2)
H5 H 1.0278 1.1748 0.1526
C10 C 1.3147(4) 1.2115(4) 0.2618(2)
H6 H 1.3831 1.2527 0.3019
C11 C 1.3255(4) 1.0953(4) 0.2139(2)
H7 H 1.4038 1.0425 0.2157
C12 C 1.3088(5) 1.7039(5) 0.2417(2)
H8 H 1.3802 1.7696 0.2530
C13 C 1.2995(5) 1.5844(4) 0.2866(2)
H9 H 1.3612 1.5521 0.3330
C14 C 1.1222(4) 1.6031(4) 0.1832(2)
H10 H 1.0401 1.5829 0.1473
C15 C 1.1255(4) 1.3829(4) 0.2713(2)
H11 H 1.0286 1.3820 0.2507
H12 H 1.1446 1.3760 0.3303
Cd1 Cd 1.16284(3) 0.88419(3) 0.068090(16)
N1 N 1.2008(3) 1.0677(3) 0.16175(18)
N2 N 1.1829(3) 1.2565(3) 0.23941(18)
N3 N 1.1987(3) 1.7157(3) 0.17689(19)
N4 N 1.1787(3) 1.5203(3) 0.24887(18)
O1 O 0.9076(3) 0.9299(3) 0.04395(15)
O2 O 0.9892(3) 0.7210(3) 0.01029(17)
O3 O 0.4354(3) 0.8801(3) 0.09137(17)
O4 O 0.2849(3) 0.7900(3) -0.01317(17)
Cd1_2 Cd 1.16284(3) 1.88419(3) 0.068090(16)
Cd1B Cd 0.83716(3) 1.11581(3) -0.068090(16)
Cd1_3 Cd 0.16284(3) 0.88419(3) 0.068090(16)
N3_2 N 1.1987(3) 0.7157(3) 0.17689(19)
O1B O 1.0924(3) 1.0701(3) -0.04395(15)
O3_2 O 1.4354(3) 0.8801(3) 0.09137(17)
O4_2 O 1.2849(3) 0.7900(3) -0.01317(17)
O5 O 0.1303(4) 0.5946(5) 0.8798(3)
H13 H 0.0805 0.5881 0.9134
H14 H 0.1941 0.6532 0.8998
loop_
_geom_bond_atom_site_label_1
_geom_bond_atom_site_label_2
_geom_bond_site_symmetry_1
_geom_bond_site_symmetry_2
C1 C2 1_555 1_555
C2 C3 1_555 1_555
C3 H1 1_555 1_555
C4 C3 1_555 1_555
H2 C4 1_555 1_555
C5 C4 1_555 1_555
H3 C5 1_555 1_555
C6 C5 1_555 1_555
C7 C2 1_555 1_555
H4 C7 1_555 1_555
C8 C6 1_555 1_555
C9 H5 1_555 1_555
C10 H6 1_555 1_555
C11 C10 1_555 1_555
H7 C11 1_555 1_555
C12 H8 1_555 1_555
C13 C12 1_555 1_555
H9 C13 1_555 1_555
C14 H10 1_555 1_555
C15 H11 1_555 1_555
H12 C15 1_555 1_555
Cd1 N1 1_555 1_555
N1 C9 1_555 1_555
N2 C9 1_555 1_555
N3 C12 1_555 1_555
N4 C13 1_555 1_555
O1 C1 1_555 1_555
O2 C1 1_555 1_555
O3 C8 1_555 1_555
O4 C8 1_555 1_555
O5 H13 1_555 1_555
H14 O5 1_555 1_555
Cd1_2 N3 1_555 1_555
Cd1B O1 1_555 1_555
Cd1_3 O3 1_555 1_555
N3_2 Cd1 1_555 1_555
O1B Cd1 1_555 1_555
O3_2 Cd1 1_555 1_555
O4_2 Cd1 1_555 1_555
C6 C7 1_555 1_555
C10 N2 1_555 1_555
C11 N1 1_555 1_555
C14 N3 1_555 1_555
C14 N4 1_555 1_555
C15 N2 1_555 1_555
C15 N4 1_555 1_555
Cd1 O1 1_555 1_555
Cd1 O2 1_555 1_555
O4 Cd1_3 1_555 1_555
Cd1B O1B 1_555 1_555

#END
