
#######################################################################
#
#                 Cambridge Crystallographic Data Centre
#                                CCDC 
#
#######################################################################
#
# If this CIF has been generated from an entry in the Cambridge 
# Structural Database, then it will include bibliographic, chemical, 
# crystal, experimental, refinement or atomic coordinate data resulting 
# from the CCDC's data processing and validation procedures.
#
#######################################################################

data_CAYBAH
_symmetry_cell_setting           tetragonal
_symmetry_space_group_name_H-M   'I 41/a m d'
_symmetry_Int_Tables_number      141
_space_group_name_Hall           '-I 4bd 2'
loop_
_symmetry_equiv_pos_site_id
_symmetry_equiv_pos_as_xyz
1 x,y,z
2 1/2-x,-y,1/2+z
3 1/4-y,3/4+x,1/4+z
4 1/4+y,1/4-x,3/4+z
5 1/2-x,y,1/2-z
6 x,-y,-z
7 1/4+y,3/4+x,1/4-z
8 1/4-y,1/4-x,3/4-z
9 1/2+x,1/2+y,1/2+z
10 -x,1/2-y,z
11 3/4-y,1/4+x,3/4+z
12 3/4+y,3/4-x,1/4+z
13 -x,1/2+y,-z
14 1/2+x,1/2-y,1/2-z
15 3/4+y,1/4+x,3/4-z
16 3/4-y,3/4-x,1/4-z
17 -x,-y,-z
18 1/2+x,y,1/2-z
19 3/4+y,1/4-x,3/4-z
20 3/4-y,3/4+x,1/4-z
21 1/2+x,-y,1/2+z
22 -x,y,z
23 3/4-y,1/4-x,3/4+z
24 3/4+y,3/4+x,1/4+z
25 1/2-x,1/2-y,1/2-z
26 x,1/2+y,-z
27 1/4+y,3/4-x,1/4-z
28 1/4-y,1/4+x,3/4-z
29 x,1/2-y,z
30 1/2-x,1/2+y,1/2+z
31 1/4-y,3/4-x,1/4+z
32 1/4+y,1/4+x,3/4+z
_cell_length_a                   11.8447(7)
_cell_length_b                   11.8447(7)
_cell_length_c                   18.9782(13)
_cell_angle_alpha                90
_cell_angle_beta                 90
_cell_angle_gamma                90
_cell_volume                     2662.58
loop_
_atom_site_label
_atom_site_type_symbol
_atom_site_fract_x
_atom_site_fract_y
_atom_site_fract_z
Cu1 Cu 0.0000 0.7500 0.1250
Cu2 Cu -0.2500 0.7500 0.2500
N1 N 0.0000 0.7500 0.2487(3)
N2 N -0.1218(3) 0.8718(3) 0.1250
N3 N -0.0915 0.7500(4) 0.2894(2)
N4 N -0.2053(3) 0.8784(3) 0.1721(2)
C1 C -0.0570 0.7500(5) 0.3562(3)
H1 H -0.1033 0.7500 0.3958
C2 C -0.2665(4) 0.9694(4) 0.1539(3)
H2 H -0.3304 0.9955 0.1772
Cu2I Cu 0.2500 0.7500 0.2500
Cu2J Cu 0.0000 1.0000 0.0000
Cu2C Cu 0.0000 0.5000 0.0000
N1F N 0.0000 0.7500 0.0013(3)
N2U N 0.1218(3) 0.8718(3) 0.1250
N2S N -0.1218(3) 0.6282(3) 0.1250
N2F N 0.1218(3) 0.6282(3) 0.1250
N3I N 0.0915 0.7500(4) 0.2894(2)
N3F N 0.0000(4) 0.6585 -0.0394(2)
N3O N 0.0000(4) 0.8415 -0.0394(2)
N3D N -0.4085 0.7500(4) 0.2106(2)
N3M N 0.4085 0.7500(4) 0.2106(2)
N4O N -0.1284(3) 0.9553(3) 0.0779(2)
N4U N 0.2053(3) 0.8784(3) 0.1721(2)
N4Z N 0.1284(3) 0.9553(3) 0.0779(2)
N4S N -0.1284(3) 0.5447(3) 0.0779(2)
N4BA N -0.2053(3) 0.6216(3) 0.1721(2)
N4F N 0.1284(3) 0.5447(3) 0.0779(2)
N4I N 0.2053(3) 0.6216(3) 0.1721(2)
N4D N -0.2947(3) 0.8784(3) 0.3279(2)
N4X N -0.2947(3) 0.6216(3) 0.3279(2)
N4M N 0.2947(3) 0.6216(3) 0.3279(2)
N4Q N 0.2947(3) 0.8784(3) 0.3279(2)
C1I C 0.0570 0.7500(5) 0.3562(3)
C1F C 0.0000(5) 0.6930 -0.1062(3)
C1O C 0.0000(5) 0.8070 -0.1062(3)
H1I H 0.1033 0.7500 0.3958
H1F H 0.0000 0.6467 -0.1458
H1O H 0.0000 0.8533 -0.1458
C2O C -0.2194(4) 1.0165(4) 0.0961(3)
C2U C 0.2665(4) 0.9694(4) 0.1539(3)
C2Z C 0.2194(4) 1.0165(4) 0.0961(3)
C2S C -0.2194(4) 0.4835(4) 0.0961(3)
C2BA C -0.2665(4) 0.5306(4) 0.1539(3)
C2F C 0.2194(4) 0.4835(4) 0.0961(3)
C2I C 0.2665(4) 0.5306(4) 0.1539(3)
H2O H -0.2455 1.0804 0.0728
H2U H 0.3304 0.9955 0.1772
H2Z H 0.2455 1.0804 0.0728
H2S H -0.2455 0.4196 0.0728
H2BA H -0.3304 0.5045 0.1772
H2F H 0.2455 0.4196 0.0728
H2I H 0.3304 0.5045 0.1772
loop_
_geom_bond_atom_site_label_1
_geom_bond_atom_site_label_2
_geom_bond_site_symmetry_1
_geom_bond_site_symmetry_2
Cu1 N1 1_555 1_555
Cu2 N3 1_555 1_555
N1 N3 1_555 1_555
N2 Cu1 1_555 1_555
N3 C1 1_555 1_555
N4 Cu2 1_555 1_555
C1 H1 1_555 1_555
C2 N4 1_555 1_555
H2 C2 1_555 1_555
Cu2I N3I 1_555 1_555
Cu2J N3O 1_555 1_555
Cu2C N3F 1_555 1_555
N1F Cu1 1_555 1_555
N2U Cu1 1_555 1_555
N2S Cu1 1_555 1_555
N2F Cu1 1_555 1_555
N3I N1 1_555 1_555
N3F N1F 1_555 1_555
N3O N1F 1_555 1_555
N3D Cu2 1_555 1_555
N3M Cu2I 1_555 1_555
N4O N2 1_555 1_555
N4U Cu2I 1_555 1_555
N4Z Cu2J 1_555 1_555
N4S Cu2C 1_555 1_555
N4BA Cu2 1_555 1_555
N4F Cu2C 1_555 1_555
N4I Cu2I 1_555 1_555
N4D Cu2 1_555 1_555
N4X Cu2 1_555 1_555
N4M Cu2I 1_555 1_555
N4Q Cu2I 1_555 1_555
C1I C1 1_555 1_555
C1F N3F 1_555 1_555
C1O N3O 1_555 1_555
H1I C1I 1_555 1_555
H1F C1F 1_555 1_555
H1O C1O 1_555 1_555
C2O C2 1_555 1_555
C2U N4U 1_555 1_555
C2Z N4Z 1_555 1_555
C2S N4S 1_555 1_555
C2BA N4BA 1_555 1_555
C2F N4F 1_555 1_555
C2I N4I 1_555 1_555
H2O C2O 1_555 1_555
H2U C2U 1_555 1_555
H2Z C2Z 1_555 1_555
H2S C2S 1_555 1_555
H2BA C2BA 1_555 1_555
H2F C2F 1_555 1_555
H2I C2I 1_555 1_555
N2 N4 1_555 1_555
Cu2J N4O 1_555 1_555
N2U N4U 1_555 1_555
N2U N4Z 1_555 1_555
N2S N4S 1_555 1_555
N2S N4BA 1_555 1_555
N2F N4F 1_555 1_555
N2F N4I 1_555 1_555
N3I C1I 1_555 1_555
N4O C2O 1_555 1_555
C1F C1O 1_555 1_555
C2U C2Z 1_555 1_555
C2S C2BA 1_555 1_555
C2F C2I 1_555 1_555

#END
