
#######################################################################
#
#                 Cambridge Crystallographic Data Centre
#                                CCDC 
#
#######################################################################
#
# If this CIF has been generated from an entry in the Cambridge 
# Structural Database, then it will include bibliographic, chemical, 
# crystal, experimental, refinement or atomic coordinate data resulting 
# from the CCDC's data processing and validation procedures.
#
#######################################################################

data_CAYBIP
_symmetry_cell_setting           monoclinic
_symmetry_space_group_name_H-M   'P 21/c'
_symmetry_Int_Tables_number      14
_space_group_name_Hall           '-P 2ybc'
loop_
_symmetry_equiv_pos_site_id
_symmetry_equiv_pos_as_xyz
1 x,y,z
2 -x,1/2+y,1/2-z
3 -x,-y,-z
4 x,1/2-y,1/2+z
_cell_length_a                   9.3227(8)
_cell_length_b                   8.3368(8)
_cell_length_c                   35.520(3)
_cell_angle_alpha                90
_cell_angle_beta                 91.218(2)
_cell_angle_gamma                90
_cell_volume                     2760.04
loop_
_atom_site_label
_atom_site_type_symbol
_atom_site_fract_x
_atom_site_fract_y
_atom_site_fract_z
Cu1 Cu 0.11402(9) -0.11355(11) 0.03969(2)
Br1 Br 0.14219(10) -0.31483(11) -0.00527(3)
Br2 Br 0.30967(9) -0.22063(11) 0.09815(2)
Br3 Br 0.54470(10) 0.21289(12) 0.10972(2)
Br4 Br 0.27604(9) 0.07212(13) 0.19315(3)
Br5 Br 0.71412(10) 0.04756(16) 0.21023(3)
Br6 Br 0.53344(10) 0.50555(15) 0.19908(3)
Cu2 Cu 0.54670(15) 0.22903(19) 0.17753(4)
Cu3 Cu 0.38608(13) 0.00872(16) 0.13099(4)
Cu4 Cu 0.47693(15) 0.03361(19) 0.23532(4)
N1 N 0.0709(6) 0.0688(7) 0.07131(15)
N2 N -0.0511(6) -0.2043(7) 0.06909(16)
C1 C -0.0242(7) 0.0507(8) 0.09841(18)
C2 C -0.1021(7) -0.1062(8) 0.09618(19)
N3 N 0.0284(7) 0.6629(7) 0.20873(17)
C3 C -0.0409(7) 0.1700(8) 0.1257(2)
H1 H -0.1083 0.1596 0.1445
C4 C 0.2491(7) 0.1929(8) 0.03599(19)
C5 C 0.0473(7) 0.3055(8) 0.12388(19)
C6 C 0.1460(5) 0.3231(6) 0.09456(15)
H2 H 0.2034 0.4139 0.0928
C7 C -0.2783(5) -0.2954(6) 0.11266(15)
H3 H -0.3591 -0.3268 0.1273
C8 C 0.1526(8) 0.6272(9) 0.1933(2)
H4 H 0.2355 0.6805 0.2013
N4 N 0.2405(6) 0.0531(7) 0.01639(16)
C9 C 0.3397(8) 0.3156(9) 0.0258(2)
H5 H 0.3443 0.4104 0.0396
C10 C -0.2241(8) -0.3971(10) 0.0860(2)
H6 H -0.2632 -0.4989 0.0826
C11 C 0.3206(8) 0.0362(10) -0.0140(2)
H7 H 0.3153 -0.0590 -0.0276
C12 C 0.4242(9) 0.2937(10) -0.0058(2)
H8 H 0.4886 0.3725 -0.0130
C13 C 0.0389(7) 0.4303(9) 0.15402(19)
C14 C -0.0918(8) 0.5832(9) 0.1980(2)
H9 H -0.1782 0.6086 0.2092
C15 C 0.1606(8) 0.5116(9) 0.1654(2)
H10 H 0.2480 0.4890 0.1544
C16 C -0.0893(8) 0.4673(9) 0.1714(2)
H11 H -0.1730 0.4125 0.1647
C17 C -0.2146(8) -0.1468(9) 0.1182(2)
H12 H -0.2478 -0.0766 0.1364
C18 C -0.1125(8) -0.3481(9) 0.0644(2)
H13 H -0.0785 -0.4166 0.0460
C19 C 0.1544(7) 0.1991(8) 0.0682(2)
C20 C 0.4109(8) 0.1558(11) -0.0258(2)
H14 H 0.4630 0.1420 -0.0476
C21 C 0.0226(10) 0.7852(10) 0.2386(3)
H15 H 0.1165 0.8300 0.2428
H16 H -0.0096 0.7367 0.2614
H17 H -0.0428 0.8687 0.2310
Br6A Br 0.46656(10) 0.00555(15) 0.30092(3)
Cu4A Cu 0.52307(15) 0.53361(19) 0.26468(4)
loop_
_geom_bond_atom_site_label_1
_geom_bond_atom_site_label_2
_geom_bond_site_symmetry_1
_geom_bond_site_symmetry_2
Cu1 Br1 1_555 1_555
Br2 Cu1 1_555 1_555
Br3 Cu2 1_555 1_555
Br4 Cu2 1_555 1_555
Br5 Cu2 1_555 1_555
Br6 Cu2 1_555 1_555
Cu3 Br2 1_555 1_555
Cu4 Br4 1_555 1_555
N1 Cu1 1_555 1_555
N2 Cu1 1_555 1_555
C1 N1 1_555 1_555
C2 N2 1_555 1_555
N3 C8 1_555 1_555
C3 C1 1_555 1_555
H1 C3 1_555 1_555
C4 N4 1_555 1_555
C5 C3 1_555 1_555
C6 C5 1_555 1_555
H2 C6 1_555 1_555
C7 H3 1_555 1_555
C8 H4 1_555 1_555
N4 Cu1 1_555 1_555
C9 C4 1_555 1_555
H5 C9 1_555 1_555
C10 C7 1_555 1_555
H6 C10 1_555 1_555
C11 N4 1_555 1_555
H7 C11 1_555 1_555
C12 C9 1_555 1_555
H8 C12 1_555 1_555
C13 C5 1_555 1_555
C14 N3 1_555 1_555
H9 C14 1_555 1_555
C15 C8 1_555 1_555
H10 C15 1_555 1_555
C16 C13 1_555 1_555
H11 C16 1_555 1_555
C17 C2 1_555 1_555
H12 C17 1_555 1_555
C18 N2 1_555 1_555
H13 C18 1_555 1_555
C19 N1 1_555 1_555
C20 C11 1_555 1_555
H14 C20 1_555 1_555
C21 N3 1_555 1_555
H15 C21 1_555 1_555
H16 C21 1_555 1_555
H17 C21 1_555 1_555
Br6A Cu4 1_555 1_555
Cu4A Br6 1_555 1_555
Br3 Cu3 1_555 1_555
Br4 Cu3 1_555 1_555
Br5 Cu4 1_555 1_555
C1 C2 1_555 1_555
C4 C19 1_555 1_555
C6 C19 1_555 1_555
C7 C17 1_555 1_555
C10 C18 1_555 1_555
C12 C20 1_555 1_555
C13 C15 1_555 1_555
C14 C16 1_555 1_555

#END
