
#######################################################################
#
#                 Cambridge Crystallographic Data Centre
#                                CCDC 
#
#######################################################################
#
# If this CIF has been generated from an entry in the Cambridge 
# Structural Database, then it will include bibliographic, chemical, 
# crystal, experimental, refinement or atomic coordinate data resulting 
# from the CCDC's data processing and validation procedures.
#
#######################################################################

data_CAYCIP
_symmetry_cell_setting           tetragonal
_symmetry_space_group_name_H-M   'I 41 c d'
_symmetry_Int_Tables_number      110
_space_group_name_Hall           'I 4bw -2c'
loop_
_symmetry_equiv_pos_site_id
_symmetry_equiv_pos_as_xyz
1 x,y,z
2 1/2-x,1/2-y,1/2+z
3 -y,1/2+x,1/4+z
4 1/2+y,-x,3/4+z
5 x,-y,1/2+z
6 1/2-x,1/2+y,z
7 -y,1/2-x,3/4+z
8 1/2+y,x,1/4+z
9 1/2+x,1/2+y,1/2+z
10 -x,-y,z
11 1/2-y,x,3/4+z
12 y,1/2-x,1/4+z
13 1/2+x,1/2-y,z
14 -x,y,1/2+z
15 1/2-y,-x,1/4+z
16 y,1/2+x,3/4+z
_cell_length_a                   16.675(3)
_cell_length_b                   16.675(3)
_cell_length_c                   13.222(3)
_cell_angle_alpha                90
_cell_angle_beta                 90
_cell_angle_gamma                90
_cell_volume                     3676.45
loop_
_atom_site_label
_atom_site_type_symbol
_atom_site_fract_x
_atom_site_fract_y
_atom_site_fract_z
Zn1 Zn 0.82525(5) 0.27419(5) 0.74675(7)
C1 C 0.8784(5) 0.4382(5) 0.9644(6)
C2 C 0.9065(5) 0.5163(6) 0.9732(7)
H1 H 0.9334 0.5321 1.0315
C3 C 0.8948(7) 0.5703(6) 0.8968(8)
H2 H 0.9136 0.6226 0.9022
C4 C 0.8541(6) 0.5451(6) 0.8111(8)
H3 H 0.8442 0.5817 0.7595
C5 C 0.8282(5) 0.4677(5) 0.8004(7)
C6 C 0.7882(5) 0.4421(5) 0.7023(7)
C7 C 0.8879(5) 0.3816(5) 1.0538(6)
N1 N 0.8393(4) 0.4170(4) 0.8793(5)
O1 O 0.8052(4) 0.3430(3) 0.8749(5)
O2 O 0.9481(3) 0.3070(4) 0.7443(5)
H4 H 0.9777 0.2680 0.7061
H5 H 0.9539 0.3587 0.7133
O3 O 0.7023(4) 0.2505(4) 0.7419(6)
H6 H 0.6815 0.2494 0.8096
H7 H 0.6936 0.1993 0.7104
O4 O 0.8027(4) 0.3755(4) 0.6656(5)
O5 O 0.7454(4) 0.4946(4) 0.6648(6)
O6 O 0.8272(4) 0.3426(4) 1.0813(5)
O7 O 0.9523(4) 0.3827(4) 1.0961(5)
Zn1B Zn 0.72581(5) 0.32525(5) 0.99675(7)
O1C O 0.8430(3) 0.1948(4) 0.6249(5)
O6C O 0.8426(4) 0.1728(4) 0.8313(5)
loop_
_geom_bond_atom_site_label_1
_geom_bond_atom_site_label_2
_geom_bond_site_symmetry_1
_geom_bond_site_symmetry_2
Zn1 O1 1_555 1_555
C1 C2 1_555 1_555
C2 H1 1_555 1_555
C3 C2 1_555 1_555
H2 C3 1_555 1_555
C4 C3 1_555 1_555
H3 C4 1_555 1_555
C5 C4 1_555 1_555
C6 C5 1_555 1_555
C7 C1 1_555 1_555
N1 C1 1_555 1_555
O1 N1 1_555 1_555
O2 Zn1 1_555 1_555
H4 O2 1_555 1_555
H5 O2 1_555 1_555
O3 Zn1 1_555 1_555
H6 O3 1_555 1_555
H7 O3 1_555 1_555
O4 Zn1 1_555 1_555
O5 C6 1_555 1_555
O6 C7 1_555 1_555
O7 C7 1_555 1_555
Zn1B O1 1_555 1_555
O1C Zn1 1_555 1_555
O6C Zn1 1_555 1_555
C5 N1 1_555 1_555
C6 O4 1_555 1_555
O6 Zn1B 1_555 1_555

#END
