
#######################################################################
#
#                 Cambridge Crystallographic Data Centre
#                                CCDC 
#
#######################################################################
#
# If this CIF has been generated from an entry in the Cambridge 
# Structural Database, then it will include bibliographic, chemical, 
# crystal, experimental, refinement or atomic coordinate data resulting 
# from the CCDC's data processing and validation procedures.
#
#######################################################################

data_CAYCUB
_symmetry_cell_setting           monoclinic
_symmetry_space_group_name_H-M   'P 2/c'
_symmetry_Int_Tables_number      13
_space_group_name_Hall           '-P 2yc'
loop_
_symmetry_equiv_pos_site_id
_symmetry_equiv_pos_as_xyz
1 x,y,z
2 -x,y,1/2-z
3 -x,-y,-z
4 x,-y,1/2+z
_cell_length_a                   16.457(4)
_cell_length_b                   9.193(2)
_cell_length_c                   21.244(4)
_cell_angle_alpha                90
_cell_angle_beta                 113.523(14)
_cell_angle_gamma                90
_cell_volume                     2946.91
loop_
_atom_site_label
_atom_site_type_symbol
_atom_site_fract_x
_atom_site_fract_y
_atom_site_fract_z
Cd1 Cd 0.814937(19) 0.49558(4) -0.026511(15)
N1 N 0.7831(2) 0.2621(4) -0.00510(18)
N2 N 0.8002(2) 0.0465(3) 0.04350(16)
N3 N 0.8172(2) 0.0659(4) 0.38561(15)
N4 N 0.8408(2) 0.2778(4) 0.43706(17)
N5 N 0.7230(2) 0.5790(4) 0.02297(18)
N6 N 0.6031(2) 0.6388(4) 0.03586(18)
N7 N 0.8539(2) 0.4663(3) -0.15427(15)
C1 C 0.8352(2) 0.1758(5) 0.0420(2)
H1 H 0.8921 0.2022 0.0720
C2 C 0.7068(3) 0.1834(5) -0.0347(2)
H2 H 0.6558 0.2161 -0.0705
C3 C 0.7158(3) 0.0501(5) -0.0043(2)
H3 H 0.6731 -0.0225 -0.0142
C4 C 0.8410(3) -0.0695(5) 0.0925(2)
H4 H 0.9047 -0.0657 0.1062
H5 H 0.8203 -0.1623 0.0702
C5 C 0.8212(3) -0.0611(5) 0.1557(2)
C6 C 0.7485(3) 0.0102(6) 0.1582(2)
H6 H 0.7095 0.0575 0.1192
C7 C 0.7324(3) 0.0131(6) 0.2169(2)
H7 H 0.6835 0.0638 0.2168
C8 C 0.7872(3) -0.0575(5) 0.2759(2)
C9 C 0.8606(3) -0.1326(5) 0.2736(2)
H8 H 0.8995 -0.1811 0.3124
C10 C 0.8747(3) -0.1341(5) 0.2146(2)
H9 H 0.9226 -0.1867 0.2138
C11 C 0.7679(4) -0.0565(5) 0.3390(2)
H10 H 0.7858 -0.1485 0.3629
H11 H 0.7048 -0.0445 0.3262
C12 C 0.7797(3) 0.1907(5) 0.3928(2)
H12 H 0.7199 0.2133 0.3702
C13 C 0.9152(3) 0.2027(5) 0.4569(2)
H13 H 0.9698 0.2369 0.4877
C14 C 0.9024(3) 0.0708(5) 0.4272(2)
H14 H 0.9444 -0.0019 0.4343
C15 C 0.6403(3) 0.6138(5) -0.0084(2)
H15 H 0.6106 0.6205 -0.0558
C16 C 0.7394(3) 0.5867(6) 0.0909(2)
H16 H 0.7944 0.5691 0.1262
C17 C 0.6668(3) 0.6228(5) 0.1002(2)
H17 H 0.6609 0.6344 0.1417
C18 C 0.5122(3) 0.6900(5) 0.0174(2)
H18 H 0.4921 0.6594 0.0525
H19 H 0.4738 0.6452 -0.0255
C19 C 0.5043(3) 0.8514(5) 0.0100(2)
C20 C 0.4870(3) 0.9097(5) -0.0521(2)
H20 H 0.4777 0.8472 -0.0888
C21 C 0.5176(3) 0.9396(6) 0.0642(2)
H21 H 0.5293 0.9021 0.1077
C22 C 0.7701(3) 0.5033(6) -0.2009(2)
C23 C 0.7666(3) 0.5996(6) -0.2541(2)
H22 H 0.7117 0.6236 -0.2881
C24 C 0.8399(3) 0.6572(5) -0.2568(2)
H23 H 0.8357 0.7242 -0.2908
C25 C 0.9213(3) 0.6161(5) -0.2089(2)
H24 H 0.9721 0.6558 -0.2110
C26 C 0.9299(2) 0.5172(5) -0.1575(2)
C27 C 1.0146(3) 0.4597(5) -0.1077(2)
C28 C 0.6931(3) 0.4510(4) -0.1907(2)
O1 O 0.63549(17) 0.3914(3) -0.24077(14)
O2 O 0.68510(17) 0.4780(3) -0.13675(14)
O3 O 0.86123(16) 0.3770(3) -0.10306(13)
O4 O 1.05422(19) 0.5480(3) -0.05835(14)
O5 O 1.04141(18) 0.3440(3) -0.11858(14)
Cd1C Cd 0.814937(19) 0.50442(4) -0.526511(15)
Cd1C_2 Cd 0.814937(19) 0.50442(4) 0.473489(15)
Cd1B Cd 1.185063(19) 0.50442(4) 0.026511(15)
Cd1B_2 Cd 0.185063(19) 1.50442(4) 0.026511(15)
N1C N 0.7831(2) 0.7379(4) -0.50510(18)
N2C N 0.8002(2) 0.9535(3) -0.45650(16)
N3C N 0.8172(2) 0.9341(4) -0.11439(15)
N4C N 0.8408(2) 0.7222(4) -0.06294(17)
N4_2 N 0.8408(2) 0.2778(4) -0.56294(17)
N5B N 0.2770(2) 1.4210(4) -0.02297(18)
N5C N 0.7230(2) 0.4210(4) -0.47703(18)
N6B N 0.3969(2) 1.3612(4) -0.03586(18)
N7B N 1.1461(2) 0.5337(3) 0.15427(15)
C1C C 0.8352(2) 0.8242(5) -0.4580(2)
H1C H 0.8921 0.7978 -0.4280
C2C C 0.7068(3) 0.8166(5) -0.5347(2)
H2C H 0.6558 0.7839 -0.5705
C3C C 0.7158(3) 0.9499(5) -0.5043(2)
H3C H 0.6731 1.0225 -0.5142
C4C C 0.8410(3) 1.0695(5) -0.4075(2)
H4C H 0.9047 1.0657 -0.3938
H5C H 0.8203 1.1623 -0.4298
C5C C 0.8212(3) 1.0611(5) -0.3443(2)
C6C C 0.7485(3) 0.9898(6) -0.3418(2)
H6C H 0.7095 0.9425 -0.3808
C7C C 0.7324(3) 0.9869(6) -0.2831(2)
H7C H 0.6835 0.9362 -0.2832
C8C C 0.7872(3) 1.0575(5) -0.2241(2)
C9C C 0.8606(3) 1.1326(5) -0.2264(2)
H8C H 0.8995 1.1811 -0.1876
C10C C 0.8747(3) 1.1341(5) -0.2854(2)
H9C H 0.9226 1.1867 -0.2862
C11C C 0.7679(4) 1.0565(5) -0.1610(2)
H10C H 0.7858 1.1485 -0.1371
H11C H 0.7048 1.0445 -0.1738
C12C C 0.7797(3) 0.8093(5) -0.1072(2)
H12C H 0.7199 0.7867 -0.1298
C13C C 0.9152(3) 0.7973(5) -0.0431(2)
H13C H 0.9698 0.7631 -0.0123
C14C C 0.9024(3) 0.9292(5) -0.0728(2)
H14C H 0.9444 1.0019 -0.0657
C15B C 0.3597(3) 1.3862(5) 0.0084(2)
H15B H 0.3894 1.3795 0.0558
C16B C 0.2606(3) 1.4133(6) -0.0909(2)
H16B H 0.2056 1.4309 -0.1262
C17B C 0.3332(3) 1.3772(5) -0.1002(2)
H17B H 0.3391 1.3656 -0.1417
C18B C 0.4878(3) 1.3100(5) -0.0174(2)
H18B H 0.5079 1.3406 -0.0525
H19B H 0.5262 1.3548 0.0255
C19B C 0.4957(3) 1.1486(5) -0.0100(2)
C20B C 0.5130(3) 1.0903(5) 0.0521(2)
H20B H 0.5223 1.1528 0.0888
C21B C 0.4824(3) 1.0604(6) -0.0642(2)
H21B H 0.4707 1.0979 -0.1077
C22B C 1.2299(3) 0.4967(6) 0.2009(2)
C23B C 1.2334(3) 0.4004(6) 0.2541(2)
H22B H 1.2883 0.3764 0.2881
C24B C 1.1601(3) 0.3428(5) 0.2568(2)
H23B H 1.1643 0.2758 0.2908
C25B C 1.0787(3) 0.3839(5) 0.2089(2)
H24B H 1.0279 0.3442 0.2110
C26B C 1.0701(2) 0.4828(5) 0.1575(2)
C27B C 0.9854(3) 0.5403(5) 0.1077(2)
C28B C 1.3069(3) 0.5490(4) 0.1907(2)
O1B O 1.36451(17) 0.6086(3) 0.24077(14)
O2B O 1.31490(17) 0.5220(3) 0.13675(14)
O2C O 0.68510(17) 0.5220(3) -0.63675(14)
O3B O 1.13877(16) 0.6230(3) 0.10306(13)
O3C O 0.86123(16) 0.6230(3) -0.60306(13)
O4B O 0.94578(19) 0.4520(3) 0.05835(14)
O4A O 0.94578(19) 0.5480(3) -0.44165(14)
O5B O 0.95859(18) 0.6560(3) 0.11858(14)
O7 O 0.4920(4) 0.5303(8) 0.6594(3)
H27 H 0.4825 0.4606 0.6819
H28 H 0.5459 0.5286 0.6644
O6? O 0.4521(3) 0.8042(9) 0.7382(4)
H25? H 0.4694 0.7736 0.7079
H26? H 0.4680 0.8922 0.7479
O8? O 0.4958(5) 0.2112(7) 0.7126(4)
H29? H 0.5339 0.2045 0.7537
H30? H 0.4448 0.1901 0.7113
loop_
_geom_bond_atom_site_label_1
_geom_bond_atom_site_label_2
_geom_bond_site_symmetry_1
_geom_bond_site_symmetry_2
Cd1 N1 1_555 1_555
N1 C1 1_555 1_555
N2 C1 1_555 1_555
N3 C11 1_555 1_555
N4 C12 1_555 1_555
N5 Cd1 1_555 1_555
N6 C15 1_555 1_555
N7 C22 1_555 1_555
C1 H1 1_555 1_555
C2 N1 1_555 1_555
H2 C2 1_555 1_555
C3 N2 1_555 1_555
H3 C3 1_555 1_555
C4 N2 1_555 1_555
H4 C4 1_555 1_555
H5 C4 1_555 1_555
C5 C4 1_555 1_555
C6 C5 1_555 1_555
H6 C6 1_555 1_555
C7 C6 1_555 1_555
H7 C7 1_555 1_555
C8 C7 1_555 1_555
C9 C8 1_555 1_555
H8 C9 1_555 1_555
C10 C5 1_555 1_555
H9 C10 1_555 1_555
C11 C8 1_555 1_555
H10 C11 1_555 1_555
H11 C11 1_555 1_555
C12 N3 1_555 1_555
H12 C12 1_555 1_555
C13 N4 1_555 1_555
H13 C13 1_555 1_555
C14 N3 1_555 1_555
H14 C14 1_555 1_555
C15 N5 1_555 1_555
H15 C15 1_555 1_555
C16 N5 1_555 1_555
H16 C16 1_555 1_555
C17 N6 1_555 1_555
H17 C17 1_555 1_555
C18 N6 1_555 1_555
H18 C18 1_555 1_555
H19 C18 1_555 1_555
C19 C18 1_555 1_555
C20 C19 1_555 1_555
H20 C20 1_555 1_555
C21 C19 1_555 1_555
H21 C21 1_555 1_555
C22 C23 1_555 1_555
C23 H22 1_555 1_555
C24 C23 1_555 1_555
H23 C24 1_555 1_555
C25 C24 1_555 1_555
H24 C25 1_555 1_555
C26 N7 1_555 1_555
C27 C26 1_555 1_555
C28 C22 1_555 1_555
O1 C28 1_555 1_555
O2 Cd1 1_555 1_555
O3 Cd1 1_555 1_555
O4 C27 1_555 1_555
O5 C27 1_555 1_555
O7 H27 1_555 1_555
H28 O7 1_555 1_555
Cd1C N1C 1_555 1_555
Cd1C_2 N4 1_555 1_555
Cd1B O4 1_555 1_555
Cd1B_2 N5B 1_555 1_555
N1C C1C 1_555 1_555
N2C C1C 1_555 1_555
N3C C11C 1_555 1_555
N4C Cd1 1_555 1_555
N4_2 Cd1C 1_555 1_555
N5B C15B 1_555 1_555
N5C Cd1C 1_555 1_555
N6B C15B 1_555 1_555
N7B C22B 1_555 1_555
C1C H1C 1_555 1_555
C2C N1C 1_555 1_555
H2C C2C 1_555 1_555
C3C N2C 1_555 1_555
H3C C3C 1_555 1_555
C4C N2C 1_555 1_555
H4C C4C 1_555 1_555
H5C C4C 1_555 1_555
C5C C4C 1_555 1_555
C6C C5C 1_555 1_555
H6C C6C 1_555 1_555
C7C C6C 1_555 1_555
H7C C7C 1_555 1_555
C8C C7C 1_555 1_555
C9C C8C 1_555 1_555
H8C C9C 1_555 1_555
C10C C5C 1_555 1_555
H9C C10C 1_555 1_555
C11C C8C 1_555 1_555
H10C C11C 1_555 1_555
H11C C11C 1_555 1_555
C12C N3C 1_555 1_555
H12C C12C 1_555 1_555
C13C N4C 1_555 1_555
H13C C13C 1_555 1_555
C14C N3C 1_555 1_555
H14C C14C 1_555 1_555
C15B H15B 1_555 1_555
C16B N5B 1_555 1_555
H16B C16B 1_555 1_555
C17B N6B 1_555 1_555
H17B C17B 1_555 1_555
C18B N6B 1_555 1_555
H18B C18B 1_555 1_555
H19B C18B 1_555 1_555
C19B C18B 1_555 1_555
C20B C21 1_555 1_555
H20B C20B 1_555 1_555
C21B C20 1_555 1_555
H21B C21B 1_555 1_555
C22B C23B 1_555 1_555
C23B H22B 1_555 1_555
C24B C23B 1_555 1_555
H23B C24B 1_555 1_555
C25B C24B 1_555 1_555
H24B C25B 1_555 1_555
C26B N7B 1_555 1_555
C27B C26B 1_555 1_555
C28B C22B 1_555 1_555
O1B C28B 1_555 1_555
O2B Cd1B 1_555 1_555
O2C Cd1C 1_555 1_555
O3B Cd1B 1_555 1_555
O3C Cd1C 1_555 1_555
O4B Cd1 1_555 1_555
O4A Cd1C 1_555 1_555
O5B C27B 1_555 1_555
N7 O3 1_555 1_555
C2 C3 1_555 1_555
C9 C10 1_555 1_555
C13 C14 1_555 1_555
C16 C17 1_555 1_555
C25 C26 1_555 1_555
C28 O2 1_555 1_555
N4C C12C 1_555 1_555
N7B O3B 1_555 1_555
C2C C3C 1_555 1_555
C9C C10C 1_555 1_555
C13C C14C 1_555 1_555
C16B C17B 1_555 1_555
C19B C20B 1_555 1_555
C19B C21B 1_555 1_555
C25B C26B 1_555 1_555
C27B O4B 1_555 1_555
C28B O2B 1_555 1_555

#END
