
#######################################################################
#
#                 Cambridge Crystallographic Data Centre
#                                CCDC 
#
#######################################################################
#
# If this CIF has been generated from an entry in the Cambridge 
# Structural Database, then it will include bibliographic, chemical, 
# crystal, experimental, refinement or atomic coordinate data resulting 
# from the CCDC's data processing and validation procedures.
#
#######################################################################

data_CAYCOV
_symmetry_cell_setting           monoclinic
_symmetry_space_group_name_H-M   'P 21'
_symmetry_Int_Tables_number      4
_space_group_name_Hall           'P 2yb'
loop_
_symmetry_equiv_pos_site_id
_symmetry_equiv_pos_as_xyz
1 x,y,z
2 -x,1/2+y,-z
_cell_length_a                   10.825(2)
_cell_length_b                   16.860(3)
_cell_length_c                   11.004(2)
_cell_angle_alpha                90
_cell_angle_beta                 99.03(3)
_cell_angle_gamma                90
_cell_volume                     1983.44
loop_
_atom_site_label
_atom_site_type_symbol
_atom_site_fract_x
_atom_site_fract_y
_atom_site_fract_z
Zn1 Zn 1.28364(4) 0.823765(19) 0.75507(4)
Zn2 Zn 0.77259(4) 0.84172(2) -0.23911(3)
C1 C 1.2466(4) 0.7980(2) 0.4732(4)
H1 H 1.3301 0.7827 0.4899
C2 C 1.1875(4) 0.7972(3) 0.3517(4)
H2 H 1.2306 0.7793 0.2903
C3 C 1.0638(4) 0.8231(3) 0.3210(4)
C4 C 1.0087(4) 0.8461(2) 0.4206(3)
H3 H 0.9264 0.8639 0.4061
C5 C 1.0688(4) 0.8440(3) 0.5390(4)
H4 H 1.0258 0.8597 0.6018
C6 C 0.8082(4) 0.8195(3) 0.0477(4)
H5 H 0.7218 0.8132 0.0318
C7 C 0.8623(4) 0.8191(3) 0.1650(4)
H6 H 0.8133 0.8146 0.2269
C8 C 0.9958(4) 0.8256(3) 0.1964(4)
C9 C 1.0628(4) 0.8341(2) 0.0945(3)
H7 H 1.1494 0.8397 0.1067
C10 C 0.9928(3) 0.8334(2) -0.0244(3)
H8 H 1.0367 0.8366 -0.0905
C11 C 1.0170(4) 0.6558(2) 0.6626(4)
C12 C 0.9975(4) 0.6013(2) 0.5701(4)
H9 H 0.9154 0.5900 0.5356
C13 C 1.0868(4) 0.5642(3) 0.5272(4)
H10 H 1.0682 0.5259 0.4662
C14 C 1.2122(4) 0.5829(3) 0.5745(4)
H11 H 1.2773 0.5584 0.5429
C15 C 1.2380(4) 0.6387(3) 0.6691(4)
C16 C 1.3692(4) 0.6577(2) 0.7224(4)
C17 C 0.9161(4) 0.6969(3) 0.7170(4)
C18 C 1.6652(5) 0.7706(3) 1.5058(5)
H12 H 1.6963 0.7243 1.5450
C19 C 1.6114(4) 0.7670(3) 1.3836(4)
H13 H 1.6086 0.7190 1.3417
C20 C 1.5604(4) 0.8364(4) 1.3214(4)
C21 C 1.5725(4) 0.9080(3) 1.3877(4)
H14 H 1.5453 0.9556 1.3500
C22 C 1.6272(4) 0.9059(3) 1.5141(4)
H15 H 1.6305 0.9526 1.5594
C23 C 1.4197(4) 0.8973(2) 0.9981(4)
H16 H 1.4083 0.9435 0.9515
C24 C 1.4803(4) 0.9020(2) 1.1179(4)
H17 H 1.5114 0.9508 1.1483
C25 C 1.4961(4) 0.8364(3) 1.1938(3)
C26 C 1.4465(4) 0.7637(2) 1.1388(3)
H18 H 1.4521 0.7171 1.1845
C27 C 1.3899(4) 0.7636(2) 1.0164(4)
H19 H 1.3604 0.7152 0.9829
C28 C 0.6844(3) 1.0024(2) 0.8336(4)
C29 C 0.8180(4) 1.0264(2) 0.8645(4)
C30 C 0.8420(4) 1.0850(3) 0.9444(4)
H20 H 0.7788 1.1094 0.9791
C31 C 0.9731(5) 1.1098(3) 0.9760(4)
H21 H 0.9943 1.1485 1.0358
C32 C 1.0669(4) 1.0764(3) 0.9179(4)
H22 H 1.1494 1.0936 0.9352
C33 C 1.0304(4) 1.0160(3) 0.8321(4)
C34 C 1.1195(4) 0.9763(2) 0.7653(4)
N1 N 1.1892(3) 0.8199(3) 0.5682(3)
N2 N 0.8681(3) 0.8285(3) -0.0502(3)
N3 N 1.1432(3) 0.6741(2) 0.7122(4)
N4 N 1.6744(3) 0.8392(3) 1.5707(3)
N5 N 1.3745(4) 0.8257(3) 0.9440(4)
N6 N 0.9070(3) 0.9930(2) 0.8040(3)
O1 O 1.4174(3) 0.8987(2) 0.7009(3)
H23 H 1.4742 0.8709 0.6765
H24 H 1.4514 0.9246 0.7637
O2 O 1.1725(4) 0.7256(2) 0.8000(4)
O3 O 1.4037(3) 0.7259(2) 0.7277(3)
O4 O 1.4417(3) 0.59806(17) 0.7576(3)
O5 O 0.8490(3) 0.65506(17) 0.7675(3)
O6 O 0.9031(3) 0.7695(2) 0.7024(3)
O7 O 0.6546(3) 0.7540(2) -0.1893(3)
H25 H 0.5868 0.7459 -0.2557
H26 H 0.6999 0.7053 -0.1724
O8 O 0.8813(3) 0.9383(2) 0.7204(3)
O9 O 0.6535(3) 0.93035(17) 0.8075(3)
O10 O 0.6039(3) 1.05101(18) 0.8413(3)
O11 O 1.1507(3) 1.01471(18) 0.6759(3)
O12 O 1.1648(3) 0.9106(2) 0.8011(3)
Zn2_2 Zn 1.77259(4) 0.84172(2) 1.76089(3)
Zn2_3 Zn 0.77259(4) 0.84172(2) 0.76089(3)
N4_2 N 0.6744(3) 0.8392(3) -0.4293(3)
O6_2 O 0.9031(3) 0.7695(2) -0.2976(3)
O8_2 O 0.8813(3) 0.9383(2) -0.2796(3)
O9_2 O 0.6535(3) 0.93035(17) -0.1925(3)
O13 O 0.7483(3) 0.49523(17) 0.7402(2)
H27 H 0.7290 0.4847 0.6640
H28 H 0.8231 0.5122 0.7545
O14 O 0.6309(3) 0.60418(17) 0.2019(3)
H29 H 0.6623 0.5579 0.2053
H30 H 0.5825 0.6127 0.1346
O15 O 0.3282(3) 1.00811(17) 0.5175(2)
H31 H 0.3699 0.9726 0.5609
H32 H 0.2642 1.0188 0.5505
loop_
_geom_bond_atom_site_label_1
_geom_bond_atom_site_label_2
_geom_bond_site_symmetry_1
_geom_bond_site_symmetry_2
Zn1 N1 1_555 1_555
Zn2 N2 1_555 1_555
C1 H1 1_555 1_555
C2 C1 1_555 1_555
H2 C2 1_555 1_555
C3 C2 1_555 1_555
C4 C3 1_555 1_555
H3 C4 1_555 1_555
C5 C4 1_555 1_555
H4 C5 1_555 1_555
C6 H5 1_555 1_555
C7 C6 1_555 1_555
H6 C7 1_555 1_555
C8 C3 1_555 1_555
C9 C8 1_555 1_555
H7 C9 1_555 1_555
C10 C9 1_555 1_555
H8 C10 1_555 1_555
C11 C12 1_555 1_555
C12 H9 1_555 1_555
C13 C12 1_555 1_555
H10 C13 1_555 1_555
C14 C13 1_555 1_555
H11 C14 1_555 1_555
C15 C14 1_555 1_555
C16 C15 1_555 1_555
C17 C11 1_555 1_555
C18 H12 1_555 1_555
C19 C18 1_555 1_555
H13 C19 1_555 1_555
C20 C19 1_555 1_555
C21 C20 1_555 1_555
H14 C21 1_555 1_555
C22 C21 1_555 1_555
H15 C22 1_555 1_555
C23 H16 1_555 1_555
C24 C23 1_555 1_555
H17 C24 1_555 1_555
C25 C20 1_555 1_555
C26 C25 1_555 1_555
H18 C26 1_555 1_555
C27 C26 1_555 1_555
H19 C27 1_555 1_555
C28 C29 1_555 1_555
C29 C30 1_555 1_555
C30 H20 1_555 1_555
C31 C30 1_555 1_555
H21 C31 1_555 1_555
C32 C31 1_555 1_555
H22 C32 1_555 1_555
C33 C32 1_555 1_555
C34 C33 1_555 1_555
N1 C1 1_555 1_555
N2 C6 1_555 1_555
N3 C11 1_555 1_555
N4 C18 1_555 1_555
N5 Zn1 1_555 1_555
N6 C29 1_555 1_555
O1 Zn1 1_555 1_555
H23 O1 1_555 1_555
H24 O1 1_555 1_555
O2 Zn1 1_555 1_555
O3 Zn1 1_555 1_555
O4 C16 1_555 1_555
O5 C17 1_555 1_555
O6 C17 1_555 1_555
O7 Zn2 1_555 1_555
H25 O7 1_555 1_555
H26 O7 1_555 1_555
O8 N6 1_555 1_555
O9 C28 1_555 1_555
O10 C28 1_555 1_555
O11 C34 1_555 1_555
O12 Zn1 1_555 1_555
O13 H27 1_555 1_555
H28 O13 1_555 1_555
O14 H29 1_555 1_555
H30 O14 1_555 1_555
O15 H31 1_555 1_555
H32 O15 1_555 1_555
Zn2_2 N4 1_555 1_555
Zn2_3 O6 1_555 1_555
N4_2 Zn2 1_555 1_555
O6_2 Zn2 1_555 1_555
O8_2 Zn2 1_555 1_555
O9_2 Zn2 1_555 1_555
C5 N1 1_555 1_555
C7 C8 1_555 1_555
C10 N2 1_555 1_555
C15 N3 1_555 1_555
C16 O3 1_555 1_555
C22 N4 1_555 1_555
C23 N5 1_555 1_555
C24 C25 1_555 1_555
C27 N5 1_555 1_555
C33 N6 1_555 1_555
C34 O12 1_555 1_555
N3 O2 1_555 1_555
O8 Zn2_3 1_555 1_555
O9 Zn2_3 1_555 1_555

#END
