
#######################################################################
#
#                 Cambridge Crystallographic Data Centre
#                                CCDC 
#
#######################################################################
#
# If this CIF has been generated from an entry in the Cambridge 
# Structural Database, then it will include bibliographic, chemical, 
# crystal, experimental, refinement or atomic coordinate data resulting 
# from the CCDC's data processing and validation procedures.
#
#######################################################################

data_CAYDOX01
_symmetry_cell_setting           tetragonal
_symmetry_space_group_name_H-M   'P 41'
_symmetry_Int_Tables_number      76
_space_group_name_Hall           'P 4w'
loop_
_symmetry_equiv_pos_site_id
_symmetry_equiv_pos_as_xyz
1 x,y,z
2 -y,x,1/4+z
3 -x,-y,1/2+z
4 y,-x,3/4+z
_cell_length_a                   12.3879(3)
_cell_length_b                   12.3879(3)
_cell_length_c                   7.9323(3)
_cell_angle_alpha                90
_cell_angle_beta                 90
_cell_angle_gamma                90
_cell_volume                     1217.29
loop_
_atom_site_label
_atom_site_type_symbol
_atom_site_fract_x
_atom_site_fract_y
_atom_site_fract_z
Cu1 Cu 0.82291(6) 0.51410(6) 0.85868(10)
C1 C 0.6454(6) 0.6646(6) 0.9379(8)
C2 C 0.6184(6) 0.6761(6) 0.7550(9)
H1 H 0.5557 0.7225 0.7443
H2 H 0.5989 0.6057 0.7109
C3 C 0.7081(6) 0.7217(6) 0.6490(10)
H3 H 0.6842 0.7289 0.5332
H4 H 0.7278 0.7927 0.6903
C4 C 0.8843(6) 0.6807(7) 0.5390(10)
H5 H 0.8904 0.7587 0.5347
H6 H 0.8654 0.6554 0.4271
C5 C 0.9897(6) 0.6335(5) 0.5899(11)
H7 H 1.0085 0.6604 0.7009
H8 H 1.0448 0.6577 0.5118
C6 C 0.9895(5) 0.5131(5) 0.5940(10)
N1 N 0.7242(5) 0.6003(4) 0.9934(7)
N2 N 0.7249(5) 0.6060(5) 1.1648(7)
N3 N 0.6463(5) 0.6722(5) 1.2095(7)
N4 N 0.5967(4) 0.7107(4) 1.0678(7)
N5 N 0.9234(4) 0.4547(4) 0.6904(7)
N6 N 0.9454(5) 0.3510(5) 0.6591(7)
N7 N 1.0240(5) 0.3466(5) 0.5518(8)
N8 N 1.0524(4) 0.4485(4) 0.5081(7)
O1 O 0.8003(4) 0.6508(4) 0.6567(6)
Cu1A Cu 0.48590(6) 0.82291(6) 1.10868(10)
Cu1B Cu 1.17709(6) 0.48590(6) 0.35868(10)
N4C N 0.7107(4) 0.4033(4) 0.8178(7)
N8B N 0.9476(4) 0.5515(4) 1.0081(7)
loop_
_geom_bond_atom_site_label_1
_geom_bond_atom_site_label_2
_geom_bond_site_symmetry_1
_geom_bond_site_symmetry_2
Cu1 N1 1_555 1_555
C1 C2 1_555 1_555
C2 H1 1_555 1_555
H2 C2 1_555 1_555
C3 C2 1_555 1_555
H3 C3 1_555 1_555
H4 C3 1_555 1_555
C4 H5 1_555 1_555
H6 C4 1_555 1_555
C5 C4 1_555 1_555
H7 C5 1_555 1_555
H8 C5 1_555 1_555
C6 C5 1_555 1_555
N1 C1 1_555 1_555
N2 N1 1_555 1_555
N3 N2 1_555 1_555
N4 C1 1_555 1_555
N5 Cu1 1_555 1_555
N6 N5 1_555 1_555
N7 N6 1_555 1_555
N8 C6 1_555 1_555
O1 Cu1 1_555 1_555
Cu1A N4 1_555 1_555
Cu1B N8 1_555 1_555
N4C Cu1 1_555 1_555
N8B Cu1 1_555 1_555
C3 O1 1_555 1_555
C4 O1 1_555 1_555
C6 N5 1_555 1_555
N3 N4 1_555 1_555
N7 N8 1_555 1_555

#END
