
#######################################################################
#
#                 Cambridge Crystallographic Data Centre
#                                CCDC 
#
#######################################################################
#
# If this CIF has been generated from an entry in the Cambridge 
# Structural Database, then it will include bibliographic, chemical, 
# crystal, experimental, refinement or atomic coordinate data resulting 
# from the CCDC's data processing and validation procedures.
#
#######################################################################

data_CAYDUD
_symmetry_cell_setting           tetragonal
_symmetry_space_group_name_H-M   'P 41'
_symmetry_Int_Tables_number      76
_space_group_name_Hall           'P 4w'
loop_
_symmetry_equiv_pos_site_id
_symmetry_equiv_pos_as_xyz
1 x,y,z
2 -y,x,1/4+z
3 -x,-y,1/2+z
4 y,-x,3/4+z
_cell_length_a                   12.3919(3)
_cell_length_b                   12.3919(3)
_cell_length_c                   7.9043(3)
_cell_angle_alpha                90
_cell_angle_beta                 90
_cell_angle_gamma                90
_cell_volume                     1213.78
loop_
_atom_site_label
_atom_site_type_symbol
_atom_site_fract_x
_atom_site_fract_y
_atom_site_fract_z
Cu1 Cu 0.51429(9) 0.82313(8) 0.80505(13)
C1 C 0.6637(8) 0.6451(9) 0.7227(13)
C2 C 0.6752(11) 0.6185(9) 0.9088(15)
H1 H 0.7194 0.5543 0.9198
H2 H 0.6044 0.6017 0.9540
C3 C 0.7251(10) 0.7082(9) 1.0155(14)
H3 H 0.7336 0.6848 1.1319
H4 H 0.7955 0.7280 0.9714
C4 C 0.6808(9) 0.8839(10) 1.1270(15)
H5 H 0.7588 0.8891 1.1339
H6 H 0.6536 0.8652 1.2383
C5 C 0.6348(8) 0.9902(8) 1.0731(17)
H7 H 0.6589 1.0458 1.1509
H8 H 0.6621 1.0081 0.9616
C6 C 0.5153(7) 0.9897(8) 1.0685(17)
N1 N 0.6001(7) 0.7241(7) 0.6669(11)
N2 N 0.6073(7) 0.7237(8) 0.4965(12)
N3 N 0.6737(8) 0.6461(8) 0.4526(13)
N4 N 0.7083(6) 0.5982(7) 0.5946(11)
N5 N 0.4548(7) 0.9211(7) 0.9768(11)
N6 N 0.3500(7) 0.9454(8) 1.0057(11)
N7 N 0.3422(7) 1.0231(8) 1.1134(13)
N8 N 0.4472(7) 1.0524(6) 1.1585(12)
O1 O 0.6510(6) 0.8000(6) 1.0061(9)
Cu1B Cu 0.48571(9) 1.17687(8) 1.30505(13)
Cu1C Cu 0.82313(8) 0.48571(9) 0.55505(13)
N4A N 0.4018(7) 0.7083(6) 0.8446(11)
N8B N 0.5528(7) 0.9476(6) 0.6585(12)
I1 I 0.1108(4) 0.0490(5) 0.2370(11)
I2? I -0.0949(5) 0.0580(7) 0.348(2)
loop_
_geom_bond_atom_site_label_1
_geom_bond_atom_site_label_2
_geom_bond_site_symmetry_1
_geom_bond_site_symmetry_2
Cu1 N1 1_555 1_555
C1 C2 1_555 1_555
C2 H1 1_555 1_555
H2 C2 1_555 1_555
C3 C2 1_555 1_555
H3 C3 1_555 1_555
H4 C3 1_555 1_555
C4 H5 1_555 1_555
H6 C4 1_555 1_555
C5 C4 1_555 1_555
H7 C5 1_555 1_555
H8 C5 1_555 1_555
C6 C5 1_555 1_555
N1 C1 1_555 1_555
N2 N1 1_555 1_555
N3 N2 1_555 1_555
N4 C1 1_555 1_555
N5 Cu1 1_555 1_555
N6 N5 1_555 1_555
N7 N6 1_555 1_555
N8 C6 1_555 1_555
O1 Cu1 1_555 1_555
Cu1B N8 1_555 1_555
Cu1C N4 1_555 1_555
N4A Cu1 1_555 1_555
N8B Cu1 1_555 1_555
C3 O1 1_555 1_555
C4 O1 1_555 1_555
C6 N5 1_555 1_555
N3 N4 1_555 1_555
N7 N8 1_555 1_555

#END
