
#######################################################################
#
#                 Cambridge Crystallographic Data Centre
#                                CCDC 
#
#######################################################################
#
# If this CIF has been generated from an entry in the Cambridge 
# Structural Database, then it will include bibliographic, chemical, 
# crystal, experimental, refinement or atomic coordinate data resulting 
# from the CCDC's data processing and validation procedures.
#
#######################################################################

data_CAYDOX
_symmetry_cell_setting           tetragonal
_symmetry_space_group_name_H-M   'P 41'
_symmetry_Int_Tables_number      76
_space_group_name_Hall           'P 4w'
loop_
_symmetry_equiv_pos_site_id
_symmetry_equiv_pos_as_xyz
1 x,y,z
2 -y,x,1/4+z
3 -x,-y,1/2+z
4 y,-x,3/4+z
_cell_length_a                   12.3857(3)
_cell_length_b                   12.3857(3)
_cell_length_c                   7.8956(3)
_cell_angle_alpha                90
_cell_angle_beta                 90
_cell_angle_gamma                90
_cell_volume                     1211.23
loop_
_atom_site_label
_atom_site_type_symbol
_atom_site_fract_x
_atom_site_fract_y
_atom_site_fract_z
Cu1 Cu 0.01422(10) 0.67692(10) 0.23882(18)
C1 C 0.1638(9) 0.8530(10) 0.3196(16)
C2 C 0.1762(11) 0.8821(9) 0.1361(17)
H1 H 0.1063 0.9031 0.0916
H2 H 0.2236 0.9442 0.1273
C3 C 0.2208(10) 0.7928(10) 0.0286(19)
H3 H 0.2265 0.8168 -0.0880
H4 H 0.2925 0.7735 0.0678
C4 C 0.1819(9) 0.6155(10) -0.080(2)
H5 H 0.2598 0.6083 -0.0812
H6 H 0.1587 0.6351 -0.1934
C5 C 0.1321(9) 0.5094(9) -0.032(2)
H7 H 0.1553 0.4548 -0.1122
H8 H 0.1587 0.4885 0.0789
C6 C 0.0121(10) 0.5110(9) -0.027(2)
N1 N 0.0996(7) 0.7753(7) 0.3759(14)
N2 N 0.1077(9) 0.7740(8) 0.5472(13)
N3 N 0.1735(8) 0.8522(9) 0.5961(15)
N4 N 0.2098(7) 0.9042(7) 0.4532(14)
N5 N -0.0461(8) 0.5786(7) 0.0682(13)
N6 N -0.1497(7) 0.5557(7) 0.0396(13)
N7 N -0.1554(8) 0.4781(9) -0.0723(16)
N8 N -0.0526(7) 0.4476(7) -0.1127(14)
O1 O 0.1511(6) 0.7006(6) 0.0380(11)
Cu1A Cu 0.32308(10) 1.01422(10) 0.48882(18)
Cu1B Cu -0.01422(10) 0.32308(10) -0.26118(18)
N4C N -0.0958(7) 0.7902(7) 0.2032(14)
N8B N 0.0526(7) 0.5524(7) 0.3873(14)
loop_
_geom_bond_atom_site_label_1
_geom_bond_atom_site_label_2
_geom_bond_site_symmetry_1
_geom_bond_site_symmetry_2
Cu1 N1 1_555 1_555
C1 C2 1_555 1_555
C2 H1 1_555 1_555
H2 C2 1_555 1_555
C3 C2 1_555 1_555
H3 C3 1_555 1_555
H4 C3 1_555 1_555
C4 H5 1_555 1_555
H6 C4 1_555 1_555
C5 C4 1_555 1_555
H7 C5 1_555 1_555
H8 C5 1_555 1_555
C6 C5 1_555 1_555
N1 C1 1_555 1_555
N2 N1 1_555 1_555
N3 N2 1_555 1_555
N4 C1 1_555 1_555
N5 Cu1 1_555 1_555
N6 N5 1_555 1_555
N7 N6 1_555 1_555
N8 C6 1_555 1_555
O1 Cu1 1_555 1_555
Cu1A N4 1_555 1_555
Cu1B N8 1_555 1_555
N4C Cu1 1_555 1_555
N8B Cu1 1_555 1_555
C3 O1 1_555 1_555
C4 O1 1_555 1_555
C6 N5 1_555 1_555
N3 N4 1_555 1_555
N7 N8 1_555 1_555

#END
