
#######################################################################
#
#                 Cambridge Crystallographic Data Centre
#                                CCDC 
#
#######################################################################
#
# If this CIF has been generated from an entry in the Cambridge 
# Structural Database, then it will include bibliographic, chemical, 
# crystal, experimental, refinement or atomic coordinate data resulting 
# from the CCDC's data processing and validation procedures.
#
#######################################################################

data_CAYDOX03
_symmetry_cell_setting           tetragonal
_symmetry_space_group_name_H-M   'P 41'
_symmetry_Int_Tables_number      76
_space_group_name_Hall           'P 4w'
loop_
_symmetry_equiv_pos_site_id
_symmetry_equiv_pos_as_xyz
1 x,y,z
2 -y,x,1/4+z
3 -x,-y,1/2+z
4 y,-x,3/4+z
_cell_length_a                   12.3965(3)
_cell_length_b                   12.3965(3)
_cell_length_c                   7.9197(3)
_cell_angle_alpha                90
_cell_angle_beta                 90
_cell_angle_gamma                90
_cell_volume                     1217.05
loop_
_atom_site_label
_atom_site_type_symbol
_atom_site_fract_x
_atom_site_fract_y
_atom_site_fract_z
Cu1 Cu 0.82292(6) 0.51412(6) 0.17336(10)
C1 C 0.6452(6) 0.6644(6) 0.2525(8)
C2 C 0.6182(7) 0.6764(7) 0.0695(9)
H1 H 0.5559 0.7233 0.0591
H2 H 0.5983 0.6063 0.0249
C3 C 0.7078(7) 0.7215(7) -0.0359(10)
H3 H 0.6839 0.7287 -0.1520
H4 H 0.7274 0.7926 0.0053
C4 C 0.8855(7) 0.6807(7) -0.1453(10)
H5 H 0.8923 0.7586 -0.1485
H6 H 0.8669 0.6560 -0.2579
C5 C 0.9897(6) 0.6321(6) -0.0932(12)
H7 H 1.0456 0.6567 -0.1697
H8 H 1.0077 0.6581 0.0189
C6 C 0.9898(5) 0.5127(5) -0.0910(11)
N1 N 0.7248(5) 0.5992(5) 0.3082(7)
N2 N 0.7240(5) 0.6060(6) 0.4803(7)
N3 N 0.6461(6) 0.6730(5) 0.5241(7)
N4 N 0.5964(5) 0.7109(5) 0.3824(7)
N5 N 0.9233(4) 0.4544(5) 0.0048(7)
N6 N 0.9457(5) 0.3514(5) -0.0265(8)
N7 N 1.0239(6) 0.3467(5) -0.1339(8)
N8 N 1.0512(5) 0.4489(5) -0.1766(7)
O1 O 0.8004(4) 0.6508(4) -0.0284(6)
Cu1A Cu 0.48588(6) 0.82292(6) 0.42336(10)
Cu1B Cu 1.17708(6) 0.48588(6) -0.32664(10)
N4C N 0.7109(5) 0.4036(5) 0.1324(7)
N8B N 0.9488(5) 0.5511(5) 0.3234(7)
loop_
_geom_bond_atom_site_label_1
_geom_bond_atom_site_label_2
_geom_bond_site_symmetry_1
_geom_bond_site_symmetry_2
Cu1 N1 1_555 1_555
C1 C2 1_555 1_555
C2 H1 1_555 1_555
H2 C2 1_555 1_555
C3 C2 1_555 1_555
H3 C3 1_555 1_555
H4 C3 1_555 1_555
C4 H5 1_555 1_555
H6 C4 1_555 1_555
C5 C4 1_555 1_555
H7 C5 1_555 1_555
H8 C5 1_555 1_555
C6 C5 1_555 1_555
N1 C1 1_555 1_555
N2 N1 1_555 1_555
N3 N2 1_555 1_555
N4 C1 1_555 1_555
N5 Cu1 1_555 1_555
N6 N5 1_555 1_555
N7 N6 1_555 1_555
N8 C6 1_555 1_555
O1 Cu1 1_555 1_555
Cu1A N4 1_555 1_555
Cu1B N8 1_555 1_555
N4C Cu1 1_555 1_555
N8B Cu1 1_555 1_555
C3 O1 1_555 1_555
C4 O1 1_555 1_555
C6 N5 1_555 1_555
N3 N4 1_555 1_555
N7 N8 1_555 1_555

#END
