
#######################################################################
#
#                 Cambridge Crystallographic Data Centre
#                                CCDC 
#
#######################################################################
#
# If this CIF has been generated from an entry in the Cambridge 
# Structural Database, then it will include bibliographic, chemical, 
# crystal, experimental, refinement or atomic coordinate data resulting 
# from the CCDC's data processing and validation procedures.
#
#######################################################################

data_CAYDAI
_symmetry_cell_setting           orthorhombic
_symmetry_space_group_name_H-M   'P c a 21'
_symmetry_Int_Tables_number      29
_space_group_name_Hall           'P 2c -2ac'
loop_
_symmetry_equiv_pos_site_id
_symmetry_equiv_pos_as_xyz
1 x,y,z
2 -x,-y,1/2+z
3 1/2+x,-y,z
4 1/2-x,y,1/2+z
_cell_length_a                   20.740(2)
_cell_length_b                   8.4415(10)
_cell_length_c                   11.4863(14)
_cell_angle_alpha                90
_cell_angle_beta                 90
_cell_angle_gamma                90
_cell_volume                     2010.98
loop_
_atom_site_label
_atom_site_type_symbol
_atom_site_fract_x
_atom_site_fract_y
_atom_site_fract_z
Zn1 Zn 0.47676(2) 0.41258(5) 0.19232(4)
C1 C 0.50899(18) 0.7127(4) 0.3126(3)
H1 H 0.5150 0.6616 0.3835
C2 C 0.5043(2) 0.8963(5) 0.1823(5)
H2 H 0.5061 0.9946 0.1459
C3 C 0.48730(16) 0.7607(5) 0.1339(3)
H3 H 0.4755 0.7475 0.0564
C4 C 0.5487(2) 0.9708(6) 0.3802(4)
H4 H 0.5410 0.9295 0.4578
H5 H 0.5283 1.0740 0.3753
C5 C 0.6220(2) 0.9907(4) 0.3621(3)
C6 C 0.6529(2) 0.9201(6) 0.2714(5)
H6 H 0.6308 0.8507 0.2228
C7 C 0.7177(2) 0.9524(6) 0.2520(4)
H7 H 0.7380 0.9088 0.1873
C8 C 0.7526(2) 1.0476(4) 0.3265(4)
C9 C 0.7209(2) 1.1108(5) 0.4205(4)
H8 H 0.7432 1.1739 0.4732
C10 C 0.6545(2) 1.0809(5) 0.4379(4)
H9 H 0.6334 1.1239 0.5020
C11 C 0.88698(19) 0.8448(6) 0.2397(4)
H10 H 0.8842 0.8653 0.1603
C12 C 0.8222(2) 1.0775(6) 0.3035(4)
H11 H 0.8374 1.1606 0.3549
H12 H 0.8274 1.1138 0.2240
C13 C 0.8733(2) 0.8641(6) 0.4260(4)
H13 H 0.8603 0.8972 0.4996
C14 C 0.9075(2) 0.7385(7) 0.4002(4)
H14 H 0.9234 0.6678 0.4552
C15 C 0.6038(2) 0.2909(5) 0.1182(3)
C16 C 0.63789(17) 0.3811(4) 0.2063(4)
C17 C 0.69969(19) 0.4336(5) 0.1859(5)
H15 H 0.7180 0.4157 0.1132
C18 C 0.7350(2) 0.5108(6) 0.2681(5)
H16 H 0.7769 0.5442 0.2523
C19 C 0.7077(2) 0.5377(5) 0.3735(4)
H17 H 0.7311 0.5926 0.4297
C20 C 0.64650(17) 0.4861(5) 0.3999(3)
C21 C 0.61967(17) 0.4984(5) 0.5214(4)
N1 N 0.48980(15) 0.6417(4) 0.2162(2)
N2 N 0.51860(16) 0.8651(4) 0.2954(3)
N3 N 0.91693(16) 0.7235(4) 0.2833(3)
N4 N 0.86065(18) 0.9367(5) 0.3211(3)
N5 N 0.61086(16) 0.4135(4) 0.3151(3)
O1 O 0.54266(14) 0.2909(4) 0.1097(3)
O2 O 0.63739(14) 0.2085(4) 0.0538(3)
O3 O 0.55264(12) 0.3654(3) 0.3414(2)
O4 O 0.57358(15) 0.5893(4) 0.5384(2)
O5 O 0.64932(17) 0.4232(5) 0.5959(3)
Zn1B Zn 0.97676(2) 0.58742(5) 0.19232(4)
Zn1A Zn 0.52324(2) 0.58742(5) 0.69232(4)
N3B N 0.41693(16) 0.2765(4) 0.2833(3)
O4A O 0.42642(15) 0.4107(4) 0.0384(2)
loop_
_geom_bond_atom_site_label_1
_geom_bond_atom_site_label_2
_geom_bond_site_symmetry_1
_geom_bond_site_symmetry_2
Zn1 N1 1_555 1_555
C1 H1 1_555 1_555
C2 H2 1_555 1_555
C3 C2 1_555 1_555
H3 C3 1_555 1_555
C4 H4 1_555 1_555
H5 C4 1_555 1_555
C5 C4 1_555 1_555
C6 C5 1_555 1_555
H6 C6 1_555 1_555
C7 C6 1_555 1_555
H7 C7 1_555 1_555
C8 C7 1_555 1_555
C9 C8 1_555 1_555
H8 C9 1_555 1_555
C10 C5 1_555 1_555
H9 C10 1_555 1_555
C11 H10 1_555 1_555
C12 C8 1_555 1_555
H11 C12 1_555 1_555
H12 C12 1_555 1_555
C13 H13 1_555 1_555
C14 C13 1_555 1_555
H14 C14 1_555 1_555
C15 C16 1_555 1_555
C16 C17 1_555 1_555
C17 H15 1_555 1_555
C18 C17 1_555 1_555
H16 C18 1_555 1_555
C19 C18 1_555 1_555
H17 C19 1_555 1_555
C20 C19 1_555 1_555
C21 C20 1_555 1_555
N1 C1 1_555 1_555
N2 C1 1_555 1_555
N3 C11 1_555 1_555
N4 C11 1_555 1_555
N5 C16 1_555 1_555
O1 Zn1 1_555 1_555
O2 C15 1_555 1_555
O3 Zn1 1_555 1_555
O4 C21 1_555 1_555
O5 C21 1_555 1_555
Zn1B N3 1_555 1_555
Zn1A O4 1_555 1_555
N3B Zn1 1_555 1_555
O4A Zn1 1_555 1_555
C2 N2 1_555 1_555
C3 N1 1_555 1_555
C4 N2 1_555 1_555
C9 C10 1_555 1_555
C12 N4 1_555 1_555
C13 N4 1_555 1_555
C14 N3 1_555 1_555
C15 O1 1_555 1_555
C20 N5 1_555 1_555
N5 O3 1_555 1_555

#END
