
#######################################################################
#
#                 Cambridge Crystallographic Data Centre
#                                CCDC 
#
#######################################################################
#
# If this CIF has been generated from an entry in the Cambridge 
# Structural Database, then it will include bibliographic, chemical, 
# crystal, experimental, refinement or atomic coordinate data resulting 
# from the CCDC's data processing and validation procedures.
#
#######################################################################

data_CAYDOX06
_symmetry_cell_setting           tetragonal
_symmetry_space_group_name_H-M   'P 41'
_symmetry_Int_Tables_number      76
_space_group_name_Hall           'P 4w'
loop_
_symmetry_equiv_pos_site_id
_symmetry_equiv_pos_as_xyz
1 x,y,z
2 -y,x,1/4+z
3 -x,-y,1/2+z
4 y,-x,3/4+z
_cell_length_a                   12.414(4)
_cell_length_b                   12.414(4)
_cell_length_c                   7.944(3)
_cell_angle_alpha                90
_cell_angle_beta                 90
_cell_angle_gamma                90
_cell_volume                     1224.23
loop_
_atom_site_label
_atom_site_type_symbol
_atom_site_fract_x
_atom_site_fract_y
_atom_site_fract_z
Cu1 Cu 0.82284(12) 0.51407(12) 0.4122(2)
C1 C 0.6468(15) 0.6665(12) 0.4924(16)
C2 C 0.6187(12) 0.6764(12) 0.3088(16)
H1 H 0.5993 0.6058 0.2660
H2 H 0.5562 0.7227 0.2975
C3 C 0.7079(12) 0.7207(11) 0.2043(19)
H3 H 0.6840 0.7278 0.0886
H4 H 0.7273 0.7918 0.2451
C4 C 0.8838(12) 0.6811(11) 0.0963(16)
H5 H 0.8901 0.7590 0.0944
H6 H 0.8640 0.6576 -0.0160
C5 C 0.9913(11) 0.6332(10) 0.1414(19)
H7 H 1.0143 0.6623 0.2489
H8 H 1.0439 0.6548 0.0575
C6 C 0.9898(10) 0.5117(11) 0.153(2)
N1 N 0.7244(9) 0.5999(8) 0.5495(12)
N2 N 0.7256(9) 0.6044(10) 0.7181(13)
N3 N 0.6465(11) 0.6752(10) 0.7640(16)
N4 N 0.5963(9) 0.7106(8) 0.6208(13)
N5 N 0.9217(8) 0.4532(9) 0.2417(13)
N6 N 0.9433(9) 0.3511(10) 0.2134(15)
N7 N 1.0221(10) 0.3436(9) 0.1066(14)
N8 N 1.0512(8) 0.4473(9) 0.0593(14)
O1 O 0.8001(8) 0.6513(7) 0.2113(10)
Cu1A Cu 0.48593(12) 0.82284(12) 0.6622(2)
Cu1B Cu 1.17716(12) 0.48593(12) -0.0878(2)
N4C N 0.7106(8) 0.4037(9) 0.3708(13)
N8B N 0.9488(8) 0.5527(9) 0.5593(14)
loop_
_geom_bond_atom_site_label_1
_geom_bond_atom_site_label_2
_geom_bond_site_symmetry_1
_geom_bond_site_symmetry_2
Cu1 N1 1_555 1_555
C1 C2 1_555 1_555
C2 H1 1_555 1_555
H2 C2 1_555 1_555
C3 C2 1_555 1_555
H3 C3 1_555 1_555
H4 C3 1_555 1_555
C4 H5 1_555 1_555
H6 C4 1_555 1_555
C5 C4 1_555 1_555
H7 C5 1_555 1_555
H8 C5 1_555 1_555
C6 C5 1_555 1_555
N1 C1 1_555 1_555
N2 N1 1_555 1_555
N3 N2 1_555 1_555
N4 C1 1_555 1_555
N5 Cu1 1_555 1_555
N6 N5 1_555 1_555
N7 N6 1_555 1_555
N8 C6 1_555 1_555
O1 Cu1 1_555 1_555
Cu1A N4 1_555 1_555
Cu1B N8 1_555 1_555
N4C Cu1 1_555 1_555
N8B Cu1 1_555 1_555
C3 O1 1_555 1_555
C4 O1 1_555 1_555
C6 N5 1_555 1_555
N3 N4 1_555 1_555
N7 N8 1_555 1_555

#END
