
#######################################################################
#
#                 Cambridge Crystallographic Data Centre
#                                CCDC 
#
#######################################################################
#
# If this CIF has been generated from an entry in the Cambridge 
# Structural Database, then it will include bibliographic, chemical, 
# crystal, experimental, refinement or atomic coordinate data resulting 
# from the CCDC's data processing and validation procedures.
#
#######################################################################

data_CAYDOX04
_symmetry_cell_setting           tetragonal
_symmetry_space_group_name_H-M   'P 41'
_symmetry_Int_Tables_number      76
_space_group_name_Hall           'P 4w'
loop_
_symmetry_equiv_pos_site_id
_symmetry_equiv_pos_as_xyz
1 x,y,z
2 -y,x,1/4+z
3 -x,-y,1/2+z
4 y,-x,3/4+z
_cell_length_a                   12.3933(3)
_cell_length_b                   12.3933(3)
_cell_length_c                   7.9318(3)
_cell_angle_alpha                90
_cell_angle_beta                 90
_cell_angle_gamma                90
_cell_volume                     1218.28
loop_
_atom_site_label
_atom_site_type_symbol
_atom_site_fract_x
_atom_site_fract_y
_atom_site_fract_z
Cu1 Cu 0.51421(10) 0.82271(10) -0.07160(15)
C1 C 0.6651(10) 0.6448(10) -0.1510(14)
C2 C 0.6752(12) 0.6180(11) 0.0319(15)
H1 H 0.7219 0.5556 0.0437
H2 H 0.6046 0.5982 0.0747
C3 C 0.7196(11) 0.7085(10) 0.1388(16)
H3 H 0.7261 0.6846 0.2548
H4 H 0.7909 0.7282 0.0988
C4 C 0.6804(10) 0.8893(11) 0.2459(16)
H5 H 0.6574 0.8716 0.3595
H6 H 0.7582 0.8973 0.2469
C5 C 0.6318(9) 0.9899(10) 0.1956(19)
H7 H 0.6578 1.0083 0.0840
H8 H 0.6560 1.0459 0.2722
C6 C 0.5126(9) 0.9904(8) 0.1925(18)
N1 N 0.5980(8) 0.7253(8) -0.2061(11)
N2 N 0.6053(9) 0.7245(9) -0.3790(12)
N3 N 0.6719(9) 0.6455(10) -0.4228(13)
N4 N 0.7115(7) 0.5939(8) -0.2797(11)
N5 N 0.4549(7) 0.9232(7) 0.0971(12)
N6 N 0.3504(8) 0.9461(8) 0.1268(12)
N7 N 0.3465(9) 1.0233(9) 0.2353(14)
N8 N 0.4483(7) 1.0528(7) 0.2780(11)
O1 O 0.6506(6) 0.7993(7) 0.1307(9)
Cu1B Cu 0.48579(10) 1.17729(10) 0.42840(15)
Cu1C Cu 0.82271(10) 0.48579(10) -0.32160(15)
N4A N 0.4061(8) 0.7115(7) -0.0297(11)
N8B N 0.5517(7) 0.9472(7) -0.2220(11)
loop_
_geom_bond_atom_site_label_1
_geom_bond_atom_site_label_2
_geom_bond_site_symmetry_1
_geom_bond_site_symmetry_2
Cu1 N1 1_555 1_555
C1 C2 1_555 1_555
C2 H1 1_555 1_555
H2 C2 1_555 1_555
C3 C2 1_555 1_555
H3 C3 1_555 1_555
H4 C3 1_555 1_555
C4 H5 1_555 1_555
H6 C4 1_555 1_555
C5 C4 1_555 1_555
H7 C5 1_555 1_555
H8 C5 1_555 1_555
C6 C5 1_555 1_555
N1 C1 1_555 1_555
N2 N1 1_555 1_555
N3 N2 1_555 1_555
N4 C1 1_555 1_555
N5 Cu1 1_555 1_555
N6 N5 1_555 1_555
N7 N6 1_555 1_555
N8 C6 1_555 1_555
O1 Cu1 1_555 1_555
Cu1B N8 1_555 1_555
Cu1C N4 1_555 1_555
N4A Cu1 1_555 1_555
N8B Cu1 1_555 1_555
C3 O1 1_555 1_555
C4 O1 1_555 1_555
C6 N5 1_555 1_555
N3 N4 1_555 1_555
N7 N8 1_555 1_555

#END
