
#######################################################################
#
#                 Cambridge Crystallographic Data Centre
#                                CCDC 
#
#######################################################################
#
# If this CIF has been generated from an entry in the Cambridge 
# Structural Database, then it will include bibliographic, chemical, 
# crystal, experimental, refinement or atomic coordinate data resulting 
# from the CCDC's data processing and validation procedures.
#
#######################################################################

data_CAYDIR
_symmetry_cell_setting           tetragonal
_symmetry_space_group_name_H-M   'P 43'
_symmetry_Int_Tables_number      78
_space_group_name_Hall           'P 4cw'
loop_
_symmetry_equiv_pos_site_id
_symmetry_equiv_pos_as_xyz
1 x,y,z
2 -y,x,3/4+z
3 -x,-y,1/2+z
4 y,-x,1/4+z
_cell_length_a                   12.355(3)
_cell_length_b                   12.355(3)
_cell_length_c                   7.9025(16)
_cell_angle_alpha                90
_cell_angle_beta                 90
_cell_angle_gamma                90
_cell_volume                     1206.29
loop_
_atom_site_label
_atom_site_type_symbol
_atom_site_fract_x
_atom_site_fract_y
_atom_site_fract_z
Cu1 Cu 0.67682(3) 0.98475(3) 0.03352(7)
C1 C 0.8542(3) 0.8350(3) -0.0459(5)
C2 C 0.8820(3) 0.8229(4) 0.1372(5)
H1 H 0.9019 0.8933 0.1819
H2 H 0.9446 0.7760 0.1472
C3 C 0.7917(3) 0.7771(3) 0.2432(5)
H3 H 0.7719 0.7060 0.2016
H4 H 0.8154 0.7698 0.3596
C4 C 0.6155(3) 0.8175(3) 0.3530(5)
H5 H 0.6347 0.8416 0.4659
H6 H 0.6088 0.7392 0.3550
C5 C 0.5093(3) 0.8672(3) 0.3013(6)
H7 H 0.4905 0.8412 0.1893
H8 H 0.4535 0.8430 0.3789
C6 C 0.5107(3) 0.9877(3) 0.2991(6)
N1 N 0.7746(3) 0.8993(3) -0.1037(4)
N2 N 0.7750(3) 0.8919(3) -0.2751(4)
N3 N 0.8540(3) 0.8274(3) -0.3202(4)
N4 N 0.9048(3) 0.7896(3) -0.1775(4)
N5 N 0.5778(2) 1.0457(2) 0.2026(4)
N6 N 0.5560(3) 1.1509(3) 0.2334(4)
N7 N 0.4776(3) 1.1568(3) 0.3422(5)
N8 N 0.4482(3) 1.0535(3) 0.3860(4)
O1 O 0.6990(2) 0.8487(2) 0.2350(3)
Cu1A Cu 1.01525(3) 0.67682(3) -0.21648(7)
Cu1B Cu 0.32318(3) 1.01525(3) 0.53352(7)
N4C N 0.7896(3) 1.0952(3) 0.0725(4)
N8B N 0.5518(3) 0.9465(3) -0.1140(4)
O2 O 0.6143(6) 0.5257(6) 0.2343(12)
loop_
_geom_bond_atom_site_label_1
_geom_bond_atom_site_label_2
_geom_bond_site_symmetry_1
_geom_bond_site_symmetry_2
Cu1 N1 1_555 1_555
C1 C2 1_555 1_555
C2 H1 1_555 1_555
H2 C2 1_555 1_555
C3 C2 1_555 1_555
H3 C3 1_555 1_555
H4 C3 1_555 1_555
C4 H5 1_555 1_555
H6 C4 1_555 1_555
C5 C4 1_555 1_555
H7 C5 1_555 1_555
H8 C5 1_555 1_555
C6 C5 1_555 1_555
N1 C1 1_555 1_555
N2 N1 1_555 1_555
N3 N2 1_555 1_555
N4 C1 1_555 1_555
N5 Cu1 1_555 1_555
N6 N5 1_555 1_555
N7 N6 1_555 1_555
N8 C6 1_555 1_555
O1 Cu1 1_555 1_555
Cu1A N4 1_555 1_555
Cu1B N8 1_555 1_555
N4C Cu1 1_555 1_555
N8B Cu1 1_555 1_555
C3 O1 1_555 1_555
C4 O1 1_555 1_555
C6 N5 1_555 1_555
N3 N4 1_555 1_555
N7 N8 1_555 1_555

#END
