
#######################################################################
#
#                 Cambridge Crystallographic Data Centre
#                                CCDC 
#
#######################################################################
#
# If this CIF has been generated from an entry in the Cambridge 
# Structural Database, then it will include bibliographic, chemical, 
# crystal, experimental, refinement or atomic coordinate data resulting 
# from the CCDC's data processing and validation procedures.
#
#######################################################################

data_CAYDOW
_symmetry_cell_setting           triclinic
_symmetry_space_group_name_H-M   'P -1'
_symmetry_Int_Tables_number      2
_space_group_name_Hall           '-P 1'
loop_
_symmetry_equiv_pos_site_id
_symmetry_equiv_pos_as_xyz
1 x,y,z
2 -x,-y,-z
_cell_length_a                   8.2499(11)
_cell_length_b                   8.5519(13)
_cell_length_c                   9.1163(11)
_cell_angle_alpha                71.096(4)
_cell_angle_beta                 63.441(5)
_cell_angle_gamma                64.862(4)
_cell_volume                     513.63
loop_
_atom_site_label
_atom_site_type_symbol
_atom_site_fract_x
_atom_site_fract_y
_atom_site_fract_z
K1 K 0.5000 1.0000 0.5000
O1 O 0.3690(2) 0.7479(2) 0.5035(2)
O2 O 0.5536(2) 0.93299(19) 0.1934(2)
O3 O 0.7687(2) 1.1218(2) 0.1988(2)
C1 C 0.2009(4) 0.7296(3) 0.6410(3)
H1 H 0.1791 0.6234 0.6433
H2 H 0.0878 0.8325 0.6311
C2 C 0.3650(4) 0.7446(3) 0.3505(3)
H3 H 0.2543 0.8424 0.3284
H4 H 0.3518 0.6331 0.3552
C3 C 0.5490(4) 0.7619(3) 0.2153(3)
H5 H 0.6594 0.6731 0.2452
H6 H 0.5591 0.7416 0.1102
C4 C 0.7278(3) 0.9537(3) 0.0644(3)
H7 H 0.7324 0.9461 -0.0436
H8 H 0.8396 0.8589 0.0875
C5 C 0.7360(4) 1.1269(3) 0.0562(3)
H9 H 0.8412 1.1531 -0.0462
H10 H 0.6136 1.2200 0.0537
C6 C 0.2282(4) 0.7150(3) 0.7982(3)
H11 H 0.3503 0.6217 0.8011
H12 H 0.1217 0.6848 0.8965
N1 N 0.1965(3) 1.3105(3) 0.4354(3)
S1 S 0.20018(10) 1.42043(9) 0.24776(9)
N2 N 0.0182(3) 1.6024(3) 0.2942(3)
C7 C 0.0499(3) 1.4171(3) 0.5423(3)
K1_2 K -0.5000 2.0000 0.5000
O1A O 0.6310(2) 1.2521(2) 0.4965(2)
O2A O 0.4464(2) 1.06701(19) 0.8066(2)
O3A O 0.2313(2) 0.8782(2) 0.8012(2)
C1A C 0.7991(4) 1.2704(3) 0.3590(3)
H1A H 0.8209 1.3766 0.3567
H2A H 0.9122 1.1675 0.3689
C2A C 0.6350(4) 1.2554(3) 0.6495(3)
H3A H 0.7457 1.1576 0.6716
H4A H 0.6482 1.3669 0.6448
C3A C 0.4510(4) 1.2381(3) 0.7847(3)
H5A H 0.3406 1.3269 0.7548
H6A H 0.4409 1.2584 0.8898
C4A C 0.2722(3) 1.0463(3) 0.9356(3)
H7A H 0.2676 1.0539 1.0436
H8A H 0.1604 1.1411 0.9125
C5A C 0.2640(4) 0.8731(3) 0.9438(3)
H9A H 0.1588 0.8469 1.0462
H10A H 0.3864 0.7800 0.9463
C6A C 0.7718(4) 1.2850(3) 0.2018(3)
H11A H 0.6497 1.3783 0.1989
H12A H 0.8783 1.3152 0.1035
N1A N -0.1965(3) 1.6895(3) 0.5646(3)
N1A_2 N 0.8035(3) 0.6895(3) 0.5646(3)
S1A S -0.20018(10) 1.57957(9) 0.75224(9)
N2A N -0.0182(3) 1.3976(3) 0.7058(3)
C7A C -0.0499(3) 1.5829(3) 0.4577(3)
loop_
_geom_bond_atom_site_label_1
_geom_bond_atom_site_label_2
_geom_bond_site_symmetry_1
_geom_bond_site_symmetry_2
K1 O1 1_555 1_555
O1 C1 1_555 1_555
O2 K1 1_555 1_555
O3 K1 1_555 1_555
C1 H1 1_555 1_555
H2 C1 1_555 1_555
C2 O1 1_555 1_555
H3 C2 1_555 1_555
H4 C2 1_555 1_555
C3 O2 1_555 1_555
H5 C3 1_555 1_555
H6 C3 1_555 1_555
C4 O2 1_555 1_555
H7 C4 1_555 1_555
H8 C4 1_555 1_555
C5 O3 1_555 1_555
H9 C5 1_555 1_555
H10 C5 1_555 1_555
C6 C1 1_555 1_555
H11 C6 1_555 1_555
H12 C6 1_555 1_555
N1 K1 1_555 1_555
S1 N1 1_555 1_555
N2 S1 1_555 1_555
C7 N1 1_555 1_555
K1_2 N1A 1_555 1_555
O1A K1 1_555 1_555
O2A K1 1_555 1_555
O3A K1 1_555 1_555
C1A O1A 1_555 1_555
H1A C1A 1_555 1_555
H2A C1A 1_555 1_555
C2A O1A 1_555 1_555
H3A C2A 1_555 1_555
H4A C2A 1_555 1_555
C3A O2A 1_555 1_555
H5A C3A 1_555 1_555
H6A C3A 1_555 1_555
C4A O2A 1_555 1_555
H7A C4A 1_555 1_555
H8A C4A 1_555 1_555
C5A O3A 1_555 1_555
H9A C5A 1_555 1_555
H10A C5A 1_555 1_555
C6A O3 1_555 1_555
H11A C6A 1_555 1_555
H12A C6A 1_555 1_555
N1A S1A 1_555 1_555
N1A_2 K1 1_555 1_555
S1A N2A 1_555 1_555
N2A C7 1_555 1_555
C7A N2 1_555 1_555
C2 C3 1_555 1_555
C4 C5 1_555 1_555
C6 O3A 1_555 1_555
C7 C7A 1_555 1_555
C1A C6A 1_555 1_555
C2A C3A 1_555 1_555
C4A C5A 1_555 1_555
N1A C7A 1_555 1_555

#END
