
#######################################################################
#
#                 Cambridge Crystallographic Data Centre
#                                CCDC 
#
#######################################################################
#
# If this CIF has been generated from an entry in the Cambridge 
# Structural Database, then it will include bibliographic, chemical, 
# crystal, experimental, refinement or atomic coordinate data resulting 
# from the CCDC's data processing and validation procedures.
#
#######################################################################

data_CAYFAL
_symmetry_cell_setting           monoclinic
_symmetry_space_group_name_H-M   'C 2/m'
_symmetry_Int_Tables_number      12
_space_group_name_Hall           '-C 2y'
loop_
_symmetry_equiv_pos_site_id
_symmetry_equiv_pos_as_xyz
1 x,y,z
2 -x,y,-z
3 1/2+x,1/2+y,z
4 1/2-x,1/2+y,-z
5 -x,-y,-z
6 x,-y,z
7 1/2-x,1/2-y,-z
8 1/2+x,1/2-y,z
_cell_length_a                   7.5891(9)
_cell_length_b                   16.9978(18)
_cell_length_c                   7.9254(13)
_cell_angle_alpha                90
_cell_angle_beta                 109.475(14)
_cell_angle_gamma                90
_cell_volume                     963.869
loop_
_atom_site_label
_atom_site_type_symbol
_atom_site_fract_x
_atom_site_fract_y
_atom_site_fract_z
Cu1 Cu 0.0000 0.0000 0.0000
Cu2 Cu 0.5000 0.22940(3) 0.5000
C1 C -0.0206(4) 0.1391(2) 0.2294(4)
C2 C -0.2293(5) 0.1397(2) 0.1666(6)
H1 H -0.2764 0.1412 0.0369
H2 H -0.2718 0.1869 0.2102
C3 C -0.3076(5) 0.0687(3) 0.2302(6)
H3 H -0.2567 0.0652 0.3597
H4 H -0.4425 0.0731 0.1956
N1 N 0.0859(4) 0.08590(17) 0.1834(4)
N2 N 0.2642(4) 0.10534(17) 0.2698(4)
N3 N 0.2663(4) 0.16836(18) 0.3656(4)
N4 N 0.0878(4) 0.19088(16) 0.3445(4)
O1 O -0.2588(5) 0.0000 0.1513(5)
Cu2D Cu 0.5000 -0.22940(3) 0.5000
Cu2F Cu 0.0000 0.27060(3) 0.5000
Cu2B Cu 0.0000 -0.27060(3) 0.5000
Cu2_2 Cu -0.5000 0.22940(3) -0.5000
Cu2F_2 Cu 0.0000 0.27060(3) -0.5000
Cu2D_2 Cu -0.5000 -0.22940(3) -0.5000
Cu2B_2 Cu 0.0000 -0.27060(3) -0.5000
C1E C -0.0206(4) -0.1391(2) 0.2294(4)
C1A C 0.0206(4) 0.1391(2) -0.2294(4)
C1D C 0.0206(4) -0.1391(2) -0.2294(4)
C2E C -0.2293(5) -0.1397(2) 0.1666(6)
C2A C 0.2293(5) 0.1397(2) -0.1666(6)
C2D C 0.2293(5) -0.1397(2) -0.1666(6)
H1E H -0.2764 -0.1412 0.0369
H1A H 0.2764 0.1412 -0.0369
H1D H 0.2764 -0.1412 -0.0369
H2E H -0.2718 -0.1869 0.2102
H2A H 0.2718 0.1869 -0.2102
H2D H 0.2718 -0.1869 -0.2102
C3E C -0.3076(5) -0.0687(3) 0.2302(6)
C3A C 0.3076(5) 0.0687(3) -0.2302(6)
C3D C 0.3076(5) -0.0687(3) -0.2302(6)
H3E H -0.2567 -0.0652 0.3597
H3A H 0.2567 0.0652 -0.3597
H3D H 0.2567 -0.0652 -0.3597
H4E H -0.4425 -0.0731 0.1956
H4A H 0.4425 0.0731 -0.1956
H4D H 0.4425 -0.0731 -0.1956
N1E N 0.0859(4) -0.08590(17) 0.1834(4)
N1A N -0.0859(4) 0.08590(17) -0.1834(4)
N1D N -0.0859(4) -0.08590(17) -0.1834(4)
N2E N 0.2642(4) -0.10534(17) 0.2698(4)
N2A N -0.2642(4) 0.10534(17) -0.2698(4)
N2D N -0.2642(4) -0.10534(17) -0.2698(4)
N3E N 0.2663(4) -0.16836(18) 0.3656(4)
N3A N -0.2663(4) 0.16836(18) -0.3656(4)
N3D N -0.2663(4) -0.16836(18) -0.3656(4)
N3A_2 N 0.7337(4) 0.16836(18) 0.6344(4)
N3D_2 N 0.7337(4) -0.16836(18) 0.6344(4)
N4E N 0.0878(4) -0.19088(16) 0.3445(4)
N4A N -0.0878(4) 0.19088(16) -0.3445(4)
N4D N -0.0878(4) -0.19088(16) -0.3445(4)
N4F N 0.4122(4) 0.30912(16) 0.6555(4)
N4G N 0.5878(4) 0.30912(16) 0.3445(4)
N4C N 0.4122(4) -0.30912(16) 0.6555(4)
N4B N 0.5878(4) -0.30912(16) 0.3445(4)
O1A O 0.2588(5) 0.0000 -0.1513(5)
loop_
_geom_bond_atom_site_label_1
_geom_bond_atom_site_label_2
_geom_bond_site_symmetry_1
_geom_bond_site_symmetry_2
Cu1 N1 1_555 1_555
Cu2 N3 1_555 1_555
C1 C2 1_555 1_555
C2 H1 1_555 1_555
H2 C2 1_555 1_555
C3 C2 1_555 1_555
H3 C3 1_555 1_555
H4 C3 1_555 1_555
N1 C1 1_555 1_555
N2 N1 1_555 1_555
N3 N2 1_555 1_555
N4 C1 1_555 1_555
O1 Cu1 1_555 1_555
Cu2D N3E 1_555 1_555
Cu2F N4 1_555 1_555
Cu2B N4E 1_555 1_555
Cu2_2 N3A 1_555 1_555
Cu2F_2 N4A 1_555 1_555
Cu2D_2 N3D 1_555 1_555
Cu2B_2 N4D 1_555 1_555
C1E C2E 1_555 1_555
C1A C2A 1_555 1_555
C1D C2D 1_555 1_555
C2E H1E 1_555 1_555
C2A H1A 1_555 1_555
C2D H1D 1_555 1_555
H2E C2E 1_555 1_555
H2A C2A 1_555 1_555
H2D C2D 1_555 1_555
C3E O1 1_555 1_555
C3A C2A 1_555 1_555
C3D C2D 1_555 1_555
H3E C3E 1_555 1_555
H3A C3A 1_555 1_555
H3D C3D 1_555 1_555
H4E C3E 1_555 1_555
H4A C3A 1_555 1_555
H4D C3D 1_555 1_555
N1E Cu1 1_555 1_555
N1A Cu1 1_555 1_555
N1D Cu1 1_555 1_555
N2E N1E 1_555 1_555
N2A N1A 1_555 1_555
N2D N1D 1_555 1_555
N3E N2E 1_555 1_555
N3A N2A 1_555 1_555
N3D N2D 1_555 1_555
N3A_2 Cu2 1_555 1_555
N3D_2 Cu2D 1_555 1_555
N4E C1E 1_555 1_555
N4A C1A 1_555 1_555
N4D C1D 1_555 1_555
N4F Cu2 1_555 1_555
N4G Cu2 1_555 1_555
N4C Cu2D 1_555 1_555
N4B Cu2D 1_555 1_555
O1A Cu1 1_555 1_555
C3 O1 1_555 1_555
N3 N4 1_555 1_555
C1E N1E 1_555 1_555
C1A N1A 1_555 1_555
C1D N1D 1_555 1_555
C2E C3E 1_555 1_555
C3A O1A 1_555 1_555
C3D O1A 1_555 1_555
N3E N4E 1_555 1_555
N3A N4A 1_555 1_555
N3D N4D 1_555 1_555

#END
