
#######################################################################
#
#                 Cambridge Crystallographic Data Centre
#                                CCDC 
#
#######################################################################
#
# If this CIF has been generated from an entry in the Cambridge 
# Structural Database, then it will include bibliographic, chemical, 
# crystal, experimental, refinement or atomic coordinate data resulting 
# from the CCDC's data processing and validation procedures.
#
#######################################################################

data_CAYGIU
_symmetry_cell_setting           tetragonal
_symmetry_space_group_name_H-M   'P 43'
_symmetry_Int_Tables_number      78
_space_group_name_Hall           'P 4cw'
loop_
_symmetry_equiv_pos_site_id
_symmetry_equiv_pos_as_xyz
1 x,y,z
2 -y,x,3/4+z
3 -x,-y,1/2+z
4 y,-x,1/4+z
_cell_length_a                   12.37510(10)
_cell_length_b                   12.37510(10)
_cell_length_c                   7.92260(10)
_cell_angle_alpha                90
_cell_angle_beta                 90
_cell_angle_gamma                90
_cell_volume                     1213.29
loop_
_atom_site_label
_atom_site_type_symbol
_atom_site_fract_x
_atom_site_fract_y
_atom_site_fract_z
Cu1 Cu 0.82295(4) 0.51425(4) 0.07073(7)
C1 C 0.6458(4) 0.6649(4) -0.0085(7)
C2 C 0.6182(5) 0.6770(5) 0.1739(7)
H1 H 0.5972 0.6070 0.2180
H2 H 0.5564 0.7248 0.1838
C3 C 0.7084(5) 0.7210(5) 0.2808(7)
H3 H 0.7284 0.7924 0.2411
H4 H 0.6844 0.7274 0.3969
C4 C 0.8846(5) 0.6817(5) 0.3892(8)
H5 H 0.8659 0.6575 0.5019
H6 H 0.8912 0.7598 0.3914
C5 C 0.9900(5) 0.6330(4) 0.3378(9)
H7 H 1.0087 0.6594 0.2264
H8 H 1.0455 0.6572 0.4154
C6 C 0.9900(4) 0.5127(4) 0.3344(8)
N1 N 0.7248(4) 0.6000(4) -0.0649(6)
N2 N 0.7242(4) 0.6071(4) -0.2351(6)
N3 N 0.6461(4) 0.6725(4) -0.2806(6)
N4 N 0.5964(3) 0.7102(3) -0.1384(5)
N5 N 0.9229(3) 0.4542(3) 0.2390(6)
N6 N 0.9458(4) 0.3510(3) 0.2693(6)
N7 N 1.0239(4) 0.3458(4) 0.3780(7)
N8 N 1.0523(3) 0.4481(4) 0.4206(6)
O1 O 0.8002(3) 0.6509(3) 0.2727(5)
Cu1A Cu 0.48575(4) 0.82295(4) -0.17927(7)
Cu1B Cu 1.17705(4) 0.48575(4) 0.57073(7)
N4C N 0.7102(3) 0.4036(3) 0.1116(5)
N8B N 0.9477(3) 0.5519(4) -0.0794(6)
loop_
_geom_bond_atom_site_label_1
_geom_bond_atom_site_label_2
_geom_bond_site_symmetry_1
_geom_bond_site_symmetry_2
Cu1 N1 1_555 1_555
C1 C2 1_555 1_555
C2 H1 1_555 1_555
H2 C2 1_555 1_555
C3 C2 1_555 1_555
H3 C3 1_555 1_555
H4 C3 1_555 1_555
C4 H5 1_555 1_555
H6 C4 1_555 1_555
C5 C4 1_555 1_555
H7 C5 1_555 1_555
H8 C5 1_555 1_555
C6 C5 1_555 1_555
N1 C1 1_555 1_555
N2 N1 1_555 1_555
N3 N2 1_555 1_555
N4 C1 1_555 1_555
N5 Cu1 1_555 1_555
N6 N5 1_555 1_555
N7 N6 1_555 1_555
N8 C6 1_555 1_555
O1 Cu1 1_555 1_555
Cu1A N4 1_555 1_555
Cu1B N8 1_555 1_555
N4C Cu1 1_555 1_555
N8B Cu1 1_555 1_555
C3 O1 1_555 1_555
C4 O1 1_555 1_555
C6 N5 1_555 1_555
N3 N4 1_555 1_555
N7 N8 1_555 1_555

#END
