
#######################################################################
#
#                 Cambridge Crystallographic Data Centre
#                                CCDC 
#
#######################################################################
#
# If this CIF has been generated from an entry in the Cambridge 
# Structural Database, then it will include bibliographic, chemical, 
# crystal, experimental, refinement or atomic coordinate data resulting 
# from the CCDC's data processing and validation procedures.
#
#######################################################################

data_CAYHIV
_symmetry_cell_setting           triclinic
_symmetry_space_group_name_H-M   'P -1'
_symmetry_Int_Tables_number      2
_space_group_name_Hall           '-P 1'
loop_
_symmetry_equiv_pos_site_id
_symmetry_equiv_pos_as_xyz
1 x,y,z
2 -x,-y,-z
_cell_length_a                   8.3149(4)
_cell_length_b                   8.6723(5)
_cell_length_c                   9.7332(4)
_cell_angle_alpha                84.645(4)
_cell_angle_beta                 76.533(4)
_cell_angle_gamma                61.760(5)
_cell_volume                     601.197
loop_
_atom_site_label
_atom_site_type_symbol
_atom_site_fract_x
_atom_site_fract_y
_atom_site_fract_z
Fe1 Fe 0.0000 0.0000 0.0000
O1 O 0.0872(4) 0.0505(3) 0.1661(2)
C1 C 0.4152(4) -0.0939(3) -0.1928(2)
N1 N 0.2614(3) -0.0418(2) -0.13555(19)
C2 C 0.6605(3) -0.0801(3) -0.3786(2)
C3 C 0.7377(3) -0.3229(3) -0.2152(2)
C4 C 0.6057(3) -0.1675(3) -0.2608(2)
N2 N 0.7051(3) -0.0091(3) -0.4732(2)
O2 O 0.8983(2) -0.40515(19) -0.31130(14)
C5 C 1.0768(3) -0.4987(3) -0.2680(3)
C6 C 1.2278(4) -0.5226(3) -0.3979(3)
O3 O 1.1967(3) -0.2374(2) -0.37494(18)
C7 C 1.2064(4) -0.3566(4) -0.4723(3)
C8 C 0.7085(3) -0.3964(3) -0.0821(2)
C9 C 0.8030(3) -0.5786(3) -0.0604(2)
N3 N 0.8750(3) -0.7261(3) -0.04072(19)
N4 N 0.4701(3) -0.2131(3) 0.1348(2)
C10 C 0.5745(3) -0.2936(3) 0.0363(2)
H1 H 1.074(3) -0.427(3) -0.190(2)
H2 H 1.098(3) -0.610(3) -0.231(2)
H3 H 1.232(3) -0.597(3) -0.465(2)
H4 H 1.317(3) -0.382(3) -0.557(2)
H5 H 1.342(4) -0.578(3) -0.367(2)
H6 H 1.092(4) -0.302(3) -0.517(3)
H7 H 0.016(5) 0.095(4) 0.239(4)
H8 H 1.221(4) -0.162(4) -0.421(3)
H9 H 0.175(5) -0.012(4) 0.180(3)
Fe1_2 Fe -1.0000 1.0000 0.0000
Fe1_3 Fe 1.0000 -1.0000 0.0000
O1A O -0.0872(4) -0.0505(3) -0.1661(2)
C1A C -0.4152(4) 0.0939(3) 0.1928(2)
N1A N -0.2614(3) 0.0418(2) 0.13555(19)
C2A C -0.6605(3) 0.0801(3) 0.3786(2)
C3A C -0.7377(3) 0.3229(3) 0.2152(2)
C4A C -0.6057(3) 0.1675(3) 0.2608(2)
N2A N -0.7051(3) 0.0091(3) 0.4732(2)
O2A O -0.8983(2) 0.40515(19) 0.31130(14)
C5A C -1.0768(3) 0.4987(3) 0.2680(3)
C6A C -1.2278(4) 0.5226(3) 0.3979(3)
O3A O -1.1967(3) 0.2374(2) 0.37494(18)
C7A C -1.2064(4) 0.3566(4) 0.4723(3)
C8A C -0.7085(3) 0.3964(3) 0.0821(2)
C9A C -0.8030(3) 0.5786(3) 0.0604(2)
N3A N -0.8750(3) 0.7261(3) 0.04072(19)
N3_2 N -0.1250(3) 0.2739(3) -0.04072(19)
N3A_2 N 0.1250(3) -0.2739(3) 0.04072(19)
N4A N -0.4701(3) 0.2131(3) -0.1348(2)
C10A C -0.5745(3) 0.2936(3) -0.0363(2)
H1A H -1.074(3) 0.427(3) 0.190(2)
H2A H -1.098(3) 0.610(3) 0.231(2)
H3A H -1.232(3) 0.597(3) 0.465(2)
H4A H -1.317(3) 0.382(3) 0.557(2)
H5A H -1.342(4) 0.578(3) 0.367(2)
H6A H -1.092(4) 0.302(3) 0.517(3)
H7A H -0.016(5) -0.095(4) -0.239(4)
H8A H -1.221(4) 0.162(4) 0.421(3)
H9A H -0.175(5) 0.012(4) -0.180(3)
loop_
_geom_bond_atom_site_label_1
_geom_bond_atom_site_label_2
_geom_bond_site_symmetry_1
_geom_bond_site_symmetry_2
Fe1 O1 1_555 1_555
O1 H7 1_555 1_555
C1 N1 1_555 1_555
N1 Fe1 1_555 1_555
C2 C4 1_555 1_555
C3 C4 1_555 1_555
C4 C1 1_555 1_555
N2 C2 1_555 1_555
O2 C3 1_555 1_555
C5 O2 1_555 1_555
C6 C5 1_555 1_555
O3 C7 1_555 1_555
C7 C6 1_555 1_555
C8 C3 1_555 1_555
C9 C8 1_555 1_555
N3 C9 1_555 1_555
N4 C10 1_555 1_555
C10 C8 1_555 1_555
H1 C5 1_555 1_555
H2 C5 1_555 1_555
H3 C6 1_555 1_555
H4 C7 1_555 1_555
H5 C6 1_555 1_555
H6 C7 1_555 1_555
H8 O3 1_555 1_555
H9 O1 1_555 1_555
Fe1_2 N3A 1_555 1_555
Fe1_3 N3 1_555 1_555
O1A Fe1 1_555 1_555
C1A N1A 1_555 1_555
N1A Fe1 1_555 1_555
C2A C4A 1_555 1_555
C3A C4A 1_555 1_555
C4A C1A 1_555 1_555
N2A C2A 1_555 1_555
O2A C3A 1_555 1_555
C5A O2A 1_555 1_555
C6A C5A 1_555 1_555
O3A C7A 1_555 1_555
C7A C6A 1_555 1_555
C8A C3A 1_555 1_555
C9A C8A 1_555 1_555
N3A C9A 1_555 1_555
N3_2 Fe1 1_555 1_555
N3A_2 Fe1 1_555 1_555
N4A C10A 1_555 1_555
C10A C8A 1_555 1_555
H1A C5A 1_555 1_555
H2A C5A 1_555 1_555
H3A C6A 1_555 1_555
H4A C7A 1_555 1_555
H5A C6A 1_555 1_555
H6A C7A 1_555 1_555
H7A O1A 1_555 1_555
H8A O3A 1_555 1_555
H9A O1A 1_555 1_555

#END
