
#######################################################################
#
#                 Cambridge Crystallographic Data Centre
#                                CCDC 
#
#######################################################################
#
# If this CIF has been generated from an entry in the Cambridge 
# Structural Database, then it will include bibliographic, chemical, 
# crystal, experimental, refinement or atomic coordinate data resulting 
# from the CCDC's data processing and validation procedures.
#
#######################################################################

data_CAYHUH
_symmetry_cell_setting           triclinic
_symmetry_space_group_name_H-M   'P -1'
_symmetry_Int_Tables_number      2
_space_group_name_Hall           '-P 1'
loop_
_symmetry_equiv_pos_site_id
_symmetry_equiv_pos_as_xyz
1 x,y,z
2 -x,-y,-z
_cell_length_a                   7.104(5)
_cell_length_b                   9.321(5)
_cell_length_c                   9.972(5)
_cell_angle_alpha                116.352(5)
_cell_angle_beta                 91.592(5)
_cell_angle_gamma                92.152(5)
_cell_volume                     590.547
loop_
_atom_site_label
_atom_site_type_symbol
_atom_site_fract_x
_atom_site_fract_y
_atom_site_fract_z
C1 C 0.3131(2) 0.35027(19) 0.66357(19)
C2 C 0.0000(2) 0.3268(2) 0.28147(18)
C3 C 0.3586(2) 0.3205(2) 0.41161(19)
C4 C -0.1831(2) 0.0944(2) 0.26432(19)
C5 C 0.0534(2) 0.23727(19) 0.47498(17)
C6 C 0.2379(2) 0.3064(2) 0.51704(17)
C7 C -0.0482(2) 0.22283(19) 0.34639(18)
C8 C -0.2162(2) 0.1734(2) 0.5879(2)
C9 C -0.2373(3) 0.1506(2) 0.7277(2)
C10 C -0.1462(3) 0.2850(2) 0.8699(2)
N1 N 0.37642(19) 0.38515(17) 0.78172(16)
N2 N 0.0373(2) 0.41355(18) 0.23170(17)
N3 N 0.4547(2) 0.32786(18) 0.32399(16)
N4 N -0.2862(2) -0.01275(19) 0.19333(17)
O1 O -0.01396(16) 0.17993(13) 0.56685(12)
O2 O -0.23329(18) 0.43536(15) 0.91216(14)
O3 O 0.47230(19) 0.29526(16) 1.02759(17)
Co1 Co 0.5000 0.5000 1.0000
H1 H 0.472(3) 0.302(2) 1.112(3)
H2 H 0.418(3) 0.220(3) 0.969(3)
H3 H -0.184(3) 0.481(2) 0.877(2)
H4 H -0.269(2) 0.275(2) 0.5971(19)
H5 H -0.273(2) 0.081(2) 0.502(2)
H6 H -0.184(3) 0.050(2) 0.712(2)
H7 H -0.369(3) 0.138(2) 0.738(2)
H8 H -0.005(3) 0.303(2) 0.859(2)
H9 H -0.162(3) 0.258(2) 0.958(2)
C1A C 0.6869(2) 0.64973(19) 1.33643(19)
C2A C 1.0000(2) 0.6732(2) 1.71853(18)
C3A C 0.6414(2) 0.6795(2) 1.58839(19)
C4A C 1.1831(2) 0.9056(2) 1.73568(19)
C5A C 0.9466(2) 0.76273(19) 1.52502(17)
C6A C 0.7621(2) 0.6936(2) 1.48296(17)
C7A C 1.0482(2) 0.77717(19) 1.65361(18)
C8A C 1.2162(2) 0.8266(2) 1.4121(2)
C9A C 1.2373(3) 0.8494(2) 1.2723(2)
C10A C 1.1462(3) 0.7150(2) 1.1301(2)
N1A N 0.62358(19) 0.61485(17) 1.21828(16)
N2A N 0.9627(2) 0.58645(18) 1.76830(17)
N3A N 0.5453(2) 0.67214(18) 1.67601(16)
N4A N 1.2862(2) 1.01275(19) 1.80667(17)
O1A O 1.01396(16) 0.82007(13) 1.43315(12)
O2A O 1.23329(18) 0.56464(15) 1.08784(14)
O2A_2 O 0.23329(18) 0.56464(15) 1.08784(14)
O2_2 O 0.76671(18) 0.43536(15) 0.91216(14)
O3A O 0.52770(19) 0.70474(16) 0.97241(17)
Co1_2 Co -0.5000 0.5000 1.0000
Co1_3 Co 1.5000 0.5000 1.0000
H1A H 0.528(3) 0.698(2) 0.888(3)
H2A H 0.582(3) 0.780(3) 1.031(3)
H3A H 1.184(3) 0.519(2) 1.123(2)
H3A_2 H 0.184(3) 0.519(2) 1.123(2)
H3_2 H 0.816(3) 0.481(2) 0.877(2)
H4A H 1.269(2) 0.725(2) 1.4029(19)
H5A H 1.273(2) 0.919(2) 1.498(2)
H6A H 1.184(3) 0.950(2) 1.288(2)
H7A H 1.369(3) 0.862(2) 1.262(2)
H8A H 1.005(3) 0.697(2) 1.141(2)
H9A H 1.162(3) 0.742(2) 1.042(2)
loop_
_geom_bond_atom_site_label_1
_geom_bond_atom_site_label_2
_geom_bond_site_symmetry_1
_geom_bond_site_symmetry_2
C1 C6 1_555 1_555
C2 C7 1_555 1_555
C3 C6 1_555 1_555
C4 C7 1_555 1_555
C5 C6 1_555 1_555
C7 C5 1_555 1_555
C8 C9 1_555 1_555
C9 C10 1_555 1_555
C10 O2 1_555 1_555
N1 C1 1_555 1_555
N2 C2 1_555 1_555
N3 C3 1_555 1_555
N4 C4 1_555 1_555
O1 C5 1_555 1_555
O2 H3 1_555 1_555
O3 Co1 1_555 1_555
Co1 N1 1_555 1_555
H1 O3 1_555 1_555
H2 O3 1_555 1_555
H4 C8 1_555 1_555
H5 C8 1_555 1_555
H6 C9 1_555 1_555
H7 C9 1_555 1_555
H8 C10 1_555 1_555
H9 C10 1_555 1_555
C1A C6A 1_555 1_555
C2A C7A 1_555 1_555
C3A C6A 1_555 1_555
C4A C7A 1_555 1_555
C5A C6A 1_555 1_555
C7A C5A 1_555 1_555
C8A C9A 1_555 1_555
C9A C10A 1_555 1_555
C10A O2A 1_555 1_555
N1A Co1 1_555 1_555
N2A C2A 1_555 1_555
N3A C3A 1_555 1_555
N4A C4A 1_555 1_555
O1A C5A 1_555 1_555
O2A Co1_3 1_555 1_555
O2A_2 Co1 1_555 1_555
O2_2 Co1 1_555 1_555
O3A Co1 1_555 1_555
Co1_2 O2 1_555 1_555
H1A O3A 1_555 1_555
H2A O3A 1_555 1_555
H3A O2A 1_555 1_555
H3A_2 O2A_2 1_555 1_555
H3_2 O2_2 1_555 1_555
H4A C8A 1_555 1_555
H5A C8A 1_555 1_555
H6A C9A 1_555 1_555
H7A C9A 1_555 1_555
H8A C10A 1_555 1_555
H9A C10A 1_555 1_555
C8 O1 1_555 1_555
C1A N1A 1_555 1_555
C8A O1A 1_555 1_555

#END
