
#######################################################################
#
#                 Cambridge Crystallographic Data Centre
#                                CCDC 
#
#######################################################################
#
# If this CIF has been generated from an entry in the Cambridge 
# Structural Database, then it will include bibliographic, chemical, 
# crystal, experimental, refinement or atomic coordinate data resulting 
# from the CCDC's data processing and validation procedures.
#
#######################################################################

data_CAYJET
_symmetry_cell_setting           triclinic
_symmetry_space_group_name_H-M   'P -1'
_symmetry_Int_Tables_number      2
_space_group_name_Hall           '-P 1'
loop_
_symmetry_equiv_pos_site_id
_symmetry_equiv_pos_as_xyz
1 x,y,z
2 -x,-y,-z
_cell_length_a                   8.199(5)
_cell_length_b                   8.556(5)
_cell_length_c                   9.687(5)
_cell_angle_alpha                85.008(5)
_cell_angle_beta                 76.128(5)
_cell_angle_gamma                61.975(5)
_cell_volume                     582.111
loop_
_atom_site_label
_atom_site_type_symbol
_atom_site_fract_x
_atom_site_fract_y
_atom_site_fract_z
Ni1 Ni 0.0000 0.0000 0.0000
O1 O 0.0814(4) 0.0581(4) 0.1637(3)
C1 C 0.4130(4) -0.0960(4) -0.1879(4)
N1 N 0.2571(4) -0.0423(4) -0.1286(3)
C2 C 0.6636(4) -0.0840(4) -0.3779(4)
C3 C 0.7407(4) -0.3292(4) -0.2136(4)
C4 C 0.6070(4) -0.1708(4) -0.2581(4)
N2 N 0.7091(4) -0.0145(4) -0.4741(3)
O2 O 0.9023(3) -0.4108(3) -0.3119(2)
C5 C 1.0845(4) -0.5075(5) -0.2701(4)
C6 C 1.2361(5) -0.5299(5) -0.4009(5)
O3 O 1.2148(4) -0.2455(4) -0.3748(3)
C7 C 1.2146(6) -0.3622(6) -0.4738(4)
C8 C 0.7102(4) -0.4020(4) -0.0800(4)
C9 C 0.8057(4) -0.5858(4) -0.0597(4)
N3 N 0.8803(3) -0.7360(4) -0.0416(3)
N4 N 0.4677(4) -0.2174(4) 0.1402(3)
C10 C 0.5745(4) -0.2981(4) 0.0405(4)
H1 H 1.082(5) -0.433(5) -0.190(4)
H2 H 1.103(4) -0.619(5) -0.236(4)
H3 H 1.241(5) -0.598(6) -0.470(4)
H4 H 1.343(7) -0.422(7) -0.583(5)
H5 H 1.356(5) -0.600(5) -0.371(4)
H6 H 1.090(5) -0.300(5) -0.520(3)
H7 H 0.020(4) 0.064(5) 0.247(4)
H8 H 0.170(6) -0.011(6) 0.195(5)
H9 H 1.2619 -0.1761 -0.4443
Ni1_2 Ni -1.0000 1.0000 0.0000
Ni1_3 Ni 1.0000 -1.0000 0.0000
O1A O -0.0814(4) -0.0581(4) -0.1637(3)
C1A C -0.4130(4) 0.0960(4) 0.1879(4)
N1A N -0.2571(4) 0.0423(4) 0.1286(3)
C2A C -0.6636(4) 0.0840(4) 0.3779(4)
C3A C -0.7407(4) 0.3292(4) 0.2136(4)
C4A C -0.6070(4) 0.1708(4) 0.2581(4)
N2A N -0.7091(4) 0.0145(4) 0.4741(3)
O2A O -0.9023(3) 0.4108(3) 0.3119(2)
C5A C -1.0845(4) 0.5075(5) 0.2701(4)
C6A C -1.2361(5) 0.5299(5) 0.4009(5)
O3A O -1.2148(4) 0.2455(4) 0.3748(3)
C7A C -1.2146(6) 0.3622(6) 0.4738(4)
C8A C -0.7102(4) 0.4020(4) 0.0800(4)
C9A C -0.8057(4) 0.5858(4) 0.0597(4)
N3A N -0.8803(3) 0.7360(4) 0.0416(3)
N3_2 N -0.1197(3) 0.2640(4) -0.0416(3)
N3A_2 N 0.1197(3) -0.2640(4) 0.0416(3)
N4A N -0.4677(4) 0.2174(4) -0.1402(3)
C10A C -0.5745(4) 0.2981(4) -0.0405(4)
H1A H -1.082(5) 0.433(5) 0.190(4)
H2A H -1.103(4) 0.619(5) 0.236(4)
H3A H -1.241(5) 0.598(6) 0.470(4)
H4A H -1.343(7) 0.422(7) 0.583(5)
H5A H -1.356(5) 0.600(5) 0.371(4)
H6A H -1.090(5) 0.300(5) 0.520(3)
H7A H -0.020(4) -0.064(5) -0.247(4)
H8A H -0.170(6) 0.011(6) -0.195(5)
H9A H -1.2619 0.1761 0.4443
loop_
_geom_bond_atom_site_label_1
_geom_bond_atom_site_label_2
_geom_bond_site_symmetry_1
_geom_bond_site_symmetry_2
Ni1 O1 1_555 1_555
O1 H7 1_555 1_555
C1 N1 1_555 1_555
N1 Ni1 1_555 1_555
C2 C4 1_555 1_555
C3 C4 1_555 1_555
C4 C1 1_555 1_555
N2 C2 1_555 1_555
O2 C3 1_555 1_555
C5 O2 1_555 1_555
C6 C5 1_555 1_555
O3 C7 1_555 1_555
C7 C6 1_555 1_555
C8 C3 1_555 1_555
C9 C8 1_555 1_555
N3 C9 1_555 1_555
N4 C10 1_555 1_555
C10 C8 1_555 1_555
H1 C5 1_555 1_555
H2 C5 1_555 1_555
H3 C6 1_555 1_555
H4 C7 1_555 1_555
H5 C6 1_555 1_555
H6 C7 1_555 1_555
H8 O1 1_555 1_555
H9 O3 1_555 1_555
Ni1_2 N3A 1_555 1_555
Ni1_3 N3 1_555 1_555
O1A Ni1 1_555 1_555
C1A N1A 1_555 1_555
N1A Ni1 1_555 1_555
C2A C4A 1_555 1_555
C3A C4A 1_555 1_555
C4A C1A 1_555 1_555
N2A C2A 1_555 1_555
O2A C3A 1_555 1_555
C5A O2A 1_555 1_555
C6A C5A 1_555 1_555
O3A C7A 1_555 1_555
C7A C6A 1_555 1_555
C8A C3A 1_555 1_555
C9A C8A 1_555 1_555
N3A C9A 1_555 1_555
N3_2 Ni1 1_555 1_555
N3A_2 Ni1 1_555 1_555
N4A C10A 1_555 1_555
C10A C8A 1_555 1_555
H1A C5A 1_555 1_555
H2A C5A 1_555 1_555
H3A C6A 1_555 1_555
H4A C7A 1_555 1_555
H5A C6A 1_555 1_555
H6A C7A 1_555 1_555
H7A O1A 1_555 1_555
H8A O1A 1_555 1_555
H9A O3A 1_555 1_555

#END
