
#######################################################################
#
#                 Cambridge Crystallographic Data Centre
#                                CCDC 
#
#######################################################################
#
# If this CIF has been generated from an entry in the Cambridge 
# Structural Database, then it will include bibliographic, chemical, 
# crystal, experimental, refinement or atomic coordinate data resulting 
# from the CCDC's data processing and validation procedures.
#
#######################################################################

data_CAYKIY
_symmetry_cell_setting           triclinic
_symmetry_space_group_name_H-M   'P -1'
_symmetry_Int_Tables_number      2
_space_group_name_Hall           '-P 1'
loop_
_symmetry_equiv_pos_site_id
_symmetry_equiv_pos_as_xyz
1 x,y,z
2 -x,-y,-z
_cell_length_a                   7.0471(4)
_cell_length_b                   10.9758(5)
_cell_length_c                   12.2698(6)
_cell_angle_alpha                84.2890(10)
_cell_angle_beta                 76.7700(10)
_cell_angle_gamma                89.5200(10)
_cell_volume                     919.164
loop_
_atom_site_label
_atom_site_type_symbol
_atom_site_fract_x
_atom_site_fract_y
_atom_site_fract_z
La1 La 0.212591(14) 0.604928(9) 0.212094(8)
S1 S 0.27382(7) 0.75607(4) -0.09693(4)
S2 S 0.42650(7) 0.69745(4) 0.46066(4)
O1 O 0.6397(2) 1.18036(13) -0.16834(13)
O2 O 0.4289(2) 1.32810(13) -0.12739(13)
O3 O 0.2212(2) 0.67946(14) 0.00985(12)
O4 O 0.1605(2) 0.71959(14) -0.17391(13)
O5 O 0.4826(2) 0.75782(14) -0.14445(15)
O6 O 0.0652(3) 1.20155(16) 0.32098(18)
H1 H -0.0159 1.2204 0.2840
O7 O -0.0121(3) 1.01395(17) 0.29175(18)
O8 O 0.3019(3) 0.65728(14) 0.39061(13)
O9 O 0.3573(2) 0.64764(15) 0.57693(13)
O10 O 0.6302(3) 0.67419(16) 0.41753(17)
O11 O -0.1093(2) 0.53867(15) 0.16724(16)
H2 H -0.2152 0.5779 0.1733
H3 H -0.1433 0.4639 0.1716
O12 O 0.2684(3) 0.42826(16) 0.08864(15)
H4 H 0.3420 0.3682 0.0978
H5 H 0.2605 0.4386 0.0203
O13 O -0.0060(3) 0.4831(2) 0.38316(16)
H6 H -0.1156 0.4474 0.3915
H7 H 0.0204 0.4523 0.4442
O14 O 0.4125(3) 0.43395(16) 0.28104(15)
H8 H 0.4298 0.3681 0.2492
H9 H 0.4617 0.4256 0.3384
O15 O -0.0419(2) 0.76137(15) 0.27206(14)
H10 H -0.1538 0.7481 0.3157
H11 H -0.0309 0.8387 0.2696
C1 C 0.1312(3) 1.15125(17) -0.02813(17)
H12 H 0.1066 1.2325 -0.0148
C2 C 0.3133(3) 1.11952(17) -0.08534(16)
C3 C 0.3545(3) 0.99657(18) -0.10506(16)
H13 H 0.4786 0.9754 -0.1426
C4 C 0.2118(3) 0.90874(17) -0.06891(16)
C5 C 0.0192(3) 0.93772(16) -0.01068(16)
C6 C 0.4705(3) 1.21455(17) -0.12962(16)
C7 C 0.3418(3) 1.11280(19) 0.43742(18)
H14 H 0.3229 1.1969 0.4295
C8 C 0.2322(3) 1.0366(2) 0.39398(18)
C9 C 0.2597(3) 0.90870(19) 0.40516(18)
H15 H 0.1824 0.8575 0.3767
C10 C 0.3985(3) 0.85946(18) 0.45729(17)
C11 C 0.5153(3) 0.93532(18) 0.50523(17)
C12 C 0.0836(3) 1.0815(2) 0.33051(19)
La1A La -0.212591(14) 1.395072(9) -0.212094(8)
La1A_2 La 0.787409(14) 1.395072(9) -0.212094(8)
La1_2 La -0.787409(14) 0.604928(9) 0.212094(8)
La1A_3 La 0.787409(14) 1.395072(9) 0.787906(8)
S1A S -0.27382(7) 1.24393(4) 0.09693(4)
S2A S 0.57350(7) 1.30255(4) 0.53934(4)
O1A O -0.6397(2) 0.81964(13) 0.16834(13)
O1A_2 O 0.3603(2) 0.81964(13) 0.16834(13)
O1_2 O -0.3603(2) 1.18036(13) -0.16834(13)
O2A O -0.4289(2) 0.67190(13) 0.12739(13)
O2A_2 O 0.5711(2) 0.67190(13) 0.12739(13)
O2_2 O -0.5711(2) 1.32810(13) -0.12739(13)
O3A O -0.2212(2) 1.32054(14) -0.00985(12)
O4A O -0.1605(2) 1.28041(14) 0.17391(13)
O5A O -0.4826(2) 1.24218(14) 0.14445(15)
O6A O 0.9348(3) 0.79845(16) 0.67902(18)
H1A H 1.0159 0.7796 0.7160
O7A O 1.0121(3) 0.98605(17) 0.70825(18)
O8A O 0.6981(3) 1.34272(14) 0.60939(13)
O8A_2 O -0.3019(3) 1.34272(14) -0.39061(13)
O9A O 0.6427(2) 1.35236(15) 0.42307(13)
O10A O 0.3698(3) 1.32581(16) 0.58247(17)
O11A O 0.1093(2) 1.46133(15) -0.16724(16)
H2A H 0.2152 1.4221 -0.1733
H3A H 0.1433 1.5361 -0.1716
O12A O -0.2684(3) 1.57174(16) -0.08864(15)
H4A H -0.3420 1.6318 -0.0978
H5A H -0.2605 1.5614 -0.0203
O13A O 0.0060(3) 1.5169(2) -0.38316(16)
H6A H 0.1156 1.5526 -0.3915
H7A H -0.0204 1.5477 -0.4442
O14A O -0.4125(3) 1.56605(16) -0.28104(15)
H8A H -0.4298 1.6319 -0.2492
H9A H -0.4617 1.5744 -0.3384
O15A O 0.0419(2) 1.23863(15) -0.27206(14)
H10A H 0.1538 1.2519 -0.3157
H11A H 0.0309 1.1613 -0.2696
C1A C -0.1312(3) 0.84875(17) 0.02813(17)
H12A H -0.1066 0.7675 0.0148
C2A C -0.3133(3) 0.88048(17) 0.08534(16)
C3A C -0.3545(3) 1.00343(18) 0.10506(16)
H13A H -0.4786 1.0246 0.1426
C4A C -0.2118(3) 1.09126(17) 0.06891(16)
C5A C -0.0192(3) 1.06228(16) 0.01068(16)
C6A C -0.4705(3) 0.78545(17) 0.12962(16)
C7A C 0.6582(3) 0.88720(19) 0.56258(18)
H14A H 0.6771 0.8031 0.5705
C8A C 0.7678(3) 0.9634(2) 0.60602(18)
C9A C 0.7403(3) 1.09130(19) 0.59484(18)
H15A H 0.8176 1.1425 0.6233
C10A C 0.6015(3) 1.14054(18) 0.54271(17)
C11A C 0.4847(3) 1.06468(18) 0.49477(17)
C12A C 0.9164(3) 0.9185(2) 0.66949(19)
loop_
_geom_bond_atom_site_label_1
_geom_bond_atom_site_label_2
_geom_bond_site_symmetry_1
_geom_bond_site_symmetry_2
La1 O3 1_555 1_555
S1 O3 1_555 1_555
S2 O8 1_555 1_555
O1 C6 1_555 1_555
O2 C6 1_555 1_555
O4 S1 1_555 1_555
O5 S1 1_555 1_555
O6 H1 1_555 1_555
O7 C12 1_555 1_555
O8 La1 1_555 1_555
O9 S2 1_555 1_555
O10 S2 1_555 1_555
O11 La1 1_555 1_555
H2 O11 1_555 1_555
H3 O11 1_555 1_555
O12 La1 1_555 1_555
H4 O12 1_555 1_555
H5 O12 1_555 1_555
O13 La1 1_555 1_555
H6 O13 1_555 1_555
H7 O13 1_555 1_555
O14 La1 1_555 1_555
H8 O14 1_555 1_555
H9 O14 1_555 1_555
O15 La1 1_555 1_555
H10 O15 1_555 1_555
H11 O15 1_555 1_555
C1 H12 1_555 1_555
C2 C1 1_555 1_555
C3 C2 1_555 1_555
H13 C3 1_555 1_555
C4 S1 1_555 1_555
C5 C4 1_555 1_555
C6 C2 1_555 1_555
C7 H14 1_555 1_555
C8 C7 1_555 1_555
C9 C8 1_555 1_555
H15 C9 1_555 1_555
C10 S2 1_555 1_555
C11 C10 1_555 1_555
C12 O6 1_555 1_555
La1A O1_2 1_555 1_555
La1A_2 O1 1_555 1_555
La1_2 O1A 1_555 1_555
La1A_3 O8A 1_555 1_555
S1A O3A 1_555 1_555
S2A O8A 1_555 1_555
O1A C6A 1_555 1_555
O1A_2 La1 1_555 1_555
O2A La1_2 1_555 1_555
O2A_2 La1 1_555 1_555
O2_2 La1A 1_555 1_555
O3A La1A 1_555 1_555
O4A S1A 1_555 1_555
O5A S1A 1_555 1_555
O6A H1A 1_555 1_555
O7A C12A 1_555 1_555
O8A_2 La1A 1_555 1_555
O9A S2A 1_555 1_555
O10A S2A 1_555 1_555
O11A La1A 1_555 1_555
H2A O11A 1_555 1_555
H3A O11A 1_555 1_555
O12A La1A 1_555 1_555
H4A O12A 1_555 1_555
H5A O12A 1_555 1_555
O13A La1A 1_555 1_555
H6A O13A 1_555 1_555
H7A O13A 1_555 1_555
O14A La1A 1_555 1_555
H8A O14A 1_555 1_555
H9A O14A 1_555 1_555
O15A La1A 1_555 1_555
H10A O15A 1_555 1_555
H11A O15A 1_555 1_555
C1A C5 1_555 1_555
H12A C1A 1_555 1_555
C2A C1A 1_555 1_555
C3A C2A 1_555 1_555
H13A C3A 1_555 1_555
C4A S1A 1_555 1_555
C5A C1 1_555 1_555
C6A O2A 1_555 1_555
C7A C11 1_555 1_555
H14A C7A 1_555 1_555
C8A C7A 1_555 1_555
C9A C8A 1_555 1_555
H15A C9A 1_555 1_555
C10A S2A 1_555 1_555
C11A C7 1_555 1_555
C12A O6A 1_555 1_555
O2 La1A_2 1_555 1_555
C3 C4 1_555 1_555
C5 C5A 1_555 1_555
C8 C12 1_555 1_555
C9 C10 1_555 1_555
C11 C11A 1_555 1_555
C2A C6A 1_555 1_555
C3A C4A 1_555 1_555
C4A C5A 1_555 1_555
C8A C12A 1_555 1_555
C9A C10A 1_555 1_555
C10A C11A 1_555 1_555

#END
