
#######################################################################
#
#                 Cambridge Crystallographic Data Centre
#                                CCDC 
#
#######################################################################
#
# If this CIF has been generated from an entry in the Cambridge 
# Structural Database, then it will include bibliographic, chemical, 
# crystal, experimental, refinement or atomic coordinate data resulting 
# from the CCDC's data processing and validation procedures.
#
#######################################################################

data_CAYKOE
_symmetry_cell_setting           triclinic
_symmetry_space_group_name_H-M   'P -1'
_symmetry_Int_Tables_number      2
_space_group_name_Hall           '-P 1'
loop_
_symmetry_equiv_pos_site_id
_symmetry_equiv_pos_as_xyz
1 x,y,z
2 -x,-y,-z
_cell_length_a                   7.02170(10)
_cell_length_b                   10.9089(2)
_cell_length_c                   12.1681(2)
_cell_angle_alpha                84.2090(10)
_cell_angle_beta                 76.6360(10)
_cell_angle_gamma                89.8110(10)
_cell_volume                     902.005
loop_
_atom_site_label
_atom_site_type_symbol
_atom_site_fract_x
_atom_site_fract_y
_atom_site_fract_z
Nd1 Nd 0.21409(2) 0.604177(13) 0.211955(12)
S1 S 0.27658(11) 0.75547(6) -0.09580(6)
S2 S 0.42642(11) 0.69577(7) 0.45938(6)
O1 O 0.6432(3) 1.1839(2) -0.16923(19)
O2 O 0.4319(3) 1.3317(2) -0.12865(19)
O3 O 0.2215(4) 0.6780(2) 0.01179(18)
O4 O 0.1644(4) 0.7186(2) -0.17430(19)
O5 O 0.4870(3) 0.7573(2) -0.1427(2)
O6 O 0.0622(4) 1.2017(2) 0.3212(3)
H1 H -0.0181 1.2209 0.2835
O7 O -0.0122(4) 1.0126(2) 0.2894(3)
O8 O 0.3010(4) 0.6552(2) 0.38939(19)
O9 O 0.3573(4) 0.6449(2) 0.57702(19)
O10 O 0.6316(4) 0.6731(2) 0.4157(2)
O11 O -0.1033(3) 0.5391(2) 0.1669(2)
H2 H -0.2108 0.5763 0.1706
H3 H -0.1313 0.4625 0.1766
O12 O 0.2671(4) 0.4309(2) 0.0900(2)
H4 H 0.3272 0.3643 0.0999
H5 H 0.2586 0.4429 0.0212
O13 O -0.0001(4) 0.4826(3) 0.3798(2)
H6 H -0.1175 0.4562 0.3914
H7 H -0.0013 0.4849 0.4496
O14 O 0.4073(4) 0.4352(2) 0.2813(2)
H8 H 0.4320 0.3697 0.2485
H9 H 0.4575 0.4316 0.3387
O15 O -0.0355(3) 0.7563(2) 0.2699(2)
H10 H -0.1412 0.7328 0.3173
H11 H -0.0170 0.8339 0.2639
C1 C 0.1317(4) 1.1529(3) -0.0289(2)
H12 H 0.1072 1.2345 -0.0154
C2 C 0.3140(4) 1.1213(3) -0.0860(2)
C3 C 0.3567(4) 0.9976(3) -0.1051(3)
H13 H 0.4816 0.9767 -0.1427
C4 C 0.2134(4) 0.9090(3) -0.0678(2)
C5 C 0.0196(4) 0.9372(3) -0.0099(2)
C6 C 0.4725(4) 1.2175(3) -0.1309(2)
C7 C 0.3406(5) 1.1132(3) 0.4374(3)
H14 H 0.3215 1.1977 0.4294
C8 C 0.2307(5) 1.0353(3) 0.3940(3)
C9 C 0.2594(5) 0.9080(3) 0.4047(3)
H15 H 0.1821 0.8563 0.3760
C10 C 0.3984(5) 0.8586(3) 0.4566(3)
C11 C 0.5158(5) 0.9354(3) 0.5053(3)
C12 C 0.0816(5) 1.0805(3) 0.3296(3)
Nd1A Nd -0.21409(2) 1.395823(13) -0.211955(12)
Nd1_2 Nd -0.78591(2) 0.604177(13) 0.211955(12)
Nd1A_2 Nd 0.78591(2) 1.395823(13) -0.211955(12)
Nd1A_3 Nd 0.78591(2) 1.395823(13) 0.788045(12)
S1A S -0.27658(11) 1.24453(6) 0.09580(6)
S2A S 0.57358(11) 1.30423(7) 0.54062(6)
O1A O -0.6432(3) 0.8161(2) 0.16923(19)
O1_2 O -0.3568(3) 1.1839(2) -0.16923(19)
O1A_2 O 0.3568(3) 0.8161(2) 0.16923(19)
O2A O -0.4319(3) 0.6683(2) 0.12865(19)
O2_2 O -0.5681(3) 1.3317(2) -0.12865(19)
O2A_2 O 0.5681(3) 0.6683(2) 0.12865(19)
O3A O -0.2215(4) 1.3220(2) -0.01179(18)
O4A O -0.1644(4) 1.2814(2) 0.17430(19)
O5A O -0.4870(3) 1.2427(2) 0.1427(2)
O6A O 0.9378(4) 0.7983(2) 0.6788(3)
H1A H 1.0181 0.7791 0.7165
O7A O 1.0122(4) 0.9874(2) 0.7106(3)
O8A O 0.6990(4) 1.3448(2) 0.61061(19)
O8A_2 O -0.3010(4) 1.3448(2) -0.38939(19)
O9A O 0.6427(4) 1.3551(2) 0.42298(19)
O10A O 0.3684(4) 1.3269(2) 0.5843(2)
O11A O 0.1033(3) 1.4609(2) -0.1669(2)
H2A H 0.2108 1.4237 -0.1706
H3A H 0.1313 1.5375 -0.1766
O12A O -0.2671(4) 1.5691(2) -0.0900(2)
H4A H -0.3272 1.6357 -0.0999
H5A H -0.2586 1.5571 -0.0212
O13A O 0.0001(4) 1.5174(3) -0.3798(2)
H6A H 0.1175 1.5438 -0.3914
H7A H 0.0013 1.5151 -0.4496
O14A O -0.4073(4) 1.5648(2) -0.2813(2)
H8A H -0.4320 1.6303 -0.2485
H9A H -0.4575 1.5684 -0.3387
O15A O 0.0355(3) 1.2437(2) -0.2699(2)
H10A H 0.1412 1.2672 -0.3173
H11A H 0.0170 1.1661 -0.2639
C1A C -0.1317(4) 0.8471(3) 0.0289(2)
H12A H -0.1072 0.7655 0.0154
C2A C -0.3140(4) 0.8787(3) 0.0860(2)
C3A C -0.3567(4) 1.0024(3) 0.1051(3)
H13A H -0.4816 1.0233 0.1427
C4A C -0.2134(4) 1.0910(3) 0.0678(2)
C5A C -0.0196(4) 1.0628(3) 0.0099(2)
C6A C -0.4725(4) 0.7825(3) 0.1309(2)
C7A C 0.6594(5) 0.8868(3) 0.5626(3)
H14A H 0.6785 0.8023 0.5706
C8A C 0.7693(5) 0.9647(3) 0.6060(3)
C9A C 0.7406(5) 1.0920(3) 0.5953(3)
H15A H 0.8179 1.1437 0.6240
C10A C 0.6016(5) 1.1414(3) 0.5434(3)
C11A C 0.4842(5) 1.0646(3) 0.4947(3)
C12A C 0.9184(5) 0.9195(3) 0.6704(3)
loop_
_geom_bond_atom_site_label_1
_geom_bond_atom_site_label_2
_geom_bond_site_symmetry_1
_geom_bond_site_symmetry_2
Nd1 O3 1_555 1_555
S1 O3 1_555 1_555
S2 O8 1_555 1_555
O1 C6 1_555 1_555
O2 C6 1_555 1_555
O4 S1 1_555 1_555
O5 S1 1_555 1_555
O6 H1 1_555 1_555
O7 C12 1_555 1_555
O8 Nd1 1_555 1_555
O9 S2 1_555 1_555
O10 S2 1_555 1_555
O11 Nd1 1_555 1_555
H2 O11 1_555 1_555
H3 O11 1_555 1_555
O12 Nd1 1_555 1_555
H4 O12 1_555 1_555
H5 O12 1_555 1_555
O13 Nd1 1_555 1_555
H6 O13 1_555 1_555
H7 O13 1_555 1_555
O14 Nd1 1_555 1_555
H8 O14 1_555 1_555
H9 O14 1_555 1_555
O15 Nd1 1_555 1_555
H10 O15 1_555 1_555
H11 O15 1_555 1_555
C1 H12 1_555 1_555
C2 C1 1_555 1_555
C3 C2 1_555 1_555
H13 C3 1_555 1_555
C4 S1 1_555 1_555
C5 C4 1_555 1_555
C6 C2 1_555 1_555
C7 H14 1_555 1_555
C8 C7 1_555 1_555
C9 C8 1_555 1_555
H15 C9 1_555 1_555
C10 S2 1_555 1_555
C11 C10 1_555 1_555
C12 O6 1_555 1_555
Nd1A O1_2 1_555 1_555
Nd1_2 O1A 1_555 1_555
Nd1A_2 O1 1_555 1_555
Nd1A_3 O8A 1_555 1_555
S1A O3A 1_555 1_555
S2A O8A 1_555 1_555
O1A C6A 1_555 1_555
O1A_2 Nd1 1_555 1_555
O2A Nd1_2 1_555 1_555
O2_2 Nd1A 1_555 1_555
O2A_2 Nd1 1_555 1_555
O3A Nd1A 1_555 1_555
O4A S1A 1_555 1_555
O5A S1A 1_555 1_555
O6A H1A 1_555 1_555
O7A C12A 1_555 1_555
O8A_2 Nd1A 1_555 1_555
O9A S2A 1_555 1_555
O10A S2A 1_555 1_555
O11A Nd1A 1_555 1_555
H2A O11A 1_555 1_555
H3A O11A 1_555 1_555
O12A Nd1A 1_555 1_555
H4A O12A 1_555 1_555
H5A O12A 1_555 1_555
O13A Nd1A 1_555 1_555
H6A O13A 1_555 1_555
H7A O13A 1_555 1_555
O14A Nd1A 1_555 1_555
H8A O14A 1_555 1_555
H9A O14A 1_555 1_555
O15A Nd1A 1_555 1_555
H10A O15A 1_555 1_555
H11A O15A 1_555 1_555
C1A C5 1_555 1_555
H12A C1A 1_555 1_555
C2A C1A 1_555 1_555
C3A C2A 1_555 1_555
H13A C3A 1_555 1_555
C4A S1A 1_555 1_555
C5A C1 1_555 1_555
C6A O2A 1_555 1_555
C7A C11 1_555 1_555
H14A C7A 1_555 1_555
C8A C7A 1_555 1_555
C9A C8A 1_555 1_555
H15A C9A 1_555 1_555
C10A S2A 1_555 1_555
C11A C7 1_555 1_555
C12A O6A 1_555 1_555
O2 Nd1A_2 1_555 1_555
C3 C4 1_555 1_555
C5 C5A 1_555 1_555
C8 C12 1_555 1_555
C9 C10 1_555 1_555
C11 C11A 1_555 1_555
C2A C6A 1_555 1_555
C3A C4A 1_555 1_555
C4A C5A 1_555 1_555
C8A C12A 1_555 1_555
C9A C10A 1_555 1_555
C10A C11A 1_555 1_555

#END
