
#######################################################################
#
#                 Cambridge Crystallographic Data Centre
#                                CCDC 
#
#######################################################################
#
# If this CIF has been generated from an entry in the Cambridge 
# Structural Database, then it will include bibliographic, chemical, 
# crystal, experimental, refinement or atomic coordinate data resulting 
# from the CCDC's data processing and validation procedures.
#
#######################################################################

data_CAYKUK
_symmetry_cell_setting           triclinic
_symmetry_space_group_name_H-M   'P -1'
_symmetry_Int_Tables_number      2
_space_group_name_Hall           '-P 1'
loop_
_symmetry_equiv_pos_site_id
_symmetry_equiv_pos_as_xyz
1 x,y,z
2 -x,-y,-z
_cell_length_a                   7.013(6)
_cell_length_b                   10.917(9)
_cell_length_c                   12.119(10)
_cell_angle_alpha                95.919(10)
_cell_angle_beta                 103.259(10)
_cell_angle_gamma                90.014(10)
_cell_volume                     898.02
loop_
_atom_site_label
_atom_site_type_symbol
_atom_site_fract_x
_atom_site_fract_y
_atom_site_fract_z
Sm1 Sm 0.28529(4) 0.39619(2) 0.21204(2)
S1 S 0.2221(2) 0.24477(13) -0.09520(13)
S2 S 0.0735(3) 0.30539(14) 0.45876(13)
O1 O 0.0669(7) -0.3338(4) -0.1293(4)
O2 O -0.1441(7) -0.1865(4) -0.1695(4)
O3 O 0.2786(8) 0.3225(4) 0.0132(4)
O4 O 0.3340(9) 0.2814(4) -0.1744(4)
O5 O 0.0135(8) 0.2426(5) -0.1414(5)
O6 O 0.4394(10) -0.2014(5) 0.3218(6)
H1 H 0.5225 -0.2201 0.2856
O7 O 0.5125(10) -0.0114(5) 0.2889(6)
O8 O 0.1993(9) 0.3464(5) 0.3881(4)
O9 O 0.1421(9) 0.3570(5) 0.5764(4)
O10 O -0.1304(9) 0.3276(5) 0.4150(6)
O11 O 0.5335(8) 0.2464(5) 0.2694(5)
H2 H 0.5133 0.1692 0.2659
H3 H 0.6471 0.2646 0.3109
O12 O 0.6008(8) 0.4603(5) 0.1671(5)
H4 H 0.7076 0.4218 0.1740
H5 H 0.6455 0.5335 0.1718
O13 O 0.0948(9) 0.5639(5) 0.2817(5)
H6 H 0.0364 0.5598 0.3355
H7 H 0.0819 0.6260 0.2440
O14 O 0.2319(10) 0.5672(5) 0.0913(5)
H8 H 0.1606 0.6274 0.1045
H9 H 0.2140 0.5517 0.0195
O15 O 0.4985(9) 0.5169(6) 0.3787(5)
H10 H 0.6123 0.5504 0.3947
H11 H 0.4474 0.5599 0.4264
C1 C 0.3675(10) -0.1532(6) -0.0292(6)
H12 H 0.3923 -0.2347 -0.0162
C2 C 0.1861(10) -0.1225(6) -0.0851(5)
C3 C 0.1426(10) 0.0012(6) -0.1051(6)
H13 H 0.0175 0.0213 -0.1429
C4 C 0.2857(10) 0.0906(5) -0.0682(5)
C5 C 0.4808(10) 0.0630(5) -0.0097(5)
C6 C 0.0272(9) -0.2186(5) -0.1306(5)
C7 C 0.1611(11) -0.1134(6) 0.4374(6)
H14 H 0.1812 -0.1977 0.4299
C8 C 0.2711(11) -0.0358(6) 0.3936(6)
C9 C 0.2419(11) 0.0939(6) 0.4052(6)
H15 H 0.3195 0.1461 0.3769
C10 C 0.1025(11) 0.1419(6) 0.4570(6)
C11 C -0.0154(10) 0.0653(6) 0.5051(6)
C12 C 0.4180(12) -0.0795(7) 0.3294(6)
Sm1A Sm 0.71471(4) -0.39619(2) -0.21204(2)
Sm1A_2 Sm -0.28529(4) -0.39619(2) -0.21204(2)
Sm1_2 Sm 1.28529(4) 0.39619(2) 0.21204(2)
Sm1A_3 Sm -0.28529(4) -0.39619(2) 0.78796(2)
S1A S 0.7779(2) -0.24477(13) 0.09520(13)
S2A S -0.0735(3) -0.30539(14) 0.54124(13)
O1A O 0.9331(7) 0.3338(4) 0.1293(4)
O1A_2 O -0.0669(7) 0.3338(4) 0.1293(4)
O1_2 O 1.0669(7) -0.3338(4) -0.1293(4)
O2A O 1.1441(7) 0.1865(4) 0.1695(4)
O2A_2 O 0.1441(7) 0.1865(4) 0.1695(4)
O2_2 O 0.8559(7) -0.1865(4) -0.1695(4)
O3A O 0.7214(8) -0.3225(4) -0.0132(4)
O4A O 0.6660(9) -0.2814(4) 0.1744(4)
O5A O 0.9865(8) -0.2426(5) 0.1414(5)
O6A O -0.4394(10) 0.2014(5) 0.6782(6)
H1A H -0.5225 0.2201 0.7144
O7A O -0.5125(10) 0.0114(5) 0.7111(6)
O8A O -0.1993(9) -0.3464(5) 0.6119(4)
O8A_2 O 0.8007(9) -0.3464(5) -0.3881(4)
O9A O -0.1421(9) -0.3570(5) 0.4236(4)
O10A O 0.1304(9) -0.3276(5) 0.5850(6)
O11A O 0.4665(8) -0.2464(5) -0.2694(5)
H2A H 0.4867 -0.1692 -0.2659
H3A H 0.3529 -0.2646 -0.3109
O12A O 0.3992(8) -0.4603(5) -0.1671(5)
H4A H 0.2924 -0.4218 -0.1740
H5A H 0.3545 -0.5335 -0.1718
O13A O 0.9052(9) -0.5639(5) -0.2817(5)
H6A H 0.9636 -0.5598 -0.3355
H7A H 0.9181 -0.6260 -0.2440
O14A O 0.7681(10) -0.5672(5) -0.0913(5)
H8A H 0.8394 -0.6274 -0.1045
H9A H 0.7860 -0.5517 -0.0195
O15A O 0.5015(9) -0.5169(6) -0.3787(5)
H10A H 0.3877 -0.5504 -0.3947
H11A H 0.5526 -0.5599 -0.4264
C1A C 0.6325(10) 0.1532(6) 0.0292(6)
H12A H 0.6077 0.2347 0.0162
C2A C 0.8139(10) 0.1225(6) 0.0851(5)
C3A C 0.8574(10) -0.0012(6) 0.1051(6)
H13A H 0.9825 -0.0213 0.1429
C4A C 0.7143(10) -0.0906(5) 0.0682(5)
C5A C 0.5192(10) -0.0630(5) 0.0097(5)
C6A C 0.9728(9) 0.2186(5) 0.1306(5)
C7A C -0.1611(11) 0.1134(6) 0.5626(6)
H14A H -0.1812 0.1977 0.5701
C8A C -0.2711(11) 0.0358(6) 0.6064(6)
C9A C -0.2419(11) -0.0939(6) 0.5948(6)
H15A H -0.3195 -0.1461 0.6231
C10A C -0.1025(11) -0.1419(6) 0.5430(6)
C11A C 0.0154(10) -0.0653(6) 0.4949(6)
C12A C -0.4180(12) 0.0795(7) 0.6706(6)
loop_
_geom_bond_atom_site_label_1
_geom_bond_atom_site_label_2
_geom_bond_site_symmetry_1
_geom_bond_site_symmetry_2
Sm1 O3 1_555 1_555
S1 O3 1_555 1_555
S2 O8 1_555 1_555
O1 C6 1_555 1_555
O2 C6 1_555 1_555
O4 S1 1_555 1_555
O5 S1 1_555 1_555
O6 H1 1_555 1_555
O7 C12 1_555 1_555
O8 Sm1 1_555 1_555
O9 S2 1_555 1_555
O10 S2 1_555 1_555
O11 Sm1 1_555 1_555
H2 O11 1_555 1_555
H3 O11 1_555 1_555
O12 Sm1 1_555 1_555
H4 O12 1_555 1_555
H5 O12 1_555 1_555
O13 Sm1 1_555 1_555
H6 O13 1_555 1_555
H7 O13 1_555 1_555
O14 Sm1 1_555 1_555
H8 O14 1_555 1_555
H9 O14 1_555 1_555
O15 Sm1 1_555 1_555
H10 O15 1_555 1_555
H11 O15 1_555 1_555
C1 H12 1_555 1_555
C2 C1 1_555 1_555
C3 C2 1_555 1_555
H13 C3 1_555 1_555
C4 S1 1_555 1_555
C5 C4 1_555 1_555
C6 C2 1_555 1_555
C7 H14 1_555 1_555
C8 C7 1_555 1_555
C9 C8 1_555 1_555
H15 C9 1_555 1_555
C10 S2 1_555 1_555
C11 C10 1_555 1_555
C12 O6 1_555 1_555
Sm1A O1_2 1_555 1_555
Sm1A_2 O1 1_555 1_555
Sm1_2 O1A 1_555 1_555
Sm1A_3 O8A 1_555 1_555
S1A O3A 1_555 1_555
S2A O8A 1_555 1_555
O1A C6A 1_555 1_555
O1A_2 Sm1 1_555 1_555
O2A Sm1_2 1_555 1_555
O2A_2 Sm1 1_555 1_555
O2_2 Sm1A 1_555 1_555
O3A Sm1A 1_555 1_555
O4A S1A 1_555 1_555
O5A S1A 1_555 1_555
O6A H1A 1_555 1_555
O7A C12A 1_555 1_555
O8A_2 Sm1A 1_555 1_555
O9A S2A 1_555 1_555
O10A S2A 1_555 1_555
O11A Sm1A 1_555 1_555
H2A O11A 1_555 1_555
H3A O11A 1_555 1_555
O12A Sm1A 1_555 1_555
H4A O12A 1_555 1_555
H5A O12A 1_555 1_555
O13A Sm1A 1_555 1_555
H6A O13A 1_555 1_555
H7A O13A 1_555 1_555
O14A Sm1A 1_555 1_555
H8A O14A 1_555 1_555
H9A O14A 1_555 1_555
O15A Sm1A 1_555 1_555
H10A O15A 1_555 1_555
H11A O15A 1_555 1_555
C1A C5 1_555 1_555
H12A C1A 1_555 1_555
C2A C1A 1_555 1_555
C3A C2A 1_555 1_555
H13A C3A 1_555 1_555
C4A S1A 1_555 1_555
C5A C1 1_555 1_555
C6A O2A 1_555 1_555
C7A C11 1_555 1_555
H14A C7A 1_555 1_555
C8A C7A 1_555 1_555
C9A C8A 1_555 1_555
H15A C9A 1_555 1_555
C10A S2A 1_555 1_555
C11A C7 1_555 1_555
C12A O6A 1_555 1_555
O2 Sm1A_2 1_555 1_555
C3 C4 1_555 1_555
C5 C5A 1_555 1_555
C8 C12 1_555 1_555
C9 C10 1_555 1_555
C11 C11A 1_555 1_555
C2A C6A 1_555 1_555
C3A C4A 1_555 1_555
C4A C5A 1_555 1_555
C8A C12A 1_555 1_555
C9A C10A 1_555 1_555
C10A C11A 1_555 1_555

#END
