
#######################################################################
#
#                 Cambridge Crystallographic Data Centre
#                                CCDC 
#
#######################################################################
#
# If this CIF has been generated from an entry in the Cambridge 
# Structural Database, then it will include bibliographic, chemical, 
# crystal, experimental, refinement or atomic coordinate data resulting 
# from the CCDC's data processing and validation procedures.
#
#######################################################################

data_CAYLAR
_symmetry_cell_setting           triclinic
_symmetry_space_group_name_H-M   'P -1'
_symmetry_Int_Tables_number      2
_space_group_name_Hall           '-P 1'
loop_
_symmetry_equiv_pos_site_id
_symmetry_equiv_pos_as_xyz
1 x,y,z
2 -x,-y,-z
_cell_length_a                   7.0140(18)
_cell_length_b                   10.872(3)
_cell_length_c                   12.083(3)
_cell_angle_alpha                84.193(3)
_cell_angle_beta                 76.515(3)
_cell_angle_gamma                89.976(3)
_cell_volume                     891.148
loop_
_atom_site_label
_atom_site_type_symbol
_atom_site_fract_x
_atom_site_fract_y
_atom_site_fract_z
Eu1 Eu 0.21494(2) 0.603751(15) 0.212040(14)
S1 S 0.27838(13) 0.75520(8) -0.09496(7)
S2 S 0.42611(13) 0.69445(8) 0.45859(8)
O1 O 0.6452(4) 1.1859(2) -0.1692(2)
O2 O 0.4341(4) 1.3346(2) -0.1292(2)
O3 O 0.2213(4) 0.6778(2) 0.0133(2)
O4 O 0.1676(4) 0.7186(2) -0.1748(2)
O5 O 0.4888(4) 0.7576(2) -0.1416(2)
O6 O 0.0603(5) 1.2019(3) 0.3213(3)
H1 H -0.0203 1.2209 0.2835
O7 O -0.0124(5) 1.0115(3) 0.2882(3)
O8 O 0.3006(4) 0.6541(2) 0.3882(2)
O9 O 0.3577(4) 0.6430(2) 0.5770(2)
O10 O 0.6312(4) 0.6725(3) 0.4146(3)
O11 O -0.0993(4) 0.5387(3) 0.1669(3)
H2 H -0.2069 0.5759 0.1705
H3 H -0.1274 0.4618 0.1765
O12 O 0.2664(4) 0.4332(3) 0.0913(2)
H4 H 0.3265 0.3666 0.1012
H5 H 0.2578 0.4453 0.0220
O13 O 0.0021(4) 0.4830(3) 0.3779(2)
H6 H -0.1157 0.4565 0.3895
H7 H 0.0009 0.4853 0.4481
O14 O 0.4034(4) 0.4362(3) 0.2818(3)
H8 H 0.4281 0.3705 0.2490
H9 H 0.4538 0.4326 0.3395
O15 O -0.0316(4) 0.7535(2) 0.2690(2)
H10 H -0.1378 0.7299 0.3167
H11 H -0.0130 0.8314 0.2630
C1 C 0.1313(5) 1.1542(3) -0.0295(3)
H12 H 0.1054 1.2362 -0.0169
C2 C 0.3150(5) 1.1227(3) -0.0858(3)
C3 C 0.3581(5) 0.9989(3) -0.1048(3)
H13 H 0.4834 0.9784 -0.1427
C4 C 0.2152(5) 0.9092(3) -0.0673(3)
C5 C 0.0194(5) 0.9374(3) -0.0096(3)
C6 C 0.4734(5) 1.2199(3) -0.1309(3)
C7 C 0.3402(6) 1.1135(3) 0.4373(3)
H14 H 0.3215 1.1983 0.4290
C8 C 0.2293(5) 1.0355(3) 0.3939(3)
C9 C 0.2583(5) 0.9070(3) 0.4048(3)
H15 H 0.1812 0.8548 0.3760
C10 C 0.3969(5) 0.8584(3) 0.4568(3)
C11 C 0.5165(5) 0.9347(3) 0.5051(3)
C12 C 0.0798(6) 1.0803(4) 0.3300(3)
Eu1A Eu -0.21494(2) 1.396249(15) -0.212040(14)
Eu1_2 Eu -0.78506(2) 0.603751(15) 0.212040(14)
Eu1A_2 Eu 0.78506(2) 1.396249(15) -0.212040(14)
Eu1A_3 Eu 0.78506(2) 1.396249(15) 0.787960(14)
S1A S -0.27838(13) 1.24480(8) 0.09496(7)
S2A S 0.57389(13) 1.30555(8) 0.54141(8)
O1A O -0.6452(4) 0.8141(2) 0.1692(2)
O1_2 O -0.3548(4) 1.1859(2) -0.1692(2)
O1A_2 O 0.3548(4) 0.8141(2) 0.1692(2)
O2A O -0.4341(4) 0.6654(2) 0.1292(2)
O2_2 O -0.5659(4) 1.3346(2) -0.1292(2)
O2A_2 O 0.5659(4) 0.6654(2) 0.1292(2)
O3A O -0.2213(4) 1.3222(2) -0.0133(2)
O4A O -0.1676(4) 1.2814(2) 0.1748(2)
O5A O -0.4888(4) 1.2424(2) 0.1416(2)
O6A O 0.9397(5) 0.7981(3) 0.6787(3)
H1A H 1.0203 0.7791 0.7165
O7A O 1.0124(5) 0.9885(3) 0.7118(3)
O8A O 0.6994(4) 1.3459(2) 0.6118(2)
O8A_2 O -0.3006(4) 1.3459(2) -0.3882(2)
O9A O 0.6423(4) 1.3570(2) 0.4230(2)
O10A O 0.3688(4) 1.3275(3) 0.5854(3)
O11A O 0.0993(4) 1.4613(3) -0.1669(3)
H2A H 0.2069 1.4241 -0.1705
H3A H 0.1274 1.5382 -0.1765
O12A O -0.2664(4) 1.5668(3) -0.0913(2)
H4A H -0.3265 1.6334 -0.1012
H5A H -0.2578 1.5547 -0.0220
O13A O -0.0021(4) 1.5170(3) -0.3779(2)
H6A H 0.1157 1.5435 -0.3895
H7A H -0.0009 1.5147 -0.4481
O14A O -0.4034(4) 1.5638(3) -0.2818(3)
H8A H -0.4281 1.6295 -0.2490
H9A H -0.4538 1.5674 -0.3395
O15A O 0.0316(4) 1.2465(2) -0.2690(2)
H10A H 0.1378 1.2701 -0.3167
H11A H 0.0130 1.1686 -0.2630
C1A C -0.1313(5) 0.8458(3) 0.0295(3)
H12A H -0.1054 0.7638 0.0169
C2A C -0.3150(5) 0.8773(3) 0.0858(3)
C3A C -0.3581(5) 1.0011(3) 0.1048(3)
H13A H -0.4834 1.0216 0.1427
C4A C -0.2152(5) 1.0908(3) 0.0673(3)
C5A C -0.0194(5) 1.0626(3) 0.0096(3)
C6A C -0.4734(5) 0.7801(3) 0.1309(3)
C6_2 C -0.5266(5) 1.2199(3) -0.1309(3)
C6A_2 C 0.5266(5) 0.7801(3) 0.1309(3)
C7A C 0.6598(6) 0.8865(3) 0.5627(3)
H14A H 0.6785 0.8017 0.5710
C8A C 0.7707(5) 0.9645(3) 0.6061(3)
C9A C 0.7417(5) 1.0930(3) 0.5952(3)
H15A H 0.8188 1.1452 0.6240
C10A C 0.6031(5) 1.1416(3) 0.5432(3)
C11A C 0.4835(5) 1.0653(3) 0.4949(3)
C12A C 0.9202(6) 0.9197(4) 0.6700(3)
loop_
_geom_bond_atom_site_label_1
_geom_bond_atom_site_label_2
_geom_bond_site_symmetry_1
_geom_bond_site_symmetry_2
Eu1 O3 1_555 1_555
S1 O3 1_555 1_555
S2 O8 1_555 1_555
O1 C6 1_555 1_555
O2 C6 1_555 1_555
O4 S1 1_555 1_555
O5 S1 1_555 1_555
O6 H1 1_555 1_555
O7 C12 1_555 1_555
O8 Eu1 1_555 1_555
O9 S2 1_555 1_555
O10 S2 1_555 1_555
O11 Eu1 1_555 1_555
H2 O11 1_555 1_555
H3 O11 1_555 1_555
O12 Eu1 1_555 1_555
H4 O12 1_555 1_555
H5 O12 1_555 1_555
O13 Eu1 1_555 1_555
H6 O13 1_555 1_555
H7 O13 1_555 1_555
O14 Eu1 1_555 1_555
H8 O14 1_555 1_555
H9 O14 1_555 1_555
O15 Eu1 1_555 1_555
H10 O15 1_555 1_555
H11 O15 1_555 1_555
C1 H12 1_555 1_555
C2 C1 1_555 1_555
C3 C2 1_555 1_555
H13 C3 1_555 1_555
C4 S1 1_555 1_555
C5 C4 1_555 1_555
C6 C2 1_555 1_555
C7 H14 1_555 1_555
C8 C7 1_555 1_555
C9 C8 1_555 1_555
H15 C9 1_555 1_555
C10 S2 1_555 1_555
C11 C10 1_555 1_555
C12 O6 1_555 1_555
Eu1A O1_2 1_555 1_555
Eu1_2 O1A 1_555 1_555
Eu1A_2 O1 1_555 1_555
Eu1A_3 O8A 1_555 1_555
S1A O3A 1_555 1_555
S2A O8A 1_555 1_555
O1A C6A 1_555 1_555
O1_2 C6_2 1_555 1_555
O1A_2 Eu1 1_555 1_555
O2A Eu1_2 1_555 1_555
O2_2 Eu1A 1_555 1_555
O2A_2 Eu1 1_555 1_555
O3A Eu1A 1_555 1_555
O4A S1A 1_555 1_555
O5A S1A 1_555 1_555
O6A H1A 1_555 1_555
O7A C12A 1_555 1_555
O8A_2 Eu1A 1_555 1_555
O9A S2A 1_555 1_555
O10A S2A 1_555 1_555
O11A Eu1A 1_555 1_555
H2A O11A 1_555 1_555
H3A O11A 1_555 1_555
O12A Eu1A 1_555 1_555
H4A O12A 1_555 1_555
H5A O12A 1_555 1_555
O13A Eu1A 1_555 1_555
H6A O13A 1_555 1_555
H7A O13A 1_555 1_555
O14A Eu1A 1_555 1_555
H8A O14A 1_555 1_555
H9A O14A 1_555 1_555
O15A Eu1A 1_555 1_555
H10A O15A 1_555 1_555
H11A O15A 1_555 1_555
C1A C5 1_555 1_555
H12A C1A 1_555 1_555
C2A C1A 1_555 1_555
C3A C2A 1_555 1_555
H13A C3A 1_555 1_555
C4A S1A 1_555 1_555
C5A C1 1_555 1_555
C6A O2A 1_555 1_555
C6_2 O2_2 1_555 1_555
C6A_2 O1A_2 1_555 1_555
C7A C11 1_555 1_555
H14A C7A 1_555 1_555
C8A C7A 1_555 1_555
C9A C8A 1_555 1_555
H15A C9A 1_555 1_555
C10A S2A 1_555 1_555
C11A C7 1_555 1_555
C12A O6A 1_555 1_555
O2 Eu1A_2 1_555 1_555
C3 C4 1_555 1_555
C5 C5A 1_555 1_555
C8 C12 1_555 1_555
C9 C10 1_555 1_555
C11 C11A 1_555 1_555
O2A_2 C6A_2 1_555 1_555
C2A C6A 1_555 1_555
C3A C4A 1_555 1_555
C4A C5A 1_555 1_555
C8A C12A 1_555 1_555
C9A C10A 1_555 1_555
C10A C11A 1_555 1_555

#END
