
#######################################################################
#
#                 Cambridge Crystallographic Data Centre
#                                CCDC 
#
#######################################################################
#
# If this CIF has been generated from an entry in the Cambridge 
# Structural Database, then it will include bibliographic, chemical, 
# crystal, experimental, refinement or atomic coordinate data resulting 
# from the CCDC's data processing and validation procedures.
#
#######################################################################

data_CAYLEV
_symmetry_cell_setting           triclinic
_symmetry_space_group_name_H-M   'P -1'
_symmetry_Int_Tables_number      2
_space_group_name_Hall           '-P 1'
loop_
_symmetry_equiv_pos_site_id
_symmetry_equiv_pos_as_xyz
1 x,y,z
2 -x,-y,-z
_cell_length_a                   7.00660(10)
_cell_length_b                   10.8551(2)
_cell_length_c                   12.0541(2)
_cell_angle_alpha                84.2160(10)
_cell_angle_beta                 76.4690(10)
_cell_angle_gamma                90.0340(10)
_cell_volume                     886.541
loop_
_atom_site_label
_atom_site_type_symbol
_atom_site_fract_x
_atom_site_fract_y
_atom_site_fract_z
Gd1 Gd 0.21506(2) 0.603755(15) 0.211972(14)
S1 S 0.27880(14) 0.75494(8) -0.09461(8)
S2 S 0.42542(15) 0.69435(9) 0.45831(8)
O1 O 0.6453(4) 1.1865(3) -0.1701(3)
O2 O 0.4342(4) 1.3350(3) -0.1294(3)
O3 O 0.2217(5) 0.6772(3) 0.0142(3)
O4 O 0.1674(5) 0.7178(3) -0.1745(3)
O5 O 0.4894(5) 0.7571(3) -0.1412(3)
O6 O 0.0597(6) 1.2016(3) 0.3212(4)
H1 H -0.0210 1.2204 0.2833
O7 O -0.0128(6) 1.0116(3) 0.2884(4)
O8 O 0.2991(5) 0.6537(3) 0.3880(3)
O9 O 0.3570(5) 0.6427(3) 0.5769(3)
O10 O 0.6302(5) 0.6723(3) 0.4130(4)
O11 O -0.0984(5) 0.5393(3) 0.1665(3)
H2 H -0.2061 0.5765 0.1702
H3 H -0.1266 0.4622 0.1762
O12 O 0.2661(5) 0.4331(3) 0.0923(3)
H4 H 0.3263 0.3664 0.1023
H5 H 0.2575 0.4452 0.0229
O13 O 0.0024(5) 0.4835(4) 0.3778(3)
H6 H -0.1155 0.4570 0.3894
H7 H 0.0012 0.4858 0.4482
O14 O 0.4031(6) 0.4370(3) 0.2827(3)
H8 H 0.4279 0.3712 0.2498
H9 H 0.4536 0.4333 0.3405
O15 O -0.0308(5) 0.7524(3) 0.2696(3)
H10 H -0.1372 0.7287 0.3174
H11 H -0.0122 0.8304 0.2635
C1 C 0.1311(6) 1.1542(4) -0.0295(3)
H12 H 0.1051 1.2363 -0.0167
C2 C 0.3150(6) 1.1236(4) -0.0862(3)
C3 C 0.3586(6) 0.9989(4) -0.1048(4)
H13 H 0.4844 0.9782 -0.1422
C4 C 0.2149(6) 0.9092(3) -0.0674(3)
C5 C 0.0201(6) 0.9372(3) -0.0100(3)
C6 C 0.4748(6) 1.2203(4) -0.1314(3)
C7 C 0.3401(7) 1.1141(4) 0.4367(4)
H14 H 0.3215 1.1991 0.4281
C8 C 0.2296(7) 1.0351(4) 0.3942(4)
C9 C 0.2570(6) 0.9071(4) 0.4053(4)
H15 H 0.1781 0.8551 0.3772
C10 C 0.3972(6) 0.8578(4) 0.4565(4)
C11 C 0.5156(6) 0.9349(4) 0.5055(4)
C12 C 0.0797(7) 1.0803(4) 0.3298(4)
Gd1A Gd -0.21506(2) 1.396245(15) -0.211972(14)
Gd1_2 Gd -0.78494(2) 0.603755(15) 0.211972(14)
Gd1A_2 Gd 0.78494(2) 1.396245(15) -0.211972(14)
Gd1A_3 Gd 0.78494(2) 1.396245(15) 0.788028(14)
S1A S -0.27880(14) 1.24506(8) 0.09461(8)
S2A S 0.57458(15) 1.30565(9) 0.54169(8)
O1A O -0.6453(4) 0.8135(3) 0.1701(3)
O1_2 O -0.3547(4) 1.1865(3) -0.1701(3)
O1A_2 O 0.3547(4) 0.8135(3) 0.1701(3)
O2A O -0.4342(4) 0.6650(3) 0.1294(3)
O2_2 O -0.5658(4) 1.3350(3) -0.1294(3)
O2A_2 O 0.5658(4) 0.6650(3) 0.1294(3)
O3A O -0.2217(5) 1.3228(3) -0.0142(3)
O4A O -0.1674(5) 1.2822(3) 0.1745(3)
O5A O -0.4894(5) 1.2429(3) 0.1412(3)
O6A O 0.9403(6) 0.7984(3) 0.6788(4)
H1A H 1.0210 0.7796 0.7167
O7A O 1.0128(6) 0.9884(3) 0.7116(4)
O8A O 0.7009(5) 1.3463(3) 0.6120(3)
O8A_2 O -0.2991(5) 1.3463(3) -0.3880(3)
O9A O 0.6430(5) 1.3573(3) 0.4231(3)
O10A O 0.3698(5) 1.3277(3) 0.5870(4)
O11A O 0.0984(5) 1.4607(3) -0.1665(3)
H2A H 0.2061 1.4235 -0.1702
H3A H 0.1266 1.5378 -0.1762
O12A O -0.2661(5) 1.5669(3) -0.0923(3)
H4A H -0.3263 1.6336 -0.1023
H5A H -0.2575 1.5548 -0.0229
O13A O -0.0024(5) 1.5165(4) -0.3778(3)
H6A H 0.1155 1.5430 -0.3894
H7A H -0.0012 1.5142 -0.4482
O14A O -0.4031(6) 1.5630(3) -0.2827(3)
H8A H -0.4279 1.6288 -0.2498
H9A H -0.4536 1.5667 -0.3405
O15A O 0.0308(5) 1.2476(3) -0.2696(3)
H10A H 0.1372 1.2713 -0.3174
H11A H 0.0122 1.1696 -0.2635
C1A C -0.1311(6) 0.8458(4) 0.0295(3)
H12A H -0.1051 0.7637 0.0167
C2A C -0.3150(6) 0.8764(4) 0.0862(3)
C3A C -0.3586(6) 1.0011(4) 0.1048(4)
H13A H -0.4844 1.0218 0.1422
C4A C -0.2149(6) 1.0908(3) 0.0674(3)
C5A C -0.0201(6) 1.0628(3) 0.0100(3)
C6A C -0.4748(6) 0.7797(4) 0.1314(3)
C6_2 C -0.5252(6) 1.2203(4) -0.1314(3)
C6A_2 C 0.5252(6) 0.7797(4) 0.1314(3)
C7A C 0.6599(7) 0.8859(4) 0.5633(4)
H14A H 0.6785 0.8009 0.5719
C8A C 0.7704(7) 0.9649(4) 0.6058(4)
C9A C 0.7430(6) 1.0929(4) 0.5947(4)
H15A H 0.8219 1.1449 0.6228
C10A C 0.6028(6) 1.1422(4) 0.5435(4)
C11A C 0.4844(6) 1.0651(4) 0.4945(4)
C12A C 0.9203(7) 0.9197(4) 0.6702(4)
loop_
_geom_bond_atom_site_label_1
_geom_bond_atom_site_label_2
_geom_bond_site_symmetry_1
_geom_bond_site_symmetry_2
Gd1 O3 1_555 1_555
S1 O3 1_555 1_555
S2 O8 1_555 1_555
O1 C6 1_555 1_555
O2 C6 1_555 1_555
O4 S1 1_555 1_555
O5 S1 1_555 1_555
O6 H1 1_555 1_555
O7 C12 1_555 1_555
O8 Gd1 1_555 1_555
O9 S2 1_555 1_555
O10 S2 1_555 1_555
O11 Gd1 1_555 1_555
H2 O11 1_555 1_555
H3 O11 1_555 1_555
O12 Gd1 1_555 1_555
H4 O12 1_555 1_555
H5 O12 1_555 1_555
O13 Gd1 1_555 1_555
H6 O13 1_555 1_555
H7 O13 1_555 1_555
O14 Gd1 1_555 1_555
H8 O14 1_555 1_555
H9 O14 1_555 1_555
O15 Gd1 1_555 1_555
H10 O15 1_555 1_555
H11 O15 1_555 1_555
C1 H12 1_555 1_555
C2 C1 1_555 1_555
C3 C2 1_555 1_555
H13 C3 1_555 1_555
C4 S1 1_555 1_555
C5 C4 1_555 1_555
C6 C2 1_555 1_555
C7 H14 1_555 1_555
C8 C7 1_555 1_555
C9 C8 1_555 1_555
H15 C9 1_555 1_555
C10 S2 1_555 1_555
C11 C10 1_555 1_555
C12 O6 1_555 1_555
Gd1A O1_2 1_555 1_555
Gd1_2 O1A 1_555 1_555
Gd1A_2 O1 1_555 1_555
Gd1A_3 O8A 1_555 1_555
S1A O3A 1_555 1_555
S2A O8A 1_555 1_555
O1A C6A 1_555 1_555
O1_2 C6_2 1_555 1_555
O1A_2 Gd1 1_555 1_555
O2A Gd1_2 1_555 1_555
O2_2 Gd1A 1_555 1_555
O2A_2 Gd1 1_555 1_555
O3A Gd1A 1_555 1_555
O4A S1A 1_555 1_555
O5A S1A 1_555 1_555
O6A H1A 1_555 1_555
O7A C12A 1_555 1_555
O8A_2 Gd1A 1_555 1_555
O9A S2A 1_555 1_555
O10A S2A 1_555 1_555
O11A Gd1A 1_555 1_555
H2A O11A 1_555 1_555
H3A O11A 1_555 1_555
O12A Gd1A 1_555 1_555
H4A O12A 1_555 1_555
H5A O12A 1_555 1_555
O13A Gd1A 1_555 1_555
H6A O13A 1_555 1_555
H7A O13A 1_555 1_555
O14A Gd1A 1_555 1_555
H8A O14A 1_555 1_555
H9A O14A 1_555 1_555
O15A Gd1A 1_555 1_555
H10A O15A 1_555 1_555
H11A O15A 1_555 1_555
C1A C5 1_555 1_555
H12A C1A 1_555 1_555
C2A C1A 1_555 1_555
C3A C2A 1_555 1_555
H13A C3A 1_555 1_555
C4A S1A 1_555 1_555
C5A C1 1_555 1_555
C6A O2A 1_555 1_555
C6_2 O2_2 1_555 1_555
C6A_2 O1A_2 1_555 1_555
C7A C11 1_555 1_555
H14A C7A 1_555 1_555
C8A C7A 1_555 1_555
C9A C8A 1_555 1_555
H15A C9A 1_555 1_555
C10A S2A 1_555 1_555
C11A C7 1_555 1_555
C12A O6A 1_555 1_555
O2 Gd1A_2 1_555 1_555
C3 C4 1_555 1_555
C5 C5A 1_555 1_555
C8 C12 1_555 1_555
C9 C10 1_555 1_555
C11 C11A 1_555 1_555
O2A_2 C6A_2 1_555 1_555
C2A C6A 1_555 1_555
C3A C4A 1_555 1_555
C4A C5A 1_555 1_555
C8A C12A 1_555 1_555
C9A C10A 1_555 1_555
C10A C11A 1_555 1_555

#END
