
#######################################################################
#
#                 Cambridge Crystallographic Data Centre
#                                CCDC 
#
#######################################################################
#
# If this CIF has been generated from an entry in the Cambridge 
# Structural Database, then it will include bibliographic, chemical, 
# crystal, experimental, refinement or atomic coordinate data resulting 
# from the CCDC's data processing and validation procedures.
#
#######################################################################

data_CAYNUN
_symmetry_cell_setting           monoclinic
_symmetry_space_group_name_H-M   'C 2'
_symmetry_Int_Tables_number      5
_space_group_name_Hall           'C 2y'
loop_
_symmetry_equiv_pos_site_id
_symmetry_equiv_pos_as_xyz
1 x,y,z
2 -x,y,-z
3 1/2+x,1/2+y,z
4 1/2-x,1/2+y,-z
_cell_length_a                   19.025(4)
_cell_length_b                   7.3399(12)
_cell_length_c                   16.552(3)
_cell_angle_alpha                90
_cell_angle_beta                 119.304(3)
_cell_angle_gamma                90
_cell_volume                     2015.58
loop_
_atom_site_label
_atom_site_type_symbol
_atom_site_fract_x
_atom_site_fract_y
_atom_site_fract_z
Cd1 Cd 1.0000 0.17020(7) 1.5000
Cd2 Cd 0.347284(17) 0.32960(4) 0.64197(2)
O1 O 0.3917(3) 0.6129(8) 0.6333(5)
O3 O 0.4632(2) 0.1909(6) 0.6251(3)
O4 O 0.8517(3) 0.1167(8) 1.3558(3)
O5 O 0.4734(3) 0.2615(8) 0.7582(3)
O6 O 0.9188(3) 0.3864(8) 1.5107(3)
O7 O 1.0000 -0.1390(10) 1.5000
O8 O 0.9628(2) 0.1475(7) 1.3495(3)
O9 O 0.7243(2) 0.0052(6) 0.6260(2)
O10 O 0.2885(3) 0.0560(6) 0.6484(3)
O11 O 0.8256(2) -0.0730(7) 0.7608(3)
O12 O 0.2714(3) 0.2919(6) 0.4863(3)
C1 C 0.7570(3) -0.0072(7) 0.7129(3)
C2 C 0.7150(3) 0.1050(7) 0.9086(4)
C3 C 0.7192(3) 0.0701(8) 1.0618(3)
H3 H 0.6645 0.0426 1.0304
C4 C 0.8407(3) 0.1150(7) 1.2063(3)
C5 C 0.8820(3) 0.1501(9) 1.1566(3)
H4 H 0.9367 0.1773 1.1887
C6 C 0.7125(3) 0.0535(6) 0.7627(3)
C7 C 0.6321(3) 0.1032(7) 0.7138(3)
H5 H 0.6054 0.1056 0.6494
C8 C 0.7580(3) 0.1056(7) 1.0118(4)
C9 C 0.7601(4) 0.0746(9) 1.1585(4)
H6 H 0.7325 0.0500 1.1906
C10 C 0.8418(3) 0.1444(9) 1.0598(4)
H7 H 0.8695 0.1657 1.0274
C11 C 0.8862(3) 0.1251(7) 1.3087(3)
C12 C 0.6325(3) 0.1543(7) 0.8575(3)
H8 H 0.6056 0.1904 0.8890
C13 C 0.5045(3) 0.2021(7) 0.7120(4)
C14 C 0.5911(3) 0.1500(7) 0.7618(4)
C15 C 0.7531(3) 0.0546(7) 0.8593(4)
H9 H 0.8071 0.0207 0.8912
Cd2A Cd 1.652716(17) 0.32960(4) 2.35803(2)
Cd2B Cd 0.847284(17) -0.17040(4) 0.64197(2)
Cd2C Cd 1.152716(17) -0.17040(4) 2.35803(2)
O1A O 1.6083(3) 0.6129(8) 2.3667(5)
O3A O 1.5368(2) 0.1909(6) 2.3749(3)
O4A O 1.1483(3) 0.1167(8) 1.6442(3)
O5A O 1.5266(3) 0.2615(8) 2.2418(3)
O6A O 1.0812(3) 0.3864(8) 1.4893(3)
O8A O 1.0372(2) 0.1475(7) 1.6505(3)
O9A O 1.2757(2) 0.0052(6) 2.3740(2)
O9B O 0.2243(2) 0.5052(6) 0.6260(2)
O9C O 1.7757(2) 0.5052(6) 2.3740(2)
O10A O 1.7115(3) 0.0560(6) 2.3516(3)
O11A O 1.1744(2) -0.0730(7) 2.2392(3)
O11B O 0.3256(2) 0.4270(7) 0.7608(3)
O11C O 1.6744(2) 0.4270(7) 2.2392(3)
O12A O 1.7286(3) 0.2919(6) 2.5137(3)
C1A C 1.2430(3) -0.0072(7) 2.2871(3)
C2A C 1.2850(3) 0.1050(7) 2.0914(4)
C3A C 1.2808(3) 0.0701(8) 1.9382(3)
H3A H 1.3355 0.0426 1.9696
C4A C 1.1593(3) 0.1150(7) 1.7937(3)
C5A C 1.1180(3) 0.1501(9) 1.8434(3)
H4A H 1.0633 0.1773 1.8113
C6A C 1.2875(3) 0.0535(6) 2.2373(3)
C7A C 1.3679(3) 0.1032(7) 2.2862(3)
H5A H 1.3946 0.1056 2.3506
C8A C 1.2420(3) 0.1056(7) 1.9882(4)
C9A C 1.2399(4) 0.0746(9) 1.8415(4)
H6A H 1.2675 0.0500 1.8094
C10A C 1.1582(3) 0.1444(9) 1.9402(4)
H7A H 1.1305 0.1657 1.9726
C11A C 1.1138(3) 0.1251(7) 1.6913(3)
C12A C 1.3675(3) 0.1543(7) 2.1425(3)
H8A H 1.3944 0.1904 2.1110
C13A C 1.4955(3) 0.2021(7) 2.2880(4)
C14A C 1.4089(3) 0.1500(7) 2.2382(4)
C15A C 1.2469(3) 0.0546(7) 2.1407(4)
H9A H 1.1929 0.0207 2.1088
O2 O 0.3988(6) -0.1401(13) 0.7843(6)
H1 H 0.4360 -0.2094 0.7878
H2 H 0.3720 -0.1702 0.8109
loop_
_geom_bond_atom_site_label_1
_geom_bond_atom_site_label_2
_geom_bond_site_symmetry_1
_geom_bond_site_symmetry_2
Cd1 O4 1_555 1_555
Cd2 O1 1_555 1_555
O2 H1 1_555 1_555
H2 O2 1_555 1_555
O3 Cd2 1_555 1_555
O4 C11 1_555 1_555
O5 Cd2 1_555 1_555
O6 Cd1 1_555 1_555
O7 Cd1 1_555 1_555
O8 Cd1 1_555 1_555
O9 C1 1_555 1_555
O10 Cd2 1_555 1_555
O11 C1 1_555 1_555
O12 Cd2 1_555 1_555
C1 C6 1_555 1_555
C2 C8 1_555 1_555
C3 H3 1_555 1_555
C4 C5 1_555 1_555
C5 H4 1_555 1_555
C6 C7 1_555 1_555
C7 H5 1_555 1_555
C8 C3 1_555 1_555
C9 C3 1_555 1_555
H6 C9 1_555 1_555
C10 C5 1_555 1_555
H7 C10 1_555 1_555
C11 O8 1_555 1_555
C12 C2 1_555 1_555
H8 C12 1_555 1_555
C13 O3 1_555 1_555
C14 C7 1_555 1_555
C15 C2 1_555 1_555
H9 C15 1_555 1_555
Cd2A O1A 1_555 1_555
Cd2B O9 1_555 1_555
Cd2C O9A 1_555 1_555
O3A Cd2A 1_555 1_555
O4A Cd1 1_555 1_555
O5A Cd2A 1_555 1_555
O6A Cd1 1_555 1_555
O8A Cd1 1_555 1_555
O9A C1A 1_555 1_555
O9B Cd2 1_555 1_555
O9C Cd2A 1_555 1_555
O10A Cd2A 1_555 1_555
O11A Cd2C 1_555 1_555
O11B Cd2 1_555 1_555
O11C Cd2A 1_555 1_555
O12A Cd2A 1_555 1_555
C1A O11A 1_555 1_555
C2A C8A 1_555 1_555
C3A H3A 1_555 1_555
C4A C5A 1_555 1_555
C5A H4A 1_555 1_555
C6A C1A 1_555 1_555
C7A C6A 1_555 1_555
H5A C7A 1_555 1_555
C8A C3A 1_555 1_555
C9A C3A 1_555 1_555
H6A C9A 1_555 1_555
C10A C5A 1_555 1_555
H7A C10A 1_555 1_555
C11A O4A 1_555 1_555
C12A C2A 1_555 1_555
H8A C12A 1_555 1_555
C13A O3A 1_555 1_555
C14A C7A 1_555 1_555
C15A C2A 1_555 1_555
H9A C15A 1_555 1_555
O5 C13 1_555 1_555
O11 Cd2B 1_555 1_555
C4 C9 1_555 1_555
C4 C11 1_555 1_555
C6 C15 1_555 1_555
C8 C10 1_555 1_555
C12 C14 1_555 1_555
C13 C14 1_555 1_555
O5A C13A 1_555 1_555
O8A C11A 1_555 1_555
C4A C9A 1_555 1_555
C4A C11A 1_555 1_555
C6A C15A 1_555 1_555
C8A C10A 1_555 1_555
C12A C14A 1_555 1_555
C13A C14A 1_555 1_555

#END
