
#######################################################################
#
#                 Cambridge Crystallographic Data Centre
#                                CCDC 
#
#######################################################################
#
# If this CIF has been generated from an entry in the Cambridge 
# Structural Database, then it will include bibliographic, chemical, 
# crystal, experimental, refinement or atomic coordinate data resulting 
# from the CCDC's data processing and validation procedures.
#
#######################################################################

data_CAYROK
_symmetry_cell_setting           rhombohedral
_symmetry_space_group_name_H-M   'R -3'
_symmetry_Int_Tables_number      148
_space_group_name_Hall           '-R 3'
loop_
_symmetry_equiv_pos_site_id
_symmetry_equiv_pos_as_xyz
1 x,y,z
2 -y,x-y,z
3 -x+y,-x,z
4 2/3+x,1/3+y,1/3+z
5 2/3-y,1/3+x-y,1/3+z
6 2/3-x+y,1/3-x,1/3+z
7 1/3+x,2/3+y,2/3+z
8 1/3-y,2/3+x-y,2/3+z
9 1/3-x+y,2/3-x,2/3+z
10 -x,-y,-z
11 y,-x+y,-z
12 x-y,x,-z
13 1/3-x,2/3-y,2/3-z
14 1/3+y,2/3-x+y,2/3-z
15 1/3+x-y,2/3+x,2/3-z
16 2/3-x,1/3-y,1/3-z
17 2/3+y,1/3-x+y,1/3-z
18 2/3+x-y,1/3+x,1/3-z
_cell_length_a                   33.0734(5)
_cell_length_b                   33.0734(5)
_cell_length_c                   9.2921(4)
_cell_angle_alpha                90
_cell_angle_beta                 90
_cell_angle_gamma                120.00
_cell_volume                     8802.42
loop_
_atom_site_label
_atom_site_type_symbol
_atom_site_fract_x
_atom_site_fract_y
_atom_site_fract_z
Zn1 Zn 0.5000 0.0000 0.0000
N1 N 0.53443(5) 0.00112(5) 0.18811(14)
N2 N 0.49868(5) 0.05828(5) 0.07218(14)
C1 C 0.55507(6) -0.02547(6) 0.21164(18)
C2 C 0.58403(7) -0.00884(7) 0.33905(19)
H1 H 0.6017 -0.0215 0.3795
C3 C 0.58122(6) 0.02795(6) 0.38969(19)
H2 H 0.5965 0.0461 0.4723
C4 C 0.55034(6) 0.03451(6) 0.29388(17)
C5 C 0.54081(6) 0.07159(6) 0.30285(17)
C6 C 0.51559(6) 0.08139(6) 0.20018(18)
C7 C 0.50210(6) 0.11662(6) 0.2157(2)
H3 H 0.5096 0.1377 0.2940
C8 C 0.47691(6) 0.11397(6) 0.0982(2)
H4 H 0.4634 0.1328 0.0780
C9 C 0.47440(6) 0.07694(6) 0.00851(18)
C10 C 0.55048(6) -0.06177(6) 0.12196(18)
C11 C 0.55990(6) 0.10397(6) 0.42929(18)
C12 C 0.59299(7) 0.15097(7) 0.4089(2)
H5 H 0.6040 0.1622 0.3147
C13 C 0.60992(9) 0.18140(8) 0.5253(3)
H6 H 0.6324 0.2133 0.5103
C14 C 0.59407(9) 0.16532(8) 0.6627(2)
H7 H 0.6056 0.1862 0.7420
C15 C 0.56151(8) 0.11894(8) 0.6845(2)
H8 H 0.5505 0.1079 0.7790
C16 C 0.54471(7) 0.08828(7) 0.56817(19)
H9 H 0.5226 0.0563 0.5841
C17 C 0.57613(6) -0.08647(6) 0.16617(18)
C18 C 0.61662(6) -0.07821(7) 0.0961(2)
H10 H 0.6292 -0.0558 0.0209
C19 C 0.63852(6) -0.10283(7) 0.13629(19)
H11 H 0.6662 -0.0968 0.0870
N3 N 0.62251(5) -0.13471(5) 0.24114(16)
C20 C 0.58357(6) -0.14249(7) 0.3089(2)
H12 H 0.5718 -0.1651 0.3837
C21 C 0.55965(7) -0.11932(7) 0.2758(2)
H13 H 0.5323 -0.1258 0.3275
Zn1D Zn 0.6667 -0.1667 0.3333
Zn1M Zn 0.3333 0.1667 -0.3333
N1I N 0.46557(5) -0.00112(5) -0.18811(14)
N2I N 0.50132(5) -0.05828(5) -0.07218(14)
C1I C 0.44493(6) 0.02547(6) -0.21164(18)
C2I C 0.41597(7) 0.00884(7) -0.33905(19)
H1I H 0.3983 0.0215 -0.3795
C3I C 0.41878(6) -0.02795(6) -0.38969(19)
H2I H 0.4035 -0.0461 -0.4723
C4I C 0.44966(6) -0.03451(6) -0.29388(17)
C5I C 0.45919(6) -0.07159(6) -0.30285(17)
C6I C 0.48441(6) -0.08139(6) -0.20018(18)
C7I C 0.49790(6) -0.11662(6) -0.2157(2)
H3I H 0.4904 -0.1377 -0.2940
C8I C 0.52309(6) -0.11397(6) -0.0982(2)
H4I H 0.5366 -0.1328 -0.0780
C9I C 0.52560(6) -0.07694(6) -0.00851(18)
C10I C 0.44952(6) 0.06177(6) -0.12196(18)
C11I C 0.44010(6) -0.10397(6) -0.42929(18)
C12I C 0.40701(7) -0.15097(7) -0.4089(2)
H5I H 0.3960 -0.1622 -0.3147
C13I C 0.39008(9) -0.18140(8) -0.5253(3)
H6I H 0.3676 -0.2133 -0.5103
C14I C 0.40593(9) -0.16532(8) -0.6627(2)
H7I H 0.3944 -0.1862 -0.7420
C15I C 0.43849(8) -0.11894(8) -0.6845(2)
H8I H 0.4495 -0.1079 -0.7790
C16I C 0.45529(7) -0.08828(7) -0.56817(19)
H9I H 0.4774 -0.0563 -0.5841
C17I C 0.42387(6) 0.08647(6) -0.16617(18)
C18I C 0.38338(6) 0.07821(7) -0.0961(2)
H10I H 0.3708 0.0558 -0.0209
C19I C 0.36148(6) 0.10283(7) -0.13629(19)
H11I H 0.3338 0.0968 -0.0870
N3I N 0.37749(5) 0.13471(5) -0.24114(16)
N3Q N 0.42389(7) -0.04416(5) 0.09219(16)
N3H N 0.57611(7) 0.04416(5) -0.09219(16)
C20I C 0.41643(6) 0.14249(7) -0.3089(2)
H12I H 0.4282 0.1651 -0.3837
C21I C 0.44035(7) 0.11932(7) -0.2758(2)
H13I H 0.4677 0.1258 -0.3275
loop_
_geom_bond_atom_site_label_1
_geom_bond_atom_site_label_2
_geom_bond_site_symmetry_1
_geom_bond_site_symmetry_2
Zn1 N1 1_555 1_555
N1 C1 1_555 1_555
N2 Zn1 1_555 1_555
C1 C2 1_555 1_555
C2 H1 1_555 1_555
C3 C2 1_555 1_555
H2 C3 1_555 1_555
C4 N1 1_555 1_555
C5 C4 1_555 1_555
C6 N2 1_555 1_555
C7 C6 1_555 1_555
H3 C7 1_555 1_555
C8 C7 1_555 1_555
H4 C8 1_555 1_555
C9 N2 1_555 1_555
C10 C1 1_555 1_555
C11 C5 1_555 1_555
C12 C11 1_555 1_555
H5 C12 1_555 1_555
C13 C12 1_555 1_555
H6 C13 1_555 1_555
C14 C13 1_555 1_555
H7 C14 1_555 1_555
C15 C14 1_555 1_555
H8 C15 1_555 1_555
C16 C11 1_555 1_555
H9 C16 1_555 1_555
C17 C10 1_555 1_555
C18 C17 1_555 1_555
H10 C18 1_555 1_555
C19 C18 1_555 1_555
H11 C19 1_555 1_555
N3 C19 1_555 1_555
C20 N3 1_555 1_555
H12 C20 1_555 1_555
C21 C17 1_555 1_555
H13 C21 1_555 1_555
Zn1D N3 1_555 1_555
Zn1M N3I 1_555 1_555
N1I Zn1 1_555 1_555
N2I Zn1 1_555 1_555
C1I N1I 1_555 1_555
C2I C1I 1_555 1_555
H1I C2I 1_555 1_555
C3I C2I 1_555 1_555
H2I C3I 1_555 1_555
C4I N1I 1_555 1_555
C5I C4I 1_555 1_555
C6I N2I 1_555 1_555
C7I C6I 1_555 1_555
H3I C7I 1_555 1_555
C8I C7I 1_555 1_555
H4I C8I 1_555 1_555
C9I C10 1_555 1_555
C10I C9 1_555 1_555
C11I C5I 1_555 1_555
C12I C11I 1_555 1_555
H5I C12I 1_555 1_555
C13I C12I 1_555 1_555
H6I C13I 1_555 1_555
C14I C13I 1_555 1_555
H7I C14I 1_555 1_555
C15I C14I 1_555 1_555
H8I C15I 1_555 1_555
C16I C11I 1_555 1_555
H9I C16I 1_555 1_555
C17I C10I 1_555 1_555
C18I C17I 1_555 1_555
H10I C18I 1_555 1_555
C19I C18I 1_555 1_555
H11I C19I 1_555 1_555
N3I C19I 1_555 1_555
N3Q Zn1 1_555 1_555
N3H Zn1 1_555 1_555
C20I N3I 1_555 1_555
H12I C20I 1_555 1_555
C21I C17I 1_555 1_555
H13I C21I 1_555 1_555
C3 C4 1_555 1_555
C5 C6 1_555 1_555
C8 C9 1_555 1_555
C15 C16 1_555 1_555
C20 C21 1_555 1_555
N2I C9I 1_555 1_555
C1I C10I 1_555 1_555
C3I C4I 1_555 1_555
C5I C6I 1_555 1_555
C8I C9I 1_555 1_555
C15I C16I 1_555 1_555
C20I C21I 1_555 1_555

#END
