
#######################################################################
#
#                 Cambridge Crystallographic Data Centre
#                                CCDC 
#
#######################################################################
#
# If this CIF has been generated from an entry in the Cambridge 
# Structural Database, then it will include bibliographic, chemical, 
# crystal, experimental, refinement or atomic coordinate data resulting 
# from the CCDC's data processing and validation procedures.
#
#######################################################################

data_CAYSEB01
_symmetry_cell_setting           monoclinic
_symmetry_space_group_name_H-M   'P 21/c'
_symmetry_Int_Tables_number      14
_space_group_name_Hall           '-P 2ybc'
loop_
_symmetry_equiv_pos_site_id
_symmetry_equiv_pos_as_xyz
1 x,y,z
2 -x,1/2+y,1/2-z
3 -x,-y,-z
4 x,1/2-y,1/2+z
_cell_length_a                   10.3405(9)
_cell_length_b                   10.0948(6)
_cell_length_c                   12.1549(6)
_cell_angle_alpha                90
_cell_angle_beta                 109.317(4)
_cell_angle_gamma                90
_cell_volume                     1197.36
loop_
_atom_site_label
_atom_site_type_symbol
_atom_site_fract_x
_atom_site_fract_y
_atom_site_fract_z
Zn1 Zn -0.00185(4) 0.93360(3) 0.14066(3)
N1 N -0.1656(3) 0.9434(2) -0.00560(19)
N2 N -0.1582(3) 0.9816(2) -0.1097(2)
N3 N -0.2757(3) 0.9679(3) -0.1955(2)
N4 N 0.0474(3) 0.7433(2) 0.16968(19)
N5 N 0.0068(3) 0.6733(3) 0.2454(2)
N6 N 0.0428(3) 0.5459(2) 0.24179(19)
C1 C -0.3652(3) 0.9162(3) -0.1467(3)
C2 C -0.5033(4) 0.8784(4) -0.1963(3)
H1 H -0.5499 0.8880 -0.2757
C3 C -0.5657(4) 0.8275(4) -0.1237(3)
H2 H -0.6568 0.8009 -0.1544
C4 C -0.4966(4) 0.8137(4) -0.0029(3)
H3 H -0.5436 0.7785 0.0436
C5 C -0.3632(4) 0.8503(3) 0.0477(3)
H4 H -0.3187 0.8418 0.1275
C6 C -0.2966(3) 0.9013(3) -0.0263(3)
C7 C 0.1095(3) 0.5341(3) 0.1613(2)
C8 C 0.1663(3) 0.4245(3) 0.1233(2)
H5 H 0.1643 0.3402 0.1536
C9 C 0.2246(3) 0.4477(3) 0.0396(3)
H6 H 0.2645 0.3776 0.0130
C10 C 0.2262(4) 0.5755(4) -0.0080(3)
H7 H 0.2660 0.5868 -0.0657
C11 C 0.1709(3) 0.6825(3) 0.0287(2)
H8 H 0.1720 0.7664 -0.0026
C12 C 0.1124(3) 0.6600(3) 0.1158(2)
Zn1B Zn 0.00185(4) 1.06640(3) -0.14066(3)
Zn1A Zn 0.00185(4) 0.43360(3) 0.35934(3)
N2B N 0.1582(3) 1.0184(2) 0.1097(2)
N6A N -0.0428(3) 1.0459(2) 0.25821(19)
loop_
_geom_bond_atom_site_label_1
_geom_bond_atom_site_label_2
_geom_bond_site_symmetry_1
_geom_bond_site_symmetry_2
Zn1 N1 1_555 1_555
N1 N2 1_555 1_555
N2 N3 1_555 1_555
N3 C1 1_555 1_555
N4 Zn1 1_555 1_555
N5 N4 1_555 1_555
N6 N5 1_555 1_555
C1 C2 1_555 1_555
C2 H1 1_555 1_555
C3 C2 1_555 1_555
H2 C3 1_555 1_555
C4 C3 1_555 1_555
H3 C4 1_555 1_555
C5 C4 1_555 1_555
H4 C5 1_555 1_555
C6 N1 1_555 1_555
C7 N6 1_555 1_555
C8 C7 1_555 1_555
H5 C8 1_555 1_555
C9 C8 1_555 1_555
H6 C9 1_555 1_555
C10 C9 1_555 1_555
H7 C10 1_555 1_555
C11 C10 1_555 1_555
H8 C11 1_555 1_555
C12 N4 1_555 1_555
Zn1B N2 1_555 1_555
Zn1A N6 1_555 1_555
N2B Zn1 1_555 1_555
N6A Zn1 1_555 1_555
C1 C6 1_555 1_555
C5 C6 1_555 1_555
C7 C12 1_555 1_555
C11 C12 1_555 1_555

#END
