
#######################################################################
#
#                 Cambridge Crystallographic Data Centre
#                                CCDC 
#
#######################################################################
#
# If this CIF has been generated from an entry in the Cambridge 
# Structural Database, then it will include bibliographic, chemical, 
# crystal, experimental, refinement or atomic coordinate data resulting 
# from the CCDC's data processing and validation procedures.
#
#######################################################################

data_CAYSOL
_symmetry_cell_setting           orthorhombic
_symmetry_space_group_name_H-M   'F d d 2'
_symmetry_Int_Tables_number      43
_space_group_name_Hall           'F 2 -2d'
loop_
_symmetry_equiv_pos_site_id
_symmetry_equiv_pos_as_xyz
1 x,y,z
2 -x,-y,z
3 1/4+x,1/4-y,1/4+z
4 1/4-x,1/4+y,1/4+z
5 x,1/2+y,1/2+z
6 -x,1/2-y,1/2+z
7 1/4+x,3/4-y,3/4+z
8 1/4-x,3/4+y,3/4+z
9 1/2+x,y,1/2+z
10 1/2-x,-y,1/2+z
11 3/4+x,1/4-y,3/4+z
12 3/4-x,1/4+y,3/4+z
13 1/2+x,1/2+y,z
14 1/2-x,1/2-y,z
15 3/4+x,3/4-y,1/4+z
16 3/4-x,3/4+y,1/4+z
_cell_length_a                   14.754(3)
_cell_length_b                   23.596(4)
_cell_length_c                   9.2730(17)
_cell_angle_alpha                90
_cell_angle_beta                 90
_cell_angle_gamma                90
_cell_volume                     3228.26
loop_
_atom_site_label
_atom_site_type_symbol
_atom_site_fract_x
_atom_site_fract_y
_atom_site_fract_z
C3 C -0.068(2) 0.0002(13) -0.554(3)
C4 C -0.092(4) 0.0260(19) -0.689(5)
N1 N -0.1277(18) 0.0580(8) -0.805(3)
O6 O -0.0478(14) 0.1626(7) -0.718(3)
Fe1 Fe 0.17543(6) -0.19551(4) 0.66387(11)
Cl1 Cl 0.06554(12) -0.25472(8) 0.5667(3)
O1 O 0.3368(3) -0.12431(19) 0.3585(5)
O2 O 0.3668(3) -0.07192(18) 0.6101(6)
O3 O -0.0176(3) -0.06955(19) 0.7157(5)
O4 O 0.2683(3) -0.13022(19) 0.7175(5)
O5 O 0.2500 -0.2500 0.7376(9)
C1 C 0.0432(4) -0.1091(3) 0.7175(9)
C2 C 0.3104(4) -0.1124(3) 0.6094(8)
Fe1F Fe 0.42543(6) -0.05449(4) 0.41387(11)
Fe1N Fe -0.07457(6) -0.05449(4) 0.91387(11)
Fe1M Fe 0.32457(6) -0.30449(4) 0.66387(11)
Cl1M Cl 0.43446(12) -0.24528(8) 0.5667(3)
O1N O 0.0868(3) -0.12569(19) 0.6085(5)
O1O O 0.4132(3) -0.37431(19) 0.6085(5)
O2N O 0.1168(3) -0.17808(18) 0.8601(6)
O2O O 0.3832(3) -0.32192(18) 0.8601(6)
O3F O 0.2324(3) -0.18045(19) 0.4657(5)
O3G O 0.2676(3) -0.31955(19) 0.4657(5)
O4N O 0.0183(3) -0.11978(19) 0.9675(5)
O4M O 0.2317(3) -0.36978(19) 0.7175(5)
C1F C 0.2932(4) -0.1409(3) 0.4675(9)
C2N C 0.0604(4) -0.1376(3) 0.8594(8)
loop_
_geom_bond_atom_site_label_1
_geom_bond_atom_site_label_2
_geom_bond_site_symmetry_1
_geom_bond_site_symmetry_2
Fe1 Cl1 1_555 1_555
O1 Fe1F 1_555 1_555
O2 C2 1_555 1_555
O3 C1 1_555 1_555
O4 Fe1 1_555 1_555
O5 Fe1 1_555 1_555
C1 O1N 1_555 1_555
C2 O4 1_555 1_555
C3 C4 1_555 1_555
C4 N1 1_555 1_555
Fe1F O2 1_555 1_555
Fe1N O3 1_555 1_555
Fe1M O5 1_555 1_555
Cl1M Fe1M 1_555 1_555
O1N Fe1 1_555 1_555
O1O Fe1M 1_555 1_555
O2N Fe1 1_555 1_555
O2O Fe1M 1_555 1_555
O3F Fe1 1_555 1_555
O3G Fe1M 1_555 1_555
O4N Fe1N 1_555 1_555
O4M Fe1M 1_555 1_555
C1F O1 1_555 1_555
C2N C1 1_555 1_555
C2 C1F 1_555 1_555
O2N C2N 1_555 1_555
O3F C1F 1_555 1_555
O4N C2N 1_555 1_555

#END
