
#######################################################################
#
#                 Cambridge Crystallographic Data Centre
#                                CCDC 
#
#######################################################################
#
# If this CIF has been generated from an entry in the Cambridge 
# Structural Database, then it will include bibliographic, chemical, 
# crystal, experimental, refinement or atomic coordinate data resulting 
# from the CCDC's data processing and validation procedures.
#
#######################################################################

data_CAZKAR
_symmetry_cell_setting           orthorhombic
_symmetry_space_group_name_H-M   'P n m a'
_symmetry_Int_Tables_number      62
_space_group_name_Hall           '-P 2ac 2n'
loop_
_symmetry_equiv_pos_site_id
_symmetry_equiv_pos_as_xyz
1 x,y,z
2 1/2-x,-y,1/2+z
3 1/2+x,1/2-y,1/2-z
4 -x,1/2+y,-z
5 -x,-y,-z
6 1/2+x,y,1/2-z
7 1/2-x,1/2+y,1/2+z
8 x,1/2-y,z
_cell_length_a                   17.602(3)
_cell_length_b                   21.051(4)
_cell_length_c                   5.6783(10)
_cell_angle_alpha                90
_cell_angle_beta                 90
_cell_angle_gamma                90
_cell_volume                     2104.04
loop_
_atom_site_label
_atom_site_type_symbol
_atom_site_fract_x
_atom_site_fract_y
_atom_site_fract_z
Br1 Br -0.11057(3) 0.2500 0.18920(9)
C1 C -0.0432(2) 0.2500 0.4487(7)
C2 C -0.02081(17) 0.19298(15) 0.5447(5)
H1 H -0.0373 0.1549 0.4793
C3 C 0.02665(16) 0.19277(14) 0.7399(5)
C4 C 0.0504(2) 0.2500 0.8338(7)
H2 H 0.0829 0.2500 0.9627
C5 C 0.04772(16) 0.13077(14) 0.8635(5)
C6 C 0.1482(2) -0.03364(17) 0.7229(6)
H3 H 0.1328 -0.0146 0.5829
C7 C 0.2173(2) -0.05967(17) 0.7613(7)
H4 H 0.2575 -0.0618 0.6553
C8 C 0.14719(18) -0.06908(15) 1.0734(6)
H5 H 0.1317 -0.0799 1.2247
C9 C 0.27884(18) -0.11320(16) 1.1102(7)
H6 H 0.2787 -0.0993 1.2731
H7 H 0.3265 -0.0998 1.0405
C10 C 0.27480(16) -0.18417(15) 1.1045(6)
C11 C 0.24095(17) -0.21743(16) 1.2857(6)
H8 H 0.2180 -0.1955 1.4087
C12 C 0.30784(17) -0.21734(15) 0.9207(6)
H9 H 0.3301 -0.1954 0.7966
N1 N 0.10427(14) -0.03941(12) 0.9202(5)
N2 N 0.21625(14) -0.08200(12) 0.9855(5)
Ni1 Ni 0.0000 0.0000 1.0000
O1 O 0.01919(11) 0.08053(9) 0.7834(4)
O2 O 0.08969(14) 0.13455(10) 1.0344(4)
O3 O 0.05195(12) 0.04098(10) 1.2996(4)
H10 H 0.0196 0.0443 1.4088
H11 H 0.0687 0.0760 1.2666
C2G C -0.02081(17) 0.30702(15) 0.5447(5)
H1G H -0.0373 0.3451 0.4793
C3G C 0.02665(16) 0.30723(14) 0.7399(5)
C5G C 0.04772(16) 0.36923(14) 0.8635(5)
C6G C 0.1482(2) -0.46636(17) 0.7229(6)
H3G H 0.1328 -0.4854 0.5829
C7G C 0.2173(2) -0.44033(17) 0.7613(7)
H4G H 0.2575 -0.4382 0.6553
C8G C 0.14719(18) -0.43092(15) 1.0734(6)
H5G H 0.1317 -0.4201 1.2247
C9G C 0.27884(18) -0.38680(16) 1.1102(7)
H6G H 0.2787 -0.4007 1.2731
H7G H 0.3265 -0.4002 1.0405
C10G C 0.27480(16) -0.31583(15) 1.1045(6)
C11G C 0.24095(17) -0.28257(16) 1.2857(6)
H8G H 0.2180 -0.3045 1.4087
C12G C 0.30784(17) -0.28266(15) 0.9207(6)
H9G H 0.3301 -0.3046 0.7966
N1G N 0.10427(14) -0.46059(12) 0.9202(5)
N1D N -0.10427(14) 0.03941(12) 1.0798(5)
N2G N 0.21625(14) -0.41800(12) 0.9855(5)
Ni1C Ni 0.0000 -0.5000 1.0000
Ni1C_2 Ni 0.0000 0.5000 1.0000
O1G O 0.01919(11) 0.41947(9) 0.7834(4)
O1D O -0.01919(11) -0.08053(9) 1.2166(4)
O2G O 0.08969(14) 0.36545(10) 1.0344(4)
O3D O -0.05195(12) -0.04098(10) 0.7004(4)
H10D H -0.0196 -0.0443 0.5912
H11D H -0.0687 -0.0760 0.7334
loop_
_geom_bond_atom_site_label_1
_geom_bond_atom_site_label_2
_geom_bond_site_symmetry_1
_geom_bond_site_symmetry_2
Br1 C1 1_555 1_555
C1 C2 1_555 1_555
C2 H1 1_555 1_555
C3 C2 1_555 1_555
C4 C3 1_555 1_555
H2 C4 1_555 1_555
C5 C3 1_555 1_555
C6 H3 1_555 1_555
C7 C6 1_555 1_555
H4 C7 1_555 1_555
C8 H5 1_555 1_555
C9 H6 1_555 1_555
H7 C9 1_555 1_555
C10 C9 1_555 1_555
C11 C10 1_555 1_555
H8 C11 1_555 1_555
C12 C10 1_555 1_555
H9 C12 1_555 1_555
N1 C6 1_555 1_555
N2 C7 1_555 1_555
Ni1 N1 1_555 1_555
O1 C5 1_555 1_555
O2 C5 1_555 1_555
O3 Ni1 1_555 1_555
H10 O3 1_555 1_555
H11 O3 1_555 1_555
C2G C1 1_555 1_555
H1G C2G 1_555 1_555
C3G C4 1_555 1_555
C5G C3G 1_555 1_555
C6G H3G 1_555 1_555
C7G C6G 1_555 1_555
H4G C7G 1_555 1_555
C8G H5G 1_555 1_555
C9G H6G 1_555 1_555
H7G C9G 1_555 1_555
C10G C9G 1_555 1_555
C11G C11 1_555 1_555
H8G C11G 1_555 1_555
C12G C12 1_555 1_555
H9G C12G 1_555 1_555
N1G C6G 1_555 1_555
N1D Ni1 1_555 1_555
N2G C7G 1_555 1_555
Ni1C N1G 1_555 1_555
Ni1C_2 O1G 1_555 1_555
O1G C5G 1_555 1_555
O1D Ni1 1_555 1_555
O2G C5G 1_555 1_555
O3D Ni1 1_555 1_555
H10D O3D 1_555 1_555
H11D O3D 1_555 1_555
C8 N1 1_555 1_555
C8 N2 1_555 1_555
C9 N2 1_555 1_555
Ni1 O1 1_555 1_555
C2G C3G 1_555 1_555
C8G N1G 1_555 1_555
C8G N2G 1_555 1_555
C9G N2G 1_555 1_555
C10G C11G 1_555 1_555
C10G C12G 1_555 1_555

#END
