
#######################################################################
#
#                 Cambridge Crystallographic Data Centre
#                                CCDC 
#
#######################################################################
#
# If this CIF has been generated from an entry in the Cambridge 
# Structural Database, then it will include bibliographic, chemical, 
# crystal, experimental, refinement or atomic coordinate data resulting 
# from the CCDC's data processing and validation procedures.
#
#######################################################################

data_CAZLIZ
_symmetry_cell_setting           orthorhombic
_symmetry_space_group_name_H-M   'P b c a'
_symmetry_Int_Tables_number      61
_space_group_name_Hall           '-P 2ac 2ab'
loop_
_symmetry_equiv_pos_site_id
_symmetry_equiv_pos_as_xyz
1 x,y,z
2 1/2-x,-y,1/2+z
3 -x,1/2+y,1/2-z
4 1/2+x,1/2-y,-z
5 -x,-y,-z
6 1/2+x,y,1/2-z
7 x,1/2-y,1/2+z
8 1/2-x,1/2+y,z
_cell_length_a                   5.5894(4)
_cell_length_b                   10.2337(7)
_cell_length_c                   18.2337(8)
_cell_angle_alpha                90
_cell_angle_beta                 90
_cell_angle_gamma                90
_cell_volume                     1042.97
loop_
_atom_site_label
_atom_site_type_symbol
_atom_site_fract_x
_atom_site_fract_y
_atom_site_fract_z
Ag1 Ag 0.9745(2) 0.00633(12) 0.32075(7)
Ag2 Ag 1.5310(2) 0.17652(12) 0.31701(7)
O1 O 1.4072(17) -0.0360(9) 0.3157(5)
O2 O 1.3976(17) -0.2820(9) 0.3209(5)
O3 O 1.7648(16) -0.1604(9) 0.3685(5)
P1 P 1.4900(6) -0.1571(3) 0.3582(2)
C1 C 1.352(3) -0.1477(12) 0.4474(8)
H1 H 1.1833 -0.1669 0.4418
H2 H 1.4203 -0.2162 0.4777
C2 C 1.375(3) -0.0188(15) 0.4890(8)
H3 H 1.3094 0.0503 0.4587
H4 H 1.2776 -0.0241 0.5330
Ag1D Ag 2.0255(2) -0.00633(12) 0.67925(7)
Ag1E Ag 1.4745(2) 0.00633(12) 0.17925(7)
Ag1G Ag 1.5255(2) -0.49367(12) 0.32075(7)
Ag1_2 Ag 1.9745(2) 0.00633(12) 0.32075(7)
Ag1A Ag 1.5255(2) -0.00633(12) 0.82075(7)
Ag1C Ag 1.4745(2) 0.49367(12) 0.67925(7)
Ag1D_2 Ag 1.0255(2) -0.00633(12) 0.67925(7)
Ag2D Ag 1.4690(2) -0.17652(12) 0.68299(7)
Ag2G Ag 0.9690(2) -0.32348(12) 0.31701(7)
Ag2B Ag 1.4690(2) -0.32348(12) 0.18299(7)
Ag2G_2 Ag 1.9690(2) -0.32348(12) 0.31701(7)
Ag2F Ag 1.5310(2) 0.32348(12) 0.81701(7)
Ag2C Ag 2.0310(2) 0.32348(12) 0.68299(7)
Ag2C_2 Ag 1.0310(2) 0.32348(12) 0.68299(7)
O1D O 1.5928(17) 0.0360(9) 0.6843(5)
O1E O 0.9072(17) -0.0360(9) 0.1843(5)
O1A O 2.0928(17) 0.0360(9) 0.8157(5)
O2D O 1.6024(17) 0.2820(9) 0.6791(5)
O2G O 1.1024(17) 0.2180(9) 0.3209(5)
O2B O 1.6024(17) 0.2180(9) 0.1791(5)
O2C O 1.8976(17) -0.2180(9) 0.6791(5)
O2F O 1.3976(17) -0.2180(9) 0.8209(5)
O3D O 1.2352(16) 0.1604(9) 0.6315(5)
O3_2 O 0.7648(16) -0.1604(9) 0.3685(5)
O3G O 1.7352(16) 0.3396(9) 0.3685(5)
O3D_2 O 2.2352(16) 0.1604(9) 0.6315(5)
O3C O 1.2648(16) -0.3396(9) 0.6315(5)
P1D P 1.5100(6) 0.1571(3) 0.6418(2)
C1D C 1.648(3) 0.1477(12) 0.5526(8)
H1D H 1.8167 0.1669 0.5582
H2D H 1.5797 0.2162 0.5223
C2D C 1.625(3) 0.0188(15) 0.5110(8)
H3D H 1.6906 -0.0503 0.5413
H4D H 1.7224 0.0241 0.4670
loop_
_geom_bond_atom_site_label_1
_geom_bond_atom_site_label_2
_geom_bond_site_symmetry_1
_geom_bond_site_symmetry_2
Ag1 O1 1_555 1_555
Ag2 O1 1_555 1_555
O1 P1 1_555 1_555
O2 P1 1_555 1_555
O3 P1 1_555 1_555
P1 C1 1_555 1_555
C1 H1 1_555 1_555
H2 C1 1_555 1_555
C2 C1 1_555 1_555
H3 C2 1_555 1_555
H4 C2 1_555 1_555
Ag1D O1D 1_555 1_555
Ag1E O1 1_555 1_555
Ag1G O2 1_555 1_555
Ag1_2 O3 1_555 1_555
Ag1A O1D 1_555 1_555
Ag1C O2D 1_555 1_555
Ag1D_2 O3D 1_555 1_555
Ag2D O1D 1_555 1_555
Ag2G O2 1_555 1_555
Ag2B O2 1_555 1_555
Ag2G_2 O3 1_555 1_555
Ag2F O2D 1_555 1_555
Ag2C O2D 1_555 1_555
Ag2C_2 O3D 1_555 1_555
O1D P1D 1_555 1_555
O1E Ag1 1_555 1_555
O1A Ag1D 1_555 1_555
O2D P1D 1_555 1_555
O2G Ag1 1_555 1_555
O2B Ag2 1_555 1_555
O2C Ag1D 1_555 1_555
O2F Ag1A 1_555 1_555
O3D P1D 1_555 1_555
O3_2 Ag1 1_555 1_555
O3G Ag2 1_555 1_555
O3D_2 Ag1D 1_555 1_555
O3C Ag2D 1_555 1_555
P1D C1D 1_555 1_555
C1D H1D 1_555 1_555
H2D C1D 1_555 1_555
C2D C2 1_555 1_555
H3D C2D 1_555 1_555
H4D C2D 1_555 1_555
Ag2 O2G 1_555 1_555
Ag1E O2B 1_555 1_555
Ag2D O2C 1_555 1_555
Ag2D O2F 1_555 1_555
Ag2G O3_2 1_555 1_555
Ag2C O3D_2 1_555 1_555
C1D C2D 1_555 1_555

#END
