
#######################################################################
#
#                 Cambridge Crystallographic Data Centre
#                                CCDC 
#
#######################################################################
#
# If this CIF has been generated from an entry in the Cambridge 
# Structural Database, then it will include bibliographic, chemical, 
# crystal, experimental, refinement or atomic coordinate data resulting 
# from the CCDC's data processing and validation procedures.
#
#######################################################################

data_CAZLEV
_symmetry_cell_setting           triclinic
_symmetry_space_group_name_H-M   'P -1'
_symmetry_Int_Tables_number      2
_space_group_name_Hall           '-P 1'
loop_
_symmetry_equiv_pos_site_id
_symmetry_equiv_pos_as_xyz
1 x,y,z
2 -x,-y,-z
_cell_length_a                   4.6569(17)
_cell_length_b                   5.897(2)
_cell_length_c                   9.464(4)
_cell_angle_alpha                78.641(5)
_cell_angle_beta                 77.844(5)
_cell_angle_gamma                76.954(4)
_cell_volume                     244.447
loop_
_atom_site_label
_atom_site_type_symbol
_atom_site_fract_x
_atom_site_fract_y
_atom_site_fract_z
Ag1 Ag 0.20368(17) 0.22080(13) 0.55062(8)
P1 P 0.1654(5) 0.6549(4) 0.7233(3)
O1 O 0.4199(15) 0.4750(13) 0.7941(8)
H1 H 0.5288 0.3997 0.7323
O2 O -0.0317(14) 0.5155(13) 0.6798(9)
O3 O 0.3025(17) 0.8176(13) 0.5963(8)
C1 C -0.059(2) 0.8103(18) 0.8660(11)
H2 H -0.2138 0.9282 0.8247
H3 H -0.1579 0.6996 0.9392
C2 C 0.105(2) 0.9312(19) 0.9418(11)
H4 H 0.2098 1.0389 0.8693
H5 H 0.2532 0.8136 0.9881
Ag1A Ag -0.20368(17) 1.77920(13) 1.44938(8)
Ag1A_2 Ag -0.20368(17) 0.77920(13) 0.44938(8)
Ag1_2 Ag 0.20368(17) 1.22080(13) 0.55062(8)
Ag1A_3 Ag 0.79632(17) 0.77920(13) 0.44938(8)
Ag1_3 Ag 0.20368(17) 1.22080(13) 1.55062(8)
Ag1_4 Ag -0.79632(17) 1.22080(13) 1.55062(8)
Ag1A_4 Ag -0.20368(17) 0.77920(13) 1.44938(8)
P1A P -0.1654(5) 1.3451(4) 1.2767(3)
O1A O -0.4199(15) 1.5250(13) 1.2059(8)
H1A H -0.5288 1.6003 1.2677
O2A O 0.0317(14) 1.4845(13) 1.3202(9)
O2A_2 O 0.0317(14) 0.4845(13) 0.3202(9)
O2_2 O -0.0317(14) 1.5155(13) 1.6798(9)
O3A O -0.3025(17) 1.1824(13) 1.4037(8)
O3_2 O 0.3025(17) -0.1824(13) 0.5963(8)
O3A_2 O 0.6975(17) 0.1824(13) 0.4037(8)
O3_3 O -0.6975(17) 1.8176(13) 1.5963(8)
O3A_3 O -0.3025(17) 2.1824(13) 1.4037(8)
C1A C 0.059(2) 1.1897(18) 1.1340(11)
H2A H 0.2138 1.0718 1.1753
H3A H 0.1579 1.3004 1.0608
C2A C -0.105(2) 1.0688(19) 1.0582(11)
H4A H -0.2098 0.9611 1.1307
H5A H -0.2532 1.1864 1.0119
loop_
_geom_bond_atom_site_label_1
_geom_bond_atom_site_label_2
_geom_bond_site_symmetry_1
_geom_bond_site_symmetry_2
Ag1 O2 1_555 1_555
P1 O1 1_555 1_555
O1 H1 1_555 1_555
O2 P1 1_555 1_555
O3 P1 1_555 1_555
C1 P1 1_555 1_555
H2 C1 1_555 1_555
H3 C1 1_555 1_555
C2 C1 1_555 1_555
H4 C2 1_555 1_555
H5 C2 1_555 1_555
Ag1A O2A 1_555 1_555
Ag1A_2 O2 1_555 1_555
Ag1_2 O3 1_555 1_555
Ag1A_3 O3 1_555 1_555
Ag1_3 O2A 1_555 1_555
Ag1_4 O3A 1_555 1_555
Ag1A_4 O3A 1_555 1_555
P1A O1A 1_555 1_555
O1A H1A 1_555 1_555
O2A P1A 1_555 1_555
O2A_2 Ag1 1_555 1_555
O2_2 Ag1A 1_555 1_555
O3A P1A 1_555 1_555
O3_2 Ag1 1_555 1_555
O3A_2 Ag1 1_555 1_555
O3_3 Ag1A 1_555 1_555
O3A_3 Ag1A 1_555 1_555
C1A P1A 1_555 1_555
H2A C1A 1_555 1_555
H3A C1A 1_555 1_555
C2A C2 1_555 1_555
H4A C2A 1_555 1_555
H5A C2A 1_555 1_555
Ag1A_2 O2A_2 1_555 1_555
Ag1_3 O2_2 1_555 1_555
C1A C2A 1_555 1_555

#END
