
#######################################################################
#
#                 Cambridge Crystallographic Data Centre
#                                CCDC 
#
#######################################################################
#
# If this CIF has been generated from an entry in the Cambridge 
# Structural Database, then it will include bibliographic, chemical, 
# crystal, experimental, refinement or atomic coordinate data resulting 
# from the CCDC's data processing and validation procedures.
#
#######################################################################

data_CAZNIC
_symmetry_cell_setting           triclinic
_symmetry_space_group_name_H-M   'P 1'
_symmetry_Int_Tables_number      1
_space_group_name_Hall           'P 1'
loop_
_symmetry_equiv_pos_site_id
_symmetry_equiv_pos_as_xyz
1 x,y,z
_cell_length_a                   9.3592(14)
_cell_length_b                   15.488(2)
_cell_length_c                   16.108(3)
_cell_angle_alpha                78.217(2)
_cell_angle_beta                 78.133(2)
_cell_angle_gamma                84.160(2)
_cell_volume                     2232.53
loop_
_atom_site_label
_atom_site_type_symbol
_atom_site_fract_x
_atom_site_fract_y
_atom_site_fract_z
Cd1 Cd 0.09064(4) 0.71769(3) -0.05520(3)
Cd2 Cd 0.43905(4) 0.63169(3) -0.12321(3)
Cd3 Cd -0.15358(5) 1.59800(3) -0.18747(3)
N1 N -0.0510(7) 1.2317(4) 0.1641(5)
N2 N -0.0153(8) 1.0779(4) 0.1914(5)
N3 N -0.0300(8) 1.1554(4) 0.0511(4)
N4 N -0.1068(7) 1.4708(4) -0.0893(4)
N5 N -0.0476(12) 1.1530(11) 0.4798(7)
N6 N 0.0548(8) 0.8434(4) 0.0080(5)
C1 C 0.4687(8) -0.0027(4) 0.2833(4)
C2 C 0.3957(8) 0.0644(5) 0.2172(5)
H1 H 0.3438 0.0341 0.1866
H2 H 0.3267 0.1049 0.2462
C3 C 0.5622(9) 0.0432(5) 0.3236(5)
H3 H 0.5974 0.0021 0.3702
H4 H 0.6462 0.0649 0.2809
C4 C 0.3425(8) -0.0428(5) 0.3508(5)
H5 H 0.2895 0.0018 0.3818
H6 H 0.2754 -0.0656 0.3232
C5 C 0.5602(8) -0.0716(5) 0.2393(4)
H7 H 0.6442 -0.0455 0.1998
H8 H 0.5954 -0.1181 0.2819
C6 C 0.5628(9) 0.1742(5) 0.3777(5)
H9 H 0.6165 0.2091 0.3258
H10 H 0.6322 0.1427 0.4121
C7 C 0.4555(8) 0.2335(4) 0.4290(4)
C8 C 0.5458(9) 0.2873(5) 0.4655(5)
H11 H 0.5995 0.2488 0.5055
H12 H 0.6153 0.3195 0.4193
C9 C 0.3570(9) 0.1758(5) 0.5016(5)
H13 H 0.2919 0.2117 0.5380
H14 H 0.2986 0.1416 0.4785
C10 C 0.3563(8) 0.2911(4) 0.3750(4)
H15 H 0.3062 0.2554 0.3484
H16 H 0.2837 0.3243 0.4104
C11 C 0.3835(8) 0.4105(5) 0.2534(4)
C12 C 0.4774(9) 0.4695(6) 0.1940(6)
H17 H 0.5765 0.4656 0.1960
C13 C 0.3983(12) 0.4469(7) 0.6057(7)
H18 H 0.3003 0.4497 0.6014
C14 C 0.4030(10) 0.0463(6) 0.6068(6)
C15 C 0.2617(9) 0.0265(6) 0.6312(5)
H19 H 0.1906 0.0632 0.6064
C16 C 0.2209(9) -0.0475(5) 0.6926(5)
H20 H 0.1229 -0.0599 0.7104
C17 C 0.4720(9) 0.1905(5) 0.1108(5)
C18 C 0.3067(9) -0.1564(5) 0.4748(5)
C19 C 0.1602(10) -0.1382(6) 0.4889(6)
H21 H 0.1178 -0.0946 0.4508
C20 C -0.0123(9) 1.0811(5) 0.1057(5)
C21 C -0.0371(8) 1.1543(5) 0.2169(5)
C22 C -0.0510(9) 1.2300(5) 0.0837(5)
C23 C -0.0717(9) 1.3130(5) 0.0245(5)
C24 C -0.0794(16) 1.3144(6) -0.0595(6)
H22 H -0.0695 1.2621 -0.0807
C25 C -0.0811(10) 1.3935(5) 0.0495(6)
H23 H -0.0764 1.3955 0.1062
C26 C -0.0402(9) 1.1547(6) 0.3099(6)
C27 C -0.0418(11) 1.2337(7) 0.3382(7)
H24 H -0.0415 1.2875 0.2998
C28 C -0.0458(13) 1.0775(7) 0.3713(7)
H25 H -0.0478 1.0229 0.3559
C29 C 0.0169(16) 0.9981(6) -0.0092(6)
H26 H 0.0025 1.0512 -0.0464
C30 C 0.0092(9) 0.9990(5) 0.0742(5)
C31 C 0.0318(9) -0.3060(5) 0.6879(5)
C32 C 0.1283(9) -0.2519(6) 0.6150(5)
C33 C 0.7368(7) -0.3053(4) -0.0572(4)
C34 C 0.6696(7) -0.2544(5) 0.0095(5)
C35 C 0.2124(8) 0.6105(5) 0.0685(4)
C36 C 0.2718(8) 0.5411(5) 0.1330(4)
C37 C 0.2377(9) 0.4186(6) 0.2528(5)
H27 H 0.1755 0.3808 0.2933
C38 C 0.1807(9) 0.4823(6) 0.1924(5)
H28 H 0.0812 0.4859 0.1916
C39 C 0.3274(10) -0.1027(5) 0.7271(5)
C40 C 0.5324(8) -0.2117(6) 0.0092(6)
H29 H 0.4814 -0.2159 -0.0336
C41 C 0.3764(9) 0.4381(5) -0.0416(5)
C42 C 0.7374(8) -0.2504(5) 0.0766(5)
H30 H 0.8258 -0.2825 0.0813
C43 C 0.4715(9) -0.1638(6) 0.0710(6)
H31 H 0.3793 -0.1352 0.0703
C44 C 0.2851(10) -0.1825(5) 0.7969(5)
C45 C -0.0974(10) 1.4705(5) -0.0074(6)
H32 H -0.1020 1.5240 0.0110
C46 C 0.0335(10) 0.9165(5) 0.1240(6)
H33 H 0.0361 0.9119 0.1822
C47 C 0.0532(10) 0.8434(5) 0.0895(5)
H34 H 0.0665 0.7894 0.1256
C48 C 0.5451(9) -0.1577(6) 0.1332(6)
C49 C 0.6768(9) -0.2002(6) 0.1358(5)
H35 H 0.7268 -0.1952 0.1787
C50 C 0.4142(8) 0.3516(5) 0.0111(6)
C51 C 0.2761(11) -0.2701(8) 0.6006(7)
H36 H 0.3185 -0.3149 0.6375
C52 C 0.6334(14) 0.5414(6) 0.7238(5)
C53 C -0.0439(13) 1.2307(10) 0.4219(8)
H37 H -0.0428 1.2832 0.4413
C54 C 0.4718(11) -0.0868(7) 0.6979(6)
H38 H 0.5438 -0.1272 0.7175
C55 C 0.5104(12) -0.0108(8) 0.6396(8)
H39 H 0.6081 0.0022 0.6222
C56 C 0.5034(10) 0.3929(6) 0.5583(6)
C57 C 0.4432(12) 0.4944(6) 0.6573(7)
H40 H 0.3749 0.5309 0.6868
C58 C 0.5810(11) 0.4899(6) 0.6664(5)
C59 C 0.3622(12) -0.2203(8) 0.5295(7)
H41 H 0.4629 -0.2325 0.5201
C60 C 0.0749(11) -0.1850(7) 0.5604(6)
H42 H -0.0248 -0.1695 0.5716
C61 C -0.1023(16) 1.3950(6) -0.1128(6)
H43 H -0.1151 1.3948 -0.1685
C62 C -0.0481(16) 1.0833(9) 0.4507(8)
H44 H -0.0505 1.0304 0.4905
C63 C 0.0443(17) 0.9244(6) -0.0415(6)
H45 H 0.0569 0.9289 -0.1010
C64 C 0.3402(13) 0.2126(8) 0.0913(11)
H46 H 0.2679 0.1722 0.1084
C65 C 0.3121(14) 0.2940(9) 0.0463(12)
H47 H 0.2163 0.3108 0.0396
C66 C 0.5371(12) 0.3330(8) 0.0403(10)
H48 H 0.6033 0.3766 0.0297
C67 C 0.5707(12) 0.2510(8) 0.0859(10)
H49 H 0.6633 0.2377 0.0995
C68 C 0.6844(12) 0.4348(8) 0.6237(7)
H50 H 0.7812 0.4312 0.6306
C69 C 0.4236(9) 0.5327(6) 0.1333(5)
H51 H 0.4866 0.5699 0.0926
C70 C 0.6430(12) 0.3853(9) 0.5710(8)
H52 H 0.7113 0.3467 0.5443
O1 O 0.4793(6) 0.1140(4) 0.3558(4)
O2 O 0.1998(5) 0.6057(3) -0.1326(3)
O3 O 0.5110(6) 0.1115(4) 0.1583(4)
O4 O 0.4010(6) -0.1116(4) 0.4082(4)
O5 O 0.4488(5) 0.3502(3) 0.3097(3)
O6 O 0.4479(7) 0.3469(4) 0.5086(4)
O7 O 0.4543(7) 0.1187(5) 0.5497(4)
O8 O 0.4750(6) -0.1069(4) 0.1938(4)
O9 O -0.0983(7) -0.2811(4) 0.7077(4)
O10 O 0.0810(6) -0.3761(4) 0.7290(3)
O11 O 0.1523(6) -0.1949(4) 0.8186(3)
O12 O 0.0759(6) 0.6196(4) 0.0734(3)
O13 O 0.2964(5) 0.6564(3) 0.0103(3)
O14 O 0.6592(5) -0.3350(4) -0.0995(3)
O15 O 0.4753(6) 0.4931(4) -0.0645(4)
O16 O 0.2523(7) 0.4524(4) -0.0577(5)
O17 O 0.7571(10) 0.5197(5) 0.7396(4)
O18 O 0.8737(5) -0.3209(3) -0.0737(3)
O19 O 0.3873(7) -0.2272(4) 0.8272(4)
O20 O 0.5438(10) 0.6025(4) 0.7488(4)
Cd1_2 Cd 0.09064(4) -0.28231(3) 0.94480(3)
Cd1_3 Cd 1.09064(4) -0.28231(3) -0.05520(3)
Cd2_2 Cd 0.43905(4) -0.36831(3) -0.12321(3)
Cd2_3 Cd 0.43905(4) -0.36831(3) 0.87679(3)
Cd2_4 Cd 0.43905(4) 0.63169(3) 0.87679(3)
Cd3_2 Cd -0.15358(5) -0.40200(3) 0.81253(3)
Cd3_3 Cd 0.84642(5) -0.40200(3) -0.18747(3)
Cd3_4 Cd 0.84642(5) 0.59800(3) 0.81253(3)
C31_2 C 0.0318(9) 1.6940(5) -0.3121(5)
C33_2 C -0.2632(7) 1.6947(4) -0.0572(4)
O9_2 O -0.0983(7) 1.7189(4) -0.2923(4)
O10_2 O 0.0810(6) 1.6239(4) -0.2710(3)
O11_2 O 0.1523(6) 0.8051(4) -0.1814(3)
O14_2 O -0.3408(5) 1.6650(4) -0.0995(3)
O14_3 O 0.6592(5) 0.6650(4) -0.0995(3)
O17_2 O -0.2429(10) 1.5197(5) -0.2604(4)
O18_2 O -0.1263(5) 0.6791(3) -0.0737(3)
O18_3 O -0.1263(5) 1.6791(3) -0.0737(3)
O19_2 O 0.3873(7) 0.7728(4) -0.1728(4)
O20_2 O 0.5438(10) 0.6025(4) -0.2512(4)
loop_
_geom_bond_atom_site_label_1
_geom_bond_atom_site_label_2
_geom_bond_site_symmetry_1
_geom_bond_site_symmetry_2
Cd1 N6 1_555 1_555
Cd2 O2 1_555 1_555
Cd3 N4 1_555 1_555
N1 C21 1_555 1_555
N2 C20 1_555 1_555
N3 C20 1_555 1_555
N4 C45 1_555 1_555
N5 C53 1_555 1_555
N6 C47 1_555 1_555
C1 C2 1_555 1_555
C2 H1 1_555 1_555
H2 C2 1_555 1_555
C3 C1 1_555 1_555
H3 C3 1_555 1_555
H4 C3 1_555 1_555
C4 C1 1_555 1_555
H5 C4 1_555 1_555
H6 C4 1_555 1_555
C5 C1 1_555 1_555
H7 C5 1_555 1_555
H8 C5 1_555 1_555
C6 H9 1_555 1_555
H10 C6 1_555 1_555
C7 C6 1_555 1_555
C8 C7 1_555 1_555
H11 C8 1_555 1_555
H12 C8 1_555 1_555
C9 C7 1_555 1_555
H13 C9 1_555 1_555
H14 C9 1_555 1_555
C10 C7 1_555 1_555
H15 C10 1_555 1_555
H16 C10 1_555 1_555
C11 C12 1_555 1_555
C12 H17 1_555 1_555
C13 H18 1_555 1_555
C14 C15 1_555 1_555
C15 H19 1_555 1_555
C16 C15 1_555 1_555
H20 C16 1_555 1_555
C17 C64 1_555 1_555
C18 C19 1_555 1_555
C19 H21 1_555 1_555
C20 C30 1_555 1_555
C21 N2 1_555 1_555
C22 N1 1_555 1_555
C23 C22 1_555 1_555
C24 C23 1_555 1_555
H22 C24 1_555 1_555
C25 C23 1_555 1_555
H23 C25 1_555 1_555
C26 C21 1_555 1_555
C27 C26 1_555 1_555
H24 C27 1_555 1_555
C28 C26 1_555 1_555
H25 C28 1_555 1_555
C29 H26 1_555 1_555
C30 C29 1_555 1_555
C31 C32 1_555 1_555
C32 C51 1_555 1_555
C33 C34 1_555 1_555
C34 C40 1_555 1_555
C35 C36 1_555 1_555
C36 C38 1_555 1_555
C37 C11 1_555 1_555
H27 C37 1_555 1_555
C38 C37 1_555 1_555
H28 C38 1_555 1_555
C39 C16 1_555 1_555
C40 H29 1_555 1_555
C41 C50 1_555 1_555
C42 C34 1_555 1_555
H30 C42 1_555 1_555
C43 C40 1_555 1_555
H31 C43 1_555 1_555
C44 C39 1_555 1_555
C45 C25 1_555 1_555
H32 C45 1_555 1_555
C46 C30 1_555 1_555
H33 C46 1_555 1_555
C47 C46 1_555 1_555
H34 C47 1_555 1_555
C48 C43 1_555 1_555
C49 C42 1_555 1_555
H35 C49 1_555 1_555
C50 C65 1_555 1_555
C51 H36 1_555 1_555
C52 C58 1_555 1_555
C53 C27 1_555 1_555
H37 C53 1_555 1_555
C54 C39 1_555 1_555
H38 C54 1_555 1_555
C55 C14 1_555 1_555
H39 C55 1_555 1_555
C56 C13 1_555 1_555
C57 C13 1_555 1_555
H40 C57 1_555 1_555
C58 C57 1_555 1_555
C59 C18 1_555 1_555
H41 C59 1_555 1_555
C60 C19 1_555 1_555
H42 C60 1_555 1_555
C61 N4 1_555 1_555
H43 C61 1_555 1_555
C62 N5 1_555 1_555
H44 C62 1_555 1_555
C63 N6 1_555 1_555
H45 C63 1_555 1_555
C64 H46 1_555 1_555
C65 C64 1_555 1_555
H47 C65 1_555 1_555
C66 C50 1_555 1_555
H48 C66 1_555 1_555
C67 C17 1_555 1_555
H49 C67 1_555 1_555
C68 C58 1_555 1_555
H50 C68 1_555 1_555
C69 C12 1_555 1_555
H51 C69 1_555 1_555
C70 C56 1_555 1_555
H52 C70 1_555 1_555
O1 C3 1_555 1_555
O2 Cd1 1_555 1_555
O3 C2 1_555 1_555
O4 C4 1_555 1_555
O5 C10 1_555 1_555
O6 C8 1_555 1_555
O7 C9 1_555 1_555
O8 C5 1_555 1_555
O9 C31 1_555 1_555
O10 C31 1_555 1_555
O11 C44 1_555 1_555
O12 Cd1 1_555 1_555
O13 Cd1 1_555 1_555
O14 C33 1_555 1_555
O15 Cd2 1_555 1_555
O16 C41 1_555 1_555
O17 C52 1_555 1_555
O18 C33 1_555 1_555
O19 C44 1_555 1_555
O20 C52 1_555 1_555
Cd1_2 O11 1_555 1_555
Cd1_3 O18 1_555 1_555
Cd2_2 O14 1_555 1_555
Cd2_3 O19 1_555 1_555
Cd2_4 O20 1_555 1_555
Cd3_2 O9 1_555 1_555
Cd3_3 O14 1_555 1_555
Cd3_4 O17 1_555 1_555
C31_2 O9_2 1_555 1_555
C33_2 O14_2 1_555 1_555
O9_2 Cd3 1_555 1_555
O10_2 Cd3 1_555 1_555
O11_2 Cd1 1_555 1_555
O14_2 Cd3 1_555 1_555
O14_3 Cd2 1_555 1_555
O17_2 Cd3 1_555 1_555
O18_2 Cd1 1_555 1_555
O18_3 Cd3 1_555 1_555
O19_2 Cd2 1_555 1_555
O20_2 Cd2 1_555 1_555
Cd2 O13 1_555 1_555
N3 C22 1_555 1_555
C6 O1 1_555 1_555
C11 O5 1_555 1_555
C14 O7 1_555 1_555
C17 O3 1_555 1_555
C18 O4 1_555 1_555
C24 C61 1_555 1_555
C28 C62 1_555 1_555
C29 C63 1_555 1_555
C32 C60 1_555 1_555
C35 O12 1_555 1_555
C35 O13 1_555 1_555
C36 C69 1_555 1_555
C41 O15 1_555 1_555
C48 C49 1_555 1_555
C48 O8 1_555 1_555
C51 C59 1_555 1_555
C54 C55 1_555 1_555
C56 O6 1_555 1_555
C66 C67 1_555 1_555
C68 C70 1_555 1_555
O10 Cd3_2 1_555 1_555
O18 Cd3_3 1_555 1_555
C31_2 O10_2 1_555 1_555
C33_2 O18_3 1_555 1_555

#END
