
#######################################################################
#
#                 Cambridge Crystallographic Data Centre
#                                CCDC 
#
#######################################################################
#
# If this CIF has been generated from an entry in the Cambridge 
# Structural Database, then it will include bibliographic, chemical, 
# crystal, experimental, refinement or atomic coordinate data resulting 
# from the CCDC's data processing and validation procedures.
#
#######################################################################

data_CAZXOQ
_symmetry_cell_setting           monoclinic
_symmetry_space_group_name_H-M   'P 21/c'
_symmetry_Int_Tables_number      14
_space_group_name_Hall           '-P 2ybc'
loop_
_symmetry_equiv_pos_site_id
_symmetry_equiv_pos_as_xyz
1 x,y,z
2 -x,1/2+y,1/2-z
3 -x,-y,-z
4 x,1/2-y,1/2+z
_cell_length_a                   13.938(2)
_cell_length_b                   5.207(1)
_cell_length_c                   9.346(1)
_cell_angle_alpha                90
_cell_angle_beta                 108.37(1)
_cell_angle_gamma                90
_cell_volume                     643.723
loop_
_atom_site_label
_atom_site_type_symbol
_atom_site_fract_x
_atom_site_fract_y
_atom_site_fract_z
Zn1 Zn 0.00000 0.00000 0.00000
O1 O 0.02950 -0.19420 0.20200
O2 O 0.11110 -0.27110 0.44420
N1 N 0.11640 0.26080 0.12870
C1 C 0.10770 -0.18640 0.31650
C2 C 0.20490 -0.07760 0.30350
C3 C 0.20740 0.13140 0.21000
C4 C 0.29960 0.20970 0.19560
C5 C 0.38840 0.08030 0.27250
C6 C 0.38630 -0.12450 0.36620
C7 C 0.29500 -0.20260 0.38220
H1 H 0.12500 0.40500 0.09500
H2 H 0.09600 0.30700 0.20200
H3 H 0.31000 0.34600 0.14800
H4 H 0.45000 0.13200 0.26000
H5 H 0.44900 -0.24300 0.41400
H6 H 0.29400 -0.34800 0.43100
O1B O -0.02950 0.19420 -0.20200
O2C O 0.11110 -0.22890 -0.05580
N1B N -0.11640 -0.26080 -0.12870
O2A O -0.11110 0.22890 0.05580
C1B C -0.10770 0.18640 -0.31650
C3B C -0.20740 -0.13140 -0.21000
H1B H -0.12500 -0.40500 -0.09500
H2B H -0.09600 -0.30700 -0.20200
Zn1A Zn 0.00000 -0.50000 0.50000
O2B O -0.11110 0.27110 -0.44420
C2B C -0.20490 0.07760 -0.30350
C4B C -0.29960 -0.20970 -0.19560
Zn1A_2 Zn 0.00000 0.50000 -0.50000
C7B C -0.29500 0.20260 -0.38220
C5B C -0.38840 -0.08030 -0.27250
H3B H -0.31000 -0.34600 -0.14800
C6B C -0.38630 0.12450 -0.36620
H6B H -0.29400 0.34800 -0.43100
H4B H -0.45000 -0.13200 -0.26000
H5B H -0.44900 0.24300 -0.41400
loop_
_geom_bond_atom_site_label_1
_geom_bond_atom_site_label_2
_geom_bond_site_symmetry_1
_geom_bond_site_symmetry_2
Zn1 O1 1_555 1_555
O1 C1 1_555 1_555
O2 C1 1_555 1_555
N1 Zn1 1_555 1_555
C1 C2 1_555 1_555
C2 C3 1_555 1_555
C3 N1 1_555 1_555
C4 C3 1_555 1_555
C5 C4 1_555 1_555
C6 C5 1_555 1_555
C7 C2 1_555 1_555
H1 N1 1_555 1_555
H2 N1 1_555 1_555
H3 C4 1_555 1_555
H4 C5 1_555 1_555
H5 C6 1_555 1_555
H6 C7 1_555 1_555
O1B Zn1 1_555 1_555
O2C Zn1 1_555 1_555
N1B Zn1 1_555 1_555
O2A Zn1 1_555 1_555
C1B O1B 1_555 1_555
C3B N1B 1_555 1_555
H1B N1B 1_555 1_555
H2B N1B 1_555 1_555
Zn1A O2 1_555 1_555
O2B C1B 1_555 1_555
C2B C1B 1_555 1_555
C4B C3B 1_555 1_555
Zn1A_2 O2B 1_555 1_555
C7B C2B 1_555 1_555
C5B C4B 1_555 1_555
H3B C4B 1_555 1_555
C6B C7B 1_555 1_555
H6B C7B 1_555 1_555
H4B C5B 1_555 1_555
H5B C6B 1_555 1_555
C6 C7 1_555 1_555
C3B C2B 1_555 1_555
C5B C6B 1_555 1_555

#END
