
#######################################################################
#
#                 Cambridge Crystallographic Data Centre
#                                CCDC 
#
#######################################################################
#
# If this CIF has been generated from an entry in the Cambridge 
# Structural Database, then it will include bibliographic, chemical, 
# crystal, experimental, refinement or atomic coordinate data resulting 
# from the CCDC's data processing and validation procedures.
#
#######################################################################

data_CAZZAE
_symmetry_cell_setting           triclinic
_symmetry_space_group_name_H-M   'P -1'
_symmetry_Int_Tables_number      2
_space_group_name_Hall           '-P 1'
loop_
_symmetry_equiv_pos_site_id
_symmetry_equiv_pos_as_xyz
1 x,y,z
2 -x,-y,-z
_cell_length_a                   8.990(1)
_cell_length_b                   10.503(2)
_cell_length_c                   13.598(1)
_cell_angle_alpha                99.02(1)
_cell_angle_beta                 91.50(1)
_cell_angle_gamma                94.44(1)
_cell_volume                     1263.31
loop_
_atom_site_label
_atom_site_type_symbol
_atom_site_fract_x
_atom_site_fract_y
_atom_site_fract_z
Pr1 Pr 0.19991 0.22649 -0.21794
Cl1 Cl 0.43430 0.32310 0.16502
Cl2 Cl -0.21150 0.22400 -0.93482
Cl3 Cl -0.31600 0.10280 -0.44976
O1 O 0.31660 0.28420 -0.04630
O2 O 0.37280 0.42860 -0.18270
O3 O -0.18000 -0.02010 -0.84790
O4 O -0.00450 -0.20150 -0.90380
O5 O -0.03050 0.14690 -0.32320
O6 O 0.22700 0.05770 -0.36460
O7 O 0.24510 0.32880 -0.37740
O8 O 0.45890 0.14650 -0.23700
O9 O 0.05500 0.42420 -0.20300
C1 C 0.40310 0.38310 -0.01930
C2 C 0.46970 0.41980 0.07480
C3 C 0.43530 0.46840 -0.09900
C4 C -0.09880 -0.00380 -0.91900
C5 C -0.09550 0.10290 -0.96900
C6 C 0.00220 -0.11130 -0.95130
C7 C -0.02470 0.07880 -0.40670
C8 C -0.14350 0.04590 -0.47600
C9 C 0.12680 0.02810 -0.43140
C10 C 0.37810 0.31310 -0.43330
C11 C 0.36260 0.33410 -0.53550
C12 C 0.57610 0.12690 -0.17300
C13 C 0.62870 0.00500 -0.18720
C14 C -0.09800 0.44690 -0.17530
C15 C -0.20240 0.42060 -0.26440
C3A C 0.56470 0.53160 0.09900
C2A C 0.53030 0.58020 -0.07480
C9A C -0.12680 -0.02810 -0.56860
C8A C 0.14350 -0.04590 -0.52400
Cl1A Cl 0.56570 0.67690 -0.16502
C1A C 0.59690 0.61690 0.01930
O2A O 0.62720 0.57140 0.18270
O6A O -0.22700 -0.05770 -0.63540
C7A C 0.02470 -0.07880 -0.59330
Cl3A Cl 0.31600 -0.10280 -0.55024
O1A O 0.68340 0.71580 0.04630
Pr1A Pr 0.80009 0.77351 0.21794
Pr1A_2 Pr -0.19991 -0.22649 -0.78206
O5A O 0.03050 -0.14690 -0.67680
O1A_2 O -0.31660 -0.28420 -0.95370
O2A_2 O -0.37280 -0.42860 -0.81730
O3A O 0.18000 0.02010 -0.15210
O4A O 0.00450 0.20150 -0.09620
O7A O -0.24510 -0.32880 -0.62260
O8A O -0.45890 -0.14650 -0.76300
O9A O -0.05500 -0.42420 -0.79700
C5A C 0.09550 -0.10290 -1.03100
C6A C -0.00220 0.11130 -1.04870
Cl2A Cl 0.21150 -0.22400 -1.06518
C4A C 0.09880 0.00380 -1.08100
O4A_2 O 0.00450 0.20150 -1.09620
O3A_2 O 0.18000 0.02010 -1.15210
Pr1_2 Pr 0.19991 0.22649 -1.21794
C12A C -0.57610 -0.12690 -0.82700
C10A C -0.37810 -0.31310 -0.56670
C14A C 0.09800 -0.44690 -0.82470
C13A C -0.62870 -0.00500 -0.81280
C11A C -0.36260 -0.33410 -0.46450
C15A C 0.20240 -0.42060 -0.73560
O10 O 0.22970 0.59130 -0.30730
C16 C 0.19650 0.70750 -0.33990
C17 C 0.04460 0.70380 -0.36170
loop_
_geom_bond_atom_site_label_1
_geom_bond_atom_site_label_2
_geom_bond_site_symmetry_1
_geom_bond_site_symmetry_2
Pr1 O1 1_555 1_555
Cl1 C2 1_555 1_555
Cl2 C5 1_555 1_555
Cl3 C8 1_555 1_555
O1 C1 1_555 1_555
O2 Pr1 1_555 1_555
O3 C4 1_555 1_555
O4 C6 1_555 1_555
O5 Pr1 1_555 1_555
O6 Pr1 1_555 1_555
O7 Pr1 1_555 1_555
O8 Pr1 1_555 1_555
O9 Pr1 1_555 1_555
O10 C16 1_555 1_555
C1 C2 1_555 1_555
C2 C3A 1_555 1_555
C3 O2 1_555 1_555
C4 C5 1_555 1_555
C5 C6A 1_555 1_555
C6 C4 1_555 1_555
C7 O5 1_555 1_555
C8 C7 1_555 1_555
C9 O6 1_555 1_555
C10 O7 1_555 1_555
C11 C10 1_555 1_555
C12 O8 1_555 1_555
C13 C12 1_555 1_555
C14 O9 1_555 1_555
C15 C14 1_555 1_555
C16 C17 1_555 1_555
C3A C1A 1_555 1_555
C2A C3 1_555 1_555
C9A C8 1_555 1_555
C8A C9 1_555 1_555
Cl1A C2A 1_555 1_555
C1A C2A 1_555 1_555
O2A C3A 1_555 1_555
O6A C9A 1_555 1_555
C7A C9A 1_555 1_555
Cl3A C8A 1_555 1_555
O1A C1A 1_555 1_555
Pr1A O2A 1_555 1_555
Pr1A_2 O3 1_555 1_555
O5A C7A 1_555 1_555
O1A_2 Pr1A_2 1_555 1_555
O2A_2 Pr1A_2 1_555 1_555
O3A Pr1 1_555 1_555
O4A Pr1 1_555 1_555
O7A Pr1A_2 1_555 1_555
O8A Pr1A_2 1_555 1_555
O9A Pr1A_2 1_555 1_555
C5A C6 1_555 1_555
C6A C4A 1_555 1_555
Cl2A C5A 1_555 1_555
C4A C5A 1_555 1_555
O4A_2 C6A 1_555 1_555
O3A_2 C4A 1_555 1_555
Pr1_2 O4A_2 1_555 1_555
C12A O8A 1_555 1_555
C10A O7A 1_555 1_555
C14A O9A 1_555 1_555
C13A C12A 1_555 1_555
C11A C10A 1_555 1_555
C15A C14A 1_555 1_555
O4 Pr1A_2 1_555 1_555
C1 C3 1_555 1_555
C7 C9 1_555 1_555
C8A C7A 1_555 1_555
O6A Pr1A_2 1_555 1_555
O1A Pr1A 1_555 1_555
Pr1A_2 O5A 1_555 1_555
O3A_2 Pr1_2 1_555 1_555

#END
