
#######################################################################
#
#                 Cambridge Crystallographic Data Centre
#                                CCDC 
#
#######################################################################
#
# If this CIF has been generated from an entry in the Cambridge 
# Structural Database, then it will include bibliographic, chemical, 
# crystal, experimental, refinement or atomic coordinate data resulting 
# from the CCDC's data processing and validation procedures.
#
#######################################################################

data_CBZONC
_symmetry_cell_setting           monoclinic
_symmetry_space_group_name_H-M   'P 21/n'
_symmetry_Int_Tables_number      14
_space_group_name_Hall           '-P 2yn'
loop_
_symmetry_equiv_pos_site_id
_symmetry_equiv_pos_as_xyz
1 x,y,z
2 1/2-x,1/2+y,1/2-z
3 -x,-y,-z
4 1/2+x,1/2-y,1/2+z
_cell_length_a                   3.884(5)
_cell_length_b                   17.51(2)
_cell_length_c                   10.84(1)
_cell_angle_alpha                90
_cell_angle_beta                 96.97(10)
_cell_angle_gamma                90
_cell_volume                     731.768
loop_
_atom_site_label
_atom_site_type_symbol
_atom_site_fract_x
_atom_site_fract_y
_atom_site_fract_z
Cl1 Cl 0.26730 -0.08710 0.02670
Cu1 Cu 0.28920 0.04570 0.08680
C1 C 0.22420 0.09660 0.35050
C2 C 0.13340 0.12930 0.46480
C3 C 0.00450 0.20380 0.46360
C4 C -0.08300 0.23630 0.57280
C5 C -0.04020 0.19570 0.68320
C6 C 0.08900 0.12190 0.68440
C7 C 0.17620 0.08870 0.57520
N1 N 0.25100 0.07550 0.25780
Cu1B Cu -0.28920 -0.04570 -0.08680
Cu1B_2 Cu 0.71080 -0.04570 -0.08680
Cl1B Cl -0.26730 0.08710 -0.02670
Cl1B_2 Cl 0.73270 0.08710 -0.02670
Cl1_2 Cl -0.73270 -0.08710 0.02670
N1B N -0.25100 -0.07550 -0.25780
Cu1_2 Cu -0.71080 0.04570 0.08680
C1B C -0.22420 -0.09660 -0.35050
C2B C -0.13340 -0.12930 -0.46480
C3B C -0.00450 -0.20380 -0.46360
C7B C -0.17620 -0.08870 -0.57520
C4B C 0.08300 -0.23630 -0.57280
C6B C -0.08900 -0.12190 -0.68440
C5B C 0.04020 -0.19570 -0.68320
loop_
_geom_bond_atom_site_label_1
_geom_bond_atom_site_label_2
_geom_bond_site_symmetry_1
_geom_bond_site_symmetry_2
Cl1 Cu1 1_555 1_555
Cu1 N1 1_555 1_555
C1 C2 1_555 1_555
C2 C3 1_555 1_555
C3 C4 1_555 1_555
C4 C5 1_555 1_555
C5 C6 1_555 1_555
C6 C7 1_555 1_555
C7 C2 1_555 1_555
N1 C1 1_555 1_555
Cu1B Cl1 1_555 1_555
Cu1B_2 Cl1 1_555 1_555
Cl1B Cu1 1_555 1_555
Cl1B_2 Cu1 1_555 1_555
Cl1_2 Cu1B 1_555 1_555
N1B Cu1B 1_555 1_555
Cu1_2 Cl1B 1_555 1_555
C1B N1B 1_555 1_555
C2B C1B 1_555 1_555
C3B C2B 1_555 1_555
C7B C2B 1_555 1_555
C4B C3B 1_555 1_555
C6B C7B 1_555 1_555
C5B C4B 1_555 1_555
Cu1B Cl1B 1_555 1_555
Cu1B_2 Cl1B_2 1_555 1_555
Cl1_2 Cu1_2 1_555 1_555
C6B C5B 1_555 1_555

#END
