
#######################################################################
#
#                 Cambridge Crystallographic Data Centre
#                                CCDC 
#
#######################################################################
#
# If this CIF has been generated from an entry in the Cambridge 
# Structural Database, then it will include bibliographic, chemical, 
# crystal, experimental, refinement or atomic coordinate data resulting 
# from the CCDC's data processing and validation procedures.
#
#######################################################################

data_CDBROO
_symmetry_cell_setting           monoclinic
_symmetry_space_group_name_H-M   'I 2/c'
_symmetry_Int_Tables_number      15
_space_group_name_Hall           '-I 2yc'
loop_
_symmetry_equiv_pos_site_id
_symmetry_equiv_pos_as_xyz
1 x,y,z
2 1/2+x,1/2+y,1/2+z
3 -x,y,1/2-z
4 1/2-x,1/2+y,-z
5 -x,-y,-z
6 1/2-x,1/2-y,1/2-z
7 x,-y,1/2+z
8 1/2+x,1/2-y,z
_cell_length_a                   20.755(17)
_cell_length_b                   19.889(12)
_cell_length_c                   10.907(8)
_cell_angle_alpha                90
_cell_angle_beta                 95.90(11)
_cell_angle_gamma                90
_cell_volume                     4478.52
loop_
_atom_site_label
_atom_site_type_symbol
_atom_site_fract_x
_atom_site_fract_y
_atom_site_fract_z
Cd1 Cd 0.25020 0.02110 0.71803
Br1 Br 0.24646 0.04620 0.96745
N1 N 0.34003 -0.05158 0.75823
N2 N 0.34864 0.08335 0.70625
N3 N 0.23504 0.13443 0.64632
N4 N 0.13795 0.05186 0.66159
N5 N 0.17923 -0.07452 0.73459
C1 C 0.39672 -0.01417 0.81797
C2 C 0.40690 0.04195 0.73221
C3 C 0.34795 0.14321 0.66930
C4 C 0.28303 0.17624 0.63698
C5 C 0.17609 0.15846 0.61829
C6 C 0.12242 0.10991 0.62522
C7 C 0.09108 -0.00152 0.67414
C8 C 0.12083 -0.05004 0.76650
C9 C 0.20886 -0.13178 0.82854
C10 C 0.27053 -0.15620 0.80037
C11 C 0.32771 -0.11299 0.84676
C12 C 0.41257 0.18540 0.65230
C13 C 0.27766 0.24337 0.59822
C14 C 0.21620 0.26530 0.57135
C15 C 0.16278 0.22600 0.57636
C16 C 0.05147 0.13543 0.58215
Br1F Br 0.24646 -0.04620 0.46745
Cd1F Cd 0.25020 -0.02110 1.21803
Cd1F_2 Cd 0.25020 -0.02110 0.21803
Br1F_2 Br 0.24646 -0.04620 1.46745
N1F N 0.34003 0.05158 1.25823
N2F N 0.34864 -0.08335 1.20625
N3F N 0.23504 -0.13443 1.14632
N4F N 0.13795 -0.05186 1.16159
N5F N 0.17923 0.07452 1.23459
C1F C 0.39672 0.01417 1.31797
C11F C 0.32771 0.11299 1.34676
C2F C 0.40690 -0.04195 1.23221
C3F C 0.34795 -0.14321 1.16930
C4F C 0.28303 -0.17624 1.13698
C5F C 0.17609 -0.15846 1.11829
C6F C 0.12242 -0.10991 1.12522
C7F C 0.09108 0.00152 1.17414
C8F C 0.12083 0.05004 1.26650
C9F C 0.20886 0.13178 1.32854
C10F C 0.27053 0.15620 1.30037
C12F C 0.41257 -0.18540 1.15230
C13F C 0.27766 -0.24337 1.09822
C15F C 0.16278 -0.22600 1.07636
C16F C 0.05147 -0.13543 1.08215
C14F C 0.21620 -0.26530 1.07135
Cd2 Cd 0.50000 0.20869 0.25000
Br2 Br 0.42352 0.28490 0.36322
Br3 Br 0.44385 0.13638 0.07351
Br2B Br 0.57648 0.28490 0.13678
Br3B Br 0.55615 0.13638 0.42649
loop_
_geom_bond_atom_site_label_1
_geom_bond_atom_site_label_2
_geom_bond_site_symmetry_1
_geom_bond_site_symmetry_2
Cd1 Br1 1_555 1_555
Br1 Cd1F 1_555 1_555
N1 Cd1 1_555 1_555
N2 Cd1 1_555 1_555
N3 Cd1 1_555 1_555
N4 Cd1 1_555 1_555
N5 Cd1 1_555 1_555
C1 N1 1_555 1_555
C2 N2 1_555 1_555
C3 N2 1_555 1_555
C4 N3 1_555 1_555
C5 N3 1_555 1_555
C6 N4 1_555 1_555
C7 N4 1_555 1_555
C8 N5 1_555 1_555
C9 N5 1_555 1_555
C10 C9 1_555 1_555
C11 N1 1_555 1_555
C12 C3 1_555 1_555
C13 C4 1_555 1_555
C14 C13 1_555 1_555
C15 C5 1_555 1_555
C16 C6 1_555 1_555
Cd2 Br2 1_555 1_555
Br3 Cd2 1_555 1_555
Br1F Cd1 1_555 1_555
Cd1F Br1F_2 1_555 1_555
Cd1F_2 Br1F 1_555 1_555
N1F Cd1F 1_555 1_555
N2F Cd1F 1_555 1_555
N3F Cd1F 1_555 1_555
N4F Cd1F 1_555 1_555
N5F Cd1F 1_555 1_555
C1F N1F 1_555 1_555
C11F N1F 1_555 1_555
C2F N2F 1_555 1_555
C3F N2F 1_555 1_555
C4F N3F 1_555 1_555
C5F N3F 1_555 1_555
C6F N4F 1_555 1_555
C7F N4F 1_555 1_555
C8F N5F 1_555 1_555
C9F N5F 1_555 1_555
C10F C11F 1_555 1_555
C12F C3F 1_555 1_555
C13F C4F 1_555 1_555
C15F C5F 1_555 1_555
C16F C6F 1_555 1_555
C14F C13F 1_555 1_555
Br2B Cd2 1_555 1_555
Br3B Cd2 1_555 1_555
C1 C2 1_555 1_555
C3 C4 1_555 1_555
C5 C6 1_555 1_555
C7 C8 1_555 1_555
C10 C11 1_555 1_555
C14 C15 1_555 1_555
C1F C2F 1_555 1_555
C3F C4F 1_555 1_555
C5F C6F 1_555 1_555
C7F C8F 1_555 1_555
C9F C10F 1_555 1_555
C15F C14F 1_555 1_555

#END
