
#######################################################################
#
#                 Cambridge Crystallographic Data Centre
#                                CCDC 
#
#######################################################################
#
# If this CIF has been generated from an entry in the Cambridge 
# Structural Database, then it will include bibliographic, chemical, 
# crystal, experimental, refinement or atomic coordinate data resulting 
# from the CCDC's data processing and validation procedures.
#
#######################################################################

data_CDCACD01
_symmetry_cell_setting           monoclinic
_symmetry_space_group_name_H-M   'P 21/n'
_symmetry_Int_Tables_number      14
_space_group_name_Hall           '-P 2yn'
loop_
_symmetry_equiv_pos_site_id
_symmetry_equiv_pos_as_xyz
1 x,y,z
2 1/2-x,1/2+y,1/2-z
3 -x,-y,-z
4 1/2+x,1/2-y,1/2+z
_cell_length_a                   6.86493(22)
_cell_length_b                   8.96114(33)
_cell_length_c                   10.8252(5)
_cell_angle_alpha                90
_cell_angle_beta                 100.0015(24)
_cell_angle_gamma                90
_cell_volume                     655.82
loop_
_atom_site_label
_atom_site_type_symbol
_atom_site_fract_x
_atom_site_fract_y
_atom_site_fract_z
Cd1 Cd 0.7466(4) 0.09534(22) 0.47639(24)
Cl1 Cl 1.0384(10) 0.0565(7) 0.3473(6)
Cl2 Cl 0.5547(10) -0.1530(7) 0.4075(6)
N1 N 0.8603(20) 0.3277(10) 0.5792(11)
C1 C 0.9692(16) 0.3163(14) 0.6908(14)
N2 N 1.0572(26) 0.3043(19) 0.7917(14)
C2 C 0.7937(12) 0.4686(8) 0.5430(8)
N3 N 0.6954(21) 0.4862(13) 0.4282(10)
N4 N 0.8197(19) 0.5820(11) 0.6215(11)
H1 H 0.6768(32) 0.4114(16) 0.3778(10)
H2 H 0.6511(32) 0.5729(16) 0.4032(12)
H3 H 0.7760(35) 0.6689(14) 0.5971(15)
H4 H 0.8813(33) 0.5692(17) 0.6971(14)
Cd1B Cd 1.2534(4) -0.09534(22) 0.52361(24)
Cd1B_2 Cd 0.2534(4) -0.09534(22) 0.52361(24)
Cd1C Cd 1.2466(4) 0.40466(22) 0.97639(24)
Cl1B Cl 0.9616(10) -0.0565(7) 0.6527(6)
Cl2B Cl 0.4453(10) 0.1530(7) 0.5925(6)
N2C N 0.5572(26) 0.1957(19) 0.2917(14)
loop_
_geom_bond_atom_site_label_1
_geom_bond_atom_site_label_2
_geom_bond_site_symmetry_1
_geom_bond_site_symmetry_2
Cd1 Cl1 1_555 1_555
Cl1 Cd1B 1_555 1_555
Cl2 Cd1 1_555 1_555
N1 Cd1 1_555 1_555
C1 N1 1_555 1_555
N2 C1 1_555 1_555
C2 N1 1_555 1_555
N3 C2 1_555 1_555
N4 C2 1_555 1_555
H1 N3 1_555 1_555
H2 N3 1_555 1_555
H3 N4 1_555 1_555
H4 N4 1_555 1_555
Cd1B Cl1B 1_555 1_555
Cd1B_2 Cl2 1_555 1_555
Cd1C N2 1_555 1_555
Cl1B Cd1 1_555 1_555
Cl2B Cd1 1_555 1_555
N2C Cd1 1_555 1_555
Cd1B_2 Cl2B 1_555 1_555

#END
