
#######################################################################
#
#                 Cambridge Crystallographic Data Centre
#                                CCDC 
#
#######################################################################
#
# If this CIF has been generated from an entry in the Cambridge 
# Structural Database, then it will include bibliographic, chemical, 
# crystal, experimental, refinement or atomic coordinate data resulting 
# from the CCDC's data processing and validation procedures.
#
#######################################################################

data_CDCYAC
_symmetry_cell_setting           monoclinic
_symmetry_space_group_name_H-M   'P 21/n'
_symmetry_Int_Tables_number      14
_space_group_name_Hall           '-P 2yn'
loop_
_symmetry_equiv_pos_site_id
_symmetry_equiv_pos_as_xyz
1 x,y,z
2 1/2-x,1/2+y,1/2-z
3 -x,-y,-z
4 1/2+x,1/2-y,1/2+z
_cell_length_a                   4.465(1)
_cell_length_b                   10.262(2)
_cell_length_c                   17.567(5)
_cell_angle_alpha                90
_cell_angle_beta                 95.44(2)
_cell_angle_gamma                90
_cell_volume                     801.292
loop_
_atom_site_label
_atom_site_type_symbol
_atom_site_fract_x
_atom_site_fract_y
_atom_site_fract_z
Cd1 Cd -0.67580 -0.45586 0.40334
O1 O -0.27850 -0.58090 0.47170
O2 O 0.09080 -0.65110 0.40430
O3 O 0.07200 -0.31320 0.32670
O4 O -0.28660 -0.30710 0.40570
N1 N 0.10890 -0.98220 0.39940
N2 N -0.02090 -0.04910 0.20500
H1 H -0.25000 -0.82500 0.51100
H2 H -0.45300 -0.16100 0.32800
H3 H -0.51300 -0.22800 0.25900
C1 C -0.12740 -0.66900 0.44240
C2 C -0.23570 -0.80690 0.45200
C3 C -0.04040 -0.90540 0.42240
C4 C -0.17230 -0.27320 0.34730
C5 C -0.34800 -0.17500 0.29410
C6 C -0.16290 -0.10500 0.24450
H4 H -0.45300 -0.81600 0.42200
Cd1_2 Cd 0.32420 -0.45586 0.40334
Cd1B Cd -0.32420 -0.54414 0.59666
O1B O -0.72150 -0.41910 0.52830
O2_2 O -0.90920 -0.65110 0.40430
O3_2 O -0.92800 -0.31320 0.32670
N2A N -0.47910 -0.54910 0.29500
Cd1A Cd 0.17580 0.04414 0.09666
loop_
_geom_bond_atom_site_label_1
_geom_bond_atom_site_label_2
_geom_bond_site_symmetry_1
_geom_bond_site_symmetry_2
Cd1 O1 1_555 1_555
O1 C1 1_555 1_555
O2 C1 1_555 1_555
O3 C4 1_555 1_555
O4 Cd1 1_555 1_555
N1 C3 1_555 1_555
N2 C6 1_555 1_555
H1 C2 1_555 1_555
H2 C5 1_555 1_555
H3 C5 1_555 1_555
C1 C2 1_555 1_555
C2 C3 1_555 1_555
C4 O4 1_555 1_555
C5 C4 1_555 1_555
C6 C5 1_555 1_555
H4 C2 1_555 1_555
Cd1_2 O2 1_555 1_555
Cd1B O1 1_555 1_555
O1B Cd1 1_555 1_555
O2_2 Cd1 1_555 1_555
O3_2 Cd1 1_555 1_555
N2A Cd1 1_555 1_555
Cd1A N2 1_555 1_555
O3 Cd1_2 1_555 1_555
Cd1B O1B 1_555 1_555

#END
