
#######################################################################
#
#                 Cambridge Crystallographic Data Centre
#                                CCDC 
#
#######################################################################
#
# If this CIF has been generated from an entry in the Cambridge 
# Structural Database, then it will include bibliographic, chemical, 
# crystal, experimental, refinement or atomic coordinate data resulting 
# from the CCDC's data processing and validation procedures.
#
#######################################################################

data_CDGLTR01
_symmetry_cell_setting           triclinic
_symmetry_space_group_name_H-M   'P -1'
_symmetry_Int_Tables_number      2
_space_group_name_Hall           '-P 1'
loop_
_symmetry_equiv_pos_site_id
_symmetry_equiv_pos_as_xyz
1 x,y,z
2 -x,-y,-z
_cell_length_a                   8.0120(10)
_cell_length_b                   8.1600(10)
_cell_length_c                   8.9390(10)
_cell_angle_alpha                82.290(10)
_cell_angle_beta                 76.690(10)
_cell_angle_gamma                81.680(10)
_cell_volume                     559.635
loop_
_atom_site_label
_atom_site_type_symbol
_atom_site_fract_x
_atom_site_fract_y
_atom_site_fract_z
Cd1 Cd 0.43656(2) 0.790573(18) 0.808441(17)
O1 O 0.2791(2) 0.5945(2) 0.9594(2)
O2 O 0.1887(3) 0.8412(2) 1.0376(2)
C1 C 0.1776(3) 0.6883(3) 1.0523(3)
C2 C 0.0457(3) 0.6062(3) 1.1774(3)
C3 C -0.0730(3) 0.7158(3) 1.2917(3)
C4 C -0.2031(3) 0.6158(3) 1.4029(3)
C5 C -0.3158(3) 0.7005(3) 1.5388(3)
O3 O -0.4129(2) 0.6119(2) 1.6385(2)
O4 O -0.3127(3) 0.8506(2) 1.5520(2)
O5 O 0.4657(3) 1.0560(2) 0.8163(2)
O6 O 0.6495(2) 0.7290(2) 0.9554(2)
O7 O 0.2444(2) 0.8740(2) 0.6478(2)
H1 H -0.018(5) 0.551(4) 1.127(4)
H2 H 0.114(4) 0.514(4) 1.235(4)
H3 H 0.005(5) 0.759(5) 1.344(4)
H4 H -0.131(4) 0.803(4) 1.239(4)
H5 H -0.148(5) 0.508(4) 1.454(4)
H6 H -0.286(4) 0.576(4) 1.353(4)
H7 H 0.523(5) 1.118(5) 0.749(5)
H8 H 0.422(5) 1.106(5) 0.887(5)
H9 H 0.666(5) 0.631(5) 0.969(5)
H10 H 0.744(5) 0.773(5) 0.906(4)
H11 H 0.135(6) 0.889(5) 0.692(5)
H12 H 0.259(5) 0.952(5) 0.600(5)
O3_2 O 0.5871(2) 0.6119(2) 0.6385(2)
O4_2 O 0.6873(3) 0.8506(2) 0.5520(2)
Cd1_2 Cd -0.56344(2) 0.790573(18) 1.808441(17)
O8 O 0.1023(3) 1.0903(3) 1.2275(3)
H13 H 0.128(6) 1.018(5) 1.167(5)
H14 H 0.151(6) 1.074(5) 1.298(5)
O9 O 0.6617(3) 1.2687(3) 0.6311(2)
H15 H 0.688(5) 1.256(4) 0.537(4)
H16 H 0.627(5) 1.366(5) 0.648(4)
loop_
_geom_bond_atom_site_label_1
_geom_bond_atom_site_label_2
_geom_bond_site_symmetry_1
_geom_bond_site_symmetry_2
Cd1 O1 1_555 1_555
O1 C1 1_555 1_555
O2 Cd1 1_555 1_555
C1 O2 1_555 1_555
C2 C1 1_555 1_555
C3 C2 1_555 1_555
C4 C3 1_555 1_555
C5 C4 1_555 1_555
O3 C5 1_555 1_555
O4 C5 1_555 1_555
O5 Cd1 1_555 1_555
O6 Cd1 1_555 1_555
O7 Cd1 1_555 1_555
O8 H13 1_555 1_555
O9 H15 1_555 1_555
H1 C2 1_555 1_555
H2 C2 1_555 1_555
H3 C3 1_555 1_555
H4 C3 1_555 1_555
H5 C4 1_555 1_555
H6 C4 1_555 1_555
H7 O5 1_555 1_555
H8 O5 1_555 1_555
H9 O6 1_555 1_555
H10 O6 1_555 1_555
H11 O7 1_555 1_555
H12 O7 1_555 1_555
H14 O8 1_555 1_555
H16 O9 1_555 1_555
O3_2 Cd1 1_555 1_555
O4_2 Cd1 1_555 1_555
Cd1_2 O3 1_555 1_555
O4 Cd1_2 1_555 1_555

#END
