
#######################################################################
#
#                 Cambridge Crystallographic Data Centre
#                                CCDC 
#
#######################################################################
#
# If this CIF has been generated from an entry in the Cambridge 
# Structural Database, then it will include bibliographic, chemical, 
# crystal, experimental, refinement or atomic coordinate data resulting 
# from the CCDC's data processing and validation procedures.
#
#######################################################################

data_CDLGLU10
_symmetry_cell_setting           orthorhombic
_symmetry_space_group_name_H-M   'P 21 21 21'
_symmetry_Int_Tables_number      19
_space_group_name_Hall           'P 2ac 2ab'
loop_
_symmetry_equiv_pos_site_id
_symmetry_equiv_pos_as_xyz
1 x,y,z
2 1/2+x,1/2-y,-z
3 -x,1/2+y,1/2-z
4 1/2-x,-y,1/2+z
_cell_length_a                   11.61(1)
_cell_length_b                   10.79(1)
_cell_length_c                   7.286(7)
_cell_angle_alpha                90
_cell_angle_beta                 90
_cell_angle_gamma                90
_cell_volume                     912.731
loop_
_atom_site_label
_atom_site_type_symbol
_atom_site_fract_x
_atom_site_fract_y
_atom_site_fract_z
Cd1 Cd 0.29090 0.18360 0.36090
N1 N 0.39400 -0.12960 0.94120
O1 O 0.24690 0.00190 0.72130
O2 O 0.38550 0.12710 0.61740
O3 O 0.53080 -0.28800 0.27570
O4 O 0.67520 -0.21300 0.43490
O5 O 0.23120 -0.38160 0.95520
C1 C 0.44330 -0.03260 0.81950
C2 C 0.35020 0.03690 0.71470
C3 C 0.53110 -0.08570 0.68700
C4 C 0.48160 -0.17510 0.54540
C5 C 0.56920 -0.22750 0.41260
H1 H 0.44130 -0.20140 0.93450
H2 H 0.39340 -0.09930 1.06360
H3 H 0.48460 0.02860 0.91020
H4 H 0.56990 -0.01170 0.61670
H5 H 0.59380 -0.13320 0.76360
H6 H 0.44320 -0.24930 0.61570
H7 H 0.41870 -0.12770 0.46930
H8 H 0.26130 -0.38550 1.07300
H9 H 0.21410 -0.45800 0.90280
Cd1C Cd 0.20910 -0.18360 0.86090
Cd1B Cd 0.70910 -0.31640 0.13910
O2C O 0.11450 -0.12710 1.11740
O3A O 0.03080 -0.21200 0.72430
O4A O 0.17520 -0.28700 0.56510
O6 O 0.18040 0.39300 0.80140
H10 H 0.10800 0.35710 0.79250
H11 H 0.22840 0.35780 0.88890
loop_
_geom_bond_atom_site_label_1
_geom_bond_atom_site_label_2
_geom_bond_site_symmetry_1
_geom_bond_site_symmetry_2
Cd1 O2 1_555 1_555
N1 C1 1_555 1_555
O1 C2 1_555 1_555
O2 C2 1_555 1_555
O3 C5 1_555 1_555
O4 C5 1_555 1_555
O5 H8 1_555 1_555
O6 H10 1_555 1_555
C1 C2 1_555 1_555
C3 C1 1_555 1_555
C4 C3 1_555 1_555
C5 C4 1_555 1_555
H1 N1 1_555 1_555
H2 N1 1_555 1_555
H3 C1 1_555 1_555
H4 C3 1_555 1_555
H5 C3 1_555 1_555
H6 C4 1_555 1_555
H7 C4 1_555 1_555
H9 O5 1_555 1_555
H11 O6 1_555 1_555
Cd1C N1 1_555 1_555
Cd1B O3 1_555 1_555
O2C Cd1C 1_555 1_555
O3A Cd1C 1_555 1_555
O4A Cd1C 1_555 1_555
O1 Cd1C 1_555 1_555
O4 Cd1B 1_555 1_555
O5 Cd1C 1_555 1_555

#END
