
#######################################################################
#
#                 Cambridge Crystallographic Data Centre
#                                CCDC 
#
#######################################################################
#
# If this CIF has been generated from an entry in the Cambridge 
# Structural Database, then it will include bibliographic, chemical, 
# crystal, experimental, refinement or atomic coordinate data resulting 
# from the CCDC's data processing and validation procedures.
#
#######################################################################

data_CDLGLU02
_symmetry_cell_setting           orthorhombic
_symmetry_space_group_name_H-M   'P 21 21 21'
_symmetry_Int_Tables_number      19
_space_group_name_Hall           'P 2ac 2ab'
loop_
_symmetry_equiv_pos_site_id
_symmetry_equiv_pos_as_xyz
1 x,y,z
2 1/2+x,1/2-y,-z
3 -x,1/2+y,1/2-z
4 1/2-x,-y,1/2+z
_cell_length_a                   11.545(6)
_cell_length_b                   10.718(6)
_cell_length_c                   7.247(5)
_cell_angle_alpha                90
_cell_angle_beta                 90
_cell_angle_gamma                90
_cell_volume                     896.739
loop_
_atom_site_label
_atom_site_type_symbol
_atom_site_fract_x
_atom_site_fract_y
_atom_site_fract_z
Cd1 Cd -0.21010 -0.68390 -0.36120
C1 C -0.14900 -0.53600 -0.72000
C2 C -0.05500 -0.46800 -0.82100
C3 C 0.03900 -0.41800 -0.68400
C4 C -0.01800 -0.31500 -0.55000
C5 C 0.07200 -0.27400 -0.41200
N1 N -0.10700 -0.37700 -0.93800
O1 O -0.25300 -0.50100 -0.71900
O2 O -0.11300 -0.63200 -0.61600
O3 O 0.03600 -0.20800 -0.27100
O4 O 0.17600 -0.28800 -0.43100
O5 O -0.27500 -0.12200 -0.95800
Cd1B Cd 0.21010 -0.18390 -0.13880
Cd1C Cd -0.28990 -0.31610 -0.86120
O2C O -0.38700 -0.36800 -1.11600
O3A O -0.46400 -0.29200 -0.72900
O4A O -0.32400 -0.21200 -0.56900
O6 O 0.18500 0.39000 -0.19600
loop_
_geom_bond_atom_site_label_1
_geom_bond_atom_site_label_2
_geom_bond_site_symmetry_1
_geom_bond_site_symmetry_2
Cd1 O2 1_555 1_555
C1 C2 1_555 1_555
C2 C3 1_555 1_555
C3 C4 1_555 1_555
C4 C5 1_555 1_555
C5 O3 1_555 1_555
N1 C2 1_555 1_555
O1 C1 1_555 1_555
O2 C1 1_555 1_555
O3 Cd1B 1_555 1_555
O4 C5 1_555 1_555
O5 Cd1C 1_555 1_555
Cd1B O4 1_555 1_555
Cd1C N1 1_555 1_555
O2C Cd1C 1_555 1_555
O3A Cd1C 1_555 1_555
O4A Cd1C 1_555 1_555
O1 Cd1C 1_555 1_555

#END
