
#######################################################################
#
#                 Cambridge Crystallographic Data Centre
#                                CCDC 
#
#######################################################################
#
# If this CIF has been generated from an entry in the Cambridge 
# Structural Database, then it will include bibliographic, chemical, 
# crystal, experimental, refinement or atomic coordinate data resulting 
# from the CCDC's data processing and validation procedures.
#
#######################################################################

data_CDLGLU11
_symmetry_cell_setting           orthorhombic
_symmetry_space_group_name_H-M   'P 21 21 21'
_symmetry_Int_Tables_number      19
_space_group_name_Hall           'P 2ac 2ab'
loop_
_symmetry_equiv_pos_site_id
_symmetry_equiv_pos_as_xyz
1 x,y,z
2 1/2+x,1/2-y,-z
3 -x,1/2+y,1/2-z
4 1/2-x,-y,1/2+z
_cell_length_a                   11.61(1)
_cell_length_b                   10.79(1)
_cell_length_c                   7.286(7)
_cell_angle_alpha                90
_cell_angle_beta                 90
_cell_angle_gamma                90
_cell_volume                     912.731
loop_
_atom_site_label
_atom_site_type_symbol
_atom_site_fract_x
_atom_site_fract_y
_atom_site_fract_z
Cd1 Cd 0.29070 0.18270 0.36200
N1 N 0.39330 -0.13050 0.94100
O1 O 0.24710 0.00400 0.72380
O2 O 0.38550 0.12470 0.61760
O3 O 0.53060 -0.28700 0.27460
O4 O 0.67500 -0.21210 0.43480
O5 O 0.23130 -0.38320 0.95310
C1 C 0.44320 -0.03230 0.82140
C2 C 0.34980 0.03670 0.71260
C3 C 0.53180 -0.08650 0.68670
C4 C 0.48090 -0.17480 0.54200
C5 C 0.56860 -0.22870 0.41300
H1 H 0.45100 -0.20000 0.95400
H2 H 0.37500 -0.09500 1.05900
H3 H 0.48900 0.03800 0.90300
H4 H 0.56800 -0.00500 0.61000
H5 H 0.59700 -0.13800 0.76500
H6 H 0.44100 -0.24700 0.61200
H7 H 0.41300 -0.12500 0.46200
H8 H 0.26100 -0.39600 1.08100
H9 H 0.21000 -0.45700 0.89600
Cd1C Cd 0.20930 -0.18270 0.86200
Cd1B Cd 0.70930 -0.31730 0.13800
O2C O 0.11450 -0.12470 1.11760
O3A O 0.03060 -0.21300 0.72540
O4A O 0.17500 -0.28790 0.56520
O6 O 0.17960 0.39250 0.80140
H10 H 0.10700 0.35000 0.80100
H11 H 0.22600 0.34400 0.88000
loop_
_geom_bond_atom_site_label_1
_geom_bond_atom_site_label_2
_geom_bond_site_symmetry_1
_geom_bond_site_symmetry_2
Cd1 O2 1_555 1_555
N1 C1 1_555 1_555
O1 C2 1_555 1_555
O2 C2 1_555 1_555
O3 C5 1_555 1_555
O4 C5 1_555 1_555
O5 H8 1_555 1_555
O6 H10 1_555 1_555
C1 C2 1_555 1_555
C3 C1 1_555 1_555
C4 C3 1_555 1_555
C5 C4 1_555 1_555
H1 N1 1_555 1_555
H2 N1 1_555 1_555
H3 C1 1_555 1_555
H4 C3 1_555 1_555
H5 C3 1_555 1_555
H6 C4 1_555 1_555
H7 C4 1_555 1_555
H9 O5 1_555 1_555
H11 O6 1_555 1_555
Cd1C N1 1_555 1_555
Cd1B O3 1_555 1_555
O2C Cd1C 1_555 1_555
O3A Cd1C 1_555 1_555
O4A Cd1C 1_555 1_555
O1 Cd1C 1_555 1_555
O4 Cd1B 1_555 1_555
O5 Cd1C 1_555 1_555

#END
