
#######################################################################
#
#                 Cambridge Crystallographic Data Centre
#                                CCDC 
#
#######################################################################
#
# If this CIF has been generated from an entry in the Cambridge 
# Structural Database, then it will include bibliographic, chemical, 
# crystal, experimental, refinement or atomic coordinate data resulting 
# from the CCDC's data processing and validation procedures.
#
#######################################################################

data_CDPICO
_symmetry_cell_setting           monoclinic
_symmetry_space_group_name_H-M   'P 21/c'
_symmetry_Int_Tables_number      14
_space_group_name_Hall           '-P 2ybc'
loop_
_symmetry_equiv_pos_site_id
_symmetry_equiv_pos_as_xyz
1 x,y,z
2 -x,1/2+y,1/2-z
3 -x,-y,-z
4 x,1/2-y,1/2+z
_cell_length_a                   10.47(2)
_cell_length_b                   11.14(1)
_cell_length_c                   10.45(2)
_cell_angle_alpha                90
_cell_angle_beta                 107.6(1)
_cell_angle_gamma                90
_cell_volume                     1161.79
loop_
_atom_site_label
_atom_site_type_symbol
_atom_site_fract_x
_atom_site_fract_y
_atom_site_fract_z
Cd1 Cd 0.00690 0.14130 0.09560
C1 C 0.31900 0.11700 0.14500
C2 C -0.30800 0.42900 0.09600
C3 C -0.22500 0.33800 0.12500
C4 C -0.03600 0.34300 -0.12000
C5 C 0.45700 0.14400 0.18700
C6 C 0.50600 0.22300 0.28100
C7 C 0.42000 0.30200 0.33300
C8 C 0.28100 0.27000 0.28600
C9 C 0.25900 0.02800 0.04900
C10 C -0.13000 0.38000 -0.04300
C11 C -0.21100 0.48500 -0.07700
C12 C -0.30000 0.50700 -0.00400
N1 N 0.23500 0.18800 0.19600
N2 N -0.13500 0.30900 0.05800
O1 O 0.33100 -0.04200 -0.00400
O2 O 0.13400 -0.00900 0.03300
O3 O -0.03800 0.41900 -0.21700
O4 O 0.03000 0.25000 -0.09100
O2B O -0.13400 0.00900 -0.03300
O3C O -0.03800 0.08100 0.28300
Cd1B Cd -0.00690 -0.14130 -0.09560
C9B C -0.25900 -0.02800 -0.04900
Cd1C Cd 0.00690 0.35870 -0.40440
N1B N -0.23500 -0.18800 -0.19600
N2B N 0.13500 -0.30900 -0.05800
O3A O 0.03800 -0.08100 -0.28300
O4B O -0.03000 -0.25000 0.09100
C1B C -0.31900 -0.11700 -0.14500
O1B O -0.33100 0.04200 0.00400
C8B C -0.28100 -0.27000 -0.28600
C3B C 0.22500 -0.33800 -0.12500
C10B C 0.13000 -0.38000 0.04300
C4B C 0.03600 -0.34300 0.12000
C5B C -0.45700 -0.14400 -0.18700
C7B C -0.42000 -0.30200 -0.33300
C2B C 0.30800 -0.42900 -0.09600
C11B C 0.21100 -0.48500 0.07700
O3B O 0.03800 -0.41900 0.21700
C6B C -0.50600 -0.22300 -0.28100
C12B C 0.30000 -0.50700 0.00400
Cd1A Cd -0.00690 -0.35870 0.40440
loop_
_geom_bond_atom_site_label_1
_geom_bond_atom_site_label_2
_geom_bond_site_symmetry_1
_geom_bond_site_symmetry_2
Cd1 N1 1_555 1_555
C1 C5 1_555 1_555
C2 C3 1_555 1_555
C3 N2 1_555 1_555
C4 C10 1_555 1_555
C5 C6 1_555 1_555
C6 C7 1_555 1_555
C7 C8 1_555 1_555
C8 N1 1_555 1_555
C9 C1 1_555 1_555
C10 C11 1_555 1_555
C11 C12 1_555 1_555
C12 C2 1_555 1_555
N1 C1 1_555 1_555
N2 Cd1 1_555 1_555
O1 C9 1_555 1_555
O2 Cd1 1_555 1_555
O3 C4 1_555 1_555
O4 Cd1 1_555 1_555
O2B Cd1 1_555 1_555
O3C Cd1 1_555 1_555
Cd1B O2 1_555 1_555
C9B O2B 1_555 1_555
Cd1C O3 1_555 1_555
N1B Cd1B 1_555 1_555
N2B Cd1B 1_555 1_555
O3A Cd1B 1_555 1_555
O4B Cd1B 1_555 1_555
C1B C9B 1_555 1_555
O1B C9B 1_555 1_555
C8B N1B 1_555 1_555
C3B N2B 1_555 1_555
C10B N2B 1_555 1_555
C4B O4B 1_555 1_555
C5B C1B 1_555 1_555
C7B C8B 1_555 1_555
C2B C3B 1_555 1_555
C11B C10B 1_555 1_555
O3B C4B 1_555 1_555
C6B C5B 1_555 1_555
C12B C2B 1_555 1_555
Cd1A O3B 1_555 1_555
C4 O4 1_555 1_555
C9 O2 1_555 1_555
C10 N2 1_555 1_555
O2B Cd1B 1_555 1_555
N1B C1B 1_555 1_555
C10B C4B 1_555 1_555
C7B C6B 1_555 1_555
C11B C12B 1_555 1_555

#END
