
#######################################################################
#
#                 Cambridge Crystallographic Data Centre
#                                CCDC 
#
#######################################################################
#
# If this CIF has been generated from an entry in the Cambridge 
# Structural Database, then it will include bibliographic, chemical, 
# crystal, experimental, refinement or atomic coordinate data resulting 
# from the CCDC's data processing and validation procedures.
#
#######################################################################

data_CDPOGL
_symmetry_cell_setting           monoclinic
_symmetry_space_group_name_H-M   'P 21'
_symmetry_Int_Tables_number      4
_space_group_name_Hall           'P 2yb'
loop_
_symmetry_equiv_pos_site_id
_symmetry_equiv_pos_as_xyz
1 x,y,z
2 -x,1/2+y,-z
_cell_length_a                   7.888(2)
_cell_length_b                   8.530(2)
_cell_length_c                   7.733(2)
_cell_angle_alpha                90
_cell_angle_beta                 92.75(1)
_cell_angle_gamma                90
_cell_volume                     519.713
loop_
_atom_site_label
_atom_site_type_symbol
_atom_site_fract_x
_atom_site_fract_y
_atom_site_fract_z
Cd1 Cd 0.07240 0.00000 0.10550
C1 C -0.12470 -0.12480 -0.16940
C2 C -0.20940 -0.19320 -0.33930
C3 C -0.37880 -0.10850 -0.38140
H1 H -0.35580 0.01540 -0.41160
H2 H 0.20300 -0.19610 0.45520
H3 H 0.15230 -0.30720 0.23890
H4 H -0.44340 -0.15510 -0.49200
H5 H -0.12580 -0.16840 -0.44370
H6 H -0.71620 0.10860 -0.45390
H7 H -0.18570 0.12910 0.30590
H8 H -0.25410 -0.04870 0.22870
O1 O -0.08010 -0.23780 -0.05580
O2 O -0.15590 0.01810 0.27010
O3 O -0.09500 0.01220 -0.15770
O4 O -0.22570 -0.35710 -0.32580
O5 O 0.18520 -0.20240 0.28790
O6 O -0.47390 -0.11780 -0.22710
O7 O -0.71210 -0.07130 -0.05790
O8 O -0.68330 0.08920 -0.32940
O9 O -0.76580 -0.18490 -0.36460
P1 P -0.66950 -0.07730 -0.24030
O1A O 0.08010 0.26220 0.05580
O4A O 0.22570 0.14290 0.32580
O7_2 O 0.28790 -0.07130 -0.05790
Cd1A Cd -0.07240 -0.50000 -0.10550
Cd1_2 Cd -0.92760 0.00000 0.10550
H9 H -0.39170 -0.26520 0.21960
H10 H -0.53850 -0.13650 0.07430
O10 O -0.43860 -0.17420 0.15100
loop_
_geom_bond_atom_site_label_1
_geom_bond_atom_site_label_2
_geom_bond_site_symmetry_1
_geom_bond_site_symmetry_2
Cd1 O1 1_555 1_555
C1 C2 1_555 1_555
C2 C3 1_555 1_555
C3 H1 1_555 1_555
H2 O5 1_555 1_555
H3 O5 1_555 1_555
H4 C3 1_555 1_555
H5 C2 1_555 1_555
H6 O8 1_555 1_555
H7 O2 1_555 1_555
H8 O2 1_555 1_555
O1 C1 1_555 1_555
O2 Cd1 1_555 1_555
O3 Cd1 1_555 1_555
O4 C2 1_555 1_555
O5 Cd1 1_555 1_555
O6 C3 1_555 1_555
O7 P1 1_555 1_555
O8 P1 1_555 1_555
O9 P1 1_555 1_555
P1 O6 1_555 1_555
H9 O10 1_555 1_555
H10 O10 1_555 1_555
O1A Cd1 1_555 1_555
O4A Cd1 1_555 1_555
O7_2 Cd1 1_555 1_555
Cd1A O1 1_555 1_555
Cd1_2 O7 1_555 1_555
C1 O3 1_555 1_555
O4 Cd1A 1_555 1_555

#END
