
#######################################################################
#
#                 Cambridge Crystallographic Data Centre
#                                CCDC 
#
#######################################################################
#
# If this CIF has been generated from an entry in the Cambridge 
# Structural Database, then it will include bibliographic, chemical, 
# crystal, experimental, refinement or atomic coordinate data resulting 
# from the CCDC's data processing and validation procedures.
#
#######################################################################

data_CDPYCL03
_symmetry_cell_setting           monoclinic
_symmetry_space_group_name_H-M   'P 21/n'
_symmetry_Int_Tables_number      14
_space_group_name_Hall           '-P 2yn'
loop_
_symmetry_equiv_pos_site_id
_symmetry_equiv_pos_as_xyz
1 x,y,z
2 1/2-x,1/2+y,1/2-z
3 -x,-y,-z
4 1/2+x,1/2-y,1/2+z
_cell_length_a                   17.784(2)
_cell_length_b                   8.666(1)
_cell_length_c                   3.8252(7)
_cell_angle_alpha                90
_cell_angle_beta                 91.54(1)
_cell_angle_gamma                90
_cell_volume                     589.312
loop_
_atom_site_label
_atom_site_type_symbol
_atom_site_fract_x
_atom_site_fract_y
_atom_site_fract_z
Cd1 Cd 0.00000 0.00000 0.00000
Cl1 Cl 0.07807(4) 0.13900(10) -0.49045(20)
N1 N 0.08776(16) -0.20229(35) 0.02534(74)
C1 C 0.15941(21) -0.17639(46) -0.0536(10)
C2 C 0.21395(24) -0.28907(58) -0.0383(12)
C3 C 0.19440(29) -0.43414(65) 0.0664(12)
C4 C 0.12105(35) -0.46296(55) 0.1457(14)
C5 C 0.06975(23) -0.34480(45) 0.1256(11)
H1 H 0.1670(19) -0.0747(48) -0.1366(91)
H2 H 0.2564(28) -0.2727(72) -0.026(14)
H3 H 0.2316(39) -0.5271(70) 0.014(18)
H4 H 0.1094(25) -0.5636(66) 0.270(12)
H5 H 0.0194(21) -0.3540(45) 0.1544(99)
Cl1_2 Cl 0.07807(4) 0.13900(10) 0.50955(20)
N1B N -0.08776(16) 0.20229(35) -0.02534(74)
C1B C -0.15941(21) 0.17639(46) 0.0536(10)
C2B C -0.21395(24) 0.28907(58) 0.0383(12)
C3B C -0.19440(29) 0.43414(65) -0.0664(12)
C4B C -0.12105(35) 0.46296(55) -0.1457(14)
C5B C -0.06975(23) 0.34480(45) -0.1256(11)
H1B H -0.1670(19) 0.0747(48) 0.1366(91)
H2B H -0.2564(28) 0.2727(72) 0.026(14)
H3B H -0.2316(39) 0.5271(70) -0.014(18)
H4B H -0.1094(25) 0.5636(66) -0.270(12)
H5B H -0.0194(21) 0.3540(45) -0.1544(99)
Cl1B Cl -0.07807(4) -0.13900(10) -0.50955(20)
Cl1B_2 Cl -0.07807(4) -0.13900(10) 0.49045(20)
Cd1_2 Cd 0.00000 0.00000 -1.00000
Cd1_3 Cd 0.00000 0.00000 1.00000
loop_
_geom_bond_atom_site_label_1
_geom_bond_atom_site_label_2
_geom_bond_site_symmetry_1
_geom_bond_site_symmetry_2
Cd1 Cl1 1_555 1_555
Cl1 Cd1_2 1_555 1_555
N1 Cd1 1_555 1_555
C1 N1 1_555 1_555
C2 C1 1_555 1_555
C3 C2 1_555 1_555
C4 C3 1_555 1_555
C5 N1 1_555 1_555
H1 C1 1_555 1_555
H2 C2 1_555 1_555
H3 C3 1_555 1_555
H4 C4 1_555 1_555
H5 C5 1_555 1_555
Cl1_2 Cd1 1_555 1_555
N1B Cd1 1_555 1_555
C1B N1B 1_555 1_555
C2B C1B 1_555 1_555
C3B C2B 1_555 1_555
C4B C3B 1_555 1_555
C5B N1B 1_555 1_555
H1B C1B 1_555 1_555
H2B C2B 1_555 1_555
H3B C3B 1_555 1_555
H4B C4B 1_555 1_555
H5B C5B 1_555 1_555
Cl1B Cd1 1_555 1_555
Cl1B_2 Cd1 1_555 1_555
Cd1_2 Cl1B 1_555 1_555
Cd1_3 Cl1_2 1_555 1_555
C4 C5 1_555 1_555
C4B C5B 1_555 1_555
Cl1B_2 Cd1_3 1_555 1_555

#END
