
#######################################################################
#
#                 Cambridge Crystallographic Data Centre
#                                CCDC 
#
#######################################################################
#
# If this CIF has been generated from an entry in the Cambridge 
# Structural Database, then it will include bibliographic, chemical, 
# crystal, experimental, refinement or atomic coordinate data resulting 
# from the CCDC's data processing and validation procedures.
#
#######################################################################

data_CDPYCL04
_symmetry_cell_setting           monoclinic
_symmetry_space_group_name_H-M   'P 21/n'
_symmetry_Int_Tables_number      14
_space_group_name_Hall           '-P 2yn'
loop_
_symmetry_equiv_pos_site_id
_symmetry_equiv_pos_as_xyz
1 x,y,z
2 1/2+x,1/2-y,1/2+z
3 -x,-y,-z
4 1/2-x,1/2+y,1/2-z
_cell_length_a                   3.8233(7)
_cell_length_b                   8.6525(15)
_cell_length_c                   17.748(3)
_cell_angle_alpha                90
_cell_angle_beta                 91.562(4)
_cell_angle_gamma                90
_cell_volume                     586.905
loop_
_atom_site_label
_atom_site_type_symbol
_atom_site_fract_x
_atom_site_fract_y
_atom_site_fract_z
Cd1 Cd 0.0000 0.0000 0.0000
Cl1 Cl -0.49072(14) -0.13917(6) 0.07810(3)
N1 N 0.0236(5) 0.2025(2) 0.08786(10)
C1 C -0.0559(6) 0.1765(3) 0.15949(13)
H1 H -0.1296 0.0724 0.1739
C2 C -0.0389(7) 0.2888(3) 0.21365(14)
H2 H -0.0997 0.2652 0.2657
C3 C 0.0637(8) 0.4341(4) 0.19437(17)
H3 H 0.0792 0.5161 0.2324
C4 C 0.1452(8) 0.4636(3) 0.1207(2)
H4 H 0.2168 0.5673 0.1051
C5 C 0.1240(6) 0.3447(3) 0.06963(14)
H5 H 0.1857 0.3654 0.0174
Cl1_2 Cl 0.50928(14) -0.13917(6) 0.07810(3)
N1B N -0.0236(5) -0.2025(2) -0.08786(10)
C1B C 0.0559(6) -0.1765(3) -0.15949(13)
H1B H 0.1296 -0.0724 -0.1739
C2B C 0.0389(7) -0.2888(3) -0.21365(14)
H2B H 0.0997 -0.2652 -0.2657
C3B C -0.0637(8) -0.4341(4) -0.19437(17)
H3B H -0.0792 -0.5161 -0.2324
C4B C -0.1452(8) -0.4636(3) -0.1207(2)
H4B H -0.2168 -0.5673 -0.1051
C5B C -0.1240(6) -0.3447(3) -0.06963(14)
H5B H -0.1857 -0.3654 -0.0174
Cl1B Cl -0.50928(14) 0.13917(6) -0.07810(3)
Cl1B_2 Cl 0.49072(14) 0.13917(6) -0.07810(3)
Cd1_2 Cd -1.0000 0.0000 0.0000
Cd1_3 Cd 1.0000 0.0000 0.0000
loop_
_geom_bond_atom_site_label_1
_geom_bond_atom_site_label_2
_geom_bond_site_symmetry_1
_geom_bond_site_symmetry_2
Cd1 Cl1 1_555 1_555
Cl1 Cd1_2 1_555 1_555
N1 Cd1 1_555 1_555
C1 N1 1_555 1_555
H1 C1 1_555 1_555
C2 C1 1_555 1_555
H2 C2 1_555 1_555
C3 C2 1_555 1_555
H3 C3 1_555 1_555
C4 C3 1_555 1_555
H4 C4 1_555 1_555
C5 N1 1_555 1_555
H5 C5 1_555 1_555
Cl1_2 Cd1 1_555 1_555
N1B Cd1 1_555 1_555
C1B N1B 1_555 1_555
H1B C1B 1_555 1_555
C2B C1B 1_555 1_555
H2B C2B 1_555 1_555
C3B C2B 1_555 1_555
H3B C3B 1_555 1_555
C4B C3B 1_555 1_555
H4B C4B 1_555 1_555
C5B N1B 1_555 1_555
H5B C5B 1_555 1_555
Cl1B Cd1 1_555 1_555
Cl1B_2 Cd1 1_555 1_555
Cd1_2 Cl1B 1_555 1_555
Cd1_3 Cl1_2 1_555 1_555
C4 C5 1_555 1_555
C4B C5B 1_555 1_555
Cl1B_2 Cd1_3 1_555 1_555

#END
