
#######################################################################
#
#                 Cambridge Crystallographic Data Centre
#                                CCDC 
#
#######################################################################
#
# If this CIF has been generated from an entry in the Cambridge 
# Structural Database, then it will include bibliographic, chemical, 
# crystal, experimental, refinement or atomic coordinate data resulting 
# from the CCDC's data processing and validation procedures.
#
#######################################################################

data_CDUMPA
_symmetry_cell_setting           monoclinic
_symmetry_space_group_name_H-M   'P 21'
_symmetry_Int_Tables_number      4
_space_group_name_Hall           'P 2yb'
loop_
_symmetry_equiv_pos_site_id
_symmetry_equiv_pos_as_xyz
1 x,y,z
2 -x,1/2+y,-z
_cell_length_a                   17.625(6)
_cell_length_b                   6.812(4)
_cell_length_c                   12.156(4)
_cell_angle_alpha                90
_cell_angle_beta                 104.69(3)
_cell_angle_gamma                90
_cell_volume                     1411.76
loop_
_atom_site_label
_atom_site_type_symbol
_atom_site_fract_x
_atom_site_fract_y
_atom_site_fract_z
P1 P 0.39040 0.39840 0.41490
O1 O 0.38790 0.56770 0.33300
O2 O 0.41050 0.45590 0.53890
C1 C 0.08460 0.19070 0.59830
N1 N 0.11510 0.22050 0.71400
O3 O 0.21360 0.25470 0.87280
C2 C 0.21910 0.18450 0.58360
C3 C 0.06770 0.29010 0.34170
C4 C 0.17930 0.19250 0.28080
O4 O 0.16960 0.05680 0.36770
O5 O 0.11100 0.49800 0.20700
C5 C 0.25550 0.71200 0.57140
C6 C 0.15970 0.70490 0.67880
C7 C 0.29740 0.71850 0.76980
C8 C 0.47030 0.70740 1.02110
C9 C 0.59620 0.70510 0.97910
N2 N 0.47770 0.70760 0.82620
O6 O 0.38620 0.88980 0.45440
Cd1 Cd 0.43690 0.75000 0.62890
O7 O 0.30300 0.31480 0.39350
O8 O 0.44050 0.22910 0.38990
N3 N 0.13930 0.17580 0.53470
O9 O 0.01440 0.18110 0.55590
C10 C 0.19410 0.22840 0.76750
C11 C 0.24790 0.21180 0.69710
C12 C 0.10530 0.11440 0.41220
C13 C 0.13700 0.37760 0.30380
C14 C 0.26650 0.22140 0.28540
O10 O 0.01180 0.20270 0.24610
N4 N 0.31560 0.71900 0.66900
C15 C 0.17770 0.70150 0.57130
C16 C 0.21970 0.71540 0.77910
C17 C 0.43500 0.71070 0.90070
C18 C 0.54990 0.70520 1.05730
C19 C 0.55760 0.70340 0.86360
N5 N 0.35420 0.71840 0.87180
O11 O 0.45820 1.11190 0.67610
O8A O 0.55950 0.72910 0.61010
Cd1A Cd 0.56310 0.25000 0.37110
O12 O -0.00580 1.31060 0.82820
O13 O 0.20550 0.98750 0.03930
O14 O 0.06040 0.84070 -0.03720
O15 O 0.30450 0.67740 0.10890
O16 O 0.15820 0.49560 0.01490
loop_
_geom_bond_atom_site_label_1
_geom_bond_atom_site_label_2
_geom_bond_site_symmetry_1
_geom_bond_site_symmetry_2
P1 O1 1_555 1_555
O2 P1 1_555 1_555
C1 N1 1_555 1_555
N1 C10 1_555 1_555
O3 C10 1_555 1_555
C2 N3 1_555 1_555
C3 C12 1_555 1_555
C4 O4 1_555 1_555
O4 C12 1_555 1_555
O5 C13 1_555 1_555
C5 N4 1_555 1_555
C6 C15 1_555 1_555
C7 N4 1_555 1_555
C8 C17 1_555 1_555
C9 C18 1_555 1_555
N2 Cd1 1_555 1_555
O6 Cd1 1_555 1_555
Cd1 O2 1_555 1_555
O7 P1 1_555 1_555
O8 P1 1_555 1_555
N3 C1 1_555 1_555
O9 C1 1_555 1_555
C10 C11 1_555 1_555
C11 C2 1_555 1_555
C12 N3 1_555 1_555
C13 C3 1_555 1_555
C14 C4 1_555 1_555
O10 C3 1_555 1_555
N4 Cd1 1_555 1_555
C15 C5 1_555 1_555
C16 C6 1_555 1_555
C17 N2 1_555 1_555
C18 C8 1_555 1_555
C19 C9 1_555 1_555
N5 C7 1_555 1_555
O11 Cd1 1_555 1_555
O8A Cd1 1_555 1_555
Cd1A O8 1_555 1_555
C4 C13 1_555 1_555
C7 C16 1_555 1_555
N2 C19 1_555 1_555
O7 C14 1_555 1_555
C17 N5 1_555 1_555

#END
