
#######################################################################
#
#                 Cambridge Crystallographic Data Centre
#                                CCDC 
#
#######################################################################
#
# If this CIF has been generated from an entry in the Cambridge 
# Structural Database, then it will include bibliographic, chemical, 
# crystal, experimental, refinement or atomic coordinate data resulting 
# from the CCDC's data processing and validation procedures.
#
#######################################################################

data_CEACET01
_symmetry_cell_setting           monoclinic
_symmetry_space_group_name_H-M   'P 21/c'
_symmetry_Int_Tables_number      14
_space_group_name_Hall           '-P 2ybc'
loop_
_symmetry_equiv_pos_site_id
_symmetry_equiv_pos_as_xyz
1 x,y,z
2 -x,1/2+y,1/2-z
3 -x,-y,-z
4 x,1/2-y,1/2+z
_cell_length_a                   8.411(2)
_cell_length_b                   8.006(1)
_cell_length_c                   15.031(6)
_cell_angle_alpha                90
_cell_angle_beta                 93.98(3)
_cell_angle_gamma                90
_cell_volume                     1009.72
loop_
_atom_site_label
_atom_site_type_symbol
_atom_site_fract_x
_atom_site_fract_y
_atom_site_fract_z
Ce1 Ce 0.54933(3) -1.37493(3) 0.21481(1)
O1 O 0.6566(4) -1.6587(4) 0.2845(2)
O2 O 0.8248(4) -1.4504(4) 0.2808(3)
C1 C 0.8016(5) -1.6009(6) 0.2930(3)
C2 C 0.9329(6) -1.7152(8) 0.3216(5)
O3 O 0.3527(4) -1.6235(4) 0.1920(2)
O4 O 0.3423(5) -1.4435(4) 0.0826(2)
C3 C 0.2870(6) -1.5671(6) 0.1188(3)
C4 C 0.1357(8) -1.6470(7) 0.0787(4)
O5 O 0.6387(4) -1.1679(4) 0.1114(2)
O6 O 0.5825(5) -0.9041(4) 0.1425(2)
C5 C 0.6487(6) -1.0154(6) 0.0986(3)
C6 C 0.7437(9) -0.9573(8) 0.0233(4)
O7 O 0.6735(4) -1.5682(4) 0.1035(2)
H1 H 0.9495 -1.7753 0.2678
H2 H 0.9294 -1.7938 0.3691
H3 H 1.0199 -1.6413 0.3339
H4 H 0.1248 -1.6362 0.0166
H5 H 0.0377 -1.5819 0.1086
H6 H 0.1310 -1.7628 0.0948
H7 H 0.8105 -0.8688 0.0421
H8 H 0.8013 -1.0354 0.0000
H9 H 0.6696 -0.9187 -0.0246
H10 H 0.6688 -1.5636 0.0472
H11 H 0.6341 -1.6714 0.1180
Ce1A Ce 0.45067(3) -0.87493(3) 0.28519(1)
O1A O 0.3434(4) -1.1587(4) 0.2155(2)
O3A O 0.6473(4) -1.1235(4) 0.3080(2)
Ce1A_2 Ce 0.45067(3) -1.87493(3) 0.28519(1)
O6A O 0.4175(5) -1.4041(4) 0.3575(2)
loop_
_geom_bond_atom_site_label_1
_geom_bond_atom_site_label_2
_geom_bond_site_symmetry_1
_geom_bond_site_symmetry_2
Ce1 O1 1_555 1_555
O1 C1 1_555 1_555
O2 Ce1 1_555 1_555
C1 O2 1_555 1_555
C2 C1 1_555 1_555
O3 Ce1 1_555 1_555
O4 Ce1 1_555 1_555
C3 O3 1_555 1_555
C4 C3 1_555 1_555
O5 Ce1 1_555 1_555
O6 C5 1_555 1_555
C5 O5 1_555 1_555
C6 C5 1_555 1_555
O7 Ce1 1_555 1_555
H1 C2 1_555 1_555
H2 C2 1_555 1_555
H3 C2 1_555 1_555
H4 C4 1_555 1_555
H5 C4 1_555 1_555
H6 C4 1_555 1_555
H7 C6 1_555 1_555
H8 C6 1_555 1_555
H9 C6 1_555 1_555
H10 O7 1_555 1_555
H11 O7 1_555 1_555
Ce1A O6 1_555 1_555
O1A Ce1 1_555 1_555
O3A Ce1 1_555 1_555
Ce1A_2 O1 1_555 1_555
O6A Ce1 1_555 1_555
O3 Ce1A_2 1_555 1_555
O4 C3 1_555 1_555
Ce1A O1A 1_555 1_555
Ce1A O3A 1_555 1_555

#END
