
#######################################################################
#
#                 Cambridge Crystallographic Data Centre
#                                CCDC 
#
#######################################################################
#
# If this CIF has been generated from an entry in the Cambridge 
# Structural Database, then it will include bibliographic, chemical, 
# crystal, experimental, refinement or atomic coordinate data resulting 
# from the CCDC's data processing and validation procedures.
#
#######################################################################

data_CEBCAP
_symmetry_cell_setting           monoclinic
_symmetry_space_group_name_H-M   'C 2/m'
_symmetry_Int_Tables_number      12
_space_group_name_Hall           '-C 2y'
loop_
_symmetry_equiv_pos_site_id
_symmetry_equiv_pos_as_xyz
1 x,y,z
2 -x,y,-z
3 1/2+x,1/2+y,z
4 1/2-x,1/2+y,-z
5 -x,-y,-z
6 x,-y,z
7 1/2-x,1/2-y,-z
8 1/2+x,1/2-y,z
_cell_length_a                   6.6529(11)
_cell_length_b                   25.696(6)
_cell_length_c                   8.8244(14)
_cell_angle_alpha                90
_cell_angle_beta                 105.668(12)
_cell_angle_gamma                90
_cell_volume                     1452.5
loop_
_atom_site_label
_atom_site_type_symbol
_atom_site_fract_x
_atom_site_fract_y
_atom_site_fract_z
Ca1 Ca 0.0000 0.20507(6) 0.5000
O1 O 0.2522(5) 0.23614(14) 0.3464(4)
O2 O 0.0211(5) 0.17709(14) 0.2351(4)
O3 O 0.3968(5) 0.09268(13) 0.2585(5)
N1 N 0.2634(6) 0.14087(17) 0.0437(5)
H1 H 0.2003 0.1422 -0.0577
C1 C 0.1869(7) 0.2006(2) 0.2452(6)
C2 C 0.3204(9) 0.1888(2) 0.1344(6)
H2 H 0.3094 0.2183 0.0603
H3 H 0.4681 0.1863 0.1967
C3 C 0.3084(7) 0.0952(2) 0.1165(7)
C4 C 0.2583(7) 0.0476(2) 0.0180(6)
C5 C 0.2939(9) 0.0000 0.0997(9)
H4 H 0.3426 0.0000 0.2113
C6 C 0.1849(7) 0.0473(2) -0.1440(7)
H5 H 0.1566 0.0793 -0.1998
C7 C 0.1518(11) 0.0000 -0.2266(9)
H6 H 0.1070 0.0000 -0.3384
O4 O 0.2456(6) 0.13246(16) 0.5371(5)
H7 H 0.270(9) 0.139(2) 0.448(5)
H8 H 0.365(7) 0.126(2) 0.618(5)
Ca1F Ca 0.5000 0.29493(6) 0.5000
Ca1D Ca 0.0000 -0.20507(6) 0.5000
Ca1B Ca 0.5000 -0.29493(6) 0.5000
O1E O 0.2522(5) -0.23614(14) 0.3464(4)
O1A O -0.2522(5) 0.23614(14) 0.6536(4)
O1F O 0.2478(5) 0.26386(14) 0.6536(4)
O1G O -0.2478(5) 0.26386(14) 0.3464(4)
O2E O 0.0211(5) -0.17709(14) 0.2351(4)
O2A O -0.0211(5) 0.17709(14) 0.7649(4)
O3E O 0.3968(5) -0.09268(13) 0.2585(5)
N1E N 0.2634(6) -0.14087(17) 0.0437(5)
H1E H 0.2003 -0.1422 -0.0577
C1E C 0.1869(7) -0.2006(2) 0.2452(6)
C2E C 0.3204(9) -0.1888(2) 0.1344(6)
H2E H 0.3094 -0.2183 0.0603
H3E H 0.4681 -0.1863 0.1967
C3E C 0.3084(7) -0.0952(2) 0.1165(7)
C4E C 0.2583(7) -0.0476(2) 0.0180(6)
C6E C 0.1849(7) -0.0473(2) -0.1440(7)
H5E H 0.1566 -0.0793 -0.1998
O4A O -0.2456(6) 0.13246(16) 0.4629(5)
H7A H -0.270(9) 0.139(2) 0.552(5)
H8A H -0.365(7) 0.126(2) 0.382(5)
loop_
_geom_bond_atom_site_label_1
_geom_bond_atom_site_label_2
_geom_bond_site_symmetry_1
_geom_bond_site_symmetry_2
Ca1 O1 1_555 1_555
O1 C1 1_555 1_555
O2 Ca1 1_555 1_555
O3 C3 1_555 1_555
N1 H1 1_555 1_555
C1 O2 1_555 1_555
C2 N1 1_555 1_555
H2 C2 1_555 1_555
H3 C2 1_555 1_555
C3 N1 1_555 1_555
C4 C3 1_555 1_555
C5 C4 1_555 1_555
H4 C5 1_555 1_555
C6 C4 1_555 1_555
H5 C6 1_555 1_555
C7 C6 1_555 1_555
H6 C7 1_555 1_555
O4 Ca1 1_555 1_555
H7 O4 1_555 1_555
H8 O4 1_555 1_555
Ca1F O1 1_555 1_555
Ca1D O1E 1_555 1_555
Ca1B O1E 1_555 1_555
O1E C1E 1_555 1_555
O1A Ca1 1_555 1_555
O1F Ca1 1_555 1_555
O1G Ca1 1_555 1_555
O2E Ca1D 1_555 1_555
O2A Ca1 1_555 1_555
O3E C3E 1_555 1_555
N1E H1E 1_555 1_555
C1E O2E 1_555 1_555
C2E N1E 1_555 1_555
H2E C2E 1_555 1_555
H3E C2E 1_555 1_555
C3E N1E 1_555 1_555
C4E C5 1_555 1_555
C6E C7 1_555 1_555
H5E C6E 1_555 1_555
O4A Ca1 1_555 1_555
H7A O4A 1_555 1_555
H8A O4A 1_555 1_555
C1 C2 1_555 1_555
Ca1F O1F 1_555 1_555
C1E C2E 1_555 1_555
C3E C4E 1_555 1_555
C4E C6E 1_555 1_555

#END
