
#######################################################################
#
#                 Cambridge Crystallographic Data Centre
#                                CCDC 
#
#######################################################################
#
# If this CIF has been generated from an entry in the Cambridge 
# Structural Database, then it will include bibliographic, chemical, 
# crystal, experimental, refinement or atomic coordinate data resulting 
# from the CCDC's data processing and validation procedures.
#
#######################################################################

data_CEBCET
_symmetry_cell_setting           monoclinic
_symmetry_space_group_name_H-M   'P 2/c'
_symmetry_Int_Tables_number      13
_space_group_name_Hall           '-P 2yc'
loop_
_symmetry_equiv_pos_site_id
_symmetry_equiv_pos_as_xyz
1 x,y,z
2 -x,y,1/2-z
3 -x,-y,-z
4 x,-y,1/2+z
_cell_length_a                   15.246(3)
_cell_length_b                   6.8008(9)
_cell_length_c                   8.0856(13)
_cell_angle_alpha                90
_cell_angle_beta                 92.234(14)
_cell_angle_gamma                90
_cell_volume                     837.718
loop_
_atom_site_label
_atom_site_type_symbol
_atom_site_fract_x
_atom_site_fract_y
_atom_site_fract_z
Sr1 Sr 0.5000 0.49293(10) 0.2500
N1 N 0.2010(2) 0.8453(6) 0.0277(6)
H1 H 0.1987 0.9743 0.0355
O1 O 0.3378(2) 0.6567(5) 0.2046(5)
O2 O 0.41702(19) 0.6331(5) -0.0175(4)
O3 O 0.1376(2) 0.5575(5) 0.0948(5)
O4 O 0.4109(2) 0.1902(5) 0.0931(5)
H2 H 0.3578 0.2249 0.0671
H3 H 0.4350 0.1668 0.0085
O5 O 0.5000 0.8837(7) 0.2500
C1 C 0.3460(3) 0.6783(6) 0.0524(7)
C2 C 0.2729(3) 0.7585(7) -0.0604(7)
H6 H 0.2975 0.8594 -0.1337
H7 H 0.2494 0.6506 -0.1313
C3 C 0.1386(3) 0.7409(7) 0.0970(6)
C4 C 0.0672(3) 0.8569(7) 0.1762(7)
C5 C 0.0000 0.7567(10) 0.2500
H8 H 0.0000 0.6170 0.2500
C6 C 0.0672(3) 1.0611(7) 0.1788(8)
H9 H 0.1137 1.1315 0.1312
C7 C 0.0000 1.1624(11) 0.2500
H10 H 0.0000 1.3021 0.2500
H11 H 0.461(3) 0.969(7) 0.215(7)
Sr1_2 Sr -0.5000 0.49293(10) 0.2500
Sr1B Sr -0.5000 0.50707(10) 0.7500
Sr1B_2 Sr 0.5000 0.50707(10) -0.2500
N1A N -0.2010(2) 0.8453(6) 0.4723(6)
H1A H -0.1987 0.9743 0.4645
O1A O -0.3378(2) 0.6567(5) 0.2954(5)
O1A_2 O 0.6622(2) 0.6567(5) 0.2954(5)
O2A O -0.41702(19) 0.6331(5) 0.5175(4)
O2A_2 O 0.58298(19) 0.6331(5) 0.5175(4)
O2B O 0.58298(19) 0.3669(5) 0.0175(4)
O2C O 0.41702(19) 0.3669(5) 0.4825(4)
O3A O -0.1376(2) 0.5575(5) 0.4052(5)
O4A O 0.5891(2) 0.1902(5) 0.4069(5)
H2A H 0.6422 0.2249 0.4329
H3A H 0.5650 0.1668 0.4915
C1A C -0.3460(3) 0.6783(6) 0.4476(7)
C1A_2 C 0.6540(3) 0.6783(6) 0.4476(7)
C2A C -0.2729(3) 0.7585(7) 0.5604(7)
H6A H -0.2975 0.8594 0.6337
H7A H -0.2494 0.6506 0.6313
C3A C -0.1386(3) 0.7409(7) 0.4030(6)
C4A C -0.0672(3) 0.8569(7) 0.3238(7)
C6A C -0.0672(3) 1.0611(7) 0.3212(8)
H9A H -0.1137 1.1315 0.3688
H11A H 0.539(3) 0.969(7) 0.285(7)
O6 O 0.2432(2) 0.2619(5) -0.0210(5)
H4 H 0.2603 0.2813 -0.1145
H5 H 0.2128 0.3521 0.0236
loop_
_geom_bond_atom_site_label_1
_geom_bond_atom_site_label_2
_geom_bond_site_symmetry_1
_geom_bond_site_symmetry_2
Sr1 O1 1_555 1_555
N1 H1 1_555 1_555
O1 C1 1_555 1_555
O2 Sr1 1_555 1_555
O3 C3 1_555 1_555
O4 Sr1 1_555 1_555
H2 O4 1_555 1_555
H3 O4 1_555 1_555
O5 Sr1 1_555 1_555
O6 H4 1_555 1_555
H5 O6 1_555 1_555
C1 O2 1_555 1_555
C2 N1 1_555 1_555
H6 C2 1_555 1_555
H7 C2 1_555 1_555
C3 N1 1_555 1_555
C4 C3 1_555 1_555
C5 C4 1_555 1_555
H8 C5 1_555 1_555
C6 C4 1_555 1_555
H9 C6 1_555 1_555
C7 C6 1_555 1_555
H10 C7 1_555 1_555
H11 O5 1_555 1_555
Sr1_2 O1A 1_555 1_555
Sr1B O2A 1_555 1_555
Sr1B_2 O2 1_555 1_555
N1A H1A 1_555 1_555
O1A C1A 1_555 1_555
O1A_2 Sr1 1_555 1_555
O2A Sr1_2 1_555 1_555
O2A_2 Sr1 1_555 1_555
O2B Sr1 1_555 1_555
O2C Sr1 1_555 1_555
O3A C3A 1_555 1_555
O4A Sr1 1_555 1_555
H2A O4A 1_555 1_555
H3A O4A 1_555 1_555
C1A O2A 1_555 1_555
C1A_2 O1A_2 1_555 1_555
C2A N1A 1_555 1_555
H6A C2A 1_555 1_555
H7A C2A 1_555 1_555
C3A N1A 1_555 1_555
C4A C5 1_555 1_555
C6A C7 1_555 1_555
H9A C6A 1_555 1_555
H11A O5 1_555 1_555
C1 C2 1_555 1_555
Sr1B_2 O2B 1_555 1_555
O2A_2 C1A_2 1_555 1_555
C1A C2A 1_555 1_555
C3A C4A 1_555 1_555
C4A C6A 1_555 1_555

#END
