
#######################################################################
#
#                 Cambridge Crystallographic Data Centre
#                                CCDC 
#
#######################################################################
#
# If this CIF has been generated from an entry in the Cambridge 
# Structural Database, then it will include bibliographic, chemical, 
# crystal, experimental, refinement or atomic coordinate data resulting 
# from the CCDC's data processing and validation procedures.
#
#######################################################################

data_CEBDAQ
_symmetry_cell_setting           orthorhombic
_symmetry_space_group_name_H-M   'C 2 2 21'
_symmetry_Int_Tables_number      20
_space_group_name_Hall           'C 2n 2'
loop_
_symmetry_equiv_pos_site_id
_symmetry_equiv_pos_as_xyz
1 x,y,z
2 -x,-y,1/2+z
3 -x,y,1/2-z
4 x,-y,-z
5 1/2+x,1/2+y,z
6 1/2-x,1/2-y,1/2+z
7 1/2-x,1/2+y,1/2-z
8 1/2+x,1/2-y,-z
_cell_length_a                   6.9402(7)
_cell_length_b                   7.9330(7)
_cell_length_c                   29.988(4)
_cell_angle_alpha                90
_cell_angle_beta                 90
_cell_angle_gamma                90
_cell_volume                     1651.04
loop_
_atom_site_label
_atom_site_type_symbol
_atom_site_fract_x
_atom_site_fract_y
_atom_site_fract_z
Cd1 Cd 0.0000 0.33773(5) 0.2500
O1 O 0.1080(4) 0.1501(4) 0.29951(10)
O2 O 0.2079(5) 0.3974(4) 0.32606(12)
O3 O 0.0925(4) 0.3261(5) 0.43027(10)
O4 O -0.2768(4) 0.3326(5) 0.29408(10)
H1 H -0.342(8) 0.425(5) 0.2972(18)
H2 H -0.249(8) 0.319(8) 0.3204(12)
O5 O 0.0000 0.6115(5) 0.2500
H3 H 0.066(7) 0.677(6) 0.2676(14)
C1 C 0.1977(7) 0.2414(6) 0.32865(16)
C2 C 0.2872(8) 0.1412(7) 0.36596(16)
H4 H 0.1864 0.0690 0.3794
H5 H 0.3863 0.0658 0.3531
C3 C 0.2705(6) 0.3228(6) 0.43148(15)
C4 C 0.3830(9) 0.4120(7) 0.4670(2)
C5 C 0.5814(10) 0.4119(8) 0.4672(2)
H6 H 0.6506 0.3517 0.4450
C6 C 0.6794(15) 0.5000 0.5000
H7 H 0.8163 0.5000 0.5000
C7 C 0.2811(14) 0.5000 0.5000
H8 H 0.1442 0.5000 0.5000
N1 N 0.3753(6) 0.2393(5) 0.40093(13)
H9 H 0.513(5) 0.229(5) 0.4049(15)
Cd1A Cd 0.0000 0.66227(5) 0.7500
O1C O 0.1080(4) 0.8499(4) 0.70049(10)
O1B O -0.1080(4) 0.1501(4) 0.20049(10)
O2C O 0.2079(5) 0.6026(4) 0.67394(12)
O3C O 0.0925(4) 0.6739(5) 0.56973(10)
O4B O 0.2768(4) 0.3326(5) 0.20592(10)
H1B H 0.342(8) 0.425(5) 0.2028(18)
H2B H 0.249(8) 0.319(8) 0.1796(12)
H3B H -0.066(7) 0.677(6) 0.2324(14)
C1C C 0.1977(7) 0.7586(6) 0.67135(16)
C2C C 0.2872(8) 0.8588(7) 0.63404(16)
H4C H 0.1864 0.9310 0.6206
H5C H 0.3863 0.9342 0.6469
C3C C 0.2705(6) 0.6772(6) 0.56852(15)
C4C C 0.3830(9) 0.5880(7) 0.5330(2)
C5C C 0.5814(10) 0.5881(8) 0.5328(2)
H6C H 0.6506 0.6483 0.5550
N1C N 0.3753(6) 0.7607(5) 0.59907(13)
H9C H 0.513(5) 0.771(5) 0.5951(15)
O6 O -0.2167(6) 0.1922(4) 0.37725(12)
H10 H -0.111(6) 0.222(6) 0.3873(17)
H11 H -0.218(8) 0.089(4) 0.373(2)
loop_
_geom_bond_atom_site_label_1
_geom_bond_atom_site_label_2
_geom_bond_site_symmetry_1
_geom_bond_site_symmetry_2
Cd1 O1 1_555 1_555
O1 C1 1_555 1_555
O2 C1 1_555 1_555
O3 C3 1_555 1_555
O4 Cd1 1_555 1_555
H1 O4 1_555 1_555
H2 O4 1_555 1_555
O5 Cd1 1_555 1_555
H3 O5 1_555 1_555
C1 C2 1_555 1_555
C2 H4 1_555 1_555
H5 C2 1_555 1_555
C3 C4 1_555 1_555
C4 C5 1_555 1_555
C5 H6 1_555 1_555
C6 C5 1_555 1_555
H7 C6 1_555 1_555
C7 C4 1_555 1_555
H8 C7 1_555 1_555
N1 C2 1_555 1_555
H9 N1 1_555 1_555
O6 H10 1_555 1_555
H11 O6 1_555 1_555
Cd1A O1C 1_555 1_555
O1C C1C 1_555 1_555
O1B Cd1 1_555 1_555
O2C C1C 1_555 1_555
O3C C3C 1_555 1_555
O4B Cd1 1_555 1_555
H1B O4B 1_555 1_555
H2B O4B 1_555 1_555
H3B O5 1_555 1_555
C1C C2C 1_555 1_555
C2C H4C 1_555 1_555
H5C C2C 1_555 1_555
C3C C4C 1_555 1_555
C4C C7 1_555 1_555
C5C C6 1_555 1_555
H6C C5C 1_555 1_555
N1C C2C 1_555 1_555
H9C N1C 1_555 1_555
C3 N1 1_555 1_555
C3C N1C 1_555 1_555
C4C C5C 1_555 1_555

#END
