
#######################################################################
#
#                 Cambridge Crystallographic Data Centre
#                                CCDC 
#
#######################################################################
#
# If this CIF has been generated from an entry in the Cambridge 
# Structural Database, then it will include bibliographic, chemical, 
# crystal, experimental, refinement or atomic coordinate data resulting 
# from the CCDC's data processing and validation procedures.
#
#######################################################################

data_CEBFUL
_symmetry_cell_setting           monoclinic
_symmetry_space_group_name_H-M   'C c'
_symmetry_Int_Tables_number      9
_space_group_name_Hall           'C -2yc'
loop_
_symmetry_equiv_pos_site_id
_symmetry_equiv_pos_as_xyz
1 x,y,z
2 x,-y,1/2+z
3 1/2+x,1/2+y,z
4 1/2+x,1/2-y,1/2+z
_cell_length_a                   15.857(3)
_cell_length_b                   16.469(3)
_cell_length_c                   8.3567(17)
_cell_angle_alpha                90
_cell_angle_beta                 115.94(3)
_cell_angle_gamma                90
_cell_volume                     1962.48
loop_
_atom_site_label
_atom_site_type_symbol
_atom_site_fract_x
_atom_site_fract_y
_atom_site_fract_z
Y1 Y -0.01169(7) -0.14630(5) -0.19625(12)
O1 O -0.0432(6) -0.0066(4) -0.2090(12)
H1 H -0.0016 0.0304 -0.2198
H2 H -0.0973 0.0119 -0.2033
Y2 Y 0.24044(4) -0.24204(6) 0.06589(7)
O2 O 0.0066(5) -0.1079(5) 0.1056(10)
C1 C 0.0826(7) -0.1429(6) 0.1819(14)
C2 C 0.1245(9) -0.1623(9) 0.3798(18)
H3 H 0.1872 -0.1412 0.4374
H4 H 0.1259 -0.2201 0.3961
H5 H 0.0870 -0.1378 0.4309
O3 O 0.1085(5) -0.0757(5) -0.2229(11)
C3 C 0.1939(7) -0.0810(6) -0.1882(15)
O4 O 0.2490(6) -0.1345(5) -0.0891(13)
C4 C 0.2351(11) -0.0185(9) -0.268(2)
H6 H 0.2808 -0.0441 -0.2976
H7 H 0.2646 0.0240 -0.1829
H8 H 0.1860 0.0041 -0.3734
O5 O 0.0894(6) -0.2471(5) -0.2197(11)
C5 C 0.1089(9) -0.3191(7) -0.2429(16)
C6 C 0.0405(13) -0.3675(11) -0.394(3)
H9 H 0.0735 -0.4000 -0.4439
H10 H -0.0018 -0.3316 -0.4839
H11 H 0.0056 -0.4023 -0.3527
O6 O 0.1863(7) -0.3496(5) -0.1421(14)
O7 O -0.1220(6) -0.2300(5) -0.4601(12)
C7 C -0.1107(8) -0.1798(7) -0.5655(15)
O8 O -0.0652(6) -0.1171(5) -0.5074(11)
C8 C -0.1537(11) -0.1991(10) -0.7623(17)
H12 H -0.2030 -0.1610 -0.8256
H13 H -0.1790 -0.2531 -0.7815
H14 H -0.1065 -0.1954 -0.8045
O9 O -0.0309(6) -0.2647(5) -0.0595(13)
C9 C -0.0852(7) -0.3210(7) -0.0694(13)
O10 O -0.1689(6) -0.3268(5) -0.1817(12)
C10 C -0.0477(11) -0.3874(11) 0.067(2)
H15 H -0.0766 -0.4380 0.0147
H16 H -0.0614 -0.3750 0.1655
H17 H 0.0190 -0.3915 0.1086
O11 O -0.1712(6) -0.1417(4) -0.2474(12)
C11 C -0.2407(8) -0.1198(7) -0.2202(15)
O12 O -0.3119(6) -0.1659(6) -0.2709(14)
C12 C -0.2411(10) -0.0404(9) -0.136(2)
H18 H -0.1847 -0.0350 -0.0276
H19 H -0.2945 -0.0375 -0.1109
H20 H -0.2444 0.0028 -0.2161
O13 O 0.1262(5) -0.1646(5) 0.0919(11)
Y2C Y -0.25956(4) -0.25796(6) -0.43411(7)
O7C O 0.3780(6) -0.2700(5) 0.0399(12)
O10C O 0.3311(6) -0.1732(5) 0.3183(12)
O11C O 0.3288(6) -0.3583(4) 0.2526(12)
O12C O 0.1881(6) -0.3341(6) 0.2291(14)
loop_
_geom_bond_atom_site_label_1
_geom_bond_atom_site_label_2
_geom_bond_site_symmetry_1
_geom_bond_site_symmetry_2
Y1 O1 1_555 1_555
O1 H1 1_555 1_555
H2 O1 1_555 1_555
Y2 O4 1_555 1_555
O2 Y1 1_555 1_555
C1 O2 1_555 1_555
C2 C1 1_555 1_555
H3 C2 1_555 1_555
H4 C2 1_555 1_555
H5 C2 1_555 1_555
O3 Y1 1_555 1_555
C3 O3 1_555 1_555
O4 C3 1_555 1_555
C4 C3 1_555 1_555
H6 C4 1_555 1_555
H7 C4 1_555 1_555
H8 C4 1_555 1_555
O5 Y1 1_555 1_555
C5 O5 1_555 1_555
C6 C5 1_555 1_555
H9 C6 1_555 1_555
H10 C6 1_555 1_555
H11 C6 1_555 1_555
O6 Y2 1_555 1_555
O7 Y1 1_555 1_555
C7 O7 1_555 1_555
O8 Y1 1_555 1_555
C8 C7 1_555 1_555
H12 C8 1_555 1_555
H13 C8 1_555 1_555
H14 C8 1_555 1_555
O9 Y1 1_555 1_555
C9 O9 1_555 1_555
O10 C9 1_555 1_555
C10 C9 1_555 1_555
H15 C10 1_555 1_555
H16 C10 1_555 1_555
H17 C10 1_555 1_555
O11 Y1 1_555 1_555
C11 O11 1_555 1_555
O12 C11 1_555 1_555
C12 C11 1_555 1_555
H18 C12 1_555 1_555
H19 C12 1_555 1_555
H20 C12 1_555 1_555
O13 Y1 1_555 1_555
Y2C O7 1_555 1_555
O7C Y2 1_555 1_555
O10C Y2 1_555 1_555
O11C Y2 1_555 1_555
O12C Y2 1_555 1_555
Y2 O5 1_555 1_555
Y2 O13 1_555 1_555
C1 O13 1_555 1_555
C5 O6 1_555 1_555
C7 O8 1_555 1_555
O10 Y2C 1_555 1_555
O11 Y2C 1_555 1_555
O12 Y2C 1_555 1_555

#END
