
#######################################################################
#
#                 Cambridge Crystallographic Data Centre
#                                CCDC 
#
#######################################################################
#
# If this CIF has been generated from an entry in the Cambridge 
# Structural Database, then it will include bibliographic, chemical, 
# crystal, experimental, refinement or atomic coordinate data resulting 
# from the CCDC's data processing and validation procedures.
#
#######################################################################

data_CEBFUL01
_symmetry_cell_setting           monoclinic
_symmetry_space_group_name_H-M   'C c'
_symmetry_Int_Tables_number      9
_space_group_name_Hall           'C -2yc'
loop_
_symmetry_equiv_pos_site_id
_symmetry_equiv_pos_as_xyz
1 x,y,z
2 x,-y,1/2+z
3 1/2+x,1/2+y,z
4 1/2+x,1/2-y,1/2+z
_cell_length_a                   15.8437(11)
_cell_length_b                   16.4641(11)
_cell_length_c                   8.3242(6)
_cell_angle_alpha                90
_cell_angle_beta                 115.8310(10)
_cell_angle_gamma                90
_cell_volume                     1954.43
loop_
_atom_site_label
_atom_site_type_symbol
_atom_site_fract_x
_atom_site_fract_y
_atom_site_fract_z
Y1 Y 0.59626(4) 0.35363(3) 0.50246(6)
Y2 Y 0.34407(4) 0.25810(3) 0.24060(6)
O1 O 0.4763(3) 0.4245(2) 0.5334(5)
O2 O 0.4949(3) 0.2534(2) 0.5291(6)
O3 O 0.5788(3) 0.3927(2) 0.2034(5)
O4 O 0.4588(3) 0.3353(3) 0.2181(5)
O5 O 0.3983(3) 0.1506(2) 0.4518(7)
O6 O 0.8967(3) 0.3343(3) 0.5823(6)
O7 O 0.7563(3) 0.3581(2) 0.5570(6)
O8 O 0.7059(3) 0.2696(2) 0.7693(6)
O9 O 0.7541(3) 0.1735(3) 0.4903(6)
O10 O 0.3356(3) 0.3659(3) 0.4001(6)
O11 O 0.6500(3) 0.3826(2) 0.8175(6)
O12 O 0.6159(3) 0.2356(3) 0.3699(6)
C1 C 0.8269(4) 0.3800(4) 0.5311(9)
C2 C 0.4761(4) 0.1806(4) 0.5546(9)
C3 C 0.5449(6) 0.1316(5) 0.7046(12)
H1 H 0.5498 0.1531 0.8180
H2 H 0.6064 0.1344 0.7032
H3 H 0.5239 0.0749 0.6913
C4 C 0.7388(5) 0.3010(5) 1.0721(9)
H4 H 0.7882 0.3407 1.1364
H5 H 0.7657 0.2463 1.0928
H6 H 0.6903 0.3040 1.1151
C5 C 0.6964(4) 0.3194(3) 0.8775(8)
C6 C 0.5013(4) 0.3568(3) 0.1263(8)
C7 C 0.6692(4) 0.1788(3) 0.3762(8)
C8 C 0.8262(5) 0.4595(4) 0.4454(11)
H7 H 0.8828 0.4645 0.4266
H8 H 0.7707 0.4628 0.3302
H9 H 0.8245 0.5037 0.5229
C9 C 0.3907(4) 0.4188(3) 0.4989(8)
C10 C 0.4608(5) 0.3372(4) -0.0665(9)
H10 H 0.4960 0.3657 -0.1212
H11 H 0.3950 0.3544 -0.1240
H12 H 0.4646 0.2785 -0.0817
C11 C 0.3515(5) 0.4806(4) 0.5799(10)
H13 H 0.3215 0.5243 0.4937
H14 H 0.4024 0.5032 0.6874
H15 H 0.3051 0.4548 0.6116
C12 C 0.6324(5) 0.1132(5) 0.2395(11)
H16 H 0.5693 0.1275 0.1504
H17 H 0.6739 0.1068 0.1809
H18 H 0.6299 0.0620 0.2974
O13 O 0.6290(3) 0.4937(2) 0.5206(6)
H19 H 0.5868 0.5174 0.5560
H20 H 0.6251 0.5246 0.4202
Y2C Y 0.84407(4) 0.24190(3) 0.74060(6)
O6C O 0.3967(3) 0.1657(3) 0.0823(6)
O7C O 0.2563(3) 0.1419(2) 0.0570(6)
O8C O 0.2059(3) 0.2304(2) 0.2693(6)
O9C O 0.2541(3) 0.3265(3) -0.0097(6)
loop_
_geom_bond_atom_site_label_1
_geom_bond_atom_site_label_2
_geom_bond_site_symmetry_1
_geom_bond_site_symmetry_2
Y1 O1 1_555 1_555
Y2 O2 1_555 1_555
O1 C9 1_555 1_555
O2 Y1 1_555 1_555
O3 Y1 1_555 1_555
O4 Y1 1_555 1_555
O5 Y2 1_555 1_555
O6 C1 1_555 1_555
O7 Y1 1_555 1_555
O8 Y1 1_555 1_555
O9 C7 1_555 1_555
O10 Y2 1_555 1_555
O11 Y1 1_555 1_555
O12 Y1 1_555 1_555
C1 O7 1_555 1_555
C2 O2 1_555 1_555
C3 C2 1_555 1_555
H1 C3 1_555 1_555
H2 C3 1_555 1_555
H3 C3 1_555 1_555
C4 H4 1_555 1_555
H5 C4 1_555 1_555
H6 C4 1_555 1_555
C5 O8 1_555 1_555
C6 O3 1_555 1_555
C7 O12 1_555 1_555
C8 C1 1_555 1_555
H7 C8 1_555 1_555
H8 C8 1_555 1_555
H9 C8 1_555 1_555
C9 O10 1_555 1_555
C10 C6 1_555 1_555
H10 C10 1_555 1_555
H11 C10 1_555 1_555
H12 C10 1_555 1_555
C11 C9 1_555 1_555
H13 C11 1_555 1_555
H14 C11 1_555 1_555
H15 C11 1_555 1_555
C12 C7 1_555 1_555
H16 C12 1_555 1_555
H17 C12 1_555 1_555
H18 C12 1_555 1_555
O13 Y1 1_555 1_555
H19 O13 1_555 1_555
H20 O13 1_555 1_555
Y2C O6 1_555 1_555
O6C Y2 1_555 1_555
O7C Y2 1_555 1_555
O8C Y2 1_555 1_555
O9C Y2 1_555 1_555
Y2 O4 1_555 1_555
O4 C6 1_555 1_555
O5 C2 1_555 1_555
O7 Y2C 1_555 1_555
O8 Y2C 1_555 1_555
O9 Y2C 1_555 1_555
O11 C5 1_555 1_555
C4 C5 1_555 1_555

#END
