
#######################################################################
#
#                 Cambridge Crystallographic Data Centre
#                                CCDC 
#
#######################################################################
#
# If this CIF has been generated from an entry in the Cambridge 
# Structural Database, then it will include bibliographic, chemical, 
# crystal, experimental, refinement or atomic coordinate data resulting 
# from the CCDC's data processing and validation procedures.
#
#######################################################################

data_CEBGAS
_symmetry_cell_setting           orthorhombic
_symmetry_space_group_name_H-M   'P b c a'
_symmetry_Int_Tables_number      61
_space_group_name_Hall           '-P 2ac 2ab'
loop_
_symmetry_equiv_pos_site_id
_symmetry_equiv_pos_as_xyz
1 x,y,z
2 1/2-x,-y,1/2+z
3 1/2+x,1/2-y,-z
4 -x,1/2+y,1/2-z
5 -x,-y,-z
6 1/2+x,y,1/2-z
7 1/2-x,1/2+y,z
8 x,1/2-y,1/2+z
_cell_length_a                   18.457(6)
_cell_length_b                   16.262(5)
_cell_length_c                   21.388(6)
_cell_angle_alpha                90
_cell_angle_beta                 90
_cell_angle_gamma                90
_cell_volume                     6419.56
loop_
_atom_site_label
_atom_site_type_symbol
_atom_site_fract_x
_atom_site_fract_y
_atom_site_fract_z
Co1 Co 0.25100(3) 0.32306(3) 1.00888(2)
Cl1 Cl 0.34315(5) 0.32117(6) 1.08874(5)
S1 S 0.43718(6) 0.03139(7) 0.85252(5)
O1 O 0.28062(19) 0.0396(3) 0.75679(16)
N1 N 0.30924(18) 0.2269(2) 0.95832(15)
C1 C 0.2744(2) 0.1651(2) 0.92948(19)
H1 H 0.2231 0.1637 0.9323
Cl2 Cl 0.15861(5) 0.32241(6) 0.92805(5)
S2 S 0.44753(6) -0.04932(7) 0.67229(6)
O2 O 0.4922(2) 0.7480(2) 0.79002(18)
N2 N 0.30998(18) -0.2296(2) 0.55997(15)
C2 C 0.3082(2) 0.1035(3) 0.8960(2)
H2 H 0.2807 0.0611 0.8768
S3 S 0.42206(6) 0.60711(7) 0.83439(5)
N3 N 0.31337(17) 0.4142(2) 0.95708(16)
C3 C 0.3823(2) 0.2269(3) 0.95320(19)
H3 H 0.4086 0.2697 0.9732
S4 S 0.56938(6) 0.88958(6) 0.82658(5)
N4 N 0.69059(18) 1.0819(2) 0.94104(16)
C4 C 0.4203(2) 0.1688(2) 0.9208(2)
H4 H 0.4717 0.1719 0.9185
C5 C 0.3835(2) 0.1045(3) 0.89092(18)
C6 C 0.3729(2) -0.0331(3) 0.81130(19)
H5 H 0.3975 -0.0837 0.7968
H6 H 0.3335 -0.0493 0.8401
C7 C 0.3415(2) 0.0116(3) 0.7561(2)
C8 C 0.3895(3) 0.0317(3) 0.7008(2)
H7 H 0.4205 0.0790 0.7124
H8 H 0.3581 0.0497 0.6659
C9 C 0.3900(2) -0.1150(3) 0.63048(19)
C10 C 0.4239(2) -0.1811(3) 0.5999(2)
H9 H 0.4749 -0.1881 0.6025
C11 C 0.3827(2) -0.2354(3) 0.5660(2)
H10 H 0.4066 -0.2797 0.5457
C12 C 0.3155(2) -0.1082(2) 0.62410(18)
H11 H 0.2901 -0.0642 0.6435
C13 C 0.2786(2) -0.1661(2) 0.58932(18)
H12 H 0.2275 -0.1605 0.5859
C14 C 0.3158(2) 0.4107(3) 0.89406(19)
H13 H 0.2924 0.3659 0.8739
C15 C 0.3501(2) 0.4677(2) 0.8574(2)
H14 H 0.3500 0.4622 0.8132
C16 C 0.3485(2) 0.4771(3) 0.9838(2)
H15 H 0.3486 0.4804 1.0281
C17 C 0.3848(2) 0.5376(3) 0.9506(2)
H16 H 0.4091 0.5808 0.9720
C18 C 0.3853(2) 0.5344(2) 0.8858(2)
C19 C 0.4675(2) 0.6788(2) 0.8854(2)
H17 H 0.4334 0.6994 0.9174
H18 H 0.5083 0.6512 0.9069
C20 C 0.4953(2) 0.7494(3) 0.8460(2)
C21 C 0.5263(2) 0.8212(2) 0.8816(2)
H19 H 0.5621 0.8016 0.9127
H20 H 0.4872 0.8506 0.9042
C22 C 0.6126(2) 0.9616(2) 0.87445(19)
C23 C 0.6530(2) 1.0222(3) 0.84371(19)
H21 H 0.6544 1.0238 0.7993
C24 C 0.6905(2) 1.0794(3) 0.87820(19)
H22 H 0.7180 1.1196 0.8564
C25 C 0.6118(2) 0.9642(3) 0.93918(19)
H23 H 0.5847 0.9249 0.9623
C26 C 0.6508(2) 1.0245(3) 0.96989(19)
H24 H 0.6493 1.0252 1.0143
Co1A Co 0.24900(3) -0.32306(3) 0.50888(2)
Co1B Co 0.75100(3) 1.17694(3) 0.99112(2)
N2A N 0.19002(18) 0.2296(2) 1.05997(15)
N4B N 0.19059(18) 0.4181(2) 1.05896(16)
O3 O 0.2392(3) -0.1315(4) 0.7524(3)
C27 C 0.1677(6) -0.2506(5) 0.7674(4)
H25 H 0.1302 -0.2108 0.7792
H26 H 0.1722 -0.2924 0.8003
H27 H 0.1544 -0.2772 0.7280
C28 C 0.2427(7) -0.2046(4) 0.7593(4)
C29 C 0.2963(6) -0.2548(4) 0.7529(4)
H28 H 0.3228 -0.2417 0.7145
H29 H 0.2779 -0.3113 0.7506
H30 H 0.3288 -0.2496 0.7889
loop_
_geom_bond_atom_site_label_1
_geom_bond_atom_site_label_2
_geom_bond_site_symmetry_1
_geom_bond_site_symmetry_2
Co1 Cl1 1_555 1_555
S1 C5 1_555 1_555
O1 C7 1_555 1_555
N1 Co1 1_555 1_555
C1 N1 1_555 1_555
H1 C1 1_555 1_555
Cl2 Co1 1_555 1_555
S2 C8 1_555 1_555
O2 C20 1_555 1_555
N2 C11 1_555 1_555
C2 C1 1_555 1_555
H2 C2 1_555 1_555
S3 C18 1_555 1_555
O3 C28 1_555 1_555
N3 Co1 1_555 1_555
C3 N1 1_555 1_555
H3 C3 1_555 1_555
S4 C21 1_555 1_555
N4 C24 1_555 1_555
C4 C3 1_555 1_555
H4 C4 1_555 1_555
C5 C2 1_555 1_555
C6 S1 1_555 1_555
H5 C6 1_555 1_555
H6 C6 1_555 1_555
C7 C6 1_555 1_555
C8 C7 1_555 1_555
H7 C8 1_555 1_555
H8 C8 1_555 1_555
C9 S2 1_555 1_555
C10 C9 1_555 1_555
H9 C10 1_555 1_555
C11 C10 1_555 1_555
H10 C11 1_555 1_555
C12 C9 1_555 1_555
H11 C12 1_555 1_555
C13 N2 1_555 1_555
H12 C13 1_555 1_555
C14 N3 1_555 1_555
H13 C14 1_555 1_555
C15 C14 1_555 1_555
H14 C15 1_555 1_555
C16 N3 1_555 1_555
H15 C16 1_555 1_555
C17 C16 1_555 1_555
H16 C17 1_555 1_555
C18 C15 1_555 1_555
C19 S3 1_555 1_555
H17 C19 1_555 1_555
H18 C19 1_555 1_555
C20 C19 1_555 1_555
C21 C20 1_555 1_555
H19 C21 1_555 1_555
H20 C21 1_555 1_555
C22 S4 1_555 1_555
C23 C22 1_555 1_555
H21 C23 1_555 1_555
C24 C23 1_555 1_555
H22 C24 1_555 1_555
C25 C22 1_555 1_555
H23 C25 1_555 1_555
C26 N4 1_555 1_555
H24 C26 1_555 1_555
C27 H25 1_555 1_555
H26 C27 1_555 1_555
H27 C27 1_555 1_555
C28 C27 1_555 1_555
C29 C28 1_555 1_555
H28 C29 1_555 1_555
H29 C29 1_555 1_555
H30 C29 1_555 1_555
Co1A N2 1_555 1_555
Co1B N4 1_555 1_555
N2A Co1 1_555 1_555
N4B Co1 1_555 1_555
C4 C5 1_555 1_555
C12 C13 1_555 1_555
C17 C18 1_555 1_555
C25 C26 1_555 1_555

#END
