
#######################################################################
#
#                 Cambridge Crystallographic Data Centre
#                                CCDC 
#
#######################################################################
#
# If this CIF has been generated from an entry in the Cambridge 
# Structural Database, then it will include bibliographic, chemical, 
# crystal, experimental, refinement or atomic coordinate data resulting 
# from the CCDC's data processing and validation procedures.
#
#######################################################################

data_CEBGEW
_symmetry_cell_setting           orthorhombic
_symmetry_space_group_name_H-M   'P c c n'
_symmetry_Int_Tables_number      56
_space_group_name_Hall           '-P 2ab 2ac'
loop_
_symmetry_equiv_pos_site_id
_symmetry_equiv_pos_as_xyz
1 x,y,z
2 1/2-x,1/2-y,z
3 1/2+x,-y,1/2-z
4 -x,1/2+y,1/2-z
5 -x,-y,-z
6 1/2+x,1/2+y,-z
7 1/2-x,y,1/2+z
8 x,1/2-y,1/2+z
_cell_length_a                   9.9218(7)
_cell_length_b                   13.1236(9)
_cell_length_c                   18.0166(16)
_cell_angle_alpha                90
_cell_angle_beta                 90
_cell_angle_gamma                90
_cell_volume                     2345.94
loop_
_atom_site_label
_atom_site_type_symbol
_atom_site_fract_x
_atom_site_fract_y
_atom_site_fract_z
Co1 Co 0.0000 0.5000 0.5000
Cl1 Cl 0.15975(5) 0.47875(4) 0.39815(3)
S1 S -0.51168(5) 0.34822(4) 0.27976(3)
O1 O -0.03971(15) 0.65330(10) 0.46551(8)
O2 O -0.7500 0.2500 0.22691(12)
N1 N -0.16108(15) 0.44112(11) 0.42852(8)
N2 N -0.01300(17) 0.80178(12) 0.40358(10)
C1 C -0.26317(19) 0.38545(14) 0.45543(10)
H1 H -0.2606 0.3678 0.5065
C2 C -0.37160(19) 0.35195(14) 0.41438(10)
H2 H -0.4398 0.3113 0.4366
C3 C -0.16746(19) 0.46360(15) 0.35563(11)
H3 H -0.0950 0.5007 0.3342
C4 C -0.27293(19) 0.43585(15) 0.31068(10)
H4 H -0.2736 0.4554 0.2599
C5 C -0.37940(18) 0.37871(14) 0.33982(10)
C6 C -0.62972(18) 0.28250(15) 0.33867(10)
H5 H -0.5860 0.2220 0.3609
H6 H -0.6589 0.3281 0.3794
C7 C -0.7500 0.2500 0.29383(15)
C8 C 0.01702(19) 0.70550(14) 0.41764(10)
H7 H 0.0865 0.6745 0.3892
C9 C 0.0552(3) 0.85830(18) 0.34484(13)
H8 H 0.1286 0.8169 0.3246
H9 H 0.0920 0.9217 0.3652
H10 H -0.0093 0.8743 0.3053
C10 C -0.1236(3) 0.85255(18) 0.44067(15)
H11 H -0.1983 0.8617 0.4057
H12 H -0.0935 0.9193 0.4587
H13 H -0.1538 0.8111 0.4827
Co1E Co -1.5000 0.0000 0.5000
Cl1D Cl -0.15975(5) 0.52125(4) 0.60185(3)
S1A S -0.98832(5) 0.15178(4) 0.27976(3)
O1D O 0.03971(15) 0.34670(10) 0.53449(8)
N1A N -1.33892(15) 0.05888(11) 0.42852(8)
N1D N 0.16108(15) 0.55888(11) 0.57148(8)
N2D N 0.01300(17) 0.19822(12) 0.59642(10)
C1A C -1.23683(19) 0.11455(14) 0.45543(10)
H1A H -1.2394 0.1322 0.5065
C2A C -1.12840(19) 0.14805(14) 0.41438(10)
H2A H -1.0602 0.1887 0.4366
C3A C -1.33254(19) 0.03640(15) 0.35563(11)
H3A H -1.4050 -0.0007 0.3342
C4A C -1.22707(19) 0.06415(15) 0.31068(10)
H4A H -1.2264 0.0446 0.2599
C5A C -1.12060(18) 0.12129(14) 0.33982(10)
C6A C -0.87028(18) 0.21750(15) 0.33867(10)
H5A H -0.9140 0.2780 0.3609
H6A H -0.8411 0.1719 0.3794
C8D C -0.01702(19) 0.29450(14) 0.58236(10)
H7D H -0.0865 0.3255 0.6108
C9D C -0.0552(3) 0.14170(18) 0.65516(13)
H8D H -0.1286 0.1831 0.6754
H9D H -0.0920 0.0783 0.6348
H10D H 0.0093 0.1257 0.6947
C10D C 0.1236(3) 0.14745(18) 0.55933(15)
H11D H 0.1983 0.1383 0.5943
H12D H 0.0935 0.0807 0.5413
H13D H 0.1538 0.1889 0.5173
loop_
_geom_bond_atom_site_label_1
_geom_bond_atom_site_label_2
_geom_bond_site_symmetry_1
_geom_bond_site_symmetry_2
Co1 Cl1 1_555 1_555
S1 C5 1_555 1_555
O1 Co1 1_555 1_555
O2 C7 1_555 1_555
N1 Co1 1_555 1_555
N2 C8 1_555 1_555
C1 N1 1_555 1_555
H1 C1 1_555 1_555
C2 C1 1_555 1_555
H2 C2 1_555 1_555
C3 N1 1_555 1_555
H3 C3 1_555 1_555
C4 C3 1_555 1_555
H4 C4 1_555 1_555
C5 C2 1_555 1_555
C6 S1 1_555 1_555
H5 C6 1_555 1_555
H6 C6 1_555 1_555
C7 C6 1_555 1_555
C8 O1 1_555 1_555
H7 C8 1_555 1_555
C9 N2 1_555 1_555
H8 C9 1_555 1_555
H9 C9 1_555 1_555
H10 C9 1_555 1_555
C10 N2 1_555 1_555
H11 C10 1_555 1_555
H12 C10 1_555 1_555
H13 C10 1_555 1_555
Co1E N1A 1_555 1_555
Cl1D Co1 1_555 1_555
S1A C5A 1_555 1_555
O1D Co1 1_555 1_555
N1A C1A 1_555 1_555
N1D Co1 1_555 1_555
N2D C8D 1_555 1_555
C1A H1A 1_555 1_555
C2A C1A 1_555 1_555
H2A C2A 1_555 1_555
C3A N1A 1_555 1_555
H3A C3A 1_555 1_555
C4A C3A 1_555 1_555
H4A C4A 1_555 1_555
C5A C2A 1_555 1_555
C6A C7 1_555 1_555
H5A C6A 1_555 1_555
H6A C6A 1_555 1_555
C8D O1D 1_555 1_555
H7D C8D 1_555 1_555
C9D N2D 1_555 1_555
H8D C9D 1_555 1_555
H9D C9D 1_555 1_555
H10D C9D 1_555 1_555
C10D N2D 1_555 1_555
H11D C10D 1_555 1_555
H12D C10D 1_555 1_555
H13D C10D 1_555 1_555
C4 C5 1_555 1_555
S1A C6A 1_555 1_555
C4A C5A 1_555 1_555

#END
