
#######################################################################
#
#                 Cambridge Crystallographic Data Centre
#                                CCDC 
#
#######################################################################
#
# If this CIF has been generated from an entry in the Cambridge 
# Structural Database, then it will include bibliographic, chemical, 
# crystal, experimental, refinement or atomic coordinate data resulting 
# from the CCDC's data processing and validation procedures.
#
#######################################################################

data_CEBLUR01
_symmetry_cell_setting           monoclinic
_symmetry_space_group_name_H-M   'C 2/c'
_symmetry_Int_Tables_number      15
_space_group_name_Hall           '-C 2yn'
loop_
_symmetry_equiv_pos_site_id
_symmetry_equiv_pos_as_xyz
1 x,y,z
2 -x,y,1/2-z
3 1/2+x,1/2+y,z
4 1/2-x,1/2+y,1/2-z
5 -x,-y,-z
6 x,-y,1/2+z
7 1/2-x,1/2-y,-z
8 1/2+x,1/2-y,1/2+z
_cell_length_a                   15.717(3)
_cell_length_b                   9.922(2)
_cell_length_c                   11.047(2)
_cell_angle_alpha                90
_cell_angle_beta                 101.348(4)
_cell_angle_gamma                90
_cell_volume                     1689.04
loop_
_atom_site_label
_atom_site_type_symbol
_atom_site_fract_x
_atom_site_fract_y
_atom_site_fract_z
Zn1 Zn 0.00000 0.06000 -0.25
N1 N 0.0196 0.1798 -0.0981
C1 C -0.0432 0.1976 -0.0346
H1 H -0.0938 0.1474 -0.0574
C2 C -0.0374 0.2858 0.0629
H2 H -0.0827 0.2946 0.1051
C3 C 0.0375 0.3609 0.0965
C4 C 0.1040 0.3436 0.0314
H3 H 0.1552 0.3926 0.0522
C5 C 0.0924 0.2525 -0.0637
H4 H 0.1372 0.2406 -0.1066
S1 S 0.05587 0.4820 0.21713
N2 N -0.1066 -0.0357 -0.2491
C6 C -0.1685 -0.0978 -0.2722
S2 S -0.2537 -0.1891 -0.3048
Zn1_2 Zn 0.00000 0.06000 0.75
N1A N -0.0196 0.1798 0.5981
N1A_2 N -0.0196 0.1798 -0.4019
C1A C 0.0432 0.1976 0.5346
H1A H 0.0938 0.1474 0.5574
C2A C 0.0374 0.2858 0.4371
H2A H 0.0827 0.2946 0.3949
C3A C -0.0375 0.3609 0.4035
C4A C -0.1040 0.3436 0.4686
H3A H -0.1552 0.3926 0.4478
C5A C -0.0924 0.2525 0.5637
H4A H -0.1372 0.2406 0.6066
S1A S -0.05587 0.4820 0.28287
N2A N 0.1066 -0.0357 -0.2509
C6A C 0.1685 -0.0978 -0.2278
S2A S 0.2537 -0.1891 -0.1952
loop_
_geom_bond_atom_site_label_1
_geom_bond_atom_site_label_2
_geom_bond_site_symmetry_1
_geom_bond_site_symmetry_2
Zn1 N1 1_555 1_555
N1 C1 1_555 1_555
C1 H1 1_555 1_555
C2 C1 1_555 1_555
H2 C2 1_555 1_555
C3 C2 1_555 1_555
C4 C3 1_555 1_555
H3 C4 1_555 1_555
C5 N1 1_555 1_555
H4 C5 1_555 1_555
S1 C3 1_555 1_555
N2 Zn1 1_555 1_555
C6 N2 1_555 1_555
S2 C6 1_555 1_555
Zn1_2 N1A 1_555 1_555
N1A C1A 1_555 1_555
N1A_2 Zn1 1_555 1_555
C1A H1A 1_555 1_555
C2A C1A 1_555 1_555
H2A C2A 1_555 1_555
C3A C2A 1_555 1_555
C4A C3A 1_555 1_555
H3A C4A 1_555 1_555
C5A N1A 1_555 1_555
H4A C5A 1_555 1_555
S1A S1 1_555 1_555
N2A Zn1 1_555 1_555
C6A N2A 1_555 1_555
S2A C6A 1_555 1_555
C4 C5 1_555 1_555
C3A S1A 1_555 1_555
C4A C5A 1_555 1_555

#END
