
#######################################################################
#
#                 Cambridge Crystallographic Data Centre
#                                CCDC 
#
#######################################################################
#
# If this CIF has been generated from an entry in the Cambridge 
# Structural Database, then it will include bibliographic, chemical, 
# crystal, experimental, refinement or atomic coordinate data resulting 
# from the CCDC's data processing and validation procedures.
#
#######################################################################

data_CEBLIF
_symmetry_cell_setting           monoclinic
_symmetry_space_group_name_H-M   'P 21/c'
_symmetry_Int_Tables_number      14
_space_group_name_Hall           '-P 2ybc'
loop_
_symmetry_equiv_pos_site_id
_symmetry_equiv_pos_as_xyz
1 x,y,z
2 -x,1/2+y,1/2-z
3 -x,-y,-z
4 x,1/2-y,1/2+z
_cell_length_a                   20.668(7)
_cell_length_b                   14.172(5)
_cell_length_c                   18.985(6)
_cell_angle_alpha                90
_cell_angle_beta                 106.121(5)
_cell_angle_gamma                90
_cell_volume                     5342.17
loop_
_atom_site_label
_atom_site_type_symbol
_atom_site_fract_x
_atom_site_fract_y
_atom_site_fract_z
Cd1 Cd 0.40455(3) -0.30866(4) 0.17385(3)
Cd2 Cd -0.12788(3) -0.09699(4) 0.15136(3)
N1 N 0.3691(3) -0.4589(5) 0.2014(4)
N2 N 0.4071(3) -0.4128(4) 0.0834(3)
N3 N 0.4434(3) -0.2164(5) 0.0895(4)
N4 N -0.1279(3) -0.2040(5) 0.2477(4)
N5 N -0.1525(4) -0.0198(5) 0.2464(4)
N6 N -0.1297(3) 0.0702(5) 0.1226(4)
O1 O 0.2785(3) -0.2945(5) 0.0961(4)
O2 O 0.3203(3) -0.2320(4) 0.2037(3)
O3 O -0.0457(3) -0.1849(5) 0.1181(4)
O4 O -0.0028(3) -0.0840(5) 0.2053(5)
O5 O 0.5330(3) -0.3586(6) 0.2231(4)
O6 O 0.4745(3) -0.2956(5) 0.2897(4)
O7 O 0.7408(4) -0.3777(10) 0.6027(4)
O8 O 0.8074(3) -0.3646(6) 0.5386(4)
C1 C 0.3510(4) -0.4805(7) 0.2610(5)
H1 H 0.3536 -0.4345 0.2966
C2 C 0.3279(5) -0.5713(8) 0.2720(6)
H2 H 0.3155 -0.5851 0.3143
C3 C 0.3239(6) -0.6379(8) 0.2207(7)
H3 H 0.3086 -0.6982 0.2268
C4 C 0.3428(5) -0.6154(6) 0.1594(6)
H4 H 0.3402 -0.6608 0.1234
C5 C 0.3655(4) -0.5269(6) 0.1503(5)
C6 C 0.3867(4) -0.4961(6) 0.0835(4)
C7 C 0.3836(7) -0.5679(9) 0.0244(6)
H5 H 0.3982 -0.5396 -0.0145
H6 H 0.3382 -0.5900 0.0055
H7 H 0.4125 -0.6201 0.0444
C8 C 0.4293(5) -0.3731(6) 0.0237(5)
H8 H 0.3905 -0.3545 -0.0159
H9 H 0.4544 -0.4200 0.0049
C9 C 0.4735(4) -0.2879(6) 0.0513(5)
H10 H 0.5155 -0.3095 0.0846
H11 H 0.4842 -0.2580 0.0100
C10 C 0.4973(5) -0.1530(7) 0.1314(6)
H12 H 0.5155 -0.1177 0.0974
H13 H 0.5335 -0.1906 0.1621
C11 C 0.4718(5) -0.0847(7) 0.1790(6)
H14 H 0.5081 -0.0451 0.2054
H15 H 0.4543 -0.1194 0.2131
H16 H 0.4367 -0.0463 0.1486
C12 C 0.3867(4) -0.1652(6) 0.0393(5)
H17 H 0.3646 -0.1281 0.0687
H18 H 0.3544 -0.2114 0.0128
C13 C 0.4040(6) -0.0993(7) -0.0172(6)
H19 H 0.3635 -0.0703 -0.0467
H20 H 0.4247 -0.1351 -0.0480
H21 H 0.4346 -0.0513 0.0079
C14 C -0.1166(5) -0.2971(7) 0.2467(6)
H22 H -0.1090 -0.3235 0.2048
C15 C -0.1155(6) -0.3554(9) 0.3052(8)
H23 H -0.1067 -0.4196 0.3031
C16 C -0.1276(6) -0.3176(9) 0.3654(8)
H24 H -0.1280 -0.3555 0.4053
C17 C -0.1395(6) -0.2213(8) 0.3670(7)
H25 H -0.1475 -0.1942 0.4084
C18 C -0.1396(4) -0.1657(7) 0.3072(5)
C19 C -0.1526(5) -0.0623(6) 0.3043(5)
C20 C -0.1635(7) -0.0150(8) 0.3719(6)
H26 H -0.1715 0.0512 0.3626
H27 H -0.1242 -0.0235 0.4126
H28 H -0.2017 -0.0429 0.3833
C21 C -0.1645(6) 0.0815(7) 0.2372(6)
H29 H -0.1243 0.1158 0.2628
H30 H -0.2007 0.0998 0.2578
C22 C -0.1842(5) 0.1064(7) 0.1524(7)
H31 H -0.2268 0.0771 0.1272
H32 H -0.1887 0.1742 0.1455
C23 C -0.1564(8) 0.0834(8) 0.0410(6)
H33 H -0.1643 0.1498 0.0292
H34 H -0.1986 0.0497 0.0225
C24 C -0.1004(9) 0.0422(9) 0.0051(8)
H35 H -0.1157 0.0489 -0.0473
H36 H -0.0929 -0.0234 0.0174
H37 H -0.0590 0.0764 0.0236
C25 C -0.0670(5) 0.1170(7) 0.1537(8)
H38 H -0.0328 0.0861 0.1357
H39 H -0.0547 0.1081 0.2064
C26 C -0.0648(6) 0.2238(9) 0.1381(9)
H40 H -0.0204 0.2476 0.1607
H41 H -0.0967 0.2562 0.1577
H42 H -0.0759 0.2341 0.0861
C27 C 0.0739(4) -0.1731(7) 0.1582(5)
C28 C 0.1285(4) -0.1375(6) 0.2094(5)
H43 H 0.1229 -0.0976 0.2461
C29 C 0.1936(4) -0.1622(6) 0.2057(5)
H44 H 0.2311 -0.1379 0.2401
C30 C 0.2023(4) -0.2219(6) 0.1518(5)
C31 C 0.1458(4) -0.2567(6) 0.1011(5)
H45 H 0.1508 -0.2970 0.0643
C32 C 0.0820(4) -0.2324(7) 0.1045(5)
H46 H 0.0444 -0.2565 0.0701
C33 C 0.0041(5) -0.1462(8) 0.1611(6)
C34 C 0.2712(4) -0.2510(6) 0.1490(5)
C35 C 0.5853(4) -0.3432(6) 0.3514(5)
C36 C 0.6481(4) -0.3701(7) 0.3460(5)
H47 H 0.6548 -0.3841 0.3007
C37 C 0.7005(4) -0.3757(6) 0.4091(5)
H48 H 0.7431 -0.3919 0.4056
C38 C 0.6919(4) -0.3581(6) 0.4767(4)
C39 C 0.6282(4) -0.3368(7) 0.4812(5)
H49 H 0.6206 -0.3285 0.5268
C40 C 0.5759(4) -0.3277(6) 0.4186(5)
H50 H 0.5334 -0.3107 0.4222
C41 C 0.5277(4) -0.3325(6) 0.2832(5)
C42 C 0.7500(4) -0.3664(7) 0.5448(5)
Cd2C Cd 0.87212(3) -0.40301(4) 0.65136(3)
O7C O -0.2592(4) -0.1223(10) 0.1027(4)
O8C O -0.1926(3) -0.1354(6) 0.0386(4)
O9 O 0.5935(6) -0.4744(8) 0.1481(5)
O10 O -0.1954(6) -0.4852(8) 0.1116(7)
O11 O 0.2438(6) -0.3386(10) -0.0620(7)
O13 O 0.3248(5) -0.2462(9) 0.3543(6)
O14 O 0.4480(6) -0.1608(9) 0.3729(7)
O17 O 0.0174(19) -0.018(2) 0.3627(19)
O19 O -0.2853(8) -0.4165(14) 0.1773(10)
O20 O 0.8035(10) -0.1441(12) 0.5127(8)
O21 O 0.9197(11) -0.1398(11) 0.5555(8)
O12? O 0.219(3) -0.411(3) -0.024(3)
O15? O 0.3774(17) -0.170(2) 0.3411(17)
O16? O 0.7111(8) -0.1698(11) 0.6552(10)
O18? O 0.0578(9) -0.0008(12) 0.3315(9)
loop_
_geom_bond_atom_site_label_1
_geom_bond_atom_site_label_2
_geom_bond_site_symmetry_1
_geom_bond_site_symmetry_2
Cd1 N1 1_555 1_555
Cd2 N4 1_555 1_555
N1 C1 1_555 1_555
N2 Cd1 1_555 1_555
N3 Cd1 1_555 1_555
N4 C14 1_555 1_555
N5 Cd2 1_555 1_555
N6 Cd2 1_555 1_555
O1 Cd1 1_555 1_555
O2 Cd1 1_555 1_555
O3 Cd2 1_555 1_555
O4 Cd2 1_555 1_555
O5 Cd1 1_555 1_555
O6 Cd1 1_555 1_555
O7 C42 1_555 1_555
O8 C42 1_555 1_555
C1 H1 1_555 1_555
C2 C1 1_555 1_555
H2 C2 1_555 1_555
C3 C2 1_555 1_555
H3 C3 1_555 1_555
C4 C3 1_555 1_555
H4 C4 1_555 1_555
C5 N1 1_555 1_555
C6 N2 1_555 1_555
C7 C6 1_555 1_555
H5 C7 1_555 1_555
H6 C7 1_555 1_555
H7 C7 1_555 1_555
C8 N2 1_555 1_555
H8 C8 1_555 1_555
H9 C8 1_555 1_555
C9 N3 1_555 1_555
H10 C9 1_555 1_555
H11 C9 1_555 1_555
C10 N3 1_555 1_555
H12 C10 1_555 1_555
H13 C10 1_555 1_555
C11 C10 1_555 1_555
H14 C11 1_555 1_555
H15 C11 1_555 1_555
H16 C11 1_555 1_555
C12 N3 1_555 1_555
H17 C12 1_555 1_555
H18 C12 1_555 1_555
C13 C12 1_555 1_555
H19 C13 1_555 1_555
H20 C13 1_555 1_555
H21 C13 1_555 1_555
C14 H22 1_555 1_555
C15 C14 1_555 1_555
H23 C15 1_555 1_555
C16 C15 1_555 1_555
H24 C16 1_555 1_555
C17 C16 1_555 1_555
H25 C17 1_555 1_555
C18 N4 1_555 1_555
C19 N5 1_555 1_555
C20 C19 1_555 1_555
H26 C20 1_555 1_555
H27 C20 1_555 1_555
H28 C20 1_555 1_555
C21 N5 1_555 1_555
H29 C21 1_555 1_555
H30 C21 1_555 1_555
C22 N6 1_555 1_555
H31 C22 1_555 1_555
H32 C22 1_555 1_555
C23 N6 1_555 1_555
H33 C23 1_555 1_555
H34 C23 1_555 1_555
C24 C23 1_555 1_555
H35 C24 1_555 1_555
H36 C24 1_555 1_555
H37 C24 1_555 1_555
C25 N6 1_555 1_555
H38 C25 1_555 1_555
H39 C25 1_555 1_555
C26 C25 1_555 1_555
H40 C26 1_555 1_555
H41 C26 1_555 1_555
H42 C26 1_555 1_555
C27 C28 1_555 1_555
C28 H43 1_555 1_555
C29 C28 1_555 1_555
H44 C29 1_555 1_555
C30 C29 1_555 1_555
C31 C30 1_555 1_555
H45 C31 1_555 1_555
C32 C27 1_555 1_555
H46 C32 1_555 1_555
C33 O3 1_555 1_555
C34 O1 1_555 1_555
C35 C36 1_555 1_555
C36 H47 1_555 1_555
C37 C36 1_555 1_555
H48 C37 1_555 1_555
C38 C37 1_555 1_555
C39 C38 1_555 1_555
H49 C39 1_555 1_555
C40 C35 1_555 1_555
H50 C40 1_555 1_555
C41 O5 1_555 1_555
C42 C38 1_555 1_555
Cd2C O7 1_555 1_555
O7C Cd2 1_555 1_555
O8C Cd2 1_555 1_555
O2 C34 1_555 1_555
O4 C33 1_555 1_555
O6 C41 1_555 1_555
O8 Cd2C 1_555 1_555
C4 C5 1_555 1_555
C5 C6 1_555 1_555
C8 C9 1_555 1_555
C17 C18 1_555 1_555
C18 C19 1_555 1_555
C21 C22 1_555 1_555
C27 C33 1_555 1_555
C30 C34 1_555 1_555
C31 C32 1_555 1_555
C35 C41 1_555 1_555
C39 C40 1_555 1_555

#END
