
#######################################################################
#
#                 Cambridge Crystallographic Data Centre
#                                CCDC 
#
#######################################################################
#
# If this CIF has been generated from an entry in the Cambridge 
# Structural Database, then it will include bibliographic, chemical, 
# crystal, experimental, refinement or atomic coordinate data resulting 
# from the CCDC's data processing and validation procedures.
#
#######################################################################

data_CEBMAY
_symmetry_cell_setting           orthorhombic
_symmetry_space_group_name_H-M   'C c c 2'
_symmetry_Int_Tables_number      37
_space_group_name_Hall           'C 2 -2c'
loop_
_symmetry_equiv_pos_site_id
_symmetry_equiv_pos_as_xyz
1 x,y,z
2 -x,-y,z
3 x,-y,1/2+z
4 -x,y,1/2+z
5 1/2+x,1/2+y,z
6 1/2-x,1/2-y,z
7 1/2+x,1/2-y,1/2+z
8 1/2-x,1/2+y,1/2+z
_cell_length_a                   14.065(3)
_cell_length_b                   20.322(4)
_cell_length_c                   10.9652(19)
_cell_angle_alpha                90
_cell_angle_beta                 90
_cell_angle_gamma                90
_cell_volume                     3134.17
loop_
_atom_site_label
_atom_site_type_symbol
_atom_site_fract_x
_atom_site_fract_y
_atom_site_fract_z
Fe1 Fe 0.2500 0.2500 0.09623(11)
S1 S 0.11158(14) 0.46074(9) 0.54243(17)
S2 S 0.22445(14) 0.48003(7) 0.65235(15)
S3 S -0.0828(7) 0.2261(6) 0.0660(9)
N1 N 0.2109(3) 0.3248(2) 0.2388(4)
N2 N 0.2277(4) 0.3264(2) 0.9525(5)
N3 N 0.1081(3) 0.2227(2) 0.0960(5)
C1 C 0.0272(4) 0.2182(3) 0.0960(7)
C2 C 0.1265(4) 0.3528(3) 0.2402(6)
H1 H 0.0855 0.3440 0.1757
C3 C 0.0948(4) 0.3946(3) 0.3314(6)
H2 H 0.0345 0.4133 0.3286
C4 C 0.1563(4) 0.4072(3) 0.4265(5)
C5 C 0.2429(4) 0.3790(3) 0.4262(6)
H3 H 0.2860 0.3875 0.4887
C6 C 0.2668(4) 0.3374(3) 0.3322(6)
H4 H 0.3259 0.3170 0.3347
C7 C 0.1745(4) 0.3169(3) 0.8557(6)
H5 H 0.1398 0.2780 0.8507
C8 C 0.1672(4) 0.3616(3) 0.7601(5)
H6 H 0.1279 0.3533 0.6937
C9 C 0.2195(5) 0.4181(2) 0.7670(5)
C10 C 0.2738(5) 0.4294(3) 0.8690(6)
H7 H 0.3078 0.4683 0.8770
C11 C 0.2773(5) 0.3827(3) 0.9586(6)
H8 H 0.3155 0.3903 1.0264
Fe1_2 Fe 0.2500 0.2500 1.09623(11)
S1E S 0.38842(14) 0.03926(9) 0.54243(17)
S2E S 0.27555(14) 0.01997(7) 0.65235(15)
S3E S 0.5828(7) 0.2739(6) 0.0660(9)
N1E N 0.2891(3) 0.1752(2) 0.2388(4)
N2_2 N 0.2277(4) 0.3264(2) -0.0475(5)
N2E N 0.2723(4) 0.1736(2) 0.9525(5)
N2E_2 N 0.2723(4) 0.1736(2) -0.0475(5)
N3E N 0.3919(3) 0.2773(2) 0.0960(5)
C1E C 0.4728(4) 0.2818(3) 0.0960(7)
C2E C 0.3735(4) 0.1472(3) 0.2402(6)
H1E H 0.4145 0.1560 0.1757
C3E C 0.4052(4) 0.1054(3) 0.3314(6)
H2E H 0.4655 0.0867 0.3286
C4E C 0.3437(4) 0.0928(3) 0.4265(5)
C5E C 0.2571(4) 0.1210(3) 0.4262(6)
H3E H 0.2140 0.1125 0.4887
C6E C 0.2332(4) 0.1626(3) 0.3322(6)
H4E H 0.1741 0.1830 0.3347
C7E C 0.3255(4) 0.1831(3) 0.8557(6)
H5E H 0.3602 0.2220 0.8507
C8E C 0.3328(4) 0.1384(3) 0.7601(5)
H6E H 0.3721 0.1467 0.6937
C9E C 0.2805(5) 0.0819(2) 0.7670(5)
C10E C 0.2262(5) 0.0706(3) 0.8690(6)
H7E H 0.1922 0.0317 0.8770
C11E C 0.2227(5) 0.1173(3) 0.9586(6)
H8E H 0.1845 0.1097 1.0264
O1 O -0.0100(10) 0.0451(7) 0.010(5)
O2 O 0.5190(16) 0.4557(10) 0.754(4)
S4? S -0.0845(8) 0.1993(7) 0.1288(11)
loop_
_geom_bond_atom_site_label_1
_geom_bond_atom_site_label_2
_geom_bond_site_symmetry_1
_geom_bond_site_symmetry_2
Fe1 N1 1_555 1_555
S1 S2 1_555 1_555
S2 C9 1_555 1_555
S3 C1 1_555 1_555
N1 C2 1_555 1_555
N2 C7 1_555 1_555
N3 Fe1 1_555 1_555
C1 N3 1_555 1_555
C2 H1 1_555 1_555
C3 C2 1_555 1_555
H2 C3 1_555 1_555
C4 S1 1_555 1_555
C5 C4 1_555 1_555
H3 C5 1_555 1_555
C6 N1 1_555 1_555
H4 C6 1_555 1_555
C7 H5 1_555 1_555
C8 C7 1_555 1_555
H6 C8 1_555 1_555
C9 C8 1_555 1_555
C10 C9 1_555 1_555
H7 C10 1_555 1_555
C11 N2 1_555 1_555
H8 C11 1_555 1_555
Fe1_2 N2 1_555 1_555
S1E S2E 1_555 1_555
S2E C9E 1_555 1_555
S3E C1E 1_555 1_555
N1E Fe1 1_555 1_555
N2_2 Fe1 1_555 1_555
N2E Fe1_2 1_555 1_555
N2E_2 Fe1 1_555 1_555
N3E Fe1 1_555 1_555
C1E N3E 1_555 1_555
C2E N1E 1_555 1_555
H1E C2E 1_555 1_555
C3E C2E 1_555 1_555
H2E C3E 1_555 1_555
C4E S1E 1_555 1_555
C5E C4E 1_555 1_555
H3E C5E 1_555 1_555
C6E N1E 1_555 1_555
H4E C6E 1_555 1_555
C7E N2E 1_555 1_555
H5E C7E 1_555 1_555
C8E C7E 1_555 1_555
H6E C8E 1_555 1_555
C9E C8E 1_555 1_555
C10E C9E 1_555 1_555
H7E C10E 1_555 1_555
C11E N2E 1_555 1_555
H8E C11E 1_555 1_555
C3 C4 1_555 1_555
C5 C6 1_555 1_555
C10 C11 1_555 1_555
C3E C4E 1_555 1_555
C5E C6E 1_555 1_555
C10E C11E 1_555 1_555

#END
