
#######################################################################
#
#                 Cambridge Crystallographic Data Centre
#                                CCDC 
#
#######################################################################
#
# If this CIF has been generated from an entry in the Cambridge 
# Structural Database, then it will include bibliographic, chemical, 
# crystal, experimental, refinement or atomic coordinate data resulting 
# from the CCDC's data processing and validation procedures.
#
#######################################################################

data_CEBMEC
_symmetry_cell_setting           triclinic
_symmetry_space_group_name_H-M   'P -1'
_symmetry_Int_Tables_number      2
_space_group_name_Hall           '-P 1'
loop_
_symmetry_equiv_pos_site_id
_symmetry_equiv_pos_as_xyz
1 x,y,z
2 -x,-y,-z
_cell_length_a                   8.8487(11)
_cell_length_b                   8.9319(11)
_cell_length_c                   9.3418(12)
_cell_angle_alpha                67.868(2)
_cell_angle_beta                 84.765(2)
_cell_angle_gamma                75.732(2)
_cell_volume                     662.836
loop_
_atom_site_label
_atom_site_type_symbol
_atom_site_fract_x
_atom_site_fract_y
_atom_site_fract_z
Co1 Co -0.5000 0.5000 -0.5000
S1 S -0.02112(10) -0.23981(10) -0.21935(9)
S2 S 0.05173(9) -0.27595(10) -0.00691(9)
N1 N -0.3500(3) 0.2719(3) -0.4053(3)
N2 N -0.3337(3) -0.4312(3) 0.3345(3)
C1 C -0.3060(4) 0.1734(4) -0.4875(4)
C2 C -0.2070(4) 0.0188(4) -0.4320(4)
C3 C -0.1461(3) -0.0393(4) -0.2844(3)
C4 C -0.1905(4) 0.0609(4) -0.1990(4)
C5 C -0.2911(4) 0.2139(4) -0.2620(4)
C6 C -0.2011(4) -0.4092(4) 0.3746(4)
C7 C -0.0850(4) -0.3629(4) 0.2718(4)
C8 C -0.1039(3) -0.3363(3) 0.1175(3)
C9 C -0.2384(4) -0.3596(4) 0.0745(4)
C10 C -0.3488(4) -0.4080(4) 0.1855(4)
H5 H -0.351(4) 0.221(4) -0.593(4)
H6 H -0.178(4) -0.053(4) -0.497(4)
H7 H -0.153(4) 0.026(4) -0.093(4)
H8 H -0.325(4) 0.290(5) -0.202(4)
H9 H -0.445(4) -0.432(4) 0.157(4)
H10 H 0.017(4) -0.357(4) 0.311(4)
H11 H -0.255(4) -0.341(4) -0.031(4)
H12 H -0.186(4) -0.430(4) 0.482(4)
Co1_2 Co -0.5000 -0.5000 0.5000
Co1_3 Co -0.5000 1.5000 -1.5000
S1A S -0.97888(10) 1.23981(10) -0.78065(9)
S2A S -1.05173(9) 1.27595(10) -0.99309(9)
N1A N -0.6500(3) 0.7281(3) -0.5947(3)
N2_2 N -0.3337(3) 0.5688(3) -0.6655(3)
N2A N -0.6663(3) 0.4312(3) -0.3345(3)
N2A_2 N -0.6663(3) 1.4312(3) -1.3345(3)
C1A C -0.6940(4) 0.8266(4) -0.5125(4)
C2A C -0.7930(4) 0.9812(4) -0.5680(4)
C3A C -0.8539(3) 1.0393(4) -0.7156(3)
C4A C -0.8095(4) 0.9391(4) -0.8010(4)
C5A C -0.7089(4) 0.7861(4) -0.7380(4)
C6A C -0.7989(4) 1.4092(4) -1.3746(4)
C7A C -0.9150(4) 1.3629(4) -1.2718(4)
C8A C -0.8961(3) 1.3363(3) -1.1175(3)
C9A C -0.7616(4) 1.3596(4) -1.0745(4)
C10A C -0.6512(4) 1.4080(4) -1.1855(4)
H5A H -0.649(4) 0.779(4) -0.407(4)
H6A H -0.822(4) 1.053(4) -0.503(4)
H7A H -0.847(4) 0.974(4) -0.907(4)
H8A H -0.675(4) 0.710(5) -0.798(4)
H9A H -0.555(4) 1.432(4) -1.157(4)
H10A H -1.017(4) 1.357(4) -1.311(4)
H11A H -0.745(4) 1.341(4) -0.969(4)
H12A H -0.814(4) 1.430(4) -1.482(4)
Cl1 Cl -0.63513(10) 0.38194(10) -0.69900(10)
O1 O -0.3884(4) 0.2019(4) -0.8804(4)
C11 C -0.3996(10) 0.0385(7) -0.8124(9)
H1 H -0.480(8) 0.263(9) -0.821(8)
H2 H -0.291(11) -0.012(11) -0.815(10)
H3 H -0.459(9) 0.029(10) -0.883(9)
H4 H -0.421(6) 0.005(7) -0.705(7)
loop_
_geom_bond_atom_site_label_1
_geom_bond_atom_site_label_2
_geom_bond_site_symmetry_1
_geom_bond_site_symmetry_2
Co1 N1 1_555 1_555
S1 S2 1_555 1_555
S2 C8 1_555 1_555
N1 C1 1_555 1_555
N2 C6 1_555 1_555
C1 C2 1_555 1_555
C2 C3 1_555 1_555
C3 S1 1_555 1_555
C4 C3 1_555 1_555
C5 N1 1_555 1_555
C6 C7 1_555 1_555
C7 C8 1_555 1_555
C8 C9 1_555 1_555
C9 C10 1_555 1_555
C10 N2 1_555 1_555
O1 C11 1_555 1_555
C11 H2 1_555 1_555
H1 O1 1_555 1_555
H3 C11 1_555 1_555
H4 C11 1_555 1_555
H5 C1 1_555 1_555
H6 C2 1_555 1_555
H7 C4 1_555 1_555
H8 C5 1_555 1_555
H9 C10 1_555 1_555
H10 C7 1_555 1_555
H11 C9 1_555 1_555
H12 C6 1_555 1_555
Co1_2 N2 1_555 1_555
Co1_3 N2A_2 1_555 1_555
S1A S2A 1_555 1_555
S2A C8A 1_555 1_555
N1A Co1 1_555 1_555
N2_2 Co1 1_555 1_555
N2A Co1 1_555 1_555
N2A_2 C6A 1_555 1_555
C1A N1A 1_555 1_555
C2A C1A 1_555 1_555
C3A S1A 1_555 1_555
C4A C3A 1_555 1_555
C5A N1A 1_555 1_555
C6A C7A 1_555 1_555
C7A C8A 1_555 1_555
C8A C9A 1_555 1_555
C9A C10A 1_555 1_555
C10A N2A_2 1_555 1_555
H5A C1A 1_555 1_555
H6A C2A 1_555 1_555
H7A C4A 1_555 1_555
H8A C5A 1_555 1_555
H9A C10A 1_555 1_555
H10A C7A 1_555 1_555
H11A C9A 1_555 1_555
H12A C6A 1_555 1_555
C4 C5 1_555 1_555
C2A C3A 1_555 1_555
C4A C5A 1_555 1_555

#END
