
#######################################################################
#
#                 Cambridge Crystallographic Data Centre
#                                CCDC 
#
#######################################################################
#
# If this CIF has been generated from an entry in the Cambridge 
# Structural Database, then it will include bibliographic, chemical, 
# crystal, experimental, refinement or atomic coordinate data resulting 
# from the CCDC's data processing and validation procedures.
#
#######################################################################

data_CECJAW
_symmetry_cell_setting           triclinic
_symmetry_space_group_name_H-M   'P -1'
_symmetry_Int_Tables_number      2
_space_group_name_Hall           '-P 1'
loop_
_symmetry_equiv_pos_site_id
_symmetry_equiv_pos_as_xyz
1 x,y,z
2 -x,-y,-z
_cell_length_a                   5.911(2)
_cell_length_b                   8.515(2)
_cell_length_c                   9.621(4)
_cell_angle_alpha                86.81(3)
_cell_angle_beta                 78.09(4)
_cell_angle_gamma                70.42(2)
_cell_volume                     446.374
loop_
_atom_site_label
_atom_site_type_symbol
_atom_site_fract_x
_atom_site_fract_y
_atom_site_fract_z
Cu1 Cu 0.5000 0.5000 0.0000
Cl1 Cl 0.80960(19) 0.52480(15) -0.17364(13)
C1 C 0.0951(7) 0.8188(5) -0.0219(5)
H1 H 0.0014 0.7875 0.0650
C2 C 0.2475(8) 0.9100(6) 0.0208(5)
H2 H 0.3460 0.9393 -0.0637
H3 H 0.3578 0.8376 0.0773
C3 C -0.0877(8) 0.9318(6) -0.1064(5)
H4 H 0.0003 0.9614 -0.1950
H5 H -0.1905 0.8728 -0.1290
N1 N 0.2548(7) 0.6624(5) -0.1018(4)
H12 H 0.169(9) 0.611(6) -0.127(5)
H13 H 0.336(9) 0.685(6) -0.188(6)
Cu1_2 Cu -0.5000 1.5000 0.0000
Cl1A Cl 0.19040(19) 0.47520(15) 0.17364(13)
C1A C -0.0951(7) 1.1812(5) 0.0219(5)
H1A H -0.0014 1.2125 -0.0650
C2A C -0.2475(8) 1.0900(6) -0.0208(5)
H2A H -0.3460 1.0607 0.0637
H3A H -0.3578 1.1624 -0.0773
C3A C 0.0877(8) 1.0682(6) 0.1064(5)
H4A H -0.0003 1.0386 0.1950
H5A H 0.1905 1.1272 0.1290
N1A N -0.2548(7) 1.3376(5) 0.1018(4)
N1A_2 N 0.7452(7) 0.3376(5) 0.1018(4)
H12A H -0.169(9) 1.389(6) 0.127(5)
H12A_2 H 0.831(9) 0.389(6) 0.127(5)
H13A H -0.336(9) 1.315(6) 0.188(6)
H13A_2 H 0.664(9) 0.315(6) 0.188(6)
S1 S 0.6211(3) 0.69458(19) 0.51107(15)
O1 O 0.4114(7) 0.8055(6) 0.6171(4)
C4 C 0.8674(11) 0.7731(9) 0.4944(7)
H6 H 0.9338 0.7501 0.5793
H7 H 0.8094 0.8913 0.4805
H8 H 0.9925 0.7203 0.4144
C5 C 0.5496(12) 0.7550(10) 0.3409(7)
H9 H 0.4141 0.7219 0.3300
H10 H 0.6894 0.7019 0.2684
H11 H 0.5066 0.8738 0.3326
loop_
_geom_bond_atom_site_label_1
_geom_bond_atom_site_label_2
_geom_bond_site_symmetry_1
_geom_bond_site_symmetry_2
Cu1 Cl1 1_555 1_555
S1 O1 1_555 1_555
C1 H1 1_555 1_555
C2 C1 1_555 1_555
H2 C2 1_555 1_555
H3 C2 1_555 1_555
C3 C1 1_555 1_555
H4 C3 1_555 1_555
H5 C3 1_555 1_555
C4 S1 1_555 1_555
H6 C4 1_555 1_555
H7 C4 1_555 1_555
H8 C4 1_555 1_555
C5 S1 1_555 1_555
H9 C5 1_555 1_555
H10 C5 1_555 1_555
H11 C5 1_555 1_555
N1 Cu1 1_555 1_555
H12 N1 1_555 1_555
H13 N1 1_555 1_555
Cu1_2 N1A 1_555 1_555
Cl1A Cu1 1_555 1_555
C1A H1A 1_555 1_555
C2A C3 1_555 1_555
H2A C2A 1_555 1_555
H3A C2A 1_555 1_555
C3A C2 1_555 1_555
H4A C3A 1_555 1_555
H5A C3A 1_555 1_555
N1A C1A 1_555 1_555
N1A_2 Cu1 1_555 1_555
H12A N1A 1_555 1_555
H12A_2 N1A_2 1_555 1_555
H13A N1A 1_555 1_555
H13A_2 N1A_2 1_555 1_555
C1 N1 1_555 1_555
C1A C2A 1_555 1_555
C1A C3A 1_555 1_555

#END
