
#######################################################################
#
#                 Cambridge Crystallographic Data Centre
#                                CCDC 
#
#######################################################################
#
# If this CIF has been generated from an entry in the Cambridge 
# Structural Database, then it will include bibliographic, chemical, 
# crystal, experimental, refinement or atomic coordinate data resulting 
# from the CCDC's data processing and validation procedures.
#
#######################################################################

data_CECNEE
_symmetry_cell_setting           triclinic
_symmetry_space_group_name_H-M   'P -1'
_symmetry_Int_Tables_number      2
_space_group_name_Hall           '-P 1'
loop_
_symmetry_equiv_pos_site_id
_symmetry_equiv_pos_as_xyz
1 x,y,z
2 -x,-y,-z
_cell_length_a                   11.752(2)
_cell_length_b                   13.127(2)
_cell_length_c                   13.268(3)
_cell_angle_alpha                61.126(15)
_cell_angle_beta                 76.858(8)
_cell_angle_gamma                68.480(13)
_cell_volume                     1664.26
loop_
_atom_site_label
_atom_site_type_symbol
_atom_site_fract_x
_atom_site_fract_y
_atom_site_fract_z
Cl1 Cl 1.3918(7) 0.4754(9) -0.4779(8)
C31 C 1.536(4) 0.447(5) -0.519(5)
Cl1A Cl 1.6082(7) 0.5246(9) -0.5221(8)
C31A C 1.464(4) 0.553(5) -0.481(5)
Cu1 Cu 0.81366(8) 0.31050(8) 0.09328(7)
P1 P 1.00934(16) 0.31772(16) 0.02199(15)
P2 P 0.68371(16) 0.39286(16) -0.05019(15)
S1 S 0.7324(2) 0.39684(18) 0.23330(17)
P3 P 0.7431(2) 0.2241(2) 0.33821(17)
S2 S 0.7892(2) 0.12136(19) 0.25750(19)
C1 C 1.0657(6) 0.2707(6) -0.0950(6)
C2 C 0.7555(6) 0.4660(6) -0.1941(6)
C3 C 1.1377(6) 0.2285(6) 0.1160(6)
O1 O 0.8446(8) 0.1635(6) 0.4321(6)
C4 C 0.6290(6) 0.2902(6) -0.0693(6)
C5 C 1.0233(7) 0.4718(6) -0.0425(6)
H1 H 1.1086 0.4684 -0.0660
H2 H 0.9766 0.5230 -0.1108
C6 C 0.7799(7) 0.5726(7) -0.2260(6)
H3 H 0.7547 0.6089 -0.1761
C7 C 1.1346(7) 0.3266(8) -0.1924(7)
H4 H 1.1517 0.3953 -0.2036
C8 C 0.5440(6) 0.5192(6) -0.0516(6)
H5 H 0.5678 0.5838 -0.0542
H6 H 0.5024 0.5521 -0.1210
C9 C 0.8408(8) 0.6274(8) -0.3302(8)
H7 H 0.8559 0.6998 -0.3498
C10 C 0.8554(8) 0.4695(10) -0.3738(8)
H8 H 0.8808 0.4336 -0.4240
C11 C 0.7951(7) 0.4150(8) -0.2705(7)
H9 H 0.7805 0.3425 -0.2516
C12 C 0.6884(7) 0.1648(7) -0.0154(7)
H10 H 0.7489 0.1352 0.0349
C13 C 1.0786(8) 0.1294(7) -0.1668(7)
H11 H 1.0590 0.0629 -0.1580
O2 O 0.6310(7) 0.2038(7) 0.4275(6)
C14 C 1.1787(8) 0.2813(9) -0.2740(7)
H12 H 1.2281 0.3172 -0.3376
C15 C 1.1491(8) 0.1838(8) -0.2602(8)
H13 H 1.1775 0.1543 -0.3154
C16 C 1.2156(11) 0.0911(9) 0.3011(9)
H14 H 1.2014 0.0430 0.3791
C17 C 1.0361(7) 0.1733(7) -0.0847(6)
H15 H 0.9867 0.1367 -0.0216
C18 C 1.1187(8) 0.1585(7) 0.2300(7)
H16 H 1.0399 0.1558 0.2608
C19 C 1.3320(10) 0.0947(9) 0.2576(10)
H17 H 1.3964 0.0494 0.3063
C20 C 1.3545(8) 0.1641(9) 0.1435(9)
H18 H 1.4336 0.1669 0.1138
C21 C 1.2570(7) 0.2306(7) 0.0727(7)
H19 H 1.2715 0.2777 -0.0055
C22 C 0.5370(7) 0.3303(8) -0.1412(8)
H20 H 0.4951 0.4131 -0.1770
C23 C 0.5068(8) 0.2498(10) -0.1603(8)
H21 H 0.4445 0.2779 -0.2083
C24 C 0.8787(8) 0.5751(9) -0.4041(7)
H22 H 0.9200 0.6112 -0.4744
C25 C 0.6588(9) 0.0851(9) -0.0358(10)
H23 H 0.6999 0.0020 -0.0001
C26 C 0.5696(9) 0.1266(10) -0.1078(10)
H24 H 0.5506 0.0720 -0.1220
C27 C 0.5176(11) 0.2297(16) 0.3938(11)
H25 H 0.5253 0.1937 0.3427
H26 H 0.4820 0.3173 0.3522
C28 C 0.4359(11) 0.1794(14) 0.4981(11)
H27 H 0.3566 0.1974 0.4745
H28 H 0.4277 0.2161 0.5479
H29 H 0.4711 0.0926 0.5386
C29 C 0.8542(17) 0.2198(13) 0.4941(13)
H30 H 0.8689 0.2966 0.4388
H31 H 0.7748 0.2395 0.5334
C30 C 0.9351(18) 0.1645(12) 0.5695(13)
H32 H 0.9278 0.2145 0.6061
H33 H 1.0155 0.1495 0.5321
H34 H 0.9224 0.0883 0.6264
Cu1A Cu 1.18634(8) 0.68950(8) -0.09328(7)
Cu1A_2 Cu 0.18634(8) 0.68950(8) -0.09328(7)
P1A P 0.99066(16) 0.68228(16) -0.02199(15)
P2A P 0.31629(16) 0.60714(16) 0.05019(15)
P2A_2 P 1.31629(16) 0.60714(16) 0.05019(15)
S1A S 1.2676(2) 0.60316(18) -0.23330(17)
P3A P 1.2569(2) 0.7759(2) -0.33821(17)
S2A S 1.2108(2) 0.87864(19) -0.25750(19)
C1A C 0.9343(6) 0.7293(6) 0.0950(6)
C2A C 0.2445(6) 0.5340(6) 0.1941(6)
C3A C 0.8623(6) 0.7715(6) -0.1160(6)
O1A O 1.1554(8) 0.8365(6) -0.4321(6)
C4A C 0.3710(6) 0.7098(6) 0.0693(6)
C5A C 0.9767(7) 0.5282(6) 0.0425(6)
H1A H 0.8914 0.5316 0.0660
H2A H 1.0234 0.4770 0.1108
C6A C 0.2201(7) 0.4274(7) 0.2260(6)
H3A H 0.2453 0.3911 0.1761
C7A C 0.8654(7) 0.6734(8) 0.1924(7)
H4A H 0.8483 0.6047 0.2036
C8A C 0.4560(6) 0.4808(6) 0.0516(6)
H5A H 0.4322 0.4162 0.0542
H6A H 0.4976 0.4479 0.1210
C9A C 0.1592(8) 0.3726(8) 0.3302(8)
H7A H 0.1441 0.3002 0.3498
C10A C 0.1446(8) 0.5305(10) 0.3738(8)
H8A H 0.1192 0.5664 0.4240
C11A C 0.2049(7) 0.5850(8) 0.2705(7)
H9A H 0.2195 0.6575 0.2516
C12A C 0.3116(7) 0.8352(7) 0.0154(7)
H10A H 0.2511 0.8648 -0.0349
C13A C 0.9214(8) 0.8706(7) 0.1668(7)
H11A H 0.9410 0.9371 0.1580
O2A O 1.3690(7) 0.7962(7) -0.4275(6)
C14A C 0.8213(8) 0.7187(9) 0.2740(7)
H12A H 0.7719 0.6828 0.3376
C15A C 0.8509(8) 0.8162(8) 0.2602(8)
H13A H 0.8225 0.8457 0.3154
C16A C 0.7844(11) 0.9089(9) -0.3011(9)
H14A H 0.7986 0.9570 -0.3791
C17A C 0.9639(7) 0.8267(7) 0.0847(6)
H15A H 1.0133 0.8633 0.0216
C18A C 0.8813(8) 0.8415(7) -0.2300(7)
H16A H 0.9601 0.8442 -0.2608
C19A C 0.6680(10) 0.9053(9) -0.2576(10)
H17A H 0.6036 0.9506 -0.3063
C20A C 0.6455(8) 0.8359(9) -0.1435(9)
H18A H 0.5664 0.8331 -0.1138
C21A C 0.7430(7) 0.7694(7) -0.0727(7)
H19A H 0.7285 0.7223 0.0055
C22A C 0.4630(7) 0.6697(8) 0.1412(8)
H20A H 0.5049 0.5869 0.1770
C23A C 0.4932(8) 0.7502(10) 0.1603(8)
H21A H 0.5555 0.7221 0.2083
C24A C 0.1213(8) 0.4249(9) 0.4041(7)
H22A H 0.0800 0.3888 0.4744
C25A C 0.3412(9) 0.9149(9) 0.0358(10)
H23A H 0.3001 0.9980 0.0001
C26A C 0.4304(9) 0.8734(10) 0.1078(10)
H24A H 0.4494 0.9280 0.1220
C27A C 1.4824(11) 0.7703(16) -0.3938(11)
H25A H 1.4747 0.8063 -0.3427
H26A H 1.5180 0.6827 -0.3522
C28A C 1.5641(11) 0.8206(14) -0.4981(11)
H27A H 1.6434 0.8026 -0.4745
H28A H 1.5723 0.7839 -0.5479
H29A H 1.5289 0.9074 -0.5386
C29A C 1.1458(17) 0.7802(13) -0.4941(13)
H30A H 1.1311 0.7034 -0.4388
H31A H 1.2252 0.7605 -0.5334
C30A C 1.0649(18) 0.8355(12) -0.5695(13)
H32A H 1.0722 0.7855 -0.6061
H33A H 0.9845 0.8505 -0.5321
H34A H 1.0776 0.9117 -0.6264
loop_
_geom_bond_atom_site_label_1
_geom_bond_atom_site_label_2
_geom_bond_site_symmetry_1
_geom_bond_site_symmetry_2
Cu1 P1 1_555 1_555
P1 C1 1_555 1_555
P2 Cu1 1_555 1_555
S1 Cu1 1_555 1_555
P3 S1 1_555 1_555
S2 Cu1 1_555 1_555
C1 C7 1_555 1_555
C2 P2 1_555 1_555
C3 P1 1_555 1_555
O1 P3 1_555 1_555
C4 P2 1_555 1_555
C5 P1 1_555 1_555
H1 C5 1_555 1_555
H2 C5 1_555 1_555
C6 C2 1_555 1_555
H3 C6 1_555 1_555
C7 H4 1_555 1_555
C8 P2 1_555 1_555
H5 C8 1_555 1_555
H6 C8 1_555 1_555
C9 C6 1_555 1_555
H7 C9 1_555 1_555
C10 H8 1_555 1_555
C11 C2 1_555 1_555
H9 C11 1_555 1_555
C12 C4 1_555 1_555
H10 C12 1_555 1_555
C13 H11 1_555 1_555
O2 P3 1_555 1_555
C14 C7 1_555 1_555
H12 C14 1_555 1_555
C15 C13 1_555 1_555
H13 C15 1_555 1_555
C16 H14 1_555 1_555
C17 C1 1_555 1_555
H15 C17 1_555 1_555
C18 C3 1_555 1_555
H16 C18 1_555 1_555
C19 C16 1_555 1_555
H17 C19 1_555 1_555
C20 C19 1_555 1_555
H18 C20 1_555 1_555
C21 C3 1_555 1_555
H19 C21 1_555 1_555
C22 C4 1_555 1_555
H20 C22 1_555 1_555
C23 C22 1_555 1_555
H21 C23 1_555 1_555
C24 C9 1_555 1_555
H22 C24 1_555 1_555
C25 C12 1_555 1_555
H23 C25 1_555 1_555
C26 C23 1_555 1_555
H24 C26 1_555 1_555
C27 O2 1_555 1_555
H25 C27 1_555 1_555
H26 C27 1_555 1_555
C28 C27 1_555 1_555
H27 C28 1_555 1_555
H28 C28 1_555 1_555
H29 C28 1_555 1_555
C29 O1 1_555 1_555
H30 C29 1_555 1_555
H31 C29 1_555 1_555
C30 C29 1_555 1_555
H32 C30 1_555 1_555
H33 C30 1_555 1_555
H34 C30 1_555 1_555
Cl1 C31 1_555 1_555
C31 Cl1A 1_555 1_555
Cu1A P1A 1_555 1_555
Cu1A_2 P2A 1_555 1_555
P1A C1A 1_555 1_555
P2A C2A 1_555 1_555
P2A_2 Cu1A 1_555 1_555
S1A Cu1A 1_555 1_555
P3A S1A 1_555 1_555
S2A Cu1A 1_555 1_555
C1A C7A 1_555 1_555
C2A C6A 1_555 1_555
C3A P1A 1_555 1_555
O1A P3A 1_555 1_555
C4A P2A 1_555 1_555
C5A C5 1_555 1_555
H1A C5A 1_555 1_555
H2A C5A 1_555 1_555
C6A H3A 1_555 1_555
C7A H4A 1_555 1_555
C8A C8 1_555 1_555
H5A C8A 1_555 1_555
H6A C8A 1_555 1_555
C9A C6A 1_555 1_555
H7A C9A 1_555 1_555
C10A H8A 1_555 1_555
C11A C2A 1_555 1_555
H9A C11A 1_555 1_555
C12A C4A 1_555 1_555
H10A C12A 1_555 1_555
C13A H11A 1_555 1_555
O2A P3A 1_555 1_555
C14A C7A 1_555 1_555
H12A C14A 1_555 1_555
C15A C13A 1_555 1_555
H13A C15A 1_555 1_555
C16A H14A 1_555 1_555
C17A C1A 1_555 1_555
H15A C17A 1_555 1_555
C18A C3A 1_555 1_555
H16A C18A 1_555 1_555
C19A C16A 1_555 1_555
H17A C19A 1_555 1_555
C20A C19A 1_555 1_555
H18A C20A 1_555 1_555
C21A C3A 1_555 1_555
H19A C21A 1_555 1_555
C22A C4A 1_555 1_555
H20A C22A 1_555 1_555
C23A C22A 1_555 1_555
H21A C23A 1_555 1_555
C24A C9A 1_555 1_555
H22A C24A 1_555 1_555
C25A C12A 1_555 1_555
H23A C25A 1_555 1_555
C26A C23A 1_555 1_555
H24A C26A 1_555 1_555
C27A O2A 1_555 1_555
H25A C27A 1_555 1_555
H26A C27A 1_555 1_555
C28A C27A 1_555 1_555
H27A C28A 1_555 1_555
H28A C28A 1_555 1_555
H29A C28A 1_555 1_555
C29A O1A 1_555 1_555
H30A C29A 1_555 1_555
H31A C29A 1_555 1_555
C30A C29A 1_555 1_555
H32A C30A 1_555 1_555
H33A C30A 1_555 1_555
H34A C30A 1_555 1_555
Cl1A C31A 1_555 1_555
C31A Cl1 1_555 1_555
P3 S2 1_555 1_555
C10 C11 1_555 1_555
C10 C24 1_555 1_555
C13 C17 1_555 1_555
C14 C15 1_555 1_555
C16 C18 1_555 1_555
C20 C21 1_555 1_555
C25 C26 1_555 1_555
C31 C31A 1_555 1_555
P1A C5A 1_555 1_555
P2A C8A 1_555 1_555
P3A S2A 1_555 1_555
C10A C11A 1_555 1_555
C10A C24A 1_555 1_555
C13A C17A 1_555 1_555
C14A C15A 1_555 1_555
C16A C18A 1_555 1_555
C20A C21A 1_555 1_555
C25A C26A 1_555 1_555

#END
