
#######################################################################
#
#                 Cambridge Crystallographic Data Centre
#                                CCDC 
#
#######################################################################
#
# If this CIF has been generated from an entry in the Cambridge 
# Structural Database, then it will include bibliographic, chemical, 
# crystal, experimental, refinement or atomic coordinate data resulting 
# from the CCDC's data processing and validation procedures.
#
#######################################################################

data_CECPEG
_symmetry_cell_setting           monoclinic
_symmetry_space_group_name_H-M   'C 2/c'
_symmetry_Int_Tables_number      15
_space_group_name_Hall           '-C 2yn'
loop_
_symmetry_equiv_pos_site_id
_symmetry_equiv_pos_as_xyz
1 x,y,z
2 -x,y,1/2-z
3 1/2+x,1/2+y,z
4 1/2-x,1/2+y,1/2-z
5 -x,-y,-z
6 x,-y,1/2+z
7 1/2-x,1/2-y,-z
8 1/2+x,1/2-y,1/2+z
_cell_length_a                   49.218(3)
_cell_length_b                   7.7609(4)
_cell_length_c                   5.4452(3)
_cell_angle_alpha                90.000
_cell_angle_beta                 128.119(3)
_cell_angle_gamma                90.000
_cell_volume                     1636.35
loop_
_atom_site_label
_atom_site_type_symbol
_atom_site_fract_x
_atom_site_fract_y
_atom_site_fract_z
C1 C -0.1196 0.688(4) 0.133(3)
C2 C -0.1551(1) 0.707(5) -0.109(3)
C3 C -0.1691 0.7610(9) -0.4166(4)
C4 C -0.1432(1) 0.818(5) -0.4407(20)
C5 C -0.1079(1) 0.823(5) -0.185(3)
C6 C -0.0936 0.755(2) 0.1178(14)
C7 C -0.2064 0.7587(9) -0.7024(4)
P1 P -0.0466 0.7569 0.4379
O1 O -0.2197(4) 0.690(3) -0.574(4)
O2 O -0.2126(5) 0.817(3) -0.939(3)
O3 O -0.0338(5) 0.6084(19) 0.327(5)
O4 O -0.0320(5) 0.9244(17) 0.408(5)
O5 O -0.0393(5) 0.712(3) 0.761(2)
Ca1 Ca 0.0000 0.8250(16) 0.2500
C1A C 0.1196 0.688(4) 0.367(3)
C2A C 0.1551(1) 0.707(5) 0.609(3)
C3A C 0.1691 0.7610(9) 0.9166(4)
C4A C 0.1432(1) 0.818(5) 0.9407(20)
C5A C 0.1079(1) 0.823(5) 0.685(3)
C6A C 0.0936 0.755(2) 0.3822(14)
C7A C 0.2064 0.7587(9) 1.2024(4)
P1A P 0.0466 0.7569 0.0621
O1A O 0.2197(4) 0.690(3) 1.074(4)
O2A O 0.2126(5) 0.817(3) 1.439(3)
O3A O 0.0338(5) 0.6084(19) 0.173(5)
O4A O 0.0320(5) 0.9244(17) 0.092(5)
O4D O 0.0320(5) 1.0756(17) 0.592(5)
O4E O -0.0320(5) 1.0756(17) -0.092(5)
O5A O 0.0393(5) 0.712(3) -0.261(2)
O5_2 O -0.0393(5) 0.712(3) -0.239(2)
O5A_2 O 0.0393(5) 0.712(3) 0.739(2)
Ca1D Ca 0.0000 1.1750(16) 0.7500
Ca1_2 Ca 0.0000 0.8250(16) 1.2500
Ca1D_2 Ca 0.0000 1.1750(16) -0.2500
Ca1_3 Ca 0.0000 0.8250(16) -0.7500
loop_
_geom_bond_atom_site_label_1
_geom_bond_atom_site_label_2
_geom_bond_site_symmetry_1
_geom_bond_site_symmetry_2
C1 C2 1_555 1_555
C2 C3 1_555 1_555
C3 C4 1_555 1_555
C4 C5 1_555 1_555
C5 C6 1_555 1_555
C6 C1 1_555 1_555
C7 C3 1_555 1_555
P1 C6 1_555 1_555
O1 C7 1_555 1_555
O2 C7 1_555 1_555
O3 P1 1_555 1_555
O4 P1 1_555 1_555
O5 P1 1_555 1_555
Ca1 O3 1_555 1_555
C1A C2A 1_555 1_555
C2A C3A 1_555 1_555
C3A C4A 1_555 1_555
C4A C5A 1_555 1_555
C5A C6A 1_555 1_555
C6A C1A 1_555 1_555
C7A C3A 1_555 1_555
P1A C6A 1_555 1_555
O1A C7A 1_555 1_555
O2A C7A 1_555 1_555
O3A Ca1 1_555 1_555
O4A Ca1 1_555 1_555
O4D Ca1 1_555 1_555
O4E Ca1 1_555 1_555
O5A P1A 1_555 1_555
O5_2 Ca1 1_555 1_555
O5A_2 Ca1 1_555 1_555
Ca1D O4 1_555 1_555
Ca1_2 O5 1_555 1_555
Ca1D_2 O4A 1_555 1_555
Ca1_3 O5A 1_555 1_555
O4 Ca1 1_555 1_555
P1A O3A 1_555 1_555
P1A O4A 1_555 1_555
O4D Ca1D 1_555 1_555
O4E Ca1D_2 1_555 1_555

#END
