
#######################################################################
#
#                 Cambridge Crystallographic Data Centre
#                                CCDC 
#
#######################################################################
#
# If this CIF has been generated from an entry in the Cambridge 
# Structural Database, then it will include bibliographic, chemical, 
# crystal, experimental, refinement or atomic coordinate data resulting 
# from the CCDC's data processing and validation procedures.
#
#######################################################################

data_CECRUY
_symmetry_cell_setting           monoclinic
_symmetry_space_group_name_H-M   'P 21/c'
_symmetry_Int_Tables_number      14
_space_group_name_Hall           '-P 2ybc'
loop_
_symmetry_equiv_pos_site_id
_symmetry_equiv_pos_as_xyz
1 x,y,z
2 -x,1/2+y,1/2-z
3 -x,-y,-z
4 x,1/2-y,1/2+z
_cell_length_a                   7.1541(12)
_cell_length_b                   9.356(2)
_cell_length_c                   14.2864(18)
_cell_angle_alpha                90
_cell_angle_beta                 118.209(6)
_cell_angle_gamma                90
_cell_volume                     842.669
loop_
_atom_site_label
_atom_site_type_symbol
_atom_site_fract_x
_atom_site_fract_y
_atom_site_fract_z
Cd1 Cd -0.14341(7) -0.94074(5) -0.28397(3)
N1 N -0.5383(9) -0.7931(7) -0.3790(4)
O1 O -0.4388(11) -0.8292(9) -0.2853(5)
O2 O -0.4419(12) -0.8118(11) -0.4298(5)
O3 O -0.7170(11) -0.7433(5) -0.4172(5)
N2 N 0.2179(10) -0.7498(5) -0.2001(4)
O4 O 0.0253(8) -0.7097(5) -0.2457(4)
O5 O 0.2616(8) -0.8775(5) -0.1865(4)
O6 O 0.3565(8) -0.6533(5) -0.1705(4)
N3 N -0.0535(9) -0.9787(6) -0.4188(4)
C1 C -0.1737(12) -0.9264(7) -0.5168(6)
H1 H -0.2976 -0.8734 -0.5313
C2 C 0.1214(13) -1.0520(7) -0.4028(6)
H2 H 0.2111 -1.0900 -0.3342
N4 N -0.0513(9) -0.9762(6) -0.1058(4)
C3 C -0.1814(12) -0.9345(7) -0.0662(6)
H3 H -0.3114 -0.8880 -0.1112
C4 C 0.1264(13) -1.0409(7) -0.0393(6)
H4 H 0.2205 -1.0719 -0.0649
Cd1A Cd 0.14341(7) -1.44074(5) -0.21603(3)
Cd1A_2 Cd 0.14341(7) -0.44074(5) -0.21603(3)
Cd1B Cd 0.14341(7) -1.05926(5) -0.71603(3)
Cd1B_2 Cd 0.14341(7) -1.05926(5) 0.28397(3)
N1A N 0.5383(9) -1.2931(7) -0.1210(4)
O1A O 0.4388(11) -1.3292(9) -0.2147(5)
O2A O 0.4419(12) -1.3118(11) -0.0702(5)
O3A O 0.7170(11) -1.2433(5) -0.0828(5)
N2A N -0.2179(10) -1.2498(5) -0.2999(4)
O4A O -0.0253(8) -1.2097(5) -0.2543(4)
O4_2 O 0.0253(8) -1.7097(5) -0.2457(4)
O5A O -0.2616(8) -1.3775(5) -0.3135(4)
O6A O -0.3565(8) -1.1533(5) -0.3295(4)
O6_2 O 0.3565(8) -1.6533(5) -0.1705(4)
N3B N 0.0535(9) -1.0213(6) -0.5812(4)
N3A N 0.0535(9) -1.4787(6) -0.0812(4)
C1B C 0.1737(12) -1.0736(7) -0.4832(6)
H1B H 0.2976 -1.1266 -0.4687
C2B C -0.1214(13) -0.9480(7) -0.5972(6)
H2B H -0.2111 -0.9100 -0.6658
N4B N 0.0513(9) -1.0238(6) 0.1058(4)
N4A N 0.0513(9) -1.4762(6) -0.3942(4)
C3B C 0.1814(12) -1.0655(7) 0.0662(6)
H3B H 0.3114 -1.1120 0.1112
C4B C -0.1264(13) -0.9591(7) 0.0393(6)
H4B H -0.2205 -0.9281 0.0649
loop_
_geom_bond_atom_site_label_1
_geom_bond_atom_site_label_2
_geom_bond_site_symmetry_1
_geom_bond_site_symmetry_2
Cd1 O1 1_555 1_555
N1 O1 1_555 1_555
O2 Cd1 1_555 1_555
O3 N1 1_555 1_555
N2 O4 1_555 1_555
O4 Cd1 1_555 1_555
O5 Cd1 1_555 1_555
O6 N2 1_555 1_555
N3 Cd1 1_555 1_555
C1 N3 1_555 1_555
H1 C1 1_555 1_555
C2 N3 1_555 1_555
H2 C2 1_555 1_555
N4 Cd1 1_555 1_555
C3 N4 1_555 1_555
H3 C3 1_555 1_555
C4 N4 1_555 1_555
H4 C4 1_555 1_555
Cd1A O1A 1_555 1_555
Cd1A_2 O4 1_555 1_555
Cd1B N3B 1_555 1_555
Cd1B_2 N4B 1_555 1_555
N1A O1A 1_555 1_555
O2A Cd1A 1_555 1_555
O3A N1A 1_555 1_555
N2A O4A 1_555 1_555
O4A Cd1 1_555 1_555
O4_2 Cd1A 1_555 1_555
O5A Cd1A 1_555 1_555
O6A Cd1 1_555 1_555
O6_2 Cd1A 1_555 1_555
N3B C1B 1_555 1_555
N3A Cd1A 1_555 1_555
C1B C2 1_555 1_555
H1B C1B 1_555 1_555
C2B C1 1_555 1_555
H2B C2B 1_555 1_555
N4B C3B 1_555 1_555
N4A Cd1A 1_555 1_555
C3B C4 1_555 1_555
H3B C3B 1_555 1_555
C4B C3 1_555 1_555
H4B C4B 1_555 1_555
N1 O2 1_555 1_555
N2 O5 1_555 1_555
O6 Cd1A_2 1_555 1_555
Cd1A O4A 1_555 1_555
N1A O2A 1_555 1_555
N2A O5A 1_555 1_555
N2A O6A 1_555 1_555
N3B C2B 1_555 1_555
N4B C4B 1_555 1_555

#END
