
#######################################################################
#
#                 Cambridge Crystallographic Data Centre
#                                CCDC 
#
#######################################################################
#
# If this CIF has been generated from an entry in the Cambridge 
# Structural Database, then it will include bibliographic, chemical, 
# crystal, experimental, refinement or atomic coordinate data resulting 
# from the CCDC's data processing and validation procedures.
#
#######################################################################

data_CECROS
_symmetry_cell_setting           monoclinic
_symmetry_space_group_name_H-M   'P 21/n'
_symmetry_Int_Tables_number      14
_space_group_name_Hall           '-P 2yn'
loop_
_symmetry_equiv_pos_site_id
_symmetry_equiv_pos_as_xyz
1 x,y,z
2 1/2-x,1/2+y,1/2-z
3 -x,-y,-z
4 1/2+x,1/2-y,1/2+z
_cell_length_a                   7.6170(6)
_cell_length_b                   18.5674(15)
_cell_length_c                   8.7007(7)
_cell_angle_alpha                90
_cell_angle_beta                 99.0060(10)
_cell_angle_gamma                90
_cell_volume                     1215.35
loop_
_atom_site_label
_atom_site_type_symbol
_atom_site_fract_x
_atom_site_fract_y
_atom_site_fract_z
Cd1 Cd 0.11839(2) 0.108881(10) 0.28792(2)
N1 N -0.0969(3) 0.13289(13) 0.5439(3)
O1 O -0.1498(3) 0.16726(11) 0.4210(2)
O2 O 0.0397(3) 0.09245(10) 0.5449(2)
O3 O -0.1704(3) 0.13691(13) 0.6592(3)
N2 N 0.3248(3) 0.09123(13) 0.0272(3)
O4 O 0.1977(3) 0.04887(11) 0.0434(2)
O5 O 0.3703(3) 0.13687(11) 0.1332(2)
O6 O 0.4010(3) 0.08778(13) -0.0864(3)
O7 O -0.0870(3) 0.02003(11) 0.2419(2)
H1 H -0.116(4) 0.0024(15) 0.1531(17)
H2 H -0.074(5) -0.0147(12) 0.304(3)
N3 N -0.0441(3) 0.18168(12) 0.0984(3)
C1 C -0.2222(4) 0.17879(15) 0.0638(3)
H3 H -0.2845 0.1410 0.1053
C2 C -0.3164(4) 0.23000(15) -0.0313(3)
H4 H -0.4422 0.2264 -0.0530
N4 N -0.2361(3) 0.28437(12) -0.0938(3)
C3 C -0.0576(4) 0.28479(15) -0.0641(3)
H5 H 0.0055 0.3209 -0.1102
C4 C 0.0367(4) 0.23409(15) 0.0318(3)
H6 H 0.1628 0.2367 0.0507
N5 N 0.3554(3) 0.03841(12) 0.4222(3)
C5 C 0.4183(4) 0.05046(15) 0.5723(3)
H7 H 0.3628 0.0858 0.6273
C6 C 0.4373(4) -0.01256(15) 0.3505(3)
H8 H 0.3955 -0.0230 0.2442
Cd1C Cd 0.61839(2) 0.391119(10) 0.78792(2)
Cd1C_2 Cd -0.38161(2) 0.391119(10) -0.21208(2)
Cd1B Cd 0.88161(2) -0.108881(10) 0.71208(2)
N1C N 0.4031(3) 0.36711(13) 1.0439(3)
O1C O 0.3502(3) 0.33274(11) 0.9210(2)
O2C O 0.5397(3) 0.40755(10) 1.0449(2)
O3C O 0.3296(3) 0.36309(13) 1.1592(3)
N2C N 0.8248(3) 0.40877(13) 0.5272(3)
O4C O 0.6977(3) 0.45113(11) 0.5434(2)
O5C O 0.8703(3) 0.36313(11) 0.6332(2)
O6C O 0.9010(3) 0.41222(13) 0.4136(3)
O7C O 0.4130(3) 0.47997(11) 0.7419(2)
H1C H 0.384(4) 0.4976(15) 0.6531(17)
H2C H 0.426(5) 0.5147(12) 0.804(3)
N3C N 0.4559(3) 0.31832(12) 0.5984(3)
C1C C 0.2778(4) 0.32121(15) 0.5638(3)
H3C H 0.2155 0.3590 0.6053
C2C C 0.1836(4) 0.27000(15) 0.4687(3)
H4C H 0.0578 0.2736 0.4470
N4C N 0.2639(3) 0.21563(12) 0.4062(3)
N4_2 N 0.7639(3) 0.28437(12) 0.9062(3)
C3C C 0.4424(4) 0.21521(15) 0.4359(3)
H5C H 0.5055 0.1791 0.3898
C4C C 0.5367(4) 0.26591(15) 0.5318(3)
H6C H 0.6628 0.2633 0.5507
N5B N 0.6446(3) -0.03841(12) 0.5778(3)
N5C N 0.8554(3) 0.46159(12) 0.9222(3)
C5B C 0.5817(4) -0.05046(15) 0.4277(3)
H7B H 0.6372 -0.0858 0.3727
C6B C 0.5627(4) 0.01256(15) 0.6495(3)
H8B H 0.6045 0.0230 0.7558
loop_
_geom_bond_atom_site_label_1
_geom_bond_atom_site_label_2
_geom_bond_site_symmetry_1
_geom_bond_site_symmetry_2
Cd1 O2 1_555 1_555
N1 O1 1_555 1_555
O2 N1 1_555 1_555
O3 N1 1_555 1_555
N2 O4 1_555 1_555
O4 Cd1 1_555 1_555
O5 Cd1 1_555 1_555
O6 N2 1_555 1_555
O7 Cd1 1_555 1_555
H1 O7 1_555 1_555
H2 O7 1_555 1_555
N3 Cd1 1_555 1_555
C1 N3 1_555 1_555
H3 C1 1_555 1_555
C2 C1 1_555 1_555
H4 C2 1_555 1_555
N4 C2 1_555 1_555
C3 N4 1_555 1_555
H5 C3 1_555 1_555
C4 N3 1_555 1_555
H6 C4 1_555 1_555
N5 Cd1 1_555 1_555
C5 N5 1_555 1_555
H7 C5 1_555 1_555
C6 N5 1_555 1_555
H8 C6 1_555 1_555
Cd1C O2C 1_555 1_555
Cd1C_2 N4 1_555 1_555
Cd1B N5B 1_555 1_555
N1C O1C 1_555 1_555
O2C N1C 1_555 1_555
O3C N1C 1_555 1_555
N2C O4C 1_555 1_555
O4C Cd1C 1_555 1_555
O5C Cd1C 1_555 1_555
O6C N2C 1_555 1_555
O7C Cd1C 1_555 1_555
H1C O7C 1_555 1_555
H2C O7C 1_555 1_555
N3C Cd1C 1_555 1_555
C1C N3C 1_555 1_555
H3C C1C 1_555 1_555
C2C C1C 1_555 1_555
H4C C2C 1_555 1_555
N4C Cd1 1_555 1_555
N4_2 Cd1C 1_555 1_555
C3C N4C 1_555 1_555
H5C C3C 1_555 1_555
C4C N3C 1_555 1_555
H6C C4C 1_555 1_555
N5B C5B 1_555 1_555
N5C Cd1C 1_555 1_555
C5B C6 1_555 1_555
H7B C5B 1_555 1_555
C6B C5 1_555 1_555
H8B C6B 1_555 1_555
N2 O5 1_555 1_555
C3 C4 1_555 1_555
N2C O5C 1_555 1_555
C2C N4C 1_555 1_555
C3C C4C 1_555 1_555
N5B C6B 1_555 1_555

#END
