
#######################################################################
#
#                 Cambridge Crystallographic Data Centre
#                                CCDC 
#
#######################################################################
#
# If this CIF has been generated from an entry in the Cambridge 
# Structural Database, then it will include bibliographic, chemical, 
# crystal, experimental, refinement or atomic coordinate data resulting 
# from the CCDC's data processing and validation procedures.
#
#######################################################################

data_CECRIM
_symmetry_cell_setting           tetragonal
_symmetry_space_group_name_H-M   'I 41/a'
_symmetry_Int_Tables_number      88
_space_group_name_Hall           '-I 4ad'
loop_
_symmetry_equiv_pos_site_id
_symmetry_equiv_pos_as_xyz
1 x,y,z
2 3/4-y,1/4+x,1/4+z
3 1/2+x,1/2+y,1/2+z
4 1/4-y,3/4+x,3/4+z
5 1/4+y,1/4-x,1/4+z
6 1/2-x,-y,1/2+z
7 3/4+y,3/4-x,3/4+z
8 -x,1/2-y,z
9 -x,-y,-z
10 1/4+y,3/4-x,3/4-z
11 1/2-x,1/2-y,1/2-z
12 3/4+y,1/4-x,1/4-z
13 3/4-y,3/4+x,3/4-z
14 1/2+x,y,1/2-z
15 1/4-y,1/4+x,1/4-z
16 x,1/2+y,-z
_cell_length_a                   10.6610(11)
_cell_length_b                   10.6610(11)
_cell_length_c                   23.500(2)
_cell_angle_alpha                90
_cell_angle_beta                 90
_cell_angle_gamma                90
_cell_volume                     2670.94
loop_
_atom_site_label
_atom_site_type_symbol
_atom_site_fract_x
_atom_site_fract_y
_atom_site_fract_z
Cd1 Cd 0.5000 0.2500 0.126220(12)
N1 N 0.5000 0.2500 -0.00506(18)
O1 O 0.5815(4) 0.1953(3) 0.02239(19)
O2 O 0.5000 0.2500 -0.05618(16)
N2 N 0.5000 0.2500 0.25171(17)
O3 O 0.5809(2) 0.3109(2) 0.22356(9)
O4 O 0.5000 0.2500 0.30353(17)
N3 N 0.6528(3) 0.0902(3) 0.13457(11)
C1 C 0.7507(3) 0.0953(3) 0.16970(15)
H1 H 0.7576 0.1619 0.1949
C2 C 0.8414(3) 0.0024(3) 0.17025(14)
H2 H 0.9093 0.0092 0.1947
N4 N 0.8352(3) -0.0971(3) 0.13549(11)
C3 C 0.7352(3) -0.1033(3) 0.10066(14)
H3 H 0.7264 -0.1717 0.0766
C4 C 0.6451(3) -0.0097(3) 0.10004(14)
H4 H 0.5780 -0.0164 0.0752
Cd1N Cd 1.0000 -0.2500 0.123780(12)
Cd1N_2 Cd 0.0000 0.7500 0.123780(12)
O1G O 0.4185(4) 0.3047(3) 0.02239(19)
O3G O 0.4191(2) 0.1891(2) 0.22356(9)
N3G N 0.3472(3) 0.4098(3) 0.13457(11)
C1G C 0.2493(3) 0.4047(3) 0.16970(15)
H1G H 0.2424 0.3381 0.1949
C2G C 0.1586(3) 0.4976(3) 0.17025(14)
H2G H 0.0907 0.4908 0.1947
N4G N 0.1648(3) 0.5971(3) 0.13549(11)
N4N N 0.3471(3) 0.0852(3) 0.11451(11)
N4K N 0.6529(3) 0.4148(3) 0.11451(11)
C3G C 0.2648(3) 0.6033(3) 0.10066(14)
H3G H 0.2736 0.6717 0.0766
C4G C 0.3549(3) 0.5097(3) 0.10004(14)
H4G H 0.4220 0.5164 0.0752
loop_
_geom_bond_atom_site_label_1
_geom_bond_atom_site_label_2
_geom_bond_site_symmetry_1
_geom_bond_site_symmetry_2
Cd1 O1 1_555 1_555
N1 O1 1_555 1_555
O2 N1 1_555 1_555
N2 O3 1_555 1_555
O3 Cd1 1_555 1_555
O4 N2 1_555 1_555
N3 Cd1 1_555 1_555
C1 N3 1_555 1_555
H1 C1 1_555 1_555
C2 C1 1_555 1_555
H2 C2 1_555 1_555
N4 C2 1_555 1_555
C3 N4 1_555 1_555
H3 C3 1_555 1_555
C4 N3 1_555 1_555
H4 C4 1_555 1_555
Cd1N N4 1_555 1_555
Cd1N_2 N4G 1_555 1_555
O1G Cd1 1_555 1_555
O3G Cd1 1_555 1_555
N3G Cd1 1_555 1_555
C1G N3G 1_555 1_555
H1G C1G 1_555 1_555
C2G C1G 1_555 1_555
H2G C2G 1_555 1_555
N4G C2G 1_555 1_555
N4N Cd1 1_555 1_555
N4K Cd1 1_555 1_555
C3G N4G 1_555 1_555
H3G C3G 1_555 1_555
C4G N3G 1_555 1_555
H4G C4G 1_555 1_555
N1 O1G 1_555 1_555
N2 O3G 1_555 1_555
C3 C4 1_555 1_555
C3G C4G 1_555 1_555

#END
