
#######################################################################
#
#                 Cambridge Crystallographic Data Centre
#                                CCDC 
#
#######################################################################
#
# If this CIF has been generated from an entry in the Cambridge 
# Structural Database, then it will include bibliographic, chemical, 
# crystal, experimental, refinement or atomic coordinate data resulting 
# from the CCDC's data processing and validation procedures.
#
#######################################################################

data_CECVOW
_symmetry_cell_setting           monoclinic
_symmetry_space_group_name_H-M   'P 21/c'
_symmetry_Int_Tables_number      14
_space_group_name_Hall           '-P 2ybc'
loop_
_symmetry_equiv_pos_site_id
_symmetry_equiv_pos_as_xyz
1 x,y,z
2 -x,1/2+y,1/2-z
3 -x,-y,-z
4 x,1/2-y,1/2+z
_cell_length_a                   6.751(5)
_cell_length_b                   11.916(3)
_cell_length_c                   13.457(5)
_cell_angle_alpha                90
_cell_angle_beta                 100.427(5)
_cell_angle_gamma                90
_cell_volume                     1064.67
loop_
_atom_site_label
_atom_site_type_symbol
_atom_site_fract_x
_atom_site_fract_y
_atom_site_fract_z
Nd1 Nd 0.05251(4) 0.16946(3) 0.25507(2)
O1 O 0.3775(6) 0.0990(4) 0.2189(3)
O2 O 0.7120(6) 0.0935(4) 0.2579(3)
O3 O 0.8345(6) 0.1679(4) 0.7292(3)
O4 O 0.9251(6) 0.0134(3) 0.6545(3)
O5 O 0.0772(6) 0.2569(4) 0.5885(3)
O6 O -0.0015(6) 0.2434(4) 0.4209(3)
O7 O -0.0215(8) 0.0151(4) 0.1196(4)
O8 O 0.2704(6) 0.3494(4) 0.2826(3)
N1 N 0.3499(7) 0.1622(4) 0.4042(4)
C1 C 0.5425(8) 0.1037(5) 0.2809(4)
C2 C 0.5269(8) 0.1205(5) 0.3899(4)
C3 C 0.6828(8) 0.0961(5) 0.4703(4)
C4 C 0.6549(8) 0.1224(5) 0.5661(4)
C5 C 0.8182(8) 0.0995(5) 0.6572(4)
C6 C 0.4768(9) 0.1735(5) 0.5812(4)
C7 C 0.3257(8) 0.1883(5) 0.4981(4)
C8 C 0.1182(8) 0.2336(5) 0.5038(4)
H1 H 0.789(16) 0.059(9) 0.457(8)
H2 H 0.454(16) 0.192(9) 0.641(8)
Nd1_2 Nd 1.05251(4) 0.16946(3) 0.25507(2)
Nd1C Nd 1.05251(4) 0.33054(3) 0.75507(2)
Nd1B Nd 0.94749(4) -0.16946(3) 0.74493(2)
Nd1C_2 Nd 0.05251(4) 0.33054(3) 0.75507(2)
O2_2 O -0.2880(6) 0.0935(4) 0.2579(3)
O3C O -0.1655(6) 0.3321(4) 0.2292(3)
O4B O 0.0749(6) -0.0134(3) 0.3455(3)
O5C O 0.0772(6) 0.2431(4) 0.0885(3)
O9 O 0.3534(13) 0.8836(10) 0.0835(6)
O10 O 0.370(3) 1.033(3) 0.0216(18)
loop_
_geom_bond_atom_site_label_1
_geom_bond_atom_site_label_2
_geom_bond_site_symmetry_1
_geom_bond_site_symmetry_2
Nd1 O1 1_555 1_555
O1 C1 1_555 1_555
O2 C1 1_555 1_555
O3 C5 1_555 1_555
O4 C5 1_555 1_555
O5 C8 1_555 1_555
O6 Nd1 1_555 1_555
O7 Nd1 1_555 1_555
O8 Nd1 1_555 1_555
N1 Nd1 1_555 1_555
C1 C2 1_555 1_555
C2 N1 1_555 1_555
C3 C2 1_555 1_555
C4 C3 1_555 1_555
C5 C4 1_555 1_555
C6 C4 1_555 1_555
C7 N1 1_555 1_555
C8 O6 1_555 1_555
H1 C3 1_555 1_555
H2 C6 1_555 1_555
Nd1_2 O2 1_555 1_555
Nd1C O3 1_555 1_555
Nd1B O4 1_555 1_555
Nd1C_2 O5 1_555 1_555
O2_2 Nd1 1_555 1_555
O3C Nd1 1_555 1_555
O4B Nd1 1_555 1_555
O5C Nd1 1_555 1_555
C6 C7 1_555 1_555
C7 C8 1_555 1_555

#END
