
#######################################################################
#
#                 Cambridge Crystallographic Data Centre
#                                CCDC 
#
#######################################################################
#
# If this CIF has been generated from an entry in the Cambridge 
# Structural Database, then it will include bibliographic, chemical, 
# crystal, experimental, refinement or atomic coordinate data resulting 
# from the CCDC's data processing and validation procedures.
#
#######################################################################

data_CECVEM
_symmetry_cell_setting           monoclinic
_symmetry_space_group_name_H-M   'P 21'
_symmetry_Int_Tables_number      4
_space_group_name_Hall           'P 2yb'
loop_
_symmetry_equiv_pos_site_id
_symmetry_equiv_pos_as_xyz
1 x,y,z
2 -x,1/2+y,-z
_cell_length_a                   7.153(5)
_cell_length_b                   17.003(5)
_cell_length_c                   11.060(5)
_cell_angle_alpha                90
_cell_angle_beta                 107.207(5)
_cell_angle_gamma                90
_cell_volume                     1284.94
loop_
_atom_site_label
_atom_site_type_symbol
_atom_site_fract_x
_atom_site_fract_y
_atom_site_fract_z
Co1 Co 0.99521(6) 0.73966(3) 0.66865(4)
Co2 Co 1.00193(6) 0.71676(2) 1.16927(4)
N1 N 1.3165(4) 0.72058(19) 1.1853(2)
N2 N 1.6878(4) 0.72015(19) 1.1530(2)
N3 N 1.0538(4) 0.8531(2) 0.6062(3)
N4 N 0.9997(4) 0.5930(2) 1.1440(3)
O1 O 1.4276(5) 0.6445(3) 1.4559(3)
O2 O 1.4389(4) 0.7754(3) 1.4661(3)
O3 O 1.5999(4) 0.8080(2) 0.8989(3)
O4 O 1.5516(4) 0.6796(2) 0.8600(2)
O5 O 0.9962(3) 0.73072(17) 0.9848(2)
O6 O 1.1776(3) 0.75784(16) 0.8566(2)
O7 O 1.8241(3) 0.70972(17) 1.4855(2)
O8 O 2.0076(3) 0.70409(18) 1.3536(2)
O9 O 0.9336(8) 0.6292(3) 0.7362(4)
O12 O 1.0110(4) 0.83801(18) 1.1923(3)
O15 O 0.7367(4) 0.7837(2) 0.6883(2)
O16 O 1.2400(5) 0.6910(3) 0.6427(3)
C1 C 1.1553(4) 0.7401(2) 0.9611(3)
C2 C 1.3403(4) 0.7293(2) 1.0701(3)
C3 C 1.5272(4) 0.7295(2) 1.0539(3)
C4 C 1.5609(5) 0.7412(3) 0.9255(3)
C5 C 1.4761(4) 0.7142(2) 1.2845(3)
C6 C 1.4464(5) 0.7103(4) 1.4156(3)
C7 C 1.6636(4) 0.7134(2) 1.2679(3)
C8 C 1.8483(4) 0.7084(2) 1.3781(3)
C9 C 0.9190(6) 0.8917(3) 0.5139(4)
H1 H 0.8009 0.8665 0.4754
C10 C 0.9461(7) 0.9663(3) 0.4735(4)
H2 H 0.8484 0.9910 0.4102
C11 C 1.1244(8) 1.0038(3) 0.5301(4)
H3 H 1.1496 1.0536 0.5040
C12 C 1.2609(7) 0.9655(3) 0.6245(5)
H4 H 1.3793 0.9899 0.6649
C13 C 1.2235(6) 0.8902(3) 0.6605(4)
H5 H 1.3190 0.8647 0.7241
C14 C 0.8870(6) 0.5588(3) 1.0384(4)
H6 H 0.7955 0.5895 0.9804
C15 C 0.9002(6) 0.4803(3) 1.0118(5)
H7 H 0.8171 0.4586 0.9382
C16 C 1.0382(6) 0.4338(3) 1.0956(4)
H8 H 1.0543 0.3812 1.0778
C17 C 1.1502(6) 0.4677(3) 1.2051(4)
H9 H 1.2411 0.4377 1.2648
C18 C 1.1279(6) 0.5466(3) 1.2269(4)
H10 H 1.2049 0.5686 1.3021
H13 H 0.632(7) 0.782(4) 0.616(4)
H17 H 0.826(6) 0.602(4) 0.699(6)
H18 H 1.286(7) 0.695(3) 0.572(3)
H19 H 1.313(10) 0.691(5) 0.692(4)
H22 H 1.127(7) 0.865(4) 1.231(6)
H23 H 0.706(10) 0.784(5) 0.734(6)
H24 H 1.007(9) 0.614(6) 0.773(7)
H25 H 0.892(6) 0.867(7) 1.1617(5)
Co1_2 Co 1.99521(6) 0.73966(3) 1.66865(4)
Co2_2 Co 2.00193(6) 0.71676(2) 1.16927(4)
N2_2 N 0.6878(4) 0.72015(19) 1.1530(2)
O7_2 O 0.8241(3) 0.70972(17) 0.4855(2)
O8_2 O 1.0076(3) 0.70409(18) 1.3536(2)
O10 O 0.2626(6) 0.5722(2) 0.9002(4)
H15 H 0.286(10) 0.509(3) 0.902(6)
H16 H 0.357(5) 0.574(2) 0.852(3)
O11 O 0.3490(5) 0.4111(2) 0.8850(4)
H12 H 0.351(5) 0.397(2) 0.797(2)
H14 H 0.465(7) 0.386(5) 0.917(5)
O13 O 1.3949(5) 0.8954(3) 1.2866(4)
H11 H 1.365(13) 0.942(4) 1.306(8)
H26 H 1.520(4) 0.877(6) 1.333(3)
O14 O 0.5815(6) 0.5541(3) 0.6642(5)
H20 H 0.596(8) 0.537(4) 0.587(3)
H21 H 0.55(2) 0.605(3) 0.624(8)
loop_
_geom_bond_atom_site_label_1
_geom_bond_atom_site_label_2
_geom_bond_site_symmetry_1
_geom_bond_site_symmetry_2
Co1 N3 1_555 1_555
Co2 N1 1_555 1_555
N1 C2 1_555 1_555
N2 C3 1_555 1_555
N3 C9 1_555 1_555
N4 Co2 1_555 1_555
O1 C6 1_555 1_555
O2 C6 1_555 1_555
O3 C4 1_555 1_555
O4 C4 1_555 1_555
O5 Co2 1_555 1_555
O6 Co1 1_555 1_555
O7 C8 1_555 1_555
O8 C8 1_555 1_555
O9 Co1 1_555 1_555
O10 H15 1_555 1_555
O11 H12 1_555 1_555
O12 Co2 1_555 1_555
O13 H11 1_555 1_555
O14 H20 1_555 1_555
O15 Co1 1_555 1_555
O16 Co1 1_555 1_555
C1 O5 1_555 1_555
C2 C1 1_555 1_555
C3 C2 1_555 1_555
C4 C3 1_555 1_555
C5 N1 1_555 1_555
C6 C5 1_555 1_555
C7 N2 1_555 1_555
C8 C7 1_555 1_555
C9 H1 1_555 1_555
C10 C9 1_555 1_555
H2 C10 1_555 1_555
C11 C10 1_555 1_555
H3 C11 1_555 1_555
C12 C11 1_555 1_555
H4 C12 1_555 1_555
C13 N3 1_555 1_555
H5 C13 1_555 1_555
C14 N4 1_555 1_555
H6 C14 1_555 1_555
C15 C14 1_555 1_555
H7 C15 1_555 1_555
C16 C15 1_555 1_555
H8 C16 1_555 1_555
C17 C16 1_555 1_555
H9 C17 1_555 1_555
C18 N4 1_555 1_555
H10 C18 1_555 1_555
H13 O15 1_555 1_555
H14 O11 1_555 1_555
H16 O10 1_555 1_555
H17 O9 1_555 1_555
H18 O16 1_555 1_555
H19 O16 1_555 1_555
H21 O14 1_555 1_555
H22 O12 1_555 1_555
H23 O15 1_555 1_555
H24 O9 1_555 1_555
H25 O12 1_555 1_555
H26 O13 1_555 1_555
Co1_2 O7 1_555 1_555
Co2_2 N2 1_555 1_555
N2_2 Co2 1_555 1_555
O7_2 Co1 1_555 1_555
O8_2 Co2 1_555 1_555
O6 C1 1_555 1_555
O8 Co2_2 1_555 1_555
C5 C7 1_555 1_555
C12 C13 1_555 1_555
C17 C18 1_555 1_555

#END
