
#######################################################################
#
#                 Cambridge Crystallographic Data Centre
#                                CCDC 
#
#######################################################################
#
# If this CIF has been generated from an entry in the Cambridge 
# Structural Database, then it will include bibliographic, chemical, 
# crystal, experimental, refinement or atomic coordinate data resulting 
# from the CCDC's data processing and validation procedures.
#
#######################################################################

data_CECWEO
_symmetry_cell_setting           triclinic
_symmetry_space_group_name_H-M   'P -1'
_symmetry_Int_Tables_number      2
_space_group_name_Hall           '-P 1'
loop_
_symmetry_equiv_pos_site_id
_symmetry_equiv_pos_as_xyz
1 x,y,z
2 -x,-y,-z
_cell_length_a                   7.6554(5)
_cell_length_b                   7.8589(7)
_cell_length_c                   9.0762(8)
_cell_angle_alpha                98.926(2)
_cell_angle_beta                 98.066(3)
_cell_angle_gamma                108.354(2)
_cell_volume                     501.468
loop_
_atom_site_label
_atom_site_type_symbol
_atom_site_fract_x
_atom_site_fract_y
_atom_site_fract_z
Cd1 Cd 0.0000 0.0000 0.0000
O1 O 0.1967(2) 0.2477(2) -0.09102(18)
H1 H 0.2944 0.2382 -0.1206
H2 H 0.2169 0.3605 -0.0564
N1 N 0.2390(3) -0.1184(2) 0.0725(2)
N2 N 0.1788(3) -0.2991(2) 0.0089(2)
N3 N 0.3029(3) -0.3682(2) 0.0608(2)
N4 N 0.4485(3) -0.2359(2) 0.1607(2)
N5 N 0.9402(3) 0.8268(2) 0.7588(2)
N6 N 0.9261(3) 0.9092(2) 0.6358(2)
N7 N 0.8147(2) 0.6093(2) 0.55559(19)
C1 C 0.4042(3) -0.0840(3) 0.1654(2)
C2 C 0.8748(3) 0.6495(3) 0.7085(2)
H3 H 0.8701 0.5634 0.7688
C3 C 0.8520(3) 0.7760(3) 0.5173(3)
H4 H 0.8273 0.7924 0.4182
C4 C 0.5182(3) 0.0953(3) 0.2636(2)
C5 C 0.6397(3) 0.1085(3) 0.3974(3)
H5 H 0.6543 0.0027 0.4222
C6 C 0.7391(3) 0.2763(3) 0.4940(3)
H6 H 0.8196 0.2834 0.5834
C7 C 0.7180(3) 0.4335(3) 0.4565(2)
C8 C 0.5989(3) 0.4239(3) 0.3232(2)
H7 H 0.5848 0.5299 0.2984
C9 C 0.5018(3) 0.2556(3) 0.2279(2)
H8 H 0.4234 0.2493 0.1375
Cd1_2 Cd -1.0000 -1.0000 -1.0000
Cd1_3 Cd 1.0000 1.0000 1.0000
O1A O -0.1967(2) -0.2477(2) 0.09102(18)
H1A H -0.2944 -0.2382 0.1206
H2A H -0.2169 -0.3605 0.0564
N1A N -0.2390(3) 0.1184(2) -0.0725(2)
N2A N -0.1788(3) 0.2991(2) -0.0089(2)
N3A N -0.3029(3) 0.3682(2) -0.0608(2)
N4A N -0.4485(3) 0.2359(2) -0.1607(2)
N5A N -0.9402(3) -0.8268(2) -0.7588(2)
N5_2 N -0.0598(3) -0.1732(2) -0.2412(2)
N5A_2 N 0.0598(3) 0.1732(2) 0.2412(2)
N6A N -0.9261(3) -0.9092(2) -0.6358(2)
N7A N -0.8147(2) -0.6093(2) -0.55559(19)
C1A C -0.4042(3) 0.0840(3) -0.1654(2)
C2A C -0.8748(3) -0.6495(3) -0.7085(2)
H3A H -0.8701 -0.5634 -0.7688
C3A C -0.8520(3) -0.7760(3) -0.5173(3)
H4A H -0.8273 -0.7924 -0.4182
C4A C -0.5182(3) -0.0953(3) -0.2636(2)
C5A C -0.6397(3) -0.1085(3) -0.3974(3)
H5A H -0.6543 -0.0027 -0.4222
C6A C -0.7391(3) -0.2763(3) -0.4940(3)
H6A H -0.8196 -0.2834 -0.5834
C7A C -0.7180(3) -0.4335(3) -0.4565(2)
C8A C -0.5989(3) -0.4239(3) -0.3232(2)
H7A H -0.5848 -0.5299 -0.2984
C9A C -0.5018(3) -0.2556(3) -0.2279(2)
H8A H -0.4234 -0.2493 -0.1375
loop_
_geom_bond_atom_site_label_1
_geom_bond_atom_site_label_2
_geom_bond_site_symmetry_1
_geom_bond_site_symmetry_2
Cd1 O1 1_555 1_555
O1 H1 1_555 1_555
H2 O1 1_555 1_555
N1 Cd1 1_555 1_555
N2 N1 1_555 1_555
N3 N2 1_555 1_555
N4 N3 1_555 1_555
N5 N6 1_555 1_555
N6 C3 1_555 1_555
N7 C2 1_555 1_555
C1 N1 1_555 1_555
C2 N5 1_555 1_555
H3 C2 1_555 1_555
C3 N7 1_555 1_555
H4 C3 1_555 1_555
C4 C1 1_555 1_555
C5 C4 1_555 1_555
H5 C5 1_555 1_555
C6 C5 1_555 1_555
H6 C6 1_555 1_555
C7 N7 1_555 1_555
C8 C7 1_555 1_555
H7 C8 1_555 1_555
C9 C4 1_555 1_555
H8 C9 1_555 1_555
Cd1_2 N5A 1_555 1_555
Cd1_3 N5 1_555 1_555
O1A Cd1 1_555 1_555
H1A O1A 1_555 1_555
H2A O1A 1_555 1_555
N1A Cd1 1_555 1_555
N2A N1A 1_555 1_555
N3A N2A 1_555 1_555
N4A N3A 1_555 1_555
N5A N6A 1_555 1_555
N5_2 Cd1 1_555 1_555
N5A_2 Cd1 1_555 1_555
N6A C3A 1_555 1_555
N7A C2A 1_555 1_555
C1A N1A 1_555 1_555
C2A N5A 1_555 1_555
H3A C2A 1_555 1_555
C3A N7A 1_555 1_555
H4A C3A 1_555 1_555
C4A C1A 1_555 1_555
C5A C4A 1_555 1_555
H5A C5A 1_555 1_555
C6A C5A 1_555 1_555
H6A C6A 1_555 1_555
C7A N7A 1_555 1_555
C8A C7A 1_555 1_555
H7A C8A 1_555 1_555
C9A C4A 1_555 1_555
H8A C9A 1_555 1_555
N4 C1 1_555 1_555
C6 C7 1_555 1_555
C8 C9 1_555 1_555
N4A C1A 1_555 1_555
C6A C7A 1_555 1_555
C8A C9A 1_555 1_555

#END
