
#######################################################################
#
#                 Cambridge Crystallographic Data Centre
#                                CCDC 
#
#######################################################################
#
# If this CIF has been generated from an entry in the Cambridge 
# Structural Database, then it will include bibliographic, chemical, 
# crystal, experimental, refinement or atomic coordinate data resulting 
# from the CCDC's data processing and validation procedures.
#
#######################################################################

data_CECYIT
_symmetry_cell_setting           monoclinic
_symmetry_space_group_name_H-M   'P 21/c'
_symmetry_Int_Tables_number      14
_space_group_name_Hall           '-P 2ybc'
loop_
_symmetry_equiv_pos_site_id
_symmetry_equiv_pos_as_xyz
1 x,y,z
2 -x,1/2+y,1/2-z
3 -x,-y,-z
4 x,1/2-y,1/2+z
_cell_length_a                   8.2569(11)
_cell_length_b                   15.978(2)
_cell_length_c                   21.205(3)
_cell_angle_alpha                90
_cell_angle_beta                 91.673(2)
_cell_angle_gamma                90
_cell_volume                     2796.36
loop_
_atom_site_label
_atom_site_type_symbol
_atom_site_fract_x
_atom_site_fract_y
_atom_site_fract_z
Hg1 Hg 0.40697(2) 0.631159(15) 0.125013(10)
N1 N -0.0274(5) 0.3000(3) 0.65652(17)
N2 N 0.3182(5) 0.5716(3) 0.21950(18)
N3 N -1.1616(5) 0.1380(3) 0.42887(19)
N4 N 0.2285(11) 0.8599(5) 0.1577(4)
N5 N 0.8022(8) 0.5097(5) 0.1741(4)
S1 S 0.5129(2) 0.76791(13) 0.15824(9)
S2 S 0.5597(2) 0.51515(12) 0.08167(7)
C1 C 0.0522(6) 0.3431(3) 0.6102(2)
C2 C 0.2020(6) 0.3806(3) 0.6119(2)
H1 H 0.2660 0.3811 0.6487
C3 C 0.2544(7) 0.4173(4) 0.5573(3)
H2 H 0.3558 0.4426 0.5578
C4 C 0.1613(6) 0.4178(3) 0.5016(2)
C5 C 0.0092(6) 0.3827(3) 0.5012(2)
H3 H -0.0558 0.3841 0.4647
C6 C -0.0474(6) 0.3452(3) 0.5552(2)
C7 C -0.1933(6) 0.3016(3) 0.5694(2)
C8 C -0.3357(5) 0.2840(3) 0.5360(2)
H4 H -0.3505 0.3038 0.4950
C9 C -0.4560(6) 0.2373(3) 0.5631(2)
C10 C -0.4335(6) 0.2075(4) 0.6250(2)
H5 H -0.5143 0.1752 0.6425
C11 C -0.2956(6) 0.2246(4) 0.6603(2)
H6 H -0.2821 0.2050 0.7014
C12 C -0.1754(6) 0.2732(3) 0.6320(2)
C13 C 0.2274(6) 0.4544(3) 0.4442(2)
H7 H 0.3313 0.4767 0.4477
C14 C 0.1543(6) 0.4587(3) 0.3884(2)
H8 H 0.0516 0.4350 0.3849
C15 C 0.2159(6) 0.4965(3) 0.3313(2)
C16 C 0.3691(7) 0.5282(5) 0.3253(3)
H9 H 0.4434 0.5244 0.3589
C17 C 0.4139(7) 0.5657(5) 0.2702(3)
H10 H 0.5177 0.5881 0.2685
C18 C 0.1713(6) 0.5397(4) 0.2247(2)
H11 H 0.1006 0.5425 0.1898
C19 C 0.1174(6) 0.5028(3) 0.2786(2)
H12 H 0.0124 0.4818 0.2793
C20 C -0.6055(6) 0.2200(3) 0.5258(2)
H13 H -0.6144 0.2473 0.4871
C21 C -0.7269(6) 0.1720(4) 0.5394(2)
H14 H -0.7193 0.1428 0.5773
C22 C -0.8750(6) 0.1598(3) 0.5003(2)
C23 C -1.0040(7) 0.1123(4) 0.5214(3)
H15 H -0.9967 0.0866 0.5608
C24 C -1.1405(6) 0.1034(4) 0.4847(3)
H16 H -1.2239 0.0707 0.4999
C25 C -1.0392(6) 0.1829(4) 0.4073(2)
H17 H -1.0508 0.2070 0.3675
C26 C -0.8964(6) 0.1953(3) 0.4410(2)
H18 H -0.8144 0.2273 0.4241
C27 C 0.0364(7) 0.2816(4) 0.7199(2)
H19 H -0.0525 0.2788 0.7488
H20 H 0.1081 0.3264 0.7338
C28 C 0.1261(9) 0.2014(5) 0.7220(3)
H21 H 0.1664 0.1913 0.7642
H22 H 0.2153 0.2043 0.6940
H23 H 0.0549 0.1568 0.7090
C29 C 0.3570(11) 0.8198(5) 0.1571(3)
C30 C 0.7012(7) 0.5130(4) 0.1365(3)
Hg1A Hg -1.40697(2) 0.131159(15) 0.374987(10)
N3A N 0.1616(5) 0.6380(3) 0.07113(19)
loop_
_geom_bond_atom_site_label_1
_geom_bond_atom_site_label_2
_geom_bond_site_symmetry_1
_geom_bond_site_symmetry_2
Hg1 N2 1_555 1_555
N1 C1 1_555 1_555
N2 C17 1_555 1_555
N3 C24 1_555 1_555
N4 C29 1_555 1_555
N5 C30 1_555 1_555
S1 Hg1 1_555 1_555
S2 Hg1 1_555 1_555
C1 C2 1_555 1_555
C2 H1 1_555 1_555
C3 C2 1_555 1_555
H2 C3 1_555 1_555
C4 C3 1_555 1_555
C5 C4 1_555 1_555
H3 C5 1_555 1_555
C6 C1 1_555 1_555
C7 C6 1_555 1_555
C8 C7 1_555 1_555
H4 C8 1_555 1_555
C9 C8 1_555 1_555
C10 C9 1_555 1_555
H5 C10 1_555 1_555
C11 C10 1_555 1_555
H6 C11 1_555 1_555
C12 N1 1_555 1_555
C13 C4 1_555 1_555
H7 C13 1_555 1_555
C14 C13 1_555 1_555
H8 C14 1_555 1_555
C15 C14 1_555 1_555
C16 C15 1_555 1_555
H9 C16 1_555 1_555
C17 C16 1_555 1_555
H10 C17 1_555 1_555
C18 N2 1_555 1_555
H11 C18 1_555 1_555
C19 C15 1_555 1_555
H12 C19 1_555 1_555
C20 C9 1_555 1_555
H13 C20 1_555 1_555
C21 C20 1_555 1_555
H14 C21 1_555 1_555
C22 C21 1_555 1_555
C23 C22 1_555 1_555
H15 C23 1_555 1_555
C24 C23 1_555 1_555
H16 C24 1_555 1_555
C25 N3 1_555 1_555
H17 C25 1_555 1_555
C26 C22 1_555 1_555
H18 C26 1_555 1_555
C27 N1 1_555 1_555
H19 C27 1_555 1_555
H20 C27 1_555 1_555
C28 C27 1_555 1_555
H21 C28 1_555 1_555
H22 C28 1_555 1_555
H23 C28 1_555 1_555
C29 S1 1_555 1_555
C30 S2 1_555 1_555
Hg1A N3 1_555 1_555
N3A Hg1 1_555 1_555
C5 C6 1_555 1_555
C7 C12 1_555 1_555
C11 C12 1_555 1_555
C18 C19 1_555 1_555
C25 C26 1_555 1_555

#END
