
#######################################################################
#
#                 Cambridge Crystallographic Data Centre
#                                CCDC 
#
#######################################################################
#
# If this CIF has been generated from an entry in the Cambridge 
# Structural Database, then it will include bibliographic, chemical, 
# crystal, experimental, refinement or atomic coordinate data resulting 
# from the CCDC's data processing and validation procedures.
#
#######################################################################

data_CEDDIZ
_symmetry_cell_setting           monoclinic
_symmetry_space_group_name_H-M   'C c'
_symmetry_Int_Tables_number      9
_space_group_name_Hall           'C -2yc'
loop_
_symmetry_equiv_pos_site_id
_symmetry_equiv_pos_as_xyz
1 x,y,z
2 x,-y,1/2+z
3 1/2+x,1/2+y,z
4 1/2+x,1/2-y,1/2+z
_cell_length_a                   12.1673(9)
_cell_length_b                   14.9278(11)
_cell_length_c                   13.8496(11)
_cell_angle_alpha                90
_cell_angle_beta                 115.934(2)
_cell_angle_gamma                90
_cell_volume                     2262.2
loop_
_atom_site_label
_atom_site_type_symbol
_atom_site_fract_x
_atom_site_fract_y
_atom_site_fract_z
Bi1 Bi 0.14014(3) 0.375083(18) 0.46767(2)
Br1 Br 0.24310(10) 0.39193(8) 0.69382(8)
Br2 Br 0.14563(9) 0.18723(5) 0.48698(7)
Br3 Br 0.12471(8) 0.56301(5) 0.44714(7)
Br4 Br 0.01822(10) 0.35756(8) 0.24140(8)
N1 N 0.3517(7) 0.3755(4) 0.4688(6)
N2 N 0.9328(6) 0.3751(4) 0.4686(6)
C1 C 0.3982(7) 0.4503(5) 0.4481(7)
H1 H 0.3507 0.5035 0.4322
C2 C 0.5129(6) 0.4539(5) 0.4487(6)
H2 H 0.5441 0.5090 0.4369
C3 C 0.5818(8) 0.3750(4) 0.4669(7)
C4 C 0.5311(7) 0.2969(5) 0.4878(7)
H3 H 0.5749 0.2420 0.5018
C5 C 0.4175(7) 0.2999(5) 0.4879(7)
H4 H 0.3850 0.2464 0.5021
C6 C 0.8637(7) 0.3004(5) 0.4406(7)
H5 H 0.8931 0.2485 0.4198
C7 C 0.7501(6) 0.2981(4) 0.4419(6)
H6 H 0.7036 0.2444 0.4253
C8 C 0.7056(7) 0.3755(5) 0.4676(8)
C9 C 0.7785(7) 0.4518(5) 0.4963(6)
H7 H 0.7511 0.5050 0.5165
C10 C 0.8911(7) 0.4492(5) 0.4949(7)
H8 H 0.9403 0.5017 0.5132
Bi1_2 Bi 1.14014(3) 0.375083(18) 0.46767(2)
N2_2 N -0.0672(6) 0.3751(4) 0.4686(6)
N3 N 0.7418(9) 0.4023(8) 0.7369(7)
H9 H 0.7907 0.3572 0.7425
N4 N 0.3536(8) 0.7827(7) 0.7193(6)
C11 C 0.6326(10) 0.3867(8) 0.7352(8)
H11 H 0.6085 0.3272 0.7411
C12 C 0.5546(10) 0.4582(7) 0.7246(8)
H12 H 0.4777 0.4459 0.7239
C13 C 0.5849(8) 0.5490(7) 0.7147(6)
C14 C 0.7032(9) 0.5592(7) 0.7194(7)
H13 H 0.7319 0.6175 0.7149
C15 C 0.7774(10) 0.4865(8) 0.7303(7)
H14 H 0.8560 0.4960 0.7332
C16 C 0.3110(10) 0.6969(7) 0.7104(7)
H15 H 0.2338 0.6866 0.7100
C17 C 0.3771(9) 0.6248(7) 0.7018(8)
H16 H 0.3430 0.5665 0.6948
C18 C 0.4934(9) 0.6340(8) 0.7031(8)
C19 C 0.5269(11) 0.7254(7) 0.7054(8)
H17 H 0.6003 0.7382 0.6997
C20 C 0.4610(9) 0.7969(9) 0.7153(7)
H18 H 0.4912 0.8562 0.7192
H10? H 0.3118 0.8277 0.7276
loop_
_geom_bond_atom_site_label_1
_geom_bond_atom_site_label_2
_geom_bond_site_symmetry_1
_geom_bond_site_symmetry_2
Bi1 Br1 1_555 1_555
Br2 Bi1 1_555 1_555
Br3 Bi1 1_555 1_555
Br4 Bi1 1_555 1_555
N1 Bi1 1_555 1_555
N2 C6 1_555 1_555
C1 N1 1_555 1_555
H1 C1 1_555 1_555
C2 C1 1_555 1_555
H2 C2 1_555 1_555
C3 C2 1_555 1_555
C4 C3 1_555 1_555
H3 C4 1_555 1_555
C5 N1 1_555 1_555
H4 C5 1_555 1_555
C6 H5 1_555 1_555
C7 C6 1_555 1_555
H6 C7 1_555 1_555
C8 C3 1_555 1_555
C9 C8 1_555 1_555
H7 C9 1_555 1_555
C10 N2 1_555 1_555
H8 C10 1_555 1_555
N3 H9 1_555 1_555
N4 C16 1_555 1_555
C11 N3 1_555 1_555
H11 C11 1_555 1_555
C12 C11 1_555 1_555
H12 C12 1_555 1_555
C13 C12 1_555 1_555
C14 C13 1_555 1_555
H13 C14 1_555 1_555
C15 N3 1_555 1_555
H14 C15 1_555 1_555
C16 H15 1_555 1_555
C17 C16 1_555 1_555
H16 C17 1_555 1_555
C18 C13 1_555 1_555
C19 C18 1_555 1_555
H17 C19 1_555 1_555
C20 N4 1_555 1_555
H18 C20 1_555 1_555
Bi1_2 N2 1_555 1_555
N2_2 Bi1 1_555 1_555
C4 C5 1_555 1_555
C7 C8 1_555 1_555
C9 C10 1_555 1_555
C14 C15 1_555 1_555
C17 C18 1_555 1_555
C19 C20 1_555 1_555

#END
