
#######################################################################
#
#                 Cambridge Crystallographic Data Centre
#                                CCDC 
#
#######################################################################
#
# If this CIF has been generated from an entry in the Cambridge 
# Structural Database, then it will include bibliographic, chemical, 
# crystal, experimental, refinement or atomic coordinate data resulting 
# from the CCDC's data processing and validation procedures.
#
#######################################################################

data_CEDDIZ02
_symmetry_cell_setting           orthorhombic
_symmetry_space_group_name_H-M   'F d d 2'
_symmetry_Int_Tables_number      43
_space_group_name_Hall           'F 2 -2d'
loop_
_symmetry_equiv_pos_site_id
_symmetry_equiv_pos_as_xyz
1 x,y,z
2 -x,-y,z
3 1/4+x,1/4-y,1/4+z
4 1/4-x,1/4+y,1/4+z
5 x,1/2+y,1/2+z
6 -x,1/2-y,1/2+z
7 1/4+x,3/4-y,3/4+z
8 1/4-x,3/4+y,3/4+z
9 1/2+x,y,1/2+z
10 1/2-x,-y,1/2+z
11 3/4+x,1/4-y,3/4+z
12 3/4-x,1/4+y,3/4+z
13 1/2+x,1/2+y,z
14 1/2-x,1/2-y,z
15 3/4+x,3/4-y,1/4+z
16 3/4-x,3/4+y,1/4+z
_cell_length_a                   14.9357(17)
_cell_length_b                   25.351(3)
_cell_length_c                   12.1842(14)
_cell_angle_alpha                90
_cell_angle_beta                 90
_cell_angle_gamma                90
_cell_volume                     4613.36
loop_
_atom_site_label
_atom_site_type_symbol
_atom_site_fract_x
_atom_site_fract_y
_atom_site_fract_z
C4 C 0.3451(4) 0.3777(3) -0.3304(6)
H3 H 0.3549 0.3778 -0.2551
C5 C 0.4171(4) 0.3735(4) -0.4022(8)
H4 H 0.4751 0.3709 -0.3749
N1 N 0.4024(5) 0.3733(3) -0.5149(7)
H5 H 0.4470 0.3707 -0.5593
C6 C 0.3158(6) 0.3772(4) -0.5557(5)
H6 H 0.3060 0.3771 -0.6311
C7 C 0.2438(5) 0.3814(3) -0.4839(4)
H7 H 0.1859 0.3840 -0.5113
C8 C 0.2585(4) 0.3816(2) -0.3713(4)
C9 C 0.3721(6) 0.3834(4) -0.3590(5)
H8 H 0.3817 0.3849 -0.2836
C10 C 0.4439(5) 0.3759(3) -0.4298(4)
H9 H 0.5015 0.3723 -0.4019
C11 C 0.4295(4) 0.3736(2) -0.5423(4)
C12 C 0.3433(4) 0.3789(3) -0.5839(6)
H10 H 0.3337 0.3774 -0.6593
C13 C 0.2715(4) 0.3864(4) -0.5131(7)
H11 H 0.2139 0.3899 -0.5411
N2 N 0.2859(5) 0.3887(3) -0.4006(7)
H14 H 0.2415 0.3933 -0.3568
C4F C 0.5951(4) 0.3723(3) -0.5804(6)
C5N C 0.1671(4) 0.3765(4) -0.1522(8)
N1N N 0.1524(5) 0.3767(3) -0.2649(7)
H5N H 0.1970 0.3793 -0.3093
C6N C 0.0658(6) 0.3728(4) -0.3057(5)
C7F C 0.4938(5) 0.3686(3) -0.7339(4)
C8F C 0.5085(4) 0.3684(2) -0.6213(4)
C9F C 0.6221(6) 0.3666(4) -0.6090(5)
C10N C 0.1939(5) 0.3741(3) -0.1798(4)
C11N C 0.1795(4) 0.3764(2) -0.2923(4)
C12N C 0.0933(4) 0.3711(3) -0.3339(6)
C13F C 0.5215(4) 0.3636(4) -0.7631(7)
N2F N 0.5359(5) 0.3613(3) -0.6506(7)
H14F H 0.4915 0.3567 -0.6068
Bi1 Bi 0.5000 0.5000 -0.1104
Br1 Br 0.31336(5) 0.49048(4) -0.1146(2)
Br2 Br 0.51714(6) 0.38873(3) -0.1174(2)
C1 C 0.5719(5) 0.4866(3) -0.3717(7)
H1 H 0.6229 0.4766 -0.3332
C2 C 0.5765(6) 0.4865(3) -0.4871(7)
H2 H 0.6293 0.4776 -0.5230
C3 C 0.5000 0.5000 -0.5464(14)
N3 N 0.5000 0.5000 -0.3137(10)
C14 C 0.5767(6) 0.5099(3) -0.8402(7)
H12 H 0.6287 0.5174 -0.8793
C15 C 0.5790(7) 0.5090(3) -0.7282(7)
H13 H 0.6328 0.5144 -0.6915
C16 C 0.5000 0.5000 -0.6682(14)
N4 N 0.5000 0.5000 -0.8946(11)
Bi1_2 Bi 0.5000 0.5000 -1.1104
Br1A Br 0.68664(5) 0.50952(4) -0.1146(2)
Br2A Br 0.48286(6) 0.61127(3) -0.1174(2)
C1A C 0.4281(5) 0.5134(3) -0.3717(7)
H1A H 0.3771 0.5234 -0.3332
C2A C 0.4235(6) 0.5135(3) -0.4871(7)
H2A H 0.3707 0.5224 -0.5230
C14A C 0.4233(6) 0.4901(3) -0.8402(7)
H12A H 0.3713 0.4826 -0.8793
C15A C 0.4210(7) 0.4910(3) -0.7282(7)
H13A H 0.3672 0.4856 -0.6915
N4_2 N 0.5000 0.5000 0.1054(11)
loop_
_geom_bond_atom_site_label_1
_geom_bond_atom_site_label_2
_geom_bond_site_symmetry_1
_geom_bond_site_symmetry_2
Bi1 Br1 1_555 1_555
Br2 Bi1 1_555 1_555
C1 H1 1_555 1_555
C2 C1 1_555 1_555
H2 C2 1_555 1_555
C3 C2 1_555 1_555
C4 H3 1_555 1_555
H3 C9 1_555 1_555
C5 C4 1_555 1_555
H4 C5 1_555 1_555
N1 C5 1_555 1_555
H5 N1 1_555 1_555
C6 N1 1_555 1_555
H6 C6 1_555 1_555
C7 C6 1_555 1_555
H7 C7 1_555 1_555
C8 C4 1_555 1_555
C9 C4 1_555 1_555
H8 C4 1_555 1_555
C10 C5 1_555 1_555
H9 C5 1_555 1_555
C11 C5 1_555 1_555
C12 N1 1_555 1_555
H10 C6 1_555 1_555
C13 C6 1_555 1_555
H11 C7 1_555 1_555
N2 C4 1_555 1_555
N3 Bi1 1_555 1_555
C14 H12 1_555 1_555
C15 C14 1_555 1_555
H13 C15 1_555 1_555
C16 C3 1_555 1_555
N4 C14 1_555 1_555
H14 C8 1_555 1_555
Bi1_2 N4 1_555 1_555
Br1A Bi1 1_555 1_555
Br2A Bi1 1_555 1_555
C1A N3 1_555 1_555
H1A C1A 1_555 1_555
C2A C3 1_555 1_555
H2A C2A 1_555 1_555
C4F C8F 1_555 1_555
C5N N1N 1_555 1_555
N1N H5N 1_555 1_555
H5N C8 1_555 1_555
C6N N1N 1_555 1_555
C7F C8F 1_555 1_555
C8F H5 1_555 1_555
C9F C4F 1_555 1_555
C10N C5N 1_555 1_555
C11N C8 1_555 1_555
C12N N1N 1_555 1_555
C13F C7F 1_555 1_555
N2F C4F 1_555 1_555
C14A N4 1_555 1_555
H12A C14A 1_555 1_555
C15A C16 1_555 1_555
H13A C15A 1_555 1_555
N4_2 Bi1 1_555 1_555
H14F C11 1_555 1_555
C1 N3 1_555 1_555
H3 H8 1_555 1_555
C5 C9 1_555 1_555
H4 C10 1_555 1_555
H4 H9 1_555 1_555
N1 C10 1_555 1_555
N1 C11 1_555 1_555
H5 C11 1_555 1_555
C6 C11 1_555 1_555
C6 C12 1_555 1_555
H6 C12 1_555 1_555
H6 H10 1_555 1_555
C7 C8 1_555 1_555
C7 C13 1_555 1_555
C7 N2 1_555 1_555
H7 C13 1_555 1_555
H7 H11 1_555 1_555
C8 C9 1_555 1_555
C8 C13 1_555 1_555
C8 N2 1_555 1_555
C9 H8 1_555 1_555
C9 C10 1_555 1_555
C9 N2 1_555 1_555
C10 H9 1_555 1_555
C10 C11 1_555 1_555
C11 C12 1_555 1_555
C11 C8F 1_555 1_555
C12 H10 1_555 1_555
C12 C13 1_555 1_555
C13 H11 1_555 1_555
C13 N2 1_555 1_555
N2 H14 1_555 1_555
C15 C16 1_555 1_555
H14 C11N 1_555 1_555
C1A C2A 1_555 1_555
C5N C11N 1_555 1_555
N1N C10N 1_555 1_555
N1N C11N 1_555 1_555
H5N C11N 1_555 1_555
C6N C11N 1_555 1_555
C6N C12N 1_555 1_555
C7F N2F 1_555 1_555
C8F C9F 1_555 1_555
C8F C13F 1_555 1_555
C8F N2F 1_555 1_555
C8F H14F 1_555 1_555
C9F N2F 1_555 1_555
C10N C11N 1_555 1_555
C11N C12N 1_555 1_555
C13F N2F 1_555 1_555
N2F H14F 1_555 1_555
C14A C15A 1_555 1_555

#END
