
#######################################################################
#
#                 Cambridge Crystallographic Data Centre
#                                CCDC 
#
#######################################################################
#
# If this CIF has been generated from an entry in the Cambridge 
# Structural Database, then it will include bibliographic, chemical, 
# crystal, experimental, refinement or atomic coordinate data resulting 
# from the CCDC's data processing and validation procedures.
#
#######################################################################

data_CEDFIC
_symmetry_cell_setting           monoclinic
_symmetry_space_group_name_H-M   'C 2/c'
_symmetry_Int_Tables_number      15
_space_group_name_Hall           '-C 2yn'
loop_
_symmetry_equiv_pos_site_id
_symmetry_equiv_pos_as_xyz
1 x,y,z
2 -x,y,1/2-z
3 1/2+x,1/2+y,z
4 1/2-x,1/2+y,1/2-z
5 -x,-y,-z
6 x,-y,1/2+z
7 1/2-x,1/2-y,-z
8 1/2+x,1/2-y,1/2+z
_cell_length_a                   21.622(4)
_cell_length_b                   16.800(3)
_cell_length_c                   16.317(3)
_cell_angle_alpha                90
_cell_angle_beta                 119.628(4)
_cell_angle_gamma                90
_cell_volume                     5152.19
loop_
_atom_site_label
_atom_site_type_symbol
_atom_site_fract_x
_atom_site_fract_y
_atom_site_fract_z
Gd1 Gd 0.188913(4) 0.356601(5) -0.002144(5)
O1 O 0.37580(7) 0.24871(8) 0.10891(9)
O2 O 0.09497(7) 0.42975(9) -0.12339(9)
O3 O 0.08618(7) 0.33374(9) 0.01879(10)
O4 O 0.31390(7) 0.36207(8) 0.08513(9)
O5 O 0.22158(7) 0.37009(8) -0.12145(9)
O6 O 0.27771(7) 0.25304(8) -0.09745(9)
O7 O 0.22647(7) 0.49991(8) -0.48463(9)
O8 O 0.20305(7) 0.55121(8) -0.37781(9)
C1 C 0.43776(9) 0.36538(10) 0.18939(12)
C2 C 0.5000 0.32436(15) 0.2500
H1 H 0.5000 0.2678 0.2500
C3 C 0.28136(10) 0.36039(11) -0.38145(13)
H2 H 0.2863 0.3682 -0.4356
C4 C 0.37035(9) 0.32149(11) 0.12228(12)
C5 C 0.25394(9) 0.31774(11) -0.14117(12)
C6 C 0.43724(9) 0.44843(11) 0.19035(12)
H3 H 0.3949 0.4773 0.1511
C7 C 0.24042(9) 0.40422(11) -0.27553(12)
H4 H 0.2182 0.4434 -0.2568
C8 C 0.26464(9) 0.33332(11) -0.22423(12)
N1 N 0.5000 0.57533(14) 0.2500
O9 O 0.44241(8) 0.61015(9) 0.20974(12)
O10 O 0.33821(9) 0.23963(10) -0.43363(11)
C9 C 0.24873(9) 0.41778(10) -0.35390(12)
C10 C 0.22417(9) 0.49429(11) -0.40924(12)
C11 C 0.29915(9) 0.27660(11) -0.24979(12)
H5 H 0.3171 0.2289 -0.2145
O11 O 0.37771(10) 0.17995(11) -0.29907(13)
N2 N 0.07498(9) 0.45209(11) -0.27182(12)
C12 C 0.5000 0.48776(15) 0.2500
N3 N 0.34361(9) 0.23285(11) -0.35546(13)
C13 C 0.06528(12) 0.36759(13) -0.29853(16)
H6 H 0.0763 0.3349 -0.2432
H7 H 0.0972 0.3531 -0.3227
H8 H 0.0159 0.3584 -0.3476
N4 N 0.00197(9) 0.26168(11) 0.03132(13)
C14 C 0.30647(10) 0.29173(11) -0.32805(13)
C15 C 0.08924(10) 0.47526(13) -0.18708(14)
H9 H 0.0956 0.5306 -0.1736
C16 C 0.06134(10) 0.26914(13) 0.02590(13)
H10 H 0.0862 0.2220 0.0276
C17 C 0.06273(13) 0.50910(15) -0.34532(16)
H11 H 0.0695 0.5632 -0.3198
H12 H 0.0140 0.5033 -0.3977
H13 H 0.0964 0.4992 -0.3680
C18 C -0.03955(13) 0.33103(15) 0.02944(19)
H14 H -0.0346 0.3387 0.0919
H15 H -0.0898 0.3225 -0.0170
H16 H -0.0221 0.3784 0.0121
C19 C -0.02020(14) 0.18478(16) 0.0494(2)
H17 H 0.0117 0.1431 0.0498
H18 H -0.0690 0.1734 -0.0002
H19 H -0.0182 0.1861 0.1107
Gd1A Gd 0.811087(4) 0.356601(5) 0.502144(5)
Gd1F Gd 0.311087(4) 0.143399(5) 0.002144(5)
Gd1E Gd 0.188913(4) 0.643399(5) -0.502144(5)
Gd1G Gd 0.688913(4) 0.143399(5) 0.497856(5)
Gd1E_2 Gd 0.188913(4) 0.643399(5) 0.497856(5)
Gd1C Gd 0.311087(4) 0.856601(5) 0.502144(5)
O1A O 0.62420(7) 0.24871(8) 0.39109(9)
O1F O 0.12420(7) 0.25129(8) -0.10891(9)
O1G O 0.87580(7) 0.25129(8) 0.60891(9)
O2A O 0.90503(7) 0.42975(9) 0.62339(9)
O3A O 0.91382(7) 0.33374(9) 0.48121(10)
O4A O 0.68610(7) 0.36207(8) 0.41487(9)
O5E O 0.22158(7) 0.62991(8) 0.37855(9)
O5A O 0.77842(7) 0.37009(8) 0.62145(9)
O6E O 0.27771(7) 0.74696(8) 0.40255(9)
O6F O 0.22229(7) 0.24696(8) 0.09745(9)
O6G O 0.77771(7) 0.24696(8) 0.40255(9)
O7E O 0.22647(7) 0.50009(8) 0.01537(9)
O7D O 0.77353(7) 0.50009(8) 0.48463(9)
O8E O 0.20305(7) 0.44879(8) 0.12219(9)
O8D O 0.79695(7) 0.44879(8) 0.37781(9)
C1A C 0.56224(9) 0.36538(10) 0.31061(12)
C3E C 0.28136(10) 0.63961(11) 0.11855(13)
H2E H 0.2863 0.6318 0.0644
C4A C 0.62965(9) 0.32149(11) 0.37772(12)
C5E C 0.25394(9) 0.68226(11) 0.35883(12)
C6A C 0.56276(9) 0.44843(11) 0.30965(12)
H3A H 0.6051 0.4773 0.3489
C7E C 0.24042(9) 0.59578(11) 0.22447(12)
H4E H 0.2182 0.5566 0.2432
C8E C 0.26464(9) 0.66668(11) 0.27577(12)
O9A O 0.55759(8) 0.61015(9) 0.29026(12)
O10E O 0.33821(9) 0.76037(10) 0.06637(11)
C9E C 0.24873(9) 0.58222(10) 0.14610(12)
C10E C 0.22417(9) 0.50571(11) 0.09076(12)
C11E C 0.29915(9) 0.72340(11) 0.25021(12)
H5E H 0.3171 0.7711 0.2855
O11E O 0.37771(10) 0.82005(11) 0.20093(13)
N2A N 0.92502(9) 0.45209(11) 0.77182(12)
N3E N 0.34361(9) 0.76715(11) 0.14454(13)
C13A C 0.93472(12) 0.36759(13) 0.79853(16)
H6A H 0.9237 0.3349 0.7432
H7A H 0.9028 0.3531 0.8227
H8A H 0.9841 0.3584 0.8476
N4A N 0.99803(9) 0.26168(11) 0.46868(13)
C14E C 0.30647(10) 0.70827(11) 0.17195(13)
C15A C 0.91076(10) 0.47526(13) 0.68708(14)
H9A H 0.9044 0.5306 0.6736
C16A C 0.93866(10) 0.26914(13) 0.47410(13)
H10A H 0.9138 0.2220 0.4724
C17A C 0.93727(13) 0.50910(15) 0.84532(16)
H11A H 0.9305 0.5632 0.8198
H12A H 0.9860 0.5033 0.8977
H13A H 0.9036 0.4992 0.8680
C18A C 1.03955(13) 0.33103(15) 0.47056(19)
H14A H 1.0346 0.3387 0.4081
H15A H 1.0898 0.3225 0.5170
H16A H 1.0221 0.3784 0.4879
C19A C 1.02020(14) 0.18478(16) 0.4506(2)
H17A H 0.9883 0.1431 0.4502
H18A H 1.0690 0.1734 0.5002
H19A H 1.0182 0.1861 0.3893
N5 N 0.34184(10) 0.53785(12) -0.10802(13)
O12 O 0.40470(9) 0.42798(11) -0.02841(12)
C20 C 0.35722(11) 0.47696(13) -0.04785(15)
H20 H 0.3293 0.4713 -0.0180
C21 C 0.28145(13) 0.58956(14) -0.13158(16)
H21 H 0.2557 0.5703 -0.1001
H22 H 0.2496 0.5893 -0.2000
H23 H 0.2984 0.6439 -0.1105
C22 C 0.38110(15) 0.54839(19) -0.15845(19)
H24 H 0.4198 0.5094 -0.1358
H25 H 0.4010 0.6023 -0.1474
H26 H 0.3489 0.5406 -0.2261
loop_
_geom_bond_atom_site_label_1
_geom_bond_atom_site_label_2
_geom_bond_site_symmetry_1
_geom_bond_site_symmetry_2
Gd1 O2 1_555 1_555
O1 C4 1_555 1_555
O2 C15 1_555 1_555
O3 Gd1 1_555 1_555
O4 Gd1 1_555 1_555
O5 Gd1 1_555 1_555
O6 C5 1_555 1_555
O7 C10 1_555 1_555
O8 C10 1_555 1_555
C1 C2 1_555 1_555
C2 H1 1_555 1_555
C3 H2 1_555 1_555
C4 O4 1_555 1_555
C5 O5 1_555 1_555
C6 C1 1_555 1_555
H3 C6 1_555 1_555
C7 H4 1_555 1_555
C8 C5 1_555 1_555
N1 O9 1_555 1_555
O10 N3 1_555 1_555
C9 C3 1_555 1_555
C10 C9 1_555 1_555
C11 C8 1_555 1_555
H5 C11 1_555 1_555
O11 N3 1_555 1_555
N2 C13 1_555 1_555
C12 C6 1_555 1_555
N3 C14 1_555 1_555
C13 H6 1_555 1_555
H7 C13 1_555 1_555
H8 C13 1_555 1_555
N4 C16 1_555 1_555
C14 C3 1_555 1_555
C15 N2 1_555 1_555
H9 C15 1_555 1_555
C16 O3 1_555 1_555
H10 C16 1_555 1_555
C17 N2 1_555 1_555
H11 C17 1_555 1_555
H12 C17 1_555 1_555
H13 C17 1_555 1_555
C18 N4 1_555 1_555
H14 C18 1_555 1_555
H15 C18 1_555 1_555
H16 C18 1_555 1_555
C19 N4 1_555 1_555
H17 C19 1_555 1_555
H18 C19 1_555 1_555
H19 C19 1_555 1_555
N5 C20 1_555 1_555
O12 C20 1_555 1_555
C20 H20 1_555 1_555
C21 N5 1_555 1_555
H21 C21 1_555 1_555
H22 C21 1_555 1_555
H23 C21 1_555 1_555
C22 N5 1_555 1_555
H24 C22 1_555 1_555
H25 C22 1_555 1_555
H26 C22 1_555 1_555
Gd1A O1G 1_555 1_555
Gd1F O1 1_555 1_555
Gd1E O7 1_555 1_555
Gd1G O1A 1_555 1_555
Gd1E_2 O5E 1_555 1_555
Gd1C O6E 1_555 1_555
O1A C4A 1_555 1_555
O1F Gd1 1_555 1_555
O2A Gd1A 1_555 1_555
O3A Gd1A 1_555 1_555
O4A Gd1A 1_555 1_555
O5E C5E 1_555 1_555
O5A Gd1A 1_555 1_555
O6E C5E 1_555 1_555
O6F Gd1 1_555 1_555
O6G Gd1A 1_555 1_555
O7E Gd1 1_555 1_555
O7D Gd1A 1_555 1_555
O8E Gd1 1_555 1_555
O8D Gd1A 1_555 1_555
C1A C2 1_555 1_555
C3E H2E 1_555 1_555
C4A O4A 1_555 1_555
C5E C8E 1_555 1_555
C6A C12 1_555 1_555
H3A C6A 1_555 1_555
C7E H4E 1_555 1_555
C8E C7E 1_555 1_555
O9A N1 1_555 1_555
O10E N3E 1_555 1_555
C9E C3E 1_555 1_555
C10E O7E 1_555 1_555
C11E C8E 1_555 1_555
H5E C11E 1_555 1_555
O11E N3E 1_555 1_555
N2A C13A 1_555 1_555
N3E C14E 1_555 1_555
C13A H6A 1_555 1_555
H7A C13A 1_555 1_555
H8A C13A 1_555 1_555
N4A C16A 1_555 1_555
C14E C3E 1_555 1_555
C15A O2A 1_555 1_555
H9A C15A 1_555 1_555
C16A O3A 1_555 1_555
H10A C16A 1_555 1_555
C17A N2A 1_555 1_555
H11A C17A 1_555 1_555
H12A C17A 1_555 1_555
H13A C17A 1_555 1_555
C18A N4A 1_555 1_555
H14A C18A 1_555 1_555
H15A C18A 1_555 1_555
H16A C18A 1_555 1_555
C19A N4A 1_555 1_555
H17A C19A 1_555 1_555
H18A C19A 1_555 1_555
H19A C19A 1_555 1_555
O6 Gd1F 1_555 1_555
O8 Gd1E 1_555 1_555
C1 C4 1_555 1_555
C7 C8 1_555 1_555
C7 C9 1_555 1_555
N1 C12 1_555 1_555
C11 C14 1_555 1_555
O8E C10E 1_555 1_555
C1A C4A 1_555 1_555
C1A C6A 1_555 1_555
C7E C9E 1_555 1_555
C9E C10E 1_555 1_555
C11E C14E 1_555 1_555
N2A C15A 1_555 1_555

#END
