
#######################################################################
#
#                 Cambridge Crystallographic Data Centre
#                                CCDC 
#
#######################################################################
#
# If this CIF has been generated from an entry in the Cambridge 
# Structural Database, then it will include bibliographic, chemical, 
# crystal, experimental, refinement or atomic coordinate data resulting 
# from the CCDC's data processing and validation procedures.
#
#######################################################################

data_CEDFOI
_symmetry_cell_setting           monoclinic
_symmetry_space_group_name_H-M   'C 2/c'
_symmetry_Int_Tables_number      15
_space_group_name_Hall           '-C 2yn'
loop_
_symmetry_equiv_pos_site_id
_symmetry_equiv_pos_as_xyz
1 x,y,z
2 -x,y,1/2-z
3 1/2+x,1/2+y,z
4 1/2-x,1/2+y,1/2-z
5 -x,-y,-z
6 x,-y,1/2+z
7 1/2-x,1/2-y,-z
8 1/2+x,1/2-y,1/2+z
_cell_length_a                   24.9427(2)
_cell_length_b                   16.9411(2)
_cell_length_c                   25.2889(2)
_cell_angle_alpha                90
_cell_angle_beta                 105.2080(10)
_cell_angle_gamma                90
_cell_volume                     10311.8
loop_
_atom_site_label
_atom_site_type_symbol
_atom_site_fract_x
_atom_site_fract_y
_atom_site_fract_z
Gd1 Gd 0.218148(9) 0.817639(12) 0.052427(8)
Gd2 Gd 0.408743(9) 0.899477(13) -0.261900(9)
O1 O 0.35149(18) 0.7840(3) -0.27179(18)
O2 O 0.12362(14) 0.8762(2) 0.04171(14)
O3 O 0.15039(14) 0.7754(2) 0.09801(14)
O4 O 0.33782(14) 0.9825(2) -0.23919(14)
O5 O 0.21363(14) 0.9137(2) -0.01861(13)
O6 O 0.25176(14) 0.81279(19) -0.05061(14)
O7 O 0.15152(13) 0.7522(2) -0.01923(14)
O8 O 0.02815(15) 0.6787(2) 0.20631(15)
O9 O -0.06335(15) 0.6880(2) 0.17329(15)
O10 O 0.04795(15) 0.4878(2) -0.19367(15)
O11 O 0.26483(15) 0.7891(2) 0.14812(14)
O12 O 0.36959(17) 0.8845(2) -0.18203(16)
O13 O -0.04116(15) 0.4907(2) -0.19353(15)
C1 C 0.23784(19) 0.8840(3) -0.05202(18)
C2 C 0.14579(19) 0.6944(3) -0.05138(19)
C3 C 0.11400(19) 0.8246(3) 0.07382(19)
O14 O 0.22862(14) 0.9417(2) 0.10166(14)
N1 N -0.0807(2) 0.9129(3) 0.0342(2)
C4 C 0.3384(2) 0.9430(3) -0.1967(2)
N2 N 0.3236(2) 0.8825(3) -0.43919(19)
N3 N 0.2027(2) 1.0663(3) 0.1151(2)
C5 C 0.3052(2) 0.8224(3) 0.1784(2)
H1 H 0.3137 0.8746 0.1694
N4 N -0.05757(19) 0.7138(3) -0.0673(2)
N5 N 0.2340(2) 1.1508(3) -0.1325(2)
N6 N 0.3374(2) 0.7896(3) 0.2227(2)
C6 C 0.3336(2) 0.8674(4) -0.3869(2)
H2 H 0.3333 0.8136 -0.3763
C7 C 0.2053(2) 1.0042(3) 0.0846(2)
H3 H 0.1878 1.0079 0.0465
C8 C 0.2262(3) 1.0666(4) 0.1741(3)
H4 H 0.1962 1.0649 0.1924
H5 H 0.2481 1.1148 0.1848
H6 H 0.2503 1.0204 0.1848
C9 C 0.3165(4) 0.8218(5) -0.4803(3)
H7 H 0.3210 0.7699 -0.4625
H8 H 0.3444 0.8283 -0.5009
H9 H 0.2793 0.8258 -0.5053
C10 C 0.3247(4) 0.9638(4) -0.4579(3)
H10 H 0.3302 0.9996 -0.4266
H11 H 0.2893 0.9760 -0.4845
H12 H 0.3552 0.9702 -0.4753
C11 C 0.3846(3) 0.8314(5) 0.2580(3)
H13 H 0.3873 0.8842 0.2431
H14 H 0.4188 0.8020 0.2596
H15 H 0.3793 0.8360 0.2949
N7 N 0.3598(2) 0.6589(3) -0.2390(2)
C12 C 0.0079(2) 0.5142(3) -0.17824(19)
C13 C -0.0145(2) 0.7052(3) 0.1734(2)
C14 C 0.3398(3) 0.7321(4) -0.2423(2)
H16 H 0.3151 0.7453 -0.2208
C15 C 0.4008(4) 0.6385(5) -0.2672(4)
H17 H 0.4094 0.6850 -0.2865
H18 H 0.3864 0.5964 -0.2936
H19 H 0.4346 0.6203 -0.2406
C16 C 0.3417(4) 0.5995(4) -0.2061(3)
H20 H 0.3170 0.6238 -0.1863
H21 H 0.3741 0.5770 -0.1798
H22 H 0.3217 0.5576 -0.2301
C17 C 0.07501(19) 0.6065(3) -0.11473(18)
H23 H 0.1044 0.5822 -0.1262
C18 C 0.0574(2) 0.8216(3) 0.0842(2)
C19 C 0.02076(19) 0.5805(3) -0.13667(18)
C20 C 0.08733(19) 0.6677(3) -0.07611(18)
C21 C -0.02278(19) 0.6147(3) -0.12028(19)
H24 H -0.0599 0.5967 -0.1343
C22 C 0.25198(19) 0.9388(3) -0.09355(18)
C23 C -0.0478(2) 0.8114(3) 0.1024(2)
H25 H -0.0840 0.8078 0.1078
C24 C -0.0050(2) 0.7628(3) 0.13125(19)
C25 C 0.3005(2) 0.9678(3) -0.16220(19)
C26 C 0.0431(2) 0.7035(3) -0.0602(2)
H26 H 0.0496 0.7455 -0.0344
C27 C -0.0105(2) 0.6758(3) -0.0830(2)
C28 C 0.2322(2) 1.0157(3) -0.0974(2)
H27 H 0.2077 1.0326 -0.0765
C29 C 0.2869(2) 0.9149(3) -0.12543(19)
H28 H 0.3014 0.8627 -0.1222
C30 C 0.2488(2) 1.0668(3) -0.1322(2)
C31 C 0.2812(2) 1.0440(3) -0.1662(2)
H29 H 0.2899 1.0800 -0.1916
C32 C 0.0159(2) 0.8717(3) 0.0564(2)
H30 H 0.0228 0.9098 0.0314
C33 C -0.0361(2) 0.8648(3) 0.0659(2)
C34 C 0.04704(19) 0.7669(3) 0.12154(19)
H31 H 0.0758 0.7324 0.1404
O15 O 0.34350(15) 0.9176(2) -0.34991(15)
O16 O 0.18388(13) 0.6577(2) -0.06486(14)
C35 C 0.3250(4) 0.7113(5) 0.2399(4)
H32 H 0.2995 0.7157 0.2633
H33 H 0.3595 0.6859 0.2604
H34 H 0.3077 0.6796 0.2075
O17 O -0.0720(2) 0.9557(3) -0.0023(2)
O18 O -0.1263(2) 0.9081(3) 0.0435(2)
O19 O 0.2539(2) 1.1974(3) -0.1584(2)
O20 O -0.1047(2) 0.6878(3) -0.0864(2)
O21 O -0.0473(3) 0.7800(8) -0.0423(5)
O22 O 0.2010(2) 1.1702(3) -0.1065(2)
C36 C 0.1749(4) 1.1388(6) 0.0921(4)
H35 H 0.1611 1.1333 0.0522
H36 H 0.2012 1.1829 0.1006
H37 H 0.1437 1.1491 0.1079
Gd1F Gd 0.281852(9) 0.682361(12) -0.052427(8)
Gd2F Gd 0.091257(9) 0.600523(13) 0.261900(9)
Gd2G Gd -0.091257(9) 0.600523(13) 0.238100(9)
Gd2C Gd 0.091257(9) 0.399477(13) -0.238100(9)
Gd2B Gd -0.091257(9) 0.399477(13) -0.261900(9)
O6F O 0.24824(14) 0.68721(19) 0.05061(14)
O8F O 0.47185(15) 0.8213(2) -0.20631(15)
O9G O 0.43665(15) 0.8120(2) -0.32671(15)
O10C O 0.45205(15) 0.9878(2) -0.30633(15)
O13B O 0.45884(15) 0.9907(2) -0.19353(15)
O16F O 0.31612(13) 0.8423(2) 0.06486(14)
O23 O 0.5500(9) 0.6624(14) 0.1758(9)
O24? O 0.5489(4) 0.7447(10) 0.0273(6)
O25? O 0.4693(4) 0.6192(6) 0.1381(4)
O26? O 0.4198(6) 0.5960(8) 0.0981(6)
O27? O 0.5137(7) 1.0258(10) 0.0204(7)
O28? O 0.4644(11) 1.0717(16) 0.0266(11)
O29? O 0.5204(13) 0.5972(17) 0.1276(12)
loop_
_geom_bond_atom_site_label_1
_geom_bond_atom_site_label_2
_geom_bond_site_symmetry_1
_geom_bond_site_symmetry_2
Gd1 O2 1_555 1_555
Gd2 O1 1_555 1_555
O1 C14 1_555 1_555
O2 C3 1_555 1_555
O3 Gd1 1_555 1_555
O4 Gd2 1_555 1_555
O5 Gd1 1_555 1_555
O6 C1 1_555 1_555
O7 Gd1 1_555 1_555
O8 C13 1_555 1_555
O9 C13 1_555 1_555
O10 C12 1_555 1_555
O11 Gd1 1_555 1_555
O12 Gd2 1_555 1_555
O13 C12 1_555 1_555
C1 O5 1_555 1_555
C2 O7 1_555 1_555
C3 O3 1_555 1_555
O14 Gd1 1_555 1_555
N1 C33 1_555 1_555
C4 O4 1_555 1_555
N2 C6 1_555 1_555
N3 C7 1_555 1_555
C5 O11 1_555 1_555
H1 C5 1_555 1_555
N4 C27 1_555 1_555
N5 C30 1_555 1_555
N6 C5 1_555 1_555
C6 H2 1_555 1_555
C7 O14 1_555 1_555
H3 C7 1_555 1_555
C8 N3 1_555 1_555
H4 C8 1_555 1_555
H5 C8 1_555 1_555
H6 C8 1_555 1_555
C9 N2 1_555 1_555
H7 C9 1_555 1_555
H8 C9 1_555 1_555
H9 C9 1_555 1_555
C10 N2 1_555 1_555
H10 C10 1_555 1_555
H11 C10 1_555 1_555
H12 C10 1_555 1_555
C11 N6 1_555 1_555
H13 C11 1_555 1_555
H14 C11 1_555 1_555
H15 C11 1_555 1_555
N7 C14 1_555 1_555
C12 C19 1_555 1_555
C13 C24 1_555 1_555
C14 H16 1_555 1_555
C15 N7 1_555 1_555
H17 C15 1_555 1_555
H18 C15 1_555 1_555
H19 C15 1_555 1_555
C16 N7 1_555 1_555
H20 C16 1_555 1_555
H21 C16 1_555 1_555
H22 C16 1_555 1_555
C17 H23 1_555 1_555
C18 C3 1_555 1_555
C19 C17 1_555 1_555
C20 C2 1_555 1_555
C21 C19 1_555 1_555
H24 C21 1_555 1_555
C22 C1 1_555 1_555
C23 H25 1_555 1_555
C24 C23 1_555 1_555
C25 C4 1_555 1_555
C26 C20 1_555 1_555
H26 C26 1_555 1_555
C27 C21 1_555 1_555
C28 C22 1_555 1_555
H27 C28 1_555 1_555
C29 C22 1_555 1_555
H28 C29 1_555 1_555
C30 C28 1_555 1_555
C31 C25 1_555 1_555
H29 C31 1_555 1_555
C32 C18 1_555 1_555
H30 C32 1_555 1_555
C33 C23 1_555 1_555
C34 C18 1_555 1_555
H31 C34 1_555 1_555
O15 Gd2 1_555 1_555
O16 C2 1_555 1_555
C35 N6 1_555 1_555
H32 C35 1_555 1_555
H33 C35 1_555 1_555
H34 C35 1_555 1_555
O17 N1 1_555 1_555
O18 N1 1_555 1_555
O19 N5 1_555 1_555
O20 N4 1_555 1_555
O21 N4 1_555 1_555
O22 N5 1_555 1_555
C36 N3 1_555 1_555
H35 C36 1_555 1_555
H36 C36 1_555 1_555
H37 C36 1_555 1_555
Gd1F O6 1_555 1_555
Gd2F O8 1_555 1_555
Gd2G O9 1_555 1_555
Gd2C O10 1_555 1_555
Gd2B O13 1_555 1_555
O6F Gd1 1_555 1_555
O8F Gd2 1_555 1_555
O9G Gd2 1_555 1_555
O10C Gd2 1_555 1_555
O13B Gd2 1_555 1_555
O16F Gd1 1_555 1_555
O12 C4 1_555 1_555
C6 O15 1_555 1_555
C17 C20 1_555 1_555
C24 C34 1_555 1_555
C25 C29 1_555 1_555
C26 C27 1_555 1_555
C30 C31 1_555 1_555
C32 C33 1_555 1_555
O16 Gd1F 1_555 1_555

#END
