
#######################################################################
#
#                 Cambridge Crystallographic Data Centre
#                                CCDC 
#
#######################################################################
#
# If this CIF has been generated from an entry in the Cambridge 
# Structural Database, then it will include bibliographic, chemical, 
# crystal, experimental, refinement or atomic coordinate data resulting 
# from the CCDC's data processing and validation procedures.
#
#######################################################################

data_CEDJUS
_symmetry_cell_setting           triclinic
_symmetry_space_group_name_H-M   'P -1'
_symmetry_Int_Tables_number      2
_space_group_name_Hall           '-P 1'
loop_
_symmetry_equiv_pos_site_id
_symmetry_equiv_pos_as_xyz
1 x,y,z
2 -x,-y,-z
_cell_length_a                   10.2314(11)
_cell_length_b                   10.9937(12)
_cell_length_c                   12.0449(13)
_cell_angle_alpha                106.453(2)
_cell_angle_beta                 96.762(2)
_cell_angle_gamma                101.273(2)
_cell_volume                     1252.51
loop_
_atom_site_label
_atom_site_type_symbol
_atom_site_fract_x
_atom_site_fract_y
_atom_site_fract_z
Cd1 Cd 0.18355(2) 0.11694(2) 0.067585(19)
Ni1 Ni 0.28823(4) 0.11616(4) 0.52535(3)
O1 O 0.2403(2) 0.25832(19) 0.26323(18)
O2 O 0.1523(2) -0.00764(19) 0.19167(18)
O3 O 0.4188(2) 0.1182(2) 0.0870(2)
O4 O 0.3401(2) 0.2462(2) -0.00303(19)
O5 O 0.9005(2) 0.07939(19) 0.07470(18)
O6 O 1.0403(2) 0.23589(19) 0.03248(19)
N1 N 0.2927(3) 0.2480(2) 0.4536(2)
N2 N 0.4504(3) 0.2149(2) 0.6321(2)
N3 N 0.2571(3) -0.0037(2) 0.6095(2)
N4 N 0.1592(3) 0.0079(2) 0.3896(2)
N5 N 0.7503(3) 0.5112(2) -0.0987(2)
H1 H 0.8393 0.5544 -0.0789
H2 H 0.6986 0.5677 -0.0712
C1 C 0.2436(3) 0.2002(3) 0.3380(3)
C2 C 0.3320(3) 0.3836(3) 0.5143(3)
C3 C 0.4207(3) 0.4267(3) 0.6235(3)
C4 C 0.4554(3) 0.5602(3) 0.6902(3)
H3 H 0.5171 0.5891 0.7631
C5 C 0.4014(3) 0.6496(3) 0.6515(3)
H4 H 0.4221 0.7387 0.6984
C6 C 0.3161(3) 0.6064(3) 0.5422(3)
H5 H 0.2800 0.6675 0.5138
C7 C 0.2824(3) 0.4761(3) 0.4737(3)
H6 H 0.2253 0.4495 0.3987
C8 C 0.4907(3) 0.3406(3) 0.6656(3)
H7 H 0.5723 0.3799 0.7219
C9 C 0.5496(3) 0.1437(3) 0.6681(3)
H8 H 0.6259 0.2073 0.7273
H9 H 0.5867 0.1020 0.5986
C10 C 0.4860(4) 0.0382(3) 0.7201(3)
H10 H 0.4923 -0.0482 0.6700
H11 H 0.5388 0.0550 0.7995
C11 C 0.3386(4) 0.0342(3) 0.7294(3)
H12 H 0.3050 -0.0298 0.7693
H13 H 0.3302 0.1212 0.7766
C12 C 0.1671(3) -0.1136(3) 0.5750(3)
H14 H 0.1565 -0.1586 0.6313
C13 C 0.0811(3) -0.1759(3) 0.4609(3)
C14 C 0.0759(3) -0.1183(3) 0.3695(3)
C15 C -0.0171(3) -0.1865(3) 0.2649(3)
H15 H -0.0258 -0.1477 0.2041
C16 C -0.0967(4) -0.3100(3) 0.2487(3)
H16 H -0.1587 -0.3546 0.1768
C17 C -0.0872(3) -0.3698(3) 0.3362(3)
H17 H -0.1392 -0.4557 0.3235
C18 C -0.0008(3) -0.3011(3) 0.4409(3)
H18 H 0.0037 -0.3397 0.5022
C19 C 0.1808(3) 0.0533(3) 0.2988(3)
C20 C 0.5771(3) 0.2567(3) 0.0178(3)
C21 C 0.6823(3) 0.1990(3) 0.0434(3)
H19 H 0.6667 0.1288 0.0752
C22 C 0.8103(3) 0.2458(3) 0.0217(3)
C23 C 0.8338(3) 0.3504(3) -0.0238(3)
H20 H 0.9214 0.3811 -0.0385
C24 C 0.7298(3) 0.4106(3) -0.0478(3)
C25 C 0.6008(3) 0.3609(3) -0.0272(3)
H21 H 0.5284 0.3992 -0.0442
C26 C 0.4370(3) 0.2036(3) 0.0355(3)
C27 C 0.9240(3) 0.1823(3) 0.0447(3)
Cd1A Cd 0.81645(2) -0.11694(2) -0.067585(19)
Cd1_2 Cd 1.18355(2) 0.11694(2) 0.067585(19)
O5A O 0.0995(2) -0.07939(19) -0.07470(18)
O6_2 O 0.0403(2) 0.23589(19) 0.03248(19)
loop_
_geom_bond_atom_site_label_1
_geom_bond_atom_site_label_2
_geom_bond_site_symmetry_1
_geom_bond_site_symmetry_2
Cd1 O1 1_555 1_555
Ni1 N1 1_555 1_555
O1 C1 1_555 1_555
O2 Cd1 1_555 1_555
O3 Cd1 1_555 1_555
O4 Cd1 1_555 1_555
O5 C27 1_555 1_555
O6 C27 1_555 1_555
N1 C1 1_555 1_555
N2 Ni1 1_555 1_555
N3 Ni1 1_555 1_555
N4 Ni1 1_555 1_555
N5 H1 1_555 1_555
H2 N5 1_555 1_555
C1 C19 1_555 1_555
C2 N1 1_555 1_555
C3 C2 1_555 1_555
C4 C3 1_555 1_555
H3 C4 1_555 1_555
C5 C4 1_555 1_555
H4 C5 1_555 1_555
C6 C5 1_555 1_555
H5 C6 1_555 1_555
C7 C2 1_555 1_555
H6 C7 1_555 1_555
C8 N2 1_555 1_555
H7 C8 1_555 1_555
C9 N2 1_555 1_555
H8 C9 1_555 1_555
H9 C9 1_555 1_555
C10 C9 1_555 1_555
H10 C10 1_555 1_555
H11 C10 1_555 1_555
C11 N3 1_555 1_555
H12 C11 1_555 1_555
H13 C11 1_555 1_555
C12 N3 1_555 1_555
H14 C12 1_555 1_555
C13 C12 1_555 1_555
C14 N4 1_555 1_555
C15 C14 1_555 1_555
H15 C15 1_555 1_555
C16 C15 1_555 1_555
H16 C16 1_555 1_555
C17 C16 1_555 1_555
H17 C17 1_555 1_555
C18 C13 1_555 1_555
H18 C18 1_555 1_555
C19 O2 1_555 1_555
C20 C21 1_555 1_555
C21 H19 1_555 1_555
C22 C21 1_555 1_555
C23 C22 1_555 1_555
H20 C23 1_555 1_555
C24 N5 1_555 1_555
C25 C20 1_555 1_555
H21 C25 1_555 1_555
C26 O3 1_555 1_555
C27 C22 1_555 1_555
Cd1A O5 1_555 1_555
Cd1_2 O6 1_555 1_555
O5A Cd1 1_555 1_555
O6_2 Cd1 1_555 1_555
O4 C26 1_555 1_555
N4 C19 1_555 1_555
C3 C8 1_555 1_555
C6 C7 1_555 1_555
C10 C11 1_555 1_555
C13 C14 1_555 1_555
C17 C18 1_555 1_555
C20 C26 1_555 1_555
C23 C24 1_555 1_555
C24 C25 1_555 1_555

#END
