
#######################################################################
#
#                 Cambridge Crystallographic Data Centre
#                                CCDC 
#
#######################################################################
#
# If this CIF has been generated from an entry in the Cambridge 
# Structural Database, then it will include bibliographic, chemical, 
# crystal, experimental, refinement or atomic coordinate data resulting 
# from the CCDC's data processing and validation procedures.
#
#######################################################################

data_CEDJOM
_symmetry_cell_setting           monoclinic
_symmetry_space_group_name_H-M   'P 2/n'
_symmetry_Int_Tables_number      13
_space_group_name_Hall           '-P 2yac'
loop_
_symmetry_equiv_pos_site_id
_symmetry_equiv_pos_as_xyz
1 x,y,z
2 1/2-x,y,1/2-z
3 -x,-y,-z
4 1/2+x,-y,1/2+z
_cell_length_a                   9.5246(5)
_cell_length_b                   11.2521(6)
_cell_length_c                   20.0397(10)
_cell_angle_alpha                90
_cell_angle_beta                 99.2120(10)
_cell_angle_gamma                90
_cell_volume                     2119.99
loop_
_atom_site_label
_atom_site_type_symbol
_atom_site_fract_x
_atom_site_fract_y
_atom_site_fract_z
Ni1 Ni 0.90580(3) 0.82152(3) 1.012140(14)
Mn1 Mn 0.7500 0.68923(4) 0.7500
O1 O 0.92468(18) 0.67504(16) 0.83658(8)
O2 O 0.72081(19) 0.83626(16) 0.82305(8)
O3 O 0.62888(17) 0.57638(17) 0.80004(9)
O4 O 0.5063(2) 0.40885(18) 0.79558(13)
O5 O 0.3417(2) 0.94929(18) 0.78849(12)
N1 N 0.9827(2) 0.72388(19) 0.95002(10)
N2 N 0.7962(2) 0.89628(19) 0.93476(10)
N3 N 0.8730(2) 0.9412(2) 1.07340(11)
N4 N 0.9628(2) 0.7158(2) 1.08481(11)
N5 N 0.2500 0.8971(3) 0.7500
C1 C 0.9103(2) 0.7337(2) 0.88777(12)
C2 C 0.7967(3) 0.8295(2) 0.87942(12)
C3 C 0.7066(3) 0.9969(2) 0.93519(12)
C4 C 0.6298(4) 1.0464(3) 0.87649(15)
H3 H 0.6348 1.0114 0.8349
C5 C 0.5469(4) 1.1461(3) 0.87913(17)
H4 H 0.4970 1.1769 0.8392
C6 C 0.5362(4) 1.2007(3) 0.93903(18)
H5 H 0.4788 1.2673 0.9402
C7 C 0.6112(3) 1.1556(3) 0.99673(16)
H6 H 0.6041 1.1922 1.0377
C8 C 0.6990(3) 1.0556(2) 0.99657(13)
C9 C 0.7873(3) 1.0292(3) 1.06008(14)
H7 H 0.7817 1.0818 1.0954
C10 C 0.9633(3) 0.9375(3) 1.14081(13)
H8 H 0.9538 1.0119 1.1642
H9 H 1.0621 0.9289 1.1353
C11 C 0.9223(4) 0.8357(3) 1.18314(14)
H10 H 1.0015 0.8178 1.2185
H11 H 0.8426 0.8600 1.2046
C12 C 0.8822(3) 0.7254(3) 1.14226(14)
H12 H 0.9015 0.6562 1.1711
H13 H 0.7811 0.7269 1.1250
C13 C 1.0527(3) 0.6305(3) 1.08629(13)
H14 H 1.0681 0.5837 1.1250
C14 C 1.1322(3) 0.6008(2) 1.03263(12)
C15 C 1.2427(3) 0.5198(2) 1.04900(13)
H15 H 1.2639 0.4913 1.0930
C16 C 1.3207(3) 0.4810(3) 1.00141(14)
H16 H 1.3932 0.4258 1.0127
C17 C 1.2899(3) 0.5251(3) 0.93659(14)
H17 H 1.3441 0.5008 0.9044
C18 C 1.1797(3) 0.6049(2) 0.91863(13)
H18 H 1.1606 0.6331 0.8745
C19 C 1.0974(3) 0.6433(2) 0.96575(12)
C20 C 0.5145(3) 0.5171(2) 0.79014(12)
C21 C 0.3771(2) 0.5857(2) 0.77100(11)
C22 C 0.3763(3) 0.7094(2) 0.77282(12)
H19 H 0.4586 0.7518 0.7890
C23 C 0.2500 0.7673(3) 0.7500
C24 C 0.2500 0.5261(3) 0.7500
H20 H 0.2500 0.4434 0.7500
Ni1A Ni 0.59420(3) 0.82152(3) 0.487860(14)
Mn1_2 Mn -0.2500 0.68923(4) 0.7500
O1A O 0.57532(18) 0.67504(16) 0.66342(8)
O2A O 0.77919(19) 0.83626(16) 0.67695(8)
O3A O -0.12888(17) 0.57638(17) 0.69996(9)
O3A_2 O 0.87112(17) 0.57638(17) 0.69996(9)
O4A O -0.0063(2) 0.40885(18) 0.70442(13)
O5A O 0.1583(2) 0.94929(18) 0.71151(12)
N1A N 0.5173(2) 0.72388(19) 0.54998(10)
N2A N 0.7038(2) 0.89628(19) 0.56524(10)
N3A N 0.6270(2) 0.9412(2) 0.42660(11)
N4A N 0.5372(2) 0.7158(2) 0.41519(11)
C1A C 0.5897(2) 0.7337(2) 0.61223(12)
C2A C 0.7033(3) 0.8295(2) 0.62058(12)
C3A C 0.7934(3) 0.9969(2) 0.56481(12)
C4A C 0.8702(4) 1.0464(3) 0.62351(15)
H3A H 0.8652 1.0114 0.6651
C5A C 0.9531(4) 1.1461(3) 0.62087(17)
H4A H 1.0030 1.1769 0.6608
C6A C 0.9638(4) 1.2007(3) 0.56097(18)
H5A H 1.0212 1.2673 0.5598
C7A C 0.8888(3) 1.1556(3) 0.50327(16)
H6A H 0.8959 1.1922 0.4623
C8A C 0.8010(3) 1.0556(2) 0.50343(13)
C9A C 0.7127(3) 1.0292(3) 0.43992(14)
H7A H 0.7183 1.0818 0.4046
C10A C 0.5367(3) 0.9375(3) 0.35919(13)
H8A H 0.5462 1.0119 0.3358
H9A H 0.4379 0.9289 0.3647
C11A C 0.5777(4) 0.8357(3) 0.31686(14)
H10A H 0.4985 0.8178 0.2815
H11A H 0.6574 0.8600 0.2954
C12A C 0.6178(3) 0.7254(3) 0.35774(14)
H12A H 0.5985 0.6562 0.3289
H13A H 0.7189 0.7269 0.3750
C13A C 0.4473(3) 0.6305(3) 0.41371(13)
H14A H 0.4319 0.5837 0.3750
C14A C 0.3678(3) 0.6008(2) 0.46737(12)
C15A C 0.2573(3) 0.5198(2) 0.45100(13)
H15A H 0.2361 0.4913 0.4070
C16A C 0.1793(3) 0.4810(3) 0.49859(14)
H16A H 0.1068 0.4258 0.4873
C17A C 0.2101(3) 0.5251(3) 0.56341(14)
H17A H 0.1559 0.5008 0.5956
C18A C 0.3203(3) 0.6049(2) 0.58137(13)
H18A H 0.3394 0.6331 0.6255
C19A C 0.4026(3) 0.6433(2) 0.53425(12)
C20A C -0.0145(3) 0.5171(2) 0.70986(12)
C21A C 0.1229(2) 0.5857(2) 0.72900(11)
C22A C 0.1237(3) 0.7094(2) 0.72718(12)
H19A H 0.0414 0.7518 0.7110
O6 O 0.7500 0.2971(3) 0.7500
H1? H 0.6846 0.3383 0.7630
H2? H 0.7753 0.2340 0.7726
loop_
_geom_bond_atom_site_label_1
_geom_bond_atom_site_label_2
_geom_bond_site_symmetry_1
_geom_bond_site_symmetry_2
Ni1 N1 1_555 1_555
Mn1 O1 1_555 1_555
O1 C1 1_555 1_555
O2 Mn1 1_555 1_555
O3 Mn1 1_555 1_555
O4 C20 1_555 1_555
O5 N5 1_555 1_555
N1 C1 1_555 1_555
N2 Ni1 1_555 1_555
N3 Ni1 1_555 1_555
N4 Ni1 1_555 1_555
N5 C23 1_555 1_555
C1 C2 1_555 1_555
C2 O2 1_555 1_555
C3 N2 1_555 1_555
C4 C3 1_555 1_555
H3 C4 1_555 1_555
C5 C4 1_555 1_555
H4 C5 1_555 1_555
C6 C5 1_555 1_555
H5 C6 1_555 1_555
C7 C6 1_555 1_555
H6 C7 1_555 1_555
C8 C3 1_555 1_555
C9 N3 1_555 1_555
H7 C9 1_555 1_555
C10 N3 1_555 1_555
H8 C10 1_555 1_555
H9 C10 1_555 1_555
C11 C10 1_555 1_555
H10 C11 1_555 1_555
H11 C11 1_555 1_555
C12 N4 1_555 1_555
H12 C12 1_555 1_555
H13 C12 1_555 1_555
C13 N4 1_555 1_555
H14 C13 1_555 1_555
C14 C13 1_555 1_555
C15 C14 1_555 1_555
H15 C15 1_555 1_555
C16 C15 1_555 1_555
H16 C16 1_555 1_555
C17 C16 1_555 1_555
H17 C17 1_555 1_555
C18 C17 1_555 1_555
H18 C18 1_555 1_555
C19 N1 1_555 1_555
C20 O3 1_555 1_555
C21 C20 1_555 1_555
C22 C21 1_555 1_555
H19 C22 1_555 1_555
C23 C22 1_555 1_555
C24 C21 1_555 1_555
H20 C24 1_555 1_555
Ni1A N1A 1_555 1_555
Mn1_2 O3A 1_555 1_555
O1A Mn1 1_555 1_555
O2A Mn1 1_555 1_555
O3A C20A 1_555 1_555
O3A_2 Mn1 1_555 1_555
O4A C20A 1_555 1_555
O5A N5 1_555 1_555
N1A C1A 1_555 1_555
N2A Ni1A 1_555 1_555
N3A Ni1A 1_555 1_555
N4A Ni1A 1_555 1_555
C1A O1A 1_555 1_555
C2A O2A 1_555 1_555
C3A N2A 1_555 1_555
C4A C3A 1_555 1_555
H3A C4A 1_555 1_555
C5A C4A 1_555 1_555
H4A C5A 1_555 1_555
C6A C5A 1_555 1_555
H5A C6A 1_555 1_555
C7A C6A 1_555 1_555
H6A C7A 1_555 1_555
C8A C3A 1_555 1_555
C9A N3A 1_555 1_555
H7A C9A 1_555 1_555
C10A N3A 1_555 1_555
H8A C10A 1_555 1_555
H9A C10A 1_555 1_555
C11A C10A 1_555 1_555
H10A C11A 1_555 1_555
H11A C11A 1_555 1_555
C12A N4A 1_555 1_555
H12A C12A 1_555 1_555
H13A C12A 1_555 1_555
C13A N4A 1_555 1_555
H14A C13A 1_555 1_555
C14A C13A 1_555 1_555
C15A C14A 1_555 1_555
H15A C15A 1_555 1_555
C16A C15A 1_555 1_555
H16A C16A 1_555 1_555
C17A C16A 1_555 1_555
H17A C17A 1_555 1_555
C18A C17A 1_555 1_555
H18A C18A 1_555 1_555
C19A N1A 1_555 1_555
C20A C21A 1_555 1_555
C21A C24 1_555 1_555
C22A C23 1_555 1_555
H19A C22A 1_555 1_555
N2 C2 1_555 1_555
C7 C8 1_555 1_555
C8 C9 1_555 1_555
C11 C12 1_555 1_555
C14 C19 1_555 1_555
C18 C19 1_555 1_555
N2A C2A 1_555 1_555
C1A C2A 1_555 1_555
C7A C8A 1_555 1_555
C8A C9A 1_555 1_555
C11A C12A 1_555 1_555
C14A C19A 1_555 1_555
C18A C19A 1_555 1_555
C21A C22A 1_555 1_555

#END
