
#######################################################################
#
#                 Cambridge Crystallographic Data Centre
#                                CCDC 
#
#######################################################################
#
# If this CIF has been generated from an entry in the Cambridge 
# Structural Database, then it will include bibliographic, chemical, 
# crystal, experimental, refinement or atomic coordinate data resulting 
# from the CCDC's data processing and validation procedures.
#
#######################################################################

data_CEDKUS
_symmetry_cell_setting           orthorhombic
_symmetry_space_group_name_H-M   'P c a 21'
_symmetry_Int_Tables_number      29
_space_group_name_Hall           'P 2c -2ac'
loop_
_symmetry_equiv_pos_site_id
_symmetry_equiv_pos_as_xyz
1 x,y,z
2 -x,-y,1/2+z
3 1/2-x,y,1/2+z
4 1/2+x,-y,z
_cell_length_a                   13.732(5)
_cell_length_b                   13.721(5)
_cell_length_c                   20.397(5)
_cell_angle_alpha                90
_cell_angle_beta                 90
_cell_angle_gamma                90
_cell_volume                     3843.14
loop_
_atom_site_label
_atom_site_type_symbol
_atom_site_fract_x
_atom_site_fract_y
_atom_site_fract_z
Cu1 Cu 0.99407(3) 1.37523(3) 0.73170(3)
Cu2 Cu 0.57390(3) 0.86587(3) 1.03767(2)
O1 O 1.13057(19) 1.3359(2) 0.71838(16)
O2 O 1.27501(19) 1.3933(2) 0.69493(18)
O3 O 1.36257(16) 1.5851(3) 0.75282(15)
O4 O 1.34946(19) 1.6210(2) 0.64711(13)
O5 O 0.70766(16) 0.8236(2) 1.05898(13)
O6 O 0.85710(19) 0.88231(19) 1.07505(18)
O7 O 0.92026(18) 1.1089(3) 1.13548(15)
O8 O 0.93522(15) 1.0911(2) 1.02937(13)
N1 N 1.04860(17) 1.5059(2) 0.72129(15)
N2 N 0.6285(2) 0.9985(2) 1.05451(14)
N3 N 0.9606(2) 1.2382(3) 0.74731(18)
N4 N 0.6121(3) 0.8744(3) 0.92847(18)
N5 N 0.5294(2) 0.7257(2) 1.03446(17)
N6 N 0.7099(4) 0.3198(9) 0.8912(3)
C1 C 1.0066(3) 1.5957(3) 0.71933(19)
H1 H 0.9392 1.5987 0.7236
C2 C 1.0527(3) 1.6772(3) 0.7119(2)
H2 H 1.0198 1.7364 0.7106
C3 C 1.1567(3) 1.6725(4) 0.70585(19)
H3 H 1.1923 1.7297 0.7010
C4 C 1.1987(2) 1.5948(3) 0.70694(17)
C5 C 1.1472(3) 1.5058(3) 0.7124(2)
C6 C 1.1878(3) 1.4057(4) 0.7090(3)
C7 C 1.3122(2) 1.5949(2) 0.6971(2)
C8 C 0.5802(3) 1.0862(4) 1.0551(2)
H4 H 0.5131 1.0868 1.0490
C9 C 0.6273(3) 1.1713(3) 1.0643(2)
H5 H 0.5940 1.2303 1.0637
C10 C 0.7282(2) 1.1680(3) 1.0747(2)
H6 H 0.7609 1.2255 1.0845
C11 C 0.7826(3) 1.0796(3) 1.0709(2)
C12 C 0.7282(2) 0.9942(4) 1.06352(18)
C13 C 0.8878(3) 1.0925(3) 1.0791(2)
C14 C 0.7693(3) 0.8956(3) 1.06732(18)
C15 C 0.9957(2) 1.1678(3) 0.7127(2)
H7 H 1.0382 1.1849 0.6791
C16 C 0.9772(3) 1.0726(3) 0.7202(2)
H8 H 0.9966 1.0286 0.6880
C17 C 0.9280(3) 1.0384(3) 0.7772(3)
C18 C 0.8930(3) 1.1100(4) 0.8127(2)
H9 H 0.8573 1.0935 0.8498
C19 C 0.9048(3) 1.2074(4) 0.7993(2)
H10 H 0.8746 1.2533 0.8260
C20 C 0.9184(3) 0.9298(4) 0.7907(2)
H11 H 0.8901 0.9210 0.8339
H12 H 0.9829 0.9011 0.7914
C21 C 0.8555(2) 0.8746(3) 0.7402(2)
H13 H 0.8839 0.8841 0.6971
H14 H 0.8588 0.8055 0.7500
C22 C 0.7489(3) 0.9044(4) 0.7373(2)
H15 H 0.7442 0.9720 0.7236
H16 H 0.7154 0.8648 0.7050
C23 C 0.7000(3) 0.8922(3) 0.8035(2)
C24 C 0.6588(3) 0.9715(4) 0.8382(2)
H17 H 0.6610 1.0338 0.8203
C25 C 0.6144(3) 0.9565(4) 0.8995(2)
H18 H 0.5851 1.0095 0.9200
C26 C 0.6497(4) 0.7949(4) 0.9012(2)
H19 H 0.6463 0.7348 0.9222
C27 C 0.6978(3) 0.8051(4) 0.8359(2)
H20 H 0.7269 0.7509 0.8168
C28 C 0.5806(3) 0.6558(4) 1.05746(17)
H21 H 0.6393 0.6734 1.0769
C29 C 0.5578(4) 0.5501(3) 1.0569(2)
H22 H 0.6004 0.5028 1.0724
C30 C 0.4643(3) 0.5281(3) 1.0303(2)
C31 C 0.4083(3) 0.6073(3) 1.0074(2)
H23 H 0.3459 0.5956 0.9915
C32 C 0.4440(3) 0.7033(4) 1.0078(2)
H24 H 0.4068 0.7525 0.9889
C33 C 0.4284(4) 0.4288(4) 1.0284(4)
H25 H 0.3910 0.4193 1.0682
H26 H 0.4850 0.3868 1.0317
C34 C 0.3688(5) 0.3904(4) 0.9743(4)
H27 H 0.3085 0.4272 0.9725
H28 H 0.3522 0.3232 0.9841
C35 C 0.4160(4) 0.3941(5) 0.9083(4)
H29 H 0.4068 0.4593 0.8910
H30 H 0.3806 0.3499 0.8798
C36 C 0.5250(6) 0.3692(4) 0.9025(3)
C37 C 0.5907(5) 0.4358(5) 0.8866(3)
H31 H 0.5728 0.5002 0.8792
C38 C 0.6901(9) 0.4057(7) 0.8813(5)
H32 H 0.7385 0.4502 0.8705
C39 C 0.6516(7) 0.2524(5) 0.9021(4)
H33 H 0.6725 0.1882 0.9056
C40 C 0.5463(6) 0.2788(6) 0.9093(3)
H34 H 0.4989 0.2322 0.9183
Cu1C Cu 1.49407(3) 1.62477(3) 0.73170(3)
Cu2C Cu 1.07390(3) 1.13413(3) 1.03767(2)
O3C O 0.86257(16) 1.4149(3) 0.75282(15)
O8C O 0.43522(15) 0.9089(2) 1.02937(13)
loop_
_geom_bond_atom_site_label_1
_geom_bond_atom_site_label_2
_geom_bond_site_symmetry_1
_geom_bond_site_symmetry_2
Cu1 O1 1_555 1_555
Cu2 O5 1_555 1_555
O1 C6 1_555 1_555
O2 C6 1_555 1_555
O3 C7 1_555 1_555
O4 C7 1_555 1_555
O5 C14 1_555 1_555
O6 C14 1_555 1_555
O7 C13 1_555 1_555
O8 C13 1_555 1_555
N1 Cu1 1_555 1_555
N2 Cu2 1_555 1_555
N3 Cu1 1_555 1_555
N4 Cu2 1_555 1_555
N5 Cu2 1_555 1_555
N6 C38 1_555 1_555
C1 N1 1_555 1_555
H1 C1 1_555 1_555
C2 C1 1_555 1_555
H2 C2 1_555 1_555
C3 C2 1_555 1_555
H3 C3 1_555 1_555
C4 C3 1_555 1_555
C5 N1 1_555 1_555
C6 C5 1_555 1_555
C7 C4 1_555 1_555
C8 N2 1_555 1_555
H4 C8 1_555 1_555
C9 C8 1_555 1_555
H5 C9 1_555 1_555
C10 C9 1_555 1_555
H6 C10 1_555 1_555
C11 C10 1_555 1_555
C12 N2 1_555 1_555
C13 C11 1_555 1_555
C14 C12 1_555 1_555
C15 N3 1_555 1_555
H7 C15 1_555 1_555
C16 C15 1_555 1_555
H8 C16 1_555 1_555
C17 C16 1_555 1_555
C18 C17 1_555 1_555
H9 C18 1_555 1_555
C19 N3 1_555 1_555
H10 C19 1_555 1_555
C20 C17 1_555 1_555
H11 C20 1_555 1_555
H12 C20 1_555 1_555
C21 C20 1_555 1_555
H13 C21 1_555 1_555
H14 C21 1_555 1_555
C22 C21 1_555 1_555
H15 C22 1_555 1_555
H16 C22 1_555 1_555
C23 C22 1_555 1_555
C24 C23 1_555 1_555
H17 C24 1_555 1_555
C25 N4 1_555 1_555
H18 C25 1_555 1_555
C26 N4 1_555 1_555
H19 C26 1_555 1_555
C27 C23 1_555 1_555
H20 C27 1_555 1_555
C28 N5 1_555 1_555
H21 C28 1_555 1_555
C29 C28 1_555 1_555
H22 C29 1_555 1_555
C30 C29 1_555 1_555
C31 C30 1_555 1_555
H23 C31 1_555 1_555
C32 N5 1_555 1_555
H24 C32 1_555 1_555
C33 C30 1_555 1_555
H25 C33 1_555 1_555
H26 C33 1_555 1_555
C34 C33 1_555 1_555
H27 C34 1_555 1_555
H28 C34 1_555 1_555
C35 C34 1_555 1_555
H29 C35 1_555 1_555
H30 C35 1_555 1_555
C36 C35 1_555 1_555
C37 C36 1_555 1_555
H31 C37 1_555 1_555
C38 C37 1_555 1_555
H32 C38 1_555 1_555
C39 N6 1_555 1_555
H33 C39 1_555 1_555
C40 C36 1_555 1_555
H34 C40 1_555 1_555
Cu1C O3 1_555 1_555
Cu2C O8 1_555 1_555
O3C Cu1 1_555 1_555
O8C Cu2 1_555 1_555
C4 C5 1_555 1_555
C11 C12 1_555 1_555
C18 C19 1_555 1_555
C24 C25 1_555 1_555
C26 C27 1_555 1_555
C31 C32 1_555 1_555
C39 C40 1_555 1_555

#END
