
#######################################################################
#
#                 Cambridge Crystallographic Data Centre
#                                CCDC 
#
#######################################################################
#
# If this CIF has been generated from an entry in the Cambridge 
# Structural Database, then it will include bibliographic, chemical, 
# crystal, experimental, refinement or atomic coordinate data resulting 
# from the CCDC's data processing and validation procedures.
#
#######################################################################

data_CEDLAZ
_symmetry_cell_setting           orthorhombic
_symmetry_space_group_name_H-M   'P b c n'
_symmetry_Int_Tables_number      60
_space_group_name_Hall           '-P 2n 2ab'
loop_
_symmetry_equiv_pos_site_id
_symmetry_equiv_pos_as_xyz
1 x,y,z
2 1/2-x,1/2-y,1/2+z
3 1/2+x,1/2-y,-z
4 -x,y,1/2-z
5 -x,-y,-z
6 1/2+x,1/2+y,1/2-z
7 1/2-x,1/2+y,z
8 x,-y,1/2+z
_cell_length_a                   13.8882(10)
_cell_length_b                   14.6592(12)
_cell_length_c                   21.181(4)
_cell_angle_alpha                90
_cell_angle_beta                 90
_cell_angle_gamma                90
_cell_volume                     4312.24
loop_
_atom_site_label
_atom_site_type_symbol
_atom_site_fract_x
_atom_site_fract_y
_atom_site_fract_z
Cu1 Cu 0.35696(2) 0.87653(2) 0.388489(14)
N1 N 0.24123(16) 0.94037(14) 0.41207(9)
N2 N 0.47855(16) 0.81523(16) 0.38462(9)
N3 N 0.83155(19) 0.39747(18) 0.21520(11)
O1 O 0.40907(13) 1.00285(12) 0.40518(9)
O2 O 0.36958(13) 1.15238(13) 0.42789(9)
O3 O 0.19450(14) 1.24660(13) 0.38429(8)
O4 O 0.17248(16) 1.24046(14) 0.48729(8)
C1 C 0.1582(2) 0.9016(2) 0.41294(14)
H1 H 0.1511 0.8393 0.4058
C2 C 0.0818(2) 0.9561(2) 0.42473(13)
H2 H 0.0208 0.9305 0.4279
C3 C 0.0933(2) 1.0540(2) 0.43256(13)
H3 H 0.0385 1.0889 0.4399
C4 C 0.18011(19) 1.09746(18) 0.42976(11)
C5 C 0.25227(18) 1.03641(17) 0.42003(11)
C6 C 0.35154(18) 1.0687(2) 0.41845(12)
C7 C 0.18462(17) 1.20065(19) 0.43578(12)
C8 C 0.53755(19) 0.81498(18) 0.43236(11)
H4 H 0.5279 0.8557 0.4654
C9 C 0.6124(2) 0.75658(18) 0.43454(13)
H5 H 0.6507 0.7547 0.4706
C10 C 0.63386(17) 0.6994(2) 0.38462(12)
C11 C 0.5731(2) 0.7001(2) 0.33363(12)
H6 H 0.5825 0.6618 0.2992
C12 C 0.4998(2) 0.7585(2) 0.33603(12)
H7 H 0.4594 0.7606 0.3011
C13 C 0.7139(2) 0.6317(2) 0.38594(13)
H8 H 0.7652 0.6563 0.4120
H9 H 0.7391 0.6258 0.3434
C14 C 0.6894(3) 0.5358(2) 0.41041(14)
H10 H 0.6681 0.5416 0.4539
H11 H 0.6350 0.5132 0.3862
C15 C 0.7675(3) 0.4639(2) 0.40842(12)
H12 H 0.8249 0.4871 0.4290
H13 H 0.7463 0.4103 0.4314
C16 C 0.7914(2) 0.4376(2) 0.34153(13)
C17 C 0.8626(2) 0.4838(3) 0.31063(15)
H14 H 0.8982 0.5287 0.3310
C18 C 0.8804(3) 0.4616(3) 0.24748(15)
H15 H 0.9289 0.4931 0.2265
C19 C 0.7612(2) 0.3537(2) 0.24560(14)
H16 H 0.7254 0.3097 0.2244
C20 C 0.7408(3) 0.3724(2) 0.30727(15)
H17 H 0.6915 0.3405 0.3271
Cu1E Cu 0.85696(2) 0.37653(2) 0.111511(14)
Cu1F Cu 0.14304(2) 1.37653(2) 0.388489(14)
N3E N 0.33155(19) 0.89747(18) 0.28480(11)
O3F O 0.30550(14) 0.74660(13) 0.38429(8)
O5 O 0.5448(2) 0.2547(3) 0.40682(15)
O6 O 0.5395(4) 0.4379(4) 0.3078(2)
O7 O 0.6653(4) 0.5517(5) 0.2499(3)
loop_
_geom_bond_atom_site_label_1
_geom_bond_atom_site_label_2
_geom_bond_site_symmetry_1
_geom_bond_site_symmetry_2
Cu1 N1 1_555 1_555
N1 C1 1_555 1_555
N2 Cu1 1_555 1_555
N3 C18 1_555 1_555
O1 Cu1 1_555 1_555
O2 C6 1_555 1_555
O3 C7 1_555 1_555
O4 C7 1_555 1_555
C1 H1 1_555 1_555
C2 C1 1_555 1_555
H2 C2 1_555 1_555
C3 C2 1_555 1_555
H3 C3 1_555 1_555
C4 C3 1_555 1_555
C5 N1 1_555 1_555
C6 O1 1_555 1_555
C7 C4 1_555 1_555
C8 N2 1_555 1_555
H4 C8 1_555 1_555
C9 C8 1_555 1_555
H5 C9 1_555 1_555
C10 C9 1_555 1_555
C11 C10 1_555 1_555
H6 C11 1_555 1_555
C12 N2 1_555 1_555
H7 C12 1_555 1_555
C13 C10 1_555 1_555
H8 C13 1_555 1_555
H9 C13 1_555 1_555
C14 C13 1_555 1_555
H10 C14 1_555 1_555
H11 C14 1_555 1_555
C15 C14 1_555 1_555
H12 C15 1_555 1_555
H13 C15 1_555 1_555
C16 C15 1_555 1_555
C17 C16 1_555 1_555
H14 C17 1_555 1_555
C18 C17 1_555 1_555
H15 C18 1_555 1_555
C19 N3 1_555 1_555
H16 C19 1_555 1_555
C20 C16 1_555 1_555
H17 C20 1_555 1_555
Cu1E N3 1_555 1_555
Cu1F O3 1_555 1_555
N3E Cu1 1_555 1_555
O3F Cu1 1_555 1_555
C4 C5 1_555 1_555
C5 C6 1_555 1_555
C11 C12 1_555 1_555
C19 C20 1_555 1_555

#END
