
#######################################################################
#
#                 Cambridge Crystallographic Data Centre
#                                CCDC 
#
#######################################################################
#
# If this CIF has been generated from an entry in the Cambridge 
# Structural Database, then it will include bibliographic, chemical, 
# crystal, experimental, refinement or atomic coordinate data resulting 
# from the CCDC's data processing and validation procedures.
#
#######################################################################

data_CEDMEF
_symmetry_cell_setting           monoclinic
_symmetry_space_group_name_H-M   'P 21/n'
_symmetry_Int_Tables_number      14
_space_group_name_Hall           '-P 2yn'
loop_
_symmetry_equiv_pos_site_id
_symmetry_equiv_pos_as_xyz
1 x,y,z
2 1/2-x,1/2+y,1/2-z
3 -x,-y,-z
4 1/2+x,1/2-y,1/2+z
_cell_length_a                   5.2750(1)
_cell_length_b                   21.5070(3)
_cell_length_c                   12.2530(2)
_cell_angle_alpha                90
_cell_angle_beta                 101.063(1)
_cell_angle_gamma                90
_cell_volume                     1364.26
loop_
_atom_site_label
_atom_site_type_symbol
_atom_site_fract_x
_atom_site_fract_y
_atom_site_fract_z
Zn1 Zn 1.07950(4) 1.351852(9) 0.639786(16)
Cl1 Cl 1.12971(10) 1.38546(2) 0.47361(4)
N1 N 0.8483(3) 1.27453(7) 0.61721(13)
C1 C 0.6476(4) 1.27039(9) 0.53181(16)
H1 H 0.6332 1.3003 0.4738
Cl2 Cl 1.40701(8) 1.32308(2) 0.77687(4)
N2 N 0.0784(3) 1.12378(7) 0.52586(13)
H2 H 0.0521 1.1459 0.4643
C2 C 0.4608(4) 1.22470(9) 0.52415(16)
H3 H 0.3221 1.2234 0.4620
N3 N -0.0800(3) 1.07801(7) 0.54539(13)
C3 C 0.4784(3) 1.18047(8) 0.60897(15)
N4 N -0.3843(3) 0.91941(7) 0.79354(12)
C4 C 0.6900(4) 1.18431(8) 0.69660(15)
H4 H 0.7110 1.1547 0.7552
C5 C 0.8685(4) 1.23121(8) 0.69783(15)
H5 H 1.0118 1.2331 0.7580
C6 C 0.2830(3) 1.13274(9) 0.61018(15)
C7 C 0.2541(4) 1.08974(8) 0.69134(15)
H6 H 0.3642 1.0838 0.7616
C8 C 0.0272(3) 1.05692(8) 0.64736(14)
C9 C -0.4322(3) 0.92945(8) 0.68312(15)
H7 H -0.5633 0.9057 0.6376
C10 C -0.2994(3) 0.97273(8) 0.63336(15)
H8 H -0.3395 0.9785 0.5551
C11 C -0.1056(3) 1.00816(8) 0.69821(15)
C12 C -0.0517(4) 0.99653(9) 0.81239(16)
H9 H 0.0819 1.0188 0.8595
C13 C -0.1940(4) 0.95244(9) 0.85617(16)
H10 H -0.1558 0.9451 0.9341
Zn1A Zn -0.57950(4) 0.851852(9) 0.860214(16)
N4A N 0.8843(3) 1.41941(7) 0.70646(12)
loop_
_geom_bond_atom_site_label_1
_geom_bond_atom_site_label_2
_geom_bond_site_symmetry_1
_geom_bond_site_symmetry_2
Zn1 Cl1 1_555 1_555
N1 Zn1 1_555 1_555
C1 N1 1_555 1_555
H1 C1 1_555 1_555
Cl2 Zn1 1_555 1_555
N2 H2 1_555 1_555
C2 C1 1_555 1_555
H3 C2 1_555 1_555
N3 N2 1_555 1_555
C3 C2 1_555 1_555
N4 C9 1_555 1_555
C4 C3 1_555 1_555
H4 C4 1_555 1_555
C5 N1 1_555 1_555
H5 C5 1_555 1_555
C6 N2 1_555 1_555
C7 C6 1_555 1_555
H6 C7 1_555 1_555
C8 N3 1_555 1_555
C9 H7 1_555 1_555
C10 C9 1_555 1_555
H8 C10 1_555 1_555
C11 C8 1_555 1_555
C12 C11 1_555 1_555
H9 C12 1_555 1_555
C13 N4 1_555 1_555
H10 C13 1_555 1_555
Zn1A N4 1_555 1_555
N4A Zn1 1_555 1_555
C3 C6 1_555 1_555
C4 C5 1_555 1_555
C7 C8 1_555 1_555
C10 C11 1_555 1_555
C12 C13 1_555 1_555

#END
