
#######################################################################
#
#                 Cambridge Crystallographic Data Centre
#                                CCDC 
#
#######################################################################
#
# If this CIF has been generated from an entry in the Cambridge 
# Structural Database, then it will include bibliographic, chemical, 
# crystal, experimental, refinement or atomic coordinate data resulting 
# from the CCDC's data processing and validation procedures.
#
#######################################################################

data_CEDWOY01
_symmetry_cell_setting           monoclinic
_symmetry_space_group_name_H-M   'C 2/c'
_symmetry_Int_Tables_number      15
_space_group_name_Hall           '-C 2yn'
loop_
_symmetry_equiv_pos_site_id
_symmetry_equiv_pos_as_xyz
1 x,y,z
2 1/2+x,1/2+y,z
3 -x,y,1/2-z
4 1/2-x,1/2+y,1/2-z
5 -x,-y,-z
6 1/2-x,1/2-y,-z
7 x,-y,1/2+z
8 1/2+x,1/2-y,1/2+z
_cell_length_a                   15.0903(7)
_cell_length_b                   14.3131(7)
_cell_length_c                   7.6708(4)
_cell_angle_alpha                90
_cell_angle_beta                 92.513(2)
_cell_angle_gamma                90
_cell_volume                     1655.21
loop_
_atom_site_label
_atom_site_type_symbol
_atom_site_fract_x
_atom_site_fract_y
_atom_site_fract_z
Mn1 Mn 0.5000 0.0000 0.0000
O1 O 0.59436(16) -0.09801(18) 0.1189(3)
O2 O 0.60877(16) -0.07414(18) 0.4077(3)
O3 O 0.5000 0.0869(2) 0.2500
C1 C 0.7100(2) -0.1753(2) 0.2765(4)
C2 C 0.7056(2) -0.2587(2) 0.1911(4)
H1 H 0.6521 -0.2774 0.1313
C3 C 0.7802(2) -0.3169(3) 0.1915(5)
H2 H 0.7749 -0.3751 0.1325
N1 N 0.85699(19) -0.2959(2) 0.2685(4)
C4 C 0.8627(2) -0.2136(2) 0.3610(4)
C5 C 0.9446(2) -0.1919(3) 0.4474(5)
H3 H 0.9931 -0.2340 0.4412
C6 C 0.9544(2) -0.1118(3) 0.5386(5)
H4 H 1.0103 -0.0969 0.5932
C7 C 0.8826(2) -0.0502(3) 0.5537(5)
H5 H 0.8899 0.0051 0.6212
C8 C 0.8030(2) -0.0692(3) 0.4723(5)
H6 H 0.7551 -0.0268 0.4834
C9 C 0.7903(2) -0.1507(2) 0.3715(4)
C10 C 0.6305(2) -0.1105(2) 0.2673(5)
H7 H 0.545(2) 0.123(3) 0.243(5)
Mn1F Mn 0.5000 0.0000 0.5000
Mn1F_2 Mn 0.5000 0.0000 -0.5000
O1D O 0.40564(16) 0.09801(18) -0.1189(3)
O2D O 0.39123(16) 0.07414(18) -0.4077(3)
O2F O 0.60877(16) 0.07414(18) -0.0923(3)
O2B O 0.39123(16) -0.07414(18) 0.0923(3)
O3F O 0.5000 -0.0869(2) -0.2500
C1D C 0.2900(2) 0.1753(2) -0.2765(4)
C2D C 0.2944(2) 0.2587(2) -0.1911(4)
H1D H 0.3479 0.2774 -0.1313
C3D C 0.2198(2) 0.3169(3) -0.1915(5)
H2D H 0.2251 0.3751 -0.1325
N1D N 0.14301(19) 0.2959(2) -0.2685(4)
C4D C 0.1373(2) 0.2136(2) -0.3610(4)
C5D C 0.0554(2) 0.1919(3) -0.4474(5)
H3D H 0.0069 0.2340 -0.4412
C6D C 0.0456(2) 0.1118(3) -0.5386(5)
H4D H -0.0103 0.0969 -0.5932
C7D C 0.1174(2) 0.0502(3) -0.5537(5)
H5D H 0.1101 -0.0051 -0.6212
C8D C 0.1970(2) 0.0692(3) -0.4723(5)
H6D H 0.2449 0.0268 -0.4834
C9D C 0.2097(2) 0.1507(2) -0.3715(4)
C10D C 0.3695(2) 0.1105(2) -0.2673(5)
H7B H 0.455(2) 0.123(3) 0.257(5)
H7F H 0.545(2) -0.123(3) -0.257(5)
H7D H 0.455(2) -0.123(3) -0.243(5)
loop_
_geom_bond_atom_site_label_1
_geom_bond_atom_site_label_2
_geom_bond_site_symmetry_1
_geom_bond_site_symmetry_2
Mn1 O1 1_555 1_555
O1 C10 1_555 1_555
O2 C10 1_555 1_555
O3 Mn1 1_555 1_555
C1 C2 1_555 1_555
C2 H1 1_555 1_555
C3 C2 1_555 1_555
H2 C3 1_555 1_555
N1 C3 1_555 1_555
C4 N1 1_555 1_555
C5 C4 1_555 1_555
H3 C5 1_555 1_555
C6 C5 1_555 1_555
H4 C6 1_555 1_555
C7 C6 1_555 1_555
H5 C7 1_555 1_555
C8 C7 1_555 1_555
H6 C8 1_555 1_555
C9 C1 1_555 1_555
C10 C1 1_555 1_555
H7 O3 1_555 1_555
Mn1F O2 1_555 1_555
Mn1F_2 O2D 1_555 1_555
O1D Mn1 1_555 1_555
O2D C10D 1_555 1_555
O2F Mn1 1_555 1_555
O2B Mn1 1_555 1_555
O3F Mn1 1_555 1_555
C1D C2D 1_555 1_555
C2D H1D 1_555 1_555
C3D C2D 1_555 1_555
H2D C3D 1_555 1_555
N1D C3D 1_555 1_555
C4D N1D 1_555 1_555
C5D C4D 1_555 1_555
H3D C5D 1_555 1_555
C6D C5D 1_555 1_555
H4D C6D 1_555 1_555
C7D C6D 1_555 1_555
H5D C7D 1_555 1_555
C8D C7D 1_555 1_555
H6D C8D 1_555 1_555
C9D C1D 1_555 1_555
C10D O1D 1_555 1_555
H7B O3 1_555 1_555
H7F O3F 1_555 1_555
H7D O3F 1_555 1_555
O3 Mn1F 1_555 1_555
C4 C9 1_555 1_555
C8 C9 1_555 1_555
Mn1F_2 O3F 1_555 1_555
C1D C10D 1_555 1_555
C4D C9D 1_555 1_555
C8D C9D 1_555 1_555

#END
