
#######################################################################
#
#                 Cambridge Crystallographic Data Centre
#                                CCDC 
#
#######################################################################
#
# If this CIF has been generated from an entry in the Cambridge 
# Structural Database, then it will include bibliographic, chemical, 
# crystal, experimental, refinement or atomic coordinate data resulting 
# from the CCDC's data processing and validation procedures.
#
#######################################################################

data_CEDWUE
_symmetry_cell_setting           monoclinic
_symmetry_space_group_name_H-M   'C 2/c'
_symmetry_Int_Tables_number      15
_space_group_name_Hall           '-C 2yn'
loop_
_symmetry_equiv_pos_site_id
_symmetry_equiv_pos_as_xyz
1 x,y,z
2 1/2+x,1/2+y,z
3 -x,y,1/2-z
4 1/2-x,1/2+y,1/2-z
5 -x,-y,-z
6 1/2-x,1/2-y,-z
7 x,-y,1/2+z
8 1/2+x,1/2-y,1/2+z
_cell_length_a                   14.926(5)
_cell_length_b                   14.42(2)
_cell_length_c                   7.529(3)
_cell_angle_alpha                90
_cell_angle_beta                 92.33(3)
_cell_angle_gamma                90
_cell_volume                     1619.15
loop_
_atom_site_label
_atom_site_type_symbol
_atom_site_fract_x
_atom_site_fract_y
_atom_site_fract_z
Co1 Co 0.0000 0.0000 0.5000
O1 O 0.09425(18) -0.09188(18) 0.1139(3)
O2 O 0.10294(17) -0.07530(19) 0.4100(3)
O3 O 0.0000 -0.0836(2) 0.7500
H1 H -0.047(3) -0.123(3) 0.743(6)
N1 N 0.35382(19) -0.29578(19) 0.2673(4)
C1 C 0.1268(2) -0.1081(2) 0.2662(4)
C2 C 0.2064(2) -0.1746(2) 0.2760(4)
C3 C 0.2005(2) -0.2577(2) 0.1900(4)
H2 H 0.1474 -0.2752 0.1303
C4 C 0.2759(2) -0.3169(2) 0.1925(4)
H3 H 0.2698 -0.3745 0.1376
C5 C 0.3606(2) -0.2133(2) 0.3581(4)
C6 C 0.4437(2) -0.1923(3) 0.4440(5)
H4 H 0.4913 -0.2337 0.4374
C7 C 0.4548(3) -0.1114(3) 0.5373(5)
H5 H 0.5103 -0.0974 0.5914
C8 C 0.3827(3) -0.0492(3) 0.5521(5)
H6 H 0.3906 0.0050 0.6180
C9 C 0.3015(2) -0.0680(2) 0.4704(4)
H7 H 0.2544 -0.0265 0.4815
C10 C 0.2879(2) -0.1502(2) 0.3682(4)
Co1F Co 0.0000 0.0000 0.0000
Co1F_2 Co 0.0000 0.0000 1.0000
O1F O 0.09425(18) 0.09188(18) 0.6139(3)
O1B O -0.09425(18) -0.09188(18) 0.3861(3)
O2F O 0.10294(17) 0.07530(19) 0.9100(3)
O2D O -0.10294(17) 0.07530(19) 0.5900(3)
O3F O 0.0000 0.0836(2) 0.2500
H1F H -0.047(3) 0.123(3) 0.243(6)
H1B H 0.047(3) -0.123(3) 0.757(6)
H1D H 0.047(3) 0.123(3) 0.257(6)
N1F N 0.35382(19) 0.29578(19) 0.7673(4)
C1F C 0.1268(2) 0.1081(2) 0.7662(4)
C2F C 0.2064(2) 0.1746(2) 0.7760(4)
C3F C 0.2005(2) 0.2577(2) 0.6900(4)
H2F H 0.1474 0.2752 0.6303
C4F C 0.2759(2) 0.3169(2) 0.6925(4)
H3F H 0.2698 0.3745 0.6376
C5F C 0.3606(2) 0.2133(2) 0.8581(4)
C6F C 0.4437(2) 0.1923(3) 0.9440(5)
H4F H 0.4913 0.2337 0.9374
C7F C 0.4548(3) 0.1114(3) 1.0373(5)
H5F H 0.5103 0.0974 1.0914
C8F C 0.3827(3) 0.0492(3) 1.0521(5)
H6F H 0.3906 -0.0050 1.1180
C9F C 0.3015(2) 0.0680(2) 0.9704(4)
H7F H 0.2544 0.0265 0.9815
C10F C 0.2879(2) 0.1502(2) 0.8682(4)
loop_
_geom_bond_atom_site_label_1
_geom_bond_atom_site_label_2
_geom_bond_site_symmetry_1
_geom_bond_site_symmetry_2
Co1 O2 1_555 1_555
O1 C1 1_555 1_555
O2 C1 1_555 1_555
O3 Co1 1_555 1_555
H1 O3 1_555 1_555
N1 C4 1_555 1_555
C1 C2 1_555 1_555
C2 C3 1_555 1_555
C3 H2 1_555 1_555
C4 C3 1_555 1_555
H3 C4 1_555 1_555
C5 N1 1_555 1_555
C6 C5 1_555 1_555
H4 C6 1_555 1_555
C7 C6 1_555 1_555
H5 C7 1_555 1_555
C8 C7 1_555 1_555
H6 C8 1_555 1_555
C9 C8 1_555 1_555
H7 C9 1_555 1_555
C10 C2 1_555 1_555
Co1F O1 1_555 1_555
Co1F_2 O3 1_555 1_555
O1F Co1 1_555 1_555
O1B Co1 1_555 1_555
O2F Co1F_2 1_555 1_555
O2D Co1 1_555 1_555
O3F Co1 1_555 1_555
H1F O3F 1_555 1_555
H1B O3 1_555 1_555
H1D O3F 1_555 1_555
N1F C4F 1_555 1_555
C1F O1F 1_555 1_555
C2F C1F 1_555 1_555
C3F C2F 1_555 1_555
H2F C3F 1_555 1_555
C4F C3F 1_555 1_555
H3F C4F 1_555 1_555
C5F N1F 1_555 1_555
C6F C5F 1_555 1_555
H4F C6F 1_555 1_555
C7F C6F 1_555 1_555
H5F C7F 1_555 1_555
C8F C7F 1_555 1_555
H6F C8F 1_555 1_555
C9F C8F 1_555 1_555
H7F C9F 1_555 1_555
C10F C2F 1_555 1_555
C5 C10 1_555 1_555
C9 C10 1_555 1_555
Co1F O3F 1_555 1_555
O2F C1F 1_555 1_555
C5F C10F 1_555 1_555
C9F C10F 1_555 1_555

#END
