
#######################################################################
#
#                 Cambridge Crystallographic Data Centre
#                                CCDC 
#
#######################################################################
#
# If this CIF has been generated from an entry in the Cambridge 
# Structural Database, then it will include bibliographic, chemical, 
# crystal, experimental, refinement or atomic coordinate data resulting 
# from the CCDC's data processing and validation procedures.
#
#######################################################################

data_CEDWOY
_symmetry_cell_setting           monoclinic
_symmetry_space_group_name_H-M   'C 2/c'
_symmetry_Int_Tables_number      15
_space_group_name_Hall           '-C 2yn'
loop_
_symmetry_equiv_pos_site_id
_symmetry_equiv_pos_as_xyz
1 x,y,z
2 1/2+x,1/2+y,z
3 -x,y,1/2-z
4 1/2-x,1/2+y,1/2-z
5 -x,-y,-z
6 1/2-x,1/2-y,-z
7 x,-y,1/2+z
8 1/2+x,1/2-y,1/2+z
_cell_length_a                   15.08(5)
_cell_length_b                   14.39(3)
_cell_length_c                   7.71(2)
_cell_angle_alpha                90.00
_cell_angle_beta                 92.42(11)
_cell_angle_gamma                90.00
_cell_volume                     1671.59
loop_
_atom_site_label
_atom_site_type_symbol
_atom_site_fract_x
_atom_site_fract_y
_atom_site_fract_z
Mn1 Mn 0.0000 0.0000 0.5000
O1 O 0.0969(3) -0.0950(3) 0.1189(5)
O2 O 0.1061(2) -0.0763(3) 0.4062(5)
O3 O 0.0000 -0.0881(3) 0.7500
H1 H -0.056(6) -0.126(6) 0.771(12)
N1 N 0.3566(3) -0.2949(3) 0.2702(5)
C1 C 0.1301(3) -0.1097(3) 0.2657(6)
C2 C 0.2094(3) -0.1749(3) 0.2757(6)
C3 C 0.2050(3) -0.2574(3) 0.1910(6)
H2 H 0.1528 -0.2750 0.1313
C4 C 0.2790(3) -0.3162(3) 0.1932(6)
H3 H 0.2735 -0.3734 0.1376
C5 C 0.3615(3) -0.2126(3) 0.3608(6)
C6 C 0.4440(3) -0.1911(4) 0.4455(7)
H4 H 0.4919 -0.2312 0.4369
C7 C 0.4528(4) -0.1116(4) 0.5396(7)
H5 H 0.5069 -0.0979 0.5964
C8 C 0.3820(4) -0.0502(4) 0.5519(7)
H6 H 0.3897 0.0041 0.6161
C9 C 0.3016(4) -0.0685(3) 0.4714(7)
H7 H 0.2546 -0.0274 0.4827
C10 C 0.2896(3) -0.1503(3) 0.3705(6)
Mn1F Mn 0.0000 0.0000 0.0000
Mn1F_2 Mn 0.0000 0.0000 1.0000
O1F O 0.0969(3) 0.0950(3) 0.6189(5)
O1B O -0.0969(3) -0.0950(3) 0.3811(5)
O2F O 0.1061(2) 0.0763(3) 0.9062(5)
O2D O -0.1061(2) 0.0763(3) 0.5938(5)
O3F O 0.0000 0.0881(3) 0.2500
H1F H -0.056(6) 0.126(6) 0.271(12)
H1B H 0.056(6) -0.126(6) 0.729(12)
H1D H 0.056(6) 0.126(6) 0.229(12)
N1F N 0.3566(3) 0.2949(3) 0.7702(5)
C1F C 0.1301(3) 0.1097(3) 0.7657(6)
C2F C 0.2094(3) 0.1749(3) 0.7757(6)
C3F C 0.2050(3) 0.2574(3) 0.6910(6)
H2F H 0.1528 0.2750 0.6313
C4F C 0.2790(3) 0.3162(3) 0.6932(6)
H3F H 0.2735 0.3734 0.6376
C5F C 0.3615(3) 0.2126(3) 0.8608(6)
C6F C 0.4440(3) 0.1911(4) 0.9455(7)
H4F H 0.4919 0.2312 0.9369
C7F C 0.4528(4) 0.1116(4) 1.0396(7)
H5F H 0.5069 0.0979 1.0964
C8F C 0.3820(4) 0.0502(4) 1.0519(7)
H6F H 0.3897 -0.0041 1.1161
C9F C 0.3016(4) 0.0685(3) 0.9714(7)
H7F H 0.2546 0.0274 0.9827
C10F C 0.2896(3) 0.1503(3) 0.8705(6)
loop_
_geom_bond_atom_site_label_1
_geom_bond_atom_site_label_2
_geom_bond_site_symmetry_1
_geom_bond_site_symmetry_2
Mn1 O2 1_555 1_555
O1 C1 1_555 1_555
O2 C1 1_555 1_555
O3 Mn1 1_555 1_555
H1 O3 1_555 1_555
N1 C4 1_555 1_555
C1 C2 1_555 1_555
C2 C3 1_555 1_555
C3 H2 1_555 1_555
C4 C3 1_555 1_555
H3 C4 1_555 1_555
C5 N1 1_555 1_555
C6 C5 1_555 1_555
H4 C6 1_555 1_555
C7 C6 1_555 1_555
H5 C7 1_555 1_555
C8 C7 1_555 1_555
H6 C8 1_555 1_555
C9 C8 1_555 1_555
H7 C9 1_555 1_555
C10 C2 1_555 1_555
Mn1F O1 1_555 1_555
Mn1F_2 O3 1_555 1_555
O1F Mn1 1_555 1_555
O1B Mn1 1_555 1_555
O2F Mn1F_2 1_555 1_555
O2D Mn1 1_555 1_555
O3F Mn1 1_555 1_555
H1F O3F 1_555 1_555
H1B O3 1_555 1_555
H1D O3F 1_555 1_555
N1F C4F 1_555 1_555
C1F O1F 1_555 1_555
C2F C1F 1_555 1_555
C3F C2F 1_555 1_555
H2F C3F 1_555 1_555
C4F C3F 1_555 1_555
H3F C4F 1_555 1_555
C5F N1F 1_555 1_555
C6F C5F 1_555 1_555
H4F C6F 1_555 1_555
C7F C6F 1_555 1_555
H5F C7F 1_555 1_555
C8F C7F 1_555 1_555
H6F C8F 1_555 1_555
C9F C8F 1_555 1_555
H7F C9F 1_555 1_555
C10F C2F 1_555 1_555
C5 C10 1_555 1_555
C9 C10 1_555 1_555
Mn1F O3F 1_555 1_555
O2F C1F 1_555 1_555
C5F C10F 1_555 1_555
C9F C10F 1_555 1_555

#END
