
#######################################################################
#
#                 Cambridge Crystallographic Data Centre
#                                CCDC 
#
#######################################################################
#
# If this CIF has been generated from an entry in the Cambridge 
# Structural Database, then it will include bibliographic, chemical, 
# crystal, experimental, refinement or atomic coordinate data resulting 
# from the CCDC's data processing and validation procedures.
#
#######################################################################

data_CEDXEP
_symmetry_cell_setting           monoclinic
_symmetry_space_group_name_H-M   'P 21/n'
_symmetry_Int_Tables_number      14
_space_group_name_Hall           '-P 2yn'
loop_
_symmetry_equiv_pos_site_id
_symmetry_equiv_pos_as_xyz
1 x,y,z
2 1/2-x,1/2+y,1/2-z
3 -x,-y,-z
4 1/2+x,1/2-y,1/2+z
_cell_length_a                   12.444
_cell_length_b                   8.906
_cell_length_c                   9.313
_cell_angle_alpha                90
_cell_angle_beta                 90.26
_cell_angle_gamma                90
_cell_volume                     1032.11
loop_
_atom_site_label
_atom_site_type_symbol
_atom_site_fract_x
_atom_site_fract_y
_atom_site_fract_z
Co1 Co -0.5000 -0.5000 0.5000
S1 S -0.87374(7) -0.42034(11) 0.44316(11)
C1 C -0.7442(3) -0.4418(3) 0.4275(3)
N1 N -0.6525(2) -0.4570(3) 0.4149(3)
N2 N -0.45109(19) -0.2717(3) 0.4701(3)
N3 N -0.46702(19) -0.1904(3) 0.3454(3)
C2 C -0.4139(3) -0.0664(3) 0.3626(4)
N4 N -0.36434(19) -0.0607(3) 0.4923(3)
C3 C -0.3912(2) -0.1927(3) 0.5544(3)
C4 C -0.2927(2) 0.0568(3) 0.5483(3)
N5 N -0.06593(18) -0.0586(3) 0.2107(3)
N6 N -0.0959(2) -0.2031(3) 0.2468(3)
C5 C -0.1359(3) -0.1957(3) 0.3750(4)
N7 N -0.13506(18) -0.0543(3) 0.4262(3)
C6 C -0.4089(2) -0.4725(3) 0.1808(3)
C7 C -0.1783(2) 0.0009(4) 0.5626(3)
H1 H -0.4103 0.0094 0.2942
H2 H -0.3694 -0.2225 0.6457
H3 H -0.3381 -0.7781 0.0747
H4 H -0.4198 -0.3692 0.1776
H5 H -0.3182 0.0895 0.6415
H6 H -0.2944 0.1426 0.4842
H7 H -0.1333 0.0819 0.5977
H8 H -0.1761 -0.0795 0.6328
Co1C Co 0.0000 0.0000 0.0000
Co1C_2 Co 0.0000 -1.0000 0.0000
S1B S -0.12626(7) -0.57966(11) 0.55684(11)
C1B C -0.2558(3) -0.5582(3) 0.5725(3)
N1B N -0.3475(2) -0.5430(3) 0.5851(3)
N2A N -0.04891(19) -0.7717(3) 0.0299(3)
N2B N -0.54891(19) -0.7283(3) 0.5299(3)
N3A N -0.03298(19) -0.6904(3) 0.1546(3)
C2A C -0.0861(3) -0.5664(3) 0.1374(4)
N4A N -0.13566(19) -0.5607(3) 0.0077(3)
C3A C -0.1088(2) -0.6927(3) -0.0544(3)
C4A C -0.2073(2) -0.4432(3) -0.0483(3)
N5C N -0.56593(18) -0.4414(3) 0.7107(3)
N5A N -0.43407(18) -0.5586(3) 0.2893(3)
N6A N -0.4041(2) -0.7031(3) 0.2532(3)
C5A C -0.3641(3) -0.6957(3) 0.1250(4)
N7A N -0.36494(18) -0.5543(3) 0.0738(3)
C6A C -0.0911(2) 0.0275(3) 0.3192(3)
C7A C -0.3217(2) -0.4991(4) -0.0626(3)
H1A H -0.0897 -0.4906 0.2058
H2A H -0.1306 -0.7225 -0.1457
H3A H -0.1619 -0.2781 0.4253
H4A H -0.0802 0.1308 0.3224
H5A H -0.1818 -0.4105 -0.1415
H6A H -0.2056 -0.3574 0.0158
H7A H -0.3667 -0.4181 -0.0977
H8A H -0.3239 -0.5795 -0.1328
loop_
_geom_bond_atom_site_label_1
_geom_bond_atom_site_label_2
_geom_bond_site_symmetry_1
_geom_bond_site_symmetry_2
Co1 N1 1_555 1_555
S1 C1 1_555 1_555
C1 N1 1_555 1_555
N2 Co1 1_555 1_555
N3 N2 1_555 1_555
C2 N3 1_555 1_555
N4 C2 1_555 1_555
C3 N2 1_555 1_555
C4 N4 1_555 1_555
N5 N6 1_555 1_555
N6 C5 1_555 1_555
C5 N7 1_555 1_555
N7 C7 1_555 1_555
C6 H4 1_555 1_555
C7 C4 1_555 1_555
H1 C2 1_555 1_555
H2 C3 1_555 1_555
H3 C5A 1_555 1_555
H5 C4 1_555 1_555
H6 C4 1_555 1_555
H7 C7 1_555 1_555
H8 C7 1_555 1_555
Co1C N5 1_555 1_555
Co1C_2 N2A 1_555 1_555
S1B C1B 1_555 1_555
C1B N1B 1_555 1_555
N1B Co1 1_555 1_555
N2A N3A 1_555 1_555
N2B Co1 1_555 1_555
N3A C2A 1_555 1_555
C2A N4A 1_555 1_555
N4A C3A 1_555 1_555
C3A N2A 1_555 1_555
C4A N4A 1_555 1_555
N5C Co1 1_555 1_555
N5A Co1 1_555 1_555
N6A N5A 1_555 1_555
C5A N6A 1_555 1_555
N7A C6 1_555 1_555
C6A N5 1_555 1_555
C7A C4A 1_555 1_555
H1A C2A 1_555 1_555
H2A C3A 1_555 1_555
H3A C5 1_555 1_555
H4A C6A 1_555 1_555
H5A C4A 1_555 1_555
H6A C4A 1_555 1_555
H7A C7A 1_555 1_555
H8A C7A 1_555 1_555
N4 C3 1_555 1_555
N7 C6A 1_555 1_555
C6 N5A 1_555 1_555
C5A N7A 1_555 1_555
N7A C7A 1_555 1_555

#END
