
#######################################################################
#
#                 Cambridge Crystallographic Data Centre
#                                CCDC 
#
#######################################################################
#
# If this CIF has been generated from an entry in the Cambridge 
# Structural Database, then it will include bibliographic, chemical, 
# crystal, experimental, refinement or atomic coordinate data resulting 
# from the CCDC's data processing and validation procedures.
#
#######################################################################

data_CEDYER01
_symmetry_cell_setting           monoclinic
_symmetry_space_group_name_H-M   'P 21/n'
_symmetry_Int_Tables_number      14
_space_group_name_Hall           '-P 2yn'
loop_
_symmetry_equiv_pos_site_id
_symmetry_equiv_pos_as_xyz
1 x,y,z
2 1/2-x,1/2+y,1/2-z
3 -x,-y,-z
4 1/2+x,1/2-y,1/2+z
_cell_length_a                   15.1050(15)
_cell_length_b                   4.5990(5)
_cell_length_c                   17.0470(16)
_cell_angle_alpha                90
_cell_angle_beta                 107.659(3)
_cell_angle_gamma                90
_cell_volume                     1128.42
loop_
_atom_site_label
_atom_site_type_symbol
_atom_site_fract_x
_atom_site_fract_y
_atom_site_fract_z
C1 C 0.45813(19) 0.5505(6) 0.27470(17)
C2 C 0.48423(19) 0.3409(6) 0.21569(16)
C3 C 0.57562(19) 0.3225(6) 0.21432(16)
H1 H 0.6228 0.4380 0.2504
C4 C 0.5967(2) 0.1334(6) 0.15962(17)
C5 C 0.53200(19) -0.0463(6) 0.10680(16)
H2 H 0.5486 -0.1802 0.0712
C6 C 0.44170(19) -0.0185(6) 0.10916(16)
C7 C 0.41529(19) 0.1718(6) 0.16158(16)
H3 H 0.3522 0.1863 0.1606
N1 N 0.69272(17) 0.1220(5) 0.15527(14)
N2 N 0.36911(16) -0.1972(6) 0.05271(13)
O1 O 0.37448(14) 0.6245(4) 0.25550(13)
O2 O 0.52217(15) 0.6267(4) 0.33680(13)
O3 O 0.57823(15) -0.3623(4) 0.55432(13)
H4 H 0.618(2) -0.285(7) 0.5926(16)
H5 H 0.554(2) -0.480(7) 0.577(2)
O4 O 0.74707(14) 0.3126(5) 0.19040(13)
O5 O 0.70019(14) 0.0269(5) 0.64891(13)
H6 H 0.677(3) 0.134(6) 0.675(2)
H7 H 0.7504(17) -0.019(8) 0.6826(17)
O6 O 0.71322(15) -0.0778(5) 0.11628(13)
O7 O 0.28791(15) -0.1443(5) 0.04707(13)
O8 O 0.39351(16) -0.3883(4) 0.01264(13)
Cs1 Cs 0.631324(11) 0.11700(3) 0.450622(9)
O2_2 O 0.52217(15) -0.3733(4) 0.33680(13)
O3_2 O 0.57823(15) 0.6377(4) 0.55432(13)
O3B O 0.42177(15) 0.3623(4) 0.44568(13)
O6A O 0.78678(15) 0.4222(5) 0.38372(13)
O7C O 0.78791(15) -0.3557(5) 0.54707(13)
O7C_2 O 0.78791(15) 0.6443(5) 0.54707(13)
Cs1_2 Cs 0.631324(11) -0.88300(3) 0.450622(9)
Cs1_3 Cs 0.631324(11) 1.11700(3) 0.450622(9)
Cs1A Cs 0.868676(11) -0.38300(3) 0.049378(9)
Cs1B Cs 0.368676(11) -0.11700(3) 0.549378(9)
Cs1C Cs 0.131324(11) -0.61700(3) -0.049378(9)
Cs1C_2 Cs 0.131324(11) 0.38300(3) -0.049378(9)
loop_
_geom_bond_atom_site_label_1
_geom_bond_atom_site_label_2
_geom_bond_site_symmetry_1
_geom_bond_site_symmetry_2
C1 C2 1_555 1_555
C2 C3 1_555 1_555
C3 H1 1_555 1_555
C4 C3 1_555 1_555
C5 C4 1_555 1_555
H2 C5 1_555 1_555
C6 C5 1_555 1_555
C7 C2 1_555 1_555
H3 C7 1_555 1_555
N1 C4 1_555 1_555
N2 C6 1_555 1_555
O1 C1 1_555 1_555
O2 C1 1_555 1_555
O3 H4 1_555 1_555
H5 O3 1_555 1_555
O4 N1 1_555 1_555
O5 H6 1_555 1_555
H7 O5 1_555 1_555
O6 N1 1_555 1_555
O7 N2 1_555 1_555
O8 N2 1_555 1_555
Cs1 O2 1_555 1_555
O2_2 Cs1 1_555 1_555
O3_2 Cs1 1_555 1_555
O3B Cs1 1_555 1_555
O6A Cs1 1_555 1_555
O7C Cs1 1_555 1_555
O7C_2 Cs1 1_555 1_555
Cs1_2 O3 1_555 1_555
Cs1_3 O2 1_555 1_555
Cs1A O6 1_555 1_555
Cs1B O3 1_555 1_555
Cs1C O7 1_555 1_555
Cs1C_2 O7 1_555 1_555
C6 C7 1_555 1_555
O3 Cs1 1_555 1_555
O5 Cs1 1_555 1_555
O2_2 Cs1_2 1_555 1_555
O3_2 Cs1_3 1_555 1_555
O3B Cs1B 1_555 1_555
O7C Cs1_2 1_555 1_555
O7C_2 Cs1_3 1_555 1_555

#END
