
#######################################################################
#
#                 Cambridge Crystallographic Data Centre
#                                CCDC 
#
#######################################################################
#
# If this CIF has been generated from an entry in the Cambridge 
# Structural Database, then it will include bibliographic, chemical, 
# crystal, experimental, refinement or atomic coordinate data resulting 
# from the CCDC's data processing and validation procedures.
#
#######################################################################

data_CEDYER
_symmetry_cell_setting           monoclinic
_symmetry_space_group_name_H-M   'P 21/n'
_symmetry_Int_Tables_number      14
_space_group_name_Hall           '-P 2yn'
loop_
_symmetry_equiv_pos_site_id
_symmetry_equiv_pos_as_xyz
1 x,y,z
2 1/2-x,1/2+y,1/2-z
3 -x,-y,-z
4 1/2+x,1/2-y,1/2+z
_cell_length_a                   15.1249(5)
_cell_length_b                   4.62230(10)
_cell_length_c                   17.1024(6)
_cell_angle_alpha                90
_cell_angle_beta                 107.782(4)
_cell_angle_gamma                90
_cell_volume                     1138.54
loop_
_atom_site_label
_atom_site_type_symbol
_atom_site_fract_x
_atom_site_fract_y
_atom_site_fract_z
Cs1 Cs 0.631270(10) 0.11431(3) 0.949800(10)
O1 O 0.57824(16) -0.3598(5) 1.05448(13)
O2 O 0.69998(16) 0.0306(5) 1.14991(13)
O3 O 0.37491(13) -0.3810(4) 0.75558(11)
O4 O 0.52278(14) -0.3764(3) 0.83580(11)
O5 O 0.74660(14) -0.6887(4) 0.68972(12)
O6 O 0.71260(15) -1.0756(4) 0.61600(12)
O7 O 0.39421(16) -1.3890(4) 0.51426(12)
O8 O 0.28880(15) -1.1482(4) 0.54804(12)
N1 N 0.69218(16) -0.8778(4) 0.65482(13)
N2 N 0.36953(17) -1.2001(5) 0.55368(12)
C1 C 0.48439(18) -0.6614(5) 0.71545(14)
C2 C 0.57543(18) -0.6797(5) 0.71383(14)
C3 C 0.59685(18) -0.8683(5) 0.65956(15)
C4 C 0.53156(19) -1.0458(5) 0.60715(14)
C5 C 0.44224(19) -1.0198(5) 0.60976(14)
C6 C 0.41608(18) -0.8315(5) 0.66192(14)
C7 C 0.45850(19) -0.4545(5) 0.77413(15)
H1 H 0.62150 -0.56630 0.74890
H2 H 0.54740 -1.17570 0.57210
H3 H 0.35450 -0.81900 0.66120
H4 H 0.616(3) -0.280(7) 1.091(2)
H5 H 0.559(3) -0.478(7) 1.081(2)
H6 H 0.677(3) 0.124(6) 1.180(2)
H7 H 0.750(3) -0.041(6) 1.1818(19)
Cs1B Cs 0.368730(10) -0.11431(3) 1.050200(10)
Cs1_2 Cs 0.631270(10) -0.88569(3) 0.949800(10)
Cs1A Cs 0.868730(10) -1.38569(3) 0.550200(10)
Cs1C Cs 0.131270(10) -1.61431(3) 0.449800(10)
O1_2 O 0.57824(16) 0.6402(5) 1.05448(13)
O1B O 0.42176(16) 0.3598(5) 0.94552(13)
O4_2 O 0.52278(14) 0.6236(3) 0.83580(11)
O6A O 0.78740(15) 0.4244(4) 0.88400(12)
O8C O 0.78880(15) -0.3518(4) 1.04804(12)
H4_2 H 0.616(3) 0.720(7) 1.091(2)
H4B H 0.384(3) 0.280(7) 0.909(2)
H5_2 H 0.559(3) 0.522(7) 1.081(2)
H5B H 0.441(3) 0.478(7) 0.919(2)
loop_
_geom_bond_atom_site_label_1
_geom_bond_atom_site_label_2
_geom_bond_site_symmetry_1
_geom_bond_site_symmetry_2
Cs1 O1 1_555 1_555
O1 H4 1_555 1_555
O2 Cs1 1_555 1_555
O3 C7 1_555 1_555
O4 Cs1 1_555 1_555
O5 N1 1_555 1_555
O6 N1 1_555 1_555
O7 N2 1_555 1_555
O8 N2 1_555 1_555
N1 C3 1_555 1_555
N2 C5 1_555 1_555
C1 C2 1_555 1_555
C2 C3 1_555 1_555
C3 C4 1_555 1_555
C4 C5 1_555 1_555
C5 C6 1_555 1_555
C6 C1 1_555 1_555
C7 O4 1_555 1_555
H1 C2 1_555 1_555
H2 C4 1_555 1_555
H3 C6 1_555 1_555
H5 O1 1_555 1_555
H6 O2 1_555 1_555
H7 O2 1_555 1_555
Cs1B O1 1_555 1_555
Cs1_2 O1 1_555 1_555
Cs1A O6 1_555 1_555
Cs1C O8 1_555 1_555
O1_2 Cs1 1_555 1_555
O1B Cs1 1_555 1_555
O4_2 Cs1 1_555 1_555
O6A Cs1 1_555 1_555
O8C Cs1 1_555 1_555
H4_2 O1_2 1_555 1_555
H4B O1B 1_555 1_555
H5_2 O1_2 1_555 1_555
H5B O1B 1_555 1_555
O4 Cs1_2 1_555 1_555
C1 C7 1_555 1_555
Cs1B O1B 1_555 1_555

#END
