
#######################################################################
#
#                 Cambridge Crystallographic Data Centre
#                                CCDC 
#
#######################################################################
#
# If this CIF has been generated from an entry in the Cambridge 
# Structural Database, then it will include bibliographic, chemical, 
# crystal, experimental, refinement or atomic coordinate data resulting 
# from the CCDC's data processing and validation procedures.
#
#######################################################################

data_CEFDAU
_symmetry_cell_setting           monoclinic
_symmetry_space_group_name_H-M   'C 2/c'
_symmetry_Int_Tables_number      15
_space_group_name_Hall           '-C 2yn'
loop_
_symmetry_equiv_pos_site_id
_symmetry_equiv_pos_as_xyz
1 x,y,z
2 -x,y,1/2-z
3 1/2+x,1/2+y,z
4 1/2-x,1/2+y,1/2-z
5 -x,-y,-z
6 x,-y,1/2+z
7 1/2-x,1/2-y,-z
8 1/2+x,1/2-y,1/2+z
_cell_length_a                   14.1153(12)
_cell_length_b                   8.8505(8)
_cell_length_c                   13.5704(11)
_cell_angle_alpha                90
_cell_angle_beta                 111.761(2)
_cell_angle_gamma                90
_cell_volume                     1574.5
loop_
_atom_site_label
_atom_site_type_symbol
_atom_site_fract_x
_atom_site_fract_y
_atom_site_fract_z
Zn1 Zn 0.5000 0.50029(6) 0.7500
O1 O 0.41853(19) 0.6486(3) 0.6404(2)
O2 O 0.3143(2) 0.4535(4) 0.5878(2)
O3 O 0.3480(3) 0.4657(4) 0.3648(3)
O4 O 0.44049(18) 0.6425(3) 0.32532(19)
C1 C 0.3369(3) 0.5846(4) 0.5744(3)
C2 C 0.3742(3) 0.5970(5) 0.3645(3)
C3 C 0.2700(3) 0.6794(4) 0.4801(3)
H9 H 0.2111 0.6180 0.4378
C4 C 0.3286(3) 0.7247(4) 0.4090(3)
H10 H 0.2827 0.7823 0.3496
H11 H 0.3836 0.7918 0.4494
Zn1D Zn 0.5000 0.49971(6) 0.2500
Zn1F Zn 0.0000 0.99971(6) 0.2500
Zn1B Zn 0.0000 1.00029(6) 0.7500
O1F O 0.08147(19) 0.8514(3) 0.3596(2)
O1A O 0.58147(19) 0.6486(3) 0.8596(2)
O2F O 0.1857(2) 1.0465(4) 0.4122(2)
O3F O 0.1520(3) 1.0343(4) 0.6352(3)
O4F O 0.05951(18) 0.8575(3) 0.67468(19)
O4D O 0.55951(18) 0.3575(3) 0.67468(19)
O4E O 0.44049(18) 0.3575(3) 0.82532(19)
C1F C 0.1631(3) 0.9154(4) 0.4256(3)
C2F C 0.1258(3) 0.9030(5) 0.6355(3)
C3F C 0.2300(3) 0.8206(4) 0.5199(3)
H9F H 0.2889 0.8820 0.5622
C4F C 0.1714(3) 0.7753(4) 0.5910(3)
H10F H 0.2173 0.7177 0.6504
H11F H 0.1164 0.7082 0.5506
N1 N 0.6212(3) 0.8163(4) 0.5030(3)
H1 H 0.5861 0.8480 0.5427
H2 H 0.6836 0.8588 0.5287
H3 H 0.5884 0.8440 0.4350
H4 H 0.6269 0.7150 0.5062
O5 O 0.5186(2) 0.9191(4) 0.6280(3)
H5 H 0.4923 0.8395 0.6420
H6 H 0.5526 0.9635 0.6859
O6 O 0.6370(2) 0.0991(3) 0.7995(2)
H7 H 0.7008 0.0871 0.8163
H8 H 0.6189 0.1787 0.7622
loop_
_geom_bond_atom_site_label_1
_geom_bond_atom_site_label_2
_geom_bond_site_symmetry_1
_geom_bond_site_symmetry_2
Zn1 O1 1_555 1_555
N1 H1 1_555 1_555
H2 N1 1_555 1_555
H3 N1 1_555 1_555
H4 N1 1_555 1_555
O1 C1 1_555 1_555
O2 C1 1_555 1_555
O3 C2 1_555 1_555
O4 C2 1_555 1_555
O5 H5 1_555 1_555
H6 O5 1_555 1_555
O6 H7 1_555 1_555
H8 O6 1_555 1_555
C1 C3 1_555 1_555
C2 C4 1_555 1_555
C3 H9 1_555 1_555
C4 C3 1_555 1_555
H10 C4 1_555 1_555
H11 C4 1_555 1_555
Zn1D O4 1_555 1_555
Zn1F O1F 1_555 1_555
Zn1B O4F 1_555 1_555
O1F C1F 1_555 1_555
O1A Zn1 1_555 1_555
O2F C1F 1_555 1_555
O3F C2F 1_555 1_555
O4F C2F 1_555 1_555
O4D Zn1 1_555 1_555
O4E Zn1 1_555 1_555
C1F C3F 1_555 1_555
C2F C4F 1_555 1_555
C3F C3 1_555 1_555
H9F C3F 1_555 1_555
C4F C3F 1_555 1_555
H10F C4F 1_555 1_555
H11F C4F 1_555 1_555

#END
