
#######################################################################
#
#                 Cambridge Crystallographic Data Centre
#                                CCDC 
#
#######################################################################
#
# If this CIF has been generated from an entry in the Cambridge 
# Structural Database, then it will include bibliographic, chemical, 
# crystal, experimental, refinement or atomic coordinate data resulting 
# from the CCDC's data processing and validation procedures.
#
#######################################################################

data_CEFDEY
_symmetry_cell_setting           monoclinic
_symmetry_space_group_name_H-M   'P 21/n'
_symmetry_Int_Tables_number      14
_space_group_name_Hall           '-P 2yn'
loop_
_symmetry_equiv_pos_site_id
_symmetry_equiv_pos_as_xyz
1 x,y,z
2 1/2-x,1/2+y,1/2-z
3 -x,-y,-z
4 1/2+x,1/2-y,1/2+z
_cell_length_a                   6.7014(13)
_cell_length_b                   11.755(2)
_cell_length_c                   12.251(3)
_cell_angle_alpha                90
_cell_angle_beta                 98.38(3)
_cell_angle_gamma                90
_cell_volume                     954.768
loop_
_atom_site_label
_atom_site_type_symbol
_atom_site_fract_x
_atom_site_fract_y
_atom_site_fract_z
O1 O 0.24613(17) 1.10050(8) 0.59876(7)
O2 O 0.44978(14) 0.61780(7) 0.39479(7)
O3 O 0.34896(15) 0.65464(8) 0.55698(7)
N1 N 0.26576(17) 0.80458(9) 0.30736(8)
O4 O 0.16917(19) 1.18808(8) 0.43666(8)
C1 C 0.37372(17) 0.67999(9) 0.46084(9)
N2 N 0.18480(16) 1.00000(8) 0.32426(8)
C2 C 0.21347(17) 1.10298(9) 0.49612(9)
O5 O 0.17159(18) 0.48351(10) 0.70529(8)
C3 C 0.30347(16) 0.79650(9) 0.41748(9)
C4 C 0.22823(16) 0.99180(9) 0.43410(9)
O6 O 0.14023(18) 0.41308(9) 0.47216(9)
C5 C 0.28409(18) 0.88905(9) 0.48558(9)
H1 H 0.3074 0.8825 0.5620
C6 C 0.2031(2) 0.90580(10) 0.26635(9)
H2 H 0.1691 0.9109 0.1902
Li1 Li 0.0920(4) 1.16918(19) 0.27116(17)
Li2 Li 0.3268(4) 0.48954(19) 0.5787(2)
H3 H 0.049(5) 0.444(2) 0.426(2)
H4 H 0.152(4) 0.332(2) 0.470(2)
H5 H 0.211(4) 0.519(2) 0.771(2)
H6 H 0.168(4) 0.411(2) 0.721(2)
O7 O -0.19709(17) 1.23656(9) 0.26248(8)
H7 H -0.223(4) 1.284(2) 0.207(2)
H8 H -0.239(4) 1.268(2) 0.317(2)
O2A O 0.05022(14) 1.11780(7) 0.10521(7)
O2B O 0.55022(14) 0.38220(7) 0.60521(7)
N1A N 0.23424(17) 1.30458(9) 0.19264(8)
Li1A Li 0.4080(4) 0.66918(19) 0.22884(17)
Li2B Li 0.6732(4) 0.51046(19) 0.4213(2)
loop_
_geom_bond_atom_site_label_1
_geom_bond_atom_site_label_2
_geom_bond_site_symmetry_1
_geom_bond_site_symmetry_2
O1 C2 1_555 1_555
O2 C1 1_555 1_555
O3 C1 1_555 1_555
N1 C3 1_555 1_555
O4 C2 1_555 1_555
C1 C3 1_555 1_555
N2 C4 1_555 1_555
C2 C4 1_555 1_555
O5 Li2 1_555 1_555
C3 C5 1_555 1_555
C4 C5 1_555 1_555
O6 Li2 1_555 1_555
C5 H1 1_555 1_555
C6 N1 1_555 1_555
H2 C6 1_555 1_555
Li1 O4 1_555 1_555
Li2 O3 1_555 1_555
H3 O6 1_555 1_555
H4 O6 1_555 1_555
H5 O5 1_555 1_555
H6 O5 1_555 1_555
O7 Li1 1_555 1_555
H7 O7 1_555 1_555
H8 O7 1_555 1_555
O2A Li1 1_555 1_555
O2B Li2 1_555 1_555
N1A Li1 1_555 1_555
Li1A O2 1_555 1_555
Li2B O2 1_555 1_555
N1 Li1A 1_555 1_555
N2 C6 1_555 1_555
N2 Li1 1_555 1_555

#END
