
#######################################################################
#
#                 Cambridge Crystallographic Data Centre
#                                CCDC 
#
#######################################################################
#
# If this CIF has been generated from an entry in the Cambridge 
# Structural Database, then it will include bibliographic, chemical, 
# crystal, experimental, refinement or atomic coordinate data resulting 
# from the CCDC's data processing and validation procedures.
#
#######################################################################

data_CEFGEB
_symmetry_cell_setting           orthorhombic
_symmetry_space_group_name_H-M   'P b c m'
_symmetry_Int_Tables_number      57
_space_group_name_Hall           '-P 2c 2b'
loop_
_symmetry_equiv_pos_site_id
_symmetry_equiv_pos_as_xyz
1 x,y,z
2 -x,-y,1/2+z
3 -x,1/2+y,1/2-z
4 x,1/2-y,-z
5 -x,-y,-z
6 x,y,1/2-z
7 x,1/2-y,1/2+z
8 -x,1/2+y,z
_cell_length_a                   10.1480(11)
_cell_length_b                   11.0016(11)
_cell_length_c                   21.183(2)
_cell_angle_alpha                90
_cell_angle_beta                 90
_cell_angle_gamma                90
_cell_volume                     2364.96
loop_
_atom_site_label
_atom_site_type_symbol
_atom_site_fract_x
_atom_site_fract_y
_atom_site_fract_z
C1 C -0.2448(5) 0.2484(5) 0.3711(2)
C2 C -0.2537(5) 0.1795(4) 0.3080(2)
H1 H -0.3320 0.1274 0.3076
C3 C -0.2545(7) 0.2650(6) 0.2500
H2 H -0.3315 0.3188 0.2500
C4 C -0.1301(8) 0.3340(7) 0.2500
H3 H -0.1280 0.4185 0.2500
C5 C -0.0208(7) 0.2669(7) 0.2500
H4 H 0.0633 0.3006 0.2500
C6 C -0.0445(7) 0.1334(7) 0.2500
H5 H 0.0385 0.0879 0.2500
C7 C -0.1291(5) 0.1015(4) 0.3074(2)
H6 H -0.1521 0.0150 0.3070
C8 C -0.0604(5) 0.1346(5) 0.3690(2)
C9 C 0.1964(5) 0.1716(5) 0.5666(2)
H7 H 0.1268 0.2226 0.5772
C10 C 0.3079(5) 0.0219(5) 0.5312(3)
H8 H 0.3296 -0.0512 0.5118
C11 C 0.3947(5) 0.0980(5) 0.5586(3)
H9 H 0.4853 0.0874 0.5619
C12 C 0.3719(5) 0.3029(5) 0.6131(2)
H10 H 0.3208 0.3726 0.5994
H11 H 0.4625 0.3164 0.6003
C13 C 0.3669(4) 0.2965(4) 0.6840(2)
C14 C 0.3774(5) 0.1894(5) 0.7176(2)
H12 H 0.3845 0.1161 0.6960
C15 C 0.3563(5) 0.4041(4) 0.7176(2)
H13 H 0.3490 0.4774 0.6959
N1 N -0.1358(4) 0.2134(4) 0.40402(18)
N2 N 0.1828(4) 0.0679(4) 0.53608(19)
N3 N 0.3223(4) 0.1942(4) 0.58061(18)
O1 O -0.3267(4) 0.3211(4) 0.38995(17)
O2 O 0.0466(3) 0.0946(3) 0.38487(16)
Ag1 Ag -0.12096(5) 0.2500 0.5000
Ag2 Ag 0.0000 0.0000 0.5000
C1E C -0.2448(5) 0.2484(5) 0.1289(2)
C2E C -0.2537(5) 0.1795(4) 0.1920(2)
H1E H -0.3320 0.1274 0.1924
C7E C -0.1291(5) 0.1015(4) 0.1926(2)
H6E H -0.1521 0.0150 0.1930
C8E C -0.0604(5) 0.1346(5) 0.1310(2)
C9E C 0.1964(5) 0.1716(5) 0.9334(2)
H7E H 0.1268 0.2226 0.9228
C10E C 0.3079(5) 0.0219(5) 0.9688(3)
H8E H 0.3296 -0.0512 0.9882
C11E C 0.3947(5) 0.0980(5) 0.9414(3)
H9E H 0.4853 0.0874 0.9381
C12E C 0.3719(5) 0.3029(5) 0.8869(2)
H10E H 0.3208 0.3726 0.9006
H11E H 0.4625 0.3164 0.8997
C13E C 0.3669(4) 0.2965(4) 0.8160(2)
C14E C 0.3774(5) 0.1894(5) 0.7824(2)
H12E H 0.3845 0.1161 0.8040
C15E C 0.3563(5) 0.4041(4) 0.7824(2)
H13E H 0.3490 0.4774 0.8041
N1E N -0.1358(4) 0.2134(4) 0.09598(18)
N1C N -0.1358(4) 0.2866(4) 0.59598(18)
N2E N 0.1828(4) 0.0679(4) 0.96392(19)
N2D N -0.1828(4) -0.0679(4) 0.46392(19)
N3E N 0.3223(4) 0.1942(4) 0.91939(18)
O1E O -0.3267(4) 0.3211(4) 0.11005(17)
O2E O 0.0466(3) 0.0946(3) 0.11513(16)
O2D O -0.0466(3) -0.0946(3) 0.61513(16)
Ag1E Ag -0.12096(5) 0.2500 0.0000
Ag2A Ag 0.0000 0.0000 0.0000
Ag2A_2 Ag 0.0000 0.0000 1.0000
loop_
_geom_bond_atom_site_label_1
_geom_bond_atom_site_label_2
_geom_bond_site_symmetry_1
_geom_bond_site_symmetry_2
C1 C2 1_555 1_555
C2 H1 1_555 1_555
C3 C2 1_555 1_555
H2 C3 1_555 1_555
C4 C3 1_555 1_555
H3 C4 1_555 1_555
C5 C4 1_555 1_555
H4 C5 1_555 1_555
C6 C5 1_555 1_555
H5 C6 1_555 1_555
C7 C2 1_555 1_555
H6 C7 1_555 1_555
C8 C7 1_555 1_555
C9 H7 1_555 1_555
C10 H8 1_555 1_555
C11 C10 1_555 1_555
H9 C11 1_555 1_555
C12 H10 1_555 1_555
H11 C12 1_555 1_555
C13 C12 1_555 1_555
C14 C13 1_555 1_555
H12 C14 1_555 1_555
C15 C13 1_555 1_555
H13 C15 1_555 1_555
N1 C1 1_555 1_555
N2 C9 1_555 1_555
N3 C9 1_555 1_555
O1 C1 1_555 1_555
O2 C8 1_555 1_555
Ag1 N1 1_555 1_555
Ag2 N2 1_555 1_555
C1E C2E 1_555 1_555
C2E C3 1_555 1_555
H1E C2E 1_555 1_555
C7E C6 1_555 1_555
H6E C7E 1_555 1_555
C8E C7E 1_555 1_555
C9E H7E 1_555 1_555
C10E H8E 1_555 1_555
C11E C10E 1_555 1_555
H9E C11E 1_555 1_555
C12E H10E 1_555 1_555
H11E C12E 1_555 1_555
C13E C12E 1_555 1_555
C14E C14 1_555 1_555
H12E C14E 1_555 1_555
C15E C15 1_555 1_555
H13E C15E 1_555 1_555
N1E C1E 1_555 1_555
N1C Ag1 1_555 1_555
N2E C9E 1_555 1_555
N2D Ag2 1_555 1_555
N3E C9E 1_555 1_555
O1E C1E 1_555 1_555
O2E C8E 1_555 1_555
O2D Ag2 1_555 1_555
Ag1E N1E 1_555 1_555
Ag2A O2E 1_555 1_555
Ag2A_2 N2E 1_555 1_555
C6 C7 1_555 1_555
C8 N1 1_555 1_555
C10 N2 1_555 1_555
C11 N3 1_555 1_555
C12 N3 1_555 1_555
O2 Ag2 1_555 1_555
C2E C7E 1_555 1_555
C8E N1E 1_555 1_555
C10E N2E 1_555 1_555
C11E N3E 1_555 1_555
C12E N3E 1_555 1_555
C13E C14E 1_555 1_555
C13E C15E 1_555 1_555

#END
