
#######################################################################
#
#                 Cambridge Crystallographic Data Centre
#                                CCDC 
#
#######################################################################
#
# If this CIF has been generated from an entry in the Cambridge 
# Structural Database, then it will include bibliographic, chemical, 
# crystal, experimental, refinement or atomic coordinate data resulting 
# from the CCDC's data processing and validation procedures.
#
#######################################################################

data_CEFHEC
_symmetry_cell_setting           triclinic
_symmetry_space_group_name_H-M   'P -1'
_symmetry_Int_Tables_number      2
_space_group_name_Hall           '-P 1'
loop_
_symmetry_equiv_pos_site_id
_symmetry_equiv_pos_as_xyz
1 x,y,z
2 -x,-y,-z
_cell_length_a                   8.5766(17)
_cell_length_b                   9.5036(19)
_cell_length_c                   11.723(2)
_cell_angle_alpha                80.01(3)
_cell_angle_beta                 85.40(3)
_cell_angle_gamma                89.55(3)
_cell_volume                     937.988
loop_
_atom_site_label
_atom_site_type_symbol
_atom_site_fract_x
_atom_site_fract_y
_atom_site_fract_z
Zn1 Zn 0.0000 1.0000 0.0000
N1 N -0.1335(3) 1.0823(3) 0.1368(2)
N2 N 0.1925(2) 0.9400(2) 0.11113(18)
N3 N 0.3170(2) 0.8611(2) 0.26349(17)
N4 N 0.4133(3) 0.8369(3) 0.1727(2)
N5 N 0.2223(3) 0.2854(2) 0.3054(2)
N6 N 0.0899(2) 0.2105(2) 0.93146(18)
N7 N 0.0847(3) 0.4448(3) 0.8609(2)
N8 N 0.2207(3) 0.3860(2) 0.82414(18)
C1 C 0.1872(3) 0.9224(3) 0.2261(2)
H1 H 0.1043 0.9494 0.2736
C2 C 0.3328(3) 0.8857(4) 0.0833(2)
H2 H 0.3701 0.8829 0.0070
C3 C 0.3613(4) 0.8227(3) 0.3821(2)
H3 H 0.3159 0.8913 0.4273
H4 H 0.4742 0.8302 0.3812
C4 C 0.3110(3) 0.6738(2) 0.4421(2)
C5 C 0.3413(3) 0.6377(2) 0.5581(2)
H5 H 0.3910 0.7036 0.5933
C6 C 0.2990(3) 0.5056(3) 0.6222(2)
C7 C 0.2262(3) 0.4067(3) 0.5681(2)
H6 H 0.1982 0.3171 0.6103
C8 C 0.1954(3) 0.4408(3) 0.4526(2)
C9 C 0.2379(3) 0.5756(3) 0.3897(2)
H7 H 0.2168 0.5993 0.3121
C10 C 0.1173(3) 0.3323(3) 0.3945(3)
H8 H 0.0839 0.2503 0.4527
H9 H 0.0251 0.3744 0.3599
C11 C 0.3404(3) 0.4707(3) 0.7471(2)
H10 H 0.4382 0.4187 0.7498
H11 H 0.3564 0.5592 0.7753
C12 C 0.0108(4) 0.3348(3) 0.9256(3)
H12 H -0.0874 0.3420 0.9640
C13 C 0.2207(3) 0.2478(3) 0.8670(2)
H13 H 0.3017 0.1857 0.8535
C14 C -0.1657(3) 1.0544(3) 0.2354(2)
N9 N 0.3491(3) 0.2042(3) 0.3333(2)
N10 N 0.3519(4) 0.2694(3) 0.1395(3)
C15 C 0.4207(4) 0.1989(4) 0.2304(3)
H14 H 0.5134 0.1490 0.2217
C16 C 0.2266(5) 0.3210(4) 0.1909(3)
H15 H 0.1508 0.3756 0.1514
S1 S -0.21123(13) 1.00586(11) 0.37384(7)
Zn1_2 Zn 0.0000 0.0000 1.0000
Zn1_3 Zn 0.0000 2.0000 -1.0000
N1A N 0.1335(3) 0.9177(3) -0.1368(2)
N2_2 N 0.1925(2) 1.9400(2) -0.88887(18)
N2A N -0.1925(2) 1.0600(2) -0.11113(18)
N3_2 N 0.3170(2) 1.8611(2) -0.73651(17)
N4_2 N 0.4133(3) 1.8369(3) -0.8273(2)
N5_2 N 0.2223(3) 1.2854(2) -0.6946(2)
N6_2 N 0.0899(2) 1.2105(2) -0.06854(18)
N6A N -0.0899(2) 0.7895(2) 0.06854(18)
N7_2 N 0.0847(3) 1.4448(3) -0.1391(2)
N8_2 N 0.2207(3) 1.3860(2) -0.17586(18)
C1_2 C 0.1872(3) 1.9224(3) -0.7739(2)
H1_2 H 0.1043 1.9494 -0.7264
C2_2 C 0.3328(3) 1.8857(4) -0.9167(2)
H2_2 H 0.3701 1.8829 -0.9930
C3_2 C 0.3613(4) 1.8227(3) -0.6179(2)
H3_2 H 0.3159 1.8913 -0.5727
H4_2 H 0.4742 1.8302 -0.6188
C4_2 C 0.3110(3) 1.6738(2) -0.5579(2)
C5_2 C 0.3413(3) 1.6377(2) -0.4419(2)
H5_2 H 0.3910 1.7036 -0.4067
C6_2 C 0.2990(3) 1.5056(3) -0.3778(2)
C7_2 C 0.2262(3) 1.4067(3) -0.4319(2)
H6_2 H 0.1982 1.3171 -0.3897
C8_2 C 0.1954(3) 1.4408(3) -0.5474(2)
C9_2 C 0.2379(3) 1.5756(3) -0.6103(2)
H7_2 H 0.2168 1.5993 -0.6879
C10_2 C 0.1173(3) 1.3323(3) -0.6055(3)
H8_2 H 0.0839 1.2503 -0.5473
H9_2 H 0.0251 1.3744 -0.6401
C11_2 C 0.3404(3) 1.4707(3) -0.2529(2)
H10_2 H 0.4382 1.4187 -0.2502
H11_2 H 0.3564 1.5592 -0.2247
C12_2 C 0.0108(4) 1.3348(3) -0.0744(3)
H12_2 H -0.0874 1.3420 -0.0360
C13_2 C 0.2207(3) 1.2478(3) -0.1330(2)
H13_2 H 0.3017 1.1857 -0.1465
C14A C 0.1657(3) 0.9456(3) -0.2354(2)
N9_2 N 0.3491(3) 1.2042(3) -0.6667(2)
N10_2 N 0.3519(4) 1.2694(3) -0.8605(3)
C15_2 C 0.4207(4) 1.1989(4) -0.7696(3)
H14_2 H 0.5134 1.1490 -0.7783
C16_2 C 0.2266(5) 1.3210(4) -0.8091(3)
H15_2 H 0.1508 1.3756 -0.8486
S1A S 0.21123(13) 0.99414(11) -0.37384(7)
O1 O 0.5990(11) 0.4298(9) 0.9817(9)
H16 H 0.517(7) 0.391(8) 1.021(7)
H17 H 0.588(10) 0.5203(18) 0.969(8)
loop_
_geom_bond_atom_site_label_1
_geom_bond_atom_site_label_2
_geom_bond_site_symmetry_1
_geom_bond_site_symmetry_2
Zn1 N1 1_555 1_555
N1 C14 1_555 1_555
N2 Zn1 1_555 1_555
N3 N4 1_555 1_555
N4 C2 1_555 1_555
N5 C10 1_555 1_555
N6 C12 1_555 1_555
N7 N8 1_555 1_555
N8 C11 1_555 1_555
O1 H16 1_555 1_555
C1 N2 1_555 1_555
H1 C1 1_555 1_555
C2 N2 1_555 1_555
H2 C2 1_555 1_555
C3 N3 1_555 1_555
H3 C3 1_555 1_555
H4 C3 1_555 1_555
C4 C3 1_555 1_555
C5 C4 1_555 1_555
H5 C5 1_555 1_555
C6 C5 1_555 1_555
C7 C6 1_555 1_555
H6 C7 1_555 1_555
C8 C7 1_555 1_555
C9 C4 1_555 1_555
H7 C9 1_555 1_555
C10 C8 1_555 1_555
H8 C10 1_555 1_555
H9 C10 1_555 1_555
C11 C6 1_555 1_555
H10 C11 1_555 1_555
H11 C11 1_555 1_555
C12 N7 1_555 1_555
H12 C12 1_555 1_555
C13 N6 1_555 1_555
H13 C13 1_555 1_555
C14 S1 1_555 1_555
N9 N5 1_555 1_555
N10 C15 1_555 1_555
C15 N9 1_555 1_555
H14 C15 1_555 1_555
C16 N5 1_555 1_555
H15 C16 1_555 1_555
H17 O1 1_555 1_555
Zn1_2 N6 1_555 1_555
Zn1_3 N2_2 1_555 1_555
N1A Zn1 1_555 1_555
N2_2 C1_2 1_555 1_555
N2A Zn1 1_555 1_555
N3_2 N4_2 1_555 1_555
N4_2 C2_2 1_555 1_555
N5_2 C10_2 1_555 1_555
N6_2 Zn1 1_555 1_555
N6A Zn1 1_555 1_555
N7_2 N8_2 1_555 1_555
N8_2 C11_2 1_555 1_555
C1_2 N3_2 1_555 1_555
H1_2 C1_2 1_555 1_555
C2_2 N2_2 1_555 1_555
H2_2 C2_2 1_555 1_555
C3_2 N3_2 1_555 1_555
H3_2 C3_2 1_555 1_555
H4_2 C3_2 1_555 1_555
C4_2 C3_2 1_555 1_555
C5_2 C4_2 1_555 1_555
H5_2 C5_2 1_555 1_555
C6_2 C5_2 1_555 1_555
C7_2 C6_2 1_555 1_555
H6_2 C7_2 1_555 1_555
C8_2 C7_2 1_555 1_555
C9_2 C4_2 1_555 1_555
H7_2 C9_2 1_555 1_555
C10_2 C8_2 1_555 1_555
H8_2 C10_2 1_555 1_555
H9_2 C10_2 1_555 1_555
C11_2 C6_2 1_555 1_555
H10_2 C11_2 1_555 1_555
H11_2 C11_2 1_555 1_555
C12_2 N6_2 1_555 1_555
H12_2 C12_2 1_555 1_555
C13_2 N6_2 1_555 1_555
H13_2 C13_2 1_555 1_555
C14A N1A 1_555 1_555
N9_2 N5_2 1_555 1_555
N10_2 C15_2 1_555 1_555
C15_2 N9_2 1_555 1_555
H14_2 C15_2 1_555 1_555
C16_2 N5_2 1_555 1_555
H15_2 C16_2 1_555 1_555
S1A C14A 1_555 1_555
N3 C1 1_555 1_555
N8 C13 1_555 1_555
C8 C9 1_555 1_555
N10 C16 1_555 1_555
N7_2 C12_2 1_555 1_555
N8_2 C13_2 1_555 1_555
C8_2 C9_2 1_555 1_555
N10_2 C16_2 1_555 1_555

#END
