
#######################################################################
#
#                 Cambridge Crystallographic Data Centre
#                                CCDC 
#
#######################################################################
#
# If this CIF has been generated from an entry in the Cambridge 
# Structural Database, then it will include bibliographic, chemical, 
# crystal, experimental, refinement or atomic coordinate data resulting 
# from the CCDC's data processing and validation procedures.
#
#######################################################################

data_CEFJAA
_symmetry_cell_setting           triclinic
_symmetry_space_group_name_H-M   'P -1'
_symmetry_Int_Tables_number      2
_space_group_name_Hall           '-P 1'
loop_
_symmetry_equiv_pos_site_id
_symmetry_equiv_pos_as_xyz
1 x,y,z
2 -x,-y,-z
_cell_length_a                   7.3883(10)
_cell_length_b                   9.1788(13)
_cell_length_c                   9.8054(13)
_cell_angle_alpha                81.312(2)
_cell_angle_beta                 82.200(2)
_cell_angle_gamma                79.301(2)
_cell_volume                     641.923
loop_
_atom_site_label
_atom_site_type_symbol
_atom_site_fract_x
_atom_site_fract_y
_atom_site_fract_z
Co1 Co 0.5000 0.5000 0.5000
C1 C 0.3852(3) 0.7380(2) 0.2083(2)
H1 H 0.3528 0.6439 0.2142
C2 C 0.4275(3) 0.8156(2) 0.08038(19)
H2 H 0.4249 0.7727 0.0007
C3 C 0.4745(2) 0.9580(2) 0.06822(18)
C4 C 0.4684(3) 1.0181(2) 0.1918(2)
H3 H 0.4925 1.1145 0.1887
C5 C 0.4271(3) 0.9365(2) 0.3176(2)
H4 H 0.4246 0.9781 0.3988
C11 C 0.6942(2) 0.44694(19) 0.21107(18)
C12 C 0.8539(2) 0.47312(19) 0.10187(18)
C13 C 1.0328(2) 0.46045(19) 0.13839(18)
H9 H 1.0549 0.4345 0.2308
C14 C 1.1778(2) 0.4865(2) 0.03689(18)
H10 H 1.2970 0.4770 0.0617
N1 N 0.3901(2) 0.79675(17) 0.32562(16)
O1 O 0.3567(2) 0.71908(15) 0.44822(14)
O3 O 0.57776(18) 0.37620(15) 0.18300(14)
O4 O 0.68909(17) 0.50355(14) 0.32145(12)
O5 O 0.67652(19) 0.59404(15) 0.59885(14)
H11 H 0.719(3) 0.6689(19) 0.555(2)
H12 H 0.605(3) 0.626(3) 0.6676(17)
Co1_2 Co 0.5000 1.5000 -0.5000
Co1_3 Co 1.5000 0.5000 -0.5000
C1A C 0.6148(3) 1.2620(2) -0.2083(2)
H1A H 0.6472 1.3561 -0.2142
C2A C 0.5725(3) 1.1844(2) -0.08038(19)
H2A H 0.5751 1.2273 -0.0007
C3A C 0.5255(2) 1.0420(2) -0.06822(18)
C4A C 0.5316(3) 0.9819(2) -0.1918(2)
H3A H 0.5075 0.8855 -0.1887
C5A C 0.5729(3) 1.0635(2) -0.3176(2)
H4A H 0.5754 1.0219 -0.3988
C11A C 1.3058(2) 0.55306(19) -0.21107(18)
C12A C 1.1461(2) 0.52688(19) -0.10187(18)
C13A C 0.9672(2) 0.53955(19) -0.13839(18)
H9A H 0.9451 0.5655 -0.2308
C14A C 0.8222(2) 0.5135(2) -0.03689(18)
H10A H 0.7030 0.5230 -0.0617
N1A N 0.6099(2) 1.20325(17) -0.32562(16)
O1A O 0.6433(2) 1.28092(15) -0.44822(14)
O1A_2 O 0.6433(2) 0.28092(15) 0.55178(14)
O3A O 1.42224(18) 0.62380(15) -0.18300(14)
O4A O 1.31091(17) 0.49645(14) -0.32145(12)
O4A_2 O 0.31091(17) 0.49645(14) 0.67855(12)
O5A O 0.32348(19) 0.40596(15) 0.40115(14)
H11A H 0.281(3) 0.3311(19) 0.445(2)
H12A H 0.395(3) 0.374(3) 0.3324(17)
C6 C 0.8804(3) 0.7935(2) 0.2615(2)
H5 H 0.8534 0.6980 0.2909
C7 C 0.9285(3) 0.8359(2) 0.1234(2)
H6 H 0.9313 0.7689 0.0606
C8 C 0.9735(3) 0.9770(2) 0.0743(2)
C9 C 0.9655(3) 1.0700(2) 0.1762(2)
H7 H 0.9958 1.1649 0.1496
C10 C 0.9150(3) 1.0265(2) 0.3131(2)
H8 H 0.9102 1.0920 0.3777
N2 N 0.8716(2) 0.88841(18) 0.35576(18)
O2 O 0.8186(2) 0.84874(17) 0.48725(15)
C6A C 1.1196(3) 1.2065(2) -0.2615(2)
H5A H 1.1466 1.3020 -0.2909
C7A C 1.0715(3) 1.1641(2) -0.1234(2)
H6A H 1.0687 1.2311 -0.0606
C8A C 1.0265(3) 1.0230(2) -0.0743(2)
C9A C 1.0345(3) 0.9300(2) -0.1762(2)
H7A H 1.0042 0.8351 -0.1496
C10A C 1.0850(3) 0.9735(2) -0.3131(2)
H8A H 1.0898 0.9080 -0.3777
N2A N 1.1284(2) 1.11159(18) -0.35576(18)
O2A O 1.1814(2) 1.15126(17) -0.48725(15)
loop_
_geom_bond_atom_site_label_1
_geom_bond_atom_site_label_2
_geom_bond_site_symmetry_1
_geom_bond_site_symmetry_2
Co1 O1 1_555 1_555
C1 H1 1_555 1_555
C2 C1 1_555 1_555
H2 C2 1_555 1_555
C3 C2 1_555 1_555
C4 C3 1_555 1_555
H3 C4 1_555 1_555
C5 C4 1_555 1_555
H4 C5 1_555 1_555
C6 H5 1_555 1_555
C7 C6 1_555 1_555
H6 C7 1_555 1_555
C8 C7 1_555 1_555
C9 C8 1_555 1_555
H7 C9 1_555 1_555
C10 C9 1_555 1_555
H8 C10 1_555 1_555
C11 C12 1_555 1_555
C12 C13 1_555 1_555
C13 H9 1_555 1_555
C14 C13 1_555 1_555
H10 C14 1_555 1_555
N1 C1 1_555 1_555
N2 C6 1_555 1_555
O1 N1 1_555 1_555
O2 N2 1_555 1_555
O3 C11 1_555 1_555
O4 Co1 1_555 1_555
O5 Co1 1_555 1_555
H11 O5 1_555 1_555
H12 O5 1_555 1_555
Co1_2 O1A 1_555 1_555
Co1_3 O4A 1_555 1_555
C1A H1A 1_555 1_555
C2A C1A 1_555 1_555
H2A C2A 1_555 1_555
C3A C3 1_555 1_555
C4A C3A 1_555 1_555
H3A C4A 1_555 1_555
C5A C4A 1_555 1_555
H4A C5A 1_555 1_555
C6A H5A 1_555 1_555
C7A C6A 1_555 1_555
H6A C7A 1_555 1_555
C8A C8 1_555 1_555
C9A C8A 1_555 1_555
H7A C9A 1_555 1_555
C10A C9A 1_555 1_555
H8A C10A 1_555 1_555
C11A C12A 1_555 1_555
C12A C14 1_555 1_555
C13A C12A 1_555 1_555
H9A C13A 1_555 1_555
C14A C12 1_555 1_555
H10A C14A 1_555 1_555
N1A C1A 1_555 1_555
N2A C6A 1_555 1_555
O1A N1A 1_555 1_555
O1A_2 Co1 1_555 1_555
O2A N2A 1_555 1_555
O3A C11A 1_555 1_555
O4A C11A 1_555 1_555
O4A_2 Co1 1_555 1_555
O5A Co1 1_555 1_555
H11A O5A 1_555 1_555
H12A O5A 1_555 1_555
C5 N1 1_555 1_555
C10 N2 1_555 1_555
C11 O4 1_555 1_555
C2A C3A 1_555 1_555
C5A N1A 1_555 1_555
C7A C8A 1_555 1_555
C10A N2A 1_555 1_555
C13A C14A 1_555 1_555

#END
