
#######################################################################
#
#                 Cambridge Crystallographic Data Centre
#                                CCDC 
#
#######################################################################
#
# If this CIF has been generated from an entry in the Cambridge 
# Structural Database, then it will include bibliographic, chemical, 
# crystal, experimental, refinement or atomic coordinate data resulting 
# from the CCDC's data processing and validation procedures.
#
#######################################################################

data_CEFKEF
_symmetry_cell_setting           monoclinic
_symmetry_space_group_name_H-M   'P 21/c'
_symmetry_Int_Tables_number      14
_space_group_name_Hall           '-P 2ybc'
loop_
_symmetry_equiv_pos_site_id
_symmetry_equiv_pos_as_xyz
1 x,y,z
2 -x,1/2+y,1/2-z
3 -x,-y,-z
4 x,1/2-y,1/2+z
_cell_length_a                   7.0450(7)
_cell_length_b                   13.1609(14)
_cell_length_c                   12.5545(12)
_cell_angle_alpha                90
_cell_angle_beta                 101.153(8)
_cell_angle_gamma                90
_cell_volume                     1142.05
loop_
_atom_site_label
_atom_site_type_symbol
_atom_site_fract_x
_atom_site_fract_y
_atom_site_fract_z
C1 C 0.53257(15) 0.18227(10) 0.39471(10)
C2 C 0.53896(17) 0.23456(11) 0.49422(10)
H1 H 0.5200 0.1980 0.5547
C3 C 0.5719(2) 0.33670(12) 0.50437(11)
H2 H 0.5746 0.3676 0.5713
C4 C 0.6015(2) 0.39515(12) 0.41776(13)
H3 H 0.6253 0.4645 0.4255
C5 C 0.5944(2) 0.34720(12) 0.31930(11)
H4 H 0.6137 0.3851 0.2598
C6 C 0.55974(18) 0.24503(11) 0.30740(10)
H5 H 0.5538 0.2158 0.2394
C7 C 0.9515(3) -0.05477(18) 0.79319(15)
H6 H 0.8362 -0.0954 0.7803
H7 H 0.9620 -0.0198 0.8612
H8 H 1.0623 -0.0978 0.7956
C8 C 1.1104(2) 0.08004(15) 0.72251(13)
H9 H 1.2216 0.0402 0.7127
H10 H 1.1365 0.1079 0.7954
C9 C 1.0766(2) 0.16376(13) 0.64172(14)
H11 H 0.9640 0.2027 0.6510
H12 H 1.1874 0.2090 0.6531
C10 C 1.0256(2) 0.20221(14) 0.45538(16)
H13 H 0.9439 0.2547 0.4747
H14 H 0.9684 0.1749 0.3856
H15 H 1.1504 0.2301 0.4523
N1 N 0.50434(16) 0.08063(9) 0.38965(10)
H16 H 0.505(2) 0.0608(12) 0.3207(13)
O1 O 1.04685(14) 0.12315(8) 0.53495(8)
O2 O 0.94293(14) 0.01729(9) 0.70809(8)
Na1 Na 0.73912(7) 0.00248(4) 0.53096(4)
N1B N 0.49566(16) -0.08063(9) 0.61035(10)
H16B H 0.495(2) -0.0608(12) 0.6793(13)
O1B O 0.95315(14) -0.12315(8) 0.46505(8)
Na1B Na 0.26088(7) -0.00248(4) 0.46904(4)
Na1B_2 Na 1.26088(7) -0.00248(4) 0.46904(4)
loop_
_geom_bond_atom_site_label_1
_geom_bond_atom_site_label_2
_geom_bond_site_symmetry_1
_geom_bond_site_symmetry_2
C1 C2 1_555 1_555
C2 H1 1_555 1_555
C3 C2 1_555 1_555
H2 C3 1_555 1_555
C4 C3 1_555 1_555
H3 C4 1_555 1_555
C5 C4 1_555 1_555
H4 C5 1_555 1_555
C6 C1 1_555 1_555
H5 C6 1_555 1_555
C7 H6 1_555 1_555
H7 C7 1_555 1_555
H8 C7 1_555 1_555
C8 H9 1_555 1_555
H10 C8 1_555 1_555
C9 C8 1_555 1_555
H11 C9 1_555 1_555
H12 C9 1_555 1_555
C10 H13 1_555 1_555
H14 C10 1_555 1_555
H15 C10 1_555 1_555
N1 C1 1_555 1_555
H16 N1 1_555 1_555
O1 C9 1_555 1_555
O2 C7 1_555 1_555
Na1 N1 1_555 1_555
N1B Na1 1_555 1_555
H16B N1B 1_555 1_555
O1B Na1 1_555 1_555
Na1B N1 1_555 1_555
Na1B_2 O1 1_555 1_555
C5 C6 1_555 1_555
C8 O2 1_555 1_555
C10 O1 1_555 1_555
O1 Na1 1_555 1_555
O2 Na1 1_555 1_555
N1B Na1B 1_555 1_555
O1B Na1B_2 1_555 1_555

#END
