
#######################################################################
#
#                 Cambridge Crystallographic Data Centre
#                                CCDC 
#
#######################################################################
#
# If this CIF has been generated from an entry in the Cambridge 
# Structural Database, then it will include bibliographic, chemical, 
# crystal, experimental, refinement or atomic coordinate data resulting 
# from the CCDC's data processing and validation procedures.
#
#######################################################################

data_CEFKUV
_symmetry_cell_setting           monoclinic
_symmetry_space_group_name_H-M   'P 21/n'
_symmetry_Int_Tables_number      14
_space_group_name_Hall           '-P 2yn'
loop_
_symmetry_equiv_pos_site_id
_symmetry_equiv_pos_as_xyz
1 x,y,z
2 1/2-x,1/2+y,1/2-z
3 -x,-y,-z
4 1/2+x,1/2-y,1/2+z
_cell_length_a                   7.1800(2)
_cell_length_b                   13.2303(7)
_cell_length_c                   27.9383(13)
_cell_angle_alpha                90
_cell_angle_beta                 90.741(3)
_cell_angle_gamma                90
_cell_volume                     2653.74
loop_
_atom_site_label
_atom_site_type_symbol
_atom_site_fract_x
_atom_site_fract_y
_atom_site_fract_z
I1 I 0.60988(13) -0.00459(7) 0.36787(3)
I2 I -0.38499(9) -0.05499(6) 0.10018(2)
Cu1 Cu 0.50363(18) -0.17127(11) 0.32943(4)
Cu2 Cu -0.02771(16) -0.07450(11) 0.10723(4)
N1 N 0.0526(12) -0.0684(7) 0.1767(3)
N2 N 0.4312(11) -0.1559(6) 0.2576(3)
N3 N 0.7228(11) -0.2492(7) 0.2989(3)
N4 N 0.3514(11) -0.2392(7) 0.3785(3)
N5 N 0.3643(10) -0.4852(7) 0.4384(3)
N6 N 0.4522(11) -0.6811(7) 0.4423(3)
C1 C -0.0589(16) -0.0224(9) 0.2091(4)
H1 H -0.1738 0.0063 0.1987
C2 C -0.0087(15) -0.0165(9) 0.2567(4)
H2 H -0.0853 0.0176 0.2790
C3 C 0.1567(14) -0.0616(8) 0.2713(4)
H3 H 0.1948 -0.0593 0.3040
C4 C 0.2640(14) -0.1092(8) 0.2385(4)
C5 C 0.2109(13) -0.1129(8) 0.1925(3)
H4 H 0.2867 -0.1478 0.1703
C6 C 0.5589(15) -0.1921(8) 0.2304(4)
H5 H 0.5464 -0.1853 0.1966
C7 C 0.7202(14) -0.2428(8) 0.2502(3)
C8 C 0.8553(15) -0.2858(9) 0.2230(4)
H6 H 0.8478 -0.2806 0.1891
C9 C 1.0017(16) -0.3364(9) 0.2440(4)
H7 H 1.0955 -0.3666 0.2250
C10 C 1.0096(15) -0.3424(9) 0.2930(4)
H8 H 1.1101 -0.3757 0.3088
C11 C 0.8675(14) -0.2987(9) 0.3186(4)
H9 H 0.8725 -0.3041 0.3525
C12 C 0.2362(14) -0.1885(9) 0.4062(4)
H10 H 0.2122 -0.1196 0.3988
C13 C 0.1467(14) -0.2310(9) 0.4462(4)
H11 H 0.0588 -0.1928 0.4638
C14 C 0.1884(13) -0.3277(9) 0.4593(4)
H12 H 0.1356 -0.3570 0.4870
C15 C 0.3101(13) -0.3826(9) 0.4310(3)
C16 C 0.3879(12) -0.3373(8) 0.3914(3)
H13 H 0.4704 -0.3758 0.3724
C17 C 0.2990(12) -0.5374(8) 0.4725(4)
H14 H 0.2150 -0.5068 0.4941
C18 C 0.3492(14) -0.6418(8) 0.4791(4)
C19 C 0.3045(14) -0.6992(9) 0.5186(4)
H15 H 0.2341 -0.6695 0.5435
C20 C 0.3595(14) -0.7977(10) 0.5228(4)
H16 H 0.3260 -0.8378 0.5496
C21 C 0.4685(16) -0.8371(9) 0.4854(4)
H17 H 0.5134 -0.9045 0.4872
C22 C 0.5098(16) -0.7777(9) 0.4462(4)
H18 H 0.5814 -0.8060 0.4212
Cu2A Cu 0.52771(16) -0.57450(11) 0.39277(4)
N5A N 0.1357(10) 0.0148(7) 0.0616(3)
N6A N 0.0478(11) -0.1811(7) 0.0577(3)
loop_
_geom_bond_atom_site_label_1
_geom_bond_atom_site_label_2
_geom_bond_site_symmetry_1
_geom_bond_site_symmetry_2
I1 Cu1 1_555 1_555
I2 Cu2 1_555 1_555
Cu1 N2 1_555 1_555
Cu2 N1 1_555 1_555
N1 C1 1_555 1_555
N2 C4 1_555 1_555
N3 Cu1 1_555 1_555
N4 Cu1 1_555 1_555
N5 C15 1_555 1_555
N6 C18 1_555 1_555
C1 H1 1_555 1_555
C2 C1 1_555 1_555
H2 C2 1_555 1_555
C3 C2 1_555 1_555
H3 C3 1_555 1_555
C4 C3 1_555 1_555
C5 N1 1_555 1_555
H4 C5 1_555 1_555
C6 N2 1_555 1_555
H5 C6 1_555 1_555
C7 N3 1_555 1_555
C8 C7 1_555 1_555
H6 C8 1_555 1_555
C9 C8 1_555 1_555
H7 C9 1_555 1_555
C10 C9 1_555 1_555
H8 C10 1_555 1_555
C11 N3 1_555 1_555
H9 C11 1_555 1_555
C12 N4 1_555 1_555
H10 C12 1_555 1_555
C13 C12 1_555 1_555
H11 C13 1_555 1_555
C14 C13 1_555 1_555
H12 C14 1_555 1_555
C15 C14 1_555 1_555
C16 N4 1_555 1_555
H13 C16 1_555 1_555
C17 N5 1_555 1_555
H14 C17 1_555 1_555
C18 C17 1_555 1_555
C19 C18 1_555 1_555
H15 C19 1_555 1_555
C20 C19 1_555 1_555
H16 C20 1_555 1_555
C21 C20 1_555 1_555
H17 C21 1_555 1_555
C22 N6 1_555 1_555
H18 C22 1_555 1_555
Cu2A N5 1_555 1_555
N5A Cu2 1_555 1_555
N6A Cu2 1_555 1_555
N6 Cu2A 1_555 1_555
C4 C5 1_555 1_555
C6 C7 1_555 1_555
C10 C11 1_555 1_555
C15 C16 1_555 1_555
C21 C22 1_555 1_555

#END
