
#######################################################################
#
#                 Cambridge Crystallographic Data Centre
#                                CCDC 
#
#######################################################################
#
# If this CIF has been generated from an entry in the Cambridge 
# Structural Database, then it will include bibliographic, chemical, 
# crystal, experimental, refinement or atomic coordinate data resulting 
# from the CCDC's data processing and validation procedures.
#
#######################################################################

data_CEFVAL
_symmetry_cell_setting           triclinic
_symmetry_space_group_name_H-M   'P -1'
_symmetry_Int_Tables_number      2
_space_group_name_Hall           '-P 1'
loop_
_symmetry_equiv_pos_site_id
_symmetry_equiv_pos_as_xyz
1 x,y,z
2 -x,-y,-z
_cell_length_a                   6.976
_cell_length_b                   13.0160(14)
_cell_length_c                   17.1146(17)
_cell_angle_alpha                105.141(3)
_cell_angle_beta                 94.263(5)
_cell_angle_gamma                100.405(4)
_cell_volume                     1463.25
loop_
_atom_site_label
_atom_site_type_symbol
_atom_site_fract_x
_atom_site_fract_y
_atom_site_fract_z
Cd1 Cd 0.05076(5) -0.14476(3) -0.05831(2)
Cl1 Cl -0.25353(17) -0.05693(9) -0.02219(7)
Cl2 Cl -0.1645(2) -0.33403(12) -0.12855(9)
N1 N 0.0968(6) -0.1062(3) -0.1802(2)
N2 N 0.8944(6) 0.1898(3) -0.0635(2)
O1 O 0.2577(5) 0.0605(2) -0.40516(17)
O2 O 0.6363(4) 0.2231(2) -0.34058(18)
O3 O 0.3378(5) -0.2228(3) -0.0883(2)
C1 C 0.3480(6) 0.1973(3) -0.4708(3)
C2 C 0.2950(6) 0.0873(4) -0.4764(3)
C3 C 0.2769(6) 0.0070(4) -0.5515(3)
H1 H 0.2464 -0.0663 -0.5534
C4 C 0.3041(7) 0.0367(4) -0.6212(3)
H2 H 0.2883 -0.0170 -0.6706
C5 C 0.3554(6) 0.1467(4) -0.6200(3)
C6 C 0.3822(7) 0.1790(4) -0.6927(3)
H3 H 0.3625 0.1259 -0.7425
C7 C 0.4355(7) 0.2847(4) -0.6909(3)
H4 H 0.4500 0.3041 -0.7391
C8 C 0.4690(7) 0.3657(4) -0.6149(3)
H5 H 0.5090 0.4384 -0.6134
C9 C 0.4437(6) 0.3390(4) -0.5441(3)
H6 H 0.4664 0.3939 -0.4951
C10 C 0.3829(6) 0.2285(3) -0.5433(2)
C11 C 0.2000(7) -0.0526(3) -0.4119(3)
H7 H 0.3017 -0.0900 -0.4330
H8 H 0.0801 -0.0836 -0.4496
C12 C 0.1671(6) -0.0677(4) -0.3298(3)
C13 C 0.1341(7) -0.1720(4) -0.3207(3)
H9 H 0.1369 -0.2311 -0.3648
C14 C 0.0974(7) -0.1876(4) -0.2464(3)
H10 H 0.0716 -0.2583 -0.2420
C15 C 0.1294(7) -0.0049(4) -0.1890(3)
H11 H 0.1279 0.0529 -0.1438
C16 C 0.1650(7) 0.0174(4) -0.2622(3)
H12 H 0.1870 0.0886 -0.2657
C17 C 0.3647(6) 0.2826(3) -0.3908(3)
C18 C 0.5130(6) 0.2957(3) -0.3282(3)
C19 C 0.5364(7) 0.3806(4) -0.2542(3)
H13 H 0.6372 0.3884 -0.2131
C20 C 0.4113(7) 0.4505(4) -0.2439(3)
H14 H 0.4286 0.5062 -0.1955
C21 C 0.2561(7) 0.4406(3) -0.3047(3)
C22 C 0.1242(7) 0.5138(4) -0.2942(3)
H15 H 0.1394 0.5689 -0.2456
C23 C -0.0234(7) 0.5048(4) -0.3540(3)
H16 H -0.1076 0.5534 -0.3463
C24 C -0.0478(7) 0.4212(4) -0.4277(3)
H17 H -0.1477 0.4154 -0.4687
C25 C 0.0740(7) 0.3482(4) -0.4396(3)
H18 H 0.0534 0.2927 -0.4882
C26 C 0.2316(6) 0.3557(3) -0.3789(3)
C27 C 0.8288(7) 0.2577(4) -0.2947(3)
H19 H 0.8713 0.3354 -0.2861
H20 H 0.9191 0.2222 -0.3271
C28 C 0.8431(7) 0.2342(3) -0.2131(3)
C29 C 0.6899(7) 0.1744(4) -0.1865(3)
H21 H 0.5679 0.1485 -0.2182
C30 C 0.7220(7) 0.1537(4) -0.1113(3)
H22 H 0.6192 0.1130 -0.0936
C31 C 1.0415(7) 0.2492(4) -0.0892(3)
H23 H 1.1615 0.2753 -0.0560
C32 C 1.0212(5) 0.2729(3) -0.1626(2)
H24 H 1.1260 0.3145 -0.1784
Cd1A Cd -0.05076(5) 0.14476(3) 0.05831(2)
Cd1A_2 Cd 0.94924(5) 0.14476(3) 0.05831(2)
Cl1A Cl 0.25353(17) 0.05693(9) 0.02219(7)
N2A N 0.1056(6) -0.1898(3) 0.0635(2)
O4 O 0.9106(5) 0.4657(3) -0.9385(2)
O5 O 0.5151(5) 0.3923(3) -0.9729(2)
loop_
_geom_bond_atom_site_label_1
_geom_bond_atom_site_label_2
_geom_bond_site_symmetry_1
_geom_bond_site_symmetry_2
Cd1 Cl1 1_555 1_555
Cl1 Cd1A 1_555 1_555
Cl2 Cd1 1_555 1_555
N1 Cd1 1_555 1_555
N2 C30 1_555 1_555
O1 C2 1_555 1_555
O2 C18 1_555 1_555
O3 Cd1 1_555 1_555
C1 C2 1_555 1_555
C2 C3 1_555 1_555
C3 H1 1_555 1_555
C4 C3 1_555 1_555
H2 C4 1_555 1_555
C5 C4 1_555 1_555
C6 C5 1_555 1_555
H3 C6 1_555 1_555
C7 C6 1_555 1_555
H4 C7 1_555 1_555
C8 C7 1_555 1_555
H5 C8 1_555 1_555
C9 C8 1_555 1_555
H6 C9 1_555 1_555
C10 C1 1_555 1_555
C11 O1 1_555 1_555
H7 C11 1_555 1_555
H8 C11 1_555 1_555
C12 C11 1_555 1_555
C13 C12 1_555 1_555
H9 C13 1_555 1_555
C14 N1 1_555 1_555
H10 C14 1_555 1_555
C15 N1 1_555 1_555
H11 C15 1_555 1_555
C16 C12 1_555 1_555
H12 C16 1_555 1_555
C17 C1 1_555 1_555
C18 C17 1_555 1_555
C19 C18 1_555 1_555
H13 C19 1_555 1_555
C20 C19 1_555 1_555
H14 C20 1_555 1_555
C21 C20 1_555 1_555
C22 C21 1_555 1_555
H15 C22 1_555 1_555
C23 C22 1_555 1_555
H16 C23 1_555 1_555
C24 C23 1_555 1_555
H17 C24 1_555 1_555
C25 C24 1_555 1_555
H18 C25 1_555 1_555
C26 C17 1_555 1_555
C27 O2 1_555 1_555
H19 C27 1_555 1_555
H20 C27 1_555 1_555
C28 C27 1_555 1_555
C29 C28 1_555 1_555
H21 C29 1_555 1_555
C30 C29 1_555 1_555
H22 C30 1_555 1_555
C31 N2 1_555 1_555
H23 C31 1_555 1_555
C32 C28 1_555 1_555
H24 C32 1_555 1_555
Cd1A Cl1A 1_555 1_555
Cd1A_2 N2 1_555 1_555
Cl1A Cd1 1_555 1_555
N2A Cd1 1_555 1_555
C5 C10 1_555 1_555
C9 C10 1_555 1_555
C13 C14 1_555 1_555
C15 C16 1_555 1_555
C21 C26 1_555 1_555
C25 C26 1_555 1_555
C31 C32 1_555 1_555

#END
