
#######################################################################
#
#                 Cambridge Crystallographic Data Centre
#                                CCDC 
#
#######################################################################
#
# If this CIF has been generated from an entry in the Cambridge 
# Structural Database, then it will include bibliographic, chemical, 
# crystal, experimental, refinement or atomic coordinate data resulting 
# from the CCDC's data processing and validation procedures.
#
#######################################################################

data_CEFVOY
_symmetry_cell_setting           monoclinic
_symmetry_space_group_name_H-M   'P 2/n'
_symmetry_Int_Tables_number      13
_space_group_name_Hall           '-P 2yac'
loop_
_symmetry_equiv_pos_site_id
_symmetry_equiv_pos_as_xyz
1 x,y,z
2 1/2-x,y,1/2-z
3 -x,-y,-z
4 1/2+x,-y,1/2+z
_cell_length_a                   16.090(3)
_cell_length_b                   3.975(2)
_cell_length_c                   16.070(3)
_cell_angle_alpha                90
_cell_angle_beta                 92.97(1)
_cell_angle_gamma                90
_cell_volume                     1026.42
loop_
_atom_site_label
_atom_site_type_symbol
_atom_site_fract_x
_atom_site_fract_y
_atom_site_fract_z
Fe1 Fe 0.25000 0.19430 0.25000
N1 N 0.26550 0.17130 0.38260
N2 N 0.11940 0.21600 0.40570
N3 N 0.13200 0.21350 0.25750
N4 N 0.41430 0.23810 0.38650
C1 C 0.34260 0.11210 0.41900
C2 C 0.35360 -0.05530 0.49480
C3 C 0.28480 -0.15760 0.53490
C4 C 0.20680 -0.07520 0.50280
C5 C 0.19880 0.09930 0.42760
C6 C 0.09320 0.27580 0.33050
O1 O 0.25000 0.69730 0.25000
C7 C 0.01020 0.42410 0.30960
C8 C 0.00150 0.43370 0.22380
C9 C 0.07750 0.29180 0.19140
C10 C -0.05160 0.53680 0.35880
C11 C -0.12300 0.66590 0.31810
C12 C -0.13150 0.68250 0.23200
C13 C -0.06890 0.56720 0.18270
H1 H 0.40790 -0.09640 0.51860
H2 H 0.29110 -0.28790 0.58460
H3 H 0.15890 -0.13490 0.53160
H4 H -0.04570 0.52750 0.41790
H5 H -0.16720 0.74220 0.35020
H6 H -0.18080 0.77490 0.20630
H7 H -0.07420 0.58100 0.12370
N1A N 0.23450 0.17130 0.11740
N3A N 0.36800 0.21350 0.24250
O1_2 O 0.25000 -0.30270 0.25000
C9A C 0.42250 0.29180 0.30860
Fe1_2 Fe 0.25000 1.19430 0.25000
N4A N 0.08570 0.23810 0.11350
C1A C 0.15740 0.11210 0.08100
C5A C 0.30120 0.09930 0.07240
C6A C 0.40680 0.27580 0.16950
C8A C 0.49850 0.43370 0.27620
C2A C 0.14640 -0.05530 0.00520
N2A N 0.38060 0.21600 0.09430
C4A C 0.29320 -0.07520 -0.00280
C7A C 0.48980 0.42410 0.19040
C13A C 0.56890 0.56720 0.31730
C3A C 0.21520 -0.15760 -0.03490
H1A H 0.09210 -0.09640 -0.01860
H3A H 0.34110 -0.13490 -0.03160
C10A C 0.55160 0.53680 0.14120
C12A C 0.63150 0.68250 0.26800
H7A H 0.57420 0.58100 0.37630
H2A H 0.20890 -0.28790 -0.08460
C11A C 0.62300 0.66590 0.18190
H4A H 0.54570 0.52750 0.08210
H6A H 0.68080 0.77490 0.29370
H5A H 0.66720 0.74220 0.14980
loop_
_geom_bond_atom_site_label_1
_geom_bond_atom_site_label_2
_geom_bond_site_symmetry_1
_geom_bond_site_symmetry_2
Fe1 N1 1_555 1_555
N1 C1 1_555 1_555
N2 C5 1_555 1_555
N3 Fe1 1_555 1_555
N4 C1 1_555 1_555
C1 C2 1_555 1_555
C2 C3 1_555 1_555
C3 C4 1_555 1_555
C4 C5 1_555 1_555
C5 N1 1_555 1_555
C6 N2 1_555 1_555
O1 Fe1 1_555 1_555
C7 C6 1_555 1_555
C8 C7 1_555 1_555
C9 N3 1_555 1_555
C10 C7 1_555 1_555
C11 C10 1_555 1_555
C12 C11 1_555 1_555
C13 C8 1_555 1_555
H1 C2 1_555 1_555
H2 C3 1_555 1_555
H3 C4 1_555 1_555
H4 C10 1_555 1_555
H5 C11 1_555 1_555
H6 C12 1_555 1_555
H7 C13 1_555 1_555
N1A Fe1 1_555 1_555
N3A Fe1 1_555 1_555
O1_2 Fe1 1_555 1_555
C9A N4 1_555 1_555
Fe1_2 O1 1_555 1_555
N4A C9 1_555 1_555
C1A N1A 1_555 1_555
C5A N1A 1_555 1_555
C6A N3A 1_555 1_555
C8A C9A 1_555 1_555
C2A C1A 1_555 1_555
N2A C5A 1_555 1_555
C4A C5A 1_555 1_555
C7A C6A 1_555 1_555
C13A C8A 1_555 1_555
C3A C2A 1_555 1_555
H1A C2A 1_555 1_555
H3A C4A 1_555 1_555
C10A C7A 1_555 1_555
C12A C13A 1_555 1_555
H7A C13A 1_555 1_555
H2A C3A 1_555 1_555
C11A C10A 1_555 1_555
H4A C10A 1_555 1_555
H6A C12A 1_555 1_555
H5A C11A 1_555 1_555
N3 C6 1_555 1_555
C8 C9 1_555 1_555
C12 C13 1_555 1_555
N3A C9A 1_555 1_555
N4A C1A 1_555 1_555
C6A N2A 1_555 1_555
C8A C7A 1_555 1_555
C4A C3A 1_555 1_555
C12A C11A 1_555 1_555

#END
