
#######################################################################
#
#                 Cambridge Crystallographic Data Centre
#                                CCDC 
#
#######################################################################
#
# If this CIF has been generated from an entry in the Cambridge 
# Structural Database, then it will include bibliographic, chemical, 
# crystal, experimental, refinement or atomic coordinate data resulting 
# from the CCDC's data processing and validation procedures.
#
#######################################################################

data_CEGCUM
_symmetry_cell_setting           triclinic
_symmetry_space_group_name_H-M   'P -1'
_symmetry_Int_Tables_number      2
_space_group_name_Hall           '-P 1'
loop_
_symmetry_equiv_pos_site_id
_symmetry_equiv_pos_as_xyz
1 x,y,z
2 -x,-y,-z
_cell_length_a                   11.389(2)
_cell_length_b                   15.227(3)
_cell_length_c                   15.228(3)
_cell_angle_alpha                89.10(1)
_cell_angle_beta                 97.51(1)
_cell_angle_gamma                89.53(1)
_cell_volume                     2617.73
loop_
_atom_site_label
_atom_site_type_symbol
_atom_site_fract_x
_atom_site_fract_y
_atom_site_fract_z
I1 I -0.08330 0.16870 -0.13860
I2 I -0.34020 0.12980 0.06170
I3 I -0.11380 0.34630 0.08470
I4 I -0.38500 0.33320 -0.16310
I5 I -0.37430 0.14580 0.33700
I6 I -0.13970 0.35690 0.35210
I7 I -0.09960 0.16510 -0.41630
I8 I -0.39740 0.33180 -0.44180
Mn1 Mn -0.23620 0.24470 -0.03920
Mn2 Mn -0.24570 0.24470 0.20990
Mn3 Mn -0.25080 0.25030 0.45710
Mn4 Mn -0.23980 0.24990 -0.29110
P1 P -0.37620 0.10740 -0.30280
P2 P -0.06540 0.13160 0.23460
P3 P -0.42650 0.36020 0.18400
P4 P -0.10610 0.39360 -0.27160
C1 C -0.30900 0.00600 -0.24900
C2 C -0.41700 0.06700 -0.41400
C3 C -0.51400 0.11800 -0.25900
C4 C -0.52600 0.10400 -0.17200
C5 C -0.63500 0.12000 -0.14100
C6 C -0.72200 0.15400 -0.18700
C7 C -0.71800 0.16600 -0.27800
C8 C -0.61300 0.15200 -0.31100
C9 C -0.00400 0.10200 0.13500
C10 C -0.10500 0.02500 0.27500
C11 C 0.06900 0.16300 0.30900
C12 C 0.09400 0.12300 0.38700
C13 C 0.19300 0.15200 0.44600
C14 C 0.26200 0.21500 0.41600
C15 C 0.24700 0.25100 0.33700
C16 C 0.14000 0.22600 0.28100
C17 C -0.47300 0.40300 0.28500
C18 C -0.38400 0.45900 0.12800
C19 C -0.57000 0.32800 0.12100
C20 C -0.60900 0.24400 0.12500
C21 C -0.71600 0.22000 0.07200
C22 C -0.78600 0.27900 0.02900
C23 C -0.75300 0.36900 0.03000
C24 C -0.64200 0.39100 0.07100
C25 C -0.17600 0.49100 -0.31900
C26 C -0.05900 0.42500 -0.15600
C27 C 0.03600 0.39300 -0.31800
C28 C 0.03200 0.39800 -0.40700
C29 C 0.12300 0.39800 -0.45800
C30 C 0.22500 0.39100 -0.40800
C31 C 0.25200 0.38400 -0.31000
C32 C 0.14600 0.38200 -0.26400
I7_2 I -0.09960 0.16510 0.58370
I8_2 I -0.39740 0.33180 0.55820
Mn3_2 Mn -0.25080 0.25030 -0.54290
loop_
_geom_bond_atom_site_label_1
_geom_bond_atom_site_label_2
_geom_bond_site_symmetry_1
_geom_bond_site_symmetry_2
I1 Mn1 1_555 1_555
I2 Mn1 1_555 1_555
I3 Mn1 1_555 1_555
I4 Mn1 1_555 1_555
I5 Mn2 1_555 1_555
I6 Mn2 1_555 1_555
I7 Mn4 1_555 1_555
I8 Mn4 1_555 1_555
Mn2 I2 1_555 1_555
Mn3 I5 1_555 1_555
Mn4 I1 1_555 1_555
P1 Mn4 1_555 1_555
P2 Mn2 1_555 1_555
P3 Mn2 1_555 1_555
P4 Mn4 1_555 1_555
C1 P1 1_555 1_555
C2 P1 1_555 1_555
C3 P1 1_555 1_555
C4 C3 1_555 1_555
C5 C4 1_555 1_555
C6 C5 1_555 1_555
C7 C6 1_555 1_555
C8 C3 1_555 1_555
C9 P2 1_555 1_555
C10 P2 1_555 1_555
C11 P2 1_555 1_555
C12 C11 1_555 1_555
C13 C12 1_555 1_555
C14 C13 1_555 1_555
C15 C14 1_555 1_555
C16 C11 1_555 1_555
C17 P3 1_555 1_555
C18 P3 1_555 1_555
C19 P3 1_555 1_555
C20 C19 1_555 1_555
C21 C20 1_555 1_555
C22 C21 1_555 1_555
C23 C22 1_555 1_555
C24 C19 1_555 1_555
C25 P4 1_555 1_555
C26 P4 1_555 1_555
C27 P4 1_555 1_555
C28 C27 1_555 1_555
C29 C28 1_555 1_555
C30 C29 1_555 1_555
C31 C30 1_555 1_555
C32 C27 1_555 1_555
I7_2 Mn3 1_555 1_555
I8_2 Mn3 1_555 1_555
Mn3_2 I7 1_555 1_555
I3 Mn2 1_555 1_555
I4 Mn4 1_555 1_555
I6 Mn3 1_555 1_555
I8 Mn3_2 1_555 1_555
C7 C8 1_555 1_555
C15 C16 1_555 1_555
C23 C24 1_555 1_555
C31 C32 1_555 1_555

#END
