
#######################################################################
#
#                 Cambridge Crystallographic Data Centre
#                                CCDC 
#
#######################################################################
#
# If this CIF has been generated from an entry in the Cambridge 
# Structural Database, then it will include bibliographic, chemical, 
# crystal, experimental, refinement or atomic coordinate data resulting 
# from the CCDC's data processing and validation procedures.
#
#######################################################################

data_CEGDUO
_symmetry_cell_setting           orthorhombic
_symmetry_space_group_name_H-M   'P n n a'
_symmetry_Int_Tables_number      52
_space_group_name_Hall           '-P 2a 2bc'
loop_
_symmetry_equiv_pos_site_id
_symmetry_equiv_pos_as_xyz
1 x,y,z
2 1/2-x,-y,z
3 1/2-x,1/2+y,1/2-z
4 x,1/2-y,1/2-z
5 -x,-y,-z
6 1/2+x,y,-z
7 1/2+x,1/2-y,1/2+z
8 -x,1/2+y,1/2+z
_cell_length_a                   19.6228(8)
_cell_length_b                   10.4307(4)
_cell_length_c                   12.7867(5)
_cell_angle_alpha                90
_cell_angle_beta                 90
_cell_angle_gamma                90
_cell_volume                     2617.18
loop_
_atom_site_label
_atom_site_type_symbol
_atom_site_fract_x
_atom_site_fract_y
_atom_site_fract_z
Ag1 Ag 0.666340(14) -0.2500 -0.2500
Ag2 Ag 0.535213(10) -0.14245(2) -0.673022(15)
Ag3 Ag 0.2500 0.0000 -0.82958(2)
N1 N 0.65927(11) -0.2219(2) -0.41080(17)
N2 N 0.60954(11) -0.1920(2) -0.56543(18)
N3 N 0.45772(11) -0.0856(2) -0.77320(17)
N4 N 0.35339(11) -0.0399(2) -0.82979(16)
C1 C 0.60075(13) -0.1977(3) -0.4618(2)
C2 C 0.67773(15) -0.2146(3) -0.5817(2)
H1 H 0.6998 -0.2172 -0.6478
C3 C 0.70814(14) -0.2326(3) -0.4874(2)
H2 H 0.7551 -0.2496 -0.4763
C4 C 0.53315(14) -0.1845(3) -0.4101(2)
H3 H 0.5387 -0.1913 -0.3342
H4 H 0.5028 -0.2527 -0.4347
H5 H 0.5134 -0.1009 -0.4275
C5 C 0.39134(12) -0.0797(2) -0.74923(19)
C6 C 0.39879(13) -0.0183(3) -0.9106(2)
H6 H 0.3874 0.0115 -0.9786
C7 C 0.46232(13) -0.0468(3) -0.8759(2)
H7 H 0.5031 -0.0411 -0.9158
C8 C 0.36284(15) -0.1153(3) -0.6449(2)
H8 H 0.3133 -0.1030 -0.6453
H9 H 0.3832 -0.0609 -0.5908
H10 H 0.3732 -0.2054 -0.6301
Ag2C Ag 0.535213(10) -0.35755(2) 0.173022(15)
Ag3B Ag 0.2500 -0.5000 0.32958(2)
N1C N 0.65927(11) -0.2781(2) -0.08920(17)
N2C N 0.60954(11) -0.3080(2) 0.06543(18)
N3C N 0.45772(11) -0.4144(2) 0.27320(17)
N4C N 0.35339(11) -0.4601(2) 0.32979(16)
N4A N 0.14661(11) 0.0399(2) -0.82979(16)
C1C C 0.60075(13) -0.3023(3) -0.0382(2)
C2C C 0.67773(15) -0.2854(3) 0.0817(2)
H1C H 0.6998 -0.2828 0.1478
C3C C 0.70814(14) -0.2674(3) -0.0126(2)
H2C H 0.7551 -0.2504 -0.0237
C4C C 0.53315(14) -0.3155(3) -0.0899(2)
H3C H 0.5387 -0.3087 -0.1658
H4C H 0.5028 -0.2473 -0.0653
H5C H 0.5134 -0.3991 -0.0725
C5C C 0.39134(12) -0.4203(2) 0.24923(19)
C6C C 0.39879(13) -0.4817(3) 0.4106(2)
H6C H 0.3874 -0.5115 0.4786
C7C C 0.46232(13) -0.4532(3) 0.3759(2)
H7C H 0.5031 -0.4589 0.4158
C8C C 0.36284(15) -0.3847(3) 0.1449(2)
H8C H 0.3133 -0.3970 0.1453
H9C H 0.3832 -0.4391 0.0908
H10C H 0.3732 -0.2946 0.1301
C9 C 0.85640(18) -0.37776(15) -0.7194(2)
H11 H 0.8567 -0.4651 -0.6985
C10 C 0.85634(14) -0.2812(3) -0.64443(11)
H12 H 0.8565 -0.3028 -0.5722
C11 C 0.85600(18) -0.3462(2) -0.82527(19)
H13 H 0.8555 -0.4121 -0.8766
C9C C 0.85640(18) -0.12224(15) -0.7806(2)
H11C H 0.8567 -0.0349 -0.8015
C10C C 0.85634(14) -0.2188(3) -0.85557(11)
H12C H 0.8565 -0.1972 -0.9278
C11C C 0.85600(18) -0.1538(2) -0.67473(19)
H13C H 0.8555 -0.0879 -0.6234
loop_
_geom_bond_atom_site_label_1
_geom_bond_atom_site_label_2
_geom_bond_site_symmetry_1
_geom_bond_site_symmetry_2
Ag1 N1 1_555 1_555
Ag2 N2 1_555 1_555
Ag3 N4 1_555 1_555
N1 C1 1_555 1_555
N2 C1 1_555 1_555
N3 Ag2 1_555 1_555
N4 C5 1_555 1_555
C1 C4 1_555 1_555
C2 N2 1_555 1_555
H1 C2 1_555 1_555
C3 N1 1_555 1_555
H2 C3 1_555 1_555
C4 H3 1_555 1_555
H4 C4 1_555 1_555
H5 C4 1_555 1_555
C5 N3 1_555 1_555
C6 N4 1_555 1_555
H6 C6 1_555 1_555
C7 N3 1_555 1_555
H7 C7 1_555 1_555
C8 C5 1_555 1_555
H8 C8 1_555 1_555
H9 C8 1_555 1_555
H10 C8 1_555 1_555
C9 H11 1_555 1_555
C10 C9 1_555 1_555
H12 C10 1_555 1_555
C11 C9 1_555 1_555
H13 C11 1_555 1_555
Ag2C N2C 1_555 1_555
Ag3B N4C 1_555 1_555
N1C Ag1 1_555 1_555
N2C C1C 1_555 1_555
N3C Ag2C 1_555 1_555
N4C C5C 1_555 1_555
N4A Ag3 1_555 1_555
C1C N1C 1_555 1_555
C2C N2C 1_555 1_555
H1C C2C 1_555 1_555
C3C N1C 1_555 1_555
H2C C3C 1_555 1_555
C4C C1C 1_555 1_555
H3C C4C 1_555 1_555
H4C C4C 1_555 1_555
H5C C4C 1_555 1_555
C5C N3C 1_555 1_555
C6C N4C 1_555 1_555
H6C C6C 1_555 1_555
C7C N3C 1_555 1_555
H7C C7C 1_555 1_555
C8C C5C 1_555 1_555
H8C C8C 1_555 1_555
H9C C8C 1_555 1_555
H10C C8C 1_555 1_555
C9C H11C 1_555 1_555
C10C C11 1_555 1_555
H12C C10C 1_555 1_555
C11C C10 1_555 1_555
H13C C11C 1_555 1_555
C2 C3 1_555 1_555
C6 C7 1_555 1_555
C2C C3C 1_555 1_555
C6C C7C 1_555 1_555
C9C C10C 1_555 1_555
C9C C11C 1_555 1_555

#END
