
#######################################################################
#
#                 Cambridge Crystallographic Data Centre
#                                CCDC 
#
#######################################################################
#
# If this CIF has been generated from an entry in the Cambridge 
# Structural Database, then it will include bibliographic, chemical, 
# crystal, experimental, refinement or atomic coordinate data resulting 
# from the CCDC's data processing and validation procedures.
#
#######################################################################

data_CEGFEA07
_symmetry_cell_setting           monoclinic
_symmetry_space_group_name_H-M   'P 21/n'
_symmetry_Int_Tables_number      14
_space_group_name_Hall           '-P 2yn'
loop_
_symmetry_equiv_pos_site_id
_symmetry_equiv_pos_as_xyz
1 x,y,z
2 1/2-x,1/2+y,1/2-z
3 -x,-y,-z
4 1/2+x,1/2-y,1/2+z
_cell_length_a                   7.8926(5)
_cell_length_b                   5.9767(3)
_cell_length_c                   10.8739(6)
_cell_angle_alpha                90
_cell_angle_beta                 92.470(5)
_cell_angle_gamma                90
_cell_volume                     512.464
loop_
_atom_site_label
_atom_site_type_symbol
_atom_site_fract_x
_atom_site_fract_y
_atom_site_fract_z
Ag1 Ag 0.5000 0.5000 0.5000
Ag2 Ag 0.5000 1.0000 1.0000
C1 C 0.3799(5) 0.9478(6) 0.6858(3)
C2 C 0.4799(3) 0.7640(4) 0.7447(2)
C3 C 0.6173(4) 0.4523(5) 0.7713(3)
C4 C 0.6149(4) 0.5600(5) 0.8805(3)
N1 N 0.5320(3) 0.5813(4) 0.68473(19)
N2 N 0.5279(3) 0.7582(4) 0.86418(19)
H1 H 0.2676 0.9033 0.6662
H2 H 0.4294 0.9947 0.6106
H3 H 0.3773 1.0759 0.7393
H4 H 0.6693 0.3118 0.7571
H5 H 0.6646 0.5070 0.9561
Ag2_2 Ag 0.5000 0.0000 0.0000
C1B C 0.6201(5) 0.0522(6) 0.3142(3)
C2B C 0.5201(3) 0.2360(4) 0.2553(2)
C3B C 0.3827(4) 0.5477(5) 0.2287(3)
C4B C 0.3851(4) 0.4400(5) 0.1195(3)
N1B N 0.4680(3) 0.4187(4) 0.31527(19)
N2B N 0.4721(3) 0.2418(4) 0.13582(19)
N2B_2 N 0.4721(3) 1.2418(4) 1.13582(19)
H1B H 0.7324 0.0967 0.3338
H2B H 0.5706 0.0053 0.3894
H3B H 0.6227 -0.0759 0.2607
H4B H 0.3307 0.6882 0.2429
H5B H 0.3354 0.4930 0.0439
loop_
_geom_bond_atom_site_label_1
_geom_bond_atom_site_label_2
_geom_bond_site_symmetry_1
_geom_bond_site_symmetry_2
Ag1 N1 1_555 1_555
Ag2 N2 1_555 1_555
C1 C2 1_555 1_555
C2 N1 1_555 1_555
C3 C4 1_555 1_555
C4 N2 1_555 1_555
N1 C3 1_555 1_555
N2 C2 1_555 1_555
H1 C1 1_555 1_555
H2 C1 1_555 1_555
H3 C1 1_555 1_555
H4 C3 1_555 1_555
H5 C4 1_555 1_555
Ag2_2 N2B 1_555 1_555
C1B C2B 1_555 1_555
C2B N1B 1_555 1_555
C3B C4B 1_555 1_555
C4B N2B 1_555 1_555
N1B Ag1 1_555 1_555
N2B C2B 1_555 1_555
N2B_2 Ag2 1_555 1_555
H1B C1B 1_555 1_555
H2B C1B 1_555 1_555
H3B C1B 1_555 1_555
H4B C3B 1_555 1_555
H5B C4B 1_555 1_555
C3B N1B 1_555 1_555

#END
