
#######################################################################
#
#                 Cambridge Crystallographic Data Centre
#                                CCDC 
#
#######################################################################
#
# If this CIF has been generated from an entry in the Cambridge 
# Structural Database, then it will include bibliographic, chemical, 
# crystal, experimental, refinement or atomic coordinate data resulting 
# from the CCDC's data processing and validation procedures.
#
#######################################################################

data_CEGFEA09
_symmetry_cell_setting           monoclinic
_symmetry_space_group_name_H-M   'P 21/n'
_symmetry_Int_Tables_number      14
_space_group_name_Hall           '-P 2yn'
loop_
_symmetry_equiv_pos_site_id
_symmetry_equiv_pos_as_xyz
1 x,y,z
2 1/2-x,1/2+y,1/2-z
3 -x,-y,-z
4 1/2+x,1/2-y,1/2+z
_cell_length_a                   7.2027(16)
_cell_length_b                   5.6926(3)
_cell_length_c                   10.9057(4)
_cell_angle_alpha                90
_cell_angle_beta                 94.504(8)
_cell_angle_gamma                90
_cell_volume                     445.776
loop_
_atom_site_label
_atom_site_type_symbol
_atom_site_fract_x
_atom_site_fract_y
_atom_site_fract_z
Ag1 Ag 0.5000 0.5000 0.5000
Ag2 Ag 0.5000 1.0000 1.0000
C1 C 0.372(5) 0.946(3) 0.6820(15)
C2 C 0.4779(15) 0.751(2) 0.7443(9)
C3 C 0.6264(15) 0.423(2) 0.7740(12)
C4 C 0.6224(15) 0.535(2) 0.8833(11)
N1 N 0.5344(16) 0.560(2) 0.6857(10)
N2 N 0.5282(16) 0.744(2) 0.8652(10)
H1 H 0.3488 1.0652 0.7400
H2 H 0.4472 1.0081 0.6220
H3 H 0.2569 0.8932 0.6430
H4 H 0.6786 0.2723 0.7614
H5 H 0.6756 0.4777 0.9601
Ag2_2 Ag 0.5000 0.0000 0.0000
C1B C 0.628(5) 0.054(3) 0.3180(15)
C2B C 0.5221(15) 0.249(2) 0.2557(9)
C3B C 0.3736(15) 0.577(2) 0.2260(12)
C4B C 0.3776(15) 0.465(2) 0.1167(11)
N1B N 0.4656(16) 0.440(2) 0.3143(10)
N2B N 0.4718(16) 0.256(2) 0.1348(10)
N2B_2 N 0.4718(16) 1.256(2) 1.1348(10)
H1B H 0.6512 -0.0652 0.2600
H2B H 0.5528 -0.0081 0.3780
H3B H 0.7431 0.1068 0.3570
H4B H 0.3214 0.7277 0.2386
H5B H 0.3244 0.5223 0.0399
loop_
_geom_bond_atom_site_label_1
_geom_bond_atom_site_label_2
_geom_bond_site_symmetry_1
_geom_bond_site_symmetry_2
Ag1 N1 1_555 1_555
Ag2 N2 1_555 1_555
C1 C2 1_555 1_555
C2 N1 1_555 1_555
C3 C4 1_555 1_555
C4 N2 1_555 1_555
N1 C3 1_555 1_555
N2 C2 1_555 1_555
H1 C1 1_555 1_555
H2 C1 1_555 1_555
H3 C1 1_555 1_555
H4 C3 1_555 1_555
H5 C4 1_555 1_555
Ag2_2 N2B 1_555 1_555
C1B C2B 1_555 1_555
C2B N1B 1_555 1_555
C3B C4B 1_555 1_555
C4B N2B 1_555 1_555
N1B Ag1 1_555 1_555
N2B C2B 1_555 1_555
N2B_2 Ag2 1_555 1_555
H1B C1B 1_555 1_555
H2B C1B 1_555 1_555
H3B C1B 1_555 1_555
H4B C3B 1_555 1_555
H5B C4B 1_555 1_555
C3B N1B 1_555 1_555

#END
