
#######################################################################
#
#                 Cambridge Crystallographic Data Centre
#                                CCDC 
#
#######################################################################
#
# If this CIF has been generated from an entry in the Cambridge 
# Structural Database, then it will include bibliographic, chemical, 
# crystal, experimental, refinement or atomic coordinate data resulting 
# from the CCDC's data processing and validation procedures.
#
#######################################################################

data_CEGFEA04
_symmetry_cell_setting           monoclinic
_symmetry_space_group_name_H-M   'P 21/n'
_symmetry_Int_Tables_number      14
_space_group_name_Hall           '-P 2yn'
loop_
_symmetry_equiv_pos_site_id
_symmetry_equiv_pos_as_xyz
1 x,y,z
2 1/2-x,1/2+y,1/2-z
3 -x,-y,-z
4 1/2+x,1/2-y,1/2+z
_cell_length_a                   7.7899(6)
_cell_length_b                   5.9402(4)
_cell_length_c                   10.9075(10)
_cell_angle_alpha                90
_cell_angle_beta                 92.670(3)
_cell_angle_gamma                90
_cell_volume                     504.181
loop_
_atom_site_label
_atom_site_type_symbol
_atom_site_fract_x
_atom_site_fract_y
_atom_site_fract_z
Ag1 Ag 0.5000 0.5000 0.5000
Ag2 Ag 0.5000 1.0000 1.0000
C1 C 0.3775(9) 0.9503(12) 0.6848(6)
C2 C 0.4794(7) 0.7644(11) 0.7440(5)
C3 C 0.6171(7) 0.4491(12) 0.7719(5)
C4 C 0.6141(8) 0.5569(12) 0.8806(5)
N1 N 0.5313(6) 0.5800(9) 0.6848(4)
N2 N 0.5288(7) 0.7573(10) 0.8647(4)
H1 H 0.3760 1.0765 0.7379
H2 H 0.4273 0.9939 0.6107
H3 H 0.2632 0.8997 0.6667
H4 H 0.6685 0.3118 0.7575
H5 H 0.6621 0.5038 0.9540
Ag2_2 Ag 0.5000 0.0000 0.0000
C1B C 0.6225(9) 0.0497(12) 0.3152(6)
C2B C 0.5206(7) 0.2356(11) 0.2560(5)
C3B C 0.3829(7) 0.5509(12) 0.2281(5)
C4B C 0.3859(8) 0.4431(12) 0.1194(5)
N1B N 0.4687(6) 0.4200(9) 0.3152(4)
N2B N 0.4712(7) 0.2427(10) 0.1353(4)
N2B_2 N 0.4712(7) 1.2427(10) 1.1353(4)
H1B H 0.6240 -0.0765 0.2621
H2B H 0.5727 0.0061 0.3893
H3B H 0.7368 0.1003 0.3333
H4B H 0.3315 0.6882 0.2425
H5B H 0.3379 0.4962 0.0460
loop_
_geom_bond_atom_site_label_1
_geom_bond_atom_site_label_2
_geom_bond_site_symmetry_1
_geom_bond_site_symmetry_2
Ag1 N1 1_555 1_555
Ag2 N2 1_555 1_555
C1 C2 1_555 1_555
C2 N1 1_555 1_555
C3 C4 1_555 1_555
C4 N2 1_555 1_555
N1 C3 1_555 1_555
N2 C2 1_555 1_555
H1 C1 1_555 1_555
H2 C1 1_555 1_555
H3 C1 1_555 1_555
H4 C3 1_555 1_555
H5 C4 1_555 1_555
Ag2_2 N2B 1_555 1_555
C1B C2B 1_555 1_555
C2B N1B 1_555 1_555
C3B C4B 1_555 1_555
C4B N2B 1_555 1_555
N1B Ag1 1_555 1_555
N2B C2B 1_555 1_555
N2B_2 Ag2 1_555 1_555
H1B C1B 1_555 1_555
H2B C1B 1_555 1_555
H3B C1B 1_555 1_555
H4B C3B 1_555 1_555
H5B C4B 1_555 1_555
C3B N1B 1_555 1_555

#END
