
#######################################################################
#
#                 Cambridge Crystallographic Data Centre
#                                CCDC 
#
#######################################################################
#
# If this CIF has been generated from an entry in the Cambridge 
# Structural Database, then it will include bibliographic, chemical, 
# crystal, experimental, refinement or atomic coordinate data resulting 
# from the CCDC's data processing and validation procedures.
#
#######################################################################

data_CEGFEA02
_symmetry_cell_setting           monoclinic
_symmetry_space_group_name_H-M   'P 21/n'
_symmetry_Int_Tables_number      14
_space_group_name_Hall           '-P 2yn'
loop_
_symmetry_equiv_pos_site_id
_symmetry_equiv_pos_as_xyz
1 x,y,z
2 1/2-x,1/2+y,1/2-z
3 -x,-y,-z
4 1/2+x,1/2-y,1/2+z
_cell_length_a                   7.8946(6)
_cell_length_b                   5.9692(4)
_cell_length_c                   10.8812(10)
_cell_angle_alpha                90
_cell_angle_beta                 92.454(3)
_cell_angle_gamma                90
_cell_volume                     512.3
loop_
_atom_site_label
_atom_site_type_symbol
_atom_site_fract_x
_atom_site_fract_y
_atom_site_fract_z
Ag1 Ag 0.5000 0.5000 0.5000
Ag2 Ag 0.5000 1.0000 1.0000
C1 C 0.3806(11) 0.9500(15) 0.6846(8)
C2 C 0.4797(8) 0.7634(12) 0.7444(6)
C3 C 0.6194(9) 0.4535(13) 0.7728(6)
C4 C 0.6155(10) 0.5588(13) 0.8805(6)
N1 N 0.5320(7) 0.5817(10) 0.6841(4)
N2 N 0.5286(8) 0.7588(10) 0.8653(5)
H1 H 0.3919 1.0817 0.7334
H2 H 0.4197 0.9807 0.6051
H3 H 0.2647 0.9090 0.6778
H4 H 0.6722 0.3164 0.7587
H5 H 0.6645 0.5086 0.9540
Ag2_2 Ag 0.5000 0.0000 0.0000
C1B C 0.6194(11) 0.0500(15) 0.3154(8)
C2B C 0.5203(8) 0.2366(12) 0.2556(6)
C3B C 0.3806(9) 0.5465(13) 0.2272(6)
C4B C 0.3845(10) 0.4412(13) 0.1195(6)
N1B N 0.4680(7) 0.4183(10) 0.3159(4)
N2B N 0.4714(8) 0.2412(10) 0.1347(5)
N2B_2 N 0.4714(8) 1.2412(10) 1.1347(5)
H1B H 0.6081 -0.0817 0.2666
H2B H 0.5803 0.0193 0.3949
H3B H 0.7353 0.0910 0.3222
H4B H 0.3278 0.6836 0.2413
H5B H 0.3355 0.4914 0.0460
loop_
_geom_bond_atom_site_label_1
_geom_bond_atom_site_label_2
_geom_bond_site_symmetry_1
_geom_bond_site_symmetry_2
Ag1 N1 1_555 1_555
Ag2 N2 1_555 1_555
C1 C2 1_555 1_555
C2 N1 1_555 1_555
C3 C4 1_555 1_555
C4 N2 1_555 1_555
N1 C3 1_555 1_555
N2 C2 1_555 1_555
H1 C1 1_555 1_555
H2 C1 1_555 1_555
H3 C1 1_555 1_555
H4 C3 1_555 1_555
H5 C4 1_555 1_555
Ag2_2 N2B 1_555 1_555
C1B C2B 1_555 1_555
C2B N1B 1_555 1_555
C3B C4B 1_555 1_555
C4B N2B 1_555 1_555
N1B Ag1 1_555 1_555
N2B C2B 1_555 1_555
N2B_2 Ag2 1_555 1_555
H1B C1B 1_555 1_555
H2B C1B 1_555 1_555
H3B C1B 1_555 1_555
H4B C3B 1_555 1_555
H5B C4B 1_555 1_555
C3B N1B 1_555 1_555

#END
