
#######################################################################
#
#                 Cambridge Crystallographic Data Centre
#                                CCDC 
#
#######################################################################
#
# If this CIF has been generated from an entry in the Cambridge 
# Structural Database, then it will include bibliographic, chemical, 
# crystal, experimental, refinement or atomic coordinate data resulting 
# from the CCDC's data processing and validation procedures.
#
#######################################################################

data_CEGFEA03
_symmetry_cell_setting           monoclinic
_symmetry_space_group_name_H-M   'P 21/n'
_symmetry_Int_Tables_number      14
_space_group_name_Hall           '-P 2yn'
loop_
_symmetry_equiv_pos_site_id
_symmetry_equiv_pos_as_xyz
1 x,y,z
2 1/2-x,1/2+y,1/2-z
3 -x,-y,-z
4 1/2+x,1/2-y,1/2+z
_cell_length_a                   7.8401(6)
_cell_length_b                   5.9549(4)
_cell_length_c                   10.8935(10)
_cell_angle_alpha                90
_cell_angle_beta                 92.556(3)
_cell_angle_gamma                90
_cell_volume                     508.079
loop_
_atom_site_label
_atom_site_type_symbol
_atom_site_fract_x
_atom_site_fract_y
_atom_site_fract_z
Ag1 Ag 0.5000 0.5000 0.5000
Ag2 Ag 0.5000 1.0000 1.0000
C1 C 0.3801(9) 0.9487(14) 0.6848(7)
C2 C 0.4813(9) 0.7643(13) 0.7447(6)
C3 C 0.6190(9) 0.4520(12) 0.7720(6)
C4 C 0.6144(9) 0.5577(13) 0.8808(6)
N1 N 0.5320(7) 0.5806(9) 0.6842(5)
N2 N 0.5284(7) 0.7580(10) 0.8640(5)
H1 H 0.3831 1.0782 0.7363
H2 H 0.4273 0.9857 0.6080
H3 H 0.2652 0.9000 0.6712
H4 H 0.6716 0.3149 0.7580
H5 H 0.6619 0.5059 0.9546
Ag2_2 Ag 0.5000 0.0000 0.0000
C1B C 0.6199(9) 0.0513(14) 0.3152(7)
C2B C 0.5187(9) 0.2357(13) 0.2553(6)
C3B C 0.3810(9) 0.5480(12) 0.2280(6)
C4B C 0.3856(9) 0.4423(13) 0.1192(6)
N1B N 0.4680(7) 0.4194(9) 0.3158(5)
N2B N 0.4716(7) 0.2420(10) 0.1360(5)
N2B_2 N 0.4716(7) 1.2420(10) 1.1360(5)
H1B H 0.6169 -0.0782 0.2637
H2B H 0.5727 0.0143 0.3920
H3B H 0.7348 0.1000 0.3288
H4B H 0.3284 0.6851 0.2420
H5B H 0.3381 0.4941 0.0454
loop_
_geom_bond_atom_site_label_1
_geom_bond_atom_site_label_2
_geom_bond_site_symmetry_1
_geom_bond_site_symmetry_2
Ag1 N1 1_555 1_555
Ag2 N2 1_555 1_555
C1 C2 1_555 1_555
C2 N1 1_555 1_555
C3 C4 1_555 1_555
C4 N2 1_555 1_555
N1 C3 1_555 1_555
N2 C2 1_555 1_555
H1 C1 1_555 1_555
H2 C1 1_555 1_555
H3 C1 1_555 1_555
H4 C3 1_555 1_555
H5 C4 1_555 1_555
Ag2_2 N2B 1_555 1_555
C1B C2B 1_555 1_555
C2B N1B 1_555 1_555
C3B C4B 1_555 1_555
C4B N2B 1_555 1_555
N1B Ag1 1_555 1_555
N2B C2B 1_555 1_555
N2B_2 Ag2 1_555 1_555
H1B C1B 1_555 1_555
H2B C1B 1_555 1_555
H3B C1B 1_555 1_555
H4B C3B 1_555 1_555
H5B C4B 1_555 1_555
C3B N1B 1_555 1_555

#END
