
#######################################################################
#
#                 Cambridge Crystallographic Data Centre
#                                CCDC 
#
#######################################################################
#
# If this CIF has been generated from an entry in the Cambridge 
# Structural Database, then it will include bibliographic, chemical, 
# crystal, experimental, refinement or atomic coordinate data resulting 
# from the CCDC's data processing and validation procedures.
#
#######################################################################

data_CEGFEA11
_symmetry_cell_setting           monoclinic
_symmetry_space_group_name_H-M   'P 21/n'
_symmetry_Int_Tables_number      14
_space_group_name_Hall           '-P 2yn'
loop_
_symmetry_equiv_pos_site_id
_symmetry_equiv_pos_as_xyz
1 x,y,z
2 1/2-x,1/2+y,1/2-z
3 -x,-y,-z
4 1/2+x,1/2-y,1/2+z
_cell_length_a                   6.9920(13)
_cell_length_b                   5.5590(2)
_cell_length_c                   10.8750(4)
_cell_angle_alpha                90
_cell_angle_beta                 95.344(7)
_cell_angle_gamma                90
_cell_volume                     420.858
loop_
_atom_site_label
_atom_site_type_symbol
_atom_site_fract_x
_atom_site_fract_y
_atom_site_fract_z
Ag1 Ag 0.5000 0.5000 0.5000
Ag2 Ag 0.5000 1.0000 1.0000
C1 C 0.381(6) 0.951(3) 0.6789(15)
C2 C 0.4794(14) 0.7454(18) 0.7443(9)
C3 C 0.6219(15) 0.4024(19) 0.7776(11)
C4 C 0.6276(15) 0.524(2) 0.8854(10)
N1 N 0.5283(15) 0.543(2) 0.6875(9)
N2 N 0.5371(15) 0.7431(19) 0.8650(9)
H1 H 0.3601 1.0743 0.7365
H2 H 0.4580 1.0105 0.6185
H3 H 0.2605 0.8987 0.6398
H4 H 0.6733 0.2466 0.7663
H5 H 0.6846 0.4684 0.9629
Ag2_2 Ag 0.5000 0.0000 0.0000
C1B C 0.619(6) 0.049(3) 0.3211(15)
C2B C 0.5206(14) 0.2546(18) 0.2557(9)
C3B C 0.3781(15) 0.5976(19) 0.2224(11)
C4B C 0.3724(15) 0.476(2) 0.1146(10)
N1B N 0.4717(15) 0.457(2) 0.3125(9)
N2B N 0.4629(15) 0.2569(19) 0.1350(9)
N2B_2 N 0.4629(15) 1.2569(19) 1.1350(9)
H1B H 0.6399 -0.0743 0.2635
H2B H 0.5420 -0.0105 0.3815
H3B H 0.7395 0.1013 0.3602
H4B H 0.3267 0.7534 0.2337
H5B H 0.3154 0.5316 0.0371
loop_
_geom_bond_atom_site_label_1
_geom_bond_atom_site_label_2
_geom_bond_site_symmetry_1
_geom_bond_site_symmetry_2
Ag1 N1 1_555 1_555
Ag2 N2 1_555 1_555
C1 C2 1_555 1_555
C2 N1 1_555 1_555
C3 C4 1_555 1_555
C4 N2 1_555 1_555
N1 C3 1_555 1_555
N2 C2 1_555 1_555
H1 C1 1_555 1_555
H2 C1 1_555 1_555
H3 C1 1_555 1_555
H4 C3 1_555 1_555
H5 C4 1_555 1_555
Ag2_2 N2B 1_555 1_555
C1B C2B 1_555 1_555
C2B N1B 1_555 1_555
C3B C4B 1_555 1_555
C4B N2B 1_555 1_555
N1B Ag1 1_555 1_555
N2B C2B 1_555 1_555
N2B_2 Ag2 1_555 1_555
H1B C1B 1_555 1_555
H2B C1B 1_555 1_555
H3B C1B 1_555 1_555
H4B C3B 1_555 1_555
H5B C4B 1_555 1_555
C3B N1B 1_555 1_555

#END
