
#######################################################################
#
#                 Cambridge Crystallographic Data Centre
#                                CCDC 
#
#######################################################################
#
# If this CIF has been generated from an entry in the Cambridge 
# Structural Database, then it will include bibliographic, chemical, 
# crystal, experimental, refinement or atomic coordinate data resulting 
# from the CCDC's data processing and validation procedures.
#
#######################################################################

data_CEGFEA01
_symmetry_cell_setting           monoclinic
_symmetry_space_group_name_H-M   'C 2'
_symmetry_Int_Tables_number      5
_space_group_name_Hall           'C 2yn'
loop_
_symmetry_equiv_pos_site_id
_symmetry_equiv_pos_as_xyz
1 x,y,z
2 -x,y,1/2-z
3 1/2+x,1/2+y,z
4 1/2-x,1/2+y,1/2-z
_cell_length_a                   10.848(3)
_cell_length_b                   5.9560(10)
_cell_length_c                   7.875(2)
_cell_angle_alpha                90
_cell_angle_beta                 92.51
_cell_angle_gamma                90
_cell_volume                     508.321
loop_
_atom_site_label
_atom_site_type_symbol
_atom_site_fract_x
_atom_site_fract_y
_atom_site_fract_z
Ag1 Ag 0.00016(7) 0.0310(6) 0.00030(12)
N1 N 0.1802(8) -0.0487(15) 0.0278(13)
N2 N 0.3602(9) -0.225(2) 0.0209(13)
C1 C 0.2749(10) 0.0851(17) 0.1145(16)
H1 H 0.2619 0.2323 0.1600
C2 C 0.2526(10) -0.208(3) -0.0040(16)
C3 C 0.3759(16) -0.025(2) 0.1147(15)
H2 H 0.4516 0.0206 0.1725
C4 C 0.189(2) -0.417(3) -0.1211(15)
H3 H 0.2501 -0.5311 -0.1369
H4 H 0.1216 -0.4789 -0.0623
H5 H 0.1600 -0.3607 -0.2298
N2B N -0.1398(9) 0.275(2) 0.0209(13)
Ag1B Ag 0.50016(7) -0.4690(6) 0.00030(12)
loop_
_geom_bond_atom_site_label_1
_geom_bond_atom_site_label_2
_geom_bond_site_symmetry_1
_geom_bond_site_symmetry_2
Ag1 N1 1_555 1_555
N1 C1 1_555 1_555
N2 C2 1_555 1_555
C1 H1 1_555 1_555
C2 N1 1_555 1_555
C3 N2 1_555 1_555
H2 C3 1_555 1_555
C4 C2 1_555 1_555
H3 C4 1_555 1_555
H4 C4 1_555 1_555
H5 C4 1_555 1_555
N2B Ag1 1_555 1_555
Ag1B N2 1_555 1_555
C1 C3 1_555 1_555

#END
