
#######################################################################
#
#                 Cambridge Crystallographic Data Centre
#                                CCDC 
#
#######################################################################
#
# If this CIF has been generated from an entry in the Cambridge 
# Structural Database, then it will include bibliographic, chemical, 
# crystal, experimental, refinement or atomic coordinate data resulting 
# from the CCDC's data processing and validation procedures.
#
#######################################################################

data_CEGFEA12
_symmetry_cell_setting           monoclinic
_symmetry_space_group_name_H-M   'P 21/n'
_symmetry_Int_Tables_number      14
_space_group_name_Hall           '-P 2yn'
loop_
_symmetry_equiv_pos_site_id
_symmetry_equiv_pos_as_xyz
1 x,y,z
2 1/2-x,1/2+y,1/2-z
3 -x,-y,-z
4 1/2+x,1/2-y,1/2+z
_cell_length_a                   6.9259(16)
_cell_length_b                   5.5072(2)
_cell_length_c                   10.8549(4)
_cell_angle_alpha                90
_cell_angle_beta                 95.667(8)
_cell_angle_gamma                90
_cell_volume                     412.007
loop_
_atom_site_label
_atom_site_type_symbol
_atom_site_fract_x
_atom_site_fract_y
_atom_site_fract_z
Ag1 Ag 0.5000 0.5000 0.5000
Ag2 Ag 0.5000 1.0000 1.0000
C1 C 0.374(5) 0.946(3) 0.6786(13)
C2 C 0.4812(14) 0.7442(18) 0.7443(8)
C3 C 0.6238(15) 0.3972(19) 0.7792(11)
C4 C 0.6296(15) 0.522(2) 0.8867(10)
N1 N 0.5296(15) 0.5388(19) 0.6886(9)
N2 N 0.5392(15) 0.7430(19) 0.8652(9)
H1 H 0.3561 1.0734 0.7355
H2 H 0.4453 1.0058 0.6145
H3 H 0.2515 0.8885 0.6439
H4 H 0.6752 0.2395 0.7686
H5 H 0.6858 0.4654 0.9649
Ag2_2 Ag 0.5000 0.0000 0.0000
C1B C 0.626(5) 0.054(3) 0.3214(13)
C2B C 0.5188(14) 0.2558(18) 0.2557(8)
C3B C 0.3762(15) 0.6028(19) 0.2208(11)
C4B C 0.3704(15) 0.478(2) 0.1133(10)
N1B N 0.4704(15) 0.4612(19) 0.3114(9)
N2B N 0.4608(15) 0.2570(19) 0.1348(9)
N2B_2 N 0.4608(15) 1.2570(19) 1.1348(9)
H1B H 0.6439 -0.0734 0.2645
H2B H 0.5547 -0.0058 0.3855
H3B H 0.7485 0.1115 0.3561
H4B H 0.3248 0.7605 0.2314
H5B H 0.3142 0.5346 0.0351
loop_
_geom_bond_atom_site_label_1
_geom_bond_atom_site_label_2
_geom_bond_site_symmetry_1
_geom_bond_site_symmetry_2
Ag1 N1 1_555 1_555
Ag2 N2 1_555 1_555
C1 C2 1_555 1_555
C2 N1 1_555 1_555
C3 C4 1_555 1_555
C4 N2 1_555 1_555
N1 C3 1_555 1_555
N2 C2 1_555 1_555
H1 C1 1_555 1_555
H2 C1 1_555 1_555
H3 C1 1_555 1_555
H4 C3 1_555 1_555
H5 C4 1_555 1_555
Ag2_2 N2B 1_555 1_555
C1B C2B 1_555 1_555
C2B N1B 1_555 1_555
C3B C4B 1_555 1_555
C4B N2B 1_555 1_555
N1B Ag1 1_555 1_555
N2B C2B 1_555 1_555
N2B_2 Ag2 1_555 1_555
H1B C1B 1_555 1_555
H2B C1B 1_555 1_555
H3B C1B 1_555 1_555
H4B C3B 1_555 1_555
H5B C4B 1_555 1_555
C3B N1B 1_555 1_555

#END
