
#######################################################################
#
#                 Cambridge Crystallographic Data Centre
#                                CCDC 
#
#######################################################################
#
# If this CIF has been generated from an entry in the Cambridge 
# Structural Database, then it will include bibliographic, chemical, 
# crystal, experimental, refinement or atomic coordinate data resulting 
# from the CCDC's data processing and validation procedures.
#
#######################################################################

data_CEGFAW
_symmetry_cell_setting           monoclinic
_symmetry_space_group_name_H-M   'P 21/c'
_symmetry_Int_Tables_number      14
_space_group_name_Hall           '-P 2ybc'
loop_
_symmetry_equiv_pos_site_id
_symmetry_equiv_pos_as_xyz
1 x,y,z
2 -x,1/2+y,1/2-z
3 -x,-y,-z
4 x,1/2-y,1/2+z
_cell_length_a                   12.6836(16)
_cell_length_b                   19.726(2)
_cell_length_c                   11.1137(13)
_cell_angle_alpha                90
_cell_angle_beta                 101.835(3)
_cell_angle_gamma                90
_cell_volume                     2721.5
loop_
_atom_site_label
_atom_site_type_symbol
_atom_site_fract_x
_atom_site_fract_y
_atom_site_fract_z
Ag1 Ag -0.65442(3) -0.047602(19) 1.35770(3)
Ag2 Ag -0.24512(3) -0.167053(19) 1.23485(3)
Ag3 Ag 0.15996(3) -0.029882(19) 1.14110(3)
Ag4 Ag -0.76418(4) 0.23489(2) 1.51413(4)
N1 N -0.5529(3) -0.1189(2) 1.3053(4)
N2 N -0.4043(3) -0.1637(2) 1.2597(4)
N3 N -0.0854(3) -0.1587(2) 1.2150(4)
N4 N 0.0625(3) -0.1082(2) 1.1768(4)
N5 N -0.7591(3) 0.4446(2) 1.5956(4)
N6 N -0.7311(4) 0.3360(2) 1.5609(4)
N7 N -0.7891(4) 0.1330(2) 1.4642(4)
N8 N -0.7445(3) 0.0292(2) 1.4153(4)
C1 C -0.4562(4) -0.1065(2) 1.2794(4)
C2 C -0.5635(4) -0.1887(3) 1.3020(5)
H1 H -0.6241 -0.2135 1.3163
C3 C -0.4730(4) -0.2159(3) 1.2751(5)
H2 H -0.4591 -0.2629 1.2680
C4 C -0.4088(5) -0.0374(3) 1.2736(5)
H3 H -0.4598 -0.0032 1.2905
H4 H -0.3941 -0.0299 1.1914
H5 H -0.3415 -0.0340 1.3350
C5 C -0.0367(4) -0.0998(3) 1.2015(5)
C6 C -0.0132(4) -0.2082(3) 1.1963(5)
H6 H -0.0245 -0.2557 1.1995
C7 C 0.0763(4) -0.1778(3) 1.1725(5)
H7 H 0.1379 -0.2004 1.1557
C8 C -0.0860(4) -0.0319(3) 1.2112(5)
H8 H -0.1577 -0.0376 1.2299
H9 H -0.0923 -0.0076 1.1332
H10 H -0.0405 -0.0058 1.2771
C9 C -0.7973(4) 0.3819(3) 1.5948(4)
C10 C -0.6622(5) 0.4394(3) 1.5594(5)
H11 H -0.6155 0.4759 1.5507
C11 C -0.6447(5) 0.3727(3) 1.5381(5)
H12 H -0.5836 0.3546 1.5121
C12 C -0.9022(4) 0.3644(3) 1.6287(5)
H13 H -0.9365 0.4058 1.6508
H14 H -0.9496 0.3426 1.5587
H15 H -0.8893 0.3332 1.6990
C13 C -0.7174(4) 0.0954(2) 1.4219(4)
C14 C -0.8398(4) 0.0254(3) 1.4556(5)
H16 H -0.8801 -0.0146 1.4615
C15 C -0.8663(4) 0.0895(3) 1.4855(5)
H17 H -0.9284 0.1016 1.5162
C16 C -0.6172(4) 0.1222(3) 1.3882(5)
H18 H -0.6139 0.1715 1.3998
H19 H -0.5542 0.1012 1.4407
H20 H -0.6178 0.1115 1.3020
Ag3C Ag -0.84004(3) 0.529882(19) 1.64110(3)
N5C N 0.2409(3) 0.0554(2) 1.0956(4)
C17 C -0.7864(7) -0.3450(4) 1.1084(7)
C18 C -0.8541(8) -0.3495(5) 1.1935(10)
H21 H -0.9299 -0.3452 1.1664
C19 C -0.8107(6) -0.3600(5) 1.3167(8)
H22 H -0.8569 -0.3626 1.3739
C20 C -0.6994(7) -0.3670(5) 1.3579(7)
C21 C -0.6329(7) -0.3622(7) 1.2749(9)
H23 H -0.5571 -0.3659 1.3023
C22 C -0.6766(8) -0.3518(9) 1.1509(10)
H24 H -0.6299 -0.3493 1.0941
C23 C -0.8348(11) -0.3321(7) 0.9744(10)
H25 H -0.7773 -0.3302 0.9276
H26 H -0.8738 -0.2890 0.9661
H27 H -0.8847 -0.3689 0.9426
C24 C -0.6419(14) -0.3769(7) 1.4889(11)
H28 H -0.5641 -0.3793 1.4928
H29 H -0.6663 -0.4191 1.5207
H30 H -0.6577 -0.3387 1.5388
C25? C -0.7493(9) -0.3658(5) 1.2460(8)
C26? C -0.8514(7) -0.3563(5) 1.1739(10)
H31? H -0.9136 -0.3641 1.2072
C27? C -0.8617(8) -0.3353(6) 1.0517(11)
H32? H -0.9312 -0.3289 1.0016
C28? C -0.7709(9) -0.3237(6) 1.0036(9)
H33? H -0.7781 -0.3094 0.9207
C29? C -0.6689(7) -0.3331(7) 1.0773(11)
H34? H -0.6064 -0.3247 1.0450
C30? C -0.6589(8) -0.3548(10) 1.1983(13)
H35? H -0.5894 -0.3619 1.2481
C31? C -0.751(2) -0.3873(9) 1.3745(11)
H36? H -0.7142 -0.4300 1.3882
H37? H -0.8246 -0.3952 1.3787
H38? H -0.7466 -0.4358 1.3781
H39? H -0.8189 -0.3744 1.3925
C32? C -0.668(3) -0.3592(19) 1.480(3)
H40? H -0.6764 -0.3760 1.5582
H41? H -0.5994 -0.3728 1.4644
H42? H -0.6727 -0.3106 1.4790
C33? C -0.707(3) -0.3417(15) 1.481(2)
H43? H -0.7143 -0.3623 1.5575
H44? H -0.6322 -0.3344 1.4816
H45? H -0.7444 -0.2990 1.4719
loop_
_geom_bond_atom_site_label_1
_geom_bond_atom_site_label_2
_geom_bond_site_symmetry_1
_geom_bond_site_symmetry_2
Ag1 N1 1_555 1_555
Ag2 N2 1_555 1_555
Ag3 N4 1_555 1_555
Ag4 N6 1_555 1_555
N1 C1 1_555 1_555
N2 C1 1_555 1_555
N3 Ag2 1_555 1_555
N4 C5 1_555 1_555
N5 C9 1_555 1_555
N6 C9 1_555 1_555
N7 Ag4 1_555 1_555
N8 Ag1 1_555 1_555
C1 C4 1_555 1_555
C2 N1 1_555 1_555
H1 C2 1_555 1_555
C3 N2 1_555 1_555
H2 C3 1_555 1_555
C4 H3 1_555 1_555
H4 C4 1_555 1_555
H5 C4 1_555 1_555
C5 N3 1_555 1_555
C6 N3 1_555 1_555
H6 C6 1_555 1_555
C7 N4 1_555 1_555
H7 C7 1_555 1_555
C8 C5 1_555 1_555
H8 C8 1_555 1_555
H9 C8 1_555 1_555
H10 C8 1_555 1_555
C9 C12 1_555 1_555
C10 N5 1_555 1_555
H11 C10 1_555 1_555
C11 N6 1_555 1_555
H12 C11 1_555 1_555
C12 H13 1_555 1_555
H14 C12 1_555 1_555
H15 C12 1_555 1_555
C13 N7 1_555 1_555
C14 N8 1_555 1_555
H16 C14 1_555 1_555
C15 N7 1_555 1_555
H17 C15 1_555 1_555
C16 C13 1_555 1_555
H18 C16 1_555 1_555
H19 C16 1_555 1_555
H20 C16 1_555 1_555
C17 C18 1_555 1_555
C18 H21 1_555 1_555
C19 C18 1_555 1_555
H22 C19 1_555 1_555
C20 C19 1_555 1_555
C21 C20 1_555 1_555
H23 C21 1_555 1_555
C22 C17 1_555 1_555
H24 C22 1_555 1_555
C23 C17 1_555 1_555
H25 C23 1_555 1_555
H26 C23 1_555 1_555
H27 C23 1_555 1_555
C24 C20 1_555 1_555
H28 C24 1_555 1_555
H29 C24 1_555 1_555
H30 C24 1_555 1_555
Ag3C N5 1_555 1_555
N5C Ag3 1_555 1_555
N8 C13 1_555 1_555
C2 C3 1_555 1_555
C6 C7 1_555 1_555
C10 C11 1_555 1_555
C14 C15 1_555 1_555
C21 C22 1_555 1_555

#END
