
#######################################################################
#
#                 Cambridge Crystallographic Data Centre
#                                CCDC 
#
#######################################################################
#
# If this CIF has been generated from an entry in the Cambridge 
# Structural Database, then it will include bibliographic, chemical, 
# crystal, experimental, refinement or atomic coordinate data resulting 
# from the CCDC's data processing and validation procedures.
#
#######################################################################

data_CEGFEA10
_symmetry_cell_setting           monoclinic
_symmetry_space_group_name_H-M   'P 21/n'
_symmetry_Int_Tables_number      14
_space_group_name_Hall           '-P 2yn'
loop_
_symmetry_equiv_pos_site_id
_symmetry_equiv_pos_as_xyz
1 x,y,z
2 1/2-x,1/2+y,1/2-z
3 -x,-y,-z
4 1/2+x,1/2-y,1/2+z
_cell_length_a                   7.0544(17)
_cell_length_b                   5.6024(3)
_cell_length_c                   10.8873(4)
_cell_angle_alpha                90
_cell_angle_beta                 95.062(9)
_cell_angle_gamma                90
_cell_volume                     428.605
loop_
_atom_site_label
_atom_site_type_symbol
_atom_site_fract_x
_atom_site_fract_y
_atom_site_fract_z
Ag1 Ag 0.5000 0.5000 0.5000
Ag2 Ag 0.5000 1.0000 1.0000
C1 C 0.380(5) 0.948(3) 0.6799(14)
C2 C 0.4868(14) 0.750(2) 0.7439(9)
C3 C 0.6249(15) 0.408(2) 0.7771(12)
C4 C 0.6265(15) 0.527(2) 0.8852(10)
N1 N 0.5364(15) 0.550(2) 0.6870(9)
N2 N 0.5387(15) 0.745(2) 0.8649(9)
H1 H 0.3606 1.0714 0.7374
H2 H 0.4501 1.0085 0.6163
H3 H 0.2598 0.8911 0.6452
H4 H 0.6757 0.2531 0.7656
H5 H 0.6799 0.4692 0.9627
Ag2_2 Ag 0.5000 0.0000 0.0000
C1B C 0.620(5) 0.052(3) 0.3201(14)
C2B C 0.5132(14) 0.250(2) 0.2561(9)
C3B C 0.3751(15) 0.592(2) 0.2229(12)
C4B C 0.3735(15) 0.473(2) 0.1148(10)
N1B N 0.4636(15) 0.450(2) 0.3130(9)
N2B N 0.4613(15) 0.255(2) 0.1351(9)
N2B_2 N 0.4613(15) 1.255(2) 1.1351(9)
H1B H 0.6394 -0.0714 0.2626
H2B H 0.5499 -0.0085 0.3837
H3B H 0.7402 0.1089 0.3548
H4B H 0.3243 0.7469 0.2344
H5B H 0.3201 0.5308 0.0373
loop_
_geom_bond_atom_site_label_1
_geom_bond_atom_site_label_2
_geom_bond_site_symmetry_1
_geom_bond_site_symmetry_2
Ag1 N1 1_555 1_555
Ag2 N2 1_555 1_555
C1 C2 1_555 1_555
C2 N1 1_555 1_555
C3 C4 1_555 1_555
C4 N2 1_555 1_555
N1 C3 1_555 1_555
N2 C2 1_555 1_555
H1 C1 1_555 1_555
H2 C1 1_555 1_555
H3 C1 1_555 1_555
H4 C3 1_555 1_555
H5 C4 1_555 1_555
Ag2_2 N2B 1_555 1_555
C1B C2B 1_555 1_555
C2B N1B 1_555 1_555
C3B C4B 1_555 1_555
C4B N2B 1_555 1_555
N1B Ag1 1_555 1_555
N2B C2B 1_555 1_555
N2B_2 Ag2 1_555 1_555
H1B C1B 1_555 1_555
H2B C1B 1_555 1_555
H3B C1B 1_555 1_555
H4B C3B 1_555 1_555
H5B C4B 1_555 1_555
C3B N1B 1_555 1_555

#END
