
#######################################################################
#
#                 Cambridge Crystallographic Data Centre
#                                CCDC 
#
#######################################################################
#
# If this CIF has been generated from an entry in the Cambridge 
# Structural Database, then it will include bibliographic, chemical, 
# crystal, experimental, refinement or atomic coordinate data resulting 
# from the CCDC's data processing and validation procedures.
#
#######################################################################

data_CEGFEA13
_symmetry_cell_setting           monoclinic
_symmetry_space_group_name_H-M   'P 21/n'
_symmetry_Int_Tables_number      14
_space_group_name_Hall           '-P 2yn'
loop_
_symmetry_equiv_pos_site_id
_symmetry_equiv_pos_as_xyz
1 x,y,z
2 1/2-x,1/2+y,1/2-z
3 -x,-y,-z
4 1/2+x,1/2-y,1/2+z
_cell_length_a                   6.8710(13)
_cell_length_b                   5.4670(2)
_cell_length_c                   10.8393(3)
_cell_angle_alpha                90
_cell_angle_beta                 95.878(7)
_cell_angle_gamma                90
_cell_volume                     405.024
loop_
_atom_site_label
_atom_site_type_symbol
_atom_site_fract_x
_atom_site_fract_y
_atom_site_fract_z
Ag1 Ag 0.5000 0.5000 0.5000
Ag2 Ag 0.5000 1.0000 1.0000
C1 C 0.373(5) 0.946(3) 0.6777(12)
C2 C 0.4753(14) 0.7395(15) 0.7445(8)
C3 C 0.6215(15) 0.3919(17) 0.7795(9)
C4 C 0.6288(15) 0.5176(19) 0.8874(8)
N1 N 0.5239(15) 0.5328(16) 0.6887(7)
N2 N 0.5362(15) 0.7398(16) 0.8658(8)
H1 H 0.3529 1.0732 0.7347
H2 H 0.4503 1.0055 0.6164
H3 H 0.2501 0.8920 0.6390
H4 H 0.6746 0.2339 0.7686
H5 H 0.6881 0.4619 0.9654
Ag2_2 Ag 0.5000 0.0000 0.0000
C1B C 0.627(5) 0.054(3) 0.3223(12)
C2B C 0.5247(14) 0.2605(15) 0.2555(8)
C3B C 0.3785(15) 0.6081(17) 0.2205(9)
C4B C 0.3712(15) 0.4824(19) 0.1126(8)
N1B N 0.4761(15) 0.4672(16) 0.3113(7)
N2B N 0.4638(15) 0.2602(16) 0.1342(8)
N2B_2 N 0.4638(15) 1.2602(16) 1.1342(8)
H1B H 0.6471 -0.0732 0.2653
H2B H 0.5497 -0.0055 0.3836
H3B H 0.7499 0.1080 0.3610
H4B H 0.3254 0.7661 0.2314
H5B H 0.3119 0.5381 0.0346
loop_
_geom_bond_atom_site_label_1
_geom_bond_atom_site_label_2
_geom_bond_site_symmetry_1
_geom_bond_site_symmetry_2
Ag1 N1 1_555 1_555
Ag2 N2 1_555 1_555
C1 C2 1_555 1_555
C2 N1 1_555 1_555
C3 C4 1_555 1_555
C4 N2 1_555 1_555
N1 C3 1_555 1_555
N2 C2 1_555 1_555
H1 C1 1_555 1_555
H2 C1 1_555 1_555
H3 C1 1_555 1_555
H4 C3 1_555 1_555
H5 C4 1_555 1_555
Ag2_2 N2B 1_555 1_555
C1B C2B 1_555 1_555
C2B N1B 1_555 1_555
C3B C4B 1_555 1_555
C4B N2B 1_555 1_555
N1B Ag1 1_555 1_555
N2B C2B 1_555 1_555
N2B_2 Ag2 1_555 1_555
H1B C1B 1_555 1_555
H2B C1B 1_555 1_555
H3B C1B 1_555 1_555
H4B C3B 1_555 1_555
H5B C4B 1_555 1_555
C3B N1B 1_555 1_555

#END
