
#######################################################################
#
#                 Cambridge Crystallographic Data Centre
#                                CCDC 
#
#######################################################################
#
# If this CIF has been generated from an entry in the Cambridge 
# Structural Database, then it will include bibliographic, chemical, 
# crystal, experimental, refinement or atomic coordinate data resulting 
# from the CCDC's data processing and validation procedures.
#
#######################################################################

data_CEGFEA06
_symmetry_cell_setting           monoclinic
_symmetry_space_group_name_H-M   'P 21/n'
_symmetry_Int_Tables_number      14
_space_group_name_Hall           '-P 2yn'
loop_
_symmetry_equiv_pos_site_id
_symmetry_equiv_pos_as_xyz
1 x,y,z
2 1/2-x,1/2+y,1/2-z
3 -x,-y,-z
4 1/2+x,1/2-y,1/2+z
_cell_length_a                   7.6885(6)
_cell_length_b                   5.9097(4)
_cell_length_c                   10.9351(9)
_cell_angle_alpha                90
_cell_angle_beta                 92.984(3)
_cell_angle_gamma                90
_cell_volume                     496.181
loop_
_atom_site_label
_atom_site_type_symbol
_atom_site_fract_x
_atom_site_fract_y
_atom_site_fract_z
Ag1 Ag 0.5000 0.5000 0.5000
Ag2 Ag 0.5000 1.0000 1.0000
C1 C 0.3769(7) 0.9516(11) 0.6857(5)
C2 C 0.4804(7) 0.7623(11) 0.7446(5)
C3 C 0.6180(7) 0.4447(10) 0.7715(5)
C4 C 0.6159(7) 0.5552(11) 0.8812(5)
N1 N 0.5304(6) 0.5788(8) 0.6840(4)
N2 N 0.5272(6) 0.7563(9) 0.8649(4)
H1 H 0.3818 1.0811 0.7385
H2 H 0.4239 0.9917 0.6104
H3 H 0.2579 0.9062 0.6709
H4 H 0.6690 0.3048 0.7566
H5 H 0.6650 0.5026 0.9544
Ag2_2 Ag 0.5000 0.0000 0.0000
C1B C 0.6231(7) 0.0484(11) 0.3143(5)
C2B C 0.5196(7) 0.2377(11) 0.2554(5)
C3B C 0.3820(7) 0.5553(10) 0.2285(5)
C4B C 0.3841(7) 0.4448(11) 0.1188(5)
N1B N 0.4696(6) 0.4212(8) 0.3160(4)
N2B N 0.4728(6) 0.2437(9) 0.1351(4)
N2B_2 N 0.4728(6) 1.2437(9) 1.1351(4)
H1B H 0.6182 -0.0811 0.2615
H2B H 0.5761 0.0083 0.3896
H3B H 0.7421 0.0938 0.3291
H4B H 0.3310 0.6952 0.2434
H5B H 0.3350 0.4974 0.0456
loop_
_geom_bond_atom_site_label_1
_geom_bond_atom_site_label_2
_geom_bond_site_symmetry_1
_geom_bond_site_symmetry_2
Ag1 N1 1_555 1_555
Ag2 N2 1_555 1_555
C1 C2 1_555 1_555
C2 N1 1_555 1_555
C3 C4 1_555 1_555
C4 N2 1_555 1_555
N1 C3 1_555 1_555
N2 C2 1_555 1_555
H1 C1 1_555 1_555
H2 C1 1_555 1_555
H3 C1 1_555 1_555
H4 C3 1_555 1_555
H5 C4 1_555 1_555
Ag2_2 N2B 1_555 1_555
C1B C2B 1_555 1_555
C2B N1B 1_555 1_555
C3B C4B 1_555 1_555
C4B N2B 1_555 1_555
N1B Ag1 1_555 1_555
N2B C2B 1_555 1_555
N2B_2 Ag2 1_555 1_555
H1B C1B 1_555 1_555
H2B C1B 1_555 1_555
H3B C1B 1_555 1_555
H4B C3B 1_555 1_555
H5B C4B 1_555 1_555
C3B N1B 1_555 1_555

#END
