
#######################################################################
#
#                 Cambridge Crystallographic Data Centre
#                                CCDC 
#
#######################################################################
#
# If this CIF has been generated from an entry in the Cambridge 
# Structural Database, then it will include bibliographic, chemical, 
# crystal, experimental, refinement or atomic coordinate data resulting 
# from the CCDC's data processing and validation procedures.
#
#######################################################################

data_CEGKEF
_symmetry_cell_setting           monoclinic
_symmetry_space_group_name_H-M   'P 21/n'
_symmetry_Int_Tables_number      14
_space_group_name_Hall           '-P 2yn'
loop_
_symmetry_equiv_pos_site_id
_symmetry_equiv_pos_as_xyz
1 x,y,z
2 1/2-x,1/2+y,1/2-z
3 -x,-y,-z
4 1/2+x,1/2-y,1/2+z
_cell_length_a                   15.377(8)
_cell_length_b                   9.459(5)
_cell_length_c                   15.887(8)
_cell_angle_alpha                90
_cell_angle_beta                 94.913(7)
_cell_angle_gamma                90
_cell_volume                     2302.29
loop_
_atom_site_label
_atom_site_type_symbol
_atom_site_fract_x
_atom_site_fract_y
_atom_site_fract_z
Sn1 Sn 0.665145(18) 0.40143(3) 0.307092(18)
Sn2 Sn 0.892928(19) -0.23265(3) 0.785455(18)
N1 N 1.1005(3) 0.3206(6) 0.4798(3)
O1 O 0.78186(19) 0.3207(4) 0.37419(18)
O2 O 0.7120(2) 0.2206(4) 0.4753(2)
O3 O 0.89776(19) -0.0888(3) 0.67865(19)
O4 O 1.03234(19) -0.0148(3) 0.71833(18)
O5 O 1.1708(3) 0.2770(7) 0.5093(3)
O6 O 1.0922(3) 0.4176(4) 0.4293(3)
O7 O 0.8784(3) -0.3934(4) 0.9059(2)
C1 C 0.8675(3) 0.2187(5) 0.4888(2)
C2 C 0.8750(3) 0.1233(4) 0.5555(2)
H1 H 0.8251 0.0796 0.5720
C3 C 0.9553(3) 0.0912(4) 0.5981(2)
C4 C 1.0292(3) 0.1572(5) 0.5727(3)
H2 H 1.0837 0.1375 0.6001
C5 C 1.0214(3) 0.2520(5) 0.5065(3)
C6 C 0.9416(3) 0.2842(5) 0.4638(3)
H3 H 0.9378 0.3483 0.4193
C7 C 0.7796(3) 0.2548(5) 0.4447(3)
C8 C 0.9640(3) -0.0113(5) 0.6705(2)
C9 C 0.7362(3) 0.4472(8) 0.2026(3)
H4 H 0.7404 0.3635 0.1690
H5 H 0.7937 0.4788 0.2222
H6 H 0.7068 0.5200 0.1691
C10 C 0.6468(4) 0.5690(7) 0.3915(4)
H7 H 0.6136 0.5360 0.4361
H8 H 0.6159 0.6445 0.3617
H9 H 0.7025 0.6026 0.4151
C11 C 0.5809(4) 0.2257(6) 0.3021(5)
H10 H 0.5983 0.1597 0.2609
H11 H 0.5222 0.2564 0.2868
H12 H 0.5839 0.1809 0.3565
C12 C 0.7706(3) -0.3106(8) 0.7349(4)
H13 H 0.7254 -0.2463 0.7481
H14 H 0.7603 -0.4016 0.7590
H15 H 0.7705 -0.3195 0.6747
C13 C 0.8940(4) -0.0718(6) 0.8780(3)
H16 H 0.8371 -0.0297 0.8770
H17 H 0.9360 -0.0008 0.8663
H18 H 0.9095 -0.1118 0.9328
C14 C 1.0048(3) -0.3539(5) 0.7671(3)
H19 H 1.0556 -0.3072 0.7932
H20 H 1.0104 -0.3641 0.7077
H21 H 0.9994 -0.4455 0.7920
C15 C 0.8659(5) -0.5413(7) 0.8998(4)
H22 H 0.9023 -0.5773 0.8577
H23 H 0.8056 -0.5587 0.8791
C16 C 0.8842(7) -0.6204(9) 0.9749(5)
H24 H 0.8736 -0.7188 0.9634
H25 H 0.8473 -0.5888 1.0169
H26 H 0.9442 -0.6073 0.9954
H27 H 0.843(3) -0.361(7) 0.940(3)
Sn1C Sn 1.165145(18) 0.09857(3) 0.807092(18)
O4C O 0.53234(19) 0.5148(3) 0.21833(18)
loop_
_geom_bond_atom_site_label_1
_geom_bond_atom_site_label_2
_geom_bond_site_symmetry_1
_geom_bond_site_symmetry_2
Sn1 O1 1_555 1_555
Sn2 O3 1_555 1_555
N1 O5 1_555 1_555
O1 C7 1_555 1_555
O2 C7 1_555 1_555
O3 C8 1_555 1_555
O4 C8 1_555 1_555
O6 N1 1_555 1_555
O7 Sn2 1_555 1_555
C1 C2 1_555 1_555
C2 H1 1_555 1_555
C3 C2 1_555 1_555
C4 C3 1_555 1_555
H2 C4 1_555 1_555
C5 N1 1_555 1_555
C6 C1 1_555 1_555
H3 C6 1_555 1_555
C7 C1 1_555 1_555
C8 C3 1_555 1_555
C9 Sn1 1_555 1_555
H4 C9 1_555 1_555
H5 C9 1_555 1_555
H6 C9 1_555 1_555
C10 Sn1 1_555 1_555
H7 C10 1_555 1_555
H8 C10 1_555 1_555
H9 C10 1_555 1_555
C11 Sn1 1_555 1_555
H10 C11 1_555 1_555
H11 C11 1_555 1_555
H12 C11 1_555 1_555
C12 Sn2 1_555 1_555
H13 C12 1_555 1_555
H14 C12 1_555 1_555
H15 C12 1_555 1_555
C13 Sn2 1_555 1_555
H16 C13 1_555 1_555
H17 C13 1_555 1_555
H18 C13 1_555 1_555
C14 Sn2 1_555 1_555
H19 C14 1_555 1_555
H20 C14 1_555 1_555
H21 C14 1_555 1_555
C15 O7 1_555 1_555
H22 C15 1_555 1_555
H23 C15 1_555 1_555
C16 C15 1_555 1_555
H24 C16 1_555 1_555
H25 C16 1_555 1_555
H26 C16 1_555 1_555
H27 O7 1_555 1_555
Sn1C O4 1_555 1_555
O4C Sn1 1_555 1_555
C4 C5 1_555 1_555
C5 C6 1_555 1_555

#END
