
#######################################################################
#
#                 Cambridge Crystallographic Data Centre
#                                CCDC 
#
#######################################################################
#
# If this CIF has been generated from an entry in the Cambridge 
# Structural Database, then it will include bibliographic, chemical, 
# crystal, experimental, refinement or atomic coordinate data resulting 
# from the CCDC's data processing and validation procedures.
#
#######################################################################

data_CEGKIJ
_symmetry_cell_setting           monoclinic
_symmetry_space_group_name_H-M   'P 21/c'
_symmetry_Int_Tables_number      14
_space_group_name_Hall           '-P 2ybc'
loop_
_symmetry_equiv_pos_site_id
_symmetry_equiv_pos_as_xyz
1 x,y,z
2 -x,1/2+y,1/2-z
3 -x,-y,-z
4 x,1/2-y,1/2+z
_cell_length_a                   6.8437(13)
_cell_length_b                   10.0869(19)
_cell_length_c                   33.583(6)
_cell_angle_alpha                90
_cell_angle_beta                 91.419(3)
_cell_angle_gamma                90
_cell_volume                     2317.58
loop_
_atom_site_label
_atom_site_type_symbol
_atom_site_fract_x
_atom_site_fract_y
_atom_site_fract_z
Sn1 Sn 0.40935(7) 0.82433(4) 0.261196(13)
Sn2 Sn 0.66027(6) -0.01507(4) 0.415739(12)
N1 N -0.2177(9) 0.4833(6) 0.38867(18)
N2 N 0.8251(10) -0.2098(6) 0.45203(17)
O1 O 0.2978(8) 0.6808(4) 0.30230(14)
O2 O 0.4770(8) 0.5109(5) 0.28333(14)
O3 O 0.5091(6) 0.1441(4) 0.38490(12)
O4 O 0.2813(8) 0.1341(5) 0.43080(14)
O5 O -0.2886(7) 0.4226(6) 0.41553(19)
O6 O -0.2992(8) 0.5754(6) 0.37128(18)
C1 C 0.2462(10) 0.4784(6) 0.33396(17)
C2 C 0.3347(9) 0.3673(6) 0.35030(17)
H1 H 0.4552 0.3399 0.3411
C3 C 0.2461(9) 0.2955(6) 0.38046(18)
C4 C 0.0640(9) 0.3331(6) 0.39245(19)
H2 H 0.0009 0.2852 0.4120
C5 C -0.0237(9) 0.4416(6) 0.37539(18)
C6 C 0.0647(10) 0.5165(6) 0.34674(18)
H3 H 0.0034 0.5914 0.3362
C7 C 0.3485(10) 0.5598(7) 0.30369(19)
C8 C 0.3505(11) 0.1822(7) 0.40087(19)
C9 C 0.2673(14) 0.9772(7) 0.2917(2)
H4 H 0.1313 0.9782 0.2840
H5 H 0.3255 1.0608 0.2851
H6 H 0.2804 0.9624 0.3199
C10 C 0.2580(11) 0.7433(8) 0.2117(2)
H7 H 0.3357 0.6748 0.2001
H8 H 0.2328 0.8116 0.1924
H9 H 0.1364 0.7065 0.2201
C11 C 0.7088(11) 0.7978(8) 0.2724(2)
H10 H 0.7550 0.7252 0.2567
H11 H 0.7313 0.7787 0.3002
H12 H 0.7775 0.8772 0.2655
C12 C 0.8793(10) -0.0223(8) 0.3723(2)
H13 H 0.9764 0.0440 0.3782
H14 H 0.8214 -0.0059 0.3465
H15 H 0.9393 -0.1083 0.3727
C13 C 0.4309(11) -0.1529(7) 0.4082(2)
H16 H 0.3395 -0.1419 0.4292
H17 H 0.4831 -0.2412 0.4091
H18 H 0.3657 -0.1383 0.3830
C14 C 0.7348(12) 0.0922(7) 0.4682(2)
H19 H 0.6272 0.0902 0.4860
H20 H 0.7636 0.1825 0.4614
H21 H 0.8475 0.0527 0.4810
C15 C 0.9859(11) -0.2686(8) 0.4408(3)
H22 H 1.0525 -0.2334 0.4194
C16 C 1.0601(11) -0.3808(8) 0.4594(3)
H23 H 1.1758 -0.4179 0.4507
C17 C 0.9653(11) -0.4377(7) 0.49042(19)
C18 C 0.7985(16) -0.3748(10) 0.5016(2)
H24 H 0.7259 -0.4084 0.5224
C19 C 0.7385(16) -0.2616(10) 0.4821(2)
H25 H 0.6275 -0.2191 0.4912
Sn1A Sn 0.59065(7) 1.32433(4) 0.238804(13)
Sn1A_2 Sn 0.59065(7) 0.32433(4) 0.238804(13)
Sn2A Sn 0.33973(6) 0.48493(4) 0.084261(12)
Sn2B Sn 1.33973(6) -0.98493(4) 0.584261(12)
N1A N 1.2177(9) 0.9833(6) 0.11133(18)
N2B N 1.1749(10) -0.7902(6) 0.54797(17)
N2A N 0.1749(10) 0.2902(6) 0.04797(17)
O1A O 0.7022(8) 1.1808(4) 0.19770(14)
O2A O 0.5230(8) 1.0109(5) 0.21667(14)
O2_2 O 0.4770(8) 1.5109(5) 0.28333(14)
O3A O 0.4909(6) 0.6441(4) 0.11510(12)
O4A O 0.7187(8) 0.6341(5) 0.06920(14)
O5A O 1.2886(7) 0.9226(6) 0.08447(19)
O6A O 1.2992(8) 1.0754(6) 0.12872(18)
C1A C 0.7538(10) 0.9784(6) 0.16604(17)
C2A C 0.6653(9) 0.8673(6) 0.14970(17)
H1A H 0.5448 0.8399 0.1589
C3A C 0.7539(9) 0.7955(6) 0.11954(18)
C4A C 0.9360(9) 0.8331(6) 0.10755(19)
H2A H 0.9991 0.7852 0.0880
C5A C 1.0237(9) 0.9416(6) 0.12461(18)
C6A C 0.9353(10) 1.0165(6) 0.15326(18)
H3A H 0.9966 1.0914 0.1638
C7A C 0.6515(10) 1.0598(7) 0.19631(19)
C8A C 0.6495(11) 0.6822(7) 0.09913(19)
C9A C 0.7327(14) 1.4772(7) 0.2083(2)
H4A H 0.8687 1.4782 0.2160
H5A H 0.6745 1.5608 0.2149
H6A H 0.7196 1.4624 0.1801
C10A C 0.7420(11) 1.2433(8) 0.2883(2)
H7A H 0.6643 1.1748 0.2999
H8A H 0.7672 1.3116 0.3076
H9A H 0.8636 1.2065 0.2799
C11A C 0.2912(11) 1.2978(8) 0.2276(2)
H10A H 0.2450 1.2252 0.2433
H11A H 0.2687 1.2787 0.1998
H12A H 0.2225 1.3772 0.2345
C12A C 0.1207(10) 0.4777(8) 0.1277(2)
H13A H 0.0236 0.5440 0.1218
H14A H 0.1786 0.4941 0.1535
H15A H 0.0607 0.3917 0.1273
C13A C 0.5691(11) 0.3471(7) 0.0918(2)
H16A H 0.6605 0.3581 0.0708
H17A H 0.5169 0.2588 0.0909
H18A H 0.6343 0.3617 0.1170
C14A C 0.2652(12) 0.5922(7) 0.0318(2)
H19A H 0.3728 0.5902 0.0140
H20A H 0.2364 0.6825 0.0386
H21A H 0.1525 0.5527 0.0190
C15B C 1.0141(11) -0.7314(8) 0.5592(3)
H22B H 0.9475 -0.7666 0.5806
C16B C 0.9399(11) -0.6192(8) 0.5406(3)
H23B H 0.8242 -0.5821 0.5493
C17B C 1.0347(11) -0.5623(7) 0.50958(19)
C18B C 1.2015(16) -0.6252(10) 0.4984(2)
H24B H 1.2741 -0.5916 0.4776
C19B C 1.2615(16) -0.7384(10) 0.5179(2)
H25B H 1.3725 -0.7809 0.5088
loop_
_geom_bond_atom_site_label_1
_geom_bond_atom_site_label_2
_geom_bond_site_symmetry_1
_geom_bond_site_symmetry_2
Sn1 O1 1_555 1_555
Sn2 N2 1_555 1_555
N1 O5 1_555 1_555
N2 C15 1_555 1_555
O1 C7 1_555 1_555
O2 C7 1_555 1_555
O3 Sn2 1_555 1_555
O4 C8 1_555 1_555
O6 N1 1_555 1_555
C1 C2 1_555 1_555
C2 H1 1_555 1_555
C3 C2 1_555 1_555
C4 C3 1_555 1_555
H2 C4 1_555 1_555
C5 N1 1_555 1_555
C6 C1 1_555 1_555
H3 C6 1_555 1_555
C7 C1 1_555 1_555
C8 O3 1_555 1_555
C9 Sn1 1_555 1_555
H4 C9 1_555 1_555
H5 C9 1_555 1_555
H6 C9 1_555 1_555
C10 Sn1 1_555 1_555
H7 C10 1_555 1_555
H8 C10 1_555 1_555
H9 C10 1_555 1_555
C11 Sn1 1_555 1_555
H10 C11 1_555 1_555
H11 C11 1_555 1_555
H12 C11 1_555 1_555
C12 Sn2 1_555 1_555
H13 C12 1_555 1_555
H14 C12 1_555 1_555
H15 C12 1_555 1_555
C13 Sn2 1_555 1_555
H16 C13 1_555 1_555
H17 C13 1_555 1_555
H18 C13 1_555 1_555
C14 Sn2 1_555 1_555
H19 C14 1_555 1_555
H20 C14 1_555 1_555
H21 C14 1_555 1_555
C15 H22 1_555 1_555
C16 C15 1_555 1_555
H23 C16 1_555 1_555
C17 C16 1_555 1_555
C18 C17 1_555 1_555
H24 C18 1_555 1_555
C19 N2 1_555 1_555
H25 C19 1_555 1_555
Sn1A O1A 1_555 1_555
Sn1A_2 O2 1_555 1_555
Sn2A N2A 1_555 1_555
Sn2B N2B 1_555 1_555
N1A O5A 1_555 1_555
N2B C15B 1_555 1_555
O1A C7A 1_555 1_555
O2A Sn1 1_555 1_555
O2_2 Sn1A 1_555 1_555
O3A Sn2A 1_555 1_555
O4A C8A 1_555 1_555
O6A N1A 1_555 1_555
C1A C2A 1_555 1_555
C2A H1A 1_555 1_555
C3A C2A 1_555 1_555
C4A C3A 1_555 1_555
H2A C4A 1_555 1_555
C5A N1A 1_555 1_555
C6A C1A 1_555 1_555
H3A C6A 1_555 1_555
C7A O2A 1_555 1_555
C8A O3A 1_555 1_555
C9A Sn1A 1_555 1_555
H4A C9A 1_555 1_555
H5A C9A 1_555 1_555
H6A C9A 1_555 1_555
C10A Sn1A 1_555 1_555
H7A C10A 1_555 1_555
H8A C10A 1_555 1_555
H9A C10A 1_555 1_555
C11A Sn1A 1_555 1_555
H10A C11A 1_555 1_555
H11A C11A 1_555 1_555
H12A C11A 1_555 1_555
C12A Sn2A 1_555 1_555
H13A C12A 1_555 1_555
H14A C12A 1_555 1_555
H15A C12A 1_555 1_555
C13A Sn2A 1_555 1_555
H16A C13A 1_555 1_555
H17A C13A 1_555 1_555
H18A C13A 1_555 1_555
C14A Sn2A 1_555 1_555
H19A C14A 1_555 1_555
H20A C14A 1_555 1_555
H21A C14A 1_555 1_555
C15B H22B 1_555 1_555
C16B C15B 1_555 1_555
H23B C16B 1_555 1_555
C17B C17 1_555 1_555
C18B C17B 1_555 1_555
H24B C18B 1_555 1_555
C19B N2B 1_555 1_555
H25B C19B 1_555 1_555
C3 C8 1_555 1_555
C4 C5 1_555 1_555
C5 C6 1_555 1_555
C18 C19 1_555 1_555
C1A C7A 1_555 1_555
C3A C8A 1_555 1_555
C4A C5A 1_555 1_555
C5A C6A 1_555 1_555
C16B C17B 1_555 1_555
C18B C19B 1_555 1_555

#END
