
#######################################################################
#
#                 Cambridge Crystallographic Data Centre
#                                CCDC 
#
#######################################################################
#
# If this CIF has been generated from an entry in the Cambridge 
# Structural Database, then it will include bibliographic, chemical, 
# crystal, experimental, refinement or atomic coordinate data resulting 
# from the CCDC's data processing and validation procedures.
#
#######################################################################

data_CEGKAA
_symmetry_cell_setting           monoclinic
_symmetry_space_group_name_H-M   'C 2'
_symmetry_Int_Tables_number      5
_space_group_name_Hall           'C 2y'
loop_
_symmetry_equiv_pos_site_id
_symmetry_equiv_pos_as_xyz
1 x,y,z
2 1/2+x,1/2+y,z
3 -x,y,-z
4 1/2-x,1/2+y,-z
_cell_length_a                   17.113(6)
_cell_length_b                   8.020(2)
_cell_length_c                   12.761(4)
_cell_angle_alpha                90
_cell_angle_beta                 121.39(3)
_cell_angle_gamma                90
_cell_volume                     1495.07
loop_
_atom_site_label
_atom_site_type_symbol
_atom_site_fract_x
_atom_site_fract_y
_atom_site_fract_z
Ag1 Ag 0.26260 0.75000 0.05970
S1 S 0.32190 0.47200 0.09930
C1 C 0.34070 0.42530 0.24210
C2 C 0.41070 0.27560 0.28670
C3 C 0.48240 0.31920 0.24810
C4 C 0.44780 0.47310 0.15930
N1 N 0.47880 0.18050 0.17940
C5 C 0.42500 0.06050 0.18350
O1 O 0.41430 -0.07230 0.12720
N2 N 0.37850 0.12840 0.23340
C6 C 0.24930 0.35940 0.23440
C7 C 0.27130 0.30300 0.36580
C8 C 0.16620 0.30840 0.35420
C9 C 0.18050 0.29780 0.45790
C10 C 0.08840 0.32640 0.45620
O2 O 0.06070 0.20180 0.45910
O3 O 0.06240 0.45230 0.47340
N3 N 0.18290 0.83760 0.21680
O4 O 0.13030 0.79960 0.12550
O5 O 0.26910 0.83040 0.24940
O6 O 0.17140 0.86150 0.30480
S1C S 0.17810 0.97200 -0.09930
O1_2 O 0.41430 0.92770 0.12720
Ag1C Ag 0.23740 0.25000 -0.05970
Ag1_2 Ag 0.26260 -0.25000 0.05970
O7 O 0.50000 0.77200 0.00000
loop_
_geom_bond_atom_site_label_1
_geom_bond_atom_site_label_2
_geom_bond_site_symmetry_1
_geom_bond_site_symmetry_2
Ag1 S1 1_555 1_555
S1 C1 1_555 1_555
C1 C2 1_555 1_555
C2 C3 1_555 1_555
C3 C4 1_555 1_555
C4 S1 1_555 1_555
N1 C3 1_555 1_555
C5 N1 1_555 1_555
O1 C5 1_555 1_555
N2 C2 1_555 1_555
C6 C1 1_555 1_555
C7 C6 1_555 1_555
C8 C7 1_555 1_555
C9 C8 1_555 1_555
C10 C9 1_555 1_555
O2 C10 1_555 1_555
O3 C10 1_555 1_555
N3 O4 1_555 1_555
O5 Ag1 1_555 1_555
O6 N3 1_555 1_555
S1C Ag1 1_555 1_555
O1_2 Ag1 1_555 1_555
Ag1C S1 1_555 1_555
Ag1_2 O1 1_555 1_555
C5 N2 1_555 1_555
N3 O5 1_555 1_555

#END
