
#######################################################################
#
#                 Cambridge Crystallographic Data Centre
#                                CCDC 
#
#######################################################################
#
# If this CIF has been generated from an entry in the Cambridge 
# Structural Database, then it will include bibliographic, chemical, 
# crystal, experimental, refinement or atomic coordinate data resulting 
# from the CCDC's data processing and validation procedures.
#
#######################################################################

data_CEGPIO
_symmetry_cell_setting           monoclinic
_symmetry_space_group_name_H-M   'C 2/c'
_symmetry_Int_Tables_number      15
_space_group_name_Hall           '-C 2yn'
loop_
_symmetry_equiv_pos_site_id
_symmetry_equiv_pos_as_xyz
1 x,y,z
2 1/2+x,1/2+y,z
3 -x,y,1/2-z
4 1/2-x,1/2+y,1/2-z
5 -x,-y,-z
6 1/2-x,1/2-y,-z
7 x,-y,1/2+z
8 1/2+x,1/2-y,1/2+z
_cell_length_a                   18.384(4)
_cell_length_b                   7.9083(16)
_cell_length_c                   13.929(3)
_cell_angle_alpha                90
_cell_angle_beta                 129.25(3)
_cell_angle_gamma                90
_cell_volume                     1568.21
loop_
_atom_site_label
_atom_site_type_symbol
_atom_site_fract_x
_atom_site_fract_y
_atom_site_fract_z
Li1 Li 0.1818(3) -0.1234(6) 0.5249(5)
Na1 Na 0.0000 0.00096(19) 0.2500
Na2 Na 0.5000 -0.5000 0.5000
O1 O 0.16236(13) 0.0332(3) 0.40339(19)
O2 O 0.23104(13) 0.1821(3) 0.34474(18)
O3 O 0.31623(13) -0.1070(3) 0.59051(18)
O4 O 0.31610(14) -0.1694(2) 0.38787(18)
O5 O 0.53791(14) -0.0502(3) 0.67092(19)
O6 O 0.46660(14) -0.3029(2) 0.59892(18)
C1 C 0.23283(19) 0.0831(3) 0.4176(3)
C2 C 0.3291(2) 0.0194(4) 0.5294(3)
H1 H 0.3663 0.1154 0.5877
C3 C 0.38050(19) -0.0538(4) 0.4859(3)
H2 H 0.3972 0.0386 0.4539
C4 C 0.4694(2) -0.1450(4) 0.5935(3)
O7 O 0.04043(13) 0.2066(2) 0.15223(19)
H3 H 0.0270 0.3107 0.1522
H4 H 0.0947 0.1909 0.2193
O8 O 0.66617(13) -0.4569(2) 0.62427(19)
H5 H 0.6983 -0.4911 0.7028
H6 H 0.6871 -0.3613 0.6205
H7 H 0.3650 -0.1007 0.6715
H8 H 0.3444 -0.2026 0.3568
Li1B Li -0.1818(3) -0.1234(6) -0.0249(5)
Li1E Li 0.3182(3) -0.3766(6) 0.4751(5)
Li1G Li -0.3182(3) -0.3766(6) 0.0249(5)
Li1A Li 0.6818(3) -0.6234(6) 0.5249(5)
Na1E Na 0.5000 -0.50096(19) 0.7500
Na1E_2 Na -0.5000 -0.50096(19) -0.2500
Na2C Na 0.0000 0.0000 0.0000
Na2A Na 0.0000 0.0000 0.5000
Na2B Na -0.5000 -0.5000 0.0000
O1B O -0.16236(13) 0.0332(3) 0.09661(19)
O2B O -0.23104(13) 0.1821(3) 0.15526(18)
O3B O -0.31623(13) -0.1070(3) -0.09051(18)
O4B O -0.31610(14) -0.1694(2) 0.11213(18)
O4E O 0.18390(14) -0.3306(2) 0.61213(18)
O4G O -0.18390(14) -0.3306(2) -0.11213(18)
O5B O -0.53791(14) -0.0502(3) -0.17092(19)
O6B O -0.46660(14) -0.3029(2) -0.09892(18)
O6E O 0.03340(14) -0.1971(2) 0.40108(18)
O6G O -0.03340(14) -0.1971(2) 0.09892(18)
O6D O 0.53340(14) -0.6971(2) 0.40108(18)
C1B C -0.23283(19) 0.0831(3) 0.0824(3)
C2B C -0.3291(2) 0.0194(4) -0.0294(3)
H1B H -0.3663 0.1154 -0.0877
C3B C -0.38050(19) -0.0538(4) 0.0141(3)
H2B H -0.3972 0.0386 0.0461
C4B C -0.4694(2) -0.1450(4) -0.0935(3)
O7B O -0.04043(13) 0.2066(2) 0.34777(19)
O7G O 0.54043(13) -0.7066(2) 0.65223(19)
O7C O 0.45957(13) -0.2934(2) 0.34777(19)
H3B H -0.0270 0.3107 0.3478
H3G H 0.5270 -0.8107 0.6522
H3C H 0.4730 -0.1893 0.3478
H4B H -0.0947 0.1909 0.2807
H4G H 0.5947 -0.6909 0.7193
H4C H 0.4053 -0.3091 0.2807
O8A O 0.16617(13) 0.0431(2) 0.62427(19)
O8D O 0.33383(13) -0.5431(2) 0.37573(19)
O8C O -0.16617(13) 0.0431(2) -0.12427(19)
H5A H 0.1983 0.0089 0.7028
H5D H 0.3017 -0.5089 0.2972
H5C H -0.1983 0.0089 -0.2028
H6A H 0.1871 0.1387 0.6205
H6D H 0.3129 -0.6387 0.3795
H6C H -0.1871 0.1387 -0.1205
H7B H -0.3650 -0.1007 -0.1715
H8B H -0.3444 -0.2026 0.1432
H8E H 0.1556 -0.2974 0.6432
H8G H -0.1556 -0.2974 -0.1432
loop_
_geom_bond_atom_site_label_1
_geom_bond_atom_site_label_2
_geom_bond_site_symmetry_1
_geom_bond_site_symmetry_2
Li1 O1 1_555 1_555
Na1 O1 1_555 1_555
Na2 O6 1_555 1_555
O1 C1 1_555 1_555
O2 C1 1_555 1_555
O3 Li1 1_555 1_555
O4 C3 1_555 1_555
O5 C4 1_555 1_555
O6 C4 1_555 1_555
C1 C2 1_555 1_555
C2 O3 1_555 1_555
H1 C2 1_555 1_555
C3 C2 1_555 1_555
H2 C3 1_555 1_555
C4 C3 1_555 1_555
O7 Na1 1_555 1_555
H3 O7 1_555 1_555
H4 O7 1_555 1_555
O8 Na2 1_555 1_555
H5 O8 1_555 1_555
H6 O8 1_555 1_555
H7 O3 1_555 1_555
H8 O4 1_555 1_555
Li1B O1B 1_555 1_555
Li1E O4 1_555 1_555
Li1G O4B 1_555 1_555
Li1A O8 1_555 1_555
Na1E O6 1_555 1_555
Na1E_2 O6B 1_555 1_555
Na2C O7 1_555 1_555
Na2A O6E 1_555 1_555
Na2B O6B 1_555 1_555
O1B Na1 1_555 1_555
O2B C1B 1_555 1_555
O3B Li1B 1_555 1_555
O4B C3B 1_555 1_555
O4E Li1 1_555 1_555
O4G Li1B 1_555 1_555
O5B C4B 1_555 1_555
O6B Li1G 1_555 1_555
O6E Li1 1_555 1_555
O6G Na1 1_555 1_555
O6D Na2 1_555 1_555
C1B O1B 1_555 1_555
C2B O3B 1_555 1_555
H1B C2B 1_555 1_555
C3B C2B 1_555 1_555
H2B C3B 1_555 1_555
C4B O6B 1_555 1_555
O7B Na1 1_555 1_555
O7G Na2 1_555 1_555
O7C Na2 1_555 1_555
H3B O7B 1_555 1_555
H3G O7G 1_555 1_555
H3C O7C 1_555 1_555
H4B O7B 1_555 1_555
H4G O7G 1_555 1_555
H4C O7C 1_555 1_555
O8A Li1 1_555 1_555
O8D Na2 1_555 1_555
O8C Li1B 1_555 1_555
H5A O8A 1_555 1_555
H5D O8D 1_555 1_555
H5C O8C 1_555 1_555
H6A O8A 1_555 1_555
H6D O8D 1_555 1_555
H6C O8C 1_555 1_555
H7B O3B 1_555 1_555
H8B O4B 1_555 1_555
H8E O4E 1_555 1_555
H8G O4G 1_555 1_555
Na1 O6E 1_555 1_555
O6 Li1E 1_555 1_555
Li1B O6G 1_555 1_555
Li1E O8D 1_555 1_555
Li1A O6D 1_555 1_555
Na1E O7G 1_555 1_555
Na2C O6G 1_555 1_555
Na2C O8C 1_555 1_555
Na2A O7B 1_555 1_555
Na2A O8A 1_555 1_555
C1B C2B 1_555 1_555
C3B C4B 1_555 1_555

#END
