
#######################################################################
#
#                 Cambridge Crystallographic Data Centre
#                                CCDC 
#
#######################################################################
#
# If this CIF has been generated from an entry in the Cambridge 
# Structural Database, then it will include bibliographic, chemical, 
# crystal, experimental, refinement or atomic coordinate data resulting 
# from the CCDC's data processing and validation procedures.
#
#######################################################################

data_CEGWER
_symmetry_cell_setting           monoclinic
_symmetry_space_group_name_H-M   'P 21/n'
_symmetry_Int_Tables_number      14
_space_group_name_Hall           '-P 2yn'
loop_
_symmetry_equiv_pos_site_id
_symmetry_equiv_pos_as_xyz
1 x,y,z
2 1/2-x,1/2+y,1/2-z
3 -x,-y,-z
4 1/2+x,1/2-y,1/2+z
_cell_length_a                   7.2603(13)
_cell_length_b                   10.3523(18)
_cell_length_c                   18.692(3)
_cell_angle_alpha                90
_cell_angle_beta                 94.087(3)
_cell_angle_gamma                90
_cell_volume                     1401.33
loop_
_atom_site_label
_atom_site_type_symbol
_atom_site_fract_x
_atom_site_fract_y
_atom_site_fract_z
Ca1 Ca 0.25305(10) 0.74280(7) 0.13292(4)
P1 P 1.17634(13) 0.56561(9) 0.29994(5)
O1 O 0.5821(3) 0.6906(3) 0.16130(13)
O2 O 0.6277(3) 0.7960(2) 0.26472(13)
O3 O 0.8138(4) 0.6506(3) 0.52435(13)
O4 O 0.7242(4) 0.4475(3) 0.50768(13)
O5 O 1.0178(3) 0.8232(2) 0.20924(12)
O6 O 1.0810(4) 0.8829(3) 0.32246(12)
O7 O 1.2529(3) 0.5890(2) 0.22744(11)
O8 O 1.1107(3) 0.4271(2) 0.30781(11)
O9 O 1.3086(3) 0.6046(2) 0.36272(11)
O10 O -0.0465(4) 0.7243(3) 0.06518(15)
O11 O 0.2822(4) 0.5532(3) 0.06530(15)
C1 C 0.6650(5) 0.7035(4) 0.2206(2)
C2 C 0.8171(4) 0.6129(4) 0.24649(18)
H1 H 0.8787 0.5828 0.2052
H2 H 0.7618 0.5382 0.2679
C3 C 0.9650(5) 0.6697(3) 0.30172(18)
C4 C 0.9016(5) 0.6791(4) 0.37928(18)
H3 H 1.0083 0.6986 0.4117
H4 H 0.8159 0.7506 0.3814
C5 C 0.8086(5) 0.5567(4) 0.40609(18)
H5 H 0.6886 0.5470 0.3804
H6 H 0.8826 0.4822 0.3952
C6 C 0.7838(5) 0.5586(4) 0.4855(2)
C7 C 1.0215(4) 0.7996(3) 0.2734(2)
H7 H -0.0323 0.7135 0.0191
H8 H 0.2170 0.4871 0.0676
H9 H -0.1111 0.7715 0.0637
H10 H 0.2990 0.5561 0.0234
H11 H 0.5126 0.8463 0.2340
H12 H 1.2832 0.5777 0.4237
H13 H 1.1285 0.9467 0.3033
Ca1C Ca 0.75305(10) 0.75720(7) 0.63292(4)
Ca1_2 Ca 1.25305(10) 0.74280(7) 0.13292(4)
Ca1A Ca 1.24695(10) 0.24280(7) 0.36708(4)
O3C O 0.3138(4) 0.8494(3) 0.02435(13)
O5_2 O 0.0178(3) 0.8232(2) 0.20924(12)
O7_2 O 0.2529(3) 0.5890(2) 0.22744(11)
O8A O 0.3893(3) 0.9271(2) 0.19219(11)
O12 O 0.4498(4) 0.8370(3) 0.42084(15)
H14 H 0.4134 0.7767 0.3928
H15 H 0.5511 0.8629 0.4105
O13 O 0.2803(5) 0.5143(3) 0.92185(15)
H16 H 0.2580 0.4301 0.9170
H17 H 0.3704 0.5490 0.9030
loop_
_geom_bond_atom_site_label_1
_geom_bond_atom_site_label_2
_geom_bond_site_symmetry_1
_geom_bond_site_symmetry_2
Ca1 O1 1_555 1_555
P1 O7 1_555 1_555
O1 C1 1_555 1_555
O2 C1 1_555 1_555
O3 C6 1_555 1_555
O4 C6 1_555 1_555
O5 C7 1_555 1_555
O6 C7 1_555 1_555
O7 Ca1_2 1_555 1_555
O8 P1 1_555 1_555
O9 P1 1_555 1_555
O10 Ca1 1_555 1_555
O11 Ca1 1_555 1_555
C1 C2 1_555 1_555
C2 H1 1_555 1_555
H2 C2 1_555 1_555
C3 P1 1_555 1_555
C4 C3 1_555 1_555
H3 C4 1_555 1_555
H4 C4 1_555 1_555
C5 C4 1_555 1_555
H5 C5 1_555 1_555
H6 C5 1_555 1_555
C6 C5 1_555 1_555
C7 C3 1_555 1_555
H7 O10 1_555 1_555
H8 O11 1_555 1_555
H9 O10 1_555 1_555
H10 O11 1_555 1_555
H11 O2 1_555 1_555
H12 O9 1_555 1_555
H13 O6 1_555 1_555
O12 H14 1_555 1_555
H15 O12 1_555 1_555
O13 H16 1_555 1_555
H17 O13 1_555 1_555
Ca1C O3 1_555 1_555
Ca1_2 O5 1_555 1_555
Ca1A O8 1_555 1_555
O3C Ca1 1_555 1_555
O5_2 Ca1 1_555 1_555
O7_2 Ca1 1_555 1_555
O8A Ca1 1_555 1_555
C2 C3 1_555 1_555

#END
