
#######################################################################
#
#                 Cambridge Crystallographic Data Centre
#                                CCDC 
#
#######################################################################
#
# If this CIF has been generated from an entry in the Cambridge 
# Structural Database, then it will include bibliographic, chemical, 
# crystal, experimental, refinement or atomic coordinate data resulting 
# from the CCDC's data processing and validation procedures.
#
#######################################################################

data_CEHBIA
_symmetry_cell_setting           monoclinic
_symmetry_space_group_name_H-M   'P 21/n'
_symmetry_Int_Tables_number      14
_space_group_name_Hall           '-P 2yn'
loop_
_symmetry_equiv_pos_site_id
_symmetry_equiv_pos_as_xyz
1 x,y,z
2 1/2-x,1/2+y,1/2-z
3 -x,-y,-z
4 1/2+x,1/2-y,1/2+z
_cell_length_a                   14.839(2)
_cell_length_b                   10.9770(5)
_cell_length_c                   13.028(2)
_cell_angle_alpha                90
_cell_angle_beta                 99.78(1)
_cell_angle_gamma                90
_cell_volume                     2091.26
loop_
_atom_site_label
_atom_site_type_symbol
_atom_site_fract_x
_atom_site_fract_y
_atom_site_fract_z
Cu1 Cu 0.62760 0.01140 -0.25170
O4 O 0.52290 -0.04240 -0.19320
O5 O 0.63980 0.16770 -0.13990
O6 O 0.50800 0.26850 0.11570
N1 N 0.31190 0.09090 -0.15840
C1 C 0.37030 0.01590 -0.19460
C2 C 0.33380 -0.08460 -0.26800
C3 C 0.46480 0.03290 -0.16110
C4 C 0.49230 0.12850 -0.09100
C5 C 0.59320 0.14370 -0.05420
C6 C 0.42610 0.20450 -0.05700
C7 C 0.45100 0.30820 0.01570
C8 C 0.33680 0.18200 -0.09360
O10 O 0.73180 0.06760 -0.30710
O11 O 0.54480 0.07840 -0.37940
O12 O 0.61500 0.35660 -0.63520
N3 N 0.79030 0.38410 -0.32610
C9 C 0.79310 0.26690 -0.29300
C10 C 0.86520 0.23080 -0.20350
C11 C 0.72690 0.18310 -0.34010
C12 C 0.65850 0.22100 -0.41970
C13 C 0.58740 0.12850 -0.46290
C14 C 0.65710 0.34380 -0.45210
C15 C 0.58800 0.39260 -0.54060
C16 C 0.72360 0.42080 -0.40350
H1 H 0.24400 0.08600 -0.19100
H2 H 0.33900 -0.16500 -0.23200
H3 H 0.37000 -0.09400 -0.32600
H4 H 0.27700 -0.06400 -0.29500
H5 H 0.62500 0.07500 -0.02000
H6 H 0.61300 0.20400 -0.00200
H7 H 0.39500 0.34600 0.02900
H8 H 0.48300 0.36900 -0.01800
H9 H 0.28300 0.23500 -0.06600
H12 H 0.49400 0.13500 -0.36800
H13 H 0.57100 0.37600 -0.69100
H14 H 0.84200 0.20300 -0.15300
H15 H 0.90300 0.30400 -0.17900
H16 H 0.90500 0.16600 -0.22700
H17 H 0.53600 0.16200 -0.50400
H18 H 0.60700 0.06100 -0.49100
H19 H 0.58800 0.47800 -0.53400
H20 H 0.53200 0.35700 -0.52800
H21 H 0.73300 0.51000 -0.42500
N3A N 0.70970 -0.11590 -0.17390
Cu1A Cu 0.87240 0.51140 -0.24830
O1 O -0.14920 -0.08840 -0.37220
H10 H -0.19500 -0.03100 -0.36500
O2 O -0.03450 -0.03750 -0.27300
H11 H -0.02100 -0.06900 -0.32500
O3 O 0.16130 0.07360 -0.38400
O7 O 0.43060 0.26460 -0.35530
O8 O 0.29660 0.33160 -0.40010
O9 O 0.33410 0.15110 -0.43910
N2 N 0.35320 0.24990 -0.39900
loop_
_geom_bond_atom_site_label_1
_geom_bond_atom_site_label_2
_geom_bond_site_symmetry_1
_geom_bond_site_symmetry_2
Cu1 O4 1_555 1_555
O1 H10 1_555 1_555
O2 H11 1_555 1_555
O4 C3 1_555 1_555
O5 Cu1 1_555 1_555
O6 C7 1_555 1_555
N1 C1 1_555 1_555
C1 C2 1_555 1_555
C2 H2 1_555 1_555
C3 C1 1_555 1_555
C4 C3 1_555 1_555
C5 O5 1_555 1_555
C6 C4 1_555 1_555
C7 C6 1_555 1_555
C8 N1 1_555 1_555
O7 N2 1_555 1_555
O8 N2 1_555 1_555
O9 N2 1_555 1_555
O10 Cu1 1_555 1_555
O11 Cu1 1_555 1_555
O12 C15 1_555 1_555
N3 C9 1_555 1_555
C9 C10 1_555 1_555
C10 H14 1_555 1_555
C11 O10 1_555 1_555
C12 C11 1_555 1_555
C13 O11 1_555 1_555
C14 C12 1_555 1_555
C15 C14 1_555 1_555
C16 N3 1_555 1_555
H1 N1 1_555 1_555
H3 C2 1_555 1_555
H4 C2 1_555 1_555
H5 C5 1_555 1_555
H6 C5 1_555 1_555
H7 C7 1_555 1_555
H8 C7 1_555 1_555
H9 C8 1_555 1_555
H12 O11 1_555 1_555
H13 O12 1_555 1_555
H15 C10 1_555 1_555
H16 C10 1_555 1_555
H17 C13 1_555 1_555
H18 C13 1_555 1_555
H19 C15 1_555 1_555
H20 C15 1_555 1_555
H21 C16 1_555 1_555
N3A Cu1 1_555 1_555
Cu1A N3 1_555 1_555
C4 C5 1_555 1_555
C6 C8 1_555 1_555
C9 C11 1_555 1_555
C12 C13 1_555 1_555
C14 C16 1_555 1_555

#END
