
#######################################################################
#
#                 Cambridge Crystallographic Data Centre
#                                CCDC 
#
#######################################################################
#
# If this CIF has been generated from an entry in the Cambridge 
# Structural Database, then it will include bibliographic, chemical, 
# crystal, experimental, refinement or atomic coordinate data resulting 
# from the CCDC's data processing and validation procedures.
#
#######################################################################

data_CEHBOH
_symmetry_cell_setting           orthorhombic
_symmetry_space_group_name_H-M   'P n a 21'
_symmetry_Int_Tables_number      33
_space_group_name_Hall           'P 2c -2n'
loop_
_symmetry_equiv_pos_site_id
_symmetry_equiv_pos_as_xyz
1 x,y,z
2 -x,-y,1/2+z
3 1/2+x,1/2-y,z
4 1/2-x,1/2+y,1/2+z
_cell_length_a                   9.608(2)
_cell_length_b                   19.855(4)
_cell_length_c                   8.183(2)
_cell_angle_alpha                90
_cell_angle_beta                 90
_cell_angle_gamma                90
_cell_volume                     1561.05
loop_
_atom_site_label
_atom_site_type_symbol
_atom_site_fract_x
_atom_site_fract_y
_atom_site_fract_z
Co1 Co 0.28596(6) 0.65658(3) 0.19540(11)
O1 O 0.1844(5) 0.7424(2) 0.1291(6)
O2 O 0.2211(4) 0.6600(2) -0.5577(5)
O3 O 0.3850(4) 0.7253(2) -0.4484(6)
O4 O 0.1175(4) 0.8093(2) -0.0746(6)
O5 O 0.3472(4) 0.6679(2) -0.0577(5)
N1 N 0.1077(4) 0.5955(2) 0.1291(6)
N2 N 0.3701(4) 0.5579(2) 0.1928(8)
C1 C 0.4982(5) 0.5400(3) 0.2312(8)
H1 H 0.5599(5) 0.5727(3) 0.2682(8)
C2 C 0.5444(6) 0.4728(3) 0.2178(12)
H2 H 0.6357(6) 0.4618(3) 0.2447(12)
C3 C 0.4564(7) 0.4247(3) 0.1663(9)
H3 H 0.4862(7) 0.3803(3) 0.1587(9)
C4 C 0.3192(6) 0.4419(3) 0.1240(9)
C5 C 0.2200(7) 0.3940(3) 0.0674(11)
H4 H 0.2460(7) 0.3492(3) 0.0544(11)
C6 C 0.0883(8) 0.4131(3) 0.0324(9)
H5 H 0.0251(8) 0.3813(3) -0.0055(9)
C7 C 0.0441(6) 0.4814(3) 0.0523(8)
C8 C -0.0935(7) 0.5039(4) 0.0223(9)
H6 H -0.1616(7) 0.4737(4) -0.0117(9)
C9 C -0.1252(7) 0.5704(4) 0.0438(10)
H7 H -0.2144(7) 0.5861(4) 0.0218(10)
C10 C -0.0219(6) 0.6146(3) 0.0992(9)
H8 H -0.0456(6) 0.6595(3) 0.1158(9)
C11 C 0.1409(5) 0.5294(3) 0.1068(7)
C12 C 0.2810(5) 0.5094(3) 0.1422(8)
C13 C 0.1850(5) 0.7610(3) -0.0199(7)
C14 C 0.2764(6) 0.7227(3) -0.1392(8)
H9 H 0.3471(6) 0.7538(3) -0.1809(8)
C15 C 0.1923(5) 0.6966(3) -0.2848(9)
H10 H 0.1584(5) 0.6518(3) -0.2594(9)
H11 H 0.1120(5) 0.7255(3) -0.3002(9)
C16 C 0.2730(5) 0.6937(3) -0.4422(8)
O6 O 0.4738(4) 0.6962(3) 0.2728(6)
Co1_2 Co 0.28596(6) 0.65658(3) -0.80460(11)
O2_2 O 0.2211(4) 0.6600(2) 0.4423(5)
loop_
_geom_bond_atom_site_label_1
_geom_bond_atom_site_label_2
_geom_bond_site_symmetry_1
_geom_bond_site_symmetry_2
Co1 O1 1_555 1_555
O1 C13 1_555 1_555
O2 C16 1_555 1_555
O3 C16 1_555 1_555
O4 C13 1_555 1_555
O5 Co1 1_555 1_555
N1 Co1 1_555 1_555
N2 Co1 1_555 1_555
C1 N2 1_555 1_555
H1 C1 1_555 1_555
C2 C1 1_555 1_555
H2 C2 1_555 1_555
C3 C2 1_555 1_555
H3 C3 1_555 1_555
C4 C3 1_555 1_555
C5 C4 1_555 1_555
H4 C5 1_555 1_555
C6 C5 1_555 1_555
H5 C6 1_555 1_555
C7 C6 1_555 1_555
C8 C7 1_555 1_555
H6 C8 1_555 1_555
C9 C8 1_555 1_555
H7 C9 1_555 1_555
C10 N1 1_555 1_555
H8 C10 1_555 1_555
C11 N1 1_555 1_555
C12 N2 1_555 1_555
C13 C14 1_555 1_555
C14 O5 1_555 1_555
H9 C14 1_555 1_555
C15 C14 1_555 1_555
H10 C15 1_555 1_555
H11 C15 1_555 1_555
C16 C15 1_555 1_555
O6 Co1 1_555 1_555
Co1_2 O2 1_555 1_555
O2_2 Co1 1_555 1_555
C4 C12 1_555 1_555
C7 C11 1_555 1_555
C9 C10 1_555 1_555
C11 C12 1_555 1_555

#END
