
#######################################################################
#
#                 Cambridge Crystallographic Data Centre
#                                CCDC 
#
#######################################################################
#
# If this CIF has been generated from an entry in the Cambridge 
# Structural Database, then it will include bibliographic, chemical, 
# crystal, experimental, refinement or atomic coordinate data resulting 
# from the CCDC's data processing and validation procedures.
#
#######################################################################

data_CEHBIB
_symmetry_cell_setting           orthorhombic
_symmetry_space_group_name_H-M   'P n a 21'
_symmetry_Int_Tables_number      33
_space_group_name_Hall           'P 2c -2n'
loop_
_symmetry_equiv_pos_site_id
_symmetry_equiv_pos_as_xyz
1 x,y,z
2 -x,-y,1/2+z
3 1/2+x,1/2-y,z
4 1/2-x,1/2+y,1/2+z
_cell_length_a                   9.586(2)
_cell_length_b                   20.037(4)
_cell_length_c                   8.243(2)
_cell_angle_alpha                90
_cell_angle_beta                 90
_cell_angle_gamma                90
_cell_volume                     1583.27
loop_
_atom_site_label
_atom_site_type_symbol
_atom_site_fract_x
_atom_site_fract_y
_atom_site_fract_z
Fe1 Fe 0.28612(7) 0.65621(3) 0.19786(10)
O1 O 0.1826(4) 0.7415(2) 0.1225(5)
O2 O 0.2245(5) 0.6608(2) -0.5588(5)
O3 O 0.3886(4) 0.7253(2) -0.4496(6)
O4 O 0.1181(4) 0.8092(2) -0.0767(5)
O5 O 0.3475(4) 0.6689(2) -0.0642(5)
N1 N 0.1058(4) 0.5944(2) 0.1216(6)
N2 N 0.3703(4) 0.5557(2) 0.1888(8)
C1 C 0.4970(6) 0.5371(3) 0.2265(9)
H1 H 0.5599(6) 0.5692(3) 0.2625(9)
C2 C 0.5420(6) 0.4700(3) 0.2144(12)
H2 H 0.6328(6) 0.4585(3) 0.2428(12)
C3 C 0.4532(7) 0.4228(3) 0.1619(10)
H3 H 0.4819(7) 0.3786(3) 0.1545(10)
C4 C 0.3165(6) 0.4409(3) 0.1184(9)
C5 C 0.2176(7) 0.3935(3) 0.0621(10)
H4 H 0.2436(7) 0.3492(3) 0.0488(10)
C6 C 0.0862(8) 0.4127(3) 0.0281(9)
H5 H 0.0226(8) 0.3811(3) -0.0089(9)
C7 C 0.0418(6) 0.4807(3) 0.0475(8)
C8 C -0.0957(7) 0.5040(4) 0.0156(9)
H6 H -0.1637(7) 0.4741(4) -0.0189(9)
C9 C -0.1288(7) 0.5697(4) 0.0352(10)
H7 H -0.2181(7) 0.5854(4) 0.0130(10)
C10 C -0.0234(5) 0.6127(3) 0.0900(9)
H8 H -0.0463(5) 0.6574(3) 0.1051(9)
C11 C 0.1392(6) 0.5287(3) 0.0999(7)
C12 C 0.2797(6) 0.5082(2) 0.1365(7)
C13 C 0.1844(6) 0.7605(3) -0.0244(7)
C14 C 0.2769(6) 0.7227(3) -0.1426(8)
H9 H 0.3478(6) 0.7539(3) -0.1827(8)
C15 C 0.1933(5) 0.6983(3) -0.2881(10)
H10 H 0.1567(5) 0.6543(3) -0.2638(10)
H11 H 0.1144(5) 0.7279(3) -0.3041(10)
C16 C 0.2757(6) 0.6947(3) -0.4441(8)
O6 O 0.4803(4) 0.6921(2) 0.2725(5)
Fe1_2 Fe 0.28612(7) 0.65621(3) -0.80214(10)
O2_2 O 0.2245(5) 0.6608(2) 0.4412(5)
loop_
_geom_bond_atom_site_label_1
_geom_bond_atom_site_label_2
_geom_bond_site_symmetry_1
_geom_bond_site_symmetry_2
Fe1 O1 1_555 1_555
O1 C13 1_555 1_555
O2 C16 1_555 1_555
O3 C16 1_555 1_555
O4 C13 1_555 1_555
O5 Fe1 1_555 1_555
N1 Fe1 1_555 1_555
N2 Fe1 1_555 1_555
C1 N2 1_555 1_555
H1 C1 1_555 1_555
C2 C1 1_555 1_555
H2 C2 1_555 1_555
C3 C2 1_555 1_555
H3 C3 1_555 1_555
C4 C3 1_555 1_555
C5 C4 1_555 1_555
H4 C5 1_555 1_555
C6 C5 1_555 1_555
H5 C6 1_555 1_555
C7 C6 1_555 1_555
C8 C7 1_555 1_555
H6 C8 1_555 1_555
C9 C8 1_555 1_555
H7 C9 1_555 1_555
C10 N1 1_555 1_555
H8 C10 1_555 1_555
C11 N1 1_555 1_555
C12 N2 1_555 1_555
C13 C14 1_555 1_555
C14 O5 1_555 1_555
H9 C14 1_555 1_555
C15 C14 1_555 1_555
H10 C15 1_555 1_555
H11 C15 1_555 1_555
C16 C15 1_555 1_555
O6 Fe1 1_555 1_555
Fe1_2 O2 1_555 1_555
O2_2 Fe1 1_555 1_555
C4 C12 1_555 1_555
C7 C11 1_555 1_555
C9 C10 1_555 1_555
C11 C12 1_555 1_555

#END
