
#######################################################################
#
#                 Cambridge Crystallographic Data Centre
#                                CCDC 
#
#######################################################################
#
# If this CIF has been generated from an entry in the Cambridge 
# Structural Database, then it will include bibliographic, chemical, 
# crystal, experimental, refinement or atomic coordinate data resulting 
# from the CCDC's data processing and validation procedures.
#
#######################################################################

data_CEHCOI
_symmetry_cell_setting           monoclinic
_symmetry_space_group_name_H-M   'P 21/c'
_symmetry_Int_Tables_number      14
_space_group_name_Hall           '-P 2ybc'
loop_
_symmetry_equiv_pos_site_id
_symmetry_equiv_pos_as_xyz
1 x,y,z
2 -x,1/2+y,1/2-z
3 -x,-y,-z
4 x,1/2-y,1/2+z
_cell_length_a                   7.5458(2)
_cell_length_b                   22.3825(4)
_cell_length_c                   10.2930(3)
_cell_angle_alpha                90
_cell_angle_beta                 103.088(1)
_cell_angle_gamma                90
_cell_volume                     1693.27
loop_
_atom_site_label
_atom_site_type_symbol
_atom_site_fract_x
_atom_site_fract_y
_atom_site_fract_z
Cd1 Cd -0.80428(6) 0.524000(19) 0.17545(4)
O1 O -0.1108(7) 0.5327(2) 0.1216(6)
C1 C -0.7215(10) 0.5232(3) 0.4991(7)
N1 N -0.8600(8) 0.4516(3) 0.3335(6)
N2 N -0.7048(7) 0.5584(2) 0.3971(5)
C2 C -0.5554(11) 0.6327(3) 0.5521(8)
H1 H -0.5002 0.6710 0.5674
O2 O -0.5432(8) 0.5758(2) 0.1328(6)
C3 C -0.8446(11) 0.4251(3) 0.5604(7)
H2 H -0.8124 0.4360 0.6520
O3 O -0.8104(8) 0.6186(3) 0.0654(7)
C4 C -0.8125(9) 0.4641(3) 0.4629(6)
C5 C -0.6412(9) 0.6150(3) 0.0705(7)
C6 C -0.9386(11) 0.3981(4) 0.2960(8)
H3 H -0.9755 0.3893 0.2035
C7 C -0.5626(8) 0.6628(3) -0.0086(6)
C8 C -0.5695(10) 0.5964(4) 0.6558(7)
H4 H -0.5214 0.6090 0.7450
C9 C -0.3766(9) 0.6682(3) 0.0002(6)
C10 C -0.2038(9) 0.5685(3) 0.0404(6)
C11 C -0.6246(11) 0.6119(3) 0.4231(7)
H5 H -0.6145 0.6367 0.3503
C12 C -0.6845(10) 0.6995(3) -0.0955(8)
H6 H -0.8108 0.6969 -0.0977
C13 C -0.6539(10) 0.5409(4) 0.6316(7)
H7 H -0.6655 0.5156 0.7033
C14 C -0.2327(10) 0.6308(3) 0.0906(7)
H8 H -0.2657 0.6270 0.1780
H9 H -0.1157 0.6526 0.1057
C15 C -0.3165(11) 0.7108(3) -0.0833(8)
H10 H -0.1898 0.7160 -0.0768
C16 C -0.4400(13) 0.7450(3) -0.1741(8)
H11 H -0.3985 0.7719 -0.2323
C17 C -0.9675(12) 0.3556(4) 0.3864(8)
H12 H -1.0155 0.3175 0.3569
C18 C -0.9248(11) 0.3698(4) 0.5217(8)
H13 H -0.9497 0.3426 0.5860
C19 C -0.6243(12) 0.7397(4) -0.1788(8)
H14 H -0.7095 0.7635 -0.2391
O4 O -0.2707(8) 0.5585(2) -0.0816(5)
Cd1_2 Cd 0.19572(6) 0.524000(19) 0.17545(4)
Cd1B Cd -0.19572(6) 0.476000(19) -0.17545(4)
O1_2 O -1.1108(7) 0.5327(2) 0.1216(6)
O4B O -0.7293(8) 0.4415(2) 0.0816(5)
loop_
_geom_bond_atom_site_label_1
_geom_bond_atom_site_label_2
_geom_bond_site_symmetry_1
_geom_bond_site_symmetry_2
Cd1 N1 1_555 1_555
O1 C10 1_555 1_555
C1 N2 1_555 1_555
N1 C4 1_555 1_555
N2 Cd1 1_555 1_555
C2 H1 1_555 1_555
O2 Cd1 1_555 1_555
C3 H2 1_555 1_555
O3 Cd1 1_555 1_555
C4 C1 1_555 1_555
C5 O2 1_555 1_555
C6 N1 1_555 1_555
H3 C6 1_555 1_555
C7 C5 1_555 1_555
C8 C2 1_555 1_555
H4 C8 1_555 1_555
C9 C7 1_555 1_555
C10 C14 1_555 1_555
C11 N2 1_555 1_555
H5 C11 1_555 1_555
C12 C7 1_555 1_555
H6 C12 1_555 1_555
C13 C1 1_555 1_555
H7 C13 1_555 1_555
C14 C9 1_555 1_555
H8 C14 1_555 1_555
H9 C14 1_555 1_555
C15 C9 1_555 1_555
H10 C15 1_555 1_555
C16 C15 1_555 1_555
H11 C16 1_555 1_555
C17 C6 1_555 1_555
H12 C17 1_555 1_555
C18 C3 1_555 1_555
H13 C18 1_555 1_555
C19 C12 1_555 1_555
H14 C19 1_555 1_555
O4 C10 1_555 1_555
Cd1_2 O1 1_555 1_555
Cd1B O4 1_555 1_555
O1_2 Cd1 1_555 1_555
O4B Cd1 1_555 1_555
C2 C11 1_555 1_555
C3 C4 1_555 1_555
O3 C5 1_555 1_555
C8 C13 1_555 1_555
C16 C19 1_555 1_555
C17 C18 1_555 1_555

#END
