
#######################################################################
#
#                 Cambridge Crystallographic Data Centre
#                                CCDC 
#
#######################################################################
#
# If this CIF has been generated from an entry in the Cambridge 
# Structural Database, then it will include bibliographic, chemical, 
# crystal, experimental, refinement or atomic coordinate data resulting 
# from the CCDC's data processing and validation procedures.
#
#######################################################################

data_CEHCUO
_symmetry_cell_setting           triclinic
_symmetry_space_group_name_H-M   'P -1'
_symmetry_Int_Tables_number      2
_space_group_name_Hall           '-P 1'
loop_
_symmetry_equiv_pos_site_id
_symmetry_equiv_pos_as_xyz
1 x,y,z
2 -x,-y,-z
_cell_length_a                   8.7507(18)
_cell_length_b                   10.051(2)
_cell_length_c                   11.637(3)
_cell_angle_alpha                102.865(10)
_cell_angle_beta                 108.062(9)
_cell_angle_gamma                91.519(8)
_cell_volume                     943.595
loop_
_atom_site_label
_atom_site_type_symbol
_atom_site_fract_x
_atom_site_fract_y
_atom_site_fract_z
Cd1 Cd -0.18873(2) -0.13375(2) 0.120390(19)
O1 O -0.9158(3) -0.0667(3) 0.1451(2)
O2 O -0.9487(3) -0.1714(3) 0.2798(2)
O3 O -0.2262(3) 0.0178(3) 0.2875(2)
O4 O -0.4553(3) -0.0761(2) 0.1462(2)
O5 O -0.2521(4) 0.0268(3) 0.0061(3)
N1 N -0.1804(4) -0.2969(3) -0.0567(3)
N2 N -0.2734(3) -0.3551(3) 0.1262(3)
C1 C -0.6778(4) -0.1020(3) 0.2983(3)
H1 H -0.6293 -0.1514 0.2369
H2 H -0.6528 -0.1471 0.3686
C2 C -0.8583(4) -0.1137(3) 0.2381(3)
C3 C -0.3771(4) 0.0054(3) 0.2481(3)
C4 C -0.6018(4) 0.0451(3) 0.3464(3)
C5 C -0.4637(4) 0.0917(3) 0.3256(3)
C6 C -0.3966(4) 0.2268(3) 0.3816(3)
H3 H -0.2997 0.2577 0.3707
C7 C -0.6050(4) 0.2708(4) 0.4705(3)
H4 H -0.6555 0.3324 0.5184
C8 C -0.2638(4) -0.4614(3) 0.0379(3)
C9 C -0.6705(4) 0.1363(4) 0.4196(3)
H5 H -0.7642 0.1055 0.4350
C10 C -0.4673(4) 0.3160(3) 0.4523(3)
H6 H -0.4213 0.4084 0.4883
C11 C -0.2052(4) -0.4298(3) -0.0598(3)
C12 C -0.3257(5) -0.3781(4) 0.2156(4)
H7 H -0.3321 -0.3019 0.2784
C13 C -0.1280(5) -0.2640(4) -0.1436(4)
H8 H -0.1121 -0.1696 -0.1420
C14 C -0.3089(5) -0.5939(4) 0.0383(4)
H9 H -0.3030 -0.6689 -0.0257
C15 C -0.1738(5) -0.5297(4) -0.1491(4)
H10 H -0.1893 -0.6237 -0.1492
C16 C -0.1199(5) -0.4937(4) -0.2385(4)
H11 H -0.0999 -0.5622 -0.3014
C17 C -0.3712(5) -0.5071(4) 0.2216(4)
H12 H -0.4083 -0.5203 0.2872
C18 C -0.0957(5) -0.3588(4) -0.2353(4)
H13 H -0.0575 -0.3309 -0.2951
C19 C -0.3620(6) -0.6158(4) 0.1315(4)
H14 H -0.3924 -0.7065 0.1335
H15 H -0.205(6) 0.039(5) -0.039(5)
H16 H -0.337(7) 0.025(6) -0.046(6)
Cd1_2 Cd -1.18873(2) -0.13375(2) 0.120390(19)
O1_2 O 0.0842(3) -0.0667(3) 0.1451(2)
O2_2 O 0.0513(3) -0.1714(3) 0.2798(2)
O6 O -1.0020(4) -0.2165(4) 0.4982(4)
H17 H -0.988(6) -0.214(6) 0.436(5)
H18 H -0.931(7) -0.159(6) 0.556(6)
O7? O -0.9105(10) -0.4956(11) 0.5230(10)
loop_
_geom_bond_atom_site_label_1
_geom_bond_atom_site_label_2
_geom_bond_site_symmetry_1
_geom_bond_site_symmetry_2
Cd1 O3 1_555 1_555
O1 C2 1_555 1_555
O2 C2 1_555 1_555
O3 C3 1_555 1_555
O4 Cd1 1_555 1_555
O5 Cd1 1_555 1_555
N1 Cd1 1_555 1_555
N2 Cd1 1_555 1_555
C1 H1 1_555 1_555
H2 C1 1_555 1_555
C2 C1 1_555 1_555
C3 O4 1_555 1_555
C4 C1 1_555 1_555
C5 C3 1_555 1_555
C6 C5 1_555 1_555
H3 C6 1_555 1_555
C7 H4 1_555 1_555
C8 N2 1_555 1_555
C9 C4 1_555 1_555
H5 C9 1_555 1_555
C10 C6 1_555 1_555
H6 C10 1_555 1_555
C11 N1 1_555 1_555
C12 N2 1_555 1_555
H7 C12 1_555 1_555
C13 N1 1_555 1_555
H8 C13 1_555 1_555
C14 C8 1_555 1_555
H9 C14 1_555 1_555
C15 C11 1_555 1_555
H10 C15 1_555 1_555
C16 C15 1_555 1_555
H11 C16 1_555 1_555
C17 C12 1_555 1_555
H12 C17 1_555 1_555
C18 C13 1_555 1_555
H13 C18 1_555 1_555
C19 C14 1_555 1_555
H14 C19 1_555 1_555
H15 O5 1_555 1_555
H16 O5 1_555 1_555
O6 H17 1_555 1_555
H18 O6 1_555 1_555
Cd1_2 O1 1_555 1_555
O1_2 Cd1 1_555 1_555
O2_2 Cd1 1_555 1_555
O2 Cd1_2 1_555 1_555
C4 C5 1_555 1_555
C7 C9 1_555 1_555
C7 C10 1_555 1_555
C8 C11 1_555 1_555
C16 C18 1_555 1_555
C17 C19 1_555 1_555

#END
