
#######################################################################
#
#                 Cambridge Crystallographic Data Centre
#                                CCDC 
#
#######################################################################
#
# If this CIF has been generated from an entry in the Cambridge 
# Structural Database, then it will include bibliographic, chemical, 
# crystal, experimental, refinement or atomic coordinate data resulting 
# from the CCDC's data processing and validation procedures.
#
#######################################################################

data_CEHDAV
_symmetry_cell_setting           monoclinic
_symmetry_space_group_name_H-M   'P 21/n'
_symmetry_Int_Tables_number      14
_space_group_name_Hall           '-P 2yn'
loop_
_symmetry_equiv_pos_site_id
_symmetry_equiv_pos_as_xyz
1 x,y,z
2 1/2-x,1/2+y,1/2-z
3 -x,-y,-z
4 1/2+x,1/2-y,1/2+z
_cell_length_a                   8.7140(9)
_cell_length_b                   9.2743(9)
_cell_length_c                   22.003(2)
_cell_angle_alpha                90
_cell_angle_beta                 92.443(6)
_cell_angle_gamma                90
_cell_volume                     1776.58
loop_
_atom_site_label
_atom_site_type_symbol
_atom_site_fract_x
_atom_site_fract_y
_atom_site_fract_z
Cd1 Cd 0.43827(2) 0.22079(2) 0.018214(8)
N1 N 0.5365(3) 0.2142(3) 0.11814(11)
C1 C 0.6453(3) 0.2273(3) 0.23967(12)
C2 C 0.7600(4) 0.2307(3) -0.10988(14)
C3 C 0.7014(3) 0.2388(3) 0.30393(12)
C4 C 0.7372(4) 0.2684(4) 0.19219(14)
H1 H 0.8386 0.3027 0.2005
C5 C 0.6789(4) 0.2585(4) 0.13273(14)
H2 H 0.7435 0.2846 0.1008
C6 C 0.4992(3) 0.1760(3) 0.22402(12)
H3 H 0.4344 0.1423 0.2546
C7 C 0.6835(5) 0.2110(4) -0.21671(16)
H4 H 0.6820 0.1573 -0.2535
C8 C 0.6818(3) 0.3613(3) -0.10732(13)
C9 C 0.4486(3) 0.1742(3) 0.16375(13)
H5 H 0.3465 0.1432 0.1541
C10 C 0.7608(4) 0.1584(4) -0.16563(15)
H6 H 0.8164 0.0707 -0.1683
C11 C 0.6084(4) 0.3411(4) -0.21468(15)
H7 H 0.5566 0.3785 -0.2501
C12 C 0.6090(4) 0.4177(4) -0.16024(14)
H8 H 0.5596 0.5089 -0.1589
O1 O 0.6305(3) 0.3862(2) -0.00202(9)
N2 N 0.8212(3) 0.2577(3) 0.42343(11)
O2 O 0.6384(3) 0.0493(3) -0.00474(17)
C13 C 0.6623(3) 0.1388(3) 0.34771(13)
H9 H 0.5925 0.0630 0.3375
C14 C 0.7985(4) 0.3499(3) 0.32241(13)
H10 H 0.8263 0.4219 0.2942
C15 C 0.7257(4) 0.1507(3) 0.40631(12)
H11 H 0.7004 0.0801 0.4355
C16 C 0.8435(3) 0.1623(3) -0.05519(15)
H12 H 0.9478 0.1322 -0.0661
H13 H 0.8536 0.2330 -0.0215
C17 C 0.8550(4) 0.3562(3) 0.38211(13)
H14 H 0.9206 0.4339 0.3941
C18 C 0.6685(3) 0.4484(3) -0.04959(13)
C19 C 0.7529(4) 0.0324(4) -0.03523(15)
O3 O 0.7867(4) -0.0888(3) -0.05296(12)
O4 O 0.6988(3) 0.5807(2) -0.05384(10)
Cd1C Cd 0.93827(2) 0.27921(2) 0.518214(8)
Cd1B Cd 0.56173(2) -0.22079(2) -0.018214(8)
Cd1B_2 Cd 0.56173(2) 0.77921(2) -0.018214(8)
N2C N 0.3212(3) 0.2423(3) -0.07657(11)
O2B O 0.3616(3) -0.0493(3) 0.00474(17)
O3B O 0.2133(4) 0.0888(3) 0.05296(12)
O4B O 0.3012(3) 0.4193(2) 0.05384(10)
O5 O 1.0595(4) 0.3126(5) 0.12324(19)
H15 H 1.0720 0.3939 0.1480
H16 H 1.0193 0.3307 0.0889
loop_
_geom_bond_atom_site_label_1
_geom_bond_atom_site_label_2
_geom_bond_site_symmetry_1
_geom_bond_site_symmetry_2
Cd1 N1 1_555 1_555
N1 C5 1_555 1_555
C1 C3 1_555 1_555
C2 C8 1_555 1_555
C3 C13 1_555 1_555
C4 C1 1_555 1_555
H1 C4 1_555 1_555
C5 C4 1_555 1_555
H2 C5 1_555 1_555
C6 C1 1_555 1_555
H3 C6 1_555 1_555
C7 H4 1_555 1_555
C8 C12 1_555 1_555
C9 N1 1_555 1_555
H5 C9 1_555 1_555
C10 C2 1_555 1_555
H6 C10 1_555 1_555
C11 C7 1_555 1_555
H7 C11 1_555 1_555
C12 C11 1_555 1_555
H8 C12 1_555 1_555
O1 Cd1 1_555 1_555
N2 C15 1_555 1_555
O2 Cd1 1_555 1_555
C13 H9 1_555 1_555
C14 C3 1_555 1_555
H10 C14 1_555 1_555
C15 C13 1_555 1_555
H11 C15 1_555 1_555
C16 C2 1_555 1_555
H12 C16 1_555 1_555
H13 C16 1_555 1_555
C17 N2 1_555 1_555
H14 C17 1_555 1_555
C18 C8 1_555 1_555
C19 O2 1_555 1_555
O3 C19 1_555 1_555
O4 C18 1_555 1_555
O5 H15 1_555 1_555
H16 O5 1_555 1_555
Cd1C N2 1_555 1_555
Cd1B O2 1_555 1_555
Cd1B_2 O4 1_555 1_555
N2C Cd1 1_555 1_555
O2B Cd1 1_555 1_555
O3B Cd1 1_555 1_555
O4B Cd1 1_555 1_555
C6 C9 1_555 1_555
C7 C10 1_555 1_555
O1 C18 1_555 1_555
C14 C17 1_555 1_555
C16 C19 1_555 1_555
O3 Cd1B 1_555 1_555
Cd1B O2B 1_555 1_555

#END
