
#######################################################################
#
#                 Cambridge Crystallographic Data Centre
#                                CCDC 
#
#######################################################################
#
# If this CIF has been generated from an entry in the Cambridge 
# Structural Database, then it will include bibliographic, chemical, 
# crystal, experimental, refinement or atomic coordinate data resulting 
# from the CCDC's data processing and validation procedures.
#
#######################################################################

data_CEHPAH
_symmetry_cell_setting           triclinic
_symmetry_space_group_name_H-M   'P -1'
_symmetry_Int_Tables_number      2
_space_group_name_Hall           '-P 1'
loop_
_symmetry_equiv_pos_site_id
_symmetry_equiv_pos_as_xyz
1 x,y,z
2 -x,-y,-z
_cell_length_a                   9.1282(13)
_cell_length_b                   9.4522(13)
_cell_length_c                   11.8590(17)
_cell_angle_alpha                69.745(2)
_cell_angle_beta                 73.071(2)
_cell_angle_gamma                89.067(2)
_cell_volume                     914.259
loop_
_atom_site_label
_atom_site_type_symbol
_atom_site_fract_x
_atom_site_fract_y
_atom_site_fract_z
Co1 Co 0.0000 1.0000 1.0000
N1 N 0.04669(14) 0.80167(14) 0.93959(12)
N2 N 0.04993(14) 0.89344(15) 0.17905(11)
O1 O 0.23150(12) 1.08414(14) 0.91123(10)
C1 C 0.18884(18) 0.76653(18) 0.89443(15)
H1 H 0.2694 0.8108 0.9078
C2 C 0.22314(18) 0.66811(19) 0.82897(15)
H2 H 0.3245 0.6482 0.7994
C3 C 0.10655(19) 0.59933(16) 0.80755(13)
C4 C -0.0413(2) 0.6309(2) 0.85816(17)
H3 H -0.1242 0.5847 0.8492
C5 C -0.06634(19) 0.7305(2) 0.92180(17)
H4 H -0.1671 0.7497 0.9544
C6 C 0.1390(2) 0.49775(18) 0.73094(15)
H5 H 0.0845 0.3986 0.7823
H6 H 0.2482 0.4856 0.7078
C7 C 0.0902(2) 0.56077(18) 0.61067(14)
H7 H 0.1131 0.4914 0.5651
H8 H -0.0200 0.5675 0.6339
C8 C 0.1722(2) 0.7168(2) 0.52472(15)
H9 H 0.1464 0.7868 0.5695
H10 H 0.2825 0.7107 0.5042
C9 C 0.12952(18) 0.77740(18) 0.40433(14)
C10 C 0.2184(2) 0.7612(2) 0.29387(16)
H11 H 0.3070 0.7110 0.2927
C11 C 0.17553(19) 0.8197(2) 0.18509(15)
H12 H 0.2374 0.8071 0.1122
C12 C -0.03814(19) 0.9057(2) 0.28706(15)
H13 H -0.1276 0.9541 0.2864
C13 C -0.0029(2) 0.8501(2) 0.39916(15)
H14 H -0.0682 0.8615 0.4714
H15 H 0.291(3) 1.081(3) 0.845(2)
H16 H 0.284(3) 1.099(3) 0.953(2)
Co1_2 Co 0.0000 1.0000 0.0000
Co1_3 Co 0.0000 1.0000 2.0000
N1A N -0.04669(14) 1.19833(14) 1.06041(12)
N2A N -0.04993(14) 1.10656(15) 1.82095(11)
N2_2 N 0.04993(14) 0.89344(15) 1.17905(11)
N2A_2 N -0.04993(14) 1.10656(15) 0.82095(11)
O1A O -0.23150(12) 0.91586(14) 1.08877(10)
C1A C -0.18884(18) 1.23347(18) 1.10557(15)
H1A H -0.2694 1.1892 1.0922
C2A C -0.22314(18) 1.33189(19) 1.17103(15)
H2A H -0.3245 1.3518 1.2006
C3A C -0.10655(19) 1.40067(16) 1.19245(13)
C4A C 0.0413(2) 1.3691(2) 1.14184(17)
H3A H 0.1242 1.4153 1.1508
C5A C 0.06634(19) 1.2695(2) 1.07820(17)
H4A H 0.1671 1.2503 1.0456
C6A C -0.1390(2) 1.50225(18) 1.26906(15)
H5A H -0.0845 1.6014 1.2177
H6A H -0.2482 1.5144 1.2922
C7A C -0.0902(2) 1.43923(18) 1.38933(14)
H7A H -0.1131 1.5086 1.4349
H8A H 0.0200 1.4325 1.3661
C8A C -0.1722(2) 1.2832(2) 1.47528(15)
H9A H -0.1464 1.2132 1.4305
H10A H -0.2825 1.2893 1.4958
C9A C -0.12952(18) 1.22260(18) 1.59567(14)
C10A C -0.2184(2) 1.2388(2) 1.70613(16)
H11A H -0.3070 1.2890 1.7073
C11A C -0.17553(19) 1.1803(2) 1.81491(15)
H12A H -0.2374 1.1929 1.8878
C12A C 0.03814(19) 1.0943(2) 1.71294(15)
H13A H 0.1276 1.0459 1.7136
C13A C 0.0029(2) 1.1499(2) 1.60084(15)
H14A H 0.0682 1.1385 1.5286
H15A H -0.291(3) 0.919(3) 1.155(2)
H16A H -0.284(3) 0.901(3) 1.047(2)
C14 C 0.51056(19) 0.99164(19) 0.66408(14)
C15 C 0.54392(19) 0.9773(2) 0.53652(14)
H17 H 0.6324 0.9335 0.5080
O2 O 0.42175(15) 1.08708(15) 0.68861(11)
O3 O 0.57429(18) 0.90364(17) 0.73731(12)
C14A C 0.48944(19) 1.00836(19) 0.33592(14)
C15A C 0.45608(19) 1.0227(2) 0.46348(14)
H17A H 0.3676 1.0665 0.4920
O2A O 0.57825(15) 0.91292(15) 0.31139(11)
O3A O 0.42571(18) 1.09636(17) 0.26269(12)
O4 O 0.3245(2) 0.3590(2) 0.30416(19)
H18 H 0.343(3) 0.275(2) 0.300(3)
H19 H 0.364(3) 0.371(3) 0.355(2)
O5 O 0.4095(3) 0.3722(2) 0.5089(2)
H20 H 0.413(3) 0.288(2) 0.562(2)
H21 H 0.441(3) 0.447(3) 0.509(3)
O6 O 0.56257(16) 0.87914(17) 0.97075(13)
H22 H 0.567(3) 0.899(3) 0.8946(18)
H23 H 0.533(3) 0.787(2) 1.010(3)
O7 O 0.4418(5) 0.5804(3) 0.0747(3)
H24 H 0.531(3) 0.592(4) 0.106(3)
H25 H 0.397(3) 0.513(3) 0.1476(19)
loop_
_geom_bond_atom_site_label_1
_geom_bond_atom_site_label_2
_geom_bond_site_symmetry_1
_geom_bond_site_symmetry_2
Co1 N1 1_555 1_555
N1 C1 1_555 1_555
N2 C11 1_555 1_555
O1 Co1 1_555 1_555
C1 H1 1_555 1_555
C2 C1 1_555 1_555
H2 C2 1_555 1_555
C3 C2 1_555 1_555
C4 C3 1_555 1_555
H3 C4 1_555 1_555
C5 N1 1_555 1_555
H4 C5 1_555 1_555
C6 C3 1_555 1_555
H5 C6 1_555 1_555
H6 C6 1_555 1_555
C7 C6 1_555 1_555
H7 C7 1_555 1_555
H8 C7 1_555 1_555
C8 C7 1_555 1_555
H9 C8 1_555 1_555
H10 C8 1_555 1_555
C9 C8 1_555 1_555
C10 C9 1_555 1_555
H11 C10 1_555 1_555
C11 C10 1_555 1_555
H12 C11 1_555 1_555
C12 N2 1_555 1_555
H13 C12 1_555 1_555
C13 C9 1_555 1_555
H14 C13 1_555 1_555
H15 O1 1_555 1_555
H16 O1 1_555 1_555
C14 C15 1_555 1_555
C15 H17 1_555 1_555
O2 C14 1_555 1_555
O3 C14 1_555 1_555
O4 H18 1_555 1_555
H19 O4 1_555 1_555
O5 H20 1_555 1_555
H21 O5 1_555 1_555
O6 H22 1_555 1_555
H23 O6 1_555 1_555
O7 H24 1_555 1_555
H25 O7 1_555 1_555
Co1_2 N2 1_555 1_555
Co1_3 N2A 1_555 1_555
N1A Co1 1_555 1_555
N2A C11A 1_555 1_555
N2_2 Co1 1_555 1_555
N2A_2 Co1 1_555 1_555
O1A Co1 1_555 1_555
C1A N1A 1_555 1_555
H1A C1A 1_555 1_555
C2A C1A 1_555 1_555
H2A C2A 1_555 1_555
C3A C2A 1_555 1_555
C4A C3A 1_555 1_555
H3A C4A 1_555 1_555
C5A N1A 1_555 1_555
H4A C5A 1_555 1_555
C6A C3A 1_555 1_555
H5A C6A 1_555 1_555
H6A C6A 1_555 1_555
C7A C6A 1_555 1_555
H7A C7A 1_555 1_555
H8A C7A 1_555 1_555
C8A C7A 1_555 1_555
H9A C8A 1_555 1_555
H10A C8A 1_555 1_555
C9A C8A 1_555 1_555
C10A C9A 1_555 1_555
H11A C10A 1_555 1_555
C11A C10A 1_555 1_555
H12A C11A 1_555 1_555
C12A N2A 1_555 1_555
H13A C12A 1_555 1_555
C13A C9A 1_555 1_555
H14A C13A 1_555 1_555
H15A O1A 1_555 1_555
H16A O1A 1_555 1_555
C14A C15A 1_555 1_555
C15A C15 1_555 1_555
H17A C15A 1_555 1_555
O2A C14A 1_555 1_555
O3A C14A 1_555 1_555
C4 C5 1_555 1_555
C12 C13 1_555 1_555
C4A C5A 1_555 1_555
C12A C13A 1_555 1_555

#END
