
#######################################################################
#
#                 Cambridge Crystallographic Data Centre
#                                CCDC 
#
#######################################################################
#
# If this CIF has been generated from an entry in the Cambridge 
# Structural Database, then it will include bibliographic, chemical, 
# crystal, experimental, refinement or atomic coordinate data resulting 
# from the CCDC's data processing and validation procedures.
#
#######################################################################

data_CEHPOV
_symmetry_cell_setting           monoclinic
_symmetry_space_group_name_H-M   'P 21/c'
_symmetry_Int_Tables_number      14
_space_group_name_Hall           '-P 2ybc'
loop_
_symmetry_equiv_pos_site_id
_symmetry_equiv_pos_as_xyz
1 x,y,z
2 -x,1/2+y,1/2-z
3 -x,-y,-z
4 x,1/2-y,1/2+z
_cell_length_a                   6.7560(17)
_cell_length_b                   18.725(5)
_cell_length_c                   6.5954(17)
_cell_angle_alpha                90
_cell_angle_beta                 109.716(5)
_cell_angle_gamma                90
_cell_volume                     785.445
loop_
_atom_site_label
_atom_site_type_symbol
_atom_site_fract_x
_atom_site_fract_y
_atom_site_fract_z
Cu1 Cu 0.98550(5) 0.373002(16) 0.15978(5)
N1 N 0.6907(3) 0.37328(11) 0.1663(3)
N2 N 0.2821(3) 0.37426(11) 0.1581(3)
O1 O 0.6667(3) 0.55418(10) 0.3051(3)
O2 O 0.9266(3) 0.49080(10) 0.2483(3)
O3 O 0.8702(3) 0.25540(10) 0.0815(3)
O4 O 0.5991(3) 0.18888(9) 0.0973(3)
C1 C 0.7461(4) 0.49862(13) 0.2614(4)
C2 C 0.6079(4) 0.43275(13) 0.2134(4)
C3 C 0.4016(4) 0.43273(14) 0.2130(4)
H1 H 0.3451 0.4749 0.2523
C4 C 0.3680(4) 0.31454(14) 0.1137(4)
H2 H 0.2858 0.2723 0.0766
C5 C 0.5766(4) 0.31351(13) 0.1212(4)
C6 C 0.6906(4) 0.24621(14) 0.0961(4)
O5 O 0.8780(3) 0.40079(11) -0.1466(3)
H3 H 0.8097 0.3720 -0.2304
H4 H 0.9495 0.4319 -0.2051
O6 O 1.0980(3) 0.34259(10) 0.4641(3)
H5 H 1.1638 0.3699 0.5570
H6 H 1.0237 0.3169 0.5320
Cu1_2 Cu -0.01450(5) 0.373002(16) 0.15978(5)
N2_2 N 1.2821(3) 0.37426(11) 0.1581(3)
loop_
_geom_bond_atom_site_label_1
_geom_bond_atom_site_label_2
_geom_bond_site_symmetry_1
_geom_bond_site_symmetry_2
Cu1 N1 1_555 1_555
N1 C2 1_555 1_555
N2 C3 1_555 1_555
O1 C1 1_555 1_555
O2 Cu1 1_555 1_555
O3 Cu1 1_555 1_555
O4 C6 1_555 1_555
C1 O2 1_555 1_555
C2 C1 1_555 1_555
C3 C2 1_555 1_555
H1 C3 1_555 1_555
C4 N2 1_555 1_555
H2 C4 1_555 1_555
C5 N1 1_555 1_555
C6 O3 1_555 1_555
O5 Cu1 1_555 1_555
H3 O5 1_555 1_555
H4 O5 1_555 1_555
O6 Cu1 1_555 1_555
H5 O6 1_555 1_555
H6 O6 1_555 1_555
Cu1_2 N2 1_555 1_555
N2_2 Cu1 1_555 1_555
C4 C5 1_555 1_555
C5 C6 1_555 1_555

#END
