
#######################################################################
#
#                 Cambridge Crystallographic Data Centre
#                                CCDC 
#
#######################################################################
#
# If this CIF has been generated from an entry in the Cambridge 
# Structural Database, then it will include bibliographic, chemical, 
# crystal, experimental, refinement or atomic coordinate data resulting 
# from the CCDC's data processing and validation procedures.
#
#######################################################################

data_CEHQOX
_symmetry_cell_setting           monoclinic
_symmetry_space_group_name_H-M   'P 21'
_symmetry_Int_Tables_number      4
_space_group_name_Hall           'P 2yb'
loop_
_symmetry_equiv_pos_site_id
_symmetry_equiv_pos_as_xyz
1 x,y,z
2 -x,1/2+y,-z
_cell_length_a                   9.6479(9)
_cell_length_b                   4.2349(4)
_cell_length_c                   11.9615(11)
_cell_angle_alpha                90
_cell_angle_beta                 109.5870(10)
_cell_angle_gamma                90
_cell_volume                     460.441
loop_
_atom_site_label
_atom_site_type_symbol
_atom_site_fract_x
_atom_site_fract_y
_atom_site_fract_z
Bi1 Bi 0.34993(5) 0.21063(12) 0.13292(4)
Bi2 Bi 1.04053(4) 0.66858(14) 0.12760(3)
C1 C 0.6850(12) 0.672(3) 0.2575(9)
C2 C 0.8055(15) 0.841(3) 0.3260(11)
H1 H 0.8683 0.9451 0.2913
C3 C 0.8330(16) 0.852(3) 0.4493(12)
H2 H 0.9151 0.9655 0.5000
C4 C 0.7379(12) 0.696(3) 0.4954(9)
C5 C 0.6154(15) 0.540(3) 0.4189(11)
H3 H 0.5473 0.4461 0.4507
C6 C 0.6604(15) 0.629(3) 0.1274(10)
C7 C 0.7779(17) 0.689(4) 0.6314(10)
N1 N 0.5903(12) 0.519(3) 0.3007(9)
O1 O 0.5486(11) 0.450(2) 0.0698(8)
O2 O 0.7401(10) 0.757(2) 0.0812(7)
O3 O 0.6665(8) 0.639(2) 0.6654(7)
O4 O 0.9005(10) 0.738(3) 0.6917(8)
O5 O 0.2543(9) -0.340(2) 0.1281(7)
O6 O 0.0732(9) 0.167(2) 0.0632(7)
Bi1A Bi 0.65007(5) 0.71063(12) -0.13292(4)
Bi1A_2 Bi 0.65007(5) 0.71063(12) 0.86708(4)
Bi1_2 Bi 0.34993(5) -0.78937(12) 0.13292(4)
Bi2A Bi 0.95947(4) 1.16858(14) 0.87240(3)
Bi2_2 Bi 0.04053(4) -0.33142(14) 0.12760(3)
Bi2_3 Bi 0.04053(4) 0.66858(14) 0.12760(3)
Bi2A_2 Bi -0.04053(4) 0.16858(14) -0.12760(3)
O2A O 0.2599(10) 0.257(2) -0.0812(7)
O3A O 0.3335(8) 0.139(2) 0.3346(7)
O4A O 1.0995(10) 0.238(3) 0.3083(8)
O5_2 O 0.2543(9) 0.660(2) 0.1281(7)
O5_3 O 1.2543(9) 0.660(2) 0.1281(7)
O6_2 O 1.0732(9) 0.167(2) 0.0632(7)
O6_3 O 1.0732(9) 1.167(2) 0.0632(7)
O6A O 0.9268(9) 0.667(2) -0.0632(7)
loop_
_geom_bond_atom_site_label_1
_geom_bond_atom_site_label_2
_geom_bond_site_symmetry_1
_geom_bond_site_symmetry_2
Bi1 N1 1_555 1_555
Bi2 O2 1_555 1_555
C1 C2 1_555 1_555
C2 H1 1_555 1_555
C3 C2 1_555 1_555
H2 C3 1_555 1_555
C4 C3 1_555 1_555
C5 C4 1_555 1_555
H3 C5 1_555 1_555
C6 C1 1_555 1_555
C7 C4 1_555 1_555
N1 C1 1_555 1_555
O1 Bi1 1_555 1_555
O2 C6 1_555 1_555
O3 C7 1_555 1_555
O4 C7 1_555 1_555
O5 Bi1 1_555 1_555
O6 Bi1 1_555 1_555
Bi1A O2 1_555 1_555
Bi1A_2 O3 1_555 1_555
Bi1_2 O5 1_555 1_555
Bi2A O4 1_555 1_555
Bi2_2 O5 1_555 1_555
Bi2_3 O6 1_555 1_555
Bi2A_2 O6 1_555 1_555
O2A Bi1 1_555 1_555
O3A Bi1 1_555 1_555
O4A Bi2 1_555 1_555
O5_2 Bi1 1_555 1_555
O5_3 Bi2 1_555 1_555
O6_2 Bi2 1_555 1_555
O6_3 Bi2 1_555 1_555
O6A Bi2 1_555 1_555
C5 N1 1_555 1_555
C6 O1 1_555 1_555
O6 Bi2_2 1_555 1_555
Bi1A O6A 1_555 1_555
Bi2_3 O5_2 1_555 1_555
Bi2A_2 O2A 1_555 1_555

#END
