
#######################################################################
#
#                 Cambridge Crystallographic Data Centre
#                                CCDC 
#
#######################################################################
#
# If this CIF has been generated from an entry in the Cambridge 
# Structural Database, then it will include bibliographic, chemical, 
# crystal, experimental, refinement or atomic coordinate data resulting 
# from the CCDC's data processing and validation procedures.
#
#######################################################################

data_CEHQUD
_symmetry_cell_setting           monoclinic
_symmetry_space_group_name_H-M   'P 21'
_symmetry_Int_Tables_number      4
_space_group_name_Hall           'P 2yb'
loop_
_symmetry_equiv_pos_site_id
_symmetry_equiv_pos_as_xyz
1 x,y,z
2 -x,1/2+y,-z
_cell_length_a                   19.0855(7)
_cell_length_b                   13.7706(5)
_cell_length_c                   19.2429(7)
_cell_angle_alpha                90
_cell_angle_beta                 90.7010(10)
_cell_angle_gamma                90
_cell_volume                     5057.02
loop_
_atom_site_label
_atom_site_type_symbol
_atom_site_fract_x
_atom_site_fract_y
_atom_site_fract_z
Bi1 Bi 0.31850(2) 0.29782(4) 0.57704(2)
Bi4 Bi 0.31757(2) 0.78740(3) 0.92685(2)
C1 C 0.3809(7) 0.0163(10) 0.4852(9)
C2 C 0.4624(7) 0.0131(12) 0.4649(7)
C3 C 0.4744(6) -0.0976(11) 0.4694(7)
H1 H 0.4508 -0.1268 0.4277
C4 C 0.4335(8) -0.1308(13) 0.5324(9)
H2 H 0.4632 -0.1284 0.5749
H3 H 0.4162 -0.1980 0.5259
C5 C 0.3713(9) -0.0585(12) 0.5377(9)
H4 H 0.3264 -0.0928 0.5297
H5 H 0.3705 -0.0288 0.5846
C6 C 0.3337(8) -0.0061(14) 0.4233(10)
H6 H 0.3349 -0.0759 0.4137
H7 H 0.3501 0.0297 0.3826
H8 H 0.2856 0.0136 0.4337
C7 C 0.4800(9) 0.0547(13) 0.3943(10)
H9 H 0.5308 0.0635 0.3911
H10 H 0.4566 0.1176 0.3884
H11 H 0.4639 0.0100 0.3579
C8 C 0.5047(7) 0.0695(11) 0.5193(8)
H12 H 0.4951 0.0434 0.5656
H13 H 0.4914 0.1382 0.5176
H14 H 0.5548 0.0632 0.5097
C9 C 0.3628(6) 0.1201(10) 0.5109(8)
C10 C 0.5480(6) -0.1295(10) 0.4681(7)
O1 O 0.3577(5) 0.1868(7) 0.4677(5)
O2 O 0.3519(5) 0.1355(7) 0.5752(5)
O3 O 0.5671(4) -0.1805(6) 0.4112(5)
O4 O 0.5926(4) -0.1123(8) 0.5135(5)
C11 C 0.2615(7) 0.6074(11) 0.6229(6)
C12 C 0.2486(8) 0.6172(13) 0.7039(8)
C13 C 0.2662(7) 0.7265(10) 0.7132(7)
H15 H 0.2243 0.7629 0.6953
C14 C 0.3245(8) 0.7510(14) 0.6657(7)
H16 H 0.3699 0.7525 0.6911
H17 H 0.3166 0.8149 0.6433
C15 C 0.3230(9) 0.6679(13) 0.6109(9)
H18 H 0.3208 0.6956 0.5634
H19 H 0.3661 0.6282 0.6152
C16 C 0.1987(9) 0.6458(12) 0.5844(10)
H20 H 0.1924 0.7148 0.5954
H21 H 0.1569 0.6096 0.5983
H22 H 0.2056 0.6383 0.5343
C17 C 0.1764(10) 0.5862(18) 0.7290(12)
H23 H 0.1800 0.5639 0.7772
H24 H 0.1586 0.5334 0.6996
H25 H 0.1442 0.6416 0.7262
C18 C 0.3006(11) 0.5572(14) 0.7441(10)
H26 H 0.3477 0.5844 0.7383
H27 H 0.2997 0.4903 0.7267
H28 H 0.2885 0.5577 0.7934
C19 C 0.2701(7) 0.4992(9) 0.6038(6)
C20 C 0.2752(8) 0.7562(9) 0.7886(6)
O5 O 0.2190(5) 0.4498(7) 0.5842(5)
O6 O 0.3300(5) 0.4617(8) 0.6111(6)
O7 O 0.2245(5) 0.7695(8) 0.8269(5)
O8 O 0.3368(5) 0.7593(6) 0.8136(4)
C21 C 0.2675(7) 0.0962(9) 0.8780(6)
C22 C 0.2978(7) 0.1177(11) 0.8038(8)
C23 C 0.2714(6) 0.2227(9) 0.7908(7)
H29 H 0.3053 0.2659 0.8160
C24 C 0.2045(9) 0.2370(15) 0.8247(9)
H30 H 0.1659 0.2421 0.7900
H31 H 0.2052 0.2965 0.8535
C25 C 0.1950(10) 0.1419(14) 0.8724(10)
H32 H 0.1777 0.1600 0.9189
H33 H 0.1613 0.0962 0.8505
C26 C 0.3178(11) 0.1500(14) 0.9251(12)
H34 H 0.2987 0.1529 0.9721
H35 H 0.3245 0.2161 0.9074
H36 H 0.3629 0.1160 0.9264
C27 C 0.3796(9) 0.1136(16) 0.7980(11)
H37 H 0.3966 0.0513 0.8160
H38 H 0.4004 0.1667 0.8253
H39 H 0.3928 0.1204 0.7492
C28 C 0.2639(9) 0.0480(11) 0.7506(8)
H40 H 0.2174 0.0723 0.7372
H41 H 0.2593 -0.0166 0.7713
H42 H 0.2933 0.0440 0.7093
C29 C 0.2711(6) -0.0089(9) 0.8970(6)
C30 C 0.2732(6) 0.2543(9) 0.7161(7)
O9 O 0.3277(5) -0.0553(6) 0.8901(5)
O10 O 0.2187(5) -0.0493(7) 0.9220(5)
O11 O 0.3363(4) 0.2681(7) 0.6886(4)
O12 O 0.2212(5) 0.2688(7) 0.6808(5)
C101 C 0.5292(5) 0.8741(8) 0.9840(6)
C102 C 0.5440(7) 0.9854(10) 0.9683(8)
C103 C 0.6209(5) 0.9924(8) 0.9998(6)
H141 H 0.6539 0.9677 0.9639
C104 C 0.6265(9) 0.9257(14) 1.0621(9)
H142 H 0.6282 0.9632 1.1059
H143 H 0.6689 0.8844 1.0595
C105 C 0.5578(9) 0.8623(14) 1.0570(8)
H144 H 0.5686 0.7933 1.0666
H145 H 0.5231 0.8849 1.0912
C106 C 0.5747(9) 0.8084(15) 0.9397(10)
H146 H 0.6232 0.8106 0.9571
H147 H 0.5731 0.8309 0.8914
H148 H 0.5572 0.7417 0.9421
C107 C 0.5421(11) 1.0059(17) 0.8910(8)
H149 H 0.5007 1.0451 0.8796
H150 H 0.5400 0.9444 0.8654
H151 H 0.5845 1.0415 0.8781
C108 C 0.4953(11) 1.0495(16) 1.0125(11)
H152 H 0.5102 1.1175 1.0093
H153 H 0.4978 1.0284 1.0611
H154 H 0.4470 1.0434 0.9952
C109 C 0.4518(5) 0.8498(10) 0.9763(7)
C110 C 0.6410(6) 1.0973(8) 1.0155(7)
O29 O 0.4346(4) 0.8074(7) 0.9191(4)
O30 O 0.4083(5) 0.8630(7) 1.0216(4)
O31 O 0.6506(5) 1.1216(7) 1.0780(5)
O32 O 0.6455(5) 1.1561(8) 0.9672(5)
Bi1A Bi 0.68150(2) -0.20218(4) 0.42296(2)
Bi4_2 Bi 0.31757(2) -0.21260(3) 0.92685(2)
Bi4A Bi 0.68243(2) 1.28740(3) 1.07315(2)
O3A O 0.4329(4) 0.3195(6) 0.5888(5)
O4A O 0.4074(4) 0.3877(8) 0.4865(5)
O9_2 O 0.3277(5) 0.9447(6) 0.8901(5)
O31A O 0.3494(5) 0.6216(7) 0.9220(5)
Bi2 Bi 0.17073(2) 0.39906(4) 0.43366(2)
Bi3 Bi 0.16568(2) 0.88942(3) 0.06802(2)
C31 C 0.2557(6) 0.6764(7) 0.3592(5)
C32 C 0.2483(6) 0.6796(8) 0.2766(5)
C33 C 0.2471(5) 0.7936(8) 0.2656(4)
H43 H 0.2964 0.8173 0.2712
C34 C 0.2053(7) 0.8366(9) 0.3238(6)
H44 H 0.1557 0.8458 0.3095
H45 H 0.2250 0.9000 0.3386
C35 C 0.2117(7) 0.7597(8) 0.3839(6)
H46 H 0.2338 0.7898 0.4254
H47 H 0.1646 0.7361 0.3967
C36 C 0.3318(6) 0.6958(10) 0.3821(7)
H48 H 0.3459 0.7606 0.3666
H49 H 0.3625 0.6469 0.3614
H50 H 0.3354 0.6922 0.4328
C37 C 0.3046(8) 0.6272(10) 0.2383(7)
H51 H 0.3041 0.5584 0.2511
H52 H 0.3503 0.6554 0.2504
H53 H 0.2962 0.6336 0.1881
C38 C 0.1770(6) 0.6399(10) 0.2540(6)
H54 H 0.1616 0.6722 0.2111
H55 H 0.1429 0.6520 0.2907
H56 H 0.1807 0.5698 0.2458
C39 C 0.2340(7) 0.5770(8) 0.3857(7)
C40 C 0.2229(6) 0.8198(9) 0.1929(5)
O13 O 0.1717(5) 0.5662(7) 0.4063(5)
O14 O 0.2773(5) 0.5075(7) 0.3858(5)
O15 O 0.2622(4) 0.8022(7) 0.1405(4)
O16 O 0.1658(4) 0.8645(6) 0.1823(4)
C51 C -0.1275(5) 0.5925(8) 0.5046(6)
C52 C -0.0504(7) 0.5801(10) 0.4701(8)
C53 C -0.0435(5) 0.4659(7) 0.4849(6)
H71 H -0.0712 0.4320 0.4477
C54 C -0.0753(12) 0.4397(15) 0.5516(11)
H72 H -0.0394 0.4342 0.5889
H73 H -0.1014 0.3777 0.5479
C55 C -0.1258(10) 0.5265(12) 0.5649(8)
H74 H -0.1735 0.5016 0.5735
H75 H -0.1099 0.5625 0.6067
C56 C -0.1818(10) 0.5489(17) 0.4537(11)
H76 H -0.1798 0.4778 0.4562
H77 H -0.1713 0.5700 0.4063
H78 H -0.2288 0.5710 0.4662
C57 C -0.0415(12) 0.6154(17) 0.3967(9)
H79 H -0.0605 0.6813 0.3923
H80 H -0.0666 0.5720 0.3647
H81 H 0.0084 0.6159 0.3854
C58 C 0.0038(9) 0.6347(14) 0.5152(10)
H82 H 0.0509 0.6110 0.5047
H83 H -0.0059 0.6235 0.5645
H84 H 0.0010 0.7044 0.5053
C59 C -0.1445(6) 0.6980(7) 0.5170(7)
C60 C 0.0322(5) 0.4352(9) 0.4767(7)
O17 O 0.0696(4) 0.4162(6) 0.5277(4)
O18 O 0.0584(5) 0.4316(7) 0.4141(5)
O19 O -0.1738(4) 0.7451(6) 0.4681(4)
O20 O -0.1282(6) 0.7383(7) 0.5735(5)
C61 C 0.2286(6) 0.1807(8) 0.1375(6)
C62 C 0.1871(8) 0.2037(12) 0.2086(8)
C63 C 0.2280(6) 0.2991(9) 0.2299(5)
H85 H 0.2046 0.3524 0.2029
C64 C 0.3016(9) 0.2966(18) 0.2040(12)
H86 H 0.3352 0.2847 0.2427
H87 H 0.3139 0.3585 0.1810
C65 C 0.3023(8) 0.2096(16) 0.1502(12)
H88 H 0.3242 0.2303 0.1063
H89 H 0.3294 0.1542 0.1695
C66 C 0.2005(13) 0.2458(17) 0.0792(11)
H90 H 0.2202 0.3112 0.0844
H91 H 0.1493 0.2492 0.0817
H92 H 0.2140 0.2189 0.0342
C67 C 0.1097(9) 0.2112(19) 0.2064(13)
H93 H 0.0903 0.1574 0.1790
H94 H 0.0960 0.2730 0.1850
H95 H 0.0916 0.2081 0.2538
C68 C 0.2087(13) 0.1225(17) 0.2610(12)
H96 H 0.2141 0.1505 0.3076
H97 H 0.2532 0.0936 0.2468
H98 H 0.1723 0.0723 0.2616
C69 C 0.2180(7) 0.0750(8) 0.1159(7)
C70 C 0.2178(6) 0.3255(9) 0.3055(5)
O21 O 0.2659(5) 0.0192(7) 0.1117(5)
O22 O 0.1557(6) 0.0529(7) 0.1019(5)
O23 O 0.1629(4) 0.3769(7) 0.3204(4)
O24 O 0.2606(4) 0.3024(7) 0.3508(5)
C91 C 0.0479(5) 0.4513(7) -0.0125(5)
C92 C 0.0576(7) 0.5644(10) -0.0308(8)
C93 C 0.1309(5) 0.5800(7) 0.0079(5)
H127 H 0.1679 0.5539 -0.0234
C94 C 0.1332(12) 0.5206(15) 0.0723(10)
H128 H 0.1236 0.5610 0.1137
H129 H 0.1794 0.4890 0.0784
C95 C 0.0735(11) 0.4425(15) 0.0606(8)
H130 H 0.0922 0.3764 0.0690
H131 H 0.0346 0.4541 0.0931
C96 C 0.0953(11) 0.3900(18) -0.0581(11)
H132 H 0.1444 0.4069 -0.0486
H133 H 0.0842 0.4026 -0.1072
H134 H 0.0879 0.3210 -0.0480
C97 C 0.0562(12) 0.5891(18) -0.1065(9)
H135 H 0.0114 0.5684 -0.1271
H136 H 0.0947 0.5556 -0.1298
H137 H 0.0615 0.6594 -0.1122
C98 C 0.0001(11) 0.6206(16) 0.0075(13)
H138 H 0.0035 0.6898 -0.0038
H139 H 0.0061 0.6117 0.0577
H140 H -0.0460 0.5961 -0.0071
C99 C -0.0279(5) 0.4200(9) -0.0231(6)
C100 C 0.1450(6) 0.6882(7) 0.0164(6)
O25 O 0.1280(5) 0.7260(6) 0.0747(5)
O26 O 0.1742(4) 0.7359(6) -0.0295(4)
O27 O -0.0493(4) 0.4129(5) -0.0868(4)
O28 O -0.0659(4) 0.4025(7) 0.0269(4)
Bi2A Bi -0.17073(2) 0.89906(4) 0.56634(2)
Bi3_2 Bi 0.16568(2) -0.11058(3) 0.06802(2)
Bi3A Bi -0.16568(2) 0.38942(3) -0.06802(2)
O20A O 0.1282(6) 0.2383(7) 0.4265(5)
O21_2 O 0.2659(5) 1.0192(7) 0.1117(5)
O22_2 O 0.1557(6) 1.0529(7) 0.1019(5)
O27A O 0.0493(4) 0.9129(5) 0.0868(4)
O28A O 0.0659(4) 0.9025(7) -0.0269(4)
Na1 Na 0.1324(2) 0.3466(4) 0.6184(3)
Na2 Na 0.1319(3) 0.8418(4) -0.1150(3)
Na3 Na 0.3731(4) 0.7684(6) 0.1178(4)
Na4 Na 0.3724(4) 0.3083(8) 0.3861(4)
O33 O 0.0624(12) 0.363(2) 0.7113(14)
C121 C -0.0070(13) 0.334(3) 0.731(2)
C122 C -0.0021(18) 0.249(2) 0.7830(18)
O35 O 0.4622(12) 0.7529(18) 0.1996(12)
C125 C 0.4877(16) 0.801(2) 0.2617(13)
C126 C 0.5303(16) 0.895(2) 0.2534(17)
O38 O 0.3623(14) 0.920(2) 0.1301(16)
O40 O 0.0553(11) 0.8620(18) -0.2004(11)
C127 C 0.0242(16) 0.876(2) -0.2674(13)
C128 C 0.0352(17) 0.779(2) -0.3053(15)
O44 O 0.439(4) 0.483(6) 0.307(5)
Na5? Na 0.3637(14) 0.408(3) 0.3768(14)
C41? C 0.0435(5) -0.0341(7) 0.5151(6)
C42? C 0.0501(8) 0.0681(12) 0.4744(9)
C43? C 0.1275(5) 0.0925(8) 0.4954(6)
H57? H 0.1545 0.0594 0.4579
C44? C 0.1555(12) 0.045(2) 0.5586(13)
H58? H 0.1631 0.0928 0.5967
H59? H 0.1997 0.0104 0.5496
C45? C 0.0934(11) -0.0268(18) 0.5748(10)
H60? H 0.1128 -0.0919 0.5854
H61? H 0.0681 -0.0037 0.6163
C46? C 0.0819(12) -0.1092(18) 0.4681(13)
H62? H 0.1323 -0.0959 0.4690
H63? H 0.0639 -0.1040 0.4203
H64? H 0.0734 -0.1750 0.4856
C47? C 0.0325(14) 0.068(2) 0.3985(10)
H65? H -0.0178 0.0564 0.3920
H66? H 0.0590 0.0170 0.3753
H67? H 0.0447 0.1314 0.3785
C48? C 0.0045(13) 0.1428(18) 0.5134(16)
H68? H 0.0155 0.2084 0.4970
H69? H 0.0143 0.1385 0.5634
H70? H -0.0452 0.1289 0.5044
C49? C -0.0322(5) -0.0648(9) 0.5233(7)
C50? C 0.1445(6) 0.1980(7) 0.4830(7)
C71? C 0.2280(6) 0.2991(9) 0.2299(5)
C72? C 0.2431(12) 0.1852(13) 0.2192(9)
C73? C 0.2286(6) 0.1807(8) 0.1375(6)
H99? H 0.2727 0.2029 0.1149
C74? C 0.1731(19) 0.251(2) 0.1160(14)
H100? H 0.1288 0.2167 0.1043
H101? H 0.1879 0.2897 0.0756
C75? C 0.1654(13) 0.316(2) 0.1833(13)
H102? H 0.1625 0.3850 0.1700
H103? H 0.1220 0.2981 0.2079
C76? C 0.2868(15) 0.361(2) 0.1996(17)
H104? H 0.2759 0.3755 0.1509
H105? H 0.3310 0.3246 0.2026
H106? H 0.2912 0.4212 0.2260
C77? C 0.3140(14) 0.149(3) 0.2406(18)
H107? H 0.3120 0.1228 0.2879
H108? H 0.3478 0.2023 0.2392
H109? H 0.3287 0.0974 0.2087
C78? C 0.1841(17) 0.131(2) 0.2569(18)
H110? H 0.1892 0.0607 0.2493
H111? H 0.1385 0.1522 0.2386
H112? H 0.1870 0.1446 0.3068
C79? C 0.2178(6) 0.3255(9) 0.3055(5)
C80? C 0.2180(7) 0.0750(8) 0.1159(7)
C81? C 0.1309(5) 0.5800(7) 0.0079(5)
C82? C 0.0508(8) 0.5553(12) 0.0221(9)
C83? C 0.0479(5) 0.4513(7) -0.0125(5)
H113? H 0.0678 0.4059 0.0232
C84? C 0.0965(12) 0.4466(19) -0.0720(12)
H114? H 0.0705 0.4498 -0.1168
H115? H 0.1245 0.3860 -0.0706
C85? C 0.1451(11) 0.5390(15) -0.0617(9)
H116? H 0.1950 0.5202 -0.0650
H117? H 0.1346 0.5878 -0.0982
C86? C 0.1799(11) 0.5296(17) 0.0601(11)
H118? H 0.1792 0.4594 0.0518
H119? H 0.1643 0.5431 0.1074
H120? H 0.2278 0.5541 0.0544
C87? C 0.0276(13) 0.5567(19) 0.0967(9)
H121? H -0.0138 0.5983 0.1010
H122? H 0.0655 0.5820 0.1263
H123? H 0.0159 0.4905 0.1114
C88? C 0.0064(11) 0.6255(16) -0.0230(13)
H124? H -0.0427 0.6048 -0.0227
H125? H 0.0236 0.6247 -0.0708
H126? H 0.0103 0.6914 -0.0041
C89? C 0.1450(6) 0.6882(7) 0.0164(6)
C90? C -0.0279(5) 0.4200(9) -0.0231(6)
C111? C 0.6209(5) 0.9924(8) 0.9998(6)
C112? C 0.5420(9) 0.9740(14) 1.0234(10)
C113? C 0.5292(5) 0.8741(8) 0.9840(6)
H155? H 0.5544 0.8203 1.0087
C114? C 0.5596(16) 0.889(3) 0.9118(11)
H156? H 0.5230 0.9114 0.8786
H157? H 0.5804 0.8280 0.8941
C115? C 0.6176(15) 0.969(2) 0.9230(10)
H158? H 0.6635 0.9449 0.9071
H159? H 0.6055 1.0281 0.8960
C116? C 0.6753(14) 0.922(2) 1.0284(18)
H160? H 0.6650 0.8563 1.0113
H161? H 0.6741 0.9223 1.0793
H162? H 0.7220 0.9415 1.0131
C117? C 0.5345(18) 0.968(3) 1.1006(11)
H163? H 0.4989 1.0142 1.1157
H164? H 0.5795 0.9834 1.1231
H165? H 0.5204 0.9019 1.1134
C118? C 0.4954(17) 1.054(2) 0.991(2)
H166? H 0.4479 1.0486 1.0093
H167? H 0.4936 1.0450 0.9401
H168? H 0.5149 1.1175 1.0018
C119? C 0.6410(6) 1.0973(8) 1.0155(7)
C120? C 0.4518(5) 0.8498(10) 0.9763(7)
O34? O 0.045(2) 0.318(3) 0.6968(18)
C123? C 0.011(3) 0.362(3) 0.755(2)
C124? C -0.008(3) 0.469(3) 0.740(3)
O36? O 0.431(2) 0.831(3) 0.214(2)
O37? O 0.492(2) 0.185(3) 0.700(2)
O39? O 0.3796(17) 0.944(2) 0.1901(19)
O41? O 0.037(2) 0.759(4) -0.201(2)
O42? O -0.035(2) 0.978(4) -0.254(2)
O43? O 0.4634(8) 0.3048(14) 0.3015(8)
C129? C 0.5051(12) 0.3885(17) 0.2763(14)
C130? C 0.4565(18) 0.476(2) 0.290(2)
O45? O 0.5123(12) 0.1802(18) 0.2042(12)
loop_
_geom_bond_atom_site_label_1
_geom_bond_atom_site_label_2
_geom_bond_site_symmetry_1
_geom_bond_site_symmetry_2
Bi1 O1 1_555 1_555
Bi2 O13 1_555 1_555
Bi3 O15 1_555 1_555
Bi4 O7 1_555 1_555
C1 C2 1_555 1_555
C2 C3 1_555 1_555
C3 H1 1_555 1_555
C4 C3 1_555 1_555
H2 C4 1_555 1_555
H3 C4 1_555 1_555
C5 C1 1_555 1_555
H4 C5 1_555 1_555
H5 C5 1_555 1_555
C6 C1 1_555 1_555
H6 C6 1_555 1_555
H7 C6 1_555 1_555
H8 C6 1_555 1_555
C7 C2 1_555 1_555
H9 C7 1_555 1_555
H10 C7 1_555 1_555
H11 C7 1_555 1_555
C8 C2 1_555 1_555
H12 C8 1_555 1_555
H13 C8 1_555 1_555
H14 C8 1_555 1_555
C9 C1 1_555 1_555
C10 C3 1_555 1_555
O1 C9 1_555 1_555
O2 Bi1 1_555 1_555
O3 C10 1_555 1_555
O4 C10 1_555 1_555
C11 C12 1_555 1_555
C12 C13 1_555 1_555
C13 H15 1_555 1_555
C14 C13 1_555 1_555
H16 C14 1_555 1_555
H17 C14 1_555 1_555
C15 C11 1_555 1_555
H18 C15 1_555 1_555
H19 C15 1_555 1_555
C16 C11 1_555 1_555
H20 C16 1_555 1_555
H21 C16 1_555 1_555
H22 C16 1_555 1_555
C17 C12 1_555 1_555
H23 C17 1_555 1_555
H24 C17 1_555 1_555
H25 C17 1_555 1_555
C18 C12 1_555 1_555
H26 C18 1_555 1_555
H27 C18 1_555 1_555
H28 C18 1_555 1_555
C19 C11 1_555 1_555
C20 C13 1_555 1_555
O5 C19 1_555 1_555
O6 Bi1 1_555 1_555
O7 C20 1_555 1_555
O8 Bi4 1_555 1_555
C21 C22 1_555 1_555
C22 C23 1_555 1_555
C23 H29 1_555 1_555
C24 C23 1_555 1_555
H30 C24 1_555 1_555
H31 C24 1_555 1_555
C25 C21 1_555 1_555
H32 C25 1_555 1_555
H33 C25 1_555 1_555
C26 C21 1_555 1_555
H34 C26 1_555 1_555
H35 C26 1_555 1_555
H36 C26 1_555 1_555
C27 C22 1_555 1_555
H37 C27 1_555 1_555
H38 C27 1_555 1_555
H39 C27 1_555 1_555
C28 C22 1_555 1_555
H40 C28 1_555 1_555
H41 C28 1_555 1_555
H42 C28 1_555 1_555
C29 C21 1_555 1_555
C30 C23 1_555 1_555
O9 C29 1_555 1_555
O10 C29 1_555 1_555
O11 Bi1 1_555 1_555
O12 C30 1_555 1_555
C31 C32 1_555 1_555
C32 C33 1_555 1_555
C33 H43 1_555 1_555
C34 C33 1_555 1_555
H44 C34 1_555 1_555
H45 C34 1_555 1_555
C35 C31 1_555 1_555
H46 C35 1_555 1_555
H47 C35 1_555 1_555
C36 C31 1_555 1_555
H48 C36 1_555 1_555
H49 C36 1_555 1_555
H50 C36 1_555 1_555
C37 C32 1_555 1_555
H51 C37 1_555 1_555
H52 C37 1_555 1_555
H53 C37 1_555 1_555
C38 C32 1_555 1_555
H54 C38 1_555 1_555
H55 C38 1_555 1_555
H56 C38 1_555 1_555
C39 C31 1_555 1_555
C40 C33 1_555 1_555
O13 C39 1_555 1_555
O14 Bi2 1_555 1_555
O15 C40 1_555 1_555
O16 Bi3 1_555 1_555
C51 C52 1_555 1_555
C52 C53 1_555 1_555
C53 H71 1_555 1_555
C54 C53 1_555 1_555
H72 C54 1_555 1_555
H73 C54 1_555 1_555
C55 C51 1_555 1_555
H74 C55 1_555 1_555
H75 C55 1_555 1_555
C56 C51 1_555 1_555
H76 C56 1_555 1_555
H77 C56 1_555 1_555
H78 C56 1_555 1_555
C57 C52 1_555 1_555
H79 C57 1_555 1_555
H80 C57 1_555 1_555
H81 C57 1_555 1_555
C58 C52 1_555 1_555
H82 C58 1_555 1_555
H83 C58 1_555 1_555
H84 C58 1_555 1_555
C59 C51 1_555 1_555
C60 C53 1_555 1_555
O17 Bi2 1_555 1_555
O18 Bi2 1_555 1_555
O19 C59 1_555 1_555
O20 C59 1_555 1_555
C61 C62 1_555 1_555
C62 C63 1_555 1_555
C63 H85 1_555 1_555
C64 C63 1_555 1_555
H86 C64 1_555 1_555
H87 C64 1_555 1_555
C65 C61 1_555 1_555
H88 C65 1_555 1_555
H89 C65 1_555 1_555
C66 C61 1_555 1_555
H90 C66 1_555 1_555
H91 C66 1_555 1_555
H92 C66 1_555 1_555
C67 C62 1_555 1_555
H93 C67 1_555 1_555
H94 C67 1_555 1_555
H95 C67 1_555 1_555
C68 C62 1_555 1_555
H96 C68 1_555 1_555
H97 C68 1_555 1_555
H98 C68 1_555 1_555
C69 C61 1_555 1_555
C70 C63 1_555 1_555
O21 C69 1_555 1_555
O22 C69 1_555 1_555
O23 Bi2 1_555 1_555
O24 Bi2 1_555 1_555
C91 C92 1_555 1_555
C92 C93 1_555 1_555
C93 H127 1_555 1_555
C94 C93 1_555 1_555
H128 C94 1_555 1_555
H129 C94 1_555 1_555
C95 C91 1_555 1_555
H130 C95 1_555 1_555
H131 C95 1_555 1_555
C96 C91 1_555 1_555
H132 C96 1_555 1_555
H133 C96 1_555 1_555
H134 C96 1_555 1_555
C97 C92 1_555 1_555
H135 C97 1_555 1_555
H136 C97 1_555 1_555
H137 C97 1_555 1_555
C98 C92 1_555 1_555
H138 C98 1_555 1_555
H139 C98 1_555 1_555
H140 C98 1_555 1_555
C99 C91 1_555 1_555
C100 C93 1_555 1_555
O25 Bi3 1_555 1_555
O26 C100 1_555 1_555
O27 C99 1_555 1_555
O28 C99 1_555 1_555
C101 C102 1_555 1_555
C102 C103 1_555 1_555
C103 H141 1_555 1_555
C104 C103 1_555 1_555
H142 C104 1_555 1_555
H143 C104 1_555 1_555
C105 C101 1_555 1_555
H144 C105 1_555 1_555
H145 C105 1_555 1_555
C106 C101 1_555 1_555
H146 C106 1_555 1_555
H147 C106 1_555 1_555
H148 C106 1_555 1_555
C107 C102 1_555 1_555
H149 C107 1_555 1_555
H150 C107 1_555 1_555
H151 C107 1_555 1_555
C108 C102 1_555 1_555
H152 C108 1_555 1_555
H153 C108 1_555 1_555
H154 C108 1_555 1_555
C109 C101 1_555 1_555
C110 C103 1_555 1_555
O29 Bi4 1_555 1_555
O30 Bi4 1_555 1_555
O31 C110 1_555 1_555
O32 C110 1_555 1_555
O33 C121 1_555 1_555
C121 C122 1_555 1_555
O35 C125 1_555 1_555
C125 C126 1_555 1_555
O40 C127 1_555 1_555
C127 C128 1_555 1_555
Bi1A O3 1_555 1_555
Bi2A O20 1_555 1_555
Bi3_2 O21 1_555 1_555
Bi3A O27 1_555 1_555
Bi4_2 O9 1_555 1_555
Bi4A O31 1_555 1_555
O3A Bi1 1_555 1_555
O4A Bi1 1_555 1_555
O9_2 Bi4 1_555 1_555
O20A Bi2 1_555 1_555
O21_2 Bi3 1_555 1_555
O22_2 Bi3 1_555 1_555
O27A Bi3 1_555 1_555
O28A Bi3 1_555 1_555
O31A Bi4 1_555 1_555
C4 C5 1_555 1_555
C9 O2 1_555 1_555
O4 Bi1A 1_555 1_555
C14 C15 1_555 1_555
C19 O6 1_555 1_555
C20 O8 1_555 1_555
C24 C25 1_555 1_555
C30 O11 1_555 1_555
C34 C35 1_555 1_555
C39 O14 1_555 1_555
C40 O16 1_555 1_555
C54 C55 1_555 1_555
C60 O17 1_555 1_555
C60 O18 1_555 1_555
C64 C65 1_555 1_555
C70 O23 1_555 1_555
C70 O24 1_555 1_555
O22 Bi3_2 1_555 1_555
C94 C95 1_555 1_555
C100 O25 1_555 1_555
O28 Bi3A 1_555 1_555
C104 C105 1_555 1_555
C109 O29 1_555 1_555
C109 O30 1_555 1_555

#END
