
#######################################################################
#
#                 Cambridge Crystallographic Data Centre
#                                CCDC 
#
#######################################################################
#
# If this CIF has been generated from an entry in the Cambridge 
# Structural Database, then it will include bibliographic, chemical, 
# crystal, experimental, refinement or atomic coordinate data resulting 
# from the CCDC's data processing and validation procedures.
#
#######################################################################

data_CEHRUE
_symmetry_cell_setting           orthorhombic
_symmetry_space_group_name_H-M   'C m c a'
_symmetry_Int_Tables_number      64
_space_group_name_Hall           '-C 2ac 2'
loop_
_symmetry_equiv_pos_site_id
_symmetry_equiv_pos_as_xyz
1 x,y,z
2 -x,1/2-y,1/2+z
3 x,-y,-z
4 1/2-x,y,1/2-z
5 1/2+x,1/2+y,z
6 1/2-x,-y,1/2+z
7 1/2+x,1/2-y,-z
8 -x,1/2+y,1/2-z
9 -x,-y,-z
10 x,1/2+y,1/2-z
11 -x,y,z
12 1/2+x,-y,1/2+z
13 1/2-x,1/2-y,-z
14 1/2+x,y,1/2-z
15 1/2-x,1/2+y,z
16 x,1/2-y,1/2+z
_cell_length_a                   16.7484(6)
_cell_length_b                   13.7450(5)
_cell_length_c                   15.5695(6)
_cell_angle_alpha                90
_cell_angle_beta                 90
_cell_angle_gamma                90
_cell_volume                     3584.2
loop_
_atom_site_label
_atom_site_type_symbol
_atom_site_fract_x
_atom_site_fract_y
_atom_site_fract_z
Cu1 Cu 0.25000 0.37249(3) 0.25000
V1 V 0.00000 0.37369(4) 0.23275(4)
F1 F 0.11468(8) 0.37142(9) 0.23516(9)
F2 F 0.00000 0.24814(16) 0.28542(15)
F3 F 0.00000 0.3044(2) 0.11070(19)
F4 F 0.00000 0.43483(18) 0.34511(16)
N1 N 0.27204(15) 0.37645(16) -0.05863(14)
N2 N 0.26114(12) 0.37268(14) 0.12051(13)
N3 N 0.25000 0.5214(2) 0.25000
N4 N 0.25000 0.7239(2) 0.25000
C1 C 0.33640(17) 0.3791(2) -0.00850(17)
H1 H 0.3865 0.3818 -0.0342
C2 C 0.33197(16) 0.3781(2) 0.08088(16)
H2 H 0.3786 0.3811 0.1133
C3 C 0.19614(16) 0.3692(2) 0.07033(16)
H3 H 0.1459 0.3649 0.0955
C4 C 0.20248(17) 0.3718(2) -0.01823(16)
H4 H 0.156 0.3702 -0.0508
C5 C 0.18259(16) 0.67286(17) 0.23974(15)
H5 H 0.1346 0.7059 0.2327
C6 C 0.18240(16) 0.57222(16) 0.23939(15)
H6 H 0.1345 0.5392 0.2316
O6 O 0.00000 0.49381(18) 0.17362(16)
Cu1I Cu 0.25000 0.87249(3) 0.25000
V1C V 0.50000 0.37369(4) 0.26725(4)
F1C F 0.38532(8) 0.37142(9) 0.26484(9)
F1J F -0.11468(8) 0.37142(9) 0.23516(9)
N1C N 0.22796(15) 0.37645(16) 0.55863(14)
N2C N 0.23886(12) 0.37268(14) 0.37949(13)
N4I N 0.25000 0.2239(2) 0.25000
C1C C 0.16360(17) 0.3791(2) 0.50850(17)
H1C H 0.1135 0.3818 0.5342
C2C C 0.16803(16) 0.3781(2) 0.41912(16)
H2C H 0.1214 0.3811 0.3867
C3C C 0.30386(16) 0.3692(2) 0.42967(16)
H3C H 0.3541 0.3649 0.4045
C4C C 0.29752(17) 0.3718(2) 0.51823(16)
H4C H 0.344 0.3702 0.5508
C5C C 0.31741(16) 0.67286(17) 0.26026(15)
H5C H 0.3654 0.7059 0.2673
C6C C 0.31760(16) 0.57222(16) 0.26061(15)
H6C H 0.3655 0.5392 0.2684
O2 O 0.00000 0.1168(2) 0.1441(3)
O3 O 0.00000 0.1459(2) 0.43713(19)
O1? O 0.00000 0.24814(16) 0.28542(15)
F5? F 0.00000 0.49381(18) 0.17362(16)
O4? O 0.00000 0.3044(2) 0.11070(19)
O5? O 0.00000 0.43483(18) 0.34511(16)
loop_
_geom_bond_atom_site_label_1
_geom_bond_atom_site_label_2
_geom_bond_site_symmetry_1
_geom_bond_site_symmetry_2
Cu1 F1 1_555 1_555
V1 F1 1_555 1_555
F2 V1 1_555 1_555
F3 V1 1_555 1_555
F4 V1 1_555 1_555
N1 C1 1_555 1_555
N2 Cu1 1_555 1_555
N3 Cu1 1_555 1_555
N4 C5 1_555 1_555
C1 H1 1_555 1_555
C2 N2 1_555 1_555
H2 C2 1_555 1_555
C3 N2 1_555 1_555
H3 C3 1_555 1_555
C4 N1 1_555 1_555
H4 C4 1_555 1_555
C5 H5 1_555 1_555
C6 N3 1_555 1_555
H6 C6 1_555 1_555
O6 V1 1_555 1_555
Cu1I N4 1_555 1_555
V1C F1C 1_555 1_555
F1C Cu1 1_555 1_555
F1J V1 1_555 1_555
N1C C1C 1_555 1_555
N2C Cu1 1_555 1_555
N4I Cu1 1_555 1_555
C1C H1C 1_555 1_555
C2C N2C 1_555 1_555
H2C C2C 1_555 1_555
C3C N2C 1_555 1_555
H3C C3C 1_555 1_555
C4C N1C 1_555 1_555
H4C C4C 1_555 1_555
C5C N4 1_555 1_555
H5C C5C 1_555 1_555
C6C N3 1_555 1_555
H6C C6C 1_555 1_555
C1 C2 1_555 1_555
C3 C4 1_555 1_555
C5 C6 1_555 1_555
C1C C2C 1_555 1_555
C3C C4C 1_555 1_555
C5C C6C 1_555 1_555

#END
