
#######################################################################
#
#                 Cambridge Crystallographic Data Centre
#                                CCDC 
#
#######################################################################
#
# If this CIF has been generated from an entry in the Cambridge 
# Structural Database, then it will include bibliographic, chemical, 
# crystal, experimental, refinement or atomic coordinate data resulting 
# from the CCDC's data processing and validation procedures.
#
#######################################################################

data_CEHSUE
_symmetry_cell_setting           triclinic
_symmetry_space_group_name_H-M   'P 1'
_symmetry_Int_Tables_number      1
_space_group_name_Hall           'P 1'
loop_
_symmetry_equiv_pos_site_id
_symmetry_equiv_pos_as_xyz
1 x,y,z
_cell_length_a                   8.701(5)
_cell_length_b                   9.057(5)
_cell_length_c                   9.267(5)
_cell_angle_alpha                74.079(11)
_cell_angle_beta                 79.883(11)
_cell_angle_gamma                80.106(10)
_cell_volume                     685.431
loop_
_atom_site_label
_atom_site_type_symbol
_atom_site_fract_x
_atom_site_fract_y
_atom_site_fract_z
Ag1 Ag 0.30896(4) 0.20833(4) 0.33077(4)
Ag2 Ag -0.03329(5) 1.21661(4) 0.54468(4)
Ag3 Ag 0.21096(5) 0.61302(4) 0.67023(4)
Ag4 Ag -0.13329(5) 1.62078(4) 0.88974(4)
Ag5 Ag 0.58903(9) 0.41520(8) 1.10855(9)
N1 N 0.2801(5) 0.4299(3) 0.5547(4)
N2 N -0.1618(5) 1.3012(4) 0.3339(5)
N3 N 0.3285(5) 0.5455(5) 0.8828(5)
N4 N 0.0360(6) 0.9709(4) 0.6127(5)
N5 N -0.1013(4) 1.3782(4) 0.7022(5)
C1 C 0.2835(6) 0.3593(5) 0.4800(6)
C2 C -0.2469(5) 1.3379(5) 0.2646(6)
C3 C 0.4207(7) 0.5078(5) 0.9702(5)
C4 C 0.0703(6) 0.8392(5) 0.6434(5)
C5 C -0.1169(5) 1.4650(4) 0.7708(5)
N6 N 0.2722(2) 0.1021(2) 0.1488(3)
C6 C 0.1930(3) 0.1886(3) 0.0287(3)
H1 H 0.1471 0.2896 0.0268
C7 C 0.1825(5) 0.1241(4) -0.0886(3)
H2 H 0.1295 0.1820 -0.1689
C8 C 0.2511(5) -0.0269(5) -0.0858(4)
H3 H 0.2440 -0.0700 -0.1642
C9 C 0.3302(5) -0.1134(3) 0.0343(4)
H4 H 0.3761 -0.2144 0.0362
C10 C 0.3408(3) -0.0489(2) 0.1516(3)
N7 N 0.4969(3) -0.0134(2) 0.3286(2)
C11 C 0.4333(3) -0.1160(3) 0.2756(3)
C12 C 0.4794(4) -0.2744(2) 0.3237(4)
H5 H 0.4368 -0.3430 0.2882
C13 C 0.5891(5) -0.3303(2) 0.4247(4)
H6 H 0.6199 -0.4363 0.4568
C14 C 0.6527(4) -0.2278(3) 0.4777(4)
H7 H 0.7262 -0.2652 0.5452
C15 C 0.6067(3) -0.0694(3) 0.4296(3)
H8 H 0.6493 -0.0008 0.4651
N8 N -0.0921(2) 1.7148(2) 1.0703(2)
C16 C 0.0099(3) 1.6399(3) 1.1755(3)
H9 H 0.0540 1.5378 1.1807
C17 C 0.0460(5) 1.7177(5) 1.2728(4)
H10 H 0.1143 1.6676 1.3431
C18 C -0.0199(6) 1.8703(5) 1.2650(4)
H11 H 0.0043 1.9223 1.3301
C19 C -0.1219(5) 1.9452(3) 1.1598(4)
H12 H -0.1660 2.0473 1.1546
C20 C -0.1580(3) 1.8675(2) 1.0625(3)
N9 N -0.2319(2) 1.8905(2) 0.8301(3)
C21 C -0.2509(3) 1.9581(3) 0.9510(3)
C22 C -0.3321(4) 2.1061(3) 0.9397(4)
H13 H -0.3448 2.1513 1.0206
C23 C -0.3944(4) 2.1867(2) 0.8076(5)
H14 H -0.4488 2.2857 0.8001
C24 C -0.3755(4) 2.1191(3) 0.6867(4)
H15 H -0.4171 2.1730 0.5983
C25 C -0.2942(3) 1.9711(3) 0.6980(3)
H16 H -0.2816 1.9259 0.6171
Ag5_2 Ag -0.41097(9) 1.41520(8) 0.10855(9)
C2_2 C 0.7531(5) 0.3379(5) 1.2646(6)
loop_
_geom_bond_atom_site_label_1
_geom_bond_atom_site_label_2
_geom_bond_site_symmetry_1
_geom_bond_site_symmetry_2
Ag1 C1 1_555 1_555
Ag2 N2 1_555 1_555
Ag3 N1 1_555 1_555
Ag4 C5 1_555 1_555
Ag5 C3 1_555 1_555
N1 C1 1_555 1_555
N2 C2 1_555 1_555
N3 Ag3 1_555 1_555
N4 Ag2 1_555 1_555
N5 Ag2 1_555 1_555
C2 Ag5_2 1_555 1_555
C3 N3 1_555 1_555
C4 Ag3 1_555 1_555
C5 N5 1_555 1_555
N6 Ag1 1_555 1_555
C6 N6 1_555 1_555
H1 C6 1_555 1_555
C7 C6 1_555 1_555
H2 C7 1_555 1_555
C8 C7 1_555 1_555
H3 C8 1_555 1_555
C9 C8 1_555 1_555
H4 C9 1_555 1_555
C10 N6 1_555 1_555
N7 Ag1 1_555 1_555
C11 C10 1_555 1_555
C12 C11 1_555 1_555
H5 C12 1_555 1_555
C13 C12 1_555 1_555
H6 C13 1_555 1_555
C14 C13 1_555 1_555
H7 C14 1_555 1_555
C15 N7 1_555 1_555
H8 C15 1_555 1_555
N8 Ag4 1_555 1_555
C16 N8 1_555 1_555
H9 C16 1_555 1_555
C17 C16 1_555 1_555
H10 C17 1_555 1_555
C18 C17 1_555 1_555
H11 C18 1_555 1_555
C19 C18 1_555 1_555
H12 C19 1_555 1_555
C20 N8 1_555 1_555
N9 Ag4 1_555 1_555
C21 C20 1_555 1_555
C22 C21 1_555 1_555
H13 C22 1_555 1_555
C23 C22 1_555 1_555
H14 C23 1_555 1_555
C24 C23 1_555 1_555
H15 C24 1_555 1_555
C25 N9 1_555 1_555
H16 C25 1_555 1_555
C2_2 Ag5 1_555 1_555
N4 C4 1_555 1_555
C9 C10 1_555 1_555
N7 C11 1_555 1_555
C14 C15 1_555 1_555
C19 C20 1_555 1_555
N9 C21 1_555 1_555
C24 C25 1_555 1_555

#END
