
#######################################################################
#
#                 Cambridge Crystallographic Data Centre
#                                CCDC 
#
#######################################################################
#
# If this CIF has been generated from an entry in the Cambridge 
# Structural Database, then it will include bibliographic, chemical, 
# crystal, experimental, refinement or atomic coordinate data resulting 
# from the CCDC's data processing and validation procedures.
#
#######################################################################

data_CEHSUD
_symmetry_cell_setting           monoclinic
_symmetry_space_group_name_H-M   'P 21'
_symmetry_Int_Tables_number      4
_space_group_name_Hall           'P 2yb'
loop_
_symmetry_equiv_pos_site_id
_symmetry_equiv_pos_as_xyz
1 x,y,z
2 -x,1/2+y,-z
_cell_length_a                   6.092(5)
_cell_length_b                   12.285(7)
_cell_length_c                   7.295(4)
_cell_angle_alpha                90
_cell_angle_beta                 112
_cell_angle_gamma                90
_cell_volume                     506.205
loop_
_atom_site_label
_atom_site_type_symbol
_atom_site_fract_x
_atom_site_fract_y
_atom_site_fract_z
Mn1 Mn -0.15526 0.19245 -0.27399
C1 C 0.01380 0.05340 -0.60250
C2 C 0.13800 0.16400 -0.61300
C3 C 0.39380 0.14530 -0.59860
C4 C 0.52910 0.24480 -0.64260
O1 O -0.07120 0.04190 -0.46800
O2 O 0.00540 -0.01480 -0.73200
O3 O 0.11240 0.23140 -0.45920
O4 O 0.52380 0.06320 -0.46020
O5 O 0.60760 0.32370 -0.51730
O6 O 0.45480 0.26370 -0.82320
O7 O -0.13480 0.10180 0.03550
O8 O -0.25990 0.31320 -0.02200
O4_2 O -0.47620 0.06320 -0.46020
O5_2 O -0.39240 0.32370 -0.51730
Mn1_2 Mn 0.84474 0.19245 -0.27399
O9 O -0.11240 0.50440 -0.89970
O10 O -0.67350 0.36650 -0.23650
loop_
_geom_bond_atom_site_label_1
_geom_bond_atom_site_label_2
_geom_bond_site_symmetry_1
_geom_bond_site_symmetry_2
Mn1 O1 1_555 1_555
C1 C2 1_555 1_555
C2 C3 1_555 1_555
C3 C4 1_555 1_555
C4 O5 1_555 1_555
O1 C1 1_555 1_555
O2 C1 1_555 1_555
O3 Mn1 1_555 1_555
O4 C3 1_555 1_555
O5 Mn1_2 1_555 1_555
O6 C4 1_555 1_555
O7 Mn1 1_555 1_555
O8 Mn1 1_555 1_555
O4_2 Mn1 1_555 1_555
O5_2 Mn1 1_555 1_555
Mn1_2 O4 1_555 1_555
C2 O3 1_555 1_555

#END
