
#######################################################################
#
#                 Cambridge Crystallographic Data Centre
#                                CCDC 
#
#######################################################################
#
# If this CIF has been generated from an entry in the Cambridge 
# Structural Database, then it will include bibliographic, chemical, 
# crystal, experimental, refinement or atomic coordinate data resulting 
# from the CCDC's data processing and validation procedures.
#
#######################################################################

data_CEHSUD10
_symmetry_cell_setting           monoclinic
_symmetry_space_group_name_H-M   'P 21'
_symmetry_Int_Tables_number      4
_space_group_name_Hall           'P 2yb'
loop_
_symmetry_equiv_pos_site_id
_symmetry_equiv_pos_as_xyz
1 x,y,z
2 -x,1/2+y,-z
_cell_length_a                   6.092(5)
_cell_length_b                   12.285(7)
_cell_length_c                   7.295(4)
_cell_angle_alpha                90
_cell_angle_beta                 112
_cell_angle_gamma                90
_cell_volume                     506.205
loop_
_atom_site_label
_atom_site_type_symbol
_atom_site_fract_x
_atom_site_fract_y
_atom_site_fract_z
Mn1 Mn 0.84474(6) 0.19245(3) 0.72601(2)
C1 C 1.0138(11) 0.0534(9) 0.3975(13)
C2 C 1.1380(13) 0.1640(11) 0.3870(12)
C3 C 1.3938(7) 0.1453(14) 0.4014(13)
C4 C 1.5291(15) 0.2444(12) 0.3575(8)
O1 O 0.9288(19) 0.0419(10) 0.5320(11)
O2 O 1.0054(9) -0.0148(11) 0.2680(11)
O3 O 1.1124(11) 0.2314(12) 0.5408(12)
O4 O 1.5338(13) 0.0632(10) 0.5398(14)
O5 O 1.6076(14) 0.3237(12) 0.4827(10)
O6 O 1.4548(13) 0.2637(9) 0.1768(12)
O7 O 0.8652(15) 0.1018(16) 1.0355(11)
O8 O 0.7401(14) 0.3132(12) 0.9780(10)
O4_2 O 0.5338(13) 0.0632(10) 0.5398(14)
O5_2 O 0.6076(14) 0.3237(12) 0.4827(10)
Mn1_2 Mn 1.84474(6) 0.19245(3) 0.72601(2)
O9 O 0.8876(15) 0.5044(13) 0.1003(7)
O10 O 0.3265(15) 0.3665(11) 0.7635(12)
loop_
_geom_bond_atom_site_label_1
_geom_bond_atom_site_label_2
_geom_bond_site_symmetry_1
_geom_bond_site_symmetry_2
Mn1 O1 1_555 1_555
C1 C2 1_555 1_555
C2 C3 1_555 1_555
C3 C4 1_555 1_555
C4 O5 1_555 1_555
O1 C1 1_555 1_555
O2 C1 1_555 1_555
O3 Mn1 1_555 1_555
O4 C3 1_555 1_555
O5 Mn1_2 1_555 1_555
O6 C4 1_555 1_555
O7 Mn1 1_555 1_555
O8 Mn1 1_555 1_555
O4_2 Mn1 1_555 1_555
O5_2 Mn1 1_555 1_555
Mn1_2 O4 1_555 1_555
C2 O3 1_555 1_555

#END
