
#######################################################################
#
#                 Cambridge Crystallographic Data Centre
#                                CCDC 
#
#######################################################################
#
# If this CIF has been generated from an entry in the Cambridge 
# Structural Database, then it will include bibliographic, chemical, 
# crystal, experimental, refinement or atomic coordinate data resulting 
# from the CCDC's data processing and validation procedures.
#
#######################################################################

data_CEHWOD
_symmetry_cell_setting           orthorhombic
_symmetry_space_group_name_H-M   'P n a 21'
_symmetry_Int_Tables_number      33
_space_group_name_Hall           'P 2c -2n'
loop_
_symmetry_equiv_pos_site_id
_symmetry_equiv_pos_as_xyz
1 x,y,z
2 -x,-y,1/2+z
3 1/2+x,1/2-y,z
4 1/2-x,1/2+y,1/2+z
_cell_length_a                   10.630(2)
_cell_length_b                   11.543(2)
_cell_length_c                   7.1897(16)
_cell_angle_alpha                90
_cell_angle_beta                 90
_cell_angle_gamma                90
_cell_volume                     882.191
loop_
_atom_site_label
_atom_site_type_symbol
_atom_site_fract_x
_atom_site_fract_y
_atom_site_fract_z
Ni1 Ni 0.78517(7) 0.69005(6) 0.26098(14)
O1 O 0.5993(4) 0.7332(4) 0.2844(9)
N1 N 0.7837(5) 0.8396(5) 0.1058(9)
C1 C 0.5682(6) 0.8245(6) 0.2065(10)
C2 C 0.6712(6) 0.8899(6) 0.1021(10)
C3 C 0.6516(6) 0.9920(6) 0.0104(11)
H1 H 0.5719 1.0254 0.0117
C4 C 0.8587(7) 0.9963(6) -0.0738(11)
H2 H 0.9262 1.0320 -0.1330
N2 N 0.7450(5) 1.0446(5) -0.0811(9)
O2 O 0.4607(4) 0.8684(4) 0.1976(7)
C5 C 0.8770(6) 0.8949(6) 0.0196(12)
H3 H 0.9574 0.8632 0.0233
Cl1 Cl 0.8348(2) 0.80955(17) 0.5310(3)
O3 O 0.7306(5) 0.5895(5) 0.0197(9)
H4 H 0.7294 0.5160 0.0261
H5 H 0.7017 0.6177 -0.0808
Ni1B Ni 0.28517(7) 0.80995(6) 0.26098(14)
Ni1C Ni 0.71483(7) 1.19005(6) -0.23902(14)
N2C N 0.7550(5) 0.5446(5) 0.4189(9)
O2B O 0.9607(4) 0.6316(4) 0.1976(7)
O4 O 0.6033(5) 0.7132(5) 0.7535(12)
H6 H 0.6026 0.7633 0.6668
H7 H 0.5273 0.7358 0.7589
loop_
_geom_bond_atom_site_label_1
_geom_bond_atom_site_label_2
_geom_bond_site_symmetry_1
_geom_bond_site_symmetry_2
Ni1 O1 1_555 1_555
O1 C1 1_555 1_555
N1 Ni1 1_555 1_555
C1 C2 1_555 1_555
C2 N1 1_555 1_555
C3 C2 1_555 1_555
H1 C3 1_555 1_555
C4 H2 1_555 1_555
N2 C3 1_555 1_555
O2 C1 1_555 1_555
C5 N1 1_555 1_555
H3 C5 1_555 1_555
Cl1 Ni1 1_555 1_555
O3 Ni1 1_555 1_555
H4 O3 1_555 1_555
H5 O3 1_555 1_555
O4 H6 1_555 1_555
H7 O4 1_555 1_555
Ni1B O2 1_555 1_555
Ni1C N2 1_555 1_555
N2C Ni1 1_555 1_555
O2B Ni1 1_555 1_555
C4 N2 1_555 1_555
C4 C5 1_555 1_555

#END
