
#######################################################################
#
#                 Cambridge Crystallographic Data Centre
#                                CCDC 
#
#######################################################################
#
# If this CIF has been generated from an entry in the Cambridge 
# Structural Database, then it will include bibliographic, chemical, 
# crystal, experimental, refinement or atomic coordinate data resulting 
# from the CCDC's data processing and validation procedures.
#
#######################################################################

data_CEHWUJ
_symmetry_cell_setting           monoclinic
_symmetry_space_group_name_H-M   'P 21/n'
_symmetry_Int_Tables_number      14
_space_group_name_Hall           '-P 2yn'
loop_
_symmetry_equiv_pos_site_id
_symmetry_equiv_pos_as_xyz
1 x,y,z
2 1/2-x,1/2+y,1/2-z
3 -x,-y,-z
4 1/2+x,1/2-y,1/2+z
_cell_length_a                   14.748(4)
_cell_length_b                   5.821(2)
_cell_length_c                   15.599(9)
_cell_angle_alpha                90
_cell_angle_beta                 116.950(5)
_cell_angle_gamma                90
_cell_volume                     1193.72
loop_
_atom_site_label
_atom_site_type_symbol
_atom_site_fract_x
_atom_site_fract_y
_atom_site_fract_z
Cd1 Cd 1.0000 0.0000 0.0000
C1 C 1.0023(2) 0.3450(6) 0.1694(2)
H1 H 0.9323 0.3677 0.1363
C2 C 1.1502(2) 0.2344(6) 0.2105(2)
H2 H 1.2050 0.1575 0.2097
C3 C 1.0393(2) 0.6226(6) 0.3055(2)
H3 H 1.0130 0.7582 0.2656
H4 H 1.1011 0.6660 0.3619
C4 C 0.9617(2) 0.5389(5) 0.3368(2)
C5 C 0.8790(2) 0.6742(6) 0.3207(2)
H5 H 0.8697 0.8126 0.2880
C6 C 0.8097(2) 0.6067(6) 0.3528(2)
H6 H 0.7546 0.7008 0.3419
C7 C 0.8215(2) 0.4004(6) 0.4008(2)
C8 C 0.9047(2) 0.2617(6) 0.4163(2)
H7 H 0.9134 0.1219 0.4479
C9 C 0.9744(2) 0.3317(6) 0.3847(2)
H8 H 1.0300 0.2391 0.3958
C10 C 0.7485(2) 0.3291(5) 0.4361(2)
H9 H 0.864(3) 0.386(4) -0.060(3)
H10 H 0.8141(14) 0.199(5) -0.109(2)
N1 N 1.05443(16) 0.2075(4) 0.14121(16)
N2 N 1.06344(17) 0.4468(4) 0.25152(17)
N3 N 1.16054(18) 0.3760(5) 0.27912(18)
N4 N 0.6682(2) 0.4535(5) 0.4239(2)
N5 N 0.75671(19) 0.1376(5) 0.48673(19)
N6 N 0.62472(18) 0.3321(5) 0.46857(18)
N7 N 0.67751(19) 0.1459(5) 0.50646(18)
O1 O 0.87064(16) 0.2674(4) -0.08788(17)
Cd1A Cd 0.5000 0.5000 0.5000
Cd1A_2 Cd 1.5000 -0.5000 -0.5000
C1B C 0.9977(2) -0.3450(6) -0.1694(2)
H1B H 1.0677 -0.3677 -0.1363
C2B C 0.8498(2) -0.2344(6) -0.2105(2)
H2B H 0.7950 -0.1575 -0.2097
C3B C 0.9607(2) -0.6226(6) -0.3055(2)
H3B H 0.9870 -0.7582 -0.2656
H4B H 0.8989 -0.6660 -0.3619
C4B C 1.0383(2) -0.5389(5) -0.3368(2)
C5B C 1.1210(2) -0.6742(6) -0.3207(2)
H5B H 1.1303 -0.8126 -0.2880
C6B C 1.1903(2) -0.6067(6) -0.3528(2)
H6B H 1.2454 -0.7008 -0.3419
C7B C 1.1785(2) -0.4004(6) -0.4008(2)
C8B C 1.0953(2) -0.2617(6) -0.4163(2)
H7B H 1.0866 -0.1219 -0.4479
C9B C 1.0256(2) -0.3317(6) -0.3847(2)
H8B H 0.9700 -0.2391 -0.3958
C10B C 1.2515(2) -0.3291(5) -0.4361(2)
H9B H 1.136(3) -0.386(4) 0.060(3)
H10B H 1.1859(14) -0.199(5) 0.109(2)
N1B N 0.94557(16) -0.2075(4) -0.14121(16)
N2B N 0.93656(17) -0.4468(4) -0.25152(17)
N3B N 0.83946(18) -0.3760(5) -0.27912(18)
N4B N 1.3318(2) -0.4535(5) -0.4239(2)
N5B N 1.24329(19) -0.1376(5) -0.48673(19)
N6B N 1.37528(18) -0.3321(5) -0.46857(18)
N6A N 0.87528(18) -0.1679(5) 0.03143(18)
N6C N 1.12472(18) 0.1679(5) -0.03143(18)
N7B N 1.32249(19) -0.1459(5) -0.50646(18)
O1B O 1.12936(16) -0.2674(4) 0.08788(17)
loop_
_geom_bond_atom_site_label_1
_geom_bond_atom_site_label_2
_geom_bond_site_symmetry_1
_geom_bond_site_symmetry_2
Cd1 N1 1_555 1_555
C1 H1 1_555 1_555
C2 H2 1_555 1_555
C3 H3 1_555 1_555
H4 C3 1_555 1_555
C4 C3 1_555 1_555
C5 C4 1_555 1_555
H5 C5 1_555 1_555
C6 C5 1_555 1_555
H6 C6 1_555 1_555
C7 C6 1_555 1_555
C8 C7 1_555 1_555
H7 C8 1_555 1_555
C9 C4 1_555 1_555
H8 C9 1_555 1_555
C10 C7 1_555 1_555
H9 O1 1_555 1_555
H10 O1 1_555 1_555
N1 C1 1_555 1_555
N2 C1 1_555 1_555
N3 C2 1_555 1_555
N4 C10 1_555 1_555
N5 C10 1_555 1_555
N6 N4 1_555 1_555
N7 N5 1_555 1_555
O1 Cd1 1_555 1_555
Cd1A N6 1_555 1_555
Cd1A_2 N6B 1_555 1_555
C1B H1B 1_555 1_555
C2B H2B 1_555 1_555
C3B H3B 1_555 1_555
H4B C3B 1_555 1_555
C4B C3B 1_555 1_555
C5B C4B 1_555 1_555
H5B C5B 1_555 1_555
C6B C5B 1_555 1_555
H6B C6B 1_555 1_555
C7B C6B 1_555 1_555
C8B C7B 1_555 1_555
H7B C8B 1_555 1_555
C9B C4B 1_555 1_555
H8B C9B 1_555 1_555
C10B C7B 1_555 1_555
H9B O1B 1_555 1_555
H10B O1B 1_555 1_555
N1B Cd1 1_555 1_555
N2B C1B 1_555 1_555
N3B C2B 1_555 1_555
N4B C10B 1_555 1_555
N5B C10B 1_555 1_555
N6B N4B 1_555 1_555
N6A Cd1 1_555 1_555
N6C Cd1 1_555 1_555
N7B N5B 1_555 1_555
O1B Cd1 1_555 1_555
C2 N1 1_555 1_555
C3 N2 1_555 1_555
C8 C9 1_555 1_555
N2 N3 1_555 1_555
N6 N7 1_555 1_555
C1B N1B 1_555 1_555
C2B N1B 1_555 1_555
C3B N2B 1_555 1_555
C8B C9B 1_555 1_555
N2B N3B 1_555 1_555
N6B N7B 1_555 1_555

#END
