
#######################################################################
#
#                 Cambridge Crystallographic Data Centre
#                                CCDC 
#
#######################################################################
#
# If this CIF has been generated from an entry in the Cambridge 
# Structural Database, then it will include bibliographic, chemical, 
# crystal, experimental, refinement or atomic coordinate data resulting 
# from the CCDC's data processing and validation procedures.
#
#######################################################################

data_CEHWIX
_symmetry_cell_setting           orthorhombic
_symmetry_space_group_name_H-M   'P n a 21'
_symmetry_Int_Tables_number      33
_space_group_name_Hall           'P 2c -2n'
loop_
_symmetry_equiv_pos_site_id
_symmetry_equiv_pos_as_xyz
1 x,y,z
2 -x,-y,1/2+z
3 1/2+x,1/2-y,z
4 1/2-x,1/2+y,1/2+z
_cell_length_a                   10.545(2)
_cell_length_b                   11.200(2)
_cell_length_c                   7.8651(16)
_cell_angle_alpha                90
_cell_angle_beta                 90
_cell_angle_gamma                90
_cell_volume                     928.9
loop_
_atom_site_label
_atom_site_type_symbol
_atom_site_fract_x
_atom_site_fract_y
_atom_site_fract_z
Ni1 Ni 0.78455(5) 0.67892(5) 0.25692(10)
Cl1 Cl 0.71854(15) 0.56107(14) 0.0079(3)
O1 O 0.5996(3) 0.7326(3) 0.2858(6)
O2 O 0.8291(5) 0.7787(4) 0.4735(6)
H1 H 0.8321 0.8294 0.5539
H2 H 0.8892 0.7293 0.4884
N1 N 0.7893(4) 0.8368(4) 0.1180(7)
C1 C 0.5711(5) 0.8270(4) 0.2114(7)
C2 C 0.8810(5) 0.8876(5) 0.0308(9)
H3 H 0.9623 0.8556 0.0361
C3 C 0.6742(5) 0.8878(4) 0.1091(8)
C4 C 0.6530(5) 0.9854(4) 0.0085(8)
H4 H 0.5719 1.0179 0.0041
C5 C 0.8598(5) 0.9865(5) -0.0677(8)
H5 H 0.9277 1.0205 -0.1255
N2 N 0.7454(5) 1.0356(4) -0.0837(7)
O4 O 0.4647(3) 0.8758(3) 0.2073(6)
Ni1B Ni 0.28455(5) 0.82108(5) 0.25692(10)
Ni1C Ni 0.71545(5) 1.17892(5) -0.24308(10)
N2C N 0.7546(5) 0.5356(4) 0.4163(7)
O4B O 0.9647(3) 0.6242(3) 0.2073(6)
O3 O 0.7957(7) 0.2524(8) 0.246(2)
C6 C 0.9360(12) 0.2710(17) 0.207(3)
loop_
_geom_bond_atom_site_label_1
_geom_bond_atom_site_label_2
_geom_bond_site_symmetry_1
_geom_bond_site_symmetry_2
Ni1 Cl1 1_555 1_555
O1 Ni1 1_555 1_555
O2 Ni1 1_555 1_555
H1 O2 1_555 1_555
H2 O2 1_555 1_555
N1 Ni1 1_555 1_555
C1 O1 1_555 1_555
C2 N1 1_555 1_555
H3 C2 1_555 1_555
C3 N1 1_555 1_555
C4 C3 1_555 1_555
H4 C4 1_555 1_555
C5 C2 1_555 1_555
H5 C5 1_555 1_555
O3 C6 1_555 1_555
N2 C4 1_555 1_555
O4 C1 1_555 1_555
Ni1B O4 1_555 1_555
Ni1C N2 1_555 1_555
N2C Ni1 1_555 1_555
O4B Ni1 1_555 1_555
C1 C3 1_555 1_555
C5 N2 1_555 1_555

#END
