
#######################################################################
#
#                 Cambridge Crystallographic Data Centre
#                                CCDC 
#
#######################################################################
#
# If this CIF has been generated from an entry in the Cambridge 
# Structural Database, then it will include bibliographic, chemical, 
# crystal, experimental, refinement or atomic coordinate data resulting 
# from the CCDC's data processing and validation procedures.
#
#######################################################################

data_CEHXAQ
_symmetry_cell_setting           triclinic
_symmetry_space_group_name_H-M   'P -1'
_symmetry_Int_Tables_number      2
_space_group_name_Hall           '-P 1'
loop_
_symmetry_equiv_pos_site_id
_symmetry_equiv_pos_as_xyz
1 x,y,z
2 -x,-y,-z
_cell_length_a                   6.949(4)
_cell_length_b                   9.082(3)
_cell_length_c                   12.884(4)
_cell_angle_alpha                76.060(6)
_cell_angle_beta                 87.634(3)
_cell_angle_gamma                73.989(5)
_cell_volume                     758.283
loop_
_atom_site_label
_atom_site_type_symbol
_atom_site_fract_x
_atom_site_fract_y
_atom_site_fract_z
Cd1 Cd 0.5000 1.0000 0.5000
Cd2 Cd 0.93145(3) 1.09169(2) 0.601500(16)
C1 C 1.1246(5) 0.5350(4) 1.3847(3)
H1 H 1.2495 0.5016 1.4192
C2 C 0.8543(5) 0.6812(4) 1.3127(3)
H2 H 0.7472 0.7683 1.2857
C3 C 0.7097(5) 0.4744(4) 1.2739(2)
H3 H 0.5986 0.4815 1.3223
H4 H 0.7669 0.3642 1.2738
C4 C 0.6343(5) 0.5673(4) 1.1622(2)
C5 C 0.4517(6) 0.6773(5) 1.1461(3)
H5 H 0.3739 0.6961 1.2045
C6 C 0.3811(6) 0.7611(5) 1.0435(3)
H6 H 0.2569 0.8358 1.0338
C7 C 0.4931(4) 0.7345(4) 0.9566(2)
C8 C 0.6782(5) 0.6243(5) 0.9721(3)
H7 H 0.7565 0.6063 0.9138
C9 C 0.7471(5) 0.5408(5) 1.0745(3)
H8 H 0.8710 0.4658 1.0843
C10 C 0.4199(4) 0.8178(3) 0.8462(2)
Cl1 Cl 0.56585(11) 1.25916(9) 0.53605(7)
H9 H 0.926(3) 0.950(4) 0.811(3)
H10 H 0.746(5) 0.942(4) 0.781(4)
H11 H 0.123(9) 1.185(3) 0.429(4)
N1 N 1.0181(4) 0.6879(3) 1.3571(2)
N2 N 1.0372(4) 0.4369(3) 1.3589(2)
N3 N 0.8622(4) 0.5354(3) 1.31160(19)
N4 N 0.2282(4) 0.8770(3) 0.81551(18)
N5 N 0.2304(4) 0.9385(3) 0.70982(18)
N6 N 0.4161(4) 0.9166(3) 0.67945(19)
N7 N 0.5405(4) 0.8390(3) 0.76399(19)
O1 O 0.1568(3) 1.0927(2) 0.46506(15)
O2 O 0.8192(4) 1.0048(3) 0.77527(19)
Cd2A Cd 0.06855(3) 0.90831(2) 0.398500(16)
Cd2A_2 Cd 1.06855(3) 0.90831(2) 1.398500(16)
Cd2_2 Cd -0.06855(3) 1.09169(2) 0.601500(16)
Cd2_3 Cd -0.06855(3) 1.09169(2) -0.398500(16)
Cd2A_3 Cd 1.06855(3) 0.90831(2) 0.398500(16)
C1A C -0.1246(5) 1.4650(4) -0.3847(3)
H1A H -0.2495 1.4984 -0.4192
C2A C 0.1457(5) 1.3188(4) -0.3127(3)
H2A H 0.2528 1.2317 -0.2857
C3A C 0.2903(5) 1.5256(4) -0.2739(2)
H3A H 0.4014 1.5185 -0.3223
H4A H 0.2331 1.6358 -0.2738
C4A C 0.3657(5) 1.4327(4) -0.1622(2)
C5A C 0.5483(6) 1.3227(5) -0.1461(3)
H5A H 0.6261 1.3039 -0.2045
C6A C 0.6189(6) 1.2389(5) -0.0435(3)
H6A H 0.7431 1.1642 -0.0338
C7A C 0.5069(4) 1.2655(4) 0.0434(2)
C8A C 0.3218(5) 1.3757(5) 0.0279(3)
H7A H 0.2435 1.3937 0.0862
C9A C 0.2529(5) 1.4592(5) -0.0745(3)
H8A H 0.1290 1.5342 -0.0843
C10A C 0.5801(4) 1.1822(3) 0.1538(2)
Cl1A Cl 0.43415(11) 0.74084(9) 0.46395(7)
H9A H 0.074(3) 1.050(4) 0.189(3)
H10A H 0.254(5) 1.058(4) 0.219(4)
H11A H 0.877(9) 0.815(3) 0.571(4)
H11_2 H 1.123(9) 1.185(3) 0.429(4)
H11A_2 H -0.123(9) 0.815(3) 0.571(4)
N1A N -0.0181(4) 1.3121(3) -0.3571(2)
N1A_2 N 0.9819(4) 1.3121(3) 0.6429(2)
N1_2 N 0.0181(4) 0.6879(3) 0.3571(2)
N2A N -0.0372(4) 1.5631(3) -0.3589(2)
N3A N 0.1378(4) 1.4646(3) -0.31160(19)
N4A N 0.7718(4) 1.1230(3) 0.18449(18)
N5A N 0.7696(4) 1.0615(3) 0.29018(18)
N5_2 N 1.2304(4) 0.9385(3) 0.70982(18)
N5A_2 N -0.2304(4) 1.0615(3) 0.29018(18)
N6A N 0.5839(4) 1.0834(3) 0.32055(19)
N7A N 0.4595(4) 1.1610(3) 0.23601(19)
O1A O 0.8432(3) 0.9073(2) 0.53494(15)
O1_2 O 1.1568(3) 1.0927(2) 0.46506(15)
O1A_2 O -0.1568(3) 0.9073(2) 0.53494(15)
O2A O 0.1808(4) 0.9952(3) 0.22473(19)
loop_
_geom_bond_atom_site_label_1
_geom_bond_atom_site_label_2
_geom_bond_site_symmetry_1
_geom_bond_site_symmetry_2
Cd1 Cl1 1_555 1_555
Cd2 Cl1 1_555 1_555
C1 H1 1_555 1_555
C2 H2 1_555 1_555
C3 H3 1_555 1_555
H4 C3 1_555 1_555
C4 C3 1_555 1_555
C5 C4 1_555 1_555
H5 C5 1_555 1_555
C6 C5 1_555 1_555
H6 C6 1_555 1_555
C7 C6 1_555 1_555
C8 C7 1_555 1_555
H7 C8 1_555 1_555
C9 C4 1_555 1_555
H8 C9 1_555 1_555
C10 C7 1_555 1_555
H9 O2 1_555 1_555
H10 O2 1_555 1_555
H11 O1 1_555 1_555
N1 C1 1_555 1_555
N2 C1 1_555 1_555
N3 C2 1_555 1_555
N4 C10 1_555 1_555
N5 N4 1_555 1_555
N6 Cd1 1_555 1_555
N7 C10 1_555 1_555
O1 Cd1 1_555 1_555
O2 Cd2 1_555 1_555
Cd2A O1 1_555 1_555
Cd2A_2 N1 1_555 1_555
Cd2_2 N5 1_555 1_555
Cd2_3 N1A 1_555 1_555
Cd2A_3 N5A 1_555 1_555
C1A H1A 1_555 1_555
C2A H2A 1_555 1_555
C3A H3A 1_555 1_555
H4A C3A 1_555 1_555
C4A C3A 1_555 1_555
C5A C4A 1_555 1_555
H5A C5A 1_555 1_555
C6A C5A 1_555 1_555
H6A C6A 1_555 1_555
C7A C6A 1_555 1_555
C8A C7A 1_555 1_555
H7A C8A 1_555 1_555
C9A C4A 1_555 1_555
H8A C9A 1_555 1_555
C10A C7A 1_555 1_555
Cl1A Cd1 1_555 1_555
H9A O2A 1_555 1_555
H10A O2A 1_555 1_555
H11A O1A 1_555 1_555
H11_2 O1_2 1_555 1_555
H11A_2 O1A_2 1_555 1_555
N1A C1A 1_555 1_555
N1A_2 Cd2 1_555 1_555
N1_2 Cd2A 1_555 1_555
N2A C1A 1_555 1_555
N3A C2A 1_555 1_555
N4A C10A 1_555 1_555
N5A N4A 1_555 1_555
N5_2 Cd2 1_555 1_555
N5A_2 Cd2A 1_555 1_555
N6A Cd1 1_555 1_555
N7A C10A 1_555 1_555
O1A Cd1 1_555 1_555
O1_2 Cd2 1_555 1_555
O1A_2 Cd2A 1_555 1_555
O2A Cd2A 1_555 1_555
Cd2 O1A 1_555 1_555
C2 N1 1_555 1_555
C3 N3 1_555 1_555
C8 C9 1_555 1_555
N2 N3 1_555 1_555
N5 N6 1_555 1_555
N6 N7 1_555 1_555
O1 Cd2_2 1_555 1_555
Cd2A Cl1A 1_555 1_555
Cd2_2 O1A_2 1_555 1_555
Cd2A_3 O1A 1_555 1_555
Cd2A_3 O1_2 1_555 1_555
C2A N1A 1_555 1_555
C3A N3A 1_555 1_555
C8A C9A 1_555 1_555
N2A N3A 1_555 1_555
N5A N6A 1_555 1_555
N6A N7A 1_555 1_555

#END
