
#######################################################################
#
#                 Cambridge Crystallographic Data Centre
#                                CCDC 
#
#######################################################################
#
# If this CIF has been generated from an entry in the Cambridge 
# Structural Database, then it will include bibliographic, chemical, 
# crystal, experimental, refinement or atomic coordinate data resulting 
# from the CCDC's data processing and validation procedures.
#
#######################################################################

data_CEHXIY
_symmetry_cell_setting           monoclinic
_symmetry_space_group_name_H-M   'P 21/c'
_symmetry_Int_Tables_number      14
_space_group_name_Hall           '-P 2ybc'
loop_
_symmetry_equiv_pos_site_id
_symmetry_equiv_pos_as_xyz
1 x,y,z
2 -x,1/2+y,1/2-z
3 -x,-y,-z
4 x,1/2-y,1/2+z
_cell_length_a                   7.9687(2)
_cell_length_b                   11.6773(3)
_cell_length_c                   12.0331(4)
_cell_angle_alpha                90
_cell_angle_beta                 101.054(2)
_cell_angle_gamma                90
_cell_volume                     1098.94
loop_
_atom_site_label
_atom_site_type_symbol
_atom_site_fract_x
_atom_site_fract_y
_atom_site_fract_z
Cu1 Cu -1.18202(3) -0.09129(2) 0.272620(19)
Cu2 Cu -1.0000 -0.5000 0.5000
Cu3 Cu -1.0000 0.0000 0.5000
O1 O -1.26311(19) -0.27153(12) 0.29530(14)
O2 O -1.04160(17) -0.36837(12) 0.39557(12)
N1 N -0.7095(3) -0.1750(2) 0.3265(2)
N2 N -0.8245(2) -0.12568(16) 0.34531(15)
N3 N -0.9472(2) -0.07265(18) 0.36215(17)
N4 N -1.0178(3) -0.81119(18) 0.3872(2)
N5 N -0.9572(2) -0.72399(16) 0.37599(16)
N6 N -0.8963(2) -0.63032(16) 0.36856(15)
N7 N -1.2381(2) -0.02817(17) 0.41709(15)
N8 N -1.3317(2) -0.07701(15) 0.47092(17)
N9 N -1.4196(3) -0.1179(2) 0.5231(2)
N10 N -1.2414(2) -0.53780(15) 0.43165(14)
N11 N -1.5754(2) -0.55754(15) 0.31621(14)
C1 C -1.3359(3) -0.62861(18) 0.44763(19)
H1 H -1.2898 -0.6858 0.4981
C2 C -1.5028(3) -0.63748(18) 0.38889(18)
H2 H -1.5665 -0.7016 0.4006
C3 C -1.1967(2) -0.35527(17) 0.34766(16)
C4 C -1.4798(3) -0.46579(18) 0.30074(17)
H3 H -1.5264 -0.4086 0.2503
C5 C -1.3137(2) -0.45583(16) 0.35891(16)
Cu1B Cu -0.81798(3) -0.90871(2) 0.727380(19)
Cu1A Cu -0.81798(3) -0.59129(2) 0.227380(19)
Cu1A_2 Cu -1.81798(3) -0.59129(2) 0.227380(19)
Cu1C Cu -0.18202(3) -0.40871(2) 0.772620(19)
Cu1C_2 Cu -1.18202(3) -0.40871(2) 0.772620(19)
Cu3_2 Cu -1.0000 -1.0000 0.5000
O1B O -0.73689(19) -0.72847(12) 0.70470(14)
O2B O -0.95840(17) -0.63163(12) 0.60443(12)
N1B N -1.2905(3) -0.8250(2) 0.6735(2)
N2B N -1.1755(2) -0.87432(16) 0.65469(15)
N3B N -1.0528(2) -0.92735(18) 0.63785(17)
N3B_2 N -1.0528(2) 0.07265(18) 0.63785(17)
N4B N -0.9822(3) -0.18881(18) 0.6128(2)
N5B N -1.0428(2) -0.27601(16) 0.62401(16)
N6B N -1.1037(2) -0.36968(16) 0.63144(15)
N6A N -1.1037(2) -0.13032(16) 0.13144(15)
N6C N -0.8963(2) -0.86968(16) 0.86856(15)
N7B N -0.7619(2) -0.97183(17) 0.58291(15)
N7B_2 N -0.7619(2) 0.02817(17) 0.58291(15)
N8B N -0.6683(2) -0.92299(15) 0.52908(17)
N9B N -0.5804(3) -0.8821(2) 0.4769(2)
N10B N -0.7586(2) -0.46220(15) 0.56835(14)
N11B N -0.4246(2) -0.44246(15) 0.68379(14)
N11A N -1.4246(2) -0.05754(15) 0.18379(14)
N11C N -0.5754(2) -0.94246(15) 0.81621(14)
C1B C -0.6641(3) -0.37139(18) 0.55237(19)
H1B H -0.7102 -0.3142 0.5019
C2B C -0.4972(3) -0.36252(18) 0.61111(18)
H2B H -0.4335 -0.2984 0.5994
C3B C -0.8033(2) -0.64473(17) 0.65234(16)
C4B C -0.5202(3) -0.53421(18) 0.69926(17)
H3B H -0.4736 -0.5914 0.7497
C5B C -0.6863(2) -0.54417(16) 0.64109(16)
loop_
_geom_bond_atom_site_label_1
_geom_bond_atom_site_label_2
_geom_bond_site_symmetry_1
_geom_bond_site_symmetry_2
Cu1 O1 1_555 1_555
Cu2 O2 1_555 1_555
Cu3 N3 1_555 1_555
O1 C3 1_555 1_555
O2 C3 1_555 1_555
N1 N2 1_555 1_555
N2 N3 1_555 1_555
N3 Cu1 1_555 1_555
N4 N5 1_555 1_555
N5 N6 1_555 1_555
N6 Cu2 1_555 1_555
N7 Cu1 1_555 1_555
N8 N7 1_555 1_555
N9 N8 1_555 1_555
N10 Cu2 1_555 1_555
N11 C2 1_555 1_555
C1 N10 1_555 1_555
H1 C1 1_555 1_555
C2 C1 1_555 1_555
H2 C2 1_555 1_555
C3 C5 1_555 1_555
C4 N11 1_555 1_555
H3 C4 1_555 1_555
C5 N10 1_555 1_555
Cu1B O1B 1_555 1_555
Cu1A N6 1_555 1_555
Cu1A_2 N11 1_555 1_555
Cu1C N11B 1_555 1_555
Cu1C_2 N6B 1_555 1_555
Cu3_2 N3B 1_555 1_555
O1B C3B 1_555 1_555
O2B Cu2 1_555 1_555
N1B N2B 1_555 1_555
N2B N3B 1_555 1_555
N3B Cu1B 1_555 1_555
N3B_2 Cu3 1_555 1_555
N4B N5B 1_555 1_555
N5B N6B 1_555 1_555
N6B Cu2 1_555 1_555
N6A Cu1 1_555 1_555
N6C Cu1B 1_555 1_555
N7B Cu1B 1_555 1_555
N7B_2 Cu3 1_555 1_555
N8B N7B 1_555 1_555
N9B N8B 1_555 1_555
N10B Cu2 1_555 1_555
N11B C2B 1_555 1_555
N11A Cu1 1_555 1_555
N11C Cu1B 1_555 1_555
C1B N10B 1_555 1_555
H1B C1B 1_555 1_555
C2B C1B 1_555 1_555
H2B C2B 1_555 1_555
C3B O2B 1_555 1_555
C4B N11B 1_555 1_555
H3B C4B 1_555 1_555
C5B N10B 1_555 1_555
Cu3 N7 1_555 1_555
C4 C5 1_555 1_555
Cu3_2 N7B 1_555 1_555
C3B C5B 1_555 1_555
C4B C5B 1_555 1_555

#END
