
#######################################################################
#
#                 Cambridge Crystallographic Data Centre
#                                CCDC 
#
#######################################################################
#
# If this CIF has been generated from an entry in the Cambridge 
# Structural Database, then it will include bibliographic, chemical, 
# crystal, experimental, refinement or atomic coordinate data resulting 
# from the CCDC's data processing and validation procedures.
#
#######################################################################

data_CEHXUK
_symmetry_cell_setting           monoclinic
_symmetry_space_group_name_H-M   'P 21/c'
_symmetry_Int_Tables_number      14
_space_group_name_Hall           '-P 2ybc'
loop_
_symmetry_equiv_pos_site_id
_symmetry_equiv_pos_as_xyz
1 x,y,z
2 -x,1/2+y,1/2-z
3 -x,-y,-z
4 x,1/2-y,1/2+z
_cell_length_a                   9.754(3)
_cell_length_b                   9.034(3)
_cell_length_c                   27.203(8)
_cell_angle_alpha                90
_cell_angle_beta                 95.978(4)
_cell_angle_gamma                90
_cell_volume                     2384.03
loop_
_atom_site_label
_atom_site_type_symbol
_atom_site_fract_x
_atom_site_fract_y
_atom_site_fract_z
Cd1 Cd 0.35892(16) 0.57910(18) 0.17820(5)
Cd2 Cd 0.60847(17) 0.90882(17) 0.17719(5)
Cd3 Cd -0.01216(17) 0.79172(19) 0.15998(5)
O1 O 0.3923(16) 0.8124(17) 0.1469(6)
O2 O 0.1847(16) 0.9183(17) 0.1522(5)
O3 O 0.143(2) 1.101(2) -0.0963(7)
O4 O 0.341(2) 0.987(2) -0.1061(7)
O5 O 0.1235(17) 0.6086(19) 0.1288(6)
O6 O 0.2930(18) 0.4999(19) 0.0961(6)
N1 N 0.184(2) 0.578(2) 0.2356(7)
N2 N 0.185(2) 0.477(2) 0.2700(7)
N3 N 0.065(2) 0.649(2) 0.2318(7)
N4 N 0.064(2) 0.488(2) 0.2894(7)
N5 N -0.133(2) 0.640(3) 0.2763(8)
H1 H -0.1721 0.5970 0.2993
H2 H -0.1733 0.7110 0.2597
N6 N 0.399(2) 0.334(2) 0.1996(7)
N7 N 0.448(2) 0.298(2) 0.2465(7)
N8 N 0.513(2) 0.175(2) 0.2459(7)
N9 N 0.512(2) 0.126(2) 0.1990(7)
N10 N 0.418(2) 0.213(2) 0.1205(8)
H3 H 0.4464 0.1378 0.1051
H4 H 0.3733 0.2827 0.1042
N11 N 0.675(2) 0.673(2) 0.1593(7)
N12 N 0.592(2) 0.564(2) 0.1613(7)
N13 N 0.666(2) 0.435(2) 0.1583(8)
N14 N 0.901(2) 0.386(3) 0.1590(8)
H5 H 0.8880 0.2921 0.1613
H6 H 0.9830 0.4199 0.1580
N15 N 0.807(2) 0.624(2) 0.1559(8)
C1 C 0.275(2) 0.914(3) 0.0733(8)
C2 C 0.365(3) 0.850(3) 0.0439(9)
H7 H 0.4331 0.7860 0.0579
C3 C 0.356(3) 0.881(3) -0.0078(9)
H8 H 0.4133 0.8335 -0.0281
C4 C 0.260(3) 0.986(3) -0.0270(9)
C5 C 0.164(3) 1.049(3) 0.0014(9)
H9 H 0.0943 1.1115 -0.0125
C6 C 0.177(3) 1.014(3) 0.0522(10)
H10 H 0.1184 1.0599 0.0724
C7 C 0.287(2) 0.881(2) 0.1272(8)
C8 C 0.246(3) 1.027(3) -0.0810(10)
C9 C -0.007(2) 0.595(3) 0.2663(8)
C10 C 0.171(2) 0.544(2) 0.0915(8)
C11 C 0.081(3) 0.524(3) 0.0442(8)
C12 C 0.140(3) 0.463(3) 0.0033(10)
H11 H 0.2335 0.4409 0.0051
C13 C -0.051(3) 0.562(3) 0.0406(10)
H12 H -0.0868 0.6055 0.0675
C14 C 0.446(2) 0.224(3) 0.1721(9)
C15 C 0.799(3) 0.475(3) 0.1571(11)
Cd1B Cd -0.35892(16) 0.42090(18) -0.17820(5)
Cd1A Cd 0.64108(16) 0.07910(18) 0.32180(5)
Cd1A_2 Cd 0.64108(16) 1.07910(18) 0.32180(5)
Cd1B_2 Cd 0.64108(16) 1.42090(18) -0.17820(5)
Cd1_2 Cd -0.64108(16) 0.57910(18) 0.17820(5)
Cd2B Cd 0.39153(17) 1.09118(17) -0.17719(5)
Cd2A Cd 0.39153(17) 0.40882(17) 0.32281(5)
Cd2_2 Cd 0.60847(17) -0.09118(17) 0.17719(5)
Cd2_3 Cd -0.39153(17) 0.90882(17) 0.17719(5)
Cd3B Cd 0.01216(17) 1.20828(19) -0.15998(5)
Cd3A Cd 0.01216(17) 0.29172(19) 0.34002(5)
Cd3_2 Cd 0.98784(17) 0.79172(19) 0.15998(5)
Cd3B_2 Cd 0.01216(17) 0.20828(19) -0.15998(5)
Cd3B_3 Cd 1.01216(17) 1.20828(19) -0.15998(5)
Cd3A_2 Cd 1.01216(17) 1.29172(19) 0.34002(5)
O1B O 0.6077(16) 1.1876(17) -0.1469(6)
O1B_2 O -0.3923(16) 0.1876(17) -0.1469(6)
O2B O 0.8153(16) 1.0817(17) -0.1522(5)
O2B_2 O -0.1847(16) 1.0817(17) -0.1522(5)
O3B O 0.857(2) 0.899(2) 0.0963(7)
O3B_2 O -0.143(2) 0.899(2) 0.0963(7)
O4B O 0.659(2) 1.013(2) 0.1061(7)
O5B O -0.1235(17) 0.3914(19) -0.1288(6)
O5B_2 O -0.1235(17) 1.3914(19) -0.1288(6)
O6B O -0.2930(18) 0.5001(19) -0.0961(6)
N1A N 0.816(2) 1.078(2) 0.2644(7)
N1B N -0.184(2) 0.422(2) -0.2356(7)
N2A N 0.815(2) 0.977(2) 0.2300(7)
N2C N 0.185(2) 1.023(2) -0.2300(7)
N3A N 0.935(2) 1.149(2) 0.2682(7)
N3B N -0.065(2) 1.351(2) -0.2318(7)
N4A N 0.936(2) 0.988(2) 0.2106(7)
N4A_2 N -0.064(2) 0.988(2) 0.2106(7)
N4C N 0.064(2) 1.012(2) -0.2106(7)
N5A N 1.133(2) 1.140(3) 0.2237(8)
H1A H 1.1721 1.0970 0.2007
H2A H 1.1733 1.2110 0.2403
N6A N 0.601(2) 0.834(2) 0.3004(7)
N6B N -0.399(2) 0.666(2) -0.1996(7)
N7A N 0.552(2) 0.798(2) 0.2535(7)
N7C N 0.448(2) 1.202(2) -0.2535(7)
N8A N 0.487(2) 0.675(2) 0.2541(7)
N8C N -0.487(2) 0.325(2) -0.2541(7)
N9A N 0.488(2) 0.626(2) 0.3010(7)
N9_2 N 0.512(2) 1.126(2) 0.1990(7)
N9B N 0.488(2) 0.874(2) -0.1990(7)
N10A N 0.582(2) 0.713(2) 0.3795(8)
H3A H 0.5536 0.6378 0.3949
H4A H 0.6267 0.7827 0.3958
N11_2 N -0.325(2) 0.673(2) 0.1593(7)
N11B N 0.325(2) 1.327(2) -0.1593(7)
N12_2 N -0.408(2) 0.564(2) 0.1613(7)
N12B N -0.592(2) 0.436(2) -0.1613(7)
N13_2 N -0.334(2) 0.435(2) 0.1583(8)
N14_2 N -0.099(2) 0.386(3) 0.1590(8)
H5_2 H -0.1120 0.2921 0.1613
H6_2 H -0.0170 0.4199 0.1580
N15_2 N -0.193(2) 0.624(2) 0.1559(8)
N15B N 0.193(2) 1.376(2) -0.1559(8)
C1B C 0.725(2) 1.086(3) -0.0733(8)
C2B C 0.635(3) 1.150(3) -0.0439(9)
H7B H 0.5669 1.2140 -0.0579
C3B C 0.644(3) 1.119(3) 0.0078(9)
H8B H 0.5867 1.1665 0.0281
C4B C 0.740(3) 1.014(3) 0.0270(9)
C5B C 0.836(3) 0.951(3) -0.0014(9)
H9B H 0.9057 0.8885 0.0125
C6B C 0.823(3) 0.986(3) -0.0522(10)
H10B H 0.8816 0.9401 -0.0724
C7B C 0.713(2) 1.119(2) -0.1272(8)
C8B C 0.754(3) 0.973(3) 0.0810(10)
C9A C 1.007(2) 1.095(3) 0.2337(8)
C10B C -0.171(2) 0.456(2) -0.0915(8)
C11B C -0.081(3) 0.476(3) -0.0442(8)
C12B C -0.140(3) 0.537(3) -0.0033(10)
H11B H -0.2335 0.5591 -0.0051
C13B C 0.051(3) 0.438(3) -0.0406(10)
H12B H 0.0868 0.3945 -0.0675
C14A C 0.554(2) 0.724(3) 0.3279(9)
C15_2 C -0.201(3) 0.475(3) 0.1571(11)
loop_
_geom_bond_atom_site_label_1
_geom_bond_atom_site_label_2
_geom_bond_site_symmetry_1
_geom_bond_site_symmetry_2
Cd1 O1 1_555 1_555
Cd2 O1 1_555 1_555
Cd3 O2 1_555 1_555
O1 C7 1_555 1_555
O2 C7 1_555 1_555
O3 C8 1_555 1_555
O4 C8 1_555 1_555
O5 Cd1 1_555 1_555
O6 Cd1 1_555 1_555
N1 Cd1 1_555 1_555
N2 N1 1_555 1_555
N3 Cd3 1_555 1_555
N4 N2 1_555 1_555
N5 H1 1_555 1_555
H2 N5 1_555 1_555
N6 Cd1 1_555 1_555
N7 N6 1_555 1_555
N8 N7 1_555 1_555
N9 N8 1_555 1_555
N10 H3 1_555 1_555
H4 N10 1_555 1_555
N11 Cd2 1_555 1_555
N12 Cd1 1_555 1_555
N13 N12 1_555 1_555
N14 H5 1_555 1_555
H6 N14 1_555 1_555
N15 N11 1_555 1_555
C1 C2 1_555 1_555
C2 H7 1_555 1_555
C3 C2 1_555 1_555
H8 C3 1_555 1_555
C4 C3 1_555 1_555
C5 C4 1_555 1_555
H9 C5 1_555 1_555
C6 C1 1_555 1_555
H10 C6 1_555 1_555
C7 C1 1_555 1_555
C8 C4 1_555 1_555
C9 N3 1_555 1_555
C10 O5 1_555 1_555
C11 C10 1_555 1_555
C12 C11 1_555 1_555
H11 C12 1_555 1_555
C13 C11 1_555 1_555
H12 C13 1_555 1_555
C14 N6 1_555 1_555
C15 N13 1_555 1_555
Cd1B O1B_2 1_555 1_555
Cd1A N8 1_555 1_555
Cd1A_2 N1A 1_555 1_555
Cd1B_2 O1B 1_555 1_555
Cd1_2 N12_2 1_555 1_555
Cd2B O4 1_555 1_555
Cd2A N2 1_555 1_555
Cd2_2 N9 1_555 1_555
Cd2_3 N11_2 1_555 1_555
Cd3B O3 1_555 1_555
Cd3A N4 1_555 1_555
Cd3_2 N15 1_555 1_555
Cd3B_2 O5B 1_555 1_555
Cd3B_3 O2B 1_555 1_555
Cd3A_2 N3A 1_555 1_555
O1B Cd2B 1_555 1_555
O2B C7B 1_555 1_555
O2B_2 Cd3B 1_555 1_555
O3B Cd3_2 1_555 1_555
O3B_2 Cd3 1_555 1_555
O4B Cd2 1_555 1_555
O5B Cd1B 1_555 1_555
O5B_2 Cd3B 1_555 1_555
O6B Cd1B 1_555 1_555
N1A N2A 1_555 1_555
N1B Cd1B 1_555 1_555
N2A Cd2 1_555 1_555
N2C Cd2B 1_555 1_555
N3A N1A 1_555 1_555
N3B Cd3B 1_555 1_555
N4A Cd3_2 1_555 1_555
N4A_2 Cd3 1_555 1_555
N4C Cd3B 1_555 1_555
N5A H1A 1_555 1_555
H2A N5A 1_555 1_555
N6A Cd1A_2 1_555 1_555
N6B Cd1B 1_555 1_555
N7A Cd2 1_555 1_555
N7C Cd2B 1_555 1_555
N8A Cd1 1_555 1_555
N8C Cd1B 1_555 1_555
N9A Cd2A 1_555 1_555
N9_2 Cd2 1_555 1_555
N9B Cd2B 1_555 1_555
N10A H3A 1_555 1_555
H4A N10A 1_555 1_555
N11_2 N12_2 1_555 1_555
N11B Cd2B 1_555 1_555
N12_2 N13_2 1_555 1_555
N12B Cd1B 1_555 1_555
N13_2 C15_2 1_555 1_555
N14_2 H5_2 1_555 1_555
H6_2 N14_2 1_555 1_555
N15_2 Cd3 1_555 1_555
N15B Cd3B 1_555 1_555
C1B C2B 1_555 1_555
C2B H7B 1_555 1_555
C3B C2B 1_555 1_555
H8B C3B 1_555 1_555
C4B C3B 1_555 1_555
C5B C4B 1_555 1_555
H9B C5B 1_555 1_555
C6B C1B 1_555 1_555
H10B C6B 1_555 1_555
C7B O1B 1_555 1_555
C8B O3B 1_555 1_555
C9A N3A 1_555 1_555
C10B O5B 1_555 1_555
C11B C10B 1_555 1_555
C12B C13 1_555 1_555
H11B C12B 1_555 1_555
C13B C12 1_555 1_555
H12B C13B 1_555 1_555
C14A N6A 1_555 1_555
C15_2 N14_2 1_555 1_555
Cd3 O5 1_555 1_555
O6 C10 1_555 1_555
N1 N3 1_555 1_555
N4 C9 1_555 1_555
N5 C9 1_555 1_555
N7 Cd2A 1_555 1_555
N9 C14 1_555 1_555
N10 C14 1_555 1_555
N11 N12 1_555 1_555
N14 C15 1_555 1_555
N15 C15 1_555 1_555
C5 C6 1_555 1_555
O4B C8B 1_555 1_555
O6B C10B 1_555 1_555
N2A N4A 1_555 1_555
N2C N4C 1_555 1_555
N4A C9A 1_555 1_555
N5A C9A 1_555 1_555
N6A N7A 1_555 1_555
N7A N8A 1_555 1_555
N8A N9A 1_555 1_555
N9A C14A 1_555 1_555
N10A C14A 1_555 1_555
N11_2 N15_2 1_555 1_555
N11B N15B 1_555 1_555
N15_2 C15_2 1_555 1_555
C1B C7B 1_555 1_555
C4B C8B 1_555 1_555
C5B C6B 1_555 1_555
C11B C12B 1_555 1_555
C11B C13B 1_555 1_555

#END
