
#######################################################################
#
#                 Cambridge Crystallographic Data Centre
#                                CCDC 
#
#######################################################################
#
# If this CIF has been generated from an entry in the Cambridge 
# Structural Database, then it will include bibliographic, chemical, 
# crystal, experimental, refinement or atomic coordinate data resulting 
# from the CCDC's data processing and validation procedures.
#
#######################################################################

data_CEHYOE
_symmetry_cell_setting           monoclinic
_symmetry_space_group_name_H-M   'P 21/c'
_symmetry_Int_Tables_number      14
_space_group_name_Hall           '-P 2ybc'
loop_
_symmetry_equiv_pos_site_id
_symmetry_equiv_pos_as_xyz
1 x,y,z
2 -x,1/2+y,1/2-z
3 -x,-y,-z
4 x,1/2-y,1/2+z
_cell_length_a                   11.408(4)
_cell_length_b                   10.571(3)
_cell_length_c                   13.291(4)
_cell_angle_alpha                90
_cell_angle_beta                 93.562(5)
_cell_angle_gamma                90
_cell_volume                     1599.72
loop_
_atom_site_label
_atom_site_type_symbol
_atom_site_fract_x
_atom_site_fract_y
_atom_site_fract_z
Ce1 Ce 0.350868(11) 0.159013(12) 0.161758(10)
O1 O 0.28641(17) 0.2115(2) 0.33161(14)
O2 O 0.31872(18) 0.2452(2) 0.49525(15)
O3 O 0.46947(17) 0.35587(16) 0.20171(16)
O4 O 0.63832(16) 0.44870(16) 0.25389(15)
O5 O 0.35403(15) -0.01758(18) 0.02859(14)
O6 O 0.45295(16) -0.10901(19) -0.09228(15)
N1 N 0.51988(19) 0.14218(18) 0.31176(16)
N2 N 0.12606(19) 0.0799(2) 0.14270(16)
N3 N 0.1738(2) 0.33370(19) 0.14910(17)
C1 C 0.1954(2) 0.4567(3) 0.1507(2)
H1 H 0.2731 0.4827 0.1603
C2 C 0.1094(3) 0.5492(3) 0.1390(2)
H2 H 0.1299 0.6343 0.1406
C3 C -0.0054(3) 0.5138(3) 0.1252(2)
H3 H -0.0645 0.5743 0.1181
C4 C -0.0325(2) 0.3849(3) 0.1220(2)
C5 C -0.1509(3) 0.3394(3) 0.1064(3)
H4 H -0.2123 0.3971 0.0992
C6 C -0.1746(2) 0.2149(3) 0.1020(2)
H5 H -0.2519 0.1880 0.0908
C7 C -0.0825(2) 0.1231(3) 0.1143(2)
C8 C -0.1047(2) -0.0082(3) 0.1101(2)
H6 H -0.1810 -0.0385 0.0992
C9 C -0.0127(3) -0.0898(3) 0.1223(2)
H7 H -0.0255 -0.1767 0.1199
C10 C 0.1016(3) -0.0422(3) 0.1384(2)
H8 H 0.1633 -0.0995 0.1464
C11 C 0.0350(2) 0.1624(2) 0.13084(19)
C12 C 0.0605(2) 0.2966(3) 0.13433(19)
C13 C 0.6124(2) 0.2362(2) 0.3007(2)
H9 H 0.6733 0.1991 0.2623
H10 H 0.6472 0.2574 0.3670
C14 C 0.5692(2) 0.3562(2) 0.2489(2)
C15 C 0.4688(3) 0.1435(3) 0.4110(2)
H11 H 0.4645 0.0514 0.4339
H12 H 0.5254 0.1810 0.4623
C16 C 0.3495(2) 0.2067(3) 0.4118(2)
C17 C 0.4438(2) -0.0358(2) -0.01851(19)
Ce1C Ce 0.350868(11) 0.340987(12) -0.338242(10)
Ce1C_2 Ce 0.350868(11) 0.340987(12) 0.661758(10)
Ce1A Ce 0.649132(11) 0.659013(12) 0.338242(10)
Ce1B Ce 0.649132(11) -0.159013(12) -0.161758(10)
O1C O 0.28641(17) 0.2885(2) -0.16839(14)
O2C O 0.31872(18) 0.2548(2) -0.00475(15)
O2_2 O 0.31872(18) 0.2452(2) -0.50475(15)
O3C O 0.46947(17) 0.14413(16) -0.29829(16)
O4C O 0.63832(16) 0.05130(16) -0.24611(15)
O4A O 0.36168(16) -0.05130(16) 0.24611(15)
O4B O 0.36168(16) 0.55130(16) -0.25389(15)
O5B O 0.64597(15) 0.01758(18) -0.02859(14)
O5C O 0.35403(15) 0.51758(18) -0.47141(14)
O6B O 0.54705(16) 0.10901(19) 0.09228(15)
O6A O 0.54705(16) 0.39099(19) -0.40772(15)
N1C N 0.51988(19) 0.35782(18) -0.18824(16)
N2C N 0.12606(19) 0.4201(2) -0.35730(16)
N3C N 0.1738(2) 0.16630(19) -0.35090(17)
C1C C 0.1954(2) 0.0433(3) -0.3493(2)
H1C H 0.2731 0.0173 -0.3397
C2C C 0.1094(3) -0.0492(3) -0.3610(2)
H2C H 0.1299 -0.1343 -0.3594
C3C C -0.0054(3) -0.0138(3) -0.3748(2)
H3C H -0.0645 -0.0743 -0.3819
C4C C -0.0325(2) 0.1151(3) -0.3780(2)
C5C C -0.1509(3) 0.1606(3) -0.3936(3)
H4C H -0.2123 0.1029 -0.4008
C6C C -0.1746(2) 0.2851(3) -0.3980(2)
H5C H -0.2519 0.3120 -0.4092
C7C C -0.0825(2) 0.3769(3) -0.3857(2)
C8C C -0.1047(2) 0.5082(3) -0.3899(2)
H6C H -0.1810 0.5385 -0.4008
C9C C -0.0127(3) 0.5898(3) -0.3777(2)
H7C H -0.0255 0.6767 -0.3801
C10C C 0.1016(3) 0.5422(3) -0.3616(2)
H8C H 0.1633 0.5995 -0.3536
C11C C 0.0350(2) 0.3376(2) -0.36916(19)
C12C C 0.0605(2) 0.2034(3) -0.36567(19)
C13C C 0.6124(2) 0.2638(2) -0.1993(2)
H9C H 0.6733 0.3009 -0.2377
H10C H 0.6472 0.2426 -0.1330
C14C C 0.5692(2) 0.1438(2) -0.2511(2)
C15C C 0.4688(3) 0.3565(3) -0.0890(2)
H11C H 0.4645 0.4486 -0.0661
H12C H 0.5254 0.3190 -0.0377
C16C C 0.3495(2) 0.2933(3) -0.0882(2)
C17B C 0.5562(2) 0.0358(2) 0.01851(19)
loop_
_geom_bond_atom_site_label_1
_geom_bond_atom_site_label_2
_geom_bond_site_symmetry_1
_geom_bond_site_symmetry_2
Ce1 O1 1_555 1_555
O1 C16 1_555 1_555
O2 C16 1_555 1_555
O3 Ce1 1_555 1_555
O4 C14 1_555 1_555
O5 Ce1 1_555 1_555
O6 C17 1_555 1_555
N1 Ce1 1_555 1_555
N2 Ce1 1_555 1_555
N3 Ce1 1_555 1_555
C1 N3 1_555 1_555
H1 C1 1_555 1_555
C2 C1 1_555 1_555
H2 C2 1_555 1_555
C3 C2 1_555 1_555
H3 C3 1_555 1_555
C4 C3 1_555 1_555
C5 C4 1_555 1_555
H4 C5 1_555 1_555
C6 C5 1_555 1_555
H5 C6 1_555 1_555
C7 C6 1_555 1_555
C8 C7 1_555 1_555
H6 C8 1_555 1_555
C9 C8 1_555 1_555
H7 C9 1_555 1_555
C10 N2 1_555 1_555
H8 C10 1_555 1_555
C11 N2 1_555 1_555
C12 N3 1_555 1_555
C13 N1 1_555 1_555
H9 C13 1_555 1_555
H10 C13 1_555 1_555
C14 O3 1_555 1_555
C15 N1 1_555 1_555
H11 C15 1_555 1_555
H12 C15 1_555 1_555
C16 C15 1_555 1_555
C17 O5 1_555 1_555
Ce1C O1C 1_555 1_555
Ce1C_2 O2 1_555 1_555
Ce1A O4 1_555 1_555
Ce1B O6 1_555 1_555
O1C C16C 1_555 1_555
O2C Ce1 1_555 1_555
O2_2 Ce1C 1_555 1_555
O3C Ce1C 1_555 1_555
O4C Ce1B 1_555 1_555
O4A Ce1 1_555 1_555
O4B Ce1C 1_555 1_555
O5B Ce1B 1_555 1_555
O5C Ce1C 1_555 1_555
O6B Ce1 1_555 1_555
O6A Ce1C 1_555 1_555
N1C Ce1C 1_555 1_555
N2C Ce1C 1_555 1_555
N3C Ce1C 1_555 1_555
C1C N3C 1_555 1_555
H1C C1C 1_555 1_555
C2C C1C 1_555 1_555
H2C C2C 1_555 1_555
C3C C2C 1_555 1_555
H3C C3C 1_555 1_555
C4C C3C 1_555 1_555
C5C C4C 1_555 1_555
H4C C5C 1_555 1_555
C6C C5C 1_555 1_555
H5C C6C 1_555 1_555
C7C C6C 1_555 1_555
C8C C7C 1_555 1_555
H6C C8C 1_555 1_555
C9C C8C 1_555 1_555
H7C C9C 1_555 1_555
C10C N2C 1_555 1_555
H8C C10C 1_555 1_555
C11C N2C 1_555 1_555
C12C N3C 1_555 1_555
C13C N1C 1_555 1_555
H9C C13C 1_555 1_555
H10C C13C 1_555 1_555
C14C O3C 1_555 1_555
C15C N1C 1_555 1_555
H11C C15C 1_555 1_555
H12C C15C 1_555 1_555
C16C O2C 1_555 1_555
C17B C17 1_555 1_555
C4 C12 1_555 1_555
C7 C11 1_555 1_555
C9 C10 1_555 1_555
C11 C12 1_555 1_555
C13 C14 1_555 1_555
O4C C14C 1_555 1_555
O5B C17B 1_555 1_555
O6B C17B 1_555 1_555
C4C C12C 1_555 1_555
C7C C11C 1_555 1_555
C9C C10C 1_555 1_555
C11C C12C 1_555 1_555
C13C C14C 1_555 1_555
C15C C16C 1_555 1_555

#END
