
#######################################################################
#
#                 Cambridge Crystallographic Data Centre
#                                CCDC 
#
#######################################################################
#
# If this CIF has been generated from an entry in the Cambridge 
# Structural Database, then it will include bibliographic, chemical, 
# crystal, experimental, refinement or atomic coordinate data resulting 
# from the CCDC's data processing and validation procedures.
#
#######################################################################

data_CEHYUK
_symmetry_cell_setting           cubic
_symmetry_space_group_name_H-M   'P 21 3'
_symmetry_Int_Tables_number      198
_space_group_name_Hall           'P 2ac 2ab 3'
loop_
_symmetry_equiv_pos_site_id
_symmetry_equiv_pos_as_xyz
1 x,y,z
2 1/2-x,-y,1/2+z
3 -x,1/2+y,1/2-z
4 1/2+x,1/2-y,-z
5 z,x,y
6 1/2+z,1/2-x,-y
7 1/2-z,-x,1/2+y
8 -z,1/2+x,1/2-y
9 y,z,x
10 -y,1/2+z,1/2-x
11 1/2+y,1/2-z,-x
12 1/2-y,-z,1/2+x
_cell_length_a                   16.1155(2)
_cell_length_b                   16.1155(2)
_cell_length_c                   16.1155(2)
_cell_angle_alpha                90
_cell_angle_beta                 90
_cell_angle_gamma                90
_cell_volume                     4185.35
loop_
_atom_site_label
_atom_site_type_symbol
_atom_site_fract_x
_atom_site_fract_y
_atom_site_fract_z
Mo1 Mo 0.37958(4) 0.62042(4) 1.12042(4)
N1 N 0.3819(3) 0.6281(3) 0.9983(2)
N2 N 0.3779(3) 0.7428(2) 1.1132(2)
C1 C 0.3781(4) 0.8747(4) 0.9244(4)
H1 H 0.3751 0.9302 0.9089
C2 C 0.3734(4) 0.7996(3) 1.1730(4)
H2 H 0.3745 0.7820 1.2279
C3 C 0.3824(3) 0.7078(3) 0.9703(3)
C4 C 0.3787(3) 0.7704(3) 1.0332(3)
C5 C 0.3944(5) 0.6648(5) 0.8289(4)
H3 H 0.4004 0.6765 0.7727
C6 C 0.3871(4) 0.7298(4) 0.8862(3)
C7 C 0.3671(6) 0.8849(4) 1.1567(5)
H4 H 0.3639 0.9227 1.2002
C8 C 0.3859(4) 0.8163(4) 0.8655(4)
H5 H 0.3905 0.8322 0.8103
C9 C 0.3658(5) 0.9124(4) 1.0749(5)
H6 H 0.3593 0.9685 1.0630
C10 C 0.3745(4) 0.8534(3) 1.0098(4)
C11 C 0.3854(5) 0.5679(4) 0.9407(3)
H7 H 0.3831 0.5128 0.9576
C12 C 0.3927(5) 0.5860(5) 0.8548(4)
H8 H 0.3962 0.5430 0.8165
N1F N 0.5017(2) 0.6181(3) 1.1281(3)
N1I N 0.3719(3) 0.4983(2) 1.1181(3)
N2F N 0.3868(2) 0.6221(3) 1.2428(2)
N2I N 0.2572(2) 0.6132(2) 1.1221(3)
C1F C 0.5756(4) 0.6219(4) 1.3747(4)
C1I C 0.1253(4) 0.4244(4) 1.1219(4)
H1F H 0.5911 0.6249 1.4302
H1I H 0.0698 0.4089 1.1249
C2F C 0.3270(4) 0.6266(4) 1.2996(3)
C2I C 0.2004(3) 0.6730(4) 1.1266(4)
H2F H 0.2721 0.6255 1.2820
H2I H 0.2180 0.7279 1.1255
C3F C 0.5297(3) 0.6176(3) 1.2078(3)
C3I C 0.2922(3) 0.4703(3) 1.1176(3)
C4F C 0.4668(3) 0.6213(3) 1.2704(3)
C4I C 0.2296(3) 0.5332(3) 1.1213(3)
C5F C 0.6711(4) 0.6056(5) 1.1648(5)
C5I C 0.3352(5) 0.3289(4) 1.1056(5)
H3F H 0.7273 0.5996 1.1765
H3I H 0.3235 0.2727 1.0996
C6F C 0.6138(3) 0.6129(4) 1.2298(4)
C6I C 0.2702(4) 0.3862(3) 1.1129(4)
C7F C 0.3433(5) 0.6329(6) 1.3849(4)
C7I C 0.1151(4) 0.6567(5) 1.1329(6)
H4F H 0.2998 0.6361 1.4227
H4I H 0.0773 0.7002 1.1361
C8F C 0.6345(4) 0.6141(4) 1.3163(4)
C8I C 0.1837(4) 0.3655(4) 1.1141(4)
H5F H 0.6897 0.6095 1.3322
H5I H 0.1678 0.3103 1.1095
C9F C 0.4251(5) 0.6342(5) 1.4124(4)
C9I C 0.0876(4) 0.5749(5) 1.1342(5)
H6F H 0.4370 0.6407 1.4685
H6I H 0.0315 0.5630 1.1407
C10F C 0.4902(4) 0.6255(4) 1.3534(3)
C10I C 0.1466(3) 0.5098(4) 1.1255(4)
C11F C 0.5593(3) 0.6146(5) 1.0679(4)
C11I C 0.4321(4) 0.4407(3) 1.1146(5)
H7F H 0.5424 0.6169 1.0128
H7I H 0.4872 0.4576 1.1169
C12F C 0.6452(4) 0.6073(5) 1.0860(5)
C12I C 0.4140(5) 0.3548(4) 1.1073(5)
H8F H 0.6835 0.6038 1.0430
H8I H 0.4570 0.3165 1.1038
Mo2 Mo 0.33844(5) 1.16156(5) 0.83844(5)
Na1 Na 0.4166(2) 0.9166(2) 0.5834(2)
O1 O 0.3876(5) 1.0772(4) 0.6092(4)
O2 O 0.3917(7) 0.9487(4) 0.7215(4)
C13 C 0.3703(5) 1.0914(4) 0.6812(4)
C14 C 0.3738(5) 1.0192(4) 0.7455(4)
O3 O 0.3624(4) 1.0410(3) 0.8199(3)
O4 O 0.3487(4) 1.1603(3) 0.7144(3)
Na1A Na 0.0834(2) 1.0834(2) 1.0834(2)
Na1B Na 0.5834(2) 1.4166(2) 0.9166(2)
O1E O 0.1092(4) 1.1124(5) 0.9228(4)
O1K O 0.4228(4) 1.3908(4) 0.8876(5)
O1G O 0.3908(4) 0.8876(5) 0.4228(4)
O1J O 0.5772(4) 0.8908(4) 0.6124(5)
O2E O 0.2215(4) 1.1083(7) 1.0513(4)
O2K O 0.5513(4) 1.2785(4) 0.8917(7)
O2G O 0.2785(4) 0.8917(7) 0.5513(4)
O2J O 0.4487(4) 0.7785(4) 0.6083(7)
C13E C 0.1812(4) 1.1297(5) 0.9086(4)
C13K C 0.4086(4) 1.3188(4) 0.8703(5)
C14E C 0.2455(4) 1.1262(5) 0.9808(4)
C14K C 0.4808(4) 1.2545(4) 0.8738(5)
O3E O 0.3199(3) 1.1376(4) 0.9590(3)
O3K O 0.4590(3) 1.1801(3) 0.8624(4)
O4E O 0.2144(3) 1.1513(4) 0.8397(3)
O4K O 0.3397(3) 1.2856(3) 0.8487(4)
loop_
_geom_bond_atom_site_label_1
_geom_bond_atom_site_label_2
_geom_bond_site_symmetry_1
_geom_bond_site_symmetry_2
Mo1 N1 1_555 1_555
N1 C3 1_555 1_555
N2 Mo1 1_555 1_555
C1 H1 1_555 1_555
C2 N2 1_555 1_555
H2 C2 1_555 1_555
C3 C4 1_555 1_555
C4 N2 1_555 1_555
C5 H3 1_555 1_555
C6 C3 1_555 1_555
C7 C2 1_555 1_555
H4 C7 1_555 1_555
C8 C1 1_555 1_555
H5 C8 1_555 1_555
C9 C7 1_555 1_555
H6 C9 1_555 1_555
C10 C1 1_555 1_555
C11 N1 1_555 1_555
H7 C11 1_555 1_555
C12 C5 1_555 1_555
H8 C12 1_555 1_555
Mo2 O3 1_555 1_555
Na1 O1 1_555 1_555
O1 C13 1_555 1_555
O2 Na1 1_555 1_555
C13 C14 1_555 1_555
C14 O2 1_555 1_555
O3 C14 1_555 1_555
O4 Mo2 1_555 1_555
N1F Mo1 1_555 1_555
N1I Mo1 1_555 1_555
N2F Mo1 1_555 1_555
N2I Mo1 1_555 1_555
C1F H1F 1_555 1_555
C1I H1I 1_555 1_555
C2F N2F 1_555 1_555
C2I N2I 1_555 1_555
H2F C2F 1_555 1_555
H2I C2I 1_555 1_555
C3F N1F 1_555 1_555
C3I N1I 1_555 1_555
C4F N2F 1_555 1_555
C4I N2I 1_555 1_555
C5F H3F 1_555 1_555
C5I H3I 1_555 1_555
C6F C3F 1_555 1_555
C6I C3I 1_555 1_555
C7F C2F 1_555 1_555
C7I C2I 1_555 1_555
H4F C7F 1_555 1_555
H4I C7I 1_555 1_555
C8F C1F 1_555 1_555
C8I C1I 1_555 1_555
H5F C8F 1_555 1_555
H5I C8I 1_555 1_555
C9F C7F 1_555 1_555
C9I C7I 1_555 1_555
H6F C9F 1_555 1_555
H6I C9I 1_555 1_555
C10F C1F 1_555 1_555
C10I C1I 1_555 1_555
C11F N1F 1_555 1_555
C11I N1I 1_555 1_555
H7F C11F 1_555 1_555
H7I C11I 1_555 1_555
C12F C5F 1_555 1_555
C12I C5I 1_555 1_555
H8F C12F 1_555 1_555
H8I C12I 1_555 1_555
Na1A O1E 1_555 1_555
Na1B O1K 1_555 1_555
O1E C13E 1_555 1_555
O1K C13K 1_555 1_555
O1G Na1 1_555 1_555
O1J Na1 1_555 1_555
O2E Na1A 1_555 1_555
O2K Na1B 1_555 1_555
O2G Na1 1_555 1_555
O2J Na1 1_555 1_555
C13E C14E 1_555 1_555
C13K C14K 1_555 1_555
C14E O2E 1_555 1_555
C14K O2K 1_555 1_555
O3E Mo2 1_555 1_555
O3K Mo2 1_555 1_555
O4E Mo2 1_555 1_555
O4K Mo2 1_555 1_555
C4 C10 1_555 1_555
C5 C6 1_555 1_555
C6 C8 1_555 1_555
C9 C10 1_555 1_555
C11 C12 1_555 1_555
C13 O4 1_555 1_555
C3F C4F 1_555 1_555
C3I C4I 1_555 1_555
C4F C10F 1_555 1_555
C4I C10I 1_555 1_555
C5F C6F 1_555 1_555
C5I C6I 1_555 1_555
C6F C8F 1_555 1_555
C6I C8I 1_555 1_555
C9F C10F 1_555 1_555
C9I C10I 1_555 1_555
C11F C12F 1_555 1_555
C11I C12I 1_555 1_555
C13E O4E 1_555 1_555
C13K O4K 1_555 1_555
C14E O3E 1_555 1_555
C14K O3K 1_555 1_555

#END
