
#######################################################################
#
#                 Cambridge Crystallographic Data Centre
#                                CCDC 
#
#######################################################################
#
# If this CIF has been generated from an entry in the Cambridge 
# Structural Database, then it will include bibliographic, chemical, 
# crystal, experimental, refinement or atomic coordinate data resulting 
# from the CCDC's data processing and validation procedures.
#
#######################################################################

data_CEHYEV
_symmetry_cell_setting           orthorhombic
_symmetry_space_group_name_H-M   'P b c a'
_symmetry_Int_Tables_number      61
_space_group_name_Hall           '-P 2ac 2ab'
loop_
_symmetry_equiv_pos_site_id
_symmetry_equiv_pos_as_xyz
1 x,y,z
2 1/2-x,-y,1/2+z
3 -x,1/2+y,1/2-z
4 1/2+x,1/2-y,-z
5 -x,-y,-z
6 1/2+x,y,1/2-z
7 x,1/2-y,1/2+z
8 1/2-x,1/2+y,z
_cell_length_a                   17.4770(16)
_cell_length_b                   9.2600(8)
_cell_length_c                   20.7917(19)
_cell_angle_alpha                90
_cell_angle_beta                 90
_cell_angle_gamma                90
_cell_volume                     3364.87
loop_
_atom_site_label
_atom_site_type_symbol
_atom_site_fract_x
_atom_site_fract_y
_atom_site_fract_z
Cd1 Cd -0.366806(18) 0.21915(3) 0.878807(14)
O1 O -0.49492(17) 0.1709(3) 0.85238(15)
O2 O -0.42919(19) 0.2986(3) 0.78192(16)
N1 N -0.6639(2) 0.4832(4) 0.64229(18)
N2 N -0.7532(2) 0.3175(4) 0.65045(18)
N3 N -0.3516(2) 0.1846(4) 0.99107(19)
N4 N -0.3991(2) 0.4355(4) 0.93377(18)
C1 C -0.3308(3) 0.0608(6) 1.0192(3)
H1 H -0.3209 -0.0192 0.9934
C2 C -0.3232(4) 0.0468(7) 1.0863(3)
H2 H -0.3091 -0.0411 1.1044
C3 C -0.3368(4) 0.1632(8) 1.1244(3)
H3 H -0.3328 0.1547 1.1688
C4 C -0.3568(3) 0.2957(6) 1.0969(3)
C5 C -0.3646(3) 0.3012(5) 1.0286(2)
C6 C -0.3686(3) 0.4226(7) 1.1335(3)
H4 H -0.3632 0.4189 1.1779
C7 C -0.3876(3) 0.5491(7) 1.1052(3)
H5 H -0.3934 0.6314 1.1304
C8 C -0.3991(3) 0.5581(6) 1.0369(2)
C9 C -0.4238(3) 0.6840(5) 1.0056(3)
H6 H -0.4328 0.7674 1.0294
C10 C -0.4347(3) 0.6851(5) 0.9406(3)
H7 H -0.4505 0.7685 0.9195
C11 C -0.4214(3) 0.5561(5) 0.9065(3)
H8 H -0.4288 0.5565 0.8622
C12 C -0.3876(3) 0.4344(5) 0.9983(2)
C13 C -0.6958(2) 0.2789(5) 0.6913(2)
C14 C -0.6387(2) 0.3828(4) 0.6858(2)
C15 C -0.5692(2) 0.3703(5) 0.7196(2)
H9 H -0.5304 0.4381 0.7147
C16 C -0.5609(3) 0.2545(4) 0.7600(2)
C17 C -0.6198(2) 0.1502(5) 0.7670(2)
H10 H -0.6128 0.0738 0.7954
C18 C -0.6869(3) 0.1593(5) 0.7329(2)
H11 H -0.7250 0.0897 0.7370
C19 C -0.4900(3) 0.2408(5) 0.8003(2)
C20 C -0.7325(2) 0.4390(4) 0.62228(18)
H12 H -0.7536 0.5303 0.6095
Cd1B Cd -0.633194(18) 0.71915(3) 0.621193(14)
Cd1E Cd -0.866806(18) 0.21915(3) 0.621193(14)
N1B N -0.3361(2) -0.0168(4) 0.85771(18)
N2E N -0.2532(2) 0.3175(4) 0.84955(18)
loop_
_geom_bond_atom_site_label_1
_geom_bond_atom_site_label_2
_geom_bond_site_symmetry_1
_geom_bond_site_symmetry_2
Cd1 O1 1_555 1_555
O1 C19 1_555 1_555
O2 Cd1 1_555 1_555
N1 C14 1_555 1_555
N2 C13 1_555 1_555
N3 Cd1 1_555 1_555
N4 Cd1 1_555 1_555
C1 N3 1_555 1_555
H1 C1 1_555 1_555
C2 C1 1_555 1_555
H2 C2 1_555 1_555
C3 C2 1_555 1_555
H3 C3 1_555 1_555
C4 C3 1_555 1_555
C5 N3 1_555 1_555
C6 C4 1_555 1_555
H4 C6 1_555 1_555
C7 C6 1_555 1_555
H5 C7 1_555 1_555
C8 C7 1_555 1_555
C9 C8 1_555 1_555
H6 C9 1_555 1_555
C10 C9 1_555 1_555
H7 C10 1_555 1_555
C11 N4 1_555 1_555
H8 C11 1_555 1_555
C12 N4 1_555 1_555
C13 C14 1_555 1_555
C14 C15 1_555 1_555
C15 H9 1_555 1_555
C16 C15 1_555 1_555
C17 C16 1_555 1_555
H10 C17 1_555 1_555
C18 C13 1_555 1_555
H11 C18 1_555 1_555
C19 O2 1_555 1_555
C20 N1 1_555 1_555
H12 C20 1_555 1_555
Cd1B N1 1_555 1_555
Cd1E N2 1_555 1_555
N1B Cd1 1_555 1_555
N2E Cd1 1_555 1_555
N2 C20 1_555 1_555
C4 C5 1_555 1_555
C5 C12 1_555 1_555
C8 C12 1_555 1_555
C10 C11 1_555 1_555
C16 C19 1_555 1_555
C17 C18 1_555 1_555

#END
