
#######################################################################
#
#                 Cambridge Crystallographic Data Centre
#                                CCDC 
#
#######################################################################
#
# If this CIF has been generated from an entry in the Cambridge 
# Structural Database, then it will include bibliographic, chemical, 
# crystal, experimental, refinement or atomic coordinate data resulting 
# from the CCDC's data processing and validation procedures.
#
#######################################################################

data_CEHYIZ
_symmetry_cell_setting           monoclinic
_symmetry_space_group_name_H-M   'P 21/c'
_symmetry_Int_Tables_number      14
_space_group_name_Hall           '-P 2ybc'
loop_
_symmetry_equiv_pos_site_id
_symmetry_equiv_pos_as_xyz
1 x,y,z
2 -x,1/2+y,1/2-z
3 -x,-y,-z
4 x,1/2-y,1/2+z
_cell_length_a                   7.1510(14)
_cell_length_b                   26.747(5)
_cell_length_c                   11.612(4)
_cell_angle_alpha                90
_cell_angle_beta                 123.79(2)
_cell_angle_gamma                90
_cell_volume                     1845.83
loop_
_atom_site_label
_atom_site_type_symbol
_atom_site_fract_x
_atom_site_fract_y
_atom_site_fract_z
Eu1 Eu -0.72799(3) -0.052076(6) 0.108869(17)
O1 O -0.7012(4) -0.00973(11) 0.3018(3)
O2 O -1.0191(4) 0.00945(10) 0.1106(3)
O3 O -1.3776(4) 0.07088(10) 0.0442(3)
O4 O -1.5534(4) 0.02573(10) 0.1157(3)
O5 O -0.6710(5) -0.14476(10) 0.1054(3)
O6 O -0.6900(4) -0.11834(10) 0.2768(3)
O7 O -0.7900(7) -0.22915(13) -0.0122(4)
H1 H -0.7383 -0.2019 0.0240
O8 O -0.7738(9) -0.30634(15) 0.0496(4)
O9 O -1.0926(5) -0.09300(11) -0.0037(3)
H2 H -1.1001 -0.1162 -0.0562
H3 H -1.1084 -0.1054 0.0578
N1 N -0.6882(5) 0.06867(12) 0.7052(3)
N2 N -1.0368(5) 0.09257(12) 0.6293(3)
H4 H -1.1469 0.1043 0.6313
N3 N -0.1475(6) -0.24256(14) 0.6637(4)
H5 H -0.1021 -0.2198 0.7261
N4 N -0.1836(7) -0.31760(14) 0.5699(4)
C1 C -0.8893(6) 0.01129(13) 0.2425(4)
C2 C -0.9554(6) 0.03609(13) 0.3310(4)
C3 C -0.7811(6) 0.04095(13) 0.4698(4)
H6 H -0.6359 0.0309 0.5009
C4 C -0.8284(6) 0.06109(13) 0.5614(4)
C5 C -0.8220(6) 0.08755(14) 0.7386(4)
H7 H -0.7732 0.0965 0.8286
C6 C -1.0472(6) 0.07558(13) 0.5144(4)
C7 C -1.2252(6) 0.06984(14) 0.3767(4)
H8 H -1.3710 0.0788 0.3473
C8 C -1.1782(6) 0.05026(13) 0.2838(3)
C9 C -1.3808(6) 0.04740(13) 0.1367(4)
C10 C -0.6454(6) -0.15258(14) 0.2213(4)
C11 C -0.5434(7) -0.20097(14) 0.2987(4)
C12 C -0.4089(7) -0.19468(15) 0.4410(5)
H9 H -0.3955 -0.1636 0.4810
C13 C -0.2944(7) -0.23619(15) 0.5222(4)
C14 C -0.0889(8) -0.29135(16) 0.6851(5)
H10 H 0.0088 -0.3050 0.7726
C15 C -0.3158(7) -0.28353(15) 0.4647(5)
C16 C -0.4573(8) -0.29003(16) 0.3223(5)
H11 H -0.4763 -0.3216 0.2840
C17 C -0.5709(7) -0.24917(15) 0.2369(4)
C18 C -0.7224(8) -0.26316(18) 0.0842(5)
Eu1B Eu -1.27201(3) 0.052076(6) -0.108869(17)
Eu1_2 Eu -1.72799(3) -0.052076(6) 0.108869(17)
Eu1B_2 Eu -0.27201(3) 0.052076(6) 0.891131(17)
O2B O -0.9809(4) -0.00945(10) -0.1106(3)
O3B O -0.6224(4) -0.07088(10) -0.0442(3)
O4_2 O -0.5534(4) 0.02573(10) 0.1157(3)
N1B N -0.3118(5) -0.06867(12) 0.2948(3)
O10 O -0.0667(13) -0.1466(2) 0.7740(7)
H12 H 0.0217 -0.1486 0.8616
H13 H -0.1895 -0.1331 0.7529
loop_
_geom_bond_atom_site_label_1
_geom_bond_atom_site_label_2
_geom_bond_site_symmetry_1
_geom_bond_site_symmetry_2
Eu1 O1 1_555 1_555
O1 C1 1_555 1_555
O2 Eu1 1_555 1_555
O3 C9 1_555 1_555
O4 C9 1_555 1_555
O5 Eu1 1_555 1_555
O6 Eu1 1_555 1_555
O7 H1 1_555 1_555
O8 C18 1_555 1_555
O9 Eu1 1_555 1_555
H2 O9 1_555 1_555
H3 O9 1_555 1_555
N1 C4 1_555 1_555
N2 H4 1_555 1_555
N3 H5 1_555 1_555
N4 C14 1_555 1_555
C1 O2 1_555 1_555
C2 C1 1_555 1_555
C3 C2 1_555 1_555
H6 C3 1_555 1_555
C4 C3 1_555 1_555
C5 N1 1_555 1_555
H7 C5 1_555 1_555
C6 N2 1_555 1_555
C7 C6 1_555 1_555
H8 C7 1_555 1_555
C8 C2 1_555 1_555
C9 C8 1_555 1_555
C10 O5 1_555 1_555
C11 C10 1_555 1_555
C12 C11 1_555 1_555
H9 C12 1_555 1_555
C13 N3 1_555 1_555
C14 N3 1_555 1_555
H10 C14 1_555 1_555
C15 N4 1_555 1_555
C16 C15 1_555 1_555
H11 C16 1_555 1_555
C17 C11 1_555 1_555
C18 O7 1_555 1_555
O10 H12 1_555 1_555
H13 O10 1_555 1_555
Eu1B O2 1_555 1_555
Eu1_2 O4 1_555 1_555
Eu1B_2 N1 1_555 1_555
O2B Eu1 1_555 1_555
O3B Eu1 1_555 1_555
O4_2 Eu1 1_555 1_555
N1B Eu1 1_555 1_555
O3 Eu1B 1_555 1_555
O6 C10 1_555 1_555
N2 C5 1_555 1_555
C4 C6 1_555 1_555
C7 C8 1_555 1_555
C12 C13 1_555 1_555
C13 C15 1_555 1_555
C16 C17 1_555 1_555
C17 C18 1_555 1_555
Eu1B O2B 1_555 1_555

#END
