
#######################################################################
#
#                 Cambridge Crystallographic Data Centre
#                                CCDC 
#
#######################################################################
#
# If this CIF has been generated from an entry in the Cambridge 
# Structural Database, then it will include bibliographic, chemical, 
# crystal, experimental, refinement or atomic coordinate data resulting 
# from the CCDC's data processing and validation procedures.
#
#######################################################################

data_CEHZEW
_symmetry_cell_setting           monoclinic
_symmetry_space_group_name_H-M   'C 2/c'
_symmetry_Int_Tables_number      15
_space_group_name_Hall           '-C 2yn'
loop_
_symmetry_equiv_pos_site_id
_symmetry_equiv_pos_as_xyz
1 x,y,z
2 -x,y,1/2-z
3 1/2+x,1/2+y,z
4 1/2-x,1/2+y,1/2-z
5 -x,-y,-z
6 x,-y,1/2+z
7 1/2-x,1/2-y,-z
8 1/2+x,1/2-y,1/2+z
_cell_length_a                   33.794(4)
_cell_length_b                   13.7643(16)
_cell_length_c                   12.2604(14)
_cell_angle_alpha                90
_cell_angle_beta                 109.2080(10)
_cell_angle_gamma                90
_cell_volume                     5385.45
loop_
_atom_site_label
_atom_site_type_symbol
_atom_site_fract_x
_atom_site_fract_y
_atom_site_fract_z
Er1 Er 0.0000 0.765994(11) -0.7500
O1 O 0.07159(6) 0.81163(17) -0.65127(18)
O2 O 0.04330(6) 0.71914(15) -0.55351(17)
O3 O -0.02630(5) 0.61413(12) -0.71512(17)
N1 N 0.19093(9) 0.8525(2) 0.1742(3)
N2 N 0.27498(7) 0.90034(18) 0.0626(2)
N3 N 0.33620(8) 0.9082(2) -0.1255(3)
N4 N 0.03395(6) -0.15902(14) -0.87927(19)
N5 N 0.0000 -0.0542(2) -0.7500
C1 C 0.18471(13) 0.8409(4) 0.2752(4)
H1 H 0.1575 0.8307 0.2749
C2 C 0.21654(14) 0.8433(3) 0.3803(4)
H2 H 0.2110 0.8321 0.4486
C3 C 0.25637(13) 0.8625(3) 0.3816(3)
H3 H 0.2783 0.8662 0.4512
C4 C 0.26349(11) 0.8761(2) 0.2786(3)
H4 H 0.2903 0.8902 0.2775
C5 C 0.23021(10) 0.8686(2) 0.1765(3)
C6 C 0.23644(9) 0.8750(2) 0.0622(3)
C7 C 0.20443(9) 0.8524(2) -0.0383(3)
H5 H 0.1780 0.8370 -0.0355
C8 C 0.21156(9) 0.8527(2) -0.1436(3)
C9 C 0.25165(9) 0.8772(2) -0.1425(3)
H6 H 0.2579 0.8781 -0.2108
C10 C 0.28205(9) 0.9002(2) -0.0388(3)
C11 C 0.37575(12) 0.9330(3) -0.1190(4)
H7 H 0.3843 0.9190 -0.1819
C12 C 0.40350(12) 0.9769(3) -0.0262(4)
H8 H 0.4304 0.9920 -0.0260
C13 C 0.39160(12) 0.9985(4) 0.0659(4)
H9 H 0.4100 1.0298 0.1298
C14 C 0.35186(10) 0.9735(3) 0.0641(3)
H10 H 0.3431 0.9866 0.1270
C15 C 0.32537(9) 0.9286(2) -0.0332(3)
C16 C 0.17746(8) 0.8278(2) -0.2524(2)
C17 C 0.17429(9) 0.8733(2) -0.3562(3)
H11 H 0.1944 0.9185 -0.3590
C18 C 0.14132(8) 0.8515(2) -0.4558(2)
H12 H 0.1395 0.8826 -0.5246
C19 C 0.11117(8) 0.78411(19) -0.4541(2)
C20 C 0.11518(9) 0.7356(2) -0.3516(3)
H13 H 0.0958 0.6881 -0.3501
C21 C 0.14778(9) 0.7575(2) -0.2520(3)
H14 H 0.1500 0.7249 -0.1838
C22 C 0.07335(8) 0.76957(19) -0.5592(2)
C23 C 0.05383(9) -0.21681(19) -0.9329(3)
H15 H 0.0483 -0.2831 -0.9361
C24 C 0.08175(9) -0.1828(2) -0.9826(3)
H16 H 0.0950 -0.2252 -1.0185
C25 C 0.08984(11) -0.0852(2) -0.9788(3)
H17 H 0.1085 -0.0599 -1.0129
C26 C 0.06987(10) -0.0250(2) -0.9234(3)
H18 H 0.0751 0.0414 -0.9193
C27 C 0.04214(8) -0.06387(18) -0.8739(2)
C28 C 0.02047(8) -0.00368(18) -0.8088(2)
C29 C 0.02134(8) 0.09668(18) -0.8099(2)
H19 H 0.0362 0.1290 -0.8506
C30 C 0.0000 0.1492(2) -0.7500
C31 C 0.0000 0.2576(2) -0.7500
C32 C 0.01304(9) 0.30968(19) -0.8290(2)
H20 H 0.0215 0.2766 -0.8836
C33 C 0.01357(9) 0.40970(18) -0.8275(3)
H21 H 0.0232 0.4432 -0.8796
C34 C 0.0000 0.4608(2) -0.7500
C35 C 0.0000 0.5697(2) -0.7500
Er1_2 Er 0.0000 -0.234006(11) -0.7500
O1A O -0.07159(6) 0.81163(17) -0.84873(18)
O2A O -0.04330(6) 0.71914(15) -0.94649(17)
O3A O 0.02630(5) 0.61413(12) -0.78488(17)
N1A N -0.19093(9) 0.8525(2) -1.6742(3)
N2A N -0.27498(7) 0.90034(18) -1.5626(2)
N3A N -0.33620(8) 0.9082(2) -1.3745(3)
N4A N -0.03395(6) -0.15902(14) -0.62073(19)
N4_2 N 0.03395(6) 0.84098(14) -0.87927(19)
N4A_2 N -0.03395(6) 0.84098(14) -0.62073(19)
N5_2 N 0.0000 0.9458(2) -0.7500
C1A C -0.18471(13) 0.8409(4) -1.7752(4)
H1A H -0.1575 0.8307 -1.7749
C2A C -0.21654(14) 0.8433(3) -1.8803(4)
H2A H -0.2110 0.8321 -1.9486
C3A C -0.25637(13) 0.8625(3) -1.8816(3)
H3A H -0.2783 0.8662 -1.9512
C4A C -0.26349(11) 0.8761(2) -1.7786(3)
H4A H -0.2903 0.8902 -1.7775
C5A C -0.23021(10) 0.8686(2) -1.6765(3)
C6A C -0.23644(9) 0.8750(2) -1.5622(3)
C7A C -0.20443(9) 0.8524(2) -1.4617(3)
H5A H -0.1780 0.8370 -1.4645
C8A C -0.21156(9) 0.8527(2) -1.3564(3)
C9A C -0.25165(9) 0.8772(2) -1.3575(3)
H6A H -0.2579 0.8781 -1.2892
C10A C -0.28205(9) 0.9002(2) -1.4612(3)
C11A C -0.37575(12) 0.9330(3) -1.3810(4)
H7A H -0.3843 0.9190 -1.3181
C12A C -0.40350(12) 0.9769(3) -1.4738(4)
H8A H -0.4304 0.9920 -1.4740
C13A C -0.39160(12) 0.9985(4) -1.5659(4)
H9A H -0.4100 1.0298 -1.6298
C14A C -0.35186(10) 0.9735(3) -1.5641(3)
H10A H -0.3431 0.9866 -1.6270
C15A C -0.32537(9) 0.9286(2) -1.4668(3)
C16A C -0.17746(8) 0.8278(2) -1.2476(2)
C17A C -0.17429(9) 0.8733(2) -1.1438(3)
H11A H -0.1944 0.9185 -1.1410
C18A C -0.14132(8) 0.8515(2) -1.0442(2)
H12A H -0.1395 0.8826 -0.9754
C19A C -0.11117(8) 0.78411(19) -1.0459(2)
C20A C -0.11518(9) 0.7356(2) -1.1484(3)
H13A H -0.0958 0.6881 -1.1499
C21A C -0.14778(9) 0.7575(2) -1.2480(3)
H14A H -0.1500 0.7249 -1.3162
C22A C -0.07335(8) 0.76957(19) -0.9408(2)
C23A C -0.05383(9) -0.21681(19) -0.5671(3)
H15A H -0.0483 -0.2831 -0.5639
C24A C -0.08175(9) -0.1828(2) -0.5174(3)
H16A H -0.0950 -0.2252 -0.4815
C25A C -0.08984(11) -0.0852(2) -0.5212(3)
H17A H -0.1085 -0.0599 -0.4871
C26A C -0.06987(10) -0.0250(2) -0.5766(3)
H18A H -0.0751 0.0414 -0.5807
C27A C -0.04214(8) -0.06387(18) -0.6261(2)
C28A C -0.02047(8) -0.00368(18) -0.6912(2)
C29A C -0.02134(8) 0.09668(18) -0.6901(2)
H19A H -0.0362 0.1290 -0.6494
C32A C -0.01304(9) 0.30968(19) -0.6710(2)
H20A H -0.0215 0.2766 -0.6164
C33A C -0.01357(9) 0.40970(18) -0.6725(3)
H21A H -0.0232 0.4432 -0.6204
loop_
_geom_bond_atom_site_label_1
_geom_bond_atom_site_label_2
_geom_bond_site_symmetry_1
_geom_bond_site_symmetry_2
Er1 O1 1_555 1_555
O1 C22 1_555 1_555
O2 Er1 1_555 1_555
O3 Er1 1_555 1_555
N1 C1 1_555 1_555
N2 C6 1_555 1_555
N3 C11 1_555 1_555
N4 C23 1_555 1_555
N5 C28 1_555 1_555
C1 H1 1_555 1_555
C2 C1 1_555 1_555
H2 C2 1_555 1_555
C3 C2 1_555 1_555
H3 C3 1_555 1_555
C4 C3 1_555 1_555
H4 C4 1_555 1_555
C5 N1 1_555 1_555
C6 C5 1_555 1_555
C7 C6 1_555 1_555
H5 C7 1_555 1_555
C8 C7 1_555 1_555
C9 C8 1_555 1_555
H6 C9 1_555 1_555
C10 N2 1_555 1_555
C11 H7 1_555 1_555
C12 C11 1_555 1_555
H8 C12 1_555 1_555
C13 C12 1_555 1_555
H9 C13 1_555 1_555
C14 C13 1_555 1_555
H10 C14 1_555 1_555
C15 N3 1_555 1_555
C16 C8 1_555 1_555
C17 C16 1_555 1_555
H11 C17 1_555 1_555
C18 C17 1_555 1_555
H12 C18 1_555 1_555
C19 C18 1_555 1_555
C20 C19 1_555 1_555
H13 C20 1_555 1_555
C21 C16 1_555 1_555
H14 C21 1_555 1_555
C22 O2 1_555 1_555
C23 H15 1_555 1_555
C24 C23 1_555 1_555
H16 C24 1_555 1_555
C25 C24 1_555 1_555
H17 C25 1_555 1_555
C26 C25 1_555 1_555
H18 C26 1_555 1_555
C27 N4 1_555 1_555
C28 C27 1_555 1_555
C29 C28 1_555 1_555
H19 C29 1_555 1_555
C30 C29 1_555 1_555
C31 C30 1_555 1_555
C32 C31 1_555 1_555
H20 C32 1_555 1_555
C33 C32 1_555 1_555
H21 C33 1_555 1_555
C34 C33 1_555 1_555
C35 O3 1_555 1_555
Er1_2 N4 1_555 1_555
O1A Er1 1_555 1_555
O2A Er1 1_555 1_555
O3A Er1 1_555 1_555
N1A C1A 1_555 1_555
N2A C6A 1_555 1_555
N3A C11A 1_555 1_555
N4A Er1_2 1_555 1_555
N4_2 Er1 1_555 1_555
N4A_2 Er1 1_555 1_555
N5_2 Er1 1_555 1_555
C1A H1A 1_555 1_555
C2A C1A 1_555 1_555
H2A C2A 1_555 1_555
C3A C2A 1_555 1_555
H3A C3A 1_555 1_555
C4A C3A 1_555 1_555
H4A C4A 1_555 1_555
C5A N1A 1_555 1_555
C6A C5A 1_555 1_555
C7A C6A 1_555 1_555
H5A C7A 1_555 1_555
C8A C7A 1_555 1_555
C9A C8A 1_555 1_555
H6A C9A 1_555 1_555
C10A N2A 1_555 1_555
C11A H7A 1_555 1_555
C12A C11A 1_555 1_555
H8A C12A 1_555 1_555
C13A C12A 1_555 1_555
H9A C13A 1_555 1_555
C14A C13A 1_555 1_555
H10A C14A 1_555 1_555
C15A N3A 1_555 1_555
C16A C8A 1_555 1_555
C17A C16A 1_555 1_555
H11A C17A 1_555 1_555
C18A C17A 1_555 1_555
H12A C18A 1_555 1_555
C19A C18A 1_555 1_555
C20A C19A 1_555 1_555
H13A C20A 1_555 1_555
C21A C16A 1_555 1_555
H14A C21A 1_555 1_555
C22A O1A 1_555 1_555
C23A N4A 1_555 1_555
H15A C23A 1_555 1_555
C24A C23A 1_555 1_555
H16A C24A 1_555 1_555
C25A C24A 1_555 1_555
H17A C25A 1_555 1_555
C26A C25A 1_555 1_555
H18A C26A 1_555 1_555
C27A N4A 1_555 1_555
C28A N5 1_555 1_555
C29A C30 1_555 1_555
H19A C29A 1_555 1_555
C32A C31 1_555 1_555
H20A C32A 1_555 1_555
C33A C34 1_555 1_555
H21A C33A 1_555 1_555
N5 Er1_2 1_555 1_555
C4 C5 1_555 1_555
C9 C10 1_555 1_555
C10 C15 1_555 1_555
C14 C15 1_555 1_555
C19 C22 1_555 1_555
C20 C21 1_555 1_555
C26 C27 1_555 1_555
C34 C35 1_555 1_555
C35 O3A 1_555 1_555
O2A C22A 1_555 1_555
C4A C5A 1_555 1_555
C9A C10A 1_555 1_555
C10A C15A 1_555 1_555
C14A C15A 1_555 1_555
C19A C22A 1_555 1_555
C20A C21A 1_555 1_555
C26A C27A 1_555 1_555
C27A C28A 1_555 1_555
C28A C29A 1_555 1_555
C32A C33A 1_555 1_555

#END
