
#######################################################################
#
#                 Cambridge Crystallographic Data Centre
#                                CCDC 
#
#######################################################################
#
# If this CIF has been generated from an entry in the Cambridge 
# Structural Database, then it will include bibliographic, chemical, 
# crystal, experimental, refinement or atomic coordinate data resulting 
# from the CCDC's data processing and validation procedures.
#
#######################################################################

data_CEHZOG
_symmetry_cell_setting           monoclinic
_symmetry_space_group_name_H-M   'C 2/c'
_symmetry_Int_Tables_number      15
_space_group_name_Hall           '-C 2yn'
loop_
_symmetry_equiv_pos_site_id
_symmetry_equiv_pos_as_xyz
1 x,y,z
2 -x,y,1/2-z
3 1/2+x,1/2+y,z
4 1/2-x,1/2+y,1/2-z
5 -x,-y,-z
6 x,-y,1/2+z
7 1/2-x,1/2-y,-z
8 1/2+x,1/2-y,1/2+z
_cell_length_a                   33.8052(6)
_cell_length_b                   13.9956(2)
_cell_length_c                   12.1766(2)
_cell_angle_alpha                90
_cell_angle_beta                 108.7210(10)
_cell_angle_gamma                90
_cell_volume                     5456.24
loop_
_atom_site_label
_atom_site_type_symbol
_atom_site_fract_x
_atom_site_fract_y
_atom_site_fract_z
Nd1 Nd 0.0000 0.759285(11) -0.7500
O1 O 0.07483(7) 0.80347(18) -0.65156(19)
O2 O 0.04603(6) 0.71754(16) -0.54897(17)
O3 O -0.02485(6) 0.60148(12) -0.70932(17)
N1 N 0.19407(10) 0.8540(2) 0.1780(3)
N2 N 0.27699(7) 0.89886(17) 0.0608(2)
N3 N 0.33694(9) 0.9027(2) -0.1334(3)
N4 N 0.03467(7) -0.15609(13) -0.88276(19)
N5 N 0.0000 -0.05444(19) -0.7500
C1 C 0.18856(14) 0.8428(4) 0.2805(4)
H1 H 0.1616 0.8315 0.2815
C2 C 0.22030(15) 0.8470(3) 0.3857(4)
H2 H 0.2150 0.8367 0.4551
C3 C 0.25936(13) 0.8665(3) 0.3841(3)
H3 H 0.2814 0.8713 0.4532
C4 C 0.26630(11) 0.8793(2) 0.2793(3)
H4 H 0.2929 0.8931 0.2767
C5 C 0.23286(10) 0.8711(2) 0.1786(3)
C6 C 0.23874(9) 0.8756(2) 0.0628(3)
C7 C 0.20632(9) 0.8536(2) -0.0370(3)
H5 H 0.1800 0.8391 -0.0325
C8 C 0.21297(9) 0.8532(2) -0.1436(3)
C9 C 0.25287(9) 0.8752(2) -0.1451(3)
H6 H 0.2588 0.8748 -0.2145
C10 C 0.28390(9) 0.8978(2) -0.0414(3)
C11 C 0.37594(13) 0.9249(3) -0.1310(4)
H7 H 0.3838 0.9106 -0.1957
C12 C 0.40465(14) 0.9676(4) -0.0382(5)
H8 H 0.4314 0.9813 -0.0397
C13 C 0.39343(13) 0.9895(4) 0.0556(5)
H9 H 0.4122 1.0200 0.1190
C14 C 0.35410(11) 0.9664(3) 0.0566(3)
H10 H 0.3460 0.9798 0.1211
C15 C 0.32680(10) 0.9231(2) -0.0394(3)
C16 C 0.17877(9) 0.8283(2) -0.2513(2)
C17 C 0.17532(9) 0.8727(2) -0.3556(3)
H11 H 0.1950 0.9180 -0.3590
C18 C 0.14286(9) 0.8501(2) -0.4549(3)
H12 H 0.1411 0.8801 -0.5245
C19 C 0.11306(8) 0.78344(19) -0.4517(2)
C20 C 0.11691(9) 0.7376(2) -0.3484(3)
H13 H 0.0976 0.6912 -0.3457
C21 C 0.14918(10) 0.7599(2) -0.2492(3)
H14 H 0.1512 0.7289 -0.1800
C22 C 0.07589(9) 0.76641(19) -0.5571(2)
C23 C 0.05524(10) -0.2111(2) -0.9357(3)
H15 H 0.0494 -0.2762 -0.9416
C24 C 0.08432(10) -0.1775(2) -0.9815(3)
H16 H 0.0981 -0.2184 -1.0173
C25 C 0.09261(12) -0.0821(2) -0.9734(4)
H17 H 0.1121 -0.0565 -1.0044
C26 C 0.07193(11) -0.0240(2) -0.9189(3)
H18 H 0.0773 0.0413 -0.9129
C27 C 0.04328(9) -0.06268(17) -0.8734(2)
C28 C 0.02073(8) -0.00517(16) -0.8089(2)
C29 C 0.02155(9) 0.09390(17) -0.8097(2)
H19 H 0.0366 0.1257 -0.8504
C30 C 0.0000 0.1457(2) -0.7500
C31 C 0.0000 0.2518(2) -0.7500
C32 C 0.01343(9) 0.30289(18) -0.8286(2)
H20 H 0.0225 0.2703 -0.8826
C33 C 0.01359(9) 0.40148(18) -0.8282(3)
H21 H 0.0230 0.4344 -0.8814
C34 C 0.0000 0.4516(2) -0.7500
C35 C 0.0000 0.5584(2) -0.7500
Nd1_2 Nd 0.0000 -0.240715(11) -0.7500
O1A O -0.07483(7) 0.80347(18) -0.84844(19)
O2A O -0.04603(6) 0.71754(16) -0.95103(17)
O3A O 0.02485(6) 0.60148(12) -0.79068(17)
N1A N -0.19407(10) 0.8540(2) -1.6780(3)
N2A N -0.27699(7) 0.89886(17) -1.5608(2)
N3A N -0.33694(9) 0.9027(2) -1.3666(3)
N4A N -0.03467(7) -0.15609(13) -0.61724(19)
N4_2 N 0.03467(7) 0.84391(13) -0.88276(19)
N4A_2 N -0.03467(7) 0.84391(13) -0.61724(19)
N5_2 N 0.0000 0.94556(19) -0.7500
C1A C -0.18856(14) 0.8428(4) -1.7805(4)
H1A H -0.1616 0.8315 -1.7815
C2A C -0.22030(15) 0.8470(3) -1.8857(4)
H2A H -0.2150 0.8367 -1.9551
C3A C -0.25936(13) 0.8665(3) -1.8841(3)
H3A H -0.2814 0.8713 -1.9532
C4A C -0.26630(11) 0.8793(2) -1.7793(3)
H4A H -0.2929 0.8931 -1.7767
C5A C -0.23286(10) 0.8711(2) -1.6786(3)
C6A C -0.23874(9) 0.8756(2) -1.5628(3)
C7A C -0.20632(9) 0.8536(2) -1.4630(3)
H5A H -0.1800 0.8391 -1.4675
C8A C -0.21297(9) 0.8532(2) -1.3564(3)
C9A C -0.25287(9) 0.8752(2) -1.3549(3)
H6A H -0.2588 0.8748 -1.2855
C10A C -0.28390(9) 0.8978(2) -1.4586(3)
C11A C -0.37594(13) 0.9249(3) -1.3690(4)
H7A H -0.3838 0.9106 -1.3043
C12A C -0.40465(14) 0.9676(4) -1.4618(5)
H8A H -0.4314 0.9813 -1.4603
C13A C -0.39343(13) 0.9895(4) -1.5556(5)
H9A H -0.4122 1.0200 -1.6190
C14A C -0.35410(11) 0.9664(3) -1.5566(3)
H10A H -0.3460 0.9798 -1.6211
C15A C -0.32680(10) 0.9231(2) -1.4606(3)
C16A C -0.17877(9) 0.8283(2) -1.2487(2)
C17A C -0.17532(9) 0.8727(2) -1.1444(3)
H11A H -0.1950 0.9180 -1.1410
C18A C -0.14286(9) 0.8501(2) -1.0451(3)
H12A H -0.1411 0.8801 -0.9755
C19A C -0.11306(8) 0.78344(19) -1.0483(2)
C20A C -0.11691(9) 0.7376(2) -1.1516(3)
H13A H -0.0976 0.6912 -1.1543
C21A C -0.14918(10) 0.7599(2) -1.2508(3)
H14A H -0.1512 0.7289 -1.3200
C22A C -0.07589(9) 0.76641(19) -0.9429(2)
C23A C -0.05524(10) -0.2111(2) -0.5643(3)
H15A H -0.0494 -0.2762 -0.5584
C24A C -0.08432(10) -0.1775(2) -0.5185(3)
H16A H -0.0981 -0.2184 -0.4827
C25A C -0.09261(12) -0.0821(2) -0.5266(4)
H17A H -0.1121 -0.0565 -0.4956
C26A C -0.07193(11) -0.0240(2) -0.5811(3)
H18A H -0.0773 0.0413 -0.5871
C27A C -0.04328(9) -0.06268(17) -0.6266(2)
C28A C -0.02073(8) -0.00517(16) -0.6911(2)
C29A C -0.02155(9) 0.09390(17) -0.6903(2)
H19A H -0.0366 0.1257 -0.6496
C32A C -0.01343(9) 0.30289(18) -0.6714(2)
H20A H -0.0225 0.2703 -0.6174
C33A C -0.01359(9) 0.40148(18) -0.6718(3)
H21A H -0.0230 0.4344 -0.6186
loop_
_geom_bond_atom_site_label_1
_geom_bond_atom_site_label_2
_geom_bond_site_symmetry_1
_geom_bond_site_symmetry_2
Nd1 O1 1_555 1_555
O1 C22 1_555 1_555
O2 Nd1 1_555 1_555
O3 Nd1 1_555 1_555
N1 C1 1_555 1_555
N2 C6 1_555 1_555
N3 C11 1_555 1_555
N4 C23 1_555 1_555
N5 C28 1_555 1_555
C1 H1 1_555 1_555
C2 C1 1_555 1_555
H2 C2 1_555 1_555
C3 C2 1_555 1_555
H3 C3 1_555 1_555
C4 C3 1_555 1_555
H4 C4 1_555 1_555
C5 N1 1_555 1_555
C6 C5 1_555 1_555
C7 C6 1_555 1_555
H5 C7 1_555 1_555
C8 C7 1_555 1_555
C9 C8 1_555 1_555
H6 C9 1_555 1_555
C10 N2 1_555 1_555
C11 H7 1_555 1_555
C12 C11 1_555 1_555
H8 C12 1_555 1_555
C13 C12 1_555 1_555
H9 C13 1_555 1_555
C14 C13 1_555 1_555
H10 C14 1_555 1_555
C15 N3 1_555 1_555
C16 C8 1_555 1_555
C17 C16 1_555 1_555
H11 C17 1_555 1_555
C18 C17 1_555 1_555
H12 C18 1_555 1_555
C19 C18 1_555 1_555
C20 C19 1_555 1_555
H13 C20 1_555 1_555
C21 C16 1_555 1_555
H14 C21 1_555 1_555
C22 O2 1_555 1_555
C23 H15 1_555 1_555
C24 C23 1_555 1_555
H16 C24 1_555 1_555
C25 C24 1_555 1_555
H17 C25 1_555 1_555
C26 C25 1_555 1_555
H18 C26 1_555 1_555
C27 N4 1_555 1_555
C28 C27 1_555 1_555
C29 C28 1_555 1_555
H19 C29 1_555 1_555
C30 C29 1_555 1_555
C31 C30 1_555 1_555
C32 C31 1_555 1_555
H20 C32 1_555 1_555
C33 C32 1_555 1_555
H21 C33 1_555 1_555
C34 C33 1_555 1_555
C35 O3 1_555 1_555
Nd1_2 N4 1_555 1_555
O1A Nd1 1_555 1_555
O2A Nd1 1_555 1_555
O3A Nd1 1_555 1_555
N1A C1A 1_555 1_555
N2A C6A 1_555 1_555
N3A C11A 1_555 1_555
N4A Nd1_2 1_555 1_555
N4_2 Nd1 1_555 1_555
N4A_2 Nd1 1_555 1_555
N5_2 Nd1 1_555 1_555
C1A H1A 1_555 1_555
C2A C1A 1_555 1_555
H2A C2A 1_555 1_555
C3A C2A 1_555 1_555
H3A C3A 1_555 1_555
C4A C3A 1_555 1_555
H4A C4A 1_555 1_555
C5A N1A 1_555 1_555
C6A C5A 1_555 1_555
C7A C6A 1_555 1_555
H5A C7A 1_555 1_555
C8A C7A 1_555 1_555
C9A C8A 1_555 1_555
H6A C9A 1_555 1_555
C10A N2A 1_555 1_555
C11A H7A 1_555 1_555
C12A C11A 1_555 1_555
H8A C12A 1_555 1_555
C13A C12A 1_555 1_555
H9A C13A 1_555 1_555
C14A C13A 1_555 1_555
H10A C14A 1_555 1_555
C15A N3A 1_555 1_555
C16A C8A 1_555 1_555
C17A C16A 1_555 1_555
H11A C17A 1_555 1_555
C18A C17A 1_555 1_555
H12A C18A 1_555 1_555
C19A C18A 1_555 1_555
C20A C19A 1_555 1_555
H13A C20A 1_555 1_555
C21A C16A 1_555 1_555
H14A C21A 1_555 1_555
C22A O1A 1_555 1_555
C23A N4A 1_555 1_555
H15A C23A 1_555 1_555
C24A C23A 1_555 1_555
H16A C24A 1_555 1_555
C25A C24A 1_555 1_555
H17A C25A 1_555 1_555
C26A C25A 1_555 1_555
H18A C26A 1_555 1_555
C27A N4A 1_555 1_555
C28A N5 1_555 1_555
C29A C30 1_555 1_555
H19A C29A 1_555 1_555
C32A C31 1_555 1_555
H20A C32A 1_555 1_555
C33A C34 1_555 1_555
H21A C33A 1_555 1_555
N5 Nd1_2 1_555 1_555
C4 C5 1_555 1_555
C9 C10 1_555 1_555
C10 C15 1_555 1_555
C14 C15 1_555 1_555
C19 C22 1_555 1_555
C20 C21 1_555 1_555
C26 C27 1_555 1_555
C34 C35 1_555 1_555
C35 O3A 1_555 1_555
O2A C22A 1_555 1_555
C4A C5A 1_555 1_555
C9A C10A 1_555 1_555
C10A C15A 1_555 1_555
C14A C15A 1_555 1_555
C19A C22A 1_555 1_555
C20A C21A 1_555 1_555
C26A C27A 1_555 1_555
C27A C28A 1_555 1_555
C28A C29A 1_555 1_555
C32A C33A 1_555 1_555

#END
