
#######################################################################
#
#                 Cambridge Crystallographic Data Centre
#                                CCDC 
#
#######################################################################
#
# If this CIF has been generated from an entry in the Cambridge 
# Structural Database, then it will include bibliographic, chemical, 
# crystal, experimental, refinement or atomic coordinate data resulting 
# from the CCDC's data processing and validation procedures.
#
#######################################################################

data_CEHZIA
_symmetry_cell_setting           monoclinic
_symmetry_space_group_name_H-M   'C 2/c'
_symmetry_Int_Tables_number      15
_space_group_name_Hall           '-C 2yn'
loop_
_symmetry_equiv_pos_site_id
_symmetry_equiv_pos_as_xyz
1 x,y,z
2 -x,y,1/2-z
3 1/2+x,1/2+y,z
4 1/2-x,1/2+y,1/2-z
5 -x,-y,-z
6 x,-y,1/2+z
7 1/2-x,1/2-y,-z
8 1/2+x,1/2-y,1/2+z
_cell_length_a                   33.812(7)
_cell_length_b                   13.872(3)
_cell_length_c                   12.253(3)
_cell_angle_alpha                90
_cell_angle_beta                 108.978(2)
_cell_angle_gamma                90
_cell_volume                     5434.75
loop_
_atom_site_label
_atom_site_type_symbol
_atom_site_fract_x
_atom_site_fract_y
_atom_site_fract_z
Gd1 Gd 0.0000 0.762735(7) -0.7500
O1 O 0.07321(4) 0.80830(13) -0.65108(12)
O2 O 0.04460(4) 0.71805(11) -0.55152(12)
O3 O -0.02575(4) 0.60804(8) -0.71251(11)
N1 N 0.19233(6) 0.8534(2) 0.17622(19)
N2 N 0.27575(5) 0.89946(13) 0.06135(15)
N3 N 0.33658(6) 0.90569(18) -0.12884(19)
N4 N 0.03416(4) -0.15777(10) -0.88141(12)
N5 N 0.0000 -0.05438(13) -0.7500
C1 C 0.18633(10) 0.8417(3) 0.2776(3)
H1 H 0.1592 0.8306 0.2777
C2 C 0.21820(10) 0.8451(3) 0.3833(3)
H2 H 0.2128 0.8344 0.4520
C3 C 0.25764(9) 0.8647(2) 0.3829(2)
H3 H 0.2796 0.8695 0.4521
C4 C 0.26465(7) 0.87716(18) 0.2793(2)
H4 H 0.2914 0.8903 0.2776
C5 C 0.23130(7) 0.86987(16) 0.17744(19)
C6 C 0.23757(6) 0.87525(15) 0.06259(18)
C7 C 0.20507(6) 0.85290(16) -0.03758(18)
H5 H 0.1787 0.8381 -0.0340
C8 C 0.21218(6) 0.85281(15) -0.14334(17)
C9 C 0.25212(6) 0.87615(15) -0.14394(18)
H6 H 0.2583 0.8765 -0.2126
C10 C 0.28275(6) 0.89901(15) -0.03979(18)
C11 C 0.37593(8) 0.9290(3) -0.1245(3)
H7 H 0.3842 0.9147 -0.1879
C12 C 0.40402(8) 0.9728(3) -0.0312(3)
H8 H 0.4308 0.9877 -0.0316
C13 C 0.39238(9) 0.9941(3) 0.0615(3)
H9 H 0.4109 1.0248 0.1251
C14 C 0.35293(7) 0.9698(2) 0.0607(2)
H10 H 0.3445 0.9828 0.1242
C15 C 0.32596(6) 0.92557(17) -0.0363(2)
C16 C 0.17799(5) 0.82813(15) -0.25169(16)
C17 C 0.17477(6) 0.87329(15) -0.35520(17)
H11 H 0.1947 0.9187 -0.3578
C18 C 0.14213(6) 0.85139(14) -0.45506(17)
H12 H 0.1404 0.8822 -0.5239
C19 C 0.11205(5) 0.78376(14) -0.45288(16)
C20 C 0.11581(6) 0.73621(14) -0.35041(19)
H13 H 0.0965 0.6891 -0.3486
C21 C 0.14840(7) 0.75856(15) -0.25029(19)
H14 H 0.1505 0.7268 -0.1818
C22 C 0.07456(6) 0.76796(12) -0.55822(16)
C23 C 0.05426(6) -0.21433(14) -0.93492(18)
H15 H 0.0486 -0.2801 -0.9395
C24 C 0.08274(7) -0.18029(16) -0.9832(2)
H16 H 0.0962 -0.2219 -1.0190
C25 C 0.09087(8) -0.08388(17) -0.9775(3)
H17 H 0.1099 -0.0585 -1.0102
C26 C 0.07051(8) -0.02420(15) -0.9224(2)
H18 H 0.0756 0.0418 -0.9180
C27 C 0.04261(5) -0.06341(12) -0.87413(16)
C28 C 0.02057(5) -0.00466(11) -0.80928(16)
C29 C 0.02142(6) 0.09534(12) -0.81038(17)
H19 H 0.0363 0.1275 -0.8513
C30 C 0.0000 0.14759(16) -0.7500
C31 C 0.0000 0.25478(15) -0.7500
C32 C 0.01326(6) 0.30613(13) -0.82903(17)
H20 H 0.0220 0.2731 -0.8832
C33 C 0.01366(6) 0.40589(13) -0.82813(17)
H21 H 0.0232 0.4392 -0.8806
C34 C 0.0000 0.45645(15) -0.7500
C35 C 0.0000 0.56427(16) -0.7500
Gd1_2 Gd 0.0000 -0.237265(7) -0.7500
O1A O -0.07321(4) 0.80830(13) -0.84892(12)
O2A O -0.04460(4) 0.71805(11) -0.94848(12)
O3A O 0.02575(4) 0.60804(8) -0.78749(11)
N1A N -0.19233(6) 0.8534(2) -1.67622(19)
N2A N -0.27575(5) 0.89946(13) -1.56135(15)
N3A N -0.33658(6) 0.90569(18) -1.37116(19)
N4A N -0.03416(4) -0.15777(10) -0.61859(12)
N4_2 N 0.03416(4) 0.84223(10) -0.88141(12)
N4A_2 N -0.03416(4) 0.84223(10) -0.61859(12)
N5_2 N 0.0000 0.94562(13) -0.7500
C1A C -0.18633(10) 0.8417(3) -1.7776(3)
H1A H -0.1592 0.8306 -1.7777
C2A C -0.21820(10) 0.8451(3) -1.8833(3)
H2A H -0.2128 0.8344 -1.9520
C3A C -0.25764(9) 0.8647(2) -1.8829(2)
H3A H -0.2796 0.8695 -1.9521
C4A C -0.26465(7) 0.87716(18) -1.7793(2)
H4A H -0.2914 0.8903 -1.7776
C5A C -0.23130(7) 0.86987(16) -1.67744(19)
C6A C -0.23757(6) 0.87525(15) -1.56259(18)
C7A C -0.20507(6) 0.85290(16) -1.46242(18)
H5A H -0.1787 0.8381 -1.4660
C8A C -0.21218(6) 0.85281(15) -1.35666(17)
C9A C -0.25212(6) 0.87615(15) -1.35606(18)
H6A H -0.2583 0.8765 -1.2874
C10A C -0.28275(6) 0.89901(15) -1.46021(18)
C11A C -0.37593(8) 0.9290(3) -1.3755(3)
H7A H -0.3842 0.9147 -1.3121
C12A C -0.40402(8) 0.9728(3) -1.4688(3)
H8A H -0.4308 0.9877 -1.4684
C13A C -0.39238(9) 0.9941(3) -1.5615(3)
H9A H -0.4109 1.0248 -1.6251
C14A C -0.35293(7) 0.9698(2) -1.5607(2)
H10A H -0.3445 0.9828 -1.6242
C15A C -0.32596(6) 0.92557(17) -1.4637(2)
C16A C -0.17799(5) 0.82813(15) -1.24831(16)
C17A C -0.17477(6) 0.87329(15) -1.14480(17)
H11A H -0.1947 0.9187 -1.1422
C18A C -0.14213(6) 0.85139(14) -1.04494(17)
H12A H -0.1404 0.8822 -0.9761
C19A C -0.11205(5) 0.78376(14) -1.04712(16)
C20A C -0.11581(6) 0.73621(14) -1.14959(19)
H13A H -0.0965 0.6891 -1.1514
C21A C -0.14840(7) 0.75856(15) -1.24971(19)
H14A H -0.1505 0.7268 -1.3182
C22A C -0.07456(6) 0.76796(12) -0.94178(16)
C23A C -0.05426(6) -0.21433(14) -0.56508(18)
H15A H -0.0486 -0.2801 -0.5605
C24A C -0.08274(7) -0.18029(16) -0.5168(2)
H16A H -0.0962 -0.2219 -0.4810
C25A C -0.09087(8) -0.08388(17) -0.5225(3)
H17A H -0.1099 -0.0585 -0.4898
C26A C -0.07051(8) -0.02420(15) -0.5776(2)
H18A H -0.0756 0.0418 -0.5820
C27A C -0.04261(5) -0.06341(12) -0.62587(16)
C28A C -0.02057(5) -0.00466(11) -0.69072(16)
C29A C -0.02142(6) 0.09534(12) -0.68962(17)
H19A H -0.0363 0.1275 -0.6487
C32A C -0.01326(6) 0.30613(13) -0.67097(17)
H20A H -0.0220 0.2731 -0.6168
C33A C -0.01366(6) 0.40589(13) -0.67187(17)
H21A H -0.0232 0.4392 -0.6194
loop_
_geom_bond_atom_site_label_1
_geom_bond_atom_site_label_2
_geom_bond_site_symmetry_1
_geom_bond_site_symmetry_2
Gd1 O1 1_555 1_555
O1 C22 1_555 1_555
O2 Gd1 1_555 1_555
O3 Gd1 1_555 1_555
N1 C1 1_555 1_555
N2 C6 1_555 1_555
N3 C11 1_555 1_555
N4 C23 1_555 1_555
N5 C28 1_555 1_555
C1 H1 1_555 1_555
C2 C1 1_555 1_555
H2 C2 1_555 1_555
C3 C2 1_555 1_555
H3 C3 1_555 1_555
C4 C3 1_555 1_555
H4 C4 1_555 1_555
C5 N1 1_555 1_555
C6 C5 1_555 1_555
C7 C6 1_555 1_555
H5 C7 1_555 1_555
C8 C7 1_555 1_555
C9 C8 1_555 1_555
H6 C9 1_555 1_555
C10 N2 1_555 1_555
C11 H7 1_555 1_555
C12 C11 1_555 1_555
H8 C12 1_555 1_555
C13 C12 1_555 1_555
H9 C13 1_555 1_555
C14 C13 1_555 1_555
H10 C14 1_555 1_555
C15 N3 1_555 1_555
C16 C8 1_555 1_555
C17 C16 1_555 1_555
H11 C17 1_555 1_555
C18 C17 1_555 1_555
H12 C18 1_555 1_555
C19 C18 1_555 1_555
C20 C19 1_555 1_555
H13 C20 1_555 1_555
C21 C16 1_555 1_555
H14 C21 1_555 1_555
C22 O2 1_555 1_555
C23 H15 1_555 1_555
C24 C23 1_555 1_555
H16 C24 1_555 1_555
C25 C24 1_555 1_555
H17 C25 1_555 1_555
C26 C25 1_555 1_555
H18 C26 1_555 1_555
C27 N4 1_555 1_555
C28 C27 1_555 1_555
C29 C28 1_555 1_555
H19 C29 1_555 1_555
C30 C29 1_555 1_555
C31 C30 1_555 1_555
C32 C31 1_555 1_555
H20 C32 1_555 1_555
C33 C32 1_555 1_555
H21 C33 1_555 1_555
C34 C33 1_555 1_555
C35 O3 1_555 1_555
Gd1_2 N4 1_555 1_555
O1A Gd1 1_555 1_555
O2A Gd1 1_555 1_555
O3A Gd1 1_555 1_555
N1A C1A 1_555 1_555
N2A C6A 1_555 1_555
N3A C11A 1_555 1_555
N4A Gd1_2 1_555 1_555
N4_2 Gd1 1_555 1_555
N4A_2 Gd1 1_555 1_555
N5_2 Gd1 1_555 1_555
C1A H1A 1_555 1_555
C2A C1A 1_555 1_555
H2A C2A 1_555 1_555
C3A C2A 1_555 1_555
H3A C3A 1_555 1_555
C4A C3A 1_555 1_555
H4A C4A 1_555 1_555
C5A N1A 1_555 1_555
C6A C5A 1_555 1_555
C7A C6A 1_555 1_555
H5A C7A 1_555 1_555
C8A C7A 1_555 1_555
C9A C8A 1_555 1_555
H6A C9A 1_555 1_555
C10A N2A 1_555 1_555
C11A H7A 1_555 1_555
C12A C11A 1_555 1_555
H8A C12A 1_555 1_555
C13A C12A 1_555 1_555
H9A C13A 1_555 1_555
C14A C13A 1_555 1_555
H10A C14A 1_555 1_555
C15A N3A 1_555 1_555
C16A C8A 1_555 1_555
C17A C16A 1_555 1_555
H11A C17A 1_555 1_555
C18A C17A 1_555 1_555
H12A C18A 1_555 1_555
C19A C18A 1_555 1_555
C20A C19A 1_555 1_555
H13A C20A 1_555 1_555
C21A C16A 1_555 1_555
H14A C21A 1_555 1_555
C22A O1A 1_555 1_555
C23A N4A 1_555 1_555
H15A C23A 1_555 1_555
C24A C23A 1_555 1_555
H16A C24A 1_555 1_555
C25A C24A 1_555 1_555
H17A C25A 1_555 1_555
C26A C25A 1_555 1_555
H18A C26A 1_555 1_555
C27A N4A 1_555 1_555
C28A N5 1_555 1_555
C29A C30 1_555 1_555
H19A C29A 1_555 1_555
C32A C31 1_555 1_555
H20A C32A 1_555 1_555
C33A C34 1_555 1_555
H21A C33A 1_555 1_555
N5 Gd1_2 1_555 1_555
C4 C5 1_555 1_555
C9 C10 1_555 1_555
C10 C15 1_555 1_555
C14 C15 1_555 1_555
C19 C22 1_555 1_555
C20 C21 1_555 1_555
C26 C27 1_555 1_555
C34 C35 1_555 1_555
C35 O3A 1_555 1_555
O2A C22A 1_555 1_555
C4A C5A 1_555 1_555
C9A C10A 1_555 1_555
C10A C15A 1_555 1_555
C14A C15A 1_555 1_555
C19A C22A 1_555 1_555
C20A C21A 1_555 1_555
C26A C27A 1_555 1_555
C27A C28A 1_555 1_555
C28A C29A 1_555 1_555
C32A C33A 1_555 1_555

#END
