
#######################################################################
#
#                 Cambridge Crystallographic Data Centre
#                                CCDC 
#
#######################################################################
#
# If this CIF has been generated from an entry in the Cambridge 
# Structural Database, then it will include bibliographic, chemical, 
# crystal, experimental, refinement or atomic coordinate data resulting 
# from the CCDC's data processing and validation procedures.
#
#######################################################################

data_CEJBOK01
_symmetry_cell_setting           triclinic
_symmetry_space_group_name_H-M   'P -1'
_symmetry_Int_Tables_number      2
_space_group_name_Hall           '-P 1'
loop_
_symmetry_equiv_pos_site_id
_symmetry_equiv_pos_as_xyz
1 x,y,z
2 -x,-y,-z
_cell_length_a                   10.850(4)
_cell_length_b                   14.135(5)
_cell_length_c                   20.084(7)
_cell_angle_alpha                86.494(9)
_cell_angle_beta                 83.743(7)
_cell_angle_gamma                78.839(8)
_cell_volume                     3001.39
loop_
_atom_site_label
_atom_site_type_symbol
_atom_site_fract_x
_atom_site_fract_y
_atom_site_fract_z
O2 O 0.1566(5) 0.3655(4) 0.0236(3)
H8 H 0.0847 0.3793 0.0421
O3 O 0.4478(13) 0.5102(10) 0.0656(7)
H9 H 0.5176 0.5232 0.0678
Tb1 Tb 0.41359(3) 0.23285(2) 0.197775(15)
Tb2 Tb 0.77131(3) -0.30703(2) 0.309353(14)
Tb3 Tb 0.78951(3) -0.55594(2) 0.173700(14)
Tb4 Tb 0.45467(3) -0.01202(2) 0.352841(16)
O4 O 0.6703(5) -0.0255(4) 0.3120(3)
O5 O 0.8003(5) -0.1571(3) 0.2766(3)
O6 O 0.9710(5) 0.3014(3) 0.1926(3)
O7 O 0.7762(4) 0.2793(3) 0.2077(3)
O8 O 0.9597(4) -0.3660(4) 0.2487(2)
O9 O 0.9570(4) -0.4808(3) 0.1782(2)
O10 O 1.2859(5) -0.3717(4) -0.0795(2)
O11 O 1.1060(5) -0.4215(4) -0.0596(2)
O12 O 0.4548(5) -0.0073(4) 0.2400(3)
O13 O 0.4118(5) 0.0861(3) 0.1503(2)
O14 O 0.7111(5) -0.3375(4) 0.2069(2)
O15 O 0.7076(5) -0.4091(3) 0.1129(2)
O16 O 0.2675(4) 0.0978(3) 0.3456(2)
O17 O 0.6263(4) 0.1778(4) 0.1612(3)
O18 O 0.2474(5) 0.2373(4) 0.5806(2)
O19 O 0.0832(5) 0.3472(4) 0.6071(2)
O20 O 0.5739(4) 0.4629(4) 0.2032(2)
O21 O 0.4248(5) 0.3773(4) 0.2328(3)
O22 O 0.5570(5) 0.7676(4) 0.3245(2)
O23 O 0.3657(5) 0.8512(4) 0.3477(3)
O24 O 0.7723(5) 0.4567(4) 0.2878(2)
O25 O 0.7067(5) 0.5622(4) 0.3655(3)
O26 O 0.5035(4) 0.1864(4) 0.3034(3)
O27 O 0.4918(5) 0.1199(3) 0.4068(3)
O28 O 0.3144(5) -0.0169(4) 0.4578(3)
O29 O 0.5688(5) -0.0893(4) 0.4423(2)
O30 O 0.2281(5) 0.2931(4) 0.1439(3)
O31 O 0.4704(5) 0.3206(4) 0.0930(2)
O32 O 0.2417(4) 0.2173(4) 0.2692(2)
N2 N 0.1729(7) -0.0772(6) 0.5303(5)
C4 C 0.8738(7) -0.0111(5) 0.2616(3)
C5 C 0.9995(8) -0.0555(6) 0.2480(4)
H10 H 1.0224 -0.1220 0.2548
C6 C 1.0898(8) -0.0031(5) 0.2247(5)
H11 H 1.1735 -0.0342 0.2169
C7 C 1.0588(7) 0.0951(6) 0.2127(4)
H12 H 1.1204 0.1304 0.1965
C8 C 0.9328(6) 0.1406(5) 0.2253(3)
C9 C 0.8435(7) 0.0879(5) 0.2508(3)
H13 H 0.7607 0.1195 0.2611
C10 C 0.7719(7) -0.0685(5) 0.2853(3)
C11 C 0.8932(6) 0.2463(5) 0.2078(3)
C12 C 1.0911(6) -0.3707(5) 0.1465(3)
C13 C 1.1641(7) -0.3078(6) 0.1654(4)
H14 H 1.1579 -0.2911 0.2099
C14 C 1.2466(8) -0.2698(7) 0.1175(4)
H15 H 1.2951 -0.2277 0.1302
C15 C 1.2567(8) -0.2942(6) 0.0517(4)
H16 H 1.3127 -0.2694 0.0202
C16 C 1.1823(7) -0.3567(5) 0.0320(3)
C17 C 1.1016(6) -0.3955(5) 0.0797(3)
H17 H 1.0542 -0.4383 0.0670
C18 C 0.9967(6) -0.4095(5) 0.1950(3)
C19 C 1.1923(7) -0.3844(5) -0.0399(4)
C20 C 0.4932(6) -0.0803(5) 0.1348(3)
C21 C 0.4673(6) -0.0747(5) 0.0682(3)
H18 H 0.4216 -0.0180 0.0504
C22 C 0.5092(7) -0.1529(5) 0.0284(3)
H19 H 0.4921 -0.1488 -0.0162
C23 C 0.5764(6) -0.2372(5) 0.0546(3)
H20 H 0.6029 -0.2901 0.0279
C24 C 0.6051(6) -0.2437(5) 0.1206(3)
C25 C 0.5622(6) -0.1649(5) 0.1610(3)
H21 H 0.5799 -0.1689 0.2055
C26 C 0.6793(6) -0.3354(5) 0.1484(3)
C27 C 0.4497(6) 0.0068(5) 0.1777(3)
C28 C 0.1164(6) 0.3019(5) 0.4936(3)
C29 C 0.0230(6) 0.3772(6) 0.4734(4)
H22 H -0.0241 0.4180 0.5052
C30 C -0.0007(7) 0.3921(6) 0.4082(4)
H23 H -0.0612 0.4442 0.3956
C31 C 0.0650(7) 0.3299(5) 0.3608(4)
H24 H 0.0501 0.3410 0.3160
C32 C 0.1534(6) 0.2507(5) 0.3796(3)
C33 C 0.1806(6) 0.2370(5) 0.4454(3)
H25 H 0.2414 0.1850 0.4578
C34 C 0.2265(6) 0.1833(5) 0.3282(3)
C35 C 0.1490(6) 0.2940(5) 0.5633(3)
C36 C 0.3817(6) 0.6887(5) 0.3223(4)
C37 C 0.2602(7) 0.6816(6) 0.3523(4)
H26 H 0.2131 0.7322 0.3769
C38 C 0.2099(7) 0.6004(6) 0.3457(5)
H27 H 0.1299 0.5966 0.3663
C39 C 0.2782(7) 0.5245(6) 0.3084(4)
H28 H 0.2451 0.4693 0.3049
C40 C 0.3976(6) 0.5316(5) 0.2762(3)
C41 C 0.4487(6) 0.6127(5) 0.2843(3)
H29 H 0.5289 0.6163 0.2640
C42 C 0.4711(7) 0.4530(5) 0.2344(3)
C43 C 0.4386(7) 0.7736(5) 0.3315(3)
C44 C 0.6499(6) 0.4109(5) 0.3855(3)
C45 C 0.6212(7) 0.4239(5) 0.4537(4)
H30 H 0.6464 0.4740 0.4733
C46 C 0.5554(9) 0.3628(6) 0.4924(4)
H31 H 0.5361 0.3719 0.5381
C47 C 0.5177(8) 0.2875(5) 0.4634(4)
H32 H 0.4723 0.2470 0.4897
C48 C 0.5480(6) 0.2727(5) 0.3950(3)
C49 C 0.6143(6) 0.3336(5) 0.3562(3)
H33 H 0.6355 0.3237 0.3107
C50 C 0.7141(7) 0.4807(5) 0.3429(3)
C51 C 0.5107(6) 0.1885(5) 0.3656(3)
C52 C 0.1157(12) 0.0201(10) 0.5599(6)
H34 H 0.1475 0.0703 0.5331
H35 H 0.1381 0.0203 0.6049
H36 H 0.0255 0.0308 0.5605
C53 C 0.1294(12) -0.1563(9) 0.5681(6)
H37 H 0.1680 -0.2158 0.5475
H38 H 0.0394 -0.1477 0.5688
H39 H 0.1520 -0.1581 0.6131
C54 C 0.2668(9) -0.0789(8) 0.4875(5)
H40 H 0.3077 -0.1409 0.4766
Tb2A Tb 0.22869(3) 0.30703(2) 0.690647(14)
Tb2_2 Tb 0.77131(3) 0.69297(2) 0.309353(14)
Tb3_2 Tb 0.78951(3) 0.44406(2) 0.173700(14)
Tb3A Tb 1.21049(3) -0.44406(2) -0.173700(14)
Tb4_2 Tb 0.45467(3) 0.98798(2) 0.352841(16)
O6_2 O 0.9710(5) -0.6986(3) 0.1926(3)
O7_2 O 0.7762(4) -0.7207(3) 0.2077(3)
O10A O 0.7141(5) -0.6283(4) 0.0795(2)
O11A O 0.8940(5) -0.5785(4) 0.0596(2)
O18A O 0.7526(5) -0.2373(4) 0.4194(2)
O19A O 0.9168(5) -0.3472(4) 0.3929(2)
O20_2 O 0.5739(4) -0.5371(4) 0.2032(2)
O22_2 O 0.5570(5) -0.2324(4) 0.3245(2)
O23_2 O 0.3657(5) -0.1488(4) 0.3477(3)
O24_2 O 0.7723(5) -0.5433(4) 0.2878(2)
O25_2 O 0.7067(5) -0.4378(4) 0.3655(3)
O1 O 0.7402(8) 0.0706(6) 0.0617(4)
N1 N 0.8549(8) -0.0772(7) 0.0401(6)
C1 C 0.8683(14) -0.0664(13) -0.0290(8)
H1 H 0.8304 -0.0018 -0.0424
H2 H 0.8276 -0.1116 -0.0478
H3 H 0.9564 -0.0781 -0.0449
C2 C 0.9077(13) -0.1678(10) 0.0744(9)
H4 H 0.8888 -0.1620 0.1219
H5 H 0.9976 -0.1818 0.0635
H6 H 0.8715 -0.2190 0.0601
C3 C 0.7874(10) -0.0090(9) 0.0810(8)
H7 H 0.7768 -0.0247 0.1266
loop_
_geom_bond_atom_site_label_1
_geom_bond_atom_site_label_2
_geom_bond_site_symmetry_1
_geom_bond_site_symmetry_2
O1 C3 1_555 1_555
N1 C1 1_555 1_555
C1 H1 1_555 1_555
H2 C1 1_555 1_555
H3 C1 1_555 1_555
C2 N1 1_555 1_555
H4 C2 1_555 1_555
H5 C2 1_555 1_555
H6 C2 1_555 1_555
C3 N1 1_555 1_555
H7 C3 1_555 1_555
O2 H8 1_555 1_555
O3 H9 1_555 1_555
Tb1 O13 1_555 1_555
Tb2 O5 1_555 1_555
Tb3 O9 1_555 1_555
Tb4 O4 1_555 1_555
O4 C10 1_555 1_555
O5 C10 1_555 1_555
O6 C11 1_555 1_555
O7 C11 1_555 1_555
O8 Tb2 1_555 1_555
O9 C18 1_555 1_555
O10 C19 1_555 1_555
O11 C19 1_555 1_555
O12 Tb4 1_555 1_555
O13 C27 1_555 1_555
O14 Tb2 1_555 1_555
O15 Tb3 1_555 1_555
O16 Tb4 1_555 1_555
O17 Tb1 1_555 1_555
O18 C35 1_555 1_555
O19 C35 1_555 1_555
O20 C42 1_555 1_555
O21 Tb1 1_555 1_555
O22 C43 1_555 1_555
O23 C43 1_555 1_555
O24 C50 1_555 1_555
O25 C50 1_555 1_555
O26 Tb1 1_555 1_555
O27 Tb4 1_555 1_555
O28 Tb4 1_555 1_555
O29 Tb4 1_555 1_555
O30 Tb1 1_555 1_555
O31 Tb1 1_555 1_555
O32 Tb1 1_555 1_555
N2 C52 1_555 1_555
C4 C5 1_555 1_555
C5 H10 1_555 1_555
C6 C5 1_555 1_555
H11 C6 1_555 1_555
C7 C6 1_555 1_555
H12 C7 1_555 1_555
C8 C7 1_555 1_555
C9 C4 1_555 1_555
H13 C9 1_555 1_555
C10 C4 1_555 1_555
C11 C8 1_555 1_555
C12 C13 1_555 1_555
C13 H14 1_555 1_555
C14 C13 1_555 1_555
H15 C14 1_555 1_555
C15 C14 1_555 1_555
H16 C15 1_555 1_555
C16 C15 1_555 1_555
C17 C12 1_555 1_555
H17 C17 1_555 1_555
C18 O8 1_555 1_555
C19 C16 1_555 1_555
C20 C21 1_555 1_555
C21 H18 1_555 1_555
C22 C21 1_555 1_555
H19 C22 1_555 1_555
C23 C22 1_555 1_555
H20 C23 1_555 1_555
C24 C23 1_555 1_555
C25 C20 1_555 1_555
H21 C25 1_555 1_555
C26 O14 1_555 1_555
C27 O12 1_555 1_555
C28 C29 1_555 1_555
C29 H22 1_555 1_555
C30 C29 1_555 1_555
H23 C30 1_555 1_555
C31 C30 1_555 1_555
H24 C31 1_555 1_555
C32 C31 1_555 1_555
C33 C28 1_555 1_555
H25 C33 1_555 1_555
C34 O16 1_555 1_555
C35 C28 1_555 1_555
C36 C37 1_555 1_555
C37 H26 1_555 1_555
C38 C37 1_555 1_555
H27 C38 1_555 1_555
C39 C38 1_555 1_555
H28 C39 1_555 1_555
C40 C39 1_555 1_555
C41 C36 1_555 1_555
H29 C41 1_555 1_555
C42 O21 1_555 1_555
C43 C36 1_555 1_555
C44 C45 1_555 1_555
C45 H30 1_555 1_555
C46 C45 1_555 1_555
H31 C46 1_555 1_555
C47 C46 1_555 1_555
H32 C47 1_555 1_555
C48 C47 1_555 1_555
C49 C44 1_555 1_555
H33 C49 1_555 1_555
C50 C44 1_555 1_555
C51 O26 1_555 1_555
C52 H34 1_555 1_555
H35 C52 1_555 1_555
H36 C52 1_555 1_555
C53 N2 1_555 1_555
H37 C53 1_555 1_555
H38 C53 1_555 1_555
H39 C53 1_555 1_555
C54 O28 1_555 1_555
H40 C54 1_555 1_555
Tb2A O18 1_555 1_555
Tb2_2 O22 1_555 1_555
Tb3_2 O6 1_555 1_555
Tb3A O10 1_555 1_555
Tb4_2 O23 1_555 1_555
O6_2 Tb3 1_555 1_555
O7_2 Tb3 1_555 1_555
O10A Tb3 1_555 1_555
O11A Tb3 1_555 1_555
O18A Tb2 1_555 1_555
O19A Tb2 1_555 1_555
O20_2 Tb3 1_555 1_555
O22_2 Tb2 1_555 1_555
O23_2 Tb4 1_555 1_555
O24_2 Tb3 1_555 1_555
O25_2 Tb2 1_555 1_555
O7 Tb3_2 1_555 1_555
O11 Tb3A 1_555 1_555
O15 C26 1_555 1_555
O19 Tb2A 1_555 1_555
O20 Tb3_2 1_555 1_555
O24 Tb3_2 1_555 1_555
O25 Tb2_2 1_555 1_555
O27 C51 1_555 1_555
O32 C34 1_555 1_555
N2 C54 1_555 1_555
C8 C9 1_555 1_555
C12 C18 1_555 1_555
C16 C17 1_555 1_555
C20 C27 1_555 1_555
C24 C25 1_555 1_555
C24 C26 1_555 1_555
C32 C33 1_555 1_555
C32 C34 1_555 1_555
C40 C41 1_555 1_555
C40 C42 1_555 1_555
C48 C49 1_555 1_555
C48 C51 1_555 1_555

#END
