
#######################################################################
#
#                 Cambridge Crystallographic Data Centre
#                                CCDC 
#
#######################################################################
#
# If this CIF has been generated from an entry in the Cambridge 
# Structural Database, then it will include bibliographic, chemical, 
# crystal, experimental, refinement or atomic coordinate data resulting 
# from the CCDC's data processing and validation procedures.
#
#######################################################################

data_CEJBAW
_symmetry_cell_setting           monoclinic
_symmetry_space_group_name_H-M   'C 2/c'
_symmetry_Int_Tables_number      15
_space_group_name_Hall           '-C 2yn'
loop_
_symmetry_equiv_pos_site_id
_symmetry_equiv_pos_as_xyz
1 x,y,z
2 -x,y,1/2-z
3 1/2+x,1/2+y,z
4 1/2-x,1/2+y,1/2-z
5 -x,-y,-z
6 x,-y,1/2+z
7 1/2-x,1/2-y,-z
8 1/2+x,1/2-y,1/2+z
_cell_length_a                   33.088(7)
_cell_length_b                   10.035(2)
_cell_length_c                   24.697(5)
_cell_angle_alpha                90
_cell_angle_beta                 119.12(3)
_cell_angle_gamma                90
_cell_volume                     7163.84
loop_
_atom_site_label
_atom_site_type_symbol
_atom_site_fract_x
_atom_site_fract_y
_atom_site_fract_z
Zn1 Zn 1.213883(9) -0.43144(3) 1.381142(11)
N1 N 1.17446(6) -0.27892(19) 1.39759(8)
N2 N 1.23267(6) -0.45189(18) 1.47377(8)
N3 N 1.26786(6) -0.58537(18) 1.41550(8)
N4 N 0.97032(8) -1.2983(2) 1.13007(10)
N5 N 0.94602(7) -1.0622(2) 1.00854(9)
N6 N 0.93877(7) -0.7475(2) 0.93372(9)
O1 O 1.31545(6) -0.69233(17) 1.87514(7)
O2 O 1.23896(6) -0.67741(16) 1.83906(7)
O3 O 1.16246(6) -0.51102(16) 1.30696(7)
O4 O 1.15148(7) -0.6364(2) 1.37248(8)
C1 C 1.27567(8) -0.6682(2) 1.83412(10)
C2 C 1.26811(8) -0.6244(2) 1.77083(10)
C3 C 1.22926(8) -0.5522(2) 1.73062(10)
H1 H 1.2068 -0.5328 1.7417
C4 C 1.22358(8) -0.5087(2) 1.67391(10)
H2 H 1.1977 -0.4584 1.6478
C5 C 1.25655(8) -0.5401(2) 1.65573(10)
C6 C 1.29550(8) -0.6117(2) 1.69682(10)
H3 H 1.3180 -0.6325 1.6859
C7 C 1.30137(8) -0.6526(2) 1.75370(10)
H4 H 1.3279 -0.6994 1.7807
C8 C 1.24847(7) -0.5056(2) 1.59268(9)
C9 C 1.21800(8) -0.4050(2) 1.55702(10)
H5 H 1.2028 -0.3543 1.5730
C10 C 1.21054(7) -0.3811(2) 1.49746(9)
C11 C 1.26217(7) -0.5480(2) 1.50721(10)
C12 C 1.27080(8) -0.5782(2) 1.56663(9)
H6 H 1.2913 -0.6461 1.5890
C13 C 1.17898(7) -0.2773(2) 1.45494(10)
C14 C 1.15604(8) -0.1847(2) 1.47228(11)
H7 H 1.1598 -0.1844 1.5122
C15 C 1.12732(8) -0.0927(2) 1.42835(11)
H8 H 1.1118 -0.0290 1.4387
C16 C 1.12192(9) -0.0964(3) 1.36932(11)
H9 H 1.1023 -0.0367 1.3391
C17 C 1.14632(9) -0.1906(2) 1.35624(11)
H10 H 1.1429 -0.1924 1.3166
C18 C 1.28734(8) -0.6419(2) 1.38469(11)
H11 H 1.2756 -0.6211 1.3430
C19 C 1.32392(8) -0.7291(2) 1.41173(11)
H12 H 1.3369 -0.7650 1.3890
C20 C 1.34089(8) -0.7623(3) 1.47314(11)
H13 H 1.3653 -0.8220 1.4924
C21 C 1.32110(8) -0.7059(2) 1.50585(10)
H14 H 1.3320 -0.7271 1.5473
C22 C 1.28485(8) -0.6175(2) 1.47568(10)
C23 C 1.14166(8) -0.6025(2) 1.31959(10)
C24 C 1.10354(8) -0.6741(2) 1.26490(10)
C25 C 1.07758(8) -0.7717(2) 1.27349(11)
H15 H 1.0818 -0.7876 1.3130
C26 C 1.04536(8) -0.8461(2) 1.22390(11)
H16 H 1.0286 -0.9124 1.2305
C27 C 1.03795(8) -0.8220(2) 1.16405(10)
C28 C 1.06335(8) -0.7216(2) 1.15560(10)
H17 H 1.0584 -0.7033 1.1159
C29 C 1.09583(8) -0.6487(2) 1.20530(11)
H18 H 1.1126 -0.5822 1.1988
C30 C 1.00485(8) -0.9040(2) 1.11080(11)
C31 C 0.99760(8) -1.0379(2) 1.11801(11)
H19 H 1.0123 -1.0770 1.1571
C32 C 0.96819(8) -1.1127(2) 1.06641(11)
C33 C 0.95270(8) -0.9326(2) 1.00181(11)
C34 C 0.98148(8) -0.8513(2) 1.05138(11)
H20 H 0.9850 -0.7619 1.0447
C35 C 0.96055(8) -1.2569(2) 1.07326(12)
C36 C 0.96388(12) -1.4277(3) 1.13668(15)
H21 H 0.9703 -1.4575 1.1757
C37 C 0.94835(12) -1.5195(3) 1.08940(16)
H22 H 0.9442 -1.6083 1.0962
C38 C 0.93923(12) -1.4763(3) 1.03204(16)
H23 H 0.9297 -1.5361 0.9993
C39 C 0.94440(11) -1.3429(3) 1.02333(14)
H24 H 0.9371 -1.3111 0.9842
C40 C 0.92867(8) -0.8757(2) 0.93795(11)
C41 C 0.89827(8) -0.9493(3) 0.88634(11)
H25 H 0.8915 -1.0374 0.8903
C42 C 0.87844(10) -0.8882(3) 0.82899(12)
H26 H 0.8579 -0.9352 0.7938
C43 C 0.88912(10) -0.7575(3) 0.82400(12)
H27 H 0.8764 -0.7150 0.7857
C44 C 0.91940(9) -0.6920(3) 0.87781(12)
H28 H 0.9267 -0.6038 0.8748
Zn1E Zn 1.213883(9) -0.56856(3) 1.881142(11)
O2E O 1.23896(6) -0.32259(16) 1.33906(7)
O5 O 1.0000 0.1474(3) 0.7500
H29 H 1.006(3) 0.200(7) 0.778(3)
H29A H 0.994(3) 0.200(7) 0.722(3)
H30? H 1.066(2) 0.182(7) 0.736(3)
loop_
_geom_bond_atom_site_label_1
_geom_bond_atom_site_label_2
_geom_bond_site_symmetry_1
_geom_bond_site_symmetry_2
Zn1 N1 1_555 1_555
N1 C13 1_555 1_555
N2 Zn1 1_555 1_555
N3 Zn1 1_555 1_555
N4 C35 1_555 1_555
N5 C32 1_555 1_555
N6 C40 1_555 1_555
O1 C1 1_555 1_555
O2 C1 1_555 1_555
O3 Zn1 1_555 1_555
O4 C23 1_555 1_555
C1 C2 1_555 1_555
C2 C3 1_555 1_555
C3 H1 1_555 1_555
C4 C3 1_555 1_555
H2 C4 1_555 1_555
C5 C4 1_555 1_555
C6 C5 1_555 1_555
H3 C6 1_555 1_555
C7 C2 1_555 1_555
H4 C7 1_555 1_555
C8 C5 1_555 1_555
C9 C8 1_555 1_555
H5 C9 1_555 1_555
C10 N2 1_555 1_555
C11 N2 1_555 1_555
C12 C8 1_555 1_555
H6 C12 1_555 1_555
C13 C10 1_555 1_555
C14 C13 1_555 1_555
H7 C14 1_555 1_555
C15 C14 1_555 1_555
H8 C15 1_555 1_555
C16 C15 1_555 1_555
H9 C16 1_555 1_555
C17 N1 1_555 1_555
H10 C17 1_555 1_555
C18 N3 1_555 1_555
H11 C18 1_555 1_555
C19 C18 1_555 1_555
H12 C19 1_555 1_555
C20 C19 1_555 1_555
H13 C20 1_555 1_555
C21 C20 1_555 1_555
H14 C21 1_555 1_555
C22 N3 1_555 1_555
C23 O3 1_555 1_555
C24 C23 1_555 1_555
C25 C24 1_555 1_555
H15 C25 1_555 1_555
C26 C25 1_555 1_555
H16 C26 1_555 1_555
C27 C26 1_555 1_555
C28 C27 1_555 1_555
H17 C28 1_555 1_555
C29 C24 1_555 1_555
H18 C29 1_555 1_555
C30 C27 1_555 1_555
C31 C30 1_555 1_555
H19 C31 1_555 1_555
C32 C31 1_555 1_555
C33 N5 1_555 1_555
C34 C30 1_555 1_555
H20 C34 1_555 1_555
C35 C32 1_555 1_555
C36 N4 1_555 1_555
H21 C36 1_555 1_555
C37 C36 1_555 1_555
H22 C37 1_555 1_555
C38 C37 1_555 1_555
H23 C38 1_555 1_555
C39 C35 1_555 1_555
H24 C39 1_555 1_555
C40 C33 1_555 1_555
C41 C40 1_555 1_555
H25 C41 1_555 1_555
C42 C41 1_555 1_555
H26 C42 1_555 1_555
C43 C42 1_555 1_555
H27 C43 1_555 1_555
C44 N6 1_555 1_555
H28 C44 1_555 1_555
O5 H29 1_555 1_555
Zn1E O2 1_555 1_555
O2E Zn1 1_555 1_555
H29A O5 1_555 1_555
C6 C7 1_555 1_555
C9 C10 1_555 1_555
C11 C12 1_555 1_555
C11 C22 1_555 1_555
C16 C17 1_555 1_555
C21 C22 1_555 1_555
C28 C29 1_555 1_555
C33 C34 1_555 1_555
C38 C39 1_555 1_555
C43 C44 1_555 1_555

#END
