
#######################################################################
#
#                 Cambridge Crystallographic Data Centre
#                                CCDC 
#
#######################################################################
#
# If this CIF has been generated from an entry in the Cambridge 
# Structural Database, then it will include bibliographic, chemical, 
# crystal, experimental, refinement or atomic coordinate data resulting 
# from the CCDC's data processing and validation procedures.
#
#######################################################################

data_CEJBIE
_symmetry_cell_setting           monoclinic
_symmetry_space_group_name_H-M   'P 21/c'
_symmetry_Int_Tables_number      14
_space_group_name_Hall           '-P 2ybc'
loop_
_symmetry_equiv_pos_site_id
_symmetry_equiv_pos_as_xyz
1 x,y,z
2 -x,1/2+y,1/2-z
3 -x,-y,-z
4 x,1/2-y,1/2+z
_cell_length_a                   10.5917(2)
_cell_length_b                   14.2058(3)
_cell_length_c                   17.1240(3)
_cell_angle_alpha                90
_cell_angle_beta                 97.928(2)
_cell_angle_gamma                90
_cell_volume                     2551.91
loop_
_atom_site_label
_atom_site_type_symbol
_atom_site_fract_x
_atom_site_fract_y
_atom_site_fract_z
Dy1 Dy 0.17761(2) 0.510367(14) 0.333498(13)
Dy2 Dy 1.076520(19) 0.720460(13) 0.655880(12)
O1 O 0.3491(3) 0.6069(2) 0.2977(2)
O2 O 0.3882(3) 0.5446(2) 0.4152(2)
O3 O 0.8377(3) 0.5629(2) 0.5492(2)
O4 O 0.9362(3) 0.7008(3) 0.5432(2)
O5 O 0.3162(3) 0.3782(2) 0.3216(2)
O6 O 0.1160(3) 0.3335(2) 0.30231(19)
O7 O 0.0409(4) 0.0110(3) 0.1848(2)
O8 O 0.1844(4) -0.0997(2) 0.2221(2)
O9 O 0.1360(3) 0.5170(2) 0.1989(2)
O10 O 0.0336(4) 0.6291(2) 0.1241(2)
O11 O -0.1523(4) 0.1508(2) 0.09800(19)
O12 O -0.0980(3) 0.2138(2) 0.21539(19)
O13 O 1.1812(4) 0.6450(3) 0.5628(2)
H1 H 1.1303 0.6066 0.5367
H2 H 1.2450 0.6151 0.5862
O14 O 1.2899(4) 0.7795(3) 0.6716(2)
H3 H 1.3139 0.7856 0.6266
H4 H 1.2918 0.8328 0.6943
C1 C 0.5381(5) 0.6572(3) 0.3817(3)
C2 C 0.6361(5) 0.6236(3) 0.4369(3)
H5 H 0.6287 0.5651 0.4602
C3 C 0.7456(4) 0.6777(3) 0.4574(3)
C4 C 0.7545(5) 0.7658(4) 0.4230(3)
H6 H 0.8265 0.8027 0.4372
C5 C 0.6568(6) 0.7986(4) 0.3682(3)
H7 H 0.6637 0.8573 0.3452
C6 C 0.5489(5) 0.7448(4) 0.3474(3)
H8 H 0.4833 0.7673 0.3103
C7 C 0.4194(4) 0.6003(3) 0.3635(3)
C8 C 0.8480(5) 0.6437(3) 0.5204(3)
C9 C 0.2748(5) 0.2135(3) 0.3110(3)
C10 C 0.1980(4) 0.1483(3) 0.2662(3)
H9 H 0.1210 0.1674 0.2378
C11 C 0.2360(4) 0.0551(3) 0.2639(3)
C12 C 0.3506(6) 0.0269(3) 0.3049(4)
H10 H 0.3767 -0.0353 0.3019
C13 C 0.4268(5) 0.0904(4) 0.3502(4)
H11 H 0.5028 0.0705 0.3792
C14 C 0.3902(5) 0.1842(4) 0.3527(4)
H12 H 0.4429 0.2274 0.3822
C15 C 0.2347(5) 0.3132(3) 0.3118(3)
C16 C 0.1476(5) -0.0158(3) 0.2196(3)
C17 C -0.1291(5) 0.3169(3) 0.1049(3)
C18 C -0.0389(5) 0.3829(3) 0.1356(3)
H13 H 0.0249 0.3655 0.1760
C19 C -0.0428(5) 0.4740(3) 0.1070(3)
C20 C -0.1382(6) 0.4998(3) 0.0463(3)
H14 H -0.1423 0.5611 0.0271
C21 C -0.2262(6) 0.4338(4) 0.0152(4)
H15 H -0.2889 0.4508 -0.0259
C22 C -0.2233(5) 0.3426(3) 0.0438(3)
H16 H -0.2838 0.2989 0.0224
C23 C 0.0500(5) 0.5453(3) 0.1455(3)
C24 C -0.1258(5) 0.2218(3) 0.1416(3)
Dy1B Dy 0.82239(2) 0.489633(14) 0.666502(13)
Dy1A Dy -0.17761(2) 0.010367(14) 0.166502(13)
Dy2B Dy -0.076520(19) 0.279540(13) 0.344120(12)
Dy2C Dy 0.076520(19) -0.220460(13) 0.155880(12)
Dy2C_2 Dy 0.076520(19) 0.779540(13) 0.155880(12)
O3B O 0.1623(3) 0.4371(2) 0.4508(2)
O6B O 0.8840(3) 0.6665(2) 0.69769(19)
O7A O -0.0409(4) 0.5110(3) 0.3152(2)
O8C O 1.1844(4) 0.5997(2) 0.7221(2)
O10C O 1.0336(4) 0.8709(2) 0.6241(2)
O11A O 0.1523(4) 0.6508(2) 0.40200(19)
O12B O 1.0980(3) 0.7862(2) 0.78461(19)
O15 O 0.5651(4) 0.3743(3) 0.4258(3)
H17 H 0.4909 0.3648 0.4378
H18 H 0.5682 0.3553 0.3791
loop_
_geom_bond_atom_site_label_1
_geom_bond_atom_site_label_2
_geom_bond_site_symmetry_1
_geom_bond_site_symmetry_2
Dy1 O1 1_555 1_555
Dy2 O4 1_555 1_555
O1 C7 1_555 1_555
O2 Dy1 1_555 1_555
O3 C8 1_555 1_555
O4 C8 1_555 1_555
O5 Dy1 1_555 1_555
O6 Dy1 1_555 1_555
O7 C16 1_555 1_555
O8 C16 1_555 1_555
O9 Dy1 1_555 1_555
O10 C23 1_555 1_555
O11 C24 1_555 1_555
O12 C24 1_555 1_555
O13 Dy2 1_555 1_555
H1 O13 1_555 1_555
H2 O13 1_555 1_555
O14 Dy2 1_555 1_555
H3 O14 1_555 1_555
H4 O14 1_555 1_555
C1 C2 1_555 1_555
C2 H5 1_555 1_555
C3 C2 1_555 1_555
C4 C3 1_555 1_555
H6 C4 1_555 1_555
C5 C4 1_555 1_555
H7 C5 1_555 1_555
C6 C1 1_555 1_555
H8 C6 1_555 1_555
C7 O2 1_555 1_555
C8 C3 1_555 1_555
C9 C10 1_555 1_555
C10 H9 1_555 1_555
C11 C10 1_555 1_555
C12 C11 1_555 1_555
H10 C12 1_555 1_555
C13 C12 1_555 1_555
H11 C13 1_555 1_555
C14 C9 1_555 1_555
H12 C14 1_555 1_555
C15 O5 1_555 1_555
C16 C11 1_555 1_555
C17 C18 1_555 1_555
C18 H13 1_555 1_555
C19 C18 1_555 1_555
C20 C19 1_555 1_555
H14 C20 1_555 1_555
C21 C20 1_555 1_555
H15 C21 1_555 1_555
C22 C17 1_555 1_555
H16 C22 1_555 1_555
C23 O9 1_555 1_555
C24 C17 1_555 1_555
O15 H17 1_555 1_555
H18 O15 1_555 1_555
Dy1B O3 1_555 1_555
Dy1A O7 1_555 1_555
Dy2B O6 1_555 1_555
Dy2C O8 1_555 1_555
Dy2C_2 O10 1_555 1_555
O3B Dy1 1_555 1_555
O6B Dy2 1_555 1_555
O7A Dy1 1_555 1_555
O8C Dy2 1_555 1_555
O10C Dy2 1_555 1_555
O11A Dy1 1_555 1_555
O12B Dy2 1_555 1_555
O6 C15 1_555 1_555
O11 Dy1A 1_555 1_555
O12 Dy2B 1_555 1_555
C1 C7 1_555 1_555
C5 C6 1_555 1_555
C9 C15 1_555 1_555
C13 C14 1_555 1_555
C19 C23 1_555 1_555
C21 C22 1_555 1_555
Dy1B O6B 1_555 1_555

#END
