
#######################################################################
#
#                 Cambridge Crystallographic Data Centre
#                                CCDC 
#
#######################################################################
#
# If this CIF has been generated from an entry in the Cambridge 
# Structural Database, then it will include bibliographic, chemical, 
# crystal, experimental, refinement or atomic coordinate data resulting 
# from the CCDC's data processing and validation procedures.
#
#######################################################################

data_CEJBOK
_symmetry_cell_setting           triclinic
_symmetry_space_group_name_H-M   'P -1'
_symmetry_Int_Tables_number      2
_space_group_name_Hall           '-P 1'
loop_
_symmetry_equiv_pos_site_id
_symmetry_equiv_pos_as_xyz
1 x,y,z
2 -x,-y,-z
_cell_length_a                   10.855(2)
_cell_length_b                   14.142(3)
_cell_length_c                   20.078(4)
_cell_angle_alpha                86.59(3)
_cell_angle_beta                 83.61(3)
_cell_angle_gamma                78.89(3)
_cell_volume                     3003.36
loop_
_atom_site_label
_atom_site_type_symbol
_atom_site_fract_x
_atom_site_fract_y
_atom_site_fract_z
Tb1 Tb 0.58620(2) 0.767276(15) 0.302036(10)
Tb2 Tb 0.22853(2) 0.307107(14) 0.190551(10)
Tb3 Tb 0.210382(19) 0.556038(14) 0.326223(10)
Tb4 Tb 0.54477(2) 1.011970(16) 0.147240(11)
O1 O 0.4966(4) 0.8138(3) 0.19628(19)
O2 O 0.5066(4) 0.8805(2) 0.0936(2)
O3 O 0.2948(4) 0.4373(3) 0.1344(2)
O4 O 0.2272(4) 0.5433(3) 0.21226(18)
O5 O 0.2234(3) -0.2795(3) 0.2918(2)
O6 O 0.0289(3) -0.3012(2) 0.3077(2)
O7 O 0.3308(4) 0.0252(3) 0.1875(2)
O8 O 0.1988(4) 0.1572(3) 0.2232(2)
O9 O 0.5882(4) 0.9134(3) 0.3497(2)
O10 O 0.5445(5) 1.0065(4) 0.2603(2)
O11 O 0.7519(4) 0.7614(3) -0.08004(18)
O12 O 0.9177(4) 0.6527(3) -0.10690(19)
O13 O 0.0408(3) 0.3656(3) 0.25115(17)
O14 O 0.0435(3) 0.4813(3) 0.32165(17)
O15 O -0.1058(4) 0.4210(3) 0.55956(18)
O16 O -0.2857(4) 0.3714(3) 0.57959(18)
O17 O 0.2887(3) 1.3383(3) 0.29303(17)
O18 O 0.2925(4) 1.4088(2) 0.38728(18)
O19 O 0.7579(3) 0.7829(3) 0.23074(17)
O20 O 0.7323(4) 0.9023(3) 0.15391(18)
O21 O 0.5747(4) 0.6220(3) 0.2672(2)
O22 O 0.4250(3) 0.5370(3) 0.2966(2)
O23 O 0.6340(4) 0.1489(3) 0.1524(3)
O24 O 0.4433(4) 0.2326(3) 0.17565(19)
O25 O 0.3752(4) 0.8219(3) 0.3388(2)
H1 H 0.3433 0.8652 0.3112
H2 H 0.3361 0.7751 0.3410
O26 O 0.7718(4) 0.7063(3) 0.3554(2)
H3 H 0.8353 0.7221 0.3318
H4 H 0.7644 0.7300 0.3939
O27 O 0.5298(4) 0.6800(3) 0.40611(19)
H5 H 0.5864 0.6781 0.4324
H6 H 0.4593 0.7088 0.4245
O28 O 0.4319(4) 1.0895(3) 0.05805(18)
H7 H 0.3545 1.1067 0.0722
H8 H 0.4388 1.0504 0.0267
O29 O 0.6862(4) 1.0175(3) 0.0426(2)
N1 N 0.8270(6) 1.0780(5) -0.0308(4)
C1 C 0.4518(5) 0.7272(3) 0.1051(2)
C2 C 0.3846(5) 0.6666(3) 0.1440(2)
H9 H 0.3631 0.6768 0.1895
C3 C 0.3490(5) 0.5899(3) 0.1149(2)
C4 C 0.3788(6) 0.5757(4) 0.0465(3)
H10 H 0.3548 0.5250 0.0270
C5 C 0.4449(7) 0.6380(4) 0.0076(3)
H11 H 0.4638 0.6294 -0.0382
C6 C 0.4822(6) 0.7120(4) 0.0366(3)
H12 H 0.5281 0.7524 0.0104
C7 C 0.4876(5) 0.8120(4) 0.1343(3)
C8 C 0.2872(5) 0.5182(4) 0.1568(2)
C9 C 0.0663(5) -0.1411(3) 0.2750(2)
C10 C 0.1572(5) -0.0878(3) 0.2484(2)
H13 H 0.2400 -0.1192 0.2377
C11 C 0.1262(5) 0.0107(3) 0.2376(3)
C12 C 0.0017(6) 0.0567(4) 0.2519(4)
H14 H -0.0195 0.1234 0.2459
C13 C -0.0913(6) 0.0044(4) 0.2749(4)
H15 H -0.1752 0.0353 0.2817
C14 C -0.0589(5) -0.0942(4) 0.2877(3)
H16 H -0.1205 -0.1291 0.3047
C15 C 0.1061(4) -0.2459(3) 0.2921(2)
C16 C 0.2277(5) 0.0682(3) 0.2138(2)
C17 C 0.5066(5) 1.0796(3) 0.3647(2)
C18 C 0.4388(5) 1.1646(3) 0.3388(2)
H17 H 0.4226 1.1690 0.2941
C19 C 0.3945(4) 1.2442(3) 0.3794(2)
C20 C 0.4238(5) 1.2378(3) 0.4456(2)
H18 H 0.3982 1.2909 0.4724
C21 C 0.4910(5) 1.1526(4) 0.4717(2)
H19 H 0.5076 1.1480 0.5164
C22 C 0.5331(5) 1.0745(3) 0.4313(2)
H20 H 0.5796 1.0181 0.4488
C23 C 0.5500(5) 0.9939(4) 0.3220(2)
C24 C 0.8832(5) 0.6985(4) 0.0069(2)
C25 C 0.8195(5) 0.7627(4) 0.0539(2)
H21 H 0.7585 0.8143 0.0412
C26 C 0.8469(5) 0.7497(3) 0.1206(2)
C27 C 0.9351(5) 0.6709(4) 0.1393(3)
H22 H 0.9503 0.6601 0.1841
C28 C 1.0002(6) 0.6083(4) 0.0919(3)
H23 H 1.0610 0.5566 0.1046
C29 C 0.9760(6) 0.6220(4) 0.0257(3)
H24 H 1.0213 0.5803 -0.0062
C30 C 0.8506(5) 0.7058(4) -0.0639(2)
C31 C 0.0043(4) 0.4093(4) 0.3047(2)
C32 C -0.0908(4) 0.3698(3) 0.3540(2)
C33 C -0.1635(6) 0.3069(4) 0.3348(3)
H25 H -0.1569 0.2900 0.2903
C34 C -0.2456(7) 0.2695(5) 0.3823(3)
H26 H -0.2950 0.2281 0.3695
C35 C -0.1918(5) 0.3839(4) 0.5395(2)
C36 C -0.1819(5) 0.3564(4) 0.4686(2)
C37 C -0.2545(6) 0.2938(5) 0.4491(3)
H27 H -0.3093 0.2680 0.4808
C38 C -0.1005(4) 0.3947(3) 0.4208(2)
H28 H -0.1249 0.4637 0.4187
C39 C 0.3201(5) 1.3356(3) 0.3518(2)
C40 C 0.7740(4) 0.8166(4) 0.1718(2)
C41 C 0.5278(4) 0.5478(3) 0.2655(2)
C42 C 0.6199(5) 0.3112(3) 0.1777(3)
C43 C 0.5505(5) 0.3877(3) 0.2158(2)
H29 H 0.4695 0.3849 0.2356
C44 C 0.6041(5) 0.4670(3) 0.2235(2)
C45 C 0.7231(5) 0.4737(4) 0.1922(3)
H30 H 0.7575 0.5281 0.1966
C46 C 0.7891(6) 0.3990(5) 0.1546(3)
H31 H 0.8684 0.4033 0.1332
C47 C 0.7400(5) 0.3173(4) 0.1481(3)
H32 H 0.7875 0.2664 0.1238
C48 C 0.5599(5) 0.2266(4) 0.1679(3)
C49 C 0.7314(7) 1.0805(6) 0.0123(4)
H33 H 0.6887 1.1424 0.0222
C50 C 0.8839(11) 0.9810(9) -0.0593(5)
H34 H 0.8512 0.9314 -0.0323
H35 H 0.9740 0.9701 -0.0594
H36 H 0.8628 0.9799 -0.1044
C51 C 0.8711(11) 1.1549(8) -0.0682(6)
H37 H 0.8323 1.2148 -0.0482
H38 H 0.8499 1.1559 -0.1134
H39 H 0.9611 1.1461 -0.0683
Tb2A Tb 0.77147(2) 0.692893(14) -0.190551(10)
Tb2_2 Tb 0.22853(2) 1.307107(14) 0.190551(10)
Tb3_2 Tb 0.210382(19) -0.443962(14) 0.326223(10)
Tb3A Tb -0.210382(19) 0.443962(14) 0.673777(10)
Tb3_3 Tb 0.210382(19) 1.556038(14) 0.326223(10)
Tb4_2 Tb 0.54477(2) 0.011970(16) 0.147240(11)
O5_2 O 0.2234(3) 0.7205(3) 0.2918(2)
O6_2 O 0.0289(3) 0.6988(2) 0.3077(2)
O7_2 O 0.3308(4) 1.0252(3) 0.1875(2)
O11A O 0.2481(4) 0.2386(3) 0.08004(18)
O12A O 0.0823(4) 0.3473(3) 0.10690(19)
O15A O 0.1058(4) 0.5790(3) 0.44044(18)
O16A O 0.2857(4) 0.6286(3) 0.42041(18)
O17_2 O 0.2887(3) 0.3383(3) 0.29303(17)
O18_2 O 0.2925(4) 0.4088(2) 0.38728(18)
O23_2 O 0.6340(4) 1.1489(3) 0.1524(3)
O30 O 0.2608(7) 0.9283(5) 0.4390(3)
N2 N 0.1462(7) 1.0771(6) 0.4598(5)
C52 C 0.2132(8) 1.0065(7) 0.4205(6)
H40 H 0.2226 1.0208 0.3746
C53 C 0.1344(13) 1.0688(12) 0.5287(7)
H41 H 0.1733 1.0050 0.5427
H42 H 0.0467 1.0805 0.5453
H43 H 0.1752 1.1151 0.5461
C54 C 0.0939(13) 1.1677(9) 0.4251(8)
H44 H 0.1105 1.1607 0.3775
H45 H 0.1325 1.2186 0.4379
H46 H 0.0044 1.1832 0.4371
O31 O 0.8441(4) 0.6326(4) 0.4762(2)
H47 H 0.9098 0.6516 0.4576
H48 H 0.7909 0.6807 0.4913
O32 O 0.5475(12) 0.4892(8) 0.4322(6)
H49 H 0.4844 0.4740 0.4566
H50 H 0.6151 0.4619 0.4484
loop_
_geom_bond_atom_site_label_1
_geom_bond_atom_site_label_2
_geom_bond_site_symmetry_1
_geom_bond_site_symmetry_2
Tb1 O1 1_555 1_555
Tb2 O3 1_555 1_555
Tb3 O4 1_555 1_555
Tb4 O2 1_555 1_555
O1 C7 1_555 1_555
O2 C7 1_555 1_555
O3 C8 1_555 1_555
O4 C8 1_555 1_555
O5 C15 1_555 1_555
O6 C15 1_555 1_555
O7 C16 1_555 1_555
O8 Tb2 1_555 1_555
O9 Tb1 1_555 1_555
O10 Tb4 1_555 1_555
O11 C30 1_555 1_555
O12 C30 1_555 1_555
O13 Tb2 1_555 1_555
O14 Tb3 1_555 1_555
O15 C35 1_555 1_555
O16 C35 1_555 1_555
O17 C39 1_555 1_555
O18 C39 1_555 1_555
O19 Tb1 1_555 1_555
O20 Tb4 1_555 1_555
O21 Tb1 1_555 1_555
O22 Tb3 1_555 1_555
O23 C48 1_555 1_555
O24 Tb2 1_555 1_555
O25 Tb1 1_555 1_555
H1 O25 1_555 1_555
H2 O25 1_555 1_555
O26 Tb1 1_555 1_555
H3 O26 1_555 1_555
H4 O26 1_555 1_555
O27 Tb1 1_555 1_555
H5 O27 1_555 1_555
H6 O27 1_555 1_555
O28 Tb4 1_555 1_555
H7 O28 1_555 1_555
H8 O28 1_555 1_555
O29 Tb4 1_555 1_555
N1 C49 1_555 1_555
C1 C2 1_555 1_555
C2 H9 1_555 1_555
C3 C2 1_555 1_555
C4 C3 1_555 1_555
H10 C4 1_555 1_555
C5 C4 1_555 1_555
H11 C5 1_555 1_555
C6 C1 1_555 1_555
H12 C6 1_555 1_555
C7 C1 1_555 1_555
C8 C3 1_555 1_555
C9 C10 1_555 1_555
C10 H13 1_555 1_555
C11 C10 1_555 1_555
C12 C11 1_555 1_555
H14 C12 1_555 1_555
C13 C12 1_555 1_555
H15 C13 1_555 1_555
C14 C9 1_555 1_555
H16 C14 1_555 1_555
C15 C9 1_555 1_555
C16 O8 1_555 1_555
C17 C18 1_555 1_555
C18 H17 1_555 1_555
C19 C18 1_555 1_555
C20 C19 1_555 1_555
H18 C20 1_555 1_555
C21 C20 1_555 1_555
H19 C21 1_555 1_555
C22 C17 1_555 1_555
H20 C22 1_555 1_555
C23 O9 1_555 1_555
C24 C25 1_555 1_555
C25 H21 1_555 1_555
C26 C25 1_555 1_555
C27 C26 1_555 1_555
H22 C27 1_555 1_555
C28 C27 1_555 1_555
H23 C28 1_555 1_555
C29 C24 1_555 1_555
H24 C29 1_555 1_555
C30 C24 1_555 1_555
C31 O13 1_555 1_555
C32 C31 1_555 1_555
C33 C32 1_555 1_555
H25 C33 1_555 1_555
C34 C33 1_555 1_555
H26 C34 1_555 1_555
C35 C36 1_555 1_555
C36 C37 1_555 1_555
C37 C34 1_555 1_555
H27 C37 1_555 1_555
C38 C32 1_555 1_555
H28 C38 1_555 1_555
C39 C19 1_555 1_555
C40 O19 1_555 1_555
C41 O21 1_555 1_555
C42 C43 1_555 1_555
C43 H29 1_555 1_555
C44 C41 1_555 1_555
C45 C44 1_555 1_555
H30 C45 1_555 1_555
C46 C45 1_555 1_555
H31 C46 1_555 1_555
C47 C42 1_555 1_555
H32 C47 1_555 1_555
C48 O24 1_555 1_555
C49 O29 1_555 1_555
H33 C49 1_555 1_555
C50 N1 1_555 1_555
H34 C50 1_555 1_555
H35 C50 1_555 1_555
H36 C50 1_555 1_555
C51 N1 1_555 1_555
H37 C51 1_555 1_555
H38 C51 1_555 1_555
H39 C51 1_555 1_555
O30 C52 1_555 1_555
N2 C52 1_555 1_555
C52 H40 1_555 1_555
C53 N2 1_555 1_555
H41 C53 1_555 1_555
H42 C53 1_555 1_555
H43 C53 1_555 1_555
C54 N2 1_555 1_555
H44 C54 1_555 1_555
H45 C54 1_555 1_555
H46 C54 1_555 1_555
O31 H47 1_555 1_555
H48 O31 1_555 1_555
O32 H49 1_555 1_555
H50 O32 1_555 1_555
Tb2A O11 1_555 1_555
Tb2_2 O17 1_555 1_555
Tb3_2 O5 1_555 1_555
Tb3A O15 1_555 1_555
Tb3_3 O18 1_555 1_555
Tb4_2 O7 1_555 1_555
O5_2 Tb3 1_555 1_555
O6_2 Tb3 1_555 1_555
O7_2 Tb4 1_555 1_555
O11A Tb2 1_555 1_555
O12A Tb2 1_555 1_555
O15A Tb3 1_555 1_555
O16A Tb3 1_555 1_555
O17_2 Tb2 1_555 1_555
O18_2 Tb3 1_555 1_555
O23_2 Tb4 1_555 1_555
O6 Tb3_2 1_555 1_555
O10 C23 1_555 1_555
O12 Tb2A 1_555 1_555
O14 C31 1_555 1_555
O16 Tb3A 1_555 1_555
O20 C40 1_555 1_555
O22 C41 1_555 1_555
O23 Tb4_2 1_555 1_555
C5 C6 1_555 1_555
C11 C16 1_555 1_555
C13 C14 1_555 1_555
C17 C23 1_555 1_555
C21 C22 1_555 1_555
C26 C40 1_555 1_555
C28 C29 1_555 1_555
C36 C38 1_555 1_555
C42 C48 1_555 1_555
C43 C44 1_555 1_555
C46 C47 1_555 1_555

#END
