
#######################################################################
#
#                 Cambridge Crystallographic Data Centre
#                                CCDC 
#
#######################################################################
#
# If this CIF has been generated from an entry in the Cambridge 
# Structural Database, then it will include bibliographic, chemical, 
# crystal, experimental, refinement or atomic coordinate data resulting 
# from the CCDC's data processing and validation procedures.
#
#######################################################################

data_CEJBUQ
_symmetry_cell_setting           triclinic
_symmetry_space_group_name_H-M   'P -1'
_symmetry_Int_Tables_number      2
_space_group_name_Hall           '-P 1'
loop_
_symmetry_equiv_pos_site_id
_symmetry_equiv_pos_as_xyz
1 x,y,z
2 -x,-y,-z
_cell_length_a                   10.8221(3)
_cell_length_b                   14.0737(5)
_cell_length_c                   19.9657(6)
_cell_angle_alpha                86.530(3)
_cell_angle_beta                 83.510(2)
_cell_angle_gamma                78.798(2)
_cell_volume                     2961.54
loop_
_atom_site_label
_atom_site_type_symbol
_atom_site_fract_x
_atom_site_fract_y
_atom_site_fract_z
Ho1 Ho 0.21053(3) 0.55674(2) 0.326602(13)
Ho2 Ho 0.22781(3) 0.30683(2) 0.190314(13)
Ho3 Ho 0.58598(3) -0.23360(2) 0.302372(14)
Ho4 Ho 0.54517(3) 0.01130(2) 0.146953(15)
O1 O 0.1062(5) 0.5788(4) 0.4402(2)
O2 O 0.2873(6) 0.6270(5) 0.4202(3)
O3 O 0.0289(5) 0.6979(4) 0.3077(3)
O4 O 0.2236(5) 0.7203(4) 0.2937(3)
O5 O 0.2253(6) 0.5456(5) 0.2135(3)
O6 O 0.2906(6) 0.4377(4) 0.1357(3)
O7 O 0.2929(5) 0.4098(4) 0.3855(2)
O8 O 0.2877(5) 0.3370(4) 0.2911(2)
O9 O 0.5868(5) -0.0878(4) 0.3482(3)
O10 O 0.5456(6) 0.0073(5) 0.2586(3)
O11 O 0.4394(5) 0.2351(4) 0.1750(3)
O12 O 0.6299(6) 0.1484(4) 0.1519(4)
O13 O 0.2492(5) 0.2390(4) 0.0805(3)
O14 O 0.0815(5) 0.3461(5) 0.1083(3)
O15 O -0.0465(5) 0.5190(4) 0.6780(2)
O16 O -0.0420(5) 0.6334(4) 0.7495(2)
O17 O 0.2002(6) 1.1578(4) 0.2222(3)
O18 O 0.3331(5) 1.0258(4) 0.1878(3)
O19 O 0.4964(5) 0.8129(4) 0.1981(3)
O20 O 0.5067(5) 0.8804(4) 0.0949(3)
O21 O 0.2453(5) 0.2180(4) -0.2311(2)
O22 O 0.2687(5) 0.0975(4) -0.1544(2)
O23 O 0.4245(5) 0.5377(4) 0.2955(3)
O24 O 0.3774(5) -0.1790(4) 0.3385(3)
H1 H 0.3453 -0.1352 0.3109
H2 H 0.3378 -0.2259 0.3407
O25 O 0.5759(6) 0.6223(4) 0.2678(3)
O26 O 0.7687(5) -0.2938(5) 0.3553(3)
H3 H 0.8325 -0.2780 0.3317
H4 H 0.7610 -0.2700 0.3940
O27 O 0.5294(6) -0.3192(5) 0.4064(3)
H5 H 0.5863 -0.3216 0.4328
H6 H 0.5233 -0.3765 0.3979
O28 O 0.4326(5) 0.0891(4) 0.0589(3)
H7 H 0.3551 0.1066 0.0735
H8 H 0.4390 0.0500 0.0274
O29 O 0.6860(6) 0.0161(4) 0.0427(3)
N1 N 0.8261(8) 0.0759(7) -0.0318(5)
C1 C 0.1827(7) 0.6430(6) 0.5311(4)
C2 C 0.1006(6) 0.6044(5) 0.5796(3)
H9 H 0.0527 0.5616 0.5669
C3 C 0.0896(6) 0.6290(5) 0.6462(3)
C4 C 0.1625(8) 0.6921(7) 0.6651(4)
H10 H 0.1555 0.7091 0.7099
C5 C 0.2452(10) 0.7296(8) 0.6178(4)
H11 H 0.2946 0.7710 0.6309
C6 C 0.2547(9) 0.7060(7) 0.5517(4)
H12 H 0.3099 0.7323 0.5201
C7 C 0.1921(7) 0.6155(5) 0.4604(3)
C8 C 0.0672(6) 0.8580(5) 0.2748(3)
C9 C 0.1589(6) 0.9115(5) 0.2480(3)
H13 H 0.2421 0.8801 0.2371
C10 C 0.1261(7) 1.0112(5) 0.2376(3)
C11 C 0.0019(8) 1.0566(6) 0.2501(5)
H14 H -0.0204 1.1234 0.2430
C12 C -0.0907(8) 1.0030(7) 0.2735(6)
H15 H -0.1751 1.0337 0.2802
C13 C -0.0581(7) 0.9057(6) 0.2867(4)
H16 H -0.1202 0.8708 0.3037
C14 C 0.1057(7) 0.7535(5) 0.2927(3)
C15 C 0.3492(7) 0.5897(5) 0.1152(3)
C16 C 0.3843(6) 0.6661(5) 0.1449(3)
H17 H 0.3628 0.6762 0.1907
C17 C 0.4520(7) 0.7272(5) 0.1051(3)
C18 C 0.4828(8) 0.7119(6) 0.0379(4)
H18 H 0.5301 0.7520 0.0120
C19 C 0.4450(10) 0.6380(6) 0.0076(4)
H19 H 0.4650 0.6295 -0.0384
C20 C 0.3771(9) 0.5765(6) 0.0465(3)
H20 H 0.3506 0.5269 0.0266
C21 C 0.2826(6) 0.5199(5) 0.1584(3)
C22 C 0.3953(6) 0.2436(5) 0.3779(3)
C23 C 0.4373(6) 0.1642(5) 0.3385(3)
H21 H 0.4188 0.1680 0.2940
C24 C 0.5067(6) 0.0787(5) 0.3639(3)
C25 C 0.5334(7) 0.0736(5) 0.4305(3)
H22 H 0.5795 0.0168 0.4483
C26 C 0.4911(8) 0.1537(5) 0.4711(3)
H23 H 0.5096 0.1499 0.5156
C27 C 0.4223(7) 0.2377(5) 0.4455(3)
H24 H 0.3937 0.2905 0.4727
C28 C 0.3214(6) 0.3357(5) 0.3503(3)
C29 C 0.5500(7) -0.0063(5) 0.3211(4)
C30 C 0.6177(7) 0.3117(5) 0.1765(4)
C31 C 0.5501(6) 0.3882(5) 0.2153(3)
H25 H 0.4691 0.3851 0.2355
C32 C 0.6017(6) 0.4678(5) 0.2240(3)
C33 C 0.7213(7) 0.4740(6) 0.1919(4)
H26 H 0.7548 0.5293 0.1956
C34 C 0.7901(8) 0.3983(7) 0.1547(5)
H27 H 0.8706 0.4021 0.1343
C35 C 0.7392(8) 0.3161(6) 0.1478(5)
H28 H 0.7868 0.2644 0.1239
C36 C 0.5581(7) 0.2269(5) 0.1673(4)
C37 C 0.1171(6) 0.3020(5) -0.0066(4)
C38 C 0.1813(6) 0.2371(5) -0.0541(3)
H29 H 0.2423 0.1851 -0.0414
C39 C 0.0239(7) 0.3778(6) -0.0250(4)
H30 H -0.0226 0.4190 0.0073
C40 C 0.1500(6) 0.2943(5) 0.0643(3)
C41 C -0.0063(6) 0.5905(5) 0.6959(3)
C42 C 0.2282(7) 1.0692(5) 0.2139(3)
C43 C 0.4885(6) 0.8115(5) 0.1352(4)
C44 C 0.1539(6) 0.2504(5) -0.1210(3)
C45 C 0.0649(7) 0.3297(6) -0.1394(4)
H31 H 0.0495 0.3403 -0.1844
C46 C -0.0002(8) 0.3921(6) -0.0929(4)
H32 H -0.0606 0.4443 -0.1059
C47 C 0.2285(6) 0.1827(5) -0.1722(3)
C48 C 0.5276(6) 0.5475(5) 0.2661(3)
C49 C 0.8811(14) -0.0183(11) -0.0594(7)
H33 H 0.8472 -0.0680 -0.0325
H34 H 0.9714 -0.0298 -0.0589
H35 H 0.8610 -0.0190 -0.1049
C50 C 0.8696(14) 0.1556(12) -0.0674(7)
H36 H 0.8296 0.2146 -0.0458
H37 H 0.8488 0.1589 -0.1130
H38 H 0.9597 0.1473 -0.0672
C51 C 0.7300(10) 0.0813(8) 0.0138(6)
H39 H 0.6899 0.1435 0.0257
Ho1A Ho -0.21053(3) 0.44326(2) 0.673398(13)
Ho2A Ho -0.22781(3) 0.69317(2) 0.809686(13)
Ho2_2 Ho 0.22781(3) 1.30683(2) 0.190314(13)
Ho3_2 Ho 0.58598(3) 0.76640(2) 0.302372(14)
Ho3A Ho 0.41402(3) 0.23360(2) -0.302372(14)
Ho4_2 Ho 0.54517(3) 1.01130(2) 0.146953(15)
Ho4A Ho 0.45483(3) -0.01130(2) -0.146953(15)
O15A O 0.0465(5) 0.4810(4) 0.3220(2)
O16A O 0.0420(5) 0.3666(4) 0.2505(2)
O17_2 O 0.2002(6) 0.1578(4) 0.2222(3)
O18_2 O 0.3331(5) 0.0258(4) 0.1878(3)
O19_2 O 0.4964(5) -0.1871(4) 0.1981(3)
O20_2 O 0.5067(5) -0.1196(4) 0.0949(3)
O21A O 0.7547(5) -0.2180(4) 0.2311(2)
O22A O 0.7313(5) -0.0975(4) 0.1544(2)
O25_2 O 0.5759(6) -0.3777(4) 0.2678(3)
O30 O 0.2600(10) -0.0717(8) 0.4390(5)
N2 N 0.1468(10) 0.0774(8) 0.4589(6)
C52 C 0.1308(18) 0.0681(19) 0.5297(10)
H40 H 0.1702 0.0041 0.5440
H41 H 0.0421 0.0787 0.5450
H42 H 0.1692 0.1151 0.5484
C53 C 0.0925(16) 0.1686(13) 0.4258(12)
H43 H 0.1109 0.1640 0.3778
H44 H 0.1285 0.2200 0.4406
H45 H 0.0025 0.1820 0.4373
C54 C 0.2140(12) 0.0062(11) 0.4211(9)
H46 H 0.2252 0.0205 0.3749
O31 O 0.8430(6) -0.3672(6) 0.4759(3)
H47 H 0.8941 -0.3315 0.4584
H48 H 0.7948 -0.3380 0.5079
O32 O 0.5474(16) -0.5105(13) 0.4332(9)
H49 H 0.4939 -0.5461 0.4471
H50 H 0.6216 -0.5411 0.4387
loop_
_geom_bond_atom_site_label_1
_geom_bond_atom_site_label_2
_geom_bond_site_symmetry_1
_geom_bond_site_symmetry_2
Ho1 O1 1_555 1_555
Ho2 O6 1_555 1_555
Ho3 O9 1_555 1_555
Ho4 O10 1_555 1_555
O1 C7 1_555 1_555
O2 Ho1 1_555 1_555
O3 Ho1 1_555 1_555
O4 Ho1 1_555 1_555
O5 Ho1 1_555 1_555
O6 C21 1_555 1_555
O7 Ho1 1_555 1_555
O8 Ho2 1_555 1_555
O9 C29 1_555 1_555
O10 C29 1_555 1_555
O11 Ho2 1_555 1_555
O12 Ho4 1_555 1_555
O13 Ho2 1_555 1_555
O14 Ho2 1_555 1_555
O15 C41 1_555 1_555
O16 C41 1_555 1_555
O17 C42 1_555 1_555
O18 C42 1_555 1_555
O19 C43 1_555 1_555
O20 C43 1_555 1_555
O21 C47 1_555 1_555
O22 C47 1_555 1_555
O23 Ho1 1_555 1_555
O24 Ho3 1_555 1_555
H1 O24 1_555 1_555
H2 O24 1_555 1_555
O25 C48 1_555 1_555
O26 Ho3 1_555 1_555
H3 O26 1_555 1_555
H4 O26 1_555 1_555
O27 Ho3 1_555 1_555
H5 O27 1_555 1_555
H6 O27 1_555 1_555
O28 Ho4 1_555 1_555
H7 O28 1_555 1_555
H8 O28 1_555 1_555
O29 Ho4 1_555 1_555
N1 C49 1_555 1_555
C1 C2 1_555 1_555
C2 H9 1_555 1_555
C3 C2 1_555 1_555
C4 C3 1_555 1_555
H10 C4 1_555 1_555
C5 C4 1_555 1_555
H11 C5 1_555 1_555
C6 C1 1_555 1_555
H12 C6 1_555 1_555
C7 O2 1_555 1_555
C8 C9 1_555 1_555
C9 H13 1_555 1_555
C10 C9 1_555 1_555
C11 C10 1_555 1_555
H14 C11 1_555 1_555
C12 C11 1_555 1_555
H15 C12 1_555 1_555
C13 C8 1_555 1_555
H16 C13 1_555 1_555
C14 O3 1_555 1_555
C15 C16 1_555 1_555
C16 H17 1_555 1_555
C17 C16 1_555 1_555
C18 C17 1_555 1_555
H18 C18 1_555 1_555
C19 C18 1_555 1_555
H19 C19 1_555 1_555
C20 C15 1_555 1_555
H20 C20 1_555 1_555
C21 O5 1_555 1_555
C22 C23 1_555 1_555
C23 H21 1_555 1_555
C24 C23 1_555 1_555
C25 C24 1_555 1_555
H22 C25 1_555 1_555
C26 C25 1_555 1_555
H23 C26 1_555 1_555
C27 C22 1_555 1_555
H24 C27 1_555 1_555
C28 O7 1_555 1_555
C29 C24 1_555 1_555
C30 C31 1_555 1_555
C31 H25 1_555 1_555
C32 C31 1_555 1_555
C33 C32 1_555 1_555
H26 C33 1_555 1_555
C34 C33 1_555 1_555
H27 C34 1_555 1_555
C35 C30 1_555 1_555
H28 C35 1_555 1_555
C36 O11 1_555 1_555
C37 C38 1_555 1_555
C38 H29 1_555 1_555
C39 C37 1_555 1_555
H30 C39 1_555 1_555
C40 O13 1_555 1_555
C41 C3 1_555 1_555
C42 C10 1_555 1_555
C43 C17 1_555 1_555
C44 C38 1_555 1_555
C45 C44 1_555 1_555
H31 C45 1_555 1_555
C46 C39 1_555 1_555
H32 C46 1_555 1_555
C47 C44 1_555 1_555
C48 O23 1_555 1_555
C49 H33 1_555 1_555
H34 C49 1_555 1_555
H35 C49 1_555 1_555
C50 N1 1_555 1_555
H36 C50 1_555 1_555
H37 C50 1_555 1_555
H38 C50 1_555 1_555
C51 O29 1_555 1_555
H39 C51 1_555 1_555
O30 C54 1_555 1_555
N2 C52 1_555 1_555
C52 H40 1_555 1_555
H41 C52 1_555 1_555
H42 C52 1_555 1_555
C53 N2 1_555 1_555
H43 C53 1_555 1_555
H44 C53 1_555 1_555
H45 C53 1_555 1_555
C54 N2 1_555 1_555
H46 C54 1_555 1_555
O31 H47 1_555 1_555
H48 O31 1_555 1_555
O32 H49 1_555 1_555
H50 O32 1_555 1_555
Ho1A O15 1_555 1_555
Ho2A O16 1_555 1_555
Ho2_2 O17 1_555 1_555
Ho3_2 O19 1_555 1_555
Ho3A O21 1_555 1_555
Ho4_2 O18 1_555 1_555
Ho4A O22 1_555 1_555
O15A Ho1 1_555 1_555
O16A Ho2 1_555 1_555
O17_2 Ho2 1_555 1_555
O18_2 Ho4 1_555 1_555
O19_2 Ho3 1_555 1_555
O20_2 Ho4 1_555 1_555
O21A Ho3 1_555 1_555
O22A Ho4 1_555 1_555
O25_2 Ho3 1_555 1_555
O4 C14 1_555 1_555
O8 C28 1_555 1_555
O12 C36 1_555 1_555
O14 C40 1_555 1_555
O20 Ho4_2 1_555 1_555
O25 Ho3_2 1_555 1_555
N1 C51 1_555 1_555
C1 C7 1_555 1_555
C5 C6 1_555 1_555
C8 C14 1_555 1_555
C12 C13 1_555 1_555
C15 C21 1_555 1_555
C19 C20 1_555 1_555
C22 C28 1_555 1_555
C26 C27 1_555 1_555
C30 C36 1_555 1_555
C32 C48 1_555 1_555
C34 C35 1_555 1_555
C37 C40 1_555 1_555
C45 C46 1_555 1_555

#END
