
#######################################################################
#
#                 Cambridge Crystallographic Data Centre
#                                CCDC 
#
#######################################################################
#
# If this CIF has been generated from an entry in the Cambridge 
# Structural Database, then it will include bibliographic, chemical, 
# crystal, experimental, refinement or atomic coordinate data resulting 
# from the CCDC's data processing and validation procedures.
#
#######################################################################

data_CEJCAX
_symmetry_cell_setting           triclinic
_symmetry_space_group_name_H-M   'P -1'
_symmetry_Int_Tables_number      2
_space_group_name_Hall           '-P 1'
loop_
_symmetry_equiv_pos_site_id
_symmetry_equiv_pos_as_xyz
1 x,y,z
2 -x,-y,-z
_cell_length_a                   10.8221(3)
_cell_length_b                   14.0737(5)
_cell_length_c                   19.9657(6)
_cell_angle_alpha                86.530(3)
_cell_angle_beta                 83.510(2)
_cell_angle_gamma                78.798(2)
_cell_volume                     2961.54
loop_
_atom_site_label
_atom_site_type_symbol
_atom_site_fract_x
_atom_site_fract_y
_atom_site_fract_z
Er1 Er 0.210702(16) 0.556961(12) 0.326782(10)
Er2 Er 0.227562(16) 0.306705(12) 0.190229(10)
Er3 Er 0.585792(17) -0.234063(13) 0.302587(10)
Er4 Er 0.545074(18) 0.011058(13) 0.146936(10)
O1 O 0.2929(3) 0.4098(2) 0.38436(16)
O2 O 0.2885(3) 0.3362(2) 0.29102(16)
O3 O 0.5864(3) -0.0888(2) 0.34787(18)
O4 O 0.5464(3) 0.0065(3) 0.25849(19)
O5 O 0.4388(3) 0.2358(2) 0.17447(17)
O6 O 0.6286(3) 0.1480(2) 0.1521(2)
O7 O 0.4230(3) 0.5376(2) 0.29608(17)
O8 O 0.5763(3) 0.6221(2) 0.26801(17)
O9 O 0.2248(3) 0.5464(3) 0.21462(16)
O10 O 0.2894(3) 0.4377(2) 0.13668(17)
O11 O 0.4968(3) 0.8126(2) 0.19871(17)
O12 O 0.5063(3) 0.8809(2) 0.09552(18)
O13 O 0.0280(3) 0.6984(2) 0.30713(17)
O14 O 0.2236(3) 0.7197(2) 0.29449(18)
O15 O 0.1995(3) 1.1588(2) 0.22184(18)
O16 O 0.3330(3) 1.0258(2) 0.18827(18)
O17 O 0.1071(3) 0.5796(2) 0.43924(16)
O18 O 0.2893(3) 0.6254(3) 0.42051(17)
O19 O -0.0473(2) 0.5187(2) 0.67749(16)
O20 O -0.0433(3) 0.6332(2) 0.74943(16)
O21 O 0.2467(3) 0.2184(2) -0.23128(16)
O22 O 0.2702(3) 0.0968(2) -0.15449(16)
O23 O 0.2513(3) 0.2396(2) 0.08030(17)
O24 O 0.0819(3) 0.3454(3) 0.10873(17)
O25 O 0.3774(3) -0.1793(2) 0.33771(18)
H1 H 0.3376 -0.2260 0.3402
H2 H 0.3711 -0.1554 0.3763
O26 O 0.7685(3) -0.2940(2) 0.35520(17)
H3 H 0.8320 -0.2781 0.3313
H4 H 0.7610 -0.2699 0.3938
O27 O 0.5324(3) -0.3192(3) 0.40673(17)
H5 H 0.4622 -0.2898 0.4255
H6 H 0.5260 -0.3765 0.3985
O28 O 0.4330(3) 0.0887(2) 0.05946(17)
H7 H 0.3556 0.1063 0.0742
H8 H 0.4391 0.0497 0.0278
O29 O 0.6853(3) 0.0158(2) 0.04280(18)
N1 N 0.8253(4) 0.0753(4) -0.0318(3)
C1 C 0.3948(4) 0.2437(3) 0.3783(2)
C2 C 0.4377(4) 0.1640(3) 0.3375(2)
H9 H 0.4197 0.1677 0.2929
C3 C 0.5076(4) 0.0789(3) 0.3640(2)
C4 C 0.5316(4) 0.0740(3) 0.4303(2)
H10 H 0.5756 0.0167 0.4486
C5 C 0.4908(4) 0.1534(3) 0.4701(2)
H11 H 0.5094 0.1499 0.5147
C6 C 0.4227(4) 0.2377(3) 0.4439(2)
H12 H 0.3954 0.2909 0.4709
C7 C 0.3204(4) 0.3357(3) 0.3495(2)
C8 C 0.5499(4) -0.0071(3) 0.3201(3)
C9 C 0.6166(4) 0.3118(3) 0.1765(2)
C10 C 0.5506(4) 0.3879(3) 0.2153(2)
H13 H 0.4701 0.3845 0.2361
C11 C 0.6019(4) 0.4682(3) 0.2237(2)
C12 C 0.7200(4) 0.4746(4) 0.1919(3)
H14 H 0.7538 0.5297 0.1956
C13 C 0.7887(4) 0.3975(4) 0.1540(3)
H15 H 0.8690 0.4010 0.1331
C14 C 0.7383(4) 0.3173(4) 0.1477(3)
H16 H 0.7860 0.2655 0.1239
C15 C 0.5571(4) 0.2268(3) 0.1675(2)
C16 C 0.5276(4) 0.5484(3) 0.2661(2)
C17 C 0.3473(4) 0.5900(3) 0.1156(2)
C18 C 0.3838(4) 0.6665(3) 0.1448(2)
H17 H 0.3625 0.6766 0.1906
C19 C 0.4515(4) 0.7271(3) 0.1058(2)
C20 C 0.4828(5) 0.7110(3) 0.0377(3)
H18 H 0.5298 0.7508 0.0113
C21 C 0.4450(5) 0.6370(4) 0.0090(3)
H19 H 0.4646 0.6278 -0.0370
C22 C 0.3781(4) 0.5759(3) 0.0479(2)
H20 H 0.3537 0.5251 0.0282
C23 C 0.2822(4) 0.5207(3) 0.1588(2)
C24 C 0.4877(4) 0.8113(3) 0.1362(2)
C25 C 0.0669(4) 0.8583(3) 0.2748(2)
C26 C 0.1588(4) 0.9117(3) 0.2482(2)
H21 H 0.2420 0.8800 0.2379
C27 C 0.1276(4) 1.0112(3) 0.2369(2)
C28 C 0.0020(4) 1.0571(3) 0.2500(3)
H22 H -0.0199 1.1240 0.2435
C29 C -0.0910(4) 1.0040(4) 0.2727(3)
H23 H -0.1753 1.0349 0.2793
C30 C -0.0587(4) 0.9054(3) 0.2854(3)
H24 H -0.1212 0.8702 0.3012
C31 C 0.1059(4) 0.7529(3) 0.2928(2)
C32 C 0.2287(4) 1.0686(3) 0.2138(2)
C33 C 0.1832(4) 0.6426(3) 0.5315(2)
C34 C 0.1003(4) 0.6045(3) 0.5797(2)
H25 H 0.0521 0.5622 0.5666
C35 C 0.0886(4) 0.6290(3) 0.6468(2)
C36 C 0.1619(4) 0.6916(4) 0.6654(3)
H26 H 0.1548 0.7086 0.7102
C37 C 0.2454(5) 0.7293(4) 0.6184(3)
H27 H 0.2946 0.7708 0.6316
C38 C 0.2553(5) 0.7055(4) 0.5524(3)
H28 H 0.3110 0.7315 0.5209
C39 C 0.1935(4) 0.6153(3) 0.4605(2)
C40 C -0.0070(4) 0.5904(3) 0.6950(2)
C41 C 0.1559(4) 0.2506(3) -0.1205(2)
C42 C 0.1814(4) 0.2374(3) -0.0542(2)
H29 H 0.2419 0.1849 -0.0415
C43 C 0.1178(4) 0.3015(3) -0.0060(2)
C44 C 0.0238(4) 0.3776(3) -0.0262(3)
H30 H -0.0235 0.4189 0.0059
C45 C 0.0005(4) 0.3923(4) -0.0923(3)
H31 H -0.0597 0.4449 -0.1050
C46 C 0.0655(4) 0.3298(3) -0.1401(3)
H32 H 0.0495 0.3399 -0.1850
C47 C 0.2294(4) 0.1824(3) -0.1729(2)
C48 C 0.1500(4) 0.2939(3) 0.0638(2)
C49 C 0.8692(7) 0.1558(6) -0.0667(4)
H33 H 0.8269 0.2147 -0.0457
H34 H 0.8513 0.1586 -0.1129
H35 H 0.9589 0.1485 -0.0651
C50 C 0.8818(7) -0.0199(6) -0.0588(4)
H36 H 0.8470 -0.0694 -0.0322
H37 H 0.9718 -0.0314 -0.0573
H38 H 0.8636 -0.0211 -0.1047
C51 C 0.7311(5) 0.0798(4) 0.0131(3)
H39 H 0.6914 0.1422 0.0248
Er1A Er -0.210702(16) 0.443039(12) 0.673218(10)
Er2_2 Er 0.227562(16) 1.306705(12) 0.190229(10)
Er2A Er -0.227562(16) 0.693295(12) 0.809771(10)
Er3_2 Er 0.585792(17) 0.765937(13) 0.302587(10)
Er3A Er 0.414208(17) 0.234063(13) -0.302587(10)
Er4_2 Er 0.545074(18) 1.011058(13) 0.146936(10)
Er4A Er 0.454926(18) -0.011058(13) -0.146936(10)
O8_2 O 0.5763(3) -0.3779(2) 0.26801(17)
O11_2 O 0.4968(3) -0.1874(2) 0.19871(17)
O12_2 O 0.5063(3) -0.1191(2) 0.09552(18)
O15_2 O 0.1995(3) 0.1588(2) 0.22184(18)
O16_2 O 0.3330(3) 0.0258(2) 0.18827(18)
O19A O 0.0473(2) 0.4813(2) 0.32251(16)
O20A O 0.0433(3) 0.3668(2) 0.25057(16)
O21A O 0.7533(3) -0.2184(2) 0.23128(16)
O22A O 0.7298(3) -0.0968(2) 0.15449(16)
O30 O 0.2602(5) -0.0706(4) 0.4375(3)
N2 N 0.1455(5) 0.0752(4) 0.4606(4)
C52 C 0.0941(8) 0.1669(7) 0.4269(6)
H40 H 0.1124 0.1615 0.3789
H41 H 0.1321 0.2175 0.4412
H42 H 0.0041 0.1822 0.4383
C53 C 0.1314(9) 0.0662(9) 0.5305(5)
H43 H 0.1708 0.0022 0.5447
H44 H 0.0429 0.0771 0.5465
H45 H 0.1706 0.1131 0.5488
C54 C 0.2125(6) 0.0067(6) 0.4218(5)
H46 H 0.2223 0.0230 0.3759
O31 O 0.5500(7) -0.5100(5) 0.4350(5)
H47 H 0.4820 -0.5258 0.4259
H48 H 0.6098 -0.5306 0.4050
O32 O 0.8424(3) -0.3660(3) 0.4754(2)
H49 H 0.9170 -0.3659 0.4848
H50 H 0.8046 -0.3972 0.5063
loop_
_geom_bond_atom_site_label_1
_geom_bond_atom_site_label_2
_geom_bond_site_symmetry_1
_geom_bond_site_symmetry_2
Er1 O1 1_555 1_555
Er2 O2 1_555 1_555
Er3 O3 1_555 1_555
Er4 O4 1_555 1_555
O1 C7 1_555 1_555
O2 C7 1_555 1_555
O3 C8 1_555 1_555
O4 C8 1_555 1_555
O5 Er2 1_555 1_555
O6 Er4 1_555 1_555
O7 Er1 1_555 1_555
O8 C16 1_555 1_555
O9 Er1 1_555 1_555
O10 Er2 1_555 1_555
O11 C24 1_555 1_555
O12 C24 1_555 1_555
O13 Er1 1_555 1_555
O14 Er1 1_555 1_555
O15 C32 1_555 1_555
O16 C32 1_555 1_555
O17 Er1 1_555 1_555
O18 Er1 1_555 1_555
O19 C40 1_555 1_555
O20 C40 1_555 1_555
O21 C47 1_555 1_555
O22 C47 1_555 1_555
O23 Er2 1_555 1_555
O24 Er2 1_555 1_555
O25 Er3 1_555 1_555
H1 O25 1_555 1_555
H2 O25 1_555 1_555
O26 Er3 1_555 1_555
H3 O26 1_555 1_555
H4 O26 1_555 1_555
O27 Er3 1_555 1_555
H5 O27 1_555 1_555
H6 O27 1_555 1_555
O28 Er4 1_555 1_555
H7 O28 1_555 1_555
H8 O28 1_555 1_555
O29 Er4 1_555 1_555
O30 C54 1_555 1_555
N1 C49 1_555 1_555
N2 C52 1_555 1_555
C1 C2 1_555 1_555
C2 H9 1_555 1_555
C3 C2 1_555 1_555
C4 C3 1_555 1_555
H10 C4 1_555 1_555
C5 C4 1_555 1_555
H11 C5 1_555 1_555
C6 C1 1_555 1_555
H12 C6 1_555 1_555
C7 C1 1_555 1_555
C8 C3 1_555 1_555
C9 C10 1_555 1_555
C10 H13 1_555 1_555
C11 C10 1_555 1_555
C12 C11 1_555 1_555
H14 C12 1_555 1_555
C13 C12 1_555 1_555
H15 C13 1_555 1_555
C14 C9 1_555 1_555
H16 C14 1_555 1_555
C15 O5 1_555 1_555
C16 O7 1_555 1_555
C17 C18 1_555 1_555
C18 H17 1_555 1_555
C19 C18 1_555 1_555
C20 C19 1_555 1_555
H18 C20 1_555 1_555
C21 C20 1_555 1_555
H19 C21 1_555 1_555
C22 C17 1_555 1_555
H20 C22 1_555 1_555
C23 O9 1_555 1_555
C24 C19 1_555 1_555
C25 C26 1_555 1_555
C26 H21 1_555 1_555
C27 C26 1_555 1_555
C28 C27 1_555 1_555
H22 C28 1_555 1_555
C29 C28 1_555 1_555
H23 C29 1_555 1_555
C30 C25 1_555 1_555
H24 C30 1_555 1_555
C31 O13 1_555 1_555
C32 C27 1_555 1_555
C33 C34 1_555 1_555
C34 H25 1_555 1_555
C35 C34 1_555 1_555
C36 C35 1_555 1_555
H26 C36 1_555 1_555
C37 C36 1_555 1_555
H27 C37 1_555 1_555
C38 C33 1_555 1_555
H28 C38 1_555 1_555
C39 O17 1_555 1_555
C40 C35 1_555 1_555
C41 C42 1_555 1_555
C42 H29 1_555 1_555
C43 C42 1_555 1_555
C44 C43 1_555 1_555
H30 C44 1_555 1_555
C45 C44 1_555 1_555
H31 C45 1_555 1_555
C46 C41 1_555 1_555
H32 C46 1_555 1_555
C47 C41 1_555 1_555
C48 O23 1_555 1_555
C49 H33 1_555 1_555
H34 C49 1_555 1_555
H35 C49 1_555 1_555
C50 N1 1_555 1_555
H36 C50 1_555 1_555
H37 C50 1_555 1_555
H38 C50 1_555 1_555
C51 O29 1_555 1_555
H39 C51 1_555 1_555
C52 H40 1_555 1_555
H41 C52 1_555 1_555
H42 C52 1_555 1_555
C53 N2 1_555 1_555
H43 C53 1_555 1_555
H44 C53 1_555 1_555
H45 C53 1_555 1_555
C54 N2 1_555 1_555
H46 C54 1_555 1_555
O31 H47 1_555 1_555
H48 O31 1_555 1_555
O32 H49 1_555 1_555
H50 O32 1_555 1_555
Er1A O19 1_555 1_555
Er2_2 O15 1_555 1_555
Er2A O20 1_555 1_555
Er3_2 O8 1_555 1_555
Er3A O21 1_555 1_555
Er4_2 O12 1_555 1_555
Er4A O22 1_555 1_555
O8_2 Er3 1_555 1_555
O11_2 Er3 1_555 1_555
O12_2 Er4 1_555 1_555
O15_2 Er2 1_555 1_555
O16_2 Er4 1_555 1_555
O19A Er1 1_555 1_555
O20A Er2 1_555 1_555
O21A Er3 1_555 1_555
O22A Er4 1_555 1_555
O6 C15 1_555 1_555
O10 C23 1_555 1_555
O11 Er3_2 1_555 1_555
O14 C31 1_555 1_555
O16 Er4_2 1_555 1_555
O18 C39 1_555 1_555
O24 C48 1_555 1_555
N1 C51 1_555 1_555
C5 C6 1_555 1_555
C9 C15 1_555 1_555
C11 C16 1_555 1_555
C13 C14 1_555 1_555
C17 C23 1_555 1_555
C21 C22 1_555 1_555
C25 C31 1_555 1_555
C29 C30 1_555 1_555
C33 C39 1_555 1_555
C37 C38 1_555 1_555
C43 C48 1_555 1_555
C45 C46 1_555 1_555

#END
