
#######################################################################
#
#                 Cambridge Crystallographic Data Centre
#                                CCDC 
#
#######################################################################
#
# If this CIF has been generated from an entry in the Cambridge 
# Structural Database, then it will include bibliographic, chemical, 
# crystal, experimental, refinement or atomic coordinate data resulting 
# from the CCDC's data processing and validation procedures.
#
#######################################################################

data_CEJNOU
_symmetry_cell_setting           triclinic
_symmetry_space_group_name_H-M   'P -1'
_symmetry_Int_Tables_number      2
_space_group_name_Hall           '-P 1'
loop_
_symmetry_equiv_pos_site_id
_symmetry_equiv_pos_as_xyz
1 x,y,z
2 -x,-y,-z
_cell_length_a                   10.7347(9)
_cell_length_b                   13.1367(13)
_cell_length_c                   7.2488(3)
_cell_angle_alpha                91.556(5)
_cell_angle_beta                 92.668(5)
_cell_angle_gamma                89.141(8)
_cell_volume                     1020.63
loop_
_atom_site_label
_atom_site_type_symbol
_atom_site_fract_x
_atom_site_fract_y
_atom_site_fract_z
Ag1 Ag 0.00000 0.00000 0.00000
Ag2 Ag 0.02780 -0.21130 0.32500
Ag3 Ag 0.00000 -0.50000 0.50000
N1 N 0.24530 -0.18770 0.06260
O1 O 0.14340 -0.16530 -0.02650
O2 O 0.34550 -0.16980 -0.00540
O3 O 0.23810 -0.22540 0.21350
N2 N 0.23440 -0.34980 0.58970
O4 O 0.20830 -0.44420 0.57500
O5 O 0.34670 -0.31920 0.58610
O6 O 0.14740 -0.28410 0.59520
N3 N -0.23150 -0.14650 0.06500
O7 O -0.32670 -0.19400 0.07860
O8 O -0.23990 -0.05470 0.04700
O9 O -0.13380 -0.19360 0.07280
Ag4 Ag -0.23310 -0.39720 0.14420
Ag5 Ag -0.01910 -0.28850 0.82320
N4 N -0.24800 -0.31020 0.53290
O10 O -0.14990 -0.33730 0.44650
O11 O -0.35170 -0.32670 0.46480
O12 O -0.23310 -0.26870 0.69050
O13 O -0.43210 -0.39780 -0.04600
C1 C -0.45040 -0.49750 -0.18900
C2 C -0.55330 -0.40490 0.08620
Ag6 Ag -0.46150 -0.24450 -0.22730
O14 O -0.53930 -0.09370 -0.37770
C3 C -0.46770 0.00940 -0.29840
C4 C -0.49170 -0.10320 -0.59520
Ag7 Ag 0.23060 -0.09680 -0.32250
N5 N 0.09960 -0.44680 0.11350
O15 O 0.01850 -0.39480 0.19000
O16 O 0.14300 -0.52130 0.18480
O17 O 0.13430 -0.42330 -0.04410
N6 N -0.10070 -0.05500 0.59340
O18 O -0.13900 -0.08270 0.43630
O19 O -0.01770 -0.10820 0.67200
O20 O -0.14500 0.02350 0.66310
O13A O -0.56790 -0.60220 0.04600
C1A C -0.54960 -0.50250 0.18900
C2A C -0.44670 -0.59510 -0.08620
O14A O -0.46070 0.09370 -0.62230
C3A C -0.53230 -0.00940 -0.70160
C4A C -0.50830 0.10320 -0.40480
Ag2A Ag -1.02780 -0.78870 -0.32500
N1A N -1.24530 -0.81230 -0.06260
O1A O -1.14340 -0.83470 0.02650
O2A O -1.34550 -0.83020 0.00540
O3A O -1.23810 -0.77460 -0.21350
N2A N -1.23440 -0.65020 -0.58970
O4A O -1.20830 -0.55580 -0.57500
O5A O -1.34670 -0.68080 -0.58610
O6A O -1.14740 -0.71590 -0.59520
N3A N -0.76850 -0.85350 -0.06500
O7A O -0.67330 -0.80600 -0.07860
O8A O -0.76010 -0.94530 -0.04700
O9A O -0.86620 -0.80640 -0.07280
Ag4A Ag -0.76690 -0.60280 -0.14420
Ag5A Ag -0.98090 -0.71150 -0.82320
N4A N -0.75200 -0.68980 -0.53290
O10A O -0.85010 -0.66270 -0.44650
O11A O -0.64830 -0.67330 -0.46480
O12A O -0.76690 -0.73130 -0.69050
Ag6A Ag -0.53850 -0.75550 0.22730
Ag7A Ag -1.23060 -0.90320 0.32250
N5A N -1.09960 -0.55320 -0.11350
O15A O -1.01850 -0.60520 -0.19000
O16A O -1.14300 -0.47870 -0.18480
O17A O -1.13430 -0.57670 0.04410
N6A N -0.89930 -0.94500 -0.59340
O18A O -0.86100 -0.91730 -0.43630
O19A O -0.98230 -0.89180 -0.67200
O20A O -0.85500 -1.02350 -0.66310
Ag1_2 Ag -1.00000 -1.00000 0.00000
Ag3_2 Ag -1.00000 -0.50000 -0.50000
O1_2 O 0.14340 -0.16530 0.97350
O1A_2 O -1.14340 -0.83470 -0.97350
O1A_3 O -0.14340 0.16530 0.02650
O4A_2 O -0.20830 -0.55580 0.42500
O5_2 O -0.65330 -0.31920 -0.41390
O5A_2 O -0.34670 -0.68080 0.41390
O9_2 O -0.13380 -0.19360 1.07280
O9A_2 O -0.86620 -0.80640 -1.07280
Ag5_2 Ag -0.01910 -0.28850 -0.17680
Ag5A_2 Ag -0.98090 -0.71150 0.17680
O12_2 O -0.23310 -0.26870 -0.30950
O12A_2 O -0.76690 -0.73130 0.30950
Ag6_2 Ag -0.46150 -0.24450 0.77270
Ag6_3 Ag 0.53850 -0.24450 0.77270
Ag6A_2 Ag -1.53850 -0.75550 -0.77270
Ag6A_3 Ag -0.53850 -0.75550 -0.77270
Ag6A_4 Ag -0.53850 0.24450 -0.77270
O14_2 O 0.46070 -0.09370 -0.37770
O14A_2 O -1.46070 -0.90630 0.37770
O14A_3 O -0.46070 -0.90630 0.37770
Ag7_2 Ag -0.76940 -0.09680 -0.32250
Ag7A_2 Ag -0.23060 0.09680 -0.67750
O17_2 O 0.13430 -0.42330 0.95590
O17A_2 O -1.13430 -0.57670 -0.95590
loop_
_geom_bond_atom_site_label_1
_geom_bond_atom_site_label_2
_geom_bond_site_symmetry_1
_geom_bond_site_symmetry_2
Ag1 O1 1_555 1_555
Ag2 O3 1_555 1_555
Ag3 O4 1_555 1_555
N1 O1 1_555 1_555
O1 Ag7 1_555 1_555
O2 N1 1_555 1_555
O3 N1 1_555 1_555
N2 O4 1_555 1_555
O5 N2 1_555 1_555
O6 Ag2 1_555 1_555
N3 O7 1_555 1_555
O8 N3 1_555 1_555
O9 Ag2 1_555 1_555
Ag4 O10 1_555 1_555
Ag5 O6 1_555 1_555
N4 O10 1_555 1_555
O11 N4 1_555 1_555
O12 Ag5 1_555 1_555
O13 Ag4 1_555 1_555
C1 O13 1_555 1_555
C2 O13 1_555 1_555
Ag6 O13 1_555 1_555
O14 Ag6 1_555 1_555
C3 O14 1_555 1_555
C4 O14 1_555 1_555
Ag7 O14_2 1_555 1_555
N5 O15 1_555 1_555
O15 Ag2 1_555 1_555
O16 N5 1_555 1_555
O17 N5 1_555 1_555
N6 O18 1_555 1_555
O18 Ag2 1_555 1_555
O19 Ag5 1_555 1_555
O20 N6 1_555 1_555
O13A C1A 1_555 1_555
C1A C2 1_555 1_555
C2A C1 1_555 1_555
O14A C3A 1_555 1_555
C3A C4 1_555 1_555
C4A C3 1_555 1_555
Ag2A O3A 1_555 1_555
N1A O1A 1_555 1_555
O1A Ag7A 1_555 1_555
O2A N1A 1_555 1_555
O3A N1A 1_555 1_555
N2A O4A 1_555 1_555
O4A Ag3_2 1_555 1_555
O5A N2A 1_555 1_555
O6A Ag2A 1_555 1_555
N3A O7A 1_555 1_555
O8A N3A 1_555 1_555
O9A Ag2A 1_555 1_555
Ag4A O13A 1_555 1_555
Ag5A O6A 1_555 1_555
N4A O10A 1_555 1_555
O10A Ag4A 1_555 1_555
O11A N4A 1_555 1_555
O12A Ag5A 1_555 1_555
Ag6A O13A 1_555 1_555
Ag7A O14A_2 1_555 1_555
N5A O15A 1_555 1_555
O15A Ag2A 1_555 1_555
O16A N5A 1_555 1_555
O17A N5A 1_555 1_555
N6A O18A 1_555 1_555
O18A Ag2A 1_555 1_555
O19A Ag5A 1_555 1_555
O20A N6A 1_555 1_555
Ag1_2 O1A 1_555 1_555
O1_2 Ag5 1_555 1_555
O1A_2 Ag5A 1_555 1_555
O1A_3 Ag1 1_555 1_555
O4A_2 Ag3 1_555 1_555
O5_2 Ag6 1_555 1_555
O5A_2 Ag6A 1_555 1_555
O9_2 Ag5 1_555 1_555
O9A_2 Ag5A 1_555 1_555
Ag5_2 O1 1_555 1_555
Ag5A_2 O1A 1_555 1_555
O12_2 Ag6 1_555 1_555
O12A_2 Ag6A 1_555 1_555
Ag6_2 O12 1_555 1_555
Ag6_3 O5 1_555 1_555
Ag6A_2 O5A 1_555 1_555
Ag6A_3 O12A 1_555 1_555
Ag6A_4 O14A 1_555 1_555
O14A_3 Ag6A 1_555 1_555
Ag7_2 O14 1_555 1_555
Ag7A_2 O14A 1_555 1_555
O17_2 Ag5 1_555 1_555
O17A_2 Ag5A 1_555 1_555
N2 O6 1_555 1_555
N3 O9 1_555 1_555
O9 Ag5_2 1_555 1_555
N4 O12 1_555 1_555
O17 Ag5_2 1_555 1_555
N6 O19 1_555 1_555
O13A C2A 1_555 1_555
O14A C4A 1_555 1_555
N2A O6A 1_555 1_555
N3A O9A 1_555 1_555
O9A Ag5A_2 1_555 1_555
N4A O12A 1_555 1_555
O17A Ag5A_2 1_555 1_555
N6A O19A 1_555 1_555
Ag5_2 O12_2 1_555 1_555
Ag5A_2 O12A_2 1_555 1_555

#END
