
#######################################################################
#
#                 Cambridge Crystallographic Data Centre
#                                CCDC 
#
#######################################################################
#
# If this CIF has been generated from an entry in the Cambridge 
# Structural Database, then it will include bibliographic, chemical, 
# crystal, experimental, refinement or atomic coordinate data resulting 
# from the CCDC's data processing and validation procedures.
#
#######################################################################

data_CEJNIO
_symmetry_cell_setting           monoclinic
_symmetry_space_group_name_H-M   'P 21/c'
_symmetry_Int_Tables_number      14
_space_group_name_Hall           '-P 2ybc'
loop_
_symmetry_equiv_pos_site_id
_symmetry_equiv_pos_as_xyz
1 x,y,z
2 -x,1/2+y,1/2-z
3 -x,-y,-z
4 x,1/2-y,1/2+z
_cell_length_a                   12.065(2)
_cell_length_b                   6.259(3)
_cell_length_c                   13.527(2)
_cell_angle_alpha                90
_cell_angle_beta                 82.42(2)
_cell_angle_gamma                90
_cell_volume                     1012.56
loop_
_atom_site_label
_atom_site_type_symbol
_atom_site_fract_x
_atom_site_fract_y
_atom_site_fract_z
Ag1 Ag 0.31070 -0.50930 0.35240
Ag2 Ag 0.18940 -0.61430 0.64780
S1 S 0.23760 -0.33920 0.51590
C1 C 0.33900 -0.15600 0.55610
C2 C 0.35980 0.02520 0.48390
O1 O 0.26040 0.14570 0.47700
C3 C 0.17600 0.03000 0.43550
C4 C 0.12960 -0.15090 0.50190
N1 N 0.45160 -0.85780 0.19950
O2 O 0.35210 -0.80480 0.23610
O3 O 0.47040 -0.91880 0.11240
O4 O 0.52740 -0.84440 0.25330
N2 N -0.05330 -0.46840 0.71580
O5 O -0.15330 -0.42930 0.75390
O6 O 0.02120 -0.46820 0.77030
O7 O -0.03210 -0.49880 0.62510
H1 H 0.41650 -0.23970 0.56030
H2 H 0.30720 -0.09350 0.62870
H3 H 0.39050 -0.03850 0.41130
H4 H 0.42190 0.13020 0.50830
H5 H 0.10870 0.13780 0.42490
H6 H 0.21150 -0.03490 0.36430
H7 H 0.09710 -0.08750 0.57420
H8 H 0.06320 -0.22970 0.46970
O2C O 0.35210 -0.69520 0.73610
O5A O 0.15330 -0.92930 0.74610
O1_2 O 0.26040 -0.85430 0.47700
O3A O 0.52960 -0.41880 0.38760
O4A O 0.47260 -0.34440 0.24670
Ag2C Ag 0.18940 -0.88570 0.14780
O5B O 0.15330 -0.57070 0.24610
Ag1B Ag -0.31070 -0.49070 0.64760
Ag2A Ag -0.18940 -0.11430 0.85220
Ag1A Ag 0.68930 -1.00930 0.14760
Ag1_2 Ag 0.31070 0.49070 0.35240
Ag2_2 Ag 0.18940 0.38570 0.64780
loop_
_geom_bond_atom_site_label_1
_geom_bond_atom_site_label_2
_geom_bond_site_symmetry_1
_geom_bond_site_symmetry_2
Ag1 S1 1_555 1_555
Ag2 S1 1_555 1_555
S1 C1 1_555 1_555
C1 C2 1_555 1_555
C2 O1 1_555 1_555
O1 C3 1_555 1_555
C3 C4 1_555 1_555
C4 S1 1_555 1_555
N1 O2 1_555 1_555
O2 Ag1 1_555 1_555
O3 N1 1_555 1_555
O4 N1 1_555 1_555
N2 O5 1_555 1_555
O5 Ag1B 1_555 1_555
O6 Ag2 1_555 1_555
O7 Ag2 1_555 1_555
H1 C1 1_555 1_555
H2 C1 1_555 1_555
H3 C2 1_555 1_555
H4 C2 1_555 1_555
H5 C3 1_555 1_555
H6 C3 1_555 1_555
H7 C4 1_555 1_555
H8 C4 1_555 1_555
O2C Ag2 1_555 1_555
O5A Ag2 1_555 1_555
O1_2 Ag1 1_555 1_555
O3A Ag1 1_555 1_555
O4A Ag1 1_555 1_555
Ag2C O2 1_555 1_555
O5B Ag1 1_555 1_555
Ag2A O5 1_555 1_555
Ag1A O3 1_555 1_555
Ag1_2 O1 1_555 1_555
Ag2_2 O1 1_555 1_555
Ag2 O1_2 1_555 1_555
O4 Ag1A 1_555 1_555
N2 O6 1_555 1_555
N2 O7 1_555 1_555
Ag2C O5B 1_555 1_555

#END
