
#######################################################################
#
#                 Cambridge Crystallographic Data Centre
#                                CCDC 
#
#######################################################################
#
# If this CIF has been generated from an entry in the Cambridge 
# Structural Database, then it will include bibliographic, chemical, 
# crystal, experimental, refinement or atomic coordinate data resulting 
# from the CCDC's data processing and validation procedures.
#
#######################################################################

data_CEJPEM
_symmetry_cell_setting           orthorhombic
_symmetry_space_group_name_H-M   'P 21 21 2'
_symmetry_Int_Tables_number      18
_space_group_name_Hall           'P 2 2ab'
loop_
_symmetry_equiv_pos_site_id
_symmetry_equiv_pos_as_xyz
1 x,y,z
2 1/2+x,1/2-y,-z
3 1/2-x,1/2+y,-z
4 -x,-y,z
_cell_length_a                   10.037(7)
_cell_length_b                   14.477(10)
_cell_length_c                   9.735(7)
_cell_angle_alpha                90
_cell_angle_beta                 90
_cell_angle_gamma                90
_cell_volume                     1414.55
loop_
_atom_site_label
_atom_site_type_symbol
_atom_site_fract_x
_atom_site_fract_y
_atom_site_fract_z
Cu1 Cu 0.05580 0.31240 0.53380
N1 N 0.15700 0.28830 0.70570
C1 C 0.14880 0.38690 0.91340
C2 C 0.07940 0.31260 0.82990
C3 C -0.06010 0.34610 0.78860
O1 O -0.14330 0.36310 0.88290
N2 N -0.08220 0.35580 0.65640
C4 C -0.20700 0.39740 0.61300
C5 C -0.31010 0.32690 0.56430
O2 O -0.41480 0.35800 0.51430
O3 O -0.29000 0.24300 0.57450
C6 C -0.18210 0.46620 0.49810
C7 C -0.13630 0.42120 0.36980
N3 N -0.03700 0.35500 0.37040
C8 C -0.02380 0.32680 0.24160
N4 N -0.10570 0.37130 0.16130
C9 C -0.17900 0.43210 0.23900
H1 H 0.25600 0.30000 0.70000
H2 H 0.19300 0.22400 0.68900
H3 H 0.08600 0.40800 0.99700
H4 H 0.17900 0.44700 0.85500
H5 H 0.23600 0.35200 0.95400
H6 H 0.07100 0.25100 0.89300
H7 H -0.24700 0.43100 0.70300
H8 H -0.10700 0.51500 0.53100
H9 H -0.27400 0.50300 0.47700
H10 H 0.04500 0.27400 0.20800
H11 H -0.11600 0.35600 0.06100
H12 H -0.25500 0.47900 0.20300
O2A O 0.08520 0.14200 0.48570
O3A O 0.21000 0.25700 0.42550
Cu1A Cu -0.44420 0.18760 0.46620
O4 O -0.41640 0.36930 0.91500
H13 H -0.40200 0.43400 0.93800
H14 H -0.32400 0.34800 0.89500
O5 O 0.38990 0.40800 0.70470
H15 H 0.43400 0.39600 0.61700
H16 H 0.46400 0.42500 0.76300
O6 O -0.60060 0.37970 0.30210
H17 H -0.66300 0.34000 0.34700
H18 H -0.52600 0.38400 0.36100
O7 O 0.00000 0.00000 0.88930
H19 H 0.03300 0.05600 0.85500
H19C H -0.03300 -0.05600 0.85500
loop_
_geom_bond_atom_site_label_1
_geom_bond_atom_site_label_2
_geom_bond_site_symmetry_1
_geom_bond_site_symmetry_2
Cu1 N1 1_555 1_555
N1 C2 1_555 1_555
C1 C2 1_555 1_555
C2 C3 1_555 1_555
C3 O1 1_555 1_555
N2 Cu1 1_555 1_555
C4 N2 1_555 1_555
C5 C4 1_555 1_555
O2 C5 1_555 1_555
O3 C5 1_555 1_555
C6 C4 1_555 1_555
C7 C6 1_555 1_555
N3 Cu1 1_555 1_555
C8 N3 1_555 1_555
N4 C8 1_555 1_555
C9 C7 1_555 1_555
O4 H13 1_555 1_555
O5 H15 1_555 1_555
O6 H17 1_555 1_555
O7 H19 1_555 1_555
H1 N1 1_555 1_555
H2 N1 1_555 1_555
H3 C1 1_555 1_555
H4 C1 1_555 1_555
H5 C1 1_555 1_555
H6 C2 1_555 1_555
H7 C4 1_555 1_555
H8 C6 1_555 1_555
H9 C6 1_555 1_555
H10 C8 1_555 1_555
H11 N4 1_555 1_555
H12 C9 1_555 1_555
H14 O4 1_555 1_555
H16 O5 1_555 1_555
H18 O6 1_555 1_555
H19C O7 1_555 1_555
O2A Cu1 1_555 1_555
O3A Cu1 1_555 1_555
Cu1A O2 1_555 1_555
C3 N2 1_555 1_555
O3 Cu1A 1_555 1_555
C7 N3 1_555 1_555
N4 C9 1_555 1_555

#END
