
#######################################################################
#
#                 Cambridge Crystallographic Data Centre
#                                CCDC 
#
#######################################################################
#
# If this CIF has been generated from an entry in the Cambridge 
# Structural Database, then it will include bibliographic, chemical, 
# crystal, experimental, refinement or atomic coordinate data resulting 
# from the CCDC's data processing and validation procedures.
#
#######################################################################

data_CEJQUF
_symmetry_cell_setting           monoclinic
_symmetry_space_group_name_H-M   'C c'
_symmetry_Int_Tables_number      9
_space_group_name_Hall           'C -2yc'
loop_
_symmetry_equiv_pos_site_id
_symmetry_equiv_pos_as_xyz
1 x,y,z
2 x,-y,1/2+z
3 1/2+x,1/2+y,z
4 1/2+x,1/2-y,1/2+z
_cell_length_a                   16.7599(16)
_cell_length_b                   15.1887(11)
_cell_length_c                   8.9775(9)
_cell_angle_alpha                90
_cell_angle_beta                 116.4455(13)
_cell_angle_gamma                90
_cell_volume                     2046.18
loop_
_atom_site_label
_atom_site_type_symbol
_atom_site_fract_x
_atom_site_fract_y
_atom_site_fract_z
Cu1 Cu 0.89947(3) 0.07845(3) 0.13651(4)
O1 O 0.8904(3) 0.2022(3) 0.2921(5)
O2 O 0.8957(3) 0.0333(2) 0.3591(4)
O3 O 0.9110(3) 0.0606(2) 0.6132(5)
N1 N 0.9004(3) 0.1844(3) -0.0125(6)
N2 N 1.0301(3) 0.0874(3) 0.2241(6)
N3 N 0.7707(3) 0.0837(3) -0.0095(6)
C1 C 0.9871(4) 0.1828(4) -0.0195(7)
C2 C 1.0583(4) 0.1342(4) 0.1270(6)
C3 C 1.1468(4) 0.1335(4) 0.1568(8)
C4 C 1.2074(4) 0.0837(4) 0.2873(8)
C5 C 1.1789(4) 0.0377(5) 0.3871(9)
C6 C 1.0897(4) 0.0409(4) 0.3511(8)
C7 C 0.8240(4) 0.1674(4) -0.1776(6)
C8 C 0.7479(4) 0.1269(3) -0.1548(6)
C9 C 0.6606(4) 0.1288(4) -0.2769(6)
C10 C 0.5952(4) 0.0858(4) -0.2497(7)
C11 C 0.6181(4) 0.0444(4) -0.0994(8)
C12 C 0.7063(4) 0.0442(4) 0.0164(7)
C13 C 0.8844(4) 0.2700(4) 0.0556(7)
C14 C 0.9295(4) 0.2718(4) 0.2427(7)
C15 C 0.9282(4) 0.1817(4) 0.4640(7)
C16 C 0.9096(4) 0.0843(3) 0.4785(6)
H1 H 1.0070 0.2441 -0.0209
H2 H 0.9792 0.1540 -0.1241
H3 H 1.1657 0.1667 0.0885
H4 H 1.2681 0.0813 0.3080
H5 H 1.2198 0.0043 0.4789
H6 H 1.0701 0.0088 0.4195
H7 H 0.8428 0.1269 -0.2425
H8 H 0.8044 0.2233 -0.2400
H9 H 0.6456 0.1592 -0.3784
H10 H 0.5353 0.0849 -0.3336
H11 H 0.5740 0.0167 -0.0764
H12 H 0.7223 0.0149 0.1192
H13 H 0.9068 0.3194 0.0130
H14 H 0.8195 0.2784 0.0156
H15 H 0.9945 0.2625 0.2858
H16 H 0.9193 0.3289 0.2845
H17 H 0.9010 0.2186 0.5201
H18 H 0.9932 0.1928 0.5168
Cu1A Cu 0.89947(3) -0.07845(3) 0.63651(4)
O3A O 0.9110(3) -0.0606(2) 0.1132(5)
Cl1 Cl 0.91199(11) 0.41422(8) -0.3438(3)
O4 O 0.8925(4) 0.5051(3) -0.3633(9)
O5 O 0.9542(4) 0.3947(4) -0.1680(7)
O6 O 0.8337(4) 0.3639(4) -0.4195(9)
O7 O 0.9744(4) 0.3928(4) -0.4071(6)
O8 O 1.1175(4) 0.2777(4) -0.1624(7)
C17 C 1.1827(6) 0.2820(7) -0.2139(11)
H19 H 1.2223 0.2310 -0.1711
H20 H 1.2172 0.3362 -0.1719
H21 H 1.1555 0.2818 -0.3358
loop_
_geom_bond_atom_site_label_1
_geom_bond_atom_site_label_2
_geom_bond_site_symmetry_1
_geom_bond_site_symmetry_2
Cu1 O1 1_555 1_555
Cl1 O4 1_555 1_555
O1 C14 1_555 1_555
O2 Cu1 1_555 1_555
O3 C16 1_555 1_555
O5 Cl1 1_555 1_555
O6 Cl1 1_555 1_555
O7 Cl1 1_555 1_555
O8 C17 1_555 1_555
N1 Cu1 1_555 1_555
N2 Cu1 1_555 1_555
N3 Cu1 1_555 1_555
C1 N1 1_555 1_555
C2 N2 1_555 1_555
C3 C2 1_555 1_555
C4 C3 1_555 1_555
C5 C4 1_555 1_555
C6 N2 1_555 1_555
C7 N1 1_555 1_555
C8 N3 1_555 1_555
C9 C8 1_555 1_555
C10 C9 1_555 1_555
C11 C10 1_555 1_555
C12 N3 1_555 1_555
C13 N1 1_555 1_555
C14 C13 1_555 1_555
C15 O1 1_555 1_555
C16 O2 1_555 1_555
C17 H19 1_555 1_555
H1 C1 1_555 1_555
H2 C1 1_555 1_555
H3 C3 1_555 1_555
H4 C4 1_555 1_555
H5 C5 1_555 1_555
H6 C6 1_555 1_555
H7 C7 1_555 1_555
H8 C7 1_555 1_555
H9 C9 1_555 1_555
H10 C10 1_555 1_555
H11 C11 1_555 1_555
H12 C12 1_555 1_555
H13 C13 1_555 1_555
H14 C13 1_555 1_555
H15 C14 1_555 1_555
H16 C14 1_555 1_555
H17 C15 1_555 1_555
H18 C15 1_555 1_555
H20 C17 1_555 1_555
H21 C17 1_555 1_555
Cu1A O3 1_555 1_555
O3A Cu1 1_555 1_555
C1 C2 1_555 1_555
C5 C6 1_555 1_555
C7 C8 1_555 1_555
C11 C12 1_555 1_555
C15 C16 1_555 1_555

#END
