
#######################################################################
#
#                 Cambridge Crystallographic Data Centre
#                                CCDC 
#
#######################################################################
#
# If this CIF has been generated from an entry in the Cambridge 
# Structural Database, then it will include bibliographic, chemical, 
# crystal, experimental, refinement or atomic coordinate data resulting 
# from the CCDC's data processing and validation procedures.
#
#######################################################################

data_CEJQOX
_symmetry_cell_setting           orthorhombic
_symmetry_space_group_name_H-M   'P b c n'
_symmetry_Int_Tables_number      60
_space_group_name_Hall           '-P 2n 2ab'
loop_
_symmetry_equiv_pos_site_id
_symmetry_equiv_pos_as_xyz
1 x,y,z
2 1/2+x,1/2+y,1/2-z
3 x,-y,1/2+z
4 1/2-x,1/2+y,z
5 -x,-y,-z
6 1/2-x,1/2-y,1/2+z
7 -x,y,1/2-z
8 1/2+x,1/2-y,-z
_cell_length_a                   11.839(2)
_cell_length_b                   9.108(2)
_cell_length_c                   21.319(4)
_cell_angle_alpha                90
_cell_angle_beta                 90
_cell_angle_gamma                90
_cell_volume                     2298.82
loop_
_atom_site_label
_atom_site_type_symbol
_atom_site_fract_x
_atom_site_fract_y
_atom_site_fract_z
Mo1 Mo 0.45340(3) -1.03341(3) -0.166850(15)
Cu1 Cu 0.34433(5) -0.63562(6) -0.15435(2)
O1 O 0.3773(3) -0.8721(3) -0.15885(12)
O2 O 0.3712(3) -1.1814(3) -0.14598(14)
O3 O 0.5000 -1.0568(6) -0.2500
O4 O 0.4306(4) -1.0268(4) -0.3807(3)
N1 N 0.3575(3) -0.4170(3) 0.25812(13)
N2 N 0.3547(3) -0.5925(4) -0.06575(14)
C1 C 0.3589(4) -0.5573(5) 0.2387(2)
H1 H 0.358(3) -0.630(4) 0.2675(16)
C2 C 0.3635(4) -0.5968(4) 0.1764(2)
H2 H 0.360(4) -0.702(5) 0.1667(16)
C3 C 0.3641(3) -0.4890(4) 0.1301(2)
C4 C 0.3644(4) -0.3437(4) 0.1500(2)
H3 H 0.368(4) -0.267(5) 0.1203(18)
C5 C 0.3624(4) -0.3130(4) 0.2135(2)
H4 H 0.359(3) -0.211(4) 0.2282(16)
C6 C 0.3616(3) -0.5267(4) 0.0621(2)
C7 C 0.3044(4) -0.4378(5) 0.0201(2)
H5 H 0.272(4) -0.359(5) 0.034(2)
C8 C 0.3038(4) -0.4733(6) -0.0430(2)
H6 H 0.737(4) -0.585(5) 0.067(2)
C9 C 0.5905(4) -0.3209(4) 0.0252(2)
H7 H 0.554(3) -0.235(4) 0.0411(15)
C10 C 0.4153(4) -0.6494(4) 0.0386(2)
H8 H 0.460(4) -0.710(5) 0.065(2)
Cu1B Cu 0.34433(5) -0.36438(6) 0.34565(2)
Mo1F Mo 0.54660(3) -1.03341(3) -0.333150(15)
O1F O 0.6227(3) -0.8721(3) -0.34115(12)
Cu1F Cu 0.65567(5) -0.63562(6) -0.34565(2)
N1D N 0.6425(3) -0.5830(3) -0.25812(13)
C1D C 0.6411(4) -0.4427(5) -0.2387(2)
H1D H 0.642(3) -0.370(4) -0.2675(16)
C2D C 0.6365(4) -0.4032(4) -0.1764(2)
H2D H 0.640(4) -0.298(5) -0.1667(16)
C3D C 0.6359(3) -0.5110(4) -0.1301(2)
C4D C 0.6356(4) -0.6563(4) -0.1500(2)
H3D H 0.632(4) -0.733(5) -0.1203(18)
C5D C 0.6376(4) -0.6870(4) -0.2135(2)
H4D H 0.641(3) -0.789(4) -0.2282(16)
C6D C 0.6384(3) -0.4733(4) -0.0621(2)
C7D C 0.6956(4) -0.5622(5) -0.0201(2)
H5D H 0.728(4) -0.641(5) -0.034(2)
C8D C 0.6962(4) -0.5267(6) 0.0430(2)
N2D N 0.6453(3) -0.4075(4) 0.06575(14)
Cu1D Cu 0.65567(5) -0.36438(6) 0.15435(2)
C10D C 0.5847(4) -0.3506(4) -0.0386(2)
H8D H 0.540(4) -0.290(5) -0.065(2)
N2F N 0.6453(3) -0.5925(4) -0.43425(14)
O2F O 0.6288(3) -1.1814(3) -0.35402(14)
O4F O 0.5694(4) -1.0268(4) -0.1193(3)
N1B N 0.3575(3) -0.5830(3) -0.24188(13)
C9D C 0.4095(4) -0.6791(4) -0.0252(2)
H7D H 0.446(3) -0.765(4) -0.0411(15)
H6D H 0.263(4) -0.415(5) -0.067(2)
loop_
_geom_bond_atom_site_label_1
_geom_bond_atom_site_label_2
_geom_bond_site_symmetry_1
_geom_bond_site_symmetry_2
Mo1 O1 1_555 1_555
Cu1 O1 1_555 1_555
O2 Mo1 1_555 1_555
O3 Mo1 1_555 1_555
O4 Mo1F 1_555 1_555
N1 C1 1_555 1_555
N2 Cu1 1_555 1_555
C1 H1 1_555 1_555
C2 C1 1_555 1_555
H2 C2 1_555 1_555
C3 C2 1_555 1_555
C4 C3 1_555 1_555
H3 C4 1_555 1_555
C5 N1 1_555 1_555
H4 C5 1_555 1_555
C6 C3 1_555 1_555
C7 C6 1_555 1_555
H5 C7 1_555 1_555
C8 N2 1_555 1_555
H6 C8D 1_555 1_555
C9 H7 1_555 1_555
C10 C6 1_555 1_555
H8 C10 1_555 1_555
Cu1B N1 1_555 1_555
Mo1F O3 1_555 1_555
O1F Mo1F 1_555 1_555
Cu1F O1F 1_555 1_555
N1D Cu1F 1_555 1_555
C1D N1D 1_555 1_555
H1D C1D 1_555 1_555
C2D C1D 1_555 1_555
H2D C2D 1_555 1_555
C3D C2D 1_555 1_555
C4D C3D 1_555 1_555
H3D C4D 1_555 1_555
C5D N1D 1_555 1_555
H4D C5D 1_555 1_555
C6D C3D 1_555 1_555
C7D C6D 1_555 1_555
H5D C7D 1_555 1_555
C8D C7D 1_555 1_555
N2D C9 1_555 1_555
Cu1D N2D 1_555 1_555
C10D C9 1_555 1_555
H8D C10D 1_555 1_555
N2F Cu1F 1_555 1_555
O2F Mo1F 1_555 1_555
O4F Mo1 1_555 1_555
N1B Cu1 1_555 1_555
C9D N2 1_555 1_555
H7D C9D 1_555 1_555
H6D C8 1_555 1_555
C4 C5 1_555 1_555
C7 C8 1_555 1_555
C10 C9D 1_555 1_555
C4D C5D 1_555 1_555
C6D C10D 1_555 1_555
C8D N2D 1_555 1_555

#END
