
#######################################################################
#
#                 Cambridge Crystallographic Data Centre
#                                CCDC 
#
#######################################################################
#
# If this CIF has been generated from an entry in the Cambridge 
# Structural Database, then it will include bibliographic, chemical, 
# crystal, experimental, refinement or atomic coordinate data resulting 
# from the CCDC's data processing and validation procedures.
#
#######################################################################

data_CEJSIU
_symmetry_cell_setting           trigonal
_symmetry_space_group_name_H-M   'P -3'
_symmetry_Int_Tables_number      147
_space_group_name_Hall           '-P 3'
loop_
_symmetry_equiv_pos_site_id
_symmetry_equiv_pos_as_xyz
1 x,y,z
2 -y,x-y,z
3 -x+y,-x,z
4 -x,-y,-z
5 y,-x+y,-z
6 x-y,x,-z
_cell_length_a                   12.7751(5)
_cell_length_b                   12.7751(5)
_cell_length_c                   9.0835(2)
_cell_angle_alpha                90
_cell_angle_beta                 90
_cell_angle_gamma                120
_cell_volume                     1283.84
loop_
_atom_site_label
_atom_site_type_symbol
_atom_site_fract_x
_atom_site_fract_y
_atom_site_fract_z
Mn1 Mn 0.0000 0.0000 0.0000
Mn2 Mn 0.0000 0.0000 0.5000
O1 O 0.15974(12) 0.11735(12) 0.13074(14)
O2 O 0.15400(11) 0.04975(11) 0.35920(14)
N1 N 0.28577(15) 0.36362(14) 0.23734(17)
C1 C 0.3641(3) 0.4753(2) 0.3248(3)
H1 H 0.325(3) 0.466(3) 0.420(4)
H2 H 0.371(3) 0.543(3) 0.268(3)
H3 H 0.437(3) 0.481(3) 0.341(3)
C2 C 0.1664(2) 0.3555(2) 0.2125(4)
H4 H 0.130(4) 0.350(4) 0.309(5)
H5 H 0.119(3) 0.284(3) 0.161(4)
H6 H 0.181(3) 0.427(3) 0.159(3)
C3 C 0.3466(3) 0.3746(2) 0.0934(3)
H7 H 0.296(3) 0.307(3) 0.038(4)
H8 H 0.420(3) 0.374(3) 0.113(4)
H9 H 0.364(3) 0.452(3) 0.046(3)
C4 C 0.2702(2) 0.25713(17) 0.3254(2)
H10 H 0.240(2) 0.265(2) 0.418(3)
H11 H 0.347(2) 0.266(2) 0.337(3)
C5 C 0.18667(15) 0.13132(16) 0.26411(18)
Mn2_2 Mn 0.0000 0.0000 -0.5000
O1A O -0.11735(12) 0.04239(17) 0.13074(14)
O1B O -0.04239(17) -0.15974(12) 0.13074(14)
O1C O -0.15974(12) -0.11735(12) -0.13074(14)
O1D O 0.11735(12) -0.04239(17) -0.13074(14)
O1E O 0.04239(17) 0.15974(12) -0.13074(14)
O2A O -0.04975(11) 0.10425(16) 0.35920(14)
O2B O -0.10425(16) -0.15400(11) 0.35920(14)
O2C O -0.15400(11) -0.04975(11) -0.35920(14)
O2D O 0.04975(11) -0.10425(16) -0.35920(14)
O2E O 0.10425(16) 0.15400(11) -0.35920(14)
O2C_2 O -0.15400(11) -0.04975(11) 0.64080(14)
O2D_2 O 0.04975(11) -0.10425(16) 0.64080(14)
O2E_2 O 0.10425(16) 0.15400(11) 0.64080(14)
N1A N -0.36362(14) -0.07785(21) 0.23734(17)
N1B N 0.07785(21) -0.28577(15) 0.23734(17)
N1C N -0.28577(15) -0.36362(14) -0.23734(17)
N1D N 0.36362(14) 0.07785(21) -0.23734(17)
N1E N -0.07785(21) 0.28577(15) -0.23734(17)
C1A C -0.4753(2) -0.1112(4) 0.3248(3)
C1B C 0.1112(4) -0.3641(3) 0.3248(3)
C1C C -0.3641(3) -0.4753(2) -0.3248(3)
C1D C 0.4753(2) 0.1112(4) -0.3248(3)
C1E C -0.1112(4) 0.3641(3) -0.3248(3)
H1A H -0.466(3) -0.141(4) 0.420(4)
H1B H 0.141(4) -0.325(3) 0.420(4)
H1C H -0.325(3) -0.466(3) -0.420(4)
H1D H 0.466(3) 0.141(4) -0.420(4)
H1E H -0.141(4) 0.325(3) -0.420(4)
H2A H -0.543(3) -0.172(4) 0.268(3)
H2B H 0.172(4) -0.371(3) 0.268(3)
H2C H -0.371(3) -0.543(3) -0.268(3)
H2D H 0.543(3) 0.172(4) -0.268(3)
H2E H -0.172(4) 0.371(3) -0.268(3)
H3A H -0.481(3) -0.044(4) 0.341(3)
H3B H 0.044(4) -0.437(3) 0.341(3)
H3C H -0.437(3) -0.481(3) -0.341(3)
H3D H 0.481(3) 0.044(4) -0.341(3)
H3E H -0.044(4) 0.437(3) -0.341(3)
C2A C -0.3555(2) -0.1891(3) 0.2125(4)
C2B C 0.1891(3) -0.1664(2) 0.2125(4)
C2C C -0.1664(2) -0.3555(2) -0.2125(4)
C2D C 0.3555(2) 0.1891(3) -0.2125(4)
C2E C -0.1891(3) 0.1664(2) -0.2125(4)
H4A H -0.350(4) -0.220(6) 0.309(5)
H4B H 0.220(6) -0.130(4) 0.309(5)
H4C H -0.130(4) -0.350(4) -0.309(5)
H4D H 0.350(4) 0.220(6) -0.309(5)
H4E H -0.220(6) 0.130(4) -0.309(5)
H5A H -0.284(3) -0.165(4) 0.161(4)
H5B H 0.165(4) -0.119(3) 0.161(4)
H5C H -0.119(3) -0.284(3) -0.161(4)
H5D H 0.284(3) 0.165(4) -0.161(4)
H5E H -0.165(4) 0.119(3) -0.161(4)
H6A H -0.427(3) -0.246(4) 0.159(3)
H6B H 0.246(4) -0.181(3) 0.159(3)
H6C H -0.181(3) -0.427(3) -0.159(3)
H6D H 0.427(3) 0.246(4) -0.159(3)
H6E H -0.246(4) 0.181(3) -0.159(3)
C3A C -0.3746(2) -0.0280(4) 0.0934(3)
C3B C 0.0280(4) -0.3466(3) 0.0934(3)
C3C C -0.3466(3) -0.3746(2) -0.0934(3)
C3D C 0.3746(2) 0.0280(4) -0.0934(3)
C3E C -0.0280(4) 0.3466(3) -0.0934(3)
H7A H -0.307(3) -0.011(4) 0.038(4)
H7B H 0.011(4) -0.296(3) 0.038(4)
H7C H -0.296(3) -0.307(3) -0.038(4)
H7D H 0.307(3) 0.011(4) -0.038(4)
H7E H -0.011(4) 0.296(3) -0.038(4)
H8A H -0.374(3) 0.046(4) 0.113(4)
H8B H -0.046(4) -0.420(3) 0.113(4)
H8C H -0.420(3) -0.374(3) -0.113(4)
H8D H 0.374(3) -0.046(4) -0.113(4)
H8E H 0.046(4) 0.420(3) -0.113(4)
H9A H -0.452(3) -0.088(4) 0.046(3)
H9B H 0.088(4) -0.364(3) 0.046(3)
H9C H -0.364(3) -0.452(3) -0.046(3)
H9D H 0.452(3) 0.088(4) -0.046(3)
H9E H -0.088(4) 0.364(3) -0.046(3)
C4A C -0.25713(17) 0.01307(26) 0.3254(2)
C4B C -0.01307(26) -0.2702(2) 0.3254(2)
C4C C -0.2702(2) -0.25713(17) -0.3254(2)
C4D C 0.25713(17) -0.01307(26) -0.3254(2)
C4E C 0.01307(26) 0.2702(2) -0.3254(2)
H10A H -0.265(2) -0.025(3) 0.418(3)
H10B H 0.025(3) -0.240(2) 0.418(3)
H10C H -0.240(2) -0.265(2) -0.418(3)
H10D H 0.265(2) 0.025(3) -0.418(3)
H10E H -0.025(3) 0.240(2) -0.418(3)
H11A H -0.266(2) 0.081(3) 0.337(3)
H11B H -0.081(3) -0.347(2) 0.337(3)
H11C H -0.347(2) -0.266(2) -0.337(3)
H11D H 0.266(2) -0.081(3) -0.337(3)
H11E H 0.081(3) 0.347(2) -0.337(3)
C5A C -0.13132(16) 0.05535(22) 0.26411(18)
C5B C -0.05535(22) -0.18667(15) 0.26411(18)
C5C C -0.18667(15) -0.13132(16) -0.26411(18)
C5D C 0.13132(16) -0.05535(22) -0.26411(18)
C5E C 0.05535(22) 0.18667(15) -0.26411(18)
Zn1 Zn 0.6667 0.3333 0.21046(5)
Cl1 Cl 0.6667 0.3333 -0.04106(10)
Cl2 Cl 0.49438(7) 0.16468(7) 0.28096(8)
Cl2A Cl 0.83532(7) 0.32970(10) 0.28096(8)
Cl2B Cl 0.67030(10) 0.50562(7) 0.28096(8)
loop_
_geom_bond_atom_site_label_1
_geom_bond_atom_site_label_2
_geom_bond_site_symmetry_1
_geom_bond_site_symmetry_2
Mn1 O1 1_555 1_555
Mn2 O2 1_555 1_555
O1 C5 1_555 1_555
O2 C5 1_555 1_555
N1 C1 1_555 1_555
C1 H1 1_555 1_555
H2 C1 1_555 1_555
H3 C1 1_555 1_555
C2 N1 1_555 1_555
H4 C2 1_555 1_555
H5 C2 1_555 1_555
H6 C2 1_555 1_555
C3 N1 1_555 1_555
H7 C3 1_555 1_555
H8 C3 1_555 1_555
H9 C3 1_555 1_555
C4 N1 1_555 1_555
H10 C4 1_555 1_555
H11 C4 1_555 1_555
C5 C4 1_555 1_555
Zn1 Cl1 1_555 1_555
Cl2 Zn1 1_555 1_555
Mn2_2 O2C 1_555 1_555
O1A Mn1 1_555 1_555
O1B Mn1 1_555 1_555
O1C Mn1 1_555 1_555
O1D Mn1 1_555 1_555
O1E Mn1 1_555 1_555
O2A Mn2 1_555 1_555
O2B Mn2 1_555 1_555
O2C C5C 1_555 1_555
O2D Mn2_2 1_555 1_555
O2E Mn2_2 1_555 1_555
O2C_2 Mn2 1_555 1_555
O2D_2 Mn2 1_555 1_555
O2E_2 Mn2 1_555 1_555
N1A C1A 1_555 1_555
N1B C1B 1_555 1_555
N1C C1C 1_555 1_555
N1D C1D 1_555 1_555
N1E C1E 1_555 1_555
C1A H1A 1_555 1_555
C1B H1B 1_555 1_555
C1C H1C 1_555 1_555
C1D H1D 1_555 1_555
C1E H1E 1_555 1_555
H2A C1A 1_555 1_555
H2B C1B 1_555 1_555
H2C C1C 1_555 1_555
H2D C1D 1_555 1_555
H2E C1E 1_555 1_555
H3A C1A 1_555 1_555
H3B C1B 1_555 1_555
H3C C1C 1_555 1_555
H3D C1D 1_555 1_555
H3E C1E 1_555 1_555
C2A N1A 1_555 1_555
C2B N1B 1_555 1_555
C2C N1C 1_555 1_555
C2D N1D 1_555 1_555
C2E N1E 1_555 1_555
H4A C2A 1_555 1_555
H4B C2B 1_555 1_555
H4C C2C 1_555 1_555
H4D C2D 1_555 1_555
H4E C2E 1_555 1_555
H5A C2A 1_555 1_555
H5B C2B 1_555 1_555
H5C C2C 1_555 1_555
H5D C2D 1_555 1_555
H5E C2E 1_555 1_555
H6A C2A 1_555 1_555
H6B C2B 1_555 1_555
H6C C2C 1_555 1_555
H6D C2D 1_555 1_555
H6E C2E 1_555 1_555
C3A N1A 1_555 1_555
C3B N1B 1_555 1_555
C3C N1C 1_555 1_555
C3D N1D 1_555 1_555
C3E N1E 1_555 1_555
H7A C3A 1_555 1_555
H7B C3B 1_555 1_555
H7C C3C 1_555 1_555
H7D C3D 1_555 1_555
H7E C3E 1_555 1_555
H8A C3A 1_555 1_555
H8B C3B 1_555 1_555
H8C C3C 1_555 1_555
H8D C3D 1_555 1_555
H8E C3E 1_555 1_555
H9A C3A 1_555 1_555
H9B C3B 1_555 1_555
H9C C3C 1_555 1_555
H9D C3D 1_555 1_555
H9E C3E 1_555 1_555
C4A N1A 1_555 1_555
C4B N1B 1_555 1_555
C4C N1C 1_555 1_555
C4D N1D 1_555 1_555
C4E N1E 1_555 1_555
H10A C4A 1_555 1_555
H10B C4B 1_555 1_555
H10C C4C 1_555 1_555
H10D C4D 1_555 1_555
H10E C4E 1_555 1_555
H11A C4A 1_555 1_555
H11B C4B 1_555 1_555
H11C C4C 1_555 1_555
H11D C4D 1_555 1_555
H11E C4E 1_555 1_555
C5A O1A 1_555 1_555
C5B O1B 1_555 1_555
C5C O1C 1_555 1_555
C5D O1D 1_555 1_555
C5E O1E 1_555 1_555
Cl2A Zn1 1_555 1_555
Cl2B Zn1 1_555 1_555
O2A C5A 1_555 1_555
O2B C5B 1_555 1_555
O2D C5D 1_555 1_555
O2E C5E 1_555 1_555
C4A C5A 1_555 1_555
C4B C5B 1_555 1_555
C4C C5C 1_555 1_555
C4D C5D 1_555 1_555
C4E C5E 1_555 1_555

#END
