
#######################################################################
#
#                 Cambridge Crystallographic Data Centre
#                                CCDC 
#
#######################################################################
#
# If this CIF has been generated from an entry in the Cambridge 
# Structural Database, then it will include bibliographic, chemical, 
# crystal, experimental, refinement or atomic coordinate data resulting 
# from the CCDC's data processing and validation procedures.
#
#######################################################################

data_CEJTAN
_symmetry_cell_setting           orthorhombic
_symmetry_space_group_name_H-M   'P b c a'
_symmetry_Int_Tables_number      61
_space_group_name_Hall           '-P 2ac 2ab'
loop_
_symmetry_equiv_pos_site_id
_symmetry_equiv_pos_as_xyz
1 x,y,z
2 1/2-x,-y,1/2+z
3 1/2+x,1/2-y,-z
4 -x,1/2+y,1/2-z
5 -x,-y,-z
6 1/2+x,y,1/2-z
7 1/2-x,1/2+y,z
8 x,1/2-y,1/2+z
_cell_length_a                   7.6200(6)
_cell_length_b                   19.5806(16)
_cell_length_c                   20.0403(16)
_cell_angle_alpha                90
_cell_angle_beta                 90
_cell_angle_gamma                90
_cell_volume                     2990.1
loop_
_atom_site_label
_atom_site_type_symbol
_atom_site_fract_x
_atom_site_fract_y
_atom_site_fract_z
S1 S 0.63934(12) 0.81105(4) 0.17269(4)
S2 S 0.85418(11) 0.56221(4) 0.08379(4)
Ba1 Ba 0.96163(2) 0.947351(10) 0.190679(10)
K1 K 1.22744(15) 0.60684(6) -0.00473(5)
C1 C 0.7098(4) 0.72723(16) 0.19112(15)
C2 C 0.7486(4) 0.68276(16) 0.13814(17)
H1 H 0.7382 0.6977 0.0943
C3 C 0.8021(4) 0.61704(16) 0.15147(15)
C4 C 0.8156(4) 0.59015(16) 0.21766(16)
C5 C 0.7853(4) 0.64053(16) 0.26912(16)
C6 C 0.7308(4) 0.70653(18) 0.25515(16)
H2 H 0.7085 0.7368 0.2899
O1 O 0.7731(4) 0.84091(14) 0.13085(16)
O2 O 0.6292(4) 0.84693(14) 0.23560(14)
O3 O 0.4723(3) 0.80539(14) 0.13825(16)
O4 O 0.7238(3) 0.50808(13) 0.08353(12)
O5 O 0.8466(3) 0.60453(13) 0.02419(12)
O6 O 1.0311(3) 0.53662(15) 0.09502(14)
O7 O 0.8447(3) 0.52707(12) 0.22756(11)
O8 O 0.8937(3) 0.57273(13) 0.35491(13)
O9 O 0.7496(4) 0.66333(14) 0.38023(13)
O10 O 1.0685(5) 0.8845(2) 0.0656(2)
O11 O 0.8284(3) 0.93629(13) 0.32504(14)
N1 N 0.8097(4) 0.62421(14) 0.33804(14)
O12 O 1.4444(10) 0.7426(3) 0.0058(3)
H3 H 1.055(12) 0.9299(13) 0.062(5)
H4 H 0.853(11) 0.899(3) 0.344(4)
H5 H 0.884(11) 0.968(3) 0.345(4)
H6 H 1.352(8) 0.757(5) 0.026(4)
H7 H 1.151(9) 0.877(4) 0.036(3)
H8 H 1.494(11) 0.774(4) -0.016(5)
Ba1B Ba 1.46163(2) 0.552649(10) -0.190679(10)
Ba1E Ba 0.46163(2) 0.947351(10) 0.309321(10)
Ba1F Ba 0.53837(2) 0.447351(10) 0.190679(10)
Ba1C Ba 1.03837(2) 0.447351(10) 0.309321(10)
K1B K 0.72744(15) 0.89316(6) 0.00473(5)
K1D K 0.77256(15) 0.39316(6) 0.00473(5)
K1E K 0.72744(15) 0.60684(6) 0.50473(5)
O1B O 1.2731(4) 0.65909(14) -0.13085(16)
O2E O 1.1292(4) 0.84693(14) 0.26440(14)
O4F O 0.7762(3) 1.00808(13) 0.08353(12)
O4D O 1.2762(3) 0.49192(13) -0.08353(12)
O7F O 0.6553(3) 1.02707(12) 0.22756(11)
O7C O 1.1553(3) 1.02707(12) 0.27244(11)
O8C O 1.1063(3) 1.07273(13) 0.14509(13)
O8E O 1.3937(3) 0.57273(13) 0.14509(13)
O9E O 1.2496(4) 0.66333(14) 0.11977(13)
O10B O 1.5685(5) 0.6155(2) -0.0656(2)
O11E O 1.3284(3) 0.93629(13) 0.17496(14)
H3B H 1.555(12) 0.5701(13) -0.062(5)
H4E H 1.353(11) 0.899(3) 0.156(4)
H5E H 1.384(11) 0.968(3) 0.155(4)
H7B H 1.651(9) 0.623(4) -0.036(3)
loop_
_geom_bond_atom_site_label_1
_geom_bond_atom_site_label_2
_geom_bond_site_symmetry_1
_geom_bond_site_symmetry_2
S1 C1 1_555 1_555
S2 C3 1_555 1_555
Ba1 O1 1_555 1_555
K1 O5 1_555 1_555
C1 C2 1_555 1_555
C2 H1 1_555 1_555
C3 C2 1_555 1_555
C4 C3 1_555 1_555
C5 C4 1_555 1_555
C6 C1 1_555 1_555
H2 C6 1_555 1_555
O1 S1 1_555 1_555
O2 S1 1_555 1_555
O3 S1 1_555 1_555
O4 S2 1_555 1_555
O5 S2 1_555 1_555
O6 S2 1_555 1_555
O7 C4 1_555 1_555
O8 N1 1_555 1_555
O9 N1 1_555 1_555
O10 Ba1 1_555 1_555
O11 Ba1 1_555 1_555
N1 C5 1_555 1_555
O12 K1 1_555 1_555
H3 O10 1_555 1_555
H4 O11 1_555 1_555
H5 O11 1_555 1_555
H6 O12 1_555 1_555
H7 O10 1_555 1_555
H8 O12 1_555 1_555
Ba1B O1B 1_555 1_555
Ba1E O2 1_555 1_555
Ba1F O4 1_555 1_555
Ba1C O7 1_555 1_555
K1B O1 1_555 1_555
K1D O4 1_555 1_555
K1E O8 1_555 1_555
O1B K1 1_555 1_555
O2E Ba1 1_555 1_555
O4F Ba1 1_555 1_555
O4D K1 1_555 1_555
O7F Ba1 1_555 1_555
O7C Ba1 1_555 1_555
O8C Ba1 1_555 1_555
O8E K1 1_555 1_555
O9E K1 1_555 1_555
O10B K1 1_555 1_555
O11E Ba1 1_555 1_555
H3B O10B 1_555 1_555
H4E O11E 1_555 1_555
H5E O11E 1_555 1_555
H7B O10B 1_555 1_555
K1 O6 1_555 1_555
C5 C6 1_555 1_555
O7 Ba1F 1_555 1_555
O8 Ba1C 1_555 1_555
O9 K1E 1_555 1_555
O10 K1B 1_555 1_555
O11 Ba1E 1_555 1_555
Ba1B O4D 1_555 1_555
Ba1B O10B 1_555 1_555
Ba1E O7F 1_555 1_555
K1B O4F 1_555 1_555

#END
