
#######################################################################
#
#                 Cambridge Crystallographic Data Centre
#                                CCDC 
#
#######################################################################
#
# If this CIF has been generated from an entry in the Cambridge 
# Structural Database, then it will include bibliographic, chemical, 
# crystal, experimental, refinement or atomic coordinate data resulting 
# from the CCDC's data processing and validation procedures.
#
#######################################################################

data_CEJTUH
_symmetry_cell_setting           triclinic
_symmetry_space_group_name_H-M   'P -1'
_symmetry_Int_Tables_number      2
_space_group_name_Hall           '-P 1'
loop_
_symmetry_equiv_pos_site_id
_symmetry_equiv_pos_as_xyz
1 x,y,z
2 -x,-y,-z
_cell_length_a                   7.6205(2)
_cell_length_b                   10.49620(10)
_cell_length_c                   12.0605(2)
_cell_angle_alpha                96.5730(10)
_cell_angle_beta                 91.8230(10)
_cell_angle_gamma                100.4690(10)
_cell_volume                     941.013
loop_
_atom_site_label
_atom_site_type_symbol
_atom_site_fract_x
_atom_site_fract_y
_atom_site_fract_z
Cd1 Cd 0.27323(3) 0.75902(3) 0.37341(2)
O1 O 0.4417(4) 0.7340(4) 0.2190(3)
O2 O 0.5881(5) 0.8524(4) 0.3627(3)
O3 O 1.0145(4) 0.7556(3) 0.2774(3)
O4 O 0.9636(5) 0.9545(3) 0.3250(4)
O5 O 0.2426(6) 0.9576(4) 0.4591(4)
H1 H 0.134(4) 0.957(8) 0.442(7)
H2 H 0.270(9) 1.007(6) 0.520(3)
N1 N 0.1733(5) 0.5331(3) 0.3607(3)
N2 N 0.3523(5) 0.6838(3) 0.5380(3)
C1 C 0.0872(7) 0.4628(5) 0.2689(4)
H3 H 0.076(8) 0.509(6) 0.205(5)
C2 C 0.0248(7) 0.3311(5) 0.2619(5)
H4 H -0.039(8) 0.284(6) 0.194(5)
C3 C 0.0513(7) 0.2688(5) 0.3523(5)
H5 H 0.009(8) 0.179(7) 0.353(5)
C4 C 0.1409(7) 0.3395(5) 0.4485(5)
H6 H 0.160(8) 0.302(6) 0.519(5)
C5 C 0.2023(5) 0.4729(4) 0.4501(3)
C6 C 0.4448(7) 0.7632(5) 0.6234(4)
H7 H 0.497(8) 0.848(6) 0.607(5)
C7 C 0.4891(7) 0.7178(6) 0.7220(4)
H8 H 0.558(10) 0.774(7) 0.783(6)
C8 C 0.4374(8) 0.5876(7) 0.7324(5)
H9 H 0.453(11) 0.550(8) 0.796(7)
C9 C 0.3435(8) 0.5063(6) 0.6444(4)
H10 H 0.310(8) 0.424(7) 0.646(5)
C10 C 0.3020(5) 0.5562(4) 0.5481(3)
C11 C 0.7489(5) 0.8979(4) 0.1091(3)
C12 C 0.7077(6) 1.0210(4) 0.1335(4)
H11 H 0.670(7) 1.041(5) 0.199(5)
C13 C 0.7086(6) 1.1036(5) 0.0524(4)
H12 H 0.680(7) 1.185(6) 0.070(4)
C14 C 0.7550(6) 1.0651(5) -0.0551(4)
H13 H 0.770(7) 1.129(5) -0.117(5)
C15 C 0.7980(6) 0.9440(5) -0.0797(4)
H14 H 0.830(9) 0.919(6) -0.156(6)
C16 C 0.7928(6) 0.8591(5) 0.0008(4)
H15 H 0.827(6) 0.779(5) -0.018(4)
C17 C 0.7522(5) 0.8068(4) 0.1980(3)
H16 H 0.747(6) 0.717(5) 0.159(4)
C18 C 0.5846(5) 0.7993(4) 0.2653(3)
C19 C 0.9245(5) 0.8431(4) 0.2739(3)
Cd1_2 Cd 1.27323(3) 0.75902(3) 0.37341(2)
O3_2 O 0.0145(4) 0.7556(3) 0.2774(3)
O6 O 0.3594(7) 0.5653(6) 0.0197(4)
O7 O -0.0007(13) 0.5817(10) 0.0274(8)
loop_
_geom_bond_atom_site_label_1
_geom_bond_atom_site_label_2
_geom_bond_site_symmetry_1
_geom_bond_site_symmetry_2
Cd1 O1 1_555 1_555
O1 C18 1_555 1_555
O2 Cd1 1_555 1_555
O3 C19 1_555 1_555
O4 C19 1_555 1_555
O5 Cd1 1_555 1_555
H1 O5 1_555 1_555
H2 O5 1_555 1_555
N1 Cd1 1_555 1_555
N2 Cd1 1_555 1_555
C1 N1 1_555 1_555
H3 C1 1_555 1_555
C2 C1 1_555 1_555
H4 C2 1_555 1_555
C3 C2 1_555 1_555
H5 C3 1_555 1_555
C4 C3 1_555 1_555
H6 C4 1_555 1_555
C5 N1 1_555 1_555
C6 N2 1_555 1_555
H7 C6 1_555 1_555
C7 C6 1_555 1_555
H8 C7 1_555 1_555
C8 C7 1_555 1_555
H9 C8 1_555 1_555
C9 C8 1_555 1_555
H10 C9 1_555 1_555
C10 N2 1_555 1_555
C11 C12 1_555 1_555
C12 H11 1_555 1_555
C13 C12 1_555 1_555
H12 C13 1_555 1_555
C14 C13 1_555 1_555
H13 C14 1_555 1_555
C15 C14 1_555 1_555
H14 C15 1_555 1_555
C16 C11 1_555 1_555
H15 C16 1_555 1_555
C17 C11 1_555 1_555
H16 C17 1_555 1_555
C18 O2 1_555 1_555
C19 C17 1_555 1_555
Cd1_2 O3 1_555 1_555
O3_2 Cd1 1_555 1_555
C4 C5 1_555 1_555
C5 C10 1_555 1_555
C9 C10 1_555 1_555
C15 C16 1_555 1_555
C17 C18 1_555 1_555

#END
