
#######################################################################
#
#                 Cambridge Crystallographic Data Centre
#                                CCDC 
#
#######################################################################
#
# If this CIF has been generated from an entry in the Cambridge 
# Structural Database, then it will include bibliographic, chemical, 
# crystal, experimental, refinement or atomic coordinate data resulting 
# from the CCDC's data processing and validation procedures.
#
#######################################################################

data_CEJWAQ
_symmetry_cell_setting           monoclinic
_symmetry_space_group_name_H-M   'C 2/c'
_symmetry_Int_Tables_number      15
_space_group_name_Hall           '-C 2yn'
loop_
_symmetry_equiv_pos_site_id
_symmetry_equiv_pos_as_xyz
1 x,y,z
2 1/2+x,1/2+y,z
3 -x,y,1/2-z
4 1/2-x,1/2+y,1/2-z
5 -x,-y,-z
6 1/2-x,1/2-y,-z
7 x,-y,1/2+z
8 1/2+x,1/2-y,1/2+z
_cell_length_a                   23.911(2)
_cell_length_b                   12.5606(9)
_cell_length_c                   16.8339(16)
_cell_angle_alpha                90
_cell_angle_beta                 120.403(2)
_cell_angle_gamma                90
_cell_volume                     4360.59
loop_
_atom_site_label
_atom_site_type_symbol
_atom_site_fract_x
_atom_site_fract_y
_atom_site_fract_z
Co1 Co 0.5000 0.21190(3) 0.7500
S1 S 0.32937(4) 0.28857(6) 0.81052(5)
N1 N 0.44981(9) 0.44971(15) 0.54677(12)
N2 N 0.46804(10) 0.35231(15) 0.58435(13)
N3 N 0.45716(9) 0.34551(14) 0.65278(12)
N4 N 0.46242(10) 0.08874(15) 0.64461(13)
N5 N 0.40400(10) 0.09487(16) 0.57250(14)
N6 N 0.39682(10) 0.01341(17) 0.51536(14)
N7 N 0.27893(11) -0.06083(18) 0.50966(18)
N8 N 0.29930(14) -0.1328(2) 0.5789(3)
N9 N 0.28312(15) -0.1022(3) 0.6373(3)
N10 N 0.41728(10) 0.21449(14) 0.75999(14)
C1 C 0.43208(11) 0.44148(17) 0.66098(15)
C2 C 0.41347(11) 0.47732(18) 0.72338(16)
H1 H 0.4153 0.4332 0.7690
C3 C 0.39238(12) 0.58085(19) 0.71359(17)
H2 H 0.3803 0.6074 0.7543
C4 C 0.38838(14) 0.6481(2) 0.64389(19)
H3 H 0.3739 0.7176 0.6401
C5 C 0.40519(12) 0.61420(19) 0.58167(18)
H4 H 0.4020 0.6580 0.5350
C6 C 0.42762(11) 0.50916(17) 0.59274(15)
C7 C 0.46484(12) 0.4828(2) 0.47717(15)
H5 H 0.4369 0.5414 0.4418
H6 H 0.4572 0.4242 0.4353
C8 C 0.49393(12) 0.00226(17) 0.63491(16)
C9 C 0.55680(13) -0.03742(19) 0.69165(17)
H7 H 0.5853 -0.0062 0.7481
C10 C 0.57426(15) -0.1243(2) 0.65993(19)
H8 H 0.6154 -0.1534 0.6961
C11 C 0.53145(16) -0.1708(2) 0.5737(2)
H9 H 0.5458 -0.2283 0.5541
C12 C 0.46969(15) -0.1345(2) 0.51794(19)
H10 H 0.4414 -0.1664 0.4618
C13 C 0.45175(12) -0.04593(18) 0.55100(16)
C14 C 0.24787(12) 0.0206(2) 0.52457(18)
C15 C 0.21851(13) 0.1127(2) 0.4779(2)
H11 H 0.2160 0.1312 0.4226
C16 C 0.19297(14) 0.1761(2) 0.5194(3)
H12 H 0.1731 0.2398 0.4910
C17 C 0.19559(18) 0.1491(4) 0.6011(4)
H13 H 0.1772 0.1944 0.6253
C18 C 0.22473(17) 0.0573(4) 0.6466(3)
H14 H 0.2266 0.0386 0.7013
C19 C 0.25156(13) -0.0071(3) 0.6070(2)
C20 C 0.33549(14) 0.0011(3) 0.4296(2)
H15 H 0.3441 -0.0192 0.3813
H16 H 0.3133 0.0692 0.4127
C21 C 0.29135(15) -0.0814(3) 0.4355(3)
H17 H 0.2504 -0.0826 0.3777
H18 H 0.3111 -0.1511 0.4443
C22 C 0.38012(12) 0.24326(18) 0.78013(16)
Co1F Co 0.5000 0.78810(3) 0.2500
S1B S 0.67063(4) 0.28857(6) 0.68948(5)
N1D N 0.55019(9) 0.55029(15) 0.45323(12)
N2D N 0.53196(10) 0.64769(15) 0.41565(13)
N3D N 0.54284(9) 0.65449(14) 0.34722(12)
N3B N 0.54284(9) 0.34551(14) 0.84722(12)
N4B N 0.53758(10) 0.08874(15) 0.85539(13)
N5B N 0.59600(10) 0.09487(16) 0.92750(14)
N6B N 0.60318(10) 0.01341(17) 0.98464(14)
N7B N 0.72107(11) -0.06083(18) 0.99034(18)
N8B N 0.70070(14) -0.1328(2) 0.9211(3)
N9B N 0.71688(15) -0.1022(3) 0.8627(3)
N10B N 0.58272(10) 0.21449(14) 0.74001(14)
C1D C 0.56792(11) 0.55852(17) 0.33902(15)
C2D C 0.58653(11) 0.52268(18) 0.27662(16)
H1D H 0.5847 0.5668 0.2310
C3D C 0.60762(12) 0.41915(19) 0.28641(17)
H2D H 0.6197 0.3926 0.2457
C4D C 0.61162(14) 0.3519(2) 0.35611(19)
H3D H 0.6261 0.2824 0.3599
C5D C 0.59481(12) 0.38580(19) 0.41833(18)
H4D H 0.5980 0.3420 0.4650
C6D C 0.57238(11) 0.49084(17) 0.40726(15)
C7D C 0.53516(12) 0.5172(2) 0.52283(15)
H5D H 0.5631 0.4586 0.5582
H6D H 0.5428 0.5758 0.5647
C8B C 0.50607(12) 0.00226(17) 0.86509(16)
C9B C 0.44320(13) -0.03742(19) 0.80835(17)
H7B H 0.4147 -0.0062 0.7519
C10B C 0.42574(15) -0.1243(2) 0.84007(19)
H8B H 0.3846 -0.1534 0.8039
C11B C 0.46855(16) -0.1708(2) 0.9263(2)
H9B H 0.4542 -0.2283 0.9459
C12B C 0.53031(15) -0.1345(2) 0.98206(19)
H10B H 0.5586 -0.1664 1.0382
C13B C 0.54825(12) -0.04593(18) 0.94900(16)
C14B C 0.75213(12) 0.0206(2) 0.97543(18)
C15B C 0.78149(13) 0.1127(2) 1.0221(2)
H11B H 0.7840 0.1312 1.0774
C16B C 0.80703(14) 0.1761(2) 0.9806(3)
H12B H 0.8269 0.2398 1.0090
C17B C 0.80441(18) 0.1491(4) 0.8989(4)
H13B H 0.8228 0.1944 0.8747
C18B C 0.77527(17) 0.0573(4) 0.8534(3)
H14B H 0.7734 0.0386 0.7987
C19B C 0.74844(13) -0.0071(3) 0.8930(2)
C20B C 0.66451(14) 0.0011(3) 1.0704(2)
H15B H 0.6559 -0.0192 1.1187
H16B H 0.6867 0.0692 1.0873
C21B C 0.70865(15) -0.0814(3) 1.0645(3)
H17B H 0.7496 -0.0826 1.1223
H18B H 0.6889 -0.1511 1.0557
C22B C 0.61988(12) 0.24326(18) 0.71987(16)
loop_
_geom_bond_atom_site_label_1
_geom_bond_atom_site_label_2
_geom_bond_site_symmetry_1
_geom_bond_site_symmetry_2
Co1 N3 1_555 1_555
S1 C22 1_555 1_555
N1 N2 1_555 1_555
N2 N3 1_555 1_555
N3 C1 1_555 1_555
N4 Co1 1_555 1_555
N5 N4 1_555 1_555
N6 N5 1_555 1_555
N7 N8 1_555 1_555
N8 N9 1_555 1_555
N9 C19 1_555 1_555
N10 Co1 1_555 1_555
C1 C2 1_555 1_555
C2 H1 1_555 1_555
C3 C2 1_555 1_555
H2 C3 1_555 1_555
C4 C3 1_555 1_555
H3 C4 1_555 1_555
C5 C4 1_555 1_555
H4 C5 1_555 1_555
C6 N1 1_555 1_555
C7 N1 1_555 1_555
H5 C7 1_555 1_555
H6 C7 1_555 1_555
C8 N4 1_555 1_555
C9 C8 1_555 1_555
H7 C9 1_555 1_555
C10 C9 1_555 1_555
H8 C10 1_555 1_555
C11 C10 1_555 1_555
H9 C11 1_555 1_555
C12 C11 1_555 1_555
H10 C12 1_555 1_555
C13 N6 1_555 1_555
C14 N7 1_555 1_555
C15 C14 1_555 1_555
H11 C15 1_555 1_555
C16 C15 1_555 1_555
H12 C16 1_555 1_555
C17 C16 1_555 1_555
H13 C17 1_555 1_555
C18 C17 1_555 1_555
H14 C18 1_555 1_555
C19 C14 1_555 1_555
C20 N6 1_555 1_555
H15 C20 1_555 1_555
H16 C20 1_555 1_555
C21 N7 1_555 1_555
H17 C21 1_555 1_555
H18 C21 1_555 1_555
C22 N10 1_555 1_555
Co1F N3D 1_555 1_555
S1B C22B 1_555 1_555
N1D N2D 1_555 1_555
N2D N3D 1_555 1_555
N3D C1D 1_555 1_555
N3B Co1 1_555 1_555
N4B Co1 1_555 1_555
N5B N4B 1_555 1_555
N6B N5B 1_555 1_555
N7B N8B 1_555 1_555
N8B N9B 1_555 1_555
N9B C19B 1_555 1_555
N10B Co1 1_555 1_555
C1D C2D 1_555 1_555
C2D H1D 1_555 1_555
C3D C2D 1_555 1_555
H2D C3D 1_555 1_555
C4D C3D 1_555 1_555
H3D C4D 1_555 1_555
C5D C4D 1_555 1_555
H4D C5D 1_555 1_555
C6D N1D 1_555 1_555
C7D C7 1_555 1_555
H5D C7D 1_555 1_555
H6D C7D 1_555 1_555
C8B N4B 1_555 1_555
C9B C8B 1_555 1_555
H7B C9B 1_555 1_555
C10B C9B 1_555 1_555
H8B C10B 1_555 1_555
C11B C10B 1_555 1_555
H9B C11B 1_555 1_555
C12B C11B 1_555 1_555
H10B C12B 1_555 1_555
C13B N6B 1_555 1_555
C14B N7B 1_555 1_555
C15B C14B 1_555 1_555
H11B C15B 1_555 1_555
C16B C15B 1_555 1_555
H12B C16B 1_555 1_555
C17B C16B 1_555 1_555
H13B C17B 1_555 1_555
C18B C17B 1_555 1_555
H14B C18B 1_555 1_555
C19B C14B 1_555 1_555
C20B N6B 1_555 1_555
H15B C20B 1_555 1_555
H16B C20B 1_555 1_555
C21B N7B 1_555 1_555
H17B C21B 1_555 1_555
H18B C21B 1_555 1_555
C22B N10B 1_555 1_555
C1 C6 1_555 1_555
C5 C6 1_555 1_555
C8 C13 1_555 1_555
C12 C13 1_555 1_555
C18 C19 1_555 1_555
C20 C21 1_555 1_555
N1D C7D 1_555 1_555
C1D C6D 1_555 1_555
C5D C6D 1_555 1_555
C8B C13B 1_555 1_555
C12B C13B 1_555 1_555
C18B C19B 1_555 1_555
C20B C21B 1_555 1_555

#END
