
#######################################################################
#
#                 Cambridge Crystallographic Data Centre
#                                CCDC 
#
#######################################################################
#
# If this CIF has been generated from an entry in the Cambridge 
# Structural Database, then it will include bibliographic, chemical, 
# crystal, experimental, refinement or atomic coordinate data resulting 
# from the CCDC's data processing and validation procedures.
#
#######################################################################

data_CEJWUK
_symmetry_cell_setting           triclinic
_symmetry_space_group_name_H-M   'P -1'
_symmetry_Int_Tables_number      2
_space_group_name_Hall           '-P 1'
loop_
_symmetry_equiv_pos_site_id
_symmetry_equiv_pos_as_xyz
1 x,y,z
2 -x,-y,-z
_cell_length_a                   10.502(3)
_cell_length_b                   10.689(3)
_cell_length_c                   13.016(3)
_cell_angle_alpha                89.133(9)
_cell_angle_beta                 74.454(7)
_cell_angle_gamma                69.889(5)
_cell_volume                     1317.04
loop_
_atom_site_label
_atom_site_type_symbol
_atom_site_fract_x
_atom_site_fract_y
_atom_site_fract_z
Cd1 Cd 0.0000 0.0000 0.5000
Cd2 Cd -0.03459(2) -0.28205(2) 0.685910(16)
C1 C -0.1683(3) -0.3929(3) 0.9044(2)
H1 H -0.2012 -0.4368 0.8599
C2 C -0.0698(3) -0.2694(3) 0.9582(2)
C3 C -0.6208(3) 0.2154(3) 0.2436(2)
C4 C -0.3305(3) 0.0300(4) 0.5911(3)
H2 H -0.2879 -0.0496 0.6214
C5 C -0.7245(3) 0.3584(3) 0.3822(2)
H3 H -0.7952 0.4189 0.4387
C6 C -0.6988(4) -0.3291(4) 1.2082(3)
H4 H -0.7972 -0.2951 1.2433
C7 C -0.1268(3) -0.3274(3) 1.0476(2)
C8 C -0.1153(3) -0.3034(3) 1.1493(2)
H5 H -0.1559 -0.3420 1.2097
C9 C -0.0421(3) -0.2212(3) 1.1574(2)
H6 H -0.0318 -0.2024 1.2253
C10 C 0.0183(3) -0.1638(3) 1.0676(2)
H7 H 0.0698 -0.1089 1.0761
C11 C 0.0041(3) -0.1858(3) 0.9676(2)
H8 H 0.0432 -0.1456 0.9076
C12 C -0.5163(3) 0.3696(3) 0.4384(2)
H9 H -0.5865 0.4449 0.4896
H10 H -0.4406 0.4003 0.3963
C13 C -0.4545(3) 0.2537(3) 0.4988(2)
C14 C -0.5391(3) 0.1932(3) 0.5651(2)
H11 H -0.6388 0.2289 0.5781
C15 C -0.3102(3) 0.1999(3) 0.4855(2)
H12 H -0.2524 0.2435 0.4426
C16 C -0.3710(3) 0.1720(3) 0.2286(2)
H13 H -0.3000 0.1886 0.2527
C17 C -0.3380(3) 0.0821(4) 0.1419(2)
H14 H -0.2416 0.0352 0.1054
C18 C -0.4427(3) 0.0586(4) 0.1067(3)
H15 H -0.4155 -0.0039 0.0467
C19 C -0.5142(3) 0.2369(3) 0.2784(2)
C20 C -0.2574(3) -0.4932(3) 1.0715(3)
H16 H -0.2384 -0.5730 1.0242
H17 H -0.2149 -0.5241 1.1308
C21 C -0.4149(3) -0.4265(3) 1.1174(2)
C22 C -0.4808(4) -0.2927(4) 1.1508(3)
H18 H -0.4276 -0.2353 1.1430
C23 C -0.5854(3) 0.1235(3) 0.1566(2)
H19 H -0.6559 0.1061 0.1326
C24 C -0.4997(4) -0.5041(4) 1.1284(3)
H20 H -0.4557 -0.5957 1.1021
N1 N -0.6390(3) -0.4579(3) 1.1735(2)
C25 C -0.4769(3) 0.0803(4) 0.6122(3)
H21 H -0.5331 0.0377 0.6582
Cl1 Cl -0.00164(8) -0.24215(8) 0.47741(5)
Cl2 Cl 0.03507(8) 0.04714(7) 0.29121(5)
Cl3 Cl 0.19542(8) -0.46314(8) 0.65631(6)
N2 N -0.2474(3) 0.0893(3) 0.5298(2)
C26 C -0.6259(4) -0.2426(4) 1.1960(3)
H22 H -0.6739 -0.1501 1.2181
N3 N -0.0981(2) -0.3126(3) 0.86913(19)
N4 N -0.7525(2) 0.2933(3) 0.31083(18)
N5 N -0.1887(2) -0.4063(3) 1.01060(19)
N6 N -0.5843(2) 0.3301(3) 0.36645(18)
Cd2A Cd 0.03459(2) 0.28205(2) 0.314090(16)
Cd2A_2 Cd -0.96541(2) 0.28205(2) 0.314090(16)
Cd2_2 Cd 0.96541(2) -0.28205(2) 0.685910(16)
C1A C 0.1683(3) 0.3929(3) 0.0956(2)
H1A H 0.2012 0.4368 0.1401
C2A C 0.0698(3) 0.2694(3) 0.0418(2)
C3A C 0.6208(3) -0.2154(3) 0.7564(2)
C4A C 0.3305(3) -0.0300(4) 0.4089(3)
H2A H 0.2879 0.0496 0.3786
C5A C 0.7245(3) -0.3584(3) 0.6178(2)
H3A H 0.7952 -0.4189 0.5613
C6A C 0.6988(4) 0.3291(4) -0.2082(3)
H4A H 0.7972 0.2951 -0.2433
C7A C 0.1268(3) 0.3274(3) -0.0476(2)
C8A C 0.1153(3) 0.3034(3) -0.1493(2)
H5A H 0.1559 0.3420 -0.2097
C9A C 0.0421(3) 0.2212(3) -0.1574(2)
H6A H 0.0318 0.2024 -0.2253
C10A C -0.0183(3) 0.1638(3) -0.0676(2)
H7A H -0.0698 0.1089 -0.0761
C11A C -0.0041(3) 0.1858(3) 0.0324(2)
H8A H -0.0432 0.1456 0.0924
C12A C 0.5163(3) -0.3696(3) 0.5616(2)
H9A H 0.5865 -0.4449 0.5104
H10A H 0.4406 -0.4003 0.6037
C13A C 0.4545(3) -0.2537(3) 0.5012(2)
C14A C 0.5391(3) -0.1932(3) 0.4349(2)
H11A H 0.6388 -0.2289 0.4219
C15A C 0.3102(3) -0.1999(3) 0.5145(2)
H12A H 0.2524 -0.2435 0.5574
C16A C 0.3710(3) -0.1720(3) 0.7714(2)
H13A H 0.3000 -0.1886 0.7473
C17A C 0.3380(3) -0.0821(4) 0.8581(2)
H14A H 0.2416 -0.0352 0.8946
C18A C 0.4427(3) -0.0586(4) 0.8933(3)
H15A H 0.4155 0.0039 0.9533
C19A C 0.5142(3) -0.2369(3) 0.7216(2)
C20A C 0.2574(3) 0.4932(3) -0.0715(3)
H16A H 0.2384 0.5730 -0.0242
H17A H 0.2149 0.5241 -0.1308
C21A C 0.4149(3) 0.4265(3) -0.1174(2)
C22A C 0.4808(4) 0.2927(4) -0.1508(3)
H18A H 0.4276 0.2353 -0.1430
C23A C 0.5854(3) -0.1235(3) 0.8434(2)
H19A H 0.6559 -0.1061 0.8674
C24A C 0.4997(4) 0.5041(4) -0.1284(3)
H20A H 0.4557 0.5957 -0.1021
N1A N 0.6390(3) 0.4579(3) -0.1735(2)
C25A C 0.4769(3) -0.0803(4) 0.3878(3)
H21A H 0.5331 -0.0377 0.3418
Cl1A Cl 0.00164(8) 0.24215(8) 0.52259(5)
Cl2A Cl -0.03507(8) -0.04714(7) 0.70879(5)
Cl3A Cl -0.19542(8) 0.46314(8) 0.34369(6)
N2A N 0.2474(3) -0.0893(3) 0.4702(2)
C26A C 0.6259(4) 0.2426(4) -0.1960(3)
H22A H 0.6739 0.1501 -0.2181
N3A N 0.0981(2) 0.3126(3) 0.13087(19)
N4A N 0.7525(2) -0.2933(3) 0.68917(18)
N4A_2 N -0.2475(2) -0.2933(3) 0.68917(18)
N4_2 N 0.2475(2) 0.2933(3) 0.31083(18)
N5A N 0.1887(2) 0.4063(3) -0.01060(19)
N6A N 0.5843(2) -0.3301(3) 0.63355(18)
loop_
_geom_bond_atom_site_label_1
_geom_bond_atom_site_label_2
_geom_bond_site_symmetry_1
_geom_bond_site_symmetry_2
Cd1 Cl1 1_555 1_555
Cd2 Cl1 1_555 1_555
C1 H1 1_555 1_555
C2 C7 1_555 1_555
C3 C19 1_555 1_555
C4 H2 1_555 1_555
C5 H3 1_555 1_555
C6 H4 1_555 1_555
C7 C8 1_555 1_555
C8 H5 1_555 1_555
C9 C8 1_555 1_555
H6 C9 1_555 1_555
C10 C9 1_555 1_555
H7 C10 1_555 1_555
C11 C2 1_555 1_555
H8 C11 1_555 1_555
C12 H9 1_555 1_555
H10 C12 1_555 1_555
C13 C12 1_555 1_555
C14 C13 1_555 1_555
H11 C14 1_555 1_555
C15 C13 1_555 1_555
H12 C15 1_555 1_555
C16 H13 1_555 1_555
C17 C16 1_555 1_555
H14 C17 1_555 1_555
C18 C17 1_555 1_555
H15 C18 1_555 1_555
C19 C16 1_555 1_555
C20 H16 1_555 1_555
H17 C20 1_555 1_555
C21 C20 1_555 1_555
C22 C21 1_555 1_555
H18 C22 1_555 1_555
C23 C3 1_555 1_555
H19 C23 1_555 1_555
C24 C21 1_555 1_555
H20 C24 1_555 1_555
N1 C6 1_555 1_555
C25 C4 1_555 1_555
H21 C25 1_555 1_555
Cl2 Cd1 1_555 1_555
Cl3 Cd2 1_555 1_555
N2 Cd1 1_555 1_555
C26 C6 1_555 1_555
H22 C26 1_555 1_555
N3 Cd2 1_555 1_555
N4 C3 1_555 1_555
N5 C1 1_555 1_555
N6 C5 1_555 1_555
Cd2A Cl2 1_555 1_555
Cd2A_2 N4 1_555 1_555
Cd2_2 N4A 1_555 1_555
C1A H1A 1_555 1_555
C2A C7A 1_555 1_555
C3A C19A 1_555 1_555
C4A H2A 1_555 1_555
C5A H3A 1_555 1_555
C6A H4A 1_555 1_555
C7A C8A 1_555 1_555
C8A H5A 1_555 1_555
C9A C8A 1_555 1_555
H6A C9A 1_555 1_555
C10A C9A 1_555 1_555
H7A C10A 1_555 1_555
C11A C2A 1_555 1_555
H8A C11A 1_555 1_555
C12A H9A 1_555 1_555
H10A C12A 1_555 1_555
C13A C12A 1_555 1_555
C14A C13A 1_555 1_555
H11A C14A 1_555 1_555
C15A C13A 1_555 1_555
H12A C15A 1_555 1_555
C16A H13A 1_555 1_555
C17A C16A 1_555 1_555
H14A C17A 1_555 1_555
C18A C17A 1_555 1_555
H15A C18A 1_555 1_555
C19A C16A 1_555 1_555
C20A H16A 1_555 1_555
H17A C20A 1_555 1_555
C21A C20A 1_555 1_555
C22A C21A 1_555 1_555
H18A C22A 1_555 1_555
C23A C3A 1_555 1_555
H19A C23A 1_555 1_555
C24A C21A 1_555 1_555
H20A C24A 1_555 1_555
N1A C6A 1_555 1_555
C25A C4A 1_555 1_555
H21A C25A 1_555 1_555
Cl1A Cd1 1_555 1_555
Cl2A Cd1 1_555 1_555
Cl3A Cd2A 1_555 1_555
N2A Cd1 1_555 1_555
C26A C6A 1_555 1_555
H22A C26A 1_555 1_555
N3A Cd2A 1_555 1_555
N4A C3A 1_555 1_555
N4A_2 Cd2 1_555 1_555
N4_2 Cd2A 1_555 1_555
N5A C1A 1_555 1_555
N6A C5A 1_555 1_555
Cd2 Cl2A 1_555 1_555
C1 N3 1_555 1_555
C2 N3 1_555 1_555
C4 N2 1_555 1_555
C5 N4 1_555 1_555
C7 N5 1_555 1_555
C10 C11 1_555 1_555
C12 N6 1_555 1_555
C14 C25 1_555 1_555
C15 N2 1_555 1_555
C18 C23 1_555 1_555
C19 N6 1_555 1_555
C20 N5 1_555 1_555
C22 C26 1_555 1_555
C24 N1 1_555 1_555
Cd2A Cl1A 1_555 1_555
C1A N3A 1_555 1_555
C2A N3A 1_555 1_555
C4A N2A 1_555 1_555
C5A N4A 1_555 1_555
C7A N5A 1_555 1_555
C10A C11A 1_555 1_555
C12A N6A 1_555 1_555
C14A C25A 1_555 1_555
C15A N2A 1_555 1_555
C18A C23A 1_555 1_555
C19A N6A 1_555 1_555
C20A N5A 1_555 1_555
C22A C26A 1_555 1_555
C24A N1A 1_555 1_555

#END
