
#######################################################################
#
#                 Cambridge Crystallographic Data Centre
#                                CCDC 
#
#######################################################################
#
# If this CIF has been generated from an entry in the Cambridge 
# Structural Database, then it will include bibliographic, chemical, 
# crystal, experimental, refinement or atomic coordinate data resulting 
# from the CCDC's data processing and validation procedures.
#
#######################################################################

data_CEJXEV
_symmetry_cell_setting           monoclinic
_symmetry_space_group_name_H-M   'P 21/n'
_symmetry_Int_Tables_number      14
_space_group_name_Hall           '-P 2yn'
loop_
_symmetry_equiv_pos_site_id
_symmetry_equiv_pos_as_xyz
1 x,y,z
2 1/2-x,1/2+y,1/2-z
3 -x,-y,-z
4 1/2+x,1/2-y,1/2+z
_cell_length_a                   7.8353(8)
_cell_length_b                   14.0936(11)
_cell_length_c                   13.6322(13)
_cell_angle_alpha                90
_cell_angle_beta                 103.493(4)
_cell_angle_gamma                90
_cell_volume                     1463.82
loop_
_atom_site_label
_atom_site_type_symbol
_atom_site_fract_x
_atom_site_fract_y
_atom_site_fract_z
Hg1 Hg 0.23520(4) 0.225931(18) 0.427883(19)
Cl1 Cl -0.0037(4) 0.24839(17) 0.28124(18)
N1 N 0.3045(8) -0.0410(4) 0.8634(4)
C1 C 0.2507(10) 0.0903(5) 0.6199(5)
N2 N 0.1288(8) 0.1316(4) 0.5470(4)
C2 C 0.2448(8) -0.0480(4) 1.0152(5)
C3 C -0.0440(10) 0.1183(5) 0.5418(5)
N3 N 0.2661(7) -0.1397(4) 0.9841(4)
C4 C 0.2059(10) 0.0335(4) 0.6923(5)
C5 C 0.0275(11) 0.0184(6) 0.6876(5)
C6 C 0.3029(9) -0.1318(5) 0.8930(5)
C7 C -0.0954(10) 0.0592(6) 0.6120(6)
C8 C 0.2692(8) 0.0152(5) 0.9387(5)
C9 C 0.3560(10) -0.0080(6) 0.7703(5)
Cl2 Cl 0.4892(3) 0.1366(2) 0.4184(2)
C10 C 0.2070(10) -0.0144(5) 1.1025(5)
C11 C 0.1951(10) 0.0833(5) 1.1137(6)
C12 C 0.2550(10) 0.1132(6) 0.9477(6)
C13 C 0.2166(11) 0.1455(5) 1.0373(6)
Hg1A Hg 0.26480(4) -0.274069(18) 1.072117(19)
N3A N 0.2339(7) 0.3603(4) 0.5159(4)
loop_
_geom_bond_atom_site_label_1
_geom_bond_atom_site_label_2
_geom_bond_site_symmetry_1
_geom_bond_site_symmetry_2
Hg1 Cl1 1_555 1_555
N1 C6 1_555 1_555
C1 N2 1_555 1_555
N2 Hg1 1_555 1_555
C2 N3 1_555 1_555
C3 N2 1_555 1_555
N3 C6 1_555 1_555
C4 C1 1_555 1_555
C5 C4 1_555 1_555
C7 C3 1_555 1_555
C8 N1 1_555 1_555
C9 N1 1_555 1_555
Cl2 Hg1 1_555 1_555
C10 C2 1_555 1_555
C11 C10 1_555 1_555
C12 C8 1_555 1_555
C13 C11 1_555 1_555
Hg1A N3 1_555 1_555
N3A Hg1 1_555 1_555
C2 C8 1_555 1_555
C4 C9 1_555 1_555
C5 C7 1_555 1_555
C12 C13 1_555 1_555

#END
