
#######################################################################
#
#                 Cambridge Crystallographic Data Centre
#                                CCDC 
#
#######################################################################
#
# If this CIF has been generated from an entry in the Cambridge 
# Structural Database, then it will include bibliographic, chemical, 
# crystal, experimental, refinement or atomic coordinate data resulting 
# from the CCDC's data processing and validation procedures.
#
#######################################################################

data_CEJXEW
_symmetry_cell_setting           monoclinic
_symmetry_space_group_name_H-M   'P 21/c'
_symmetry_Int_Tables_number      14
_space_group_name_Hall           '-P 2ybc'
loop_
_symmetry_equiv_pos_site_id
_symmetry_equiv_pos_as_xyz
1 x,y,z
2 -x,1/2+y,1/2-z
3 -x,-y,-z
4 x,1/2-y,1/2+z
_cell_length_a                   14.7442(14)
_cell_length_b                   12.8536(11)
_cell_length_c                   6.9802(5)
_cell_angle_alpha                90
_cell_angle_beta                 92.523(7)
_cell_angle_gamma                90
_cell_volume                     1321.58
loop_
_atom_site_label
_atom_site_type_symbol
_atom_site_fract_x
_atom_site_fract_y
_atom_site_fract_z
Tb1 Tb 0.549701(10) 0.369775(11) 0.10990(2)
O1 O 0.65082(17) 0.4620(2) -0.0645(4)
O2 O 1.33325(16) 0.7527(2) -0.5736(4)
O3 O 0.46714(19) 0.4510(2) -0.1809(4)
O4 O 1.37513(17) 0.6150(2) -0.3986(4)
O5 O 0.50387(17) 0.28835(18) -0.2199(4)
C1 C 1.3150(2) 0.6736(3) -0.4762(5)
C2 C 1.2179(3) 0.6501(3) -0.4454(5)
C3 C 1.1930(2) 0.5631(3) -0.3431(5)
H1 H 1.2369 0.5150 -0.3024
C4 C 1.1028(2) 0.5472(3) -0.3009(5)
H2 H 1.0875 0.4883 -0.2318
C5 C 1.0345(3) 0.6173(3) -0.3595(6)
C6 C 1.0604(2) 0.7029(3) -0.4681(5)
H3 H 1.0165 0.7502 -0.5123
C7 C 1.1499(2) 0.7186(3) -0.5107(5)
H4 H 1.1652 0.7758 -0.5842
C8 C 0.9391(2) 0.6023(3) -0.3045(5)
C9 C 0.9125(2) 0.5106(3) -0.2148(6)
H5 H 0.9555 0.4591 -0.1874
C10 C 0.8239(2) 0.4947(3) -0.1659(5)
H6 H 0.8082 0.4327 -0.1071
C11 C 0.7581(2) 0.5694(3) -0.2032(5)
C12 C 0.7826(3) 0.6607(4) -0.2919(7)
H7 H 0.7390 0.7116 -0.3184
C13 C 0.8712(3) 0.6771(3) -0.3416(7)
H8 H 0.8861 0.7391 -0.4011
C14 C 0.6637(2) 0.5478(3) -0.1466(6)
O6 O 0.6028(2) 0.6152(2) -0.1813(5)
C15 C 0.4696(3) 0.3717(2) -0.2842(6)
Tb1A Tb 1.450299(10) 0.869775(11) -0.60990(2)
Tb1B Tb 0.450299(10) 0.630225(11) -0.10990(2)
Tb1B_2 Tb 1.450299(10) 0.630225(11) -0.10990(2)
Tb1C Tb 0.549701(10) 0.130225(11) -0.39010(2)
O2A O 0.66675(16) 0.2527(2) 0.0736(4)
O3B O 0.53286(19) 0.5490(2) 0.1809(4)
O4B O 0.62487(17) 0.3850(2) 0.3986(4)
O5C O 0.50387(17) 0.21165(18) 0.2801(4)
O6B O 0.3972(2) 0.3848(2) 0.1813(5)
loop_
_geom_bond_atom_site_label_1
_geom_bond_atom_site_label_2
_geom_bond_site_symmetry_1
_geom_bond_site_symmetry_2
Tb1 O1 1_555 1_555
O1 C14 1_555 1_555
O2 C1 1_555 1_555
O3 Tb1 1_555 1_555
O4 C1 1_555 1_555
O5 Tb1 1_555 1_555
C1 C2 1_555 1_555
C2 C3 1_555 1_555
C3 H1 1_555 1_555
C4 C3 1_555 1_555
H2 C4 1_555 1_555
C5 C4 1_555 1_555
C6 C5 1_555 1_555
H3 C6 1_555 1_555
C7 C2 1_555 1_555
H4 C7 1_555 1_555
C8 C5 1_555 1_555
C9 C8 1_555 1_555
H5 C9 1_555 1_555
C10 C9 1_555 1_555
H6 C10 1_555 1_555
C11 C10 1_555 1_555
C12 C11 1_555 1_555
H7 C12 1_555 1_555
C13 C8 1_555 1_555
H8 C13 1_555 1_555
C14 C11 1_555 1_555
O6 C14 1_555 1_555
C15 O3 1_555 1_555
Tb1A O2 1_555 1_555
Tb1B O3 1_555 1_555
Tb1B_2 O4 1_555 1_555
Tb1C O5 1_555 1_555
O2A Tb1 1_555 1_555
O3B Tb1 1_555 1_555
O4B Tb1 1_555 1_555
O5C Tb1 1_555 1_555
O6B Tb1 1_555 1_555
O5 C15 1_555 1_555
C6 C7 1_555 1_555
C12 C13 1_555 1_555
O6 Tb1B 1_555 1_555
Tb1B O3B 1_555 1_555

#END
