
#######################################################################
#
#                 Cambridge Crystallographic Data Centre
#                                CCDC 
#
#######################################################################
#
# If this CIF has been generated from an entry in the Cambridge 
# Structural Database, then it will include bibliographic, chemical, 
# crystal, experimental, refinement or atomic coordinate data resulting 
# from the CCDC's data processing and validation procedures.
#
#######################################################################

data_CEJXOG
_symmetry_cell_setting           monoclinic
_symmetry_space_group_name_H-M   'P 21/c'
_symmetry_Int_Tables_number      14
_space_group_name_Hall           '-P 2ybc'
loop_
_symmetry_equiv_pos_site_id
_symmetry_equiv_pos_as_xyz
1 x,y,z
2 -x,1/2+y,1/2-z
3 -x,-y,-z
4 x,1/2-y,1/2+z
_cell_length_a                   10.6007(3)
_cell_length_b                   12.7499(4)
_cell_length_c                   6.5671(2)
_cell_angle_alpha                90
_cell_angle_beta                 95.0120(10)
_cell_angle_gamma                90
_cell_volume                     884.201
loop_
_atom_site_label
_atom_site_type_symbol
_atom_site_fract_x
_atom_site_fract_y
_atom_site_fract_z
Er1 Er 0.572988(13) 0.127720(12) 0.40016(2)
O1 O 0.3639(2) 0.1143(2) 0.2768(4)
O2 O -0.2613(2) 0.25877(19) -0.0337(4)
C1 C 0.2749(3) 0.0507(3) 0.3007(5)
O3 O 0.2871(2) -0.0381(2) 0.3841(4)
O4 O 0.5104(2) 0.21309(19) 0.7163(4)
O5 O -0.3292(2) 0.11430(19) 0.1145(4)
C2 C 0.4583(3) 0.1320(3) 0.7808(6)
O6 O 0.4526(2) 0.04914(19) 0.6768(4)
C3 C -0.1072(4) 0.1406(3) 0.1085(6)
C4 C -0.0071(4) 0.2059(3) 0.0654(6)
C5 C 0.1168(4) 0.1776(3) 0.1247(6)
C6 C 0.1425(3) 0.0829(3) 0.2286(6)
C7 C 0.0427(3) 0.0162(3) 0.2664(6)
C8 C -0.2419(3) 0.1739(3) 0.0566(5)
C9 C -0.0821(4) 0.0454(3) 0.2096(6)
H1 H -0.019(3) 0.270(3) -0.010(6)
H2 H 0.418(4) 0.139(3) 0.898(7)
H3 H 0.192(4) 0.225(4) 0.097(6)
H4 H 0.060(4) -0.062(4) 0.328(7)
H5 H -0.163(5) 0.000(4) 0.252(8)
Er1C Er -0.427012(13) 0.372280(12) -0.09984(2)
Er1B Er 0.427012(13) -0.127720(12) 0.59984(2)
Er1C_2 Er 0.572988(13) 0.372280(12) 0.90016(2)
Er1_2 Er -0.427012(13) 0.127720(12) 0.40016(2)
O2C O 0.7387(2) 0.24123(19) 0.4663(4)
O3B O 0.7129(2) 0.0381(2) 0.6159(4)
O4C O 0.5104(2) 0.28691(19) 0.2163(4)
O5_2 O 0.6708(2) 0.11430(19) 0.1145(4)
O6B O 0.5474(2) -0.04914(19) 0.3232(4)
loop_
_geom_bond_atom_site_label_1
_geom_bond_atom_site_label_2
_geom_bond_site_symmetry_1
_geom_bond_site_symmetry_2
Er1 O1 1_555 1_555
O1 C1 1_555 1_555
O2 C8 1_555 1_555
C1 O3 1_555 1_555
O3 Er1B 1_555 1_555
O4 Er1 1_555 1_555
O5 C8 1_555 1_555
C2 O4 1_555 1_555
O6 Er1 1_555 1_555
C3 C4 1_555 1_555
C4 C5 1_555 1_555
C5 C6 1_555 1_555
C6 C1 1_555 1_555
C7 C6 1_555 1_555
C8 C3 1_555 1_555
C9 C3 1_555 1_555
H1 C4 1_555 1_555
H2 C2 1_555 1_555
H3 C5 1_555 1_555
H4 C7 1_555 1_555
H5 C9 1_555 1_555
Er1C O2 1_555 1_555
Er1B O6 1_555 1_555
Er1C_2 O4 1_555 1_555
Er1_2 O5 1_555 1_555
O2C Er1 1_555 1_555
O3B Er1 1_555 1_555
O4C Er1 1_555 1_555
O5_2 Er1 1_555 1_555
O6B Er1 1_555 1_555
C2 O6 1_555 1_555
C7 C9 1_555 1_555
Er1B O6B 1_555 1_555

#END
