
#######################################################################
#
#                 Cambridge Crystallographic Data Centre
#                                CCDC 
#
#######################################################################
#
# If this CIF has been generated from an entry in the Cambridge 
# Structural Database, then it will include bibliographic, chemical, 
# crystal, experimental, refinement or atomic coordinate data resulting 
# from the CCDC's data processing and validation procedures.
#
#######################################################################

data_CEJYUN
_symmetry_cell_setting           hexagonal
_symmetry_space_group_name_H-M   'P 65'
_symmetry_Int_Tables_number      170
_space_group_name_Hall           'P 65'
loop_
_symmetry_equiv_pos_site_id
_symmetry_equiv_pos_as_xyz
1 x,y,z
2 -y,x-y,2/3+z
3 -x+y,-x,1/3+z
4 -x,-y,1/2+z
5 y,-x+y,1/6+z
6 x-y,x,5/6+z
_cell_length_a                   13.5091(7)
_cell_length_b                   13.5091(7)
_cell_length_c                   36.8157(19)
_cell_angle_alpha                90
_cell_angle_beta                 90
_cell_angle_gamma                120
_cell_volume                     5818.57
loop_
_atom_site_label
_atom_site_type_symbol
_atom_site_fract_x
_atom_site_fract_y
_atom_site_fract_z
C1 C 0.98882(19) 0.69608(19) 0.10712(6)
H1 H 1.0365 0.7750 0.1067
C2 C 0.97057(18) 0.64052(18) 0.13971(6)
H2 H 1.0050 0.6814 0.1608
C3 C 0.90079(17) 0.52353(17) 0.14103(5)
C4 C 0.85420(18) 0.46728(18) 0.10849(6)
H3 H 0.8086 0.3881 0.1080
C5 C 0.87608(18) 0.52948(17) 0.07710(6)
H4 H 0.8435 0.4906 0.0556
C6 C 0.87855(17) 0.46129(17) 0.17616(6)
C7 C 0.86908(18) 0.51102(18) 0.20827(6)
H5 H 0.8780 0.5839 0.2081
C8 C 0.84644(18) 0.45077(18) 0.24010(6)
C9 C 0.83599(17) 0.34467(18) 0.24188(5)
H6 H 0.8246 0.3080 0.2642
C10 C 0.84255(17) 0.29199(17) 0.21020(5)
C11 C 0.86285(17) 0.35090(16) 0.17742(5)
H7 H 0.8660 0.3161 0.1560
C12 C 0.81969(17) 0.17278(18) 0.21011(5)
C13 C 0.85772(18) 0.12733(19) 0.23686(6)
H8 H 0.9011 0.1725 0.2562
C14 C 0.83082(19) 0.01530(18) 0.23457(5)
H9 H 0.8568 -0.0138 0.2528
C15 C 0.73206(18) -0.01072(18) 0.18204(6)
H10 H 0.6886 -0.0577 0.1630
C16 C 0.75502(18) 0.10092(18) 0.18243(5)
H11 H 0.7270 0.1275 0.1641
C17 C 0.71395(19) 0.44933(18) 0.28067(6)
C18 C 0.6872(2) 0.43588(18) 0.31731(6)
H12 H 0.7449 0.4592 0.3346
C19 C 0.5736(2) 0.38727(18) 0.32824(6)
C20 C 0.4891(2) 0.35242(19) 0.30197(6)
H13 H 0.4130 0.3185 0.3092
C21 C 0.5154(2) 0.36701(18) 0.26501(6)
C22 C 0.6288(2) 0.41653(18) 0.25475(6)
H14 H 0.6480 0.4279 0.2303
C23 C 0.4235(2) 0.32880(19) 0.23725(6)
C24 C 0.3133(2) 0.2405(2) 0.24383(7)
H15 H 0.2944 0.2048 0.2664
C25 C 0.2314(3) 0.2057(2) 0.21672(9)
H16 H 0.1581 0.1469 0.2222
C26 C 0.3564(2) 0.3348(2) 0.17718(7)
H17 H 0.3728 0.3682 0.1543
C27 C 0.4446(2) 0.3767(2) 0.20261(7)
H18 H 0.5169 0.4361 0.1965
C28 C 0.5445(2) 0.37209(19) 0.36744(6)
C29 C 0.6177(3) 0.4468(2) 0.39304(6)
H19 H 0.6872 0.5088 0.3859
C30 C 0.5879(3) 0.4295(2) 0.42958(7)
H20 H 0.6384 0.4815 0.4464
C31 C 0.4201(2) 0.2710(2) 0.41668(7)
H21 H 0.3512 0.2096 0.4245
C32 C 0.4423(2) 0.2819(2) 0.37987(6)
H22 H 0.3894 0.2293 0.3636
C33 C 1.62278(19) 1.65718(18) 0.14857(6)
C34 C 1.56355(18) 1.59054(17) 0.11545(6)
C35 C 1.46151(19) 1.58017(18) 0.10389(6)
H23 H 1.4265 1.6120 0.1176
C36 C 1.4115(2) 1.52300(19) 0.07227(6)
H24 H 1.3421 1.5148 0.0647
C37 C 1.4643(2) 1.47823(18) 0.05193(6)
C38 C 1.5662(2) 1.48835(19) 0.06244(7)
H25 H 1.6016 1.4583 0.0482
C39 C 1.6154(2) 1.54382(19) 0.09453(6)
H26 H 1.6838 1.5500 0.1022
C40 C 1.33347(18) 1.30921(17) 0.02198(6)
C41 C 1.31325(19) 1.24668(18) 0.05362(6)
H27 H 1.3530 1.2816 0.0748
C42 C 1.23295(18) 1.13133(18) 0.05323(6)
H28 H 1.2196 1.0887 0.0743
C43 C 1.17231(17) 1.07822(17) 0.02224(6)
C44 C 1.19279(17) 1.14316(17) -0.00903(5)
H29 H 1.1513 1.1089 -0.0300
C45 C 1.27404(19) 1.25801(18) -0.00937(6)
H30 H 1.2885 1.3004 -0.0306
C46 C 1.08971(17) 0.95444(17) 0.02239(6)
Co1 Co 0.96116(2) 0.74435(2) 0.031120(7)
N1 N 0.94186(14) 0.64307(14) 0.07586(4)
N2 N 0.4903(2) 0.3419(2) 0.44159(6)
N3 N 0.24998(19) 0.25006(19) 0.18342(7)
N4 N 0.76885(14) -0.05458(14) 0.20741(4)
O1 O 0.82809(13) 0.49709(12) 0.27168(4)
O2 O 1.41471(14) 1.42327(12) 0.01922(4)
O3 O 1.60100(14) 1.73178(13) 0.16047(4)
O4 O 1.69691(13) 1.64121(14) 0.16379(4)
O5 O 1.02525(12) 0.90717(12) -0.00430(4)
O6 O 1.08651(12) 0.89683(11) 0.05033(4)
Co1D Co 0.74435(2) -0.21681(3) 0.197787(7)
Co1D_2 Co 1.74435(2) 1.78319(3) 0.197787(7)
N4E N 0.82343(20) 0.76885(14) 0.04074(4)
O3E O 0.86922(19) 0.60100(14) -0.00620(4)
O4E O 1.05570(19) 0.69691(13) -0.00288(4)
O7 O 0.1352(2) 0.1044(2) 0.30931(7)
H31 H 0.0963 0.1224 0.3231
H32 H 0.1313 0.0432 0.3170
loop_
_geom_bond_atom_site_label_1
_geom_bond_atom_site_label_2
_geom_bond_site_symmetry_1
_geom_bond_site_symmetry_2
C1 H1 1_555 1_555
C2 C1 1_555 1_555
H2 C2 1_555 1_555
C3 C2 1_555 1_555
C4 C3 1_555 1_555
H3 C4 1_555 1_555
C5 C4 1_555 1_555
H4 C5 1_555 1_555
C6 C3 1_555 1_555
C7 C6 1_555 1_555
H5 C7 1_555 1_555
C8 C7 1_555 1_555
C9 C8 1_555 1_555
H6 C9 1_555 1_555
C10 C9 1_555 1_555
C11 C6 1_555 1_555
H7 C11 1_555 1_555
C12 C10 1_555 1_555
C13 C12 1_555 1_555
H8 C13 1_555 1_555
C14 C13 1_555 1_555
H9 C14 1_555 1_555
C15 H10 1_555 1_555
C16 C12 1_555 1_555
H11 C16 1_555 1_555
C17 C18 1_555 1_555
C18 H12 1_555 1_555
C19 C18 1_555 1_555
C20 C19 1_555 1_555
H13 C20 1_555 1_555
C21 C20 1_555 1_555
C22 C17 1_555 1_555
H14 C22 1_555 1_555
C23 C21 1_555 1_555
C24 C23 1_555 1_555
H15 C24 1_555 1_555
C25 C24 1_555 1_555
H16 C25 1_555 1_555
C26 H17 1_555 1_555
C27 C23 1_555 1_555
H18 C27 1_555 1_555
C28 C19 1_555 1_555
C29 C28 1_555 1_555
H19 C29 1_555 1_555
C30 C29 1_555 1_555
H20 C30 1_555 1_555
C31 H21 1_555 1_555
C32 C28 1_555 1_555
H22 C32 1_555 1_555
C33 C34 1_555 1_555
C34 C35 1_555 1_555
C35 H23 1_555 1_555
C36 C35 1_555 1_555
H24 C36 1_555 1_555
C37 C36 1_555 1_555
C38 C37 1_555 1_555
H25 C38 1_555 1_555
C39 C34 1_555 1_555
H26 C39 1_555 1_555
C40 C41 1_555 1_555
C41 H27 1_555 1_555
C42 C41 1_555 1_555
H28 C42 1_555 1_555
C43 C42 1_555 1_555
C44 C43 1_555 1_555
H29 C44 1_555 1_555
C45 C40 1_555 1_555
H30 C45 1_555 1_555
C46 C43 1_555 1_555
Co1 N1 1_555 1_555
N1 C1 1_555 1_555
N2 C30 1_555 1_555
N3 C25 1_555 1_555
N4 C14 1_555 1_555
O1 C8 1_555 1_555
O2 C37 1_555 1_555
O3 C33 1_555 1_555
O4 C33 1_555 1_555
O5 C46 1_555 1_555
O6 C46 1_555 1_555
O7 H31 1_555 1_555
H32 O7 1_555 1_555
Co1D N4 1_555 1_555
Co1D_2 O3 1_555 1_555
N4E Co1 1_555 1_555
O3E Co1 1_555 1_555
O4E Co1 1_555 1_555
C5 N1 1_555 1_555
C10 C11 1_555 1_555
C15 C16 1_555 1_555
C15 N4 1_555 1_555
C17 O1 1_555 1_555
C21 C22 1_555 1_555
C26 C27 1_555 1_555
C26 N3 1_555 1_555
C31 C32 1_555 1_555
C31 N2 1_555 1_555
C38 C39 1_555 1_555
C40 O2 1_555 1_555
C44 C45 1_555 1_555
Co1 O5 1_555 1_555
Co1 O6 1_555 1_555
O4 Co1D_2 1_555 1_555

#END
