
#######################################################################
#
#                 Cambridge Crystallographic Data Centre
#                                CCDC 
#
#######################################################################
#
# If this CIF has been generated from an entry in the Cambridge 
# Structural Database, then it will include bibliographic, chemical, 
# crystal, experimental, refinement or atomic coordinate data resulting 
# from the CCDC's data processing and validation procedures.
#
#######################################################################

data_CEJZOH01
_symmetry_cell_setting           triclinic
_symmetry_space_group_name_H-M   'P -1'
_symmetry_Int_Tables_number      2
_space_group_name_Hall           '-P 1'
loop_
_symmetry_equiv_pos_site_id
_symmetry_equiv_pos_as_xyz
1 x,y,z
2 -x,-y,-z
_cell_length_a                   11.281(3)
_cell_length_b                   11.598(4)
_cell_length_c                   13.742(4)
_cell_angle_alpha                93.574(6)
_cell_angle_beta                 113.391(6)
_cell_angle_gamma                103.059(5)
_cell_volume                     1584.11
loop_
_atom_site_label
_atom_site_type_symbol
_atom_site_fract_x
_atom_site_fract_y
_atom_site_fract_z
Cu1 Cu 0.5000 0.5000 1.0000
O1 O 0.4008(3) 0.5358(2) 1.0813(2)
C1 C 0.2348(5) 0.5868(5) 1.1204(5)
F1 F 0.1189(3) 0.6148(4) 1.0729(3)
F2 F 0.3181(3) 0.6837(3) 1.1820(3)
F3 F 0.2168(6) 0.5096(4) 1.1790(4)
C2 C 0.2814(4) 0.5387(4) 1.0384(4)
C3 C 0.1912(5) 0.5016(4) 0.9323(4)
H1 H 0.115(4) 0.507(3) 0.912(3)
C4 C 0.2267(4) 0.4534(3) 0.8565(3)
C5 C 0.1206(5) 0.4057(5) 0.7413(5)
F4 F -0.0006(2) 0.4176(2) 0.7275(2)
F5 F 0.1581(12) 0.4731(8) 0.6710(10)
F6 F 0.1190(13) 0.3014(12) 0.7058(9)
O2 O 0.3382(3) 0.4425(2) 0.8683(2)
Cu2 Cu 0.0000 0.0000 0.5000
O3 O -0.1168(2) 0.0690(2) 0.54649(18)
C6 C -0.2653(5) 0.1803(5) 0.5433(4)
F7 F -0.2742(13) 0.2927(9) 0.5391(14)
F8 F -0.2502(17) 0.1621(16) 0.6368(12)
F9 F -0.385(2) 0.108(3) 0.4747(14)
C7 C -0.1561(4) 0.1576(3) 0.5122(3)
C8 C -0.1139(5) 0.2308(4) 0.4512(4)
H2 H -0.144(4) 0.285(4) 0.438(3)
C9 C -0.0143(4) 0.2183(3) 0.4207(3)
C10 C 0.0290(6) 0.3108(5) 0.3565(4)
F10 F 0.0882(3) 0.4181(3) 0.4163(3)
F11 F -0.0758(4) 0.3193(3) 0.2732(2)
F12 F 0.1104(5) 0.2819(4) 0.3219(4)
O4 O 0.0502(2) 0.1421(2) 0.44013(18)
O5 O 0.5052(3) 0.2964(2) 1.0339(2)
N1 N 0.4137(3) 0.2136(3) 1.0440(2)
C11 C 0.4273(6) 0.1847(4) 1.1522(3)
C12 C 0.5291(10) 0.1073(7) 1.1821(5)
H3 H 0.5426 0.0849 1.2510
H4 H 0.6131 0.1530 1.1850
H5 H 0.4942 0.0362 1.1286
C13 C 0.4839(7) 0.2942(5) 1.2339(4)
H6 H 0.4194 0.3399 1.2195
H7 H 0.5640 0.3417 1.2316
H8 H 0.5051 0.2724 1.3039
C14 C 0.2840(7) 0.1112(5) 1.1224(4)
C15 C 0.2606(8) 0.0185(7) 1.1834(6)
H9 H 0.3129 -0.0362 1.1829
H10 H 0.1671 -0.0244 1.1515
H11 H 0.2864 0.0544 1.2561
C16 C 0.1909(8) 0.1937(8) 1.1227(6)
H12 H 0.1016 0.1446 1.1039
H13 H 0.1889 0.2464 1.0712
H14 H 0.2254 0.2405 1.1931
N2 N 0.2380(4) 0.0640(3) 1.0058(3)
O6 O 0.1346(4) -0.0229(3) 0.9516(2)
C17 C 0.3110(4) 0.1339(3) 0.9645(3)
C18 C 0.2858(3) 0.1247(3) 0.8532(3)
C19 C 0.1716(4) 0.0543(3) 0.7642(3)
H15 H 0.095(3) 0.008(3) 0.767(3)
N3 N 0.1851(3) 0.0672(2) 0.6732(2)
N4 N 0.3079(3) 0.1444(2) 0.7041(2)
C20 C 0.3595(5) 0.1812(3) 0.6254(3)
H16 H 0.293(4) 0.139(3) 0.558(3)
H17 H 0.440(4) 0.161(3) 0.642(3)
C21 C 0.3759(5) 0.3125(3) 0.6179(4)
H18 H 0.426(4) 0.358(4) 0.685(3)
H19 H 0.290(4) 0.329(3) 0.599(3)
C22 C 0.4388(5) 0.3492(4) 0.5411(4)
H20 H 0.508(4) 0.325(4) 0.556(3)
H21 H 0.373(4) 0.305(4) 0.463(3)
C23 C 0.4678(5) 0.4809(4) 0.5376(4)
H22 H 0.534(4) 0.526(4) 0.610(4)
H23 H 0.395(4) 0.511(4) 0.532(3)
C24 C 0.3693(4) 0.1801(3) 0.8100(3)
H24 H 0.443(3) 0.227(3) 0.837(3)
Cu1_2 Cu 0.5000 0.5000 0.0000
O1A O 0.5992(3) 0.4642(2) 0.9187(2)
C1A C 0.7652(5) 0.4132(5) 0.8796(5)
F1A F 0.8811(3) 0.3852(4) 0.9271(3)
F2A F 0.6819(3) 0.3163(3) 0.8180(3)
F3A F 0.7832(6) 0.4904(4) 0.8210(4)
C2A C 0.7186(4) 0.4613(4) 0.9616(4)
C3A C 0.8088(5) 0.4984(4) 1.0677(4)
H1A H 0.885(4) 0.493(3) 1.088(3)
C4A C 0.7733(4) 0.5466(3) 1.1435(3)
C5A C 0.8794(5) 0.5943(5) 1.2587(5)
F4A F 1.0006(2) 0.5824(2) 1.2725(2)
F5A F 0.8419(12) 0.5269(8) 1.3290(10)
F6A F 0.8810(13) 0.6986(12) 1.2942(9)
O2A O 0.6618(3) 0.5575(2) 1.1317(2)
Cu2_2 Cu 1.0000 1.0000 0.5000
O3A O 0.1168(2) -0.0690(2) 0.45351(18)
C6A C 0.2653(5) -0.1803(5) 0.4567(4)
F7A F 0.2742(13) -0.2927(9) 0.4609(14)
F8A F 0.2502(17) -0.1621(16) 0.3632(12)
F9A F 0.385(2) -0.108(3) 0.5253(14)
C7A C 0.1561(4) -0.1576(3) 0.4878(3)
C8A C 0.1139(5) -0.2308(4) 0.5488(4)
H2A H 0.144(4) -0.285(4) 0.562(3)
C9A C 0.0143(4) -0.2183(3) 0.5793(3)
C10A C -0.0290(6) -0.3108(5) 0.6435(4)
F10A F -0.0882(3) -0.4181(3) 0.5837(3)
F11A F 0.0758(4) -0.3193(3) 0.7268(2)
F12A F -0.1104(5) -0.2819(4) 0.6781(4)
O4A O -0.0502(2) -0.1421(2) 0.55987(18)
O5A O 0.4948(3) 0.7036(2) -0.0339(2)
O5A_2 O 0.4948(3) 0.7036(2) 0.9661(2)
N1A N 0.5863(3) 0.7864(3) -0.0440(2)
C11A C 0.5727(6) 0.8153(4) -0.1522(3)
C12A C 0.4709(10) 0.8927(7) -0.1821(5)
H3A H 0.4574 0.9151 -0.2510
H4A H 0.3869 0.8470 -0.1850
H5A H 0.5058 0.9638 -0.1286
C13A C 0.5161(7) 0.7058(5) -0.2339(4)
H6A H 0.5806 0.6601 -0.2195
H7A H 0.4360 0.6583 -0.2316
H8A H 0.4949 0.7276 -0.3039
C14A C 0.7160(7) 0.8888(5) -0.1224(4)
C15A C 0.7394(8) 0.9815(7) -0.1834(6)
H9A H 0.6871 1.0362 -0.1829
H10A H 0.8329 1.0244 -0.1515
H11A H 0.7136 0.9456 -0.2561
C16A C 0.8091(8) 0.8063(8) -0.1227(6)
H12A H 0.8984 0.8554 -0.1039
H13A H 0.8111 0.7536 -0.0712
H14A H 0.7746 0.7595 -0.1931
N2A N 0.7620(4) 0.9360(3) -0.0058(3)
O6A O 0.8654(4) 1.0229(3) 0.0484(2)
C17A C 0.6890(4) 0.8661(3) 0.0355(3)
C18A C 0.7142(3) 0.8753(3) 0.1468(3)
C19A C 0.8284(4) 0.9457(3) 0.2358(3)
H15A H 0.905(3) 0.992(3) 0.233(3)
N3A N 0.8149(3) 0.9328(2) 0.3268(2)
N3A_2 N -0.1851(3) -0.0672(2) 0.3268(2)
N4A N 0.6921(3) 0.8556(2) 0.2959(2)
C20A C 0.6405(5) 0.8188(3) 0.3746(3)
H16A H 0.707(4) 0.861(3) 0.442(3)
H17A H 0.560(4) 0.839(3) 0.358(3)
C21A C 0.6241(5) 0.6875(3) 0.3821(4)
H18A H 0.574(4) 0.642(4) 0.315(3)
H19A H 0.710(4) 0.671(3) 0.401(3)
C22A C 0.5612(5) 0.6508(4) 0.4589(4)
H20A H 0.492(4) 0.675(4) 0.444(3)
H21A H 0.627(4) 0.695(4) 0.537(3)
C23A C 0.5322(5) 0.5191(4) 0.4624(4)
H22A H 0.466(4) 0.474(4) 0.390(4)
H23A H 0.605(4) 0.489(4) 0.468(3)
C24A C 0.6307(4) 0.8199(3) 0.1900(3)
H24A H 0.557(3) 0.773(3) 0.163(3)
O7 O 0.3182(18) -0.1801(16) 1.0063(14)
F13? F 0.1488(17) 0.4504(17) 0.6739(13)
F14? F 0.0915(17) 0.2842(15) 0.7264(13)
F15? F -0.302(2) 0.2774(17) 0.5106(18)
F16? F -0.223(2) 0.1955(18) 0.6499(16)
F17? F -0.370(2) 0.091(3) 0.5062(18)
loop_
_geom_bond_atom_site_label_1
_geom_bond_atom_site_label_2
_geom_bond_site_symmetry_1
_geom_bond_site_symmetry_2
Cu1 O1 1_555 1_555
O1 C2 1_555 1_555
C1 F1 1_555 1_555
F2 C1 1_555 1_555
F3 C1 1_555 1_555
C2 C1 1_555 1_555
C3 C2 1_555 1_555
H1 C3 1_555 1_555
C4 C3 1_555 1_555
C5 C4 1_555 1_555
F4 C5 1_555 1_555
F5 C5 1_555 1_555
F6 C5 1_555 1_555
O2 Cu1 1_555 1_555
Cu2 O3 1_555 1_555
O3 C7 1_555 1_555
C6 F7 1_555 1_555
F8 C6 1_555 1_555
F9 C6 1_555 1_555
C7 C6 1_555 1_555
C8 C7 1_555 1_555
H2 C8 1_555 1_555
C9 C8 1_555 1_555
C10 C9 1_555 1_555
F10 C10 1_555 1_555
F11 C10 1_555 1_555
F12 C10 1_555 1_555
O4 Cu2 1_555 1_555
O5 Cu1 1_555 1_555
N1 O5 1_555 1_555
C11 N1 1_555 1_555
C12 C11 1_555 1_555
H3 C12 1_555 1_555
H4 C12 1_555 1_555
H5 C12 1_555 1_555
C13 C11 1_555 1_555
H6 C13 1_555 1_555
H7 C13 1_555 1_555
H8 C13 1_555 1_555
C14 C11 1_555 1_555
C15 C14 1_555 1_555
H9 C15 1_555 1_555
H10 C15 1_555 1_555
H11 C15 1_555 1_555
C16 C14 1_555 1_555
H12 C16 1_555 1_555
H13 C16 1_555 1_555
H14 C16 1_555 1_555
N2 C14 1_555 1_555
O6 N2 1_555 1_555
C17 N1 1_555 1_555
C18 C17 1_555 1_555
C19 C18 1_555 1_555
H15 C19 1_555 1_555
N3 Cu2 1_555 1_555
N4 N3 1_555 1_555
C20 N4 1_555 1_555
H16 C20 1_555 1_555
H17 C20 1_555 1_555
C21 C20 1_555 1_555
H18 C21 1_555 1_555
H19 C21 1_555 1_555
C22 C21 1_555 1_555
H20 C22 1_555 1_555
H21 C22 1_555 1_555
C23 C22 1_555 1_555
H22 C23 1_555 1_555
H23 C23 1_555 1_555
C24 C18 1_555 1_555
H24 C24 1_555 1_555
Cu1_2 O5A 1_555 1_555
O1A Cu1 1_555 1_555
C1A F1A 1_555 1_555
F2A C1A 1_555 1_555
F3A C1A 1_555 1_555
C2A O1A 1_555 1_555
C3A C2A 1_555 1_555
H1A C3A 1_555 1_555
C4A C3A 1_555 1_555
C5A C4A 1_555 1_555
F4A C5A 1_555 1_555
F5A C5A 1_555 1_555
F6A C5A 1_555 1_555
O2A Cu1 1_555 1_555
Cu2_2 N3A 1_555 1_555
O3A Cu2 1_555 1_555
C6A F7A 1_555 1_555
F8A C6A 1_555 1_555
F9A C6A 1_555 1_555
C7A O3A 1_555 1_555
C8A C7A 1_555 1_555
H2A C8A 1_555 1_555
C9A C8A 1_555 1_555
C10A C9A 1_555 1_555
F10A C10A 1_555 1_555
F11A C10A 1_555 1_555
F12A C10A 1_555 1_555
O4A Cu2 1_555 1_555
O5A N1A 1_555 1_555
O5A_2 Cu1 1_555 1_555
N1A C11A 1_555 1_555
C11A C12A 1_555 1_555
C12A H3A 1_555 1_555
H4A C12A 1_555 1_555
H5A C12A 1_555 1_555
C13A C11A 1_555 1_555
H6A C13A 1_555 1_555
H7A C13A 1_555 1_555
H8A C13A 1_555 1_555
C14A C11A 1_555 1_555
C15A C14A 1_555 1_555
H9A C15A 1_555 1_555
H10A C15A 1_555 1_555
H11A C15A 1_555 1_555
C16A C14A 1_555 1_555
H12A C16A 1_555 1_555
H13A C16A 1_555 1_555
H14A C16A 1_555 1_555
N2A C14A 1_555 1_555
O6A N2A 1_555 1_555
C17A N1A 1_555 1_555
C18A C17A 1_555 1_555
C19A C18A 1_555 1_555
H15A C19A 1_555 1_555
N3A C19A 1_555 1_555
N3A_2 Cu2 1_555 1_555
N4A N3A 1_555 1_555
C20A N4A 1_555 1_555
H16A C20A 1_555 1_555
H17A C20A 1_555 1_555
C21A C20A 1_555 1_555
H18A C21A 1_555 1_555
H19A C21A 1_555 1_555
C22A C21A 1_555 1_555
H20A C22A 1_555 1_555
H21A C22A 1_555 1_555
C23A C23 1_555 1_555
H22A C23A 1_555 1_555
H23A C23A 1_555 1_555
C24A C18A 1_555 1_555
H24A C24A 1_555 1_555
C4 O2 1_555 1_555
C9 O4 1_555 1_555
N2 C17 1_555 1_555
C19 N3 1_555 1_555
N4 C24 1_555 1_555
C1A C2A 1_555 1_555
C4A O2A 1_555 1_555
C6A C7A 1_555 1_555
C9A O4A 1_555 1_555
N2A C17A 1_555 1_555
N4A C24A 1_555 1_555
C22A C23A 1_555 1_555

#END
