
#######################################################################
#
#                 Cambridge Crystallographic Data Centre
#                                CCDC 
#
#######################################################################
#
# If this CIF has been generated from an entry in the Cambridge 
# Structural Database, then it will include bibliographic, chemical, 
# crystal, experimental, refinement or atomic coordinate data resulting 
# from the CCDC's data processing and validation procedures.
#
#######################################################################

data_CEJZUO
_symmetry_cell_setting           triclinic
_symmetry_space_group_name_H-M   'P -1'
_symmetry_Int_Tables_number      2
_space_group_name_Hall           '-P 1'
loop_
_symmetry_equiv_pos_site_id
_symmetry_equiv_pos_as_xyz
1 x,y,z
2 -x,-y,-z
_cell_length_a                   11.2939(2)
_cell_length_b                   11.4812(2)
_cell_length_c                   13.0931(2)
_cell_angle_alpha                112.1212(9)
_cell_angle_beta                 95.5478(11)
_cell_angle_gamma                91.2584(11)
_cell_volume                     1562.27
loop_
_atom_site_label
_atom_site_type_symbol
_atom_site_fract_x
_atom_site_fract_y
_atom_site_fract_z
Fe1 Fe 0.74743(4) 1.24224(4) 1.00189(4)
O1 O 0.9231(2) 1.1997(2) 1.0014(2)
H1 H 0.9507 1.1454 0.9484
H2 H 0.9748 1.2301 1.0583
O2 O 0.5703(2) 1.2848(2) 1.0007(2)
H3 H 0.5208 1.2434 0.9458
H4 H 0.5414 1.3482 1.0454
N1 N 0.6970(3) 1.0451(3) 0.9707(2)
N2 N 0.5957(3) 0.9817(3) 0.8975(3)
N3 N 0.6898(3) 0.8510(3) 0.9574(2)
N4 N 0.7092(3) 0.7358(3) 0.9661(3)
N5 N 0.8032(3) 0.7435(3) 1.0267(2)
N6 N 0.8199(3) 0.6294(3) 1.0377(2)
N7 N 0.8012(3) 0.4402(3) 1.0351(2)
N8 N 0.9098(3) 0.4969(3) 1.0976(3)
N9 N 0.7614(3) 1.2919(3) 1.1828(2)
N10 N 0.7931(3) 1.2072(3) 1.2329(3)
N11 N 0.7975(3) 1.3957(3) 1.3600(2)
N12 N 0.8090(3) 1.5021(3) 1.4582(3)
N13 N 0.8497(3) 1.4752(3) 1.5371(3)
N14 N 0.8647(3) 1.5833(3) 1.6329(3)
N15 N 0.9221(3) 1.6967(3) 1.8057(3)
N16 N 0.8707(4) 1.7746(4) 1.7558(3)
N17 N 0.7388(3) 1.1964(3) 0.8208(2)
N18 N 0.7976(3) 1.2722(3) 0.7764(3)
N19 N 0.7097(3) 1.1073(3) 0.6410(2)
N20 N 0.6657(3) 1.0136(3) 0.5414(2)
N21 N 0.6967(3) 1.0351(3) 0.4613(2)
N22 N 0.6527(3) 0.9344(3) 0.3642(2)
N23 N 0.6000(3) 0.8312(3) 0.1874(3)
N24 N 0.5776(3) 0.7539(3) 0.2446(3)
C1 C 0.7514(3) 0.9654(3) 1.0059(3)
H5 H 0.8219 0.9841 1.0565
C2 C 0.5947(3) 0.8663(3) 0.8919(3)
H6 H 0.5360 0.8016 0.8484
C3 C 0.7487(3) 0.5201(3) 0.9999(3)
H7 H 0.6740 0.5052 0.9556
C4 C 0.9176(3) 0.6093(3) 1.0974(3)
H8 H 0.9824 0.6695 1.1338
C5 C 0.7647(3) 1.4038(3) 1.2608(3)
H9 H 0.7469 1.4790 1.2499
C6 C 0.8149(4) 1.2711(4) 1.3382(3)
H10 H 0.8393 1.2372 1.3922
C7 C 0.9164(4) 1.5833(4) 1.7307(3)
H11 H 0.9443 1.5115 1.7426
C8 C 0.8373(4) 1.7044(4) 1.6523(4)
H12 H 0.7998 1.7330 1.5987
C9 C 0.6875(4) 1.1000(3) 0.7384(3)
H13 H 0.6411 1.0338 0.7452
C10 C 0.7785(4) 1.2166(4) 0.6692(3)
H14 H 0.8079 1.2474 0.6179
C11 C 0.6456(4) 0.9382(4) 0.2612(3)
H15 H 0.6703 1.0088 0.2455
C12 C 0.6095(4) 0.8167(4) 0.3495(3)
H16 H 0.6036 0.7857 0.4068
Fe1_2 Fe 0.74743(4) 0.24224(4) 1.00189(4)
N7_2 N 0.8012(3) 1.4402(3) 1.0351(2)
B1 B 0.4827(5) 0.7289(4) 0.5756(4)
F1 F 0.5072(3) 0.8562(2) 0.6281(2)
F2 F 0.5787(3) 0.6716(3) 0.5232(2)
F3 F 0.3835(3) 0.7055(2) 0.4956(2)
F4 F 0.4571(2) 0.6792(3) 0.6522(2)
B2 B 0.9357(9) 0.7936(10) 0.4151(9)
F5 F 0.8371(6) 0.8154(6) 0.4742(5)
F6 F 1.0379(5) 0.8366(5) 0.4900(5)
F7 F 0.9422(7) 0.6652(6) 0.3577(6)
F8 F 0.9292(9) 0.8420(10) 0.3328(8)
O3 O 0.9562(13) 1.0472(13) 0.3637(11)
O4 O 0.4993(2) 0.4974(2) 0.1428(2)
H17 H 0.4685 0.4855 0.1948
H18 H 0.5259 0.5733 0.1618
O5 O 0.6215(3) 0.5190(3) 0.6923(2)
H19 H 0.6163 0.4461 0.6407
H20 H 0.5758 0.5673 0.6707
O6 O 0.9986(3) 2.0213(3) 1.8268(3)
H21 H 0.9599 1.9470 1.8057
H22 H 1.0194 2.0603 1.7835
B3? B 0.9004(13) 0.7696(14) 0.3799(12)
F9? F 0.8585(9) 0.8426(9) 0.4786(8)
F10? F 0.9880(9) 0.6942(9) 0.3979(9)
F11? F 0.8119(8) 0.6871(9) 0.3052(8)
F12? F 0.9534(14) 0.8526(14) 0.3412(13)
loop_
_geom_bond_atom_site_label_1
_geom_bond_atom_site_label_2
_geom_bond_site_symmetry_1
_geom_bond_site_symmetry_2
Fe1 O1 1_555 1_555
O1 H1 1_555 1_555
H2 O1 1_555 1_555
O2 Fe1 1_555 1_555
H3 O2 1_555 1_555
H4 O2 1_555 1_555
N1 Fe1 1_555 1_555
N2 N1 1_555 1_555
N3 N4 1_555 1_555
N4 N5 1_555 1_555
N5 N6 1_555 1_555
N6 C3 1_555 1_555
N7 N8 1_555 1_555
N8 C4 1_555 1_555
N9 Fe1 1_555 1_555
N10 N9 1_555 1_555
N11 N12 1_555 1_555
N12 N13 1_555 1_555
N13 N14 1_555 1_555
N14 C7 1_555 1_555
N15 N16 1_555 1_555
N16 C8 1_555 1_555
N17 Fe1 1_555 1_555
N18 N17 1_555 1_555
N19 N20 1_555 1_555
N20 N21 1_555 1_555
N21 N22 1_555 1_555
N22 C11 1_555 1_555
N23 N24 1_555 1_555
N24 C12 1_555 1_555
C1 N1 1_555 1_555
H5 C1 1_555 1_555
C2 N2 1_555 1_555
H6 C2 1_555 1_555
C3 N7 1_555 1_555
H7 C3 1_555 1_555
C4 N6 1_555 1_555
H8 C4 1_555 1_555
C5 N9 1_555 1_555
H9 C5 1_555 1_555
C6 N10 1_555 1_555
H10 C6 1_555 1_555
C7 N15 1_555 1_555
H11 C7 1_555 1_555
C8 N14 1_555 1_555
H12 C8 1_555 1_555
C9 N17 1_555 1_555
H13 C9 1_555 1_555
C10 N18 1_555 1_555
H14 C10 1_555 1_555
C11 N23 1_555 1_555
H15 C11 1_555 1_555
C12 N22 1_555 1_555
H16 C12 1_555 1_555
B1 F1 1_555 1_555
F2 B1 1_555 1_555
F3 B1 1_555 1_555
F4 B1 1_555 1_555
B2 F5 1_555 1_555
F6 B2 1_555 1_555
F7 B2 1_555 1_555
F8 B2 1_555 1_555
O4 H17 1_555 1_555
H18 O4 1_555 1_555
O5 H19 1_555 1_555
H20 O5 1_555 1_555
O6 H21 1_555 1_555
H22 O6 1_555 1_555
Fe1_2 N7 1_555 1_555
N7_2 Fe1 1_555 1_555
N3 C1 1_555 1_555
N3 C2 1_555 1_555
N11 C5 1_555 1_555
N11 C6 1_555 1_555
N19 C9 1_555 1_555
N19 C10 1_555 1_555

#END
