
#######################################################################
#
#                 Cambridge Crystallographic Data Centre
#                                CCDC 
#
#######################################################################
#
# If this CIF has been generated from an entry in the Cambridge 
# Structural Database, then it will include bibliographic, chemical, 
# crystal, experimental, refinement or atomic coordinate data resulting 
# from the CCDC's data processing and validation procedures.
#
#######################################################################

data_CEKJUZ
_symmetry_cell_setting           orthorhombic
_symmetry_space_group_name_H-M   'P b c a'
_symmetry_Int_Tables_number      61
_space_group_name_Hall           '-P 2ac 2ab'
loop_
_symmetry_equiv_pos_site_id
_symmetry_equiv_pos_as_xyz
1 x,y,z
2 1/2-x,-y,1/2+z
3 -x,1/2+y,1/2-z
4 1/2+x,1/2-y,-z
5 -x,-y,-z
6 1/2+x,y,1/2-z
7 x,1/2-y,1/2+z
8 1/2-x,1/2+y,z
_cell_length_a                   16.1492(14)
_cell_length_b                   15.1711(13)
_cell_length_c                   26.937(2)
_cell_angle_alpha                90
_cell_angle_beta                 90
_cell_angle_gamma                90
_cell_volume                     6599.6
loop_
_atom_site_label
_atom_site_type_symbol
_atom_site_fract_x
_atom_site_fract_y
_atom_site_fract_z
Zn1 Zn -0.40042(3) 1.03315(4) -0.11436(2)
Zn2 Zn -0.09835(3) 0.49703(4) 0.10632(2)
Zn3 Zn 0.0000 0.5000 0.0000
N1 N 0.2912(2) 1.0645(2) -0.11480(14)
N2 N -0.2820(3) 1.0791(3) -0.13147(16)
O1 O -0.5731(2) 0.9783(2) -0.17731(12)
O2 O -0.4371(2) 0.9558(3) -0.17029(13)
O3 O -0.5670(3) 0.6529(3) -0.3523(2)
O4 O -0.4607(3) 0.6981(3) -0.39164(19)
O5 O -0.1368(2) 0.6104(2) 0.08052(13)
O6 O -0.0449(2) 0.6277(2) 0.01964(13)
O7 O -0.3772(2) 0.9546(2) -0.00030(12)
O8 O -0.3432(2) 0.9285(2) -0.07946(13)
O9 O -0.00024(19) 0.4566(2) 0.07137(12)
H1 H -0.009(3) 0.405(3) 0.0734(19)
C1 C -0.5050(3) 0.9012(3) -0.24180(17)
C2 C -0.5746(3) 0.8550(3) -0.25342(19)
H2 H -0.6226 0.8636 -0.2350
C3 C -0.5751(3) 0.7946(3) -0.2927(2)
H3 H -0.6232 0.7631 -0.2993
C4 C -0.5066(3) 0.7808(3) -0.32158(18)
C5 C -0.4336(3) 0.8335(3) -0.31316(18)
C6 C -0.3619(3) 0.8270(3) -0.34303(19)
H4 H -0.3622 0.7892 -0.3702
C7 C -0.2930(3) 0.8741(3) -0.3331(2)
H5 H -0.2459 0.8667 -0.3525
C8 C -0.2921(3) 0.9340(3) -0.29373(19)
H6 H -0.2447 0.9669 -0.2873
C9 C -0.3602(3) 0.9443(3) -0.26477(18)
H7 H -0.3592 0.9857 -0.2393
C10 C -0.4326(3) 0.8937(3) -0.27245(17)
C11 C -0.5042(3) 0.9504(3) -0.19302(18)
C12 C -0.5108(3) 0.7041(4) -0.3578(2)
C13 C -0.1628(3) 0.7217(3) 0.02168(18)
C14 C -0.2460(3) 0.7182(3) 0.03137(19)
H8 H -0.2664 0.6721 0.0506
C15 C -0.3014(3) 0.7817(3) 0.01330(19)
H9 H -0.3574 0.7777 0.0212
C16 C -0.2740(3) 0.8492(3) -0.01570(17)
C17 C -0.1878(3) 0.8571(3) -0.02599(18)
C18 C -0.1563(3) 0.9309(4) -0.0520(2)
H10 H -0.1927 0.9728 -0.0647
C19 C -0.0739(4) 0.9413(4) -0.0587(3)
H11 H -0.0543 0.9899 -0.0761
C20 C -0.0179(3) 0.8801(4) -0.0398(3)
H12 H 0.0387 0.8883 -0.0444
C21 C -0.0458(3) 0.8084(4) -0.0147(2)
H13 H -0.0078 0.7680 -0.0024
C22 C -0.1312(3) 0.7936(3) -0.00675(18)
C23 C -0.1104(3) 0.6487(3) 0.04165(19)
C24 C -0.3367(3) 0.9156(3) -0.0333(2)
C25 C 0.2265(3) 1.0422(3) -0.08661(19)
H14 H 0.2346 1.0024 -0.0608
C26 C 0.1489(3) 1.0756(4) -0.0941(2)
H15 H 0.1055 1.0577 -0.0738
C27 C 0.1343(3) 1.1354(4) -0.1315(2)
C28 C 0.2015(4) 1.1581(4) -0.1603(2)
H16 H 0.1947 1.1984 -0.1860
C29 C 0.2779(3) 1.1226(3) -0.1518(2)
H17 H 0.3219 1.1389 -0.1721
C30 C 0.0492(4) 1.1742(4) -0.1426(3)
H18 H 0.0113 1.1588 -0.1161
H19 H 0.0533 1.2379 -0.1439
C31 C 0.0162(3) 1.1409(5) -0.1904(3)
H20 H 0.0087 1.0776 -0.1882
H21 H 0.0563 1.1523 -0.2165
C32 C -0.0667(4) 1.1839(5) -0.2047(3)
H22 H -0.0634 1.2467 -0.1981
H23 H -0.0755 1.1764 -0.2400
C33 C -0.2354(3) 1.0309(4) -0.1616(2)
H24 H -0.2509 0.9728 -0.1674
C34 C -0.1656(3) 1.0623(5) -0.1845(2)
H25 H -0.1352 1.0256 -0.2053
C35 C -0.1406(4) 1.1465(5) -0.1771(3)
C36 C -0.1855(4) 1.1965(4) -0.1445(3)
H26 H -0.1690 1.2537 -0.1371
C37 C -0.2559(4) 1.1615(4) -0.1225(2)
H27 H -0.2860 1.1964 -0.1006
Zn1D Zn 0.40042(3) -0.03315(4) 0.11436(2)
Zn1B Zn -0.59958(3) 0.53315(4) -0.38564(2)
Zn1C Zn 0.09958(3) 0.46685(4) 0.11436(2)
Zn1G Zn -0.09958(3) 0.53315(4) -0.11436(2)
Zn1B_2 Zn -0.59958(3) 1.53315(4) -0.38564(2)
Zn1C_2 Zn -0.90042(3) 0.46685(4) 0.11436(2)
Zn2D Zn 0.09835(3) 0.50297(4) -0.10632(2)
Zn2C Zn 0.40165(3) 1.00297(4) -0.10632(2)
Zn2C_2 Zn -0.59835(3) 1.00297(4) -0.10632(2)
Zn2A Zn -0.40165(3) 1.50297(4) -0.39368(2)
Zn3C Zn -0.5000 1.0000 0.0000
Zn3C_2 Zn 0.5000 0.0000 0.0000
N1C N -0.2088(2) 0.4355(2) 0.11480(14)
N1G N 0.2088(2) 0.5645(2) -0.11480(14)
N2C N -0.7820(3) 0.4209(3) 0.13147(16)
N2D N 0.2820(3) -0.0791(3) 0.13147(16)
O1B O -0.4269(2) 1.4783(2) -0.32269(12)
O1C O -0.0731(2) 0.5217(2) 0.17731(12)
O1G O 0.0731(2) 0.4783(2) -0.17731(12)
O2B O -0.5629(2) 1.4558(3) -0.32971(13)
O2D O 0.4371(2) 0.0442(3) 0.17029(13)
O3B O -0.4330(3) 1.1529(3) -0.1477(2)
O3F O 0.4330(3) -0.1529(3) 0.1477(2)
O4B O -0.5393(3) 1.1981(3) -0.10836(19)
O5D O 0.1368(2) 0.3896(2) -0.08052(13)
O6D O 0.0449(2) 0.3723(2) -0.01964(13)
O7D O 0.3772(2) 0.0454(2) 0.00030(12)
O7C O 0.1228(2) 0.5454(2) 0.00030(12)
O7G O -0.1228(2) 0.4546(2) -0.00030(12)
O8D O 0.3432(2) 0.0715(2) 0.07946(13)
O9D O 0.00024(19) 0.5434(2) -0.07137(12)
O9C O -0.50024(19) 1.0434(2) -0.07137(12)
O9G O 0.50024(19) -0.0434(2) 0.07137(12)
H1D H 0.009(3) 0.595(3) -0.0734(19)
H1C H -0.509(3) 1.095(3) -0.0734(19)
H1G H 0.509(3) -0.095(3) 0.0734(19)
C1B C -0.4950(3) 1.4012(3) -0.25820(17)
C2B C -0.4254(3) 1.3550(3) -0.24658(19)
H2B H -0.3774 1.3636 -0.2650
C3B C -0.4249(3) 1.2946(3) -0.2073(2)
H3B H -0.3768 1.2631 -0.2007
C4B C -0.4934(3) 1.2808(3) -0.17842(18)
C5B C -0.5664(3) 1.3335(3) -0.18684(18)
C6B C -0.6381(3) 1.3270(3) -0.15697(19)
H4B H -0.6378 1.2892 -0.1298
C7B C -0.7070(3) 1.3741(3) -0.1669(2)
H5B H -0.7541 1.3667 -0.1475
C8B C -0.7079(3) 1.4340(3) -0.20627(19)
H6B H -0.7553 1.4669 -0.2127
C9B C -0.6398(3) 1.4443(3) -0.23523(18)
H7B H -0.6408 1.4857 -0.2607
C10B C -0.5674(3) 1.3937(3) -0.22755(17)
C11B C -0.4958(3) 1.4504(3) -0.30698(18)
C12B C -0.4892(3) 1.2041(4) -0.1422(2)
C13D C 0.1628(3) 0.2783(3) -0.02168(18)
C14D C 0.2460(3) 0.2818(3) -0.03137(19)
H8D H 0.2664 0.3279 -0.0506
C15D C 0.3014(3) 0.2183(3) -0.01330(19)
H9D H 0.3574 0.2223 -0.0212
C16D C 0.2740(3) 0.1508(3) 0.01570(17)
C17D C 0.1878(3) 0.1429(3) 0.02599(18)
C18D C 0.1563(3) 0.0691(4) 0.0520(2)
H10D H 0.1927 0.0272 0.0647
C19D C 0.0739(4) 0.0587(4) 0.0587(3)
H11D H 0.0543 0.0101 0.0761
C20D C 0.0179(3) 0.1199(4) 0.0398(3)
H12D H -0.0387 0.1117 0.0444
C21D C 0.0458(3) 0.1916(4) 0.0147(2)
H13D H 0.0078 0.2320 0.0024
C22D C 0.1312(3) 0.2064(3) 0.00675(18)
C23D C 0.1104(3) 0.3513(3) -0.04165(19)
C24D C 0.3367(3) 0.0844(3) 0.0333(2)
C25C C -0.2735(3) 0.4578(3) 0.08661(19)
H14C H -0.2654 0.4976 0.0608
C26C C -0.3511(3) 0.4244(4) 0.0941(2)
H15C H -0.3945 0.4423 0.0738
C27C C -0.3657(3) 0.3646(4) 0.1315(2)
C28C C -0.2985(4) 0.3419(4) 0.1603(2)
H16C H -0.3053 0.3016 0.1860
C29C C -0.2221(3) 0.3774(3) 0.1518(2)
H17C H -0.1781 0.3611 0.1721
C30C C -0.4508(4) 0.3258(4) 0.1426(3)
H18C H -0.4887 0.3412 0.1161
H19C H -0.4467 0.2621 0.1439
C31C C -0.4838(3) 0.3591(5) 0.1904(3)
H20C H -0.4913 0.4224 0.1882
H21C H -0.4437 0.3477 0.2165
C32C C -0.5667(4) 0.3161(5) 0.2047(3)
H22C H -0.5634 0.2533 0.1981
H23C H -0.5755 0.3236 0.2400
C33C C -0.7354(3) 0.4691(4) 0.1616(2)
H24C H -0.7509 0.5272 0.1674
C34C C -0.6656(3) 0.4377(5) 0.1845(2)
H25C H -0.6352 0.4744 0.2053
C35C C -0.6406(4) 0.3535(5) 0.1771(3)
C36C C -0.6855(4) 0.3035(4) 0.1445(3)
H26C H -0.6690 0.2463 0.1371
C37C C -0.7559(4) 0.3385(4) 0.1225(2)
H27C H -0.7860 0.3036 0.1006
loop_
_geom_bond_atom_site_label_1
_geom_bond_atom_site_label_2
_geom_bond_site_symmetry_1
_geom_bond_site_symmetry_2
Zn1 N2 1_555 1_555
Zn2 O5 1_555 1_555
Zn3 O6 1_555 1_555
N1 C25 1_555 1_555
N2 C33 1_555 1_555
O1 C11 1_555 1_555
O2 Zn1 1_555 1_555
O3 C12 1_555 1_555
O4 C12 1_555 1_555
O5 C23 1_555 1_555
O6 C23 1_555 1_555
O7 C24 1_555 1_555
O8 Zn1 1_555 1_555
O9 Zn2 1_555 1_555
H1 O9 1_555 1_555
C1 C2 1_555 1_555
C2 H2 1_555 1_555
C3 C2 1_555 1_555
H3 C3 1_555 1_555
C4 C3 1_555 1_555
C5 C4 1_555 1_555
C6 C5 1_555 1_555
H4 C6 1_555 1_555
C7 C6 1_555 1_555
H5 C7 1_555 1_555
C8 C7 1_555 1_555
H6 C8 1_555 1_555
C9 C8 1_555 1_555
H7 C9 1_555 1_555
C10 C1 1_555 1_555
C11 O2 1_555 1_555
C12 C4 1_555 1_555
C13 C14 1_555 1_555
C14 H8 1_555 1_555
C15 C14 1_555 1_555
H9 C15 1_555 1_555
C16 C15 1_555 1_555
C17 C16 1_555 1_555
C18 C17 1_555 1_555
H10 C18 1_555 1_555
C19 C18 1_555 1_555
H11 C19 1_555 1_555
C20 C19 1_555 1_555
H12 C20 1_555 1_555
C21 C20 1_555 1_555
H13 C21 1_555 1_555
C22 C13 1_555 1_555
C23 C13 1_555 1_555
C24 O8 1_555 1_555
C25 H14 1_555 1_555
C26 C25 1_555 1_555
H15 C26 1_555 1_555
C27 C26 1_555 1_555
C28 C27 1_555 1_555
H16 C28 1_555 1_555
C29 N1 1_555 1_555
H17 C29 1_555 1_555
C30 C27 1_555 1_555
H18 C30 1_555 1_555
H19 C30 1_555 1_555
C31 C30 1_555 1_555
H20 C31 1_555 1_555
H21 C31 1_555 1_555
C32 C31 1_555 1_555
H22 C32 1_555 1_555
H23 C32 1_555 1_555
C33 H24 1_555 1_555
C34 C33 1_555 1_555
H25 C34 1_555 1_555
C35 C32 1_555 1_555
C36 C35 1_555 1_555
H26 C36 1_555 1_555
C37 N2 1_555 1_555
H27 C37 1_555 1_555
Zn1D N2D 1_555 1_555
Zn1B O3 1_555 1_555
Zn1C O9 1_555 1_555
Zn1G O9D 1_555 1_555
Zn1B_2 O2B 1_555 1_555
Zn1C_2 N2C 1_555 1_555
Zn2D N1G 1_555 1_555
Zn2C N1 1_555 1_555
Zn2C_2 O1 1_555 1_555
Zn2A O1B 1_555 1_555
Zn3C O7 1_555 1_555
Zn3C_2 O7D 1_555 1_555
N1C Zn2 1_555 1_555
N2C C33C 1_555 1_555
O1B C11B 1_555 1_555
O1C Zn2 1_555 1_555
O1G Zn2D 1_555 1_555
O2B C11B 1_555 1_555
O2D Zn1D 1_555 1_555
O3B Zn1 1_555 1_555
O3F Zn1D 1_555 1_555
O4B C12B 1_555 1_555
O5D Zn2D 1_555 1_555
O6D Zn3 1_555 1_555
O7D C24D 1_555 1_555
O7C Zn3 1_555 1_555
O7G Zn3 1_555 1_555
O8D Zn1D 1_555 1_555
O9D Zn3 1_555 1_555
O9C Zn1 1_555 1_555
O9G Zn1D 1_555 1_555
H1D O9D 1_555 1_555
H1C O9C 1_555 1_555
H1G O9G 1_555 1_555
C1B C2B 1_555 1_555
C2B H2B 1_555 1_555
C3B C2B 1_555 1_555
H3B C3B 1_555 1_555
C4B C3B 1_555 1_555
C5B C4B 1_555 1_555
C6B C5B 1_555 1_555
H4B C6B 1_555 1_555
C7B C6B 1_555 1_555
H5B C7B 1_555 1_555
C8B C7B 1_555 1_555
H6B C8B 1_555 1_555
C9B C8B 1_555 1_555
H7B C9B 1_555 1_555
C10B C1B 1_555 1_555
C11B C1B 1_555 1_555
C12B O3B 1_555 1_555
C13D C14D 1_555 1_555
C14D H8D 1_555 1_555
C15D C14D 1_555 1_555
H9D C15D 1_555 1_555
C16D C15D 1_555 1_555
C17D C16D 1_555 1_555
C18D C17D 1_555 1_555
H10D C18D 1_555 1_555
C19D C18D 1_555 1_555
H11D C19D 1_555 1_555
C20D C19D 1_555 1_555
H12D C20D 1_555 1_555
C21D C20D 1_555 1_555
H13D C21D 1_555 1_555
C22D C13D 1_555 1_555
C23D O5D 1_555 1_555
C24D O8D 1_555 1_555
C25C N1C 1_555 1_555
H14C C25C 1_555 1_555
C26C C25C 1_555 1_555
H15C C26C 1_555 1_555
C27C C26C 1_555 1_555
C28C C27C 1_555 1_555
H16C C28C 1_555 1_555
C29C N1C 1_555 1_555
H17C C29C 1_555 1_555
C30C C27C 1_555 1_555
H18C C30C 1_555 1_555
H19C C30C 1_555 1_555
C31C C30C 1_555 1_555
H20C C31C 1_555 1_555
H21C C31C 1_555 1_555
C32C C31C 1_555 1_555
H22C C32C 1_555 1_555
H23C C32C 1_555 1_555
C33C H24C 1_555 1_555
C34C C33C 1_555 1_555
H25C C34C 1_555 1_555
C35C C32C 1_555 1_555
C36C C35C 1_555 1_555
H26C C36C 1_555 1_555
C37C N2C 1_555 1_555
H27C C37C 1_555 1_555
Zn3 O9 1_555 1_555
C1 C11 1_555 1_555
C5 C10 1_555 1_555
C9 C10 1_555 1_555
C16 C24 1_555 1_555
C17 C22 1_555 1_555
C21 C22 1_555 1_555
C28 C29 1_555 1_555
C34 C35 1_555 1_555
C36 C37 1_555 1_555
Zn2D O9D 1_555 1_555
Zn2C_2 O9C 1_555 1_555
Zn3C O9C 1_555 1_555
Zn3C_2 O9G 1_555 1_555
O6D C23D 1_555 1_555
C4B C12B 1_555 1_555
C5B C10B 1_555 1_555
C9B C10B 1_555 1_555
C13D C23D 1_555 1_555
C16D C24D 1_555 1_555
C17D C22D 1_555 1_555
C21D C22D 1_555 1_555
C28C C29C 1_555 1_555
C34C C35C 1_555 1_555
C36C C37C 1_555 1_555

#END
