
#######################################################################
#
#                 Cambridge Crystallographic Data Centre
#                                CCDC 
#
#######################################################################
#
# If this CIF has been generated from an entry in the Cambridge 
# Structural Database, then it will include bibliographic, chemical, 
# crystal, experimental, refinement or atomic coordinate data resulting 
# from the CCDC's data processing and validation procedures.
#
#######################################################################

data_CEKKAG
_symmetry_cell_setting           monoclinic
_symmetry_space_group_name_H-M   'C 2/c'
_symmetry_Int_Tables_number      15
_space_group_name_Hall           '-C 2yn'
loop_
_symmetry_equiv_pos_site_id
_symmetry_equiv_pos_as_xyz
1 x,y,z
2 -x,y,1/2-z
3 1/2+x,1/2+y,z
4 1/2-x,1/2+y,1/2-z
5 -x,-y,-z
6 x,-y,1/2+z
7 1/2-x,1/2-y,-z
8 1/2+x,1/2-y,1/2+z
_cell_length_a                   30.2764(6)
_cell_length_b                   12.1038(3)
_cell_length_c                   30.7311(7)
_cell_angle_alpha                90
_cell_angle_beta                 96.3770(10)
_cell_angle_gamma                90
_cell_volume                     11192
loop_
_atom_site_label
_atom_site_type_symbol
_atom_site_fract_x
_atom_site_fract_y
_atom_site_fract_z
Pb1 Pb 0.095818(8) -0.00541(2) 0.246779(9)
Pb2 Pb 0.093968(9) -0.30162(2) 0.258833(10)
Pb3 Pb 0.004465(8) -0.16029(2) 0.308609(8)
Pb4 Pb 0.389820(9) -0.44055(2) 0.112280(9)
Pb5 Pb 0.256910(10) -0.32952(3) 0.069620(9)
N1 N 0.7321(3) -0.0247(6) 0.0430(2)
N2 N 0.4658(2) -0.4089(7) 0.0761(2)
C1 C 0.2153(2) -0.1906(7) 0.2190(2)
C2 C 0.2026(2) -0.2800(7) 0.1933(2)
H1 H 0.1725 -0.2961 0.1871
C3 C 0.2340(2) -0.3478(7) 0.1760(2)
H2 H 0.2240 -0.4063 0.1579
C4 C 0.2790(2) -0.3307(7) 0.1850(2)
C5 C 0.2936(2) -0.2397(8) 0.2139(2)
C6 C 0.3394(3) -0.2144(10) 0.2245(3)
H3 H 0.3608 -0.2571 0.2129
C7 C 0.3519(3) -0.1309(11) 0.2507(3)
H4 H 0.3820 -0.1179 0.2582
C8 C 0.3210(3) -0.0618(11) 0.2675(3)
H5 H 0.3306 -0.0029 0.2856
C9 C 0.2764(3) -0.0812(9) 0.2571(3)
H6 H 0.2558 -0.0350 0.2682
C10 C 0.2615(2) -0.1704(8) 0.2298(2)
C11 C 0.1804(3) -0.1114(8) 0.2321(3)
C12 C 0.3095(2) -0.4038(8) 0.1628(2)
C13 C 0.1158(2) -0.1631(6) 0.1134(2)
C14 C 0.1462(3) -0.0854(7) 0.1052(3)
H7 H 0.1530 -0.0289 0.1253
C15 C 0.1675(3) -0.0891(8) 0.0668(3)
H8 H 0.1895 -0.0378 0.0628
C16 C 0.1562(3) -0.1670(8) 0.0355(2)
C17 C 0.1239(3) -0.2481(7) 0.0420(2)
C18 C 0.1123(4) -0.3313(9) 0.0113(3)
H9 H 0.1265 -0.3346 -0.0140
C19 C 0.0809(5) -0.4072(10) 0.0178(3)
H10 H 0.0737 -0.4621 -0.0030
C20 C 0.0589(4) -0.4031(10) 0.0559(3)
H11 H 0.0371 -0.4548 0.0603
C21 C 0.0699(3) -0.3233(7) 0.0859(3)
H12 H 0.0547 -0.3200 0.1106
C22 C 0.1032(2) -0.2456(6) 0.0812(2)
C23 C 0.0977(2) -0.1598(6) 0.1568(2)
C24 C 0.1811(4) -0.1662(12) -0.0043(3)
C25 C -0.0114(2) 0.2211(5) 0.1839(2)
C26 C -0.0458(2) 0.2846(5) 0.1949(3)
H13 H -0.0721 0.2511 0.2011
C27 C -0.0419(2) 0.4002(6) 0.1969(3)
H14 H -0.0655 0.4420 0.2047
C28 C -0.0047(2) 0.4513(5) 0.1879(2)
C29 C 0.0309(2) 0.3894(5) 0.1730(2)
C30 C 0.0683(3) 0.4404(7) 0.1576(3)
H15 H 0.0708 0.5170 0.1576
C31 C 0.1008(3) 0.3762(8) 0.1425(3)
H16 H 0.1253 0.4102 0.1325
C32 C 0.0981(3) 0.2623(8) 0.1421(3)
H17 H 0.1206 0.2205 0.1319
C33 C 0.0624(3) 0.2114(7) 0.1566(2)
H18 H 0.0611 0.1346 0.1566
C34 C 0.0274(2) 0.2724(5) 0.1717(2)
C35 C -0.0169(2) 0.0996(5) 0.1877(2)
C36 C -0.0036(3) 0.5747(7) 0.1966(3)
C37 C 0.1408(3) -0.5524(9) 0.3890(3)
C38 C 0.1020(3) -0.5111(8) 0.4008(3)
H19 H 0.0817 -0.5589 0.4115
C39 C 0.0919(3) -0.3979(9) 0.3972(3)
H20 H 0.0660 -0.3720 0.4074
C40 C 0.1192(3) -0.3248(8) 0.3791(3)
C41 C 0.1596(3) -0.3646(8) 0.3664(2)
C42 C 0.1896(3) -0.2900(8) 0.3489(3)
H21 H 0.1824 -0.2155 0.3460
C43 C 0.2290(3) -0.3270(10) 0.3363(3)
H22 H 0.2477 -0.2793 0.3233
C44 C 0.2407(3) -0.4394(10) 0.3434(3)
H23 H 0.2683 -0.4638 0.3367
C45 C 0.2128(3) -0.5121(10) 0.3596(3)
H24 H 0.2205 -0.5864 0.3621
C46 C 0.1720(3) -0.4758(8) 0.3726(3)
C47 C 0.1479(5) -0.6780(11) 0.3941(4)
C48 C 0.1047(3) -0.2075(8) 0.3699(3)
C49 C 0.7104(4) -0.0321(8) 0.0039(3)
H25 H 0.7105 0.0281 -0.0148
C50 C 0.6873(3) -0.1253(8) -0.0106(3)
H26 H 0.6726 -0.1261 -0.0388
C51 C 0.6853(3) -0.2164(7) 0.0151(3)
C52 C 0.7100(4) -0.2090(9) 0.0553(3)
H27 H 0.7114 -0.2690 0.0744
C53 C 0.7324(4) -0.1138(9) 0.0675(3)
H28 H 0.7488 -0.1120 0.0949
C54 C 0.6585(3) -0.3160(7) 0.0003(3)
H29 H 0.6757 -0.3824 0.0075
H30 H 0.6510 -0.3136 -0.0312
C55 C 0.6150(4) -0.3188(15) 0.0233(4)
H31 H 0.6233 -0.3451 0.0529
H32 H 0.6054 -0.2428 0.0258
C56 C 0.5811(4) -0.3741(19) 0.0079(5)
H33 H 0.5914 -0.4480 0.0021
H34 H 0.5706 -0.3418 -0.0203
C57 C 0.4739(4) -0.3139(10) 0.0589(4)
H35 H 0.4546 -0.2553 0.0614
C58 C 0.5113(5) -0.2985(13) 0.0368(4)
H36 H 0.5166 -0.2303 0.0244
C59 C 0.5410(3) -0.3863(15) 0.0333(3)
C60 C 0.5319(4) -0.4812(14) 0.0527(4)
H37 H 0.5509 -0.5414 0.0521
C61 C 0.4947(4) -0.4890(11) 0.0733(3)
H38 H 0.4892 -0.5560 0.0865
O1 O 0.04794(13) -0.1571(3) 0.25225(14)
O2 O 0.15005(16) -0.1525(4) 0.25266(16)
O3 O 0.1816(2) -0.0139(6) 0.2211(2)
O4 O 0.34846(18) -0.4219(6) 0.18008(17)
O5 O 0.29541(17) -0.4442(5) 0.12595(17)
O6 O 0.08841(19) -0.0651(4) 0.17077(16)
O7 O 0.09474(17) -0.2484(4) 0.17657(15)
O8 O 0.2076(3) -0.2436(15) -0.0071(3)
O9 O 0.1762(4) -0.1035(6) -0.0320(2)
O10 O 0.01461(18) 0.0428(4) 0.20374(18)
O11 O -0.05435(16) 0.0570(4) 0.17625(16)
O12 O -0.0384(3) 0.6290(4) 0.1912(2)
O13 O 0.0339(3) 0.6166(6) 0.2070(3)
O14 O 0.1144(3) -0.7366(7) 0.3942(3)
O15 O 0.1864(3) -0.7072(9) 0.3989(4)
O16 O 0.0933(3) -0.1515(6) 0.4002(2)
O17 O 0.10143(19) -0.1754(5) 0.33067(19)
Pb1A Pb -0.095818(8) -0.00541(2) 0.253221(9)
Pb1C Pb 0.404182(8) -0.50541(2) 0.253221(9)
Pb2A Pb -0.093968(9) -0.30162(2) 0.241167(10)
Pb2A_2 Pb -0.093968(9) 0.69838(2) 0.241167(10)
Pb2_2 Pb 0.093968(9) 0.69838(2) 0.258833(10)
Pb3A Pb -0.004465(8) -0.16029(2) 0.191391(8)
Pb3A_2 Pb -0.004465(8) 0.83971(2) 0.191391(8)
Pb4B Pb -0.110180(9) 0.05945(2) 0.112280(9)
Pb4C Pb 0.110180(9) -0.94055(2) 0.387720(9)
Pb4C_2 Pb 0.110180(9) 0.05945(2) 0.387720(9)
Pb5B Pb 0.756910(10) 0.17048(3) 0.069620(9)
Pb5F Pb 0.243090(10) -0.17048(3) -0.069620(9)
Pb5C Pb 0.243090(10) -0.82952(3) 0.430380(9)
N1B N 0.2321(3) -0.5247(6) 0.0430(2)
O1A O -0.04794(13) -0.1571(3) 0.24775(14)
O4C O 0.15154(18) 0.0781(6) 0.31992(17)
O8F O 0.2924(3) -0.2564(15) 0.0071(3)
O9F O 0.3238(4) -0.3965(6) 0.0320(2)
O10A O -0.01461(18) 0.0428(4) 0.29626(18)
O11A O 0.05435(16) 0.0570(4) 0.32375(16)
O11B O 0.44565(16) -0.4430(4) 0.17625(16)
O12A O 0.0384(3) -0.3710(4) 0.3088(2)
O13_2 O 0.0339(3) -0.3834(6) 0.2070(3)
O13A O -0.0339(3) -0.3834(6) 0.2930(3)
O14C O 0.3856(3) -0.2366(7) 0.1058(3)
O15C O 0.3136(3) -0.2072(9) 0.1011(4)
O16C O 0.4067(3) -0.6515(6) 0.0998(2)
loop_
_geom_bond_atom_site_label_1
_geom_bond_atom_site_label_2
_geom_bond_site_symmetry_1
_geom_bond_site_symmetry_2
Pb1 O1 1_555 1_555
Pb2 O1 1_555 1_555
Pb3 O1 1_555 1_555
Pb4 N2 1_555 1_555
Pb5 O5 1_555 1_555
N1 C49 1_555 1_555
N2 C57 1_555 1_555
C1 C2 1_555 1_555
C2 H1 1_555 1_555
C3 C2 1_555 1_555
H2 C3 1_555 1_555
C4 C3 1_555 1_555
C5 C4 1_555 1_555
C6 C5 1_555 1_555
H3 C6 1_555 1_555
C7 C6 1_555 1_555
H4 C7 1_555 1_555
C8 C7 1_555 1_555
H5 C8 1_555 1_555
C9 C8 1_555 1_555
H6 C9 1_555 1_555
C10 C1 1_555 1_555
C11 C1 1_555 1_555
C12 C4 1_555 1_555
C13 C14 1_555 1_555
C14 H7 1_555 1_555
C15 C14 1_555 1_555
H8 C15 1_555 1_555
C16 C15 1_555 1_555
C17 C16 1_555 1_555
C18 C17 1_555 1_555
H9 C18 1_555 1_555
C19 C18 1_555 1_555
H10 C19 1_555 1_555
C20 C19 1_555 1_555
H11 C20 1_555 1_555
C21 C20 1_555 1_555
H12 C21 1_555 1_555
C22 C13 1_555 1_555
C23 C13 1_555 1_555
C24 C16 1_555 1_555
C25 C26 1_555 1_555
C26 H13 1_555 1_555
C27 C26 1_555 1_555
H14 C27 1_555 1_555
C28 C27 1_555 1_555
C29 C28 1_555 1_555
C30 C29 1_555 1_555
H15 C30 1_555 1_555
C31 C30 1_555 1_555
H16 C31 1_555 1_555
C32 C31 1_555 1_555
H17 C32 1_555 1_555
C33 C32 1_555 1_555
H18 C33 1_555 1_555
C34 C25 1_555 1_555
C35 C25 1_555 1_555
C36 C28 1_555 1_555
C37 C38 1_555 1_555
C38 H19 1_555 1_555
C39 C38 1_555 1_555
H20 C39 1_555 1_555
C40 C39 1_555 1_555
C41 C40 1_555 1_555
C42 C41 1_555 1_555
H21 C42 1_555 1_555
C43 C42 1_555 1_555
H22 C43 1_555 1_555
C44 C43 1_555 1_555
H23 C44 1_555 1_555
C45 C44 1_555 1_555
H24 C45 1_555 1_555
C46 C37 1_555 1_555
C47 C37 1_555 1_555
C48 C40 1_555 1_555
C49 H25 1_555 1_555
C50 C49 1_555 1_555
H26 C50 1_555 1_555
C51 C50 1_555 1_555
C52 C51 1_555 1_555
H27 C52 1_555 1_555
C53 N1 1_555 1_555
H28 C53 1_555 1_555
C54 C51 1_555 1_555
H29 C54 1_555 1_555
H30 C54 1_555 1_555
C55 C54 1_555 1_555
H31 C55 1_555 1_555
H32 C55 1_555 1_555
C56 C55 1_555 1_555
H33 C56 1_555 1_555
H34 C56 1_555 1_555
C57 H35 1_555 1_555
C58 C57 1_555 1_555
H36 C58 1_555 1_555
C59 C56 1_555 1_555
C60 C59 1_555 1_555
H37 C60 1_555 1_555
C61 N2 1_555 1_555
H38 C61 1_555 1_555
O1 Pb3A 1_555 1_555
O2 Pb1 1_555 1_555
O3 Pb1 1_555 1_555
O4 Pb4 1_555 1_555
O5 Pb4 1_555 1_555
O6 Pb1 1_555 1_555
O7 Pb2 1_555 1_555
O8 Pb5 1_555 1_555
O9 C24 1_555 1_555
O10 Pb1 1_555 1_555
O11 C35 1_555 1_555
O12 C36 1_555 1_555
O13 C36 1_555 1_555
O14 C47 1_555 1_555
O15 C47 1_555 1_555
O16 C48 1_555 1_555
O17 Pb2 1_555 1_555
Pb1A O11 1_555 1_555
Pb1C O4 1_555 1_555
Pb2A O1A 1_555 1_555
Pb2A_2 O12 1_555 1_555
Pb2_2 O13 1_555 1_555
Pb3A O10 1_555 1_555
Pb3A_2 O12 1_555 1_555
Pb4B O11 1_555 1_555
Pb4C O14 1_555 1_555
Pb4C_2 O16 1_555 1_555
Pb5B N1 1_555 1_555
Pb5F O8 1_555 1_555
Pb5C O15 1_555 1_555
N1B Pb5 1_555 1_555
O1A Pb3 1_555 1_555
O4C Pb1 1_555 1_555
O8F Pb5 1_555 1_555
O9F Pb5 1_555 1_555
O10A Pb3 1_555 1_555
O11A Pb1 1_555 1_555
O11B Pb4 1_555 1_555
O12A Pb2 1_555 1_555
O13_2 Pb2 1_555 1_555
O13A Pb3 1_555 1_555
O14C Pb4 1_555 1_555
O15C Pb5 1_555 1_555
O16C Pb4 1_555 1_555
Pb2 O2 1_555 1_555
Pb3 O17 1_555 1_555
Pb3 O12A 1_555 1_555
C5 C10 1_555 1_555
C9 C10 1_555 1_555
C11 O2 1_555 1_555
C11 O3 1_555 1_555
C12 O4 1_555 1_555
C12 O5 1_555 1_555
C17 C22 1_555 1_555
C21 C22 1_555 1_555
C23 O6 1_555 1_555
C23 O7 1_555 1_555
C24 O8 1_555 1_555
C29 C34 1_555 1_555
C33 C34 1_555 1_555
C35 O10 1_555 1_555
C41 C46 1_555 1_555
C45 C46 1_555 1_555
C48 O17 1_555 1_555
C52 C53 1_555 1_555
C58 C59 1_555 1_555
C60 C61 1_555 1_555
O9 Pb5F 1_555 1_555
O13 Pb3A_2 1_555 1_555
Pb1A O1A 1_555 1_555
Pb1A O10A 1_555 1_555
Pb1C O11B 1_555 1_555
Pb2A O13A 1_555 1_555
Pb3A O1A 1_555 1_555
Pb3A O13_2 1_555 1_555
Pb4C_2 O4C 1_555 1_555
Pb4C_2 O11A 1_555 1_555
Pb5F O8F 1_555 1_555

#END
