
#######################################################################
#
#                 Cambridge Crystallographic Data Centre
#                                CCDC 
#
#######################################################################
#
# If this CIF has been generated from an entry in the Cambridge 
# Structural Database, then it will include bibliographic, chemical, 
# crystal, experimental, refinement or atomic coordinate data resulting 
# from the CCDC's data processing and validation procedures.
#
#######################################################################

data_CEKSEQ03
_symmetry_cell_setting           monoclinic
_symmetry_space_group_name_H-M   'P 21/c'
_symmetry_Int_Tables_number      14
_space_group_name_Hall           '-P 2ybc'
loop_
_symmetry_equiv_pos_site_id
_symmetry_equiv_pos_as_xyz
1 x,y,z
2 -x,1/2+y,1/2-z
3 -x,-y,-z
4 x,1/2-y,1/2+z
_cell_length_a                   8.727(5)
_cell_length_b                   10.182(5)
_cell_length_c                   7.138(5)
_cell_angle_alpha                90
_cell_angle_beta                 100.005(5)
_cell_angle_gamma                90
_cell_volume                     624.625
loop_
_atom_site_label
_atom_site_type_symbol
_atom_site_fract_x
_atom_site_fract_y
_atom_site_fract_z
C1 C 0.36164(19) -0.21364(16) 0.0445(2)
H1 H 0.4603 -0.1993 0.1150
C2 C 0.2657(2) -0.10604(17) -0.0054(2)
C3 C 0.1184(2) -0.12833(17) -0.1098(2)
H2 H 0.0529 -0.0581 -0.1507
C4 C 0.0699(2) -0.25576(19) -0.1526(3)
H3 H -0.0300 -0.2732 -0.2175
C5 C 0.1736(2) -0.35639(17) -0.0966(2)
H4 H 0.1410 -0.4422 -0.1244
C6 C 0.3192(2) 0.03068(18) 0.0541(2)
N1 N 0.31947(17) -0.33650(15) -0.0037(2)
O1 O 0.67941(17) -0.37033(13) -0.07443(19)
O2 O 0.41595(17) 0.04457(14) 0.20429(17)
O3 O 0.26161(16) 0.12312(13) -0.05205(18)
Mn1 Mn 0.5000 -0.5000 0.0000
H5 H 0.697(3) -0.2919(18) -0.033(4)
H6 H 0.703(4) -0.376(3) -0.186(3)
C1B C 0.63836(19) -0.78636(16) -0.0445(2)
H1B H 0.5397 -0.8007 -0.1150
C2B C 0.7343(2) -0.89396(17) 0.0054(2)
C3B C 0.8816(2) -0.87167(17) 0.1098(2)
H2B H 0.9471 -0.9419 0.1507
C4B C 0.9301(2) -0.74424(19) 0.1526(3)
H3B H 1.0300 -0.7268 0.2175
C5B C 0.8264(2) -0.64361(17) 0.0966(2)
H4B H 0.8590 -0.5578 0.1244
C6B C 0.6808(2) -1.03068(18) -0.0541(2)
N1B N 0.68053(17) -0.66350(15) 0.0037(2)
O1B O 0.32059(17) -0.62967(13) 0.07443(19)
O2B O 0.58405(17) -1.04457(14) -0.20429(17)
O2A O 0.58405(17) -0.45543(14) 0.29571(17)
O2C O 0.41595(17) -0.54457(14) -0.29571(17)
O3B O 0.73839(16) -1.12312(13) 0.05205(18)
Mn1A Mn 0.5000 -1.0000 -0.5000
Mn1A_2 Mn 0.5000 0.0000 0.5000
H5B H 0.303(3) -0.7081(18) 0.033(4)
H6B H 0.297(4) -0.624(3) 0.186(3)
loop_
_geom_bond_atom_site_label_1
_geom_bond_atom_site_label_2
_geom_bond_site_symmetry_1
_geom_bond_site_symmetry_2
C1 H1 1_555 1_555
C2 C1 1_555 1_555
C3 C2 1_555 1_555
H2 C3 1_555 1_555
C4 C3 1_555 1_555
H3 C4 1_555 1_555
C5 C4 1_555 1_555
H4 C5 1_555 1_555
C6 C2 1_555 1_555
N1 C1 1_555 1_555
O1 Mn1 1_555 1_555
O2 C6 1_555 1_555
O3 C6 1_555 1_555
Mn1 N1 1_555 1_555
H5 O1 1_555 1_555
H6 O1 1_555 1_555
C1B H1B 1_555 1_555
C2B C1B 1_555 1_555
C3B C2B 1_555 1_555
H2B C3B 1_555 1_555
C4B C3B 1_555 1_555
H3B C4B 1_555 1_555
C5B C4B 1_555 1_555
H4B C5B 1_555 1_555
C6B C2B 1_555 1_555
N1B Mn1 1_555 1_555
O1B Mn1 1_555 1_555
O2B C6B 1_555 1_555
O2A Mn1 1_555 1_555
O2C Mn1 1_555 1_555
O3B C6B 1_555 1_555
Mn1A O2B 1_555 1_555
Mn1A_2 O2 1_555 1_555
H5B O1B 1_555 1_555
H6B O1B 1_555 1_555
C5 N1 1_555 1_555
C1B N1B 1_555 1_555
C5B N1B 1_555 1_555

#END
