
#######################################################################
#
#                 Cambridge Crystallographic Data Centre
#                                CCDC 
#
#######################################################################
#
# If this CIF has been generated from an entry in the Cambridge 
# Structural Database, then it will include bibliographic, chemical, 
# crystal, experimental, refinement or atomic coordinate data resulting 
# from the CCDC's data processing and validation procedures.
#
#######################################################################

data_CEKSEQ02
_symmetry_cell_setting           monoclinic
_symmetry_space_group_name_H-M   'P 21/c'
_symmetry_Int_Tables_number      14
_space_group_name_Hall           '-P 2ybc'
loop_
_symmetry_equiv_pos_site_id
_symmetry_equiv_pos_as_xyz
1 x,y,z
2 -x,1/2+y,1/2-z
3 -x,-y,-z
4 x,1/2-y,1/2+z
_cell_length_a                   8.7617(18)
_cell_length_b                   10.223(2)
_cell_length_c                   7.1518(14)
_cell_angle_alpha                90
_cell_angle_beta                 100.02(3)
_cell_angle_gamma                90
_cell_volume                     630.822
loop_
_atom_site_label
_atom_site_type_symbol
_atom_site_fract_x
_atom_site_fract_y
_atom_site_fract_z
Mn1 Mn 0.5000 0.0000 0.0000
O1 O 0.5844(2) -0.04502(19) 0.2959(3)
O2 O 0.7383(2) -0.12309(18) 0.5520(3)
N1 N 0.6802(2) 0.3369(2) 0.5031(3)
C1 C 0.8267(3) 0.3565(3) 0.5963(4)
H1 H 0.8592 0.4419 0.6247
C2 C 0.9307(3) 0.2556(3) 0.6514(4)
H2 H 1.0305 0.2728 0.7152
C3 C 0.8816(3) 0.1283(3) 0.6087(4)
H3 H 0.9467 0.0582 0.6490
C4 C 0.7343(3) 0.1064(3) 0.5053(3)
C5 C 0.6388(3) 0.2135(2) 0.4560(3)
H4 H 0.5404 0.1989 0.3863
C6 C 0.6812(3) -0.0306(3) 0.4459(4)
O3 O 0.3208(2) 0.12972(18) 0.0743(3)
H5 H 0.2990 0.1231 0.1936
H6 H 0.3018 0.2077 0.0431
Mn1A Mn 0.5000 0.5000 0.5000
Mn1A_2 Mn 0.5000 -0.5000 -0.5000
O1B O 0.4156(2) 0.04502(19) -0.2959(3)
O2B O 0.2617(2) 0.12309(18) -0.5520(3)
N1B N 0.3198(2) -0.3369(2) -0.5031(3)
N1A N 0.3198(2) -0.1631(2) -0.0031(3)
N1C N 0.6802(2) 0.1631(2) 0.0031(3)
C1B C 0.1733(3) -0.3565(3) -0.5963(4)
H1B H 0.1408 -0.4419 -0.6247
C2B C 0.0693(3) -0.2556(3) -0.6514(4)
H2B H -0.0305 -0.2728 -0.7152
C3B C 0.1184(3) -0.1283(3) -0.6087(4)
H3B H 0.0533 -0.0582 -0.6490
C4B C 0.2657(3) -0.1064(3) -0.5053(3)
C5B C 0.3612(3) -0.2135(2) -0.4560(3)
H4B H 0.4596 -0.1989 -0.3863
C6B C 0.3188(3) 0.0306(3) -0.4459(4)
O3B O 0.6792(2) -0.12972(18) -0.0743(3)
H5B H 0.7010 -0.1231 -0.1936
H6B H 0.6982 -0.2077 -0.0431
loop_
_geom_bond_atom_site_label_1
_geom_bond_atom_site_label_2
_geom_bond_site_symmetry_1
_geom_bond_site_symmetry_2
Mn1 O1 1_555 1_555
O1 C6 1_555 1_555
O2 C6 1_555 1_555
N1 C1 1_555 1_555
C1 H1 1_555 1_555
C2 C1 1_555 1_555
H2 C2 1_555 1_555
C3 C2 1_555 1_555
H3 C3 1_555 1_555
C4 C3 1_555 1_555
C5 N1 1_555 1_555
H4 C5 1_555 1_555
C6 C4 1_555 1_555
O3 Mn1 1_555 1_555
H5 O3 1_555 1_555
H6 O3 1_555 1_555
Mn1A N1 1_555 1_555
Mn1A_2 N1B 1_555 1_555
O1B Mn1 1_555 1_555
O2B C6B 1_555 1_555
N1B C1B 1_555 1_555
N1A Mn1 1_555 1_555
N1C Mn1 1_555 1_555
C1B H1B 1_555 1_555
C2B C1B 1_555 1_555
H2B C2B 1_555 1_555
C3B C2B 1_555 1_555
H3B C3B 1_555 1_555
C4B C3B 1_555 1_555
C5B N1B 1_555 1_555
H4B C5B 1_555 1_555
C6B O1B 1_555 1_555
O3B Mn1 1_555 1_555
H5B O3B 1_555 1_555
H6B O3B 1_555 1_555
C4 C5 1_555 1_555
C4B C5B 1_555 1_555
C4B C6B 1_555 1_555

#END
