
#######################################################################
#
#                 Cambridge Crystallographic Data Centre
#                                CCDC 
#
#######################################################################
#
# If this CIF has been generated from an entry in the Cambridge 
# Structural Database, then it will include bibliographic, chemical, 
# crystal, experimental, refinement or atomic coordinate data resulting 
# from the CCDC's data processing and validation procedures.
#
#######################################################################

data_CEKVAR
_symmetry_cell_setting           monoclinic
_symmetry_space_group_name_H-M   'P 21/c'
_symmetry_Int_Tables_number      14
_space_group_name_Hall           '-P 2ybc'
loop_
_symmetry_equiv_pos_site_id
_symmetry_equiv_pos_as_xyz
1 x,y,z
2 -x,1/2+y,1/2-z
3 -x,-y,-z
4 x,1/2-y,1/2+z
_cell_length_a                   8.9885(3)
_cell_length_b                   18.7361(6)
_cell_length_c                   7.8637(3)
_cell_angle_alpha                90
_cell_angle_beta                 98.878(3)
_cell_angle_gamma                90
_cell_volume                     1308.45
loop_
_atom_site_label
_atom_site_type_symbol
_atom_site_fract_x
_atom_site_fract_y
_atom_site_fract_z
Mn1 Mn 0.58625(4) 0.373459(16) 0.29313(4)
O1 O 0.7235(2) 0.05000(8) 0.30592(18)
O2 O 0.66732(18) 0.07500(8) 0.02872(17)
O3 O 0.50193(16) 0.31659(8) 0.05326(17)
O4 O 0.48887(16) 0.20700(8) -0.05756(17)
O5 O 1.3356(2) 0.39678(9) 0.8088(2)
H1 H 1.3832 0.3682 0.8751
O6 O 0.6698(3) 0.45615(9) 0.1431(2)
O7 O 0.3570(2) 0.41744(10) 0.2816(2)
N1 N 0.76276(18) 0.28820(9) 0.26480(19)
N2 N 0.86370(19) 0.18479(9) 0.35222(19)
H2 H 0.9219 0.1541 0.4105
C1 C 1.0990(2) 0.25446(11) 0.5967(3)
H3 H 1.0909 0.2050 0.6001
C2 C 1.2129(2) 0.28795(12) 0.7050(3)
H4 H 1.2811 0.2612 0.7802
C3 C 1.2256(2) 0.36150(12) 0.7014(3)
C4 C 1.1254(3) 0.40151(12) 0.5852(3)
H5 H 1.1349 0.4509 0.5810
C5 C 1.0122(2) 0.36708(12) 0.4767(3)
H6 H 0.9460 0.3936 0.3987
C6 C 0.9957(2) 0.29323(11) 0.4822(2)
C7 C 0.8743(2) 0.25685(11) 0.3693(2)
C8 C 0.7074(2) 0.09275(11) 0.1824(2)
C9 C 0.7445(2) 0.16901(11) 0.2264(2)
C10 C 0.6832(2) 0.23380(10) 0.1729(2)
C11 C 0.5480(2) 0.25253(11) 0.0470(2)
H7 H 0.684(3) 0.4512(10) 0.0399(15)
H8 H 0.658(3) 0.5005(5) 0.157(2)
H11 H 0.339(4) 0.4613(19) 0.264(4)
H12 H 0.324(4) 0.407(2) 0.375(3)
Mn1C Mn 0.58625(4) 0.126541(16) -0.20687(4)
O2C O 0.66732(18) 0.42500(8) 0.52872(17)
O4C O 0.48887(16) 0.29300(8) 0.44244(17)
O8 O 1.0519(3) 0.42520(12) 0.0328(3)
H9 H 1.1419(12) 0.4266(13) 0.076(3)
H10 H 0.998(2) 0.4556(11) 0.071(3)
loop_
_geom_bond_atom_site_label_1
_geom_bond_atom_site_label_2
_geom_bond_site_symmetry_1
_geom_bond_site_symmetry_2
Mn1 O3 1_555 1_555
O1 C8 1_555 1_555
O2 C8 1_555 1_555
O3 C11 1_555 1_555
O4 C11 1_555 1_555
O5 H1 1_555 1_555
O6 Mn1 1_555 1_555
O7 Mn1 1_555 1_555
O8 H9 1_555 1_555
N1 Mn1 1_555 1_555
N2 H2 1_555 1_555
C1 H3 1_555 1_555
C2 C1 1_555 1_555
H4 C2 1_555 1_555
C3 O5 1_555 1_555
C4 C3 1_555 1_555
H5 C4 1_555 1_555
C5 C4 1_555 1_555
H6 C5 1_555 1_555
C6 C1 1_555 1_555
C7 N1 1_555 1_555
C8 C9 1_555 1_555
C9 N2 1_555 1_555
C10 N1 1_555 1_555
C11 C10 1_555 1_555
H7 O6 1_555 1_555
H8 O6 1_555 1_555
H10 O8 1_555 1_555
H11 O7 1_555 1_555
H12 O7 1_555 1_555
Mn1C O2 1_555 1_555
O2C Mn1 1_555 1_555
O4C Mn1 1_555 1_555
O4 Mn1C 1_555 1_555
N2 C7 1_555 1_555
C2 C3 1_555 1_555
C5 C6 1_555 1_555
C6 C7 1_555 1_555
C9 C10 1_555 1_555

#END
