
#######################################################################
#
#                 Cambridge Crystallographic Data Centre
#                                CCDC 
#
#######################################################################
#
# If this CIF has been generated from an entry in the Cambridge 
# Structural Database, then it will include bibliographic, chemical, 
# crystal, experimental, refinement or atomic coordinate data resulting 
# from the CCDC's data processing and validation procedures.
#
#######################################################################

data_CEKVOF
_symmetry_cell_setting           monoclinic
_symmetry_space_group_name_H-M   'P 21/c'
_symmetry_Int_Tables_number      14
_space_group_name_Hall           '-P 2ybc'
loop_
_symmetry_equiv_pos_site_id
_symmetry_equiv_pos_as_xyz
1 x,y,z
2 -x,1/2+y,1/2-z
3 -x,-y,-z
4 x,1/2-y,1/2+z
_cell_length_a                   9.4315(11)
_cell_length_b                   20.990(3)
_cell_length_c                   20.452(2)
_cell_angle_alpha                90
_cell_angle_beta                 103.1830(10)
_cell_angle_gamma                90
_cell_volume                     3942.12
loop_
_atom_site_label
_atom_site_type_symbol
_atom_site_fract_x
_atom_site_fract_y
_atom_site_fract_z
Cd1 Cd 0.73608(3) 0.771373(12) 0.062081(13)
Cd2 Cd 0.88745(3) 0.493872(12) 0.233812(12)
O1 O 0.9199(3) 0.72753(13) 0.01568(13)
O2 O 1.0705(3) 0.64505(14) 0.01946(14)
O3 O 1.1316(3) 0.54624(13) 0.08271(14)
O4 O 1.0634(3) 0.49413(12) 0.16516(13)
O5 O 0.2913(3) 0.6376(2) 0.28456(17)
H1 H 0.3201 0.6306 0.3248
O6 O 1.0183(3) 1.05792(12) 0.16588(12)
O7 O 0.8928(3) 1.05174(12) 0.05984(13)
O8 O 0.7570(3) 0.97197(14) -0.01672(13)
O9 O 0.6911(3) 0.87115(14) -0.01260(13)
O10 O 0.9810(3) 0.68627(13) 0.38438(13)
H2 H 0.9908 0.6504 0.3701
N1 N 0.7838(3) 0.67051(13) 0.10726(14)
N2 N 0.8499(3) 0.58290(13) 0.16981(14)
N3 N 0.9734(3) 0.93012(13) 0.18807(13)
N4 N 0.8528(3) 0.85635(13) 0.11731(14)
N5 N 0.5617(3) 0.74591(15) -0.03264(15)
N6 N 0.5062(3) 0.78811(15) 0.08436(16)
N7 N 0.7143(3) 0.44579(14) 0.14354(15)
N8 N 0.6674(3) 0.47666(15) 0.26474(15)
C1 C 0.9668(4) 0.67437(19) 0.03770(18)
C2 C 0.9015(4) 0.64330(17) 0.08858(16)
C3 C 0.9419(4) 0.58940(17) 0.12695(17)
C4 C 1.0523(4) 0.53993(18) 0.12573(18)
C5 C 0.7565(4) 0.63218(16) 0.15589(17)
C6 C 0.6363(4) 0.63992(16) 0.18984(17)
C7 C 0.6617(4) 0.63386(18) 0.25907(18)
H5 H 0.7568 0.6291 0.2839
C8 C 0.5501(4) 0.63466(18) 0.29186(19)
H6 H 0.5701 0.6312 0.3384
C9 C 0.4071(4) 0.6406(2) 0.2555(2)
C10 C 0.3804(4) 0.6492(2) 0.1868(2)
H7 H 0.2854 0.6554 0.1624
C11 C 0.4931(4) 0.64858(18) 0.15407(19)
H8 H 0.4733 0.6540 0.1077
C12 C 0.9467(4) 1.02714(18) 0.11669(18)
C13 C 0.9219(3) 0.95829(16) 0.12630(16)
C14 C 0.8474(4) 0.91283(16) 0.08292(16)
C15 C 0.7594(4) 0.91767(19) 0.01303(18)
C16 C 0.9296(3) 0.86929(16) 0.18029(16)
C17 C 0.9523(3) 0.82166(16) 0.23402(16)
C18 C 0.9861(4) 0.75893(17) 0.22240(17)
H9 H 1.0021 0.7477 0.1807
C19 C 0.9965(4) 0.71299(17) 0.27135(18)
H10 H 1.0187 0.6712 0.2625
C20 C 0.9736(4) 0.72931(17) 0.33435(18)
C21 C 0.9450(4) 0.79194(17) 0.34714(18)
H11 H 0.9329 0.8033 0.3895
C22 C 0.9340(4) 0.83799(18) 0.29801(17)
H12 H 0.9144 0.8800 0.3074
C23 C 0.5947(5) 0.7281(2) -0.0897(2)
H13 H 0.6922 0.7251 -0.0913
C24 C 0.4887(6) 0.7139(2) -0.1470(2)
H14 H 0.5136 0.7029 -0.1870
C25 C 0.3466(6) 0.7168(2) -0.1426(3)
H15 H 0.2730 0.7061 -0.1795
C26 C 0.3123(5) 0.7354(2) -0.0842(3)
H16 H 0.2156 0.7373 -0.0810
C27 C 0.4224(4) 0.75134(18) -0.0300(2)
C28 C 0.3911(4) 0.77683(18) 0.0335(2)
C29 C 0.2502(5) 0.7906(2) 0.0395(3)
H17 H 0.1711 0.7839 0.0036
C30 C 0.2302(6) 0.8145(3) 0.1000(3)
H18 H 0.1371 0.8240 0.1051
C31 C 0.3473(6) 0.8237(2) 0.1515(3)
H19 H 0.3355 0.8390 0.1926
C32 C 0.4824(5) 0.8103(2) 0.1422(2)
H20 H 0.5621 0.8170 0.1777
C33 C 0.7429(5) 0.4308(2) 0.0842(2)
H21 H 0.8395 0.4270 0.0813
C34 C 0.6351(5) 0.4208(2) 0.0275(2)
H22 H 0.6583 0.4094 -0.0128
C35 C 0.4939(5) 0.4277(2) 0.0312(2)
H23 H 0.4194 0.4217 -0.0068
C36 C 0.4614(4) 0.4437(2) 0.0917(2)
H24 H 0.3653 0.4490 0.0947
C37 C 0.5747(4) 0.45169(17) 0.14770(18)
C38 C 0.5477(4) 0.46423(18) 0.21597(18)
C39 C 0.4118(4) 0.4625(2) 0.2285(2)
H25 H 0.3308 0.4555 0.1937
C40 C 0.3952(5) 0.4710(2) 0.2928(2)
H26 H 0.3031 0.4697 0.3019
C41 C 0.5161(5) 0.4815(2) 0.3435(2)
H27 H 0.5078 0.4862 0.3877
C42 C 0.6491(5) 0.4849(2) 0.3275(2)
H28 H 0.7306 0.4933 0.3616
Cd2A Cd 1.11255(3) 0.993872(12) 0.266188(12)
O6A O 0.9817(3) 0.55792(12) 0.33412(12)
N3A N 1.0266(3) 0.43012(13) 0.31193(13)
O11 O 0.3836(4) 0.60329(17) 0.41729(17)
H3 H 0.3038 0.5885 0.4235
H4 H 0.4401 0.5913 0.4535
loop_
_geom_bond_atom_site_label_1
_geom_bond_atom_site_label_2
_geom_bond_site_symmetry_1
_geom_bond_site_symmetry_2
Cd1 O1 1_555 1_555
Cd2 O4 1_555 1_555
O1 C1 1_555 1_555
O2 C1 1_555 1_555
O3 C4 1_555 1_555
O4 C4 1_555 1_555
O5 H1 1_555 1_555
O6 C12 1_555 1_555
O7 C12 1_555 1_555
O8 C15 1_555 1_555
O9 Cd1 1_555 1_555
O10 H2 1_555 1_555
O11 H3 1_555 1_555
H4 O11 1_555 1_555
N1 Cd1 1_555 1_555
N2 Cd2 1_555 1_555
N3 C13 1_555 1_555
N4 Cd1 1_555 1_555
N5 Cd1 1_555 1_555
N6 Cd1 1_555 1_555
N7 Cd2 1_555 1_555
N8 Cd2 1_555 1_555
C1 C2 1_555 1_555
C2 N1 1_555 1_555
C3 N2 1_555 1_555
C4 C3 1_555 1_555
C5 N1 1_555 1_555
C6 C5 1_555 1_555
C7 C6 1_555 1_555
H5 C7 1_555 1_555
C8 C7 1_555 1_555
H6 C8 1_555 1_555
C9 O5 1_555 1_555
C10 C9 1_555 1_555
H7 C10 1_555 1_555
C11 C6 1_555 1_555
H8 C11 1_555 1_555
C12 C13 1_555 1_555
C13 C14 1_555 1_555
C14 N4 1_555 1_555
C15 O9 1_555 1_555
C16 N3 1_555 1_555
C17 C16 1_555 1_555
C18 C17 1_555 1_555
H9 C18 1_555 1_555
C19 C18 1_555 1_555
H10 C19 1_555 1_555
C20 O10 1_555 1_555
C21 C20 1_555 1_555
H11 C21 1_555 1_555
C22 C17 1_555 1_555
H12 C22 1_555 1_555
C23 N5 1_555 1_555
H13 C23 1_555 1_555
C24 C23 1_555 1_555
H14 C24 1_555 1_555
C25 C24 1_555 1_555
H15 C25 1_555 1_555
C26 C25 1_555 1_555
H16 C26 1_555 1_555
C27 N5 1_555 1_555
C28 N6 1_555 1_555
C29 C28 1_555 1_555
H17 C29 1_555 1_555
C30 C29 1_555 1_555
H18 C30 1_555 1_555
C31 C30 1_555 1_555
H19 C31 1_555 1_555
C32 N6 1_555 1_555
H20 C32 1_555 1_555
C33 N7 1_555 1_555
H21 C33 1_555 1_555
C34 C33 1_555 1_555
H22 C34 1_555 1_555
C35 C34 1_555 1_555
H23 C35 1_555 1_555
C36 C35 1_555 1_555
H24 C36 1_555 1_555
C37 N7 1_555 1_555
C38 N8 1_555 1_555
C39 C38 1_555 1_555
H25 C39 1_555 1_555
C40 C39 1_555 1_555
H26 C40 1_555 1_555
C41 C40 1_555 1_555
H27 C41 1_555 1_555
C42 N8 1_555 1_555
H28 C42 1_555 1_555
Cd2A O6 1_555 1_555
O6A Cd2 1_555 1_555
N3A Cd2 1_555 1_555
N2 C5 1_555 1_555
N3 Cd2A 1_555 1_555
N4 C16 1_555 1_555
C2 C3 1_555 1_555
C8 C9 1_555 1_555
C10 C11 1_555 1_555
C14 C15 1_555 1_555
C19 C20 1_555 1_555
C21 C22 1_555 1_555
C26 C27 1_555 1_555
C27 C28 1_555 1_555
C31 C32 1_555 1_555
C36 C37 1_555 1_555
C37 C38 1_555 1_555
C41 C42 1_555 1_555

#END
