
#######################################################################
#
#                 Cambridge Crystallographic Data Centre
#                                CCDC 
#
#######################################################################
#
# If this CIF has been generated from an entry in the Cambridge 
# Structural Database, then it will include bibliographic, chemical, 
# crystal, experimental, refinement or atomic coordinate data resulting 
# from the CCDC's data processing and validation procedures.
#
#######################################################################

data_CEKVEV
_symmetry_cell_setting           monoclinic
_symmetry_space_group_name_H-M   'P 21/c'
_symmetry_Int_Tables_number      14
_space_group_name_Hall           '-P 2ybc'
loop_
_symmetry_equiv_pos_site_id
_symmetry_equiv_pos_as_xyz
1 x,y,z
2 -x,1/2+y,1/2-z
3 -x,-y,-z
4 x,1/2-y,1/2+z
_cell_length_a                   14.030(9)
_cell_length_b                   6.614(4)
_cell_length_c                   12.613(8)
_cell_angle_alpha                90
_cell_angle_beta                 103.620(8)
_cell_angle_gamma                90
_cell_volume                     1137.5
loop_
_atom_site_label
_atom_site_type_symbol
_atom_site_fract_x
_atom_site_fract_y
_atom_site_fract_z
Sr1 Sr 0.47257(5) 0.06587(9) 0.16225(5)
O1 O 0.4147(4) 0.1340(7) -0.0400(4)
O2 O 0.4718(3) 0.4340(7) 0.1296(4)
O3 O 0.4002(4) 0.7150(7) 0.1621(3)
N1 N 0.2693(4) 0.5353(8) -0.1851(4)
O4 O 0.2686(4) 0.0752(8) 0.1016(4)
H1 H 0.3028 0.1377 0.1564
O5 O 0.3850(4) 0.2154(7) -0.2130(4)
N2 N 0.2842(4) 0.7326(8) -0.0419(4)
H2 H 0.2764 0.8340 -0.0022
C1 C 0.3796(5) 0.2508(10) -0.1173(5)
C2 C 0.3307(5) 0.4444(10) -0.0981(5)
C3 C 0.3415(5) 0.5649(10) -0.0071(5)
C4 C 0.4085(5) 0.5693(10) 0.1012(5)
C5 C 0.2427(5) 0.7103(11) -0.1488(5)
C6 C 0.1802(5) 0.8627(11) -0.2136(6)
C7 C 0.1374(6) 1.0155(12) -0.1655(7)
H3 H 0.1458 1.0185 -0.0902
C8 C 0.0824(6) 1.1631(13) -0.2290(7)
H4 H 0.0546 1.2660 -0.1960
C9 C 0.0682(6) 1.1598(14) -0.3399(8)
H5 H 0.0313 1.2603 -0.3822
C10 C 0.1082(7) 1.0093(14) -0.3876(8)
H6 H 0.0978 1.0055 -0.4632
C11 C 0.1644(5) 0.8609(13) -0.3251(6)
H7 H 0.1919 0.7589 -0.3591
H8 H 0.308(2) 0.035(11) 0.064(4)
Sr1B Sr 0.52743(5) -0.06587(9) -0.16225(5)
Sr1A Sr 0.52743(5) 0.56587(9) 0.33775(5)
Sr1_2 Sr 0.47257(5) 1.06587(9) 0.16225(5)
Sr1C Sr 0.47257(5) 0.43413(9) -0.33775(5)
O1B O 0.5853(4) -0.1340(7) 0.0400(4)
O2A O 0.5282(3) -0.0660(7) 0.3704(4)
O3A O 0.5998(4) 0.2150(7) 0.3379(3)
O3_2 O 0.4002(4) -0.2850(7) 0.1621(3)
O5C O 0.3850(4) 0.2846(7) 0.2870(4)
O5B O 0.6150(4) -0.2154(7) 0.2130(4)
loop_
_geom_bond_atom_site_label_1
_geom_bond_atom_site_label_2
_geom_bond_site_symmetry_1
_geom_bond_site_symmetry_2
Sr1 O1 1_555 1_555
O1 C1 1_555 1_555
O2 Sr1 1_555 1_555
O3 C4 1_555 1_555
N1 C2 1_555 1_555
O4 Sr1 1_555 1_555
H1 O4 1_555 1_555
O5 C1 1_555 1_555
N2 H2 1_555 1_555
C1 C2 1_555 1_555
C2 C3 1_555 1_555
C3 N2 1_555 1_555
C4 O2 1_555 1_555
C5 N1 1_555 1_555
C6 C5 1_555 1_555
C7 C6 1_555 1_555
H3 C7 1_555 1_555
C8 C7 1_555 1_555
H4 C8 1_555 1_555
C9 C8 1_555 1_555
H5 C9 1_555 1_555
C10 C9 1_555 1_555
H6 C10 1_555 1_555
C11 C6 1_555 1_555
H7 C11 1_555 1_555
H8 O4 1_555 1_555
Sr1B O1 1_555 1_555
Sr1A O2 1_555 1_555
Sr1_2 O3 1_555 1_555
Sr1C O5 1_555 1_555
O1B Sr1 1_555 1_555
O2A Sr1 1_555 1_555
O3A Sr1 1_555 1_555
O3_2 Sr1 1_555 1_555
O5C Sr1 1_555 1_555
O5B Sr1 1_555 1_555
O3 Sr1A 1_555 1_555
O5 Sr1B 1_555 1_555
N2 C5 1_555 1_555
C3 C4 1_555 1_555
C10 C11 1_555 1_555
Sr1B O1B 1_555 1_555
Sr1A O3A 1_555 1_555
Sr1A O5C 1_555 1_555

#END
