
#######################################################################
#
#                 Cambridge Crystallographic Data Centre
#                                CCDC 
#
#######################################################################
#
# If this CIF has been generated from an entry in the Cambridge 
# Structural Database, then it will include bibliographic, chemical, 
# crystal, experimental, refinement or atomic coordinate data resulting 
# from the CCDC's data processing and validation procedures.
#
#######################################################################

data_CEKWEW
_symmetry_cell_setting           rhombohedral
_symmetry_space_group_name_H-M   'R -3'
_symmetry_Int_Tables_number      148
_space_group_name_Hall           '-R 3'
loop_
_symmetry_equiv_pos_site_id
_symmetry_equiv_pos_as_xyz
1 x,y,z
2 -y,x-y,z
3 -x+y,-x,z
4 2/3+x,1/3+y,1/3+z
5 2/3-y,1/3+x-y,1/3+z
6 2/3-x+y,1/3-x,1/3+z
7 1/3+x,2/3+y,2/3+z
8 1/3-y,2/3+x-y,2/3+z
9 1/3-x+y,2/3-x,2/3+z
10 -x,-y,-z
11 y,-x+y,-z
12 x-y,x,-z
13 1/3-x,2/3-y,2/3-z
14 1/3+y,2/3-x+y,2/3-z
15 1/3+x-y,2/3+x,2/3-z
16 2/3-x,1/3-y,1/3-z
17 2/3+y,1/3-x+y,1/3-z
18 2/3+x-y,1/3+x,1/3-z
_cell_length_a                   24.3529(9)
_cell_length_b                   24.3529(9)
_cell_length_c                   14.2468(10)
_cell_angle_alpha                90
_cell_angle_beta                 90
_cell_angle_gamma                120
_cell_volume                     7317.27
loop_
_atom_site_label
_atom_site_type_symbol
_atom_site_fract_x
_atom_site_fract_y
_atom_site_fract_z
Co1 Co 0.74617(2) 0.01353(2) 1.01868(3)
Co2 Co 0.6667 -0.1667 1.3333
O1 O 0.73273(11) -0.00930(10) 1.16129(15)
O2 O 0.71680(12) -0.25685(10) 1.12608(15)
C1 C 0.8490(3) -0.0588(3) 0.6943(3)
C2 C 0.71365(16) -0.21064(15) 1.1615(2)
N1 N 0.75640(13) -0.06672(12) 1.02214(18)
N2 N 0.74680(13) -0.16291(12) 1.00719(17)
C3 C 0.72959(15) -0.15718(15) 1.0974(2)
O3 O 0.71091(15) -0.08485(12) 1.26347(17)
C4 C 0.73547(16) -0.09802(15) 1.1061(2)
C5 C 0.72512(15) -0.06331(14) 1.1820(2)
C6 C 0.76292(16) -0.10756(15) 0.9654(2)
C7 C 0.79034(19) -0.09034(17) 0.8707(2)
C8 C 0.8427(2) -0.0306(2) 0.8550(3)
H1 H 0.8583 -0.0009 0.9033
C9 C 0.7969(3) -0.1167(2) 0.7095(3)
H2 H 0.7811 -0.1460 0.6607
C10 C 0.8832(3) -0.0411(4) 0.6001(4)
H3 H 0.8884 -0.0755 0.5781
H4 H 0.9241 -0.0039 0.6074
H5 H 0.8587 -0.0328 0.5554
C11 C 0.8716(2) -0.0151(2) 0.7677(3)
H6 H 0.9066 0.0250 0.7580
C12 C 0.7668(2) -0.13310(19) 0.7964(3)
H7 H 0.7310 -0.1727 0.8049
O4 O 0.72125(16) 0.08614(14) 1.0521(3)
H8 H 0.7536 0.1210 1.0540
O5 O 0.64414(13) -0.04351(17) 1.0094(2)
O6 O 0.7500(2) -0.13117(19) 1.4209(3)
H9 H 0.7556 -0.1605 1.4360
O8 O 0.69859(14) -0.21152(12) 1.24561(16)
H10 H 0.693(3) 0.077(3) 1.098(4)
H13 H 0.635(3) -0.060(3) 0.955(2)
H14 H 0.633(6) -0.016(5) 1.018(5)
H15 H 0.784(2) -0.0987(6) 1.438(7)
Co1L Co 0.58716(2) -0.34686(2) 1.64799(3)
Co1K Co 0.73264(3) -0.25383(2) 0.98132(3)
Co1H Co 0.60069(3) -0.07950(2) 1.68535(3)
O1L O 0.60060(11) -0.32403(10) 1.50538(15)
O2L O 0.61653(12) -0.07648(10) 1.54059(15)
O2J O 0.74315(10) 0.02635(16) 0.87392(15)
O2G O 0.59018(10) -0.35968(16) 1.79275(15)
C1L C 0.4843(3) -0.2745(3) 1.9724(3)
C2L C 0.61968(16) -0.12269(15) 1.5052(2)
N1L N 0.57693(13) -0.26661(12) 1.64453(18)
N2L N 0.58653(13) -0.17042(12) 1.65948(17)
N2J N 0.83709(12) 0.09029(18) 0.99281(17)
N2G N 0.49624(12) -0.42362(18) 1.67386(17)
C3L C 0.60374(15) -0.17615(15) 1.5693(2)
O3L O 0.62242(15) -0.24848(12) 1.40320(17)
C4L C 0.59786(16) -0.23531(15) 1.5606(2)
C5L C 0.60821(15) -0.27002(14) 1.4847(2)
C6L C 0.57041(16) -0.22577(15) 1.7013(2)
C7L C 0.54299(19) -0.24299(17) 1.7960(2)
C8L C 0.4906(2) -0.3027(2) 1.8117(3)
H1L H 0.4750 -0.3324 1.7634
C9L C 0.5364(3) -0.2166(2) 1.9572(3)
H2L H 0.5522 -0.1873 2.0060
C10L C 0.4501(3) -0.2922(4) 2.0666(4)
H3L H 0.4449 -0.2578 2.0886
H4L H 0.4092 -0.3294 2.0593
H5L H 0.4746 -0.3005 2.1113
C11L C 0.4617(2) -0.3182(2) 1.8990(3)
H6L H 0.4267 -0.3583 1.9087
C12L C 0.5665(2) -0.20023(19) 1.8703(3)
H7L H 0.6023 -0.1606 1.8618
O4L O 0.61208(16) -0.41947(14) 1.6146(3)
H8L H 0.5797 -0.4543 1.6127
O5L O 0.68919(13) -0.28982(17) 1.6573(2)
O6L O 0.5833(2) -0.20216(19) 1.2458(3)
H9L H 0.5777 -0.1728 1.2307
O8L O 0.63474(14) -0.12181(12) 1.42106(16)
H10L H 0.640(3) -0.410(3) 1.569(4)
H13L H 0.698(3) -0.273(3) 1.712(2)
H14L H 0.700(6) -0.317(5) 1.649(5)
H15L H 0.549(2) -0.2346(6) 1.229(7)
O7 O 0.6696(3) 0.1058(2) 0.8567(5)
H11 H 0.661(4) 0.080(3) 0.812(3)
H12 H 0.675(5) 0.088(4) 0.905(3)
loop_
_geom_bond_atom_site_label_1
_geom_bond_atom_site_label_2
_geom_bond_site_symmetry_1
_geom_bond_site_symmetry_2
Co1 O1 1_555 1_555
Co2 O3 1_555 1_555
O1 C5 1_555 1_555
O2 C2 1_555 1_555
C1 C9 1_555 1_555
C2 C3 1_555 1_555
N1 Co1 1_555 1_555
N2 C3 1_555 1_555
C3 C4 1_555 1_555
O3 C5 1_555 1_555
C4 N1 1_555 1_555
C5 C4 1_555 1_555
C6 N1 1_555 1_555
C7 C6 1_555 1_555
C8 C7 1_555 1_555
H1 C8 1_555 1_555
C9 H2 1_555 1_555
C10 C1 1_555 1_555
H3 C10 1_555 1_555
H4 C10 1_555 1_555
H5 C10 1_555 1_555
C11 C1 1_555 1_555
H6 C11 1_555 1_555
C12 C7 1_555 1_555
H7 C12 1_555 1_555
O4 Co1 1_555 1_555
H8 O4 1_555 1_555
O5 Co1 1_555 1_555
O6 Co2 1_555 1_555
H9 O6 1_555 1_555
O7 H11 1_555 1_555
O8 Co2 1_555 1_555
H10 O4 1_555 1_555
H12 O7 1_555 1_555
H13 O5 1_555 1_555
H14 O5 1_555 1_555
H15 O6 1_555 1_555
Co1L O1L 1_555 1_555
Co1K O2 1_555 1_555
Co1H O2L 1_555 1_555
O1L C5L 1_555 1_555
O2L C2L 1_555 1_555
O2J Co1 1_555 1_555
O2G Co1L 1_555 1_555
C1L C9L 1_555 1_555
C2L C3L 1_555 1_555
N1L Co1L 1_555 1_555
N2L Co1H 1_555 1_555
N2J Co1 1_555 1_555
N2G Co1L 1_555 1_555
C3L N2L 1_555 1_555
O3L Co2 1_555 1_555
C4L N1L 1_555 1_555
C5L O3L 1_555 1_555
C6L N1L 1_555 1_555
C7L C6L 1_555 1_555
C8L C7L 1_555 1_555
H1L C8L 1_555 1_555
C9L H2L 1_555 1_555
C10L C1L 1_555 1_555
H3L C10L 1_555 1_555
H4L C10L 1_555 1_555
H5L C10L 1_555 1_555
C11L C1L 1_555 1_555
H6L C11L 1_555 1_555
C12L C7L 1_555 1_555
H7L C12L 1_555 1_555
O4L Co1L 1_555 1_555
H8L O4L 1_555 1_555
O5L Co1L 1_555 1_555
O6L Co2 1_555 1_555
H9L O6L 1_555 1_555
O8L Co2 1_555 1_555
H10L O4L 1_555 1_555
H13L O5L 1_555 1_555
H14L O5L 1_555 1_555
H15L O6L 1_555 1_555
C2 O8 1_555 1_555
N2 C6 1_555 1_555
N2 Co1K 1_555 1_555
C8 C11 1_555 1_555
C9 C12 1_555 1_555
C2L O8L 1_555 1_555
N2L C6L 1_555 1_555
C3L C4L 1_555 1_555
C4L C5L 1_555 1_555
C8L C11L 1_555 1_555
C9L C12L 1_555 1_555

#END
