
#######################################################################
#
#                 Cambridge Crystallographic Data Centre
#                                CCDC 
#
#######################################################################
#
# If this CIF has been generated from an entry in the Cambridge 
# Structural Database, then it will include bibliographic, chemical, 
# crystal, experimental, refinement or atomic coordinate data resulting 
# from the CCDC's data processing and validation procedures.
#
#######################################################################

data_CEKYIC
_symmetry_cell_setting           orthorhombic
_symmetry_space_group_name_H-M   'C 2 2 21'
_symmetry_Int_Tables_number      20
_space_group_name_Hall           'C 2n 2'
loop_
_symmetry_equiv_pos_site_id
_symmetry_equiv_pos_as_xyz
1 x,y,z
2 -x,-y,1/2+z
3 x,-y,-z
4 -x,y,1/2-z
5 1/2+x,1/2+y,z
6 1/2-x,1/2-y,1/2+z
7 1/2+x,1/2-y,-z
8 1/2-x,1/2+y,1/2-z
_cell_length_a                   11.271(3)
_cell_length_b                   10.788(3)
_cell_length_c                   30.697(5)
_cell_angle_alpha                90
_cell_angle_beta                 90
_cell_angle_gamma                90
_cell_volume                     3732.5
loop_
_atom_site_label
_atom_site_type_symbol
_atom_site_fract_x
_atom_site_fract_y
_atom_site_fract_z
Cd1 Cd 0.70025(16) 0.5000 0.5000
Cd2 Cd 0.69600(18) 0.0000 0.5000
Cd3 Cd 0.31698(11) -0.04525(8) 0.67149(3)
Cd4 Cd -0.20306(11) -0.09035(7) 0.64792(3)
O1 O -0.0432(9) -0.1819(7) 0.6785(3)
O2 O 0.1168(8) -0.0683(7) 0.6632(3)
O3 O 0.2612(9) -0.2182(7) 0.7115(3)
H1 H 0.2580 -0.1689 0.7331
O4 O 0.1787(8) -0.3969(6) 0.6526(2)
H2 H 0.2288 -0.3328 0.6391
O5 O 0.2475(8) -0.5541(7) 0.7178(2)
O6 O 0.1395(9) -0.4488(7) 0.7666(3)
O7 O 0.6270(9) 0.2020(7) 0.4916(3)
O8 O 0.5740(9) 0.3673(7) 0.5313(3)
O9 O 0.5581(10) 0.0501(8) 0.5574(3)
H3 H 0.5475 0.0131 0.5815
O10 O 0.3543(8) 0.1501(6) 0.5090(2)
H4 H 0.3547 0.2266 0.4961
O11 O 0.2598(8) 0.0059(7) 0.5711(2)
O12 O 0.3545(9) 0.1092(7) 0.6252(3)
O13 O 0.8044(10) -0.0255(6) 0.5767(2)
O14 O 0.8497(9) 0.1212(6) 0.5297(3)
O15 O 0.9463(8) 0.0750(6) 0.6394(3)
H5 H 1.0032 0.0036 0.6469
O16 O 0.8286(9) 0.2961(6) 0.6121(2)
H6 H 0.7903 0.3254 0.5900
O17 O 1.1439(9) 0.2962(7) 0.6221(3)
O18 O 1.0043(8) 0.3820(7) 0.6627(3)
C1 C 0.0643(14) -0.1599(11) 0.6816(4)
C2 C 0.1374(13) -0.2467(11) 0.7096(4)
H7 H 0.1063 -0.2414 0.7393
C3 C 0.1241(11) -0.3821(9) 0.6947(4)
H8 H 0.0393 -0.4001 0.6917
C4 C 0.1751(14) -0.4694(10) 0.7285(3)
C5 C 0.5793(14) 0.2518(12) 0.5246(4)
C6 C 0.5220(13) 0.1750(11) 0.5595(4)
H9 H 0.5419 0.2091 0.5882
C7 C 0.3868(13) 0.1812(10) 0.5526(4)
H10 H 0.3602 0.2660 0.5586
C8 C 0.3246(13) 0.0914(10) 0.5859(4)
C9 C 0.8665(12) 0.0699(11) 0.5654(4)
C10 C 0.9583(12) 0.1226(9) 0.5965(4)
H11 H 1.0376 0.1023 0.5856
C11 C 0.9454(13) 0.2676(10) 0.5988(4)
H12 H 0.9594 0.3027 0.5698
C12 C 1.0389(14) 0.3210(10) 0.6312(4)
Cd1D Cd 0.20025(16) 0.0000 0.5000
Cd1D_2 Cd 0.20025(16) 1.0000 0.5000
Cd2_2 Cd 0.69600(18) 1.0000 0.5000
Cd3B Cd 0.31698(11) 1.04525(8) 0.32851(3)
Cd3G Cd 0.18302(11) -0.54525(8) 0.82851(3)
Cd3D Cd 0.81698(11) 0.45475(8) 0.67149(3)
Cd3F Cd 0.81698(11) -0.45475(8) 0.32851(3)
Cd3G_2 Cd 0.18302(11) 0.45475(8) 0.82851(3)
Cd4G Cd 0.70306(11) 0.40965(7) 0.85208(3)
Cd4D Cd 0.29694(11) -0.59035(7) 0.64792(3)
Cd4_2 Cd 0.79694(11) -0.09035(7) 0.64792(3)
Cd4D_2 Cd 1.29694(11) 0.40965(7) 0.64792(3)
Cd4B Cd 0.79694(11) 0.09035(7) 0.35208(3)
Cd4F Cd 1.29694(11) -0.40965(7) 0.35208(3)
Cd4C Cd 0.20306(11) -0.09035(7) 0.85208(3)
O1G O 0.5432(9) 0.3181(7) 0.8215(3)
O2G O 0.3832(8) 0.4317(7) 0.8368(3)
O2B O 0.1168(8) 1.0683(7) 0.3368(3)
O3G O 0.2388(9) 0.2818(7) 0.7885(3)
O3B O 0.2612(9) 1.2182(7) 0.2885(3)
H1G H 0.2420 0.3311 0.7669
H1B H 0.2580 1.1689 0.2669
O4G O 0.3213(8) 0.1031(6) 0.8474(2)
O4D O -0.3213(8) 0.1031(6) 0.6526(2)
O4C O 0.8213(8) 0.6031(6) 0.8474(2)
H2G H 0.2712 0.1672 0.8609
H2D H -0.2712 0.1672 0.6391
H2C H 0.7712 0.6672 0.8609
O5G O 0.2525(8) -0.0541(7) 0.7822(2)
O5D O -0.2525(8) -0.0541(7) 0.7178(2)
O5C O 0.7525(8) 0.4459(7) 0.7822(2)
O6G O 0.3605(9) 0.0512(7) 0.7334(3)
O6E O 0.3605(9) 0.9488(7) 0.2666(3)
O7B O 0.6270(9) 0.7980(7) 0.5084(3)
O7B_2 O 0.6270(9) -0.2020(7) 0.5084(3)
O8B O 0.5740(9) 0.6327(7) 0.4687(3)
O9B O 0.5581(10) 0.9499(8) 0.4426(3)
O9B_2 O 0.5581(10) -0.0501(8) 0.4426(3)
H3B H 0.5475 0.9869 0.4185
H3B_2 H 0.5475 -0.0131 0.4185
O10B O 0.3543(8) 0.8499(6) 0.4910(2)
O10D O 0.8543(8) 0.6501(6) 0.5090(2)
O10F O 0.8543(8) 0.3499(6) 0.4910(2)
H4B H 0.3547 0.7734 0.5039
H4D H 0.8547 0.7266 0.4961
H4F H 0.8547 0.2734 0.5039
O11B O 0.2598(8) 0.9941(7) 0.4289(2)
O11D O 0.7598(8) 0.5059(7) 0.5711(2)
O11F O 0.7598(8) 0.4941(7) 0.4289(2)
O12B O 0.3545(9) 0.8908(7) 0.3748(3)
O13B O 0.8044(10) 0.0255(6) 0.4233(2)
O13_2 O -0.1956(10) -0.0255(6) 0.5767(2)
O13G O 0.6956(10) 0.4745(6) 0.9233(2)
O14B O 0.8497(9) -0.1212(6) 0.4703(3)
O15B O 0.9463(8) -0.0750(6) 0.3606(3)
O15_2 O -0.0537(8) 0.0750(6) 0.6394(3)
O15G O 0.5537(8) 0.5750(6) 0.8606(3)
H5B H 1.0032 -0.0036 0.3531
H5_2 H 0.0032 0.0036 0.6469
H5G H 0.4968 0.5036 0.8531
O16B O 0.8286(9) -0.2961(6) 0.3879(2)
O16D O 0.3286(9) -0.2039(6) 0.6121(2)
O16F O 0.3286(9) 1.2039(6) 0.3879(2)
H6B H 0.7903 -0.3254 0.4100
H6D H 0.2903 -0.1746 0.5900
H6F H 0.2903 1.1746 0.4100
O17B O 1.1439(9) -0.2962(7) 0.3779(3)
O17D O -0.3561(9) -0.2038(7) 0.6221(3)
O17C O 0.8561(9) 0.2962(7) 0.8779(3)
O18B O 1.0043(8) -0.3820(7) 0.3373(3)
O18D O 0.5043(8) -0.1180(7) 0.6627(3)
O18F O 0.5043(8) 1.1180(7) 0.3373(3)
C1G C 0.4357(14) 0.3401(11) 0.8184(4)
C2G C 0.3626(13) 0.2533(11) 0.7904(4)
H7G H 0.3937 0.2586 0.7607
C3G C 0.3759(11) 0.1179(9) 0.8053(4)
H8G H 0.4607 0.0999 0.8083
C4G C 0.3249(14) 0.0306(10) 0.7715(3)
C5B C 0.5793(14) 0.7482(12) 0.4754(4)
C6B C 0.5220(13) 0.8250(11) 0.4405(4)
H9B H 0.5419 0.7909 0.4118
C7B C 0.3868(13) 0.8188(10) 0.4474(4)
H10B H 0.3602 0.7340 0.4414
C8B C 0.3246(13) 0.9086(10) 0.4141(4)
C9B C 0.8665(12) -0.0699(11) 0.4346(4)
C10B C 0.9583(12) -0.1226(9) 0.4035(4)
H11B H 1.0376 -0.1023 0.4144
C11B C 0.9454(13) -0.2676(10) 0.4012(4)
H12B H 0.9594 -0.3027 0.4302
C12B C 1.0389(14) -0.3210(10) 0.3688(4)
O19 O 0.092(3) 0.2022(19) 0.7296(7)
O20? O 0.0000 0.127(4) 0.7500
loop_
_geom_bond_atom_site_label_1
_geom_bond_atom_site_label_2
_geom_bond_site_symmetry_1
_geom_bond_site_symmetry_2
Cd1 O8 1_555 1_555
Cd2 O7 1_555 1_555
Cd3 O2 1_555 1_555
Cd4 O1 1_555 1_555
O1 C1 1_555 1_555
O2 C1 1_555 1_555
O3 Cd3 1_555 1_555
H1 O3 1_555 1_555
O4 H2 1_555 1_555
O5 C4 1_555 1_555
O6 C4 1_555 1_555
O7 C5 1_555 1_555
O8 C5 1_555 1_555
O9 Cd2 1_555 1_555
H3 O9 1_555 1_555
O10 H4 1_555 1_555
O11 C8 1_555 1_555
O12 Cd3 1_555 1_555
O13 C9 1_555 1_555
O14 Cd2 1_555 1_555
O15 H5 1_555 1_555
O16 H6 1_555 1_555
O17 C12 1_555 1_555
O18 C12 1_555 1_555
C1 C2 1_555 1_555
C2 O3 1_555 1_555
H7 C2 1_555 1_555
C3 O4 1_555 1_555
H8 C3 1_555 1_555
C4 C3 1_555 1_555
C5 C6 1_555 1_555
C6 O9 1_555 1_555
H9 C6 1_555 1_555
C7 O10 1_555 1_555
H10 C7 1_555 1_555
C8 O12 1_555 1_555
C9 O14 1_555 1_555
C10 O15 1_555 1_555
H11 C10 1_555 1_555
C11 O16 1_555 1_555
H12 C11 1_555 1_555
C12 C11 1_555 1_555
Cd1D O10 1_555 1_555
Cd1D_2 O10B 1_555 1_555
Cd2_2 O7B 1_555 1_555
Cd3B O2B 1_555 1_555
Cd3G O6 1_555 1_555
Cd3D O16 1_555 1_555
Cd3F O16B 1_555 1_555
Cd3G_2 O2G 1_555 1_555
Cd4G O1G 1_555 1_555
Cd4D O4 1_555 1_555
Cd4_2 O13 1_555 1_555
Cd4D_2 O17 1_555 1_555
Cd4B O13B 1_555 1_555
Cd4F O17B 1_555 1_555
Cd4C O4G 1_555 1_555
O1G C1G 1_555 1_555
O2G C1G 1_555 1_555
O3G Cd3G_2 1_555 1_555
O3B Cd3B 1_555 1_555
H1G O3G 1_555 1_555
H1B O3B 1_555 1_555
O4G H2G 1_555 1_555
O4D Cd4 1_555 1_555
O4C Cd4G 1_555 1_555
H2D O4D 1_555 1_555
H2C O4C 1_555 1_555
O5G Cd4C 1_555 1_555
O5D Cd4 1_555 1_555
O5C Cd4G 1_555 1_555
O6G Cd3 1_555 1_555
O6E Cd3B 1_555 1_555
O7B C5B 1_555 1_555
O7B_2 Cd2 1_555 1_555
O8B Cd1 1_555 1_555
O9B Cd2_2 1_555 1_555
O9B_2 Cd2 1_555 1_555
H3B O9B 1_555 1_555
H3B_2 O9B_2 1_555 1_555
O10B H4B 1_555 1_555
O10D Cd1 1_555 1_555
O10F Cd1 1_555 1_555
H4D O10D 1_555 1_555
H4F O10F 1_555 1_555
O11B Cd1D_2 1_555 1_555
O11D Cd1 1_555 1_555
O11F Cd1 1_555 1_555
O12B Cd3B 1_555 1_555
O13B C9B 1_555 1_555
O13_2 Cd4 1_555 1_555
O13G Cd4G 1_555 1_555
O14B Cd2 1_555 1_555
O15B Cd4B 1_555 1_555
O15_2 Cd4 1_555 1_555
O15G Cd4G 1_555 1_555
H5B O15B 1_555 1_555
H5_2 O15_2 1_555 1_555
H5G O15G 1_555 1_555
O16B H6B 1_555 1_555
O16D Cd3 1_555 1_555
O16F Cd3B 1_555 1_555
H6D O16D 1_555 1_555
H6F O16F 1_555 1_555
O17B C12B 1_555 1_555
O17D Cd4 1_555 1_555
O17C Cd4G 1_555 1_555
O18B Cd3F 1_555 1_555
O18D Cd3 1_555 1_555
O18F Cd3B 1_555 1_555
C1G C2G 1_555 1_555
C2G O3G 1_555 1_555
H7G C2G 1_555 1_555
C3G O4G 1_555 1_555
H8G C3G 1_555 1_555
C4G O5G 1_555 1_555
C5B O8B 1_555 1_555
C6B O9B 1_555 1_555
H9B C6B 1_555 1_555
C7B O10B 1_555 1_555
H10B C7B 1_555 1_555
C8B O11B 1_555 1_555
C9B O14B 1_555 1_555
C10B O15B 1_555 1_555
H11B C10B 1_555 1_555
C11B O16B 1_555 1_555
H12B C11B 1_555 1_555
C12B O18B 1_555 1_555
O5 Cd4D 1_555 1_555
O11 Cd1D 1_555 1_555
O15 Cd4_2 1_555 1_555
O18 Cd3D 1_555 1_555
C2 C3 1_555 1_555
C6 C7 1_555 1_555
C7 C8 1_555 1_555
C9 C10 1_555 1_555
C10 C11 1_555 1_555
O6G C4G 1_555 1_555
O12B C8B 1_555 1_555
C2G C3G 1_555 1_555
C3G C4G 1_555 1_555
C5B C6B 1_555 1_555
C6B C7B 1_555 1_555
C7B C8B 1_555 1_555
C9B C10B 1_555 1_555
C10B C11B 1_555 1_555
C11B C12B 1_555 1_555

#END
