
#######################################################################
#
#                 Cambridge Crystallographic Data Centre
#                                CCDC 
#
#######################################################################
#
# If this CIF has been generated from an entry in the Cambridge 
# Structural Database, then it will include bibliographic, chemical, 
# crystal, experimental, refinement or atomic coordinate data resulting 
# from the CCDC's data processing and validation procedures.
#
#######################################################################

data_CEKYEY
_symmetry_cell_setting           orthorhombic
_symmetry_space_group_name_H-M   'P n a 21'
_symmetry_Int_Tables_number      33
_space_group_name_Hall           'P 2c -2n'
loop_
_symmetry_equiv_pos_site_id
_symmetry_equiv_pos_as_xyz
1 x,y,z
2 -x,-y,1/2+z
3 1/2-x,1/2+y,1/2+z
4 1/2+x,1/2-y,z
_cell_length_a                   8.9120(10)
_cell_length_b                   16.166(2)
_cell_length_c                   9.6490(10)
_cell_angle_alpha                90
_cell_angle_beta                 90
_cell_angle_gamma                90
_cell_volume                     1390.14
loop_
_atom_site_label
_atom_site_type_symbol
_atom_site_fract_x
_atom_site_fract_y
_atom_site_fract_z
Cd1 Cd 0.86240(3) 0.814476(15) 1.86703(4)
O1 O 1.0819(4) 0.89227(19) 1.8741(6)
O2 O 0.8610(6) 0.8035(3) 2.1025(8)
O3 O 1.0386(7) 0.8971(3) 2.1454(5)
O4 O 0.7758(4) 0.94916(16) 1.8589(5)
O5 O 0.6014(4) 0.80176(18) 1.8619(11)
O6 O 0.3610(4) 0.82466(18) 1.8313(4)
N1 N 0.8725(7) 0.8254(4) 2.6208(10)
N2 N 0.6793(6) 1.0504(3) 1.7278(5)
H1 H 0.7660 1.0737 1.7292
C1 C 0.8110(10) 0.7709(4) 2.5368(6)
H2 H 0.7547 0.7280 2.5746
C2 C 0.8273(8) 0.7752(4) 2.3909(8)
H3 H 0.7819 0.7365 2.3333
C3 C 0.9133(7) 0.8390(3) 2.3368(5)
C4 C 0.9684(7) 0.8979(3) 2.4280(6)
H4 H 1.0186 0.9439 2.3934
C5 C 0.9503(9) 0.8895(4) 2.5672(6)
H5 H 0.9921 0.9286 2.6264
C6 C 0.9394(7) 0.8474(4) 2.1833(6)
C7 C 0.5659(8) 1.0903(3) 1.6619(6)
H6 H 0.5835 1.1418 1.6223
C8 C 0.4291(8) 1.0566(3) 1.6529(7)
H7 H 0.3506 1.0843 1.6097
C9 C 0.4085(7) 0.9771(3) 1.7119(7)
H8 H 0.3144 0.9524 1.7062
C10 C 0.5221(6) 0.9353(3) 1.7771(6)
C11 C 0.6640(6) 0.9747(3) 1.7928(6)
C12 C 0.4946(6) 0.8487(3) 1.8271(5)
H9 H 1.169(3) 0.871(3) 1.867(11)
H10 H 1.080(8) 0.888(4) 1.962(2)
Cd1C Cd 0.36240(3) 0.685524(15) 1.86703(4)
Cd1_2 Cd 0.86240(3) 0.814476(15) 2.86703(4)
O6C O 0.8610(4) 0.67534(18) 1.8313(4)
N1_2 N 0.8725(7) 0.8254(4) 1.6208(10)
loop_
_geom_bond_atom_site_label_1
_geom_bond_atom_site_label_2
_geom_bond_site_symmetry_1
_geom_bond_site_symmetry_2
Cd1 O1 1_555 1_555
O1 H9 1_555 1_555
O2 Cd1 1_555 1_555
O3 C6 1_555 1_555
O4 Cd1 1_555 1_555
O5 Cd1 1_555 1_555
O6 C12 1_555 1_555
N1 C1 1_555 1_555
N2 H1 1_555 1_555
C1 H2 1_555 1_555
C2 C1 1_555 1_555
H3 C2 1_555 1_555
C3 C2 1_555 1_555
C4 C3 1_555 1_555
H4 C4 1_555 1_555
C5 N1 1_555 1_555
H5 C5 1_555 1_555
C6 O2 1_555 1_555
C7 N2 1_555 1_555
H6 C7 1_555 1_555
C8 C7 1_555 1_555
H7 C8 1_555 1_555
C9 C8 1_555 1_555
H8 C9 1_555 1_555
C10 C9 1_555 1_555
C11 O4 1_555 1_555
C12 O5 1_555 1_555
H10 O1 1_555 1_555
Cd1C O6 1_555 1_555
Cd1_2 N1 1_555 1_555
O6C Cd1 1_555 1_555
N1_2 Cd1 1_555 1_555
N2 C11 1_555 1_555
C3 C6 1_555 1_555
C4 C5 1_555 1_555
C10 C11 1_555 1_555
C10 C12 1_555 1_555

#END
