
#######################################################################
#
#                 Cambridge Crystallographic Data Centre
#                                CCDC 
#
#######################################################################
#
# If this CIF has been generated from an entry in the Cambridge 
# Structural Database, then it will include bibliographic, chemical, 
# crystal, experimental, refinement or atomic coordinate data resulting 
# from the CCDC's data processing and validation procedures.
#
#######################################################################

data_CELDAA
_symmetry_cell_setting           triclinic
_symmetry_space_group_name_H-M   'P -1'
_symmetry_Int_Tables_number      2
_space_group_name_Hall           '-P 1'
loop_
_symmetry_equiv_pos_site_id
_symmetry_equiv_pos_as_xyz
1 x,y,z
2 -x,-y,-z
_cell_length_a                   6.2473(4)
_cell_length_b                   10.2116(7)
_cell_length_c                   10.2756(6)
_cell_angle_alpha                102.396(6)
_cell_angle_beta                 91.629(5)
_cell_angle_gamma                101.783(6)
_cell_volume                     624.965
loop_
_atom_site_label
_atom_site_type_symbol
_atom_site_fract_x
_atom_site_fract_y
_atom_site_fract_z
Ce1 Ce 0.5061(4) 0.4835(2) 0.2450(2)
O1 O 0.114(6) 0.387(3) 0.291(3)
O2 O -0.162(6) 0.391(3) 0.152(3)
O3 O 0.520(6) 0.295(4) 0.350(4)
O4 O 0.606(6) 0.373(3) 0.566(4)
C1 C -0.293(7) -0.267(4) 0.076(5)
O5 O -0.270(6) -0.331(3) 0.166(4)
C2 C 0.553(7) 0.276(4) 0.465(5)
O6 O -0.373(6) -0.322(3) -0.039(3)
C3 C -0.111(8) -0.044(5) 0.235(5)
C4 C -0.269(7) -0.040(4) 0.019(5)
C5 C 0.524(8) 0.131(5) 0.481(5)
C6 C -0.216(8) 0.102(4) 0.051(5)
C7 C 0.435(8) 0.023(5) 0.377(5)
C8 C -0.048(7) 0.327(4) 0.206(4)
C9 C -0.220(7) -0.112(4) 0.114(5)
C10 C -0.108(7) 0.172(4) 0.174(4)
C11 C 0.592(8) 0.110(5) 0.605(5)
H1 H 0.6535 0.1842 0.6748
C12 C -0.050(7) 0.101(5) 0.266(5)
H2 H 0.0274 0.1476 0.3469
O7 O 0.233(6) 0.598(3) 0.131(3)
H3 H 0.2801 0.6510 0.0687
H4 H 0.0865 0.5878 0.1516
O8 O 0.848(6) 0.590(4) 0.416(3)
H5 H 0.8408 0.6551 0.4861
H6 H 0.9702 0.5617 0.4033
H7 H 0.41(7) 0.05(4) 0.30(4)
H8 H -0.08(7) -0.10(4) 0.29(4)
H9 H -0.26(7) 0.14(4) -0.03(4)
H10 H -0.34(7) -0.09(4) -0.07(4)
Ce1_2 Ce 1.5061(4) 0.4835(2) 0.2450(2)
Ce1_3 Ce -0.4939(4) 0.4835(2) 0.2450(2)
Ce1A Ce 0.4939(4) 0.5165(2) 0.7550(2)
Ce1_4 Ce -0.4939(4) -0.5165(2) 0.2450(2)
Ce1A_2 Ce -0.5061(4) -0.4835(2) -0.2450(2)
Ce1A_3 Ce 0.4939(4) -0.4835(2) 0.7550(2)
Ce1_5 Ce 0.5061(4) -0.5165(2) 0.2450(2)
Ce1A_4 Ce 0.4939(4) -0.4835(2) -0.2450(2)
O1_2 O 1.114(6) 0.387(3) 0.291(3)
O2_2 O 0.838(6) 0.391(3) 0.152(3)
O2_3 O 1.838(6) 0.391(3) 0.152(3)
O3A O 0.480(6) -0.295(4) 0.650(4)
O3_2 O 1.520(6) 0.295(4) 0.350(4)
O4A O 0.394(6) -0.373(3) 0.434(4)
O4A_2 O 0.394(6) 0.627(3) 0.434(4)
O4A_3 O 1.394(6) 0.627(3) 0.434(4)
C1_2 C 0.707(7) -0.267(4) 0.076(5)
O5_2 O 0.730(6) -0.331(3) 0.166(4)
O5_3 O 0.730(6) 0.669(3) 0.166(4)
O5_4 O 1.730(6) 0.669(3) 0.166(4)
C2A C 0.447(7) -0.276(4) 0.535(5)
O6_2 O 0.627(6) -0.322(3) -0.039(3)
O6A O 0.373(6) 0.322(3) 0.039(3)
O6A_2 O 1.373(6) 0.322(3) 0.039(3)
C3_2 C 0.889(8) -0.044(5) 0.235(5)
C4_2 C 0.731(7) -0.040(4) 0.019(5)
C5A C 0.476(8) -0.131(5) 0.519(5)
C6_2 C 0.784(8) 0.102(4) 0.051(5)
C7A C 0.565(8) -0.023(5) 0.623(5)
C8_2 C 0.952(7) 0.327(4) 0.206(4)
C9_2 C 0.780(7) -0.112(4) 0.114(5)
C10_2 C 0.892(7) 0.172(4) 0.174(4)
C11A C 0.408(8) -0.110(5) 0.395(5)
H1A H 0.3465 -0.1842 0.3252
C12_2 C 0.950(7) 0.101(5) 0.266(5)
H2_2 H 1.0274 0.1476 0.3469
O7_2 O 1.233(6) 0.598(3) 0.131(3)
H3_2 H 1.2801 0.6510 0.0687
H4_2 H 1.0865 0.5878 0.1516
O8_2 O 1.848(6) 0.590(4) 0.416(3)
H5_2 H 1.8408 0.6551 0.4861
H6_2 H 1.9702 0.5617 0.4033
H7A H 0.59(7) -0.05(4) 0.70(4)
H8_2 H 0.92(7) -0.10(4) 0.29(4)
H9_2 H 0.74(7) 0.14(4) -0.03(4)
H10_2 H 0.66(7) -0.09(4) -0.07(4)
loop_
_geom_bond_atom_site_label_1
_geom_bond_atom_site_label_2
_geom_bond_site_symmetry_1
_geom_bond_site_symmetry_2
Ce1 O1 1_555 1_555
O1 C8 1_555 1_555
O2 C8 1_555 1_555
O3 Ce1 1_555 1_555
O4 C2 1_555 1_555
C1 O5 1_555 1_555
O5 Ce1_4 1_555 1_555
C2 O3 1_555 1_555
O6 C1 1_555 1_555
C3 C9 1_555 1_555
C4 C6 1_555 1_555
C5 C2 1_555 1_555
C6 C10 1_555 1_555
C7 C5 1_555 1_555
C8 C10 1_555 1_555
C9 C1 1_555 1_555
C10 C12 1_555 1_555
C11 C5 1_555 1_555
H1 C11 1_555 1_555
C12 C3 1_555 1_555
H2 C12 1_555 1_555
O7 Ce1 1_555 1_555
H3 O7 1_555 1_555
H4 O7 1_555 1_555
O8 Ce1 1_555 1_555
H5 O8 1_555 1_555
H6 O8 1_555 1_555
H7 C7 1_555 1_555
H8 C3 1_555 1_555
H9 C6 1_555 1_555
H10 C4 1_555 1_555
Ce1_2 O1_2 1_555 1_555
Ce1_3 O2 1_555 1_555
Ce1A O4 1_555 1_555
Ce1A_2 O6 1_555 1_555
Ce1A_3 O3A 1_555 1_555
Ce1_5 O4A 1_555 1_555
Ce1A_4 O6_2 1_555 1_555
O1_2 C8_2 1_555 1_555
O2_2 Ce1 1_555 1_555
O2_3 Ce1_2 1_555 1_555
O3A C2A 1_555 1_555
O3_2 Ce1_2 1_555 1_555
O4A C2A 1_555 1_555
O4A_2 Ce1 1_555 1_555
O4A_3 Ce1_2 1_555 1_555
C1_2 O5_2 1_555 1_555
O5_2 Ce1_5 1_555 1_555
O5_3 Ce1 1_555 1_555
O5_4 Ce1_2 1_555 1_555
C2A C5A 1_555 1_555
O6_2 C1_2 1_555 1_555
O6A Ce1 1_555 1_555
O6A_2 Ce1_2 1_555 1_555
C3_2 C9_2 1_555 1_555
C4_2 C6_2 1_555 1_555
C5A C7A 1_555 1_555
C6_2 C10_2 1_555 1_555
C7A C11 1_555 1_555
C8_2 O2_2 1_555 1_555
C9_2 C1_2 1_555 1_555
C10_2 C8_2 1_555 1_555
C11A C7 1_555 1_555
H1A C11A 1_555 1_555
C12_2 C3_2 1_555 1_555
H2_2 C12_2 1_555 1_555
O7_2 Ce1_2 1_555 1_555
H3_2 O7_2 1_555 1_555
H4_2 O7_2 1_555 1_555
O8_2 Ce1_2 1_555 1_555
H5_2 O8_2 1_555 1_555
H6_2 O8_2 1_555 1_555
H7A C7A 1_555 1_555
H8_2 C3_2 1_555 1_555
H9_2 C6_2 1_555 1_555
H10_2 C4_2 1_555 1_555
C4 C9 1_555 1_555
C4_2 C9_2 1_555 1_555
C5A C11A 1_555 1_555
C10_2 C12_2 1_555 1_555

#END
