
#######################################################################
#
#                 Cambridge Crystallographic Data Centre
#                                CCDC 
#
#######################################################################
#
# If this CIF has been generated from an entry in the Cambridge 
# Structural Database, then it will include bibliographic, chemical, 
# crystal, experimental, refinement or atomic coordinate data resulting 
# from the CCDC's data processing and validation procedures.
#
#######################################################################

data_CELDII
_symmetry_cell_setting           orthorhombic
_symmetry_space_group_name_H-M   'P 21 21 21'
_symmetry_Int_Tables_number      19
_space_group_name_Hall           'P 2ac 2ab'
loop_
_symmetry_equiv_pos_site_id
_symmetry_equiv_pos_as_xyz
1 x,y,z
2 1/2-x,-y,1/2+z
3 -x,1/2+y,1/2-z
4 1/2+x,1/2-y,-z
_cell_length_a                   6.9652(14)
_cell_length_b                   15.046(3)
_cell_length_c                   19.065(4)
_cell_angle_alpha                90
_cell_angle_beta                 90
_cell_angle_gamma                90
_cell_volume                     1997.98
loop_
_atom_site_label
_atom_site_type_symbol
_atom_site_fract_x
_atom_site_fract_y
_atom_site_fract_z
C1 C -0.3758(2) -0.50928(10) 0.12854(8)
C2 C -0.4304(2) -0.60319(11) 0.15281(10)
H1 H -0.3428 -0.6471 0.1323
C3 C -0.4217(3) -0.60729(18) 0.23238(12)
H2 H -0.5091 -0.5646 0.2518
H3 H -0.2935 -0.5941 0.2477
H4 H -0.4569 -0.6658 0.2478
C4 C -0.6803(2) -0.62996(12) 0.06626(9)
C5 C -0.8745(3) -0.61691(12) 0.05480(9)
H5 H -0.9546 -0.6034 0.0923
C6 C -0.9506(2) -0.62374(13) -0.01209(9)
H6 H -1.0811 -0.6145 -0.0192
C7 C -0.8333(2) -0.64420(12) -0.06822(9)
C8 C -0.6381(3) -0.65756(13) -0.05644(10)
H7 H -0.5578 -0.6712 -0.0939
C9 C -0.5625(2) -0.65073(14) 0.01042(10)
H8 H -0.4321 -0.6602 0.0178
C10 C -1.0909(2) -0.63709(14) -0.14937(8)
H9 H -1.1253 -0.5780 -0.1334
H10 H -1.1665 -0.6797 -0.1230
C11 C -1.1355(2) -0.64595(11) -0.22696(8)
C12 C -0.0914(3) -0.17997(14) 0.22322(11)
H11 H -0.0967 -0.2088 0.2663
C13 C -0.0786(3) -0.08888(15) 0.22268(14)
H12 H -0.0722 -0.0570 0.2644
C14 C -0.0753(3) -0.04601(13) 0.15905(16)
H13 H -0.0689 0.0157 0.1571
C15 C -0.0815(3) -0.09563(13) 0.09793(13)
H14 H -0.0795 -0.0674 0.0545
C16 C -0.0907(2) -0.18739(11) 0.10178(10)
C17 C -0.0934(2) -0.24735(11) 0.04088(9)
C18 C -0.0824(3) -0.21870(13) -0.02839(11)
H15 H -0.0765 -0.1583 -0.0387
C19 C -0.0803(3) -0.28065(16) -0.08159(10)
H16 H -0.0725 -0.2626 -0.1282
C20 C -0.0898(3) -0.36921(16) -0.06501(10)
H17 H -0.0879 -0.4121 -0.1002
C21 C -0.1023(3) -0.39390(12) 0.00456(10)
H18 H -0.1089 -0.4540 0.0156
Cu1 Cu -0.13153(2) -0.363440(12) 0.158760(9)
N1 N -0.1053(2) -0.33456(9) 0.05666(7)
N2 N -0.09682(19) -0.22935(9) 0.16467(8)
O1 O -0.62436(17) -0.62475(9) 0.13579(6)
O2 O -0.20255(15) -0.48839(7) 0.14322(6)
O3 O -0.49476(19) -0.46193(9) 0.09944(8)
O4 O -0.89319(18) -0.65218(10) -0.13691(6)
O5 O -1.0145(2) -0.67047(10) -0.26930(7)
O6 O -1.31025(17) -0.62753(9) -0.24109(6)
O7 O 0.17779(17) -0.40314(10) 0.17735(8)
H19 H 0.2540 -0.4316 0.1507
H20 H 0.2399 -0.3727 0.2073
Cu1A Cu -1.36847(2) -0.636560(12) -0.341240(9)
O6A O -0.18975(17) -0.37247(9) 0.25891(6)
loop_
_geom_bond_atom_site_label_1
_geom_bond_atom_site_label_2
_geom_bond_site_symmetry_1
_geom_bond_site_symmetry_2
C1 C2 1_555 1_555
C2 H1 1_555 1_555
C3 C2 1_555 1_555
H2 C3 1_555 1_555
H3 C3 1_555 1_555
H4 C3 1_555 1_555
C4 C5 1_555 1_555
C5 H5 1_555 1_555
C6 C5 1_555 1_555
H6 C6 1_555 1_555
C7 C6 1_555 1_555
C8 C7 1_555 1_555
H7 C8 1_555 1_555
C9 C4 1_555 1_555
H8 C9 1_555 1_555
C10 H9 1_555 1_555
H10 C10 1_555 1_555
C11 C10 1_555 1_555
C12 H11 1_555 1_555
C13 C12 1_555 1_555
H12 C13 1_555 1_555
C14 C13 1_555 1_555
H13 C14 1_555 1_555
C15 C14 1_555 1_555
H14 C15 1_555 1_555
C16 C15 1_555 1_555
C17 C16 1_555 1_555
C18 C17 1_555 1_555
H15 C18 1_555 1_555
C19 C18 1_555 1_555
H16 C19 1_555 1_555
C20 C19 1_555 1_555
H17 C20 1_555 1_555
C21 C20 1_555 1_555
H18 C21 1_555 1_555
Cu1 N1 1_555 1_555
N1 C17 1_555 1_555
N2 C12 1_555 1_555
O1 C2 1_555 1_555
O2 C1 1_555 1_555
O3 C1 1_555 1_555
O4 C7 1_555 1_555
O5 C11 1_555 1_555
O6 C11 1_555 1_555
O7 Cu1 1_555 1_555
H19 O7 1_555 1_555
H20 O7 1_555 1_555
Cu1A O6 1_555 1_555
O6A Cu1 1_555 1_555
C4 O1 1_555 1_555
C8 C9 1_555 1_555
C10 O4 1_555 1_555
C16 N2 1_555 1_555
C21 N1 1_555 1_555
Cu1 N2 1_555 1_555
Cu1 O2 1_555 1_555

#END
