
#######################################################################
#
#                 Cambridge Crystallographic Data Centre
#                                CCDC 
#
#######################################################################
#
# If this CIF has been generated from an entry in the Cambridge 
# Structural Database, then it will include bibliographic, chemical, 
# crystal, experimental, refinement or atomic coordinate data resulting 
# from the CCDC's data processing and validation procedures.
#
#######################################################################

data_CELFIK
_symmetry_cell_setting           orthorhombic
_symmetry_space_group_name_H-M   'P 21 21 21'
_symmetry_Int_Tables_number      19
_space_group_name_Hall           'P 2ac 2ab'
loop_
_symmetry_equiv_pos_site_id
_symmetry_equiv_pos_as_xyz
1 x,y,z
2 1/2-x,-y,1/2+z
3 -x,1/2+y,1/2-z
4 1/2+x,1/2-y,-z
_cell_length_a                   6.721(6)
_cell_length_b                   11.2930(12)
_cell_length_c                   18.8513(15)
_cell_angle_alpha                90
_cell_angle_beta                 90
_cell_angle_gamma                90
_cell_volume                     1430.82
loop_
_atom_site_label
_atom_site_type_symbol
_atom_site_fract_x
_atom_site_fract_y
_atom_site_fract_z
Sn1 Sn -0.4056(2) 0.21373(11) -0.21638(7)
O1 O -0.490(2) 0.1810(11) -0.1084(6)
O2 O -0.602(3) 0.0006(11) -0.1396(7)
O3 O -0.743(2) -0.0310(11) -0.0014(7)
O4 O -0.151(2) -0.2713(13) 0.1448(8)
H1 H -0.1965 -0.3332 0.1606
C1 C -0.599(4) 0.0838(15) -0.0968(9)
C2 C -0.714(3) 0.0863(17) -0.0308(9)
H2 H -0.65(3) 0.136(16) 0.004(9)
C3 C -0.920(4) 0.135(2) -0.0447(13)
H3 H -0.9925 0.0801 -0.0741
H4 H -0.9099 0.2096 -0.0684
H5 H -0.9888 0.1447 -0.0005
C4 C -0.588(4) -0.0866(15) 0.0325(8)
C5 C -0.628(4) -0.1987(15) 0.0583(9)
H6 H -0.7509 -0.2335 0.0495
C6 C -0.487(4) -0.2588(16) 0.0968(12)
H7 H -0.5181 -0.3311 0.1177
C7 C -0.299(3) -0.2119(19) 0.1044(10)
C8 C -0.257(4) -0.1019(16) 0.0768(11)
H8 H -0.1323 -0.0680 0.0843
C9 C -0.398(4) -0.0421(16) 0.0382(11)
H9 H -0.3650 0.0287 0.0158
C10 C -0.702(3) 0.220(2) -0.2570(10)
H10 H -0.6999 0.2508 -0.3044
H11 H -0.7821 0.2694 -0.2274
H12 H -0.7565 0.1410 -0.2577
C11 C -0.218(3) 0.066(2) -0.2347(11)
H13 H -0.0965 0.0925 -0.2566
H14 H -0.2838 0.0111 -0.2654
H15 H -0.1878 0.0284 -0.1904
C12 C -0.253(5) 0.3730(19) -0.1906(11)
H16 H -0.1595 0.3913 -0.2275
H17 H -0.1838 0.3631 -0.1465
H18 H -0.3474 0.4364 -0.1863
Sn1A Sn -0.0944(2) -0.21373(11) 0.28362(7)
O4A O -0.349(2) 0.2713(13) -0.3552(8)
H1A H -0.3035 0.3332 -0.3394
loop_
_geom_bond_atom_site_label_1
_geom_bond_atom_site_label_2
_geom_bond_site_symmetry_1
_geom_bond_site_symmetry_2
Sn1 O1 1_555 1_555
O1 C1 1_555 1_555
O2 C1 1_555 1_555
O3 C2 1_555 1_555
O4 H1 1_555 1_555
C1 C2 1_555 1_555
C2 H2 1_555 1_555
C3 C2 1_555 1_555
H3 C3 1_555 1_555
H4 C3 1_555 1_555
H5 C3 1_555 1_555
C4 O3 1_555 1_555
C5 C4 1_555 1_555
H6 C5 1_555 1_555
C6 C5 1_555 1_555
H7 C6 1_555 1_555
C7 O4 1_555 1_555
C8 C7 1_555 1_555
H8 C8 1_555 1_555
C9 C4 1_555 1_555
H9 C9 1_555 1_555
C10 Sn1 1_555 1_555
H10 C10 1_555 1_555
H11 C10 1_555 1_555
H12 C10 1_555 1_555
C11 Sn1 1_555 1_555
H13 C11 1_555 1_555
H14 C11 1_555 1_555
H15 C11 1_555 1_555
C12 Sn1 1_555 1_555
H16 C12 1_555 1_555
H17 C12 1_555 1_555
H18 C12 1_555 1_555
Sn1A O4 1_555 1_555
O4A Sn1 1_555 1_555
H1A O4A 1_555 1_555
C6 C7 1_555 1_555
C8 C9 1_555 1_555

#END
