
#######################################################################
#
#                 Cambridge Crystallographic Data Centre
#                                CCDC 
#
#######################################################################
#
# If this CIF has been generated from an entry in the Cambridge 
# Structural Database, then it will include bibliographic, chemical, 
# crystal, experimental, refinement or atomic coordinate data resulting 
# from the CCDC's data processing and validation procedures.
#
#######################################################################

data_CELFAC
_symmetry_cell_setting           tetragonal
_symmetry_space_group_name_H-M   'P 43'
_symmetry_Int_Tables_number      78
_space_group_name_Hall           'P 4cw'
loop_
_symmetry_equiv_pos_site_id
_symmetry_equiv_pos_as_xyz
1 x,y,z
2 -x,-y,1/2+z
3 -y,x,3/4+z
4 y,-x,1/4+z
_cell_length_a                   12.8058(15)
_cell_length_b                   12.8058(15)
_cell_length_c                   17.1366(18)
_cell_angle_alpha                90
_cell_angle_beta                 90
_cell_angle_gamma                90
_cell_volume                     2810.21
loop_
_atom_site_label
_atom_site_type_symbol
_atom_site_fract_x
_atom_site_fract_y
_atom_site_fract_z
Sn1 Sn 0.84875(6) 0.11553(6) 0.01261(12)
O1 O 0.9649(5) 0.1832(6) 0.1027(4)
O2 O 1.0451(6) 0.2760(6) 0.1929(5)
C1 C 0.7096(11) 0.1701(10) 0.1549(9)
H1 H 0.7586 0.1309 0.1823
C2 C 0.9823(13) 0.2680(13) 0.1352(12)
C3 C 0.9050(11) -0.0306(9) 0.0476(8)
C4 C 1.0148(12) 0.4439(11) 0.0732(10)
C5 C 1.1723(12) 0.5669(10) 0.0047(11)
C6 C 0.9806(10) -0.2270(10) 0.0857(8)
H2 H 1.0073 -0.2920 0.0995
C7 C 1.0035(9) -0.0649(8) 0.0265(8)
H3 H 1.0464 -0.0200 -0.0017
C8 C 0.9190(10) 0.2029(10) -0.0794(7)
C9 C 1.0961(11) 0.4783(10) 0.1185(9)
H4 H 1.0998 0.4615 0.1712
C10 C 1.1725(12) 0.5388(10) 0.0833(9)
H5 H 1.2275 0.5622 0.1141
C11 C 0.7272(11) 0.1850(10) 0.0723(9)
C12 C 1.0108(11) 0.4707(10) -0.0033(9)
H6 H 0.9571 0.4451 -0.0344
C13 C 0.9321(10) 0.3725(10) 0.1093(8)
H7 H 0.8806 0.3566 0.0687
C14 C 0.5572(11) 0.2649(10) 0.1576(9)
H8 H 0.4997 0.2905 0.1847
C15 C 0.6532(9) 0.2464(9) 0.0368(9)
H9 H 0.6599 0.2620 -0.0159
C16 C 1.0400(10) -0.1602(9) 0.0449(7)
H10 H 1.1067 -0.1799 0.0294
C17 C 0.8824(10) -0.2008(10) 0.1067(8)
H11 H 0.8409 -0.2470 0.1348
C18 C 1.0857(11) 0.5357(10) -0.0355(9)
H12 H 1.0767 0.5590 -0.0864
C19 C 0.8744(10) 0.4191(9) 0.1776(8)
H13 H 0.9154 0.4110 0.2241
H14 H 0.8087 0.3839 0.1841
H15 H 0.8622 0.4920 0.1682
C20 C 0.8438(10) -0.1003(9) 0.0845(8)
H16 H 0.7750 -0.0827 0.0959
C21 C 0.5654(11) 0.2872(10) 0.0799(9)
H17 H 0.5152 0.3279 0.0551
C22 C 0.6265(11) 0.2092(10) 0.1961(8)
H18 H 0.6194 0.1968 0.2493
C23 C 1.0236(9) 0.2250(10) -0.0797(7)
H19 H 1.0650 0.2021 -0.0385
C24 C 1.2576(10) 0.6216(10) -0.0291(8)
H20 H 1.2961 0.6547 0.0129
H21 H 1.2291 0.6770 -0.0613
C25 C 0.8550(9) 0.2368(9) -0.1397(7)
H22 H 0.7835 0.2244 -0.1395
C26 C 1.0702(9) 0.2819(10) -0.1413(7)
H23 H 1.1415 0.2953 -0.1425
C27 C 1.0055(10) 0.3158(9) -0.1985(7)
H24 H 1.0326 0.3579 -0.2378
C28 C 0.9035(9) 0.2906(9) -0.2006(6)
H25 H 0.8641 0.3096 -0.2440
C29 C 1.3339(11) 0.5619(10) -0.0776(9)
H26 H 1.2960 0.5434 -0.1254
C30 C 1.4255(10) 0.6305(9) -0.1045(8)
H27 H 1.4682 0.6481 -0.0604
H28 H 1.3989 0.6933 -0.1278
H29 H 1.4666 0.5930 -0.1421
C31 C 1.3700(9) 0.4628(9) -0.0451(8)
H30 H 1.3734 0.4680 0.0107
H31 H 1.4381 0.4470 -0.0654
H32 H 1.3222 0.4082 -0.0594
Sn1C Sn 1.11553(6) 0.15125(6) 0.26261(12)
O2B O 0.7240(6) 0.0451(6) -0.0571(5)
loop_
_geom_bond_atom_site_label_1
_geom_bond_atom_site_label_2
_geom_bond_site_symmetry_1
_geom_bond_site_symmetry_2
Sn1 O1 1_555 1_555
O1 C2 1_555 1_555
O2 C2 1_555 1_555
C1 H1 1_555 1_555
C2 C13 1_555 1_555
C3 Sn1 1_555 1_555
C4 C9 1_555 1_555
C5 C10 1_555 1_555
C6 H2 1_555 1_555
C7 C3 1_555 1_555
H3 C7 1_555 1_555
C8 Sn1 1_555 1_555
C9 H4 1_555 1_555
C10 C9 1_555 1_555
H5 C10 1_555 1_555
C11 Sn1 1_555 1_555
C12 C4 1_555 1_555
H6 C12 1_555 1_555
C13 C4 1_555 1_555
H7 C13 1_555 1_555
C14 H8 1_555 1_555
C15 C11 1_555 1_555
H9 C15 1_555 1_555
C16 C6 1_555 1_555
H10 C16 1_555 1_555
C17 C6 1_555 1_555
H11 C17 1_555 1_555
C18 C5 1_555 1_555
H12 C18 1_555 1_555
C19 C13 1_555 1_555
H13 C19 1_555 1_555
H14 C19 1_555 1_555
H15 C19 1_555 1_555
C20 C3 1_555 1_555
H16 C20 1_555 1_555
C21 C14 1_555 1_555
H17 C21 1_555 1_555
C22 C1 1_555 1_555
H18 C22 1_555 1_555
C23 C8 1_555 1_555
H19 C23 1_555 1_555
C24 C5 1_555 1_555
H20 C24 1_555 1_555
H21 C24 1_555 1_555
C25 C8 1_555 1_555
H22 C25 1_555 1_555
C26 C23 1_555 1_555
H23 C26 1_555 1_555
C27 C26 1_555 1_555
H24 C27 1_555 1_555
C28 C25 1_555 1_555
H25 C28 1_555 1_555
C29 C24 1_555 1_555
H26 C29 1_555 1_555
C30 C29 1_555 1_555
H27 C30 1_555 1_555
H28 C30 1_555 1_555
H29 C30 1_555 1_555
C31 C29 1_555 1_555
H30 C31 1_555 1_555
H31 C31 1_555 1_555
H32 C31 1_555 1_555
Sn1C O2 1_555 1_555
O2B Sn1 1_555 1_555
C1 C11 1_555 1_555
C7 C16 1_555 1_555
C12 C18 1_555 1_555
C14 C22 1_555 1_555
C15 C21 1_555 1_555
C17 C20 1_555 1_555
C27 C28 1_555 1_555

#END
