
#######################################################################
#
#                 Cambridge Crystallographic Data Centre
#                                CCDC 
#
#######################################################################
#
# If this CIF has been generated from an entry in the Cambridge 
# Structural Database, then it will include bibliographic, chemical, 
# crystal, experimental, refinement or atomic coordinate data resulting 
# from the CCDC's data processing and validation procedures.
#
#######################################################################

data_CELGOR
_symmetry_cell_setting           monoclinic
_symmetry_space_group_name_H-M   'P 21/n'
_symmetry_Int_Tables_number      14
_space_group_name_Hall           '-P 2yn'
loop_
_symmetry_equiv_pos_site_id
_symmetry_equiv_pos_as_xyz
1 x,y,z
2 1/2-x,1/2+y,1/2-z
3 -x,-y,-z
4 1/2+x,1/2-y,1/2+z
_cell_length_a                   10.766(2)
_cell_length_b                   14.053(3)
_cell_length_c                   14.726(3)
_cell_angle_alpha                90
_cell_angle_beta                 90.89(3)
_cell_angle_gamma                90
_cell_volume                     2227.7
loop_
_atom_site_label
_atom_site_type_symbol
_atom_site_fract_x
_atom_site_fract_y
_atom_site_fract_z
C1 C -0.0879(3) -0.2556(2) -0.1675(2)
H1 H -0.0733 -0.2021 -0.2032
C2 C -0.1148(3) -0.2422(2) -0.0765(2)
H2 H -0.1180 -0.1811 -0.0523
C3 C -0.1367(3) -0.3203(2) -0.0223(2)
H3 H -0.1545 -0.3126 0.0391
C4 C -0.1318(2) -0.4109(2) -0.0603(2)
C5 C -0.1574(3) -0.4978(2) -0.00922(19)
C6 C -0.2197(2) -0.5702(2) 0.1237(2)
C7 C -0.2602(3) -0.5614(2) 0.2216(2)
H4 H -0.1882 -0.5474 0.2588
H5 H -0.3174 -0.5084 0.2270
C8 C -0.3233(3) -0.6515(2) 0.2578(2)
H6 H -0.4067 -0.6558 0.2334
H7 H -0.3296 -0.6476 0.3234
C9 C -0.2507(3) -0.7405(2) 0.2320(2)
H8 H -0.2911 -0.7961 0.2577
H9 H -0.1675 -0.7367 0.2570
C10 C -0.2434(3) -0.7508(2) 0.1298(2)
H10 H -0.3227 -0.7740 0.1076
H11 H -0.1812 -0.7984 0.1153
C11 C -0.2117(3) -0.6600(2) 0.0805(2)
C12 C -0.1513(2) -0.5868(2) -0.0514(2)
C13 C -0.1192(3) -0.5943(2) -0.1477(2)
C14 C -0.1156(3) -0.6809(2) -0.1934(2)
H12 H -0.1331 -0.7374 -0.1631
C15 C -0.0854(3) -0.6814(2) -0.2846(2)
H13 H -0.0819 -0.7386 -0.3163
C16 C -0.0605(3) -0.5962(2) -0.3288(2)
H14 H -0.0385 -0.5980 -0.3898
C17 C -0.0958(2) -0.5108(2) -0.19721(19)
C18 C -0.1023(2) -0.4183(2) -0.1535(2)
C19 C 0.2664(3) 0.4296(2) -0.5685(2)
C20 C 0.3863(3) 0.4659(2) -0.5320(2)
C21 C 0.4882(3) 0.4783(2) -0.5910(2)
H15 H 0.4797 0.4637 -0.6523
C22 C -0.0451(3) -0.0329(2) -0.4171(2)
H16 H -0.0751 -0.0545 -0.3615
C23 C 0.0047(3) -0.0968(2) -0.4790(2)
C24 C -0.0503(3) 0.0633(2) -0.4380(2)
H17 H 0.0844 -0.1059 -0.6035
C25 C 0.3994(3) 0.4881(2) -0.4411(2)
H18 H 0.3328 0.4805 -0.4016
C26 C 0.0142(3) -0.2017(2) -0.4571(2)
N1 N -0.0818(2) -0.34109(17) -0.20716(17)
N2 N -0.0666(2) -0.51217(17) -0.28771(16)
N3 N -0.1913(2) -0.49001(17) 0.07971(16)
N4 N -0.1767(2) -0.66809(18) -0.00637(17)
O1 O 0.26584(18) 0.39049(15) -0.64566(15)
O2 O 0.16639(18) 0.43990(15) -0.52266(15)
O3 O 0.1052(2) -0.4034(2) -0.41569(16)
O4 O -0.04097(18) -0.23184(14) -0.38613(15)
O5 O -0.0767(2) 0.25171(16) -0.48916(16)
Fe1 Fe -0.06728(4) -0.37281(3) -0.35216(3)
H19 H 0.113(3) -0.450(3) -0.444(2)
H20 H 0.101(4) -0.352(3) -0.462(3)
C1B C 0.0879(3) 0.2556(2) -0.8325(2)
H1B H 0.0733 0.2021 -0.7968
C2B C 0.1148(3) 0.2422(2) -0.9235(2)
H2B H 0.1180 0.1811 -0.9477
C3B C 0.1367(3) 0.3203(2) -0.9777(2)
H3B H 0.1545 0.3126 -1.0391
C4B C 0.1318(2) 0.4109(2) -0.9397(2)
C5B C 0.1574(3) 0.4978(2) -0.99078(19)
C6B C 0.2197(2) 0.5702(2) -1.1237(2)
C7B C 0.2602(3) 0.5614(2) -1.2216(2)
H4B H 0.1882 0.5474 -1.2588
H5B H 0.3174 0.5084 -1.2270
C8B C 0.3233(3) 0.6515(2) -1.2578(2)
H6B H 0.4067 0.6558 -1.2334
H7B H 0.3296 0.6476 -1.3234
C9B C 0.2507(3) 0.7405(2) -1.2320(2)
H8B H 0.2911 0.7961 -1.2577
H9B H 0.1675 0.7367 -1.2570
C10B C 0.2434(3) 0.7508(2) -1.1298(2)
H10B H 0.3227 0.7740 -1.1076
H11B H 0.1812 0.7984 -1.1153
C11B C 0.2117(3) 0.6600(2) -1.0805(2)
C12B C 0.1513(2) 0.5868(2) -0.9486(2)
C13B C 0.1192(3) 0.5943(2) -0.8523(2)
C14B C 0.1156(3) 0.6809(2) -0.8066(2)
H12B H 0.1331 0.7374 -0.8369
C15B C 0.0854(3) 0.6814(2) -0.7154(2)
H13B H 0.0819 0.7386 -0.6837
C16B C 0.0605(3) 0.5962(2) -0.6712(2)
H14B H 0.0385 0.5980 -0.6102
C17B C 0.0958(2) 0.5108(2) -0.80279(19)
C18B C 0.1023(2) 0.4183(2) -0.8465(2)
C19B C 0.7336(3) 0.5704(2) -0.4315(2)
C20B C 0.6137(3) 0.5341(2) -0.4680(2)
C21B C 0.5118(3) 0.5217(2) -0.4090(2)
H15B H 0.5203 0.5363 -0.3477
C22B C 0.0451(3) 0.0329(2) -0.5829(2)
H16B H 0.0751 0.0545 -0.6385
C23B C -0.0047(3) 0.0968(2) -0.5210(2)
C24B C 0.0503(3) -0.0633(2) -0.5620(2)
H17B H -0.0844 0.1059 -0.3965
C25B C 0.6006(3) 0.5119(2) -0.5589(2)
H18B H 0.6672 0.5195 -0.5984
C26B C -0.0142(3) 0.2017(2) -0.5429(2)
N1B N 0.0818(2) 0.34109(17) -0.79284(17)
N2B N 0.0666(2) 0.51217(17) -0.71229(16)
N3B N 0.1913(2) 0.49001(17) -1.07971(16)
N4B N 0.1767(2) 0.66809(18) -0.99363(17)
O1B O -0.26584(18) -0.39049(15) -0.35434(15)
O1B_2 O 0.73416(18) 0.60951(15) -0.35434(15)
O2B O -0.16639(18) -0.43990(15) -0.47734(15)
O2B_2 O 0.83361(18) 0.56010(15) -0.47734(15)
O3B O -0.1052(2) 0.4034(2) -0.58431(16)
O4B O 0.04097(18) 0.23184(14) -0.61387(15)
O5B O 0.0767(2) -0.25171(16) -0.51084(16)
Fe1B Fe 0.06728(4) 0.37281(3) -0.64784(3)
Fe1_2 Fe 0.93272(4) 0.62719(3) -0.35216(3)
H19B H -0.113(3) 0.450(3) -0.556(2)
H20B H -0.101(4) 0.352(3) -0.538(3)
loop_
_geom_bond_atom_site_label_1
_geom_bond_atom_site_label_2
_geom_bond_site_symmetry_1
_geom_bond_site_symmetry_2
C1 H1 1_555 1_555
C2 C1 1_555 1_555
H2 C2 1_555 1_555
C3 C2 1_555 1_555
H3 C3 1_555 1_555
C4 C3 1_555 1_555
C5 C4 1_555 1_555
C6 C7 1_555 1_555
C7 H4 1_555 1_555
H5 C7 1_555 1_555
C8 C7 1_555 1_555
H6 C8 1_555 1_555
H7 C8 1_555 1_555
C9 C8 1_555 1_555
H8 C9 1_555 1_555
H9 C9 1_555 1_555
C10 C9 1_555 1_555
H10 C10 1_555 1_555
H11 C10 1_555 1_555
C11 C6 1_555 1_555
C12 C5 1_555 1_555
C13 C12 1_555 1_555
C14 C13 1_555 1_555
H12 C14 1_555 1_555
C15 C14 1_555 1_555
H13 C15 1_555 1_555
C16 C15 1_555 1_555
H14 C16 1_555 1_555
C17 C13 1_555 1_555
C18 C4 1_555 1_555
C19 C20 1_555 1_555
C20 C21 1_555 1_555
C21 H15 1_555 1_555
C22 H16 1_555 1_555
C23 C22 1_555 1_555
C24 C22 1_555 1_555
H17 C24B 1_555 1_555
C25 C20 1_555 1_555
H18 C25 1_555 1_555
C26 C23 1_555 1_555
N1 C1 1_555 1_555
N2 C16 1_555 1_555
N3 C5 1_555 1_555
N4 C11 1_555 1_555
O1 C19 1_555 1_555
O2 C19 1_555 1_555
O3 Fe1 1_555 1_555
O4 C26 1_555 1_555
O5 C26B 1_555 1_555
Fe1 N1 1_555 1_555
H19 O3 1_555 1_555
H20 O3 1_555 1_555
C1B H1B 1_555 1_555
C2B C1B 1_555 1_555
H2B C2B 1_555 1_555
C3B C2B 1_555 1_555
H3B C3B 1_555 1_555
C4B C3B 1_555 1_555
C5B C4B 1_555 1_555
C6B C7B 1_555 1_555
C7B H4B 1_555 1_555
H5B C7B 1_555 1_555
C8B C7B 1_555 1_555
H6B C8B 1_555 1_555
H7B C8B 1_555 1_555
C9B C8B 1_555 1_555
H8B C9B 1_555 1_555
H9B C9B 1_555 1_555
C10B C9B 1_555 1_555
H10B C10B 1_555 1_555
H11B C10B 1_555 1_555
C11B C6B 1_555 1_555
C12B C5B 1_555 1_555
C13B C12B 1_555 1_555
C14B C13B 1_555 1_555
H12B C14B 1_555 1_555
C15B C14B 1_555 1_555
H13B C15B 1_555 1_555
C16B C15B 1_555 1_555
H14B C16B 1_555 1_555
C17B C13B 1_555 1_555
C18B C4B 1_555 1_555
C19B C20B 1_555 1_555
C20B C21B 1_555 1_555
C21B C25 1_555 1_555
H15B C21B 1_555 1_555
C22B H16B 1_555 1_555
C23B C24 1_555 1_555
C24B C23 1_555 1_555
H17B C24 1_555 1_555
C25B C21 1_555 1_555
H18B C25B 1_555 1_555
C26B C23B 1_555 1_555
N1B C1B 1_555 1_555
N2B C16B 1_555 1_555
N3B C5B 1_555 1_555
N4B C11B 1_555 1_555
O1B Fe1 1_555 1_555
O1B_2 C19B 1_555 1_555
O2B Fe1 1_555 1_555
O2B_2 C19B 1_555 1_555
O3B Fe1B 1_555 1_555
O4B C26B 1_555 1_555
O5B C26 1_555 1_555
Fe1B O1 1_555 1_555
Fe1_2 O1B_2 1_555 1_555
H19B O3B 1_555 1_555
H20B O3B 1_555 1_555
C6 N3 1_555 1_555
C10 C11 1_555 1_555
C12 N4 1_555 1_555
C17 C18 1_555 1_555
C17 N2 1_555 1_555
C18 N1 1_555 1_555
N2 Fe1 1_555 1_555
O2 Fe1B 1_555 1_555
O4 Fe1 1_555 1_555
C6B N3B 1_555 1_555
C10B C11B 1_555 1_555
C12B N4B 1_555 1_555
C17B C18B 1_555 1_555
C17B N2B 1_555 1_555
C18B N1B 1_555 1_555
C20B C25B 1_555 1_555
C22B C23B 1_555 1_555
C22B C24B 1_555 1_555
N1B Fe1B 1_555 1_555
N2B Fe1B 1_555 1_555
O2B_2 Fe1_2 1_555 1_555
O4B Fe1B 1_555 1_555

#END
