
#######################################################################
#
#                 Cambridge Crystallographic Data Centre
#                                CCDC 
#
#######################################################################
#
# If this CIF has been generated from an entry in the Cambridge 
# Structural Database, then it will include bibliographic, chemical, 
# crystal, experimental, refinement or atomic coordinate data resulting 
# from the CCDC's data processing and validation procedures.
#
#######################################################################

data_CELGIL
_symmetry_cell_setting           monoclinic
_symmetry_space_group_name_H-M   'P 21/n'
_symmetry_Int_Tables_number      14
_space_group_name_Hall           '-P 2yn'
loop_
_symmetry_equiv_pos_site_id
_symmetry_equiv_pos_as_xyz
1 x,y,z
2 1/2-x,1/2+y,1/2-z
3 -x,-y,-z
4 1/2+x,1/2-y,1/2+z
_cell_length_a                   10.599(2)
_cell_length_b                   14.094(3)
_cell_length_c                   14.824(3)
_cell_angle_alpha                90
_cell_angle_beta                 92.45(3)
_cell_angle_gamma                90
_cell_volume                     2212.42
loop_
_atom_site_label
_atom_site_type_symbol
_atom_site_fract_x
_atom_site_fract_y
_atom_site_fract_z
C1 C 0.5617(2) 0.40877(14) 0.67060(14)
H1 H 0.5392 0.4082 0.6093
C2 C 0.5874(2) 0.32277(14) 0.71374(14)
H2 H 0.5846 0.2664 0.6811
C3 C 0.6167(2) 0.32182(14) 0.80482(14)
H3 H 0.6338 0.2649 0.8347
C4 C 0.62064(19) 0.40797(13) 0.85219(13)
C5 C 0.65176(19) 0.41370(13) 0.94878(13)
C6 C 0.7098(2) 0.33890(14) 1.08016(14)
C7 C 0.7410(2) 0.24749(14) 1.12924(15)
H4 H 0.8208 0.2236 1.1090
H5 H 0.6765 0.2009 1.1132
C8 C 0.7501(2) 0.25792(15) 1.23187(15)
H6 H 0.6659 0.2629 1.2547
H7 H 0.7902 0.2021 1.2585
C9 C 0.8258(2) 0.34530(15) 1.25883(16)
H8 H 0.9097 0.3404 1.2356
H9 H 0.8344 0.3488 1.3242
C10 C 0.7624(2) 0.43540(15) 1.22247(14)
H10 H 0.6896 0.4491 1.2578
H11 H 0.8210 0.4879 1.2301
C11 C 0.72008(19) 0.42854(14) 1.12408(13)
C12 C 0.65906(19) 0.50234(13) 0.99190(13)
C13 C 0.63430(19) 0.58927(13) 0.94058(13)
C14 C 0.6413(2) 0.68002(14) 0.97960(15)
H12 H 0.6602 0.6869 1.0411
C15 C 0.6200(2) 0.75834(14) 0.92617(16)
H13 H 0.6229 0.8188 0.9512
C16 C 0.5939(2) 0.74641(14) 0.83413(15)
H14 H 0.5814 0.8001 0.7984
C17 C 0.60518(19) 0.58366(13) 0.84785(13)
C18 C 0.59742(19) 0.49123(13) 0.80309(13)
C19 C 0.4949(2) 0.79902(13) 0.54469(14)
C20 C 0.49968(19) 0.90364(13) 0.52175(14)
C21 C 0.5441(2) 0.97007(14) 0.58489(14)
H15 H 0.5736 0.9504 0.6418
C22 C 0.4556(2) 0.93444(14) 0.43720(14)
H16 H 0.4256 0.8904 0.3948
C23 C 0.7582(2) 0.57054(13) 0.55713(15)
C24 C 0.8835(2) 0.53447(13) 0.52745(14)
C25 C 0.9002(2) 0.51079(14) 0.43764(15)
H17 H 0.8334 0.5178 0.3954
C26 C 0.9851(2) 0.52298(14) 0.58947(14)
H18 H 0.9755 0.5382 0.6498
N1 N 0.56781(16) 0.49138(11) 0.71328(11)
N2 N 0.58597(17) 0.66130(11) 0.79487(11)
N3 N 0.67537(17) 0.33226(11) 0.99354(11)
N4 N 0.69289(17) 0.50878(11) 1.08063(11)
O1 O 0.75709(15) 0.61275(10) 0.63273(11)
O2 O 0.66062(14) 0.55653(11) 0.50902(11)
O3 O 0.39668(15) 0.60291(12) 0.59020(11)
O4 O 0.54722(15) 0.77197(9) 0.61907(10)
O5 O 0.43851(19) 0.74646(10) 0.48873(11)
Zn1 Zn 0.56974(2) 0.632332(15) 0.652627(15)
H19 H 0.398(3) 0.6455(18) 0.5484(19)
H20 H 0.379(3) 0.5531(19) 0.5636(17)
C1B C 1.4383(2) 0.59123(14) 0.32940(14)
H1B H 1.4608 0.5918 0.3907
C2B C 1.4126(2) 0.67723(14) 0.28626(14)
H2B H 1.4154 0.7336 0.3189
C3B C 1.3833(2) 0.67818(14) 0.19518(14)
H3B H 1.3662 0.7351 0.1653
C4B C 1.37936(19) 0.59203(13) 0.14781(13)
C5B C 1.34824(19) 0.58630(13) 0.05122(13)
C6B C 1.2902(2) 0.66110(14) -0.08016(14)
C7B C 1.2590(2) 0.75251(14) -0.12924(15)
H4B H 1.1792 0.7764 -0.1090
H5B H 1.3235 0.7991 -0.1132
C8B C 1.2499(2) 0.74208(15) -0.23187(15)
H6B H 1.3341 0.7371 -0.2547
H7B H 1.2098 0.7979 -0.2585
C9B C 1.1742(2) 0.65470(15) -0.25883(16)
H8B H 1.0903 0.6596 -0.2356
H9B H 1.1656 0.6512 -0.3242
C10B C 1.2376(2) 0.56460(15) -0.22247(14)
H10B H 1.3104 0.5509 -0.2578
H11B H 1.1790 0.5121 -0.2301
C11B C 1.27992(19) 0.57146(14) -0.12408(13)
C12B C 1.34094(19) 0.49766(13) 0.00810(13)
C13B C 1.36570(19) 0.41073(13) 0.05942(13)
C14B C 1.3587(2) 0.31998(14) 0.02040(15)
H12B H 1.3398 0.3131 -0.0411
C15B C 1.3800(2) 0.24166(14) 0.07383(16)
H13B H 1.3771 0.1812 0.0488
C16B C 1.4061(2) 0.25359(14) 0.16587(15)
H14B H 1.4186 0.1999 0.2016
C17B C 1.39482(19) 0.41634(13) 0.15215(13)
C18B C 1.40258(19) 0.50877(13) 0.19691(13)
C19B C 0.5051(2) 1.20098(13) 0.45531(14)
C20B C 0.50032(19) 1.09636(13) 0.47825(14)
C21B C 0.4559(2) 1.02993(14) 0.41511(14)
H15B H 0.4264 1.0496 0.3582
C22B C 0.5444(2) 1.06556(14) 0.56280(14)
H16B H 0.5744 1.1096 0.6052
C23B C 1.2418(2) 0.42946(13) 0.44287(15)
C24B C 1.1165(2) 0.46553(13) 0.47255(14)
C25B C 1.0998(2) 0.48921(14) 0.56236(15)
H17B H 1.1666 0.4822 0.6046
C26B C 1.0149(2) 0.47702(14) 0.41053(14)
H18B H 1.0245 0.4618 0.3502
N1B N 1.43219(16) 0.50862(11) 0.28672(11)
N2B N 1.41403(17) 0.33870(11) 0.20513(11)
N3B N 1.32463(17) 0.66774(11) 0.00646(11)
N4B N 1.30711(17) 0.49122(11) -0.08063(11)
O1B O 1.24291(15) 0.38725(10) 0.36727(11)
O2B O 1.33938(14) 0.44347(11) 0.49098(11)
O3B O 1.60332(15) 0.39709(12) 0.40980(11)
O4B O 0.45278(15) 1.22803(9) 0.38093(10)
O4B_2 O 1.45278(15) 0.22803(9) 0.38093(10)
O5B O 0.56149(19) 1.25354(10) 0.51127(11)
Zn1B Zn 1.43026(2) 0.367668(15) 0.347373(15)
Zn1B_2 Zn 0.43026(2) 1.367668(15) 0.347373(15)
H19B H 1.602(3) 0.3545(18) 0.4516(19)
H20B H 1.621(3) 0.4469(19) 0.4364(17)
loop_
_geom_bond_atom_site_label_1
_geom_bond_atom_site_label_2
_geom_bond_site_symmetry_1
_geom_bond_site_symmetry_2
C1 H1 1_555 1_555
C2 C1 1_555 1_555
H2 C2 1_555 1_555
C3 C2 1_555 1_555
H3 C3 1_555 1_555
C4 C3 1_555 1_555
C5 C4 1_555 1_555
C6 C7 1_555 1_555
C7 H4 1_555 1_555
H5 C7 1_555 1_555
C8 C7 1_555 1_555
H6 C8 1_555 1_555
H7 C8 1_555 1_555
C9 C8 1_555 1_555
H8 C9 1_555 1_555
H9 C9 1_555 1_555
C10 C9 1_555 1_555
H10 C10 1_555 1_555
H11 C10 1_555 1_555
C11 C6 1_555 1_555
C12 C5 1_555 1_555
C13 C12 1_555 1_555
C14 C13 1_555 1_555
H12 C14 1_555 1_555
C15 C14 1_555 1_555
H13 C15 1_555 1_555
C16 C15 1_555 1_555
H14 C16 1_555 1_555
C17 C13 1_555 1_555
C18 C4 1_555 1_555
C19 C20 1_555 1_555
C20 C21 1_555 1_555
C21 H15 1_555 1_555
C22 C20 1_555 1_555
H16 C22 1_555 1_555
C23 C24 1_555 1_555
C24 C25 1_555 1_555
C25 H17 1_555 1_555
C26 C24 1_555 1_555
H18 C26 1_555 1_555
N1 C1 1_555 1_555
N2 C16 1_555 1_555
N3 C5 1_555 1_555
N4 C11 1_555 1_555
O1 C23 1_555 1_555
O2 C23 1_555 1_555
O3 Zn1 1_555 1_555
O4 C19 1_555 1_555
O5 C19 1_555 1_555
Zn1 N1 1_555 1_555
H19 O3 1_555 1_555
H20 O3 1_555 1_555
C1B H1B 1_555 1_555
C2B C1B 1_555 1_555
H2B C2B 1_555 1_555
C3B C2B 1_555 1_555
H3B C3B 1_555 1_555
C4B C3B 1_555 1_555
C5B C4B 1_555 1_555
C6B C7B 1_555 1_555
C7B H4B 1_555 1_555
H5B C7B 1_555 1_555
C8B C7B 1_555 1_555
H6B C8B 1_555 1_555
H7B C8B 1_555 1_555
C9B C8B 1_555 1_555
H8B C9B 1_555 1_555
H9B C9B 1_555 1_555
C10B C9B 1_555 1_555
H10B C10B 1_555 1_555
H11B C10B 1_555 1_555
C11B C6B 1_555 1_555
C12B C5B 1_555 1_555
C13B C12B 1_555 1_555
C14B C13B 1_555 1_555
H12B C14B 1_555 1_555
C15B C14B 1_555 1_555
H13B C15B 1_555 1_555
C16B C15B 1_555 1_555
H14B C16B 1_555 1_555
C17B C13B 1_555 1_555
C18B C4B 1_555 1_555
C19B C20B 1_555 1_555
C20B C21B 1_555 1_555
C21B C22 1_555 1_555
H15B C21B 1_555 1_555
C22B C21 1_555 1_555
H16B C22B 1_555 1_555
C23B C24B 1_555 1_555
C24B C25B 1_555 1_555
C25B C26 1_555 1_555
H17B C25B 1_555 1_555
C26B C25 1_555 1_555
H18B C26B 1_555 1_555
N1B C1B 1_555 1_555
N2B C16B 1_555 1_555
N3B C5B 1_555 1_555
N4B C11B 1_555 1_555
O1B C23B 1_555 1_555
O2B C23B 1_555 1_555
O3B Zn1B 1_555 1_555
O4B C19B 1_555 1_555
O4B_2 Zn1B 1_555 1_555
O5B C19B 1_555 1_555
Zn1B N1B 1_555 1_555
Zn1B_2 O4B 1_555 1_555
H19B O3B 1_555 1_555
H20B O3B 1_555 1_555
C6 N3 1_555 1_555
C10 C11 1_555 1_555
C12 N4 1_555 1_555
C17 C18 1_555 1_555
C17 N2 1_555 1_555
C18 N1 1_555 1_555
N2 Zn1 1_555 1_555
O1 Zn1 1_555 1_555
O4 Zn1 1_555 1_555
C6B N3B 1_555 1_555
C10B C11B 1_555 1_555
C12B N4B 1_555 1_555
C17B C18B 1_555 1_555
C17B N2B 1_555 1_555
C18B N1B 1_555 1_555
C20B C22B 1_555 1_555
C24B C26B 1_555 1_555
N2B Zn1B 1_555 1_555
O1B Zn1B 1_555 1_555

#END
