
#######################################################################
#
#                 Cambridge Crystallographic Data Centre
#                                CCDC 
#
#######################################################################
#
# If this CIF has been generated from an entry in the Cambridge 
# Structural Database, then it will include bibliographic, chemical, 
# crystal, experimental, refinement or atomic coordinate data resulting 
# from the CCDC's data processing and validation procedures.
#
#######################################################################

data_CELJOU
_symmetry_cell_setting           orthorhombic
_symmetry_space_group_name_H-M   'P 21 21 21'
_symmetry_Int_Tables_number      19
_space_group_name_Hall           'P 2ac 2ab'
loop_
_symmetry_equiv_pos_site_id
_symmetry_equiv_pos_as_xyz
1 x,y,z
2 1/2+x,1/2-y,-z
3 -x,1/2+y,1/2-z
4 1/2-x,-y,1/2+z
_cell_length_a                   7.8620(16)
_cell_length_b                   11.061(2)
_cell_length_c                   18.080(4)
_cell_angle_alpha                90
_cell_angle_beta                 90
_cell_angle_gamma                90
_cell_volume                     1572.27
loop_
_atom_site_label
_atom_site_type_symbol
_atom_site_fract_x
_atom_site_fract_y
_atom_site_fract_z
Mg1 Mg 0.39829(6) 0.78329(4) 0.36236(3)
Mg2 Mg 0.88010(6) 0.71257(4) 0.14952(3)
O1 O 0.71729(15) 0.73979(9) 0.23371(6)
O2 O 0.58551(14) 0.66572(9) 0.33238(6)
O3 O 0.90648(14) 0.55220(9) 0.21304(5)
O4 O 0.57110(14) 0.42993(9) 0.21300(6)
O5 O 0.91296(14) 0.30721(9) 0.31651(6)
O6 O 0.76859(14) 0.24244(9) 0.21829(6)
O7 O -0.01543(14) 1.16456(9) 0.44115(6)
O8 O 0.30310(14) 1.13070(10) 0.41755(6)
O9 O -0.00897(14) 1.07729(9) 0.55240(6)
O10 O 0.21416(14) 0.88541(10) 0.41843(6)
O11 O 0.53635(13) 0.86282(9) 0.44284(6)
O12 O 0.51813(14) 0.93756(9) 0.55690(6)
O13 O 0.33187(15) 0.64636(11) 0.43072(6)
O14 O 0.80336(15) 0.87712(10) 0.11175(6)
H1 H 0.370(3) 0.595(2) 0.4330(12)
H2 H 0.717(4) 0.881(3) 0.0909(16)
H3 H 0.872(3) 0.923(2) 0.0916(13)
C1 C 0.79894(19) 0.31717(12) 0.26926(8)
C2 C 0.68681(18) 0.43010(12) 0.27408(8)
C3 C 0.79760(18) 0.54401(12) 0.27644(8)
C4 C 0.69018(18) 0.65922(12) 0.28051(8)
C5 C 0.05723(18) 1.10944(12) 0.49320(8)
C6 C 0.24555(18) 1.07823(13) 0.48405(8)
C7 C 0.26801(18) 0.93983(13) 0.48500(8)
C8 C 0.45618(18) 0.91043(12) 0.49567(8)
H4 H 0.622(3) 0.4246(16) 0.3178(10)
H5 H 0.868(3) 0.5415(16) 0.3177(10)
H6 H 0.482(3) 0.4548(17) 0.2261(10)
H7 H 0.300(2) 1.1097(16) 0.5258(10)
H8 H 0.209(3) 0.9091(17) 0.5277(11)
H9 H 0.404(3) 1.1399(17) 0.4150(10)
H10 H 0.116(3) 0.8799(17) 0.4167(10)
H11 H 1.004(3) 0.5331(17) 0.2243(10)
Mg1B Mg 0.60171(6) 0.28329(4) 0.13764(3)
Mg2B Mg 1.11990(6) 0.21257(4) 0.35048(3)
Mg2B_2 Mg 0.11990(6) 1.21257(4) 0.35048(3)
O4B O 0.42890(14) 0.92993(9) 0.28700(6)
O5B O 1.08704(14) 0.80721(9) 0.18349(6)
O6B O 0.23141(14) 0.74244(9) 0.28171(6)
O7B O 1.01543(14) 0.66456(9) 0.05885(6)
O8B O 0.69690(14) 0.63070(10) 0.08245(6)
H6B H 0.518(3) 0.9548(17) 0.2739(10)
H9B H 0.596(3) 0.6399(17) 0.0850(10)
O15 O 0.87775(17) 0.87649(13) 0.39290(8)
H12 H 0.800(3) 0.847(2) 0.4238(13)
H15 H 0.858(4) 0.870(2) 0.3573(14)
O16 O 0.24118(14) 0.49994(10) 0.25262(7)
H13 H 0.249(3) 0.575(2) 0.2624(12)
H16 H 0.234(3) 0.468(2) 0.2924(15)
O17 O 0.64105(17) 0.12231(13) 0.40710(9)
H14 H 0.726(3) 0.157(2) 0.4245(12)
H17 H 0.663(4) 0.066(3) 0.3952(16)
loop_
_geom_bond_atom_site_label_1
_geom_bond_atom_site_label_2
_geom_bond_site_symmetry_1
_geom_bond_site_symmetry_2
Mg1 O2 1_555 1_555
Mg2 O1 1_555 1_555
O1 C4 1_555 1_555
O2 C4 1_555 1_555
O3 Mg2 1_555 1_555
O4 C2 1_555 1_555
O5 C1 1_555 1_555
O6 C1 1_555 1_555
O7 C5 1_555 1_555
O8 C6 1_555 1_555
O9 C5 1_555 1_555
O10 Mg1 1_555 1_555
O11 Mg1 1_555 1_555
O12 C8 1_555 1_555
O13 Mg1 1_555 1_555
O14 Mg2 1_555 1_555
H1 O13 1_555 1_555
H2 O14 1_555 1_555
H3 O14 1_555 1_555
C1 C2 1_555 1_555
C2 C3 1_555 1_555
C3 O3 1_555 1_555
C4 C3 1_555 1_555
C5 C6 1_555 1_555
C6 C7 1_555 1_555
C7 O10 1_555 1_555
C8 O11 1_555 1_555
H4 C2 1_555 1_555
H5 C3 1_555 1_555
H6 O4 1_555 1_555
H7 C6 1_555 1_555
H8 C7 1_555 1_555
H9 O8 1_555 1_555
H10 O10 1_555 1_555
H11 O3 1_555 1_555
O15 H12 1_555 1_555
O16 H13 1_555 1_555
O17 H14 1_555 1_555
H15 O15 1_555 1_555
H16 O16 1_555 1_555
H17 O17 1_555 1_555
Mg1B O4 1_555 1_555
Mg2B O5 1_555 1_555
Mg2B_2 O7 1_555 1_555
O4B Mg1 1_555 1_555
O5B Mg2 1_555 1_555
O6B Mg1 1_555 1_555
O7B Mg2 1_555 1_555
O8B Mg2 1_555 1_555
H6B O4B 1_555 1_555
H9B O8B 1_555 1_555
O6 Mg1B 1_555 1_555
O8 Mg2B_2 1_555 1_555
C7 C8 1_555 1_555

#END
