
#######################################################################
#
#                 Cambridge Crystallographic Data Centre
#                                CCDC 
#
#######################################################################
#
# If this CIF has been generated from an entry in the Cambridge 
# Structural Database, then it will include bibliographic, chemical, 
# crystal, experimental, refinement or atomic coordinate data resulting 
# from the CCDC's data processing and validation procedures.
#
#######################################################################

data_CELKAH
_symmetry_cell_setting           tetragonal
_symmetry_space_group_name_H-M   'P 41 21 2'
_symmetry_Int_Tables_number      92
_space_group_name_Hall           'P 4abw 2nw'
loop_
_symmetry_equiv_pos_site_id
_symmetry_equiv_pos_as_xyz
1 x,y,z
2 -x,-y,1/2+z
3 1/2-y,1/2+x,1/4+z
4 1/2+y,1/2-x,3/4+z
5 1/2-x,1/2+y,1/4-z
6 1/2+x,1/2-y,3/4-z
7 y,x,-z
8 -y,-x,1/2-z
_cell_length_a                   8.53850(10)
_cell_length_b                   8.53850(10)
_cell_length_c                   43.5020(13)
_cell_angle_alpha                90
_cell_angle_beta                 90
_cell_angle_gamma                90
_cell_volume                     3171.56
loop_
_atom_site_label
_atom_site_type_symbol
_atom_site_fract_x
_atom_site_fract_y
_atom_site_fract_z
Cu1 Cu 0.66101(8) 0.07177(9) 0.107415(15)
O1 O 0.6181(5) -0.1832(5) 0.11965(9)
O2 O 0.6122(4) -0.4189(5) 0.14211(9)
O3 O 0.3056(4) -0.1911(5) 0.10992(10)
H1 H 0.2902 -0.2291 0.0924
O4 O 0.0654(5) -0.4056(5) 0.14674(9)
O5 O 0.0585(5) -0.1762(6) 0.17157(11)
O6 O 0.3678(5) -0.1630(6) 0.17647(11)
H2 H 0.4100 -0.1894 0.1931
N1 N 0.6394(5) 0.1134(6) 0.15257(10)
N2 N 0.4846(6) 0.1706(6) 0.31233(10)
C1 C 0.5491(6) -0.2983(6) 0.12974(11)
C2 C 0.5358(7) 0.2152(7) 0.16353(13)
H3 H 0.4791 0.2784 0.1494
C3 C 0.5075(7) 0.2328(8) 0.19424(13)
H4 H 0.4315 0.3067 0.2009
C4 C 0.5870(7) 0.1457(7) 0.21571(12)
C5 C 0.6997(7) 0.0432(7) 0.20424(13)
H5 H 0.7611 -0.0180 0.2179
C6 C 0.7218(7) 0.0311(8) 0.17294(13)
H6 H 0.7994 -0.0393 0.1656
C7 C 0.5505(7) 0.1572(7) 0.24921(12)
C8 C 0.6277(8) 0.0588(7) 0.27011(13)
H7 H 0.7046 -0.0135 0.2632
C9 C 0.4446(8) 0.2637(8) 0.26094(13)
H8 H 0.3919 0.3343 0.2476
C10 C 0.3710(6) -0.3058(6) 0.12910(13)
H9 H 0.3412 -0.4102 0.1205
C11 C 0.3062(6) -0.2975(8) 0.16169(13)
H10 H 0.3372 -0.3936 0.1733
C12 C 0.1289(7) -0.2856(8) 0.16037(13)
C13 C 0.5896(7) 0.0691(7) 0.30121(13)
H11 H 0.6407 0.0006 0.3152
C14 C 0.4155(7) 0.2670(8) 0.29229(13)
H12 H 0.3426 0.3416 0.2999
Cu1D Cu 0.83899(8) -0.42823(9) 0.142585(15)
Cu1D_2 Cu -0.16101(8) -0.42823(9) 0.142585(15)
Cu1B Cu 0.42823(9) 0.16101(8) 0.357415(15)
O2D O 0.8878(4) 0.0811(5) 0.10789(9)
O4D O 0.4346(5) 0.0944(5) 0.10326(9)
N2C N 0.6706(6) 0.0154(6) 0.06233(10)
O7 O 0.171(2) 0.105(2) 0.1978(4)
loop_
_geom_bond_atom_site_label_1
_geom_bond_atom_site_label_2
_geom_bond_site_symmetry_1
_geom_bond_site_symmetry_2
Cu1 O1 1_555 1_555
O1 C1 1_555 1_555
O2 C1 1_555 1_555
O3 H1 1_555 1_555
O4 C12 1_555 1_555
O5 C12 1_555 1_555
O6 H2 1_555 1_555
N1 Cu1 1_555 1_555
N2 C13 1_555 1_555
C1 C10 1_555 1_555
C2 N1 1_555 1_555
H3 C2 1_555 1_555
C3 C2 1_555 1_555
H4 C3 1_555 1_555
C4 C3 1_555 1_555
C5 C4 1_555 1_555
H5 C5 1_555 1_555
C6 N1 1_555 1_555
H6 C6 1_555 1_555
C7 C4 1_555 1_555
C8 C7 1_555 1_555
H7 C8 1_555 1_555
C9 C7 1_555 1_555
H8 C9 1_555 1_555
C10 O3 1_555 1_555
H9 C10 1_555 1_555
C11 O6 1_555 1_555
H10 C11 1_555 1_555
C12 C11 1_555 1_555
C13 C8 1_555 1_555
H11 C13 1_555 1_555
C14 N2 1_555 1_555
H12 C14 1_555 1_555
Cu1D O2 1_555 1_555
Cu1D_2 O4 1_555 1_555
Cu1B N2 1_555 1_555
O2D Cu1 1_555 1_555
O4D Cu1 1_555 1_555
N2C Cu1 1_555 1_555
C5 C6 1_555 1_555
C9 C14 1_555 1_555
C10 C11 1_555 1_555

#END
