
#######################################################################
#
#                 Cambridge Crystallographic Data Centre
#                                CCDC 
#
#######################################################################
#
# If this CIF has been generated from an entry in the Cambridge 
# Structural Database, then it will include bibliographic, chemical, 
# crystal, experimental, refinement or atomic coordinate data resulting 
# from the CCDC's data processing and validation procedures.
#
#######################################################################

data_CELLOW
_symmetry_cell_setting           triclinic
_symmetry_space_group_name_H-M   'P -1'
_symmetry_Int_Tables_number      2
_space_group_name_Hall           '-P 1'
loop_
_symmetry_equiv_pos_site_id
_symmetry_equiv_pos_as_xyz
1 x,y,z
2 -x,-y,-z
_cell_length_a                   8.0990(16)
_cell_length_b                   10.192(2)
_cell_length_c                   12.642(3)
_cell_angle_alpha                99.45(3)
_cell_angle_beta                 95.04(3)
_cell_angle_gamma                105.71(3)
_cell_volume                     981.254
loop_
_atom_site_label
_atom_site_type_symbol
_atom_site_fract_x
_atom_site_fract_y
_atom_site_fract_z
Cd1 Cd 0.0000 0.0000 0.0000
K1 K 0.36794(7) 0.57867(5) 0.09469(4)
S1 S 0.03906(8) 0.27583(6) -0.13144(4)
O1 O 0.1752(3) 0.40512(17) -0.11453(14)
O2 O -0.1143(3) 0.2854(2) -0.08167(13)
O3 O 0.10198(19) 0.16206(15) -0.10112(11)
C1 C -0.0291(3) 0.2216(2) -0.27365(16)
C2 C -0.1936(3) 0.1342(3) -0.30907(18)
H1 H -0.2686 0.1080 -0.2596
C3 C -0.2465(3) 0.0856(2) -0.41918(18)
H2 H -0.3569 0.0251 -0.4436
C4 C -0.1360(3) 0.1265(2) -0.49335(16)
C5 C 0.0273(3) 0.2177(3) -0.45693(18)
H3 H 0.1003 0.2476 -0.5065
C6 C 0.0829(3) 0.2647(2) -0.34695(17)
H4 H 0.1936 0.3244 -0.3224
C7 C -0.1883(3) 0.0735(2) -0.61274(17)
O4 O -0.0936(2) 0.10810(19) -0.67911(12)
O5 O -0.3445(2) -0.0153(2) -0.63755(14)
H5 H -0.359(4) -0.053(3) -0.705(3)
S2 S 0.41507(6) 0.20783(5) 0.13093(4)
O6 O 0.4380(2) 0.32747(17) 0.08110(12)
O7 O 0.5174(2) 0.11797(19) 0.09080(14)
O8 O 0.2342(2) 0.12789(19) 0.12580(13)
C8 C 0.4916(3) 0.2706(2) 0.27173(16)
C9 C 0.6616(3) 0.3539(2) 0.30228(17)
H6 H 0.7323 0.3766 0.2499
C10 C 0.7253(3) 0.4031(2) 0.41119(18)
H7 H 0.8389 0.4592 0.4319
C11 C 0.6198(3) 0.3689(2) 0.48964(16)
C12 C 0.4506(3) 0.2859(2) 0.45841(17)
H8 H 0.3801 0.2628 0.5108
C13 C 0.3853(3) 0.2367(2) 0.34945(17)
H9 H 0.2713 0.1816 0.3288
C14 C 0.6815(3) 0.4214(2) 0.60877(16)
O9 O 0.5923(2) 0.39156(19) 0.67827(13)
O10 O 0.8424(2) 0.50421(19) 0.62924(13)
H10 H 0.873(4) 0.531(3) 0.697(3)
O11 O 0.1352(2) -0.12680(17) -0.10769(13)
H11 H 0.129(4) -0.119(3) -0.163(2)
H12 H 0.227(4) -0.134(3) -0.091(2)
O12 O 0.5696(2) 0.86242(19) 0.15663(14)
H13 H 0.536(4) 0.899(3) 0.124(3)
H14 H 0.671(3) 0.8591(17) 0.140(2)
O13 O 0.0575(3) 0.41698(19) 0.15859(14)
H15 H 0.031(4) 0.328(3) 0.138(3)
H16 H -0.002(4) 0.451(3) 0.142(3)
K1A K -0.36794(7) -0.57867(5) -0.09469(4)
K1A_2 K -0.36794(7) 0.42133(5) -0.09469(4)
K1A_3 K 0.63206(7) 0.42133(5) -0.09469(4)
K1A_4 K 0.63206(7) 0.42133(5) 0.90531(4)
K1_2 K 0.36794(7) -0.42133(5) 0.09469(4)
K1_3 K -0.63206(7) -0.42133(5) 0.09469(4)
K1_4 K -0.63206(7) -0.42133(5) -0.90531(4)
S1A S -0.03906(8) -0.27583(6) 0.13144(4)
O1A O -0.1752(3) -0.40512(17) 0.11453(14)
O2A O 0.1143(3) -0.2854(2) 0.08167(13)
O2A_2 O 0.1143(3) 0.7146(2) 0.08167(13)
O2_2 O -0.1143(3) -0.7146(2) -0.08167(13)
O3A O -0.10198(19) -0.16206(15) 0.10112(11)
C1A C 0.0291(3) -0.2216(2) 0.27365(16)
C2A C 0.1936(3) -0.1342(3) 0.30907(18)
H1A H 0.2686 -0.1080 0.2596
C3A C 0.2465(3) -0.0856(2) 0.41918(18)
H2A H 0.3569 -0.0251 0.4436
C4A C 0.1360(3) -0.1265(2) 0.49335(16)
C5A C -0.0273(3) -0.2177(3) 0.45693(18)
H3A H -0.1003 -0.2476 0.5065
C6A C -0.0829(3) -0.2647(2) 0.34695(17)
H4A H -0.1936 -0.3244 0.3224
C7A C 0.1883(3) -0.0735(2) 0.61274(17)
O4A O 0.0936(2) -0.10810(19) 0.67911(12)
O5A O 0.3445(2) 0.0153(2) 0.63755(14)
H5A H 0.359(4) 0.053(3) 0.705(3)
S2A S -0.41507(6) -0.20783(5) -0.13093(4)
O6A O -0.4380(2) -0.32747(17) -0.08110(12)
O6A_2 O 0.5620(2) 0.67253(17) -0.08110(12)
O6_2 O -0.5620(2) -0.67253(17) 0.08110(12)
O7A O -0.5174(2) -0.11797(19) -0.09080(14)
O8A O -0.2342(2) -0.12789(19) -0.12580(13)
C8A C -0.4916(3) -0.2706(2) -0.27173(16)
C9A C -0.6616(3) -0.3539(2) -0.30228(17)
H6A H -0.7323 -0.3766 -0.2499
C10A C -0.7253(3) -0.4031(2) -0.41119(18)
H7A H -0.8389 -0.4592 -0.4319
C11A C -0.6198(3) -0.3689(2) -0.48964(16)
C12A C -0.4506(3) -0.2859(2) -0.45841(17)
H8A H -0.3801 -0.2628 -0.5108
C13A C -0.3853(3) -0.2367(2) -0.34945(17)
H9A H -0.2713 -0.1816 -0.3288
C14A C -0.6815(3) -0.4214(2) -0.60877(16)
O9A O -0.5923(2) -0.39156(19) -0.67827(13)
O9A_2 O 0.4077(2) 0.60844(19) 0.32173(13)
O9_2 O -0.4077(2) -0.60844(19) -0.32173(13)
O10A O -0.8424(2) -0.50421(19) -0.62924(13)
H10A H -0.873(4) -0.531(3) -0.697(3)
O11A O -0.1352(2) 0.12680(17) 0.10769(13)
H11A H -0.129(4) 0.119(3) 0.163(2)
H12A H -0.227(4) 0.134(3) 0.091(2)
O12A O -0.5696(2) -0.86242(19) -0.15663(14)
H13A H -0.536(4) -0.899(3) -0.124(3)
H14A H -0.671(3) -0.8591(17) -0.140(2)
O13A O -0.0575(3) -0.41698(19) -0.15859(14)
H15A H -0.031(4) -0.328(3) -0.138(3)
H16A H 0.002(4) -0.451(3) -0.142(3)
loop_
_geom_bond_atom_site_label_1
_geom_bond_atom_site_label_2
_geom_bond_site_symmetry_1
_geom_bond_site_symmetry_2
Cd1 O3 1_555 1_555
K1 O1 1_555 1_555
S1 O1 1_555 1_555
O2 S1 1_555 1_555
O3 S1 1_555 1_555
C1 S1 1_555 1_555
C2 C1 1_555 1_555
H1 C2 1_555 1_555
C3 C2 1_555 1_555
H2 C3 1_555 1_555
C4 C3 1_555 1_555
C5 C4 1_555 1_555
H3 C5 1_555 1_555
C6 C1 1_555 1_555
H4 C6 1_555 1_555
C7 C4 1_555 1_555
O4 C7 1_555 1_555
O5 C7 1_555 1_555
H5 O5 1_555 1_555
S2 O6 1_555 1_555
O6 K1 1_555 1_555
O7 S2 1_555 1_555
O8 Cd1 1_555 1_555
C8 S2 1_555 1_555
C9 C8 1_555 1_555
H6 C9 1_555 1_555
C10 C9 1_555 1_555
H7 C10 1_555 1_555
C11 C10 1_555 1_555
C12 C11 1_555 1_555
H8 C12 1_555 1_555
C13 C8 1_555 1_555
H9 C13 1_555 1_555
C14 C11 1_555 1_555
O9 C14 1_555 1_555
O10 C14 1_555 1_555
H10 O10 1_555 1_555
O11 Cd1 1_555 1_555
H11 O11 1_555 1_555
H12 O11 1_555 1_555
O12 K1 1_555 1_555
H13 O12 1_555 1_555
H14 O12 1_555 1_555
O13 K1 1_555 1_555
H15 O13 1_555 1_555
H16 O13 1_555 1_555
K1A O1A 1_555 1_555
K1A_2 O2 1_555 1_555
K1A_3 O6 1_555 1_555
K1A_4 O9 1_555 1_555
K1_2 O2A 1_555 1_555
K1_3 O6A 1_555 1_555
K1_4 O9A 1_555 1_555
S1A O1A 1_555 1_555
O2A S1A 1_555 1_555
O2A_2 K1 1_555 1_555
O2_2 K1A 1_555 1_555
O3A Cd1 1_555 1_555
C1A S1A 1_555 1_555
C2A C1A 1_555 1_555
H1A C2A 1_555 1_555
C3A C2A 1_555 1_555
H2A C3A 1_555 1_555
C4A C3A 1_555 1_555
C5A C4A 1_555 1_555
H3A C5A 1_555 1_555
C6A C1A 1_555 1_555
H4A C6A 1_555 1_555
C7A C4A 1_555 1_555
O4A C7A 1_555 1_555
O5A C7A 1_555 1_555
H5A O5A 1_555 1_555
S2A O6A 1_555 1_555
O6A K1A 1_555 1_555
O6A_2 K1 1_555 1_555
O6_2 K1A 1_555 1_555
O7A S2A 1_555 1_555
O8A Cd1 1_555 1_555
C8A S2A 1_555 1_555
C9A C8A 1_555 1_555
H6A C9A 1_555 1_555
C10A C9A 1_555 1_555
H7A C10A 1_555 1_555
C11A C10A 1_555 1_555
C12A C11A 1_555 1_555
H8A C12A 1_555 1_555
C13A C8A 1_555 1_555
H9A C13A 1_555 1_555
C14A C11A 1_555 1_555
O9A C14A 1_555 1_555
O9A_2 K1 1_555 1_555
O9_2 K1A 1_555 1_555
O10A C14A 1_555 1_555
H10A O10A 1_555 1_555
O11A Cd1 1_555 1_555
H11A O11A 1_555 1_555
H12A O11A 1_555 1_555
O12A K1A 1_555 1_555
H13A O12A 1_555 1_555
H14A O12A 1_555 1_555
O13A K1A 1_555 1_555
H15A O13A 1_555 1_555
H16A O13A 1_555 1_555
C5 C6 1_555 1_555
S2 O8 1_555 1_555
C12 C13 1_555 1_555
K1A_3 O6A_2 1_555 1_555
K1_3 O6_2 1_555 1_555
S1A O3A 1_555 1_555
C5A C6A 1_555 1_555
S2A O8A 1_555 1_555
C12A C13A 1_555 1_555

#END
