
#######################################################################
#
#                 Cambridge Crystallographic Data Centre
#                                CCDC 
#
#######################################################################
#
# If this CIF has been generated from an entry in the Cambridge 
# Structural Database, then it will include bibliographic, chemical, 
# crystal, experimental, refinement or atomic coordinate data resulting 
# from the CCDC's data processing and validation procedures.
#
#######################################################################

data_CELNUE
_symmetry_cell_setting           monoclinic
_symmetry_space_group_name_H-M   'C c'
_symmetry_Int_Tables_number      9
_space_group_name_Hall           'C -2yc'
loop_
_symmetry_equiv_pos_site_id
_symmetry_equiv_pos_as_xyz
1 x,y,z
2 x,-y,1/2+z
3 1/2+x,1/2+y,z
4 1/2+x,1/2-y,1/2+z
_cell_length_a                   25.344(5)
_cell_length_b                   32.800(6)
_cell_length_c                   9.6972(18)
_cell_angle_alpha                90
_cell_angle_beta                 96.252(3)
_cell_angle_gamma                90
_cell_volume                     8013.18
loop_
_atom_site_label
_atom_site_type_symbol
_atom_site_fract_x
_atom_site_fract_y
_atom_site_fract_z
Co1 Co 1.06922(4) 0.43904(3) 1.07330(11)
Co2 Co 1.20717(4) 0.43928(4) 0.80308(11)
Co3 Co 1.05899(4) 0.31840(4) 0.56588(11)
Co4 Co 1.20256(5) 0.30496(4) 1.35058(12)
Co5 Co 0.68824(4) 0.31590(4) 0.34054(12)
Co6 Co 0.68365(4) 0.56010(4) 0.38738(10)
Co7 Co 0.54313(4) 0.43158(4) 0.12522(11)
Co8 Co 0.55346(4) 0.31047(4) 0.63218(11)
Cl1 Cl 0.98291(8) 0.45441(7) 1.0751(2)
Cl2 Cl 1.29193(8) 0.41880(7) 0.8472(2)
Cl3 Cl 0.96934(8) 0.31660(7) 0.5385(2)
Cl4 Cl 1.29191(8) 0.31073(8) 1.3943(2)
Cl5 Cl 0.77245(8) 0.33739(7) 0.3444(2)
Cl6 Cl 0.77294(8) 0.56726(8) 0.3906(2)
Cl7 Cl 0.45662(8) 0.44693(7) 0.0765(2)
Cl8 Cl 0.46957(8) 0.28695(7) 0.6118(2)
P1 P 1.09415(8) 0.39049(7) 0.7945(2)
O1 O 1.0667(3) 0.3984(2) 0.9229(7)
O2 O 1.1532(2) 0.3975(2) 0.8179(7)
O3 O 1.0784(2) 0.3487(2) 0.7379(6)
C1 C 1.0697(3) 0.4265(3) 0.6588(8)
H1 H 1.0735 0.4545 0.6965
H2 H 1.0922 0.4243 0.5817
N1 N 1.0126(3) 0.4198(2) 0.6018(7)
H3 H 1.001(4) 0.3944(10) 0.600(11)
C2 C 0.9750(3) 0.4347(3) 0.7032(9)
H4 H 0.9800 0.4643 0.7185
H5 H 0.9834 0.4207 0.7935
C3 C 0.9174(4) 0.4262(3) 0.6481(8)
H6 H 0.8939 0.4369 0.7148
H7 H 0.9119 0.3964 0.6405
C4 C 0.9020(3) 0.4459(3) 0.5053(9)
H8 H 0.9053 0.4762 0.5157
C5 C 0.9416(3) 0.4315(3) 0.4086(8)
H9 H 0.9371 0.4019 0.3927
H10 H 0.9340 0.4454 0.3180
C6 C 0.9988(3) 0.4400(3) 0.4656(8)
H11 H 1.0227 0.4300 0.3989
H12 H 1.0040 0.4698 0.4763
C7 C 0.8449(3) 0.4359(3) 0.4471(8)
H13 H 0.8423 0.4058 0.4300
C8 C 0.8055(3) 0.4476(3) 0.5494(9)
H14 H 0.8090 0.4771 0.5712
H15 H 0.8138 0.4322 0.6368
C9 C 0.7481(3) 0.4384(3) 0.4882(8)
H16 H 0.7440 0.4087 0.4729
H17 H 0.7235 0.4468 0.5556
C10 C 0.8292(4) 0.4580(3) 0.3102(9)
H18 H 0.8333 0.4878 0.3250
H19 H 0.8533 0.4497 0.2417
C11 C 0.7722(3) 0.4487(3) 0.2529(9)
H20 H 0.7634 0.4639 0.1652
H21 H 0.7688 0.4192 0.2317
N2 N 0.7337(3) 0.4602(3) 0.3542(8)
H22 H 0.736(4) 0.4864(8) 0.375(11)
C12 C 0.6778(3) 0.4512(3) 0.3000(8)
H23 H 0.6556 0.4524 0.3778
H24 H 0.6759 0.4231 0.2629
P2 P 0.65014(8) 0.48640(7) 0.1632(2)
O4 O 0.6621(2) 0.52926(19) 0.2168(6)
O5 O 0.5914(2) 0.4774(2) 0.1412(7)
O6 O 0.6787(3) 0.4798(2) 0.0320(6)
P3 P 1.10197(8) 0.36384(7) 1.2951(2)
O7 O 1.0912(2) 0.40638(19) 1.2389(6)
O8 O 1.1603(2) 0.3543(2) 1.3218(7)
O9 O 1.0738(3) 0.3569(2) 1.4210(7)
C13 C 1.0768(3) 0.3281(3) 1.1590(9)
H25 H 1.1020 0.3276 1.0877
H26 H 1.0767 0.3004 1.2001
N3 N 1.0216(3) 0.3368(2) 1.0871(7)
H27 H 1.030(4) 0.3597(15) 1.048(10)
C14 C 0.9810(3) 0.3350(3) 1.1863(8)
H28 H 0.9897 0.3553 1.2610
H29 H 0.9813 0.3076 1.2292
C15 C 0.9256(4) 0.3439(3) 1.1120(10)
H30 H 0.8989 0.3405 1.1785
H31 H 0.9242 0.3726 1.0799
C16 C 0.9116(3) 0.3160(3) 0.9887(9)
H32 H 0.9115 0.2877 1.0265
C17 C 0.9548(3) 0.3173(3) 0.8944(9)
H33 H 0.9562 0.3450 0.8537
H34 H 0.9464 0.2977 0.8174
C18 C 1.0087(3) 0.3069(3) 0.9712(9)
H35 H 1.0080 0.2789 1.0091
H36 H 1.0363 0.3080 0.9065
C19 C 0.8552(4) 0.3240(3) 0.9173(9)
H37 H 0.8527 0.3536 0.8923
C20 C 0.8132(4) 0.3151(4) 1.0138(11)
H38 H 0.8199 0.3323 1.0977
H39 H 0.8162 0.2862 1.0435
C21 C 0.7566(4) 0.3231(4) 0.9450(11)
H40 H 0.7306 0.3158 1.0102
H41 H 0.7523 0.3524 0.9222
C22 C 0.8424(3) 0.2992(4) 0.7831(9)
H42 H 0.8679 0.3064 0.7168
H43 H 0.8465 0.2698 0.8046
C23 C 0.7871(4) 0.3071(4) 0.7174(11)
H44 H 0.7799 0.2899 0.6335
H45 H 0.7840 0.3360 0.6879
N4 N 0.7461(3) 0.2981(2) 0.8152(7)
H46 H 0.745(4) 0.2732(13) 0.848(11)
C24 C 0.6900(4) 0.3042(3) 0.7498(11)
H47 H 0.6872 0.3315 0.7059
H48 H 0.6660 0.3038 0.8239
P4 P 0.66735(9) 0.26616(7) 0.6202(2)
O10 O 0.6865(3) 0.2250(2) 0.6769(7)
O11 O 0.6075(2) 0.2708(2) 0.5996(7)
O12 O 0.6929(2) 0.2745(2) 0.4885(6)
P5 P 1.58254(8) 0.38200(7) 1.8678(2)
O13 O 1.6417(3) 0.3913(2) 1.8984(7)
O14 O 1.5718(3) 0.3402(2) 1.8035(6)
O15 O 1.5525(3) 0.3866(2) 1.9940(6)
C25 C 1.5596(3) 0.4218(3) 1.7415(10)
H49 H 1.5549 0.4472 1.7940
H50 H 1.5886 0.4268 1.6830
N5 N 1.5106(3) 0.4151(3) 1.6481(9)
H51 H 1.519(5) 0.394(2) 1.598(11)
C26 C 1.4634(4) 0.4060(3) 1.7192(9)
H52 H 1.4578 0.4284 1.7847
H53 H 1.4694 0.3806 1.7733
C27 C 1.4133(3) 0.4013(3) 1.6148(9)
H54 H 1.4173 0.3768 1.5571
H55 H 1.3822 0.3969 1.6665
C28 C 1.4031(3) 0.4378(3) 1.5210(9)
H56 H 1.3961 0.4619 1.5795
C29 C 1.4533(3) 0.4463(3) 1.4511(9)
H57 H 1.4594 0.4233 1.3886
H58 H 1.4478 0.4712 1.3936
C30 C 1.5023(4) 0.4519(3) 1.5547(10)
H59 H 1.5338 0.4560 1.5043
H60 H 1.4980 0.4765 1.6115
C31 C 1.3553(4) 0.4320(3) 1.4117(8)
H61 H 1.3629 0.4083 1.3520
C32 C 1.3050(3) 0.4224(3) 1.4788(9)
H62 H 1.3102 0.3968 1.5325
H63 H 1.2985 0.4446 1.5443
C33 C 1.2569(3) 0.4180(3) 1.3726(9)
H64 H 1.2619 0.3942 1.3129
H65 H 1.2252 0.4129 1.4212
C34 C 1.3447(3) 0.4695(3) 1.3176(9)
H66 H 1.3395 0.4936 1.3758
H67 H 1.3761 0.4746 1.2678
C35 C 1.2967(3) 0.4643(3) 1.2134(9)
H68 H 1.3030 0.4417 1.1494
H69 H 1.2909 0.4895 1.1579
N6 N 1.2476(3) 0.4551(2) 1.2839(7)
H70 H 1.239(4) 0.477(2) 1.330(10)
C36 C 1.1983(3) 0.4493(3) 1.1841(8)
H71 H 1.1687 0.4428 1.2394
H72 H 1.2038 0.4250 1.1269
P6 P 1.17652(8) 0.49065(7) 1.0669(2)
O16 O 1.1917(3) 0.5317(2) 1.1275(6)
O17 O 1.1174(2) 0.4833(2) 1.0432(7)
O18 O 1.2033(3) 0.4850(2) 0.9341(6)
P7 P 1.57701(8) 0.36133(7) 1.3585(2)
O19 O 1.5522(2) 0.3545(2) 1.4929(6)
O20 O 1.5577(3) 0.4018(2) 1.2993(6)
O21 O 1.6370(2) 0.3572(2) 1.3770(7)
C37 C 1.5551(3) 0.3203(3) 1.2359(10)
H73 H 1.5822 0.3168 1.1706
H74 H 1.5537 0.2945 1.2886
N7 N 1.5022(3) 0.3267(3) 1.1530(8)
H75 H 1.505(5) 0.348(2) 1.098(10)
C38 C 1.4925(3) 0.2920(3) 1.0486(10)
H76 H 1.5222 0.2907 0.9902
H77 H 1.4915 0.2657 1.0989
C39 C 1.4411(3) 0.2978(3) 0.9577(8)
H78 H 1.4353 0.2744 0.8937
H79 H 1.4436 0.3227 0.9009
C40 C 1.3932(3) 0.3018(3) 1.0434(9)
H80 H 1.3890 0.2760 1.0961
C41 C 1.4045(3) 0.3371(3) 1.1444(9)
H81 H 1.3750 0.3394 1.2031
H82 H 1.4060 0.3628 1.0914
C42 C 1.4569(3) 0.3316(3) 1.2379(9)
H83 H 1.4632 0.3556 1.2993
H84 H 1.4545 0.3072 1.2972
C43 C 1.3414(3) 0.3104(3) 0.9436(10)
H85 H 1.3462 0.3357 0.8891
C44 C 1.3285(3) 0.2742(3) 0.8425(9)
H86 H 1.3585 0.2701 0.7865
H87 H 1.3244 0.2490 0.8966
C45 C 1.2789(4) 0.2816(3) 0.7481(10)
H88 H 1.2717 0.2580 0.6855
H89 H 1.2835 0.3060 0.6904
C46 C 1.2945(3) 0.3159(3) 1.0267(10)
H90 H 1.3009 0.3397 1.0889
H91 H 1.2910 0.2915 1.0852
C47 C 1.2431(3) 0.3222(3) 0.9329(11)
H92 H 1.2133 0.3243 0.9905
H93 H 1.2452 0.3482 0.8816
N8 N 1.2325(3) 0.2881(3) 0.8317(8)
H94 H 1.228(5) 0.266(2) 0.879(11)
C48 C 1.1803(4) 0.2961(3) 0.7458(13)
H95 H 1.1829 0.3227 0.6990
H96 H 1.1526 0.2987 0.8098
P8 P 1.15748(9) 0.25825(7) 0.6136(3)
O22 O 1.1671(2) 0.2159(2) 0.6733(7)
O23 O 1.0982(3) 0.2680(2) 0.5833(8)
O24 O 1.1878(3) 0.2639(2) 0.4875(8)
Co2A Co 1.20717(4) 0.56072(4) 1.30308(11)
Co3_2 Co 1.05899(4) 0.31840(4) 1.56588(11)
Co4C Co 0.70256(5) 0.19504(4) 0.85058(12)
Co4_2 Co 1.20256(5) 0.30496(4) 0.35058(12)
Co5_2 Co 1.68824(4) 0.31590(4) 1.34054(12)
Co5C Co 1.18824(4) 0.18410(4) 0.84054(12)
Co6A Co 0.68365(4) 0.43990(4) -0.11262(10)
Co6A_2 Co 1.68365(4) 0.43990(4) 1.88738(10)
Co7_2 Co 1.54313(4) 0.43158(4) 2.12522(11)
Co7_3 Co 1.54313(4) 0.43158(4) 1.12522(11)
Co8_2 Co 1.55346(4) 0.31047(4) 1.63218(11)
O6A O 0.6787(3) 0.5202(2) 0.5320(6)
O9_2 O 1.0738(3) 0.3569(2) 0.4210(7)
O10C O 1.1865(3) 0.2750(2) 1.1769(7)
O13A O 0.6417(3) 0.6087(2) 0.3984(7)
O14_2 O 0.5718(3) 0.3402(2) 0.8035(6)
O15_2 O 0.5525(3) 0.3866(2) -0.0060(6)
O16A O 1.1917(3) 0.4683(2) 0.6275(6)
O19_2 O 0.5522(2) 0.3545(2) 0.4929(6)
O20_2 O 0.5577(3) 0.4018(2) 0.2993(6)
O21_2 O 0.6370(2) 0.3572(2) 0.3770(7)
O22C O 0.6671(2) 0.2841(2) 0.1733(7)
O24_2 O 1.1878(3) 0.2639(2) 1.4875(8)
loop_
_geom_bond_atom_site_label_1
_geom_bond_atom_site_label_2
_geom_bond_site_symmetry_1
_geom_bond_site_symmetry_2
Co1 Cl1 1_555 1_555
Co2 Cl2 1_555 1_555
Co3 Cl3 1_555 1_555
Co4 Cl4 1_555 1_555
Co5 Cl5 1_555 1_555
Co6 Cl6 1_555 1_555
Co7 Cl7 1_555 1_555
Co8 Cl8 1_555 1_555
P1 O1 1_555 1_555
O1 Co1 1_555 1_555
O2 Co2 1_555 1_555
O3 Co3 1_555 1_555
C1 P1 1_555 1_555
H1 C1 1_555 1_555
H2 C1 1_555 1_555
N1 C1 1_555 1_555
H3 N1 1_555 1_555
C2 N1 1_555 1_555
H4 C2 1_555 1_555
H5 C2 1_555 1_555
C3 C2 1_555 1_555
H6 C3 1_555 1_555
H7 C3 1_555 1_555
C4 C3 1_555 1_555
H8 C4 1_555 1_555
C5 C4 1_555 1_555
H9 C5 1_555 1_555
H10 C5 1_555 1_555
C6 N1 1_555 1_555
H11 C6 1_555 1_555
H12 C6 1_555 1_555
C7 C4 1_555 1_555
H13 C7 1_555 1_555
C8 C7 1_555 1_555
H14 C8 1_555 1_555
H15 C8 1_555 1_555
C9 C8 1_555 1_555
H16 C9 1_555 1_555
H17 C9 1_555 1_555
C10 C7 1_555 1_555
H18 C10 1_555 1_555
H19 C10 1_555 1_555
C11 C10 1_555 1_555
H20 C11 1_555 1_555
H21 C11 1_555 1_555
N2 C9 1_555 1_555
H22 N2 1_555 1_555
C12 N2 1_555 1_555
H23 C12 1_555 1_555
H24 C12 1_555 1_555
P2 C12 1_555 1_555
O4 Co6 1_555 1_555
O5 Co7 1_555 1_555
O6 P2 1_555 1_555
P3 O7 1_555 1_555
O7 Co1 1_555 1_555
O8 Co4 1_555 1_555
O9 P3 1_555 1_555
C13 P3 1_555 1_555
H25 C13 1_555 1_555
H26 C13 1_555 1_555
N3 C13 1_555 1_555
H27 N3 1_555 1_555
C14 N3 1_555 1_555
H28 C14 1_555 1_555
H29 C14 1_555 1_555
C15 C14 1_555 1_555
H30 C15 1_555 1_555
H31 C15 1_555 1_555
C16 C15 1_555 1_555
H32 C16 1_555 1_555
C17 C16 1_555 1_555
H33 C17 1_555 1_555
H34 C17 1_555 1_555
C18 N3 1_555 1_555
H35 C18 1_555 1_555
H36 C18 1_555 1_555
C19 C16 1_555 1_555
H37 C19 1_555 1_555
C20 C19 1_555 1_555
H38 C20 1_555 1_555
H39 C20 1_555 1_555
C21 C20 1_555 1_555
H40 C21 1_555 1_555
H41 C21 1_555 1_555
C22 C19 1_555 1_555
H42 C22 1_555 1_555
H43 C22 1_555 1_555
C23 C22 1_555 1_555
H44 C23 1_555 1_555
H45 C23 1_555 1_555
N4 C21 1_555 1_555
H46 N4 1_555 1_555
C24 N4 1_555 1_555
H47 C24 1_555 1_555
H48 C24 1_555 1_555
P4 C24 1_555 1_555
O10 P4 1_555 1_555
O11 Co8 1_555 1_555
O12 Co5 1_555 1_555
P5 O13 1_555 1_555
O13 Co6A_2 1_555 1_555
O14 P5 1_555 1_555
O15 P5 1_555 1_555
C25 P5 1_555 1_555
H49 C25 1_555 1_555
H50 C25 1_555 1_555
N5 C25 1_555 1_555
H51 N5 1_555 1_555
C26 N5 1_555 1_555
H52 C26 1_555 1_555
H53 C26 1_555 1_555
C27 C26 1_555 1_555
H54 C27 1_555 1_555
H55 C27 1_555 1_555
C28 C27 1_555 1_555
H56 C28 1_555 1_555
C29 C28 1_555 1_555
H57 C29 1_555 1_555
H58 C29 1_555 1_555
C30 N5 1_555 1_555
H59 C30 1_555 1_555
H60 C30 1_555 1_555
C31 C28 1_555 1_555
H61 C31 1_555 1_555
C32 C31 1_555 1_555
H62 C32 1_555 1_555
H63 C32 1_555 1_555
C33 C32 1_555 1_555
H64 C33 1_555 1_555
H65 C33 1_555 1_555
C34 C31 1_555 1_555
H66 C34 1_555 1_555
H67 C34 1_555 1_555
C35 C34 1_555 1_555
H68 C35 1_555 1_555
H69 C35 1_555 1_555
N6 C33 1_555 1_555
H70 N6 1_555 1_555
C36 N6 1_555 1_555
H71 C36 1_555 1_555
H72 C36 1_555 1_555
P6 C36 1_555 1_555
O16 P6 1_555 1_555
O17 Co1 1_555 1_555
O18 Co2 1_555 1_555
P7 O19 1_555 1_555
O19 Co8_2 1_555 1_555
O20 P7 1_555 1_555
O21 P7 1_555 1_555
C37 P7 1_555 1_555
H73 C37 1_555 1_555
H74 C37 1_555 1_555
N7 C37 1_555 1_555
H75 N7 1_555 1_555
C38 N7 1_555 1_555
H76 C38 1_555 1_555
H77 C38 1_555 1_555
C39 C38 1_555 1_555
H78 C39 1_555 1_555
H79 C39 1_555 1_555
C40 C39 1_555 1_555
H80 C40 1_555 1_555
C41 C40 1_555 1_555
H81 C41 1_555 1_555
H82 C41 1_555 1_555
C42 N7 1_555 1_555
H83 C42 1_555 1_555
H84 C42 1_555 1_555
C43 C40 1_555 1_555
H85 C43 1_555 1_555
C44 C43 1_555 1_555
H86 C44 1_555 1_555
H87 C44 1_555 1_555
C45 C44 1_555 1_555
H88 C45 1_555 1_555
H89 C45 1_555 1_555
C46 C43 1_555 1_555
H90 C46 1_555 1_555
H91 C46 1_555 1_555
C47 C46 1_555 1_555
H92 C47 1_555 1_555
H93 C47 1_555 1_555
N8 C45 1_555 1_555
H94 N8 1_555 1_555
C48 N8 1_555 1_555
H95 C48 1_555 1_555
H96 C48 1_555 1_555
P8 C48 1_555 1_555
O22 P8 1_555 1_555
O23 Co3 1_555 1_555
O24 P8 1_555 1_555
Co2A O16 1_555 1_555
Co3_2 O9 1_555 1_555
Co4C O10 1_555 1_555
Co4_2 O24 1_555 1_555
Co5_2 O21 1_555 1_555
Co5C O22 1_555 1_555
Co6A O6 1_555 1_555
Co7_2 O15 1_555 1_555
Co7_3 O20 1_555 1_555
Co8_2 O14 1_555 1_555
O6A Co6 1_555 1_555
O9_2 Co3 1_555 1_555
O10C Co4 1_555 1_555
O13A Co6 1_555 1_555
O14_2 Co8 1_555 1_555
O15_2 Co7 1_555 1_555
O16A Co2 1_555 1_555
O19_2 Co8 1_555 1_555
O20_2 Co7 1_555 1_555
O21_2 Co5 1_555 1_555
O22C Co5 1_555 1_555
O24_2 Co4 1_555 1_555
P1 O2 1_555 1_555
P1 O3 1_555 1_555
C5 C6 1_555 1_555
C11 N2 1_555 1_555
P2 O4 1_555 1_555
P2 O5 1_555 1_555
P3 O8 1_555 1_555
C17 C18 1_555 1_555
C23 N4 1_555 1_555
P4 O11 1_555 1_555
P4 O12 1_555 1_555
C29 C30 1_555 1_555
C35 N6 1_555 1_555
P6 O17 1_555 1_555
P6 O18 1_555 1_555
C41 C42 1_555 1_555
C47 N8 1_555 1_555
P8 O23 1_555 1_555

#END
