
#######################################################################
#
#                 Cambridge Crystallographic Data Centre
#                                CCDC 
#
#######################################################################
#
# If this CIF has been generated from an entry in the Cambridge 
# Structural Database, then it will include bibliographic, chemical, 
# crystal, experimental, refinement or atomic coordinate data resulting 
# from the CCDC's data processing and validation procedures.
#
#######################################################################

data_CELRIV
_symmetry_cell_setting           triclinic
_symmetry_space_group_name_H-M   'P 1'
_symmetry_Int_Tables_number      1
_space_group_name_Hall           'P 1'
loop_
_symmetry_equiv_pos_site_id
_symmetry_equiv_pos_as_xyz
1 x,y,z
_cell_length_a                   11.5923(2)
_cell_length_b                   12.8139(2)
_cell_length_c                   13.0141(2)
_cell_angle_alpha                64.790(13)
_cell_angle_beta                 79.938(15)
_cell_angle_gamma                74.286(15)
_cell_volume                     1679.74
loop_
_atom_site_label
_atom_site_type_symbol
_atom_site_fract_x
_atom_site_fract_y
_atom_site_fract_z
Cu1 Cu -0.05406(4) -0.90983(4) 0.32280(4)
Cu2 Cu 0.18624(4) -0.95422(4) 0.44541(4)
Cu3 Cu 0.12651(4) -0.69749(4) 0.02568(4)
Cu4 Cu 0.36245(4) -0.75462(4) 0.17611(4)
P1 P 0.20062(9) -0.96160(9) 0.20830(9)
P2 P 0.10051(8) -0.69688(9) 0.26660(8)
O1 O 0.2597(2) -1.0633(2) 0.1618(2)
O2 O 0.3946(2) -1.0614(2) -0.0369(2)
O3 O 0.4503(2) -1.3092(2) 0.0083(2)
O4 O 0.3240(2) -1.4417(2) 0.2347(2)
O5 O 0.4126(2) -1.2074(2) 0.2710(2)
O6 O 0.5060(2) -1.4513(2) 0.4233(2)
O7 O 0.2569(2) -0.9945(2) 0.3180(2)
O8 O 0.0679(2) -0.9632(2) 0.2213(2)
O9 O 0.2299(2) -0.8466(2) 0.1175(2)
O10 O 0.0236(2) -0.6043(2) 0.3172(2)
O11 O 0.1400(2) -0.4988(2) 0.4029(2)
O12 O -0.0675(2) -0.3764(2) 0.4906(2)
O13 O -0.2913(2) -0.3712(3) 0.4212(2)
O14 O -0.0750(2) -0.4190(2) 0.1920(2)
O15 O -0.3087(2) -0.4093(3) 0.1277(2)
O16 O 0.0541(2) -0.6614(2) 0.1524(2)
O17 O 0.0727(2) -0.8142(2) 0.3527(2)
O18 O 0.2302(2) -0.6942(2) 0.2614(2)
O19 O 0.3093(2) -1.6380(2) 1.0242(2)
O20 O 0.3920(2) -1.5220(2) 1.0604(2)
O21 O -0.0700(2) -1.1415(2) 0.4268(3)
O22 O 0.0253(2) -1.0336(2) 0.4608(2)
N1 N -0.1580(3) -0.8042(3) 0.1945(3)
N2 N -0.1869(2) -0.8406(2) 0.4092(3)
N3 N 0.3103(2) -1.0773(3) 0.5455(2)
N4 N 0.1403(3) -0.9166(3) 0.5825(2)
N5 N 0.1799(3) -0.7151(3) -0.1217(3)
N6 N 0.0062(3) -0.5623(3) -0.0726(3)
N7 N 0.5048(2) -0.8393(3) 0.1098(3)
N8 N 0.4560(3) -0.8483(3) 0.3145(3)
C1 C 0.3853(3) -1.1131(3) 0.1652(3)
C2 C 0.4284(3) -1.1559(3) 0.0689(3)
C3 C 0.3812(3) -1.2622(3) 0.0887(3)
C4 C 0.3948(3) -1.3562(3) 0.2097(3)
C5 C 0.3530(3) -1.3025(3) 0.2976(3)
C6 C 0.3844(3) -1.3886(3) 0.4174(3)
C7 C 0.0276(3) -0.4823(3) 0.2541(3)
C8 C 0.0396(3) -0.4309(3) 0.3362(3)
C9 C -0.0727(3) -0.4286(3) 0.4158(3)
C10 C -0.1835(3) -0.3647(3) 0.3470(3)
C11 C -0.1860(3) -0.4163(3) 0.2612(3)
C12 C -0.2828(3) -0.3417(4) 0.1808(3)
C13 C -0.1408(4) -0.7978(4) 0.0893(4)
C14 C -0.2170(4) -0.7215(4) 0.0041(4)
C15 C -0.3162(4) -0.6459(4) 0.0337(4)
C16 C -0.3344(3) -0.6498(4) 0.1409(4)
C17 C -0.2539(3) -0.7299(3) 0.2230(4)
C18 C -0.2670(3) -0.7463(3) 0.3424(4)
C19 C -0.3514(3) -0.6765(3) 0.3891(4)
C20 C -0.3541(4) -0.7020(4) 0.5033(4)
C21 C -0.2759(4) -0.8008(4) 0.5721(4)
C22 C -0.1908(3) -0.8678(3) 0.5201(3)
C23 C 0.4002(3) -1.1521(3) 0.5136(3)
C24 C 0.4881(4) -1.2304(4) 0.5861(4)
C25 C 0.4817(4) -1.2310(4) 0.6943(4)
C26 C 0.3885(4) -1.1554(4) 0.7280(4)
C27 C 0.3032(3) -1.0791(3) 0.6506(3)
C28 C 0.2012(3) -0.9921(3) 0.6749(3)
C29 C 0.1701(4) -0.9856(4) 0.7795(4)
C30 C 0.0730(4) -0.8999(4) 0.7896(4)
C31 C 0.0099(4) -0.8219(4) 0.6972(4)
C32 C 0.0459(3) -0.8311(4) 0.5937(4)
C33 C 0.2786(4) -0.7912(4) -0.1391(4)
C34 C 0.3257(4) -0.7794(4) -0.2477(4)
C35 C 0.2659(5) -0.6910(4) -0.3402(4)
C36 C 0.1611(4) -0.6167(4) -0.3220(4)
C37 C 0.1211(4) -0.6306(3) -0.2112(4)
C38 C 0.0138(3) -0.5528(3) -0.1807(3)
C39 C -0.0729(4) -0.4751(4) -0.2544(4)
C40 C -0.1654(4) -0.4028(5) -0.2182(4)
C41 C -0.1684(4) -0.4076(4) -0.1112(4)
C42 C -0.0827(4) -0.4906(4) -0.0388(4)
C43 C 0.5210(3) -0.8289(4) 0.0030(4)
C44 C 0.6150(4) -0.9063(4) -0.0319(4)
C45 C 0.6881(4) -0.9915(4) 0.0463(5)
C46 C 0.6750(4) -1.0017(4) 0.1571(5)
C47 C 0.5801(3) -0.9237(3) 0.1878(4)
C48 C 0.5565(3) -0.9258(3) 0.3022(4)
C49 C 0.6292(4) -0.9960(4) 0.3930(4)
C50 C 0.5978(4) -0.9859(4) 0.4959(4)
C51 C 0.4950(4) -0.9049(4) 0.5077(4)
C52 C 0.4254(4) -0.8372(4) 0.4145(3)
C53 C 0.3511(3) -1.5460(3) 0.9923(3)
C54 C 0.3571(3) -1.4691(4) 0.8665(4)
C55 C 0.2396(3) -1.3829(3) 0.8225(3)
C56 C 0.1572(4) -1.3297(4) 0.8850(4)
C57 C 0.0548(4) -1.2466(4) 0.8356(4)
C58 C 0.0367(4) -1.2158(4) 0.7226(4)
C59 C 0.1197(3) -1.2673(3) 0.6581(3)
C60 C 0.2202(3) -1.3518(3) 0.7083(3)
C61 C 0.1042(3) -1.2414(3) 0.5361(4)
C62 C 0.0108(3) -1.1351(3) 0.4726(3)
H1 H 0.0505 -0.3499 0.2926
H2 H -0.0735 -0.8476 0.0713
H3 H -0.2031 -0.7203 -0.0689
H4 H -0.3699 -0.5927 -0.0206
H5 H -0.4002 -0.5994 0.1600
H6 H -0.4063 -0.6124 0.3435
H7 H -0.4083 -0.6531 0.5344
H8 H -0.2796 -0.8219 0.6502
H9 H -0.1358 -0.9329 0.5645
H10 H 0.4031 -1.1509 0.4413
H11 H 0.5500 -1.2813 0.5633
H12 H 0.5402 -1.2824 0.7443
H13 H 0.3833 -1.1558 0.8003
H14 H 0.2138 -1.0382 0.8421
H15 H 0.0501 -0.8950 0.8598
H16 H -0.0558 -0.7639 0.7038
H17 H 0.0044 -0.7774 0.5301
H18 H 0.3160 -0.8532 -0.0767
H19 H 0.3965 -0.8302 -0.2585
H20 H 0.2961 -0.6818 -0.4139
H21 H 0.1182 -0.5584 -0.3829
H22 H -0.0689 -0.4717 -0.3277
H23 H -0.2254 -0.3509 -0.2663
H24 H -0.2274 -0.3557 -0.0871
H25 H -0.0871 -0.4966 0.0355
H26 H 0.4696 -0.7695 -0.0503
H27 H 0.6258 -0.8983 -0.1072
H28 H 0.7487 -1.0447 0.0252
H29 H 0.7279 -1.0589 0.2102
H30 H 0.6986 -1.0494 0.3841
H31 H 0.6453 -1.0331 0.5571
H32 H 0.4731 -0.8959 0.5762
H33 H 0.3560 -0.7829 0.4216
H34 H 0.1695 -1.3490 0.9602
H35 H -0.0015 -1.2118 0.8786
H36 H -0.0315 -1.1603 0.6902
H37 H 0.2754 -1.3881 0.6658
H41 H 0.0988 -0.4776 0.2005
H42 H -0.0796 -0.5105 0.4619
H43 H -0.1802 -0.2813 0.3049
H44 H -0.1995 -0.4967 0.3018
H45 H -0.3547 -0.3155 0.2221
H46 H -0.2568 -0.2723 0.1233
H47 H 0.3686 -1.3455 0.4660
H48 H 0.3329 -1.4448 0.4463
H49 H 0.4272 -1.0517 0.1542
H50 H 0.5163 -1.1791 0.0662
H51 H 0.2963 -1.2369 0.0724
H52 H 0.4795 -1.3969 0.2186
H53 H 0.2660 -1.2714 0.2964
H54 H 0.3821 -1.5198 0.8249
H55 H 0.4183 -1.4244 0.8503
H56 H 0.1811 -1.2327 0.4937
H57 H 0.0858 -1.3104 0.5351
Cu3_2 Cu 0.12651(4) -1.69749(4) 1.02568(4)
Cu4_2 Cu 0.36245(4) -1.75462(4) 1.17611(4)
O19_2 O 0.3093(2) -0.6380(2) 0.0242(2)
O23 O -0.3219(3) -1.1468(3) -0.0914(3)
O24 O -0.2630(4) -1.0996(5) -0.2686(4)
O25 O -0.4386(2) -1.0176(3) -0.2215(3)
N9 N -0.3397(3) -1.0876(3) -0.1931(3)
O26 O -0.3195(7) -1.6823(5) -0.2264(4)
O27 O -0.3796(6) -1.4988(6) -0.2889(7)
O28 O -0.2379(4) -1.5744(4) -0.3769(4)
N10 N -0.3156(4) -1.5837(4) -0.2958(4)
O29 O 0.9603(3) -0.1220(3) 1.1824(4)
C63 C 1.0178(5) -0.1267(6) 1.0827(5)
H38 H 1.0366 -0.2067 1.0889
H39 H 1.0907 -0.0991 1.0680
H40 H 0.9666 -0.0774 1.0214
loop_
_geom_bond_atom_site_label_1
_geom_bond_atom_site_label_2
_geom_bond_site_symmetry_1
_geom_bond_site_symmetry_2
Cu1 O8 1_555 1_555
Cu2 O7 1_555 1_555
Cu3 O9 1_555 1_555
Cu4 O9 1_555 1_555
P1 O1 1_555 1_555
P2 O10 1_555 1_555
O1 C1 1_555 1_555
O2 C2 1_555 1_555
O3 C3 1_555 1_555
O4 C4 1_555 1_555
O5 C1 1_555 1_555
O6 C6 1_555 1_555
O7 P1 1_555 1_555
O8 P1 1_555 1_555
O9 P1 1_555 1_555
O10 C7 1_555 1_555
O11 C8 1_555 1_555
O12 C9 1_555 1_555
O13 C10 1_555 1_555
O14 C7 1_555 1_555
O15 C12 1_555 1_555
O16 Cu3 1_555 1_555
O17 Cu1 1_555 1_555
O18 Cu4 1_555 1_555
O19 C53 1_555 1_555
O20 C53 1_555 1_555
O21 C62 1_555 1_555
O22 Cu1 1_555 1_555
O23 N9 1_555 1_555
O24 N9 1_555 1_555
O25 N9 1_555 1_555
O26 N10 1_555 1_555
O27 N10 1_555 1_555
O28 N10 1_555 1_555
O29 C63 1_555 1_555
N1 Cu1 1_555 1_555
N2 Cu1 1_555 1_555
N3 Cu2 1_555 1_555
N4 Cu2 1_555 1_555
N5 Cu3 1_555 1_555
N6 Cu3 1_555 1_555
N7 Cu4 1_555 1_555
N8 Cu4 1_555 1_555
C1 C2 1_555 1_555
C2 C3 1_555 1_555
C3 C4 1_555 1_555
C4 C5 1_555 1_555
C5 O5 1_555 1_555
C6 C5 1_555 1_555
C7 C8 1_555 1_555
C8 C9 1_555 1_555
C9 C10 1_555 1_555
C10 C11 1_555 1_555
C11 O14 1_555 1_555
C12 C11 1_555 1_555
C13 N1 1_555 1_555
C14 C13 1_555 1_555
C15 C14 1_555 1_555
C16 C15 1_555 1_555
C17 N1 1_555 1_555
C18 N2 1_555 1_555
C19 C18 1_555 1_555
C20 C19 1_555 1_555
C21 C20 1_555 1_555
C22 N2 1_555 1_555
C23 N3 1_555 1_555
C24 C23 1_555 1_555
C25 C24 1_555 1_555
C26 C25 1_555 1_555
C27 N3 1_555 1_555
C28 N4 1_555 1_555
C29 C28 1_555 1_555
C30 C29 1_555 1_555
C31 C30 1_555 1_555
C32 N4 1_555 1_555
C33 N5 1_555 1_555
C34 C33 1_555 1_555
C35 C34 1_555 1_555
C36 C35 1_555 1_555
C37 N5 1_555 1_555
C38 N6 1_555 1_555
C39 C38 1_555 1_555
C40 C39 1_555 1_555
C41 C40 1_555 1_555
C42 N6 1_555 1_555
C43 N7 1_555 1_555
C44 C43 1_555 1_555
C45 C44 1_555 1_555
C46 C45 1_555 1_555
C47 N7 1_555 1_555
C48 N8 1_555 1_555
C49 C48 1_555 1_555
C50 C49 1_555 1_555
C51 C50 1_555 1_555
C52 N8 1_555 1_555
C53 C54 1_555 1_555
C54 C55 1_555 1_555
C55 C56 1_555 1_555
C56 C57 1_555 1_555
C57 C58 1_555 1_555
C58 C59 1_555 1_555
C59 C60 1_555 1_555
C60 C55 1_555 1_555
C61 C59 1_555 1_555
C62 O22 1_555 1_555
C63 H38 1_555 1_555
H1 C8 1_555 1_555
H2 C13 1_555 1_555
H3 C14 1_555 1_555
H4 C15 1_555 1_555
H5 C16 1_555 1_555
H6 C19 1_555 1_555
H7 C20 1_555 1_555
H8 C21 1_555 1_555
H9 C22 1_555 1_555
H10 C23 1_555 1_555
H11 C24 1_555 1_555
H12 C25 1_555 1_555
H13 C26 1_555 1_555
H14 C29 1_555 1_555
H15 C30 1_555 1_555
H16 C31 1_555 1_555
H17 C32 1_555 1_555
H18 C33 1_555 1_555
H19 C34 1_555 1_555
H20 C35 1_555 1_555
H21 C36 1_555 1_555
H22 C39 1_555 1_555
H23 C40 1_555 1_555
H24 C41 1_555 1_555
H25 C42 1_555 1_555
H26 C43 1_555 1_555
H27 C44 1_555 1_555
H28 C45 1_555 1_555
H29 C46 1_555 1_555
H30 C49 1_555 1_555
H31 C50 1_555 1_555
H32 C51 1_555 1_555
H33 C52 1_555 1_555
H34 C56 1_555 1_555
H35 C57 1_555 1_555
H36 C58 1_555 1_555
H37 C60 1_555 1_555
H39 C63 1_555 1_555
H40 C63 1_555 1_555
H41 C7 1_555 1_555
H42 C9 1_555 1_555
H43 C10 1_555 1_555
H44 C11 1_555 1_555
H45 C12 1_555 1_555
H46 C12 1_555 1_555
H47 C6 1_555 1_555
H48 C6 1_555 1_555
H49 C1 1_555 1_555
H50 C2 1_555 1_555
H51 C3 1_555 1_555
H52 C4 1_555 1_555
H53 C5 1_555 1_555
H54 C54 1_555 1_555
H55 C54 1_555 1_555
H56 C61 1_555 1_555
H57 C61 1_555 1_555
Cu3_2 O19 1_555 1_555
Cu4_2 O19 1_555 1_555
O19_2 Cu3 1_555 1_555
Cu2 O17 1_555 1_555
Cu2 O22 1_555 1_555
Cu4 O19_2 1_555 1_555
P2 O16 1_555 1_555
P2 O17 1_555 1_555
P2 O18 1_555 1_555
C16 C17 1_555 1_555
C17 C18 1_555 1_555
C21 C22 1_555 1_555
C26 C27 1_555 1_555
C27 C28 1_555 1_555
C31 C32 1_555 1_555
C36 C37 1_555 1_555
C37 C38 1_555 1_555
C41 C42 1_555 1_555
C46 C47 1_555 1_555
C47 C48 1_555 1_555
C51 C52 1_555 1_555
C61 C62 1_555 1_555

#END
