
#######################################################################
#
#                 Cambridge Crystallographic Data Centre
#                                CCDC 
#
#######################################################################
#
# If this CIF has been generated from an entry in the Cambridge 
# Structural Database, then it will include bibliographic, chemical, 
# crystal, experimental, refinement or atomic coordinate data resulting 
# from the CCDC's data processing and validation procedures.
#
#######################################################################

data_CELSAO
_symmetry_cell_setting           monoclinic
_symmetry_space_group_name_H-M   'P 21'
_symmetry_Int_Tables_number      4
_space_group_name_Hall           'P 2yb'
loop_
_symmetry_equiv_pos_site_id
_symmetry_equiv_pos_as_xyz
1 x,y,z
2 -x,1/2+y,-z
_cell_length_a                   14.1488(5)
_cell_length_b                   19.0043(5)
_cell_length_c                   14.4367(5)
_cell_angle_alpha                90
_cell_angle_beta                 96.0380(5)
_cell_angle_gamma                90
_cell_volume                     3860.32
loop_
_atom_site_label
_atom_site_type_symbol
_atom_site_fract_x
_atom_site_fract_y
_atom_site_fract_z
Cu1 Cu -0.17502(4) -0.02738(3) 0.04512(4)
Cu2 Cu -0.08336(5) -0.19429(3) 0.07581(5)
Cu3 Cu -0.44104(4) -0.09222(3) 0.11722(4)
Cu4 Cu -0.33692(4) -0.24754(3) 0.14822(4)
P1 P -0.20469(9) -0.12037(6) 0.21202(9)
P2 P -0.31679(9) -0.15634(6) -0.02420(9)
O1 O -0.1975(2) -0.10980(19) 0.3226(2)
O2 O -0.0658(3) -0.1728(2) 0.4484(2)
O3 O -0.1535(3) -0.1266(2) 0.6093(2)
O4 O -0.3083(3) -0.0276(2) 0.5605(3)
O5 O -0.1496(2) 0.0012(2) 0.3779(2)
O6 O -0.1847(4) 0.1246(2) 0.4767(4)
O7 O -0.1988(2) -0.0484(2) 0.1699(2)
O8 O -0.1240(2) -0.1685(2) 0.1943(2)
O9 O -0.3029(2) -0.15342(19) 0.1906(2)
O10 O -0.3249(2) -0.1669(2) -0.1352(2)
O11 O -0.2697(2) -0.2248(2) -0.3016(2)
O12 O -0.4014(3) -0.1517(2) -0.4244(2)
O13 O -0.5478(3) -0.0787(2) -0.3388(3)
O14 O -0.4762(2) -0.2175(2) -0.1696(2)
O15 O -0.6685(3) -0.2214(2) -0.2307(3)
O16 O -0.3126(2) -0.22854(19) 0.0202(2)
O17 O -0.4024(2) -0.1136(2) -0.0041(2)
O18 O -0.2230(2) -0.1179(2) -0.0054(2)
O19 O -0.0373(2) -0.0970(2) 0.0565(2)
O20 O 0.0320(3) -0.0109(2) 0.1424(3)
O21 O 0.0720(2) -0.1949(2) 0.1523(2)
O22 O 0.2225(2) -0.0490(2) 0.0944(3)
O23 O 0.3065(2) -0.1366(2) 0.2424(2)
O24 O 0.3921(2) -0.1035(2) 0.0690(2)
O25 O 0.4172(2) -0.2756(2) 0.1608(3)
O26 O 0.5205(2) -0.1905(2) 0.1429(2)
N1 N -0.1601(3) 0.0743(2) 0.0804(3)
N2 N -0.1593(3) 0.0131(2) -0.0786(3)
N3 N -0.0676(3) -0.2303(2) -0.0496(3)
N4 N -0.1047(3) -0.2964(2) 0.0988(3)
N5 N -0.4206(3) 0.0107(2) 0.0952(3)
N6 N -0.4674(3) -0.0540(2) 0.2419(3)
N7 N -0.3377(3) -0.2873(2) 0.2777(3)
N8 N -0.3556(3) -0.3485(2) 0.1165(3)
C1 C -0.1222(3) -0.0690(2) 0.3681(3)
C2 C -0.0962(3) -0.1035(3) 0.4634(3)
C3 C -0.1824(4) -0.1007(3) 0.5183(3)
C4 C -0.2199(4) -0.0264(3) 0.5208(4)
C5 C -0.2349(4) 0.0073(3) 0.4243(4)
C6 C -0.2571(5) 0.0856(3) 0.4255(5)
C7 C -0.3784(3) -0.2219(2) -0.1812(3)
C8 C -0.3672(3) -0.2191(2) -0.2843(3)
C9 C -0.4079(3) -0.1511(2) -0.3269(3)
C10 C -0.5119(3) -0.1457(2) -0.3084(3)
C11 C -0.5221(3) -0.1549(2) -0.2052(3)
C12 C -0.6246(4) -0.1615(3) -0.1851(4)
C13 C -0.1181(4) -0.3267(3) 0.1825(5)
C14 C -0.1272(4) -0.3983(3) 0.1937(5)
C15 C -0.1251(4) -0.4416(3) 0.1142(5)
C16 C -0.1129(4) -0.4115(3) 0.0294(5)
C17 C -0.1028(3) -0.3389(3) 0.0235(4)
C18 C -0.0865(3) -0.3004(3) -0.0607(4)
C19 C -0.0877(4) -0.3315(3) -0.1495(4)
C20 C -0.0709(4) -0.2897(4) -0.2246(4)
C21 C -0.0513(4) -0.2192(3) -0.2112(4)
C22 C -0.0492(4) -0.1926(3) -0.1221(4)
C23 C -0.1547(4) -0.0254(3) -0.1564(3)
C24 C -0.1313(4) 0.0054(3) -0.2385(4)
C25 C -0.1164(5) 0.0778(4) -0.2404(4)
C26 C -0.1235(4) 0.1167(3) -0.1618(4)
C27 C -0.1448(3) 0.0836(3) -0.0811(4)
C28 C -0.1506(3) 0.1184(3) 0.0091(4)
C29 C -0.1505(3) 0.1909(3) 0.0217(4)
C30 C -0.1589(4) 0.2182(3) 0.1079(4)
C31 C -0.1673(4) 0.1727(3) 0.1820(4)
C32 C -0.1662(4) 0.1010(3) 0.1663(4)
C33 C -0.3580(3) -0.3752(2) 0.0313(4)
C34 C -0.3715(4) -0.4452(3) 0.0135(4)
C35 C -0.3858(4) -0.4898(3) 0.0857(4)
C36 C -0.3827(4) -0.4631(3) 0.1753(4)
C37 C -0.3666(3) -0.3925(2) 0.1883(3)
C38 C -0.3554(4) -0.3568(3) 0.2801(3)
C39 C -0.3582(5) -0.3921(3) 0.3640(4)
C40 C -0.3427(5) -0.3556(3) 0.4474(4)
C41 C -0.3238(5) -0.2831(3) 0.4440(4)
C42 C -0.3230(4) -0.2515(3) 0.3579(3)
C43 C -0.4864(4) -0.0940(3) 0.3149(3)
C44 C -0.5059(4) -0.0627(3) 0.3990(4)
C45 C -0.5059(4) 0.0098(4) 0.4049(4)
C46 C -0.4869(4) 0.0503(3) 0.3305(4)
C47 C -0.4657(3) 0.0162(2) 0.2492(4)
C48 C -0.4398(3) 0.0541(2) 0.1657(3)
C49 C -0.4355(4) 0.1263(3) 0.1572(4)
C50 C -0.4101(5) 0.1549(3) 0.0748(5)
C51 C -0.3901(4) 0.1117(3) 0.0042(4)
C52 C -0.3963(4) 0.0385(3) 0.0160(4)
C53 C 0.0290(3) -0.0719(3) 0.1193(4)
C54 C 0.1030(3) -0.1245(2) 0.1598(3)
C55 C 0.1922(3) -0.1201(2) 0.1064(3)
C56 C 0.2744(3) -0.1649(2) 0.1525(3)
C57 C 0.3566(3) -0.1705(2) 0.0909(3)
C58 C 0.4365(3) -0.2161(2) 0.1360(3)
H1 H -0.3708 -0.4412 0.3642
H2 H -0.1320 -0.4911 0.1193
H3 H -0.1212 -0.2970 0.2351
H4 H -0.1737 0.1906 0.2424
H5 H -0.2916 -0.0167 0.3979
H6 H -0.5987 -0.0796 -0.3816
H7 H -0.4866 -0.1438 0.3094
H8 H -0.5189 -0.0908 0.4506
H9 H -0.5193 0.0319 0.4612
H10 H -0.4880 0.1002 0.3339
H11 H -0.4067 0.2045 0.0678
H12 H -0.3722 0.1308 -0.0522
H13 H -0.1000 -0.3804 -0.1578
H14 H -0.1348 -0.4180 0.2530
H15 H -0.1590 0.2676 0.1172
H16 H -0.1139 0.1662 -0.1625
H17 H -0.0336 -0.1443 -0.1125
H18 H -0.0396 -0.1897 -0.2619
H19 H -0.1631 0.0066 0.5731
H20 H -0.3915 -0.4930 0.2265
H21 H -0.3776 -0.0936 -0.2906
H22 H -0.4710 -0.1234 -0.1582
H23 H -0.6617 -0.1088 -0.2127
H24 H 0.2497 -0.2135 0.1617
H25 H -0.1114 -0.4401 -0.0245
H26 H -0.1697 0.0697 0.2171
H27 H -0.0347 -0.0708 0.4788
H28 H -0.1013 0.1000 -0.2960
H29 H -0.6305 -0.1700 -0.1035
H30 H -0.7260 -0.1990 -0.2520
H31 H -0.2692 0.1217 0.3493
H32 H 0.1066 -0.1134 0.2205
H33 H 0.1993 -0.1197 0.0426
H34 H 0.3479 -0.1791 0.0396
H35 H 0.3631 -0.1119 0.3021
H36 H -0.2333 -0.1320 0.4877
H37 H -0.0568 -0.0670 0.3386
H38 H -0.1270 0.1023 0.4322
H39 H -0.3499 -0.3444 -0.0191
H40 H -0.3710 -0.4629 -0.0480
H41 H -0.3977 -0.5384 0.0743
H42 H -0.2479 -0.2855 -0.3010
H43 H -0.3296 -0.1971 0.3452
H44 H -0.3120 -0.2564 0.4997
H45 H -0.4496 0.1559 0.2069
H46 H -0.3830 0.0082 -0.0333
H47 H -0.0477 -0.1852 0.4912
H48 H 0.0600 -0.2010 0.1840
H49 H -0.3207 0.1038 0.4486
H50 H -0.3835 -0.1221 -0.4236
H51 H -0.4067 -0.2600 -0.3067
H52 H -0.3448 -0.3790 0.5053
H53 H -0.3487 -0.0607 0.5664
H54 H 0.2257 -0.0229 0.1558
H55 H -0.1677 -0.0744 -0.1552
H56 H -0.1257 -0.0225 -0.2923
H57 H -0.0728 -0.3095 -0.2851
H58 H -0.1445 0.2213 -0.0295
H59 H 0.3485 -0.0851 0.0632
H60 H -0.5470 -0.1980 -0.3550
H61 H -0.2013 -0.1524 0.6275
H62 H -0.3594 -0.2684 -0.1724
Cu3_2 Cu 0.55896(4) -0.09222(3) 0.11722(4)
Cu4_2 Cu 0.66308(4) -0.24754(3) 0.14822(4)
O24_2 O -0.6079(2) -0.1035(2) 0.0690(2)
O26_2 O -0.4795(2) -0.1905(2) 0.1429(2)
H59_2 H -0.6515 -0.0851 0.0632
O27 O -0.2560(3) -0.4771(2) 0.7370(4)
O28 O -0.2708(3) -0.3739(2) 0.6751(3)
O29 O -0.3285(4) -0.3946(2) 0.8047(3)
N9 N -0.2851(3) -0.4144(2) 0.7392(3)
O30 O -0.1490(13) -0.5427(5) 0.3156(9)
O31 O -0.1768(5) -0.6527(4) 0.3240(7)
O32 O -0.1363(6) -0.6097(4) 0.1973(9)
N10 N -0.1516(7) -0.6005(5) 0.2822(8)
O33 O 0.0005(4) -0.3805(3) 0.5618(4)
C59 C -0.0627(9) -0.3829(7) 0.4775(9)
O34 O 0.0434(3) -0.2354(2) 0.3213(3)
C60 C 0.1362(8) -0.2374(8) 0.3754(8)
O35 O -0.3845(7) -0.9346(5) 0.7410(8)
C61 C -0.3439(7) -0.9154(4) 0.6593(6)
O36 O -0.2882(6) -0.6016(5) 0.4572(6)
C62 C -0.2472(7) -0.5563(5) 0.5270(7)
O37 O 0.0727(3) 0.0283(3) 0.3260(3)
O38 O 0.0375(5) -0.2378(3) 0.5900(4)
O39 O 0.361(2) -0.2820(15) 0.3488(19)
C63 C 0.4168(18) -0.2507(15) 0.4306(18)
loop_
_geom_bond_atom_site_label_1
_geom_bond_atom_site_label_2
_geom_bond_site_symmetry_1
_geom_bond_site_symmetry_2
Cu1 O7 1_555 1_555
Cu2 O8 1_555 1_555
Cu3 O9 1_555 1_555
Cu4 O9 1_555 1_555
P1 O1 1_555 1_555
P2 O10 1_555 1_555
O1 C1 1_555 1_555
O2 C2 1_555 1_555
O3 C3 1_555 1_555
O4 C4 1_555 1_555
O5 C1 1_555 1_555
O6 C6 1_555 1_555
O7 P1 1_555 1_555
O8 P1 1_555 1_555
O9 P1 1_555 1_555
O10 C7 1_555 1_555
O11 C8 1_555 1_555
O12 C9 1_555 1_555
O13 C10 1_555 1_555
O14 C7 1_555 1_555
O15 C12 1_555 1_555
O16 Cu4 1_555 1_555
O17 Cu3 1_555 1_555
O18 Cu1 1_555 1_555
O19 Cu1 1_555 1_555
O20 C53 1_555 1_555
O21 Cu2 1_555 1_555
O22 C55 1_555 1_555
O23 C56 1_555 1_555
O24 C57 1_555 1_555
O25 C58 1_555 1_555
O26 C58 1_555 1_555
O27 N9 1_555 1_555
O28 N9 1_555 1_555
O29 N9 1_555 1_555
O30 N10 1_555 1_555
O31 N10 1_555 1_555
O32 N10 1_555 1_555
O33 C59 1_555 1_555
O34 C60 1_555 1_555
O35 C61 1_555 1_555
O36 C62 1_555 1_555
O39 C63 1_555 1_555
N1 Cu1 1_555 1_555
N2 Cu1 1_555 1_555
N3 Cu2 1_555 1_555
N4 Cu2 1_555 1_555
N5 Cu3 1_555 1_555
N6 Cu3 1_555 1_555
N7 Cu4 1_555 1_555
N8 Cu4 1_555 1_555
C1 C2 1_555 1_555
C2 C3 1_555 1_555
C3 C4 1_555 1_555
C4 C5 1_555 1_555
C5 O5 1_555 1_555
C6 C5 1_555 1_555
C7 C8 1_555 1_555
C8 C9 1_555 1_555
C9 C10 1_555 1_555
C10 C11 1_555 1_555
C11 O14 1_555 1_555
C12 C11 1_555 1_555
C13 N4 1_555 1_555
C14 C13 1_555 1_555
C15 C14 1_555 1_555
C16 C15 1_555 1_555
C17 N4 1_555 1_555
C18 N3 1_555 1_555
C19 C18 1_555 1_555
C20 C19 1_555 1_555
C21 C20 1_555 1_555
C22 N3 1_555 1_555
C23 N2 1_555 1_555
C24 C23 1_555 1_555
C25 C24 1_555 1_555
C26 C25 1_555 1_555
C27 N2 1_555 1_555
C28 N1 1_555 1_555
C29 C28 1_555 1_555
C30 C29 1_555 1_555
C31 C30 1_555 1_555
C32 N1 1_555 1_555
C33 N8 1_555 1_555
C34 C33 1_555 1_555
C35 C34 1_555 1_555
C36 C35 1_555 1_555
C37 N8 1_555 1_555
C38 N7 1_555 1_555
C39 C38 1_555 1_555
C40 C39 1_555 1_555
C41 C40 1_555 1_555
C42 N7 1_555 1_555
C43 N6 1_555 1_555
C44 C43 1_555 1_555
C45 C44 1_555 1_555
C46 C45 1_555 1_555
C47 N6 1_555 1_555
C48 N5 1_555 1_555
C49 C48 1_555 1_555
C50 C49 1_555 1_555
C51 C50 1_555 1_555
C52 N5 1_555 1_555
C53 O19 1_555 1_555
C54 O21 1_555 1_555
C55 C54 1_555 1_555
C56 C55 1_555 1_555
C57 C56 1_555 1_555
C58 C57 1_555 1_555
H1 C39 1_555 1_555
H2 C15 1_555 1_555
H3 C13 1_555 1_555
H4 C31 1_555 1_555
H5 C5 1_555 1_555
H6 O13 1_555 1_555
H7 C43 1_555 1_555
H8 C44 1_555 1_555
H9 C45 1_555 1_555
H10 C46 1_555 1_555
H11 C50 1_555 1_555
H12 C51 1_555 1_555
H13 C19 1_555 1_555
H14 C14 1_555 1_555
H15 C30 1_555 1_555
H16 C26 1_555 1_555
H17 C22 1_555 1_555
H18 C21 1_555 1_555
H19 C4 1_555 1_555
H20 C36 1_555 1_555
H21 C9 1_555 1_555
H22 C11 1_555 1_555
H23 C12 1_555 1_555
H24 C56 1_555 1_555
H25 C16 1_555 1_555
H26 C32 1_555 1_555
H27 C2 1_555 1_555
H28 C25 1_555 1_555
H29 C12 1_555 1_555
H30 O15 1_555 1_555
H31 C6 1_555 1_555
H32 C54 1_555 1_555
H33 C55 1_555 1_555
H34 C57 1_555 1_555
H35 O23 1_555 1_555
H36 C3 1_555 1_555
H37 C1 1_555 1_555
H38 O6 1_555 1_555
H39 C33 1_555 1_555
H40 C34 1_555 1_555
H41 C35 1_555 1_555
H42 O11 1_555 1_555
H43 C42 1_555 1_555
H44 C41 1_555 1_555
H45 C49 1_555 1_555
H46 C52 1_555 1_555
H47 O2 1_555 1_555
H48 O21 1_555 1_555
H49 C6 1_555 1_555
H50 O12 1_555 1_555
H51 C8 1_555 1_555
H52 C40 1_555 1_555
H53 O4 1_555 1_555
H54 O22 1_555 1_555
H55 C23 1_555 1_555
H56 C24 1_555 1_555
H57 C20 1_555 1_555
H58 C29 1_555 1_555
H59 O24 1_555 1_555
H60 C10 1_555 1_555
H61 O3 1_555 1_555
H62 C7 1_555 1_555
Cu3_2 O24 1_555 1_555
Cu4_2 O26 1_555 1_555
O24_2 Cu3 1_555 1_555
O26_2 Cu3 1_555 1_555
H59_2 O24_2 1_555 1_555
Cu2 O18 1_555 1_555
Cu2 O19 1_555 1_555
Cu4 O26_2 1_555 1_555
P2 O16 1_555 1_555
P2 O17 1_555 1_555
P2 O18 1_555 1_555
O26 Cu3_2 1_555 1_555
C16 C17 1_555 1_555
C17 C18 1_555 1_555
C21 C22 1_555 1_555
C26 C27 1_555 1_555
C27 C28 1_555 1_555
C31 C32 1_555 1_555
C36 C37 1_555 1_555
C37 C38 1_555 1_555
C41 C42 1_555 1_555
C46 C47 1_555 1_555
C47 C48 1_555 1_555
C51 C52 1_555 1_555
C53 C54 1_555 1_555

#END
