
#######################################################################
#
#                 Cambridge Crystallographic Data Centre
#                                CCDC 
#
#######################################################################
#
# If this CIF has been generated from an entry in the Cambridge 
# Structural Database, then it will include bibliographic, chemical, 
# crystal, experimental, refinement or atomic coordinate data resulting 
# from the CCDC's data processing and validation procedures.
#
#######################################################################

data_CELTUK
_symmetry_cell_setting           orthorhombic
_symmetry_space_group_name_H-M   'P b c a'
_symmetry_Int_Tables_number      61
_space_group_name_Hall           '-P 2ac 2ab'
loop_
_symmetry_equiv_pos_site_id
_symmetry_equiv_pos_as_xyz
1 x,y,z
2 1/2-x,-y,1/2+z
3 -x,1/2+y,1/2-z
4 1/2+x,1/2-y,-z
5 -x,-y,-z
6 1/2+x,y,1/2-z
7 x,1/2-y,1/2+z
8 1/2-x,1/2+y,z
_cell_length_a                   14.7715(8)
_cell_length_b                   15.5054(9)
_cell_length_c                   16.6278(10)
_cell_angle_alpha                90
_cell_angle_beta                 90
_cell_angle_gamma                90
_cell_volume                     3808.4
loop_
_atom_site_label
_atom_site_type_symbol
_atom_site_fract_x
_atom_site_fract_y
_atom_site_fract_z
Co1 Co 0.05065(4) 0.25864(3) 0.25866(3)
O1 O 0.0503(2) 0.16428(16) 0.34929(15)
N1 N -0.0379(2) 0.1822(2) 0.18199(19)
N2 N 0.1477(2) 0.3221(2) 0.33710(19)
C1 C 0.1758(3) 0.3076(3) 0.4125(2)
H1 H 0.1558 0.2618 0.4438
C2 C -0.0987(3) 0.2018(3) 0.1256(2)
H2 H -0.1224 0.2567 0.1177
O2 O 0.08048(19) 0.03576(17) 0.29489(15)
N3 N 0.1931(2) 0.3936(2) 0.3147(2)
H3 H 0.1879 0.4174 0.2682
C3 C 0.2384(3) 0.3687(3) 0.4387(2)
N4 N -0.0217(2) 0.0973(2) 0.17142(19)
H4 H 0.0155 0.0680 0.2003
C4 C -0.1226(3) 0.1288(3) 0.0794(2)
C5 C 0.2475(3) 0.4235(3) 0.3732(2)
H5 H 0.2844 0.4720 0.3703
C6 C -0.0698(3) 0.0637(3) 0.1111(2)
H6 H -0.0681 0.0068 0.0936
N5 N 0.1581(2) 0.2906(2) 0.68911(19)
N6 N -0.0505(2) 0.1786(2) -0.17207(18)
O3 O -0.1232(2) -0.03606(19) 0.31670(17)
C7 C 0.1658(3) 0.3110(3) 0.6114(2)
H7 H 0.1197 0.3035 0.5740
N7 N 0.2390(3) 0.3120(2) 0.7203(2)
H8 H 0.2528 0.3053 0.7702
C8 C -0.0742(3) 0.1889(3) -0.0955(2)
H9 H -0.0499 0.2308 -0.0618
N8 N -0.1008(2) 0.1111(2) -0.1974(2)
H10 H -0.0988 0.0904 -0.2453
O4 O -0.0259(2) -0.14595(17) 0.32783(15)
C9 C -0.1395(3) 0.1295(3) -0.0716(2)
C10 C 0.2507(3) 0.3449(3) 0.5926(2)
C11 C 0.2958(3) 0.3448(3) 0.6658(2)
H11 H 0.3545 0.3640 0.6751
C12 C -0.1540(3) 0.0803(3) -0.1392(2)
H12 H -0.1936 0.0339 -0.1435
C13 C -0.1865(3) 0.1233(3) 0.0085(2)
H13 H -0.2191 0.0691 0.0111
H14 H -0.2306 0.1695 0.0125
C14 C 0.2928(3) 0.3758(3) 0.5152(2)
H15 H 0.3486 0.3440 0.5074
H16 H 0.3090 0.4359 0.5222
C15 C 0.0249(3) 0.0403(2) 0.4278(2)
C16 C 0.0466(3) 0.0763(2) 0.5011(2)
H17 H 0.0775 0.1285 0.5021
C17 C -0.0237(3) -0.0373(2) 0.4262(2)
C18 C 0.0542(3) 0.0834(3) 0.3508(2)
C19 C -0.0601(3) -0.0754(2) 0.3494(2)
Co1D Co -0.05065(4) -0.25864(3) 0.74134(3)
Co1F Co 0.05065(4) 0.24136(3) 0.75866(3)
Co1F_2 Co 0.05065(4) 0.24136(3) -0.24134(3)
Co1B Co -0.05065(4) -0.24136(3) 0.24134(3)
O1D O -0.0503(2) -0.16428(16) 0.65071(15)
N1F N -0.0379(2) 0.3178(2) 0.68199(19)
N1D N 0.0379(2) -0.1822(2) 0.81801(19)
N2F N 0.1477(2) 0.1779(2) -0.16290(19)
N2D N -0.1477(2) -0.3221(2) 0.66290(19)
C1F C 0.1758(3) 0.1924(3) -0.0875(2)
H1F H 0.1558 0.2382 -0.0562
C2F C -0.0987(3) 0.2982(3) 0.6256(2)
H2F H -0.1224 0.2433 0.6177
O2D O -0.08048(19) -0.03576(17) 0.70511(15)
N3F N 0.1931(2) 0.1064(2) -0.1853(2)
H3F H 0.1879 0.0826 -0.2318
C3F C 0.2384(3) 0.1313(3) -0.0613(2)
N4F N -0.0217(2) 0.4027(2) 0.67142(19)
H4F H 0.0155 0.4320 0.7003
C4F C -0.1226(3) 0.3712(3) 0.5794(2)
C5F C 0.2475(3) 0.0765(3) -0.1268(2)
H5F H 0.2844 0.0280 -0.1297
C6F C -0.0698(3) 0.4363(3) 0.6111(2)
H6F H -0.0681 0.4932 0.5936
N5F N 0.1581(2) 0.2094(2) 0.18911(19)
N5B N -0.1581(2) -0.2094(2) 0.81089(19)
N6F N -0.0505(2) 0.3214(2) 0.32793(18)
N6B N 0.0505(2) -0.3214(2) 0.67207(18)
O3D O 0.1232(2) 0.03606(19) 0.68330(17)
C7F C 0.1658(3) 0.1890(3) 0.1114(2)
H7F H 0.1197 0.1965 0.0740
N7F N 0.2390(3) 0.1880(2) 0.2203(2)
H8F H 0.2528 0.1947 0.2702
C8F C -0.0742(3) 0.3111(3) 0.4045(2)
H9F H -0.0499 0.2692 0.4382
N8F N -0.1008(2) 0.3889(2) 0.3026(2)
H10F H -0.0988 0.4096 0.2547
O4D O 0.0259(2) 0.14595(17) 0.67217(15)
O4B O 0.0259(2) 0.35405(17) 0.17217(15)
O4F O -0.0259(2) -0.35405(17) 0.82783(15)
C9F C -0.1395(3) 0.3705(3) 0.4284(2)
C10F C 0.2507(3) 0.1551(3) 0.0926(2)
C11F C 0.2958(3) 0.1552(3) 0.1658(2)
H11F H 0.3545 0.1360 0.1751
C12F C -0.1540(3) 0.4197(3) 0.3608(2)
H12F H -0.1936 0.4661 0.3565
C13F C -0.1865(3) 0.3767(3) 0.5085(2)
H13F H -0.2191 0.4309 0.5111
H14F H -0.2306 0.3305 0.5125
C14F C 0.2928(3) 0.1242(3) 0.0152(2)
H15F H 0.3486 0.1560 0.0074
H16F H 0.3090 0.0641 0.0222
C15D C -0.0249(3) -0.0403(2) 0.5722(2)
C16D C -0.0466(3) -0.0763(2) 0.4989(2)
H17D H -0.0775 -0.1285 0.4979
C17D C 0.0237(3) 0.0373(2) 0.5738(2)
C18D C -0.0542(3) -0.0834(3) 0.6492(2)
C19D C 0.0601(3) 0.0754(2) 0.6506(2)
loop_
_geom_bond_atom_site_label_1
_geom_bond_atom_site_label_2
_geom_bond_site_symmetry_1
_geom_bond_site_symmetry_2
Co1 O1 1_555 1_555
O1 C18 1_555 1_555
N1 Co1 1_555 1_555
N2 Co1 1_555 1_555
C1 N2 1_555 1_555
H1 C1 1_555 1_555
C2 N1 1_555 1_555
H2 C2 1_555 1_555
O2 C18 1_555 1_555
N3 N2 1_555 1_555
H3 N3 1_555 1_555
C3 C1 1_555 1_555
N4 N1 1_555 1_555
H4 N4 1_555 1_555
C4 C2 1_555 1_555
C5 N3 1_555 1_555
H5 C5 1_555 1_555
C6 N4 1_555 1_555
H6 C6 1_555 1_555
N5 C7 1_555 1_555
N6 C8 1_555 1_555
O3 C19 1_555 1_555
C7 H7 1_555 1_555
N7 N5 1_555 1_555
H8 N7 1_555 1_555
C8 H9 1_555 1_555
N8 N6 1_555 1_555
H10 N8 1_555 1_555
O4 C19 1_555 1_555
C9 C8 1_555 1_555
C10 C7 1_555 1_555
C11 N7 1_555 1_555
H11 C11 1_555 1_555
C12 N8 1_555 1_555
H12 C12 1_555 1_555
C13 C4 1_555 1_555
H13 C13 1_555 1_555
H14 C13 1_555 1_555
C14 C3 1_555 1_555
H15 C14 1_555 1_555
H16 C14 1_555 1_555
C15 C16 1_555 1_555
C16 H17 1_555 1_555
C17 C15 1_555 1_555
C18 C15 1_555 1_555
C19 C17 1_555 1_555
Co1D O1D 1_555 1_555
Co1F N5 1_555 1_555
Co1F_2 N6 1_555 1_555
Co1B O4 1_555 1_555
O1D C18D 1_555 1_555
N1F Co1F 1_555 1_555
N1D Co1D 1_555 1_555
N2F Co1F_2 1_555 1_555
N2D Co1D 1_555 1_555
C1F N2F 1_555 1_555
H1F C1F 1_555 1_555
C2F N1F 1_555 1_555
H2F C2F 1_555 1_555
O2D C18D 1_555 1_555
N3F N2F 1_555 1_555
H3F N3F 1_555 1_555
C3F C1F 1_555 1_555
N4F N1F 1_555 1_555
H4F N4F 1_555 1_555
C4F C2F 1_555 1_555
C5F N3F 1_555 1_555
H5F C5F 1_555 1_555
C6F N4F 1_555 1_555
H6F C6F 1_555 1_555
N5F Co1 1_555 1_555
N5B Co1D 1_555 1_555
N6F Co1 1_555 1_555
N6B Co1D 1_555 1_555
O3D C19D 1_555 1_555
C7F N5F 1_555 1_555
H7F C7F 1_555 1_555
N7F N5F 1_555 1_555
H8F N7F 1_555 1_555
C8F N6F 1_555 1_555
H9F C8F 1_555 1_555
N8F N6F 1_555 1_555
H10F N8F 1_555 1_555
O4D Co1F 1_555 1_555
O4B Co1 1_555 1_555
O4F Co1D 1_555 1_555
C9F C8F 1_555 1_555
C10F C7F 1_555 1_555
C11F N7F 1_555 1_555
H11F C11F 1_555 1_555
C12F N8F 1_555 1_555
H12F C12F 1_555 1_555
C13F C4F 1_555 1_555
H13F C13F 1_555 1_555
H14F C13F 1_555 1_555
C14F C3F 1_555 1_555
H15F C14F 1_555 1_555
H16F C14F 1_555 1_555
C15D C16D 1_555 1_555
C16D C17 1_555 1_555
H17D C16D 1_555 1_555
C17D C16 1_555 1_555
C18D C15D 1_555 1_555
C19D O4D 1_555 1_555
C3 C5 1_555 1_555
C4 C6 1_555 1_555
C9 C12 1_555 1_555
C9 C13 1_555 1_555
C10 C11 1_555 1_555
C10 C14 1_555 1_555
C3F C5F 1_555 1_555
C4F C6F 1_555 1_555
C9F C12F 1_555 1_555
C9F C13F 1_555 1_555
C10F C11F 1_555 1_555
C10F C14F 1_555 1_555
C15D C17D 1_555 1_555
C17D C19D 1_555 1_555

#END
