
#######################################################################
#
#                 Cambridge Crystallographic Data Centre
#                                CCDC 
#
#######################################################################
#
# If this CIF has been generated from an entry in the Cambridge 
# Structural Database, then it will include bibliographic, chemical, 
# crystal, experimental, refinement or atomic coordinate data resulting 
# from the CCDC's data processing and validation procedures.
#
#######################################################################

data_CELVAS
_symmetry_cell_setting           triclinic
_symmetry_space_group_name_H-M   'P -1'
_symmetry_Int_Tables_number      2
_space_group_name_Hall           '-P 1'
loop_
_symmetry_equiv_pos_site_id
_symmetry_equiv_pos_as_xyz
1 x,y,z
2 -x,-y,-z
_cell_length_a                   8.7622(2)
_cell_length_b                   12.4678(3)
_cell_length_c                   17.6534(5)
_cell_angle_alpha                97.7990(10)
_cell_angle_beta                 96.5530(10)
_cell_angle_gamma                98.1920(10)
_cell_volume                     1873.62
loop_
_atom_site_label
_atom_site_type_symbol
_atom_site_fract_x
_atom_site_fract_y
_atom_site_fract_z
Co1 Co 0.5000 0.0000 0.5000
N2 N 0.65353(13) 0.07509(9) 0.43119(7)
O2 O 0.49858(11) -0.14385(8) 0.42408(6)
C1 C 0.77460(15) 0.04211(11) 0.40002(8)
H1 H 0.8142 -0.0212 0.4086
O4 O 0.50088(12) -0.29017(8) 0.48498(5)
C4 C 0.83406(15) 0.11507(11) 0.35279(8)
N4 N 0.63288(13) 0.16825(9) 0.40330(7)
H4 H 0.5606 0.2057 0.4137
N5 N 1.30657(13) 0.02661(9) 0.41791(6)
O6 O 0.61402(13) -0.57382(9) 0.37878(6)
C5 C 0.73966(15) 0.19520(11) 0.35721(8)
H5 H 0.7485 0.2568 0.3326
O8 O 0.67649(13) -0.52044(9) 0.50616(6)
N7 N 1.29101(14) -0.03635(10) 0.34824(7)
H7 H 1.3516 -0.0825 0.3358
C7 C 1.19208(15) 0.08688(11) 0.41277(8)
H9 H 1.1747 0.1391 0.4524
C9 C 1.10107(15) 0.06089(11) 0.33943(8)
C11 C 1.16964(16) -0.01847(12) 0.30056(8)
H11 H 1.1376 -0.0536 0.2501
C13 C 0.96689(16) 0.11128(13) 0.30613(8)
H13 H 1.0065 0.1856 0.2994
H14 H 0.9266 0.0704 0.2553
C15 C 0.46872(16) -0.31567(11) 0.34705(8)
C17 C 0.58954(16) -0.36465(11) 0.31891(8)
C20 C 0.56379(18) -0.42400(12) 0.24449(8)
H18 H 0.6434 -0.4562 0.2249
C22 C 0.42028(19) -0.43527(12) 0.19949(9)
H20 H 0.4038 -0.4759 0.1502
C23 C 0.30131(18) -0.38638(12) 0.22759(9)
H21 H 0.2053 -0.3939 0.1972
C25 C 0.32579(16) -0.32639(12) 0.30099(8)
H23 H 0.2463 -0.2930 0.3197
C28 C 0.74644(16) -0.34374(11) 0.36664(8)
C29 C 0.78723(16) -0.40578(11) 0.42414(8)
C31 C 0.92962(17) -0.37441(12) 0.47160(8)
H25 H 0.9552 -0.4142 0.5108
C33 C 1.03325(17) -0.28486(12) 0.46107(9)
H27 H 1.1292 -0.2660 0.4920
C35 C 0.99392(17) -0.22357(12) 0.40443(9)
H29 H 1.0632 -0.1631 0.3973
C37 C 0.85110(17) -0.25230(12) 0.35818(8)
H31 H 0.8246 -0.2098 0.3208
C40 C 0.49197(14) -0.24584(11) 0.42547(8)
C41 C 0.68248(16) -0.50797(11) 0.43309(8)
H34 H 0.612(3) -0.5814(19) 0.5085(13)
Co1_2 Co 1.5000 0.0000 0.5000
Co1_3 Co -0.5000 0.0000 0.5000
N2A N 0.34647(13) -0.07509(9) 0.56881(7)
O2A O 0.50142(11) 0.14385(8) 0.57592(6)
C1A C 0.22540(15) -0.04211(11) 0.59998(8)
H1A H 0.1858 0.0212 0.5914
O4A O 0.49912(12) 0.29017(8) 0.51502(5)
C4A C 0.16594(15) -0.11507(11) 0.64721(8)
N4A N 0.36712(13) -0.16825(9) 0.59670(7)
H4A H 0.4394 -0.2057 0.5863
N5_2 N 0.30657(13) 0.02661(9) 0.41791(6)
N5A N 0.69343(13) -0.02661(9) 0.58209(6)
N5A_2 N -0.30657(13) -0.02661(9) 0.58209(6)
O6A O 0.38598(13) 0.57382(9) 0.62122(6)
C5A C 0.26034(15) -0.19520(11) 0.64279(8)
H5A H 0.2515 -0.2568 0.6674
O8A O 0.32351(13) 0.52044(9) 0.49384(6)
N7A N -0.29101(14) 0.03635(10) 0.65176(7)
H7A H -0.3516 0.0825 0.6642
C7A C -0.19208(15) -0.08688(11) 0.58723(8)
H9A H -0.1747 -0.1391 0.5476
C9A C -0.10107(15) -0.06089(11) 0.66057(8)
C11A C -0.16964(16) 0.01847(12) 0.69944(8)
H11A H -0.1376 0.0536 0.7499
C13A C 0.03311(16) -0.11128(13) 0.69387(8)
H13A H -0.0065 -0.1856 0.7006
H14A H 0.0734 -0.0704 0.7447
C15A C 0.53128(16) 0.31567(11) 0.65295(8)
C17A C 0.41046(16) 0.36465(11) 0.68109(8)
C20A C 0.43621(18) 0.42400(12) 0.75551(8)
H18A H 0.3566 0.4562 0.7751
C22A C 0.57972(19) 0.43527(12) 0.80051(9)
H20A H 0.5962 0.4759 0.8498
C23A C 0.69869(18) 0.38638(12) 0.77241(9)
H21A H 0.7947 0.3939 0.8028
C25A C 0.67421(16) 0.32639(12) 0.69901(8)
H23A H 0.7537 0.2930 0.6803
C28A C 0.25356(16) 0.34374(11) 0.63336(8)
C29A C 0.21277(16) 0.40578(11) 0.57586(8)
C31A C 0.07038(17) 0.37441(12) 0.52840(8)
H25A H 0.0448 0.4142 0.4892
C33A C -0.03325(17) 0.28486(12) 0.53893(9)
H27A H -0.1292 0.2660 0.5080
C35A C 0.00608(17) 0.22357(12) 0.59557(9)
H29A H -0.0632 0.1631 0.6027
C37A C 0.14890(17) 0.25230(12) 0.64182(8)
H31A H 0.1754 0.2098 0.6792
C40A C 0.50803(14) 0.24584(11) 0.57453(8)
C41A C 0.31752(16) 0.50797(11) 0.56691(8)
H34A H 0.388(3) 0.5814(19) 0.4915(13)
N1 N -0.17793(13) 0.06902(9) -0.06060(7)
Co2 Co -1.0000 0.0000 0.0000
O1 O -1.05423(12) -0.13307(8) -0.09431(6)
C2 C -0.29609(16) 0.01876(11) -0.11373(8)
H2 H -0.3180 -0.0567 -0.1295
N3 N -0.18872(14) 0.17639(9) -0.05563(7)
H3 H -0.1259 0.2277 -0.0252
O3 O -1.06124(11) -0.28941(8) -0.04533(5)
C3 C -0.38310(15) 0.09353(12) -0.14287(8)
O5 O -1.07169(12) -0.49658(8) -0.07890(6)
N6 N -0.83357(13) 0.07442(9) -0.06405(7)
C6 C -0.30912(17) 0.19359(12) -0.10393(8)
H6 H -0.3375 0.2613 -0.1100
O7 O -0.91781(15) -0.61938(9) -0.10158(7)
N8 N -0.83062(14) 0.17211(9) -0.08875(7)
H8 H -0.8861 0.2203 -0.0733
C8 C -0.73299(16) 0.02521(11) -0.10238(8)
H10 H -0.7108 -0.0443 -0.0970
C10 C -0.66512(15) 0.09115(12) -0.15168(8)
C12 C -0.73080(16) 0.18536(12) -0.14028(9)
H12 H -0.7097 0.2469 -0.1641
C14 C -0.53379(16) 0.07157(13) -0.19689(8)
H15 H -0.5517 -0.0037 -0.2230
H16 H -0.5284 0.1197 -0.2357
C16 C -1.08161(16) -0.30070(11) -0.18072(8)
C18 C -0.96381(16) -0.36093(11) -0.19982(8)
C19 C -0.98029(19) -0.42355(12) -0.27270(8)
H17 H -0.9020 -0.4623 -0.2865
C21 C -1.1133(2) -0.42831(13) -0.32479(8)
H19 H -1.1244 -0.4718 -0.3729
C24 C -1.22977(19) -0.36908(13) -0.30604(9)
H22 H -1.3183 -0.3725 -0.3414
C26 C -1.21312(17) -0.30465(12) -0.23405(8)
H24 H -1.2902 -0.2639 -0.2214
C27 C -0.81896(16) -0.35602(11) -0.14463(8)
C30 C -0.80479(17) -0.43357(11) -0.09460(8)
C32 C -0.66565(19) -0.42940(13) -0.04642(9)
H26 H -0.6564 -0.4822 -0.0144
C34 C -0.54112(19) -0.34713(15) -0.04603(10)
H28 H -0.4494 -0.3435 -0.0130
C36 C -0.55409(19) -0.27046(14) -0.09508(10)
H30 H -0.4705 -0.2154 -0.0950
C38 C -0.69076(18) -0.27496(13) -0.14440(9)
H32 H -0.6972 -0.2235 -0.1777
C39 C -1.06549(15) -0.23498(11) -0.10140(8)
C42 C -0.93575(18) -0.52443(11) -0.09232(8)
H33 H -1.070(3) -0.419(2) -0.0682(13)
N1_2 N -1.17793(13) 0.06902(9) -0.06060(7)
N1A N -0.82207(13) -0.06902(9) 0.06060(7)
Co2_2 Co 0.0000 0.0000 0.0000
Co2_3 Co -2.0000 0.0000 0.0000
O1A O -0.94577(12) 0.13307(8) 0.09431(6)
C2_2 C -1.29609(16) 0.01876(11) -0.11373(8)
H2_2 H -1.3180 -0.0567 -0.1295
N3_2 N -1.18872(14) 0.17639(9) -0.05563(7)
H3_2 H -1.1259 0.2277 -0.0252
O3A O -0.93876(11) 0.28941(8) 0.04533(5)
C3_2 C -1.38310(15) 0.09353(12) -0.14287(8)
O5A O -0.92831(12) 0.49658(8) 0.07890(6)
N6A N -1.16643(13) -0.07442(9) 0.06405(7)
N6_2 N -1.83357(13) 0.07442(9) -0.06405(7)
C6_2 C -1.30912(17) 0.19359(12) -0.10393(8)
H6_2 H -1.3375 0.2613 -0.1100
O7A O -1.08219(15) 0.61938(9) 0.10158(7)
N8_2 N -1.83062(14) 0.17211(9) -0.08875(7)
H8_2 H -1.8861 0.2203 -0.0733
C8_2 C -1.73299(16) 0.02521(11) -0.10238(8)
H10_2 H -1.7108 -0.0443 -0.0970
C10_2 C -1.66512(15) 0.09115(12) -0.15168(8)
C12_2 C -1.73080(16) 0.18536(12) -0.14028(9)
H12_2 H -1.7097 0.2469 -0.1641
C14_2 C -1.53379(16) 0.07157(13) -0.19689(8)
H15_2 H -1.5517 -0.0037 -0.2230
H16_2 H -1.5284 0.1197 -0.2357
C16A C -0.91839(16) 0.30070(11) 0.18072(8)
C18A C -1.03619(16) 0.36093(11) 0.19982(8)
C19A C -1.01971(19) 0.42355(12) 0.27270(8)
H17A H -1.0980 0.4623 0.2865
C21A C -0.8867(2) 0.42831(13) 0.32479(8)
H19A H -0.8756 0.4718 0.3729
C24A C -0.77023(19) 0.36908(13) 0.30604(9)
H22A H -0.6817 0.3725 0.3414
C26A C -0.78688(17) 0.30465(12) 0.23405(8)
H24A H -0.7098 0.2639 0.2214
C27A C -1.18104(16) 0.35602(11) 0.14463(8)
C30A C -1.19521(17) 0.43357(11) 0.09460(8)
C32A C -1.33435(19) 0.42940(13) 0.04642(9)
H26A H -1.3436 0.4822 0.0144
C34A C -1.45888(19) 0.34713(15) 0.04603(10)
H28A H -1.5506 0.3435 0.0130
C36A C -1.44591(19) 0.27046(14) 0.09508(10)
H30A H -1.5295 0.2154 0.0950
C38A C -1.30924(18) 0.27496(13) 0.14440(9)
H32A H -1.3028 0.2235 0.1777
C39A C -0.93451(15) 0.23498(11) 0.10140(8)
C42A C -1.06425(18) 0.52443(11) 0.09232(8)
H33A H -0.930(3) 0.419(2) 0.0682(13)
loop_
_geom_bond_atom_site_label_1
_geom_bond_atom_site_label_2
_geom_bond_site_symmetry_1
_geom_bond_site_symmetry_2
Co1 N2 1_555 1_555
N1 C2 1_555 1_555
Co2 O1 1_555 1_555
O1 C39 1_555 1_555
N2 C1 1_555 1_555
O2 Co1 1_555 1_555
C1 H1 1_555 1_555
C2 H2 1_555 1_555
N3 N1 1_555 1_555
H3 N3 1_555 1_555
O3 C39 1_555 1_555
O4 C40 1_555 1_555
C3 C2 1_555 1_555
C4 C1 1_555 1_555
N4 N2 1_555 1_555
H4 N4 1_555 1_555
O5 C42 1_555 1_555
N5 N7 1_555 1_555
O6 C41 1_555 1_555
N6 Co2 1_555 1_555
C5 C4 1_555 1_555
H5 C5 1_555 1_555
C6 N3 1_555 1_555
H6 C6 1_555 1_555
O7 C42 1_555 1_555
O8 C41 1_555 1_555
N7 H7 1_555 1_555
N8 N6 1_555 1_555
H8 N8 1_555 1_555
C7 N5 1_555 1_555
H9 C7 1_555 1_555
C8 N6 1_555 1_555
H10 C8 1_555 1_555
C9 C7 1_555 1_555
C10 C8 1_555 1_555
C11 N7 1_555 1_555
H11 C11 1_555 1_555
C12 N8 1_555 1_555
H12 C12 1_555 1_555
C13 C4 1_555 1_555
H13 C13 1_555 1_555
H14 C13 1_555 1_555
C14 C3 1_555 1_555
H15 C14 1_555 1_555
H16 C14 1_555 1_555
C15 C17 1_555 1_555
C16 C18 1_555 1_555
C17 C20 1_555 1_555
C18 C19 1_555 1_555
C19 H17 1_555 1_555
C20 H18 1_555 1_555
C21 C19 1_555 1_555
H19 C21 1_555 1_555
C22 C20 1_555 1_555
H20 C22 1_555 1_555
C23 C22 1_555 1_555
H21 C23 1_555 1_555
C24 C21 1_555 1_555
H22 C24 1_555 1_555
C25 C15 1_555 1_555
H23 C25 1_555 1_555
C26 C16 1_555 1_555
H24 C26 1_555 1_555
C27 C18 1_555 1_555
C28 C17 1_555 1_555
C29 C28 1_555 1_555
C30 C27 1_555 1_555
C31 C29 1_555 1_555
H25 C31 1_555 1_555
C32 C30 1_555 1_555
H26 C32 1_555 1_555
C33 C31 1_555 1_555
H27 C33 1_555 1_555
C34 C32 1_555 1_555
H28 C34 1_555 1_555
C35 C33 1_555 1_555
H29 C35 1_555 1_555
C36 C34 1_555 1_555
H30 C36 1_555 1_555
C37 C28 1_555 1_555
H31 C37 1_555 1_555
C38 C27 1_555 1_555
H32 C38 1_555 1_555
C39 C16 1_555 1_555
C40 O2 1_555 1_555
C41 C29 1_555 1_555
C42 C30 1_555 1_555
H33 O5 1_555 1_555
H34 O8 1_555 1_555
Co1_2 N5 1_555 1_555
Co1_3 N5A_2 1_555 1_555
N1_2 Co2 1_555 1_555
N1A Co2 1_555 1_555
Co2_2 N1 1_555 1_555
Co2_3 N6_2 1_555 1_555
O1A Co2 1_555 1_555
N2A Co1 1_555 1_555
O2A Co1 1_555 1_555
C1A N2A 1_555 1_555
H1A C1A 1_555 1_555
C2_2 N1_2 1_555 1_555
H2_2 C2_2 1_555 1_555
N3_2 N1_2 1_555 1_555
H3_2 N3_2 1_555 1_555
O3A C39A 1_555 1_555
O4A C40A 1_555 1_555
C3_2 C2_2 1_555 1_555
C4A C1A 1_555 1_555
N4A N2A 1_555 1_555
H4A N4A 1_555 1_555
O5A C42A 1_555 1_555
N5_2 Co1 1_555 1_555
N5A Co1 1_555 1_555
N5A_2 N7A 1_555 1_555
O6A C41A 1_555 1_555
N6A Co2 1_555 1_555
N6_2 N8_2 1_555 1_555
C5A C4A 1_555 1_555
H5A C5A 1_555 1_555
C6_2 N3_2 1_555 1_555
H6_2 C6_2 1_555 1_555
O7A C42A 1_555 1_555
O8A C41A 1_555 1_555
N7A H7A 1_555 1_555
N8_2 H8_2 1_555 1_555
C7A N5A_2 1_555 1_555
H9A C7A 1_555 1_555
C8_2 N6_2 1_555 1_555
H10_2 C8_2 1_555 1_555
C9A C7A 1_555 1_555
C10_2 C8_2 1_555 1_555
C11A N7A 1_555 1_555
H11A C11A 1_555 1_555
C12_2 N8_2 1_555 1_555
H12_2 C12_2 1_555 1_555
C13A C4A 1_555 1_555
H13A C13A 1_555 1_555
H14A C13A 1_555 1_555
C14_2 C3_2 1_555 1_555
H15_2 C14_2 1_555 1_555
H16_2 C14_2 1_555 1_555
C15A C17A 1_555 1_555
C16A C18A 1_555 1_555
C17A C20A 1_555 1_555
C18A C19A 1_555 1_555
C19A H17A 1_555 1_555
C20A H18A 1_555 1_555
C21A C19A 1_555 1_555
H19A C21A 1_555 1_555
C22A C20A 1_555 1_555
H20A C22A 1_555 1_555
C23A C22A 1_555 1_555
H21A C23A 1_555 1_555
C24A C21A 1_555 1_555
H22A C24A 1_555 1_555
C25A C15A 1_555 1_555
H23A C25A 1_555 1_555
C26A C16A 1_555 1_555
H24A C26A 1_555 1_555
C27A C18A 1_555 1_555
C28A C17A 1_555 1_555
C29A C28A 1_555 1_555
C30A C27A 1_555 1_555
C31A C29A 1_555 1_555
H25A C31A 1_555 1_555
C32A C30A 1_555 1_555
H26A C32A 1_555 1_555
C33A C31A 1_555 1_555
H27A C33A 1_555 1_555
C34A C32A 1_555 1_555
H28A C34A 1_555 1_555
C35A C33A 1_555 1_555
H29A C35A 1_555 1_555
C36A C34A 1_555 1_555
H30A C36A 1_555 1_555
C37A C28A 1_555 1_555
H31A C37A 1_555 1_555
C38A C27A 1_555 1_555
H32A C38A 1_555 1_555
C39A O1A 1_555 1_555
C40A O2A 1_555 1_555
C41A C29A 1_555 1_555
C42A C30A 1_555 1_555
H33A O5A 1_555 1_555
H34A O8A 1_555 1_555
C3 C6 1_555 1_555
N4 C5 1_555 1_555
C9 C11 1_555 1_555
C9 C13 1_555 1_555
C10 C12 1_555 1_555
C10 C14 1_555 1_555
C15 C40 1_555 1_555
C23 C25 1_555 1_555
C24 C26 1_555 1_555
C35 C37 1_555 1_555
C36 C38 1_555 1_555
C3_2 C6_2 1_555 1_555
N4A C5A 1_555 1_555
C9A C11A 1_555 1_555
C9A C13A 1_555 1_555
C10_2 C12_2 1_555 1_555
C10_2 C14_2 1_555 1_555
C15A C40A 1_555 1_555
C16A C39A 1_555 1_555
C23A C25A 1_555 1_555
C24A C26A 1_555 1_555
C35A C37A 1_555 1_555
C36A C38A 1_555 1_555

#END
