
#######################################################################
#
#                 Cambridge Crystallographic Data Centre
#                                CCDC 
#
#######################################################################
#
# If this CIF has been generated from an entry in the Cambridge 
# Structural Database, then it will include bibliographic, chemical, 
# crystal, experimental, refinement or atomic coordinate data resulting 
# from the CCDC's data processing and validation procedures.
#
#######################################################################

data_CELVEW
_symmetry_cell_setting           triclinic
_symmetry_space_group_name_H-M   'P -1'
_symmetry_Int_Tables_number      2
_space_group_name_Hall           '-P 1'
loop_
_symmetry_equiv_pos_site_id
_symmetry_equiv_pos_as_xyz
1 x,y,z
2 -x,-y,-z
_cell_length_a                   8.8841(9)
_cell_length_b                   8.9716(9)
_cell_length_c                   11.3071(12)
_cell_angle_alpha                76.853(4)
_cell_angle_beta                 83.670(4)
_cell_angle_gamma                65.110(4)
_cell_volume                     795.984
loop_
_atom_site_label
_atom_site_type_symbol
_atom_site_fract_x
_atom_site_fract_y
_atom_site_fract_z
Co1 Co 0.5000 0.0000 0.0000
O1 O 0.3867(3) 0.0129(3) 0.1767(2)
N1 N 0.7243(4) -0.1923(4) 0.0723(3)
C1 C 0.8840(5) -0.2341(5) 0.0391(4)
H1 H 0.9193 -0.1739 -0.0277
O2 O 0.4509(4) 0.1384(4) 0.2993(3)
N2 N 0.7303(4) -0.3113(4) 0.1712(3)
H2 H 0.6440 -0.3163 0.2116
C2 C 0.9912(5) -0.3761(5) 0.1144(3)
O3 O 0.5348(4) -0.3554(4) 0.3768(3)
C3 C 0.8851(5) -0.4203(5) 0.1993(4)
H3 H 0.9165 -0.5107 0.2647
N3 N 1.3933(4) -0.1773(4) 0.0053(3)
O4 O 0.6373(4) -0.2900(4) 0.5168(3)
C4 C 1.3150(5) -0.2507(5) 0.0906(4)
H4 H 1.2969 -0.2344 0.1702
N4 N 1.3931(4) -0.2365(4) -0.0946(3)
H5 H 1.4358 -0.2098 -0.1638
C5 C 1.2637(4) -0.3546(5) 0.0463(4)
C6 C 1.3175(5) -0.3421(5) -0.0717(4)
H6 H 1.3041 -0.3977 -0.1272
C7 C 1.1771(5) -0.4629(5) 0.1119(4)
H7 H 1.2091 -0.5585 0.0735
H8 H 1.2155 -0.5055 0.1949
C8 C 0.1301(5) -0.0232(5) 0.3556(4)
C9 C 0.2016(5) -0.1713(6) 0.4416(4)
C10 C 0.1356(5) -0.2907(6) 0.4594(4)
H9 H 0.1837 -0.3907 0.5151
C11 C -0.0002(6) -0.2626(6) 0.3954(4)
H10 H -0.0438 -0.3429 0.4087
C12 C -0.0718(5) -0.1154(6) 0.3114(4)
H11 H -0.1645 -0.0954 0.2689
C13 C -0.0050(5) 0.0012(6) 0.2913(4)
H12 H -0.0515 0.0989 0.2331
C14 C 0.1943(6) 0.1113(6) 0.3356(5)
H13 H 0.2056 0.1306 0.4145
H14 H 0.1104 0.2140 0.2923
C15 C 0.3580(5) 0.0807(5) 0.2668(4)
C16 C 0.3450(5) -0.2047(7) 0.5180(4)
H15 H 0.3348 -0.0987 0.5333
H16 H 0.3366 -0.2739 0.5958
C17 C 0.5127(5) -0.2886(6) 0.4646(4)
H17 H 0.601(7) -0.238(7) 0.597(6)
Co1_2 Co 1.5000 0.0000 0.0000
Co1_3 Co -0.5000 0.0000 0.0000
O1A O 0.6133(3) -0.0129(3) -0.1767(2)
N1A N 0.2757(4) 0.1923(4) -0.0723(3)
N1_2 N -0.2757(4) -0.1923(4) 0.0723(3)
C1_2 C -0.1160(5) -0.2341(5) 0.0391(4)
H1_2 H -0.0807 -0.1739 -0.0277
O2A O 0.5491(4) -0.1384(4) -0.2993(3)
N2_2 N -0.2697(4) -0.3113(4) 0.1712(3)
H2_2 H -0.3560 -0.3163 0.2116
C2_2 C -0.0088(5) -0.3761(5) 0.1144(3)
O3A O 0.4652(4) 0.3554(4) -0.3768(3)
C3_2 C -0.1149(5) -0.4203(5) 0.1993(4)
H3_2 H -0.0835 -0.5107 0.2647
N3A N 0.6067(4) 0.1773(4) -0.0053(3)
N3_2 N 0.3933(4) -0.1773(4) 0.0053(3)
O4A O 0.3627(4) 0.2900(4) -0.5168(3)
C4_2 C 0.3150(5) -0.2507(5) 0.0906(4)
H4_2 H 0.2969 -0.2344 0.1702
N4_2 N 0.3931(4) -0.2365(4) -0.0946(3)
H5_2 H 0.4358 -0.2098 -0.1638
C5_2 C 0.2637(4) -0.3546(5) 0.0463(4)
C6_2 C 0.3175(5) -0.3421(5) -0.0717(4)
H6_2 H 0.3041 -0.3977 -0.1272
C7_2 C 0.1771(5) -0.4629(5) 0.1119(4)
H7_2 H 0.2091 -0.5585 0.0735
H8_2 H 0.2155 -0.5055 0.1949
C8A C 0.8699(5) 0.0232(5) -0.3556(4)
C9A C 0.7984(5) 0.1713(6) -0.4416(4)
C10A C 0.8644(5) 0.2907(6) -0.4594(4)
H9A H 0.8163 0.3907 -0.5151
C11A C 1.0002(6) 0.2626(6) -0.3954(4)
H10A H 1.0438 0.3429 -0.4087
C12A C 1.0718(5) 0.1154(6) -0.3114(4)
H11A H 1.1645 0.0954 -0.2689
C13A C 1.0050(5) -0.0012(6) -0.2913(4)
H12A H 1.0515 -0.0989 -0.2331
C14A C 0.8057(6) -0.1113(6) -0.3356(5)
H13A H 0.7944 -0.1306 -0.4145
H14A H 0.8896 -0.2140 -0.2923
C15A C 0.6420(5) -0.0807(5) -0.2668(4)
C16A C 0.6550(5) 0.2047(7) -0.5180(4)
H15A H 0.6652 0.0987 -0.5333
H16A H 0.6634 0.2739 -0.5958
C17A C 0.4873(5) 0.2886(6) -0.4646(4)
H17A H 0.399(7) 0.238(7) -0.597(6)
loop_
_geom_bond_atom_site_label_1
_geom_bond_atom_site_label_2
_geom_bond_site_symmetry_1
_geom_bond_site_symmetry_2
Co1 O1 1_555 1_555
O1 C15 1_555 1_555
N1 Co1 1_555 1_555
C1 N1 1_555 1_555
H1 C1 1_555 1_555
O2 C15 1_555 1_555
N2 N1 1_555 1_555
H2 N2 1_555 1_555
C2 C1 1_555 1_555
O3 C17 1_555 1_555
C3 N2 1_555 1_555
H3 C3 1_555 1_555
N3 C4 1_555 1_555
O4 C17 1_555 1_555
C4 H4 1_555 1_555
N4 N3 1_555 1_555
H5 N4 1_555 1_555
C5 C4 1_555 1_555
C6 N4 1_555 1_555
H6 C6 1_555 1_555
C7 C2 1_555 1_555
H7 C7 1_555 1_555
H8 C7 1_555 1_555
C8 C9 1_555 1_555
C9 C10 1_555 1_555
C10 H9 1_555 1_555
C11 C10 1_555 1_555
H10 C11 1_555 1_555
C12 C11 1_555 1_555
H11 C12 1_555 1_555
C13 C8 1_555 1_555
H12 C13 1_555 1_555
C14 C8 1_555 1_555
H13 C14 1_555 1_555
H14 C14 1_555 1_555
C15 C14 1_555 1_555
C16 C9 1_555 1_555
H15 C16 1_555 1_555
H16 C16 1_555 1_555
C17 C16 1_555 1_555
H17 O4 1_555 1_555
Co1_2 N3 1_555 1_555
Co1_3 N1_2 1_555 1_555
O1A Co1 1_555 1_555
N1A Co1 1_555 1_555
N1_2 C1_2 1_555 1_555
C1_2 H1_2 1_555 1_555
O2A C15A 1_555 1_555
N2_2 N1_2 1_555 1_555
H2_2 N2_2 1_555 1_555
C2_2 C1_2 1_555 1_555
O3A C17A 1_555 1_555
C3_2 N2_2 1_555 1_555
H3_2 C3_2 1_555 1_555
N3A Co1 1_555 1_555
N3_2 Co1 1_555 1_555
O4A C17A 1_555 1_555
C4_2 N3_2 1_555 1_555
H4_2 C4_2 1_555 1_555
N4_2 N3_2 1_555 1_555
H5_2 N4_2 1_555 1_555
C5_2 C4_2 1_555 1_555
C6_2 N4_2 1_555 1_555
H6_2 C6_2 1_555 1_555
C7_2 C2_2 1_555 1_555
H7_2 C7_2 1_555 1_555
H8_2 C7_2 1_555 1_555
C8A C9A 1_555 1_555
C9A C10A 1_555 1_555
C10A H9A 1_555 1_555
C11A C10A 1_555 1_555
H10A C11A 1_555 1_555
C12A C11A 1_555 1_555
H11A C12A 1_555 1_555
C13A C8A 1_555 1_555
H12A C13A 1_555 1_555
C14A C8A 1_555 1_555
H13A C14A 1_555 1_555
H14A C14A 1_555 1_555
C15A O1A 1_555 1_555
C16A C9A 1_555 1_555
H15A C16A 1_555 1_555
H16A C16A 1_555 1_555
C17A C16A 1_555 1_555
H17A O4A 1_555 1_555
C2 C3 1_555 1_555
C5 C6 1_555 1_555
C5 C7 1_555 1_555
C12 C13 1_555 1_555
C2_2 C3_2 1_555 1_555
C5_2 C6_2 1_555 1_555
C5_2 C7_2 1_555 1_555
C12A C13A 1_555 1_555
C14A C15A 1_555 1_555

#END
