
#######################################################################
#
#                 Cambridge Crystallographic Data Centre
#                                CCDC 
#
#######################################################################
#
# If this CIF has been generated from an entry in the Cambridge 
# Structural Database, then it will include bibliographic, chemical, 
# crystal, experimental, refinement or atomic coordinate data resulting 
# from the CCDC's data processing and validation procedures.
#
#######################################################################

data_CEMBUS
_symmetry_cell_setting           monoclinic
_symmetry_space_group_name_H-M   'P 21/n'
_symmetry_Int_Tables_number      14
_space_group_name_Hall           '-P 2yn'
loop_
_symmetry_equiv_pos_site_id
_symmetry_equiv_pos_as_xyz
1 x,y,z
2 1/2-x,1/2+y,1/2-z
3 -x,-y,-z
4 1/2+x,1/2-y,1/2+z
_cell_length_a                   7.5160(8)
_cell_length_b                   22.955(3)
_cell_length_c                   12.2650(15)
_cell_angle_alpha                90
_cell_angle_beta                 93.074(2)
_cell_angle_gamma                90
_cell_volume                     2113.03
loop_
_atom_site_label
_atom_site_type_symbol
_atom_site_fract_x
_atom_site_fract_y
_atom_site_fract_z
N1 N 0.1277(2) 0.59469(8) 0.49136(15)
C1 C 0.0571(3) 0.61648(9) 0.58303(17)
C2 C 0.0089(3) 0.67586(9) 0.59346(18)
C3 C 0.0373(3) 0.71299(10) 0.5042(2)
C4 C 0.1071(3) 0.69058(10) 0.4122(2)
C5 C 0.1499(3) 0.63139(10) 0.4098(2)
C6 C -0.0646(3) 0.69600(10) 0.6914(2)
N2 N 0.0794(3) 0.52020(8) 0.66311(15)
C7 C 0.0327(3) 0.57752(9) 0.67363(17)
C8 C -0.0373(3) 0.59942(10) 0.77025(18)
C9 C -0.0573(3) 0.56096(10) 0.85772(19)
C10 C -0.0077(3) 0.50345(11) 0.84710(19)
C11 C 0.0591(3) 0.48554(10) 0.74783(19)
C12 C -0.0862(3) 0.65960(10) 0.7769(2)
N3 N 0.3714(2) 0.39758(8) 0.51630(15)
C13 C 0.4418(3) 0.37650(9) 0.42377(17)
C14 C 0.4919(3) 0.31761(9) 0.41239(18)
C15 C 0.4711(3) 0.28015(9) 0.5018(2)
C16 C 0.3996(3) 0.30123(10) 0.5942(2)
C17 C 0.3507(3) 0.36022(9) 0.59733(19)
C18 C 0.5609(3) 0.29769(10) 0.3124(2)
N4 N 0.4285(2) 0.47412(8) 0.34880(15)
C19 C 0.4664(3) 0.41633(9) 0.33419(17)
C20 C 0.5308(3) 0.39465(10) 0.23588(18)
C21 C 0.5511(3) 0.43444(10) 0.14988(18)
C22 C 0.5144(3) 0.49232(10) 0.1647(2)
C23 C 0.4534(3) 0.50982(10) 0.26521(19)
C24 C 0.5765(3) 0.33407(11) 0.2275(2)
Na1 Na 0.25168(13) 0.49649(4) 0.50540(7)
H5 H 0.00819 0.75314 0.50807
H6 H 0.12642 0.71498 0.35136
H7 H 0.19780 0.61646 0.34537
H8 H -0.09885 0.73568 0.69711
H9 H -0.10462 0.57426 0.92342
H10 H -0.01848 0.47666 0.90533
H11 H 0.09224 0.44587 0.74100
H12 H -0.13414 0.67422 0.84145
H13 H 0.50614 0.24056 0.49793
H14 H 0.38307 0.27643 0.65478
H15 H 0.30027 0.37429 0.66157
H16 H 0.59617 0.25822 0.30586
H17 H 0.59023 0.42104 0.08190
H18 H 0.52984 0.51974 0.10803
H19 H 0.42827 0.54995 0.27484
H20 H 0.61839 0.31960 0.16098
N2B N -0.0794(3) 0.47980(8) 0.33689(15)
N4B N 0.5715(2) 0.52588(8) 0.65120(15)
Na1B Na -0.25168(13) 0.50351(4) 0.49460(7)
Na1B_2 Na 0.74832(13) 0.50351(4) 0.49460(7)
Br1 Br 0.72933(3) 0.642149(10) 0.08894(2)
O1 O 0.3495(3) 0.65566(9) 0.19043(17)
C25 C 0.2314(4) 0.64083(13) 0.1024(3)
H1 H 0.46685 0.65042 0.16888
H2 H 0.25092 0.60187 0.08076
H3 H 0.24913 0.66626 0.04234
H4 H 0.11190 0.64504 0.12336
loop_
_geom_bond_atom_site_label_1
_geom_bond_atom_site_label_2
_geom_bond_site_symmetry_1
_geom_bond_site_symmetry_2
N1 C1 1_555 1_555
C1 C2 1_555 1_555
C2 C3 1_555 1_555
C3 C4 1_555 1_555
C4 C5 1_555 1_555
C5 N1 1_555 1_555
C6 C2 1_555 1_555
N2 C7 1_555 1_555
C7 C1 1_555 1_555
C8 C7 1_555 1_555
C9 C8 1_555 1_555
C10 C9 1_555 1_555
C11 N2 1_555 1_555
C12 C6 1_555 1_555
N3 C13 1_555 1_555
C13 C14 1_555 1_555
C14 C15 1_555 1_555
C15 C16 1_555 1_555
C16 C17 1_555 1_555
C17 N3 1_555 1_555
C18 C14 1_555 1_555
N4 C19 1_555 1_555
C19 C13 1_555 1_555
C20 C19 1_555 1_555
C21 C20 1_555 1_555
C22 C21 1_555 1_555
C23 N4 1_555 1_555
C24 C18 1_555 1_555
Na1 N1 1_555 1_555
O1 C25 1_555 1_555
C25 H2 1_555 1_555
H1 O1 1_555 1_555
H3 C25 1_555 1_555
H4 C25 1_555 1_555
H5 C3 1_555 1_555
H6 C4 1_555 1_555
H7 C5 1_555 1_555
H8 C6 1_555 1_555
H9 C9 1_555 1_555
H10 C10 1_555 1_555
H11 C11 1_555 1_555
H12 C12 1_555 1_555
H13 C15 1_555 1_555
H14 C16 1_555 1_555
H15 C17 1_555 1_555
H16 C18 1_555 1_555
H17 C21 1_555 1_555
H18 C22 1_555 1_555
H19 C23 1_555 1_555
H20 C24 1_555 1_555
N2B Na1 1_555 1_555
N4B Na1 1_555 1_555
Na1B N2 1_555 1_555
Na1B_2 N4 1_555 1_555
N2 Na1 1_555 1_555
C8 C12 1_555 1_555
C10 C11 1_555 1_555
N3 Na1 1_555 1_555
N4 Na1 1_555 1_555
C20 C24 1_555 1_555
C22 C23 1_555 1_555
N2B Na1B 1_555 1_555
N4B Na1B_2 1_555 1_555

#END
