
#######################################################################
#
#                 Cambridge Crystallographic Data Centre
#                                CCDC 
#
#######################################################################
#
# If this CIF has been generated from an entry in the Cambridge 
# Structural Database, then it will include bibliographic, chemical, 
# crystal, experimental, refinement or atomic coordinate data resulting 
# from the CCDC's data processing and validation procedures.
#
#######################################################################

data_CEMCON
_symmetry_cell_setting           monoclinic
_symmetry_space_group_name_H-M   'P 21/c'
_symmetry_Int_Tables_number      14
_space_group_name_Hall           '-P 2ybc'
loop_
_symmetry_equiv_pos_site_id
_symmetry_equiv_pos_as_xyz
1 x,y,z
2 -x,1/2+y,1/2-z
3 -x,-y,-z
4 x,1/2-y,1/2+z
_cell_length_a                   7.1420(14)
_cell_length_b                   49.271(9)
_cell_length_c                   12.872(3)
_cell_angle_alpha                90
_cell_angle_beta                 97.521(3)
_cell_angle_gamma                90
_cell_volume                     4490.6
loop_
_atom_site_label
_atom_site_type_symbol
_atom_site_fract_x
_atom_site_fract_y
_atom_site_fract_z
K1 K 0.66363(15) 0.38711(3) 0.36235(11)
K2 K 1.15321(15) 0.36529(3) 0.32966(10)
N1 N 0.8540(5) 0.40257(7) 0.1849(3)
C1 C 0.8577(6) 0.42962(9) 0.1638(3)
C2 C 0.8714(6) 0.43955(10) 0.0617(4)
C3 C 0.8846(7) 0.42041(14) -0.0177(4)
C4 C 0.8832(8) 0.39339(12) 0.0037(5)
C5 C 0.8656(7) 0.38561(10) 0.1064(5)
C6 C 0.8700(7) 0.46811(12) 0.0434(4)
N2 N 0.8293(6) 0.43917(9) 0.3439(3)
C7 C 0.8446(6) 0.44879(9) 0.2467(4)
C8 C 0.8479(6) 0.47706(9) 0.2242(4)
C9 C 0.8388(8) 0.49487(12) 0.3077(6)
C10 C 0.8256(9) 0.48507(17) 0.4056(6)
C11 C 0.8217(8) 0.45707(16) 0.4195(5)
C12 C 0.8598(7) 0.48595(11) 0.1205(5)
N3 N 0.8313(5) 0.33468(8) 0.3698(3)
C13 C 0.9002(6) 0.32573(9) 0.4675(3)
C14 C 0.9145(6) 0.29796(9) 0.4930(4)
C15 C 0.8563(7) 0.27906(10) 0.4130(4)
C16 C 0.7885(7) 0.28813(11) 0.3156(4)
C17 C 0.7767(7) 0.31577(11) 0.2979(4)
C18 C 0.9831(7) 0.28986(9) 0.5975(4)
N4 N 0.9547(5) 0.37248(7) 0.5213(3)
C19 C 0.9603(6) 0.34562(9) 0.5477(3)
C20 C 1.0246(6) 0.33666(10) 0.6505(4)
C21 C 1.0753(7) 0.35660(11) 0.7278(4)
C22 C 1.0643(7) 0.38320(11) 0.7011(4)
C23 C 1.0054(7) 0.39020(10) 0.5966(5)
C24 C 1.0347(7) 0.30825(10) 0.6730(4)
N5 N 0.3693(5) 0.37753(8) 0.1678(3)
C25 C 0.3661(6) 0.40374(9) 0.1361(3)
C26 C 0.3834(6) 0.41092(10) 0.0318(4)
C27 C 0.4000(7) 0.38992(13) -0.0399(4)
C28 C 0.4016(8) 0.36369(12) -0.0071(5)
C29 C 0.3863(7) 0.35825(11) 0.0973(5)
C30 C 0.3843(7) 0.43915(11) 0.0023(4)
N6 N 0.3260(5) 0.41740(8) 0.3118(3)
C31 C 0.3464(6) 0.42492(9) 0.2125(3)
C32 C 0.3507(6) 0.45229(9) 0.1804(4)
C33 C 0.3395(7) 0.47215(10) 0.2568(5)
C34 C 0.3227(8) 0.46485(13) 0.3559(5)
C35 C 0.3143(7) 0.43716(13) 0.3800(4)
C36 C 0.3707(7) 0.45860(10) 0.0734(4)
N7 N 1.3078(6) 0.31098(8) 0.3457(3)
C37 C 1.3801(6) 0.30138(9) 0.4416(3)
C38 C 1.4029(6) 0.27342(9) 0.4638(4)
C39 C 1.3485(7) 0.25496(10) 0.3825(4)
C40 C 1.2754(7) 0.26462(12) 0.2864(4)
C41 C 1.2579(7) 0.29260(12) 0.2719(4)
C42 C 1.4818(7) 0.26472(9) 0.5658(4)
N8 N 1.4178(5) 0.34796(7) 0.5037(3)
C43 C 1.4384(6) 0.32061(9) 0.5240(3)
C44 C 1.5140(6) 0.31103(10) 0.6242(3)
C45 C 1.5694(7) 0.33010(12) 0.7030(4)
C46 C 1.5494(7) 0.35698(11) 0.6828(4)
C47 C 1.4712(7) 0.36462(10) 0.5812(5)
C48 C 1.5339(7) 0.28254(10) 0.6425(4)
H1 H 0.89534 0.42639 -0.08678
H2 H 0.89334 0.38045 -0.04933
H3 H 0.86275 0.36688 0.12047
H4 H 0.87619 0.47461 -0.02556
H5 H 0.84179 0.51386 0.29661
H6 H 0.81919 0.49688 0.46295
H7 H 0.81185 0.45048 0.48747
H8 H 0.85943 0.50493 0.10617
H9 H 0.86436 0.26029 0.42738
H10 H 0.74963 0.27566 0.26053
H11 H 0.72638 0.32177 0.23007
H12 H 0.99260 0.27110 0.61450
H13 H 1.11673 0.35136 0.79793
H14 H 1.09569 0.39696 0.75231
H15 H 1.00207 0.40893 0.57895
H16 H 1.07866 0.30211 0.74160
H17 H 0.40994 0.39402 -0.11094
H18 H 0.41278 0.34928 -0.05519
H19 H 0.38738 0.34002 0.11941
H20 H 0.39499 0.44398 -0.06799
H21 H 0.34340 0.49090 0.23899
H22 H 0.31635 0.47809 0.40875
H23 H 0.29904 0.43253 0.44961
H24 H 0.37409 0.47705 0.05289
H25 H 1.36104 0.23605 0.39393
H26 H 1.23651 0.25253 0.23039
H27 H 1.20849 0.29896 0.20432
H28 H 1.49649 0.24582 0.57978
H29 H 1.62208 0.32418 0.77092
H30 H 1.58604 0.37011 0.73500
H31 H 1.45611 0.38339 0.56844
H32 H 1.58508 0.27607 0.70944
K2_2 K 0.15321(15) 0.36529(3) 0.32966(10)
N5_2 N 1.3693(5) 0.37753(8) 0.1678(3)
N6_2 N 1.3260(5) 0.41740(8) 0.3118(3)
P1 P 0.8959(2) 0.30502(3) -0.00821(10)
F1 F 0.9307(7) 0.27927(7) 0.0632(3)
F2 F 0.8570(7) 0.33137(7) -0.0779(3)
F3 F 0.9838(5) 0.32354(6) 0.0892(2)
F4 F 0.8118(7) 0.28716(7) -0.1048(3)
F5 F 1.0983(7) 0.30294(12) -0.0420(4)
F6 F 0.6970(6) 0.30854(11) 0.0300(4)
P2 P 0.5781(2) 0.44469(3) 0.68916(11)
F7 F 0.5526(5) 0.46998(6) 0.6123(2)
F8 F 0.5361(6) 0.46345(7) 0.7834(2)
F9 F 0.3605(5) 0.43769(9) 0.6620(3)
F10 F 0.6033(7) 0.41920(8) 0.7662(3)
F11 F 0.7971(5) 0.45108(8) 0.7131(4)
F12 F 0.6202(5) 0.42559(6) 0.5934(3)
loop_
_geom_bond_atom_site_label_1
_geom_bond_atom_site_label_2
_geom_bond_site_symmetry_1
_geom_bond_site_symmetry_2
K1 N1 1_555 1_555
K2 N3 1_555 1_555
P1 F1 1_555 1_555
F2 P1 1_555 1_555
F3 P1 1_555 1_555
F4 P1 1_555 1_555
F5 P1 1_555 1_555
F6 P1 1_555 1_555
P2 F7 1_555 1_555
F8 P2 1_555 1_555
F9 P2 1_555 1_555
F10 P2 1_555 1_555
F11 P2 1_555 1_555
F12 P2 1_555 1_555
N1 C1 1_555 1_555
C1 C2 1_555 1_555
C2 C3 1_555 1_555
C3 C4 1_555 1_555
C4 C5 1_555 1_555
C5 N1 1_555 1_555
C6 C2 1_555 1_555
N2 K1 1_555 1_555
C7 C1 1_555 1_555
C8 C7 1_555 1_555
C9 C8 1_555 1_555
C10 C9 1_555 1_555
C11 N2 1_555 1_555
C12 C6 1_555 1_555
N3 K1 1_555 1_555
C13 N3 1_555 1_555
C14 C13 1_555 1_555
C15 C14 1_555 1_555
C16 C15 1_555 1_555
C17 N3 1_555 1_555
C18 C14 1_555 1_555
N4 K1 1_555 1_555
C19 C13 1_555 1_555
C20 C19 1_555 1_555
C21 C20 1_555 1_555
C22 C21 1_555 1_555
C23 N4 1_555 1_555
C24 C18 1_555 1_555
N5 K1 1_555 1_555
C25 N5 1_555 1_555
C26 C25 1_555 1_555
C27 C26 1_555 1_555
C28 C27 1_555 1_555
C29 N5 1_555 1_555
C30 C26 1_555 1_555
N6 K1 1_555 1_555
C31 C25 1_555 1_555
C32 C31 1_555 1_555
C33 C32 1_555 1_555
C34 C33 1_555 1_555
C35 N6 1_555 1_555
C36 C30 1_555 1_555
N7 K2 1_555 1_555
C37 N7 1_555 1_555
C38 C37 1_555 1_555
C39 C38 1_555 1_555
C40 C39 1_555 1_555
C41 N7 1_555 1_555
C42 C38 1_555 1_555
N8 K2 1_555 1_555
C43 C37 1_555 1_555
C44 C43 1_555 1_555
C45 C44 1_555 1_555
C46 C45 1_555 1_555
C47 N8 1_555 1_555
C48 C42 1_555 1_555
H1 C3 1_555 1_555
H2 C4 1_555 1_555
H3 C5 1_555 1_555
H4 C6 1_555 1_555
H5 C9 1_555 1_555
H6 C10 1_555 1_555
H7 C11 1_555 1_555
H8 C12 1_555 1_555
H9 C15 1_555 1_555
H10 C16 1_555 1_555
H11 C17 1_555 1_555
H12 C18 1_555 1_555
H13 C21 1_555 1_555
H14 C22 1_555 1_555
H15 C23 1_555 1_555
H16 C24 1_555 1_555
H17 C27 1_555 1_555
H18 C28 1_555 1_555
H19 C29 1_555 1_555
H20 C30 1_555 1_555
H21 C33 1_555 1_555
H22 C34 1_555 1_555
H23 C35 1_555 1_555
H24 C36 1_555 1_555
H25 C39 1_555 1_555
H26 C40 1_555 1_555
H27 C41 1_555 1_555
H28 C42 1_555 1_555
H29 C45 1_555 1_555
H30 C46 1_555 1_555
H31 C47 1_555 1_555
H32 C48 1_555 1_555
K2_2 N5 1_555 1_555
N5_2 K2 1_555 1_555
N6_2 K2 1_555 1_555
K2 N4 1_555 1_555
N2 C7 1_555 1_555
C8 C12 1_555 1_555
C10 C11 1_555 1_555
C16 C17 1_555 1_555
N4 C19 1_555 1_555
C20 C24 1_555 1_555
C22 C23 1_555 1_555
C28 C29 1_555 1_555
N6 C31 1_555 1_555
N6 K2_2 1_555 1_555
C32 C36 1_555 1_555
C34 C35 1_555 1_555
C40 C41 1_555 1_555
N8 C43 1_555 1_555
C44 C48 1_555 1_555
C46 C47 1_555 1_555

#END
