
#######################################################################
#
#                 Cambridge Crystallographic Data Centre
#                                CCDC 
#
#######################################################################
#
# If this CIF has been generated from an entry in the Cambridge 
# Structural Database, then it will include bibliographic, chemical, 
# crystal, experimental, refinement or atomic coordinate data resulting 
# from the CCDC's data processing and validation procedures.
#
#######################################################################

data_CEMCED01
_symmetry_cell_setting           monoclinic
_symmetry_space_group_name_H-M   'C 2/c'
_symmetry_Int_Tables_number      15
_space_group_name_Hall           '-C 2yn'
loop_
_symmetry_equiv_pos_site_id
_symmetry_equiv_pos_as_xyz
1 x,y,z
2 1/2+x,1/2+y,z
3 -x,y,1/2-z
4 1/2-x,1/2+y,1/2-z
5 -x,-y,-z
6 1/2-x,1/2-y,-z
7 x,-y,1/2+z
8 1/2+x,1/2-y,1/2+z
_cell_length_a                   15.4290(10)
_cell_length_b                   22.071(2)
_cell_length_c                   6.8612(6)
_cell_angle_alpha                90
_cell_angle_beta                 112.3440(10)
_cell_angle_gamma                90
_cell_volume                     2161.04
loop_
_atom_site_label
_atom_site_type_symbol
_atom_site_fract_x
_atom_site_fract_y
_atom_site_fract_z
Na1 Na 0.50000 0.47146(3) 0.25000
N1 N 0.61817(6) 0.40681(4) 0.49906(15)
C1 C 0.70211(7) 0.43557(5) 0.59189(16)
C2 C 0.78764(8) 0.40378(5) 0.68323(17)
C3 C 0.78442(9) 0.33977(6) 0.6824(2)
C4 C 0.69956(10) 0.31128(5) 0.5949(2)
C5 C 0.61826(9) 0.34644(5) 0.50301(19)
C6 C 0.87432(8) 0.43640(6) 0.77384(19)
N2 N 0.62019(6) 0.53179(4) 0.50951(15)
C7 C 0.70314(7) 0.50143(5) 0.59517(16)
C8 C 0.78982(8) 0.53180(5) 0.68599(17)
C9 C 0.78909(9) 0.59580(6) 0.6855(2)
C10 C 0.70582(9) 0.62606(5) 0.5960(2)
C11 C 0.62288(8) 0.59210(5) 0.51001(18)
C12 C 0.87522(8) 0.49762(6) 0.7742(2)
H1 H 0.8413(12) 0.3172(7) 0.744(3)
H2 H 0.6945(13) 0.2684(8) 0.595(3)
H3 H 0.5592(11) 0.3272(7) 0.440(2)
H4 H 0.9279(12) 0.4132(7) 0.833(3)
H5 H 0.8472(12) 0.6174(7) 0.745(3)
H6 H 0.7031(12) 0.6685(8) 0.593(3)
H7 H 0.5649(11) 0.6124(7) 0.452(3)
H8 H 0.9318(13) 0.5197(8) 0.832(3)
Na1D Na 0.50000 0.52854(3) -0.25000
Na1D_2 Na 0.50000 0.52854(3) 0.75000
N1B N 0.38183(6) 0.40681(4) 0.00094(15)
C1B C 0.29789(7) 0.43557(5) -0.09189(16)
C2B C 0.21236(8) 0.40378(5) -0.18323(17)
C3B C 0.21558(9) 0.33977(6) -0.1824(2)
C4B C 0.30044(10) 0.31128(5) -0.0949(2)
C5B C 0.38174(9) 0.34644(5) -0.00301(19)
C6B C 0.12568(8) 0.43640(6) -0.27384(19)
N2B N 0.37981(6) 0.53179(4) -0.00951(15)
N2F N 0.62019(6) 0.46821(4) 0.00951(15)
N2D N 0.37981(6) 0.46821(4) 0.49049(15)
C7B C 0.29686(7) 0.50143(5) -0.09517(16)
C8B C 0.21018(8) 0.53180(5) -0.18599(17)
C9B C 0.21091(9) 0.59580(6) -0.1855(2)
C10B C 0.29418(9) 0.62606(5) -0.0960(2)
C11B C 0.37712(8) 0.59210(5) -0.01001(18)
C12B C 0.12478(8) 0.49762(6) -0.2742(2)
H1B H 0.1587(12) 0.3172(7) -0.244(3)
H2B H 0.3055(13) 0.2684(8) -0.095(3)
H3B H 0.4408(11) 0.3272(7) 0.060(2)
H4B H 0.0721(12) 0.4132(7) -0.333(3)
H5B H 0.1528(12) 0.6174(7) -0.245(3)
H6B H 0.2969(12) 0.6685(8) -0.093(3)
H7B H 0.4351(11) 0.6124(7) 0.048(3)
H8B H 0.0682(13) 0.5197(8) -0.332(3)
P1 P 0.50000 0.220062(18) 0.75000
F1 F 0.50000 0.29256(5) 0.75000
F2 F 0.50000 0.14723(5) 0.75000
F3 F 0.61213(5) 0.22019(4) 0.85629(15)
F4 F 0.50571(7) 0.21976(4) 0.52221(15)
F3B F 0.38787(5) 0.22019(4) 0.64371(15)
F4B F 0.49429(7) 0.21976(4) 0.97779(15)
loop_
_geom_bond_atom_site_label_1
_geom_bond_atom_site_label_2
_geom_bond_site_symmetry_1
_geom_bond_site_symmetry_2
Na1 N1 1_555 1_555
N1 C1 1_555 1_555
C1 C2 1_555 1_555
C2 C3 1_555 1_555
C3 C4 1_555 1_555
C4 C5 1_555 1_555
C5 N1 1_555 1_555
C6 C2 1_555 1_555
N2 Na1 1_555 1_555
C7 C1 1_555 1_555
C8 C7 1_555 1_555
C9 C8 1_555 1_555
C10 C9 1_555 1_555
C11 N2 1_555 1_555
C12 C6 1_555 1_555
P1 F1 1_555 1_555
F2 P1 1_555 1_555
F3 P1 1_555 1_555
F4 P1 1_555 1_555
H1 C3 1_555 1_555
H2 C4 1_555 1_555
H3 C5 1_555 1_555
H4 C6 1_555 1_555
H5 C9 1_555 1_555
H6 C10 1_555 1_555
H7 C11 1_555 1_555
H8 C12 1_555 1_555
Na1D N2B 1_555 1_555
Na1D_2 N2 1_555 1_555
N1B Na1 1_555 1_555
C1B N1B 1_555 1_555
C2B C1B 1_555 1_555
C3B C2B 1_555 1_555
C4B C3B 1_555 1_555
C5B N1B 1_555 1_555
C6B C2B 1_555 1_555
N2B Na1 1_555 1_555
N2F Na1 1_555 1_555
N2D Na1 1_555 1_555
C7B C1B 1_555 1_555
C8B C7B 1_555 1_555
C9B C8B 1_555 1_555
C10B C9B 1_555 1_555
C11B N2B 1_555 1_555
C12B C6B 1_555 1_555
F3B P1 1_555 1_555
F4B P1 1_555 1_555
H1B C3B 1_555 1_555
H2B C4B 1_555 1_555
H3B C5B 1_555 1_555
H4B C6B 1_555 1_555
H5B C9B 1_555 1_555
H6B C10B 1_555 1_555
H7B C11B 1_555 1_555
H8B C12B 1_555 1_555
N2 C7 1_555 1_555
C8 C12 1_555 1_555
C10 C11 1_555 1_555
Na1D N2F 1_555 1_555
Na1D_2 N2D 1_555 1_555
C4B C5B 1_555 1_555
N2B C7B 1_555 1_555
C8B C12B 1_555 1_555
C10B C11B 1_555 1_555

#END
