
#######################################################################
#
#                 Cambridge Crystallographic Data Centre
#                                CCDC 
#
#######################################################################
#
# If this CIF has been generated from an entry in the Cambridge 
# Structural Database, then it will include bibliographic, chemical, 
# crystal, experimental, refinement or atomic coordinate data resulting 
# from the CCDC's data processing and validation procedures.
#
#######################################################################

data_CEMDOO
_symmetry_cell_setting           orthorhombic
_symmetry_space_group_name_H-M   'P c a 21'
_symmetry_Int_Tables_number      29
_space_group_name_Hall           'P 2c -2ac'
loop_
_symmetry_equiv_pos_site_id
_symmetry_equiv_pos_as_xyz
1 x,y,z
2 -x,-y,1/2+z
3 1/2-x,y,1/2+z
4 1/2+x,-y,z
_cell_length_a                   47.312(9)
_cell_length_b                   7.480(2)
_cell_length_c                   12.637(3)
_cell_angle_alpha                90
_cell_angle_beta                 90
_cell_angle_gamma                90
_cell_volume                     4472.16
loop_
_atom_site_label
_atom_site_type_symbol
_atom_site_fract_x
_atom_site_fract_y
_atom_site_fract_z
I1 I 0.44874(2) 0.82529(16) 1.0000(1)
I2 I 0.30223(2) 0.3833(2) 0.26238(11)
K1 K 0.37703(5) 0.3023(3) 0.6475(2)
K2 K 0.37669(5) 0.8008(3) 0.6464(2)
N1 N 0.39061(18) 0.5696(12) 0.4721(7)
C1 C 0.41711(19) 0.5068(13) 0.4572(8)
C2 C 0.4269(2) 0.4512(16) 0.3580(8)
C3 C 0.4081(2) 0.4586(14) 0.2714(9)
C4 C 0.3815(3) 0.5159(15) 0.2869(8)
C5 C 0.3735(2) 0.5717(16) 0.3891(10)
C6 C 0.4551(2) 0.3799(15) 0.3481(10)
N2 N 0.42591(16) 0.5615(12) 0.6436(7)
C7 C 0.4359(2) 0.5024(14) 0.5467(8)
C8 C 0.46409(19) 0.4341(14) 0.5335(8)
C9 C 0.4819(2) 0.4309(16) 0.6215(9)
C10 C 0.4725(2) 0.4922(17) 0.7182(8)
C11 C 0.4446(2) 0.5545(15) 0.7240(8)
C12 C 0.4726(2) 0.3710(15) 0.4306(9)
N3 N 0.36137(17) 0.5567(12) 0.8198(7)
C13 C 0.3340(2) 0.6011(16) 0.8303(8)
C14 C 0.3224(2) 0.6661(16) 0.9251(9)
C15 C 0.3408(3) 0.6860(16) 1.0115(11)
C16 C 0.3687(3) 0.6419(15) 1.0005(11)
C17 C 0.3784(3) 0.5779(18) 0.9030(10)
C18 C 0.2758(3) 0.6886(19) 0.8457(11)
N4 N 0.32682(18) 0.5137(13) 0.6463(7)
C19 C 0.31560(19) 0.5771(13) 0.7394(11)
C20 C 0.28621(18) 0.6252(13) 0.7484(13)
C21 C 0.2689(2) 0.5991(17) 0.6579(11)
C22 C 0.2803(2) 0.5358(17) 0.5668(9)
C23 C 0.3095(2) 0.4955(16) 0.5648(9)
C24 C 0.2931(3) 0.7127(17) 0.9304(9)
N5 N 0.36228(17) 0.0478(12) 0.8167(7)
C25 C 0.3347(2) 0.0992(15) 0.8303(9)
C26 C 0.3241(2) 0.1715(15) 0.9260(9)
C27 C 0.3432(2) 0.1930(14) 1.0122(9)
C28 C 0.3713(2) 0.1422(16) 0.9961(11)
C29 C 0.3792(2) 0.0664(17) 0.8987(10)
C30 C 0.2952(2) 0.2216(16) 0.9336(9)
N6 N 0.32568(19) 0.0161(13) 0.6485(7)
C31 C 0.3154(2) 0.0818(12) 0.7413(11)
C32 C 0.28723(18) 0.1303(13) 0.7532(13)
C33 C 0.2691(2) 0.1146(19) 0.6651(10)
C34 C 0.2794(2) 0.0417(17) 0.5741(9)
C35 C 0.3080(2) -0.0061(15) 0.5682(9)
C36 C 0.2774(2) 0.2066(16) 0.8507(10)
N7 N 0.38754(17) 0.0742(11) 0.4689(6)
C37 C 0.4142(2) 0.0122(14) 0.4482(8)
C38 C 0.4229(2) -0.0459(16) 0.3458(8)
C39 C 0.4030(2) -0.0357(14) 0.2661(9)
C40 C 0.3767(2) 0.0308(16) 0.2853(8)
C41 C 0.3702(2) 0.0794(15) 0.3866(9)
C42 C 0.4507(2) -0.1121(15) 0.3308(9)
N8 N 0.42571(19) 0.0544(13) 0.6335(7)
C43 C 0.4344(2) 0.0000(12) 0.5348(7)
C44 C 0.4611(2) -0.0629(14) 0.5143(9)
C45 C 0.4799(2) -0.0758(16) 0.6033(9)
C46 C 0.4719(2) -0.0209(16) 0.6997(10)
C47 C 0.4442(2) 0.0441(15) 0.7136(8)
C48 C 0.4692(2) -0.1229(16) 0.4106(9)
H1 H 0.41427 0.42329 0.20309
H2 H 0.36855 0.51845 0.23025
H3 H 0.35457 0.61325 0.39953
H4 H 0.46156 0.33965 0.28120
H5 H 0.50039 0.38383 0.61500
H6 H 0.48456 0.49316 0.77867
H7 H 0.43800 0.59445 0.79118
H8 H 0.49062 0.32216 0.42184
H9 H 0.33400 0.72955 1.07701
H10 H 0.38141 0.65420 1.05932
H11 H 0.39815 0.54940 0.89543
H12 H 0.25622 0.71493 0.85285
H13 H 0.24946 0.62681 0.66183
H14 H 0.26882 0.51748 0.50723
H15 H 0.31685 0.45128 0.50076
H16 H 0.28575 0.75944 0.99558
H17 H 0.33711 0.23968 1.07842
H18 H 0.38492 0.15805 1.05123
H19 H 0.39832 0.02825 0.89177
H20 H 0.28843 0.26459 1.00018
H21 H 0.24980 0.15088 0.67020
H22 H 0.26678 0.02624 0.51552
H23 H 0.31551 -0.05670 0.50415
H24 H 0.25810 0.24581 0.85767
H25 H 0.40778 -0.07599 0.19766
H26 H 0.36320 0.04380 0.23047
H27 H 0.35175 0.12180 0.39997
H28 H 0.45626 -0.14977 0.26281
H29 H 0.49825 -0.12279 0.59363
H30 H 0.48468 -0.02641 0.75787
H31 H 0.43847 0.08259 0.78263
H32 H 0.48760 -0.17038 0.39887
K1_2 K 0.37703(5) 1.3023(3) 0.6475(2)
K2_2 K 0.37669(5) -0.1992(3) 0.6464(2)
N5_2 N 0.36228(17) 1.0478(12) 0.8167(7)
N6_2 N 0.32568(19) 1.0161(13) 0.6485(7)
N7_2 N 0.38754(17) 1.0742(11) 0.4689(6)
N8_2 N 0.42571(19) 1.0544(13) 0.6335(7)
C49 C 0.4502(3) 1.3092(18) 0.9867(12)
O1 O 0.4477(3) 1.241(2) 1.0922(9)
O2 O 0.2995(6) -0.135(3) 0.246(3)
C50 C 0.2960(9) -0.132(8) 0.346(2)
loop_
_geom_bond_atom_site_label_1
_geom_bond_atom_site_label_2
_geom_bond_site_symmetry_1
_geom_bond_site_symmetry_2
K1 N1 1_555 1_555
K2 N1 1_555 1_555
N1 C1 1_555 1_555
C1 C2 1_555 1_555
C2 C3 1_555 1_555
C3 C4 1_555 1_555
C4 C5 1_555 1_555
C5 N1 1_555 1_555
C6 C2 1_555 1_555
N2 K1 1_555 1_555
C7 C1 1_555 1_555
C8 C7 1_555 1_555
C9 C8 1_555 1_555
C10 C9 1_555 1_555
C11 N2 1_555 1_555
C12 C6 1_555 1_555
N3 K1 1_555 1_555
C13 N3 1_555 1_555
C14 C13 1_555 1_555
C15 C14 1_555 1_555
C16 C15 1_555 1_555
C17 N3 1_555 1_555
C18 C20 1_555 1_555
N4 K1 1_555 1_555
C19 C13 1_555 1_555
C20 C19 1_555 1_555
C21 C20 1_555 1_555
C22 C21 1_555 1_555
C23 N4 1_555 1_555
C24 C14 1_555 1_555
N5 K1 1_555 1_555
C25 N5 1_555 1_555
C26 C25 1_555 1_555
C27 C26 1_555 1_555
C28 C27 1_555 1_555
C29 N5 1_555 1_555
C30 C26 1_555 1_555
N6 K1 1_555 1_555
C31 C25 1_555 1_555
C32 C31 1_555 1_555
C33 C32 1_555 1_555
C34 C33 1_555 1_555
C35 N6 1_555 1_555
C36 C30 1_555 1_555
N7 K1 1_555 1_555
C37 N7 1_555 1_555
C38 C37 1_555 1_555
C39 C38 1_555 1_555
C40 C39 1_555 1_555
C41 N7 1_555 1_555
C42 C38 1_555 1_555
N8 K1 1_555 1_555
C43 C37 1_555 1_555
C44 C43 1_555 1_555
C45 C44 1_555 1_555
C46 C45 1_555 1_555
C47 N8 1_555 1_555
C48 C42 1_555 1_555
C49 O1 1_555 1_555
O2 C50 1_555 1_555
H1 C3 1_555 1_555
H2 C4 1_555 1_555
H3 C5 1_555 1_555
H4 C6 1_555 1_555
H5 C9 1_555 1_555
H6 C10 1_555 1_555
H7 C11 1_555 1_555
H8 C12 1_555 1_555
H9 C15 1_555 1_555
H10 C16 1_555 1_555
H11 C17 1_555 1_555
H12 C18 1_555 1_555
H13 C21 1_555 1_555
H14 C22 1_555 1_555
H15 C23 1_555 1_555
H16 C24 1_555 1_555
H17 C27 1_555 1_555
H18 C28 1_555 1_555
H19 C29 1_555 1_555
H20 C30 1_555 1_555
H21 C33 1_555 1_555
H22 C34 1_555 1_555
H23 C35 1_555 1_555
H24 C36 1_555 1_555
H25 C39 1_555 1_555
H26 C40 1_555 1_555
H27 C41 1_555 1_555
H28 C42 1_555 1_555
H29 C45 1_555 1_555
H30 C46 1_555 1_555
H31 C47 1_555 1_555
H32 C48 1_555 1_555
K1_2 N5_2 1_555 1_555
K2_2 N5 1_555 1_555
N5_2 K2 1_555 1_555
N6_2 K2 1_555 1_555
N7_2 K2 1_555 1_555
N8_2 K2 1_555 1_555
K2 N2 1_555 1_555
K2 N3 1_555 1_555
K2 N4 1_555 1_555
N2 C7 1_555 1_555
C8 C12 1_555 1_555
C10 C11 1_555 1_555
C16 C17 1_555 1_555
C18 C24 1_555 1_555
N4 C19 1_555 1_555
C22 C23 1_555 1_555
C28 C29 1_555 1_555
N6 C31 1_555 1_555
N6 K2_2 1_555 1_555
C32 C36 1_555 1_555
C34 C35 1_555 1_555
N7 K2_2 1_555 1_555
C40 C41 1_555 1_555
N8 C43 1_555 1_555
N8 K2_2 1_555 1_555
C44 C48 1_555 1_555
C46 C47 1_555 1_555
K1_2 N6_2 1_555 1_555
K1_2 N7_2 1_555 1_555
K1_2 N8_2 1_555 1_555

#END
