
#######################################################################
#
#                 Cambridge Crystallographic Data Centre
#                                CCDC 
#
#######################################################################
#
# If this CIF has been generated from an entry in the Cambridge 
# Structural Database, then it will include bibliographic, chemical, 
# crystal, experimental, refinement or atomic coordinate data resulting 
# from the CCDC's data processing and validation procedures.
#
#######################################################################

data_CEMFEG
_symmetry_cell_setting           orthorhombic
_symmetry_space_group_name_H-M   'P c a 21'
_symmetry_Int_Tables_number      29
_space_group_name_Hall           'P 2c -2ac'
loop_
_symmetry_equiv_pos_site_id
_symmetry_equiv_pos_as_xyz
1 x,y,z
2 -x,-y,1/2+z
3 1/2-x,y,1/2+z
4 1/2+x,-y,z
_cell_length_a                   47.575(5)
_cell_length_b                   7.5453(9)
_cell_length_c                   12.6743(10)
_cell_angle_alpha                90
_cell_angle_beta                 90
_cell_angle_gamma                90
_cell_volume                     4549.66
loop_
_atom_site_label
_atom_site_type_symbol
_atom_site_fract_x
_atom_site_fract_y
_atom_site_fract_z
I1 I 0.44879(5) 0.8420(6) 1.0000(3)
I2 I 0.30260(4) 0.3911(7) 0.2861(3)
Rb1 Rb 0.37624(5) 0.3028(3) 0.6571(3)
Rb2 Rb 0.37620(5) 0.8031(3) 0.6573(3)
N1 N 0.3909(5) 0.566(3) 0.474(2)
C1 C 0.4191(4) 0.502(3) 0.4605(18)
C2 C 0.4282(6) 0.438(4) 0.362(2)
C3 C 0.4089(5) 0.442(4) 0.274(3)
C4 C 0.3818(5) 0.506(4) 0.291(2)
C5 C 0.3726(5) 0.564(4) 0.398(2)
C6 C 0.4553(5) 0.359(4) 0.347(2)
N2 N 0.4270(5) 0.555(3) 0.644(2)
C7 C 0.4374(5) 0.501(3) 0.543(2)
C8 C 0.4660(5) 0.432(3) 0.538(2)
C9 C 0.4827(6) 0.422(4) 0.623(3)
C10 C 0.4737(6) 0.484(4) 0.720(2)
C11 C 0.4456(6) 0.551(4) 0.726(3)
C12 C 0.4744(6) 0.358(4) 0.437(2)
N3 N 0.3604(4) 0.562(3) 0.8352(17)
C13 C 0.3337(5) 0.614(4) 0.851(2)
C14 C 0.3227(6) 0.681(4) 0.944(2)
C15 C 0.3420(7) 0.703(4) 1.023(3)
C16 C 0.3692(6) 0.640(4) 1.016(3)
C17 C 0.3800(7) 0.577(5) 0.918(3)
C18 C 0.2754(6) 0.715(4) 0.878(3)
N4 N 0.3250(4) 0.532(3) 0.669(2)
C19 C 0.3129(4) 0.593(3) 0.760(2)
C20 C 0.2860(5) 0.647(3) 0.771(2)
C21 C 0.2687(6) 0.615(4) 0.683(3)
C22 C 0.2786(6) 0.569(4) 0.596(3)
C23 C 0.3065(7) 0.513(5) 0.591(3)
C24 C 0.2942(7) 0.737(5) 0.955(3)
N5 N 0.3617(5) 0.061(3) 0.837(2)
C25 C 0.3340(5) 0.108(3) 0.848(2)
C26 C 0.3237(6) 0.179(4) 0.947(3)
C27 C 0.3426(6) 0.192(4) 1.037(2)
C28 C 0.3705(7) 0.167(5) 1.013(3)
C29 C 0.3769(5) 0.081(4) 0.921(2)
C30 C 0.2946(6) 0.227(4) 0.955(3)
N6 N 0.3246(5) 0.033(3) 0.668(2)
C31 C 0.3156(5) 0.097(4) 0.761(3)
C32 C 0.2856(6) 0.147(4) 0.776(3)
C33 C 0.2675(7) 0.133(5) 0.689(3)
C34 C 0.2776(7) 0.049(5) 0.589(3)
C35 C 0.3078(5) 0.017(4) 0.589(2)
C36 C 0.2768(7) 0.217(5) 0.873(3)
N7 N 0.3892(5) 0.060(3) 0.473(2)
C37 C 0.4151(5) -0.001(3) 0.456(2)
C38 C 0.4235(6) -0.057(4) 0.352(2)
C39 C 0.4036(6) -0.043(4) 0.270(3)
C40 C 0.3785(6) 0.003(4) 0.294(3)
C41 C 0.3734(8) 0.067(5) 0.391(3)
C42 C 0.4518(7) -0.149(5) 0.337(3)
N8 N 0.4283(4) 0.052(3) 0.640(2)
C43 C 0.4352(5) -0.008(4) 0.550(2)
C44 C 0.4610(6) -0.075(4) 0.521(2)
C45 C 0.4814(7) -0.079(5) 0.605(3)
C46 C 0.4730(6) -0.017(5) 0.711(3)
C47 C 0.4449(5) 0.037(4) 0.721(2)
C48 C 0.4704(6) -0.117(4) 0.417(2)
H1 H 0.41444 0.41211 0.20433
H2 H 0.36809 0.50620 0.23455
H3 H 0.35302 0.60096 0.40695
H4 H 0.46203 0.30848 0.28005
H5 H 0.50090 0.37069 0.61652
H6 H 0.48538 0.48466 0.78016
H7 H 0.43916 0.59296 0.79154
H8 H 0.49339 0.32384 0.42751
H9 H 0.33743 0.75240 1.08715
H10 H 0.38114 0.64571 1.07058
H11 H 0.39920 0.55296 0.90897
H12 H 0.24911 0.62853 0.69090
H13 H 0.26781 0.57447 0.52925
H14 H 0.31290 0.45236 0.52871
H15 H 0.28913 0.78015 1.02006
H16 H 0.33575 0.22977 1.10353
H17 H 0.38564 0.18410 1.06524
H18 H 0.39525 0.02419 0.91123
H19 H 0.28865 0.29229 1.01964
H20 H 0.24831 0.17082 0.68777
H21 H 0.26592 0.01345 0.53390
H22 H 0.31643 -0.00736 0.52110
H23 H 0.25749 0.23684 0.88807
H24 H 0.40925 -0.08328 0.19848
H25 H 0.36398 -0.00896 0.23831
H26 H 0.35555 0.12932 0.40186
H27 H 0.45598 -0.19770 0.27335
H28 H 0.49978 -0.12014 0.59388
H29 H 0.48578 -0.02585 0.77020
H30 H 0.43678 0.07098 0.78306
H31 H 0.49020 -0.14490 0.40310
H32 H 0.25539 0.74414 0.88503
Rb1_2 Rb 0.37624(5) 1.3028(3) 0.6571(3)
Rb2_2 Rb 0.37620(5) -0.1969(3) 0.6573(3)
N5_2 N 0.3617(5) 1.061(3) 0.837(2)
N6_2 N 0.3246(5) 1.033(3) 0.668(2)
N7_2 N 0.3892(5) 1.060(3) 0.473(2)
N8_2 N 0.4283(4) 1.052(3) 0.640(2)
O1 O 0.4457(6) 0.235(4) 1.098(3)
C49 C 0.4565(12) 0.330(7) 1.018(5)
O2 O 0.3057(6) -0.165(4) 0.309(3)
C50 C 0.2909(12) -0.087(8) 0.233(5)
I3? I 0.4478(2) 0.2871(15) 0.9898(10)
loop_
_geom_bond_atom_site_label_1
_geom_bond_atom_site_label_2
_geom_bond_site_symmetry_1
_geom_bond_site_symmetry_2
Rb1 N1 1_555 1_555
Rb2 N1 1_555 1_555
N1 C1 1_555 1_555
C1 C2 1_555 1_555
C2 C3 1_555 1_555
C3 C4 1_555 1_555
C4 C5 1_555 1_555
C5 N1 1_555 1_555
C6 C2 1_555 1_555
N2 Rb1 1_555 1_555
C7 C1 1_555 1_555
C8 C7 1_555 1_555
C9 C8 1_555 1_555
C10 C9 1_555 1_555
C11 N2 1_555 1_555
C12 C6 1_555 1_555
N3 Rb1 1_555 1_555
C13 N3 1_555 1_555
C14 C13 1_555 1_555
C15 C14 1_555 1_555
C16 C15 1_555 1_555
C17 N3 1_555 1_555
C18 C20 1_555 1_555
N4 Rb1 1_555 1_555
C19 C13 1_555 1_555
C20 C19 1_555 1_555
C21 C20 1_555 1_555
C22 C21 1_555 1_555
C23 N4 1_555 1_555
C24 C14 1_555 1_555
N5 Rb1 1_555 1_555
C25 N5 1_555 1_555
C26 C25 1_555 1_555
C27 C26 1_555 1_555
C28 C27 1_555 1_555
C29 N5 1_555 1_555
C30 C26 1_555 1_555
N6 Rb1 1_555 1_555
C31 C25 1_555 1_555
C32 C31 1_555 1_555
C33 C32 1_555 1_555
C34 C33 1_555 1_555
C35 N6 1_555 1_555
C36 C30 1_555 1_555
N7 Rb1 1_555 1_555
C37 N7 1_555 1_555
C38 C37 1_555 1_555
C39 C38 1_555 1_555
C40 C39 1_555 1_555
C41 N7 1_555 1_555
C42 C38 1_555 1_555
N8 Rb1 1_555 1_555
C43 C37 1_555 1_555
C44 C43 1_555 1_555
C45 C44 1_555 1_555
C46 C45 1_555 1_555
C47 N8 1_555 1_555
C48 C42 1_555 1_555
O1 C49 1_555 1_555
O2 C50 1_555 1_555
H1 C3 1_555 1_555
H2 C4 1_555 1_555
H3 C5 1_555 1_555
H4 C6 1_555 1_555
H5 C9 1_555 1_555
H6 C10 1_555 1_555
H7 C11 1_555 1_555
H8 C12 1_555 1_555
H9 C15 1_555 1_555
H10 C16 1_555 1_555
H11 C17 1_555 1_555
H12 C21 1_555 1_555
H13 C22 1_555 1_555
H14 C23 1_555 1_555
H15 C24 1_555 1_555
H16 C27 1_555 1_555
H17 C28 1_555 1_555
H18 C29 1_555 1_555
H19 C30 1_555 1_555
H20 C33 1_555 1_555
H21 C34 1_555 1_555
H22 C35 1_555 1_555
H23 C36 1_555 1_555
H24 C39 1_555 1_555
H25 C40 1_555 1_555
H26 C41 1_555 1_555
H27 C42 1_555 1_555
H28 C45 1_555 1_555
H29 C46 1_555 1_555
H30 C47 1_555 1_555
H31 C48 1_555 1_555
H32 C18 1_555 1_555
Rb1_2 N5_2 1_555 1_555
Rb2_2 N5 1_555 1_555
N5_2 Rb2 1_555 1_555
N6_2 Rb2 1_555 1_555
N7_2 Rb2 1_555 1_555
N8_2 Rb2 1_555 1_555
Rb2 N2 1_555 1_555
Rb2 N3 1_555 1_555
Rb2 N4 1_555 1_555
N2 C7 1_555 1_555
C8 C12 1_555 1_555
C10 C11 1_555 1_555
C16 C17 1_555 1_555
C18 C24 1_555 1_555
N4 C19 1_555 1_555
C22 C23 1_555 1_555
C28 C29 1_555 1_555
N6 C31 1_555 1_555
N6 Rb2_2 1_555 1_555
C32 C36 1_555 1_555
C34 C35 1_555 1_555
N7 Rb2_2 1_555 1_555
C40 C41 1_555 1_555
N8 C43 1_555 1_555
N8 Rb2_2 1_555 1_555
C44 C48 1_555 1_555
C46 C47 1_555 1_555
Rb1_2 N6_2 1_555 1_555
Rb1_2 N7_2 1_555 1_555
Rb1_2 N8_2 1_555 1_555

#END
