
#######################################################################
#
#                 Cambridge Crystallographic Data Centre
#                                CCDC 
#
#######################################################################
#
# If this CIF has been generated from an entry in the Cambridge 
# Structural Database, then it will include bibliographic, chemical, 
# crystal, experimental, refinement or atomic coordinate data resulting 
# from the CCDC's data processing and validation procedures.
#
#######################################################################

data_CEMKUB
_symmetry_cell_setting           trigonal
_symmetry_space_group_name_H-M   'P 31'
_symmetry_Int_Tables_number      144
_space_group_name_Hall           'P 31'
loop_
_symmetry_equiv_pos_site_id
_symmetry_equiv_pos_as_xyz
1 x,y,z
2 -y,x-y,1/3+z
3 -x+y,-x,2/3+z
_cell_length_a                   17.943(3)
_cell_length_b                   17.943(3)
_cell_length_c                   13.252(3)
_cell_angle_alpha                90
_cell_angle_beta                 90
_cell_angle_gamma                120
_cell_volume                     3694.9
loop_
_atom_site_label
_atom_site_type_symbol
_atom_site_fract_x
_atom_site_fract_y
_atom_site_fract_z
Cl1 Cl 0.8900(2) 0.0487(2) 0.0204(3)
O7 O 0.8112(9) 0.0189(11) -0.0385(17)
O8 O 0.9182(14) 0.1337(8) 0.0479(14)
O9 O 0.9446(10) 0.0431(11) -0.0483(8)
O10 O 0.8848(9) -0.0031(8) 0.1060(9)
Cl2 Cl 0.5340(2) 0.2888(2) 0.3247(2)
O11 O 0.5748(11) 0.3355(12) 0.2362(10)
O12 O 0.5867(9) 0.3205(13) 0.4107(8)
O13 O 0.492(2) 0.2087(10) 0.3244(17)
O14 O 0.4708(11) 0.3133(17) 0.3302(13)
O15 O 0.1364(18) 0.7633(19) 0.049(2)
O16 O 0.578(3) 0.687(2) 0.757(3)
Cu1 Cu 0.73667(7) 0.06689(7) 0.35059(10)
O1 O 0.7382(5) 0.0687(5) 0.5388(7)
O2 O 0.7267(6) 0.0566(6) 0.1715(6)
N1 N 0.6992(7) -0.0603(6) 0.3588(8)
O3 O 0.6541(9) -0.3288(7) 0.5247(9)
C1 C 0.6671(8) -0.2281(6) 0.3967(10)
C2 C 0.6317(8) -0.1891(8) 0.4611(11)
H1 H 0.5974 -0.2192 0.5159
C3 C 0.6488(7) -0.1085(7) 0.4411(9)
H2 H 0.6262 -0.0835 0.4837
C4 C 0.7320(8) -0.0952(8) 0.2963(9)
H3 H 0.7671 -0.0642 0.2424
C5 C 0.7108(8) -0.1831(7) 0.3157(10)
H4 H 0.7287 -0.2098 0.2692
C6 C 0.6535(11) -0.3149(8) 0.4275(10)
N2 N 0.7747(5) -0.8046(5) 0.3485(7)
O4 O 0.8891(6) -0.4920(5) 0.4172(7)
C7 C 0.8237(9) -0.6334(7) 0.3469(10)
C8 C 0.8608(7) -0.6635(6) 0.4095(8)
H5 H 0.9046 -0.6256 0.4522
C9 C 0.8362(7) -0.7466(6) 0.4118(8)
H6 H 0.8617 -0.7658 0.4582
C10 C 0.7338(7) -0.7764(6) 0.2880(8)
H7 H 0.6877 -0.8155 0.2489
C11 C 0.7597(8) -0.6894(7) 0.2832(8)
H8 H 0.7342 -0.6695 0.2377
C12 C 0.8535(8) -0.5355(7) 0.3474(9)
N3 N 0.6410(8) -0.3686(7) 0.3551(9)
H9 H 0.6354 -0.3563 0.2939
N4 N 0.8340(8) -0.5070(7) 0.2613(8)
H10 H 0.8132 -0.5415 0.2107
C13 C 0.6363(10) -0.4538(7) 0.3801(13)
H11 H 0.5957 -0.4988 0.3357
H12 H 0.6175 -0.4702 0.4493
C14 C 0.7322(10) -0.4402(9) 0.3647(12)
H13 H 0.7715 -0.3940 0.4088
H14 H 0.7315 -0.4922 0.3860
C15 C 0.7641(10) -0.4209(8) 0.2668(10)
H15 H 0.7732 -0.3646 0.2488
H16 H 0.7213 -0.4625 0.2211
C16 C 0.8469(10) -0.4213(9) 0.2522(10)
H17 H 0.8701 -0.3985 0.1860
H18 H 0.8884 -0.3843 0.3022
N5 N 0.6091(5) 0.0323(5) 0.3527(7)
O5 O 0.3274(6) -0.0252(8) 0.4735(9)
C17 C 0.4371(8) -0.0191(9) 0.3733(10)
C18 C 0.4980(7) 0.0473(7) 0.4295(10)
H19 H 0.4816 0.0765 0.4741
C19 C 0.5828(8) 0.0710(8) 0.4206(11)
H20 H 0.6232 0.1144 0.4616
C20 C 0.5540(6) -0.0244(7) 0.2988(9)
H21 H 0.5735 -0.0481 0.2504
C21 C 0.4684(8) -0.0556(9) 0.3026(12)
H22 H 0.4311 -0.0998 0.2600
C22 C 0.3470(8) -0.0434(8) 0.3951(10)
N6 N -0.1399(5) 0.0938(6) 0.3524(6)
O6 O 0.1787(5) 0.2033(6) 0.3149(8)
C23 C 0.0293(7) 0.1218(7) 0.3558(7)
C24 C -0.0356(8) 0.0616(8) 0.4182(8)
H23 H -0.0234 0.0281 0.4611
C25 C -0.1150(7) 0.0510(7) 0.4178(7)
H24 H -0.1551 0.0129 0.4639
C26 C -0.0767(8) 0.1507(8) 0.2885(9)
H25 H -0.0906 0.1811 0.2425
C27 C 0.0055(9) 0.1648(7) 0.2892(9)
H26 H 0.0458 0.2040 0.2442
C28 C 0.1211(6) 0.1356(8) 0.3501(8)
N7 N 0.2898(7) -0.0857(9) 0.3181(8)
H27 H 0.3064 -0.1028 0.2667
N8 N 0.1303(6) 0.0695(7) 0.3824(9)
H28 H 0.0855 0.0214 0.3979
C29 C 0.2018(7) -0.1020(10) 0.3215(11)
H29 H 0.1858 -0.0996 0.3909
H30 H 0.1630 -0.1593 0.2957
C30 C 0.1934(11) -0.0389(12) 0.2618(13)
H31 H 0.1330 -0.0555 0.2601
H32 H 0.2104 -0.0419 0.1931
C31 C 0.2451(12) 0.0561(14) 0.2965(14)
H33 H 0.3048 0.0711 0.3044
H34 H 0.2431 0.0918 0.2429
C32 C 0.2171(8) 0.0787(10) 0.3915(10)
H35 H 0.2163 0.0417 0.4454
H36 H 0.2584 0.1377 0.4095
Cu1_2 Cu 0.73667(7) -0.93311(7) 0.35059(10)
Cu1_3 Cu -0.26333(7) 0.06689(7) 0.35059(10)
N2_2 N 0.7747(5) 0.1954(5) 0.3485(7)
N6_2 N 0.8601(5) 0.0938(6) 0.3524(6)
loop_
_geom_bond_atom_site_label_1
_geom_bond_atom_site_label_2
_geom_bond_site_symmetry_1
_geom_bond_site_symmetry_2
Cu1 O1 1_555 1_555
O2 Cu1 1_555 1_555
N1 Cu1 1_555 1_555
O3 C6 1_555 1_555
C1 C2 1_555 1_555
C2 H1 1_555 1_555
C3 N1 1_555 1_555
H2 C3 1_555 1_555
C4 N1 1_555 1_555
H3 C4 1_555 1_555
C5 C1 1_555 1_555
H4 C5 1_555 1_555
C6 C1 1_555 1_555
N2 C9 1_555 1_555
O4 C12 1_555 1_555
C7 C8 1_555 1_555
C8 H5 1_555 1_555
C9 C8 1_555 1_555
H6 C9 1_555 1_555
C10 N2 1_555 1_555
H7 C10 1_555 1_555
C11 C7 1_555 1_555
H8 C11 1_555 1_555
C12 C7 1_555 1_555
N3 C6 1_555 1_555
H9 N3 1_555 1_555
N4 C12 1_555 1_555
H10 N4 1_555 1_555
C13 N3 1_555 1_555
H11 C13 1_555 1_555
H12 C13 1_555 1_555
C14 C13 1_555 1_555
H13 C14 1_555 1_555
H14 C14 1_555 1_555
C15 C14 1_555 1_555
H15 C15 1_555 1_555
H16 C15 1_555 1_555
C16 N4 1_555 1_555
H17 C16 1_555 1_555
H18 C16 1_555 1_555
N5 Cu1 1_555 1_555
O5 C22 1_555 1_555
C17 C18 1_555 1_555
C18 H19 1_555 1_555
C19 N5 1_555 1_555
H20 C19 1_555 1_555
C20 N5 1_555 1_555
H21 C20 1_555 1_555
C21 C17 1_555 1_555
H22 C21 1_555 1_555
C22 C17 1_555 1_555
N6 C25 1_555 1_555
O6 C28 1_555 1_555
C23 C24 1_555 1_555
C24 H23 1_555 1_555
C25 C24 1_555 1_555
H24 C25 1_555 1_555
C26 N6 1_555 1_555
H25 C26 1_555 1_555
C27 C23 1_555 1_555
H26 C27 1_555 1_555
C28 C23 1_555 1_555
N7 C22 1_555 1_555
H27 N7 1_555 1_555
N8 C28 1_555 1_555
H28 N8 1_555 1_555
C29 N7 1_555 1_555
H29 C29 1_555 1_555
H30 C29 1_555 1_555
C30 C29 1_555 1_555
H31 C30 1_555 1_555
H32 C30 1_555 1_555
C31 C30 1_555 1_555
H33 C31 1_555 1_555
H34 C31 1_555 1_555
C32 N8 1_555 1_555
H35 C32 1_555 1_555
H36 C32 1_555 1_555
Cl1 O7 1_555 1_555
O8 Cl1 1_555 1_555
O9 Cl1 1_555 1_555
O10 Cl1 1_555 1_555
Cl2 O11 1_555 1_555
O12 Cl2 1_555 1_555
O13 Cl2 1_555 1_555
O14 Cl2 1_555 1_555
Cu1_2 N2 1_555 1_555
Cu1_3 N6 1_555 1_555
N2_2 Cu1 1_555 1_555
N6_2 Cu1 1_555 1_555
C2 C3 1_555 1_555
C4 C5 1_555 1_555
C10 C11 1_555 1_555
C15 C16 1_555 1_555
C18 C19 1_555 1_555
C20 C21 1_555 1_555
C26 C27 1_555 1_555
C31 C32 1_555 1_555

#END
