
#######################################################################
#
#                 Cambridge Crystallographic Data Centre
#                                CCDC 
#
#######################################################################
#
# If this CIF has been generated from an entry in the Cambridge 
# Structural Database, then it will include bibliographic, chemical, 
# crystal, experimental, refinement or atomic coordinate data resulting 
# from the CCDC's data processing and validation procedures.
#
#######################################################################

data_CEMMUD
_symmetry_cell_setting           tetragonal
_symmetry_space_group_name_H-M   'I 41/a'
_symmetry_Int_Tables_number      88
_space_group_name_Hall           '-I 4ad'
loop_
_symmetry_equiv_pos_site_id
_symmetry_equiv_pos_as_xyz
1 x,y,z
2 3/4-y,1/4+x,1/4+z
3 1/2+x,1/2+y,1/2+z
4 1/4-y,3/4+x,3/4+z
5 1/4+y,1/4-x,1/4+z
6 1/2-x,-y,1/2+z
7 3/4+y,3/4-x,3/4+z
8 -x,1/2-y,z
9 -x,-y,-z
10 1/4+y,3/4-x,3/4-z
11 1/2-x,1/2-y,1/2-z
12 3/4+y,1/4-x,1/4-z
13 3/4-y,3/4+x,3/4-z
14 1/2+x,y,1/2-z
15 1/4-y,1/4+x,1/4-z
16 x,1/2+y,-z
_cell_length_a                   19.3603(6)
_cell_length_b                   19.3603(6)
_cell_length_c                   14.6563(8)
_cell_angle_alpha                90
_cell_angle_beta                 90
_cell_angle_gamma                90
_cell_volume                     5493.49
loop_
_atom_site_label
_atom_site_type_symbol
_atom_site_fract_x
_atom_site_fract_y
_atom_site_fract_z
Ag1 Ag -0.03767(4) 0.67564(4) 0.47732(5)
P1 P 0.02892(6) 0.41256(6) 0.40977(7)
Cl1 Cl -0.10406(6) 0.78685(6) 0.45283(8)
C1 C -0.0210(2) 0.3957(3) 0.3067(3)
C2 C -0.0523(4) 0.3325(4) 0.2961(5)
H1 H -0.0479 0.2989 0.341
C3 C -0.0296(3) 0.4450(4) 0.2394(4)
H2 H -0.0087 0.488 0.2454
C4 C -0.0901(5) 0.3193(5) 0.2183(6)
H3 H -0.1107 0.2762 0.2112
C5 C -0.0979(4) 0.3660(6) 0.1539(5)
H4 H -0.1231 0.3554 0.1017
C6 C -0.0690(4) 0.4305(5) 0.1633(4)
H5 H -0.076 0.4641 0.1189
C7 C 0.1108(2) 0.4436(3) 0.3676(3)
C8 C 0.1256(3) 0.5135(4) 0.3547(4)
H6 H 0.0923 0.5469 0.3672
C9 C -0.0162(2) 0.4878(2) 0.4555(3)
H7 H -0.2251 0.7648 0.3389
H8 H -0.2739 0.8143 0.2839
C10 C 0.1604(3) 0.3948(4) 0.3494(4)
H9 H 0.1523 0.3481 0.3599
C11 C 0.2380(5) 0.4867(9) 0.3035(6)
H10 H 0.2809 0.5011 0.2823
C12 C 0.2245(4) 0.4183(8) 0.3140(6)
H11 H 0.2581 0.3861 0.2977
C13 C 0.1898(5) 0.5327(6) 0.3233(6)
H12 H 0.1996 0.5794 0.3159
Ag1H Ag 0.03767(4) 0.32436(4) 0.52268(5)
Ag1I Ag -0.07436(4) 0.78767(4) 0.27268(5)
Ag1C Ag -0.42564(4) 0.71233(4) 0.22732(5)
Ag1G Ag 0.03767(4) 0.82436(4) 0.47732(5)
Ag1L Ag 0.07436(4) 0.71233(4) 0.27268(5)
P1H P -0.02892(6) 0.58744(6) 0.59023(7)
P1C P -0.16256(6) 0.77892(6) 0.15977(7)
P1I P -0.33744(6) 0.72108(6) 0.34023(7)
P1O P 0.02892(6) 0.91256(6) 0.59023(7)
P1F P 0.16256(6) 0.72108(6) 0.15977(7)
Cl1I Cl 0.03685(6) 0.85406(6) 0.29717(8)
Cl1G Cl 0.10406(6) 0.71315(6) 0.45283(8)
Cl1L Cl -0.03685(6) 0.64594(6) 0.29717(8)
C1C C -0.1457(3) 0.7290(2) 0.0567(3)
C1I C -0.3543(3) 0.7710(2) 0.4433(3)
C1H C 0.0210(2) 0.6043(3) 0.6933(3)
C2C C -0.0825(4) 0.6977(4) 0.0461(5)
C2I C -0.4175(4) 0.8023(4) 0.4539(5)
C2H C 0.0523(4) 0.6675(4) 0.7039(5)
H1C H -0.0489 0.7021 0.091
H1I H -0.4511 0.7979 0.409
H1H H 0.0479 0.7011 0.659
C3C C -0.1950(4) 0.7204(3) -0.0106(4)
C3I C -0.3050(4) 0.7796(3) 0.5106(4)
C3H C 0.0296(3) 0.5550(4) 0.7606(4)
H2C H -0.238 0.7413 -0.0046
H2I H -0.262 0.7587 0.5046
H2H H 0.0087 0.512 0.7546
C4C C -0.0693(5) 0.6599(5) -0.0317(6)
C4I C -0.4307(5) 0.8401(5) 0.5317(6)
C4H C 0.0901(5) 0.6807(5) 0.7817(6)
H3C H -0.0262 0.6393 -0.0388
H3I H -0.4738 0.8607 0.5388
H3H H 0.1107 0.7238 0.7888
C5C C -0.1160(6) 0.6521(4) -0.0961(5)
C5I C -0.3840(6) 0.8479(4) 0.5961(5)
C5H C 0.0979(4) 0.6340(6) 0.8461(5)
H4C H -0.1054 0.6269 -0.1483
H4I H -0.3946 0.8731 0.6483
H4H H 0.1231 0.6446 0.8983
C6C C -0.1805(5) 0.6810(4) -0.0867(4)
C6I C -0.3195(5) 0.8190(4) 0.5867(4)
C6H C 0.0690(4) 0.5695(5) 0.8367(4)
H5C H -0.2141 0.674 -0.1311
H5I H -0.2859 0.826 0.6311
H5H H 0.076 0.5359 0.8811
C7C C -0.1936(3) 0.8608(2) 0.1176(3)
C7I C -0.3064(3) 0.6392(2) 0.3824(3)
C7H C -0.1108(2) 0.5564(3) 0.6324(3)
C8C C -0.2635(4) 0.8756(3) 0.1047(4)
C8I C -0.2365(4) 0.6244(3) 0.3953(4)
C8H C -0.1256(3) 0.4865(4) 0.6453(4)
H6C H -0.2969 0.8423 0.1172
H6I H -0.2031 0.6577 0.3828
H6H H -0.0923 0.4531 0.6328
C9H C 0.0162(2) 0.5122(2) 0.5445(3)
C9C C -0.2378(2) 0.7338(2) 0.2055(3)
C9I C -0.2622(2) 0.7662(2) 0.2945(3)
H7J H -0.2749 0.7352 0.1611
H7D H 0.0148 0.4751 0.5889
H7L H -0.0148 0.5249 0.4111
H8J H -0.2261 0.6857 0.2161
H8D H 0.0643 0.5239 0.5339
H8L H -0.0643 0.4761 0.4661
C10C C -0.1448(4) 0.9104(3) 0.0994(4)
C10I C -0.3552(4) 0.5896(3) 0.4006(4)
C10H C -0.1604(3) 0.6052(4) 0.6506(4)
H9C H -0.0981 0.9023 0.1099
H9I H -0.4019 0.5977 0.3901
H9H H -0.1523 0.6519 0.6401
C11C C -0.2367(9) 0.9880(5) 0.0535(6)
C11I C -0.2633(9) 0.5120(5) 0.4465(6)
C11H C -0.2380(5) 0.5133(9) 0.6965(6)
H10C H -0.2511 1.0309 0.0323
H10I H -0.2489 0.4691 0.4677
H10H H -0.2809 0.4989 0.7177
C12C C -0.1683(8) 0.9745(4) 0.0640(6)
C12I C -0.3317(8) 0.5255(4) 0.4360(6)
C12H C -0.2245(4) 0.5817(8) 0.6860(6)
H11C H -0.1361 1.0081 0.0477
H11I H -0.3639 0.4919 0.4523
H11H H -0.2581 0.6139 0.7023
C13C C -0.2827(6) 0.9398(5) 0.0733(6)
C13I C -0.2173(6) 0.5602(5) 0.4267(6)
C13H C -0.1898(5) 0.4673(6) 0.6767(6)
H12C H -0.3294 0.9496 0.0659
H12I H -0.1706 0.5504 0.4341
H12H H -0.1996 0.4206 0.6841
loop_
_geom_bond_atom_site_label_1
_geom_bond_atom_site_label_2
_geom_bond_site_symmetry_1
_geom_bond_site_symmetry_2
Ag1 Cl1 1_555 1_555
P1 C1 1_555 1_555
Cl1 Ag1I 1_555 1_555
C1 C2 1_555 1_555
C2 H1 1_555 1_555
C3 C1 1_555 1_555
H2 C3 1_555 1_555
C4 C2 1_555 1_555
H3 C4 1_555 1_555
C5 C4 1_555 1_555
H4 C5 1_555 1_555
C6 C3 1_555 1_555
H5 C6 1_555 1_555
C7 P1 1_555 1_555
C8 C7 1_555 1_555
H6 C8 1_555 1_555
C9 P1 1_555 1_555
H7 C9I 1_555 1_555
H8 C9I 1_555 1_555
C10 C7 1_555 1_555
H9 C10 1_555 1_555
C11 H10 1_555 1_555
C12 C10 1_555 1_555
H11 C12 1_555 1_555
C13 C8 1_555 1_555
H12 C13 1_555 1_555
Ag1H P1 1_555 1_555
Ag1I P1C 1_555 1_555
Ag1C P1I 1_555 1_555
Ag1G Cl1 1_555 1_555
Ag1L P1F 1_555 1_555
P1H Ag1 1_555 1_555
P1C C1C 1_555 1_555
P1I C1I 1_555 1_555
P1O Ag1G 1_555 1_555
Cl1I Ag1I 1_555 1_555
Cl1G Ag1 1_555 1_555
Cl1L Ag1 1_555 1_555
C1C C2C 1_555 1_555
C1I C2I 1_555 1_555
C1H P1H 1_555 1_555
C2C H1C 1_555 1_555
C2I H1I 1_555 1_555
C2H C1H 1_555 1_555
H1H C2H 1_555 1_555
C3C C1C 1_555 1_555
C3I C1I 1_555 1_555
C3H C1H 1_555 1_555
H2C C3C 1_555 1_555
H2I C3I 1_555 1_555
H2H C3H 1_555 1_555
C4C C2C 1_555 1_555
C4I C2I 1_555 1_555
C4H C2H 1_555 1_555
H3C C4C 1_555 1_555
H3I C4I 1_555 1_555
H3H C4H 1_555 1_555
C5C C4C 1_555 1_555
C5I C4I 1_555 1_555
C5H C4H 1_555 1_555
H4C C5C 1_555 1_555
H4I C5I 1_555 1_555
H4H C5H 1_555 1_555
C6C C3C 1_555 1_555
C6I C3I 1_555 1_555
C6H C3H 1_555 1_555
H5C C6C 1_555 1_555
H5I C6I 1_555 1_555
H5H C6H 1_555 1_555
C7C P1C 1_555 1_555
C7I P1I 1_555 1_555
C7H P1H 1_555 1_555
C8C C7C 1_555 1_555
C8I C7I 1_555 1_555
C8H C7H 1_555 1_555
H6C C8C 1_555 1_555
H6I C8I 1_555 1_555
H6H C8H 1_555 1_555
C9H C9 1_555 1_555
C9C P1C 1_555 1_555
C9I P1I 1_555 1_555
H7J C9C 1_555 1_555
H7D C9H 1_555 1_555
H7L C9 1_555 1_555
H8J C9C 1_555 1_555
H8D C9H 1_555 1_555
H8L C9 1_555 1_555
C10C C7C 1_555 1_555
C10I C7I 1_555 1_555
C10H C7H 1_555 1_555
H9C C10C 1_555 1_555
H9I C10I 1_555 1_555
H9H C10H 1_555 1_555
C11C H10C 1_555 1_555
C11I H10I 1_555 1_555
C11H H10H 1_555 1_555
C12C C10C 1_555 1_555
C12I C10I 1_555 1_555
C12H C10H 1_555 1_555
H11C C12C 1_555 1_555
H11I C12I 1_555 1_555
H11H C12H 1_555 1_555
C13C C8C 1_555 1_555
C13I C8I 1_555 1_555
C13H C8H 1_555 1_555
H12C C13C 1_555 1_555
H12I C13I 1_555 1_555
H12H C13H 1_555 1_555
C5 C6 1_555 1_555
C11 C12 1_555 1_555
C11 C13 1_555 1_555
Ag1I Cl1L 1_555 1_555
Ag1G Cl1I 1_555 1_555
Ag1G Cl1G 1_555 1_555
Ag1L Cl1I 1_555 1_555
Ag1L Cl1G 1_555 1_555
Ag1L Cl1L 1_555 1_555
P1H C9H 1_555 1_555
C5C C6C 1_555 1_555
C5I C6I 1_555 1_555
C5H C6H 1_555 1_555
C9C C9I 1_555 1_555
C11C C12C 1_555 1_555
C11C C13C 1_555 1_555
C11I C12I 1_555 1_555
C11I C13I 1_555 1_555
C11H C12H 1_555 1_555
C11H C13H 1_555 1_555

#END
