
#######################################################################
#
#                 Cambridge Crystallographic Data Centre
#                                CCDC 
#
#######################################################################
#
# If this CIF has been generated from an entry in the Cambridge 
# Structural Database, then it will include bibliographic, chemical, 
# crystal, experimental, refinement or atomic coordinate data resulting 
# from the CCDC's data processing and validation procedures.
#
#######################################################################

data_CEMNUF
_symmetry_cell_setting           monoclinic
_symmetry_space_group_name_H-M   'C 2/c'
_symmetry_Int_Tables_number      15
_space_group_name_Hall           '-C 2yn'
loop_
_symmetry_equiv_pos_site_id
_symmetry_equiv_pos_as_xyz
1 x,y,z
2 -x,y,1/2-z
3 1/2+x,1/2+y,z
4 1/2-x,1/2+y,1/2-z
5 -x,-y,-z
6 x,-y,1/2+z
7 1/2-x,1/2-y,-z
8 1/2+x,1/2-y,1/2+z
_cell_length_a                   31.8326(5)
_cell_length_b                   10.7066(2)
_cell_length_c                   18.2942(3)
_cell_angle_alpha                90
_cell_angle_beta                 96.9464(13)
_cell_angle_gamma                90
_cell_volume                     6189.24
loop_
_atom_site_label
_atom_site_type_symbol
_atom_site_fract_x
_atom_site_fract_y
_atom_site_fract_z
U1 U 0.389382(3) 0.317552(8) 0.143072(4)
Ni1 Ni 0.473527(10) 0.32304(3) -0.109397(17)
S1 S 0.328646(19) 0.53492(6) 0.01925(3)
S2 S 0.39506(2) 0.05089(7) 0.26266(4)
O1 O 0.43380(5) 0.40812(17) 0.17970(9)
O2 O 0.34544(5) 0.22797(18) 0.10533(9)
O3 O 0.40883(5) 0.36345(19) 0.02666(9)
O4 O 0.41285(6) 0.32539(17) -0.09191(10)
O5 O 0.34644(6) 0.49172(17) 0.09374(9)
O6 O 0.36052(6) 0.60056(18) -0.01674(10)
O7 O 0.28990(6) 0.60410(19) 0.02206(10)
O8 O 0.43218(6) 0.14955(19) 0.11758(11)
O9 O 0.45017(7) -0.0384(2) 0.07678(12)
O10 O 0.39864(6) 0.18612(16) 0.24887(10)
O11 O 0.43649(7) -0.0085(2) 0.26905(11)
O12 O 0.37269(8) 0.0286(2) 0.32467(11)
O13 O 0.35114(7) 0.3981(2) 0.24040(10)
H1 H 0.3437 0.3546 0.2730
H2 H 0.3375 0.4621 0.2388
O14 O 0.47219(6) 0.13120(18) -0.10633(9)
H3 H 0.4955 0.0850 -0.1104
H4 H 0.4504 0.0875 -0.1407
N1 N 0.50100(7) 0.33264(18) -0.00033(11)
N2 N 0.52161(6) 0.4805(2) 0.09434(10)
N3 N 0.44856(6) 0.32387(18) -0.22071(11)
N4 N 0.47046(6) 0.31826(18) -0.34038(11)
C1 C 0.39251(8) 0.3376(2) -0.03813(13)
C2 C 0.34547(8) 0.3172(2) -0.05495(13)
C3 C 0.31486(7) 0.3983(2) -0.03324(12)
C4 C 0.27209(8) 0.3734(3) -0.05331(13)
H5 H 0.2517 0.4281 -0.0397
C5 C 0.25982(8) 0.2665(3) -0.09366(15)
H6 H 0.2313 0.2503 -0.1074
C6 C 0.29012(10) 0.1842(3) -0.11344(16)
H7 H 0.2818 0.1113 -0.1388
C7 C 0.33249(8) 0.2103(3) -0.09548(14)
H8 H 0.3527 0.1563 -0.1105
C8 C 0.42662(9) 0.0295(3) 0.10604(14)
C9 C 0.38238(9) -0.0187(3) 0.11701(16)
C10 C 0.36561(8) -0.0124(2) 0.18413(15)
C11 C 0.32508(9) -0.0560(3) 0.19014(19)
H9 H 0.3143 -0.0521 0.2351
C12 C 0.30084(10) -0.1054(3) 0.1289(2)
H10 H 0.2736 -0.1337 0.1327
C13 C 0.31704(11) -0.1128(3) 0.0625(2)
H11 H 0.3007 -0.1461 0.0216
C14 C 0.35750(10) -0.0710(3) 0.05653(17)
H12 H 0.3683 -0.0776 0.0117
C15 C 0.50621(7) 0.4484(2) 0.02561(11)
C16 C 0.51033(8) 0.2395(3) 0.04774(13)
H13 H 0.5062 0.1573 0.0320
C17 C 0.52587(8) 0.2630(3) 0.12004(14)
H14 H 0.5321 0.1982 0.1534
C18 C 0.53182(8) 0.3858(3) 0.14123(13)
H15 H 0.5432 0.4037 0.1893
C19 C 0.47763(7) 0.3233(2) -0.26669(13)
C20 C 0.40800(8) 0.3152(2) -0.25045(14)
H16 H 0.3867 0.3154 -0.2200
C21 C 0.39753(8) 0.3059(2) -0.32598(14)
H17 H 0.3695 0.2969 -0.3466
C22 C 0.42973(8) 0.3103(2) -0.36954(13)
H18 H 0.4232 0.3077 -0.4205
N1D N 0.49900(7) 0.66736(18) 0.00033(11)
N2D N 0.47839(6) 0.5195(2) -0.09434(10)
C15D C 0.49379(7) 0.5516(2) -0.02561(11)
C16D C 0.48967(8) 0.7605(3) -0.04774(13)
H13D H 0.4938 0.8427 -0.0320
C17D C 0.47413(8) 0.7370(3) -0.12004(14)
H14D H 0.4679 0.8018 -0.1534
C18D C 0.46818(8) 0.6142(3) -0.14123(13)
H15D H 0.4568 0.5963 -0.1893
N3A N 0.55144(6) 0.32387(18) -0.27929(11)
N4A N 0.52954(6) 0.31826(18) -0.15962(11)
C19A C 0.52237(7) 0.3233(2) -0.23331(13)
C20A C 0.59200(8) 0.3152(2) -0.24955(14)
H16A H 0.6133 0.3154 -0.2800
C21A C 0.60247(8) 0.3059(2) -0.17402(14)
H17A H 0.6305 0.2969 -0.1534
C22A C 0.57027(8) 0.3103(2) -0.13046(13)
H18A H 0.5768 0.3077 -0.0795
U1A U 0.610618(3) 0.317552(8) -0.643072(4)
Ni1A Ni 0.526473(10) 0.32304(3) -0.390603(17)
S1A S 0.671354(19) 0.53492(6) -0.51925(3)
S2A S 0.60494(2) 0.05089(7) -0.76266(4)
O1A O 0.56620(5) 0.40812(17) -0.67970(9)
O2A O 0.65456(5) 0.22797(18) -0.60533(9)
O3A O 0.59117(5) 0.36345(19) -0.52666(9)
O4A O 0.58715(6) 0.32539(17) -0.40809(10)
O5A O 0.65356(6) 0.49172(17) -0.59374(9)
O6A O 0.63948(6) 0.60056(18) -0.48326(10)
O7A O 0.71010(6) 0.60410(19) -0.52206(10)
O8A O 0.56782(6) 0.14955(19) -0.61758(11)
O9A O 0.54983(7) -0.0384(2) -0.57678(12)
O10A O 0.60136(6) 0.18612(16) -0.74887(10)
O11A O 0.56351(7) -0.0085(2) -0.76905(11)
O12A O 0.62731(8) 0.0286(2) -0.82467(11)
O13A O 0.64886(7) 0.3981(2) -0.74040(10)
H1A H 0.6563 0.3546 -0.7730
H2A H 0.6625 0.4621 -0.7388
O14A O 0.52781(6) 0.13120(18) -0.39367(9)
H3A H 0.5045 0.0850 -0.3896
H4A H 0.5496 0.0875 -0.3593
C1A C 0.60749(8) 0.3376(2) -0.46187(13)
C2A C 0.65453(8) 0.3172(2) -0.44505(13)
C3A C 0.68514(7) 0.3983(2) -0.46676(12)
C4A C 0.72791(8) 0.3734(3) -0.44669(13)
H5A H 0.7483 0.4281 -0.4603
C5A C 0.74018(8) 0.2665(3) -0.40634(15)
H6A H 0.7687 0.2503 -0.3926
C6A C 0.70988(10) 0.1842(3) -0.38656(16)
H7A H 0.7182 0.1113 -0.3612
C7A C 0.66751(8) 0.2103(3) -0.40452(14)
H8A H 0.6473 0.1563 -0.3895
C8A C 0.57338(9) 0.0295(3) -0.60604(14)
C9A C 0.61762(9) -0.0187(3) -0.61701(16)
C10A C 0.63439(8) -0.0124(2) -0.68413(15)
C11A C 0.67492(9) -0.0560(3) -0.69014(19)
H9A H 0.6857 -0.0521 -0.7351
C12A C 0.69916(10) -0.1054(3) -0.6289(2)
H10A H 0.7264 -0.1337 -0.6327
C13A C 0.68296(11) -0.1128(3) -0.5625(2)
H11A H 0.6993 -0.1461 -0.5216
C14A C 0.64250(10) -0.0710(3) -0.55653(17)
H12A H 0.6317 -0.0776 -0.5117
Ni1D Ni 0.526473(10) 0.67696(3) 0.109397(17)
N1A N 0.49900(7) 0.33264(18) -0.49967(11)
N2E N 0.52161(6) 0.5195(2) -0.40566(10)
O15 O 0.33342(7) 0.2555(2) 0.35928(10)
H19 H 0.3456 0.2944 0.4001
H20 H 0.3530 0.1943 0.3611
O16 O 0.24273(7) 0.6183(2) 0.14404(12)
H21 H 0.2552 0.6213 0.1024
H22 H 0.2225 0.6839 0.1377
O17 O 0.30776(7) 0.6071(2) 0.25117(12)
H23 H 0.2842 0.6154 0.2148
H24 H 0.2979 0.6232 0.2995
loop_
_geom_bond_atom_site_label_1
_geom_bond_atom_site_label_2
_geom_bond_site_symmetry_1
_geom_bond_site_symmetry_2
U1 O1 1_555 1_555
Ni1 O4 1_555 1_555
S1 O5 1_555 1_555
S2 O10 1_555 1_555
O2 U1 1_555 1_555
O3 U1 1_555 1_555
O4 C1 1_555 1_555
O5 U1 1_555 1_555
O6 S1 1_555 1_555
O7 S1 1_555 1_555
O8 U1 1_555 1_555
O9 C8 1_555 1_555
O10 U1 1_555 1_555
O11 S2 1_555 1_555
O12 S2 1_555 1_555
O13 U1 1_555 1_555
H1 O13 1_555 1_555
H2 O13 1_555 1_555
O14 Ni1 1_555 1_555
H3 O14 1_555 1_555
H4 O14 1_555 1_555
N1 Ni1 1_555 1_555
N2 C15 1_555 1_555
N3 Ni1 1_555 1_555
N4 C19 1_555 1_555
C1 O3 1_555 1_555
C2 C1 1_555 1_555
C3 S1 1_555 1_555
C4 C3 1_555 1_555
H5 C4 1_555 1_555
C5 C4 1_555 1_555
H6 C5 1_555 1_555
C6 C5 1_555 1_555
H7 C6 1_555 1_555
C7 C2 1_555 1_555
H8 C7 1_555 1_555
C8 O8 1_555 1_555
C9 C8 1_555 1_555
C10 S2 1_555 1_555
C11 C10 1_555 1_555
H9 C11 1_555 1_555
C12 C11 1_555 1_555
H10 C12 1_555 1_555
C13 C12 1_555 1_555
H11 C13 1_555 1_555
C14 C9 1_555 1_555
H12 C14 1_555 1_555
C15 N1 1_555 1_555
C16 N1 1_555 1_555
H13 C16 1_555 1_555
C17 C16 1_555 1_555
H14 C17 1_555 1_555
C18 N2 1_555 1_555
H15 C18 1_555 1_555
C19 N3 1_555 1_555
C20 N3 1_555 1_555
H16 C20 1_555 1_555
C21 C20 1_555 1_555
H17 C21 1_555 1_555
C22 N4 1_555 1_555
H18 C22 1_555 1_555
O15 H19 1_555 1_555
H20 O15 1_555 1_555
O16 H21 1_555 1_555
H22 O16 1_555 1_555
O17 H23 1_555 1_555
H24 O17 1_555 1_555
N1D C15D 1_555 1_555
N2D Ni1 1_555 1_555
C15D C15 1_555 1_555
C16D N1D 1_555 1_555
H13D C16D 1_555 1_555
C17D C16D 1_555 1_555
H14D C17D 1_555 1_555
C18D N2D 1_555 1_555
H15D C18D 1_555 1_555
N3A C19A 1_555 1_555
N4A Ni1 1_555 1_555
C19A C19 1_555 1_555
C20A N3A 1_555 1_555
H16A C20A 1_555 1_555
C21A C20A 1_555 1_555
H17A C21A 1_555 1_555
C22A N4A 1_555 1_555
H18A C22A 1_555 1_555
U1A O1A 1_555 1_555
Ni1A N4 1_555 1_555
S1A O5A 1_555 1_555
S2A O10A 1_555 1_555
O2A U1A 1_555 1_555
O3A U1A 1_555 1_555
O4A Ni1A 1_555 1_555
O5A U1A 1_555 1_555
O6A S1A 1_555 1_555
O7A S1A 1_555 1_555
O8A U1A 1_555 1_555
O9A C8A 1_555 1_555
O10A U1A 1_555 1_555
O11A S2A 1_555 1_555
O12A S2A 1_555 1_555
O13A U1A 1_555 1_555
H1A O13A 1_555 1_555
H2A O13A 1_555 1_555
O14A Ni1A 1_555 1_555
H3A O14A 1_555 1_555
H4A O14A 1_555 1_555
C1A O3A 1_555 1_555
C2A C1A 1_555 1_555
C3A S1A 1_555 1_555
C4A C3A 1_555 1_555
H5A C4A 1_555 1_555
C5A C4A 1_555 1_555
H6A C5A 1_555 1_555
C6A C5A 1_555 1_555
H7A C6A 1_555 1_555
C7A C2A 1_555 1_555
H8A C7A 1_555 1_555
C8A O8A 1_555 1_555
C9A C8A 1_555 1_555
C10A S2A 1_555 1_555
C11A C10A 1_555 1_555
H9A C11A 1_555 1_555
C12A C11A 1_555 1_555
H10A C12A 1_555 1_555
C13A C12A 1_555 1_555
H11A C13A 1_555 1_555
C14A C9A 1_555 1_555
H12A C14A 1_555 1_555
Ni1D N2 1_555 1_555
N1A Ni1A 1_555 1_555
N2E Ni1A 1_555 1_555
C2 C3 1_555 1_555
C6 C7 1_555 1_555
C9 C10 1_555 1_555
C13 C14 1_555 1_555
C17 C18 1_555 1_555
C21 C22 1_555 1_555
N1D Ni1D 1_555 1_555
N2D C15D 1_555 1_555
C17D C18D 1_555 1_555
N3A Ni1A 1_555 1_555
N4A C19A 1_555 1_555
C21A C22A 1_555 1_555
O4A C1A 1_555 1_555
C2A C3A 1_555 1_555
C6A C7A 1_555 1_555
C9A C10A 1_555 1_555
C13A C14A 1_555 1_555

#END
