
#######################################################################
#
#                 Cambridge Crystallographic Data Centre
#                                CCDC 
#
#######################################################################
#
# If this CIF has been generated from an entry in the Cambridge 
# Structural Database, then it will include bibliographic, chemical, 
# crystal, experimental, refinement or atomic coordinate data resulting 
# from the CCDC's data processing and validation procedures.
#
#######################################################################

data_CEMPER
_symmetry_cell_setting           monoclinic
_symmetry_space_group_name_H-M   'P 21/n'
_symmetry_Int_Tables_number      14
_space_group_name_Hall           '-P 2yn'
loop_
_symmetry_equiv_pos_site_id
_symmetry_equiv_pos_as_xyz
1 x,y,z
2 1/2-x,1/2+y,1/2-z
3 -x,-y,-z
4 1/2+x,1/2-y,1/2+z
_cell_length_a                   11.2043(2)
_cell_length_b                   15.0029(5)
_cell_length_c                   17.9274(6)
_cell_angle_alpha                90
_cell_angle_beta                 96.5021(19)
_cell_angle_gamma                90
_cell_volume                     2994.16
loop_
_atom_site_label
_atom_site_type_symbol
_atom_site_fract_x
_atom_site_fract_y
_atom_site_fract_z
U1 U 0.626230(8) 0.335417(7) 0.036747(5)
S1 S 0.79700(6) 0.38778(5) -0.11989(4)
S2 S 0.55570(6) 0.14697(5) 0.14793(4)
O1 O 0.52796(18) 0.27562(15) -0.02847(12)
O2 O 0.72320(18) 0.39945(16) 0.10043(12)
O3 O 0.59034(18) 0.45851(14) -0.04221(12)
O4 O 0.53379(18) 0.59152(15) -0.08605(13)
O5 O 0.7761(2) 0.33876(14) -0.05069(13)
O6 O 0.69245(19) 0.39034(15) -0.17485(12)
O7 O 0.9040(2) 0.35290(15) -0.14778(14)
O8 O 0.75806(19) 0.21924(16) 0.06433(13)
O9 O 0.88779(19) 0.10981(16) 0.06862(12)
O10 O 0.54370(17) 0.24524(14) 0.13372(11)
O11 O 0.56731(19) 0.09688(15) 0.08083(12)
O12 O 0.46134(18) 0.11788(14) 0.19118(12)
C1 C 0.6132(2) 0.53331(19) -0.06783(16)
C2 C 0.7407(2) 0.5594(2) -0.07572(16)
C3 C 0.8304(2) 0.4995(2) -0.09262(16)
C4 C 0.9473(3) 0.5301(2) -0.09398(18)
H1 H 1.0068 0.4907 -0.1053
C5 C 0.9764(3) 0.6185(3) -0.0788(2)
H2 H 1.0554 0.6377 -0.0780
C6 C 0.8877(3) 0.6779(2) -0.0648(2)
H3 H 0.9067 0.7376 -0.0561
C7 C 0.7705(3) 0.6490(2) -0.0638(2)
H4 H 0.7111 0.6897 -0.0551
C8 C 0.8165(3) 0.15681(19) 0.09903(17)
C9 C 0.8026(3) 0.14290(19) 0.18049(16)
C10 C 0.6915(3) 0.1382(2) 0.20851(16)
C11 C 0.6845(3) 0.1281(2) 0.28503(17)
H5 H 0.6101 0.1241 0.3031
C12 C 0.7896(3) 0.1241(3) 0.33420(18)
H6 H 0.7852 0.1182 0.3855
C13 C 0.9003(3) 0.1288(3) 0.30775(19)
H7 H 0.9701 0.1259 0.3411
C14 C 0.9072(3) 0.1378(2) 0.23149(18)
H8 H 0.9821 0.1405 0.2138
U1B U 0.373770(8) 0.664583(7) -0.036747(5)
S1B S 0.20300(6) 0.61222(5) 0.11989(4)
S2B S 0.44430(6) 0.85303(5) -0.14793(4)
O1B O 0.47204(18) 0.72438(15) 0.02847(12)
O2B O 0.27680(18) 0.60055(16) -0.10043(12)
O3B O 0.40966(18) 0.54149(14) 0.04221(12)
O4B O 0.46621(18) 0.40848(15) 0.08605(13)
O5B O 0.2239(2) 0.66124(14) 0.05069(13)
O6B O 0.30755(19) 0.60966(15) 0.17485(12)
O7B O 0.0960(2) 0.64710(15) 0.14778(14)
O8B O 0.24194(19) 0.78076(16) -0.06433(13)
O9B O 0.11221(19) 0.89019(16) -0.06862(12)
O10B O 0.45630(17) 0.75476(14) -0.13372(11)
O11B O 0.43269(19) 0.90312(15) -0.08083(12)
O12B O 0.53866(18) 0.88212(14) -0.19118(12)
C1B C 0.3868(2) 0.46669(19) 0.06783(16)
C2B C 0.2593(2) 0.4406(2) 0.07572(16)
C3B C 0.1696(2) 0.5005(2) 0.09262(16)
C4B C 0.0527(3) 0.4699(2) 0.09398(18)
H1B H -0.0068 0.5093 0.1053
C5B C 0.0236(3) 0.3815(3) 0.0788(2)
H2B H -0.0554 0.3623 0.0780
C6B C 0.1123(3) 0.3221(2) 0.0648(2)
H3B H 0.0933 0.2624 0.0561
C7B C 0.2295(3) 0.3510(2) 0.0638(2)
H4B H 0.2889 0.3103 0.0551
C8B C 0.1835(3) 0.84319(19) -0.09903(17)
C9B C 0.1974(3) 0.85710(19) -0.18049(16)
C10B C 0.3085(3) 0.8618(2) -0.20851(16)
C11B C 0.3155(3) 0.8719(2) -0.28503(17)
H5B H 0.3899 0.8759 -0.3031
C12B C 0.2104(3) 0.8759(3) -0.33420(18)
H6B H 0.2148 0.8818 -0.3855
C13B C 0.0997(3) 0.8712(3) -0.30775(19)
H7B H 0.0299 0.8741 -0.3411
C14B C 0.0928(3) 0.8622(2) -0.23149(18)
H8B H 0.0179 0.8595 -0.2138
Cu1 Cu 0.06729(3) 0.88793(3) 0.16092(2)
O13 O 0.06887(18) 1.00389(15) 0.11134(13)
H9 H 0.0016 1.0355 0.0960
H10 H 0.1160 1.0436 0.1312
O14 O 0.08051(18) 0.79381(15) 0.23961(12)
H11 H 0.0750 0.7388 0.2282
H12 H 0.0303 0.7861 0.2739
O15 O 0.04795(18) 0.81145(15) 0.05775(12)
H13 H 0.0785 0.7647 0.0615
H14 H 0.0696 0.8416 0.0285
N1 N 0.2508(2) 0.88718(17) 0.16426(14)
N2 N 0.8850(2) 0.89251(17) 0.16033(15)
C15 C 0.3000(3) 0.9116(2) 0.10255(16)
H15 H 0.2492 0.9286 0.0603
C16 C 0.4219(3) 0.9126(2) 0.09861(16)
H16 H 0.4513 0.9298 0.0543
C17 C 0.5013(2) 0.88815(19) 0.16037(16)
C18 C 0.4497(3) 0.8606(2) 0.22453(18)
H17 H 0.4985 0.8418 0.2670
C19 C 0.3260(3) 0.8615(2) 0.22426(18)
H18 H 0.2936 0.8436 0.2674
C20 C 0.8110(3) 0.8823(2) 0.09631(19)
H19 H 0.8450 0.8761 0.0516
C21 C 0.6864(3) 0.8806(2) 0.09350(18)
H20 H 0.6392 0.8735 0.0478
C22 C 0.6330(3) 0.8895(2) 0.15956(17)
C23 C 0.7106(3) 0.9018(2) 0.22551(17)
H21 H 0.6793 0.9093 0.2710
C24 C 0.8341(3) 0.9027(2) 0.22359(17)
H22 H 0.8836 0.9107 0.2684
Cu1_2 Cu 1.06729(3) 0.88793(3) 0.16092(2)
N2_2 N -0.1150(2) 0.89251(17) 0.16033(15)
O16 O 0.2139(2) 1.12748(17) 0.17233(14)
H23 H 0.2153 1.1383 0.2245
H24 H 0.2930 1.1225 0.1772
loop_
_geom_bond_atom_site_label_1
_geom_bond_atom_site_label_2
_geom_bond_site_symmetry_1
_geom_bond_site_symmetry_2
U1 O1 1_555 1_555
S1 O5 1_555 1_555
S2 O10 1_555 1_555
O2 U1 1_555 1_555
O3 U1 1_555 1_555
O4 C1 1_555 1_555
O5 U1 1_555 1_555
O6 S1 1_555 1_555
O7 S1 1_555 1_555
O8 U1 1_555 1_555
O9 C8 1_555 1_555
O10 U1 1_555 1_555
O11 S2 1_555 1_555
O12 S2 1_555 1_555
C1 O3 1_555 1_555
C2 C1 1_555 1_555
C3 S1 1_555 1_555
C4 C3 1_555 1_555
H1 C4 1_555 1_555
C5 C4 1_555 1_555
H2 C5 1_555 1_555
C6 C5 1_555 1_555
H3 C6 1_555 1_555
C7 C2 1_555 1_555
H4 C7 1_555 1_555
C8 O8 1_555 1_555
C9 C8 1_555 1_555
C10 S2 1_555 1_555
C11 C10 1_555 1_555
H5 C11 1_555 1_555
C12 C11 1_555 1_555
H6 C12 1_555 1_555
C13 C12 1_555 1_555
H7 C13 1_555 1_555
C14 C9 1_555 1_555
H8 C14 1_555 1_555
Cu1 O13 1_555 1_555
O13 H9 1_555 1_555
H10 O13 1_555 1_555
O14 Cu1 1_555 1_555
H11 O14 1_555 1_555
H12 O14 1_555 1_555
O15 Cu1 1_555 1_555
H13 O15 1_555 1_555
H14 O15 1_555 1_555
N1 Cu1 1_555 1_555
N2 C20 1_555 1_555
C15 N1 1_555 1_555
H15 C15 1_555 1_555
C16 C15 1_555 1_555
H16 C16 1_555 1_555
C17 C16 1_555 1_555
C18 C17 1_555 1_555
H17 C18 1_555 1_555
C19 N1 1_555 1_555
H18 C19 1_555 1_555
C20 H19 1_555 1_555
C21 C20 1_555 1_555
H20 C21 1_555 1_555
C22 C17 1_555 1_555
C23 C22 1_555 1_555
H21 C23 1_555 1_555
C24 N2 1_555 1_555
H22 C24 1_555 1_555
O16 H23 1_555 1_555
H24 O16 1_555 1_555
U1B O4 1_555 1_555
S1B O5B 1_555 1_555
S2B O10B 1_555 1_555
O1B U1B 1_555 1_555
O2B U1B 1_555 1_555
O3B U1B 1_555 1_555
O4B U1 1_555 1_555
O5B U1B 1_555 1_555
O6B S1B 1_555 1_555
O7B S1B 1_555 1_555
O8B U1B 1_555 1_555
O9B C8B 1_555 1_555
O10B U1B 1_555 1_555
O11B S2B 1_555 1_555
O12B S2B 1_555 1_555
C1B O3B 1_555 1_555
C2B C1B 1_555 1_555
C3B S1B 1_555 1_555
C4B C3B 1_555 1_555
H1B C4B 1_555 1_555
C5B C4B 1_555 1_555
H2B C5B 1_555 1_555
C6B C5B 1_555 1_555
H3B C6B 1_555 1_555
C7B C2B 1_555 1_555
H4B C7B 1_555 1_555
C8B O8B 1_555 1_555
C9B C8B 1_555 1_555
C10B S2B 1_555 1_555
C11B C10B 1_555 1_555
H5B C11B 1_555 1_555
C12B C11B 1_555 1_555
H6B C12B 1_555 1_555
C13B C12B 1_555 1_555
H7B C13B 1_555 1_555
C14B C9B 1_555 1_555
H8B C14B 1_555 1_555
Cu1_2 N2 1_555 1_555
N2_2 Cu1 1_555 1_555
C2 C3 1_555 1_555
C6 C7 1_555 1_555
C9 C10 1_555 1_555
C13 C14 1_555 1_555
C18 C19 1_555 1_555
C21 C22 1_555 1_555
C23 C24 1_555 1_555
O4B C1B 1_555 1_555
C2B C3B 1_555 1_555
C6B C7B 1_555 1_555
C9B C10B 1_555 1_555
C13B C14B 1_555 1_555

#END
