
#######################################################################
#
#                 Cambridge Crystallographic Data Centre
#                                CCDC 
#
#######################################################################
#
# If this CIF has been generated from an entry in the Cambridge 
# Structural Database, then it will include bibliographic, chemical, 
# crystal, experimental, refinement or atomic coordinate data resulting 
# from the CCDC's data processing and validation procedures.
#
#######################################################################

data_CEMPOB
_symmetry_cell_setting           monoclinic
_symmetry_space_group_name_H-M   'P 21/n'
_symmetry_Int_Tables_number      14
_space_group_name_Hall           '-P 2yn'
loop_
_symmetry_equiv_pos_site_id
_symmetry_equiv_pos_as_xyz
1 x,y,z
2 1/2-x,1/2+y,1/2-z
3 -x,-y,-z
4 1/2+x,1/2-y,1/2+z
_cell_length_a                   13.34650(10)
_cell_length_b                   28.5557(3)
_cell_length_c                   16.3283(2)
_cell_angle_alpha                90
_cell_angle_beta                 97.2807(5)
_cell_angle_gamma                90
_cell_volume                     6172.84
loop_
_atom_site_label
_atom_site_type_symbol
_atom_site_fract_x
_atom_site_fract_y
_atom_site_fract_z
U1 U 0.605596(13) 0.106719(7) 0.305259(11)
U2 U 0.329776(15) 0.122310(7) 0.186153(12)
U3 U 0.362171(15) 0.124516(8) 0.417091(12)
U4 U 0.882582(14) 0.119323(7) 0.422705(12)
U5 U 0.850388(14) 0.118516(7) 0.193661(12)
S1 S 0.41700(10) 0.14133(6) -0.01516(9)
S2 S 0.79290(10) 0.15144(5) 0.61673(8)
S3 S 0.35394(12) 0.13907(6) 0.63672(10)
S4 S 0.86588(12) 0.13746(6) -0.02421(9)
O1 O 0.6007(3) 0.04440(15) 0.3025(2)
O2 O 0.6091(3) 0.16891(16) 0.3067(3)
O3 O 0.3018(3) 0.06128(15) 0.1808(3)
O4 O 0.3512(3) 0.18411(16) 0.1882(3)
O5 O 0.3355(3) 0.06419(15) 0.4287(3)
O6 O 0.3867(3) 0.18580(17) 0.4097(3)
O7 O 0.9029(3) 0.05823(15) 0.4421(2)
O8 O 0.8662(3) 0.18109(15) 0.4100(3)
O9 O 0.8693(3) 0.05734(16) 0.1799(3)
O10 O 0.8328(3) 0.17998(15) 0.2030(3)
O11 O 0.4352(3) 0.11206(15) 0.3017(2)
O12 O 0.7750(3) 0.10676(14) 0.3076(2)
O13 O 0.2402(3) 0.13317(17) 0.2998(3)
H1 H 0.2046 0.1088 0.3004
O14 O 0.9721(3) 0.11787(15) 0.3097(2)
H2 H 1.0199 0.0926 0.3063
O15 O 0.5050(3) 0.10554(15) 0.1595(2)
O16 O 0.6671(3) 0.10470(16) 0.1612(2)
O17 O 0.3407(3) 0.12526(16) 0.0376(3)
O18 O 0.3703(3) 0.15400(18) -0.0963(3)
O19 O 0.4825(3) 0.17685(16) 0.0256(3)
O20 O 0.5430(3) 0.10452(16) 0.4492(2)
O21 O 0.7051(3) 0.10658(16) 0.4506(2)
O22 O 0.8713(3) 0.13330(15) 0.5686(3)
O23 O 0.7240(3) 0.18365(15) 0.5701(3)
O24 O 0.8377(3) 0.16885(16) 0.6962(3)
O25 O 0.2110(3) 0.14008(17) 0.4745(3)
O26 O 0.0495(3) 0.13317(15) 0.4876(2)
O27 O 0.4060(3) 0.13027(17) 0.5645(3)
O28 O 0.3033(4) 0.18290(19) 0.6323(4)
O29 O 0.4236(4) 0.1326(2) 0.7128(3)
O30 O 1.0048(3) 0.13329(19) 0.1413(3)
O31 O 1.1636(3) 0.13308(15) 0.1205(3)
O32 O 0.8099(3) 0.12569(17) 0.0455(3)
O33 O 0.9206(4) 0.18104(17) -0.0112(4)
O34 O 0.7998(4) 0.1349(2) -0.1008(3)
C1 C 0.5808(4) 0.09845(19) 0.1222(3)
C2 C 0.5685(4) 0.07855(19) 0.0378(3)
C3 C 0.4937(4) 0.0922(2) -0.0259(3)
C4 C 0.4819(5) 0.0679(2) -0.0991(4)
H3 H 0.4341 0.0778 -0.1420
C5 C 0.5399(5) 0.0288(2) -0.1101(4)
H4 H 0.5288 0.0118 -0.1590
C6 C 0.6143(5) 0.0150(2) -0.0482(4)
H5 H 0.6533 -0.0113 -0.0555
C7 C 0.6310(4) 0.0402(2) 0.0245(4)
H6 H 0.6836 0.0319 0.0648
C8 C 0.6299(4) 0.10069(19) 0.4897(3)
C9 C 0.6431(4) 0.08494(19) 0.5758(3)
C10 C 0.7187(4) 0.10253(19) 0.6362(3)
C11 C 0.7336(4) 0.0827(2) 0.7145(4)
H7 H 0.7813 0.0954 0.7548
C12 C 0.6780(5) 0.0444(2) 0.7327(4)
H8 H 0.6905 0.0304 0.7844
C13 C 0.6023(5) 0.0261(2) 0.6735(4)
H9 H 0.5646 0.0002 0.6856
C14 C 0.5850(5) 0.0473(2) 0.5972(4)
H10 H 0.5331 0.0361 0.5588
C15 C 0.1415(4) 0.1251(2) 0.5120(3)
C16 C 0.1664(4) 0.0950(2) 0.5877(3)
C17 C 0.2590(4) 0.0958(2) 0.6391(4)
C18 C 0.2782(5) 0.0628(3) 0.7018(4)
H11 H 0.3406 0.0629 0.7343
C19 C 0.2068(6) 0.0301(3) 0.7169(5)
H12 H 0.2209 0.0080 0.7586
C20 C 0.1133(5) 0.0308(3) 0.6686(5)
H13 H 0.0633 0.0097 0.6791
C21 C 0.0948(5) 0.0623(2) 0.6059(4)
H14 H 0.0320 0.0620 0.5740
C22 C 1.0732(4) 0.1213(2) 0.1004(3)
C23 C 1.0491(4) 0.0907(2) 0.0255(4)
C24 C 0.9590(4) 0.0930(2) -0.0293(4)
C25 C 0.9416(5) 0.0620(3) -0.0944(4)
H15 H 0.8815 0.0637 -0.1301
C26 C 1.0128(6) 0.0284(3) -0.1071(5)
H16 H 1.0003 0.0073 -0.1506
C27 C 1.1028(6) 0.0262(3) -0.0546(5)
H17 H 1.1513 0.0039 -0.0630
C28 C 1.1197(5) 0.0572(3) 0.0099(4)
H18 H 1.1807 0.0557 0.0444
U2_2 U 1.329776(15) 0.122310(7) 0.186153(12)
U4_2 U -0.117418(14) 0.119323(7) 0.422705(12)
O26_2 O 1.0495(3) 0.13317(15) 0.4876(2)
O31_2 O 0.1636(3) 0.13308(15) 0.1205(3)
O35 O 0.1684(4) 0.0027(2) 0.4343(3)
H19 H 0.1896 0.0281 0.4719
H20 H 0.1254 -0.0104 0.4744
O36 O 0.1163(3) 0.04832(18) 0.2911(3)
H21 H 0.1662 0.0390 0.2685
H22 H 0.1185 0.0301 0.3367
O37 O 0.2558(5) 0.22590(19) 0.0206(4)
H23 H 0.2955 0.2311 0.0660
H24 H 0.2256 0.2553 0.0217
O38 O 0.4755(4) 0.27165(17) 0.0801(3)
H25 H 0.4855 0.2454 0.0643
H26 H 0.5131 0.2914 0.0634
N1 N 0.1553(6) 0.2258(3) 0.2921(5)
H27 H 0.1954 0.1983 0.3029
N2 N 0.0357(6) 0.2931(3) 0.2792(5)
H28 H -0.0125 0.3176 0.2733
C29 C 0.1173(9) 0.2320(4) 0.2107(7)
H29 H 0.0773 0.2051 0.1907
H30 H 0.1722 0.2355 0.1775
C30 C 0.0530(8) 0.2752(4) 0.2040(9)
H31 H 0.0857 0.2990 0.1743
H32 H -0.0113 0.2679 0.1720
C31 C 0.0730(6) 0.2171(3) 0.3479(7)
H33 H 0.0983 0.2228 0.4053
H34 H 0.0476 0.1853 0.3420
C32 C -0.0100(6) 0.2529(4) 0.3163(7)
H35 H -0.0594 0.2382 0.2755
H36 H -0.0445 0.2634 0.3618
C33 C 0.2126(7) 0.2688(4) 0.3210(6)
H37 H 0.2590 0.2775 0.2825
H38 H 0.2508 0.2636 0.3748
C34 C 0.1295(7) 0.3089(3) 0.3259(8)
H39 H 0.1198 0.3146 0.3829
H40 H 0.1515 0.3379 0.3027
N3 N 0.1646(4) 0.20699(18) -0.1292(3)
H41 H 0.2084 0.2057 -0.0784
N4 N 0.0439(4) 0.20883(18) -0.2582(3)
H42 H 0.0042 0.2139 -0.3018
C35 C 0.2158(4) 0.2279(2) -0.1958(4)
H43 H 0.2693 0.2073 -0.2091
H44 H 0.2455 0.2577 -0.1779
C36 C 0.1372(5) 0.2347(3) -0.2719(4)
H45 H 0.1223 0.2677 -0.2801
H46 H 0.1631 0.2228 -0.3207
C37 C 0.0732(4) 0.2348(2) -0.1145(4)
H47 H 0.0915 0.2674 -0.1044
H48 H 0.0454 0.2228 -0.0666
C38 C -0.0049(4) 0.2307(2) -0.1914(4)
H49 H -0.0614 0.2117 -0.1792
H50 H -0.0301 0.2615 -0.2084
C39 C 0.1324(5) 0.1577(2) -0.1521(5)
H51 H 0.0928 0.1450 -0.1115
H52 H 0.1914 0.1380 -0.1537
C40 C 0.0699(5) 0.1587(2) -0.2363(5)
H53 H 0.1080 0.1452 -0.2773
H54 H 0.0087 0.1406 -0.2352
loop_
_geom_bond_atom_site_label_1
_geom_bond_atom_site_label_2
_geom_bond_site_symmetry_1
_geom_bond_site_symmetry_2
U1 O1 1_555 1_555
U2 O3 1_555 1_555
U3 O5 1_555 1_555
U4 O7 1_555 1_555
U5 O9 1_555 1_555
S1 O17 1_555 1_555
S2 O22 1_555 1_555
S3 O27 1_555 1_555
S4 O32 1_555 1_555
O2 U1 1_555 1_555
O4 U2 1_555 1_555
O6 U3 1_555 1_555
O8 U4 1_555 1_555
O10 U5 1_555 1_555
O11 U1 1_555 1_555
O12 U1 1_555 1_555
O13 U2 1_555 1_555
H1 O13 1_555 1_555
O14 U4 1_555 1_555
H2 O14 1_555 1_555
O15 U1 1_555 1_555
O16 U1 1_555 1_555
O17 U2 1_555 1_555
O18 S1 1_555 1_555
O19 S1 1_555 1_555
O20 U1 1_555 1_555
O21 U1 1_555 1_555
O22 U4 1_555 1_555
O23 S2 1_555 1_555
O24 S2 1_555 1_555
O25 U3 1_555 1_555
O26 C15 1_555 1_555
O27 U3 1_555 1_555
O28 S3 1_555 1_555
O29 S3 1_555 1_555
O30 U5 1_555 1_555
O31 C22 1_555 1_555
O32 U5 1_555 1_555
O33 S4 1_555 1_555
O34 S4 1_555 1_555
C1 O15 1_555 1_555
C2 C1 1_555 1_555
C3 S1 1_555 1_555
C4 C3 1_555 1_555
H3 C4 1_555 1_555
C5 C4 1_555 1_555
H4 C5 1_555 1_555
C6 C5 1_555 1_555
H5 C6 1_555 1_555
C7 C2 1_555 1_555
H6 C7 1_555 1_555
C8 O20 1_555 1_555
C9 C8 1_555 1_555
C10 S2 1_555 1_555
C11 C10 1_555 1_555
H7 C11 1_555 1_555
C12 C11 1_555 1_555
H8 C12 1_555 1_555
C13 C12 1_555 1_555
H9 C13 1_555 1_555
C14 C9 1_555 1_555
H10 C14 1_555 1_555
C15 O25 1_555 1_555
C16 C15 1_555 1_555
C17 S3 1_555 1_555
C18 C17 1_555 1_555
H11 C18 1_555 1_555
C19 C18 1_555 1_555
H12 C19 1_555 1_555
C20 C19 1_555 1_555
H13 C20 1_555 1_555
C21 C16 1_555 1_555
H14 C21 1_555 1_555
C22 O30 1_555 1_555
C23 C22 1_555 1_555
C24 S4 1_555 1_555
C25 C24 1_555 1_555
H15 C25 1_555 1_555
C26 C25 1_555 1_555
H16 C26 1_555 1_555
C27 C26 1_555 1_555
H17 C27 1_555 1_555
C28 C23 1_555 1_555
H18 C28 1_555 1_555
O35 H19 1_555 1_555
H20 O35 1_555 1_555
O36 H21 1_555 1_555
H22 O36 1_555 1_555
O37 H23 1_555 1_555
H24 O37 1_555 1_555
O38 H25 1_555 1_555
H26 O38 1_555 1_555
N1 H27 1_555 1_555
N2 H28 1_555 1_555
C29 N1 1_555 1_555
H29 C29 1_555 1_555
H30 C29 1_555 1_555
C30 N2 1_555 1_555
H31 C30 1_555 1_555
H32 C30 1_555 1_555
C31 N1 1_555 1_555
H33 C31 1_555 1_555
H34 C31 1_555 1_555
C32 N2 1_555 1_555
H35 C32 1_555 1_555
H36 C32 1_555 1_555
C33 N1 1_555 1_555
H37 C33 1_555 1_555
H38 C33 1_555 1_555
C34 N2 1_555 1_555
H39 C34 1_555 1_555
H40 C34 1_555 1_555
N3 H41 1_555 1_555
N4 H42 1_555 1_555
C35 N3 1_555 1_555
H43 C35 1_555 1_555
H44 C35 1_555 1_555
C36 N4 1_555 1_555
H45 C36 1_555 1_555
H46 C36 1_555 1_555
C37 N3 1_555 1_555
H47 C37 1_555 1_555
H48 C37 1_555 1_555
C38 N4 1_555 1_555
H49 C38 1_555 1_555
H50 C38 1_555 1_555
C39 N3 1_555 1_555
H51 C39 1_555 1_555
H52 C39 1_555 1_555
C40 N4 1_555 1_555
H53 C40 1_555 1_555
H54 C40 1_555 1_555
U2_2 O31 1_555 1_555
U4_2 O26 1_555 1_555
O26_2 U4 1_555 1_555
O31_2 U2 1_555 1_555
U2 O11 1_555 1_555
U2 O15 1_555 1_555
U3 O11 1_555 1_555
U3 O13 1_555 1_555
U3 O20 1_555 1_555
U4 O12 1_555 1_555
U4 O21 1_555 1_555
U5 O12 1_555 1_555
U5 O14 1_555 1_555
U5 O16 1_555 1_555
O16 C1 1_555 1_555
O21 C8 1_555 1_555
C2 C3 1_555 1_555
C6 C7 1_555 1_555
C9 C10 1_555 1_555
C13 C14 1_555 1_555
C16 C17 1_555 1_555
C20 C21 1_555 1_555
C23 C24 1_555 1_555
C27 C28 1_555 1_555
C29 C30 1_555 1_555
C31 C32 1_555 1_555
C33 C34 1_555 1_555
C35 C36 1_555 1_555
C37 C38 1_555 1_555
C39 C40 1_555 1_555

#END
