
#######################################################################
#
#                 Cambridge Crystallographic Data Centre
#                                CCDC 
#
#######################################################################
#
# If this CIF has been generated from an entry in the Cambridge 
# Structural Database, then it will include bibliographic, chemical, 
# crystal, experimental, refinement or atomic coordinate data resulting 
# from the CCDC's data processing and validation procedures.
#
#######################################################################

data_CEMPUH
_symmetry_cell_setting           triclinic
_symmetry_space_group_name_H-M   'P -1'
_symmetry_Int_Tables_number      2
_space_group_name_Hall           '-P 1'
loop_
_symmetry_equiv_pos_site_id
_symmetry_equiv_pos_as_xyz
1 x,y,z
2 -x,-y,-z
_cell_length_a                   7.0444(5)
_cell_length_b                   10.6214(10)
_cell_length_c                   11.5329(11)
_cell_angle_alpha                83.349(4)
_cell_angle_beta                 87.808(5)
_cell_angle_gamma                80.027(5)
_cell_volume                     844.003
loop_
_atom_site_label
_atom_site_type_symbol
_atom_site_fract_x
_atom_site_fract_y
_atom_site_fract_z
U1 U 0.0000 0.0000 0.0000
U2 U 0.47205(3) 0.08200(2) 0.131940(19)
S1 S 0.2348(2) 0.30061(15) 0.32788(14)
O1 O 0.0461(6) -0.1497(5) 0.0897(4)
O2 O 0.5016(6) -0.0641(4) 0.2278(4)
O3 O 0.4500(6) 0.2363(4) 0.0494(4)
O4 O 0.1121(5) 0.1047(4) 0.1734(4)
O5 O -0.1941(5) 0.1041(5) 0.1776(4)
O6 O 0.3920(5) 0.1960(4) 0.3009(4)
O7 O 0.2978(6) 0.3793(5) 0.4086(5)
O8 O 0.1445(6) 0.3714(5) 0.2244(4)
O9 O 0.3127(6) 0.0071(4) -0.0030(4)
C1 C -0.0465(7) 0.1219(6) 0.2295(5)
C2 C -0.0627(7) 0.1519(6) 0.3525(5)
C3 C 0.0562(8) 0.2198(6) 0.4056(5)
C4 C 0.0291(9) 0.2357(6) 0.5224(6)
H1 H 0.1068 0.2826 0.5570
C5 C -0.1111(9) 0.1834(6) 0.5891(6)
H2 H -0.1254 0.1931 0.6682
C6 C -0.2278(9) 0.1175(7) 0.5379(6)
H3 H -0.3230 0.0826 0.5824
C7 C -0.2065(8) 0.1016(6) 0.4200(5)
H4 H -0.2884 0.0572 0.3859
U2A U -0.47205(3) -0.08200(2) -0.131940(19)
S1A S -0.2348(2) -0.30061(15) -0.32788(14)
O1A O -0.0461(6) 0.1497(5) -0.0897(4)
O2A O -0.5016(6) 0.0641(4) -0.2278(4)
O3A O -0.4500(6) -0.2363(4) -0.0494(4)
O4A O -0.1121(5) -0.1047(4) -0.1734(4)
O5A O 0.1941(5) -0.1041(5) -0.1776(4)
O6A O -0.3920(5) -0.1960(4) -0.3009(4)
O7A O -0.2978(6) -0.3793(5) -0.4086(5)
O8A O -0.1445(6) -0.3714(5) -0.2244(4)
O9A O -0.3127(6) -0.0071(4) 0.0030(4)
C1A C 0.0465(7) -0.1219(6) -0.2295(5)
C2A C 0.0627(7) -0.1519(6) -0.3525(5)
C3A C -0.0562(8) -0.2198(6) -0.4056(5)
C4A C -0.0291(9) -0.2357(6) -0.5224(6)
H1A H -0.1068 -0.2826 -0.5570
C5A C 0.1111(9) -0.1834(6) -0.5891(6)
H2A H 0.1254 -0.1931 -0.6682
C6A C 0.2278(9) -0.1175(7) -0.5379(6)
H3A H 0.3230 -0.0826 -0.5824
C7A C 0.2065(8) -0.1016(6) -0.4200(5)
H4A H 0.2884 -0.0572 -0.3859
U2_2 U -0.52795(3) 0.08200(2) 0.131940(19)
U2A_2 U 0.52795(3) -0.08200(2) -0.131940(19)
O5_2 O 0.8059(5) 0.1041(5) 0.1776(4)
O5A_2 O -0.8059(5) -0.1041(5) -0.1776(4)
O9_2 O -0.6873(6) 0.0071(4) -0.0030(4)
O9A_2 O 0.6873(6) -0.0071(4) 0.0030(4)
N1 N 0.6545(7) 0.5638(5) 0.2202(5)
C8 C 0.7899(9) 0.6556(7) 0.1873(6)
H5 H 0.7718 0.6904 0.1071
H6 H 0.9202 0.6115 0.1974
H7 H 0.7653 0.7242 0.2361
C9 C 0.6860(10) 0.4648(7) 0.1365(7)
H8 H 0.5988 0.4050 0.1554
H9 H 0.8164 0.4197 0.1417
H10 H 0.6632 0.5060 0.0585
C10 C 0.4508(8) 0.6322(7) 0.2113(7)
H11 H 0.3651 0.5725 0.2352
H12 H 0.4256 0.6679 0.1319
H13 H 0.4309 0.7000 0.2609
C11 C 0.6924(10) 0.5013(7) 0.3418(7)
H14 H 0.6529 0.5634 0.3960
H15 H 0.8276 0.4685 0.3498
H16 H 0.6209 0.4318 0.3577
loop_
_geom_bond_atom_site_label_1
_geom_bond_atom_site_label_2
_geom_bond_site_symmetry_1
_geom_bond_site_symmetry_2
U1 O1 1_555 1_555
U2 O2 1_555 1_555
S1 O6 1_555 1_555
O3 U2 1_555 1_555
O4 U1 1_555 1_555
O5 U1 1_555 1_555
O6 U2 1_555 1_555
O7 S1 1_555 1_555
O8 S1 1_555 1_555
O9 U1 1_555 1_555
C1 O4 1_555 1_555
C2 C1 1_555 1_555
C3 S1 1_555 1_555
C4 C3 1_555 1_555
H1 C4 1_555 1_555
C5 C4 1_555 1_555
H2 C5 1_555 1_555
C6 C5 1_555 1_555
H3 C6 1_555 1_555
C7 C2 1_555 1_555
H4 C7 1_555 1_555
N1 C8 1_555 1_555
C8 H5 1_555 1_555
H6 C8 1_555 1_555
H7 C8 1_555 1_555
C9 N1 1_555 1_555
H8 C9 1_555 1_555
H9 C9 1_555 1_555
H10 C9 1_555 1_555
C10 N1 1_555 1_555
H11 C10 1_555 1_555
H12 C10 1_555 1_555
H13 C10 1_555 1_555
C11 N1 1_555 1_555
H14 C11 1_555 1_555
H15 C11 1_555 1_555
H16 C11 1_555 1_555
U2A O2A 1_555 1_555
S1A O6A 1_555 1_555
O1A U1 1_555 1_555
O3A U2A 1_555 1_555
O4A U1 1_555 1_555
O5A U1 1_555 1_555
O6A U2A 1_555 1_555
O7A S1A 1_555 1_555
O8A S1A 1_555 1_555
O9A U1 1_555 1_555
C1A O4A 1_555 1_555
C2A C1A 1_555 1_555
C3A S1A 1_555 1_555
C4A C3A 1_555 1_555
H1A C4A 1_555 1_555
C5A C4A 1_555 1_555
H2A C5A 1_555 1_555
C6A C5A 1_555 1_555
H3A C6A 1_555 1_555
C7A C2A 1_555 1_555
H4A C7A 1_555 1_555
U2_2 O5 1_555 1_555
U2A_2 O9 1_555 1_555
O5_2 U2 1_555 1_555
O5A_2 U2A 1_555 1_555
O9_2 U2A 1_555 1_555
O9A_2 U2 1_555 1_555
U2 O4 1_555 1_555
U2 O9 1_555 1_555
O5 C1 1_555 1_555
C2 C3 1_555 1_555
C6 C7 1_555 1_555
U2A O4A 1_555 1_555
U2A O9A 1_555 1_555
O5A C1A 1_555 1_555
O5A U2A_2 1_555 1_555
O9A U2_2 1_555 1_555
C2A C3A 1_555 1_555
C6A C7A 1_555 1_555
U2_2 O9_2 1_555 1_555
U2A_2 O9A_2 1_555 1_555

#END
