
#######################################################################
#
#                 Cambridge Crystallographic Data Centre
#                                CCDC 
#
#######################################################################
#
# If this CIF has been generated from an entry in the Cambridge 
# Structural Database, then it will include bibliographic, chemical, 
# crystal, experimental, refinement or atomic coordinate data resulting 
# from the CCDC's data processing and validation procedures.
#
#######################################################################

data_CEMQES
_symmetry_cell_setting           monoclinic
_symmetry_space_group_name_H-M   'P 21/n'
_symmetry_Int_Tables_number      14
_space_group_name_Hall           '-P 2yn'
loop_
_symmetry_equiv_pos_site_id
_symmetry_equiv_pos_as_xyz
1 x,y,z
2 1/2-x,1/2+y,1/2-z
3 -x,-y,-z
4 1/2+x,1/2-y,1/2+z
_cell_length_a                   10.743(4)
_cell_length_b                   32.178(2)
_cell_length_c                   14.3508(10)
_cell_angle_alpha                90
_cell_angle_beta                 100.324(4)
_cell_angle_gamma                90
_cell_volume                     4880.59
loop_
_atom_site_label
_atom_site_type_symbol
_atom_site_fract_x
_atom_site_fract_y
_atom_site_fract_z
U1 U 0.60243(4) 0.386787(16) 0.26569(4)
U2 U 0.12469(4) 0.406677(16) 0.04868(4)
S1 S 0.4528(3) 0.38704(11) 0.4752(3)
S2 S 0.9257(3) 0.38869(11) 0.3953(3)
S3 S 0.2781(3) 0.39005(11) -0.1535(3)
O1 O 0.5863(7) 0.3341(3) 0.2545(6)
O2 O 0.6207(8) 0.4396(3) 0.2776(7)
O3 O 0.1601(9) 0.3541(3) 0.0637(8)
O4 O 0.0971(8) 0.4595(3) 0.0375(6)
O5 O 0.3844(8) 0.3930(3) 0.2594(6)
O6 O 0.2008(8) 0.4179(3) 0.2083(6)
O7 O 0.5599(8) 0.3857(3) 0.4239(7)
O8 O 0.3607(9) 0.3551(3) 0.4462(7)
O9 O 0.5029(9) 0.3888(3) 0.5764(7)
O10 O 0.7799(8) 0.3806(3) 0.1843(7)
O11 O 0.9444(8) 0.3941(3) 0.1171(7)
O12 O 0.7910(8) 0.3737(3) 0.3768(7)
O13 O 1.0071(8) 0.3606(3) 0.3531(7)
O14 O 0.9690(9) 0.3954(3) 0.4956(8)
O15 O 0.5376(8) 0.3970(3) 0.0982(7)
O16 O 0.3421(8) 0.4198(3) 0.0614(7)
O17 O 0.1770(8) 0.4049(3) -0.1061(7)
O18 O 0.3343(7) 0.3520(3) -0.1137(7)
O19 O 0.2320(9) 0.3868(3) -0.2551(7)
O20 O -0.0606(8) 0.3910(3) -0.0723(7)
H1 H -0.1285 0.3787 -0.0628
H2 H -0.0603 0.3918 -0.1362
C1 C 0.2966(11) 0.4168(4) 0.2726(10)
C2 C 0.3059(11) 0.4448(4) 0.3566(10)
C3 C 0.3776(11) 0.4373(4) 0.4472(10)
C4 C 0.3852(13) 0.4652(4) 0.5187(11)
H3 H 0.4303 0.4589 0.5786
C5 C 0.3261(13) 0.5029(5) 0.5022(13)
H4 H 0.3339 0.5228 0.5500
C6 C 0.2560(13) 0.5111(5) 0.4156(13)
H5 H 0.2142 0.5365 0.4059
C7 C 0.2442(12) 0.4826(4) 0.3403(11)
H6 H 0.1965 0.4890 0.2814
C8 C 0.8759(11) 0.4019(3) 0.1759(9)
C9 C 0.9032(11) 0.4404(3) 0.2360(10)
C10 C 0.9200(11) 0.4371(4) 0.3376(11)
C11 C 0.9302(11) 0.4731(4) 0.3912(11)
H7 H 0.9398 0.4716 0.4568
C12 C 0.9258(12) 0.5124(4) 0.3452(12)
H8 H 0.9274 0.5368 0.3802
C13 C 0.9190(11) 0.5142(4) 0.2463(11)
H9 H 0.9217 0.5395 0.2155
C14 C 0.9088(11) 0.4785(5) 0.1980(11)
H10 H 0.9052 0.4801 0.1329
C15 C 0.4495(12) 0.4145(4) 0.0442(10)
C16 C 0.4791(12) 0.4328(4) -0.0456(11)
C17 C 0.4021(12) 0.4287(4) -0.1334(10)
C18 C 0.4305(14) 0.4508(5) -0.2111(11)
H11 H 0.3795 0.4479 -0.2703
C19 C 0.5282(14) 0.4757(5) -0.2006(12)
H12 H 0.5409 0.4921 -0.2514
C20 C 0.6127(14) 0.4782(4) -0.1170(13)
H13 H 0.6876 0.4932 -0.1129
C21 C 0.5831(13) 0.4580(4) -0.0395(13)
H14 H 0.6353 0.4616 0.0190
U2_2 U 1.12469(4) 0.406677(16) 0.04868(4)
O11_2 O -0.0556(8) 0.3941(3) 0.1171(7)
O21 O -0.2784(9) 0.3595(4) -0.0342(7)
O22 O -0.0383(10) 0.3742(3) -0.2526(7)
O23 O 0.7715(9) 0.3725(3) 0.5997(7)
H15 H 0.6855 0.3712 0.5814
H16 H 0.7885 0.3970 0.5788
O24 O 0.5537(13) 0.3566(4) 0.7767(10)
N1 N 0.1527(10) 0.2512(4) -0.1193(9)
H17 H 0.1979 0.2519 -0.1630
N2 N -0.2013(9) 0.2489(3) 0.2444(8)
C22 C 0.1593(14) 0.2182(4) -0.0624(12)
H18 H 0.2111 0.1959 -0.0709
C23 C 0.0898(12) 0.2174(4) 0.0080(10)
H19 H 0.0967 0.1946 0.0486
C24 C 0.0090(11) 0.2496(4) 0.0210(9)
C25 C 0.0050(14) 0.2840(4) -0.0412(10)
H20 H -0.0463 0.3068 -0.0353
C26 C 0.0782(13) 0.2830(4) -0.1100(11)
H21 H 0.0754 0.3054 -0.1514
C27 C -0.0671(12) 0.2495(4) 0.0996(9)
C28 C -0.0825(12) 0.2856(4) 0.1468(10)
H22 H -0.0485 0.3106 0.1305
C29 C -0.1528(13) 0.2834(4) 0.2221(11)
H23 H -0.1640 0.3073 0.2559
C30 C -0.1853(12) 0.2135(4) 0.1983(11)
H24 H -0.2185 0.1888 0.2168
C31 C -0.1204(12) 0.2135(4) 0.1241(10)
H25 H -0.1128 0.1891 0.0908
N3 N 1.0372(10) 0.2593(4) 0.4813(9)
H26 H 1.0820 0.2620 0.4377
N4 N 0.6762(10) 0.2343(4) 0.8379(8)
C32 C 1.0285(12) 0.2907(4) 0.5400(11)
H27 H 1.0677 0.3159 0.5318
C33 C 0.9615(13) 0.2862(4) 0.6131(10)
H28 H 0.9574 0.3079 0.6553
C34 C 0.8999(12) 0.2485(4) 0.6228(10)
C35 C 0.9070(13) 0.2174(4) 0.5593(10)
H29 H 0.8655 0.1922 0.5626
C36 C 0.9795(12) 0.2249(4) 0.4891(11)
H30 H 0.9861 0.2039 0.4458
C37 C 0.8190(10) 0.2436(4) 0.6983(9)
C38 C 0.7693(12) 0.2774(4) 0.7357(11)
H31 H 0.7832 0.3036 0.7123
C39 C 0.6978(15) 0.2741(5) 0.8083(12)
H32 H 0.6668 0.2974 0.8349
C40 C 0.7195(12) 0.2010(4) 0.8001(11)
H33 H 0.6988 0.1747 0.8193
C41 C 0.7948(12) 0.2050(4) 0.7328(11)
H34 H 0.8298 0.1814 0.7103
loop_
_geom_bond_atom_site_label_1
_geom_bond_atom_site_label_2
_geom_bond_site_symmetry_1
_geom_bond_site_symmetry_2
U1 O1 1_555 1_555
U2 O3 1_555 1_555
S1 O7 1_555 1_555
S2 O12 1_555 1_555
S3 O17 1_555 1_555
O2 U1 1_555 1_555
O4 U2 1_555 1_555
O5 U1 1_555 1_555
O6 U2 1_555 1_555
O7 U1 1_555 1_555
O8 S1 1_555 1_555
O9 S1 1_555 1_555
O10 U1 1_555 1_555
O11 C8 1_555 1_555
O12 U1 1_555 1_555
O13 S2 1_555 1_555
O14 S2 1_555 1_555
O15 U1 1_555 1_555
O16 U2 1_555 1_555
O17 U2 1_555 1_555
O18 S3 1_555 1_555
O19 S3 1_555 1_555
O20 U2 1_555 1_555
H1 O20 1_555 1_555
H2 O20 1_555 1_555
C1 O5 1_555 1_555
C2 C1 1_555 1_555
C3 S1 1_555 1_555
C4 C3 1_555 1_555
H3 C4 1_555 1_555
C5 C4 1_555 1_555
H4 C5 1_555 1_555
C6 C5 1_555 1_555
H5 C6 1_555 1_555
C7 C2 1_555 1_555
H6 C7 1_555 1_555
C8 O10 1_555 1_555
C9 C8 1_555 1_555
C10 S2 1_555 1_555
C11 C10 1_555 1_555
H7 C11 1_555 1_555
C12 C11 1_555 1_555
H8 C12 1_555 1_555
C13 C12 1_555 1_555
H9 C13 1_555 1_555
C14 C9 1_555 1_555
H10 C14 1_555 1_555
C15 O15 1_555 1_555
C16 C15 1_555 1_555
C17 S3 1_555 1_555
C18 C17 1_555 1_555
H11 C18 1_555 1_555
C19 C18 1_555 1_555
H12 C19 1_555 1_555
C20 C19 1_555 1_555
H13 C20 1_555 1_555
C21 C16 1_555 1_555
H14 C21 1_555 1_555
O23 H15 1_555 1_555
H16 O23 1_555 1_555
N1 H17 1_555 1_555
N2 C29 1_555 1_555
C22 N1 1_555 1_555
H18 C22 1_555 1_555
C23 C22 1_555 1_555
H19 C23 1_555 1_555
C24 C23 1_555 1_555
C25 C24 1_555 1_555
H20 C25 1_555 1_555
C26 N1 1_555 1_555
H21 C26 1_555 1_555
C27 C24 1_555 1_555
C28 C27 1_555 1_555
H22 C28 1_555 1_555
C29 C28 1_555 1_555
H23 C29 1_555 1_555
C30 N2 1_555 1_555
H24 C30 1_555 1_555
C31 C27 1_555 1_555
H25 C31 1_555 1_555
N3 H26 1_555 1_555
N4 C39 1_555 1_555
C32 N3 1_555 1_555
H27 C32 1_555 1_555
C33 C32 1_555 1_555
H28 C33 1_555 1_555
C34 C33 1_555 1_555
C35 C34 1_555 1_555
H29 C35 1_555 1_555
C36 N3 1_555 1_555
H30 C36 1_555 1_555
C37 C34 1_555 1_555
C38 C37 1_555 1_555
H31 C38 1_555 1_555
C39 C38 1_555 1_555
H32 C39 1_555 1_555
C40 N4 1_555 1_555
H33 C40 1_555 1_555
C41 C37 1_555 1_555
H34 C41 1_555 1_555
U2_2 O11 1_555 1_555
O11_2 U2 1_555 1_555
O6 C1 1_555 1_555
O16 C15 1_555 1_555
C2 C3 1_555 1_555
C6 C7 1_555 1_555
C9 C10 1_555 1_555
C13 C14 1_555 1_555
C16 C17 1_555 1_555
C20 C21 1_555 1_555
C25 C26 1_555 1_555
C30 C31 1_555 1_555
C35 C36 1_555 1_555
C40 C41 1_555 1_555

#END
