
#######################################################################
#
#                 Cambridge Crystallographic Data Centre
#                                CCDC 
#
#######################################################################
#
# If this CIF has been generated from an entry in the Cambridge 
# Structural Database, then it will include bibliographic, chemical, 
# crystal, experimental, refinement or atomic coordinate data resulting 
# from the CCDC's data processing and validation procedures.
#
#######################################################################

data_CEMQUI
_symmetry_cell_setting           monoclinic
_symmetry_space_group_name_H-M   'P 21/c'
_symmetry_Int_Tables_number      14
_space_group_name_Hall           '-P 2ybc'
loop_
_symmetry_equiv_pos_site_id
_symmetry_equiv_pos_as_xyz
1 x,y,z
2 -x,1/2+y,1/2-z
3 -x,-y,-z
4 x,1/2-y,1/2+z
_cell_length_a                   7.8894(4)
_cell_length_b                   12.0629(4)
_cell_length_c                   13.3182(7)
_cell_angle_alpha                90
_cell_angle_beta                 94.573(3)
_cell_angle_gamma                90
_cell_volume                     1263.45
loop_
_atom_site_label
_atom_site_type_symbol
_atom_site_fract_x
_atom_site_fract_y
_atom_site_fract_z
U1 U 0.993201(16) 0.289172(15) 0.600803(10)
S1 S 0.87780(11) 0.17126(11) 0.35149(7)
O1 O 0.7732(3) 0.3136(3) 0.59546(18)
O2 O 1.2122(3) 0.2591(3) 0.60801(19)
O3 O 1.0137(3) 0.3914(3) 0.45135(19)
O4 O 0.9318(3) 0.5291(3) 0.3480(2)
O5 O 0.9583(3) 0.1675(3) 0.45518(18)
O6 O 1.0000(3) 0.2132(3) 0.28313(18)
O7 O 0.8067(3) 0.0658(3) 0.3204(2)
O8 O 0.9391(3) 0.1050(3) 0.65370(18)
H1 H 0.9792 0.0453 0.6733
H2 H 0.8495 0.0840 0.6268
C1 C 0.9061(5) 0.4383(4) 0.3885(3)
C2 C 0.7356(5) 0.3838(4) 0.3639(3)
C3 C 0.7090(4) 0.2699(4) 0.3494(3)
C4 C 0.5452(5) 0.2287(5) 0.3332(3)
H3 H 0.5285 0.1533 0.3213
C5 C 0.4054(5) 0.2988(5) 0.3347(3)
H4 H 0.2956 0.2704 0.3255
C6 C 0.4315(5) 0.4120(5) 0.3502(3)
H5 H 0.3391 0.4595 0.3527
C7 C 0.5944(5) 0.4531(5) 0.3618(3)
H6 H 0.6106 0.5292 0.3684
U1B U 1.006799(16) 0.710828(15) 0.399197(10)
U1C U 0.993201(16) 0.210828(15) 0.100803(10)
O4B O 1.0682(3) 0.4709(3) 0.6520(2)
O6C O 1.0000(3) 0.2868(3) 0.78313(18)
N1 N 0.6422(4) 0.4697(4) 0.0627(3)
C8 C 0.4970(5) 0.4145(4) 0.0621(3)
H7 H 0.4901 0.3537 0.1046
C9 C 0.6446(5) 0.5555(5) -0.0005(3)
H8 H 0.7443 0.5962 -0.0030
N1B N 0.3578(4) 0.5303(4) -0.0627(3)
C8B C 0.5030(5) 0.5855(4) -0.0621(3)
H7B H 0.5099 0.6463 -0.1046
C9B C 0.3554(5) 0.4445(5) 0.0005(3)
H8B H 0.2557 0.4038 0.0030
loop_
_geom_bond_atom_site_label_1
_geom_bond_atom_site_label_2
_geom_bond_site_symmetry_1
_geom_bond_site_symmetry_2
U1 O1 1_555 1_555
S1 O5 1_555 1_555
O2 U1 1_555 1_555
O3 U1 1_555 1_555
O4 C1 1_555 1_555
O5 U1 1_555 1_555
O6 S1 1_555 1_555
O7 S1 1_555 1_555
O8 U1 1_555 1_555
H1 O8 1_555 1_555
H2 O8 1_555 1_555
C1 O3 1_555 1_555
C2 C1 1_555 1_555
C3 S1 1_555 1_555
C4 C3 1_555 1_555
H3 C4 1_555 1_555
C5 C4 1_555 1_555
H4 C5 1_555 1_555
C6 C5 1_555 1_555
H5 C6 1_555 1_555
C7 C2 1_555 1_555
H6 C7 1_555 1_555
N1 C8 1_555 1_555
C8 H7 1_555 1_555
C9 N1 1_555 1_555
H8 C9 1_555 1_555
U1B O4 1_555 1_555
U1C O6 1_555 1_555
O4B U1 1_555 1_555
O6C U1 1_555 1_555
N1B C8B 1_555 1_555
C8B C9 1_555 1_555
H7B C8B 1_555 1_555
C9B C8 1_555 1_555
H8B C9B 1_555 1_555
C2 C3 1_555 1_555
C6 C7 1_555 1_555
N1B C9B 1_555 1_555

#END
