
#######################################################################
#
#                 Cambridge Crystallographic Data Centre
#                                CCDC 
#
#######################################################################
#
# If this CIF has been generated from an entry in the Cambridge 
# Structural Database, then it will include bibliographic, chemical, 
# crystal, experimental, refinement or atomic coordinate data resulting 
# from the CCDC's data processing and validation procedures.
#
#######################################################################

data_CEMTIY
_symmetry_cell_setting           triclinic
_symmetry_space_group_name_H-M   'P -1'
_symmetry_Int_Tables_number      2
_space_group_name_Hall           '-P 1'
loop_
_symmetry_equiv_pos_site_id
_symmetry_equiv_pos_as_xyz
1 x,y,z
2 -x,-y,-z
_cell_length_a                   11.6444(14)
_cell_length_b                   12.9349(17)
_cell_length_c                   15.5919(16)
_cell_angle_alpha                68.512(6)
_cell_angle_beta                 76.221(7)
_cell_angle_gamma                73.795(6)
_cell_volume                     2073.96
loop_
_atom_site_label
_atom_site_type_symbol
_atom_site_fract_x
_atom_site_fract_y
_atom_site_fract_z
Ag1 Ag 0.02490(6) 0.61793(5) 0.48850(4)
Ag2 Ag -0.02492(6) 0.88749(5) 0.50773(4)
N1 N 0.1782(6) 0.5603(5) 0.5591(4)
C1 C 0.1684(7) 0.5176(6) 0.6530(5)
H1 H 0.0943 0.4975 0.6873
C2 C 0.2595(7) 0.5014(6) 0.7021(5)
H2 H 0.2473 0.4717 0.7683
C3 C 0.3688(7) 0.5290(6) 0.6539(5)
C4 C 0.3801(7) 0.5749(6) 0.5557(5)
H3 H 0.4527 0.5970 0.5199
C5 C 0.2853(7) 0.5870(6) 0.5132(5)
H4 H 0.2953 0.6160 0.4470
N2 N 0.4639(6) 0.5172(5) 0.6995(4)
C6 C 0.5325(8) 0.6082(7) 0.6663(6)
H5 H 0.5954 0.5880 0.7051
H6 H 0.4775 0.6796 0.6703
H7 H 0.5701 0.6176 0.6013
C7 C 0.4881(8) 0.4334(7) 0.7812(6)
O1 O 0.5423(6) 0.4427(5) 0.8347(4)
C8 C 0.4601(7) 0.3209(7) 0.8003(5)
S1 S 0.46605(19) 0.26470(17) 0.71382(13)
C9 C 0.4514(7) 0.1344(6) 0.7943(5)
C10 C 0.4401(7) 0.1343(7) 0.8839(5)
H8 H 0.4289 0.0710 0.9381
C11 C 0.4472(7) 0.2391(7) 0.8848(5)
H9 H 0.4432 0.2530 0.9412
C12 C 0.4702(8) 0.0296(7) 0.7674(6)
O2 O 0.5338(7) -0.0587(5) 0.8082(5)
N3 N 0.4241(6) 0.0414(5) 0.6901(4)
C13 C 0.4719(8) -0.0483(7) 0.6454(6)
H10 H 0.5382 -0.1040 0.6763
H11 H 0.5019 -0.0141 0.5794
H12 H 0.4072 -0.0864 0.6510
C14 C 0.3279(7) 0.1295(6) 0.6538(5)
C15 C 0.2214(7) 0.1607(6) 0.7108(5)
H13 H 0.2146 0.1280 0.7767
C16 C 0.1276(7) 0.2385(6) 0.6707(5)
H14 H 0.0550 0.2578 0.7102
N4 N 0.1321(5) 0.2897(5) 0.5781(4)
C17 C 0.2347(7) 0.2613(7) 0.5238(5)
H15 H 0.2402 0.2969 0.4582
C18 C 0.3336(7) 0.1817(6) 0.5596(5)
H16 H 0.4051 0.1635 0.5188
N5 N -0.0918(6) 0.8014(5) 0.6503(4)
C19 C -0.0146(7) 0.7352(6) 0.7107(5)
H17 H 0.0692 0.7354 0.6914
C20 C -0.0515(7) 0.6668(6) 0.7996(5)
H18 H 0.0062 0.6212 0.8399
C21 C -0.1720(7) 0.6657(6) 0.8289(5)
C22 C -0.2530(7) 0.7349(6) 0.7684(5)
H19 H -0.3374 0.7380 0.7869
C23 C -0.2081(7) 0.8000(6) 0.6801(5)
H20 H -0.2641 0.8463 0.6386
N6 N -0.2136(6) 0.5961(5) 0.9199(4)
C24 C -0.2834(7) 0.5126(7) 0.9271(5)
H21 H -0.3059 0.4706 0.9930
H22 H -0.2337 0.4594 0.8946
H23 H -0.3568 0.5527 0.8986
C25 C -0.1752(7) 0.5876(6) 0.9980(5)
O3 O -0.1789(5) 0.5033(4) 1.0681(3)
C26 C -0.1372(7) 0.6858(6) 1.0020(5)
S2 S -0.18981(18) 0.82420(16) 0.93802(12)
C27 C -0.1253(7) 0.8745(6) 0.9987(4)
C28 C -0.0641(7) 0.7874(6) 1.0645(4)
H24 H -0.0222 0.7985 1.1047
C29 C -0.0705(7) 0.6799(7) 1.0658(5)
H25 H -0.0324 0.6104 1.1066
C30 C -0.1522(6) 0.9963(6) 0.9923(5)
O4 O -0.1598(5) 1.0213(4) 1.0622(3)
N7 N -0.1803(6) 1.0795(5) 0.9105(4)
C31 C -0.2418(7) 1.1950(6) 0.9152(5)
H26 H -0.2654 1.1920 0.9806
H27 H -0.3140 1.2222 0.8847
H28 H -0.1864 1.2471 0.8834
C32 C -0.1395(7) 1.0676(6) 0.8192(5)
C33 C -0.0243(7) 1.0124(6) 0.7940(4)
H29 H 0.0292 0.9741 0.8389
C34 C 0.0127(7) 1.0129(6) 0.7046(5)
H30 H 0.0919 0.9720 0.6893
N8 N -0.0552(6) 1.0671(5) 0.6363(4)
C35 C -0.1701(8) 1.1197(7) 0.6620(5)
H31 H -0.2223 1.1579 0.6163
C36 C -0.2129(7) 1.1190(6) 0.7523(5)
H32 H -0.2944 1.1547 0.7682
N9 N 0.2729(6) 0.8928(6) 0.5233(4)
O5 O 0.1939(5) 0.8345(5) 0.5590(4)
O6 O 0.3756(5) 0.8478(5) 0.4918(4)
O7 O 0.2479(5) 0.9950(5) 0.5177(4)
N10 N -0.1335(6) 0.4417(6) 0.7017(4)
O8 O -0.1765(6) 0.3784(5) 0.6806(4)
O9 O -0.1344(5) 0.5416(5) 0.6492(4)
O10 O -0.0874(5) 0.4057(5) 0.7744(3)
Ag1A Ag -0.02490(6) 0.38207(5) 0.51150(4)
Ag2A Ag 0.02492(6) 1.11251(5) 0.49227(4)
N4A N -0.1321(5) 0.7103(5) 0.4219(4)
N8A N 0.0552(6) 0.9329(5) 0.3637(4)
O7A O -0.2479(5) 1.0050(5) 0.4823(4)
C37 C 0.2649(8) 0.7416(8) 0.8704(6)
H33 H 0.2233 0.6794 0.9108
H34 H 0.2226 0.8108 0.8875
Cl1 Cl 0.2558(2) 0.7663(2) 0.75634(16)
Cl2 Cl 0.4197(3) 0.7037(3) 0.89152(18)
loop_
_geom_bond_atom_site_label_1
_geom_bond_atom_site_label_2
_geom_bond_site_symmetry_1
_geom_bond_site_symmetry_2
Ag1 Ag2 1_555 1_555
Ag2 N5 1_555 1_555
N1 Ag1 1_555 1_555
C1 N1 1_555 1_555
H1 C1 1_555 1_555
C2 C1 1_555 1_555
H2 C2 1_555 1_555
C3 C2 1_555 1_555
C4 C3 1_555 1_555
H3 C4 1_555 1_555
C5 N1 1_555 1_555
H4 C5 1_555 1_555
N2 C3 1_555 1_555
C6 N2 1_555 1_555
H5 C6 1_555 1_555
H6 C6 1_555 1_555
H7 C6 1_555 1_555
C7 N2 1_555 1_555
O1 C7 1_555 1_555
C8 C7 1_555 1_555
S1 C8 1_555 1_555
C9 S1 1_555 1_555
C10 C9 1_555 1_555
H8 C10 1_555 1_555
C11 C8 1_555 1_555
H9 C11 1_555 1_555
C12 C9 1_555 1_555
O2 C12 1_555 1_555
N3 C12 1_555 1_555
C13 N3 1_555 1_555
H10 C13 1_555 1_555
H11 C13 1_555 1_555
H12 C13 1_555 1_555
C14 N3 1_555 1_555
C15 C14 1_555 1_555
H13 C15 1_555 1_555
C16 C15 1_555 1_555
H14 C16 1_555 1_555
N4 C16 1_555 1_555
C17 N4 1_555 1_555
H15 C17 1_555 1_555
C18 C14 1_555 1_555
H16 C18 1_555 1_555
N5 C19 1_555 1_555
C19 H17 1_555 1_555
C20 C19 1_555 1_555
H18 C20 1_555 1_555
C21 C20 1_555 1_555
C22 C21 1_555 1_555
H19 C22 1_555 1_555
C23 N5 1_555 1_555
H20 C23 1_555 1_555
N6 C21 1_555 1_555
C24 N6 1_555 1_555
H21 C24 1_555 1_555
H22 C24 1_555 1_555
H23 C24 1_555 1_555
C25 N6 1_555 1_555
O3 C25 1_555 1_555
C26 C25 1_555 1_555
S2 C26 1_555 1_555
C27 S2 1_555 1_555
C28 C27 1_555 1_555
H24 C28 1_555 1_555
C29 C26 1_555 1_555
H25 C29 1_555 1_555
C30 C27 1_555 1_555
O4 C30 1_555 1_555
N7 C30 1_555 1_555
C31 N7 1_555 1_555
H26 C31 1_555 1_555
H27 C31 1_555 1_555
H28 C31 1_555 1_555
C32 N7 1_555 1_555
C33 C32 1_555 1_555
H29 C33 1_555 1_555
C34 C33 1_555 1_555
H30 C34 1_555 1_555
N8 C34 1_555 1_555
C35 N8 1_555 1_555
H31 C35 1_555 1_555
C36 C32 1_555 1_555
H32 C36 1_555 1_555
N9 O5 1_555 1_555
O5 Ag2 1_555 1_555
O6 N9 1_555 1_555
O7 N9 1_555 1_555
N10 O8 1_555 1_555
O9 Ag1 1_555 1_555
O10 N10 1_555 1_555
C37 H33 1_555 1_555
H34 C37 1_555 1_555
Cl1 C37 1_555 1_555
Cl2 C37 1_555 1_555
Ag1A Ag1 1_555 1_555
Ag2A Ag2 1_555 1_555
N4A Ag1 1_555 1_555
N8A Ag2 1_555 1_555
O7A Ag2 1_555 1_555
C4 C5 1_555 1_555
C10 C11 1_555 1_555
N4 Ag1A 1_555 1_555
C17 C18 1_555 1_555
C22 C23 1_555 1_555
C28 C29 1_555 1_555
N8 Ag2A 1_555 1_555
C35 C36 1_555 1_555
O7 Ag2A 1_555 1_555
N10 O9 1_555 1_555

#END
