
#######################################################################
#
#                 Cambridge Crystallographic Data Centre
#                                CCDC 
#
#######################################################################
#
# If this CIF has been generated from an entry in the Cambridge 
# Structural Database, then it will include bibliographic, chemical, 
# crystal, experimental, refinement or atomic coordinate data resulting 
# from the CCDC's data processing and validation procedures.
#
#######################################################################

data_CEMTOE
_symmetry_cell_setting           triclinic
_symmetry_space_group_name_H-M   'P -1'
_symmetry_Int_Tables_number      2
_space_group_name_Hall           '-P 1'
loop_
_symmetry_equiv_pos_site_id
_symmetry_equiv_pos_as_xyz
1 x,y,z
2 -x,-y,-z
_cell_length_a                   13.4354(5)
_cell_length_b                   13.9401(7)
_cell_length_c                   16.2085(9)
_cell_angle_alpha                108.136(2)
_cell_angle_beta                 97.541(3)
_cell_angle_gamma                117.121(2)
_cell_volume                     2430.12
loop_
_atom_site_label
_atom_site_type_symbol
_atom_site_fract_x
_atom_site_fract_y
_atom_site_fract_z
Ag1 Ag 0.10120(6) 0.12924(6) -0.50275(4)
Ag2 Ag 0.37618(6) 0.39020(7) -0.48301(5)
N1 N 0.1683(6) 0.2501(6) -0.3597(4)
C1 C 0.1429(7) 0.3324(7) -0.3307(6)
H1 H 0.0843 0.3298 -0.3728
C2 C 0.1957(7) 0.4232(7) -0.2429(6)
H2 H 0.1737 0.4805 -0.2251
C3 C 0.2817(6) 0.4268(7) -0.1823(5)
C4 C 0.3085(6) 0.3401(7) -0.2107(5)
H3 H 0.3662 0.3402 -0.1699
C5 C 0.2505(7) 0.2531(7) -0.2994(5)
H4 H 0.2690 0.1933 -0.3188
N2 N 0.3428(6) 0.5213(6) -0.0927(4)
C6 C 0.3922(7) 0.6450(7) -0.0836(6)
H5 H 0.4315 0.7004 -0.0186
H6 H 0.3282 0.6535 -0.1095
H7 H 0.4496 0.6626 -0.1167
C7 C 0.3716(7) 0.5071(7) -0.0143(5)
O1 O 0.4501(5) 0.5901(5) 0.0549(4)
C8 C 0.2965(7) 0.3913(7) -0.0100(5)
S1 S 0.14854(17) 0.29526(18) -0.07305(13)
C9 C 0.1284(7) 0.2179(7) -0.0061(5)
C10 C 0.2334(7) 0.2635(7) 0.0580(5)
H8 H 0.2416 0.2310 0.1001
C11 C 0.3271(7) 0.3614(7) 0.0561(6)
H9 H 0.4051 0.4033 0.0974
C12 C 0.0119(7) 0.1317(7) -0.0081(5)
O2 O 0.0002(6) 0.1225(5) 0.0641(4)
N3 N -0.0844(6) 0.0766(6) -0.0850(5)
C13 C -0.2023(8) 0.0315(9) -0.0750(7)
H10 H -0.1946 0.0610 -0.0098
H11 H -0.2466 -0.0556 -0.1027
H12 H -0.2445 0.0589 -0.1060
C14 C -0.0767(7) 0.0444(7) -0.1741(5)
C15 C -0.1460(7) 0.0487(8) -0.2437(6)
H13 H -0.1948 0.0799 -0.2309
C16 C -0.1415(8) 0.0068(9) -0.3308(6)
H14 H -0.1893 0.0089 -0.3781
N4 N -0.0745(6) -0.0364(6) -0.3528(4)
C17 C -0.0069(7) -0.0388(7) -0.2871(5)
H15 H 0.0419 -0.0693 -0.3023
C18 C -0.0053(7) 0.0009(7) -0.1988(5)
H16 H 0.0453 -0.0012 -0.1534
N5 N 0.2417(6) 0.3937(6) -0.5691(5)
C19 C 0.1879(8) 0.4462(8) -0.5303(7)
H17 H 0.2179 0.4908 -0.4656
C20 C 0.0917(8) 0.4392(8) -0.5786(6)
H18 H 0.0579 0.4805 -0.5480
C21 C 0.0447(7) 0.3727(7) -0.6707(6)
C22 C 0.1011(7) 0.3200(7) -0.7134(6)
H19 H 0.0728 0.2761 -0.7781
C23 C 0.1981(7) 0.3323(8) -0.6609(6)
H20 H 0.2363 0.2959 -0.6905
N6 N -0.0612(6) 0.3566(7) -0.7210(5)
C24 C -0.1631(8) 0.3123(10) -0.6858(8)
H21 H -0.2314 0.3037 -0.7251
H22 H -0.1416 0.3691 -0.6230
H23 H -0.1831 0.2350 -0.6864
C25 C -0.0845(7) 0.3528(8) -0.8077(7)
O3 O -0.1845(5) 0.3041(6) -0.8569(5)
C26 C 0.0151(7) 0.4247(7) -0.8343(6)
S2 S 0.13932(19) 0.55784(19) -0.75703(15)
C27 C 0.1834(7) 0.5915(7) -0.8446(6)
C28 C 0.1066(8) 0.5036(8) -0.9277(6)
H24 H 0.1161 0.5062 -0.9842
C29 C 0.0119(8) 0.4088(8) -0.9216(6)
H25 H -0.0488 0.3397 -0.9738
C30 C 0.2790(8) 0.7098(9) -0.8305(7)
O4 O 0.2629(7) 0.7534(7) -0.8817(6)
N7 N 0.3795(7) 0.7779(7) -0.7531(6)
C31 C 0.4478(9) 0.9046(10) -0.7283(11)
H26 H 0.4066 0.9240 -0.7687
H27 H 0.5258 0.9270 -0.7349
H28 H 0.4570 0.9482 -0.6645
C32 C 0.4222(7) 0.7308(7) -0.7030(6)
C33 C 0.4876(8) 0.8000(9) -0.6113(7)
H29 H 0.4992 0.8766 -0.5823
C34 C 0.5362(8) 0.7588(10) -0.5616(7)
H30 H 0.5795 0.8073 -0.4982
N8 N 0.5243(6) 0.6532(7) -0.5996(5)
C35 C 0.4631(8) 0.5867(9) -0.6885(6)
H31 H 0.4542 0.5111 -0.7162
C36 C 0.4122(7) 0.6225(8) -0.7421(6)
H32 H 0.3705 0.5728 -0.8055
O5 O 0.4769(8) 0.3692(8) -0.6082(6)
O6 O 0.6168(6) 0.4142(6) -0.6891(5)
O7 O 0.4082(7) 0.2857(7) -0.7711(5)
S3 S 0.5008(2) 0.3305(2) -0.69114(16)
C37 C 0.5114(9) 0.2084(10) -0.6935(10)
F1 F 0.4132(6) 0.1273(7) -0.6867(7)
F2 F 0.5996(6) 0.2357(8) -0.6272(7)
F3 F 0.5275(7) 0.1569(6) -0.7683(7)
O8 O 0.1816(9) -0.0075(7) -0.4661(5)
O9 O 0.0622(6) -0.1941(7) -0.4609(5)
O10 O 0.2595(6) -0.0600(6) -0.3577(4)
S4 S 0.1780(2) -0.0990(2) -0.44415(15)
C38 C 0.2301(11) -0.1682(10) -0.5264(9)
F4 F 0.1617(9) -0.2059(7) -0.6136(5)
F5 F 0.2255(7) -0.2613(7) -0.5214(5)
F6 F 0.3362(9) -0.0929(8) -0.5211(8)
Ag1A Ag -0.10120(6) -0.12924(6) -0.49725(4)
Ag2A Ag 0.62382(6) 0.60980(7) -0.51699(5)
N4A N 0.0745(6) 0.0364(6) -0.6472(4)
N8A N 0.4757(6) 0.3468(7) -0.4004(5)
O5A O 0.5231(8) 0.6308(8) -0.3918(6)
O9A O -0.0622(6) 0.1941(7) -0.5391(5)
C39 C -0.3884(10) -0.0077(11) -0.9236(10)
H33 H -0.3582 0.0727 -0.9198
H34 H -0.4561 -0.0310 -0.9009
H35 H -0.4133 -0.0633 -0.9875
C40 C -0.2913(11) -0.0100(13) -0.8650(8)
C41 C -0.3191(9) -0.1198(8) -0.8607(8)
H36 H -0.2505 -0.1082 -0.8193
H37 H -0.3397 -0.1793 -0.9221
H38 H -0.3862 -0.1472 -0.8377
O11 O -0.1875(8) 0.0733(8) -0.8342(7)
loop_
_geom_bond_atom_site_label_1
_geom_bond_atom_site_label_2
_geom_bond_site_symmetry_1
_geom_bond_site_symmetry_2
Ag1 Ag2 1_555 1_555
Ag2 N5 1_555 1_555
N1 Ag1 1_555 1_555
C1 N1 1_555 1_555
H1 C1 1_555 1_555
C2 C1 1_555 1_555
H2 C2 1_555 1_555
C3 C2 1_555 1_555
C4 C3 1_555 1_555
H3 C4 1_555 1_555
C5 N1 1_555 1_555
H4 C5 1_555 1_555
N2 C3 1_555 1_555
C6 N2 1_555 1_555
H5 C6 1_555 1_555
H6 C6 1_555 1_555
H7 C6 1_555 1_555
C7 N2 1_555 1_555
O1 C7 1_555 1_555
C8 C7 1_555 1_555
S1 C8 1_555 1_555
C9 S1 1_555 1_555
C10 C9 1_555 1_555
H8 C10 1_555 1_555
C11 C8 1_555 1_555
H9 C11 1_555 1_555
C12 C9 1_555 1_555
O2 C12 1_555 1_555
N3 C12 1_555 1_555
C13 N3 1_555 1_555
H10 C13 1_555 1_555
H11 C13 1_555 1_555
H12 C13 1_555 1_555
C14 N3 1_555 1_555
C15 C14 1_555 1_555
H13 C15 1_555 1_555
C16 C15 1_555 1_555
H14 C16 1_555 1_555
N4 C16 1_555 1_555
C17 N4 1_555 1_555
H15 C17 1_555 1_555
C18 C14 1_555 1_555
H16 C18 1_555 1_555
N5 C19 1_555 1_555
C19 H17 1_555 1_555
C20 C19 1_555 1_555
H18 C20 1_555 1_555
C21 C20 1_555 1_555
C22 C21 1_555 1_555
H19 C22 1_555 1_555
C23 N5 1_555 1_555
H20 C23 1_555 1_555
N6 C21 1_555 1_555
C24 N6 1_555 1_555
H21 C24 1_555 1_555
H22 C24 1_555 1_555
H23 C24 1_555 1_555
C25 N6 1_555 1_555
O3 C25 1_555 1_555
C26 C25 1_555 1_555
S2 C26 1_555 1_555
C27 S2 1_555 1_555
C28 C27 1_555 1_555
H24 C28 1_555 1_555
C29 C26 1_555 1_555
H25 C29 1_555 1_555
C30 C27 1_555 1_555
O4 C30 1_555 1_555
N7 C30 1_555 1_555
C31 N7 1_555 1_555
H26 C31 1_555 1_555
H27 C31 1_555 1_555
H28 C31 1_555 1_555
C32 N7 1_555 1_555
C33 C32 1_555 1_555
H29 C33 1_555 1_555
C34 C33 1_555 1_555
H30 C34 1_555 1_555
N8 C34 1_555 1_555
C35 N8 1_555 1_555
H31 C35 1_555 1_555
C36 C32 1_555 1_555
H32 C36 1_555 1_555
O5 Ag2 1_555 1_555
O6 S3 1_555 1_555
O7 S3 1_555 1_555
S3 O5 1_555 1_555
C37 S3 1_555 1_555
F1 C37 1_555 1_555
F2 C37 1_555 1_555
F3 C37 1_555 1_555
O8 Ag1 1_555 1_555
O9 S4 1_555 1_555
O10 S4 1_555 1_555
S4 O8 1_555 1_555
C38 S4 1_555 1_555
F4 C38 1_555 1_555
F5 C38 1_555 1_555
F6 C38 1_555 1_555
C39 H33 1_555 1_555
H34 C39 1_555 1_555
H35 C39 1_555 1_555
C40 C39 1_555 1_555
C41 C40 1_555 1_555
H36 C41 1_555 1_555
H37 C41 1_555 1_555
H38 C41 1_555 1_555
O11 C40 1_555 1_555
Ag1A Ag1 1_555 1_555
Ag2A Ag2 1_555 1_555
N4A Ag1 1_555 1_555
N8A Ag2 1_555 1_555
O5A Ag2 1_555 1_555
O9A Ag1 1_555 1_555
C4 C5 1_555 1_555
C10 C11 1_555 1_555
N4 Ag1A 1_555 1_555
C17 C18 1_555 1_555
C22 C23 1_555 1_555
C28 C29 1_555 1_555
N8 Ag2A 1_555 1_555
C35 C36 1_555 1_555
O5 Ag2A 1_555 1_555
O9 Ag1A 1_555 1_555
Ag2A O5A 1_555 1_555

#END
