
#######################################################################
#
#                 Cambridge Crystallographic Data Centre
#                                CCDC 
#
#######################################################################
#
# If this CIF has been generated from an entry in the Cambridge 
# Structural Database, then it will include bibliographic, chemical, 
# crystal, experimental, refinement or atomic coordinate data resulting 
# from the CCDC's data processing and validation procedures.
#
#######################################################################

data_CEMTOF
_symmetry_cell_setting           monoclinic
_symmetry_space_group_name_H-M   'P 21/c'
_symmetry_Int_Tables_number      14
_space_group_name_Hall           '-P 2ybc'
loop_
_symmetry_equiv_pos_site_id
_symmetry_equiv_pos_as_xyz
1 x,y,z
2 -x,1/2+y,1/2-z
3 -x,-y,-z
4 x,1/2-y,1/2+z
_cell_length_a                   11.4377(2)
_cell_length_b                   19.3351(3)
_cell_length_c                   14.3898(4)
_cell_angle_alpha                90
_cell_angle_beta                 128.4860(10)
_cell_angle_gamma                90
_cell_volume                     2490.97
loop_
_atom_site_label
_atom_site_type_symbol
_atom_site_fract_x
_atom_site_fract_y
_atom_site_fract_z
Cu1 Cu -0.08043(5) 0.86882(2) 0.43041(4)
Cu2 Cu 0.38262(5) 0.71498(2) 0.44209(4)
As1 As 0.63847(3) 0.951376(15) 0.61119(3)
Mo1 Mo 0.24460(3) 0.888730(13) 0.44126(2)
Mo2 Mo 0.35150(3) 1.011378(14) 0.63524(3)
Mo3 Mo 0.40350(3) 0.874633(14) 0.31547(2)
C1 C -0.3542(4) 0.83784(17) 0.1791(3)
H1 H -0.3436 0.8765 0.1464
C2 C -0.4415(4) 0.74789(17) 0.1952(3)
H2 H -0.5016 0.7100 0.1793
C3 C -0.2509(4) 0.73468(18) 0.4183(3)
H3 H -0.2649 0.7655 0.4639
H4 H -0.1444 0.7302 0.4603
C4 C -0.3138(4) 0.66506(18) 0.4111(3)
H5 H -0.3256 0.6381 0.3489
H6 H -0.4116 0.6708 0.3907
C5 C -0.2117(4) 0.62643(18) 0.5290(3)
H7 H -0.1132 0.6216 0.5505
H8 H -0.2019 0.6528 0.5909
C6 C -0.2744(4) 0.55606(18) 0.5194(3)
H9 H -0.2796 0.5299 0.4594
H10 H -0.3759 0.5618 0.4917
C7 C -0.1885(4) 0.51364(17) 0.6326(3)
H11 H -0.0877 0.5055 0.6604
H12 H -0.1825 0.5386 0.6939
C8 C -0.2668(4) 0.44570(17) 0.6087(3)
H13 H -0.3687 0.4545 0.5778
H14 H -0.2707 0.4209 0.5482
C9 C -0.0864(4) 0.41737(17) 0.8267(3)
H15 H -0.0352 0.4592 0.8540
C10 C -0.1612(4) 0.31637(18) 0.8169(3)
H16 H -0.1705 0.2728 0.8391
C11 C 0.8001(3) 0.89786(15) 0.7338(3)
C12 C 0.8913(4) 0.92362(19) 0.8470(3)
H17 H 0.8697 0.9660 0.8638
C13 C 1.0158(4) 0.8865(2) 0.9364(4)
H18 H 1.0782 0.9041 1.0132
C14 C 1.0470(4) 0.8237(2) 0.9116(4)
H19 H 1.1308 0.7989 0.9718
C15 C 0.9552(4) 0.7973(2) 0.7982(4)
H20 H 0.9771 0.7547 0.7824
C16 C 0.8298(4) 0.83380(18) 0.7069(3)
H21 H 0.7674 0.8162 0.6302
N1 N -0.4657(3) 0.79203(14) 0.1138(2)
N2 N -0.2614(3) 0.82345(14) 0.2928(2)
N3 N -0.3202(3) 0.76540(13) 0.3017(2)
N4 N -0.1935(3) 0.40234(13) 0.7142(2)
N5 N -0.2432(3) 0.33700(14) 0.7060(3)
N6 N -0.0620(3) 0.36420(14) 0.8958(2)
O1 O 0.0621(2) 0.90147(11) 0.3834(2)
O2 O 0.2709(2) 0.80100(11) 0.4642(2)
O3 O 0.2296(2) 0.89428(11) 0.30291(19)
O4 O 0.4979(2) 0.89760(10) 0.51002(18)
O5 O 0.3457(2) 0.91528(11) 0.60276(19)
O6 O 0.5836(2) 1.00512(10) 0.67140(19)
O7 O 0.1683(2) 1.02705(11) 0.5727(2)
O8 O 0.4385(3) 1.00812(12) 0.7830(2)
O9 O 0.3966(2) 1.10328(10) 0.61733(19)
O10 O 0.3244(3) 0.87651(13) 0.1699(2)
O11 O 0.4258(2) 0.78782(11) 0.3509(2)
O12 O 0.7064(2) 0.99703(10) 0.55224(19)
Cu1A Cu 0.08043(5) 0.36882(2) 1.06959(4)
Cu1B Cu 0.08043(5) 1.13118(2) 0.56959(4)
Cu2B Cu -0.38262(5) 0.28502(2) 0.55791(4)
Cu2C Cu -0.61738(5) 0.78502(2) -0.05791(4)
Mo1B Mo 0.75540(3) 1.111270(13) 0.55874(2)
Mo2B Mo 0.64850(3) 0.988622(14) 0.36476(3)
Mo3B Mo 0.59650(3) 1.125367(14) 0.68453(2)
N1C N 0.5343(3) 0.70797(14) 0.6138(2)
N5B N 0.2432(3) 0.66300(14) 0.2940(3)
N6A N 0.0620(3) 0.86420(14) 0.6042(2)
O6B O 0.4164(2) 0.99488(10) 0.32860(19)
O7B O -0.1683(2) 0.97295(11) 0.4273(2)
O9B O 0.6034(2) 0.89672(10) 0.38267(19)
O12B O 0.2936(2) 1.00297(10) 0.44776(19)
loop_
_geom_bond_atom_site_label_1
_geom_bond_atom_site_label_2
_geom_bond_site_symmetry_1
_geom_bond_site_symmetry_2
Cu1 N2 1_555 1_555
Cu2 O2 1_555 1_555
As1 C11 1_555 1_555
Mo1 O1 1_555 1_555
Mo2 O5 1_555 1_555
Mo3 O3 1_555 1_555
C1 H1 1_555 1_555
C2 H2 1_555 1_555
C3 H3 1_555 1_555
H4 C3 1_555 1_555
C4 C3 1_555 1_555
H5 C4 1_555 1_555
H6 C4 1_555 1_555
C5 C4 1_555 1_555
H7 C5 1_555 1_555
H8 C5 1_555 1_555
C6 C5 1_555 1_555
H9 C6 1_555 1_555
H10 C6 1_555 1_555
C7 C6 1_555 1_555
H11 C7 1_555 1_555
H12 C7 1_555 1_555
C8 C7 1_555 1_555
H13 C8 1_555 1_555
H14 C8 1_555 1_555
C9 H15 1_555 1_555
C10 H16 1_555 1_555
C11 C12 1_555 1_555
C12 H17 1_555 1_555
C13 C12 1_555 1_555
H18 C13 1_555 1_555
C14 C13 1_555 1_555
H19 C14 1_555 1_555
C15 C14 1_555 1_555
H20 C15 1_555 1_555
C16 C11 1_555 1_555
H21 C16 1_555 1_555
N1 C1 1_555 1_555
N2 C1 1_555 1_555
N3 C2 1_555 1_555
N4 C8 1_555 1_555
N5 C10 1_555 1_555
N6 C9 1_555 1_555
O1 Cu1 1_555 1_555
O2 Mo1 1_555 1_555
O3 Mo1 1_555 1_555
O4 As1 1_555 1_555
O5 Mo1 1_555 1_555
O6 As1 1_555 1_555
O7 Mo2 1_555 1_555
O8 Mo2 1_555 1_555
O9 Mo2 1_555 1_555
O10 Mo3 1_555 1_555
O11 Cu2 1_555 1_555
O12 As1 1_555 1_555
Cu1A N6 1_555 1_555
Cu1B O7 1_555 1_555
Cu2B N5 1_555 1_555
Cu2C N1 1_555 1_555
Mo1B O12 1_555 1_555
Mo2B O12 1_555 1_555
Mo3B O6 1_555 1_555
N1C Cu2 1_555 1_555
N5B Cu2 1_555 1_555
N6A Cu1 1_555 1_555
O6B Mo3 1_555 1_555
O7B Cu1 1_555 1_555
O9B Mo3 1_555 1_555
O12B Mo1 1_555 1_555
Mo1 O4 1_555 1_555
Mo2 O6 1_555 1_555
Mo2 O12B 1_555 1_555
Mo3 O4 1_555 1_555
Mo3 O11 1_555 1_555
C2 N1 1_555 1_555
C3 N3 1_555 1_555
C9 N4 1_555 1_555
C10 N6 1_555 1_555
C15 C16 1_555 1_555
N2 N3 1_555 1_555
N4 N5 1_555 1_555
O9 Mo3B 1_555 1_555
Mo2B O6B 1_555 1_555
Mo2B O9B 1_555 1_555

#END
