
#######################################################################
#
#                 Cambridge Crystallographic Data Centre
#                                CCDC 
#
#######################################################################
#
# If this CIF has been generated from an entry in the Cambridge 
# Structural Database, then it will include bibliographic, chemical, 
# crystal, experimental, refinement or atomic coordinate data resulting 
# from the CCDC's data processing and validation procedures.
#
#######################################################################

data_CEMYID
_symmetry_cell_setting           monoclinic
_symmetry_space_group_name_H-M   'P 21/n'
_symmetry_Int_Tables_number      14
_space_group_name_Hall           '-P 2yn'
loop_
_symmetry_equiv_pos_site_id
_symmetry_equiv_pos_as_xyz
1 x,y,z
2 1/2-x,1/2+y,1/2-z
3 -x,-y,-z
4 1/2+x,1/2-y,1/2+z
_cell_length_a                   9.4799(11)
_cell_length_b                   32.013(4)
_cell_length_c                   15.8987(18)
_cell_angle_alpha                90
_cell_angle_beta                 99.512(2)
_cell_angle_gamma                90
_cell_volume                     4758.6
loop_
_atom_site_label
_atom_site_type_symbol
_atom_site_fract_x
_atom_site_fract_y
_atom_site_fract_z
C67 C 0.9765(9) -0.0096(2) 0.0710(4)
C68 C 0.8623(8) 0.0180(2) 0.0537(4)
H101 H 0.8023 0.0227 0.0951
C69 C 0.8357(6) 0.0386(2) -0.0243(5)
C70 C 1.0767(7) -0.0317(2) 0.0848(4)
H103 H 1.0948 -0.0458 0.1381
C67B C 1.0235(9) 0.0096(2) -0.0710(4)
C68B C 1.1377(8) -0.0180(2) -0.0537(4)
H101B H 1.1977 -0.0227 -0.0951
C69B C 1.1643(6) -0.0386(2) 0.0243(5)
C70B C 0.9233(7) 0.0317(2) -0.0848(4)
H103B H 0.9052 0.0458 -0.1381
K1 K 0.95981(4) 0.228630(12) 0.13881(3)
N1 N 0.77963(16) 0.16332(5) 0.12932(9)
N2 N 0.73138(15) 0.18331(4) 0.05407(9)
N3 N 0.55978(15) 0.22398(4) -0.21505(9)
C1 C 0.7276(2) 0.09986(6) 0.30533(11)
C2 C 0.8067(2) 0.10703(6) 0.23018(11)
H1 H 0.8912 0.1245 0.2513
H2 H 0.8433 0.0796 0.2151
C3 C 0.73200(19) 0.12670(5) 0.14821(10)
C4 C 0.6226(2) 0.10541(5) 0.09091(11)
C5 C 0.5662(2) 0.06654(6) 0.11172(12)
H3 H 0.6024 0.0536 0.1647
C6 C 0.4598(2) 0.04726(6) 0.05617(13)
H4 H 0.4208 0.0215 0.0712
C7 C 0.4092(2) 0.06570(6) -0.02245(12)
H5 H 0.3359 0.0523 -0.0611
C8 C 0.4647(2) 0.10322(5) -0.04462(11)
H6 H 0.4303 0.1150 -0.0990
C9 C 0.57138(18) 0.12445(5) 0.01177(10)
C10 C 0.63234(17) 0.16538(5) -0.00688(10)
C11 C 0.58551(19) 0.18326(5) -0.08734(11)
H7 H 0.5185 0.1656 -0.1213
C12 C 0.60959(17) 0.22047(5) -0.13293(10)
C13 C 0.6459(2) 0.13598(6) 0.33860(12)
C14 C 0.5192(2) 0.14954(7) 0.27204(14)
H8 H 0.4567 0.1255 0.2556
H9 H 0.5542 0.1604 0.2217
H10 H 0.4654 0.1714 0.2961
C15 C 0.5876(3) 0.12271(8) 0.41903(14)
H11 H 0.5190 0.0999 0.4050
H12 H 0.5397 0.1465 0.4410
H13 H 0.6667 0.1133 0.4625
C16 C 0.7496(3) 0.17282(7) 0.36092(14)
H14 H 0.8316 0.1637 0.4027
H15 H 0.7002 0.1956 0.3851
H16 H 0.7830 0.1826 0.3092
C17 C 0.69134(18) 0.25911(5) -0.09360(11)
C18 C 0.6339(2) 0.27290(6) -0.01361(12)
H17 H 0.6410 0.2497 0.0270
H18 H 0.5336 0.2813 -0.0292
H19 H 0.6903 0.2966 0.0126
C19 C 0.85110(19) 0.24765(6) -0.07370(13)
H20 H 0.8872 0.2427 -0.1271
H22 H 0.9045 0.2707 -0.0426
C20 C 0.6755(2) 0.29610(6) -0.15594(13)
H23 H 0.7163 0.2886 -0.2067
H24 H 0.7261 0.3204 -0.1282
H25 H 0.5739 0.3029 -0.1728
N4 N 0.7296(9) 0.06708(15) 0.3518(5)
C21 C 0.8079(7) 0.0320(2) 0.3318(5)
C22 C 0.9587(4) 0.03125(12) 0.3501(3)
C23 C 1.0243(5) -0.00594(14) 0.3322(4)
H26 H 1.1258 -0.0076 0.3427
C24 C 0.9460(7) -0.04055(16) 0.2995(5)
H27 H 0.9942 -0.0654 0.2878
C25 C 0.7985(7) -0.0392(2) 0.2838(8)
H28 H 0.7464 -0.0630 0.2604
C26 C 0.7250(10) -0.0035(4) 0.3016(17)
C27 C 1.0408(3) 0.06812(11) 0.3940(2)
H29 H 0.9965 0.0941 0.3662
C28 C 1.0238(4) 0.06986(14) 0.4879(2)
H30 H 0.9221 0.0683 0.4925
H31 H 1.0637 0.0961 0.5130
H32 H 1.0747 0.0463 0.5185
C29 C 1.2003(4) 0.06902(14) 0.3865(3)
H33 H 1.2111 0.0644 0.3270
H34 H 1.2507 0.0470 0.4223
H35 H 1.2408 0.0963 0.4055
C30 C 0.5637(12) -0.0021(6) 0.2966(15)
H36 H 0.5299 0.0268 0.2796
C31 C 0.534(5) -0.0106(15) 0.3870(15)
H37 H 0.5822 0.0107 0.4260
H38 H 0.5712 -0.0383 0.4056
H39 H 0.4312 -0.0096 0.3872
C32 C 0.480(3) -0.0331(9) 0.2346(15)
H40 H 0.5123 -0.0312 0.1793
H41 H 0.3778 -0.0265 0.2276
H42 H 0.4964 -0.0615 0.2572
C45 C 0.49008(18) 0.19022(5) -0.26238(10)
C46 C 0.56982(19) 0.16354(6) -0.30766(11)
C47 C 0.4969(2) 0.13470(6) -0.36468(12)
H60 H 0.5497 0.1169 -0.3960
C48 C 0.3495(2) 0.13138(6) -0.37669(12)
H61 H 0.3017 0.1118 -0.4164
C49 C 0.2726(2) 0.15660(6) -0.33076(12)
H62 H 0.1716 0.1537 -0.3381
C50 C 0.33964(19) 0.18651(6) -0.27342(11)
C51 C 0.7321(2) 0.16435(7) -0.29139(14)
H63 H 0.7634 0.1928 -0.2698
C52 C 0.7900(3) 0.13206(9) -0.22130(17)
H64 H 0.7501 0.1380 -0.1695
H65 H 0.8946 0.1339 -0.2086
H66 H 0.7620 0.1039 -0.2415
C53 C 0.7995(3) 0.15560(10) -0.36973(18)
H67 H 0.7577 0.1742 -0.4161
H68 H 0.7814 0.1265 -0.3874
H69 H 0.9028 0.1604 -0.3563
C54 C 0.2513(2) 0.21284(7) -0.22242(13)
H70 H 0.3164 0.2331 -0.1874
C55 C 0.1331(2) 0.23743(6) -0.27830(14)
H71 H 0.1760 0.2572 -0.3137
H72 H 0.0768 0.2527 -0.2420
H73 H 0.0707 0.2181 -0.3150
C56 C 0.1821(3) 0.18505(10) -0.16176(18)
H74 H 0.2564 0.1687 -0.1259
H75 H 0.1135 0.1661 -0.1951
H76 H 0.1324 0.2026 -0.1255
C57 C 1.1357(5) 0.10490(14) 0.1227(3)
H77 H 1.1056 0.0764 0.1058
H78 H 1.0939 0.1132 0.1725
H79 H 1.2403 0.1059 0.1369
C58 C 1.0871(5) 0.13359(14) 0.0519(4)
H80 H 1.1283 0.1247 0.0015
H81 H 0.9817 0.1318 0.0369
O1 O 1.1266(3) 0.17575(8) 0.07166(19)
C59 C 1.2720(7) 0.1829(2) 0.0740(7)
H82 H 1.3020 0.1721 0.0213
H83 H 1.3280 0.1682 0.1234
C60 C 1.2990(12) 0.2295(2) 0.0816(5)
H84 H 1.4016 0.2350 0.0856
H85 H 1.2662 0.2401 0.1329
H86 H 1.2467 0.2437 0.0313
K1C K 1.45981(4) 0.271370(12) 0.63881(3)
K1C_2 K 0.45981(4) 0.271370(12) -0.36119(3)
N1C N 1.27963(16) 0.33668(5) 0.62932(9)
N2C N 1.23138(15) 0.31669(4) 0.55407(9)
N3C N 1.05978(15) 0.27602(4) 0.28495(9)
N3_2 N 1.55978(15) 0.22398(4) 0.78495(9)
C1C C 1.2276(2) 0.40014(6) 0.80533(11)
C2C C 1.3067(2) 0.39297(6) 0.73018(11)
H1C H 1.3912 0.3755 0.7513
H2C H 1.3433 0.4204 0.7151
C3C C 1.23200(19) 0.37330(5) 0.64821(10)
C4C C 1.1226(2) 0.39459(5) 0.59091(11)
C5C C 1.0662(2) 0.43346(6) 0.61172(12)
H3C H 1.1024 0.4464 0.6647
C6C C 0.9598(2) 0.45274(6) 0.55617(13)
H4C H 0.9208 0.4785 0.5712
C7C C 0.9092(2) 0.43430(6) 0.47755(12)
H5C H 0.8359 0.4477 0.4389
C8C C 0.9647(2) 0.39678(5) 0.45538(11)
H6C H 0.9303 0.3850 0.4010
C9C C 1.07138(18) 0.37555(5) 0.51177(10)
C10C C 1.13234(17) 0.33462(5) 0.49312(10)
C11C C 1.08551(19) 0.31674(5) 0.41266(11)
H7C H 1.0185 0.3344 0.3787
C12C C 1.10959(17) 0.27953(5) 0.36707(10)
C13C C 1.1459(2) 0.36402(6) 0.83860(12)
C14C C 1.0192(2) 0.35046(7) 0.77204(14)
H8C H 0.9567 0.3745 0.7556
H9C H 1.0542 0.3396 0.7217
H10C H 0.9654 0.3286 0.7961
C15C C 1.0876(3) 0.37729(8) 0.91903(14)
H11C H 1.0190 0.4001 0.9050
H12C H 1.0397 0.3535 0.9410
H13C H 1.1667 0.3867 0.9625
C16C C 1.2496(3) 0.32718(7) 0.86092(14)
H14C H 1.3316 0.3363 0.9027
H15C H 1.2002 0.3044 0.8851
H16C H 1.2830 0.3174 0.8092
C17C C 1.19134(18) 0.24089(5) 0.40640(11)
C18C C 1.1339(2) 0.22710(6) 0.48639(12)
H17C H 1.1410 0.2503 0.5270
H18C H 1.0336 0.2187 0.4708
H19C H 1.1903 0.2034 0.5126
C19C C 1.35110(19) 0.25235(6) 0.42630(13)
H20C H 1.3872 0.2573 0.3729
H22C H 1.4045 0.2293 0.4574
C20C C 1.1755(2) 0.20390(6) 0.34406(13)
H23C H 1.2163 0.2114 0.2933
H24C H 1.2261 0.1796 0.3718
H25C H 1.0739 0.1971 0.3272
N4C N 1.2296(9) 0.43292(15) 0.8518(5)
C21C C 1.3079(7) 0.4680(2) 0.8318(5)
C22C C 1.4587(4) 0.46875(12) 0.8501(3)
C23C C 1.5243(5) 0.50594(14) 0.8322(4)
H26C H 1.6258 0.5076 0.8427
C24C C 1.4460(7) 0.54055(16) 0.7995(5)
H27C H 1.4942 0.5654 0.7878
C25C C 1.2985(7) 0.5392(2) 0.7838(8)
H28C H 1.2464 0.5630 0.7604
C26C C 1.2250(10) 0.5035(4) 0.8016(17)
C27C C 1.5408(3) 0.43188(11) 0.8940(2)
H29C H 1.4965 0.4059 0.8662
C28C C 1.5238(4) 0.43014(14) 0.9879(2)
H30C H 1.4221 0.4317 0.9925
H31C H 1.5637 0.4039 1.0130
H32C H 1.5747 0.4537 1.0185
C29C C 1.7003(4) 0.43098(14) 0.8865(3)
H33C H 1.7111 0.4356 0.8270
H34C H 1.7507 0.4530 0.9223
H35C H 1.7408 0.4037 0.9055
C30C C 1.0637(12) 0.5021(6) 0.7966(15)
H36C H 1.0299 0.4732 0.7796
C31C C 1.034(5) 0.5106(15) 0.8870(15)
H37C H 1.0822 0.4893 0.9260
H38C H 1.0712 0.5383 0.9056
H39C H 0.9312 0.5096 0.8872
C32C C 0.980(3) 0.5331(9) 0.7346(15)
H40C H 1.0123 0.5312 0.6793
H41C H 0.8778 0.5265 0.7276
H42C H 0.9964 0.5615 0.7572
C45C C 0.99008(18) 0.30978(5) 0.23762(10)
C45_2 C 1.49008(18) 0.19022(5) 0.73762(10)
C46C C 1.06982(19) 0.33646(6) 0.19234(11)
C47C C 0.9969(2) 0.36530(6) 0.13532(12)
H60C H 1.0497 0.3831 0.1040
C48C C 0.8495(2) 0.36862(6) 0.12331(12)
H61C H 0.8017 0.3882 0.0836
C49C C 0.7726(2) 0.34340(6) 0.16924(12)
H62C H 0.6716 0.3463 0.1619
C50C C 0.83964(19) 0.31349(6) 0.22658(11)
C50_2 C 1.33964(19) 0.18651(6) 0.72658(11)
C51C C 1.2321(2) 0.33565(7) 0.20861(14)
H63C H 1.2634 0.3072 0.2302
C52C C 1.2900(3) 0.36794(9) 0.27870(17)
H64C H 1.2501 0.3620 0.3305
H65C H 1.3946 0.3661 0.2914
H66C H 1.2620 0.3961 0.2585
C53C C 1.2995(3) 0.34440(10) 0.13027(18)
H67C H 1.2577 0.3258 0.0839
H68C H 1.2814 0.3735 0.1126
H69C H 1.4028 0.3396 0.1437
C54C C 0.7513(2) 0.28716(7) 0.27758(13)
H70C H 0.8164 0.2669 0.3126
C55C C 0.6331(2) 0.26257(6) 0.22170(14)
H71C H 0.6760 0.2428 0.1863
H72C H 0.5768 0.2473 0.2580
H73C H 0.5707 0.2819 0.1850
C56C C 0.6821(3) 0.31495(10) 0.33824(18)
H74C H 0.7564 0.3313 0.3741
H75C H 0.6135 0.3339 0.3049
H76C H 0.6324 0.2974 0.3745
C57C C 1.6357(5) 0.39510(14) 0.6227(3)
H77C H 1.6056 0.4236 0.6058
H78C H 1.5939 0.3868 0.6725
H79C H 1.7403 0.3941 0.6369
C58C C 1.5871(5) 0.36641(14) 0.5519(4)
H80C H 1.6283 0.3753 0.5015
H81C H 1.4817 0.3682 0.5369
O1C O 1.6266(3) 0.32425(8) 0.57166(19)
C59C C 1.7720(7) 0.3171(2) 0.5740(7)
H82C H 1.8020 0.3279 0.5213
H83C H 1.8280 0.3318 0.6234
C60C C 1.7990(12) 0.2705(2) 0.5816(5)
H84C H 1.9016 0.2650 0.5856
H85C H 1.7662 0.2599 0.6329
H86C H 1.7467 0.2563 0.5313
H21? H 0.8632 0.2223 -0.0387
N5? N 0.7495(19) 0.0632(3) 0.3403(10)
C33? C 0.8081(13) 0.0245(5) 0.3165(12)
C34? C 0.9580(8) 0.0180(2) 0.3241(5)
C35? C 1.0050(11) -0.0211(3) 0.2995(7)
H43? H 1.1047 -0.0258 0.3028
C36? C 0.9128(14) -0.0525(4) 0.2712(10)
H44? H 0.9482 -0.0779 0.2519
C37? C 0.7682(16) -0.0477(5) 0.2704(17)
H45? H 0.7048 -0.0703 0.2542
C38? C 0.7151(19) -0.0094(7) 0.293(3)
C39? C 1.0635(6) 0.0517(2) 0.3605(4)
H46? H 1.0093 0.0781 0.3661
C40? C 1.1384(7) 0.0385(3) 0.4490(4)
H47? H 1.0689 0.0380 0.4883
H48? H 1.2145 0.0585 0.4696
H49? H 1.1798 0.0106 0.4458
C41? C 1.1756(7) 0.0603(3) 0.3025(5)
H50? H 1.2393 0.0829 0.3271
H51? H 1.1270 0.0686 0.2457
H52? H 1.2318 0.0349 0.2979
C42? C 0.559(2) -0.0067(13) 0.303(3)
H53? H 0.5276 0.0222 0.2847
C43? C 0.530(9) -0.011(3) 0.393(3)
H54? H 0.5859 0.0093 0.4300
H55? H 0.5569 -0.0396 0.4141
H56? H 0.4277 -0.0070 0.3942
C44? C 0.465(6) -0.0357(18) 0.241(3)
H57? H 0.4754 -0.0286 0.1824
H58? H 0.3653 -0.0326 0.2482
H59? H 0.4957 -0.0647 0.2529
C61? C 1.0740(15) 0.1205(5) 0.0251(10)
H87? H 1.0717 0.0899 0.0277
H88? H 1.1123 0.1292 -0.0258
H89? H 0.9769 0.1315 0.0223
C62? C 1.1701(14) 0.1375(3) 0.1051(9)
H90? H 1.1326 0.1281 0.1565
H91? H 1.2679 0.1261 0.1081
O2? O 1.1755(7) 0.1813(2) 0.1041(6)
C63? C 1.294(2) 0.1944(8) 0.072(2)
H92? H 1.2983 0.1803 0.0173
H93? H 1.3816 0.1875 0.1127
C64? C 1.282(4) 0.2412(8) 0.0594(19)
H94? H 1.3636 0.2514 0.0351
H95? H 1.2803 0.2549 0.1145
H96? H 1.1930 0.2477 0.0205
C65? C 1.1795(12) -0.0453(4) 0.0391(9)
H97? H 1.1893 -0.0489 0.1010
H98? H 1.2689 -0.0342 0.0249
H99? H 1.1586 -0.0724 0.0110
C66? C 1.0642(8) -0.0166(3) 0.0104(5)
H100? H 0.9947 -0.0238 0.1242
H102? H 0.7576 0.0575 -0.0361
C71? C 1.0376(7) 0.0041(3) -0.0675(5)
H104? H 1.0975 -0.0007 -0.1089
loop_
_geom_bond_atom_site_label_1
_geom_bond_atom_site_label_2
_geom_bond_site_symmetry_1
_geom_bond_site_symmetry_2
K1 N1 1_555 1_555
N1 N2 1_555 1_555
N2 K1 1_555 1_555
N3 C12 1_555 1_555
C1 C2 1_555 1_555
C2 H1 1_555 1_555
H2 C2 1_555 1_555
C3 N1 1_555 1_555
C4 C3 1_555 1_555
C5 C4 1_555 1_555
H3 C5 1_555 1_555
C6 C5 1_555 1_555
H4 C6 1_555 1_555
C7 C6 1_555 1_555
H5 C7 1_555 1_555
C8 C7 1_555 1_555
H6 C8 1_555 1_555
C9 C4 1_555 1_555
C10 N2 1_555 1_555
C11 C10 1_555 1_555
H7 C11 1_555 1_555
C12 C11 1_555 1_555
C13 C1 1_555 1_555
C14 C13 1_555 1_555
H8 C14 1_555 1_555
H9 C14 1_555 1_555
H10 C14 1_555 1_555
C15 C13 1_555 1_555
H11 C15 1_555 1_555
H12 C15 1_555 1_555
H13 C15 1_555 1_555
C16 C13 1_555 1_555
H14 C16 1_555 1_555
H15 C16 1_555 1_555
H16 C16 1_555 1_555
C17 C12 1_555 1_555
C18 C17 1_555 1_555
H17 C18 1_555 1_555
H18 C18 1_555 1_555
H19 C18 1_555 1_555
C19 C17 1_555 1_555
H20 C19 1_555 1_555
H22 C19 1_555 1_555
C20 C17 1_555 1_555
H23 C20 1_555 1_555
H24 C20 1_555 1_555
H25 C20 1_555 1_555
N4 C1 1_555 1_555
C21 N4 1_555 1_555
C22 C21 1_555 1_555
C23 C22 1_555 1_555
H26 C23 1_555 1_555
C24 C23 1_555 1_555
H27 C24 1_555 1_555
C25 C24 1_555 1_555
H28 C25 1_555 1_555
C26 C21 1_555 1_555
C27 C22 1_555 1_555
H29 C27 1_555 1_555
C28 C27 1_555 1_555
H30 C28 1_555 1_555
H31 C28 1_555 1_555
H32 C28 1_555 1_555
C29 C27 1_555 1_555
H33 C29 1_555 1_555
H34 C29 1_555 1_555
H35 C29 1_555 1_555
C30 C26 1_555 1_555
H36 C30 1_555 1_555
C31 C30 1_555 1_555
H37 C31 1_555 1_555
H38 C31 1_555 1_555
H39 C31 1_555 1_555
C32 C30 1_555 1_555
H40 C32 1_555 1_555
H41 C32 1_555 1_555
H42 C32 1_555 1_555
C45 N3 1_555 1_555
C46 C45 1_555 1_555
C47 C46 1_555 1_555
H60 C47 1_555 1_555
C48 C47 1_555 1_555
H61 C48 1_555 1_555
C49 C48 1_555 1_555
H62 C49 1_555 1_555
C50 C45 1_555 1_555
C51 C46 1_555 1_555
H63 C51 1_555 1_555
C52 C51 1_555 1_555
H64 C52 1_555 1_555
H65 C52 1_555 1_555
H66 C52 1_555 1_555
C53 C51 1_555 1_555
H67 C53 1_555 1_555
H68 C53 1_555 1_555
H69 C53 1_555 1_555
C54 C50 1_555 1_555
H70 C54 1_555 1_555
C55 C54 1_555 1_555
H71 C55 1_555 1_555
H72 C55 1_555 1_555
H73 C55 1_555 1_555
C56 C54 1_555 1_555
H74 C56 1_555 1_555
H75 C56 1_555 1_555
H76 C56 1_555 1_555
C57 H77 1_555 1_555
H78 C57 1_555 1_555
H79 C57 1_555 1_555
C58 C57 1_555 1_555
H80 C58 1_555 1_555
H81 C58 1_555 1_555
O1 K1 1_555 1_555
C59 O1 1_555 1_555
H82 C59 1_555 1_555
H83 C59 1_555 1_555
C60 C59 1_555 1_555
H84 C60 1_555 1_555
H85 C60 1_555 1_555
H86 C60 1_555 1_555
C67 C68 1_555 1_555
C68 H101 1_555 1_555
C69 C68 1_555 1_555
C70 C67 1_555 1_555
H103 C70 1_555 1_555
K1C N1C 1_555 1_555
K1C_2 N3 1_555 1_555
N1C N2C 1_555 1_555
N2C K1C 1_555 1_555
N3C K1 1_555 1_555
N3_2 K1C 1_555 1_555
C1C C2C 1_555 1_555
C2C H1C 1_555 1_555
H2C C2C 1_555 1_555
C3C N1C 1_555 1_555
C4C C3C 1_555 1_555
C5C C4C 1_555 1_555
H3C C5C 1_555 1_555
C6C C5C 1_555 1_555
H4C C6C 1_555 1_555
C7C C6C 1_555 1_555
H5C C7C 1_555 1_555
C8C C7C 1_555 1_555
H6C C8C 1_555 1_555
C9C C4C 1_555 1_555
C10C N2C 1_555 1_555
C11C C10C 1_555 1_555
H7C C11C 1_555 1_555
C12C N3C 1_555 1_555
C13C C1C 1_555 1_555
C14C C13C 1_555 1_555
H8C C14C 1_555 1_555
H9C C14C 1_555 1_555
H10C C14C 1_555 1_555
C15C C13C 1_555 1_555
H11C C15C 1_555 1_555
H12C C15C 1_555 1_555
H13C C15C 1_555 1_555
C16C C13C 1_555 1_555
H14C C16C 1_555 1_555
H15C C16C 1_555 1_555
H16C C16C 1_555 1_555
C17C C12C 1_555 1_555
C18C C17C 1_555 1_555
H17C C18C 1_555 1_555
H18C C18C 1_555 1_555
H19C C18C 1_555 1_555
C19C C17C 1_555 1_555
H20C C19C 1_555 1_555
H22C C19C 1_555 1_555
C20C C17C 1_555 1_555
H23C C20C 1_555 1_555
H24C C20C 1_555 1_555
H25C C20C 1_555 1_555
N4C C1C 1_555 1_555
C21C N4C 1_555 1_555
C22C C21C 1_555 1_555
C23C C22C 1_555 1_555
H26C C23C 1_555 1_555
C24C C23C 1_555 1_555
H27C C24C 1_555 1_555
C25C C24C 1_555 1_555
H28C C25C 1_555 1_555
C26C C21C 1_555 1_555
C27C C22C 1_555 1_555
H29C C27C 1_555 1_555
C28C C27C 1_555 1_555
H30C C28C 1_555 1_555
H31C C28C 1_555 1_555
H32C C28C 1_555 1_555
C29C C27C 1_555 1_555
H33C C29C 1_555 1_555
H34C C29C 1_555 1_555
H35C C29C 1_555 1_555
C30C C26C 1_555 1_555
H36C C30C 1_555 1_555
C31C C30C 1_555 1_555
H37C C31C 1_555 1_555
H38C C31C 1_555 1_555
H39C C31C 1_555 1_555
C32C C30C 1_555 1_555
H40C C32C 1_555 1_555
H41C C32C 1_555 1_555
H42C C32C 1_555 1_555
C45C K1 1_555 1_555
C45_2 K1C 1_555 1_555
C46C C45C 1_555 1_555
C47C C46C 1_555 1_555
H60C C47C 1_555 1_555
C48C C47C 1_555 1_555
H61C C48C 1_555 1_555
C49C C48C 1_555 1_555
H62C C49C 1_555 1_555
C50C K1 1_555 1_555
C50_2 K1C 1_555 1_555
C51C C46C 1_555 1_555
H63C C51C 1_555 1_555
C52C C51C 1_555 1_555
H64C C52C 1_555 1_555
H65C C52C 1_555 1_555
H66C C52C 1_555 1_555
C53C C51C 1_555 1_555
H67C C53C 1_555 1_555
H68C C53C 1_555 1_555
H69C C53C 1_555 1_555
C54C C50C 1_555 1_555
H70C C54C 1_555 1_555
C55C C54C 1_555 1_555
H71C C55C 1_555 1_555
H72C C55C 1_555 1_555
H73C C55C 1_555 1_555
C56C C54C 1_555 1_555
H74C C56C 1_555 1_555
H75C C56C 1_555 1_555
H76C C56C 1_555 1_555
C57C H77C 1_555 1_555
H78C C57C 1_555 1_555
H79C C57C 1_555 1_555
C58C C57C 1_555 1_555
H80C C58C 1_555 1_555
H81C C58C 1_555 1_555
O1C K1C 1_555 1_555
C59C O1C 1_555 1_555
H82C C59C 1_555 1_555
H83C C59C 1_555 1_555
C60C C59C 1_555 1_555
H84C C60C 1_555 1_555
H85C C60C 1_555 1_555
H86C C60C 1_555 1_555
C67B C68B 1_555 1_555
C68B H101B 1_555 1_555
C69B C70 1_555 1_555
C70B C69 1_555 1_555
H103B C70B 1_555 1_555
C2 C3 1_555 1_555
C8 C9 1_555 1_555
C9 C10 1_555 1_555
C25 C26 1_555 1_555
C45 K1C_2 1_555 1_555
C49 C50 1_555 1_555
C50 K1C_2 1_555 1_555
C58 O1 1_555 1_555
N3C C45C 1_555 1_555
N3_2 C45_2 1_555 1_555
C2C C3C 1_555 1_555
C8C C9C 1_555 1_555
C9C C10C 1_555 1_555
C11C C12C 1_555 1_555
C25C C26C 1_555 1_555
C45C C50C 1_555 1_555
C45_2 C50_2 1_555 1_555
C49C C50C 1_555 1_555
C58C O1C 1_555 1_555
C67B C70B 1_555 1_555
C68B C69B 1_555 1_555

#END
