
#######################################################################
#
#                 Cambridge Crystallographic Data Centre
#                                CCDC 
#
#######################################################################
#
# If this CIF has been generated from an entry in the Cambridge 
# Structural Database, then it will include bibliographic, chemical, 
# crystal, experimental, refinement or atomic coordinate data resulting 
# from the CCDC's data processing and validation procedures.
#
#######################################################################

data_CENHIO
_symmetry_cell_setting           hexagonal
_symmetry_space_group_name_H-M   'P 65'
_symmetry_Int_Tables_number      170
_space_group_name_Hall           'P 65'
loop_
_symmetry_equiv_pos_site_id
_symmetry_equiv_pos_as_xyz
1 x,y,z
2 x-y,x,5/6+z
3 -y,x-y,2/3+z
4 -x,-y,1/2+z
5 -x+y,-x,1/3+z
6 y,-x+y,1/6+z
_cell_length_a                   12.8394(19)
_cell_length_b                   12.8394(19)
_cell_length_c                   18.121(6)
_cell_angle_alpha                90
_cell_angle_beta                 90
_cell_angle_gamma                120
_cell_volume                     2587.03
loop_
_atom_site_label
_atom_site_type_symbol
_atom_site_fract_x
_atom_site_fract_y
_atom_site_fract_z
Ag1 Ag -0.04364(4) -0.02282(6) 0.15508(5)
C1 C -0.1883(6) 0.1200(6) 0.1234(4)
H1 H -0.2538 0.0443 0.1331
C2 C -0.2083(7) 0.2146(6) 0.1165(5)
H2 H -0.2853 0.2039 0.1201
C3 C -0.1070(6) 0.3295(6) 0.1037(4)
H3 H -0.1159 0.3967 0.0984
C4 C 0.0049(6) 0.3399(6) 0.0991(5)
C5 C 0.1072(7) 0.4533(6) 0.0878(5)
H4 H 0.0997 0.5216 0.0897
C6 C 0.2166(7) 0.4655(6) 0.0742(5)
H5 H 0.2815 0.5416 0.0645
C7 C 0.2344(6) 0.3660(6) 0.0743(5)
C8 C 0.1329(6) 0.2530(6) 0.0911(4)
C9 C 0.0227(6) 0.2401(6) 0.1024(4)
C10 C 0.3419(7) 0.3599(7) 0.0507(5)
H6 H 0.4122 0.4311 0.0397
C11 C 0.3413(7) 0.2530(6) 0.0445(4)
H7 H 0.4099 0.2536 0.0275
C12 C 0.2419(6) 0.1453(6) 0.0627(6)
C13 C 0.3478(6) 0.0246(6) 0.0461(4)
C14 C 0.3086(7) -0.1002(7) 0.0345(5)
H8 H 0.3573 -0.1347 0.0332
C15 C 0.1826(6) -0.1610(6) 0.0254(4)
C16 C 0.4764(6) 0.1150(6) 0.0565(4)
H9 H 0.4859 0.1599 0.1007
H10 H 0.5044 0.1686 0.0150
H11 H 0.5224 0.0749 0.0604
C17 C 0.1102(6) -0.2901(6) 0.0096(4)
H12 H 0.0589 -0.3305 0.0509
H13 H 0.1624 -0.3222 0.0009
H14 H 0.0619 -0.3020 -0.0335
N1 N -0.0741(5) 0.1308(5) 0.1167(4)
N2 N 0.1379(5) 0.1440(5) 0.0869(4)
N3 N 0.2459(5) 0.0388(5) 0.0400(3)
N4 N 0.1434(5) -0.0736(5) 0.0260(3)
Ag1A Ag -0.02082(7) -0.04364(4) -0.01159(5)
Ag1E Ag -0.02282(6) 0.02082(7) 0.32175(5)
N4E N -0.0736(5) -0.2170(7) 0.1927(3)
B1 B 0.7554(7) 0.2476(6) 0.3174(6)
F1 F 0.7270(4) 0.2940(4) 0.2581(3)
F2 F 0.6705(4) 0.1665(4) 0.3613(3)
F3 F 0.8211(4) 0.3476(4) 0.3565(3)
F4 F 0.8179(4) 0.1936(3) 0.3008(2)
loop_
_geom_bond_atom_site_label_1
_geom_bond_atom_site_label_2
_geom_bond_site_symmetry_1
_geom_bond_site_symmetry_2
Ag1 N1 1_555 1_555
C1 H1 1_555 1_555
C2 C1 1_555 1_555
H2 C2 1_555 1_555
C3 C2 1_555 1_555
H3 C3 1_555 1_555
C4 C3 1_555 1_555
C5 C4 1_555 1_555
H4 C5 1_555 1_555
C6 C5 1_555 1_555
H5 C6 1_555 1_555
C7 C6 1_555 1_555
C8 C7 1_555 1_555
C9 C4 1_555 1_555
C10 C7 1_555 1_555
H6 C10 1_555 1_555
C11 C10 1_555 1_555
H7 C11 1_555 1_555
C12 C11 1_555 1_555
C13 C14 1_555 1_555
C14 H8 1_555 1_555
C15 C14 1_555 1_555
C16 C13 1_555 1_555
H9 C16 1_555 1_555
H10 C16 1_555 1_555
H11 C16 1_555 1_555
C17 C15 1_555 1_555
H12 C17 1_555 1_555
H13 C17 1_555 1_555
H14 C17 1_555 1_555
N1 C1 1_555 1_555
N2 Ag1 1_555 1_555
N3 C12 1_555 1_555
N4 C15 1_555 1_555
B1 F1 1_555 1_555
F2 B1 1_555 1_555
F3 B1 1_555 1_555
F4 B1 1_555 1_555
Ag1A Ag1 1_555 1_555
Ag1E Ag1 1_555 1_555
N4E Ag1 1_555 1_555
C8 C9 1_555 1_555
C8 N2 1_555 1_555
C9 N1 1_555 1_555
C12 N2 1_555 1_555
C13 N3 1_555 1_555
N3 N4 1_555 1_555
N4 Ag1A 1_555 1_555

#END
