
#######################################################################
#
#                 Cambridge Crystallographic Data Centre
#                                CCDC 
#
#######################################################################
#
# If this CIF has been generated from an entry in the Cambridge 
# Structural Database, then it will include bibliographic, chemical, 
# crystal, experimental, refinement or atomic coordinate data resulting 
# from the CCDC's data processing and validation procedures.
#
#######################################################################

data_CENJUC
_symmetry_cell_setting           monoclinic
_symmetry_space_group_name_H-M   'P 21/c'
_symmetry_Int_Tables_number      14
_space_group_name_Hall           '-P 2ybc'
loop_
_symmetry_equiv_pos_site_id
_symmetry_equiv_pos_as_xyz
1 x,y,z
2 -x,1/2+y,1/2-z
3 -x,-y,-z
4 x,1/2-y,1/2+z
_cell_length_a                   4.8630(7)
_cell_length_b                   13.578(2)
_cell_length_c                   9.3241(13)
_cell_angle_alpha                90
_cell_angle_beta                 95.563(2)
_cell_angle_gamma                90
_cell_volume                     612.769
loop_
_atom_site_label
_atom_site_type_symbol
_atom_site_fract_x
_atom_site_fract_y
_atom_site_fract_z
Cu1 Cu 0.0000 0.5000 0.5000
N1 N 0.2473(3) 0.61579(10) 0.50436(13)
N2 N 0.4381(3) 0.62912(11) 0.41086(14)
C1 C 0.2552(4) 0.69748(14) 0.58315(18)
H1 H 0.143(3) 0.7094(3) 0.6587(17)
C2 C 0.4494(4) 0.76285(15) 0.5401(2)
H2 H 0.4905(12) 0.8220(16) 0.5756(10)
C3 C 0.5635(4) 0.71599(14) 0.43091(19)
H3 H 0.713(4) 0.7419(6) 0.3762(13)
O1 O 0.1236(2) 0.46159(9) 0.31619(10)
O2 O -0.2330(3) 0.54682(11) 0.21661(12)
C4 C -0.0265(4) 0.49678(9) 0.20711(19)
C5 C 0.0731(3) 0.47176(14) 0.06269(15)
H4 H 0.0470 0.4018 0.0452
H5 H 0.2696 0.4852 0.0668
H6 H 0.464(4) 0.5847(16) 0.357(2)
O1B O -0.1236(2) 0.53841(9) -0.31619(10)
O2B O 0.2330(3) 0.45318(11) -0.21661(12)
C4B C 0.0265(4) 0.50322(9) -0.20711(19)
C5B C -0.0731(3) 0.52824(14) -0.06269(15)
H4B H -0.0470 0.5982 -0.0452
H5B H -0.2696 0.5148 -0.0668
N1B N -0.2473(3) 0.38421(10) 0.49564(13)
N2B N -0.4381(3) 0.37088(11) 0.58914(14)
C1B C -0.2552(4) 0.30252(14) 0.41685(18)
H1B H -0.143(3) 0.2906(3) 0.3413(17)
C2B C -0.4494(4) 0.23715(15) 0.4599(2)
H2B H -0.4905(12) 0.1780(16) 0.4244(10)
C3B C -0.5635(4) 0.28401(14) 0.56909(19)
H3B H -0.713(4) 0.2581(6) 0.6238(13)
H6B H -0.464(4) 0.4153(16) 0.643(2)
Cu1_2 Cu 0.0000 0.5000 -0.5000
O1B_2 O -0.1236(2) 0.53841(9) 0.68381(10)
loop_
_geom_bond_atom_site_label_1
_geom_bond_atom_site_label_2
_geom_bond_site_symmetry_1
_geom_bond_site_symmetry_2
Cu1 N1 1_555 1_555
N1 N2 1_555 1_555
N2 C3 1_555 1_555
C1 N1 1_555 1_555
H1 C1 1_555 1_555
C2 C1 1_555 1_555
H2 C2 1_555 1_555
C3 C2 1_555 1_555
H3 C3 1_555 1_555
O1 Cu1 1_555 1_555
O2 C4 1_555 1_555
C4 O1 1_555 1_555
C5 C4 1_555 1_555
H4 C5 1_555 1_555
H5 C5 1_555 1_555
H6 N2 1_555 1_555
O1B C4B 1_555 1_555
O2B C4B 1_555 1_555
C4B C5B 1_555 1_555
C5B C5 1_555 1_555
H4B C5B 1_555 1_555
H5B C5B 1_555 1_555
N1B Cu1 1_555 1_555
N2B N1B 1_555 1_555
C1B N1B 1_555 1_555
H1B C1B 1_555 1_555
C2B C1B 1_555 1_555
H2B C2B 1_555 1_555
C3B N2B 1_555 1_555
H3B C3B 1_555 1_555
H6B N2B 1_555 1_555
Cu1_2 O1B 1_555 1_555
O1B_2 Cu1 1_555 1_555
C2B C3B 1_555 1_555

#END
