
#######################################################################
#
#                 Cambridge Crystallographic Data Centre
#                                CCDC 
#
#######################################################################
#
# If this CIF has been generated from an entry in the Cambridge 
# Structural Database, then it will include bibliographic, chemical, 
# crystal, experimental, refinement or atomic coordinate data resulting 
# from the CCDC's data processing and validation procedures.
#
#######################################################################

data_CENKEM
_symmetry_cell_setting           orthorhombic
_symmetry_space_group_name_H-M   'P 21 21 21'
_symmetry_Int_Tables_number      19
_space_group_name_Hall           'P 2ac 2ab'
loop_
_symmetry_equiv_pos_site_id
_symmetry_equiv_pos_as_xyz
1 x,y,z
2 1/2+x,1/2-y,-z
3 -x,1/2+y,1/2-z
4 1/2-x,-y,1/2+z
_cell_length_a                   9.221(2)
_cell_length_b                   11.980(3)
_cell_length_c                   21.011(5)
_cell_angle_alpha                90
_cell_angle_beta                 90
_cell_angle_gamma                90
_cell_volume                     2321.03
loop_
_atom_site_label
_atom_site_type_symbol
_atom_site_fract_x
_atom_site_fract_y
_atom_site_fract_z
Cu1 Cu -0.63188(5) -0.17474(4) -0.36005(2)
N1 N -0.4613(3) -0.2875(3) -0.3617(2)
N2 N -0.2824(3) -0.3985(2) -0.3907(1)
N3 N -0.5577(4) -1.0159(3) -0.3913(2)
N4 N -0.4111(4) -0.8898(3) -0.4322(2)
N5 N -0.1638(3) -0.7017(3) -0.1714(2)
N6 N 0.0084(4) -0.7281(3) -0.2422(2)
N7 N -0.5827(4) -0.1323(3) -0.2700(2)
N8 N -0.4613(4) -0.1003(3) -0.2608(2)
N9 N -0.3456(4) -0.0655(5) -0.2519(3)
N10 N -0.6917(4) -0.2177(3) -0.4484(2)
N11 N -0.6818(4) -0.3092(3) -0.4668(2)
N12 N -0.699(3) -0.407(2) -0.4783(11)
C1 C -0.3673(4) -0.3118(3) -0.4072(2)
C2 C -0.4345(5) -0.3631(3) -0.3139(2)
C3 C -0.3250(4) -0.4312(3) -0.3308(2)
C4 C -0.1598(4) -0.4422(3) -0.4283(2)
C5 C -0.1396(4) -0.5653(3) -0.4159(2)
C6 C -0.2250(4) -0.6434(3) -0.4490(2)
C7 C -0.2055(4) -0.7572(3) -0.4366(2)
C8 C -0.1051(4) -0.7930(3) -0.3905(2)
C9 C -0.0212(4) -0.7143(3) -0.3576(2)
C10 C -0.0372(4) -0.6001(3) -0.3705(2)
C11 C -0.3394(5) -0.6022(4) -0.4944(2)
C12 C -0.0941(5) -0.9154(3) -0.3740(2)
C13 C 0.0511(5) -0.5146(4) -0.3341(2)
C14 C -0.2951(5) -0.8424(3) -0.4720(2)
C15 C -0.4543(5) -0.9974(3) -0.4322(2)
C16 C -0.5827(4) -0.9151(3) -0.3621(2)
C17 C -0.4947(5) -0.8363(4) -0.3871(2)
C18 C 0.0786(4) -0.7490(4) -0.3042(2)
C19 C -0.1353(4) -0.7232(3) -0.2318(2)
C20 C -0.0305(4) -0.6933(3) -0.1419(2)
C21 C 0.0757(4) -0.7089(3) -0.1850(2)
H1 H -0.3608(4) -0.2718(3) -0.4472(2)
H2 H -0.4872(5) -0.3659(3) -0.2740(2)
H3 H -0.2838(4) -0.4913(3) -0.3056(2)
H4 H -0.0722(4) -0.4026(3) -0.4163(2)
H5 H -0.1787(4) -0.4306(3) -0.4732(2)
H6 H -0.2944(5) -0.5577(4) -0.5275(2)
H7 H -0.4092(5) -0.5569(4) -0.4714(2)
H8 H -0.3885(5) -0.6656(4) -0.5134(2)
H9 H -0.1595(5) -0.9575(3) -0.4011(2)
H10 H -0.1205(5) -0.9266(3) -0.3298(2)
H11 H 0.0046(5) -0.9410(3) -0.3808(2)
H12 H 0.1075(5) -0.4704(4) -0.3638(2)
H13 H 0.1158(5) -0.5524(4) -0.3048(2)
H14 H -0.0138(5) -0.4662(4) -0.3104(2)
H15 H -0.3396(5) -0.8062(3) -0.5084(2)
H16 H -0.2325(5) -0.9022(3) -0.4866(2)
H17 H -0.4126(5) -1.0545(3) -0.4593(2)
H18 H -0.6532(4) -0.9029(3) -0.3285(2)
H19 H -0.4899(5) -0.7581(4) -0.3753(2)
H20 H 0.1013(4) -0.8278(4) -0.3080(2)
H21 H 0.1674(4) -0.7058(4) -0.3065(2)
H22 H -0.2086(4) -0.7336(3) -0.2644(2)
H23 H -0.0165(4) -0.6790(3) -0.0969(2)
H24 H 0.1793(4) -0.7067(3) -0.1772(2)
Cu1_2 Cu -0.63188(5) -1.17474(4) -0.36005(2)
Cu1B Cu -0.36812(5) -0.67474(4) -0.13995(2)
N3_2 N -0.5577(4) -0.0159(3) -0.3913(2)
N5B N -0.8362(3) -0.2017(3) -0.3286(2)
O1 O -0.376(2) -0.0812(12) -0.1070(7)
N13? N -0.651(2) -0.3884(10) -0.4938(9)
loop_
_geom_bond_atom_site_label_1
_geom_bond_atom_site_label_2
_geom_bond_site_symmetry_1
_geom_bond_site_symmetry_2
Cu1 N1 1_555 1_555
N1 C1 1_555 1_555
N2 C1 1_555 1_555
N3 C15 1_555 1_555
N4 C14 1_555 1_555
N5 C19 1_555 1_555
N6 C18 1_555 1_555
N7 Cu1 1_555 1_555
N8 N7 1_555 1_555
N9 N8 1_555 1_555
N10 Cu1 1_555 1_555
N11 N10 1_555 1_555
N12 N11 1_555 1_555
C1 H1 1_555 1_555
C2 N1 1_555 1_555
C3 N2 1_555 1_555
C4 N2 1_555 1_555
C5 C4 1_555 1_555
C6 C5 1_555 1_555
C7 C6 1_555 1_555
C8 C7 1_555 1_555
C9 C8 1_555 1_555
C10 C5 1_555 1_555
C11 C6 1_555 1_555
C12 C8 1_555 1_555
C13 C10 1_555 1_555
C14 C7 1_555 1_555
C15 N4 1_555 1_555
C16 N3 1_555 1_555
C17 N4 1_555 1_555
C18 C9 1_555 1_555
C19 N6 1_555 1_555
C20 N5 1_555 1_555
C21 N6 1_555 1_555
H2 C2 1_555 1_555
H3 C3 1_555 1_555
H4 C4 1_555 1_555
H5 C4 1_555 1_555
H6 C11 1_555 1_555
H7 C11 1_555 1_555
H8 C11 1_555 1_555
H9 C12 1_555 1_555
H10 C12 1_555 1_555
H11 C12 1_555 1_555
H12 C13 1_555 1_555
H13 C13 1_555 1_555
H14 C13 1_555 1_555
H15 C14 1_555 1_555
H16 C14 1_555 1_555
H17 C15 1_555 1_555
H18 C16 1_555 1_555
H19 C17 1_555 1_555
H20 C18 1_555 1_555
H21 C18 1_555 1_555
H22 C19 1_555 1_555
H23 C20 1_555 1_555
H24 C21 1_555 1_555
Cu1_2 N3 1_555 1_555
Cu1B N5 1_555 1_555
N3_2 Cu1 1_555 1_555
N5B Cu1 1_555 1_555
C2 C3 1_555 1_555
C9 C10 1_555 1_555
C16 C17 1_555 1_555
C20 C21 1_555 1_555

#END
