
#######################################################################
#
#                 Cambridge Crystallographic Data Centre
#                                CCDC 
#
#######################################################################
#
# If this CIF has been generated from an entry in the Cambridge 
# Structural Database, then it will include bibliographic, chemical, 
# crystal, experimental, refinement or atomic coordinate data resulting 
# from the CCDC's data processing and validation procedures.
#
#######################################################################

data_CENKOW
_symmetry_cell_setting           orthorhombic
_symmetry_space_group_name_H-M   'P n a 21'
_symmetry_Int_Tables_number      33
_space_group_name_Hall           'P 2c -2n'
loop_
_symmetry_equiv_pos_site_id
_symmetry_equiv_pos_as_xyz
1 x,y,z
2 -x,-y,1/2+z
3 1/2-x,1/2+y,1/2+z
4 1/2+x,1/2-y,z
_cell_length_a                   12.315(3)
_cell_length_b                   15.569(3)
_cell_length_c                   12.727(3)
_cell_angle_alpha                90
_cell_angle_beta                 90
_cell_angle_gamma                90
_cell_volume                     2440.18
loop_
_atom_site_label
_atom_site_type_symbol
_atom_site_fract_x
_atom_site_fract_y
_atom_site_fract_z
Cu1 Cu 0.51250(2) 0.945968(19) 0.67279(3)
S1 S 0.46046(6) 0.82492(5) 0.80636(7)
O4 O 0.5301(2) 0.81987(15) 0.70992(19)
O5 O 0.5188(3) 0.8018(2) 0.8996(2)
O6 O 0.3637(2) 0.77255(17) 0.7920(2)
O7 O 0.4312(2) 0.91828(15) 0.8061(2)
N1 N 0.7666(2) 0.97483(17) 0.4626(2)
N2 N 0.6455(2) 0.94263(15) 0.5829(2)
N3 N 1.2688(2) 0.95704(16) 0.4285(2)
N4 N 1.3809(2) 0.93703(16) 0.5609(2)
N5 N 0.98478(17) 0.71229(15) 0.1869(2)
N6 N 0.98886(18) 0.57237(16) 0.2020(2)
C1 C 0.9141(2) 0.97564(18) 0.3287(2)
C2 C 1.0187(2) 1.00143(19) 0.3580(2)
C3 C 1.1092(2) 0.96479(17) 0.3094(2)
C4 C 1.0961(2) 0.89854(18) 0.2360(2)
C5 C 0.9911(2) 0.87026(19) 0.2094(2)
C6 C 0.8996(2) 0.90866(19) 0.2553(2)
C7 C 0.8167(3) 1.0212(2) 0.3737(3)
H3 H 0.8391 1.0791 0.3977
H4 H 0.7619 1.0287 0.3176
C8 C 0.6679(2) 0.99104(19) 0.5008(2)
H5 H 0.6196 1.0325 0.4724
C9 C 0.7351(3) 0.8917(2) 0.5977(3)
H6 H 0.7426 0.8493 0.6509
C10 C 0.8114(3) 0.9113(2) 0.5245(3)
H7 H 0.8814 0.8863 0.5174
C11 C 1.0339(3) 1.0682(2) 0.4438(3)
H8 H 1.1055 1.0608 0.4762
H9 H 0.9773 1.0611 0.4972
H10 H 1.0288 1.1258 0.4132
C12 C 1.2217(2) 0.9981(2) 0.3342(2)
H11 H 1.2698 0.9875 0.2733
H12 H 1.2180 1.0610 0.3455
C13 C 1.3457(2) 0.9918(2) 0.4904(2)
H13 H 1.3714 1.0490 0.4838
C14 C 1.3253(3) 0.8617(3) 0.5406(3)
H14 H 1.3336 0.8097 0.5789
C15 C 1.2579(3) 0.8727(2) 0.4591(4)
H15 H 1.2118 0.8307 0.4284
C16 C 1.1939(2) 0.8565(2) 0.1842(3)
H16 H 1.2152 0.8897 0.1222
H17 H 1.1752 0.7978 0.1630
H18 H 1.2545 0.8548 0.2342
C17 C 0.9767(3) 0.79696(19) 0.1340(3)
H19 H 0.9048 0.8019 0.0997
H20 H 1.0329 0.8007 0.0785
C18 C 0.9829(2) 0.63704(19) 0.1358(3)
H21 H 0.9779 0.6312 0.0617
C19 C 0.9955(2) 0.6086(2) 0.3011(3)
H22 H 1.0015 0.5775 0.3651
C20 C 0.9922(2) 0.6946(2) 0.2925(3)
H23 H 0.9945 0.7351 0.3483
C21 C 0.7857(3) 0.8805(2) 0.2293(3)
H24 H 0.7696 0.8266 0.2659
H25 H 0.7791 0.8718 0.1533
H26 H 0.7342 0.9248 0.2519
Cu1_2 Cu 1.51250(2) 0.945968(19) 0.67279(3)
Cu1B Cu 0.98750(2) 0.445968(19) 0.17279(3)
N4_2 N 0.3809(2) 0.93703(16) 0.5609(2)
N6B N 0.51114(18) 1.07237(16) 0.7020(2)
O1 O 0.2355(3) 0.7139(3) 0.9657(3)
H1 H 0.166(4) 0.716(3) 0.940(4)
H2 H 0.272(4) 0.736(3) 0.897(5)
O2 O 0.0329(3) 0.7988(3) 0.5400(5)
O3 O 0.1513(12) 0.8388(8) 0.7125(12)
loop_
_geom_bond_atom_site_label_1
_geom_bond_atom_site_label_2
_geom_bond_site_symmetry_1
_geom_bond_site_symmetry_2
Cu1 O4 1_555 1_555
S1 O4 1_555 1_555
O1 H1 1_555 1_555
H2 O1 1_555 1_555
O5 S1 1_555 1_555
O6 S1 1_555 1_555
O7 Cu1 1_555 1_555
N1 C7 1_555 1_555
N2 Cu1 1_555 1_555
N3 C12 1_555 1_555
N4 C13 1_555 1_555
N5 C17 1_555 1_555
N6 C18 1_555 1_555
C1 C2 1_555 1_555
C2 C3 1_555 1_555
C3 C4 1_555 1_555
C4 C5 1_555 1_555
C5 C6 1_555 1_555
C6 C1 1_555 1_555
C7 C1 1_555 1_555
H3 C7 1_555 1_555
H4 C7 1_555 1_555
C8 N1 1_555 1_555
H5 C8 1_555 1_555
C9 N2 1_555 1_555
H6 C9 1_555 1_555
C10 N1 1_555 1_555
H7 C10 1_555 1_555
C11 C2 1_555 1_555
H8 C11 1_555 1_555
H9 C11 1_555 1_555
H10 C11 1_555 1_555
C12 C3 1_555 1_555
H11 C12 1_555 1_555
H12 C12 1_555 1_555
C13 N3 1_555 1_555
H13 C13 1_555 1_555
C14 N4 1_555 1_555
H14 C14 1_555 1_555
C15 N3 1_555 1_555
H15 C15 1_555 1_555
C16 C4 1_555 1_555
H16 C16 1_555 1_555
H17 C16 1_555 1_555
H18 C16 1_555 1_555
C17 C5 1_555 1_555
H19 C17 1_555 1_555
H20 C17 1_555 1_555
C18 N5 1_555 1_555
H21 C18 1_555 1_555
C19 N6 1_555 1_555
H22 C19 1_555 1_555
C20 N5 1_555 1_555
H23 C20 1_555 1_555
C21 C6 1_555 1_555
H24 C21 1_555 1_555
H25 C21 1_555 1_555
H26 C21 1_555 1_555
Cu1_2 N4 1_555 1_555
Cu1B N6 1_555 1_555
N4_2 Cu1 1_555 1_555
N6B Cu1 1_555 1_555
S1 O7 1_555 1_555
N2 C8 1_555 1_555
C9 C10 1_555 1_555
C14 C15 1_555 1_555
C19 C20 1_555 1_555

#END
