
#######################################################################
#
#                 Cambridge Crystallographic Data Centre
#                                CCDC 
#
#######################################################################
#
# If this CIF has been generated from an entry in the Cambridge 
# Structural Database, then it will include bibliographic, chemical, 
# crystal, experimental, refinement or atomic coordinate data resulting 
# from the CCDC's data processing and validation procedures.
#
#######################################################################

data_CENKEN
_symmetry_cell_setting           monoclinic
_symmetry_space_group_name_H-M   'P 21/n'
_symmetry_Int_Tables_number      14
_space_group_name_Hall           '-P 2yn'
loop_
_symmetry_equiv_pos_site_id
_symmetry_equiv_pos_as_xyz
1 x,y,z
2 1/2-x,1/2+y,1/2-z
3 -x,-y,-z
4 1/2+x,1/2-y,1/2+z
_cell_length_a                   9.7487(10)
_cell_length_b                   11.0061(15)
_cell_length_c                   15.1631(18)
_cell_angle_alpha                90
_cell_angle_beta                 94.360(11)
_cell_angle_gamma                90
_cell_volume                     1622.22
loop_
_atom_site_label
_atom_site_type_symbol
_atom_site_fract_x
_atom_site_fract_y
_atom_site_fract_z
Cu1 Cu 0.72938(6) 0.05225(6) 0.08119(4)
Cu2 Cu 0.60700(6) 0.04019(6) -0.13534(4)
Cu3 Cu 0.85771(7) -0.15033(6) -0.06202(4)
O1 O 0.7607(3) 0.0104(3) -0.0444(2)
H1 H 0.823(5) 0.055(5) -0.054(4)
O2 O 0.5362(3) -0.0713(3) 0.2309(2)
O3 O 0.4375(4) -0.1847(3) 0.4237(3)
N1 N 0.8057(4) -0.1332(4) -0.1879(3)
O4 O 0.6889(4) 0.0726(3) 0.2071(2)
N2 N 0.5209(4) 0.1427(4) -0.0517(3)
N3 N 0.9190(4) -0.1466(4) 0.0628(3)
N4 N 0.5690(4) 0.1454(4) 0.0359(3)
N5 N 0.7127(4) -0.0475(4) -0.2171(3)
C1 C 0.6350(6) -0.0032(5) 0.2551(4)
C2 C 0.4963(6) 0.2261(6) 0.0755(4)
H2 H 0.5085 0.2450 0.1354
N6 N 0.8768(4) -0.0605(4) 0.1180(3)
C3 C 0.7219(5) -0.0362(5) -0.3046(4)
H3 H 0.6695 0.0164 -0.3414
C4 C 0.5641(6) -0.1898(6) 0.4127(4)
C5 C 0.3985(6) 0.2800(5) 0.0161(4)
H4 H 0.3350 0.3401 0.0270
C6 C 0.8194(6) -0.1132(5) -0.3314(4)
H5 H 0.8464 -0.1232 -0.3884
C7 C 0.4184(5) 0.2231(5) -0.0620(4)
H6 H 0.3674 0.2384 -0.1152
C8 C 1.0172(5) -0.2128(5) 0.1076(4)
H7 H 1.0638 -0.2778 0.0845
C9 C 1.0381(6) -0.1700(5) 0.1919(4)
H8 H 1.0997 -0.1992 0.2367
O5 O 0.6265(4) -0.2826(5) 0.4065(3)
C10 C 0.8694(5) -0.1728(5) -0.2564(4)
H9 H 0.9376 -0.2321 -0.2540
C11 C 0.6302(9) -0.0662(8) 0.4139(5)
H10 H 0.5579 -0.0084 0.4238
H11 H 0.6937 -0.0640 0.4663
C12 C 0.9495(6) -0.0755(6) 0.1962(4)
H12 H 0.9404 -0.0280 0.2461
C13 C 0.6986(8) -0.0206(7) 0.3478(4)
H13 H 0.7786 -0.0719 0.3433
H14 H 0.7329 0.0584 0.3676
Cu1A Cu 0.77062(6) -0.44775(6) 0.41881(4)
Cu2B Cu 0.39300(6) -0.04019(6) 0.13534(4)
Cu3C Cu 0.35771(7) -0.34967(6) 0.43798(4)
O2B O 0.4638(3) 0.0713(3) -0.2309(2)
O3C O 0.9375(4) -0.3153(3) -0.0763(3)
O5A O 0.8735(4) 0.2174(5) 0.0935(3)
O5C O 1.1265(4) -0.2174(5) -0.0935(3)
loop_
_geom_bond_atom_site_label_1
_geom_bond_atom_site_label_2
_geom_bond_site_symmetry_1
_geom_bond_site_symmetry_2
Cu1 O1 1_555 1_555
Cu2 O1 1_555 1_555
Cu3 O1 1_555 1_555
O1 H1 1_555 1_555
O2 C1 1_555 1_555
O3 C4 1_555 1_555
N1 Cu3 1_555 1_555
O4 Cu1 1_555 1_555
N2 Cu2 1_555 1_555
N3 Cu3 1_555 1_555
N4 Cu1 1_555 1_555
N5 Cu2 1_555 1_555
C1 O4 1_555 1_555
C2 N4 1_555 1_555
H2 C2 1_555 1_555
N6 Cu1 1_555 1_555
C3 N5 1_555 1_555
H3 C3 1_555 1_555
C4 O5 1_555 1_555
C5 C2 1_555 1_555
H4 C5 1_555 1_555
C6 C3 1_555 1_555
H5 C6 1_555 1_555
C7 N2 1_555 1_555
H6 C7 1_555 1_555
C8 N3 1_555 1_555
H7 C8 1_555 1_555
C9 C8 1_555 1_555
H8 C9 1_555 1_555
O5 Cu1A 1_555 1_555
C10 N1 1_555 1_555
H9 C10 1_555 1_555
C11 C4 1_555 1_555
H10 C11 1_555 1_555
H11 C11 1_555 1_555
C12 N6 1_555 1_555
H12 C12 1_555 1_555
C13 C1 1_555 1_555
H13 C13 1_555 1_555
H14 C13 1_555 1_555
Cu2B O2 1_555 1_555
Cu3C O3 1_555 1_555
O2B Cu2 1_555 1_555
O3C Cu3 1_555 1_555
O5A Cu1 1_555 1_555
O5C Cu3 1_555 1_555
N1 N5 1_555 1_555
N2 N4 1_555 1_555
N3 N6 1_555 1_555
C5 C7 1_555 1_555
C6 C10 1_555 1_555
C9 C12 1_555 1_555
O5 Cu3C 1_555 1_555
C11 C13 1_555 1_555

#END
