
#######################################################################
#
#                 Cambridge Crystallographic Data Centre
#                                CCDC 
#
#######################################################################
#
# If this CIF has been generated from an entry in the Cambridge 
# Structural Database, then it will include bibliographic, chemical, 
# crystal, experimental, refinement or atomic coordinate data resulting 
# from the CCDC's data processing and validation procedures.
#
#######################################################################

data_CENLUE
_symmetry_cell_setting           orthorhombic
_symmetry_space_group_name_H-M   'P n a 21'
_symmetry_Int_Tables_number      33
_space_group_name_Hall           'P 2c -2n'
loop_
_symmetry_equiv_pos_site_id
_symmetry_equiv_pos_as_xyz
1 x,y,z
2 -x,-y,1/2+z
3 1/2+x,1/2-y,z
4 1/2-x,1/2+y,1/2+z
_cell_length_a                   14.052(2)
_cell_length_b                   29.581(5)
_cell_length_c                   13.319(2)
_cell_angle_alpha                90
_cell_angle_beta                 90
_cell_angle_gamma                90
_cell_volume                     5536.34
loop_
_atom_site_label
_atom_site_type_symbol
_atom_site_fract_x
_atom_site_fract_y
_atom_site_fract_z
Pb1 Pb -0.86247(3) -0.105121(16) -1.51109(4)
Pb2 Pb -0.09573(3) -0.096584(16) -0.66673(5)
Pb3 Pb -0.15334(4) 0.005491(16) -0.83459(5)
O1 O -0.8787(8) 0.0065(4) -1.1410(9)
O2 O -0.7346(7) -0.0166(4) -1.1797(9)
O3 O -1.0099(6) -0.0489(3) -0.8045(7)
O4 O -0.9080(7) -0.0866(4) -0.7076(9)
O5 O -0.6871(7) -0.1140(4) -1.5129(12)
O6 O -0.7481(8) -0.0848(4) -1.3734(10)
O7 O -0.0596(8) -0.1043(4) -1.4549(9)
O8 O 0.0438(7) -0.0734(3) -1.3492(9)
O9 O -0.2332(11) 0.0071(7) -1.0161(14)
O10 O -0.0918(11) -0.0196(8) -1.0132(14)
O11 O -0.2764(8) -0.1080(4) -0.6723(13)
O12 O -0.2173(6) -0.0729(3) -0.8008(9)
N1 N -0.8721(9) -0.1759(4) -1.4019(9)
N2 N -0.8520(9) -0.1851(4) -1.6065(10)
N3 N -0.0733(9) -0.1547(5) -0.8118(10)
N4 N -0.0977(10) -0.1865(5) -0.6185(11)
C1 C -0.7986(9) -0.0098(5) -1.1203(11)
C2 C -0.5753(9) -0.0569(4) -0.8466(11)
C3 C -0.6766(9) -0.0483(4) -0.8781(10)
C4 C -0.8639(9) -0.0335(4) -0.9468(11)
H1 H -0.9261 -0.0293 -0.9686
C5 C -0.6905(9) -0.0327(4) -0.9767(10)
H2 H -0.6392 -0.0279 -1.0196
C6 C -0.9260(9) -0.0622(4) -0.7830(10)
C7 C -0.8412(9) -0.0493(4) -0.8510(10)
C8 C -0.7836(8) -0.0246(4) -1.0081(11)
C9 C -0.7515(8) -0.0579(4) -0.8202(10)
H3 H -0.7416 -0.0707 -0.7574
C10 C -0.4961(10) -0.0411(6) -0.9025(13)
H4 H -0.5057 -0.0250 -0.9616
C11 C -0.5567(11) -0.0810(6) -0.7590(14)
H5 H -0.6069 -0.0910 -0.7192
C12 C -0.4033(9) -0.0497(5) -0.8689(12)
H6 H -0.3521 -0.0381 -0.9047
C13 C -0.4640(13) -0.0903(6) -0.7310(14)
H7 H -0.4540 -0.1075 -0.6736
C14 C -0.3862(10) -0.0754(4) -0.7829(12)
C15 C -0.2878(8) -0.0859(4) -0.7461(12)
C16 C -0.1820(9) -0.0332(4) -1.1606(12)
C17 C -0.1074(9) -0.0480(5) -1.2151(11)
H8 H -0.0457 -0.0456 -1.1904
C18 C -0.1247(8) -0.0671(4) -1.3105(11)
C19 C -0.2179(8) -0.0733(4) -1.3404(12)
H9 H -0.2291 -0.0890 -1.3997
C20 C -0.4123(10) -0.0772(5) -1.4290(14)
H10 H -0.3621 -0.0782 -1.4744
C21 C -0.2919(8) -0.0583(4) -1.2895(11)
C22 C -0.2752(10) -0.0382(4) -1.1997(11)
H11 H -0.3265 -0.0273 -1.1627
C23 C -0.3924(9) -0.0657(4) -1.3244(14)
C24 C -0.4717(10) -0.0633(6) -1.2581(12)
H12 H -0.4625 -0.0568 -1.1905
C25 C -0.5656(11) -0.0709(6) -1.2959(12)
H13 H -0.6178 -0.0665 -1.2542
C26 C -0.5789(10) -0.0841(5) -1.3890(13)
C27 C -0.5008(11) -0.0864(7) -1.4618(15)
H14 H -0.5120 -0.0939 -1.5285
C28 C -0.0414(10) -0.0834(4) -1.3805(11)
C29 C -0.1669(11) -0.0113(5) -1.0568(11)
C30 C -0.6777(11) -0.0956(5) -1.4255(14)
C31 C -0.0735(14) -0.2938(6) -0.756(3)
H15 H -0.0761 -0.3248 -0.7456
C32 C -0.0539(15) -0.2767(6) -0.857(3)
H16 H -0.0435 -0.2973 -0.9088
C33 C -0.0545(15) -0.1395(8) -0.9065(13)
H17 H -0.0596 -0.1085 -0.9168
C34 C -0.0288(17) -0.1651(10) -0.9885(16)
H18 H -0.0129 -0.1519 -1.0496
C35 C -0.0278(19) -0.2125(10) -0.9744(16)
H19 H -0.0127 -0.2320 -1.0270
C36 C -0.0505(14) -0.2294(7) -0.879(2)
C37 C -0.0716(13) -0.1997(5) -0.7925(16)
C38 C -0.0866(11) -0.2168(5) -0.6939(17)
C39 C -0.0887(12) -0.2637(7) -0.674(2)
C40 C -0.1060(14) -0.2776(7) -0.583(2)
H20 H -0.1111 -0.3084 -0.5703
C41 C -0.1162(14) -0.2487(7) -0.510(2)
H21 H -0.1263 -0.2595 -0.4448
C42 C -0.1123(12) -0.2011(6) -0.5257(16)
H22 H -0.1196 -0.1809 -0.4728
C43 C -0.8733(12) -0.3015(5) -1.4274(15)
H23 H -0.8775 -0.3273 -1.3876
C44 C -0.8513(10) -0.2656(5) -1.5934(14)
C45 C -0.8356(12) -0.2692(6) -1.6941(13)
H24 H -0.8317 -0.2977 -1.7230
C46 C -0.8254(12) -0.2314(7) -1.7547(15)
H25 H -0.8129 -0.2336 -1.8231
C47 C -0.8615(11) -0.3046(5) -1.527(2)
H26 H -0.8596 -0.3333 -1.5552
C48 C -0.8352(11) -0.1890(6) -1.7056(13)
H27 H -0.8298 -0.1628 -1.7436
C49 C -0.8594(10) -0.2218(5) -1.5470(12)
C50 C -0.8697(12) -0.2188(5) -1.4424(15)
C51 C -0.8794(13) -0.2578(5) -1.3849(13)
C52 C -0.8910(12) -0.2515(6) -1.2837(17)
H28 H -0.8989 -0.2767 -1.2427
C53 C -0.8914(16) -0.2078(7) -1.2392(12)
H29 H -0.8982 -0.2032 -1.1705
C54 C -0.8806(12) -0.1725(6) -1.3080(12)
H30 H -0.8794 -0.1434 -1.2816
Pb1_2 Pb -0.86247(3) -0.105121(16) -0.51109(4)
Pb1_3 Pb 0.13753(3) -0.105121(16) -1.51109(4)
Pb2_2 Pb -1.09573(3) -0.096584(16) -0.66673(5)
Pb2_3 Pb -0.09573(3) -0.096584(16) -1.66673(5)
Pb2A Pb -0.90427(3) 0.096584(16) -1.16673(5)
Pb3_2 Pb -1.15334(4) 0.005491(16) -0.83459(5)
Pb3A Pb -0.84666(4) -0.005491(16) -1.33459(5)
Pb3A_2 Pb 0.15334(4) -0.005491(16) -1.33459(5)
O1A O -0.1213(8) -0.0065(4) -0.6410(9)
O2A O -0.2654(7) 0.0166(4) -0.6797(9)
O3_2 O -0.0099(6) -0.0489(3) -0.8045(7)
O4_2 O -0.9080(7) -0.0866(4) -1.7076(9)
O4_3 O 0.0920(7) -0.0866(4) -0.7076(9)
O6A O -0.2519(8) 0.0848(4) -0.8734(10)
O7_2 O -1.0596(8) -0.1043(4) -1.4549(9)
O7_3 O -0.0596(8) -0.1043(4) -0.4549(9)
O8_2 O -0.9562(7) -0.0734(3) -1.3492(9)
O8A O -0.0438(7) 0.0734(3) -0.8492(9)
N5 N 0.1847(14) -0.2893(5) -0.9753(15)
N6 N 0.2279(14) -0.1982(5) -0.9974(13)
C55 C 0.3622(13) -0.2469(7) -1.2125(16)
H31 H 0.4017 -0.2381 -1.2649
C56 C 0.3379(15) -0.2921(6) -1.2037(18)
H32 H 0.3627 -0.3133 -1.2481
C57 C 0.2772(13) -0.3053(6) -1.1290(15)
C58 C 0.2430(13) -0.2757(6) -1.0548(15)
C59 C 0.2524(16) -0.3494(6) -1.1192(18)
H33 H 0.2707 -0.3704 -1.1673
C60 C 0.198(2) -0.3631(7) -1.034(2)
H34 H 0.1856 -0.3937 -1.0230
C61 C 0.1636(18) -0.3324(6) -0.9694(19)
H35 H 0.1232 -0.3419 -0.9183
C62 C 0.2689(15) -0.2272(5) -1.0675(13)
C63 C 0.3298(16) -0.2141(7) -1.1457(16)
C64 C 0.311(3) -0.1390(8) -1.092(2)
H36 H 0.3256 -0.1084 -1.0973
C65 C 0.348(2) -0.1671(7) -1.154(3)
H37 H 0.3873 -0.1565 -1.2046
C66 C 0.250(3) -0.1533(7) -1.017(3)
H38 H 0.2209 -0.1314 -0.9771
loop_
_geom_bond_atom_site_label_1
_geom_bond_atom_site_label_2
_geom_bond_site_symmetry_1
_geom_bond_site_symmetry_2
Pb1 O5 1_555 1_555
Pb2 O11 1_555 1_555
Pb3 O9 1_555 1_555
O1 C1 1_555 1_555
O2 C1 1_555 1_555
O3 C6 1_555 1_555
O4 C6 1_555 1_555
O5 C30 1_555 1_555
O6 Pb1 1_555 1_555
O7 C28 1_555 1_555
O8 C28 1_555 1_555
O9 C29 1_555 1_555
O10 Pb3 1_555 1_555
O11 C15 1_555 1_555
O12 Pb2 1_555 1_555
N1 Pb1 1_555 1_555
N2 Pb1 1_555 1_555
N3 Pb2 1_555 1_555
N4 Pb2 1_555 1_555
C1 C8 1_555 1_555
C2 C3 1_555 1_555
C3 C5 1_555 1_555
C4 H1 1_555 1_555
C5 H2 1_555 1_555
C6 C7 1_555 1_555
C7 C4 1_555 1_555
C8 C4 1_555 1_555
C9 C3 1_555 1_555
H3 C9 1_555 1_555
C10 C2 1_555 1_555
H4 C10 1_555 1_555
C11 C2 1_555 1_555
H5 C11 1_555 1_555
C12 C10 1_555 1_555
H6 C12 1_555 1_555
C13 C11 1_555 1_555
H7 C13 1_555 1_555
C14 C12 1_555 1_555
C15 O12 1_555 1_555
C16 C17 1_555 1_555
C17 H8 1_555 1_555
C18 C17 1_555 1_555
C19 C18 1_555 1_555
H9 C19 1_555 1_555
C20 H10 1_555 1_555
C21 C19 1_555 1_555
C22 C16 1_555 1_555
H11 C22 1_555 1_555
C23 C20 1_555 1_555
C24 C23 1_555 1_555
H12 C24 1_555 1_555
C25 C24 1_555 1_555
H13 C25 1_555 1_555
C26 C25 1_555 1_555
C27 C20 1_555 1_555
H14 C27 1_555 1_555
C28 C18 1_555 1_555
C29 O10 1_555 1_555
C30 O6 1_555 1_555
C31 H15 1_555 1_555
C32 C31 1_555 1_555
H16 C32 1_555 1_555
C33 N3 1_555 1_555
H17 C33 1_555 1_555
C34 C33 1_555 1_555
H18 C34 1_555 1_555
C35 C34 1_555 1_555
H19 C35 1_555 1_555
C36 C32 1_555 1_555
C37 N3 1_555 1_555
C38 N4 1_555 1_555
C39 C31 1_555 1_555
C40 C39 1_555 1_555
H20 C40 1_555 1_555
C41 C40 1_555 1_555
H21 C41 1_555 1_555
C42 N4 1_555 1_555
H22 C42 1_555 1_555
C43 H23 1_555 1_555
C44 C45 1_555 1_555
C45 H24 1_555 1_555
C46 C45 1_555 1_555
H25 C46 1_555 1_555
C47 C43 1_555 1_555
H26 C47 1_555 1_555
C48 N2 1_555 1_555
H27 C48 1_555 1_555
C49 N2 1_555 1_555
C50 N1 1_555 1_555
C51 C43 1_555 1_555
C52 C51 1_555 1_555
H28 C52 1_555 1_555
C53 C52 1_555 1_555
H29 C53 1_555 1_555
C54 N1 1_555 1_555
H30 C54 1_555 1_555
N5 C58 1_555 1_555
N6 C62 1_555 1_555
C55 H31 1_555 1_555
C56 C55 1_555 1_555
H32 C56 1_555 1_555
C57 C56 1_555 1_555
C58 C57 1_555 1_555
C59 C57 1_555 1_555
H33 C59 1_555 1_555
C60 C59 1_555 1_555
H34 C60 1_555 1_555
C61 N5 1_555 1_555
H35 C61 1_555 1_555
C62 C58 1_555 1_555
C63 C55 1_555 1_555
C64 H36 1_555 1_555
C65 C63 1_555 1_555
H37 C65 1_555 1_555
C66 N6 1_555 1_555
H38 C66 1_555 1_555
Pb1_2 O4 1_555 1_555
Pb1_3 O7 1_555 1_555
Pb2_2 O3 1_555 1_555
Pb2_3 O7 1_555 1_555
Pb2A O1 1_555 1_555
Pb3_2 O3 1_555 1_555
Pb3A O1 1_555 1_555
Pb3A_2 O8 1_555 1_555
O1A Pb2 1_555 1_555
O2A Pb3 1_555 1_555
O3_2 Pb2 1_555 1_555
O4_2 Pb1 1_555 1_555
O4_3 Pb2 1_555 1_555
O6A Pb3 1_555 1_555
O7_2 Pb1 1_555 1_555
O7_3 Pb2 1_555 1_555
O8_2 Pb1 1_555 1_555
O8A Pb3 1_555 1_555
Pb3 O12 1_555 1_555
Pb3 O1A 1_555 1_555
Pb3 O3_2 1_555 1_555
O2 Pb3A 1_555 1_555
O4 Pb2_2 1_555 1_555
O6 Pb3A 1_555 1_555
O8 Pb1_3 1_555 1_555
C5 C8 1_555 1_555
C7 C9 1_555 1_555
C13 C14 1_555 1_555
C14 C15 1_555 1_555
C16 C29 1_555 1_555
C21 C22 1_555 1_555
C21 C23 1_555 1_555
C26 C27 1_555 1_555
C26 C30 1_555 1_555
C35 C36 1_555 1_555
C36 C37 1_555 1_555
C37 C38 1_555 1_555
C38 C39 1_555 1_555
C41 C42 1_555 1_555
C44 C47 1_555 1_555
C44 C49 1_555 1_555
C46 C48 1_555 1_555
C49 C50 1_555 1_555
C50 C51 1_555 1_555
C53 C54 1_555 1_555
C60 C61 1_555 1_555
C62 C63 1_555 1_555
C64 C65 1_555 1_555
C64 C66 1_555 1_555
Pb3A O8_2 1_555 1_555

#END
