
#######################################################################
#
#                 Cambridge Crystallographic Data Centre
#                                CCDC 
#
#######################################################################
#
# If this CIF has been generated from an entry in the Cambridge 
# Structural Database, then it will include bibliographic, chemical, 
# crystal, experimental, refinement or atomic coordinate data resulting 
# from the CCDC's data processing and validation procedures.
#
#######################################################################

data_CENSOD
_symmetry_cell_setting           orthorhombic
_symmetry_space_group_name_H-M   'P b c a'
_symmetry_Int_Tables_number      61
_space_group_name_Hall           '-P 2ac 2ab'
loop_
_symmetry_equiv_pos_site_id
_symmetry_equiv_pos_as_xyz
1 x,y,z
2 1/2-x,1/2+y,z
3 x,1/2-y,1/2+z
4 1/2-x,-y,1/2+z
5 -x,-y,-z
6 1/2+x,1/2-y,-z
7 -x,1/2+y,1/2-z
8 1/2+x,y,1/2-z
_cell_length_a                   18.055(8)
_cell_length_b                   11.385(5)
_cell_length_c                   8.404(4)
_cell_angle_alpha                90
_cell_angle_beta                 90
_cell_angle_gamma                90
_cell_volume                     1727.49
loop_
_atom_site_label
_atom_site_type_symbol
_atom_site_fract_x
_atom_site_fract_y
_atom_site_fract_z
Ag1 Ag 0.07564 0.15277 0.19494
S1 S 0.01756 0.24620 -0.05500
C1 C -0.02180 0.12570 -0.12890
N1 N -0.04990 0.04410 -0.17990
N2 N 0.20360 0.15250 0.23210
C2 C 0.24600 0.06860 0.16720
C3 C 0.32130 0.05940 0.19020
C4 C 0.35420 0.13960 0.28830
C5 C 0.31090 0.22690 0.35560
C6 C 0.23630 0.23060 0.32380
C7 C 0.36650 -0.03180 0.10730
H1 H 0.21900 0.01300 0.09600
H2 H 0.34600 -0.10800 0.13300
H3 H 0.35900 -0.02200 -0.00700
H4 H 0.41900 -0.03900 0.12000
H5 H 0.40900 0.14900 0.31200
H6 H 0.32400 0.27700 0.42100
H7 H 0.20600 0.29200 0.37900
S1B S 0.01756 0.25380 0.44500
Ag1B Ag 0.07564 0.34723 -0.30506
N1D N 0.04990 -0.04410 0.17990
Ag1D Ag -0.07564 -0.15277 -0.19494
loop_
_geom_bond_atom_site_label_1
_geom_bond_atom_site_label_2
_geom_bond_site_symmetry_1
_geom_bond_site_symmetry_2
Ag1 S1 1_555 1_555
S1 C1 1_555 1_555
C1 N1 1_555 1_555
N1 Ag1D 1_555 1_555
N2 Ag1 1_555 1_555
C2 N2 1_555 1_555
C3 C2 1_555 1_555
C4 C3 1_555 1_555
C5 C4 1_555 1_555
C6 N2 1_555 1_555
C7 C3 1_555 1_555
H1 C2 1_555 1_555
H2 C7 1_555 1_555
H3 C7 1_555 1_555
H4 C7 1_555 1_555
H5 C4 1_555 1_555
H6 C5 1_555 1_555
H7 C6 1_555 1_555
S1B Ag1 1_555 1_555
Ag1B S1 1_555 1_555
N1D Ag1 1_555 1_555
C5 C6 1_555 1_555

#END
