
#######################################################################
#
#                 Cambridge Crystallographic Data Centre
#                                CCDC 
#
#######################################################################
#
# If this CIF has been generated from an entry in the Cambridge 
# Structural Database, then it will include bibliographic, chemical, 
# crystal, experimental, refinement or atomic coordinate data resulting 
# from the CCDC's data processing and validation procedures.
#
#######################################################################

data_CENSIX
_symmetry_cell_setting           orthorhombic
_symmetry_space_group_name_H-M   'P n 21 a'
_symmetry_Int_Tables_number      33
_space_group_name_Hall           'P -2ac -2n'
loop_
_symmetry_equiv_pos_site_id
_symmetry_equiv_pos_as_xyz
1 x,y,z
2 1/2-x,1/2+y,1/2+z
3 1/2+x,y,1/2-z
4 -x,1/2+y,-z
_cell_length_a                   18.350(5)
_cell_length_b                   11.209(3)
_cell_length_c                   4.180(1)
_cell_angle_alpha                90
_cell_angle_beta                 90
_cell_angle_gamma                90
_cell_volume                     859.764
loop_
_atom_site_label
_atom_site_type_symbol
_atom_site_fract_x
_atom_site_fract_y
_atom_site_fract_z
Ag1 Ag 0.21648 0.00000 0.09400
S1 S 0.29470 -0.04920 -0.39350
C1 C 0.29840 -0.19530 -0.40310
N1 N 0.30200 -0.29950 -0.41080
N2 N 0.09870 -0.07000 0.20400
C2 C 0.07480 -0.17560 0.11900
C3 C 0.00360 -0.21200 0.18800
C4 C -0.04210 -0.13620 0.35440
C5 C -0.01670 -0.02900 0.44020
C6 C 0.05480 0.00190 0.36700
C7 C 0.12750 -0.25490 -0.05730
H1 H 0.10000 -0.32600 -0.20400
H2 H 0.15600 -0.20700 -0.19600
H3 H 0.15800 -0.29300 0.09500
H4 H -0.01400 -0.29000 0.11500
H5 H -0.09100 -0.15700 0.40100
H6 H -0.04700 0.02600 0.55800
H7 H 0.07300 0.07900 0.43800
S1_2 S 0.29470 -0.04920 0.60650
Ag1_2 Ag 0.21648 0.00000 -0.90600
N1A N 0.19800 0.20050 0.08920
Ag1A Ag 0.28352 -0.50000 -0.40600
loop_
_geom_bond_atom_site_label_1
_geom_bond_atom_site_label_2
_geom_bond_site_symmetry_1
_geom_bond_site_symmetry_2
Ag1 S1 1_555 1_555
S1 C1 1_555 1_555
C1 N1 1_555 1_555
N1 Ag1A 1_555 1_555
N2 Ag1 1_555 1_555
C2 N2 1_555 1_555
C3 C2 1_555 1_555
C4 C3 1_555 1_555
C5 C4 1_555 1_555
C6 N2 1_555 1_555
C7 C2 1_555 1_555
H1 C7 1_555 1_555
H2 C7 1_555 1_555
H3 C7 1_555 1_555
H4 C3 1_555 1_555
H5 C4 1_555 1_555
H6 C5 1_555 1_555
H7 C6 1_555 1_555
S1_2 Ag1 1_555 1_555
Ag1_2 S1 1_555 1_555
N1A Ag1 1_555 1_555
C5 C6 1_555 1_555

#END
