
#######################################################################
#
#                 Cambridge Crystallographic Data Centre
#                                CCDC 
#
#######################################################################
#
# If this CIF has been generated from an entry in the Cambridge 
# Structural Database, then it will include bibliographic, chemical, 
# crystal, experimental, refinement or atomic coordinate data resulting 
# from the CCDC's data processing and validation procedures.
#
#######################################################################

data_CENSUJ
_symmetry_cell_setting           monoclinic
_symmetry_space_group_name_H-M   'P 21/c'
_symmetry_Int_Tables_number      14
_space_group_name_Hall           '-P 2ybc'
loop_
_symmetry_equiv_pos_site_id
_symmetry_equiv_pos_as_xyz
1 x,y,z
2 -x,1/2+y,1/2-z
3 -x,-y,-z
4 x,1/2-y,1/2+z
_cell_length_a                   8.481(3)
_cell_length_b                   8.102(2)
_cell_length_c                   13.676(7)
_cell_angle_alpha                90
_cell_angle_beta                 97.41(3)
_cell_angle_gamma                90
_cell_volume                     931.872
loop_
_atom_site_label
_atom_site_type_symbol
_atom_site_fract_x
_atom_site_fract_y
_atom_site_fract_z
Ag1 Ag 0.17160 0.05270 0.13410
S1 S 0.03020 -0.19720 0.06580
C1 C -0.04030 -0.27720 0.16320
N1 N 0.08880 0.16430 0.27190
N2 N 0.41540 0.16120 0.12110
C2 C 0.43400 0.32470 0.11770
C3 C 0.58380 0.39480 0.11980
C4 C 0.71540 0.29460 0.13030
C5 C 0.69610 0.12820 0.13310
C6 C 0.54290 0.06100 0.12900
C7 C 0.28670 0.42990 0.10740
C8 C 0.51820 -0.12250 0.12960
H1 H 0.20700 0.40400 0.03600
H2 H 0.24200 0.41700 0.17500
H3 H 0.31500 0.53900 0.10600
H4 H 0.60900 0.52000 0.11700
H5 H 0.80400 0.32500 0.14200
H6 H 0.77000 0.06100 0.15600
H7 H 0.46300 -0.14300 0.18600
H8 H 0.45100 -0.13400 0.07000
H9 H 0.62200 -0.17800 0.16100
N1A N -0.08880 -0.33570 0.22810
C1A C 0.04030 0.22280 0.33680
Ag1A Ag -0.17160 -0.44730 0.36590
S1A S -0.03020 0.30280 0.43420
S1A_2 S -0.03020 -0.69720 0.43420
N2A N -0.41540 -0.33880 0.37890
Ag1A_2 Ag -0.17160 0.55270 0.36590
C2A C -0.43400 -0.17530 0.38230
C6A C -0.54290 -0.43900 0.37100
C3A C -0.58380 -0.10520 0.38020
C7A C -0.28670 -0.07010 0.39260
C5A C -0.69610 -0.37180 0.36690
C8A C -0.51820 -0.62250 0.37040
C4A C -0.71540 -0.20540 0.36970
H4A H -0.60900 0.02000 0.38300
H1A H -0.20700 -0.09600 0.46400
H2A H -0.24200 -0.08300 0.32500
H3A H -0.31500 0.03900 0.39400
H6A H -0.77000 -0.43900 0.34400
H7A H -0.46300 -0.64300 0.31400
H8A H -0.45100 -0.63400 0.43000
H9A H -0.62200 -0.67800 0.33900
H5A H -0.80400 -0.17500 0.35800
loop_
_geom_bond_atom_site_label_1
_geom_bond_atom_site_label_2
_geom_bond_site_symmetry_1
_geom_bond_site_symmetry_2
Ag1 S1 1_555 1_555
S1 C1 1_555 1_555
C1 N1A 1_555 1_555
N1 Ag1 1_555 1_555
N2 Ag1 1_555 1_555
C2 N2 1_555 1_555
C3 C2 1_555 1_555
C4 C3 1_555 1_555
C5 C4 1_555 1_555
C6 N2 1_555 1_555
C7 C2 1_555 1_555
C8 C6 1_555 1_555
H1 C7 1_555 1_555
H2 C7 1_555 1_555
H3 C7 1_555 1_555
H4 C3 1_555 1_555
H5 C4 1_555 1_555
H6 C5 1_555 1_555
H7 C8 1_555 1_555
H8 C8 1_555 1_555
H9 C8 1_555 1_555
N1A Ag1A 1_555 1_555
C1A N1 1_555 1_555
Ag1A S1A_2 1_555 1_555
S1A C1A 1_555 1_555
N2A Ag1A 1_555 1_555
Ag1A_2 S1A 1_555 1_555
C2A N2A 1_555 1_555
C6A N2A 1_555 1_555
C3A C2A 1_555 1_555
C7A C2A 1_555 1_555
C5A C6A 1_555 1_555
C8A C6A 1_555 1_555
C4A C3A 1_555 1_555
H4A C3A 1_555 1_555
H1A C7A 1_555 1_555
H2A C7A 1_555 1_555
H3A C7A 1_555 1_555
H6A C5A 1_555 1_555
H7A C8A 1_555 1_555
H8A C8A 1_555 1_555
H9A C8A 1_555 1_555
H5A C4A 1_555 1_555
C5 C6 1_555 1_555
C5A C4A 1_555 1_555

#END
