
#######################################################################
#
#                 Cambridge Crystallographic Data Centre
#                                CCDC 
#
#######################################################################
#
# If this CIF has been generated from an entry in the Cambridge 
# Structural Database, then it will include bibliographic, chemical, 
# crystal, experimental, refinement or atomic coordinate data resulting 
# from the CCDC's data processing and validation procedures.
#
#######################################################################

data_CENTAQ
_symmetry_cell_setting           orthorhombic
_symmetry_space_group_name_H-M   'P 21 21 21'
_symmetry_Int_Tables_number      19
_space_group_name_Hall           'P 2ac 2ab'
loop_
_symmetry_equiv_pos_site_id
_symmetry_equiv_pos_as_xyz
1 x,y,z
2 1/2+x,1/2-y,-z
3 -x,1/2+y,1/2-z
4 1/2-x,-y,1/2+z
_cell_length_a                   15.977(4)
_cell_length_b                   13.544(4)
_cell_length_c                   8.009(2)
_cell_angle_alpha                90
_cell_angle_beta                 90
_cell_angle_gamma                90
_cell_volume                     1733.09
loop_
_atom_site_label
_atom_site_type_symbol
_atom_site_fract_x
_atom_site_fract_y
_atom_site_fract_z
Ag1 Ag 0.18812 0.16522 0.08030
S1 S 0.12288 0.06298 -0.14390
C1 C 0.19180 -0.02480 -0.18000
N1 N 0.23650 -0.08850 -0.20680
N2 N 0.08180 0.22920 0.25470
C2 C 0.07900 0.20390 0.41380
C3 C 0.01880 0.23770 0.52520
C4 C -0.04210 0.29930 0.47010
C5 C -0.10160 0.39610 0.23320
C6 C -0.09860 0.42330 0.07160
C7 C -0.03450 0.38580 -0.03250
C8 C 0.02330 0.32180 0.02830
C9 C -0.04220 0.32890 0.30200
C10 C 0.02160 0.29200 0.19640
N3 N 0.28320 0.29410 0.02120
C11 C 0.33230 0.32050 0.14410
C12 C 0.39400 0.39400 0.13160
C13 C 0.40460 0.43970 -0.01220
C14 C 0.35950 0.46160 -0.30960
C15 C 0.30780 0.43730 -0.43480
C16 C 0.24750 0.36300 -0.41320
C17 C 0.24130 0.31470 -0.26350
C18 C 0.35430 0.41490 -0.15260
C19 C 0.29280 0.34090 -0.12890
H1 H 0.12300 0.15900 0.45000
H2 H 0.01600 0.21600 0.64300
H3 H -0.08000 0.32700 0.53000
H4 H -0.14500 0.41900 0.29100
H5 H -0.13800 0.47300 0.04200
H6 H -0.03600 0.40500 -0.15900
H7 H 0.06500 0.30300 -0.03000
H8 H 0.31300 0.29500 0.24700
H9 H 0.41800 0.41400 0.23200
H10 H 0.44700 0.47500 -0.03300
H11 H 0.40000 0.51400 -0.31700
H12 H 0.30700 0.47500 -0.54100
H13 H 0.21400 0.33200 -0.50700
H14 H 0.19800 0.27100 -0.24500
N1C N 0.26350 0.08850 0.29320
Ag1C Ag 0.31188 -0.16522 -0.41970
loop_
_geom_bond_atom_site_label_1
_geom_bond_atom_site_label_2
_geom_bond_site_symmetry_1
_geom_bond_site_symmetry_2
Ag1 S1 1_555 1_555
S1 C1 1_555 1_555
C1 N1 1_555 1_555
N1 Ag1C 1_555 1_555
N2 Ag1 1_555 1_555
C2 N2 1_555 1_555
C3 C2 1_555 1_555
C4 C3 1_555 1_555
C5 C6 1_555 1_555
C6 C7 1_555 1_555
C7 C8 1_555 1_555
C8 C10 1_555 1_555
C9 C4 1_555 1_555
C10 N2 1_555 1_555
N3 Ag1 1_555 1_555
C11 N3 1_555 1_555
C12 C11 1_555 1_555
C13 C12 1_555 1_555
C14 C15 1_555 1_555
C15 C16 1_555 1_555
C16 C17 1_555 1_555
C17 C19 1_555 1_555
C18 C13 1_555 1_555
C19 N3 1_555 1_555
H1 C2 1_555 1_555
H2 C3 1_555 1_555
H3 C4 1_555 1_555
H4 C5 1_555 1_555
H5 C6 1_555 1_555
H6 C7 1_555 1_555
H7 C8 1_555 1_555
H8 C11 1_555 1_555
H9 C12 1_555 1_555
H10 C13 1_555 1_555
H11 C14 1_555 1_555
H12 C15 1_555 1_555
H13 C16 1_555 1_555
H14 C17 1_555 1_555
N1C Ag1 1_555 1_555
C5 C9 1_555 1_555
C9 C10 1_555 1_555
C14 C18 1_555 1_555
C18 C19 1_555 1_555

#END
