
#######################################################################
#
#                 Cambridge Crystallographic Data Centre
#                                CCDC 
#
#######################################################################
#
# If this CIF has been generated from an entry in the Cambridge 
# Structural Database, then it will include bibliographic, chemical, 
# crystal, experimental, refinement or atomic coordinate data resulting 
# from the CCDC's data processing and validation procedures.
#
#######################################################################

data_CEPFOS
_symmetry_cell_setting           triclinic
_symmetry_space_group_name_H-M   'P -1'
_symmetry_Int_Tables_number      2
_space_group_name_Hall           '-P 1'
loop_
_symmetry_equiv_pos_site_id
_symmetry_equiv_pos_as_xyz
1 x,y,z
2 -x,-y,-z
_cell_length_a                   7.7509(12)
_cell_length_b                   10.5927(18)
_cell_length_c                   4.2001(7)
_cell_angle_alpha                91.81(2)
_cell_angle_beta                 101.993(18)
_cell_angle_gamma                88.544(19)
_cell_volume                     337.083
loop_
_atom_site_label
_atom_site_type_symbol
_atom_site_fract_x
_atom_site_fract_y
_atom_site_fract_z
I1 I 1.78437(3) -1.08075(2) -0.27941(5)
Cu1 Cu 1.87631(6) -0.94129(4) -0.71290(11)
N1 N 1.2678(4) -0.2217(3) -1.2079(8)
C1 C 1.2226(5) -0.3338(3) -1.3552(8)
C2 C 1.0611(5) -0.3390(4) -1.6212(10)
H1 H 0.971(6) -0.351(4) -1.528(11)
H2 H 1.052(7) -0.258(5) -1.746(12)
H3 H 1.058(7) -0.404(6) -1.778(14)
N2 N 1.3096(4) -0.4425(3) -1.2815(7)
C3 C 1.4540(5) -0.4390(3) -1.0416(8)
C4 C 1.4868(5) -0.6720(3) -1.1150(10)
H4 H 1.397(6) -0.672(4) -1.266(10)
C5 C 1.5842(5) -0.7802(3) -1.0243(10)
H5 H 1.542(5) -0.862(4) -1.131(9)
Cu1A Cu 1.12369(6) -0.05871(4) -1.28710(11)
C3A C 1.5460(5) -0.5610(3) -0.9584(8)
N2A N 1.6904(4) -0.5575(3) -0.7185(7)
C1A C 1.7774(5) -0.6662(3) -0.6448(8)
N1A N 1.7322(4) -0.7783(3) -0.7921(8)
I1_2 I 1.78437(3) -1.08075(2) -1.27941(5)
I1A I 2.21563(3) -0.91925(2) -0.72059(5)
Cu1A_2 Cu 2.12369(6) -1.05871(4) -0.28710(11)
Cu1A_3 Cu 2.12369(6) -1.05871(4) -1.28710(11)
C2A C 1.9389(5) -0.6610(4) -0.3788(10)
H1A H 2.029(6) -0.649(4) -0.472(11)
H2A H 1.948(7) -0.742(5) -0.254(12)
H3A H 1.942(7) -0.596(6) -0.222(14)
C4A C 1.5132(5) -0.3280(3) -0.8850(10)
H4A H 1.603(6) -0.328(4) -0.734(10)
C5A C 1.4158(5) -0.2198(3) -0.9757(10)
H5A H 1.458(5) -0.138(4) -0.869(9)
I1A_2 I 2.21563(3) -0.91925(2) 0.27941(5)
N1_2 N 2.2678(4) -1.2217(3) -0.2079(8)
Cu1_2 Cu 1.87631(6) -0.94129(4) 0.28710(11)
loop_
_geom_bond_atom_site_label_1
_geom_bond_atom_site_label_2
_geom_bond_site_symmetry_1
_geom_bond_site_symmetry_2
I1 Cu1 1_555 1_555
Cu1 N1A 1_555 1_555
N1 C1 1_555 1_555
C1 C2 1_555 1_555
C2 H1 1_555 1_555
H2 C2 1_555 1_555
H3 C2 1_555 1_555
N2 C1 1_555 1_555
C3 N2 1_555 1_555
C4 H4 1_555 1_555
C5 C4 1_555 1_555
H5 C5 1_555 1_555
Cu1A N1 1_555 1_555
C3A C3 1_555 1_555
N2A C3A 1_555 1_555
C1A N2A 1_555 1_555
N1A C5 1_555 1_555
I1_2 Cu1 1_555 1_555
I1A Cu1 1_555 1_555
Cu1A_2 I1 1_555 1_555
Cu1A_3 I1_2 1_555 1_555
C2A C1A 1_555 1_555
H1A C2A 1_555 1_555
H2A C2A 1_555 1_555
H3A C2A 1_555 1_555
C4A C3 1_555 1_555
H4A C4A 1_555 1_555
C5A N1 1_555 1_555
H5A C5A 1_555 1_555
I1A_2 Cu1A_2 1_555 1_555
N1_2 Cu1A_2 1_555 1_555
Cu1_2 I1 1_555 1_555
C4 C3A 1_555 1_555
C1A N1A 1_555 1_555
I1A Cu1A_2 1_555 1_555
I1A Cu1A_3 1_555 1_555
C4A C5A 1_555 1_555
I1A_2 Cu1_2 1_555 1_555

#END
