
#######################################################################
#
#                 Cambridge Crystallographic Data Centre
#                                CCDC 
#
#######################################################################
#
# If this CIF has been generated from an entry in the Cambridge 
# Structural Database, then it will include bibliographic, chemical, 
# crystal, experimental, refinement or atomic coordinate data resulting 
# from the CCDC's data processing and validation procedures.
#
#######################################################################

data_CEPFIM
_symmetry_cell_setting           triclinic
_symmetry_space_group_name_H-M   'P -1'
_symmetry_Int_Tables_number      2
_space_group_name_Hall           '-P 1'
loop_
_symmetry_equiv_pos_site_id
_symmetry_equiv_pos_as_xyz
1 x,y,z
2 -x,-y,-z
_cell_length_a                   6.111(8)
_cell_length_b                   7.445(8)
_cell_length_c                   9.335(8)
_cell_angle_alpha                82.29(8)
_cell_angle_beta                 83.07(8)
_cell_angle_gamma                67.23(8)
_cell_volume                     386.97
loop_
_atom_site_label
_atom_site_type_symbol
_atom_site_fract_x
_atom_site_fract_y
_atom_site_fract_z
Cu1 Cu 0.5000 0.5000 -0.5000
N1 N 0.4944(7) -0.3181(5) 0.3138(4)
C1 C 0.3859(9) -0.3148(7) 0.1926(5)
C2 C 0.2592(11) -0.4543(8) 0.1921(6)
H1 H 0.1841(70) -0.4699(53) 0.2868(14)
H2 H 0.3726(17) -0.5791(22) 0.1665(49)
H3 H 0.1409(57) -0.4022(34) 0.1227(36)
N2 N 0.3863(8) -0.1925(6) 0.0704(5)
C3 C 0.5025(8) -0.0669(6) 0.0691(5)
C4 C 0.6174(9) -0.0624(8) 0.1887(6)
H4 H 0.6970(9) 0.0221(8) 0.1867(6)
C5 C 0.6075(9) -0.1903(7) 0.3113(5)
H5 H 0.6793(9) -0.1886(7) 0.3932(5)
N3 N 0.1105(8) 0.7765(7) -0.3902(5)
O1 O 0.3392(7) 0.7395(5) -0.3882(4)
O2 O 0.0531(8) 0.6635(7) -0.4545(5)
O3 O 1.0346(9) 0.0824(8) -0.6719(7)
C3A C 0.4975(8) 0.0669(6) -0.0691(5)
N2A N 0.6137(8) 0.1925(6) -0.0704(5)
C1A C 0.6141(9) 0.3148(7) -0.1926(5)
N1A N 0.5056(7) 0.3181(5) -0.3138(4)
Cu1_2 Cu 0.5000 -0.5000 0.5000
N1_2 N 0.4944(7) 0.6819(5) -0.6862(4)
O1A O 0.6608(7) 0.2605(5) -0.6118(4)
N3A N 0.8895(8) 0.2235(7) -0.6098(5)
O2A O 0.9469(8) 0.3365(7) -0.5455(5)
O3A O -0.0346(9) 0.9176(8) -0.3281(7)
C5A C 0.3925(9) 0.1903(7) -0.3113(5)
C4A C 0.3826(9) 0.0624(8) -0.1887(6)
H4A H 0.3030(9) -0.0221(8) -0.1867(6)
H5A H 0.3207(9) 0.1886(7) -0.3932(5)
C2A C 0.7408(11) 0.4543(8) -0.1921(6)
H1A H 0.8159(70) 0.4699(53) -0.2868(14)
H2A H 0.6274(17) 0.5791(22) -0.1665(49)
H3A H 0.8591(57) 0.4022(34) -0.1227(36)
loop_
_geom_bond_atom_site_label_1
_geom_bond_atom_site_label_2
_geom_bond_site_symmetry_1
_geom_bond_site_symmetry_2
Cu1 O1 1_555 1_555
N1 C1 1_555 1_555
C1 C2 1_555 1_555
C2 H1 1_555 1_555
H2 C2 1_555 1_555
H3 C2 1_555 1_555
N2 C1 1_555 1_555
C3 N2 1_555 1_555
C4 C3 1_555 1_555
H4 C4 1_555 1_555
C5 N1 1_555 1_555
H5 C5 1_555 1_555
N3 O1 1_555 1_555
O2 Cu1 1_555 1_555
O3 N3A 1_555 1_555
C3A C3 1_555 1_555
N2A C3A 1_555 1_555
C1A N2A 1_555 1_555
N1A Cu1 1_555 1_555
Cu1_2 N1 1_555 1_555
N1_2 Cu1 1_555 1_555
O1A Cu1 1_555 1_555
N3A O1A 1_555 1_555
O2A Cu1 1_555 1_555
O3A N3 1_555 1_555
C5A N1A 1_555 1_555
C4A C3A 1_555 1_555
H4A C4A 1_555 1_555
H5A C5A 1_555 1_555
C2A C1A 1_555 1_555
H1A C2A 1_555 1_555
H2A C2A 1_555 1_555
H3A C2A 1_555 1_555
C4 C5 1_555 1_555
N3 O2 1_555 1_555
C1A N1A 1_555 1_555
N3A O2A 1_555 1_555
C5A C4A 1_555 1_555

#END
