
#######################################################################
#
#                 Cambridge Crystallographic Data Centre
#                                CCDC 
#
#######################################################################
#
# If this CIF has been generated from an entry in the Cambridge 
# Structural Database, then it will include bibliographic, chemical, 
# crystal, experimental, refinement or atomic coordinate data resulting 
# from the CCDC's data processing and validation procedures.
#
#######################################################################

data_CEPGIN
_symmetry_cell_setting           orthorhombic
_symmetry_space_group_name_H-M   'P b c n'
_symmetry_Int_Tables_number      60
_space_group_name_Hall           '-P 2n 2ab'
loop_
_symmetry_equiv_pos_site_id
_symmetry_equiv_pos_as_xyz
1 x,y,z
2 1/2+x,1/2+y,1/2-z
3 x,-y,1/2+z
4 1/2-x,1/2+y,z
5 -x,-y,-z
6 1/2-x,1/2-y,1/2+z
7 -x,y,1/2-z
8 1/2+x,1/2-y,-z
_cell_length_a                   3.822(5)
_cell_length_b                   15.405(5)
_cell_length_c                   19.739(5)
_cell_angle_alpha                90
_cell_angle_beta                 90
_cell_angle_gamma                90
_cell_volume                     1162.19
loop_
_atom_site_label
_atom_site_type_symbol
_atom_site_fract_x
_atom_site_fract_y
_atom_site_fract_z
Ag1 Ag 0.0000 -0.639030(17) 0.7500
N1 N -0.6889(5) -0.40199(13) 0.46639(9)
C1 C -0.8013(6) -0.36956(15) 0.40711(11)
N2 N -0.7957(5) -0.41441(13) 0.34821(8)
C2 C -0.5597(5) -0.48290(15) 0.46662(10)
N3 N 0.5000 -0.81977(19) 0.7500
C3 C -0.9321(7) -0.27879(19) 0.40662(12)
H1 H -1.094(10) -0.267(3) 0.377(2)
H2 H -1.027(10) -0.260(3) 0.451(2)
H3 H -0.758(14) -0.239(3) 0.397(2)
O1 O 0.3355(7) -0.85963(16) 0.70623(12)
O2 O 0.5000 -0.73843(19) 0.7500
C4 C -0.6645(7) -0.49455(17) 0.34909(11)
H4 H -0.659(8) -0.5269(19) 0.3066(14)
C5 C -0.5376(7) -0.53249(16) 0.40816(10)
H5 H -0.451(8) -0.583(2) 0.4098(15)
C2D C -0.4403(5) -0.51710(15) 0.53338(10)
N1D N -0.3111(5) -0.59801(13) 0.53361(9)
C1D C -0.1987(6) -0.63044(15) 0.59289(11)
N2D N -0.2043(5) -0.58559(13) 0.65179(8)
Ag1B Ag -1.0000 -0.360970(17) 0.2500
N2B N 0.2043(5) -0.58559(13) 0.84821(8)
Ag1_2 Ag 1.0000 -0.639030(17) 0.7500
O1F O 0.6645(7) -0.85963(16) 0.79377(12)
O2_2 O -0.5000 -0.73843(19) 0.7500
C4D C -0.3355(7) -0.50545(17) 0.65091(11)
H4D H -0.341(8) -0.4731(19) 0.6934(14)
C5D C -0.4624(7) -0.46751(16) 0.59184(10)
H5D H -0.549(8) -0.417(2) 0.5902(15)
C3D C -0.0679(7) -0.72121(19) 0.59338(12)
H1D H 0.094(10) -0.733(3) 0.623(2)
H2D H 0.027(10) -0.740(3) 0.549(2)
H3D H -0.242(14) -0.761(3) 0.603(2)
loop_
_geom_bond_atom_site_label_1
_geom_bond_atom_site_label_2
_geom_bond_site_symmetry_1
_geom_bond_site_symmetry_2
Ag1 O2 1_555 1_555
N1 C1 1_555 1_555
C1 N2 1_555 1_555
N2 C4 1_555 1_555
C2 N1 1_555 1_555
N3 O1 1_555 1_555
C3 C1 1_555 1_555
H1 C3 1_555 1_555
H2 C3 1_555 1_555
H3 C3 1_555 1_555
O2 N3 1_555 1_555
C4 H4 1_555 1_555
C5 C2 1_555 1_555
H5 C5 1_555 1_555
C2D C2 1_555 1_555
N1D C2D 1_555 1_555
C1D N1D 1_555 1_555
N2D Ag1 1_555 1_555
Ag1B N2 1_555 1_555
N2B Ag1 1_555 1_555
Ag1_2 O2 1_555 1_555
O1F N3 1_555 1_555
O2_2 Ag1 1_555 1_555
C4D N2D 1_555 1_555
H4D C4D 1_555 1_555
C5D C2D 1_555 1_555
H5D C5D 1_555 1_555
C3D C1D 1_555 1_555
H1D C3D 1_555 1_555
H2D C3D 1_555 1_555
H3D C3D 1_555 1_555
C4 C5 1_555 1_555
C1D N2D 1_555 1_555
C4D C5D 1_555 1_555

#END
