
#######################################################################
#
#                 Cambridge Crystallographic Data Centre
#                                CCDC 
#
#######################################################################
#
# If this CIF has been generated from an entry in the Cambridge 
# Structural Database, then it will include bibliographic, chemical, 
# crystal, experimental, refinement or atomic coordinate data resulting 
# from the CCDC's data processing and validation procedures.
#
#######################################################################

data_CEPGEJ
_symmetry_cell_setting           orthorhombic
_symmetry_space_group_name_H-M   'F d d 2'
_symmetry_Int_Tables_number      43
_space_group_name_Hall           'F 2 -2d'
loop_
_symmetry_equiv_pos_site_id
_symmetry_equiv_pos_as_xyz
1 x,y,z
2 -x,-y,z
3 1/4-x,1/4+y,1/4+z
4 1/4+x,1/4-y,1/4+z
5 x,1/2+y,1/2+z
6 -x,1/2-y,1/2+z
7 1/4-x,3/4+y,3/4+z
8 1/4+x,3/4-y,3/4+z
9 1/2+x,y,1/2+z
10 1/2-x,-y,1/2+z
11 3/4-x,1/4+y,3/4+z
12 3/4+x,1/4-y,3/4+z
13 1/2+x,1/2+y,z
14 1/2-x,1/2-y,z
15 3/4-x,3/4+y,1/4+z
16 3/4+x,3/4-y,1/4+z
_cell_length_a                   33.463(2)
_cell_length_b                   35.0765(18)
_cell_length_c                   4.0449(2)
_cell_angle_alpha                90
_cell_angle_beta                 90
_cell_angle_gamma                90
_cell_volume                     4747.76
loop_
_atom_site_label
_atom_site_type_symbol
_atom_site_fract_x
_atom_site_fract_y
_atom_site_fract_z
I1 I -0.031149(6) 0.089388(6) -0.16800(7)
Cu1 Cu 0.012506(10) 0.106426(9) 0.32318(13)
N1 N 0.11214(9) 0.03687(8) 0.6510(9)
C1 C 0.07866(10) 0.04812(9) 0.4974(9)
N2 N 0.06907(7) 0.08454(7) 0.4334(7)
C2 C 0.09552(8) 0.11173(8) 0.5215(8)
C3 C 0.13107(10) 0.10233(10) 0.6781(10)
H1 H 0.1491(12) 0.1195(11) 0.722(9)
C4 C 0.13771(11) 0.06427(11) 0.7400(11)
H2 H 0.1608(10) 0.0560(9) 0.854(12)
C5 C 0.05000(11) 0.01782(9) 0.3895(13)
H3 H 0.0621 0.0027 0.2189
H4 H 0.0261 0.0295 0.3058
H5 H 0.0434 0.0019 0.5745
N3 N 0.05842(10) 0.22265(8) 0.2620(10)
C6 C 0.03454(10) 0.19218(9) 0.2562(8)
N4 N 0.04589(7) 0.15640(6) 0.3382(9)
C7 C 0.08376(9) 0.15153(9) 0.4381(8)
C8 C 0.11035(11) 0.18173(10) 0.4601(11)
H6 H 0.1358(12) 0.1804(11) 0.547(15)
C9 C 0.09594(12) 0.21700(10) 0.3676(17)
H7 H 0.1105(14) 0.2395(13) 0.382(15)
C10 C -0.00770(11) 0.19809(11) 0.1475(13)
H8 H -0.0171 0.2223 0.2269
H9 H -0.0242 0.1781 0.2354
H10 H -0.0090 0.1977 -0.0895
Cu1_2 Cu 0.012506(10) 0.106426(9) -0.67682(13)
I1_2 I -0.031149(6) 0.089388(6) 0.83200(7)
loop_
_geom_bond_atom_site_label_1
_geom_bond_atom_site_label_2
_geom_bond_site_symmetry_1
_geom_bond_site_symmetry_2
I1 Cu1 1_555 1_555
Cu1 N2 1_555 1_555
N1 C1 1_555 1_555
C1 N2 1_555 1_555
N2 C2 1_555 1_555
C2 C3 1_555 1_555
C3 H1 1_555 1_555
C4 N1 1_555 1_555
H2 C4 1_555 1_555
C5 C1 1_555 1_555
H3 C5 1_555 1_555
H4 C5 1_555 1_555
H5 C5 1_555 1_555
N3 C6 1_555 1_555
C6 N4 1_555 1_555
N4 Cu1 1_555 1_555
C7 C2 1_555 1_555
C8 C7 1_555 1_555
H6 C8 1_555 1_555
C9 N3 1_555 1_555
H7 C9 1_555 1_555
C10 C6 1_555 1_555
H8 C10 1_555 1_555
H9 C10 1_555 1_555
H10 C10 1_555 1_555
Cu1_2 I1 1_555 1_555
I1_2 Cu1 1_555 1_555
C3 C4 1_555 1_555
N4 C7 1_555 1_555
C8 C9 1_555 1_555

#END
