
#######################################################################
#
#                 Cambridge Crystallographic Data Centre
#                                CCDC 
#
#######################################################################
#
# If this CIF has been generated from an entry in the Cambridge 
# Structural Database, then it will include bibliographic, chemical, 
# crystal, experimental, refinement or atomic coordinate data resulting 
# from the CCDC's data processing and validation procedures.
#
#######################################################################

data_CEPLAM
_symmetry_cell_setting           orthorhombic
_symmetry_space_group_name_H-M   'P 21 21 21'
_symmetry_Int_Tables_number      19
_space_group_name_Hall           'P 2ac 2ab'
loop_
_symmetry_equiv_pos_site_id
_symmetry_equiv_pos_as_xyz
1 x,y,z
2 1/2-x,-y,1/2+z
3 -x,1/2+y,1/2-z
4 1/2+x,1/2-y,-z
_cell_length_a                   10.121(2)
_cell_length_b                   15.235(3)
_cell_length_c                   19.027(4)
_cell_angle_alpha                90
_cell_angle_beta                 90
_cell_angle_gamma                90
_cell_volume                     2933.84
loop_
_atom_site_label
_atom_site_type_symbol
_atom_site_fract_x
_atom_site_fract_y
_atom_site_fract_z
Ni1 Ni 0.50334(12) 0.80496(6) -0.00183(6)
O1 O 0.5396(6) 0.9402(4) -0.0035(4)
O2 O 0.3460(6) 0.8882(4) -0.0353(3)
O3 O 0.4246(6) 1.6830(4) -0.0178(3)
O4 O 0.5162(8) 1.6152(4) 0.0733(3)
O5 O 0.2210(6) 1.2936(4) -0.0664(3)
O6 O 0.6749(7) 0.7631(4) 0.0418(3)
H1 H 0.754(4) 0.790(5) 0.046(5)
H2 H 0.696(5) 0.717(3) 0.015(3)
N1 N 0.4255(9) 0.8242(5) 0.2132(4)
N2 N 0.3126(11) 0.8704(7) 0.1936(5)
N3 N 0.4265(8) 0.8164(5) 0.0983(4)
N4 N 1.0616(9) 0.7192(5) 0.2195(4)
N5 N 1.1734(9) 0.6722(7) 0.2093(5)
N6 N 1.0695(8) 0.6987(5) 0.1064(3)
C1 C 0.6101(11) 0.7992(8) 0.2960(5)
C2 C 0.6964(12) 0.8679(7) 0.2812(5)
C3 C 0.8338(12) 0.8519(7) 0.2819(5)
C4 C 0.8782(12) 0.7691(8) 0.2970(5)
C5 C 0.7918(13) 0.7005(7) 0.3129(5)
C6 C 0.6519(14) 0.7160(7) 0.3128(6)
C7 C 0.4595(11) 0.8142(8) 0.2879(5)
H3 H 0.4119 0.7646 0.3075
H4 H 0.4336 0.8665 0.3135
C8 C 0.6408(13) 0.9586(7) 0.2608(5)
H5 H 0.6227 0.9598 0.2113
H6 H 0.7043 1.0032 0.2721
H7 H 0.5606 0.9693 0.2864
C9 C 0.9278(13) 0.9262(8) 0.2691(6)
H8 H 0.9775 0.9376 0.3110
H9 H 0.8790 0.9778 0.2563
H10 H 0.9871 0.9108 0.2316
C10 C 1.0253(10) 0.7493(7) 0.2914(5)
H11 H 1.0752 0.8018 0.3028
H12 H 1.0486 0.7042 0.3252
C11 C 0.8447(14) 0.6077(8) 0.3291(8)
H13 H 0.8133 0.5891 0.3743
H14 H 0.9396 0.6087 0.3292
H15 H 0.8143 0.5675 0.2937
C12 C 0.5595(14) 0.6414(8) 0.3276(7)
H16 H 0.6078 0.5937 0.3482
H17 H 0.5194 0.6223 0.2845
H18 H 0.4921 0.6605 0.3596
C13 C 0.3229(12) 0.8628(7) 0.1247(6)
H19 H 0.2611 0.8885 0.0949
C14 C 0.4867(11) 0.7941(6) 0.1577(5)
H20 H 0.5637 0.7609 0.1596
C15 C 1.1719(12) 0.6613(7) 0.1383(5)
H21 H 1.2369 0.6303 0.1142
C16 C 1.0033(12) 0.7355(6) 0.1584(5)
H22 H 0.9265 0.7682 0.1530
C17 C 0.2758(10) 1.2137(6) -0.0507(5)
C18 C 0.1880(10) 1.1439(6) -0.0481(5)
H23 H 0.0974 1.1534 -0.0512
C19 C 0.2385(11) 1.0594(7) -0.0409(5)
H24 H 0.1805 1.0121 -0.0412
C20 C 0.3733(10) 1.0436(7) -0.0331(5)
C21 C 0.4559(9) 1.1142(6) -0.0332(4)
H25 H 0.5461 1.1051 -0.0273
C22 C 0.4094(10) 1.1991(6) -0.0418(4)
H26 H 0.4681 1.2461 -0.0417
C23 C 0.2823(9) 1.3709(6) -0.0427(5)
C24 C 0.3239(10) 1.3806(6) 0.0249(5)
H27 H 0.3174 1.3350 0.0572
C25 C 0.3756(10) 1.4600(6) 0.0430(5)
H28 H 0.4051 1.4682 0.0889
C26 C 0.3859(8) 1.5299(5) -0.0047(5)
C27 C 0.3382(10) 1.5165(6) -0.0710(5)
H29 H 0.3391 1.5626 -0.1030
C28 C 0.2896(11) 1.4377(6) -0.0911(5)
H30 H 0.2614 1.4289 -0.1371
C29 C 0.4243(12) 0.9519(6) -0.0220(5)
C30 C 0.4462(9) 1.6142(6) 0.0194(5)
Ni1_2 Ni 0.50334(12) 1.80496(6) -0.00183(6)
Ni1C Ni 1.00334(12) 0.69504(6) 0.00183(6)
O3_2 O 0.4246(6) 0.6830(4) -0.0178(3)
N6C N 0.5695(8) 0.8013(5) -0.1064(3)
loop_
_geom_bond_atom_site_label_1
_geom_bond_atom_site_label_2
_geom_bond_site_symmetry_1
_geom_bond_site_symmetry_2
Ni1 O1 1_555 1_555
O1 C29 1_555 1_555
O2 Ni1 1_555 1_555
O3 C30 1_555 1_555
O4 C30 1_555 1_555
O5 C17 1_555 1_555
O6 Ni1 1_555 1_555
H1 O6 1_555 1_555
H2 O6 1_555 1_555
N1 N2 1_555 1_555
N2 C13 1_555 1_555
N3 Ni1 1_555 1_555
N4 N5 1_555 1_555
N5 C15 1_555 1_555
N6 C15 1_555 1_555
C1 C2 1_555 1_555
C2 C3 1_555 1_555
C3 C4 1_555 1_555
C4 C5 1_555 1_555
C5 C6 1_555 1_555
C6 C1 1_555 1_555
C7 N1 1_555 1_555
H3 C7 1_555 1_555
H4 C7 1_555 1_555
C8 C2 1_555 1_555
H5 C8 1_555 1_555
H6 C8 1_555 1_555
H7 C8 1_555 1_555
C9 C3 1_555 1_555
H8 C9 1_555 1_555
H9 C9 1_555 1_555
H10 C9 1_555 1_555
C10 N4 1_555 1_555
H11 C10 1_555 1_555
H12 C10 1_555 1_555
C11 C5 1_555 1_555
H13 C11 1_555 1_555
H14 C11 1_555 1_555
H15 C11 1_555 1_555
C12 C6 1_555 1_555
H16 C12 1_555 1_555
H17 C12 1_555 1_555
H18 C12 1_555 1_555
C13 N3 1_555 1_555
H19 C13 1_555 1_555
C14 N1 1_555 1_555
H20 C14 1_555 1_555
C15 H21 1_555 1_555
C16 N4 1_555 1_555
H22 C16 1_555 1_555
C17 C18 1_555 1_555
C18 H23 1_555 1_555
C19 C18 1_555 1_555
H24 C19 1_555 1_555
C20 C19 1_555 1_555
C21 C20 1_555 1_555
H25 C21 1_555 1_555
C22 C17 1_555 1_555
H26 C22 1_555 1_555
C23 O5 1_555 1_555
C24 C23 1_555 1_555
H27 C24 1_555 1_555
C25 C24 1_555 1_555
H28 C25 1_555 1_555
C26 C25 1_555 1_555
C27 C26 1_555 1_555
H29 C27 1_555 1_555
C28 C23 1_555 1_555
H30 C28 1_555 1_555
C29 O2 1_555 1_555
C30 C26 1_555 1_555
Ni1_2 O3 1_555 1_555
Ni1C N6 1_555 1_555
O3_2 Ni1 1_555 1_555
N6C Ni1 1_555 1_555
N3 C14 1_555 1_555
N6 C16 1_555 1_555
C1 C7 1_555 1_555
C4 C10 1_555 1_555
C20 C29 1_555 1_555
C21 C22 1_555 1_555
C27 C28 1_555 1_555

#END
