
#######################################################################
#
#                 Cambridge Crystallographic Data Centre
#                                CCDC 
#
#######################################################################
#
# If this CIF has been generated from an entry in the Cambridge 
# Structural Database, then it will include bibliographic, chemical, 
# crystal, experimental, refinement or atomic coordinate data resulting 
# from the CCDC's data processing and validation procedures.
#
#######################################################################

data_CEPLEP
_symmetry_cell_setting           triclinic
_symmetry_space_group_name_H-M   'P -1'
_symmetry_Int_Tables_number      2
_space_group_name_Hall           '-P 1'
loop_
_symmetry_equiv_pos_site_id
_symmetry_equiv_pos_as_xyz
1 x,y,z
2 -x,-y,-z
_cell_length_a                   10.578(2)
_cell_length_b                   11.724(2)
_cell_length_c                   15.049(3)
_cell_angle_alpha                85.213(3)
_cell_angle_beta                 75.291(3)
_cell_angle_gamma                82.444(3)
_cell_volume                     1787.04
loop_
_atom_site_label
_atom_site_type_symbol
_atom_site_fract_x
_atom_site_fract_y
_atom_site_fract_z
Co1 Co 0.82134(4) 0.21647(4) 0.38799(3)
Co2 Co 0.74747(4) 0.41031(4) 0.18088(3)
Cu1 Cu 0.76155(4) 0.00509(3) 0.51456(3)
Cu2 Cu 0.75856(4) 0.50253(4) -0.01440(3)
N1 N 0.6701(3) -0.1245(2) 0.5142(2)
N2 N 0.8342(3) -0.0814(2) 0.6061(2)
N3 N 0.6457(3) 0.6073(3) -0.07119(19)
N4 N 0.8859(3) 0.5072(2) -0.12981(18)
O1 O 0.7152(2) 0.07633(19) 0.40507(15)
O2 O 0.8342(2) 0.1432(2) 0.51993(16)
O3 O 0.7733(2) 0.25105(19) 0.26372(15)
O4 O 0.6451(3) 0.2663(2) 0.17123(18)
O5 O 0.6415(2) 0.5200(2) 0.10686(15)
O6 O 0.8547(2) 0.3890(2) 0.04490(15)
O7 O 0.6149(2) 0.4687(2) 0.29539(15)
O8 O 0.4719(3) 0.5862(3) 0.38531(18)
O9 O 1.0027(2) -0.1320(2) 0.67419(17)
O10 O 1.1016(2) 0.5120(2) -0.20537(15)
O11 O 0.6310(2) 0.3127(2) 0.44521(17)
O12 O 0.8916(2) 0.3796(2) 0.37501(16)
C1 C 0.6534(3) 0.0361(3) 0.3508(2)
C2 C 0.6384(3) 0.0962(3) 0.2677(2)
C3 C 0.5669(4) 0.0517(3) 0.2150(3)
H1 H 0.5570 0.0922 0.1609
C4 C 0.5108(4) -0.0483(3) 0.2391(3)
H2 H 0.4627 -0.0750 0.2029
C5 C 0.5276(4) -0.1083(3) 0.3184(3)
H3 H 0.4905 -0.1769 0.3353
C6 C 0.5979(3) -0.0705(3) 0.3745(2)
C7 C 0.6107(4) -0.1439(3) 0.4545(3)
H4 H 0.5717 -0.2119 0.4631
C8 C 0.6779(4) -0.2064(3) 0.5926(3)
H5 H 0.6710 -0.2837 0.5773
H6 H 0.6067 -0.1855 0.6456
C9 C 0.8086(4) -0.2014(3) 0.6138(3)
H7 H 0.8069 -0.2335 0.6755
H8 H 0.8776 -0.2460 0.5708
C10 C 0.9312(3) -0.0549(3) 0.6370(2)
C11 C 0.9570(3) 0.0663(3) 0.6327(2)
C12 C 1.0335(4) 0.0945(4) 0.6907(3)
H9 H 1.0655 0.0360 0.7276
C13 C 1.0619(4) 0.2023(4) 0.6947(3)
H10 H 1.1134 0.2169 0.7333
C14 C 1.0141(4) 0.2914(4) 0.6411(3)
H11 H 1.0325 0.3662 0.6440
C15 C 0.9393(4) 0.2683(3) 0.5834(2)
H12 H 0.9084 0.3284 0.5472
C16 C 0.9085(3) 0.1581(3) 0.5776(2)
C17 C 0.6877(3) 0.2097(3) 0.2336(2)
C18 C 0.5347(3) 0.5936(3) 0.1333(2)
C19 C 0.4742(3) 0.6093(3) 0.2268(2)
C20 C 0.3564(4) 0.6828(3) 0.2504(3)
H13 H 0.3170 0.6931 0.3123
C21 C 0.2969(4) 0.7401(4) 0.1858(3)
H14 H 0.2168 0.7858 0.2035
C22 C 0.3581(4) 0.7286(3) 0.0945(3)
H15 H 0.3192 0.7683 0.0503
C23 C 0.4772(4) 0.6591(3) 0.0659(2)
C24 C 0.5358(3) 0.6610(3) -0.0315(2)
H16 H 0.4889 0.7056 -0.0691
C25 C 0.6983(4) 0.6151(4) -0.1719(2)
H17 H 0.6680 0.6895 -0.1970
H18 H 0.6680 0.5557 -0.1999
C26 C 0.8471(4) 0.5994(3) -0.1923(2)
H19 H 0.8842 0.5794 -0.2556
H20 H 0.8790 0.6704 -0.1832
C27 C 1.0116(3) 0.4690(3) -0.1414(2)
C28 C 1.0495(3) 0.3689(3) -0.0820(2)
C29 C 1.1706(4) 0.3037(3) -0.1164(2)
H21 H 1.2226 0.3259 -0.1734
C30 C 1.2151(4) 0.2081(3) -0.0689(3)
H22 H 1.2961 0.1666 -0.0931
C31 C 1.1376(4) 0.1749(4) 0.0153(3)
H23 H 1.1665 0.1101 0.0479
C32 C 1.0192(4) 0.2358(3) 0.0513(3)
H24 H 0.9691 0.2120 0.1084
C33 C 0.9715(3) 0.3327(3) 0.0046(2)
C34 C 0.5242(4) 0.5510(3) 0.3072(2)
Co1A Co 1.17866(4) -0.21647(4) 0.61201(3)
Co2A Co 1.25253(4) 0.58969(4) -0.18088(3)
O9A O 0.9973(2) 0.1320(2) 0.32581(17)
O10A O 0.8984(2) 0.4880(2) 0.20537(15)
O13 O 0.7044(4) 0.5461(3) 0.4749(3)
loop_
_geom_bond_atom_site_label_1
_geom_bond_atom_site_label_2
_geom_bond_site_symmetry_1
_geom_bond_site_symmetry_2
Co1 O1 1_555 1_555
Co2 O3 1_555 1_555
Cu1 N1 1_555 1_555
Cu2 N3 1_555 1_555
N1 C7 1_555 1_555
N2 Cu1 1_555 1_555
N3 C24 1_555 1_555
N4 Cu2 1_555 1_555
O1 Cu1 1_555 1_555
O2 Co1 1_555 1_555
O3 Co1 1_555 1_555
O4 Co2 1_555 1_555
O5 Co2 1_555 1_555
O6 Co2 1_555 1_555
O7 Co2 1_555 1_555
O8 C34 1_555 1_555
O9 C10 1_555 1_555
O10 C27 1_555 1_555
O11 Co1 1_555 1_555
O12 Co1 1_555 1_555
C1 O1 1_555 1_555
C2 C1 1_555 1_555
C3 C2 1_555 1_555
H1 C3 1_555 1_555
C4 C3 1_555 1_555
H2 C4 1_555 1_555
C5 C4 1_555 1_555
H3 C5 1_555 1_555
C6 C1 1_555 1_555
C7 C6 1_555 1_555
H4 C7 1_555 1_555
C8 N1 1_555 1_555
H5 C8 1_555 1_555
H6 C8 1_555 1_555
C9 N2 1_555 1_555
H7 C9 1_555 1_555
H8 C9 1_555 1_555
C10 N2 1_555 1_555
C11 C10 1_555 1_555
C12 C11 1_555 1_555
H9 C12 1_555 1_555
C13 C12 1_555 1_555
H10 C13 1_555 1_555
C14 C13 1_555 1_555
H11 C14 1_555 1_555
C15 C14 1_555 1_555
H12 C15 1_555 1_555
C16 O2 1_555 1_555
C17 O3 1_555 1_555
C18 O5 1_555 1_555
C19 C18 1_555 1_555
C20 C19 1_555 1_555
H13 C20 1_555 1_555
C21 C20 1_555 1_555
H14 C21 1_555 1_555
C22 C21 1_555 1_555
H15 C22 1_555 1_555
C23 C18 1_555 1_555
C24 C23 1_555 1_555
H16 C24 1_555 1_555
C25 N3 1_555 1_555
H17 C25 1_555 1_555
H18 C25 1_555 1_555
C26 N4 1_555 1_555
H19 C26 1_555 1_555
H20 C26 1_555 1_555
C27 N4 1_555 1_555
C28 C27 1_555 1_555
C29 C28 1_555 1_555
H21 C29 1_555 1_555
C30 C29 1_555 1_555
H22 C30 1_555 1_555
C31 C30 1_555 1_555
H23 C31 1_555 1_555
C32 C31 1_555 1_555
H24 C32 1_555 1_555
C33 O6 1_555 1_555
C34 O7 1_555 1_555
Co1A O9 1_555 1_555
Co2A O10 1_555 1_555
O9A Co1 1_555 1_555
O10A Co2 1_555 1_555
Cu1 O2 1_555 1_555
Cu2 O5 1_555 1_555
Cu2 O6 1_555 1_555
O4 C17 1_555 1_555
C2 C17 1_555 1_555
C5 C6 1_555 1_555
C8 C9 1_555 1_555
C11 C16 1_555 1_555
C15 C16 1_555 1_555
C19 C34 1_555 1_555
C22 C23 1_555 1_555
C25 C26 1_555 1_555
C28 C33 1_555 1_555
C32 C33 1_555 1_555

#END
