
#######################################################################
#
#                 Cambridge Crystallographic Data Centre
#                                CCDC 
#
#######################################################################
#
# If this CIF has been generated from an entry in the Cambridge 
# Structural Database, then it will include bibliographic, chemical, 
# crystal, experimental, refinement or atomic coordinate data resulting 
# from the CCDC's data processing and validation procedures.
#
#######################################################################

data_CEQREW
_symmetry_cell_setting           orthorhombic
_symmetry_space_group_name_H-M   'F d d 2'
_symmetry_Int_Tables_number      43
_space_group_name_Hall           'F 2 -2d'
loop_
_symmetry_equiv_pos_site_id
_symmetry_equiv_pos_as_xyz
1 x,y,z
2 -x,-y,z
3 1/4-x,1/4+y,1/4+z
4 3/4+x,3/4-y,1/4+z
5 x,1/2+y,1/2+z
6 -x,1/2-y,1/2+z
7 1/4-x,3/4+y,3/4+z
8 3/4+x,1/4-y,3/4+z
9 1/2+x,y,1/2+z
10 1/2-x,-y,1/2+z
11 3/4-x,1/4+y,3/4+z
12 1/4+x,3/4-y,3/4+z
13 1/2+x,1/2+y,z
14 1/2-x,1/2-y,z
15 3/4-x,3/4+y,1/4+z
16 1/4+x,1/4-y,1/4+z
_cell_length_a                   19.9394(18)
_cell_length_b                   27.558(2)
_cell_length_c                   9.8735(8)
_cell_angle_alpha                90
_cell_angle_beta                 90
_cell_angle_gamma                90
_cell_volume                     5425.39
loop_
_atom_site_label
_atom_site_type_symbol
_atom_site_fract_x
_atom_site_fract_y
_atom_site_fract_z
Ag1 Ag 0.2336 0.1905 0.4993
N1 N 0.2859(2) 0.1878(1) 0.3095(4)
N2 N 0.3523(2) 0.2041(1) 0.1343(3)
N3 N 0.3152(2) 0.2848(1) -0.3173(4)
C1 C 0.3298(2) 0.2180(1) 0.2576(5)
H1 H 0.3439 0.2462 0.3010
C2 C 0.2789(2) 0.1509(2) 0.2158(4)
C3 C 0.3197(2) 0.1603(2) 0.1040(4)
C4 C 0.3229(2) 0.1297(2) -0.0072(5)
H2 H 0.3513 0.1364 -0.0796
C5 C 0.2829(2) 0.0895(2) -0.0069(6)
H3 H 0.2827 0.0689 -0.0814
C6 C 0.2420(3) 0.0791(2) 0.1058(6)
H4 H 0.2162 0.0510 0.1049
C7 C 0.2389(2) 0.1094(2) 0.2177(5)
H5 H 0.2113 0.1023 0.2910
C8 C 0.3595(2) 0.2483(2) -0.3188(4)
H6 H 0.3714 0.2350 -0.4020
C9 C 0.3716(2) 0.2494(2) -0.0793(4)
C10 C 0.3263(2) 0.2868(2) -0.0757(4)
H7 H 0.3137 0.3005 0.0064
C11 C 0.2995(2) 0.3039(2) -0.1965(4)
H8 H 0.2693 0.3296 -0.1934
C12 C 0.3883(2) 0.2295(2) -0.2035(4)
H9 H 0.4184 0.2038 -0.2090
C13 C 0.4021(2) 0.2296(2) 0.0505(4)
H10 H 0.4382 0.2075 0.0280
H11 H 0.4210 0.2562 0.1022
Ag1M Ag 0.2664 0.3095 -0.5007
N3M N 0.1848(2) 0.2152(1) 0.6827(4)
N4 N 0.3131(2) 0.0899(2) 0.6226(5)
O1 O 0.2570(2) 0.1055(2) 0.6083(7)
O2 O 0.3534(4) 0.1215(3) 0.6571(7)
O3 O 0.3268(4) 0.0489(2) 0.6390(8)
loop_
_geom_bond_atom_site_label_1
_geom_bond_atom_site_label_2
_geom_bond_site_symmetry_1
_geom_bond_site_symmetry_2
Ag1 N1 1_555 1_555
N1 C1 1_555 1_555
N2 C1 1_555 1_555
N3 C8 1_555 1_555
N4 O1 1_555 1_555
C1 H1 1_555 1_555
C2 N1 1_555 1_555
C3 N2 1_555 1_555
C4 C3 1_555 1_555
H2 C4 1_555 1_555
C5 C4 1_555 1_555
H3 C5 1_555 1_555
C6 C5 1_555 1_555
H4 C6 1_555 1_555
C7 C2 1_555 1_555
H5 C7 1_555 1_555
C8 H6 1_555 1_555
C9 C10 1_555 1_555
C10 H7 1_555 1_555
C11 N3 1_555 1_555
H8 C11 1_555 1_555
C12 C8 1_555 1_555
H9 C12 1_555 1_555
C13 N2 1_555 1_555
H10 C13 1_555 1_555
H11 C13 1_555 1_555
O2 N4 1_555 1_555
O3 N4 1_555 1_555
Ag1M N3 1_555 1_555
N3M Ag1 1_555 1_555
C2 C3 1_555 1_555
C6 C7 1_555 1_555
C9 C12 1_555 1_555
C9 C13 1_555 1_555
C10 C11 1_555 1_555

#END
