
#######################################################################
#
#                 Cambridge Crystallographic Data Centre
#                                CCDC 
#
#######################################################################
#
# If this CIF has been generated from an entry in the Cambridge 
# Structural Database, then it will include bibliographic, chemical, 
# crystal, experimental, refinement or atomic coordinate data resulting 
# from the CCDC's data processing and validation procedures.
#
#######################################################################

data_CEQTIC
_symmetry_cell_setting           monoclinic
_symmetry_space_group_name_H-M   'P 21/n'
_symmetry_Int_Tables_number      14
_space_group_name_Hall           '-P 2yn'
loop_
_symmetry_equiv_pos_site_id
_symmetry_equiv_pos_as_xyz
1 x,y,z
2 1/2-x,1/2+y,1/2-z
3 -x,-y,-z
4 1/2+x,1/2-y,1/2+z
_cell_length_a                   15.3283(7)
_cell_length_b                   7.0748(2)
_cell_length_c                   16.1364(7)
_cell_angle_alpha                90
_cell_angle_beta                 106.972(2)
_cell_angle_gamma                90
_cell_volume                     1673.69
loop_
_atom_site_label
_atom_site_type_symbol
_atom_site_fract_x
_atom_site_fract_y
_atom_site_fract_z
Zn1 Zn 0.04816(2) 0.24614(4) 0.322475(19)
O1 O 0.09385(14) 0.5085(3) 0.26332(12)
O2 O -0.04356(14) 0.3859(2) 0.22068(12)
O3 O 0.09255(13) 1.0511(2) 0.25862(12)
O4 O -0.04437(14) 0.9248(2) 0.23948(12)
O5 O -0.05540(14) 0.8020(3) -0.04446(12)
O6 O -0.18037(14) 0.6218(3) -0.06990(13)
H1 H -0.2133 0.6699 -0.1188
N1 N -0.02072(15) 0.2296(3) 0.41376(14)
N2 N 0.15342(16) 0.2974(3) 0.43310(14)
C1 C -0.1099(2) 0.1973(4) 0.39823(19)
H6 H -0.1461 0.1783 0.3401
C2 C -0.1518(2) 0.1905(4) 0.46343(19)
H7 H -0.2153 0.1666 0.4506
C3 C -0.0983(2) 0.2194(4) 0.54811(19)
H8 H -0.1250 0.2161 0.5943
C4 C -0.0062(2) 0.2531(4) 0.56478(17)
H9 H 0.0311 0.2733 0.6225
C5 C 0.03158(19) 0.2573(3) 0.49641(17)
C6 C 0.12951(19) 0.2945(3) 0.50707(17)
C7 C 0.1939(2) 0.3268(4) 0.58694(18)
H10 H 0.1768 0.3232 0.6389
C8 C 0.2831(2) 0.3641(4) 0.5892(2)
H11 H 0.3278 0.3872 0.6430
C9 C 0.3073(2) 0.3678(4) 0.5134(2)
H12 H 0.3683 0.3933 0.5139
C10 C 0.2400(2) 0.3333(4) 0.43642(19)
H13 H 0.2561 0.3351 0.3838
C11 C 0.0152(2) 0.5038(4) 0.21053(18)
C12 C -0.00836(19) 0.6364(3) 0.13425(17)
C13 C -0.07063(19) 0.5789(4) 0.06260(17)
H14 H -0.0992 0.4609 0.0653
C14 C -0.0998(2) 0.6819(4) -0.02155(17)
C15 C 0.0278(2) 0.9362(3) 0.22022(17)
C16 C 0.04434(19) 0.8178(4) 0.14784(17)
H15 H 0.0267 0.8918 0.0934
H16 H 0.1102 0.7890 0.1618
Zn1_2 Zn 0.04816(2) 1.24614(4) 0.322475(19)
O3_2 O 0.09255(13) 0.0511(2) 0.25862(12)
O7 O 0.23998(13) 0.1984(3) 0.21708(12)
H2 H 0.2000 0.1416 0.2349
H3 H 0.2834 0.1395 0.2263
O8 O -0.18750(14) 0.6559(3) 0.21616(14)
H4 H -0.1506 0.5398 0.2147
H5 H -0.1482 0.7524 0.2205
loop_
_geom_bond_atom_site_label_1
_geom_bond_atom_site_label_2
_geom_bond_site_symmetry_1
_geom_bond_site_symmetry_2
Zn1 O1 1_555 1_555
O1 C11 1_555 1_555
O2 Zn1 1_555 1_555
O3 C15 1_555 1_555
O4 C15 1_555 1_555
O5 C14 1_555 1_555
O6 H1 1_555 1_555
O7 H2 1_555 1_555
H3 O7 1_555 1_555
O8 H4 1_555 1_555
H5 O8 1_555 1_555
N1 Zn1 1_555 1_555
N2 Zn1 1_555 1_555
C1 N1 1_555 1_555
H6 C1 1_555 1_555
C2 C1 1_555 1_555
H7 C2 1_555 1_555
C3 C2 1_555 1_555
H8 C3 1_555 1_555
C4 C3 1_555 1_555
H9 C4 1_555 1_555
C5 N1 1_555 1_555
C6 N2 1_555 1_555
C7 C6 1_555 1_555
H10 C7 1_555 1_555
C8 C7 1_555 1_555
H11 C8 1_555 1_555
C9 C8 1_555 1_555
H12 C9 1_555 1_555
C10 N2 1_555 1_555
H13 C10 1_555 1_555
C11 O2 1_555 1_555
C12 C11 1_555 1_555
C13 C12 1_555 1_555
H14 C13 1_555 1_555
C14 O6 1_555 1_555
C15 C16 1_555 1_555
C16 C12 1_555 1_555
H15 C16 1_555 1_555
H16 C16 1_555 1_555
Zn1_2 O3 1_555 1_555
O3_2 Zn1 1_555 1_555
C4 C5 1_555 1_555
C5 C6 1_555 1_555
C9 C10 1_555 1_555
C13 C14 1_555 1_555

#END
