
#######################################################################
#
#                 Cambridge Crystallographic Data Centre
#                                CCDC 
#
#######################################################################
#
# If this CIF has been generated from an entry in the Cambridge 
# Structural Database, then it will include bibliographic, chemical, 
# crystal, experimental, refinement or atomic coordinate data resulting 
# from the CCDC's data processing and validation procedures.
#
#######################################################################

data_CEQTOI
_symmetry_cell_setting           monoclinic
_symmetry_space_group_name_H-M   'P 21/n'
_symmetry_Int_Tables_number      14
_space_group_name_Hall           '-P 2yn'
loop_
_symmetry_equiv_pos_site_id
_symmetry_equiv_pos_as_xyz
1 x,y,z
2 1/2-x,1/2+y,1/2-z
3 -x,-y,-z
4 1/2+x,1/2-y,1/2+z
_cell_length_a                   14.3419(5)
_cell_length_b                   7.1096(9)
_cell_length_c                   17.2325(10)
_cell_angle_alpha                90
_cell_angle_beta                 109.212(4)
_cell_angle_gamma                90
_cell_volume                     1659.26
loop_
_atom_site_label
_atom_site_type_symbol
_atom_site_fract_x
_atom_site_fract_y
_atom_site_fract_z
Zn1 Zn 0.96923(3) 0.74682(6) 0.20420(2)
O1 O 0.92615(18) 0.5007(3) 0.25445(14)
O2 O 1.07545(18) 0.6142(3) 0.31026(14)
O3 O 0.92488(17) -0.0445(3) 0.25514(14)
O4 O 1.07279(18) 0.0888(3) 0.28710(15)
O5 O 1.0567(2) 0.1887(4) 0.54700(15)
O6 O 1.18707(18) 0.3827(4) 0.58991(14)
H1 H 1.2006 0.3003 0.6260
N1 N 1.0597(2) 0.7767(4) 0.13479(18)
N2 N 0.8667(2) 0.6970(4) 0.08705(18)
C1 C 1.1555(3) 0.8173(6) 0.1598(3)
H4 H 1.1894 0.8294 0.2171
C2 C 1.2079(3) 0.8428(6) 0.1059(3)
H5 H 1.2762 0.8730 0.1260
C3 C 1.1598(3) 0.8239(5) 0.0230(2)
H6 H 1.1946 0.8435 -0.0147
C4 C 1.0598(3) 0.7759(5) -0.0061(2)
C5 C 1.0042(3) 0.7509(5) -0.0913(2)
H7 H 1.0355 0.7664 -0.1316
C6 C 0.9068(3) 0.7050(5) -0.1149(2)
H8 H 0.8713 0.6877 -0.1716
C7 C 0.8563(3) 0.6821(5) -0.0560(2)
C8 C 0.7555(3) 0.6353(5) -0.0769(2)
H9 H 0.7169 0.6132 -0.1326
C9 C 0.7135(3) 0.6218(5) -0.0163(2)
H10 H 0.6454 0.5916 -0.0298
C10 C 0.7715(3) 0.6529(5) 0.0656(2)
H11 H 0.7418 0.6422 0.1072
C11 C 0.9087(3) 0.7106(5) 0.0271(2)
C12 C 1.0119(3) 0.7551(5) 0.0526(2)
C13 C 1.0089(3) 0.4997(5) 0.3115(2)
C14 C 1.0235(3) 0.3653(5) 0.3819(2)
C15 C 0.9661(3) 0.1867(5) 0.3612(2)
H12 H 0.8947 0.2168 0.3405
H13 H 0.9789 0.1105 0.4118
C16 C 1.0826(2) 0.4219(5) 0.4553(2)
H14 H 1.1133 0.5412 0.4576
C17 C 1.1054(3) 0.3170(5) 0.5340(2)
C18 C 0.9923(3) 0.0710(5) 0.2967(2)
Zn1_2 Zn 0.96923(3) -0.25318(6) 0.20420(2)
O3_2 O 0.92488(17) 0.9555(3) 0.25514(14)
O7 O 0.74196(18) 0.3159(4) 0.22410(16)
H2 H 0.7005 0.3877 0.2475
H3 H 0.8012 0.3720 0.2381
loop_
_geom_bond_atom_site_label_1
_geom_bond_atom_site_label_2
_geom_bond_site_symmetry_1
_geom_bond_site_symmetry_2
Zn1 O1 1_555 1_555
O1 C13 1_555 1_555
O2 Zn1 1_555 1_555
O3 C18 1_555 1_555
O4 C18 1_555 1_555
O5 C17 1_555 1_555
O6 H1 1_555 1_555
O7 H2 1_555 1_555
H3 O7 1_555 1_555
N1 Zn1 1_555 1_555
N2 Zn1 1_555 1_555
C1 N1 1_555 1_555
H4 C1 1_555 1_555
C2 C1 1_555 1_555
H5 C2 1_555 1_555
C3 C2 1_555 1_555
H6 C3 1_555 1_555
C4 C3 1_555 1_555
C5 C4 1_555 1_555
H7 C5 1_555 1_555
C6 C5 1_555 1_555
H8 C6 1_555 1_555
C7 C6 1_555 1_555
C8 C7 1_555 1_555
H9 C8 1_555 1_555
C9 C8 1_555 1_555
H10 C9 1_555 1_555
C10 N2 1_555 1_555
H11 C10 1_555 1_555
C11 N2 1_555 1_555
C12 N1 1_555 1_555
C13 O2 1_555 1_555
C14 C13 1_555 1_555
C15 C14 1_555 1_555
H12 C15 1_555 1_555
H13 C15 1_555 1_555
C16 C14 1_555 1_555
H14 C16 1_555 1_555
C17 O6 1_555 1_555
C18 C15 1_555 1_555
Zn1_2 O3 1_555 1_555
O3_2 Zn1 1_555 1_555
C4 C12 1_555 1_555
C7 C11 1_555 1_555
C9 C10 1_555 1_555
C11 C12 1_555 1_555
C16 C17 1_555 1_555

#END
