
#######################################################################
#
#                 Cambridge Crystallographic Data Centre
#                                CCDC 
#
#######################################################################
#
# If this CIF has been generated from an entry in the Cambridge 
# Structural Database, then it will include bibliographic, chemical, 
# crystal, experimental, refinement or atomic coordinate data resulting 
# from the CCDC's data processing and validation procedures.
#
#######################################################################

data_CERDUY01
_symmetry_cell_setting           monoclinic
_symmetry_space_group_name_H-M   'P 21/n'
_symmetry_Int_Tables_number      14
_space_group_name_Hall           '-P 2yn'
loop_
_symmetry_equiv_pos_site_id
_symmetry_equiv_pos_as_xyz
1 x,y,z
2 1/2+x,1/2-y,1/2+z
3 -x,-y,-z
4 1/2-x,1/2+y,1/2-z
_cell_length_a                   7.5212(3)
_cell_length_b                   13.1458(9)
_cell_length_c                   8.6087(6)
_cell_angle_alpha                90
_cell_angle_beta                 115.183(9)
_cell_angle_gamma                90
_cell_volume                     770.261
loop_
_atom_site_label
_atom_site_type_symbol
_atom_site_fract_x
_atom_site_fract_y
_atom_site_fract_z
Mn1 Mn 0.0000 0.0000 -0.5000
N1 N 0.1426(4) 0.0067(2) -0.2101(3)
C1 C 0.1462(5) -0.0753(3) -0.1162(5)
H1 H 0.0807 -0.1352 -0.1741
C2 C 0.2406(5) -0.0766(3) 0.0605(5)
H2 H 0.2387 -0.1362 0.1223
C3 C 0.3374(5) 0.0089(3) 0.1465(4)
H3 H 0.4051 0.0093 0.2682
C4 C 0.3341(5) 0.0944(3) 0.0521(5)
H4 H 0.3992 0.1550 0.1077
C5 C 0.2344(5) 0.0904(3) -0.1250(5)
H5 H 0.2309 0.1498 -0.1891
N2 N 0.2044(4) -0.1238(2) -0.4930(4)
C6 C 0.3430(5) -0.1570(2) -0.5004(5)
N3 N 0.7835(4) -0.1130(2) -0.4941(4)
C7 C 0.6419(5) -0.1513(2) -0.5008(4)
N4 N 0.4908(4) -0.2033(2) -0.5107(5)
N1B N -0.1426(4) -0.0067(2) -0.7899(3)
C1B C -0.1462(5) 0.0753(3) -0.8838(5)
H1B H -0.0807 0.1352 -0.8259
C2B C -0.2406(5) 0.0766(3) -1.0605(5)
H2B H -0.2387 0.1362 -1.1223
C3B C -0.3374(5) -0.0089(3) -1.1465(4)
H3B H -0.4051 -0.0093 -1.2682
C4B C -0.3341(5) -0.0944(3) -1.0521(5)
H4B H -0.3992 -0.1550 -1.1077
C5B C -0.2344(5) -0.0904(3) -0.8750(5)
H5B H -0.2309 -0.1498 -0.8109
N3_2 N -0.2165(4) -0.1130(2) -0.4941(4)
Mn1_2 Mn 1.0000 0.0000 -0.5000
N2B N 0.7956(4) 0.1238(2) -0.5070(4)
C6B C 0.6570(5) 0.1570(2) -0.4996(5)
N4B N 0.5092(4) 0.2033(2) -0.4893(5)
C7B C 0.3581(5) 0.1513(2) -0.4992(4)
N3B N 0.2165(4) 0.1130(2) -0.5059(4)
N2B_2 N -0.2044(4) 0.1238(2) -0.5070(4)
loop_
_geom_bond_atom_site_label_1
_geom_bond_atom_site_label_2
_geom_bond_site_symmetry_1
_geom_bond_site_symmetry_2
Mn1 N1 1_555 1_555
N1 C1 1_555 1_555
C1 H1 1_555 1_555
C2 C1 1_555 1_555
H2 C2 1_555 1_555
C3 C2 1_555 1_555
H3 C3 1_555 1_555
C4 C3 1_555 1_555
H4 C4 1_555 1_555
C5 N1 1_555 1_555
H5 C5 1_555 1_555
N2 Mn1 1_555 1_555
C6 N2 1_555 1_555
N3 C7 1_555 1_555
C7 N4 1_555 1_555
N4 C6 1_555 1_555
N1B Mn1 1_555 1_555
C1B N1B 1_555 1_555
H1B C1B 1_555 1_555
C2B C1B 1_555 1_555
H2B C2B 1_555 1_555
C3B C2B 1_555 1_555
H3B C3B 1_555 1_555
C4B C3B 1_555 1_555
H4B C4B 1_555 1_555
C5B N1B 1_555 1_555
H5B C5B 1_555 1_555
N3_2 Mn1 1_555 1_555
Mn1_2 N3 1_555 1_555
N2B Mn1_2 1_555 1_555
C6B N2B 1_555 1_555
N4B C6B 1_555 1_555
C7B N4B 1_555 1_555
N3B Mn1 1_555 1_555
N2B_2 Mn1 1_555 1_555
C4 C5 1_555 1_555
C4B C5B 1_555 1_555
C7B N3B 1_555 1_555

#END
