
#######################################################################
#
#                 Cambridge Crystallographic Data Centre
#                                CCDC 
#
#######################################################################
#
# If this CIF has been generated from an entry in the Cambridge 
# Structural Database, then it will include bibliographic, chemical, 
# crystal, experimental, refinement or atomic coordinate data resulting 
# from the CCDC's data processing and validation procedures.
#
#######################################################################

data_CERFUB
_symmetry_cell_setting           triclinic
_symmetry_space_group_name_H-M   'P -1'
_symmetry_Int_Tables_number      2
_space_group_name_Hall           '-P 1'
loop_
_symmetry_equiv_pos_site_id
_symmetry_equiv_pos_as_xyz
1 x,y,z
2 -x,-y,-z
_cell_length_a                   9.1166(6)
_cell_length_b                   11.3249(7)
_cell_length_c                   11.6350(7)
_cell_angle_alpha                80.800(1)
_cell_angle_beta                 80.664(1)
_cell_angle_gamma                74.162(1)
_cell_volume                     1131.85
loop_
_atom_site_label
_atom_site_type_symbol
_atom_site_fract_x
_atom_site_fract_y
_atom_site_fract_z
Zn1 Zn 0.5000 0.5000 0.5000
Zn2 Zn 0.36460(3) 0.48372(3) 0.83595(3)
O1 O 0.6689(2) 0.45111(18) 0.61742(16)
O2 O 0.5990(2) 0.44018(16) 0.81217(16)
O3 O 0.6796(2) 0.46952(17) 0.35467(16)
O4 O 0.8675(2) 0.45177(17) 0.21043(16)
O5 O 0.3136(3) 0.4632(2) 1.01528(19)
H1 H 0.339(4) 0.501(3) 1.056(3)
H2 H 0.280(5) 0.416(4) 1.049(4)
C1 C 0.6977(3) 0.4225(2) 0.7212(2)
C2 C 0.8608(3) 0.3619(3) 0.7447(3)
H3 H 0.9275 0.3524 0.6699
H4 H 0.8658 0.2804 0.7899
H5 H 0.8950 0.4136 0.7894
C3 C 0.8231(3) 0.4365(2) 0.3197(2)
C4 C 0.9391(3) 0.3796(3) 0.4036(3)
H6 H 0.9231 0.4321 0.4661
H7 H 1.0428 0.3721 0.3616
H8 H 0.9270 0.2974 0.4379
N1 N 0.4930(3) 0.3127(2) 0.51630(19)
C5 C 0.6243(3) 0.2242(2) 0.5092(3)
H9 H 0.7176 0.2466 0.5083
C6 C 0.6319(3) 0.1020(2) 0.5030(2)
H10 H 0.7288 0.0432 0.4971
C7 C 0.4981(3) 0.0646(2) 0.5055(2)
C8 C 0.3592(3) 0.1565(3) 0.5175(3)
H11 H 0.2639 0.1360 0.5227
C9 C 0.3626(3) 0.2772(3) 0.5219(3)
H12 H 0.2677 0.3382 0.5291
N2 N 0.3615(3) 0.6711(2) 0.8457(2)
C10 C 0.2514(3) 0.7422(2) 0.9129(2)
H13 H 0.1718 0.7080 0.9561
C11 C 0.2468(3) 0.8631(2) 0.9232(2)
H14 H 0.1665 0.9100 0.9729
C12 C 0.3616(3) 0.9148(2) 0.8596(2)
C13 C 0.4779(3) 0.8402(2) 0.7901(2)
H15 H 0.5599 0.8715 0.7468
C14 C 0.4731(3) 0.7207(2) 0.7846(2)
H16 H 0.5519 0.6714 0.7357
N3 N 0.3642(3) 1.2946(2) 0.84315(19)
C15 C 0.3607(3) 1.0456(2) 0.8589(2)
C16 C 0.2252(3) 1.1388(3) 0.8631(3)
H17 H 0.1289 1.1191 0.8715
C17 C 0.2316(3) 1.2604(3) 0.8550(3)
H18 H 0.1378 1.3230 0.8580
C18 C 0.4935(3) 1.2043(3) 0.8428(3)
H19 H 0.5879 1.2264 0.8374
C19 C 0.4981(3) 1.0805(3) 0.8498(3)
H20 H 0.5936 1.0198 0.8485
Zn1_2 Zn 0.5000 -0.5000 0.5000
Zn2A Zn 0.63540(3) 0.51628(3) 0.16405(3)
Zn2_2 Zn 0.36460(3) 1.48372(3) 0.83595(3)
Zn2_3 Zn 0.36460(3) -0.51628(3) 0.83595(3)
O1A O 0.3311(2) 0.54889(18) 0.38258(16)
O2A O 0.4010(2) 0.55982(16) 0.18783(16)
O3A O 0.3204(2) 0.53048(17) 0.64533(16)
O4A O 0.1325(2) 0.54823(17) 0.78957(16)
O5A O 0.6864(3) 0.5368(2) -0.01528(19)
H1A H 0.661(4) 0.499(3) -0.056(3)
H2A H 0.720(5) 0.584(4) -0.049(4)
C1A C 0.3023(3) 0.5775(2) 0.2788(2)
C2A C 0.1392(3) 0.6381(3) 0.2553(3)
H3A H 0.0725 0.6476 0.3301
H4A H 0.1342 0.7196 0.2101
H5A H 0.1050 0.5864 0.2106
C3A C 0.1769(3) 0.5635(2) 0.6803(2)
C4A C 0.0609(3) 0.6204(3) 0.5964(3)
H6A H 0.0769 0.5679 0.5339
H7A H -0.0428 0.6279 0.6384
H8A H 0.0730 0.7026 0.5621
N1A N 0.5070(3) -0.3127(2) 0.48370(19)
N1A_2 N 0.5070(3) 0.6873(2) 0.48370(19)
C5A C 0.3757(3) -0.2242(2) 0.4908(3)
H9A H 0.2824 -0.2466 0.4917
C6A C 0.3681(3) -0.1020(2) 0.4970(2)
H10A H 0.2712 -0.0432 0.5029
C7A C 0.5019(3) -0.0646(2) 0.4945(2)
C8A C 0.6408(3) -0.1565(3) 0.4825(3)
H11A H 0.7361 -0.1360 0.4773
C9A C 0.6374(3) -0.2772(3) 0.4781(3)
H12A H 0.7323 -0.3382 0.4709
N2_2 N 0.3615(3) -0.3289(2) 0.8457(2)
N2A N 0.6385(3) 0.3289(2) 0.1543(2)
C10_2 C 0.2514(3) -0.2578(2) 0.9129(2)
H13_2 H 0.1718 -0.2920 0.9561
C11_2 C 0.2468(3) -0.1369(2) 0.9232(2)
H14_2 H 0.1665 -0.0900 0.9729
C12_2 C 0.3616(3) -0.0852(2) 0.8596(2)
C13_2 C 0.4779(3) -0.1598(2) 0.7901(2)
H15_2 H 0.5599 -0.1285 0.7468
C14_2 C 0.4731(3) -0.2793(2) 0.7846(2)
H16_2 H 0.5519 -0.3286 0.7357
N3_2 N 0.3642(3) 0.2946(2) 0.84315(19)
N3A N 0.6358(3) 0.7054(2) 0.15685(19)
C15_2 C 0.3607(3) 0.0456(2) 0.8589(2)
C16_2 C 0.2252(3) 0.1388(3) 0.8631(3)
H17_2 H 0.1289 0.1191 0.8715
C17_2 C 0.2316(3) 0.2604(3) 0.8550(3)
H18_2 H 0.1378 0.3230 0.8580
C18_2 C 0.4935(3) 0.2043(3) 0.8428(3)
H19_2 H 0.5879 0.2264 0.8374
C19_2 C 0.4981(3) 0.0805(3) 0.8498(3)
H20_2 H 0.5936 0.0198 0.8485
Cl1 Cl 0.05803(9) 0.02149(7) 1.28654(7)
O6 O 0.0633(4) -0.0829(3) 1.3748(3)
O7 O 0.0864(3) -0.0167(3) 1.1725(3)
O8 O -0.0901(3) 0.1050(3) 1.3023(2)
O9 O 0.1712(3) 0.0833(2) 1.3017(2)
O10 O 1.1515(3) 0.3100(3) 0.1310(3)
H21 H 1.075(5) 0.346(4) 0.150(3)
H22 H 1.157(6) 0.241(5) 0.167(4)
loop_
_geom_bond_atom_site_label_1
_geom_bond_atom_site_label_2
_geom_bond_site_symmetry_1
_geom_bond_site_symmetry_2
Zn1 O1 1_555 1_555
Zn2 O2 1_555 1_555
O1 C1 1_555 1_555
O2 C1 1_555 1_555
O3 Zn1 1_555 1_555
O4 C3 1_555 1_555
O5 Zn2 1_555 1_555
H1 O5 1_555 1_555
H2 O5 1_555 1_555
C1 C2 1_555 1_555
C2 H3 1_555 1_555
H4 C2 1_555 1_555
H5 C2 1_555 1_555
C3 O3 1_555 1_555
C4 C3 1_555 1_555
H6 C4 1_555 1_555
H7 C4 1_555 1_555
H8 C4 1_555 1_555
N1 Zn1 1_555 1_555
C5 N1 1_555 1_555
H9 C5 1_555 1_555
C6 C5 1_555 1_555
H10 C6 1_555 1_555
C7 C6 1_555 1_555
C8 C7 1_555 1_555
H11 C8 1_555 1_555
C9 N1 1_555 1_555
H12 C9 1_555 1_555
N2 Zn2 1_555 1_555
C10 N2 1_555 1_555
H13 C10 1_555 1_555
C11 C10 1_555 1_555
H14 C11 1_555 1_555
C12 C11 1_555 1_555
C13 C12 1_555 1_555
H15 C13 1_555 1_555
C14 N2 1_555 1_555
H16 C14 1_555 1_555
N3 C17 1_555 1_555
C15 C12 1_555 1_555
C16 C15 1_555 1_555
H17 C16 1_555 1_555
C17 C16 1_555 1_555
H18 C17 1_555 1_555
C18 N3 1_555 1_555
H19 C18 1_555 1_555
C19 C15 1_555 1_555
H20 C19 1_555 1_555
Cl1 O6 1_555 1_555
O7 Cl1 1_555 1_555
O8 Cl1 1_555 1_555
O9 Cl1 1_555 1_555
O10 H21 1_555 1_555
H22 O10 1_555 1_555
Zn1_2 N1A 1_555 1_555
Zn2A O3 1_555 1_555
Zn2_2 N3 1_555 1_555
Zn2_3 N2_2 1_555 1_555
O1A Zn1 1_555 1_555
O2A Zn2A 1_555 1_555
O3A Zn1 1_555 1_555
O4A Zn2 1_555 1_555
O5A Zn2A 1_555 1_555
H1A O5A 1_555 1_555
H2A O5A 1_555 1_555
C1A O1A 1_555 1_555
C2A C1A 1_555 1_555
H3A C2A 1_555 1_555
H4A C2A 1_555 1_555
H5A C2A 1_555 1_555
C3A O3A 1_555 1_555
C4A C3A 1_555 1_555
H6A C4A 1_555 1_555
H7A C4A 1_555 1_555
H8A C4A 1_555 1_555
N1A C5A 1_555 1_555
N1A_2 Zn1 1_555 1_555
C5A H9A 1_555 1_555
C6A C5A 1_555 1_555
H10A C6A 1_555 1_555
C7A C7 1_555 1_555
C8A C7A 1_555 1_555
H11A C8A 1_555 1_555
C9A N1A 1_555 1_555
H12A C9A 1_555 1_555
N2_2 C10_2 1_555 1_555
N2A Zn2A 1_555 1_555
C10_2 H13_2 1_555 1_555
C11_2 C10_2 1_555 1_555
H14_2 C11_2 1_555 1_555
C12_2 C11_2 1_555 1_555
C13_2 C12_2 1_555 1_555
H15_2 C13_2 1_555 1_555
C14_2 N2_2 1_555 1_555
H16_2 C14_2 1_555 1_555
N3_2 Zn2 1_555 1_555
N3A Zn2A 1_555 1_555
C15_2 C12_2 1_555 1_555
C16_2 C15_2 1_555 1_555
H17_2 C16_2 1_555 1_555
C17_2 N3_2 1_555 1_555
H18_2 C17_2 1_555 1_555
C18_2 N3_2 1_555 1_555
H19_2 C18_2 1_555 1_555
C19_2 C15_2 1_555 1_555
H20_2 C19_2 1_555 1_555
Zn2 O3A 1_555 1_555
O4 Zn2A 1_555 1_555
C8 C9 1_555 1_555
C13 C14 1_555 1_555
C18 C19 1_555 1_555
O2A C1A 1_555 1_555
O4A C3A 1_555 1_555
C6A C7A 1_555 1_555
C8A C9A 1_555 1_555
C13_2 C14_2 1_555 1_555
C16_2 C17_2 1_555 1_555
C18_2 C19_2 1_555 1_555

#END
