
#######################################################################
#
#                 Cambridge Crystallographic Data Centre
#                                CCDC 
#
#######################################################################
#
# If this CIF has been generated from an entry in the Cambridge 
# Structural Database, then it will include bibliographic, chemical, 
# crystal, experimental, refinement or atomic coordinate data resulting 
# from the CCDC's data processing and validation procedures.
#
#######################################################################

data_CERGIQ
_symmetry_cell_setting           monoclinic
_symmetry_space_group_name_H-M   'C c'
_symmetry_Int_Tables_number      9
_space_group_name_Hall           'C -2yc'
loop_
_symmetry_equiv_pos_site_id
_symmetry_equiv_pos_as_xyz
1 x,y,z
2 x,-y,1/2+z
3 1/2+x,1/2+y,z
4 1/2+x,1/2-y,1/2+z
_cell_length_a                   18.6657(8)
_cell_length_b                   11.4524(5)
_cell_length_c                   25.783(1)
_cell_angle_alpha                90
_cell_angle_beta                 94.525(1)
_cell_angle_gamma                90
_cell_volume                     5494.38
loop_
_atom_site_label
_atom_site_type_symbol
_atom_site_fract_x
_atom_site_fract_y
_atom_site_fract_z
Zn1 Zn 1.18438(3) 0.59689(3) 1.298917(19)
S1 S 1.35076(6) 0.62153(10) 1.24970(4)
C1 C 1.4032(4) 0.7421(5) 1.2740(2)
H1 H 1.3762 0.8146 1.2672
H2 H 1.4480 0.7452 1.2568
H3 H 1.4142 0.7330 1.3116
O1 O 1.29872(16) 0.5964(2) 1.29098(12)
N1 N 1.1835(2) 0.78614(19) 1.30098(15)
N2 N 1.1874(2) 1.40497(19) 1.30147(16)
C2 C 1.4169(3) 0.5113(5) 1.2574(2)
H4 H 1.4361 0.5083 1.2938
H5 H 1.4559 0.5288 1.2352
H6 H 1.3954 0.4358 1.2473
S2 S 1.01352(6) 0.61506(10) 1.34166(4)
O2 O 1.06945(17) 0.5913(2) 1.30482(13)
N3 N 1.1589(2) 0.5924(3) 1.21670(14)
N4 N 1.0771(2) 0.5820(4) 0.94162(15)
C3 C 0.9577(3) 0.4892(5) 1.3382(2)
H7 H 0.9451 0.4693 1.3017
H8 H 0.9138 0.5046 1.3555
H9 H 0.9837 0.4238 1.3556
N5 N 1.21248(19) 0.5988(3) 1.38192(13)
N6 N 1.3067(2) 0.5691(4) 1.65360(15)
C4 C 0.9518(3) 0.7139(5) 1.3090(2)
H10 H 0.9766 0.7853 1.2995
H11 H 0.9144 0.7336 1.3321
H12 H 0.9299 0.6765 1.2774
C5 C 1.2384(2) 0.8463(3) 1.32444(15)
H13 H 1.2776 0.8037 1.3408
C6 C 1.2413(2) 0.9658(4) 1.32615(16)
H14 H 1.2822 1.0040 1.3426
C7 C 1.1845(2) 1.0306(2) 1.30377(16)
C8 C 1.1262(2) 0.9695(4) 1.27991(16)
H15 H 1.0857 1.0106 1.2645
C9 C 1.1277(2) 0.8484(4) 1.27869(15)
H16 H 1.0882 0.8078 1.2616
C10 C 1.1862(2) 1.1604(2) 1.30358(16)
C11 C 1.1392(2) 1.2256(4) 1.33028(16)
H17 H 1.1047 1.1876 1.3496
C12 C 1.1421(2) 1.3466(4) 1.32911(15)
H18 H 1.1103 1.3896 1.3489
C13 C 1.2330(2) 1.3408(4) 1.27501(16)
H19 H 1.2655 1.3809 1.2548
C14 C 1.2352(2) 1.2217(4) 1.27556(17)
H20 H 1.2695 1.1810 1.2571
C15 C 1.1808(2) 0.6784(3) 1.18541(15)
H21 H 1.2085 0.7405 1.2010
C16 C 1.1653(2) 0.6809(4) 1.13265(16)
H22 H 1.1809 0.7447 1.1129
C17 C 1.1263(2) 0.5897(4) 1.10780(16)
C18 C 1.1047(2) 0.5009(3) 1.14038(16)
H23 H 1.0783 0.4364 1.1258
C19 C 1.1211(2) 0.5057(3) 1.19288(16)
H24 H 1.1048 0.4441 1.2136
C20 C 1.1089(2) 0.5877(4) 1.05085(16)
C21 C 1.1465(2) 0.6548(4) 1.01723(15)
H25 H 1.1840 0.7052 1.0306
C22 C 1.1290(2) 0.6478(4) 0.96431(16)
H26 H 1.1564 0.6937 0.9424
C23 C 1.0409(3) 0.5172(4) 0.97438(16)
H27 H 1.0035 0.4680 0.9598
C24 C 1.0545(2) 0.5178(4) 1.02773(17)
H28 H 1.0267 0.4703 1.0487
C25 C 1.2670(2) 0.5321(3) 1.40143(14)
H29 H 1.2921 0.4859 1.3782
C26 C 1.2885(2) 0.5273(3) 1.45465(15)
H30 H 1.3276 0.4793 1.4670
C27 C 1.2521(2) 0.5934(3) 1.48900(15)
C28 C 1.1960(2) 0.6629(4) 1.46830(15)
H31 H 1.1695 0.7098 1.4904
C29 C 1.1789(2) 0.6633(3) 1.41507(15)
H32 H 1.1410 0.7126 1.4015
C30 C 1.2717(2) 0.5858(4) 1.54604(17)
C31 C 1.3032(2) 0.4864(4) 1.56808(16)
H33 H 1.3142 0.4220 1.5469
C32 C 1.3186(3) 0.4823(5) 1.62165(17)
H34 H 1.3389 0.4125 1.6363
C33 C 1.2784(3) 0.6655(4) 1.63213(16)
H35 H 1.2707 0.7296 1.6544
C34 C 1.2591(2) 0.6792(4) 1.57918(15)
H36 H 1.2380 0.7497 1.5659
Zn1_2 Zn 1.18438(3) 1.59689(3) 1.298917(19)
N2_2 N 1.1874(2) 0.40497(19) 1.30147(16)
N7 N 0.9993(2) 0.2056(5) 1.68143(16)
N8 N 0.8842(3) 0.2800(5) 1.41303(18)
C35 C 1.0083(4) 0.1263(6) 1.6465(2)
H37 H 1.0312 0.0557 1.6579
C36 C 0.9870(4) 0.1369(6) 1.5935(2)
H38 H 0.9961 0.0755 1.5702
C37 C 0.9529(2) 0.2370(5) 1.57555(17)
C38 C 0.9433(3) 0.3235(5) 1.61190(19)
H39 H 0.9208 0.3952 1.6017
C39 C 0.9673(3) 0.3039(5) 1.66367(19)
H40 H 0.9606 0.3643 1.6880
C40 C 0.9288(3) 0.2532(5) 1.51899(18)
C41 C 0.9615(3) 0.1910(5) 1.48077(18)
H41 H 1.0000 0.1387 1.4898
C42 C 0.9364(3) 0.2075(5) 1.42917(18)
H42 H 0.9584 0.1633 1.4035
C43 C 0.8543(3) 0.3411(6) 1.4501(2)
H43 H 0.8168 0.3941 1.4397
C44 C 0.8750(3) 0.3315(5) 1.5027(2)
H44 H 0.8525 0.3780 1.5273
N9 N 1.0271(6) 0.7686(9) 1.6740(4)
C45 C 0.9799(7) 0.7550(10) 1.6318(5)
H45 H 0.9355 0.7178 1.6370
C46 C 0.9910(5) 0.7918(9) 1.5798(4)
H46 H 0.9554 0.7775 1.5522
C47 C 1.1077(5) 0.8512(8) 1.6176(4)
H47 H 1.1549 0.8787 1.6132
C48 C 1.0912(7) 0.8169(10) 1.6651(4)
H48 H 1.1260 0.8270 1.6936
C49 C 1.0722(6) 0.8847(8) 1.5233(4)
C50 C 1.0307(6) 0.8556(9) 1.4782(4)
H49 H 0.9924 0.8019 1.4809
C51 C 1.0414(8) 0.8989(12) 1.4307(6)
H50 H 1.0115 0.8746 1.4011
N10 N 1.0908(8) 0.9711(13) 1.4258(5)
C52 C 1.1404(7) 1.0058(10) 1.4660(5)
H51 H 1.1791 1.0574 1.4610
C53 C 1.1287(6) 0.9598(9) 1.5130(5)
H52 H 1.1618 0.9801 1.5415
C56 C 1.0530(3) 0.8473(4) 1.57070(19)
Cl1 Cl 0.7915(2) 0.5308(2) 1.66699(16)
O3 O 0.8159(4) 0.6464(7) 1.6564(3)
O4 O 0.8420(4) 0.4699(7) 1.7122(3)
O5 O 0.7231(4) 0.5368(6) 1.6851(3)
O6 O 0.7861(4) 0.4651(7) 1.6193(3)
Cl4 Cl 0.8195(3) 0.6818(5) 1.44139(19)
O15 O 0.7597(5) 0.6083(8) 1.4375(4)
O16 O 0.8122(5) 0.7703(8) 1.4009(3)
O17 O 0.8202(6) 0.7450(8) 1.4908(3)
O18 O 0.8771(5) 0.6113(7) 1.4227(4)
O19 O 0.7462(10) 0.5467(16) 1.5525(7)
N11? N 1.0500(9) 0.7993(12) 1.6751(5)
C54? C 0.9934(10) 0.7708(15) 1.6419(7)
H53? H 0.9537 0.7319 1.6550
C55? C 0.9913(8) 0.7940(13) 1.5937(6)
H54? H 0.9490 0.7767 1.5721
C57? C 1.1039(6) 0.8806(11) 1.6000(5)
H55? H 1.1421 0.9239 1.5872
C58? C 1.1039(8) 0.8533(14) 1.6525(6)
H56? H 1.1452 0.8743 1.6743
C59? C 1.0451(6) 0.8868(8) 1.5110(4)
C60? C 0.9859(7) 0.8637(10) 1.4763(4)
H57? H 0.9466 0.8203 1.4877
C61? C 0.9832(8) 0.9030(11) 1.4252(6)
H58? H 0.9404 0.8913 1.4033
N12? N 1.0383(6) 0.9562(11) 1.4058(5)
C62? C 1.1069(12) 0.9910(19) 1.4351(9)
H59? H 1.1457 0.0337 1.4227
C63? C 1.1006(7) 0.9431(10) 1.4883(5)
H60? H 1.1427 0.9531 1.5111
Cl2? Cl 0.8250(4) 0.5371(6) 1.68379(16)
O7? O 0.894(2) 0.522(4) 1.7048(15)
O8? O 0.7957(12) 0.435(2) 1.6685(9)
O9? O 0.7940(13) 0.623(2) 1.7087(9)
O10? O 0.8558(11) 0.5616(18) 1.6388(8)
Cl3? Cl 0.8434(3) 0.7144(5) 1.4368(2)
O11? O 0.8502(8) 0.7479(11) 1.4894(5)
O12? O 0.7713(9) 0.6898(16) 1.4204(6)
O13? O 0.8644(6) 0.8062(9) 1.4049(4)
O14? O 0.8936(7) 0.6268(10) 1.4466(6)
loop_
_geom_bond_atom_site_label_1
_geom_bond_atom_site_label_2
_geom_bond_site_symmetry_1
_geom_bond_site_symmetry_2
Zn1 O1 1_555 1_555
S1 C1 1_555 1_555
C1 H1 1_555 1_555
H2 C1 1_555 1_555
H3 C1 1_555 1_555
O1 S1 1_555 1_555
N1 Zn1 1_555 1_555
N2 C12 1_555 1_555
C2 S1 1_555 1_555
H4 C2 1_555 1_555
H5 C2 1_555 1_555
H6 C2 1_555 1_555
S2 O2 1_555 1_555
O2 Zn1 1_555 1_555
N3 Zn1 1_555 1_555
N4 C22 1_555 1_555
C3 S2 1_555 1_555
H7 C3 1_555 1_555
H8 C3 1_555 1_555
H9 C3 1_555 1_555
N5 Zn1 1_555 1_555
N6 C32 1_555 1_555
C4 S2 1_555 1_555
H10 C4 1_555 1_555
H11 C4 1_555 1_555
H12 C4 1_555 1_555
C5 N1 1_555 1_555
H13 C5 1_555 1_555
C6 C5 1_555 1_555
H14 C6 1_555 1_555
C7 C6 1_555 1_555
C8 C7 1_555 1_555
H15 C8 1_555 1_555
C9 N1 1_555 1_555
H16 C9 1_555 1_555
C10 C7 1_555 1_555
C11 C10 1_555 1_555
H17 C11 1_555 1_555
C12 C11 1_555 1_555
H18 C12 1_555 1_555
C13 N2 1_555 1_555
H19 C13 1_555 1_555
C14 C10 1_555 1_555
H20 C14 1_555 1_555
C15 N3 1_555 1_555
H21 C15 1_555 1_555
C16 C15 1_555 1_555
H22 C16 1_555 1_555
C17 C16 1_555 1_555
C18 C17 1_555 1_555
H23 C18 1_555 1_555
C19 N3 1_555 1_555
H24 C19 1_555 1_555
C20 C17 1_555 1_555
C21 C20 1_555 1_555
H25 C21 1_555 1_555
C22 C21 1_555 1_555
H26 C22 1_555 1_555
C23 N4 1_555 1_555
H27 C23 1_555 1_555
C24 C20 1_555 1_555
H28 C24 1_555 1_555
C25 N5 1_555 1_555
H29 C25 1_555 1_555
C26 C25 1_555 1_555
H30 C26 1_555 1_555
C27 C26 1_555 1_555
C28 C27 1_555 1_555
H31 C28 1_555 1_555
C29 N5 1_555 1_555
H32 C29 1_555 1_555
C30 C27 1_555 1_555
C31 C30 1_555 1_555
H33 C31 1_555 1_555
C32 C31 1_555 1_555
H34 C32 1_555 1_555
C33 N6 1_555 1_555
H35 C33 1_555 1_555
C34 C30 1_555 1_555
H36 C34 1_555 1_555
N7 C35 1_555 1_555
N8 C42 1_555 1_555
C35 H37 1_555 1_555
C36 C35 1_555 1_555
H38 C36 1_555 1_555
C37 C36 1_555 1_555
C38 C37 1_555 1_555
H39 C38 1_555 1_555
C39 N7 1_555 1_555
H40 C39 1_555 1_555
C40 C37 1_555 1_555
C41 C40 1_555 1_555
H41 C41 1_555 1_555
C42 C41 1_555 1_555
H42 C42 1_555 1_555
C43 N8 1_555 1_555
H43 C43 1_555 1_555
C44 C40 1_555 1_555
H44 C44 1_555 1_555
N9 C45 1_555 1_555
C45 H45 1_555 1_555
C46 C45 1_555 1_555
H46 C46 1_555 1_555
C47 H47 1_555 1_555
C48 N9 1_555 1_555
H48 C48 1_555 1_555
C49 C50 1_555 1_555
C50 H49 1_555 1_555
C51 C50 1_555 1_555
H50 C51 1_555 1_555
N10 C51 1_555 1_555
C52 N10 1_555 1_555
H51 C52 1_555 1_555
C53 C49 1_555 1_555
H52 C53 1_555 1_555
C56 C46 1_555 1_555
Cl1 O3 1_555 1_555
O4 Cl1 1_555 1_555
O5 Cl1 1_555 1_555
O6 Cl1 1_555 1_555
Cl4 O15 1_555 1_555
O16 Cl4 1_555 1_555
O17 Cl4 1_555 1_555
O18 Cl4 1_555 1_555
Zn1_2 N2 1_555 1_555
N2_2 Zn1 1_555 1_555
C8 C9 1_555 1_555
C13 C14 1_555 1_555
C18 C19 1_555 1_555
C23 C24 1_555 1_555
C28 C29 1_555 1_555
C33 C34 1_555 1_555
C38 C39 1_555 1_555
C43 C44 1_555 1_555
C47 C48 1_555 1_555
C47 C56 1_555 1_555
C49 C56 1_555 1_555
C52 C53 1_555 1_555

#END
