
#######################################################################
#
#                 Cambridge Crystallographic Data Centre
#                                CCDC 
#
#######################################################################
#
# If this CIF has been generated from an entry in the Cambridge 
# Structural Database, then it will include bibliographic, chemical, 
# crystal, experimental, refinement or atomic coordinate data resulting 
# from the CCDC's data processing and validation procedures.
#
#######################################################################

data_CERGEM
_symmetry_cell_setting           triclinic
_symmetry_space_group_name_H-M   'P -1'
_symmetry_Int_Tables_number      2
_space_group_name_Hall           '-P 1'
loop_
_symmetry_equiv_pos_site_id
_symmetry_equiv_pos_as_xyz
1 x,y,z
2 -x,-y,-z
_cell_length_a                   8.3491(4)
_cell_length_b                   9.3154(4)
_cell_length_c                   19.4783(8)
_cell_angle_alpha                86.677(1)
_cell_angle_beta                 89.337(1)
_cell_angle_gamma                89.421(1)
_cell_volume                     1512.21
loop_
_atom_site_label
_atom_site_type_symbol
_atom_site_fract_x
_atom_site_fract_y
_atom_site_fract_z
Zn1 Zn 0.0000 0.0000 0.5000
Zn2 Zn 0.5000 0.5000 0.0000
S1 S -0.36162(5) -0.05073(6) 0.42485(3)
S2 S 0.18492(5) -0.26707(5) 0.42486(2)
S3 S 0.66971(6) 0.73943(5) 0.08383(2)
S4 S 0.79422(5) 0.28903(5) 0.05908(2)
O1 O -0.23892(15) 0.02800(14) 0.46446(6)
O2 O 0.03304(15) -0.20400(14) 0.45540(7)
O3 O 0.52033(15) 0.69767(13) 0.04565(6)
O4 O 0.72701(15) 0.43706(13) 0.03874(7)
N1 N 0.08650(17) 0.11563(16) 0.40990(7)
N2 N 0.38048(17) 0.41370(15) 0.09071(7)
C1 C 0.2323(2) 0.0849(2) 0.38427(9)
H1 H 0.2981 0.0175 0.4096
C2 C 0.2909(2) 0.1459(2) 0.32324(9)
H2 H 0.3946 0.1203 0.3072
C3 C 0.1976(2) 0.24534(18) 0.28497(8)
C4 C 0.0490(2) 0.28198(19) 0.31265(9)
H3 H -0.0169 0.3525 0.2894
C5 C -0.0018(2) 0.21481(19) 0.37426(9)
H4 H -0.1039 0.2401 0.3921
C6 C 0.2566(2) 0.30548(19) 0.21749(8)
C7 C 0.3426(2) 0.21783(19) 0.17417(9)
H5 H 0.3615 0.1194 0.1875
C8 C 0.3999(2) 0.27514(18) 0.11196(9)
H6 H 0.4560 0.2134 0.0826
C9 C 0.2946(2) 0.49753(18) 0.13146(9)
H7 H 0.2774 0.5954 0.1167
C10 C 0.2298(2) 0.44767(19) 0.19419(9)
H8 H 0.1677 0.5101 0.2210
C11 C -0.3620(3) -0.2316(2) 0.45936(13)
H9 H -0.2515 -0.2676 0.4630
H10 H -0.4221 -0.2912 0.4290
H11 H -0.4125 -0.2358 0.5051
C12 C -0.2741(3) -0.0795(3) 0.34269(12)
H12 H -0.2597 0.0133 0.3171
H13 H -0.3447 -0.1399 0.3171
H14 H -0.1699 -0.1275 0.3488
C13 C 0.1959(3) -0.4482(2) 0.45772(13)
H15 H 0.2120 -0.4508 0.5075
H16 H 0.2859 -0.4969 0.4358
H17 H 0.0960 -0.4970 0.4480
C14 C 0.1357(3) -0.2991(3) 0.33857(11)
H18 H 0.0393 -0.3582 0.3382
H19 H 0.2249 -0.3495 0.3170
H20 H 0.1157 -0.2071 0.3129
C15 C 0.6439(4) 0.9276(2) 0.09086(17)
H21 H 0.6601 0.9774 0.0456
H22 H 0.7221 0.9618 0.1232
H23 H 0.5353 0.9475 0.1077
C16 C 0.6347(3) 0.6847(3) 0.17171(11)
H24 H 0.5320 0.7244 0.1869
H25 H 0.7210 0.7200 0.1998
H26 H 0.6319 0.5795 0.1769
C17 C 0.9901(2) 0.2856(2) 0.02253(12)
H27 H 0.9829 0.2901 -0.0277
H28 H 1.0451 0.1966 0.0383
H29 H 1.0503 0.3684 0.0368
C18 C 0.8465(3) 0.2970(3) 0.14680(11)
H30 H 0.9114 0.3825 0.1525
H31 H 0.9081 0.2107 0.1614
H32 H 0.7488 0.3022 0.1750
Zn2_2 Zn -0.5000 -0.5000 1.0000
S1A S 0.36162(5) 0.05073(6) 0.57515(3)
S2A S -0.18492(5) 0.26707(5) 0.57514(2)
S3A S 0.33029(6) 0.26057(5) -0.08383(2)
S4A S 0.20578(5) 0.71097(5) -0.05908(2)
O1A O 0.23892(15) -0.02800(14) 0.53554(6)
O2A O -0.03304(15) 0.20400(14) 0.54460(7)
O3A O 0.47967(15) 0.30233(13) -0.04565(6)
O4A O 0.27299(15) 0.56294(13) -0.03874(7)
N1A N -0.08650(17) -0.11563(16) 0.59010(7)
N2A N -0.38048(17) -0.41370(15) 0.90929(7)
N2A_2 N 0.61952(17) 0.58630(15) -0.09071(7)
C1A C -0.2323(2) -0.0849(2) 0.61573(9)
H1A H -0.2981 -0.0175 0.5904
C2A C -0.2909(2) -0.1459(2) 0.67676(9)
H2A H -0.3946 -0.1203 0.6928
C3A C -0.1976(2) -0.24534(18) 0.71503(8)
C4A C -0.0490(2) -0.28198(19) 0.68735(9)
H3A H 0.0169 -0.3525 0.7106
C5A C 0.0018(2) -0.21481(19) 0.62574(9)
H4A H 0.1039 -0.2401 0.6079
C6A C -0.2566(2) -0.30548(19) 0.78251(8)
C7A C -0.3426(2) -0.21783(19) 0.82583(9)
H5A H -0.3615 -0.1194 0.8125
C8A C -0.3999(2) -0.27514(18) 0.88804(9)
H6A H -0.4560 -0.2134 0.9174
C9A C -0.2946(2) -0.49753(18) 0.86854(9)
H7A H -0.2774 -0.5954 0.8833
C10A C -0.2298(2) -0.44767(19) 0.80581(9)
H8A H -0.1677 -0.5101 0.7790
C11A C 0.3620(3) 0.2316(2) 0.54064(13)
H9A H 0.2515 0.2676 0.5370
H10A H 0.4221 0.2912 0.5710
H11A H 0.4125 0.2358 0.4949
C12A C 0.2741(3) 0.0795(3) 0.65731(12)
H12A H 0.2597 -0.0133 0.6829
H13A H 0.3447 0.1399 0.6829
H14A H 0.1699 0.1275 0.6512
C13A C -0.1959(3) 0.4482(2) 0.54228(13)
H15A H -0.2120 0.4508 0.4925
H16A H -0.2859 0.4969 0.5642
H17A H -0.0960 0.4970 0.5520
C14A C -0.1357(3) 0.2991(3) 0.66143(11)
H18A H -0.0393 0.3582 0.6618
H19A H -0.2249 0.3495 0.6830
H20A H -0.1157 0.2071 0.6871
C15A C 0.3561(4) 0.0724(2) -0.09086(17)
H21A H 0.3399 0.0226 -0.0456
H22A H 0.2779 0.0382 -0.1232
H23A H 0.4647 0.0525 -0.1077
C16A C 0.3653(3) 0.3153(3) -0.17171(11)
H24A H 0.4680 0.2756 -0.1869
H25A H 0.2790 0.2800 -0.1998
H26A H 0.3681 0.4205 -0.1769
C17A C 0.0099(2) 0.7144(2) -0.02253(12)
H27A H 0.0171 0.7099 0.0277
H28A H -0.0451 0.8034 -0.0383
H29A H -0.0503 0.6316 -0.0368
C18A C 0.1535(3) 0.7030(3) -0.14680(11)
H30A H 0.0886 0.6175 -0.1525
H31A H 0.0919 0.7893 -0.1614
H32A H 0.2512 0.6978 -0.1750
Cl1 Cl 1.09980(7) 0.88716(5) 0.16137(3)
O5 O 1.1073(4) 0.9581(2) 0.09517(11)
O6 O 1.0123(3) 0.9732(2) 0.20701(13)
O7 O 1.0251(2) 0.75020(18) 0.15766(11)
O8 O 1.2578(2) 0.8652(2) 0.18797(11)
Cl2 Cl 0.61590(6) 1.44319(6) 0.34074(3)
O9 O 0.5785(3) 1.3667(3) 0.40379(10)
O10 O 0.6277(2) 1.3464(2) 0.28695(11)
O11 O 0.4931(2) 1.5480(3) 0.32624(11)
O12 O 0.7650(2) 1.5143(2) 0.34753(12)
loop_
_geom_bond_atom_site_label_1
_geom_bond_atom_site_label_2
_geom_bond_site_symmetry_1
_geom_bond_site_symmetry_2
Zn1 O1 1_555 1_555
Zn2 O3 1_555 1_555
S1 O1 1_555 1_555
S2 O2 1_555 1_555
S3 O3 1_555 1_555
S4 O4 1_555 1_555
O2 Zn1 1_555 1_555
O4 Zn2 1_555 1_555
N1 Zn1 1_555 1_555
N2 Zn2 1_555 1_555
C1 N1 1_555 1_555
H1 C1 1_555 1_555
C2 C1 1_555 1_555
H2 C2 1_555 1_555
C3 C2 1_555 1_555
C4 C3 1_555 1_555
H3 C4 1_555 1_555
C5 N1 1_555 1_555
H4 C5 1_555 1_555
C6 C3 1_555 1_555
C7 C6 1_555 1_555
H5 C7 1_555 1_555
C8 N2 1_555 1_555
H6 C8 1_555 1_555
C9 N2 1_555 1_555
H7 C9 1_555 1_555
C10 C6 1_555 1_555
H8 C10 1_555 1_555
C11 S1 1_555 1_555
H9 C11 1_555 1_555
H10 C11 1_555 1_555
H11 C11 1_555 1_555
C12 S1 1_555 1_555
H12 C12 1_555 1_555
H13 C12 1_555 1_555
H14 C12 1_555 1_555
C13 S2 1_555 1_555
H15 C13 1_555 1_555
H16 C13 1_555 1_555
H17 C13 1_555 1_555
C14 S2 1_555 1_555
H18 C14 1_555 1_555
H19 C14 1_555 1_555
H20 C14 1_555 1_555
C15 S3 1_555 1_555
H21 C15 1_555 1_555
H22 C15 1_555 1_555
H23 C15 1_555 1_555
C16 S3 1_555 1_555
H24 C16 1_555 1_555
H25 C16 1_555 1_555
H26 C16 1_555 1_555
C17 S4 1_555 1_555
H27 C17 1_555 1_555
H28 C17 1_555 1_555
H29 C17 1_555 1_555
C18 S4 1_555 1_555
H30 C18 1_555 1_555
H31 C18 1_555 1_555
H32 C18 1_555 1_555
Cl1 O5 1_555 1_555
O6 Cl1 1_555 1_555
O7 Cl1 1_555 1_555
O8 Cl1 1_555 1_555
Cl2 O9 1_555 1_555
O10 Cl2 1_555 1_555
O11 Cl2 1_555 1_555
O12 Cl2 1_555 1_555
Zn2_2 N2A 1_555 1_555
S1A O1A 1_555 1_555
S2A O2A 1_555 1_555
S3A O3A 1_555 1_555
S4A O4A 1_555 1_555
O1A Zn1 1_555 1_555
O2A Zn1 1_555 1_555
O3A Zn2 1_555 1_555
O4A Zn2 1_555 1_555
N1A Zn1 1_555 1_555
N2A C8A 1_555 1_555
N2A_2 Zn2 1_555 1_555
C1A N1A 1_555 1_555
H1A C1A 1_555 1_555
C2A C1A 1_555 1_555
H2A C2A 1_555 1_555
C3A C2A 1_555 1_555
C4A C3A 1_555 1_555
H3A C4A 1_555 1_555
C5A N1A 1_555 1_555
H4A C5A 1_555 1_555
C6A C3A 1_555 1_555
C7A C6A 1_555 1_555
H5A C7A 1_555 1_555
C8A C7A 1_555 1_555
H6A C8A 1_555 1_555
C9A N2A 1_555 1_555
H7A C9A 1_555 1_555
C10A C6A 1_555 1_555
H8A C10A 1_555 1_555
C11A S1A 1_555 1_555
H9A C11A 1_555 1_555
H10A C11A 1_555 1_555
H11A C11A 1_555 1_555
C12A S1A 1_555 1_555
H12A C12A 1_555 1_555
H13A C12A 1_555 1_555
H14A C12A 1_555 1_555
C13A S2A 1_555 1_555
H15A C13A 1_555 1_555
H16A C13A 1_555 1_555
H17A C13A 1_555 1_555
C14A S2A 1_555 1_555
H18A C14A 1_555 1_555
H19A C14A 1_555 1_555
H20A C14A 1_555 1_555
C15A S3A 1_555 1_555
H21A C15A 1_555 1_555
H22A C15A 1_555 1_555
H23A C15A 1_555 1_555
C16A S3A 1_555 1_555
H24A C16A 1_555 1_555
H25A C16A 1_555 1_555
H26A C16A 1_555 1_555
C17A S4A 1_555 1_555
H27A C17A 1_555 1_555
H28A C17A 1_555 1_555
H29A C17A 1_555 1_555
C18A S4A 1_555 1_555
H30A C18A 1_555 1_555
H31A C18A 1_555 1_555
H32A C18A 1_555 1_555
C4 C5 1_555 1_555
C7 C8 1_555 1_555
C9 C10 1_555 1_555
C4A C5A 1_555 1_555
C9A C10A 1_555 1_555

#END
