
#######################################################################
#
#                 Cambridge Crystallographic Data Centre
#                                CCDC 
#
#######################################################################
#
# If this CIF has been generated from an entry in the Cambridge 
# Structural Database, then it will include bibliographic, chemical, 
# crystal, experimental, refinement or atomic coordinate data resulting 
# from the CCDC's data processing and validation procedures.
#
#######################################################################

data_CERMIW
_symmetry_cell_setting           monoclinic
_symmetry_space_group_name_H-M   'P 21/c'
_symmetry_Int_Tables_number      14
_space_group_name_Hall           '-P 2ybc'
loop_
_symmetry_equiv_pos_site_id
_symmetry_equiv_pos_as_xyz
1 x,y,z
2 -x,1/2+y,1/2-z
3 -x,-y,-z
4 x,1/2-y,1/2+z
_cell_length_a                   11.726(2)
_cell_length_b                   11.135(2)
_cell_length_c                   12.485(3)
_cell_angle_alpha                90
_cell_angle_beta                 116.37(3)
_cell_angle_gamma                90
_cell_volume                     1460.53
loop_
_atom_site_label
_atom_site_type_symbol
_atom_site_fract_x
_atom_site_fract_y
_atom_site_fract_z
C1 C 0.5458(2) 0.2346(2) 0.5795(2)
C2 C 0.5752(3) 0.1419(2) 0.6779(3)
H1 H 0.6342 0.1770 0.7534
H2 H 0.4973 0.1236 0.6837
C3 C 0.7469(3) 0.0287(2) 0.6633(2)
C4 C 0.7885(3) -0.0746(2) 0.6275(3)
H3 H 0.7358 -0.1416 0.6033
C5 C 0.9036(3) -0.0789(2) 0.6275(3)
H4 H 0.9281 -0.1486 0.6022
C6 C 0.9866(3) 0.0190(2) 0.6648(2)
C7 C 0.9476(3) 0.1211(2) 0.7036(2)
H5 H 1.0022 0.1867 0.7303
C8 C 0.8316(3) 0.1274(2) 0.7036(2)
H6 H 0.8079 0.1968 0.7302
C9 C 1.1101(3) 0.0176(3) 0.6639(3)
C10 C 0.2590(3) 0.4048(3) 0.5315(3)
H7 H 0.3086 0.3356 0.5531
C11 C 0.1417(3) 0.4006(3) 0.5327(3)
H8 H 0.1152 0.3303 0.5550
C12 C 0.0640(2) 0.5002(2) 0.5009(2)
C13 C 0.1135(3) 0.6004(3) 0.4734(3)
H9 H 0.0670 0.6715 0.4537
C14 C 0.2320(3) 0.5968(3) 0.4746(3)
H10 H 0.2616 0.6669 0.4550
Co1 Co 0.5000 0.5000 0.5000
N1 N 0.30613(19) 0.50134(17) 0.50159(18)
O1 O 0.54515(17) 0.34299(15) 0.60868(15)
O2 O 0.52027(19) 0.19923(17) 0.47674(17)
O3 O 0.6295(3) 0.0298(2) 0.6604(3)
O4 O 1.1817(2) 0.1046(2) 0.6910(2)
O5 O 1.1395(2) -0.0863(2) 0.6309(2)
H11 H 1.2111 -0.0822 0.6350
O6 O 0.56987(17) 0.60329(17) 0.65141(16)
H12 H 0.554(3) 0.6746(12) 0.629(2)
H13 H 0.6459(12) 0.596(2) 0.698(2)
C1B C 0.4542(2) 0.7654(2) 0.4205(2)
C2B C 0.4248(3) 0.8581(2) 0.3221(3)
H1B H 0.3658 0.8230 0.2466
H2B H 0.5027 0.8764 0.3163
C3B C 0.2531(3) 0.9713(2) 0.3367(2)
C4B C 0.2115(3) 1.0746(2) 0.3725(3)
H3B H 0.2642 1.1416 0.3967
C5B C 0.0964(3) 1.0789(2) 0.3725(3)
H4B H 0.0719 1.1486 0.3978
C6B C 0.0134(3) 0.9810(2) 0.3352(2)
C7B C 0.0524(3) 0.8789(2) 0.2964(2)
H5B H -0.0022 0.8133 0.2697
C8B C 0.1684(3) 0.8726(2) 0.2964(2)
H6B H 0.1921 0.8032 0.2698
C9B C -0.1101(3) 0.9824(3) 0.3361(3)
C10B C -0.2590(3) 0.5952(3) 0.4685(3)
H7B H -0.3086 0.6644 0.4469
C11B C -0.1417(3) 0.5994(3) 0.4673(3)
H8B H -0.1152 0.6697 0.4450
C12B C -0.0640(2) 0.4998(2) 0.4991(2)
C13B C -0.1135(3) 0.3996(3) 0.5266(3)
H9B H -0.0670 0.3285 0.5463
C14B C -0.2320(3) 0.4032(3) 0.5254(3)
H10B H -0.2616 0.3331 0.5450
Co1_2 Co -0.5000 0.5000 0.5000
N1B N -0.30613(19) 0.49866(17) 0.49841(18)
N1B_2 N 0.69387(19) 0.49866(17) 0.49841(18)
O1B O 0.45485(17) 0.65701(15) 0.39132(15)
O2B O 0.47973(19) 0.80077(17) 0.52326(17)
O3B O 0.3705(3) 0.9702(2) 0.3396(3)
O4B O -0.1817(2) 0.8954(2) 0.3090(2)
O5B O -0.1395(2) 1.0863(2) 0.3691(2)
H11B H -0.2111 1.0822 0.3650
O6B O 0.43013(17) 0.39671(17) 0.34859(16)
H12B H 0.446(3) 0.3254(12) 0.371(2)
H13B H 0.3541(12) 0.404(2) 0.302(2)
O7 O 0.3679(3) 0.9127(2) 0.6490(2)
H14 H 0.392(4) 0.874(3) 0.606(3)
H15 H 0.411(4) 0.890(4) 0.7192(13)
loop_
_geom_bond_atom_site_label_1
_geom_bond_atom_site_label_2
_geom_bond_site_symmetry_1
_geom_bond_site_symmetry_2
C1 C2 1_555 1_555
C2 H1 1_555 1_555
H2 C2 1_555 1_555
C3 C4 1_555 1_555
C4 H3 1_555 1_555
C5 C4 1_555 1_555
H4 C5 1_555 1_555
C6 C5 1_555 1_555
C7 C6 1_555 1_555
H5 C7 1_555 1_555
C8 C3 1_555 1_555
H6 C8 1_555 1_555
C9 C6 1_555 1_555
C10 H7 1_555 1_555
C11 C10 1_555 1_555
H8 C11 1_555 1_555
C12 C11 1_555 1_555
C13 C12 1_555 1_555
H9 C13 1_555 1_555
C14 C13 1_555 1_555
H10 C14 1_555 1_555
Co1 N1 1_555 1_555
N1 C10 1_555 1_555
O1 C1 1_555 1_555
O2 C1 1_555 1_555
O3 C2 1_555 1_555
O4 C9 1_555 1_555
O5 C9 1_555 1_555
H11 O5 1_555 1_555
O6 Co1 1_555 1_555
H12 O6 1_555 1_555
H13 O6 1_555 1_555
O7 H14 1_555 1_555
H15 O7 1_555 1_555
C1B C2B 1_555 1_555
C2B H1B 1_555 1_555
H2B C2B 1_555 1_555
C3B C4B 1_555 1_555
C4B H3B 1_555 1_555
C5B C4B 1_555 1_555
H4B C5B 1_555 1_555
C6B C5B 1_555 1_555
C7B C6B 1_555 1_555
H5B C7B 1_555 1_555
C8B C3B 1_555 1_555
H6B C8B 1_555 1_555
C9B C6B 1_555 1_555
C10B H7B 1_555 1_555
C11B C10B 1_555 1_555
H8B C11B 1_555 1_555
C12B C12 1_555 1_555
C13B C12B 1_555 1_555
H9B C13B 1_555 1_555
C14B C13B 1_555 1_555
H10B C14B 1_555 1_555
Co1_2 N1B 1_555 1_555
N1B C10B 1_555 1_555
N1B_2 Co1 1_555 1_555
O1B Co1 1_555 1_555
O2B C1B 1_555 1_555
O3B C2B 1_555 1_555
O4B C9B 1_555 1_555
O5B C9B 1_555 1_555
H11B O5B 1_555 1_555
O6B Co1 1_555 1_555
H12B O6B 1_555 1_555
H13B O6B 1_555 1_555
C3 O3 1_555 1_555
C7 C8 1_555 1_555
C14 N1 1_555 1_555
Co1 O1 1_555 1_555
C1B O1B 1_555 1_555
C3B O3B 1_555 1_555
C7B C8B 1_555 1_555
C11B C12B 1_555 1_555
C14B N1B 1_555 1_555

#END
