
#######################################################################
#
#                 Cambridge Crystallographic Data Centre
#                                CCDC 
#
#######################################################################
#
# If this CIF has been generated from an entry in the Cambridge 
# Structural Database, then it will include bibliographic, chemical, 
# crystal, experimental, refinement or atomic coordinate data resulting 
# from the CCDC's data processing and validation procedures.
#
#######################################################################

data_CERMOC
_symmetry_cell_setting           triclinic
_symmetry_space_group_name_H-M   'P -1'
_symmetry_Int_Tables_number      2
_space_group_name_Hall           '-P 1'
loop_
_symmetry_equiv_pos_site_id
_symmetry_equiv_pos_as_xyz
1 x,y,z
2 -x,-y,-z
_cell_length_a                   8.604(3)
_cell_length_b                   11.207(3)
_cell_length_c                   13.444(4)
_cell_angle_alpha                111.958(3)
_cell_angle_beta                 100.522(4)
_cell_angle_gamma                94.042(4)
_cell_volume                     1168.31
loop_
_atom_site_label
_atom_site_type_symbol
_atom_site_fract_x
_atom_site_fract_y
_atom_site_fract_z
Mn1 Mn 0.5000 0.5000 0.5000
Mn2 Mn 0.22039(7) 0.37896(5) 0.23004(4)
N1 N 0.1455(4) 0.2962(3) 0.0446(2)
N2 N -0.0258(4) 0.4236(3) 0.1851(3)
O1 O 0.2889(3) 0.3714(3) 0.4887(2)
O2 O 0.1299(4) 0.2866(3) 0.3215(2)
O3 O 0.3546(3) -0.4491(2) 0.37072(19)
O4 O 0.3247(4) -0.4220(3) 0.2165(2)
O5 O 0.5746(3) 0.3382(3) 0.3799(2)
O6 O 0.4176(4) 0.2821(3) 0.2147(2)
C1 C 0.1789(5) 0.2906(3) 0.4162(3)
C2 C 0.0977(5) 0.1846(4) 0.4427(3)
H1 H 0.0898 0.2205 0.5191
H2 H -0.0099 0.1547 0.3971
C3 C 0.1889(4) 0.0704(3) 0.4233(3)
C4 C 0.2021(5) 0.0042(4) 0.4930(3)
H3 H 0.1530 0.0300 0.5523
C5 C 0.2640(5) 0.0266(4) 0.3362(3)
H4 H 0.2560 0.0672 0.2869
C6 C 0.3771(4) -0.3791(3) 0.3179(3)
C7 C 0.4686(5) -0.2441(4) 0.3793(4)
H5 H 0.5234 -0.2357 0.4520
H6 H 0.5493 -0.2315 0.3409
C8 C 0.3652(5) -0.1394(4) 0.3915(3)
C9 C 0.3496(5) -0.0748(4) 0.3206(4)
H7 H 0.3984 -0.1011 0.2613
C10 C 0.2870(5) -0.0994(4) 0.4756(4)
H8 H 0.2911 -0.1432 0.5225
C11 C 0.5289(5) 0.2680(4) 0.2803(3)
C12 C 0.6197(5) 0.1540(4) 0.2351(3)
H9 H 0.7317 0.1879 0.2482
H10 H 0.6125 0.0986 0.2754
C13 C 0.5585(5) 0.0723(3) 0.1136(3)
C14 C 0.4153(5) -0.0095(4) 0.0732(3)
H11 H 0.3558 -0.0173 0.1223
C15 C 0.6434(5) 0.0809(4) 0.0386(3)
H12 H 0.7413 0.1352 0.0632
C16 C 0.2365(6) 0.2327(4) -0.0221(3)
H13 H 0.3312 0.2116 0.0083
C17 C 0.1950(6) 0.1975(5) -0.1342(3)
H14 H 0.2609 0.1532 -0.1786
C18 C 0.0566(6) 0.2280(5) -0.1796(4)
H15 H 0.0270 0.2050 -0.2552
C19 C -0.0392(5) 0.2936(4) -0.1120(3)
H16 H -0.1337 0.3160 -0.1413
C20 C 0.0071(5) 0.3253(4) -0.0005(3)
C21 C -0.0917(5) 0.3923(4) 0.0786(3)
C22 C -0.2446(5) 0.4166(5) 0.0448(4)
H17 H -0.2883 0.3954 -0.0294
C23 C -0.3299(5) 0.4723(5) 0.1228(4)
H18 H -0.4329 0.4881 0.1016
C24 C -0.2632(6) 0.5049(5) 0.2320(4)
H19 H -0.3190 0.5434 0.2859
C25 C -0.1101(6) 0.4785(5) 0.2596(4)
H20 H -0.0641 0.5001 0.3335
Mn1_2 Mn 0.5000 -0.5000 0.5000
Mn1_3 Mn 0.5000 -0.5000 -0.5000
Mn1_4 Mn 0.5000 1.5000 0.5000
Mn2A Mn 0.77961(7) 0.62104(5) 0.76996(4)
Mn2_2 Mn 0.22039(7) -0.62104(5) 0.23004(4)
Mn2A_2 Mn 0.77961(7) -0.37896(5) -0.23004(4)
Mn2A_3 Mn 0.77961(7) 1.62104(5) 0.76996(4)
N1A N 0.8545(4) 0.7038(3) 0.9554(2)
N2A N 1.0258(4) 0.5764(3) 0.8149(3)
O1A O 0.7111(3) 0.6286(3) 0.5113(2)
O2A O 0.8701(4) 0.7134(3) 0.6785(2)
O3A O 0.6454(3) 1.4491(2) 0.62928(19)
O3_2 O 0.3546(3) 0.5509(2) 0.37072(19)
O3A_2 O 0.6454(3) 0.4491(2) 0.62928(19)
O4A O 0.6753(4) 1.4220(3) 0.7835(2)
O4_2 O 0.3247(4) 0.5780(3) 0.2165(2)
O4A_2 O 0.6753(4) 0.4220(3) 0.7835(2)
O5A O 0.4254(3) -0.3382(3) -0.3799(2)
O5A_2 O 0.4254(3) 0.6618(3) 0.6201(2)
O6A O 0.5824(4) -0.2821(3) -0.2147(2)
O6A_2 O 0.5824(4) 0.7179(3) 0.7853(2)
C1A C 0.8211(5) 0.7094(3) 0.5838(3)
C2A C 0.9023(5) 0.8154(4) 0.5573(3)
H1A H 0.9102 0.7795 0.4809
H2A H 1.0099 0.8453 0.6029
C3A C 0.8111(4) 0.9296(3) 0.5767(3)
C4A C 0.7979(5) 0.9958(4) 0.5070(3)
H3A H 0.8470 0.9700 0.4477
C5A C 0.7360(5) 0.9734(4) 0.6638(3)
H4A H 0.7440 0.9328 0.7131
C6A C 0.6229(4) 1.3791(3) 0.6821(3)
C7A C 0.5314(5) 1.2441(4) 0.6207(4)
H5A H 0.4766 1.2357 0.5480
H6A H 0.4507 1.2315 0.6591
C8A C 0.6348(5) 1.1394(4) 0.6085(3)
C9A C 0.6504(5) 1.0748(4) 0.6794(4)
H7A H 0.6016 1.1011 0.7387
C10A C 0.7130(5) 1.0994(4) 0.5244(4)
H8A H 0.7089 1.1432 0.4775
C11A C 0.4711(5) -0.2680(4) -0.2803(3)
C12A C 0.3803(5) -0.1540(4) -0.2351(3)
H9A H 0.2683 -0.1879 -0.2482
H10A H 0.3875 -0.0986 -0.2754
C13A C 0.4415(5) -0.0723(3) -0.1136(3)
C14A C 0.5847(5) 0.0095(4) -0.0732(3)
H11A H 0.6442 0.0173 -0.1223
C15A C 0.3566(5) -0.0809(4) -0.0386(3)
H12A H 0.2587 -0.1352 -0.0632
C16A C 0.7635(6) 0.7673(4) 1.0221(3)
H13A H 0.6688 0.7884 0.9917
C17A C 0.8050(6) 0.8025(5) 1.1342(3)
H14A H 0.7391 0.8468 1.1786
C18A C 0.9434(6) 0.7720(5) 1.1796(4)
H15A H 0.9730 0.7950 1.2552
C19A C 1.0392(5) 0.7064(4) 1.1120(3)
H16A H 1.1337 0.6840 1.1413
C20A C 0.9929(5) 0.6747(4) 1.0005(3)
C21A C 1.0917(5) 0.6077(4) 0.9214(3)
C22A C 1.2446(5) 0.5834(5) 0.9552(4)
H17A H 1.2883 0.6046 1.0294
C23A C 1.3299(5) 0.5277(5) 0.8772(4)
H18A H 1.4329 0.5119 0.8984
C24A C 1.2632(6) 0.4951(5) 0.7680(4)
H19A H 1.3190 0.4566 0.7141
C25A C 1.1101(6) 0.5215(5) 0.7404(4)
H20A H 1.0641 0.4999 0.6665
loop_
_geom_bond_atom_site_label_1
_geom_bond_atom_site_label_2
_geom_bond_site_symmetry_1
_geom_bond_site_symmetry_2
Mn1 O1 1_555 1_555
Mn2 N1 1_555 1_555
N1 C16 1_555 1_555
N2 Mn2 1_555 1_555
O1 C1 1_555 1_555
O2 Mn2 1_555 1_555
O3 C6 1_555 1_555
O4 C6 1_555 1_555
O5 Mn1 1_555 1_555
O6 Mn2 1_555 1_555
C1 O2 1_555 1_555
C2 C1 1_555 1_555
H1 C2 1_555 1_555
H2 C2 1_555 1_555
C3 C2 1_555 1_555
C4 C3 1_555 1_555
H3 C4 1_555 1_555
C5 C3 1_555 1_555
H4 C5 1_555 1_555
C6 C7 1_555 1_555
C7 H5 1_555 1_555
H6 C7 1_555 1_555
C8 C7 1_555 1_555
C9 C5 1_555 1_555
H7 C9 1_555 1_555
C10 C4 1_555 1_555
H8 C10 1_555 1_555
C11 O5 1_555 1_555
C12 C11 1_555 1_555
H9 C12 1_555 1_555
H10 C12 1_555 1_555
C13 C12 1_555 1_555
C14 C13 1_555 1_555
H11 C14 1_555 1_555
C15 C13 1_555 1_555
H12 C15 1_555 1_555
C16 H13 1_555 1_555
C17 C16 1_555 1_555
H14 C17 1_555 1_555
C18 C17 1_555 1_555
H15 C18 1_555 1_555
C19 C18 1_555 1_555
H16 C19 1_555 1_555
C20 N1 1_555 1_555
C21 N2 1_555 1_555
C22 C21 1_555 1_555
H17 C22 1_555 1_555
C23 C22 1_555 1_555
H18 C23 1_555 1_555
C24 C23 1_555 1_555
H19 C24 1_555 1_555
C25 N2 1_555 1_555
H20 C25 1_555 1_555
Mn1_2 O3 1_555 1_555
Mn1_3 O5A 1_555 1_555
Mn1_4 O3A 1_555 1_555
Mn2A N1A 1_555 1_555
Mn2_2 O3 1_555 1_555
Mn2A_2 O6A 1_555 1_555
Mn2A_3 O3A 1_555 1_555
N1A C16A 1_555 1_555
N2A Mn2A 1_555 1_555
O1A Mn1 1_555 1_555
O2A Mn2A 1_555 1_555
O3A C6A 1_555 1_555
O3_2 Mn1 1_555 1_555
O3A_2 Mn1 1_555 1_555
O4A Mn2A_3 1_555 1_555
O4_2 Mn2 1_555 1_555
O4A_2 Mn2A 1_555 1_555
O5A C11A 1_555 1_555
O5A_2 Mn1 1_555 1_555
O6A C11A 1_555 1_555
O6A_2 Mn2A 1_555 1_555
C1A O1A 1_555 1_555
C2A C1A 1_555 1_555
H1A C2A 1_555 1_555
H2A C2A 1_555 1_555
C3A C2A 1_555 1_555
C4A C3A 1_555 1_555
H3A C4A 1_555 1_555
C5A C3A 1_555 1_555
H4A C5A 1_555 1_555
C6A O4A 1_555 1_555
C7A C6A 1_555 1_555
H5A C7A 1_555 1_555
H6A C7A 1_555 1_555
C8A C7A 1_555 1_555
C9A C5A 1_555 1_555
H7A C9A 1_555 1_555
C10A C4A 1_555 1_555
H8A C10A 1_555 1_555
C11A C12A 1_555 1_555
C12A H9A 1_555 1_555
H10A C12A 1_555 1_555
C13A C12A 1_555 1_555
C14A C15 1_555 1_555
H11A C14A 1_555 1_555
C15A C14 1_555 1_555
H12A C15A 1_555 1_555
C16A H13A 1_555 1_555
C17A C16A 1_555 1_555
H14A C17A 1_555 1_555
C18A C17A 1_555 1_555
H15A C18A 1_555 1_555
C19A C18A 1_555 1_555
H16A C19A 1_555 1_555
C20A N1A 1_555 1_555
C21A N2A 1_555 1_555
C22A C21A 1_555 1_555
H17A C22A 1_555 1_555
C23A C22A 1_555 1_555
H18A C23A 1_555 1_555
C24A C23A 1_555 1_555
H19A C24A 1_555 1_555
C25A N2A 1_555 1_555
H20A C25A 1_555 1_555
Mn2 O3_2 1_555 1_555
O4 Mn2_2 1_555 1_555
O6 C11 1_555 1_555
C8 C9 1_555 1_555
C8 C10 1_555 1_555
C19 C20 1_555 1_555
C20 C21 1_555 1_555
C24 C25 1_555 1_555
Mn2A O3A_2 1_555 1_555
O2A C1A 1_555 1_555
C8A C9A 1_555 1_555
C8A C10A 1_555 1_555
C13A C14A 1_555 1_555
C13A C15A 1_555 1_555
C19A C20A 1_555 1_555
C20A C21A 1_555 1_555
C24A C25A 1_555 1_555

#END
