
#######################################################################
#
#                 Cambridge Crystallographic Data Centre
#                                CCDC 
#
#######################################################################
#
# If this CIF has been generated from an entry in the Cambridge 
# Structural Database, then it will include bibliographic, chemical, 
# crystal, experimental, refinement or atomic coordinate data resulting 
# from the CCDC's data processing and validation procedures.
#
#######################################################################

data_CERPOF01
_symmetry_cell_setting           triclinic
_symmetry_space_group_name_H-M   'P -1'
_symmetry_Int_Tables_number      2
_space_group_name_Hall           '-P 1'
loop_
_symmetry_equiv_pos_site_id
_symmetry_equiv_pos_as_xyz
1 x,y,z
2 -x,-y,-z
_cell_length_a                   7.4196(15)
_cell_length_b                   8.2368(16)
_cell_length_c                   10.165(2)
_cell_angle_alpha                94.74(3)
_cell_angle_beta                 105.05(3)
_cell_angle_gamma                108.10(3)
_cell_volume                     561.13
loop_
_atom_site_label
_atom_site_type_symbol
_atom_site_fract_x
_atom_site_fract_y
_atom_site_fract_z
Pb1 Pb 0.79870(2) 0.54389(2) 0.127725(14)
C1 C 0.5412(5) 0.2980(5) 0.4491(4)
C2 C 0.3741(6) 0.1493(5) 0.4021(4)
H1 H 0.3159 0.1082 0.3075
C3 C 0.2931(5) 0.0613(5) 0.4954(4)
C4 C 0.3741(6) 0.1260(5) 0.6373(4)
H2 H 0.3162 0.0703 0.6997
C5 C 0.5429(6) 0.2750(5) 0.6842(4)
C6 C 0.6295(6) 0.3584(5) 0.5888(4)
H3 H 0.7462 0.4543 0.6203
C7 C 0.6298(6) 0.3910(5) 0.3466(4)
C8 C 0.1205(6) -0.1039(5) 0.4373(4)
C9 C 0.6318(6) 0.3489(5) 0.8372(4)
O1 O 0.7950(5) 0.5122(4) 0.3909(3)
O2 O 0.5374(4) 0.3424(4) 0.2200(3)
O3 O 0.0386(5) -0.1500(4) 0.3135(3)
O4 O 0.0658(4) -0.1938(4) 0.5313(3)
O5 O 0.5173(4) 0.3388(4) 0.9116(3)
O6 O 0.8159(4) 0.4195(4) 0.8845(3)
O7 O 0.8803(6) 0.2567(5) 0.1693(4)
O8 O 0.8518(6) 0.8107(5) -0.0399(4)
H4 H -0.029(8) -0.303(7) 0.491(5)
Pb1_2 Pb 1.79870(2) 1.54389(2) 0.127725(14)
Pb1_3 Pb -0.20130(2) -0.45611(2) 0.127725(14)
Pb1_4 Pb 0.79870(2) 0.54389(2) 1.127725(14)
Pb1A Pb 0.20130(2) 0.45611(2) 0.872275(14)
Pb1A_2 Pb 1.20130(2) 0.45611(2) 0.872275(14)
Pb1_5 Pb 1.79870(2) 1.54389(2) 1.127725(14)
Pb1A_3 Pb 1.20130(2) 1.45611(2) 0.872275(14)
Pb1A_4 Pb 2.20130(2) 1.45611(2) 0.872275(14)
C1_2 C 1.5412(5) 1.2980(5) 0.4491(4)
C2_2 C 1.3741(6) 1.1493(5) 0.4021(4)
H1_2 H 1.3159 1.1082 0.3075
C3_2 C 1.2931(5) 1.0613(5) 0.4954(4)
C4_2 C 1.3741(6) 1.1260(5) 0.6373(4)
H2_2 H 1.3162 1.0703 0.6997
C5_2 C 1.5429(6) 1.2750(5) 0.6842(4)
C6_2 C 1.6295(6) 1.3584(5) 0.5888(4)
H3_2 H 1.7462 1.4543 0.6203
C7_2 C 1.6298(6) 1.3910(5) 0.3466(4)
C8_2 C 1.1205(6) 0.8961(5) 0.4373(4)
C9_2 C 1.6318(6) 1.3489(5) 0.8372(4)
O1_2 O 1.7950(5) 1.5122(4) 0.3909(3)
O2_2 O 1.5374(4) 1.3424(4) 0.2200(3)
O3_2 O 1.0386(5) 0.8500(4) 0.3135(3)
O3_3 O 2.0386(5) 1.8500(4) 0.3135(3)
O4_2 O 1.0658(4) 0.8062(4) 0.5313(3)
O5_2 O 1.5173(4) 1.3388(4) 0.9116(3)
O5_3 O 0.5173(4) 0.3388(4) -0.0884(3)
O5A O 0.4827(4) 0.6612(4) 0.0884(3)
O5_4 O 1.5173(4) 1.3388(4) -0.0884(3)
O5A_2 O 1.4827(4) 1.6612(4) 0.0884(3)
O6_2 O 1.8159(4) 1.4195(4) 0.8845(3)
O6_3 O 0.8159(4) 0.4195(4) -0.1155(3)
O6A O 1.1841(4) 0.5805(4) 0.1155(3)
O6_4 O 1.8159(4) 1.4195(4) -0.1155(3)
O6A_2 O 2.1841(4) 1.5805(4) 0.1155(3)
O7_2 O 1.8803(6) 1.2567(5) 0.1693(4)
O8_2 O 1.8518(6) 1.8107(5) -0.0399(4)
H4_2 H 0.971(8) 0.697(7) 0.491(5)
O9 O 0.5000 0.0000 1.0000
loop_
_geom_bond_atom_site_label_1
_geom_bond_atom_site_label_2
_geom_bond_site_symmetry_1
_geom_bond_site_symmetry_2
Pb1 O1 1_555 1_555
C1 C2 1_555 1_555
C2 H1 1_555 1_555
C3 C2 1_555 1_555
C4 C3 1_555 1_555
H2 C4 1_555 1_555
C5 C4 1_555 1_555
C6 C1 1_555 1_555
H3 C6 1_555 1_555
C7 C1 1_555 1_555
C8 C3 1_555 1_555
C9 C5 1_555 1_555
O1 C7 1_555 1_555
O2 Pb1 1_555 1_555
O3 C8 1_555 1_555
O4 C8 1_555 1_555
O5 C9 1_555 1_555
O6 C9 1_555 1_555
O7 Pb1 1_555 1_555
O8 Pb1 1_555 1_555
H4 O4 1_555 1_555
Pb1_2 O1_2 1_555 1_555
Pb1_3 O3 1_555 1_555
Pb1_4 O5 1_555 1_555
Pb1A O5 1_555 1_555
Pb1A_2 O6 1_555 1_555
Pb1_5 O5_2 1_555 1_555
Pb1A_3 O5_2 1_555 1_555
Pb1A_4 O6_2 1_555 1_555
C1_2 C2_2 1_555 1_555
C2_2 H1_2 1_555 1_555
C3_2 C2_2 1_555 1_555
C4_2 C3_2 1_555 1_555
H2_2 C4_2 1_555 1_555
C5_2 C4_2 1_555 1_555
C6_2 C1_2 1_555 1_555
H3_2 C6_2 1_555 1_555
C7_2 C1_2 1_555 1_555
C8_2 C3_2 1_555 1_555
C9_2 C5_2 1_555 1_555
O1_2 C7_2 1_555 1_555
O2_2 Pb1_2 1_555 1_555
O3_2 Pb1 1_555 1_555
O3_3 Pb1_2 1_555 1_555
O4_2 C8_2 1_555 1_555
O5_2 C9_2 1_555 1_555
O5_3 Pb1 1_555 1_555
O5A Pb1 1_555 1_555
O5_4 Pb1_2 1_555 1_555
O5A_2 Pb1_2 1_555 1_555
O6_2 Pb1_5 1_555 1_555
O6_3 Pb1 1_555 1_555
O6A Pb1 1_555 1_555
O6_4 Pb1_2 1_555 1_555
O6A_2 Pb1_2 1_555 1_555
O7_2 Pb1_2 1_555 1_555
O8_2 Pb1_2 1_555 1_555
H4_2 O4_2 1_555 1_555
C5 C6 1_555 1_555
C7 O2 1_555 1_555
O6 Pb1_4 1_555 1_555
C5_2 C6_2 1_555 1_555
C7_2 O2_2 1_555 1_555
C8_2 O3_2 1_555 1_555
C9_2 O6_2 1_555 1_555

#END
