
#######################################################################
#
#                 Cambridge Crystallographic Data Centre
#                                CCDC 
#
#######################################################################
#
# If this CIF has been generated from an entry in the Cambridge 
# Structural Database, then it will include bibliographic, chemical, 
# crystal, experimental, refinement or atomic coordinate data resulting 
# from the CCDC's data processing and validation procedures.
#
#######################################################################

data_CERPOF
_symmetry_cell_setting           triclinic
_symmetry_space_group_name_H-M   'P -1'
_symmetry_Int_Tables_number      2
_space_group_name_Hall           '-P 1'
loop_
_symmetry_equiv_pos_site_id
_symmetry_equiv_pos_as_xyz
1 x,y,z
2 -x,-y,-z
_cell_length_a                   7.4106(6)
_cell_length_b                   8.2178(7)
_cell_length_c                   10.1424(9)
_cell_angle_alpha                94.694(10)
_cell_angle_beta                 105.165(10)
_cell_angle_gamma                108.024(9)
_cell_volume                     557.909
loop_
_atom_site_label
_atom_site_type_symbol
_atom_site_fract_x
_atom_site_fract_y
_atom_site_fract_z
Pb1 Pb 0.70091(4) 0.45634(4) -0.12785(3)
O1 O 0.9834(9) 0.6611(8) 0.0888(6)
O2 O 0.6848(9) 0.5816(9) 0.1154(7)
O3 O 0.7055(9) 0.4877(8) 0.6098(6)
O4 O 0.9609(9) 0.6582(9) 0.7797(6)
O5 O 1.4613(9) 1.1493(8) 0.6875(6)
O6 O 1.4330(9) 1.1921(8) 0.4689(6)
H1 H 1.5024 1.2924 0.5062
O7 O 0.6194(13) 0.7439(12) -0.1690(9)
O8 O 0.6499(12) 0.1893(11) 0.0394(8)
C1 C 0.8657(12) 0.6497(11) 0.1615(8)
C2 C 0.9582(11) 0.7249(10) 0.3147(8)
C3 C 0.8724(12) 0.6410(10) 0.4099(8)
H2 H 0.7566 0.5442 0.3777
C4 C 0.9578(11) 0.7005(10) 0.5501(8)
C5 C 1.1266(12) 0.8502(10) 0.5991(9)
H3 H 1.1855 0.8904 0.6940
C6 C 1.2063(11) 0.9390(10) 0.5042(9)
C7 C 1.1250(12) 0.8734(10) 0.3636(8)
H4 H 1.1830 0.9298 0.3013
C8 C 0.8692(12) 0.6089(11) 0.6529(9)
C9 C 1.3794(11) 1.1022(10) 0.5636(8)
Pb1A Pb 1.29909(4) 0.54366(4) 0.12785(3)
Pb1A_2 Pb 0.29909(4) 0.54366(4) 0.12785(3)
Pb1_2 Pb 0.70091(4) 0.45634(4) 0.87215(3)
Pb1_3 Pb 1.70091(4) 1.45634(4) 0.87215(3)
Pb1_4 Pb 1.70091(4) 0.45634(4) -0.12785(3)
Pb1A_3 Pb 1.29909(4) 0.54366(4) -0.87215(3)
Pb1A_4 Pb 0.29909(4) -0.45634(4) -0.87215(3)
O1A O 1.0166(9) 0.3389(8) -0.0888(6)
O2A O 1.3152(9) 0.4184(9) -0.1154(7)
O2A_2 O 0.3152(9) 0.4184(9) -0.1154(7)
O2_2 O 1.6848(9) 0.5816(9) 0.1154(7)
O3A O 1.2945(9) 0.5123(8) -0.6098(6)
O3_2 O 0.7055(9) 0.4877(8) -0.3902(6)
O3A_2 O 1.2945(9) 0.5123(8) 0.3902(6)
O4A O 1.0391(9) 0.3418(9) -0.7797(6)
O4_2 O 0.9609(9) 0.6582(9) -0.2203(6)
O4A_2 O 1.0391(9) 0.3418(9) 0.2203(6)
O5A O 0.5387(9) -0.1493(8) -0.6875(6)
O5_2 O 0.4613(9) 0.1493(8) -0.3125(6)
O5A_2 O 1.5387(9) 0.8507(8) 0.3125(6)
O6A O 0.5670(9) -0.1921(8) -0.4689(6)
H1A H 0.4976 -0.2924 -0.5062
O7A O 1.3806(13) 0.2561(12) 0.1690(9)
O8A O 1.3501(12) 0.8107(11) -0.0394(8)
C1A C 1.1343(12) 0.3503(11) -0.1615(8)
C2A C 1.0418(11) 0.2751(10) -0.3147(8)
C3A C 1.1276(12) 0.3590(10) -0.4099(8)
H2A H 1.2434 0.4558 -0.3777
C4A C 1.0422(11) 0.2995(10) -0.5501(8)
C5A C 0.8734(12) 0.1498(10) -0.5991(9)
H3A H 0.8145 0.1096 -0.6940
C6A C 0.7937(11) 0.0610(10) -0.5042(9)
C7A C 0.8750(12) 0.1266(10) -0.3636(8)
H4A H 0.8170 0.0702 -0.3013
C8A C 1.1308(12) 0.3911(11) -0.6529(9)
C9A C 0.6206(11) -0.1022(10) -0.5636(8)
O9 O 0.0000 1.0000 1.0000
loop_
_geom_bond_atom_site_label_1
_geom_bond_atom_site_label_2
_geom_bond_site_symmetry_1
_geom_bond_site_symmetry_2
Pb1 O1 1_555 1_555
O1 C1 1_555 1_555
O2 Pb1 1_555 1_555
O3 C8 1_555 1_555
O4 C8 1_555 1_555
O5 C9 1_555 1_555
O6 H1 1_555 1_555
O7 Pb1 1_555 1_555
O8 Pb1 1_555 1_555
C1 O2 1_555 1_555
C2 C1 1_555 1_555
C3 C2 1_555 1_555
H2 C3 1_555 1_555
C4 C3 1_555 1_555
C5 C4 1_555 1_555
H3 C5 1_555 1_555
C6 C5 1_555 1_555
C7 C2 1_555 1_555
H4 C7 1_555 1_555
C8 C4 1_555 1_555
C9 O6 1_555 1_555
Pb1A O1 1_555 1_555
Pb1A_2 O2 1_555 1_555
Pb1_2 O3 1_555 1_555
Pb1_3 O5 1_555 1_555
Pb1_4 O2A 1_555 1_555
Pb1A_3 O3A 1_555 1_555
Pb1A_4 O5A 1_555 1_555
O1A Pb1 1_555 1_555
O2A Pb1A 1_555 1_555
O2A_2 Pb1 1_555 1_555
O2_2 Pb1A 1_555 1_555
O3A C8A 1_555 1_555
O3_2 Pb1 1_555 1_555
O3A_2 Pb1A 1_555 1_555
O4A Pb1A_3 1_555 1_555
O4_2 Pb1 1_555 1_555
O4A_2 Pb1A 1_555 1_555
O5A C9A 1_555 1_555
O5_2 Pb1 1_555 1_555
O5A_2 Pb1A 1_555 1_555
O6A H1A 1_555 1_555
O7A Pb1A 1_555 1_555
O8A Pb1A 1_555 1_555
C1A O1A 1_555 1_555
C2A C1A 1_555 1_555
C3A C2A 1_555 1_555
H2A C3A 1_555 1_555
C4A C3A 1_555 1_555
C5A C4A 1_555 1_555
H3A C5A 1_555 1_555
C6A C5A 1_555 1_555
C7A C2A 1_555 1_555
H4A C7A 1_555 1_555
C8A O4A 1_555 1_555
C9A O6A 1_555 1_555
O4 Pb1_2 1_555 1_555
C6 C7 1_555 1_555
C6 C9 1_555 1_555
Pb1A O1A 1_555 1_555
Pb1A_2 O2A_2 1_555 1_555
Pb1_4 O2_2 1_555 1_555
O2A C1A 1_555 1_555
C4A C8A 1_555 1_555
C6A C7A 1_555 1_555
C6A C9A 1_555 1_555

#END
