
#######################################################################
#
#                 Cambridge Crystallographic Data Centre
#                                CCDC 
#
#######################################################################
#
# If this CIF has been generated from an entry in the Cambridge 
# Structural Database, then it will include bibliographic, chemical, 
# crystal, experimental, refinement or atomic coordinate data resulting 
# from the CCDC's data processing and validation procedures.
#
#######################################################################

data_CERSOI
_symmetry_cell_setting           triclinic
_symmetry_space_group_name_H-M   'P -1'
_symmetry_Int_Tables_number      2
_space_group_name_Hall           '-P 1'
loop_
_symmetry_equiv_pos_site_id
_symmetry_equiv_pos_as_xyz
1 x,y,z
2 -x,-y,-z
_cell_length_a                   7.189(3)
_cell_length_b                   10.588(4)
_cell_length_c                   10.593(4)
_cell_angle_alpha                110.675(5)
_cell_angle_beta                 91.429(6)
_cell_angle_gamma                102.538(6)
_cell_volume                     731.821
loop_
_atom_site_label
_atom_site_type_symbol
_atom_site_fract_x
_atom_site_fract_y
_atom_site_fract_z
Zn1 Zn 0.0000 0.0000 0.5000
Co1 Co 0.0000 0.5000 0.0000
O1 O 0.1055(4) 0.1875(2) 0.4742(2)
O2 O 0.2716(4) 0.3080(2) 0.6791(3)
O3 O 0.0274(4) 0.4139(3) 0.1503(3)
O4 O 0.1526(4) 0.6365(2) 0.2003(2)
O5 O 0.5063(4) 0.9218(2) 0.6667(3)
O6 O 0.6071(4) 0.8101(3) 0.7884(3)
C1 C 0.2372(5) 0.4302(3) 0.5319(3)
C2 C 0.1645(5) 0.4234(3) 0.4056(3)
H1 H 0.0929 0.3392 0.3432
C3 C 0.1985(5) 0.5424(3) 0.3722(3)
C4 C 0.3050(5) 0.6689(3) 0.4675(3)
H2 H 0.3267 0.7485 0.4462
C5 C 0.3789(5) 0.6771(3) 0.5939(3)
C6 C 0.3456(5) 0.5563(3) 0.6251(3)
H3 H 0.3962 0.5604 0.7085
C7 C 0.2020(5) 0.2991(3) 0.5644(3)
C8 C 0.1219(5) 0.5304(3) 0.2340(4)
C9 C 0.5051(5) 0.8133(4) 0.6910(4)
O7 O 0.2138(4) 0.0466(2) 0.6636(2)
H10 H 0.2545 0.1333 0.6849
H11 H 0.3112 0.0126 0.6557
O8 O 0.1634(4) -0.0885(2) 0.3462(3)
H12 H 0.2740 -0.0420 0.3452
H13 H 0.1647 -0.1735 0.3134
O9 O 0.2548(4) 0.4571(3) -0.0641(3)
H14 H 0.2993 0.4137 -0.0222
H15 H 0.2433 0.4067 -0.1477
Co1_2 Co 0.0000 -0.5000 1.0000
O1A O -0.1055(4) -0.1875(2) 0.5258(2)
O2A O -0.2716(4) -0.3080(2) 0.3209(3)
O3A O -0.0274(4) -0.4139(3) 0.8497(3)
O3A_2 O -0.0274(4) 0.5861(3) -0.1503(3)
O4A O -0.1526(4) -0.6365(2) 0.7997(2)
O4A_2 O -0.1526(4) 0.3635(2) -0.2003(2)
O5A O -0.5063(4) -0.9218(2) 0.3333(3)
O6A O -0.6071(4) -0.8101(3) 0.2116(3)
C1A C -0.2372(5) -0.4302(3) 0.4681(3)
C2A C -0.1645(5) -0.4234(3) 0.5944(3)
H1A H -0.0929 -0.3392 0.6568
C3A C -0.1985(5) -0.5424(3) 0.6278(3)
C4A C -0.3050(5) -0.6689(3) 0.5325(3)
H2A H -0.3267 -0.7485 0.5538
C5A C -0.3789(5) -0.6771(3) 0.4061(3)
C6A C -0.3456(5) -0.5563(3) 0.3749(3)
H3A H -0.3962 -0.5604 0.2915
C7A C -0.2020(5) -0.2991(3) 0.4356(3)
C8A C -0.1219(5) -0.5304(3) 0.7660(4)
C9A C -0.5051(5) -0.8133(4) 0.3090(4)
O7A O -0.2138(4) -0.0466(2) 0.3364(2)
H10A H -0.2545 -0.1333 0.3151
H11A H -0.3112 -0.0126 0.3443
O8A O -0.1634(4) 0.0885(2) 0.6538(3)
H12A H -0.2740 0.0420 0.6548
H13A H -0.1647 0.1735 0.6866
O9A O -0.2548(4) 0.5429(3) 0.0641(3)
H14A H -0.2993 0.5863 0.0222
H15A H -0.2433 0.5933 0.1477
C10 C 0.8829(6) 1.0789(4) 0.0889(4)
H4 H 0.8697 1.1644 0.1584
H5 H 0.7591 1.0127 0.0662
C11 C 0.9442(7) 1.1075(4) -0.0357(4)
H6 H 1.0623 1.1798 -0.0114
H7 H 0.8465 1.1401 -0.0715
N1 N 1.0257(5) 1.0221(3) 0.1422(3)
H8 H 0.9845 1.0028 0.2144
H9 H 1.1380 1.0865 0.1699
C10A C 1.1171(6) 0.9211(4) -0.0889(4)
H4A H 1.1303 0.8356 -0.1584
H5A H 1.2409 0.9873 -0.0662
C11A C 1.0558(7) 0.8925(4) 0.0357(4)
H6A H 0.9377 0.8202 0.0114
H7A H 1.1535 0.8599 0.0715
N1A N 0.9743(5) 0.9779(3) -0.1422(3)
H8A H 1.0155 0.9972 -0.2144
H9A H 0.8620 0.9135 -0.1699
O10 O 0.4469(5) 0.2870(4) 0.0029(4)
H16 H 0.4305 0.2567 0.0672
H17 H 0.5465 0.3531 0.0191
loop_
_geom_bond_atom_site_label_1
_geom_bond_atom_site_label_2
_geom_bond_site_symmetry_1
_geom_bond_site_symmetry_2
Zn1 O1 1_555 1_555
Co1 O3 1_555 1_555
O1 C7 1_555 1_555
O2 C7 1_555 1_555
O3 C8 1_555 1_555
O4 Co1 1_555 1_555
O5 C9 1_555 1_555
O6 C9 1_555 1_555
C1 C2 1_555 1_555
C2 H1 1_555 1_555
C3 C2 1_555 1_555
C4 C3 1_555 1_555
H2 C4 1_555 1_555
C5 C4 1_555 1_555
C6 C1 1_555 1_555
H3 C6 1_555 1_555
C7 C1 1_555 1_555
C8 O4 1_555 1_555
C9 C5 1_555 1_555
C10 H4 1_555 1_555
H5 C10 1_555 1_555
C11 C10 1_555 1_555
H6 C11 1_555 1_555
H7 C11 1_555 1_555
N1 C10 1_555 1_555
H8 N1 1_555 1_555
H9 N1 1_555 1_555
O7 Zn1 1_555 1_555
H10 O7 1_555 1_555
H11 O7 1_555 1_555
O8 Zn1 1_555 1_555
H12 O8 1_555 1_555
H13 O8 1_555 1_555
O9 Co1 1_555 1_555
H14 O9 1_555 1_555
H15 O9 1_555 1_555
O10 H16 1_555 1_555
H17 O10 1_555 1_555
Co1_2 O3A 1_555 1_555
O1A Zn1 1_555 1_555
O2A C7A 1_555 1_555
O3A C8A 1_555 1_555
O3A_2 Co1 1_555 1_555
O4A Co1_2 1_555 1_555
O4A_2 Co1 1_555 1_555
O5A C9A 1_555 1_555
O6A C9A 1_555 1_555
C1A C2A 1_555 1_555
C2A H1A 1_555 1_555
C3A C2A 1_555 1_555
C4A C3A 1_555 1_555
H2A C4A 1_555 1_555
C5A C4A 1_555 1_555
C6A C1A 1_555 1_555
H3A C6A 1_555 1_555
C7A O1A 1_555 1_555
C8A O4A 1_555 1_555
C9A C5A 1_555 1_555
C10A H4A 1_555 1_555
H5A C10A 1_555 1_555
C11A N1 1_555 1_555
H6A C11A 1_555 1_555
H7A C11A 1_555 1_555
N1A C11 1_555 1_555
H8A N1A 1_555 1_555
H9A N1A 1_555 1_555
O7A Zn1 1_555 1_555
H10A O7A 1_555 1_555
H11A O7A 1_555 1_555
O8A Zn1 1_555 1_555
H12A O8A 1_555 1_555
H13A O8A 1_555 1_555
O9A Co1 1_555 1_555
H14A O9A 1_555 1_555
H15A O9A 1_555 1_555
C3 C8 1_555 1_555
C5 C6 1_555 1_555
C1A C7A 1_555 1_555
C3A C8A 1_555 1_555
C5A C6A 1_555 1_555
C10A C11A 1_555 1_555
C10A N1A 1_555 1_555

#END
