
#######################################################################
#
#                 Cambridge Crystallographic Data Centre
#                                CCDC 
#
#######################################################################
#
# If this CIF has been generated from an entry in the Cambridge 
# Structural Database, then it will include bibliographic, chemical, 
# crystal, experimental, refinement or atomic coordinate data resulting 
# from the CCDC's data processing and validation procedures.
#
#######################################################################

data_CERWON
_symmetry_cell_setting           monoclinic
_symmetry_space_group_name_H-M   'C 2/m'
_symmetry_Int_Tables_number      12
_space_group_name_Hall           '-C 2y'
loop_
_symmetry_equiv_pos_site_id
_symmetry_equiv_pos_as_xyz
1 x,y,z
2 -x,y,-z
3 1/2+x,1/2+y,z
4 1/2-x,1/2+y,-z
5 -x,-y,-z
6 x,-y,z
7 1/2-x,1/2-y,-z
8 1/2+x,1/2-y,z
_cell_length_a                   10.23459(18)
_cell_length_b                   6.86586(22)
_cell_length_c                   3.34733(12)
_cell_angle_alpha                90
_cell_angle_beta                 92.6265(26)
_cell_angle_gamma                90
_cell_volume                     234.967
loop_
_atom_site_label
_atom_site_type_symbol
_atom_site_fract_x
_atom_site_fract_y
_atom_site_fract_z
Cu1 Cu 0.00000 0.50000 1.00000
F1 F -0.1347(3) 0.50000 0.5801(18)
N1 N 0.00000 0.196(2) 1.00000
C1 C 0.1059(6) 0.0994(8) 1.1363(11)
H1 H 0.1922(3) 0.179(2) 1.247(2)
C1A C -0.1059(6) 0.0994(8) 0.8637(11)
H1A H -0.1922(3) 0.179(2) 0.753(2)
N1D N 0.00000 -0.196(2) 1.00000
C1D C -0.1059(6) -0.0994(8) 0.8637(11)
H1D H -0.1922(3) -0.179(2) 0.753(2)
C1E C 0.1059(6) -0.0994(8) 1.1363(11)
H1E H 0.1922(3) -0.179(2) 1.247(2)
F1A F 0.1347(3) 0.50000 0.4199(18)
Cu1_2 Cu 0.00000 -0.50000 1.00000
Cu1_3 Cu 0.00000 0.50000 0.00000
F1_2 F -0.1347(3) 0.50000 1.5801(18)
F1A_2 F 0.1347(3) 0.50000 1.4199(18)
N1D_2 N 0.00000 0.804(2) 1.00000
loop_
_geom_bond_atom_site_label_1
_geom_bond_atom_site_label_2
_geom_bond_site_symmetry_1
_geom_bond_site_symmetry_2
Cu1 F1 1_555 1_555
F1 Cu1_3 1_555 1_555
N1 Cu1 1_555 1_555
C1 N1 1_555 1_555
H1 C1 1_555 1_555
C1A N1 1_555 1_555
H1A C1A 1_555 1_555
N1D C1D 1_555 1_555
C1D C1A 1_555 1_555
H1D C1D 1_555 1_555
C1E C1 1_555 1_555
H1E C1E 1_555 1_555
F1A Cu1 1_555 1_555
Cu1_2 N1D 1_555 1_555
Cu1_3 F1A 1_555 1_555
F1_2 Cu1 1_555 1_555
F1A_2 Cu1 1_555 1_555
N1D_2 Cu1 1_555 1_555
N1D C1E 1_555 1_555

#END
