
#######################################################################
#
#                 Cambridge Crystallographic Data Centre
#                                CCDC 
#
#######################################################################
#
# If this CIF has been generated from an entry in the Cambridge 
# Structural Database, then it will include bibliographic, chemical, 
# crystal, experimental, refinement or atomic coordinate data resulting 
# from the CCDC's data processing and validation procedures.
#
#######################################################################

data_CERWON01
_symmetry_cell_setting           monoclinic
_symmetry_space_group_name_H-M   'C 2/m'
_symmetry_Int_Tables_number      12
_space_group_name_Hall           '-C 2y'
loop_
_symmetry_equiv_pos_site_id
_symmetry_equiv_pos_as_xyz
1 x,y,z
2 -x,y,-z
3 1/2+x,1/2+y,z
4 1/2-x,1/2+y,-z
5 -x,-y,-z
6 x,-y,z
7 1/2-x,1/2-y,-z
8 1/2+x,1/2-y,z
_cell_length_a                   10.311472(16)
_cell_length_b                   6.872494(8)
_cell_length_c                   3.380942(5)
_cell_angle_alpha                90
_cell_angle_beta                 93.38898(10)
_cell_angle_gamma                90
_cell_volume                     239.173
loop_
_atom_site_label
_atom_site_type_symbol
_atom_site_fract_x
_atom_site_fract_y
_atom_site_fract_z
Cu1 Cu 0.00000 0.50000 1.00000
F1 F -0.13344(6) 0.50000 0.5926(2)
N1 N 0.00000 0.20229 1.00000
C1 C 0.10391 0.10074 1.13580
H1 H 0.19107 0.17644 1.24971
C1A C -0.10391 0.10074 0.86420
H1A H -0.19107 0.17644 0.75029
N1D N 0.00000 -0.20229 1.00000
C1D C -0.10391 -0.10074 0.86420
H1D H -0.19107 -0.17644 0.75029
C1E C 0.10391 -0.10074 1.13580
H1E H 0.19107 -0.17644 1.24971
F1A F 0.13344(6) 0.50000 0.4074(2)
Cu1_2 Cu 0.00000 -0.50000 1.00000
Cu1_3 Cu 0.00000 0.50000 0.00000
F1_2 F -0.13344(6) 0.50000 1.5926(2)
F1A_2 F 0.13344(6) 0.50000 1.4074(2)
N1D_2 N 0.00000 0.79771 1.00000
loop_
_geom_bond_atom_site_label_1
_geom_bond_atom_site_label_2
_geom_bond_site_symmetry_1
_geom_bond_site_symmetry_2
Cu1 F1 1_555 1_555
F1 Cu1_3 1_555 1_555
N1 Cu1 1_555 1_555
C1 N1 1_555 1_555
H1 C1 1_555 1_555
C1A N1 1_555 1_555
H1A C1A 1_555 1_555
N1D C1D 1_555 1_555
C1D C1A 1_555 1_555
H1D C1D 1_555 1_555
C1E C1 1_555 1_555
H1E C1E 1_555 1_555
F1A Cu1 1_555 1_555
Cu1_2 N1D 1_555 1_555
Cu1_3 F1A 1_555 1_555
F1_2 Cu1 1_555 1_555
F1A_2 Cu1 1_555 1_555
N1D_2 Cu1 1_555 1_555
N1D C1E 1_555 1_555

#END
