
#######################################################################
#
#                 Cambridge Crystallographic Data Centre
#                                CCDC 
#
#######################################################################
#
# If this CIF has been generated from an entry in the Cambridge 
# Structural Database, then it will include bibliographic, chemical, 
# crystal, experimental, refinement or atomic coordinate data resulting 
# from the CCDC's data processing and validation procedures.
#
#######################################################################

data_CERXEE
_symmetry_cell_setting           monoclinic
_symmetry_space_group_name_H-M   'C 2/m'
_symmetry_Int_Tables_number      12
_space_group_name_Hall           '-C 2y'
loop_
_symmetry_equiv_pos_site_id
_symmetry_equiv_pos_as_xyz
1 x,y,z
2 -x,y,-z
3 1/2+x,1/2+y,z
4 1/2-x,1/2+y,-z
5 -x,-y,-z
6 x,-y,z
7 1/2-x,1/2-y,-z
8 1/2+x,1/2-y,z
_cell_length_a                   10.650126(85)
_cell_length_b                   11.147580(37)
_cell_length_c                   3.566382(11)
_cell_angle_alpha                90
_cell_angle_beta                 97.49034(41)
_cell_angle_gamma                90
_cell_volume                     419.799
loop_
_atom_site_label
_atom_site_type_symbol
_atom_site_fract_x
_atom_site_fract_y
_atom_site_fract_z
Cu1 Cu 0.00000 0.00000 0.00000
F1 F -0.13654(18) 0.00000 -0.3993(3)
N1 N 0.00000 0.18184(8) 0.00000
C1 C 0.10526(12) 0.36778(6) 0.1545(3)
C2 C 0.10526(12) 0.24524(14) 0.1545(3)
C3 C 0.00000 0.42904(10) 0.00000
H1 H 0.18848(12) 0.41622(6) 0.2767(5)
H2 H 0.18848(12) 0.19680(14) 0.2767(5)
C1A C -0.10526(12) 0.36778(6) -0.1545(3)
C2A C -0.10526(12) 0.24524(14) -0.1545(3)
H1A H -0.18848(12) 0.41622(6) -0.2767(5)
H2A H -0.18848(12) 0.19680(14) -0.2767(5)
N1D N 0.00000 0.81816(8) 0.00000
C1D C -0.10526(12) 0.63222(6) -0.1545(3)
C2D C -0.10526(12) 0.75476(14) -0.1545(3)
C3D C 0.00000 0.57096(10) 0.00000
H1D H -0.18848(12) 0.58378(6) -0.2767(5)
H2D H -0.18848(12) 0.80320(14) -0.2767(5)
C1E C 0.10526(12) 0.63222(6) 0.1545(3)
C2E C 0.10526(12) 0.75476(14) 0.1545(3)
H1E H 0.18848(12) 0.58378(6) 0.2767(5)
H2E H 0.18848(12) 0.80320(14) 0.2767(5)
F1A F 0.13654(18) 0.00000 0.3993(3)
Cu1_2 Cu 0.00000 1.00000 0.00000
N1D_2 N 0.00000 -0.18184(8) 0.00000
loop_
_geom_bond_atom_site_label_1
_geom_bond_atom_site_label_2
_geom_bond_site_symmetry_1
_geom_bond_site_symmetry_2
Cu1 F1 1_555 1_555
N1 Cu1 1_555 1_555
C1 C2 1_555 1_555
C2 N1 1_555 1_555
C3 C1 1_555 1_555
H1 C1 1_555 1_555
H2 C2 1_555 1_555
C1A C3 1_555 1_555
C2A N1 1_555 1_555
H1A C1A 1_555 1_555
H2A C2A 1_555 1_555
N1D C2D 1_555 1_555
C1D C2D 1_555 1_555
C2D H2D 1_555 1_555
C3D C3 1_555 1_555
H1D C1D 1_555 1_555
C1E C3D 1_555 1_555
C2E N1D 1_555 1_555
H1E C1E 1_555 1_555
H2E C2E 1_555 1_555
F1A Cu1 1_555 1_555
Cu1_2 N1D 1_555 1_555
N1D_2 Cu1 1_555 1_555
C1A C2A 1_555 1_555
C1D C3D 1_555 1_555
C1E C2E 1_555 1_555

#END
