
#######################################################################
#
#                 Cambridge Crystallographic Data Centre
#                                CCDC 
#
#######################################################################
#
# If this CIF has been generated from an entry in the Cambridge 
# Structural Database, then it will include bibliographic, chemical, 
# crystal, experimental, refinement or atomic coordinate data resulting 
# from the CCDC's data processing and validation procedures.
#
#######################################################################

data_CESKAO
_symmetry_cell_setting           triclinic
_symmetry_space_group_name_H-M   'P -1'
_symmetry_Int_Tables_number      2
_space_group_name_Hall           '-P 1'
loop_
_symmetry_equiv_pos_site_id
_symmetry_equiv_pos_as_xyz
1 x,y,z
2 -x,-y,-z
_cell_length_a                   11.265(2)
_cell_length_b                   11.398(2)
_cell_length_c                   13.912(3)
_cell_angle_alpha                107.576(2)
_cell_angle_beta                 95.772(2)
_cell_angle_gamma                105.009(2)
_cell_volume                     1613.5
loop_
_atom_site_label
_atom_site_type_symbol
_atom_site_fract_x
_atom_site_fract_y
_atom_site_fract_z
Ag1 Ag 0.31032(5) 0.27324(5) 0.84326(4)
Ag2 Ag 1.0000 1.0000 1.0000
N1 N 0.2735(6) 0.0627(5) 0.8419(5)
N2 N 0.3793(5) 0.2790(5) 1.0065(4)
N3 N 0.6573(5) 0.5517(5) 1.2952(4)
N4 N 0.8461(5) 0.6117(5) 1.2762(4)
N5 N 0.9599(6) 0.8038(6) 1.0288(5)
N6 N 0.9072(10) 0.8277(8) 0.8430(6)
C1 C 0.2232(10) -0.0418(8) 0.7582(7)
H1 H 0.1971 -0.0302 0.6955
C2 C 0.2073(11) -0.1659(8) 0.7582(7)
H2 H 0.1699 -0.2385 0.6975
C3 C 0.2470(10) -0.1809(8) 0.8485(7)
H3 H 0.2408 -0.2646 0.8511
C4 C 0.2953(8) -0.0756(7) 0.9342(6)
H4 H 0.3207 -0.0854 0.9977
C5 C 0.3079(6) 0.0457(6) 0.9298(5)
C6 C 0.3633(5) 0.1650(6) 1.0212(5)
C7 C 0.3961(7) 0.1611(7) 1.1188(5)
H5 H 0.3841 0.0803 1.1288
C8 C 0.4460(7) 0.2744(7) 1.2013(5)
H6 H 0.4687 0.2718 1.2681
C9 C 0.4630(6) 0.3921(7) 1.1866(5)
C10 C 0.4267(6) 0.3885(6) 1.0875(5)
H7 H 0.4359 0.4682 1.0761
C11 C 0.5202(6) 0.5172(7) 1.2747(5)
H8 H 0.4947 0.5868 1.2582
H9 H 0.4887 0.5089 1.3370
C12 C 0.7245(7) 0.5032(7) 1.3534(5)
H10 H 0.6924 0.4524 1.3934
C13 C 0.8450(7) 0.5420(7) 1.3427(6)
H11 H 0.9145 0.5251 1.3742
C14 C 0.7323(6) 0.6210(6) 1.2476(5)
C15 C 0.9626(7) 0.6758(7) 1.2481(6)
H12 H 1.0251 0.6304 1.2553
H13 H 0.9974 0.7659 1.2962
C16 C 0.9414(7) 0.6768(7) 1.1410(6)
C17 C 0.8878(7) 0.5660(7) 1.0565(6)
H14 H 0.8624 0.4842 1.0653
C18 C 0.8711(7) 0.5743(8) 0.9589(6)
H15 H 0.8356 0.4983 0.9004
C19 C 0.9064(6) 0.6933(7) 0.9476(6)
C20 C 0.9741(7) 0.7922(8) 1.1223(6)
H16 H 1.0092 0.8692 1.1800
C21 C 0.8865(7) 0.7099(9) 0.8441(6)
C22 C 0.8417(11) 0.6025(11) 0.7554(7)
H17 H 0.8238 0.5180 0.7590
C23 C 0.8235(12) 0.6199(13) 0.6615(8)
H18 H 0.7911 0.5474 0.6000
C24 C 0.8521(11) 0.7408(12) 0.6580(8)
H19 H 0.8492 0.7563 0.5945
C25 C 0.8850(15) 0.8386(14) 0.7487(11)
H20 H 0.8934 0.9228 0.7466
Ag1A Ag 0.68968(5) 0.72676(5) 1.15674(4)
N1A N 0.7265(6) 0.9373(5) 1.1581(5)
N2A N 0.6207(5) 0.7210(5) 0.9935(4)
N3A N 0.3427(5) 0.4483(5) 0.7048(4)
N4A N 0.1539(5) 0.3883(5) 0.7238(4)
N5A N 0.0401(6) 0.1962(6) 0.9712(5)
N6A N 0.0928(10) 0.1723(8) 1.1570(6)
C1A C 0.7768(10) 1.0418(8) 1.2418(7)
H1A H 0.8029 1.0302 1.3045
C2A C 0.7927(11) 1.1659(8) 1.2418(7)
H2A H 0.8301 1.2385 1.3025
C3A C 0.7530(10) 1.1809(8) 1.1515(7)
H3A H 0.7592 1.2646 1.1489
C4A C 0.7047(8) 1.0756(7) 1.0658(6)
H4A H 0.6793 1.0854 1.0023
C5A C 0.6921(6) 0.9543(6) 1.0702(5)
C6A C 0.6367(5) 0.8350(6) 0.9788(5)
C7A C 0.6039(7) 0.8389(7) 0.8812(5)
H5A H 0.6159 0.9197 0.8712
C8A C 0.5540(7) 0.7256(7) 0.7987(5)
H6A H 0.5313 0.7282 0.7319
C9A C 0.5370(6) 0.6079(7) 0.8134(5)
C10A C 0.5733(6) 0.6115(6) 0.9125(5)
H7A H 0.5641 0.5318 0.9239
C11A C 0.4798(6) 0.4828(7) 0.7253(5)
H8A H 0.5053 0.4132 0.7418
H9A H 0.5113 0.4911 0.6630
C12A C 0.2755(7) 0.4968(7) 0.6466(5)
H10A H 0.3076 0.5476 0.6066
C13A C 0.1550(7) 0.4580(7) 0.6573(6)
H11A H 0.0855 0.4749 0.6258
C14A C 0.2677(6) 0.3790(6) 0.7524(5)
C15A C 0.0374(7) 0.3242(7) 0.7519(6)
H12A H -0.0251 0.3696 0.7447
H13A H 0.0026 0.2341 0.7038
C16A C 0.0586(7) 0.3232(7) 0.8590(6)
C17A C 0.1122(7) 0.4340(7) 0.9435(6)
H14A H 0.1376 0.5158 0.9347
C18A C 0.1289(7) 0.4257(8) 1.0411(6)
H15A H 0.1644 0.5017 1.0996
C19A C 0.0936(6) 0.3067(7) 1.0524(6)
C20A C 0.0259(7) 0.2078(8) 0.8777(6)
H16A H -0.0092 0.1308 0.8200
C21A C 0.1135(7) 0.2901(9) 1.1559(6)
C22A C 0.1583(11) 0.3975(11) 1.2446(7)
H17A H 0.1762 0.4820 1.2410
C23A C 0.1765(12) 0.3801(13) 1.3385(8)
H18A H 0.2089 0.4526 1.4000
C24A C 0.1479(11) 0.2592(12) 1.3420(8)
H19A H 0.1508 0.2437 1.4055
C25A C 0.1150(15) 0.1614(14) 1.2513(11)
H20A H 0.1066 0.0772 1.2534
Ag2_2 Ag 0.0000 0.0000 1.0000
N5A_2 N 1.0401(6) 1.1962(6) 0.9712(5)
N6A_2 N 1.0928(10) 1.1723(8) 1.1570(6)
F1 F 0.6020(6) 0.3100(6) 0.8497(6)
F2 F 0.5631(5) 0.1092(6) 0.8511(5)
F3 F 0.7575(6) 0.2488(7) 0.9029(5)
F4 F 0.7106(7) 0.0806(7) 0.7573(6)
F5 F 0.7453(7) 0.2824(7) 0.7550(5)
F6 F 0.5504(7) 0.1452(9) 0.7015(6)
P1 P 0.6511(2) 0.1917(2) 0.7985(2)
F7 F 0.9834(7) 1.1310(7) 0.4944(5)
F8 F 1.0748(6) 0.9928(6) 0.4080(4)
F9 F 0.8738(6) 0.9216(7) 0.4173(5)
P2 P 1.0000 1.0000 0.5000
F7A F 1.0166(7) 0.8690(7) 0.5056(5)
F8A F 0.9252(6) 1.0072(6) 0.5920(4)
F9A F 1.1262(6) 1.0784(7) 0.5827(5)
N7 N 0.8645(13) 0.3655(13) 0.5080(11)
C26 C 0.7043(16) 0.1486(16) 0.4983(15)
H21 H 0.6476 0.1122 0.4312
H22 H 0.6556 0.1619 0.5529
H23 H 0.7507 0.0887 0.5050
C27 C 0.7947(15) 0.2752(14) 0.5071(11)
N8 N 0.5242(16) 0.3407(16) 0.4704(9)
C28 C 0.3796(14) 0.1480(17) 0.5014(13)
H24 H 0.3914 0.1629 0.5753
H25 H 0.4020 0.0705 0.4663
H26 H 0.2918 0.1357 0.4745
C29 C 0.4586(14) 0.2578(15) 0.4836(9)
loop_
_geom_bond_atom_site_label_1
_geom_bond_atom_site_label_2
_geom_bond_site_symmetry_1
_geom_bond_site_symmetry_2
Ag1 N1 1_555 1_555
Ag2 N5 1_555 1_555
N1 C1 1_555 1_555
N2 Ag1 1_555 1_555
N3 C11 1_555 1_555
N4 C13 1_555 1_555
N5 C19 1_555 1_555
N6 Ag2 1_555 1_555
C1 H1 1_555 1_555
C2 C1 1_555 1_555
H2 C2 1_555 1_555
C3 C2 1_555 1_555
H3 C3 1_555 1_555
C4 C3 1_555 1_555
H4 C4 1_555 1_555
C5 N1 1_555 1_555
C6 N2 1_555 1_555
C7 C6 1_555 1_555
H5 C7 1_555 1_555
C8 C7 1_555 1_555
H6 C8 1_555 1_555
C9 C8 1_555 1_555
C10 N2 1_555 1_555
H7 C10 1_555 1_555
C11 C9 1_555 1_555
H8 C11 1_555 1_555
H9 C11 1_555 1_555
C12 N3 1_555 1_555
H10 C12 1_555 1_555
C13 C12 1_555 1_555
H11 C13 1_555 1_555
C14 N3 1_555 1_555
C15 N4 1_555 1_555
H12 C15 1_555 1_555
H13 C15 1_555 1_555
C16 C15 1_555 1_555
C17 C16 1_555 1_555
H14 C17 1_555 1_555
C18 C17 1_555 1_555
H15 C18 1_555 1_555
C19 C18 1_555 1_555
C20 N5 1_555 1_555
H16 C20 1_555 1_555
C21 N6 1_555 1_555
C22 C21 1_555 1_555
H17 C22 1_555 1_555
C23 C22 1_555 1_555
H18 C23 1_555 1_555
C24 C23 1_555 1_555
H19 C24 1_555 1_555
C25 N6 1_555 1_555
H20 C25 1_555 1_555
F1 P1 1_555 1_555
F2 P1 1_555 1_555
F3 P1 1_555 1_555
F4 P1 1_555 1_555
F5 P1 1_555 1_555
F6 P1 1_555 1_555
F7 P2 1_555 1_555
F8 P2 1_555 1_555
F9 P2 1_555 1_555
P2 F7A 1_555 1_555
N7 C27 1_555 1_555
C26 H21 1_555 1_555
H22 C26 1_555 1_555
H23 C26 1_555 1_555
C27 C26 1_555 1_555
N8 C29 1_555 1_555
C28 H24 1_555 1_555
H25 C28 1_555 1_555
H26 C28 1_555 1_555
C29 C28 1_555 1_555
Ag1A C14 1_555 1_555
N1A Ag1A 1_555 1_555
N2A Ag1A 1_555 1_555
N3A C11A 1_555 1_555
N4A C13A 1_555 1_555
N5A C19A 1_555 1_555
N6A C21A 1_555 1_555
C1A N1A 1_555 1_555
H1A C1A 1_555 1_555
C2A C1A 1_555 1_555
H2A C2A 1_555 1_555
C3A C2A 1_555 1_555
H3A C3A 1_555 1_555
C4A C3A 1_555 1_555
H4A C4A 1_555 1_555
C5A N1A 1_555 1_555
C6A N2A 1_555 1_555
C7A C6A 1_555 1_555
H5A C7A 1_555 1_555
C8A C7A 1_555 1_555
H6A C8A 1_555 1_555
C9A C8A 1_555 1_555
C10A N2A 1_555 1_555
H7A C10A 1_555 1_555
C11A C9A 1_555 1_555
H8A C11A 1_555 1_555
H9A C11A 1_555 1_555
C12A N3A 1_555 1_555
H10A C12A 1_555 1_555
C13A C12A 1_555 1_555
H11A C13A 1_555 1_555
C14A Ag1 1_555 1_555
C15A N4A 1_555 1_555
H12A C15A 1_555 1_555
H13A C15A 1_555 1_555
C16A C15A 1_555 1_555
C17A C16A 1_555 1_555
H14A C17A 1_555 1_555
C18A C17A 1_555 1_555
H15A C18A 1_555 1_555
C19A C18A 1_555 1_555
C20A N5A 1_555 1_555
H16A C20A 1_555 1_555
C21A C19A 1_555 1_555
C22A C21A 1_555 1_555
H17A C22A 1_555 1_555
C23A C22A 1_555 1_555
H18A C23A 1_555 1_555
C24A C23A 1_555 1_555
H19A C24A 1_555 1_555
C25A N6A 1_555 1_555
H20A C25A 1_555 1_555
Ag2_2 N5A 1_555 1_555
N5A_2 Ag2 1_555 1_555
N6A_2 Ag2 1_555 1_555
F8A P2 1_555 1_555
F9A P2 1_555 1_555
N4 C14 1_555 1_555
C4 C5 1_555 1_555
C5 C6 1_555 1_555
C9 C10 1_555 1_555
C16 C20 1_555 1_555
C19 C21 1_555 1_555
C24 C25 1_555 1_555
N3A C14A 1_555 1_555
N4A C14A 1_555 1_555
N6A Ag2_2 1_555 1_555
C4A C5A 1_555 1_555
C5A C6A 1_555 1_555
C9A C10A 1_555 1_555
C16A C20A 1_555 1_555
C24A C25A 1_555 1_555

#END
