
#######################################################################
#
#                 Cambridge Crystallographic Data Centre
#                                CCDC 
#
#######################################################################
#
# If this CIF has been generated from an entry in the Cambridge 
# Structural Database, then it will include bibliographic, chemical, 
# crystal, experimental, refinement or atomic coordinate data resulting 
# from the CCDC's data processing and validation procedures.
#
#######################################################################

data_CESNOD
_symmetry_cell_setting           triclinic
_symmetry_space_group_name_H-M   'P -1'
_symmetry_Int_Tables_number      2
_space_group_name_Hall           '-P 1'
loop_
_symmetry_equiv_pos_site_id
_symmetry_equiv_pos_as_xyz
1 x,y,z
2 -x,-y,-z
_cell_length_a                   10.114(3)
_cell_length_b                   11.485(4)
_cell_length_c                   13.284(5)
_cell_angle_alpha                113.36(4)
_cell_angle_beta                 100.71(2)
_cell_angle_gamma                91.79(2)
_cell_volume                     1382.45
loop_
_atom_site_label
_atom_site_type_symbol
_atom_site_fract_x
_atom_site_fract_y
_atom_site_fract_z
Ni1 Ni 0.0000 -1.0000 -0.5000
Ni2 Ni 0.0000 -0.5000 0.0000
Cr1 Cr -0.06588(8) -0.18421(9) 0.20206(8)
O1 O -0.0203(4) -0.1391(4) 0.3377(3)
O2 O -0.2185(4) -0.2654(5) 0.1571(4)
O3 O -0.0651(4) -0.0605(5) 0.1708(4)
O4 O 0.0395(4) -0.2738(4) 0.1436(4)
N1 N 0.0166(4) -1.1335(4) -0.4294(3)
H1 H 0.0204 -1.0853 -0.3554
N2 N 0.2052(4) -0.9977(4) -0.4862(3)
H2 H -0.2187 -0.9507 -0.4449
N3 N 0.0328(5) -0.5367(6) 0.1407(4)
H3 H 0.0362 -0.4583 0.1972
N4 N 0.2052(5) -0.4925(5) 0.0136(5)
H4 H 0.2210 -0.5717 -0.0321
C1 C 0.1539(6) -1.1727(6) -0.4302(6)
H5 H 0.1524 -1.2375 -0.5056
C2 C 0.1987(6) -1.2327(7) -0.3470(6)
H6 H 0.2008 -1.1714 -0.2711
H7 H 0.1352 -1.3063 -0.3636
C3 C 0.3458(6) -1.2752(8) -0.3574(7)
H8 H 0.3440 -1.3376 -0.4329
H9 H 0.3771 -1.3130 -0.3050
C4 C 0.4352(7) -1.1608(8) -0.3318(7)
H10 H 0.4348 -1.0990 -0.2566
H11 H 0.5270 -1.1823 -0.3334
C5 C 0.3927(6) -1.1012(6) -0.4145(5)
H12 H 0.3920 -1.1629 -0.4899
H13 H 0.4576 -1.0284 -0.3973
C6 C 0.2558(5) -1.0593(6) -0.4088(5)
H14 H -0.2605 -1.0037 -0.6679
C7 C -0.2773(6) -1.1276(7) -0.5441(6)
H15 H -0.2653 -1.1858 -0.6173
H16 H -0.3733 -1.1205 -0.5488
C8 C -0.2260(6) -1.1806(6) -0.4589(6)
H17 H -0.2185 -1.1123 -0.3851
H18 H -0.2955 -1.2457 -0.4671
C9 C -0.0949(6) -1.2371(6) -0.4590(6)
H19 H -0.0812 -1.2662 -0.3981
C10 C -0.0904(7) -1.3476(8) -0.5619(8)
H20 H -0.0028 -1.3771 -0.5550
H21 H -0.1586 -1.4147 -0.5740
H22 H -0.1069 -1.3238 -0.6243
C11 C 0.1763(6) -0.5657(6) 0.1565(5)
H23 H 0.1823 -0.6550 0.1090
C12 C 0.2330(6) -0.5357(7) 0.2865(6)
H24 H 0.2270 -0.4470 0.3329
H25 H 0.1796 -0.5890 0.3091
C13 C 0.3822(7) -0.5634(8) 0.3016(6)
H26 H 0.3873 -0.6527 0.2565
H27 H 0.4187 -0.5462 0.3796
C14 C 0.4669(7) -0.4779(8) 0.2649(6)
H28 H 0.4649 -0.3887 0.3122
H29 H 0.5604 -0.4959 0.2738
C15 C 0.4105(6) -0.5030(7) 0.1445(6)
H30 H 0.4155 -0.5915 0.0968
H31 H 0.4639 -0.4494 0.1222
C16 C 0.2659(5) -0.4754(6) 0.1298(4)
H32 H 0.2617 -0.3871 0.1812
C17 C 0.2636(6) -0.4028(6) -0.0252(6)
H33 H 0.3605 -0.4068 -0.0164
H34 H 0.2496 -0.3167 0.0220
C18 C 0.2032(6) -0.4298(7) -0.1459(6)
H35 H 0.2646 -0.3890 -0.1735
H36 H 0.1947 -0.5211 -0.1904
C19 C -0.0646(6) -0.6167(5) 0.1628(5)
H37 H -0.0374 -0.6001 0.2425
C20 C -0.0563(7) -0.7579(7) 0.0961(7)
H38 H 0.0350 -0.7763 0.1131
H39 H -0.0829 -0.7781 0.0172
H40 H -0.1158 -0.8082 0.1158
O4A O -0.0395(4) -0.7262(4) -0.1436(4)
Cr1A Cr 0.06588(8) -0.81579(9) -0.20206(8)
O1A O 0.0203(4) -0.8609(4) -0.3377(3)
Ni1_2 Ni 0.0000 0.0000 0.5000
O1_2 O -0.0203(4) -1.1391(4) -0.6623(3)
N1A N -0.0166(4) -0.8665(4) -0.5706(3)
H1A H -0.0204 -0.9147 -0.6446
C1A C -0.1539(6) -0.8273(6) -0.5698(6)
H5A H -0.1524 -0.7625 -0.4944
C2A C -0.1987(6) -0.7673(7) -0.6530(6)
H6A H -0.2008 -0.8286 -0.7289
H7A H -0.1352 -0.6937 -0.6364
C3A C -0.3458(6) -0.7248(8) -0.6426(7)
H8A H -0.3440 -0.6624 -0.5671
H9A H -0.3771 -0.6870 -0.6950
C4A C -0.4352(7) -0.8392(8) -0.6682(7)
H10A H -0.4348 -0.9010 -0.7434
H11A H -0.5270 -0.8177 -0.6666
C5A C -0.3927(6) -0.8988(6) -0.5855(5)
H12A H -0.3920 -0.8371 -0.5101
H13A H -0.4576 -0.9716 -0.6027
C6A C -0.2558(5) -0.9407(6) -0.5912(5)
N2A N -0.2052(4) -1.0023(4) -0.5138(3)
C9A C 0.0949(6) -0.7629(6) -0.5410(6)
C8A C 0.2260(6) -0.8194(6) -0.5411(6)
C7A C 0.2773(6) -0.8724(7) -0.4559(6)
H2A H 0.2187 -1.0493 -0.5551
H15A H 0.2653 -0.8142 -0.3827
H16A H 0.3733 -0.8795 -0.4512
H17A H 0.2185 -0.8877 -0.6149
H18A H 0.2955 -0.7543 -0.5329
H19A H 0.0812 -0.7338 -0.6019
C10A C 0.0904(7) -0.6524(8) -0.4381(8)
H20A H 0.0028 -0.6229 -0.4450
H21A H 0.1586 -0.5853 -0.4260
H22A H 0.1069 -0.6762 -0.3757
H14A H 0.2605 -0.9963 -0.3321
O2A O 0.2185(4) -0.7346(5) -0.1571(4)
O3A O 0.0651(4) -0.9395(5) -0.1708(4)
N3A N -0.0328(5) -0.4633(6) -0.1407(4)
H3A H -0.0362 -0.5417 -0.1972
C11A C -0.1763(6) -0.4343(6) -0.1565(5)
H23A H -0.1823 -0.3450 -0.1090
C12A C -0.2330(6) -0.4643(7) -0.2865(6)
H24A H -0.2270 -0.5530 -0.3329
H25A H -0.1796 -0.4110 -0.3091
C13A C -0.3822(7) -0.4366(8) -0.3016(6)
H26A H -0.3873 -0.3473 -0.2565
H27A H -0.4187 -0.4538 -0.3796
C14A C -0.4669(7) -0.5221(8) -0.2649(6)
H28A H -0.4649 -0.6113 -0.3122
H29A H -0.5604 -0.5041 -0.2738
C15A C -0.4105(6) -0.4970(7) -0.1445(6)
H30A H -0.4155 -0.4085 -0.0968
H31A H -0.4639 -0.5506 -0.1222
C16A C -0.2659(5) -0.5246(6) -0.1298(4)
N4A N -0.2052(5) -0.5075(5) -0.0136(5)
H4A H -0.2210 -0.4283 0.0321
C17A C -0.2636(6) -0.5972(6) 0.0252(6)
H33A H -0.3605 -0.5932 0.0164
H34A H -0.2496 -0.6833 -0.0220
C18A C -0.2032(6) -0.5702(7) 0.1459(6)
H35A H -0.2646 -0.6110 0.1735
H36A H -0.1947 -0.4789 0.1904
H32A H -0.2617 -0.6129 -0.1812
C19A C 0.0646(6) -0.3833(5) -0.1628(5)
H37A H 0.0374 -0.3999 -0.2425
C20A C 0.0563(7) -0.2421(7) -0.0961(7)
H38A H -0.0350 -0.2237 -0.1131
H39A H 0.0829 -0.2219 -0.0172
H40A H 0.1158 -0.1918 -0.1158
O5 O 0.5187(4) 0.8045(5) 0.1620(4)
O6 O 0.5532(5) 0.1635(5) 0.0362(5)
O7 O 0.3020(4) 0.8836(5) 0.2732(4)
O8 O 0.7136(5) 0.9439(6) 0.0048(5)
O9 O 0.1857(4) 0.0449(5) 0.1678(4)
loop_
_geom_bond_atom_site_label_1
_geom_bond_atom_site_label_2
_geom_bond_site_symmetry_1
_geom_bond_site_symmetry_2
Ni1 N1 1_555 1_555
Ni2 O4 1_555 1_555
Cr1 O1 1_555 1_555
O1 Ni1_2 1_555 1_555
O2 Cr1 1_555 1_555
O3 Cr1 1_555 1_555
O4 Cr1 1_555 1_555
N1 H1 1_555 1_555
N2 Ni1 1_555 1_555
H2 N2A 1_555 1_555
N3 Ni2 1_555 1_555
H3 N3 1_555 1_555
N4 Ni2 1_555 1_555
H4 N4 1_555 1_555
C1 N1 1_555 1_555
H5 C1 1_555 1_555
C2 C1 1_555 1_555
H6 C2 1_555 1_555
H7 C2 1_555 1_555
C3 C2 1_555 1_555
H8 C3 1_555 1_555
H9 C3 1_555 1_555
C4 C3 1_555 1_555
H10 C4 1_555 1_555
H11 C4 1_555 1_555
C5 C4 1_555 1_555
H12 C5 1_555 1_555
H13 C5 1_555 1_555
C6 N2 1_555 1_555
H14 C6A 1_555 1_555
C7 H15 1_555 1_555
H16 C7 1_555 1_555
C8 C7 1_555 1_555
H17 C8 1_555 1_555
H18 C8 1_555 1_555
C9 N1 1_555 1_555
H19 C9 1_555 1_555
C10 C9 1_555 1_555
H20 C10 1_555 1_555
H21 C10 1_555 1_555
H22 C10 1_555 1_555
C11 N3 1_555 1_555
H23 C11 1_555 1_555
C12 C11 1_555 1_555
H24 C12 1_555 1_555
H25 C12 1_555 1_555
C13 C12 1_555 1_555
H26 C13 1_555 1_555
H27 C13 1_555 1_555
C14 C13 1_555 1_555
H28 C14 1_555 1_555
H29 C14 1_555 1_555
C15 C14 1_555 1_555
H30 C15 1_555 1_555
H31 C15 1_555 1_555
C16 N4 1_555 1_555
H32 C16 1_555 1_555
C17 N4 1_555 1_555
H33 C17 1_555 1_555
H34 C17 1_555 1_555
C18 C17 1_555 1_555
H35 C18 1_555 1_555
H36 C18 1_555 1_555
C19 N3 1_555 1_555
H37 C19 1_555 1_555
C20 C19 1_555 1_555
H38 C20 1_555 1_555
H39 C20 1_555 1_555
H40 C20 1_555 1_555
O4A Ni2 1_555 1_555
Cr1A O4A 1_555 1_555
O1A Ni1 1_555 1_555
O1_2 Ni1 1_555 1_555
N1A Ni1 1_555 1_555
H1A N1A 1_555 1_555
C1A N1A 1_555 1_555
H5A C1A 1_555 1_555
C2A C1A 1_555 1_555
H6A C2A 1_555 1_555
H7A C2A 1_555 1_555
C3A C2A 1_555 1_555
H8A C3A 1_555 1_555
H9A C3A 1_555 1_555
C4A C3A 1_555 1_555
H10A C4A 1_555 1_555
H11A C4A 1_555 1_555
C5A C4A 1_555 1_555
H12A C5A 1_555 1_555
H13A C5A 1_555 1_555
C6A C1A 1_555 1_555
N2A Ni1 1_555 1_555
C9A N1A 1_555 1_555
C8A C9A 1_555 1_555
C7A N2 1_555 1_555
H2A N2 1_555 1_555
H15A C7A 1_555 1_555
H16A C7A 1_555 1_555
H17A C8A 1_555 1_555
H18A C8A 1_555 1_555
H19A C9A 1_555 1_555
C10A C9A 1_555 1_555
H20A C10A 1_555 1_555
H21A C10A 1_555 1_555
H22A C10A 1_555 1_555
H14A C6 1_555 1_555
O2A Cr1A 1_555 1_555
O3A Cr1A 1_555 1_555
N3A Ni2 1_555 1_555
H3A N3A 1_555 1_555
C11A N3A 1_555 1_555
H23A C11A 1_555 1_555
C12A C11A 1_555 1_555
H24A C12A 1_555 1_555
H25A C12A 1_555 1_555
C13A C12A 1_555 1_555
H26A C13A 1_555 1_555
H27A C13A 1_555 1_555
C14A C13A 1_555 1_555
H28A C14A 1_555 1_555
H29A C14A 1_555 1_555
C15A C14A 1_555 1_555
H30A C15A 1_555 1_555
H31A C15A 1_555 1_555
C16A C11A 1_555 1_555
N4A Ni2 1_555 1_555
H4A N4A 1_555 1_555
C17A N4A 1_555 1_555
H33A C17A 1_555 1_555
H34A C17A 1_555 1_555
C18A C19 1_555 1_555
H35A C18A 1_555 1_555
H36A C18A 1_555 1_555
H32A C16A 1_555 1_555
C19A C18 1_555 1_555
H37A C19A 1_555 1_555
C20A C19A 1_555 1_555
H38A C20A 1_555 1_555
H39A C20A 1_555 1_555
H40A C20A 1_555 1_555
C1 C6 1_555 1_555
C5 C6 1_555 1_555
C7 N2A 1_555 1_555
C8 C9 1_555 1_555
C11 C16 1_555 1_555
C15 C16 1_555 1_555
Cr1A O1A 1_555 1_555
C5A C6A 1_555 1_555
C6A N2A 1_555 1_555
C8A C7A 1_555 1_555
N3A C19A 1_555 1_555
C15A C16A 1_555 1_555
C16A N4A 1_555 1_555
C17A C18A 1_555 1_555

#END
