
#######################################################################
#
#                 Cambridge Crystallographic Data Centre
#                                CCDC 
#
#######################################################################
#
# If this CIF has been generated from an entry in the Cambridge 
# Structural Database, then it will include bibliographic, chemical, 
# crystal, experimental, refinement or atomic coordinate data resulting 
# from the CCDC's data processing and validation procedures.
#
#######################################################################

data_CESNUJ
_symmetry_cell_setting           triclinic
_symmetry_space_group_name_H-M   'P -1'
_symmetry_Int_Tables_number      2
_space_group_name_Hall           '-P 1'
loop_
_symmetry_equiv_pos_site_id
_symmetry_equiv_pos_as_xyz
1 x,y,z
2 -x,-y,-z
_cell_length_a                   9.6137(15)
_cell_length_b                   12.034(2)
_cell_length_c                   14.482(3)
_cell_angle_alpha                113.627(18)
_cell_angle_beta                 101.178(12)
_cell_angle_gamma                102.450(13)
_cell_volume                     1423.45
loop_
_atom_site_label
_atom_site_type_symbol
_atom_site_fract_x
_atom_site_fract_y
_atom_site_fract_z
Cu1 Cu 0.0000 0.0000 0.0000
Cu2 Cu 0.0000 0.0000 -0.5000
Cr1 Cr -0.00500(10) 0.10719(8) -0.71952(6)
O1 O 0.0247(4) 0.0131(3) -0.8258(3)
O2 O -0.1866(4) 0.0511(4) -0.7362(3)
O3 O 0.0370(4) 0.2497(4) -0.7112(3)
O4 O 0.0889(4) 0.1024(4) -0.6151(2)
N1 N 0.2007(3) -0.0193(3) 0.0413(3)
H1 H 0.2166 -0.0067 0.1093
N2 N 0.0781(3) 0.1945(3) 0.0730(2)
H2 H -0.0812 -0.2176 -0.1415
N3 N -0.2118(4) -0.0141(3) -0.5700(2)
H3 H -0.2079 0.0071 -0.6234
N4 N -0.0640(3) -0.1875(3) -0.5924(2)
H4 H -0.0863 -0.2222 -0.5494
C1 C -0.2426(4) -0.2652(4) 0.0193(3)
H5 H -0.1736 -0.3034 0.0414
H6 H -0.3426 -0.3122 0.0106
H7 H -0.2166 -0.1778 0.0721
C2 C 0.2349(4) 0.2685(4) 0.0808(3)
H8 H -0.2617 -0.3582 -0.1340
C3 C 0.3408(5) 0.2078(4) 0.1214(4)
H9 H -0.3229 -0.2067 -0.1847
H10 H -0.4429 -0.2632 -0.1424
C4 C 0.3297(4) 0.0742(4) 0.0462(4)
H11 H -0.4203 -0.0568 -0.0698
H12 H -0.3203 -0.0671 0.0240
C5 C 0.1897(4) -0.1561(4) -0.0210(3)
H13 H 0.1938 -0.1707 -0.0919
C6 C 0.3157(4) -0.1929(4) 0.0302(4)
H14 H 0.3170 -0.1729 0.1023
H15 H 0.4113 -0.1419 0.0335
C7 C 0.2978(5) -0.3314(4) -0.0292(4)
H16 H 0.3104 -0.3495 -0.0981
H17 H 0.3748 -0.3513 0.0093
C8 C 0.1424(5) -0.4163(4) -0.0442(4)
H18 H 0.1352 -0.4076 0.0241
H19 H 0.1293 -0.5055 -0.0891
C9 C 0.0217(5) -0.3788(4) -0.0937(4)
H20 H 0.0225 -0.3968 -0.1651
H21 H -0.0748 -0.4306 -0.0989
C10 C 0.0392(4) -0.2398(4) -0.0322(3)
H22 H 0.0388 -0.2247 0.0395
C11 C 0.0712(5) -0.2228(4) -0.7273(4)
H23 H -0.0234 -0.2527 -0.7810
H24 H 0.1154 -0.1319 -0.7003
H25 H 0.1369 -0.2655 -0.7574
C12 C 0.0473(4) -0.2511(4) -0.6385(3)
H26 H 0.0022 -0.3442 -0.6679
C13 C 0.1852(5) -0.2084(5) -0.5496(3)
H27 H 0.1563 -0.2272 -0.4955
H28 H 0.2471 -0.2600 -0.5757
C14 C -0.2799(5) 0.0705(5) -0.5023(3)
H29 H -0.2944 0.0456 -0.4480
H30 H -0.3776 0.0598 -0.5450
C15 C -0.3043(4) -0.1499(4) -0.6203(3)
H31 H -0.3207 -0.1720 -0.5641
C16 C -0.4554(5) -0.1840(5) -0.6975(4)
H32 H -0.4413 -0.1527 -0.7484
H33 H -0.5154 -0.1403 -0.6590
C17 C -0.5413(5) -0.3272(4) -0.7575(4)
H34 H -0.5756 -0.3551 -0.7093
H35 H -0.6289 -0.3431 -0.8132
C18 C -0.4476(5) -0.4039(4) -0.8056(4)
H36 H -0.5027 -0.4943 -0.8344
H37 H -0.4310 -0.3886 -0.8641
C19 C -0.2996(5) -0.3735(4) -0.7294(4)
H38 H -0.2408 -0.4206 -0.7666
H39 H -0.3143 -0.3991 -0.6755
C20 C -0.2171(4) -0.2310(4) -0.6779(3)
H40 H -0.1989 -0.2081 -0.7333
O4A O -0.0889(4) -0.1024(4) -0.3849(2)
Cr1A Cr 0.00500(10) -0.10719(8) -0.28048(6)
O1A O -0.0247(4) -0.0131(3) -0.1742(3)
Cu1_2 Cu 0.0000 0.0000 -1.0000
O1_2 O 0.0247(4) 0.0131(3) 0.1742(3)
N1A N -0.2007(3) 0.0193(3) -0.0413(3)
H1A H -0.2166 0.0067 -0.1093
C4A C -0.3297(4) -0.0742(4) -0.0462(4)
C3A C -0.3408(5) -0.2078(4) -0.1214(4)
C2A C -0.2349(4) -0.2685(4) -0.0808(3)
N2A N -0.0781(3) -0.1945(3) -0.0730(2)
C5A C -0.1897(4) 0.1561(4) 0.0210(3)
H13A H -0.1938 0.1707 0.0919
C6A C -0.3157(4) 0.1929(4) -0.0302(4)
H14A H -0.3170 0.1729 -0.1023
H15A H -0.4113 0.1419 -0.0335
C7A C -0.2978(5) 0.3314(4) 0.0292(4)
H16A H -0.3104 0.3495 0.0981
H17A H -0.3748 0.3513 -0.0093
C8A C -0.1424(5) 0.4163(4) 0.0442(4)
H18A H -0.1352 0.4076 -0.0241
H19A H -0.1293 0.5055 0.0891
C9A C -0.0217(5) 0.3788(4) 0.0937(4)
H20A H -0.0225 0.3968 0.1651
H21A H 0.0748 0.4306 0.0989
C10A C -0.0392(4) 0.2398(4) 0.0322(3)
H2A H 0.0812 0.2176 0.1415
H22A H -0.0388 0.2247 -0.0395
C1A C 0.2426(4) 0.2652(4) -0.0193(3)
H5A H 0.1736 0.3034 -0.0414
H6A H 0.3426 0.3122 -0.0106
H7A H 0.2166 0.1778 -0.0721
H8A H 0.2617 0.3582 0.1340
H9A H 0.3229 0.2067 0.1847
H10A H 0.4429 0.2632 0.1424
H11A H 0.4203 0.0568 0.0698
H12A H 0.3203 0.0671 -0.0240
O2A O 0.1866(4) -0.0511(4) -0.2638(3)
O3A O -0.0370(4) -0.2497(4) -0.2888(3)
C13A C -0.1852(5) 0.2084(5) -0.4504(3)
C12A C -0.0473(4) 0.2511(4) -0.3615(3)
N4A N 0.0640(3) 0.1875(3) -0.4076(2)
N3A N 0.2118(4) 0.0141(3) -0.4300(2)
H3A H 0.2079 -0.0071 -0.3766
C14A C 0.2799(5) -0.0705(5) -0.4977(3)
H29A H 0.2944 -0.0456 -0.5520
H30A H 0.3776 -0.0598 -0.4550
C15A C 0.3043(4) 0.1499(4) -0.3797(3)
H31A H 0.3207 0.1720 -0.4359
C16A C 0.4554(5) 0.1840(5) -0.3025(4)
H32A H 0.4413 0.1527 -0.2516
H33A H 0.5154 0.1403 -0.3410
C17A C 0.5413(5) 0.3272(4) -0.2425(4)
H34A H 0.5756 0.3551 -0.2907
H35A H 0.6289 0.3431 -0.1868
C18A C 0.4476(5) 0.4039(4) -0.1944(4)
H36A H 0.5027 0.4943 -0.1656
H37A H 0.4310 0.3886 -0.1359
C19A C 0.2996(5) 0.3735(4) -0.2706(4)
H38A H 0.2408 0.4206 -0.2334
H39A H 0.3143 0.3991 -0.3245
C20A C 0.2171(4) 0.2310(4) -0.3221(3)
H4A H 0.0863 0.2222 -0.4506
H40A H 0.1989 0.2081 -0.2667
C11A C -0.0712(5) 0.2228(4) -0.2727(4)
H23A H 0.0234 0.2527 -0.2190
H24A H -0.1154 0.1319 -0.2997
H25A H -0.1369 0.2655 -0.2426
H26A H -0.0022 0.3442 -0.3321
H27A H -0.1563 0.2272 -0.5045
H28A H -0.2471 0.2600 -0.4243
O5 O 0.3857(4) 0.1002(3) -0.6574(3)
O6 O -0.4013(4) 0.1448(3) -0.7427(3)
O7 O -0.1878(4) 0.3847(3) -0.6736(3)
O8 O 0.5014(4) 0.6457(3) -0.5130(3)
O9 O 0.2461(4) 0.4528(3) -0.5081(3)
loop_
_geom_bond_atom_site_label_1
_geom_bond_atom_site_label_2
_geom_bond_site_symmetry_1
_geom_bond_site_symmetry_2
Cu1 N1 1_555 1_555
Cu2 O4 1_555 1_555
Cr1 O1 1_555 1_555
O1 Cu1_2 1_555 1_555
O2 Cr1 1_555 1_555
O3 Cr1 1_555 1_555
O4 Cr1 1_555 1_555
N1 H1 1_555 1_555
N2 Cu1 1_555 1_555
H2 N2A 1_555 1_555
N3 Cu2 1_555 1_555
H3 N3 1_555 1_555
N4 Cu2 1_555 1_555
H4 N4 1_555 1_555
C1 H5 1_555 1_555
H6 C1 1_555 1_555
H7 C1 1_555 1_555
C2 N2 1_555 1_555
H8 C2A 1_555 1_555
C3 C2 1_555 1_555
H9 C3A 1_555 1_555
H10 C3A 1_555 1_555
C4 N1 1_555 1_555
H11 C4A 1_555 1_555
H12 C4A 1_555 1_555
C5 N1 1_555 1_555
H13 C5 1_555 1_555
C6 C5 1_555 1_555
H14 C6 1_555 1_555
H15 C6 1_555 1_555
C7 C6 1_555 1_555
H16 C7 1_555 1_555
H17 C7 1_555 1_555
C8 C7 1_555 1_555
H18 C8 1_555 1_555
H19 C8 1_555 1_555
C9 C8 1_555 1_555
H20 C9 1_555 1_555
H21 C9 1_555 1_555
C10 C5 1_555 1_555
H22 C10 1_555 1_555
C11 H23 1_555 1_555
H24 C11 1_555 1_555
H25 C11 1_555 1_555
C12 N4 1_555 1_555
H26 C12 1_555 1_555
C13 C12 1_555 1_555
H27 C13 1_555 1_555
H28 C13 1_555 1_555
C14 N3 1_555 1_555
H29 C14 1_555 1_555
H30 C14 1_555 1_555
C15 N3 1_555 1_555
H31 C15 1_555 1_555
C16 C15 1_555 1_555
H32 C16 1_555 1_555
H33 C16 1_555 1_555
C17 C16 1_555 1_555
H34 C17 1_555 1_555
H35 C17 1_555 1_555
C18 C17 1_555 1_555
H36 C18 1_555 1_555
H37 C18 1_555 1_555
C19 C18 1_555 1_555
H38 C19 1_555 1_555
H39 C19 1_555 1_555
C20 N4 1_555 1_555
H40 C20 1_555 1_555
O4A Cu2 1_555 1_555
Cr1A O4A 1_555 1_555
O1A Cu1 1_555 1_555
O1_2 Cu1 1_555 1_555
N1A Cu1 1_555 1_555
H1A N1A 1_555 1_555
C4A N1A 1_555 1_555
C3A C4A 1_555 1_555
C2A C1 1_555 1_555
N2A Cu1 1_555 1_555
C5A N1A 1_555 1_555
H13A C5A 1_555 1_555
C6A C5A 1_555 1_555
H14A C6A 1_555 1_555
H15A C6A 1_555 1_555
C7A C6A 1_555 1_555
H16A C7A 1_555 1_555
H17A C7A 1_555 1_555
C8A C7A 1_555 1_555
H18A C8A 1_555 1_555
H19A C8A 1_555 1_555
C9A C8A 1_555 1_555
H20A C9A 1_555 1_555
H21A C9A 1_555 1_555
C10A N2 1_555 1_555
H2A N2 1_555 1_555
H22A C10A 1_555 1_555
C1A C2 1_555 1_555
H5A C1A 1_555 1_555
H6A C1A 1_555 1_555
H7A C1A 1_555 1_555
H8A C2 1_555 1_555
H9A C3 1_555 1_555
H10A C3 1_555 1_555
H11A C4 1_555 1_555
H12A C4 1_555 1_555
O2A Cr1A 1_555 1_555
O3A Cr1A 1_555 1_555
C13A C14 1_555 1_555
C12A C13A 1_555 1_555
N4A Cu2 1_555 1_555
N3A Cu2 1_555 1_555
H3A N3A 1_555 1_555
C14A C13 1_555 1_555
H29A C14A 1_555 1_555
H30A C14A 1_555 1_555
C15A N3A 1_555 1_555
H31A C15A 1_555 1_555
C16A C15A 1_555 1_555
H32A C16A 1_555 1_555
H33A C16A 1_555 1_555
C17A C16A 1_555 1_555
H34A C17A 1_555 1_555
H35A C17A 1_555 1_555
C18A C17A 1_555 1_555
H36A C18A 1_555 1_555
H37A C18A 1_555 1_555
C19A C18A 1_555 1_555
H38A C19A 1_555 1_555
H39A C19A 1_555 1_555
C20A N4A 1_555 1_555
H4A N4A 1_555 1_555
H40A C20A 1_555 1_555
C11A C12A 1_555 1_555
H23A C11A 1_555 1_555
H24A C11A 1_555 1_555
H25A C11A 1_555 1_555
H26A C12A 1_555 1_555
H27A C13A 1_555 1_555
H28A C13A 1_555 1_555
C3 C4 1_555 1_555
C9 C10 1_555 1_555
C10 N2A 1_555 1_555
C11 C12 1_555 1_555
C15 C20 1_555 1_555
C19 C20 1_555 1_555
Cr1A O1A 1_555 1_555
C3A C2A 1_555 1_555
C2A N2A 1_555 1_555
C5A C10A 1_555 1_555
C9A C10A 1_555 1_555
C12A N4A 1_555 1_555
N3A C14A 1_555 1_555
C15A C20A 1_555 1_555
C19A C20A 1_555 1_555

#END
