
#######################################################################
#
#                 Cambridge Crystallographic Data Centre
#                                CCDC 
#
#######################################################################
#
# If this CIF has been generated from an entry in the Cambridge 
# Structural Database, then it will include bibliographic, chemical, 
# crystal, experimental, refinement or atomic coordinate data resulting 
# from the CCDC's data processing and validation procedures.
#
#######################################################################

data_CESVAX
_symmetry_cell_setting           orthorhombic
_symmetry_space_group_name_H-M   'P b a m'
_symmetry_Int_Tables_number      55
_space_group_name_Hall           '-P 2 2ab'
loop_
_symmetry_equiv_pos_site_id
_symmetry_equiv_pos_as_xyz
1 x,y,z
2 1/2-x,1/2+y,z
3 1/2+x,1/2-y,z
4 -x,-y,z
5 -x,-y,-z
6 1/2+x,1/2-y,-z
7 1/2-x,1/2+y,-z
8 x,y,-z
_cell_length_a                   14.36(2)
_cell_length_b                   14.45(3)
_cell_length_c                   3.930(3)
_cell_angle_alpha                90
_cell_angle_beta                 90
_cell_angle_gamma                90
_cell_volume                     815.483
loop_
_atom_site_label
_atom_site_type_symbol
_atom_site_fract_x
_atom_site_fract_y
_atom_site_fract_z
Mn1 Mn 0.00000 0.00000 -2.00000
Br1 Br 0.09200 0.09190 -1.50000
N1 N -0.11400 0.11300 -2.00000
C1 C -0.08700 0.19500 -2.00000
C2 C -0.15500 0.26900 -2.00000
C3 C -0.13500 0.36800 -2.00000
C4 C -0.25200 0.25100 -2.00000
C5 C -0.26800 0.15300 -2.00000
C6 C -0.36600 0.13200 -2.00000
C7 C -0.19800 0.08900 -2.00000
Mn1_2 Mn 0.00000 0.00000 -1.00000
Br1C Br -0.09200 -0.09190 -1.50000
Br1C_2 Br -0.09200 -0.09190 -2.50000
Br1_2 Br 0.09200 0.09190 -2.50000
N1C N 0.11400 -0.11300 -2.00000
C1C C 0.08700 -0.19500 -2.00000
C2C C 0.15500 -0.26900 -2.00000
C3C C 0.13500 -0.36800 -2.00000
C4C C 0.25200 -0.25100 -2.00000
C5C C 0.26800 -0.15300 -2.00000
C6C C 0.36600 -0.13200 -2.00000
C7C C 0.19800 -0.08900 -2.00000
loop_
_geom_bond_atom_site_label_1
_geom_bond_atom_site_label_2
_geom_bond_site_symmetry_1
_geom_bond_site_symmetry_2
Mn1 Br1 1_555 1_555
Br1 Mn1_2 1_555 1_555
N1 Mn1 1_555 1_555
C1 N1 1_555 1_555
C2 C1 1_555 1_555
C3 C2 1_555 1_555
C4 C2 1_555 1_555
C5 C4 1_555 1_555
C6 C5 1_555 1_555
C7 N1 1_555 1_555
Mn1_2 Br1C 1_555 1_555
Br1C Mn1 1_555 1_555
Br1C_2 Mn1 1_555 1_555
Br1_2 Mn1 1_555 1_555
N1C Mn1 1_555 1_555
C1C N1C 1_555 1_555
C2C C1C 1_555 1_555
C3C C2C 1_555 1_555
C4C C2C 1_555 1_555
C5C C4C 1_555 1_555
C6C C5C 1_555 1_555
C7C N1C 1_555 1_555
C5 C7 1_555 1_555
C5C C7C 1_555 1_555

#END
