
#######################################################################
#
#                 Cambridge Crystallographic Data Centre
#                                CCDC 
#
#######################################################################
#
# If this CIF has been generated from an entry in the Cambridge 
# Structural Database, then it will include bibliographic, chemical, 
# crystal, experimental, refinement or atomic coordinate data resulting 
# from the CCDC's data processing and validation procedures.
#
#######################################################################

data_CESYII
_symmetry_cell_setting           monoclinic
_symmetry_space_group_name_H-M   'C 2/c'
_symmetry_Int_Tables_number      15
_space_group_name_Hall           '-C 2yn'
loop_
_symmetry_equiv_pos_site_id
_symmetry_equiv_pos_as_xyz
1 x,y,z
2 1/2+x,1/2+y,z
3 -x,y,1/2-z
4 1/2-x,1/2+y,1/2-z
5 -x,-y,-z
6 1/2-x,1/2-y,-z
7 x,-y,1/2+z
8 1/2+x,1/2-y,1/2+z
_cell_length_a                   19.089(10)
_cell_length_b                   15.891(5)
_cell_length_c                   10.883(3)
_cell_angle_alpha                90
_cell_angle_beta                 100.45(1)
_cell_angle_gamma                90
_cell_volume                     3246.53
loop_
_atom_site_label
_atom_site_type_symbol
_atom_site_fract_x
_atom_site_fract_y
_atom_site_fract_z
Cu1 Cu 0.00000 0.00000 0.50000
S1 S -0.28450 0.10240 0.24630
O1 O -0.10240 0.00720 0.45720
O2 O -0.12720 0.03840 0.64280
O3 O -0.30260 0.05780 0.13290
O4 O -0.33900 0.12680 0.31180
O5 O 0.00000 0.02710 0.25000
N1 N -0.23050 0.04400 0.33800
N2 N 0.00500 0.12370 0.51890
C1 C -0.14170 0.03410 0.52920
C2 C -0.21230 0.06760 0.46850
C3 C -0.23870 0.19320 0.21850
C4 C -0.18970 0.18850 0.14210
C5 C -0.15210 0.25900 0.12450
C6 C -0.16040 0.33310 0.18130
C7 C -0.21110 0.33590 0.25510
C8 C -0.24950 0.26740 0.27540
C9 C -0.11520 0.40860 0.16520
C10 C 0.04640 0.16200 0.61310
C11 C 0.04500 0.24640 0.63280
C12 C -0.00050 0.29710 0.55350
C13 C -0.04210 0.25750 0.45470
C14 C -0.03830 0.17330 0.43950
C15 C -0.00490 0.38960 0.57370
H1 H -0.24500 0.04800 0.52100
H2 H -0.21600 0.13700 0.49300
H3 H -0.19600 0.02200 0.31000
H4 H -0.20100 0.15300 0.06900
H5 H -0.12600 0.25800 0.06100
H6 H -0.21700 0.38200 0.30400
H7 H -0.28300 0.26800 0.33900
H8 H -0.12100 0.46400 0.20900
H9 H -0.06600 0.39200 0.19500
H10 H -0.12200 0.42200 0.07400
H11 H 0.07900 0.12400 0.68200
H12 H 0.08500 0.27400 0.70300
H13 H -0.08200 0.28700 0.39700
H14 H -0.07700 0.14100 0.36200
H15 H 0.02300 0.42300 0.64400
H16 H -0.05400 0.40000 0.58600
H17 H 0.00100 0.41800 0.49600
H18 H 0.04000 -0.00300 0.27900
Cu1B Cu 0.00000 0.00000 0.00000
O1D O 0.10240 -0.00720 0.54280
C1D C 0.14170 -0.03410 0.47080
O2D O 0.12720 -0.03840 0.35720
C2D C 0.21230 -0.06760 0.53150
N1D N 0.23050 -0.04400 0.66200
S1D S 0.28450 -0.10240 0.75370
O3D O 0.30260 -0.05780 0.86710
O4D O 0.33900 -0.12680 0.68820
C3D C 0.23870 -0.19320 0.78150
C4D C 0.18970 -0.18850 0.85790
C5D C 0.15210 -0.25900 0.87550
C6D C 0.16040 -0.33310 0.81870
C7D C 0.21110 -0.33590 0.74490
C8D C 0.24950 -0.26740 0.72460
H7D H 0.28300 -0.26800 0.66100
H6D H 0.21700 -0.38200 0.69600
C9D C 0.11520 -0.40860 0.83480
H8D H 0.12100 -0.46400 0.79100
H9D H 0.06600 -0.39200 0.80500
H10D H 0.12200 -0.42200 0.92600
H5D H 0.12600 -0.25800 0.93900
H4D H 0.20100 -0.15300 0.93100
H3D H 0.19600 -0.02200 0.69000
H1D H 0.24500 -0.04800 0.47900
H2D H 0.21600 -0.13700 0.50700
O5F O 0.00000 -0.02710 0.75000
H18F H 0.04000 0.00300 0.77900
H18D H -0.04000 0.00300 0.72100
N2D N -0.00500 -0.12370 0.48110
C10D C -0.04640 -0.16200 0.38690
C11D C -0.04500 -0.24640 0.36720
C12D C 0.00050 -0.29710 0.44650
C13D C 0.04210 -0.25750 0.54530
C14D C 0.03830 -0.17330 0.56050
H14D H 0.07700 -0.14100 0.63800
H13D H 0.08200 -0.28700 0.60300
C15D C 0.00490 -0.38960 0.42630
H15D H -0.02300 -0.42300 0.35600
H16D H 0.05400 -0.40000 0.41400
H17D H -0.00100 -0.41800 0.50400
H12D H -0.08500 -0.27400 0.29700
H11D H -0.07900 -0.12400 0.31800
H18B H -0.04000 -0.00300 0.22100
loop_
_geom_bond_atom_site_label_1
_geom_bond_atom_site_label_2
_geom_bond_site_symmetry_1
_geom_bond_site_symmetry_2
Cu1 O1 1_555 1_555
S1 O3 1_555 1_555
O1 C1 1_555 1_555
O2 C1 1_555 1_555
O4 S1 1_555 1_555
O5 Cu1 1_555 1_555
N1 S1 1_555 1_555
N2 Cu1 1_555 1_555
C1 C2 1_555 1_555
C2 N1 1_555 1_555
C3 S1 1_555 1_555
C4 C3 1_555 1_555
C5 C4 1_555 1_555
C6 C5 1_555 1_555
C7 C6 1_555 1_555
C8 C3 1_555 1_555
C9 C6 1_555 1_555
C10 N2 1_555 1_555
C11 C10 1_555 1_555
C12 C11 1_555 1_555
C13 C12 1_555 1_555
C14 N2 1_555 1_555
C15 C12 1_555 1_555
H1 C2 1_555 1_555
H2 C2 1_555 1_555
H3 N1 1_555 1_555
H4 C4 1_555 1_555
H5 C5 1_555 1_555
H6 C7 1_555 1_555
H7 C8 1_555 1_555
H8 C9 1_555 1_555
H9 C9 1_555 1_555
H10 C9 1_555 1_555
H11 C10 1_555 1_555
H12 C11 1_555 1_555
H13 C13 1_555 1_555
H14 C14 1_555 1_555
H15 C15 1_555 1_555
H16 C15 1_555 1_555
H17 C15 1_555 1_555
H18 O5 1_555 1_555
Cu1B O5 1_555 1_555
O1D Cu1 1_555 1_555
C1D O1D 1_555 1_555
O2D C1D 1_555 1_555
C2D C1D 1_555 1_555
N1D C2D 1_555 1_555
S1D N1D 1_555 1_555
O3D S1D 1_555 1_555
O4D S1D 1_555 1_555
C3D S1D 1_555 1_555
C4D C3D 1_555 1_555
C5D C4D 1_555 1_555
C6D C5D 1_555 1_555
C7D C6D 1_555 1_555
C8D C3D 1_555 1_555
H7D C8D 1_555 1_555
H6D C7D 1_555 1_555
C9D C6D 1_555 1_555
H8D C9D 1_555 1_555
H9D C9D 1_555 1_555
H10D C9D 1_555 1_555
H5D C5D 1_555 1_555
H4D C4D 1_555 1_555
H3D N1D 1_555 1_555
H1D C2D 1_555 1_555
H2D C2D 1_555 1_555
O5F Cu1 1_555 1_555
H18F O5F 1_555 1_555
H18D O5F 1_555 1_555
N2D Cu1 1_555 1_555
C10D N2D 1_555 1_555
C11D C10D 1_555 1_555
C12D C11D 1_555 1_555
C13D C12D 1_555 1_555
C14D N2D 1_555 1_555
H14D C14D 1_555 1_555
H13D C13D 1_555 1_555
C15D C12D 1_555 1_555
H15D C15D 1_555 1_555
H16D C15D 1_555 1_555
H17D C15D 1_555 1_555
H12D C11D 1_555 1_555
H11D C10D 1_555 1_555
H18B O5 1_555 1_555
C7 C8 1_555 1_555
C13 C14 1_555 1_555
C7D C8D 1_555 1_555
C13D C14D 1_555 1_555

#END
