
#######################################################################
#
#                 Cambridge Crystallographic Data Centre
#                                CCDC 
#
#######################################################################
#
# If this CIF has been generated from an entry in the Cambridge 
# Structural Database, then it will include bibliographic, chemical, 
# crystal, experimental, refinement or atomic coordinate data resulting 
# from the CCDC's data processing and validation procedures.
#
#######################################################################

data_CETFEO
_symmetry_cell_setting           orthorhombic
_symmetry_space_group_name_H-M   'P 21 21 21'
_symmetry_Int_Tables_number      19
_space_group_name_Hall           'P 2ac 2ab'
loop_
_symmetry_equiv_pos_site_id
_symmetry_equiv_pos_as_xyz
1 x,y,z
2 1/2-x,-y,1/2+z
3 1/2+x,1/2-y,-z
4 -x,1/2+y,1/2-z
_cell_length_a                   7.4256(7)
_cell_length_b                   11.2727(10)
_cell_length_c                   29.133(3)
_cell_angle_alpha                90
_cell_angle_beta                 90
_cell_angle_gamma                90
_cell_volume                     2438.62
loop_
_atom_site_label
_atom_site_type_symbol
_atom_site_fract_x
_atom_site_fract_y
_atom_site_fract_z
Cu1 Cu 0.39587(7) 0.74415(6) 0.920393(19)
S1 S 0.4439(2) 0.35936(13) 0.96024(6)
O1 O 0.2748(5) 0.8201(3) 0.97127(12)
O2 O 0.1416(5) 0.7838(3) 1.03755(13)
N1 N 0.4631(6) 0.8975(4) 0.88896(15)
N2 N 0.5220(6) 0.6733(4) 0.86653(15)
N3 N 0.2207(6) 0.6105(4) 0.93568(15)
H1 H 0.2728 0.5393 0.9293
C1 C 0.4317(8) 1.0085(5) 0.9021(2)
H2 H 0.3811 1.0224 0.9308
C2 C 0.4740(9) 1.1076(6) 0.8730(3)
H3 H 0.4538 1.1851 0.8827
C3 C 0.5457(9) 1.0838(6) 0.8302(2)
H4 H 0.5723 1.1465 0.8105
C4 C 0.5790(8) 0.9684(6) 0.81596(19)
C5 C 0.6479(9) 0.9358(7) 0.7723(2)
H5 H 0.6724 0.9955 0.7512
C6 C 0.6795(8) 0.8229(7) 0.7600(2)
H6 H 0.7256 0.8058 0.7311
C7 C 0.6417(7) 0.7285(6) 0.79187(19)
C8 C 0.6785(8) 0.6100(6) 0.7831(2)
H7 H 0.7296 0.5875 0.7553
C9 C 0.6393(9) 0.5261(6) 0.8157(2)
H8 H 0.6653 0.4465 0.8104
C10 C 0.5605(8) 0.5610(5) 0.8567(2)
H9 H 0.5334 0.5031 0.8784
C11 C 0.5665(5) 0.7562(5) 0.83455(16)
C12 C 0.5341(7) 0.8782(5) 0.84724(19)
C13 C 0.1080(9) 0.6395(6) 0.8236(2)
H10 H 0.1190 0.5574 0.8222
C14 C 0.1295(10) 0.7054(8) 0.7846(2)
H11 H 0.1587 0.6678 0.7572
C15 C 0.1086(11) 0.8265(9) 0.7853(4)
H12 H 0.1205 0.8699 0.7584
C16 C 0.0702(11) 0.8834(7) 0.8256(4)
H13 H 0.0570 0.9654 0.8261
C17 C 0.0510(9) 0.8181(6) 0.8659(3)
H14 H 0.0256 0.8566 0.8934
C18 C 0.0703(8) 0.6934(6) 0.8649(2)
C19 C 0.0476(8) 0.6231(6) 0.9085(2)
H15 H 0.0029 0.5447 0.9009
H16 H -0.0420 0.6617 0.9276
C20 C 0.1841(7) 0.6193(5) 0.98560(18)
H17 H 0.0611 0.5917 0.9916
C21 C 0.1986(6) 0.7505(6) 0.99941(16)
C22 C 0.3147(8) 0.5479(5) 1.0153(2)
H18 H 0.4363 0.5751 1.0092
H19 H 0.2888 0.5640 1.0473
C23 C 0.3074(9) 0.4143(5) 1.0076(2)
H20 H 0.1831 0.3919 1.0022
H21 H 0.3461 0.3751 1.0356
C24 C 0.6669(9) 0.3939(6) 0.9804(3)
H22 H 0.7537 0.3696 0.9579
H23 H 0.6891 0.3527 1.0087
H24 H 0.6768 0.4778 0.9854
Cu1B Cu -0.10413(7) 0.75585(6) 1.079607(19)
O2B O 0.6416(5) 0.7162(3) 0.96245(13)
Cl1 Cl 0.0119(3) 1.2656(2) 0.86447(7)
O3 O 0.1565(15) 1.3393(9) 0.8556(4)
O4 O 0.024(2) 1.1983(11) 0.8266(4)
O5 O 0.0408(14) 1.1976(15) 0.8985(4)
O6 O -0.1539(14) 1.3119(9) 0.8645(5)
loop_
_geom_bond_atom_site_label_1
_geom_bond_atom_site_label_2
_geom_bond_site_symmetry_1
_geom_bond_site_symmetry_2
Cu1 O1 1_555 1_555
S1 C23 1_555 1_555
O1 C21 1_555 1_555
O2 C21 1_555 1_555
N1 Cu1 1_555 1_555
N2 Cu1 1_555 1_555
N3 Cu1 1_555 1_555
H1 N3 1_555 1_555
C1 N1 1_555 1_555
H2 C1 1_555 1_555
C2 C1 1_555 1_555
H3 C2 1_555 1_555
C3 C2 1_555 1_555
H4 C3 1_555 1_555
C4 C3 1_555 1_555
C5 C4 1_555 1_555
H5 C5 1_555 1_555
C6 C5 1_555 1_555
H6 C6 1_555 1_555
C7 C6 1_555 1_555
C8 C7 1_555 1_555
H7 C8 1_555 1_555
C9 C8 1_555 1_555
H8 C9 1_555 1_555
C10 N2 1_555 1_555
H9 C10 1_555 1_555
C11 N2 1_555 1_555
C12 N1 1_555 1_555
C13 H10 1_555 1_555
C14 C13 1_555 1_555
H11 C14 1_555 1_555
C15 C14 1_555 1_555
H12 C15 1_555 1_555
C16 C15 1_555 1_555
H13 C16 1_555 1_555
C17 C16 1_555 1_555
H14 C17 1_555 1_555
C18 C13 1_555 1_555
C19 N3 1_555 1_555
H15 C19 1_555 1_555
H16 C19 1_555 1_555
C20 N3 1_555 1_555
H17 C20 1_555 1_555
C21 C20 1_555 1_555
C22 C20 1_555 1_555
H18 C22 1_555 1_555
H19 C22 1_555 1_555
C23 C22 1_555 1_555
H20 C23 1_555 1_555
H21 C23 1_555 1_555
C24 S1 1_555 1_555
H22 C24 1_555 1_555
H23 C24 1_555 1_555
H24 C24 1_555 1_555
Cl1 O3 1_555 1_555
O4 Cl1 1_555 1_555
O5 Cl1 1_555 1_555
O6 Cl1 1_555 1_555
Cu1B O2 1_555 1_555
O2B Cu1 1_555 1_555
C4 C12 1_555 1_555
C7 C11 1_555 1_555
C9 C10 1_555 1_555
C11 C12 1_555 1_555
C17 C18 1_555 1_555
C18 C19 1_555 1_555

#END
