
#######################################################################
#
#                 Cambridge Crystallographic Data Centre
#                                CCDC 
#
#######################################################################
#
# If this CIF has been generated from an entry in the Cambridge 
# Structural Database, then it will include bibliographic, chemical, 
# crystal, experimental, refinement or atomic coordinate data resulting 
# from the CCDC's data processing and validation procedures.
#
#######################################################################

data_CETGIR
_symmetry_cell_setting           triclinic
_symmetry_space_group_name_H-M   'P -1'
_symmetry_Int_Tables_number      2
_space_group_name_Hall           '-P 1'
loop_
_symmetry_equiv_pos_site_id
_symmetry_equiv_pos_as_xyz
1 x,y,z
2 -x,-y,-z
_cell_length_a                   12.441(3)
_cell_length_b                   14.479(2)
_cell_length_c                   10.353(3)
_cell_angle_alpha                99.30(2)
_cell_angle_beta                 97.50(2)
_cell_angle_gamma                111.94(1)
_cell_volume                     1669.58
loop_
_atom_site_label
_atom_site_type_symbol
_atom_site_fract_x
_atom_site_fract_y
_atom_site_fract_z
Mo1 Mo 0.48723 0.44064 0.04995
Mo2 Mo 0.04071 0.03581 -0.07135
O1 O 0.33810 0.34090 -0.10450
O2 O 0.36890 0.46880 -0.20920
O3 O 0.60080 0.39170 -0.04630
O4 O 0.62830 0.51690 -0.15420
O5 O 0.10290 -0.07790 -0.12850
O6 O 0.01340 -0.15620 0.02050
O7 O 0.19720 0.12600 0.07420
O8 O 0.11010 0.04840 0.22570
O9 O 0.16310 0.16830 -0.20140
O10 O 0.76440 0.53810 -0.32820
O11 O -0.03770 -0.35440 -0.01270
O12 O 0.39660 0.27990 0.14630
C1 C 0.30900 0.37630 -0.20420
C2 C 0.20660 0.30970 -0.31090
C3 C 0.17910 0.34330 -0.42560
C4 C 0.08780 0.28090 -0.52950
C5 C 0.01960 0.18140 -0.52130
C6 C 0.04440 0.14620 -0.41030
C7 C 0.13830 0.20930 -0.30670
C8 C 0.64870 0.43930 -0.13010
C9 C 0.72530 0.40520 -0.20450
C10 C 0.74440 0.31960 -0.18240
C11 C 0.81420 0.28530 -0.25070
C12 C 0.86430 0.33470 -0.34470
C13 C 0.84610 0.41720 -0.36920
C14 C 0.77800 0.45470 -0.29900
C15 C 0.07240 -0.15380 -0.07380
C16 C 0.10400 -0.24010 -0.11750
C17 C 0.19050 -0.22850 -0.19470
C18 C 0.22100 -0.30790 -0.23750
C19 C 0.16710 -0.40000 -0.20500
C20 C 0.08140 -0.41400 -0.13140
C21 C 0.04860 -0.33420 -0.08610
C22 C 0.19770 0.11650 0.19670
C23 C 0.29920 0.18770 0.30160
C24 C 0.30380 0.17790 0.43460
C25 C 0.39620 0.24410 0.53350
C26 C 0.48500 0.32480 0.50510
C27 C 0.48260 0.33540 0.37470
C28 C 0.39200 0.26680 0.27340
Mo1A Mo 0.51277 0.55936 -0.04995
O2A O 0.63110 0.53120 0.20920
O4A O 0.37170 0.48310 0.15420
Mo2A Mo -0.04071 -0.03581 0.07135
O6A O -0.01340 0.15620 -0.02050
O8A O -0.11010 -0.04840 -0.22570
Cl1 Cl 0.55300 0.85570 0.10230
Cl2 Cl 0.36950 0.95820 0.12240
C29 C 0.49570 0.99750 0.24330
C30 C 0.51800 1.07510 0.35110
C31 C 0.61660 1.10830 0.45080
C32 C 0.69500 1.06430 0.44160
C33 C 0.67840 0.98710 0.33690
C34 C 0.57680 0.95340 0.23550
loop_
_geom_bond_atom_site_label_1
_geom_bond_atom_site_label_2
_geom_bond_site_symmetry_1
_geom_bond_site_symmetry_2
Mo1 O1 1_555 1_555
Mo2 O5 1_555 1_555
Cl1 C34 1_555 1_555
Cl2 C29 1_555 1_555
O1 C1 1_555 1_555
O2 C1 1_555 1_555
O3 Mo1 1_555 1_555
O4 C8 1_555 1_555
O5 C15 1_555 1_555
O6 C15 1_555 1_555
O7 Mo2 1_555 1_555
O8 C22 1_555 1_555
O9 Mo2 1_555 1_555
O10 C14 1_555 1_555
O11 C21 1_555 1_555
O12 Mo1 1_555 1_555
C1 C2 1_555 1_555
C2 C3 1_555 1_555
C3 C4 1_555 1_555
C4 C5 1_555 1_555
C5 C6 1_555 1_555
C6 C7 1_555 1_555
C7 O9 1_555 1_555
C8 O3 1_555 1_555
C9 C8 1_555 1_555
C10 C9 1_555 1_555
C11 C10 1_555 1_555
C12 C11 1_555 1_555
C13 C12 1_555 1_555
C14 C9 1_555 1_555
C15 C16 1_555 1_555
C16 C17 1_555 1_555
C17 C18 1_555 1_555
C18 C19 1_555 1_555
C19 C20 1_555 1_555
C20 C21 1_555 1_555
C21 C16 1_555 1_555
C22 O7 1_555 1_555
C23 C22 1_555 1_555
C24 C23 1_555 1_555
C25 C24 1_555 1_555
C26 C25 1_555 1_555
C27 C26 1_555 1_555
C28 O12 1_555 1_555
C29 C30 1_555 1_555
C30 C31 1_555 1_555
C31 C32 1_555 1_555
C32 C33 1_555 1_555
C33 C34 1_555 1_555
C34 C29 1_555 1_555
Mo1A Mo1 1_555 1_555
O2A Mo1 1_555 1_555
O4A Mo1 1_555 1_555
Mo2A Mo2 1_555 1_555
O6A Mo2 1_555 1_555
O8A Mo2 1_555 1_555
O2 Mo1A 1_555 1_555
O4 Mo1A 1_555 1_555
O6 Mo2A 1_555 1_555
O8 Mo2A 1_555 1_555
C2 C7 1_555 1_555
C13 C14 1_555 1_555
C23 C28 1_555 1_555
C27 C28 1_555 1_555

#END
