
#######################################################################
#
#                 Cambridge Crystallographic Data Centre
#                                CCDC 
#
#######################################################################
#
# If this CIF has been generated from an entry in the Cambridge 
# Structural Database, then it will include bibliographic, chemical, 
# crystal, experimental, refinement or atomic coordinate data resulting 
# from the CCDC's data processing and validation procedures.
#
#######################################################################

data_CETGIS
_symmetry_cell_setting           monoclinic
_symmetry_space_group_name_H-M   'C 2/c'
_symmetry_Int_Tables_number      15
_space_group_name_Hall           '-C 2yn'
loop_
_symmetry_equiv_pos_site_id
_symmetry_equiv_pos_as_xyz
1 x,y,z
2 1/2+x,1/2+y,z
3 -x,y,1/2-z
4 1/2-x,1/2+y,1/2-z
5 -x,-y,-z
6 1/2-x,1/2-y,-z
7 x,-y,1/2+z
8 1/2+x,1/2-y,1/2+z
_cell_length_a                   15.529(3)
_cell_length_b                   9.4144(15)
_cell_length_c                   14.660(2)
_cell_angle_alpha                90
_cell_angle_beta                 116.848(3)
_cell_angle_gamma                90
_cell_volume                     1912.21
loop_
_atom_site_label
_atom_site_type_symbol
_atom_site_fract_x
_atom_site_fract_y
_atom_site_fract_z
U1 U -0.24940(3) -0.05119(4) -0.46222(3)
O1 O -0.3728(5) -0.0620(8) -0.4941(6)
O2 O -0.1246(6) -0.0348(8) -0.4295(6)
O3 O 0.1983(6) 0.4105(7) -0.1166(6)
O4 O 0.2516(6) 0.1864(7) -0.0921(5)
C1 C 0.2000(8) 0.2824(11) -0.1441(7)
C2 C 0.1303(8) 0.2524(11) -0.2531(7)
N1 N 0.0697(7) 0.3570(9) -0.3172(6)
H1 H 0.0679 0.4441 -0.3003
C3 C 0.0154(8) 0.3011(12) -0.4084(8)
H2 H -0.0310 0.3504 -0.4637
N2 N 0.0364(6) 0.1659(9) -0.4095(6)
C4 C 0.1078(7) 0.1321(10) -0.3136(7)
C5 C 0.1408(8) -0.0178(11) -0.2979(8)
O5 O 0.2077(6) -0.0612(7) -0.2155(5)
O6 O 0.0975(5) -0.0958(7) -0.3753(5)
Cu1 Cu 0.0000 0.0000 -0.5000
O8 O -0.2688(6) -0.2085(7) -0.5923(5)
U1D U 0.24940(3) 0.05119(4) -0.53778(3)
U1G U 0.25060(3) 0.55119(4) 0.03778(3)
U1B U 0.24940(3) -0.05119(4) -0.03778(3)
U1E U -0.25060(3) -0.44881(4) -0.53778(3)
U1C U -0.25060(3) -0.55119(4) -1.03778(3)
U1F U -0.24940(3) 0.05119(4) -0.96222(3)
O1D O 0.3728(5) 0.0620(8) -0.5059(6)
O2D O 0.1246(6) 0.0348(8) -0.5705(6)
O3D O -0.1983(6) -0.4105(7) -0.8834(6)
O3G O -0.3017(6) 0.0895(7) -0.6166(6)
O3C O 0.3017(6) -0.0895(7) -0.3834(6)
O4D O -0.2516(6) -0.1864(7) -0.9079(5)
O4B O -0.2516(6) 0.1864(7) -0.4079(5)
O4F O 0.2516(6) -0.1864(7) -0.5921(5)
C1D C -0.2000(8) -0.2824(11) -0.8559(7)
C2D C -0.1303(8) -0.2524(11) -0.7469(7)
N1D N -0.0697(7) -0.3570(9) -0.6828(6)
H1D H -0.0679 -0.4441 -0.6997
C3D C -0.0154(8) -0.3011(12) -0.5916(8)
H2D H 0.0310 -0.3504 -0.5363
N2D N -0.0364(6) -0.1659(9) -0.5905(6)
C4D C -0.1078(7) -0.1321(10) -0.6864(7)
C5D C -0.1408(8) 0.0178(11) -0.7021(8)
O5D O -0.2077(6) 0.0612(7) -0.7845(5)
O5B O -0.2077(6) -0.0612(7) -0.2845(5)
O5F O 0.2077(6) 0.0612(7) -0.7155(5)
O6D O -0.0975(5) 0.0958(7) -0.6247(5)
O8E O -0.2312(6) -0.2915(7) -0.4077(5)
O8A O 0.2312(6) 0.2915(7) -0.5923(5)
O8D O 0.2688(6) 0.2085(7) -0.4077(5)
O7 O -0.0728(8) 0.6499(9) -0.2185(7)
loop_
_geom_bond_atom_site_label_1
_geom_bond_atom_site_label_2
_geom_bond_site_symmetry_1
_geom_bond_site_symmetry_2
U1 O1 1_555 1_555
O2 U1 1_555 1_555
O3 C1 1_555 1_555
O4 C1 1_555 1_555
C1 C2 1_555 1_555
C2 N1 1_555 1_555
N1 H1 1_555 1_555
C3 N1 1_555 1_555
H2 C3 1_555 1_555
N2 C3 1_555 1_555
C4 C2 1_555 1_555
C5 C4 1_555 1_555
O5 C5 1_555 1_555
O6 C5 1_555 1_555
Cu1 O2 1_555 1_555
O8 U1 1_555 1_555
U1D O1D 1_555 1_555
U1G O3 1_555 1_555
U1B O4 1_555 1_555
U1E O8 1_555 1_555
U1C O3D 1_555 1_555
U1F O4D 1_555 1_555
O2D Cu1 1_555 1_555
O3D C1D 1_555 1_555
O3G U1 1_555 1_555
O3C U1D 1_555 1_555
O4D C1D 1_555 1_555
O4B U1 1_555 1_555
O4F U1D 1_555 1_555
C1D C2D 1_555 1_555
C2D N1D 1_555 1_555
N1D H1D 1_555 1_555
C3D N1D 1_555 1_555
H2D C3D 1_555 1_555
N2D Cu1 1_555 1_555
C4D C2D 1_555 1_555
C5D C4D 1_555 1_555
O5D U1F 1_555 1_555
O5B U1 1_555 1_555
O5F U1D 1_555 1_555
O6D Cu1 1_555 1_555
O8E U1 1_555 1_555
O8A U1D 1_555 1_555
O8D U1D 1_555 1_555
N2 C4 1_555 1_555
N2 Cu1 1_555 1_555
O5 U1B 1_555 1_555
O6 Cu1 1_555 1_555
U1D O2D 1_555 1_555
U1E O8E 1_555 1_555
C3D N2D 1_555 1_555
N2D C4D 1_555 1_555
C5D O5D 1_555 1_555
C5D O6D 1_555 1_555

#END
