
#######################################################################
#
#                 Cambridge Crystallographic Data Centre
#                                CCDC 
#
#######################################################################
#
# If this CIF has been generated from an entry in the Cambridge 
# Structural Database, then it will include bibliographic, chemical, 
# crystal, experimental, refinement or atomic coordinate data resulting 
# from the CCDC's data processing and validation procedures.
#
#######################################################################

data_CETGEO
_symmetry_cell_setting           monoclinic
_symmetry_space_group_name_H-M   'P 21/n'
_symmetry_Int_Tables_number      14
_space_group_name_Hall           '-P 2yn'
loop_
_symmetry_equiv_pos_site_id
_symmetry_equiv_pos_as_xyz
1 x,y,z
2 1/2-x,1/2+y,1/2-z
3 -x,-y,-z
4 1/2+x,1/2-y,1/2+z
_cell_length_a                   5.3964(3)
_cell_length_b                   13.7766(7)
_cell_length_c                   20.9426(11)
_cell_angle_alpha                90
_cell_angle_beta                 94.2160(10)
_cell_angle_gamma                90
_cell_volume                     1552.74
loop_
_atom_site_label
_atom_site_type_symbol
_atom_site_fract_x
_atom_site_fract_y
_atom_site_fract_z
U1 U 0.96990(4) 0.122089(15) 0.112153(11)
Cu1 Cu 0.25878(13) 0.36320(5) 0.26205(3)
Cu2 Cu 0.5000 0.5000 0.0000
C1 C 0.6554(11) 0.2704(4) 0.2120(3)
C2 C 0.5640(11) 0.3415(4) 0.1635(3)
C3 C 0.8329(11) 0.3447(4) 0.0649(3)
C4 C 0.6267(11) 0.3715(4) 0.1043(3)
C5 C 1.3485(11) 0.0433(4) -0.1944(3)
C6 C 1.6801(11) 0.2250(4) -0.1049(3)
H1 H 1.8037 0.2721 -0.1007
C7 C 1.4394(11) 0.1088(4) -0.1420(3)
C8 C 0.3190(11) 0.4586(4) 0.1317(3)
H2 H 0.1931 0.5048 0.1303
C9 C 1.3640(11) 0.1314(4) -0.0826(3)
C10 C 1.1584(11) 0.0984(4) -0.0433(3)
N1 N 0.3693(9) 0.3976(3) 0.1806(2)
N2 N 0.4712(9) 0.4452(3) 0.0851(2)
N3 N 1.5194(9) 0.2054(3) -0.0609(2)
H3 H 1.5141 0.2345 -0.0247
N4 N 1.6372(9) 0.1673(3) -0.1553(2)
O1 O 0.8293(8) 0.2120(3) 0.20361(19)
O2 O 0.5456(8) 0.2731(3) 0.26473(18)
O3 O 1.1490(8) 0.1388(3) 0.00948(19)
O4 O 0.9982(7) 0.2852(3) 0.08737(19)
O5 O 1.2684(7) 0.1163(3) 0.15299(19)
O6 O 1.1617(8) -0.0100(3) -0.19072(18)
O7 O 1.0063(7) 0.0353(3) -0.06776(19)
O8 O 1.4689(7) 0.0489(3) -0.24465(19)
O9 O 0.8369(8) 0.3851(3) 0.01076(19)
O10 O 0.7174(7) 0.6080(3) 0.03815(19)
O12 O 0.6692(7) 0.1273(3) 0.07308(18)
U1B U 0.03010(4) 0.877911(15) -0.112153(11)
U1B_2 U 1.03010(4) -0.122089(15) -0.112153(11)
Cu1B Cu 0.74122(13) 0.63680(5) -0.26205(3)
Cu1C Cu 1.75878(13) 0.13680(5) -0.23795(3)
Cu1A Cu 0.24122(13) -0.13680(5) 0.23795(3)
C1B C 0.3446(11) 0.7296(4) -0.2120(3)
C2B C 0.4360(11) 0.6585(4) -0.1635(3)
C3B C 0.1671(11) 0.6553(4) -0.0649(3)
C4B C 0.3733(11) 0.6285(4) -0.1043(3)
C5B C 0.6515(11) -0.0433(4) 0.1944(3)
C6B C 0.3199(11) -0.2250(4) 0.1049(3)
H1B H 0.1963 -0.2721 0.1007
C7B C 0.5606(11) -0.1088(4) 0.1420(3)
C8B C 0.6810(11) 0.5414(4) -0.1317(3)
H2B H 0.8069 0.4952 -0.1303
C9B C 0.6360(11) -0.1314(4) 0.0826(3)
C10B C 0.8416(11) -0.0984(4) 0.0433(3)
N1B N 0.6307(9) 0.6024(3) -0.1806(2)
N2B N 0.5288(9) 0.5548(3) -0.0851(2)
N3B N 0.4806(9) -0.2054(3) 0.0609(2)
H3B H 0.4859 -0.2345 0.0247
N4B N 0.3628(9) -0.1673(3) 0.1553(2)
N4C N 0.1372(9) 0.3327(3) 0.3447(2)
N4A N 0.8628(9) 0.6673(3) -0.3447(2)
O1B O 0.1707(8) 0.7880(3) -0.20361(19)
O2B O 0.4544(8) 0.7269(3) -0.26473(18)
O3B O 0.8510(8) -0.1388(3) -0.00948(19)
O3B_2 O -0.1490(8) 0.8612(3) -0.00948(19)
O4B O 0.0018(7) 0.7148(3) -0.08737(19)
O5B O -0.2684(7) 0.8837(3) -0.15299(19)
O6B O 0.8383(8) 0.0100(3) 0.19072(18)
O6_2 O 0.1617(8) 0.9900(3) -0.19072(18)
O7B O 0.9937(7) -0.0353(3) 0.06776(19)
O7_2 O 0.0063(7) 1.0353(3) -0.06776(19)
O8B O 0.5311(7) -0.0489(3) 0.24465(19)
O8C O -0.0311(7) 0.4511(3) 0.25535(19)
O8A O 1.0311(7) 0.5489(3) -0.25535(19)
O9B O 0.1631(8) 0.6149(3) -0.01076(19)
O10B O 0.2826(7) 0.3920(3) -0.03815(19)
O12B O 0.3308(7) 0.8727(3) -0.07308(18)
O11 O 0.6478(8) 0.1051(3) 0.33670(19)
loop_
_geom_bond_atom_site_label_1
_geom_bond_atom_site_label_2
_geom_bond_site_symmetry_1
_geom_bond_site_symmetry_2
U1 O1 1_555 1_555
Cu1 N1 1_555 1_555
Cu2 N2 1_555 1_555
C1 C2 1_555 1_555
C2 C4 1_555 1_555
C3 C4 1_555 1_555
C4 N2 1_555 1_555
C5 C7 1_555 1_555
C6 H1 1_555 1_555
C7 C9 1_555 1_555
C8 H2 1_555 1_555
C9 C10 1_555 1_555
C10 O3 1_555 1_555
N1 C2 1_555 1_555
N2 C8 1_555 1_555
N3 C6 1_555 1_555
H3 N3 1_555 1_555
N4 C6 1_555 1_555
O1 C1 1_555 1_555
O2 Cu1 1_555 1_555
O3 U1 1_555 1_555
O4 U1 1_555 1_555
O5 U1 1_555 1_555
O6 C5 1_555 1_555
O7 C10 1_555 1_555
O8 C5 1_555 1_555
O9 Cu2 1_555 1_555
O10 Cu2 1_555 1_555
O12 U1 1_555 1_555
U1B O1B 1_555 1_555
U1B_2 O6 1_555 1_555
Cu1B N1B 1_555 1_555
Cu1C N4 1_555 1_555
Cu1A N4B 1_555 1_555
C1B C2B 1_555 1_555
C2B C4B 1_555 1_555
C3B C4B 1_555 1_555
C4B N2B 1_555 1_555
C5B C7B 1_555 1_555
C6B H1B 1_555 1_555
C7B C9B 1_555 1_555
C8B H2B 1_555 1_555
C9B C10B 1_555 1_555
C10B O3B 1_555 1_555
N1B C2B 1_555 1_555
N2B Cu2 1_555 1_555
N3B C6B 1_555 1_555
H3B N3B 1_555 1_555
N4B C6B 1_555 1_555
N4C Cu1 1_555 1_555
N4A Cu1B 1_555 1_555
O1B C1B 1_555 1_555
O2B Cu1B 1_555 1_555
O3B U1B_2 1_555 1_555
O3B_2 U1B 1_555 1_555
O4B U1B 1_555 1_555
O5B U1B 1_555 1_555
O6B U1 1_555 1_555
O6_2 U1B 1_555 1_555
O7B U1 1_555 1_555
O7_2 U1B 1_555 1_555
O8B Cu1A 1_555 1_555
O8C Cu1 1_555 1_555
O8A Cu1B 1_555 1_555
O9B Cu2 1_555 1_555
O10B Cu2 1_555 1_555
O12B U1B 1_555 1_555
C1 O2 1_555 1_555
C3 O4 1_555 1_555
C3 O9 1_555 1_555
C7 N4 1_555 1_555
C8 N1 1_555 1_555
C9 N3 1_555 1_555
O7 U1B_2 1_555 1_555
O8 Cu1C 1_555 1_555
C1B O2B 1_555 1_555
C3B O4B 1_555 1_555
C3B O9B 1_555 1_555
C5B O6B 1_555 1_555
C5B O8B 1_555 1_555
C7B N4B 1_555 1_555
C8B N1B 1_555 1_555
C8B N2B 1_555 1_555
C9B N3B 1_555 1_555
C10B O7B 1_555 1_555

#END
