
#######################################################################
#
#                 Cambridge Crystallographic Data Centre
#                                CCDC 
#
#######################################################################
#
# If this CIF has been generated from an entry in the Cambridge 
# Structural Database, then it will include bibliographic, chemical, 
# crystal, experimental, refinement or atomic coordinate data resulting 
# from the CCDC's data processing and validation procedures.
#
#######################################################################

data_CETJAN
_symmetry_cell_setting           tetragonal
_symmetry_space_group_name_H-M   'P 42/n'
_symmetry_Int_Tables_number      86
_space_group_name_Hall           '-P 4bc'
loop_
_symmetry_equiv_pos_site_id
_symmetry_equiv_pos_as_xyz
1 x,y,z
2 -y,1/2+x,1/2+z
3 1/2-x,1/2-y,z
4 1/2+y,-x,1/2+z
5 -x,-y,-z
6 y,1/2-x,1/2-z
7 1/2+x,1/2+y,-z
8 1/2-y,x,1/2-z
_cell_length_a                   13.451(2)
_cell_length_b                   13.451(2)
_cell_length_c                   25.498(6)
_cell_angle_alpha                90
_cell_angle_beta                 90
_cell_angle_gamma                90
_cell_volume                     4613.34
loop_
_atom_site_label
_atom_site_type_symbol
_atom_site_fract_x
_atom_site_fract_y
_atom_site_fract_z
Co1 Co 0.7500 0.7500 0.11176(4)
N1 N 0.8087(4) 0.6073(4) 0.1132(2)
C1 C 0.8735(6) 0.5530(6) 0.1068(3)
S1 S 0.9648(2) 0.4793(2) 0.1021(2)
O1 O 0.3471(4) 0.5400(4) 0.2568(2)
O2 O 0.3575(3) 0.6873(3) 0.29512(15)
O3 O 0.3169(3) 0.8528(4) 0.43244(15)
O4 O 0.4198(5) 0.9581(4) 0.3944(3)
N2 N 0.6367(3) 0.7059(4) 0.16962(18)
N3 N 0.2905(4) 1.1417(4) 0.5500(2)
C2 C 0.5967(5) 0.7696(5) 0.2046(2)
C3 C 0.5157(5) 0.7462(5) 0.2360(2)
C4 C 0.4734(5) 0.6507(5) 0.2305(2)
C5 C 0.5166(5) 0.5822(5) 0.1948(2)
C6 C 0.5973(5) 0.6158(5) 0.1653(2)
C7 C 0.3887(5) 0.6173(5) 0.2627(2)
C8 C 0.2745(4) 0.6596(5) 0.3280(2)
C9 C 0.2500 0.7500 0.3623(3)
C10 C 0.3395(4) 0.7722(5) 0.3958(2)
C11 C 0.3652(6) 0.9380(6) 0.4300(3)
C12 C 0.3394(5) 1.0058(5) 0.4724(3)
C13 C 0.2727(6) 0.9844(5) 0.5107(3)
C14 C 0.3777(7) 1.1002(7) 0.4735(3)
C15 C 0.2524(5) 1.0522(6) 0.5508(3)
C16 C 0.3562(6) 1.1660(5) 0.5133(3)
Co1A Co 0.2500 1.2500 0.61176(4)
Co1_2 Co -0.2500 0.7500 0.11176(4)
Co1A_2 Co 0.2500 0.2500 0.61176(4)
N1B N 0.6913(4) 0.8927(4) 0.1132(2)
C1B C 0.6265(6) 0.9470(6) 0.1068(3)
S1B S 0.5352(2) 1.0207(2) 0.1021(2)
O1B O 0.1529(4) 0.9600(4) 0.2568(2)
O2B O 0.1425(3) 0.8127(3) 0.29512(15)
O3B O 0.1831(3) 0.6472(4) 0.43244(15)
O4B O 0.0802(5) 0.5419(4) 0.3944(3)
N2B N -0.1367(3) 0.7941(4) 0.16962(18)
N2B_2 N 0.8633(3) 0.7941(4) 0.16962(18)
N3B N 0.2095(4) 0.3583(4) 0.5500(2)
N3A N 0.8583(4) 0.7905(4) 0.0500(2)
N3C N 0.6417(4) 0.7095(4) 0.0500(2)
C2B C -0.0967(5) 0.7304(5) 0.2046(2)
C3B C -0.0157(5) 0.7538(5) 0.2360(2)
C4B C 0.0266(5) 0.8493(5) 0.2305(2)
C5B C -0.0166(5) 0.9178(5) 0.1948(2)
C6B C -0.0973(5) 0.8842(5) 0.1653(2)
C7B C 0.1113(5) 0.8827(5) 0.2627(2)
C8B C 0.2255(4) 0.8404(5) 0.3280(2)
C10B C 0.1605(4) 0.7278(5) 0.3958(2)
C11B C 0.1348(6) 0.5620(6) 0.4300(3)
C12B C 0.1606(5) 0.4942(5) 0.4724(3)
C13B C 0.2273(6) 0.5156(5) 0.5107(3)
C14B C 0.1223(7) 0.3998(7) 0.4735(3)
C15B C 0.2476(5) 0.4478(6) 0.5508(3)
C16B C 0.1438(6) 0.3340(5) 0.5133(3)
loop_
_geom_bond_atom_site_label_1
_geom_bond_atom_site_label_2
_geom_bond_site_symmetry_1
_geom_bond_site_symmetry_2
Co1 N1 1_555 1_555
N1 C1 1_555 1_555
C1 S1 1_555 1_555
O1 C7 1_555 1_555
O2 C7 1_555 1_555
O3 C10 1_555 1_555
O4 C11 1_555 1_555
N2 Co1 1_555 1_555
N3 C15 1_555 1_555
C2 N2 1_555 1_555
C3 C2 1_555 1_555
C4 C3 1_555 1_555
C5 C4 1_555 1_555
C6 N2 1_555 1_555
C7 C4 1_555 1_555
C8 O2 1_555 1_555
C9 C8 1_555 1_555
C10 C9 1_555 1_555
C11 O3 1_555 1_555
C12 C11 1_555 1_555
C13 C12 1_555 1_555
C14 C12 1_555 1_555
C15 C13 1_555 1_555
C16 N3 1_555 1_555
Co1A N3 1_555 1_555
Co1_2 N2B 1_555 1_555
Co1A_2 N3B 1_555 1_555
N1B Co1 1_555 1_555
C1B N1B 1_555 1_555
S1B C1B 1_555 1_555
O1B C7B 1_555 1_555
O2B C7B 1_555 1_555
O3B C10B 1_555 1_555
O4B C11B 1_555 1_555
N2B C2B 1_555 1_555
N2B_2 Co1 1_555 1_555
N3B C15B 1_555 1_555
N3A Co1 1_555 1_555
N3C Co1 1_555 1_555
C2B C3B 1_555 1_555
C3B C4B 1_555 1_555
C4B C5B 1_555 1_555
C5B C6B 1_555 1_555
C6B N2B 1_555 1_555
C7B C4B 1_555 1_555
C8B C9 1_555 1_555
C10B C9 1_555 1_555
C11B O3B 1_555 1_555
C12B C11B 1_555 1_555
C13B C12B 1_555 1_555
C14B C12B 1_555 1_555
C15B C13B 1_555 1_555
C16B N3B 1_555 1_555
C5 C6 1_555 1_555
C14 C16 1_555 1_555
O2B C8B 1_555 1_555
C14B C16B 1_555 1_555

#END
