
#######################################################################
#
#                 Cambridge Crystallographic Data Centre
#                                CCDC 
#
#######################################################################
#
# If this CIF has been generated from an entry in the Cambridge 
# Structural Database, then it will include bibliographic, chemical, 
# crystal, experimental, refinement or atomic coordinate data resulting 
# from the CCDC's data processing and validation procedures.
#
#######################################################################

data_CETVAA
_symmetry_cell_setting           monoclinic
_symmetry_space_group_name_H-M   'C c'
_symmetry_Int_Tables_number      9
_space_group_name_Hall           'C -2yc'
loop_
_symmetry_equiv_pos_site_id
_symmetry_equiv_pos_as_xyz
1 x,y,z
2 x,-y,1/2+z
3 1/2+x,1/2+y,z
4 1/2+x,1/2-y,1/2+z
_cell_length_a                   14.2786(6)
_cell_length_b                   18.6712(7)
_cell_length_c                   11.8323(4)
_cell_angle_alpha                90
_cell_angle_beta                 92.933(2)
_cell_angle_gamma                90
_cell_volume                     3150.34
loop_
_atom_site_label
_atom_site_type_symbol
_atom_site_fract_x
_atom_site_fract_y
_atom_site_fract_z
Cu1 Cu 0.069665(18) 0.199113(13) 0.46983(2)
Cl1 Cl 0.17524(5) 0.29094(3) 0.50463(5)
Cl2 Cl 0.11538(4) 0.08009(3) 0.54406(5)
N1 N 0.11824(13) 0.18072(11) 0.31407(17)
N2 N 0.93367(13) -0.16430(10) -0.08524(16)
N3 N 0.52084(13) 0.27232(11) -0.87896(16)
N4 N 0.43075(13) 0.06751(10) -0.25357(15)
C1 C 0.15621(16) 0.23179(12) 0.24984(19)
H1 H 0.1545 0.2801 0.2749
C2 C 0.19756(16) 0.21703(13) 0.14908(19)
H2 H 0.2233 0.2548 0.1068
C3 C 0.20161(14) 0.14629(12) 0.10933(18)
C4 C 0.15823(18) 0.09423(13) 0.1743(2)
H3 H 0.1560 0.0458 0.1497
C5 C 0.11864(18) 0.11345(13) 0.2744(2)
H4 H 0.0903 0.0771 0.3172
C6 C 0.36862(15) 0.08742(12) -0.17021(17)
C7 C 0.34849(17) 0.03767(12) -0.0858(2)
H5 H 0.3736 -0.0094 -0.0886
C8 C 0.29210(17) 0.05669(12) 0.0017(2)
H6 H 0.2790 0.0221 0.0576
C9 C 0.25406(14) 0.12580(12) 0.00934(18)
C10 C 0.27269(15) 0.17434(12) -0.07713(18)
H7 H 0.2468 0.2212 -0.0750
C11 C 0.32823(16) 0.15570(11) -0.16605(18)
H8 H 0.3387 0.1894 -0.2241
C12 C 0.88609(16) -0.12895(13) -0.00712(19)
H9 H 0.9127 -0.1264 0.0680
C13 C 0.80050(16) -0.09615(14) -0.03094(19)
H10 H 0.7689 -0.0732 0.0278
C14 C 0.76018(15) -0.09666(12) -0.14150(19)
C15 C 0.80881(16) -0.13512(12) -0.22172(19)
H11 H 0.7836 -0.1393 -0.2973
C16 C 0.89399(16) -0.16709(12) -0.19032(19)
H12 H 0.9259 -0.1924 -0.2464
C17 C 0.50983(15) 0.02334(11) -0.22054(17)
C18 C 0.53432(15) -0.03301(12) -0.29067(19)
H13 H 0.4955 -0.0443 -0.3558
C19 C 0.61499(16) -0.07265(12) -0.26585(19)
H14 H 0.6313 -0.1107 -0.3143
C20 C 0.67268(15) -0.05670(12) -0.16927(19)
C21 C 0.64704(17) -0.00011(14) -0.09978(19)
H15 H 0.6855 0.0114 -0.0344
C22 C 0.56626(16) 0.03965(13) -0.1248(2)
H16 H 0.5497 0.0778 -0.0766
C23 C 0.45186(17) 0.22425(14) -0.87125(19)
H17 H 0.4181 0.2099 -0.9387
C24 C 0.42727(16) 0.19436(12) -0.7694(2)
H18 H 0.3776 0.1606 -0.7678
C25 C 0.47647(15) 0.21458(12) -0.66931(18)
C26 C 0.54634(17) 0.26585(13) -0.67817(19)
H19 H 0.5801 0.2824 -0.6120
C27 C 0.56697(17) 0.29288(13) -0.7827(2)
H20 H 0.6157 0.3273 -0.7866
C28 C 0.43961(15) 0.10786(11) -0.35434(17)
C29 C 0.52935(15) 0.12607(12) -0.38798(18)
H21 H 0.5832 0.1141 -0.3414
C30 C 0.53905(15) 0.16161(12) -0.48946(19)
H22 H 0.6000 0.1740 -0.5117
C31 C 0.46095(15) 0.17965(12) -0.55989(18)
C32 C 0.37169(15) 0.16247(12) -0.52488(18)
H23 H 0.3179 0.1753 -0.5710
C33 C 0.36059(15) 0.12658(12) -0.42274(19)
H24 H 0.2996 0.1149 -0.3999
Cu1A Cu 1.069665(18) -0.199113(13) -0.03017(2)
Cu1C Cu 0.569665(18) 0.300887(13) -1.03017(2)
N2A N -0.06633(13) 0.16430(10) 0.41476(16)
N3C N 0.02084(13) 0.22768(11) 0.62104(16)
O1 O 0.2995(3) 0.3850(2) 0.2256(2)
N5 N 0.4009(2) 0.41467(16) 0.3724(3)
C34 C 0.3296(2) 0.37895(19) 0.3227(3)
H25 H 0.2991 0.3451 0.3681
C35 C 0.4282(4) 0.4018(3) 0.4914(4)
H26 H 0.3854 0.3667 0.5227
H27 H 0.4250 0.4468 0.5337
H28 H 0.4924 0.3831 0.4976
C36 C 0.4522(4) 0.4650(2) 0.3083(5)
H29 H 0.4231 0.4689 0.2318
H30 H 0.5172 0.4486 0.3040
H31 H 0.4516 0.5119 0.3454
loop_
_geom_bond_atom_site_label_1
_geom_bond_atom_site_label_2
_geom_bond_site_symmetry_1
_geom_bond_site_symmetry_2
Cu1 Cl1 1_555 1_555
Cl2 Cu1 1_555 1_555
N1 Cu1 1_555 1_555
N2 C12 1_555 1_555
N3 C23 1_555 1_555
N4 C6 1_555 1_555
C1 N1 1_555 1_555
H1 C1 1_555 1_555
C2 C1 1_555 1_555
H2 C2 1_555 1_555
C3 C2 1_555 1_555
C4 C3 1_555 1_555
H3 C4 1_555 1_555
C5 N1 1_555 1_555
H4 C5 1_555 1_555
C6 C7 1_555 1_555
C7 H5 1_555 1_555
C8 C7 1_555 1_555
H6 C8 1_555 1_555
C9 C3 1_555 1_555
C10 C9 1_555 1_555
H7 C10 1_555 1_555
C11 C6 1_555 1_555
H8 C11 1_555 1_555
C12 H9 1_555 1_555
C13 C12 1_555 1_555
H10 C13 1_555 1_555
C14 C13 1_555 1_555
C15 C14 1_555 1_555
H11 C15 1_555 1_555
C16 N2 1_555 1_555
H12 C16 1_555 1_555
C17 N4 1_555 1_555
C18 C17 1_555 1_555
H13 C18 1_555 1_555
C19 C18 1_555 1_555
H14 C19 1_555 1_555
C20 C14 1_555 1_555
C21 C20 1_555 1_555
H15 C21 1_555 1_555
C22 C17 1_555 1_555
H16 C22 1_555 1_555
C23 H17 1_555 1_555
C24 C23 1_555 1_555
H18 C24 1_555 1_555
C25 C24 1_555 1_555
C26 C25 1_555 1_555
H19 C26 1_555 1_555
C27 N3 1_555 1_555
H20 C27 1_555 1_555
C28 N4 1_555 1_555
C29 C28 1_555 1_555
H21 C29 1_555 1_555
C30 C29 1_555 1_555
H22 C30 1_555 1_555
C31 C25 1_555 1_555
C32 C31 1_555 1_555
H23 C32 1_555 1_555
C33 C28 1_555 1_555
H24 C33 1_555 1_555
O1 C34 1_555 1_555
N5 C34 1_555 1_555
C34 H25 1_555 1_555
C35 N5 1_555 1_555
H26 C35 1_555 1_555
H27 C35 1_555 1_555
H28 C35 1_555 1_555
C36 N5 1_555 1_555
H29 C36 1_555 1_555
H30 C36 1_555 1_555
H31 C36 1_555 1_555
Cu1A N2 1_555 1_555
Cu1C N3 1_555 1_555
N2A Cu1 1_555 1_555
N3C Cu1 1_555 1_555
C4 C5 1_555 1_555
C8 C9 1_555 1_555
C10 C11 1_555 1_555
C15 C16 1_555 1_555
C19 C20 1_555 1_555
C21 C22 1_555 1_555
C26 C27 1_555 1_555
C30 C31 1_555 1_555
C32 C33 1_555 1_555

#END
