
#######################################################################
#
#                 Cambridge Crystallographic Data Centre
#                                CCDC 
#
#######################################################################
#
# If this CIF has been generated from an entry in the Cambridge 
# Structural Database, then it will include bibliographic, chemical, 
# crystal, experimental, refinement or atomic coordinate data resulting 
# from the CCDC's data processing and validation procedures.
#
#######################################################################

data_CEVDOW
_symmetry_cell_setting           orthorhombic
_symmetry_space_group_name_H-M   'P b c a'
_symmetry_Int_Tables_number      61
_space_group_name_Hall           '-P 2ac 2ab'
loop_
_symmetry_equiv_pos_site_id
_symmetry_equiv_pos_as_xyz
1 x,y,z
2 1/2-x,1/2+y,z
3 x,1/2-y,1/2+z
4 1/2-x,-y,1/2+z
5 -x,-y,-z
6 1/2+x,1/2-y,-z
7 -x,1/2+y,1/2-z
8 1/2+x,y,1/2-z
_cell_length_a                   12.554(2)
_cell_length_b                   18.288(2)
_cell_length_c                   15.342(2)
_cell_angle_alpha                90
_cell_angle_beta                 90
_cell_angle_gamma                90
_cell_volume                     3522.33
loop_
_atom_site_label
_atom_site_type_symbol
_atom_site_fract_x
_atom_site_fract_y
_atom_site_fract_z
Cd1 Cd 0.00000 0.00000 0.00000
Cd2 Cd 0.50000 0.00000 0.00000
Cd3 Cd 0.26545 0.13643 0.16856
Cl1 Cl 0.40155 0.02716 0.14537
Cl2 Cl 0.42241 0.22372 0.18622
Cl3 Cl 0.10958 0.04502 0.14197
Cl4 Cl 0.07515 0.10308 -0.09243
O1 O 0.25870 0.16610 0.02000
O2 O 0.13020 0.22510 0.17960
O5 O 0.42980 0.10190 -0.06500
N1 N 0.25140 0.12360 0.32610
N2 N 0.15120 0.07470 0.44970
N3 N 0.34750 0.07550 0.45280
N4 N 0.24830 0.19070 0.46460
C1 C 0.15530 0.08320 0.35430
C2 C 0.34750 0.08420 0.35730
C3 C 0.24970 0.19770 0.36940
C4 C 0.24940 0.03620 0.47840
C5 C 0.34440 0.15030 0.49260
C6 C 0.15120 0.14960 0.48960
H1 H 0.24000 0.21000 0.01500
H2 H 0.20500 0.14500 0.00000
H3 H 0.15000 0.27000 0.19000
H4 H 0.07000 0.22000 0.20000
H9 H 0.42500 0.10000 -0.12500
H10 H 0.38000 0.12500 -0.04500
H11 H 0.15590 0.03370 0.32680
H12 H 0.09070 0.11060 0.33460
H13 H 0.41220 0.11240 0.33970
H14 H 0.34940 0.03460 0.32970
H15 H 0.18460 0.22480 0.35020
H16 H 0.31470 0.22560 0.35160
H17 H 0.25040 -0.01360 0.45140
H18 H 0.24790 0.03150 0.54330
H19 H 0.40910 0.17810 0.47400
H20 H 0.34380 0.14560 0.55750
H21 H 0.14870 0.14480 0.55450
H22 H 0.08700 0.17690 0.46890
Cl3D Cl -0.10958 -0.04502 -0.14197
Cl4D Cl -0.07515 -0.10308 0.09243
N3G N -0.15250 0.07550 0.04720
Cd3D Cd -0.26545 -0.13643 -0.16856
Cl1D Cl 0.59845 -0.02716 -0.14537
O5D O 0.57020 -0.10190 0.06500
H9D H 0.57500 -0.10000 0.12500
H10D H 0.62000 -0.12500 0.04500
N2G N 0.65120 0.07470 0.05030
Cd3D_2 Cd 0.73455 -0.13643 -0.16856
N2C N 0.34880 -0.07470 -0.05030
N3C N 0.15250 -0.07550 -0.04720
Cd2C Cd 0.00000 0.00000 0.50000
Cd1C Cd 0.50000 0.00000 0.50000
Cl2D Cl 0.57759 -0.22372 -0.18622
Cl3D_2 Cl 0.89042 -0.04502 -0.14197
O1D O 0.74130 -0.16610 -0.02000
O2D O 0.86980 -0.22510 -0.17960
N1D N 0.74860 -0.12360 -0.32610
C1D C 0.84470 -0.08320 -0.35430
C2D C 0.65250 -0.08420 -0.35730
C3D C 0.75030 -0.19770 -0.36940
N2D N 0.84880 -0.07470 -0.44970
H11D H 0.84410 -0.03370 -0.32680
H12D H 0.90930 -0.11060 -0.33460
N3D N 0.65250 -0.07550 -0.45280
H13D H 0.58780 -0.11240 -0.33970
H14D H 0.65060 -0.03460 -0.32970
N4D N 0.75170 -0.19070 -0.46460
H15D H 0.81540 -0.22480 -0.35020
H16D H 0.68530 -0.22560 -0.35160
Cd2C_2 Cd 1.00000 0.00000 -0.50000
C4D C 0.75060 -0.03620 -0.47840
C6D C 0.84880 -0.14960 -0.48960
Cd1C_2 Cd 0.50000 0.00000 -0.50000
C5D C 0.65560 -0.15030 -0.49260
H17D H 0.74960 0.01360 -0.45140
H18D H 0.75210 -0.03150 -0.54330
H21D H 0.85130 -0.14480 -0.55450
H22D H 0.91300 -0.17690 -0.46890
H19D H 0.59090 -0.17810 -0.47400
H20D H 0.65620 -0.14560 -0.55750
H3D H 0.85000 -0.27000 -0.19000
H4D H 0.93000 -0.22000 -0.20000
H1D H 0.76000 -0.21000 -0.01500
H2D H 0.79500 -0.14500 0.00000
O3 O 0.19110 0.36250 0.21720
H5 H 0.19000 0.36000 0.17200
H6 H 0.25500 0.39500 0.21500
O4 O 0.41200 0.38930 0.25730
H7 H 0.34500 0.37500 0.25500
H8 H 0.44000 0.34000 0.26000
loop_
_geom_bond_atom_site_label_1
_geom_bond_atom_site_label_2
_geom_bond_site_symmetry_1
_geom_bond_site_symmetry_2
Cd1 Cl3 1_555 1_555
Cd2 Cl1 1_555 1_555
Cd3 Cl1 1_555 1_555
Cl2 Cd3 1_555 1_555
Cl3 Cd3 1_555 1_555
Cl4 Cd1 1_555 1_555
O1 Cd3 1_555 1_555
O2 Cd3 1_555 1_555
O3 H5 1_555 1_555
O4 H7 1_555 1_555
O5 Cd2 1_555 1_555
N1 Cd3 1_555 1_555
N2 C1 1_555 1_555
N3 C2 1_555 1_555
N4 C3 1_555 1_555
C1 N1 1_555 1_555
C2 N1 1_555 1_555
C3 N1 1_555 1_555
C4 N2 1_555 1_555
C5 N3 1_555 1_555
C6 N2 1_555 1_555
H1 O1 1_555 1_555
H2 O1 1_555 1_555
H3 O2 1_555 1_555
H4 O2 1_555 1_555
H6 O3 1_555 1_555
H8 O4 1_555 1_555
H9 O5 1_555 1_555
H10 O5 1_555 1_555
H11 C1 1_555 1_555
H12 C1 1_555 1_555
H13 C2 1_555 1_555
H14 C2 1_555 1_555
H15 C3 1_555 1_555
H16 C3 1_555 1_555
H17 C4 1_555 1_555
H18 C4 1_555 1_555
H19 C5 1_555 1_555
H20 C5 1_555 1_555
H21 C6 1_555 1_555
H22 C6 1_555 1_555
Cl3D Cd1 1_555 1_555
Cl4D Cd1 1_555 1_555
N3G Cd1 1_555 1_555
Cd3D Cl3D 1_555 1_555
Cl1D Cd2 1_555 1_555
O5D Cd2 1_555 1_555
H9D O5D 1_555 1_555
H10D O5D 1_555 1_555
N2G Cd2 1_555 1_555
Cd3D_2 Cl1D 1_555 1_555
N2C Cd2 1_555 1_555
N3C Cd1 1_555 1_555
Cd2C N2 1_555 1_555
Cd1C N3 1_555 1_555
Cl2D Cd3D_2 1_555 1_555
Cl3D_2 Cd3D_2 1_555 1_555
O1D Cd3D_2 1_555 1_555
O2D Cd3D_2 1_555 1_555
N1D Cd3D_2 1_555 1_555
C1D N1D 1_555 1_555
C2D N1D 1_555 1_555
C3D N1D 1_555 1_555
N2D C1D 1_555 1_555
H11D C1D 1_555 1_555
H12D C1D 1_555 1_555
N3D C2D 1_555 1_555
H13D C2D 1_555 1_555
H14D C2D 1_555 1_555
N4D C3D 1_555 1_555
H15D C3D 1_555 1_555
H16D C3D 1_555 1_555
Cd2C_2 N2D 1_555 1_555
C4D N2D 1_555 1_555
C6D N2D 1_555 1_555
Cd1C_2 N3D 1_555 1_555
C5D N3D 1_555 1_555
H17D C4D 1_555 1_555
H18D C4D 1_555 1_555
H21D C6D 1_555 1_555
H22D C6D 1_555 1_555
H19D C5D 1_555 1_555
H20D C5D 1_555 1_555
H3D O2D 1_555 1_555
H4D O2D 1_555 1_555
H1D O1D 1_555 1_555
H2D O1D 1_555 1_555
N3 C4 1_555 1_555
N4 C5 1_555 1_555
N4 C6 1_555 1_555
N3D C4D 1_555 1_555
N4D C5D 1_555 1_555
N4D C6D 1_555 1_555

#END
