
#######################################################################
#
#                 Cambridge Crystallographic Data Centre
#                                CCDC 
#
#######################################################################
#
# If this CIF has been generated from an entry in the Cambridge 
# Structural Database, then it will include bibliographic, chemical, 
# crystal, experimental, refinement or atomic coordinate data resulting 
# from the CCDC's data processing and validation procedures.
#
#######################################################################

data_CEVKAP
_symmetry_cell_setting           monoclinic
_symmetry_space_group_name_H-M   'P 1 1 21/m'
_symmetry_Int_Tables_number      11
_space_group_name_Hall           '-P 2c'
loop_
_symmetry_equiv_pos_site_id
_symmetry_equiv_pos_as_xyz
1 x,y,z
2 -x,-y,1/2+z
3 -x,-y,-z
4 x,y,1/2-z
_cell_length_a                   6.398(1)
_cell_length_b                   3.6945(9)
_cell_length_c                   12.789(2)
_cell_angle_alpha                90
_cell_angle_beta                 90
_cell_angle_gamma                100.48(2)
_cell_volume                     297.256
loop_
_atom_site_label
_atom_site_type_symbol
_atom_site_fract_x
_atom_site_fract_y
_atom_site_fract_z
Cu1 Cu 0.44550 0.12840 0.25000
Cl1 Cl 0.21490 0.54070 0.25000
N1 N 0.63210 0.12820 0.12640
C1 C 0.75530 0.07830 0.06800
C2 C 0.90310 0.00950 -0.01150
Cl1_2 Cl 0.21490 -0.45930 0.25000
N1C N 0.63210 0.12820 0.37360
Cu1_2 Cu 0.44550 1.12840 0.25000
C2B C 1.09690 -0.00950 0.01150
C1C C 0.75530 0.07830 0.43200
C1B C 1.24470 -0.07830 -0.06800
C2C C 0.90310 0.00950 0.51150
N1B N 1.36790 -0.12820 -0.12640
C2A C 1.09690 -0.00950 0.48850
Cu1A Cu 1.55450 -0.12840 -0.25000
C1A C 1.24470 -0.07830 0.56800
Cl1A Cl 1.78510 -0.54070 -0.25000
Cl1A_2 Cl 1.78510 0.45930 -0.25000
N1A N 1.36790 -0.12820 -0.37360
N1A_2 N 1.36790 -0.12820 0.62640
Cu1A_2 Cu 1.55450 -1.12840 -0.25000
Cu1A_3 Cu 1.55450 -0.12840 0.75000
loop_
_geom_bond_atom_site_label_1
_geom_bond_atom_site_label_2
_geom_bond_site_symmetry_1
_geom_bond_site_symmetry_2
Cu1 Cl1 1_555 1_555
Cl1 Cu1_2 1_555 1_555
N1 Cu1 1_555 1_555
C1 N1 1_555 1_555
C2 C1 1_555 1_555
Cl1_2 Cu1 1_555 1_555
N1C Cu1 1_555 1_555
C2B C2 1_555 1_555
C1C N1C 1_555 1_555
C1B C2B 1_555 1_555
C2C C1C 1_555 1_555
N1B C1B 1_555 1_555
C2A C2C 1_555 1_555
Cu1A N1B 1_555 1_555
C1A C2A 1_555 1_555
Cl1A Cu1A 1_555 1_555
Cl1A_2 Cu1A 1_555 1_555
N1A Cu1A 1_555 1_555
N1A_2 C1A 1_555 1_555
Cu1A_2 Cl1A 1_555 1_555
Cu1A_3 N1A_2 1_555 1_555

#END
