
#######################################################################
#
#                 Cambridge Crystallographic Data Centre
#                                CCDC 
#
#######################################################################
#
# If this CIF has been generated from an entry in the Cambridge 
# Structural Database, then it will include bibliographic, chemical, 
# crystal, experimental, refinement or atomic coordinate data resulting 
# from the CCDC's data processing and validation procedures.
#
#######################################################################

data_CEVLAR
_symmetry_cell_setting           triclinic
_symmetry_space_group_name_H-M   'P -1'
_symmetry_Int_Tables_number      2
_space_group_name_Hall           '-P 1'
loop_
_symmetry_equiv_pos_site_id
_symmetry_equiv_pos_as_xyz
1 x,y,z
2 -x,-y,-z
_cell_length_a                   10.159(2)
_cell_length_b                   12.008(2)
_cell_length_c                   14.168(3)
_cell_angle_alpha                72.34(3)
_cell_angle_beta                 80.93(3)
_cell_angle_gamma                70.56(3)
_cell_volume                     1549.91
loop_
_atom_site_label
_atom_site_type_symbol
_atom_site_fract_x
_atom_site_fract_y
_atom_site_fract_z
Cu1 Cu 0.73819(7) 0.60360(6) 0.51075(5)
Cu2 Cu -0.02432(7) 1.04733(6) 0.14834(5)
Cl1 Cl 0.60630(17) 0.55822(14) 0.64927(11)
Cl2 Cl -0.21372(16) 0.98845(14) 0.20696(12)
O1 O 0.7872(4) 0.4499(3) 0.4666(3)
O2 O 0.1166(4) 0.9169(3) 0.2424(3)
N1 N 0.7635(5) 0.7592(4) 0.5250(3)
N2 N 0.8968(4) 0.6183(4) 0.4158(3)
N3 N 0.9475(4) 0.5353(4) 0.3605(3)
N4 N 0.9452(5) 0.1915(4) 0.2300(4)
N5 N -0.0945(5) 1.1667(4) 0.0169(3)
N6 N 0.1513(4) 1.0599(4) 0.0770(3)
N7 N 0.2745(5) 0.9901(4) 0.1226(3)
N8 N 0.5726(4) 0.7030(4) 0.4008(3)
C1 C 0.6863(8) 0.8314(6) 0.5820(5)
H1 H 0.6162 0.8070 0.6256
C2 C 0.7070(9) 0.9410(7) 0.5785(6)
H2 H 0.6506 0.9904 0.6178
C3 C 0.8131(8) 0.9752(6) 0.5153(6)
H3 H 0.8310 1.0470 0.5132
C4 C 0.8919(7) 0.9035(5) 0.4555(5)
H4 H 0.9615 0.9273 0.4109
C5 C 0.8663(6) 0.7945(5) 0.4627(4)
C6 C 0.9387(6) 0.7120(5) 0.4005(4)
H5 H 1.0100 0.7266 0.3532
C7 C 0.8772(6) 0.4544(4) 0.3935(4)
C8 C 0.8312(6) 0.2199(5) 0.2873(5)
H6 H 0.7626 0.1834 0.2901
C9 C 0.8083(7) 0.3006(5) 0.3433(5)
H7 H 0.7280 0.3150 0.3853
C10 C 0.9066(5) 0.3607(4) 0.3365(4)
C11 C 1.0233(6) 0.3320(5) 0.2764(4)
H8 H 1.0926 0.3688 0.2708
C12 C 1.0396(6) 0.2486(5) 0.2237(5)
H9 H 1.1198 0.2315 0.1820
C13 C -0.2247(6) 1.2190(5) -0.0110(5)
H10 H -0.2967 1.1951 0.0305
C14 C -0.2568(7) 1.3087(6) -0.1007(5)
H11 H -0.3489 1.3435 -0.1187
C15 C -0.1521(7) 1.3447(6) -0.1615(5)
H12 H -0.1716 1.4051 -0.2212
C16 C -0.0170(7) 1.2901(5) -0.1330(4)
H13 H 0.0561 1.3133 -0.1736
C17 C 0.0098(6) 1.2013(5) -0.0447(4)
C18 C 0.1481(6) 1.1359(5) -0.0091(4)
H14 H 0.2287 1.1482 -0.0460
C19 C 0.2403(6) 0.9202(5) 0.2098(4)
C20 C 0.4475(6) 0.6864(5) 0.4185(4)
H15 H 0.4332 0.6262 0.4749
C21 C 0.3369(6) 0.7526(5) 0.3587(4)
H16 H 0.2505 0.7384 0.3751
C22 C 0.3586(5) 0.8403(4) 0.2738(4)
C23 C 0.4898(6) 0.8571(5) 0.2546(4)
H17 H 0.5085 0.9151 0.1980
C24 C 0.5917(6) 0.7877(5) 0.3196(4)
H18 H 0.6788 0.8007 0.3059
Cu2_2 Cu 0.97568(7) 0.04733(6) 0.14834(5)
N4_2 N -0.0548(5) 1.1915(4) 0.2300(4)
O3 O 0.4708(14) 1.1243(12) -0.0003(11)
O4 O 0.440(3) 1.193(3) 0.155(2)
O5 O 0.334(4) 1.409(3) -0.100(2)
O6 O 0.456(3) 1.584(3) -0.128(2)
O7 O 0.167(3) 0.463(2) -0.023(2)
O8? O 0.373(3) 0.350(3) 0.133(2)
loop_
_geom_bond_atom_site_label_1
_geom_bond_atom_site_label_2
_geom_bond_site_symmetry_1
_geom_bond_site_symmetry_2
Cu1 Cl1 1_555 1_555
Cu2 Cl2 1_555 1_555
O1 Cu1 1_555 1_555
O2 Cu2 1_555 1_555
N1 Cu1 1_555 1_555
N2 Cu1 1_555 1_555
N3 N2 1_555 1_555
N4 C8 1_555 1_555
N5 Cu2 1_555 1_555
N6 Cu2 1_555 1_555
N7 N6 1_555 1_555
N8 Cu1 1_555 1_555
C1 N1 1_555 1_555
H1 C1 1_555 1_555
C2 C1 1_555 1_555
H2 C2 1_555 1_555
C3 C2 1_555 1_555
H3 C3 1_555 1_555
C4 C3 1_555 1_555
H4 C4 1_555 1_555
C5 N1 1_555 1_555
C6 N2 1_555 1_555
H5 C6 1_555 1_555
C7 O1 1_555 1_555
C8 H6 1_555 1_555
C9 C8 1_555 1_555
H7 C9 1_555 1_555
C10 C7 1_555 1_555
C11 C10 1_555 1_555
H8 C11 1_555 1_555
C12 N4 1_555 1_555
H9 C12 1_555 1_555
C13 N5 1_555 1_555
H10 C13 1_555 1_555
C14 C13 1_555 1_555
H11 C14 1_555 1_555
C15 C14 1_555 1_555
H12 C15 1_555 1_555
C16 C15 1_555 1_555
H13 C16 1_555 1_555
C17 N5 1_555 1_555
C18 N6 1_555 1_555
H14 C18 1_555 1_555
C19 O2 1_555 1_555
C20 N8 1_555 1_555
H15 C20 1_555 1_555
C21 C20 1_555 1_555
H16 C21 1_555 1_555
C22 C19 1_555 1_555
C23 C22 1_555 1_555
H17 C23 1_555 1_555
C24 N8 1_555 1_555
H18 C24 1_555 1_555
Cu2_2 N4 1_555 1_555
N4_2 Cu2 1_555 1_555
N3 C7 1_555 1_555
N7 C19 1_555 1_555
C4 C5 1_555 1_555
C5 C6 1_555 1_555
C9 C10 1_555 1_555
C11 C12 1_555 1_555
C16 C17 1_555 1_555
C17 C18 1_555 1_555
C21 C22 1_555 1_555
C23 C24 1_555 1_555

#END
