
#######################################################################
#
#                 Cambridge Crystallographic Data Centre
#                                CCDC 
#
#######################################################################
#
# If this CIF has been generated from an entry in the Cambridge 
# Structural Database, then it will include bibliographic, chemical, 
# crystal, experimental, refinement or atomic coordinate data resulting 
# from the CCDC's data processing and validation procedures.
#
#######################################################################

data_CEVPID
_symmetry_cell_setting           monoclinic
_symmetry_space_group_name_H-M   'P 21/c'
_symmetry_Int_Tables_number      14
_space_group_name_Hall           '-P 2ybc'
loop_
_symmetry_equiv_pos_site_id
_symmetry_equiv_pos_as_xyz
1 x,y,z
2 -x,1/2+y,1/2-z
3 -x,-y,-z
4 x,1/2-y,1/2+z
_cell_length_a                   8.0993(11)
_cell_length_b                   10.4770(14)
_cell_length_c                   9.3196(11)
_cell_angle_alpha                90
_cell_angle_beta                 91.474(5)
_cell_angle_gamma                90
_cell_volume                     790.566
loop_
_atom_site_label
_atom_site_type_symbol
_atom_site_fract_x
_atom_site_fract_y
_atom_site_fract_z
Cu1 Cu -0.14061(4) -0.08580(3) -0.11514(3)
N1 N -0.0215(3) 0.07173(19) -0.1822(2)
N2 N 0.1011(3) 0.1192(2) -0.0979(2)
N3 N 0.1572(3) 0.2258(2) -0.1523(2)
N4 N 0.0710(3) 0.2506(2) -0.2747(2)
N5 N -0.6169(3) 0.0840(2) -0.8284(3)
C1 C -0.0378(3) 0.1551(2) -0.2905(2)
C2 C -0.1587(3) 0.1423(2) -0.4104(2)
C3 C -0.1958(3) 0.0218(3) -0.4659(3)
H1 H -0.1439 -0.0500 -0.4270
C4 C -0.3089(3) 0.0082(3) -0.5782(3)
H2 H -0.3318 -0.0722 -0.6161
C5 C -0.3883(3) 0.1152(3) -0.6342(3)
C6 C -0.3531(3) 0.2367(3) -0.5794(3)
H3 H -0.4069 0.3081 -0.6170
C7 C -0.2370(3) 0.2495(3) -0.4683(3)
H4 H -0.2114 0.3301 -0.4324
C8 C -0.5140(3) 0.0995(3) -0.7454(3)
Cu1B Cu 0.14061(4) 0.08580(3) 0.11514(3)
Cu1A Cu 0.14061(4) 0.41420(3) -0.38486(3)
Cu1B_2 Cu -0.85939(4) 0.08580(3) -0.88486(3)
N2B N -0.1011(3) -0.1192(2) 0.0979(2)
N4A N -0.0710(3) -0.2494(2) -0.2253(2)
N5B N -0.3831(3) -0.0840(2) -0.1716(3)
loop_
_geom_bond_atom_site_label_1
_geom_bond_atom_site_label_2
_geom_bond_site_symmetry_1
_geom_bond_site_symmetry_2
Cu1 N1 1_555 1_555
N1 N2 1_555 1_555
N2 N3 1_555 1_555
N3 N4 1_555 1_555
N4 C1 1_555 1_555
N5 C8 1_555 1_555
C1 N1 1_555 1_555
C2 C1 1_555 1_555
C3 C2 1_555 1_555
H1 C3 1_555 1_555
C4 C3 1_555 1_555
H2 C4 1_555 1_555
C5 C4 1_555 1_555
C6 C5 1_555 1_555
H3 C6 1_555 1_555
C7 C2 1_555 1_555
H4 C7 1_555 1_555
C8 C5 1_555 1_555
Cu1B N2 1_555 1_555
Cu1A N4 1_555 1_555
Cu1B_2 N5 1_555 1_555
N2B Cu1 1_555 1_555
N4A Cu1 1_555 1_555
N5B Cu1 1_555 1_555
C6 C7 1_555 1_555

#END
