
#######################################################################
#
#                 Cambridge Crystallographic Data Centre
#                                CCDC 
#
#######################################################################
#
# If this CIF has been generated from an entry in the Cambridge 
# Structural Database, then it will include bibliographic, chemical, 
# crystal, experimental, refinement or atomic coordinate data resulting 
# from the CCDC's data processing and validation procedures.
#
#######################################################################

data_CEVQEA
_symmetry_cell_setting           orthorhombic
_symmetry_space_group_name_H-M   'P 21 21 21'
_symmetry_Int_Tables_number      19
_space_group_name_Hall           'P 2ac 2ab'
loop_
_symmetry_equiv_pos_site_id
_symmetry_equiv_pos_as_xyz
1 x,y,z
2 1/2-x,-y,1/2+z
3 -x,1/2+y,1/2-z
4 1/2+x,1/2-y,-z
_cell_length_a                   6.7230(6)
_cell_length_b                   7.0925(5)
_cell_length_c                   19.1694(17)
_cell_angle_alpha                90
_cell_angle_beta                 90
_cell_angle_gamma                90
_cell_volume                     914.052
loop_
_atom_site_label
_atom_site_type_symbol
_atom_site_fract_x
_atom_site_fract_y
_atom_site_fract_z
C1 C 0.3020(13) -0.5821(13) -0.0101(5)
H1 H 0.3783 -0.6597 -0.0387
C2 C 0.0792(13) -0.3729(14) 0.0777(5)
H2 H -0.0011 -0.3041 0.1079
C3 C 0.0293(13) -0.3778(13) 0.0081(5)
H3 H -0.0822 -0.3134 -0.0079
C4 C 0.3434(14) -0.5689(13) 0.0599(5)
H4 H 0.4501 -0.6372 0.0776
C5 C 0.1466(11) -0.4794(10) -0.0379(4)
N1 N 0.2364(10) -0.4617(10) 0.1039(4)
C6 C 0.1057(12) -0.4634(11) -0.1145(4)
O1 O 0.0338(9) -0.3078(8) -0.1339(3)
O2 O 0.1451(8) -0.6013(8) -0.1553(3)
Gd1 Gd 0.38282(5) -0.35841(5) 0.224290(18)
Cr1 Cr 0.82942(16) -0.37871(15) 0.27841(7)
O3 O 0.6845(7) -0.1891(7) 0.2760(3)
O4 O 0.6798(8) -0.5423(8) 0.2397(3)
O5 O 1.0370(7) -0.3490(9) 0.2359(3)
O6 O 0.8742(10) -0.4402(9) 0.3566(3)
O1C O 0.5338(9) -0.1922(8) 0.1339(3)
O2A O 0.3549(8) -0.3987(8) 0.3447(3)
Gd1C Gd -0.11718(5) -0.14159(5) -0.224290(18)
Gd1A Gd 0.11718(5) -0.64159(5) -0.275710(18)
Gd1B Gd 0.61718(5) 0.14159(5) 0.275710(18)
Gd1B_2 Gd 0.61718(5) -0.85841(5) 0.275710(18)
Gd1_2 Gd 1.38282(5) -0.35841(5) 0.224290(18)
O3B O 0.3155(7) -0.6891(7) 0.2240(3)
O4B O 0.3202(8) -0.0423(8) 0.2603(3)
O5_2 O 0.0370(7) -0.3490(9) 0.2359(3)
loop_
_geom_bond_atom_site_label_1
_geom_bond_atom_site_label_2
_geom_bond_site_symmetry_1
_geom_bond_site_symmetry_2
C1 H1 1_555 1_555
C2 H2 1_555 1_555
C3 C2 1_555 1_555
H3 C3 1_555 1_555
C4 C1 1_555 1_555
H4 C4 1_555 1_555
C5 C1 1_555 1_555
N1 C2 1_555 1_555
C6 C5 1_555 1_555
O1 C6 1_555 1_555
O2 C6 1_555 1_555
Gd1 N1 1_555 1_555
Cr1 O3 1_555 1_555
O3 Gd1 1_555 1_555
O4 Gd1 1_555 1_555
O5 Cr1 1_555 1_555
O6 Cr1 1_555 1_555
O1C Gd1 1_555 1_555
O2A Gd1 1_555 1_555
Gd1C O1 1_555 1_555
Gd1A O2 1_555 1_555
Gd1B O3 1_555 1_555
Gd1B_2 O4 1_555 1_555
Gd1_2 O5 1_555 1_555
O3B Gd1 1_555 1_555
O4B Gd1 1_555 1_555
O5_2 Gd1 1_555 1_555
C3 C5 1_555 1_555
C4 N1 1_555 1_555
Cr1 O4 1_555 1_555
Gd1B O4B 1_555 1_555
Gd1B_2 O3B 1_555 1_555

#END
