
#######################################################################
#
#                 Cambridge Crystallographic Data Centre
#                                CCDC 
#
#######################################################################
#
# If this CIF has been generated from an entry in the Cambridge 
# Structural Database, then it will include bibliographic, chemical, 
# crystal, experimental, refinement or atomic coordinate data resulting 
# from the CCDC's data processing and validation procedures.
#
#######################################################################

data_CEVREB
_symmetry_cell_setting           monoclinic
_symmetry_space_group_name_H-M   'C 2/c'
_symmetry_Int_Tables_number      15
_space_group_name_Hall           '-C 2yn'
loop_
_symmetry_equiv_pos_site_id
_symmetry_equiv_pos_as_xyz
1 x,y,z
2 1/2+x,1/2+y,z
3 -x,y,1/2-z
4 1/2-x,1/2+y,1/2-z
5 -x,-y,-z
6 1/2-x,1/2-y,-z
7 x,-y,1/2+z
8 1/2+x,1/2-y,1/2+z
_cell_length_a                   20.1391(4)
_cell_length_b                   4.95160(10)
_cell_length_c                   15.0761(3)
_cell_angle_alpha                90
_cell_angle_beta                 124.9240(10)
_cell_angle_gamma                90
_cell_volume                     1232.66
loop_
_atom_site_label
_atom_site_type_symbol
_atom_site_fract_x
_atom_site_fract_y
_atom_site_fract_z
Cu1 Cu 1.0000 0.0000 0.5000
C1 C 0.91957(14) 0.0504(4) 0.26483(18)
H1 H 0.9533 -0.0952 0.2728
C2 C 0.86747(14) 0.1641(5) 0.16356(17)
H2 H 0.8657 0.0985 0.1031
C3 C 0.81777(14) 0.3755(5) 0.15182(18)
H3 H 0.7820 0.4581 0.0832
C4 C 0.82100(14) 0.4647(4) 0.24141(19)
H4 H 0.7870 0.6071 0.2354
C5 C 0.87509(12) 0.3406(4) 0.33984(17)
N1 N 0.92394(11) 0.1395(4) 0.35219(14)
O1 O 0.95794(9) 0.2953(3) 0.54611(12)
O2 O 0.89060(10) 0.7285(3) 0.46714(13)
O3 O 0.81258(16) 0.3398(6) 0.4494(2)
S1 S 0.88135(3) 0.43615(11) 0.46016(4)
Cu1_2 Cu 1.0000 1.0000 0.5000
Cu1_3 Cu 1.0000 -1.0000 0.5000
C1D C 1.08043(14) -0.0504(4) 0.73517(18)
H1D H 1.0467 0.0952 0.7272
C2D C 1.13253(14) -0.1641(5) 0.83644(17)
H2D H 1.1343 -0.0985 0.8969
C3D C 1.18223(14) -0.3755(5) 0.84818(18)
H3D H 1.2180 -0.4581 0.9168
C4D C 1.17900(14) -0.4647(4) 0.75859(19)
H4D H 1.2130 -0.6071 0.7646
C5D C 1.12491(12) -0.3406(4) 0.66016(17)
N1D N 1.07606(11) -0.1395(4) 0.64781(14)
O1D O 1.04206(9) -0.2953(3) 0.45389(12)
O2D O 1.10940(10) -0.7285(3) 0.53286(13)
O2_2 O 0.89060(10) -0.2715(3) 0.46714(13)
O2D_2 O 1.10940(10) 0.2715(3) 0.53286(13)
O3D O 1.18742(16) -0.3398(6) 0.5506(2)
S1D S 1.11865(3) -0.43615(11) 0.53984(4)
loop_
_geom_bond_atom_site_label_1
_geom_bond_atom_site_label_2
_geom_bond_site_symmetry_1
_geom_bond_site_symmetry_2
Cu1 N1 1_555 1_555
C1 H1 1_555 1_555
C2 C1 1_555 1_555
H2 C2 1_555 1_555
C3 C2 1_555 1_555
H3 C3 1_555 1_555
C4 C3 1_555 1_555
H4 C4 1_555 1_555
C5 C4 1_555 1_555
N1 C1 1_555 1_555
O1 Cu1 1_555 1_555
O2 S1 1_555 1_555
O3 S1 1_555 1_555
S1 C5 1_555 1_555
Cu1_2 O2 1_555 1_555
Cu1_3 O2D 1_555 1_555
C1D H1D 1_555 1_555
C2D C1D 1_555 1_555
H2D C2D 1_555 1_555
C3D C2D 1_555 1_555
H3D C3D 1_555 1_555
C4D C3D 1_555 1_555
H4D C4D 1_555 1_555
C5D C4D 1_555 1_555
N1D Cu1 1_555 1_555
O1D Cu1 1_555 1_555
O2D S1D 1_555 1_555
O2_2 Cu1 1_555 1_555
O2D_2 Cu1 1_555 1_555
O3D S1D 1_555 1_555
S1D C5D 1_555 1_555
C5 N1 1_555 1_555
O1 S1 1_555 1_555
C1D N1D 1_555 1_555
C5D N1D 1_555 1_555
O1D S1D 1_555 1_555

#END
