
#######################################################################
#
#                 Cambridge Crystallographic Data Centre
#                                CCDC 
#
#######################################################################
#
# If this CIF has been generated from an entry in the Cambridge 
# Structural Database, then it will include bibliographic, chemical, 
# crystal, experimental, refinement or atomic coordinate data resulting 
# from the CCDC's data processing and validation procedures.
#
#######################################################################

data_CEVTAZ
_symmetry_cell_setting           monoclinic
_symmetry_space_group_name_H-M   'C 2/c'
_symmetry_Int_Tables_number      15
_space_group_name_Hall           '-C 2yn'
loop_
_symmetry_equiv_pos_site_id
_symmetry_equiv_pos_as_xyz
1 x,y,z
2 1/2+x,1/2+y,z
3 -x,y,1/2-z
4 1/2-x,1/2+y,1/2-z
5 -x,-y,-z
6 1/2-x,1/2-y,-z
7 x,-y,1/2+z
8 1/2+x,1/2-y,1/2+z
_cell_length_a                   18.9552(19)
_cell_length_b                   6.7285(7)
_cell_length_c                   24.535(3)
_cell_angle_alpha                90
_cell_angle_beta                 94.816(2)
_cell_angle_gamma                90
_cell_volume                     3118.15
loop_
_atom_site_label
_atom_site_type_symbol
_atom_site_fract_x
_atom_site_fract_y
_atom_site_fract_z
Mn1 Mn 0.29415(3) 0.69927(10) 0.54291(3)
O1 O 0.28228(16) 0.9076(5) 0.49541(13)
O2 O 0.23447(19) 0.7828(5) 0.60710(16)
O3 O 0.1556(2) 0.6465(7) 0.65757(19)
O4 O 0.37744(17) 0.8122(5) 0.58531(13)
O5 O 0.45134(19) 0.7708(5) 0.65970(14)
O6 O 0.5000 0.3836(11) 0.7500
H1 H 0.499(6) 0.327(13) 0.7190(19)
O7 O 0.3901(2) 0.8387(8) 0.7746(2)
H2 H 0.363(4) 0.745(9) 0.783(3)
H3 H 0.382(4) 0.848(13) 0.8080(10)
N1 N 0.30901(18) 0.4585(5) 0.59720(15)
N2 N 0.36571(19) 0.5194(6) 0.50210(16)
C1 C 0.3267(2) 0.2780(6) 0.56595(19)
H4 H 0.2834 0.2163 0.5502
H5 H 0.3512 0.1830 0.5905
C2 C 0.3728(2) 0.3313(6) 0.52114(19)
C3 C 0.4152(3) 0.1949(7) 0.4979(2)
H6 H 0.4200 0.0666 0.5118
C4 C 0.4510(3) 0.2524(8) 0.4533(2)
H7 H 0.4790 0.1616 0.4364
C5 C 0.4446(3) 0.4459(9) 0.4342(2)
H8 H 0.4684 0.4871 0.4046
C6 C 0.4023(3) 0.5755(8) 0.4599(2)
H9 H 0.3988 0.7064 0.4478
C7 C 0.2402(2) 0.4348(7) 0.6218(2)
H10 H 0.2478 0.3672 0.6567
H11 H 0.2083 0.3546 0.5978
C8 C 0.2073(2) 0.6371(8) 0.6299(2)
C9 C 0.3675(2) 0.5138(7) 0.63917(19)
H12 H 0.4036 0.4113 0.6404
H13 H 0.3489 0.5187 0.6748
C10 C 0.4013(2) 0.7120(7) 0.62802(19)
Na1 Na 0.5000 0.7239(4) 0.7500
Mn1B Mn 0.70585(3) 0.69927(10) 0.95709(3)
Mn1E Mn 0.20585(3) 0.80073(10) 0.45709(3)
O1E O 0.21772(16) 0.5924(5) 0.50459(13)
O1G O 0.78228(16) 0.5924(5) 0.99541(13)
O1B O 0.71772(16) 0.9076(5) 1.00459(13)
O2B O 0.76553(19) 0.7828(5) 0.89290(16)
O3B O 0.8444(2) 0.6465(7) 0.84243(19)
O4B O 0.62256(17) 0.8122(5) 0.91469(13)
O5B O 0.54866(19) 0.7708(5) 0.84030(14)
H1B H 0.501(6) 0.327(13) 0.7810(19)
O7B O 0.6099(2) 0.8387(8) 0.7254(2)
H2B H 0.637(4) 0.745(9) 0.717(3)
H3B H 0.618(4) 0.848(13) 0.6920(10)
N1B N 0.69099(18) 0.4585(5) 0.90280(15)
N2B N 0.63429(19) 0.5194(6) 0.99790(16)
C1B C 0.6733(2) 0.2780(6) 0.93405(19)
H4B H 0.7166 0.2163 0.9498
H5B H 0.6488 0.1830 0.9095
C2B C 0.6272(2) 0.3313(6) 0.97886(19)
C3B C 0.5848(3) 0.1949(7) 1.0021(2)
H6B H 0.5800 0.0666 0.9882
C4B C 0.5490(3) 0.2524(8) 1.0467(2)
H7B H 0.5210 0.1616 1.0636
C5B C 0.5554(3) 0.4459(9) 1.0658(2)
H8B H 0.5316 0.4871 1.0954
C6B C 0.5977(3) 0.5755(8) 1.0401(2)
H9B H 0.6012 0.7064 1.0522
C7B C 0.7598(2) 0.4348(7) 0.8782(2)
H10B H 0.7522 0.3672 0.8433
H11B H 0.7917 0.3546 0.9022
C8B C 0.7927(2) 0.6371(8) 0.8701(2)
C9B C 0.6325(2) 0.5138(7) 0.86083(19)
H12B H 0.5964 0.4113 0.8596
H13B H 0.6511 0.5187 0.8252
C10B C 0.5987(2) 0.7120(7) 0.87198(19)
O8 O 0.3187(5) 0.0806(15) 0.6945(4)
H14 H 0.349(5) 0.009(18) 0.713(5)
H15 H 0.307(8) 0.160(19) 0.719(5)
O9 O 0.3114(3) 0.5011(10) 0.7734(3)
H16 H 0.270(2) 0.517(16) 0.784(4)
H17 H 0.3559(10) 0.484(17) 0.778(4)
O10 O 0.0018(2) 0.6656(6) 0.6499(2)
H18 H 0.0463(7) 0.648(12) 0.653(3)
H19 H -0.010(4) 0.665(12) 0.6157(6)
loop_
_geom_bond_atom_site_label_1
_geom_bond_atom_site_label_2
_geom_bond_site_symmetry_1
_geom_bond_site_symmetry_2
Mn1 O1 1_555 1_555
O1 Mn1E 1_555 1_555
O2 Mn1 1_555 1_555
O3 C8 1_555 1_555
O4 Mn1 1_555 1_555
O5 C10 1_555 1_555
O6 H1 1_555 1_555
O7 H2 1_555 1_555
H3 O7 1_555 1_555
N1 Mn1 1_555 1_555
N2 Mn1 1_555 1_555
C1 N1 1_555 1_555
H4 C1 1_555 1_555
H5 C1 1_555 1_555
C2 N2 1_555 1_555
C3 C2 1_555 1_555
H6 C3 1_555 1_555
C4 C3 1_555 1_555
H7 C4 1_555 1_555
C5 C4 1_555 1_555
H8 C5 1_555 1_555
C6 N2 1_555 1_555
H9 C6 1_555 1_555
C7 N1 1_555 1_555
H10 C7 1_555 1_555
H11 C7 1_555 1_555
C8 O2 1_555 1_555
C9 N1 1_555 1_555
H12 C9 1_555 1_555
H13 C9 1_555 1_555
C10 O4 1_555 1_555
Na1 O5 1_555 1_555
O8 H14 1_555 1_555
H15 O8 1_555 1_555
O9 H16 1_555 1_555
H17 O9 1_555 1_555
O10 H18 1_555 1_555
H19 O10 1_555 1_555
Mn1B O1G 1_555 1_555
Mn1E O1E 1_555 1_555
O1E Mn1 1_555 1_555
O1B Mn1B 1_555 1_555
O2B Mn1B 1_555 1_555
O3B C8B 1_555 1_555
O4B Mn1B 1_555 1_555
O5B Na1 1_555 1_555
H1B O6 1_555 1_555
O7B Na1 1_555 1_555
H2B O7B 1_555 1_555
H3B O7B 1_555 1_555
N1B Mn1B 1_555 1_555
N2B Mn1B 1_555 1_555
C1B N1B 1_555 1_555
H4B C1B 1_555 1_555
H5B C1B 1_555 1_555
C2B N2B 1_555 1_555
C3B C2B 1_555 1_555
H6B C3B 1_555 1_555
C4B C3B 1_555 1_555
H7B C4B 1_555 1_555
C5B C4B 1_555 1_555
H8B C5B 1_555 1_555
C6B N2B 1_555 1_555
H9B C6B 1_555 1_555
C7B N1B 1_555 1_555
H10B C7B 1_555 1_555
H11B C7B 1_555 1_555
C8B O2B 1_555 1_555
C9B N1B 1_555 1_555
H12B C9B 1_555 1_555
H13B C9B 1_555 1_555
C10B O4B 1_555 1_555
O6 Na1 1_555 1_555
O7 Na1 1_555 1_555
C1 C2 1_555 1_555
C5 C6 1_555 1_555
C7 C8 1_555 1_555
C9 C10 1_555 1_555
O5B C10B 1_555 1_555
C1B C2B 1_555 1_555
C5B C6B 1_555 1_555
C7B C8B 1_555 1_555
C9B C10B 1_555 1_555

#END
