
#######################################################################
#
#                 Cambridge Crystallographic Data Centre
#                                CCDC 
#
#######################################################################
#
# If this CIF has been generated from an entry in the Cambridge 
# Structural Database, then it will include bibliographic, chemical, 
# crystal, experimental, refinement or atomic coordinate data resulting 
# from the CCDC's data processing and validation procedures.
#
#######################################################################

data_CEVTOM
_symmetry_cell_setting           monoclinic
_symmetry_space_group_name_H-M   'P 1 1 21/b'
_symmetry_Int_Tables_number      14
_space_group_name_Hall           '-P 2bc'
loop_
_symmetry_equiv_pos_site_id
_symmetry_equiv_pos_as_xyz
1 x,y,z
2 -x,1/2-y,1/2+z
3 -x,-y,-z
4 x,1/2+y,1/2-z
_cell_length_a                   10.571(5)
_cell_length_b                   9.254(6)
_cell_length_c                   12.170(6)
_cell_angle_alpha                90
_cell_angle_beta                 90
_cell_angle_gamma                99.00(3)
_cell_volume                     1175.86
loop_
_atom_site_label
_atom_site_type_symbol
_atom_site_fract_x
_atom_site_fract_y
_atom_site_fract_z
Cu1 Cu 0.13890 0.19350 0.12730
C1 C 0.26690 0.47610 0.16220
O1 O 0.17750 0.27340 0.27410
C2 C 0.22800 0.40840 0.27230
O2 O 0.11320 0.15650 -0.02960
C3 C 0.22500 0.40170 -0.03130
O3 O 0.24620 0.48630 0.35500
C4 C 0.15410 0.26650 -0.08970
O4 O 0.13950 0.27190 -0.19030
C5 C 0.39830 0.30940 0.07090
O5 O 0.74390 0.14720 0.05280
C6 C 0.42910 0.23820 -0.02190
O6 O -0.00850 0.05210 0.17980
C7 C 0.54330 0.18320 -0.02820
O7 O -0.03170 0.36100 0.10880
C8 C 0.62980 0.19850 0.05840
N1 N 0.27330 0.36330 0.07660
C9 C 0.59670 0.26900 0.15140
C10 C 0.48240 0.32230 0.15840
O3C O 0.24620 -0.01370 0.14500
Cu1C Cu 0.13890 0.69350 0.37270
loop_
_geom_bond_atom_site_label_1
_geom_bond_atom_site_label_2
_geom_bond_site_symmetry_1
_geom_bond_site_symmetry_2
Cu1 O1 1_555 1_555
C1 C2 1_555 1_555
O1 C2 1_555 1_555
C2 O3 1_555 1_555
O2 Cu1 1_555 1_555
C3 C4 1_555 1_555
O3 Cu1C 1_555 1_555
C4 O2 1_555 1_555
O4 C4 1_555 1_555
C5 C6 1_555 1_555
O5 C8 1_555 1_555
C6 C7 1_555 1_555
O6 Cu1 1_555 1_555
C7 C8 1_555 1_555
O7 Cu1 1_555 1_555
C8 C9 1_555 1_555
N1 Cu1 1_555 1_555
C9 C10 1_555 1_555
C10 C5 1_555 1_555
O3C Cu1 1_555 1_555
C1 N1 1_555 1_555
C3 N1 1_555 1_555
C5 N1 1_555 1_555

#END
