
#######################################################################
#
#                 Cambridge Crystallographic Data Centre
#                                CCDC 
#
#######################################################################
#
# If this CIF has been generated from an entry in the Cambridge 
# Structural Database, then it will include bibliographic, chemical, 
# crystal, experimental, refinement or atomic coordinate data resulting 
# from the CCDC's data processing and validation procedures.
#
#######################################################################

data_CEVVAB01
_symmetry_cell_setting           monoclinic
_symmetry_space_group_name_H-M   'P 2/n'
_symmetry_Int_Tables_number      13
_space_group_name_Hall           '-P 2yac'
loop_
_symmetry_equiv_pos_site_id
_symmetry_equiv_pos_as_xyz
1 x,y,z
2 1/2-x,y,1/2-z
3 -x,-y,-z
4 1/2+x,-y,1/2+z
_cell_length_a                   8.8071(17)
_cell_length_b                   12.386(2)
_cell_length_c                   16.981(3)
_cell_angle_alpha                90
_cell_angle_beta                 100.182(2)
_cell_angle_gamma                90
_cell_volume                     1823.2
loop_
_atom_site_label
_atom_site_type_symbol
_atom_site_fract_x
_atom_site_fract_y
_atom_site_fract_z
C1 C -0.2022(9) 0.8616(6) 0.4520(5)
H1 H -0.2267 0.7960 0.4733
C2 C -0.2327(14) 0.9562(7) 0.4894(8)
H2 H -0.2762 0.9535 0.5354
C3 C -0.1997(11) 1.0528(7) 0.4593(7)
H3 H -0.2188 1.1163 0.4851
C4 C -0.1358(7) 1.0569(4) 0.3885(5)
C5 C -0.0956(7) 1.1540(5) 0.3525(6)
H4 H -0.1155 1.2200 0.3746
C6 C -0.0304(9) 1.1521(4) 0.2881(5)
H5 H -0.0049 1.2168 0.2659
C7 C 0.0017(8) 1.0518(4) 0.2517(4)
C8 C 0.0758(15) 1.0442(7) 0.1846(5)
H6 H 0.1045 1.1063 0.1601
C9 C 0.1042(18) 0.9455(7) 0.1565(5)
H7 H 0.1534 0.9395 0.1126
C10 C 0.0605(12) 0.8531(6) 0.1930(4)
H8 H 0.0795 0.7862 0.1719
C11 C -0.0357(6) 0.9542(4) 0.2856(3)
C12 C -0.1055(5) 0.9570(4) 0.3552(3)
C13 C -0.4003(5) 0.5752(3) 0.3155(3)
C14 C -0.4173(4) 0.4854(3) 0.3718(2)
C15 C -0.2958(5) 0.4604(3) 0.4335(2)
H9 H -0.2064 0.5019 0.4414
C16 C -0.3090(4) 0.3733(3) 0.4831(2)
C17 C -0.4448(5) 0.3134(3) 0.4728(3)
H10 H -0.4537 0.2555 0.5065
C18 C -0.5671(4) 0.3400(3) 0.4122(3)
C19 C -0.5525(5) 0.4248(3) 0.3609(3)
H11 H -0.6329 0.4411 0.3193
C20 C -0.1783(5) 0.3418(3) 0.5484(2)
N1 N -0.1394(4) 0.8614(3) 0.3871(3)
N2 N -0.0062(5) 0.8564(3) 0.2556(2)
O1 O -0.3036(3) 0.6476(2) 0.33540(19)
O2 O -0.4909(4) 0.5744(3) 0.2478(2)
O3 O -0.0494(4) 0.3884(3) 0.5525(2)
O4 O -0.1986(4) 0.2692(3) 0.59623(19)
O5 O -0.6969(3) 0.2778(2) 0.4042(2)
H12 H -0.7596 0.2989 0.3657
Cd1 Cd -0.05824(3) 0.70769(2) 0.330655(17)
O2A O -0.0091(4) 0.5744(3) 0.2522(2)
O3B O 0.0494(4) 0.6116(3) 0.4475(2)
O4B O 0.1986(4) 0.7308(3) 0.40377(19)
Cd1A Cd -0.44176(3) 0.70769(2) 0.169345(17)
Cd1B Cd 0.05824(3) 0.29231(2) 0.669345(17)
O6 O 0.4468(5) 0.4006(4) 0.1360(5)
H13 H 0.449(11) 0.445(7) 0.164(6)
H14 H 0.460(10) 0.414(7) 0.098(5)
loop_
_geom_bond_atom_site_label_1
_geom_bond_atom_site_label_2
_geom_bond_site_symmetry_1
_geom_bond_site_symmetry_2
C1 H1 1_555 1_555
C2 C1 1_555 1_555
H2 C2 1_555 1_555
C3 C2 1_555 1_555
H3 C3 1_555 1_555
C4 C3 1_555 1_555
C5 C4 1_555 1_555
H4 C5 1_555 1_555
C6 C5 1_555 1_555
H5 C6 1_555 1_555
C7 C6 1_555 1_555
C8 C7 1_555 1_555
H6 C8 1_555 1_555
C9 C8 1_555 1_555
H7 C9 1_555 1_555
C10 C9 1_555 1_555
H8 C10 1_555 1_555
C11 C7 1_555 1_555
C12 C4 1_555 1_555
C13 C14 1_555 1_555
C14 C15 1_555 1_555
C15 H9 1_555 1_555
C16 C15 1_555 1_555
C17 C16 1_555 1_555
H10 C17 1_555 1_555
C18 C17 1_555 1_555
C19 C14 1_555 1_555
H11 C19 1_555 1_555
C20 C16 1_555 1_555
N1 C1 1_555 1_555
N2 C10 1_555 1_555
O1 C13 1_555 1_555
O2 C13 1_555 1_555
O3 C20 1_555 1_555
O4 C20 1_555 1_555
O5 C18 1_555 1_555
H12 O5 1_555 1_555
Cd1 N1 1_555 1_555
O6 H13 1_555 1_555
H14 O6 1_555 1_555
O2A Cd1 1_555 1_555
O3B Cd1 1_555 1_555
O4B Cd1 1_555 1_555
Cd1A O2 1_555 1_555
Cd1B O3 1_555 1_555
C11 C12 1_555 1_555
C11 N2 1_555 1_555
C12 N1 1_555 1_555
C18 C19 1_555 1_555
N2 Cd1 1_555 1_555
O1 Cd1 1_555 1_555
O4 Cd1B 1_555 1_555

#END
