
#######################################################################
#
#                 Cambridge Crystallographic Data Centre
#                                CCDC 
#
#######################################################################
#
# If this CIF has been generated from an entry in the Cambridge 
# Structural Database, then it will include bibliographic, chemical, 
# crystal, experimental, refinement or atomic coordinate data resulting 
# from the CCDC's data processing and validation procedures.
#
#######################################################################

data_CEVVEF
_symmetry_cell_setting           triclinic
_symmetry_space_group_name_H-M   'P -1'
_symmetry_Int_Tables_number      2
_space_group_name_Hall           '-P 1'
loop_
_symmetry_equiv_pos_site_id
_symmetry_equiv_pos_as_xyz
1 x,y,z
2 -x,-y,-z
_cell_length_a                   6.1644(17)
_cell_length_b                   7.686(2)
_cell_length_c                   13.946(4)
_cell_angle_alpha                78.476(5)
_cell_angle_beta                 81.407(5)
_cell_angle_gamma                77.943(5)
_cell_volume                     629.143
loop_
_atom_site_label
_atom_site_type_symbol
_atom_site_fract_x
_atom_site_fract_y
_atom_site_fract_z
C1 C 0.3563(8) 0.8415(6) 0.8553(4)
H1 H 0.2335 0.7976 0.8450
C2 C 0.4042(9) 1.0016(7) 0.7979(4)
H2 H 0.3150 1.0612 0.7487
C3 C 0.6927(8) 0.9831(7) 0.8843(4)
H3 H 0.8107 1.0296 0.8974
C4 C 0.6459(8) 0.8237(7) 0.9410(4)
C5 C 0.7883(9) 0.7152(7) 1.0192(4)
C6 C 0.5784(9) 1.6045(7) 0.5737(4)
H4 H 0.7262 1.5699 0.5485
C7 C 0.4521(9) 1.7537(7) 0.5253(4)
H5 H 0.5166 1.8193 0.4687
C8 C 0.1557(8) 1.7133(7) 0.6403(4)
C9 C 0.2828(10) 1.5641(7) 0.6890(4)
H6 H 0.2199 1.5005 0.7467
C10 C -0.0868(8) 1.7758(7) 0.6691(4)
Cl1 Cl 1.0206(2) 1.24622(19) 0.62739(10)
Mn1 Mn 0.5000 0.5000 1.0000
Mn2 Mn 0.68208(13) 1.28099(11) 0.72423(6)
Mn3 Mn 0.0000 2.0000 0.5000
N1 N 0.4833(7) 0.7500(5) 0.9246(3)
N2 N 0.5749(7) 1.0722(6) 0.8117(3)
N3 N 0.4978(7) 1.5070(6) 0.6554(3)
N4 N 0.2387(7) 1.8082(6) 0.5569(3)
O1 O 0.7438(6) 0.5597(5) 1.0536(3)
O2 O 0.9226(7) 0.7873(5) 1.0443(3)
O3 O -0.1888(6) 1.8961(5) 0.6091(3)
O4 O -0.1686(7) 1.7081(5) 0.7510(3)
O5 O 0.7447(6) 0.4004(5) 0.8578(3)
C1A C 0.6437(8) 0.1585(6) 1.1447(4)
H1A H 0.7665 0.2024 1.1550
C2A C 0.5958(9) -0.0016(7) 1.2021(4)
H2A H 0.6850 -0.0612 1.2513
C3A C 0.3073(8) 0.0169(7) 1.1157(4)
H3A H 0.1893 -0.0296 1.1026
C4A C 0.3541(8) 0.1763(7) 1.0590(4)
C5A C 0.2117(9) 0.2848(7) 0.9808(4)
C6A C 0.4216(9) -0.6045(7) 1.4263(4)
H4A H 0.2738 -0.5699 1.4515
C7A C 0.5479(9) -0.7537(7) 1.4747(4)
H5A H 0.4834 -0.8193 1.5313
C8A C 0.8443(8) -0.7133(7) 1.3597(4)
C9A C 0.7172(10) -0.5641(7) 1.3110(4)
H6A H 0.7801 -0.5005 1.2533
C10A C 1.0868(8) -0.7758(7) 1.3309(4)
Cl1A Cl -0.0206(2) -0.24622(19) 1.37261(10)
Mn2A Mn 0.31792(13) -0.28099(11) 1.27577(6)
Mn2_2 Mn 0.68208(13) 0.28099(11) 0.72423(6)
Mn2A_2 Mn 0.31792(13) 0.71901(11) 1.27577(6)
Mn3_2 Mn 1.0000 -1.0000 1.5000
N1A N 0.5167(7) 0.2500(5) 1.0754(3)
N2A N 0.4251(7) -0.0722(6) 1.1883(3)
N3A N 0.5022(7) -0.5070(6) 1.3446(3)
N4A N 0.7613(7) -0.8082(6) 1.4431(3)
N4A_2 N -0.2387(7) 2.1918(6) 0.4431(3)
O1A O 0.2562(6) 0.4403(5) 0.9464(3)
O2A O 0.0774(7) 0.2127(5) 0.9557(3)
O3A O 1.1888(6) -0.8961(5) 1.3909(3)
O3A_2 O 0.1888(6) 2.1039(5) 0.3909(3)
O4A O 1.1686(7) -0.7081(5) 1.2490(3)
O5A O 0.2553(6) 0.5996(5) 1.1422(3)
O5_2 O 0.7447(6) 1.4004(5) 0.8578(3)
O5A_2 O 0.2553(6) -0.4004(5) 1.1422(3)
loop_
_geom_bond_atom_site_label_1
_geom_bond_atom_site_label_2
_geom_bond_site_symmetry_1
_geom_bond_site_symmetry_2
C1 H1 1_555 1_555
C2 C1 1_555 1_555
H2 C2 1_555 1_555
C3 H3 1_555 1_555
C4 C3 1_555 1_555
C5 C4 1_555 1_555
C6 H4 1_555 1_555
C7 C6 1_555 1_555
H5 C7 1_555 1_555
C8 C9 1_555 1_555
C9 H6 1_555 1_555
C10 C8 1_555 1_555
Cl1 Mn2 1_555 1_555
Mn1 N1 1_555 1_555
Mn2 N2 1_555 1_555
Mn3 N4 1_555 1_555
N1 C1 1_555 1_555
N2 C2 1_555 1_555
N3 C6 1_555 1_555
N4 C7 1_555 1_555
O1 C5 1_555 1_555
O2 C5 1_555 1_555
O3 C10 1_555 1_555
O4 C10 1_555 1_555
O5 Mn1 1_555 1_555
C1A H1A 1_555 1_555
C2A C1A 1_555 1_555
H2A C2A 1_555 1_555
C3A H3A 1_555 1_555
C4A C3A 1_555 1_555
C5A C4A 1_555 1_555
C6A H4A 1_555 1_555
C7A C6A 1_555 1_555
H5A C7A 1_555 1_555
C8A C9A 1_555 1_555
C9A H6A 1_555 1_555
C10A C8A 1_555 1_555
Cl1A Mn2A 1_555 1_555
Mn2A N2A 1_555 1_555
Mn2_2 O5 1_555 1_555
Mn2A_2 O5A 1_555 1_555
Mn3_2 N4A 1_555 1_555
N1A Mn1 1_555 1_555
N2A C2A 1_555 1_555
N3A C6A 1_555 1_555
N4A C7A 1_555 1_555
N4A_2 Mn3 1_555 1_555
O1A Mn1 1_555 1_555
O2A C5A 1_555 1_555
O3A C10A 1_555 1_555
O3A_2 Mn3 1_555 1_555
O4A C10A 1_555 1_555
O5A Mn1 1_555 1_555
O5_2 Mn2 1_555 1_555
O5A_2 Mn2A 1_555 1_555
C3 N2 1_555 1_555
C4 N1 1_555 1_555
C8 N4 1_555 1_555
C9 N3 1_555 1_555
Mn1 O1 1_555 1_555
Mn2 N3 1_555 1_555
Mn3 O3 1_555 1_555
C1A N1A 1_555 1_555
C3A N2A 1_555 1_555
C4A N1A 1_555 1_555
C5A O1A 1_555 1_555
C8A N4A 1_555 1_555
C9A N3A 1_555 1_555
Mn2A N3A 1_555 1_555
Mn3_2 O3A 1_555 1_555

#END
