
#######################################################################
#
#                 Cambridge Crystallographic Data Centre
#                                CCDC 
#
#######################################################################
#
# If this CIF has been generated from an entry in the Cambridge 
# Structural Database, then it will include bibliographic, chemical, 
# crystal, experimental, refinement or atomic coordinate data resulting 
# from the CCDC's data processing and validation procedures.
#
#######################################################################

data_CEVVAB
_symmetry_cell_setting           monoclinic
_symmetry_space_group_name_H-M   'P 2/c'
_symmetry_Int_Tables_number      13
_space_group_name_Hall           '-P 2yc'
loop_
_symmetry_equiv_pos_site_id
_symmetry_equiv_pos_as_xyz
1 x,y,z
2 -x,y,1/2-z
3 -x,-y,-z
4 x,-y,1/2+z
_cell_length_a                   8.764(2)
_cell_length_b                   12.330(3)
_cell_length_c                   17.612(4)
_cell_angle_alpha                90
_cell_angle_beta                 109.152(9)
_cell_angle_gamma                90
_cell_volume                     1797.82
loop_
_atom_site_label
_atom_site_type_symbol
_atom_site_fract_x
_atom_site_fract_y
_atom_site_fract_z
C1 C -0.6553(5) 0.1408(4) 0.0477(3)
H1 H -0.7004 0.2060 0.0245
C2 C -0.7189(6) 0.0448(4) 0.0166(3)
H2 H -0.8128 0.0455 -0.0277
C3 C -0.6609(5) -0.0526(4) 0.0431(3)
H3 H -0.7086 -0.1156 0.0168
C4 C -0.5234(6) -0.0561(4) 0.1129(3)
C5 C -0.4475(6) -0.1542(4) 0.1478(3)
H4 H -0.4886 -0.2204 0.1248
C6 C -0.3192(6) -0.1516(4) 0.2125(3)
H5 H -0.2707 -0.2163 0.2350
C7 C -0.2545(7) -0.0537(4) 0.2481(3)
C8 C -0.1112(6) -0.0435(5) 0.3174(3)
H6 H -0.0553 -0.1040 0.3439
C9 C -0.0616(6) 0.0592(4) 0.3420(3)
H7 H 0.0281 0.0652 0.3881
C10 C -0.1326(6) 0.1473(4) 0.3077(3)
H8 H -0.0907 0.2145 0.3282
C11 C -0.3218(6) 0.0472(4) 0.2149(3)
C12 C -0.4606(5) 0.0425(4) 0.1451(3)
C13 C -0.2751(5) 0.3426(4) 0.0483(3)
C14 C -0.2072(5) 0.3724(4) -0.0173(3)
C15 C -0.0821(5) 0.3132(3) -0.0273(3)
H9 H -0.0388 0.2555 0.0070
C16 C -0.0206(5) 0.3385(4) -0.0875(3)
C17 C -0.0865(5) 0.4248(3) -0.1393(3)
H10 H -0.0476 0.4409 -0.1812
C18 C -0.2095(5) 0.4862(4) -0.1282(3)
C19 C -0.2711(5) 0.4616(4) -0.0666(3)
H11 H -0.3527 0.5034 -0.0585
C20 C -0.2836(6) 0.5766(4) -0.1845(3)
Cd1 Cd -0.3891 0.2923 0.1692
N1 N -0.5248(5) 0.1380(3) 0.1134(2)
N2 N -0.2633(5) 0.1422(3) 0.2441(2)
O1 O -0.2060(4) 0.2685(3) 0.0958(2)
O2 O -0.3973(4) 0.3877(3) 0.0526(2)
O3 O 0.1000(4) 0.2768(2) -0.0969(2)
H12 H 0.1814 0.3167 -0.0930
O4 O -0.3623(4) 0.6487(2) -0.1645(2)
O5 O -0.2611(5) 0.5741(3) -0.2521(2)
Cd1B Cd -0.6109 0.7077 -0.1692
Cd1C Cd -0.3891 0.7077 -0.3308
O4B O -0.6377(4) 0.3513(2) 0.1645(2)
O5C O -0.2611(5) 0.4259(3) 0.2479(2)
O6 O -0.3113(4) 0.5986(2) -0.8633(2)
H13 H -0.3512 0.5520 -0.9001
H14 H -0.2635 0.5662 -0.8193
loop_
_geom_bond_atom_site_label_1
_geom_bond_atom_site_label_2
_geom_bond_site_symmetry_1
_geom_bond_site_symmetry_2
C1 H1 1_555 1_555
C2 C1 1_555 1_555
H2 C2 1_555 1_555
C3 C2 1_555 1_555
H3 C3 1_555 1_555
C4 C3 1_555 1_555
C5 C4 1_555 1_555
H4 C5 1_555 1_555
C6 C5 1_555 1_555
H5 C6 1_555 1_555
C7 C6 1_555 1_555
C8 C7 1_555 1_555
H6 C8 1_555 1_555
C9 C8 1_555 1_555
H7 C9 1_555 1_555
C10 C9 1_555 1_555
H8 C10 1_555 1_555
C11 C7 1_555 1_555
C12 C4 1_555 1_555
C13 C14 1_555 1_555
C14 C15 1_555 1_555
C15 H9 1_555 1_555
C16 C15 1_555 1_555
C17 C16 1_555 1_555
H10 C17 1_555 1_555
C18 C17 1_555 1_555
C19 C14 1_555 1_555
H11 C19 1_555 1_555
C20 C18 1_555 1_555
Cd1 N1 1_555 1_555
N1 C1 1_555 1_555
N2 C10 1_555 1_555
O1 C13 1_555 1_555
O2 C13 1_555 1_555
O3 C16 1_555 1_555
H12 O3 1_555 1_555
O4 C20 1_555 1_555
O5 C20 1_555 1_555
O6 H13 1_555 1_555
H14 O6 1_555 1_555
Cd1B O4 1_555 1_555
Cd1C O5 1_555 1_555
O4B Cd1 1_555 1_555
O5C Cd1 1_555 1_555
C11 C12 1_555 1_555
C11 N2 1_555 1_555
C12 N1 1_555 1_555
C18 C19 1_555 1_555
Cd1 N2 1_555 1_555
Cd1 O1 1_555 1_555
Cd1 O2 1_555 1_555

#END
