
#######################################################################
#
#                 Cambridge Crystallographic Data Centre
#                                CCDC 
#
#######################################################################
#
# If this CIF has been generated from an entry in the Cambridge 
# Structural Database, then it will include bibliographic, chemical, 
# crystal, experimental, refinement or atomic coordinate data resulting 
# from the CCDC's data processing and validation procedures.
#
#######################################################################

data_CEVYIM
_symmetry_cell_setting           monoclinic
_symmetry_space_group_name_H-M   'P 21/c'
_symmetry_Int_Tables_number      14
_space_group_name_Hall           '-P 2ybc'
loop_
_symmetry_equiv_pos_site_id
_symmetry_equiv_pos_as_xyz
1 x,y,z
2 -x,1/2+y,1/2-z
3 -x,-y,-z
4 x,1/2-y,1/2+z
_cell_length_a                   7.063(5)
_cell_length_b                   19.956(13)
_cell_length_c                   11.765(7)
_cell_angle_alpha                90
_cell_angle_beta                 92.443(9)
_cell_angle_gamma                90
_cell_volume                     1656.76
loop_
_atom_site_label
_atom_site_type_symbol
_atom_site_fract_x
_atom_site_fract_y
_atom_site_fract_z
Zn1 Zn 0.27495(5) 0.656790(15) 0.91068(3)
N1 N 0.2816(3) 0.55487(11) 0.87763(19)
N2 N 0.2267(3) 0.61566(12) 1.0717(2)
O1 O 0.3948(3) 0.68427(11) 0.76328(16)
O2 O 0.5898(3) 0.75633(10) 0.68564(16)
O3 O 0.5153(3) 0.71002(10) 0.96894(16)
O4 O 0.8725(4) 0.66220(11) 0.84815(19)
O5 O 1.0923(3) 0.73104(12) 0.9202(3)
C1 C 0.3136(5) 0.52735(16) 0.7769(3)
H1 H 0.3323 0.5555 0.7154
C2 C 0.3202(5) 0.45929(16) 0.7602(3)
H2 H 0.3412 0.4417 0.6886
C3 C 0.2949(5) 0.41779(16) 0.8517(3)
H3 H 0.2995 0.3715 0.8429
C4 C 0.2631(4) 0.44522(14) 0.9555(3)
H4 H 0.2460 0.4178 1.0181
C5 C 0.2565(4) 0.51416(13) 0.9666(2)
C6 C 0.2251(4) 0.54845(14) 1.0761(2)
C7 C 0.1950(5) 0.51491(16) 1.1766(3)
H5 H 0.1908 0.4683 1.1782
C8 C 0.1713(5) 0.55126(18) 1.2738(3)
H6 H 0.1544 0.5294 1.3424
C9 C 0.1727(5) 0.62016(17) 1.2694(3)
H7 H 0.1558 0.6455 1.3345
C10 C 0.1993(5) 0.65042(16) 1.1680(3)
H8 H 0.1985 0.6970 1.1647
C11 C 0.5196(4) 0.72936(13) 0.7682(2)
C12 C 0.5770(4) 0.75671(13) 0.8859(2)
H9 H 0.5060 0.7983 0.8961
C13 C 0.7843(4) 0.77342(14) 0.9027(2)
H10 H 0.8139 0.8088 0.8498
H11 H 0.8053 0.7913 0.9789
C14 C 0.9218(4) 0.71688(15) 0.8875(3)
H12 H 0.530(5) 0.7250(18) 1.030(3)
Zn1_2 Zn 1.27495(5) 0.656790(15) 0.91068(3)
O5_2 O 0.0923(3) 0.73104(12) 0.9202(3)
O6 O 0.2256(5) 0.84797(17) 0.0536(2)
H13 H 0.265(6) 0.835(2) 0.1178(19)
H14 H 0.125(6) 0.870(3) 0.059(4)
O7 O 0.4585(6) 0.4307(2) 0.4936(3)
H15 H 0.466(7) 0.4721(7) 0.483(5)
H16 H 0.566(4) 0.413(2) 0.486(5)
O8 O 0.1294(6) 0.39489(17) 0.3741(3)
H17 H 0.022(11) 0.413(9) 0.378(9)
H18 H 0.133(10) 0.376(3) 0.310(3)
loop_
_geom_bond_atom_site_label_1
_geom_bond_atom_site_label_2
_geom_bond_site_symmetry_1
_geom_bond_site_symmetry_2
Zn1 N1 1_555 1_555
N1 C1 1_555 1_555
N2 Zn1 1_555 1_555
O1 Zn1 1_555 1_555
O2 C11 1_555 1_555
O3 Zn1 1_555 1_555
O4 C14 1_555 1_555
O5 C14 1_555 1_555
C1 H1 1_555 1_555
C2 C1 1_555 1_555
H2 C2 1_555 1_555
C3 C2 1_555 1_555
H3 C3 1_555 1_555
C4 C3 1_555 1_555
H4 C4 1_555 1_555
C5 N1 1_555 1_555
C6 N2 1_555 1_555
C7 C6 1_555 1_555
H5 C7 1_555 1_555
C8 C7 1_555 1_555
H6 C8 1_555 1_555
C9 C8 1_555 1_555
H7 C9 1_555 1_555
C10 N2 1_555 1_555
H8 C10 1_555 1_555
C11 O1 1_555 1_555
C12 O3 1_555 1_555
H9 C12 1_555 1_555
C13 C12 1_555 1_555
H10 C13 1_555 1_555
H11 C13 1_555 1_555
C14 C13 1_555 1_555
H12 O3 1_555 1_555
O6 H13 1_555 1_555
H14 O6 1_555 1_555
O7 H15 1_555 1_555
H16 O7 1_555 1_555
O8 H17 1_555 1_555
H18 O8 1_555 1_555
Zn1_2 O5 1_555 1_555
O5_2 Zn1 1_555 1_555
C4 C5 1_555 1_555
C5 C6 1_555 1_555
C9 C10 1_555 1_555
C11 C12 1_555 1_555

#END
