
#######################################################################
#
#                 Cambridge Crystallographic Data Centre
#                                CCDC 
#
#######################################################################
#
# If this CIF has been generated from an entry in the Cambridge 
# Structural Database, then it will include bibliographic, chemical, 
# crystal, experimental, refinement or atomic coordinate data resulting 
# from the CCDC's data processing and validation procedures.
#
#######################################################################

data_CEWCOY
_symmetry_cell_setting           triclinic
_symmetry_space_group_name_H-M   'P -1'
_symmetry_Int_Tables_number      2
_space_group_name_Hall           '-P 1'
loop_
_symmetry_equiv_pos_site_id
_symmetry_equiv_pos_as_xyz
1 x,y,z
2 -x,-y,-z
_cell_length_a                   11.5178(10)
_cell_length_b                   11.5410(9)
_cell_length_c                   25.014(2)
_cell_angle_alpha                84.761(5)
_cell_angle_beta                 81.272(5)
_cell_angle_gamma                66.153(4)
_cell_volume                     3004.3
loop_
_atom_site_label
_atom_site_type_symbol
_atom_site_fract_x
_atom_site_fract_y
_atom_site_fract_z
Cu1 Cu 0.52401(19) 0.1021(2) 0.52467(9)
Br1 Br 0.37131(15) 0.13446(15) 0.45797(8)
S1 S 0.4070(4) 0.1980(4) 0.60149(19)
S2 S 0.3126(3) 0.8461(4) 0.51937(17)
O1 O 0.0840(12) 0.7640(10) 0.4809(5)
O2 O 0.0769(11) 0.5468(11) 0.5552(5)
O3 O 0.3431(14) 0.4823(12) 0.6502(6)
O4 O 0.2611(12) 0.7534(13) 0.6419(5)
C1 C 0.0128(16) 0.6874(16) 0.4800(9)
H1 H 0.0679 0.6078 0.4614
H2 H -0.0609 0.7331 0.4596
C2 C -0.0330(18) 0.6580(18) 0.5347(8)
H3 H -0.1075 0.6357 0.5348
H4 H -0.0590 0.7316 0.5579
C3 C 0.0536(17) 0.4940(18) 0.6061(7)
C4 C -0.0553(17) 0.5486(18) 0.6407(9)
H5 H -0.1213 0.6256 0.6305
C5 C -0.0689(18) 0.491(2) 0.6910(8)
H6 H -0.1446 0.5292 0.7153
C6 C 0.023(2) 0.379(2) 0.7064(9)
H7 H 0.0131 0.3390 0.7405
C7 C 0.1367(18) 0.3267(16) 0.6690(7)
H8 H 0.2020 0.2488 0.6787
C8 C 0.1560(16) 0.3831(15) 0.6193(7)
C9 C 0.2692(15) 0.3310(16) 0.5783(7)
H9 H 0.2969 0.4002 0.5645
H10 H 0.2431 0.3031 0.5475
C10 C 0.4990(18) 0.2756(17) 0.6264(8)
H11 H 0.5779 0.2094 0.6384
H12 H 0.5251 0.3248 0.5960
C11 C 0.427(2) 0.363(2) 0.6725(9)
H13 H 0.3772 0.3250 0.6981
H14 H 0.4886 0.3770 0.6923
C12 C 0.263(2) 0.5645(19) 0.6933(9)
H15 H 0.3162 0.5771 0.7179
H16 H 0.2065 0.5265 0.7146
C13 C 0.183(2) 0.691(2) 0.6671(10)
H17 H 0.1363 0.6767 0.6398
H18 H 0.1182 0.7460 0.6950
C14 C 0.1936(17) 0.8767(17) 0.6244(7)
H19 H 0.1617 0.9331 0.6556
H20 H 0.1190 0.8812 0.6079
C15 C 0.2787(17) 0.9196(16) 0.5837(7)
H21 H 0.3603 0.8998 0.5981
H22 H 0.2373 1.0127 0.5781
C16 C 0.1651(16) 0.9547(16) 0.4915(7)
H23 H 0.0895 0.9572 0.5169
H24 H 0.1636 1.0414 0.4874
C17 C 0.1583(14) 0.9124(16) 0.4376(7)
C18 C 0.1891(18) 0.9756(18) 0.3902(8)
H25 H 0.2157 1.0424 0.3931
C19 C 0.181(2) 0.942(2) 0.3383(8)
H26 H 0.2066 0.9795 0.3059
C20 C 0.134(2) 0.851(2) 0.3382(10)
H27 H 0.1222 0.8311 0.3040
C21 C 0.1027(19) 0.7831(18) 0.3827(8)
H28 H 0.0740 0.7179 0.3794
C22 C 0.1161(18) 0.8185(16) 0.4330(7)
Cu1A Cu 0.47599(19) -0.1021(2) 0.47533(9)
Cu1A_2 Cu 0.47599(19) 0.8979(2) 0.47533(9)
Br1A Br 0.62869(15) -0.13446(15) 0.54203(8)
S2A S 0.6874(3) 0.1539(4) 0.48063(17)
Cu2 Cu 0.9022(2) 0.96959(19) -0.02469(9)
Br2 Br 0.85678(16) 1.13881(15) 0.04050(7)
S3 S 0.8395(4) 0.8171(3) 0.02029(16)
S4 S 0.1748(4) 0.9321(4) 0.10242(18)
O5 O 0.5316(12) 0.5868(11) 0.0593(5)
O6 O 0.7647(10) 0.5742(11) -0.0147(5)
O7 O 0.7215(14) 0.7971(13) 0.1440(6)
O8 O 0.4469(14) 0.8808(15) 0.1522(6)
C23 C 0.6461(18) 0.4739(18) 0.0396(8)
H29 H 0.7143 0.4537 0.0630
H30 H 0.6238 0.3995 0.0399
C24 C 0.6889(17) 0.5053(17) -0.0149(9)
H31 H 0.7390 0.4264 -0.0348
H32 H 0.6138 0.5560 -0.0338
C25 C 0.8295(17) 0.5963(16) -0.0632(7)
C26 C 0.8052(19) 0.5712(18) -0.1137(9)
H33 H 0.7399 0.5422 -0.1160
C27 C 0.880(2) 0.590(2) -0.1596(10)
H34 H 0.8672 0.5700 -0.1935
C28 C 0.970(3) 0.637(2) -0.1587(9)
H35 H 1.0172 0.6516 -0.1913
C29 C 0.9937(19) 0.6628(17) -0.1078(8)
H36 H 1.0588 0.6924 -0.1058
C30 C 0.9206(18) 0.6445(16) -0.0610(7)
C31 C 0.9538(15) 0.6632(15) -0.0067(7)
H37 H 1.0417 0.6605 -0.0112
H38 H 0.9506 0.5939 0.0192
C32 C 0.9027(17) 0.7990(15) 0.0838(7)
H39 H 0.9971 0.7556 0.0777
H40 H 0.8808 0.8838 0.0978
C33 C 0.8491(19) 0.7227(19) 0.1257(8)
H41 H 0.8546 0.6455 0.1092
H42 H 0.9000 0.6963 0.1565
C34 C 0.650(2) 0.7295(19) 0.1690(9)
H43 H 0.6969 0.6702 0.1970
H44 H 0.6391 0.6788 0.1417
C35 C 0.526(2) 0.813(3) 0.1935(10)
H45 H 0.5359 0.8734 0.2162
H46 H 0.4852 0.7625 0.2172
C36 C 0.325(2) 0.969(2) 0.1731(8)
H47 H 0.3338 1.0358 0.1923
H48 H 0.2802 0.9260 0.1991
C37 C 0.2474(19) 1.0287(17) 0.1265(9)
H49 H 0.3040 1.0466 0.0959
H50 H 0.1787 1.1107 0.1379
C38 C 0.3124(14) 0.7886(16) 0.0807(7)
H51 H 0.2918 0.7547 0.0501
H52 H 0.3854 0.8122 0.0668
C39 C 0.3540(15) 0.6858(16) 0.1226(8)
C40 C 0.2866(18) 0.6811(17) 0.1724(8)
H53 H 0.2058 0.7484 0.1813
C41 C 0.331(2) 0.582(2) 0.2107(9)
H54 H 0.2842 0.5838 0.2456
C42 C 0.444(2) 0.4814(19) 0.1966(10)
H55 H 0.4735 0.4126 0.2218
C43 C 0.516(2) 0.4766(18) 0.1467(10)
H56 H 0.5948 0.4066 0.1376
C44 C 0.4687(18) 0.5805(16) 0.1098(7)
Cu2A Cu 0.0978(2) 1.03041(19) 0.02469(9)
Cu2A_2 Cu 1.0978(2) 1.03041(19) 0.02469(9)
Br2A Br 1.14322(16) 0.86119(15) -0.04050(7)
S4A S 0.8252(4) 1.0679(4) -0.10242(18)
Cl1 Cl 0.6426(7) 0.4738(6) 0.5332(3)
Cl2 Cl 0.6210(9) 0.5484(9) 0.6438(4)
C45 C 0.548(2) 0.587(2) 0.5839(13)
H57 H 0.5407 0.6733 0.5705
H58 H 0.4613 0.5879 0.5914
Cl3 Cl 0.7816(10) 0.2066(9) 0.2068(4)
Cl4 Cl 0.9176(14) -0.0601(12) 0.2308(4)
C46 C 0.839(3) 0.052(2) 0.1843(10)
H59 H 0.7660 0.0354 0.1759
H60 H 0.8978 0.0453 0.1504
Cl5 Cl 0.5356(6) 0.8475(6) -0.0304(3)
Cl6 Cl 0.4832(8) 0.8424(8) -0.1405(4)
C47 C 0.432(2) 0.927(2) -0.0814(11)
H61 H 0.3439 0.9367 -0.0676
H62 H 0.4322 1.0128 -0.0893
Cl7 Cl 0.3296(16) 0.1902(13) 0.2832(6)
Cl8 Cl 0.598(2) 0.033(2) 0.2827(9)
C48 C 0.489(4) 0.135(4) 0.3076(17)
H63 H 0.5117 0.2090 0.3057
H64 H 0.4769 0.1103 0.3464
loop_
_geom_bond_atom_site_label_1
_geom_bond_atom_site_label_2
_geom_bond_site_symmetry_1
_geom_bond_site_symmetry_2
Cu1 Br1 1_555 1_555
Br1 Cu1A 1_555 1_555
S1 Cu1 1_555 1_555
S2 C15 1_555 1_555
O1 C1 1_555 1_555
O2 C2 1_555 1_555
O3 C11 1_555 1_555
O4 C13 1_555 1_555
C1 H1 1_555 1_555
H2 C1 1_555 1_555
C2 C1 1_555 1_555
H3 C2 1_555 1_555
H4 C2 1_555 1_555
C3 O2 1_555 1_555
C4 C3 1_555 1_555
H5 C4 1_555 1_555
C5 C4 1_555 1_555
H6 C5 1_555 1_555
C6 C5 1_555 1_555
H7 C6 1_555 1_555
C7 C6 1_555 1_555
H8 C7 1_555 1_555
C8 C3 1_555 1_555
C9 S1 1_555 1_555
H9 C9 1_555 1_555
H10 C9 1_555 1_555
C10 S1 1_555 1_555
H11 C10 1_555 1_555
H12 C10 1_555 1_555
C11 C10 1_555 1_555
H13 C11 1_555 1_555
H14 C11 1_555 1_555
C12 O3 1_555 1_555
H15 C12 1_555 1_555
H16 C12 1_555 1_555
C13 C12 1_555 1_555
H17 C13 1_555 1_555
H18 C13 1_555 1_555
C14 O4 1_555 1_555
H19 C14 1_555 1_555
H20 C14 1_555 1_555
C15 C14 1_555 1_555
H21 C15 1_555 1_555
H22 C15 1_555 1_555
C16 S2 1_555 1_555
H23 C16 1_555 1_555
H24 C16 1_555 1_555
C17 C16 1_555 1_555
C18 C17 1_555 1_555
H25 C18 1_555 1_555
C19 C18 1_555 1_555
H26 C19 1_555 1_555
C20 C19 1_555 1_555
H27 C20 1_555 1_555
C21 C20 1_555 1_555
H28 C21 1_555 1_555
C22 O1 1_555 1_555
Cu2 Br2 1_555 1_555
Br2 Cu2A_2 1_555 1_555
S3 Cu2 1_555 1_555
S4 C37 1_555 1_555
O5 C23 1_555 1_555
O6 C24 1_555 1_555
O7 C33 1_555 1_555
O8 C35 1_555 1_555
C23 H29 1_555 1_555
H30 C23 1_555 1_555
C24 C23 1_555 1_555
H31 C24 1_555 1_555
H32 C24 1_555 1_555
C25 O6 1_555 1_555
C26 C25 1_555 1_555
H33 C26 1_555 1_555
C27 C26 1_555 1_555
H34 C27 1_555 1_555
C28 C27 1_555 1_555
H35 C28 1_555 1_555
C29 C28 1_555 1_555
H36 C29 1_555 1_555
C30 C25 1_555 1_555
C31 S3 1_555 1_555
H37 C31 1_555 1_555
H38 C31 1_555 1_555
C32 S3 1_555 1_555
H39 C32 1_555 1_555
H40 C32 1_555 1_555
C33 C32 1_555 1_555
H41 C33 1_555 1_555
H42 C33 1_555 1_555
C34 O7 1_555 1_555
H43 C34 1_555 1_555
H44 C34 1_555 1_555
C35 C34 1_555 1_555
H45 C35 1_555 1_555
H46 C35 1_555 1_555
C36 O8 1_555 1_555
H47 C36 1_555 1_555
H48 C36 1_555 1_555
C37 C36 1_555 1_555
H49 C37 1_555 1_555
H50 C37 1_555 1_555
C38 S4 1_555 1_555
H51 C38 1_555 1_555
H52 C38 1_555 1_555
C39 C38 1_555 1_555
C40 C39 1_555 1_555
H53 C40 1_555 1_555
C41 C40 1_555 1_555
H54 C41 1_555 1_555
C42 C41 1_555 1_555
H55 C42 1_555 1_555
C43 C42 1_555 1_555
H56 C43 1_555 1_555
C44 O5 1_555 1_555
Cl1 C45 1_555 1_555
Cl2 C45 1_555 1_555
C45 H57 1_555 1_555
H58 C45 1_555 1_555
Cl3 C46 1_555 1_555
Cl4 C46 1_555 1_555
C46 H59 1_555 1_555
H60 C46 1_555 1_555
Cl5 C47 1_555 1_555
Cl6 C47 1_555 1_555
C47 H61 1_555 1_555
H62 C47 1_555 1_555
Cl7 C48 1_555 1_555
Cl8 C48 1_555 1_555
C48 H63 1_555 1_555
H64 C48 1_555 1_555
Cu1A Br1A 1_555 1_555
Cu1A_2 S2 1_555 1_555
Br1A Cu1 1_555 1_555
S2A Cu1 1_555 1_555
Cu2A S4 1_555 1_555
Cu2A_2 Br2A 1_555 1_555
Br2A Cu2 1_555 1_555
S4A Cu2 1_555 1_555
C7 C8 1_555 1_555
C8 C9 1_555 1_555
C17 C22 1_555 1_555
C21 C22 1_555 1_555
C29 C30 1_555 1_555
C30 C31 1_555 1_555
C39 C44 1_555 1_555
C43 C44 1_555 1_555

#END
