
#######################################################################
#
#                 Cambridge Crystallographic Data Centre
#                                CCDC 
#
#######################################################################
#
# If this CIF has been generated from an entry in the Cambridge 
# Structural Database, then it will include bibliographic, chemical, 
# crystal, experimental, refinement or atomic coordinate data resulting 
# from the CCDC's data processing and validation procedures.
#
#######################################################################

data_CEWCAJ
_symmetry_cell_setting           monoclinic
_symmetry_space_group_name_H-M   'C 2/c'
_symmetry_Int_Tables_number      15
_space_group_name_Hall           '-C 2yn'
loop_
_symmetry_equiv_pos_site_id
_symmetry_equiv_pos_as_xyz
1 x,y,z
2 1/2+x,1/2+y,z
3 -x,y,1/2-z
4 1/2-x,1/2+y,1/2-z
5 -x,-y,-z
6 1/2-x,1/2-y,-z
7 x,-y,1/2+z
8 1/2+x,1/2-y,1/2+z
_cell_length_a                   28.835(6)
_cell_length_b                   9.3050(19)
_cell_length_c                   15.051(3)
_cell_angle_alpha                90
_cell_angle_beta                 115.70(3)
_cell_angle_gamma                90
_cell_volume                     3638.85
loop_
_atom_site_label
_atom_site_type_symbol
_atom_site_fract_x
_atom_site_fract_y
_atom_site_fract_z
Zn1 Zn 0.12612(2) 0.84965(7) 0.17268(4)
O1 O 0.19937(14) 0.8190(4) 0.1335(3)
O2 O 0.12330(13) 0.7133(4) 0.0661(2)
O3 O 0.09672(14) 0.3593(5) -0.2133(3)
O4 O 0.16673(13) 0.2428(4) -0.2026(2)
O5 O 0.33648(13) 0.4042(5) 0.0218(3)
O6 O 0.34642(14) 0.5892(5) 0.1162(3)
N1 N 0.31986(16) 0.4995(5) 0.0555(3)
N2 N 0.13572(15) 1.0681(5) 0.1677(3)
N3 N 0.05238(15) 0.9173(5) 0.1444(3)
C1 C 0.18962(19) 0.6192(5) 0.0287(4)
C2 C 0.15785(18) 0.5279(6) -0.0468(4)
H1 H 0.1223 0.5338 -0.0695
C3 C 0.17840(18) 0.4287(6) -0.0886(3)
C4 C 0.23177(19) 0.4182(6) -0.0541(3)
H2 H 0.2460 0.3514 -0.0812
C5 C 0.26287(17) 0.5075(6) 0.0201(3)
C6 C 0.24392(19) 0.6111(6) 0.0623(3)
H3 H 0.2659 0.6730 0.1108
C7 C 0.1696(2) 0.7258(6) 0.0798(4)
C8 C 0.1426(2) 0.3377(7) -0.1752(4)
C9 C 0.1779(2) 1.1402(7) 0.1816(4)
H4 H 0.2078 1.0895 0.1936
C10 C 0.1788(2) 1.2902(7) 0.1789(4)
H5 H 0.2092 1.3380 0.1901
C11 C 0.1349(3) 1.3665(7) 0.1595(5)
H6 H 0.1349 1.4663 0.1564
C12 C 0.0895(2) 1.2914(7) 0.1444(4)
C13 C 0.0421(3) 1.3634(8) 0.1241(5)
H7 H 0.0400 1.4630 0.1193
C14 C 0.0011(2) 1.2857(8) 0.1121(5)
H8 H -0.0296 1.3331 0.0990
C15 C 0.0023(2) 1.1345(7) 0.1184(4)
C16 C -0.0403(2) 1.0487(8) 0.1073(4)
H9 H -0.0718 1.0914 0.0938
C17 C -0.0351(2) 0.9049(8) 0.1165(4)
H10 H -0.0630 0.8487 0.1103
C18 C 0.0119(2) 0.8393(7) 0.1353(4)
H11 H 0.0148 0.7398 0.1414
C19 C 0.04745(19) 1.0615(6) 0.1368(3)
C20 C 0.09235(19) 1.1437(6) 0.1496(3)
Zn1F Zn 0.12612(2) 0.15035(7) -0.32732(4)
O4F O 0.16673(13) 0.7572(4) 0.2974(2)
loop_
_geom_bond_atom_site_label_1
_geom_bond_atom_site_label_2
_geom_bond_site_symmetry_1
_geom_bond_site_symmetry_2
Zn1 O1 1_555 1_555
O1 C7 1_555 1_555
O2 Zn1 1_555 1_555
O3 C8 1_555 1_555
O4 C8 1_555 1_555
O5 N1 1_555 1_555
O6 N1 1_555 1_555
N1 C5 1_555 1_555
N2 Zn1 1_555 1_555
N3 Zn1 1_555 1_555
C1 C2 1_555 1_555
C2 H1 1_555 1_555
C3 C2 1_555 1_555
C4 C3 1_555 1_555
H2 C4 1_555 1_555
C5 C4 1_555 1_555
C6 C1 1_555 1_555
H3 C6 1_555 1_555
C7 O2 1_555 1_555
C8 C3 1_555 1_555
C9 N2 1_555 1_555
H4 C9 1_555 1_555
C10 C9 1_555 1_555
H5 C10 1_555 1_555
C11 C10 1_555 1_555
H6 C11 1_555 1_555
C12 C11 1_555 1_555
C13 C12 1_555 1_555
H7 C13 1_555 1_555
C14 C13 1_555 1_555
H8 C14 1_555 1_555
C15 C14 1_555 1_555
C16 C15 1_555 1_555
H9 C16 1_555 1_555
C17 C16 1_555 1_555
H10 C17 1_555 1_555
C18 N3 1_555 1_555
H11 C18 1_555 1_555
C19 N3 1_555 1_555
C20 N2 1_555 1_555
Zn1F O4 1_555 1_555
O4F Zn1 1_555 1_555
C1 C7 1_555 1_555
C5 C6 1_555 1_555
C12 C20 1_555 1_555
C15 C19 1_555 1_555
C17 C18 1_555 1_555
C19 C20 1_555 1_555

#END
