
#######################################################################
#
#                 Cambridge Crystallographic Data Centre
#                                CCDC 
#
#######################################################################
#
# If this CIF has been generated from an entry in the Cambridge 
# Structural Database, then it will include bibliographic, chemical, 
# crystal, experimental, refinement or atomic coordinate data resulting 
# from the CCDC's data processing and validation procedures.
#
#######################################################################

data_CEWCUE
_symmetry_cell_setting           triclinic
_symmetry_space_group_name_H-M   'P -1'
_symmetry_Int_Tables_number      2
_space_group_name_Hall           '-P 1'
loop_
_symmetry_equiv_pos_site_id
_symmetry_equiv_pos_as_xyz
1 x,y,z
2 -x,-y,-z
_cell_length_a                   8.9977(5)
_cell_length_b                   12.3432(6)
_cell_length_c                   12.9714(7)
_cell_angle_alpha                92.409(2)
_cell_angle_beta                 109.082(2)
_cell_angle_gamma                92.670(2)
_cell_volume                     1357.47
loop_
_atom_site_label
_atom_site_type_symbol
_atom_site_fract_x
_atom_site_fract_y
_atom_site_fract_z
Ag1 Ag 0.63008(2) 0.362373(16) 0.233967(18)
Ag2 Ag 0.81834(3) 0.02778(3) 0.53319(2)
S1 S 0.36191(8) 0.25202(5) 0.18518(6)
S2 S 0.60017(7) 0.55925(5) 0.18803(6)
S3 S 1.01747(9) 0.14824(6) 0.47670(7)
S4 S 0.73404(9) 0.09433(6) 0.68981(7)
O1 O 0.7782(2) 0.38317(13) 0.06129(16)
O2 O 0.5660(2) 0.19008(14) 0.01671(15)
O3 O 0.5335(2) 0.35762(16) 0.42001(16)
O4 O 0.8039(2) 0.47765(15) 0.41693(16)
N1 N 0.8187(3) 0.2447(2) 0.2946(2)
N2 N 0.4101(3) 0.0380(2) 0.5960(2)
C1 C 0.8145(3) 0.2758(2) 0.0336(2)
H1 H 0.8537 0.2350 0.1003
H2 H 0.8972 0.2802 -0.0013
C2 C 0.6674(3) 0.2198(2) -0.0433(2)
H3 H 0.6144 0.2687 -0.1008
H4 H 0.6929 0.1541 -0.0791
C3 C 0.4275(3) 0.13289(19) -0.0387(2)
C4 C 0.3702(3) 0.1118(2) -0.1515(2)
H5 H 0.4304 0.1357 -0.1952
C5 C 0.2252(4) 0.0559(2) -0.1996(3)
H6 H 0.1860 0.0415 -0.2766
C6 C 0.1378(3) 0.0211(2) -0.1370(3)
H7 H 0.0377 -0.0165 -0.1704
C7 C 0.1963(3) 0.0410(2) -0.0250(3)
H8 H 0.1355 0.0164 0.0181
C8 C 0.3411(3) 0.09570(19) 0.0258(2)
C9 C 0.4049(3) 0.1151(2) 0.1478(2)
H9 H 0.5201 0.1078 0.1740
H10 H 0.3556 0.0606 0.1825
C10 C 0.3273(3) 0.2342(2) 0.3135(2)
H11 H 0.2511 0.2868 0.3207
H12 H 0.2778 0.1603 0.3109
C11 C 0.4713(4) 0.2485(2) 0.4133(3)
H13 H 0.4435 0.2338 0.4794
H14 H 0.5504 0.1974 0.4077
C12 C 0.6668(4) 0.3832(3) 0.5145(2)
H15 H 0.7443 0.3271 0.5221
H16 H 0.6348 0.3857 0.5806
C13 C 0.7386(4) 0.4921(3) 0.5019(3)
H17 H 0.6572 0.5459 0.4829
H18 H 0.8217 0.5183 0.5709
C14 C 0.8576(3) 0.5756(2) 0.3831(3)
H19 H 0.9316 0.5584 0.3435
H20 H 0.9162 0.6231 0.4486
C15 C 0.7246(4) 0.6368(2) 0.3097(3)
H21 H 0.7708 0.7024 0.2873
H22 H 0.6581 0.6614 0.3526
C16 C 0.6957(3) 0.5922(2) 0.0876(2)
H23 H 0.6365 0.5525 0.0171
H24 H 0.6902 0.6709 0.0762
C17 C 0.8638(3) 0.5646(2) 0.1201(2)
C18 C 0.9848(3) 0.6439(2) 0.1650(2)
H25 H 0.9602 0.7172 0.1725
C19 C 1.1409(3) 0.6180(2) 0.1991(2)
H26 H 1.2228 0.6730 0.2302
C20 C 1.1761(3) 0.5123(3) 0.1874(2)
H27 H 1.2830 0.4943 0.2105
C21 C 1.0581(3) 0.4315(2) 0.1424(2)
H28 H 1.0839 0.3585 0.1349
C22 C 0.9024(3) 0.4573(2) 0.1083(2)
C23 C 0.8999(3) 0.2034(2) 0.3679(2)
C24 C 0.5436(4) 0.0613(2) 0.6329(2)
Ag2A Ag 0.18166(3) -0.02778(3) 0.46681(2)
Ag2A_2 Ag 1.18166(3) -0.02778(3) 0.46681(2)
S3A S 0.98253(9) -0.14824(6) 0.52330(7)
N2A N 0.5899(3) -0.0380(2) 0.4040(2)
loop_
_geom_bond_atom_site_label_1
_geom_bond_atom_site_label_2
_geom_bond_site_symmetry_1
_geom_bond_site_symmetry_2
Ag1 S1 1_555 1_555
Ag2 S3 1_555 1_555
S1 C9 1_555 1_555
S2 Ag1 1_555 1_555
S3 C23 1_555 1_555
S4 Ag2 1_555 1_555
O1 C1 1_555 1_555
O2 C2 1_555 1_555
O3 Ag1 1_555 1_555
O4 Ag1 1_555 1_555
N1 Ag1 1_555 1_555
N2 C24 1_555 1_555
C1 H1 1_555 1_555
H2 C1 1_555 1_555
C2 C1 1_555 1_555
H3 C2 1_555 1_555
H4 C2 1_555 1_555
C3 O2 1_555 1_555
C4 C3 1_555 1_555
H5 C4 1_555 1_555
C5 C4 1_555 1_555
H6 C5 1_555 1_555
C6 C5 1_555 1_555
H7 C6 1_555 1_555
C7 C6 1_555 1_555
H8 C7 1_555 1_555
C8 C3 1_555 1_555
C9 C8 1_555 1_555
H9 C9 1_555 1_555
H10 C9 1_555 1_555
C10 S1 1_555 1_555
H11 C10 1_555 1_555
H12 C10 1_555 1_555
C11 O3 1_555 1_555
H13 C11 1_555 1_555
H14 C11 1_555 1_555
C12 O3 1_555 1_555
H15 C12 1_555 1_555
H16 C12 1_555 1_555
C13 O4 1_555 1_555
H17 C13 1_555 1_555
H18 C13 1_555 1_555
C14 O4 1_555 1_555
H19 C14 1_555 1_555
H20 C14 1_555 1_555
C15 S2 1_555 1_555
H21 C15 1_555 1_555
H22 C15 1_555 1_555
C16 S2 1_555 1_555
H23 C16 1_555 1_555
H24 C16 1_555 1_555
C17 C16 1_555 1_555
C18 C17 1_555 1_555
H25 C18 1_555 1_555
C19 C18 1_555 1_555
H26 C19 1_555 1_555
C20 C19 1_555 1_555
H27 C20 1_555 1_555
C21 C20 1_555 1_555
H28 C21 1_555 1_555
C22 O1 1_555 1_555
C23 N1 1_555 1_555
C24 S4 1_555 1_555
Ag2A N2 1_555 1_555
Ag2A_2 S3 1_555 1_555
S3A Ag2 1_555 1_555
N2A Ag2 1_555 1_555
C7 C8 1_555 1_555
C10 C11 1_555 1_555
C12 C13 1_555 1_555
C14 C15 1_555 1_555
C17 C22 1_555 1_555
C21 C22 1_555 1_555
Ag2A_2 S3A 1_555 1_555

#END
