
#######################################################################
#
#                 Cambridge Crystallographic Data Centre
#                                CCDC 
#
#######################################################################
#
# If this CIF has been generated from an entry in the Cambridge 
# Structural Database, then it will include bibliographic, chemical, 
# crystal, experimental, refinement or atomic coordinate data resulting 
# from the CCDC's data processing and validation procedures.
#
#######################################################################

data_CEWDAL
_symmetry_cell_setting           monoclinic
_symmetry_space_group_name_H-M   'P 21/n'
_symmetry_Int_Tables_number      14
_space_group_name_Hall           '-P 2yn'
loop_
_symmetry_equiv_pos_site_id
_symmetry_equiv_pos_as_xyz
1 x,y,z
2 1/2-x,1/2+y,1/2-z
3 -x,-y,-z
4 1/2+x,1/2-y,1/2+z
_cell_length_a                   13.163(2)
_cell_length_b                   21.296(5)
_cell_length_c                   18.947(3)
_cell_angle_alpha                90
_cell_angle_beta                 106.167(5)
_cell_angle_gamma                90
_cell_volume                     5101.17
loop_
_atom_site_label
_atom_site_type_symbol
_atom_site_fract_x
_atom_site_fract_y
_atom_site_fract_z
Zn1 Zn 0.74799(4) 0.08396(2) 0.51046(3)
N1 N 0.7814(3) 0.02629(18) 0.4381(2)
N2 N 0.7930(3) -0.01483(18) 0.3342(2)
N3 N 0.7557(3) -0.0449(2) 0.0337(2)
N4 N 0.6283(3) 0.14096(18) 0.4619(2)
N5 N 0.5427(3) 0.23046(18) 0.4394(2)
N6 N 0.4922(3) 0.48983(19) 0.4677(2)
N7 N 0.8661(3) 0.14384(18) 0.5552(2)
N8 N 0.9524(3) 0.23331(17) 0.5728(2)
N9 N 1.0087(3) 0.49074(19) 0.5326(2)
N10 N 0.7226(3) 0.02889(18) -0.4116(2)
N11 N 0.7167(3) -0.00422(18) -0.3027(2)
N12 N 0.7436(3) 0.0051(2) -0.0015(2)
C1 C 0.7570(4) 0.0340(2) 0.3660(3)
H1 H 0.7203 0.0682 0.3407
C2 C 0.8355(4) -0.0301(2) 0.4529(3)
H2 H 0.8629 -0.0474 0.4993
C3 C 0.8421(4) -0.0561(2) 0.3893(3)
H3 H 0.8735 -0.0942 0.3837
C4 C 0.7812(4) -0.0216(2) 0.2572(3)
C5 C 0.7701(4) 0.0316(2) 0.2141(3)
H4 H 0.7689 0.0712 0.2346
C6 C 0.7610(4) 0.0250(3) 0.1399(3)
H5 H 0.7527 0.0602 0.1099
C7 C 0.7642(4) -0.0348(2) 0.1102(3)
C8 C 0.7757(4) -0.0871(2) 0.1535(3)
H6 H 0.7783 -0.1266 0.1331
C9 C 0.7836(4) -0.0812(2) 0.2277(3)
H7 H 0.7905 -0.1166 0.2574
C10 C 0.6205(4) 0.1984(2) 0.4865(3)
H8 H 0.6632 0.2144 0.5304
C11 C 0.5516(4) 0.1362(2) 0.3950(3)
H9 H 0.5385 0.1007 0.3652
C12 C 0.4988(4) 0.1913(2) 0.3801(3)
H10 H 0.4442 0.2010 0.3385
C13 C 0.5219(4) 0.2960(2) 0.4466(3)
C14 C 0.4973(4) 0.3339(2) 0.3852(3)
H11 H 0.4892 0.3169 0.3388
C15 C 0.4849(4) 0.3979(2) 0.3940(3)
H12 H 0.4668 0.4239 0.3530
C16 C 0.4995(4) 0.4231(2) 0.4636(3)
C17 C 0.5220(4) 0.3838(2) 0.5248(3)
H13 H 0.5297 0.4005 0.5713
C18 C 0.8771(4) 0.1989(2) 0.5266(3)
H14 H 0.8377 0.2122 0.4803
C19 C 0.9381(4) 0.1428(2) 0.6241(3)
H15 H 0.9482 0.1097 0.6573
C20 C 0.9913(4) 0.1979(2) 0.6354(3)
H16 H 1.0439 0.2096 0.6773
C21 C 0.9740(4) 0.2980(2) 0.5620(3)
C22 C 0.9624(4) 0.3197(2) 0.4905(3)
H17 H 0.9467 0.2919 0.4511
C23 C 0.9745(4) 0.3827(2) 0.4793(3)
H18 H 0.9664 0.3977 0.4319
C24 C 0.9990(4) 0.4242(2) 0.5387(3)
C25 C 1.0133(4) 0.4012(2) 0.6098(3)
H19 H 1.0321 0.4285 0.6496
C26 C 0.9998(4) 0.3379(2) 0.6215(3)
H20 H 1.0081 0.3227 0.6688
C27 C 0.7355(4) 0.0452(2) -0.3422(3)
H21 H 0.7548 0.0851 -0.3232
C28 C 0.6958(4) -0.0340(2) -0.4169(3)
H22 H 0.6826 -0.0583 -0.4593
C29 C 0.6920(4) -0.0547(2) -0.3496(3)
H23 H 0.6757 -0.0951 -0.3378
C30 C 0.7238(4) -0.0038(2) -0.2259(3)
C31 C 0.7322(4) -0.0602(2) -0.1877(3)
H24 H 0.7345 -0.0981 -0.2117
C32 C 0.7370(4) -0.0599(3) -0.1135(3)
H25 H 0.7414 -0.0973 -0.0876
C33 C 0.7352(4) -0.0025(2) -0.0785(3)
C34 C 0.7271(4) 0.0526(3) -0.1173(3)
H26 H 0.7254 0.0904 -0.0932
C35 C 0.7214(4) 0.0533(2) -0.1909(3)
H27 H 0.7162 0.0910 -0.2166
C36 C 0.5328(4) 0.3203(2) 0.5164(3)
H28 H 0.5473 0.2939 0.5570
N4B N 0.3717(3) 0.85904(18) 0.5381(2)
N5B N 0.4573(3) 0.76954(18) 0.5606(2)
N6B N 0.5078(3) 0.51017(19) 0.5323(2)
C10B C 0.3795(4) 0.8016(2) 0.5135(3)
H8B H 0.3368 0.7856 0.4696
C11B C 0.4484(4) 0.8638(2) 0.6050(3)
H9B H 0.4615 0.8993 0.6348
C12B C 0.5012(4) 0.8087(2) 0.6199(3)
H10B H 0.5558 0.7990 0.6615
C13B C 0.4781(4) 0.7040(2) 0.5534(3)
C14B C 0.5027(4) 0.6661(2) 0.6148(3)
H11B H 0.5108 0.6831 0.6612
C15B C 0.5151(4) 0.6021(2) 0.6060(3)
H12B H 0.5332 0.5761 0.6470
C16B C 0.5005(4) 0.5769(2) 0.5364(3)
C17B C 0.4780(4) 0.6162(2) 0.4752(3)
H13B H 0.4703 0.5995 0.4287
C36B C 0.4672(4) 0.6797(2) 0.4836(3)
H28B H 0.4527 0.7061 0.4430
N7B N 1.1339(3) 0.85616(18) 0.4448(2)
N8B N 1.0476(3) 0.76669(17) 0.4272(2)
N9B N 0.9913(3) 0.50926(19) 0.4674(2)
C18B C 1.1229(4) 0.8011(2) 0.4734(3)
H14B H 1.1623 0.7878 0.5197
C19B C 1.0619(4) 0.8572(2) 0.3759(3)
H15B H 1.0518 0.8903 0.3427
C20B C 1.0087(4) 0.8021(2) 0.3646(3)
H16B H 0.9561 0.7904 0.3227
C21B C 1.0260(4) 0.7020(2) 0.4380(3)
C22B C 1.0376(4) 0.6803(2) 0.5095(3)
H17B H 1.0533 0.7081 0.5489
C23B C 1.0255(4) 0.6173(2) 0.5207(3)
H18B H 1.0336 0.6023 0.5681
C24B C 1.0010(4) 0.5758(2) 0.4613(3)
C25B C 0.9867(4) 0.5988(2) 0.3902(3)
H19B H 0.9679 0.5715 0.3504
C26B C 1.0002(4) 0.6621(2) 0.3785(3)
H20B H 0.9919 0.6773 0.3312
Zn1B Zn 0.25201(4) 0.91604(2) 0.48954(3)
N1B N 0.2186(3) 0.97371(18) 0.5619(2)
N2B N 0.2070(3) 1.01483(18) 0.6658(2)
N3B N 0.2443(3) 1.0449(2) 0.9663(2)
N10B N 0.2774(3) 0.97111(18) 1.4116(2)
N11B N 0.2833(3) 1.00422(18) 1.3027(2)
N12B N 0.2564(3) 0.9949(2) 1.0015(2)
C1B C 0.2430(4) 0.9660(2) 0.6340(3)
H1B H 0.2797 0.9318 0.6593
C2B C 0.1645(4) 1.0301(2) 0.5471(3)
H2B H 0.1371 1.0474 0.5007
C3B C 0.1579(4) 1.0561(2) 0.6107(3)
H3B H 0.1265 1.0942 0.6163
C4B C 0.2188(4) 1.0216(2) 0.7428(3)
C5B C 0.2299(4) 0.9684(2) 0.7859(3)
H4B H 0.2311 0.9288 0.7654
C6B C 0.2390(4) 0.9750(3) 0.8601(3)
H5B H 0.2473 0.9398 0.8901
C7B C 0.2358(4) 1.0348(2) 0.8898(3)
C8B C 0.2243(4) 1.0871(2) 0.8465(3)
H6B H 0.2217 1.1266 0.8669
C9B C 0.2164(4) 1.0812(2) 0.7723(3)
H7B H 0.2095 1.1166 0.7426
C27B C 0.2645(4) 0.9548(2) 1.3422(3)
H21B H 0.2452 0.9149 1.3232
C28B C 0.3042(4) 1.0340(2) 1.4169(3)
H22B H 0.3174 1.0583 1.4593
C29B C 0.3080(4) 1.0547(2) 1.3496(3)
H23B H 0.3243 1.0951 1.3378
C30B C 0.2762(4) 1.0038(2) 1.2259(3)
C31B C 0.2678(4) 1.0602(2) 1.1877(3)
H24B H 0.2655 1.0981 1.2117
C32B C 0.2630(4) 1.0599(3) 1.1135(3)
H25B H 0.2586 1.0973 1.0876
C33B C 0.2648(4) 1.0025(2) 1.0785(3)
C34B C 0.2729(4) 0.9474(3) 1.1173(3)
H26B H 0.2746 0.9096 1.0932
C35B C 0.2786(4) 0.9467(2) 1.1909(3)
H27B H 0.2838 0.9090 1.2166
Zn1_2 Zn 0.74799(4) 0.08396(2) -0.48954(3)
Zn1B_2 Zn 0.25201(4) 0.91604(2) 1.48954(3)
Zn1B_3 Zn 1.25201(4) 0.91604(2) 0.48954(3)
N7B_2 N 0.1339(3) 0.85616(18) 0.4448(2)
N10_2 N 0.7226(3) 0.02889(18) 0.5884(2)
N10B_2 N 0.2774(3) 0.97111(18) 0.4116(2)
Cl1 Cl 0.75343(12) 0.23028(6) 0.29892(9)
O1 O 0.6896(9) 0.2578(3) 0.3361(8)
O2 O 0.8611(6) 0.2419(4) 0.3355(3)
O3 O 0.7312(6) 0.1665(2) 0.2896(4)
O4 O 0.7380(5) 0.2599(3) 0.2312(4)
Cl2 Cl 0.73767(10) 0.24359(5) 0.70225(6)
O5 O 0.7751(3) 0.26523(18) 0.6420(2)
O6 O 0.7925(4) 0.18702(18) 0.7326(2)
O7 O 0.7563(3) 0.29063(17) 0.7583(2)
O8 O 0.6260(3) 0.2315(2) 0.6757(2)
O9 O 0.4689(3) -0.02229(17) 0.7258(2)
N13 N 0.4655(4) 0.0844(2) 0.7148(3)
C37 C 0.4680(4) 0.0305(2) 0.7515(3)
H29 H 0.4691 0.0333 0.8007
C38 C 0.4610(5) 0.0847(3) 0.6372(3)
H30 H 0.4593 0.1273 0.6203
H31 H 0.3984 0.0632 0.6097
H32 H 0.5223 0.0639 0.6305
C39 C 0.4617(5) 0.1443(3) 0.7500(4)
H33 H 0.4599 0.1776 0.7155
H34 H 0.5233 0.1489 0.7911
H35 H 0.3994 0.1463 0.7669
O10 O 0.7558(9) 0.3436(3) 0.9961(4)
N14 N 0.7466(4) 0.2385(2) 1.0014(3)
C40 C 0.7558(5) 0.1832(3) 1.0461(4)
H36 H 0.7456 0.1466 1.0153
H37 H 0.7031 0.1842 1.0723
H38 H 0.8248 0.1818 1.0805
C41 C 0.7268(6) 0.2312(3) 0.9234(4)
H39 H 0.7209 0.1874 0.9111
H40 H 0.7840 0.2493 0.9081
H41 H 0.6620 0.2522 0.8987
C42 C 0.7580(12) 0.2943(4) 1.0311(5)
H42 H 0.7685 0.2972 1.0816
O11 O 1.0389(3) -0.01867(19) 0.2705(3)
N15 N 1.0164(4) 0.0882(2) 0.2752(3)
C43 C 1.0253(4) 0.0328(3) 0.2410(3)
H43 H 1.0205 0.0344 0.1912
C44 C 1.0186(5) 0.0899(3) 0.3507(3)
H44 H 1.0112 0.1325 0.3650
H45 H 1.0846 0.0732 0.3800
H46 H 0.9613 0.0652 0.3580
C45 C 1.0030(5) 0.1466(3) 0.2357(4)
H47 H 0.9982 0.1803 0.2682
H48 H 0.9395 0.1450 0.1958
H49 H 1.0626 0.1534 0.2167
loop_
_geom_bond_atom_site_label_1
_geom_bond_atom_site_label_2
_geom_bond_site_symmetry_1
_geom_bond_site_symmetry_2
Zn1 N1 1_555 1_555
N1 C1 1_555 1_555
N2 C1 1_555 1_555
N3 N12 1_555 1_555
N4 Zn1 1_555 1_555
N5 C10 1_555 1_555
N6 C16 1_555 1_555
N7 Zn1 1_555 1_555
N8 C18 1_555 1_555
N9 C24 1_555 1_555
N10 C27 1_555 1_555
N11 C27 1_555 1_555
N12 C33 1_555 1_555
C1 H1 1_555 1_555
C2 N1 1_555 1_555
H2 C2 1_555 1_555
C3 N2 1_555 1_555
H3 C3 1_555 1_555
C4 N2 1_555 1_555
C5 C4 1_555 1_555
H4 C5 1_555 1_555
C6 C5 1_555 1_555
H5 C6 1_555 1_555
C7 N3 1_555 1_555
C8 C7 1_555 1_555
H6 C8 1_555 1_555
C9 C4 1_555 1_555
H7 C9 1_555 1_555
C10 N4 1_555 1_555
H8 C10 1_555 1_555
C11 N4 1_555 1_555
H9 C11 1_555 1_555
C12 N5 1_555 1_555
H10 C12 1_555 1_555
C13 N5 1_555 1_555
C14 C13 1_555 1_555
H11 C14 1_555 1_555
C15 C14 1_555 1_555
H12 C15 1_555 1_555
C16 C15 1_555 1_555
C17 C16 1_555 1_555
H13 C17 1_555 1_555
C18 N7 1_555 1_555
H14 C18 1_555 1_555
C19 N7 1_555 1_555
H15 C19 1_555 1_555
C20 N8 1_555 1_555
H16 C20 1_555 1_555
C21 N8 1_555 1_555
C22 C21 1_555 1_555
H17 C22 1_555 1_555
C23 C22 1_555 1_555
H18 C23 1_555 1_555
C24 C23 1_555 1_555
C25 C24 1_555 1_555
H19 C25 1_555 1_555
C26 C21 1_555 1_555
H20 C26 1_555 1_555
C27 H21 1_555 1_555
C28 N10 1_555 1_555
H22 C28 1_555 1_555
C29 N11 1_555 1_555
H23 C29 1_555 1_555
C30 N11 1_555 1_555
C31 C30 1_555 1_555
H24 C31 1_555 1_555
C32 C31 1_555 1_555
H25 C32 1_555 1_555
C33 C32 1_555 1_555
C34 C33 1_555 1_555
H26 C34 1_555 1_555
C35 C30 1_555 1_555
H27 C35 1_555 1_555
C36 C13 1_555 1_555
H28 C36 1_555 1_555
Cl1 O1 1_555 1_555
O2 Cl1 1_555 1_555
O3 Cl1 1_555 1_555
O4 Cl1 1_555 1_555
Cl2 O5 1_555 1_555
O6 Cl2 1_555 1_555
O7 Cl2 1_555 1_555
O8 Cl2 1_555 1_555
O9 C37 1_555 1_555
N13 C37 1_555 1_555
C37 H29 1_555 1_555
C38 N13 1_555 1_555
H30 C38 1_555 1_555
H31 C38 1_555 1_555
H32 C38 1_555 1_555
C39 N13 1_555 1_555
H33 C39 1_555 1_555
H34 C39 1_555 1_555
H35 C39 1_555 1_555
O10 C42 1_555 1_555
N14 C40 1_555 1_555
C40 H36 1_555 1_555
H37 C40 1_555 1_555
H38 C40 1_555 1_555
C41 N14 1_555 1_555
H39 C41 1_555 1_555
H40 C41 1_555 1_555
H41 C41 1_555 1_555
C42 N14 1_555 1_555
H42 C42 1_555 1_555
O11 C43 1_555 1_555
N15 C43 1_555 1_555
C43 H43 1_555 1_555
C44 N15 1_555 1_555
H44 C44 1_555 1_555
H45 C44 1_555 1_555
H46 C44 1_555 1_555
C45 N15 1_555 1_555
H47 C45 1_555 1_555
H48 C45 1_555 1_555
H49 C45 1_555 1_555
N4B C10B 1_555 1_555
N5B C10B 1_555 1_555
N6B N6 1_555 1_555
C10B H8B 1_555 1_555
C11B N4B 1_555 1_555
H9B C11B 1_555 1_555
C12B N5B 1_555 1_555
H10B C12B 1_555 1_555
C13B N5B 1_555 1_555
C14B C13B 1_555 1_555
H11B C14B 1_555 1_555
C15B C14B 1_555 1_555
H12B C15B 1_555 1_555
C16B N6B 1_555 1_555
C17B C16B 1_555 1_555
H13B C17B 1_555 1_555
C36B C13B 1_555 1_555
H28B C36B 1_555 1_555
N7B C18B 1_555 1_555
N8B C18B 1_555 1_555
N9B N9 1_555 1_555
C18B H14B 1_555 1_555
C19B N7B 1_555 1_555
H15B C19B 1_555 1_555
C20B N8B 1_555 1_555
H16B C20B 1_555 1_555
C21B N8B 1_555 1_555
C22B C21B 1_555 1_555
H17B C22B 1_555 1_555
C23B C22B 1_555 1_555
H18B C23B 1_555 1_555
C24B N9B 1_555 1_555
C25B C24B 1_555 1_555
H19B C25B 1_555 1_555
C26B C21B 1_555 1_555
H20B C26B 1_555 1_555
Zn1B N4B 1_555 1_555
N1B Zn1B 1_555 1_555
N2B C1B 1_555 1_555
N3B N12B 1_555 1_555
N10B C27B 1_555 1_555
N11B C27B 1_555 1_555
N12B C33B 1_555 1_555
C1B N1B 1_555 1_555
H1B C1B 1_555 1_555
C2B N1B 1_555 1_555
H2B C2B 1_555 1_555
C3B N2B 1_555 1_555
H3B C3B 1_555 1_555
C4B N2B 1_555 1_555
C5B C4B 1_555 1_555
H4B C5B 1_555 1_555
C6B C5B 1_555 1_555
H5B C6B 1_555 1_555
C7B N3B 1_555 1_555
C8B C7B 1_555 1_555
H6B C8B 1_555 1_555
C9B C4B 1_555 1_555
H7B C9B 1_555 1_555
C27B H21B 1_555 1_555
C28B N10B 1_555 1_555
H22B C28B 1_555 1_555
C29B N11B 1_555 1_555
H23B C29B 1_555 1_555
C30B N11B 1_555 1_555
C31B C30B 1_555 1_555
H24B C31B 1_555 1_555
C32B C31B 1_555 1_555
H25B C32B 1_555 1_555
C33B C32B 1_555 1_555
C34B C33B 1_555 1_555
H26B C34B 1_555 1_555
C35B C30B 1_555 1_555
H27B C35B 1_555 1_555
Zn1_2 N10 1_555 1_555
Zn1B_2 N10B 1_555 1_555
Zn1B_3 N7B 1_555 1_555
N7B_2 Zn1B 1_555 1_555
N10_2 Zn1 1_555 1_555
N10B_2 Zn1B 1_555 1_555
C2 C3 1_555 1_555
C6 C7 1_555 1_555
C8 C9 1_555 1_555
C11 C12 1_555 1_555
C17 C36 1_555 1_555
C19 C20 1_555 1_555
C25 C26 1_555 1_555
C28 C29 1_555 1_555
C34 C35 1_555 1_555
C11B C12B 1_555 1_555
C15B C16B 1_555 1_555
C17B C36B 1_555 1_555
C19B C20B 1_555 1_555
C23B C24B 1_555 1_555
C25B C26B 1_555 1_555
C2B C3B 1_555 1_555
C6B C7B 1_555 1_555
C8B C9B 1_555 1_555
C28B C29B 1_555 1_555
C34B C35B 1_555 1_555

#END
