
#######################################################################
#
#                 Cambridge Crystallographic Data Centre
#                                CCDC 
#
#######################################################################
#
# If this CIF has been generated from an entry in the Cambridge 
# Structural Database, then it will include bibliographic, chemical, 
# crystal, experimental, refinement or atomic coordinate data resulting 
# from the CCDC's data processing and validation procedures.
#
#######################################################################

data_CEWDUF
_symmetry_cell_setting           monoclinic
_symmetry_space_group_name_H-M   'P 21/n'
_symmetry_Int_Tables_number      14
_space_group_name_Hall           '-P 2yn'
loop_
_symmetry_equiv_pos_site_id
_symmetry_equiv_pos_as_xyz
1 x,y,z
2 1/2-x,1/2+y,1/2-z
3 -x,-y,-z
4 1/2+x,1/2-y,1/2+z
_cell_length_a                   13.419(5)
_cell_length_b                   20.811(2)
_cell_length_c                   19.156(7)
_cell_angle_alpha                90
_cell_angle_beta                 108.284(5)
_cell_angle_gamma                90
_cell_volume                     5079.48
loop_
_atom_site_label
_atom_site_type_symbol
_atom_site_fract_x
_atom_site_fract_y
_atom_site_fract_z
Cl1 Cl 0.7442(3) 0.22158(18) -0.18205(18)
O1 O 0.7116(8) 0.2531(5) -0.1238(5)
O2 O 0.7278(10) 0.2605(9) -0.2423(8)
O3 O 0.8362(15) 0.2035(12) -0.1592(10)
O4 O 0.6829(15) 0.1656(7) -0.2026(8)
Cl2 Cl 0.7384(2) 0.24740(15) 0.21039(16)
O5 O 0.6327(9) 0.2295(9) 0.1898(7)
O6 O 0.7741(8) 0.2698(4) 0.1481(5)
O7 O 0.8094(11) 0.1984(5) 0.2507(8)
O8 O 0.7486(13) 0.2993(6) 0.2552(6)
Zn1 Zn 0.74348(11) 0.07501(7) 0.02720(7)
N1 N 0.7844(6) 0.0198(4) -0.0419(4)
C1 C 0.7894(9) -0.0220(6) -0.2233(5)
N2 N 0.7597(7) -0.0364(5) -0.4465(5)
N3 N 0.7491(8) 0.0152(4) -0.4824(4)
N4 N 0.7244(7) 0.0248(5) -0.8902(5)
N5 N 0.7223(8) -0.0024(4) -0.7797(4)
N6 N 0.8579(6) 0.1403(5) 0.0706(5)
N7 N 0.9457(7) 0.2329(5) 0.0856(5)
N8 N 1.0070(7) 0.4929(5) 0.0347(6)
N9 N 0.6217(8) 0.1314(4) -0.0247(5)
N10 N 0.5360(8) 0.2237(5) -0.0536(5)
N11 N 0.4922(7) 0.4876(5) -0.0320(5)
C2 C 0.7599(9) 0.0282(6) -0.1151(6)
H1 H 0.7181 0.0616 -0.1407
N12 N 0.8020(7) -0.0162(4) -0.1464(5)
C3 C 0.8585(11) -0.0574(7) -0.0926(7)
H2 H 0.8996 -0.0921 -0.0976
C4 C 0.8412(11) -0.0364(7) -0.0309(7)
H3 H 0.8649 -0.0575 0.0141
C5 C 0.7680(10) 0.0336(6) -0.2653(6)
H4 H 0.7580 0.0724 -0.2443
C6 C 0.7614(10) 0.0307(6) -0.3397(6)
H5 H 0.7528 0.0681 -0.3674
C7 C 0.7678(10) -0.0278(6) -0.3715(6)
C8 C 0.7833(8) -0.0860(6) -0.3292(6)
H6 H 0.7857 -0.1260 -0.3502
C9 C 0.7945(8) -0.0789(5) -0.2537(6)
H7 H 0.8059 -0.1153 -0.2242
C10 C 0.7325(7) 0.0455(5) -0.8226(5)
H8 H 0.7439 0.0881 -0.8076
C11 C 0.6958(10) -0.0377(8) -0.8957(8)
H9 H 0.6794 -0.0634 -0.9374
C12 C 0.6961(9) -0.0550(7) -0.8260(7)
H10 H 0.6809 -0.0959 -0.8123
C13 C 0.7292(7) -0.0024(5) -0.7030(6)
C14 C 0.7297(9) 0.0632(6) -0.6712(6)
H11 H 0.7278 0.1010 -0.6973
C15 C 0.7332(9) 0.0611(6) -0.6009(6)
H12 H 0.7318 0.1006 -0.5785
C16 C 0.7387(9) 0.0072(6) -0.5572(5)
C17 C 0.7390(9) -0.0540(6) -0.5915(6)
H13 H 0.7428 -0.0918 -0.5649
C18 C 0.7336(10) -0.0557(6) -0.6615(6)
H14 H 0.7329 -0.0957 -0.6835
C19 C 0.8667(11) 0.1966(6) 0.0403(6)
H15 H 0.8244 0.2098 -0.0059
C20 C 0.9367(9) 0.1399(6) 0.1406(6)
H16 H 0.9502 0.1071 0.1753
C21 C 0.9900(10) 0.1987(7) 0.1469(6)
H17 H 1.0464 0.2118 0.1867
C22 C 0.9678(7) 0.2982(6) 0.0703(6)
C23 C 0.9958(10) 0.3399(6) 0.1280(6)
H18 H 1.0044 0.3263 0.1757
C24 C 1.0110(9) 0.4036(6) 0.1126(7)
H19 H 1.0308 0.4336 0.1504
C25 C 0.9965(9) 0.4225(6) 0.0400(7)
C26 C 0.9638(9) 0.3770(8) -0.0154(7)
H20 H 0.9506 0.3902 -0.0639
C27 C 0.9505(9) 0.3157(6) -0.0024(6)
H21 H 0.9304 0.2857 -0.0402
C28 C 0.6157(9) 0.1913(5) -0.0018(6)
H22 H 0.6584 0.2087 0.0421
C29 C 0.4946(9) 0.1832(5) -0.1144(5)
H23 H 0.4432 0.1931 -0.1584
C30 C 0.5451(8) 0.1266(5) -0.0954(6)
H24 H 0.5317 0.0898 -0.1244
C31 C 0.5201(9) 0.2895(5) -0.0481(7)
C32 C 0.5015(8) 0.3301(5) -0.1095(6)
H25 H 0.4959 0.3127 -0.1553
C33 C 0.4917(8) 0.3940(5) -0.1026(7)
H26 H 0.4800 0.4207 -0.1433
C34 C 0.4994(8) 0.4202(6) -0.0329(8)
C35 C 0.5172(8) 0.3818(5) 0.0270(6)
H27 H 0.5223 0.3991 0.0728
C36 C 0.5276(10) 0.3163(6) 0.0186(6)
H28 H 0.5401 0.2898 0.0595
N6B N 1.1421(6) 0.8597(5) -0.0706(5)
N7B N 1.0543(7) 0.7671(5) -0.0856(5)
N8B N 0.9930(7) 0.5071(5) -0.0347(6)
C19B C 1.1333(11) 0.8034(6) -0.0403(6)
H15B H 1.1756 0.7902 0.0059
C20B C 1.0633(9) 0.8601(6) -0.1406(6)
H16B H 1.0498 0.8929 -0.1753
C21B C 1.0100(10) 0.8013(7) -0.1469(6)
H17B H 0.9536 0.7882 -0.1867
C22B C 1.0322(7) 0.7018(6) -0.0703(6)
C23B C 1.0042(10) 0.6601(6) -0.1280(6)
H18B H 0.9956 0.6737 -0.1757
C24B C 0.9890(9) 0.5964(6) -0.1126(7)
H19B H 0.9692 0.5664 -0.1504
C25B C 1.0035(9) 0.5775(6) -0.0400(7)
C26B C 1.0362(9) 0.6230(8) 0.0154(7)
H20B H 1.0494 0.6098 0.0639
C27B C 1.0495(9) 0.6843(6) 0.0024(6)
H21B H 1.0696 0.7143 0.0402
N9B N 0.3783(8) 0.8686(4) 0.0247(5)
N10B N 0.4640(8) 0.7763(5) 0.0536(5)
N11B N 0.5078(7) 0.5124(5) 0.0320(5)
C28B C 0.3843(9) 0.8087(5) 0.0018(6)
H22B H 0.3416 0.7913 -0.0421
C29B C 0.5054(9) 0.8168(5) 0.1144(5)
H23B H 0.5568 0.8069 0.1584
C30B C 0.4549(8) 0.8734(5) 0.0954(6)
H24B H 0.4683 0.9102 0.1244
C31B C 0.4799(9) 0.7105(5) 0.0481(7)
C32B C 0.4985(8) 0.6699(5) 0.1095(6)
H25B H 0.5041 0.6873 0.1553
C33B C 0.5083(8) 0.6060(5) 0.1026(7)
H26B H 0.5200 0.5793 0.1433
C34B C 0.5006(8) 0.5798(6) 0.0329(8)
C35B C 0.4828(8) 0.6182(5) -0.0270(6)
H27B H 0.4777 0.6009 -0.0728
C36B C 0.4724(10) 0.6837(6) -0.0186(6)
H28B H 0.4599 0.7102 -0.0595
Zn1B Zn 0.25652(11) 0.92499(7) -0.02720(7)
N1B N 0.2156(6) 0.9802(4) 0.0419(4)
C1B C 0.2106(9) 1.0220(6) 0.2233(5)
N2B N 0.2403(7) 1.0364(5) 0.4465(5)
N3B N 0.2509(8) 0.9848(4) 0.4824(4)
N4B N 0.2756(7) 0.9752(5) 0.8902(5)
N5B N 0.2777(8) 1.0024(4) 0.7797(4)
C2B C 0.2401(9) 0.9718(6) 0.1151(6)
H1B H 0.2819 0.9384 0.1407
N12B N 0.1980(7) 1.0162(4) 0.1464(5)
C3B C 0.1415(11) 1.0574(7) 0.0926(7)
H2B H 0.1004 1.0921 0.0976
C4B C 0.1588(11) 1.0364(7) 0.0309(7)
H3B H 0.1351 1.0575 -0.0141
C5B C 0.2320(10) 0.9664(6) 0.2653(6)
H4B H 0.2420 0.9276 0.2443
C6B C 0.2386(10) 0.9693(6) 0.3397(6)
H5B H 0.2472 0.9319 0.3674
C7B C 0.2322(10) 1.0278(6) 0.3715(6)
C8B C 0.2167(8) 1.0860(6) 0.3292(6)
H6B H 0.2143 1.1260 0.3502
C9B C 0.2055(8) 1.0789(5) 0.2537(6)
H7B H 0.1941 1.1153 0.2242
C10B C 0.2675(7) 0.9545(5) 0.8226(5)
H8B H 0.2561 0.9119 0.8076
C11B C 0.3042(10) 1.0377(8) 0.8957(8)
H9B H 0.3206 1.0634 0.9374
C12B C 0.3039(9) 1.0550(7) 0.8260(7)
H10B H 0.3191 1.0959 0.8123
C13B C 0.2708(7) 1.0024(5) 0.7030(6)
C14B C 0.2703(9) 0.9368(6) 0.6712(6)
H11B H 0.2722 0.8990 0.6973
C15B C 0.2668(9) 0.9389(6) 0.6009(6)
H12B H 0.2682 0.8994 0.5785
C16B C 0.2613(9) 0.9928(6) 0.5572(5)
C17B C 0.2610(9) 1.0540(6) 0.5915(6)
H13B H 0.2572 1.0918 0.5649
C18B C 0.2664(10) 1.0557(6) 0.6615(6)
H14B H 0.2671 1.0957 0.6835
Zn1_2 Zn 0.74348(11) 0.07501(7) -0.97280(7)
Zn1B_2 Zn 0.25652(11) 0.92499(7) 0.97280(7)
Zn1B_3 Zn 1.25652(11) 0.92499(7) -0.02720(7)
N4_2 N 0.7244(7) 0.0248(5) 0.1098(5)
N4B_2 N 0.2756(7) 0.9752(5) -0.1098(5)
N6B_2 N 0.1421(6) 0.8597(5) -0.0706(5)
loop_
_geom_bond_atom_site_label_1
_geom_bond_atom_site_label_2
_geom_bond_site_symmetry_1
_geom_bond_site_symmetry_2
Zn1 N1 1_555 1_555
N1 C2 1_555 1_555
C1 N12 1_555 1_555
N2 N3 1_555 1_555
N3 C16 1_555 1_555
N4 C10 1_555 1_555
N5 C10 1_555 1_555
N6 Zn1 1_555 1_555
N7 C19 1_555 1_555
N8 C25 1_555 1_555
N9 Zn1 1_555 1_555
N10 C28 1_555 1_555
N11 C34 1_555 1_555
C2 H1 1_555 1_555
N12 C2 1_555 1_555
C3 N12 1_555 1_555
H2 C3 1_555 1_555
C4 N1 1_555 1_555
H3 C4 1_555 1_555
C5 C1 1_555 1_555
H4 C5 1_555 1_555
C6 C5 1_555 1_555
H5 C6 1_555 1_555
C7 N2 1_555 1_555
C8 C7 1_555 1_555
H6 C8 1_555 1_555
C9 C1 1_555 1_555
H7 C9 1_555 1_555
C10 H8 1_555 1_555
C11 N4 1_555 1_555
H9 C11 1_555 1_555
C12 N5 1_555 1_555
H10 C12 1_555 1_555
C13 N5 1_555 1_555
C14 C13 1_555 1_555
H11 C14 1_555 1_555
C15 C14 1_555 1_555
H12 C15 1_555 1_555
C16 C15 1_555 1_555
C17 C16 1_555 1_555
H13 C17 1_555 1_555
C18 C13 1_555 1_555
H14 C18 1_555 1_555
C19 N6 1_555 1_555
H15 C19 1_555 1_555
C20 N6 1_555 1_555
H16 C20 1_555 1_555
C21 N7 1_555 1_555
H17 C21 1_555 1_555
C22 N7 1_555 1_555
C23 C22 1_555 1_555
H18 C23 1_555 1_555
C24 C23 1_555 1_555
H19 C24 1_555 1_555
C25 C24 1_555 1_555
C26 C25 1_555 1_555
H20 C26 1_555 1_555
C27 C22 1_555 1_555
H21 C27 1_555 1_555
C28 N9 1_555 1_555
H22 C28 1_555 1_555
C29 N10 1_555 1_555
H23 C29 1_555 1_555
C30 N9 1_555 1_555
H24 C30 1_555 1_555
C31 N10 1_555 1_555
C32 C31 1_555 1_555
H25 C32 1_555 1_555
C33 C32 1_555 1_555
H26 C33 1_555 1_555
C34 C33 1_555 1_555
C35 C34 1_555 1_555
H27 C35 1_555 1_555
C36 C31 1_555 1_555
H28 C36 1_555 1_555
Cl1 O1 1_555 1_555
O2 Cl1 1_555 1_555
O3 Cl1 1_555 1_555
O4 Cl1 1_555 1_555
Cl2 O5 1_555 1_555
O6 Cl2 1_555 1_555
O7 Cl2 1_555 1_555
O8 Cl2 1_555 1_555
N6B C19B 1_555 1_555
N7B C19B 1_555 1_555
N8B N8 1_555 1_555
C19B H15B 1_555 1_555
C20B N6B 1_555 1_555
H16B C20B 1_555 1_555
C21B N7B 1_555 1_555
H17B C21B 1_555 1_555
C22B N7B 1_555 1_555
C23B C22B 1_555 1_555
H18B C23B 1_555 1_555
C24B C23B 1_555 1_555
H19B C24B 1_555 1_555
C25B N8B 1_555 1_555
C26B C25B 1_555 1_555
H20B C26B 1_555 1_555
C27B C22B 1_555 1_555
H21B C27B 1_555 1_555
N9B C28B 1_555 1_555
N10B C28B 1_555 1_555
N11B N11 1_555 1_555
C28B H22B 1_555 1_555
C29B N10B 1_555 1_555
H23B C29B 1_555 1_555
C30B N9B 1_555 1_555
H24B C30B 1_555 1_555
C31B N10B 1_555 1_555
C32B C31B 1_555 1_555
H25B C32B 1_555 1_555
C33B C32B 1_555 1_555
H26B C33B 1_555 1_555
C34B N11B 1_555 1_555
C35B C34B 1_555 1_555
H27B C35B 1_555 1_555
C36B C31B 1_555 1_555
H28B C36B 1_555 1_555
Zn1B N9B 1_555 1_555
N1B Zn1B 1_555 1_555
C1B N12B 1_555 1_555
N2B N3B 1_555 1_555
N3B C16B 1_555 1_555
N4B C10B 1_555 1_555
N5B C10B 1_555 1_555
C2B N1B 1_555 1_555
H1B C2B 1_555 1_555
N12B C2B 1_555 1_555
C3B N12B 1_555 1_555
H2B C3B 1_555 1_555
C4B N1B 1_555 1_555
H3B C4B 1_555 1_555
C5B C1B 1_555 1_555
H4B C5B 1_555 1_555
C6B C5B 1_555 1_555
H5B C6B 1_555 1_555
C7B N2B 1_555 1_555
C8B C7B 1_555 1_555
H6B C8B 1_555 1_555
C9B C1B 1_555 1_555
H7B C9B 1_555 1_555
C10B H8B 1_555 1_555
C11B N4B 1_555 1_555
H9B C11B 1_555 1_555
C12B N5B 1_555 1_555
H10B C12B 1_555 1_555
C13B N5B 1_555 1_555
C14B C13B 1_555 1_555
H11B C14B 1_555 1_555
C15B C14B 1_555 1_555
H12B C15B 1_555 1_555
C16B C15B 1_555 1_555
C17B C16B 1_555 1_555
H13B C17B 1_555 1_555
C18B C13B 1_555 1_555
H14B C18B 1_555 1_555
Zn1_2 N4 1_555 1_555
Zn1B_2 N4B 1_555 1_555
Zn1B_3 N6B 1_555 1_555
N4_2 Zn1 1_555 1_555
N4B_2 Zn1B 1_555 1_555
N6B_2 Zn1B 1_555 1_555
C3 C4 1_555 1_555
C6 C7 1_555 1_555
C8 C9 1_555 1_555
C11 C12 1_555 1_555
C17 C18 1_555 1_555
C20 C21 1_555 1_555
C26 C27 1_555 1_555
C29 C30 1_555 1_555
C35 C36 1_555 1_555
C20B C21B 1_555 1_555
C24B C25B 1_555 1_555
C26B C27B 1_555 1_555
C29B C30B 1_555 1_555
C33B C34B 1_555 1_555
C35B C36B 1_555 1_555
C3B C4B 1_555 1_555
C6B C7B 1_555 1_555
C8B C9B 1_555 1_555
C11B C12B 1_555 1_555
C17B C18B 1_555 1_555

#END
