
#######################################################################
#
#                 Cambridge Crystallographic Data Centre
#                                CCDC 
#
#######################################################################
#
# If this CIF has been generated from an entry in the Cambridge 
# Structural Database, then it will include bibliographic, chemical, 
# crystal, experimental, refinement or atomic coordinate data resulting 
# from the CCDC's data processing and validation procedures.
#
#######################################################################

data_CEWDEP
_symmetry_cell_setting           triclinic
_symmetry_space_group_name_H-M   'P -1'
_symmetry_Int_Tables_number      2
_space_group_name_Hall           '-P 1'
loop_
_symmetry_equiv_pos_site_id
_symmetry_equiv_pos_as_xyz
1 x,y,z
2 -x,-y,-z
_cell_length_a                   9.281(7)
_cell_length_b                   10.472(5)
_cell_length_c                   14.731(3)
_cell_angle_alpha                77.108(5)
_cell_angle_beta                 75.560(2)
_cell_angle_gamma                82.591(5)
_cell_volume                     1347.45
loop_
_atom_site_label
_atom_site_type_symbol
_atom_site_fract_x
_atom_site_fract_y
_atom_site_fract_z
Cu1 Cu 0.5000 0.0000 0.5000
O1 O 0.3638(4) -0.1847(3) 0.5043(2)
N1 N 0.6696(4) -0.0660(4) 0.4026(3)
N2 N 0.8133(4) -0.1673(4) 0.2930(3)
N3 N 1.0457(6) -0.4947(6) 0.0195(5)
N4 N 0.3954(4) 0.0976(4) 0.3980(3)
N5 N 0.2774(4) 0.1415(4) 0.2810(3)
N6 N -0.0180(5) 0.0536(4) 0.0141(3)
N7 N 0.1935(5) -0.3363(5) 0.5469(3)
C1 C 0.6737(5) -0.1496(4) 0.3467(3)
H1 H 0.5919 -0.1907 0.3446
C2 C 0.8117(6) -0.0287(5) 0.3841(4)
H2 H 0.8418 0.0298 0.4135
C3 C 0.9020(6) -0.0899(5) 0.3165(4)
H3 H 1.0034 -0.0813 0.2912
C4 C 0.8627(6) -0.2491(5) 0.2237(3)
C5 C 0.7655(8) -0.2731(6) 0.1728(4)
H4 H 0.6680 -0.2353 0.1821
C6 C 0.8182(10) -0.3558(7) 0.1070(5)
H5 H 0.7544 -0.3755 0.0733
C7 C 0.9655(9) -0.4086(6) 0.0919(4)
C8 C 1.0601(8) -0.3835(6) 0.1423(4)
H6 H 1.1582 -0.4200 0.1322
C9 C 1.0088(7) -0.3033(5) 0.2089(4)
H7 H 1.0726 -0.2858 0.2436
C10 C 0.3437(5) 0.0469(4) 0.3392(3)
H8 H 0.3517 -0.0422 0.3381
C11 C 0.3608(5) 0.2315(5) 0.3760(4)
H9 H 0.3838 0.2926 0.4063
C12 C 0.2886(5) 0.2606(5) 0.3043(4)
H10 H 0.2536 0.3435 0.2762
C13 C 0.2064(5) 0.1207(5) 0.2101(3)
C14 C 0.0856(6) 0.2041(5) 0.1886(4)
H11 H 0.0517 0.2753 0.2185
C15 C 0.0162(6) 0.1795(5) 0.1216(4)
H12 H -0.0636 0.2356 0.1053
C16 C 0.0659(5) 0.0715(5) 0.0789(3)
C17 C 0.1882(6) -0.0096(5) 0.0992(3)
H13 H 0.2218 -0.0806 0.0691
C18 C 0.2610(5) 0.0151(5) 0.1647(3)
H14 H 0.3446 -0.0379 0.1779
C19 C 0.3258(6) -0.2956(5) 0.5395(4)
H15 H 0.3960 -0.3569 0.5632
C20 C 0.0809(7) -0.2530(7) 0.5044(5)
H16 H -0.0069 -0.2996 0.5174
H17 H 0.1185 -0.2289 0.4365
H18 H 0.0564 -0.1752 0.5311
C21 C 0.1591(10) -0.4718(8) 0.5889(6)
H19 H 0.0582 -0.4822 0.5879
H20 H 0.1701 -0.4927 0.6538
H21 H 0.2262 -0.5297 0.5527
N1A N 1.3304(4) -0.9340(4) -0.4026(3)
N2A N 1.1867(4) -0.8327(4) -0.2930(3)
N3A N 0.9543(6) -0.5053(6) -0.0195(5)
C1A C 1.3263(5) -0.8504(4) -0.3467(3)
H1A H 1.4081 -0.8093 -0.3446
C2A C 1.1883(6) -0.9713(5) -0.3841(4)
H2A H 1.1582 -1.0298 -0.4135
C3A C 1.0980(6) -0.9101(5) -0.3165(4)
H3A H 0.9966 -0.9187 -0.2912
C4A C 1.1373(6) -0.7509(5) -0.2237(3)
C5A C 1.2345(8) -0.7269(6) -0.1728(4)
H4A H 1.3320 -0.7647 -0.1821
C6A C 1.1818(10) -0.6442(7) -0.1070(5)
H5A H 1.2456 -0.6245 -0.0733
C7A C 1.0345(9) -0.5914(6) -0.0919(4)
C8A C 0.9399(8) -0.6165(6) -0.1423(4)
H6A H 0.8418 -0.5800 -0.1322
C9A C 0.9912(7) -0.6967(5) -0.2089(4)
H7A H 0.9274 -0.7142 -0.2436
N4A N -0.3954(4) -0.0976(4) -0.3980(3)
N5A N -0.2774(4) -0.1415(4) -0.2810(3)
N6A N 0.0180(5) -0.0536(4) -0.0141(3)
C10A C -0.3437(5) -0.0469(4) -0.3392(3)
H8A H -0.3517 0.0422 -0.3381
C11A C -0.3608(5) -0.2315(5) -0.3760(4)
H9A H -0.3838 -0.2926 -0.4063
C12A C -0.2886(5) -0.2606(5) -0.3043(4)
H10A H -0.2536 -0.3435 -0.2762
C13A C -0.2064(5) -0.1207(5) -0.2101(3)
C14A C -0.0856(6) -0.2041(5) -0.1886(4)
H11A H -0.0517 -0.2753 -0.2185
C15A C -0.0162(6) -0.1795(5) -0.1216(4)
H12A H 0.0636 -0.2356 -0.1053
C16A C -0.0659(5) -0.0715(5) -0.0789(3)
C17A C -0.1882(6) 0.0096(5) -0.0992(3)
H13A H -0.2218 0.0806 -0.0691
C18A C -0.2610(5) -0.0151(5) -0.1647(3)
H14A H -0.3446 0.0379 -0.1779
O1A O 0.6362(4) 0.1847(3) 0.4957(2)
N7A N 0.8065(5) 0.3363(5) 0.4531(3)
C19A C 0.6742(6) 0.2956(5) 0.4605(4)
H15A H 0.6040 0.3569 0.4368
C20A C 0.9191(7) 0.2530(7) 0.4956(5)
H16A H 1.0069 0.2996 0.4826
H17A H 0.8815 0.2289 0.5635
H18A H 0.9436 0.1752 0.4689
C21A C 0.8409(10) 0.4718(8) 0.4111(6)
H19A H 0.9418 0.4822 0.4121
H20A H 0.8299 0.4927 0.3462
H21A H 0.7738 0.5297 0.4473
Cu1_2 Cu -0.5000 0.0000 -0.5000
Cu1_3 Cu 1.5000 -1.0000 -0.5000
N1A_2 N 0.3304(4) 0.0660(4) 0.5974(3)
N4A_2 N 0.6046(4) -0.0976(4) 0.6020(3)
Cl1 Cl 0.36796(16) -0.38868(12) 0.30092(10)
O2 O 0.3395(6) -0.2517(4) 0.3004(3)
O3 O 0.2385(5) -0.4563(4) 0.3523(4)
O4 O 0.4052(7) -0.4100(6) 0.2056(4)
O5 O 0.4878(6) -0.4371(5) 0.3477(4)
O6 O 0.6101(6) 0.0152(6) 0.1419(4)
N8 N 0.5884(13) 0.2284(12) 0.1037(9)
C22 C 0.6290(9) 0.1158(8) 0.1548(8)
H22 H 0.6753 0.1174 0.2037
C23 C 0.515(2) 0.2299(18) 0.0264(12)
H23 H 0.4929 0.3192 -0.0038
H24 H 0.4232 0.1874 0.0521
H25 H 0.5790 0.1842 -0.0200
C24 C 0.626(3) 0.342(2) 0.1309(17)
H26 H 0.5939 0.4207 0.0905
H27 H 0.7318 0.3388 0.1239
H28 H 0.5764 0.3433 0.1963
loop_
_geom_bond_atom_site_label_1
_geom_bond_atom_site_label_2
_geom_bond_site_symmetry_1
_geom_bond_site_symmetry_2
Cu1 O1 1_555 1_555
O1 C19 1_555 1_555
N1 Cu1 1_555 1_555
N2 C1 1_555 1_555
N3 C7 1_555 1_555
N4 Cu1 1_555 1_555
N5 C10 1_555 1_555
N6 C16 1_555 1_555
N7 C19 1_555 1_555
C1 N1 1_555 1_555
H1 C1 1_555 1_555
C2 N1 1_555 1_555
H2 C2 1_555 1_555
C3 N2 1_555 1_555
H3 C3 1_555 1_555
C4 N2 1_555 1_555
C5 C4 1_555 1_555
H4 C5 1_555 1_555
C6 C5 1_555 1_555
H5 C6 1_555 1_555
C7 C6 1_555 1_555
C8 C7 1_555 1_555
H6 C8 1_555 1_555
C9 C4 1_555 1_555
H7 C9 1_555 1_555
C10 N4 1_555 1_555
H8 C10 1_555 1_555
C11 N4 1_555 1_555
H9 C11 1_555 1_555
C12 N5 1_555 1_555
H10 C12 1_555 1_555
C13 N5 1_555 1_555
C14 C13 1_555 1_555
H11 C14 1_555 1_555
C15 C14 1_555 1_555
H12 C15 1_555 1_555
C16 C15 1_555 1_555
C17 C16 1_555 1_555
H13 C17 1_555 1_555
C18 C13 1_555 1_555
H14 C18 1_555 1_555
C19 H15 1_555 1_555
C20 N7 1_555 1_555
H16 C20 1_555 1_555
H17 C20 1_555 1_555
H18 C20 1_555 1_555
C21 N7 1_555 1_555
H19 C21 1_555 1_555
H20 C21 1_555 1_555
H21 C21 1_555 1_555
Cl1 O2 1_555 1_555
O3 Cl1 1_555 1_555
O4 Cl1 1_555 1_555
O5 Cl1 1_555 1_555
O6 C22 1_555 1_555
N8 C22 1_555 1_555
C22 H22 1_555 1_555
C23 N8 1_555 1_555
H23 C23 1_555 1_555
H24 C23 1_555 1_555
H25 C23 1_555 1_555
C24 N8 1_555 1_555
H26 C24 1_555 1_555
H27 C24 1_555 1_555
H28 C24 1_555 1_555
N1A C1A 1_555 1_555
N2A C1A 1_555 1_555
N3A N3 1_555 1_555
C1A H1A 1_555 1_555
C2A N1A 1_555 1_555
H2A C2A 1_555 1_555
C3A N2A 1_555 1_555
H3A C3A 1_555 1_555
C4A N2A 1_555 1_555
C5A C4A 1_555 1_555
H4A C5A 1_555 1_555
C6A C5A 1_555 1_555
H5A C6A 1_555 1_555
C7A N3A 1_555 1_555
C8A C7A 1_555 1_555
H6A C8A 1_555 1_555
C9A C4A 1_555 1_555
H7A C9A 1_555 1_555
N4A C10A 1_555 1_555
N5A C10A 1_555 1_555
N6A N6 1_555 1_555
C10A H8A 1_555 1_555
C11A N4A 1_555 1_555
H9A C11A 1_555 1_555
C12A N5A 1_555 1_555
H10A C12A 1_555 1_555
C13A N5A 1_555 1_555
C14A C13A 1_555 1_555
H11A C14A 1_555 1_555
C15A C14A 1_555 1_555
H12A C15A 1_555 1_555
C16A N6A 1_555 1_555
C17A C16A 1_555 1_555
H13A C17A 1_555 1_555
C18A C13A 1_555 1_555
H14A C18A 1_555 1_555
O1A Cu1 1_555 1_555
N7A C19A 1_555 1_555
C19A O1A 1_555 1_555
H15A C19A 1_555 1_555
C20A N7A 1_555 1_555
H16A C20A 1_555 1_555
H17A C20A 1_555 1_555
H18A C20A 1_555 1_555
C21A N7A 1_555 1_555
H19A C21A 1_555 1_555
H20A C21A 1_555 1_555
H21A C21A 1_555 1_555
Cu1_2 N4A 1_555 1_555
Cu1_3 N1A 1_555 1_555
N1A_2 Cu1 1_555 1_555
N4A_2 Cu1 1_555 1_555
C2 C3 1_555 1_555
C8 C9 1_555 1_555
C11 C12 1_555 1_555
C17 C18 1_555 1_555
C2A C3A 1_555 1_555
C6A C7A 1_555 1_555
C8A C9A 1_555 1_555
C11A C12A 1_555 1_555
C15A C16A 1_555 1_555
C17A C18A 1_555 1_555

#END
