
#######################################################################
#
#                 Cambridge Crystallographic Data Centre
#                                CCDC 
#
#######################################################################
#
# If this CIF has been generated from an entry in the Cambridge 
# Structural Database, then it will include bibliographic, chemical, 
# crystal, experimental, refinement or atomic coordinate data resulting 
# from the CCDC's data processing and validation procedures.
#
#######################################################################

data_CEWFAN
_symmetry_cell_setting           triclinic
_symmetry_space_group_name_H-M   'P -1'
_symmetry_Int_Tables_number      2
_space_group_name_Hall           '-P 1'
loop_
_symmetry_equiv_pos_site_id
_symmetry_equiv_pos_as_xyz
1 x,y,z
2 -x,-y,-z
_cell_length_a                   8.253(3)
_cell_length_b                   8.374(5)
_cell_length_c                   12.733(4)
_cell_angle_alpha                85.951(5)
_cell_angle_beta                 79.422(7)
_cell_angle_gamma                77.990(5)
_cell_volume                     845.616
loop_
_atom_site_label
_atom_site_type_symbol
_atom_site_fract_x
_atom_site_fract_y
_atom_site_fract_z
Cu1 Cu -0.93553(9) -0.64589(7) -0.42920(5)
Cl1 Cl -1.28662(18) -0.59856(19) -0.37702(13)
N1 N -0.9072(5) -0.5352(5) -0.3104(3)
N2 N -0.8133(5) -0.4207(5) -0.1884(3)
N3 N -0.3632(6) -0.1993(5) 0.0267(4)
N4 N -0.4170(6) -0.1735(6) 0.1194(4)
N5 N 0.0129(5) 0.0656(5) 0.3414(3)
N6 N 0.0822(5) 0.2121(5) 0.4570(3)
C1 C -0.7707(6) -0.5045(5) -0.2799(4)
H1 H -0.6613 -0.5363 -0.3164
C2 C -1.0421(6) -0.4684(6) -0.2340(4)
H2 H -1.1540 -0.4716 -0.2344
C3 C -0.9866(6) -0.3979(6) -0.1589(4)
H3 H -1.0517 -0.3446 -0.0992
C4 C -0.7024(6) -0.3653(5) -0.1311(4)
C5 C -0.7419(6) -0.3622(6) -0.0201(4)
H4 H -0.8378 -0.3968 0.0162
C6 C -0.6359(8) -0.3066(6) 0.0360(4)
H5 H -0.6605 -0.3032 0.1102
C7 C -0.4916(6) -0.2557(6) -0.0203(5)
C8 C -0.4544(6) -0.2624(6) -0.1303(4)
H6 H -0.3570 -0.2307 -0.1667
C9 C -0.5588(6) -0.3150(6) -0.1870(4)
H7 H -0.5342 -0.3171 -0.2612
C10 C -0.2911(7) -0.1185(6) 0.1693(5)
C11 C -0.3471(7) -0.0818(6) 0.2744(4)
H8 H -0.4530 -0.0976 0.3077
C12 C -0.2465(6) -0.0211(6) 0.3318(5)
H9 H -0.2850 0.0045 0.4031
C13 C -0.0879(6) 0.0010(5) 0.2817(4)
C14 C -0.0282(7) -0.0367(6) 0.1765(4)
H10 H 0.0785 -0.0223 0.1440
C15 C -0.1299(8) -0.0969(6) 0.1194(4)
H11 H -0.0911 -0.1229 0.0482
C16 C -0.0439(6) 0.1721(6) 0.4212(4)
H12 H -0.1570 0.2120 0.4475
C17 C 0.2280(6) 0.1264(6) 0.3977(4)
H13 H 0.3367 0.1315 0.4053
C18 C 0.1880(6) 0.0338(6) 0.3268(4)
H14 H 0.2623 -0.0366 0.2784
Cu1_2 Cu 0.06447(9) 0.35411(7) 0.57080(5)
N6_2 N -0.9178(5) -0.7879(5) -0.5430(3)
O1 O -0.4961(5) -0.2806(5) 0.5181(4)
H15 H -0.547(6) -0.331(6) 0.479(4)
H16 H -0.400(5) -0.356(7) 0.511(6)
loop_
_geom_bond_atom_site_label_1
_geom_bond_atom_site_label_2
_geom_bond_site_symmetry_1
_geom_bond_site_symmetry_2
Cu1 Cl1 1_555 1_555
N1 Cu1 1_555 1_555
N2 C1 1_555 1_555
N3 N4 1_555 1_555
N4 C10 1_555 1_555
N5 C13 1_555 1_555
N6 C16 1_555 1_555
C1 N1 1_555 1_555
H1 C1 1_555 1_555
C2 N1 1_555 1_555
H2 C2 1_555 1_555
C3 N2 1_555 1_555
H3 C3 1_555 1_555
C4 N2 1_555 1_555
C5 C4 1_555 1_555
H4 C5 1_555 1_555
C6 C5 1_555 1_555
H5 C6 1_555 1_555
C7 N3 1_555 1_555
C8 C7 1_555 1_555
H6 C8 1_555 1_555
C9 C4 1_555 1_555
H7 C9 1_555 1_555
C10 C11 1_555 1_555
C11 H8 1_555 1_555
C12 C11 1_555 1_555
H9 C12 1_555 1_555
C13 C12 1_555 1_555
C14 C13 1_555 1_555
H10 C14 1_555 1_555
C15 C10 1_555 1_555
H11 C15 1_555 1_555
C16 N5 1_555 1_555
H12 C16 1_555 1_555
C17 N6 1_555 1_555
H13 C17 1_555 1_555
C18 N5 1_555 1_555
H14 C18 1_555 1_555
O1 H15 1_555 1_555
H16 O1 1_555 1_555
Cu1_2 N6 1_555 1_555
N6_2 Cu1 1_555 1_555
C2 C3 1_555 1_555
C6 C7 1_555 1_555
C8 C9 1_555 1_555
C14 C15 1_555 1_555
C17 C18 1_555 1_555

#END
