
#######################################################################
#
#                 Cambridge Crystallographic Data Centre
#                                CCDC 
#
#######################################################################
#
# If this CIF has been generated from an entry in the Cambridge 
# Structural Database, then it will include bibliographic, chemical, 
# crystal, experimental, refinement or atomic coordinate data resulting 
# from the CCDC's data processing and validation procedures.
#
#######################################################################

data_CEWFUH
_symmetry_cell_setting           monoclinic
_symmetry_space_group_name_H-M   'C c'
_symmetry_Int_Tables_number      9
_space_group_name_Hall           'C -2yc'
loop_
_symmetry_equiv_pos_site_id
_symmetry_equiv_pos_as_xyz
1 x,y,z
2 x,-y,1/2+z
3 1/2+x,1/2+y,z
4 1/2+x,1/2-y,1/2+z
_cell_length_a                   14.026(2)
_cell_length_b                   20.318(3)
_cell_length_c                   10.9270(15)
_cell_angle_alpha                90
_cell_angle_beta                 91.966(14)
_cell_angle_gamma                90
_cell_volume                     3112.15
loop_
_atom_site_label
_atom_site_type_symbol
_atom_site_fract_x
_atom_site_fract_y
_atom_site_fract_z
Fe1 Fe 0.25000(18) 0.24986(14) 0.44305(13)
S1 S 0.2750(4) 0.01983(17) 0.0000(3)
C1 C 0.2795(11) 0.0823(6) 0.1150(9)
C2 C 0.2266(12) 0.0691(6) 0.2132(10)
H1 H 0.1913 0.0306 0.2188
C3 C 0.2278(13) 0.1171(7) 0.3067(10)
H2 H 0.1957 0.1072 0.3774
N1 N 0.2701(10) 0.1738(5) 0.3019(7)
C4 C 0.3261(11) 0.1837(7) 0.2074(9)
H3 H 0.3639 0.2213 0.2063
C5 C 0.3299(10) 0.1398(6) 0.1110(9)
H4 H 0.3665 0.1494 0.0439
S2 S 0.3881(3) 0.0395(2) -0.1033(3)
C6 C 0.3423(9) 0.0917(6) -0.2217(9)
C7 C 0.2577(9) 0.1217(6) -0.2263(10)
H5 H 0.2145 0.1144 -0.1651
C8 C 0.2340(12) 0.1643(8) -0.3238(10)
H6 H 0.1751 0.1854 -0.3244
N2 N 0.2895(10) 0.1754(5) -0.4115(8)
C9 C 0.3781(12) 0.1485(7) -0.4049(10)
H7 H 0.4203 0.1586 -0.466
C10 C 0.4075(10) 0.1078(6) -0.3136(10)
H8 H 0.469 0.0906 -0.311
S3 S 0.2232(4) 0.47938(18) -0.0022(3)
C11 C 0.2198(13) 0.4198(8) 0.1123(10)
C12 C 0.1650(12) 0.3619(7) 0.1024(10)
H9 H 0.124 0.3538 0.0354
C13 C 0.1757(12) 0.3173(8) 0.1985(10)
H10 H 0.1438 0.2774 0.1892
N3 N 0.2243(8) 0.3255(6) 0.2976(8)
C14 C 0.2790(13) 0.3819(8) 0.3056(11)
H11 H 0.3211 0.3881 0.3722
C15 C 0.2713(13) 0.4280(8) 0.2168(11)
H12 H 0.3035 0.4676 0.2288
S4 S 0.1106(4) 0.4597(2) -0.1191(3)
C16 C 0.1557(11) 0.4066(7) -0.2321(9)
C17 C 0.0946(11) 0.3954(7) -0.3305(10)
H13 H 0.0346 0.4149 -0.3375
C18 C 0.1284(9) 0.3524(6) -0.4205(9)
H14 H 0.0876 0.3429 -0.4871
N4 N 0.2120(8) 0.3248(6) -0.4178(7)
C19 C 0.2662(10) 0.3362(7) -0.3192(10)
H15 H 0.3231 0.3128 -0.3116
C20 C 0.2462(11) 0.3797(7) -0.2260(10)
H16 H 0.2905 0.39 -0.1637
N5 N 0.1066(6) 0.2216(5) 0.4379(7)
C21 C 0.0267(9) 0.2128(13) 0.461(2)
S5 S -0.0886(12) 0.2025(9) 0.4726(19)
N6 N 0.3886(8) 0.2743(7) 0.4462(7)
C22 C 0.4693(12) 0.285(2) 0.448(4)
S6 S 0.5842(12) 0.2740(9) 0.4060(18)
Fe1_2 Fe 0.25000(18) 0.24986(14) -0.55695(13)
N2_2 N 0.2895(10) 0.1754(5) 0.5885(8)
N4_2 N 0.2120(8) 0.3248(6) 0.5822(7)
O1 O 0.491(3) 0.5275(18) 0.332(3)
O3 O 0.525(2) 0.4496(17) 0.515(4)
O5 O 0.509(3) 0.5540(17) 0.649(4)
C23? C 0.0250(9) 0.2203(14) 0.427(3)
S7? S -0.0828(11) 0.2313(12) 0.424(2)
C24? C 0.4708(12) 0.271(2) 0.437(4)
S8? S 0.5770(12) 0.2987(12) 0.4614(19)
O2? O 0.510(3) 0.4568(18) 0.342(3)
O4? O 0.467(5) 0.468(2) 0.654(4)
O6? O 0.528(2) 0.5529(16) 0.498(4)
loop_
_geom_bond_atom_site_label_1
_geom_bond_atom_site_label_2
_geom_bond_site_symmetry_1
_geom_bond_site_symmetry_2
Fe1 N1 1_555 1_555
S1 C1 1_555 1_555
C1 C2 1_555 1_555
C2 H1 1_555 1_555
C3 C2 1_555 1_555
H2 C3 1_555 1_555
N1 C3 1_555 1_555
C4 N1 1_555 1_555
H3 C4 1_555 1_555
C5 C1 1_555 1_555
H4 C5 1_555 1_555
S2 S1 1_555 1_555
C6 S2 1_555 1_555
C7 C6 1_555 1_555
H5 C7 1_555 1_555
C8 C7 1_555 1_555
H6 C8 1_555 1_555
N2 C8 1_555 1_555
C9 N2 1_555 1_555
H7 C9 1_555 1_555
C10 C6 1_555 1_555
H8 C10 1_555 1_555
S3 C11 1_555 1_555
C11 C12 1_555 1_555
C12 H9 1_555 1_555
C13 C12 1_555 1_555
H10 C13 1_555 1_555
N3 Fe1 1_555 1_555
C14 N3 1_555 1_555
H11 C14 1_555 1_555
C15 C11 1_555 1_555
H12 C15 1_555 1_555
S4 S3 1_555 1_555
C16 S4 1_555 1_555
C17 C16 1_555 1_555
H13 C17 1_555 1_555
C18 C17 1_555 1_555
H14 C18 1_555 1_555
N4 C18 1_555 1_555
C19 N4 1_555 1_555
H15 C19 1_555 1_555
C20 C16 1_555 1_555
H16 C20 1_555 1_555
N5 Fe1 1_555 1_555
C21 N5 1_555 1_555
S5 C21 1_555 1_555
N6 Fe1 1_555 1_555
C22 N6 1_555 1_555
S6 C22 1_555 1_555
Fe1_2 N2 1_555 1_555
N2_2 Fe1 1_555 1_555
N4_2 Fe1 1_555 1_555
C4 C5 1_555 1_555
C9 C10 1_555 1_555
C13 N3 1_555 1_555
C14 C15 1_555 1_555
N4 Fe1_2 1_555 1_555
C19 C20 1_555 1_555

#END
