
#######################################################################
#
#                 Cambridge Crystallographic Data Centre
#                                CCDC 
#
#######################################################################
#
# If this CIF has been generated from an entry in the Cambridge 
# Structural Database, then it will include bibliographic, chemical, 
# crystal, experimental, refinement or atomic coordinate data resulting 
# from the CCDC's data processing and validation procedures.
#
#######################################################################

data_CEWHAO
_symmetry_cell_setting           triclinic
_symmetry_space_group_name_H-M   'P -1'
_symmetry_Int_Tables_number      2
_space_group_name_Hall           '-P 1'
loop_
_symmetry_equiv_pos_site_id
_symmetry_equiv_pos_as_xyz
1 x,y,z
2 -x,-y,-z
_cell_length_a                   13.1822(9)
_cell_length_b                   13.5142(9)
_cell_length_c                   13.6341(9)
_cell_angle_alpha                65.703(1)
_cell_angle_beta                 83.157(1)
_cell_angle_gamma                69.709(1)
_cell_volume                     2075.57
loop_
_atom_site_label
_atom_site_type_symbol
_atom_site_fract_x
_atom_site_fract_y
_atom_site_fract_z
Cu1 Cu 0.93192(3) 0.28891(3) 0.23881(3)
Cu2 Cu 0.83969(3) 0.59823(4) 0.33622(3)
Cu3 Cu 1.00636(3) -0.02952(4) 0.12240(3)
N1 N 0.96546(19) 0.1952(2) 0.39237(19)
N2 N 0.89843(18) 0.3909(2) 0.09079(19)
N3 N 0.86335(19) -0.0402(2) 0.1474(2)
N4 N 0.15747(19) -0.0554(2) 0.1349(2)
N5 N 0.98585(19) 0.5836(2) 0.3593(2)
N6 N 1.69085(19) 0.6093(2) 0.3552(2)
O1 O 1.11539(17) 0.23357(19) 0.24971(17)
O2 O 1.23589(18) 0.1896(2) 0.3749(2)
O3 O 0.77198(17) 0.2694(2) 0.30498(18)
O4 O 0.70197(18) 0.1866(2) 0.46375(19)
O5 O 0.90012(16) 0.44588(18) 0.25004(17)
O6 O 0.84773(18) 0.6340(2) 0.14753(18)
O7 O 0.94836(16) 0.17110(18) 0.16743(16)
O8 O 0.94833(16) 0.16768(18) 0.00447(17)
C1 C 1.1469(2) 0.1974(3) 0.3442(3)
C2 C 1.0671(2) 0.1614(3) 0.4306(2)
C3 C 1.0926(3) 0.0947(3) 0.5389(3)
H1 H 1.1638 0.0723 0.5660
C4 C 1.0137(3) 0.0612(3) 0.6071(3)
H2 H 1.0307 0.0135 0.6811
C5 C 0.9096(3) 0.0974(3) 0.5671(3)
H3 H 0.8543 0.0753 0.6131
C6 C 0.8874(2) 0.1663(3) 0.4589(2)
C7 C 0.7762(2) 0.2112(3) 0.4052(3)
C8 C 0.8725(2) 0.5330(3) 0.1598(3)
C9 C 0.8706(2) 0.5036(3) 0.0640(2)
C10 C 0.8428(2) 0.5808(3) -0.0406(2)
H4 H 0.8223 0.6612 -0.0596
C11 C 0.8456(2) 0.5372(3) -0.1181(3)
H5 H 0.8271 0.5883 -0.1911
C12 C 0.8750(2) 0.4205(3) -0.0890(2)
H6 H 0.8766 0.3906 -0.1414
C13 C 0.9021(2) 0.3478(3) 0.0170(2)
C14 C 0.9354(2) 0.2184(3) 0.0654(2)
C15 C 0.7843(2) 0.0392(3) 0.1740(2)
H7 H 0.8031 0.0944 0.1873
C16 C 0.6773(2) 0.0439(3) 0.1827(3)
H8 H 0.6246 0.1007 0.2025
C17 C 0.6470(2) -0.0352(3) 0.1622(2)
C18 C 0.7297(2) -0.1188(3) 0.1370(3)
H9 H 0.7135 -0.1759 0.1244
C19 C 0.8341(2) -0.1181(3) 0.1306(3)
H10 H 0.8888 -0.1758 0.1133
C20 C 0.5334(2) -0.0266(3) 0.1661(3)
H11 H 0.4841 0.0302 0.1884
C21 C 0.4923(2) -0.0906(3) 0.1417(3)
H12 H 0.5414 -0.1492 0.1216
C22 C 0.3771(2) -0.0780(3) 0.1430(2)
C23 C 0.3441(2) -0.1506(3) 0.1151(3)
H13 H 0.3965 -0.2097 0.0980
C24 C 0.2956(2) 0.0062(3) 0.1683(3)
H14 H 0.3135 0.0575 0.1888
C25 C 0.2355(2) -0.1370(3) 0.1120(3)
H15 H 0.2153 -0.1879 0.0929
C26 C 0.1893(2) 0.0143(3) 0.1634(3)
H16 H 0.1352 0.0721 0.1810
C27 C 1.6564(3) 0.5368(3) 0.3338(3)
H17 H 1.7079 0.4814 0.3113
C28 C 1.5503(3) 0.5391(3) 0.3427(3)
H18 H 1.5305 0.4861 0.3267
C29 C 1.4720(2) 0.6196(3) 0.3755(3)
C30 C 1.5083(2) 0.6935(3) 0.3976(3)
H19 H 1.4584 0.7497 0.4202
C31 C 1.6155(2) 0.6864(3) 0.3872(3)
H20 H 1.6373 0.7382 0.4033
C32 C 1.3576(2) 0.6289(3) 0.3824(3)
H21 H 1.3079 0.6915 0.3964
C33 C 1.3181(2) 0.5560(3) 0.3706(3)
H22 H 1.3691 0.4912 0.3608
C34 C 1.2040(2) 0.5656(3) 0.3711(2)
C35 C 1.1190(3) 0.6675(3) 0.3592(3)
H23 H 1.1341 0.7332 0.3542
C36 C 1.1743(2) 0.4731(3) 0.3787(3)
H24 H 1.2284 0.4013 0.3888
C37 C 1.0668(2) 0.4859(3) 0.3717(3)
H25 H 1.0491 0.4219 0.3758
C38 C 1.0132(3) 0.6719(3) 0.3546(3)
H26 H 0.9570 0.7414 0.3478
Cu2_2 Cu 1.83969(3) 0.59823(4) 0.33622(3)
Cu3_2 Cu 0.00636(3) -0.02952(4) 0.12240(3)
N4_2 N 1.15747(19) -0.0554(2) 0.1349(2)
N6_2 N 0.69085(19) 0.6093(2) 0.3552(2)
O9 O 0.5536(2) 0.6840(2) 0.0069(2)
H27 H 0.5996 0.6099 0.0450
H28 H 0.5810 0.7154 -0.0625
O10 O 0.62864(19) 0.4344(2) 0.1399(2)
H29 H 0.6755 0.3840 0.2010
H30 H 0.6495 0.3952 0.0843
O11 O 0.4148(2) 0.4503(2) 0.1931(2)
H31 H 0.3971 0.3864 0.2050
H32 H 0.4789 0.4390 0.1626
O12 O 0.3468(2) 0.6556(2) 0.0125(2)
H33 H 0.3491 0.5941 0.0872
H34 H 0.4172 0.6692 0.0031
O13 O 0.39540(19) 0.2331(2) 0.2242(2)
H35 H 0.3337 0.2219 0.2540
H36 H 0.4407 0.2052 0.2779
O14 O 0.54633(18) 0.1346(2) 0.3935(2)
H37 H 0.5986 0.1576 0.4050
H38 H 0.4918 0.1302 0.4510
O15 O 0.37984(19) 0.1062(2) 0.5411(2)
H39 H 0.3241 0.1326 0.4963
H40 H 0.3989 0.0191 0.5702
loop_
_geom_bond_atom_site_label_1
_geom_bond_atom_site_label_2
_geom_bond_site_symmetry_1
_geom_bond_site_symmetry_2
Cu1 N1 1_555 1_555
Cu2 N5 1_555 1_555
Cu3 N3 1_555 1_555
N1 C2 1_555 1_555
N2 Cu1 1_555 1_555
N3 C15 1_555 1_555
N4 C25 1_555 1_555
N5 C37 1_555 1_555
N6 C27 1_555 1_555
O1 Cu1 1_555 1_555
O2 C1 1_555 1_555
O3 Cu1 1_555 1_555
O4 C7 1_555 1_555
O5 Cu1 1_555 1_555
O6 Cu2 1_555 1_555
O7 Cu1 1_555 1_555
O8 Cu3 1_555 1_555
C1 O1 1_555 1_555
C2 C1 1_555 1_555
C3 C2 1_555 1_555
H1 C3 1_555 1_555
C4 C3 1_555 1_555
H2 C4 1_555 1_555
C5 C4 1_555 1_555
H3 C5 1_555 1_555
C6 N1 1_555 1_555
C7 O3 1_555 1_555
C8 O5 1_555 1_555
C9 N2 1_555 1_555
C10 C9 1_555 1_555
H4 C10 1_555 1_555
C11 C10 1_555 1_555
H5 C11 1_555 1_555
C12 C11 1_555 1_555
H6 C12 1_555 1_555
C13 N2 1_555 1_555
C14 O7 1_555 1_555
C15 H7 1_555 1_555
C16 C15 1_555 1_555
H8 C16 1_555 1_555
C17 C16 1_555 1_555
C18 C17 1_555 1_555
H9 C18 1_555 1_555
C19 N3 1_555 1_555
H10 C19 1_555 1_555
C20 C17 1_555 1_555
H11 C20 1_555 1_555
C21 C20 1_555 1_555
H12 C21 1_555 1_555
C22 C21 1_555 1_555
C23 C22 1_555 1_555
H13 C23 1_555 1_555
C24 C22 1_555 1_555
H14 C24 1_555 1_555
C25 C23 1_555 1_555
H15 C25 1_555 1_555
C26 N4 1_555 1_555
H16 C26 1_555 1_555
C27 H17 1_555 1_555
C28 C27 1_555 1_555
H18 C28 1_555 1_555
C29 C28 1_555 1_555
C30 C29 1_555 1_555
H19 C30 1_555 1_555
C31 N6 1_555 1_555
H20 C31 1_555 1_555
C32 C29 1_555 1_555
H21 C32 1_555 1_555
C33 C32 1_555 1_555
H22 C33 1_555 1_555
C34 C33 1_555 1_555
C35 C34 1_555 1_555
H23 C35 1_555 1_555
C36 C34 1_555 1_555
H24 C36 1_555 1_555
C37 C36 1_555 1_555
H25 C37 1_555 1_555
C38 N5 1_555 1_555
H26 C38 1_555 1_555
O9 H27 1_555 1_555
H28 O9 1_555 1_555
O10 H29 1_555 1_555
H30 O10 1_555 1_555
O11 H31 1_555 1_555
H32 O11 1_555 1_555
O12 H33 1_555 1_555
H34 O12 1_555 1_555
O13 H35 1_555 1_555
H36 O13 1_555 1_555
O14 H37 1_555 1_555
H38 O14 1_555 1_555
O15 H39 1_555 1_555
H40 O15 1_555 1_555
Cu2_2 N6 1_555 1_555
Cu3_2 N4 1_555 1_555
N4_2 Cu3 1_555 1_555
N6_2 Cu2 1_555 1_555
Cu2 O5 1_555 1_555
Cu3 O7 1_555 1_555
O6 C8 1_555 1_555
O8 C14 1_555 1_555
C5 C6 1_555 1_555
C6 C7 1_555 1_555
C8 C9 1_555 1_555
C12 C13 1_555 1_555
C13 C14 1_555 1_555
C18 C19 1_555 1_555
C24 C26 1_555 1_555
C30 C31 1_555 1_555
C35 C38 1_555 1_555

#END
