
#######################################################################
#
#                 Cambridge Crystallographic Data Centre
#                                CCDC 
#
#######################################################################
#
# If this CIF has been generated from an entry in the Cambridge 
# Structural Database, then it will include bibliographic, chemical, 
# crystal, experimental, refinement or atomic coordinate data resulting 
# from the CCDC's data processing and validation procedures.
#
#######################################################################

data_CEWLAS
_symmetry_cell_setting           monoclinic
_symmetry_space_group_name_H-M   'P 21/c'
_symmetry_Int_Tables_number      14
_space_group_name_Hall           '-P 2ybc'
loop_
_symmetry_equiv_pos_site_id
_symmetry_equiv_pos_as_xyz
1 x,y,z
2 -x,1/2+y,1/2-z
3 -x,-y,-z
4 x,1/2-y,1/2+z
_cell_length_a                   8.169(4)
_cell_length_b                   19.622(10)
_cell_length_c                   7.416(4)
_cell_angle_alpha                90
_cell_angle_beta                 92.884(7)
_cell_angle_gamma                90
_cell_volume                     1187.22
loop_
_atom_site_label
_atom_site_type_symbol
_atom_site_fract_x
_atom_site_fract_y
_atom_site_fract_z
Ag1 Ag 0.352066(19) 0.272257(9) 0.27536(2)
N1 N 0.57751(19) 0.24475(8) 0.1499(2)
C1 C 0.6208(2) 0.18033(10) 0.1222(2)
H1 H 0.5475 0.1460 0.1493
C2 C 0.7692(2) 0.16202(9) 0.0552(2)
H2 H 0.7944 0.1164 0.0376
C3 C 0.8807(2) 0.21262(9) 0.0144(2)
C4 C 0.8357(2) 0.27922(9) 0.0424(2)
H3 H 0.9066 0.3145 0.0157
C5 C 0.6859(2) 0.29349(10) 0.1097(2)
H4 H 0.6581 0.3388 0.1284
C6 C 1.0442(2) 0.19555(10) -0.0634(2)
O1 O 1.07046(17) 0.13653(7) -0.11222(18)
O2 O 1.13969(17) 0.24569(7) -0.0759(2)
Ag1C Ag -0.647934(19) 0.227743(9) 0.77536(2)
Ag1C_2 Ag 1.352066(19) 0.227743(9) -0.22464(2)
N1C N -0.42249(19) 0.25525(8) 0.6499(2)
C1C C -0.3792(2) 0.31967(10) 0.6222(2)
H1C H -0.4525 0.3540 0.6493
C2C C -0.2308(2) 0.33798(9) 0.5552(2)
H2C H -0.2056 0.3836 0.5376
C3C C -0.1193(2) 0.28738(9) 0.5144(2)
C4C C -0.1643(2) 0.22078(9) 0.5424(2)
H3C H -0.0934 0.1855 0.5157
C5C C -0.3141(2) 0.20651(10) 0.6097(2)
H4C H -0.3419 0.1612 0.6284
C6C C 0.0442(2) 0.30445(10) 0.4366(2)
O1C O 0.07046(17) 0.36347(7) 0.38778(18)
O2C O 0.13969(17) 0.25431(7) 0.4241(2)
O2_2 O -0.86031(17) 0.24569(7) 0.9241(2)
Cd1 Cd 0.0000 0.0000 0.0000
N2 N 0.1316(2) 0.01752(8) 0.25367(19)
C7 C 0.1938(3) 0.07797(11) 0.3037(3)
H5 H 0.1794 0.1146 0.2249
C8 C 0.2781(3) 0.08846(11) 0.4662(3)
H6 H 0.3190 0.1315 0.4957
C9 C 0.3019(2) 0.03532(9) 0.5848(2)
C10 C 0.2381(3) -0.02673(9) 0.5340(2)
H7 H 0.2520 -0.0640 0.6107
C11 C 0.1533(3) -0.03412(10) 0.3694(3)
H8 H 0.1098 -0.0765 0.3381
C12 C 0.3984(2) 0.04545(10) 0.7625(2)
O3 O 0.4066(2) -0.00694(7) 0.86433(18)
O4 O 0.46383(17) 0.10016(7) 0.79614(17)
N2B N -0.1316(2) -0.01752(8) -0.25367(19)
C7B C -0.1938(3) -0.07797(11) -0.3037(3)
H5B H -0.1794 -0.1146 -0.2249
C8B C -0.2781(3) -0.08846(11) -0.4662(3)
H6B H -0.3190 -0.1315 -0.4957
C9B C -0.3019(2) -0.03532(9) -0.5848(2)
C10B C -0.2381(3) 0.02673(9) -0.5340(2)
H7B H -0.2520 0.0640 -0.6107
C11B C -0.1533(3) 0.03412(10) -0.3694(3)
H8B H -0.1098 0.0765 -0.3381
C12B C -0.3984(2) -0.04545(10) -0.7625(2)
O3B O -0.4066(2) 0.00694(7) -0.86433(18)
O4B O -0.46383(17) -0.10016(7) -0.79614(17)
loop_
_geom_bond_atom_site_label_1
_geom_bond_atom_site_label_2
_geom_bond_site_symmetry_1
_geom_bond_site_symmetry_2
Ag1 N1 1_555 1_555
N1 C1 1_555 1_555
C1 H1 1_555 1_555
C2 C1 1_555 1_555
H2 C2 1_555 1_555
C3 C2 1_555 1_555
C4 C3 1_555 1_555
H3 C4 1_555 1_555
C5 N1 1_555 1_555
H4 C5 1_555 1_555
C6 C3 1_555 1_555
O1 C6 1_555 1_555
O2 C6 1_555 1_555
Cd1 N2 1_555 1_555
N2 C7 1_555 1_555
C7 H5 1_555 1_555
C8 C7 1_555 1_555
H6 C8 1_555 1_555
C9 C8 1_555 1_555
C10 C9 1_555 1_555
H7 C10 1_555 1_555
C11 N2 1_555 1_555
H8 C11 1_555 1_555
C12 C9 1_555 1_555
O3 C12 1_555 1_555
O4 C12 1_555 1_555
Ag1C N1C 1_555 1_555
Ag1C_2 O2 1_555 1_555
N1C C1C 1_555 1_555
C1C H1C 1_555 1_555
C2C C1C 1_555 1_555
H2C C2C 1_555 1_555
C3C C2C 1_555 1_555
C4C C3C 1_555 1_555
H3C C4C 1_555 1_555
C5C N1C 1_555 1_555
H4C C5C 1_555 1_555
C6C C3C 1_555 1_555
O1C C6C 1_555 1_555
O2C Ag1 1_555 1_555
O2_2 Ag1C 1_555 1_555
N2B Cd1 1_555 1_555
C7B N2B 1_555 1_555
H5B C7B 1_555 1_555
C8B C7B 1_555 1_555
H6B C8B 1_555 1_555
C9B C8B 1_555 1_555
C10B C9B 1_555 1_555
H7B C10B 1_555 1_555
C11B N2B 1_555 1_555
H8B C11B 1_555 1_555
C12B C9B 1_555 1_555
O3B C12B 1_555 1_555
O4B C12B 1_555 1_555
C4 C5 1_555 1_555
C10 C11 1_555 1_555
C4C C5C 1_555 1_555
C6C O2C 1_555 1_555
C10B C11B 1_555 1_555

#END
