
#######################################################################
#
#                 Cambridge Crystallographic Data Centre
#                                CCDC 
#
#######################################################################
#
# If this CIF has been generated from an entry in the Cambridge 
# Structural Database, then it will include bibliographic, chemical, 
# crystal, experimental, refinement or atomic coordinate data resulting 
# from the CCDC's data processing and validation procedures.
#
#######################################################################

data_CEWYOS10
_symmetry_cell_setting           monoclinic
_symmetry_space_group_name_H-M   'P 21'
_symmetry_Int_Tables_number      4
_space_group_name_Hall           'P 2yb'
loop_
_symmetry_equiv_pos_site_id
_symmetry_equiv_pos_as_xyz
1 x,y,z
2 -x,1/2+y,-z
_cell_length_a                   10.047(1)
_cell_length_b                   15.797(2)
_cell_length_c                   10.581(1)
_cell_angle_alpha                90
_cell_angle_beta                 90.78(1)
_cell_angle_gamma                90
_cell_volume                     1679.18
loop_
_atom_site_label
_atom_site_type_symbol
_atom_site_fract_x
_atom_site_fract_y
_atom_site_fract_z
S1 S 0.07886(9) 0.20887(6) 0.53184(9)
S2 S 0.0225(1) 0.45550(6) 0.41827(9)
N1 N 0.1440(4) 0.6324(2) 0.2222(3)
N2 N 0.2563(3) 0.6190(2) 0.4517(3)
N3 N 0.2436(3) 0.3897(2) 0.6895(3)
N4 N -0.0143(3) 0.3669(2) 0.7443(3)
C1 C 0.1495(3) 0.1832(2) 0.3841(3)
C2 C 0.2008(4) 0.2452(3) 0.3065(4)
C3 C 0.2667(4) 0.2229(3) 0.1968(4)
C4 C 0.2796(4) 0.1405(3) 0.1610(4)
C5 C 0.2243(4) 0.0788(2) 0.2352(4)
C6 C 0.1594(3) 0.0989(3) 0.3457(3)
C7 C -0.1342(4) 0.4272(2) 0.3523(3)
C8 C -0.2297(4) 0.4872(3) 0.3198(4)
C9 C -0.3496(4) 0.4645(3) 0.2661(5)
C10 C -0.3799(4) 0.3813(3) 0.2422(4)
C11 C -0.2863(4) 0.3202(3) 0.2751(4)
C12 C -0.1652(4) 0.3421(3) 0.3296(3)
C13 C 0.0855(6) 0.6420(3) 0.1089(4)
C14 C 0.1613(8) 0.6599(3) 0.0019(5)
C15 C 0.2927(8) 0.6703(4) 0.0104(5)
C16 C 0.3583(6) 0.6650(3) 0.1282(5)
C17 C 0.4961(7) 0.6840(4) 0.1502(7)
C18 C 0.5517(6) 0.6810(3) 0.2671(7)
C19 C 0.4740(4) 0.6565(3) 0.3740(5)
C20 C 0.5238(5) 0.6511(3) 0.4965(7)
C21 C 0.4425(5) 0.6317(3) 0.5917(5)
C22 C 0.3073(4) 0.6160(2) 0.5683(4)
C23 C 0.3368(4) 0.6384(2) 0.3552(4)
C24 C 0.2778(4) 0.6440(3) 0.2312(4)
C25 C -0.0605(5) 0.6338(4) 0.1025(5)
C26 C 0.2110(4) 0.5975(3) 0.6697(3)
C27 C 0.3699(4) 0.4068(3) 0.6592(4)
C28 C 0.4630(4) 0.4355(3) 0.7514(5)
C29 C 0.4270(4) 0.4440(3) 0.8732(4)
C30 C 0.2966(4) 0.4262(3) 0.9094(4)
C31 C 0.2482(5) 0.4358(3) 1.0351(4)
C32 C 0.1203(5) 0.4217(3) 1.0630(4)
C33 C 0.0259(4) 0.3984(3) 0.9660(4)
C34 C -0.1098(5) 0.3861(3) 0.9879(4)
C35 C -0.1939(4) 0.3646(3) 0.8896(4)
C36 C -0.1428(4) 0.3563(3) 0.7674(3)
C37 C 0.0695(4) 0.3870(2) 0.8424(4)
C38 C 0.2071(4) 0.4004(2) 0.8129(4)
C39 C 0.4071(4) 0.3967(3) 0.5248(4)
C40 C -0.2290(4) 0.3383(3) 0.6558(4)
Cu1 Cu 0.05570(4) 0.60050 0.39987(4)
Cu2 Cu 0.08018(4) 0.35420(4) 0.56804(4)
S1A S -0.07886(9) 0.70887(6) 0.46816(9)
Cu1A Cu -0.05570(4) 0.10050 0.60013(4)
loop_
_geom_bond_atom_site_label_1
_geom_bond_atom_site_label_2
_geom_bond_site_symmetry_1
_geom_bond_site_symmetry_2
S1 C1 1_555 1_555
S2 C7 1_555 1_555
N1 C13 1_555 1_555
N2 C22 1_555 1_555
N3 C27 1_555 1_555
N4 C36 1_555 1_555
C1 C2 1_555 1_555
C2 C3 1_555 1_555
C3 C4 1_555 1_555
C4 C5 1_555 1_555
C5 C6 1_555 1_555
C6 C1 1_555 1_555
C7 C8 1_555 1_555
C8 C9 1_555 1_555
C9 C10 1_555 1_555
C10 C11 1_555 1_555
C11 C12 1_555 1_555
C12 C7 1_555 1_555
C13 C14 1_555 1_555
C14 C15 1_555 1_555
C15 C16 1_555 1_555
C16 C17 1_555 1_555
C17 C18 1_555 1_555
C18 C19 1_555 1_555
C19 C20 1_555 1_555
C20 C21 1_555 1_555
C21 C22 1_555 1_555
C22 C26 1_555 1_555
C23 N2 1_555 1_555
C24 N1 1_555 1_555
C25 C13 1_555 1_555
C27 C28 1_555 1_555
C28 C29 1_555 1_555
C29 C30 1_555 1_555
C30 C31 1_555 1_555
C31 C32 1_555 1_555
C32 C33 1_555 1_555
C33 C34 1_555 1_555
C34 C35 1_555 1_555
C35 C36 1_555 1_555
C36 C40 1_555 1_555
C37 N4 1_555 1_555
C38 N3 1_555 1_555
C39 C27 1_555 1_555
Cu1 S2 1_555 1_555
Cu2 S1 1_555 1_555
S1A Cu1 1_555 1_555
Cu1A S1 1_555 1_555
S2 Cu2 1_555 1_555
N1 Cu1 1_555 1_555
N2 Cu1 1_555 1_555
N3 Cu2 1_555 1_555
N4 Cu2 1_555 1_555
C16 C24 1_555 1_555
C19 C23 1_555 1_555
C23 C24 1_555 1_555
C30 C38 1_555 1_555
C33 C37 1_555 1_555
C37 C38 1_555 1_555

#END
