
#######################################################################
#
#                 Cambridge Crystallographic Data Centre
#                                CCDC 
#
#######################################################################
#
# If this CIF has been generated from an entry in the Cambridge 
# Structural Database, then it will include bibliographic, chemical, 
# crystal, experimental, refinement or atomic coordinate data resulting 
# from the CCDC's data processing and validation procedures.
#
#######################################################################

data_CEXBIQ02
_symmetry_cell_setting           monoclinic
_symmetry_space_group_name_H-M   'P 21/n'
_symmetry_Int_Tables_number      14
_space_group_name_Hall           '-P 2yn'
loop_
_symmetry_equiv_pos_site_id
_symmetry_equiv_pos_as_xyz
1 x,y,z
2 1/2-x,1/2+y,1/2-z
3 -x,-y,-z
4 1/2+x,1/2-y,1/2+z
_cell_length_a                   9.5216(13)
_cell_length_b                   6.9290(9)
_cell_length_c                   11.8543(15)
_cell_angle_alpha                90
_cell_angle_beta                 95.295(11)
_cell_angle_gamma                90
_cell_volume                     778.752
loop_
_atom_site_label
_atom_site_type_symbol
_atom_site_fract_x
_atom_site_fract_y
_atom_site_fract_z
Cu1 Cu 0.848846(4) 0.211291(7) 0.097749(3)
N1 N 0.64456(3) 0.23181(4) 0.05235(2)
N2 N 0.43083(3) 0.29128(5) -0.05594(2)
C1 C 0.57642(3) 0.29455(5) -0.04626(3)
O1 O 0.78580(2) 0.09524(4) 0.234035(19)
O2 O 0.21764(3) 0.21492(5) 0.00084(2)
C2 C 0.34724(3) 0.22106(6) 0.02329(3)
O3 O 0.59231(2) 0.00446(4) 0.31178(2)
O4 O 0.90467(3) 0.30542(5) -0.04550(2)
O5 O 0.63864(3) 0.35434(4) -0.12705(2)
C3 C 0.56562(3) 0.16287(5) 0.13379(3)
C4 C 0.65204(3) 0.08150(5) 0.23637(3)
C5 C 0.42290(3) 0.15611(5) 0.12560(3)
O6 O 1.03744(3) 0.11875(5) 0.14634(2)
H1 H 0.3886(4) 0.3296(5) -0.1192(3)
H2 H 0.3711(4) 0.1102(6) 0.1796(3)
H3 H 1.1059(5) 0.1465(8) 0.1117(4)
H4 H 1.0712(5) 0.1315(7) 0.2173(4)
H5 H 0.8316(5) 0.3265(7) -0.0908(4)
H6 H 0.9646(6) 0.3576(8) -0.0640(5)
Cu1A Cu 0.651154(4) -0.288709(7) 0.402251(3)
O3A O 0.90769(2) 0.50446(4) 0.18822(2)
loop_
_geom_bond_atom_site_label_1
_geom_bond_atom_site_label_2
_geom_bond_site_symmetry_1
_geom_bond_site_symmetry_2
Cu1 N1 1_555 1_555
N1 C1 1_555 1_555
N2 C1 1_555 1_555
C1 O5 1_555 1_555
O1 Cu1 1_555 1_555
O2 C2 1_555 1_555
C2 N2 1_555 1_555
O3 C4 1_555 1_555
O4 Cu1 1_555 1_555
C3 N1 1_555 1_555
C4 O1 1_555 1_555
C5 C2 1_555 1_555
O6 Cu1 1_555 1_555
H1 N2 1_555 1_555
H2 C5 1_555 1_555
H3 O6 1_555 1_555
H4 O6 1_555 1_555
H5 O4 1_555 1_555
H6 O4 1_555 1_555
Cu1A O3 1_555 1_555
O3A Cu1 1_555 1_555
C3 C4 1_555 1_555
C3 C5 1_555 1_555

#END
