
#######################################################################
#
#                 Cambridge Crystallographic Data Centre
#                                CCDC 
#
#######################################################################
#
# If this CIF has been generated from an entry in the Cambridge 
# Structural Database, then it will include bibliographic, chemical, 
# crystal, experimental, refinement or atomic coordinate data resulting 
# from the CCDC's data processing and validation procedures.
#
#######################################################################

data_CEXBIQ01
_symmetry_cell_setting           monoclinic
_symmetry_space_group_name_H-M   'P 21/n'
_symmetry_Int_Tables_number      14
_space_group_name_Hall           '-P 2yn'
loop_
_symmetry_equiv_pos_site_id
_symmetry_equiv_pos_as_xyz
1 x,y,z
2 1/2-x,1/2+y,1/2-z
3 -x,-y,-z
4 1/2+x,1/2-y,1/2+z
_cell_length_a                   9.515(5)
_cell_length_b                   6.925(2)
_cell_length_c                   11.861(6)
_cell_angle_alpha                90
_cell_angle_beta                 95.285(9)
_cell_angle_gamma                90
_cell_volume                     778.215
loop_
_atom_site_label
_atom_site_type_symbol
_atom_site_fract_x
_atom_site_fract_y
_atom_site_fract_z
Cu1 Cu 0.34897(2) 0.21106(4) 0.09778(2)
O1 O 0.1388(2) 0.3551(3) -0.1274(1)
O2 O -0.2826(2) 0.2149(4) 0.0007(1)
O3 O 0.0918(2) 0.0038(3) 0.3119(1)
O4 O 0.2859(1) 0.0949(3) 0.2340(1)
O5 O 0.4046(2) 0.3060(4) -0.0455(1)
O6 O 0.5378(2) 0.1184(3) 0.1462(1)
N1 N -0.0691(2) 0.2916(3) -0.0562(1)
N2 N 0.1446(2) 0.2321(3) 0.0520(1)
C1 C 0.0762(2) 0.2948(3) -0.0463(1)
C2 C -0.1527(2) 0.2212(4) 0.0232(2)
C3 C -0.0774(2) 0.1555(3) 0.1259(2)
C4 C 0.0656(2) 0.1625(3) 0.1340(1)
C5 C 0.1522(2) 0.0813(3) 0.2364(2)
Cu1A Cu 0.15103(2) -0.28894(4) 0.40222(2)
O3A O 0.4082(2) 0.5038(3) 0.1881(1)
loop_
_geom_bond_atom_site_label_1
_geom_bond_atom_site_label_2
_geom_bond_site_symmetry_1
_geom_bond_site_symmetry_2
Cu1 O4 1_555 1_555
O1 C1 1_555 1_555
O2 C2 1_555 1_555
O3 C5 1_555 1_555
O4 C5 1_555 1_555
O5 Cu1 1_555 1_555
O6 Cu1 1_555 1_555
N1 C1 1_555 1_555
N2 Cu1 1_555 1_555
C1 N2 1_555 1_555
C2 N1 1_555 1_555
C3 C2 1_555 1_555
C4 N2 1_555 1_555
C5 C4 1_555 1_555
Cu1A O3 1_555 1_555
O3A Cu1 1_555 1_555
C3 C4 1_555 1_555

#END
