
#######################################################################
#
#                 Cambridge Crystallographic Data Centre
#                                CCDC 
#
#######################################################################
#
# If this CIF has been generated from an entry in the Cambridge 
# Structural Database, then it will include bibliographic, chemical, 
# crystal, experimental, refinement or atomic coordinate data resulting 
# from the CCDC's data processing and validation procedures.
#
#######################################################################

data_CEXJEV
_symmetry_cell_setting           triclinic
_symmetry_space_group_name_H-M   'P -1'
_symmetry_Int_Tables_number      2
_space_group_name_Hall           '-P 1'
loop_
_symmetry_equiv_pos_site_id
_symmetry_equiv_pos_as_xyz
1 x,y,z
2 -x,-y,-z
_cell_length_a                   13.120(3)
_cell_length_b                   16.111(3)
_cell_length_c                   16.134(3)
_cell_angle_alpha                110.178(3)
_cell_angle_beta                 112.416(3)
_cell_angle_gamma                97.335(3)
_cell_volume                     2824.05
loop_
_atom_site_label
_atom_site_type_symbol
_atom_site_fract_x
_atom_site_fract_y
_atom_site_fract_z
P1 P 1.0000 1.0000 0.5000
F1 F 0.9587(7) 1.0800(4) 0.4821(6)
F2 F 0.9903(7) 0.9553(6) 0.3954(5)
F3 F 0.8724(6) 0.9468(5) 0.4631(7)
F1A F 1.0413(7) 0.9200(4) 0.5179(6)
F2A F 1.0097(7) 1.0447(6) 0.6046(5)
F3A F 1.1276(6) 1.0532(5) 0.5369(7)
C43 C 0.0806(14) 0.4124(8) 0.8672(8)
H31 H 0.0339 0.4458 0.8886
C44 C 0.0415(9) 0.3161(8) 0.8191(8)
H32 H -0.0320 0.2838 0.8076
C45 C 0.1098(11) 0.2672(7) 0.7877(7)
H33 H 0.0830 0.2014 0.7549
C46 C 0.2172(10) 0.3144(11) 0.8045(9)
H34 H 0.2638 0.2809 0.7831
C47 C 0.2563(10) 0.4106(11) 0.8526(9)
H35 H 0.3297 0.4429 0.8640
C48 C 0.1880(15) 0.4596(7) 0.8839(8)
H36 H 0.2147 0.5254 0.9168
Ag1 Ag 0.27376(4) 0.95134(3) 0.27254(3)
Co1 Co 0.31968(5) 0.58672(4) 0.66626(4)
C1 C 0.1613(4) 0.4881(3) 0.4525(3)
H1 H 0.1366 0.4332 0.4584
C2 C 0.1185(4) 0.4972(3) 0.3631(3)
H2 H 0.0624 0.4511 0.2997
C3 C 0.1733(4) 0.5853(3) 0.3854(3)
H3 H 0.1627 0.6128 0.3404
C4 C 0.2493(4) 0.6283(3) 0.4887(3)
C5 C 0.3235(4) 0.7190(3) 0.5454(3)
C6 C 0.4025(4) 0.7575(3) 0.6456(4)
C7 C 0.4828(5) 0.8465(4) 0.7041(4)
H4 H 0.4923 0.8937 0.6827
C8 C 0.5442(6) 0.8529(4) 0.7967(4)
H5 H 0.6057 0.9045 0.8518
C9 C 0.4989(5) 0.7684(3) 0.7945(4)
H6 H 0.5259 0.7540 0.8499
C10 C 0.3159(4) 0.7786(3) 0.4916(4)
C11 C 0.4018(5) 0.8000(4) 0.4649(5)
H7 H 0.4676 0.7784 0.4823
C12 C 0.3888(6) 0.8526(5) 0.4130(5)
H8 H 0.4490 0.8687 0.3971
C13 C 0.2222(5) 0.8680(4) 0.4161(4)
H9 H 0.1600 0.8938 0.4013
C14 C 0.2284(4) 0.8173(3) 0.4706(4)
H10 H 0.1723 0.8095 0.4932
C15 C 0.1191(4) 0.6590(3) -0.3712(3)
H11 H 0.0939 0.6331 -0.4407
C16 C 0.0665(4) 0.7153(3) -0.3233(3)
H12 H 0.0016 0.7338 -0.3537
C17 C 0.1269(4) 0.7380(3) -0.2246(3)
H13 H 0.1121 0.7754 -0.1729
C18 C 0.2167(4) 0.6948(3) -0.2136(3)
C19 C 0.2973(4) 0.6966(3) -0.1264(3)
C20 C 0.3817(4) 0.6513(3) -0.1182(3)
C21 C 0.4589(5) 0.6446(4) -0.0329(4)
H14 H 0.4661 0.6727 0.0322
C22 C 0.5217(6) 0.5891(5) -0.0626(4)
H15 H 0.5809 0.5718 -0.0220
C23 C 0.4808(5) 0.5630(4) -0.1656(4)
H16 H 0.5084 0.5237 -0.2056
C24 C 0.2950(4) 0.7532(3) -0.0317(3)
C25 C 0.3818(5) 0.8344(4) 0.0383(4)
H17 H 0.4465 0.8539 0.0290
C26 C 0.3731(5) 0.8865(4) 0.1214(4)
H18 H 0.4331 0.9426 0.1687
C27 C 0.2040(5) 0.7835(4) 0.0740(4)
H19 H 0.1422 0.7643 0.0868
C28 C 0.2048(5) 0.7274(4) -0.0121(4)
H20 H 0.1440 0.6714 -0.0578
C29 C 0.1344(4) 1.4508(3) 0.6508(4)
H21 H 0.1082 1.4978 0.6836
C30 C 0.0809(4) 1.3574(4) 0.6127(4)
H22 H 0.0139 1.3301 0.6149
C31 C 0.1425(4) 1.3113(3) 0.5711(3)
H23 H 0.1266 1.2461 0.5386
C32 C 0.2343(4) 1.3800(3) 0.5859(3)
C33 C 0.3231(4) 1.3691(3) 0.5594(3)
C34 C 0.4169(4) 1.4403(3) 0.5840(3)
C35 C 0.5183(4) 1.4316(3) 0.5743(3)
H24 H 0.5314 1.3754 0.5422
C36 C 0.5931(4) 1.5180(3) 0.6191(4)
H25 H 0.6687 1.5336 0.6251
C37 C 0.5377(4) 1.5800(3) 0.6550(3)
H26 H 0.5703 1.6454 0.6886
C38 C 0.3131(4) 1.2732(3) 0.4954(3)
C39 C 0.3201(5) 1.2045(3) 0.5276(4)
H27 H 0.3330 1.2171 0.5934
C40 C 0.3080(5) 1.1178(3) 0.4636(4)
H28 H 0.3121 1.0708 0.4867
C41 C 0.2817(5) 1.1624(3) 0.3386(4)
H29 H 0.2676 1.1484 0.2723
C42 C 0.2919(5) 1.2505(3) 0.3986(4)
H30 H 0.2845 1.2959 0.3735
N1 N 0.2396(3) 0.5643(2) 0.5274(3)
N2 N 0.4130(3) 0.7104(2) 0.7051(3)
N3 N 0.2975(4) 0.8829(3) 0.3831(3)
N4 N 0.2087(3) 0.6466(3) -0.3067(3)
N5 N 0.3990(3) 0.6004(3) -0.1990(3)
N6 N 0.2851(4) 0.8628(3) 0.1398(3)
N7 N 0.2266(3) 1.4680(2) 0.6366(3)
N8 N 0.4319(3) 1.5339(2) 0.6354(2)
N9 N 0.2907(4) 1.0949(3) 0.3696(3)
Ag1_2 Ag 0.27376(4) 0.95134(3) -0.72746(3)
Ag1_3 Ag 0.27376(4) 0.95134(3) 1.27254(3)
Ag1_4 Ag 0.27376(4) -0.04866(3) 0.27254(3)
Co1_2 Co 0.31968(5) 0.58672(4) -0.33374(4)
Co1_3 Co 0.31968(5) 1.58672(4) 0.66626(4)
C1_2 C 0.1613(4) 0.4881(3) -0.5475(3)
H1_2 H 0.1366 0.4332 -0.5416
C2_2 C 0.1185(4) 0.4972(3) -0.6369(3)
H2_2 H 0.0624 0.4511 -0.7003
C3_2 C 0.1733(4) 0.5853(3) -0.6146(3)
H3_2 H 0.1627 0.6128 -0.6596
C4_2 C 0.2493(4) 0.6283(3) -0.5113(3)
C5_2 C 0.3235(4) 0.7190(3) -0.4546(3)
C6_2 C 0.4025(4) 0.7575(3) -0.3544(4)
C7_2 C 0.4828(5) 0.8465(4) -0.2959(4)
H4_2 H 0.4923 0.8937 -0.3173
C8_2 C 0.5442(6) 0.8529(4) -0.2033(4)
H5_2 H 0.6057 0.9045 -0.1482
C9_2 C 0.4989(5) 0.7684(3) -0.2055(4)
H6_2 H 0.5259 0.7540 -0.1501
C10_2 C 0.3159(4) 0.7786(3) -0.5084(4)
C11_2 C 0.4018(5) 0.8000(4) -0.5351(5)
H7_2 H 0.4676 0.7784 -0.5177
C12_2 C 0.3888(6) 0.8526(5) -0.5870(5)
H8_2 H 0.4490 0.8687 -0.6029
C13_2 C 0.2222(5) 0.8680(4) -0.5839(4)
H9_2 H 0.1600 0.8938 -0.5987
C14_2 C 0.2284(4) 0.8173(3) -0.5294(4)
H10_2 H 0.1723 0.8095 -0.5068
C15_2 C 0.1191(4) 0.6590(3) 0.6288(3)
H11_2 H 0.0939 0.6331 0.5593
C16_2 C 0.0665(4) 0.7153(3) 0.6767(3)
H12_2 H 0.0016 0.7338 0.6463
C17_2 C 0.1269(4) 0.7380(3) 0.7754(3)
H13_2 H 0.1121 0.7754 0.8271
C18_2 C 0.2167(4) 0.6948(3) 0.7864(3)
C19_2 C 0.2973(4) 0.6966(3) 0.8736(3)
C20_2 C 0.3817(4) 0.6513(3) 0.8818(3)
C21_2 C 0.4589(5) 0.6446(4) 0.9671(4)
H14_2 H 0.4661 0.6727 1.0322
C22_2 C 0.5217(6) 0.5891(5) 0.9374(4)
H15_2 H 0.5809 0.5718 0.9780
C23_2 C 0.4808(5) 0.5630(4) 0.8344(4)
H16_2 H 0.5084 0.5237 0.7944
C24_2 C 0.2950(4) 0.7532(3) 0.9683(3)
C25_2 C 0.3818(5) 0.8344(4) 1.0383(4)
H17_2 H 0.4465 0.8539 1.0290
C26_2 C 0.3731(5) 0.8865(4) 1.1214(4)
H18_2 H 0.4331 0.9426 1.1687
C27_2 C 0.2040(5) 0.7835(4) 1.0740(4)
H19_2 H 0.1422 0.7643 1.0868
C28_2 C 0.2048(5) 0.7274(4) 0.9879(4)
H20_2 H 0.1440 0.6714 0.9422
C29_2 C 0.1344(4) 0.4508(3) 0.6508(4)
H21_2 H 0.1082 0.4978 0.6836
C30_2 C 0.0809(4) 0.3574(4) 0.6127(4)
H22_2 H 0.0139 0.3301 0.6149
C31_2 C 0.1425(4) 0.3113(3) 0.5711(3)
H23_2 H 0.1266 0.2461 0.5386
C32_2 C 0.2343(4) 0.3800(3) 0.5859(3)
C33_2 C 0.3231(4) 0.3691(3) 0.5594(3)
C34_2 C 0.4169(4) 0.4403(3) 0.5840(3)
C35_2 C 0.5183(4) 0.4316(3) 0.5743(3)
H24_2 H 0.5314 0.3754 0.5422
C36_2 C 0.5931(4) 0.5180(3) 0.6191(4)
H25_2 H 0.6687 0.5336 0.6251
C37_2 C 0.5377(4) 0.5800(3) 0.6550(3)
H26_2 H 0.5703 0.6454 0.6886
C38_2 C 0.3131(4) 0.2732(3) 0.4954(3)
C39_2 C 0.3201(5) 0.2045(3) 0.5276(4)
H27_2 H 0.3330 0.2171 0.5934
C40_2 C 0.3080(5) 0.1178(3) 0.4636(4)
H28_2 H 0.3121 0.0708 0.4867
C41_2 C 0.2817(5) 0.1624(3) 0.3386(4)
H29_2 H 0.2676 0.1484 0.2723
C42_2 C 0.2919(5) 0.2505(3) 0.3986(4)
H30_2 H 0.2845 0.2959 0.3735
N1_2 N 0.2396(3) 0.5643(2) -0.4726(3)
N2_2 N 0.4130(3) 0.7104(2) -0.2949(3)
N3_2 N 0.2975(4) 0.8829(3) -0.6169(3)
N4_2 N 0.2087(3) 0.6466(3) 0.6933(3)
N5_2 N 0.3990(3) 0.6004(3) 0.8010(3)
N6_2 N 0.2851(4) 0.8628(3) 1.1398(3)
N6_3 N 0.2851(4) 0.8628(3) -0.8602(3)
N7_2 N 0.2266(3) 0.4680(2) 0.6366(3)
N7_3 N 0.2266(3) 0.4680(2) -0.3634(3)
N8_2 N 0.4319(3) 0.5339(2) 0.6354(2)
N8_3 N 0.4319(3) 0.5339(2) -0.3646(2)
N9_2 N 0.2907(4) 0.0949(3) 0.3696(3)
N9_3 N 0.2907(4) 1.0949(3) -0.6304(3)
P2? P 0.0240(5) 0.4561(4) 0.9067(3)
F4? F -0.0412(16) 0.3606(8) 0.8134(8)
F5? F 0.0770(12) 0.5536(9) 1.0002(9)
F6? F -0.0267(18) 0.4128(13) 0.9582(12)
F7? F -0.0887(11) 0.4900(10) 0.8611(8)
F8? F 0.1345(12) 0.4292(10) 0.9556(9)
F9? F 0.0755(10) 0.4935(9) 0.8501(8)
loop_
_geom_bond_atom_site_label_1
_geom_bond_atom_site_label_2
_geom_bond_site_symmetry_1
_geom_bond_site_symmetry_2
Ag1 N3 1_555 1_555
Co1 N1 1_555 1_555
C1 H1 1_555 1_555
C2 C1 1_555 1_555
H2 C2 1_555 1_555
C3 C2 1_555 1_555
H3 C3 1_555 1_555
C4 C3 1_555 1_555
C5 C4 1_555 1_555
C6 C5 1_555 1_555
C7 C6 1_555 1_555
H4 C7 1_555 1_555
C8 C7 1_555 1_555
H5 C8 1_555 1_555
C9 C8 1_555 1_555
H6 C9 1_555 1_555
C10 C5 1_555 1_555
C11 C10 1_555 1_555
H7 C11 1_555 1_555
C12 C11 1_555 1_555
H8 C12 1_555 1_555
C13 H9 1_555 1_555
C14 C10 1_555 1_555
H10 C14 1_555 1_555
C15 H11 1_555 1_555
C16 C15 1_555 1_555
H12 C16 1_555 1_555
C17 C16 1_555 1_555
H13 C17 1_555 1_555
C18 C17 1_555 1_555
C19 C18 1_555 1_555
C20 C19 1_555 1_555
C21 C20 1_555 1_555
H14 C21 1_555 1_555
C22 C21 1_555 1_555
H15 C22 1_555 1_555
C23 C22 1_555 1_555
H16 C23 1_555 1_555
C24 C19 1_555 1_555
C25 C24 1_555 1_555
H17 C25 1_555 1_555
C26 C25 1_555 1_555
H18 C26 1_555 1_555
C27 H19 1_555 1_555
C28 C24 1_555 1_555
H20 C28 1_555 1_555
C29 H21 1_555 1_555
C30 C29 1_555 1_555
H22 C30 1_555 1_555
C31 C30 1_555 1_555
H23 C31 1_555 1_555
C32 C31 1_555 1_555
C33 C32 1_555 1_555
C34 C33 1_555 1_555
C35 C34 1_555 1_555
H24 C35 1_555 1_555
C36 C35 1_555 1_555
H25 C36 1_555 1_555
C37 C36 1_555 1_555
H26 C37 1_555 1_555
C38 C33 1_555 1_555
C39 C38 1_555 1_555
H27 C39 1_555 1_555
C40 C39 1_555 1_555
H28 C40 1_555 1_555
C41 H29 1_555 1_555
C42 C38 1_555 1_555
H30 C42 1_555 1_555
N1 C1 1_555 1_555
N2 Co1 1_555 1_555
N3 C12 1_555 1_555
N4 C15 1_555 1_555
N5 C20 1_555 1_555
N6 Ag1 1_555 1_555
N7 C29 1_555 1_555
N8 C34 1_555 1_555
N9 Ag1 1_555 1_555
P1 F1 1_555 1_555
F2 P1 1_555 1_555
F3 P1 1_555 1_555
C43 H31 1_555 1_555
C44 C43 1_555 1_555
H32 C44 1_555 1_555
C45 C44 1_555 1_555
H33 C45 1_555 1_555
C46 C45 1_555 1_555
H34 C46 1_555 1_555
C47 C46 1_555 1_555
H35 C47 1_555 1_555
C48 C43 1_555 1_555
H36 C48 1_555 1_555
Ag1_2 N3_2 1_555 1_555
Ag1_3 N6_2 1_555 1_555
Ag1_4 N9_2 1_555 1_555
Co1_2 N4 1_555 1_555
Co1_3 N7 1_555 1_555
C1_2 H1_2 1_555 1_555
C2_2 C1_2 1_555 1_555
H2_2 C2_2 1_555 1_555
C3_2 C2_2 1_555 1_555
H3_2 C3_2 1_555 1_555
C4_2 C3_2 1_555 1_555
C5_2 C4_2 1_555 1_555
C6_2 C5_2 1_555 1_555
C7_2 C6_2 1_555 1_555
H4_2 C7_2 1_555 1_555
C8_2 C7_2 1_555 1_555
H5_2 C8_2 1_555 1_555
C9_2 C8_2 1_555 1_555
H6_2 C9_2 1_555 1_555
C10_2 C5_2 1_555 1_555
C11_2 C10_2 1_555 1_555
H7_2 C11_2 1_555 1_555
C12_2 C11_2 1_555 1_555
H8_2 C12_2 1_555 1_555
C13_2 H9_2 1_555 1_555
C14_2 C10_2 1_555 1_555
H10_2 C14_2 1_555 1_555
C15_2 H11_2 1_555 1_555
C16_2 C15_2 1_555 1_555
H12_2 C16_2 1_555 1_555
C17_2 C16_2 1_555 1_555
H13_2 C17_2 1_555 1_555
C18_2 C17_2 1_555 1_555
C19_2 C18_2 1_555 1_555
C20_2 C19_2 1_555 1_555
C21_2 C20_2 1_555 1_555
H14_2 C21_2 1_555 1_555
C22_2 C21_2 1_555 1_555
H15_2 C22_2 1_555 1_555
C23_2 C22_2 1_555 1_555
H16_2 C23_2 1_555 1_555
C24_2 C19_2 1_555 1_555
C25_2 C24_2 1_555 1_555
H17_2 C25_2 1_555 1_555
C26_2 C25_2 1_555 1_555
H18_2 C26_2 1_555 1_555
C27_2 H19_2 1_555 1_555
C28_2 C24_2 1_555 1_555
H20_2 C28_2 1_555 1_555
C29_2 H21_2 1_555 1_555
C30_2 C29_2 1_555 1_555
H22_2 C30_2 1_555 1_555
C31_2 C30_2 1_555 1_555
H23_2 C31_2 1_555 1_555
C32_2 C31_2 1_555 1_555
C33_2 C32_2 1_555 1_555
C34_2 C33_2 1_555 1_555
C35_2 C34_2 1_555 1_555
H24_2 C35_2 1_555 1_555
C36_2 C35_2 1_555 1_555
H25_2 C36_2 1_555 1_555
C37_2 C36_2 1_555 1_555
H26_2 C37_2 1_555 1_555
C38_2 C33_2 1_555 1_555
C39_2 C38_2 1_555 1_555
H27_2 C39_2 1_555 1_555
C40_2 C39_2 1_555 1_555
H28_2 C40_2 1_555 1_555
C41_2 H29_2 1_555 1_555
C42_2 C38_2 1_555 1_555
H30_2 C42_2 1_555 1_555
N1_2 Co1_2 1_555 1_555
N2_2 Co1_2 1_555 1_555
N3_2 C12_2 1_555 1_555
N4_2 Co1 1_555 1_555
N5_2 Co1 1_555 1_555
N6_2 C26_2 1_555 1_555
N6_3 Ag1_2 1_555 1_555
N7_2 Co1 1_555 1_555
N7_3 Co1_2 1_555 1_555
N8_2 Co1 1_555 1_555
N8_3 Co1_2 1_555 1_555
N9_2 C40_2 1_555 1_555
N9_3 Ag1_2 1_555 1_555
F1A P1 1_555 1_555
F2A P1 1_555 1_555
F3A P1 1_555 1_555
C4 N1 1_555 1_555
C6 N2 1_555 1_555
C9 N2 1_555 1_555
C13 C14 1_555 1_555
C13 N3 1_555 1_555
C18 N4 1_555 1_555
C23 N5 1_555 1_555
C26 N6 1_555 1_555
C27 C28 1_555 1_555
C27 N6 1_555 1_555
C32 N7 1_555 1_555
C37 N8 1_555 1_555
C40 N9 1_555 1_555
C41 C42 1_555 1_555
C41 N9 1_555 1_555
N5 Co1_2 1_555 1_555
N8 Co1_3 1_555 1_555
C47 C48 1_555 1_555
C1_2 N1_2 1_555 1_555
C4_2 N1_2 1_555 1_555
C6_2 N2_2 1_555 1_555
C9_2 N2_2 1_555 1_555
C13_2 C14_2 1_555 1_555
C13_2 N3_2 1_555 1_555
C15_2 N4_2 1_555 1_555
C18_2 N4_2 1_555 1_555
C20_2 N5_2 1_555 1_555
C23_2 N5_2 1_555 1_555
C27_2 C28_2 1_555 1_555
C27_2 N6_2 1_555 1_555
C29_2 N7_2 1_555 1_555
C32_2 N7_2 1_555 1_555
C34_2 N8_2 1_555 1_555
C37_2 N8_2 1_555 1_555
C41_2 C42_2 1_555 1_555
C41_2 N9_2 1_555 1_555

#END
