
#######################################################################
#
#                 Cambridge Crystallographic Data Centre
#                                CCDC 
#
#######################################################################
#
# If this CIF has been generated from an entry in the Cambridge 
# Structural Database, then it will include bibliographic, chemical, 
# crystal, experimental, refinement or atomic coordinate data resulting 
# from the CCDC's data processing and validation procedures.
#
#######################################################################

data_CEXJAR
_symmetry_cell_setting           triclinic
_symmetry_space_group_name_H-M   'P -1'
_symmetry_Int_Tables_number      2
_space_group_name_Hall           '-P 1'
loop_
_symmetry_equiv_pos_site_id
_symmetry_equiv_pos_as_xyz
1 x,y,z
2 -x,-y,-z
_cell_length_a                   13.089(3)
_cell_length_b                   16.265(3)
_cell_length_c                   16.105(3)
_cell_angle_alpha                110.124(3)
_cell_angle_beta                 112.084(3)
_cell_angle_gamma                98.571(3)
_cell_volume                     2826.31
loop_
_atom_site_label
_atom_site_type_symbol
_atom_site_fract_x
_atom_site_fract_y
_atom_site_fract_z
Ag1 Ag 0.76846(3) 0.95172(2) 0.27414(2)
Fe1 Fe 0.82085(4) 0.58756(3) 0.66803(4)
C1 C 0.6612(3) 0.4876(2) 0.4507(3)
H1 H 0.6359 0.4325 0.4558
C2 C 0.6191(3) 0.4968(3) 0.3615(3)
H2 H 0.5631 0.4505 0.2974
C3 C 0.6750(3) 0.5864(3) 0.3856(3)
H3 H 0.6644 0.6141 0.3411
C4 C 0.7515(3) 0.6297(2) 0.4895(3)
C5 C 0.8259(3) 0.7198(2) 0.5458(3)
C6 C 0.9053(3) 0.7587(2) 0.6460(3)
C7 C 0.9888(4) 0.8486(3) 0.7047(3)
H4 H 0.9989 0.8952 0.6829
C8 C 1.0513(4) 0.8560(3) 0.7972(3)
H5 H 1.1144 0.9078 0.8518
C9 C 1.0041(4) 0.7721(3) 0.7963(3)
H6 H 1.0305 0.7592 0.8525
C10 C 0.8188(3) 0.7796(2) 0.4929(3)
C11 C 0.9003(5) 0.7986(4) 0.4613(4)
H7 H 0.9646 0.7759 0.4755
C12 C 0.8868(5) 0.8509(4) 0.4089(5)
H8 H 0.9432 0.8635 0.3874
C13 C 0.7252(4) 0.8710(3) 0.4225(3)
H9 H 0.6644 0.8976 0.4110
C14 C 0.7328(3) 0.8198(3) 0.4757(3)
H10 H 0.6784 0.8122 0.5005
C15 C 0.6209(3) 0.6599(3) -0.3684(3)
H11 H 0.5954 0.6335 -0.4382
C16 C 0.5695(3) 0.7168(3) -0.3200(3)
H12 H 0.5054 0.7353 -0.3505
C17 C 0.6295(3) 0.7397(3) -0.2213(3)
H13 H 0.6151 0.7773 -0.1697
C18 C 0.7179(3) 0.6971(2) -0.2095(3)
C19 C 0.7992(3) 0.7004(2) -0.1223(3)
C20 C 0.8833(3) 0.6558(3) -0.1139(3)
C21 C 0.9611(4) 0.6502(3) -0.0282(3)
H14 H 0.9700 0.6800 0.0374
C22 C 1.0209(4) 0.5942(3) -0.0573(3)
H15 H 1.0785 0.5769 -0.0162
C23 C 0.9809(4) 0.5669(3) -0.1598(3)
H16 H 1.0083 0.5275 -0.1992
C24 C 0.7954(3) 0.7563(2) -0.0285(3)
C25 C 0.8826(4) 0.8384(3) 0.0417(3)
H17 H 0.9477 0.8590 0.0326
C26 C 0.8739(4) 0.8901(3) 0.1256(3)
H18 H 0.9344 0.9467 0.1732
C27 C 0.7030(4) 0.7846(3) 0.0760(3)
H19 H 0.6403 0.7643 0.0879
C28 C 0.7043(4) 0.7293(3) -0.0104(4)
H20 H 0.6428 0.6730 -0.0570
C29 C 0.6317(3) 1.4504(3) 0.6511(3)
H21 H 0.6069 1.4973 0.6846
C30 C 0.5753(4) 1.3554(3) 0.6112(3)
H22 H 0.5077 1.3274 0.6132
C31 C 0.6362(3) 1.3106(3) 0.5686(3)
H23 H 0.6181 1.2456 0.5344
C32 C 0.7314(3) 1.3797(2) 0.5853(3)
C33 C 0.8193(3) 1.3684(2) 0.5583(3)
C34 C 0.9160(3) 1.4395(2) 0.5843(3)
C35 C 1.0169(3) 1.4308(3) 0.5739(3)
H24 H 1.0286 1.3748 0.5412
C36 C 1.0948(3) 1.5182(3) 0.6200(3)
H25 H 1.1710 1.5343 0.6262
C37 C 1.0401(3) 1.5790(3) 0.6560(3)
H26 H 1.0740 1.6443 0.6898
C38 C 0.8090(3) 1.2730(2) 0.4955(3)
C39 C 0.8140(4) 1.2048(3) 0.5279(3)
H27 H 0.8255 1.2175 0.5935
C40 C 0.8020(4) 1.1180(3) 0.4635(3)
H28 H 0.8061 1.0717 0.4869
C41 C 0.7779(4) 1.1610(3) 0.3389(3)
H29 H 0.7648 1.1463 0.2725
C42 C 0.7888(4) 1.2493(3) 0.3981(3)
H30 H 0.7825 1.2939 0.3725
N1 N 0.7411(2) 0.56549(19) 0.5276(2)
N2 N 0.9176(3) 0.7125(2) 0.7064(2)
N3 N 0.7987(3) 0.8849(2) 0.3865(3)
N4 N 0.7098(3) 0.6482(2) -0.3035(2)
N5 N 0.8986(3) 0.6039(2) -0.1951(2)
N6 N 0.7855(3) 0.8652(2) 0.1436(2)
N7 N 0.7246(2) 1.46630(19) 0.6360(2)
N8 N 0.9331(2) 1.53314(19) 0.6365(2)
N9 N 0.7848(3) 1.0951(2) 0.3699(3)
Ag1_2 Ag 0.76846(3) 0.95172(2) -0.72586(2)
Ag1_3 Ag 0.76846(3) 0.95172(2) 1.27414(2)
Ag1_4 Ag 0.76846(3) -0.04828(2) 0.27414(2)
Fe1_2 Fe 0.82085(4) 0.58756(3) -0.33197(4)
Fe1_3 Fe 0.82085(4) 1.58756(3) 0.66803(4)
C1_2 C 0.6612(3) 0.4876(2) -0.5493(3)
H1_2 H 0.6359 0.4325 -0.5442
C2_2 C 0.6191(3) 0.4968(3) -0.6385(3)
H2_2 H 0.5631 0.4505 -0.7026
C3_2 C 0.6750(3) 0.5864(3) -0.6144(3)
H3_2 H 0.6644 0.6141 -0.6589
C4_2 C 0.7515(3) 0.6297(2) -0.5105(3)
C5_2 C 0.8259(3) 0.7198(2) -0.4542(3)
C6_2 C 0.9053(3) 0.7587(2) -0.3540(3)
C7_2 C 0.9888(4) 0.8486(3) -0.2953(3)
H4_2 H 0.9989 0.8952 -0.3171
C8_2 C 1.0513(4) 0.8560(3) -0.2028(3)
H5_2 H 1.1144 0.9078 -0.1482
C9_2 C 1.0041(4) 0.7721(3) -0.2037(3)
H6_2 H 1.0305 0.7592 -0.1475
C10_2 C 0.8188(3) 0.7796(2) -0.5071(3)
C11_2 C 0.9003(5) 0.7986(4) -0.5387(4)
H7_2 H 0.9646 0.7759 -0.5245
C12_2 C 0.8868(5) 0.8509(4) -0.5911(5)
H8_2 H 0.9432 0.8635 -0.6126
C13_2 C 0.7252(4) 0.8710(3) -0.5775(3)
H9_2 H 0.6644 0.8976 -0.5890
C14_2 C 0.7328(3) 0.8198(3) -0.5243(3)
H10_2 H 0.6784 0.8122 -0.4995
C15_2 C 0.6209(3) 0.6599(3) 0.6316(3)
H11_2 H 0.5954 0.6335 0.5618
C16_2 C 0.5695(3) 0.7168(3) 0.6800(3)
H12_2 H 0.5054 0.7353 0.6495
C17_2 C 0.6295(3) 0.7397(3) 0.7787(3)
H13_2 H 0.6151 0.7773 0.8303
C18_2 C 0.7179(3) 0.6971(2) 0.7905(3)
C19_2 C 0.7992(3) 0.7004(2) 0.8777(3)
C20_2 C 0.8833(3) 0.6558(3) 0.8861(3)
C21_2 C 0.9611(4) 0.6502(3) 0.9718(3)
H14_2 H 0.9700 0.6800 1.0374
C22_2 C 1.0209(4) 0.5942(3) 0.9427(3)
H15_2 H 1.0785 0.5769 0.9838
C23_2 C 0.9809(4) 0.5669(3) 0.8402(3)
H16_2 H 1.0083 0.5275 0.8008
C24_2 C 0.7954(3) 0.7563(2) 0.9715(3)
C25_2 C 0.8826(4) 0.8384(3) 1.0417(3)
H17_2 H 0.9477 0.8590 1.0326
C26_2 C 0.8739(4) 0.8901(3) 1.1256(3)
H18_2 H 0.9344 0.9467 1.1732
C27_2 C 0.7030(4) 0.7846(3) 1.0760(3)
H19_2 H 0.6403 0.7643 1.0879
C28_2 C 0.7043(4) 0.7293(3) 0.9896(4)
H20_2 H 0.6428 0.6730 0.9430
C29_2 C 0.6317(3) 0.4504(3) 0.6511(3)
H21_2 H 0.6069 0.4973 0.6846
C30_2 C 0.5753(4) 0.3554(3) 0.6112(3)
H22_2 H 0.5077 0.3274 0.6132
C31_2 C 0.6362(3) 0.3106(3) 0.5686(3)
H23_2 H 0.6181 0.2456 0.5344
C32_2 C 0.7314(3) 0.3797(2) 0.5853(3)
C33_2 C 0.8193(3) 0.3684(2) 0.5583(3)
C34_2 C 0.9160(3) 0.4395(2) 0.5843(3)
C35_2 C 1.0169(3) 0.4308(3) 0.5739(3)
H24_2 H 1.0286 0.3748 0.5412
C36_2 C 1.0948(3) 0.5182(3) 0.6200(3)
H25_2 H 1.1710 0.5343 0.6262
C37_2 C 1.0401(3) 0.5790(3) 0.6560(3)
H26_2 H 1.0740 0.6443 0.6898
C38_2 C 0.8090(3) 0.2730(2) 0.4955(3)
C39_2 C 0.8140(4) 0.2048(3) 0.5279(3)
H27_2 H 0.8255 0.2175 0.5935
C40_2 C 0.8020(4) 0.1180(3) 0.4635(3)
H28_2 H 0.8061 0.0717 0.4869
C41_2 C 0.7779(4) 0.1610(3) 0.3389(3)
H29_2 H 0.7648 0.1463 0.2725
C42_2 C 0.7888(4) 0.2493(3) 0.3981(3)
H30_2 H 0.7825 0.2939 0.3725
N1_2 N 0.7411(2) 0.56549(19) -0.4724(2)
N2_2 N 0.9176(3) 0.7125(2) -0.2936(2)
N3_2 N 0.7987(3) 0.8849(2) -0.6135(3)
N4_2 N 0.7098(3) 0.6482(2) 0.6965(2)
N5_2 N 0.8986(3) 0.6039(2) 0.8049(2)
N6_2 N 0.7855(3) 0.8652(2) 1.1436(2)
N6_3 N 0.7855(3) 0.8652(2) -0.8564(2)
N7_2 N 0.7246(2) 0.46630(19) 0.6360(2)
N7_3 N 0.7246(2) 0.46630(19) -0.3640(2)
N8_2 N 0.9331(2) 0.53314(19) 0.6365(2)
N8_3 N 0.9331(2) 0.53314(19) -0.3635(2)
N9_2 N 0.7848(3) 0.0951(2) 0.3699(3)
N9_3 N 0.7848(3) 1.0951(2) -0.6301(3)
P1 P 0.5000 1.0000 0.5000
F1 F 0.4602(4) 1.0830(3) 0.4848(3)
F2 F 0.5028(4) 0.9660(3) 0.3976(3)
F3 F 0.3697(3) 0.9428(3) 0.4508(4)
F1A F 0.5398(4) 0.9170(3) 0.5152(3)
F2A F 0.4972(4) 1.0340(3) 0.6024(3)
F3A F 0.6303(3) 1.0572(3) 0.5492(4)
C43 C 0.4223(12) 0.5925(9) 0.1394(7)
H31 H 0.4681 0.5595 0.1170
C44 C 0.4649(8) 0.6884(9) 0.1908(8)
H32 H 0.5397 0.7209 0.2034
C45 C 0.3979(10) 0.7366(6) 0.2236(7)
H33 H 0.4270 0.8021 0.2587
C46 C 0.2884(10) 0.6891(9) 0.2051(8)
H34 H 0.2426 0.7221 0.2275
C47 C 0.2458(8) 0.5932(10) 0.1537(8)
H35 H 0.1709 0.5607 0.1411
C48 C 0.3128(13) 0.5449(6) 0.1209(6)
H36 H 0.2837 0.4794 0.0858
C49 C 0.1654(11) 1.0408(11) 0.1598(15)
H37 H 0.1447 1.0955 0.1679
C50 C 0.1775(11) 0.9989(10) 0.0882(13)
H38 H 0.1721 1.0249 0.0428
C51 C 0.1987(10) 0.9159(11) 0.0682(12)
H39 H 0.2063 0.8868 0.0096
C52 C 0.2087(8) 0.8754(7) 0.1271(8)
H40 H 0.2203 0.8168 0.1106
C53 C 0.2020(9) 0.9197(8) 0.2124(8)
H41 H 0.2100 0.8918 0.2566
C54 C 0.1841(9) 1.0036(8) 0.2361(8)
H42 H 0.1835 1.0366 0.2973
N11 N -0.0013(14) 0.2622(10) 0.7695(10)
C57 C 0.0730(12) 0.3150(13) 0.7907(18)
C58 C 0.1722(17) 0.3882(14) 0.8139(19)
N13 N 0.3559(12) 0.7527(11) 0.8338(10)
C61 C 0.3447(8) 0.7321(6) 0.8805(7)
C62 C 0.3258(14) 0.6939(10) 0.9466(10)
P2? P 0.5198(3) 0.4601(2) 0.9092(2)
F4? F 0.4527(8) 0.3649(5) 0.8155(5)
F5? F 0.5850(10) 0.5563(7) 1.0063(7)
F6? F 0.4589(11) 0.4236(8) 0.9626(8)
F7? F 0.4159(7) 0.4978(5) 0.8677(6)
F8? F 0.6239(8) 0.4245(6) 0.9508(6)
F9? F 0.5789(8) 0.4973(6) 0.8553(6)
N10? N 0.5439(7) 0.9157(6) 0.1827(7)
C55? C 0.5179(7) 0.9748(6) 0.2134(7)
C56? C 0.4865(8) 1.0569(6) 0.2556(8)
H43? H 0.5205 1.0795 0.3280
H44? H 0.4016 1.0405 0.2271
H45? H 0.5164 1.1053 0.2397
N12? N 0.0718(13) 0.9613(8) 0.3525(9)
C59? C 0.1091(13) 0.9231(11) 0.3153(13)
C60? C 0.1607(17) 0.8672(15) 0.2576(13)
H46? H 0.1318 0.8023 0.2435
H47? H 0.2457 0.8902 0.2966
H48? H 0.1386 0.8724 0.1948
N14? N 0.5433(9) 0.8518(8) 0.1962(8)
C63? C 0.4710(11) 0.8133(9) 0.2011(10)
C64? C 0.3743(16) 0.7611(14) 0.2063(15)
H49? H 0.3708 0.7978 0.2672
H50? H 0.3861 0.7032 0.2070
H51? H 0.3012 0.7473 0.1481
C65? C 0.3498(17) 0.9916(13) 0.2002(19)
H52? H 0.4211 0.9798 0.2268
C66? C 0.3221(17) 1.0575(11) 0.2624(11)
H53? H 0.3746 1.0907 0.3315
C67? C 0.2177(19) 1.0748(9) 0.2236(17)
H54? H 0.1988 1.1199 0.2661
C68? C 0.1409(14) 1.0263(17) 0.1225(19)
H55? H 0.0696 1.0382 0.0960
C69? C 0.169(2) 0.9605(17) 0.0603(11)
H56? H 0.1161 0.9273 -0.0088
C70? C 0.273(3) 0.9431(13) 0.0991(17)
H57? H 0.2919 0.8981 0.0566
N15? N 0.631(2) 0.971(3) 0.019(3)
C71? C 0.5497(19) 0.977(2) -0.0018(18)
C72? C 0.442(3) 0.996(3) -0.054(3)
N16? N 0.208(3) 0.421(4) 0.801(3)
C73? C 0.129(3) 0.388(3) 0.796(2)
C74? C 0.027(3) 0.3225(18) 0.781(3)
loop_
_geom_bond_atom_site_label_1
_geom_bond_atom_site_label_2
_geom_bond_site_symmetry_1
_geom_bond_site_symmetry_2
Ag1 N3 1_555 1_555
Fe1 N1 1_555 1_555
C1 H1 1_555 1_555
C2 C1 1_555 1_555
H2 C2 1_555 1_555
C3 C2 1_555 1_555
H3 C3 1_555 1_555
C4 C3 1_555 1_555
C5 C4 1_555 1_555
C6 C5 1_555 1_555
C7 C6 1_555 1_555
H4 C7 1_555 1_555
C8 C7 1_555 1_555
H5 C8 1_555 1_555
C9 C8 1_555 1_555
H6 C9 1_555 1_555
C10 C5 1_555 1_555
C11 C10 1_555 1_555
H7 C11 1_555 1_555
C12 C11 1_555 1_555
H8 C12 1_555 1_555
C13 H9 1_555 1_555
C14 C10 1_555 1_555
H10 C14 1_555 1_555
C15 H11 1_555 1_555
C16 C15 1_555 1_555
H12 C16 1_555 1_555
C17 C16 1_555 1_555
H13 C17 1_555 1_555
C18 C17 1_555 1_555
C19 C18 1_555 1_555
C20 C19 1_555 1_555
C21 C20 1_555 1_555
H14 C21 1_555 1_555
C22 C21 1_555 1_555
H15 C22 1_555 1_555
C23 C22 1_555 1_555
H16 C23 1_555 1_555
C24 C19 1_555 1_555
C25 C24 1_555 1_555
H17 C25 1_555 1_555
C26 C25 1_555 1_555
H18 C26 1_555 1_555
C27 H19 1_555 1_555
C28 C24 1_555 1_555
H20 C28 1_555 1_555
C29 H21 1_555 1_555
C30 C29 1_555 1_555
H22 C30 1_555 1_555
C31 C30 1_555 1_555
H23 C31 1_555 1_555
C32 C31 1_555 1_555
C33 C32 1_555 1_555
C34 C33 1_555 1_555
C35 C34 1_555 1_555
H24 C35 1_555 1_555
C36 C35 1_555 1_555
H25 C36 1_555 1_555
C37 C36 1_555 1_555
H26 C37 1_555 1_555
C38 C33 1_555 1_555
C39 C38 1_555 1_555
H27 C39 1_555 1_555
C40 C39 1_555 1_555
H28 C40 1_555 1_555
C41 H29 1_555 1_555
C42 C38 1_555 1_555
H30 C42 1_555 1_555
N1 C1 1_555 1_555
N2 Fe1 1_555 1_555
N3 C12 1_555 1_555
N4 C15 1_555 1_555
N5 C20 1_555 1_555
N6 Ag1 1_555 1_555
N7 C29 1_555 1_555
N8 C34 1_555 1_555
N9 Ag1 1_555 1_555
P1 F1 1_555 1_555
F2 P1 1_555 1_555
F3 P1 1_555 1_555
C43 H31 1_555 1_555
C44 C43 1_555 1_555
H32 C44 1_555 1_555
C45 C44 1_555 1_555
H33 C45 1_555 1_555
C46 C45 1_555 1_555
H34 C46 1_555 1_555
C47 C46 1_555 1_555
H35 C47 1_555 1_555
C48 C43 1_555 1_555
H36 C48 1_555 1_555
C49 H37 1_555 1_555
C50 C49 1_555 1_555
H38 C50 1_555 1_555
C51 C50 1_555 1_555
H39 C51 1_555 1_555
C52 C51 1_555 1_555
H40 C52 1_555 1_555
C53 C52 1_555 1_555
H41 C53 1_555 1_555
C54 C49 1_555 1_555
H42 C54 1_555 1_555
N11 C57 1_555 1_555
C57 C58 1_555 1_555
N13 C61 1_555 1_555
C61 C62 1_555 1_555
Ag1_2 N3_2 1_555 1_555
Ag1_3 N6_2 1_555 1_555
Ag1_4 N9_2 1_555 1_555
Fe1_2 N4 1_555 1_555
Fe1_3 N7 1_555 1_555
C1_2 H1_2 1_555 1_555
C2_2 C1_2 1_555 1_555
H2_2 C2_2 1_555 1_555
C3_2 C2_2 1_555 1_555
H3_2 C3_2 1_555 1_555
C4_2 C3_2 1_555 1_555
C5_2 C4_2 1_555 1_555
C6_2 C5_2 1_555 1_555
C7_2 C6_2 1_555 1_555
H4_2 C7_2 1_555 1_555
C8_2 C7_2 1_555 1_555
H5_2 C8_2 1_555 1_555
C9_2 C8_2 1_555 1_555
H6_2 C9_2 1_555 1_555
C10_2 C5_2 1_555 1_555
C11_2 C10_2 1_555 1_555
H7_2 C11_2 1_555 1_555
C12_2 C11_2 1_555 1_555
H8_2 C12_2 1_555 1_555
C13_2 H9_2 1_555 1_555
C14_2 C10_2 1_555 1_555
H10_2 C14_2 1_555 1_555
C15_2 H11_2 1_555 1_555
C16_2 C15_2 1_555 1_555
H12_2 C16_2 1_555 1_555
C17_2 C16_2 1_555 1_555
H13_2 C17_2 1_555 1_555
C18_2 C17_2 1_555 1_555
C19_2 C18_2 1_555 1_555
C20_2 C19_2 1_555 1_555
C21_2 C20_2 1_555 1_555
H14_2 C21_2 1_555 1_555
C22_2 C21_2 1_555 1_555
H15_2 C22_2 1_555 1_555
C23_2 C22_2 1_555 1_555
H16_2 C23_2 1_555 1_555
C24_2 C19_2 1_555 1_555
C25_2 C24_2 1_555 1_555
H17_2 C25_2 1_555 1_555
C26_2 C25_2 1_555 1_555
H18_2 C26_2 1_555 1_555
C27_2 H19_2 1_555 1_555
C28_2 C24_2 1_555 1_555
H20_2 C28_2 1_555 1_555
C29_2 H21_2 1_555 1_555
C30_2 C29_2 1_555 1_555
H22_2 C30_2 1_555 1_555
C31_2 C30_2 1_555 1_555
H23_2 C31_2 1_555 1_555
C32_2 C31_2 1_555 1_555
C33_2 C32_2 1_555 1_555
C34_2 C33_2 1_555 1_555
C35_2 C34_2 1_555 1_555
H24_2 C35_2 1_555 1_555
C36_2 C35_2 1_555 1_555
H25_2 C36_2 1_555 1_555
C37_2 C36_2 1_555 1_555
H26_2 C37_2 1_555 1_555
C38_2 C33_2 1_555 1_555
C39_2 C38_2 1_555 1_555
H27_2 C39_2 1_555 1_555
C40_2 C39_2 1_555 1_555
H28_2 C40_2 1_555 1_555
C41_2 H29_2 1_555 1_555
C42_2 C38_2 1_555 1_555
H30_2 C42_2 1_555 1_555
N1_2 Fe1_2 1_555 1_555
N2_2 Fe1_2 1_555 1_555
N3_2 C12_2 1_555 1_555
N4_2 Fe1 1_555 1_555
N5_2 Fe1 1_555 1_555
N6_2 C26_2 1_555 1_555
N6_3 Ag1_2 1_555 1_555
N7_2 Fe1 1_555 1_555
N7_3 Fe1_2 1_555 1_555
N8_2 Fe1 1_555 1_555
N8_3 Fe1_2 1_555 1_555
N9_2 C40_2 1_555 1_555
N9_3 Ag1_2 1_555 1_555
F1A P1 1_555 1_555
F2A P1 1_555 1_555
F3A P1 1_555 1_555
C4 N1 1_555 1_555
C6 N2 1_555 1_555
C9 N2 1_555 1_555
C13 C14 1_555 1_555
C13 N3 1_555 1_555
C18 N4 1_555 1_555
C23 N5 1_555 1_555
C26 N6 1_555 1_555
C27 C28 1_555 1_555
C27 N6 1_555 1_555
C32 N7 1_555 1_555
C37 N8 1_555 1_555
C40 N9 1_555 1_555
C41 C42 1_555 1_555
C41 N9 1_555 1_555
N5 Fe1_2 1_555 1_555
N8 Fe1_3 1_555 1_555
C47 C48 1_555 1_555
C53 C54 1_555 1_555
C1_2 N1_2 1_555 1_555
C4_2 N1_2 1_555 1_555
C6_2 N2_2 1_555 1_555
C9_2 N2_2 1_555 1_555
C13_2 C14_2 1_555 1_555
C13_2 N3_2 1_555 1_555
C15_2 N4_2 1_555 1_555
C18_2 N4_2 1_555 1_555
C20_2 N5_2 1_555 1_555
C23_2 N5_2 1_555 1_555
C27_2 C28_2 1_555 1_555
C27_2 N6_2 1_555 1_555
C29_2 N7_2 1_555 1_555
C32_2 N7_2 1_555 1_555
C34_2 N8_2 1_555 1_555
C37_2 N8_2 1_555 1_555
C41_2 C42_2 1_555 1_555
C41_2 N9_2 1_555 1_555

#END
