
#######################################################################
#
#                 Cambridge Crystallographic Data Centre
#                                CCDC 
#
#######################################################################
#
# If this CIF has been generated from an entry in the Cambridge 
# Structural Database, then it will include bibliographic, chemical, 
# crystal, experimental, refinement or atomic coordinate data resulting 
# from the CCDC's data processing and validation procedures.
#
#######################################################################

data_CEXKIA
_symmetry_cell_setting           triclinic
_symmetry_space_group_name_H-M   'P -1'
_symmetry_Int_Tables_number      2
_space_group_name_Hall           '-P 1'
loop_
_symmetry_equiv_pos_site_id
_symmetry_equiv_pos_as_xyz
1 x,y,z
2 -x,-y,-z
_cell_length_a                   9.4026(13)
_cell_length_b                   19.385(3)
_cell_length_c                   22.645(3)
_cell_angle_alpha                93.820(2)
_cell_angle_beta                 95.353(2)
_cell_angle_gamma                92.800(2)
_cell_volume                     4094.06
loop_
_atom_site_label
_atom_site_type_symbol
_atom_site_fract_x
_atom_site_fract_y
_atom_site_fract_z
P1 P 0.38845(19) 0.20554(11) 0.98802(9)
F1 F 0.3077(4) 0.1358(2) 1.00428(19)
F2 F 0.4121(5) 0.2306(2) 1.0570(2)
F3 F 0.5362(4) 0.1682(2) 0.9927(2)
F4 F 0.4680(5) 0.2748(2) 0.9730(3)
F5 F 0.3660(4) 0.1801(2) 0.91896(19)
F6 F 0.2398(5) 0.2414(3) 0.9828(2)
C67 C 0.7227(13) 0.3789(7) 0.2636(6)
H43 H 0.7878 0.4122 0.2856
C68 C 0.6179(11) 0.3997(6) 0.2264(7)
H44 H 0.6067 0.4478 0.2237
C69 C 0.5242(11) 0.3523(6) 0.1914(6)
H45 H 0.4537 0.3674 0.1630
C70 C 0.5367(10) 0.2829(5) 0.1990(4)
H46 H 0.4705 0.2496 0.1774
C71 C 0.6433(12) 0.2616(6) 0.2372(4)
H47 H 0.6532 0.2135 0.2412
C72 C 0.7376(13) 0.3097(6) 0.2705(5)
H48 H 0.8114 0.2949 0.2976
C73 C 0.9795(18) 0.4370(9) 0.4320(8)
H49 H 0.9869 0.4801 0.4146
C74 C 1.0831(19) 0.3873(10) 0.4294(9)
H50 H 1.1762 0.3991 0.4188
C75 C 1.047(2) 0.3251(8) 0.4418(6)
H51 H 1.1023 0.2890 0.4272
C76 C 0.9434(14) 0.3075(7) 0.4721(5)
H52 H 0.9358 0.2625 0.4862
C77 C 0.8503(13) 0.3521(8) 0.4830(6)
H53 H 0.7721 0.3407 0.5049
C78 C 0.8672(19) 0.4167(10) 0.4620(10)
H54 H 0.7967 0.4491 0.4688
C79 C 0.7585(11) 0.6477(7) 0.2393(5)
H55 H 0.7633 0.6756 0.2757
C80 C 0.8278(12) 0.5860(7) 0.2367(5)
H56 H 0.8748 0.5706 0.2719
C81 C 0.8293(13) 0.5485(7) 0.1857(6)
H57 H 0.8847 0.5088 0.1842
C82 C 0.751(2) 0.5663(8) 0.1342(8)
H58 H 0.7516 0.5394 0.0976
C83 C 0.673(2) 0.6235(9) 0.1380(6)
H59 H 0.6093 0.6328 0.1046
C84 C 0.6817(13) 0.6685(7) 0.1883(6)
H60 H 0.6379 0.7116 0.1882
C85 C 0.7419(15) 0.2893(7) 0.8216(6)
H61 H 0.6773 0.2950 0.7877
C86 C 0.6925(12) 0.2683(6) 0.8697(4)
H62 H 0.5931 0.2578 0.8710
C87 C 0.7821(11) 0.2620(7) 0.9152(6)
H63 H 0.7423 0.2452 0.9489
C88 C 0.9214(13) 0.2757(7) 0.9216(6)
H64 H 0.9777 0.2730 0.9583
C89 C 0.9802(17) 0.2946(8) 0.8700(9)
H65 H 1.0806 0.3014 0.8689
C90 C 0.883(2) 0.3031(6) 0.8193(6)
H66 H 0.9176 0.3184 0.7839
Ag1 Ag -0.22957(5) 1.08973(3) 1.02610(2)
Co1 Co 0.51925(8) 0.78863(4) 0.43076(4)
C1 C 0.5363(8) 0.6874(4) 0.5219(3)
H1 H 0.5759 0.6541 0.4964
C2 C 0.5096(8) 0.6780(4) 0.5812(3)
H2 H 0.5290 0.6384 0.6026
C3 C 0.4510(8) 0.7365(4) 0.6020(3)
H3 H 0.4211 0.7452 0.6406
C4 C 0.4428(6) 0.7814(3) 0.5560(3)
C5 C 0.3908(6) 0.8483(3) 0.5569(3)
C6 C 0.3858(6) 0.8917(3) 0.5106(3)
C7 C 0.3226(6) 0.9562(3) 0.5078(3)
H4 H 0.2795 0.9801 0.5389
C8 C 0.3345(6) 0.9779(3) 0.4525(3)
H5 H 0.3009 1.0192 0.4371
C9 C 0.4079(6) 0.9259(3) 0.4226(3)
H6 H 0.4350 0.9286 0.3834
C10 C 0.3367(6) 0.8753(4) 0.6132(3)
C11 C 0.4084(7) 0.9319(3) 0.6463(3)
H7 H 0.4931 0.9520 0.6333
C12 C 0.3578(6) 0.9595(3) 0.6981(3)
H8 H 0.4063 0.9986 0.7199
C13 C 0.2353(7) 0.9290(4) 0.7174(3)
C14 C 0.1633(7) 0.8730(4) 0.6847(3)
H9 H 0.0783 0.8530 0.6976
C15 C 0.2149(6) 0.8460(4) 0.6331(3)
H10 H 0.1660 0.8069 0.6113
C16 C 0.1785(7) 0.9573(4) 0.7701(3)
C17 C 0.1231(7) 0.9805(4) 0.8117(3)
C18 C 0.0492(6) 1.0047(4) 0.8615(3)
C19 C 0.0729(6) 1.0714(4) 0.8865(3)
H11 H 0.1433 1.1020 0.8731
C20 C -0.0082(6) 1.0930(4) 0.9317(3)
H12 H 0.0071 1.1393 0.9485
C21 C -0.1259(7) 0.9872(3) 0.9291(3)
H13 H -0.1946 0.9571 0.9441
C22 C -0.0509(7) 0.9616(4) 0.8839(3)
H14 H -0.0677 0.9149 0.8683
C23 C 0.2086(7) 1.7779(4) 1.4107(3)
H15 H 0.2004 1.8205 1.4331
C24 C 0.0918(7) 1.7375(4) 1.3792(3)
H16 H -0.0059 1.7485 1.3766
C25 C 0.1454(7) 1.6804(4) 1.3536(3)
H17 H 0.0929 1.6442 1.3294
C26 C 0.2994(7) 1.6856(4) 1.3704(3)
C27 C 0.3964(7) 1.6383(4) 1.3560(3)
C28 C 0.5434(7) 1.6463(4) 1.3730(3)
C29 C 0.6488(8) 1.5954(4) 1.3701(4)
H18 H 0.6329 1.5494 1.3527
C30 C 0.7720(9) 1.6237(4) 1.3958(4)
H19 H 0.8609 1.6023 1.3989
C31 C 0.7467(7) 1.6917(4) 1.4180(3)
H20 H 0.8170 1.7233 1.4391
C32 C 0.3424(7) 1.5755(4) 1.3184(4)
C33 C 0.3876(8) 1.5614(4) 1.2648(4)
H21 H 0.4661 1.5879 1.2529
C34 C 0.3193(9) 1.5073(4) 1.2260(4)
H22 H 0.3489 1.4994 1.1873
C35 C 0.2133(9) 1.4669(4) 1.2431(4)
C36 C 0.1734(9) 1.4773(5) 1.3002(5)
H23 H 0.1027 1.4470 1.3136
C37 C 0.2357(10) 1.5311(5) 1.3374(4)
H24 H 0.2067 1.5385 1.3763
C38 C 0.1414(9) 1.4127(5) 1.2027(5)
C39 C 0.0800(9) 1.3671(5) 1.1697(5)
C40 C 0.0132(8) 1.3118(4) 1.1323(4)
C41 C 0.0893(8) 1.2609(4) 1.1067(4)
H25 H 0.1909 1.2642 1.1121
C42 C 0.0213(7) 1.2063(4) 1.0738(3)
H26 H 0.0775 1.1718 1.0575
C43 C -0.1989(8) 1.2485(4) 1.0842(3)
H27 H -0.2995 1.2455 1.0743
C44 C -0.1380(7) 1.3062(4) 1.1205(4)
H28 H -0.1960 1.3401 1.1366
C45 C -1.2421(6) 0.8392(3) 1.5172(3)
H29 H -1.2904 0.8242 1.5495
C46 C -1.1035(6) 0.8707(3) 1.5224(3)
H30 H -1.0432 0.8811 1.5583
C47 C -1.0709(6) 0.8837(3) 1.4667(3)
H31 H -0.9834 0.9035 1.4560
C48 C -1.1933(6) 0.8618(3) 1.4281(3)
C49 C -1.2113(6) 0.8654(3) 1.3658(3)
C50 C -1.3392(6) 0.8467(3) 1.3302(3)
C51 C -1.3702(6) 0.8574(3) 1.2696(3)
H32 H -1.3058 0.8758 1.2441
C52 C -1.5101(6) 0.8364(3) 1.2546(3)
H33 H -1.5612 0.8370 1.2164
C53 C -1.5646(6) 0.8135(3) 1.3062(3)
H34 H -1.6605 0.7967 1.3083
C54 C -1.0902(6) 0.8931(4) 1.3350(3)
C55 C -1.0230(6) 0.9562(3) 1.3496(3)
H35 H -1.0538 0.9841 1.3815
C56 C -0.9107(6) 0.9818(4) 1.3199(3)
H36 H -0.8654 1.0261 1.3317
C57 C -0.8658(6) 0.9415(4) 1.2728(3)
C58 C -0.9318(6) 0.8749(4) 1.2579(3)
H37 H -0.9003 0.8463 1.2266
C59 C -1.0405(7) 0.8516(4) 1.2883(3)
H38 H -1.0838 0.8066 1.2780
C60 C -0.7560(7) 0.9676(4) 1.2389(3)
C61 C -0.6734(7) 0.9856(4) 1.2056(3)
C62 C -0.5764(6) 1.0084(4) 1.1647(3)
C63 C -0.5286(7) 1.0764(4) 1.1646(3)
H39 H -0.5598 1.1094 1.1929
C64 C -0.4382(7) 1.0981(4) 1.1256(3)
H40 H -0.4069 1.1456 1.1272
C65 C -0.4361(6) 0.9879(3) 1.0831(3)
H41 H -0.4032 0.9560 1.0544
C66 C -0.5292(6) 0.9627(4) 1.1219(3)
H42 H -0.5599 0.9151 1.1191
N1 N 0.4976(5) 0.7501(3) 0.5066(2)
N2 N 0.4342(5) 0.8736(3) 0.4551(2)
N3 N -0.1070(5) 1.0518(3) 0.9528(2)
N4 N 0.3306(5) 1.7479(3) 1.4046(2)
N5 N 0.6095(5) 1.7048(3) 1.4048(2)
N6 N -0.1230(6) 1.1982(3) 1.0629(2)
N7 N -1.2966(5) 0.8333(3) 1.4604(2)
N8 N -1.4621(5) 0.8188(3) 1.3519(2)
N9 N -0.3913(5) 1.0527(3) 1.0838(2)
Co1_2 Co 0.51925(8) 1.78863(4) 1.43076(4)
Co1_3 Co -1.48075(8) 0.78863(4) 1.43076(4)
N4_2 N 0.3306(5) 0.7479(3) 0.4046(2)
N5_2 N 0.6095(5) 0.7048(3) 0.4048(2)
N7_2 N 0.7034(5) 0.8333(3) 0.4604(2)
N8_2 N 0.5379(5) 0.8188(3) 0.3519(2)
loop_
_geom_bond_atom_site_label_1
_geom_bond_atom_site_label_2
_geom_bond_site_symmetry_1
_geom_bond_site_symmetry_2
Ag1 N3 1_555 1_555
Co1 N1 1_555 1_555
C1 H1 1_555 1_555
C2 C1 1_555 1_555
H2 C2 1_555 1_555
C3 C2 1_555 1_555
H3 C3 1_555 1_555
C4 C3 1_555 1_555
C5 C4 1_555 1_555
C6 C5 1_555 1_555
C7 C6 1_555 1_555
H4 C7 1_555 1_555
C8 C7 1_555 1_555
H5 C8 1_555 1_555
C9 C8 1_555 1_555
H6 C9 1_555 1_555
C10 C5 1_555 1_555
C11 C10 1_555 1_555
H7 C11 1_555 1_555
C12 C11 1_555 1_555
H8 C12 1_555 1_555
C13 C12 1_555 1_555
C14 C13 1_555 1_555
H9 C14 1_555 1_555
C15 C10 1_555 1_555
H10 C15 1_555 1_555
C16 C13 1_555 1_555
C17 C16 1_555 1_555
C18 C17 1_555 1_555
C19 C18 1_555 1_555
H11 C19 1_555 1_555
C20 C19 1_555 1_555
H12 C20 1_555 1_555
C21 H13 1_555 1_555
C22 C18 1_555 1_555
H14 C22 1_555 1_555
C23 H15 1_555 1_555
C24 C23 1_555 1_555
H16 C24 1_555 1_555
C25 C24 1_555 1_555
H17 C25 1_555 1_555
C26 C25 1_555 1_555
C27 C26 1_555 1_555
C28 C27 1_555 1_555
C29 C28 1_555 1_555
H18 C29 1_555 1_555
C30 C29 1_555 1_555
H19 C30 1_555 1_555
C31 C30 1_555 1_555
H20 C31 1_555 1_555
C32 C27 1_555 1_555
C33 C32 1_555 1_555
H21 C33 1_555 1_555
C34 C33 1_555 1_555
H22 C34 1_555 1_555
C35 C34 1_555 1_555
C36 C35 1_555 1_555
H23 C36 1_555 1_555
C37 C32 1_555 1_555
H24 C37 1_555 1_555
C38 C35 1_555 1_555
C39 C38 1_555 1_555
C40 C39 1_555 1_555
C41 C40 1_555 1_555
H25 C41 1_555 1_555
C42 C41 1_555 1_555
H26 C42 1_555 1_555
C43 H27 1_555 1_555
C44 C40 1_555 1_555
H28 C44 1_555 1_555
C45 H29 1_555 1_555
C46 C45 1_555 1_555
H30 C46 1_555 1_555
C47 C46 1_555 1_555
H31 C47 1_555 1_555
C48 C47 1_555 1_555
C49 C48 1_555 1_555
C50 C49 1_555 1_555
C51 C50 1_555 1_555
H32 C51 1_555 1_555
C52 C51 1_555 1_555
H33 C52 1_555 1_555
C53 C52 1_555 1_555
H34 C53 1_555 1_555
C54 C49 1_555 1_555
C55 C54 1_555 1_555
H35 C55 1_555 1_555
C56 C55 1_555 1_555
H36 C56 1_555 1_555
C57 C56 1_555 1_555
C58 C57 1_555 1_555
H37 C58 1_555 1_555
C59 C54 1_555 1_555
H38 C59 1_555 1_555
C60 C57 1_555 1_555
C61 C60 1_555 1_555
C62 C61 1_555 1_555
C63 C62 1_555 1_555
H39 C63 1_555 1_555
C64 C63 1_555 1_555
H40 C64 1_555 1_555
C65 H41 1_555 1_555
C66 C62 1_555 1_555
H42 C66 1_555 1_555
N1 C1 1_555 1_555
N2 Co1 1_555 1_555
N3 C20 1_555 1_555
N4 C23 1_555 1_555
N5 C28 1_555 1_555
N6 Ag1 1_555 1_555
N7 C45 1_555 1_555
N8 C50 1_555 1_555
N9 Ag1 1_555 1_555
P1 F1 1_555 1_555
F2 P1 1_555 1_555
F3 P1 1_555 1_555
F4 P1 1_555 1_555
F5 P1 1_555 1_555
F6 P1 1_555 1_555
C67 H43 1_555 1_555
C68 C67 1_555 1_555
H44 C68 1_555 1_555
C69 C68 1_555 1_555
H45 C69 1_555 1_555
C70 C69 1_555 1_555
H46 C70 1_555 1_555
C71 C70 1_555 1_555
H47 C71 1_555 1_555
C72 C67 1_555 1_555
H48 C72 1_555 1_555
C73 H49 1_555 1_555
C74 C73 1_555 1_555
H50 C74 1_555 1_555
C75 C74 1_555 1_555
H51 C75 1_555 1_555
C76 C75 1_555 1_555
H52 C76 1_555 1_555
C77 C76 1_555 1_555
H53 C77 1_555 1_555
C78 C73 1_555 1_555
H54 C78 1_555 1_555
C79 H55 1_555 1_555
C80 C79 1_555 1_555
H56 C80 1_555 1_555
C81 C80 1_555 1_555
H57 C81 1_555 1_555
C82 C81 1_555 1_555
H58 C82 1_555 1_555
C83 C82 1_555 1_555
H59 C83 1_555 1_555
C84 C79 1_555 1_555
H60 C84 1_555 1_555
C85 H61 1_555 1_555
C86 C85 1_555 1_555
H62 C86 1_555 1_555
C87 C86 1_555 1_555
H63 C87 1_555 1_555
C88 C87 1_555 1_555
H64 C88 1_555 1_555
C89 C88 1_555 1_555
H65 C89 1_555 1_555
C90 C85 1_555 1_555
H66 C90 1_555 1_555
Co1_2 N4 1_555 1_555
Co1_3 N7 1_555 1_555
N4_2 Co1 1_555 1_555
N5_2 Co1 1_555 1_555
N7_2 Co1 1_555 1_555
N8_2 Co1 1_555 1_555
C4 N1 1_555 1_555
C6 N2 1_555 1_555
C9 N2 1_555 1_555
C14 C15 1_555 1_555
C21 C22 1_555 1_555
C21 N3 1_555 1_555
C26 N4 1_555 1_555
C31 N5 1_555 1_555
C36 C37 1_555 1_555
C42 N6 1_555 1_555
C43 C44 1_555 1_555
C43 N6 1_555 1_555
C48 N7 1_555 1_555
C53 N8 1_555 1_555
C58 C59 1_555 1_555
C64 N9 1_555 1_555
C65 C66 1_555 1_555
C65 N9 1_555 1_555
N5 Co1_2 1_555 1_555
N8 Co1_3 1_555 1_555
C71 C72 1_555 1_555
C77 C78 1_555 1_555
C83 C84 1_555 1_555
C89 C90 1_555 1_555

#END
