
#######################################################################
#
#                 Cambridge Crystallographic Data Centre
#                                CCDC 
#
#######################################################################
#
# If this CIF has been generated from an entry in the Cambridge 
# Structural Database, then it will include bibliographic, chemical, 
# crystal, experimental, refinement or atomic coordinate data resulting 
# from the CCDC's data processing and validation procedures.
#
#######################################################################

data_CEXKOG
_symmetry_cell_setting           triclinic
_symmetry_space_group_name_H-M   'P -1'
_symmetry_Int_Tables_number      2
_space_group_name_Hall           '-P 1'
loop_
_symmetry_equiv_pos_site_id
_symmetry_equiv_pos_as_xyz
1 x,y,z
2 -x,-y,-z
_cell_length_a                   9.3693(9)
_cell_length_b                   19.3886(19)
_cell_length_c                   22.869(2)
_cell_angle_alpha                94.659(2)
_cell_angle_beta                 94.855(2)
_cell_angle_gamma                91.655(2)
_cell_volume                     4123.07
loop_
_atom_site_label
_atom_site_type_symbol
_atom_site_fract_x
_atom_site_fract_y
_atom_site_fract_z
Ag1 Ag 1.76241(2) 1.093878(12) 0.027551(10)
Co1 Co 0.52828(4) 0.786137(19) 0.432786(16)
C1 C 0.4456(3) 0.80752(16) 0.30884(13)
H1 H 0.3509 0.7897 0.3111
C2 C 0.4971(3) 0.83037(17) 0.25736(14)
H2 H 0.4448 0.8314 0.2200
C3 C 0.6376(3) 0.85074(16) 0.27182(13)
H3 H 0.7017 0.8684 0.2462
C4 C 0.6700(3) 0.84064(15) 0.33246(13)
C5 C 0.7961(3) 0.86064(14) 0.36685(13)
C6 C 0.8142(3) 0.85902(14) 0.42799(13)
C7 C 0.9347(3) 0.88355(15) 0.46751(14)
H4 H 1.0220 0.9033 0.4570
C8 C 0.9010(3) 0.87322(15) 0.52297(13)
H5 H 0.9595 0.8851 0.5586
C9 C 0.7626(3) 0.84162(15) 0.51749(13)
H6 H 0.7129 0.8287 0.5497
C10 C 0.9181(3) 0.88706(16) 0.33600(13)
C11 C 0.9685(3) 0.84591(17) 0.28946(14)
H7 H 0.9263 0.8011 0.2786
C12 C 1.0784(3) 0.86958(18) 0.25926(14)
H8 H 1.1124 0.8407 0.2282
C13 C 1.1401(3) 0.93538(18) 0.27373(14)
C14 C 1.0924(3) 0.97694(17) 0.32053(14)
H9 H 1.1348 1.0218 0.3313
C15 C 0.9825(3) 0.95197(16) 0.35111(14)
H10 H 0.9508 0.9801 0.3831
C16 C 1.2471(3) 0.96133(18) 0.23888(15)
C17 C 1.3302(3) 0.98130(18) 0.20641(15)
C18 C 1.4270(3) 1.00555(18) 0.16681(14)
C19 C 1.4716(3) 0.96175(17) 0.12122(15)
H11 H 1.4385 0.9147 0.1158
C20 C 1.5646(3) 0.98767(16) 0.08399(14)
H12 H 1.5941 0.9571 0.0530
C21 C 1.5719(3) 1.09493(16) 0.13313(14)
H13 H 1.6072 1.1417 0.1375
C22 C 1.4791(3) 1.07389(17) 0.17234(14)
H14 H 1.4511 1.1056 0.2028
C23 C 2.7585(3) 1.68817(16) 0.42253(13)
H15 H 2.8271 1.7205 0.4429
C24 C 2.7883(3) 1.61990(17) 0.40317(16)
H16 H 2.8775 1.5981 0.4084
C25 C 2.6635(3) 1.59112(17) 0.37529(15)
H17 H 2.6496 1.5453 0.3572
C26 C 2.5585(3) 1.64209(15) 0.37836(13)
C27 C 2.4121(3) 1.63455(15) 0.35948(13)
C28 C 2.3101(3) 1.68254(15) 0.37277(13)
C29 C 2.1603(3) 1.67771(16) 0.35558(14)
H18 H 2.1106 1.6414 0.3309
C30 C 2.1013(3) 1.73522(16) 0.38130(14)
H19 H 2.0028 1.7460 0.3786
C31 C 2.2149(3) 1.77507(16) 0.41245(13)
H20 H 2.2042 1.8182 0.4342
C32 C 2.3594(3) 1.57140(16) 0.32117(14)
C33 C 2.4054(4) 1.55978(17) 0.26551(15)
H21 H 2.4812 1.5880 0.2542
C34 C 2.3425(4) 1.50750(18) 0.22590(16)
H22 H 2.3744 1.5005 0.1876
C35 C 2.2329(4) 1.46527(17) 0.24220(16)
C36 C 2.1905(4) 1.47517(18) 0.29848(16)
H23 H 2.1170 1.4458 0.3102
C37 C 2.2532(4) 1.52710(17) 0.33806(16)
H24 H 2.2240 1.5327 0.3769
C38 C 2.1629(4) 1.41226(17) 0.20134(16)
C39 C 2.1005(4) 1.36762(19) 0.16925(16)
C40 C 2.0270(4) 1.31177(17) 0.13233(15)
C41 C 2.1021(3) 1.25898(17) 0.10585(15)
H25 H 2.2039 1.2601 0.1100
C42 C 2.0266(3) 1.20495(17) 0.07349(15)
H26 H 2.0794 1.1690 0.0558
C43 C 1.8125(4) 1.25223(17) 0.08915(15)
H27 H 1.7110 1.2508 0.0825
C44 C 1.8776(4) 1.30842(18) 0.12280(16)
H28 H 1.8221 1.3441 0.1392
C45 C 2.4103(3) 0.92367(15) -0.57825(13)
H29 H 2.4348 0.9243 -0.6177
C46 C 2.3370(3) 0.97654(15) -0.54880(13)
H30 H 2.3035 1.0177 -0.5643
C47 C 2.3236(3) 0.95692(15) -0.49343(13)
H31 H 2.2791 0.9820 -0.4629
C48 C 2.3887(3) 0.89195(15) -0.48998(12)
C49 C 2.3945(3) 0.85060(15) -0.44292(12)
C50 C 2.4484(3) 0.78409(15) -0.44296(13)
C51 C 2.4565(3) 0.74068(16) -0.39607(14)
H32 H 2.4255 0.7511 -0.3579
C52 C 2.5173(4) 0.68089(17) -0.41600(15)
H33 H 2.5364 0.6418 -0.3945
C53 C 2.5459(3) 0.68847(15) -0.47434(14)
H34 H 2.5877 0.6541 -0.4988
C54 C 2.3380(3) 0.87990(15) -0.38751(12)
C55 C 2.4080(3) 0.93615(16) -0.35482(13)
H35 H 2.4927 0.9556 -0.3678
C56 C 2.3566(4) 0.96443(16) -0.30362(13)
H36 H 2.4062 1.0028 -0.2816
C57 C 2.2321(3) 0.93655(17) -0.28450(13)
C58 C 2.1606(3) 0.88068(18) -0.31737(14)
H37 H 2.0746 0.8619 -0.3049
C59 C 2.2135(3) 0.85216(17) -0.36811(13)
H38 H 2.1647 0.8134 -0.3899
C60 C 2.1740(3) 0.96468(18) -0.23206(14)
C61 C 2.1195(3) 0.98597(18) -0.18881(14)
C62 C 2.0451(3) 1.00996(18) -0.13938(13)
C63 C 1.9490(4) 0.96624(17) -0.11631(14)
H39 H 1.9345 0.9196 -0.1324
C64 C 1.8740(3) 0.99069(16) -0.06965(13)
H40 H 1.8090 0.9599 -0.0542
C65 C 1.9826(4) 1.0973(2) -0.06795(16)
H41 H 1.9942 1.1437 -0.0511
C66 C 2.0627(4) 1.0770(2) -0.11378(16)
H42 H 2.1289 1.1087 -0.1275
N1 N 0.5463(2) 0.81395(12) 0.35397(10)
N2 N 0.7107(2) 0.83222(12) 0.46121(10)
N3 N 1.6152(3) 1.05259(13) 0.08884(11)
N4 N 2.6221(3) 1.70190(12) 0.40872(10)
N5 N 2.3400(2) 1.74450(12) 0.40753(10)
N6 N 1.8830(3) 1.19968(13) 0.06532(11)
N7 N 2.4411(2) 0.87276(12) -0.54429(10)
N8 N 2.5070(3) 0.75016(12) -0.49126(11)
N9 N 1.8894(3) 1.05506(14) -0.04590(11)
S1 S 1.41863(8) 1.18674(4) 0.01379(4)
O1 O 1.4397(3) 1.22990(13) 0.06780(12)
O2 O 1.5492(2) 1.16549(12) -0.01115(11)
O3 O 1.3088(2) 1.13351(12) 0.01207(11)
C67 C 1.3468(5) 1.2445(3) -0.0381(2)
F1 F 1.4346(3) 1.29853(15) -0.04136(16)
F2 F 1.2218(3) 1.2691(2) -0.02286(17)
F3 F 1.3248(3) 1.2129(2) -0.09183(14)
Co1_2 Co 2.52828(4) 1.786137(19) 0.432786(16)
Co1_3 Co 2.52828(4) 0.786137(19) -0.567214(16)
N4_2 N 0.6221(3) 0.70190(12) 0.40872(10)
N5_2 N 0.3400(2) 0.74450(12) 0.40753(10)
N7_2 N 0.4411(2) 0.87276(12) 0.45571(10)
N8_2 N 0.5070(3) 0.75016(12) 0.50874(11)
C68 C 0.9878(5) 0.4358(2) 0.4347(2)
H43 H 1.0044 0.4808 0.4226
C69 C 1.0827(4) 0.3847(2) 0.42433(19)
H44 H 1.1677 0.3953 0.4064
C70 C 1.0573(5) 0.3186(2) 0.43938(17)
H45 H 1.1214 0.2831 0.4301
C71 C 0.9380(4) 0.3046(2) 0.46795(17)
H46 H 0.9215 0.2593 0.4797
C72 C 0.8435(4) 0.3543(2) 0.47961(18)
H47 H 0.7611 0.3438 0.4992
C73 C 0.8671(5) 0.4207(3) 0.4630(2)
H48 H 0.8007 0.4556 0.4711
C74 C 0.2629(7) 0.7008(3) 0.1785(3)
H49 H 0.3288 0.6935 0.2112
C75 C 0.3109(6) 0.7306(3) 0.1305(2)
H50 H 0.4078 0.7467 0.1314
C76 C 0.2223(6) 0.7366(3) 0.0838(3)
H51 H 0.2566 0.7563 0.0507
C77 C 0.0896(8) 0.7162(6) 0.0818(5)
H52 H 0.0273 0.7206 0.0474
C78 C 0.0384(8) 0.6881(7) 0.1297(5)
H53 H -0.0591 0.6725 0.1279
C79 C 0.1258(9) 0.6823(4) 0.1795(3)
H54 H 0.0901 0.6656 0.2136
C80 C 0.7756(5) 0.6424(3) 0.2466(2)
H55 H 0.7917 0.6755 0.2797
C81 C 0.8414(5) 0.5807(3) 0.2471(2)
H56 H 0.9022 0.5709 0.2806
C82 C 0.8205(7) 0.5330(3) 0.2000(3)
H57 H 0.8686 0.4905 0.1999
C83 C 0.7282(8) 0.5470(4) 0.1518(3)
H58 H 0.7118 0.5144 0.1185
C84 C 0.6599(6) 0.6103(4) 0.1535(3)
H59 H 0.5935 0.6201 0.1218
C85 C 0.6878(6) 0.6572(3) 0.1997(3)
H60 H 0.6456 0.7012 0.1995
C86 C 0.7466(6) 0.3679(3) 0.2897(3)
H61 H 0.8032 0.3976 0.3183
C87 C 0.7757(6) 0.3009(3) 0.2817(2)
H62 H 0.8546 0.2833 0.3040
C88 C 0.6921(6) 0.2571(3) 0.24127(19)
H63 H 0.7115 0.2093 0.2366
C89 C 0.5810(5) 0.2828(2) 0.2079(2)
H64 H 0.5243 0.2529 0.1795
C90 C 0.5518(5) 0.3507(3) 0.2153(3)
H65 H 0.4748 0.3690 0.1923
C91 C 0.6369(7) 0.3932(3) 0.2571(4)
H66 H 0.6172 0.4410 0.2628
N10 N 0.7707 0.8510 0.6691
C92 C 0.7685 0.8007 0.6906
C93 C 0.7685 0.7363 0.7171
H67 H 0.8509 0.7100 0.7057
H68 H 0.6797 0.7096 0.7037
H69 H 0.7749 0.7454 0.7601
loop_
_geom_bond_atom_site_label_1
_geom_bond_atom_site_label_2
_geom_bond_site_symmetry_1
_geom_bond_site_symmetry_2
Ag1 N3 1_555 1_555
Co1 N1 1_555 1_555
C1 H1 1_555 1_555
C2 C1 1_555 1_555
H2 C2 1_555 1_555
C3 C2 1_555 1_555
H3 C3 1_555 1_555
C4 C3 1_555 1_555
C5 C4 1_555 1_555
C6 C5 1_555 1_555
C7 C6 1_555 1_555
H4 C7 1_555 1_555
C8 C7 1_555 1_555
H5 C8 1_555 1_555
C9 C8 1_555 1_555
H6 C9 1_555 1_555
C10 C5 1_555 1_555
C11 C10 1_555 1_555
H7 C11 1_555 1_555
C12 C11 1_555 1_555
H8 C12 1_555 1_555
C13 C12 1_555 1_555
C14 C13 1_555 1_555
H9 C14 1_555 1_555
C15 C10 1_555 1_555
H10 C15 1_555 1_555
C16 C13 1_555 1_555
C17 C16 1_555 1_555
C18 C17 1_555 1_555
C19 C18 1_555 1_555
H11 C19 1_555 1_555
C20 C19 1_555 1_555
H12 C20 1_555 1_555
C21 H13 1_555 1_555
C22 C18 1_555 1_555
H14 C22 1_555 1_555
C23 H15 1_555 1_555
C24 C23 1_555 1_555
H16 C24 1_555 1_555
C25 C24 1_555 1_555
H17 C25 1_555 1_555
C26 C25 1_555 1_555
C27 C26 1_555 1_555
C28 C27 1_555 1_555
C29 C28 1_555 1_555
H18 C29 1_555 1_555
C30 C29 1_555 1_555
H19 C30 1_555 1_555
C31 C30 1_555 1_555
H20 C31 1_555 1_555
C32 C27 1_555 1_555
C33 C32 1_555 1_555
H21 C33 1_555 1_555
C34 C33 1_555 1_555
H22 C34 1_555 1_555
C35 C34 1_555 1_555
C36 C35 1_555 1_555
H23 C36 1_555 1_555
C37 C32 1_555 1_555
H24 C37 1_555 1_555
C38 C35 1_555 1_555
C39 C38 1_555 1_555
C40 C39 1_555 1_555
C41 C40 1_555 1_555
H25 C41 1_555 1_555
C42 C41 1_555 1_555
H26 C42 1_555 1_555
C43 H27 1_555 1_555
C44 C40 1_555 1_555
H28 C44 1_555 1_555
C45 H29 1_555 1_555
C46 C45 1_555 1_555
H30 C46 1_555 1_555
C47 C46 1_555 1_555
H31 C47 1_555 1_555
C48 C47 1_555 1_555
C49 C48 1_555 1_555
C50 C49 1_555 1_555
C51 C50 1_555 1_555
H32 C51 1_555 1_555
C52 C51 1_555 1_555
H33 C52 1_555 1_555
C53 C52 1_555 1_555
H34 C53 1_555 1_555
C54 C49 1_555 1_555
C55 C54 1_555 1_555
H35 C55 1_555 1_555
C56 C55 1_555 1_555
H36 C56 1_555 1_555
C57 C56 1_555 1_555
C58 C57 1_555 1_555
H37 C58 1_555 1_555
C59 C54 1_555 1_555
H38 C59 1_555 1_555
C60 C57 1_555 1_555
C61 C60 1_555 1_555
C62 C61 1_555 1_555
C63 C62 1_555 1_555
H39 C63 1_555 1_555
C64 C63 1_555 1_555
H40 C64 1_555 1_555
C65 H41 1_555 1_555
C66 C62 1_555 1_555
H42 C66 1_555 1_555
N1 C1 1_555 1_555
N2 Co1 1_555 1_555
N3 C20 1_555 1_555
N4 C23 1_555 1_555
N5 C28 1_555 1_555
N6 Ag1 1_555 1_555
N7 C45 1_555 1_555
N8 C50 1_555 1_555
N9 Ag1 1_555 1_555
S1 O1 1_555 1_555
O2 Ag1 1_555 1_555
O3 S1 1_555 1_555
C67 S1 1_555 1_555
F1 C67 1_555 1_555
F2 C67 1_555 1_555
F3 C67 1_555 1_555
C68 H43 1_555 1_555
C69 C68 1_555 1_555
H44 C69 1_555 1_555
C70 C69 1_555 1_555
H45 C70 1_555 1_555
C71 C70 1_555 1_555
H46 C71 1_555 1_555
C72 C71 1_555 1_555
H47 C72 1_555 1_555
C73 C68 1_555 1_555
H48 C73 1_555 1_555
C74 H49 1_555 1_555
C75 C74 1_555 1_555
H50 C75 1_555 1_555
C76 C75 1_555 1_555
H51 C76 1_555 1_555
C77 C76 1_555 1_555
H52 C77 1_555 1_555
C78 C77 1_555 1_555
H53 C78 1_555 1_555
C79 C74 1_555 1_555
H54 C79 1_555 1_555
C80 H55 1_555 1_555
C81 C80 1_555 1_555
H56 C81 1_555 1_555
C82 C81 1_555 1_555
H57 C82 1_555 1_555
C83 C82 1_555 1_555
H58 C83 1_555 1_555
C84 C83 1_555 1_555
H59 C84 1_555 1_555
C85 C80 1_555 1_555
H60 C85 1_555 1_555
C86 H61 1_555 1_555
C87 C86 1_555 1_555
H62 C87 1_555 1_555
C88 C87 1_555 1_555
H63 C88 1_555 1_555
C89 C88 1_555 1_555
H64 C89 1_555 1_555
C90 C89 1_555 1_555
H65 C90 1_555 1_555
C91 C86 1_555 1_555
H66 C91 1_555 1_555
N10 C92 1_555 1_555
C92 C93 1_555 1_555
C93 H67 1_555 1_555
H68 C93 1_555 1_555
H69 C93 1_555 1_555
Co1_2 N4 1_555 1_555
Co1_3 N7 1_555 1_555
N4_2 Co1 1_555 1_555
N5_2 Co1 1_555 1_555
N7_2 Co1 1_555 1_555
N8_2 Co1 1_555 1_555
C4 N1 1_555 1_555
C6 N2 1_555 1_555
C9 N2 1_555 1_555
C14 C15 1_555 1_555
C21 C22 1_555 1_555
C21 N3 1_555 1_555
C26 N4 1_555 1_555
C31 N5 1_555 1_555
C36 C37 1_555 1_555
C42 N6 1_555 1_555
C43 C44 1_555 1_555
C43 N6 1_555 1_555
C48 N7 1_555 1_555
C53 N8 1_555 1_555
C58 C59 1_555 1_555
C64 N9 1_555 1_555
C65 C66 1_555 1_555
C65 N9 1_555 1_555
N5 Co1_2 1_555 1_555
N8 Co1_3 1_555 1_555
S1 O2 1_555 1_555
C72 C73 1_555 1_555
C78 C79 1_555 1_555
C84 C85 1_555 1_555
C90 C91 1_555 1_555

#END
