
#######################################################################
#
#                 Cambridge Crystallographic Data Centre
#                                CCDC 
#
#######################################################################
#
# If this CIF has been generated from an entry in the Cambridge 
# Structural Database, then it will include bibliographic, chemical, 
# crystal, experimental, refinement or atomic coordinate data resulting 
# from the CCDC's data processing and validation procedures.
#
#######################################################################

data_CEXLOH
_symmetry_cell_setting           monoclinic
_symmetry_space_group_name_H-M   'P 21/m'
_symmetry_Int_Tables_number      11
_space_group_name_Hall           '-P 2yb'
loop_
_symmetry_equiv_pos_site_id
_symmetry_equiv_pos_as_xyz
1 x,y,z
2 -x,1/2+y,-z
3 -x,-y,-z
4 x,1/2-y,z
_cell_length_a                   3.6392(5)
_cell_length_b                   14.446(2)
_cell_length_c                   8.8590(10)
_cell_angle_alpha                90
_cell_angle_beta                 98.8760(10)
_cell_angle_gamma                90
_cell_volume                     460.157
loop_
_atom_site_label
_atom_site_type_symbol
_atom_site_fract_x
_atom_site_fract_y
_atom_site_fract_z
Na1 Na 0.3957(3) 0.7500 0.65850(10)
O1 O 0.1324(6) 0.7500 0.3829(2)
O2 O 0.0800(7) 0.56640(10) 0.3390(2)
O3 O 0.3062(7) 0.50990(10) 0.1551(2)
O4 O -0.1320(4) 0.64380(10) 0.6178(2)
N1 N 0.2105(5) 0.57680(10) 0.2224(2)
N2 N 0.3558(6) 0.7500 -0.0647(2)
C1 C 0.1967(6) 0.7500 0.2496(2)
C2 C 0.2422(5) 0.66830(10) 0.1594(2)
C3 C 0.3182(5) 0.67170(10) 0.0120(2)
H1 H -0.1675 0.6218 0.5277
H2 H -0.1094 0.6000 0.6825
H3 H 0.3452 0.6159 -0.0375
Na1_2 Na -0.6043(3) 0.7500 0.65850(10)
Na1_3 Na 0.3957(3) 0.7500 -0.34150(10)
Na1_4 Na 1.3957(3) 0.7500 0.65850(10)
O2C O 0.0800(7) 0.93360(10) 0.3390(2)
O3C O 0.3062(7) 0.99010(10) 0.1551(2)
O4_2 O 0.8680(4) 0.64380(10) 0.6178(2)
O4C O -0.1320(4) 0.85620(10) 0.6178(2)
O4C_2 O 0.8680(4) 0.85620(10) 0.6178(2)
N1C N 0.2105(5) 0.92320(10) 0.2224(2)
N2_2 N 0.3558(6) 0.7500 0.9353(2)
C2C C 0.2422(5) 0.83170(10) 0.1594(2)
C3C C 0.3182(5) 0.82830(10) 0.0120(2)
H1_2 H 0.8325 0.6218 0.5277
H1C H -0.1675 0.8782 0.5277
H1C_2 H 0.8325 0.8782 0.5277
H2_2 H 0.8906 0.6000 0.6825
H2C H -0.1094 0.9000 0.6825
H2C_2 H 0.8906 0.9000 0.6825
H3C H 0.3452 0.8841 -0.0375
loop_
_geom_bond_atom_site_label_1
_geom_bond_atom_site_label_2
_geom_bond_site_symmetry_1
_geom_bond_site_symmetry_2
Na1 O1 1_555 1_555
O1 C1 1_555 1_555
O2 N1 1_555 1_555
O3 N1 1_555 1_555
O4 Na1 1_555 1_555
N1 C2 1_555 1_555
N2 C3 1_555 1_555
C1 C2 1_555 1_555
C2 C3 1_555 1_555
C3 H3 1_555 1_555
H1 O4 1_555 1_555
H2 O4 1_555 1_555
Na1_2 O4 1_555 1_555
Na1_3 N2 1_555 1_555
Na1_4 O4_2 1_555 1_555
O2C N1C 1_555 1_555
O3C N1C 1_555 1_555
O4_2 Na1 1_555 1_555
O4C Na1 1_555 1_555
O4C_2 Na1 1_555 1_555
N1C C2C 1_555 1_555
N2_2 Na1 1_555 1_555
C2C C1 1_555 1_555
C3C N2 1_555 1_555
H1_2 O4_2 1_555 1_555
H1C O4C 1_555 1_555
H1C_2 O4C_2 1_555 1_555
H2_2 O4_2 1_555 1_555
H2C O4C 1_555 1_555
H2C_2 O4C_2 1_555 1_555
H3C C3C 1_555 1_555
Na1_2 O4C 1_555 1_555
Na1_4 O4C_2 1_555 1_555
C2C C3C 1_555 1_555

#END
