
#######################################################################
#
#                 Cambridge Crystallographic Data Centre
#                                CCDC 
#
#######################################################################
#
# If this CIF has been generated from an entry in the Cambridge 
# Structural Database, then it will include bibliographic, chemical, 
# crystal, experimental, refinement or atomic coordinate data resulting 
# from the CCDC's data processing and validation procedures.
#
#######################################################################

data_CEXWIM
_symmetry_cell_setting           monoclinic
_symmetry_space_group_name_H-M   'P 21/c'
_symmetry_Int_Tables_number      14
_space_group_name_Hall           '-P 2ybc'
loop_
_symmetry_equiv_pos_site_id
_symmetry_equiv_pos_as_xyz
1 x,y,z
2 -x,1/2+y,1/2-z
3 -x,-y,-z
4 x,1/2-y,1/2+z
_cell_length_a                   8.9814(18)
_cell_length_b                   17.278(4)
_cell_length_c                   15.462(3)
_cell_angle_alpha                90.00
_cell_angle_beta                 102.233(4)
_cell_angle_gamma                90.00
_cell_volume                     2344.92
loop_
_atom_site_label
_atom_site_type_symbol
_atom_site_fract_x
_atom_site_fract_y
_atom_site_fract_z
Pr1 Pr 0.35898(5) 0.58583(3) 0.92399(3)
Pr2 Pr 1.15666(5) 0.64904(3) 1.12898(3)
O1 O 0.3046(7) 0.4564(3) 0.8649(4)
O2 O 0.6067(6) 0.5135(3) 0.9469(4)
O3 O 0.3690(8) 0.5988(4) 0.7648(4)
O4 O 1.0614(7) 0.6002(3) 0.8298(4)
O5 O 0.2873(6) 0.7208(3) 0.8922(4)
O6 O 1.1128(6) 0.6037(3) 0.9760(4)
O7 O 0.5838(6) 0.3479(3) 0.9317(4)
O8 O 0.2251(7) 0.7540(3) 0.7495(4)
O9 O 0.0790(6) 0.4277(3) 0.8951(4)
O10 O 0.7919(6) 0.4941(3) 0.8731(4)
O11 O 0.1540(8) 0.7691(4) 1.0489(4)
O12 O 0.5607(6) 0.3609(4) 0.7881(4)
O13 O 0.3712(10) 0.8333(5) 1.0692(6)
N1 N 0.6165(8) 0.6639(4) 0.9209(5)
C1 C 0.7371(9) 0.6224(5) 0.9097(5)
C2 C 0.6290(10) 0.7416(5) 0.9231(6)
H1 H 0.5466 0.7706 0.9324
C3 C 0.7583(10) 0.7804(5) 0.9122(7)
H2 H 0.7622 0.8342 0.9117
C4 C 0.8811(10) 0.7361(5) 0.9022(6)
H3 H 0.9704 0.7606 0.8959
C5 C 0.8747(9) 0.6563(5) 0.9014(5)
C6 C 0.7129(9) 0.5355(5) 0.9085(6)
C7 C 1.0227(9) 0.6141(5) 0.9009(6)
N2 N 0.1369(8) 0.8947(4) 0.7884(5)
C8 C 0.1871(9) 0.8461(5) 0.8571(6)
C9 C 0.1883(10) 0.8667(5) 0.9448(6)
C10 C 0.1415(11) 0.9417(6) 0.9587(7)
H4 H 0.1448 0.9586 1.0162
C11 C 0.0910(13) 0.9907(5) 0.8899(7)
H5 H 0.0584 1.0404 0.8995
C12 C 0.0897(11) 0.9645(5) 0.8051(6)
H6 H 0.0540 0.9975 0.7577
C13 C 0.2382(9) 0.7669(5) 0.8303(6)
C14 C 0.2437(11) 0.8171(5) 1.0267(6)
N3 N 0.0981(7) 0.2815(4) 0.8488(4)
C15 C 0.1084(10) 0.2073(5) 0.8307(6)
H7 H 0.0247 0.1757 0.8315
C16 C 0.2363(10) 0.1741(5) 0.8107(6)
H8 H 0.2367 0.1222 0.7948
C17 C 0.3625(10) 0.2190(5) 0.8148(6)
H9 H 0.4502 0.1980 0.8013
C18 C 0.3594(9) 0.2970(5) 0.8394(6)
C19 C 0.2238(9) 0.3257(4) 0.8536(5)
C20 C 0.2004(9) 0.4098(5) 0.8719(5)
C21 C 0.5062(9) 0.3424(5) 0.8526(6)
Pr1B Pr 0.64102(5) 0.41417(3) 1.07601(3)
Pr1_2 Pr 1.35898(5) 0.58583(3) 0.92399(3)
Pr2B Pr 0.84334(5) 0.35096(3) 0.87102(3)
Pr2C Pr 0.15666(5) 0.85096(3) 0.62898(3)
Pr2B_2 Pr -0.15666(5) 0.35096(3) 0.87102(3)
Pr2_2 Pr 0.15666(5) 0.64904(3) 1.12898(3)
O2B O 0.3933(6) 0.4865(3) 1.0531(4)
O4_2 O 0.0614(7) 0.6002(3) 0.8298(4)
O6_2 O 0.1128(6) 0.6037(3) 0.9760(4)
O7B O 0.4162(6) 0.6521(3) 1.0683(4)
O7B_2 O 1.4162(6) 0.6521(3) 1.0683(4)
O8C O 1.2251(7) 0.7460(3) 1.2495(4)
O9B O 0.9210(6) 0.5723(3) 1.1049(4)
O10B O 1.2081(6) 0.5059(3) 1.1269(4)
O11_2 O 1.1540(8) 0.7691(4) 1.0489(4)
O12B O 1.4393(6) 0.6391(4) 1.2119(4)
N2C N 1.1369(8) 0.6053(4) 1.2884(5)
N3B N 0.9019(7) 0.7185(4) 1.1512(4)
O14 O 0.5664(12) 0.9275(6) 0.0035(8)
O15 O 0.4032(17) 0.4745(6) 0.6652(6)
loop_
_geom_bond_atom_site_label_1
_geom_bond_atom_site_label_2
_geom_bond_site_symmetry_1
_geom_bond_site_symmetry_2
Pr1 O1 1_555 1_555
Pr2 O6 1_555 1_555
O1 C20 1_555 1_555
O2 Pr1 1_555 1_555
O3 Pr1 1_555 1_555
O4 C7 1_555 1_555
O5 Pr1 1_555 1_555
O6 C7 1_555 1_555
O7 C21 1_555 1_555
O8 C13 1_555 1_555
O9 C20 1_555 1_555
O10 C6 1_555 1_555
O11 C14 1_555 1_555
O12 C21 1_555 1_555
O13 C14 1_555 1_555
N1 Pr1 1_555 1_555
C1 N1 1_555 1_555
C2 N1 1_555 1_555
H1 C2 1_555 1_555
C3 C2 1_555 1_555
H2 C3 1_555 1_555
C4 C3 1_555 1_555
H3 C4 1_555 1_555
C5 C1 1_555 1_555
C6 O2 1_555 1_555
C7 C5 1_555 1_555
N2 C8 1_555 1_555
C8 C9 1_555 1_555
C9 C10 1_555 1_555
C10 H4 1_555 1_555
C11 C10 1_555 1_555
H5 C11 1_555 1_555
C12 N2 1_555 1_555
H6 C12 1_555 1_555
C13 O5 1_555 1_555
C14 C9 1_555 1_555
N3 C15 1_555 1_555
C15 H7 1_555 1_555
C16 C15 1_555 1_555
H8 C16 1_555 1_555
C17 C16 1_555 1_555
H9 C17 1_555 1_555
C18 C17 1_555 1_555
C19 N3 1_555 1_555
C20 C19 1_555 1_555
C21 C18 1_555 1_555
Pr1B O2 1_555 1_555
Pr1_2 O4 1_555 1_555
Pr2B O7 1_555 1_555
Pr2C O8 1_555 1_555
Pr2B_2 O9 1_555 1_555
Pr2_2 O11 1_555 1_555
O2B Pr1 1_555 1_555
O4_2 Pr1 1_555 1_555
O6_2 Pr1 1_555 1_555
O7B Pr1 1_555 1_555
O7B_2 Pr2 1_555 1_555
O8C Pr2 1_555 1_555
O9B Pr2 1_555 1_555
O10B Pr2 1_555 1_555
O11_2 Pr2 1_555 1_555
O12B Pr2 1_555 1_555
N2C Pr2 1_555 1_555
N3B Pr2 1_555 1_555
O6 Pr1_2 1_555 1_555
O7 Pr1B 1_555 1_555
O10 Pr2B 1_555 1_555
O12 Pr2B 1_555 1_555
C1 C6 1_555 1_555
C4 C5 1_555 1_555
N2 Pr2C 1_555 1_555
C8 C13 1_555 1_555
C11 C12 1_555 1_555
N3 Pr2B_2 1_555 1_555
C18 C19 1_555 1_555
Pr1B O2B 1_555 1_555
Pr1_2 O7B_2 1_555 1_555
Pr2_2 O6_2 1_555 1_555
Pr2_2 O7B 1_555 1_555

#END
