
#######################################################################
#
#                 Cambridge Crystallographic Data Centre
#                                CCDC 
#
#######################################################################
#
# If this CIF has been generated from an entry in the Cambridge 
# Structural Database, then it will include bibliographic, chemical, 
# crystal, experimental, refinement or atomic coordinate data resulting 
# from the CCDC's data processing and validation procedures.
#
#######################################################################

data_CEXWOS
_symmetry_cell_setting           monoclinic
_symmetry_space_group_name_H-M   'P 21/c'
_symmetry_Int_Tables_number      14
_space_group_name_Hall           '-P 2ybc'
loop_
_symmetry_equiv_pos_site_id
_symmetry_equiv_pos_as_xyz
1 x,y,z
2 -x,1/2+y,1/2-z
3 -x,-y,-z
4 x,1/2-y,1/2+z
_cell_length_a                   8.9586(19)
_cell_length_b                   17.246(4)
_cell_length_c                   15.406(3)
_cell_angle_alpha                90.00
_cell_angle_beta                 102.033(4)
_cell_angle_gamma                90.00
_cell_volume                     2327.93
loop_
_atom_site_label
_atom_site_type_symbol
_atom_site_fract_x
_atom_site_fract_y
_atom_site_fract_z
Nd1 Nd 0.35938(7) 0.58593(3) 0.92411(4)
Nd2 Nd 1.15753(6) 0.64879(3) 1.12895(4)
O1 O 0.3035(8) 0.4567(4) 0.8654(5)
O2 O 0.6048(8) 0.5135(4) 0.9469(5)
O3 O 0.3702(10) 0.5989(5) 0.7665(6)
O4 O 1.0649(9) 0.5999(4) 0.8302(5)
O5 O 0.2876(8) 0.7202(4) 0.8928(5)
O6 O 1.1137(8) 0.6036(4) 0.9761(5)
O7 O 0.5845(8) 0.3487(4) 0.9324(5)
O8 O 0.2266(9) 0.7542(4) 0.7484(5)
O9 O 0.0769(8) 0.4280(4) 0.8958(5)
O10 O 0.7907(8) 0.4938(4) 0.8725(5)
O11 O 0.1540(10) 0.7675(5) 1.0482(5)
O12 O 0.5600(9) 0.3624(4) 0.7876(5)
O13 O 0.3710(13) 0.8320(6) 1.0684(7)
N1 N 0.6157(10) 0.6639(5) 0.9214(6)
C1 C 0.7380(12) 0.6223(6) 0.9102(7)
C2 C 0.6270(14) 0.7407(6) 0.9223(9)
H1 H 0.5424 0.7697 0.9285
C3 C 0.7605(15) 0.7800(7) 0.9143(9)
H2 H 0.7669 0.8338 0.9172
C4 C 0.8797(14) 0.7359(6) 0.9023(8)
H3 H 0.9678 0.7603 0.8933
C5 C 0.8746(12) 0.6561(6) 0.9030(7)
C6 C 0.7117(12) 0.5354(6) 0.9087(7)
C7 C 1.0229(12) 0.6141(6) 0.8998(8)
N2 N 0.1379(10) 0.8947(5) 0.7879(6)
C8 C 0.1859(12) 0.8451(6) 0.8563(7)
C9 C 0.1896(14) 0.8650(7) 0.9454(8)
C10 C 0.1420(16) 0.9407(7) 0.9599(8)
H4 H 0.1460 0.9578 1.0176
C11 C 0.0897(16) 0.9897(7) 0.8899(8)
H5 H 0.0547 1.0389 0.9001
C12 C 0.0892(13) 0.9657(6) 0.8047(8)
H6 H 0.0544 0.9994 0.7576
C13 C 0.2376(12) 0.7661(6) 0.8301(8)
C14 C 0.2407(16) 0.8158(7) 1.0270(8)
N3 N 0.0974(10) 0.2827(5) 0.8493(6)
C15 C 0.1050(13) 0.2080(6) 0.8295(7)
H7 H 0.0193 0.1772 0.8279
C16 C 0.2345(13) 0.1743(6) 0.8110(8)
H8 H 0.2360 0.1221 0.7964
C17 C 0.3603(13) 0.2199(7) 0.8150(8)
H9 H 0.4479 0.1987 0.8010
C18 C 0.3594(13) 0.2980(6) 0.8397(7)
C19 C 0.2224(12) 0.3264(6) 0.8529(7)
C20 C 0.1973(12) 0.4098(6) 0.8727(7)
C21 C 0.5087(13) 0.3418(6) 0.8538(8)
Nd1B Nd 0.64062(7) 0.41407(3) 1.07589(4)
Nd1_2 Nd 1.35938(7) 0.58593(3) 0.92411(4)
Nd2B Nd 0.84247(6) 0.35121(3) 0.87105(4)
Nd2C Nd 0.15753(6) 0.85121(3) 0.62895(4)
Nd2B_2 Nd -0.15753(6) 0.35121(3) 0.87105(4)
Nd2_2 Nd 0.15753(6) 0.64879(3) 1.12895(4)
O2B O 0.3952(8) 0.4865(4) 1.0531(5)
O4_2 O 0.0649(9) 0.5999(4) 0.8302(5)
O6_2 O 0.1137(8) 0.6036(4) 0.9761(5)
O7B O 0.4155(8) 0.6513(4) 1.0676(5)
O7B_2 O 1.4155(8) 0.6513(4) 1.0676(5)
O8C O 1.2266(9) 0.7458(4) 1.2484(5)
O9B O 0.9231(8) 0.5720(4) 1.1042(5)
O10B O 1.2093(8) 0.5062(4) 1.1275(5)
O11_2 O 1.1540(10) 0.7675(5) 1.0482(5)
O12B O 1.4400(9) 0.6376(4) 1.2124(5)
N2C N 1.1379(10) 0.6053(5) 1.2879(6)
N3B N 0.9026(10) 0.7173(5) 1.1507(6)
O14 O 0.5662(16) 0.9272(9) 0.0052(11)
O15 O 0.403(2) 0.4744(8) 0.6655(9)
loop_
_geom_bond_atom_site_label_1
_geom_bond_atom_site_label_2
_geom_bond_site_symmetry_1
_geom_bond_site_symmetry_2
Nd1 O1 1_555 1_555
Nd2 O6 1_555 1_555
O1 C20 1_555 1_555
O2 Nd1 1_555 1_555
O3 Nd1 1_555 1_555
O4 C7 1_555 1_555
O5 Nd1 1_555 1_555
O6 C7 1_555 1_555
O7 C21 1_555 1_555
O8 C13 1_555 1_555
O9 C20 1_555 1_555
O10 C6 1_555 1_555
O11 C14 1_555 1_555
O12 C21 1_555 1_555
O13 C14 1_555 1_555
N1 Nd1 1_555 1_555
C1 N1 1_555 1_555
C2 N1 1_555 1_555
H1 C2 1_555 1_555
C3 C2 1_555 1_555
H2 C3 1_555 1_555
C4 C3 1_555 1_555
H3 C4 1_555 1_555
C5 C1 1_555 1_555
C6 O2 1_555 1_555
C7 C5 1_555 1_555
N2 C8 1_555 1_555
C8 C9 1_555 1_555
C9 C10 1_555 1_555
C10 H4 1_555 1_555
C11 C10 1_555 1_555
H5 C11 1_555 1_555
C12 N2 1_555 1_555
H6 C12 1_555 1_555
C13 O5 1_555 1_555
C14 C9 1_555 1_555
N3 C15 1_555 1_555
C15 H7 1_555 1_555
C16 C15 1_555 1_555
H8 C16 1_555 1_555
C17 C16 1_555 1_555
H9 C17 1_555 1_555
C18 C17 1_555 1_555
C19 N3 1_555 1_555
C20 C19 1_555 1_555
C21 C18 1_555 1_555
Nd1B O2 1_555 1_555
Nd1_2 O4 1_555 1_555
Nd2B O7 1_555 1_555
Nd2C O8 1_555 1_555
Nd2B_2 O9 1_555 1_555
Nd2_2 O11 1_555 1_555
O2B Nd1 1_555 1_555
O4_2 Nd1 1_555 1_555
O6_2 Nd1 1_555 1_555
O7B Nd1 1_555 1_555
O7B_2 Nd2 1_555 1_555
O8C Nd2 1_555 1_555
O9B Nd2 1_555 1_555
O10B Nd2 1_555 1_555
O11_2 Nd2 1_555 1_555
O12B Nd2 1_555 1_555
N2C Nd2 1_555 1_555
N3B Nd2 1_555 1_555
O6 Nd1_2 1_555 1_555
O7 Nd1B 1_555 1_555
O10 Nd2B 1_555 1_555
O12 Nd2B 1_555 1_555
C1 C6 1_555 1_555
C4 C5 1_555 1_555
N2 Nd2C 1_555 1_555
C8 C13 1_555 1_555
C11 C12 1_555 1_555
N3 Nd2B_2 1_555 1_555
C18 C19 1_555 1_555
Nd1B O2B 1_555 1_555
Nd1_2 O7B_2 1_555 1_555
Nd2_2 O6_2 1_555 1_555
Nd2_2 O7B 1_555 1_555

#END
