
#######################################################################
#
#                 Cambridge Crystallographic Data Centre
#                                CCDC 
#
#######################################################################
#
# If this CIF has been generated from an entry in the Cambridge 
# Structural Database, then it will include bibliographic, chemical, 
# crystal, experimental, refinement or atomic coordinate data resulting 
# from the CCDC's data processing and validation procedures.
#
#######################################################################

data_CEXWEI
_symmetry_cell_setting           monoclinic
_symmetry_space_group_name_H-M   'P 21/c'
_symmetry_Int_Tables_number      14
_space_group_name_Hall           '-P 2ybc'
loop_
_symmetry_equiv_pos_site_id
_symmetry_equiv_pos_as_xyz
1 x,y,z
2 -x,1/2+y,1/2-z
3 -x,-y,-z
4 x,1/2-y,1/2+z
_cell_length_a                   9.0495(17)
_cell_length_b                   17.355(3)
_cell_length_c                   15.570(3)
_cell_angle_alpha                90.00
_cell_angle_beta                 102.570(3)
_cell_angle_gamma                90.00
_cell_volume                     2386.72
loop_
_atom_site_label
_atom_site_type_symbol
_atom_site_fract_x
_atom_site_fract_y
_atom_site_fract_z
La1 La 0.35636(6) 0.58575(3) 0.92275(3)
La2 La 1.15396(6) 0.64930(3) 1.12904(3)
O1 O 0.3089(7) 0.4542(3) 0.8624(4)
O2 O 0.6107(7) 0.5142(4) 0.9484(4)
O3 O 0.3658(9) 0.5992(4) 0.7634(5)
O4 O 1.0592(7) 0.6009(4) 0.8300(4)
O5 O 0.2871(7) 0.7229(3) 0.8944(4)
O6 O 1.1085(7) 0.6040(3) 0.9744(4)
O7 O 0.5859(7) 0.3482(3) 0.9315(4)
O8 O 0.2216(8) 0.7548(4) 0.7530(4)
O9 O 0.0860(7) 0.4270(3) 0.8938(4)
O10 O 0.7932(7) 0.4953(3) 0.8750(4)
O11 O 0.1505(8) 0.7705(4) 1.0480(5)
O12 O 0.5602(7) 0.3588(4) 0.7879(4)
O13 O 0.3642(11) 0.8351(6) 1.0703(6)
N1 N 0.6155(8) 0.6643(4) 0.9183(5)
C1 C 0.7369(9) 0.6242(5) 0.9103(5)
C2 C 0.6259(11) 0.7404(6) 0.9193(7)
H1 H 0.5432 0.7691 0.9274
C3 C 0.7538(11) 0.7789(5) 0.9090(8)
H2 H 0.7572 0.8325 0.9091
C4 C 0.8770(10) 0.7360(5) 0.8983(7)
H3 H 0.9638 0.7606 0.8897
C5 C 0.8716(10) 0.6566(5) 0.9005(6)
C6 C 0.7132(9) 0.5379(5) 0.9095(5)
C7 C 1.0181(9) 0.6150(5) 0.8979(6)
N2 N 0.1368(9) 0.8962(4) 0.7908(5)
C8 C 0.1841(10) 0.8476(5) 0.8583(6)
C9 C 0.1876(11) 0.8679(5) 0.9457(6)
C10 C 0.1368(14) 0.9421(6) 0.9583(7)
H4 H 0.1357 0.9582 1.0151
C11 C 0.0895(15) 0.9909(6) 0.8914(7)
H5 H 0.0573 1.0403 0.9014
C12 C 0.0897(12) 0.9660(6) 0.8069(7)
H6 H 0.0558 0.9993 0.7599
C13 C 0.2352(10) 0.7692(5) 0.8324(6)
C14 C 0.2394(13) 0.8190(6) 1.0251(7)
N3 N 0.1037(8) 0.2808(4) 0.8489(5)
C15 C 0.1115(11) 0.2059(5) 0.8292(6)
H7 H 0.0266 0.1752 0.8273
C16 C 0.2395(12) 0.1726(6) 0.8118(8)
H8 H 0.2408 0.1206 0.7976
C17 C 0.3662(12) 0.2180(6) 0.8158(6)
H9 H 0.4531 0.1972 0.8023
C18 C 0.3629(10) 0.2950(5) 0.8403(6)
C19 C 0.2298(10) 0.3253(5) 0.8533(6)
C20 C 0.2057(11) 0.4085(5) 0.8712(6)
C21 C 0.5083(10) 0.3401(5) 0.8527(6)
La1B La 0.64364(6) 0.41425(3) 1.07725(3)
La1_2 La 1.35636(6) 0.58575(3) 0.92275(3)
La2B La 0.84604(6) 0.35070(3) 0.87096(3)
La2C La 0.15396(6) 0.85070(3) 0.62904(3)
La2B_2 La -0.15396(6) 0.35070(3) 0.87096(3)
La2_2 La 0.15396(6) 0.64930(3) 1.12904(3)
O2B O 0.3893(7) 0.4858(4) 1.0516(4)
O4_2 O 0.0592(7) 0.6009(4) 0.8300(4)
O6_2 O 0.1085(7) 0.6040(3) 0.9744(4)
O7B O 0.4141(7) 0.6518(3) 1.0685(4)
O7B_2 O 1.4141(7) 0.6518(3) 1.0685(4)
O8C O 1.2216(8) 0.7452(4) 1.2530(4)
O9B O 0.9140(7) 0.5730(3) 1.1062(4)
O10B O 1.2068(7) 0.5047(3) 1.1250(4)
O11_2 O 1.1505(8) 0.7705(4) 1.0480(5)
O12B O 1.4398(7) 0.6412(4) 1.2121(4)
N2C N 1.1368(9) 0.6038(4) 1.2908(5)
N3B N 0.8963(8) 0.7192(4) 1.1511(5)
O14 O 0.5621(15) 0.9257(8) 0.0018(10)
O15 O 0.407(2) 0.4748(7) 0.6664(8)
loop_
_geom_bond_atom_site_label_1
_geom_bond_atom_site_label_2
_geom_bond_site_symmetry_1
_geom_bond_site_symmetry_2
La1 O1 1_555 1_555
La2 O6 1_555 1_555
O1 C20 1_555 1_555
O2 La1 1_555 1_555
O3 La1 1_555 1_555
O4 C7 1_555 1_555
O5 La1 1_555 1_555
O6 C7 1_555 1_555
O7 C21 1_555 1_555
O8 C13 1_555 1_555
O9 C20 1_555 1_555
O10 C6 1_555 1_555
O11 C14 1_555 1_555
O12 C21 1_555 1_555
O13 C14 1_555 1_555
N1 La1 1_555 1_555
C1 N1 1_555 1_555
C2 N1 1_555 1_555
H1 C2 1_555 1_555
C3 C2 1_555 1_555
H2 C3 1_555 1_555
C4 C3 1_555 1_555
H3 C4 1_555 1_555
C5 C1 1_555 1_555
C6 O2 1_555 1_555
C7 C5 1_555 1_555
N2 C8 1_555 1_555
C8 C9 1_555 1_555
C9 C10 1_555 1_555
C10 H4 1_555 1_555
C11 C10 1_555 1_555
H5 C11 1_555 1_555
C12 N2 1_555 1_555
H6 C12 1_555 1_555
C13 O5 1_555 1_555
C14 C9 1_555 1_555
N3 C15 1_555 1_555
C15 H7 1_555 1_555
C16 C15 1_555 1_555
H8 C16 1_555 1_555
C17 C16 1_555 1_555
H9 C17 1_555 1_555
C18 C17 1_555 1_555
C19 N3 1_555 1_555
C20 C19 1_555 1_555
C21 C18 1_555 1_555
La1B O2 1_555 1_555
La1_2 O4 1_555 1_555
La2B O7 1_555 1_555
La2C O8 1_555 1_555
La2B_2 O9 1_555 1_555
La2_2 O11 1_555 1_555
O2B La1 1_555 1_555
O4_2 La1 1_555 1_555
O6_2 La1 1_555 1_555
O7B La1 1_555 1_555
O7B_2 La2 1_555 1_555
O8C La2 1_555 1_555
O9B La2 1_555 1_555
O10B La2 1_555 1_555
O11_2 La2 1_555 1_555
O12B La2 1_555 1_555
N2C La2 1_555 1_555
N3B La2 1_555 1_555
O6 La1_2 1_555 1_555
O7 La1B 1_555 1_555
O10 La2B 1_555 1_555
O12 La2B 1_555 1_555
C1 C6 1_555 1_555
C4 C5 1_555 1_555
N2 La2C 1_555 1_555
C8 C13 1_555 1_555
C11 C12 1_555 1_555
N3 La2B_2 1_555 1_555
C18 C19 1_555 1_555
La1B O2B 1_555 1_555
La1_2 O7B_2 1_555 1_555
La2_2 O6_2 1_555 1_555
La2_2 O7B 1_555 1_555

#END
