
#######################################################################
#
#                 Cambridge Crystallographic Data Centre
#                                CCDC 
#
#######################################################################
#
# If this CIF has been generated from an entry in the Cambridge 
# Structural Database, then it will include bibliographic, chemical, 
# crystal, experimental, refinement or atomic coordinate data resulting 
# from the CCDC's data processing and validation procedures.
#
#######################################################################

data_CEXYOU
_symmetry_cell_setting           monoclinic
_symmetry_space_group_name_H-M   'C 2/c'
_symmetry_Int_Tables_number      15
_space_group_name_Hall           '-C 2yn'
loop_
_symmetry_equiv_pos_site_id
_symmetry_equiv_pos_as_xyz
1 x,y,z
2 1/2+x,1/2+y,z
3 -x,y,1/2-z
4 1/2-x,1/2+y,1/2-z
5 -x,-y,-z
6 1/2-x,1/2-y,-z
7 x,-y,1/2+z
8 1/2+x,1/2-y,1/2+z
_cell_length_a                   9.0114(17)
_cell_length_b                   14.198(3)
_cell_length_c                   7.6068(15)
_cell_angle_alpha                90
_cell_angle_beta                 116.186(2)
_cell_angle_gamma                90
_cell_volume                     873.356
loop_
_atom_site_label
_atom_site_type_symbol
_atom_site_fract_x
_atom_site_fract_y
_atom_site_fract_z
Cd1 Cd 0.5000 0.56285(2) 0.7500
O1 O 0.4234(3) 0.59119(19) 0.4071(4)
O2 O 0.2554(3) 0.50601(19) 0.1538(4)
N1 N 0.0000 0.7748(3) 0.2500
C1 C 0.1310(4) 0.7274(2) 0.2501(5)
C2 C 0.1352(4) 0.6293(2) 0.2547(5)
C3 C 0.0000 0.5806(3) 0.2500
H1 H 0.0000 0.5151 0.2500
C4 C 0.2660(4) 0.7860(3) 0.2395(6)
H2 H 0.2394 0.8516 0.2377
H3 H 0.3688 0.7732 0.3516
H4 H 0.2760 0.7706 0.1222
C5 C 0.2833(4) 0.5724(2) 0.2736(6)
Cd1F Cd 0.5000 0.43715(2) 0.2500
Cd1G Cd 0.0000 0.93715(2) 0.2500
Cd1_2 Cd -0.5000 0.56285(2) -0.2500
Cd1F_2 Cd -0.5000 0.43715(2) 0.2500
O1B O -0.4234(3) 0.59119(19) 0.0929(4)
O1B_2 O 0.5766(3) 0.59119(19) 1.0929(4)
O2B O -0.2554(3) 0.50601(19) 0.3462(4)
O2F O 0.2554(3) 0.49399(19) 0.6538(4)
O2D O 0.7446(3) 0.49399(19) 0.8462(4)
N1G N 0.5000 0.7252(3) 0.7500
C1B C -0.1310(4) 0.7274(2) 0.2499(5)
C2B C -0.1352(4) 0.6293(2) 0.2453(5)
C4B C -0.2660(4) 0.7860(3) 0.2605(6)
H2B H -0.2394 0.8516 0.2623
H3B H -0.3688 0.7732 0.1484
H4B H -0.2760 0.7706 0.3778
C5B C -0.2833(4) 0.5724(2) 0.2264(6)
loop_
_geom_bond_atom_site_label_1
_geom_bond_atom_site_label_2
_geom_bond_site_symmetry_1
_geom_bond_site_symmetry_2
Cd1 O1 1_555 1_555
O1 C5 1_555 1_555
O2 C5 1_555 1_555
N1 C1 1_555 1_555
C1 C2 1_555 1_555
C2 C3 1_555 1_555
C3 H1 1_555 1_555
C4 C1 1_555 1_555
H2 C4 1_555 1_555
H3 C4 1_555 1_555
H4 C4 1_555 1_555
C5 C2 1_555 1_555
Cd1F O2 1_555 1_555
Cd1G N1 1_555 1_555
Cd1_2 O1B 1_555 1_555
Cd1F_2 O2B 1_555 1_555
O1B C5B 1_555 1_555
O1B_2 Cd1 1_555 1_555
O2B C5B 1_555 1_555
O2F Cd1 1_555 1_555
O2D Cd1 1_555 1_555
N1G Cd1 1_555 1_555
C1B N1 1_555 1_555
C2B C3 1_555 1_555
C4B C1B 1_555 1_555
H2B C4B 1_555 1_555
H3B C4B 1_555 1_555
H4B C4B 1_555 1_555
C5B C2B 1_555 1_555
C1B C2B 1_555 1_555

#END
