
#######################################################################
#
#                 Cambridge Crystallographic Data Centre
#                                CCDC 
#
#######################################################################
#
# If this CIF has been generated from an entry in the Cambridge 
# Structural Database, then it will include bibliographic, chemical, 
# crystal, experimental, refinement or atomic coordinate data resulting 
# from the CCDC's data processing and validation procedures.
#
#######################################################################

data_CEXYUA
_symmetry_cell_setting           monoclinic
_symmetry_space_group_name_H-M   'P c'
_symmetry_Int_Tables_number      7
_space_group_name_Hall           'P -2yc'
loop_
_symmetry_equiv_pos_site_id
_symmetry_equiv_pos_as_xyz
1 x,y,z
2 x,-y,1/2+z
_cell_length_a                   4.7020(9)
_cell_length_b                   15.531(3)
_cell_length_c                   10.005(2)
_cell_angle_alpha                90
_cell_angle_beta                 101.75(3)
_cell_angle_gamma                90
_cell_volume                     715.323
loop_
_atom_site_label
_atom_site_type_symbol
_atom_site_fract_x
_atom_site_fract_y
_atom_site_fract_z
C1 C 0.8876(16) 0.2683(4) 0.2315(8)
C2 C 0.7752(14) 0.3576(3) 0.2522(7)
C3 C 0.8430(15) 0.4309(4) 0.1896(7)
H1 H 0.9602 0.4283 0.1252
C4 C 0.7344(14) 0.5094(3) 0.2235(8)
H2 H 0.7773 0.5600 0.1821
C5 C 0.5608(14) 0.5109(3) 0.3203(8)
C6 C 0.4953(19) 0.4338(3) 0.3759(8)
H3 H 0.3720 0.4343 0.4377
C7 C 0.4309(15) 0.5944(3) 0.3616(8)
C8 C 0.1597(15) 0.2205(4) 0.5801(8)
C9 C 0.2736(14) 0.1311(3) 0.5589(7)
C10 C 0.2042(15) 0.0578(4) 0.6217(8)
H4 H 0.0899 0.0607 0.6873
C11 C 0.3066(15) -0.0202(4) 0.5860(7)
H5 H 0.2575 -0.0709 0.6252
C12 C 0.4864(14) -0.0222(3) 0.4896(7)
C13 C 0.5501(17) 0.0539(3) 0.4351(7)
H6 H 0.6705 0.0530 0.3720
C14 C 0.6044(15) -0.1054(3) 0.4472(7)
Cu1 Cu 0.5268(8) 0.24428(3) 0.4053(4)
N1 N 0.6023(12) 0.3588(3) 0.3441(6)
N2 N 0.4492(12) 0.1298(3) 0.4672(6)
O1 O 0.7890(11) 0.2073(2) 0.2930(6)
O2 O 1.0796(18) 0.2606(3) 0.1605(9)
O3 O 0.2403(12) 0.5879(3) 0.4299(6)
O4 O 0.5311(12) 0.6629(2) 0.3261(7)
O5 O 0.2632(12) 0.2819(3) 0.5186(6)
O6 O -0.0307(15) 0.2287(3) 0.6463(7)
O7 O 0.8119(12) -0.0999(3) 0.3851(6)
O8 O 0.4979(11) -0.1743(2) 0.4761(6)
Pb1 Pb 1.02076(16) 0.254812(9) -0.09938(10)
O3A O 1.2403(12) 0.4121(3) -0.0701(6)
O4A O 0.5311(12) 0.3371(2) -0.1739(7)
O6_2 O 0.9693(15) 0.2287(3) -0.3537(7)
O7A O 0.8119(12) 0.0999(3) -0.1149(6)
O8A O 1.4979(11) 0.1743(2) -0.0239(6)
Pb1A Pb 0.02076(16) 0.745188(9) 0.40062(10)
Pb1A_2 Pb 1.02076(16) 0.745188(9) 0.40062(10)
Pb1_2 Pb 0.02076(16) 0.254812(9) 0.90062(10)
Pb1A_3 Pb 1.02076(16) -0.254812(9) 0.40062(10)
Pb1A_4 Pb 0.02076(16) -0.254812(9) 0.40062(10)
loop_
_geom_bond_atom_site_label_1
_geom_bond_atom_site_label_2
_geom_bond_site_symmetry_1
_geom_bond_site_symmetry_2
C1 C2 1_555 1_555
C2 C3 1_555 1_555
C3 H1 1_555 1_555
C4 C3 1_555 1_555
H2 C4 1_555 1_555
C5 C4 1_555 1_555
C6 C5 1_555 1_555
H3 C6 1_555 1_555
C7 C5 1_555 1_555
C8 C9 1_555 1_555
C9 C10 1_555 1_555
C10 H4 1_555 1_555
C11 C10 1_555 1_555
H5 C11 1_555 1_555
C12 C11 1_555 1_555
C13 C12 1_555 1_555
H6 C13 1_555 1_555
C14 C12 1_555 1_555
Cu1 N1 1_555 1_555
N1 C2 1_555 1_555
N2 C9 1_555 1_555
O1 C1 1_555 1_555
O2 C1 1_555 1_555
O3 C7 1_555 1_555
O4 C7 1_555 1_555
O5 C8 1_555 1_555
O6 C8 1_555 1_555
O7 C14 1_555 1_555
O8 C14 1_555 1_555
Pb1 O2 1_555 1_555
O3A Pb1 1_555 1_555
O4A Pb1 1_555 1_555
O6_2 Pb1 1_555 1_555
O7A Pb1 1_555 1_555
O8A Pb1 1_555 1_555
Pb1A O3 1_555 1_555
Pb1A_2 O4 1_555 1_555
Pb1_2 O6 1_555 1_555
Pb1A_3 O7 1_555 1_555
Pb1A_4 O8 1_555 1_555
C6 N1 1_555 1_555
C13 N2 1_555 1_555
Cu1 N2 1_555 1_555
Cu1 O1 1_555 1_555
Cu1 O5 1_555 1_555

#END
