
#######################################################################
#
#                 Cambridge Crystallographic Data Centre
#                                CCDC 
#
#######################################################################
#
# If this CIF has been generated from an entry in the Cambridge 
# Structural Database, then it will include bibliographic, chemical, 
# crystal, experimental, refinement or atomic coordinate data resulting 
# from the CCDC's data processing and validation procedures.
#
#######################################################################

data_CEYDIU
_symmetry_cell_setting           triclinic
_symmetry_space_group_name_H-M   'P -1'
_symmetry_Int_Tables_number      2
_space_group_name_Hall           '-P 1'
loop_
_symmetry_equiv_pos_site_id
_symmetry_equiv_pos_as_xyz
1 x,y,z
2 -x,-y,-z
_cell_length_a                   9.2306(16)
_cell_length_b                   10.6540(18)
_cell_length_c                   10.8611(18)
_cell_angle_alpha                61.450(2)
_cell_angle_beta                 73.159(2)
_cell_angle_gamma                70.602(2)
_cell_volume                     873.841
loop_
_atom_site_label
_atom_site_type_symbol
_atom_site_fract_x
_atom_site_fract_y
_atom_site_fract_z
Zn1 Zn 0.0000 0.0000 0.0000
F1 F 0.25600(17) 0.19502(17) 0.56630(13)
F2 F 0.69663(17) 0.3766(2) 0.44733(19)
O1 O 0.22802(16) 0.36940(15) 0.12817(13)
H1 H 0.3060 0.3236 0.0947
O2 O 0.24290(15) -0.00425(15) -0.09200(14)
H2 H 0.3136 -0.0774 -0.0513
H3 H 0.2670 0.0787 -0.1380
N1 N 0.01253(18) 0.07337(17) 0.14827(17)
N2 N -0.0497(2) 0.1381(2) 0.3287(2)
N3 N 0.10572(18) 0.11807(16) 0.28102(16)
N4 N 0.06771(18) 0.54482(17) 0.27754(16)
N5 N 0.1271(2) 0.58308(18) 0.35213(17)
N6 N 0.05982(18) 0.77732(16) 0.15105(17)
C1 C 0.1398(2) 0.0809(2) 0.1747(2)
H4 H 0.2393 0.0624 0.1253
C2 C -0.0991(2) 0.1096(2) 0.2455(2)
H5 H -0.2034 0.1140 0.2528
C3 C 0.2127(2) 0.1419(2) 0.3393(2)
H6 H 0.3165 0.0859 0.3203
H7 H 0.1823 0.1055 0.4414
C4 C 0.2166(2) 0.30482(19) 0.27730(18)
C5 C 0.0627(2) 0.3926(2) 0.3267(2)
H8 H -0.0205 0.3900 0.2908
H9 H 0.0404 0.3475 0.4296
C6 C 0.0289(2) 0.6600(2) 0.1601(2)
H10 H -0.0141 0.6590 0.0931
C7 C 0.1202(2) 0.7227(2) 0.2715(2)
H11 H 0.1542 0.7804 0.2950
C8 C 0.3532(2) 0.3150(2) 0.32319(19)
C9 C 0.3651(2) 0.2645(2) 0.4633(2)
C10 C 0.4791(3) 0.2817(3) 0.5081(3)
H12 H 0.4834 0.2452 0.6040
C11 C 0.5856(3) 0.3545(3) 0.4056(3)
C12 C 0.5826(3) 0.4078(3) 0.2649(3)
H13 H 0.6573 0.4565 0.1971
C13 C 0.4653(2) 0.3877(2) 0.2252(2)
H14 H 0.4619 0.4243 0.1290
Zn1_2 Zn 0.0000 1.0000 0.0000
Zn1_3 Zn 0.0000 -1.0000 0.0000
F1A F -0.25600(17) -0.19502(17) -0.56630(13)
F2A F -0.69663(17) -0.3766(2) -0.44733(19)
O1A O -0.22802(16) -0.36940(15) -0.12817(13)
H1A H -0.3060 -0.3236 -0.0947
O2A O -0.24290(15) 0.00425(15) 0.09200(14)
H2A H -0.3136 0.0774 0.0513
H3A H -0.2670 -0.0787 0.1380
N1A N -0.01253(18) -0.07337(17) -0.14827(17)
N2A N 0.0497(2) -0.1381(2) -0.3287(2)
N3A N -0.10572(18) -0.11807(16) -0.28102(16)
N4A N -0.06771(18) -0.54482(17) -0.27754(16)
N5A N -0.1271(2) -0.58308(18) -0.35213(17)
N6A N -0.05982(18) -0.77732(16) -0.15105(17)
N6_2 N 0.05982(18) -0.22268(16) 0.15105(17)
N6A_2 N -0.05982(18) 0.22268(16) -0.15105(17)
C1A C -0.1398(2) -0.0809(2) -0.1747(2)
H4A H -0.2393 -0.0624 -0.1253
C2A C 0.0991(2) -0.1096(2) -0.2455(2)
H5A H 0.2034 -0.1140 -0.2528
C3A C -0.2127(2) -0.1419(2) -0.3393(2)
H6A H -0.3165 -0.0859 -0.3203
H7A H -0.1823 -0.1055 -0.4414
C4A C -0.2166(2) -0.30482(19) -0.27730(18)
C5A C -0.0627(2) -0.3926(2) -0.3267(2)
H8A H 0.0205 -0.3900 -0.2908
H9A H -0.0404 -0.3475 -0.4296
C6A C -0.0289(2) -0.6600(2) -0.1601(2)
H10A H 0.0141 -0.6590 -0.0931
C7A C -0.1202(2) -0.7227(2) -0.2715(2)
H11A H -0.1542 -0.7804 -0.2950
C8A C -0.3532(2) -0.3150(2) -0.32319(19)
C9A C -0.3651(2) -0.2645(2) -0.4633(2)
C10A C -0.4791(3) -0.2817(3) -0.5081(3)
H12A H -0.4834 -0.2452 -0.6040
C11A C -0.5856(3) -0.3545(3) -0.4056(3)
C12A C -0.5826(3) -0.4078(3) -0.2649(3)
H13A H -0.6573 -0.4565 -0.1971
C13A C -0.4653(2) -0.3877(2) -0.2252(2)
H14A H -0.4619 -0.4243 -0.1290
O3 O 0.67907(17) 0.73914(18) 0.12573(17)
O4 O 0.4499(2) 0.8685(2) 0.15454(18)
O5 O 0.51040(17) 0.77818(18) 0.00157(16)
N7 N 0.5465(2) 0.79426(19) 0.09571(18)
loop_
_geom_bond_atom_site_label_1
_geom_bond_atom_site_label_2
_geom_bond_site_symmetry_1
_geom_bond_site_symmetry_2
Zn1 O2 1_555 1_555
F1 C9 1_555 1_555
F2 C11 1_555 1_555
O1 H1 1_555 1_555
O2 H2 1_555 1_555
H3 O2 1_555 1_555
O3 N7 1_555 1_555
O4 N7 1_555 1_555
O5 N7 1_555 1_555
N1 Zn1 1_555 1_555
N2 N3 1_555 1_555
N3 C1 1_555 1_555
N4 N5 1_555 1_555
N5 C7 1_555 1_555
N6 C6 1_555 1_555
C1 N1 1_555 1_555
H4 C1 1_555 1_555
C2 N1 1_555 1_555
H5 C2 1_555 1_555
C3 N3 1_555 1_555
H6 C3 1_555 1_555
H7 C3 1_555 1_555
C4 O1 1_555 1_555
C5 N4 1_555 1_555
H8 C5 1_555 1_555
H9 C5 1_555 1_555
C6 N4 1_555 1_555
H10 C6 1_555 1_555
C7 N6 1_555 1_555
H11 C7 1_555 1_555
C8 C4 1_555 1_555
C9 C8 1_555 1_555
C10 C9 1_555 1_555
H12 C10 1_555 1_555
C11 C10 1_555 1_555
C12 C11 1_555 1_555
H13 C12 1_555 1_555
C13 C8 1_555 1_555
H14 C13 1_555 1_555
Zn1_2 N6 1_555 1_555
Zn1_3 N6A 1_555 1_555
F1A C9A 1_555 1_555
F2A C11A 1_555 1_555
O1A H1A 1_555 1_555
O2A Zn1 1_555 1_555
H2A O2A 1_555 1_555
H3A O2A 1_555 1_555
N1A Zn1 1_555 1_555
N2A N3A 1_555 1_555
N3A C1A 1_555 1_555
N4A N5A 1_555 1_555
N5A C7A 1_555 1_555
N6A C6A 1_555 1_555
N6_2 Zn1 1_555 1_555
N6A_2 Zn1 1_555 1_555
C1A N1A 1_555 1_555
H4A C1A 1_555 1_555
C2A N1A 1_555 1_555
H5A C2A 1_555 1_555
C3A N3A 1_555 1_555
H6A C3A 1_555 1_555
H7A C3A 1_555 1_555
C4A O1A 1_555 1_555
C5A N4A 1_555 1_555
H8A C5A 1_555 1_555
H9A C5A 1_555 1_555
C6A N4A 1_555 1_555
H10A C6A 1_555 1_555
C7A N6A 1_555 1_555
H11A C7A 1_555 1_555
C8A C4A 1_555 1_555
C9A C8A 1_555 1_555
C10A C9A 1_555 1_555
H12A C10A 1_555 1_555
C11A C10A 1_555 1_555
C12A C11A 1_555 1_555
H13A C12A 1_555 1_555
C13A C8A 1_555 1_555
H14A C13A 1_555 1_555
N2 C2 1_555 1_555
C3 C4 1_555 1_555
C4 C5 1_555 1_555
C12 C13 1_555 1_555
N2A C2A 1_555 1_555
C3A C4A 1_555 1_555
C4A C5A 1_555 1_555
C12A C13A 1_555 1_555

#END
