
#######################################################################
#
#                 Cambridge Crystallographic Data Centre
#                                CCDC 
#
#######################################################################
#
# If this CIF has been generated from an entry in the Cambridge 
# Structural Database, then it will include bibliographic, chemical, 
# crystal, experimental, refinement or atomic coordinate data resulting 
# from the CCDC's data processing and validation procedures.
#
#######################################################################

data_CEYDUG
_symmetry_cell_setting           monoclinic
_symmetry_space_group_name_H-M   'C 2/c'
_symmetry_Int_Tables_number      15
_space_group_name_Hall           '-C 2yn'
loop_
_symmetry_equiv_pos_site_id
_symmetry_equiv_pos_as_xyz
1 x,y,z
2 1/2+x,1/2+y,z
3 -x,y,1/2-z
4 1/2-x,1/2+y,1/2-z
5 -x,-y,-z
6 1/2-x,1/2-y,-z
7 x,-y,1/2+z
8 1/2+x,1/2-y,1/2+z
_cell_length_a                   9.514(5)
_cell_length_b                   19.218(9)
_cell_length_c                   23.633(11)
_cell_angle_alpha                90
_cell_angle_beta                 91.612(8)
_cell_angle_gamma                90
_cell_volume                     4319.35
loop_
_atom_site_label
_atom_site_type_symbol
_atom_site_fract_x
_atom_site_fract_y
_atom_site_fract_z
Zn1 Zn 0.5000 0.0000 0.5000
F1 F 0.39577(19) 0.30728(13) 0.28363(7)
F2 F -0.05084(18) 0.23665(12) 0.33358(10)
O1 O 0.5362(2) 0.29416(10) 0.45616(8)
H1 H 0.5065 0.3288 0.4721
O2 O 0.3137(2) 0.03971(13) 0.53332(9)
H2 H 0.293(3) 0.037(2) 0.5680(4)
H3 H 0.252(2) 0.0579(18) 0.5111(9)
N1 N 0.5014(2) 0.08311(11) 0.43696(10)
N2 N 0.4575(3) 0.14041(13) 0.35553(10)
N3 N 0.5546(2) 0.17502(11) 0.38836(9)
N4 N 0.6977(2) 0.39284(11) 0.39587(9)
N5 N 0.8114(3) 0.37654(14) 0.36443(11)
N6 N 0.8761(2) 0.43671(11) 0.44225(9)
C1 C 0.4300(3) 0.08605(15) 0.38674(13)
H4 H 0.3660 0.0520 0.3752
C2 C 0.5773(3) 0.14062(13) 0.43601(12)
H5 H 0.6386 0.1549 0.4651
C3 C 0.6035(3) 0.24339(14) 0.37180(12)
H6 H 0.6001 0.2471 0.3309
H7 H 0.7004 0.2495 0.3847
C4 C 0.5120(3) 0.30076(13) 0.39720(11)
C5 C 0.5562(3) 0.37343(14) 0.37710(12)
H8 H 0.5505 0.3747 0.3361
H9 H 0.4904 0.4075 0.3910
C6 C 0.9147(3) 0.40404(15) 0.39443(13)
H10 H 1.0078 0.4013 0.3837
C7 C 0.7386(3) 0.42788(14) 0.44131(12)
H11 H 0.6789 0.4441 0.4689
C8 C 0.3567(3) 0.28853(13) 0.38031(11)
C9 C 0.3070(3) 0.29015(16) 0.32528(12)
C10 C 0.1713(3) 0.27352(17) 0.30829(14)
H12 H 0.1420 0.2752 0.2704
C11 C 0.0829(3) 0.25458(17) 0.34946(15)
C12 C 0.1216(3) 0.25370(18) 0.40491(16)
H13 H 0.0573 0.2420 0.4323
C13 C 0.2597(3) 0.27069(16) 0.42019(13)
H14 H 0.2873 0.2700 0.4582
Zn1A Zn 1.0000 0.5000 0.5000
Zn1A_2 Zn 0.0000 -0.5000 0.5000
F1D F 0.60423(19) -0.30728(13) 0.71637(7)
F2D F 1.05084(18) -0.23665(12) 0.66642(10)
O1D O 0.4638(2) -0.29416(10) 0.54384(8)
H1D H 0.4935 -0.3288 0.5279
O2D O 0.6863(2) -0.03971(13) 0.46668(9)
H2D H 0.707(3) -0.037(2) 0.4320(4)
H3D H 0.748(2) -0.0579(18) 0.4889(9)
N1D N 0.4986(2) -0.08311(11) 0.56304(10)
N2D N 0.5425(3) -0.14041(13) 0.64447(10)
N3D N 0.4454(2) -0.17502(11) 0.61164(9)
N4D N 0.3023(2) -0.39284(11) 0.60413(9)
N5D N 0.1886(3) -0.37654(14) 0.63557(11)
N6D N 0.1239(2) -0.43671(11) 0.55775(9)
N6A N 0.3761(2) -0.06329(11) 0.44225(9)
N6E N 0.6239(2) 0.06329(11) 0.55775(9)
C1D C 0.5700(3) -0.08605(15) 0.61326(13)
H4D H 0.6340 -0.0520 0.6248
C2D C 0.4227(3) -0.14062(13) 0.56399(12)
H5D H 0.3614 -0.1549 0.5349
C3D C 0.3965(3) -0.24339(14) 0.62820(12)
H6D H 0.3999 -0.2471 0.6691
H7D H 0.2996 -0.2495 0.6153
C4D C 0.4880(3) -0.30076(13) 0.60280(11)
C5D C 0.4438(3) -0.37343(14) 0.62290(12)
H8D H 0.4495 -0.3747 0.6639
H9D H 0.5096 -0.4075 0.6090
C6D C 0.0853(3) -0.40404(15) 0.60557(13)
H10D H -0.0078 -0.4013 0.6163
C7D C 0.2614(3) -0.42788(14) 0.55869(12)
H11D H 0.3211 -0.4441 0.5311
C8D C 0.6433(3) -0.28853(13) 0.61969(11)
C9D C 0.6930(3) -0.29015(16) 0.67472(12)
C10D C 0.8287(3) -0.27352(17) 0.69171(14)
H12D H 0.8580 -0.2752 0.7296
C11D C 0.9171(3) -0.25458(17) 0.65054(15)
C12D C 0.8784(3) -0.25370(18) 0.59509(16)
H13D H 0.9427 -0.2420 0.5677
C13D C 0.7403(3) -0.27069(16) 0.57981(13)
H14D H 0.7127 -0.2700 0.5418
O3 O 0.0782(3) 0.09677(16) 0.48591(10)
O4 O -0.0973(2) 0.11839(15) 0.43119(11)
O5 O 0.0717(3) 0.05465(16) 0.40170(12)
N7 N 0.0168(3) 0.08892(14) 0.43840(11)
O6 O 0.2637(3) 1.03649(15) 0.64446(10)
N8 N 0.2386(4) 0.96501(17) 0.71891(13)
C14 C 0.2573(16) 1.0186(4) 0.7586(3)
H15 H 0.3560 1.0261 0.7658
H16 H 0.2135 1.0059 0.7933
H17 H 0.2153 1.0606 0.7441
C15 C 0.2157(6) 0.8958(3) 0.7412(2)
H18 H 0.1771 0.8665 0.7118
H19 H 0.1512 0.8983 0.7717
H20 H 0.3035 0.8769 0.7549
C16 C 0.2403(4) 0.9803(2) 0.66603(15)
H21 H 0.2213 0.9438 0.6411
loop_
_geom_bond_atom_site_label_1
_geom_bond_atom_site_label_2
_geom_bond_site_symmetry_1
_geom_bond_site_symmetry_2
Zn1 O2 1_555 1_555
F1 C9 1_555 1_555
F2 C11 1_555 1_555
O1 H1 1_555 1_555
O2 H2 1_555 1_555
H3 O2 1_555 1_555
O3 N7 1_555 1_555
O4 N7 1_555 1_555
O5 N7 1_555 1_555
O6 C16 1_555 1_555
N1 Zn1 1_555 1_555
N2 N3 1_555 1_555
N3 C2 1_555 1_555
N4 N5 1_555 1_555
N5 C6 1_555 1_555
N6 C6 1_555 1_555
N8 C14 1_555 1_555
C1 N1 1_555 1_555
H4 C1 1_555 1_555
C2 N1 1_555 1_555
H5 C2 1_555 1_555
C3 N3 1_555 1_555
H6 C3 1_555 1_555
H7 C3 1_555 1_555
C4 O1 1_555 1_555
C5 N4 1_555 1_555
H8 C5 1_555 1_555
H9 C5 1_555 1_555
C6 H10 1_555 1_555
C7 N4 1_555 1_555
H11 C7 1_555 1_555
C8 C4 1_555 1_555
C9 C8 1_555 1_555
C10 C9 1_555 1_555
H12 C10 1_555 1_555
C11 C10 1_555 1_555
C12 C11 1_555 1_555
H13 C12 1_555 1_555
C13 C8 1_555 1_555
H14 C13 1_555 1_555
C14 H15 1_555 1_555
H16 C14 1_555 1_555
H17 C14 1_555 1_555
C15 N8 1_555 1_555
H18 C15 1_555 1_555
H19 C15 1_555 1_555
H20 C15 1_555 1_555
C16 N8 1_555 1_555
H21 C16 1_555 1_555
Zn1A N6 1_555 1_555
Zn1A_2 N6D 1_555 1_555
F1D C9D 1_555 1_555
F2D C11D 1_555 1_555
O1D H1D 1_555 1_555
O2D Zn1 1_555 1_555
H2D O2D 1_555 1_555
H3D O2D 1_555 1_555
N1D Zn1 1_555 1_555
N2D N3D 1_555 1_555
N3D C2D 1_555 1_555
N4D N5D 1_555 1_555
N5D C6D 1_555 1_555
N6D C6D 1_555 1_555
N6A Zn1 1_555 1_555
N6E Zn1 1_555 1_555
C1D N1D 1_555 1_555
H4D C1D 1_555 1_555
C2D N1D 1_555 1_555
H5D C2D 1_555 1_555
C3D N3D 1_555 1_555
H6D C3D 1_555 1_555
H7D C3D 1_555 1_555
C4D O1D 1_555 1_555
C5D N4D 1_555 1_555
H8D C5D 1_555 1_555
H9D C5D 1_555 1_555
C6D H10D 1_555 1_555
C7D N4D 1_555 1_555
H11D C7D 1_555 1_555
C8D C4D 1_555 1_555
C9D C8D 1_555 1_555
C10D C9D 1_555 1_555
H12D C10D 1_555 1_555
C11D C10D 1_555 1_555
C12D C11D 1_555 1_555
H13D C12D 1_555 1_555
C13D C8D 1_555 1_555
H14D C13D 1_555 1_555
N2 C1 1_555 1_555
N6 C7 1_555 1_555
C3 C4 1_555 1_555
C4 C5 1_555 1_555
C12 C13 1_555 1_555
N2D C1D 1_555 1_555
N6D C7D 1_555 1_555
C3D C4D 1_555 1_555
C4D C5D 1_555 1_555
C12D C13D 1_555 1_555

#END
