
#######################################################################
#
#                 Cambridge Crystallographic Data Centre
#                                CCDC 
#
#######################################################################
#
# If this CIF has been generated from an entry in the Cambridge 
# Structural Database, then it will include bibliographic, chemical, 
# crystal, experimental, refinement or atomic coordinate data resulting 
# from the CCDC's data processing and validation procedures.
#
#######################################################################

data_CEYFAO
_symmetry_cell_setting           monoclinic
_symmetry_space_group_name_H-M   'P 21/c'
_symmetry_Int_Tables_number      14
_space_group_name_Hall           '-P 2ybc'
loop_
_symmetry_equiv_pos_site_id
_symmetry_equiv_pos_as_xyz
1 x,y,z
2 -x,1/2+y,1/2-z
3 -x,-y,-z
4 x,1/2-y,1/2+z
_cell_length_a                   10.141(2)
_cell_length_b                   13.969(3)
_cell_length_c                   15.308(3)
_cell_angle_alpha                90
_cell_angle_beta                 104.190(3)
_cell_angle_gamma                90
_cell_volume                     2102.36
loop_
_atom_site_label
_atom_site_type_symbol
_atom_site_fract_x
_atom_site_fract_y
_atom_site_fract_z
Zn1 Zn 0.44333(3) 0.70660(3) 0.12554(2)
S1 S 0.34589(13) 0.89933(7) -0.13290(7)
S2 S 0.68675(10) 0.42316(6) 0.11803(7)
F1 F 0.7371(2) 0.69134(15) 0.55962(15)
F2 F 0.8780(4) 0.45460(18) 0.3879(2)
O1 O 0.9283(2) 0.90244(15) 0.43524(14)
H1 H 0.8986 0.8987 0.3805
N1 N 0.5390(2) 0.79405(17) 0.22599(15)
N2 N 0.6443(3) 0.92465(19) 0.29216(18)
N3 N 0.6409(2) 0.85600(16) 0.35376(15)
N4 N 1.0377(2) 0.83435(17) 0.61529(15)
N5 N 1.0613(3) 0.7582(2) 0.67203(17)
N6 N 1.2534(2) 0.80672(16) 0.64020(15)
N7 N 0.5478(3) 0.5912(2) 0.12860(18)
N8 N 0.4223(3) 0.7862(2) 0.01874(19)
C1 C 0.5771(3) 0.7800(2) 0.3134(2)
H2 H 0.5613 0.7244 0.3425
C2 C 0.5811(4) 0.8837(3) 0.2172(2)
H3 H 0.5664 0.9144 0.1617
C3 C 0.6984(3) 0.8725(2) 0.44920(19)
H4 H 0.6475 0.8358 0.4837
H5 H 0.6894 0.9397 0.4625
C4 C 0.8499(3) 0.8436(2) 0.47839(18)
C5 C 0.9003(3) 0.8692(2) 0.57803(19)
H6 H 0.8987 0.9382 0.5849
H7 H 0.8397 0.8416 0.6113
C6 C 1.1922(3) 0.7452(2) 0.6853(2)
H8 H 1.2392 0.6975 0.7227
C7 C 1.1525(3) 0.8609(2) 0.5973(2)
H9 H 1.1610 0.9112 0.5594
C8 C 0.8665(3) 0.7376(2) 0.45887(19)
C9 C 0.8044(3) 0.6665(2) 0.4961(2)
C10 C 0.8054(5) 0.5713(3) 0.4734(3)
H10 H 0.7606 0.5252 0.4993
C11 C 0.8751(6) 0.5484(3) 0.4114(3)
C12 C 0.9429(5) 0.6132(3) 0.3734(3)
H11 H 0.9914 0.5944 0.3320
C13 C 0.9380(4) 0.7080(3) 0.3978(2)
H12 H 0.9844 0.7533 0.3723
C14 C 0.6060(3) 0.5211(2) 0.1256(2)
C15 C 0.3888(3) 0.8344(2) -0.0436(2)
Zn1C Zn 1.44333(3) 0.79340(3) 0.62554(2)
N6C N 0.2534(2) 0.69328(16) 0.14020(15)
O2 O 0.9280(5) 0.9027(3) 0.2543(2)
H13 H 0.8901 0.9341 0.2072
H14 H 0.9677 0.9348 0.3004
loop_
_geom_bond_atom_site_label_1
_geom_bond_atom_site_label_2
_geom_bond_site_symmetry_1
_geom_bond_site_symmetry_2
Zn1 N1 1_555 1_555
S1 C15 1_555 1_555
S2 C14 1_555 1_555
F1 C9 1_555 1_555
F2 C11 1_555 1_555
O1 H1 1_555 1_555
N1 C1 1_555 1_555
N2 N3 1_555 1_555
N3 C1 1_555 1_555
N4 N5 1_555 1_555
N5 C6 1_555 1_555
N6 C6 1_555 1_555
N7 Zn1 1_555 1_555
N8 Zn1 1_555 1_555
C1 H2 1_555 1_555
C2 N1 1_555 1_555
H3 C2 1_555 1_555
C3 N3 1_555 1_555
H4 C3 1_555 1_555
H5 C3 1_555 1_555
C4 O1 1_555 1_555
C5 N4 1_555 1_555
H6 C5 1_555 1_555
H7 C5 1_555 1_555
C6 H8 1_555 1_555
C7 N4 1_555 1_555
H9 C7 1_555 1_555
C8 C4 1_555 1_555
C9 C8 1_555 1_555
C10 C9 1_555 1_555
H10 C10 1_555 1_555
C11 C10 1_555 1_555
C12 C11 1_555 1_555
H11 C12 1_555 1_555
C13 C8 1_555 1_555
H12 C13 1_555 1_555
C14 N7 1_555 1_555
C15 N8 1_555 1_555
O2 H13 1_555 1_555
H14 O2 1_555 1_555
Zn1C N6 1_555 1_555
N6C Zn1 1_555 1_555
N2 C2 1_555 1_555
N6 C7 1_555 1_555
C3 C4 1_555 1_555
C4 C5 1_555 1_555
C12 C13 1_555 1_555

#END
