
#######################################################################
#
#                 Cambridge Crystallographic Data Centre
#                                CCDC 
#
#######################################################################
#
# If this CIF has been generated from an entry in the Cambridge 
# Structural Database, then it will include bibliographic, chemical, 
# crystal, experimental, refinement or atomic coordinate data resulting 
# from the CCDC's data processing and validation procedures.
#
#######################################################################

data_CEYHAQ
_symmetry_cell_setting           orthorhombic
_symmetry_space_group_name_H-M   'P n m a'
_symmetry_Int_Tables_number      62
_space_group_name_Hall           '-P 2ac 2n'
loop_
_symmetry_equiv_pos_site_id
_symmetry_equiv_pos_as_xyz
1 x,y,z
2 1/2-x,-y,1/2+z
3 1/2+x,1/2-y,1/2-z
4 -x,1/2+y,-z
5 -x,-y,-z
6 1/2+x,y,1/2-z
7 1/2-x,1/2+y,1/2+z
8 x,1/2-y,z
_cell_length_a                   8.8465(1)
_cell_length_b                   25.0116(4)
_cell_length_c                   14.3698(3)
_cell_angle_alpha                90
_cell_angle_beta                 90
_cell_angle_gamma                90
_cell_volume                     3179.54
loop_
_atom_site_label
_atom_site_type_symbol
_atom_site_fract_x
_atom_site_fract_y
_atom_site_fract_z
Eu1 Eu 0.970(1) 0.555(1) 0.105(1)
O1 O 0.783(5) 0.493(2) 0.172(3)
O2 O 0.892(5) 0.471(1) 0.033(3)
O3 O 0.314(3) 0.424(3) -0.133(2)
O4 O 0.238(3) 0.445(3) 0.004(2)
O5 O 1.219(3) 0.606(1) 0.131(5)
O6 O 1.011(4) 0.652(1) 0.108(1)
O7 O 1.197(4) 0.509(1) 0.154(4)
O8 O 0.955(8) 0.541(3) 0.275(2)
C1 C 0.645(3) 0.427(1) 0.106(1)
C2 C 0.624(5) 0.423(4) -0.001(2)
C3 C 0.466(3) 0.402(1) -0.003(3)
C4 C 0.491(3) 0.354(2) 0.049(2)
C5 C 0.556(5) 0.338(3) 0.140(3)
C6 C 0.685(5) 0.369(1) 0.108(7)
C7 C 0.353(3) 0.435(2) -0.051(1)
C8 C 0.788(5) 0.458(1) 0.101(3)
C9 C 1.192(9) 0.701(1) 0.207(5)
C10 C 1.091(7) 0.750 0.177(5)
C11 C 1.17(9) 0.708(3) 0.312(7)
C12 C 1.272(1) 0.750 0.336(6)
C13 C 1.152(3) 0.654(1) 0.138(4)
Eu1D Eu 1.030(1) 0.445(1) -0.105(1)
Eu1D_2 Eu 0.030(1) 0.445(1) -0.105(1)
Eu1G Eu 0.970(1) 0.945(1) 0.105(1)
Eu1_2 Eu 1.970(1) 0.555(1) 0.105(1)
O1D O 1.217(5) 0.507(2) -0.172(3)
O2D O 1.108(5) 0.529(1) -0.033(3)
O3D O 1.686(3) 0.576(3) 0.133(2)
O3D_2 O 0.686(3) 0.576(3) 0.133(2)
O3_2 O 1.314(3) 0.424(3) -0.133(2)
O4D O 1.762(3) 0.555(3) -0.004(2)
O4D_2 O 0.762(3) 0.555(3) -0.004(2)
O4_2 O 1.238(3) 0.445(3) 0.004(2)
O5G O 1.219(3) 0.894(1) 0.131(5)
O5D O 0.781(3) 0.394(1) -0.131(5)
O6G O 1.011(4) 0.848(1) 0.108(1)
O6D O 0.989(4) 0.348(1) -0.108(1)
O7D O 0.803(4) 0.491(1) -0.154(4)
O8D O 1.045(8) 0.459(3) -0.275(2)
C1D C 1.355(3) 0.573(1) -0.106(1)
C2D C 1.376(5) 0.577(4) 0.001(2)
C3D C 1.534(3) 0.598(1) 0.003(3)
C4D C 1.509(3) 0.646(2) -0.049(2)
C5D C 1.444(5) 0.662(3) -0.140(3)
C6D C 1.315(5) 0.631(1) -0.108(7)
C7D C 1.647(3) 0.565(2) 0.051(1)
C8D C 1.212(5) 0.542(1) -0.101(3)
C9G C 1.192(9) 0.799(1) 0.207(5)
C11G C 1.17(9) 0.792(3) 0.312(7)
C13G C 1.152(3) 0.846(1) 0.138(4)
O9 O 0.762(1) 0.672(1) -0.153(2)
loop_
_geom_bond_atom_site_label_1
_geom_bond_atom_site_label_2
_geom_bond_site_symmetry_1
_geom_bond_site_symmetry_2
Eu1 O1 1_555 1_555
O1 C8 1_555 1_555
O2 Eu1 1_555 1_555
O3 C7 1_555 1_555
O4 C7 1_555 1_555
O5 Eu1 1_555 1_555
O6 Eu1 1_555 1_555
O7 Eu1 1_555 1_555
O8 Eu1 1_555 1_555
C1 C2 1_555 1_555
C2 C3 1_555 1_555
C3 C4 1_555 1_555
C4 C5 1_555 1_555
C5 C6 1_555 1_555
C6 C1 1_555 1_555
C7 C3 1_555 1_555
C8 O2 1_555 1_555
C9 C10 1_555 1_555
C10 C9G 1_555 1_555
C11 C9 1_555 1_555
C12 C11 1_555 1_555
C13 O5 1_555 1_555
Eu1D O2 1_555 1_555
Eu1D_2 O3 1_555 1_555
Eu1G O5G 1_555 1_555
Eu1_2 O3D 1_555 1_555
O1D Eu1D 1_555 1_555
O2D Eu1 1_555 1_555
O3D C7D 1_555 1_555
O3D_2 Eu1 1_555 1_555
O3_2 Eu1D 1_555 1_555
O4D Eu1_2 1_555 1_555
O4D_2 Eu1 1_555 1_555
O4_2 Eu1D 1_555 1_555
O5G C13G 1_555 1_555
O5D Eu1D 1_555 1_555
O6G Eu1G 1_555 1_555
O6D Eu1D 1_555 1_555
O7D Eu1D 1_555 1_555
O8D Eu1D 1_555 1_555
C1D C2D 1_555 1_555
C2D C3D 1_555 1_555
C3D C4D 1_555 1_555
C4D C5D 1_555 1_555
C5D C6D 1_555 1_555
C6D C1D 1_555 1_555
C7D O4D 1_555 1_555
C8D O1D 1_555 1_555
C9G C11G 1_555 1_555
C11G C12 1_555 1_555
C13G O6G 1_555 1_555
O4 Eu1D_2 1_555 1_555
O6 C13 1_555 1_555
C1 C8 1_555 1_555
C9 C13 1_555 1_555
Eu1D O2D 1_555 1_555
O2D C8D 1_555 1_555
C1D C8D 1_555 1_555
C3D C7D 1_555 1_555
C9G C13G 1_555 1_555

#END
