
#######################################################################
#
#                 Cambridge Crystallographic Data Centre
#                                CCDC 
#
#######################################################################
#
# If this CIF has been generated from an entry in the Cambridge 
# Structural Database, then it will include bibliographic, chemical, 
# crystal, experimental, refinement or atomic coordinate data resulting 
# from the CCDC's data processing and validation procedures.
#
#######################################################################

data_CEYKEY
_symmetry_cell_setting           monoclinic
_symmetry_space_group_name_H-M   'C 2/c'
_symmetry_Int_Tables_number      15
_space_group_name_Hall           '-C 2yn'
loop_
_symmetry_equiv_pos_site_id
_symmetry_equiv_pos_as_xyz
1 x,y,z
2 -x,y,1/2-z
3 1/2+x,1/2+y,z
4 1/2-x,1/2+y,1/2-z
5 -x,-y,-z
6 x,-y,1/2+z
7 1/2-x,1/2-y,-z
8 1/2+x,1/2-y,1/2+z
_cell_length_a                   20.3296(18)
_cell_length_b                   10.0183(9)
_cell_length_c                   20.7795(19)
_cell_angle_alpha                90
_cell_angle_beta                 103.9250(10)
_cell_angle_gamma                90
_cell_volume                     4107.74
loop_
_atom_site_label
_atom_site_type_symbol
_atom_site_fract_x
_atom_site_fract_y
_atom_site_fract_z
C1 C 0.1262(2) 0.8426(4) 0.2327(2)
C2 C 0.08128(19) 0.7250(4) 0.20726(19)
C3 C 0.01666(19) 0.7456(4) 0.1658(2)
H1 H 0.0016 0.8318 0.1538
C4 C -0.02455(19) 0.6373(4) 0.1429(2)
C5 C -0.00229(19) 0.5085(4) 0.1614(2)
H2 H -0.0303 0.4361 0.1460
C6 C 0.06148(19) 0.4873(4) 0.2025(2)
C7 C 0.10308(19) 0.5965(4) 0.2259(2)
H3 H 0.1456 0.5829 0.2542
C8 C 0.0847(2) 0.3480(4) 0.2235(2)
C9 C -0.1157(2) 0.7794(4) 0.0859(2)
H4 H -0.0866 0.8291 0.0637
H5 H -0.1183 0.8272 0.1258
C10 C -0.1849(2) 0.7643(4) 0.0411(2)
C11 C -0.1950(2) 0.7596(4) -0.0270(2)
H6 H -0.1579 0.7667 -0.0457
C12 C -0.2409(2) 0.7557(4) 0.0680(2)
H7 H -0.2353 0.7602 0.1137
C13 C 0.1945(2) 1.1102(4) 0.4202(2)
H8 H 0.1529 1.1285 0.4295
C14 C 0.2684(2) 1.0681(5) 0.3669(2)
H9 H 0.2898 1.0508 0.3330
C15 C 0.3720(2) 1.0612(6) 0.4617(3)
H10 H 0.3934 1.0084 0.4333
H11 H 0.3782 1.0148 0.5037
C16 C 0.4067(2) 1.1953(5) 0.4737(2)
C17 C 0.3813(2) 1.3096(5) 0.4398(3)
H12 H 0.3392 1.3074 0.4099
C18 C 0.4175(2) 1.4269(5) 0.4497(3)
H13 H 0.3994 1.5020 0.4255
C19 C 0.4804(2) 1.4370(5) 0.4951(2)
C20 C 0.5043(2) 1.3206(6) 0.5304(3)
H14 H 0.5455 1.3226 0.5619
C21 C 0.4680(2) 1.2034(6) 0.5192(3)
H15 H 0.4854 1.1277 0.5432
N1 N 0.20357(18) 1.0922(3) 0.35809(19)
N2 N 0.2523(2) 1.0984(4) 0.4661(2)
N3 N 0.29940(18) 1.0719(4) 0.4310(2)
O1 O 0.18654(15) 0.8262(3) 0.25932(17)
O2 O 0.09578(14) 0.9550(3) 0.22454(16)
O3 O 0.13204(15) 0.3301(3) 0.27385(17)
O4 O 0.05586(15) 0.2514(3) 0.19014(18)
O5 O -0.08877(14) 0.6470(3) 0.10243(16)
O6 O 0.21039(16) 1.1417(3) 0.21366(18)
O7 O 0.05564(18) 1.0978(4) 0.3254(2)
Zn1 Zn 0.13511(2) 1.12036(4) 0.26855(3)
C1F C -0.6262(2) 0.6574(4) -0.2327(2)
C2F C -0.58128(19) 0.7750(4) -0.20726(19)
C3F C -0.51666(19) 0.7544(4) -0.1658(2)
H1F H -0.5016 0.6682 -0.1538
C4F C -0.47545(19) 0.8627(4) -0.1429(2)
C5F C -0.49771(19) 0.9915(4) -0.1614(2)
H2F H -0.4697 1.0639 -0.1460
C6F C -0.56148(19) 1.0127(4) -0.2025(2)
C7F C -0.60308(19) 0.9035(4) -0.2259(2)
H3F H -0.6456 0.9171 -0.2542
C8F C -0.5847(2) 1.1520(4) -0.2235(2)
C9F C -0.3843(2) 0.7206(4) -0.0859(2)
H4F H -0.4134 0.6709 -0.0637
H5F H -0.3817 0.6728 -0.1258
C10F C -0.3151(2) 0.7357(4) -0.0411(2)
C11F C -0.3050(2) 0.7404(4) 0.0270(2)
H6F H -0.3421 0.7333 0.0457
C12F C -0.2591(2) 0.7443(4) -0.0680(2)
H7F H -0.2647 0.7398 -0.1137
O1F O -0.68654(15) 0.6738(3) -0.25932(17)
O2F O -0.59578(14) 0.5450(3) -0.22454(16)
O3F O -0.63204(15) 1.1699(3) -0.27385(17)
O4F O -0.55586(15) 1.2486(3) -0.19014(18)
O5F O -0.41123(14) 0.8530(3) -0.10243(16)
C13D C 0.8055(2) 1.8898(4) 0.5798(2)
H8D H 0.8471 1.8715 0.5705
C14D C 0.7316(2) 1.9319(5) 0.6331(2)
H9D H 0.7102 1.9492 0.6670
C15D C 0.6280(2) 1.9388(6) 0.5383(3)
H10D H 0.6066 1.9916 0.5667
H11D H 0.6218 1.9852 0.4963
C16D C 0.5933(2) 1.8047(5) 0.5263(2)
C17D C 0.6187(2) 1.6904(5) 0.5602(3)
H12D H 0.6608 1.6926 0.5901
C18D C 0.5825(2) 1.5731(5) 0.5503(3)
H13D H 0.6006 1.4980 0.5745
C19D C 0.5196(2) 1.5630(5) 0.5049(2)
C20D C 0.4957(2) 1.6794(6) 0.4696(3)
H14D H 0.4545 1.6774 0.4381
C21D C 0.5320(2) 1.7966(6) 0.4808(3)
H15D H 0.5146 1.8723 0.4568
N1D N 0.79643(18) 1.9078(3) 0.64191(19)
N2D N 0.7477(2) 1.9016(4) 0.5339(2)
N3D N 0.70060(18) 1.9281(4) 0.5690(2)
O6D O 0.78961(16) 1.8583(3) 0.78634(18)
O7D O 0.94436(18) 1.9022(4) 0.6746(2)
Zn1D Zn 0.86489(2) 1.87964(4) 0.73145(3)
O2D O 0.90422(14) 2.0450(3) 0.77546(16)
O3_2 O 0.13204(15) 1.3301(3) 0.27385(17)
O3D O 0.86796(15) 1.6699(3) 0.72615(17)
O4_2 O 0.05586(15) 1.2514(3) 0.19014(18)
O4D O 0.94414(15) 1.7486(3) 0.80986(18)
Zn1_2 Zn 0.13511(2) 0.12036(4) 0.26855(3)
Zn1F Zn -0.63511(2) 0.37964(4) -0.26855(3)
Zn1F_2 Zn -0.63511(2) 1.37964(4) -0.26855(3)
O8 O 0.2641(2) 0.9576(4) 0.1369(2)
loop_
_geom_bond_atom_site_label_1
_geom_bond_atom_site_label_2
_geom_bond_site_symmetry_1
_geom_bond_site_symmetry_2
C1 C2 1_555 1_555
C2 C3 1_555 1_555
C3 H1 1_555 1_555
C4 C3 1_555 1_555
C5 C4 1_555 1_555
H2 C5 1_555 1_555
C6 C5 1_555 1_555
C7 C2 1_555 1_555
H3 C7 1_555 1_555
C8 C6 1_555 1_555
C9 H4 1_555 1_555
H5 C9 1_555 1_555
C10 C9 1_555 1_555
C11 C10 1_555 1_555
H6 C11 1_555 1_555
C12 C10 1_555 1_555
H7 C12 1_555 1_555
C13 H8 1_555 1_555
C14 H9 1_555 1_555
C15 H10 1_555 1_555
H11 C15 1_555 1_555
C16 C15 1_555 1_555
C17 C16 1_555 1_555
H12 C17 1_555 1_555
C18 C17 1_555 1_555
H13 C18 1_555 1_555
C19 C18 1_555 1_555
C20 C19 1_555 1_555
H14 C20 1_555 1_555
C21 C16 1_555 1_555
H15 C21 1_555 1_555
N1 C13 1_555 1_555
N2 C13 1_555 1_555
N3 C14 1_555 1_555
O1 C1 1_555 1_555
O2 C1 1_555 1_555
O3 C8 1_555 1_555
O4 C8 1_555 1_555
O5 C4 1_555 1_555
O6 Zn1 1_555 1_555
O7 Zn1 1_555 1_555
Zn1 N1 1_555 1_555
C1F C2F 1_555 1_555
C2F C3F 1_555 1_555
C3F H1F 1_555 1_555
C4F C3F 1_555 1_555
C5F C4F 1_555 1_555
H2F C5F 1_555 1_555
C6F C5F 1_555 1_555
C7F C2F 1_555 1_555
H3F C7F 1_555 1_555
C8F C6F 1_555 1_555
C9F H4F 1_555 1_555
H5F C9F 1_555 1_555
C10F C9F 1_555 1_555
C11F C12 1_555 1_555
H6F C11F 1_555 1_555
C12F C11 1_555 1_555
H7F C12F 1_555 1_555
O1F C1F 1_555 1_555
O2F C1F 1_555 1_555
O3F C8F 1_555 1_555
O4F C8F 1_555 1_555
O5F C4F 1_555 1_555
C13D H8D 1_555 1_555
C14D H9D 1_555 1_555
C15D H10D 1_555 1_555
H11D C15D 1_555 1_555
C16D C15D 1_555 1_555
C17D C16D 1_555 1_555
H12D C17D 1_555 1_555
C18D C17D 1_555 1_555
H13D C18D 1_555 1_555
C19D C19 1_555 1_555
C20D C19D 1_555 1_555
H14D C20D 1_555 1_555
C21D C16D 1_555 1_555
H15D C21D 1_555 1_555
N1D C13D 1_555 1_555
N2D C13D 1_555 1_555
N3D C14D 1_555 1_555
O6D Zn1D 1_555 1_555
O7D Zn1D 1_555 1_555
Zn1D N1D 1_555 1_555
O2D Zn1D 1_555 1_555
O3_2 Zn1 1_555 1_555
O3D Zn1D 1_555 1_555
O4_2 Zn1 1_555 1_555
O4D Zn1D 1_555 1_555
Zn1_2 O3 1_555 1_555
Zn1F O2F 1_555 1_555
Zn1F_2 O3F 1_555 1_555
C6 C7 1_555 1_555
C9 O5 1_555 1_555
C14 N1 1_555 1_555
C15 N3 1_555 1_555
C20 C21 1_555 1_555
N2 N3 1_555 1_555
O2 Zn1 1_555 1_555
O4 Zn1_2 1_555 1_555
C6F C7F 1_555 1_555
C9F O5F 1_555 1_555
C10F C11F 1_555 1_555
C10F C12F 1_555 1_555
O4F Zn1F_2 1_555 1_555
C14D N1D 1_555 1_555
C15D N3D 1_555 1_555
C18D C19D 1_555 1_555
C20D C21D 1_555 1_555
N2D N3D 1_555 1_555

#END
