
#######################################################################
#
#                 Cambridge Crystallographic Data Centre
#                                CCDC 
#
#######################################################################
#
# If this CIF has been generated from an entry in the Cambridge 
# Structural Database, then it will include bibliographic, chemical, 
# crystal, experimental, refinement or atomic coordinate data resulting 
# from the CCDC's data processing and validation procedures.
#
#######################################################################

data_CEYKAU
_symmetry_cell_setting           triclinic
_symmetry_space_group_name_H-M   'P -1'
_symmetry_Int_Tables_number      2
_space_group_name_Hall           '-P 1'
loop_
_symmetry_equiv_pos_site_id
_symmetry_equiv_pos_as_xyz
1 x,y,z
2 -x,-y,-z
_cell_length_a                   10.1203(19)
_cell_length_b                   12.479(2)
_cell_length_c                   12.856(2)
_cell_angle_alpha                114.531(2)
_cell_angle_beta                 100.790(2)
_cell_angle_gamma                92.305(2)
_cell_volume                     1438.24
loop_
_atom_site_label
_atom_site_type_symbol
_atom_site_fract_x
_atom_site_fract_y
_atom_site_fract_z
C1 C 0.2588(6) 0.6759(6) 0.1626(6)
C2 C 0.1272(6) 0.6119(6) 0.1572(5)
C3 C 0.0132(6) 0.6708(6) 0.1657(5)
H1 H 0.0183 0.7505 0.1747
C4 C -0.1079(6) 0.6112(6) 0.1607(5)
C5 C -0.2304(6) 0.6772(6) 0.1697(6)
C6 C -0.1175(6) 0.4953(5) 0.1463(6)
H2 H -0.2008 0.4562 0.1449
C7 C -0.0037(6) 0.4360(6) 0.1337(6)
C8 C 0.1183(6) 0.4944(6) 0.1398(5)
H3 H 0.1960 0.4541 0.1322
C9 C 0.0887(7) 0.2524(6) 0.0826(7)
H4 H 0.1661 0.2793 0.1513
H5 H 0.1192 0.2647 0.0191
C10 C 0.0392(7) 0.1217(6) 0.0416(7)
C11 C 1.6049(8) 1.2387(7) 0.0615(7)
H6 H 1.6460 1.1708 0.0213
C12 C 1.4931(7) 1.3826(6) 0.0925(6)
H7 H 1.4392 1.4404 0.0843
C13 C 1.5358(8) 1.4637(7) 0.3118(6)
H8 H 1.5214 1.5422 0.3131
H9 H 1.6218 1.4741 0.3685
C14 C 1.4214(7) 1.4204(7) 0.3492(6)
C15 C 1.3126(8) 1.4866(7) 0.3700(6)
H10 H 1.3147 1.5605 0.3651
C16 C 0.6662(8) 0.9575(7) 0.3596(7)
H11 H 0.7520 0.9303 0.3534
C17 C 0.4613(9) 0.9709(8) 0.3295(7)
H12 H 0.3666 0.9509 0.2963
C18 C 0.7472(8) 1.1578(8) 0.5341(7)
H13 H 0.7853 1.1306 0.5943
H14 H 0.6979 1.2256 0.5710
C19 C 0.8626(8) 1.1998(7) 0.4946(7)
C20 C 0.9929(8) 1.1930(7) 0.5441(7)
H15 H 1.0085 1.1570 0.5967
C21 C 1.0999(8) 1.2386(7) 0.5171(7)
H16 H 1.1898 1.2344 0.5521
C22 C 1.0797(8) 1.2917(7) 0.4383(6)
C23 C 0.9469(8) 1.2945(7) 0.3867(7)
H17 H 0.9298 1.3288 0.3326
C24 C 0.8398(8) 1.2472(7) 0.4145(7)
H18 H 0.7493 1.2475 0.3777
C25 C 1.1986(7) 1.3393(7) 0.4106(6)
C26 C 1.3079(8) 1.2757(7) 0.3925(6)
H19 H 1.3085 1.2043 0.4021
C27 C 1.4173(8) 1.3162(7) 0.3601(6)
H20 H 1.4901 1.2702 0.3453
C28 C 1.2013(8) 1.4440(7) 0.3979(6)
H21 H 1.1261 1.4875 0.4083
N1 N 1.5240(5) 1.2934(5) 0.0053(5)
N2 N 1.6201(7) 1.2891(7) 0.1760(6)
N3 N 1.5475(6) 1.3809(5) 0.1931(5)
N4 N 0.5533(6) 0.8958(5) 0.2912(5)
N5 N 0.5170(8) 1.0761(7) 0.4186(7)
N6 N 0.6509(6) 1.0609(5) 0.4380(5)
O1 O 0.3656(4) 0.6276(4) 0.1716(4)
O2 O 0.2616(5) 0.7744(4) 0.1593(5)
O3 O -0.2207(5) 0.7776(5) 0.1725(6)
O4 O -0.3406(4) 0.6259(4) 0.1715(5)
O5 O -0.0217(4) 0.3188(4) 0.1138(4)
Zn1 Zn 0.51615(7) 0.72848(7) 0.16280(7)
C29 C -0.0767(11) 0.0689(9) -0.0411(10)
H22 H -0.1313 0.1145 -0.0709
C30 C 0.1165(11) 0.0551(8) 0.0834(10)
H23 H 0.1980 0.0919 0.1414
C1A C -0.2588(6) -0.6759(6) -0.1626(6)
C2A C -0.1272(6) -0.6119(6) -0.1572(5)
C3A C -0.0132(6) -0.6708(6) -0.1657(5)
H1A H -0.0183 -0.7505 -0.1747
C4A C 0.1079(6) -0.6112(6) -0.1607(5)
C5A C 0.2304(6) -0.6772(6) -0.1697(6)
C6A C 0.1175(6) -0.4953(5) -0.1463(6)
H2A H 0.2008 -0.4562 -0.1449
C7A C 0.0037(6) -0.4360(6) -0.1337(6)
C8A C -0.1183(6) -0.4944(6) -0.1398(5)
H3A H -0.1960 -0.4541 -0.1322
C9A C -0.0887(7) -0.2524(6) -0.0826(7)
H4A H -0.1661 -0.2793 -0.1513
H5A H -0.1192 -0.2647 -0.0191
C10A C -0.0392(7) -0.1217(6) -0.0416(7)
O1A O -0.3656(4) -0.6276(4) -0.1716(4)
O2A O -0.2616(5) -0.7744(4) -0.1593(5)
O3A O 0.2207(5) -0.7776(5) -0.1725(6)
O4A O 0.3406(4) -0.6259(4) -0.1715(5)
O5A O 0.0217(4) -0.3188(4) -0.1138(4)
C29A C 0.0767(11) -0.0689(9) 0.0411(10)
H22A H 0.1313 -0.1145 0.0709
C30A C -0.1165(11) -0.0551(8) -0.0834(10)
H23A H -0.1980 -0.0919 -0.1414
C11A C -1.6049(8) -1.2387(7) -0.0615(7)
H6A H -1.6460 -1.1708 -0.0213
C12A C -1.4931(7) -1.3826(6) -0.0925(6)
H7A H -1.4392 -1.4404 -0.0843
C13A C -1.5358(8) -1.4637(7) -0.3118(6)
H8A H -1.5214 -1.5422 -0.3131
H9A H -1.6218 -1.4741 -0.3685
C14A C -1.4214(7) -1.4204(7) -0.3492(6)
C15A C -1.3126(8) -1.4866(7) -0.3700(6)
H10A H -1.3147 -1.5605 -0.3651
C16A C -0.6662(8) -0.9575(7) -0.3596(7)
H11A H -0.7520 -0.9303 -0.3534
C17A C -0.4613(9) -0.9709(8) -0.3295(7)
H12A H -0.3666 -0.9509 -0.2963
C18A C -0.7472(8) -1.1578(8) -0.5341(7)
H13A H -0.7853 -1.1306 -0.5943
H14A H -0.6979 -1.2256 -0.5710
C19A C -0.8626(8) -1.1998(7) -0.4946(7)
C20A C -0.9929(8) -1.1930(7) -0.5441(7)
H15A H -1.0085 -1.1570 -0.5967
C21A C -1.0999(8) -1.2386(7) -0.5171(7)
H16A H -1.1898 -1.2344 -0.5521
C22A C -1.0797(8) -1.2917(7) -0.4383(6)
C23A C -0.9469(8) -1.2945(7) -0.3867(7)
H17A H -0.9298 -1.3288 -0.3326
C24A C -0.8398(8) -1.2472(7) -0.4145(7)
H18A H -0.7493 -1.2475 -0.3777
C25A C -1.1986(7) -1.3393(7) -0.4106(6)
C26A C -1.3079(8) -1.2757(7) -0.3925(6)
H19A H -1.3085 -1.2043 -0.4021
C27A C -1.4173(8) -1.3162(7) -0.3601(6)
H20A H -1.4901 -1.2702 -0.3453
C28A C -1.2013(8) -1.4440(7) -0.3979(6)
H21A H -1.1261 -1.4875 -0.4083
N1A N -1.5240(5) -1.2934(5) -0.0053(5)
N2A N -1.6201(7) -1.2891(7) -0.1760(6)
N3A N -1.5475(6) -1.3809(5) -0.1931(5)
N4A N -0.5533(6) -0.8958(5) -0.2912(5)
N5A N -0.5170(8) -1.0761(7) -0.4186(7)
N6A N -0.6509(6) -1.0609(5) -0.4380(5)
Zn1A Zn -0.51615(7) -0.72848(7) -0.16280(7)
N1_2 N -0.4760(5) -0.7066(5) 0.0053(5)
N1A_2 N 0.4760(5) 0.7066(5) -0.0053(5)
O4_2 O 0.6594(4) 0.6259(4) 0.1715(5)
O4A_2 O -0.6594(4) -0.6259(4) -0.1715(5)
Zn1_2 Zn -1.48385(7) -1.27152(7) 0.16280(7)
Zn1_3 Zn -0.48385(7) 0.72848(7) 0.16280(7)
Zn1A_2 Zn 0.48385(7) -0.72848(7) -0.16280(7)
Zn1A_3 Zn 1.48385(7) 1.27152(7) -0.16280(7)
loop_
_geom_bond_atom_site_label_1
_geom_bond_atom_site_label_2
_geom_bond_site_symmetry_1
_geom_bond_site_symmetry_2
C1 C2 1_555 1_555
C2 C3 1_555 1_555
C3 H1 1_555 1_555
C4 C3 1_555 1_555
C5 C4 1_555 1_555
C6 C4 1_555 1_555
H2 C6 1_555 1_555
C7 C6 1_555 1_555
C8 C2 1_555 1_555
H3 C8 1_555 1_555
C9 H4 1_555 1_555
H5 C9 1_555 1_555
C10 C9 1_555 1_555
C11 H6 1_555 1_555
C12 H7 1_555 1_555
C13 H8 1_555 1_555
H9 C13 1_555 1_555
C14 C13 1_555 1_555
C15 C14 1_555 1_555
H10 C15 1_555 1_555
C16 H11 1_555 1_555
C17 H12 1_555 1_555
C18 H13 1_555 1_555
H14 C18 1_555 1_555
C19 C18 1_555 1_555
C20 C19 1_555 1_555
H15 C20 1_555 1_555
C21 C20 1_555 1_555
H16 C21 1_555 1_555
C22 C21 1_555 1_555
C23 C22 1_555 1_555
H17 C23 1_555 1_555
C24 C19 1_555 1_555
H18 C24 1_555 1_555
C25 C22 1_555 1_555
C26 C25 1_555 1_555
H19 C26 1_555 1_555
C27 C14 1_555 1_555
H20 C27 1_555 1_555
C28 C15 1_555 1_555
H21 C28 1_555 1_555
N1 C11 1_555 1_555
N2 C11 1_555 1_555
N3 C12 1_555 1_555
N4 C16 1_555 1_555
N5 C17 1_555 1_555
N6 C16 1_555 1_555
O1 C1 1_555 1_555
O2 C1 1_555 1_555
O3 C5 1_555 1_555
O4 C5 1_555 1_555
O5 C7 1_555 1_555
Zn1 N4 1_555 1_555
C29 C10 1_555 1_555
H22 C29 1_555 1_555
C30 C10 1_555 1_555
H23 C30 1_555 1_555
C1A C2A 1_555 1_555
C2A C3A 1_555 1_555
C3A H1A 1_555 1_555
C4A C3A 1_555 1_555
C5A C4A 1_555 1_555
C6A C4A 1_555 1_555
H2A C6A 1_555 1_555
C7A C6A 1_555 1_555
C8A C2A 1_555 1_555
H3A C8A 1_555 1_555
C9A H4A 1_555 1_555
H5A C9A 1_555 1_555
C10A C9A 1_555 1_555
O1A C1A 1_555 1_555
O2A C1A 1_555 1_555
O3A C5A 1_555 1_555
O4A C5A 1_555 1_555
O5A C7A 1_555 1_555
C29A C30 1_555 1_555
H22A C29A 1_555 1_555
C30A C29 1_555 1_555
H23A C30A 1_555 1_555
C11A H6A 1_555 1_555
C12A H7A 1_555 1_555
C13A H8A 1_555 1_555
H9A C13A 1_555 1_555
C14A C13A 1_555 1_555
C15A C14A 1_555 1_555
H10A C15A 1_555 1_555
C16A H11A 1_555 1_555
C17A H12A 1_555 1_555
C18A H13A 1_555 1_555
H14A C18A 1_555 1_555
C19A C18A 1_555 1_555
C20A C19A 1_555 1_555
H15A C20A 1_555 1_555
C21A C20A 1_555 1_555
H16A C21A 1_555 1_555
C22A C21A 1_555 1_555
C23A C22A 1_555 1_555
H17A C23A 1_555 1_555
C24A C19A 1_555 1_555
H18A C24A 1_555 1_555
C25A C22A 1_555 1_555
C26A C25A 1_555 1_555
H19A C26A 1_555 1_555
C27A C14A 1_555 1_555
H20A C27A 1_555 1_555
C28A C15A 1_555 1_555
H21A C28A 1_555 1_555
N1A C11A 1_555 1_555
N2A C11A 1_555 1_555
N3A C12A 1_555 1_555
N4A C16A 1_555 1_555
N5A C17A 1_555 1_555
N6A C16A 1_555 1_555
Zn1A O1A 1_555 1_555
N1_2 Zn1A 1_555 1_555
N1A_2 Zn1 1_555 1_555
O4_2 Zn1 1_555 1_555
O4A_2 Zn1A 1_555 1_555
Zn1_2 N1A 1_555 1_555
Zn1_3 O4 1_555 1_555
Zn1A_2 O4A 1_555 1_555
Zn1A_3 N1 1_555 1_555
C7 C8 1_555 1_555
C9 O5 1_555 1_555
C12 N1 1_555 1_555
C13 N3 1_555 1_555
C17 N4 1_555 1_555
C18 N6 1_555 1_555
C23 C24 1_555 1_555
C25 C28 1_555 1_555
C26 C27 1_555 1_555
N2 N3 1_555 1_555
N5 N6 1_555 1_555
O1 Zn1 1_555 1_555
C7A C8A 1_555 1_555
C9A O5A 1_555 1_555
C10A C29A 1_555 1_555
C10A C30A 1_555 1_555
C12A N1A 1_555 1_555
C13A N3A 1_555 1_555
C17A N4A 1_555 1_555
C18A N6A 1_555 1_555
C23A C24A 1_555 1_555
C25A C28A 1_555 1_555
C26A C27A 1_555 1_555
N2A N3A 1_555 1_555
N4A Zn1A 1_555 1_555
N5A N6A 1_555 1_555

#END
