
#######################################################################
#
#                 Cambridge Crystallographic Data Centre
#                                CCDC 
#
#######################################################################
#
# If this CIF has been generated from an entry in the Cambridge 
# Structural Database, then it will include bibliographic, chemical, 
# crystal, experimental, refinement or atomic coordinate data resulting 
# from the CCDC's data processing and validation procedures.
#
#######################################################################

data_CEYLEY
_symmetry_cell_setting           triclinic
_symmetry_space_group_name_H-M   'P -1'
_symmetry_Int_Tables_number      2
_space_group_name_Hall           '-P 1'
loop_
_symmetry_equiv_pos_site_id
_symmetry_equiv_pos_as_xyz
1 x,y,z
2 -x,-y,-z
_cell_length_a                   9.9120(6)
_cell_length_b                   11.8514(7)
_cell_length_c                   12.4042(8)
_cell_angle_alpha                116.0920(10)
_cell_angle_beta                 95.2160(10)
_cell_angle_gamma                97.5210(10)
_cell_volume                     1279.21
loop_
_atom_site_label
_atom_site_type_symbol
_atom_site_fract_x
_atom_site_fract_y
_atom_site_fract_z
H1 H 0.110(4) 0.043(3) -0.182(3)
Sn1 Sn 0.0000 0.0000 0.0000
Cu1 Cu 0.0000 0.5000 0.0000
O1 O -0.02649(15) 0.29639(12) -0.00198(12)
O2 O 0.01775(15) 0.20757(12) 0.12115(12)
O3 O 0.05341(16) 0.00639(14) -0.16642(13)
H2 H -0.0041 -0.0453 -0.2253
N1 N -0.10967(16) 0.53744(14) 0.13673(14)
N2 N -0.07525(17) 0.49931(14) 0.22218(14)
N3 N 0.16289(16) 0.50758(14) 0.21183(14)
N4 N 0.17008(16) 0.53791(15) 0.11880(15)
C1 C 0.2954(2) 0.60933(18) 0.1435(2)
H3 H 0.3291 0.6444 0.0951
C2 C 0.3690(2) 0.62423(19) 0.2520(2)
H4 H 0.4584 0.6692 0.2885
C3 C 0.2812(2) 0.55837(18) 0.29336(19)
H5 H 0.2997 0.5502 0.3642
C4 C 0.03750(19) 0.43095(16) 0.21398(16)
H6 H 0.0510 0.4163 0.2857
C5 C -0.1528(2) 0.53832(18) 0.31112(18)
H7 H -0.1472 0.5232 0.3788
C6 C -0.2415(2) 0.6046(2) 0.2824(2)
H8 H -0.3079 0.6433 0.3263
C7 C -0.2112(2) 0.60199(18) 0.17348(19)
H9 H -0.2555 0.6398 0.1324
C8 C 0.00502(19) 0.29959(16) 0.09782(16)
C9 C 0.2091(2) 0.0190(2) 0.07472(19)
H10 H 0.2187 0.0702 0.1622
H11 H 0.2226 -0.0657 0.0605
C10 C 0.3280(2) 0.0756(2) 0.0337(2)
H12 H 0.4137 0.0651 0.0695
H13 H 0.3193 0.0273 -0.0540
C11 C 0.3371(3) 0.2159(2) 0.0668(2)
H14 H 0.3304 0.2630 0.1522
H15 H 0.2598 0.2253 0.0195
C12 C 0.4730(3) 0.2735(3) 0.0429(3)
H16 H 0.5496 0.2690 0.0932
H17 H 0.4731 0.3612 0.0618
H18 H 0.4810 0.2260 -0.0412
H1A H -0.110(4) -0.043(3) 0.182(3)
Cu1_2 Cu 0.0000 -0.5000 0.0000
O1A O 0.02649(15) -0.29639(12) 0.00198(12)
O1A_2 O 0.02649(15) 0.70361(12) 0.00198(12)
O2A O -0.01775(15) -0.20757(12) -0.12115(12)
O3A O -0.05341(16) -0.00639(14) 0.16642(13)
H2A H 0.0041 0.0453 0.2253
N1A N 0.10967(16) -0.53744(14) -0.13673(14)
N1A_2 N 0.10967(16) 0.46256(14) -0.13673(14)
N2A N 0.07525(17) -0.49931(14) -0.22218(14)
N3A N -0.16289(16) -0.50758(14) -0.21183(14)
N4A N -0.17008(16) -0.53791(15) -0.11880(15)
N4A_2 N -0.17008(16) 0.46209(15) -0.11880(15)
C1A C -0.2954(2) -0.60933(18) -0.1435(2)
H3A H -0.3291 -0.6444 -0.0951
C2A C -0.3690(2) -0.62423(19) -0.2520(2)
H4A H -0.4584 -0.6692 -0.2885
C3A C -0.2812(2) -0.55837(18) -0.29336(19)
H5A H -0.2997 -0.5502 -0.3642
C4A C -0.03750(19) -0.43095(16) -0.21398(16)
H6A H -0.0510 -0.4163 -0.2857
C5A C 0.1528(2) -0.53832(18) -0.31112(18)
H7A H 0.1472 -0.5232 -0.3788
C6A C 0.2415(2) -0.6046(2) -0.2824(2)
H8A H 0.3079 -0.6433 -0.3263
C7A C 0.2112(2) -0.60199(18) -0.17348(19)
H9A H 0.2555 -0.6398 -0.1324
C8A C -0.00502(19) -0.29959(16) -0.09782(16)
C9A C -0.2091(2) -0.0190(2) -0.07472(19)
H10A H -0.2187 -0.0702 -0.1622
H11A H -0.2226 0.0657 -0.0605
C10A C -0.3280(2) -0.0756(2) -0.0337(2)
H12A H -0.4137 -0.0651 -0.0695
H13A H -0.3193 -0.0273 0.0540
C11A C -0.3371(3) -0.2159(2) -0.0668(2)
H14A H -0.3304 -0.2630 -0.1522
H15A H -0.2598 -0.2253 -0.0195
C12A C -0.4730(3) -0.2735(3) -0.0429(3)
H16A H -0.5496 -0.2690 -0.0932
H17A H -0.4731 -0.3612 -0.0618
H18A H -0.4810 -0.2260 0.0412
Cu2 Cu 0.5000 0.0000 0.5000
O4 O 0.75213(15) -0.12545(13) 0.21920(13)
O5 O 0.59800(15) -0.12782(13) 0.33836(13)
N5 N 0.52143(16) 0.12170(15) 0.42604(15)
N6 N 0.64360(16) 0.14484(15) 0.39055(14)
N7 N 0.79190(16) 0.09583(14) 0.51817(14)
N8 N 0.69729(16) 0.06803(15) 0.57995(14)
C13 C 0.6474(2) 0.23934(19) 0.35713(19)
H19 H 0.7201 0.2714 0.3298
C14 C 0.5229(2) 0.2790(2) 0.3715(2)
H20 H 0.4946 0.3430 0.3560
C15 C 0.4476(2) 0.20308(19) 0.41398(18)
H21 H 0.3587 0.2086 0.4314
C16 C 0.7664(2) 0.10303(18) 0.69026(17)
H22 H 0.7276 0.0951 0.7526
C17 C 0.9051(2) 0.15331(17) 0.69997(18)
H23 H 0.9741 0.1841 0.7675
C18 C 0.91763(19) 0.14760(17) 0.58860(17)
H24 H 0.9978 0.1744 0.5658
C19 C 0.74961(18) 0.07172(17) 0.39370(16)
H25 H 0.8295 0.0999 0.3645
C20 C 0.69416(19) -0.07449(17) 0.30912(17)
O4A O 0.24787(15) 0.12545(13) 0.78080(13)
O5A O 0.40200(15) 0.12782(13) 0.66164(13)
N5A N 0.47857(16) -0.12170(15) 0.57396(15)
N6A N 0.35640(16) -0.14484(15) 0.60945(14)
N7A N 0.20810(16) -0.09583(14) 0.48183(14)
N8A N 0.30271(16) -0.06803(15) 0.42005(14)
C13A C 0.3526(2) -0.23934(19) 0.64287(19)
H19A H 0.2799 -0.2714 0.6702
C14A C 0.4771(2) -0.2790(2) 0.6285(2)
H20A H 0.5054 -0.3430 0.6440
C15A C 0.5524(2) -0.20308(19) 0.58602(18)
H21A H 0.6413 -0.2086 0.5686
C16A C 0.2336(2) -0.10303(18) 0.30974(17)
H22A H 0.2724 -0.0951 0.2474
C17A C 0.0949(2) -0.15331(17) 0.30003(18)
H23A H 0.0259 -0.1841 0.2325
C18A C 0.08237(19) -0.14760(17) 0.41140(17)
H24A H 0.0022 -0.1744 0.4342
C19A C 0.25039(18) -0.07172(17) 0.60630(16)
H25A H 0.1705 -0.0999 0.6355
C20A C 0.30584(19) 0.07449(17) 0.69088(17)
O6 O -0.02336(14) 0.31365(14) 0.40393(13)
O7 O 0.19742(14) 0.36213(13) 0.41169(13)
O8 O 0.10457(15) 0.17159(13) 0.38255(13)
N9 N 0.09277(16) 0.28339(15) 0.39918(14)
loop_
_geom_bond_atom_site_label_1
_geom_bond_atom_site_label_2
_geom_bond_site_symmetry_1
_geom_bond_site_symmetry_2
H1 O3 1_555 1_555
Sn1 O2 1_555 1_555
Cu1 O1 1_555 1_555
Cu2 O5 1_555 1_555
O1 C8 1_555 1_555
O2 C8 1_555 1_555
O3 Sn1 1_555 1_555
H2 O3 1_555 1_555
O4 C20 1_555 1_555
O5 C20 1_555 1_555
O6 N9 1_555 1_555
O7 N9 1_555 1_555
O8 N9 1_555 1_555
N1 Cu1 1_555 1_555
N2 N1 1_555 1_555
N3 N4 1_555 1_555
N4 Cu1 1_555 1_555
N5 Cu2 1_555 1_555
N6 N5 1_555 1_555
N7 N8 1_555 1_555
N8 Cu2 1_555 1_555
C1 N4 1_555 1_555
H3 C1 1_555 1_555
C2 C1 1_555 1_555
H4 C2 1_555 1_555
C3 N3 1_555 1_555
H5 C3 1_555 1_555
C4 N2 1_555 1_555
H6 C4 1_555 1_555
C5 N2 1_555 1_555
H7 C5 1_555 1_555
C6 C5 1_555 1_555
H8 C6 1_555 1_555
C7 N1 1_555 1_555
H9 C7 1_555 1_555
C8 C4 1_555 1_555
C9 Sn1 1_555 1_555
H10 C9 1_555 1_555
H11 C9 1_555 1_555
C10 C9 1_555 1_555
H12 C10 1_555 1_555
H13 C10 1_555 1_555
C11 C10 1_555 1_555
H14 C11 1_555 1_555
H15 C11 1_555 1_555
C12 C11 1_555 1_555
H16 C12 1_555 1_555
H17 C12 1_555 1_555
H18 C12 1_555 1_555
C13 N6 1_555 1_555
H19 C13 1_555 1_555
C14 C13 1_555 1_555
H20 C14 1_555 1_555
C15 N5 1_555 1_555
H21 C15 1_555 1_555
C16 N8 1_555 1_555
H22 C16 1_555 1_555
C17 C16 1_555 1_555
H23 C17 1_555 1_555
C18 N7 1_555 1_555
H24 C18 1_555 1_555
C19 N6 1_555 1_555
H25 C19 1_555 1_555
C20 C19 1_555 1_555
H1A O3A 1_555 1_555
Cu1_2 O1A 1_555 1_555
O1A C8A 1_555 1_555
O1A_2 Cu1 1_555 1_555
O2A Sn1 1_555 1_555
O3A Sn1 1_555 1_555
H2A O3A 1_555 1_555
O4A C20A 1_555 1_555
O5A Cu2 1_555 1_555
N1A Cu1_2 1_555 1_555
N1A_2 Cu1 1_555 1_555
N2A N1A 1_555 1_555
N3A N4A 1_555 1_555
N4A Cu1_2 1_555 1_555
N4A_2 Cu1 1_555 1_555
N5A Cu2 1_555 1_555
N6A N5A 1_555 1_555
N7A N8A 1_555 1_555
N8A Cu2 1_555 1_555
C1A N4A 1_555 1_555
H3A C1A 1_555 1_555
C2A C1A 1_555 1_555
H4A C2A 1_555 1_555
C3A N3A 1_555 1_555
H5A C3A 1_555 1_555
C4A N2A 1_555 1_555
H6A C4A 1_555 1_555
C5A N2A 1_555 1_555
H7A C5A 1_555 1_555
C6A C5A 1_555 1_555
H8A C6A 1_555 1_555
C7A N1A 1_555 1_555
H9A C7A 1_555 1_555
C8A O2A 1_555 1_555
C9A Sn1 1_555 1_555
H10A C9A 1_555 1_555
H11A C9A 1_555 1_555
C10A C9A 1_555 1_555
H12A C10A 1_555 1_555
H13A C10A 1_555 1_555
C11A C10A 1_555 1_555
H14A C11A 1_555 1_555
H15A C11A 1_555 1_555
C12A C11A 1_555 1_555
H16A C12A 1_555 1_555
H17A C12A 1_555 1_555
H18A C12A 1_555 1_555
C13A N6A 1_555 1_555
H19A C13A 1_555 1_555
C14A C13A 1_555 1_555
H20A C14A 1_555 1_555
C15A N5A 1_555 1_555
H21A C15A 1_555 1_555
C16A N8A 1_555 1_555
H22A C16A 1_555 1_555
C17A C16A 1_555 1_555
H23A C17A 1_555 1_555
C18A N7A 1_555 1_555
H24A C18A 1_555 1_555
C19A N6A 1_555 1_555
H25A C19A 1_555 1_555
C20A O5A 1_555 1_555
N3 C4 1_555 1_555
N7 C19 1_555 1_555
C2 C3 1_555 1_555
C6 C7 1_555 1_555
C14 C15 1_555 1_555
C17 C18 1_555 1_555
N3A C4A 1_555 1_555
N7A C19A 1_555 1_555
C2A C3A 1_555 1_555
C4A C8A 1_555 1_555
C6A C7A 1_555 1_555
C14A C15A 1_555 1_555
C17A C18A 1_555 1_555
C19A C20A 1_555 1_555

#END
