
#######################################################################
#
#                 Cambridge Crystallographic Data Centre
#                                CCDC 
#
#######################################################################
#
# If this CIF has been generated from an entry in the Cambridge 
# Structural Database, then it will include bibliographic, chemical, 
# crystal, experimental, refinement or atomic coordinate data resulting 
# from the CCDC's data processing and validation procedures.
#
#######################################################################

data_CEYMIE
_symmetry_cell_setting           monoclinic
_symmetry_space_group_name_H-M   'C 2/c'
_symmetry_Int_Tables_number      15
_space_group_name_Hall           '-C 2yn'
loop_
_symmetry_equiv_pos_site_id
_symmetry_equiv_pos_as_xyz
1 x,y,z
2 -x,y,1/2-z
3 1/2+x,1/2+y,z
4 1/2-x,1/2+y,1/2-z
5 -x,-y,-z
6 x,-y,1/2+z
7 1/2-x,1/2-y,-z
8 1/2+x,1/2-y,1/2+z
_cell_length_a                   7.8622(8)
_cell_length_b                   17.8077(17)
_cell_length_c                   21.8192(19)
_cell_angle_alpha                90
_cell_angle_beta                 104.023(4)
_cell_angle_gamma                90
_cell_volume                     2963.82
loop_
_atom_site_label
_atom_site_type_symbol
_atom_site_fract_x
_atom_site_fract_y
_atom_site_fract_z
O1 O 0.5938(9) 0.6967(4) 0.1155(4)
O2 O 0.7182(9) 0.6027(4) 0.0776(4)
C1 C 0.7105(13) 0.6723(5) 0.0908(5)
U1 U 0.95559(5) 1.073574(19) 0.120124(19)
O3 O 0.6992(9) 1.0638(3) 0.1683(4)
O4 O 0.8182(8) 0.7975(3) 0.0924(3)
O5 O 0.8351(9) 0.9457(3) 0.1128(4)
O6 O 0.8118(9) 1.0944(3) 0.0474(3)
O7 O 0.8268(9) 1.1746(4) 0.1716(4)
O8 O 1.0729(9) 0.9595(3) 0.0780(4)
C2 C 0.9529(12) 0.8368(5) 0.0772(5)
C3 C 0.9522(13) 0.9183(5) 0.0905(6)
C4 C 0.7164(12) 1.1323(6) 0.1865(5)
C5 C 0.8405(12) 0.7239(5) 0.0766(5)
O9 O 0.5000 1.1181(5) 0.2500
C6 C 1.0519(13) 0.7906(5) 0.0519(5)
H1 H 1.1495 0.8036 0.0372
C7 C 0.5656(14) 1.2360(5) 0.2327(5)
H2 H 0.6183 1.2778 0.2196
C8 C 0.5981(13) 1.1646(6) 0.2227(5)
C9 C 0.9783(12) 0.7185(5) 0.0522(5)
H3 H 1.0195 0.6746 0.0377
O10 O 1.0992(10) 1.0528(4) 0.1924(4)
O3A O 0.3008(9) 1.0638(3) 0.3317(4)
O7A O 0.1732(9) 1.1746(4) 0.3284(4)
C4A C 0.2836(12) 1.1323(6) 0.3135(5)
C7A C 0.4344(14) 1.2360(5) 0.2673(5)
H2A H 0.3817 1.2778 0.2804
C8A C 0.4019(13) 1.1646(6) 0.2773(5)
O1A O 0.4062(9) 0.6967(4) 0.3845(4)
O2A O 0.2818(9) 0.6027(4) 0.4224(4)
C1A C 0.2895(13) 0.6723(5) 0.4092(5)
U1A U 0.04441(5) 1.073574(19) 0.379876(19)
O4A O 0.1818(8) 0.7975(3) 0.4076(3)
O5A O 0.1649(9) 0.9457(3) 0.3872(4)
O6A O 0.1882(9) 1.0944(3) 0.4526(3)
O8A O -0.0729(9) 0.9595(3) 0.4220(4)
C2A C 0.0471(12) 0.8368(5) 0.4228(5)
C3A C 0.0478(13) 0.9183(5) 0.4095(6)
C5A C 0.1595(12) 0.7239(5) 0.4234(5)
C6A C -0.0519(13) 0.7906(5) 0.4481(5)
H1A H -0.1495 0.8036 0.4628
C9A C 0.0217(12) 0.7185(5) 0.4478(5)
H3A H -0.0195 0.6746 0.4623
O10A O -0.0992(10) 1.0528(4) 0.3076(4)
O1B O 1.0938(9) 1.1967(4) 0.1155(4)
O1C O -0.0938(9) 1.1967(4) 0.3845(4)
O2B O 1.2182(9) 1.1027(4) 0.0776(4)
O2C O -0.2182(9) 1.1027(4) 0.4224(4)
U1B U 0.45559(5) 0.573574(19) 0.120124(19)
U1C U 0.54441(5) 0.573574(19) 0.379876(19)
N1 N 0.745(4) 0.4092(9) 0.2476(10)
O11 O 0.5023(19) 0.8378(9) 0.1576(10)
O12 O 0.4443(15) 0.9798(9) 0.0616(10)
loop_
_geom_bond_atom_site_label_1
_geom_bond_atom_site_label_2
_geom_bond_site_symmetry_1
_geom_bond_site_symmetry_2
O1 C1 1_555 1_555
O2 C1 1_555 1_555
C1 C5 1_555 1_555
U1 O3 1_555 1_555
O3 C4 1_555 1_555
O4 C2 1_555 1_555
O5 U1 1_555 1_555
O6 U1 1_555 1_555
O7 U1 1_555 1_555
O8 U1 1_555 1_555
C2 C3 1_555 1_555
C3 O5 1_555 1_555
C4 O7 1_555 1_555
C5 O4 1_555 1_555
O9 C8 1_555 1_555
C6 C2 1_555 1_555
H1 C6 1_555 1_555
C7 H2 1_555 1_555
C8 C4 1_555 1_555
C9 C5 1_555 1_555
H3 C9 1_555 1_555
O10 U1 1_555 1_555
O3A C4A 1_555 1_555
O7A C4A 1_555 1_555
C4A C8A 1_555 1_555
C7A C7 1_555 1_555
H2A C7A 1_555 1_555
C8A O9 1_555 1_555
O1A C1A 1_555 1_555
O2A C1A 1_555 1_555
C1A C5A 1_555 1_555
U1A O3A 1_555 1_555
O4A C2A 1_555 1_555
O5A U1A 1_555 1_555
O6A U1A 1_555 1_555
O8A U1A 1_555 1_555
C2A C3A 1_555 1_555
C3A O5A 1_555 1_555
C5A O4A 1_555 1_555
C6A C2A 1_555 1_555
H1A C6A 1_555 1_555
C9A C5A 1_555 1_555
H3A C9A 1_555 1_555
O10A U1A 1_555 1_555
O1B U1 1_555 1_555
O1C U1A 1_555 1_555
O2B U1 1_555 1_555
O2C U1A 1_555 1_555
U1B O1 1_555 1_555
U1C O1A 1_555 1_555
O2 U1B 1_555 1_555
O8 C3 1_555 1_555
C6 C9 1_555 1_555
C7 C8 1_555 1_555
O7A U1A 1_555 1_555
C7A C8A 1_555 1_555
O2A U1C 1_555 1_555
O8A C3A 1_555 1_555
C6A C9A 1_555 1_555

#END
