
#######################################################################
#
#                 Cambridge Crystallographic Data Centre
#                                CCDC 
#
#######################################################################
#
# If this CIF has been generated from an entry in the Cambridge 
# Structural Database, then it will include bibliographic, chemical, 
# crystal, experimental, refinement or atomic coordinate data resulting 
# from the CCDC's data processing and validation procedures.
#
#######################################################################

data_CEYQON
_symmetry_cell_setting           monoclinic
_symmetry_space_group_name_H-M   'P 21/n'
_symmetry_Int_Tables_number      14
_space_group_name_Hall           '-P 2yn'
loop_
_symmetry_equiv_pos_site_id
_symmetry_equiv_pos_as_xyz
1 x,y,z
2 1/2-x,1/2+y,1/2-z
3 -x,-y,-z
4 1/2+x,1/2-y,1/2+z
_cell_length_a                   14.742(2)
_cell_length_b                   18.965(3)
_cell_length_c                   15.157(4)
_cell_angle_alpha                90
_cell_angle_beta                 107.425(14)
_cell_angle_gamma                90
_cell_volume                     4043.16
loop_
_atom_site_label
_atom_site_type_symbol
_atom_site_fract_x
_atom_site_fract_y
_atom_site_fract_z
Ag1 Ag 1.39711(4) 0.15298(3) 0.27634(4)
Ag2 Ag 1.61823(4) 0.11523(3) 0.26076(5)
P1 P 1.48251(13) 0.25693(11) 0.25960(14)
P2 P 1.52831(13) 0.01028(11) 0.24042(14)
N1 N 1.6504(4) 0.2063(4) 0.3670(4)
N2 N 1.4100(4) 0.0439(3) 0.3389(4)
N3 N 1.5777(4) 0.2097(3) 0.1462(4)
N4 N 1.3679(5) -0.0453(4) 0.1191(6)
C1 C 1.5977(6) -0.0699(5) 0.2396(6)
C2 C 1.4212(6) 0.3391(4) 0.2625(6)
C3 C 1.3311(6) 0.3360(5) 0.2699(6)
H1 H 1.3025 0.2926 0.2720
C4 C 1.2825(9) 0.3978(8) 0.2744(8)
H2 H 1.2206 0.3958 0.2778
C5 C 1.3247(11) 0.4611(8) 0.2739(9)
H3 H 1.2927 0.5023 0.2794
C6 C 1.4132(10) 0.4645(6) 0.2654(8)
H4 H 1.4411 0.5083 0.2641
C7 C 1.4627(8) 0.4047(5) 0.2586(6)
H5 H 1.5231 0.4078 0.2516
C8 C 1.5943(5) 0.2636(4) 0.3564(5)
C9 C 1.6148(6) 0.3187(5) 0.4179(6)
H6 H 1.5746 0.3576 0.4088
C10 C 1.6950(6) 0.3161(5) 0.4927(6)
H7 H 1.7095 0.3527 0.5355
C11 C 1.7523(6) 0.2594(6) 0.5028(6)
H8 H 1.8076 0.2569 0.5524
C12 C 1.7290(6) 0.2053(5) 0.4397(6)
H9 H 1.7693 0.1665 0.4478
C13 C 1.4645(5) -0.0096(4) 0.3246(5)
C14 C 1.4731(5) -0.0716(4) 0.3725(6)
H10 H 1.5119 -0.1074 0.3624
C15 C 1.4239(6) -0.0809(5) 0.4360(6)
H11 H 1.4296 -0.1227 0.4694
C16 C 1.3666(6) -0.0278(5) 0.4493(6)
H12 H 1.3318 -0.0329 0.4909
C17 C 1.3620(5) 0.0328(5) 0.3997(6)
H13 H 1.3229 0.0688 0.4088
C18 C 1.1820(5) 0.1683(4) 0.2577(6)
C19 C 1.0750(5) 0.1735(4) 0.2142(5)
C20 C 1.0369(5) 0.2079(4) 0.1300(5)
H14 H 1.0769 0.2279 0.0998
C21 C 0.9394(5) 0.2121(4) 0.0913(5)
C22 C 0.8795(5) 0.1797(4) 0.1348(5)
H15 H 0.8141 0.1818 0.1077
C23 C 0.9165(5) 0.1444(4) 0.2183(5)
C24 C 1.0142(5) 0.1428(4) 0.2574(5)
H16 H 1.0398 0.1205 0.3141
C25 C 0.8975(5) 0.2536(4) 0.0043(5)
C26 C 0.8502(6) 0.1116(4) 0.2662(6)
C27 C 1.6074(5) 0.2087(5) 0.0714(6)
H17 H 1.6480 0.1727 0.0654
C28 C 1.5804(6) 0.2587(5) 0.0024(6)
H18 H 1.6029 0.2565 -0.0487
C29 C 1.5204(6) 0.3116(5) 0.0101(6)
H19 H 1.5001 0.3452 -0.0363
C30 C 1.4903(5) 0.3143(5) 0.0876(6)
H20 H 1.4500 0.3501 0.0948
C31 C 1.5209(5) 0.2626(4) 0.1551(5)
C32 C 1.4319(5) 0.0063(4) 0.1305(5)
C33 C 1.4284(6) 0.0555(5) 0.0628(6)
H21 H 1.4734 0.0914 0.0734
C34 C 1.3576(8) 0.0513(6) -0.0212(7)
H22 H 1.3541 0.0842 -0.0675
C35 C 1.2934(8) -0.0021(7) -0.0344(7)
H23 H 1.2456 -0.0067 -0.0903
C36 C 1.3004(7) -0.0487(6) 0.0356(7)
H24 H 1.2562 -0.0851 0.0257
C37 C 1.5579(6) -0.1317(4) 0.2003(6)
H25 H 1.4925 -0.1349 0.1726
C38 C 1.6142(7) -0.1881(5) 0.2018(7)
H26 H 1.5868 -0.2300 0.1744
C39 C 1.7102(7) -0.1856(6) 0.2425(7)
H27 H 1.7476 -0.2253 0.2440
C40 C 1.7503(7) -0.1238(6) 0.2809(8)
H28 H 1.8156 -0.1218 0.3095
C41 C 1.6961(6) -0.0644(5) 0.2781(6)
H29 H 1.7242 -0.0216 0.3012
O1 O 1.2324(4) 0.1636(4) 0.2064(4)
O2 O 1.2111(4) 0.1677(3) 0.3441(4)
O3 O 0.7645(4) 0.1205(3) 0.2305(4)
O4 O 0.8879(4) 0.0776(4) 0.3378(5)
O5 O 0.8043(4) 0.2522(4) -0.0251(4)
H33 H 0.7856 0.2731 -0.0746
O6 O 0.9453(4) 0.2845(3) -0.0353(4)
Ag1_2 Ag 0.39711(4) 0.15298(3) 0.27634(4)
Ag1_3 Ag 2.39711(4) 0.15298(3) 0.27634(4)
Ag2_2 Ag 0.61823(4) 0.11523(3) 0.26076(5)
P1_2 P 0.48251(13) 0.25693(11) 0.25960(14)
P2_2 P 0.52831(13) 0.01028(11) 0.24042(14)
N1_2 N 0.6504(4) 0.2063(4) 0.3670(4)
N2_2 N 0.4100(4) 0.0439(3) 0.3389(4)
N3_2 N 0.5777(4) 0.2097(3) 0.1462(4)
N4_2 N 0.3679(5) -0.0453(4) 0.1191(6)
C1_2 C 0.5977(6) -0.0699(5) 0.2396(6)
C2_2 C 0.4212(6) 0.3391(4) 0.2625(6)
C3_2 C 0.3311(6) 0.3360(5) 0.2699(6)
H1_2 H 0.3025 0.2926 0.2720
C4_2 C 0.2825(9) 0.3978(8) 0.2744(8)
H2_2 H 0.2206 0.3958 0.2778
C5_2 C 0.3247(11) 0.4611(8) 0.2739(9)
H3_2 H 0.2927 0.5023 0.2794
C6_2 C 0.4132(10) 0.4645(6) 0.2654(8)
H4_2 H 0.4411 0.5083 0.2641
C7_2 C 0.4627(8) 0.4047(5) 0.2586(6)
H5_2 H 0.5231 0.4078 0.2516
C8_2 C 0.5943(5) 0.2636(4) 0.3564(5)
C9_2 C 0.6148(6) 0.3187(5) 0.4179(6)
H6_2 H 0.5746 0.3576 0.4088
C10_2 C 0.6950(6) 0.3161(5) 0.4927(6)
H7_2 H 0.7095 0.3527 0.5355
C11_2 C 0.7523(6) 0.2594(6) 0.5028(6)
H8_2 H 0.8076 0.2569 0.5524
C12_2 C 0.7290(6) 0.2053(5) 0.4397(6)
H9_2 H 0.7693 0.1665 0.4478
C13_2 C 0.4645(5) -0.0096(4) 0.3246(5)
C14_2 C 0.4731(5) -0.0716(4) 0.3725(6)
H10_2 H 0.5119 -0.1074 0.3624
C15_2 C 0.4239(6) -0.0809(5) 0.4360(6)
H11_2 H 0.4296 -0.1227 0.4694
C16_2 C 0.3666(6) -0.0278(5) 0.4493(6)
H12_2 H 0.3318 -0.0329 0.4909
C17_2 C 0.3620(5) 0.0328(5) 0.3997(6)
H13_2 H 0.3229 0.0688 0.4088
C18_2 C 2.1820(5) 0.1683(4) 0.2577(6)
C19_2 C 2.0750(5) 0.1735(4) 0.2142(5)
C20_2 C 2.0369(5) 0.2079(4) 0.1300(5)
H14_2 H 2.0769 0.2279 0.0998
C21_2 C 1.9394(5) 0.2121(4) 0.0913(5)
C22_2 C 1.8795(5) 0.1797(4) 0.1348(5)
H15_2 H 1.8141 0.1818 0.1077
C23_2 C 1.9165(5) 0.1444(4) 0.2183(5)
C24_2 C 2.0142(5) 0.1428(4) 0.2574(5)
H16_2 H 2.0398 0.1205 0.3141
C25_2 C 1.8975(5) 0.2536(4) 0.0043(5)
C26_2 C 1.8502(6) 0.1116(4) 0.2662(6)
C27_2 C 0.6074(5) 0.2087(5) 0.0714(6)
H17_2 H 0.6480 0.1727 0.0654
C28_2 C 0.5804(6) 0.2587(5) 0.0024(6)
H18_2 H 0.6029 0.2565 -0.0487
C29_2 C 0.5204(6) 0.3116(5) 0.0101(6)
H19_2 H 0.5001 0.3452 -0.0363
C30_2 C 0.4903(5) 0.3143(5) 0.0876(6)
H20_2 H 0.4500 0.3501 0.0948
C31_2 C 0.5209(5) 0.2626(4) 0.1551(5)
C32_2 C 0.4319(5) 0.0063(4) 0.1305(5)
C33_2 C 0.4284(6) 0.0555(5) 0.0628(6)
H21_2 H 0.4734 0.0914 0.0734
C34_2 C 0.3576(8) 0.0513(6) -0.0212(7)
H22_2 H 0.3541 0.0842 -0.0675
C35_2 C 0.2934(8) -0.0021(7) -0.0344(7)
H23_2 H 0.2456 -0.0067 -0.0903
C36_2 C 0.3004(7) -0.0487(6) 0.0356(7)
H24_2 H 0.2562 -0.0851 0.0257
C37_2 C 0.5579(6) -0.1317(4) 0.2003(6)
H25_2 H 0.4925 -0.1349 0.1726
C38_2 C 0.6142(7) -0.1881(5) 0.2018(7)
H26_2 H 0.5868 -0.2300 0.1744
C39_2 C 0.7102(7) -0.1856(6) 0.2425(7)
H27_2 H 0.7476 -0.2253 0.2440
C40_2 C 0.7503(7) -0.1238(6) 0.2809(8)
H28_2 H 0.8156 -0.1218 0.3095
C41_2 C 0.6961(6) -0.0644(5) 0.2781(6)
H29_2 H 0.7242 -0.0216 0.3012
O1_2 O 2.2324(4) 0.1636(4) 0.2064(4)
O1_3 O 0.2324(4) 0.1636(4) 0.2064(4)
O2_2 O 2.2111(4) 0.1677(3) 0.3441(4)
O3_2 O 1.7645(4) 0.1205(3) 0.2305(4)
O4_2 O 1.8879(4) 0.0776(4) 0.3378(5)
O5_2 O 1.8043(4) 0.2522(4) -0.0251(4)
H33_2 H 1.7856 0.2731 -0.0746
O6_2 O 1.9453(4) 0.2845(3) -0.0353(4)
C42 C 0.8687(8) 0.9828(6) 0.5164(8)
H30 H 0.9257 0.9950 0.5643
H31 H 0.8845 0.9545 0.4706
H32 H 0.8272 0.9568 0.5426
O7 O 0.8237(6) 1.0433(4) 0.4759(6)
H34 H 0.8320 1.0486 0.4252
O8 O 0.5000 0.5000 0.5000
H35 H 0.54(4) 0.53(3) 0.49(6)
H35B H 0.46(4) 0.47(3) 0.51(6)
H36? H 0.44(3) 0.52(4) 0.50(6)
loop_
_geom_bond_atom_site_label_1
_geom_bond_atom_site_label_2
_geom_bond_site_symmetry_1
_geom_bond_site_symmetry_2
Ag1 Ag2 1_555 1_555
Ag2 P2 1_555 1_555
P1 Ag1 1_555 1_555
P2 C1 1_555 1_555
N1 Ag2 1_555 1_555
N2 Ag1 1_555 1_555
N3 Ag2 1_555 1_555
N4 C32 1_555 1_555
C1 C37 1_555 1_555
C2 P1 1_555 1_555
C3 C2 1_555 1_555
H1 C3 1_555 1_555
C4 C3 1_555 1_555
H2 C4 1_555 1_555
C5 C4 1_555 1_555
H3 C5 1_555 1_555
C6 C5 1_555 1_555
H4 C6 1_555 1_555
C7 C2 1_555 1_555
H5 C7 1_555 1_555
C8 P1 1_555 1_555
C9 C8 1_555 1_555
H6 C9 1_555 1_555
C10 C9 1_555 1_555
H7 C10 1_555 1_555
C11 C10 1_555 1_555
H8 C11 1_555 1_555
C12 N1 1_555 1_555
H9 C12 1_555 1_555
C13 P2 1_555 1_555
C14 C13 1_555 1_555
H10 C14 1_555 1_555
C15 C14 1_555 1_555
H11 C15 1_555 1_555
C16 C15 1_555 1_555
H12 C16 1_555 1_555
C17 N2 1_555 1_555
H13 C17 1_555 1_555
C18 C19 1_555 1_555
C19 C20 1_555 1_555
C20 H14 1_555 1_555
C21 C20 1_555 1_555
C22 C21 1_555 1_555
H15 C22 1_555 1_555
C23 C22 1_555 1_555
C24 C19 1_555 1_555
H16 C24 1_555 1_555
C25 C21 1_555 1_555
C26 C23 1_555 1_555
C27 N3 1_555 1_555
H17 C27 1_555 1_555
C28 C27 1_555 1_555
H18 C28 1_555 1_555
C29 C28 1_555 1_555
H19 C29 1_555 1_555
C30 C29 1_555 1_555
H20 C30 1_555 1_555
C31 P1 1_555 1_555
C32 P2 1_555 1_555
C33 C32 1_555 1_555
H21 C33 1_555 1_555
C34 C33 1_555 1_555
H22 C34 1_555 1_555
C35 C34 1_555 1_555
H23 C35 1_555 1_555
C36 N4 1_555 1_555
H24 C36 1_555 1_555
C37 H25 1_555 1_555
C38 C37 1_555 1_555
H26 C38 1_555 1_555
C39 C38 1_555 1_555
H27 C39 1_555 1_555
C40 C39 1_555 1_555
H28 C40 1_555 1_555
C41 C1 1_555 1_555
H29 C41 1_555 1_555
C42 H30 1_555 1_555
H31 C42 1_555 1_555
H32 C42 1_555 1_555
O1 Ag1 1_555 1_555
O2 C18 1_555 1_555
O3 C26 1_555 1_555
O4 C26 1_555 1_555
O5 C25 1_555 1_555
H33 O5 1_555 1_555
O6 C25 1_555 1_555
O7 C42 1_555 1_555
H34 O7 1_555 1_555
O8 H35 1_555 1_555
Ag1_2 Ag2_2 1_555 1_555
Ag1_3 O1_2 1_555 1_555
Ag2_2 O3 1_555 1_555
P1_2 Ag1_2 1_555 1_555
P2_2 Ag2_2 1_555 1_555
N1_2 Ag2_2 1_555 1_555
N2_2 Ag1_2 1_555 1_555
N3_2 Ag2_2 1_555 1_555
N4_2 C32_2 1_555 1_555
C1_2 P2_2 1_555 1_555
C2_2 P1_2 1_555 1_555
C3_2 C2_2 1_555 1_555
H1_2 C3_2 1_555 1_555
C4_2 C3_2 1_555 1_555
H2_2 C4_2 1_555 1_555
C5_2 C4_2 1_555 1_555
H3_2 C5_2 1_555 1_555
C6_2 C5_2 1_555 1_555
H4_2 C6_2 1_555 1_555
C7_2 C2_2 1_555 1_555
H5_2 C7_2 1_555 1_555
C8_2 P1_2 1_555 1_555
C9_2 C8_2 1_555 1_555
H6_2 C9_2 1_555 1_555
C10_2 C9_2 1_555 1_555
H7_2 C10_2 1_555 1_555
C11_2 C10_2 1_555 1_555
H8_2 C11_2 1_555 1_555
C12_2 N1_2 1_555 1_555
H9_2 C12_2 1_555 1_555
C13_2 P2_2 1_555 1_555
C14_2 C13_2 1_555 1_555
H10_2 C14_2 1_555 1_555
C15_2 C14_2 1_555 1_555
H11_2 C15_2 1_555 1_555
C16_2 C15_2 1_555 1_555
H12_2 C16_2 1_555 1_555
C17_2 N2_2 1_555 1_555
H13_2 C17_2 1_555 1_555
C18_2 C19_2 1_555 1_555
C19_2 C20_2 1_555 1_555
C20_2 H14_2 1_555 1_555
C21_2 C20_2 1_555 1_555
C22_2 C21_2 1_555 1_555
H15_2 C22_2 1_555 1_555
C23_2 C22_2 1_555 1_555
C24_2 C19_2 1_555 1_555
H16_2 C24_2 1_555 1_555
C25_2 C21_2 1_555 1_555
C26_2 C23_2 1_555 1_555
C27_2 N3_2 1_555 1_555
H17_2 C27_2 1_555 1_555
C28_2 C27_2 1_555 1_555
H18_2 C28_2 1_555 1_555
C29_2 C28_2 1_555 1_555
H19_2 C29_2 1_555 1_555
C30_2 C29_2 1_555 1_555
H20_2 C30_2 1_555 1_555
C31_2 P1_2 1_555 1_555
C32_2 P2_2 1_555 1_555
C33_2 C32_2 1_555 1_555
H21_2 C33_2 1_555 1_555
C34_2 C33_2 1_555 1_555
H22_2 C34_2 1_555 1_555
C35_2 C34_2 1_555 1_555
H23_2 C35_2 1_555 1_555
C36_2 N4_2 1_555 1_555
H24_2 C36_2 1_555 1_555
C37_2 C1_2 1_555 1_555
H25_2 C37_2 1_555 1_555
C38_2 C37_2 1_555 1_555
H26_2 C38_2 1_555 1_555
C39_2 C38_2 1_555 1_555
H27_2 C39_2 1_555 1_555
C40_2 C39_2 1_555 1_555
H28_2 C40_2 1_555 1_555
C41_2 C1_2 1_555 1_555
H29_2 C41_2 1_555 1_555
O1_2 C18_2 1_555 1_555
O1_3 Ag1_2 1_555 1_555
O2_2 C18_2 1_555 1_555
O3_2 Ag2 1_555 1_555
O4_2 C26_2 1_555 1_555
O5_2 C25_2 1_555 1_555
H33_2 O5_2 1_555 1_555
O6_2 C25_2 1_555 1_555
H35B O8 1_555 1_555
N1 C8 1_555 1_555
N2 C13 1_555 1_555
N3 C31 1_555 1_555
C6 C7 1_555 1_555
C11 C12 1_555 1_555
C16 C17 1_555 1_555
C18 O1 1_555 1_555
C23 C24 1_555 1_555
C30 C31 1_555 1_555
C35 C36 1_555 1_555
C40 C41 1_555 1_555
N1_2 C8_2 1_555 1_555
N2_2 C13_2 1_555 1_555
N3_2 C31_2 1_555 1_555
C6_2 C7_2 1_555 1_555
C11_2 C12_2 1_555 1_555
C16_2 C17_2 1_555 1_555
C23_2 C24_2 1_555 1_555
C26_2 O3_2 1_555 1_555
C30_2 C31_2 1_555 1_555
C35_2 C36_2 1_555 1_555
C40_2 C41_2 1_555 1_555

#END
