
#######################################################################
#
#                 Cambridge Crystallographic Data Centre
#                                CCDC 
#
#######################################################################
#
# If this CIF has been generated from an entry in the Cambridge 
# Structural Database, then it will include bibliographic, chemical, 
# crystal, experimental, refinement or atomic coordinate data resulting 
# from the CCDC's data processing and validation procedures.
#
#######################################################################

data_CEYQIG
_symmetry_cell_setting           orthorhombic
_symmetry_space_group_name_H-M   'P c c n'
_symmetry_Int_Tables_number      56
_space_group_name_Hall           '-P 2ab 2ac'
loop_
_symmetry_equiv_pos_site_id
_symmetry_equiv_pos_as_xyz
1 x,y,z
2 1/2-x,1/2-y,z
3 1/2+x,-y,1/2-z
4 -x,1/2+y,1/2-z
5 -x,-y,-z
6 1/2+x,1/2+y,-z
7 1/2-x,y,1/2+z
8 x,1/2-y,1/2+z
_cell_length_a                   11.9053(8)
_cell_length_b                   19.348(1)
_cell_length_c                   7.4578(5)
_cell_angle_alpha                90
_cell_angle_beta                 90
_cell_angle_gamma                90
_cell_volume                     1717.86
loop_
_atom_site_label
_atom_site_type_symbol
_atom_site_fract_x
_atom_site_fract_y
_atom_site_fract_z
Zn1 Zn 0.5000 0.0000 0.5000
O1 O 0.3886(4) -0.0348(3) 0.2857(7)
O2 O 0.3367(5) -0.0686(4) 0.0254(7)
O3 O 0.5141(5) -0.0671(4) 0.0940(9)
O4 O 0.3788(4) -0.0509(3) 0.6586(7)
N1 N 0.4048(5) 0.0930(3) 0.4983(9)
N2 N 0.4152(5) -0.0571(4) 0.1346(8)
C1 C 0.2929(6) 0.0932(4) 0.476(1)
C2 C 0.2312(6) 0.1533(4) 0.475(1)
C3 C 0.2826(5) 0.2173(3) 0.502(1)
C4 C 0.3990(6) 0.2163(4) 0.527(1)
C5 C 0.4548(6) 0.1538(4) 0.524(1)
H1 H 0.2557 0.0503 0.4585
H2 H 0.1522 0.1512 0.4578
H3 H 0.4391 0.2581 0.5464
H4 H 0.5338 0.1543 0.5418
H5 H 0.3161 -0.0725 0.6033
H6 H 0.3869 -0.0522 0.7853
O1D O 0.6114(4) 0.0348(3) 0.7143(7)
N2D N 0.5848(5) 0.0571(4) 0.8654(8)
O2D O 0.6633(5) 0.0686(4) 0.9746(7)
O3D O 0.4859(5) 0.0671(4) 0.9060(9)
O4D O 0.6212(4) 0.0509(3) 0.3414(7)
H5D H 0.6839 0.0725 0.3967
H6D H 0.6131 0.0522 0.2147
C3A C 0.2174(5) 0.2827(3) 0.502(1)
C2A C 0.2688(6) 0.3467(4) 0.475(1)
C1A C 0.2071(6) 0.4068(4) 0.476(1)
N1A N 0.0952(5) 0.4070(3) 0.4983(9)
Zn1A Zn 0.0000 0.5000 0.5000
C5A C 0.0452(6) 0.3462(4) 0.524(1)
C4A C 0.1010(6) 0.2837(4) 0.527(1)
H3A H 0.0609 0.2419 0.5464
H4A H -0.0338 0.3457 0.5418
H1A H 0.2443 0.4497 0.4585
H2A H 0.3478 0.3488 0.4578
N1D N 0.5952(5) -0.0930(3) 0.5017(9)
loop_
_geom_bond_atom_site_label_1
_geom_bond_atom_site_label_2
_geom_bond_site_symmetry_1
_geom_bond_site_symmetry_2
Zn1 O1 1_555 1_555
O1 N2 1_555 1_555
O2 N2 1_555 1_555
O3 N2 1_555 1_555
O4 Zn1 1_555 1_555
N1 Zn1 1_555 1_555
C1 N1 1_555 1_555
C2 C1 1_555 1_555
C3 C2 1_555 1_555
C4 C3 1_555 1_555
C5 N1 1_555 1_555
H1 C1 1_555 1_555
H2 C2 1_555 1_555
H3 C4 1_555 1_555
H4 C5 1_555 1_555
H5 O4 1_555 1_555
H6 O4 1_555 1_555
O1D Zn1 1_555 1_555
N2D O1D 1_555 1_555
O2D N2D 1_555 1_555
O3D N2D 1_555 1_555
O4D Zn1 1_555 1_555
H5D O4D 1_555 1_555
H6D O4D 1_555 1_555
C3A C3 1_555 1_555
C2A C3A 1_555 1_555
C1A C2A 1_555 1_555
N1A C1A 1_555 1_555
Zn1A N1A 1_555 1_555
C5A N1A 1_555 1_555
C4A C3A 1_555 1_555
H3A C4A 1_555 1_555
H4A C5A 1_555 1_555
H1A C1A 1_555 1_555
H2A C2A 1_555 1_555
N1D Zn1 1_555 1_555
C4 C5 1_555 1_555
C5A C4A 1_555 1_555

#END
