
#######################################################################
#
#                 Cambridge Crystallographic Data Centre
#                                CCDC 
#
#######################################################################
#
# If this CIF has been generated from an entry in the Cambridge 
# Structural Database, then it will include bibliographic, chemical, 
# crystal, experimental, refinement or atomic coordinate data resulting 
# from the CCDC's data processing and validation procedures.
#
#######################################################################

data_CEYSUV
_symmetry_cell_setting           monoclinic
_symmetry_space_group_name_H-M   'P 21'
_symmetry_Int_Tables_number      4
_space_group_name_Hall           'P 2yb'
loop_
_symmetry_equiv_pos_site_id
_symmetry_equiv_pos_as_xyz
1 x,y,z
2 -x,1/2+y,-z
_cell_length_a                   8.1934(14)
_cell_length_b                   13.209(2)
_cell_length_c                   12.464(2)
_cell_angle_alpha                90
_cell_angle_beta                 104.107(3)
_cell_angle_gamma                90
_cell_volume                     1308.26
loop_
_atom_site_label
_atom_site_type_symbol
_atom_site_fract_x
_atom_site_fract_y
_atom_site_fract_z
C1 C 0.2352(4) -0.4734(2) -0.3929(3)
C2 C 0.0884(4) -0.4033(3) -0.4403(3)
C3 C -0.0558(4) -0.4385(3) -0.5144(3)
H1 H -0.0641 -0.5070 -0.5382
C4 C -0.1873(4) -0.3714(3) -0.5527(3)
H2 H -0.2853 -0.3953 -0.6039
C5 C -0.0413(4) -0.2405(3) -0.4504(3)
H3 H -0.0349 -0.1714 -0.4286
C6 C 0.0956(4) -0.3030(3) -0.4083(3)
H4 H 0.1931 -0.2771 -0.3582
C7 C -0.3858(4) -0.4275(3) -0.9918(3)
H5 H -0.3508 -0.4960 -0.9791
C8 C -0.3917(4) -0.3677(3) -0.9021(3)
H6 H -0.3616 -0.3947 -0.8293
C9 C -0.4422(4) -0.2674(3) -0.9196(3)
C10 C -0.4853(4) -0.2317(3) -1.0273(3)
H7 H -0.5201 -0.1634 -1.0421
C11 C -0.4769(4) -0.2964(3) -1.1127(3)
H8 H -0.5076 -0.2714 -1.1863
C12 C -0.4525(4) -0.1985(2) -0.8249(2)
C13 C -0.7604(4) -0.1156(3) -0.6446(3)
C14 C -0.8997(4) -0.0730(3) -0.7400(3)
H9 H -0.9489 -0.0126 -0.7110
C15 C -1.0423(4) -0.1499(3) -0.7792(3)
H10 H -1.0889 -0.1693 -0.7160
H11 H -1.1336 -0.1180 -0.8360
C16 C -0.9824(4) -0.2428(3) -0.8267(3)
C17 C -0.9143(5) -0.3272(3) -0.7693(3)
H12 H -0.9052 -0.3379 -0.6927
C18 C -0.8912(4) -0.3541(3) -0.9413(3)
C19 C -0.8497(4) -0.3920(3) -1.0357(3)
H13 H -0.7920 -0.4544 -1.0346
C20 C -0.8965(5) -0.3344(3) -1.1311(3)
H14 H -0.8695 -0.3578 -1.1967
C21 C -0.9827(5) -0.2426(3) -1.1332(3)
H15 H -1.0161 -0.2060 -1.2006
C22 C -1.0202(4) -0.2042(3) -1.0378(3)
H16 H -1.0781 -0.1417 -1.0395
C23 C -0.9709(4) -0.2596(3) -0.9398(3)
N1 N -0.8609(4) -0.3948(3) -0.8380(3)
H17 H -0.8150 -0.4542 -0.8183
N2 N -0.8244(3) -0.0375(2) -0.8304(2)
H18 H -0.8871 0.0153 -0.8674
H19 H -0.8263 -0.0893 -0.8801
N3 N -0.4274(3) -0.3931(2) -1.0962(2)
N4 N -0.1824(3) -0.2739(2) -0.5206(2)
Co1 Co -0.39239(5) -0.17748(3) -0.57587(3)
Co2 Co -0.57518(5) 0.01048(3) -0.76671(3)
O1 O 0.2295(3) -0.56057(19) -0.43185(19)
O2 O 0.3479(3) -0.43599(19) -0.31611(19)
O3 O -0.6079(3) -0.08865(18) -0.64059(18)
O4 O -0.8009(3) -0.1726(2) -0.57816(19)
O5 O -0.5408(3) -0.2929(2) -0.52508(19)
O6 O -0.3631(3) -0.1478(2) -0.3917(2)
O7 O -0.6037(4) -0.0941(3) -0.3371(3)
O8 O -0.4051(4) 0.0240(3) -0.3654(3)
O9 O -0.3377(3) -0.0854(2) -0.2132(2)
O10 O -0.6749(3) 0.1329(2) -0.6829(2)
O11 O -0.4178(3) -0.23811(19) -0.72950(18)
O12 O -0.4936(3) -0.10840(19) -0.84875(19)
Cl1 Cl -0.43065(10) -0.07506(7) -0.32659(7)
N3A N -0.5726(3) 0.1069(2) -0.9038(2)
Co1A Co 0.39239(5) -0.67748(3) -0.42413(3)
Co2A Co -0.42482(5) -0.48952(3) -1.23329(3)
Co2A_2 Co 0.57518(5) -0.48952(3) -0.23329(3)
O1A O -0.2295(3) -0.06057(19) -0.56815(19)
O2A O -0.3479(3) 0.06401(19) -0.68389(19)
loop_
_geom_bond_atom_site_label_1
_geom_bond_atom_site_label_2
_geom_bond_site_symmetry_1
_geom_bond_site_symmetry_2
C1 C2 1_555 1_555
C2 C3 1_555 1_555
C3 H1 1_555 1_555
C4 C3 1_555 1_555
H2 C4 1_555 1_555
C5 H3 1_555 1_555
C6 C2 1_555 1_555
H4 C6 1_555 1_555
C7 H5 1_555 1_555
C8 C7 1_555 1_555
H6 C8 1_555 1_555
C9 C8 1_555 1_555
C10 C9 1_555 1_555
H7 C10 1_555 1_555
C11 C10 1_555 1_555
H8 C11 1_555 1_555
C12 C9 1_555 1_555
C13 C14 1_555 1_555
C14 H9 1_555 1_555
C15 C14 1_555 1_555
H10 C15 1_555 1_555
H11 C15 1_555 1_555
C16 C15 1_555 1_555
C17 C16 1_555 1_555
H12 C17 1_555 1_555
C18 C19 1_555 1_555
C19 H13 1_555 1_555
C20 C19 1_555 1_555
H14 C20 1_555 1_555
C21 C20 1_555 1_555
H15 C21 1_555 1_555
C22 C21 1_555 1_555
H16 C22 1_555 1_555
C23 C16 1_555 1_555
N1 C17 1_555 1_555
H17 N1 1_555 1_555
N2 C14 1_555 1_555
H18 N2 1_555 1_555
H19 N2 1_555 1_555
N3 C7 1_555 1_555
N4 C4 1_555 1_555
Co1 N4 1_555 1_555
Co2 N2 1_555 1_555
O1 C1 1_555 1_555
O2 C1 1_555 1_555
O3 C13 1_555 1_555
O4 C13 1_555 1_555
O5 Co1 1_555 1_555
O6 Co1 1_555 1_555
O7 Cl1 1_555 1_555
O8 Cl1 1_555 1_555
O9 Cl1 1_555 1_555
O10 Co2 1_555 1_555
O11 C12 1_555 1_555
O12 C12 1_555 1_555
Cl1 O6 1_555 1_555
N3A Co2 1_555 1_555
Co1A O1 1_555 1_555
Co2A N3 1_555 1_555
Co2A_2 O2 1_555 1_555
O1A Co1 1_555 1_555
O2A Co2 1_555 1_555
C5 C6 1_555 1_555
C5 N4 1_555 1_555
C11 N3 1_555 1_555
C18 C23 1_555 1_555
C18 N1 1_555 1_555
C22 C23 1_555 1_555
Co1 O3 1_555 1_555
Co1 O11 1_555 1_555
Co2 O3 1_555 1_555
Co2 O12 1_555 1_555

#END
