
#######################################################################
#
#                 Cambridge Crystallographic Data Centre
#                                CCDC 
#
#######################################################################
#
# If this CIF has been generated from an entry in the Cambridge 
# Structural Database, then it will include bibliographic, chemical, 
# crystal, experimental, refinement or atomic coordinate data resulting 
# from the CCDC's data processing and validation procedures.
#
#######################################################################

data_CEYTAC
_symmetry_cell_setting           monoclinic
_symmetry_space_group_name_H-M   'P 21/n'
_symmetry_Int_Tables_number      14
_space_group_name_Hall           '-P 2yn'
loop_
_symmetry_equiv_pos_site_id
_symmetry_equiv_pos_as_xyz
1 x,y,z
2 1/2-x,1/2+y,1/2-z
3 -x,-y,-z
4 1/2+x,1/2-y,1/2+z
_cell_length_a                   9.9530(7)
_cell_length_b                   9.2443(7)
_cell_length_c                   16.0230(12)
_cell_angle_alpha                90
_cell_angle_beta                 96.636(2)
_cell_angle_gamma                90
_cell_volume                     1464.38
loop_
_atom_site_label
_atom_site_type_symbol
_atom_site_fract_x
_atom_site_fract_y
_atom_site_fract_z
Co1 Co 0.46401(3) 0.68104(3) 0.23700(2)
O1 O 0.57240(15) 0.86529(17) 0.28062(11)
O2 O 0.44855(16) 0.96941(18) 0.37219(12)
O3 O 0.51006(17) 1.26157(19) 0.24111(12)
O4 O 0.39549(15) 1.09824(18) 0.15763(12)
N1 N 0.89071(18) 1.1501(2) 0.34689(13)
N2 N 0.87495(18) 1.0665(2) 0.18966(13)
C1 C 0.9178(3) 1.1653(3) 0.43097(17)
H1 H 1.0045 1.2025 0.4535
C2 C 0.8264(3) 1.1298(3) 0.48541(17)
H2 H 0.8465 1.1464 0.5447
C3 C 0.7043(3) 1.0692(3) 0.45251(17)
H3 H 0.6389 1.0424 0.4893
C4 C 0.6762(2) 1.0472(2) 0.36689(16)
C5 C 0.7705(2) 1.0955(2) 0.31427(15)
C6 C 0.7556(2) 1.0857(2) 0.22070(15)
C7 C 0.6346(2) 1.0970(2) 0.16713(15)
C8 C 0.6387(2) 1.0689(3) 0.08249(16)
H4 H 0.5566 1.0722 0.0447
C9 C 0.7591(3) 1.0362(3) 0.05173(16)
H5 H 0.7614 1.0104 -0.0061
C10 C 0.8759(2) 1.0419(3) 0.10698(17)
H6 H 0.9612 1.0279 0.0856
C11 C 0.5541(2) 0.9543(2) 0.33639(15)
C12 C 0.5029(2) 1.1551(2) 0.19258(16)
O5 O 0.3522(2) 0.4945(2) 0.19466(13)
H7 H 0.381(3) 0.422(4) 0.209(2)
H8 H 0.275(3) 0.486(3) 0.190(2)
O6 O 0.35123(19) 0.6968(2) 0.33678(13)
H9 H 0.368(4) 0.774(5) 0.360(3)
H10 H 0.275(3) 0.677(3) 0.3361(18)
O7 O 0.3472(2) 0.8093(2) 0.15232(14)
H11 H 0.365(3) 0.888(4) 0.157(2)
H12 H 0.267(4) 0.800(3) 0.136(2)
Co1A Co 1.03599(3) 1.18104(3) 0.26300(2)
N1A N 0.60929(18) 0.6501(2) 0.15311(13)
N2A N 0.62505(18) 0.5665(2) 0.31034(13)
O8 O 0.0874(2) 0.7658(2) 0.10079(16)
H13 H 0.074(4) 0.661(5) 0.092(3)
H14 H 0.054(3) 0.781(4) 0.136(2)
loop_
_geom_bond_atom_site_label_1
_geom_bond_atom_site_label_2
_geom_bond_site_symmetry_1
_geom_bond_site_symmetry_2
Co1 O1 1_555 1_555
O1 C11 1_555 1_555
O2 C11 1_555 1_555
O3 C12 1_555 1_555
O4 C12 1_555 1_555
N1 C1 1_555 1_555
N2 C6 1_555 1_555
C1 H1 1_555 1_555
C2 C1 1_555 1_555
H2 C2 1_555 1_555
C3 C2 1_555 1_555
H3 C3 1_555 1_555
C4 C3 1_555 1_555
C5 N1 1_555 1_555
C6 C5 1_555 1_555
C7 C6 1_555 1_555
C8 C7 1_555 1_555
H4 C8 1_555 1_555
C9 C8 1_555 1_555
H5 C9 1_555 1_555
C10 N2 1_555 1_555
H6 C10 1_555 1_555
C11 C4 1_555 1_555
C12 C7 1_555 1_555
O5 Co1 1_555 1_555
H7 O5 1_555 1_555
H8 O5 1_555 1_555
O6 Co1 1_555 1_555
H9 O6 1_555 1_555
H10 O6 1_555 1_555
O7 Co1 1_555 1_555
H11 O7 1_555 1_555
H12 O7 1_555 1_555
O8 H13 1_555 1_555
H14 O8 1_555 1_555
Co1A N1 1_555 1_555
N1A Co1 1_555 1_555
N2A Co1 1_555 1_555
N2 Co1A 1_555 1_555
C4 C5 1_555 1_555
C9 C10 1_555 1_555

#END
