
#######################################################################
#
#                 Cambridge Crystallographic Data Centre
#                                CCDC 
#
#######################################################################
#
# If this CIF has been generated from an entry in the Cambridge 
# Structural Database, then it will include bibliographic, chemical, 
# crystal, experimental, refinement or atomic coordinate data resulting 
# from the CCDC's data processing and validation procedures.
#
#######################################################################

data_CEYTIK
_symmetry_cell_setting           monoclinic
_symmetry_space_group_name_H-M   'C 2/c'
_symmetry_Int_Tables_number      15
_space_group_name_Hall           '-C 2yn'
loop_
_symmetry_equiv_pos_site_id
_symmetry_equiv_pos_as_xyz
1 x,y,z
2 1/2+x,1/2+y,z
3 -x,y,1/2-z
4 1/2-x,1/2+y,1/2-z
5 -x,-y,-z
6 1/2-x,1/2-y,-z
7 x,-y,1/2+z
8 1/2+x,1/2-y,1/2+z
_cell_length_a                   23.669(6)
_cell_length_b                   11.970(3)
_cell_length_c                   23.157(6)
_cell_angle_alpha                90
_cell_angle_beta                 111.807(4)
_cell_angle_gamma                90
_cell_volume                     6091.31
loop_
_atom_site_label
_atom_site_type_symbol
_atom_site_fract_x
_atom_site_fract_y
_atom_site_fract_z
Eu1 Eu 1.036156(8) 0.170578(14) 0.398300(8)
O1 O 0.99097(12) -0.0125(2) 0.36013(13)
O2 O 0.94004(11) 0.1020(2) 0.39665(11)
O3 O 0.92399(12) -0.0809(2) 0.50024(12)
O4 O 0.87584(12) -0.0423(2) 0.56272(12)
O5 O 1.01179(12) 0.3572(2) 0.34915(12)
O6 O 0.95265(12) 0.2266(2) 0.29195(11)
N1 N 0.79909(15) -0.1327(3) 0.36318(17)
N2 N 0.79885(14) 0.1239(3) 0.36346(16)
N3 N 0.93719(14) 0.5876(3) 0.20186(16)
N4 N 1.12265(13) 0.3044(2) 0.45683(14)
N5 N 1.01723(13) 0.2938(2) 0.48031(14)
C1 C 0.94443(15) 0.0104(3) 0.37242(16)
C2 C 0.89387(16) -0.0732(3) 0.35690(16)
C3 C 0.89539(18) -0.1701(3) 0.32339(19)
H1 H 0.9270 -0.1827 0.3094
C4 C 0.8486(2) -0.2463(4) 0.3118(2)
H2 H 0.8484 -0.3118 0.2901
C5 C 0.8025(2) -0.2249(4) 0.3324(2)
H3 H 0.7717 -0.2777 0.3245
C6 C 0.84365(16) -0.0568(3) 0.37440(17)
C7 C 0.83174(15) 0.0471(3) 0.40412(18)
C8 C 0.78061(18) 0.2145(4) 0.3864(2)
H4 H 0.7585 0.2688 0.3584
C9 C 0.7925(2) 0.2316(4) 0.4480(2)
H5 H 0.7791 0.2955 0.4618
C10 C 0.82519(19) 0.1506(3) 0.4889(2)
H6 H 0.8332 0.1585 0.5312
C11 C 0.84615(15) 0.0576(3) 0.46764(17)
C12 C 0.88436(16) -0.0275(3) 0.51264(18)
C13 C 0.96902(16) 0.3272(3) 0.30103(16)
C14 C 0.93550(15) 0.4146(3) 0.25388(16)
C15 C 0.87232(17) 0.4115(3) 0.22573(19)
H7 H 0.8505 0.3526 0.2336
C16 C 0.84272(18) 0.4962(4) 0.1864(2)
H8 H 0.8006 0.4951 0.1664
C17 C 0.87656(19) 0.5832(4) 0.1768(2)
H9 H 0.8559 0.6420 0.1515
C18 C 0.96604(15) 0.5026(3) 0.23884(16)
C19 C 1.17224(17) 0.3139(3) 0.4443(2)
H10 H 1.1744 0.2736 0.4109
C20 C 1.22168(18) 0.3806(4) 0.4782(2)
H11 H 1.2554 0.3856 0.4668
C21 C 1.21977(19) 0.4384(4) 0.5283(2)
H12 H 1.2531 0.4804 0.5526
C22 C 1.16726(19) 0.4341(3) 0.5429(2)
C23 C 1.1607(2) 0.4936(4) 0.5929(2)
H13 H 1.1930 0.5369 0.6184
C24 C 1.1093(2) 0.4892(4) 0.6046(2)
H14 H 1.1064 0.5305 0.6374
C25 C 1.05860(19) 0.4216(3) 0.56734(18)
C26 C 1.0048(2) 0.4115(4) 0.5787(2)
H15 H 1.0001 0.4508 0.6112
C27 C 0.9598(2) 0.3448(4) 0.5425(2)
H16 H 0.9240 0.3371 0.5501
C28 C 0.96731(18) 0.2869(3) 0.49314(19)
H17 H 0.9357 0.2416 0.4683
C29 C 1.06330(16) 0.3597(3) 0.51766(17)
C30 C 1.11858(17) 0.3656(3) 0.50511(18)
O7 O 1.08701(13) 0.1526(2) 0.32666(13)
H18 H 1.0715 0.1806 0.2903
H19 H 1.1110 0.0977 0.3310
Eu1D Eu 0.963844(8) -0.170578(14) 0.601700(8)
Eu1B Eu 0.963844(8) 0.170578(14) 0.101700(8)
O1D O 1.00903(12) 0.0125(2) 0.63987(13)
O2D O 1.05996(11) -0.1020(2) 0.60335(11)
O3D O 1.07601(12) 0.0809(2) 0.49976(12)
O4D O 1.12416(12) 0.0423(2) 0.43728(12)
O5B O 0.98821(12) 0.3572(2) 0.15085(12)
O5D O 0.98821(12) -0.3572(2) 0.65085(12)
O6B O 1.04735(12) 0.2266(2) 0.20805(11)
O6D O 1.04735(12) -0.2266(2) 0.70805(11)
N1D N 1.20091(15) 0.1327(3) 0.63682(17)
N2D N 1.20115(14) -0.1239(3) 0.63654(16)
N3B N 1.06281(14) 0.5876(3) 0.29814(16)
N4D N 0.87735(13) -0.3044(2) 0.54317(14)
N5D N 0.98277(13) -0.2938(2) 0.51969(14)
C1D C 1.05557(15) -0.0104(3) 0.62758(16)
C2D C 1.10613(16) 0.0732(3) 0.64310(16)
C3D C 1.10461(18) 0.1701(3) 0.67661(19)
H1D H 1.0730 0.1827 0.6906
C4D C 1.1514(2) 0.2463(4) 0.6882(2)
H2D H 1.1516 0.3118 0.7099
C5D C 1.1975(2) 0.2249(4) 0.6676(2)
H3D H 1.2283 0.2777 0.6755
C6D C 1.15635(16) 0.0568(3) 0.62560(17)
C7D C 1.16826(15) -0.0471(3) 0.59588(18)
C8D C 1.21939(18) -0.2145(4) 0.6136(2)
H4D H 1.2415 -0.2688 0.6416
C9D C 1.2075(2) -0.2316(4) 0.5520(2)
H5D H 1.2209 -0.2955 0.5382
C10D C 1.17481(19) -0.1506(3) 0.5111(2)
H6D H 1.1668 -0.1585 0.4688
C11D C 1.15385(15) -0.0576(3) 0.53236(17)
C12D C 1.11564(16) 0.0275(3) 0.48736(18)
C13B C 1.03098(16) 0.3272(3) 0.19897(16)
C14B C 1.06450(15) 0.4146(3) 0.24612(16)
C15B C 1.12768(17) 0.4115(3) 0.27427(19)
H7B H 1.1495 0.3526 0.2664
C16B C 1.15728(18) 0.4962(4) 0.3136(2)
H8B H 1.1994 0.4951 0.3336
C17B C 1.12344(19) 0.5832(4) 0.3232(2)
H9B H 1.1441 0.6420 0.3485
C18B C 1.03396(15) 0.5026(3) 0.26116(16)
C19D C 0.82776(17) -0.3139(3) 0.5557(2)
H10D H 0.8256 -0.2736 0.5891
C20D C 0.77832(18) -0.3806(4) 0.5218(2)
H11D H 0.7446 -0.3856 0.5332
C21D C 0.78023(19) -0.4384(4) 0.4717(2)
H12D H 0.7469 -0.4804 0.4474
C22D C 0.83274(19) -0.4341(3) 0.4571(2)
C23D C 0.8393(2) -0.4936(4) 0.4071(2)
H13D H 0.8070 -0.5369 0.3816
C24D C 0.8907(2) -0.4892(4) 0.3954(2)
H14D H 0.8936 -0.5305 0.3626
C25D C 0.94140(19) -0.4216(3) 0.43266(18)
C26D C 0.9952(2) -0.4115(4) 0.4213(2)
H15D H 0.9999 -0.4508 0.3888
C27D C 1.0402(2) -0.3448(4) 0.4575(2)
H16D H 1.0760 -0.3371 0.4499
C28D C 1.03269(18) -0.2869(3) 0.50686(19)
H17D H 1.0643 -0.2416 0.5317
C29D C 0.93670(16) -0.3597(3) 0.48234(17)
C30D C 0.88142(17) -0.3656(3) 0.49489(18)
O7D O 0.91299(13) -0.1526(2) 0.67334(13)
H18D H 0.9285 -0.1806 0.7097
H19D H 0.8890 -0.0977 0.6690
O8 O 0.82590(19) 0.1321(4) 0.25497(19)
H20 H 0.7990 0.1213 0.2709
H21 H 0.8176 0.0991 0.2186
O9 O 0.16855(19) 0.9611(4) 0.33322(18)
H22 H 0.1600 0.9073 0.3534
H23 H 0.1454 0.9665 0.2950
O10 O 0.0734(5) 0.8277(13) 0.3401(17)
O11? O 0.053(3) 0.8317(17) 0.305(3)
loop_
_geom_bond_atom_site_label_1
_geom_bond_atom_site_label_2
_geom_bond_site_symmetry_1
_geom_bond_site_symmetry_2
Eu1 O1 1_555 1_555
O1 C1 1_555 1_555
O2 Eu1 1_555 1_555
O3 C12 1_555 1_555
O4 C12 1_555 1_555
O5 Eu1 1_555 1_555
O6 Eu1 1_555 1_555
N1 C5 1_555 1_555
N2 C7 1_555 1_555
N3 C17 1_555 1_555
N4 Eu1 1_555 1_555
N5 Eu1 1_555 1_555
C1 O2 1_555 1_555
C2 C1 1_555 1_555
C3 C2 1_555 1_555
H1 C3 1_555 1_555
C4 C3 1_555 1_555
H2 C4 1_555 1_555
C5 C4 1_555 1_555
H3 C5 1_555 1_555
C6 N1 1_555 1_555
C7 C6 1_555 1_555
C8 N2 1_555 1_555
H4 C8 1_555 1_555
C9 C8 1_555 1_555
H5 C9 1_555 1_555
C10 C9 1_555 1_555
H6 C10 1_555 1_555
C11 C7 1_555 1_555
C12 C11 1_555 1_555
C13 O5 1_555 1_555
C14 C13 1_555 1_555
C15 C14 1_555 1_555
H7 C15 1_555 1_555
C16 C15 1_555 1_555
H8 C16 1_555 1_555
C17 C16 1_555 1_555
H9 C17 1_555 1_555
C18 N3 1_555 1_555
C19 N4 1_555 1_555
H10 C19 1_555 1_555
C20 C19 1_555 1_555
H11 C20 1_555 1_555
C21 C20 1_555 1_555
H12 C21 1_555 1_555
C22 C21 1_555 1_555
C23 C22 1_555 1_555
H13 C23 1_555 1_555
C24 C23 1_555 1_555
H14 C24 1_555 1_555
C25 C24 1_555 1_555
C26 C25 1_555 1_555
H15 C26 1_555 1_555
C27 C26 1_555 1_555
H16 C27 1_555 1_555
C28 N5 1_555 1_555
H17 C28 1_555 1_555
C29 N5 1_555 1_555
C30 N4 1_555 1_555
O7 Eu1 1_555 1_555
H18 O7 1_555 1_555
H19 O7 1_555 1_555
O8 H20 1_555 1_555
H21 O8 1_555 1_555
O9 H22 1_555 1_555
H23 O9 1_555 1_555
Eu1D O3 1_555 1_555
Eu1B O5B 1_555 1_555
O1D Eu1D 1_555 1_555
O2D Eu1D 1_555 1_555
O3D Eu1 1_555 1_555
O4D Eu1 1_555 1_555
O5B C13B 1_555 1_555
O5D Eu1D 1_555 1_555
O6B Eu1B 1_555 1_555
O6D Eu1D 1_555 1_555
N1D C5D 1_555 1_555
N2D C7D 1_555 1_555
N3B C17B 1_555 1_555
N4D Eu1D 1_555 1_555
N5D Eu1D 1_555 1_555
C1D O1D 1_555 1_555
C2D C1D 1_555 1_555
C3D C2D 1_555 1_555
H1D C3D 1_555 1_555
C4D C3D 1_555 1_555
H2D C4D 1_555 1_555
C5D C4D 1_555 1_555
H3D C5D 1_555 1_555
C6D N1D 1_555 1_555
C7D C6D 1_555 1_555
C8D N2D 1_555 1_555
H4D C8D 1_555 1_555
C9D C8D 1_555 1_555
H5D C9D 1_555 1_555
C10D C9D 1_555 1_555
H6D C10D 1_555 1_555
C11D C7D 1_555 1_555
C12D O3D 1_555 1_555
C13B O6B 1_555 1_555
C14B C13B 1_555 1_555
C15B C14B 1_555 1_555
H7B C15B 1_555 1_555
C16B C15B 1_555 1_555
H8B C16B 1_555 1_555
C17B C16B 1_555 1_555
H9B C17B 1_555 1_555
C18B C18 1_555 1_555
C19D N4D 1_555 1_555
H10D C19D 1_555 1_555
C20D C19D 1_555 1_555
H11D C20D 1_555 1_555
C21D C20D 1_555 1_555
H12D C21D 1_555 1_555
C22D C21D 1_555 1_555
C23D C22D 1_555 1_555
H13D C23D 1_555 1_555
C24D C23D 1_555 1_555
H14D C24D 1_555 1_555
C25D C24D 1_555 1_555
C26D C25D 1_555 1_555
H15D C26D 1_555 1_555
C27D C26D 1_555 1_555
H16D C27D 1_555 1_555
C28D N5D 1_555 1_555
H17D C28D 1_555 1_555
C29D N5D 1_555 1_555
C30D N4D 1_555 1_555
O7D Eu1D 1_555 1_555
H18D O7D 1_555 1_555
H19D O7D 1_555 1_555
O4 Eu1D 1_555 1_555
O6 C13 1_555 1_555
C2 C6 1_555 1_555
C10 C11 1_555 1_555
C14 C18 1_555 1_555
C22 C30 1_555 1_555
C25 C29 1_555 1_555
C27 C28 1_555 1_555
C29 C30 1_555 1_555
O2D C1D 1_555 1_555
O4D C12D 1_555 1_555
N3B C18B 1_555 1_555
C2D C6D 1_555 1_555
C10D C11D 1_555 1_555
C11D C12D 1_555 1_555
C14B C18B 1_555 1_555
C22D C30D 1_555 1_555
C25D C29D 1_555 1_555
C27D C28D 1_555 1_555
C29D C30D 1_555 1_555

#END
