
#######################################################################
#
#                 Cambridge Crystallographic Data Centre
#                                CCDC 
#
#######################################################################
#
# If this CIF has been generated from an entry in the Cambridge 
# Structural Database, then it will include bibliographic, chemical, 
# crystal, experimental, refinement or atomic coordinate data resulting 
# from the CCDC's data processing and validation procedures.
#
#######################################################################

data_CEYTAC02
_symmetry_cell_setting           monoclinic
_symmetry_space_group_name_H-M   'P 21/n'
_symmetry_Int_Tables_number      14
_space_group_name_Hall           '-P 2yn'
loop_
_symmetry_equiv_pos_site_id
_symmetry_equiv_pos_as_xyz
1 x,y,z
2 1/2-x,1/2+y,1/2-z
3 -x,-y,-z
4 1/2+x,1/2-y,1/2+z
_cell_length_a                   9.9822(8)
_cell_length_b                   9.2287(8)
_cell_length_c                   16.0500(13)
_cell_angle_alpha                90
_cell_angle_beta                 97.4940(10)
_cell_angle_gamma                90
_cell_volume                     1465.94
loop_
_atom_site_label
_atom_site_type_symbol
_atom_site_fract_x
_atom_site_fract_y
_atom_site_fract_z
Co1 Co 0.03404(3) -0.82207(3) 0.760332(19)
O1 O 0.1442(2) -0.8082(2) 0.65984(15)
N1 N -0.1059(2) -0.8511(2) 0.84726(12)
O2 O 0.1470(2) -1.0099(2) 0.80150(14)
O3 O 0.1572(2) -0.6932(2) 0.84240(17)
N2 N -0.1301(2) -0.9378(2) 0.68990(12)
C1 C -0.2468(2) -0.9181(2) 0.72222(13)
C2 C -0.3697(2) -0.9072(2) 0.67086(14)
C3 C -0.2263(2) -0.9077(2) 0.81621(14)
C4 C -0.0753(3) -0.8336(3) 0.93043(17)
C5 C -0.1342(3) -0.9615(3) 0.60674(16)
C6 C -0.3702(3) -0.9334(3) 0.58534(17)
C7 C -0.2526(3) -0.9658(3) 0.55361(17)
C8 C -0.1619(3) -0.8698(4) 0.98637(17)
O4 O -0.60769(18) -0.9051(2) 0.66223(14)
O5 O -0.4909(2) -0.7463(2) 0.74763(13)
C9 C -0.4994(3) -0.8497(3) 0.69725(17)
C10 C -0.3161(3) -0.9584(3) 0.87008(15)
C11 C -0.2830(3) -0.9329(3) 0.95578(17)
C12 C -0.4377(3) -1.0522(3) 0.84179(16)
O6 O -0.42540(18) -1.13804(19) 0.78376(11)
O7 O -0.5401(2) -1.0402(3) 0.87937(15)
H1 H -0.450(3) -0.923(3) 0.5505(16)
H2 H 0.006(3) -0.796(3) 0.9488(18)
H3 H 0.231(4) -0.826(4) 0.665(2)
H4 H -0.342(3) -0.973(3) 0.991(2)
H5 H -0.049(3) -0.960(3) 0.5860(18)
H6 H -0.129(4) -0.852(4) 1.044(2)
H7 H 0.225(4) -0.709(4) 0.862(2)
H8 H 0.136(4) -0.607(4) 0.844(2)
H9 H -0.250(3) -0.991(4) 0.496(2)
H10 H 0.122(4) -1.084(4) 0.781(2)
H11 H 0.132(5) -0.736(6) 0.635(3)
H12 H 0.222(5) -1.019(5) 0.798(3)
Co1A Co -0.53404(3) -1.32207(3) 0.739668(19)
O6A O -0.07460(18) -0.63804(19) 0.71624(11)
O8 O -0.0862(3) 0.2384(3) 0.4073(2)
H13 H -0.076(6) 0.338(7) 0.430(3)
H14 H -0.072(10) 0.243(11) 0.370(6)
loop_
_geom_bond_atom_site_label_1
_geom_bond_atom_site_label_2
_geom_bond_site_symmetry_1
_geom_bond_site_symmetry_2
Co1 O1 1_555 1_555
O1 H3 1_555 1_555
N1 Co1 1_555 1_555
O2 Co1 1_555 1_555
O3 Co1 1_555 1_555
N2 Co1 1_555 1_555
C1 N2 1_555 1_555
C2 C1 1_555 1_555
C3 N1 1_555 1_555
C4 N1 1_555 1_555
C5 N2 1_555 1_555
C6 C2 1_555 1_555
C7 C5 1_555 1_555
C8 C4 1_555 1_555
O4 C9 1_555 1_555
O5 C9 1_555 1_555
C9 C2 1_555 1_555
C10 C3 1_555 1_555
C11 C8 1_555 1_555
C12 C10 1_555 1_555
O6 C12 1_555 1_555
O7 C12 1_555 1_555
H1 C6 1_555 1_555
H2 C4 1_555 1_555
H4 C11 1_555 1_555
H5 C5 1_555 1_555
H6 C8 1_555 1_555
H7 O3 1_555 1_555
H8 O3 1_555 1_555
H9 C7 1_555 1_555
H10 O2 1_555 1_555
H11 O1 1_555 1_555
H12 O2 1_555 1_555
O8 H13 1_555 1_555
H14 O8 1_555 1_555
Co1A O6 1_555 1_555
O6A Co1 1_555 1_555
C1 C3 1_555 1_555
C6 C7 1_555 1_555
C10 C11 1_555 1_555

#END
