
#######################################################################
#
#                 Cambridge Crystallographic Data Centre
#                                CCDC 
#
#######################################################################
#
# If this CIF has been generated from an entry in the Cambridge 
# Structural Database, then it will include bibliographic, chemical, 
# crystal, experimental, refinement or atomic coordinate data resulting 
# from the CCDC's data processing and validation procedures.
#
#######################################################################

data_CEYTUW
_symmetry_cell_setting           monoclinic
_symmetry_space_group_name_H-M   'C 2/c'
_symmetry_Int_Tables_number      15
_space_group_name_Hall           '-C 2yn'
loop_
_symmetry_equiv_pos_site_id
_symmetry_equiv_pos_as_xyz
1 x,y,z
2 1/2+x,1/2+y,z
3 -x,y,1/2-z
4 1/2-x,1/2+y,1/2-z
5 -x,-y,-z
6 1/2-x,1/2-y,-z
7 x,-y,1/2+z
8 1/2+x,1/2-y,1/2+z
_cell_length_a                   23.659(3)
_cell_length_b                   11.9611(14)
_cell_length_c                   23.197(3)
_cell_angle_alpha                90
_cell_angle_beta                 111.7890(10)
_cell_angle_gamma                90
_cell_volume                     6095.48
loop_
_atom_site_label
_atom_site_type_symbol
_atom_site_fract_x
_atom_site_fract_y
_atom_site_fract_z
Sm1 Sm 1.036036(6) 0.170580(12) 0.398121(7)
O1 O 1.12417(10) 0.0415(2) 0.43720(11)
O2 O 1.07672(10) 0.08130(19) 0.50006(11)
O3 O 1.06044(9) -0.10174(17) 0.60325(10)
O4 O 1.00982(11) 0.01300(19) 0.64008(12)
O5 O 0.95210(10) 0.22763(18) 0.29176(10)
O6 O 1.01154(10) 0.35800(18) 0.34864(10)
O7 O 1.08745(12) 0.1524(2) 0.32662(12)
H1 H 1.1161 0.1056 0.3329
H2 H 1.0735 0.1824 0.2908
N1 N 1.12236(11) 0.3053(2) 0.45737(13)
N2 N 1.01722(11) 0.2941(2) 0.48041(12)
N3 N 1.20106(12) -0.1243(2) 0.63642(14)
N4 N 1.20163(12) 0.1323(2) 0.63644(15)
N5 N 0.93728(12) 0.5883(2) 0.20180(14)
C1 C 1.11850(14) 0.3661(3) 0.50525(15)
C2 C 1.06352(14) 0.3605(2) 0.51806(15)
C3 C 0.96715(16) 0.2880(3) 0.49308(17)
H3 H 0.9354 0.2434 0.4679
C4 C 0.95945(19) 0.3450(3) 0.54221(19)
H4 H 0.9236 0.3372 0.5496
C5 C 1.00482(18) 0.4119(3) 0.57898(18)
H5 H 1.0002 0.4510 0.6116
C6 C 1.05872(16) 0.4215(3) 0.56730(16)
C7 C 1.1090(2) 0.4889(3) 0.60473(18)
H6 H 1.1058 0.5300 0.6374
C8 C 1.16071(18) 0.4939(3) 0.59338(18)
H7 H 1.1929 0.5372 0.6189
C9 C 1.16708(16) 0.4344(3) 0.54324(17)
C10 C 1.21965(16) 0.4390(3) 0.5286(2)
H8 H 1.2529 0.4815 0.5528
C11 C 1.22194(16) 0.3814(3) 0.4791(2)
H9 H 1.2559 0.3864 0.4681
C12 C 1.17239(15) 0.3145(3) 0.44486(19)
H10 H 1.1747 0.2743 0.4115
C13 C 1.11597(13) 0.0274(3) 0.48729(15)
C14 C 1.15409(13) -0.0579(2) 0.53249(15)
C15 C 1.17471(16) -0.1512(3) 0.51076(19)
H11 H 1.1664 -0.1594 0.4685
C16 C 1.20754(17) -0.2315(3) 0.5520(2)
H12 H 1.2213 -0.2953 0.5383
C17 C 1.21934(15) -0.2152(3) 0.6131(2)
H13 H 1.2414 -0.2698 0.6408
C18 C 1.16858(12) -0.0471(2) 0.59573(15)
C19 C 1.15657(13) 0.0569(2) 0.62550(14)
C20 C 1.19794(18) 0.2248(3) 0.6672(2)
H14 H 1.2285 0.2781 0.6749
C21 C 1.15219(19) 0.2458(3) 0.68807(18)
H15 H 1.1525 0.3108 0.7103
C22 C 1.10550(17) 0.1700(3) 0.67592(18)
H16 H 1.0736 0.1830 0.6894
C23 C 1.10699(13) 0.0732(2) 0.64298(14)
C24 C 1.05628(13) -0.0098(3) 0.62752(14)
C25 C 0.96882(14) 0.3284(2) 0.30088(15)
C26 C 0.93551(13) 0.4152(2) 0.25376(14)
C27 C 0.87246(14) 0.4120(3) 0.22532(16)
H17 H 0.8506 0.3527 0.2326
C28 C 0.84291(15) 0.4971(3) 0.18645(19)
H18 H 0.8007 0.4966 0.1670
C29 C 0.87647(16) 0.5833(3) 0.17663(19)
H19 H 0.8558 0.6417 0.1510
C30 C 0.96603(13) 0.5035(2) 0.23905(14)
Sm1D Sm 0.963964(6) -0.170580(12) 0.601879(7)
Sm1B Sm 0.963964(6) 0.170580(12) 0.101879(7)
O1D O 0.87583(10) -0.0415(2) 0.56280(11)
O2D O 0.92328(10) -0.08130(19) 0.49994(11)
O3D O 0.93956(9) 0.10174(17) 0.39675(10)
O4D O 0.99018(11) -0.01300(19) 0.35992(12)
O5B O 1.04790(10) 0.22763(18) 0.20824(10)
O5D O 1.04790(10) -0.22763(18) 0.70824(10)
O6B O 0.98846(10) 0.35800(18) 0.15136(10)
O6D O 0.98846(10) -0.35800(18) 0.65136(10)
O7D O 0.91255(12) -0.1524(2) 0.67338(12)
H1D H 0.8839 -0.1056 0.6671
H2D H 0.9265 -0.1824 0.7092
N1D N 0.87764(11) -0.3053(2) 0.54263(13)
N2D N 0.98278(11) -0.2941(2) 0.51959(12)
N3D N 0.79894(12) 0.1243(2) 0.36358(14)
N4D N 0.79837(12) -0.1323(2) 0.36356(15)
N5B N 1.06272(12) 0.5883(2) 0.29820(14)
C1D C 0.88150(14) -0.3661(3) 0.49475(15)
C2D C 0.93648(14) -0.3605(2) 0.48194(15)
C3D C 1.03285(16) -0.2880(3) 0.50692(17)
H3D H 1.0646 -0.2434 0.5321
C4D C 1.04055(19) -0.3450(3) 0.45779(19)
H4D H 1.0764 -0.3372 0.4504
C5D C 0.99518(18) -0.4119(3) 0.42102(18)
H5D H 0.9998 -0.4510 0.3884
C6D C 0.94128(16) -0.4215(3) 0.43270(16)
C7D C 0.8910(2) -0.4889(3) 0.39527(18)
H6D H 0.8942 -0.5300 0.3626
C8D C 0.83929(18) -0.4939(3) 0.40662(18)
H7D H 0.8071 -0.5372 0.3811
C9D C 0.83292(16) -0.4344(3) 0.45676(17)
C10D C 0.78035(16) -0.4390(3) 0.4714(2)
H8D H 0.7471 -0.4815 0.4472
C11D C 0.77806(16) -0.3814(3) 0.5209(2)
H9D H 0.7441 -0.3864 0.5319
C12D C 0.82761(15) -0.3145(3) 0.55514(19)
H10D H 0.8253 -0.2743 0.5885
C13D C 0.88403(13) -0.0274(3) 0.51271(15)
C14D C 0.84591(13) 0.0579(2) 0.46751(15)
C15D C 0.82529(16) 0.1512(3) 0.48924(19)
H11D H 0.8336 0.1594 0.5315
C16D C 0.79246(17) 0.2315(3) 0.4480(2)
H12D H 0.7787 0.2953 0.4617
C17D C 0.78066(15) 0.2152(3) 0.3869(2)
H13D H 0.7586 0.2698 0.3592
C18D C 0.83142(12) 0.0471(2) 0.40427(15)
C19D C 0.84343(13) -0.0569(2) 0.37450(14)
C20D C 0.80206(18) -0.2248(3) 0.3328(2)
H14D H 0.7715 -0.2781 0.3251
C21D C 0.84781(19) -0.2458(3) 0.31193(18)
H15D H 0.8475 -0.3108 0.2897
C22D C 0.89450(17) -0.1700(3) 0.32408(18)
H16D H 0.9264 -0.1830 0.3106
C23D C 0.89301(13) -0.0732(2) 0.35702(14)
C24D C 0.94372(13) 0.0098(3) 0.37248(14)
C25B C 1.03118(14) 0.3284(2) 0.19912(15)
C26B C 1.06449(13) 0.4152(2) 0.24624(14)
C27B C 1.12754(14) 0.4120(3) 0.27468(16)
H17B H 1.1494 0.3527 0.2674
C28B C 1.15709(15) 0.4971(3) 0.31355(19)
H18B H 1.1993 0.4966 0.3330
C29B C 1.12353(16) 0.5833(3) 0.32337(19)
H19B H 1.1442 0.6417 0.3490
C30B C 1.03397(13) 0.5035(2) 0.26095(14)
O8 O 0.82466(16) 0.1313(3) 0.25578(17)
H20 H 0.8566 0.1527 0.2502
H21 H 0.8016 0.0858 0.2292
O9 O 0.16757(18) 0.9626(4) 0.33270(17)
H22 H 0.1564 0.9037 0.3461
H23 H 0.1905 0.9553 0.3121
O10 O 0.0678(2) 0.8286(3) 0.3288(3)
H24 H 0.0383 0.8158 0.2949
H25 H 0.0739 0.8965 0.3405
loop_
_geom_bond_atom_site_label_1
_geom_bond_atom_site_label_2
_geom_bond_site_symmetry_1
_geom_bond_site_symmetry_2
Sm1 O1 1_555 1_555
O1 C13 1_555 1_555
O2 Sm1 1_555 1_555
O3 C24 1_555 1_555
O4 C24 1_555 1_555
O5 Sm1 1_555 1_555
O6 Sm1 1_555 1_555
O7 Sm1 1_555 1_555
H1 O7 1_555 1_555
H2 O7 1_555 1_555
N1 Sm1 1_555 1_555
N2 Sm1 1_555 1_555
N3 C17 1_555 1_555
N4 C19 1_555 1_555
N5 C29 1_555 1_555
C1 N1 1_555 1_555
C2 N2 1_555 1_555
C3 N2 1_555 1_555
H3 C3 1_555 1_555
C4 C3 1_555 1_555
H4 C4 1_555 1_555
C5 C4 1_555 1_555
H5 C5 1_555 1_555
C6 C2 1_555 1_555
C7 C6 1_555 1_555
H6 C7 1_555 1_555
C8 C7 1_555 1_555
H7 C8 1_555 1_555
C9 C1 1_555 1_555
C10 C9 1_555 1_555
H8 C10 1_555 1_555
C11 C10 1_555 1_555
H9 C11 1_555 1_555
C12 N1 1_555 1_555
H10 C12 1_555 1_555
C13 O2 1_555 1_555
C14 C13 1_555 1_555
C15 C14 1_555 1_555
H11 C15 1_555 1_555
C16 C15 1_555 1_555
H12 C16 1_555 1_555
C17 C16 1_555 1_555
H13 C17 1_555 1_555
C18 N3 1_555 1_555
C19 C18 1_555 1_555
C20 N4 1_555 1_555
H14 C20 1_555 1_555
C21 C20 1_555 1_555
H15 C21 1_555 1_555
C22 C21 1_555 1_555
H16 C22 1_555 1_555
C23 C19 1_555 1_555
C24 C23 1_555 1_555
C25 O5 1_555 1_555
C26 C25 1_555 1_555
C27 C26 1_555 1_555
H17 C27 1_555 1_555
C28 C27 1_555 1_555
H18 C28 1_555 1_555
C29 C28 1_555 1_555
H19 C29 1_555 1_555
C30 N5 1_555 1_555
O8 H20 1_555 1_555
H21 O8 1_555 1_555
O9 H22 1_555 1_555
H23 O9 1_555 1_555
O10 H24 1_555 1_555
H25 O10 1_555 1_555
Sm1D O3 1_555 1_555
Sm1B O5B 1_555 1_555
O1D Sm1D 1_555 1_555
O2D Sm1D 1_555 1_555
O3D Sm1 1_555 1_555
O4D Sm1 1_555 1_555
O5B C25B 1_555 1_555
O5D Sm1D 1_555 1_555
O6B Sm1B 1_555 1_555
O6D Sm1D 1_555 1_555
O7D Sm1D 1_555 1_555
H1D O7D 1_555 1_555
H2D O7D 1_555 1_555
N1D Sm1D 1_555 1_555
N2D Sm1D 1_555 1_555
N3D C17D 1_555 1_555
N4D C19D 1_555 1_555
N5B C29B 1_555 1_555
C1D N1D 1_555 1_555
C2D N2D 1_555 1_555
C3D N2D 1_555 1_555
H3D C3D 1_555 1_555
C4D C3D 1_555 1_555
H4D C4D 1_555 1_555
C5D C4D 1_555 1_555
H5D C5D 1_555 1_555
C6D C2D 1_555 1_555
C7D C6D 1_555 1_555
H6D C7D 1_555 1_555
C8D C7D 1_555 1_555
H7D C8D 1_555 1_555
C9D C1D 1_555 1_555
C10D C9D 1_555 1_555
H8D C10D 1_555 1_555
C11D C10D 1_555 1_555
H9D C11D 1_555 1_555
C12D N1D 1_555 1_555
H10D C12D 1_555 1_555
C13D O1D 1_555 1_555
C14D C13D 1_555 1_555
C15D C14D 1_555 1_555
H11D C15D 1_555 1_555
C16D C15D 1_555 1_555
H12D C16D 1_555 1_555
C17D C16D 1_555 1_555
H13D C17D 1_555 1_555
C18D N3D 1_555 1_555
C19D C18D 1_555 1_555
C20D N4D 1_555 1_555
H14D C20D 1_555 1_555
C21D C20D 1_555 1_555
H15D C21D 1_555 1_555
C22D C21D 1_555 1_555
H16D C22D 1_555 1_555
C23D C19D 1_555 1_555
C24D O3D 1_555 1_555
C25B O6B 1_555 1_555
C26B C25B 1_555 1_555
C27B C26B 1_555 1_555
H17B C27B 1_555 1_555
C28B C27B 1_555 1_555
H18B C28B 1_555 1_555
C29B C28B 1_555 1_555
H19B C29B 1_555 1_555
C30B C30 1_555 1_555
O4 Sm1D 1_555 1_555
O6 C25 1_555 1_555
C1 C2 1_555 1_555
C5 C6 1_555 1_555
C8 C9 1_555 1_555
C11 C12 1_555 1_555
C14 C18 1_555 1_555
C22 C23 1_555 1_555
C26 C30 1_555 1_555
O2D C13D 1_555 1_555
O4D C24D 1_555 1_555
N5B C30B 1_555 1_555
C1D C2D 1_555 1_555
C5D C6D 1_555 1_555
C8D C9D 1_555 1_555
C11D C12D 1_555 1_555
C14D C18D 1_555 1_555
C22D C23D 1_555 1_555
C23D C24D 1_555 1_555
C26B C30B 1_555 1_555

#END
