
#######################################################################
#
#                 Cambridge Crystallographic Data Centre
#                                CCDC 
#
#######################################################################
#
# If this CIF has been generated from an entry in the Cambridge 
# Structural Database, then it will include bibliographic, chemical, 
# crystal, experimental, refinement or atomic coordinate data resulting 
# from the CCDC's data processing and validation procedures.
#
#######################################################################

data_CEYTEG
_symmetry_cell_setting           monoclinic
_symmetry_space_group_name_H-M   'P 21/n'
_symmetry_Int_Tables_number      14
_space_group_name_Hall           '-P 2yn'
loop_
_symmetry_equiv_pos_site_id
_symmetry_equiv_pos_as_xyz
1 x,y,z
2 1/2-x,1/2+y,1/2-z
3 -x,-y,-z
4 1/2+x,1/2-y,1/2+z
_cell_length_a                   9.958(3)
_cell_length_b                   9.314(2)
_cell_length_c                   16.183(4)
_cell_angle_alpha                90.00
_cell_angle_beta                 97.671(4)
_cell_angle_gamma                90.00
_cell_volume                     1487.52
loop_
_atom_site_label
_atom_site_type_symbol
_atom_site_fract_x
_atom_site_fract_y
_atom_site_fract_z
Fe1 Fe 0.46042(4) 0.18097(4) 0.23433(2)
N1 N 0.6296(2) 0.0645(2) 0.30713(14)
N2 N 0.6108(2) 0.1520(2) 0.15029(14)
O1 O 1.05172(18) -0.0318(2) 0.12644(13)
O2 O 0.93045(18) -0.1330(2) 0.21822(12)
O3 O 0.9958(2) 0.2592(2) 0.25655(13)
O4 O 1.11018(18) 0.0987(2) 0.34183(13)
C1 C 0.5828(3) 0.1671(3) 0.06723(17)
H1 H 0.4968 0.2041 0.0447
C2 C 0.6732(3) 0.1311(3) 0.01357(18)
H2 H 0.6526 0.1480 -0.0446
C3 C 0.7954(3) 0.0696(3) 0.04661(18)
H3 H 0.8591 0.0423 0.0107
C4 C 0.8249(2) 0.0478(3) 0.13182(17)
C5 C 0.7314(2) 0.0960(3) 0.18365(16)
C6 C 0.7479(2) 0.0861(3) 0.27656(16)
C7 C 0.8709(2) 0.0976(3) 0.33024(16)
C8 C 0.8691(3) 0.0688(3) 0.41417(18)
H4 H 0.9512 0.0725 0.4515
C9 C 0.7494(3) 0.0348(3) 0.44426(18)
H5 H 0.7487 0.0092 0.5010
C10 C 0.6311(3) 0.0392(3) 0.38916(17)
H6 H 0.5474 0.0238 0.4099
C11 C 0.9469(2) -0.0447(3) 0.16259(16)
C12 C 1.0024(3) 0.1550(3) 0.30537(17)
O5 O 0.3468(2) -0.0069(2) 0.19498(15)
H7 H 0.375(4) -0.083(4) 0.212(2)
H8 H 0.281(5) -0.014(5) 0.184(3)
O6 O 0.3558(2) 0.1951(2) 0.33658(14)
H9 H 0.371(3) 0.270(4) 0.360(2)
H10 H 0.282(4) 0.165(4) 0.338(2)
O7 O 0.3481(2) 0.3108(3) 0.14576(15)
H11 H 0.371(4) 0.392(4) 0.153(2)
H12 H 0.271(5) 0.301(5) 0.130(3)
Fe1A Fe 1.03958(4) -0.31903(4) 0.26567(2)
O2A O 0.56955(18) 0.3670(2) 0.28178(12)
O8 O 0.0855(2) 0.2646(3) 0.09823(17)
H13 H 0.072(5) 0.170(5) 0.092(3)
H14 H 0.055(4) 0.278(5) 0.140(3)
loop_
_geom_bond_atom_site_label_1
_geom_bond_atom_site_label_2
_geom_bond_site_symmetry_1
_geom_bond_site_symmetry_2
Fe1 N1 1_555 1_555
N1 C6 1_555 1_555
N2 Fe1 1_555 1_555
O1 C11 1_555 1_555
O2 C11 1_555 1_555
O3 C12 1_555 1_555
O4 C12 1_555 1_555
C1 N2 1_555 1_555
H1 C1 1_555 1_555
C2 C1 1_555 1_555
H2 C2 1_555 1_555
C3 C2 1_555 1_555
H3 C3 1_555 1_555
C4 C3 1_555 1_555
C5 N2 1_555 1_555
C6 C5 1_555 1_555
C7 C6 1_555 1_555
C8 C7 1_555 1_555
H4 C8 1_555 1_555
C9 C8 1_555 1_555
H5 C9 1_555 1_555
C10 N1 1_555 1_555
H6 C10 1_555 1_555
C11 C4 1_555 1_555
C12 C7 1_555 1_555
O5 Fe1 1_555 1_555
H7 O5 1_555 1_555
H8 O5 1_555 1_555
O6 Fe1 1_555 1_555
H9 O6 1_555 1_555
H10 O6 1_555 1_555
O7 Fe1 1_555 1_555
H11 O7 1_555 1_555
H12 O7 1_555 1_555
O8 H13 1_555 1_555
H14 O8 1_555 1_555
Fe1A O2 1_555 1_555
O2A Fe1 1_555 1_555
C4 C5 1_555 1_555
C9 C10 1_555 1_555

#END
