
#######################################################################
#
#                 Cambridge Crystallographic Data Centre
#                                CCDC 
#
#######################################################################
#
# If this CIF has been generated from an entry in the Cambridge 
# Structural Database, then it will include bibliographic, chemical, 
# crystal, experimental, refinement or atomic coordinate data resulting 
# from the CCDC's data processing and validation procedures.
#
#######################################################################

data_CEYTAC01
_symmetry_cell_setting           monoclinic
_symmetry_space_group_name_H-M   'P 21/n'
_symmetry_Int_Tables_number      14
_space_group_name_Hall           '-P 2yn'
loop_
_symmetry_equiv_pos_site_id
_symmetry_equiv_pos_as_xyz
1 x,y,z
2 1/2-x,1/2+y,1/2-z
3 -x,-y,-z
4 1/2+x,1/2-y,1/2+z
_cell_length_a                   9.9872(13)
_cell_length_b                   9.2378(12)
_cell_length_c                   16.080(2)
_cell_angle_alpha                90
_cell_angle_beta                 97.4710(10)
_cell_angle_gamma                90
_cell_volume                     1470.94
loop_
_atom_site_label
_atom_site_type_symbol
_atom_site_fract_x
_atom_site_fract_y
_atom_site_fract_z
Co1 Co 0.46597(3) 0.67795(4) 0.23958(2)
O1 O 0.3432(3) 0.8073(3) 0.15734(19)
O2 O 0.3560(2) 0.6918(3) 0.34020(16)
O3 O 0.35307(19) 0.4895(2) 0.19833(13)
O4 O 1.0405(2) 0.4600(3) 0.12090(17)
O5 O 0.92568(18) 0.3619(2) 0.21646(12)
O6 O 0.9910(2) 0.7536(3) 0.25257(14)
O7 O 1.10784(18) 0.5952(2) 0.33812(15)
N1 N 0.63004(19) 0.5627(2) 0.31010(13)
N2 N 0.6058(2) 0.6494(2) 0.15268(13)
C1 C 0.5753(3) 0.6659(3) 0.07007(18)
H1 H 0.4911 0.7036 0.0495
C2 C 0.6622(3) 0.6300(4) 0.01402(18)
H2 H 0.6399 0.6476 -0.0430
C3 C 0.7839(3) 0.5667(3) 0.04505(19)
H3 H 0.8444 0.5402 0.0084
C4 C 0.8162(3) 0.5424(3) 0.12998(16)
C5 C 0.7264(2) 0.5915(3) 0.18410(15)
C6 C 0.7466(2) 0.5817(3) 0.27752(15)
C7 C 0.8696(2) 0.5928(3) 0.32934(16)
C8 C 0.8702(3) 0.5669(3) 0.41473(18)
H4 H 0.9510 0.5712 0.4506
C9 C 0.7519(3) 0.5350(4) 0.44645(18)
H5 H 0.7526 0.5110 0.5027
C10 C 0.6334(3) 0.5394(3) 0.39314(17)
H6 H 0.5525 0.5258 0.4149
C11 C 0.9384(3) 0.4483(3) 0.15846(18)
C12 C 0.9997(3) 0.6503(3) 0.30292(19)
H7 H 0.366(5) 0.766(6) 0.364(3)
H8 H 0.364(5) 0.902(6) 0.166(3)
H9 H 0.278(4) 0.674(4) 0.338(2)
H10 H 0.274(4) 0.790(4) 0.143(2)
H11 H 0.2670 0.4873 0.2058
H12 H 0.3856 0.4064 0.2200
Co1A Co 1.03403(3) 0.17795(4) 0.26042(2)
O5A O 0.57432(18) 0.8619(2) 0.28354(12)
O8 O 0.0869(2) 0.7617(3) 0.09218(17)
H13 H 0.0778 0.6729 0.0720
H14 H 0.0665 0.7602 0.1358
loop_
_geom_bond_atom_site_label_1
_geom_bond_atom_site_label_2
_geom_bond_site_symmetry_1
_geom_bond_site_symmetry_2
Co1 O1 1_555 1_555
O1 H8 1_555 1_555
O2 Co1 1_555 1_555
O3 Co1 1_555 1_555
O4 C11 1_555 1_555
O5 C11 1_555 1_555
O6 C12 1_555 1_555
O7 C12 1_555 1_555
N1 Co1 1_555 1_555
N2 Co1 1_555 1_555
C1 N2 1_555 1_555
H1 C1 1_555 1_555
C2 C1 1_555 1_555
H2 C2 1_555 1_555
C3 C2 1_555 1_555
H3 C3 1_555 1_555
C4 C3 1_555 1_555
C5 N2 1_555 1_555
C6 N1 1_555 1_555
C7 C6 1_555 1_555
C8 C7 1_555 1_555
H4 C8 1_555 1_555
C9 C8 1_555 1_555
H5 C9 1_555 1_555
C10 N1 1_555 1_555
H6 C10 1_555 1_555
C11 C4 1_555 1_555
C12 C7 1_555 1_555
H7 O2 1_555 1_555
H9 O2 1_555 1_555
H10 O1 1_555 1_555
H11 O3 1_555 1_555
H12 O3 1_555 1_555
O8 H13 1_555 1_555
H14 O8 1_555 1_555
Co1A O5 1_555 1_555
O5A Co1 1_555 1_555
C4 C5 1_555 1_555
C5 C6 1_555 1_555
C9 C10 1_555 1_555

#END
