
#######################################################################
#
#                 Cambridge Crystallographic Data Centre
#                                CCDC 
#
#######################################################################
#
# If this CIF has been generated from an entry in the Cambridge 
# Structural Database, then it will include bibliographic, chemical, 
# crystal, experimental, refinement or atomic coordinate data resulting 
# from the CCDC's data processing and validation procedures.
#
#######################################################################

data_CEYVAE
_symmetry_cell_setting           monoclinic
_symmetry_space_group_name_H-M   'C 2/c'
_symmetry_Int_Tables_number      15
_space_group_name_Hall           '-C 2yn'
loop_
_symmetry_equiv_pos_site_id
_symmetry_equiv_pos_as_xyz
1 x,y,z
2 1/2+x,1/2+y,z
3 -x,y,1/2-z
4 1/2-x,1/2+y,1/2-z
5 -x,-y,-z
6 1/2-x,1/2-y,-z
7 x,-y,1/2+z
8 1/2+x,1/2-y,1/2+z
_cell_length_a                   23.6149(18)
_cell_length_b                   11.9194(9)
_cell_length_c                   23.1305(18)
_cell_angle_alpha                90
_cell_angle_beta                 111.9490(10)
_cell_angle_gamma                90
_cell_volume                     6038.75
loop_
_atom_site_label
_atom_site_type_symbol
_atom_site_fract_x
_atom_site_fract_y
_atom_site_fract_z
Tb1 Tb 0.463727(6) 0.328557(11) 0.601246(6)
O1 O 0.37620(10) 0.4558(2) 0.56272(10)
O2 O 0.42510(10) 0.41888(19) 0.50090(10)
O3 O 0.44056(9) 0.60412(17) 0.39663(10)
O4 O 0.49211(10) 0.48913(18) 0.36097(11)
O5 O 0.54716(10) 0.27480(18) 0.70796(10)
O6 O 0.48833(10) 0.14367(18) 0.65022(10)
O7 O 0.41398(11) 0.34665(19) 0.67226(11)
H1 H 0.4282 0.3229 0.7096
H2 H 0.3894 0.4017 0.6652
N1 N 0.37770(11) 0.1965(2) 0.54338(12)
N2 N 0.48282(11) 0.2064(2) 0.52033(12)
N3 N 0.29986(12) 0.3673(2) 0.36295(15)
N4 N 0.29956(12) 0.6246(2) 0.36328(13)
N5 N 0.56299(12) -0.0873(2) 0.79836(14)
C1 C 0.38133(14) 0.1349(3) 0.49550(15)
C2 C 0.43640(14) 0.1402(2) 0.48273(14)
C3 C 0.53311(16) 0.2126(3) 0.50767(16)
H3 H 0.5651 0.2572 0.5329
C4 C 0.54017(18) 0.1549(3) 0.45795(19)
H4 H 0.5758 0.1629 0.4501
C5 C 0.49493(18) 0.0878(3) 0.42156(17)
H5 H 0.4995 0.0479 0.3890
C6 C 0.44065(16) 0.0785(3) 0.43308(16)
C7 C 0.38983(19) 0.0112(3) 0.39552(18)
H6 H 0.3926 -0.0300 0.3625
C8 C 0.33836(18) 0.0070(3) 0.40732(18)
H7 H 0.3059 -0.0362 0.3818
C9 C 0.33232(16) 0.0668(3) 0.45769(17)
C10 C 0.27991(16) 0.0622(3) 0.47266(19)
H8 H 0.2465 0.0195 0.4485
C11 C 0.27822(16) 0.1203(3) 0.5224(2)
H9 H 0.2444 0.1155 0.5337
C12 C 0.32798(15) 0.1876(3) 0.55663(18)
H10 H 0.3261 0.2280 0.5903
C13 C 0.38484(13) 0.4717(3) 0.51273(15)
C14 C 0.34681(13) 0.5572(3) 0.46788(15)
C15 C 0.32610(16) 0.6504(3) 0.48986(18)
H11 H 0.3346 0.6586 0.5323
C16 C 0.29273(16) 0.7309(3) 0.4481(2)
H12 H 0.2788 0.7947 0.4619
C17 C 0.28076(15) 0.7150(3) 0.3867(2)
H13 H 0.2582 0.7696 0.3589
C18 C 0.33241(12) 0.5475(2) 0.40438(15)
C19 C 0.34483(13) 0.4434(3) 0.37438(14)
C20 C 0.30376(17) 0.2754(3) 0.3316(2)
H14 H 0.2729 0.2222 0.3232
C21 C 0.34985(18) 0.2543(3) 0.31105(18)
H15 H 0.3497 0.1894 0.2886
C22 C 0.39679(17) 0.3309(3) 0.32422(18)
H16 H 0.4291 0.3182 0.3113
C23 C 0.39494(13) 0.4277(2) 0.35717(14)
C24 C 0.44540(13) 0.5114(3) 0.37282(14)
C25 C 0.53098(14) 0.1732(2) 0.69874(14)
C26 C 0.56471(13) 0.0860(2) 0.74610(14)
C27 C 0.53405(12) -0.0022(2) 0.76117(14)
C28 C 0.62389(16) -0.0825(3) 0.82357(19)
H17 H 0.6447 -0.1413 0.8492
C29 C 0.65758(15) 0.0044(3) 0.81381(18)
H18 H 0.6999 0.0055 0.8337
C30 C 0.62777(14) 0.0895(3) 0.77430(16)
H19 H 0.6496 0.1487 0.7665
Tb1D Tb 0.536273(6) 0.671443(11) 0.398754(6)
Tb1B Tb 0.536273(6) 0.328557(11) 0.898754(6)
O1D O 0.62380(10) 0.5442(2) 0.43728(10)
O2D O 0.57490(10) 0.58112(19) 0.49910(10)
O3D O 0.55944(9) 0.39588(17) 0.60337(10)
O4D O 0.50789(10) 0.51087(18) 0.63903(11)
O5B O 0.45284(10) 0.27480(18) 0.79204(10)
O5D O 0.45284(10) 0.72520(18) 0.29204(10)
O6B O 0.51167(10) 0.14367(18) 0.84978(10)
O6D O 0.51167(10) 0.85633(18) 0.34978(10)
O7D O 0.58602(11) 0.65335(19) 0.32774(11)
H1D H 0.5718 0.6771 0.2904
H2D H 0.6106 0.5983 0.3348
N1D N 0.62230(11) 0.8035(2) 0.45662(12)
N2D N 0.51718(11) 0.7936(2) 0.47967(12)
N3D N 0.70014(12) 0.6327(2) 0.63705(15)
N4D N 0.70044(12) 0.3754(2) 0.63672(13)
N5B N 0.43701(12) -0.0873(2) 0.70164(14)
C1D C 0.61867(14) 0.8651(3) 0.50450(15)
C2D C 0.56360(14) 0.8598(2) 0.51727(14)
C3D C 0.46689(16) 0.7874(3) 0.49233(16)
H3D H 0.4349 0.7428 0.4671
C4D C 0.45983(18) 0.8451(3) 0.54205(19)
H4D H 0.4242 0.8371 0.5499
C5D C 0.50507(18) 0.9122(3) 0.57844(17)
H5D H 0.5005 0.9521 0.6110
C6D C 0.55935(16) 0.9215(3) 0.56692(16)
C7D C 0.61017(19) 0.9888(3) 0.60448(18)
H6D H 0.6074 1.0300 0.6375
C8D C 0.66164(18) 0.9930(3) 0.59268(18)
H7D H 0.6941 1.0362 0.6182
C9D C 0.66768(16) 0.9332(3) 0.54231(17)
C10D C 0.72009(16) 0.9378(3) 0.52734(19)
H8D H 0.7535 0.9805 0.5515
C11D C 0.72178(16) 0.8797(3) 0.4776(2)
H9D H 0.7556 0.8845 0.4663
C12D C 0.67202(15) 0.8124(3) 0.44337(18)
H10D H 0.6739 0.7720 0.4097
C13D C 0.61516(13) 0.5283(3) 0.48727(15)
C14D C 0.65319(13) 0.4428(3) 0.53212(15)
C15D C 0.67390(16) 0.3496(3) 0.51014(18)
H11D H 0.6654 0.3414 0.4677
C16D C 0.70727(16) 0.2691(3) 0.5519(2)
H12D H 0.7212 0.2053 0.5381
C17D C 0.71924(15) 0.2850(3) 0.6133(2)
H13D H 0.7418 0.2304 0.6411
C18D C 0.66759(12) 0.4525(2) 0.59562(15)
C19D C 0.65517(13) 0.5566(3) 0.62562(14)
C20D C 0.69624(17) 0.7246(3) 0.6684(2)
H14D H 0.7271 0.7778 0.6768
C21D C 0.65015(18) 0.7457(3) 0.68895(18)
H15D H 0.6503 0.8106 0.7114
C22D C 0.60321(17) 0.6691(3) 0.67578(18)
H16D H 0.5709 0.6818 0.6887
C23D C 0.60506(13) 0.5723(2) 0.64283(14)
C24D C 0.55460(13) 0.4886(3) 0.62718(14)
C25B C 0.46902(14) 0.1732(2) 0.80126(14)
C26B C 0.43529(13) 0.0860(2) 0.75390(14)
C27B C 0.46595(12) -0.0022(2) 0.73883(14)
C28B C 0.37611(16) -0.0825(3) 0.67643(19)
H17B H 0.3553 -0.1413 0.6508
C29B C 0.34242(15) 0.0044(3) 0.68619(18)
H18B H 0.3001 0.0055 0.6663
C30B C 0.37223(14) 0.0895(3) 0.72570(16)
H19B H 0.3504 0.1487 0.7335
O8 O 0.32553(15) 0.3679(3) 0.75514(16)
H20 H 0.2965 0.4136 0.7326
H21 H 0.3539 0.3532 0.7417
O9 O 0.5695(2) 0.6706(3) 0.8297(3)
H22 H 0.5403 0.6818 0.7950
H23 H 0.5611 0.6334 0.8568
O10 O 0.66862(17) 0.5353(4) 0.83351(16)
H24 H 0.6719 0.5258 0.7984
H25 H 0.6512 0.5947 0.8388
loop_
_geom_bond_atom_site_label_1
_geom_bond_atom_site_label_2
_geom_bond_site_symmetry_1
_geom_bond_site_symmetry_2
Tb1 O1 1_555 1_555
O1 C13 1_555 1_555
O2 Tb1 1_555 1_555
O3 C24 1_555 1_555
O4 C24 1_555 1_555
O5 Tb1 1_555 1_555
O6 Tb1 1_555 1_555
O7 Tb1 1_555 1_555
H1 O7 1_555 1_555
H2 O7 1_555 1_555
N1 Tb1 1_555 1_555
N2 Tb1 1_555 1_555
N3 C19 1_555 1_555
N4 C17 1_555 1_555
N5 C27 1_555 1_555
C1 N1 1_555 1_555
C2 N2 1_555 1_555
C3 N2 1_555 1_555
H3 C3 1_555 1_555
C4 C3 1_555 1_555
H4 C4 1_555 1_555
C5 C4 1_555 1_555
H5 C5 1_555 1_555
C6 C2 1_555 1_555
C7 C6 1_555 1_555
H6 C7 1_555 1_555
C8 C7 1_555 1_555
H7 C8 1_555 1_555
C9 C1 1_555 1_555
C10 C9 1_555 1_555
H8 C10 1_555 1_555
C11 C10 1_555 1_555
H9 C11 1_555 1_555
C12 N1 1_555 1_555
H10 C12 1_555 1_555
C13 O2 1_555 1_555
C14 C13 1_555 1_555
C15 C14 1_555 1_555
H11 C15 1_555 1_555
C16 C15 1_555 1_555
H12 C16 1_555 1_555
C17 C16 1_555 1_555
H13 C17 1_555 1_555
C18 N4 1_555 1_555
C19 C18 1_555 1_555
C20 N3 1_555 1_555
H14 C20 1_555 1_555
C21 C20 1_555 1_555
H15 C21 1_555 1_555
C22 C21 1_555 1_555
H16 C22 1_555 1_555
C23 C19 1_555 1_555
C24 C23 1_555 1_555
C25 O5 1_555 1_555
C26 C25 1_555 1_555
C27 C26 1_555 1_555
C28 N5 1_555 1_555
H17 C28 1_555 1_555
C29 C28 1_555 1_555
H18 C29 1_555 1_555
C30 C26 1_555 1_555
H19 C30 1_555 1_555
O8 H20 1_555 1_555
H21 O8 1_555 1_555
O9 H22 1_555 1_555
H23 O9 1_555 1_555
O10 H24 1_555 1_555
H25 O10 1_555 1_555
Tb1D O3 1_555 1_555
Tb1B O5B 1_555 1_555
O1D Tb1D 1_555 1_555
O2D Tb1D 1_555 1_555
O3D Tb1 1_555 1_555
O4D Tb1 1_555 1_555
O5B C25B 1_555 1_555
O5D Tb1D 1_555 1_555
O6B Tb1B 1_555 1_555
O6D Tb1D 1_555 1_555
O7D Tb1D 1_555 1_555
H1D O7D 1_555 1_555
H2D O7D 1_555 1_555
N1D Tb1D 1_555 1_555
N2D Tb1D 1_555 1_555
N3D C19D 1_555 1_555
N4D C17D 1_555 1_555
N5B C27B 1_555 1_555
C1D N1D 1_555 1_555
C2D N2D 1_555 1_555
C3D N2D 1_555 1_555
H3D C3D 1_555 1_555
C4D C3D 1_555 1_555
H4D C4D 1_555 1_555
C5D C4D 1_555 1_555
H5D C5D 1_555 1_555
C6D C2D 1_555 1_555
C7D C6D 1_555 1_555
H6D C7D 1_555 1_555
C8D C7D 1_555 1_555
H7D C8D 1_555 1_555
C9D C1D 1_555 1_555
C10D C9D 1_555 1_555
H8D C10D 1_555 1_555
C11D C10D 1_555 1_555
H9D C11D 1_555 1_555
C12D N1D 1_555 1_555
H10D C12D 1_555 1_555
C13D O1D 1_555 1_555
C14D C13D 1_555 1_555
C15D C14D 1_555 1_555
H11D C15D 1_555 1_555
C16D C15D 1_555 1_555
H12D C16D 1_555 1_555
C17D C16D 1_555 1_555
H13D C17D 1_555 1_555
C18D N4D 1_555 1_555
C19D C18D 1_555 1_555
C20D N3D 1_555 1_555
H14D C20D 1_555 1_555
C21D C20D 1_555 1_555
H15D C21D 1_555 1_555
C22D C21D 1_555 1_555
H16D C22D 1_555 1_555
C23D C19D 1_555 1_555
C24D O3D 1_555 1_555
C25B O6B 1_555 1_555
C26B C25B 1_555 1_555
C27B C27 1_555 1_555
C28B N5B 1_555 1_555
H17B C28B 1_555 1_555
C29B C28B 1_555 1_555
H18B C29B 1_555 1_555
C30B C26B 1_555 1_555
H19B C30B 1_555 1_555
O4 Tb1D 1_555 1_555
O6 C25 1_555 1_555
C1 C2 1_555 1_555
C5 C6 1_555 1_555
C8 C9 1_555 1_555
C11 C12 1_555 1_555
C14 C18 1_555 1_555
C22 C23 1_555 1_555
C29 C30 1_555 1_555
O2D C13D 1_555 1_555
O4D C24D 1_555 1_555
C1D C2D 1_555 1_555
C5D C6D 1_555 1_555
C8D C9D 1_555 1_555
C11D C12D 1_555 1_555
C14D C18D 1_555 1_555
C22D C23D 1_555 1_555
C23D C24D 1_555 1_555
C26B C27B 1_555 1_555
C29B C30B 1_555 1_555

#END
