
#######################################################################
#
#                 Cambridge Crystallographic Data Centre
#                                CCDC 
#
#######################################################################
#
# If this CIF has been generated from an entry in the Cambridge 
# Structural Database, then it will include bibliographic, chemical, 
# crystal, experimental, refinement or atomic coordinate data resulting 
# from the CCDC's data processing and validation procedures.
#
#######################################################################

data_CEYWAG
_symmetry_cell_setting           orthorhombic
_symmetry_space_group_name_H-M   'P b c a'
_symmetry_Int_Tables_number      61
_space_group_name_Hall           '-P 2ac 2ab'
loop_
_symmetry_equiv_pos_site_id
_symmetry_equiv_pos_as_xyz
1 x,y,z
2 1/2-x,-y,1/2+z
3 -x,1/2+y,1/2-z
4 1/2+x,1/2-y,-z
5 -x,-y,-z
6 1/2+x,y,1/2-z
7 x,1/2-y,1/2+z
8 1/2-x,1/2+y,z
_cell_length_a                   16.5827(5)
_cell_length_b                   11.2289(3)
_cell_length_c                   19.8004(5)
_cell_angle_alpha                90
_cell_angle_beta                 90
_cell_angle_gamma                90
_cell_volume                     3686.94
loop_
_atom_site_label
_atom_site_type_symbol
_atom_site_fract_x
_atom_site_fract_y
_atom_site_fract_z
Mn1 Mn 0.526075(10) 0.401873(15) 0.260902(8)
O1 O 0.61994(5) 0.49172(7) 0.24006(4)
O2 O 0.56341(5) 0.36397(8) 0.34861(4)
N1 N 0.48337(5) 0.44370(9) 0.16811(5)
N2 N 0.42527(6) 0.30331(8) 0.27630(5)
N3 N 0.46046(6) 0.55388(9) 0.30639(5)
N4 N 0.43552(6) 0.64857(9) 0.29261(5)
N5 N 0.40889(7) 0.74350(10) 0.28182(6)
C1 C 0.65764(6) 0.49008(10) 0.18162(5)
C2 C 0.74091(7) 0.51770(10) 0.17858(6)
H1 H 0.7692 0.5361 0.2190
C3 C 0.78147(7) 0.51818(12) 0.11759(6)
H2 H 0.8375 0.5356 0.1169
C4 C 0.74166(8) 0.49344(14) 0.05661(6)
H3 H 0.7705 0.4921 0.0152
C5 C 0.66005(7) 0.47109(13) 0.05803(6)
H4 H 0.6322 0.4569 0.0169
C6 C 0.61697(7) 0.46889(11) 0.11951(6)
C7 C 0.53103(7) 0.46048(12) 0.11678(6)
H5 H 0.5065 0.4678 0.0736
C8 C 0.39889(6) 0.46136(10) 0.15737(5)
C9 C 0.37155(7) 0.56482(11) 0.12638(6)
H6 H 0.4087 0.6248 0.1131
C10 C 0.28930(7) 0.58001(11) 0.11485(6)
H7 H 0.2703 0.6501 0.0932
C11 C 0.23509(7) 0.49262(11) 0.13495(5)
H8 H 0.1791 0.5022 0.1262
C12 C 0.26275(7) 0.39088(10) 0.16806(5)
H9 H 0.2253 0.3322 0.1825
C13 C 0.34485(6) 0.37436(10) 0.18014(5)
C14 C 0.37600(7) 0.26662(10) 0.21728(6)
H10 H 0.3300 0.2175 0.2328
H11 H 0.4092 0.2177 0.1864
C15 C 0.39828(7) 0.27730(10) 0.33564(6)
H12 H 0.3469 0.2400 0.3378
C16 C 0.43854(7) 0.29937(11) 0.39884(6)
C17 C 0.39661(8) 0.27178(13) 0.45880(6)
H13 H 0.3426 0.2438 0.4561
C18 C 0.43233(9) 0.28458(15) 0.52121(7)
H14 H 0.4030 0.2674 0.5613
C19 C 0.51257(9) 0.32342(15) 0.52468(7)
H15 H 0.5378 0.3316 0.5675
C20 C 0.55542(8) 0.34992(12) 0.46685(6)
H16 H 0.6099 0.3752 0.4705
C21 C 0.51958(7) 0.34001(10) 0.40232(6)
Mn1B Mn 0.473925(10) 0.901873(15) 0.239098(8)
N5B N 0.59111(7) 0.24350(10) 0.21818(6)
loop_
_geom_bond_atom_site_label_1
_geom_bond_atom_site_label_2
_geom_bond_site_symmetry_1
_geom_bond_site_symmetry_2
Mn1 O1 1_555 1_555
O1 C1 1_555 1_555
O2 Mn1 1_555 1_555
N1 Mn1 1_555 1_555
N2 Mn1 1_555 1_555
N3 Mn1 1_555 1_555
N4 N3 1_555 1_555
N5 N4 1_555 1_555
C1 C2 1_555 1_555
C2 H1 1_555 1_555
C3 C2 1_555 1_555
H2 C3 1_555 1_555
C4 C3 1_555 1_555
H3 C4 1_555 1_555
C5 C4 1_555 1_555
H4 C5 1_555 1_555
C6 C1 1_555 1_555
C7 N1 1_555 1_555
H5 C7 1_555 1_555
C8 N1 1_555 1_555
C9 C8 1_555 1_555
H6 C9 1_555 1_555
C10 C9 1_555 1_555
H7 C10 1_555 1_555
C11 C10 1_555 1_555
H8 C11 1_555 1_555
C12 C11 1_555 1_555
H9 C12 1_555 1_555
C13 C8 1_555 1_555
C14 N2 1_555 1_555
H10 C14 1_555 1_555
H11 C14 1_555 1_555
C15 N2 1_555 1_555
H12 C15 1_555 1_555
C16 C15 1_555 1_555
C17 C16 1_555 1_555
H13 C17 1_555 1_555
C18 C17 1_555 1_555
H14 C18 1_555 1_555
C19 C18 1_555 1_555
H15 C19 1_555 1_555
C20 C19 1_555 1_555
H16 C20 1_555 1_555
C21 O2 1_555 1_555
Mn1B N5 1_555 1_555
N5B Mn1 1_555 1_555
C5 C6 1_555 1_555
C6 C7 1_555 1_555
C12 C13 1_555 1_555
C13 C14 1_555 1_555
C16 C21 1_555 1_555
C20 C21 1_555 1_555

#END
