
#######################################################################
#
#                 Cambridge Crystallographic Data Centre
#                                CCDC 
#
#######################################################################
#
# If this CIF has been generated from an entry in the Cambridge 
# Structural Database, then it will include bibliographic, chemical, 
# crystal, experimental, refinement or atomic coordinate data resulting 
# from the CCDC's data processing and validation procedures.
#
#######################################################################

data_CEYXIO
_symmetry_cell_setting           monoclinic
_symmetry_space_group_name_H-M   'C 2/c'
_symmetry_Int_Tables_number      15
_space_group_name_Hall           '-C 2yn'
loop_
_symmetry_equiv_pos_site_id
_symmetry_equiv_pos_as_xyz
1 x,y,z
2 1/2+x,1/2+y,z
3 -x,y,1/2-z
4 1/2-x,1/2+y,1/2-z
5 -x,-y,-z
6 1/2-x,1/2-y,-z
7 x,-y,1/2+z
8 1/2+x,1/2-y,1/2+z
_cell_length_a                   14.321(4)
_cell_length_b                   16.114(5)
_cell_length_c                   6.547(1)
_cell_angle_alpha                90
_cell_angle_beta                 104.11(2)
_cell_angle_gamma                90
_cell_volume                     1465.26
loop_
_atom_site_label
_atom_site_type_symbol
_atom_site_fract_x
_atom_site_fract_y
_atom_site_fract_z
Na1 Na 0.25138(4) 0.00981(4) 0.63517(9)
O1 O 0.37396(7) 0.03846(6) 0.44760(18)
N1 N 0.57168(9) 0.17966(7) 0.5272(2)
N2 N 0.51356(9) 0.11059(8) 0.50394(19)
O2 O 0.14265(9) 0.05597(8) 0.3130(2)
C1 C 0.41740(10) 0.10811(9) 0.4635(2)
O3 O 0.57956(8) 0.31959(6) 0.53005(18)
O4 O 0.24137(9) 0.11540(8) 0.9035(2)
C2 C 0.52844(11) 0.25289(9) 0.5100(2)
C3 C 0.37100(11) 0.18725(9) 0.4421(2)
H1 H 0.3042 0.1905 0.4123
C4 C 0.42418(11) 0.25694(10) 0.4652(2)
H2 H 0.3938 0.3083 0.4523
H3 H 0.1201(15) 0.0993(13) 0.251(3)
H4 H 0.0977(13) 0.0224(12) 0.286(4)
H5 H 0.2922(13) 0.1452(12) 0.924(3)
H6 H 0.1989(13) 0.1460(12) 0.928(3)
H8 H 0.5452(13) 0.0635(12) 0.520(3)
Na1F Na 0.25138(4) -0.00981(4) 1.13517(9)
Na1F_2 Na 0.25138(4) -0.00981(4) 0.13517(9)
O1F O 0.37396(7) -0.03846(6) 0.94760(18)
O1_2 O 0.37396(7) 0.03846(6) 1.44760(18)
N1F N 0.57168(9) -0.17966(7) 1.0272(2)
N2F N 0.51356(9) -0.11059(8) 1.00394(19)
O2F O 0.14265(9) -0.05597(8) 0.8130(2)
O2_2 O 0.14265(9) 0.05597(8) 1.3130(2)
C1F C 0.41740(10) -0.10811(9) 0.9635(2)
O3F O 0.57956(8) -0.31959(6) 1.03005(18)
O4F O 0.24137(9) -0.11540(8) 0.4035(2)
O4F_2 O 0.24137(9) -0.11540(8) 1.4035(2)
C2F C 0.52844(11) -0.25289(9) 1.0100(2)
C3F C 0.37100(11) -0.18725(9) 0.9421(2)
H1F H 0.3042 -0.1905 0.9123
C4F C 0.42418(11) -0.25694(10) 0.9652(2)
H2F H 0.3938 -0.3083 0.9523
H3F H 0.1201(15) -0.0993(13) 0.751(3)
H3_2 H 0.1201(15) 0.0993(13) 1.251(3)
H4F H 0.0977(13) -0.0224(12) 0.786(4)
H4_2 H 0.0977(13) 0.0224(12) 1.286(4)
H5F H 0.2922(13) -0.1452(12) 0.424(3)
H5F_2 H 0.2922(13) -0.1452(12) 1.424(3)
H6F H 0.1989(13) -0.1460(12) 0.428(3)
H6F_2 H 0.1989(13) -0.1460(12) 1.428(3)
H8F H 0.5452(13) -0.0635(12) 1.020(3)
O5 O 0.0000 0.06110(11) 0.7500
H7 H 0.0201(15) 0.0938(11) 0.848(3)
H7B H -0.0201(15) 0.0938(11) 0.652(3)
loop_
_geom_bond_atom_site_label_1
_geom_bond_atom_site_label_2
_geom_bond_site_symmetry_1
_geom_bond_site_symmetry_2
Na1 O1 1_555 1_555
O1 C1 1_555 1_555
N1 N2 1_555 1_555
N2 C1 1_555 1_555
O2 Na1 1_555 1_555
C1 C3 1_555 1_555
O3 C2 1_555 1_555
O4 Na1 1_555 1_555
C2 N1 1_555 1_555
C3 H1 1_555 1_555
C4 C2 1_555 1_555
H2 C4 1_555 1_555
O5 H7 1_555 1_555
H3 O2 1_555 1_555
H4 O2 1_555 1_555
H5 O4 1_555 1_555
H6 O4 1_555 1_555
H8 N2 1_555 1_555
Na1F O4 1_555 1_555
Na1F_2 O1 1_555 1_555
O1F Na1 1_555 1_555
O1_2 Na1F 1_555 1_555
N1F N2F 1_555 1_555
N2F C1F 1_555 1_555
O2F Na1 1_555 1_555
O2_2 Na1F 1_555 1_555
C1F O1F 1_555 1_555
O3F C2F 1_555 1_555
O4F Na1 1_555 1_555
O4F_2 Na1F 1_555 1_555
C2F N1F 1_555 1_555
C3F C1F 1_555 1_555
H1F C3F 1_555 1_555
C4F C2F 1_555 1_555
H2F C4F 1_555 1_555
H3F O2F 1_555 1_555
H3_2 O2_2 1_555 1_555
H4F O2F 1_555 1_555
H4_2 O2_2 1_555 1_555
H5F O4F 1_555 1_555
H5F_2 O4F_2 1_555 1_555
H6F O4F 1_555 1_555
H6F_2 O4F_2 1_555 1_555
H7B O5 1_555 1_555
H8F N2F 1_555 1_555
O2 Na1F_2 1_555 1_555
C3 C4 1_555 1_555
Na1F O1F 1_555 1_555
Na1F O2F 1_555 1_555
Na1F_2 O4F 1_555 1_555
C3F C4F 1_555 1_555

#END
