
#######################################################################
#
#                 Cambridge Crystallographic Data Centre
#                                CCDC 
#
#######################################################################
#
# If this CIF has been generated from an entry in the Cambridge 
# Structural Database, then it will include bibliographic, chemical, 
# crystal, experimental, refinement or atomic coordinate data resulting 
# from the CCDC's data processing and validation procedures.
#
#######################################################################

data_CEYYAH
_symmetry_cell_setting           orthorhombic
_symmetry_space_group_name_H-M   'P b c a'
_symmetry_Int_Tables_number      61
_space_group_name_Hall           '-P 2ac 2ab'
loop_
_symmetry_equiv_pos_site_id
_symmetry_equiv_pos_as_xyz
1 x,y,z
2 1/2-x,-y,1/2+z
3 -x,1/2+y,1/2-z
4 1/2+x,1/2-y,-z
5 -x,-y,-z
6 1/2+x,y,1/2-z
7 x,1/2-y,1/2+z
8 1/2-x,1/2+y,z
_cell_length_a                   15.5977(12)
_cell_length_b                   12.6063(10)
_cell_length_c                   16.9891(13)
_cell_angle_alpha                90
_cell_angle_beta                 90
_cell_angle_gamma                90
_cell_volume                     3340.55
loop_
_atom_site_label
_atom_site_type_symbol
_atom_site_fract_x
_atom_site_fract_y
_atom_site_fract_z
Cd1 Cd 0.061711(10) 0.312766(12) 0.432764(9)
O1 O -0.14939(12) 0.50637(14) 0.33632(10)
O2 O -0.04296(10) 0.39718(14) 0.36646(10)
O3 O -0.10487(10) 0.53486(12) 0.51309(9)
O4 O -0.19008(12) 0.50205(13) 0.61588(10)
O5 O 0.14210(11) 0.31286(14) 0.31412(10)
N1 N -0.31156(12) 0.25683(14) 0.50327(11)
N2 N -0.02160(12) 0.24758(15) 0.53555(11)
N3 N 0.00603(12) 0.14580(14) 0.39591(11)
C1 C -0.28644(15) 0.22936(19) 0.43062(14)
H1 H -0.3132 0.1721 0.4064
C2 C -0.22257(15) 0.28243(18) 0.39001(13)
H2 H -0.2076 0.2606 0.3396
C3 C -0.18059(13) 0.36840(17) 0.42428(12)
C4 C -0.11816(14) 0.43065(17) 0.37309(12)
C5 C -0.20355(13) 0.39444(16) 0.50191(12)
C6 C -0.16269(14) 0.48427(16) 0.54758(13)
C7 C -0.26878(14) 0.33689(17) 0.53720(13)
H3 H -0.2840 0.3552 0.5883
C8 C -0.02723(17) 0.2938(2) 0.60659(15)
H4 H 0.0033 0.3560 0.6157
C9 C -0.07674(18) 0.2524(2) 0.66654(15)
H5 H -0.0794 0.2860 0.7152
C10 C -0.12211(18) 0.1606(2) 0.65308(16)
H6 H -0.1557 0.1310 0.6927
C11 C -0.11719(16) 0.1129(2) 0.57999(14)
H7 H -0.1482 0.0514 0.5697
C12 C -0.06569(14) 0.15726(18) 0.52192(13)
C13 C -0.05611(14) 0.10785(18) 0.44265(13)
C14 C -0.10901(18) 0.0259(2) 0.41743(15)
H8 H -0.1527 0.0013 0.4499
C15 C -0.09676(19) -0.0189(2) 0.34411(16)
H9 H -0.1321 -0.0736 0.3269
C16 C -0.03170(17) 0.0181(2) 0.29695(15)
H10 H -0.0211 -0.0117 0.2478
C17 C 0.01730(16) 0.10085(19) 0.32494(14)
H11 H 0.0607 0.1271 0.2929
H14 H 0.1763(14) 0.2634(15) 0.3001(18)
H15 H 0.1663(16) 0.3708(13) 0.3275(19)
Cd1D Cd -0.061711(10) 0.687234(12) 0.567236(9)
Cd1C Cd -0.438289(10) 0.187234(12) 0.567236(9)
O3D O 0.10487(10) 0.46514(12) 0.48691(9)
N1C N 0.18844(12) 0.24317(14) 0.49673(11)
O6 O 0.23876(13) 0.13423(14) 0.26608(10)
H12 H 0.2118(19) 0.098(2) 0.2315(14)
H13 H 0.2672(18) 0.0970(19) 0.2988(13)
loop_
_geom_bond_atom_site_label_1
_geom_bond_atom_site_label_2
_geom_bond_site_symmetry_1
_geom_bond_site_symmetry_2
Cd1 O2 1_555 1_555
O1 C4 1_555 1_555
O2 C4 1_555 1_555
O3 C6 1_555 1_555
O4 C6 1_555 1_555
O5 Cd1 1_555 1_555
N1 C1 1_555 1_555
N2 Cd1 1_555 1_555
N3 Cd1 1_555 1_555
C1 H1 1_555 1_555
C2 C1 1_555 1_555
H2 C2 1_555 1_555
C3 C2 1_555 1_555
C4 C3 1_555 1_555
C5 C3 1_555 1_555
C6 C5 1_555 1_555
C7 N1 1_555 1_555
H3 C7 1_555 1_555
C8 N2 1_555 1_555
H4 C8 1_555 1_555
C9 C8 1_555 1_555
H5 C9 1_555 1_555
C10 C9 1_555 1_555
H6 C10 1_555 1_555
C11 C10 1_555 1_555
H7 C11 1_555 1_555
C12 N2 1_555 1_555
C13 N3 1_555 1_555
C14 C13 1_555 1_555
H8 C14 1_555 1_555
C15 C14 1_555 1_555
H9 C15 1_555 1_555
C16 C15 1_555 1_555
H10 C16 1_555 1_555
C17 N3 1_555 1_555
H11 C17 1_555 1_555
O6 H12 1_555 1_555
H13 O6 1_555 1_555
H14 O5 1_555 1_555
H15 O5 1_555 1_555
Cd1D O3 1_555 1_555
Cd1C N1 1_555 1_555
O3D Cd1 1_555 1_555
N1C Cd1 1_555 1_555
C5 C7 1_555 1_555
C11 C12 1_555 1_555
C12 C13 1_555 1_555
C16 C17 1_555 1_555

#END
