
#######################################################################
#
#                 Cambridge Crystallographic Data Centre
#                                CCDC 
#
#######################################################################
#
# If this CIF has been generated from an entry in the Cambridge 
# Structural Database, then it will include bibliographic, chemical, 
# crystal, experimental, refinement or atomic coordinate data resulting 
# from the CCDC's data processing and validation procedures.
#
#######################################################################

data_CEYYUC
_symmetry_cell_setting           monoclinic
_symmetry_space_group_name_H-M   'P 21'
_symmetry_Int_Tables_number      4
_space_group_name_Hall           'P 2yb'
loop_
_symmetry_equiv_pos_site_id
_symmetry_equiv_pos_as_xyz
1 x,y,z
2 -x,1/2+y,-z
_cell_length_a                   8.3551(3)
_cell_length_b                   17.1370(8)
_cell_length_c                   14.6771(6)
_cell_angle_alpha                90
_cell_angle_beta                 94.279(3)
_cell_angle_gamma                90
_cell_volume                     2095.63
loop_
_atom_site_label
_atom_site_type_symbol
_atom_site_fract_x
_atom_site_fract_y
_atom_site_fract_z
U1 U 0.69017(2) 0.188359(10) 0.374983(13)
U2 U 0.18492(2) 0.215881(11) 0.880864(12)
O1 O 0.6634(5) 0.0929(3) 0.4161(3)
O2 O 0.7194(5) 0.2827(3) 0.3340(3)
O3 O 0.2044(5) 0.1349(3) 0.8068(3)
O4 O 0.1652(5) 0.2978(3) 0.9514(3)
O5 O 0.8301(5) 0.2235(4) 0.5239(3)
O6 O 0.5687(5) 0.2504(4) 0.5081(3)
O7 O 0.9987(4) 0.2770(3) 0.7641(3)
O8 O 0.8840(5) 0.1973(4) 0.8563(3)
O9 O 0.4733(5) 0.2427(4) 0.8792(3)
O10 O 0.3174(5) 0.2983(3) 0.7715(3)
O11 O 0.6382(6) 0.4487(3) 0.5690(3)
H1 H 0.6921 0.4974 0.5662
O12 O 0.5869(6) 0.4835(3) 0.7108(3)
O13 O 0.3855(5) 0.1995(4) 0.3496(3)
O14 O 0.5195(5) 0.1626(3) 0.2330(3)
O15 O -0.1619(5) 0.1345(3) 0.2521(3)
O16 O -0.0179(5) 0.1646(3) 0.3788(3)
O17 O -0.0063(5) -0.0632(3) 0.2363(3)
H2 H -0.0290 -0.1181 0.2215
O18 O 0.1447(5) -0.0752(3) 0.1177(3)
O19 O 0.0826(5) 0.1360(3) 0.0018(3)
O20 O 0.3423(5) 0.1510(3) 0.0053(3)
C1 C 0.7229(8) 0.2996(4) 0.6416(4)
H3 H 0.8199 0.3319 0.6441
C2 C 0.7168(7) 0.2518(4) 0.7311(4)
H4 H 0.6609 0.2021 0.7196
C3 C 0.5990(8) 0.3158(4) 0.7670(4)
H5 H 0.6570 0.3529 0.8082
C4 C 0.5803(8) 0.3477(5) 0.6676(4)
H6 H 0.4808 0.3283 0.6358
C5 C 0.7062(7) 0.2544(4) 0.5525(4)
C6 C 0.8719(6) 0.2399(4) 0.7867(4)
C7 C 0.4580(8) 0.2840(5) 0.8080(4)
C8 C 0.5966(9) 0.4353(5) 0.6533(4)
C9 C 0.2324(6) 0.1516(4) 0.2166(4)
H7 H 0.1770 0.1995 0.1958
C10 C 0.1153(7) 0.0957(4) 0.2628(4)
H8 H 0.1728 0.0629 0.3092
C11 C 0.0871(8) 0.0525(4) 0.1721(4)
H9 H -0.0097 0.0729 0.1385
C12 C 0.2367(7) 0.0916(4) 0.1363(4)
H10 H 0.3310 0.0576 0.1441
C13 C 0.3903(7) 0.1707(4) 0.2699(4)
C14 C -0.0303(7) 0.1342(4) 0.3001(4)
C15 C 0.0829(8) -0.0341(4) 0.1712(4)
C16 C 0.2183(7) 0.1257(4) 0.0418(4)
U1_2 U -0.30983(2) 0.188359(10) 0.374983(13)
U2_2 U 0.18492(2) 0.215881(11) -0.119136(12)
U2_3 U 1.18492(2) 0.215881(11) 0.880864(12)
O7_2 O -0.0013(4) 0.2770(3) 0.7641(3)
O8_2 O -0.1160(5) 0.1973(4) 0.8563(3)
O15_2 O 0.8381(5) 0.1345(3) 0.2521(3)
O16_2 O 0.9821(5) 0.1646(3) 0.3788(3)
O19_2 O 0.0826(5) 0.1360(3) 1.0018(3)
O20_2 O 0.3423(5) 0.1510(3) 1.0053(3)
O21 O 1.0876(6) 0.1311(4) 0.6052(3)
H11 H 1.1133 0.1489 0.6695
H12 H 0.9841 0.1565 0.5910
O22 O 0.6914(6) 0.5887(3) 0.5144(3)
H13 H 0.6738 0.6218 0.5684
H14 H 0.7831 0.6051 0.4799
O23 O 0.5829(8) 0.2767(4) 0.0851(4)
H15 H 0.5719 0.2296 0.1068
H16 H 0.5616 0.2687 0.0269
N1 N 0.6914(7) 0.0733(4) 0.9251(4)
H17 H 0.7405 0.1054 0.8796
N2 N 0.6763(8) 0.0533(3) 0.7459(4)
C17 C 0.7087(9) 0.0909(6) 1.0133(5)
H18 H 0.7577 0.1376 1.0319
C18 C 0.6552(10) 0.0410(5) 1.0771(5)
H19 H 0.6665 0.0533 1.1389
C19 C 0.5847(10) -0.0274(6) 1.0478(5)
H20 H 0.5504 -0.0625 1.0905
C20 C 0.5632(10) -0.0455(5) 0.9550(5)
H21 H 0.5122 -0.0914 0.9352
C21 C 0.6198(8) 0.0067(4) 0.8938(4)
C22 C 0.6083(8) -0.0045(4) 0.7922(4)
C23 C 0.5285(10) -0.0654(4) 0.7489(4)
H22 H 0.4756 -0.1022 0.7822
C24 C 0.5275(10) -0.0713(5) 0.6541(5)
H23 H 0.4788 -0.1135 0.6234
C25 C 0.5997(8) -0.0139(4) 0.6073(4)
H24 H 0.5996 -0.0159 0.5440
C26 C 0.6718(9) 0.0463(4) 0.6550(5)
H25 H 0.7210 0.0849 0.6224
N3 N 0.1372(7) 0.3228(4) 0.4132(3)
H26 H 0.1394 0.2757 0.3744
N4 N 0.0503(9) 0.3288(4) 0.2379(4)
C27 C 0.1865(9) 0.3090(5) 0.5018(4)
H27 H 0.2434 0.2638 0.5179
C28 C 0.1523(8) 0.3619(5) 0.5673(5)
H28 H 0.1885 0.3545 0.6282
C29 C 0.0606(10) 0.4279(6) 0.5401(5)
H29 H 0.0321 0.4637 0.5837
C30 C 0.0129(9) 0.4400(5) 0.4494(5)
H30 H -0.0461 0.4842 0.4317
C31 C 0.0530(8) 0.3859(4) 0.3843(4)
C32 C 0.0119(9) 0.3906(4) 0.2845(4)
C33 C -0.0717(11) 0.4541(5) 0.2460(5)
H31 H -0.1066 0.4943 0.2823
C34 C -0.1014(12) 0.4557(5) 0.1512(5)
H32 H -0.1489 0.4993 0.1226
C35 C -0.0608(13) 0.3936(5) 0.1013(5)
H33 H -0.0823 0.3931 0.0382
C36 C 0.0143(14) 0.3301(6) 0.1462(5)
H34 H 0.0407 0.2870 0.1120
loop_
_geom_bond_atom_site_label_1
_geom_bond_atom_site_label_2
_geom_bond_site_symmetry_1
_geom_bond_site_symmetry_2
U1 O1 1_555 1_555
U2 O3 1_555 1_555
O2 U1 1_555 1_555
O4 U2 1_555 1_555
O5 U1 1_555 1_555
O6 U1 1_555 1_555
O7 C6 1_555 1_555
O8 C6 1_555 1_555
O9 U2 1_555 1_555
O10 U2 1_555 1_555
O11 H1 1_555 1_555
O12 C8 1_555 1_555
O13 U1 1_555 1_555
O14 U1 1_555 1_555
O15 C14 1_555 1_555
O16 C14 1_555 1_555
O17 H2 1_555 1_555
O18 C15 1_555 1_555
O19 C16 1_555 1_555
O20 C16 1_555 1_555
C1 H3 1_555 1_555
C2 C1 1_555 1_555
H4 C2 1_555 1_555
C3 C2 1_555 1_555
H5 C3 1_555 1_555
C4 C1 1_555 1_555
H6 C4 1_555 1_555
C5 O5 1_555 1_555
C6 C2 1_555 1_555
C7 O9 1_555 1_555
C8 O11 1_555 1_555
C9 H7 1_555 1_555
C10 C9 1_555 1_555
H8 C10 1_555 1_555
C11 C10 1_555 1_555
H9 C11 1_555 1_555
C12 C9 1_555 1_555
H10 C12 1_555 1_555
C13 O13 1_555 1_555
C14 C10 1_555 1_555
C15 O17 1_555 1_555
C16 C12 1_555 1_555
O21 H11 1_555 1_555
H12 O21 1_555 1_555
O22 H13 1_555 1_555
H14 O22 1_555 1_555
O23 H15 1_555 1_555
H16 O23 1_555 1_555
N1 H17 1_555 1_555
N2 C22 1_555 1_555
C17 N1 1_555 1_555
H18 C17 1_555 1_555
C18 C17 1_555 1_555
H19 C18 1_555 1_555
C19 C18 1_555 1_555
H20 C19 1_555 1_555
C20 C19 1_555 1_555
H21 C20 1_555 1_555
C21 N1 1_555 1_555
C22 C21 1_555 1_555
C23 C22 1_555 1_555
H22 C23 1_555 1_555
C24 C23 1_555 1_555
H23 C24 1_555 1_555
C25 C24 1_555 1_555
H24 C25 1_555 1_555
C26 N2 1_555 1_555
H25 C26 1_555 1_555
N3 H26 1_555 1_555
N4 C32 1_555 1_555
C27 N3 1_555 1_555
H27 C27 1_555 1_555
C28 C27 1_555 1_555
H28 C28 1_555 1_555
C29 C28 1_555 1_555
H29 C29 1_555 1_555
C30 C29 1_555 1_555
H30 C30 1_555 1_555
C31 N3 1_555 1_555
C32 C31 1_555 1_555
C33 C32 1_555 1_555
H31 C33 1_555 1_555
C34 C33 1_555 1_555
H32 C34 1_555 1_555
C35 C34 1_555 1_555
H33 C35 1_555 1_555
C36 N4 1_555 1_555
H34 C36 1_555 1_555
U1_2 O15 1_555 1_555
U2_2 O19 1_555 1_555
U2_3 O7 1_555 1_555
O7_2 U2 1_555 1_555
O8_2 U2 1_555 1_555
O15_2 U1 1_555 1_555
O16_2 U1 1_555 1_555
O19_2 U2 1_555 1_555
O20_2 U2 1_555 1_555
O6 C5 1_555 1_555
O8 U2_3 1_555 1_555
O10 C7 1_555 1_555
O14 C13 1_555 1_555
O16 U1_2 1_555 1_555
O20 U2_2 1_555 1_555
C1 C5 1_555 1_555
C3 C4 1_555 1_555
C3 C7 1_555 1_555
C4 C8 1_555 1_555
C9 C13 1_555 1_555
C11 C12 1_555 1_555
C11 C15 1_555 1_555
C20 C21 1_555 1_555
C25 C26 1_555 1_555
C30 C31 1_555 1_555
C35 C36 1_555 1_555

#END
