
#######################################################################
#
#                 Cambridge Crystallographic Data Centre
#                                CCDC 
#
#######################################################################
#
# If this CIF has been generated from an entry in the Cambridge 
# Structural Database, then it will include bibliographic, chemical, 
# crystal, experimental, refinement or atomic coordinate data resulting 
# from the CCDC's data processing and validation procedures.
#
#######################################################################

data_CEYYOW
_symmetry_cell_setting           triclinic
_symmetry_space_group_name_H-M   'P -1'
_symmetry_Int_Tables_number      2
_space_group_name_Hall           '-P 1'
loop_
_symmetry_equiv_pos_site_id
_symmetry_equiv_pos_as_xyz
1 x,y,z
2 -x,-y,-z
_cell_length_a                   8.5196(5)
_cell_length_b                   9.9247(9)
_cell_length_c                   11.8694(10)
_cell_angle_alpha                79.401(4)
_cell_angle_beta                 80.648(5)
_cell_angle_gamma                83.932(5)
_cell_volume                     970.397
loop_
_atom_site_label
_atom_site_type_symbol
_atom_site_fract_x
_atom_site_fract_y
_atom_site_fract_z
U1 U 1.18740(3) 0.57788(2) 0.038519(18)
U2 U 0.70423(3) 0.69432(2) 0.512094(18)
O1 O 1.2145(6) 0.4266(4) 0.1389(4)
O2 O 1.1673(5) 0.7341(4) -0.0618(4)
O3 O 0.8135(6) 0.5372(4) 0.5583(4)
O4 O 0.5962(6) 0.8504(4) 0.4635(4)
O5 O 1.0548(5) 0.7018(4) 0.1864(4)
O6 O 0.8530(5) 0.7314(4) 0.3249(4)
O7 O 0.5726(5) 0.5849(4) 0.3997(3)
O8 O 0.5236(5) 0.3835(4) 0.3631(3)
O9 O 0.4096(5) 0.6687(4) 0.1000(4)
O10 O 0.5904(5) 0.4938(4) 0.0879(3)
O11 O 0.9074(5) 0.5545(4) 0.0840(3)
N1 N 0.6816(7) 0.8136(5) 0.6944(4)
N2 N 0.9512(7) 0.7982(5) 0.5416(4)
C1 C 0.9147(8) 0.6855(6) 0.2356(5)
C2 C 0.8139(7) 0.5977(6) 0.1822(5)
C3 C 0.7726(8) 0.4695(6) 0.2749(5)
H1 H 0.7756 0.3916 0.2356
H2 H 0.8554 0.4499 0.3242
C4 C 0.6129(8) 0.4802(6) 0.3513(5)
C5 C 0.6680(7) 0.6907(6) 0.1471(5)
H3 H 0.6163 0.7332 0.2123
H4 H 0.7032 0.7634 0.0843
C6 C 0.5475(7) 0.6117(6) 0.1084(5)
C7 C 0.5411(8) 0.8279(6) 0.7639(5)
H5 H 0.4596 0.7748 0.7592
C8 C 0.5133(9) 0.9192(6) 0.8427(5)
H6 H 0.4145 0.9279 0.8885
C9 C 0.6342(10) 0.9958(7) 0.8513(6)
H7 H 0.6179 1.0582 0.9025
C10 C 0.7781(9) 0.9798(7) 0.7843(5)
H8 H 0.8615 1.0305 0.7899
C11 C 0.7998(8) 0.8866(6) 0.7070(5)
C12 C 0.9544(8) 0.8638(6) 0.6320(5)
C13 C 1.0972(9) 0.9071(6) 0.6522(6)
H9 H 1.0982 0.9512 0.7148
C14 C 1.2345(9) 0.8841(6) 0.5794(6)
H10 H 1.3297 0.9137 0.5909
C15 C 1.2307(8) 0.8166(6) 0.4887(6)
H11 H 1.3235 0.8000 0.4384
C16 C 1.0907(8) 0.7742(6) 0.4732(5)
H12 H 1.0907 0.7265 0.4127
U1_2 U 0.18740(3) 0.57788(2) 0.038519(18)
U1A U 0.81260(3) 0.42212(2) -0.038519(18)
U2A U 0.29577(3) 0.30568(2) 0.487906(18)
O8A O 0.4764(5) 0.6165(4) 0.6369(3)
O9_2 O 1.4096(5) 0.6687(4) 0.1000(4)
O10A O 1.4096(5) 0.5062(4) -0.0879(3)
O11A O 1.0926(5) 0.4455(4) -0.0840(3)
O12 O 0.905(2) 0.9680(15) 0.0564(14)
loop_
_geom_bond_atom_site_label_1
_geom_bond_atom_site_label_2
_geom_bond_site_symmetry_1
_geom_bond_site_symmetry_2
U1 O1 1_555 1_555
U2 O3 1_555 1_555
O2 U1 1_555 1_555
O4 U2 1_555 1_555
O5 U1 1_555 1_555
O6 U2 1_555 1_555
O7 U2 1_555 1_555
O8 C4 1_555 1_555
O9 C6 1_555 1_555
O10 C6 1_555 1_555
O11 U1 1_555 1_555
N1 U2 1_555 1_555
N2 U2 1_555 1_555
C1 O5 1_555 1_555
C2 O11 1_555 1_555
C3 C2 1_555 1_555
H1 C3 1_555 1_555
H2 C3 1_555 1_555
C4 O7 1_555 1_555
C5 C2 1_555 1_555
H3 C5 1_555 1_555
H4 C5 1_555 1_555
C6 C5 1_555 1_555
C7 N1 1_555 1_555
H5 C7 1_555 1_555
C8 C7 1_555 1_555
H6 C8 1_555 1_555
C9 C8 1_555 1_555
H7 C9 1_555 1_555
C10 C9 1_555 1_555
H8 C10 1_555 1_555
C11 N1 1_555 1_555
C12 N2 1_555 1_555
C13 C12 1_555 1_555
H9 C13 1_555 1_555
C14 C13 1_555 1_555
H10 C14 1_555 1_555
C15 C14 1_555 1_555
H11 C15 1_555 1_555
C16 N2 1_555 1_555
H12 C16 1_555 1_555
U1_2 O9 1_555 1_555
U1A O10 1_555 1_555
U2A O8 1_555 1_555
O8A U2 1_555 1_555
O9_2 U1 1_555 1_555
O10A U1 1_555 1_555
O11A U1 1_555 1_555
O6 C1 1_555 1_555
O11 U1A 1_555 1_555
C1 C2 1_555 1_555
C3 C4 1_555 1_555
C10 C11 1_555 1_555
C11 C12 1_555 1_555
C15 C16 1_555 1_555
U1A O11A 1_555 1_555

#END
