
#######################################################################
#
#                 Cambridge Crystallographic Data Centre
#                                CCDC 
#
#######################################################################
#
# If this CIF has been generated from an entry in the Cambridge 
# Structural Database, then it will include bibliographic, chemical, 
# crystal, experimental, refinement or atomic coordinate data resulting 
# from the CCDC's data processing and validation procedures.
#
#######################################################################

data_CEYYUB
_symmetry_cell_setting           monoclinic
_symmetry_space_group_name_H-M   'P 21/n'
_symmetry_Int_Tables_number      14
_space_group_name_Hall           '-P 2yn'
loop_
_symmetry_equiv_pos_site_id
_symmetry_equiv_pos_as_xyz
1 x,y,z
2 1/2-x,1/2+y,1/2-z
3 -x,-y,-z
4 1/2+x,1/2-y,1/2+z
_cell_length_a                   9.848(2)
_cell_length_b                   11.844(2)
_cell_length_c                   21.444(4)
_cell_angle_alpha                90
_cell_angle_beta                 92.09(3)
_cell_angle_gamma                90
_cell_volume                     2499.56
loop_
_atom_site_label
_atom_site_type_symbol
_atom_site_fract_x
_atom_site_fract_y
_atom_site_fract_z
Co1 Co 0.43074(3) 0.15393(3) 0.180495(15)
Co2 Co 0.58702(3) 0.05414(3) -0.059700(14)
C1 C 0.7569(2) 0.3937(2) 0.29949(11)
C2 C 0.8102(2) 0.1256(2) 0.03749(12)
C3 C 0.6190(3) 0.2657(2) 0.01012(11)
H1 H 0.5960 0.3457 0.0148
C4 C 0.6153(3) 0.2320(2) 0.28791(12)
H2 H 0.5870 0.1628 0.3032
C5 C 0.8683(2) 0.4588(2) 0.33435(12)
C6 C 0.6017(3) 0.3687(2) 0.21276(12)
H3 H 0.5639 0.3960 0.1753
C7 C 0.7131(3) 0.2911(2) 0.32195(12)
H4 H 0.7491 0.2624 0.3594
C8 C 0.9052(3) 0.0784(3) 0.07616(14)
H5 H 0.9564 0.1152 0.1073
C9 C 0.5246(2) 0.1952(2) 0.04883(11)
C10 C 0.6994(3) 0.4329(2) 0.24382(13)
H6 H 0.7263 0.5018 0.2275
C11 C 0.8218(3) -0.0523(2) 0.01411(14)
H7 H 0.8061 -0.1219 -0.0048
C12 C 0.7659(3) 0.2467(2) 0.03401(13)
H8 H 0.7767 0.2796 0.0753
H9 H 0.8261 0.2869 0.0069
C13 C 0.2168(2) -0.0173(2) 0.16952(12)
C14 C 0.2084(3) 0.0311(2) 0.23592(12)
H10 H 0.1799 -0.0296 0.2636
C15 C 0.1266(3) 0.2247(3) 0.19605(13)
C16 C 0.2258(3) 0.3328(2) 0.13051(15)
H11 H 0.2909 0.3656 0.1059
C17 C 0.0315(3) 0.2976(3) 0.17239(16)
H12 H -0.0595 0.3013 0.1825
C18 C 0.1070(3) 0.1290(3) 0.24046(15)
H13 H 0.0160 0.0993 0.2334
H14 H 0.1129 0.1586 0.2827
N1 N 0.6032(2) 0.23419(19) -0.05624(10)
H15 H 0.5280 0.2663 -0.0735
H16 H 0.6755 0.2575 -0.0772
N2 N 0.5587(2) 0.26923(18) 0.23377(10)
N3 N 0.7584(2) 0.04197(19) -0.00150(10)
N4 N 0.9124(2) -0.0334(2) 0.06113(12)
H17 H 0.9654 -0.0827 0.0786
N5 N 0.3446(2) 0.0694(2) 0.25743(10)
H18 H 0.3965 0.0101 0.2694
H19 H 0.3384 0.1168 0.2900
N6 N 0.2494(2) 0.2484(2) 0.16994(11)
N7 N 0.0958(3) 0.3643(2) 0.13093(14)
H20 H 0.0590 0.4174 0.1089
O1 O 0.48110(17) 0.10343(15) 0.02543(8)
O2 O 0.50110(19) 0.23138(16) 0.10192(8)
O3 O 0.91496(19) 0.41631(17) 0.38376(9)
O4 O 0.9032(2) 0.54893(17) 0.30946(10)
O9 O 0.31916(18) 0.01342(16) 0.13892(8)
O10 O 0.1264(2) -0.08299(19) 0.15130(10)
Co1A Co 1.06926(3) 0.65393(3) 0.319505(15)
Co2B Co 0.41298(3) -0.05414(3) 0.059700(14)
Co2C Co 1.08702(3) 0.44586(3) 0.440300(14)
O1B O 0.51890(17) -0.10343(15) -0.02543(8)
O3C O 0.41496(19) 0.08369(17) -0.11624(9)
O4A O 0.5968(2) 0.04893(17) 0.19054(10)
O9B O 0.68084(18) -0.01342(16) -0.13892(8)
O5 O 0.1329(4) -0.5195(3) -0.09462(13)
O6 O 0.1807(4) -0.5097(2) 0.01218(13)
O7 O 0.0992(4) -0.6771(3) -0.03423(17)
O8 O 0.3166(3) -0.6158(4) -0.0508(2)
Cl1 Cl 0.18442(9) -0.57950(7) -0.04180(4)
O11 O 0.1465(2) -0.3093(2) 0.12152(11)
loop_
_geom_bond_atom_site_label_1
_geom_bond_atom_site_label_2
_geom_bond_site_symmetry_1
_geom_bond_site_symmetry_2
Co1 N2 1_555 1_555
Co2 N1 1_555 1_555
C1 C5 1_555 1_555
C2 C8 1_555 1_555
C3 H1 1_555 1_555
C4 H2 1_555 1_555
C5 O3 1_555 1_555
C6 H3 1_555 1_555
C7 C1 1_555 1_555
H4 C7 1_555 1_555
C8 H5 1_555 1_555
C9 C3 1_555 1_555
C10 C1 1_555 1_555
H6 C10 1_555 1_555
C11 H7 1_555 1_555
C12 C2 1_555 1_555
H8 C12 1_555 1_555
H9 C12 1_555 1_555
C13 C14 1_555 1_555
C14 H10 1_555 1_555
C15 C17 1_555 1_555
C16 H11 1_555 1_555
C17 H12 1_555 1_555
C18 C14 1_555 1_555
H13 C18 1_555 1_555
H14 C18 1_555 1_555
N1 C3 1_555 1_555
H15 N1 1_555 1_555
H16 N1 1_555 1_555
N2 C4 1_555 1_555
N3 Co2 1_555 1_555
N4 C8 1_555 1_555
H17 N4 1_555 1_555
N5 Co1 1_555 1_555
H18 N5 1_555 1_555
H19 N5 1_555 1_555
N6 Co1 1_555 1_555
N7 C16 1_555 1_555
H20 N7 1_555 1_555
O1 Co2 1_555 1_555
O2 Co1 1_555 1_555
O3 Co2C 1_555 1_555
O4 C5 1_555 1_555
O5 Cl1 1_555 1_555
O6 Cl1 1_555 1_555
O7 Cl1 1_555 1_555
O8 Cl1 1_555 1_555
O9 Co1 1_555 1_555
O10 C13 1_555 1_555
Co1A O4 1_555 1_555
Co2B O1 1_555 1_555
O1B Co2 1_555 1_555
O3C Co2 1_555 1_555
O4A Co1 1_555 1_555
O9B Co2 1_555 1_555
C2 N3 1_555 1_555
C3 C12 1_555 1_555
C4 C7 1_555 1_555
C6 C10 1_555 1_555
C6 N2 1_555 1_555
C9 O1 1_555 1_555
C9 O2 1_555 1_555
C11 N3 1_555 1_555
C11 N4 1_555 1_555
C13 O9 1_555 1_555
C14 N5 1_555 1_555
C15 C18 1_555 1_555
C15 N6 1_555 1_555
C16 N6 1_555 1_555
C17 N7 1_555 1_555
O9 Co2B 1_555 1_555
Co2B O1B 1_555 1_555

#END
