
#######################################################################
#
#                 Cambridge Crystallographic Data Centre
#                                CCDC 
#
#######################################################################
#
# If this CIF has been generated from an entry in the Cambridge 
# Structural Database, then it will include bibliographic, chemical, 
# crystal, experimental, refinement or atomic coordinate data resulting 
# from the CCDC's data processing and validation procedures.
#
#######################################################################

data_CEYZIR
_symmetry_cell_setting           monoclinic
_symmetry_space_group_name_H-M   'P 21/c'
_symmetry_Int_Tables_number      14
_space_group_name_Hall           '-P 2ybc'
loop_
_symmetry_equiv_pos_site_id
_symmetry_equiv_pos_as_xyz
1 x,y,z
2 -x,1/2+y,1/2-z
3 -x,-y,-z
4 x,1/2-y,1/2+z
_cell_length_a                   6.9784(3)
_cell_length_b                   11.8557(5)
_cell_length_c                   18.6374(4)
_cell_angle_alpha                90
_cell_angle_beta                 98.759(3)
_cell_angle_gamma                90
_cell_volume                     1523.96
loop_
_atom_site_label
_atom_site_type_symbol
_atom_site_fract_x
_atom_site_fract_y
_atom_site_fract_z
U1 U 0.459849(17) 0.535329(11) 0.329586(5)
O1 O 0.2044(4) 0.5383(2) 0.32423(14)
O2 O 0.7156(4) 0.5294(2) 0.33637(13)
O3 O 0.4581(4) 0.4023(2) 0.42977(11)
O4 O 0.4932(4) 0.3769(2) 0.55038(11)
O5 O 0.4713(4) 0.3414(2) 0.28958(11)
O6 O 0.5244(4) 0.2246(2) 0.20190(12)
O7 O 0.4224(4) 0.5122(2) 0.20342(12)
O8 O 0.4313(4) 0.4027(2) 0.10550(11)
C1 C 0.4858(5) 0.4373(3) 0.49453(17)
C2 C 0.4823(5) 0.3193(3) 0.22413(16)
C3 C 0.4414(5) 0.4190(3) 0.17112(16)
O3B O 0.5419(4) 0.5977(2) 0.57023(11)
O4B O 0.5068(4) 0.6231(2) 0.44962(11)
C1B C 0.5142(5) 0.5627(3) 0.50547(17)
U1B U 0.540151(17) 0.464671(11) 0.670414(5)
O1B O 0.7956(4) 0.4617(2) 0.67577(14)
O2B O 0.2844(4) 0.4706(2) 0.66363(13)
O5B O 0.5287(4) 0.6586(2) 0.71042(11)
O6B O 0.4756(4) 0.7754(2) 0.79810(12)
O7B O 0.5776(4) 0.4878(2) 0.79658(12)
O8B O 0.5687(4) 0.5973(2) 0.89450(11)
C2B C 0.5177(5) 0.6807(3) 0.77587(16)
C3B C 0.5586(5) 0.5810(3) 0.82888(16)
U1A U 0.540151(17) 0.035329(11) 0.170414(5)
U1C U 0.459849(17) 0.964671(11) 0.829586(5)
O6A O 0.4756(4) 0.7246(2) 0.29810(12)
O6C O 0.5244(4) 0.2754(2) 0.70190(12)
N1 N 0.2635(4) 0.4576(3) -0.02747(15)
H1 H 0.2831 0.4653 0.0265
N2 N 0.2036(4) 0.6491(3) 0.04517(14)
C4 C 0.3014(5) 0.3614(3) -0.05805(18)
H2 H 0.3675 0.3047 -0.0300
C5 C 0.2429(5) 0.3440(4) -0.13235(18)
H3 H 0.2686 0.2763 -0.1542
C6 C 0.1452(5) 0.4310(4) -0.17256(18)
H4 H 0.1028 0.4207 -0.2219
C7 C 0.1095(5) 0.5336(3) -0.14014(18)
C8 C 0.1704(5) 0.5445(3) -0.06535(18)
C9 C 0.1395(5) 0.6462(3) -0.02758(16)
C10 C 0.0446(5) 0.7358(3) -0.06633(18)
C11 C 0.0086(5) 0.8330(4) -0.0273(2)
H5 H -0.0566 0.8942 -0.0509
C12 C 0.0713(6) 0.8361(4) 0.0462(2)
H6 H 0.0488 0.8991 0.0734
C13 C 0.1705(5) 0.7414(4) 0.07959(19)
H7 H 0.2151 0.7450 0.1292
C14 C 0.0160(5) 0.6277(4) -0.17901(18)
H8 H -0.0245 0.6221 -0.2288
C15 C -0.0141(5) 0.7242(4) -0.14429(18)
H9 H -0.0735 0.7847 -0.1707
loop_
_geom_bond_atom_site_label_1
_geom_bond_atom_site_label_2
_geom_bond_site_symmetry_1
_geom_bond_site_symmetry_2
U1 O1 1_555 1_555
O2 U1 1_555 1_555
O3 U1 1_555 1_555
O4 C1 1_555 1_555
O5 U1 1_555 1_555
O6 C2 1_555 1_555
O7 U1 1_555 1_555
O8 C3 1_555 1_555
C1 O3 1_555 1_555
C2 O5 1_555 1_555
C3 O7 1_555 1_555
N1 H1 1_555 1_555
N2 C9 1_555 1_555
C4 N1 1_555 1_555
H2 C4 1_555 1_555
C5 C4 1_555 1_555
H3 C5 1_555 1_555
C6 C5 1_555 1_555
H4 C6 1_555 1_555
C7 C6 1_555 1_555
C8 N1 1_555 1_555
C9 C8 1_555 1_555
C10 C9 1_555 1_555
C11 C10 1_555 1_555
H5 C11 1_555 1_555
C12 C11 1_555 1_555
H6 C12 1_555 1_555
C13 N2 1_555 1_555
H7 C13 1_555 1_555
C14 C7 1_555 1_555
H8 C14 1_555 1_555
C15 C10 1_555 1_555
H9 C15 1_555 1_555
O3B C1B 1_555 1_555
O4B U1 1_555 1_555
C1B C1 1_555 1_555
U1B O4 1_555 1_555
O1B U1B 1_555 1_555
O2B U1B 1_555 1_555
O5B U1B 1_555 1_555
O6B C2B 1_555 1_555
O7B U1B 1_555 1_555
O8B C3B 1_555 1_555
C2B O5B 1_555 1_555
C3B O7B 1_555 1_555
U1A O6 1_555 1_555
U1C O6B 1_555 1_555
O6A U1 1_555 1_555
O6C U1B 1_555 1_555
C2 C3 1_555 1_555
C7 C8 1_555 1_555
C12 C13 1_555 1_555
C14 C15 1_555 1_555
O3B U1B 1_555 1_555
O4B C1B 1_555 1_555
C2B C3B 1_555 1_555

#END
