
#######################################################################
#
#                 Cambridge Crystallographic Data Centre
#                                CCDC 
#
#######################################################################
#
# If this CIF has been generated from an entry in the Cambridge 
# Structural Database, then it will include bibliographic, chemical, 
# crystal, experimental, refinement or atomic coordinate data resulting 
# from the CCDC's data processing and validation procedures.
#
#######################################################################

data_CEYZAJ
_symmetry_cell_setting           monoclinic
_symmetry_space_group_name_H-M   'P 21/n'
_symmetry_Int_Tables_number      14
_space_group_name_Hall           '-P 2yn'
loop_
_symmetry_equiv_pos_site_id
_symmetry_equiv_pos_as_xyz
1 x,y,z
2 1/2-x,1/2+y,1/2-z
3 -x,-y,-z
4 1/2+x,1/2-y,1/2+z
_cell_length_a                   7.4613(4)
_cell_length_b                   9.0274(6)
_cell_length_c                   24.1685(17)
_cell_angle_alpha                90
_cell_angle_beta                 92.346(4)
_cell_angle_gamma                90
_cell_volume                     1626.53
loop_
_atom_site_label
_atom_site_type_symbol
_atom_site_fract_x
_atom_site_fract_y
_atom_site_fract_z
U1 U 0.22647(5) 0.19633(4) 0.151281(13)
O1 O 0.0474(9) 0.0853(8) 0.1749(3)
O2 O 0.3960(8) 0.3161(8) 0.1265(2)
O3 O 0.4902(9) 0.0663(8) 0.1934(2)
O4 O 0.3445(9) 0.2172(8) 0.2466(2)
O5 O 0.3872(8) -0.0912(9) 0.2999(3)
O6 O 0.5140(9) -0.1324(8) 0.3818(2)
N1 N 0.1782(11) 0.1687(9) 0.0424(3)
N2 N 0.2842(11) -0.0614(9) 0.1062(3)
C1 C 0.4780(13) 0.1338(11) 0.2389(4)
C2 C 0.6329(13) 0.1378(11) 0.2803(4)
C3 C 0.6478(12) 0.0492(11) 0.3237(4)
H1 H 0.7483 0.0566 0.3476
C4 C 0.5089(14) -0.0607(12) 0.3351(4)
C5 C 0.7719(16) 0.2505(14) 0.2680(5)
H2 H 0.8637 0.2503 0.2970
H3 H 0.7174 0.3468 0.2656
H4 H 0.8240 0.2270 0.2334
C6 C 0.1286(14) 0.2842(12) 0.0106(4)
H5 H 0.0912 0.3703 0.0278
C7 C 0.1305(13) 0.2812(13) -0.0474(4)
H6 H 0.0955 0.3643 -0.0679
C8 C 0.1839(15) 0.1562(14) -0.0735(4)
H7 H 0.1845 0.1532 -0.1119
C9 C 0.2380(13) 0.0319(13) -0.0422(4)
C10 C 0.2937(13) -0.1039(13) -0.0661(4)
H8 H 0.3062 -0.1099 -0.1042
C11 C 0.3290(15) -0.2249(13) -0.0339(4)
H9 H 0.3554 -0.3147 -0.0505
C12 C 0.3262(13) -0.2163(12) 0.0258(4)
C13 C 0.2845(12) -0.0807(12) 0.0504(4)
C14 C 0.2336(12) 0.0445(11) 0.0165(4)
C15 C 0.3570(14) -0.3364(12) 0.0611(5)
H10 H 0.3861 -0.4281 0.0463
C16 C 0.3450(15) -0.3211(13) 0.1177(5)
H11 H 0.3599 -0.4018 0.1413
C17 C 0.3096(13) -0.1796(12) 0.1381(4)
H12 H 0.3036 -0.1678 0.1762
U1A U 0.27353(5) -0.30367(4) 0.348719(13)
O5A O 0.1128(8) 0.4088(9) 0.2001(3)
O6A O -0.0140(9) 0.3676(8) 0.1182(2)
loop_
_geom_bond_atom_site_label_1
_geom_bond_atom_site_label_2
_geom_bond_site_symmetry_1
_geom_bond_site_symmetry_2
U1 O1 1_555 1_555
O2 U1 1_555 1_555
O3 U1 1_555 1_555
O4 U1 1_555 1_555
O5 C4 1_555 1_555
O6 C4 1_555 1_555
N1 U1 1_555 1_555
N2 U1 1_555 1_555
C1 O3 1_555 1_555
C2 C1 1_555 1_555
C3 C2 1_555 1_555
H1 C3 1_555 1_555
C4 C3 1_555 1_555
C5 C2 1_555 1_555
H2 C5 1_555 1_555
H3 C5 1_555 1_555
H4 C5 1_555 1_555
C6 N1 1_555 1_555
H5 C6 1_555 1_555
C7 C6 1_555 1_555
H6 C7 1_555 1_555
C8 C7 1_555 1_555
H7 C8 1_555 1_555
C9 C8 1_555 1_555
C10 C9 1_555 1_555
H8 C10 1_555 1_555
C11 C10 1_555 1_555
H9 C11 1_555 1_555
C12 C11 1_555 1_555
C13 N2 1_555 1_555
C14 N1 1_555 1_555
C15 C12 1_555 1_555
H10 C15 1_555 1_555
C16 C15 1_555 1_555
H11 C16 1_555 1_555
C17 N2 1_555 1_555
H12 C17 1_555 1_555
U1A O5 1_555 1_555
O5A U1 1_555 1_555
O6A U1 1_555 1_555
O4 C1 1_555 1_555
O6 U1A 1_555 1_555
C9 C14 1_555 1_555
C12 C13 1_555 1_555
C13 C14 1_555 1_555
C16 C17 1_555 1_555

#END
