
#######################################################################
#
#                 Cambridge Crystallographic Data Centre
#                                CCDC 
#
#######################################################################
#
# If this CIF has been generated from an entry in the Cambridge 
# Structural Database, then it will include bibliographic, chemical, 
# crystal, experimental, refinement or atomic coordinate data resulting 
# from the CCDC's data processing and validation procedures.
#
#######################################################################

data_CEYZOX
_symmetry_cell_setting           monoclinic
_symmetry_space_group_name_H-M   'P 21/n'
_symmetry_Int_Tables_number      14
_space_group_name_Hall           '-P 2yn'
loop_
_symmetry_equiv_pos_site_id
_symmetry_equiv_pos_as_xyz
1 x,y,z
2 1/2-x,1/2+y,1/2-z
3 -x,-y,-z
4 1/2+x,1/2-y,1/2+z
_cell_length_a                   9.7325(5)
_cell_length_b                   19.1566(10)
_cell_length_c                   11.6271(3)
_cell_angle_alpha                90
_cell_angle_beta                 104.173(3)
_cell_angle_gamma                90
_cell_volume                     2101.79
loop_
_atom_site_label
_atom_site_type_symbol
_atom_site_fract_x
_atom_site_fract_y
_atom_site_fract_z
U1 U 0.624915(15) 0.228401(8) 0.276975(12)
U2 U 0.226007(15) 0.263808(8) 0.155206(12)
O1 O 0.6795(3) 0.31352(15) 0.3281(2)
O2 O 0.5853(3) 0.14133(15) 0.2241(2)
O3 O 0.2112(3) 0.35009(15) 0.2073(2)
O4 O 0.2286(3) 0.17619(15) 0.1044(2)
O5 O 0.8867(3) 0.20555(16) 0.3431(2)
O6 O 1.0961(3) 0.22517(15) 0.3012(2)
O7 O 0.7535(3) 0.23558(14) 0.1196(2)
O8 O 0.9615(3) 0.25536(15) 0.0767(2)
O9 O 0.4533(3) 0.27605(15) 0.1189(2)
H1 H 0.4649 0.2903 0.0471
O10 O 0.4055(3) 0.23923(15) 0.3215(2)
H2 H 0.3918 0.2499 0.3846
O11 O 0.6718(3) 0.18758(15) 0.4676(2)
H3 H 0.6657 0.1442 0.4953
C1 C 0.9640(4) 0.2215(2) 0.2747(4)
C2 C 0.8852(4) 0.2391(2) 0.1436(3)
U2_2 U 1.226007(15) 0.263808(8) 0.155206(12)
U2C U 0.726007(15) 0.236192(8) 0.655206(12)
O6_2 O 0.0961(3) 0.22517(15) 0.3012(2)
O8_2 O -0.0385(3) 0.25536(15) 0.0767(2)
O11C O 0.1718(3) 0.31242(15) -0.0324(2)
N1 N 0.1541(3) 0.39690(18) 0.4965(3)
H4 H 0.2043 0.3702 0.5491
N2 N 0.4056(4) 0.42713(19) 0.6405(3)
C3 C 0.0311(5) 0.3730(2) 0.4317(4)
H5 H 0.0008 0.3283 0.4449
C4 C -0.0509(4) 0.4143(2) 0.3457(3)
H6 H -0.1370 0.3984 0.2993
C5 C -0.0021(5) 0.4805(2) 0.3298(3)
H7 H -0.0554 0.5093 0.2710
C6 C 0.1246(4) 0.5047(2) 0.3998(3)
H8 H 0.1555 0.5496 0.3895
C7 C 0.2045(4) 0.4616(2) 0.4849(3)
C8 C 0.3390(4) 0.4795(2) 0.5696(3)
C9 C 0.3916(4) 0.5470(2) 0.5771(3)
H9 H 0.3433 0.5818 0.5278
C10 C 0.5178(5) 0.5617(2) 0.6594(4)
H10 H 0.5551 0.6066 0.6662
C11 C 0.5871(4) 0.5086(2) 0.7310(4)
H11 H 0.6720 0.5169 0.7866
C12 C 0.5273(5) 0.4427(2) 0.7179(4)
H12 H 0.5747 0.4071 0.7660
N3 N 0.8496(4) 0.5409(2) 0.0392(3)
C13 C 0.9290(4) 0.4898(2) 0.0094(3)
C14 C 0.8817(5) 0.4209(2) -0.0051(4)
H13 H 0.9362 0.3868 -0.0299
C15 C 0.7526(5) 0.4037(2) 0.0180(4)
H14 H 0.7190 0.3581 0.0083
C16 C 0.6751(5) 0.4551(3) 0.0552(4)
H15 H 0.5904 0.4447 0.0749
C17 C 0.7263(4) 0.5228(2) 0.0627(3)
H16 H 0.6719 0.5577 0.0853
N3B N 1.1504(4) 0.4591(2) -0.0392(3)
C13B C 1.0710(4) 0.5102(2) -0.0094(3)
C14B C 1.1183(5) 0.5791(2) 0.0051(4)
H13B H 1.0638 0.6132 0.0299
C15B C 1.2474(5) 0.5963(2) -0.0180(4)
H14B H 1.2810 0.6419 -0.0083
C16B C 1.3249(5) 0.5449(3) -0.0552(4)
H15B H 1.4096 0.5553 -0.0749
C17B C 1.2737(4) 0.4772(2) -0.0627(3)
H16B H 1.3281 0.4423 -0.0853
loop_
_geom_bond_atom_site_label_1
_geom_bond_atom_site_label_2
_geom_bond_site_symmetry_1
_geom_bond_site_symmetry_2
U1 O1 1_555 1_555
U2 O3 1_555 1_555
O2 U1 1_555 1_555
O4 U2 1_555 1_555
O5 U1 1_555 1_555
O6 C1 1_555 1_555
O7 U1 1_555 1_555
O8 C2 1_555 1_555
O9 U1 1_555 1_555
H1 O9 1_555 1_555
O10 U1 1_555 1_555
H2 O10 1_555 1_555
O11 U1 1_555 1_555
H3 O11 1_555 1_555
C1 O5 1_555 1_555
C2 O7 1_555 1_555
N1 H4 1_555 1_555
N2 C8 1_555 1_555
C3 N1 1_555 1_555
H5 C3 1_555 1_555
C4 C3 1_555 1_555
H6 C4 1_555 1_555
C5 C4 1_555 1_555
H7 C5 1_555 1_555
C6 C5 1_555 1_555
H8 C6 1_555 1_555
C7 N1 1_555 1_555
C8 C7 1_555 1_555
C9 C8 1_555 1_555
H9 C9 1_555 1_555
C10 C9 1_555 1_555
H10 C10 1_555 1_555
C11 C10 1_555 1_555
H11 C11 1_555 1_555
C12 N2 1_555 1_555
H12 C12 1_555 1_555
N3 C13 1_555 1_555
C13 C14 1_555 1_555
C14 H13 1_555 1_555
C15 C14 1_555 1_555
H14 C15 1_555 1_555
C16 C15 1_555 1_555
H15 C16 1_555 1_555
C17 N3 1_555 1_555
H16 C17 1_555 1_555
U2_2 O6 1_555 1_555
U2C O11 1_555 1_555
O6_2 U2 1_555 1_555
O8_2 U2 1_555 1_555
O11C U2 1_555 1_555
N3B C13B 1_555 1_555
C13B C13 1_555 1_555
C14B C13B 1_555 1_555
H13B C14B 1_555 1_555
C15B C14B 1_555 1_555
H14B C15B 1_555 1_555
C16B C15B 1_555 1_555
H15B C16B 1_555 1_555
C17B N3B 1_555 1_555
H16B C17B 1_555 1_555
U2 O9 1_555 1_555
U2 O10 1_555 1_555
O8 U2_2 1_555 1_555
C1 C2 1_555 1_555
C6 C7 1_555 1_555
C11 C12 1_555 1_555
C16 C17 1_555 1_555
C16B C17B 1_555 1_555

#END
