
#######################################################################
#
#                 Cambridge Crystallographic Data Centre
#                                CCDC 
#
#######################################################################
#
# If this CIF has been generated from an entry in the Cambridge 
# Structural Database, then it will include bibliographic, chemical, 
# crystal, experimental, refinement or atomic coordinate data resulting 
# from the CCDC's data processing and validation procedures.
#
#######################################################################

data_CEYZOW
_symmetry_cell_setting           triclinic
_symmetry_space_group_name_H-M   'P -1'
_symmetry_Int_Tables_number      2
_space_group_name_Hall           '-P 1'
loop_
_symmetry_equiv_pos_site_id
_symmetry_equiv_pos_as_xyz
1 x,y,z
2 -x,-y,-z
_cell_length_a                   8.9446(1)
_cell_length_b                   9.4364(1)
_cell_length_c                   9.5860(1)
_cell_angle_alpha                75.027(2)
_cell_angle_beta                 67.290(2)
_cell_angle_gamma                63.089(2)
_cell_volume                     662.102
loop_
_atom_site_label
_atom_site_type_symbol
_atom_site_fract_x
_atom_site_fract_y
_atom_site_fract_z
La1 La -0.266670(6) 0.000930(5) 0.033620(5)
O1 O 0.10914(10) 0.28524(9) -0.15288(10)
O2 O -0.50027(10) 0.71665(9) -0.10350(10)
O3 O -0.39447(10) 0.84602(9) -0.03232(10)
O4 O -0.06210(10) 0.15293(9) -0.06002(9)
O5 O -0.49155(12) -0.05546(11) 0.27889(10)
H1 H -0.457(2) -0.119(2) 0.355(2)
H2 H -0.580(2) -0.062(2) 0.263(2)
O6 O -0.03298(11) -0.14545(11) -0.19788(10)
H3 H -0.057(2) -0.147(2) -0.2807(19)
H4 H 0.0799(19) -0.149(2) -0.225(2)
O7 O -0.29761(12) 0.17099(11) -0.23014(10)
H5 H -0.1871(17) 0.154(2) -0.289(2)
H6 H -0.378(2) 0.2681(17) -0.244(2)
O8 O -0.25589(11) 0.06740(11) 0.28047(9)
H7 H -0.198(2) -0.0117(18) 0.340(2)
H8 H -0.3651(18) 0.1293(19) 0.326(2)
C1 C -0.19608(13) 0.43284(11) -0.13796(14)
H15 H -0.3042 0.4175 -0.0781
H16 H -0.1903 0.4524 -0.2440
C2 C -0.20215(14) 0.57828(12) -0.09186(15)
H17 H -0.1784 0.5494 0.0045
H18 H -0.1091 0.6087 -0.1671
C3 C -0.04112(12) 0.28262(10) -0.11638(11)
C4 C -0.37585(12) 0.72029(10) -0.07645(11)
La1A La -0.733330(6) 0.999070(5) -0.033620(5)
La1_2 La -0.266670(6) 1.000930(5) 0.033620(5)
La1A_2 La 0.266670(6) -0.000930(5) -0.033620(5)
O1A O -0.10914(10) -0.28524(9) 0.15288(10)
O2A O -0.49973(10) 0.28335(9) 0.10350(10)
O3_2 O -0.39447(10) -0.15398(9) -0.03232(10)
O3A O -0.60553(10) 0.15398(9) 0.03232(10)
O4A O 0.06210(10) -0.15293(9) 0.06002(9)
O9 O 0.41120(14) -0.76964(13) 0.46155(12)
H9 H 0.365(3) -0.6666(19) 0.484(3)
H10 H 0.328(3) -0.783(2) 0.437(3)
O10 O 0.24013(15) -0.50699(13) 0.62391(14)
H11 H 0.166(3) -0.413(2) 0.582(3)
H12 H 0.174(3) -0.553(2) 0.703(2)
O11 O 0.51992(18) -0.47978(14) 0.24820(19)
H13 H 0.590(3) -0.504(3) 0.298(3)
H14 H 0.514(3) -0.555(2) 0.217(3)
Cl1 Cl -0.04983(5) -0.19803(5) 0.49612(4)
loop_
_geom_bond_atom_site_label_1
_geom_bond_atom_site_label_2
_geom_bond_site_symmetry_1
_geom_bond_site_symmetry_2
La1 O4 1_555 1_555
O1 C3 1_555 1_555
O2 C4 1_555 1_555
O3 C4 1_555 1_555
O4 C3 1_555 1_555
O5 La1 1_555 1_555
H1 O5 1_555 1_555
H2 O5 1_555 1_555
O6 La1 1_555 1_555
H3 O6 1_555 1_555
H4 O6 1_555 1_555
O7 La1 1_555 1_555
H5 O7 1_555 1_555
H6 O7 1_555 1_555
O8 La1 1_555 1_555
H7 O8 1_555 1_555
H8 O8 1_555 1_555
O9 H9 1_555 1_555
H10 O9 1_555 1_555
O10 H11 1_555 1_555
H12 O10 1_555 1_555
O11 H13 1_555 1_555
H14 O11 1_555 1_555
C1 H15 1_555 1_555
H16 C1 1_555 1_555
C2 C1 1_555 1_555
H17 C2 1_555 1_555
H18 C2 1_555 1_555
C3 C1 1_555 1_555
C4 C2 1_555 1_555
La1A O2 1_555 1_555
La1_2 O3 1_555 1_555
La1A_2 O1 1_555 1_555
O1A La1 1_555 1_555
O2A La1 1_555 1_555
O3_2 La1 1_555 1_555
O3A La1 1_555 1_555
O4A La1 1_555 1_555
O3 La1A 1_555 1_555
O4 La1A_2 1_555 1_555
La1A_2 O4A 1_555 1_555

#END
