
#######################################################################
#
#                 Cambridge Crystallographic Data Centre
#                                CCDC 
#
#######################################################################
#
# If this CIF has been generated from an entry in the Cambridge 
# Structural Database, then it will include bibliographic, chemical, 
# crystal, experimental, refinement or atomic coordinate data resulting 
# from the CCDC's data processing and validation procedures.
#
#######################################################################

data_CEZBEQ
_symmetry_cell_setting           triclinic
_symmetry_space_group_name_H-M   'P -1'
_symmetry_Int_Tables_number      2
_space_group_name_Hall           '-P 1'
loop_
_symmetry_equiv_pos_site_id
_symmetry_equiv_pos_as_xyz
1 x,y,z
2 -x,-y,-z
_cell_length_a                   4.0832(6)
_cell_length_b                   9.4441(11)
_cell_length_c                   13.0763(11)
_cell_angle_alpha                96.403(8)
_cell_angle_beta                 95.736(9)
_cell_angle_gamma                101.544(11)
_cell_volume                     487.082
loop_
_atom_site_label
_atom_site_type_symbol
_atom_site_fract_x
_atom_site_fract_y
_atom_site_fract_z
I1 I 0.70522(14) 0.85645(6) 0.60234(4)
Cu1 Cu 0.8058(4) 1.09941(15) 0.51993(10)
N1 N 0.966(2) 1.2693(9) 0.6383(6)
C1 C 1.286(3) 1.3697(11) 0.8019(8)
H1 H 1.4100 1.3541 0.8636
C2 C 1.149(3) 1.2535(11) 0.7263(8)
H2 H 1.1843 1.1593 0.7365
C3 C 0.924(3) 1.4025(11) 0.6248(8)
H3 H 0.7971 1.4147 0.5626
O1 O 1.281(2) 1.7531(8) 0.8558(5)
O2 O 1.611(2) 1.6259(8) 0.9402(6)
C4 C 1.056(3) 1.5244(11) 0.6976(8)
H4 H 1.0183 1.6174 0.6854
C5 C 1.246(3) 1.5090(10) 0.7889(7)
C6 C 1.399(3) 1.6312(11) 0.8699(8)
C7 C 1.598(3) 1.9975(12) 0.9009(8)
H5 H 1.6596 1.9944 0.8326
C8 C 1.396(3) 1.8756(11) 0.9306(8)
C9 C 1.292(3) 1.8767(12) 1.0287(8)
H6 H 1.1493 1.7934 1.0470
N1A N 2.034(2) 2.7307(9) 1.3617(6)
C1A C 1.714(3) 2.6303(11) 1.1981(8)
H1A H 1.5900 2.6459 1.1364
C2A C 1.851(3) 2.7465(11) 1.2737(8)
H2A H 1.8157 2.8407 1.2635
C3A C 2.076(3) 2.5975(11) 1.3752(8)
H3A H 2.2029 2.5853 1.4374
O1A O 1.719(2) 2.2469(8) 1.1442(5)
O2A O 1.389(2) 2.3741(8) 1.0598(6)
C4A C 1.944(3) 2.4756(11) 1.3024(8)
H4A H 1.9817 2.3826 1.3146
C5A C 1.754(3) 2.4910(10) 1.2111(7)
C6A C 1.601(3) 2.3688(11) 1.1301(8)
C7A C 1.402(3) 2.0025(12) 1.0991(8)
H5A H 1.3404 2.0056 1.1674
C8A C 1.604(3) 2.1244(11) 1.0694(8)
C9A C 1.708(3) 2.1233(12) 0.9713(8)
H6A H 1.8507 2.2066 0.9530
I1A I 0.29478(14) 1.14355(6) 0.39766(4)
Cu1A Cu 0.1942(4) 0.90059(15) 0.48007(10)
I1_2 I -0.29478(14) 0.85645(6) 0.60234(4)
I1A_2 I 1.29478(14) 1.14355(6) 0.39766(4)
Cu1_2 Cu -0.1942(4) 1.09941(15) 0.51993(10)
Cu1A_2 Cu 1.1942(4) 0.90059(15) 0.48007(10)
Cu1A_3 Cu 2.1942(4) 2.90059(15) 1.48007(10)
N1A_2 N 0.034(2) 0.7307(9) 0.3617(6)
loop_
_geom_bond_atom_site_label_1
_geom_bond_atom_site_label_2
_geom_bond_site_symmetry_1
_geom_bond_site_symmetry_2
I1 Cu1 1_555 1_555
Cu1 N1 1_555 1_555
N1 C2 1_555 1_555
C1 H1 1_555 1_555
C2 C1 1_555 1_555
H2 C2 1_555 1_555
C3 N1 1_555 1_555
H3 C3 1_555 1_555
O1 C6 1_555 1_555
O2 C6 1_555 1_555
C4 C3 1_555 1_555
H4 C4 1_555 1_555
C5 C1 1_555 1_555
C6 C5 1_555 1_555
C7 H5 1_555 1_555
C8 O1 1_555 1_555
C9 C8 1_555 1_555
H6 C9 1_555 1_555
N1A C2A 1_555 1_555
C1A H1A 1_555 1_555
C2A C1A 1_555 1_555
H2A C2A 1_555 1_555
C3A N1A 1_555 1_555
H3A C3A 1_555 1_555
O1A C6A 1_555 1_555
O2A C6A 1_555 1_555
C4A C3A 1_555 1_555
H4A C4A 1_555 1_555
C5A C1A 1_555 1_555
C6A C5A 1_555 1_555
C7A C9 1_555 1_555
H5A C7A 1_555 1_555
C8A O1A 1_555 1_555
C9A C7 1_555 1_555
H6A C9A 1_555 1_555
I1A Cu1 1_555 1_555
Cu1A I1 1_555 1_555
I1_2 Cu1A 1_555 1_555
I1A_2 Cu1 1_555 1_555
Cu1_2 I1A 1_555 1_555
Cu1A_2 I1 1_555 1_555
Cu1A_3 N1A 1_555 1_555
N1A_2 Cu1A 1_555 1_555
Cu1 Cu1A 1_555 1_555
Cu1 Cu1A_2 1_555 1_555
C4 C5 1_555 1_555
C7 C8 1_555 1_555
C4A C5A 1_555 1_555
C7A C8A 1_555 1_555
C8A C9A 1_555 1_555
I1A Cu1A 1_555 1_555
Cu1A Cu1_2 1_555 1_555
I1_2 Cu1_2 1_555 1_555
I1A_2 Cu1A_2 1_555 1_555

#END
