
#######################################################################
#
#                 Cambridge Crystallographic Data Centre
#                                CCDC 
#
#######################################################################
#
# If this CIF has been generated from an entry in the Cambridge 
# Structural Database, then it will include bibliographic, chemical, 
# crystal, experimental, refinement or atomic coordinate data resulting 
# from the CCDC's data processing and validation procedures.
#
#######################################################################

data_CEZDAN01
_symmetry_cell_setting           tetragonal
_symmetry_space_group_name_H-M   'P 4/n c c'
_symmetry_Int_Tables_number      130
_space_group_name_Hall           '-P 4a 2ac'
loop_
_symmetry_equiv_pos_site_id
_symmetry_equiv_pos_as_xyz
1 x,y,z
2 1/2-y,x,z
3 y,1/2-x,z
4 1/2+y,1/2+x,1/2-z
5 1/2-x,1/2-y,z
6 1/2+x,-y,1/2-z
7 -x,1/2+y,1/2-z
8 -y,-x,1/2-z
9 -x,-y,-z
10 1/2+y,-x,-z
11 -y,1/2+x,-z
12 1/2-y,1/2-x,1/2+z
13 1/2+x,1/2+y,-z
14 1/2-x,y,1/2+z
15 x,1/2-y,1/2+z
16 y,x,1/2+z
_cell_length_a                   14.2240(17)
_cell_length_b                   14.2240(17)
_cell_length_c                   17.580(4)
_cell_angle_alpha                90
_cell_angle_beta                 90
_cell_angle_gamma                90
_cell_volume                     3556.82
loop_
_atom_site_label
_atom_site_type_symbol
_atom_site_fract_x
_atom_site_fract_y
_atom_site_fract_z
C9 C 0.834(4) 0.721(6) 0.752(4)
H9 H 0.8376 0.6520 0.7505
H10 H 0.8905 0.7464 0.7755
H11 H 0.8288 0.7448 0.6994
C10 C 0.7500 0.7500 0.796(4)
O2 O 0.7500 0.7500 0.868(4)
C9B C 0.721(6) 0.666(4) 0.752(4)
C9A C 0.779(6) 0.834(4) 0.752(4)
C9D C 0.666(4) 0.779(6) 0.752(4)
H9B H 0.6520 0.6624 0.7505
H9A H 0.8480 0.8376 0.7505
H9D H 0.6624 0.8480 0.7505
H10B H 0.7464 0.6095 0.7755
H10A H 0.7536 0.8905 0.7755
H10D H 0.6095 0.7536 0.7755
H11B H 0.7448 0.6712 0.6994
H11A H 0.7552 0.8288 0.6994
H11D H 0.6712 0.7552 0.6994
Fe1 Fe 0.7500 0.2500 0.7500
S1 S 0.51631(17) 0.48369(17) 0.7500
N1 N 0.8183(4) 0.3230(4) 0.8325(3)
O1 O 0.9635(5) 0.4173(4) 1.0746(3)
H1 H 0.9524 0.4439 1.1163
N2 N 0.6539(4) 0.3461(4) 0.7500
C1 C 0.9501(6) 0.4828(6) 1.0139(4)
C2 C 0.5977(6) 0.4023(6) 0.7500
C3 C 0.9032(6) 0.4269(6) 0.9511(4)
C4 C 0.9004(6) 0.3307(6) 0.9509(4)
H2 H 0.9276 0.2971 0.9920
C5 C 0.8587(5) 0.2814(6) 0.8919(4)
H3 H 0.8589 0.2146 0.8940
C6 C 0.8170(6) 0.4173(6) 0.8334(4)
H4 H 0.7865 0.4489 0.7926
C7 C 0.8574(6) 0.4716(6) 0.8903(4)
H5 H 0.8542 0.5382 0.8882
C8 C 0.8887(6) 0.5650(7) 1.0394(5)
H6 H 0.9213 0.6005 1.0793
H7 H 0.8290 0.5410 1.0593
H8 H 0.8764 0.6064 0.9959
Fe1L Fe 1.2500 0.7500 1.2500
Fe1L_2 Fe 1.2500 0.7500 0.2500
S1C S 0.98369(17) 0.01631(17) 0.7500
N1H N 1.1817(4) 0.6770(4) 1.1675(3)
N1C N 0.8230(4) 0.3183(4) 0.6675(3)
N1K N 1.1770(4) 0.6817(4) 0.3325(3)
N1D N 0.6817(4) 0.1770(4) 0.8325(3)
N1G N 0.6770(4) 0.1817(4) 0.6675(3)
O1H O 1.0365(5) 0.5827(4) 0.9254(3)
O1C O 0.9173(4) 0.4635(5) 0.4254(3)
O1K O 1.0827(4) 0.5365(5) 0.5746(3)
H1H H 1.0476 0.5561 0.8837
H1C H 0.9439 0.4524 0.3837
H1K H 1.0561 0.5476 0.6163
N2C N 0.8461(4) 0.1539(4) 0.7500
C1H C 1.0499(6) 0.5172(6) 0.9861(4)
C1C C 0.9828(6) 0.4501(6) 0.4861(4)
C1K C 1.0172(6) 0.5499(6) 0.5139(4)
C2C C 0.9023(6) 0.0977(6) 0.7500
C3H C 1.0968(6) 0.5731(6) 1.0489(4)
C3C C 0.9269(6) 0.4032(6) 0.5489(4)
C3K C 1.0731(6) 0.5968(6) 0.4511(4)
C4H C 1.0996(6) 0.6693(6) 1.0491(4)
C4C C 0.8307(6) 0.4004(6) 0.5491(4)
C4K C 1.1693(6) 0.5996(6) 0.4509(4)
H2H H 1.0724 0.7029 1.0080
H2C H 0.7971 0.4276 0.5080
H2K H 1.2029 0.5724 0.4920
C5H C 1.1413(5) 0.7186(6) 1.1081(4)
C5C C 0.7814(6) 0.3587(5) 0.6081(4)
C5K C 1.2186(6) 0.6413(5) 0.3919(4)
H3H H 1.1411 0.7854 1.1060
H3C H 0.7146 0.3589 0.6060
H3K H 1.2854 0.6411 0.3940
C6H C 1.1830(6) 0.5827(6) 1.1666(4)
C6C C 0.9173(6) 0.3170(6) 0.6666(4)
C6K C 1.0827(6) 0.6830(6) 0.3334(4)
H4H H 1.2135 0.5511 1.2074
H4C H 0.9489 0.2865 0.7074
H4K H 1.0511 0.7135 0.2926
C7H C 1.1426(6) 0.5284(6) 1.1097(4)
C7C C 0.9716(6) 0.3574(6) 0.6097(4)
C7K C 1.0284(6) 0.6426(6) 0.3903(4)
H5H H 1.1458 0.4618 1.1118
H5C H 1.0382 0.3542 0.6118
H5K H 0.9618 0.6458 0.3882
C8H C 1.1113(6) 0.4350(7) 0.9606(5)
C8C C 1.0650(7) 0.3887(6) 0.4606(5)
C8K C 0.9350(7) 0.6113(6) 0.5394(5)
H6H H 1.0787 0.3995 0.9207
H6C H 1.1005 0.4213 0.4207
H6K H 0.8995 0.5787 0.5793
H7H H 1.1710 0.4590 0.9407
H7C H 1.0410 0.3290 0.4407
H7K H 0.9590 0.6710 0.5593
H8H H 1.1236 0.3936 1.0041
H8C H 1.1064 0.3764 0.5041
H8K H 0.8936 0.6236 0.4959
loop_
_geom_bond_atom_site_label_1
_geom_bond_atom_site_label_2
_geom_bond_site_symmetry_1
_geom_bond_site_symmetry_2
Fe1 N1 1_555 1_555
S1 C2 1_555 1_555
N1 C5 1_555 1_555
O1 H1 1_555 1_555
N2 Fe1 1_555 1_555
C1 O1 1_555 1_555
C2 N2 1_555 1_555
C3 C1 1_555 1_555
C4 C3 1_555 1_555
H2 C4 1_555 1_555
C5 C4 1_555 1_555
H3 C5 1_555 1_555
C6 N1 1_555 1_555
H4 C6 1_555 1_555
C7 C3 1_555 1_555
H5 C7 1_555 1_555
C8 C1 1_555 1_555
H6 C8 1_555 1_555
H7 C8 1_555 1_555
H8 C8 1_555 1_555
C9 H9 1_555 1_555
H10 C9 1_555 1_555
H11 C9 1_555 1_555
C10 C9 1_555 1_555
O2 C10 1_555 1_555
Fe1L N1H 1_555 1_555
Fe1L_2 N1K 1_555 1_555
S1C C2C 1_555 1_555
N1H C5H 1_555 1_555
N1C Fe1 1_555 1_555
N1K C5K 1_555 1_555
N1D Fe1 1_555 1_555
N1G Fe1 1_555 1_555
O1H H1H 1_555 1_555
O1C H1C 1_555 1_555
O1K H1K 1_555 1_555
N2C Fe1 1_555 1_555
C1H C1 1_555 1_555
C1C O1C 1_555 1_555
C1K O1K 1_555 1_555
C2C N2C 1_555 1_555
C3H C1H 1_555 1_555
C3C C1C 1_555 1_555
C3K C1K 1_555 1_555
C4H C3H 1_555 1_555
C4C C3C 1_555 1_555
C4K C3K 1_555 1_555
H2H C4H 1_555 1_555
H2C C4C 1_555 1_555
H2K C4K 1_555 1_555
C5H C4H 1_555 1_555
C5C N1C 1_555 1_555
C5K C4K 1_555 1_555
H3H C5H 1_555 1_555
H3C C5C 1_555 1_555
H3K C5K 1_555 1_555
C6H N1H 1_555 1_555
C6C N1C 1_555 1_555
C6K N1K 1_555 1_555
H4H C6H 1_555 1_555
H4C C6C 1_555 1_555
H4K C6K 1_555 1_555
C7H C3H 1_555 1_555
C7C C3C 1_555 1_555
C7K C3K 1_555 1_555
H5H C7H 1_555 1_555
H5C C7C 1_555 1_555
H5K C7K 1_555 1_555
C8H C1H 1_555 1_555
C8C C1C 1_555 1_555
C8K C1K 1_555 1_555
H6H C8H 1_555 1_555
H6C C8C 1_555 1_555
H6K C8K 1_555 1_555
H7H C8H 1_555 1_555
H7C C8C 1_555 1_555
H7K C8K 1_555 1_555
H8H C8H 1_555 1_555
H8C C8C 1_555 1_555
H8K C8K 1_555 1_555
C9B C10 1_555 1_555
C9A C10 1_555 1_555
C9D C10 1_555 1_555
H9B C9B 1_555 1_555
H9A C9A 1_555 1_555
H9D C9D 1_555 1_555
H10B C9B 1_555 1_555
H10A C9A 1_555 1_555
H10D C9D 1_555 1_555
H11B C9B 1_555 1_555
H11A C9A 1_555 1_555
H11D C9D 1_555 1_555
C6 C7 1_555 1_555
O1H C1H 1_555 1_555
C1C C1K 1_555 1_555
C4C C5C 1_555 1_555
C6H C7H 1_555 1_555
C6C C7C 1_555 1_555
C6K C7K 1_555 1_555

#END
