
#######################################################################
#
#                 Cambridge Crystallographic Data Centre
#                                CCDC 
#
#######################################################################
#
# If this CIF has been generated from an entry in the Cambridge 
# Structural Database, then it will include bibliographic, chemical, 
# crystal, experimental, refinement or atomic coordinate data resulting 
# from the CCDC's data processing and validation procedures.
#
#######################################################################

data_CEZFIY
_symmetry_cell_setting           orthorhombic
_symmetry_space_group_name_H-M   'P b c n'
_symmetry_Int_Tables_number      60
_space_group_name_Hall           '-P 2n 2ab'
loop_
_symmetry_equiv_pos_site_id
_symmetry_equiv_pos_as_xyz
1 x,y,z
2 1/2-x,1/2-y,1/2+z
3 -x,y,1/2-z
4 1/2+x,1/2-y,-z
5 -x,-y,-z
6 1/2+x,1/2+y,1/2-z
7 x,-y,1/2+z
8 1/2-x,1/2+y,z
_cell_length_a                   25.91510(10)
_cell_length_b                   14.17440(10)
_cell_length_c                   20.60420(10)
_cell_angle_alpha                90
_cell_angle_beta                 90
_cell_angle_gamma                90
_cell_volume                     7568.56
loop_
_atom_site_label
_atom_site_type_symbol
_atom_site_fract_x
_atom_site_fract_y
_atom_site_fract_z
Zn1 Zn 0.099600(11) 0.24154(2) 0.376918(14)
O1 O -0.13568(6) 0.49960(14) 0.48481(8)
O2 O -0.36654(6) 0.45302(13) 0.49236(8)
O3 O -0.37136(7) 0.45619(14) 0.27048(9)
O4 O -0.14181(7) 0.52841(15) 0.26419(9)
O5 O 0.14542(7) 0.22789(14) 0.30385(9)
O6 O 0.08019(7) 0.22015(15) 0.23403(9)
O7 O 0.41309(7) 0.23398(12) 0.01706(9)
O8 O 0.34956(6) 0.23793(12) -0.05611(9)
N1 N 0.04694(7) 0.34699(14) 0.37243(8)
N2 N -0.12543(7) 0.51816(14) 0.37408(9)
N3 N -0.38233(7) 0.45153(14) 0.38181(9)
N4 N -0.55200(7) 0.62870(13) 0.38463(8)
C1 C 0.05099(8) 0.42467(17) 0.40894(11)
H1 H 0.0812 0.4335 0.4343
C2 C 0.01272(8) 0.49246(17) 0.41112(11)
H2 H 0.0169 0.5470 0.4374
C3 C -0.03172(8) 0.48074(17) 0.37487(10)
C4 C -0.03587(8) 0.39954(17) 0.33727(11)
H3 H -0.0658 0.3888 0.3118
C5 C 0.00374(8) 0.33485(17) 0.33727(11)
H4 H 0.0004 0.2796 0.3115
C6 C -0.07289(8) 0.55567(18) 0.37452(12)
H5 H -0.0685 0.5960 0.4133
H6 H -0.0681 0.5960 0.3358
C7 C -0.15353(8) 0.50222(16) 0.43067(11)
C8 C -0.20828(8) 0.48986(15) 0.41001(10)
C9 C -0.25200(8) 0.47823(15) 0.44764(11)
H7 H -0.2508 0.4744 0.4936
C10 C -0.29762(8) 0.47261(14) 0.41301(10)
C11 C -0.35127(8) 0.45829(15) 0.43707(11)
C12 C -0.35402(8) 0.46137(16) 0.32479(11)
C13 C -0.29925(8) 0.47649(15) 0.34516(10)
C14 C -0.25563(8) 0.48841(16) 0.30744(11)
H8 H -0.2568 0.4911 0.2614
C15 C -0.21011(8) 0.49606(15) 0.34232(10)
C16 C -0.15659(8) 0.51554(16) 0.31884(11)
C17 C -0.43490(9) 0.41491(17) 0.38305(13)
H9 H -0.4391 0.3746 0.4219
H10 H -0.4403 0.3747 0.3444
C18 C -0.47587(8) 0.49091(16) 0.38410(10)
C19 C -0.51672(9) 0.48738(17) 0.34053(12)
H11 H -0.5192 0.4374 0.3100
C20 C -0.55381(8) 0.55774(17) 0.34221(11)
H12 H -0.5815 0.5553 0.3121
C21 C -0.51366(8) 0.63012(17) 0.42800(11)
H13 H -0.5130 0.6790 0.4595
C22 C -0.47497(8) 0.56328(18) 0.42876(11)
H14 H -0.4479 0.5671 0.4598
C23 C 0.12603(10) 0.22489(17) 0.24650(12)
C24 C 0.16498(10) 0.22686(17) 0.19198(13)
C25 C 0.21633(10) 0.23456(16) 0.20600(12)
H15 H 0.2269 0.2401 0.2500
C26 C 0.25447(10) 0.23453(15) 0.15596(12)
C27 C 0.30737(9) 0.23915(16) 0.17062(13)
H16 H 0.3183 0.2432 0.2145
C28 C 0.34329(11) 0.23778(16) 0.12148(12)
H17 H 0.3790 0.2401 0.1315
C29 C 0.32685(9) 0.23284(15) 0.05521(13)
C30 C 0.27550(10) 0.22785(17) 0.04068(13)
H18 H 0.2649 0.2242 -0.0034
C31 C 0.23736(9) 0.22802(16) 0.09104(12)
C32 C 0.18416(9) 0.22105(19) 0.07646(12)
H19 H 0.1731 0.2165 0.0326
C33 C 0.14837(10) 0.2208(2) 0.12604(12)
H20 H 0.1126 0.2166 0.1163
C34 C 0.36725(10) 0.23477(15) 0.00238(12)
Zn1A Zn 0.400400(11) 0.25846(2) -0.123082(14)
Zn1G Zn -0.599600(11) 0.74154(2) 0.376918(14)
O8A O 0.15044(6) 0.26207(12) 0.44389(9)
N4G N 0.05200(7) 0.12870(13) 0.38463(8)
O9 O -0.00790(13) 0.7349(2) 0.32901(18)
N5 N 0.07213(13) 0.7104(2) 0.37520(14)
C35 C 0.03772(18) 0.7061(3) 0.3262(2)
H21 H 0.0490 0.6792 0.2864
C36 C 0.12287(18) 0.6668(4) 0.3697(3)
H22 H 0.1253 0.6328 0.3284
H23 H 0.1279 0.6226 0.4057
H24 H 0.1495 0.7158 0.3713
C37 C 0.0581(3) 0.7547(4) 0.4345(2)
H25 H 0.0205 0.7536 0.4393
H26 H 0.0702 0.8202 0.4343
H27 H 0.0739 0.7208 0.4709
O10 O -0.30644(16) 0.3557(4) 0.0986(2)
N6 N -0.26021(11) 0.4849(2) 0.12460(11)
C38 C -0.30377(17) 0.4414(5) 0.1117(2)
H28 H -0.3348 0.4770 0.1124
C39 C -0.21234(14) 0.4372(3) 0.12576(16)
H29 H -0.2184 0.3690 0.1281
H30 H -0.1925 0.4574 0.1638
H31 H -0.1930 0.4519 0.0862
C40 C -0.2590(2) 0.5869(3) 0.13126(19)
H32 H -0.2393 0.6142 0.0953
H33 H -0.2426 0.6037 0.1725
H34 H -0.2944 0.6115 0.1305
loop_
_geom_bond_atom_site_label_1
_geom_bond_atom_site_label_2
_geom_bond_site_symmetry_1
_geom_bond_site_symmetry_2
Zn1 O5 1_555 1_555
O1 C7 1_555 1_555
O2 C11 1_555 1_555
O3 C12 1_555 1_555
O4 C16 1_555 1_555
O5 C23 1_555 1_555
O6 C23 1_555 1_555
O7 C34 1_555 1_555
O8 C34 1_555 1_555
N1 Zn1 1_555 1_555
N2 C6 1_555 1_555
N3 C11 1_555 1_555
N4 C20 1_555 1_555
C1 N1 1_555 1_555
H1 C1 1_555 1_555
C2 C1 1_555 1_555
H2 C2 1_555 1_555
C3 C2 1_555 1_555
C4 C3 1_555 1_555
H3 C4 1_555 1_555
C5 N1 1_555 1_555
H4 C5 1_555 1_555
C6 C3 1_555 1_555
H5 C6 1_555 1_555
H6 C6 1_555 1_555
C7 N2 1_555 1_555
C8 C7 1_555 1_555
C9 C8 1_555 1_555
H7 C9 1_555 1_555
C10 C9 1_555 1_555
C11 C10 1_555 1_555
C12 N3 1_555 1_555
C13 C10 1_555 1_555
C14 C13 1_555 1_555
H8 C14 1_555 1_555
C15 C8 1_555 1_555
C16 N2 1_555 1_555
C17 N3 1_555 1_555
H9 C17 1_555 1_555
H10 C17 1_555 1_555
C18 C17 1_555 1_555
C19 C18 1_555 1_555
H11 C19 1_555 1_555
C20 C19 1_555 1_555
H12 C20 1_555 1_555
C21 N4 1_555 1_555
H13 C21 1_555 1_555
C22 C18 1_555 1_555
H14 C22 1_555 1_555
C23 C24 1_555 1_555
C24 C25 1_555 1_555
C25 H15 1_555 1_555
C26 C25 1_555 1_555
C27 C26 1_555 1_555
H16 C27 1_555 1_555
C28 C27 1_555 1_555
H17 C28 1_555 1_555
C29 C28 1_555 1_555
C30 C29 1_555 1_555
H18 C30 1_555 1_555
C31 C26 1_555 1_555
C32 C31 1_555 1_555
H19 C32 1_555 1_555
C33 C24 1_555 1_555
H20 C33 1_555 1_555
C34 C29 1_555 1_555
O9 C35 1_555 1_555
N5 C35 1_555 1_555
C35 H21 1_555 1_555
C36 N5 1_555 1_555
H22 C36 1_555 1_555
H23 C36 1_555 1_555
H24 C36 1_555 1_555
C37 N5 1_555 1_555
H25 C37 1_555 1_555
H26 C37 1_555 1_555
H27 C37 1_555 1_555
O10 C38 1_555 1_555
N6 C38 1_555 1_555
C38 H28 1_555 1_555
C39 N6 1_555 1_555
H29 C39 1_555 1_555
H30 C39 1_555 1_555
H31 C39 1_555 1_555
C40 N6 1_555 1_555
H32 C40 1_555 1_555
H33 C40 1_555 1_555
H34 C40 1_555 1_555
Zn1A O8 1_555 1_555
Zn1G N4 1_555 1_555
O8A Zn1 1_555 1_555
N4G Zn1 1_555 1_555
C4 C5 1_555 1_555
C12 C13 1_555 1_555
C14 C15 1_555 1_555
C15 C16 1_555 1_555
C21 C22 1_555 1_555
C30 C31 1_555 1_555
C32 C33 1_555 1_555

#END
