
#######################################################################
#
#                 Cambridge Crystallographic Data Centre
#                                CCDC 
#
#######################################################################
#
# If this CIF has been generated from an entry in the Cambridge 
# Structural Database, then it will include bibliographic, chemical, 
# crystal, experimental, refinement or atomic coordinate data resulting 
# from the CCDC's data processing and validation procedures.
#
#######################################################################

data_CEZFAQ
_symmetry_cell_setting           monoclinic
_symmetry_space_group_name_H-M   'P 21/c'
_symmetry_Int_Tables_number      14
_space_group_name_Hall           '-P 2ybc'
loop_
_symmetry_equiv_pos_site_id
_symmetry_equiv_pos_as_xyz
1 x,y,z
2 -x,1/2+y,1/2-z
3 -x,-y,-z
4 x,1/2-y,1/2+z
_cell_length_a                   12.262(3)
_cell_length_b                   18.888(4)
_cell_length_c                   8.8122(18)
_cell_angle_alpha                90
_cell_angle_beta                 107.45(3)
_cell_angle_gamma                90
_cell_volume                     1947.02
loop_
_atom_site_label
_atom_site_type_symbol
_atom_site_fract_x
_atom_site_fract_y
_atom_site_fract_z
Cu1 Cu 0.22883(3) 0.150365(17) 0.46315(4)
N1 N 0.2576(2) 0.24825(13) 0.5555(3)
N2 N 0.1934(2) 0.27650(12) 0.6149(3)
N3 N 0.1327(2) 0.30608(13) 0.6731(3)
N4 N 0.37526(19) 0.15461(11) 0.4058(3)
N5 N 0.07836(19) 0.14775(12) 0.5146(3)
N6 N 0.21777(19) 0.05204(12) 0.3517(3)
N7 N 0.27394(19) 0.08354(12) 0.6902(3)
C1 C 0.3851(2) 0.10625(14) 0.2983(3)
C2 C -0.0073(2) 0.14905(15) 0.7248(3)
H1 H -0.0017 0.1392 0.8326
C3 C 0.4799(2) 0.10403(15) 0.2442(3)
H2 H 0.4859 0.0689 0.1699
C4 C 0.5659(2) 0.15364(16) 0.2996(4)
H3 H 0.6308 0.1539 0.2619
C5 C 0.2842(2) 0.05769(15) 0.2361(3)
H4 H 0.2342 0.0761 0.1337
H5 H 0.3113 0.0101 0.2168
C6 C 0.2756(2) -0.00004(14) 0.4777(3)
H6 H 0.3595 0.0051 0.5034
H7 H 0.2550 -0.0487 0.4379
C7 C 0.4601(2) 0.20160(15) 0.4614(3)
H8 H 0.4538 0.2352 0.5385
C8 C -0.0199(2) 0.17397(15) 0.4154(3)
H9 H -0.0251 0.1819 0.3070
C9 C 0.3944(2) 0.08619(17) 0.7892(3)
H10 H 0.4142 0.1348 0.8262
H11 H 0.4437 0.0708 0.7261
H12 H 0.4053 0.0548 0.8811
C10 C 0.1000(2) 0.02836(15) 0.2653(3)
H13 H 0.0611 0.0653 0.1904
H14 H 0.0577 0.0195 0.3417
H15 H 0.1036 -0.0153 0.2068
C11 C 0.0846(2) 0.13531(14) 0.6680(3)
C12 C -0.1067(2) 0.17712(16) 0.6242(3)
H16 H -0.1696 0.1877 0.6622
C13 C -0.1130(2) 0.18959(15) 0.4672(3)
H17 H -0.1807 0.2087 0.3957
C14 C 0.2404(3) 0.01167(15) 0.6271(3)
H18 H 0.1566 0.0060 0.6021
H19 H 0.2778 -0.0240 0.7083
C15 C 0.5556(2) 0.20287(16) 0.4108(3)
H20 H 0.6139 0.2371 0.4516
C16 C 0.1976(2) 0.11049(15) 0.7774(3)
H21 H 0.2354 0.1503 0.8460
H22 H 0.1839 0.0726 0.8471
Cu1C Cu 0.22883(3) 0.349635(17) 0.96315(4)
N3C N 0.1327(2) 0.19392(13) 0.1731(3)
Cl1 Cl 0.74187(6) 0.11321(4) 0.98928(8)
O1 O 0.64878(17) 0.07080(11) 1.0066(2)
O2 O 0.75478(18) 0.17486(11) 1.0889(2)
O3 O 0.7171(2) 0.13395(14) 0.8265(3)
O4 O 0.84454(19) 0.07185(14) 1.0360(3)
loop_
_geom_bond_atom_site_label_1
_geom_bond_atom_site_label_2
_geom_bond_site_symmetry_1
_geom_bond_site_symmetry_2
Cu1 N1 1_555 1_555
N1 N2 1_555 1_555
N2 N3 1_555 1_555
N3 Cu1C 1_555 1_555
N4 Cu1 1_555 1_555
N5 Cu1 1_555 1_555
N6 Cu1 1_555 1_555
N7 Cu1 1_555 1_555
C1 N4 1_555 1_555
C2 H1 1_555 1_555
C3 C1 1_555 1_555
H2 C3 1_555 1_555
C4 C3 1_555 1_555
H3 C4 1_555 1_555
C5 N6 1_555 1_555
H4 C5 1_555 1_555
H5 C5 1_555 1_555
C6 N6 1_555 1_555
H6 C6 1_555 1_555
H7 C6 1_555 1_555
C7 N4 1_555 1_555
H8 C7 1_555 1_555
C8 N5 1_555 1_555
H9 C8 1_555 1_555
C9 N7 1_555 1_555
H10 C9 1_555 1_555
H11 C9 1_555 1_555
H12 C9 1_555 1_555
C10 N6 1_555 1_555
H13 C10 1_555 1_555
H14 C10 1_555 1_555
H15 C10 1_555 1_555
C11 N5 1_555 1_555
C12 C2 1_555 1_555
H16 C12 1_555 1_555
C13 C8 1_555 1_555
H17 C13 1_555 1_555
C14 N7 1_555 1_555
H18 C14 1_555 1_555
H19 C14 1_555 1_555
C15 C4 1_555 1_555
H20 C15 1_555 1_555
C16 N7 1_555 1_555
H21 C16 1_555 1_555
H22 C16 1_555 1_555
Cl1 O1 1_555 1_555
O2 Cl1 1_555 1_555
O3 Cl1 1_555 1_555
O4 Cl1 1_555 1_555
N3C Cu1 1_555 1_555
C1 C5 1_555 1_555
C2 C11 1_555 1_555
C6 C14 1_555 1_555
C7 C15 1_555 1_555
C11 C16 1_555 1_555
C12 C13 1_555 1_555

#END
