
#######################################################################
#
#                 Cambridge Crystallographic Data Centre
#                                CCDC 
#
#######################################################################
#
# If this CIF has been generated from an entry in the Cambridge 
# Structural Database, then it will include bibliographic, chemical, 
# crystal, experimental, refinement or atomic coordinate data resulting 
# from the CCDC's data processing and validation procedures.
#
#######################################################################

data_CEZGET
_symmetry_cell_setting           triclinic
_symmetry_space_group_name_H-M   'P -1'
_symmetry_Int_Tables_number      2
_space_group_name_Hall           '-P 1'
loop_
_symmetry_equiv_pos_site_id
_symmetry_equiv_pos_as_xyz
1 x,y,z
2 -x,-y,-z
_cell_length_a                   8.683(5)
_cell_length_b                   8.854(5)
_cell_length_c                   12.435(6)
_cell_angle_alpha                85.68(5)
_cell_angle_beta                 75.32(4)
_cell_angle_gamma                72.24(4)
_cell_volume                     880.712
loop_
_atom_site_label
_atom_site_type_symbol
_atom_site_fract_x
_atom_site_fract_y
_atom_site_fract_z
Ni1 Ni 0.18230 0.21310 0.26250
C1 C 0.09670 -0.08220 0.33340
C2 C 0.04470 -0.03640 0.22630
C3 C 0.30850 0.34740 0.05150
C4 C 0.45680 0.21820 0.06100
C5 C -0.15870 0.45810 0.36870
C6 C -0.33140 0.48070 0.43710
C7 C -0.42950 0.39030 0.41600
C8 C -0.40840 0.58920 0.53010
C9 C -0.31810 0.69280 0.56000
C10 C -0.34780 0.28100 0.31580
N1 N 0.18020 0.00550 0.35690
N2 N 0.06690 0.09470 0.18730
N3 N 0.42310 0.12390 0.14960
N4 N 0.18380 0.37720 0.13350
N5 N 0.31020 0.42710 -0.04940
N6 N 0.61080 0.19620 -0.00840
N7 N -0.02210 -0.13200 0.18360
N8 N 0.06970 -0.21230 0.39420
O1 O 0.23930 -0.04490 0.45270
O2 O 0.01750 0.13440 0.08300
O3 O 0.57220 0.00670 0.15870
O4 O 0.04070 0.48810 0.11540
O5 O -0.05200 0.32920 0.36730
O6 O -0.13710 0.57410 0.30730
O7 O -0.36160 0.13900 0.33380
O8 O -0.29170 0.33240 0.22370
O9 O -0.28960 0.80000 0.49470
O10 O -0.28370 0.66650 0.65620
C8A C -0.59160 0.41080 0.46990
C7A C -0.57050 0.60970 0.58400
O10A O 0.28370 0.33350 0.34380
C6A C -0.66860 0.51930 0.56290
C9A C -0.68190 0.30720 0.44000
C10A C -0.65220 0.71900 0.68420
Ni1A Ni -0.18230 0.78690 0.73750
C5A C -0.84130 0.54190 0.63130
O7A O -0.63840 0.86100 0.66620
O8A O -0.70830 0.66760 0.77630
O5A O -0.94800 0.67080 0.63270
O6A O -0.86290 0.42590 0.69270
O9A O -0.71040 0.20000 0.50530
O10A_2 O -0.71630 0.33350 0.34380
Ni1A_2 Ni -1.18230 0.78690 0.73750
Ni1_2 Ni -0.81770 0.21310 0.26250
N1A N -1.18020 0.99450 0.64310
N2A N -1.06690 0.90530 0.81270
N3A N -1.42310 0.87610 0.85040
N4A N -1.18380 0.62280 0.86650
O10_2 O -1.28370 0.66650 0.65620
C1A C -1.09670 1.08220 0.66660
O1A O -1.23930 1.04490 0.54730
C2A C -1.04470 1.03640 0.77370
O2A O -1.01750 0.86560 0.91700
C4A C -1.45680 0.78180 0.93900
O3A O -1.57220 0.99330 0.84130
C3A C -1.30850 0.65260 0.94850
O4A O -1.04070 0.51190 0.88460
N8A N -1.06970 1.21230 0.60580
N7A N -0.97790 1.13200 0.81640
N6A N -1.61080 0.80380 1.00840
N5A N -1.31020 0.57290 1.04940
O11 O 0.53240 -0.21740 0.30210
O12 O 0.37050 -0.39920 0.20870
loop_
_geom_bond_atom_site_label_1
_geom_bond_atom_site_label_2
_geom_bond_site_symmetry_1
_geom_bond_site_symmetry_2
Ni1 N1 1_555 1_555
C1 C2 1_555 1_555
C2 N2 1_555 1_555
C3 C4 1_555 1_555
C4 N3 1_555 1_555
C5 C6 1_555 1_555
C6 C7 1_555 1_555
C7 C10 1_555 1_555
C8 C6 1_555 1_555
C9 C8 1_555 1_555
C10 O7 1_555 1_555
N1 C1 1_555 1_555
N2 Ni1 1_555 1_555
N3 Ni1 1_555 1_555
N4 Ni1 1_555 1_555
N5 C3 1_555 1_555
N6 C4 1_555 1_555
N7 C2 1_555 1_555
N8 C1 1_555 1_555
O1 N1 1_555 1_555
O2 N2 1_555 1_555
O3 N3 1_555 1_555
O4 N4 1_555 1_555
O5 Ni1 1_555 1_555
O6 C5 1_555 1_555
O8 C10 1_555 1_555
O9 C9 1_555 1_555
O10 C9 1_555 1_555
C8A C7 1_555 1_555
C7A C8 1_555 1_555
O10A Ni1 1_555 1_555
C6A C8A 1_555 1_555
C9A C8A 1_555 1_555
C10A C7A 1_555 1_555
Ni1A O10 1_555 1_555
C5A C6A 1_555 1_555
O7A C10A 1_555 1_555
O8A C10A 1_555 1_555
O5A C5A 1_555 1_555
O6A C5A 1_555 1_555
O9A C9A 1_555 1_555
O10A_2 C9A 1_555 1_555
Ni1A_2 O5A 1_555 1_555
Ni1_2 O10A_2 1_555 1_555
N1A Ni1A_2 1_555 1_555
N2A Ni1A_2 1_555 1_555
N3A Ni1A_2 1_555 1_555
N4A Ni1A_2 1_555 1_555
O10_2 Ni1A_2 1_555 1_555
C1A N1A 1_555 1_555
O1A N1A 1_555 1_555
C2A N2A 1_555 1_555
O2A N2A 1_555 1_555
C4A N3A 1_555 1_555
O3A N3A 1_555 1_555
C3A N4A 1_555 1_555
O4A N4A 1_555 1_555
N8A C1A 1_555 1_555
N7A C2A 1_555 1_555
N6A C4A 1_555 1_555
N5A C3A 1_555 1_555
C3 N4 1_555 1_555
C5 O5 1_555 1_555
C7A C6A 1_555 1_555
C1A C2A 1_555 1_555
C4A C3A 1_555 1_555

#END
