
#######################################################################
#
#                 Cambridge Crystallographic Data Centre
#                                CCDC 
#
#######################################################################
#
# If this CIF has been generated from an entry in the Cambridge 
# Structural Database, then it will include bibliographic, chemical, 
# crystal, experimental, refinement or atomic coordinate data resulting 
# from the CCDC's data processing and validation procedures.
#
#######################################################################

data_CEZGAP
_symmetry_cell_setting           monoclinic
_symmetry_space_group_name_H-M   'C 2/c'
_symmetry_Int_Tables_number      15
_space_group_name_Hall           '-C 2yn'
loop_
_symmetry_equiv_pos_site_id
_symmetry_equiv_pos_as_xyz
1 x,y,z
2 1/2+x,1/2+y,z
3 -x,y,1/2-z
4 1/2-x,1/2+y,1/2-z
5 -x,-y,-z
6 1/2-x,1/2-y,-z
7 x,-y,1/2+z
8 1/2+x,1/2-y,1/2+z
_cell_length_a                   12.537(9)
_cell_length_b                   10.278(8)
_cell_length_c                   9.918(6)
_cell_angle_alpha                90
_cell_angle_beta                 104.84(5)
_cell_angle_gamma                90
_cell_volume                     1235.36
loop_
_atom_site_label
_atom_site_type_symbol
_atom_site_fract_x
_atom_site_fract_y
_atom_site_fract_z
Ag1 Ag 0.00000 0.00000 0.00000
Ag2 Ag 0.00000 -0.14720 -0.25000
C1 C -0.23700 -0.22200 0.33400
N1 N -0.17600 -0.24200 0.21800
C2 C -0.13300 -0.14300 0.16900
O1 O -0.14500 -0.02800 0.20800
N2 N 0.08000 0.15800 -0.06300
C3 C 0.06500 0.28200 -0.01200
O2 O 0.02100 0.29700 0.07100
C4 C 0.11000 0.39200 -0.07000
C5 C -0.16400 -0.37000 0.17900
Ag2D Ag 0.00000 0.14720 0.25000
N2D N -0.08000 -0.15800 0.06300
C2D C 0.13300 0.14300 -0.16900
C5D C 0.16400 0.37000 -0.17900
C4D C -0.11000 -0.39200 0.07000
O1D O 0.14500 0.02800 -0.20800
O1F O -0.14500 0.02800 -0.29200
O2D O -0.02100 -0.29700 -0.07100
O2F O 0.02100 -0.29700 -0.42900
C3D C -0.06500 -0.28200 0.01200
N1D N 0.17600 0.24200 -0.21800
C1D C 0.23700 0.22200 -0.33400
loop_
_geom_bond_atom_site_label_1
_geom_bond_atom_site_label_2
_geom_bond_site_symmetry_1
_geom_bond_site_symmetry_2
Ag1 N2 1_555 1_555
Ag2 O1D 1_555 1_555
C1 N1 1_555 1_555
N1 C2 1_555 1_555
C2 O1 1_555 1_555
O1 Ag2D 1_555 1_555
N2 C3 1_555 1_555
C3 O2 1_555 1_555
O2 Ag2D 1_555 1_555
C4 C3 1_555 1_555
C5 N1 1_555 1_555
N2D Ag1 1_555 1_555
C2D N2 1_555 1_555
C5D C4 1_555 1_555
C4D C5 1_555 1_555
O1D C2D 1_555 1_555
O1F Ag2 1_555 1_555
O2D Ag2 1_555 1_555
O2F Ag2 1_555 1_555
C3D N2D 1_555 1_555
N1D C2D 1_555 1_555
C1D N1D 1_555 1_555
C2 N2D 1_555 1_555
C5D N1D 1_555 1_555
C4D C3D 1_555 1_555
O2D C3D 1_555 1_555

#END
