
#######################################################################
#
#                 Cambridge Crystallographic Data Centre
#                                CCDC 
#
#######################################################################
#
# If this CIF has been generated from an entry in the Cambridge 
# Structural Database, then it will include bibliographic, chemical, 
# crystal, experimental, refinement or atomic coordinate data resulting 
# from the CCDC's data processing and validation procedures.
#
#######################################################################

data_CEZJOI
_symmetry_cell_setting           triclinic
_symmetry_space_group_name_H-M   'P -1'
_symmetry_Int_Tables_number      2
_space_group_name_Hall           '-P 1'
loop_
_symmetry_equiv_pos_site_id
_symmetry_equiv_pos_as_xyz
1 x,y,z
2 -x,-y,-z
_cell_length_a                   9.7935(4)
_cell_length_b                   12.1729(6)
_cell_length_c                   18.9627(9)
_cell_angle_alpha                78.802(3)
_cell_angle_beta                 89.871(3)
_cell_angle_gamma                70.511(3)
_cell_volume                     2085.76
loop_
_atom_site_label
_atom_site_type_symbol
_atom_site_fract_x
_atom_site_fract_y
_atom_site_fract_z
Cd1 Cd 0.81414(2) 0.617738(16) -0.490736(9)
O1 O 0.3082(2) 0.77615(18) -0.38861(12)
O2 O -1.0383(2) 0.95411(17) -0.07278(10)
O3 O 0.7153(2) 0.36542(17) -0.11381(9)
O4 O 0.9108(2) 0.73490(17) -0.57461(9)
O5 O 1.07045(19) 0.59161(15) -0.49660(9)
O6 O 1.3267(2) 0.86901(17) -0.81019(9)
O7 O 1.0900(2) 0.89955(17) -0.79936(9)
O8 O 1.66996(19) 0.63266(17) -0.59544(9)
O9 O 1.57597(19) 0.61142(15) -0.48961(8)
N1 N 0.6949(2) 0.80478(19) -0.45492(11)
N2 N 0.3607(2) 0.93430(19) -0.36509(11)
H1 H 0.3302 0.9936 -0.3439
N3 N -0.9711(2) 0.81137(19) 0.02816(11)
H2 H -0.8999 0.7565 0.0543
N4 N -1.2583(3) 0.8364(2) 0.15492(12)
N5 N 0.8557(2) 0.53649(18) -0.36859(10)
N6 N 0.6285(2) 0.46492(18) -0.22816(10)
H3 H 0.5503 0.4959 -0.2560
C1 C 0.7495(3) 0.8934(2) -0.46188(13)
H4 H 0.8361 0.8854 -0.4841
C2 C 0.6808(3) 0.9968(2) -0.43691(14)
H5 H 0.7211 1.0568 -0.4422
C3 C 0.5526(3) 1.0096(2) -0.40427(13)
H6 H 0.5057 1.0782 -0.3870
C4 C 0.4935(3) 0.9188(2) -0.39727(12)
C5 C 0.5692(3) 0.8173(2) -0.42310(13)
H7 H 0.5314 0.7557 -0.4182
C6 C 0.2748(3) 0.8659(2) -0.36370(13)
C7 C 0.1310(3) 0.9133(2) -0.33095(14)
H8 H 0.0671 0.9809 -0.3651
H9 H 0.1473 0.9413 -0.2883
C8 C 0.0561(3) 0.8215(2) -0.31042(14)
H10 H 0.1214 0.7518 -0.2782
H11 H 0.0334 0.7970 -0.3534
C9 C -0.0835(3) 0.8718(2) -0.27362(14)
H12 H -0.0588 0.8921 -0.2295
H13 H -0.1445 0.9448 -0.3049
C10 C -0.1707(3) 0.7885(2) -0.25535(14)
H14 H -0.1101 0.7148 -0.2246
H15 H -0.1984 0.7695 -0.2994
C11 C -0.3072(3) 0.8427(2) -0.21732(14)
H16 H -0.2786 0.8577 -0.1722
H17 H -0.3646 0.9187 -0.2470
C12 C -0.4010(3) 0.7650(2) -0.20193(14)
H18 H -0.3440 0.6895 -0.1716
H19 H -0.4281 0.7489 -0.2470
C13 C -0.5381(3) 0.8194(2) -0.16519(14)
H20 H -0.5970 0.8938 -0.1960
H21 H -0.5117 0.8371 -0.1205
C14 C -0.6273(3) 0.7372(3) -0.14900(16)
H22 H -0.6353 0.7066 -0.1918
H23 H -0.5745 0.6699 -0.1113
C15 C -0.7790(3) 0.7929(3) -0.12571(16)
H24 H -0.8292 0.7357 -0.1226
H25 H -0.8313 0.8613 -0.1628
C16 C -0.7861(3) 0.8330(3) -0.05360(14)
H26 H -0.7271 0.7677 -0.0164
H27 H -0.7486 0.8982 -0.0576
C17 C -0.9416(3) 0.8728(2) -0.03385(13)
C18 C -1.1127(3) 0.8322(2) 0.05266(13)
C19 C -1.2352(3) 0.8617(2) 0.00659(14)
H28 H -1.2284 0.8708 -0.0430
C20 C -1.3671(3) 0.8770(3) 0.03622(16)
H29 H -1.4505 0.8945 0.0067
C21 C -1.3751(3) 0.8661(3) 0.10996(17)
H30 H -1.4656 0.8801 0.1289
C22 C -1.1300(3) 0.8197(2) 0.12612(14)
H31 H -1.0477 0.7984 0.1571
C23 C 0.9842(3) 0.5082(2) -0.33284(13)
H32 H 1.0628 0.5172 -0.3580
C24 C 1.0025(3) 0.4657(2) -0.25876(13)
H33 H 1.0926 0.4469 -0.2347
C25 C 0.8868(3) 0.4513(2) -0.22067(13)
H34 H 0.8975 0.4247 -0.1709
C26 C 0.7541(3) 0.4775(2) -0.25821(12)
C27 C 0.7441(3) 0.5212(2) -0.33245(12)
H35 H 0.6554 0.5405 -0.3580
C28 C 0.6142(3) 0.4099(2) -0.16039(13)
C29 C 0.4628(3) 0.4078(2) -0.14820(13)
H36 H 0.4545 0.3376 -0.1621
H37 H 0.3943 0.4770 -0.1795
C30 C 0.4207(3) 0.4074(3) -0.07098(13)
H38 H 0.4490 0.4665 -0.0530
H39 H 0.4728 0.3300 -0.0411
C31 C 0.2578(3) 0.4341(3) -0.06537(14)
H40 H 0.2061 0.5116 -0.0951
H41 H 0.2297 0.3754 -0.0840
C32 C 0.2129(3) 0.4330(3) 0.01177(15)
H42 H 0.2305 0.4982 0.0281
H43 H 0.2741 0.3594 0.0424
C33 C 0.0536(3) 0.4442(3) 0.02118(16)
H44 H 0.0374 0.3767 0.0072
H45 H 0.0360 0.4399 0.0718
C34 C 1.0392(3) 0.6776(2) -0.55113(12)
C35 C 1.1598(3) 0.7071(2) -0.58925(12)
C36 C 1.2984(3) 0.6660(2) -0.55590(12)
H46 H 1.3144 0.6267 -0.5079
C37 C 1.4134(3) 0.6832(2) -0.59388(12)
C38 C 1.3895(3) 0.7436(2) -0.66550(12)
H47 H 1.4670 0.7533 -0.6913
C39 C 1.2499(3) 0.7893(2) -0.69835(12)
C40 C 1.1349(3) 0.7710(2) -0.66015(12)
H48 H 1.0414 0.8015 -0.6821
C41 C 1.2285(3) 0.8561(2) -0.77472(12)
C42 C 1.5625(3) 0.6388(2) -0.55711(13)
H49 H 1.083(4) 0.945(3) -0.841(2)
O3A O -0.7153(2) 0.63458(17) 0.11381(9)
N5A N -0.8557(2) 0.46351(18) 0.36859(10)
N6A N -0.6285(2) 0.53508(18) 0.22816(10)
H3A H -0.5503 0.5041 0.2560
C23A C -0.9842(3) 0.4918(2) 0.33284(13)
H32A H -1.0628 0.4828 0.3580
C24A C -1.0025(3) 0.5343(2) 0.25876(13)
H33A H -1.0926 0.5531 0.2347
C25A C -0.8868(3) 0.5487(2) 0.22067(13)
H34A H -0.8975 0.5753 0.1709
C26A C -0.7541(3) 0.5225(2) 0.25821(12)
C27A C -0.7441(3) 0.4788(2) 0.33245(12)
H35A H -0.6554 0.4595 0.3580
C28A C -0.6142(3) 0.5901(2) 0.16039(13)
C29A C -0.4628(3) 0.5922(2) 0.14820(13)
H36A H -0.4545 0.6624 0.1621
H37A H -0.3943 0.5230 0.1795
C30A C -0.4207(3) 0.5926(3) 0.07098(13)
H38A H -0.4490 0.5335 0.0530
H39A H -0.4728 0.6700 0.0411
C31A C -0.2578(3) 0.5659(3) 0.06537(14)
H40A H -0.2061 0.4884 0.0951
H41A H -0.2297 0.6246 0.0840
C32A C -0.2129(3) 0.5670(3) -0.01177(15)
H42A H -0.2305 0.5018 -0.0281
H43A H -0.2741 0.6406 -0.0424
C33A C -0.0536(3) 0.5558(3) -0.02118(16)
H44A H -0.0374 0.6233 -0.0072
H45A H -0.0360 0.5601 -0.0718
Cd1A Cd -0.81414(2) 0.382262(16) 0.490736(9)
O1A O -0.3082(2) 0.22385(18) 0.38861(12)
O2A O 1.0383(2) 0.04589(17) 0.07278(10)
O4A O -0.9108(2) 0.26510(17) 0.57461(9)
O5A O -1.07045(19) 0.40839(15) 0.49660(9)
O6A O -1.3267(2) 0.13099(17) 0.81019(9)
O7A O -1.0900(2) 0.10045(17) 0.79936(9)
O8A O -1.66996(19) 0.36734(17) 0.59544(9)
O9A O -1.57597(19) 0.38858(15) 0.48961(8)
N1A N -0.6949(2) 0.19522(19) 0.45492(11)
N2A N -0.3607(2) 0.06570(19) 0.36509(11)
H1A H -0.3302 0.0064 0.3439
N3A N 0.9711(2) 0.18863(19) -0.02816(11)
H2A H 0.8999 0.2435 -0.0543
N4A N 1.2583(3) 0.1636(2) -0.15492(12)
C1A C -0.7495(3) 0.1066(2) 0.46188(13)
H4A H -0.8361 0.1146 0.4841
C2A C -0.6808(3) 0.0032(2) 0.43691(14)
H5A H -0.7211 -0.0568 0.4422
C3A C -0.5526(3) -0.0096(2) 0.40427(13)
H6A H -0.5057 -0.0782 0.3870
C4A C -0.4935(3) 0.0812(2) 0.39727(12)
C5A C -0.5692(3) 0.1827(2) 0.42310(13)
H7A H -0.5314 0.2443 0.4182
C6A C -0.2748(3) 0.1341(2) 0.36370(13)
C7A C -0.1310(3) 0.0867(2) 0.33095(14)
H8A H -0.0671 0.0191 0.3651
H9A H -0.1473 0.0587 0.2883
C8A C -0.0561(3) 0.1785(2) 0.31042(14)
H10A H -0.1214 0.2482 0.2782
H11A H -0.0334 0.2030 0.3534
C9A C 0.0835(3) 0.1282(2) 0.27362(14)
H12A H 0.0588 0.1079 0.2295
H13A H 0.1445 0.0552 0.3049
C10A C 0.1707(3) 0.2115(2) 0.25535(14)
H14A H 0.1101 0.2852 0.2246
H15A H 0.1984 0.2305 0.2994
C11A C 0.3072(3) 0.1573(2) 0.21732(14)
H16A H 0.2786 0.1423 0.1722
H17A H 0.3646 0.0813 0.2470
C12A C 0.4010(3) 0.2350(2) 0.20193(14)
H18A H 0.3440 0.3105 0.1716
H19A H 0.4281 0.2511 0.2470
C13A C 0.5381(3) 0.1806(2) 0.16519(14)
H20A H 0.5970 0.1062 0.1960
H21A H 0.5117 0.1629 0.1205
C14A C 0.6273(3) 0.2628(3) 0.14900(16)
H22A H 0.6353 0.2934 0.1918
H23A H 0.5745 0.3301 0.1113
C15A C 0.7790(3) 0.2071(3) 0.12571(16)
H24A H 0.8292 0.2643 0.1226
H25A H 0.8313 0.1387 0.1628
C16A C 0.7861(3) 0.1670(3) 0.05360(14)
H26A H 0.7271 0.2323 0.0164
H27A H 0.7486 0.1018 0.0576
C17A C 0.9416(3) 0.1272(2) 0.03385(13)
C18A C 1.1127(3) 0.1678(2) -0.05266(13)
C19A C 1.2352(3) 0.1383(2) -0.00659(14)
H28A H 1.2284 0.1292 0.0430
C20A C 1.3671(3) 0.1230(3) -0.03622(16)
H29A H 1.4505 0.1055 -0.0067
C21A C 1.3751(3) 0.1339(3) -0.10996(17)
H30A H 1.4656 0.1199 -0.1289
C22A C 1.1300(3) 0.1803(2) -0.12612(14)
H31A H 1.0477 0.2016 -0.1571
C34A C -1.0392(3) 0.3224(2) 0.55113(12)
C35A C -1.1598(3) 0.2929(2) 0.58925(12)
C36A C -1.2984(3) 0.3340(2) 0.55590(12)
H46A H -1.3144 0.3733 0.5079
C37A C -1.4134(3) 0.3168(2) 0.59388(12)
C38A C -1.3895(3) 0.2564(2) 0.66550(12)
H47A H -1.4670 0.2467 0.6913
C39A C -1.2499(3) 0.2107(2) 0.69835(12)
C40A C -1.1349(3) 0.2290(2) 0.66015(12)
H48A H -1.0414 0.1985 0.6821
C41A C -1.2285(3) 0.1439(2) 0.77472(12)
C42A C -1.5625(3) 0.3612(2) 0.55711(13)
H49A H -1.083(4) 0.055(3) 0.841(2)
Cd1_2 Cd -1.18586(2) 0.617738(16) 0.509264(9)
Cd1_3 Cd 1.81414(2) 0.617738(16) -0.490736(9)
Cd1A_2 Cd -1.81414(2) 0.382262(16) 0.490736(9)
Cd1A_3 Cd 1.18586(2) 0.382262(16) -0.509264(9)
O5_2 O -0.92955(19) 0.59161(15) 0.50340(9)
O5A_2 O 0.92955(19) 0.40839(15) -0.50340(9)
O8_2 O 0.66996(19) 0.63266(17) -0.59544(9)
O8A_2 O -0.66996(19) 0.36734(17) 0.59544(9)
O9_2 O 0.57597(19) 0.61142(15) -0.48961(8)
O9A_2 O -0.57597(19) 0.38858(15) 0.48961(8)
O10 O 0.3628(2) 0.5369(2) -0.31909(11)
H50 H 0.347(4) 0.495(3) -0.3467(17)
H51 H 0.342(4) 0.601(3) -0.3464(19)
O11 O 0.2847(3) 1.1341(2) -0.30037(13)
H52 H 0.250(4) 1.187(3) -0.3276(18)
H53 H 0.269(5) 1.143(4) -0.260(3)
loop_
_geom_bond_atom_site_label_1
_geom_bond_atom_site_label_2
_geom_bond_site_symmetry_1
_geom_bond_site_symmetry_2
Cd1 O4 1_555 1_555
O1 C6 1_555 1_555
O2 C17 1_555 1_555
O3 C28 1_555 1_555
O4 C34 1_555 1_555
O5 Cd1 1_555 1_555
O6 C41 1_555 1_555
O7 C41 1_555 1_555
O8 C42 1_555 1_555
O9 C42 1_555 1_555
N1 Cd1 1_555 1_555
N2 H1 1_555 1_555
N3 H2 1_555 1_555
N4 C21 1_555 1_555
N5 Cd1 1_555 1_555
N6 H3 1_555 1_555
C1 N1 1_555 1_555
H4 C1 1_555 1_555
C2 C1 1_555 1_555
H5 C2 1_555 1_555
C3 C2 1_555 1_555
H6 C3 1_555 1_555
C4 N2 1_555 1_555
C5 N1 1_555 1_555
H7 C5 1_555 1_555
C6 N2 1_555 1_555
C7 C6 1_555 1_555
H8 C7 1_555 1_555
H9 C7 1_555 1_555
C8 C7 1_555 1_555
H10 C8 1_555 1_555
H11 C8 1_555 1_555
C9 C8 1_555 1_555
H12 C9 1_555 1_555
H13 C9 1_555 1_555
C10 C9 1_555 1_555
H14 C10 1_555 1_555
H15 C10 1_555 1_555
C11 C10 1_555 1_555
H16 C11 1_555 1_555
H17 C11 1_555 1_555
C12 C11 1_555 1_555
H18 C12 1_555 1_555
H19 C12 1_555 1_555
C13 C12 1_555 1_555
H20 C13 1_555 1_555
H21 C13 1_555 1_555
C14 C13 1_555 1_555
H22 C14 1_555 1_555
H23 C14 1_555 1_555
C15 C14 1_555 1_555
H24 C15 1_555 1_555
H25 C15 1_555 1_555
C16 C15 1_555 1_555
H26 C16 1_555 1_555
H27 C16 1_555 1_555
C17 N3 1_555 1_555
C18 N3 1_555 1_555
C19 C18 1_555 1_555
H28 C19 1_555 1_555
C20 C19 1_555 1_555
H29 C20 1_555 1_555
C21 C20 1_555 1_555
H30 C21 1_555 1_555
C22 N4 1_555 1_555
H31 C22 1_555 1_555
C23 N5 1_555 1_555
H32 C23 1_555 1_555
C24 C23 1_555 1_555
H33 C24 1_555 1_555
C25 C24 1_555 1_555
H34 C25 1_555 1_555
C26 N6 1_555 1_555
C27 N5 1_555 1_555
H35 C27 1_555 1_555
C28 N6 1_555 1_555
C29 C28 1_555 1_555
H36 C29 1_555 1_555
H37 C29 1_555 1_555
C30 C29 1_555 1_555
H38 C30 1_555 1_555
H39 C30 1_555 1_555
C31 C30 1_555 1_555
H40 C31 1_555 1_555
H41 C31 1_555 1_555
C32 C31 1_555 1_555
H42 C32 1_555 1_555
H43 C32 1_555 1_555
C33 C32 1_555 1_555
H44 C33 1_555 1_555
H45 C33 1_555 1_555
C34 O5 1_555 1_555
C35 C34 1_555 1_555
C36 C35 1_555 1_555
H46 C36 1_555 1_555
C37 C36 1_555 1_555
C38 C37 1_555 1_555
H47 C38 1_555 1_555
C39 C38 1_555 1_555
C40 C35 1_555 1_555
H48 C40 1_555 1_555
C41 C39 1_555 1_555
C42 C37 1_555 1_555
H49 O7 1_555 1_555
O10 H50 1_555 1_555
H51 O10 1_555 1_555
O11 H52 1_555 1_555
H53 O11 1_555 1_555
O3A C28A 1_555 1_555
N5A C23A 1_555 1_555
N6A H3A 1_555 1_555
C23A H32A 1_555 1_555
C24A C23A 1_555 1_555
H33A C24A 1_555 1_555
C25A C24A 1_555 1_555
H34A C25A 1_555 1_555
C26A N6A 1_555 1_555
C27A N5A 1_555 1_555
H35A C27A 1_555 1_555
C28A N6A 1_555 1_555
C29A C28A 1_555 1_555
H36A C29A 1_555 1_555
H37A C29A 1_555 1_555
C30A C29A 1_555 1_555
H38A C30A 1_555 1_555
H39A C30A 1_555 1_555
C31A C30A 1_555 1_555
H40A C31A 1_555 1_555
H41A C31A 1_555 1_555
C32A C31A 1_555 1_555
H42A C32A 1_555 1_555
H43A C32A 1_555 1_555
C33A C33 1_555 1_555
H44A C33A 1_555 1_555
H45A C33A 1_555 1_555
Cd1A N5A 1_555 1_555
O1A C6A 1_555 1_555
O2A C17A 1_555 1_555
O4A Cd1A 1_555 1_555
O5A Cd1A 1_555 1_555
O6A C41A 1_555 1_555
O7A C41A 1_555 1_555
O8A C42A 1_555 1_555
O9A C42A 1_555 1_555
N1A Cd1A 1_555 1_555
N2A H1A 1_555 1_555
N3A H2A 1_555 1_555
N4A C21A 1_555 1_555
C1A N1A 1_555 1_555
H4A C1A 1_555 1_555
C2A C1A 1_555 1_555
H5A C2A 1_555 1_555
C3A C2A 1_555 1_555
H6A C3A 1_555 1_555
C4A N2A 1_555 1_555
C5A N1A 1_555 1_555
H7A C5A 1_555 1_555
C6A N2A 1_555 1_555
C7A C6A 1_555 1_555
H8A C7A 1_555 1_555
H9A C7A 1_555 1_555
C8A C7A 1_555 1_555
H10A C8A 1_555 1_555
H11A C8A 1_555 1_555
C9A C8A 1_555 1_555
H12A C9A 1_555 1_555
H13A C9A 1_555 1_555
C10A C9A 1_555 1_555
H14A C10A 1_555 1_555
H15A C10A 1_555 1_555
C11A C10A 1_555 1_555
H16A C11A 1_555 1_555
H17A C11A 1_555 1_555
C12A C11A 1_555 1_555
H18A C12A 1_555 1_555
H19A C12A 1_555 1_555
C13A C12A 1_555 1_555
H20A C13A 1_555 1_555
H21A C13A 1_555 1_555
C14A C13A 1_555 1_555
H22A C14A 1_555 1_555
H23A C14A 1_555 1_555
C15A C14A 1_555 1_555
H24A C15A 1_555 1_555
H25A C15A 1_555 1_555
C16A C15A 1_555 1_555
H26A C16A 1_555 1_555
H27A C16A 1_555 1_555
C17A N3A 1_555 1_555
C18A N3A 1_555 1_555
C19A C18A 1_555 1_555
H28A C19A 1_555 1_555
C20A C19A 1_555 1_555
H29A C20A 1_555 1_555
C21A C20A 1_555 1_555
H30A C21A 1_555 1_555
C22A N4A 1_555 1_555
H31A C22A 1_555 1_555
C34A O4A 1_555 1_555
C35A C34A 1_555 1_555
C36A C35A 1_555 1_555
H46A C36A 1_555 1_555
C37A C36A 1_555 1_555
C38A C37A 1_555 1_555
H47A C38A 1_555 1_555
C39A C38A 1_555 1_555
C40A C35A 1_555 1_555
H48A C40A 1_555 1_555
C41A C39A 1_555 1_555
C42A C37A 1_555 1_555
H49A O7A 1_555 1_555
Cd1_2 O5A 1_555 1_555
Cd1_3 O8 1_555 1_555
Cd1A_2 O8A 1_555 1_555
Cd1A_3 O5 1_555 1_555
O5_2 Cd1A 1_555 1_555
O5A_2 Cd1 1_555 1_555
O8_2 Cd1 1_555 1_555
O8A_2 Cd1A 1_555 1_555
O9_2 Cd1 1_555 1_555
O9A_2 Cd1A 1_555 1_555
O9 Cd1_3 1_555 1_555
C3 C4 1_555 1_555
C4 C5 1_555 1_555
C16 C17 1_555 1_555
C18 C22 1_555 1_555
C25 C26 1_555 1_555
C26 C27 1_555 1_555
C39 C40 1_555 1_555
C25A C26A 1_555 1_555
C26A C27A 1_555 1_555
C32A C33A 1_555 1_555
O5A C34A 1_555 1_555
O9A Cd1A_2 1_555 1_555
C3A C4A 1_555 1_555
C4A C5A 1_555 1_555
C16A C17A 1_555 1_555
C18A C22A 1_555 1_555
C39A C40A 1_555 1_555
Cd1_2 O5_2 1_555 1_555
Cd1A_3 O5A_2 1_555 1_555

#END
