
#######################################################################
#
#                 Cambridge Crystallographic Data Centre
#                                CCDC 
#
#######################################################################
#
# If this CIF has been generated from an entry in the Cambridge 
# Structural Database, then it will include bibliographic, chemical, 
# crystal, experimental, refinement or atomic coordinate data resulting 
# from the CCDC's data processing and validation procedures.
#
#######################################################################

data_CEZKAV
_symmetry_cell_setting           triclinic
_symmetry_space_group_name_H-M   'P -1'
_symmetry_Int_Tables_number      2
_space_group_name_Hall           '-P 1'
loop_
_symmetry_equiv_pos_site_id
_symmetry_equiv_pos_as_xyz
1 x,y,z
2 -x,-y,-z
_cell_length_a                   7.7047(8)
_cell_length_b                   8.9034(11)
_cell_length_c                   29.447(4)
_cell_angle_alpha                89.256(12)
_cell_angle_beta                 89.387(10)
_cell_angle_gamma                71.385(10)
_cell_volume                     1914.12
loop_
_atom_site_label
_atom_site_type_symbol
_atom_site_fract_x
_atom_site_fract_y
_atom_site_fract_z
Zn1 Zn 0.16247(4) 0.37936(4) 0.054538(10)
O1 O 0.4433(4) 0.2925(3) 0.28417(9)
O2 O 0.2198(3) 1.2711(3) 0.67647(9)
O3 O 0.8538(3) 0.3377(3) 0.07854(11)
O4 O 0.9212(3) 0.5340(3) 0.04772(10)
O5 O 0.7385(3) 0.7979(2) -0.01485(7)
O6 O 0.6847(3) 0.9070(3) 0.05306(8)
N1 N 0.2552(3) 0.2815(3) 0.11635(7)
N2 N 0.2293(3) 0.4174(3) 0.23278(8)
H1 H 0.1311 0.4964 0.2290
N3 N 0.4848(3) 1.1764(3) 0.71511(8)
H2 H 0.5906 1.1048 0.7147
N4 N 0.2743(4) 1.5278(3) 0.78544(11)
N5 N 0.3077(3) 0.5397(3) 0.05225(7)
C1 C 0.3884(4) 0.1426(3) 0.11862(10)
H3 H 0.4241 0.0835 0.0923
C2 C 0.4739(4) 0.0846(4) 0.15862(11)
H4 H 0.5662 -0.0129 0.1591
C3 C 0.4247(4) 0.1688(4) 0.19784(10)
H5 H 0.4821 0.1295 0.2251
C4 C 0.2871(4) 0.3144(3) 0.19601(9)
C5 C 0.2053(4) 0.3646(3) 0.15454(9)
H6 H 0.1111 0.4608 0.1531
C6 C 0.3127(4) 0.4051(4) 0.27382(10)
C7 C 0.2319(4) 0.5436(4) 0.30483(9)
H7 H 0.1063 0.5510 0.3119
H8 H 0.2300 0.6403 0.2890
C8 C 0.3362(4) 0.5317(4) 0.34881(10)
H9 H 0.3435 0.4327 0.3640
H10 H 0.4601 0.5302 0.3419
C9 C 0.2475(4) 0.6676(4) 0.38045(9)
H11 H 0.1252 0.6666 0.3882
H12 H 0.2359 0.7668 0.3647
C10 C 0.3550(5) 0.6601(4) 0.42396(10)
H13 H 0.3654 0.5612 0.4397
H14 H 0.4778 0.6593 0.4160
C11 C 0.2709(5) 0.7955(4) 0.45605(10)
H15 H 0.1483 0.7962 0.4641
H16 H 0.2601 0.8945 0.4404
C12 C 0.3791(5) 0.7876(4) 0.49924(10)
H17 H 0.3891 0.6888 0.5150
H18 H 0.5020 0.7860 0.4911
C13 C 0.2966(5) 0.9234(4) 0.53143(10)
H19 H 0.1744 0.9241 0.5401
H20 H 0.2850 1.0224 0.5157
C14 C 0.4083(5) 0.9142(4) 0.57401(10)
H21 H 0.5309 0.9118 0.5653
H22 H 0.4184 0.8157 0.5899
C15 C 0.3286(4) 1.0507(4) 0.60630(10)
H23 H 0.2084 1.0505 0.6163
H24 H 0.3137 1.1498 0.5902
C16 C 0.4484(4) 1.0415(4) 0.64748(10)
H25 H 0.4648 0.9414 0.6631
H26 H 0.5680 1.0429 0.6373
C17 C 0.3709(4) 1.1744(4) 0.68034(10)
C18 C 0.4490(4) 1.2826(3) 0.75165(9)
C19 C 0.5596(4) 1.2476(4) 0.78930(10)
H27 H 0.6574 1.1538 0.7908
C20 C 0.5242(5) 1.3529(4) 0.82477(11)
H28 H 0.5968 1.3303 0.8506
C21 C 0.3816(5) 1.4907(4) 0.82156(11)
H29 H 0.3587 1.5612 0.8456
C22 C 0.3073(5) 1.4241(4) 0.75192(12)
H30 H 0.2299 1.4484 0.7270
C23 C 0.4886(3) 0.4772(3) 0.06006(8)
H31 H 0.5331 0.3734 0.0709
C24 C 0.6107(3) 0.5591(3) 0.05288(8)
C25 C 0.5454(3) 0.7148(3) 0.03647(9)
C26 C 0.3567(4) 0.7814(3) 0.03030(10)
H32 H 0.3075 0.8864 0.0208
C27 C 0.2440(3) 0.6910(3) 0.03824(9)
H33 H 0.1188 0.7367 0.0337
C28 C 0.8089(4) 0.4702(4) 0.06100(9)
C29 C 0.6688(4) 0.8134(3) 0.02508(9)
Zn1_2 Zn 1.16247(4) 0.37936(4) 0.054538(10)
Zn1A Zn 0.83753(4) 0.62064(4) -0.054538(10)
O4_2 O -0.0788(3) 0.5340(3) 0.04772(10)
O5A O 0.2615(3) 0.2021(2) 0.01485(7)
O7 O -0.1272(3) 2.0016(3) 0.69922(8)
N6 N 0.0160(4) 2.2367(3) 0.80703(10)
N7 N 0.0874(4) 1.8613(3) 0.74770(9)
H34 H 0.1690 1.7706 0.7522
C30 C 0.0162(5) 2.1850(4) 0.84985(12)
H35 H 0.0014 2.2579 0.8731
C31 C 0.0369(5) 2.0312(4) 0.86145(12)
H36 H 0.0385 2.0004 0.8918
C32 C 0.0553(4) 1.9232(4) 0.82755(11)
H37 H 0.0657 1.8185 0.8345
C33 C 0.0580(4) 1.9717(3) 0.78317(11)
C34 C 0.0406(4) 2.1298(4) 0.77448(11)
H38 H 0.0463 2.1621 0.7445
C35 C 0.0006(4) 1.8831(3) 0.70738(10)
C36 C 0.0756(5) 1.7512(4) 0.67395(11)
H39 H 0.0757 1.6526 0.6884
H40 H 0.2020 1.7425 0.6674
C37 C -0.0254(4) 1.7680(4) 0.62937(10)
H41 H -0.0274 1.8665 0.6146
H42 H -0.1511 1.7728 0.6353
C38 C 0.0637(4) 1.6307(4) 0.59781(10)
H43 H 0.0721 1.5323 0.6136
H44 H 0.1875 1.6297 0.5909
C39 C -0.0383(4) 1.6368(4) 0.55327(10)
H45 H -0.1624 1.6387 0.5601
H46 H -0.0457 1.7347 0.5373
C40 C 0.0510(4) 1.4981(4) 0.52205(10)
H47 H 0.1745 1.4971 0.5149
H48 H 0.0600 1.4002 0.5382
O7A O 0.1272(3) 0.9984(3) 0.30078(8)
N6A N -0.0160(4) 0.7633(3) 0.19297(10)
N7A N -0.0874(4) 1.1387(3) 0.25230(9)
H34A H -0.1690 1.2294 0.2478
C30A C -0.0162(5) 0.8150(4) 0.15015(12)
H35A H -0.0014 0.7421 0.1269
C31A C -0.0369(5) 0.9688(4) 0.13855(12)
H36A H -0.0385 0.9996 0.1082
C32A C -0.0553(4) 1.0768(4) 0.17245(11)
H37A H -0.0657 1.1815 0.1655
C33A C -0.0580(4) 1.0283(3) 0.21683(11)
C34A C -0.0406(4) 0.8702(4) 0.22552(11)
H38A H -0.0463 0.8379 0.2555
C35A C -0.0006(4) 1.1169(3) 0.29262(10)
C36A C -0.0756(5) 1.2488(4) 0.32605(11)
H39A H -0.0757 1.3474 0.3116
H40A H -0.2020 1.2575 0.3326
C37A C 0.0254(4) 1.2320(4) 0.37063(10)
H41A H 0.0274 1.1335 0.3854
H42A H 0.1511 1.2272 0.3647
C38A C -0.0637(4) 1.3693(4) 0.40219(10)
H43A H -0.0721 1.4677 0.3864
H44A H -0.1875 1.3703 0.4091
C39A C 0.0383(4) 1.3632(4) 0.44673(10)
H45A H 0.1624 1.3613 0.4399
H46A H 0.0457 1.2653 0.4627
C40A C -0.0510(4) 1.5019(4) 0.47795(10)
H47A H -0.1745 1.5029 0.4851
H48A H -0.0600 1.5998 0.4618
loop_
_geom_bond_atom_site_label_1
_geom_bond_atom_site_label_2
_geom_bond_site_symmetry_1
_geom_bond_site_symmetry_2
Zn1 N1 1_555 1_555
O1 C6 1_555 1_555
O2 C17 1_555 1_555
O3 C28 1_555 1_555
O4 C28 1_555 1_555
O5 C29 1_555 1_555
O6 C29 1_555 1_555
N1 C1 1_555 1_555
N2 H1 1_555 1_555
N3 H2 1_555 1_555
N4 C21 1_555 1_555
N5 Zn1 1_555 1_555
C1 H3 1_555 1_555
C2 C1 1_555 1_555
H4 C2 1_555 1_555
C3 C2 1_555 1_555
H5 C3 1_555 1_555
C4 N2 1_555 1_555
C5 N1 1_555 1_555
H6 C5 1_555 1_555
C6 N2 1_555 1_555
C7 C6 1_555 1_555
H7 C7 1_555 1_555
H8 C7 1_555 1_555
C8 C7 1_555 1_555
H9 C8 1_555 1_555
H10 C8 1_555 1_555
C9 C8 1_555 1_555
H11 C9 1_555 1_555
H12 C9 1_555 1_555
C10 C9 1_555 1_555
H13 C10 1_555 1_555
H14 C10 1_555 1_555
C11 C10 1_555 1_555
H15 C11 1_555 1_555
H16 C11 1_555 1_555
C12 C11 1_555 1_555
H17 C12 1_555 1_555
H18 C12 1_555 1_555
C13 C12 1_555 1_555
H19 C13 1_555 1_555
H20 C13 1_555 1_555
C14 C13 1_555 1_555
H21 C14 1_555 1_555
H22 C14 1_555 1_555
C15 C14 1_555 1_555
H23 C15 1_555 1_555
H24 C15 1_555 1_555
C16 C15 1_555 1_555
H25 C16 1_555 1_555
H26 C16 1_555 1_555
C17 N3 1_555 1_555
C18 N3 1_555 1_555
C19 C18 1_555 1_555
H27 C19 1_555 1_555
C20 C19 1_555 1_555
H28 C20 1_555 1_555
C21 C20 1_555 1_555
H29 C21 1_555 1_555
C22 N4 1_555 1_555
H30 C22 1_555 1_555
C23 N5 1_555 1_555
H31 C23 1_555 1_555
C24 C23 1_555 1_555
C25 C24 1_555 1_555
C26 C25 1_555 1_555
H32 C26 1_555 1_555
C27 N5 1_555 1_555
H33 C27 1_555 1_555
C28 C24 1_555 1_555
C29 C25 1_555 1_555
O7 C35 1_555 1_555
N6 C30 1_555 1_555
N7 H34 1_555 1_555
C30 H35 1_555 1_555
C31 C30 1_555 1_555
H36 C31 1_555 1_555
C32 C31 1_555 1_555
H37 C32 1_555 1_555
C33 N7 1_555 1_555
C34 N6 1_555 1_555
H38 C34 1_555 1_555
C35 N7 1_555 1_555
C36 C35 1_555 1_555
H39 C36 1_555 1_555
H40 C36 1_555 1_555
C37 C36 1_555 1_555
H41 C37 1_555 1_555
H42 C37 1_555 1_555
C38 C37 1_555 1_555
H43 C38 1_555 1_555
H44 C38 1_555 1_555
C39 C38 1_555 1_555
H45 C39 1_555 1_555
H46 C39 1_555 1_555
C40 C39 1_555 1_555
H47 C40 1_555 1_555
H48 C40 1_555 1_555
Zn1_2 O4 1_555 1_555
Zn1A O5 1_555 1_555
O4_2 Zn1 1_555 1_555
O5A Zn1 1_555 1_555
O7A C35A 1_555 1_555
N6A C30A 1_555 1_555
N7A H34A 1_555 1_555
C30A H35A 1_555 1_555
C31A C30A 1_555 1_555
H36A C31A 1_555 1_555
C32A C31A 1_555 1_555
H37A C32A 1_555 1_555
C33A N7A 1_555 1_555
C34A N6A 1_555 1_555
H38A C34A 1_555 1_555
C35A N7A 1_555 1_555
C36A C35A 1_555 1_555
H39A C36A 1_555 1_555
H40A C36A 1_555 1_555
C37A C36A 1_555 1_555
H41A C37A 1_555 1_555
H42A C37A 1_555 1_555
C38A C37A 1_555 1_555
H43A C38A 1_555 1_555
H44A C38A 1_555 1_555
C39A C38A 1_555 1_555
H45A C39A 1_555 1_555
H46A C39A 1_555 1_555
C40A C40 1_555 1_555
H47A C40A 1_555 1_555
H48A C40A 1_555 1_555
C3 C4 1_555 1_555
C4 C5 1_555 1_555
C16 C17 1_555 1_555
C18 C22 1_555 1_555
C26 C27 1_555 1_555
C32 C33 1_555 1_555
C33 C34 1_555 1_555
C32A C33A 1_555 1_555
C33A C34A 1_555 1_555
C39A C40A 1_555 1_555

#END
