
#######################################################################
#
#                 Cambridge Crystallographic Data Centre
#                                CCDC 
#
#######################################################################
#
# If this CIF has been generated from an entry in the Cambridge 
# Structural Database, then it will include bibliographic, chemical, 
# crystal, experimental, refinement or atomic coordinate data resulting 
# from the CCDC's data processing and validation procedures.
#
#######################################################################

data_CEZKEZ
_symmetry_cell_setting           triclinic
_symmetry_space_group_name_H-M   'P -1'
_symmetry_Int_Tables_number      2
_space_group_name_Hall           '-P 1'
loop_
_symmetry_equiv_pos_site_id
_symmetry_equiv_pos_as_xyz
1 x,y,z
2 -x,-y,-z
_cell_length_a                   9.482(2)
_cell_length_b                   11.424(3)
_cell_length_c                   15.607(4)
_cell_angle_alpha                89.33(2)
_cell_angle_beta                 81.068(13)
_cell_angle_gamma                78.376(16)
_cell_volume                     1635.5
loop_
_atom_site_label
_atom_site_type_symbol
_atom_site_fract_x
_atom_site_fract_y
_atom_site_fract_z
Zn1 Zn -1.08797(3) 0.65330(3) 0.547410(17)
O1 O -0.70831(17) 0.88148(17) 0.63267(12)
O2 O 0.55512(17) 0.65245(19) 0.97310(10)
O3 O -0.90865(13) 0.60156(15) 0.46728(9)
O4 O -0.78381(14) 0.60970(14) 0.57589(9)
O5 O -0.27334(13) 0.65392(14) 0.50884(9)
O6 O -0.17637(15) 0.69132(16) 0.37428(10)
O7 O -0.45367(15) 0.65516(16) 0.13776(10)
O8 O -0.69535(15) 0.67065(15) 0.16599(9)
N1 N -1.09959(18) 0.83467(18) 0.57136(11)
N2 N -0.90804(19) 1.02626(19) 0.67928(13)
H1 H -0.9393 1.0889 0.7122
N3 N 0.54214(17) 0.62553(18) 0.83263(11)
H2 H 0.4844 0.6244 0.7954
N4 N 0.87313(17) 0.60915(17) 0.67446(11)
C1 C -1.2090(2) 0.9187(2) 0.54929(16)
H3 H -1.2773 0.8950 0.5201
C2 C -1.2232(3) 1.0373(2) 0.56837(17)
H4 H -1.3001 1.0931 0.5525
C3 C -1.1218(2) 1.0738(2) 0.61156(16)
H5 H -1.1297 1.1542 0.6251
C4 C -1.0089(2) 0.9888(2) 0.63417(15)
C5 C -1.0017(2) 0.8703(2) 0.61329(15)
H6 H -0.9260 0.8129 0.6289
C6 C -0.7645(3) 0.9721(3) 0.67569(17)
C7 C -0.6815(3) 1.0384(3) 0.72705(19)
H7 H -0.7447 1.0712 0.7798
H8 H -0.6550 1.1047 0.6933
C8 C -0.5440(2) 0.9596(2) 0.75084(16)
H9 H -0.5689 0.8890 0.7793
H10 H -0.4762 0.9338 0.6982
C9 C -0.4706(3) 1.0235(3) 0.81006(18)
H11 H -0.5430 1.0606 0.8580
H12 H -0.4322 1.0865 0.7781
C10 C -0.3476(3) 0.9418(3) 0.84618(19)
H13 H -0.2682 0.9149 0.7992
H14 H -0.3820 0.8719 0.8698
C11 C -0.2895(3) 1.0021(3) 0.91755(19)
H15 H -0.2413 1.0643 0.8918
H16 H -0.3710 1.0398 0.9603
C12 C -0.1835(3) 0.9153(3) 0.96262(19)
H17 H -0.2223 0.8437 0.9759
H18 H -0.1747 0.9512 1.0171
C13 C -0.0311(3) 0.8800(3) 0.90806(19)
H19 H -0.0405 0.8505 0.8516
H20 H 0.0117 0.9503 0.8992
C14 C 0.0709(3) 0.7837(3) 0.95120(18)
H21 H 0.0668 0.8071 1.0112
H22 H 0.0370 0.7091 0.9508
C15 C 0.2276(2) 0.7638(3) 0.90615(17)
H23 H 0.2692 0.8318 0.9177
H24 H 0.2301 0.7575 0.8440
C16 C 0.3183(2) 0.6509(3) 0.93712(15)
H25 H 0.2914 0.6464 0.9995
H26 H 0.2942 0.5823 0.9109
C17 C 0.4813(2) 0.6425(2) 0.91641(16)
C18 C 0.6930(2) 0.6093(2) 0.80034(14)
C19 C 0.8016(2) 0.5693(2) 0.85021(15)
H27 H 0.7785 0.5560 0.9091
C20 C 0.9445(2) 0.5499(2) 0.81005(15)
H28 H 1.0192 0.5235 0.8421
C21 C 0.9771(2) 0.5693(2) 0.72291(14)
H29 H 1.0742 0.5544 0.6968
C22 C 0.7334(2) 0.6278(2) 0.71283(14)
H30 H 0.6607 0.6543 0.6793
C23 C -0.7918(2) 0.6088(2) 0.49806(14)
C24 C -0.6646(2) 0.6234(2) 0.43195(13)
C25 C -0.5340(2) 0.6351(2) 0.45809(13)
H31 H -0.5253 0.6306 0.5166
C26 C -0.4171(2) 0.6535(2) 0.39812(13)
C27 C -0.2756(2) 0.6665(2) 0.42732(15)
C28 C -0.4285(2) 0.6588(2) 0.31030(14)
H32 H -0.3491 0.6686 0.2697
C29 C -0.5596(2) 0.6494(2) 0.28336(13)
C30 C -0.5778(2) 0.6602(2) 0.19042(14)
C31 C -0.6762(2) 0.6314(2) 0.34433(13)
H33 H -0.7631 0.6245 0.3262
H34 H -0.470(2) 0.671(2) 0.0873(16)
Zn1_2 Zn -0.08797(3) 0.65330(3) 0.547410(17)
Zn1_3 Zn 0.91203(3) 0.65330(3) 0.547410(17)
O5_2 O -1.27334(13) 0.65392(14) 0.50884(9)
N4_2 N -1.12687(17) 0.60915(17) 0.67446(11)
O9 O -0.99902(16) 1.24565(16) 0.77161(10)
H35 H -1.0904 1.2731 0.7786
H36 H -0.9589 1.2798 0.7286
O10 O 0.38964(16) 0.65642(16) 0.69267(10)
H37 H 0.3463 0.6174 0.6629
H38 H 0.3579 0.7306 0.6863
loop_
_geom_bond_atom_site_label_1
_geom_bond_atom_site_label_2
_geom_bond_site_symmetry_1
_geom_bond_site_symmetry_2
Zn1 O3 1_555 1_555
O1 C6 1_555 1_555
O2 C17 1_555 1_555
O3 C23 1_555 1_555
O4 C23 1_555 1_555
O5 C27 1_555 1_555
O6 C27 1_555 1_555
O7 C30 1_555 1_555
O8 C30 1_555 1_555
N1 Zn1 1_555 1_555
N2 H1 1_555 1_555
N3 H2 1_555 1_555
N4 C21 1_555 1_555
C1 N1 1_555 1_555
H3 C1 1_555 1_555
C2 C1 1_555 1_555
H4 C2 1_555 1_555
C3 C2 1_555 1_555
H5 C3 1_555 1_555
C4 N2 1_555 1_555
C5 N1 1_555 1_555
H6 C5 1_555 1_555
C6 N2 1_555 1_555
C7 C6 1_555 1_555
H7 C7 1_555 1_555
H8 C7 1_555 1_555
C8 C7 1_555 1_555
H9 C8 1_555 1_555
H10 C8 1_555 1_555
C9 C8 1_555 1_555
H11 C9 1_555 1_555
H12 C9 1_555 1_555
C10 C9 1_555 1_555
H13 C10 1_555 1_555
H14 C10 1_555 1_555
C11 C10 1_555 1_555
H15 C11 1_555 1_555
H16 C11 1_555 1_555
C12 C11 1_555 1_555
H17 C12 1_555 1_555
H18 C12 1_555 1_555
C13 C12 1_555 1_555
H19 C13 1_555 1_555
H20 C13 1_555 1_555
C14 C13 1_555 1_555
H21 C14 1_555 1_555
H22 C14 1_555 1_555
C15 C14 1_555 1_555
H23 C15 1_555 1_555
H24 C15 1_555 1_555
C16 C15 1_555 1_555
H25 C16 1_555 1_555
H26 C16 1_555 1_555
C17 N3 1_555 1_555
C18 N3 1_555 1_555
C19 C18 1_555 1_555
H27 C19 1_555 1_555
C20 C19 1_555 1_555
H28 C20 1_555 1_555
C21 C20 1_555 1_555
H29 C21 1_555 1_555
C22 N4 1_555 1_555
H30 C22 1_555 1_555
C23 C24 1_555 1_555
C24 C25 1_555 1_555
C25 H31 1_555 1_555
C26 C25 1_555 1_555
C27 C26 1_555 1_555
C28 C26 1_555 1_555
H32 C28 1_555 1_555
C29 C28 1_555 1_555
C30 C29 1_555 1_555
C31 C24 1_555 1_555
H33 C31 1_555 1_555
H34 O7 1_555 1_555
O9 H35 1_555 1_555
H36 O9 1_555 1_555
O10 H37 1_555 1_555
H38 O10 1_555 1_555
Zn1_2 O5 1_555 1_555
Zn1_3 N4 1_555 1_555
O5_2 Zn1 1_555 1_555
N4_2 Zn1 1_555 1_555
C3 C4 1_555 1_555
C4 C5 1_555 1_555
C16 C17 1_555 1_555
C18 C22 1_555 1_555
C29 C31 1_555 1_555

#END
