
#######################################################################
#
#                 Cambridge Crystallographic Data Centre
#                                CCDC 
#
#######################################################################
#
# If this CIF has been generated from an entry in the Cambridge 
# Structural Database, then it will include bibliographic, chemical, 
# crystal, experimental, refinement or atomic coordinate data resulting 
# from the CCDC's data processing and validation procedures.
#
#######################################################################

data_CEZNUS
_symmetry_cell_setting           monoclinic
_symmetry_space_group_name_H-M   'C c'
_symmetry_Int_Tables_number      9
_space_group_name_Hall           'C -2yc'
loop_
_symmetry_equiv_pos_site_id
_symmetry_equiv_pos_as_xyz
1 x,y,z
2 x,-y,1/2+z
3 1/2+x,1/2+y,z
4 1/2+x,1/2-y,1/2+z
_cell_length_a                   15.8352(8)
_cell_length_b                   10.7875(5)
_cell_length_c                   16.6099(7)
_cell_angle_alpha                90
_cell_angle_beta                 108.007(5)
_cell_angle_gamma                90
_cell_volume                     2698.36
loop_
_atom_site_label
_atom_site_type_symbol
_atom_site_fract_x
_atom_site_fract_y
_atom_site_fract_z
Ag1 Ag 0.489231(15) 0.68580(3) 0.198122(15)
O1 O 0.4195(4) 0.9235(6) 0.1984(6)
O2 O 0.3289(4) 0.7843(4) 0.1526(4)
O3 O 0.2866(4) 0.9735(4) 0.1557(3)
N1 N 0.4063(3) 0.5075(4) 0.1712(2)
N2 N 0.4296(4) 0.1877(4) 0.2480(3)
H1 H 0.3990 0.1205 0.2370
N3 N 0.5049(3) 0.2787(4) 0.5624(3)
N4 N 0.3431(4) 0.8927(4) 0.1688(3)
C1 C 0.4373(3) 0.4058(5) 0.2172(3)
H2 H 0.4903 0.4120 0.2613
C2 C 0.3945(3) 0.2914(4) 0.2028(3)
C3 C 0.3136(4) 0.2855(5) 0.1374(4)
H3 H 0.2817 0.2118 0.1259
C4 C 0.2823(4) 0.3899(6) 0.0907(4)
H4 H 0.2289 0.3867 0.0469
C5 C 0.3295(4) 0.5002(5) 0.1079(4)
H5 H 0.3077 0.5699 0.0751
C6 C 0.5138(4) 0.1836(5) 0.3124(4)
H6 H 0.5544 0.2383 0.2962
H7 H 0.5372 0.1001 0.3151
C7 C 0.4489(4) 0.1980(5) 0.5118(4)
H8 H 0.4062 0.1611 0.5318
C8 C 0.4502(4) 0.1665(6) 0.4330(4)
H9 H 0.4100 0.1086 0.4014
C9 C 0.5115(3) 0.2204(4) 0.3998(3)
C10 C 0.5701(4) 0.3032(5) 0.4508(4)
H10 H 0.6130 0.3414 0.4317
C11 C 0.5648(4) 0.3295(5) 0.5305(4)
H11 H 0.6052 0.3857 0.5640
C12 C 0.6808(3) 0.8484(4) 0.3213(3)
C13 C 0.6537(4) 0.9345(5) 0.2563(3)
H12 H 0.5987 0.9262 0.2152
C14 C 0.7089(4) 1.0330(5) 0.2527(4)
H13 H 0.6905 1.0906 0.2090
C15 C 0.7901(4) 1.0462(5) 0.3129(4)
H14 H 0.8267 1.1126 0.3103
C16 C 0.8172(4) 0.9608(6) 0.3772(4)
H15 H 0.8726 0.9689 0.4177
C17 C 0.7625(3) 0.8626(6) 0.3819(4)
H16 H 0.7809 0.8061 0.4262
C18 C 0.6780(3) 0.5873(4) 0.3594(3)
C19 C 0.7260(3) 0.5614(4) 0.4431(3)
H17 H 0.7213 0.6141 0.4859
C20 C 0.7807(3) 0.4583(5) 0.4637(4)
H18 H 0.8133 0.4428 0.5198
C21 C 0.7865(4) 0.3792(5) 0.4010(4)
H19 H 0.8236 0.3105 0.4147
C22 C 0.7370(5) 0.4010(6) 0.3168(4)
H20 H 0.7398 0.3457 0.2747
C23 C 0.6837(4) 0.5054(6) 0.2961(4)
H21 H 0.6516 0.5210 0.2399
C24 C 0.5735(3) 0.7579(4) 0.4209(3)
C25 C 0.5885(3) 0.8723(5) 0.4601(3)
H22 H 0.6171 0.9341 0.4394
C26 C 0.5609(4) 0.8953(6) 0.5302(4)
H23 H 0.5714 0.9724 0.5565
C27 C 0.5182(4) 0.8046(7) 0.5612(4)
H24 H 0.4999 0.8205 0.6082
C28 C 0.5027(5) 0.6916(7) 0.5229(5)
H25 H 0.4745 0.6301 0.5444
C29 C 0.5290(4) 0.6674(5) 0.4509(4)
H26 H 0.5165 0.5911 0.4237
P1 P 0.60596(7) 0.72253(11) 0.32660(7)
Ag1A Ag 0.489231(15) 0.31420(3) 0.698122(15)
N3A N 0.5049(3) 0.7213(4) 0.0624(3)
loop_
_geom_bond_atom_site_label_1
_geom_bond_atom_site_label_2
_geom_bond_site_symmetry_1
_geom_bond_site_symmetry_2
Ag1 O2 1_555 1_555
O1 N4 1_555 1_555
O2 N4 1_555 1_555
O3 N4 1_555 1_555
N1 Ag1 1_555 1_555
N2 H1 1_555 1_555
N3 C7 1_555 1_555
C1 N1 1_555 1_555
H2 C1 1_555 1_555
C2 N2 1_555 1_555
C3 C2 1_555 1_555
H3 C3 1_555 1_555
C4 C3 1_555 1_555
H4 C4 1_555 1_555
C5 N1 1_555 1_555
H5 C5 1_555 1_555
C6 N2 1_555 1_555
H6 C6 1_555 1_555
H7 C6 1_555 1_555
C7 H8 1_555 1_555
C8 C7 1_555 1_555
H9 C8 1_555 1_555
C9 C6 1_555 1_555
C10 C9 1_555 1_555
H10 C10 1_555 1_555
C11 N3 1_555 1_555
H11 C11 1_555 1_555
C12 C13 1_555 1_555
C13 H12 1_555 1_555
C14 C13 1_555 1_555
H13 C14 1_555 1_555
C15 C14 1_555 1_555
H14 C15 1_555 1_555
C16 C15 1_555 1_555
H15 C16 1_555 1_555
C17 C12 1_555 1_555
H16 C17 1_555 1_555
C18 C19 1_555 1_555
C19 H17 1_555 1_555
C20 C19 1_555 1_555
H18 C20 1_555 1_555
C21 C20 1_555 1_555
H19 C21 1_555 1_555
C22 C21 1_555 1_555
H20 C22 1_555 1_555
C23 C18 1_555 1_555
H21 C23 1_555 1_555
C24 C25 1_555 1_555
C25 H22 1_555 1_555
C26 C25 1_555 1_555
H23 C26 1_555 1_555
C27 C26 1_555 1_555
H24 C27 1_555 1_555
C28 C27 1_555 1_555
H25 C28 1_555 1_555
C29 C24 1_555 1_555
H26 C29 1_555 1_555
P1 Ag1 1_555 1_555
Ag1A N3 1_555 1_555
N3A Ag1 1_555 1_555
C1 C2 1_555 1_555
C4 C5 1_555 1_555
C8 C9 1_555 1_555
C10 C11 1_555 1_555
C12 P1 1_555 1_555
C16 C17 1_555 1_555
C18 P1 1_555 1_555
C22 C23 1_555 1_555
C24 P1 1_555 1_555
C28 C29 1_555 1_555

#END
