
#######################################################################
#
#                 Cambridge Crystallographic Data Centre
#                                CCDC 
#
#######################################################################
#
# If this CIF has been generated from an entry in the Cambridge 
# Structural Database, then it will include bibliographic, chemical, 
# crystal, experimental, refinement or atomic coordinate data resulting 
# from the CCDC's data processing and validation procedures.
#
#######################################################################

data_CEZPUU
_symmetry_cell_setting           monoclinic
_symmetry_space_group_name_H-M   'C 2/c'
_symmetry_Int_Tables_number      15
_space_group_name_Hall           '-C 2yn'
loop_
_symmetry_equiv_pos_site_id
_symmetry_equiv_pos_as_xyz
1 x,y,z
2 -x,y,1/2-z
3 1/2+x,1/2+y,z
4 1/2-x,1/2+y,1/2-z
5 -x,-y,-z
6 x,-y,1/2+z
7 1/2-x,1/2-y,-z
8 1/2+x,1/2-y,1/2+z
_cell_length_a                   32.558(7)
_cell_length_b                   9.4926(19)
_cell_length_c                   18.757(4)
_cell_angle_alpha                90
_cell_angle_beta                 110.40(3)
_cell_angle_gamma                90
_cell_volume                     5433.46
loop_
_atom_site_label
_atom_site_type_symbol
_atom_site_fract_x
_atom_site_fract_y
_atom_site_fract_z
Ag1 Ag 0.696157(18) 0.90530(5) 0.58756(3)
N1 N 0.68016(18) 1.1241(5) 0.5935(3)
N2 N 0.7373(2) 1.1933(9) 0.7947(4)
H1 H 0.7446 1.2794 0.7912
N3 N 0.77847(17) 1.2001(5) 0.9232(3)
C1 C 0.6573(2) 1.1903(8) 0.5293(4)
H2 H 0.6502 1.1414 0.4836
C2 C 0.6439(2) 1.3282(8) 0.5278(5)
H3 H 0.6275 1.3703 0.4819
C3 C 0.6542(3) 1.3999(8) 0.5915(6)
H4 H 0.6457 1.4936 0.5909
C4 C 0.6784(2) 1.3334(8) 0.6613(5)
H5 H 0.6856 1.3812 0.7073
C5 C 0.6908(2) 1.1977(7) 0.6585(4)
C6 C 0.7141(2) 1.1185(9) 0.7272(4)
H6 H 0.6930 1.0583 0.7382
H7 H 0.7348 1.0572 0.7158
C7 C 0.7488(2) 1.1317(7) 0.8670(4)
C8 C 0.7298(3) 1.0058(8) 0.8796(6)
H8 H 0.7089 0.9594 0.8396
C9 C 0.7425(3) 0.9532(9) 0.9509(6)
H9 H 0.7295 0.8715 0.9604
C10 C 0.7742(3) 1.0185(10) 1.0091(6)
H10 H 0.7845 0.9797 1.0576
C11 C 0.7904(3) 1.1438(8) 0.9934(4)
H11 H 0.8107 1.1924 1.0334
Ag1C Ag 0.803843(18) 1.40530(5) 0.91244(3)
N3C N 0.72153(17) 0.7001(5) 0.5768(3)
Ag2 Ag 0.562207(18) 0.54329(6) 0.28707(3)
N4 N 0.53866(17) 0.3784(6) 0.3417(3)
N5 N 0.49207(19) 0.5359(5) 0.3667(4)
H12 H 0.5052 0.5994 0.3500
N6 N 0.42292(19) 0.7164(6) 0.2746(3)
C12 C 0.5543(3) 0.2494(7) 0.3399(5)
H13 H 0.5772 0.2363 0.3218
C13 C 0.5367(3) 0.1338(8) 0.3650(6)
H14 H 0.5474 0.0437 0.3630
C14 C 0.5036(3) 0.1548(8) 0.3926(5)
H15 H 0.4920 0.0791 0.4107
C15 C 0.4879(3) 0.2849(9) 0.3933(5)
H16 H 0.4645 0.2982 0.4102
C16 C 0.5060(2) 0.4019(7) 0.3689(4)
C17 C 0.4564(2) 0.5797(8) 0.3908(4)
H17 H 0.4673 0.5949 0.4454
H18 H 0.4345 0.5060 0.3795
C18 C 0.4356(2) 0.7151(7) 0.3505(4)
C19 C 0.4282(2) 0.8294(9) 0.3903(5)
H19 H 0.4370 0.8265 0.4431
C20 C 0.4075(3) 0.9486(8) 0.3510(8)
H20 H 0.4020 1.0261 0.3767
C21 C 0.3952(3) 0.9488(9) 0.2720(8)
H21 H 0.3821 1.0276 0.2437
C22 C 0.4028(3) 0.8324(9) 0.2375(5)
H22 H 0.3935 0.8322 0.1847
Ag2A Ag 0.437793(18) 0.54329(6) 0.21293(3)
N4A N 0.46134(17) 0.3784(6) 0.1583(3)
N5A N 0.50793(19) 0.5359(5) 0.1333(4)
H12A H 0.4948 0.5994 0.1500
N6A N 0.57708(19) 0.7164(6) 0.2254(3)
C12A C 0.4457(3) 0.2494(7) 0.1601(5)
H13A H 0.4228 0.2363 0.1782
C13A C 0.4633(3) 0.1338(8) 0.1350(6)
H14A H 0.4526 0.0437 0.1370
C14A C 0.4964(3) 0.1548(8) 0.1074(5)
H15A H 0.5080 0.0791 0.0893
C15A C 0.5121(3) 0.2849(9) 0.1067(5)
H16A H 0.5355 0.2982 0.0898
C16A C 0.4940(2) 0.4019(7) 0.1311(4)
C17A C 0.5436(2) 0.5797(8) 0.1092(4)
H17A H 0.5327 0.5949 0.0546
H18A H 0.5655 0.5060 0.1205
C18A C 0.5644(2) 0.7151(7) 0.1495(4)
C19A C 0.5718(2) 0.8294(9) 0.1097(5)
H19A H 0.5630 0.8265 0.0569
C20A C 0.5925(3) 0.9486(8) 0.1490(8)
H20A H 0.5980 1.0261 0.1233
C21A C 0.6048(3) 0.9488(9) 0.2280(8)
H21A H 0.6179 1.0276 0.2563
C22A C 0.5972(3) 0.8324(9) 0.2625(5)
H22A H 0.6065 0.8322 0.3153
Cl1 Cl 0.66183(6) 0.32995(19) 0.28029(11)
O1 O 0.6590(2) 0.2555(7) 0.3433(4)
O2 O 0.6750(3) 0.2314(7) 0.2317(4)
O3 O 0.6921(4) 0.4365(10) 0.3019(5)
O4 O 0.6223(3) 0.3833(11) 0.2373(5)
Cl2 Cl 0.58924(6) 0.77309(19) 0.47060(11)
O5 O 0.5975(3) 0.6412(8) 0.4445(7)
O6 O 0.5483(2) 0.8058(9) 0.4355(9)
O7 O 0.6047(3) 0.7417(11) 0.5505(5)
O8 O 0.6194(2) 0.8715(7) 0.4593(4)
loop_
_geom_bond_atom_site_label_1
_geom_bond_atom_site_label_2
_geom_bond_site_symmetry_1
_geom_bond_site_symmetry_2
Ag1 N1 1_555 1_555
N1 C1 1_555 1_555
N2 H1 1_555 1_555
N3 C7 1_555 1_555
C1 H2 1_555 1_555
C2 C1 1_555 1_555
H3 C2 1_555 1_555
C3 C2 1_555 1_555
H4 C3 1_555 1_555
C4 C3 1_555 1_555
H5 C4 1_555 1_555
C5 N1 1_555 1_555
C6 N2 1_555 1_555
H6 C6 1_555 1_555
H7 C6 1_555 1_555
C7 N2 1_555 1_555
C8 C7 1_555 1_555
H8 C8 1_555 1_555
C9 C8 1_555 1_555
H9 C9 1_555 1_555
C10 C9 1_555 1_555
H10 C10 1_555 1_555
C11 N3 1_555 1_555
H11 C11 1_555 1_555
Ag2 N4 1_555 1_555
N4 C12 1_555 1_555
N5 H12 1_555 1_555
N6 C18 1_555 1_555
C12 H13 1_555 1_555
C13 C12 1_555 1_555
H14 C13 1_555 1_555
C14 C13 1_555 1_555
H15 C14 1_555 1_555
C15 C14 1_555 1_555
H16 C15 1_555 1_555
C16 N4 1_555 1_555
C17 N5 1_555 1_555
H17 C17 1_555 1_555
H18 C17 1_555 1_555
C18 C17 1_555 1_555
C19 C18 1_555 1_555
H19 C19 1_555 1_555
C20 C19 1_555 1_555
H20 C20 1_555 1_555
C21 C20 1_555 1_555
H21 C21 1_555 1_555
C22 N6 1_555 1_555
H22 C22 1_555 1_555
Cl1 O1 1_555 1_555
O2 Cl1 1_555 1_555
O3 Cl1 1_555 1_555
O4 Cl1 1_555 1_555
Cl2 O5 1_555 1_555
O6 Cl2 1_555 1_555
O7 Cl2 1_555 1_555
O8 Cl2 1_555 1_555
Ag1C N3 1_555 1_555
N3C Ag1 1_555 1_555
Ag2A N6 1_555 1_555
N4A Ag2A 1_555 1_555
N5A H12A 1_555 1_555
N6A Ag2 1_555 1_555
C12A N4A 1_555 1_555
H13A C12A 1_555 1_555
C13A C12A 1_555 1_555
H14A C13A 1_555 1_555
C14A C13A 1_555 1_555
H15A C14A 1_555 1_555
C15A C14A 1_555 1_555
H16A C15A 1_555 1_555
C16A N4A 1_555 1_555
C17A N5A 1_555 1_555
H17A C17A 1_555 1_555
H18A C17A 1_555 1_555
C18A N6A 1_555 1_555
C19A C18A 1_555 1_555
H19A C19A 1_555 1_555
C20A C19A 1_555 1_555
H20A C20A 1_555 1_555
C21A C20A 1_555 1_555
H21A C21A 1_555 1_555
C22A N6A 1_555 1_555
H22A C22A 1_555 1_555
C4 C5 1_555 1_555
C5 C6 1_555 1_555
C10 C11 1_555 1_555
N5 C16 1_555 1_555
C15 C16 1_555 1_555
C21 C22 1_555 1_555
N5A C16A 1_555 1_555
C15A C16A 1_555 1_555
C17A C18A 1_555 1_555
C21A C22A 1_555 1_555

#END
