
#######################################################################
#
#                 Cambridge Crystallographic Data Centre
#                                CCDC 
#
#######################################################################
#
# If this CIF has been generated from an entry in the Cambridge 
# Structural Database, then it will include bibliographic, chemical, 
# crystal, experimental, refinement or atomic coordinate data resulting 
# from the CCDC's data processing and validation procedures.
#
#######################################################################

data_CEZPOO
_symmetry_cell_setting           triclinic
_symmetry_space_group_name_H-M   'P -1'
_symmetry_Int_Tables_number      2
_space_group_name_Hall           '-P 1'
loop_
_symmetry_equiv_pos_site_id
_symmetry_equiv_pos_as_xyz
1 x,y,z
2 -x,-y,-z
_cell_length_a                   9.4683(19)
_cell_length_b                   10.711(2)
_cell_length_c                   14.742(3)
_cell_angle_alpha                85.96(3)
_cell_angle_beta                 82.43(3)
_cell_angle_gamma                83.28(3)
_cell_volume                     1469.55
loop_
_atom_site_label
_atom_site_type_symbol
_atom_site_fract_x
_atom_site_fract_y
_atom_site_fract_z
Ag1 Ag 1.06564(6) 0.11160(6) 0.05767(4)
Ag2 Ag 0.66450(7) 0.50149(5) 0.44153(4)
N1 N 0.9755(6) 0.0562(5) 0.1926(4)
N2 N 0.6172(6) 0.0447(5) 0.3198(4)
H1 H 0.5798 0.0083 0.3696
N3 N 0.5589(6) 0.4325(5) 0.3377(3)
N4 N 1.1544(6) 0.1806(5) -0.0743(4)
N5 N 1.0395(6) 0.4744(5) -0.3037(4)
H2 H 1.1069 0.5052 -0.2818
N6 N 0.7782(6) 0.5796(5) -0.4631(3)
C1 C 0.8347(7) 0.0738(6) 0.2146(4)
H3 H 0.7793 0.1150 0.1717
C2 C 0.7655(7) 0.0334(6) 0.2992(5)
C3 C 0.8518(8) -0.0199(6) 0.3639(4)
H4 H 0.8112 -0.0427 0.4228
C4 C 0.9973(8) -0.0386(7) 0.3405(4)
H5 H 1.0559 -0.0759 0.3830
C5 C 1.0557(8) -0.0023(7) 0.2546(5)
H6 H 1.1542 -0.0186 0.2385
C6 C 0.5242(7) 0.1154(7) 0.2603(5)
H7 H 0.4297 0.0872 0.2745
H8 H 0.5594 0.0950 0.1977
C7 C 0.5746(7) 0.3101(6) 0.3263(4)
H9 H 0.6337 0.2587 0.3624
C8 C 0.5090(7) 0.2543(7) 0.2647(4)
C9 C 0.4258(8) 0.3335(8) 0.2105(5)
H10 H 0.3812 0.3001 0.1666
C10 C 0.4080(8) 0.4586(7) 0.2199(5)
H11 H 0.3504 0.5118 0.1838
C11 C 0.4777(8) 0.5066(7) 0.2850(5)
H12 H 0.4669 0.5930 0.2916
C12 C 1.0715(7) 0.2407(7) -0.1360(5)
H13 H 0.9732 0.2541 -0.1183
C13 C 1.1221(7) 0.2821(6) -0.2211(5)
C14 C 1.2677(7) 0.2605(7) -0.2464(5)
H14 H 1.3070 0.2861 -0.3050
C15 C 1.3551(7) 0.2012(7) -0.1854(5)
H15 H 1.4537 0.1887 -0.2016
C16 C 1.2953(7) 0.1607(6) -0.1006(4)
H16 H 1.3542 0.1183 -0.0601
C17 C 1.0214(8) 0.3444(7) -0.2864(5)
H17 H 1.0397 0.3025 -0.3437
H18 H 0.9232 0.3358 -0.2604
C18 C 0.8663(7) 0.5049(7) -0.4124(4)
H19 H 0.8712 0.4181 -0.4160
C19 C 0.9490(7) 0.5519(6) -0.3558(4)
C20 C 0.9432(8) 0.6819(7) -0.3543(5)
H20 H 1.0003 0.7177 -0.3189
C21 C 0.8528(9) 0.7564(7) -0.4054(6)
H21 H 0.8461 0.8436 -0.4037
C22 C 0.7738(8) 0.7034(7) -0.4579(5)
H22 H 0.7129 0.7558 -0.4923
Ag2_2 Ag 0.66450(7) 0.50149(5) -0.55847(4)
N6_2 N 0.7782(6) 0.5796(5) 0.5369(3)
Cl1 Cl 0.6700(2) 0.1738(2) -0.04506(13)
O1 O 0.7936(7) 0.1520(8) 0.0010(4)
O2 O 0.5526(7) 0.2099(9) 0.0151(5)
O3 O 0.6950(9) 0.2641(6) -0.1163(5)
O4 O 0.6477(7) 0.0612(6) -0.0856(4)
Cl2 Cl 0.35376(18) 0.81600(17) 0.42808(11)
O5 O 0.4826(6) 0.7403(7) 0.4402(4)
O6 O 0.3645(9) 0.9396(6) 0.4513(5)
O7 O 0.3290(6) 0.8166(7) 0.3348(3)
O8 O 0.2386(6) 0.7694(6) 0.4880(4)
N7 N 0.250(3) 0.484(2) -0.006(2)
C23 C 0.197(2) 0.5328(17) -0.0619(11)
C24 C 0.079(4) 0.5872(17) -0.1217(12)
H23 H 0.1216 0.6352 -0.1736
H24 H 0.0077 0.6407 -0.0862
H25 H 0.0361 0.5195 -0.1425
loop_
_geom_bond_atom_site_label_1
_geom_bond_atom_site_label_2
_geom_bond_site_symmetry_1
_geom_bond_site_symmetry_2
Ag1 N1 1_555 1_555
Ag2 N3 1_555 1_555
N1 C1 1_555 1_555
N2 H1 1_555 1_555
N3 C7 1_555 1_555
N4 Ag1 1_555 1_555
N5 H2 1_555 1_555
N6 C18 1_555 1_555
C1 H3 1_555 1_555
C2 N2 1_555 1_555
C3 C2 1_555 1_555
H4 C3 1_555 1_555
C4 C3 1_555 1_555
H5 C4 1_555 1_555
C5 N1 1_555 1_555
H6 C5 1_555 1_555
C6 N2 1_555 1_555
H7 C6 1_555 1_555
H8 C6 1_555 1_555
C7 H9 1_555 1_555
C8 C6 1_555 1_555
C9 C8 1_555 1_555
H10 C9 1_555 1_555
C10 C9 1_555 1_555
H11 C10 1_555 1_555
C11 N3 1_555 1_555
H12 C11 1_555 1_555
C12 N4 1_555 1_555
H13 C12 1_555 1_555
C13 C12 1_555 1_555
C14 C13 1_555 1_555
H14 C14 1_555 1_555
C15 C14 1_555 1_555
H15 C15 1_555 1_555
C16 N4 1_555 1_555
H16 C16 1_555 1_555
C17 N5 1_555 1_555
H17 C17 1_555 1_555
H18 C17 1_555 1_555
C18 H19 1_555 1_555
C19 N5 1_555 1_555
C20 C19 1_555 1_555
H20 C20 1_555 1_555
C21 C20 1_555 1_555
H21 C21 1_555 1_555
C22 N6 1_555 1_555
H22 C22 1_555 1_555
Cl1 O1 1_555 1_555
O2 Cl1 1_555 1_555
O3 Cl1 1_555 1_555
O4 Cl1 1_555 1_555
Cl2 O5 1_555 1_555
O6 Cl2 1_555 1_555
O7 Cl2 1_555 1_555
O8 Cl2 1_555 1_555
N7 C23 1_555 1_555
C23 C24 1_555 1_555
C24 H23 1_555 1_555
H24 C24 1_555 1_555
H25 C24 1_555 1_555
Ag2_2 N6 1_555 1_555
N6_2 Ag2 1_555 1_555
C1 C2 1_555 1_555
C4 C5 1_555 1_555
C7 C8 1_555 1_555
C10 C11 1_555 1_555
C13 C17 1_555 1_555
C15 C16 1_555 1_555
C18 C19 1_555 1_555
C21 C22 1_555 1_555

#END
