
#######################################################################
#
#                 Cambridge Crystallographic Data Centre
#                                CCDC 
#
#######################################################################
#
# If this CIF has been generated from an entry in the Cambridge 
# Structural Database, then it will include bibliographic, chemical, 
# crystal, experimental, refinement or atomic coordinate data resulting 
# from the CCDC's data processing and validation procedures.
#
#######################################################################

data_CEZTUX
_symmetry_cell_setting           monoclinic
_symmetry_space_group_name_H-M   'P 21/c'
_symmetry_Int_Tables_number      14
_space_group_name_Hall           '-P 2ybc'
loop_
_symmetry_equiv_pos_site_id
_symmetry_equiv_pos_as_xyz
1 x,y,z
2 -x,1/2+y,1/2-z
3 -x,-y,-z
4 x,1/2-y,1/2+z
_cell_length_a                   11.321(2)
_cell_length_b                   11.925(2)
_cell_length_c                   18.146(3)
_cell_angle_alpha                90
_cell_angle_beta                 94.312(4)
_cell_angle_gamma                90
_cell_volume                     2442.83
loop_
_atom_site_label
_atom_site_type_symbol
_atom_site_fract_x
_atom_site_fract_y
_atom_site_fract_z
Zn1 Zn 0.0000 0.0000 0.0000
N1 N 0.1017(2) 0.0515(2) 0.09071(12)
N2 N -0.0846(2) -0.1093(2) 0.06397(12)
N3 N 0.1063(3) -0.2196(3) 0.48363(16)
O1 O 0.0898(3) -0.1540(3) 0.53310(15)
O2 O 0.1417(2) -0.3163(3) 0.49419(14)
C1 C 0.2229(3) 0.1922(3) 0.03183(16)
C2 C 0.1902(3) 0.1306(3) 0.09245(15)
C3 C 0.2467(3) 0.1383(3) 0.16610(16)
H1 H 0.3100 0.1869 0.1820
C4 C 0.1930(3) 0.0639(3) 0.20809(15)
H2 H 0.2117 0.0498 0.2592
C5 C 0.1025(3) 0.0100(2) 0.16145(15)
C6 C 0.0257(2) -0.0737(2) 0.18434(14)
C7 C -0.0618(3) -0.1279(3) 0.13791(15)
C8 C -0.1414(3) -0.2115(3) 0.16248(17)
H3 H -0.1449 -0.2383 0.2116
C9 C -0.2102(3) -0.2444(3) 0.10258(17)
H4 H -0.2713 -0.2991 0.1015
C10 C 0.1740(3) 0.1813(3) -0.04068(16)
C11 C 0.3189(3) 0.2778(3) 0.04755(16)
C12 C 0.4350(3) 0.2508(4) 0.0434(2)
H5 H 0.4561 0.1785 0.0267
C13 C 0.5238(4) 0.3298(5) 0.0637(3)
H6 H 0.6046 0.3093 0.0617
C14 C 0.4969(4) 0.4336(4) 0.0861(2)
C15 C 0.3808(5) 0.4621(4) 0.0884(2)
H7 H 0.3600 0.5356 0.1030
C16 C 0.2920(4) 0.3837(3) 0.0694(2)
H8 H 0.2113 0.4044 0.0718
C17 C 0.5938(5) 0.5164(5) 0.1121(3)
H9 H 0.5868 0.5841 0.0815
H10 H 0.6715 0.4820 0.1076
H11 H 0.5853 0.5363 0.1638
C18 C 0.0425(2) -0.1118(3) 0.26289(15)
C19 C 0.0217(3) -0.0390(3) 0.32077(16)
H12 H -0.0069 0.0346 0.3104
C20 C 0.0426(3) -0.0741(3) 0.39341(17)
H13 H 0.0297 -0.0246 0.4330
C21 C 0.0819(3) -0.1811(3) 0.40721(17)
C22 C 0.1025(3) -0.2562(3) 0.35152(18)
H14 H 0.1294 -0.3302 0.3624
C23 C 0.0822(3) -0.2194(3) 0.27911(17)
H15 H 0.0959 -0.2692 0.2398
Zn1C Zn 0.0000 -0.5000 0.5000
Zn1C_2 Zn 0.0000 0.5000 -0.5000
N1B N -0.1017(2) -0.0515(2) -0.09071(12)
N2B N 0.0846(2) 0.1093(2) -0.06397(12)
N3B N -0.1063(3) 0.2196(3) -0.48363(16)
O1B O -0.0898(3) 0.1540(3) -0.53310(15)
O2B O -0.1417(2) 0.3163(3) -0.49419(14)
O2C O 0.1417(2) -0.1837(3) -0.00581(14)
O2A O -0.1417(2) 0.1837(3) 0.00581(14)
C1B C -0.2229(3) -0.1922(3) -0.03183(16)
C2B C -0.1902(3) -0.1306(3) -0.09245(15)
C3B C -0.2467(3) -0.1383(3) -0.16610(16)
H1B H -0.3100 -0.1869 -0.1820
C4B C -0.1930(3) -0.0639(3) -0.20809(15)
H2B H -0.2117 -0.0498 -0.2592
C5B C -0.1025(3) -0.0100(2) -0.16145(15)
C6B C -0.0257(2) 0.0737(2) -0.18434(14)
C7B C 0.0618(3) 0.1279(3) -0.13791(15)
C8B C 0.1414(3) 0.2115(3) -0.16248(17)
H3B H 0.1449 0.2383 -0.2116
C9B C 0.2102(3) 0.2444(3) -0.10258(17)
H4B H 0.2713 0.2991 -0.1015
C10B C -0.1740(3) -0.1813(3) 0.04068(16)
C11B C -0.3189(3) -0.2778(3) -0.04755(16)
C12B C -0.4350(3) -0.2508(4) -0.0434(2)
H5B H -0.4561 -0.1785 -0.0267
C13B C -0.5238(4) -0.3298(5) -0.0637(3)
H6B H -0.6046 -0.3093 -0.0617
C14B C -0.4969(4) -0.4336(4) -0.0861(2)
C15B C -0.3808(5) -0.4621(4) -0.0884(2)
H7B H -0.3600 -0.5356 -0.1030
C16B C -0.2920(4) -0.3837(3) -0.0694(2)
H8B H -0.2113 -0.4044 -0.0718
C17B C -0.5938(5) -0.5164(5) -0.1121(3)
H9B H -0.5868 -0.5841 -0.0815
H10B H -0.6715 -0.4820 -0.1076
H11B H -0.5853 -0.5363 -0.1638
C18B C -0.0425(2) 0.1118(3) -0.26289(15)
C19B C -0.0217(3) 0.0390(3) -0.32077(16)
H12B H 0.0069 -0.0346 -0.3104
C20B C -0.0426(3) 0.0741(3) -0.39341(17)
H13B H -0.0297 0.0246 -0.4330
C21B C -0.0819(3) 0.1811(3) -0.40721(17)
C22B C -0.1025(3) 0.2562(3) -0.35152(18)
H14B H -0.1294 0.3302 -0.3624
C23B C -0.0822(3) 0.2194(3) -0.27911(17)
H15B H -0.0959 0.2692 -0.2398
N4 N 0.6469(6) 1.0125(5) 0.1659(5)
O3 O 0.7094(6) 1.0170(6) 0.2223(5)
O4 O 0.6551(6) 1.0564(6) 0.1066(5)
C24 C 0.5432(4) 0.9306(4) 0.1655(2)
C25 C 0.4622(7) 0.9295(6) 0.1092(3)
H16 H 0.4685 0.9772 0.0678
C26 C 0.3722(7) 0.8597(9) 0.1125(5)
H17 H 0.3136 0.8601 0.0722
C27 C 0.3573(7) 0.7896(8) 0.1671(7)
H18 H 0.2922 0.7393 0.1659
C28 C 0.4427(8) 0.7934(6) 0.2269(5)
H19 H 0.4350 0.7466 0.2686
C29 C 0.5365(5) 0.8639(4) 0.2254(2)
H20 H 0.5959 0.8663 0.2652
loop_
_geom_bond_atom_site_label_1
_geom_bond_atom_site_label_2
_geom_bond_site_symmetry_1
_geom_bond_site_symmetry_2
Zn1 N1 1_555 1_555
N1 C2 1_555 1_555
N2 Zn1 1_555 1_555
N3 O1 1_555 1_555
O2 N3 1_555 1_555
C1 C2 1_555 1_555
C2 C3 1_555 1_555
C3 H1 1_555 1_555
C4 C3 1_555 1_555
H2 C4 1_555 1_555
C5 N1 1_555 1_555
C6 C5 1_555 1_555
C7 N2 1_555 1_555
C8 C7 1_555 1_555
H3 C8 1_555 1_555
C9 C8 1_555 1_555
H4 C9 1_555 1_555
C10 C1 1_555 1_555
C11 C1 1_555 1_555
C12 C11 1_555 1_555
H5 C12 1_555 1_555
C13 C12 1_555 1_555
H6 C13 1_555 1_555
C14 C13 1_555 1_555
C15 C14 1_555 1_555
H7 C15 1_555 1_555
C16 C11 1_555 1_555
H8 C16 1_555 1_555
C17 C14 1_555 1_555
H9 C17 1_555 1_555
H10 C17 1_555 1_555
H11 C17 1_555 1_555
C18 C6 1_555 1_555
C19 C18 1_555 1_555
H12 C19 1_555 1_555
C20 C19 1_555 1_555
H13 C20 1_555 1_555
C21 N3 1_555 1_555
C22 C21 1_555 1_555
H14 C22 1_555 1_555
C23 C18 1_555 1_555
H15 C23 1_555 1_555
N4 O3 1_555 1_555
O4 N4 1_555 1_555
C24 N4 1_555 1_555
C25 C24 1_555 1_555
H16 C25 1_555 1_555
C26 C25 1_555 1_555
H17 C26 1_555 1_555
C27 C26 1_555 1_555
H18 C27 1_555 1_555
C28 C27 1_555 1_555
H19 C28 1_555 1_555
C29 C24 1_555 1_555
H20 C29 1_555 1_555
Zn1C O2 1_555 1_555
Zn1C_2 O2B 1_555 1_555
N1B Zn1 1_555 1_555
N2B Zn1 1_555 1_555
N3B O1B 1_555 1_555
O2B N3B 1_555 1_555
O2C Zn1 1_555 1_555
O2A Zn1 1_555 1_555
C1B C2B 1_555 1_555
C2B N1B 1_555 1_555
C3B C2B 1_555 1_555
H1B C3B 1_555 1_555
C4B C3B 1_555 1_555
H2B C4B 1_555 1_555
C5B N1B 1_555 1_555
C6B C5B 1_555 1_555
C7B N2B 1_555 1_555
C8B C7B 1_555 1_555
H3B C8B 1_555 1_555
C9B C10 1_555 1_555
H4B C9B 1_555 1_555
C10B N2 1_555 1_555
C11B C1B 1_555 1_555
C12B C11B 1_555 1_555
H5B C12B 1_555 1_555
C13B C12B 1_555 1_555
H6B C13B 1_555 1_555
C14B C13B 1_555 1_555
C15B C14B 1_555 1_555
H7B C15B 1_555 1_555
C16B C11B 1_555 1_555
H8B C16B 1_555 1_555
C17B C14B 1_555 1_555
H9B C17B 1_555 1_555
H10B C17B 1_555 1_555
H11B C17B 1_555 1_555
C18B C6B 1_555 1_555
C19B C18B 1_555 1_555
H12B C19B 1_555 1_555
C20B C19B 1_555 1_555
H13B C20B 1_555 1_555
C21B N3B 1_555 1_555
C22B C21B 1_555 1_555
H14B C22B 1_555 1_555
C23B C18B 1_555 1_555
H15B C23B 1_555 1_555
C4 C5 1_555 1_555
C6 C7 1_555 1_555
C9 C10B 1_555 1_555
C10 N2B 1_555 1_555
C15 C16 1_555 1_555
C20 C21 1_555 1_555
C22 C23 1_555 1_555
C28 C29 1_555 1_555
C1B C10B 1_555 1_555
C4B C5B 1_555 1_555
C6B C7B 1_555 1_555
C8B C9B 1_555 1_555
C15B C16B 1_555 1_555
C20B C21B 1_555 1_555
C22B C23B 1_555 1_555

#END
