
#######################################################################
#
#                 Cambridge Crystallographic Data Centre
#                                CCDC 
#
#######################################################################
#
# If this CIF has been generated from an entry in the Cambridge 
# Structural Database, then it will include bibliographic, chemical, 
# crystal, experimental, refinement or atomic coordinate data resulting 
# from the CCDC's data processing and validation procedures.
#
#######################################################################

data_CEZWAG
_symmetry_cell_setting           monoclinic
_symmetry_space_group_name_H-M   'P 21/n'
_symmetry_Int_Tables_number      14
_space_group_name_Hall           '-P 2yn'
loop_
_symmetry_equiv_pos_site_id
_symmetry_equiv_pos_as_xyz
1 x,y,z
2 1/2-x,1/2+y,1/2-z
3 -x,-y,-z
4 1/2+x,1/2-y,1/2+z
_cell_length_a                   12.4906(13)
_cell_length_b                   12.3673(13)
_cell_length_c                   16.6196(17)
_cell_angle_alpha                90
_cell_angle_beta                 100.954(2)
_cell_angle_gamma                90
_cell_volume                     2520.54
loop_
_atom_site_label
_atom_site_type_symbol
_atom_site_fract_x
_atom_site_fract_y
_atom_site_fract_z
Zn1 Zn 0.668505(16) 0.021765(17) -0.211022(14)
F1 F 0.17199(8) 0.08969(9) -0.11101(7)
O1 O 0.76907(10) -0.23468(12) -0.06278(10)
O3 O 0.74444(9) -0.09753(11) -0.14881(8)
O4 O 0.55166(10) 0.02400(9) -0.14382(8)
O5 O 0.82188(11) 0.03578(11) -0.28164(9)
O6 O 0.75751(10) 0.15486(10) -0.20417(8)
O7 O 0.93617(10) 0.52654(10) -0.18234(8)
O8 O 1.11283(10) 0.51209(10) -0.13171(9)
O9 O 1.29956(11) 0.22187(12) -0.27010(11)
O10 O 1.19960(11) 0.08572(12) -0.33025(10)
H1 H 1.269(2) 0.063(2) -0.3406(15)
N1 N -0.03780(12) -0.26736(13) -0.10557(10)
H2 H -0.1023 -0.2530 -0.0912
H3 H -0.0448 -0.3297 -0.1341
N2 N 0.10028(11) -0.08956(12) -0.03860(9)
N3 N 0.46940(11) -0.23221(11) -0.01081(9)
C1 C 0.71206(13) -0.16012(15) -0.09759(11)
C2 C 0.60035(13) -0.14671(14) -0.07844(11)
C3 C 0.52897(13) -0.05804(13) -0.10410(10)
C4 C 0.42240(13) -0.06448(14) -0.08240(10)
C5 C 0.34423(14) 0.01594(14) -0.10765(11)
H4 H 0.3620 0.0760 -0.1362
C6 C 0.24276(14) 0.00641(14) -0.09059(12)
C7 C 0.20768(13) -0.08399(14) -0.05055(10)
C8 C 0.28654(13) -0.16081(14) -0.02167(10)
H5 H 0.2688 -0.2192 0.0086
C9 C 0.39228(13) -0.15195(14) -0.03724(10)
C10 C 0.56652(13) -0.22812(14) -0.03350(11)
H6 H 0.6147 -0.2849 -0.0175
C11 C 0.44173(15) -0.32531(15) 0.03514(12)
H7 H 0.3923 -0.3782 0.0036
C12 C 0.42938(19) -0.3095(2) 0.12149(13)
H8 H 0.3730 -0.3504 0.1408
H9 H 0.4423 -0.2377 0.1448
C13 C 0.52398(19) -0.3698(2) 0.10242(15)
H10 H 0.5948 -0.3348 0.1143
H11 H 0.5255 -0.4475 0.1103
C14 C 0.01192(14) -0.07475(16) -0.11044(12)
H12 H 0.0325 -0.0187 -0.1454
H13 H -0.0537 -0.0513 -0.0923
C15 C -0.01135(15) -0.17879(17) -0.15912(12)
H14 H -0.0722 -0.1678 -0.2042
H15 H 0.0519 -0.1987 -0.1818
C16 C 0.04641(15) -0.28142(15) -0.03036(13)
H16 H 0.1127 -0.3094 -0.0449
H17 H 0.0211 -0.3334 0.0055
C17 C 0.07031(14) -0.17502(14) 0.01401(11)
H18 H 0.0064 -0.1524 0.0349
H19 H 0.1294 -0.1851 0.0605
C18 C 0.92728(13) 0.19402(13) -0.24233(10)
C19 C 0.93049(13) 0.29745(13) -0.20894(10)
H20 H 0.8698 0.3242 -0.1906
C20 C 1.02337(13) 0.36109(13) -0.20280(10)
C21 C 1.11488(13) 0.31929(13) -0.22811(11)
H21 H 1.1787 0.3598 -0.2212
C22 C 1.11152(13) 0.21773(14) -0.26362(11)
C23 C 1.01689(13) 0.15583(14) -0.27153(11)
H22 H 1.0139 0.0884 -0.2966
C24 C 0.82974(14) 0.12323(14) -0.24447(11)
C25 C 1.02648(14) 0.47441(14) -0.16974(11)
C26 C 1.21270(14) 0.17686(14) -0.28816(12)
Zn1A Zn 0.831495(16) 0.521765(17) -0.288978(14)
O7A O 0.56383(10) 0.02654(10) -0.31766(8)
O2 O 0.2291(6) -0.4789(5) 0.0431(4)
O11? O 0.2778(6) -0.5264(5) 0.0272(5)
loop_
_geom_bond_atom_site_label_1
_geom_bond_atom_site_label_2
_geom_bond_site_symmetry_1
_geom_bond_site_symmetry_2
Zn1 O3 1_555 1_555
F1 C6 1_555 1_555
O1 C1 1_555 1_555
O3 C1 1_555 1_555
O4 Zn1 1_555 1_555
O5 Zn1 1_555 1_555
O6 Zn1 1_555 1_555
O7 C25 1_555 1_555
O8 C25 1_555 1_555
O9 C26 1_555 1_555
O10 H1 1_555 1_555
N1 H2 1_555 1_555
H3 N1 1_555 1_555
N2 C7 1_555 1_555
N3 C9 1_555 1_555
C1 C2 1_555 1_555
C2 C3 1_555 1_555
C3 O4 1_555 1_555
C4 C3 1_555 1_555
C5 C4 1_555 1_555
H4 C5 1_555 1_555
C6 C5 1_555 1_555
C7 C6 1_555 1_555
C8 C7 1_555 1_555
H5 C8 1_555 1_555
C9 C4 1_555 1_555
C10 N3 1_555 1_555
H6 C10 1_555 1_555
C11 N3 1_555 1_555
H7 C11 1_555 1_555
C12 C11 1_555 1_555
H8 C12 1_555 1_555
H9 C12 1_555 1_555
C13 C11 1_555 1_555
H10 C13 1_555 1_555
H11 C13 1_555 1_555
C14 N2 1_555 1_555
H12 C14 1_555 1_555
H13 C14 1_555 1_555
C15 N1 1_555 1_555
H14 C15 1_555 1_555
H15 C15 1_555 1_555
C16 N1 1_555 1_555
H16 C16 1_555 1_555
H17 C16 1_555 1_555
C17 N2 1_555 1_555
H18 C17 1_555 1_555
H19 C17 1_555 1_555
C18 C19 1_555 1_555
C19 H20 1_555 1_555
C20 C19 1_555 1_555
C21 C20 1_555 1_555
H21 C21 1_555 1_555
C22 C21 1_555 1_555
C23 C18 1_555 1_555
H22 C23 1_555 1_555
C24 O5 1_555 1_555
C25 C20 1_555 1_555
C26 O10 1_555 1_555
Zn1A O7 1_555 1_555
O7A Zn1 1_555 1_555
O6 C24 1_555 1_555
C2 C10 1_555 1_555
C8 C9 1_555 1_555
C12 C13 1_555 1_555
C14 C15 1_555 1_555
C16 C17 1_555 1_555
C18 C24 1_555 1_555
C22 C23 1_555 1_555
C22 C26 1_555 1_555

#END
