
#######################################################################
#
#                 Cambridge Crystallographic Data Centre
#                                CCDC 
#
#######################################################################
#
# If this CIF has been generated from an entry in the Cambridge 
# Structural Database, then it will include bibliographic, chemical, 
# crystal, experimental, refinement or atomic coordinate data resulting 
# from the CCDC's data processing and validation procedures.
#
#######################################################################

data_CEZXOW
_symmetry_cell_setting           orthorhombic
_symmetry_space_group_name_H-M   'P b a 2'
_symmetry_Int_Tables_number      32
_space_group_name_Hall           'P 2 -2ab'
loop_
_symmetry_equiv_pos_site_id
_symmetry_equiv_pos_as_xyz
1 x,y,z
2 -x,-y,z
3 1/2+x,1/2-y,z
4 1/2-x,1/2+y,z
_cell_length_a                   13.2179(3)
_cell_length_b                   21.7066(5)
_cell_length_c                   7.9255(2)
_cell_angle_alpha                90
_cell_angle_beta                 90
_cell_angle_gamma                90
_cell_volume                     2273.95
loop_
_atom_site_label
_atom_site_type_symbol
_atom_site_fract_x
_atom_site_fract_y
_atom_site_fract_z
Co1 Co 1.87748(4) -0.46540(2) 1.88553(9)
N1 N 1.7660(3) -0.41810(16) 1.7391(5)
N2 N 1.2403(3) -0.48612(17) 1.0198(5)
O1 O 2.0159(3) -0.39730(15) 2.1869(5)
O2 O 2.0000 -0.5000 2.0318(5)
H1 H 2.0410 -0.5281 2.0636
O3 O 1.8616(2) -0.39529(13) 2.0708(4)
O4 O 1.8243(3) -0.27951(14) 2.2056(4)
O5 O 1.6242(2) -0.03731(13) 1.7123(4)
O6 O 1.4800(2) -0.08837(13) 1.7581(5)
C1 C 1.9327(4) -0.37244(19) 2.1552(5)
C2 C 1.9211(4) -0.3078(2) 2.2251(7)
H2 H 1.9370 -0.3090 2.3445
H3 H 1.9711 -0.2817 2.1711
C3 C 1.8020(4) -0.2506(2) 2.0537(6)
C4 C 1.8524(4) -0.2607(2) 1.9032(8)
H4 H 1.9063 -0.2882 1.8980
C5 C 1.8213(4) -0.2294(2) 1.7609(7)
H5 H 1.8556 -0.2364 1.6603
C6 C 1.7406(4) -0.1878(2) 1.7611(6)
C7 C 1.6911(4) -0.1792(2) 1.9139(7)
H6 H 1.6360 -0.1526 1.9186
C8 C 1.7218(4) -0.2092(2) 2.0598(7)
H7 H 1.6888 -0.2017 2.1613
C9 C 1.7122(4) -0.1532(2) 1.6035(6)
H8 H 1.7520 -0.1157 1.5991
H9 H 1.7311 -0.1780 1.5068
C10 C 1.6026(4) -0.1362(2) 1.5865(6)
H10 H 1.5622 -0.1722 1.6137
H11 H 1.5895 -0.1260 1.4694
C11 C 1.5666(3) -0.08274(18) 1.6960(5)
C12 C 1.7782(4) -0.4159(2) 1.5727(6)
H12 H 1.8308 -0.4384 1.5250
C13 C 1.7160(4) -0.3816(2) 1.4661(7)
H13 H 1.7269 -0.3814 1.3502
C14 C 1.6382(4) -0.3480(2) 1.5361(7)
C15 C 1.6254(3) -0.3503(2) 1.7071(7)
H14 H 1.5727 -0.3288 1.7579
C16 C 1.6917(4) -0.3850(2) 1.8046(6)
H15 H 1.6833 -0.3851 1.9211
C17 C 1.5670(4) -0.3113(2) 1.4247(8)
H16 H 1.5426 -0.2759 1.4871
H17 H 1.6041 -0.2962 1.3274
C18 C 1.4772(5) -0.3488(2) 1.3643(11)
H18 H 1.4378 -0.3602 1.4628
H19 H 1.4351 -0.3220 1.2961
C19 C 1.4950(8) -0.4018(4) 1.2725(15)
H20 H 1.5243 -0.4322 1.3477
H21 H 1.5453 -0.3925 1.1871
C20 C 1.4034(5) -0.4309(3) 1.1850(11)
C21 C 1.3984(5) -0.4339(3) 1.0116(10)
H22 H 1.4501 -0.4174 0.9461
C22 C 1.3170(4) -0.4613(2) 0.9369(8)
H23 H 1.3153 -0.4625 0.8196
C23 C 1.2422(5) -0.4823(2) 1.1870(7)
H24 H 1.1877 -0.4977 1.2482
C24 C 1.3232(6) -0.4559(3) 1.2740(9)
H25 H 1.3232 -0.4550 1.3913
H1A H 1.9590 -0.4719 2.0636
Co1A Co 2.12252(4) -0.53460(2) 1.88553(9)
N1A N 2.2340(3) -0.58190(16) 1.7391(5)
N2A N 2.7597(3) -0.51388(17) 1.0198(5)
O1A O 1.9841(3) -0.60270(15) 2.1869(5)
O3A O 2.1384(2) -0.60471(13) 2.0708(4)
O4A O 2.1757(3) -0.72049(14) 2.2056(4)
O5A O 2.3758(2) -0.96269(13) 1.7123(4)
O6A O 2.5200(2) -0.91163(13) 1.7581(5)
C1A C 2.0673(4) -0.62756(19) 2.1552(5)
C2A C 2.0789(4) -0.6922(2) 2.2251(7)
H2A H 2.0630 -0.6910 2.3445
H3A H 2.0289 -0.7183 2.1711
C3A C 2.1980(4) -0.7494(2) 2.0537(6)
C4A C 2.1476(4) -0.7393(2) 1.9032(8)
H4A H 2.0937 -0.7118 1.8980
C5A C 2.1787(4) -0.7706(2) 1.7609(7)
H5A H 2.1444 -0.7636 1.6603
C6A C 2.2594(4) -0.8122(2) 1.7611(6)
C7A C 2.3089(4) -0.8208(2) 1.9139(7)
H6A H 2.3640 -0.8474 1.9186
C8A C 2.2782(4) -0.7908(2) 2.0598(7)
H7A H 2.3112 -0.7983 2.1613
C9A C 2.2878(4) -0.8468(2) 1.6035(6)
H8A H 2.2480 -0.8843 1.5991
H9A H 2.2689 -0.8220 1.5068
C10A C 2.3974(4) -0.8638(2) 1.5865(6)
H10A H 2.4378 -0.8278 1.6137
H11A H 2.4105 -0.8740 1.4694
C11A C 2.4334(3) -0.91726(18) 1.6960(5)
C12A C 2.2218(4) -0.5841(2) 1.5727(6)
H12A H 2.1692 -0.5616 1.5250
C13A C 2.2840(4) -0.6184(2) 1.4661(7)
H13A H 2.2731 -0.6186 1.3502
C14A C 2.3618(4) -0.6520(2) 1.5361(7)
C15A C 2.3746(3) -0.6497(2) 1.7071(7)
H14A H 2.4273 -0.6712 1.7579
C16A C 2.3083(4) -0.6150(2) 1.8046(6)
H15A H 2.3167 -0.6149 1.9211
C17A C 2.4330(4) -0.6887(2) 1.4247(8)
H16A H 2.4574 -0.7241 1.4871
H17A H 2.3959 -0.7038 1.3274
C18A C 2.5228(5) -0.6512(2) 1.3643(11)
H18A H 2.5622 -0.6398 1.4628
H19A H 2.5649 -0.6780 1.2961
C19A C 2.5050(8) -0.5982(4) 1.2725(15)
H20A H 2.4757 -0.5678 1.3477
H21A H 2.4547 -0.6075 1.1871
C20A C 2.5966(5) -0.5691(3) 1.1850(11)
C21A C 2.6016(5) -0.5661(3) 1.0116(10)
H22A H 2.5499 -0.5826 0.9461
C22A C 2.6830(4) -0.5387(2) 0.9369(8)
H23A H 2.6847 -0.5375 0.8196
C23A C 2.7578(5) -0.5177(2) 1.1870(7)
H24A H 2.8123 -0.5023 1.2482
C24A C 2.6768(6) -0.5441(3) 1.2740(9)
H25A H 2.6768 -0.5450 1.3913
Co1_2 Co 2.87748(4) -0.46540(2) 0.88553(9)
Co1A_2 Co 1.12252(4) -0.53460(2) 0.88553(9)
Co1B Co 1.37748(4) -0.03460(2) 1.88553(9)
Co1B_2 Co 2.37748(4) -1.03460(2) 1.88553(9)
Co1C Co 1.62252(4) 0.03460(2) 1.88553(9)
Co1C_2 Co 2.62252(4) -0.96540(2) 1.88553(9)
N2_2 N 2.2403(3) -0.48612(17) 2.0198(5)
N2A_2 N 1.7597(3) -0.51388(17) 2.0198(5)
O5B O 2.1242(2) -0.46269(13) 1.7123(4)
O5C O 1.8758(2) -0.53731(13) 1.7123(4)
O6B O 1.9800(2) -0.41163(13) 1.7581(5)
O6C O 2.0200(2) -0.58837(13) 1.7581(5)
loop_
_geom_bond_atom_site_label_1
_geom_bond_atom_site_label_2
_geom_bond_site_symmetry_1
_geom_bond_site_symmetry_2
Co1 N1 1_555 1_555
N1 C12 1_555 1_555
N2 C22 1_555 1_555
O1 C1 1_555 1_555
O2 Co1 1_555 1_555
H1 O2 1_555 1_555
O3 Co1 1_555 1_555
O4 C2 1_555 1_555
O5 C11 1_555 1_555
O6 C11 1_555 1_555
C1 O3 1_555 1_555
C2 C1 1_555 1_555
H2 C2 1_555 1_555
H3 C2 1_555 1_555
C3 O4 1_555 1_555
C4 C3 1_555 1_555
H4 C4 1_555 1_555
C5 C4 1_555 1_555
H5 C5 1_555 1_555
C6 C5 1_555 1_555
C7 C6 1_555 1_555
H6 C7 1_555 1_555
C8 C3 1_555 1_555
H7 C8 1_555 1_555
C9 C6 1_555 1_555
H8 C9 1_555 1_555
H9 C9 1_555 1_555
C10 C9 1_555 1_555
H10 C10 1_555 1_555
H11 C10 1_555 1_555
C11 C10 1_555 1_555
C12 H12 1_555 1_555
C13 C12 1_555 1_555
H13 C13 1_555 1_555
C14 C13 1_555 1_555
C15 C14 1_555 1_555
H14 C15 1_555 1_555
C16 N1 1_555 1_555
H15 C16 1_555 1_555
C17 C14 1_555 1_555
H16 C17 1_555 1_555
H17 C17 1_555 1_555
C18 C17 1_555 1_555
H18 C18 1_555 1_555
H19 C18 1_555 1_555
C19 C18 1_555 1_555
H20 C19 1_555 1_555
H21 C19 1_555 1_555
C20 C19 1_555 1_555
C21 C20 1_555 1_555
H22 C21 1_555 1_555
C22 C21 1_555 1_555
H23 C22 1_555 1_555
C23 N2 1_555 1_555
H24 C23 1_555 1_555
C24 C20 1_555 1_555
H25 C24 1_555 1_555
H1A O2 1_555 1_555
Co1A O2 1_555 1_555
N1A Co1A 1_555 1_555
N2A C22A 1_555 1_555
O1A C1A 1_555 1_555
O3A Co1A 1_555 1_555
O4A C2A 1_555 1_555
O5A C11A 1_555 1_555
O6A C11A 1_555 1_555
C1A O3A 1_555 1_555
C2A C1A 1_555 1_555
H2A C2A 1_555 1_555
H3A C2A 1_555 1_555
C3A O4A 1_555 1_555
C4A C3A 1_555 1_555
H4A C4A 1_555 1_555
C5A C4A 1_555 1_555
H5A C5A 1_555 1_555
C6A C5A 1_555 1_555
C7A C6A 1_555 1_555
H6A C7A 1_555 1_555
C8A C3A 1_555 1_555
H7A C8A 1_555 1_555
C9A C6A 1_555 1_555
H8A C9A 1_555 1_555
H9A C9A 1_555 1_555
C10A C9A 1_555 1_555
H10A C10A 1_555 1_555
H11A C10A 1_555 1_555
C11A C10A 1_555 1_555
C12A N1A 1_555 1_555
H12A C12A 1_555 1_555
C13A C12A 1_555 1_555
H13A C13A 1_555 1_555
C14A C13A 1_555 1_555
C15A C14A 1_555 1_555
H14A C15A 1_555 1_555
C16A N1A 1_555 1_555
H15A C16A 1_555 1_555
C17A C14A 1_555 1_555
H16A C17A 1_555 1_555
H17A C17A 1_555 1_555
C18A C17A 1_555 1_555
H18A C18A 1_555 1_555
H19A C18A 1_555 1_555
C19A C18A 1_555 1_555
H20A C19A 1_555 1_555
H21A C19A 1_555 1_555
C20A C19A 1_555 1_555
C21A C20A 1_555 1_555
H22A C21A 1_555 1_555
C22A C21A 1_555 1_555
H23A C22A 1_555 1_555
C23A N2A 1_555 1_555
H24A C23A 1_555 1_555
C24A C20A 1_555 1_555
H25A C24A 1_555 1_555
Co1_2 N2A 1_555 1_555
Co1A_2 N2 1_555 1_555
Co1B O6 1_555 1_555
Co1B_2 O5A 1_555 1_555
Co1C O5 1_555 1_555
Co1C_2 O6A 1_555 1_555
N2_2 Co1A 1_555 1_555
N2A_2 Co1 1_555 1_555
O5B Co1A 1_555 1_555
O5C Co1 1_555 1_555
O6B Co1 1_555 1_555
O6C Co1A 1_555 1_555
C7 C8 1_555 1_555
C15 C16 1_555 1_555
C23 C24 1_555 1_555
C7A C8A 1_555 1_555
C15A C16A 1_555 1_555
C23A C24A 1_555 1_555

#END
