
#######################################################################
#
#                 Cambridge Crystallographic Data Centre
#                                CCDC 
#
#######################################################################
#
# If this CIF has been generated from an entry in the Cambridge 
# Structural Database, then it will include bibliographic, chemical, 
# crystal, experimental, refinement or atomic coordinate data resulting 
# from the CCDC's data processing and validation procedures.
#
#######################################################################

data_CEZZIR
_symmetry_cell_setting           orthorhombic
_symmetry_space_group_name_H-M   'P b c n'
_symmetry_Int_Tables_number      60
_space_group_name_Hall           '-P 2n 2ab'
loop_
_symmetry_equiv_pos_site_id
_symmetry_equiv_pos_as_xyz
1 x,y,z
2 1/2-x,1/2-y,1/2+z
3 1/2+x,1/2-y,-z
4 -x,y,1/2-z
5 -x,-y,-z
6 1/2+x,1/2+y,1/2-z
7 1/2-x,1/2+y,z
8 x,-y,1/2+z
_cell_length_a                   13.369(5)
_cell_length_b                   15.588(5)
_cell_length_c                   8.082(5)
_cell_angle_alpha                90
_cell_angle_beta                 90
_cell_angle_gamma                90
_cell_volume                     1684.26
loop_
_atom_site_label
_atom_site_type_symbol
_atom_site_fract_x
_atom_site_fract_y
_atom_site_fract_z
C1 C 0.0654(5) 0.2361(4) 1.0726(8)
H1 H 0.0015 0.2503 1.0367
C2 C 0.1332(4) 0.2987(3) 1.1090(8)
H2 H 0.1143 0.3559 1.0979
C3 C 0.2278(4) 0.2801(3) 1.1614(7)
C4 C 0.2513(5) 0.1951(4) 1.1803(10)
H3 H 0.3146 0.1796 1.2175
C5 C 0.1823(5) 0.1327(4) 1.1448(8)
H4 H 0.1988 0.0753 1.1597
C6 C 0.3050(5) 0.3486(4) 1.1946(8)
N1 N 0.0922(3) 0.1538(3) 1.0893(6)
O1 O 0.0282(3) 0.0913(3) 1.0489(5)
O2 O 0.3927(3) 0.3209(3) 1.2225(5)
O3 O 0.2806(4) 0.4243(3) 1.1924(8)
Pb1 Pb 0.0000 0.057985(14) 0.7500
C1G C 0.0654(5) -0.2361(4) 0.5726(8)
H1G H 0.0015 -0.2503 0.5367
C2G C 0.1332(4) -0.2987(3) 0.6090(8)
H2G H 0.1143 -0.3559 0.5979
C3G C 0.2278(4) -0.2801(3) 0.6614(7)
C4G C 0.2513(5) -0.1951(4) 0.6803(10)
H3G H 0.3146 -0.1796 0.7175
C5G C 0.1823(5) -0.1327(4) 0.6448(8)
H4G H 0.1988 -0.0753 0.6597
C6G C 0.3050(5) -0.3486(4) 0.6946(8)
N1G N 0.0922(3) -0.1538(3) 0.5893(6)
O1G O 0.0282(3) -0.0913(3) 0.5489(5)
O1D O -0.0282(3) -0.0913(3) 0.9511(5)
O1C O -0.0282(3) 0.0913(3) 0.4511(5)
O2G O 0.3927(3) -0.3209(3) 0.7225(5)
O2A O 0.1073(3) 0.1791(3) 0.7225(5)
O2B O -0.1073(3) 0.1791(3) 0.7775(5)
O3G O 0.2806(4) -0.4243(3) 0.6924(8)
Pb1G Pb 0.0000 -0.057985(14) 1.2500
Pb1A Pb 0.5000 0.442015(14) 1.2500
Pb1G_2 Pb 0.0000 -0.057985(14) 0.2500
Pb1E Pb 0.5000 -0.442015(14) 0.7500
O4 O 0.0787(16) 0.5346(10) 0.968(3)
O5 O 0.0000 0.561(3) 0.2500
loop_
_geom_bond_atom_site_label_1
_geom_bond_atom_site_label_2
_geom_bond_site_symmetry_1
_geom_bond_site_symmetry_2
C1 H1 1_555 1_555
C2 C1 1_555 1_555
H2 C2 1_555 1_555
C3 C2 1_555 1_555
C4 C3 1_555 1_555
H3 C4 1_555 1_555
C5 C4 1_555 1_555
H4 C5 1_555 1_555
C6 C3 1_555 1_555
N1 C1 1_555 1_555
O1 N1 1_555 1_555
O2 C6 1_555 1_555
O3 C6 1_555 1_555
Pb1 O1 1_555 1_555
C1G H1G 1_555 1_555
C2G C1G 1_555 1_555
H2G C2G 1_555 1_555
C3G C2G 1_555 1_555
C4G C3G 1_555 1_555
H3G C4G 1_555 1_555
C5G C4G 1_555 1_555
H4G C5G 1_555 1_555
C6G C3G 1_555 1_555
N1G C1G 1_555 1_555
O1G Pb1 1_555 1_555
O1D Pb1 1_555 1_555
O1C Pb1 1_555 1_555
O2G C6G 1_555 1_555
O2A Pb1 1_555 1_555
O2B Pb1 1_555 1_555
O3G C6G 1_555 1_555
Pb1G O1 1_555 1_555
Pb1A O2 1_555 1_555
Pb1G_2 O1G 1_555 1_555
Pb1E O2G 1_555 1_555
C5 N1 1_555 1_555
C5G N1G 1_555 1_555
N1G O1G 1_555 1_555
O1D Pb1G 1_555 1_555
O1C Pb1G_2 1_555 1_555

#END
