
#######################################################################
#
#                 Cambridge Crystallographic Data Centre
#                                CCDC 
#
#######################################################################
#
# If this CIF has been generated from an entry in the Cambridge 
# Structural Database, then it will include bibliographic, chemical, 
# crystal, experimental, refinement or atomic coordinate data resulting 
# from the CCDC's data processing and validation procedures.
#
#######################################################################

data_CEZZEN
_symmetry_cell_setting           orthorhombic
_symmetry_space_group_name_H-M   'P c c n'
_symmetry_Int_Tables_number      56
_space_group_name_Hall           '-P 2ab 2ac'
loop_
_symmetry_equiv_pos_site_id
_symmetry_equiv_pos_as_xyz
1 x,y,z
2 1/2-x,1/2-y,z
3 -x,1/2+y,1/2-z
4 1/2+x,-y,1/2-z
5 -x,-y,-z
6 1/2+x,1/2+y,-z
7 x,1/2-y,1/2+z
8 1/2-x,y,1/2+z
_cell_length_a                   20.0657(8)
_cell_length_b                   21.6400(8)
_cell_length_c                   7.3127(3)
_cell_angle_alpha                90
_cell_angle_beta                 90
_cell_angle_gamma                90
_cell_volume                     3175.33
loop_
_atom_site_label
_atom_site_type_symbol
_atom_site_fract_x
_atom_site_fract_y
_atom_site_fract_z
Pb1 Pb 0.021932(5) 0.535847(5) 0.229490(14)
C1 C 0.07881(13) 0.67562(13) -0.0783(4)
H1 H 0.1191 0.6595 -0.0375
C2 C 0.01086(13) 0.76290(12) -0.1517(4)
C3 C 0.07047(14) 0.73857(12) -0.0894(4)
H2 H 0.1049 0.7648 -0.0551
C4 C -0.03954(16) 0.72184(14) -0.2011(4)
H3 H -0.0799 0.7370 -0.2449
C5 C -0.03010(14) 0.65930(13) -0.1856(4)
H4 H -0.0643 0.6322 -0.2161
C6 C 0.26442(12) 0.49932(12) 0.6017(4)
C7 C 0.23848(13) 0.44357(14) 0.5368(4)
H5 H 0.2669 0.4106 0.5123
C8 C 0.22023(14) 0.54686(14) 0.6411(4)
H6 H 0.2360 0.5838 0.6894
C9 C 0.33853(13) 0.50679(13) 0.6285(4)
C10 C 0.00141(14) 0.83157(13) -0.1734(4)
C11 C 0.17111(13) 0.43726(13) 0.5089(4)
H7 H 0.1538 0.3999 0.4673
C12 C 0.15317(14) 0.53935(14) 0.6086(4)
H8 H 0.1237 0.5715 0.6325
N1 N 0.13019(11) 0.48533(11) 0.5421(3)
N2 N 0.02895(11) 0.63715(10) -0.1259(3)
O1 O 0.37644(10) 0.46398(8) 0.5832(3)
O2 O 0.06527(9) 0.48057(9) 0.4991(3)
O3 O 0.35806(9) 0.55701(10) 0.7029(3)
O4 O 0.03810(9) 0.57673(8) -0.1093(3)
O6 O -0.05032(11) 0.85177(10) -0.2484(3)
O8 O 0.04868(10) 0.86603(9) -0.1185(3)
Pb1D Pb -0.021932(5) 0.464153(5) 0.770510(14)
Pb1G Pb 0.478068(5) 0.535847(5) 0.729490(14)
Pb1F Pb 0.021932(5) 0.964153(5) -0.270510(14)
Pb1C Pb -0.478068(5) 0.464153(5) 0.270510(14)
Pb1F_2 Pb 0.021932(5) 0.964153(5) 0.729490(14)
C1F C 0.07881(13) 0.82438(13) 0.4217(4)
H1F H 0.1191 0.8405 0.4625
C2F C 0.01086(13) 0.73710(12) 0.3483(4)
C3F C 0.07047(14) 0.76143(12) 0.4106(4)
H2F H 0.1049 0.7352 0.4449
C4F C -0.03954(16) 0.77816(14) 0.2989(4)
H3F H -0.0799 0.7630 0.2551
C5F C -0.03010(14) 0.84070(13) 0.3144(4)
H4F H -0.0643 0.8678 0.2839
C6D C -0.26442(12) 0.50068(12) 0.3983(4)
C7D C -0.23848(13) 0.55643(14) 0.4632(4)
H5D H -0.2669 0.5894 0.4877
C8D C -0.22023(14) 0.45314(14) 0.3589(4)
H6D H -0.2360 0.4162 0.3106
C9D C -0.33853(13) 0.49321(13) 0.3715(4)
C10F C 0.00141(14) 0.66843(13) 0.3266(4)
C11D C -0.17111(13) 0.56274(13) 0.4911(4)
H7D H -0.1538 0.6001 0.5327
C12D C -0.15317(14) 0.46065(14) 0.3914(4)
H8D H -0.1237 0.4285 0.3675
N1D N -0.13019(11) 0.51467(11) 0.4579(3)
N2F N 0.02895(11) 0.86285(10) 0.3741(3)
O1D O -0.37644(10) 0.53602(8) 0.4168(3)
O2D O -0.06527(9) 0.51943(9) 0.5009(3)
O3D O -0.35806(9) 0.44299(10) 0.2971(3)
O3G O 0.14194(9) 0.55701(10) 0.2029(3)
O3C O -0.14194(9) 0.44299(10) 0.7971(3)
O4F O 0.03810(9) 0.92327(8) 0.3907(3)
O4D O -0.03810(9) 0.42327(8) 1.1093(3)
O6F O -0.05032(11) 0.64823(10) 0.2516(3)
O8F O 0.04868(10) 0.63397(9) 0.3815(3)
O8B O -0.04868(10) 0.36603(9) 0.6185(3)
O5 O 0.19602(11) 0.31217(11) 0.2585(3)
H9 H 0.185(2) 0.2788(14) 0.310(6)
H10 H 0.2369(10) 0.3176(18) 0.278(5)
O7 O 0.17153(11) 0.30962(10) 0.8839(3)
H11 H 0.1759(14) 0.3151(14) 0.993(5)
H12 H 0.1370(17) 0.3276(15) 0.853(5)
O9 O 0.2500 0.7500 0.0540(16)
H13 H 0.256(13) 0.712(5) 0.09(4)
H13A H 0.244(13) 0.788(5) 0.09(4)
O10 O 0.29697(19) 0.67467(17) 0.8057(13)
H14 H 0.282(2) 0.665(3) 0.703(3)
H15 H 0.3351(17) 0.657(3) 0.808(8)
H16? H 0.308(5) 0.7124(13) 0.795(13)
H17? H 0.277(2) 0.661(3) 0.889(4)
loop_
_geom_bond_atom_site_label_1
_geom_bond_atom_site_label_2
_geom_bond_site_symmetry_1
_geom_bond_site_symmetry_2
Pb1 O2 1_555 1_555
C1 H1 1_555 1_555
C2 C3 1_555 1_555
C3 C1 1_555 1_555
H2 C3 1_555 1_555
C4 C2 1_555 1_555
H3 C4 1_555 1_555
C5 C4 1_555 1_555
H4 C5 1_555 1_555
C6 C7 1_555 1_555
C7 H5 1_555 1_555
C8 C6 1_555 1_555
H6 C8 1_555 1_555
C9 C6 1_555 1_555
C10 C2 1_555 1_555
C11 C7 1_555 1_555
H7 C11 1_555 1_555
C12 C8 1_555 1_555
H8 C12 1_555 1_555
N1 C11 1_555 1_555
N2 C1 1_555 1_555
O1 C9 1_555 1_555
O2 N1 1_555 1_555
O3 C9 1_555 1_555
O4 Pb1 1_555 1_555
O5 H9 1_555 1_555
H10 O5 1_555 1_555
O6 C10 1_555 1_555
O7 H11 1_555 1_555
H12 O7 1_555 1_555
O8 C10 1_555 1_555
O9 H13 1_555 1_555
O10 H14 1_555 1_555
H15 O10 1_555 1_555
Pb1D O2 1_555 1_555
Pb1G O3 1_555 1_555
Pb1F O8 1_555 1_555
Pb1C O3D 1_555 1_555
Pb1F_2 O4F 1_555 1_555
C1F H1F 1_555 1_555
C2F C3F 1_555 1_555
C3F C1F 1_555 1_555
H2F C3F 1_555 1_555
C4F C2F 1_555 1_555
H3F C4F 1_555 1_555
C5F C4F 1_555 1_555
H4F C5F 1_555 1_555
C6D C7D 1_555 1_555
C7D H5D 1_555 1_555
C8D C6D 1_555 1_555
H6D C8D 1_555 1_555
C9D C6D 1_555 1_555
C10F C2F 1_555 1_555
C11D C7D 1_555 1_555
H7D C11D 1_555 1_555
C12D C8D 1_555 1_555
H8D C12D 1_555 1_555
N1D C11D 1_555 1_555
N2F C1F 1_555 1_555
O1D C9D 1_555 1_555
O2D Pb1 1_555 1_555
O3D C9D 1_555 1_555
O3G Pb1 1_555 1_555
O3C Pb1D 1_555 1_555
O4F N2F 1_555 1_555
O4D Pb1D 1_555 1_555
O6F C10F 1_555 1_555
O8F Pb1 1_555 1_555
O8B Pb1D 1_555 1_555
H13A O9 1_555 1_555
C5 N2 1_555 1_555
C12 N1 1_555 1_555
N2 O4 1_555 1_555
Pb1D O2D 1_555 1_555
C5F N2F 1_555 1_555
C10F O8F 1_555 1_555
C12D N1D 1_555 1_555
N1D O2D 1_555 1_555

#END
