
#######################################################################
#
#                 Cambridge Crystallographic Data Centre
#                                CCDC 
#
#######################################################################
#
# If this CIF has been generated from an entry in the Cambridge 
# Structural Database, then it will include bibliographic, chemical, 
# crystal, experimental, refinement or atomic coordinate data resulting 
# from the CCDC's data processing and validation procedures.
#
#######################################################################

data_CHLBZN
_symmetry_cell_setting           monoclinic
_symmetry_space_group_name_H-M   'P 21/c'
_symmetry_Int_Tables_number      14
_space_group_name_Hall           '-P 2ybc'
loop_
_symmetry_equiv_pos_site_id
_symmetry_equiv_pos_as_xyz
1 x,y,z
2 -x,1/2+y,1/2-z
3 -x,-y,-z
4 x,1/2-y,1/2+z
_cell_length_a                   7.284(5)
_cell_length_b                   10.480(4)
_cell_length_c                   19.091(8)
_cell_angle_alpha                90
_cell_angle_beta                 95.59(5)
_cell_angle_gamma                90
_cell_volume                     1450.41
loop_
_atom_site_label
_atom_site_type_symbol
_atom_site_fract_x
_atom_site_fract_y
_atom_site_fract_z
Cl1 Cl -0.07500 0.05020 0.33220
Cl2 Cl -0.41510 0.34330 0.52810
C1 C -0.25900 0.14340 0.29750
C2 C -0.20630 0.40510 0.56670
C3 C -0.22700 0.21180 0.23740
C4 C -0.21080 0.52610 0.59370
C5 C -0.36260 0.28520 0.20620
C6 C -0.04730 0.57960 0.62390
C7 C -0.53340 0.29360 0.23160
C8 C 0.11600 0.51330 0.62540
C9 C -0.56380 0.22660 0.29190
C10 C 0.11540 0.39220 0.59630
C11 C -0.42810 0.15030 0.32590
C12 C -0.04740 0.33560 0.56780
C13 C -0.47440 0.08300 0.39160
C14 C -0.03650 0.20300 0.53910
H1 H -0.10200 0.19600 0.21700
H2 H -0.34500 0.57900 0.60000
H3 H -0.34200 0.33700 0.16100
H4 H -0.04700 0.67400 0.64900
H5 H -0.65400 0.36000 0.21500
H6 H 0.25900 0.54500 0.64400
H7 H -0.68700 0.22600 0.31100
H8 H 0.24100 0.33800 0.59500
O1 O -0.36600 0.00200 0.41970
O2 O -0.16010 0.12490 0.55250
O3 O -0.62270 0.11480 0.41420
O4 O 0.09960 0.17830 0.50680
Zn1 Zn -0.24840 -0.03490 0.51310
Zn1B Zn -0.75160 0.03490 0.48690
O3B O -0.37730 -0.11480 0.58580
O4B O -0.09960 -0.17830 0.49320
Zn1B_2 Zn 0.24840 0.03490 0.48690
loop_
_geom_bond_atom_site_label_1
_geom_bond_atom_site_label_2
_geom_bond_site_symmetry_1
_geom_bond_site_symmetry_2
Cl1 C1 1_555 1_555
Cl2 C2 1_555 1_555
C1 C3 1_555 1_555
C2 C4 1_555 1_555
C3 C5 1_555 1_555
C4 C6 1_555 1_555
C5 C7 1_555 1_555
C6 C8 1_555 1_555
C7 C9 1_555 1_555
C8 C10 1_555 1_555
C9 C11 1_555 1_555
C10 C12 1_555 1_555
C11 C1 1_555 1_555
C12 C2 1_555 1_555
C13 C11 1_555 1_555
C14 C12 1_555 1_555
H1 C3 1_555 1_555
H2 C4 1_555 1_555
H3 C5 1_555 1_555
H4 C6 1_555 1_555
H5 C7 1_555 1_555
H6 C8 1_555 1_555
H7 C9 1_555 1_555
H8 C10 1_555 1_555
O1 C13 1_555 1_555
O2 C14 1_555 1_555
O3 C13 1_555 1_555
O4 C14 1_555 1_555
Zn1 O1 1_555 1_555
Zn1B O3 1_555 1_555
O3B Zn1 1_555 1_555
O4B Zn1 1_555 1_555
Zn1B_2 O4 1_555 1_555
O2 Zn1 1_555 1_555

#END
