
#######################################################################
#
#                 Cambridge Crystallographic Data Centre
#                                CCDC 
#
#######################################################################
#
# If this CIF has been generated from an entry in the Cambridge 
# Structural Database, then it will include bibliographic, chemical, 
# crystal, experimental, refinement or atomic coordinate data resulting 
# from the CCDC's data processing and validation procedures.
#
#######################################################################

data_CIBFAV
_symmetry_cell_setting           monoclinic
_symmetry_space_group_name_H-M   'P 21/c'
_symmetry_Int_Tables_number      14
_space_group_name_Hall           '-P 2ybc'
loop_
_symmetry_equiv_pos_site_id
_symmetry_equiv_pos_as_xyz
1 x,y,z
2 -x,1/2+y,1/2-z
3 -x,-y,-z
4 x,1/2-y,1/2+z
_cell_length_a                   10.4838(19)
_cell_length_b                   7.9647(12)
_cell_length_c                   9.8583(16)
_cell_angle_alpha                90
_cell_angle_beta                 106.206(18)
_cell_angle_gamma                90
_cell_volume                     790.462
loop_
_atom_site_label
_atom_site_type_symbol
_atom_site_fract_x
_atom_site_fract_y
_atom_site_fract_z
Hg1 Hg 0.497269(17) 0.47620(2) 0.695441(17)
Cl1 Cl 0.70148(13) 0.47492(16) 0.65201(14)
N1 N 0.3098(4) 0.5114(4) 0.7390(4)
O1 O 0.5077(3) 0.3164(4) 0.9118(3)
O2 O 0.3929(3) 0.3002(4) 1.0704(3)
C1 C 0.2942(4) 0.4422(5) 0.8578(4)
O3 O 0.1511(4) 0.3917(7) 1.0051(4)
H1 H 0.2139 0.3314 1.0444
C2 C 0.4073(4) 0.3457(5) 0.9525(4)
C3 C 0.1728(5) 0.4594(6) 0.8892(5)
C4 C 0.2137(5) 0.6009(7) 0.6525(5)
H2 H 0.2295 0.6533 0.5744
C5 C 0.0689(5) 0.5457(8) 0.7954(6)
H3 H -0.0135 0.5544 0.8131
C6 C 0.0900(5) 0.6173(8) 0.6769(5)
H4 H 0.0223 0.6762 0.6136
Hg1C Hg 0.497269(17) 0.02380(2) 1.195441(17)
O2C O 0.3929(3) 0.1998(4) 0.5704(3)
loop_
_geom_bond_atom_site_label_1
_geom_bond_atom_site_label_2
_geom_bond_site_symmetry_1
_geom_bond_site_symmetry_2
Hg1 Cl1 1_555 1_555
N1 Hg1 1_555 1_555
O1 Hg1 1_555 1_555
O2 C2 1_555 1_555
C1 N1 1_555 1_555
O3 H1 1_555 1_555
C2 O1 1_555 1_555
C3 C1 1_555 1_555
C4 N1 1_555 1_555
H2 C4 1_555 1_555
C5 C3 1_555 1_555
H3 C5 1_555 1_555
C6 C4 1_555 1_555
H4 C6 1_555 1_555
Hg1C O2 1_555 1_555
O2C Hg1 1_555 1_555
C1 C2 1_555 1_555
O3 C3 1_555 1_555
C5 C6 1_555 1_555

#END
