
#######################################################################
#
#                 Cambridge Crystallographic Data Centre
#                                CCDC 
#
#######################################################################
#
# If this CIF has been generated from an entry in the Cambridge 
# Structural Database, then it will include bibliographic, chemical, 
# crystal, experimental, refinement or atomic coordinate data resulting 
# from the CCDC's data processing and validation procedures.
#
#######################################################################

data_CIBGIE
_symmetry_cell_setting           monoclinic
_symmetry_space_group_name_H-M   'C 2/c'
_symmetry_Int_Tables_number      15
_space_group_name_Hall           '-C 2yn'
loop_
_symmetry_equiv_pos_site_id
_symmetry_equiv_pos_as_xyz
1 x,y,z
2 1/2+x,1/2+y,z
3 -x,y,1/2-z
4 1/2-x,1/2+y,1/2-z
5 -x,-y,-z
6 1/2-x,1/2-y,-z
7 x,-y,1/2+z
8 1/2+x,1/2-y,1/2+z
_cell_length_a                   21.535(8)
_cell_length_b                   14.385(7)
_cell_length_c                   15.246(5)
_cell_angle_alpha                90
_cell_angle_beta                 101.38(4)
_cell_angle_gamma                90
_cell_volume                     4630.07
loop_
_atom_site_label
_atom_site_type_symbol
_atom_site_fract_x
_atom_site_fract_y
_atom_site_fract_z
Cd1 Cd 0.5000 0.15829(3) 0.2500
Cd2 Cd 0.445245(15) 0.39239(2) 0.01029(2)
Cl1 Cl 0.42574(5) 0.02846(8) 0.16451(8)
Cl2 Cl 0.42794(5) 0.28697(8) 0.15929(7)
Cl3 Cl 0.33036(5) 0.41452(8) -0.02900(9)
Cl4 Cl 0.47656(6) 0.25923(8) -0.07078(8)
Cl5 Cl 0.52434(6) 0.48512(8) 0.11461(8)
N1 N 0.64762(19) -0.0268(3) 0.0523(3)
C1 C 0.6913(2) 0.0270(4) 0.0251(3)
N2 N 0.69383(19) 0.1177(3) 0.0293(3)
C2 C 0.64728(18) 0.1518(3) 0.0681(3)
C3 C 0.60161(18) 0.1033(3) 0.1028(3)
C4 C 0.5994(2) 0.0067(3) 0.0906(3)
N3 N 0.5559(2) -0.0487(3) 0.1106(3)
N4 N 0.56458(16) 0.1631(2) 0.1405(2)
C5 C 0.58698(19) 0.2462(3) 0.1271(3)
N5 N 0.63655(16) 0.2427(2) 0.0831(2)
C6 C 0.6696(2) 0.3228(3) 0.0543(3)
C7 C 0.6377(2) 0.3581(3) -0.0371(3)
C8 C 0.6320(2) 0.2890(3) -0.1134(3)
C9 C 0.6094(2) 0.3364(4) -0.2033(3)
N6 N 0.6588(2) 0.3995(3) -0.2252(3)
C10 C 0.6571(3) 0.4934(4) -0.2189(3)
H1 H 0.6218 0.5203 -0.2027
N7 N 0.7018(2) 0.5480(3) -0.2342(3)
C11 C 0.7570(3) 0.5140(4) -0.2608(4)
N8 N 0.8023(2) 0.5729(4) -0.2782(4)
C12 C 0.7609(2) 0.4194(4) -0.2698(3)
N9 N 0.80243(19) 0.3629(4) -0.2978(3)
H2 H 0.8367 0.3785 -0.3149
C13 C 0.7794(3) 0.2769(5) -0.2936(4)
N10 N 0.72458(19) 0.2747(4) -0.2651(3)
C14 C 0.7118(2) 0.3648(4) -0.2513(3)
H5 H 0.652(3) -0.090(4) 0.047(4)
H6 H 0.722(2) 0.001(3) 0.007(3)
H7 H 0.557(4) -0.109(5) 0.103(5)
H8 H 0.520(2) -0.026(3) 0.126(3)
H9 H 0.571(2) 0.304(4) 0.152(3)
H10 H 0.671(3) 0.365(4) 0.104(4)
H11 H 0.713(2) 0.303(3) 0.058(3)
H12 H 0.659(3) 0.415(4) -0.049(3)
H13 H 0.601(2) 0.378(3) -0.038(3)
H14 H 0.601(2) 0.243(4) -0.108(3)
H15 H 0.672(2) 0.262(4) -0.116(3)
H16 H 0.565(3) 0.374(4) -0.212(4)
H17 H 0.596(3) 0.275(5) -0.252(5)
H18 H 0.799(3) 0.618(5) -0.267(4)
H19 H 0.841(4) 0.553(5) -0.283(5)
H20 H 0.805(3) 0.220(5) -0.319(5)
Cd2B Cd 0.554755(15) 0.39239(2) 0.48971(2)
Cd2D Cd 0.554755(15) 0.60761(2) -0.01029(2)
Cl1B Cl 0.57426(5) 0.02846(8) 0.33549(8)
Cl2B Cl 0.57206(5) 0.28697(8) 0.34071(7)
Cl3B Cl 0.66964(5) 0.41452(8) 0.52900(9)
Cl4B Cl 0.52344(6) 0.25923(8) 0.57078(8)
Cl5D Cl 0.47566(6) 0.51488(8) -0.11461(8)
Cl5F Cl 0.52434(6) 0.51488(8) 0.61461(8)
Cl5B Cl 0.47566(6) 0.48512(8) 0.38539(8)
N1B N 0.35238(19) -0.0268(3) 0.4477(3)
C1B C 0.3087(2) 0.0270(4) 0.4749(3)
N2B N 0.30617(19) 0.1177(3) 0.4707(3)
C2B C 0.35272(18) 0.1518(3) 0.4319(3)
C3B C 0.39839(18) 0.1033(3) 0.3972(3)
C4B C 0.4006(2) 0.0067(3) 0.4094(3)
N3B N 0.4441(2) -0.0487(3) 0.3894(3)
N4B N 0.43542(16) 0.1631(2) 0.3595(2)
C5B C 0.41302(19) 0.2462(3) 0.3729(3)
N5B N 0.36345(16) 0.2427(2) 0.4169(2)
C6B C 0.3304(2) 0.3228(3) 0.4457(3)
C7B C 0.3623(2) 0.3581(3) 0.5371(3)
C8B C 0.3680(2) 0.2890(3) 0.6134(3)
C9B C 0.3906(2) 0.3364(4) 0.7033(3)
N6B N 0.3412(2) 0.3995(3) 0.7252(3)
C10B C 0.3429(3) 0.4934(4) 0.7189(3)
H1B H 0.3782 0.5203 0.7027
N7B N 0.2982(2) 0.5480(3) 0.7342(3)
C11B C 0.2430(3) 0.5140(4) 0.7608(4)
N8B N 0.1977(2) 0.5729(4) 0.7782(4)
C12B C 0.2391(2) 0.4194(4) 0.7698(3)
N9B N 0.19757(19) 0.3629(4) 0.7978(3)
H2B H 0.1633 0.3785 0.8149
C13B C 0.2206(3) 0.2769(5) 0.7936(4)
N10B N 0.27542(19) 0.2747(4) 0.7651(3)
C14B C 0.2882(2) 0.3648(4) 0.7513(3)
H5B H 0.348(3) -0.090(4) 0.453(4)
H6B H 0.278(2) 0.001(3) 0.493(3)
H7B H 0.443(4) -0.109(5) 0.397(5)
H8B H 0.480(2) -0.026(3) 0.374(3)
H9B H 0.429(2) 0.304(4) 0.348(3)
H10B H 0.329(3) 0.365(4) 0.396(4)
H11B H 0.287(2) 0.303(3) 0.442(3)
H12B H 0.341(3) 0.415(4) 0.549(3)
H13B H 0.399(2) 0.378(3) 0.538(3)
H14B H 0.399(2) 0.243(4) 0.608(3)
H15B H 0.328(2) 0.262(4) 0.616(3)
H16B H 0.435(3) 0.374(4) 0.712(4)
H17B H 0.404(3) 0.275(5) 0.752(5)
H18B H 0.201(3) 0.618(5) 0.767(4)
H19B H 0.159(4) 0.553(5) 0.783(5)
H20B H 0.195(3) 0.220(5) 0.819(5)
O1 O 0.6720(3) -0.1959(3) 0.0005(4)
H3 H 0.714(3) -0.185(5) 0.039(5)
H4 H 0.671(3) -0.2616(9) -0.005(5)
loop_
_geom_bond_atom_site_label_1
_geom_bond_atom_site_label_2
_geom_bond_site_symmetry_1
_geom_bond_site_symmetry_2
Cd1 Cl1 1_555 1_555
Cd2 Cl2 1_555 1_555
Cl2 Cd1 1_555 1_555
Cl3 Cd2 1_555 1_555
Cl4 Cd2 1_555 1_555
Cl5 Cd2 1_555 1_555
N1 C1 1_555 1_555
C1 N2 1_555 1_555
N2 C2 1_555 1_555
C2 C3 1_555 1_555
C3 C4 1_555 1_555
C4 N1 1_555 1_555
N3 C4 1_555 1_555
N4 Cd1 1_555 1_555
C5 N4 1_555 1_555
N5 C2 1_555 1_555
C6 N5 1_555 1_555
C7 C6 1_555 1_555
C8 C7 1_555 1_555
C9 C8 1_555 1_555
N6 C9 1_555 1_555
C10 N6 1_555 1_555
H1 C10 1_555 1_555
N7 C10 1_555 1_555
C11 N7 1_555 1_555
N8 C11 1_555 1_555
C12 C11 1_555 1_555
N9 C12 1_555 1_555
H2 N9 1_555 1_555
C13 N9 1_555 1_555
N10 C13 1_555 1_555
C14 N6 1_555 1_555
O1 H3 1_555 1_555
H4 O1 1_555 1_555
H5 N1 1_555 1_555
H6 C1 1_555 1_555
H7 N3 1_555 1_555
H8 N3 1_555 1_555
H9 C5 1_555 1_555
H10 C6 1_555 1_555
H11 C6 1_555 1_555
H12 C7 1_555 1_555
H13 C7 1_555 1_555
H14 C8 1_555 1_555
H15 C8 1_555 1_555
H16 C9 1_555 1_555
H17 C9 1_555 1_555
H18 N8 1_555 1_555
H19 N8 1_555 1_555
H20 C13 1_555 1_555
Cd2B Cl2B 1_555 1_555
Cd2D Cl5 1_555 1_555
Cl1B Cd1 1_555 1_555
Cl2B Cd1 1_555 1_555
Cl3B Cd2B 1_555 1_555
Cl4B Cd2B 1_555 1_555
Cl5D Cd2 1_555 1_555
Cl5F Cd2B 1_555 1_555
Cl5B Cd2B 1_555 1_555
N1B C1B 1_555 1_555
C1B N2B 1_555 1_555
N2B C2B 1_555 1_555
C2B C3B 1_555 1_555
C3B C4B 1_555 1_555
C4B N1B 1_555 1_555
N3B C4B 1_555 1_555
N4B Cd1 1_555 1_555
C5B N4B 1_555 1_555
N5B C2B 1_555 1_555
C6B N5B 1_555 1_555
C7B C6B 1_555 1_555
C8B C7B 1_555 1_555
C9B C8B 1_555 1_555
N6B C9B 1_555 1_555
C10B N6B 1_555 1_555
H1B C10B 1_555 1_555
N7B C10B 1_555 1_555
C11B N7B 1_555 1_555
N8B C11B 1_555 1_555
C12B C11B 1_555 1_555
N9B C12B 1_555 1_555
H2B N9B 1_555 1_555
C13B N9B 1_555 1_555
N10B C13B 1_555 1_555
C14B N6B 1_555 1_555
H5B N1B 1_555 1_555
H6B C1B 1_555 1_555
H7B N3B 1_555 1_555
H8B N3B 1_555 1_555
H9B C5B 1_555 1_555
H10B C6B 1_555 1_555
H11B C6B 1_555 1_555
H12B C7B 1_555 1_555
H13B C7B 1_555 1_555
H14B C8B 1_555 1_555
H15B C8B 1_555 1_555
H16B C9B 1_555 1_555
H17B C9B 1_555 1_555
H18B N8B 1_555 1_555
H19B N8B 1_555 1_555
H20B C13B 1_555 1_555
C3 N4 1_555 1_555
C5 N5 1_555 1_555
C12 C14 1_555 1_555
N10 C14 1_555 1_555
Cd2D Cl5D 1_555 1_555
C3B N4B 1_555 1_555
C5B N5B 1_555 1_555
C12B C14B 1_555 1_555
N10B C14B 1_555 1_555

#END
