
#######################################################################
#
#                 Cambridge Crystallographic Data Centre
#                                CCDC 
#
#######################################################################
#
# If this CIF has been generated from an entry in the Cambridge 
# Structural Database, then it will include bibliographic, chemical, 
# crystal, experimental, refinement or atomic coordinate data resulting 
# from the CCDC's data processing and validation procedures.
#
#######################################################################

data_CIBHUR
_symmetry_cell_setting           triclinic
_symmetry_space_group_name_H-M   'P -1'
_symmetry_Int_Tables_number      2
_space_group_name_Hall           '-P 1'
loop_
_symmetry_equiv_pos_site_id
_symmetry_equiv_pos_as_xyz
1 x,y,z
2 -x,-y,-z
_cell_length_a                   9.4051(3)
_cell_length_b                   9.5567(3)
_cell_length_c                   12.4095(4)
_cell_angle_alpha                83.8120(10)
_cell_angle_beta                 79.8150(10)
_cell_angle_gamma                87.9080(10)
_cell_volume                     1091.24
loop_
_atom_site_label
_atom_site_type_symbol
_atom_site_fract_x
_atom_site_fract_y
_atom_site_fract_z
Cu1 Cu 0.64416(4) -0.33754(4) 0.79215(3)
O1 O 0.4378(3) -0.3790(3) 0.8625(2)
O2 O 0.4081(3) -0.2217(3) 0.7240(2)
O3 O 0.6979(4) -0.5375(4) 0.9121(3)
N1 N -0.3644(3) -0.4724(3) 0.6786(2)
N2 N -0.3526(3) -0.2018(3) 0.9046(3)
N3 N -0.1518(3) -0.2541(3) 0.7148(2)
C1 C -0.4393(5) -0.5903(4) 0.7091(3)
H1 H -0.4834 -0.6079 0.7823
C2 C -0.4545(5) -0.6871(4) 0.6378(4)
H2 H -0.5082 -0.7678 0.6623
C3 C -0.3889(5) -0.6623(5) 0.5294(4)
H3 H -0.3968 -0.7260 0.4793
C4 C -0.3117(5) -0.5419(5) 0.4970(3)
H4 H -0.2665 -0.5233 0.4241
C5 C -0.3005(4) -0.4476(4) 0.5721(3)
C6 C -0.2138(5) -0.3182(5) 0.5396(3)
H5 H -0.2765 -0.2359 0.5488
H6 H -0.1698 -0.3152 0.4625
C7 C -0.0960(4) -0.3151(5) 0.6096(3)
H7 H -0.0600 -0.4101 0.6256
H8 H -0.0162 -0.2594 0.5686
C8 C -0.3648(4) -0.2456(5) 1.0113(4)
H9 H -0.3892 -0.3387 1.0345
C9 C -0.3433(5) -0.1601(6) 1.0884(4)
H10 H -0.3519 -0.1944 1.1622
C10 C -0.3088(6) -0.0232(6) 1.0541(5)
H11 H -0.2925 0.0371 1.1045
C11 C -0.2983(5) 0.0252(5) 0.9449(5)
H12 H -0.2773 0.1190 0.9210
C12 C -0.3193(4) -0.0675(4) 0.8703(4)
C13 C -0.2979(5) -0.0295(4) 0.7492(4)
H13 H -0.2926 0.0720 0.7338
H14 H -0.3806 -0.0598 0.7214
C14 C -0.1614(4) -0.0964(4) 0.6899(4)
H15 H -0.1565 -0.0739 0.6112
H16 H -0.0784 -0.0551 0.7101
C15 C -0.0512(4) -0.2948(4) 0.7944(3)
H17 H -0.0584 -0.3955 0.8152
H18 H -0.0847 -0.2485 0.8604
C16 C 0.1074(4) -0.2609(5) 0.7551(3)
H19 H 0.1409 -0.2987 0.6854
H20 H 0.1187 -0.1596 0.7437
C17 C 0.1966(4) -0.3231(4) 0.8384(3)
H21 H 0.1774 -0.4229 0.8538
H22 H 0.1655 -0.2803 0.9063
C18 C 0.3574(4) -0.3045(4) 0.8038(3)
H23 H 0.673(5) -0.561(5) 0.965(4)
H24 H 0.775(8) -0.587(7) 0.891(5)
Cu1_2 Cu -0.35584(4) -0.33754(4) 0.79215(3)
N1_2 N 0.6356(3) -0.4724(3) 0.6786(2)
N2_2 N 0.6474(3) -0.2018(3) 0.9046(3)
N3_2 N 0.8482(3) -0.2541(3) 0.7148(2)
Cl1 Cl 1.02346(13) 0.26933(13) 0.77879(11)
O4 O 0.9126(6) 0.3033(6) 0.7170(5)
O5 O 0.9685(6) 0.2867(5) 0.8897(4)
O6 O 1.0707(5) 0.1318(4) 0.7653(4)
O7 O 1.1386(5) 0.3608(4) 0.7425(3)
O8 O 1.3559(9) 0.0216(6) 0.5898(7)
loop_
_geom_bond_atom_site_label_1
_geom_bond_atom_site_label_2
_geom_bond_site_symmetry_1
_geom_bond_site_symmetry_2
Cu1 O1 1_555 1_555
Cl1 O4 1_555 1_555
O1 C18 1_555 1_555
O2 C18 1_555 1_555
O3 Cu1 1_555 1_555
O5 Cl1 1_555 1_555
O6 Cl1 1_555 1_555
O7 Cl1 1_555 1_555
N1 C1 1_555 1_555
N2 C8 1_555 1_555
N3 C7 1_555 1_555
C1 H1 1_555 1_555
C2 C1 1_555 1_555
H2 C2 1_555 1_555
C3 C2 1_555 1_555
H3 C3 1_555 1_555
C4 C3 1_555 1_555
H4 C4 1_555 1_555
C5 N1 1_555 1_555
C6 C5 1_555 1_555
H5 C6 1_555 1_555
H6 C6 1_555 1_555
C7 C6 1_555 1_555
H7 C7 1_555 1_555
H8 C7 1_555 1_555
C8 H9 1_555 1_555
C9 C8 1_555 1_555
H10 C9 1_555 1_555
C10 C9 1_555 1_555
H11 C10 1_555 1_555
C11 C10 1_555 1_555
H12 C11 1_555 1_555
C12 N2 1_555 1_555
C13 C12 1_555 1_555
H13 C13 1_555 1_555
H14 C13 1_555 1_555
C14 N3 1_555 1_555
H15 C14 1_555 1_555
H16 C14 1_555 1_555
C15 N3 1_555 1_555
H17 C15 1_555 1_555
H18 C15 1_555 1_555
C16 C15 1_555 1_555
H19 C16 1_555 1_555
H20 C16 1_555 1_555
C17 C16 1_555 1_555
H21 C17 1_555 1_555
H22 C17 1_555 1_555
C18 C17 1_555 1_555
H23 O3 1_555 1_555
H24 O3 1_555 1_555
Cu1_2 N1 1_555 1_555
N1_2 Cu1 1_555 1_555
N2_2 Cu1 1_555 1_555
N3_2 Cu1 1_555 1_555
N2 Cu1_2 1_555 1_555
N3 Cu1_2 1_555 1_555
C4 C5 1_555 1_555
C11 C12 1_555 1_555
C13 C14 1_555 1_555

#END
