
#######################################################################
#
#                 Cambridge Crystallographic Data Centre
#                                CCDC 
#
#######################################################################
#
# If this CIF has been generated from an entry in the Cambridge 
# Structural Database, then it will include bibliographic, chemical, 
# crystal, experimental, refinement or atomic coordinate data resulting 
# from the CCDC's data processing and validation procedures.
#
#######################################################################

data_CIBJAZ
_symmetry_cell_setting           monoclinic
_symmetry_space_group_name_H-M   'P 21/n'
_symmetry_Int_Tables_number      14
_space_group_name_Hall           '-P 2yn'
loop_
_symmetry_equiv_pos_site_id
_symmetry_equiv_pos_as_xyz
1 x,y,z
2 1/2-x,1/2+y,1/2-z
3 -x,-y,-z
4 1/2+x,1/2-y,1/2+z
_cell_length_a                   11.8138(4)
_cell_length_b                   13.4702(5)
_cell_length_c                   14.2027(6)
_cell_angle_alpha                90
_cell_angle_beta                 93.617(2)
_cell_angle_gamma                90
_cell_volume                     2255.63
loop_
_atom_site_label
_atom_site_type_symbol
_atom_site_fract_x
_atom_site_fract_y
_atom_site_fract_z
Cu1 Cu 0.08898(3) 0.18561(3) 1.22384(3)
Cl1 Cl 0.39035(8) 0.19076(7) 1.29042(6)
O1 O -0.1048(2) 0.1017(2) 1.24545(18)
O2 O 0.0603(2) 0.06416(16) 1.29860(16)
O3 O 0.2961(4) 0.1686(5) 1.2375(4)
O4 O 0.4190(6) 0.2941(4) 1.2775(4)
O5 O 0.4850(5) 0.1349(4) 1.2593(4)
O9 O 0.3656(3) 0.1679(3) 1.3867(2)
N1 N -0.3675(2) 0.4021(2) 1.61080(19)
N2 N -0.4476(2) 0.2399(2) 1.84609(19)
N3 N -0.4208(2) 0.1920(2) 1.6405(2)
C1 C -0.3134(3) 0.4877(3) 1.6299(3)
H1 H -0.2947 0.5017 1.6931
C2 C -0.2823(4) 0.5578(3) 1.5646(3)
H2 H -0.2434 0.6148 1.5847
C3 C -0.3085(4) 0.5430(3) 1.4733(3)
H3 H -0.2901 0.5886 1.4275
C4 C -0.3639(4) 0.4570(4) 1.4512(3)
H4 H -0.3839 0.4431 1.3882
C5 C -0.3925(3) 0.3874(3) 1.5214(3)
C6 C -0.4523(4) 0.2943(3) 1.4938(3)
H5 H -0.5144 0.3117 1.4490
H6 H -0.4001 0.2540 1.4601
C7 C -0.5025(3) 0.2260(3) 1.5715(3)
H7 H -0.5390 0.1691 1.5407
H8 H -0.5601 0.2629 1.6023
C8 C -0.4049(3) 0.2750(3) 1.9253(2)
H9 H -0.3528 0.3267 1.9247
C9 C -0.4357(4) 0.2364(3) 2.0126(3)
H10 H -0.4020 0.2632 2.0678
C10 C -0.5131(4) 0.1612(4) 2.0198(3)
H11 H -0.5334 0.1371 2.0778
C11 C -0.5562(4) 0.1258(3) 1.9401(3)
H12 H -0.6089 0.0744 1.9398
C12 C -0.5226(3) 0.1657(3) 1.8538(3)
C13 C -0.5666(3) 0.1273(3) 1.7640(3)
H13 H -0.6083 0.0667 1.7747
H14 H -0.6195 0.1750 1.7352
C14 C -0.4702(3) 0.1037(3) 1.6911(3)
H15 H -0.5021 0.0582 1.6436
H16 H -0.4083 0.0694 1.7255
C15 C -0.3091(3) 0.1617(3) 1.5942(3)
H17 H -0.2535 0.1440 1.6447
H18 H -0.2806 0.2200 1.5634
C16 C -0.3138(3) 0.0776(3) 1.5231(3)
H19 H -0.3350 0.0172 1.5548
H20 H -0.3732 0.0920 1.4747
C17 C -0.1995(3) 0.0578(3) 1.4734(3)
H21 H -0.1417 0.0376 1.5212
H22 H -0.1748 0.1196 1.4464
C18 C -0.2073(3) -0.0209(3) 1.3959(3)
H23 H -0.2320 -0.0827 1.4231
H24 H -0.2653 -0.0008 1.3484
C19 C -0.0932(3) -0.0413(3) 1.3454(3)
H25 H -0.1069 -0.0950 1.3006
H26 H -0.0361 -0.0640 1.3926
C20 C -0.0445(3) 0.0474(3) 1.2931(2)
Cu1C Cu -0.41102(3) 0.31439(3) 1.72384(3)
N1C N 0.1325(2) 0.0979(2) 1.11080(19)
N2C N 0.0524(2) 0.2601(2) 1.34609(19)
N3C N 0.0792(2) 0.3080(2) 1.1405(2)
O10 O 0.2082(3) 0.2779(4) 0.7401(4)
O6? O 0.2868(13) 0.2211(13) 1.2581(11)
O7? O 0.4749(17) 0.2547(12) 1.2769(12)
O8? O 0.4291(13) 0.1021(13) 1.2391(13)
loop_
_geom_bond_atom_site_label_1
_geom_bond_atom_site_label_2
_geom_bond_site_symmetry_1
_geom_bond_site_symmetry_2
Cu1 O1 1_555 1_555
Cl1 O3 1_555 1_555
O1 C20 1_555 1_555
O2 Cu1 1_555 1_555
O3 Cu1 1_555 1_555
O4 Cl1 1_555 1_555
O5 Cl1 1_555 1_555
O9 Cl1 1_555 1_555
N1 C1 1_555 1_555
N2 C8 1_555 1_555
N3 C7 1_555 1_555
C1 H1 1_555 1_555
C2 C1 1_555 1_555
H2 C2 1_555 1_555
C3 C2 1_555 1_555
H3 C3 1_555 1_555
C4 C3 1_555 1_555
H4 C4 1_555 1_555
C5 N1 1_555 1_555
C6 C5 1_555 1_555
H5 C6 1_555 1_555
H6 C6 1_555 1_555
C7 C6 1_555 1_555
H7 C7 1_555 1_555
H8 C7 1_555 1_555
C8 H9 1_555 1_555
C9 C8 1_555 1_555
H10 C9 1_555 1_555
C10 C9 1_555 1_555
H11 C10 1_555 1_555
C11 C10 1_555 1_555
H12 C11 1_555 1_555
C12 N2 1_555 1_555
C13 C12 1_555 1_555
H13 C13 1_555 1_555
H14 C13 1_555 1_555
C14 N3 1_555 1_555
H15 C14 1_555 1_555
H16 C14 1_555 1_555
C15 N3 1_555 1_555
H17 C15 1_555 1_555
H18 C15 1_555 1_555
C16 C15 1_555 1_555
H19 C16 1_555 1_555
H20 C16 1_555 1_555
C17 C16 1_555 1_555
H21 C17 1_555 1_555
H22 C17 1_555 1_555
C18 C17 1_555 1_555
H23 C18 1_555 1_555
H24 C18 1_555 1_555
C19 C18 1_555 1_555
H25 C19 1_555 1_555
H26 C19 1_555 1_555
C20 O2 1_555 1_555
Cu1C N1 1_555 1_555
N1C Cu1 1_555 1_555
N2C Cu1 1_555 1_555
N3C Cu1 1_555 1_555
N2 Cu1C 1_555 1_555
N3 Cu1C 1_555 1_555
C4 C5 1_555 1_555
C11 C12 1_555 1_555
C13 C14 1_555 1_555
C19 C20 1_555 1_555

#END
