
#######################################################################
#
#                 Cambridge Crystallographic Data Centre
#                                CCDC 
#
#######################################################################
#
# If this CIF has been generated from an entry in the Cambridge 
# Structural Database, then it will include bibliographic, chemical, 
# crystal, experimental, refinement or atomic coordinate data resulting 
# from the CCDC's data processing and validation procedures.
#
#######################################################################

data_CIBJEE
_symmetry_cell_setting           rhombohedral
_symmetry_space_group_name_H-M   'R -3'
_symmetry_Int_Tables_number      148
_space_group_name_Hall           '-R 3'
loop_
_symmetry_equiv_pos_site_id
_symmetry_equiv_pos_as_xyz
1 x,y,z
2 -y,x-y,z
3 -x+y,-x,z
4 2/3+x,1/3+y,1/3+z
5 2/3-y,1/3+x-y,1/3+z
6 2/3-x+y,1/3-x,1/3+z
7 1/3+x,2/3+y,2/3+z
8 1/3-y,2/3+x-y,2/3+z
9 1/3-x+y,2/3-x,2/3+z
10 -x,-y,-z
11 y,-x+y,-z
12 x-y,x,-z
13 1/3-x,2/3-y,2/3-z
14 1/3+y,2/3-x+y,2/3-z
15 1/3+x-y,2/3+x,2/3-z
16 2/3-x,1/3-y,1/3-z
17 2/3+y,1/3-x+y,1/3-z
18 2/3+x-y,1/3+x,1/3-z
_cell_length_a                   18.5683(3)
_cell_length_b                   18.5683(3)
_cell_length_c                   28.7951(8)
_cell_angle_alpha                90
_cell_angle_beta                 90
_cell_angle_gamma                120
_cell_volume                     8597.92
loop_
_atom_site_label
_atom_site_type_symbol
_atom_site_fract_x
_atom_site_fract_y
_atom_site_fract_z
I1 I 0.6667 1.3333 0.06825(3)
I2 I 0.50794(4) 1.28793(4) 0.19253(3)
Cu1 Cu 0.60116(6) 1.23689(6) 0.14251(4)
Cu2 Cu 0.6667 1.3333 0.21709(9)
N1 N 0.3171(3) 0.8007(3) 0.1110(2)
C1 C 0.3818(4) 0.9543(4) 0.1122(2)
C2 C 0.2312(4) 0.8472(4) 0.0928(2)
H1 H 0.2097 0.8832 0.0870
N2 N 0.5112(4) 1.1185(4) 0.1262(2)
C3 C -0.0664(5) 0.6146(5) 0.0488(2)
C4 C 0.1880(4) 0.7607(4) 0.0897(2)
C5 C 0.3114(4) 0.8705(4) 0.1059(2)
C6 C -0.0061(4) 0.6047(4) 0.0272(2)
H2 H -0.0222 0.5655 0.0026
C7 C -0.0421(5) 0.6718(5) 0.0843(3)
H3 H -0.0826 0.6797 0.1001
C8 C 0.0398(5) 0.7174(5) 0.0972(3)
H4 H 0.0553 0.7572 0.1215
C9 C 0.3688(5) 1.0214(4) 0.1085(3)
H5 H 0.3153 1.0127 0.1007
C10 C 0.5247(4) 1.0541(4) 0.1290(3)
H6 H 0.5793 1.0647 0.1355
C11 C 0.4341(5) 1.1012(5) 0.1163(3)
H7 H 0.4232 1.1460 0.1145
C12 C 0.1009(4) 0.7064(4) 0.0754(2)
C13 C 0.4614(4) 0.9720(4) 0.1226(3)
H8 H 0.4733 0.9280 0.1255
N3 N 0.2403(3) 0.7328(3) 0.1015(2)
C14 C 0.0776(4) 0.6493(4) 0.0394(2)
C15 C 0.1383(5) 0.6332(5) 0.0120(3)
H9 H 0.1440 0.5891 0.0272
H10 H 0.1926 0.6842 0.0108
H11 H 0.1173 0.6159 -0.0197
C16 C -0.1566(5) 0.5652(6) 0.0345(3)
H12 H -0.1627 0.5275 0.0091
H13 H -0.1754 0.6033 0.0241
H14 H -0.1902 0.5329 0.0611
Cu3 Cu 0.22079(5) 0.62588(5) 0.11085(3)
I2A I -0.28793(4) 0.22001(6) 0.19253(3)
Cu1A Cu -0.23689(6) 0.36427(8) 0.14251(4)
N1A N 0.1993(3) 0.5164(4) 0.1110(2)
C1A C 0.0457(4) 0.4275(6) 0.1122(2)
C2A C 0.1528(4) 0.3840(6) 0.0928(2)
H1A H 0.1168 0.3265 0.0870
N2A N -0.1185(4) 0.3927(6) 0.1262(2)
C3A C 0.3854(5) 0.3190(7) 0.0488(2)
C4A C 0.2393(4) 0.4273(6) 0.0897(2)
C5A C 0.1295(4) 0.4409(6) 0.1059(2)
C6A C 0.3953(4) 0.3892(6) 0.0272(2)
H2A H 0.4345 0.4123 0.0026
C7A C 0.3282(5) 0.2861(7) 0.0843(3)
H3A H 0.3203 0.2377 0.1001
C8A C 0.2826(5) 0.3224(7) 0.0972(3)
H4A H 0.2428 0.2981 0.1215
C9A C -0.0214(4) 0.3474(6) 0.1085(3)
H5A H -0.0127 0.3026 0.1007
C10A C -0.0541(4) 0.4706(6) 0.1290(3)
H6A H -0.0647 0.5146 0.1355
C11A C -0.1012(5) 0.3329(7) 0.1163(3)
H7A H -0.1460 0.2772 0.1145
C12A C 0.2936(4) 0.3945(6) 0.0754(2)
C13A C 0.0280(4) 0.4894(6) 0.1226(3)
H8A H 0.0720 0.5453 0.1255
N3A N 0.2672(3) 0.5075(4) 0.1015(2)
C14A C 0.3507(4) 0.4283(6) 0.0394(2)
C15A C 0.3668(5) 0.5051(7) 0.0120(3)
H9A H 0.4109 0.5549 0.0272
H10A H 0.3158 0.5084 0.0108
H11A H 0.3841 0.5014 -0.0197
C16A C 0.4348(6) 0.2782(8) 0.0345(3)
H12A H 0.4725 0.3098 0.0091
H13A H 0.3967 0.2213 0.0241
H14A H 0.4671 0.2769 0.0611
Cu3A Cu 0.37412(5) 0.59491(7) 0.11085(3)
I2B I -0.22001(6) 0.49206(4) 0.19253(3)
Cu1B Cu -0.36427(8) 0.39884(6) 0.14251(4)
N1B N -0.5164(4) 0.6829(3) 0.1110(2)
C1B C -0.4275(6) 0.6182(4) 0.1122(2)
C2B C -0.3840(6) 0.7688(4) 0.0928(2)
H1B H -0.3265 0.7903 0.0870
N2B N -0.3927(6) 0.4888(4) 0.1262(2)
C3B C -0.3190(7) 1.0664(5) 0.0488(2)
C4B C -0.4273(6) 0.8120(4) 0.0897(2)
C5B C -0.4409(6) 0.6886(4) 0.1059(2)
C6B C -0.3892(6) 1.0061(4) 0.0272(2)
H2B H -0.4123 1.0222 0.0026
C7B C -0.2861(7) 1.0421(5) 0.0843(3)
H3B H -0.2377 1.0826 0.1001
C8B C -0.3224(7) 0.9602(5) 0.0972(3)
H4B H -0.2981 0.9447 0.1215
C9B C -0.3474(6) 0.6312(5) 0.1085(3)
H5B H -0.3026 0.6847 0.1007
C10B C -0.4706(6) 0.4753(4) 0.1290(3)
H6B H -0.5146 0.4207 0.1355
C11B C -0.3329(7) 0.5659(5) 0.1163(3)
H7B H -0.2772 0.5768 0.1145
C12B C -0.3945(6) 0.8991(4) 0.0754(2)
C13B C -0.4894(6) 0.5386(4) 0.1226(3)
H8B H -0.5453 0.5267 0.1255
N3B N -0.5075(4) 0.7597(3) 0.1015(2)
C14B C -0.4283(6) 0.9224(4) 0.0394(2)
C15B C -0.5051(7) 0.8617(5) 0.0120(3)
H9B H -0.5549 0.8560 0.0272
H10B H -0.5084 0.8074 0.0108
H11B H -0.5014 0.8827 -0.0197
C16B C -0.2782(8) 1.1566(5) 0.0345(3)
H12B H -0.3098 1.1627 0.0091
H13B H -0.2213 1.1754 0.0241
H14B H -0.2769 1.1902 0.0611
Cu3B Cu -0.59491(7) 0.77921(5) 0.11085(3)
I1_2 I -0.3333 0.3333 0.06825(3)
I2_2 I -0.49206(4) 0.28793(4) 0.19253(3)
I2A_2 I 0.71207(4) 1.22001(6) 0.19253(3)
I2B_2 I 0.77999(6) 1.49206(4) 0.19253(3)
Cu1_2 Cu -0.39884(6) 0.23689(6) 0.14251(4)
Cu1A_2 Cu 0.76311(6) 1.36427(8) 0.14251(4)
Cu1B_2 Cu 0.63573(8) 1.39884(6) 0.14251(4)
Cu2_2 Cu -0.3333 0.3333 0.21709(9)
N1_2 N -0.6829(3) 0.8007(3) 0.1110(2)
N1B_2 N 0.4836(4) 0.6829(3) 0.1110(2)
N3_2 N -0.7597(3) 0.7328(3) 0.1015(2)
N3B_2 N 0.4925(4) 0.7597(3) 0.1015(2)
Cu3A_2 Cu -0.62588(5) 0.59491(7) 0.11085(3)
Cu3B_2 Cu 0.40509(7) 0.77921(5) 0.11085(3)
loop_
_geom_bond_atom_site_label_1
_geom_bond_atom_site_label_2
_geom_bond_site_symmetry_1
_geom_bond_site_symmetry_2
I1 Cu1 1_555 1_555
I2 Cu1 1_555 1_555
Cu1 N2 1_555 1_555
Cu2 I2 1_555 1_555
N1 C5 1_555 1_555
C1 C5 1_555 1_555
C2 H1 1_555 1_555
N2 C10 1_555 1_555
C3 C6 1_555 1_555
C4 C2 1_555 1_555
C5 C2 1_555 1_555
C6 H2 1_555 1_555
C7 C3 1_555 1_555
H3 C7 1_555 1_555
C8 C7 1_555 1_555
H4 C8 1_555 1_555
C9 C1 1_555 1_555
H5 C9 1_555 1_555
C10 H6 1_555 1_555
C11 N2 1_555 1_555
H7 C11 1_555 1_555
C12 C4 1_555 1_555
C13 C1 1_555 1_555
H8 C13 1_555 1_555
N3 N1 1_555 1_555
C14 C6 1_555 1_555
C15 C14 1_555 1_555
H9 C15 1_555 1_555
H10 C15 1_555 1_555
H11 C15 1_555 1_555
C16 C3 1_555 1_555
H12 C16 1_555 1_555
H13 C16 1_555 1_555
H14 C16 1_555 1_555
Cu3 N3 1_555 1_555
I2A Cu1A 1_555 1_555
Cu1A N2A 1_555 1_555
N1A Cu3 1_555 1_555
C1A C5A 1_555 1_555
C2A H1A 1_555 1_555
N2A C10A 1_555 1_555
C3A C6A 1_555 1_555
C4A C2A 1_555 1_555
C5A N1A 1_555 1_555
C6A H2A 1_555 1_555
C7A C3A 1_555 1_555
H3A C7A 1_555 1_555
C8A C7A 1_555 1_555
H4A C8A 1_555 1_555
C9A C1A 1_555 1_555
H5A C9A 1_555 1_555
C10A H6A 1_555 1_555
C11A N2A 1_555 1_555
H7A C11A 1_555 1_555
C12A C4A 1_555 1_555
C13A C1A 1_555 1_555
H8A C13A 1_555 1_555
N3A Cu3 1_555 1_555
C14A C6A 1_555 1_555
C15A C14A 1_555 1_555
H9A C15A 1_555 1_555
H10A C15A 1_555 1_555
H11A C15A 1_555 1_555
C16A C3A 1_555 1_555
H12A C16A 1_555 1_555
H13A C16A 1_555 1_555
H14A C16A 1_555 1_555
Cu3A N3A 1_555 1_555
I2B Cu1A 1_555 1_555
Cu1B I2B 1_555 1_555
N1B C5B 1_555 1_555
C1B C5B 1_555 1_555
C2B H1B 1_555 1_555
N2B Cu1B 1_555 1_555
C3B C6B 1_555 1_555
C4B C2B 1_555 1_555
C5B C2B 1_555 1_555
C6B H2B 1_555 1_555
C7B C3B 1_555 1_555
H3B C7B 1_555 1_555
C8B C7B 1_555 1_555
H4B C8B 1_555 1_555
C9B C1B 1_555 1_555
H5B C9B 1_555 1_555
C10B N2B 1_555 1_555
H6B C10B 1_555 1_555
C11B N2B 1_555 1_555
H7B C11B 1_555 1_555
C12B C4B 1_555 1_555
C13B C1B 1_555 1_555
H8B C13B 1_555 1_555
N3B N1B 1_555 1_555
C14B C6B 1_555 1_555
C15B C14B 1_555 1_555
H9B C15B 1_555 1_555
H10B C15B 1_555 1_555
H11B C15B 1_555 1_555
C16B C3B 1_555 1_555
H12B C16B 1_555 1_555
H13B C16B 1_555 1_555
H14B C16B 1_555 1_555
Cu3B N3B 1_555 1_555
I1_2 Cu1A 1_555 1_555
I2_2 Cu1B 1_555 1_555
I2A_2 Cu1 1_555 1_555
I2B_2 Cu2 1_555 1_555
Cu1_2 I2A 1_555 1_555
Cu1A_2 I1 1_555 1_555
Cu1B_2 I1 1_555 1_555
Cu2_2 I2A 1_555 1_555
N1_2 Cu3B 1_555 1_555
N1B_2 Cu3A 1_555 1_555
N3_2 Cu3B 1_555 1_555
N3B_2 Cu3A 1_555 1_555
Cu3A_2 N1B 1_555 1_555
Cu3B_2 N1 1_555 1_555
I2 Cu1B_2 1_555 1_555
Cu2 I2A_2 1_555 1_555
C4 N3 1_555 1_555
C8 C12 1_555 1_555
C9 C11 1_555 1_555
C10 C13 1_555 1_555
C12 C14 1_555 1_555
N3 Cu3B_2 1_555 1_555
N1A N3A 1_555 1_555
C2A C5A 1_555 1_555
C4A N3A 1_555 1_555
C8A C12A 1_555 1_555
C9A C11A 1_555 1_555
C10A C13A 1_555 1_555
C12A C14A 1_555 1_555
I2B Cu2_2 1_555 1_555
Cu1B I1_2 1_555 1_555
C4B N3B 1_555 1_555
C8B C12B 1_555 1_555
C9B C11B 1_555 1_555
C10B C13B 1_555 1_555
C12B C14B 1_555 1_555
N3B Cu3A_2 1_555 1_555
I1_2 Cu1_2 1_555 1_555
I2_2 Cu1_2 1_555 1_555
I2_2 Cu2_2 1_555 1_555
I2A_2 Cu1A_2 1_555 1_555
I2B_2 Cu1A_2 1_555 1_555
I2B_2 Cu1B_2 1_555 1_555
N1_2 N3_2 1_555 1_555
N1B_2 N3B_2 1_555 1_555
N3B_2 Cu3B_2 1_555 1_555

#END
