
#######################################################################
#
#                 Cambridge Crystallographic Data Centre
#                                CCDC 
#
#######################################################################
#
# If this CIF has been generated from an entry in the Cambridge 
# Structural Database, then it will include bibliographic, chemical, 
# crystal, experimental, refinement or atomic coordinate data resulting 
# from the CCDC's data processing and validation procedures.
#
#######################################################################

data_CIBJII
_symmetry_cell_setting           triclinic
_symmetry_space_group_name_H-M   'P -1'
_symmetry_Int_Tables_number      2
_space_group_name_Hall           '-P 1'
loop_
_symmetry_equiv_pos_site_id
_symmetry_equiv_pos_as_xyz
1 x,y,z
2 -x,-y,-z
_cell_length_a                   13.4501(3)
_cell_length_b                   13.7366(2)
_cell_length_c                   13.8529(3)
_cell_angle_alpha                82.753(2)
_cell_angle_beta                 85.525(2)
_cell_angle_gamma                86.069(2)
_cell_volume                     2526.79
loop_
_atom_site_label
_atom_site_type_symbol
_atom_site_fract_x
_atom_site_fract_y
_atom_site_fract_z
Cu1 Cu 0.86824(4) -0.10183(4) 1.05680(4)
Cu2 Cu 0.90421(4) 0.05713(4) 0.86880(4)
Cu3 Cu 1.04239(4) -0.14645(4) 0.89916(4)
Cu4 Cu 0.73080(5) 0.76112(4) 0.73240(5)
Cu5 Cu 0.72018(5) 0.69221(4) 0.56588(4)
Cu6 Cu 0.68944(4) 0.57462(4) 0.72865(4)
Cu7 Cu 0.55418(4) 0.72151(4) 0.68586(5)
I1 I 0.59657(2) 0.67567(2) 0.87311(2)
I2 I 0.65200(3) 0.87702(2) 0.58028(2)
I3 I 0.87456(2) 0.63180(2) 0.68407(2)
I4 I 0.57257(2) 0.57184(2) 0.58352(2)
N1 N 0.7772(3) 0.0035(2) 1.0260(3)
N2 N 0.8018(3) 0.0853(2) 0.9628(3)
N3 N 0.7018(3) 0.4349(2) 0.7971(3)
N4 N 0.9907(3) 0.0145(2) 0.7685(3)
N5 N 1.0675(3) -0.0550(2) 0.7898(3)
N6 N 1.4125(3) -0.2191(2) 0.6917(3)
N7 N 1.0072(3) -0.2431(2) 1.0005(3)
N8 N 0.9478(3) -0.2179(2) 1.0801(3)
N9 N 0.7906(3) -0.3048(3) 1.4305(3)
N10 N 0.7666(3) 0.8690(3) 0.8103(3)
H1 H 0.7876 0.8408 0.8696
H2 H 0.8185 0.9021 0.7772
C1 C 0.7902(4) 0.2787(3) 0.8328(4)
H3 H 0.8475 0.2369 0.8195
C2 C 0.7799(4) 0.3717(3) 0.7820(4)
H4 H 0.8309 0.3918 0.7337
C3 C 0.6298(4) 0.4036(3) 0.8645(4)
H5 H 0.5729 0.4466 0.8759
C4 C 0.6350(4) 0.3119(3) 0.9176(4)
H6 H 0.5822 0.2932 0.9645
C5 C 0.7165(3) 0.2466(3) 0.9034(3)
C6 C 0.7200(3) 0.1498(3) 0.9618(3)
C7 C 0.6440(4) 0.1094(3) 1.0246(3)
H7 H 0.5793 0.1387 1.0384
C8 C 0.6818(4) 0.0182(3) 1.0627(3)
C9 C 0.6318(3) -0.0590(3) 1.1296(4)
C10 C 0.5824(4) -0.0385(3) 1.2168(4)
H8 H 0.5795 0.0266 1.2336
C11 C 0.5369(4) -0.1113(3) 1.2799(4)
H9 H 0.5041 -0.0958 1.3398
C12 C 0.5388(4) -0.2065(3) 1.2562(4)
C13 C 0.5856(4) -0.2269(3) 1.1679(4)
H10 H 0.5855 -0.2914 1.1500
C14 C 0.6326(4) -0.1546(3) 1.1052(4)
H11 H 0.6654 -0.1702 1.0453
C15 C 0.4924(4) -0.2870(3) 1.3267(4)
H12 H 0.4357 -0.3107 1.2979
H13 H 0.4691 -0.2609 1.3877
H14 H 0.5423 -0.3414 1.3401
C16 C 1.2576(4) -0.1820(3) 0.7805(4)
H15 H 1.2166 -0.1931 0.8394
C17 C 1.3498(4) -0.2308(3) 0.7720(4)
H16 H 1.3703 -0.2754 0.8260
C18 C 1.3785(4) -0.1587(3) 0.6161(4)
H17 H 1.4201 -0.1506 0.5573
C19 C 1.2874(4) -0.1082(3) 0.6187(4)
H18 H 1.2670 -0.0671 0.5624
C20 C 1.2241(3) -0.1169(3) 0.7040(4)
C21 C 1.1301(3) -0.0560(3) 0.7075(3)
C22 C 1.0923(3) 0.0104(3) 0.6335(3)
H19 H 1.1205 0.0239 0.5685
C23 C 1.0052(3) 0.0528(3) 0.6736(3)
C24 C 0.9339(3) 0.1273(3) 0.6269(3)
C25 C 0.9681(4) 0.2024(3) 0.5582(4)
H20 H 1.0376 0.2056 0.5407
C26 C 0.9009(4) 0.2725(3) 0.5154(4)
H21 H 0.9256 0.3243 0.4697
C27 C 0.7660(4) 0.1929(4) 0.6036(4)
H22 H 0.6963 0.1884 0.6193
C28 C 0.8322(4) 0.1223(3) 0.6481(4)
H23 H 0.8074 0.0703 0.6934
C29 C 0.7281(4) 0.3467(4) 0.4896(4)
H24 H 0.7583 0.4104 0.4808
H25 H 0.6659 0.3508 0.5312
H26 H 0.7136 0.3292 0.4260
C30 C 0.8236(4) -0.2231(3) 1.2694(3)
H27 H 0.8107 -0.1672 1.2234
C31 C 0.7764(4) -0.2290(3) 1.3614(4)
H28 H 0.7310 -0.1762 1.3767
C32 C 0.8554(4) -0.3782(3) 1.4065(4)
H29 H 0.8669 -0.4331 1.4541
C33 C 0.9061(4) -0.3778(3) 1.3159(4)
H30 H 0.9517 -0.4311 1.3027
C34 C 0.8904(3) -0.2990(3) 1.2439(3)
C35 C 0.9437(3) -0.2991(3) 1.1475(3)
C36 C 0.9997(3) -0.3757(3) 1.1110(3)
H31 H 1.0101 -0.4405 1.1430
C37 C 1.0379(3) -0.3397(3) 1.0186(3)
C38 C 1.1042(3) -0.3876(3) 0.9475(4)
C39 C 1.1788(4) -0.4582(3) 0.9799(4)
H32 H 1.1838 -0.4774 1.0478
C40 C 1.2447(4) -0.4996(3) 0.9132(4)
H33 H 1.2953 -0.5463 0.9365
C41 C 1.2399(4) -0.4756(3) 0.8135(4)
C42 C 1.1641(4) -0.4087(3) 0.7824(4)
H34 H 1.1578 -0.3920 0.7144
C43 C 1.0971(4) -0.3655(3) 0.8476(3)
H35 H 1.0456 -0.3201 0.8236
C44 C 1.3159(4) -0.5197(3) 0.7437(4)
H36 H 1.3832 -0.5104 0.7621
H37 H 1.3075 -0.4874 0.6774
H38 H 1.3066 -0.5901 0.7462
C45 C 0.6793(4) 0.9408(3) 0.8269(4)
H39 H 0.6584 0.9730 0.7639
H40 H 0.6988 0.9905 0.8655
H41 H 0.6237 0.9058 0.8620
C46 C 0.7992(4) 0.2695(3) 0.5370(4)
Cu5_2 Cu 0.72018(5) -0.30779(4) 1.56588(4)
Cu7_2 Cu 1.55418(4) -0.27849(4) 0.68586(5)
N6_2 N 0.4125(3) 0.7809(2) 0.6917(3)
N9_2 N 0.7906(3) 0.6952(3) 0.4305(3)
loop_
_geom_bond_atom_site_label_1
_geom_bond_atom_site_label_2
_geom_bond_site_symmetry_1
_geom_bond_site_symmetry_2
Cu1 N1 1_555 1_555
Cu2 N1 1_555 1_555
Cu3 N5 1_555 1_555
Cu4 I1 1_555 1_555
Cu5 I2 1_555 1_555
Cu6 I1 1_555 1_555
Cu7 I1 1_555 1_555
I2 Cu4 1_555 1_555
I3 Cu4 1_555 1_555
I4 Cu5 1_555 1_555
N1 N2 1_555 1_555
N2 Cu2 1_555 1_555
N3 Cu6 1_555 1_555
N4 Cu2 1_555 1_555
N5 N4 1_555 1_555
N6 C17 1_555 1_555
N7 Cu1 1_555 1_555
N8 Cu1 1_555 1_555
N9 C31 1_555 1_555
N10 Cu4 1_555 1_555
H1 N10 1_555 1_555
H2 N10 1_555 1_555
C1 H3 1_555 1_555
C2 N3 1_555 1_555
H4 C2 1_555 1_555
C3 N3 1_555 1_555
H5 C3 1_555 1_555
C4 C3 1_555 1_555
H6 C4 1_555 1_555
C5 C1 1_555 1_555
C6 N2 1_555 1_555
C7 C6 1_555 1_555
H7 C7 1_555 1_555
C8 N1 1_555 1_555
C9 C8 1_555 1_555
C10 C9 1_555 1_555
H8 C10 1_555 1_555
C11 C10 1_555 1_555
H9 C11 1_555 1_555
C12 C11 1_555 1_555
C13 C12 1_555 1_555
H10 C13 1_555 1_555
C14 C9 1_555 1_555
H11 C14 1_555 1_555
C15 C12 1_555 1_555
H12 C15 1_555 1_555
H13 C15 1_555 1_555
H14 C15 1_555 1_555
C16 H15 1_555 1_555
C17 C16 1_555 1_555
H16 C17 1_555 1_555
C18 N6 1_555 1_555
H17 C18 1_555 1_555
C19 C18 1_555 1_555
H18 C19 1_555 1_555
C20 C16 1_555 1_555
C21 N5 1_555 1_555
C22 C21 1_555 1_555
H19 C22 1_555 1_555
C23 N4 1_555 1_555
C24 C23 1_555 1_555
C25 C24 1_555 1_555
H20 C25 1_555 1_555
C26 C25 1_555 1_555
H21 C26 1_555 1_555
C27 H22 1_555 1_555
C28 C24 1_555 1_555
H23 C28 1_555 1_555
C29 H24 1_555 1_555
H25 C29 1_555 1_555
H26 C29 1_555 1_555
C30 H27 1_555 1_555
C31 C30 1_555 1_555
H28 C31 1_555 1_555
C32 N9 1_555 1_555
H29 C32 1_555 1_555
C33 C32 1_555 1_555
H30 C33 1_555 1_555
C34 C30 1_555 1_555
C35 N8 1_555 1_555
C36 C35 1_555 1_555
H31 C36 1_555 1_555
C37 N7 1_555 1_555
C38 C37 1_555 1_555
C39 C38 1_555 1_555
H32 C39 1_555 1_555
C40 C39 1_555 1_555
H33 C40 1_555 1_555
C41 C40 1_555 1_555
C42 C41 1_555 1_555
H34 C42 1_555 1_555
C43 C38 1_555 1_555
H35 C43 1_555 1_555
C44 C41 1_555 1_555
H36 C44 1_555 1_555
H37 C44 1_555 1_555
H38 C44 1_555 1_555
C45 N10 1_555 1_555
H39 C45 1_555 1_555
H40 C45 1_555 1_555
H41 C45 1_555 1_555
C46 C26 1_555 1_555
Cu5_2 N9 1_555 1_555
Cu7_2 N6 1_555 1_555
N6_2 Cu7 1_555 1_555
N9_2 Cu5 1_555 1_555
Cu3 N7 1_555 1_555
Cu5 I3 1_555 1_555
Cu6 I3 1_555 1_555
Cu6 I4 1_555 1_555
Cu7 I2 1_555 1_555
Cu7 I4 1_555 1_555
N7 N8 1_555 1_555
C1 C2 1_555 1_555
C4 C5 1_555 1_555
C5 C6 1_555 1_555
C7 C8 1_555 1_555
C13 C14 1_555 1_555
C19 C20 1_555 1_555
C20 C21 1_555 1_555
C22 C23 1_555 1_555
C27 C28 1_555 1_555
C27 C46 1_555 1_555
C29 C46 1_555 1_555
C33 C34 1_555 1_555
C34 C35 1_555 1_555
C36 C37 1_555 1_555
C42 C43 1_555 1_555

#END
