
#######################################################################
#
#                 Cambridge Crystallographic Data Centre
#                                CCDC 
#
#######################################################################
#
# If this CIF has been generated from an entry in the Cambridge 
# Structural Database, then it will include bibliographic, chemical, 
# crystal, experimental, refinement or atomic coordinate data resulting 
# from the CCDC's data processing and validation procedures.
#
#######################################################################

data_CIBLEG
_symmetry_cell_setting           triclinic
_symmetry_space_group_name_H-M   'P -1'
_symmetry_Int_Tables_number      2
_space_group_name_Hall           '-P 1'
loop_
_symmetry_equiv_pos_site_id
_symmetry_equiv_pos_as_xyz
1 x,y,z
2 -x,-y,-z
_cell_length_a                   7.8873(16)
_cell_length_b                   8.7132(17)
_cell_length_c                   11.451(2)
_cell_angle_alpha                83.47(3)
_cell_angle_beta                 80.19(3)
_cell_angle_gamma                73.05(3)
_cell_volume                     740.047
loop_
_atom_site_label
_atom_site_type_symbol
_atom_site_fract_x
_atom_site_fract_y
_atom_site_fract_z
O1 O 0.6887(10) 0.1692(8) 0.4459(6)
O2 O 0.9017(10) 0.0340(8) 0.2199(5)
N1 N 0.8735(10) 0.5262(9) 0.6844(6)
Zn1 Zn 1.03704(15) 0.28181(12) 0.31539(9)
Zn2 Zn 1.09060(17) 0.03459(12) 0.60181(9)
O3 O 1.0594(9) 0.2141(8) 0.1558(5)
O4 O 1.1047(10) 0.0836(8) 0.4178(6)
O5 O 0.6193(10) 0.1028(8) 0.7381(6)
O6 O 0.7876(9) 0.3832(8) 0.3766(6)
C1 C 0.7592(13) 0.3156(10) 0.7201(8)
N2 N 0.9239(11) 0.2630(8) 0.6482(6)
O7 O 1.3406(11) 0.1214(9) 0.5985(8)
N3 N 0.4723(11) 0.3342(10) 0.8308(7)
N4 N 0.5779(10) 0.5663(9) 0.8013(7)
C2 C 0.5090(14) 0.4251(12) 0.4961(9)
H1 H 0.4150 0.3829 0.5301
C3 C 0.7321(13) 0.4754(11) 0.7387(8)
C4 C 0.6192(14) 0.2401(12) 0.7603(8)
C5 C 0.9829(12) 0.1086(11) 0.1407(8)
O8 O 0.3152(10) 0.5657(10) 0.9209(7)
C6 C 0.9844(13) 0.3914(10) 0.6318(8)
H2 H 1.0950 0.3906 0.5875
C7 C 0.4452(15) 0.4949(13) 0.8557(10)
C8 C 0.9997(14) 0.0696(11) 0.0153(8)
H3 H 1.0105 0.1493 -0.0445
C9 C 0.6749(14) 0.3160(11) 0.4347(9)
C10 C 0.5486(14) 0.7379(12) 0.8133(11)
H4 H 0.6398 0.7523 0.8533
H5 H 0.4332 0.7807 0.8585
H6 H 0.5537 0.7933 0.7359
C11 C 0.3227(16) 0.2655(16) 0.8781(11)
H7 H 0.2566 0.2643 0.8153
H8 H 0.2450 0.3296 0.9393
H9 H 0.3688 0.1576 0.9106
H10 H 1.189(12) 0.033(13) 0.369(9)
H11 H 1.390(10) 0.104(19) 0.662(4)
H12 H 1.424(8) 0.099(14) 0.540(5)
O1A O 0.3113(10) 0.8308(8) 0.5541(6)
O6A O 0.2124(9) 0.6168(8) 0.6234(6)
C2A C 0.4910(14) 0.5749(12) 0.5039(9)
H1A H 0.5850 0.6171 0.4699
C9A C 0.3251(14) 0.6840(11) 0.5653(9)
O2A O 1.0983(10) -0.0340(8) -0.2199(5)
O3A O 0.9406(9) -0.2141(8) -0.1558(5)
C5A C 1.0171(12) -0.1086(11) -0.1407(8)
C8A C 1.0003(14) -0.0696(11) -0.0153(8)
H3A H 0.9895 -0.1493 0.0445
N1A N 0.1265(10) 0.4738(9) 0.3156(6)
Zn1A Zn -0.03704(15) 0.71819(12) 0.68461(9)
Zn2A Zn -0.09060(17) 0.96541(12) 0.39819(9)
O4A O -0.1047(10) 0.9164(8) 0.5822(6)
O5A O 0.3807(10) 0.8972(8) 0.2619(6)
C1A C 0.2408(13) 0.6844(10) 0.2799(8)
N2A N 0.0761(11) 0.7370(8) 0.3518(6)
O7A O -0.3406(11) 0.8786(9) 0.4015(8)
N3A N 0.5277(11) 0.6658(10) 0.1692(7)
N4A N 0.4221(10) 0.4337(9) 0.1987(7)
C3A C 0.2679(13) 0.5246(11) 0.2613(8)
C4A C 0.3808(14) 0.7599(12) 0.2397(8)
O8A O 0.6848(10) 0.4343(10) 0.0791(7)
C6A C 0.0156(13) 0.6086(10) 0.3682(8)
H2A H -0.0950 0.6094 0.4125
C7A C 0.5548(15) 0.5051(13) 0.1443(10)
C10A C 0.4514(14) 0.2621(12) 0.1867(11)
H4A H 0.3602 0.2477 0.1467
H5A H 0.5668 0.2193 0.1415
H6A H 0.4463 0.2067 0.2641
C11A C 0.6773(16) 0.7345(16) 0.1219(11)
H7A H 0.7434 0.7357 0.1847
H8A H 0.7550 0.6704 0.0607
H9A H 0.6312 0.8424 0.0894
H10A H -0.189(12) 0.967(13) 0.631(9)
H11A H -0.390(10) 0.896(19) 0.338(4)
H12A H -0.424(8) 0.901(14) 0.460(5)
O1_2 O -0.3113(10) 1.1692(8) 0.4459(6)
O1A_2 O 1.3113(10) -0.1692(8) 0.5541(6)
O2_2 O -0.0983(10) 1.0340(8) 0.2199(5)
O2A_2 O 1.0983(10) -0.0340(8) 0.7801(5)
N1_2 N -0.1265(10) 0.5262(9) 0.6844(6)
N1A_2 N 1.1265(10) 0.4738(9) 0.3156(6)
Zn1_2 Zn 0.03704(15) 0.28181(12) 0.31539(9)
Zn1A_2 Zn 0.96296(15) -0.28181(12) -0.31539(9)
Zn1A_3 Zn 0.96296(15) 0.71819(12) 0.68461(9)
Zn2_2 Zn 0.09060(17) 1.03459(12) 0.60181(9)
Zn2_3 Zn 1.09060(17) 0.03459(12) -0.39819(9)
Zn2A_2 Zn 0.90940(17) -0.03459(12) 0.39819(9)
O3A_2 O -0.0594(9) 0.7859(8) 0.8442(5)
O4_2 O 0.1047(10) 1.0836(8) 0.4178(6)
O4A_2 O 0.8953(10) -0.0836(8) 0.5822(6)
loop_
_geom_bond_atom_site_label_1
_geom_bond_atom_site_label_2
_geom_bond_site_symmetry_1
_geom_bond_site_symmetry_2
O1 C9 1_555 1_555
O2 C5 1_555 1_555
N1 C3 1_555 1_555
Zn1 O3 1_555 1_555
Zn2 O4 1_555 1_555
O3 C5 1_555 1_555
O4 Zn1 1_555 1_555
O5 C4 1_555 1_555
O6 Zn1 1_555 1_555
C1 N2 1_555 1_555
N2 Zn2 1_555 1_555
O7 Zn2 1_555 1_555
N3 C4 1_555 1_555
N4 C3 1_555 1_555
C2 H1 1_555 1_555
C3 C1 1_555 1_555
C4 C1 1_555 1_555
C5 C8 1_555 1_555
O8 C7 1_555 1_555
C6 N1 1_555 1_555
H2 C6 1_555 1_555
C7 N3 1_555 1_555
C8 H3 1_555 1_555
C9 O6 1_555 1_555
C10 N4 1_555 1_555
H4 C10 1_555 1_555
H5 C10 1_555 1_555
H6 C10 1_555 1_555
C11 N3 1_555 1_555
H7 C11 1_555 1_555
H8 C11 1_555 1_555
H9 C11 1_555 1_555
H10 O4 1_555 1_555
H11 O7 1_555 1_555
H12 O7 1_555 1_555
O1A C9A 1_555 1_555
O6A C9A 1_555 1_555
C2A C2 1_555 1_555
H1A C2A 1_555 1_555
C9A C2A 1_555 1_555
O2A C5A 1_555 1_555
O3A C5A 1_555 1_555
C5A C8A 1_555 1_555
C8A C8 1_555 1_555
H3A C8A 1_555 1_555
N1A C3A 1_555 1_555
Zn1A O6A 1_555 1_555
Zn2A O4A 1_555 1_555
O4A Zn1A 1_555 1_555
O5A C4A 1_555 1_555
C1A N2A 1_555 1_555
N2A Zn2A 1_555 1_555
O7A Zn2A 1_555 1_555
N3A C4A 1_555 1_555
N4A C3A 1_555 1_555
C3A C1A 1_555 1_555
C4A C1A 1_555 1_555
O8A C7A 1_555 1_555
C6A N1A 1_555 1_555
H2A C6A 1_555 1_555
C7A N3A 1_555 1_555
C10A N4A 1_555 1_555
H4A C10A 1_555 1_555
H5A C10A 1_555 1_555
H6A C10A 1_555 1_555
C11A N3A 1_555 1_555
H7A C11A 1_555 1_555
H8A C11A 1_555 1_555
H9A C11A 1_555 1_555
H10A O4A 1_555 1_555
H11A O7A 1_555 1_555
H12A O7A 1_555 1_555
O1_2 Zn2A 1_555 1_555
O1A_2 Zn2 1_555 1_555
O2_2 Zn2A 1_555 1_555
O2A_2 Zn2 1_555 1_555
N1_2 Zn1A 1_555 1_555
N1A_2 Zn1 1_555 1_555
Zn1_2 N1A 1_555 1_555
Zn1A_2 O3A 1_555 1_555
Zn1A_3 N1 1_555 1_555
Zn2_2 O1A 1_555 1_555
Zn2_3 O2A 1_555 1_555
Zn2A_2 O1 1_555 1_555
O3A_2 Zn1A 1_555 1_555
O4_2 Zn2A 1_555 1_555
O4A_2 Zn2 1_555 1_555
O2 Zn2A_2 1_555 1_555
O4 Zn2A_2 1_555 1_555
N2 C6 1_555 1_555
N4 C7 1_555 1_555
C2 C9 1_555 1_555
O4A Zn2_2 1_555 1_555
N2A C6A 1_555 1_555
N4A C7A 1_555 1_555
Zn2_2 O4_2 1_555 1_555
Zn2A_2 O4A_2 1_555 1_555

#END
