
#######################################################################
#
#                 Cambridge Crystallographic Data Centre
#                                CCDC 
#
#######################################################################
#
# If this CIF has been generated from an entry in the Cambridge 
# Structural Database, then it will include bibliographic, chemical, 
# crystal, experimental, refinement or atomic coordinate data resulting 
# from the CCDC's data processing and validation procedures.
#
#######################################################################

data_CIBNIM
_symmetry_cell_setting           triclinic
_symmetry_space_group_name_H-M   'P -1'
_symmetry_Int_Tables_number      2
_space_group_name_Hall           '-P 1'
loop_
_symmetry_equiv_pos_site_id
_symmetry_equiv_pos_as_xyz
1 x,y,z
2 -x,-y,-z
_cell_length_a                   10.2253(5)
_cell_length_b                   12.1473(6)
_cell_length_c                   13.0025(6)
_cell_angle_alpha                74.690(4)
_cell_angle_beta                 75.995(4)
_cell_angle_gamma                71.226(4)
_cell_volume                     1452.88
loop_
_atom_site_label
_atom_site_type_symbol
_atom_site_fract_x
_atom_site_fract_y
_atom_site_fract_z
Tb1 Tb 0.69265(2) 0.22181(2) 0.54838(2)
Tb2 Tb 1.29545(2) 0.27929(2) 0.39800(2)
O1 O 0.6318(4) 0.2505(3) 0.7320(3)
O2 O 0.5397(4) 0.4071(3) 0.6130(3)
O3 O 0.4946(4) 0.6669(3) 0.6690(3)
O4 O 0.3119(4) 0.6434(3) 0.6209(3)
O5 O -0.0814(4) 1.0157(3) 0.8185(4)
O6 O 0.8487(3) 0.3263(3) 0.5551(3)
O7 O 1.0631(3) 0.3524(3) 0.4975(3)
O8 O 0.9256(4) 0.1432(3) 0.4586(3)
O9 O 1.1414(3) 0.1659(3) 0.4016(3)
O10 O 1.2732(4) 0.1570(3) 0.5769(3)
O11 O 1.4662(4) 0.1979(3) 0.5776(3)
O12 O 1.5376(3) -0.0782(3) 0.6186(3)
O13 O 1.6205(4) -0.1929(3) 0.7635(3)
O14 O 0.8199(4) 0.5659(3) 0.7229(3)
O15 O 0.7032(4) 0.0859(3) 0.4411(3)
H1 H 0.6320 0.0619 0.4622
H2 H 0.7558 0.0152 0.4459
O16 O 0.7648(4) 0.0428(3) 0.6678(3)
H3 H 0.8090 -0.0171 0.6391
H4 H 0.8062 0.0388 0.7148
O17 O 1.2871(4) 0.4326(3) 0.4845(3)
H5 H 1.2345 0.5029 0.4703
H6 H 1.3631 0.4456 0.4656
C1 C 0.5531(5) 0.3543(5) 0.7093(5)
C2 C 0.3977(5) 0.6185(5) 0.6823(5)
C3 C 0.3820(5) 0.5302(5) 0.7878(5)
C4 C 0.4656(6) 0.4119(5) 0.8019(5)
C5 C 0.4576(6) 0.3393(6) 0.9040(5)
H7 H 0.5153 0.2619 0.9131
C6 C 0.3650(7) 0.3791(6) 0.9942(6)
H8 H 0.3609 0.3294 1.0622
C7 C 0.2797(7) 0.4953(6) 0.9784(6)
H9 H 0.2160 0.5241 1.0361
C8 C 0.2899(6) 0.5678(5) 0.8764(5)
C9 C 0.1370(7) 0.8901(6) 0.8584(6)
H10 H 0.1644 0.9528 0.8665
C10 C 0.2278(7) 0.7788(5) 0.8703(6)
H11 H 0.3166 0.7681 0.8842
C11 C 0.0626(6) 0.7020(6) 0.8420(5)
H12 H 0.0375 0.6366 0.8372
C12 C -0.0305(6) 0.8092(5) 0.8284(5)
H13 H -0.1185 0.8162 0.8150
C13 C 0.0023(6) 0.9123(5) 0.8338(5)
C14 C 0.9749(5) 0.2995(5) 0.5074(4)
C15 C 1.0164(5) 0.1932(4) 0.4516(4)
C16 C 1.3673(5) 0.1522(4) 0.6235(4)
C17 C 1.5415(5) -0.0969(4) 0.7180(4)
C18 C 1.3570(5) 0.0985(4) 0.7432(4)
C19 C 1.4465(5) -0.0104(4) 0.7867(4)
C20 C 1.4350(6) -0.0478(5) 0.8983(4)
H14 H 1.4960 -0.1187 0.9266
C21 C 1.3349(6) 0.0176(5) 0.9689(5)
H15 H 1.3296 -0.0078 1.0434
C22 C 1.2430(6) 0.1218(5) 0.9250(5)
H16 H 1.1742 0.1664 0.9709
C23 C 1.2521(5) 0.1600(4) 0.8155(4)
C24 C 0.8995(5) 0.3574(5) 0.7788(5)
H17 H 0.8089 0.3498 0.7935
C25 C 1.0093(5) 0.2588(5) 0.7970(5)
H18 H 0.9916 0.1851 0.8238
C26 C 1.1691(5) 0.3728(5) 0.7339(5)
H19 H 1.2611 0.3773 0.7181
C27 C 1.0640(6) 0.4736(5) 0.7133(5)
H20 H 1.0859 0.5452 0.6825
C28 C 0.9224(6) 0.4721(5) 0.7375(5)
N1 N 0.1930(5) 0.6854(4) 0.8628(4)
N2 N 1.1434(4) 0.2653(3) 0.7770(4)
Tb1_2 Tb 1.69265(2) 0.22181(2) 0.54838(2)
Tb1A Tb 0.30735(2) 0.77819(2) 0.45162(2)
Tb2A Tb 0.70455(2) 0.72071(2) 0.60200(2)
Tb2A_2 Tb 1.70455(2) -0.27929(2) 0.60200(2)
O3A O 1.5054(4) 0.3331(3) 0.3310(3)
O4A O 0.6881(4) 0.3566(3) 0.3791(3)
O11_2 O 0.4662(4) 0.1979(3) 0.5776(3)
O12A O 1.4624(3) 0.0782(3) 0.3814(3)
O13A O 1.3795(4) 0.1929(3) 0.2365(3)
O14A O 1.1801(4) 0.4341(3) 0.2771(3)
loop_
_geom_bond_atom_site_label_1
_geom_bond_atom_site_label_2
_geom_bond_site_symmetry_1
_geom_bond_site_symmetry_2
Tb1 O1 1_555 1_555
Tb2 O7 1_555 1_555
O1 C1 1_555 1_555
O2 Tb1 1_555 1_555
O3 C2 1_555 1_555
O4 C2 1_555 1_555
O5 C13 1_555 1_555
O6 Tb1 1_555 1_555
O7 C14 1_555 1_555
O8 Tb1 1_555 1_555
O9 Tb2 1_555 1_555
O10 Tb2 1_555 1_555
O11 C16 1_555 1_555
O12 C17 1_555 1_555
O13 C17 1_555 1_555
O14 C28 1_555 1_555
O15 Tb1 1_555 1_555
H1 O15 1_555 1_555
H2 O15 1_555 1_555
O16 Tb1 1_555 1_555
H3 O16 1_555 1_555
H4 O16 1_555 1_555
O17 Tb2 1_555 1_555
H5 O17 1_555 1_555
H6 O17 1_555 1_555
C1 O2 1_555 1_555
C2 C3 1_555 1_555
C3 C4 1_555 1_555
C4 C1 1_555 1_555
C5 C4 1_555 1_555
H7 C5 1_555 1_555
C6 C5 1_555 1_555
H8 C6 1_555 1_555
C7 C6 1_555 1_555
H9 C7 1_555 1_555
C8 C3 1_555 1_555
C9 H10 1_555 1_555
C10 C9 1_555 1_555
H11 C10 1_555 1_555
C11 H12 1_555 1_555
C12 C11 1_555 1_555
H13 C12 1_555 1_555
C13 C9 1_555 1_555
C14 O6 1_555 1_555
C15 O8 1_555 1_555
C16 O10 1_555 1_555
C17 C19 1_555 1_555
C18 C16 1_555 1_555
C19 C18 1_555 1_555
C20 C19 1_555 1_555
H14 C20 1_555 1_555
C21 C20 1_555 1_555
H15 C21 1_555 1_555
C22 C21 1_555 1_555
H16 C22 1_555 1_555
C23 C18 1_555 1_555
C24 H17 1_555 1_555
C25 C24 1_555 1_555
H18 C25 1_555 1_555
C26 H19 1_555 1_555
C27 C26 1_555 1_555
H20 C27 1_555 1_555
C28 C24 1_555 1_555
N1 C8 1_555 1_555
N2 C23 1_555 1_555
Tb1_2 O11 1_555 1_555
Tb1A O4 1_555 1_555
Tb2A O3 1_555 1_555
Tb2A_2 O12 1_555 1_555
O3A Tb2 1_555 1_555
O4A Tb1 1_555 1_555
O11_2 Tb1 1_555 1_555
O12A Tb2 1_555 1_555
O13A Tb2 1_555 1_555
O14A Tb2 1_555 1_555
O9 C15 1_555 1_555
O13 Tb2A_2 1_555 1_555
O14 Tb2A 1_555 1_555
C7 C8 1_555 1_555
C10 N1 1_555 1_555
C11 N1 1_555 1_555
C12 C13 1_555 1_555
C14 C15 1_555 1_555
C22 C23 1_555 1_555
C25 N2 1_555 1_555
C26 N2 1_555 1_555
C27 C28 1_555 1_555

#END
