
#######################################################################
#
#                 Cambridge Crystallographic Data Centre
#                                CCDC 
#
#######################################################################
#
# If this CIF has been generated from an entry in the Cambridge 
# Structural Database, then it will include bibliographic, chemical, 
# crystal, experimental, refinement or atomic coordinate data resulting 
# from the CCDC's data processing and validation procedures.
#
#######################################################################

data_CIBNUY
_symmetry_cell_setting           triclinic
_symmetry_space_group_name_H-M   'P -1'
_symmetry_Int_Tables_number      2
_space_group_name_Hall           '-P 1'
loop_
_symmetry_equiv_pos_site_id
_symmetry_equiv_pos_as_xyz
1 x,y,z
2 -x,-y,-z
_cell_length_a                   10.1851(9)
_cell_length_b                   12.2709(12)
_cell_length_c                   13.1055(17)
_cell_angle_alpha                73.633(10)
_cell_angle_beta                 75.226(9)
_cell_angle_gamma                70.826(8)
_cell_volume                     1460.33
loop_
_atom_site_label
_atom_site_type_symbol
_atom_site_fract_x
_atom_site_fract_y
_atom_site_fract_z
Eu1 Eu 0.19929(2) 0.719498(18) 0.599151(19)
Eu2 Eu -0.18853(2) 0.778344(19) 0.45427(2)
O1 O 0.0431(3) 0.8035(3) 0.4269(3)
O2 O 0.2382(3) 0.8480(3) 0.4191(3)
O3 O -0.0332(3) 1.0768(3) 0.3820(3)
O4 O -0.1085(3) 1.1969(3) 0.2360(3)
O5 O 0.6926(3) 0.4393(3) 0.2774(3)
O6 O 0.4395(3) 0.6468(3) 0.5033(3)
O7 O 0.6520(3) 0.6775(3) 0.4421(3)
O8 O 0.3563(3) 0.8298(3) 0.6017(3)
O9 O 0.5708(3) 0.8565(3) 0.5423(3)
O10 O -0.0173(3) 0.6671(3) 0.6570(3)
O11 O -0.2043(4) 0.6370(3) 0.6237(3)
O12 O 0.0336(3) 0.4059(3) 0.6129(3)
O13 O 0.1211(3) 0.2487(3) 0.7304(3)
O14 O -0.5844(4) 1.0137(3) 0.8170(3)
O15 O 0.2144(3) 0.5639(3) 0.5124(3)
H1 H 0.1353 0.5460 0.5300
H2 H 0.2805 0.5017 0.5325
O16 O -0.2608(3) 0.9606(2) 0.3320(3)
H3 H -0.3110 1.0183 0.3661
H4 H -0.3150 0.9543 0.2921
O17 O -0.2069(3) 0.9156(3) 0.5608(3)
H5 H -0.2821 0.9747 0.5531
H6 H -0.1334 0.9429 0.5404
C1 C 0.1399(5) 0.8512(4) 0.3761(4)
C2 C -0.0344(5) 1.0985(4) 0.2821(4)
C3 C 0.1490(4) 0.9034(4) 0.2569(4)
C4 C 0.0574(4) 1.0121(4) 0.2136(4)
C5 C 0.0660(5) 1.0467(4) 0.1027(4)
H7 H 0.0038 1.1171 0.0744
C6 C 0.1628(5) 0.9814(4) 0.0322(4)
H8 H 0.1647 1.0059 -0.0420
C7 C 0.2581(5) 0.8773(4) 0.0756(4)
H9 H 0.3270 0.8333 0.0298
C8 C 0.2506(4) 0.8402(4) 0.1841(4)
C9 C 0.4450(5) 0.5295(4) 0.2834(4)
H10 H 0.4246 0.4573 0.3124
C10 C 0.3388(5) 0.6277(4) 0.2630(4)
H11 H 0.2470 0.6213 0.2776
C11 C 0.4963(5) 0.7447(4) 0.2027(4)
H12 H 0.5125 0.8188 0.1768
C12 C 0.6076(5) 0.6470(4) 0.2210(4)
H13 H 0.6985 0.6554 0.2061
C13 C 0.5868(5) 0.5330(4) 0.2622(4)
C14 C 0.5264(5) 0.7007(4) 0.4935(4)
C15 C 0.4804(5) 0.8060(4) 0.5501(4)
C16 C -0.1121(5) 0.6163(4) 0.6804(4)
C17 C 0.0459(5) 0.3533(4) 0.7088(4)
C18 C -0.1196(5) 0.5292(4) 0.7874(4)
C19 C -0.0370(5) 0.4104(4) 0.8027(4)
C20 C -0.0392(6) 0.3414(5) 0.9047(5)
H14 H 0.0178 0.2639 0.9142
C21 C -0.1231(7) 0.3828(5) 0.9946(5)
H15 H -0.1205 0.3347 1.0634
C22 C -0.2114(7) 0.4976(5) 0.9802(5)
H16 H -0.2714 0.5268 1.0389
C23 C -0.2080(6) 0.5672(4) 0.8772(5)
C24 C -0.3663(6) 0.8884(5) 0.8625(5)
H17 H -0.3412 0.9503 0.8730
C25 C -0.2746(6) 0.7784(5) 0.8751(5)
H18 H -0.1872 0.7672 0.8922
C26 C -0.4360(6) 0.7017(5) 0.8404(5)
H19 H -0.4595 0.6368 0.8347
C27 C -0.5300(6) 0.8085(4) 0.8257(5)
H20 H -0.6169 0.8158 0.8100
C28 C -0.5000(5) 0.9113(4) 0.8334(5)
N1 N 0.3616(4) 0.7357(3) 0.2216(3)
N2 N -0.3072(4) 0.6858(3) 0.8636(4)
Eu1A Eu -0.19929(2) 1.280502(18) 0.400849(19)
Eu1A_2 Eu 0.80071(2) 0.280502(18) 0.400849(19)
Eu2_2 Eu 0.81147(2) 0.778344(19) 0.45427(2)
Eu2A Eu 0.18853(2) 0.221656(19) 0.54573(2)
O3A O 0.0332(3) 0.9232(3) 0.6180(3)
O4A O 0.1085(3) 0.8031(3) 0.7640(3)
O5A O 0.3074(3) 0.5607(3) 0.7226(3)
O7_2 O -0.3480(3) 0.6775(3) 0.4421(3)
O9_2 O -0.4292(3) 0.8565(3) 0.5423(3)
O12A O -0.0336(3) 0.5941(3) 0.3871(3)
O13A O -0.1211(3) 0.7513(3) 0.2696(3)
loop_
_geom_bond_atom_site_label_1
_geom_bond_atom_site_label_2
_geom_bond_site_symmetry_1
_geom_bond_site_symmetry_2
Eu1 O2 1_555 1_555
Eu2 O1 1_555 1_555
O1 C1 1_555 1_555
O2 C1 1_555 1_555
O3 C2 1_555 1_555
O4 C2 1_555 1_555
O5 C13 1_555 1_555
O6 Eu1 1_555 1_555
O7 C14 1_555 1_555
O8 Eu1 1_555 1_555
O9 C15 1_555 1_555
O10 Eu1 1_555 1_555
O11 Eu2 1_555 1_555
O12 C17 1_555 1_555
O13 C17 1_555 1_555
O14 C28 1_555 1_555
O15 Eu1 1_555 1_555
H1 O15 1_555 1_555
H2 O15 1_555 1_555
O16 Eu2 1_555 1_555
H3 O16 1_555 1_555
H4 O16 1_555 1_555
O17 Eu2 1_555 1_555
H5 O17 1_555 1_555
H6 O17 1_555 1_555
C1 C3 1_555 1_555
C2 C4 1_555 1_555
C3 C4 1_555 1_555
C4 C5 1_555 1_555
C5 H7 1_555 1_555
C6 C5 1_555 1_555
H8 C6 1_555 1_555
C7 C6 1_555 1_555
H9 C7 1_555 1_555
C8 C3 1_555 1_555
C9 H10 1_555 1_555
C10 C9 1_555 1_555
H11 C10 1_555 1_555
C11 H12 1_555 1_555
C12 C11 1_555 1_555
H13 C12 1_555 1_555
C13 C9 1_555 1_555
C14 O6 1_555 1_555
C15 O8 1_555 1_555
C16 O10 1_555 1_555
C17 C19 1_555 1_555
C18 C16 1_555 1_555
C19 C18 1_555 1_555
C20 C19 1_555 1_555
H14 C20 1_555 1_555
C21 C20 1_555 1_555
H15 C21 1_555 1_555
C22 C21 1_555 1_555
H16 C22 1_555 1_555
C23 C18 1_555 1_555
C24 H17 1_555 1_555
C25 C24 1_555 1_555
H18 C25 1_555 1_555
C26 H19 1_555 1_555
C27 C26 1_555 1_555
H20 C27 1_555 1_555
C28 C24 1_555 1_555
N1 C8 1_555 1_555
N2 C23 1_555 1_555
Eu1A O3 1_555 1_555
Eu1A_2 O5 1_555 1_555
Eu2_2 O7 1_555 1_555
Eu2A O12 1_555 1_555
O3A Eu1 1_555 1_555
O4A Eu1 1_555 1_555
O5A Eu1 1_555 1_555
O7_2 Eu2 1_555 1_555
O9_2 Eu2 1_555 1_555
O12A Eu2 1_555 1_555
O13A Eu2 1_555 1_555
O4 Eu1A 1_555 1_555
O9 Eu2_2 1_555 1_555
O11 C16 1_555 1_555
O13 Eu2A 1_555 1_555
C7 C8 1_555 1_555
C10 N1 1_555 1_555
C11 N1 1_555 1_555
C12 C13 1_555 1_555
C14 C15 1_555 1_555
C22 C23 1_555 1_555
C25 N2 1_555 1_555
C26 N2 1_555 1_555
C27 C28 1_555 1_555

#END
