
#######################################################################
#
#                 Cambridge Crystallographic Data Centre
#                                CCDC 
#
#######################################################################
#
# If this CIF has been generated from an entry in the Cambridge 
# Structural Database, then it will include bibliographic, chemical, 
# crystal, experimental, refinement or atomic coordinate data resulting 
# from the CCDC's data processing and validation procedures.
#
#######################################################################

data_CIBNOS
_symmetry_cell_setting           triclinic
_symmetry_space_group_name_H-M   'P -1'
_symmetry_Int_Tables_number      2
_space_group_name_Hall           '-P 1'
loop_
_symmetry_equiv_pos_site_id
_symmetry_equiv_pos_as_xyz
1 x,y,z
2 -x,-y,-z
_cell_length_a                   10.2255(7)
_cell_length_b                   12.2071(7)
_cell_length_c                   13.0585(10)
_cell_angle_alpha                74.105(6)
_cell_angle_beta                 75.466(6)
_cell_angle_gamma                71.010(6)
_cell_volume                     1458.71
loop_
_atom_site_label
_atom_site_type_symbol
_atom_site_fract_x
_atom_site_fract_y
_atom_site_fract_z
Gd1 Gd 0.79810(3) 0.77970(2) 0.89937(2)
Gd2 Gd 1.19065(3) 0.72160(2) 1.04740(2)
O1 O 0.9613(4) 0.6972(3) 1.0754(3)
O2 O 0.7670(4) 0.6544(3) 1.0793(3)
O3 O 1.0351(4) 0.4228(3) 1.1178(3)
O4 O 1.1149(4) 0.3061(3) 1.2638(3)
O5 O 0.3148(5) 1.0628(3) 1.2229(3)
O6 O 0.5624(4) 0.8532(3) 0.9971(3)
O7 O 0.3498(4) 0.8236(3) 1.0564(3)
O8 O 0.6419(4) 0.6681(3) 0.9013(3)
O9 O 0.4268(4) 0.6425(3) 0.9583(4)
O10 O 1.0116(5) 0.8330(3) 0.8363(4)
O11 O 1.1952(5) 0.8599(3) 0.8776(3)
O12 O 0.9631(4) 1.0930(3) 0.8870(3)
O13 O 0.8744(5) 1.2504(3) 0.7681(3)
O14 O 1.5824(5) 0.4851(3) 0.6815(4)
O15 O 0.7868(4) 0.9344(3) 0.9853(3)
H1 H 0.7360 1.0054 0.9831
H2 H 0.8702 0.9404 0.9721
O16 O 1.2654(5) 0.5416(3) 1.1677(3)
H3 H 1.3053 0.5313 1.2207
H4 H 1.2874 0.4809 1.1403
O17 O 1.2044(4) 0.5861(3) 0.9402(3)
H5 H 1.2479 0.5185 0.9728
H6 H 1.1289 0.5727 0.9186
C1 C 0.8636(6) 0.6506(4) 1.1244(5)
C2 C 1.0388(6) 0.4025(5) 1.2179(5)
C3 C 0.8547(6) 0.5975(4) 1.2433(5)
C4 C 0.9443(6) 0.4890(4) 1.2865(5)
C5 C 0.9343(6) 0.4531(5) 1.3973(5)
H7 H 0.9959 0.3825 1.4256
C6 C 0.8358(7) 0.5185(5) 1.4677(5)
H8 H 0.8324 0.4928 1.5420
C7 C 0.7426(7) 0.6226(5) 1.4264(5)
H9 H 0.6751 0.6673 1.4727
C8 C 0.7506(6) 0.6595(5) 1.3163(5)
C9 C 0.5601(7) 0.9720(5) 1.2161(5)
H10 H 0.5808 1.0445 1.1885
C10 C 0.6666(7) 0.8726(5) 1.2340(5)
H11 H 0.7587 0.8776 1.2161
C11 C 0.5063(6) 0.7575(5) 1.2976(5)
H12 H 0.4889 0.6837 1.3241
C12 C 0.3973(6) 0.8553(5) 1.2793(5)
H13 H 0.3067 0.8471 1.2944
C13 C 0.4176(7) 0.9695(5) 1.2379(5)
C14 C 0.4736(6) 0.7993(5) 1.0076(5)
C15 C 0.5195(6) 0.6921(5) 0.9501(5)
C16 C 1.1066(7) 0.8829(5) 0.8185(5)
C17 C 0.9512(6) 1.1464(5) 0.7900(5)
C18 C 1.1185(6) 0.9708(5) 0.7122(5)
C19 C 1.0358(7) 1.0890(5) 0.6976(5)
C20 C 1.0418(8) 1.1600(5) 0.5947(5)
H14 H 0.9856 1.2379 0.5855
C21 C 1.1280(9) 1.1194(6) 0.5058(6)
H15 H 1.1276 1.1681 0.4372
C22 C 1.2157(8) 1.0042(6) 0.5202(6)
H16 H 1.2774 0.9758 0.4615
C23 C 1.2101(7) 0.9328(5) 0.6221(5)
C24 C 1.5306(7) 0.6912(5) 0.6735(5)
H17 H 1.6173 0.6847 0.6887
C25 C 1.4355(8) 0.7981(5) 0.6578(5)
H18 H 1.4594 0.8639 0.6618
C26 C 1.2748(8) 0.7210(5) 0.6260(6)
H19 H 1.1881 0.7324 0.6081
C27 C 1.3646(8) 0.6109(6) 0.6404(6)
H20 H 1.3374 0.5483 0.6327
C28 C 1.4989(7) 0.5877(5) 0.6667(6)
N1 N 0.6409(5) 0.7649(4) 1.2781(4)
N2 N 1.3083(6) 0.8138(4) 0.6369(4)
Gd1A Gd 0.20190(3) 1.22030(2) 1.10063(2)
Gd1A_2 Gd 1.20190(3) 0.22030(2) 1.10063(2)
Gd2_2 Gd 0.19065(3) 0.72160(2) 1.04740(2)
Gd2A Gd 0.80935(3) 1.27840(2) 0.95260(2)
O3A O 0.9649(4) 0.5772(3) 0.8822(3)
O4A O 0.8851(4) 0.6939(3) 0.7362(3)
O5A O 0.6852(5) 0.9372(3) 0.7771(3)
O7_2 O 1.3498(4) 0.8236(3) 1.0564(3)
O9_2 O 1.4268(4) 0.6425(3) 0.9583(4)
O12A O 1.0369(4) 0.9070(3) 1.1130(3)
O13A O 1.1256(5) 0.7496(3) 1.2319(3)
loop_
_geom_bond_atom_site_label_1
_geom_bond_atom_site_label_2
_geom_bond_site_symmetry_1
_geom_bond_site_symmetry_2
Gd1 O2 1_555 1_555
Gd2 O1 1_555 1_555
O1 C1 1_555 1_555
O2 C1 1_555 1_555
O3 C2 1_555 1_555
O4 C2 1_555 1_555
O5 C13 1_555 1_555
O6 Gd1 1_555 1_555
O7 C14 1_555 1_555
O8 Gd1 1_555 1_555
O9 C15 1_555 1_555
O10 Gd1 1_555 1_555
O11 Gd2 1_555 1_555
O12 C17 1_555 1_555
O13 C17 1_555 1_555
O14 C28 1_555 1_555
O15 Gd1 1_555 1_555
H1 O15 1_555 1_555
H2 O15 1_555 1_555
O16 Gd2 1_555 1_555
H3 O16 1_555 1_555
H4 O16 1_555 1_555
O17 Gd2 1_555 1_555
H5 O17 1_555 1_555
H6 O17 1_555 1_555
C1 C3 1_555 1_555
C2 C4 1_555 1_555
C3 C4 1_555 1_555
C4 C5 1_555 1_555
C5 H7 1_555 1_555
C6 C5 1_555 1_555
H8 C6 1_555 1_555
C7 C6 1_555 1_555
H9 C7 1_555 1_555
C8 C3 1_555 1_555
C9 H10 1_555 1_555
C10 C9 1_555 1_555
H11 C10 1_555 1_555
C11 H12 1_555 1_555
C12 C11 1_555 1_555
H13 C12 1_555 1_555
C13 C9 1_555 1_555
C14 O6 1_555 1_555
C15 O8 1_555 1_555
C16 O10 1_555 1_555
C17 C19 1_555 1_555
C18 C16 1_555 1_555
C19 C18 1_555 1_555
C20 C19 1_555 1_555
H14 C20 1_555 1_555
C21 C20 1_555 1_555
H15 C21 1_555 1_555
C22 C21 1_555 1_555
H16 C22 1_555 1_555
C23 C18 1_555 1_555
C24 H17 1_555 1_555
C25 C24 1_555 1_555
H18 C25 1_555 1_555
C26 H19 1_555 1_555
C27 C26 1_555 1_555
H20 C27 1_555 1_555
C28 C24 1_555 1_555
N1 C8 1_555 1_555
N2 C23 1_555 1_555
Gd1A O5 1_555 1_555
Gd1A_2 O3 1_555 1_555
Gd2_2 O7 1_555 1_555
Gd2A O12 1_555 1_555
O3A Gd1 1_555 1_555
O4A Gd1 1_555 1_555
O5A Gd1 1_555 1_555
O7_2 Gd2 1_555 1_555
O9_2 Gd2 1_555 1_555
O12A Gd2 1_555 1_555
O13A Gd2 1_555 1_555
O4 Gd1A_2 1_555 1_555
O9 Gd2_2 1_555 1_555
O11 C16 1_555 1_555
O13 Gd2A 1_555 1_555
C7 C8 1_555 1_555
C10 N1 1_555 1_555
C11 N1 1_555 1_555
C12 C13 1_555 1_555
C14 C15 1_555 1_555
C22 C23 1_555 1_555
C25 N2 1_555 1_555
C26 N2 1_555 1_555
C27 C28 1_555 1_555

#END
