
#######################################################################
#
#                 Cambridge Crystallographic Data Centre
#                                CCDC 
#
#######################################################################
#
# If this CIF has been generated from an entry in the Cambridge 
# Structural Database, then it will include bibliographic, chemical, 
# crystal, experimental, refinement or atomic coordinate data resulting 
# from the CCDC's data processing and validation procedures.
#
#######################################################################

data_CIBPOU
_symmetry_cell_setting           triclinic
_symmetry_space_group_name_H-M   'P -1'
_symmetry_Int_Tables_number      2
_space_group_name_Hall           '-P 1'
loop_
_symmetry_equiv_pos_site_id
_symmetry_equiv_pos_as_xyz
1 x,y,z
2 -x,-y,-z
_cell_length_a                   7.7062(6)
_cell_length_b                   10.6544(6)
_cell_length_c                   12.7524(12)
_cell_angle_alpha                112.492(7)
_cell_angle_beta                 93.296(7)
_cell_angle_gamma                104.776(6)
_cell_volume                     921.201
loop_
_atom_site_label
_atom_site_type_symbol
_atom_site_fract_x
_atom_site_fract_y
_atom_site_fract_z
Ce1 Ce 1.18510(3) 0.558050(19) 0.159200(17)
O1 O 0.9777(4) 0.4347(3) 0.2512(2)
O2 O 0.6802(5) 0.3986(3) 0.2350(3)
O3 O 0.9004(4) 0.3787(2) 0.0142(2)
O4 O 0.7329(4) 0.1984(3) -0.1415(2)
O5 O 0.6641(4) 0.2819(3) 0.6456(2)
O6 O 1.2760(4) 0.3959(3) -0.0223(2)
O7 O 1.4838(4) 0.3697(3) -0.1370(2)
O8 O 1.3291(4) 0.4035(3) 0.2224(3)
H1 H 1.2913 0.3943 0.2707
H2 H 1.4336 0.3881 0.2124
O9 O 0.9547(4) 0.6973(3) 0.2268(3)
H3 H 0.8951 0.6952 0.2680
H4 H 0.8969 0.6739 0.1723
N1 N 0.7314(5) 0.1470(3) 0.3093(3)
C1 C 0.8148(5) 0.3572(4) 0.2142(3)
C2 C 0.8086(5) 0.2469(4) -0.0390(3)
C3 C 0.7859(5) 0.2007(4) 0.1406(3)
C4 C 0.7865(5) 0.1509(4) 0.0220(3)
C5 C 0.7584(6) 0.0060(4) -0.0423(4)
H5 H 0.7583 -0.0273 -0.1212
C6 C 0.7308(7) -0.0884(4) 0.0081(4)
H6 H 0.7168 -0.1841 -0.0358
C7 C 0.7239(7) -0.0412(4) 0.1242(4)
H7 H 0.7023 -0.1053 0.1585
C8 C 0.7494(5) 0.1018(4) 0.1893(3)
C9 C 0.8505(6) 0.2953(4) 0.5060(4)
H8 H 0.9467 0.3658 0.5617
C10 C 0.8686(6) 0.2490(4) 0.3937(4)
H9 H 0.9774 0.2877 0.3739
C11 C 0.5758(6) 0.0885(4) 0.3387(4)
H10 H 0.4829 0.0171 0.2811
C12 C 0.5510(6) 0.1305(4) 0.4496(4)
H11 H 0.4417 0.0875 0.4665
C13 C 0.6879(5) 0.2388(4) 0.5405(3)
C14 C 1.4308(5) 0.4321(4) -0.0460(3)
O6A O 1.7240(4) 0.6041(3) 0.0223(2)
O7A O 1.5162(4) 0.6303(3) 0.1370(2)
C14A C 1.5692(5) 0.5679(4) 0.0460(3)
Ce1A Ce 0.81490(3) 0.441950(19) -0.159200(17)
O1A O 1.0223(4) 0.5653(3) -0.2512(2)
O2A O 1.3198(5) 0.6014(3) -0.2350(3)
O3A O 1.0996(4) 0.6213(2) -0.0142(2)
O4A O 1.2671(4) 0.8016(3) 0.1415(2)
O5A O 1.3359(4) 0.7181(3) -0.6456(2)
O8A O 0.6709(4) 0.5965(3) -0.2224(3)
H1A H 0.7087 0.6057 -0.2707
H2A H 0.5664 0.6119 -0.2124
O9A O 1.0453(4) 0.3027(3) -0.2268(3)
H3A H 1.1049 0.3048 -0.2680
H4A H 1.1031 0.3261 -0.1723
N1A N 1.2686(5) 0.8530(3) -0.3093(3)
C1A C 1.1852(5) 0.6428(4) -0.2142(3)
C2A C 1.1914(5) 0.7531(4) 0.0390(3)
C3A C 1.2141(5) 0.7993(4) -0.1406(3)
C4A C 1.2135(5) 0.8491(4) -0.0220(3)
C5A C 1.2416(6) 0.9940(4) 0.0423(4)
H5A H 1.2417 1.0273 0.1212
C6A C 1.2692(7) 1.0884(4) -0.0081(4)
H6A H 1.2832 1.1841 0.0358
C7A C 1.2761(7) 1.0412(4) -0.1242(4)
H7A H 1.2977 1.1053 -0.1585
C8A C 1.2506(5) 0.8982(4) -0.1893(3)
C9A C 1.1495(6) 0.7047(4) -0.5060(4)
H8A H 1.0533 0.6342 -0.5617
C10A C 1.1314(6) 0.7510(4) -0.3937(4)
H9A H 1.0226 0.7123 -0.3739
C11A C 1.4242(6) 0.9115(4) -0.3387(4)
H10A H 1.5171 0.9829 -0.2811
C12A C 1.4490(6) 0.8695(4) -0.4496(4)
H11A H 1.5583 0.9125 -0.4665
C13A C 1.3121(5) 0.7612(4) -0.5405(3)
Ce1_2 Ce 1.18510(3) 0.558050(19) -0.840800(17)
Ce1A_2 Ce 0.81490(3) 0.441950(19) 0.840800(17)
Ce1A_3 Ce 1.81490(3) 0.441950(19) -0.159200(17)
O5_2 O 0.6641(4) 0.2819(3) -0.3544(2)
O5A_2 O 1.3359(4) 0.7181(3) 0.3544(2)
O6A_2 O 0.7240(4) 0.6041(3) 0.0223(2)
O7_2 O 0.4838(4) 0.3697(3) -0.1370(2)
O10 O 0.2882(7) 1.3155(6) 0.6162(4)
H12 H 0.3576 1.2809 0.6003
H13 H 0.3318 1.3797 0.6670
O11 O 0.3222(14) 1.4184(15) 0.4555(11)
H14 H 0.4095 1.4210 0.4376
H15 H 0.3121 1.4022 0.5051
O13 O 0.0943(18) 1.0125(9) 0.3447(12)
H18 H 0.0500 0.9994 0.2774
H19 H 0.1048 0.9347 0.3440
O12? O 0.2957(16) 1.3007(12) 0.3872(12)
H16? H 0.2432 1.2129 0.3457
H17? H 0.2272 1.3140 0.4225
O14? O 0.028(3) 0.9849(10) 0.4256(15)
H20? H 0.1195 1.0160 0.3988
H21? H -0.0546 0.9062 0.4083
loop_
_geom_bond_atom_site_label_1
_geom_bond_atom_site_label_2
_geom_bond_site_symmetry_1
_geom_bond_site_symmetry_2
Ce1 O1 1_555 1_555
O1 C1 1_555 1_555
O2 C1 1_555 1_555
O3 Ce1 1_555 1_555
O4 C2 1_555 1_555
O5 C13 1_555 1_555
O6 Ce1 1_555 1_555
O7 C14 1_555 1_555
O8 Ce1 1_555 1_555
H1 O8 1_555 1_555
H2 O8 1_555 1_555
O9 Ce1 1_555 1_555
H3 O9 1_555 1_555
H4 O9 1_555 1_555
N1 C8 1_555 1_555
C1 C3 1_555 1_555
C2 O3 1_555 1_555
C3 C4 1_555 1_555
C4 C2 1_555 1_555
C5 C4 1_555 1_555
H5 C5 1_555 1_555
C6 C5 1_555 1_555
H6 C6 1_555 1_555
C7 C6 1_555 1_555
H7 C7 1_555 1_555
C8 C3 1_555 1_555
C9 H8 1_555 1_555
C10 N1 1_555 1_555
H9 C10 1_555 1_555
C11 N1 1_555 1_555
H10 C11 1_555 1_555
C12 C11 1_555 1_555
H11 C12 1_555 1_555
C13 C9 1_555 1_555
C14 O6 1_555 1_555
O10 H12 1_555 1_555
H13 O10 1_555 1_555
O11 H14 1_555 1_555
H15 O11 1_555 1_555
O13 H18 1_555 1_555
H19 O13 1_555 1_555
O6A C14A 1_555 1_555
O7A Ce1 1_555 1_555
C14A C14 1_555 1_555
Ce1A O3 1_555 1_555
O1A Ce1A 1_555 1_555
O2A C1A 1_555 1_555
O3A Ce1 1_555 1_555
O4A Ce1 1_555 1_555
O5A C13A 1_555 1_555
O8A Ce1A 1_555 1_555
H1A O8A 1_555 1_555
H2A O8A 1_555 1_555
O9A Ce1A 1_555 1_555
H3A O9A 1_555 1_555
H4A O9A 1_555 1_555
N1A C8A 1_555 1_555
C1A O1A 1_555 1_555
C2A O3A 1_555 1_555
C3A C1A 1_555 1_555
C4A C2A 1_555 1_555
C5A C4A 1_555 1_555
H5A C5A 1_555 1_555
C6A C5A 1_555 1_555
H6A C6A 1_555 1_555
C7A C6A 1_555 1_555
H7A C7A 1_555 1_555
C8A C3A 1_555 1_555
C9A H8A 1_555 1_555
C10A N1A 1_555 1_555
H9A C10A 1_555 1_555
C11A N1A 1_555 1_555
H10A C11A 1_555 1_555
C12A C11A 1_555 1_555
H11A C12A 1_555 1_555
C13A C9A 1_555 1_555
Ce1_2 O5A 1_555 1_555
Ce1A_2 O5 1_555 1_555
Ce1A_3 O7 1_555 1_555
O5_2 Ce1A 1_555 1_555
O5A_2 Ce1 1_555 1_555
O6A_2 Ce1A 1_555 1_555
O7_2 Ce1A 1_555 1_555
O4 Ce1A 1_555 1_555
C7 C8 1_555 1_555
C9 C10 1_555 1_555
C12 C13 1_555 1_555
O6A Ce1A_3 1_555 1_555
O7A C14A 1_555 1_555
Ce1A O3A 1_555 1_555
O4A C2A 1_555 1_555
C3A C4A 1_555 1_555
C7A C8A 1_555 1_555
C9A C10A 1_555 1_555
C12A C13A 1_555 1_555

#END
