
#######################################################################
#
#                 Cambridge Crystallographic Data Centre
#                                CCDC 
#
#######################################################################
#
# If this CIF has been generated from an entry in the Cambridge 
# Structural Database, then it will include bibliographic, chemical, 
# crystal, experimental, refinement or atomic coordinate data resulting 
# from the CCDC's data processing and validation procedures.
#
#######################################################################

data_CIBPEK
_symmetry_cell_setting           triclinic
_symmetry_space_group_name_H-M   'P -1'
_symmetry_Int_Tables_number      2
_space_group_name_Hall           '-P 1'
loop_
_symmetry_equiv_pos_site_id
_symmetry_equiv_pos_as_xyz
1 x,y,z
2 -x,-y,-z
_cell_length_a                   10.1782(10)
_cell_length_b                   12.4570(12)
_cell_length_c                   13.2659(13)
_cell_angle_alpha                72.476(9)
_cell_angle_beta                 73.363(9)
_cell_angle_gamma                69.928(9)
_cell_volume                     1474.73
loop_
_atom_site_label
_atom_site_type_symbol
_atom_site_fract_x
_atom_site_fract_y
_atom_site_fract_z
Nd1 Nd 0.80763(2) 0.782870(17) 0.403349(18)
Nd2 Nd 1.18349(2) 0.722931(17) 0.540345(19)
O1 O 0.9455(3) 0.6940(2) 0.5718(2)
O2 O 0.7502(3) 0.6477(2) 0.5858(2)
O3 O 1.0265(3) 0.4240(2) 0.6183(2)
O4 O 1.0881(3) 0.2967(2) 0.7645(3)
O5 O 0.2908(3) 1.0509(2) 0.7252(3)
O6 O 0.5560(3) 0.8556(2) 0.4935(3)
O7 O 0.3465(3) 0.8168(2) 0.5598(3)
O8 O 0.6495(3) 0.6763(2) 0.3929(3)
O9 O 0.4355(3) 0.6430(2) 0.4560(3)
O10 O 1.0385(3) 0.8308(2) 0.3638(3)
O11 O 1.2287(3) 0.8736(2) 0.3691(3)
O12 O 0.9738(3) 1.0923(2) 0.3893(3)
O13 O 0.8928(3) 1.2535(2) 0.2719(3)
O14 O 1.5878(3) 0.4883(3) 0.1861(3)
O15 O 0.7787(3) 0.9396(2) 0.4930(3)
H1 H 0.8605 0.9543 0.4821
H2 H 0.7172 1.0046 0.4677
O16 O 1.2574(3) 0.5380(2) 0.6665(3)
H3 H 1.2958 0.5316 0.7180
H4 H 1.2881 0.4811 0.6337
O17 O 1.2169(3) 0.5821(2) 0.4349(3)
H5 H 1.2895 0.5224 0.4483
H6 H 1.1416 0.5578 0.4515
N1 N 0.6305(3) 0.7611(3) 0.7814(3)
N2 N 1.3050(4) 0.8136(3) 0.1366(3)
C1 C 0.8483(4) 0.6453(3) 0.6260(4)
C2 C 1.0239(4) 0.3984(3) 0.7167(4)
C3 C 0.8440(4) 0.5944(3) 0.7442(3)
C4 C 0.9356(4) 0.4853(3) 0.7866(3)
C5 C 0.9323(4) 0.4510(4) 0.8960(4)
H7 H 0.9951 0.3804 0.9229
C6 C 0.8388(5) 0.5183(4) 0.9671(4)
H8 H 0.8405 0.4950 1.0404
C7 C 0.7421(5) 0.6217(4) 0.9261(4)
H9 H 0.6754 0.6665 0.9729
C8 C 0.7441(4) 0.6578(3) 0.8182(4)
C9 C 0.5391(4) 0.9672(3) 0.7249(4)
H10 H 0.5562 1.0404 0.6997
C10 C 0.6497(5) 0.8705(3) 0.7443(4)
H11 H 0.7407 0.8788 0.7320
C11 C 0.4975(4) 0.7499(4) 0.7968(4)
H12 H 0.4842 0.6754 0.8207
C12 C 0.3831(4) 0.8449(4) 0.7780(4)
H13 H 0.2937 0.8339 0.7892
C13 C 0.3982(4) 0.9602(3) 0.7418(4)
C14 C 0.4718(4) 0.7981(3) 0.5065(4)
C15 C 0.5229(4) 0.6955(3) 0.4476(4)
C16 C 1.1289(4) 0.8882(3) 0.3240(4)
C17 C 0.9627(4) 1.1474(3) 0.2934(4)
C18 C 1.1224(4) 0.9705(3) 0.2159(4)
C19 C 1.0376(4) 1.0891(3) 0.2008(4)
C20 C 1.0316(5) 1.1561(4) 0.0969(4)
H14 H 0.9750 1.2335 0.0874
C21 C 1.1073(6) 1.1114(4) 0.0070(5)
H15 H 1.0990 1.1572 -0.0619
C22 C 1.1963(6) 0.9971(4) 0.0208(4)
H16 H 1.2507 0.9663 -0.0388
C23 C 1.2027(5) 0.9300(4) 0.1238(4)
C24 C 1.3720(5) 0.6126(4) 0.1348(5)
H17 H 1.3520 0.5515 0.1212
C25 C 1.2762(5) 0.7205(4) 0.1221(5)
H18 H 1.1905 0.7311 0.1035
C26 C 1.4310(5) 0.7973(4) 0.1621(4)
H19 H 1.4509 0.8615 0.1699
C27 C 1.5294(5) 0.6913(4) 0.1769(4)
H20 H 1.6156 0.6846 0.1928
C28 C 1.5019(5) 0.5897(4) 0.1682(4)
Nd1A Nd 0.19237(2) 1.217130(17) 0.596651(18)
Nd1A_2 Nd 1.19237(2) 0.217130(17) 0.596651(18)
Nd2_2 Nd 0.18349(2) 0.722931(17) 0.540345(19)
Nd2A Nd 0.81651(2) 1.277069(17) 0.459655(19)
O3A O 0.9735(3) 0.5760(2) 0.3817(2)
O4A O 0.9119(3) 0.7033(2) 0.2355(3)
O5A O 0.7092(3) 0.9491(2) 0.2748(3)
O7_2 O 1.3465(3) 0.8168(2) 0.5598(3)
O9_2 O 1.4355(3) 0.6430(2) 0.4560(3)
O12A O 1.0262(3) 0.9077(2) 0.6107(3)
O13A O 1.1072(3) 0.7465(2) 0.7281(3)
loop_
_geom_bond_atom_site_label_1
_geom_bond_atom_site_label_2
_geom_bond_site_symmetry_1
_geom_bond_site_symmetry_2
Nd1 O2 1_555 1_555
Nd2 O1 1_555 1_555
O1 C1 1_555 1_555
O2 C1 1_555 1_555
O3 C2 1_555 1_555
O4 C2 1_555 1_555
O5 C13 1_555 1_555
O6 Nd1 1_555 1_555
O7 C14 1_555 1_555
O8 Nd1 1_555 1_555
O9 C15 1_555 1_555
O10 Nd1 1_555 1_555
O11 Nd2 1_555 1_555
O12 C17 1_555 1_555
O13 C17 1_555 1_555
O14 C28 1_555 1_555
O15 Nd1 1_555 1_555
H1 O15 1_555 1_555
H2 O15 1_555 1_555
O16 Nd2 1_555 1_555
H3 O16 1_555 1_555
H4 O16 1_555 1_555
O17 Nd2 1_555 1_555
H5 O17 1_555 1_555
H6 O17 1_555 1_555
N1 C8 1_555 1_555
N2 C23 1_555 1_555
C1 C3 1_555 1_555
C2 C4 1_555 1_555
C3 C4 1_555 1_555
C4 C5 1_555 1_555
C5 H7 1_555 1_555
C6 C5 1_555 1_555
H8 C6 1_555 1_555
C7 C6 1_555 1_555
H9 C7 1_555 1_555
C8 C3 1_555 1_555
C9 H10 1_555 1_555
C10 N1 1_555 1_555
H11 C10 1_555 1_555
C11 N1 1_555 1_555
H12 C11 1_555 1_555
C12 C11 1_555 1_555
H13 C12 1_555 1_555
C13 C9 1_555 1_555
C14 O6 1_555 1_555
C15 O8 1_555 1_555
C16 O10 1_555 1_555
C17 C19 1_555 1_555
C18 C16 1_555 1_555
C19 C18 1_555 1_555
C20 C19 1_555 1_555
H14 C20 1_555 1_555
C21 C20 1_555 1_555
H15 C21 1_555 1_555
C22 C21 1_555 1_555
H16 C22 1_555 1_555
C23 C18 1_555 1_555
C24 H17 1_555 1_555
C25 N2 1_555 1_555
H18 C25 1_555 1_555
C26 N2 1_555 1_555
H19 C26 1_555 1_555
C27 C26 1_555 1_555
H20 C27 1_555 1_555
C28 C24 1_555 1_555
Nd1A O5 1_555 1_555
Nd1A_2 O3 1_555 1_555
Nd2_2 O7 1_555 1_555
Nd2A O12 1_555 1_555
O3A Nd1 1_555 1_555
O4A Nd1 1_555 1_555
O5A Nd1 1_555 1_555
O7_2 Nd2 1_555 1_555
O9_2 Nd2 1_555 1_555
O12A Nd2 1_555 1_555
O13A Nd2 1_555 1_555
O4 Nd1A_2 1_555 1_555
O9 Nd2_2 1_555 1_555
O11 C16 1_555 1_555
O13 Nd2A 1_555 1_555
C7 C8 1_555 1_555
C9 C10 1_555 1_555
C12 C13 1_555 1_555
C14 C15 1_555 1_555
C22 C23 1_555 1_555
C24 C25 1_555 1_555
C27 C28 1_555 1_555

#END
