
#######################################################################
#
#                 Cambridge Crystallographic Data Centre
#                                CCDC 
#
#######################################################################
#
# If this CIF has been generated from an entry in the Cambridge 
# Structural Database, then it will include bibliographic, chemical, 
# crystal, experimental, refinement or atomic coordinate data resulting 
# from the CCDC's data processing and validation procedures.
#
#######################################################################

data_CIBPAG
_symmetry_cell_setting           triclinic
_symmetry_space_group_name_H-M   'P -1'
_symmetry_Int_Tables_number      2
_space_group_name_Hall           '-P 1'
loop_
_symmetry_equiv_pos_site_id
_symmetry_equiv_pos_as_xyz
1 x,y,z
2 -x,-y,-z
_cell_length_a                   10.1638(4)
_cell_length_b                   12.3381(5)
_cell_length_c                   13.1801(7)
_cell_angle_alpha                73.301(4)
_cell_angle_beta                 74.382(4)
_cell_angle_gamma                70.393(4)
_cell_volume                     1463.71
loop_
_atom_site_label
_atom_site_type_symbol
_atom_site_fract_x
_atom_site_fract_y
_atom_site_fract_z
Sm1 Sm 0.80400(3) 0.28159(3) 0.40269(2)
Sm2 Sm 1.18625(3) 0.22218(3) 0.54293(2)
O1 O 0.7567(4) 0.1494(4) 0.5831(3)
O2 O 0.9520(4) 0.1956(3) 0.5721(3)
O3 O 1.0294(4) -0.0760(3) 0.6174(3)
O4 O 1.0997(5) -0.2003(4) 0.7635(3)
O5 O 0.3000(5) 0.5557(4) 0.7225(3)
O6 O 0.5584(4) 0.3545(3) 0.4956(3)
O7 O 0.3467(4) 0.3197(4) 0.5592(3)
O8 O 0.6461(4) 0.1739(4) 0.3963(3)
O9 O 0.4314(5) 0.1433(4) 0.4567(4)
O10 O 1.2161(5) 0.3688(4) 0.3724(3)
O11 O 1.0277(4) 0.3319(3) 0.3537(3)
O12 O 0.9703(5) 0.5931(4) 0.3887(3)
O13 O 0.8851(5) 0.7523(4) 0.2711(3)
O14 O 1.5865(6) -0.0130(4) 0.1843(4)
O15 O 1.2118(5) 0.0835(4) 0.4373(4)
H1 H 1.2849 0.0351 0.4059
H2 H 1.1344 0.0613 0.4521
O16 O 1.2603(5) 0.0395(4) 0.6665(4)
H3 H 1.3078 0.0309 0.7137
H4 H 1.2810 -0.0182 0.6353
O17 O 0.7820(4) 0.4375(3) 0.4907(3)
H5 H 0.8630 0.4544 0.4762
H6 H 0.7173 0.5014 0.4682
C1 C 0.8541(7) 0.1467(5) 0.6256(5)
C2 C 1.0308(6) -0.1004(5) 0.7175(5)
C3 C 0.8487(6) 0.0958(5) 0.7434(4)
C4 C 0.9389(6) -0.0135(5) 0.7860(4)
C5 C 0.9336(7) -0.0488(6) 0.8973(5)
H7 H 0.9965 -0.1192 0.9249
C6 C 0.8374(7) 0.0183(6) 0.9672(5)
H8 H 0.8359 -0.0059 1.0410
C7 C 0.7428(7) 0.1224(6) 0.9257(5)
H9 H 0.6763 0.1675 0.9724
C8 C 0.7460(6) 0.1597(5) 0.8165(5)
C9 C 0.5467(7) 0.4690(5) 0.7202(5)
H10 H 0.5656 0.5418 0.6933
C10 C 0.6558(7) 0.3715(5) 0.7400(5)
H11 H 0.7475 0.3789 0.7261
C11 C 0.5002(7) 0.2536(5) 0.7972(5)
H12 H 0.4854 0.1793 0.8224
C12 C 0.3877(7) 0.3489(6) 0.7787(5)
H13 H 0.2976 0.3385 0.7924
C13 C 0.4042(7) 0.4645(5) 0.7389(5)
C14 C 0.4720(7) 0.2981(5) 0.5068(5)
C15 C 0.5213(7) 0.1952(5) 0.4496(5)
C16 C 1.1204(7) 0.3862(5) 0.3216(5)
C17 C 0.9579(6) 0.6473(5) 0.2928(5)
C18 C 1.1203(8) 0.4711(6) 0.2144(5)
C19 C 1.0360(8) 0.5885(6) 0.2002(5)
C20 C 1.0345(8) 0.6578(6) 0.0959(5)
H14 H 0.9778 0.7354 0.0865
C21 C 1.1152(8) 0.6139(6) 0.0067(5)
H15 H 1.1110 0.6611 -0.0622
C22 C 1.2031(8) 0.4990(6) 0.0200(5)
H16 H 1.2596 0.4687 -0.0395
C23 C 1.2049(8) 0.4306(6) 0.1229(5)
C24 C 1.3701(8) 0.1128(6) 0.1368(7)
H17 H 1.3474 0.0509 0.1252
C25 C 1.2756(8) 0.2206(6) 0.1232(7)
H18 H 1.1894 0.2307 0.1049
C26 C 1.4323(8) 0.2981(6) 0.1608(5)
H19 H 1.4529 0.3633 0.1677
C27 C 1.5308(8) 0.1918(6) 0.1759(5)
H20 H 1.6174 0.1857 0.1914
C28 C 1.5017(8) 0.0887(6) 0.1678(5)
N1 N 0.6345(5) 0.2633(4) 0.7799(4)
N2 N 1.3054(6) 0.3139(4) 0.1361(4)
Sm1A Sm 0.19600(3) 0.71841(3) 0.59731(2)
Sm1A_2 Sm 1.19600(3) -0.28159(3) 0.59731(2)
Sm2_2 Sm 0.18625(3) 0.22218(3) 0.54293(2)
Sm2A Sm 0.81375(3) 0.77782(3) 0.45707(2)
O3A O 0.9706(4) 0.0760(3) 0.3826(3)
O4A O 0.9003(5) 0.2003(4) 0.2365(3)
O5A O 0.7000(5) 0.4443(4) 0.2775(3)
O7_2 O 1.3467(4) 0.3197(4) 0.5592(3)
O9_2 O 1.4314(5) 0.1433(4) 0.4567(4)
O12A O 1.0297(5) 0.4069(4) 0.6113(3)
O13A O 1.1149(5) 0.2477(4) 0.7289(3)
loop_
_geom_bond_atom_site_label_1
_geom_bond_atom_site_label_2
_geom_bond_site_symmetry_1
_geom_bond_site_symmetry_2
Sm1 O1 1_555 1_555
Sm2 O2 1_555 1_555
O1 C1 1_555 1_555
O2 C1 1_555 1_555
O3 C2 1_555 1_555
O4 C2 1_555 1_555
O5 C13 1_555 1_555
O6 Sm1 1_555 1_555
O7 C14 1_555 1_555
O8 Sm1 1_555 1_555
O9 C15 1_555 1_555
O10 Sm2 1_555 1_555
O11 Sm1 1_555 1_555
O12 C17 1_555 1_555
O13 C17 1_555 1_555
O14 C28 1_555 1_555
O15 Sm2 1_555 1_555
H1 O15 1_555 1_555
H2 O15 1_555 1_555
O16 Sm2 1_555 1_555
H3 O16 1_555 1_555
H4 O16 1_555 1_555
O17 Sm1 1_555 1_555
H5 O17 1_555 1_555
H6 O17 1_555 1_555
C1 C3 1_555 1_555
C2 C4 1_555 1_555
C3 C4 1_555 1_555
C4 C5 1_555 1_555
C5 H7 1_555 1_555
C6 C5 1_555 1_555
H8 C6 1_555 1_555
C7 C6 1_555 1_555
H9 C7 1_555 1_555
C8 C3 1_555 1_555
C9 H10 1_555 1_555
C10 C9 1_555 1_555
H11 C10 1_555 1_555
C11 H12 1_555 1_555
C12 C11 1_555 1_555
H13 C12 1_555 1_555
C13 C9 1_555 1_555
C14 O6 1_555 1_555
C15 O8 1_555 1_555
C16 O10 1_555 1_555
C17 C19 1_555 1_555
C18 C16 1_555 1_555
C19 C18 1_555 1_555
C20 C19 1_555 1_555
H14 C20 1_555 1_555
C21 C20 1_555 1_555
H15 C21 1_555 1_555
C22 C21 1_555 1_555
H16 C22 1_555 1_555
C23 C18 1_555 1_555
C24 H17 1_555 1_555
C25 C24 1_555 1_555
H18 C25 1_555 1_555
C26 H19 1_555 1_555
C27 C26 1_555 1_555
H20 C27 1_555 1_555
C28 C24 1_555 1_555
N1 C8 1_555 1_555
N2 C23 1_555 1_555
Sm1A O5 1_555 1_555
Sm1A_2 O3 1_555 1_555
Sm2_2 O7 1_555 1_555
Sm2A O12 1_555 1_555
O3A Sm1 1_555 1_555
O4A Sm1 1_555 1_555
O5A Sm1 1_555 1_555
O7_2 Sm2 1_555 1_555
O9_2 Sm2 1_555 1_555
O12A Sm2 1_555 1_555
O13A Sm2 1_555 1_555
O4 Sm1A_2 1_555 1_555
O9 Sm2_2 1_555 1_555
O11 C16 1_555 1_555
O13 Sm2A 1_555 1_555
C7 C8 1_555 1_555
C10 N1 1_555 1_555
C11 N1 1_555 1_555
C12 C13 1_555 1_555
C14 C15 1_555 1_555
C22 C23 1_555 1_555
C25 N2 1_555 1_555
C26 N2 1_555 1_555
C27 C28 1_555 1_555

#END
