
#######################################################################
#
#                 Cambridge Crystallographic Data Centre
#                                CCDC 
#
#######################################################################
#
# If this CIF has been generated from an entry in the Cambridge 
# Structural Database, then it will include bibliographic, chemical, 
# crystal, experimental, refinement or atomic coordinate data resulting 
# from the CCDC's data processing and validation procedures.
#
#######################################################################

data_CIBQUA
_symmetry_cell_setting           triclinic
_symmetry_space_group_name_H-M   'P -1'
_symmetry_Int_Tables_number      2
_space_group_name_Hall           '-P 1'
loop_
_symmetry_equiv_pos_site_id
_symmetry_equiv_pos_as_xyz
1 x,y,z
2 -x,-y,-z
_cell_length_a                   8.188(5)
_cell_length_b                   10.088(5)
_cell_length_c                   10.387(5)
_cell_angle_alpha                92.225(5)
_cell_angle_beta                 107.715(5)
_cell_angle_gamma                98.241(5)
_cell_volume                     805.751
loop_
_atom_site_label
_atom_site_type_symbol
_atom_site_fract_x
_atom_site_fract_y
_atom_site_fract_z
Pb1 Pb -0.25145(4) 0.51061(3) -0.03847(3)
Pb2 Pb 0.57271(4) 1.11970(3) -0.30717(3)
O1 O 0.4147(8) 1.1256(6) -0.1515(7)
O2 O -0.0118(9) 0.4635(7) 0.1417(6)
O3 O 0.3498(8) 0.9296(6) 0.5663(7)
O4 O 0.4791(10) 0.8406(7) 0.7587(7)
O5 O 0.5334(9) 0.3620(6) 0.7076(7)
O6 O -0.1072(10) 0.7458(7) -0.0113(8)
N1 N 0.2524(10) 1.0486(7) -0.1761(8)
O7 O -0.1587(10) 0.5955(7) 0.2194(7)
C1 C 0.3006(11) 0.6922(9) 0.5672(9)
C2 C 0.1659(11) 0.6756(9) 0.4500(9)
H1 H 0.1127 0.7490 0.4196
C3 C 0.3170(12) 0.4542(9) 0.5446(9)
C4 C 0.3787(13) 0.8305(9) 0.6366(10)
C5 C 0.1874(12) 0.4416(9) 0.4234(9)
H2 H 0.1528 0.3588 0.3725
C6 C 0.4007(13) 0.3411(9) 0.5981(10)
C7 C 0.1048(13) 0.5509(9) 0.3736(10)
C8 C -0.0669(13) 0.9019(9) -0.2179(10)
H3 H -0.1772 0.8539 -0.2307
O8 O 0.1767(9) 0.7557(7) 0.0774(7)
C9 C 0.0702(12) 0.8877(9) -0.1034(10)
C10 C -0.0377(11) 0.5363(9) 0.2363(9)
C11 C 0.1232(12) 1.0627(9) -0.2887(9)
H4 H 0.1430 1.1228 -0.3501
C12 C -0.0387(12) 0.9873(10) -0.3121(10)
H5 H -0.1283 0.9939 -0.3908
C13 C 0.3727(12) 0.5823(9) 0.6145(9)
H6 H 0.4623 0.5931 0.6964
C14 C 0.2301(12) 0.9612(9) -0.0871(10)
H7 H 0.3243 0.9504 -0.0133
C15 C 0.0437(12) 0.7876(9) -0.0039(10)
O9 O 0.3475(9) 0.2246(6) 0.5379(7)
O10 O -0.5063(10) 0.6604(7) -0.0367(7)
H8 H -0.471(14) 0.718(9) 0.033(7)
H9 H -0.520(11) 0.707(7) -0.105(6)
Pb1A Pb 0.25145(4) 0.48939(3) 0.03847(3)
Pb1A_2 Pb -0.74855(4) 0.48939(3) 0.03847(3)
Pb2_2 Pb 0.57271(4) 1.11970(3) 0.69283(3)
Pb2_3 Pb 0.57271(4) 0.11970(3) 0.69283(3)
Pb2A Pb 0.42729(4) 0.88030(3) 0.30717(3)
O2A O 0.0118(9) 0.5365(7) -0.1417(6)
O3_2 O 0.3498(8) 0.9296(6) -0.4337(7)
O5_2 O 0.5334(9) 1.3620(6) -0.2924(7)
O8A O 0.8233(9) 1.2443(7) -0.0774(7)
O9_2 O 0.3475(9) 1.2246(6) -0.4621(7)
O10A O -0.4937(10) 0.3396(7) 0.0367(7)
H8A H -0.529(14) 0.282(9) -0.033(7)
H9A H -0.480(11) 0.293(7) 0.105(6)
loop_
_geom_bond_atom_site_label_1
_geom_bond_atom_site_label_2
_geom_bond_site_symmetry_1
_geom_bond_site_symmetry_2
Pb1 O2 1_555 1_555
Pb2 O1 1_555 1_555
O1 N1 1_555 1_555
O2 C10 1_555 1_555
O3 C4 1_555 1_555
O4 C4 1_555 1_555
O5 C6 1_555 1_555
O6 Pb1 1_555 1_555
N1 C11 1_555 1_555
O7 Pb1 1_555 1_555
C1 C2 1_555 1_555
C2 H1 1_555 1_555
C3 C5 1_555 1_555
C4 C1 1_555 1_555
C5 H2 1_555 1_555
C6 C3 1_555 1_555
C7 C2 1_555 1_555
C8 H3 1_555 1_555
O8 C15 1_555 1_555
C9 C8 1_555 1_555
C10 O7 1_555 1_555
C11 H4 1_555 1_555
C12 C8 1_555 1_555
H5 C12 1_555 1_555
C13 C1 1_555 1_555
H6 C13 1_555 1_555
C14 N1 1_555 1_555
H7 C14 1_555 1_555
C15 O6 1_555 1_555
O9 C6 1_555 1_555
O10 Pb1 1_555 1_555
H8 O10 1_555 1_555
H9 O10 1_555 1_555
Pb1A O2 1_555 1_555
Pb1A_2 O10 1_555 1_555
Pb2_2 O3 1_555 1_555
Pb2_3 O5 1_555 1_555
Pb2A O8 1_555 1_555
O2A Pb1 1_555 1_555
O3_2 Pb2 1_555 1_555
O5_2 Pb2 1_555 1_555
O8A Pb2 1_555 1_555
O9_2 Pb2 1_555 1_555
O10A Pb1 1_555 1_555
H8A O10A 1_555 1_555
H9A O10A 1_555 1_555
C3 C13 1_555 1_555
C5 C7 1_555 1_555
C7 C10 1_555 1_555
C9 C14 1_555 1_555
C9 C15 1_555 1_555
C11 C12 1_555 1_555
O9 Pb2_3 1_555 1_555
Pb1A O2A 1_555 1_555
Pb1A_2 O10A 1_555 1_555

#END
