
#######################################################################
#
#                 Cambridge Crystallographic Data Centre
#                                CCDC 
#
#######################################################################
#
# If this CIF has been generated from an entry in the Cambridge 
# Structural Database, then it will include bibliographic, chemical, 
# crystal, experimental, refinement or atomic coordinate data resulting 
# from the CCDC's data processing and validation procedures.
#
#######################################################################

data_CIBQOU
_symmetry_cell_setting           monoclinic
_symmetry_space_group_name_H-M   'P 21/c'
_symmetry_Int_Tables_number      14
_space_group_name_Hall           '-P 2ybc'
loop_
_symmetry_equiv_pos_site_id
_symmetry_equiv_pos_as_xyz
1 x,y,z
2 -x,1/2+y,1/2-z
3 -x,-y,-z
4 x,1/2-y,1/2+z
_cell_length_a                   10.684(5)
_cell_length_b                   11.365(5)
_cell_length_c                   7.298(5)
_cell_angle_alpha                90
_cell_angle_beta                 97.198(5)
_cell_angle_gamma                90
_cell_volume                     879.166
loop_
_atom_site_label
_atom_site_type_symbol
_atom_site_fract_x
_atom_site_fract_y
_atom_site_fract_z
Pb1 Pb 0.83960(4) 1.11791(3) 0.38548(5)
O1 O 0.9197(8) 0.9922(7) 0.6593(11)
N1 N 0.3037(10) 1.1640(10) 0.7056(15)
O2 O 0.6477(8) 1.1066(7) 0.5209(14)
C1 C 0.4193(12) 1.1450(12) 0.6482(19)
H1 H 0.4471 1.0683 0.6346
O3 O 0.2346(8) 1.0728(8) 0.7544(13)
O4 O 0.9367(9) 1.1829(8) 0.7122(11)
O5 O 0.6923(8) 1.2976(8) 0.5254(13)
C2 C 0.9471(11) 1.0774(11) 0.7652(15)
C3 C 0.4950(11) 1.2374(11) 0.6105(15)
C4 C 0.6219(11) 1.2142(11) 0.5486(16)
C5 C 0.2592(12) 1.2734(11) 0.7218(17)
H2 H 0.1795 1.2843 0.7579
C6 C 0.9940(11) 1.0542(11) 0.9657(16)
H3 H 1.0152 1.1177 1.0437
C7 C 0.4515(13) 1.3505(12) 0.6266(18)
H4 H 0.4997 1.4148 0.5999
C8 C 0.3278(15) 1.3663(12) 0.687(2)
H5 H 0.2966 1.4418 0.7004
Pb1B Pb 1.16040(4) 0.88209(3) 1.61452(5)
Pb1B_2 Pb 0.16040(4) 0.88209(3) 0.61452(5)
O1B O 1.0803(8) 1.0078(7) 1.3407(11)
N1B N 0.6963(10) 0.8360(10) 0.2944(15)
O2B O 0.3523(8) 0.8934(7) 0.4791(14)
O2B_2 O 1.3523(8) 0.8934(7) 1.4791(14)
C1B C 0.5807(12) 0.8550(12) 0.3518(19)
H1B H 0.5529 0.9317 0.3654
O3B O 0.7654(8) 0.9272(8) 0.2456(13)
O3_2 O 1.2346(8) 1.0728(8) 1.7544(13)
O4B O 1.0633(9) 0.8171(8) 1.2878(11)
O5B O 0.3077(8) 0.7024(8) 0.4746(13)
C2B C 1.0529(11) 0.9226(11) 1.2348(15)
C3B C 0.5050(11) 0.7626(11) 0.3895(15)
C4B C 0.3781(11) 0.7858(11) 0.4514(16)
C5B C 0.7408(12) 0.7266(11) 0.2782(17)
H2B H 0.8205 0.7157 0.2421
C6B C 1.0060(11) 0.9458(11) 1.0343(16)
H3B H 0.9848 0.8823 0.9563
C7B C 0.5485(13) 0.6495(12) 0.3734(18)
H4B H 0.5003 0.5852 0.4001
C8B C 0.6722(15) 0.6337(12) 0.313(2)
H5B H 0.7034 0.5582 0.2996
loop_
_geom_bond_atom_site_label_1
_geom_bond_atom_site_label_2
_geom_bond_site_symmetry_1
_geom_bond_site_symmetry_2
Pb1 O1 1_555 1_555
O1 C2 1_555 1_555
N1 C1 1_555 1_555
O2 Pb1 1_555 1_555
C1 H1 1_555 1_555
O3 N1 1_555 1_555
O4 Pb1 1_555 1_555
O5 C4 1_555 1_555
C2 O4 1_555 1_555
C3 C1 1_555 1_555
C4 O2 1_555 1_555
C5 N1 1_555 1_555
H2 C5 1_555 1_555
C6 C2 1_555 1_555
H3 C6 1_555 1_555
C7 C3 1_555 1_555
H4 C7 1_555 1_555
C8 C5 1_555 1_555
H5 C8 1_555 1_555
Pb1B O1B 1_555 1_555
Pb1B_2 O3 1_555 1_555
O1B C2B 1_555 1_555
N1B C1B 1_555 1_555
O2B Pb1B_2 1_555 1_555
O2B_2 Pb1B 1_555 1_555
C1B H1B 1_555 1_555
O3B Pb1 1_555 1_555
O3_2 Pb1B 1_555 1_555
O4B Pb1B 1_555 1_555
O5B C4B 1_555 1_555
C2B O4B 1_555 1_555
C3B C1B 1_555 1_555
C4B O2B 1_555 1_555
C5B N1B 1_555 1_555
H2B C5B 1_555 1_555
C6B C6 1_555 1_555
H3B C6B 1_555 1_555
C7B C3B 1_555 1_555
H4B C7B 1_555 1_555
C8B C5B 1_555 1_555
H5B C8B 1_555 1_555
C3 C4 1_555 1_555
C7 C8 1_555 1_555
N1B O3B 1_555 1_555
C2B C6B 1_555 1_555
C3B C4B 1_555 1_555
C7B C8B 1_555 1_555

#END
