
#######################################################################
#
#                 Cambridge Crystallographic Data Centre
#                                CCDC 
#
#######################################################################
#
# If this CIF has been generated from an entry in the Cambridge 
# Structural Database, then it will include bibliographic, chemical, 
# crystal, experimental, refinement or atomic coordinate data resulting 
# from the CCDC's data processing and validation procedures.
#
#######################################################################

data_CIBQUZ
_symmetry_cell_setting           monoclinic
_symmetry_space_group_name_H-M   'P 21/c'
_symmetry_Int_Tables_number      14
_space_group_name_Hall           '-P 2ybc'
loop_
_symmetry_equiv_pos_site_id
_symmetry_equiv_pos_as_xyz
1 x,y,z
2 x,1/2-y,1/2+z
3 -x,-y,-z
4 -x,1/2+y,1/2-z
_cell_length_a                   6.5848(15)
_cell_length_b                   9.991(4)
_cell_length_c                   19.688(6)
_cell_angle_alpha                90
_cell_angle_beta                 93.31(3)
_cell_angle_gamma                90
_cell_volume                     1293.09
loop_
_atom_site_label
_atom_site_type_symbol
_atom_site_fract_x
_atom_site_fract_y
_atom_site_fract_z
Sn1 Sn 0.43129(7) 0.43723(5) -0.28038(2)
O1 O 0.3498(9) 0.2800(5) -0.3558(3)
O2 O 0.4945(9) 0.1244(6) -0.2897(3)
O3 O 0.4406(9) 0.1879(8) -0.5215(3)
O4 O -0.0976(12) 0.0980(9) -0.3960(4)
N1 N 0.2030(11) 0.1115(7) -0.4498(3)
C1 C 0.2687(15) 0.5749(9) -0.3446(5)
H1 H 0.3637 0.6224 -0.3726
H2 H 0.1984 0.6395 -0.3167
H3 H 0.1688 0.5266 -0.3741
C2 C 0.7494(14) 0.4166(11) -0.2921(7)
H4 H 0.8215 0.4135 -0.2472
H5 H 0.7981 0.4931 -0.3178
H6 H 0.7749 0.3337 -0.3169
C3 C 0.2775(13) 0.3479(9) -0.2013(4)
H7 H 0.3758 0.3021 -0.1701
H8 H 0.1785 0.2829 -0.2205
H9 H 0.2065 0.4170 -0.1765
C4 C 0.3995(12) 0.1603(7) -0.3433(4)
C5 C 0.3382(15) 0.0570(9) -0.3963(4)
H10 H 0.4617 0.0215 -0.4164
H11 H 0.2698 -0.0184 -0.3743
C6 C 0.2685(12) 0.1827(9) -0.5044(4)
C7 C 0.0836(13) 0.2479(10) -0.5370(5)
H12 H 0.0791 0.2999 -0.5774
C8 C -0.0712(13) 0.2215(11) -0.5004(5)
H13 H -0.2068 0.2515 -0.5100
C9 C -0.0020(14) 0.1382(10) -0.4421(5)
O2C O 0.5055(9) 0.6244(6) -0.2103(3)
Sn1C Sn 0.56871(7) -0.06277(5) -0.21962(2)
loop_
_geom_bond_atom_site_label_1
_geom_bond_atom_site_label_2
_geom_bond_site_symmetry_1
_geom_bond_site_symmetry_2
Sn1 O1 1_555 1_555
O1 C4 1_555 1_555
O2 C4 1_555 1_555
O3 C6 1_555 1_555
O4 C9 1_555 1_555
N1 C5 1_555 1_555
C1 Sn1 1_555 1_555
H1 C1 1_555 1_555
H2 C1 1_555 1_555
H3 C1 1_555 1_555
C2 Sn1 1_555 1_555
H4 C2 1_555 1_555
H5 C2 1_555 1_555
H6 C2 1_555 1_555
C3 Sn1 1_555 1_555
H7 C3 1_555 1_555
H8 C3 1_555 1_555
H9 C3 1_555 1_555
C4 C5 1_555 1_555
C5 H10 1_555 1_555
H11 C5 1_555 1_555
C6 N1 1_555 1_555
C7 C6 1_555 1_555
H12 C7 1_555 1_555
C8 C7 1_555 1_555
H13 C8 1_555 1_555
C9 N1 1_555 1_555
O2C Sn1 1_555 1_555
Sn1C O2 1_555 1_555
C8 C9 1_555 1_555

#END
