
#######################################################################
#
#                 Cambridge Crystallographic Data Centre
#                                CCDC 
#
#######################################################################
#
# If this CIF has been generated from an entry in the Cambridge 
# Structural Database, then it will include bibliographic, chemical, 
# crystal, experimental, refinement or atomic coordinate data resulting 
# from the CCDC's data processing and validation procedures.
#
#######################################################################

data_CIBRIP
_symmetry_cell_setting           monoclinic
_symmetry_space_group_name_H-M   'C 2'
_symmetry_Int_Tables_number      5
_space_group_name_Hall           'C 2y'
loop_
_symmetry_equiv_pos_site_id
_symmetry_equiv_pos_as_xyz
1 x,y,z
2 -x,y,-z
3 1/2+x,1/2+y,z
4 1/2-x,1/2+y,-z
_cell_length_a                   13.535(3)
_cell_length_b                   14.303(3)
_cell_length_c                   19.502(4)
_cell_angle_alpha                90
_cell_angle_beta                 97.149(3)
_cell_angle_gamma                90
_cell_volume                     3746.06
loop_
_atom_site_label
_atom_site_type_symbol
_atom_site_fract_x
_atom_site_fract_y
_atom_site_fract_z
Cu1 Cu 0.19535(10) 0.36627(14) 0.25578(5)
O1 O 0.2407(5) 0.3573(7) 0.1634(3)
O2 O 0.2222(7) 0.5091(8) 0.1340(6)
O3 O 0.1083(9) 0.5048(9) 0.2350(5)
O8 O 0.1635(7) 0.3623(12) 0.3523(4)
O9 O 0.2583(8) 0.2366(10) 0.3500(6)
C1 C 0.2521(8) 0.4280(12) 0.1248(5)
C2 C 0.3080(8) 0.4048(7) 0.0634(6)
C3 C 0.2386(7) 0.3574(10) 0.0037(4)
C4 C 0.3014(7) 0.3675(12) -0.0573(4)
H1 H 0.3585 0.3228 -0.0502
C5 C 0.2423(10) 0.3491(15) -0.1279(7)
O10 O 0.1897(8) 0.4119(10) -0.1581(5)
N1 N 0.2516(8) 0.2724(10) -0.1538(5)
H2 H 0.2963 0.2337 -0.1330
C6 C 0.3433(9) 0.4712(9) -0.0506(6)
H3 H 0.4135 0.4734 -0.0599
H4 H 0.3032 0.5135 -0.0832
C7 C 0.3346(9) 0.4996(9) 0.0262(7)
H5 H 0.2815 0.5467 0.0281
H6 H 0.3983 0.5258 0.0486
C8 C 0.4022(7) 0.3525(12) 0.0895(5)
H7 H 0.4387 0.3376 0.0506
H8 H 0.3850 0.2945 0.1120
H9 H 0.4439 0.3915 0.1228
C9 C 0.1390(8) 0.4033(11) -0.0090(6)
H10 H 0.1025 0.3924 0.0306
H11 H 0.1015 0.3770 -0.0508
H12 H 0.1477 0.4707 -0.0152
C10 C 0.2219(9) 0.2520(9) 0.0184(5)
H13 H 0.2865 0.2206 0.0282
H14 H 0.1837 0.2232 -0.0222
H15 H 0.1851 0.2458 0.0583
C11 C 0.1893(10) 0.2398(13) -0.2205(6)
H16 H 0.1949 0.2862 -0.2575
H17 H 0.2158 0.1796 -0.2353
N2 N -0.0847(8) 0.2765(7) -0.2248(4)
C12 C 0.0138(9) 0.2933(7) -0.2343(4)
H18 H 0.0311 0.3491 -0.2565
C13 C 0.0871(6) 0.2285(10) -0.2114(5)
C14 C 0.0618(8) 0.1469(9) -0.1790(5)
H19 H 0.1119 0.1026 -0.1633
C15 C -0.0367(9) 0.1302(6) -0.1695(5)
H20 H -0.0540 0.0744 -0.1474
C16 C -0.1100(6) 0.1950(8) -0.1924(5)
H21 H -0.1773 0.1835 -0.1859
C17 C 0.2056(13) 0.2879(16) 0.3748(9)
C18 C 0.1883(12) 0.2682(16) 0.4546(7)
C19 C 0.2852(13) 0.2917(16) 0.5057(6)
C20 C 0.2437(13) 0.2840(18) 0.5747(6)
H22 H 0.2289 0.2164 0.5817
C21 C 0.3191(19) 0.314(2) 0.6351(11)
O11 O 0.3861(12) 0.2588(17) 0.6570(8)
N3 N 0.3196(15) 0.3853(16) 0.6640(9)
H23 H 0.2750 0.4287 0.6514
C22 C 0.1526(15) 0.3307(19) 0.5646(8)
H24 H 0.1584 0.3940 0.5852
H25 H 0.1008 0.2954 0.5854
C23 C 0.1265(14) 0.336(2) 0.4831(8)
H26 H 0.0552 0.3220 0.4694
H27 H 0.1404 0.3998 0.4664
C24 C 0.1485(19) 0.190(2) 0.4560(13)
H28 H 0.1922 0.1426 0.4395
H29 H 0.0846 0.1904 0.4262
H30 H 0.1373 0.1753 0.5036
C25 C 0.3455(12) 0.3630(17) 0.4918(6)
H31 H 0.3664 0.3540 0.4459
H32 H 0.4044 0.3644 0.5266
H33 H 0.3094 0.4223 0.4927
C26 C 0.356(2) 0.209(2) 0.4988(13)
H34 H 0.3225 0.1502 0.5087
H35 H 0.4163 0.2162 0.5316
H36 H 0.3736 0.2065 0.4516
C27 C 0.4053(11) 0.4010(15) 0.7275(6)
H37 H 0.3823 0.4470 0.7599
H38 H 0.4186 0.3413 0.7527
N4 N 0.6750(7) 0.4270(7) 0.7105(4)
C28 C 0.5858(10) 0.3899(6) 0.7265(4)
H39 H 0.5859 0.3341 0.7530
C29 C 0.4964(7) 0.4343(9) 0.7038(5)
C30 C 0.4962(7) 0.5159(9) 0.6651(6)
H40 H 0.4350 0.5463 0.6496
C31 C 0.5854(9) 0.5531(6) 0.6491(5)
H41 H 0.5852 0.6088 0.6226
C32 C 0.6748(7) 0.5086(7) 0.6718(4)
H42 H 0.7358 0.5340 0.6609
Cu1A Cu -0.19535(10) 0.36627(14) -0.25578(5)
Cu1A_2 Cu 0.80465(10) 0.36627(14) 0.74422(5)
N2A N 0.0847(8) 0.2765(7) 0.2248(4)
N4A N 0.3250(7) 0.4270(7) 0.2895(4)
O4 O 0.5738(11) 0.1410(7) 0.0729(7)
O5 O 0.4180(12) 0.0870(10) 0.1669(9)
O6 O 0.5200(18) 0.0250(18) 0.3661(11)
O7 O 0.3267(18) 0.060(2) 0.3242(13)
loop_
_geom_bond_atom_site_label_1
_geom_bond_atom_site_label_2
_geom_bond_site_symmetry_1
_geom_bond_site_symmetry_2
Cu1 O1 1_555 1_555
O1 C1 1_555 1_555
O2 C1 1_555 1_555
O3 Cu1 1_555 1_555
O8 Cu1 1_555 1_555
O9 C17 1_555 1_555
C1 C2 1_555 1_555
C2 C3 1_555 1_555
C3 C4 1_555 1_555
C4 H1 1_555 1_555
C5 C4 1_555 1_555
O10 C5 1_555 1_555
N1 C5 1_555 1_555
H2 N1 1_555 1_555
C6 C4 1_555 1_555
H3 C6 1_555 1_555
H4 C6 1_555 1_555
C7 C2 1_555 1_555
H5 C7 1_555 1_555
H6 C7 1_555 1_555
C8 C2 1_555 1_555
H7 C8 1_555 1_555
H8 C8 1_555 1_555
H9 C8 1_555 1_555
C9 C3 1_555 1_555
H10 C9 1_555 1_555
H11 C9 1_555 1_555
H12 C9 1_555 1_555
C10 C3 1_555 1_555
H13 C10 1_555 1_555
H14 C10 1_555 1_555
H15 C10 1_555 1_555
C11 N1 1_555 1_555
H16 C11 1_555 1_555
H17 C11 1_555 1_555
N2 C12 1_555 1_555
C12 H18 1_555 1_555
C13 C11 1_555 1_555
C14 C13 1_555 1_555
H19 C14 1_555 1_555
C15 C14 1_555 1_555
H20 C15 1_555 1_555
C16 N2 1_555 1_555
H21 C16 1_555 1_555
C17 O8 1_555 1_555
C18 C17 1_555 1_555
C19 C18 1_555 1_555
C20 C19 1_555 1_555
H22 C20 1_555 1_555
C21 C20 1_555 1_555
O11 C21 1_555 1_555
N3 C21 1_555 1_555
H23 N3 1_555 1_555
C22 C20 1_555 1_555
H24 C22 1_555 1_555
H25 C22 1_555 1_555
C23 C18 1_555 1_555
H26 C23 1_555 1_555
H27 C23 1_555 1_555
C24 C18 1_555 1_555
H28 C24 1_555 1_555
H29 C24 1_555 1_555
H30 C24 1_555 1_555
C25 C19 1_555 1_555
H31 C25 1_555 1_555
H32 C25 1_555 1_555
H33 C25 1_555 1_555
C26 C19 1_555 1_555
H34 C26 1_555 1_555
H35 C26 1_555 1_555
H36 C26 1_555 1_555
C27 N3 1_555 1_555
H37 C27 1_555 1_555
H38 C27 1_555 1_555
N4 C28 1_555 1_555
C28 H39 1_555 1_555
C29 C27 1_555 1_555
C30 C29 1_555 1_555
H40 C30 1_555 1_555
C31 C30 1_555 1_555
H41 C31 1_555 1_555
C32 N4 1_555 1_555
H42 C32 1_555 1_555
Cu1A N2 1_555 1_555
Cu1A_2 N4 1_555 1_555
N2A Cu1 1_555 1_555
N4A Cu1 1_555 1_555
C6 C7 1_555 1_555
C12 C13 1_555 1_555
C15 C16 1_555 1_555
C22 C23 1_555 1_555
C28 C29 1_555 1_555
C31 C32 1_555 1_555

#END
