
#######################################################################
#
#                 Cambridge Crystallographic Data Centre
#                                CCDC 
#
#######################################################################
#
# If this CIF has been generated from an entry in the Cambridge 
# Structural Database, then it will include bibliographic, chemical, 
# crystal, experimental, refinement or atomic coordinate data resulting 
# from the CCDC's data processing and validation procedures.
#
#######################################################################

data_CIBROV
_symmetry_cell_setting           triclinic
_symmetry_space_group_name_H-M   'P -1'
_symmetry_Int_Tables_number      2
_space_group_name_Hall           '-P 1'
loop_
_symmetry_equiv_pos_site_id
_symmetry_equiv_pos_as_xyz
1 x,y,z
2 -x,-y,-z
_cell_length_a                   9.413(13)
_cell_length_b                   12.387(16)
_cell_length_c                   16.46(2)
_cell_angle_alpha                111.01(2)
_cell_angle_beta                 101.63(3)
_cell_angle_gamma                93.03(3)
_cell_volume                     1738.33
loop_
_atom_site_label
_atom_site_type_symbol
_atom_site_fract_x
_atom_site_fract_y
_atom_site_fract_z
Cu1 Cu 1.04107(19) 0.85011(12) 0.14683(8)
Cu2 Cu 0.52626(18) 0.49694(12) 0.42256(8)
I1 I 0.34614(11) 0.63420(7) 0.50138(5)
N1 N 0.6854(12) 0.5929(8) 0.3918(5)
N2 N 1.0777(15) 0.7023(9) 0.2514(7)
N3 N 1.1441(15) 0.7517(9) 0.2023(6)
N4 N 1.2734(13) 0.8487(8) 0.1082(6)
N5 N 0.6028(11) 0.5996(8) -0.2939(5)
N6 N 0.8412(10) 0.9003(7) 0.0113(5)
N7 N 0.9308(10) 0.9484(8) 0.0961(5)
N8 N 1.1153(12) 1.0230(8) 0.2512(6)
O1 O 0.8865(9) 0.8014(7) 0.2200(5)
O2 O 0.9271(9) 0.7308(6) 0.0162(4)
C1 C 0.9442(17) 0.7348(11) 0.2552(7)
C2 C 0.8626(16) 0.6879(10) 0.3071(7)
C3 C 0.7413(18) 0.7356(10) 0.3283(7)
H1 H 0.7147 0.7997 0.3150
C4 C 0.6587(16) 0.6862(10) 0.3700(7)
H2 H 0.5770 0.7207 0.3844
C5 C 0.8060(17) 0.5516(11) 0.3715(8)
H3 H 0.8294 0.4863 0.3839
C6 C 0.9023(17) 0.5974(11) 0.3326(8)
H4 H 0.9893 0.5675 0.3245
C7 C 1.2744(18) 0.7342(11) 0.1986(8)
H5 H 1.3222 0.6900 0.2280
C8 C 1.3507(18) 0.7846(11) 0.1470(7)
C9 C 1.4910(19) 0.7678(12) 0.1413(8)
H6 H 1.5418 0.7233 0.1692
C10 C 1.555(2) 0.8177(13) 0.0937(9)
H7 H 1.6501 0.8071 0.0881
C11 C 1.478(2) 0.8831(14) 0.0545(10)
H8 H 1.5213 0.9197 0.0234
C12 C 1.330(2) 0.8955(13) 0.0613(10)
H9 H 1.2753 0.9369 0.0321
C13 C 0.8485(13) 0.7848(10) -0.0228(6)
C14 C 0.7623(13) 0.7236(10) -0.1169(7)
C15 C 0.7741(13) 0.6068(9) -0.1645(6)
H10 H 0.8332 0.5659 -0.1369
C16 C 0.6982(15) 0.5531(9) -0.2519(7)
H11 H 0.7156 0.4781 -0.2836
C17 C 0.5865(15) 0.7107(10) -0.2466(7)
H12 H 0.5178 0.7460 -0.2738
C18 C 0.6647(14) 0.7742(9) -0.1612(6)
H13 H 0.6519 0.8516 -0.1331
C19 C 0.9402(15) 1.0579(10) 0.1445(7)
H14 H 0.8843 1.1062 0.1233
C20 C 1.0389(15) 1.1040(10) 0.2320(7)
C21 C 1.0603(16) 1.2187(10) 0.2883(8)
H15 H 1.0036 1.2707 0.2728
C22 C 1.1657(18) 1.2580(12) 0.3680(9)
H16 H 1.1849 1.3359 0.4068
C23 C 1.2383(17) 1.1753(14) 0.3852(9)
H17 H 1.3095 1.1968 0.4385
C24 C 1.2118(18) 1.0588(13) 0.3271(9)
H18 H 1.2647 1.0052 0.3430
Cu2A Cu 0.47374(18) 0.50306(12) 0.57744(8)
Cu2A_2 Cu 0.47374(18) 0.50306(12) -0.42256(8)
I1A I 0.65386(11) 0.36580(7) 0.49862(5)
N5A N 0.3972(11) 0.4004(8) 0.2939(5)
N9 N 0.7383(16) 0.4289(11) 0.0928(7)
O3 O 0.777(2) 0.2933(12) 0.1573(10)
C25 C 0.815(3) 0.3487(15) 0.1160(12)
H19 H 0.9028 0.3361 0.0986
C26 C 0.607(2) 0.4508(14) 0.1189(10)
H20 H 0.5661 0.5084 0.0983
H21 H 0.6255 0.4791 0.1831
H22 H 0.5393 0.3799 0.0934
C27 C 0.788(2) 0.4941(15) 0.0443(9)
H23 H 0.7182 0.5451 0.0356
H24 H 0.7974 0.4410 -0.0129
H25 H 0.8812 0.5394 0.0779
N10 N 0.739(3) 0.0542(19) 0.4096(17)
O4 O 0.5161(18) -0.0423(13) 0.3805(11)
C28 C 0.646(5) 0.016(3) 0.440(2)
H26 H 0.6639 0.0272 0.5001
C29 C 0.717(3) 0.0515(16) 0.3249(13)
H27 H 0.8031 0.0882 0.3178
H28 H 0.6358 0.0924 0.3137
H29 H 0.6952 -0.0282 0.2833
C30 C 0.867(3) 0.1076(17) 0.4827(16)
H30 H 0.9405 0.1401 0.4621
H31 H 0.9043 0.0497 0.5041
H32 H 0.8403 0.1685 0.5304
loop_
_geom_bond_atom_site_label_1
_geom_bond_atom_site_label_2
_geom_bond_site_symmetry_1
_geom_bond_site_symmetry_2
Cu1 N3 1_555 1_555
Cu2 I1 1_555 1_555
I1 Cu2A 1_555 1_555
N1 Cu2 1_555 1_555
N2 N3 1_555 1_555
N3 C7 1_555 1_555
N4 Cu1 1_555 1_555
N5 C16 1_555 1_555
N6 N7 1_555 1_555
N7 Cu1 1_555 1_555
N8 Cu1 1_555 1_555
N9 C25 1_555 1_555
N10 C28 1_555 1_555
O1 Cu1 1_555 1_555
O2 Cu1 1_555 1_555
O3 C25 1_555 1_555
O4 C28 1_555 1_555
C1 N2 1_555 1_555
C2 C1 1_555 1_555
C3 C2 1_555 1_555
H1 C3 1_555 1_555
C4 N1 1_555 1_555
H2 C4 1_555 1_555
C5 N1 1_555 1_555
H3 C5 1_555 1_555
C6 C2 1_555 1_555
H4 C6 1_555 1_555
C7 H5 1_555 1_555
C8 N4 1_555 1_555
C9 C8 1_555 1_555
H6 C9 1_555 1_555
C10 C9 1_555 1_555
H7 C10 1_555 1_555
C11 C10 1_555 1_555
H8 C11 1_555 1_555
C12 N4 1_555 1_555
H9 C12 1_555 1_555
C13 N6 1_555 1_555
C14 C13 1_555 1_555
C15 C14 1_555 1_555
H10 C15 1_555 1_555
C16 C15 1_555 1_555
H11 C16 1_555 1_555
C17 N5 1_555 1_555
H12 C17 1_555 1_555
C18 C14 1_555 1_555
H13 C18 1_555 1_555
C19 N7 1_555 1_555
H14 C19 1_555 1_555
C20 N8 1_555 1_555
C21 C20 1_555 1_555
H15 C21 1_555 1_555
C22 C21 1_555 1_555
H16 C22 1_555 1_555
C23 C22 1_555 1_555
H17 C23 1_555 1_555
C24 N8 1_555 1_555
H18 C24 1_555 1_555
C25 H19 1_555 1_555
C26 N9 1_555 1_555
H20 C26 1_555 1_555
H21 C26 1_555 1_555
H22 C26 1_555 1_555
C27 N9 1_555 1_555
H23 C27 1_555 1_555
H24 C27 1_555 1_555
H25 C27 1_555 1_555
C28 H26 1_555 1_555
C29 N10 1_555 1_555
H27 C29 1_555 1_555
H28 C29 1_555 1_555
H29 C29 1_555 1_555
C30 N10 1_555 1_555
H30 C30 1_555 1_555
H31 C30 1_555 1_555
H32 C30 1_555 1_555
Cu2A I1A 1_555 1_555
Cu2A_2 N5 1_555 1_555
I1A Cu2 1_555 1_555
N5A Cu2 1_555 1_555
O1 C1 1_555 1_555
O2 C13 1_555 1_555
C3 C4 1_555 1_555
C5 C6 1_555 1_555
C7 C8 1_555 1_555
C11 C12 1_555 1_555
C17 C18 1_555 1_555
C19 C20 1_555 1_555
C23 C24 1_555 1_555

#END
