
#######################################################################
#
#                 Cambridge Crystallographic Data Centre
#                                CCDC 
#
#######################################################################
#
# If this CIF has been generated from an entry in the Cambridge 
# Structural Database, then it will include bibliographic, chemical, 
# crystal, experimental, refinement or atomic coordinate data resulting 
# from the CCDC's data processing and validation procedures.
#
#######################################################################

data_CIBTIR
_symmetry_cell_setting           orthorhombic
_symmetry_space_group_name_H-M   'P n a 21'
_symmetry_Int_Tables_number      33
_space_group_name_Hall           'P 2c -2n'
loop_
_symmetry_equiv_pos_site_id
_symmetry_equiv_pos_as_xyz
1 x,y,z
2 1/2-x,1/2+y,1/2+z
3 1/2+x,1/2-y,z
4 -x,-y,1/2+z
_cell_length_a                   14.185(3)
_cell_length_b                   25.051(5)
_cell_length_c                   4.2579(8)
_cell_angle_alpha                90
_cell_angle_beta                 90
_cell_angle_gamma                90
_cell_volume                     1513.04
loop_
_atom_site_label
_atom_site_type_symbol
_atom_site_fract_x
_atom_site_fract_y
_atom_site_fract_z
Pb1 Pb 0.976772(10) 0.573876(5) 0.07992(13)
O1 O 0.9113(2) 0.51538(11) -0.3988(15)
O2 O 0.8042(3) 0.54421(15) -0.0616(9)
O3 O 1.0916(2) 0.59346(13) -0.4608(15)
O4 O 1.0506(3) 0.65672(16) -0.1271(10)
N1 N 0.4603(4) 0.3579(2) -0.5724(14)
N2 N 1.3735(3) 0.84460(18) -0.7342(11)
C1 C 0.8281(4) 0.5142(2) -0.2817(12)
C2 C 0.7602(3) 0.47411(17) -0.402(2)
H1 H 0.7800 0.4510 -0.5662
C3 C 0.6742(4) 0.4690(2) -0.2942(13)
H2 H 0.6565 0.4933 -0.1333
C4 C 0.6021(3) 0.43055(18) -0.390(3)
C5 C 0.6223(5) 0.3865(2) -0.5835(15)
H3 H 0.6845 0.3808 -0.6588
C6 C 0.5507(5) 0.3516(3) -0.6624(18)
H4 H 0.5661 0.3215 -0.7876
C7 C 0.4416(4) 0.4007(3) -0.391(3)
H5 H 0.3788 0.4060 -0.3204
C8 C 0.5094(4) 0.4371(3) -0.3029(16)
H6 H 0.4920 0.4671 -0.1799
C9 C 1.0986(3) 0.63992(19) -0.3531(12)
C10 C 1.1709(4) 0.6761(2) -0.4925(13)
H7 H 1.2111 0.6631 -0.6535
C11 C 1.1800(3) 0.72632(18) -0.396(2)
H8 H 1.1397 0.7378 -0.2311
C12 C 1.2473(4) 0.7657(2) -0.5229(12)
C13 C 1.2323(4) 0.8193(2) -0.459(2)
H9 H 1.1792 0.8302 -0.3394
C14 C 1.2957(4) 0.8567(2) -0.5716(14)
H10 H 1.2831 0.8933 -0.5309
C15 C 1.3878(4) 0.7928(2) -0.7940(14)
H11 H 1.4422 0.7829 -0.9103
C16 C 1.3277(4) 0.7534(2) -0.6956(14)
H12 H 1.3411 0.7172 -0.7461
Pb1_2 Pb 0.976772(10) 0.573876(5) -0.92008(13)
Pb1C Pb 1.023228(10) 0.426124(5) -0.42008(13)
Pb1B Pb 1.476772(10) 0.926124(5) -0.92008(13)
O1_2 O 0.9113(2) 0.51538(11) 0.6012(15)
O1C O 1.0887(2) 0.48462(11) 0.1012(15)
O3_2 O 1.0916(2) 0.59346(13) 0.5392(15)
N2B N 0.8735(3) 0.65540(18) 0.2658(11)
loop_
_geom_bond_atom_site_label_1
_geom_bond_atom_site_label_2
_geom_bond_site_symmetry_1
_geom_bond_site_symmetry_2
Pb1 O1 1_555 1_555
O1 C1 1_555 1_555
O2 Pb1 1_555 1_555
O3 Pb1 1_555 1_555
O4 Pb1 1_555 1_555
N1 C6 1_555 1_555
N2 C14 1_555 1_555
C1 O2 1_555 1_555
C2 C1 1_555 1_555
H1 C2 1_555 1_555
C3 C2 1_555 1_555
H2 C3 1_555 1_555
C4 C3 1_555 1_555
C5 C4 1_555 1_555
H3 C5 1_555 1_555
C6 C5 1_555 1_555
H4 C6 1_555 1_555
C7 N1 1_555 1_555
H5 C7 1_555 1_555
C8 C4 1_555 1_555
H6 C8 1_555 1_555
C9 O3 1_555 1_555
C10 C9 1_555 1_555
H7 C10 1_555 1_555
C11 C10 1_555 1_555
H8 C11 1_555 1_555
C12 C11 1_555 1_555
C13 C12 1_555 1_555
H9 C13 1_555 1_555
C14 C13 1_555 1_555
H10 C14 1_555 1_555
C15 N2 1_555 1_555
H11 C15 1_555 1_555
C16 C12 1_555 1_555
H12 C16 1_555 1_555
Pb1_2 O1 1_555 1_555
Pb1C O1 1_555 1_555
Pb1B N2 1_555 1_555
O1_2 Pb1 1_555 1_555
O1C Pb1 1_555 1_555
O3_2 Pb1 1_555 1_555
N2B Pb1 1_555 1_555
O3 Pb1_2 1_555 1_555
O4 C9 1_555 1_555
C7 C8 1_555 1_555
C15 C16 1_555 1_555
Pb1C O1C 1_555 1_555

#END
