
#######################################################################
#
#                 Cambridge Crystallographic Data Centre
#                                CCDC 
#
#######################################################################
#
# If this CIF has been generated from an entry in the Cambridge 
# Structural Database, then it will include bibliographic, chemical, 
# crystal, experimental, refinement or atomic coordinate data resulting 
# from the CCDC's data processing and validation procedures.
#
#######################################################################

data_CIBXUI
_symmetry_cell_setting           monoclinic
_symmetry_space_group_name_H-M   'P 21/n'
_symmetry_Int_Tables_number      14
_space_group_name_Hall           '-P 2yn'
loop_
_symmetry_equiv_pos_site_id
_symmetry_equiv_pos_as_xyz
1 x,y,z
2 1/2-x,1/2+y,1/2-z
3 -x,-y,-z
4 1/2+x,1/2-y,1/2+z
_cell_length_a                   15.3295(14)
_cell_length_b                   13.9560(13)
_cell_length_c                   20.4822(19)
_cell_angle_alpha                90
_cell_angle_beta                 97.1090(10)
_cell_angle_gamma                90
_cell_volume                     4348.25
loop_
_atom_site_label
_atom_site_type_symbol
_atom_site_fract_x
_atom_site_fract_y
_atom_site_fract_z
Zn1 Zn 0.21712(2) 0.67152(2) 0.251246(16)
K1 K 0.80280(4) 0.63153(5) 0.40609(3)
K2 K 0.21620(4) 0.41775(5) 0.20869(3)
F1 F 0.07414(12) 0.60780(14) 0.32373(10)
F2 F -0.01378(14) 0.59110(19) 0.42985(13)
F3 F 0.00256(17) 0.7292(2) 0.52547(13)
F4 F 0.10775(19) 0.8834(2) 0.51219(12)
F5 F 0.19419(14) 0.90058(14) 0.40588(9)
F6 F 0.33349(11) 0.69678(14) 0.39060(9)
F7 F 0.50212(13) 0.71010(18) 0.44370(10)
F8 F 0.62630(12) 0.5920(2) 0.40214(11)
F9 F 0.57810(13) 0.46149(16) 0.30638(11)
F10 F 0.40847(12) 0.44724(12) 0.25289(9)
F11 F 0.05361(16) 0.45794(14) 0.11473(10)
F12 F -0.09069(17) 0.49977(19) 0.03105(12)
F13 F -0.14917(14) 0.6843(2) 0.01610(12)
F14 F -0.05692(16) 0.82554(17) 0.08449(11)
F15 F 0.08619(13) 0.78400(13) 0.16934(10)
F16 F 0.32301(12) 0.60001(13) 0.13400(9)
F17 F 0.48094(14) 0.53281(16) 0.11221(11)
F18 F 0.63091(13) 0.60349(18) 0.18080(13)
F19 F 0.61863(13) 0.74344(17) 0.27226(12)
F20 F 0.46109(13) 0.82157(14) 0.28723(10)
O1 O 0.81734(18) 0.8207(2) 0.36677(15)
O2 O 0.87517(15) 0.67162(19) 0.29115(11)
O3 O 0.82577(15) 0.48336(19) 0.31802(12)
O4 O 0.80691(15) 0.44132(18) 0.44981(12)
O5 O 0.74850(15) 0.5873(2) 0.52617(11)
O6 O 0.77803(16) 0.7776(2) 0.49406(14)
O7 O 0.28208(12) 0.56178(13) 0.29343(9)
O8 O 0.14226(14) 0.59618(14) 0.18693(10)
O9 O 0.17653(12) 0.76739(14) 0.30868(10)
O10 O 0.30960(13) 0.75150(14) 0.22051(10)
C1 C 0.7562(3) 0.8660(4) 0.4630(2)
H1 H 0.7548 0.9163 0.4963
H2 H 0.6978 0.8619 0.4376
C2 C 0.8229(3) 0.8903(3) 0.4185(3)
H3 H 0.8116 0.9545 0.3999
H4 H 0.8820 0.8897 0.4431
C3 C 0.8783(3) 0.8373(3) 0.3216(3)
H5 H 0.9384 0.8295 0.3436
H6 H 0.8719 0.9028 0.3045
C4 C 0.8610(3) 0.7669(4) 0.2666(2)
H7 H 0.8002 0.7736 0.2457
H8 H 0.9002 0.7799 0.2333
C5 C 0.8579(3) 0.6016(4) 0.24157(18)
H9 H 0.8926 0.6154 0.2055
H10 H 0.7956 0.6035 0.2239
C6 C 0.8808(3) 0.5048(3) 0.2686(2)
H11 H 0.8720 0.4569 0.2334
H12 H 0.9426 0.5031 0.2876
C7 C 0.8464(3) 0.3932(3) 0.3477(2)
H13 H 0.9078 0.3929 0.3678
H14 H 0.8391 0.3428 0.3141
C8 C 0.7884(3) 0.3740(3) 0.3982(2)
H15 H 0.7268 0.3795 0.3790
H16 H 0.7982 0.3088 0.4153
C9 C 0.7585(2) 0.4225(3) 0.50297(18)
H17 H 0.7737 0.3593 0.5218
H18 H 0.6953 0.4237 0.4879
C10 C 0.7813(3) 0.4981(3) 0.55277(18)
H19 H 0.7551 0.4833 0.5929
H20 H 0.8452 0.5016 0.5640
C11 C 0.7536(3) 0.6604(4) 0.57310(19)
H21 H 0.8147 0.6694 0.5927
H22 H 0.7183 0.6439 0.6082
C12 C 0.7197(3) 0.7496(3) 0.5395(2)
H23 H 0.6608 0.7384 0.5162
H24 H 0.7157 0.8005 0.5719
C13 C 0.13502(18) 0.7562(2) 0.36044(15)
C14 C 0.08183(19) 0.6778(2) 0.36956(17)
C15 C 0.0371(2) 0.6692(3) 0.4240(2)
C16 C 0.0454(3) 0.7379(4) 0.47168(19)
C17 C 0.0980(3) 0.8157(3) 0.46523(18)
C18 C 0.1418(2) 0.8237(2) 0.41073(16)
C19 C 0.36387(17) 0.5690(2) 0.32120(13)
C20 C 0.39243(18) 0.6350(2) 0.37058(14)
C21 C 0.4787(2) 0.6428(3) 0.39772(14)
C22 C 0.54109(18) 0.5836(3) 0.37651(15)
C23 C 0.51619(19) 0.5176(2) 0.32877(16)
C24 C 0.43018(19) 0.5100(2) 0.30188(14)
C25 C 0.07634(16) 0.61815(19) 0.15006(14)
C26 C 0.0260(2) 0.5503(2) 0.10889(15)
C27 C -0.0482(2) 0.5715(3) 0.06583(16)
C28 C -0.0768(2) 0.6639(3) 0.05754(17)
C29 C -0.0306(2) 0.7343(3) 0.09276(16)
C30 C 0.04239(18) 0.7119(2) 0.13608(14)
C31 C 0.38603(19) 0.7159(2) 0.20943(14)
C32 C 0.3960(2) 0.6415(2) 0.16545(14)
C33 C 0.4764(2) 0.6049(2) 0.15537(16)
C34 C 0.5454(2) 0.7120(3) 0.23471(18)
C35 C 0.5514(2) 0.6403(3) 0.18964(18)
C36 C 0.4646(2) 0.7505(2) 0.24260(15)
K1_2 K -0.19720(4) 0.63153(5) 0.40609(3)
K2A K 0.28380(4) 0.91775(5) 0.29131(3)
F2_2 F 0.98622(14) 0.59110(19) 0.42985(13)
F5A F 0.30581(14) 0.40058(14) 0.09412(9)
F20A F 0.03891(13) 0.32157(14) 0.21277(10)
O9A O 0.32347(12) 0.26739(14) 0.19132(10)
O10A O 0.19040(13) 0.25150(14) 0.27949(10)
loop_
_geom_bond_atom_site_label_1
_geom_bond_atom_site_label_2
_geom_bond_site_symmetry_1
_geom_bond_site_symmetry_2
Zn1 O7 1_555 1_555
K1 F8 1_555 1_555
K2 F10 1_555 1_555
F1 C14 1_555 1_555
F2 C15 1_555 1_555
F3 C16 1_555 1_555
F4 C17 1_555 1_555
F5 C18 1_555 1_555
F6 C20 1_555 1_555
F7 C21 1_555 1_555
F8 C22 1_555 1_555
F9 C23 1_555 1_555
F10 C24 1_555 1_555
F11 K2 1_555 1_555
F12 C27 1_555 1_555
F13 C28 1_555 1_555
F14 C29 1_555 1_555
F15 C30 1_555 1_555
F16 C32 1_555 1_555
F17 C33 1_555 1_555
F18 C35 1_555 1_555
F19 C34 1_555 1_555
F20 C36 1_555 1_555
O1 K1 1_555 1_555
O2 K1 1_555 1_555
O3 K1 1_555 1_555
O4 K1 1_555 1_555
O5 K1 1_555 1_555
O6 K1 1_555 1_555
O7 K2 1_555 1_555
O8 Zn1 1_555 1_555
O9 Zn1 1_555 1_555
O10 Zn1 1_555 1_555
C1 O6 1_555 1_555
H1 C1 1_555 1_555
H2 C1 1_555 1_555
C2 O1 1_555 1_555
H3 C2 1_555 1_555
H4 C2 1_555 1_555
C3 O1 1_555 1_555
H5 C3 1_555 1_555
H6 C3 1_555 1_555
C4 O2 1_555 1_555
H7 C4 1_555 1_555
H8 C4 1_555 1_555
C5 O2 1_555 1_555
H9 C5 1_555 1_555
H10 C5 1_555 1_555
C6 O3 1_555 1_555
H11 C6 1_555 1_555
H12 C6 1_555 1_555
C7 O3 1_555 1_555
H13 C7 1_555 1_555
H14 C7 1_555 1_555
C8 O4 1_555 1_555
H15 C8 1_555 1_555
H16 C8 1_555 1_555
C9 O4 1_555 1_555
H17 C9 1_555 1_555
H18 C9 1_555 1_555
C10 O5 1_555 1_555
H19 C10 1_555 1_555
H20 C10 1_555 1_555
C11 O5 1_555 1_555
H21 C11 1_555 1_555
H22 C11 1_555 1_555
C12 O6 1_555 1_555
H23 C12 1_555 1_555
H24 C12 1_555 1_555
C13 O9 1_555 1_555
C14 C13 1_555 1_555
C15 C14 1_555 1_555
C16 C15 1_555 1_555
C17 C16 1_555 1_555
C18 C13 1_555 1_555
C19 O7 1_555 1_555
C20 C19 1_555 1_555
C21 C20 1_555 1_555
C22 C21 1_555 1_555
C23 C22 1_555 1_555
C24 C19 1_555 1_555
C25 O8 1_555 1_555
C26 F11 1_555 1_555
C27 C26 1_555 1_555
C28 C27 1_555 1_555
C29 C28 1_555 1_555
C30 C25 1_555 1_555
C31 O10 1_555 1_555
C32 C31 1_555 1_555
C33 C32 1_555 1_555
C34 C35 1_555 1_555
C35 C33 1_555 1_555
C36 C31 1_555 1_555
K1_2 F2 1_555 1_555
K2A F5 1_555 1_555
F2_2 K1 1_555 1_555
F5A K2 1_555 1_555
F20A K2 1_555 1_555
O9A K2 1_555 1_555
O10A K2 1_555 1_555
K2 O8 1_555 1_555
F20 K2A 1_555 1_555
O9 K2A 1_555 1_555
O10 K2A 1_555 1_555
C1 C2 1_555 1_555
C3 C4 1_555 1_555
C5 C6 1_555 1_555
C7 C8 1_555 1_555
C9 C10 1_555 1_555
C11 C12 1_555 1_555
C17 C18 1_555 1_555
C23 C24 1_555 1_555
C25 C26 1_555 1_555
C29 C30 1_555 1_555
C34 C36 1_555 1_555

#END
