
#######################################################################
#
#                 Cambridge Crystallographic Data Centre
#                                CCDC 
#
#######################################################################
#
# If this CIF has been generated from an entry in the Cambridge 
# Structural Database, then it will include bibliographic, chemical, 
# crystal, experimental, refinement or atomic coordinate data resulting 
# from the CCDC's data processing and validation procedures.
#
#######################################################################

data_CIBXOB
_symmetry_cell_setting           monoclinic
_symmetry_space_group_name_H-M   'P 21/n'
_symmetry_Int_Tables_number      14
_space_group_name_Hall           '-P 2yn'
loop_
_symmetry_equiv_pos_site_id
_symmetry_equiv_pos_as_xyz
1 x,y,z
2 1/2-x,1/2+y,1/2-z
3 -x,-y,-z
4 1/2+x,1/2-y,1/2+z
_cell_length_a                   7.709(4)
_cell_length_b                   10.592(5)
_cell_length_c                   22.035(10)
_cell_angle_alpha                90
_cell_angle_beta                 96.429(6)
_cell_angle_gamma                90
_cell_volume                     1787.93
loop_
_atom_site_label
_atom_site_type_symbol
_atom_site_fract_x
_atom_site_fract_y
_atom_site_fract_z
Ni1 Ni 0.08002(8) 0.73624(6) 0.75397(2)
P1 P 0.47214(17) 0.78307(13) 0.71215(6)
O1 O -0.0693(5) 0.8953(4) 0.76915(18)
O2 O -0.1264(5) 0.6308(4) 0.77803(17)
O3 O 0.2098(5) 0.5703(4) 0.74201(17)
O4 O 0.2949(4) 0.8305(3) 0.72752(14)
O5 O 0.5300(5) 0.6641(4) 0.7480(2)
O6 O 0.6060(5) 0.8839(4) 0.7167(3)
C1 C 0.4338(12) 0.7165(10) 0.6347(4)
H1 H 0.5397 0.6733 0.6266
H2 H 0.3435 0.6528 0.6350
C2 C 0.3866(13) 0.7950(12) 0.5864(4)
H3 H 0.4860 0.8492 0.5823
H4 H 0.2945 0.8490 0.5983
C3 C 0.3270(11) 0.7476(8) 0.5252(3)
O7 O 0.3092(13) 0.6410(7) 0.5095(3)
O8 O 0.2885(11) 0.8391(7) 0.4877(4)
H5 H 0.2604 0.8106 0.4534
N1 N -0.0282(6) 0.7374(4) 0.66255(19)
N2 N -0.3212(6) 0.7564(4) 0.34649(19)
C4 C -0.0388(7) 0.8453(5) 0.6311(2)
H6 H -0.0056 0.9197 0.6515
C5 C -0.0967(8) 0.8516(6) 0.5697(2)
H7 H -0.0999 0.9289 0.5496
C6 C -0.1501(7) 0.7435(5) 0.5378(2)
C7 C -0.1423(7) 0.6320(6) 0.5706(2)
H8 H -0.1775 0.5566 0.5514
C8 C -0.0823(7) 0.6329(5) 0.6321(2)
H9 H -0.0794 0.5570 0.6533
C9 C -0.2093(7) 0.7461(5) 0.4720(2)
C10 C -0.2798(9) 0.8552(6) 0.4444(3)
H10 H -0.2925 0.9274 0.4676
C11 C -0.3306(9) 0.8556(6) 0.3828(3)
H11 H -0.3746 0.9304 0.3652
C12 C -0.2521(8) 0.6523(6) 0.3729(2)
H12 H -0.2402 0.5817 0.3486
C13 C -0.1971(9) 0.6438(6) 0.4346(2)
H13 H -0.1516 0.5682 0.4509
H14 H 0.207(7) 0.493(2) 0.750(3)
H15 H -0.052(8) 0.975(2) 0.771(3)
H16 H 0.305(5) 0.600(5) 0.758(3)
H17 H -0.171(5) 0.889(5) 0.750(3)
H18 H -0.228(4) 0.650(4) 0.765(3)
H19 H -0.125(6) 0.552(2) 0.783(3)
Ni1C Ni -0.41998(8) 0.76376(6) 0.25397(2)
N2C N 0.1788(6) 0.7436(4) 0.84649(19)
O9 O 0.1951(11) 0.7212(9) 0.3725(3)
loop_
_geom_bond_atom_site_label_1
_geom_bond_atom_site_label_2
_geom_bond_site_symmetry_1
_geom_bond_site_symmetry_2
Ni1 O1 1_555 1_555
P1 O4 1_555 1_555
O1 H15 1_555 1_555
O2 Ni1 1_555 1_555
O3 Ni1 1_555 1_555
O4 Ni1 1_555 1_555
O5 P1 1_555 1_555
O6 P1 1_555 1_555
C1 P1 1_555 1_555
H1 C1 1_555 1_555
H2 C1 1_555 1_555
C2 C1 1_555 1_555
H3 C2 1_555 1_555
H4 C2 1_555 1_555
C3 C2 1_555 1_555
O7 C3 1_555 1_555
O8 C3 1_555 1_555
H5 O8 1_555 1_555
N1 Ni1 1_555 1_555
N2 C11 1_555 1_555
C4 N1 1_555 1_555
H6 C4 1_555 1_555
C5 C4 1_555 1_555
H7 C5 1_555 1_555
C6 C5 1_555 1_555
C7 C6 1_555 1_555
H8 C7 1_555 1_555
C8 N1 1_555 1_555
H9 C8 1_555 1_555
C9 C6 1_555 1_555
C10 C9 1_555 1_555
H10 C10 1_555 1_555
C11 C10 1_555 1_555
H11 C11 1_555 1_555
C12 N2 1_555 1_555
H12 C12 1_555 1_555
C13 C9 1_555 1_555
H13 C13 1_555 1_555
H14 O3 1_555 1_555
H16 O3 1_555 1_555
H17 O1 1_555 1_555
H18 O2 1_555 1_555
H19 O2 1_555 1_555
Ni1C N2 1_555 1_555
N2C Ni1 1_555 1_555
C7 C8 1_555 1_555
C12 C13 1_555 1_555

#END
