
#######################################################################
#
#                 Cambridge Crystallographic Data Centre
#                                CCDC 
#
#######################################################################
#
# If this CIF has been generated from an entry in the Cambridge 
# Structural Database, then it will include bibliographic, chemical, 
# crystal, experimental, refinement or atomic coordinate data resulting 
# from the CCDC's data processing and validation procedures.
#
#######################################################################

data_CIBYUJ
_symmetry_cell_setting           triclinic
_symmetry_space_group_name_H-M   'P -1'
_symmetry_Int_Tables_number      2
_space_group_name_Hall           '-P 1'
loop_
_symmetry_equiv_pos_site_id
_symmetry_equiv_pos_as_xyz
1 x,y,z
2 -x,-y,-z
_cell_length_a                   3.5261(4)
_cell_length_b                   9.4935(9)
_cell_length_c                   11.4012(13)
_cell_angle_alpha                66.605(10)
_cell_angle_beta                 85.740(9)
_cell_angle_gamma                86.099(9)
_cell_volume                     349.002
loop_
_atom_site_label
_atom_site_type_symbol
_atom_site_fract_x
_atom_site_fract_y
_atom_site_fract_z
Cu1 Cu 0.33616(17) 0.15845(7) 0.26076(6)
C1 C 0.3936(13) 0.5064(5) 0.0557(4)
C2 C 0.0863(13) 0.6074(5) 0.1735(4)
C3 C -0.0904(13) 0.7340(5) 0.2074(4)
C4 C 0.1080(13) 0.4523(5) 0.2399(4)
C5 C -0.0559(12) 0.3484(5) 0.3658(4)
N1 N 0.3046(11) 0.3859(4) 0.1651(4)
N2 N 0.2669(11) 0.6418(4) 0.0568(4)
O1 O -0.0753(10) 0.8660(4) 0.1305(3)
O2 O -0.2661(9) 0.6977(4) 0.3198(3)
H1 H -0.3205 0.6111 0.3795
O3 O -0.2358(9) 0.4009(3) 0.4377(3)
O4 O -0.0021(9) 0.2034(4) 0.3902(3)
O5 O 0.3487(10) -0.0581(4) 0.3749(3)
H2 H 0.1990 -0.0988 0.4514
H3 H 0.4993 -0.1278 0.3593
O6 O 0.7734(9) 0.1242(3) 0.1597(3)
H4 H 0.8075 0.0381 0.1542
H5 H 0.7669 0.1841 0.0800
C1A C 0.6064(13) 0.4936(5) -0.0557(4)
C2A C 0.9137(13) 0.3926(5) -0.1735(4)
C3A C 1.0904(13) 0.2660(5) -0.2074(4)
C4A C 0.8920(13) 0.5477(5) -0.2399(4)
C5A C 1.0559(12) 0.6516(5) -0.3658(4)
N1A N 0.6954(11) 0.6141(4) -0.1651(4)
N2A N 0.7331(11) 0.3582(4) -0.0568(4)
O1A O 1.0753(10) 0.1340(4) -0.1305(3)
O2A O 1.2661(9) 0.3023(4) -0.3198(3)
H1A H 1.3205 0.3889 -0.3795
O3A O 1.2358(9) 0.5991(3) -0.4377(3)
O4A O 1.0021(9) 0.7966(4) -0.3902(3)
Cu1A Cu 0.66384(17) 0.84155(7) -0.26076(6)
O5A O 0.6513(10) 1.0581(4) -0.3749(3)
H2A H 0.8010 1.0988 -0.4514
H3A H 0.5007 1.1278 -0.3593
O6A O 0.2266(9) 0.8758(3) -0.1597(3)
H4A H 0.1925 0.9619 -0.1542
H5A H 0.2331 0.8159 -0.0800
Cu1_2 Cu 1.33616(17) 0.15845(7) 0.26076(6)
Cu1A_2 Cu -0.33616(17) 0.84155(7) -0.26076(6)
O6_2 O -0.2266(9) 0.1242(3) 0.1597(3)
O6A_2 O 1.2266(9) 0.8758(3) -0.1597(3)
loop_
_geom_bond_atom_site_label_1
_geom_bond_atom_site_label_2
_geom_bond_site_symmetry_1
_geom_bond_site_symmetry_2
Cu1 N1 1_555 1_555
C1 N1 1_555 1_555
C2 C3 1_555 1_555
C3 O1 1_555 1_555
C4 C2 1_555 1_555
C5 C4 1_555 1_555
N1 C4 1_555 1_555
N2 C1 1_555 1_555
O2 C3 1_555 1_555
H1 O2 1_555 1_555
O3 C5 1_555 1_555
O4 Cu1 1_555 1_555
O5 Cu1 1_555 1_555
H2 O5 1_555 1_555
H3 O5 1_555 1_555
O6 Cu1 1_555 1_555
H4 O6 1_555 1_555
H5 O6 1_555 1_555
C1A C1 1_555 1_555
C2A C3A 1_555 1_555
C3A O1A 1_555 1_555
C4A C2A 1_555 1_555
C5A C4A 1_555 1_555
N1A C1A 1_555 1_555
N2A C1A 1_555 1_555
O2A C3A 1_555 1_555
H1A O2A 1_555 1_555
O3A C5A 1_555 1_555
O4A C5A 1_555 1_555
Cu1A N1A 1_555 1_555
O5A Cu1A 1_555 1_555
H2A O5A 1_555 1_555
H3A O5A 1_555 1_555
O6A Cu1A 1_555 1_555
H4A O6A 1_555 1_555
H5A O6A 1_555 1_555
Cu1_2 O6 1_555 1_555
Cu1A_2 O6A 1_555 1_555
O6_2 Cu1 1_555 1_555
O6A_2 Cu1A 1_555 1_555
C2 N2 1_555 1_555
C5 O4 1_555 1_555
C2A N2A 1_555 1_555
C4A N1A 1_555 1_555
O4A Cu1A 1_555 1_555

#END
