
#######################################################################
#
#                 Cambridge Crystallographic Data Centre
#                                CCDC 
#
#######################################################################
#
# If this CIF has been generated from an entry in the Cambridge 
# Structural Database, then it will include bibliographic, chemical, 
# crystal, experimental, refinement or atomic coordinate data resulting 
# from the CCDC's data processing and validation procedures.
#
#######################################################################

data_CIBYOD
_symmetry_cell_setting           triclinic
_symmetry_space_group_name_H-M   'P -1'
_symmetry_Int_Tables_number      2
_space_group_name_Hall           '-P 1'
loop_
_symmetry_equiv_pos_site_id
_symmetry_equiv_pos_as_xyz
1 x,y,z
2 -x,-y,-z
_cell_length_a                   7.2968(4)
_cell_length_b                   7.5537(4)
_cell_length_c                   14.5165(8)
_cell_angle_alpha                104.3080(10)
_cell_angle_beta                 103.9860(10)
_cell_angle_gamma                91.7930(10)
_cell_volume                     748.782
loop_
_atom_site_label
_atom_site_type_symbol
_atom_site_fract_x
_atom_site_fract_y
_atom_site_fract_z
Cd1 Cd 0.5000 1.0000 0.5000
Cd2 Cd 1.32159(4) 1.12527(4) 1.064350(18)
C1 C 0.8147(5) 1.0294(5) 0.6819(3)
C2 C 0.8797(5) 1.0077(5) 0.7764(3)
C3 C 0.5888(5) 0.8983(5) 0.7197(3)
C4 C 0.1210(5) 0.6691(5) 0.6762(3)
C5 C 0.2128(5) 0.6584(5) 0.7696(3)
C6 C 0.4105(5) 0.8033(5) 0.7191(3)
C7 C 0.9067(5) 1.1068(5) 0.6183(3)
C8 C 1.0716(5) 1.0540(5) 0.8462(3)
C9 C -0.0749(5) 0.6130(5) 0.6110(3)
C10 C 0.1392(5) 0.5723(5) 0.8368(3)
N1 N 0.6286(4) 0.9577(4) 0.6469(2)
N2 N 0.7355(4) 0.9250(4) 0.7994(2)
N3 N 0.3939(4) 0.7437(4) 0.7952(2)
N4 N 0.2492(4) 0.7610(4) 0.6450(2)
H1 H 0.2108 0.7826 0.5840
O1 O 1.1993(4) 1.1331(4) 0.82057(19)
O2 O 1.0934(4) 1.0075(4) 0.92510(19)
O3 O 1.0837(4) 1.1705(4) 0.65225(19)
H2 H 1.1127 1.2326 0.6163
O4 O 0.8142(4) 1.1096(4) 0.53495(19)
O5 O 0.2445(4) 0.5732(4) 0.91852(19)
O6 O -0.0323(4) 0.4982(4) 0.80685(19)
O7 O -0.1952(4) 0.5319(4) 0.6448(2)
H3 H -0.1415 0.5230 0.7013
O8 O -0.1163(4) 0.6497(4) 0.53159(19)
O9 O 0.4581(4) 1.3034(4) 0.5793(2)
H4 H 0.3620 1.3417 0.5465
H5 H 0.5472 1.3814 0.5823
O10 O 1.2416(4) 1.4088(4) 1.0614(2)
H6 H 1.172(8) 1.444(8) 1.090(4)
H7 H 1.216(8) 1.468(7) 1.010(4)
O11 O 1.4783(4) 0.8484(4) 1.03907(18)
H8 H 1.4120 0.7488 1.0049
H9 H 1.5816 0.8416 1.0931
Cd2A Cd -0.32159(4) 0.87473(4) -0.064350(18)
C1A C 0.1853(5) 0.9706(5) 0.3181(3)
C2A C 0.1203(5) 0.9923(5) 0.2236(3)
C3A C 0.4112(5) 1.1017(5) 0.2803(3)
C4A C 0.8790(5) 1.3309(5) 0.3238(3)
C5A C 0.7872(5) 1.3416(5) 0.2304(3)
C6A C 0.5895(5) 1.1967(5) 0.2809(3)
C7A C 0.0933(5) 0.8932(5) 0.3817(3)
C8A C -0.0716(5) 0.9460(5) 0.1538(3)
C9A C 1.0749(5) 1.3870(5) 0.3890(3)
C10A C 0.8608(5) 1.4277(5) 0.1632(3)
N1A N 0.3714(4) 1.0423(4) 0.3531(2)
N2A N 0.2645(4) 1.0750(4) 0.2006(2)
N3A N 0.6061(4) 1.2563(4) 0.2048(2)
N4A N 0.7508(4) 1.2390(4) 0.3550(2)
H1A H 0.7892 1.2174 0.4160
O1A O -0.1993(4) 0.8669(4) 0.17943(19)
O2A O -0.0934(4) 0.9925(4) 0.07490(19)
O3A O -0.0837(4) 0.8295(4) 0.34775(19)
H2A H -0.1127 0.7674 0.3837
O4A O 0.1858(4) 0.8904(4) 0.46505(19)
O5A O 0.7555(4) 1.4268(4) 0.08148(19)
O6A O 1.0323(4) 1.5018(4) 0.19315(19)
O7A O 1.1952(4) 1.4681(4) 0.3552(2)
H3A H 1.1415 1.4770 0.2987
O8A O 1.1163(4) 1.3503(4) 0.46841(19)
O9A O 0.5419(4) 0.6966(4) 0.4207(2)
H4A H 0.6380 0.6583 0.4535
H5A H 0.4528 0.6186 0.4177
O10A O -0.2416(4) 0.5912(4) -0.0614(2)
H6A H -0.172(8) 0.556(8) -0.090(4)
H7A H -0.216(8) 0.532(7) -0.010(4)
O11A O -0.4783(4) 1.1516(4) -0.03907(18)
H8A H -0.4120 1.2512 -0.0049
H9A H -0.5816 1.1584 -0.0931
Cd2_2 Cd -0.67841(4) 1.12527(4) 0.064350(18)
Cd2_3 Cd 0.32159(4) 1.12527(4) 0.064350(18)
Cd2A_2 Cd 0.67841(4) 0.87473(4) 0.935650(18)
Cd2A_3 Cd 1.67841(4) 0.87473(4) 0.935650(18)
N2_2 N -0.2645(4) 0.9250(4) -0.2006(2)
N2A_2 N 1.2645(4) 1.0750(4) 1.2006(2)
N3_2 N -0.6061(4) 0.7437(4) -0.2048(2)
N3A_2 N 1.6061(4) 1.2563(4) 1.2048(2)
O11_2 O -0.5217(4) 0.8484(4) 0.03907(18)
O11A_2 O 1.5217(4) 1.1516(4) 0.96093(18)
O12 O 0.4840(14) 0.6932(14) 0.2117(8)
H10 H 0.5571 0.7448 0.2729
H11 H 0.4218 0.7708 0.1881
loop_
_geom_bond_atom_site_label_1
_geom_bond_atom_site_label_2
_geom_bond_site_symmetry_1
_geom_bond_site_symmetry_2
Cd1 N1 1_555 1_555
Cd2 O2 1_555 1_555
C1 C2 1_555 1_555
C2 C8 1_555 1_555
C3 C6 1_555 1_555
C4 C5 1_555 1_555
C5 C10 1_555 1_555
C6 N3 1_555 1_555
C7 C1 1_555 1_555
C8 O1 1_555 1_555
C9 C4 1_555 1_555
C10 O5 1_555 1_555
N1 C1 1_555 1_555
N2 C2 1_555 1_555
N3 C5 1_555 1_555
N4 C4 1_555 1_555
H1 N4 1_555 1_555
O2 C8 1_555 1_555
O3 C7 1_555 1_555
H2 O3 1_555 1_555
O4 Cd1 1_555 1_555
O6 C10 1_555 1_555
O7 C9 1_555 1_555
H3 O7 1_555 1_555
O8 C9 1_555 1_555
O9 Cd1 1_555 1_555
H4 O9 1_555 1_555
H5 O9 1_555 1_555
O10 Cd2 1_555 1_555
H6 O10 1_555 1_555
H7 O10 1_555 1_555
O11 Cd2 1_555 1_555
H8 O11 1_555 1_555
H9 O11 1_555 1_555
O12 H10 1_555 1_555
H11 O12 1_555 1_555
Cd2A O2A 1_555 1_555
C1A C2A 1_555 1_555
C2A C8A 1_555 1_555
C3A C6A 1_555 1_555
C4A C5A 1_555 1_555
C5A C10A 1_555 1_555
C6A N3A 1_555 1_555
C7A C1A 1_555 1_555
C8A O1A 1_555 1_555
C9A C4A 1_555 1_555
C10A O5A 1_555 1_555
N1A Cd1 1_555 1_555
N2A C2A 1_555 1_555
N3A C5A 1_555 1_555
N4A C4A 1_555 1_555
H1A N4A 1_555 1_555
O2A C8A 1_555 1_555
O3A C7A 1_555 1_555
H2A O3A 1_555 1_555
O4A Cd1 1_555 1_555
O6A C10A 1_555 1_555
O7A C9A 1_555 1_555
H3A O7A 1_555 1_555
O8A C9A 1_555 1_555
O9A Cd1 1_555 1_555
H4A O9A 1_555 1_555
H5A O9A 1_555 1_555
O10A Cd2A 1_555 1_555
H6A O10A 1_555 1_555
H7A O10A 1_555 1_555
O11A Cd2A 1_555 1_555
H8A O11A 1_555 1_555
H9A O11A 1_555 1_555
Cd2_2 O11A 1_555 1_555
Cd2_3 N2A 1_555 1_555
Cd2A_2 N2 1_555 1_555
Cd2A_3 O11 1_555 1_555
N2_2 Cd2A 1_555 1_555
N2A_2 Cd2 1_555 1_555
N3_2 Cd2A 1_555 1_555
N3A_2 Cd2 1_555 1_555
O11_2 Cd2A 1_555 1_555
O11A_2 Cd2 1_555 1_555
C3 N1 1_555 1_555
C3 N2 1_555 1_555
C6 N4 1_555 1_555
C7 O4 1_555 1_555
N3 Cd2A_2 1_555 1_555
C1A N1A 1_555 1_555
C3A N1A 1_555 1_555
C3A N2A 1_555 1_555
C6A N4A 1_555 1_555
C7A O4A 1_555 1_555
N3A Cd2_3 1_555 1_555
Cd2_2 O11_2 1_555 1_555
Cd2A_3 O11A_2 1_555 1_555

#END
