
#######################################################################
#
#                 Cambridge Crystallographic Data Centre
#                                CCDC 
#
#######################################################################
#
# If this CIF has been generated from an entry in the Cambridge 
# Structural Database, then it will include bibliographic, chemical, 
# crystal, experimental, refinement or atomic coordinate data resulting 
# from the CCDC's data processing and validation procedures.
#
#######################################################################

data_CICBUN
_symmetry_cell_setting           monoclinic
_symmetry_space_group_name_H-M   'P 21/c'
_symmetry_Int_Tables_number      14
_space_group_name_Hall           '-P 2ybc'
loop_
_symmetry_equiv_pos_site_id
_symmetry_equiv_pos_as_xyz
1 x,y,z
2 -x,1/2+y,1/2-z
3 -x,-y,-z
4 x,1/2-y,1/2+z
_cell_length_a                   13.450(3)
_cell_length_b                   19.205(4)
_cell_length_c                   10.141(2)
_cell_angle_alpha                90
_cell_angle_beta                 110.196(4)
_cell_angle_gamma                90
_cell_volume                     2458.44
loop_
_atom_site_label
_atom_site_type_symbol
_atom_site_fract_x
_atom_site_fract_y
_atom_site_fract_z
Ni1 Ni 0.76700(7) 0.03964(5) 0.45800(8)
O1 O 0.8315(4) 0.0535(3) 0.3080(4)
N1 N 0.8178(4) -0.0638(3) 0.4813(5)
C1 C 0.8985(6) -0.0818(4) 0.4369(7)
H1 H 0.9288 -0.0474 0.3983
O2 O 0.6208(4) 0.0164(3) 0.3221(5)
H2 H 0.5875 0.0167 0.2340
H3 H 0.5756 0.0218 0.3627
O3 O 0.6860(4) 0.0557(3) 0.1152(5)
N2 N 0.2740(5) -0.1462(3) 0.5591(6)
C2 C 0.9374(6) -0.1483(4) 0.4462(8)
H4 H 0.9917 -0.1590 0.4125
O4 O 0.7421(4) 0.0360(2) -0.3460(4)
N3 N 0.7457(5) -0.2936(4) 0.5568(9)
H5 H 0.7692 -0.2994 0.4887
C3 C 0.8945(6) -0.1987(4) 0.5062(8)
H6 H 0.9196 -0.2442 0.5142
O5 O 0.8961(4) 0.0651(3) -0.3601(5)
N4 N 0.4645(5) -0.3233(3) 0.4093(7)
H7 H 0.4219 -0.3531 0.4243
C4 C 0.8132(6) -0.1808(4) 0.5550(8)
C5 C 0.7784(6) -0.1133(4) 0.5410(7)
H8 H 0.7246 -0.1014 0.5749
O6 O 0.7420(5) -0.2185(3) 0.7304(7)
O7 O 0.5094(5) -0.2105(3) 0.4161(7)
C6 C 0.7621(6) -0.2322(4) 0.6243(9)
C7 C 0.6902(8) -0.3502(5) 0.5941(11)
H9 H 0.6415 -0.3320 0.6373
H10 H 0.7404 -0.3805 0.6612
C8 C 0.6291(7) -0.3912(4) 0.4618(12)
H11 H 0.5962 -0.4311 0.4885
H12 H 0.6788 -0.4085 0.4194
C9 C 0.5429(7) -0.3485(4) 0.3517(10)
H13 H 0.5753 -0.3093 0.3217
H14 H 0.5085 -0.3773 0.2701
C10 C 0.4548(6) -0.2570(4) 0.4403(9)
C11 C 0.3485(6) -0.1697(4) 0.5118(7)
H15 H 0.3876 -0.1370 0.4825
C12 C 0.2216(6) -0.1938(4) 0.6069(8)
H16 H 0.1691 -0.1791 0.6408
C13 C 0.2437(8) -0.2648(4) 0.6073(10)
H17 H 0.2085 -0.2966 0.6447
C14 C 0.3169(7) -0.2872(4) 0.5526(9)
H18 H 0.3297 -0.3346 0.5486
C15 C 0.3722(6) -0.2399(4) 0.5030(8)
C16 C 0.7843(5) 0.0581(3) 0.1770(6)
C17 C 0.8557(5) 0.0685(3) 0.0916(6)
C18 C 0.9582(6) 0.0897(4) 0.1538(7)
H19 H 0.9855 0.0962 0.2506
C19 C 1.0223(6) 0.1018(4) 0.0736(7)
H20 H 1.0914 0.1176 0.1166
C20 C 0.9834(6) 0.0905(4) -0.0695(7)
H21 H 1.0261 0.0981 -0.1232
C21 C 0.8802(5) 0.0678(3) -0.1322(6)
C22 C 0.8165(5) 0.0571(3) -0.0521(6)
H22 H 0.7469 0.0422 -0.0951
C23 C 0.8366(6) 0.0559(3) -0.2876(6)
Ni1_2 Ni 0.76700(7) 0.03964(5) -0.54200(8)
Ni1B Ni 0.23300(7) -0.03964(5) 0.54200(8)
N2B N 0.7260(5) 0.1462(3) 0.4409(6)
O4_2 O 0.7421(4) 0.0360(2) 0.6540(4)
O5_2 O 0.8961(4) 0.0651(3) 0.6399(5)
O8 O 0.4682(6) -0.0762(4) 0.3044(8)
H23 H 0.4723 -0.1181 0.2800
H24 H 0.4033 -0.0644 0.2727
loop_
_geom_bond_atom_site_label_1
_geom_bond_atom_site_label_2
_geom_bond_site_symmetry_1
_geom_bond_site_symmetry_2
Ni1 O1 1_555 1_555
O1 C16 1_555 1_555
N1 Ni1 1_555 1_555
C1 N1 1_555 1_555
H1 C1 1_555 1_555
O2 Ni1 1_555 1_555
H2 O2 1_555 1_555
H3 O2 1_555 1_555
O3 C16 1_555 1_555
N2 C11 1_555 1_555
C2 C1 1_555 1_555
H4 C2 1_555 1_555
O4 C23 1_555 1_555
N3 H5 1_555 1_555
C3 C2 1_555 1_555
H6 C3 1_555 1_555
O5 C23 1_555 1_555
N4 H7 1_555 1_555
C4 C3 1_555 1_555
C5 N1 1_555 1_555
H8 C5 1_555 1_555
O6 C6 1_555 1_555
O7 C10 1_555 1_555
C6 N3 1_555 1_555
C7 N3 1_555 1_555
H9 C7 1_555 1_555
H10 C7 1_555 1_555
C8 C7 1_555 1_555
H11 C8 1_555 1_555
H12 C8 1_555 1_555
C9 N4 1_555 1_555
H13 C9 1_555 1_555
H14 C9 1_555 1_555
C10 N4 1_555 1_555
C11 H15 1_555 1_555
C12 N2 1_555 1_555
H16 C12 1_555 1_555
C13 C12 1_555 1_555
H17 C13 1_555 1_555
C14 C13 1_555 1_555
H18 C14 1_555 1_555
C15 C10 1_555 1_555
C16 C17 1_555 1_555
C17 C18 1_555 1_555
C18 H19 1_555 1_555
C19 C18 1_555 1_555
H20 C19 1_555 1_555
C20 C19 1_555 1_555
H21 C20 1_555 1_555
C21 C20 1_555 1_555
C22 C17 1_555 1_555
H22 C22 1_555 1_555
C23 C21 1_555 1_555
O8 H23 1_555 1_555
H24 O8 1_555 1_555
Ni1_2 O4 1_555 1_555
Ni1B N2 1_555 1_555
N2B Ni1 1_555 1_555
O4_2 Ni1 1_555 1_555
O5_2 Ni1 1_555 1_555
O5 Ni1_2 1_555 1_555
C4 C5 1_555 1_555
C4 C6 1_555 1_555
C8 C9 1_555 1_555
C11 C15 1_555 1_555
C14 C15 1_555 1_555
C21 C22 1_555 1_555

#END
