
#######################################################################
#
#                 Cambridge Crystallographic Data Centre
#                                CCDC 
#
#######################################################################
#
# If this CIF has been generated from an entry in the Cambridge 
# Structural Database, then it will include bibliographic, chemical, 
# crystal, experimental, refinement or atomic coordinate data resulting 
# from the CCDC's data processing and validation procedures.
#
#######################################################################

data_CICBUL
_symmetry_cell_setting           triclinic
_symmetry_space_group_name_H-M   'P -1'
_symmetry_Int_Tables_number      2
_space_group_name_Hall           '-P 1'
loop_
_symmetry_equiv_pos_site_id
_symmetry_equiv_pos_as_xyz
1 x,y,z
2 -x,-y,-z
_cell_length_a                   9.374(4)
_cell_length_b                   8.474(4)
_cell_length_c                   9.739(2)
_cell_angle_alpha                88.34(3)
_cell_angle_beta                 81.62(2)
_cell_angle_gamma                96.58(4)
_cell_volume                     759.498
loop_
_atom_site_label
_atom_site_type_symbol
_atom_site_fract_x
_atom_site_fract_y
_atom_site_fract_z
O1 O 0.50840 0.01120 0.17720
O2 O 0.63550 -0.12160 0.01520
O3 O 0.11180 0.19390 0.16940
O4 O 0.21280 -0.00130 0.33890
O5 O 0.50820 0.21150 0.39440
O6 O 0.45690 0.48980 0.30030
O7 O -0.09290 0.03040 0.17810
O8 O -0.00350 -0.14880 0.37750
O9 O 0.72570 0.31430 0.43820
O10 O 0.66440 0.60780 0.35540
O11 O 0.19950 0.33060 0.41920
C1 C 0.57660 0.47120 -0.00130
C2 C 0.54290 -0.03230 0.05500
C3 C 0.02580 0.07040 0.21360
C4 C 0.08150 -0.03610 0.32270
C5 C 0.60820 0.32500 0.39810
C6 C 0.57560 0.49180 0.34660
H1 H 0.13870 0.25000 0.44340
H2 H 0.25000 0.35940 0.50000
Gd1 Gd 0.35762 0.22748 0.21755
O14 O 0.58070 0.34620 0.06830
O15 O 0.68350 0.55240 -0.07030
C2A C 0.45710 0.03230 -0.05500
O1A O 0.49160 -0.01120 -0.17720
O2A O 0.36450 0.12160 -0.01520
C1A C 0.42340 0.52880 0.00130
O14A O 0.41930 0.65380 -0.06830
O15A O 0.31650 0.44760 0.07030
Gd1A Gd 0.64238 -0.22748 -0.21755
O3A O 0.88820 -0.19390 -0.16940
O4A O 0.78720 0.00130 -0.33890
O7A O 1.09290 -0.03040 -0.17810
O8A O 1.00350 0.14880 -0.37750
C3A C 0.97420 -0.07040 -0.21360
C4A C 0.91850 0.03610 -0.32270
O5A O 0.49180 -0.21150 -0.39440
O6A O 0.54310 -0.48980 -0.30030
O9A O 0.27430 -0.31430 -0.43820
O10A O 0.33560 -0.60780 -0.35540
C5A C 0.39180 -0.32500 -0.39810
C6A C 0.42440 -0.49180 -0.34660
O11A O 0.80050 -0.33060 -0.41920
H1A H 0.86130 -0.25000 -0.44340
H2A H 0.75000 -0.35940 -0.50000
Gd1A_2 Gd 0.64238 0.77252 -0.21755
O14A_2 O 0.41930 -0.34620 -0.06830
O15_2 O 0.68350 -0.44760 -0.07030
O12 O 0.96250 0.47300 0.24450
H3 H 1.00000 0.38870 0.22070
H4 H 0.91600 0.41600 0.30470
O13 O 0.84480 0.22360 0.95930
H5 H 0.86130 0.16800 1.02930
H6 H 0.77930 0.27930 1.02930
K1 K 0.14156 0.28870 0.88675
K2 K 0.31730 0.04350 0.61061
K3 K 0.78057 0.34340 0.70243
loop_
_geom_bond_atom_site_label_1
_geom_bond_atom_site_label_2
_geom_bond_site_symmetry_1
_geom_bond_site_symmetry_2
O1 C2 1_555 1_555
O2 C2 1_555 1_555
O3 C3 1_555 1_555
O4 C4 1_555 1_555
O5 C5 1_555 1_555
O6 C6 1_555 1_555
O7 C3 1_555 1_555
O8 C4 1_555 1_555
O9 C5 1_555 1_555
O10 C6 1_555 1_555
O11 H1 1_555 1_555
O12 H3 1_555 1_555
O13 H5 1_555 1_555
C1 O14 1_555 1_555
C2 C2A 1_555 1_555
C3 C4 1_555 1_555
C5 C6 1_555 1_555
H2 O11 1_555 1_555
Gd1 O1 1_555 1_555
H4 O12 1_555 1_555
H6 O13 1_555 1_555
O14 Gd1 1_555 1_555
O15 C1 1_555 1_555
C2A O1A 1_555 1_555
O1A Gd1A 1_555 1_555
O2A Gd1 1_555 1_555
C1A C1 1_555 1_555
O14A C1A 1_555 1_555
O15A Gd1 1_555 1_555
Gd1A O2 1_555 1_555
O3A Gd1A 1_555 1_555
O4A Gd1A 1_555 1_555
O7A C3A 1_555 1_555
O8A C4A 1_555 1_555
C3A O3A 1_555 1_555
C4A O4A 1_555 1_555
O5A Gd1A 1_555 1_555
O6A Gd1A 1_555 1_555
O9A C5A 1_555 1_555
O10A C6A 1_555 1_555
C5A O5A 1_555 1_555
C6A O6A 1_555 1_555
O11A Gd1A 1_555 1_555
H1A O11A 1_555 1_555
H2A O11A 1_555 1_555
Gd1A_2 O15 1_555 1_555
O14A_2 Gd1A 1_555 1_555
O15_2 Gd1A 1_555 1_555
O3 Gd1 1_555 1_555
O4 Gd1 1_555 1_555
O5 Gd1 1_555 1_555
O6 Gd1 1_555 1_555
O11 Gd1 1_555 1_555
C2A O2A 1_555 1_555
C1A O15A 1_555 1_555
O14A Gd1A_2 1_555 1_555
C3A C4A 1_555 1_555
C5A C6A 1_555 1_555

#END
