
#######################################################################
#
#                 Cambridge Crystallographic Data Centre
#                                CCDC 
#
#######################################################################
#
# If this CIF has been generated from an entry in the Cambridge 
# Structural Database, then it will include bibliographic, chemical, 
# crystal, experimental, refinement or atomic coordinate data resulting 
# from the CCDC's data processing and validation procedures.
#
#######################################################################

data_CICBOH
_symmetry_cell_setting           triclinic
_symmetry_space_group_name_H-M   'P -1'
_symmetry_Int_Tables_number      2
_space_group_name_Hall           '-P 1'
loop_
_symmetry_equiv_pos_site_id
_symmetry_equiv_pos_as_xyz
1 x,y,z
2 -x,-y,-z
_cell_length_a                   7.8562(14)
_cell_length_b                   8.6410(14)
_cell_length_c                   19.500(3)
_cell_angle_alpha                88.446(3)
_cell_angle_beta                 82.208(3)
_cell_angle_gamma                80.385(3)
_cell_volume                     1293.11
loop_
_atom_site_label
_atom_site_type_symbol
_atom_site_fract_x
_atom_site_fract_y
_atom_site_fract_z
Ni1 Ni 0.0000 0.0000 0.5000
O1 O -0.1445(3) -0.0814(3) 0.58437(11)
C1 C -0.1154(4) -0.1177(4) 0.64519(16)
N1 N -0.1207(4) -1.7673(3) 1.52700(14)
O2 O -0.2379(3) -0.4932(2) 1.00769(10)
H1 H -0.1685 -0.5229 0.9714
H2 H -0.2187 -0.4039 1.0188
Ni2 Ni -0.5000 -0.5000 1.0000
N2 N -0.4136(3) -0.7357(3) 0.97267(12)
O3 O 0.0256(3) -0.1154(3) 0.66822(12)
C2 C -0.2618(4) -0.1728(4) 0.69184(15)
O4 O -0.2006(3) -0.0092(3) 0.44223(11)
H3 H -0.1698 0.0185 0.4008
H4 H -0.2912 -0.0510 0.4425
O5 O -0.4693(3) -0.4353(2) 0.89726(10)
N3 N -0.1390(4) -1.0238(3) 1.11263(14)
H5 H -0.1528 -0.9232 1.1153
C3 C -0.4308(4) -0.1404(4) 0.67469(16)
H6 H -0.4524 -0.0832 0.6348
O6 O -0.1816(3) -0.4582(3) 0.86868(11)
C4 C -0.5667(4) -0.1929(4) 0.71657(17)
H7 H -0.6794 -0.1692 0.7052
N4 N -0.2719(5) -1.4727(4) 1.36389(16)
H8 H -0.2301 -1.5708 1.3587
O7 O -0.1404(3) -1.2332(3) 1.04773(13)
C5 C -0.5351(4) -0.2802(4) 0.77505(15)
H9 H -0.6269 -0.3149 0.8030
C6 C -0.3666(4) -0.3171(3) 0.79271(14)
O8 O -0.3557(4) -1.2718(3) 1.43688(15)
C7 C -0.2308(4) -0.2615(3) 0.75097(14)
H10 H -0.1184 -0.2839 0.7627
C8 C -0.3351(4) -0.4108(3) 0.85776(15)
C9 C -0.4180(4) -0.7936(4) 0.90979(16)
H11 H -0.4705 -0.7280 0.8773
C10 C -0.3482(5) -0.9458(4) 0.89147(17)
H12 H -0.3563 -0.9828 0.8479
C11 C -0.2659(4) -1.0432(4) 0.93863(17)
H13 H -0.2172 -1.1463 0.9270
C12 C -0.2567(4) -0.9856(3) 1.00328(16)
C13 C -0.3349(4) -0.8316(3) 1.01789(15)
H14 H -0.3323 -0.7931 1.0617
C14 C -0.1725(4) -1.0901(4) 1.05605(16)
C15 C -0.0792(5) -1.1200(4) 1.17009(18)
H15 H -0.0400 -1.0543 1.2023
H16 H 0.0191 -1.1987 1.1526
C16 C -0.2223(5) -1.2006(4) 1.20789(18)
H17 H -0.3218 -1.1215 1.2236
H18 H -0.2587 -1.2681 1.1757
C17 C -0.1681(5) -1.2980(4) 1.26955(19)
H19 H -0.0673 -1.3764 1.2545
H20 H -0.1357 -1.2308 1.3029
C18 C -0.3151(7) -1.3785(5) 1.3036(2)
H21 H -0.4161 -1.2994 1.3175
H22 H -0.3464 -1.4456 1.2699
C19 C -0.2956(5) -1.4105(4) 1.42676(19)
C20 C -0.1705(5) -1.6709(4) 1.47619(17)
H23 H -0.1533 -1.7113 1.4316
C21 C -0.2455(5) -1.5162(4) 1.48516(17)
C22 C -0.2713(6) -1.4564(5) 1.5517(2)
H24 H -0.3200 -1.3519 1.5602
C23 C -0.2232(6) -1.5552(5) 1.6048(2)
H25 H -0.2408 -1.5182 1.6500
C24 C -0.1492(5) -1.7087(4) 1.59091(18)
H26 H -0.1180 -1.7741 1.6274
O1A O -0.8555(3) -0.9186(3) 1.41563(11)
C1A C -0.8846(4) -0.8823(4) 1.35481(16)
N1A N -0.8793(4) 0.7673(3) 0.47300(14)
O2A O -0.7621(3) -0.5068(2) 0.99231(10)
H1A H -0.8315 -0.4771 1.0286
H2A H -0.7813 -0.5961 0.9812
N2A N -0.5864(3) -0.2643(3) 1.02733(12)
O3A O -1.0256(3) -0.8846(3) 1.33178(12)
C2A C -0.7382(4) -0.8272(4) 1.30816(15)
O5A O -0.5307(3) -0.5647(2) 1.10274(10)
N3A N -0.8610(4) 0.0238(3) 0.88737(14)
H5A H -0.8472 -0.0768 0.8847
C3A C -0.5692(4) -0.8596(4) 1.32531(16)
H6A H -0.5476 -0.9168 1.3652
O6A O -0.8184(3) -0.5418(3) 1.13132(11)
C4A C -0.4333(4) -0.8071(4) 1.28343(17)
H7A H -0.3206 -0.8308 1.2948
N4A N -0.7281(5) 0.4727(4) 0.63611(16)
H8A H -0.7699 0.5708 0.6413
O7A O -0.8596(3) 0.2332(3) 0.95227(13)
C5A C -0.4649(4) -0.7198(4) 1.22495(15)
H9A H -0.3731 -0.6851 1.1970
C6A C -0.6334(4) -0.6829(3) 1.20729(14)
O8A O -0.6443(4) 0.2718(3) 0.56312(15)
C7A C -0.7692(4) -0.7385(3) 1.24903(14)
H10A H -0.8816 -0.7161 1.2373
C8A C -0.6649(4) -0.5892(3) 1.14224(15)
C9A C -0.5820(4) -0.2064(4) 1.09021(16)
H11A H -0.5295 -0.2720 1.1227
C10A C -0.6518(5) -0.0542(4) 1.10853(17)
H12A H -0.6437 -0.0172 1.1521
C11A C -0.7341(4) 0.0432(4) 1.06137(17)
H13A H -0.7828 0.1463 1.0730
C12A C -0.7433(4) -0.0144(3) 0.99672(16)
C13A C -0.6651(4) -0.1684(3) 0.98211(15)
H14A H -0.6677 -0.2069 0.9383
C14A C -0.8275(4) 0.0901(4) 0.94395(16)
C15A C -0.9208(5) 0.1200(4) 0.82991(18)
H15A H -0.9600 0.0543 0.7977
H16A H -1.0191 0.1987 0.8474
C16A C -0.7777(5) 0.2006(4) 0.79211(18)
H17A H -0.6782 0.1215 0.7764
H18A H -0.7413 0.2681 0.8243
C17A C -0.8319(5) 0.2980(4) 0.73045(19)
H19A H -0.9327 0.3764 0.7455
H20A H -0.8643 0.2308 0.6971
C18A C -0.6849(7) 0.3785(5) 0.6964(2)
H21A H -0.5839 0.2994 0.6825
H22A H -0.6536 0.4456 0.7301
C19A C -0.7044(5) 0.4105(4) 0.57324(19)
C20A C -0.8295(5) 0.6709(4) 0.52381(17)
H23A H -0.8467 0.7113 0.5684
C21A C -0.7545(5) 0.5162(4) 0.51484(17)
C22A C -0.7287(6) 0.4564(5) 0.4483(2)
H24A H -0.6800 0.3519 0.4398
C23A C -0.7768(6) 0.5552(5) 0.3952(2)
H25A H -0.7592 0.5182 0.3500
C24A C -0.8508(5) 0.7087(4) 0.40909(18)
H26A H -0.8820 0.7741 0.3726
O4A O 0.2006(3) 0.0092(3) 0.55777(11)
H3A H 0.1698 -0.0185 0.5992
H4A H 0.2912 0.0510 0.5575
Ni1_2 Ni -1.0000 -1.0000 1.5000
Ni1_3 Ni -1.0000 1.0000 0.5000
Ni1_4 Ni 0.0000 -2.0000 1.5000
O1A_2 O 0.1445(3) 0.0814(3) 0.41563(11)
N1_2 N -0.1207(4) 0.2327(3) 0.52700(14)
N1A_2 N 0.1207(4) -0.2327(3) 0.47300(14)
O9 O 0.1025(3) -0.3170(3) 0.88000(12)
H27 H 0.0750 -0.3713 0.8488
H28 H 0.2099 -0.3471 0.8830
loop_
_geom_bond_atom_site_label_1
_geom_bond_atom_site_label_2
_geom_bond_site_symmetry_1
_geom_bond_site_symmetry_2
Ni1 O1 1_555 1_555
O1 C1 1_555 1_555
C1 O3 1_555 1_555
N1 C20 1_555 1_555
O2 H1 1_555 1_555
H2 O2 1_555 1_555
Ni2 O2 1_555 1_555
N2 Ni2 1_555 1_555
C2 C1 1_555 1_555
O4 Ni1 1_555 1_555
H3 O4 1_555 1_555
H4 O4 1_555 1_555
O5 Ni2 1_555 1_555
N3 H5 1_555 1_555
C3 C2 1_555 1_555
H6 C3 1_555 1_555
O6 C8 1_555 1_555
C4 C3 1_555 1_555
H7 C4 1_555 1_555
N4 H8 1_555 1_555
O7 C14 1_555 1_555
C5 C4 1_555 1_555
H9 C5 1_555 1_555
C6 C5 1_555 1_555
O8 C19 1_555 1_555
C7 C2 1_555 1_555
H10 C7 1_555 1_555
C8 O5 1_555 1_555
C9 N2 1_555 1_555
H11 C9 1_555 1_555
C10 C9 1_555 1_555
H12 C10 1_555 1_555
C11 C10 1_555 1_555
H13 C11 1_555 1_555
C12 C11 1_555 1_555
C13 N2 1_555 1_555
H14 C13 1_555 1_555
C14 N3 1_555 1_555
C15 N3 1_555 1_555
H15 C15 1_555 1_555
H16 C15 1_555 1_555
C16 C15 1_555 1_555
H17 C16 1_555 1_555
H18 C16 1_555 1_555
C17 C16 1_555 1_555
H19 C17 1_555 1_555
H20 C17 1_555 1_555
C18 N4 1_555 1_555
H21 C18 1_555 1_555
H22 C18 1_555 1_555
C19 N4 1_555 1_555
C20 H23 1_555 1_555
C21 C19 1_555 1_555
C22 C21 1_555 1_555
H24 C22 1_555 1_555
C23 C22 1_555 1_555
H25 C23 1_555 1_555
C24 N1 1_555 1_555
H26 C24 1_555 1_555
O9 H27 1_555 1_555
H28 O9 1_555 1_555
O1A C1A 1_555 1_555
C1A O3A 1_555 1_555
N1A C20A 1_555 1_555
O2A Ni2 1_555 1_555
H1A O2A 1_555 1_555
H2A O2A 1_555 1_555
N2A Ni2 1_555 1_555
C2A C1A 1_555 1_555
O5A Ni2 1_555 1_555
N3A H5A 1_555 1_555
C3A C2A 1_555 1_555
H6A C3A 1_555 1_555
O6A C8A 1_555 1_555
C4A C3A 1_555 1_555
H7A C4A 1_555 1_555
N4A H8A 1_555 1_555
O7A C14A 1_555 1_555
C5A C4A 1_555 1_555
H9A C5A 1_555 1_555
C6A C5A 1_555 1_555
O8A C19A 1_555 1_555
C7A C2A 1_555 1_555
H10A C7A 1_555 1_555
C8A O5A 1_555 1_555
C9A N2A 1_555 1_555
H11A C9A 1_555 1_555
C10A C9A 1_555 1_555
H12A C10A 1_555 1_555
C11A C10A 1_555 1_555
H13A C11A 1_555 1_555
C12A C11A 1_555 1_555
C13A N2A 1_555 1_555
H14A C13A 1_555 1_555
C14A N3A 1_555 1_555
C15A N3A 1_555 1_555
H15A C15A 1_555 1_555
H16A C15A 1_555 1_555
C16A C15A 1_555 1_555
H17A C16A 1_555 1_555
H18A C16A 1_555 1_555
C17A C16A 1_555 1_555
H19A C17A 1_555 1_555
H20A C17A 1_555 1_555
C18A N4A 1_555 1_555
H21A C18A 1_555 1_555
H22A C18A 1_555 1_555
C19A N4A 1_555 1_555
C20A H23A 1_555 1_555
C21A C19A 1_555 1_555
C22A C21A 1_555 1_555
H24A C22A 1_555 1_555
C23A C22A 1_555 1_555
H25A C23A 1_555 1_555
C24A N1A 1_555 1_555
H26A C24A 1_555 1_555
O4A Ni1 1_555 1_555
H3A O4A 1_555 1_555
H4A O4A 1_555 1_555
Ni1_2 O1A 1_555 1_555
Ni1_3 N1A 1_555 1_555
Ni1_4 N1 1_555 1_555
O1A_2 Ni1 1_555 1_555
N1_2 Ni1 1_555 1_555
N1A_2 Ni1 1_555 1_555
C6 C7 1_555 1_555
C6 C8 1_555 1_555
C12 C13 1_555 1_555
C12 C14 1_555 1_555
C17 C18 1_555 1_555
C20 C21 1_555 1_555
C23 C24 1_555 1_555
C6A C7A 1_555 1_555
C6A C8A 1_555 1_555
C12A C13A 1_555 1_555
C12A C14A 1_555 1_555
C17A C18A 1_555 1_555
C20A C21A 1_555 1_555
C23A C24A 1_555 1_555

#END
