
#######################################################################
#
#                 Cambridge Crystallographic Data Centre
#                                CCDC 
#
#######################################################################
#
# If this CIF has been generated from an entry in the Cambridge 
# Structural Database, then it will include bibliographic, chemical, 
# crystal, experimental, refinement or atomic coordinate data resulting 
# from the CCDC's data processing and validation procedures.
#
#######################################################################

data_CICBAR10
_symmetry_cell_setting           orthorhombic
_symmetry_space_group_name_H-M   'P n a 21'
_symmetry_Int_Tables_number      33
_space_group_name_Hall           'P 2c -2n'
loop_
_symmetry_equiv_pos_site_id
_symmetry_equiv_pos_as_xyz
1 x,y,z
2 1/2-x,1/2+y,1/2+z
3 1/2+x,1/2-y,z
4 -x,-y,1/2+z
_cell_length_a                   13.206(6)
_cell_length_b                   7.238(9)
_cell_length_c                   22.051(10)
_cell_angle_alpha                90
_cell_angle_beta                 90
_cell_angle_gamma                90
_cell_volume                     2107.75
loop_
_atom_site_label
_atom_site_type_symbol
_atom_site_fract_x
_atom_site_fract_y
_atom_site_fract_z
Pt1 Pt -0.3805(1) 0.3595(1) 0.2500
Ag1 Ag -0.2250(2) 0.6039(4) 0.2963(2)
Ag2 Ag -0.5112(2) 0.0661(4) 0.2120(1)
N1 N -0.2665(16) 0.1573(29) 0.2668(10)
N2 N -0.4847(16) 0.5626(34) 0.2390(11)
N3 N -0.3795(26) 0.8724(57) 0.3787(25)
O1 O -0.3878(18) 0.8415(39) 0.3219(16)
O2 O -0.2985(18) 0.9435(38) 0.4037(11)
O3 O -0.4461(21) 0.8122(39) 0.4146(13)
N4 N -0.3840(14) -0.1599(30) 0.1218(12)
O4 O -0.3735(14) -0.1238(29) 0.1764(12)
O5 O -0.4591(19) -0.2416(42) 0.1082(12)
O6 O -0.3139(24) -0.1359(42) 0.0852(15)
O7 O -0.1200(15) 0.8283(35) 0.3478(12)
N5 N -0.4179(19) 0.3579(30) 0.4454(11)
C1 C -0.3573(28) 0.4113(56) 0.4942(19)
C2 C -0.3890(33) 0.3977(80) 0.3894(27)
O9 O -0.2919(13) 0.4562(27) 0.3810(9)
N6 N -0.4352(15) 0.3201(28) 0.3377(10)
C3 C -0.5323(18) 0.2352(39) 0.3480(12)
O10 O -0.5791(14) 0.1836(26) 0.3007(9)
C4 C -0.5681(22) 0.2257(44) 0.4043(14)
C5 C -0.5157(20) 0.2779(44) 0.4546(13)
N7 N -0.3479(22) 0.3345(38) 0.0610(13)
C6 C -0.3949(34) 0.2455(73) 0.0082(23)
C7 C -0.3809(18) 0.3448(38) 0.1203(14)
O11 O -0.4645(18) 0.2683(38) 0.1276(11)
N8 N -0.3273(17) 0.3953(33) 0.1667(11)
C8 C -0.2350(22) 0.4745(46) 0.1571(15)
O12 O -0.1826(14) 0.5245(28) 0.2015(9)
C9 C -0.2010(24) 0.4686(49) 0.0982(15)
C10 C -0.2486(23) 0.4085(46) 0.0557(15)
Ag2B Ag -0.0112(2) 0.4339(4) 0.2120(1)
O10B O -0.0791(14) 0.3164(26) 0.3007(9)
O12B O -0.6826(14) -0.0245(28) 0.2015(9)
Ag1B Ag -0.7250(2) -0.1039(4) 0.2963(2)
O8 O -0.1545(18) 0.0484(34) 0.1563(12)
loop_
_geom_bond_atom_site_label_1
_geom_bond_atom_site_label_2
_geom_bond_site_symmetry_1
_geom_bond_site_symmetry_2
Pt1 Ag1 1_555 1_555
Ag1 O1 1_555 1_555
Ag2 Pt1 1_555 1_555
N1 Pt1 1_555 1_555
N2 Pt1 1_555 1_555
N3 O1 1_555 1_555
O2 N3 1_555 1_555
O3 N3 1_555 1_555
N4 O4 1_555 1_555
O4 Ag2 1_555 1_555
O5 N4 1_555 1_555
O6 N4 1_555 1_555
O7 Ag1 1_555 1_555
N5 C1 1_555 1_555
C2 N5 1_555 1_555
O9 Ag1 1_555 1_555
N6 Pt1 1_555 1_555
C3 N6 1_555 1_555
O10 Ag2 1_555 1_555
C4 C3 1_555 1_555
C5 N5 1_555 1_555
N7 C6 1_555 1_555
C7 N7 1_555 1_555
O11 Ag2 1_555 1_555
N8 Pt1 1_555 1_555
C8 N8 1_555 1_555
O12 Ag1 1_555 1_555
C9 C8 1_555 1_555
C10 N7 1_555 1_555
Ag2B O12 1_555 1_555
O10B Ag1 1_555 1_555
O12B Ag2 1_555 1_555
Ag1B O10 1_555 1_555
C2 O9 1_555 1_555
C2 N6 1_555 1_555
C3 O10 1_555 1_555
C4 C5 1_555 1_555
C7 O11 1_555 1_555
C7 N8 1_555 1_555
C8 O12 1_555 1_555
C9 C10 1_555 1_555
Ag2B O10B 1_555 1_555
O12B Ag1B 1_555 1_555

#END
