
#######################################################################
#
#                 Cambridge Crystallographic Data Centre
#                                CCDC 
#
#######################################################################
#
# If this CIF has been generated from an entry in the Cambridge 
# Structural Database, then it will include bibliographic, chemical, 
# crystal, experimental, refinement or atomic coordinate data resulting 
# from the CCDC's data processing and validation procedures.
#
#######################################################################

data_CICBOF
_symmetry_cell_setting           triclinic
_symmetry_space_group_name_H-M   'P -1'
_symmetry_Int_Tables_number      2
_space_group_name_Hall           '-P 1'
loop_
_symmetry_equiv_pos_site_id
_symmetry_equiv_pos_as_xyz
1 x,y,z
2 -x,-y,-z
_cell_length_a                   9.416(2)
_cell_length_b                   8.502(4)
_cell_length_c                   9.799(3)
_cell_angle_alpha                88.91(3)
_cell_angle_beta                 82.17(3)
_cell_angle_gamma                96.28(3)
_cell_volume                     772.021
loop_
_atom_site_label
_atom_site_type_symbol
_atom_site_fract_x
_atom_site_fract_y
_atom_site_fract_z
Nd1 Nd 0.35566 0.22705 0.22081
O1 O 0.45560 0.49030 0.30670
O2 O -0.09610 0.02960 0.17600
O3 O -0.01020 -0.14960 0.37340
O4 O 0.73020 0.31470 0.43590
O5 O 0.58160 0.34990 0.07110
O6 O 0.66610 0.60710 0.35190
O7 O 0.68200 0.54980 -0.06900
O8 O 0.19510 0.33320 0.42420
O9 O 0.50670 0.00650 0.17710
O10 O 0.63550 -0.12150 0.01530
O11 O 0.10710 0.19280 0.16890
C1 C 0.57660 0.47130 0.00090
O12 O 0.20540 -0.00280 0.34140
O13 O 0.51190 0.21180 0.39960
C2 C 0.54100 -0.03290 0.05500
C3 C 0.02230 0.06990 0.21250
C4 C 0.07690 -0.03680 0.32080
C5 C 0.61150 0.32500 0.40060
C6 C 0.57670 0.49150 0.34970
H1 H 0.11330 0.27730 0.47070
H2 H 0.22850 0.35940 0.50000
C1A C 0.42340 0.52870 -0.00090
O5A O 0.41840 0.65010 -0.07110
O7A O 0.31800 0.45020 0.06900
C2A C 0.45900 0.03290 -0.05500
O9A O 0.49330 -0.00650 -0.17710
O10A O 0.36450 0.12150 -0.01530
Nd1A Nd 0.64434 0.77295 -0.22081
O1A O 0.54440 0.50970 -0.30670
O4A O 0.26980 0.68530 -0.43590
O6A O 0.33390 0.39290 -0.35190
O13A O 0.48810 0.78820 -0.39960
C5A C 0.38850 0.67500 -0.40060
C6A C 0.42330 0.50850 -0.34970
O8A O 0.80490 0.66680 -0.42420
H1A H 0.88670 0.72270 -0.47070
H2A H 0.77150 0.64060 -0.50000
O2A O 1.09610 0.97040 -0.17600
O3A O 1.01020 1.14960 -0.37340
O11A O 0.89290 0.80720 -0.16890
O12A O 0.79460 1.00280 -0.34140
C3A C 0.97770 0.93010 -0.21250
C4A C 0.92310 1.03680 -0.32080
Nd1A_2 Nd 0.64434 -0.22705 -0.22081
O9A_2 O 0.49330 0.99350 -0.17710
O10_2 O 0.63550 0.87850 0.01530
K1 K 0.14140 0.28850 0.88730
K2 K 0.31720 0.04580 0.61330
K3 K 0.78230 0.34250 0.70100
O14 O 0.96410 0.47140 0.24350
H3 H 1.00000 0.38870 0.19340
H4 H 0.88480 0.44340 0.30470
O15 O 0.84260 0.22400 0.95970
H5 H 0.85550 0.13870 1.02730
H6 H 0.76950 0.27730 1.00000
loop_
_geom_bond_atom_site_label_1
_geom_bond_atom_site_label_2
_geom_bond_site_symmetry_1
_geom_bond_site_symmetry_2
Nd1 O1 1_555 1_555
O1 C6 1_555 1_555
O2 C3 1_555 1_555
O3 C4 1_555 1_555
O4 C5 1_555 1_555
O5 Nd1 1_555 1_555
O6 C6 1_555 1_555
O7 C1 1_555 1_555
O8 Nd1 1_555 1_555
O9 Nd1 1_555 1_555
O10 C2 1_555 1_555
O11 Nd1 1_555 1_555
C1 O5 1_555 1_555
O12 Nd1 1_555 1_555
O13 Nd1 1_555 1_555
C2 O9 1_555 1_555
C3 O11 1_555 1_555
C4 O12 1_555 1_555
C5 O13 1_555 1_555
C6 C5 1_555 1_555
H1 O8 1_555 1_555
H2 O8 1_555 1_555
O14 H3 1_555 1_555
H4 O14 1_555 1_555
O15 H5 1_555 1_555
H6 O15 1_555 1_555
C1A C1 1_555 1_555
O5A C1A 1_555 1_555
O7A Nd1 1_555 1_555
C2A C2 1_555 1_555
O9A C2A 1_555 1_555
O10A Nd1 1_555 1_555
Nd1A O7 1_555 1_555
O1A Nd1A 1_555 1_555
O4A C5A 1_555 1_555
O6A C6A 1_555 1_555
O13A Nd1A 1_555 1_555
C5A O13A 1_555 1_555
C6A O1A 1_555 1_555
O8A Nd1A 1_555 1_555
H1A O8A 1_555 1_555
H2A O8A 1_555 1_555
O2A C3A 1_555 1_555
O3A C4A 1_555 1_555
O11A Nd1A 1_555 1_555
O12A Nd1A 1_555 1_555
C3A O11A 1_555 1_555
C4A O12A 1_555 1_555
Nd1A_2 O10 1_555 1_555
O9A_2 Nd1A 1_555 1_555
O10_2 Nd1A 1_555 1_555
C3 C4 1_555 1_555
C1A O7A 1_555 1_555
O5A Nd1A 1_555 1_555
C2A O10A 1_555 1_555
O9A Nd1A_2 1_555 1_555
C5A C6A 1_555 1_555
C3A C4A 1_555 1_555

#END
