
#######################################################################
#
#                 Cambridge Crystallographic Data Centre
#                                CCDC 
#
#######################################################################
#
# If this CIF has been generated from an entry in the Cambridge 
# Structural Database, then it will include bibliographic, chemical, 
# crystal, experimental, refinement or atomic coordinate data resulting 
# from the CCDC's data processing and validation procedures.
#
#######################################################################

data_CICBAR
_symmetry_cell_setting           orthorhombic
_symmetry_space_group_name_H-M   'P n a 21'
_symmetry_Int_Tables_number      33
_space_group_name_Hall           'P 2c -2n'
loop_
_symmetry_equiv_pos_site_id
_symmetry_equiv_pos_as_xyz
1 x,y,z
2 1/2-x,1/2+y,1/2+z
3 1/2+x,1/2-y,z
4 -x,-y,1/2+z
_cell_length_a                   13.206(6)
_cell_length_b                   7.238(9)
_cell_length_c                   22.051(10)
_cell_angle_alpha                90
_cell_angle_beta                 90
_cell_angle_gamma                90
_cell_volume                     2107.75
loop_
_atom_site_label
_atom_site_type_symbol
_atom_site_fract_x
_atom_site_fract_y
_atom_site_fract_z
Pt1 Pt -0.38050 0.35950 0.25000
Ag1 Ag -0.22500 0.60390 0.29630
Ag2 Ag -0.51120 0.06610 0.21200
N1 N -0.26650 0.15730 0.26680
N2 N -0.48470 0.56260 0.23900
N3 N -0.37950 0.87240 0.37870
O1 O -0.38780 0.84150 0.32190
O2 O -0.29850 0.94350 0.40370
O3 O -0.44610 0.81220 0.41460
N4 N -0.38400 -0.1599 0.12180
O4 O -0.37350 -0.12380 0.17640
O5 O -0.45910 -0.24160 0.10820
O6 O -0.31390 -0.13590 0.08520
O7 O -0.12000 0.82830 0.34780
N5 N -0.41790 0.35790 0.44540
C1 C -0.35730 0.41130 0.49420
C2 C -0.38900 0.39770 0.38940
O8 O -0.29190 0.45620 0.38100
N6 N -0.43520 0.32010 0.33770
C3 C -0.53230 0.23520 0.34800
O9 O -0.57910 0.18360 0.30070
C4 C -0.56810 0.22570 0.40430
C5 C -0.51570 0.27790 0.45460
N7 N -0.34790 0.33450 0.06100
C6 C -0.39490 0.24550 0.00820
C7 C -0.38090 0.34480 0.12030
O10 O -0.46450 0.26830 0.12760
N8 N -0.32730 0.39530 0.16670
C8 C -0.23500 0.47450 0.15710
O11 O -0.18260 0.52450 0.20150
C9 C -0.20100 0.46860 0.09820
C10 C -0.24860 0.40850 0.05570
Ag2B Ag -0.01120 0.43390 0.21200
O9B O -0.07910 0.31640 0.30070
O11B O -0.68260 -0.02450 0.20150
Ag1B Ag -0.72500 -0.10390 0.29630
O12 O -0.15450 0.04840 0.15630
loop_
_geom_bond_atom_site_label_1
_geom_bond_atom_site_label_2
_geom_bond_site_symmetry_1
_geom_bond_site_symmetry_2
Pt1 N1 1_555 1_555
Ag1 O1 1_555 1_555
Ag2 O4 1_555 1_555
N2 Pt1 1_555 1_555
N3 O1 1_555 1_555
O2 N3 1_555 1_555
O3 N3 1_555 1_555
N4 O4 1_555 1_555
O5 N4 1_555 1_555
O6 N4 1_555 1_555
O7 Ag1 1_555 1_555
N5 C1 1_555 1_555
C2 N5 1_555 1_555
O8 Ag1 1_555 1_555
N6 Pt1 1_555 1_555
C3 N6 1_555 1_555
O9 Ag2 1_555 1_555
C4 C3 1_555 1_555
C5 N5 1_555 1_555
N7 C6 1_555 1_555
C7 N7 1_555 1_555
O10 Ag2 1_555 1_555
N8 Pt1 1_555 1_555
C8 N8 1_555 1_555
O11 Ag1 1_555 1_555
C9 C8 1_555 1_555
C10 N7 1_555 1_555
Ag2B O11 1_555 1_555
O9B Ag1 1_555 1_555
O11B Ag2 1_555 1_555
Ag1B O9 1_555 1_555
C2 O8 1_555 1_555
C2 N6 1_555 1_555
C3 O9 1_555 1_555
C4 C5 1_555 1_555
C7 O10 1_555 1_555
C7 N8 1_555 1_555
C8 O11 1_555 1_555
C9 C10 1_555 1_555
Ag2B O9B 1_555 1_555
O11B Ag1B 1_555 1_555

#END
