
#######################################################################
#
#                 Cambridge Crystallographic Data Centre
#                                CCDC 
#
#######################################################################
#
# If this CIF has been generated from an entry in the Cambridge 
# Structural Database, then it will include bibliographic, chemical, 
# crystal, experimental, refinement or atomic coordinate data resulting 
# from the CCDC's data processing and validation procedures.
#
#######################################################################

data_CICCEY
_symmetry_cell_setting           orthorhombic
_symmetry_space_group_name_H-M   'P n a 21'
_symmetry_Int_Tables_number      33
_space_group_name_Hall           'P 2c -2n'
loop_
_symmetry_equiv_pos_site_id
_symmetry_equiv_pos_as_xyz
1 x,y,z
2 -x,-y,1/2+z
3 1/2+x,1/2-y,z
4 1/2-x,1/2+y,1/2+z
_cell_length_a                   15.928(4)
_cell_length_b                   10.507(3)
_cell_length_c                   28.672(7)
_cell_angle_alpha                90
_cell_angle_beta                 90
_cell_angle_gamma                90
_cell_volume                     4798.42
loop_
_atom_site_label
_atom_site_type_symbol
_atom_site_fract_x
_atom_site_fract_y
_atom_site_fract_z
Ag1 Ag 0.84643(2) 1.11372(4) 0.170485(13)
Ag2 Ag 0.93072(2) 0.88395(4) 0.222706(13)
I1 I 0.80814(2) 1.05007(3) 0.264788(12)
I2 I 0.97126(2) 0.95155(3) 0.129402(12)
Fe1 Fe 0.72023(4) 0.77824(8) 0.03644(3)
Fe2 Fe 1.04583(5) 1.21711(8) 0.35987(3)
N1 N 0.7380(2) 1.1785(4) 0.07920(14)
N2 N 0.7058(2) 1.3047(4) 0.13456(16)
N3 N 0.8326(3) 1.7158(4) 0.19755(16)
N4 N 0.9457(3) 0.2847(4) 0.19323(16)
N5 N 1.0726(2) 0.6938(4) 0.25836(15)
N6 N 1.0387(3) 0.8165(4) 0.31359(16)
C1 C 0.8360(4) 0.7024(6) 0.0259(2)
H1 H 0.8850 0.7082 0.0477
C2 C 0.8153(4) 0.7907(6) -0.0102(2)
H2 H 0.8473 0.8696 -0.0183
C3 C 0.7440(4) 0.7474(6) -0.03226(19)
H3 H 0.7151 0.7915 -0.0587
C4 C 0.7167(4) 0.6340(6) -0.0113(2)
H4 H 0.6661 0.5834 -0.0204
C5 C 0.7741(4) 0.6043(6) 0.0253(2)
H5 H 0.7713 0.5290 0.0465
C6 C 0.7218(3) 0.8621(5) 0.10073(17)
H6 H 0.7693 0.8606 0.1235
C7 C 0.6555(3) 0.7722(5) 0.09786(18)
H7 H 0.6486 0.6956 0.1182
C8 C 0.6008(3) 0.8090(6) 0.0611(2)
H8 H 0.5490 0.7627 0.0510
C9 C 0.6336(3) 0.9206(5) 0.0404(2)
H9 H 0.6087 0.9673 0.0134
C10 C 0.7090(3) 0.9544(5) 0.06453(18)
C11 C 0.7659(3) 1.0643(5) 0.05409(18)
H10 H 0.8240 1.0428 0.0636
H11 H 0.7659 1.0812 0.0201
C12 C 0.6829(3) 1.2675(6) 0.0610(2)
H12 H 0.6634 1.2714 0.0297
C13 C 0.6623(3) 1.3474(5) 0.0957(2)
H13 H 0.6256 1.4184 0.0940
C14 C 0.7531(3) 1.1999(5) 0.12509(18)
C15 C 0.6981(3) 1.3622(5) 0.18048(18)
H14 H 0.7198 1.3018 0.2041
H15 H 0.6380 1.3770 0.1873
C16 C 0.7449(3) 1.4867(5) 0.18497(17)
C17 C 0.7253(3) 1.5689(5) 0.2215(2)
H16 H 0.6821 1.5483 0.2430
C18 C 0.7701(3) 1.6810(5) 0.22578(19)
H17 H 0.7554 1.7370 0.2505
C19 C 0.8500(3) 1.6380(5) 0.16220(18)
H18 H 0.8931 1.6620 0.1410
C20 C 0.8084(3) 1.5234(5) 0.15460(18)
H19 H 0.8233 1.4708 0.1289
C21 C 0.9291(3) 0.3610(5) 0.22908(19)
H20 H 0.8856 0.3370 0.2500
C22 C 0.9714(3) 0.4727(5) 0.23753(18)
H21 H 0.9577 0.5230 0.2640
C23 C 1.0342(3) 0.5115(5) 0.20719(18)
C24 C 1.0522(3) 0.4316(5) 0.1700(2)
H22 H 1.0953 0.4532 0.1485
C25 C 1.0073(3) 0.3207(5) 0.16433(19)
H23 H 1.0206 0.2671 0.1387
C26 C 1.0801(3) 0.6359(5) 0.21211(18)
H24 H 1.1402 0.6218 0.2052
H25 H 1.0581 0.6964 0.1886
C27 C 1.1173(3) 0.6534(6) 0.2969(2)
H26 H 1.1556 0.5842 0.2982
C28 C 1.0958(3) 0.7314(5) 0.3320(2)
H27 H 1.1159 0.7286 0.3632
C29 C 1.0232(3) 0.7954(5) 0.2678(2)
C30 C 1.0071(3) 0.9285(5) 0.34000(18)
H28 H 1.0033 0.9069 0.3735
H29 H 0.9501 0.9508 0.3289
C31 C 1.0647(3) 1.0408(5) 0.33365(18)
C32 C 1.0588(3) 1.1310(5) 0.29681(18)
H30 H 1.0168 1.1308 0.2709
C33 C 1.1246(4) 1.2207(6) 0.3035(2)
H31 H 1.1358 1.2964 0.2833
C34 C 1.1702(4) 1.1873(6) 0.3445(2)
H32 H 1.2189 1.2348 0.3579
C35 C 1.1337(3) 1.0746(5) 0.36301(19)
H33 H 1.1522 1.0285 0.3917
C36 C 0.9964(4) 1.2405(6) 0.42546(19)
H34 H 1.0100 1.1892 0.4538
C37 C 1.0378(4) 1.3525(6) 0.4102(2)
H35 H 1.0865 1.3940 0.4261
C38 C 0.9991(4) 1.3961(6) 0.3691(2)
H36 H 1.0150 1.4736 0.3510
C39 C 0.9338(4) 1.3095(6) 0.3581(2)
H37 H 0.8953 1.3153 0.3306
C40 C 0.9318(3) 1.2156(6) 0.39268(19)
H38 H 0.8921 1.1420 0.3937
Ag1_2 Ag 0.84643(2) 0.11372(4) 0.170485(13)
Ag2_2 Ag 0.93072(2) 1.88395(4) 0.222706(13)
N3_2 N 0.8326(3) 0.7158(4) 0.19755(16)
N4_2 N 0.9457(3) 1.2847(4) 0.19323(16)
O1 O 0.8572(3) 0.1891(5) -0.06447(18)
N7 N 0.9296(3) 0.2282(6) 0.00110(19)
C41 C 0.8731(4) 0.2572(8) -0.0310(2)
H39 H 0.8432 0.3350 -0.0278
C42 C 0.9436(5) 0.3097(8) 0.0410(3)
H40 H 0.9075 0.3850 0.0387
H41 H 1.0026 0.3364 0.0417
H42 H 0.9303 0.2631 0.0696
C43 C 0.9783(4) 0.1105(7) -0.0030(2)
H43 H 0.9631 0.0668 -0.0321
H44 H 0.9660 0.0550 0.0236
H45 H 1.0383 0.1308 -0.0034
O2 O 0.8780(4) 0.6799(6) 0.46317(19)
N8 N 0.8402(3) 0.7104(6) 0.38949(18)
C44 C 0.8677(5) 0.6352(8) 0.4234(2)
H46 H 0.8793 0.5480 0.4174
C45 C 0.8136(4) 0.8409(7) 0.3994(3)
H47 H 0.8280 0.8625 0.4317
H48 H 0.7528 0.8481 0.3951
H49 H 0.8423 0.8996 0.3782
C46 C 0.8256(5) 0.6579(8) 0.3434(2)
H50 H 0.8469 0.5704 0.3422
H51 H 0.8548 0.7098 0.3201
H52 H 0.7652 0.6579 0.3367
loop_
_geom_bond_atom_site_label_1
_geom_bond_atom_site_label_2
_geom_bond_site_symmetry_1
_geom_bond_site_symmetry_2
Ag1 I1 1_555 1_555
Ag2 I1 1_555 1_555
I2 Ag1 1_555 1_555
Fe1 C1 1_555 1_555
Fe2 C31 1_555 1_555
N1 C11 1_555 1_555
N2 C13 1_555 1_555
N3 C18 1_555 1_555
N4 C21 1_555 1_555
N5 C26 1_555 1_555
N6 C28 1_555 1_555
C1 H1 1_555 1_555
C2 Fe1 1_555 1_555
H2 C2 1_555 1_555
C3 Fe1 1_555 1_555
H3 C3 1_555 1_555
C4 Fe1 1_555 1_555
H4 C4 1_555 1_555
C5 Fe1 1_555 1_555
H5 C5 1_555 1_555
C6 Fe1 1_555 1_555
H6 C6 1_555 1_555
C7 Fe1 1_555 1_555
H7 C7 1_555 1_555
C8 Fe1 1_555 1_555
H8 C8 1_555 1_555
C9 Fe1 1_555 1_555
H9 C9 1_555 1_555
C10 Fe1 1_555 1_555
C11 C10 1_555 1_555
H10 C11 1_555 1_555
H11 C11 1_555 1_555
C12 N1 1_555 1_555
H12 C12 1_555 1_555
C13 C12 1_555 1_555
H13 C13 1_555 1_555
C14 Ag1 1_555 1_555
C15 N2 1_555 1_555
H14 C15 1_555 1_555
H15 C15 1_555 1_555
C16 C15 1_555 1_555
C17 C16 1_555 1_555
H16 C17 1_555 1_555
C18 C17 1_555 1_555
H17 C18 1_555 1_555
C19 N3 1_555 1_555
H18 C19 1_555 1_555
C20 C16 1_555 1_555
H19 C20 1_555 1_555
C21 H20 1_555 1_555
C22 C21 1_555 1_555
H21 C22 1_555 1_555
C23 C22 1_555 1_555
C24 C23 1_555 1_555
H22 C24 1_555 1_555
C25 N4 1_555 1_555
H23 C25 1_555 1_555
C26 C23 1_555 1_555
H24 C26 1_555 1_555
H25 C26 1_555 1_555
C27 N5 1_555 1_555
H26 C27 1_555 1_555
C28 C27 1_555 1_555
H27 C28 1_555 1_555
C29 Ag2 1_555 1_555
C30 N6 1_555 1_555
H28 C30 1_555 1_555
H29 C30 1_555 1_555
C31 C30 1_555 1_555
C32 Fe2 1_555 1_555
H30 C32 1_555 1_555
C33 Fe2 1_555 1_555
H31 C33 1_555 1_555
C34 Fe2 1_555 1_555
H32 C34 1_555 1_555
C35 Fe2 1_555 1_555
H33 C35 1_555 1_555
C36 Fe2 1_555 1_555
H34 C36 1_555 1_555
C37 Fe2 1_555 1_555
H35 C37 1_555 1_555
C38 Fe2 1_555 1_555
H36 C38 1_555 1_555
C39 Fe2 1_555 1_555
H37 C39 1_555 1_555
C40 Fe2 1_555 1_555
H38 C40 1_555 1_555
O1 C41 1_555 1_555
N7 C41 1_555 1_555
C41 H39 1_555 1_555
C42 N7 1_555 1_555
H40 C42 1_555 1_555
H41 C42 1_555 1_555
H42 C42 1_555 1_555
C43 N7 1_555 1_555
H43 C43 1_555 1_555
H44 C43 1_555 1_555
H45 C43 1_555 1_555
O2 C44 1_555 1_555
N8 C44 1_555 1_555
C44 H46 1_555 1_555
C45 N8 1_555 1_555
H47 C45 1_555 1_555
H48 C45 1_555 1_555
H49 C45 1_555 1_555
C46 N8 1_555 1_555
H50 C46 1_555 1_555
H51 C46 1_555 1_555
H52 C46 1_555 1_555
Ag1_2 N4 1_555 1_555
Ag2_2 N3 1_555 1_555
N3_2 Ag2 1_555 1_555
N4_2 Ag1 1_555 1_555
Ag2 I2 1_555 1_555
N1 C14 1_555 1_555
N2 C14 1_555 1_555
N5 C29 1_555 1_555
N6 C29 1_555 1_555
C1 C2 1_555 1_555
C1 C5 1_555 1_555
C2 C3 1_555 1_555
C3 C4 1_555 1_555
C4 C5 1_555 1_555
C6 C7 1_555 1_555
C6 C10 1_555 1_555
C7 C8 1_555 1_555
C8 C9 1_555 1_555
C9 C10 1_555 1_555
C19 C20 1_555 1_555
C24 C25 1_555 1_555
C31 C32 1_555 1_555
C31 C35 1_555 1_555
C32 C33 1_555 1_555
C33 C34 1_555 1_555
C34 C35 1_555 1_555
C36 C37 1_555 1_555
C36 C40 1_555 1_555
C37 C38 1_555 1_555
C38 C39 1_555 1_555
C39 C40 1_555 1_555

#END
