
#######################################################################
#
#                 Cambridge Crystallographic Data Centre
#                                CCDC 
#
#######################################################################
#
# If this CIF has been generated from an entry in the Cambridge 
# Structural Database, then it will include bibliographic, chemical, 
# crystal, experimental, refinement or atomic coordinate data resulting 
# from the CCDC's data processing and validation procedures.
#
#######################################################################

data_CICCAU
_symmetry_cell_setting           monoclinic
_symmetry_space_group_name_H-M   'P 21/c'
_symmetry_Int_Tables_number      14
_space_group_name_Hall           '-P 2ybc'
loop_
_symmetry_equiv_pos_site_id
_symmetry_equiv_pos_as_xyz
1 x,y,z
2 -x,1/2+y,1/2-z
3 -x,-y,-z
4 x,1/2-y,1/2+z
_cell_length_a                   12.262(7)
_cell_length_b                   9.528(6)
_cell_length_c                   15.763(9)
_cell_angle_alpha                90
_cell_angle_beta                 92.015(11)
_cell_angle_gamma                90
_cell_volume                     1840.49
loop_
_atom_site_label
_atom_site_type_symbol
_atom_site_fract_x
_atom_site_fract_y
_atom_site_fract_z
Ag1 Ag 0.94620(3) 0.62725(4) 0.05886(3)
Fe1 Fe 0.58999(5) 0.26636(6) 0.13938(4)
Cl1 Cl 1.15251(9) 0.56214(11) 0.05281(7)
N1 N 0.7452(3) 0.6812(4) 0.1757(2)
N2 N 0.8848(3) 0.7939(4) 0.2226(2)
N3 N 1.0436(3) 1.1862(4) 0.0470(2)
C1 C 0.5517(4) 0.2996(5) 0.0135(3)
H1 H 0.5656 0.3832 -0.0170
C2 C 0.6230(4) 0.1826(6) 0.0235(3)
H2 H 0.6929 0.1739 -0.0001
C3 C 0.5721(4) 0.0810(5) 0.0745(3)
H3 H 0.6026 -0.0066 0.0916
C4 C 0.4688(4) 0.1321(5) 0.0954(3)
H4 H 0.4172 0.0845 0.1286
C5 C 0.4550(4) 0.2676(5) 0.0582(3)
H5 H 0.3927 0.3263 0.0622
C6 C 0.7367(4) 0.3365(5) 0.1874(3)
H6 H 0.8045 0.3312 0.1602
C7 C 0.6933(4) 0.2334(5) 0.2429(3)
H7 H 0.7270 0.1473 0.2591
C8 C 0.5905(4) 0.2830(4) 0.2697(3)
H8 H 0.5440 0.2352 0.3071
C9 C 0.5689(4) 0.4161(4) 0.2312(3)
H9 H 0.5059 0.4725 0.2383
C10 C 0.6594(3) 0.4493(4) 0.1801(3)
C11 C 0.6759(4) 0.5793(4) 0.1287(3)
H10 H 0.7105 0.5541 0.0749
H11 H 0.6042 0.6226 0.1143
C12 C 0.7114(4) 0.7623(4) 0.2429(3)
H12 H 0.6400 0.7661 0.2643
C13 C 0.7998(4) 0.8347(5) 0.2723(3)
H13 H 0.8028 0.9001 0.3178
C14 C 0.8533(3) 0.6985(4) 0.1621(3)
C15 C 0.9947(4) 0.8537(5) 0.2280(3)
H14 H 1.0486 0.7783 0.2191
H15 H 1.0085 0.8925 0.2857
C16 C 1.0105(3) 0.9687(4) 0.1631(3)
C17 C 1.1146(4) 1.0035(5) 0.1370(3)
H16 H 1.1766 0.9536 0.1586
C18 C 1.1267(4) 1.1109(5) 0.0795(3)
H17 H 1.1981 1.1325 0.0621
C19 C 0.9459(4) 1.1517(5) 0.0720(3)
H18 H 0.8857 1.2033 0.0489
C20 C 0.9240(4) 1.0464(5) 0.1292(3)
H19 H 0.8514 1.0278 0.1449
Ag1B Ag 1.05380(3) 0.37275(4) -0.05886(3)
Ag1B_2 Ag 1.05380(3) 1.37275(4) -0.05886(3)
Cl1B Cl 0.84749(9) 0.43786(11) -0.05281(7)
N3B N 0.9564(3) 0.8138(4) -0.0470(2)
loop_
_geom_bond_atom_site_label_1
_geom_bond_atom_site_label_2
_geom_bond_site_symmetry_1
_geom_bond_site_symmetry_2
Ag1 Cl1 1_555 1_555
Fe1 C1 1_555 1_555
Cl1 Ag1B 1_555 1_555
N1 C11 1_555 1_555
N2 C13 1_555 1_555
N3 C18 1_555 1_555
C1 H1 1_555 1_555
C2 Fe1 1_555 1_555
H2 C2 1_555 1_555
C3 Fe1 1_555 1_555
H3 C3 1_555 1_555
C4 Fe1 1_555 1_555
H4 C4 1_555 1_555
C5 Fe1 1_555 1_555
H5 C5 1_555 1_555
C6 Fe1 1_555 1_555
H6 C6 1_555 1_555
C7 Fe1 1_555 1_555
H7 C7 1_555 1_555
C8 Fe1 1_555 1_555
H8 C8 1_555 1_555
C9 Fe1 1_555 1_555
H9 C9 1_555 1_555
C10 Fe1 1_555 1_555
C11 C10 1_555 1_555
H10 C11 1_555 1_555
H11 C11 1_555 1_555
C12 N1 1_555 1_555
H12 C12 1_555 1_555
C13 C12 1_555 1_555
H13 C13 1_555 1_555
C14 Ag1 1_555 1_555
C15 N2 1_555 1_555
H14 C15 1_555 1_555
H15 C15 1_555 1_555
C16 C15 1_555 1_555
C17 C16 1_555 1_555
H16 C17 1_555 1_555
C18 C17 1_555 1_555
H17 C18 1_555 1_555
C19 N3 1_555 1_555
H18 C19 1_555 1_555
C20 C16 1_555 1_555
H19 C20 1_555 1_555
Ag1B Cl1B 1_555 1_555
Ag1B_2 N3 1_555 1_555
Cl1B Ag1 1_555 1_555
N3B Ag1 1_555 1_555
N1 C14 1_555 1_555
N2 C14 1_555 1_555
C1 C2 1_555 1_555
C1 C5 1_555 1_555
C2 C3 1_555 1_555
C3 C4 1_555 1_555
C4 C5 1_555 1_555
C6 C7 1_555 1_555
C6 C10 1_555 1_555
C7 C8 1_555 1_555
C8 C9 1_555 1_555
C9 C10 1_555 1_555
C19 C20 1_555 1_555

#END
