
#######################################################################
#
#                 Cambridge Crystallographic Data Centre
#                                CCDC 
#
#######################################################################
#
# If this CIF has been generated from an entry in the Cambridge 
# Structural Database, then it will include bibliographic, chemical, 
# crystal, experimental, refinement or atomic coordinate data resulting 
# from the CCDC's data processing and validation procedures.
#
#######################################################################

data_CICDAV
_symmetry_cell_setting           monoclinic
_symmetry_space_group_name_H-M   'C 2/c'
_symmetry_Int_Tables_number      15
_space_group_name_Hall           '-C 2yn'
loop_
_symmetry_equiv_pos_site_id
_symmetry_equiv_pos_as_xyz
1 x,y,z
2 -x,y,1/2-z
3 1/2+x,1/2+y,z
4 1/2-x,1/2+y,1/2-z
5 -x,-y,-z
6 x,-y,1/2+z
7 1/2-x,1/2-y,-z
8 1/2+x,1/2-y,1/2+z
_cell_length_a                   34.418(3)
_cell_length_b                   8.5571(8)
_cell_length_c                   19.372(2)
_cell_angle_alpha                90
_cell_angle_beta                 107.496(3)
_cell_angle_gamma                90
_cell_volume                     5441.46
loop_
_atom_site_label
_atom_site_type_symbol
_atom_site_fract_x
_atom_site_fract_y
_atom_site_fract_z
I1 I 0.692272(6) 0.37697(2) 0.917992(9)
I2 I 0.701164(6) 0.85610(2) 0.921517(9)
Ag1 Ag 0.759709(7) 0.61582(3) 0.923534(12)
Ag2 Ag 0.748596(7) 0.13309(3) 0.942116(12)
Fe1 Fe 0.933520(13) 0.49144(6) 1.05707(2)
N1 N 0.82902(7) 0.5050(3) 0.85830(11)
N2 N 0.78516(7) 0.6364(3) 0.77792(12)
N3 N 0.71029(7) 0.5795(3) 0.63341(12)
C1 C 0.91847(11) 0.2827(5) 1.09289(19)
H1 H 0.8971 0.2153 1.0670
C2 C 0.91533(12) 0.4021(5) 1.13966(19)
H2 H 0.8912 0.4303 1.1510
C3 C 0.95368(12) 0.4747(5) 1.16759(17)
H3 H 0.9600 0.5594 1.2008
C4 C 0.98089(11) 0.3978(5) 1.13689(18)
H4 H 1.0089 0.4217 1.1457
C5 C 0.95900(11) 0.2795(5) 1.09084(17)
H5 H 0.9697 0.2096 1.0631
C6 C 0.89321(9) 0.6632(4) 1.00985(15)
H6 H 0.8719 0.7024 1.0267
C7 C 0.93355(9) 0.7219(4) 1.02818(16)
H7 H 0.9439 0.8076 1.0595
C8 C 0.95593(10) 0.6308(4) 0.99169(15)
H8 H 0.9838 0.6442 0.9949
C9 C 0.92939(9) 0.5176(4) 0.95008(15)
H9 H 0.9361 0.4425 0.9195
C10 C 0.89042(9) 0.5349(4) 0.96178(14)
C11 C 0.85322(8) 0.4376(4) 0.92790(14)
H10 H 0.8616 0.3301 0.9200
H11 H 0.8363 0.4320 0.9611
C12 C 0.84293(9) 0.5100(4) 0.79860(14)
H12 H 0.8672 0.4644 0.7942
C13 C 0.81523(9) 0.5923(3) 0.74796(14)
H13 H 0.8161 0.6157 0.7005
C14 C 0.79359(8) 0.5836(3) 0.84722(14)
C15 C 0.74935(8) 0.7298(4) 0.73893(13)
H14 H 0.7564 0.7968 0.7028
H15 H 0.7416 0.7988 0.7736
C16 C 0.71367(8) 0.6272(3) 0.70103(15)
C17 C 0.68633(9) 0.5795(4) 0.73739(15)
H16 H 0.6887 0.6179 0.7845
C18 C 0.65558(9) 0.4753(4) 0.70384(15)
H17 H 0.6372 0.4387 0.7283
C19 C 0.65202(9) 0.4258(4) 0.63458(15)
H18 H 0.6310 0.3554 0.6103
C20 C 0.67961(9) 0.4804(4) 0.60112(15)
H19 H 0.6769 0.4467 0.5532
I1F I 0.807728(6) 0.12303(2) 1.082008(9)
I2_2 I 0.701164(6) -0.14390(2) 0.921517(9)
I2F I 0.798836(6) 0.64390(2) 1.078483(9)
Ag1F Ag 0.740291(7) 0.88418(3) 1.076466(12)
Ag2_2 Ag 0.748596(7) 1.13309(3) 0.942116(12)
Ag2C Ag 0.751404(7) 0.63309(3) 0.557884(12)
Ag2F Ag 0.751404(7) 0.36691(3) 1.057884(12)
N3C N 0.78971(7) 0.0795(3) 0.86659(12)
loop_
_geom_bond_atom_site_label_1
_geom_bond_atom_site_label_2
_geom_bond_site_symmetry_1
_geom_bond_site_symmetry_2
I1 Ag1 1_555 1_555
I2 Ag1 1_555 1_555
Ag1 C14 1_555 1_555
Ag2 I1 1_555 1_555
Fe1 C1 1_555 1_555
N1 C11 1_555 1_555
N2 C13 1_555 1_555
N3 C16 1_555 1_555
C1 H1 1_555 1_555
C2 Fe1 1_555 1_555
H2 C2 1_555 1_555
C3 Fe1 1_555 1_555
H3 C3 1_555 1_555
C4 Fe1 1_555 1_555
H4 C4 1_555 1_555
C5 Fe1 1_555 1_555
H5 C5 1_555 1_555
C6 Fe1 1_555 1_555
H6 C6 1_555 1_555
C7 Fe1 1_555 1_555
H7 C7 1_555 1_555
C8 Fe1 1_555 1_555
H8 C8 1_555 1_555
C9 Fe1 1_555 1_555
H9 C9 1_555 1_555
C10 Fe1 1_555 1_555
C11 C10 1_555 1_555
H10 C11 1_555 1_555
H11 C11 1_555 1_555
C12 N1 1_555 1_555
H12 C12 1_555 1_555
C13 C12 1_555 1_555
H13 C13 1_555 1_555
C14 N1 1_555 1_555
C15 N2 1_555 1_555
H14 C15 1_555 1_555
H15 C15 1_555 1_555
C16 C15 1_555 1_555
C17 C16 1_555 1_555
H16 C17 1_555 1_555
C18 C17 1_555 1_555
H17 C18 1_555 1_555
C19 C18 1_555 1_555
H18 C19 1_555 1_555
C20 N3 1_555 1_555
H19 C20 1_555 1_555
I1F Ag2 1_555 1_555
I2_2 Ag2 1_555 1_555
I2F Ag1 1_555 1_555
Ag1F I2 1_555 1_555
Ag2_2 I2 1_555 1_555
Ag2C N3 1_555 1_555
Ag2F I1 1_555 1_555
N3C Ag2 1_555 1_555
N2 C14 1_555 1_555
C1 C2 1_555 1_555
C1 C5 1_555 1_555
C2 C3 1_555 1_555
C3 C4 1_555 1_555
C4 C5 1_555 1_555
C6 C7 1_555 1_555
C6 C10 1_555 1_555
C7 C8 1_555 1_555
C8 C9 1_555 1_555
C9 C10 1_555 1_555
C19 C20 1_555 1_555
I1F Ag2F 1_555 1_555
I2F Ag1F 1_555 1_555
I2F Ag2F 1_555 1_555

#END
