
#######################################################################
#
#                 Cambridge Crystallographic Data Centre
#                                CCDC 
#
#######################################################################
#
# If this CIF has been generated from an entry in the Cambridge 
# Structural Database, then it will include bibliographic, chemical, 
# crystal, experimental, refinement or atomic coordinate data resulting 
# from the CCDC's data processing and validation procedures.
#
#######################################################################

data_CICFAW
_symmetry_cell_setting           triclinic
_symmetry_space_group_name_H-M   'P -1'
_symmetry_Int_Tables_number      2
_space_group_name_Hall           '-P 1'
loop_
_symmetry_equiv_pos_site_id
_symmetry_equiv_pos_as_xyz
1 x,y,z
2 -x,-y,-z
_cell_length_a                   5.91380(10)
_cell_length_b                   8.5561(2)
_cell_length_c                   9.4413(2)
_cell_angle_alpha                115.2460(10)
_cell_angle_beta                 96.1470(10)
_cell_angle_gamma                94.5120(10)
_cell_volume                     425.481
loop_
_atom_site_label
_atom_site_type_symbol
_atom_site_fract_x
_atom_site_fract_y
_atom_site_fract_z
Cd1 Cd 0.5000 0.0000 0.5000
S1 S 0.31205(8) 0.13344(6) 0.20978(6)
S2 S 0.32208(8) 0.25374(7) 0.72442(6)
O1 O 0.2601(3) -0.0393(2) 0.0826(2)
O2 O 0.4885(3) 0.1593(2) 0.3410(2)
N1 N -0.1485(3) 0.1461(2) 0.6227(2)
C1 C 0.0585(4) 0.2137(3) 0.2838(3)
H1 H -0.0782 0.1404 0.2130
H2 H 0.0545 0.2189 0.3882
C2 C 0.0768(5) 0.3954(3) 0.2911(3)
H3 H 0.1752 0.4783 0.3875
H4 H -0.0737 0.4329 0.2900
C3 C 0.1777(5) 0.3854(3) 0.1473(3)
H5 H 0.0662 0.3217 0.0518
H6 H 0.2221 0.5016 0.1571
C4 C 0.3848(4) 0.2918(3) 0.1400(3)
H7 H 0.5189 0.3727 0.2069
H8 H 0.4167 0.2357 0.0322
C5 C 0.0453(3) 0.1882(2) 0.6641(2)
Cd1_2 Cd -0.5000 0.0000 0.5000
Cd1_3 Cd 1.5000 0.0000 0.5000
S1A S 0.68795(8) -0.13344(6) 0.79022(6)
S2A S 0.67792(8) -0.25374(7) 0.27558(6)
O1A O 0.7399(3) 0.0393(2) 0.9174(2)
O2A O 0.5115(3) -0.1593(2) 0.6590(2)
N1A N 1.1485(3) -0.1461(2) 0.3773(2)
N1_2 N 0.8515(3) 0.1461(2) 0.6227(2)
N1A_2 N 0.1485(3) -0.1461(2) 0.3773(2)
C1A C 0.9415(4) -0.2137(3) 0.7162(3)
H1A H 1.0782 -0.1404 0.7870
H2A H 0.9455 -0.2189 0.6118
C2A C 0.9232(5) -0.3954(3) 0.7089(3)
H3A H 0.8248 -0.4783 0.6125
H4A H 1.0737 -0.4329 0.7100
C3A C 0.8223(5) -0.3854(3) 0.8527(3)
H5A H 0.9338 -0.3217 0.9482
H6A H 0.7779 -0.5016 0.8429
C4A C 0.6152(4) -0.2918(3) 0.8600(3)
H7A H 0.4811 -0.3727 0.7931
H8A H 0.5833 -0.2357 0.9678
C5A C 0.9547(3) -0.1882(2) 0.3359(2)
loop_
_geom_bond_atom_site_label_1
_geom_bond_atom_site_label_2
_geom_bond_site_symmetry_1
_geom_bond_site_symmetry_2
Cd1 S2 1_555 1_555
S1 O1 1_555 1_555
S2 C5 1_555 1_555
O2 Cd1 1_555 1_555
N1 C5 1_555 1_555
C1 S1 1_555 1_555
H1 C1 1_555 1_555
H2 C1 1_555 1_555
C2 C1 1_555 1_555
H3 C2 1_555 1_555
H4 C2 1_555 1_555
C3 C2 1_555 1_555
H5 C3 1_555 1_555
H6 C3 1_555 1_555
C4 S1 1_555 1_555
H7 C4 1_555 1_555
H8 C4 1_555 1_555
Cd1_2 N1 1_555 1_555
Cd1_3 N1A 1_555 1_555
S1A O1A 1_555 1_555
S2A Cd1 1_555 1_555
O2A Cd1 1_555 1_555
N1A C5A 1_555 1_555
N1_2 Cd1 1_555 1_555
N1A_2 Cd1 1_555 1_555
C1A S1A 1_555 1_555
H1A C1A 1_555 1_555
H2A C1A 1_555 1_555
C2A C1A 1_555 1_555
H3A C2A 1_555 1_555
H4A C2A 1_555 1_555
C3A C2A 1_555 1_555
H5A C3A 1_555 1_555
H6A C3A 1_555 1_555
C4A S1A 1_555 1_555
H7A C4A 1_555 1_555
H8A C4A 1_555 1_555
C5A S2A 1_555 1_555
S1 O2 1_555 1_555
C3 C4 1_555 1_555
S1A O2A 1_555 1_555
C3A C4A 1_555 1_555

#END
