
#######################################################################
#
#                 Cambridge Crystallographic Data Centre
#                                CCDC 
#
#######################################################################
#
# If this CIF has been generated from an entry in the Cambridge 
# Structural Database, then it will include bibliographic, chemical, 
# crystal, experimental, refinement or atomic coordinate data resulting 
# from the CCDC's data processing and validation procedures.
#
#######################################################################

data_CICGUS
_symmetry_cell_setting           triclinic
_symmetry_space_group_name_H-M   'P -1'
_symmetry_Int_Tables_number      2
_space_group_name_Hall           '-P 1'
loop_
_symmetry_equiv_pos_site_id
_symmetry_equiv_pos_as_xyz
1 x,y,z
2 -x,-y,-z
_cell_length_a                   12.189(2)
_cell_length_b                   13.987(3)
_cell_length_c                   14.323(3)
_cell_angle_alpha                88.28(3)
_cell_angle_beta                 86.95(3)
_cell_angle_gamma                74.87(3)
_cell_volume                     2353.58
loop_
_atom_site_label
_atom_site_type_symbol
_atom_site_fract_x
_atom_site_fract_y
_atom_site_fract_z
Cd1 Cd 0.84041(10) 0.27755(9) 0.40268(8)
Cd2 Cd 0.86791(10) -0.04699(9) 0.90895(8)
O1 O 0.3918(10) 1.2449(9) 0.3735(9)
O2 O 0.3220(12) -0.7478(10) 0.8820(9)
O3 O 0.8861(9) -0.0583(9) 0.7495(8)
O4 O 0.8605(10) 0.0238(9) 0.6126(8)
O5 O 0.7158(10) 0.2292(9) 0.5639(7)
O6 O 0.8884(11) 0.2404(9) 0.5527(7)
O7 O 0.8229(9) -0.0227(9) 0.0599(7)
O8 O 0.9421(9) 0.0746(9) 0.0649(7)
O9 O 0.7368(9) 0.2266(8) 0.1335(7)
O10 O 0.8204(9) 0.2958(8) 0.2441(8)
O11 O 1.0435(9) 0.2036(8) 0.3783(7)
N1 N 0.6696(10) 0.3990(11) 0.3981(9)
N2 N 0.8786(11) 0.4325(10) 0.3929(9)
N3 N 0.6887(11) 0.7915(9) 0.3825(10)
H1 H 0.7415 0.8220 0.3827
N4 N 0.5106(12) 0.7650(10) 0.3827(9)
N5 N 0.6808(11) -0.0689(10) 0.8914(8)
N6 N 0.8772(11) -0.2150(9) 0.9069(9)
N7 N 0.6519(12) -0.4582(10) 0.8775(10)
N8 N 0.4889(11) -0.3391(11) 0.8665(9)
H2 H 0.4176 -0.3114 0.8616
N9 N 0.8375(11) 0.1114(9) 0.8434(9)
N10 N 0.8299(11) 0.1258(10) 0.3497(10)
C1 C 0.5681(15) 0.3846(14) 0.3955(11)
H3 H 0.5639 0.3194 0.4033
C2 C 0.4693(15) 0.4523(16) 0.3831(12)
H4 H 0.4025 0.4336 0.3757
C3 C 0.4702(16) 0.5511(15) 0.3815(12)
H5 H 0.4028 0.6006 0.3775
C4 C 0.5780(13) 0.5761(14) 0.3862(10)
C5 C 0.5928(13) 0.6710(12) 0.3864(10)
C6 C 0.7005(14) 0.6939(13) 0.3838(11)
C7 C 0.8007(14) 0.6113(11) 0.3874(11)
C8 C 0.9149(13) 0.6271(13) 0.3845(11)
H6 H 0.9269 0.6902 0.3833
C9 C 1.0021(18) 0.5439(15) 0.3838(14)
H7 H 1.0762 0.5503 0.3821
C10 C 0.9853(15) 0.4507(15) 0.3854(11)
H8 H 1.0488 0.3968 0.3812
C11 C 0.7888(12) 0.5158(13) 0.3911(10)
C12 C 0.6731(14) 0.4955(13) 0.3939(12)
C13 C 0.5747(13) 0.8320(12) 0.3806(11)
C14 C 0.5246(14) 0.9389(13) 0.3781(11)
C15 C 0.4077(13) 0.9766(13) 0.3682(12)
H9 H 0.3606 0.9347 0.3622
C16 C 0.3615(16) 1.0848(14) 0.3676(13)
H10 H 0.2838 1.1121 0.3628
C17 C 0.4295(14) 1.1428(13) 0.3739(11)
C18 C 0.5459(15) 1.1042(14) 0.3836(13)
H11 H 0.5921 1.1468 0.3898
C19 C 0.5936(16) 1.0021(15) 0.3841(13)
H12 H 0.6717 0.9768 0.3885
C20 C 0.2684(14) 1.2845(14) 0.3693(14)
H13 H 0.2497 1.3556 0.3696
H14 H 0.2313 1.2608 0.4226
H15 H 0.2432 1.2631 0.3131
C21 C 0.5855(13) 0.0015(13) 0.8849(11)
H16 H 0.5903 0.0667 0.8869
C22 C 0.4808(16) -0.0134(14) 0.8756(12)
H17 H 0.4166 0.0397 0.8721
C23 C 0.4727(15) -0.1057(12) 0.8715(11)
H18 H 0.4017 -0.1172 0.8656
C24 C 0.5710(14) -0.1884(13) 0.8759(10)
C25 C 0.5731(15) -0.2903(13) 0.8720(10)
C26 C 0.6744(15) -0.3673(14) 0.8805(11)
C27 C 0.7795(14) -0.3428(13) 0.8897(10)
C28 C 0.8895(15) -0.4154(14) 0.8962(12)
H19 H 0.8940 -0.4826 0.8920
C29 C 0.9816(15) -0.3867(13) 0.9079(12)
H20 H 1.0510 -0.4337 0.9121
C30 C 0.9766(14) -0.2856(14) 0.9141(11)
H21 H 1.0429 -0.2667 0.9234
C31 C 0.7811(13) -0.2450(13) 0.8955(11)
C32 C 0.6775(14) -0.1602(13) 0.8893(10)
C33 C 0.5368(15) -0.4369(14) 0.8701(12)
C34 C 0.4754(15) -0.5148(16) 0.8710(11)
C35 C 0.3637(14) -0.4956(15) 0.8462(11)
H22 H 0.3247 -0.4318 0.8284
C36 C 0.3082(17) -0.5737(17) 0.8480(12)
H23 H 0.2330 -0.5615 0.8313
C37 C 0.3666(15) -0.6656(13) 0.8743(12)
C38 C 0.4754(17) -0.6856(15) 0.9041(13)
H24 H 0.5114 -0.7479 0.9277
C39 C 0.5291(15) -0.6114(14) 0.8982(13)
H25 H 0.6051 -0.6259 0.9130
C40 C 0.2105(18) -0.7332(16) 0.8610(12)
H26 H 0.1892 -0.7944 0.8692
H27 H 0.2010 -0.7105 0.7973
H28 H 0.1633 -0.6844 0.9018
C41 C 0.8361(13) 0.1196(13) 0.7494(11)
C42 C 0.8219(15) 0.2045(15) 0.6999(10)
C43 C 0.8104(12) 0.2937(13) 0.7535(11)
H29 H 0.8002 0.3546 0.7225
C44 C 0.8144(16) 0.2889(14) 0.8488(12)
H30 H 0.8097 0.3452 0.8834
C45 C 0.8259(14) 0.1952(13) 0.8927(12)
H31 H 0.8255 0.1908 0.9576
C46 C 0.8641(12) 0.0206(14) 0.7022(12)
C47 C 0.8116(14) 0.2198(13) 0.5942(13)
C48 C 0.8737(13) 0.0294(13) 0.1034(10)
C49 C 0.8581(13) 0.0294(12) 0.2077(10)
C50 C 0.8852(13) -0.0521(14) 0.2612(12)
H32 H 0.9049 -0.1130 0.2319
C51 C 0.8293(14) 0.1226(15) 0.2540(12)
C52 C 0.8598(15) 0.0437(15) 0.4007(13)
H33 H 0.8639 0.0476 0.4651
C53 C 0.8858(12) -0.0516(12) 0.3577(10)
H34 H 0.9023 -0.1101 0.3930
C54 C 0.7934(15) 0.2225(13) 0.2057(11)
Cd2_2 Cd 0.86791(10) -0.04699(9) -0.09105(8)
Cd2A Cd 1.13209(10) 0.04699(9) 0.09105(8)
O7_2 O 0.8229(9) -0.0227(9) 1.0599(7)
O8A O 1.0579(9) -0.0746(9) 0.9351(7)
loop_
_geom_bond_atom_site_label_1
_geom_bond_atom_site_label_2
_geom_bond_site_symmetry_1
_geom_bond_site_symmetry_2
Cd1 O6 1_555 1_555
Cd2 O3 1_555 1_555
O1 C17 1_555 1_555
O2 C37 1_555 1_555
O3 C46 1_555 1_555
O4 C46 1_555 1_555
O5 C47 1_555 1_555
O6 C47 1_555 1_555
O7 C48 1_555 1_555
O8 C48 1_555 1_555
O9 C54 1_555 1_555
O10 Cd1 1_555 1_555
O11 Cd1 1_555 1_555
N1 Cd1 1_555 1_555
N2 Cd1 1_555 1_555
N3 H1 1_555 1_555
N4 C5 1_555 1_555
N5 Cd2 1_555 1_555
N6 Cd2 1_555 1_555
N7 C26 1_555 1_555
N8 H2 1_555 1_555
N9 Cd2 1_555 1_555
N10 Cd1 1_555 1_555
C1 N1 1_555 1_555
H3 C1 1_555 1_555
C2 C1 1_555 1_555
H4 C2 1_555 1_555
C3 C2 1_555 1_555
H5 C3 1_555 1_555
C4 C3 1_555 1_555
C5 C4 1_555 1_555
C6 N3 1_555 1_555
C7 C6 1_555 1_555
C8 C7 1_555 1_555
H6 C8 1_555 1_555
C9 C8 1_555 1_555
H7 C9 1_555 1_555
C10 N2 1_555 1_555
H8 C10 1_555 1_555
C11 N2 1_555 1_555
C12 N1 1_555 1_555
C13 N3 1_555 1_555
C14 C13 1_555 1_555
C15 C14 1_555 1_555
H9 C15 1_555 1_555
C16 C15 1_555 1_555
H10 C16 1_555 1_555
C17 C16 1_555 1_555
C18 C17 1_555 1_555
H11 C18 1_555 1_555
C19 C14 1_555 1_555
H12 C19 1_555 1_555
C20 O1 1_555 1_555
H13 C20 1_555 1_555
H14 C20 1_555 1_555
H15 C20 1_555 1_555
C21 N5 1_555 1_555
H16 C21 1_555 1_555
C22 C21 1_555 1_555
H17 C22 1_555 1_555
C23 C22 1_555 1_555
H18 C23 1_555 1_555
C24 C23 1_555 1_555
C25 N8 1_555 1_555
C26 C25 1_555 1_555
C27 C26 1_555 1_555
C28 C27 1_555 1_555
H19 C28 1_555 1_555
C29 C28 1_555 1_555
H20 C29 1_555 1_555
C30 N6 1_555 1_555
H21 C30 1_555 1_555
C31 N6 1_555 1_555
C32 N5 1_555 1_555
C33 N7 1_555 1_555
C34 C33 1_555 1_555
C35 C34 1_555 1_555
H22 C35 1_555 1_555
C36 C35 1_555 1_555
H23 C36 1_555 1_555
C37 C36 1_555 1_555
C38 C37 1_555 1_555
H24 C38 1_555 1_555
C39 C34 1_555 1_555
H25 C39 1_555 1_555
C40 O2 1_555 1_555
H26 C40 1_555 1_555
H27 C40 1_555 1_555
H28 C40 1_555 1_555
C41 N9 1_555 1_555
C42 C41 1_555 1_555
C43 C42 1_555 1_555
H29 C43 1_555 1_555
C44 C43 1_555 1_555
H30 C44 1_555 1_555
C45 N9 1_555 1_555
H31 C45 1_555 1_555
C46 C41 1_555 1_555
C47 C42 1_555 1_555
C48 C49 1_555 1_555
C49 C50 1_555 1_555
C50 H32 1_555 1_555
C51 N10 1_555 1_555
C52 N10 1_555 1_555
H33 C52 1_555 1_555
C53 C50 1_555 1_555
H34 C53 1_555 1_555
C54 O10 1_555 1_555
Cd2_2 O7 1_555 1_555
Cd2A O8 1_555 1_555
O7_2 Cd2 1_555 1_555
O8A Cd2 1_555 1_555
N4 C13 1_555 1_555
N8 C33 1_555 1_555
C4 C12 1_555 1_555
C5 C6 1_555 1_555
C7 C11 1_555 1_555
C9 C10 1_555 1_555
C11 C12 1_555 1_555
C18 C19 1_555 1_555
C24 C25 1_555 1_555
C24 C32 1_555 1_555
C27 C31 1_555 1_555
C29 C30 1_555 1_555
C31 C32 1_555 1_555
C38 C39 1_555 1_555
C44 C45 1_555 1_555
C49 C51 1_555 1_555
C51 C54 1_555 1_555
C52 C53 1_555 1_555

#END
