
#######################################################################
#
#                 Cambridge Crystallographic Data Centre
#                                CCDC 
#
#######################################################################
#
# If this CIF has been generated from an entry in the Cambridge 
# Structural Database, then it will include bibliographic, chemical, 
# crystal, experimental, refinement or atomic coordinate data resulting 
# from the CCDC's data processing and validation procedures.
#
#######################################################################

data_CICGIF
_symmetry_cell_setting           orthorhombic
_symmetry_space_group_name_H-M   'P b c a'
_symmetry_Int_Tables_number      61
_space_group_name_Hall           '-P 2ac 2ab'
loop_
_symmetry_equiv_pos_site_id
_symmetry_equiv_pos_as_xyz
1 x,y,z
2 1/2-x,-y,1/2+z
3 -x,1/2+y,1/2-z
4 1/2+x,1/2-y,-z
5 -x,-y,-z
6 1/2+x,y,1/2-z
7 x,1/2-y,1/2+z
8 1/2-x,1/2+y,z
_cell_length_a                   8.1933(7)
_cell_length_b                   8.8144(7)
_cell_length_c                   35.209(3)
_cell_angle_alpha                90
_cell_angle_beta                 90
_cell_angle_gamma                90
_cell_volume                     2542.76
loop_
_atom_site_label
_atom_site_type_symbol
_atom_site_fract_x
_atom_site_fract_y
_atom_site_fract_z
Cu1 Cu 0.06114(4) 0.28463(4) 0.410032(10)
C1 C 0.1120(4) 0.0753(4) 0.33769(9)
C2 C 0.1813(4) 0.0274(4) 0.30336(10)
H1 H 0.2658 -0.0430 0.3039
C3 C 0.1284(5) 0.0812(5) 0.26910(10)
H2 H 0.1747 0.0459 0.2467
C4 C 0.0047(5) 0.1891(4) 0.26804(10)
H3 H -0.0288 0.2299 0.2450
C5 C -0.0676(4) 0.2348(4) 0.30134(11)
H4 H -0.1515 0.3058 0.3005
C6 C -0.0183(4) 0.1776(4) 0.33641(8)
C7 C -0.2511(4) 0.2408(3) 0.37425(9)
C8 C -0.3701(4) 0.1592(4) 0.34817(10)
H5 H -0.4201 0.2312 0.3313
H6 H -0.4528 0.1104 0.3631
H7 H -0.3125 0.0843 0.3336
C9 C -0.3244(4) 0.3229(4) 0.40459(9)
H8 H -0.4373 0.3162 0.4067
C10 C -0.2457(4) 0.4110(4) 0.43107(9)
C11 C -0.3420(4) 0.4982(4) 0.45991(9)
H9 H -0.3248 0.4550 0.4846
H10 H -0.4559 0.4933 0.4536
H11 H -0.3070 0.6021 0.4599
C12 C 0.1892(4) 0.0166(4) 0.37355(9)
N1 N -0.0924(3) 0.2318(3) 0.37032(7)
O1 O -0.0887(2) 0.4241(3) 0.43399(7)
O2 O 0.1718(3) 0.0870(2) 0.40485(6)
O3 O 0.2711(3) -0.1019(3) 0.37077(7)
O4 O 0.2098(3) 0.3404(3) 0.45295(7)
H12 H 0.2786 0.2819 0.4603
H13 H 0.2019 0.4185 0.4640
Cu1G Cu 0.43886(4) -0.21537(4) 0.410032(10)
O3G O 0.2289(3) 0.3981(3) 0.37077(7)
O5 O 0.0519(3) 0.6591(3) 0.47715(7)
H14 H 0.0032 0.5965 0.4590
H15 H 0.0082 0.6477 0.4995
loop_
_geom_bond_atom_site_label_1
_geom_bond_atom_site_label_2
_geom_bond_site_symmetry_1
_geom_bond_site_symmetry_2
Cu1 N1 1_555 1_555
C1 C2 1_555 1_555
C2 H1 1_555 1_555
C3 C2 1_555 1_555
H2 C3 1_555 1_555
C4 C3 1_555 1_555
H3 C4 1_555 1_555
C5 C4 1_555 1_555
H4 C5 1_555 1_555
C6 C1 1_555 1_555
C7 C8 1_555 1_555
C8 H5 1_555 1_555
H6 C8 1_555 1_555
H7 C8 1_555 1_555
C9 C7 1_555 1_555
H8 C9 1_555 1_555
C10 C9 1_555 1_555
C11 C10 1_555 1_555
H9 C11 1_555 1_555
H10 C11 1_555 1_555
H11 C11 1_555 1_555
C12 C1 1_555 1_555
N1 C6 1_555 1_555
O1 Cu1 1_555 1_555
O2 Cu1 1_555 1_555
O3 C12 1_555 1_555
O4 Cu1 1_555 1_555
H12 O4 1_555 1_555
H13 O4 1_555 1_555
O5 H14 1_555 1_555
H15 O5 1_555 1_555
Cu1G O3 1_555 1_555
O3G Cu1 1_555 1_555
C5 C6 1_555 1_555
C7 N1 1_555 1_555
C10 O1 1_555 1_555
C12 O2 1_555 1_555

#END
