
#######################################################################
#
#                 Cambridge Crystallographic Data Centre
#                                CCDC 
#
#######################################################################
#
# If this CIF has been generated from an entry in the Cambridge 
# Structural Database, then it will include bibliographic, chemical, 
# crystal, experimental, refinement or atomic coordinate data resulting 
# from the CCDC's data processing and validation procedures.
#
#######################################################################

data_CICGEB
_symmetry_cell_setting           monoclinic
_symmetry_space_group_name_H-M   'P 21/n'
_symmetry_Int_Tables_number      14
_space_group_name_Hall           '-P 2yn'
loop_
_symmetry_equiv_pos_site_id
_symmetry_equiv_pos_as_xyz
1 x,y,z
2 1/2-x,1/2+y,1/2-z
3 -x,-y,-z
4 1/2+x,1/2-y,1/2+z
_cell_length_a                   9.0672(18)
_cell_length_b                   8.6022(17)
_cell_length_c                   9.601(2)
_cell_angle_alpha                90
_cell_angle_beta                 101.335(3)
_cell_angle_gamma                90
_cell_volume                     734.251
loop_
_atom_site_label
_atom_site_type_symbol
_atom_site_fract_x
_atom_site_fract_y
_atom_site_fract_z
Cu1 Cu 0.5000 0.5000 0.5000
N1 N 0.3098(5) 0.5766(6) 0.5596(5)
O1 O 0.0329(4) 0.7932(4) 0.9238(4)
O2 O 0.1976(4) 0.6840(5) 1.0997(4)
O3 O 0.6312(4) 0.5530(5) 0.7405(4)
H1 H 0.6716 0.6365 0.7190
H2 H 0.6890 0.4905 0.7941
C1 C 0.1225(6) 0.6864(7) 0.9763(6)
C2 C 0.1336(7) 0.5482(7) 0.8801(6)
H3 H 0.0428 0.4864 0.8719
H4 H 0.2176 0.4837 0.9244
C3 C 0.2837(6) 0.5449(7) 0.6883(5)
H5 H 0.3553 0.4885 0.7509
C4 C 0.1545(6) 0.5920(6) 0.7331(6)
C5 C 0.0475(6) 0.6698(7) 0.6372(6)
H6 H -0.0428 0.6987 0.6620
C6 C 0.0737(6) 0.7049(8) 0.5056(6)
H7 H 0.0037 0.7614 0.4415
C7 C 0.2058(6) 0.6550(7) 0.4693(6)
H8 H 0.2228 0.6767 0.3789
Cu1C Cu 0.0000 1.0000 1.0000
Cu1C_2 Cu 1.0000 0.0000 0.0000
N1B N 0.6902(5) 0.4234(6) 0.4404(5)
O1B O 0.9671(4) 0.2068(4) 0.0762(4)
O1C O 0.5329(4) 0.7068(4) 0.4238(4)
O1A O 0.4671(4) 0.2932(4) 0.5762(4)
O2B O 0.8024(4) 0.3160(5) -0.0997(4)
O3B O 0.3688(4) 0.4470(5) 0.2595(4)
H1B H 0.3284 0.3635 0.2810
H2B H 0.3110 0.5095 0.2059
C1B C 0.8775(6) 0.3136(7) 0.0237(6)
C2B C 0.8664(7) 0.4518(7) 0.1199(6)
H3B H 0.9572 0.5136 0.1281
H4B H 0.7824 0.5163 0.0756
C3B C 0.7163(6) 0.4551(7) 0.3117(5)
H5B H 0.6447 0.5115 0.2491
C4B C 0.8455(6) 0.4080(6) 0.2669(6)
C5B C 0.9525(6) 0.3302(7) 0.3628(6)
H6B H 1.0428 0.3013 0.3380
C6B C 0.9263(6) 0.2951(8) 0.4944(6)
H7B H 0.9963 0.2386 0.5585
C7B C 0.7942(6) 0.3450(7) 0.5307(6)
H8B H 0.7772 0.3233 0.6211
loop_
_geom_bond_atom_site_label_1
_geom_bond_atom_site_label_2
_geom_bond_site_symmetry_1
_geom_bond_site_symmetry_2
Cu1 N1 1_555 1_555
N1 C3 1_555 1_555
O1 C1 1_555 1_555
O2 C1 1_555 1_555
O3 Cu1 1_555 1_555
H1 O3 1_555 1_555
H2 O3 1_555 1_555
C1 C2 1_555 1_555
C2 H3 1_555 1_555
H4 C2 1_555 1_555
C3 H5 1_555 1_555
C4 C2 1_555 1_555
C5 C4 1_555 1_555
H6 C5 1_555 1_555
C6 C5 1_555 1_555
H7 C6 1_555 1_555
C7 N1 1_555 1_555
H8 C7 1_555 1_555
Cu1C O1 1_555 1_555
Cu1C_2 O1B 1_555 1_555
N1B Cu1 1_555 1_555
O1B C1B 1_555 1_555
O1C Cu1 1_555 1_555
O1A Cu1 1_555 1_555
O2B C1B 1_555 1_555
O3B Cu1 1_555 1_555
H1B O3B 1_555 1_555
H2B O3B 1_555 1_555
C1B C2B 1_555 1_555
C2B H3B 1_555 1_555
H4B C2B 1_555 1_555
C3B N1B 1_555 1_555
H5B C3B 1_555 1_555
C4B C2B 1_555 1_555
C5B C4B 1_555 1_555
H6B C5B 1_555 1_555
C6B C5B 1_555 1_555
H7B C6B 1_555 1_555
C7B N1B 1_555 1_555
H8B C7B 1_555 1_555
C3 C4 1_555 1_555
C6 C7 1_555 1_555
C3B C4B 1_555 1_555
C6B C7B 1_555 1_555

#END
