
#######################################################################
#
#                 Cambridge Crystallographic Data Centre
#                                CCDC 
#
#######################################################################
#
# If this CIF has been generated from an entry in the Cambridge 
# Structural Database, then it will include bibliographic, chemical, 
# crystal, experimental, refinement or atomic coordinate data resulting 
# from the CCDC's data processing and validation procedures.
#
#######################################################################

data_CICJAA
_symmetry_cell_setting           monoclinic
_symmetry_space_group_name_H-M   'P 21/c'
_symmetry_Int_Tables_number      14
_space_group_name_Hall           '-P 2ybc'
loop_
_symmetry_equiv_pos_site_id
_symmetry_equiv_pos_as_xyz
1 x,y,z
2 -x,1/2+y,1/2-z
3 -x,-y,-z
4 x,1/2-y,1/2+z
_cell_length_a                   8.259(3)
_cell_length_b                   13.084(4)
_cell_length_c                   22.228(7)
_cell_angle_alpha                90
_cell_angle_beta                 90.413(6)
_cell_angle_gamma                90
_cell_volume                     2401.91
loop_
_atom_site_label
_atom_site_type_symbol
_atom_site_fract_x
_atom_site_fract_y
_atom_site_fract_z
Cu1 Cu 0.5000 0.5000 0.5000
K1 K -0.0443(2) 0.47985(13) 0.82898(7)
N1 N 0.1485(8) 0.3983(5) 0.7278(3)
N2 N 0.2218(9) 0.1339(6) 0.6114(3)
O1 O 0.1706(7) 0.4726(5) 0.9259(2)
O2 O -0.0850(7) 0.3246(4) 0.9160(2)
O3 O -0.3476(7) 0.3877(4) 0.8427(3)
O4 O -0.2879(6) 0.5039(5) 0.7438(2)
O5 O -0.0337(7) 0.6458(4) 0.7553(2)
O6 O 0.2236(6) 0.6121(4) 0.8357(2)
S1 S 0.3801(2) 0.51358(15) 0.59435(8)
S2 S 0.4227(2) 0.33487(15) 0.52112(9)
C1 C 0.1820(11) 0.3747(8) 0.9473(4)
H1 H 0.2572 0.3726 0.9810
H2 H 0.2230 0.3301 0.9160
C2 C 0.0208(12) 0.3385(7) 0.9668(4)
H3 H 0.0324 0.2743 0.9881
H4 H -0.0261 0.3880 0.9941
C3 C -0.2536(12) 0.3101(7) 0.9293(4)
H5 H -0.2917 0.3673 0.9530
H6 H -0.2660 0.2486 0.9531
C4 C -0.3541(11) 0.3014(9) 0.8742(4)
H7 H -0.3153 0.2451 0.8499
H8 H -0.4654 0.2872 0.8851
C5 C -0.4536(11) 0.3868(8) 0.7928(4)
H9 H -0.5629 0.3719 0.8058
H10 H -0.4209 0.3344 0.7645
C6 C -0.4481(10) 0.4870(8) 0.7642(4)
H11 H -0.5234 0.4894 0.7305
H12 H -0.4783 0.5396 0.7927
C7 C -0.2805(11) 0.5978(9) 0.7127(4)
H13 H -0.3321 0.6508 0.7363
H14 H -0.3382 0.5921 0.6746
C8 C -0.1091(12) 0.6258(7) 0.7016(4)
H15 H -0.0545 0.5700 0.6814
H16 H -0.1044 0.6856 0.6759
C9 C 0.1212(11) 0.6881(7) 0.7491(4)
H17 H 0.1141 0.7517 0.7268
H18 H 0.1895 0.6414 0.7268
C10 C 0.1904(11) 0.7066(7) 0.8072(4)
H19 H 0.2896 0.7456 0.8032
H20 H 0.1156 0.7460 0.8313
C11 C 0.2911(10) 0.6221(7) 0.8912(4)
H21 H 0.2189 0.6609 0.9167
H22 H 0.3921 0.6596 0.8881
C12 C 0.3222(10) 0.5218(8) 0.9184(3)
H23 H 0.3913 0.4813 0.8925
H24 H 0.3761 0.5299 0.9570
C13 C 0.3473(8) 0.3831(5) 0.5889(3)
C14 C 0.2677(8) 0.3243(6) 0.6315(3)
C15 C 0.2029(9) 0.3687(6) 0.6860(4)
C16 C 0.2446(9) 0.2183(7) 0.6194(3)
K1B K 1.0443(2) 0.52015(13) 0.17102(7)
K1A K 0.0443(2) -0.02015(13) 0.67102(7)
K1C K 0.9557(2) 1.02015(13) 0.32898(7)
N1B N 0.8515(8) 0.6017(5) 0.2722(3)
N2B N 0.7782(9) 0.8661(6) 0.3886(3)
N2A N -0.2218(9) 0.6339(6) 0.8886(3)
N2C N 1.2218(9) 0.3661(6) 0.1114(3)
O1B O 0.8294(7) 0.5274(5) 0.0741(2)
O2B O 1.0850(7) 0.6754(4) 0.0840(2)
O3B O 1.3476(7) 0.6123(4) 0.1573(3)
O4B O 1.2879(6) 0.4961(5) 0.2562(2)
O5B O 1.0337(7) 0.3542(4) 0.2447(2)
O6B O 0.7764(6) 0.3879(4) 0.1643(2)
S1B S 0.6199(2) 0.48642(15) 0.40565(8)
S2B S 0.5773(2) 0.66513(15) 0.47888(9)
C1B C 0.8180(11) 0.6253(8) 0.0527(4)
H1B H 0.7428 0.6274 0.0190
H2B H 0.7770 0.6699 0.0840
C2B C 0.9792(12) 0.6615(7) 0.0332(4)
H3B H 0.9676 0.7257 0.0119
H4B H 1.0261 0.6120 0.0059
C3B C 1.2536(12) 0.6899(7) 0.0707(4)
H5B H 1.2917 0.6327 0.0470
H6B H 1.2660 0.7514 0.0469
C4B C 1.3541(11) 0.6986(9) 0.1258(4)
H7B H 1.3153 0.7549 0.1501
H8B H 1.4654 0.7128 0.1149
C5B C 1.4536(11) 0.6132(8) 0.2072(4)
H9B H 1.5629 0.6281 0.1942
H10B H 1.4209 0.6656 0.2355
C6B C 1.4481(10) 0.5130(8) 0.2358(4)
H11B H 1.5234 0.5106 0.2695
H12B H 1.4783 0.4604 0.2073
C7B C 1.2805(11) 0.4022(9) 0.2873(4)
H13B H 1.3321 0.3492 0.2637
H14B H 1.3382 0.4079 0.3254
C8B C 1.1091(12) 0.3742(7) 0.2984(4)
H15B H 1.0545 0.4300 0.3186
H16B H 1.1044 0.3144 0.3241
C9B C 0.8788(11) 0.3119(7) 0.2509(4)
H17B H 0.8859 0.2483 0.2732
H18B H 0.8105 0.3586 0.2732
C10B C 0.8096(11) 0.2934(7) 0.1928(4)
H19B H 0.7104 0.2544 0.1968
H20B H 0.8844 0.2540 0.1687
C11B C 0.7089(10) 0.3779(7) 0.1088(4)
H21B H 0.7811 0.3391 0.0833
H22B H 0.6079 0.3404 0.1119
C12B C 0.6778(10) 0.4782(8) 0.0816(3)
H23B H 0.6087 0.5187 0.1075
H24B H 0.6239 0.4701 0.0430
C13B C 0.6527(8) 0.6169(5) 0.4111(3)
C14B C 0.7323(8) 0.6757(6) 0.3685(3)
C15B C 0.7971(9) 0.6313(6) 0.3140(4)
C16B C 0.7554(9) 0.7817(7) 0.3806(3)
Cl1 Cl 0.1390(3) 0.5783(2) 0.43296(12)
C17 C 0.0317(12) 0.4761(9) 0.4737(4)
H25 H -0.0552 0.4481 0.4491
H26 H 0.1055 0.4213 0.4845
Cl1B Cl -0.1390(3) 0.4217(2) 0.56704(12)
C17B C -0.0317(12) 0.5239(9) 0.5263(4)
H25B H 0.0552 0.5519 0.5509
H26B H -0.1055 0.5787 0.5155
loop_
_geom_bond_atom_site_label_1
_geom_bond_atom_site_label_2
_geom_bond_site_symmetry_1
_geom_bond_site_symmetry_2
Cu1 S1 1_555 1_555
K1 N1 1_555 1_555
Cl1 C17 1_555 1_555
N1 C15 1_555 1_555
N2 C16 1_555 1_555
O1 K1 1_555 1_555
O2 K1 1_555 1_555
O3 K1 1_555 1_555
O4 K1 1_555 1_555
O5 K1 1_555 1_555
O6 K1 1_555 1_555
S1 C13 1_555 1_555
S2 Cu1 1_555 1_555
C1 O1 1_555 1_555
H1 C1 1_555 1_555
H2 C1 1_555 1_555
C2 O2 1_555 1_555
H3 C2 1_555 1_555
H4 C2 1_555 1_555
C3 O2 1_555 1_555
H5 C3 1_555 1_555
H6 C3 1_555 1_555
C4 O3 1_555 1_555
H7 C4 1_555 1_555
H8 C4 1_555 1_555
C5 O3 1_555 1_555
H9 C5 1_555 1_555
H10 C5 1_555 1_555
C6 O4 1_555 1_555
H11 C6 1_555 1_555
H12 C6 1_555 1_555
C7 O4 1_555 1_555
H13 C7 1_555 1_555
H14 C7 1_555 1_555
C8 O5 1_555 1_555
H15 C8 1_555 1_555
H16 C8 1_555 1_555
C9 O5 1_555 1_555
H17 C9 1_555 1_555
H18 C9 1_555 1_555
C10 O6 1_555 1_555
H19 C10 1_555 1_555
H20 C10 1_555 1_555
C11 O6 1_555 1_555
H21 C11 1_555 1_555
H22 C11 1_555 1_555
C12 O1 1_555 1_555
H23 C12 1_555 1_555
H24 C12 1_555 1_555
C13 S2 1_555 1_555
C14 C13 1_555 1_555
C15 C14 1_555 1_555
C16 C14 1_555 1_555
C17 H25 1_555 1_555
H26 C17 1_555 1_555
K1B N1B 1_555 1_555
K1A N2 1_555 1_555
K1C N2B 1_555 1_555
Cl1B C17B 1_555 1_555
N1B C15B 1_555 1_555
N2B C16B 1_555 1_555
N2A K1 1_555 1_555
N2C K1B 1_555 1_555
O1B K1B 1_555 1_555
O2B K1B 1_555 1_555
O3B K1B 1_555 1_555
O4B K1B 1_555 1_555
O5B K1B 1_555 1_555
O6B K1B 1_555 1_555
S1B Cu1 1_555 1_555
S2B Cu1 1_555 1_555
C1B O1B 1_555 1_555
H1B C1B 1_555 1_555
H2B C1B 1_555 1_555
C2B O2B 1_555 1_555
H3B C2B 1_555 1_555
H4B C2B 1_555 1_555
C3B O2B 1_555 1_555
H5B C3B 1_555 1_555
H6B C3B 1_555 1_555
C4B O3B 1_555 1_555
H7B C4B 1_555 1_555
H8B C4B 1_555 1_555
C5B O3B 1_555 1_555
H9B C5B 1_555 1_555
H10B C5B 1_555 1_555
C6B O4B 1_555 1_555
H11B C6B 1_555 1_555
H12B C6B 1_555 1_555
C7B O4B 1_555 1_555
H13B C7B 1_555 1_555
H14B C7B 1_555 1_555
C8B O5B 1_555 1_555
H15B C8B 1_555 1_555
H16B C8B 1_555 1_555
C9B O5B 1_555 1_555
H17B C9B 1_555 1_555
H18B C9B 1_555 1_555
C10B O6B 1_555 1_555
H19B C10B 1_555 1_555
H20B C10B 1_555 1_555
C11B O6B 1_555 1_555
H21B C11B 1_555 1_555
H22B C11B 1_555 1_555
C12B O1B 1_555 1_555
H23B C12B 1_555 1_555
H24B C12B 1_555 1_555
C13B S1B 1_555 1_555
C14B C13B 1_555 1_555
C15B C14B 1_555 1_555
C16B C14B 1_555 1_555
C17B C17 1_555 1_555
H25B C17B 1_555 1_555
H26B C17B 1_555 1_555
C1 C2 1_555 1_555
C3 C4 1_555 1_555
C5 C6 1_555 1_555
C7 C8 1_555 1_555
C9 C10 1_555 1_555
C11 C12 1_555 1_555
S2B C13B 1_555 1_555
C1B C2B 1_555 1_555
C3B C4B 1_555 1_555
C5B C6B 1_555 1_555
C7B C8B 1_555 1_555
C9B C10B 1_555 1_555
C11B C12B 1_555 1_555

#END
