
#######################################################################
#
#                 Cambridge Crystallographic Data Centre
#                                CCDC 
#
#######################################################################
#
# If this CIF has been generated from an entry in the Cambridge 
# Structural Database, then it will include bibliographic, chemical, 
# crystal, experimental, refinement or atomic coordinate data resulting 
# from the CCDC's data processing and validation procedures.
#
#######################################################################

data_CICJEE
_symmetry_cell_setting           orthorhombic
_symmetry_space_group_name_H-M   'F d d 2'
_symmetry_Int_Tables_number      43
_space_group_name_Hall           'F 2 -2d'
loop_
_symmetry_equiv_pos_site_id
_symmetry_equiv_pos_as_xyz
1 x,y,z
2 -x,-y,z
3 1/4+x,1/4-y,1/4+z
4 1/4-x,1/4+y,1/4+z
5 x,1/2+y,1/2+z
6 -x,1/2-y,1/2+z
7 1/4+x,3/4-y,3/4+z
8 1/4-x,3/4+y,3/4+z
9 1/2+x,y,1/2+z
10 1/2-x,-y,1/2+z
11 3/4+x,1/4-y,3/4+z
12 3/4-x,1/4+y,3/4+z
13 1/2+x,1/2+y,z
14 1/2-x,1/2-y,z
15 3/4+x,3/4-y,1/4+z
16 3/4-x,3/4+y,1/4+z
_cell_length_a                   20.079(4)
_cell_length_b                   25.646(5)
_cell_length_c                   11.485(2)
_cell_angle_alpha                90
_cell_angle_beta                 90
_cell_angle_gamma                90
_cell_volume                     5914.16
loop_
_atom_site_label
_atom_site_type_symbol
_atom_site_fract_x
_atom_site_fract_y
_atom_site_fract_z
C1 C 0.02856(17) 0.72739(13) 0.5181(3)
C2 C 0.0666(2) 0.70549(15) 0.4295(3)
H1 H 0.0647 0.7189 0.3544
C3 C 0.10728(19) 0.66355(14) 0.4545(3)
H2 H 0.1334 0.6484 0.3969
C4 C 0.1084(2) 0.64463(14) 0.5672(3)
C5 C 0.0714(2) 0.66611(15) 0.6570(3)
H3 H 0.0733 0.6524 0.7319
C6 C 0.0315(2) 0.70887(15) 0.6312(3)
H4 H 0.0069 0.7250 0.6897
C7 C 0.03217(17) 0.83002(12) 0.4745(4)
H5 H 0.0590 0.8310 0.5448
H6 H 0.0614 0.8232 0.4091
C8 C -0.00307(18) 0.88235(12) 0.4576(3)
C9 C 0.0212(2) 1.04111(14) 0.7267(4)
H7 H 0.0369 1.0699 0.6860
C10 C 0.0210(2) 1.04293(17) 0.8483(4)
H8 H 0.0349 1.0729 0.8869
C11 C 0.0000 1.0000 0.9105(5)
C12 C 0.0000 1.0000 1.0404(5)
C13 C 0.0321(2) 0.96088(16) 1.1036(4)
H9 H 0.0536 0.9338 1.0650
C14 C 0.03179(19) 0.96264(14) 1.2234(4)
H10 H 0.0545 0.9369 1.2643
N1 N 0.1489(2) 0.59871(17) 0.5925(4)
N2 N 0.0000 1.0000 0.6666(4)
N3 N 0.0000 1.0000 1.2837(4)
O1 O -0.06561(15) 0.78963(11) 0.5975(3)
O2 O -0.06099(15) 0.88136(10) 0.4182(3)
O3 O 0.03031(12) 0.92181(8) 0.4850(2)
O4 O 0.1760(2) 0.57580(17) 0.5154(4)
O5 O 0.1539(2) 0.58524(18) 0.6938(4)
O6 O 0.10205(11) 1.02344(9) 0.4739(2)
H11 H 0.1267 1.0044 0.4314
H12 H 0.0976 1.0551 0.4537
S1 S -0.02931(4) 0.77903(3) 0.48577(9)
Zn1 Zn 0.0000 1.0000 0.47672(3)
C1A C -0.02856(17) 1.27261(13) 0.5181(3)
C2A C -0.0666(2) 1.29451(15) 0.4295(3)
H1A H -0.0647 1.2811 0.3544
C3A C -0.10728(19) 1.33645(14) 0.4545(3)
H2A H -0.1334 1.3516 0.3969
C4A C -0.1084(2) 1.35537(14) 0.5672(3)
C5A C -0.0714(2) 1.33389(15) 0.6570(3)
H3A H -0.0733 1.3476 0.7319
C6A C -0.0315(2) 1.29113(15) 0.6312(3)
H4A H -0.0069 1.2750 0.6897
C7A C -0.03217(17) 1.16998(12) 0.4745(4)
H5A H -0.0590 1.1690 0.5448
H6A H -0.0614 1.1768 0.4091
C8A C 0.00307(18) 1.11765(12) 0.4576(3)
C9A C -0.0212(2) 0.95889(14) 0.7267(4)
H7A H -0.0369 0.9301 0.6860
C10A C -0.0210(2) 0.95707(17) 0.8483(4)
H8A H -0.0349 0.9271 0.8869
C13A C -0.0321(2) 1.03912(16) 1.1036(4)
H9A H -0.0536 1.0662 1.0650
C14A C -0.03179(19) 1.03736(14) 1.2234(4)
H10A H -0.0545 1.0631 1.2643
N1A N -0.1489(2) 1.40129(17) 0.5925(4)
N3_2 N 0.0000 1.0000 0.2837(4)
O1A O 0.06561(15) 1.21037(11) 0.5975(3)
O2A O 0.06099(15) 1.11864(10) 0.4182(3)
O3A O -0.03031(12) 1.07819(8) 0.4850(2)
O4A O -0.1760(2) 1.42420(17) 0.5154(4)
O5A O -0.1539(2) 1.41476(18) 0.6938(4)
O6A O -0.10205(11) 0.97656(9) 0.4739(2)
H11A H -0.1267 0.9956 0.4314
H12A H -0.0976 0.9449 0.4537
S1A S 0.02931(4) 1.22097(3) 0.48577(9)
Zn1_2 Zn 0.0000 1.0000 1.47672(3)
loop_
_geom_bond_atom_site_label_1
_geom_bond_atom_site_label_2
_geom_bond_site_symmetry_1
_geom_bond_site_symmetry_2
C1 C2 1_555 1_555
C2 H1 1_555 1_555
C3 C2 1_555 1_555
H2 C3 1_555 1_555
C4 C3 1_555 1_555
C5 C4 1_555 1_555
H3 C5 1_555 1_555
C6 C1 1_555 1_555
H4 C6 1_555 1_555
C7 H5 1_555 1_555
H6 C7 1_555 1_555
C8 C7 1_555 1_555
C9 H7 1_555 1_555
C10 C9 1_555 1_555
H8 C10 1_555 1_555
C11 C10 1_555 1_555
C12 C11 1_555 1_555
C13 C12 1_555 1_555
H9 C13 1_555 1_555
C14 C13 1_555 1_555
H10 C14 1_555 1_555
N1 C4 1_555 1_555
N2 C9 1_555 1_555
N3 C14 1_555 1_555
O1 S1 1_555 1_555
O2 C8 1_555 1_555
O3 C8 1_555 1_555
O4 N1 1_555 1_555
O5 N1 1_555 1_555
O6 H11 1_555 1_555
H12 O6 1_555 1_555
S1 C1 1_555 1_555
Zn1 N2 1_555 1_555
C1A C2A 1_555 1_555
C2A H1A 1_555 1_555
C3A C2A 1_555 1_555
H2A C3A 1_555 1_555
C4A C3A 1_555 1_555
C5A C4A 1_555 1_555
H3A C5A 1_555 1_555
C6A C1A 1_555 1_555
H4A C6A 1_555 1_555
C7A H5A 1_555 1_555
H6A C7A 1_555 1_555
C8A C7A 1_555 1_555
C9A N2 1_555 1_555
H7A C9A 1_555 1_555
C10A C11 1_555 1_555
H8A C10A 1_555 1_555
C13A C12 1_555 1_555
H9A C13A 1_555 1_555
C14A N3 1_555 1_555
H10A C14A 1_555 1_555
N1A C4A 1_555 1_555
N3_2 Zn1 1_555 1_555
O1A S1A 1_555 1_555
O2A C8A 1_555 1_555
O3A Zn1 1_555 1_555
O4A N1A 1_555 1_555
O5A N1A 1_555 1_555
O6A Zn1 1_555 1_555
H11A O6A 1_555 1_555
H12A O6A 1_555 1_555
S1A C1A 1_555 1_555
Zn1_2 N3 1_555 1_555
C5 C6 1_555 1_555
C7 S1 1_555 1_555
O3 Zn1 1_555 1_555
O6 Zn1 1_555 1_555
C5A C6A 1_555 1_555
C7A S1A 1_555 1_555
C8A O3A 1_555 1_555
C9A C10A 1_555 1_555
C13A C14A 1_555 1_555

#END
