
#######################################################################
#
#                 Cambridge Crystallographic Data Centre
#                                CCDC 
#
#######################################################################
#
# If this CIF has been generated from an entry in the Cambridge 
# Structural Database, then it will include bibliographic, chemical, 
# crystal, experimental, refinement or atomic coordinate data resulting 
# from the CCDC's data processing and validation procedures.
#
#######################################################################

data_CICLAD
_symmetry_cell_setting           orthorhombic
_symmetry_space_group_name_H-M   'F d d 2'
_symmetry_Int_Tables_number      43
_space_group_name_Hall           'F 2 -2d'
loop_
_symmetry_equiv_pos_site_id
_symmetry_equiv_pos_as_xyz
1 x,y,z
2 -x,-y,z
3 1/4-x,1/4+y,1/4+z
4 1/4+x,1/4-y,1/4+z
5 x,1/2+y,1/2+z
6 -x,1/2-y,1/2+z
7 1/4-x,3/4+y,3/4+z
8 1/4+x,3/4-y,3/4+z
9 1/2+x,y,1/2+z
10 1/2-x,-y,1/2+z
11 3/4-x,1/4+y,3/4+z
12 3/4+x,1/4-y,3/4+z
13 1/2+x,1/2+y,z
14 1/2-x,1/2-y,z
15 3/4-x,3/4+y,1/4+z
16 3/4+x,3/4-y,1/4+z
_cell_length_a                   12.7151(12)
_cell_length_b                   29.843(3)
_cell_length_c                   11.5626(11)
_cell_angle_alpha                90
_cell_angle_beta                 90
_cell_angle_gamma                90
_cell_volume                     4387.51
loop_
_atom_site_label
_atom_site_type_symbol
_atom_site_fract_x
_atom_site_fract_y
_atom_site_fract_z
Zn1 Zn 0.2500 0.2500 0.20489(8)
N1 N 0.2500 0.2500 0.3978(6)
N2 N 0.2500 0.2500 1.0106(6)
O1 O 0.2872(2) 0.10997(10) 0.1427(3)
C1 C 0.2500 0.2500 0.7644(9)
C2 C 0.2500 0.2500 0.6385(8)
N3 N 0.2301(3) 0.18093(10) 0.1959(5)
H1 H 0.1694 0.1698 0.2185
O2 O 0.4111(2) 0.23856(8) 0.2035(4)
C3 C 0.2944(4) 0.28489(14) 0.5762(4)
H2 H 0.3248 0.3097 0.6154
C4 C 0.3338(4) 0.26751(15) 0.8301(4)
H3 H 0.3932 0.2799 0.7918
C5 C 0.2942(3) 0.28338(13) 0.4574(5)
H4 H 0.3268 0.3071 0.4159
C6 C 0.2988(3) 0.15400(13) 0.1605(4)
N4 N 0.4583(3) 0.20576(13) 0.1537(4)
C7 C 0.3306(3) 0.26692(13) 0.9487(5)
H5 H 0.3887 0.2792 0.9896
C8 C 0.4072(3) 0.16803(14) 0.1328(4)
N5 N 0.5405(4) 0.11222(16) 0.0432(6)
C9 C 0.4792(4) 0.13591(17) 0.0817(6)
C10 C 0.1872(4) 0.09116(14) 0.1763(4)
H6 H 0.1804 0.0922 0.2607
H7 H 0.1830 0.0600 0.1500
H8 H 0.1302 0.1086 0.1411
C3M C 0.2056(4) 0.21511(14) 0.5762(4)
H2M H 0.1752 0.1903 0.6154
C4M C 0.1662(4) 0.23249(15) 0.8301(4)
H3M H 0.1068 0.2201 0.7918
C5M C 0.2058(3) 0.21662(13) 0.4574(5)
H4M H 0.1732 0.1929 0.4159
C7M C 0.1694(3) 0.23308(13) 0.9487(5)
H5M H 0.1113 0.2208 0.9896
O1M O 0.2128(2) 0.39003(10) 0.1427(3)
N3M N 0.2699(3) 0.31907(10) 0.1959(5)
H1M H 0.3306 0.3302 0.2185
O2M O 0.0889(2) 0.26144(8) 0.2035(4)
C6M C 0.2012(3) 0.34600(13) 0.1605(4)
N4M N 0.0417(3) 0.29424(13) 0.1537(4)
C8M C 0.0928(3) 0.33197(14) 0.1328(4)
N5M N -0.0405(4) 0.38778(16) 0.0432(6)
C9M C 0.0208(4) 0.36409(17) 0.0817(6)
C10M C 0.3128(4) 0.40884(14) 0.1763(4)
H6M H 0.3196 0.4078 0.2607
H7M H 0.3170 0.4400 0.1500
H8M H 0.3698 0.3914 0.1411
Zn1_2 Zn 0.2500 0.2500 1.20489(8)
N2_2 N 0.2500 0.2500 0.0106(6)
O3 O 0.4984(3) 0.32505(13) 0.2171(4)
H9 H 0.552(5) 0.331(2) 0.242(6)
H10 H 0.501(4) 0.298(2) 0.223(6)
loop_
_geom_bond_atom_site_label_1
_geom_bond_atom_site_label_2
_geom_bond_site_symmetry_1
_geom_bond_site_symmetry_2
Zn1 N1 1_555 1_555
N1 C5 1_555 1_555
N2 C7 1_555 1_555
O1 C6 1_555 1_555
C1 C2 1_555 1_555
C2 C3 1_555 1_555
N3 Zn1 1_555 1_555
H1 N3 1_555 1_555
O2 Zn1 1_555 1_555
C3 H2 1_555 1_555
C4 C1 1_555 1_555
H3 C4 1_555 1_555
C5 C3 1_555 1_555
H4 C5 1_555 1_555
C6 N3 1_555 1_555
N4 O2 1_555 1_555
C7 C4 1_555 1_555
H5 C7 1_555 1_555
C8 C6 1_555 1_555
N5 C9 1_555 1_555
C9 C8 1_555 1_555
C10 O1 1_555 1_555
H6 C10 1_555 1_555
H7 C10 1_555 1_555
H8 C10 1_555 1_555
O3 H9 1_555 1_555
H10 O3 1_555 1_555
C3M C2 1_555 1_555
H2M C3M 1_555 1_555
C4M C1 1_555 1_555
H3M C4M 1_555 1_555
C5M N1 1_555 1_555
H4M C5M 1_555 1_555
C7M N2 1_555 1_555
H5M C7M 1_555 1_555
O1M C6M 1_555 1_555
N3M Zn1 1_555 1_555
H1M N3M 1_555 1_555
O2M Zn1 1_555 1_555
C6M N3M 1_555 1_555
N4M O2M 1_555 1_555
C8M C6M 1_555 1_555
N5M C9M 1_555 1_555
C9M C8M 1_555 1_555
C10M O1M 1_555 1_555
H6M C10M 1_555 1_555
H7M C10M 1_555 1_555
H8M C10M 1_555 1_555
Zn1_2 N2 1_555 1_555
N2_2 Zn1 1_555 1_555
N4 C8 1_555 1_555
C3M C5M 1_555 1_555
C4M C7M 1_555 1_555
N4M C8M 1_555 1_555

#END
