
#######################################################################
#
#                 Cambridge Crystallographic Data Centre
#                                CCDC 
#
#######################################################################
#
# If this CIF has been generated from an entry in the Cambridge 
# Structural Database, then it will include bibliographic, chemical, 
# crystal, experimental, refinement or atomic coordinate data resulting 
# from the CCDC's data processing and validation procedures.
#
#######################################################################

data_CICLEH
_symmetry_cell_setting           monoclinic
_symmetry_space_group_name_H-M   'C 2/c'
_symmetry_Int_Tables_number      15
_space_group_name_Hall           '-C 2yn'
loop_
_symmetry_equiv_pos_site_id
_symmetry_equiv_pos_as_xyz
1 x,y,z
2 -x,y,1/2-z
3 1/2+x,1/2+y,z
4 1/2-x,1/2+y,1/2-z
5 -x,-y,-z
6 x,-y,1/2+z
7 1/2-x,1/2-y,-z
8 1/2+x,1/2-y,1/2+z
_cell_length_a                   16.096(3)
_cell_length_b                   11.352(2)
_cell_length_c                   16.663(3)
_cell_angle_alpha                90
_cell_angle_beta                 116.40(3)
_cell_angle_gamma                90
_cell_volume                     2727.17
loop_
_atom_site_label
_atom_site_type_symbol
_atom_site_fract_x
_atom_site_fract_y
_atom_site_fract_z
Ni1 Ni 0.0000 0.37235(5) 0.7500
N1 N 0.0000 0.5596(3) 0.7500
N2 N -0.0741(2) 0.3661(2) 0.6120(2)
H1 H -0.1351 0.3675 0.5841
O1 O 0.1935(2) 0.3763(2) 0.76111(19)
N3 N 0.0000 1.1843(3) 0.7500
C1 C 0.0000 0.8076(4) 0.7500
N4 N 0.1063(2) 0.3705(2) 0.7114(2)
C2 C 0.0646(3) 0.6210(3) 0.8178(2)
H2 H 0.1111 0.5787 0.8662
C3 C 0.0785(3) 1.1230(3) 0.7936(3)
H3 H 0.1347 1.1652 0.8255
C4 C 0.0000 0.9381(4) 0.7500
N5 N 0.1906(3) 0.3518(3) 0.5544(3)
C5 C -0.0243(3) 0.3601(3) 0.5710(2)
C6 C 0.0765(3) 0.3616(3) 0.6239(2)
C7 C 0.1390(3) 0.3559(3) 0.5844(3)
C8 C 0.0818(2) 1.0015(3) 0.7946(2)
H4 H 0.1393 0.9616 0.8255
C9 C 0.0670(2) 0.7428(3) 0.8209(2)
H5 H 0.1137 0.7823 0.8708
O2 O -0.05184(18) 0.3532(2) 0.48297(17)
C10 C -0.1518(3) 0.3428(4) 0.4243(3)
H6 H -0.1849 0.4124 0.4314
H7 H -0.1769 0.2715 0.4400
C11 C -0.1650(3) 0.3346(4) 0.3299(3)
H8 H -0.1403 0.4056 0.3150
H9 H -0.2313 0.3274 0.2893
H10 H -0.1321 0.2652 0.3236
C2A C -0.0646(3) 0.6210(3) 0.6822(2)
H2A H -0.1111 0.5787 0.6338
C9A C -0.0670(2) 0.7428(3) 0.6791(2)
H5A H -0.1137 0.7823 0.6292
C3A C -0.0785(3) 1.1230(3) 0.7064(3)
H3A H -0.1347 1.1652 0.6745
C8A C -0.0818(2) 1.0015(3) 0.7054(2)
H4A H -0.1393 0.9616 0.6745
N2A N 0.0741(2) 0.3661(2) 0.8880(2)
H1A H 0.1351 0.3675 0.9159
O1A O -0.1935(2) 0.3763(2) 0.73889(19)
N4A N -0.1063(2) 0.3705(2) 0.7886(2)
N5A N -0.1906(3) 0.3518(3) 0.9456(3)
C5A C 0.0243(3) 0.3601(3) 0.9290(2)
C6A C -0.0765(3) 0.3616(3) 0.8761(2)
C7A C -0.1390(3) 0.3559(3) 0.9156(3)
O2A O 0.05184(18) 0.3532(2) 1.01703(17)
C10A C 0.1518(3) 0.3428(4) 1.0757(3)
H6A H 0.1849 0.4124 1.0686
H7A H 0.1769 0.2715 1.0600
C11A C 0.1650(3) 0.3346(4) 1.1701(3)
H8A H 0.1403 0.4056 1.1850
H9A H 0.2313 0.3274 1.2107
H10A H 0.1321 0.2652 1.1764
Ni1_2 Ni 0.0000 1.37235(5) 0.7500
N3_2 N 0.0000 0.1843(3) 0.7500
O3 O 0.2717(2) 0.4276(3) 0.9410(2)
H11 H 0.2327 0.4257 0.8868
C12 C 0.3319(4) 0.5253(5) 0.9559(4)
H12 H 0.3760 0.5280 1.0204
H13 H 0.2945 0.5985 0.9416
C13 C 0.3841(4) 0.5239(6) 0.9046(4)
H14 H 0.4172 0.4488 0.9140
H15 H 0.4289 0.5888 0.9240
H16 H 0.3417 0.5331 0.8409
loop_
_geom_bond_atom_site_label_1
_geom_bond_atom_site_label_2
_geom_bond_site_symmetry_1
_geom_bond_site_symmetry_2
Ni1 N1 1_555 1_555
N1 C2 1_555 1_555
N2 Ni1 1_555 1_555
H1 N2 1_555 1_555
O1 N4 1_555 1_555
N3 C3 1_555 1_555
C1 C4 1_555 1_555
N4 Ni1 1_555 1_555
C2 H2 1_555 1_555
C3 H3 1_555 1_555
C4 C8 1_555 1_555
N5 C7 1_555 1_555
C5 N2 1_555 1_555
C6 N4 1_555 1_555
C7 C6 1_555 1_555
C8 C3 1_555 1_555
H4 C8 1_555 1_555
C9 C1 1_555 1_555
H5 C9 1_555 1_555
O2 C5 1_555 1_555
C10 O2 1_555 1_555
H6 C10 1_555 1_555
H7 C10 1_555 1_555
C11 C10 1_555 1_555
H8 C11 1_555 1_555
H9 C11 1_555 1_555
H10 C11 1_555 1_555
O3 H11 1_555 1_555
C12 O3 1_555 1_555
H12 C12 1_555 1_555
H13 C12 1_555 1_555
C13 C12 1_555 1_555
H14 C13 1_555 1_555
H15 C13 1_555 1_555
H16 C13 1_555 1_555
C2A N1 1_555 1_555
H2A C2A 1_555 1_555
C9A C1 1_555 1_555
H5A C9A 1_555 1_555
C3A N3 1_555 1_555
H3A C3A 1_555 1_555
C8A C4 1_555 1_555
H4A C8A 1_555 1_555
N2A Ni1 1_555 1_555
H1A N2A 1_555 1_555
O1A N4A 1_555 1_555
N4A Ni1 1_555 1_555
N5A C7A 1_555 1_555
C5A N2A 1_555 1_555
C6A N4A 1_555 1_555
C7A C6A 1_555 1_555
O2A C5A 1_555 1_555
C10A O2A 1_555 1_555
H6A C10A 1_555 1_555
H7A C10A 1_555 1_555
C11A C10A 1_555 1_555
H8A C11A 1_555 1_555
H9A C11A 1_555 1_555
H10A C11A 1_555 1_555
Ni1_2 N3 1_555 1_555
N3_2 Ni1 1_555 1_555
C2 C9 1_555 1_555
C5 C6 1_555 1_555
C2A C9A 1_555 1_555
C3A C8A 1_555 1_555
C5A C6A 1_555 1_555

#END
