
#######################################################################
#
#                 Cambridge Crystallographic Data Centre
#                                CCDC 
#
#######################################################################
#
# If this CIF has been generated from an entry in the Cambridge 
# Structural Database, then it will include bibliographic, chemical, 
# crystal, experimental, refinement or atomic coordinate data resulting 
# from the CCDC's data processing and validation procedures.
#
#######################################################################

data_CICROX01
_symmetry_cell_setting           monoclinic
_symmetry_space_group_name_H-M   'C 2/c'
_symmetry_Int_Tables_number      15
_space_group_name_Hall           '-C 2yn'
loop_
_symmetry_equiv_pos_site_id
_symmetry_equiv_pos_as_xyz
1 x,y,z
2 -x,y,1/2-z
3 1/2+x,1/2+y,z
4 1/2-x,1/2+y,1/2-z
5 -x,-y,-z
6 x,-y,1/2+z
7 1/2-x,1/2-y,-z
8 1/2+x,1/2-y,1/2+z
_cell_length_a                   22.5417(15)
_cell_length_b                   18.8410(10)
_cell_length_c                   8.6041(5)
_cell_angle_alpha                90
_cell_angle_beta                 105.054(6)
_cell_angle_gamma                90
_cell_volume                     3528.82
loop_
_atom_site_label
_atom_site_type_symbol
_atom_site_fract_x
_atom_site_fract_y
_atom_site_fract_z
Fe1 Fe 0.0000 0.21509(5) 0.7500
N1 N 0.05829(19) 0.2942(2) 0.8767(5)
N2 N 0.2118(2) 0.4420(2) 1.2713(7)
N3 N 0.2499(2) 0.4982(2) 1.3414(7)
N4 N 0.43650(19) 0.6380(2) 1.6227(5)
C1 C 0.0776(3) 0.3478(3) 0.8000(6)
H1 H 0.0634 0.3502 0.6861
C2 C 0.1169(3) 0.3990(3) 0.8781(6)
H2 H 0.1291 0.4361 0.8184
C3 C 0.1389(3) 0.3972(3) 1.0436(7)
C4 C 0.1191(2) 0.3416(3) 1.1240(6)
H3 H 0.1334 0.3377 1.2377
C5 C 0.0789(2) 0.2927(3) 1.0377(6)
H4 H 0.0648 0.2559 1.0947
C6 C 0.1816(3) 0.4517(3) 1.1297(8)
H5 H 0.1862 0.4948 1.0767
C7 C 0.3058(3) 0.4854(3) 1.3839(7)
H6 H 0.3200 0.4398 1.3632
C8 C 0.3501(2) 0.5386(3) 1.4649(6)
C9 C 0.3331(2) 0.6005(3) 1.5280(6)
H7 H 0.2909 0.6105 1.5173
C10 C 0.3770(2) 0.6469(3) 1.6054(7)
H8 H 0.3641 0.6884 1.6500
C11 C 0.4529(3) 0.5811(4) 1.5574(10)
H9 H 0.4952 0.5746 1.5622
C12 C 0.4115(3) 0.5301(4) 1.4819(11)
H10 H 0.4259 0.4885 1.4412
N5 N 0.0455(2) 0.2113(2) 0.5765(5)
C13 C 0.0741(2) 0.1927(2) 0.4898(5)
S1 S 0.11406(8) 0.16644(9) 0.36944(18)
N1A N -0.05829(19) 0.2942(2) 0.6233(5)
N2A N -0.2118(2) 0.4420(2) 0.2287(7)
N3A N -0.2499(2) 0.4982(2) 0.1586(7)
N4A N -0.43650(19) 0.6380(2) -0.1227(5)
C1A C -0.0776(3) 0.3478(3) 0.7000(6)
H1A H -0.0634 0.3502 0.8139
C2A C -0.1169(3) 0.3990(3) 0.6219(6)
H2A H -0.1291 0.4361 0.6816
C3A C -0.1389(3) 0.3972(3) 0.4564(7)
C4A C -0.1191(2) 0.3416(3) 0.3760(6)
H3A H -0.1334 0.3377 0.2623
C5A C -0.0789(2) 0.2927(3) 0.4623(6)
H4A H -0.0648 0.2559 0.4053
C6A C -0.1816(3) 0.4517(3) 0.3703(8)
H5A H -0.1862 0.4948 0.4233
C7A C -0.3058(3) 0.4854(3) 0.1161(7)
H6A H -0.3200 0.4398 0.1368
C8A C -0.3501(2) 0.5386(3) 0.0351(6)
C9A C -0.3331(2) 0.6005(3) -0.0280(6)
H7A H -0.2909 0.6105 -0.0173
C10A C -0.3770(2) 0.6469(3) -0.1054(7)
H8A H -0.3641 0.6884 -0.1500
C11A C -0.4529(3) 0.5811(4) -0.0574(10)
H9A H -0.4952 0.5746 -0.0622
C12A C -0.4115(3) 0.5301(4) 0.0181(11)
H10A H -0.4259 0.4885 0.0588
N5A N -0.0455(2) 0.2113(2) 0.9235(5)
C13A C -0.0741(2) 0.1927(2) 1.0102(5)
S1A S -0.11406(8) 0.16644(9) 1.13056(18)
Fe1B Fe -0.5000 0.71509(5) -0.2500
Fe1B_2 Fe 0.5000 0.71509(5) 1.7500
N4B N -0.06350(19) 0.1380(2) 0.6227(5)
N4C N 0.06350(19) 0.1380(2) 0.8773(5)
C14 C 0.2674(4) 0.7754(4) 1.7701(11)
N6 N 0.2556(5) 0.7443(8) 1.6356(16)
C15 C 0.3036(6) 0.8352(6) 1.8995(10)
H11 H 0.2909 0.8310 1.9998
H12 H 0.2934 0.8827 1.8541
H13 H 0.3480 0.8276 1.9216
O1 O 0.0525(9) 0.4343(7) 1.450(2)
O2? O 0.0209(5) 0.4294(6) 1.3277(14)
loop_
_geom_bond_atom_site_label_1
_geom_bond_atom_site_label_2
_geom_bond_site_symmetry_1
_geom_bond_site_symmetry_2
Fe1 N1 1_555 1_555
N1 C1 1_555 1_555
N2 N3 1_555 1_555
N3 C7 1_555 1_555
N4 C10 1_555 1_555
C1 H1 1_555 1_555
C2 C1 1_555 1_555
H2 C2 1_555 1_555
C3 C2 1_555 1_555
C4 C3 1_555 1_555
H3 C4 1_555 1_555
C5 N1 1_555 1_555
H4 C5 1_555 1_555
C6 N2 1_555 1_555
H5 C6 1_555 1_555
C7 H6 1_555 1_555
C8 C7 1_555 1_555
C9 C8 1_555 1_555
H7 C9 1_555 1_555
C10 C9 1_555 1_555
H8 C10 1_555 1_555
C11 N4 1_555 1_555
H9 C11 1_555 1_555
C12 C8 1_555 1_555
H10 C12 1_555 1_555
N5 Fe1 1_555 1_555
C13 N5 1_555 1_555
S1 C13 1_555 1_555
C14 N6 1_555 1_555
C15 C14 1_555 1_555
H11 C15 1_555 1_555
H12 C15 1_555 1_555
H13 C15 1_555 1_555
N1A Fe1 1_555 1_555
N2A N3A 1_555 1_555
N3A C7A 1_555 1_555
N4A C10A 1_555 1_555
C1A N1A 1_555 1_555
H1A C1A 1_555 1_555
C2A C1A 1_555 1_555
H2A C2A 1_555 1_555
C3A C2A 1_555 1_555
C4A C3A 1_555 1_555
H3A C4A 1_555 1_555
C5A N1A 1_555 1_555
H4A C5A 1_555 1_555
C6A N2A 1_555 1_555
H5A C6A 1_555 1_555
C7A H6A 1_555 1_555
C8A C7A 1_555 1_555
C9A C8A 1_555 1_555
H7A C9A 1_555 1_555
C10A C9A 1_555 1_555
H8A C10A 1_555 1_555
C11A N4A 1_555 1_555
H9A C11A 1_555 1_555
C12A C8A 1_555 1_555
H10A C12A 1_555 1_555
N5A Fe1 1_555 1_555
C13A N5A 1_555 1_555
S1A C13A 1_555 1_555
Fe1B N4A 1_555 1_555
Fe1B_2 N4 1_555 1_555
N4B Fe1 1_555 1_555
N4C Fe1 1_555 1_555
C3 C6 1_555 1_555
C4 C5 1_555 1_555
C11 C12 1_555 1_555
C3A C6A 1_555 1_555
C4A C5A 1_555 1_555
C11A C12A 1_555 1_555

#END
