
#######################################################################
#
#                 Cambridge Crystallographic Data Centre
#                                CCDC 
#
#######################################################################
#
# If this CIF has been generated from an entry in the Cambridge 
# Structural Database, then it will include bibliographic, chemical, 
# crystal, experimental, refinement or atomic coordinate data resulting 
# from the CCDC's data processing and validation procedures.
#
#######################################################################

data_CICROX
_symmetry_cell_setting           monoclinic
_symmetry_space_group_name_H-M   'C 2/c'
_symmetry_Int_Tables_number      15
_space_group_name_Hall           '-C 2yn'
loop_
_symmetry_equiv_pos_site_id
_symmetry_equiv_pos_as_xyz
1 x,y,z
2 -x,y,1/2-z
3 1/2+x,1/2+y,z
4 1/2-x,1/2+y,1/2-z
5 -x,-y,-z
6 x,-y,1/2+z
7 1/2-x,1/2-y,-z
8 1/2+x,1/2-y,1/2+z
_cell_length_a                   23.0146(18)
_cell_length_b                   18.9142(15)
_cell_length_c                   8.6833(7)
_cell_angle_alpha                90
_cell_angle_beta                 104.926(7)
_cell_angle_gamma                90
_cell_volume                     3652.33
loop_
_atom_site_label
_atom_site_type_symbol
_atom_site_fract_x
_atom_site_fract_y
_atom_site_fract_z
Fe1 Fe 0.0000 0.21112(5) 0.2500
C1 C 0.0795(3) 0.2925(3) 0.5407(7)
H1 H 0.0650 0.2564 0.5970
C2 C 0.1202(3) 0.3404(3) 0.6259(7)
H2 H 0.1353 0.3352 0.7379
C3 C 0.1390(2) 0.3959(3) 0.5485(7)
C4 C 0.1173(3) 0.3985(3) 0.3841(8)
H3 H 0.1291 0.4357 0.3252
C5 C 0.0786(3) 0.3472(3) 0.3073(7)
H4 H 0.0647 0.3494 0.1944
C6 C 0.1812(3) 0.4500(3) 0.6337(8)
H5 H 0.1864 0.4924 0.5801
C7 C 0.3025(3) 0.4818(3) 0.8826(7)
H6 H 0.3156 0.4362 0.8610
C8 C 0.3468(2) 0.5342(3) 0.9631(7)
C9 C 0.3312(2) 0.5962(3) 1.0232(7)
H7 H 0.2900 0.6072 1.0112
C10 C 0.3751(2) 0.6429(3) 1.1012(7)
H8 H 0.3631 0.6850 1.1446
C11 C 0.4480(3) 0.5726(4) 1.0566(10)
H9 H 0.4893 0.5638 1.0647
C12 C 0.4064(3) 0.5219(4) 0.9797(10)
H10 H 0.4194 0.4796 0.9398
N1 N 0.05958(19) 0.2945(2) 0.3820(5)
N2 N 0.2098(3) 0.4413(3) 0.7730(8)
N3 N 0.2480(2) 0.4961(3) 0.8420(7)
N4 N 0.43409(18) 0.6314(2) 1.1183(5)
C13 C -0.0748(3) 0.1910(3) 0.5125(6)
N5 N -0.0464(2) 0.2075(2) 0.4294(6)
S1 S -0.11649(11) 0.16638(13) 0.6281(2)
C1A C -0.0795(3) 0.2925(3) -0.0407(7)
H1A H -0.0650 0.2564 -0.0970
C2A C -0.1202(3) 0.3404(3) -0.1259(7)
H2A H -0.1353 0.3352 -0.2379
C3A C -0.1390(2) 0.3959(3) -0.0485(7)
C4A C -0.1173(3) 0.3985(3) 0.1159(8)
H3A H -0.1291 0.4357 0.1748
C5A C -0.0786(3) 0.3472(3) 0.1927(7)
H4A H -0.0647 0.3494 0.3056
C6A C -0.1812(3) 0.4500(3) -0.1337(8)
H5A H -0.1864 0.4924 -0.0801
C7A C -0.3025(3) 0.4818(3) -0.3826(7)
H6A H -0.3156 0.4362 -0.3610
C8A C -0.3468(2) 0.5342(3) -0.4631(7)
C9A C -0.3312(2) 0.5962(3) -0.5232(7)
H7A H -0.2900 0.6072 -0.5112
C10A C -0.3751(2) 0.6429(3) -0.6012(7)
H8A H -0.3631 0.6850 -0.6446
C11A C -0.4480(3) 0.5726(4) -0.5566(10)
H9A H -0.4893 0.5638 -0.5647
C12A C -0.4064(3) 0.5219(4) -0.4797(10)
H10A H -0.4194 0.4796 -0.4398
N1A N -0.05958(19) 0.2945(2) 0.1180(5)
N2A N -0.2098(3) 0.4413(3) -0.2730(8)
N3A N -0.2480(2) 0.4961(3) -0.3420(7)
N4A N -0.43409(18) 0.6314(2) -0.6183(5)
C13A C 0.0748(3) 0.1910(3) -0.0125(6)
N5A N 0.0464(2) 0.2075(2) 0.0706(6)
S1A S 0.11649(11) 0.16638(13) -0.1281(2)
Fe1B Fe -0.5000 0.71112(5) -0.7500
Fe1B_2 Fe 0.5000 0.71112(5) 1.2500
N4B N -0.06591(18) 0.1314(2) 0.1183(5)
N4C N 0.06591(18) 0.1314(2) 0.3817(5)
C14 C 0.2135(6) 0.3192(7) 1.1273(15)
C15 C 0.2345(6) 0.2676(8) 1.2613(16)
H11 H 0.2648 0.2331 1.2487
H12 H 0.2006 0.2427 1.2857
H13 H 0.2525 0.3000 1.3485
N6 N 0.1688(10) 0.3647(12) 1.068(3)
O1 O 0.0596(12) 0.4344(14) 0.957(3)
O2? O 0.0207(8) 0.4341(8) 0.8350(19)
loop_
_geom_bond_atom_site_label_1
_geom_bond_atom_site_label_2
_geom_bond_site_symmetry_1
_geom_bond_site_symmetry_2
Fe1 N1 1_555 1_555
C1 H1 1_555 1_555
C2 C1 1_555 1_555
H2 C2 1_555 1_555
C3 C2 1_555 1_555
C4 C3 1_555 1_555
H3 C4 1_555 1_555
C5 C4 1_555 1_555
H4 C5 1_555 1_555
C6 C3 1_555 1_555
H5 C6 1_555 1_555
C7 H6 1_555 1_555
C8 C7 1_555 1_555
C9 C8 1_555 1_555
H7 C9 1_555 1_555
C10 C9 1_555 1_555
H8 C10 1_555 1_555
C11 H9 1_555 1_555
C12 C8 1_555 1_555
H10 C12 1_555 1_555
N1 C1 1_555 1_555
N2 C6 1_555 1_555
N3 C7 1_555 1_555
N4 C10 1_555 1_555
C13 N5 1_555 1_555
N5 Fe1 1_555 1_555
S1 C13 1_555 1_555
C14 C15 1_555 1_555
C15 H11 1_555 1_555
H12 C15 1_555 1_555
H13 C15 1_555 1_555
N6 C14 1_555 1_555
C1A H1A 1_555 1_555
C2A C1A 1_555 1_555
H2A C2A 1_555 1_555
C3A C2A 1_555 1_555
C4A C3A 1_555 1_555
H3A C4A 1_555 1_555
C5A C4A 1_555 1_555
H4A C5A 1_555 1_555
C6A C3A 1_555 1_555
H5A C6A 1_555 1_555
C7A H6A 1_555 1_555
C8A C7A 1_555 1_555
C9A C8A 1_555 1_555
H7A C9A 1_555 1_555
C10A C9A 1_555 1_555
H8A C10A 1_555 1_555
C11A H9A 1_555 1_555
C12A C8A 1_555 1_555
H10A C12A 1_555 1_555
N1A Fe1 1_555 1_555
N2A C6A 1_555 1_555
N3A C7A 1_555 1_555
N4A C10A 1_555 1_555
C13A N5A 1_555 1_555
N5A Fe1 1_555 1_555
S1A C13A 1_555 1_555
Fe1B N4A 1_555 1_555
Fe1B_2 N4 1_555 1_555
N4B Fe1 1_555 1_555
N4C Fe1 1_555 1_555
C5 N1 1_555 1_555
C11 C12 1_555 1_555
C11 N4 1_555 1_555
N2 N3 1_555 1_555
C1A N1A 1_555 1_555
C5A N1A 1_555 1_555
C11A C12A 1_555 1_555
C11A N4A 1_555 1_555
N2A N3A 1_555 1_555

#END
