
#######################################################################
#
#                 Cambridge Crystallographic Data Centre
#                                CCDC 
#
#######################################################################
#
# If this CIF has been generated from an entry in the Cambridge 
# Structural Database, then it will include bibliographic, chemical, 
# crystal, experimental, refinement or atomic coordinate data resulting 
# from the CCDC's data processing and validation procedures.
#
#######################################################################

data_CICRIR
_symmetry_cell_setting           monoclinic
_symmetry_space_group_name_H-M   'P 21/c'
_symmetry_Int_Tables_number      14
_space_group_name_Hall           '-P 2ybc'
loop_
_symmetry_equiv_pos_site_id
_symmetry_equiv_pos_as_xyz
1 x,y,z
2 -x,1/2+y,1/2-z
3 -x,-y,-z
4 x,1/2-y,1/2+z
_cell_length_a                   13.8678(7)
_cell_length_b                   15.7099(8)
_cell_length_c                   20.4118(12)
_cell_angle_alpha                90
_cell_angle_beta                 100.280(2)
_cell_angle_gamma                90
_cell_volume                     4375.57
loop_
_atom_site_label
_atom_site_type_symbol
_atom_site_fract_x
_atom_site_fract_y
_atom_site_fract_z
Fe1 Fe 0.16651(4) 0.31206(4) 0.19501(3)
C1 C 0.3870(3) 0.3593(3) 0.2454(2)
H1 H 0.3761 0.3890 0.2042
C2 C 0.4799(3) 0.3625(3) 0.2839(2)
H2 H 0.5310 0.3930 0.2690
C3 C 0.4972(3) 0.3208(3) 0.3444(2)
C4 C 0.4192(3) 0.2775(3) 0.3625(2)
H3 H 0.4278 0.2476 0.4036
C5 C 0.3298(3) 0.2777(4) 0.3214(2)
H4 H 0.2773 0.2482 0.3354
C6 C 0.5964(3) 0.3183(3) 0.3838(2)
H5 H 0.6469 0.3512 0.3704
C7 C 0.7316(3) 0.2310(3) 0.5189(2)
H6 H 0.6783 0.2049 0.5347
C8 C 0.8320(3) 0.2209(3) 0.5563(2)
C9 C 0.8472(4) 0.1799(4) 0.6167(2)
H7 H 0.7932 0.1605 0.6355
C10 C 0.9414(4) 0.1673(4) 0.6495(2)
H8 H 0.9503 0.1370 0.6904
C11 C 1.0053(3) 0.2336(3) 0.5691(2)
H9 H 1.0607 0.2529 0.5519
C12 C 0.9142(3) 0.2474(3) 0.5323(2)
H10 H 0.9075 0.2751 0.4903
N1 N 0.3125(3) 0.3174(2) 0.26239(17)
N2 N 0.6154(3) 0.2728(3) 0.43554(19)
N3 N 0.7157(3) 0.2749(3) 0.46520(18)
N4 N 1.0204(3) 0.1942(2) 0.62830(17)
C13 C 0.2890(4) 0.2936(3) 0.0768(2)
N5 N 0.2370(3) 0.3025(2) 0.11306(18)
S1 S 0.3673(2) 0.2819(2) 0.02611(13)
C14 C 0.0797(3) 0.3072(3) 0.3317(2)
N6 N 0.0984(3) 0.3147(2) 0.27971(18)
S2 S 0.05133(14) 0.29699(16) 0.40507(8)
C15 C 0.2458(3) 0.1239(3) 0.2000(2)
H11 H 0.3049 0.1537 0.1983
C16 C 0.2491(3) 0.0367(3) 0.2030(3)
H12 H 0.3092 0.0074 0.2039
C17 C 0.1637(3) -0.0081(3) 0.2048(2)
C18 C 0.0781(4) 0.0387(3) 0.2022(3)
H13 H 0.0174 0.0104 0.2017
C19 C 0.0815(4) 0.1260(3) 0.2003(3)
H14 H 0.0225 0.1570 0.1996
C20 C 0.1608(4) -0.1012(3) 0.2104(2)
H15 H 0.0989 -0.1287 0.2048
C21 C 0.2051(4) -0.2786(3) 0.1799(2)
H16 H 0.2004 -0.2532 0.1372
C22 C 0.1912(3) -0.3700(3) 0.1846(2)
C23 C 0.1842(4) -0.4203(3) 0.1279(2)
H17 H 0.1866 -0.3949 0.0860
C24 C 0.1737(4) -0.5064(3) 0.1327(2)
H18 H 0.1689 -0.5395 0.0933
C25 C 0.1769(3) -0.4978(3) 0.2448(2)
H19 H 0.1742 -0.5246 0.2862
C26 C 0.1878(3) -0.4120(3) 0.2441(2)
H20 H 0.1933 -0.3805 0.2843
N7 N 0.1642(2) 0.1694(2) 0.19928(17)
N8 N 0.2367(3) -0.1456(2) 0.2221(2)
N9 N 0.2233(3) -0.2318(2) 0.2316(2)
N10 N 0.1697(2) -0.5469(2) 0.19033(15)
Fe1_2 Fe 0.16651(4) -0.68794(4) 0.19501(3)
Fe1C Fe 1.16651(4) 0.18794(4) 0.69501(3)
N4C N 0.0204(3) 0.3058(2) 0.12830(17)
N10_2 N 0.1697(2) 0.4531(2) 0.19033(15)
C27 C 0.2750(10) 0.4466(9) 0.4536(9)
H21 H 0.2969 0.4483 0.4105
H22 H 0.2548 0.3886 0.4624
H23 H 0.3289 0.4642 0.4888
C28 C 0.1902(9) 0.5059(6) 0.4521(4)
C29 C 0.1510(15) 0.5106(8) 0.5099(6)
H24 H 0.0977 0.5525 0.5040
H25 H 0.2021 0.5280 0.5470
H26 H 0.1254 0.4548 0.5195
O1 O 0.1657(5) 0.5452(4) 0.4044(3)
C30 C -0.2142(9) 0.5840(6) 0.1107(5)
H27 H -0.2840 0.5714 0.1078
H28 H -0.2058 0.6445 0.1014
H29 H -0.1791 0.5705 0.1555
C31 C -0.1750(8) 0.5329(5) 0.0622(4)
C32 C -0.0822(8) 0.5383(9) 0.0581(8)
H30 H -0.0678 0.4993 0.0236
H31 H -0.0422 0.5229 0.1011
H32 H -0.0669 0.5967 0.0466
O2 O -0.2333(5) 0.4870(4) 0.0241(3)
C33 C 0.4542(9) 0.5463(8) 0.0858(5)
H33 H 0.4269 0.5950 0.1062
H34 H 0.4012 0.5074 0.0669
H35 H 0.4878 0.5664 0.0503
C34 C 0.5199(8) 0.5041(9) 0.1333(5)
C35 C 0.5756(9) 0.4295(6) 0.1209(6)
H36 H 0.6175 0.4116 0.1624
H37 H 0.6164 0.4433 0.0878
H38 H 0.5304 0.3833 0.1040
O3 O 0.5258(7) 0.5313(5) 0.1912(4)
C36 C 0.4386(12) 0.6059(11) 0.4185(11)
H39 H 0.4507 0.5565 0.4481
H40 H 0.3683 0.6106 0.4009
H41 H 0.4613 0.6577 0.4434
C37 C 0.4878(9) 0.5963(10) 0.3674(10)
C38 C 0.4613(11) 0.6679(10) 0.3204(8)
H42 H 0.4894 0.6581 0.2803
H43 H 0.4871 0.7212 0.3415
H44 H 0.3898 0.6716 0.3082
O4 O 0.5501(7) 0.5429(6) 0.3682(6)
loop_
_geom_bond_atom_site_label_1
_geom_bond_atom_site_label_2
_geom_bond_site_symmetry_1
_geom_bond_site_symmetry_2
Fe1 N1 1_555 1_555
C1 H1 1_555 1_555
C2 C1 1_555 1_555
H2 C2 1_555 1_555
C3 C2 1_555 1_555
C4 C3 1_555 1_555
H3 C4 1_555 1_555
C5 C4 1_555 1_555
H4 C5 1_555 1_555
C6 C3 1_555 1_555
H5 C6 1_555 1_555
C7 H6 1_555 1_555
C8 C7 1_555 1_555
C9 C8 1_555 1_555
H7 C9 1_555 1_555
C10 C9 1_555 1_555
H8 C10 1_555 1_555
C11 H9 1_555 1_555
C12 C8 1_555 1_555
H10 C12 1_555 1_555
N1 C1 1_555 1_555
N2 C6 1_555 1_555
N3 C7 1_555 1_555
N4 C10 1_555 1_555
C13 N5 1_555 1_555
N5 Fe1 1_555 1_555
S1 C13 1_555 1_555
C14 N6 1_555 1_555
N6 Fe1 1_555 1_555
S2 C14 1_555 1_555
C15 H11 1_555 1_555
C16 C15 1_555 1_555
H12 C16 1_555 1_555
C17 C16 1_555 1_555
C18 C17 1_555 1_555
H13 C18 1_555 1_555
C19 C18 1_555 1_555
H14 C19 1_555 1_555
C20 C17 1_555 1_555
H15 C20 1_555 1_555
C21 H16 1_555 1_555
C22 C21 1_555 1_555
C23 C22 1_555 1_555
H17 C23 1_555 1_555
C24 C23 1_555 1_555
H18 C24 1_555 1_555
C25 H19 1_555 1_555
C26 C22 1_555 1_555
H20 C26 1_555 1_555
N7 Fe1 1_555 1_555
N8 C20 1_555 1_555
N9 C21 1_555 1_555
N10 C24 1_555 1_555
C27 H21 1_555 1_555
H22 C27 1_555 1_555
H23 C27 1_555 1_555
C28 C27 1_555 1_555
C29 C28 1_555 1_555
H24 C29 1_555 1_555
H25 C29 1_555 1_555
H26 C29 1_555 1_555
O1 C28 1_555 1_555
C30 H27 1_555 1_555
H28 C30 1_555 1_555
H29 C30 1_555 1_555
C31 C30 1_555 1_555
C32 C31 1_555 1_555
H30 C32 1_555 1_555
H31 C32 1_555 1_555
H32 C32 1_555 1_555
O2 C31 1_555 1_555
C33 H33 1_555 1_555
H34 C33 1_555 1_555
H35 C33 1_555 1_555
C34 C33 1_555 1_555
C35 C34 1_555 1_555
H36 C35 1_555 1_555
H37 C35 1_555 1_555
H38 C35 1_555 1_555
O3 C34 1_555 1_555
C36 H39 1_555 1_555
H40 C36 1_555 1_555
H41 C36 1_555 1_555
C37 C36 1_555 1_555
C38 C37 1_555 1_555
H42 C38 1_555 1_555
H43 C38 1_555 1_555
H44 C38 1_555 1_555
O4 C37 1_555 1_555
Fe1_2 N10 1_555 1_555
Fe1C N4 1_555 1_555
N4C Fe1 1_555 1_555
N10_2 Fe1 1_555 1_555
C5 N1 1_555 1_555
C11 C12 1_555 1_555
C11 N4 1_555 1_555
N2 N3 1_555 1_555
C15 N7 1_555 1_555
C19 N7 1_555 1_555
C25 C26 1_555 1_555
C25 N10 1_555 1_555
N8 N9 1_555 1_555

#END
