
#######################################################################
#
#                 Cambridge Crystallographic Data Centre
#                                CCDC 
#
#######################################################################
#
# If this CIF has been generated from an entry in the Cambridge 
# Structural Database, then it will include bibliographic, chemical, 
# crystal, experimental, refinement or atomic coordinate data resulting 
# from the CCDC's data processing and validation procedures.
#
#######################################################################

data_CICREN
_symmetry_cell_setting           monoclinic
_symmetry_space_group_name_H-M   'P 2/c'
_symmetry_Int_Tables_number      13
_space_group_name_Hall           '-P 2yc'
loop_
_symmetry_equiv_pos_site_id
_symmetry_equiv_pos_as_xyz
1 x,y,z
2 -x,y,1/2-z
3 -x,-y,-z
4 x,-y,1/2+z
_cell_length_a                   13.5599(9)
_cell_length_b                   15.8284(11)
_cell_length_c                   23.744(2)
_cell_angle_alpha                90
_cell_angle_beta                 114.664(6)
_cell_angle_gamma                90
_cell_volume                     4631.29
loop_
_atom_site_label
_atom_site_type_symbol
_atom_site_fract_x
_atom_site_fract_y
_atom_site_fract_z
Fe1 Fe 0.24830(6) 0.08549(4) -0.00058(4)
C1 C 0.2280(6) -0.1066(3) 0.0310(3)
H1 H 0.2201 -0.0811 0.0651
C2 C 0.2260(6) -0.1934(4) 0.0277(3)
H2 H 0.2165 -0.2261 0.0587
C3 C 0.2377(5) -0.2323(3) -0.0205(3)
C4 C 0.2498(7) -0.1800(4) -0.0636(4)
H3 H 0.2571 -0.2035 -0.0984
C5 C 0.2511(7) -0.0937(4) -0.0561(3)
H4 H 0.2605 -0.0593 -0.0863
C6 C 0.2374(5) -0.3234(4) -0.0276(3)
H5 H 0.2259 -0.3464 -0.0668
C7 C 0.2718(5) -0.5093(3) 0.0428(3)
H6 H 0.2944 -0.4881 0.0838
C8 C 0.2684(5) -0.5995(3) 0.0327(3)
C9 C 0.3099(5) -0.6561(3) 0.0809(3)
H7 H 0.3426 -0.6359 0.1223
C10 C 0.3048(5) -0.7416(3) 0.0698(3)
H8 H 0.3350 -0.7792 0.1040
C11 C 0.2168(5) -0.7202(3) -0.0346(3)
H9 H 0.1832 -0.7424 -0.0755
C12 C 0.2196(5) -0.6341(3) -0.0271(3)
H10 H 0.1888 -0.5981 -0.0621
N1 N 0.2403(4) -0.0563(3) -0.0101(2)
N2 N 0.2520(4) -0.3733(3) 0.0172(3)
N3 N 0.2452(4) -0.4579(3) -0.0022(3)
N4 N 0.2586(4) -0.7739(3) 0.0123(2)
C13 C 0.0944(5) 0.0956(4) 0.0701(3)
H11 H 0.0427 0.1072 0.0291
C14 C 0.0606(5) 0.0971(4) 0.1170(3)
H12 H -0.0130 0.1095 0.1081
C15 C 0.1321(5) 0.0807(3) 0.1764(3)
C16 C 0.2393(5) 0.0624(3) 0.1869(3)
H13 H 0.2923 0.0507 0.2275
C17 C 0.2661(5) 0.0617(3) 0.1367(3)
H14 H 0.3388 0.0483 0.1442
C18 C 0.1031(5) 0.0820(4) 0.2296(3)
H15 H 0.1585 0.0768 0.2704
C19 C 0.3965(5) 0.1143(3) -0.2300(3)
H16 H 0.3419 0.1218 -0.2708
C20 C 0.3658(5) 0.1132(3) -0.1772(3)
C21 C 0.4411(5) 0.1109(3) -0.1165(3)
H17 H 0.5164 0.1134 -0.1068
C22 C 0.4060(5) 0.1051(3) -0.0698(3)
H18 H 0.4588 0.1036 -0.0280
C23 C 0.2285(5) 0.1047(3) -0.1394(3)
H19 H 0.1536 0.1025 -0.1478
C24 C 0.2561(5) 0.1112(3) -0.1891(3)
H20 H 0.2016 0.1143 -0.2303
N5 N 0.1975(4) 0.0786(3) 0.0791(2)
N6 N 0.0046(5) 0.0899(4) 0.2215(2)
N7 N 0.4946(4) 0.1054(3) -0.2218(2)
N8 N 0.2999(4) 0.1013(2) -0.0806(2)
C25 C 0.4934(5) 0.0958(3) 0.1002(3)
N9 N 0.4103(4) 0.0765(3) 0.0618(2)
S1 S 0.60879(15) 0.12353(13) 0.15443(9)
C26 C 0.0069(5) 0.1284(3) -0.0971(3)
N10 N 0.0879(4) 0.0979(3) -0.0631(2)
S2 S -0.10445(15) 0.17352(13) -0.14483(9)
C13A C -0.0944(5) 0.0956(4) 0.4299(3)
H11A H -0.0427 0.1072 0.4709
C14A C -0.0606(5) 0.0971(4) 0.3830(3)
H12A H 0.0130 0.1095 0.3919
C15A C -0.1321(5) 0.0807(3) 0.3236(3)
C16A C -0.2393(5) 0.0624(3) 0.3131(3)
H13A H -0.2923 0.0507 0.2725
C17A C -0.2661(5) 0.0617(3) 0.3633(3)
H14A H -0.3388 0.0483 0.3558
C18A C -0.1031(5) 0.0820(4) 0.2704(3)
H15A H -0.1585 0.0768 0.2296
N5A N -0.1975(4) 0.0786(3) 0.4209(2)
N6A N -0.0046(5) 0.0899(4) 0.2785(2)
C19A C 0.6035(5) 0.1143(3) -0.2700(3)
H16A H 0.6581 0.1218 -0.2292
C20A C 0.6342(5) 0.1132(3) -0.3228(3)
C21A C 0.5589(5) 0.1109(3) -0.3835(3)
H17A H 0.4836 0.1134 -0.3932
C22A C 0.5940(5) 0.1051(3) -0.4302(3)
H18A H 0.5412 0.1036 -0.4720
C23A C 0.7715(5) 0.1047(3) -0.3606(3)
H19A H 0.8464 0.1025 -0.3522
C24A C 0.7439(5) 0.1112(3) -0.3109(3)
H20A H 0.7984 0.1143 -0.2697
N7A N 0.5054(4) 0.1054(3) -0.2782(2)
N8A N 0.7001(4) 0.1013(2) -0.4194(2)
Fe1A Fe -0.24830(6) 0.08549(4) 0.50058(4)
C1A C -0.2280(6) -0.1066(3) 0.4690(3)
H1A H -0.2201 -0.0811 0.4349
C2A C -0.2260(6) -0.1934(4) 0.4723(3)
H2A H -0.2165 -0.2261 0.4413
C3A C -0.2377(5) -0.2323(3) 0.5205(3)
C4A C -0.2498(7) -0.1800(4) 0.5636(4)
H3A H -0.2571 -0.2035 0.5984
C5A C -0.2511(7) -0.0937(4) 0.5561(3)
H4A H -0.2605 -0.0593 0.5863
C6A C -0.2374(5) -0.3234(4) 0.5276(3)
H5A H -0.2259 -0.3464 0.5668
C7A C -0.2718(5) -0.5093(3) 0.4572(3)
H6A H -0.2944 -0.4881 0.4162
C8A C -0.2684(5) -0.5995(3) 0.4673(3)
C9A C -0.3099(5) -0.6561(3) 0.4191(3)
H7A H -0.3426 -0.6359 0.3777
C10A C -0.3048(5) -0.7416(3) 0.4302(3)
H8A H -0.3350 -0.7792 0.3960
C11A C -0.2168(5) -0.7202(3) 0.5346(3)
H9A H -0.1832 -0.7424 0.5755
C12A C -0.2196(5) -0.6341(3) 0.5271(3)
H10A H -0.1888 -0.5981 0.5621
N1A N -0.2403(4) -0.0563(3) 0.5101(2)
N2A N -0.2520(4) -0.3733(3) 0.4828(3)
N3A N -0.2452(4) -0.4579(3) 0.5022(3)
N4A N -0.2586(4) -0.7739(3) 0.4877(2)
C25A C -0.4934(5) 0.0958(3) 0.3998(3)
N9A N -0.4103(4) 0.0765(3) 0.4382(2)
S1A S -0.60879(15) 0.12353(13) 0.34557(9)
C26A C -0.0069(5) 0.1284(3) 0.5971(3)
N10A N -0.0879(4) 0.0979(3) 0.5631(2)
S2A S 0.10445(15) 0.17352(13) 0.64483(9)
Fe1_2 Fe 0.24830(6) -0.91451(4) -0.00058(4)
Fe1A_2 Fe -0.24830(6) -0.91451(4) 0.50058(4)
Fe1A_3 Fe 0.75170(6) 0.08549(4) -0.49942(4)
N4_2 N 0.2586(4) 0.2261(3) 0.0123(2)
N4A_2 N -0.2586(4) 0.2261(3) 0.4877(2)
N8A_2 N -0.2999(4) 0.1013(2) 0.5806(2)
C27 C 0.3129(9) -0.6804(6) 0.2339(4)
H21 H 0.2488 -0.7108 0.2276
C28 C 0.3124(7) -0.5921(6) 0.2351(4)
H22 H 0.2489 -0.5624 0.2310
C29 C 0.4036(6) -0.5490(5) 0.2423(3)
H23 H 0.4025 -0.4890 0.2421
C30 C 0.5000 -0.5915(5) 0.2500
C31 C 0.5000 -0.6805(6) 0.2500
C32 C 0.5964(9) -0.7226(5) 0.2586(4)
H24 H 0.5976 -0.7826 0.2591
C27A C 0.6871(9) -0.6804(6) 0.2661(4)
H21A H 0.7512 -0.7108 0.2724
C28A C 0.6876(7) -0.5921(6) 0.2649(4)
H22A H 0.7511 -0.5624 0.2690
C29A C 0.5964(6) -0.5490(5) 0.2577(3)
H23A H 0.5975 -0.4890 0.2579
C32A C 0.4036(9) -0.7226(5) 0.2414(4)
H24A H 0.4024 -0.7826 0.2409
C33 C 0.5286(7) 0.3233(3) -0.2169(3)
C34 C 0.4827(10) 0.3234(5) -0.1780(5)
H25 H 0.5250 0.3233 -0.1344
C35 C 0.3713(7) 0.3235(5) -0.2023(5)
H26 H 0.3377 0.3234 -0.1743
C36 C 0.3057(6) 0.3238(4) -0.2646(4)
H27 H 0.2292 0.3235 -0.2777
C37 C 0.3460(8) 0.3244(4) -0.3081(5)
H28 H 0.3003 0.3255 -0.3512
C33A C 0.4714(7) 0.3233(3) -0.2831(3)
C34A C 0.5173(10) 0.3234(5) -0.3220(5)
H25A H 0.4750 0.3233 -0.3656
C35A C 0.6287(7) 0.3235(5) -0.2977(5)
H26A H 0.6623 0.3234 -0.3257
C36A C 0.6943(6) 0.3238(4) -0.2354(4)
H27A H 0.7708 0.3235 -0.2223
C37A C 0.6540(8) 0.3244(4) -0.1919(5)
H28A H 0.6997 0.3255 -0.1488
C38 C -0.0588(10) -0.5140(10) -0.1084(7)
H29 H -0.0824 -0.5321 -0.1501
C39 C -0.0383(9) -0.5802(9) -0.0641(7)
H30 H -0.0461 -0.6390 -0.0727
C40 C -0.0025(9) -0.5401(7) -0.0027(7)
C41 C 0.0211(9) -0.6089(10) 0.0412(8)
H31 H 0.0179 -0.6676 0.0323
C42 C 0.0497(9) -0.5716(9) 0.0999(7)
H32 H 0.0632 -0.6070 0.1346
C38B C 0.0588(10) -0.4860(10) 0.1084(7)
H29B H 0.0824 -0.4679 0.1501
C39B C 0.0383(9) -0.4198(9) 0.0641(7)
H30B H 0.0461 -0.3610 0.0727
C40B C 0.0025(9) -0.4599(7) 0.0027(7)
C41B C -0.0211(9) -0.3911(10) -0.0412(8)
H31B H -0.0179 -0.3324 -0.0323
C42B C -0.0497(9) -0.4284(9) -0.0999(7)
H32B H -0.0632 -0.3930 -0.1346
C43 C 0.0516(10) -0.6354(8) -0.2275(7)
H33 H 0.0866 -0.6876 -0.2114
C44 C 0.1067(9) -0.5602(9) -0.2046(5)
H34 H 0.1794 -0.5610 -0.1740
C45 C 0.0530(6) -0.4812(8) -0.2275(4)
C46 C 0.1042(9) -0.4000(9) -0.2056(5)
H35 H 0.1768 -0.3984 -0.1748
C47 C 0.0515(8) -0.3266(8) -0.2279(6)
H36 H 0.0871 -0.2744 -0.2123
C43A C -0.0516(10) -0.6354(8) -0.2725(7)
H33A H -0.0866 -0.6876 -0.2886
C44A C -0.1067(9) -0.5602(9) -0.2954(5)
H34A H -0.1794 -0.5610 -0.3260
C45A C -0.0530(6) -0.4812(8) -0.2725(4)
C46A C -0.1042(9) -0.4000(9) -0.2944(5)
H35A H -0.1768 -0.3984 -0.3252
C47A C -0.0515(8) -0.3266(8) -0.2721(6)
H36A H -0.0871 -0.2744 -0.2877
C48 C 0.5620(8) -0.5189(9) 0.0844(5)
H37 H 0.5909 -0.4876 0.1219
C49 C 0.5605(7) -0.6025(9) 0.0881(5)
H38 H 0.5889 -0.6292 0.1275
C50 C 0.5172(7) -0.6518(8) 0.0339(5)
H39 H 0.5166 -0.7117 0.0368
C51 C 0.4765(8) -0.6143(9) -0.0222(5)
H40 H 0.4471 -0.6482 -0.0585
C52 C 0.4768(7) -0.5262(9) -0.0280(4)
C48B C 0.4380(8) -0.4811(9) -0.0844(5)
H37B H 0.4091 -0.5124 -0.1219
C49B C 0.4395(7) -0.3975(9) -0.0881(5)
H38B H 0.4111 -0.3708 -0.1275
C50B C 0.4828(7) -0.3482(8) -0.0339(5)
H39B H 0.4834 -0.2883 -0.0368
C51B C 0.5235(8) -0.3857(9) 0.0222(5)
H40B H 0.5529 -0.3518 0.0585
C52B C 0.5232(7) -0.4738(9) 0.0280(4)
loop_
_geom_bond_atom_site_label_1
_geom_bond_atom_site_label_2
_geom_bond_site_symmetry_1
_geom_bond_site_symmetry_2
Fe1 N1 1_555 1_555
C1 H1 1_555 1_555
C2 C1 1_555 1_555
H2 C2 1_555 1_555
C3 C2 1_555 1_555
C4 C3 1_555 1_555
H3 C4 1_555 1_555
C5 C4 1_555 1_555
H4 C5 1_555 1_555
C6 C3 1_555 1_555
H5 C6 1_555 1_555
C7 H6 1_555 1_555
C8 C7 1_555 1_555
C9 C8 1_555 1_555
H7 C9 1_555 1_555
C10 C9 1_555 1_555
H8 C10 1_555 1_555
C11 H9 1_555 1_555
C12 C8 1_555 1_555
H10 C12 1_555 1_555
N1 C1 1_555 1_555
N2 C6 1_555 1_555
N3 C7 1_555 1_555
N4 C10 1_555 1_555
C13 H11 1_555 1_555
C14 C13 1_555 1_555
H12 C14 1_555 1_555
C15 C14 1_555 1_555
C16 C15 1_555 1_555
H13 C16 1_555 1_555
C17 C16 1_555 1_555
H14 C17 1_555 1_555
C18 C15 1_555 1_555
H15 C18 1_555 1_555
C19 H16 1_555 1_555
C20 C19 1_555 1_555
C21 C20 1_555 1_555
H17 C21 1_555 1_555
C22 C21 1_555 1_555
H18 C22 1_555 1_555
C23 H19 1_555 1_555
C24 C20 1_555 1_555
H20 C24 1_555 1_555
N5 Fe1 1_555 1_555
N6 C18 1_555 1_555
N7 C19 1_555 1_555
N8 Fe1 1_555 1_555
C25 N9 1_555 1_555
N9 Fe1 1_555 1_555
S1 C25 1_555 1_555
C26 N10 1_555 1_555
N10 Fe1 1_555 1_555
S2 C26 1_555 1_555
C27 H21 1_555 1_555
C28 C27 1_555 1_555
H22 C28 1_555 1_555
C29 C28 1_555 1_555
H23 C29 1_555 1_555
C30 C29 1_555 1_555
C31 C30 1_555 1_555
C32 C31 1_555 1_555
H24 C32 1_555 1_555
C33 C34 1_555 1_555
C34 H25 1_555 1_555
C35 C34 1_555 1_555
H26 C35 1_555 1_555
C36 C35 1_555 1_555
H27 C36 1_555 1_555
C37 C36 1_555 1_555
H28 C37 1_555 1_555
C38 H29 1_555 1_555
C39 C38 1_555 1_555
H30 C39 1_555 1_555
C40 C39 1_555 1_555
C41 C40 1_555 1_555
H31 C41 1_555 1_555
C42 C41 1_555 1_555
H32 C42 1_555 1_555
C43 H33 1_555 1_555
C44 C43 1_555 1_555
H34 C44 1_555 1_555
C45 C44 1_555 1_555
C46 C45 1_555 1_555
H35 C46 1_555 1_555
C47 C46 1_555 1_555
H36 C47 1_555 1_555
C48 H37 1_555 1_555
C49 C48 1_555 1_555
H38 C49 1_555 1_555
C50 C49 1_555 1_555
H39 C50 1_555 1_555
C51 C50 1_555 1_555
H40 C51 1_555 1_555
C52 C51 1_555 1_555
C13A H11A 1_555 1_555
C14A C13A 1_555 1_555
H12A C14A 1_555 1_555
C15A C14A 1_555 1_555
C16A C15A 1_555 1_555
H13A C16A 1_555 1_555
C17A C16A 1_555 1_555
H14A C17A 1_555 1_555
C18A C15A 1_555 1_555
H15A C18A 1_555 1_555
N5A C13A 1_555 1_555
N6A N6 1_555 1_555
C19A H16A 1_555 1_555
C20A C19A 1_555 1_555
C21A C20A 1_555 1_555
H17A C21A 1_555 1_555
C22A C21A 1_555 1_555
H18A C22A 1_555 1_555
C23A H19A 1_555 1_555
C24A C20A 1_555 1_555
H20A C24A 1_555 1_555
N7A N7 1_555 1_555
N8A C22A 1_555 1_555
Fe1A N5A 1_555 1_555
C1A H1A 1_555 1_555
C2A C1A 1_555 1_555
H2A C2A 1_555 1_555
C3A C2A 1_555 1_555
C4A C3A 1_555 1_555
H3A C4A 1_555 1_555
C5A C4A 1_555 1_555
H4A C5A 1_555 1_555
C6A C3A 1_555 1_555
H5A C6A 1_555 1_555
C7A H6A 1_555 1_555
C8A C7A 1_555 1_555
C9A C8A 1_555 1_555
H7A C9A 1_555 1_555
C10A C9A 1_555 1_555
H8A C10A 1_555 1_555
C11A H9A 1_555 1_555
C12A C8A 1_555 1_555
H10A C12A 1_555 1_555
N1A Fe1A 1_555 1_555
N2A C6A 1_555 1_555
N3A C7A 1_555 1_555
N4A C10A 1_555 1_555
C25A N9A 1_555 1_555
N9A Fe1A 1_555 1_555
S1A C25A 1_555 1_555
C26A N10A 1_555 1_555
N10A Fe1A 1_555 1_555
S2A C26A 1_555 1_555
Fe1_2 N4 1_555 1_555
Fe1A_2 N4A 1_555 1_555
Fe1A_3 N8A 1_555 1_555
N4_2 Fe1 1_555 1_555
N4A_2 Fe1A 1_555 1_555
N8A_2 Fe1A 1_555 1_555
C27A C32 1_555 1_555
H21A C27A 1_555 1_555
C28A C27A 1_555 1_555
H22A C28A 1_555 1_555
C29A C30 1_555 1_555
H23A C29A 1_555 1_555
C32A C27 1_555 1_555
H24A C32A 1_555 1_555
C33A C33 1_555 1_555
C34A C33A 1_555 1_555
H25A C34A 1_555 1_555
C35A C34A 1_555 1_555
H26A C35A 1_555 1_555
C36A C35A 1_555 1_555
H27A C36A 1_555 1_555
C37A C33 1_555 1_555
H28A C37A 1_555 1_555
C38B C42 1_555 1_555
H29B C38B 1_555 1_555
C39B C38B 1_555 1_555
H30B C39B 1_555 1_555
C40B C40 1_555 1_555
C41B C40B 1_555 1_555
H31B C41B 1_555 1_555
C42B C38 1_555 1_555
H32B C42B 1_555 1_555
C43A C43 1_555 1_555
H33A C43A 1_555 1_555
C44A C43A 1_555 1_555
H34A C44A 1_555 1_555
C45A C45 1_555 1_555
C46A C45A 1_555 1_555
H35A C46A 1_555 1_555
C47A C47 1_555 1_555
H36A C47A 1_555 1_555
C48B C52 1_555 1_555
H37B C48B 1_555 1_555
C49B C48B 1_555 1_555
H38B C49B 1_555 1_555
C50B C49B 1_555 1_555
H39B C50B 1_555 1_555
C51B C50B 1_555 1_555
H40B C51B 1_555 1_555
C52B C48 1_555 1_555
C5 N1 1_555 1_555
C11 C12 1_555 1_555
C11 N4 1_555 1_555
N2 N3 1_555 1_555
C13 N5 1_555 1_555
C17 N5 1_555 1_555
C22 N8 1_555 1_555
C23 C24 1_555 1_555
C23 N8 1_555 1_555
C31 C32A 1_555 1_555
C37 C33A 1_555 1_555
C52 C52B 1_555 1_555
C17A N5A 1_555 1_555
C18A N6A 1_555 1_555
C19A N7A 1_555 1_555
C23A C24A 1_555 1_555
C23A N8A 1_555 1_555
C1A N1A 1_555 1_555
C5A N1A 1_555 1_555
C11A C12A 1_555 1_555
C11A N4A 1_555 1_555
N2A N3A 1_555 1_555
C28A C29A 1_555 1_555
C36A C37A 1_555 1_555
C39B C40B 1_555 1_555
C41B C42B 1_555 1_555
C44A C45A 1_555 1_555
C46A C47A 1_555 1_555
C51B C52B 1_555 1_555

#END
