
#######################################################################
#
#                 Cambridge Crystallographic Data Centre
#                                CCDC 
#
#######################################################################
#
# If this CIF has been generated from an entry in the Cambridge 
# Structural Database, then it will include bibliographic, chemical, 
# crystal, experimental, refinement or atomic coordinate data resulting 
# from the CCDC's data processing and validation procedures.
#
#######################################################################

data_CICSOW
_symmetry_cell_setting           rhombohedral
_symmetry_space_group_name_H-M   'R -3'
_symmetry_Int_Tables_number      148
_space_group_name_Hall           '-R 3'
loop_
_symmetry_equiv_pos_site_id
_symmetry_equiv_pos_as_xyz
1 x,y,z
2 1/3+x,2/3+y,2/3+z
3 2/3+x,1/3+y,1/3+z
4 -y,x-y,z
5 2/3-y,1/3+x-y,1/3+z
6 -x+y,-x,z
7 2/3-x+y,1/3-x,1/3+z
8 1/3-y,2/3+x-y,2/3+z
9 1/3-x+y,2/3-x,2/3+z
10 -x,-y,-z
11 2/3-x,1/3-y,1/3-z
12 1/3-x,2/3-y,2/3-z
13 y,-x+y,-z
14 1/3+y,2/3-x+y,2/3-z
15 x-y,x,-z
16 1/3+x-y,2/3+x,2/3-z
17 2/3+y,1/3-x+y,1/3-z
18 2/3+x-y,1/3+x,1/3-z
_cell_length_a                   11.030
_cell_length_b                   11.030
_cell_length_c                   33.008
_cell_angle_alpha                90
_cell_angle_beta                 90
_cell_angle_gamma                120
_cell_volume                     3477.77
loop_
_atom_site_label
_atom_site_type_symbol
_atom_site_fract_x
_atom_site_fract_y
_atom_site_fract_z
Fe1 Fe 0.0000 0.0000 0.0000
Fe2 Fe -0.3333 0.3333 -0.1667
N1 N 0.1692(5) 0.0554(5) 0.0340(1)
N2 N 0.2434(5) 0.1808(5) 0.0554(2)
N3 N 0.3203(5) 0.0407(5) 0.0715(1)
N4 N 0.3841(5) -0.0198(5) 0.0919(1)
N5 N 0.5030(5) -0.1252(5) 0.1022(1)
N6 N 0.4005(5) -0.1647(5) 0.1318(1)
C1 C 0.2175(6) -0.0245(6) 0.0438(2)
C2 C 0.3325(7) 0.1684(6) 0.0779(2)
C3 C 0.4881(7) -0.0405(7) 0.0784(2)
C4 C 0.3317(7) -0.1001(6) 0.1254(2)
H1 H 0.192(6) -0.114(7) 0.030(2)
H2 H 0.398(6) 0.238(6) 0.094(2)
H3 H 0.531(8) -0.005(7) 0.058(2)
H4 H 0.260(6) -0.098(5) 0.139(2)
N1C N -0.0554(5) 0.1138(7) 0.0340(1)
N2C N -0.1808(5) 0.0626(7) 0.0554(2)
N3C N -0.0407(5) 0.2796(7) 0.0715(1)
N4C N 0.0198(5) 0.4039(7) 0.0919(1)
N5C N 0.1252(5) 0.6282(7) 0.1022(1)
N6C N 0.1647(5) 0.5652(7) 0.1318(1)
C1C C 0.0245(6) 0.2420(8) 0.0438(2)
C2C C -0.1684(6) 0.1641(9) 0.0779(2)
C3C C 0.0405(7) 0.5286(10) 0.0784(2)
C4C C 0.1001(6) 0.4318(9) 0.1254(2)
H1C H 0.114(7) 0.306(9) 0.030(2)
H2C H -0.238(6) 0.160(8) 0.094(2)
H3C H 0.005(7) 0.536(11) 0.058(2)
H4C H 0.098(5) 0.358(8) 0.139(2)
N1E N -0.1138(7) -0.1692(5) 0.0340(1)
N1I N -0.1692(5) -0.0554(5) -0.0340(1)
N2I N -0.2434(5) -0.1808(5) -0.0554(2)
N3I N -0.3203(5) -0.0407(5) -0.0715(1)
N4I N -0.3841(5) 0.0198(5) -0.0919(1)
N5I N -0.5030(5) 0.1252(5) -0.1022(1)
N6I N -0.4005(5) 0.1647(5) -0.1318(1)
C1I C -0.2175(6) 0.0245(6) -0.0438(2)
C2I C -0.3325(7) -0.1684(6) -0.0779(2)
C3I C -0.4881(7) 0.0405(7) -0.0784(2)
C4I C -0.3317(7) 0.1001(6) -0.1254(2)
H1I H -0.192(6) 0.114(7) -0.030(2)
H2I H -0.398(6) -0.238(6) -0.094(2)
H3I H -0.531(8) 0.005(7) -0.058(2)
H4I H -0.260(6) 0.098(5) -0.139(2)
N1L N 0.0554(5) -0.1138(7) -0.0340(1)
N1N N 0.1138(7) 0.1692(5) -0.0340(1)
Fe2B Fe 0.3334 0.6666 0.1666
Fe2B_2 Fe 0.3334 -0.3334 0.1666
N1L_2 N 0.0554(5) 0.8862(7) -0.0340(1)
N2L N 0.1808(5) 0.9374(7) -0.0554(2)
N3L N 0.0407(5) 0.7204(7) -0.0715(1)
N4L N -0.0198(5) 0.5961(7) -0.0919(1)
N5L N -0.1252(5) 0.3718(7) -0.1022(1)
N6L N -0.1647(5) 0.4348(7) -0.1318(1)
C1L C -0.0245(6) 0.7580(8) -0.0438(2)
C2L C 0.1684(6) 0.8359(9) -0.0779(2)
C3L C -0.0405(7) 0.4714(10) -0.0784(2)
C4L C -0.1001(6) 0.5682(9) -0.1254(2)
H1L H -0.114(7) 0.694(9) -0.030(2)
H2L H 0.238(6) 0.840(8) -0.094(2)
H3L H -0.005(7) 0.464(11) -0.058(2)
H4L H -0.098(5) 0.642(8) -0.139(2)
N1G N -0.7221(5) -0.2195(7) -0.2993(1)
N2G N -0.8475(5) -0.2707(7) -0.2779(2)
N3G N -0.7074(5) -0.0537(7) -0.2618(1)
N4G N -0.6469(5) 0.0706(7) -0.2414(1)
N5G N -0.5415(5) 0.2949(7) -0.2311(1)
N6G N -0.5020(5) 0.2319(7) -0.2015(1)
C1G C -0.6422(6) -0.0913(8) -0.2895(2)
C2G C -0.8351(6) -0.1692(9) -0.2554(2)
C3G C -0.6262(7) 0.1953(10) -0.2549(2)
C4G C -0.5666(6) 0.0985(9) -0.2079(2)
H1G H -0.553(7) -0.027(9) -0.303(2)
H2G H -0.905(6) -0.173(8) -0.239(2)
H3G H -0.662(7) 0.203(11) -0.275(2)
H4G H -0.569(5) 0.025(8) -0.194(2)
N1N_2 N -0.8862(7) 0.1692(5) -0.0340(1)
N2N N -0.9374(7) 0.2434(5) -0.0554(2)
N3N N -0.7204(7) 0.3203(5) -0.0715(1)
N4N N -0.5961(7) 0.3841(5) -0.0919(1)
N5N N -0.3718(7) 0.5030(5) -0.1022(1)
N6N N -0.4348(7) 0.4005(5) -0.1318(1)
C1N C -0.7580(8) 0.2175(6) -0.0438(2)
C2N C -0.8359(9) 0.3325(7) -0.0779(2)
C3N C -0.4714(10) 0.4881(7) -0.0784(2)
C4N C -0.5682(9) 0.3317(7) -0.1254(2)
H1N H -0.694(9) 0.192(6) -0.030(2)
H2N H -0.840(8) 0.398(6) -0.094(2)
H3N H -0.464(11) 0.531(8) -0.058(2)
H4N H -0.642(8) 0.260(6) -0.139(2)
N6H N -0.2319(7) 0.2662(5) -0.2015(1)
N6A N -0.2662(5) 0.5020(5) -0.2015(1)
Fe1L Fe 0.0000 1.0000 0.0000
Fe1G Fe -0.6667 -0.3333 -0.3333
Fe1N Fe -1.0000 0.0000 0.0000
Cl1 Cl 0.0000 0.0000 0.16633(9)
O1 O 0.0333(7) 0.1355(6) 0.1806(2)
O2 O 0.0000 0.0000 0.1227(3)
O1C O -0.1355(6) -0.1022(9) 0.1806(2)
O1E O 0.1022(9) -0.0333(7) 0.1806(2)
Cl2 Cl 0.6667 0.3333 0.01344(9)
O3 O 0.6667 0.3333 0.0574(3)
O4 O 0.665(2) 0.212(1) -0.0012(3)
O4C O 0.788(1) 0.453(2) -0.0012(3)
O4E O 0.547(2) 0.335(2) -0.0012(3)
O5? O 0.562(4) 0.209(3) 0.0006(7)
loop_
_geom_bond_atom_site_label_1
_geom_bond_atom_site_label_2
_geom_bond_site_symmetry_1
_geom_bond_site_symmetry_2
Fe1 N1 1_555 1_555
Fe2 N6I 1_555 1_555
N1 N2 1_555 1_555
N2 C2 1_555 1_555
N3 N4 1_555 1_555
N4 C3 1_555 1_555
N5 N6 1_555 1_555
N6 C4 1_555 1_555
C1 N1 1_555 1_555
C2 N3 1_555 1_555
C3 N5 1_555 1_555
C4 N4 1_555 1_555
H1 C1 1_555 1_555
H2 C2 1_555 1_555
H3 C3 1_555 1_555
H4 C4 1_555 1_555
Cl1 O1 1_555 1_555
O2 Cl1 1_555 1_555
Cl2 O3 1_555 1_555
O4 Cl2 1_555 1_555
N1C Fe1 1_555 1_555
N2C N1C 1_555 1_555
N3C N4C 1_555 1_555
N4C C3C 1_555 1_555
N5C N6C 1_555 1_555
N6C C4C 1_555 1_555
C1C N1C 1_555 1_555
C2C N2C 1_555 1_555
C3C N5C 1_555 1_555
C4C N4C 1_555 1_555
H1C C1C 1_555 1_555
H2C C2C 1_555 1_555
H3C C3C 1_555 1_555
H4C C4C 1_555 1_555
N1E Fe1 1_555 1_555
N1I Fe1 1_555 1_555
N2I N1I 1_555 1_555
N3I N4I 1_555 1_555
N4I C3I 1_555 1_555
N5I N6I 1_555 1_555
N6I C4I 1_555 1_555
C1I N1I 1_555 1_555
C2I N2I 1_555 1_555
C3I N5I 1_555 1_555
C4I N4I 1_555 1_555
H1I C1I 1_555 1_555
H2I C2I 1_555 1_555
H3I C3I 1_555 1_555
H4I C4I 1_555 1_555
N1L Fe1 1_555 1_555
N1N Fe1 1_555 1_555
Fe2B N6C 1_555 1_555
Fe2B_2 N6 1_555 1_555
N1L_2 N2L 1_555 1_555
N2L C2L 1_555 1_555
N3L N4L 1_555 1_555
N4L C3L 1_555 1_555
N5L N6L 1_555 1_555
N6L Fe2 1_555 1_555
C1L N1L_2 1_555 1_555
C2L N3L 1_555 1_555
C3L N5L 1_555 1_555
C4L N4L 1_555 1_555
H1L C1L 1_555 1_555
H2L C2L 1_555 1_555
H3L C3L 1_555 1_555
H4L C4L 1_555 1_555
N1G N2G 1_555 1_555
N2G C2G 1_555 1_555
N3G N4G 1_555 1_555
N4G C3G 1_555 1_555
N5G N6G 1_555 1_555
N6G Fe2 1_555 1_555
C1G N1G 1_555 1_555
C2G N3G 1_555 1_555
C3G N5G 1_555 1_555
C4G N4G 1_555 1_555
H1G C1G 1_555 1_555
H2G C2G 1_555 1_555
H3G C3G 1_555 1_555
H4G C4G 1_555 1_555
N1N_2 N2N 1_555 1_555
N2N C2N 1_555 1_555
N3N N4N 1_555 1_555
N4N C3N 1_555 1_555
N5N N6N 1_555 1_555
N6N Fe2 1_555 1_555
C1N N1N_2 1_555 1_555
C2N N3N 1_555 1_555
C3N N5N 1_555 1_555
C4N N4N 1_555 1_555
H1N C1N 1_555 1_555
H2N C2N 1_555 1_555
H3N C3N 1_555 1_555
H4N C4N 1_555 1_555
N6H Fe2 1_555 1_555
N6A Fe2 1_555 1_555
Fe1L N1L_2 1_555 1_555
Fe1G N1G 1_555 1_555
Fe1N N1N_2 1_555 1_555
O1C Cl1 1_555 1_555
O1E Cl1 1_555 1_555
O4C Cl2 1_555 1_555
O4E Cl2 1_555 1_555
N3 C1 1_555 1_555
N3C C1C 1_555 1_555
N3C C2C 1_555 1_555
N3I C1I 1_555 1_555
N3I C2I 1_555 1_555
N3L C1L 1_555 1_555
N6L C4L 1_555 1_555
N3G C1G 1_555 1_555
N6G C4G 1_555 1_555
N3N C1N 1_555 1_555
N6N C4N 1_555 1_555

#END
