
#######################################################################
#
#                 Cambridge Crystallographic Data Centre
#                                CCDC 
#
#######################################################################
#
# If this CIF has been generated from an entry in the Cambridge 
# Structural Database, then it will include bibliographic, chemical, 
# crystal, experimental, refinement or atomic coordinate data resulting 
# from the CCDC's data processing and validation procedures.
#
#######################################################################

data_CICVER
_symmetry_cell_setting           monoclinic
_symmetry_space_group_name_H-M   'P 21/n'
_symmetry_Int_Tables_number      14
_space_group_name_Hall           '-P 2yn'
loop_
_symmetry_equiv_pos_site_id
_symmetry_equiv_pos_as_xyz
1 x,y,z
2 1/2-x,1/2+y,1/2-z
3 -x,-y,-z
4 1/2+x,1/2-y,1/2+z
_cell_length_a                   9.565(4)
_cell_length_b                   26.466(10)
_cell_length_c                   11.532(4)
_cell_angle_alpha                90
_cell_angle_beta                 93.474(4)
_cell_angle_gamma                90
_cell_volume                     2913.93
loop_
_atom_site_label
_atom_site_type_symbol
_atom_site_fract_x
_atom_site_fract_y
_atom_site_fract_z
Mn1 Mn 0.5000 0.0000 1.0000
Mn2 Mn 0.11181(3) 0.091367(13) 0.94942(3)
Mn3 Mn 0.27871(4) -0.116801(13) 1.06419(3)
O1 O 0.32990(15) -0.05362(6) 0.95262(14)
O2 O 0.08881(16) -0.07428(6) 0.98359(14)
O3 O 0.14016(18) 0.01440(6) 0.90762(15)
O4 O 0.07041(17) 0.16658(6) 1.01634(16)
O5 O -0.0283(2) 0.25349(7) 0.97107(15)
H1 H -0.0288 0.2487 0.9008
O6 O -0.19524(17) 0.18229(7) 1.00319(16)
O7 O 0.44912(17) 0.04344(6) 0.85413(13)
O8 O 0.53987(16) 0.13237(6) 0.84115(14)
O9 O 0.28208(16) 0.11842(6) 0.86068(14)
N1 N 0.1693(2) -0.10928(9) 0.22677(18)
N2 N 0.0255(2) -0.10402(8) 0.22565(17)
N3 N 0.1128(2) -0.09963(9) 0.40592(17)
N4 N -0.0295(2) 0.26173(9) 1.7293(2)
N5 N -0.0734(3) 0.30884(9) 1.6939(2)
N6 N -0.0455(2) 0.26314(8) 1.53871(18)
N7 N 0.3557(2) 0.04402(8) 0.12491(17)
N8 N 0.2493(2) 0.07946(8) 0.11416(16)
N9 N 0.3226(2) 0.07501(8) 0.29693(16)
P1 P 0.17778(6) -0.04013(2) 0.91112(5)
P2 P -0.04948(7) 0.20129(2) 1.03530(6)
P3 P 0.41525(6) 0.09708(2) 0.81725(5)
C1 C 0.1570(2) -0.06185(9) 0.76190(19)
C2 C 0.2473(3) -0.09633(11) 0.7144(2)
H2 H 0.3195 -0.1104 0.7615
C3 C 0.2321(3) -0.11024(12) 0.5981(2)
H3 H 0.2930 -0.1334 0.5675
C4 C 0.1253(3) -0.08910(10) 0.5290(2)
C5 C 0.0316(3) -0.05607(10) 0.5737(2)
H4 H -0.0421 -0.0431 0.5265
C6 C 0.0481(3) -0.04234(10) 0.6896(2)
H5 H -0.0147 -0.0197 0.7198
C7 C -0.0050(3) -0.09829(10) 0.3333(2)
H6 H -0.0952 -0.0939 0.3575
C8 C 0.2188(3) -0.10668(12) 0.3347(2)
H7 H 0.3130 -0.1093 0.3591
C9 C -0.0452(2) 0.22067(9) 1.1859(2)
C10 C 0.0780(3) 0.22381(11) 1.2539(2)
H8 H 0.1621 0.2167 1.2209
C11 C 0.0798(3) 0.23732(12) 1.3705(2)
H9 H 0.1639 0.2391 1.4151
C12 C -0.0442(3) 0.24802(10) 1.4184(2)
C13 C -0.1689(3) 0.24673(14) 1.3522(3)
H10 H -0.2524 0.2555 1.3843
C14 C -0.1678(3) 0.23213(13) 1.2370(3)
H11 H -0.2523 0.2300 1.1928
C15 C -0.0844(3) 0.30831(11) 1.5807(2)
H12 H -0.1151 0.3355 1.5348
C16 C -0.0143(3) 0.23554(11) 1.6347(2)
H13 H 0.0145 0.2020 1.6340
C17 C 0.3861(2) 0.09257(9) 0.65967(19)
C18 C 0.3533(2) 0.04580(9) 0.6101(2)
H14 H 0.3457 0.0178 0.6580
C19 C 0.3318(3) 0.04007(9) 0.4908(2)
H15 H 0.3123 0.0084 0.4586
C20 C 0.3398(2) 0.08203(9) 0.42066(19)
C21 C 0.3691(3) 0.12927(10) 0.4664(2)
H16 H 0.3735 0.1573 0.4181
C22 C 0.3921(3) 0.13417(9) 0.5861(2)
H17 H 0.4118 0.1659 0.6177
C23 C 0.2332(3) 0.09752(9) 0.2178(2)
H18 H 0.1690 0.1224 0.2348
C24 C 0.3950(3) 0.04194(11) 0.2349(2)
H19 H 0.4641 0.0204 0.2666
Mn2B Mn -0.11181(3) -0.091367(13) 0.05058(3)
Mn3B Mn -0.27871(4) 0.116801(13) -0.06419(3)
O1B O -0.32990(15) 0.05362(6) 0.04738(14)
O2B O -0.08881(16) 0.07428(6) 0.01641(14)
O3B O -0.14016(18) -0.01440(6) 0.09238(15)
O4B O -0.07041(17) -0.16658(6) -0.01634(16)
O5B O 0.0283(2) -0.25349(7) 0.02893(15)
H1B H 0.0288 -0.2487 0.0992
O6B O 0.19524(17) -0.18229(7) -0.00319(16)
O7B O -0.44912(17) -0.04344(6) 0.14587(13)
O8B O -0.53987(16) -0.13237(6) 0.15885(14)
O9B O -0.28208(16) -0.11842(6) 0.13932(14)
N1B N -0.1693(2) 0.10928(9) 0.77323(18)
N2B N -0.0255(2) 0.10402(8) 0.77435(17)
N3B N -0.1128(2) 0.09963(9) 0.59408(17)
N4B N 0.0295(2) -0.26173(9) -0.7293(2)
N5B N 0.0734(3) -0.30884(9) -0.6939(2)
N6B N 0.0455(2) -0.26314(8) -0.53871(18)
N7B N -0.3557(2) -0.04402(8) 0.87509(17)
N8B N -0.2493(2) -0.07946(8) 0.88584(16)
N9B N -0.3226(2) -0.07501(8) 0.70307(16)
P1B P -0.17778(6) 0.04013(2) 0.08888(5)
P2B P 0.04948(7) -0.20129(2) -0.03530(6)
P3B P -0.41525(6) -0.09708(2) 0.18275(5)
C1B C -0.1570(2) 0.06185(9) 0.23810(19)
C2B C -0.2473(3) 0.09633(11) 0.2856(2)
H2B H -0.3195 0.1104 0.2385
C3B C -0.2321(3) 0.11024(12) 0.4019(2)
H3B H -0.2930 0.1334 0.4325
C4B C -0.1253(3) 0.08910(10) 0.4710(2)
C5B C -0.0316(3) 0.05607(10) 0.4263(2)
H4B H 0.0421 0.0431 0.4735
C6B C -0.0481(3) 0.04234(10) 0.3104(2)
H5B H 0.0147 0.0197 0.2802
C7B C 0.0050(3) 0.09829(10) 0.6667(2)
H6B H 0.0952 0.0939 0.6425
C8B C -0.2188(3) 0.10668(12) 0.6653(2)
H7B H -0.3130 0.1093 0.6409
C9B C 0.0452(2) -0.22067(9) -0.1859(2)
C10B C -0.0780(3) -0.22381(11) -0.2539(2)
H8B H -0.1621 -0.2167 -0.2209
C11B C -0.0798(3) -0.23732(12) -0.3705(2)
H9B H -0.1639 -0.2391 -0.4151
C12B C 0.0442(3) -0.24802(10) -0.4184(2)
C13B C 0.1689(3) -0.24673(14) -0.3522(3)
H10B H 0.2524 -0.2555 -0.3843
C14B C 0.1678(3) -0.23213(13) -0.2370(3)
H11B H 0.2523 -0.2300 -0.1928
C15B C 0.0844(3) -0.30831(11) -0.5807(2)
H12B H 0.1151 -0.3355 -0.5348
C16B C 0.0143(3) -0.23554(11) -0.6347(2)
H13B H -0.0145 -0.2020 -0.6340
C17B C -0.3861(2) -0.09257(9) 0.34033(19)
C18B C -0.3533(2) -0.04580(9) 0.3899(2)
H14B H -0.3457 -0.0178 0.3420
C19B C -0.3318(3) -0.04007(9) 0.5092(2)
H15B H -0.3123 -0.0084 0.5414
C20B C -0.3398(2) -0.08203(9) 0.57934(19)
C21B C -0.3691(3) -0.12927(10) 0.5336(2)
H16B H -0.3735 -0.1573 0.5819
C22B C -0.3921(3) -0.13417(9) 0.4139(2)
H17B H -0.4118 -0.1659 0.3823
C23B C -0.2332(3) -0.09752(9) 0.7822(2)
H18B H -0.1690 -0.1224 0.7652
C24B C -0.3950(3) -0.04194(11) 0.7651(2)
H19B H -0.4641 -0.0204 0.7334
Mn1_2 Mn -0.5000 0.0000 0.0000
Mn1_3 Mn -0.5000 0.0000 1.0000
Mn1_4 Mn 0.5000 0.0000 0.0000
Mn2_2 Mn 0.11181(3) 0.091367(13) -0.05058(3)
Mn2B_2 Mn -0.11181(3) -0.091367(13) 1.05058(3)
Mn3_2 Mn -0.72129(4) -0.116801(13) 0.06419(3)
Mn3_3 Mn 0.27871(4) -0.116801(13) 0.06419(3)
Mn3B_2 Mn -0.27871(4) 0.116801(13) 0.93581(3)
Mn3B_3 Mn 0.72129(4) 0.116801(13) 0.93581(3)
O1B_2 O 0.67010(15) 0.05362(6) 1.04738(14)
O2_2 O 0.08881(16) -0.07428(6) -0.01641(14)
O2B_2 O -0.08881(16) 0.07428(6) 1.01641(14)
O6_2 O -0.19524(17) 0.18229(7) 0.00319(16)
O6B_2 O 0.19524(17) -0.18229(7) 0.99681(16)
O7B_2 O 0.55088(17) -0.04344(6) 1.14587(13)
O8_2 O -0.46013(16) 0.13237(6) -0.15885(14)
O8B_2 O 0.46013(16) -0.13237(6) 1.15885(14)
N1_2 N 0.1693(2) -0.10928(9) 1.22677(18)
N1B_2 N -0.1693(2) 0.10928(9) -0.22677(18)
N7_2 N 0.3557(2) 0.04402(8) 1.12491(17)
N7B_2 N 0.6443(2) -0.04402(8) 0.87509(17)
N8_2 N 0.2493(2) 0.07946(8) 1.11416(16)
N8B_2 N -0.2493(2) -0.07946(8) -0.11416(16)
loop_
_geom_bond_atom_site_label_1
_geom_bond_atom_site_label_2
_geom_bond_site_symmetry_1
_geom_bond_site_symmetry_2
Mn1 O1 1_555 1_555
Mn2 O3 1_555 1_555
Mn3 O1 1_555 1_555
O1 P1 1_555 1_555
O2 Mn3 1_555 1_555
O3 P1 1_555 1_555
O4 Mn2 1_555 1_555
O5 H1 1_555 1_555
O6 P2 1_555 1_555
O7 Mn1 1_555 1_555
O8 P3 1_555 1_555
O9 Mn2 1_555 1_555
N1 N2 1_555 1_555
N2 C7 1_555 1_555
N3 C4 1_555 1_555
N4 N5 1_555 1_555
N5 C15 1_555 1_555
N6 C12 1_555 1_555
N7 N8 1_555 1_555
N8 C23 1_555 1_555
N9 C20 1_555 1_555
P1 O2 1_555 1_555
P2 O4 1_555 1_555
P3 O7 1_555 1_555
C1 P1 1_555 1_555
C2 C1 1_555 1_555
H2 C2 1_555 1_555
C3 C2 1_555 1_555
H3 C3 1_555 1_555
C4 C3 1_555 1_555
C5 C4 1_555 1_555
H4 C5 1_555 1_555
C6 C1 1_555 1_555
H5 C6 1_555 1_555
C7 N3 1_555 1_555
H6 C7 1_555 1_555
C8 N1 1_555 1_555
H7 C8 1_555 1_555
C9 P2 1_555 1_555
C10 C9 1_555 1_555
H8 C10 1_555 1_555
C11 C10 1_555 1_555
H9 C11 1_555 1_555
C12 C11 1_555 1_555
C13 C12 1_555 1_555
H10 C13 1_555 1_555
C14 C9 1_555 1_555
H11 C14 1_555 1_555
C15 N6 1_555 1_555
H12 C15 1_555 1_555
C16 N4 1_555 1_555
H13 C16 1_555 1_555
C17 P3 1_555 1_555
C18 C17 1_555 1_555
H14 C18 1_555 1_555
C19 C18 1_555 1_555
H15 C19 1_555 1_555
C20 C19 1_555 1_555
C21 C20 1_555 1_555
H16 C21 1_555 1_555
C22 C17 1_555 1_555
H17 C22 1_555 1_555
C23 N9 1_555 1_555
H18 C23 1_555 1_555
C24 N7 1_555 1_555
H19 C24 1_555 1_555
Mn2B N2 1_555 1_555
Mn3B O1B 1_555 1_555
O1B P1B 1_555 1_555
O2B Mn3B 1_555 1_555
O3B Mn2B 1_555 1_555
O4B Mn2B 1_555 1_555
O5B H1B 1_555 1_555
O6B P2B 1_555 1_555
O7B P3B 1_555 1_555
O8B P3B 1_555 1_555
O9B Mn2B 1_555 1_555
N1B N2B 1_555 1_555
N2B Mn2 1_555 1_555
N3B C4B 1_555 1_555
N4B N5B 1_555 1_555
N5B C15B 1_555 1_555
N6B C12B 1_555 1_555
N7B N8B 1_555 1_555
N8B C23B 1_555 1_555
N9B C20B 1_555 1_555
P1B O2B 1_555 1_555
P2B O4B 1_555 1_555
P3B O9B 1_555 1_555
C1B P1B 1_555 1_555
C2B C1B 1_555 1_555
H2B C2B 1_555 1_555
C3B C2B 1_555 1_555
H3B C3B 1_555 1_555
C4B C3B 1_555 1_555
C5B C4B 1_555 1_555
H4B C5B 1_555 1_555
C6B C1B 1_555 1_555
H5B C6B 1_555 1_555
C7B N2B 1_555 1_555
H6B C7B 1_555 1_555
C8B N1B 1_555 1_555
H7B C8B 1_555 1_555
C9B P2B 1_555 1_555
C10B C9B 1_555 1_555
H8B C10B 1_555 1_555
C11B C10B 1_555 1_555
H9B C11B 1_555 1_555
C12B C11B 1_555 1_555
C13B C12B 1_555 1_555
H10B C13B 1_555 1_555
C14B C9B 1_555 1_555
H11B C14B 1_555 1_555
C15B N6B 1_555 1_555
H12B C15B 1_555 1_555
C16B N4B 1_555 1_555
H13B C16B 1_555 1_555
C17B P3B 1_555 1_555
C18B C17B 1_555 1_555
H14B C18B 1_555 1_555
C19B C18B 1_555 1_555
H15B C19B 1_555 1_555
C20B C19B 1_555 1_555
C21B C20B 1_555 1_555
H16B C21B 1_555 1_555
C22B C17B 1_555 1_555
H17B C22B 1_555 1_555
C23B N9B 1_555 1_555
H18B C23B 1_555 1_555
C24B N7B 1_555 1_555
H19B C24B 1_555 1_555
Mn1_2 O1B 1_555 1_555
Mn1_3 N7B 1_555 1_555
Mn1_4 N7 1_555 1_555
Mn2_2 N8 1_555 1_555
Mn2B_2 O2 1_555 1_555
Mn3_2 O8B 1_555 1_555
Mn3_3 N1 1_555 1_555
Mn3B_2 O6 1_555 1_555
Mn3B_3 O8 1_555 1_555
O1B_2 Mn1 1_555 1_555
O2_2 Mn2B 1_555 1_555
O2B_2 Mn2 1_555 1_555
O6_2 Mn3B 1_555 1_555
O6B_2 Mn3 1_555 1_555
O7B_2 Mn1 1_555 1_555
O8_2 Mn3B 1_555 1_555
O8B_2 Mn3 1_555 1_555
N1_2 Mn3 1_555 1_555
N1B_2 Mn3B 1_555 1_555
N7_2 Mn1 1_555 1_555
N7B_2 Mn1 1_555 1_555
N8_2 Mn2 1_555 1_555
N8B_2 Mn2B 1_555 1_555
O5 P2 1_555 1_555
O9 P3 1_555 1_555
N3 C8 1_555 1_555
N6 C16 1_555 1_555
N9 C24 1_555 1_555
C5 C6 1_555 1_555
C13 C14 1_555 1_555
C21 C22 1_555 1_555
O2B Mn2_2 1_555 1_555
O3B P1B 1_555 1_555
O5B P2B 1_555 1_555
O6B Mn3_3 1_555 1_555
O7B Mn1_2 1_555 1_555
N1B Mn3B_2 1_555 1_555
N3B C7B 1_555 1_555
N3B C8B 1_555 1_555
N6B C16B 1_555 1_555
N8B Mn2B_2 1_555 1_555
N9B C24B 1_555 1_555
C5B C6B 1_555 1_555
C13B C14B 1_555 1_555
C21B C22B 1_555 1_555
Mn3_3 O2_2 1_555 1_555
Mn3B_2 O2B_2 1_555 1_555
Mn3B_3 O1B_2 1_555 1_555
N7_2 N8_2 1_555 1_555

#END
