
#######################################################################
#
#                 Cambridge Crystallographic Data Centre
#                                CCDC 
#
#######################################################################
#
# If this CIF has been generated from an entry in the Cambridge 
# Structural Database, then it will include bibliographic, chemical, 
# crystal, experimental, refinement or atomic coordinate data resulting 
# from the CCDC's data processing and validation procedures.
#
#######################################################################

data_CICWAN
_symmetry_cell_setting           monoclinic
_symmetry_space_group_name_H-M   'C 2/c'
_symmetry_Int_Tables_number      15
_space_group_name_Hall           '-C 2yn'
loop_
_symmetry_equiv_pos_site_id
_symmetry_equiv_pos_as_xyz
1 x,y,z
2 1/2+x,1/2+y,z
3 -x,y,1/2-z
4 1/2-x,1/2+y,1/2-z
5 -x,-y,-z
6 1/2-x,1/2-y,-z
7 x,-y,1/2+z
8 1/2+x,1/2-y,1/2+z
_cell_length_a                   19.2178(4)
_cell_length_b                   5.82990(10)
_cell_length_c                   11.9673(2)
_cell_angle_alpha                90
_cell_angle_beta                 112.287(2)
_cell_angle_gamma                90
_cell_volume                     1240.63
loop_
_atom_site_label
_atom_site_type_symbol
_atom_site_fract_x
_atom_site_fract_y
_atom_site_fract_z
Fe1 Fe 0.2500 0.7500 0.5000
S1 S 0.434595(13) 1.25814(3) 0.438911(19)
N1 N 0.32735(3) 0.96206(11) 0.46525(6)
C1 C 0.37188(3) 1.08578(11) 0.45364(6)
C2 C 0.08366(3) 0.90225(11) 0.35208(5)
H1 H 0.0696(8) 0.783(2) 0.3896(13)
C3 C 0.08482(4) 1.20345(13) 0.24436(6)
H2 H 0.0690(7) 1.321(2) 0.1908(12)
N2 N 0.15352(3) 0.94975(10) 0.37225(5)
N3 N 0.15457(3) 1.14245(11) 0.30453(6)
N4 N 0.03860(3) 1.05711(9) 0.27258(5)
O1 O 0.24956(3) 0.53466(10) 0.35707(5)
H3 H 0.2846(10) 0.536(3) 0.3317(17)
H4 H 0.2273(10) 0.408(3) 0.3445(17)
Fe1G Fe -0.2500 0.7500 0.0000
S1E S 0.065405(13) 0.24186(3) 0.561089(19)
N1E N 0.17265(3) 0.53794(11) 0.53475(6)
C1E C 0.12812(3) 0.41422(11) 0.54636(6)
C2B C -0.08366(3) 0.90225(11) 0.14792(5)
H1B H -0.0696(8) 0.783(2) 0.1104(13)
C3B C -0.08482(4) 1.20345(13) 0.25564(6)
H2B H -0.0690(7) 1.321(2) 0.3092(12)
N2B N -0.15352(3) 0.94975(10) 0.12775(5)
N2E N 0.34648(3) 0.55025(10) 0.62775(5)
N3B N -0.15457(3) 1.14245(11) 0.19547(6)
N4B N -0.03860(3) 1.05711(9) 0.22742(5)
O1E O 0.25044(3) 0.96534(10) 0.64293(5)
H3E H 0.2154(10) 0.964(3) 0.6683(17)
H4E H 0.2727(10) 1.092(3) 0.6555(17)
loop_
_geom_bond_atom_site_label_1
_geom_bond_atom_site_label_2
_geom_bond_site_symmetry_1
_geom_bond_site_symmetry_2
Fe1 N1 1_555 1_555
S1 C1 1_555 1_555
N1 C1 1_555 1_555
C2 H1 1_555 1_555
C3 H2 1_555 1_555
N2 Fe1 1_555 1_555
N3 C3 1_555 1_555
N4 C2 1_555 1_555
O1 Fe1 1_555 1_555
H3 O1 1_555 1_555
H4 O1 1_555 1_555
Fe1G N2B 1_555 1_555
S1E C1E 1_555 1_555
N1E Fe1 1_555 1_555
C1E N1E 1_555 1_555
C2B H1B 1_555 1_555
C3B H2B 1_555 1_555
N2B C2B 1_555 1_555
N2E Fe1 1_555 1_555
N3B C3B 1_555 1_555
N4B N4 1_555 1_555
O1E Fe1 1_555 1_555
H3E O1E 1_555 1_555
H4E O1E 1_555 1_555
C2 N2 1_555 1_555
C3 N4 1_555 1_555
N2 N3 1_555 1_555
C2B N4B 1_555 1_555
C3B N4B 1_555 1_555
N2B N3B 1_555 1_555

#END
