
#######################################################################
#
#                 Cambridge Crystallographic Data Centre
#                                CCDC 
#
#######################################################################
#
# If this CIF has been generated from an entry in the Cambridge 
# Structural Database, then it will include bibliographic, chemical, 
# crystal, experimental, refinement or atomic coordinate data resulting 
# from the CCDC's data processing and validation procedures.
#
#######################################################################

data_CICYET01
_symmetry_cell_setting           triclinic
_symmetry_space_group_name_H-M   'P -1'
_symmetry_Int_Tables_number      2
_space_group_name_Hall           '-P 1'
loop_
_symmetry_equiv_pos_site_id
_symmetry_equiv_pos_as_xyz
1 x,y,z
2 -x,-y,-z
_cell_length_a                   4.9663(17)
_cell_length_b                   9.909(3)
_cell_length_c                   10.491(4)
_cell_angle_alpha                94.104(6)
_cell_angle_beta                 94.908(6)
_cell_angle_gamma                97.222(6)
_cell_volume                     508.527
loop_
_atom_site_label
_atom_site_type_symbol
_atom_site_fract_x
_atom_site_fract_y
_atom_site_fract_z
C1 C 0.7947(5) 0.2323(2) 0.0692(2)
C2 C 0.6224(4) 0.1439(2) 0.1523(2)
C3 C 0.3011(4) 0.1428(2) 0.3020(2)
C4 C 0.2964(5) 0.0081(2) 0.3126(2)
H1 H 0.1843 -0.0360 0.3704
C5 C 0.4609(5) -0.0695(2) 0.2366(2)
C6 C 0.6297(5) 0.0087(2) 0.1556(2)
H2 H 0.7467 -0.0354 0.1042
C7 C 0.1243(4) 0.2333(2) 0.3704(2)
O1 O 0.7481(3) 0.35584(16) 0.06634(16)
O2 O 0.9659(4) 0.17730(18) 0.0146(2)
O3 O 0.4618(3) 0.21311(15) 0.22421(15)
O4 O 0.4548(4) -0.19670(18) 0.23729(18)
O5 O 0.1444(3) 0.35607(16) 0.34230(15)
O6 O -0.0282(4) 0.17915(17) 0.44521(17)
O7 O 0.7024(3) 0.52771(16) -0.12854(15)
H3 H 0.569(4) 0.564(3) -0.106(3)
H4 H 0.748(6) 0.562(3) -0.1957(16)
O8 O 0.8631(4) 0.64890(18) 0.17340(18)
H5 H 1.006(4) 0.704(3) 0.174(3)
H6 H 0.728(4) 0.691(3) 0.164(4)
O9 O 0.7625(3) 0.51022(18) 0.37682(16)
H7 H 0.789(6) 0.561(3) 0.317(2)
H8 H 0.888(4) 0.461(3) 0.373(3)
O10 O 0.3745(3) 0.67010(17) 0.44920(16)
H9 H 0.412(6) 0.706(3) 0.3815(17)
H10 H 0.258(5) 0.712(3) 0.483(3)
Cu1 Cu 1.0000 0.5000 0.0000
Cu2 Cu 0.5000 0.5000 0.5000
C1A C 1.2053(5) 0.7677(2) -0.0692(2)
C2A C 1.3776(4) 0.8561(2) -0.1523(2)
C3A C 1.6989(4) 0.8572(2) -0.3020(2)
C4A C 1.7036(5) 0.9919(2) -0.3126(2)
H1A H 1.8157 1.0360 -0.3704
C5A C 1.5391(5) 1.0695(2) -0.2366(2)
C6A C 1.3703(5) 0.9913(2) -0.1556(2)
H2A H 1.2533 1.0354 -0.1042
C7A C 1.8757(4) 0.7667(2) -0.3704(2)
O1A O 1.2519(3) 0.64416(16) -0.06634(16)
O2A O 1.0341(4) 0.82270(18) -0.0146(2)
O3A O 1.5382(3) 0.78689(15) -0.22421(15)
O4A O 1.5452(4) 1.19670(18) -0.23729(18)
O5A O 1.8556(3) 0.64393(16) -0.34230(15)
O5A_2 O 0.8556(3) 0.64393(16) 0.65770(15)
O6A O 2.0282(4) 0.82085(17) -0.44521(17)
O7A O 1.2976(3) 0.47229(16) 0.12854(15)
H3A H 1.431(4) 0.436(3) 0.106(3)
H4A H 1.252(6) 0.438(3) 0.1957(16)
O8A O 1.1369(4) 0.35110(18) -0.17340(18)
H5A H 0.994(4) 0.296(3) -0.174(3)
H6A H 1.272(4) 0.309(3) -0.164(4)
O9A O 0.2375(3) 0.48978(18) 0.62318(16)
H7A H 0.211(6) 0.439(3) 0.683(2)
H8A H 0.112(4) 0.539(3) 0.627(3)
O10A O 0.6255(3) 0.32990(17) 0.55080(16)
H9A H 0.588(6) 0.294(3) 0.6185(17)
H10A H 0.742(5) 0.288(3) 0.517(3)
Cu2_2 Cu 1.5000 0.5000 -0.5000
loop_
_geom_bond_atom_site_label_1
_geom_bond_atom_site_label_2
_geom_bond_site_symmetry_1
_geom_bond_site_symmetry_2
C1 C2 1_555 1_555
C2 C6 1_555 1_555
C3 C4 1_555 1_555
C4 H1 1_555 1_555
C5 C4 1_555 1_555
C6 C5 1_555 1_555
H2 C6 1_555 1_555
C7 C3 1_555 1_555
O1 C1 1_555 1_555
O2 C1 1_555 1_555
O3 C2 1_555 1_555
O4 C5 1_555 1_555
O5 C7 1_555 1_555
O6 C7 1_555 1_555
O7 H3 1_555 1_555
H4 O7 1_555 1_555
O8 H5 1_555 1_555
H6 O8 1_555 1_555
O9 H7 1_555 1_555
H8 O9 1_555 1_555
O10 H9 1_555 1_555
H10 O10 1_555 1_555
Cu1 O1 1_555 1_555
Cu2 O5 1_555 1_555
C1A C2A 1_555 1_555
C2A C6A 1_555 1_555
C3A C4A 1_555 1_555
C4A H1A 1_555 1_555
C5A C4A 1_555 1_555
C6A C5A 1_555 1_555
H2A C6A 1_555 1_555
C7A C3A 1_555 1_555
O1A Cu1 1_555 1_555
O2A C1A 1_555 1_555
O3A C2A 1_555 1_555
O4A C5A 1_555 1_555
O5A C7A 1_555 1_555
O5A_2 Cu2 1_555 1_555
O6A C7A 1_555 1_555
O7A Cu1 1_555 1_555
H3A O7A 1_555 1_555
H4A O7A 1_555 1_555
O8A Cu1 1_555 1_555
H5A O8A 1_555 1_555
H6A O8A 1_555 1_555
O9A Cu2 1_555 1_555
H7A O9A 1_555 1_555
H8A O9A 1_555 1_555
O10A Cu2 1_555 1_555
H9A O10A 1_555 1_555
H10A O10A 1_555 1_555
Cu2_2 O5A 1_555 1_555
C3 O3 1_555 1_555
O7 Cu1 1_555 1_555
O8 Cu1 1_555 1_555
O9 Cu2 1_555 1_555
O10 Cu2 1_555 1_555
C1A O1A 1_555 1_555
C3A O3A 1_555 1_555

#END
