
#######################################################################
#
#                 Cambridge Crystallographic Data Centre
#                                CCDC 
#
#######################################################################
#
# If this CIF has been generated from an entry in the Cambridge 
# Structural Database, then it will include bibliographic, chemical, 
# crystal, experimental, refinement or atomic coordinate data resulting 
# from the CCDC's data processing and validation procedures.
#
#######################################################################

data_CICYET
_symmetry_cell_setting           triclinic
_symmetry_space_group_name_H-M   'P -1'
_symmetry_Int_Tables_number      2
_space_group_name_Hall           '-P 1'
loop_
_symmetry_equiv_pos_site_id
_symmetry_equiv_pos_as_xyz
1 x,y,z
2 -x,-y,-z
_cell_length_a                   4.9593(6)
_cell_length_b                   9.8973(14)
_cell_length_c                   10.4697(12)
_cell_angle_alpha                94.237(9)
_cell_angle_beta                 94.955(9)
_cell_angle_gamma                97.353(6)
_cell_volume                     505.881
loop_
_atom_site_label
_atom_site_type_symbol
_atom_site_fract_x
_atom_site_fract_y
_atom_site_fract_z
Cu1 Cu 0.0000 0.0000 0.5000
O1 O 0.2978(6) -0.0275(3) 0.6286(3)
O2 O 0.1358(8) -0.1487(3) 0.3266(4)
Cu2 Cu 0.5000 0.0000 0.0000
O3 O 0.3739(7) 0.1700(3) -0.0507(3)
O4 O 0.2379(6) -0.0106(3) 0.1229(3)
O5 O 0.5368(6) 0.2869(3) 0.2755(3)
C1 C 0.3774(8) 0.3563(4) 0.3476(4)
C2 C 0.2055(9) 0.2683(4) 0.4303(4)
O6 O 0.2528(6) 0.1442(3) 0.4337(3)
O7 O 0.0323(8) 0.3231(4) 0.4846(4)
C3 C 0.3702(9) 0.4924(4) 0.3446(4)
C4 C 0.5389(10) 0.5700(4) 0.2643(5)
O8 O 0.5466(9) 0.6975(4) 0.2634(4)
C5 C 0.7043(9) 0.4922(5) 0.1875(5)
C6 C 0.6990(8) 0.3571(4) 0.1981(4)
C7 C 0.8765(8) 0.2673(4) 0.1289(4)
O9 O 0.8556(6) 0.1442(3) 0.1577(3)
O10 O 1.0274(7) 0.3210(3) 0.0545(3)
H1 H 0.4442 -0.0615 0.6064
H2 H 0.2531 -0.0696 0.6963
H3 H -0.0203 -0.2028 0.3091
H4 H 0.2808 -0.1903 0.3401
H5 H 0.2306 0.2025 -0.0229
H6 H 0.4215 0.2072 -0.1206
H7 H 0.1092 0.0428 0.1254
H8 H 0.1985 -0.0713 0.1781
H9 H 0.2527 0.5364 0.3959
H10 H 0.8165 0.5364 0.1296
O1A O -0.2978(6) 0.0275(3) 0.3714(3)
O2A O -0.1358(8) 0.1487(3) 0.6734(4)
Cu2_2 Cu -0.5000 0.0000 1.0000
O3A O 0.6261(7) -0.1700(3) 0.0507(3)
O4A O 0.7621(6) 0.0106(3) -0.1229(3)
O5A O -0.5368(6) -0.2869(3) 0.7245(3)
C1A C -0.3774(8) -0.3563(4) 0.6524(4)
C2A C -0.2055(9) -0.2683(4) 0.5697(4)
O6A O -0.2528(6) -0.1442(3) 0.5663(3)
O7A O -0.0323(8) -0.3231(4) 0.5154(4)
C3A C -0.3702(9) -0.4924(4) 0.6554(4)
C4A C -0.5389(10) -0.5700(4) 0.7357(5)
O8A O -0.5466(9) -0.6975(4) 0.7366(4)
C5A C -0.7043(9) -0.4922(5) 0.8125(5)
C6A C -0.6990(8) -0.3571(4) 0.8019(4)
C7A C -0.8765(8) -0.2673(4) 0.8711(4)
O9A O -0.8556(6) -0.1442(3) 0.8423(3)
O9A_2 O 0.1444(6) -0.1442(3) -0.1577(3)
O10A O -1.0274(7) -0.3210(3) 0.9455(3)
H1A H -0.4442 0.0615 0.3936
H2A H -0.2531 0.0696 0.3037
H3A H 0.0203 0.2028 0.6909
H4A H -0.2808 0.1903 0.6599
H5A H 0.7694 -0.2025 0.0229
H6A H 0.5785 -0.2072 0.1206
H7A H 0.8908 -0.0428 -0.1254
H8A H 0.8015 0.0713 -0.1781
H9A H -0.2527 -0.5364 0.6041
H10A H -0.8165 -0.5364 0.8704
loop_
_geom_bond_atom_site_label_1
_geom_bond_atom_site_label_2
_geom_bond_site_symmetry_1
_geom_bond_site_symmetry_2
Cu1 O1 1_555 1_555
O1 H1 1_555 1_555
O2 Cu1 1_555 1_555
Cu2 O3 1_555 1_555
O3 H5 1_555 1_555
O4 Cu2 1_555 1_555
O5 C1 1_555 1_555
C1 C2 1_555 1_555
C2 O6 1_555 1_555
O6 Cu1 1_555 1_555
O7 C2 1_555 1_555
C3 C1 1_555 1_555
C4 C3 1_555 1_555
O8 C4 1_555 1_555
C5 C4 1_555 1_555
C6 O5 1_555 1_555
C7 C6 1_555 1_555
O9 Cu2 1_555 1_555
O10 C7 1_555 1_555
H2 O1 1_555 1_555
H3 O2 1_555 1_555
H4 O2 1_555 1_555
H6 O3 1_555 1_555
H7 O4 1_555 1_555
H8 O4 1_555 1_555
H9 C3 1_555 1_555
H10 C5 1_555 1_555
O1A Cu1 1_555 1_555
O2A Cu1 1_555 1_555
Cu2_2 O9A 1_555 1_555
O3A Cu2 1_555 1_555
O4A Cu2 1_555 1_555
O5A C1A 1_555 1_555
C1A C2A 1_555 1_555
C2A O6A 1_555 1_555
O6A Cu1 1_555 1_555
O7A C2A 1_555 1_555
C3A C1A 1_555 1_555
C4A C3A 1_555 1_555
O8A C4A 1_555 1_555
C5A C4A 1_555 1_555
C6A O5A 1_555 1_555
C7A C6A 1_555 1_555
O9A C7A 1_555 1_555
O9A_2 Cu2 1_555 1_555
O10A C7A 1_555 1_555
H1A O1A 1_555 1_555
H2A O1A 1_555 1_555
H3A O2A 1_555 1_555
H4A O2A 1_555 1_555
H5A O3A 1_555 1_555
H6A O3A 1_555 1_555
H7A O4A 1_555 1_555
H8A O4A 1_555 1_555
H9A C3A 1_555 1_555
H10A C5A 1_555 1_555
C5 C6 1_555 1_555
C7 O9 1_555 1_555
C5A C6A 1_555 1_555

#END
