
#######################################################################
#
#                 Cambridge Crystallographic Data Centre
#                                CCDC 
#
#######################################################################
#
# If this CIF has been generated from an entry in the Cambridge 
# Structural Database, then it will include bibliographic, chemical, 
# crystal, experimental, refinement or atomic coordinate data resulting 
# from the CCDC's data processing and validation procedures.
#
#######################################################################

data_CICZIZ
_symmetry_cell_setting           orthorhombic
_symmetry_space_group_name_H-M   'P n a 21'
_symmetry_Int_Tables_number      33
_space_group_name_Hall           'P 2c -2n'
loop_
_symmetry_equiv_pos_site_id
_symmetry_equiv_pos_as_xyz
1 x,y,z
2 -x,-y,1/2+z
3 1/2-x,1/2+y,1/2+z
4 1/2+x,1/2-y,z
_cell_length_a                   17.3392(7)
_cell_length_b                   11.4434(5)
_cell_length_c                   6.7896(3)
_cell_angle_alpha                90
_cell_angle_beta                 90
_cell_angle_gamma                90
_cell_volume                     1347.19
loop_
_atom_site_label
_atom_site_type_symbol
_atom_site_fract_x
_atom_site_fract_y
_atom_site_fract_z
Cu1 Cu 0.94099(2) 0.77612(3) 0.38903(9)
N1 N 0.83084(16) 0.7744(2) 0.4244(5)
C1 C 0.8019(2) 0.8278(3) 0.5842(5)
C2 C 0.72350(19) 0.8296(3) 0.6177(5)
H1 H 0.7028 0.8655 0.7322
C3 C 0.6754(2) 0.7774(3) 0.4790(6)
C4 C 0.7060(2) 0.7223(3) 0.3145(6)
H2 H 0.6733 0.6863 0.2199
C5 C 0.7862(2) 0.7213(3) 0.2918(6)
C6 C 0.83079(19) 0.6664(3) 0.1315(5)
C7 C 0.7977(2) 0.6120(3) -0.0292(5)
H3 H 0.7432 0.6063 -0.0413
C8 C 0.8461(2) 0.5658(3) -0.1729(5)
C9 C 0.9255(2) 0.5753(3) -0.1519(5)
H4 H 0.9594 0.5453 -0.2494
C10 C 0.9540(2) 0.6298(3) 0.0152(6)
H5 H 1.0083 0.6348 0.0323
N2 N 0.90844(16) 0.6753(3) 0.1525(5)
C11 C 0.8145(2) 0.5097(3) -0.3564(5)
O1 O 0.85394(17) 0.4795(3) -0.4908(4)
O2 O 0.73931(16) 0.4981(3) -0.3469(4)
H6 H 0.721(5) 0.478(7) -0.442(12)
C12 C 0.5887(2) 0.7791(3) 0.5108(6)
O3 O 0.54921(14) 0.7453(3) 0.3670(6)
O4 O 0.84835(12) 0.9247(2) 0.8713(4)
C13 C 0.8657(2) 0.8774(3) 0.7124(5)
O5 O 0.56479(15) 0.8127(3) 0.6741(5)
O6 O 0.93310(13) 0.8633(3) 0.6484(4)
O7 O 0.95161(15) 0.9320(3) 0.1881(4)
H7 H 0.939(3) 0.995(3) 0.242(7)
H8 H 0.923(2) 0.924(4) 0.087(5)
Cu1C Cu 0.44099(2) 0.72388(3) 0.38903(9)
O3C O 1.04921(14) 0.7547(3) 0.3670(6)
O8 O 0.9071(2) 1.1129(3) 0.4475(5)
H9 H 0.936(3) 1.094(5) 0.548(6)
H10 H 0.929(3) 1.173(4) 0.390(9)
loop_
_geom_bond_atom_site_label_1
_geom_bond_atom_site_label_2
_geom_bond_site_symmetry_1
_geom_bond_site_symmetry_2
Cu1 N1 1_555 1_555
N1 C1 1_555 1_555
C1 C2 1_555 1_555
C2 H1 1_555 1_555
C3 C2 1_555 1_555
C4 C3 1_555 1_555
H2 C4 1_555 1_555
C5 N1 1_555 1_555
C6 C5 1_555 1_555
C7 C6 1_555 1_555
H3 C7 1_555 1_555
C8 C7 1_555 1_555
C9 C8 1_555 1_555
H4 C9 1_555 1_555
C10 C9 1_555 1_555
H5 C10 1_555 1_555
N2 Cu1 1_555 1_555
C11 C8 1_555 1_555
O1 C11 1_555 1_555
O2 C11 1_555 1_555
H6 O2 1_555 1_555
C12 C3 1_555 1_555
O3 C12 1_555 1_555
O4 C13 1_555 1_555
C13 C1 1_555 1_555
O5 C12 1_555 1_555
O6 Cu1 1_555 1_555
O7 Cu1 1_555 1_555
H7 O7 1_555 1_555
H8 O7 1_555 1_555
O8 H9 1_555 1_555
H10 O8 1_555 1_555
Cu1C O3 1_555 1_555
O3C Cu1 1_555 1_555
C4 C5 1_555 1_555
C6 N2 1_555 1_555
C10 N2 1_555 1_555
C13 O6 1_555 1_555

#END
