
#######################################################################
#
#                 Cambridge Crystallographic Data Centre
#                                CCDC 
#
#######################################################################
#
# If this CIF has been generated from an entry in the Cambridge 
# Structural Database, then it will include bibliographic, chemical, 
# crystal, experimental, refinement or atomic coordinate data resulting 
# from the CCDC's data processing and validation procedures.
#
#######################################################################

data_CIDBEY
_symmetry_cell_setting           triclinic
_symmetry_space_group_name_H-M   'P -1'
_symmetry_Int_Tables_number      2
_space_group_name_Hall           '-P 1'
loop_
_symmetry_equiv_pos_site_id
_symmetry_equiv_pos_as_xyz
1 x,y,z
2 -x,-y,-z
_cell_length_a                   8.7526(5)
_cell_length_b                   9.9887(6)
_cell_length_c                   11.2859(7)
_cell_angle_alpha                116.2250(10)
_cell_angle_beta                 107.3190(10)
_cell_angle_gamma                92.4780(10)
_cell_volume                     827.213
loop_
_atom_site_label
_atom_site_type_symbol
_atom_site_fract_x
_atom_site_fract_y
_atom_site_fract_z
Cu1 Cu 0.58859(3) 0.40386(2) 0.20410(2)
N1 N 0.4369(2) 0.51483(19) 0.30093(18)
C1 C 0.4220(3) 0.6598(2) 0.3378(2)
H1 H 0.4866 0.7183 0.3172
C2 C 0.3159(3) 0.7261(3) 0.4045(3)
H2 H 0.3097 0.8284 0.4305
C3 C 0.2191(3) 0.6398(3) 0.4325(2)
H3 H 0.1459 0.6825 0.4782
C4 C 0.2310(3) 0.4897(3) 0.3924(2)
H4 H 0.1643 0.4284 0.4089
C5 C 0.3416(2) 0.4305(2) 0.3281(2)
N2 N 0.48901(19) 0.23966(18) 0.23268(17)
C6 C 0.3679(2) 0.2728(2) 0.2850(2)
C7 C 0.2756(3) 0.1660(2) 0.2963(2)
H5 H 0.1919 0.1913 0.3335
C8 C 0.3089(3) 0.0211(3) 0.2517(2)
H6 H 0.2466 -0.0540 0.2568
C9 C 0.4344(3) -0.0124(2) 0.1997(2)
H7 H 0.4599 -0.1098 0.1703
C10 C 0.5216(3) 0.0997(2) 0.1918(2)
H8 H 0.6071 0.0771 0.1563
C11 C 0.9624(2) 0.9255(2) 0.4835(2)
H9 H 0.9776 0.9022 0.5578
C12 C 0.8725(2) 0.8187(2) 0.3531(2)
H10 H 0.8582 0.8393 0.2773
C13 C 0.7946(2) 0.6680(2) 0.3253(2)
O1 O 0.67946(16) 0.58757(15) 0.20386(14)
O2 O 0.83591(19) 0.62589(17) 0.41534(15)
C14 C 0.9959(3) 0.4463(2) 0.0267(2)
H11 H 1.0923 0.4144 0.0580
C15 C 0.8604(2) 0.3901(2) 0.0342(2)
H12 H 0.7622 0.4173 -0.0012
C16 C 0.8570(2) 0.2859(2) 0.0960(2)
O3 O 0.74691(17) 0.28358(16) 0.14857(16)
O4 O 0.95905(18) 0.20327(16) 0.09421(17)
O5 O 0.3970(2) 0.30003(19) -0.01375(17)
H13 H 0.370(3) 0.330(3) -0.064(2)
H14 H 0.329(3) 0.238(3) -0.035(3)
C11A C 1.0376(2) 1.0745(2) 0.5165(2)
H9A H 1.0224 1.0978 0.4422
C12A C 1.1275(2) 1.1813(2) 0.6469(2)
H10A H 1.1418 1.1607 0.7227
C13A C 1.2054(2) 1.3320(2) 0.6747(2)
O1A O 1.32054(16) 1.41243(15) 0.79614(14)
O2A O 1.16409(19) 1.37411(17) 0.58466(15)
C14A C 1.0041(3) 0.5537(2) -0.0267(2)
H11A H 0.9077 0.5856 -0.0580
C15A C 1.1396(2) 0.6099(2) -0.0342(2)
H12A H 1.2378 0.5827 0.0012
C16A C 1.1430(2) 0.7141(2) -0.0960(2)
O3A O 1.25309(17) 0.71642(16) -0.14857(16)
O4A O 1.04095(18) 0.79673(16) -0.09421(17)
Cu1A Cu 1.41141(3) 0.59614(2) -0.20410(2)
N1A N 1.5631(2) 0.48517(19) -0.30093(18)
C1A C 1.5780(3) 0.3402(2) -0.3378(2)
H1A H 1.5134 0.2817 -0.3172
C2A C 1.6841(3) 0.2739(3) -0.4045(3)
H2A H 1.6903 0.1716 -0.4305
C3A C 1.7809(3) 0.3602(3) -0.4325(2)
H3A H 1.8541 0.3175 -0.4782
C4A C 1.7690(3) 0.5103(3) -0.3924(2)
H4A H 1.8357 0.5716 -0.4089
C5A C 1.6584(2) 0.5695(2) -0.3281(2)
N2A N 1.51099(19) 0.76034(18) -0.23268(17)
C6A C 1.6321(2) 0.7272(2) -0.2850(2)
C7A C 1.7244(3) 0.8340(2) -0.2963(2)
H5A H 1.8081 0.8087 -0.3335
C8A C 1.6911(3) 0.9789(3) -0.2517(2)
H6A H 1.7534 1.0540 -0.2568
C9A C 1.5656(3) 1.0124(2) -0.1997(2)
H7A H 1.5401 1.1098 -0.1703
C10A C 1.4784(3) 0.9003(2) -0.1918(2)
H8A H 1.3929 0.9229 -0.1563
O5A O 1.6030(2) 0.69997(19) 0.01375(17)
H13A H 1.630(3) 0.670(3) 0.064(2)
H14A H 1.671(3) 0.762(3) 0.035(3)
Cu1A_2 Cu 1.41141(3) 1.59614(2) 0.79590(2)
O1A_2 O 1.32054(16) 0.41243(15) -0.20386(14)
O2A_2 O 1.16409(19) 0.37411(17) -0.41534(15)
O6 O 1.1310(2) 0.0795(2) -0.0873(2)
H15 H 1.087(4) 0.120(3) -0.039(3)
H16 H 1.123(3) 0.002(2) -0.095(3)
loop_
_geom_bond_atom_site_label_1
_geom_bond_atom_site_label_2
_geom_bond_site_symmetry_1
_geom_bond_site_symmetry_2
Cu1 N1 1_555 1_555
N1 C1 1_555 1_555
C1 H1 1_555 1_555
C2 C1 1_555 1_555
H2 C2 1_555 1_555
C3 C2 1_555 1_555
H3 C3 1_555 1_555
C4 C3 1_555 1_555
H4 C4 1_555 1_555
C5 N1 1_555 1_555
N2 Cu1 1_555 1_555
C6 C5 1_555 1_555
C7 C6 1_555 1_555
H5 C7 1_555 1_555
C8 C7 1_555 1_555
H6 C8 1_555 1_555
C9 C8 1_555 1_555
H7 C9 1_555 1_555
C10 N2 1_555 1_555
H8 C10 1_555 1_555
C11 H9 1_555 1_555
C12 C11 1_555 1_555
H10 C12 1_555 1_555
C13 C12 1_555 1_555
O1 Cu1 1_555 1_555
O2 Cu1 1_555 1_555
C14 H11 1_555 1_555
C15 C14 1_555 1_555
H12 C15 1_555 1_555
C16 C15 1_555 1_555
O3 Cu1 1_555 1_555
O4 C16 1_555 1_555
O5 Cu1 1_555 1_555
H13 O5 1_555 1_555
H14 O5 1_555 1_555
O6 H15 1_555 1_555
H16 O6 1_555 1_555
C11A C11 1_555 1_555
H9A C11A 1_555 1_555
C12A C11A 1_555 1_555
H10A C12A 1_555 1_555
C13A C12A 1_555 1_555
O1A C13A 1_555 1_555
O2A C13A 1_555 1_555
C14A C14 1_555 1_555
H11A C14A 1_555 1_555
C15A C14A 1_555 1_555
H12A C15A 1_555 1_555
C16A C15A 1_555 1_555
O3A C16A 1_555 1_555
O4A C16A 1_555 1_555
Cu1A O3A 1_555 1_555
N1A Cu1A 1_555 1_555
C1A N1A 1_555 1_555
H1A C1A 1_555 1_555
C2A C1A 1_555 1_555
H2A C2A 1_555 1_555
C3A C2A 1_555 1_555
H3A C3A 1_555 1_555
C4A C3A 1_555 1_555
H4A C4A 1_555 1_555
C5A N1A 1_555 1_555
N2A Cu1A 1_555 1_555
C6A C5A 1_555 1_555
C7A C6A 1_555 1_555
H5A C7A 1_555 1_555
C8A C7A 1_555 1_555
H6A C8A 1_555 1_555
C9A C8A 1_555 1_555
H7A C9A 1_555 1_555
C10A N2A 1_555 1_555
H8A C10A 1_555 1_555
O5A Cu1A 1_555 1_555
H13A O5A 1_555 1_555
H14A O5A 1_555 1_555
Cu1A_2 O1A 1_555 1_555
O1A_2 Cu1A 1_555 1_555
O2A_2 Cu1A 1_555 1_555
C4 C5 1_555 1_555
N2 C6 1_555 1_555
C9 C10 1_555 1_555
C13 O1 1_555 1_555
C13 O2 1_555 1_555
C16 O3 1_555 1_555
O2A Cu1A_2 1_555 1_555
C4A C5A 1_555 1_555
N2A C6A 1_555 1_555
C9A C10A 1_555 1_555

#END
