
#######################################################################
#
#                 Cambridge Crystallographic Data Centre
#                                CCDC 
#
#######################################################################
#
# If this CIF has been generated from an entry in the Cambridge 
# Structural Database, then it will include bibliographic, chemical, 
# crystal, experimental, refinement or atomic coordinate data resulting 
# from the CCDC's data processing and validation procedures.
#
#######################################################################

data_CIDDOK
_symmetry_cell_setting           monoclinic
_symmetry_space_group_name_H-M   'P 21/c'
_symmetry_Int_Tables_number      14
_space_group_name_Hall           '-P 2ybc'
loop_
_symmetry_equiv_pos_site_id
_symmetry_equiv_pos_as_xyz
1 x,y,z
2 -x,1/2+y,1/2-z
3 -x,-y,-z
4 x,1/2-y,1/2+z
_cell_length_a                   16.411(3)
_cell_length_b                   16.687(3)
_cell_length_c                   8.7009(16)
_cell_angle_alpha                90
_cell_angle_beta                 91.587(2)
_cell_angle_gamma                90
_cell_volume                     2381.83
loop_
_atom_site_label
_atom_site_type_symbol
_atom_site_fract_x
_atom_site_fract_y
_atom_site_fract_z
Ni1 Ni 0.44168(3) 0.33884(3) 0.14452(6)
O1 O 1.0514(2) 0.3455(2) -0.1861(4)
O2 O 0.8398(2) 0.3348(2) 0.4594(5)
O3 O 0.44442(18) 0.28370(17) 0.6116(3)
O4 O 0.43930(18) 0.46107(17) 0.1806(3)
O5 O 0.42122(19) 0.29513(17) 0.3606(3)
O6 O 0.3931(2) 0.58577(19) 0.1859(4)
O7 O 0.46107(19) 0.36643(18) -0.0832(3)
H1 H 0.453(3) 0.3206(17) -0.129(5)
H2 H 0.5071(18) 0.389(2) -0.105(5)
N1 N 1.3166(2) 0.3389(2) 0.0914(4)
N2 N 1.0036(3) 0.3494(3) 0.0550(5)
N3 N 0.8711(2) 0.3966(3) 0.2356(5)
N4 N 0.5670(2) 0.3419(2) 0.1953(4)
C1 C 1.2874(3) 0.3884(3) -0.0185(5)
H3 H 1.3243 0.4227 -0.0688
C2 C 1.2063(3) 0.3917(3) -0.0612(5)
H4 H 1.1884 0.4269 -0.1410
C3 C 1.1504(3) 0.3434(3) 0.0123(5)
C4 C 1.1807(3) 0.2916(3) 0.1254(6)
H5 H 1.1451 0.2565 0.1772
C5 C 1.2629(3) 0.2919(3) 0.1615(5)
H6 H 1.2826 0.2569 0.2404
C6 C 1.0637(3) 0.3462(3) -0.0466(6)
C7 C 1.0129(3) 0.3516(3) 0.2231(6)
H7 H 1.0698 0.3660 0.2525
H8 H 1.0013 0.2980 0.2658
C8 C 0.9549(3) 0.4128(4) 0.2893(7)
H9 H 0.9581 0.4104 0.4030
H10 H 0.9710 0.4673 0.2573
C9 C 0.8633(3) 0.3986(4) 0.0682(7)
H11 H 0.8767 0.4530 0.0311
H12 H 0.8063 0.3865 0.0361
C10 C 0.9191(3) 0.3388(4) -0.0027(7)
H13 H 0.9005 0.2839 0.0215
H14 H 0.9170 0.3452 -0.1158
C11 C 0.8191(3) 0.3575(3) 0.3308(7)
C12 C 0.7320(3) 0.3502(3) 0.2762(6)
C13 C 0.6907(3) 0.2789(3) 0.2830(7)
H15 H 0.7179 0.2314 0.3158
C14 C 0.6090(3) 0.2773(3) 0.2414(6)
H16 H 0.5811 0.2275 0.2457
C15 C 0.6078(3) 0.4106(3) 0.1858(5)
H17 H 0.5794 0.4571 0.1511
C16 C 0.6898(3) 0.4171(3) 0.2245(6)
H18 H 0.7170 0.4671 0.2155
C17 C 0.1786(3) 0.4912(3) 0.3792(6)
H19 H 0.1250 0.5089 0.3528
C18 C 0.1917(3) 0.4399(3) 0.5025(6)
H20 H 0.1472 0.4214 0.5604
C19 C 0.2697(3) 0.4161(3) 0.5401(5)
H21 H 0.2784 0.3818 0.6261
C20 C 0.3364(3) 0.4402(3) 0.4577(5)
C21 C 0.3226(3) 0.4892(3) 0.3288(5)
C22 C 0.2441(3) 0.5165(3) 0.2944(5)
H22 H 0.2353 0.5529 0.2117
C23 C 0.4204(3) 0.4145(3) 0.5122(5)
H23 H 0.4290 0.4294 0.6216
H24 H 0.4619 0.4424 0.4516
C24 C 0.3900(3) 0.5143(3) 0.2252(5)
C25 C 0.4300(3) 0.3239(3) 0.4940(5)
Ni1_2 Ni 1.44168(3) 0.33884(3) 0.14452(6)
Ni1C Ni 0.44168(3) 0.16116(3) 0.64452(6)
O3C O 0.44442(18) 0.21630(17) 0.1116(3)
N1_2 N 0.3166(2) 0.3389(2) 0.0914(4)
loop_
_geom_bond_atom_site_label_1
_geom_bond_atom_site_label_2
_geom_bond_site_symmetry_1
_geom_bond_site_symmetry_2
Ni1 O4 1_555 1_555
O1 C6 1_555 1_555
O2 C11 1_555 1_555
O3 C25 1_555 1_555
O4 C24 1_555 1_555
O5 Ni1 1_555 1_555
O6 C24 1_555 1_555
O7 Ni1 1_555 1_555
H1 O7 1_555 1_555
H2 O7 1_555 1_555
N1 C1 1_555 1_555
N2 C6 1_555 1_555
N3 C8 1_555 1_555
N4 Ni1 1_555 1_555
C1 H3 1_555 1_555
C2 C1 1_555 1_555
H4 C2 1_555 1_555
C3 C2 1_555 1_555
C4 C3 1_555 1_555
H5 C4 1_555 1_555
C5 N1 1_555 1_555
H6 C5 1_555 1_555
C6 C3 1_555 1_555
C7 N2 1_555 1_555
H7 C7 1_555 1_555
H8 C7 1_555 1_555
C8 C7 1_555 1_555
H9 C8 1_555 1_555
H10 C8 1_555 1_555
C9 N3 1_555 1_555
H11 C9 1_555 1_555
H12 C9 1_555 1_555
C10 N2 1_555 1_555
H13 C10 1_555 1_555
H14 C10 1_555 1_555
C11 N3 1_555 1_555
C12 C11 1_555 1_555
C13 C12 1_555 1_555
H15 C13 1_555 1_555
C14 N4 1_555 1_555
H16 C14 1_555 1_555
C15 N4 1_555 1_555
H17 C15 1_555 1_555
C16 C12 1_555 1_555
H18 C16 1_555 1_555
C17 H19 1_555 1_555
C18 C17 1_555 1_555
H20 C18 1_555 1_555
C19 C18 1_555 1_555
H21 C19 1_555 1_555
C20 C19 1_555 1_555
C21 C20 1_555 1_555
C22 C17 1_555 1_555
H22 C22 1_555 1_555
C23 C20 1_555 1_555
H23 C23 1_555 1_555
H24 C23 1_555 1_555
C24 C21 1_555 1_555
C25 O5 1_555 1_555
Ni1_2 N1 1_555 1_555
Ni1C O3 1_555 1_555
O3C Ni1 1_555 1_555
N1_2 Ni1 1_555 1_555
C4 C5 1_555 1_555
C9 C10 1_555 1_555
C13 C14 1_555 1_555
C15 C16 1_555 1_555
C21 C22 1_555 1_555
C23 C25 1_555 1_555

#END
