
#######################################################################
#
#                 Cambridge Crystallographic Data Centre
#                                CCDC 
#
#######################################################################
#
# If this CIF has been generated from an entry in the Cambridge 
# Structural Database, then it will include bibliographic, chemical, 
# crystal, experimental, refinement or atomic coordinate data resulting 
# from the CCDC's data processing and validation procedures.
#
#######################################################################

data_CIDDEA
_symmetry_cell_setting           monoclinic
_symmetry_space_group_name_H-M   'C 2/c'
_symmetry_Int_Tables_number      15
_space_group_name_Hall           '-C 2yn'
loop_
_symmetry_equiv_pos_site_id
_symmetry_equiv_pos_as_xyz
1 x,y,z
2 -x,y,1/2-z
3 1/2+x,1/2+y,z
4 1/2-x,1/2+y,1/2-z
5 -x,-y,-z
6 x,-y,1/2+z
7 1/2-x,1/2-y,-z
8 1/2+x,1/2-y,1/2+z
_cell_length_a                   14.797
_cell_length_b                   18.235
_cell_length_c                   14.396
_cell_angle_alpha                90
_cell_angle_beta                 117.27
_cell_angle_gamma                90
_cell_volume                     3452.66
loop_
_atom_site_label
_atom_site_type_symbol
_atom_site_fract_x
_atom_site_fract_y
_atom_site_fract_z
Co1 Co 0.62403(4) 0.34925(3) 0.57949(4)
N1 N 0.6267(3) 0.43141(17) 0.6859(2)
O1 O 0.6432(2) 0.57453(14) 0.9873(2)
O2 O 0.5272(2) 0.28036(14) 0.6111(2)
O3 O 0.8953(2) 0.25160(15) 0.7891(2)
O4 O 0.4509(2) 0.36522(15) 0.4930(2)
C1 C 0.8818(4) 0.4672(3) 0.9142(4)
H1 H 0.8847 0.4783 0.9786
N2 N 0.6051(3) 0.71568(17) 0.9435(3)
H2 H 0.6482 0.7533 0.9543
H3 H 0.5469 0.7463 0.9079
O5 O 0.7560(2) 0.29343(15) 0.6567(2)
C2 C 0.6251(3) 0.5580(2) 0.7271(3)
H4 H 0.6233 0.6068 0.7076
C3 C 0.6307(3) 0.4670(2) 0.8476(3)
H5 H 0.6327 0.4531 0.9107
C4 C 0.6296(3) 0.5401(2) 0.8228(3)
N3 N 0.6128(3) 0.66470(17) 0.8715(3)
H6 H 0.6058 0.6789 0.8116
C5 C 0.3362(4) 0.2274(2) 0.5883(3)
H7 H 0.3936 0.2121 0.6477
O6 O 0.8768(3) 0.6211(2) 0.9555(3)
C6 C 0.2584(3) 0.3008(2) 0.4332(3)
H8 H 0.2637 0.335 0.3881
C7 C 0.6286(4) 0.4143(2) 0.7770(3)
H9 H 0.6285 0.3651 0.7938
C8 C 0.6233(3) 0.5026(2) 0.6613(3)
H10 H 0.6196 0.5151 0.597
C9 C 0.6308(3) 0.5953(2) 0.8999(3)
C10 C 0.3454(3) 0.2786(2) 0.5214(3)
C11 C 0.8619(3) 0.3791(2) 0.7827(3)
C12 C 0.8372(3) 0.3023(2) 0.7411(3)
C13 C 0.4450(3) 0.3101(2) 0.5426(3)
C14 C 0.8674(4) 0.4344(2) 0.7195(4)
H11 H 0.8607 0.4235 0.6536
C15 C 0.8831(4) 0.5058(2) 0.7550(4)
H12 H 0.891 0.5425 0.7144
C16 C 0.8965(4) 0.6006(3) 0.8864(4)
C17 C 0.8723(4) 0.3957(2) 0.8813(4)
H13 H 0.8728 0.3581 0.9252
C18 C 0.8871(4) 0.5235(2) 0.8503(4)
O7 O 0.9274(4) 0.6441(2) 0.8333(4)
H14 H 0.932(5) 0.691(4) 0.845(5)
O2F O -0.0272(2) 0.21964(14) 0.3889(2)
O4F O 0.0491(2) 0.13478(15) 0.5070(2)
C5F C 0.1638(4) 0.2726(2) 0.4117(3)
H7F H 0.1064 0.2879 0.3523
C6F C 0.2416(3) 0.1992(2) 0.5668(3)
H8F H 0.2363 0.165 0.6119
C10F C 0.1546(3) 0.2214(2) 0.4786(3)
C13F C 0.0550(3) 0.1899(2) 0.4574(3)
Co1F Co -0.12403(4) 0.15075(3) 0.42051(4)
N1F N -0.1267(3) 0.06859(17) 0.3141(2)
O1F O -0.1432(2) -0.07453(14) 0.0127(2)
O3F O -0.3953(2) 0.24840(15) 0.2109(2)
C1F C -0.3818(4) 0.0328(3) 0.0858(4)
H1F H -0.3847 0.0217 0.0214
N2F N -0.1051(3) -0.21568(17) 0.0565(3)
H2F H -0.1482 -0.2533 0.0457
H3F H -0.0469 -0.2463 0.0921
O5F O -0.2560(2) 0.20657(15) 0.3433(2)
C2F C -0.1251(3) -0.0580(2) 0.2729(3)
H4F H -0.1233 -0.1068 0.2924
C3F C -0.1307(3) 0.0330(2) 0.1524(3)
H5F H -0.1327 0.0469 0.0893
C4F C -0.1296(3) -0.0401(2) 0.1772(3)
N3F N -0.1128(3) -0.16470(17) 0.1285(3)
H6F H -0.1058 -0.1789 0.1884
O6F O -0.3768(3) -0.1211(2) 0.0445(3)
C7F C -0.1286(4) 0.0857(2) 0.2230(3)
H9F H -0.1285 0.1349 0.2062
C8F C -0.1233(3) -0.0026(2) 0.3387(3)
H10F H -0.1196 -0.0151 0.403
C9F C -0.1308(3) -0.0953(2) 0.1001(3)
C11F C -0.3619(3) 0.1209(2) 0.2173(3)
C12F C -0.3372(3) 0.1977(2) 0.2589(3)
C14F C -0.3674(4) 0.0656(2) 0.2805(4)
H11F H -0.3607 0.0765 0.3464
C15F C -0.3831(4) -0.0058(2) 0.2450(4)
H12F H -0.391 -0.0425 0.2856
C16F C -0.3965(4) -0.1006(3) 0.1136(4)
C17F C -0.3723(4) 0.1043(2) 0.1187(4)
H13F H -0.3728 0.1419 0.0748
C18F C -0.3871(4) -0.0235(2) 0.1497(4)
O7F O -0.4274(4) -0.1441(2) 0.1667(4)
H14F H -0.432(5) -0.191(4) 0.155(5)
Co1C Co -0.12403(4) -0.15075(3) -0.07949(4)
Co1E Co 0.62403(4) 0.65075(3) 1.07949(4)
O1C O -0.1432(2) 0.07453(14) 0.5127(2)
O1E O 0.6432(2) 0.42547(14) 0.4873(2)
N2C N -0.1051(3) 0.21568(17) 0.5565(3)
N2E N 0.6051(3) 0.28432(17) 0.4435(3)
loop_
_geom_bond_atom_site_label_1
_geom_bond_atom_site_label_2
_geom_bond_site_symmetry_1
_geom_bond_site_symmetry_2
Co1 N1 1_555 1_555
N1 C7 1_555 1_555
O1 C9 1_555 1_555
O2 Co1 1_555 1_555
O3 C12 1_555 1_555
O4 Co1 1_555 1_555
C1 H1 1_555 1_555
N2 H2 1_555 1_555
H3 N2 1_555 1_555
O5 Co1 1_555 1_555
C2 H4 1_555 1_555
C3 H5 1_555 1_555
C4 C2 1_555 1_555
N3 N2 1_555 1_555
H6 N3 1_555 1_555
C5 H7 1_555 1_555
O6 C16 1_555 1_555
C6 H8 1_555 1_555
C7 C3 1_555 1_555
H9 C7 1_555 1_555
C8 N1 1_555 1_555
H10 C8 1_555 1_555
C9 C4 1_555 1_555
C10 C5 1_555 1_555
C11 C12 1_555 1_555
C12 O5 1_555 1_555
C13 O2 1_555 1_555
C14 C11 1_555 1_555
H11 C14 1_555 1_555
C15 C14 1_555 1_555
H12 C15 1_555 1_555
C16 C18 1_555 1_555
C17 C1 1_555 1_555
H13 C17 1_555 1_555
C18 C1 1_555 1_555
O7 C16 1_555 1_555
H14 O7 1_555 1_555
O2F C13F 1_555 1_555
O4F C13F 1_555 1_555
C5F C6 1_555 1_555
H7F C5F 1_555 1_555
C6F C5 1_555 1_555
H8F C6F 1_555 1_555
C10F C5F 1_555 1_555
C13F C10F 1_555 1_555
Co1F O2F 1_555 1_555
N1F Co1F 1_555 1_555
O1F C9F 1_555 1_555
O3F C12F 1_555 1_555
C1F H1F 1_555 1_555
N2F H2F 1_555 1_555
H3F N2F 1_555 1_555
O5F Co1F 1_555 1_555
C2F H4F 1_555 1_555
C3F H5F 1_555 1_555
C4F C2F 1_555 1_555
N3F N2F 1_555 1_555
H6F N3F 1_555 1_555
O6F C16F 1_555 1_555
C7F N1F 1_555 1_555
H9F C7F 1_555 1_555
C8F N1F 1_555 1_555
H10F C8F 1_555 1_555
C9F C4F 1_555 1_555
C11F C12F 1_555 1_555
C12F O5F 1_555 1_555
C14F C11F 1_555 1_555
H11F C14F 1_555 1_555
C15F C14F 1_555 1_555
H12F C15F 1_555 1_555
C16F C18F 1_555 1_555
C17F C1F 1_555 1_555
H13F C17F 1_555 1_555
C18F C1F 1_555 1_555
O7F C16F 1_555 1_555
H14F O7F 1_555 1_555
Co1C O1F 1_555 1_555
Co1E O1 1_555 1_555
O1C Co1F 1_555 1_555
O1E Co1 1_555 1_555
N2C Co1F 1_555 1_555
N2E Co1 1_555 1_555
O4 C13 1_555 1_555
N2 Co1E 1_555 1_555
C2 C8 1_555 1_555
C3 C4 1_555 1_555
N3 C9 1_555 1_555
C6 C10 1_555 1_555
C10 C13 1_555 1_555
C11 C17 1_555 1_555
C15 C18 1_555 1_555
O4F Co1F 1_555 1_555
C6F C10F 1_555 1_555
N2F Co1C 1_555 1_555
C2F C8F 1_555 1_555
C3F C4F 1_555 1_555
C3F C7F 1_555 1_555
N3F C9F 1_555 1_555
C11F C17F 1_555 1_555
C15F C18F 1_555 1_555

#END
