
#######################################################################
#
#                 Cambridge Crystallographic Data Centre
#                                CCDC 
#
#######################################################################
#
# If this CIF has been generated from an entry in the Cambridge 
# Structural Database, then it will include bibliographic, chemical, 
# crystal, experimental, refinement or atomic coordinate data resulting 
# from the CCDC's data processing and validation procedures.
#
#######################################################################

data_CIDDIE
_symmetry_cell_setting           triclinic
_symmetry_space_group_name_H-M   'P -1'
_symmetry_Int_Tables_number      2
_space_group_name_Hall           '-P 1'
loop_
_symmetry_equiv_pos_site_id
_symmetry_equiv_pos_as_xyz
1 x,y,z
2 -x,-y,-z
_cell_length_a                   7.775(2)
_cell_length_b                   10.371(3)
_cell_length_c                   10.484(3)
_cell_angle_alpha                92.643(3)
_cell_angle_beta                 107.411(3)
_cell_angle_gamma                106.529(4)
_cell_volume                     765.306
loop_
_atom_site_label
_atom_site_type_symbol
_atom_site_fract_x
_atom_site_fract_y
_atom_site_fract_z
Zn1 Zn -0.10569(4) -1.14513(3) -0.52538(3)
O1 O 0.7692(2) -1.08659(17) -0.39735(17)
O2 O 0.9281(2) -0.86456(17) -0.36367(18)
O3 O 0.2650(2) -0.94583(16) -0.33448(16)
O4 O 0.1060(2) -1.16716(17) -0.36513(18)
N1 N -0.2790(3) -1.33861(18) -0.59469(19)
N2 N -0.8685(3) -1.4734(2) -0.86487(19)
C1 C 0.4123(3) -1.0890(2) -0.2033(2)
C2 C 0.6017(3) -1.0317(2) -0.1959(2)
C3 C 0.7407(3) -1.0633(2) -0.0950(2)
H1 H 0.8696 -1.0278 -0.0905
C4 C 0.6966(4) -1.1446(3) -0.0013(2)
H2 H 0.7947 -1.1628 0.0675
C5 C 0.5095(4) -1.1996(2) -0.0080(2)
H3 H 0.4779 -1.2544 0.0568
C6 C 0.3693(3) -1.1736(2) -0.1101(2)
H4 H 0.2403 -1.2143 -0.1171
C7 C 0.6642(3) -0.9326(2) -0.2870(2)
H5 H 0.7257 -0.8409 -0.2335
H6 H 0.5499 -0.9296 -0.3593
C8 C 0.8004(3) -0.9648(2) -0.3524(2)
C9 C 0.2495(3) -1.0644(2) -0.3090(2)
C10 C -0.4679(3) -1.3642(2) -0.6394(2)
H7 H -0.5156 -1.2893 -0.6420
C11 C -0.5970(3) -1.4934(2) -0.6820(2)
C12 C -0.5259(4) -1.6022(2) -0.6783(2)
H8 H -0.6097 -1.6926 -0.7056
C13 C -0.3295(4) -1.5770(2) -0.6339(2)
H9 H -0.2779 -1.6500 -0.6312
C14 C -0.2122(3) -1.4450(2) -0.5940(2)
H10 H -0.0788 -1.4281 -0.5649
C15 C -0.8061(3) -1.5086(3) -0.7281(2)
H11 H -0.8794 -1.6036 -0.7272
H12 H -0.8317 -1.4487 -0.6647
C16 C -0.8764(3) -1.5795(3) -0.9657(2)
H13 H -0.9637 -1.6673 -0.9586
H14 H -0.7486 -1.5895 -0.9474
C17 C -1.0563(3) -1.4549(3) -0.8934(2)
H15 H -1.0492 -1.3809 -0.8271
H16 H -1.1483 -1.5394 -0.8843
N1A N -1.7210(3) -1.66139(18) -1.40531(19)
N2A N -1.1315(3) -1.5266(2) -1.13513(19)
C10A C -1.5321(3) -1.6358(2) -1.3606(2)
H7A H -1.4844 -1.7107 -1.3580
C11A C -1.4030(3) -1.5066(2) -1.3180(2)
C12A C -1.4741(4) -1.3978(2) -1.3217(2)
H8A H -1.3903 -1.3074 -1.2944
C13A C -1.6705(4) -1.4230(2) -1.3661(2)
H9A H -1.7221 -1.3500 -1.3688
C14A C -1.7878(3) -1.5550(2) -1.4060(2)
H10A H -1.9212 -1.5719 -1.4351
C15A C -1.1939(3) -1.4914(3) -1.2719(2)
H11A H -1.1206 -1.3964 -1.2728
H12A H -1.1683 -1.5513 -1.3353
C16A C -1.1236(3) -1.4205(3) -1.0343(2)
H13A H -1.0363 -1.3327 -1.0414
H14A H -1.2514 -1.4105 -1.0526
C17A C -0.9437(3) -1.5451(3) -1.1066(2)
H15A H -0.9508 -1.6191 -1.1729
H16A H -0.8517 -1.4606 -1.1157
Zn1A Zn -1.89431(4) -1.85487(3) -1.47462(3)
O1A O -2.7692(2) -1.91341(17) -1.60265(17)
O2A O -2.9281(2) -2.13544(17) -1.63633(18)
O3A O -2.2650(2) -2.05417(16) -1.66552(16)
O4A O -2.1060(2) -1.83284(17) -1.63487(18)
C1A C -2.4123(3) -1.9110(2) -1.7967(2)
C2A C -2.6017(3) -1.9683(2) -1.8041(2)
C3A C -2.7407(3) -1.9367(2) -1.9050(2)
H1A H -2.8696 -1.9722 -1.9095
C4A C -2.6966(4) -1.8554(3) -1.9987(2)
H2A H -2.7947 -1.8372 -2.0675
C5A C -2.5095(4) -1.8004(2) -1.9920(2)
H3A H -2.4779 -1.7456 -2.0568
C6A C -2.3693(3) -1.8264(2) -1.8899(2)
H4A H -2.2403 -1.7857 -1.8829
C7A C -2.6642(3) -2.0674(2) -1.7130(2)
H5A H -2.7257 -2.1591 -1.7665
H6A H -2.5499 -2.0704 -1.6407
C8A C -2.8004(3) -2.0352(2) -1.6476(2)
C9A C -2.2495(3) -1.9356(2) -1.6910(2)
Zn1_2 Zn -3.10569(4) -2.14513(3) -1.52538(3)
Zn1_3 Zn -2.10569(4) -2.14513(3) -1.52538(3)
Zn1_4 Zn 0.89431(4) -1.14513(3) -0.52538(3)
Zn1A_2 Zn -2.89431(4) -1.85487(3) -1.47462(3)
Zn1A_3 Zn 0.10569(4) -0.85487(3) -0.47462(3)
Zn1A_4 Zn 1.10569(4) -0.85487(3) -0.47462(3)
O1_2 O -0.2308(2) -1.08659(17) -0.39735(17)
O1A_2 O -1.7692(2) -1.91341(17) -1.60265(17)
O2_2 O -2.0719(2) -1.86456(17) -1.36367(18)
O2A_2 O 0.0719(2) -1.13544(17) -0.63633(18)
O3_2 O -1.7350(2) -1.94583(16) -1.33448(16)
O3A_2 O -0.2650(2) -1.05417(16) -0.66552(16)
loop_
_geom_bond_atom_site_label_1
_geom_bond_atom_site_label_2
_geom_bond_site_symmetry_1
_geom_bond_site_symmetry_2
Zn1 O4 1_555 1_555
O1 C8 1_555 1_555
O2 C8 1_555 1_555
O3 C9 1_555 1_555
O4 C9 1_555 1_555
N1 Zn1 1_555 1_555
N2 C15 1_555 1_555
C1 C2 1_555 1_555
C2 C3 1_555 1_555
C3 H1 1_555 1_555
C4 C3 1_555 1_555
H2 C4 1_555 1_555
C5 C4 1_555 1_555
H3 C5 1_555 1_555
C6 C1 1_555 1_555
H4 C6 1_555 1_555
C7 C2 1_555 1_555
H5 C7 1_555 1_555
H6 C7 1_555 1_555
C8 C7 1_555 1_555
C9 C1 1_555 1_555
C10 N1 1_555 1_555
H7 C10 1_555 1_555
C11 C10 1_555 1_555
C12 C11 1_555 1_555
H8 C12 1_555 1_555
C13 C12 1_555 1_555
H9 C13 1_555 1_555
C14 N1 1_555 1_555
H10 C14 1_555 1_555
C15 C11 1_555 1_555
H11 C15 1_555 1_555
H12 C15 1_555 1_555
C16 N2 1_555 1_555
H13 C16 1_555 1_555
H14 C16 1_555 1_555
C17 N2 1_555 1_555
H15 C17 1_555 1_555
H16 C17 1_555 1_555
N1A C10A 1_555 1_555
N2A C15A 1_555 1_555
C10A H7A 1_555 1_555
C11A C10A 1_555 1_555
C12A C11A 1_555 1_555
H8A C12A 1_555 1_555
C13A C12A 1_555 1_555
H9A C13A 1_555 1_555
C14A N1A 1_555 1_555
H10A C14A 1_555 1_555
C15A C11A 1_555 1_555
H11A C15A 1_555 1_555
H12A C15A 1_555 1_555
C16A C17 1_555 1_555
H13A C16A 1_555 1_555
H14A C16A 1_555 1_555
C17A C16 1_555 1_555
H15A C17A 1_555 1_555
H16A C17A 1_555 1_555
Zn1A N1A 1_555 1_555
O1A C8A 1_555 1_555
O2A C8A 1_555 1_555
O3A C9A 1_555 1_555
O4A Zn1A 1_555 1_555
C1A C2A 1_555 1_555
C2A C3A 1_555 1_555
C3A H1A 1_555 1_555
C4A C3A 1_555 1_555
H2A C4A 1_555 1_555
C5A C4A 1_555 1_555
H3A C5A 1_555 1_555
C6A C1A 1_555 1_555
H4A C6A 1_555 1_555
C7A C2A 1_555 1_555
H5A C7A 1_555 1_555
H6A C7A 1_555 1_555
C8A C7A 1_555 1_555
C9A O4A 1_555 1_555
Zn1_2 O2A 1_555 1_555
Zn1_3 O3A 1_555 1_555
Zn1_4 O1 1_555 1_555
Zn1A_2 O1A 1_555 1_555
Zn1A_3 O3 1_555 1_555
Zn1A_4 O2 1_555 1_555
O1_2 Zn1 1_555 1_555
O1A_2 Zn1A 1_555 1_555
O2_2 Zn1A 1_555 1_555
O2A_2 Zn1 1_555 1_555
O3_2 Zn1A 1_555 1_555
O3A_2 Zn1 1_555 1_555
C5 C6 1_555 1_555
C13 C14 1_555 1_555
N2A C16A 1_555 1_555
N2A C17A 1_555 1_555
C13A C14A 1_555 1_555
C1A C9A 1_555 1_555
C5A C6A 1_555 1_555

#END
