
#######################################################################
#
#                 Cambridge Crystallographic Data Centre
#                                CCDC 
#
#######################################################################
#
# If this CIF has been generated from an entry in the Cambridge 
# Structural Database, then it will include bibliographic, chemical, 
# crystal, experimental, refinement or atomic coordinate data resulting 
# from the CCDC's data processing and validation procedures.
#
#######################################################################

data_CIDDUQ
_symmetry_cell_setting           triclinic
_symmetry_space_group_name_H-M   'P -1'
_symmetry_Int_Tables_number      2
_space_group_name_Hall           '-P 1'
loop_
_symmetry_equiv_pos_site_id
_symmetry_equiv_pos_as_xyz
1 x,y,z
2 -x,-y,-z
_cell_length_a                   7.4031(9)
_cell_length_b                   11.9709(14)
_cell_length_c                   16.4265(19)
_cell_angle_alpha                97.7060(10)
_cell_angle_beta                 96.6610(10)
_cell_angle_gamma                106.4890(10)
_cell_volume                     1364.97
loop_
_atom_site_label
_atom_site_type_symbol
_atom_site_fract_x
_atom_site_fract_y
_atom_site_fract_z
Co1 Co 0.5000 0.5000 0.0000
O1 O 0.57013(16) 0.16758(9) 0.04620(8)
O2 O 0.37690(19) 0.71262(10) 0.40885(7)
O3 O 1.02501(17) 0.71718(10) 0.11735(7)
O4 O 0.78711(14) 0.57534(9) 0.03799(6)
O5 O 0.49129(14) 0.32714(9) 0.02429(6)
N1 N 0.40897(19) 0.53636(12) 0.43157(8)
N2 N 0.44621(17) 0.54643(11) 0.12375(7)
C1 C 0.9349(2) 0.53866(17) 0.31959(11)
H1 H 0.9623 0.5797 0.3754
C2 C 0.8831(2) 0.41628(17) 0.30310(11)
H2 H 0.8725 0.3727 0.3475
C3 C 0.4933(2) 0.43940(14) 0.41670(9)
H3 H 0.5424 0.4398 0.3632
H4 H 0.3945 0.3625 0.4134
C4 C 0.8468(2) 0.35780(15) 0.22176(11)
H5 H 0.8146 0.2739 0.2110
C5 C 0.4268(2) 0.59057(14) 0.29345(9)
C6 C 0.5227(2) 0.67965(14) 0.25400(9)
H6 H 0.5830 0.7574 0.2843
C7 C 0.3447(2) 0.54509(15) 0.51266(9)
H7 H 0.2400 0.4725 0.5136
H8 H 0.2941 0.6133 0.5208
C8 C 0.8562(2) 0.41879(13) 0.15496(10)
C9 C 0.5295(2) 0.65391(13) 0.17017(9)
H9 H 0.5968 0.7156 0.1441
C10 C 0.3466(2) 0.46193(14) 0.16160(9)
H10 H 0.2812 0.3861 0.1291
C11 C 0.3346(2) 0.47983(14) 0.24530(9)
H11 H 0.2642 0.4171 0.2697
C12 C 0.8225(2) 0.34815(13) 0.06763(10)
H12 H 0.8586 0.4026 0.0278
H13 H 0.9027 0.2946 0.0657
C13 C 0.6138(2) 0.27638(13) 0.04332(9)
C14 C 0.9464(2) 0.60082(15) 0.25420(10)
H14 H 0.9842 0.6848 0.2656
C15 C 0.9058(2) 0.61577(13) 0.10432(9)
C16 C 0.4068(2) 0.61843(14) 0.38351(9)
C17 C 0.9035(2) 0.54221(13) 0.17180(9)
O2A O 0.62310(19) 0.28738(10) 0.59115(7)
N1A N 0.59103(19) 0.46364(12) 0.56843(8)
N2A N 0.55379(17) 0.45357(11) 0.87625(7)
C3A C 0.5067(2) 0.56060(14) 0.58330(9)
H3A H 0.4576 0.5602 0.6368
H4A H 0.6055 0.6375 0.5866
C5A C 0.5732(2) 0.40943(14) 0.70655(9)
C6A C 0.4773(2) 0.32035(14) 0.74600(9)
H6A H 0.4170 0.2426 0.7157
C7A C 0.6553(2) 0.45491(15) 0.48734(9)
H7A H 0.7600 0.5275 0.4864
H8A H 0.7059 0.3867 0.4792
C9A C 0.4705(2) 0.34609(13) 0.82983(9)
H9A H 0.4032 0.2844 0.8559
C10A C 0.6534(2) 0.53807(14) 0.83840(9)
H10A H 0.7188 0.6139 0.8709
C11A C 0.6654(2) 0.52017(14) 0.75470(9)
H11A H 0.7358 0.5829 0.7303
C16A C 0.5932(2) 0.38157(14) 0.61649(9)
O1A O 0.42987(16) 0.83242(9) -0.04620(8)
O3A O -0.02501(17) 0.28282(10) -0.11735(7)
O4A O 0.21289(14) 0.42466(9) -0.03799(6)
O5A O 0.50871(14) 0.67286(9) -0.02429(6)
C1A C 0.0651(2) 0.46134(17) -0.31959(11)
H1A H 0.0377 0.4203 -0.3754
C2A C 0.1169(2) 0.58372(17) -0.30310(11)
H2A H 0.1275 0.6273 -0.3475
C4A C 0.1532(2) 0.64220(15) -0.22176(11)
H5A H 0.1854 0.7261 -0.2110
C8A C 0.1438(2) 0.58121(13) -0.15496(10)
C12A C 0.1775(2) 0.65185(13) -0.06763(10)
H12A H 0.1414 0.5974 -0.0278
H13A H 0.0973 0.7054 -0.0657
C13A C 0.3862(2) 0.72362(13) -0.04332(9)
C14A C 0.0536(2) 0.39918(15) -0.25420(10)
H14A H 0.0158 0.3152 -0.2656
C15A C 0.0942(2) 0.38423(13) -0.10432(9)
C17A C 0.0965(2) 0.45779(13) -0.17180(9)
Co1_2 Co 0.5000 0.5000 1.0000
N2A_2 N 0.55379(17) 0.45357(11) -0.12375(7)
Co2 Co 1.0000 0.0000 0.0000
O6 O 1.05520(19) 0.25455(10) 0.42154(7)
O7 O 1.27209(15) -0.01843(10) 0.03334(7)
H15 H 1.359(2) 0.0463(13) 0.0364(11)
H16 H 1.302(3) -0.0714(14) 0.0043(10)
O8 O 0.87658(16) -0.17365(9) 0.00863(7)
H17 H 0.935(2) -0.2052(16) 0.0414(10)
H18 H 0.761(2) -0.2177(15) -0.0034(11)
N3 N 0.9510(2) 0.06324(12) 0.43899(8)
N4 N 0.99948(18) 0.05270(11) 0.13110(8)
C18 C 0.9262(3) 0.09507(16) 0.52509(10)
H19 H 0.7942 0.0537 0.5320
H20 H 0.9463 0.1813 0.5382
C19 C 0.9341(3) -0.06182(15) 0.41527(10)
H21 H 0.9611 -0.0769 0.3579
H22 H 0.8023 -0.1109 0.4165
C20 C 1.0069(2) 0.10932(14) 0.30209(9)
C21 C 1.1689(2) 0.15134(14) 0.26673(10)
H23 H 1.2849 0.2000 0.3004
C22 C 0.8434(2) 0.01285(14) 0.16576(10)
H24 H 0.7293 -0.0358 0.1307
C23 C 1.0094(2) 0.14837(14) 0.39345(10)
C24 C 0.8406(2) 0.03913(15) 0.25001(10)
H25 H 0.7266 0.0096 0.2720
C25 C 1.1590(2) 0.12143(14) 0.18209(10)
H26 H 1.2706 0.1509 0.1585
O6A O 0.94480(19) -0.25455(10) 0.57846(7)
N3A N 1.0490(2) -0.06324(12) 0.56101(8)
N4A N 1.00052(18) -0.05270(11) 0.86890(8)
C18A C 1.0738(3) -0.09507(16) 0.47491(10)
H19A H 1.2058 -0.0537 0.4680
H20A H 1.0537 -0.1813 0.4618
C19A C 1.0659(3) 0.06182(15) 0.58473(10)
H21A H 1.0389 0.0769 0.6421
H22A H 1.1977 0.1109 0.5835
C20A C 0.9931(2) -0.10932(14) 0.69791(9)
C21A C 0.8311(2) -0.15134(14) 0.73327(10)
H23A H 0.7151 -0.2000 0.6996
C22A C 1.1566(2) -0.01285(14) 0.83424(10)
H24A H 1.2707 0.0358 0.8693
C23A C 0.9906(2) -0.14837(14) 0.60655(10)
C24A C 1.1594(2) -0.03913(15) 0.74999(10)
H25A H 1.2734 -0.0096 0.7280
C25A C 0.8410(2) -0.12143(14) 0.81791(10)
H26A H 0.7294 -0.1509 0.8415
O7A O 0.72791(15) 0.01843(10) -0.03334(7)
H15A H 0.641(2) -0.0463(13) -0.0364(11)
H16A H 0.698(3) 0.0714(14) -0.0043(10)
O8A O 1.12342(16) 0.17365(9) -0.00863(7)
H17A H 1.065(2) 0.2052(16) -0.0414(10)
H18A H 1.239(2) 0.2177(15) 0.0034(11)
Co2_2 Co 1.0000 0.0000 1.0000
N4A_2 N 1.00052(18) -0.05270(11) -0.13110(8)
O9 O 0.36609(19) -0.11598(12) 0.18030(8)
H27 H 0.346(3) -0.0706(17) 0.1469(12)
H28 H 0.270(3) -0.1786(15) 0.1662(13)
O10 O 0.4142(3) -0.07024(13) 0.35107(10)
H29 H 0.386(4) -0.084(2) 0.2974(11)
H30 H 0.395(4) -0.1372(18) 0.3655(16)
O11 O 0.5015(4) 0.83386(16) 0.58189(12)
H31 H 0.501(5) 0.9041(18) 0.5976(19)
H32 H 0.468(5) 0.817(3) 0.5300(11)
loop_
_geom_bond_atom_site_label_1
_geom_bond_atom_site_label_2
_geom_bond_site_symmetry_1
_geom_bond_site_symmetry_2
Co1 O4 1_555 1_555
O1 C13 1_555 1_555
O2 C16 1_555 1_555
O3 C15 1_555 1_555
O4 C15 1_555 1_555
O5 Co1 1_555 1_555
N1 C3 1_555 1_555
N2 Co1 1_555 1_555
C1 H1 1_555 1_555
C2 C1 1_555 1_555
H2 C2 1_555 1_555
C3 H3 1_555 1_555
H4 C3 1_555 1_555
C4 C2 1_555 1_555
H5 C4 1_555 1_555
C5 C6 1_555 1_555
C6 H6 1_555 1_555
C7 N1 1_555 1_555
H7 C7 1_555 1_555
H8 C7 1_555 1_555
C8 C4 1_555 1_555
C9 N2 1_555 1_555
H9 C9 1_555 1_555
C10 N2 1_555 1_555
H10 C10 1_555 1_555
C11 C5 1_555 1_555
H11 C11 1_555 1_555
C12 C8 1_555 1_555
H12 C12 1_555 1_555
H13 C12 1_555 1_555
C13 O5 1_555 1_555
C14 C1 1_555 1_555
H14 C14 1_555 1_555
C15 C17 1_555 1_555
C16 N1 1_555 1_555
C17 C8 1_555 1_555
Co2 O7 1_555 1_555
O6 C23 1_555 1_555
O7 H15 1_555 1_555
H16 O7 1_555 1_555
O8 Co2 1_555 1_555
H17 O8 1_555 1_555
H18 O8 1_555 1_555
N3 C18 1_555 1_555
N4 Co2 1_555 1_555
C18 H19 1_555 1_555
H20 C18 1_555 1_555
C19 N3 1_555 1_555
H21 C19 1_555 1_555
H22 C19 1_555 1_555
C20 C21 1_555 1_555
C21 H23 1_555 1_555
C22 N4 1_555 1_555
H24 C22 1_555 1_555
C23 N3 1_555 1_555
C24 C20 1_555 1_555
H25 C24 1_555 1_555
C25 N4 1_555 1_555
H26 C25 1_555 1_555
O9 H27 1_555 1_555
H28 O9 1_555 1_555
O10 H29 1_555 1_555
H30 O10 1_555 1_555
O11 H31 1_555 1_555
H32 O11 1_555 1_555
O2A C16A 1_555 1_555
N1A C3A 1_555 1_555
N2A C9A 1_555 1_555
C3A C7 1_555 1_555
H3A C3A 1_555 1_555
H4A C3A 1_555 1_555
C5A C6A 1_555 1_555
C6A H6A 1_555 1_555
C7A C3 1_555 1_555
H7A C7A 1_555 1_555
H8A C7A 1_555 1_555
C9A C6A 1_555 1_555
H9A C9A 1_555 1_555
C10A N2A 1_555 1_555
H10A C10A 1_555 1_555
C11A C5A 1_555 1_555
H11A C11A 1_555 1_555
C16A N1A 1_555 1_555
O1A C13A 1_555 1_555
O3A C15A 1_555 1_555
O4A Co1 1_555 1_555
O5A Co1 1_555 1_555
C1A H1A 1_555 1_555
C2A C1A 1_555 1_555
H2A C2A 1_555 1_555
C4A C2A 1_555 1_555
H5A C4A 1_555 1_555
C8A C4A 1_555 1_555
C12A C8A 1_555 1_555
H12A C12A 1_555 1_555
H13A C12A 1_555 1_555
C13A O5A 1_555 1_555
C14A C1A 1_555 1_555
H14A C14A 1_555 1_555
C15A O4A 1_555 1_555
C17A C8A 1_555 1_555
Co1_2 N2A 1_555 1_555
N2A_2 Co1 1_555 1_555
O6A C23A 1_555 1_555
N3A C18A 1_555 1_555
N4A C22A 1_555 1_555
C18A C19 1_555 1_555
H19A C18A 1_555 1_555
H20A C18A 1_555 1_555
C19A C18 1_555 1_555
H21A C19A 1_555 1_555
H22A C19A 1_555 1_555
C20A C21A 1_555 1_555
C21A H23A 1_555 1_555
C22A H24A 1_555 1_555
C23A N3A 1_555 1_555
C24A C20A 1_555 1_555
H25A C24A 1_555 1_555
C25A N4A 1_555 1_555
H26A C25A 1_555 1_555
O7A Co2 1_555 1_555
H15A O7A 1_555 1_555
H16A O7A 1_555 1_555
O8A Co2 1_555 1_555
H17A O8A 1_555 1_555
H18A O8A 1_555 1_555
Co2_2 N4A 1_555 1_555
N4A_2 Co2 1_555 1_555
C5 C16 1_555 1_555
C6 C9 1_555 1_555
C10 C11 1_555 1_555
C12 C13 1_555 1_555
C14 C17 1_555 1_555
C20 C23 1_555 1_555
C21 C25 1_555 1_555
C22 C24 1_555 1_555
N1A C7A 1_555 1_555
C5A C16A 1_555 1_555
C10A C11A 1_555 1_555
C12A C13A 1_555 1_555
C14A C17A 1_555 1_555
C15A C17A 1_555 1_555
N3A C19A 1_555 1_555
C20A C23A 1_555 1_555
C21A C25A 1_555 1_555
C22A C24A 1_555 1_555

#END
