
#######################################################################
#
#                 Cambridge Crystallographic Data Centre
#                                CCDC 
#
#######################################################################
#
# If this CIF has been generated from an entry in the Cambridge 
# Structural Database, then it will include bibliographic, chemical, 
# crystal, experimental, refinement or atomic coordinate data resulting 
# from the CCDC's data processing and validation procedures.
#
#######################################################################

data_CIDFUR
_symmetry_cell_setting           monoclinic
_symmetry_space_group_name_H-M   'C 2/m'
_symmetry_Int_Tables_number      12
_space_group_name_Hall           '-C 2y'
loop_
_symmetry_equiv_pos_site_id
_symmetry_equiv_pos_as_xyz
1 x,y,z
2 1/2+x,1/2+y,z
3 -x,y,-z
4 1/2-x,1/2+y,-z
5 -x,-y,-z
6 1/2-x,1/2-y,-z
7 x,-y,z
8 1/2+x,1/2-y,z
_cell_length_a                   8.3053(14)
_cell_length_b                   7.2256(13)
_cell_length_c                   8.4336(15)
_cell_angle_alpha                90
_cell_angle_beta                 112.205(3)
_cell_angle_gamma                90
_cell_volume                     468.573
loop_
_atom_site_label
_atom_site_type_symbol
_atom_site_fract_x
_atom_site_fract_y
_atom_site_fract_z
Cu1 Cu 0.0000 0.0000 0.0000
O1 O 0.2499(3) 0.0000 0.1380(4)
O2 O 0.1734(4) 0.0000 0.3619(4)
O3 O 0.0000 0.2728(5) 0.0000
H1 H 0.0786 0.3334 -0.0196
C1 C 0.2846(5) 0.0000 0.2982(5)
C2 C 0.4773(5) 0.0000 0.4059(6)
H2 H 0.5292 0.1081 0.3762
Cu1_2 Cu 1.0000 0.0000 1.0000
O1D O 0.7501(3) 0.0000 0.8620(4)
O1D_2 O -0.2499(3) 0.0000 -0.1380(4)
O2D O 0.8266(4) 0.0000 0.6381(4)
O3F O 0.0000 -0.2728(5) 0.0000
H1B H -0.0786 0.3334 0.0196
H1F H 0.0786 -0.3334 -0.0196
H1D H -0.0786 -0.3334 0.0196
C1D C 0.7154(5) 0.0000 0.7018(5)
C2D C 0.5227(5) 0.0000 0.5941(6)
H2D H 0.4708 -0.1081 0.6238
H2B H 0.4708 0.1081 0.6238
H2F H 0.5292 -0.1081 0.3762
O4 O 0.3121(5) 0.5000 0.2867(5)
H3 H 0.3578 0.5963 0.3244
H3F H 0.3578 0.4037 0.3244
loop_
_geom_bond_atom_site_label_1
_geom_bond_atom_site_label_2
_geom_bond_site_symmetry_1
_geom_bond_site_symmetry_2
Cu1 O1 1_555 1_555
O1 C1 1_555 1_555
O2 C1 1_555 1_555
O3 Cu1 1_555 1_555
H1 O3 1_555 1_555
C1 C2 1_555 1_555
C2 H2 1_555 1_555
O4 H3 1_555 1_555
Cu1_2 O1D 1_555 1_555
O1D C1D 1_555 1_555
O1D_2 Cu1 1_555 1_555
O2D C1D 1_555 1_555
O3F Cu1 1_555 1_555
H1B O3 1_555 1_555
H1F O3F 1_555 1_555
H1D O3F 1_555 1_555
C1D C2D 1_555 1_555
C2D C2 1_555 1_555
H2D C2D 1_555 1_555
H2B C2D 1_555 1_555
H2F C2 1_555 1_555
H3F O4 1_555 1_555

#END
