
#######################################################################
#
#                 Cambridge Crystallographic Data Centre
#                                CCDC 
#
#######################################################################
#
# If this CIF has been generated from an entry in the Cambridge 
# Structural Database, then it will include bibliographic, chemical, 
# crystal, experimental, refinement or atomic coordinate data resulting 
# from the CCDC's data processing and validation procedures.
#
#######################################################################

data_CIDGON
_symmetry_cell_setting           triclinic
_symmetry_space_group_name_H-M   'P -1'
_symmetry_Int_Tables_number      2
_space_group_name_Hall           '-P 1'
loop_
_symmetry_equiv_pos_site_id
_symmetry_equiv_pos_as_xyz
1 x,y,z
2 -x,-y,-z
_cell_length_a                   7.2297(4)
_cell_length_b                   12.8247(7)
_cell_length_c                   13.4064(8)
_cell_angle_alpha                73.407(2)
_cell_angle_beta                 82.355(3)
_cell_angle_gamma                81.246(2)
_cell_volume                     1172.11
loop_
_atom_site_label
_atom_site_type_symbol
_atom_site_fract_x
_atom_site_fract_y
_atom_site_fract_z
Cd1 Cd 0.0000 0.0000 0.0000
Cd2 Cd 0.0000 0.0000 0.5000
N1 N 0.1399(4) 0.0461(2) 0.1374(2)
C1 C 0.1629(5) 0.1649(3) 0.1065(3)
H1 H 0.2274 0.1843 0.0367
H2 H 0.0398 0.2075 0.1046
N2 N 0.2689(4) 0.1927(3) 0.1785(2)
C2 C 0.1681(6) 0.1640(3) 0.2836(3)
H3 H 0.0448 0.2064 0.2825
H4 H 0.2367 0.1828 0.3322
N3 N 0.1466(4) 0.0445(2) 0.3202(2)
C3 C 0.3378(5) -0.0180(3) 0.3193(3)
H5 H 0.4083 -0.0013 0.3684
H6 H 0.3269 -0.0959 0.3419
N4 N 0.4405(4) 0.0091(3) 0.2145(2)
C4 C 0.3304(5) -0.0171(3) 0.1418(3)
H7 H 0.3183 -0.0949 0.1638
H8 H 0.3970 -0.0008 0.0724
C5 C 0.4553(5) 0.1271(3) 0.1817(3)
H9 H 0.5235 0.1458 0.1128
H10 H 0.5260 0.1450 0.2299
C6 C 0.0413(5) 0.0188(3) 0.2444(3)
H11 H -0.0829 0.0600 0.2435
H12 H 0.0263 -0.0586 0.2664
O1 O 0.1805(5) -0.1648(3) 0.0360(3)
C7 C 0.1423(5) -0.2547(3) 0.0961(3)
O2 O -0.0111(5) -0.2743(3) 0.1467(4)
C8 C 0.3010(6) -0.3473(4) 0.1050(3)
C9 C 0.2631(5) -0.4555(4) 0.1316(3)
H13 H 0.1391 -0.4709 0.1435
C10 C 0.4102(6) -0.5416(4) 0.1404(4)
H14 H 0.3863 -0.6141 0.1570
C11 C 0.5908(6) -0.5150(4) 0.1237(4)
C12 C 0.6353(5) -0.4082(4) 0.0972(3)
H15 H 0.7595 -0.3934 0.0865
C13 C 0.4869(6) -0.3244(3) 0.0875(3)
H16 H 0.5119 -0.2520 0.0690
N5 N 0.7463(5) -0.6042(3) 0.1351(3)
O3 O 0.7097(6) -0.6985(3) 0.1667(5)
O4 O 0.9063(5) -0.5818(3) 0.1153(4)
O5 O 0.1516(5) -0.1739(3) 0.5370(3)
C14 C 0.3169(6) -0.2065(3) 0.5601(3)
O6 O 0.4382(5) -0.1476(3) 0.5607(3)
C15 C 0.3675(8) -0.3290(4) 0.5888(4)
C16 C 0.2288(9) -0.3993(5) 0.6156(4)
H17 H 0.1030 -0.3701 0.6142
C17 C 0.2761(11) -0.5129(5) 0.6448(5)
H18 H 0.1837 -0.5599 0.6660
C18 C 0.4614(12) -0.5524(5) 0.6410(4)
C19 C 0.6042(11) -0.4874(6) 0.6147(5)
H19 H 0.7293 -0.5183 0.6140
C20 C 0.5571(9) -0.3734(5) 0.5890(4)
H20 H 0.6510 -0.3275 0.5722
N6 N 0.5176(12) -0.6724(4) 0.6695(4)
O7 O 0.6831(13) -0.7074(5) 0.6703(6)
O8 O 0.3929(13) -0.7302(4) 0.6901(5)
O9 O -0.2313(4) -0.0845(3) 0.1168(2)
H21 H -0.320(5) -0.064(4) 0.157(3)
H22 H -0.179(6) -0.148(2) 0.143(4)
O10 O 0.2314(5) 0.0680(5) 0.5560(3)
H23 H 0.310(9) 0.007(3) 0.559(7)
H24 H 0.290(9) 0.122(3) 0.524(6)
N1A N -0.1399(4) -0.0461(2) -0.1374(2)
C1A C -0.1629(5) -0.1649(3) -0.1065(3)
H1A H -0.2274 -0.1843 -0.0367
H2A H -0.0398 -0.2075 -0.1046
N2A N -0.2689(4) -0.1927(3) -0.1785(2)
C2A C -0.1681(6) -0.1640(3) -0.2836(3)
H3A H -0.0448 -0.2064 -0.2825
H4A H -0.2367 -0.1828 -0.3322
N3A N -0.1466(4) -0.0445(2) -0.3202(2)
C3A C -0.3378(5) 0.0180(3) -0.3193(3)
H5A H -0.4083 0.0013 -0.3684
H6A H -0.3269 0.0959 -0.3419
N4A N -0.4405(4) -0.0091(3) -0.2145(2)
C4A C -0.3304(5) 0.0171(3) -0.1418(3)
H7A H -0.3183 0.0949 -0.1638
H8A H -0.3970 0.0008 -0.0724
C5A C -0.4553(5) -0.1271(3) -0.1817(3)
H9A H -0.5235 -0.1458 -0.1128
H10A H -0.5260 -0.1450 -0.2299
C6A C -0.0413(5) -0.0188(3) -0.2444(3)
H11A H 0.0829 -0.0600 -0.2435
H12A H -0.0263 0.0586 -0.2664
O1A O -0.1805(5) 0.1648(3) -0.0360(3)
C7A C -0.1423(5) 0.2547(3) -0.0961(3)
O2A O 0.0111(5) 0.2743(3) -0.1467(4)
C8A C -0.3010(6) 0.3473(4) -0.1050(3)
C9A C -0.2631(5) 0.4555(4) -0.1316(3)
H13A H -0.1391 0.4709 -0.1435
C10A C -0.4102(6) 0.5416(4) -0.1404(4)
H14A H -0.3863 0.6141 -0.1570
C11A C -0.5908(6) 0.5150(4) -0.1237(4)
C12A C -0.6353(5) 0.4082(4) -0.0972(3)
H15A H -0.7595 0.3934 -0.0865
C13A C -0.4869(6) 0.3244(3) -0.0875(3)
H16A H -0.5119 0.2520 -0.0690
N5A N -0.7463(5) 0.6042(3) -0.1351(3)
O3A O -0.7097(6) 0.6985(3) -0.1667(5)
O4A O -0.9063(5) 0.5818(3) -0.1153(4)
O9A O 0.2313(4) 0.0845(3) -0.1168(2)
H21A H 0.320(5) 0.064(4) -0.157(3)
H22A H 0.179(6) 0.148(2) -0.143(4)
O5A O -0.1516(5) 0.1739(3) 0.4630(3)
C14A C -0.3169(6) 0.2065(3) 0.4399(3)
O6A O -0.4382(5) 0.1476(3) 0.4393(3)
C15A C -0.3675(8) 0.3290(4) 0.4112(4)
C16A C -0.2288(9) 0.3993(5) 0.3844(4)
H17A H -0.1030 0.3701 0.3858
C17A C -0.2761(11) 0.5129(5) 0.3552(5)
H18A H -0.1837 0.5599 0.3340
C18A C -0.4614(12) 0.5524(5) 0.3590(4)
C19A C -0.6042(11) 0.4874(6) 0.3853(5)
H19A H -0.7293 0.5183 0.3860
C20A C -0.5571(9) 0.3734(5) 0.4110(4)
H20A H -0.6510 0.3275 0.4278
N6A N -0.5176(12) 0.6724(4) 0.3305(4)
O7A O -0.6831(13) 0.7074(5) 0.3297(6)
O8A O -0.3929(13) 0.7302(4) 0.3099(5)
O10A O -0.2314(5) -0.0680(5) 0.4440(3)
H23A H -0.310(9) -0.007(3) 0.441(7)
H24A H -0.290(9) -0.122(3) 0.476(6)
Cd2_2 Cd 0.0000 0.0000 -0.5000
N3A_2 N -0.1466(4) -0.0445(2) 0.6798(2)
O11 O 1.0525(16) -0.7233(9) 0.6022(8)
H25 H 0.964(3) -0.719(14) 0.650(5)
H26 H 1.159(4) -0.739(9) 0.628(5)
loop_
_geom_bond_atom_site_label_1
_geom_bond_atom_site_label_2
_geom_bond_site_symmetry_1
_geom_bond_site_symmetry_2
Cd1 N1 1_555 1_555
Cd2 N3 1_555 1_555
N1 C1 1_555 1_555
C1 H1 1_555 1_555
H2 C1 1_555 1_555
N2 C1 1_555 1_555
C2 N2 1_555 1_555
H3 C2 1_555 1_555
H4 C2 1_555 1_555
N3 C2 1_555 1_555
C3 N3 1_555 1_555
H5 C3 1_555 1_555
H6 C3 1_555 1_555
N4 C3 1_555 1_555
C4 N1 1_555 1_555
H7 C4 1_555 1_555
H8 C4 1_555 1_555
C5 N2 1_555 1_555
H9 C5 1_555 1_555
H10 C5 1_555 1_555
C6 N1 1_555 1_555
H11 C6 1_555 1_555
H12 C6 1_555 1_555
O1 Cd1 1_555 1_555
C7 O1 1_555 1_555
O2 C7 1_555 1_555
C8 C7 1_555 1_555
C9 C8 1_555 1_555
H13 C9 1_555 1_555
C10 C9 1_555 1_555
H14 C10 1_555 1_555
C11 C10 1_555 1_555
C12 C11 1_555 1_555
H15 C12 1_555 1_555
C13 C8 1_555 1_555
H16 C13 1_555 1_555
N5 C11 1_555 1_555
O3 N5 1_555 1_555
O4 N5 1_555 1_555
O5 Cd2 1_555 1_555
C14 O5 1_555 1_555
O6 C14 1_555 1_555
C15 C14 1_555 1_555
C16 C15 1_555 1_555
H17 C16 1_555 1_555
C17 C16 1_555 1_555
H18 C17 1_555 1_555
C18 C17 1_555 1_555
C19 C18 1_555 1_555
H19 C19 1_555 1_555
C20 C15 1_555 1_555
H20 C20 1_555 1_555
N6 C18 1_555 1_555
O7 N6 1_555 1_555
O8 N6 1_555 1_555
O9 Cd1 1_555 1_555
H21 O9 1_555 1_555
H22 O9 1_555 1_555
O10 Cd2 1_555 1_555
H23 O10 1_555 1_555
H24 O10 1_555 1_555
O11 H25 1_555 1_555
H26 O11 1_555 1_555
N1A Cd1 1_555 1_555
C1A N1A 1_555 1_555
H1A C1A 1_555 1_555
H2A C1A 1_555 1_555
N2A C1A 1_555 1_555
C2A N2A 1_555 1_555
H3A C2A 1_555 1_555
H4A C2A 1_555 1_555
N3A C2A 1_555 1_555
C3A N3A 1_555 1_555
H5A C3A 1_555 1_555
H6A C3A 1_555 1_555
N4A C3A 1_555 1_555
C4A N1A 1_555 1_555
H7A C4A 1_555 1_555
H8A C4A 1_555 1_555
C5A N2A 1_555 1_555
H9A C5A 1_555 1_555
H10A C5A 1_555 1_555
C6A N1A 1_555 1_555
H11A C6A 1_555 1_555
H12A C6A 1_555 1_555
O1A Cd1 1_555 1_555
C7A O1A 1_555 1_555
O2A C7A 1_555 1_555
C8A C7A 1_555 1_555
C9A C8A 1_555 1_555
H13A C9A 1_555 1_555
C10A C9A 1_555 1_555
H14A C10A 1_555 1_555
C11A C10A 1_555 1_555
C12A C11A 1_555 1_555
H15A C12A 1_555 1_555
C13A C8A 1_555 1_555
H16A C13A 1_555 1_555
N5A C11A 1_555 1_555
O3A N5A 1_555 1_555
O4A N5A 1_555 1_555
O9A Cd1 1_555 1_555
H21A O9A 1_555 1_555
H22A O9A 1_555 1_555
O5A Cd2 1_555 1_555
C14A O5A 1_555 1_555
O6A C14A 1_555 1_555
C15A C14A 1_555 1_555
C16A C15A 1_555 1_555
H17A C16A 1_555 1_555
C17A C16A 1_555 1_555
H18A C17A 1_555 1_555
C18A C17A 1_555 1_555
C19A C18A 1_555 1_555
H19A C19A 1_555 1_555
C20A C15A 1_555 1_555
H20A C20A 1_555 1_555
N6A C18A 1_555 1_555
O7A N6A 1_555 1_555
O8A N6A 1_555 1_555
O10A Cd2 1_555 1_555
H23A O10A 1_555 1_555
H24A O10A 1_555 1_555
Cd2_2 N3A 1_555 1_555
N3A_2 Cd2 1_555 1_555
N3 C6 1_555 1_555
N4 C4 1_555 1_555
N4 C5 1_555 1_555
C12 C13 1_555 1_555
C19 C20 1_555 1_555
N3A C6A 1_555 1_555
N4A C4A 1_555 1_555
N4A C5A 1_555 1_555
C12A C13A 1_555 1_555
C19A C20A 1_555 1_555

#END
