
#######################################################################
#
#                 Cambridge Crystallographic Data Centre
#                                CCDC 
#
#######################################################################
#
# If this CIF has been generated from an entry in the Cambridge 
# Structural Database, then it will include bibliographic, chemical, 
# crystal, experimental, refinement or atomic coordinate data resulting 
# from the CCDC's data processing and validation procedures.
#
#######################################################################

data_CIDHEE
_symmetry_cell_setting           monoclinic
_symmetry_space_group_name_H-M   'P 21/c'
_symmetry_Int_Tables_number      14
_space_group_name_Hall           '-P 2ybc'
loop_
_symmetry_equiv_pos_site_id
_symmetry_equiv_pos_as_xyz
1 x,y,z
2 -x,1/2+y,1/2-z
3 -x,-y,-z
4 x,1/2-y,1/2+z
_cell_length_a                   12.3418(3)
_cell_length_b                   12.8106(3)
_cell_length_c                   15.3894(4)
_cell_angle_alpha                90
_cell_angle_beta                 93.886(3)
_cell_angle_gamma                90
_cell_volume                     2427.56
loop_
_atom_site_label
_atom_site_type_symbol
_atom_site_fract_x
_atom_site_fract_y
_atom_site_fract_z
Cd1 Cd 0.503494(12) 0.385228(11) 0.743150(10)
O1 O 0.33231(12) 0.44469(12) 0.67171(11)
O2 O 0.36733(12) 0.48266(12) 0.81068(11)
C1 C 0.30643(17) 0.48550(17) 0.74046(15)
C2 C 0.20032(17) 0.54317(17) 0.74143(15)
C3 C 0.18964(19) 0.62853(17) 0.79539(16)
H1 H 0.2469 0.6468 0.8349
C4 C 0.09495(19) 0.68737(19) 0.79163(17)
H2 H 0.0896 0.7446 0.8282
C5 C 0.00861(19) 0.6613(2) 0.73379(17)
H3 H -0.0550 0.7004 0.7321
C6 C 0.01693(19) 0.57693(19) 0.67838(17)
H4 H -0.0405 0.5588 0.6390
C7 C 0.11211(17) 0.52038(17) 0.68291(15)
N1 N 0.11365(15) 0.43007(16) 0.62430(14)
O3 O 0.12070(15) 0.34241(14) 0.65679(14)
O4 O 0.10256(15) 0.44606(16) 0.54643(12)
O5 O 0.63431(13) 0.40530(13) 0.88466(11)
O6 O 0.67755(13) 0.31507(13) 0.76924(11)
C8 C 0.70020(18) 0.35147(18) 0.84347(16)
C9 C 0.81594(18) 0.34217(19) 0.88313(16)
C10 C 0.8918(2) 0.4135(2) 0.85591(19)
H5 H 0.8707 0.4611 0.8124
C11 C 0.9976(2) 0.4152(2) 0.89187(19)
H6 H 1.0464 0.4641 0.8726
C12 C 1.0312(2) 0.3449(2) 0.95616(19)
H7 H 1.1023 0.3465 0.9806
C13 C 0.9585(2) 0.2722(2) 0.98395(17)
H8 H 0.9804 0.2237 1.0265
C14 C 0.85281(19) 0.27215(18) 0.94789(15)
O7 O 0.80493(18) 0.14864(16) 1.04816(13)
O8 O 0.69557(14) 0.17228(15) 0.93474(13)
N2 N 0.77918(17) 0.19245(15) 0.97919(14)
N3 N 0.42180(14) 0.23618(13) 0.80525(12)
N4 N 0.25535(15) 0.14113(14) 0.83097(14)
C15 C 0.30090(17) 0.23180(17) 0.78902(16)
H9 H 0.2692 0.2949 0.8112
H10 H 0.2824 0.2286 0.7268
C16 C 0.28336(19) 0.14497(18) 0.92482(16)
H11 H 0.2532 0.0844 0.9523
H12 H 0.2515 0.2068 0.9490
N5 N 0.40268(16) 0.14694(14) 0.94410(13)
C17 C 0.44819(18) 0.05165(17) 0.90727(14)
H13 H 0.4185 -0.0090 0.9349
H14 H 0.5263 0.0511 0.9198
N6 N 0.42356(14) 0.04474(13) 0.81149(12)
C18 C 0.46787(18) 0.13919(15) 0.77090(14)
H15 H 0.5462 0.1402 0.7818
H16 H 0.4518 0.1362 0.7084
C19 C 0.44623(18) 0.23848(17) 0.90104(14)
H17 H 0.5243 0.2412 0.9135
H18 H 0.4153 0.3012 0.9246
C20 C 0.30308(17) 0.04716(17) 0.79571(15)
H19 H 0.2844 0.0438 0.7335
H20 H 0.2724 -0.0138 0.8223
O9 O 0.50609(16) 0.30625(14) 0.61033(11)
H21 H 0.467(2) 0.332(2) 0.5682(15)
H22 H 0.533(2) 0.2501(15) 0.5988(18)
Cd1A Cd 0.496506(12) -0.114772(11) 0.756850(10)
N6A N 0.57644(14) 0.54474(13) 0.68851(12)
O10 O 0.6817(3) 0.6138(3) 0.9461(2)
H23 H 0.6071(17) 0.628(3) 0.950(3)
H24 H 0.702(3) 0.586(4) 1.0010(19)
O11 O 0.5761(2) 0.11896(15) 0.55598(13)
H25 H 0.597(3) 0.076(2) 0.5961(15)
H26 H 0.595(3) 0.101(2) 0.5066(12)
loop_
_geom_bond_atom_site_label_1
_geom_bond_atom_site_label_2
_geom_bond_site_symmetry_1
_geom_bond_site_symmetry_2
Cd1 O1 1_555 1_555
O1 C1 1_555 1_555
O2 Cd1 1_555 1_555
C1 O2 1_555 1_555
C2 C1 1_555 1_555
C3 C2 1_555 1_555
H1 C3 1_555 1_555
C4 C3 1_555 1_555
H2 C4 1_555 1_555
C5 C4 1_555 1_555
H3 C5 1_555 1_555
C6 C5 1_555 1_555
H4 C6 1_555 1_555
C7 C2 1_555 1_555
N1 C7 1_555 1_555
O3 N1 1_555 1_555
O4 N1 1_555 1_555
O5 Cd1 1_555 1_555
O6 Cd1 1_555 1_555
C8 O5 1_555 1_555
C9 C8 1_555 1_555
C10 C9 1_555 1_555
H5 C10 1_555 1_555
C11 C10 1_555 1_555
H6 C11 1_555 1_555
C12 C11 1_555 1_555
H7 C12 1_555 1_555
C13 C12 1_555 1_555
H8 C13 1_555 1_555
C14 C9 1_555 1_555
O7 N2 1_555 1_555
O8 N2 1_555 1_555
N2 C14 1_555 1_555
N3 Cd1 1_555 1_555
N4 C15 1_555 1_555
C15 N3 1_555 1_555
H9 C15 1_555 1_555
H10 C15 1_555 1_555
C16 N4 1_555 1_555
H11 C16 1_555 1_555
H12 C16 1_555 1_555
N5 C16 1_555 1_555
C17 N5 1_555 1_555
H13 C17 1_555 1_555
H14 C17 1_555 1_555
N6 C17 1_555 1_555
C18 N3 1_555 1_555
H15 C18 1_555 1_555
H16 C18 1_555 1_555
C19 N3 1_555 1_555
H17 C19 1_555 1_555
H18 C19 1_555 1_555
C20 N4 1_555 1_555
H19 C20 1_555 1_555
H20 C20 1_555 1_555
O9 Cd1 1_555 1_555
H21 O9 1_555 1_555
H22 O9 1_555 1_555
O10 H23 1_555 1_555
H24 O10 1_555 1_555
O11 H25 1_555 1_555
H26 O11 1_555 1_555
Cd1A N6 1_555 1_555
N6A Cd1 1_555 1_555
C6 C7 1_555 1_555
O6 C8 1_555 1_555
C13 C14 1_555 1_555
N5 C19 1_555 1_555
N6 C18 1_555 1_555
N6 C20 1_555 1_555

#END
