
#######################################################################
#
#                 Cambridge Crystallographic Data Centre
#                                CCDC 
#
#######################################################################
#
# If this CIF has been generated from an entry in the Cambridge 
# Structural Database, then it will include bibliographic, chemical, 
# crystal, experimental, refinement or atomic coordinate data resulting 
# from the CCDC's data processing and validation procedures.
#
#######################################################################

data_CIDLOS
_symmetry_cell_setting           monoclinic
_symmetry_space_group_name_H-M   'C 2/c'
_symmetry_Int_Tables_number      15
_space_group_name_Hall           '-C 2yn'
loop_
_symmetry_equiv_pos_site_id
_symmetry_equiv_pos_as_xyz
1 x,y,z
2 -x,y,1/2-z
3 1/2+x,1/2+y,z
4 1/2-x,1/2+y,1/2-z
5 -x,-y,-z
6 x,-y,1/2+z
7 1/2-x,1/2-y,-z
8 1/2+x,1/2-y,1/2+z
_cell_length_a                   43.913(8)
_cell_length_b                   4.0980(6)
_cell_length_c                   15.368(3)
_cell_angle_alpha                90
_cell_angle_beta                 104.707(13)
_cell_angle_gamma                90
_cell_volume                     2674.95
loop_
_atom_site_label
_atom_site_type_symbol
_atom_site_fract_x
_atom_site_fract_y
_atom_site_fract_z
C1 C 0.0695(2) 0.085(3) 0.2975(7)
H1 H 0.0668 0.0242 0.3534
C2 C 0.0469(2) -0.001(2) 0.2216(7)
H2 H 0.0294 -0.1174 0.2280
C3 C 0.07481(18) 0.239(2) 0.1350(6)
H3 H 0.0776 0.2973 0.0791
C4 C 0.09748(16) 0.325(2) 0.2125(5)
C5 C 0.12602(17) 0.520(2) 0.2037(5)
C6 C 0.17351(16) 0.7662(18) 0.3065(5)
C7 C 0.18946(18) 0.8179(19) 0.3974(5)
C8 C 0.2181(2) 0.972(2) 0.4186(6)
H4 H 0.2289 0.9956 0.4787
C9 C 0.2313(2) 1.091(3) 0.3536(6)
H5 H 0.2505 1.2013 0.3694
C10 C 0.21607(18) 1.047(2) 0.2645(6)
H6 H 0.2250 1.1266 0.2200
C11 C 0.18723(17) 0.884(2) 0.2403(5)
H7 H 0.1772 0.8534 0.1799
N1 N 0.09516(16) 0.252(2) 0.2940(5)
N2 N 0.04901(16) 0.075(2) 0.1397(5)
N3 N 0.14524(14) 0.5941(19) 0.2846(4)
H8 H 0.1390 0.5240 0.3300
O1 O 0.12939(14) 0.602(2) 0.1312(4)
Hg1 Hg 0.0000 0.0000 0.0000
Cl1 Cl -0.02222(4) -0.3830(5) 0.08295(15)
I1 I 0.169140(15) 0.65541(15) 0.49986(3)
Cl1D Cl 0.02222(4) -0.6170(5) -0.08295(15)
C1D C -0.0695(2) -0.085(3) -0.2975(7)
H1D H -0.0668 -0.0242 -0.3534
C2D C -0.0469(2) 0.001(2) -0.2216(7)
H2D H -0.0294 0.1174 -0.2280
C3D C -0.07481(18) -0.239(2) -0.1350(6)
H3D H -0.0776 -0.2973 -0.0791
C4D C -0.09748(16) -0.325(2) -0.2125(5)
C5D C -0.12602(17) -0.520(2) -0.2037(5)
C6D C -0.17351(16) -0.7662(18) -0.3065(5)
C7D C -0.18946(18) -0.8179(19) -0.3974(5)
C8D C -0.2181(2) -0.972(2) -0.4186(6)
H4D H -0.2289 -0.9956 -0.4787
C9D C -0.2313(2) -1.091(3) -0.3536(6)
H5D H -0.2505 -1.2013 -0.3694
C10D C -0.21607(18) -1.047(2) -0.2645(6)
H6D H -0.2250 -1.1266 -0.2200
C11D C -0.18723(17) -0.884(2) -0.2403(5)
H7D H -0.1772 -0.8534 -0.1799
N1D N -0.09516(16) -0.252(2) -0.2940(5)
N2D N -0.04901(16) -0.075(2) -0.1397(5)
N3D N -0.14524(14) -0.5941(19) -0.2846(4)
H8D H -0.1390 -0.5240 -0.3300
O1D O -0.12939(14) -0.602(2) -0.1312(4)
I1D I -0.169140(15) -0.65541(15) -0.49986(3)
Hg1_2 Hg 0.0000 -1.0000 0.0000
Cl1_2 Cl -0.02222(4) 0.6170(5) 0.08295(15)
Cl1D_2 Cl 0.02222(4) 0.3830(5) -0.08295(15)
loop_
_geom_bond_atom_site_label_1
_geom_bond_atom_site_label_2
_geom_bond_site_symmetry_1
_geom_bond_site_symmetry_2
C1 H1 1_555 1_555
C2 C1 1_555 1_555
H2 C2 1_555 1_555
C3 H3 1_555 1_555
C4 C3 1_555 1_555
C5 C4 1_555 1_555
C6 C7 1_555 1_555
C7 C8 1_555 1_555
C8 H4 1_555 1_555
C9 C8 1_555 1_555
H5 C9 1_555 1_555
C10 C9 1_555 1_555
H6 C10 1_555 1_555
C11 C6 1_555 1_555
H7 C11 1_555 1_555
N1 C1 1_555 1_555
N2 C2 1_555 1_555
N3 C5 1_555 1_555
H8 N3 1_555 1_555
O1 C5 1_555 1_555
Hg1 N2 1_555 1_555
Cl1 Hg1 1_555 1_555
I1 C7 1_555 1_555
Cl1D Hg1 1_555 1_555
C1D H1D 1_555 1_555
C2D C1D 1_555 1_555
H2D C2D 1_555 1_555
C3D H3D 1_555 1_555
C4D C3D 1_555 1_555
C5D C4D 1_555 1_555
C6D C7D 1_555 1_555
C7D C8D 1_555 1_555
C8D H4D 1_555 1_555
C9D C8D 1_555 1_555
H5D C9D 1_555 1_555
C10D C9D 1_555 1_555
H6D C10D 1_555 1_555
C11D C6D 1_555 1_555
H7D C11D 1_555 1_555
N1D C1D 1_555 1_555
N2D Hg1 1_555 1_555
N3D C5D 1_555 1_555
H8D N3D 1_555 1_555
O1D C5D 1_555 1_555
I1D C7D 1_555 1_555
Hg1_2 Cl1 1_555 1_555
Cl1_2 Hg1 1_555 1_555
Cl1D_2 Hg1 1_555 1_555
C3 N2 1_555 1_555
C4 N1 1_555 1_555
C6 N3 1_555 1_555
C10 C11 1_555 1_555
Cl1D Hg1_2 1_555 1_555
C2D N2D 1_555 1_555
C3D N2D 1_555 1_555
C4D N1D 1_555 1_555
C6D N3D 1_555 1_555
C10D C11D 1_555 1_555

#END
