
#######################################################################
#
#                 Cambridge Crystallographic Data Centre
#                                CCDC 
#
#######################################################################
#
# If this CIF has been generated from an entry in the Cambridge 
# Structural Database, then it will include bibliographic, chemical, 
# crystal, experimental, refinement or atomic coordinate data resulting 
# from the CCDC's data processing and validation procedures.
#
#######################################################################

data_CIDLEI
_symmetry_cell_setting           monoclinic
_symmetry_space_group_name_H-M   'P 2/c'
_symmetry_Int_Tables_number      13
_space_group_name_Hall           '-P 2yc'
loop_
_symmetry_equiv_pos_site_id
_symmetry_equiv_pos_as_xyz
1 x,y,z
2 -x,y,1/2-z
3 -x,-y,-z
4 x,-y,1/2+z
_cell_length_a                   16.7149(9)
_cell_length_b                   15.1584(8)
_cell_length_c                   15.9373(8)
_cell_angle_alpha                90
_cell_angle_beta                 112.098(2)
_cell_angle_gamma                90
_cell_volume                     3741.42
loop_
_atom_site_label
_atom_site_type_symbol
_atom_site_fract_x
_atom_site_fract_y
_atom_site_fract_z
C1 C 0.9111(2) 0.1844(2) 1.0850(2)
C2 C 0.8620(2) 0.2029(2) 0.9860(2)
C3 C 0.8744(2) 0.2812(2) 0.9489(2)
C4 C 0.8327(2) 0.2994(2) 0.8582(2)
C5 C 0.7756(2) 0.2393(2) 0.8001(2)
C6 C 0.7620(2) 0.1612(2) 0.8382(2)
C7 C 0.8043(2) 0.1436(2) 0.9292(2)
C8 C 0.7308(2) 0.2573(2) 0.7021(2)
C9 C 0.6832(2) 0.3338(2) 0.6698(2)
C10 C 0.6389(2) 0.3475(2) 0.5785(2)
C11 C 0.6413(2) 0.2871(2) 0.5146(2)
C12 C 0.6900(2) 0.2115(2) 0.5465(2)
C13 C 0.7336(2) 0.1970(2) 0.6375(2)
C14 C 0.5902(2) 0.3003(2) 0.4147(2)
C15 C 1.0000 0.3419(3) 1.2500
C16 C 1.0000 0.4416(3) 1.2500
C17 C 1.0699(2) 0.4886(2) 1.3074(2)
C18 C 1.0698(2) 0.5794(2) 1.3074(2)
C19 C 1.0000 0.6278(3) 1.2500
C20 C 1.0000 0.7255(3) 1.2500
C21 C 1.0165(2) 0.7733(2) 1.3288(2)
C22 C 1.0156(2) 0.8644(2) 1.3289(2)
C23 C 1.0000 0.9116(3) 1.2500
C24 C 1.0000 1.0106(3) 1.2500
C25 C 1.1829(5) 0.1349(6) 1.1241(5)
H1 H 1.1285 0.1030 1.0948
H2 H 1.2313 0.0934 1.1398
H3 H 1.1889 0.1798 1.0826
C26 C 0.5000 0.4709(3) 0.2500
C27 C 0.5000 0.5701(3) 0.2500
C28 C 0.4417(2) 0.6176(2) 0.1792(2)
C29 C 0.4415(2) 0.7086(2) 0.1792(2)
C30 C 0.5000 0.7565(3) 0.2500
C31 C 0.5000 1.1405(3) 0.2500
C32 C 0.5000 1.0408(3) 0.2500
C33 C 0.5014(2) 0.9933(2) 0.1764(2)
C34 C 0.5031(2) 0.9027(2) 0.1772(2)
C35 C 0.5000 0.8537(3) 0.2500
C36 C 0.3245(3) 0.3345(4) 0.3916(3)
H4 H 0.3734 0.3042 0.4373
H5 H 0.2709 0.3174 0.3988
H6 H 0.3325 0.3985 0.3995
O1 O 0.99097(16) 0.17676(17) 1.10755(15)
O2 O 0.86860(16) 0.18098(16) 1.13450(15)
O3 O 0.63142(15) 0.29223(15) 0.36362(15)
O4 O 0.51155(15) 0.31587(16) 0.39323(15)
O5 O 1.05937(16) 0.30491(15) 1.23358(17)
O6 O 1.18302(16) 0.17537(16) 1.20231(17)
H7 H 1.2281 0.1613 1.2462
O7 O 1.06198(16) 1.04620(15) 1.23823(16)
O8 O 0.43351(15) 0.43509(15) 0.25161(16)
O9 O 0.44718(16) 1.17765(15) 0.27717(16)
O10 O 0.31978(17) 0.31058(16) 0.30373(16)
H8 H 0.2746 0.3317 0.2647
F1 F 0.92894(13) 0.34220(13) 1.00182(13)
F2 F 0.84998(13) 0.37549(13) 0.82521(13)
F3 F 0.70486(13) 0.10226(14) 0.78667(13)
F4 F 0.78901(14) 0.06641(13) 0.96216(13)
F5 F 0.67885(13) 0.39490(14) 0.72857(12)
F6 F 0.59399(14) 0.42328(13) 0.55224(13)
F7 F 0.69263(15) 0.14878(14) 0.48796(13)
F8 F 0.78137(14) 0.12359(14) 0.66419(13)
F9 F 1.13923(13) 0.44621(12) 1.36505(13)
F10 F 1.14039(12) 0.62190(12) 1.36346(13)
F11 F 1.03280(14) 0.73061(12) 1.40779(13)
F12 F 1.03131(15) 0.90719(13) 1.40685(13)
F13 F 0.38269(14) 0.57489(13) 0.10949(13)
F14 F 0.38114(13) 0.75118(12) 0.11005(13)
F15 F 0.50090(15) 1.03518(13) 0.10208(13)
F16 F 0.50920(14) 0.86006(13) 0.10596(14)
Cu1 Cu 1.07248(3) 0.17474(2) 1.23345(2)
Cu2 Cu 0.42856(3) 0.30722(2) 0.26785(2)
C17A C 0.9301(2) 0.4886(2) 1.1926(2)
C18A C 0.9302(2) 0.5794(2) 1.1926(2)
C21A C 0.9835(2) 0.7733(2) 1.1712(2)
C22A C 0.9844(2) 0.8644(2) 1.1711(2)
O5A O 0.94063(16) 0.30491(15) 1.26642(17)
O7A O 0.93802(16) 1.04620(15) 1.26177(16)
F9A F 0.86077(13) 0.44621(12) 1.13495(13)
F10A F 0.85961(12) 0.62190(12) 1.13654(13)
F11A F 0.96720(14) 0.73061(12) 1.09221(13)
F12A F 0.96869(15) 0.90719(13) 1.09315(13)
C28A C 0.5583(2) 0.6176(2) 0.3208(2)
C29A C 0.5585(2) 0.7086(2) 0.3208(2)
O8A O 0.56649(15) 0.43509(15) 0.24839(16)
F13A F 0.61731(14) 0.57489(13) 0.39051(13)
F14A F 0.61886(13) 0.75118(12) 0.38995(13)
C33A C 0.4986(2) 0.9933(2) 0.3236(2)
C34A C 0.4969(2) 0.9027(2) 0.3228(2)
O9A O 0.55282(16) 1.17765(15) 0.22283(16)
F15A F 0.49910(15) 1.03518(13) 0.39792(13)
F16A F 0.49080(14) 0.86006(13) 0.39404(14)
C1A C 0.0889(2) 0.1844(2) -0.5850(2)
C2A C 0.1380(2) 0.2029(2) -0.4860(2)
C3A C 0.1256(2) 0.2812(2) -0.4489(2)
C4A C 0.1673(2) 0.2994(2) -0.3582(2)
C5A C 0.2244(2) 0.2393(2) -0.3001(2)
C6A C 0.2380(2) 0.1612(2) -0.3382(2)
C7A C 0.1957(2) 0.1436(2) -0.4292(2)
C8A C 0.2692(2) 0.2573(2) -0.2021(2)
C9A C 0.3168(2) 0.3338(2) -0.1698(2)
C10A C 0.3611(2) 0.3475(2) -0.0785(2)
C11A C 0.3587(2) 0.2871(2) -0.0146(2)
C12A C 0.3100(2) 0.2115(2) -0.0465(2)
C13A C 0.2664(2) 0.1970(2) -0.1375(2)
C14A C 0.4098(2) 0.3003(2) 0.0853(2)
C25A C -0.1829(5) 0.1349(6) -0.6241(5)
H1A H -0.1285 0.1030 -0.5948
H2A H -0.2313 0.0934 -0.6398
H3A H -0.1889 0.1798 -0.5826
C36A C 0.6755(3) 0.3345(4) 0.1084(3)
H4A H 0.6266 0.3042 0.0627
H5A H 0.7291 0.3174 0.1012
H6A H 0.6675 0.3985 0.1005
O1A O 0.00903(16) 0.17676(17) -0.60755(15)
O2A O 0.13140(16) 0.18098(16) -0.63450(15)
O3A O 0.36858(15) 0.29223(15) 0.13638(15)
O4A O 0.48845(15) 0.31587(16) 0.10677(15)
O6A O -0.18302(16) 0.17537(16) -0.70231(17)
H7A H -0.2281 0.1613 -0.7462
O10A O 0.68022(17) 0.31058(16) 0.19627(16)
H8A H 0.7254 0.3317 0.2353
F1A F 0.07106(13) 0.34220(13) -0.50182(13)
F2A F 0.15002(13) 0.37549(13) -0.32521(13)
F3A F 0.29514(13) 0.10226(14) -0.28667(13)
F4A F 0.21099(14) 0.06641(13) -0.46216(13)
F5A F 0.32115(13) 0.39490(14) -0.22857(12)
F6A F 0.40601(14) 0.42328(13) -0.05224(13)
F7A F 0.30737(15) 0.14878(14) 0.01204(13)
F8A F 0.21863(14) 0.12359(14) -0.16419(13)
Cu1A Cu -0.07248(3) 0.17474(2) -0.73345(2)
Cu2A Cu 0.57144(3) 0.30722(2) 0.23215(2)
O2_2 O -0.13140(16) 0.18098(16) -0.86550(15)
O2A_2 O 1.13140(16) 0.18098(16) 1.36550(15)
O5A_2 O -0.05937(16) 0.30491(15) -0.73358(17)
O7_2 O 1.06198(16) 0.04620(15) 1.23823(16)
O7A_2 O -0.06198(16) 0.04620(15) -0.73823(16)
O9_2 O 0.44718(16) 0.17765(15) 0.27717(16)
O9A_2 O 0.55282(16) 0.17765(15) 0.22283(16)
Cu1_2 Cu 0.07248(3) 0.17474(2) -0.76655(2)
Cu1_3 Cu 1.07248(3) 1.17474(2) 1.23345(2)
Cu1A_2 Cu 0.92752(3) 0.17474(2) 1.26655(2)
Cu1A_3 Cu 0.92752(3) 1.17474(2) 1.26655(2)
Cu2_2 Cu 0.42856(3) 1.30722(2) 0.26785(2)
Cu2A_2 Cu 0.57144(3) 1.30722(2) 0.23215(2)
C37 C 0.8233(4) 0.5839(4) 0.9011(3)
H9 H 0.8776 0.5529 0.9337
H10 H 0.7747 0.5476 0.9011
H11 H 0.8229 0.6403 0.9311
O11 O 0.81539(19) 0.5995(2) 0.8110(2)
H12 H 0.8578 0.6293 0.8111
C38 C 0.6798(4) 0.9274(4) 0.5896(4)
H13 H 0.6356 0.9726 0.5627
H14 H 0.6654 0.8744 0.5516
H15 H 0.7361 0.9499 0.5938
O12 O 0.6830(2) 0.9057(3) 0.6791(3)
H16 H 0.6347 0.8862 0.6755
loop_
_geom_bond_atom_site_label_1
_geom_bond_atom_site_label_2
_geom_bond_site_symmetry_1
_geom_bond_site_symmetry_2
C1 C2 1_555 1_555
C2 C3 1_555 1_555
C3 C4 1_555 1_555
C4 C5 1_555 1_555
C5 C6 1_555 1_555
C6 C7 1_555 1_555
C7 C2 1_555 1_555
C8 C5 1_555 1_555
C9 C8 1_555 1_555
C10 C9 1_555 1_555
C11 C10 1_555 1_555
C12 C11 1_555 1_555
C13 C8 1_555 1_555
C14 C11 1_555 1_555
C15 C16 1_555 1_555
C16 C17 1_555 1_555
C17 C18 1_555 1_555
C18 C19 1_555 1_555
C19 C20 1_555 1_555
C20 C21 1_555 1_555
C21 C22 1_555 1_555
C22 C23 1_555 1_555
C23 C24 1_555 1_555
C24 O7 1_555 1_555
C25 H1 1_555 1_555
H2 C25 1_555 1_555
H3 C25 1_555 1_555
C26 C27 1_555 1_555
C27 C28 1_555 1_555
C28 C29 1_555 1_555
C29 C30 1_555 1_555
C30 C35 1_555 1_555
C31 C32 1_555 1_555
C32 C33 1_555 1_555
C33 C34 1_555 1_555
C34 C35 1_555 1_555
C35 C34A 1_555 1_555
C36 H4 1_555 1_555
H5 C36 1_555 1_555
H6 C36 1_555 1_555
O1 C1 1_555 1_555
O2 C1 1_555 1_555
O3 C14 1_555 1_555
O4 C14 1_555 1_555
O5 C15 1_555 1_555
O6 C25 1_555 1_555
H7 O6 1_555 1_555
O7 Cu1_3 1_555 1_555
O8 C26 1_555 1_555
O9 C31 1_555 1_555
O10 C36 1_555 1_555
H8 O10 1_555 1_555
F1 C3 1_555 1_555
F2 C4 1_555 1_555
F3 C6 1_555 1_555
F4 C7 1_555 1_555
F5 C9 1_555 1_555
F6 C10 1_555 1_555
F7 C12 1_555 1_555
F8 C13 1_555 1_555
F9 C17 1_555 1_555
F10 C18 1_555 1_555
F11 C21 1_555 1_555
F12 C22 1_555 1_555
F13 C28 1_555 1_555
F14 C29 1_555 1_555
F15 C33 1_555 1_555
F16 C34 1_555 1_555
Cu1 O1 1_555 1_555
Cu2 O4 1_555 1_555
C37 H9 1_555 1_555
H10 C37 1_555 1_555
H11 C37 1_555 1_555
O11 C37 1_555 1_555
H12 O11 1_555 1_555
C38 H13 1_555 1_555
H14 C38 1_555 1_555
H15 C38 1_555 1_555
O12 C38 1_555 1_555
H16 O12 1_555 1_555
C17A C16 1_555 1_555
C18A C19 1_555 1_555
C21A C20 1_555 1_555
C22A C23 1_555 1_555
O5A C15 1_555 1_555
O7A C24 1_555 1_555
F9A C17A 1_555 1_555
F10A C18A 1_555 1_555
F11A C21A 1_555 1_555
F12A C22A 1_555 1_555
C28A C27 1_555 1_555
C29A C30 1_555 1_555
O8A C26 1_555 1_555
F13A C28A 1_555 1_555
F14A C29A 1_555 1_555
C33A C32 1_555 1_555
C34A C33A 1_555 1_555
O9A C31 1_555 1_555
F15A C33A 1_555 1_555
F16A C34A 1_555 1_555
C1A C2A 1_555 1_555
C2A C3A 1_555 1_555
C3A C4A 1_555 1_555
C4A C5A 1_555 1_555
C5A C6A 1_555 1_555
C6A C7A 1_555 1_555
C7A C2A 1_555 1_555
C8A C5A 1_555 1_555
C9A C8A 1_555 1_555
C10A C9A 1_555 1_555
C11A C10A 1_555 1_555
C12A C11A 1_555 1_555
C13A C8A 1_555 1_555
C14A C11A 1_555 1_555
C25A H1A 1_555 1_555
H2A C25A 1_555 1_555
H3A C25A 1_555 1_555
C36A H4A 1_555 1_555
H5A C36A 1_555 1_555
H6A C36A 1_555 1_555
O1A C1A 1_555 1_555
O2A C1A 1_555 1_555
O3A Cu2 1_555 1_555
O4A C14A 1_555 1_555
O6A C25A 1_555 1_555
H7A O6A 1_555 1_555
O10A C36A 1_555 1_555
H8A O10A 1_555 1_555
F1A C3A 1_555 1_555
F2A C4A 1_555 1_555
F3A C6A 1_555 1_555
F4A C7A 1_555 1_555
F5A C9A 1_555 1_555
F6A C10A 1_555 1_555
F7A C12A 1_555 1_555
F8A C13A 1_555 1_555
Cu1A O1A 1_555 1_555
Cu2A O3 1_555 1_555
O2_2 Cu1A 1_555 1_555
O2A_2 Cu1 1_555 1_555
O5A_2 Cu1A 1_555 1_555
O7_2 Cu1 1_555 1_555
O7A_2 Cu1A 1_555 1_555
O9_2 Cu2 1_555 1_555
O9A_2 Cu2A 1_555 1_555
Cu1_2 O2A 1_555 1_555
Cu1_3 Cu1A_3 1_555 1_555
Cu1A_2 O2 1_555 1_555
Cu1A_3 O7A 1_555 1_555
Cu2_2 O9 1_555 1_555
Cu2A_2 O9A 1_555 1_555
C12 C13 1_555 1_555
O5 Cu1 1_555 1_555
O6 Cu1 1_555 1_555
O8 Cu2 1_555 1_555
O10 Cu2 1_555 1_555
Cu1 Cu1A_2 1_555 1_555
Cu2 Cu2A 1_555 1_555
C17A C18A 1_555 1_555
C21A C22A 1_555 1_555
O5A Cu1A_2 1_555 1_555
C28A C29A 1_555 1_555
O8A Cu2A 1_555 1_555
C12A C13A 1_555 1_555
C14A O3A 1_555 1_555
O4A Cu2A 1_555 1_555
O6A Cu1A 1_555 1_555
O10A Cu2A 1_555 1_555
Cu1A Cu1_2 1_555 1_555
Cu2_2 Cu2A_2 1_555 1_555

#END
