
#######################################################################
#
#                 Cambridge Crystallographic Data Centre
#                                CCDC 
#
#######################################################################
#
# If this CIF has been generated from an entry in the Cambridge 
# Structural Database, then it will include bibliographic, chemical, 
# crystal, experimental, refinement or atomic coordinate data resulting 
# from the CCDC's data processing and validation procedures.
#
#######################################################################

data_CIDMIN
_symmetry_cell_setting           triclinic
_symmetry_space_group_name_H-M   'P -1'
_symmetry_Int_Tables_number      2
_space_group_name_Hall           '-P 1'
loop_
_symmetry_equiv_pos_site_id
_symmetry_equiv_pos_as_xyz
1 x,y,z
2 -x,-y,-z
_cell_length_a                   4.1959(13)
_cell_length_b                   11.098(4)
_cell_length_c                   13.238(4)
_cell_angle_alpha                105.92(3)
_cell_angle_beta                 94.03(3)
_cell_angle_gamma                92.17(3)
_cell_volume                     590.283
loop_
_atom_site_label
_atom_site_type_symbol
_atom_site_fract_x
_atom_site_fract_y
_atom_site_fract_z
C1 C 0.154(6) 0.004(2) 0.1362(16)
H1 H 0.0430 0.0619 0.1108
C2 C 0.202(6) 0.022(2) 0.2453(17)
H2 H 0.1152 0.0902 0.2904
C3 C 0.490(5) -0.1519(18) 0.2169(14)
H3 H 0.6187 -0.2058 0.2417
C4 C 0.430(5) -0.172(2) 0.1107(13)
C5 C 0.581(5) -0.2768(19) 0.0357(17)
C6 C 0.592(5) -0.3632(17) -0.1556(13)
C7 C 0.503(6) -0.340(2) -0.2521(19)
C8 C 0.584(6) -0.413(2) -0.3474(17)
H4 H 0.5211 -0.3951 -0.4100
C9 C 0.763(6) -0.517(3) -0.3468(18)
H5 H 0.8148 -0.5699 -0.4104
C10 C 0.864(6) -0.543(3) -0.2524(18)
H6 H 0.9969 -0.6081 -0.2532
C11 C 0.770(5) -0.4718(18) -0.1595(16)
H7 H 0.8217 -0.4941 -0.0978
N1 N 0.264(5) -0.0943(18) 0.0680(13)
N2 N 0.369(5) -0.0565(18) 0.2863(12)
N3 N 0.490(5) -0.2875(19) -0.0665(13)
H8 H 0.3444 -0.2385 -0.0765
O1 O 0.760(5) -0.344(2) 0.0653(12)
Hg1 Hg 0.5000 0.0000 0.5000
Br1 Br 0.1568(5) 0.17875(17) 0.52353(15)
F1 F 0.326(4) -0.2433(14) -0.2504(11)
Br1A Br -0.1568(5) -0.17875(17) 0.47647(15)
C1A C 0.846(6) -0.004(2) 0.8638(16)
H1A H 0.9570 -0.0619 0.8892
C2A C 0.798(6) -0.022(2) 0.7547(17)
H2A H 0.8848 -0.0902 0.7096
C3A C 0.510(5) 0.1519(18) 0.7831(14)
H3A H 0.3813 0.2058 0.7583
C4A C 0.570(5) 0.172(2) 0.8893(13)
C5A C 0.419(5) 0.2768(19) 0.9643(17)
C6A C 0.408(5) 0.3632(17) 1.1556(13)
C7A C 0.497(6) 0.340(2) 1.2521(19)
C8A C 0.416(6) 0.413(2) 1.3474(17)
H4A H 0.4789 0.3951 1.4100
C9A C 0.237(6) 0.517(3) 1.3468(18)
H5A H 0.1852 0.5699 1.4104
C10A C 0.136(6) 0.543(3) 1.2524(18)
H6A H 0.0031 0.6081 1.2532
C11A C 0.230(5) 0.4718(18) 1.1595(16)
H7A H 0.1783 0.4941 1.0978
N1A N 0.736(5) 0.0943(18) 0.9320(13)
N2A N 0.631(5) 0.0565(18) 0.7137(12)
N3A N 0.510(5) 0.2875(19) 1.0665(13)
H8A H 0.6556 0.2385 1.0765
O1A O 0.240(5) 0.344(2) 0.9347(12)
F1A F 0.674(4) 0.2433(14) 1.2504(11)
Hg1_2 Hg -0.5000 0.0000 0.5000
Br1_2 Br 1.1568(5) 0.17875(17) 0.52353(15)
Br1A_2 Br 0.8432(5) -0.17875(17) 0.47647(15)
loop_
_geom_bond_atom_site_label_1
_geom_bond_atom_site_label_2
_geom_bond_site_symmetry_1
_geom_bond_site_symmetry_2
C1 H1 1_555 1_555
C2 C1 1_555 1_555
H2 C2 1_555 1_555
C3 H3 1_555 1_555
C4 C3 1_555 1_555
C5 C4 1_555 1_555
C6 C7 1_555 1_555
C7 C8 1_555 1_555
C8 H4 1_555 1_555
C9 C8 1_555 1_555
H5 C9 1_555 1_555
C10 C9 1_555 1_555
H6 C10 1_555 1_555
C11 C6 1_555 1_555
H7 C11 1_555 1_555
N1 C1 1_555 1_555
N2 C2 1_555 1_555
N3 C5 1_555 1_555
H8 N3 1_555 1_555
O1 C5 1_555 1_555
Hg1 N2 1_555 1_555
Br1 Hg1 1_555 1_555
F1 C7 1_555 1_555
Br1A Hg1 1_555 1_555
C1A H1A 1_555 1_555
C2A C1A 1_555 1_555
H2A C2A 1_555 1_555
C3A H3A 1_555 1_555
C4A C3A 1_555 1_555
C5A C4A 1_555 1_555
C6A C7A 1_555 1_555
C7A C8A 1_555 1_555
C8A H4A 1_555 1_555
C9A C8A 1_555 1_555
H5A C9A 1_555 1_555
C10A C9A 1_555 1_555
H6A C10A 1_555 1_555
C11A C6A 1_555 1_555
H7A C11A 1_555 1_555
N1A C1A 1_555 1_555
N2A Hg1 1_555 1_555
N3A C5A 1_555 1_555
H8A N3A 1_555 1_555
O1A C5A 1_555 1_555
F1A C7A 1_555 1_555
Hg1_2 Br1 1_555 1_555
Br1_2 Hg1 1_555 1_555
Br1A_2 Hg1 1_555 1_555
C3 N2 1_555 1_555
C4 N1 1_555 1_555
C6 N3 1_555 1_555
C10 C11 1_555 1_555
Br1A Hg1_2 1_555 1_555
C2A N2A 1_555 1_555
C3A N2A 1_555 1_555
C4A N1A 1_555 1_555
C6A N3A 1_555 1_555
C10A C11A 1_555 1_555

#END
