
#######################################################################
#
#                 Cambridge Crystallographic Data Centre
#                                CCDC 
#
#######################################################################
#
# If this CIF has been generated from an entry in the Cambridge 
# Structural Database, then it will include bibliographic, chemical, 
# crystal, experimental, refinement or atomic coordinate data resulting 
# from the CCDC's data processing and validation procedures.
#
#######################################################################

data_CIDMUZ
_symmetry_cell_setting           monoclinic
_symmetry_space_group_name_H-M   'P 21/n'
_symmetry_Int_Tables_number      14
_space_group_name_Hall           '-P 2yn'
loop_
_symmetry_equiv_pos_site_id
_symmetry_equiv_pos_as_xyz
1 x,y,z
2 1/2-x,1/2+y,1/2-z
3 -x,-y,-z
4 1/2+x,1/2-y,1/2+z
_cell_length_a                   14.906(3)
_cell_length_b                   3.8968(8)
_cell_length_c                   20.955(4)
_cell_angle_alpha                90
_cell_angle_beta                 90.70(3)
_cell_angle_gamma                90
_cell_volume                     1217.1
loop_
_atom_site_label
_atom_site_type_symbol
_atom_site_fract_x
_atom_site_fract_y
_atom_site_fract_z
C1 C 0.8145(3) 0.7572(16) 0.1831(2)
H1 H 0.8269 0.6500 0.2218
C2 C 0.8834(3) 0.8133(14) 0.1410(2)
H2 H 0.9415 0.7503 0.1527
C3 C 0.7852(3) 1.0594(13) 0.0707(2)
H3 H 0.7732 1.1695 0.0322
C4 C 0.7157(3) 1.0055(12) 0.1137(2)
C5 C 0.6225(3) 1.1301(14) 0.0966(2)
C6 C 0.4663(3) 1.0717(12) 0.1359(2)
C7 C 0.4162(3) 0.9632(10) 0.1876(2)
C8 C 0.3240(4) 0.9994(12) 0.1889(3)
H4 H 0.2921 0.9254 0.2242
C9 C 0.2798(3) 1.1458(16) 0.1376(3)
H5 H 0.2177 1.1682 0.1376
C10 C 0.3285(3) 1.2585(15) 0.0862(3)
H6 H 0.2987 1.3592 0.0518
C11 C 0.4211(3) 1.2250(14) 0.0848(2)
H7 H 0.4529 1.3046 0.0499
N1 N 0.7300(3) 0.8533(13) 0.16945(19)
N2 N 0.8687(3) 0.9552(11) 0.08425(19)
N3 N 0.5599(3) 1.0199(10) 0.13797(19)
H8 H 0.5799 0.9024 0.1698
O1 O 0.6103(2) 1.3125(12) 0.05037(18)
Cl1 Cl 1.08666(7) 0.6141(3) 0.06253(6)
Cl2 Cl 0.47064(8) 0.7740(4) 0.25357(6)
Hg1 Hg 1.0000 1.0000 0.0000
Cl1B Cl 0.91334(7) 0.3859(3) -0.06253(6)
C1B C 1.1855(3) 1.2428(16) -0.1831(2)
H1B H 1.1731 1.3500 -0.2218
C2B C 1.1166(3) 1.1867(14) -0.1410(2)
H2B H 1.0585 1.2497 -0.1527
C3B C 1.2148(3) 0.9406(13) -0.0707(2)
H3B H 1.2268 0.8305 -0.0322
C4B C 1.2843(3) 0.9945(12) -0.1137(2)
C5B C 1.3775(3) 0.8699(14) -0.0966(2)
C6B C 1.5337(3) 0.9283(12) -0.1359(2)
C7B C 1.5838(3) 1.0368(10) -0.1876(2)
C8B C 1.6760(4) 1.0006(12) -0.1889(3)
H4B H 1.7079 1.0746 -0.2242
C9B C 1.7202(3) 0.8542(16) -0.1376(3)
H5B H 1.7823 0.8318 -0.1376
C10B C 1.6715(3) 0.7415(15) -0.0862(3)
H6B H 1.7013 0.6408 -0.0518
C11B C 1.5789(3) 0.7750(14) -0.0848(2)
H7B H 1.5471 0.6954 -0.0499
N1B N 1.2700(3) 1.1467(13) -0.16945(19)
N2B N 1.1313(3) 1.0448(11) -0.08425(19)
N3B N 1.4401(3) 0.9801(10) -0.13797(19)
H8B H 1.4201 1.0976 -0.1698
O1B O 1.3897(2) 0.6875(12) -0.05037(18)
Cl2B Cl 1.52936(8) 1.2260(4) -0.25357(6)
Cl1_2 Cl 1.08666(7) 1.6141(3) 0.06253(6)
Cl1B_2 Cl 0.91334(7) 1.3859(3) -0.06253(6)
Hg1_2 Hg 1.0000 0.0000 0.0000
loop_
_geom_bond_atom_site_label_1
_geom_bond_atom_site_label_2
_geom_bond_site_symmetry_1
_geom_bond_site_symmetry_2
C1 H1 1_555 1_555
C2 C1 1_555 1_555
H2 C2 1_555 1_555
C3 H3 1_555 1_555
C4 C3 1_555 1_555
C5 C4 1_555 1_555
C6 C7 1_555 1_555
C7 C8 1_555 1_555
C8 H4 1_555 1_555
C9 C8 1_555 1_555
H5 C9 1_555 1_555
C10 C9 1_555 1_555
H6 C10 1_555 1_555
C11 C6 1_555 1_555
H7 C11 1_555 1_555
N1 C1 1_555 1_555
N2 C2 1_555 1_555
N3 C5 1_555 1_555
H8 N3 1_555 1_555
O1 C5 1_555 1_555
Cl1 Hg1 1_555 1_555
Cl2 C7 1_555 1_555
Hg1 N2 1_555 1_555
Cl1B Hg1 1_555 1_555
C1B H1B 1_555 1_555
C2B C1B 1_555 1_555
H2B C2B 1_555 1_555
C3B H3B 1_555 1_555
C4B C3B 1_555 1_555
C5B C4B 1_555 1_555
C6B C7B 1_555 1_555
C7B C8B 1_555 1_555
C8B H4B 1_555 1_555
C9B C8B 1_555 1_555
H5B C9B 1_555 1_555
C10B C9B 1_555 1_555
H6B C10B 1_555 1_555
C11B C6B 1_555 1_555
H7B C11B 1_555 1_555
N1B C1B 1_555 1_555
N2B Hg1 1_555 1_555
N3B C5B 1_555 1_555
H8B N3B 1_555 1_555
O1B C5B 1_555 1_555
Cl2B C7B 1_555 1_555
Cl1_2 Hg1 1_555 1_555
Cl1B_2 Hg1 1_555 1_555
Hg1_2 Cl1 1_555 1_555
C3 N2 1_555 1_555
C4 N1 1_555 1_555
C6 N3 1_555 1_555
C10 C11 1_555 1_555
Cl1B Hg1_2 1_555 1_555
C2B N2B 1_555 1_555
C3B N2B 1_555 1_555
C4B N1B 1_555 1_555
C6B N3B 1_555 1_555
C10B C11B 1_555 1_555

#END
