
#######################################################################
#
#                 Cambridge Crystallographic Data Centre
#                                CCDC 
#
#######################################################################
#
# If this CIF has been generated from an entry in the Cambridge 
# Structural Database, then it will include bibliographic, chemical, 
# crystal, experimental, refinement or atomic coordinate data resulting 
# from the CCDC's data processing and validation procedures.
#
#######################################################################

data_CIDNEK
_symmetry_cell_setting           monoclinic
_symmetry_space_group_name_H-M   'P 21/n'
_symmetry_Int_Tables_number      14
_space_group_name_Hall           '-P 2yn'
loop_
_symmetry_equiv_pos_site_id
_symmetry_equiv_pos_as_xyz
1 x,y,z
2 1/2-x,1/2+y,1/2-z
3 -x,-y,-z
4 1/2+x,1/2-y,1/2+z
_cell_length_a                   15.139(4)
_cell_length_b                   4.0242(7)
_cell_length_c                   20.829(5)
_cell_angle_alpha                90
_cell_angle_beta                 90.99(2)
_cell_angle_gamma                90
_cell_volume                     1268.76
loop_
_atom_site_label
_atom_site_type_symbol
_atom_site_fract_x
_atom_site_fract_y
_atom_site_fract_z
C1 C 0.1932(8) 0.270(4) 0.1801(6)
H1 H 0.1832 0.3809 0.2184
C2 C 0.1248(7) 0.217(4) 0.1402(5)
H2 H 0.0688 0.2880 0.1516
C3 C 0.2197(7) -0.043(3) 0.0725(5)
H3 H 0.2299 -0.1581 0.0347
C4 C 0.2871(7) 0.012(3) 0.1125(5)
C5 C 0.3781(7) -0.109(3) 0.0953(5)
C6 C 0.5328(7) -0.058(3) 0.1336(6)
C7 C 0.5845(7) 0.053(3) 0.1867(6)
C8 C 0.6786(7) 0.011(4) 0.1893(6)
H4 H 0.7120 0.0842 0.2243
C9 C 0.7172(9) -0.142(4) 0.1386(9)
H5 H 0.7781 -0.1713 0.1388
C10 C 0.6628(8) -0.262(4) 0.0824(6)
H6 H 0.6887 -0.3635 0.0473
C11 C 0.5759(7) -0.217(3) 0.0850(5)
H7 H 0.5416 -0.2999 0.0512
N1 N 0.2744(6) 0.173(3) 0.1677(5)
N2 N 0.1357(6) 0.063(3) 0.0846(5)
N3 N 0.4419(6) -0.003(3) 0.1386(5)
H8 H 0.4244 0.1052 0.1716
O1 O 0.3885(6) -0.300(3) 0.0515(5)
Hg1 Hg 0.0000 0.0000 0.0000
Br1 Br -0.08932(7) 0.3779(3) 0.06722(6)
Br2 Br 0.53267(8) 0.2643(4) 0.25808(6)
C1B C -0.1932(8) -0.270(4) -0.1801(6)
H1B H -0.1832 -0.3809 -0.2184
C2B C -0.1248(7) -0.217(4) -0.1402(5)
H2B H -0.0688 -0.2880 -0.1516
C3B C -0.2197(7) 0.043(3) -0.0725(5)
H3B H -0.2299 0.1581 -0.0347
C4B C -0.2871(7) -0.012(3) -0.1125(5)
C5B C -0.3781(7) 0.109(3) -0.0953(5)
C6B C -0.5328(7) 0.058(3) -0.1336(6)
C7B C -0.5845(7) -0.053(3) -0.1867(6)
C8B C -0.6786(7) -0.011(4) -0.1893(6)
H4B H -0.7120 -0.0842 -0.2243
C9B C -0.7172(9) 0.142(4) -0.1386(9)
H5B H -0.7781 0.1713 -0.1388
C10B C -0.6628(8) 0.262(4) -0.0824(6)
H6B H -0.6887 0.3635 -0.0473
C11B C -0.5759(7) 0.217(3) -0.0850(5)
H7B H -0.5416 0.2999 -0.0512
N1B N -0.2744(6) -0.173(3) -0.1677(5)
N2B N -0.1357(6) -0.063(3) -0.0846(5)
N3B N -0.4419(6) 0.003(3) -0.1386(5)
H8B H -0.4244 -0.1052 -0.1716
O1B O -0.3885(6) 0.300(3) -0.0515(5)
Br1B Br 0.08932(7) -0.3779(3) -0.06722(6)
Br2B Br -0.53267(8) -0.2643(4) -0.25808(6)
Hg1_2 Hg 0.0000 -1.0000 0.0000
Hg1_3 Hg 0.0000 1.0000 0.0000
Br1_2 Br -0.08932(7) -0.6221(3) 0.06722(6)
Br1B_2 Br 0.08932(7) 0.6221(3) -0.06722(6)
loop_
_geom_bond_atom_site_label_1
_geom_bond_atom_site_label_2
_geom_bond_site_symmetry_1
_geom_bond_site_symmetry_2
C1 H1 1_555 1_555
C2 C1 1_555 1_555
H2 C2 1_555 1_555
C3 H3 1_555 1_555
C4 C3 1_555 1_555
C5 C4 1_555 1_555
C6 C7 1_555 1_555
C7 C8 1_555 1_555
C8 H4 1_555 1_555
C9 C8 1_555 1_555
H5 C9 1_555 1_555
C10 C9 1_555 1_555
H6 C10 1_555 1_555
C11 C6 1_555 1_555
H7 C11 1_555 1_555
N1 C1 1_555 1_555
N2 C2 1_555 1_555
N3 C5 1_555 1_555
H8 N3 1_555 1_555
O1 C5 1_555 1_555
Hg1 N2 1_555 1_555
Br1 Hg1 1_555 1_555
Br2 C7 1_555 1_555
C1B H1B 1_555 1_555
C2B C1B 1_555 1_555
H2B C2B 1_555 1_555
C3B H3B 1_555 1_555
C4B C3B 1_555 1_555
C5B C4B 1_555 1_555
C6B C7B 1_555 1_555
C7B C8B 1_555 1_555
C8B H4B 1_555 1_555
C9B C8B 1_555 1_555
H5B C9B 1_555 1_555
C10B C9B 1_555 1_555
H6B C10B 1_555 1_555
C11B C6B 1_555 1_555
H7B C11B 1_555 1_555
N1B C1B 1_555 1_555
N2B Hg1 1_555 1_555
N3B C5B 1_555 1_555
H8B N3B 1_555 1_555
O1B C5B 1_555 1_555
Br1B Hg1 1_555 1_555
Br2B C7B 1_555 1_555
Hg1_2 Br1B 1_555 1_555
Hg1_3 Br1 1_555 1_555
Br1_2 Hg1 1_555 1_555
Br1B_2 Hg1 1_555 1_555
C3 N2 1_555 1_555
C4 N1 1_555 1_555
C6 N3 1_555 1_555
C10 C11 1_555 1_555
C2B N2B 1_555 1_555
C3B N2B 1_555 1_555
C4B N1B 1_555 1_555
C6B N3B 1_555 1_555
C10B C11B 1_555 1_555
Hg1_2 Br1_2 1_555 1_555
Hg1_3 Br1B_2 1_555 1_555

#END
