
#######################################################################
#
#                 Cambridge Crystallographic Data Centre
#                                CCDC 
#
#######################################################################
#
# If this CIF has been generated from an entry in the Cambridge 
# Structural Database, then it will include bibliographic, chemical, 
# crystal, experimental, refinement or atomic coordinate data resulting 
# from the CCDC's data processing and validation procedures.
#
#######################################################################

data_CIDPEM
_symmetry_cell_setting           monoclinic
_symmetry_space_group_name_H-M   'P 2/c'
_symmetry_Int_Tables_number      13
_space_group_name_Hall           '-P 2yc'
loop_
_symmetry_equiv_pos_site_id
_symmetry_equiv_pos_as_xyz
1 x,y,z
2 -x,y,1/2-z
3 -x,-y,-z
4 x,-y,1/2+z
_cell_length_a                   15.600(3)
_cell_length_b                   9.6539(19)
_cell_length_c                   20.651(8)
_cell_angle_alpha                90
_cell_angle_beta                 112.25(2)
_cell_angle_gamma                90
_cell_volume                     2878.48
loop_
_atom_site_label
_atom_site_type_symbol
_atom_site_fract_x
_atom_site_fract_y
_atom_site_fract_z
Co1 Co 0.5000 -1.0000 0.0000
N1 N 0.47562(11) -0.94945(19) -0.11042(9)
N2 N 0.37996(12) -0.9444(2) -0.22137(9)
N3 N 0.35759(10) -0.95312(17) -0.02289(9)
N4 N 0.22023(11) -0.9529(2) -0.01653(10)
N5 N 0.53684(11) -0.78893(17) 0.03279(8)
N6 N 0.61070(12) -0.58963(18) 0.06076(10)
C1 C 0.47888(15) -0.8213(2) -0.13840(12)
H1 H 0.5165 -0.7485 -0.1143
C2 C 0.41967(16) -0.8163(3) -0.20593(12)
H2 H 0.4082 -0.7407 -0.2359
C3 C 0.41567(15) -1.0202(2) -0.16276(11)
H3 H 0.4000 -1.1121 -0.1594
C4 C 0.30426(17) -0.9885(3) -0.28633(12)
H4 H 0.3177 -1.0801 -0.2992
H5 H 0.3005 -0.9253 -0.3238
C5 C 0.21256(17) -0.9911(2) -0.27783(12)
C6 C 0.16101(17) -0.8717(3) -0.28523(14)
H6 H 0.1821 -0.7894 -0.2973
C7 C 0.07813(17) -0.8731(2) -0.27483(15)
H7 H 0.0446 -0.7913 -0.2805
C8 C 0.04407(16) -0.9924(2) -0.25627(13)
C9 C 0.09701(19) -1.1127(3) -0.24913(18)
H8 H 0.0762 -1.1954 -0.2370
C10 C 0.17899(19) -1.1117(3) -0.25955(17)
H9 H 0.2125 -1.1934 -0.2542
C11 C 0.29444(14) -0.8941(2) -0.08254(11)
H10 H 0.3080 -0.8605 -0.1198
C12 C 0.21077(15) -0.8925(3) -0.07884(12)
H11 H 0.1565 -0.8572 -0.1122
C13 C 0.31020(14) -0.9858(2) 0.01513(12)
H12 H 0.3357 -1.0270 0.0590
C14 C 0.14731(16) -0.9722(3) 0.01103(16)
H13 H 0.1738 -1.0086 0.0583
H14 H 0.1020 -1.0381 -0.0178
C15 C 0.10100(15) -0.8350(3) 0.01116(13)
C16 C 0.01304(15) -0.8073(3) -0.03716(14)
H15 H -0.0201 -0.8768 -0.0675
C17 C -0.02633(15) -0.6773(3) -0.04097(13)
H16 H -0.0856 -0.6615 -0.0739
C18 C 0.02005(14) -0.5707(3) 0.00288(11)
C19 C 0.10821(16) -0.6011(3) 0.05299(13)
H17 H 0.1410 -0.5326 0.0842
C20 C 0.14718(16) -0.7307(3) 0.05672(14)
H18 H 0.2056 -0.7480 0.0905
C21 C 0.49343(14) -0.7054(2) 0.06507(12)
H19 H 0.4409 -0.7297 0.0735
C22 C 0.53807(16) -0.5838(2) 0.08260(13)
H20 H 0.5227 -0.5101 0.1051
C23 C 0.60706(13) -0.7143(2) 0.03124(11)
H21 H 0.6489 -0.7446 0.0120
C24 C 0.67634(17) -0.4789(2) 0.06412(15)
H22 H 0.6515 -0.3916 0.0725
H23 H 0.6825 -0.4723 0.0192
C25 C 0.77159(15) -0.5004(2) 0.12069(12)
C26 C 0.78736(16) -0.4807(3) 0.19022(14)
H24 H 0.7380 -0.4610 0.2035
C27 C 0.87647(17) -0.4902(2) 0.24070(13)
H25 H 0.8859 -0.4763 0.2875
C28 C 0.95163(14) -0.5200(2) 0.22288(11)
C29 C 0.93473(17) -0.5458(3) 0.15339(13)
H26 H 0.9835 -0.5702 0.1402
C30 C 0.84512(18) -0.5358(3) 0.10276(13)
H27 H 0.8350 -0.5534 0.0562
N1A N -0.47562(11) -0.94945(19) -0.38958(9)
N2A N -0.37996(12) -0.9444(2) -0.27863(9)
C1A C -0.47888(15) -0.8213(2) -0.36160(12)
H1A H -0.5165 -0.7485 -0.3857
C2A C -0.41967(16) -0.8163(3) -0.29407(12)
H2A H -0.4082 -0.7407 -0.2641
C3A C -0.41567(15) -1.0202(2) -0.33724(11)
H3A H -0.4000 -1.1121 -0.3406
C4A C -0.30426(17) -0.9885(3) -0.21367(12)
H4A H -0.3177 -1.0801 -0.2008
H5A H -0.3005 -0.9253 -0.1762
C5A C -0.21256(17) -0.9911(2) -0.22217(12)
C6A C -0.16101(17) -0.8717(3) -0.21477(14)
H6A H -0.1821 -0.7894 -0.2027
C7A C -0.07813(17) -0.8731(2) -0.22517(15)
H7A H -0.0446 -0.7913 -0.2195
C8A C -0.04407(16) -0.9924(2) -0.24373(13)
C9A C -0.09701(19) -1.1127(3) -0.25087(18)
H8A H -0.0762 -1.1954 -0.2630
C10A C -0.17899(19) -1.1117(3) -0.24045(17)
H9A H -0.2125 -1.1934 -0.2458
N3B N -0.35759(10) -0.04688(17) 0.02289(9)
N4B N -0.22023(11) -0.0471(2) 0.01653(10)
C11B C -0.29444(14) -0.1059(2) 0.08254(11)
H10B H -0.3080 -0.1395 0.1198
C12B C -0.21077(15) -0.1075(3) 0.07884(12)
H11B H -0.1565 -0.1428 0.1122
C13B C -0.31020(14) -0.0142(2) -0.01513(12)
H12B H -0.3357 0.0270 -0.0590
C14B C -0.14731(16) -0.0278(3) -0.01103(16)
H13B H -0.1738 0.0086 -0.0583
H14B H -0.1020 0.0381 0.0178
C15B C -0.10100(15) -0.1650(3) -0.01116(13)
C16B C -0.01304(15) -0.1927(3) 0.03716(14)
H15B H 0.0201 -0.1232 0.0675
C17B C 0.02633(15) -0.3227(3) 0.04097(13)
H16B H 0.0856 -0.3385 0.0739
C18B C -0.02005(14) -0.4293(3) -0.00288(11)
C19B C -0.10821(16) -0.3989(3) -0.05299(13)
H17B H -0.1410 -0.4674 -0.0842
C20B C -0.14718(16) -0.2693(3) -0.05672(14)
H18B H -0.2056 -0.2520 -0.0905
N5A N 1.46316(11) -0.78893(17) 0.46721(8)
N6A N 1.38930(12) -0.58963(18) 0.43924(10)
C21A C 1.50657(14) -0.7054(2) 0.43493(12)
H19A H 1.5591 -0.7297 0.4265
C22A C 1.46193(16) -0.5838(2) 0.41740(13)
H20A H 1.4773 -0.5101 0.3949
C23A C 1.39294(13) -0.7143(2) 0.46876(11)
H21A H 1.3511 -0.7446 0.4880
C24A C 1.32366(17) -0.4789(2) 0.43588(15)
H22A H 1.3485 -0.3916 0.4275
H23A H 1.3175 -0.4723 0.4808
C25A C 1.22841(15) -0.5004(2) 0.37931(12)
C26A C 1.21264(16) -0.4807(3) 0.30978(14)
H24A H 1.2620 -0.4610 0.2965
C27A C 1.12353(17) -0.4902(2) 0.25930(13)
H25A H 1.1141 -0.4763 0.2125
C28A C 1.04837(14) -0.5200(2) 0.27712(11)
C29A C 1.06527(17) -0.5458(3) 0.34661(13)
H26A H 1.0165 -0.5702 0.3598
C30A C 1.15488(18) -0.5358(3) 0.39724(13)
H27A H 1.1650 -0.5534 0.4438
Co1_2 Co -0.5000 0.0000 0.0000
Co1A Co -0.5000 -1.0000 -0.5000
Co1A_2 Co 1.5000 -1.0000 0.5000
N1B N 0.52438(11) -1.05055(19) 0.11042(9)
N3B_2 N 0.64241(10) -1.04688(17) 0.02289(9)
N5B N 0.46316(11) -1.21107(17) -0.03279(8)
O1 O 0.27523(18) -0.7293(3) -0.41686(14)
O2 O 0.3585(2) -0.5479(3) -0.39379(17)
O3 O 0.28031(18) -0.6003(3) -0.33147(12)
N7 N 0.30498(15) -0.6266(2) -0.38016(13)
O4 O 0.3957(4) -0.3202(4) -0.2802(3)
H28 H 0.3875 -0.3331 -0.3228
H29 H 0.3627 -0.3330 -0.2560
loop_
_geom_bond_atom_site_label_1
_geom_bond_atom_site_label_2
_geom_bond_site_symmetry_1
_geom_bond_site_symmetry_2
Co1 N1 1_555 1_555
N1 C1 1_555 1_555
N2 C2 1_555 1_555
N3 Co1 1_555 1_555
N4 C12 1_555 1_555
N5 Co1 1_555 1_555
N6 C22 1_555 1_555
C1 H1 1_555 1_555
C2 C1 1_555 1_555
H2 C2 1_555 1_555
C3 N1 1_555 1_555
H3 C3 1_555 1_555
C4 N2 1_555 1_555
H4 C4 1_555 1_555
H5 C4 1_555 1_555
C5 C4 1_555 1_555
C6 C5 1_555 1_555
H6 C6 1_555 1_555
C7 C6 1_555 1_555
H7 C7 1_555 1_555
C8 C7 1_555 1_555
C9 C8 1_555 1_555
H8 C9 1_555 1_555
C10 C5 1_555 1_555
H9 C10 1_555 1_555
C11 N3 1_555 1_555
H10 C11 1_555 1_555
C12 C11 1_555 1_555
H11 C12 1_555 1_555
C13 N3 1_555 1_555
H12 C13 1_555 1_555
C14 N4 1_555 1_555
H13 C14 1_555 1_555
H14 C14 1_555 1_555
C15 C14 1_555 1_555
C16 C15 1_555 1_555
H15 C16 1_555 1_555
C17 C16 1_555 1_555
H16 C17 1_555 1_555
C18 C17 1_555 1_555
C19 C18 1_555 1_555
H17 C19 1_555 1_555
C20 C15 1_555 1_555
H18 C20 1_555 1_555
C21 N5 1_555 1_555
H19 C21 1_555 1_555
C22 C21 1_555 1_555
H20 C22 1_555 1_555
C23 N5 1_555 1_555
H21 C23 1_555 1_555
C24 N6 1_555 1_555
H22 C24 1_555 1_555
H23 C24 1_555 1_555
C25 C24 1_555 1_555
C26 C25 1_555 1_555
H24 C26 1_555 1_555
C27 C26 1_555 1_555
H25 C27 1_555 1_555
C28 C27 1_555 1_555
C29 C28 1_555 1_555
H26 C29 1_555 1_555
C30 C25 1_555 1_555
H27 C30 1_555 1_555
O1 N7 1_555 1_555
O2 N7 1_555 1_555
O3 N7 1_555 1_555
O4 H28 1_555 1_555
H29 O4 1_555 1_555
N1A C1A 1_555 1_555
N2A C2A 1_555 1_555
C1A H1A 1_555 1_555
C2A C1A 1_555 1_555
H2A C2A 1_555 1_555
C3A N1A 1_555 1_555
H3A C3A 1_555 1_555
C4A N2A 1_555 1_555
H4A C4A 1_555 1_555
H5A C4A 1_555 1_555
C5A C4A 1_555 1_555
C6A C5A 1_555 1_555
H6A C6A 1_555 1_555
C7A C6A 1_555 1_555
H7A C7A 1_555 1_555
C8A C8 1_555 1_555
C9A C8A 1_555 1_555
H8A C9A 1_555 1_555
C10A C5A 1_555 1_555
H9A C10A 1_555 1_555
N3B C11B 1_555 1_555
N4B C12B 1_555 1_555
C11B H10B 1_555 1_555
C12B C11B 1_555 1_555
H11B C12B 1_555 1_555
C13B N3B 1_555 1_555
H12B C13B 1_555 1_555
C14B N4B 1_555 1_555
H13B C14B 1_555 1_555
H14B C14B 1_555 1_555
C15B C14B 1_555 1_555
C16B C15B 1_555 1_555
H15B C16B 1_555 1_555
C17B C16B 1_555 1_555
H16B C17B 1_555 1_555
C18B C18 1_555 1_555
C19B C18B 1_555 1_555
H17B C19B 1_555 1_555
C20B C15B 1_555 1_555
H18B C20B 1_555 1_555
N5A C21A 1_555 1_555
N6A C22A 1_555 1_555
C21A H19A 1_555 1_555
C22A C21A 1_555 1_555
H20A C22A 1_555 1_555
C23A N5A 1_555 1_555
H21A C23A 1_555 1_555
C24A N6A 1_555 1_555
H22A C24A 1_555 1_555
H23A C24A 1_555 1_555
C25A C24A 1_555 1_555
C26A C25A 1_555 1_555
H24A C26A 1_555 1_555
C27A C26A 1_555 1_555
H25A C27A 1_555 1_555
C28A C28 1_555 1_555
C29A C28A 1_555 1_555
H26A C29A 1_555 1_555
C30A C25A 1_555 1_555
H27A C30A 1_555 1_555
Co1_2 N3B 1_555 1_555
Co1A N1A 1_555 1_555
Co1A_2 N5A 1_555 1_555
N1B Co1 1_555 1_555
N3B_2 Co1 1_555 1_555
N5B Co1 1_555 1_555
N2 C3 1_555 1_555
N4 C13 1_555 1_555
N6 C23 1_555 1_555
C9 C10 1_555 1_555
C19 C20 1_555 1_555
C29 C30 1_555 1_555
N2A C3A 1_555 1_555
C7A C8A 1_555 1_555
C9A C10A 1_555 1_555
N4B C13B 1_555 1_555
C17B C18B 1_555 1_555
C19B C20B 1_555 1_555
N6A C23A 1_555 1_555
C27A C28A 1_555 1_555
C29A C30A 1_555 1_555

#END
