
#######################################################################
#
#                 Cambridge Crystallographic Data Centre
#                                CCDC 
#
#######################################################################
#
# If this CIF has been generated from an entry in the Cambridge 
# Structural Database, then it will include bibliographic, chemical, 
# crystal, experimental, refinement or atomic coordinate data resulting 
# from the CCDC's data processing and validation procedures.
#
#######################################################################

data_CIDQAI
_symmetry_cell_setting           triclinic
_symmetry_space_group_name_H-M   'P -1'
_symmetry_Int_Tables_number      2
_space_group_name_Hall           '-P 1'
loop_
_symmetry_equiv_pos_site_id
_symmetry_equiv_pos_as_xyz
1 x,y,z
2 -x,-y,-z
_cell_length_a                   8.7338(5)
_cell_length_b                   9.207(1)
_cell_length_c                   13.6232(9)
_cell_angle_alpha                71.537(7)
_cell_angle_beta                 89.001(5)
_cell_angle_gamma                88.754(6)
_cell_volume                     1038.77
loop_
_atom_site_label
_atom_site_type_symbol
_atom_site_fract_x
_atom_site_fract_y
_atom_site_fract_z
Cr1 Cr 1.00000 0.50000 0.50000
K1 K 1.00000 0.50000 1.00000
S1 S 1.20330(11) -0.00701(9) 0.60721(8)
S2 S 1.22510(11) 0.47820(16) 0.81669(8)
N1 N 1.0784(3) 0.2858(2) 0.53114(19)
N2 N 1.0646(3) 0.4949(3) 0.64043(18)
N3 N 1.2144(2) 0.5814(2) 0.44255(17)
N4 N 0.7951(4) 0.6641(4) 0.8492(3)
N5 N 0.8343(5) 0.2393(5) 1.0012(4)
C1 C 1.1296(3) 0.1639(3) 0.5629(2)
C2 C 1.1298(3) 0.4875(3) 0.7144(2)
C3 C 1.2926(3) 0.5237(4) 0.3779(3)
C4 C 1.4357(4) 0.5706(4) 0.3412(3)
C5 C 1.5056(4) 0.6804(4) 0.3722(3)
C6 C 1.4271(4) 0.7398(4) 0.4381(3)
C7 C 1.2832(4) 0.6906(3) 0.4717(3)
C8 C 0.8451(5) 0.7638(5) 0.7639(4)
C9 C 0.7541(9) 0.8583(5) 0.6933(4)
C10 C 0.6036(9) 0.8500(8) 0.7110(8)
C11 C 0.5461(6) 0.7498(8) 0.7960(9)
C12 C 0.6461(8) 0.6607(7) 0.8624(5)
C13 C 0.8166(8) 0.1215(8) 1.0814(5)
C14 C 0.7699(12) -0.0153(8) 1.0768(7)
C15 C 0.7325(15) -0.0256(10) 0.9869(11)
C16 C 0.7486(15) 0.0952(12) 0.9024(7)
C17 C 0.8019(11) 0.2261(8) 0.9136(5)
H1 H 1.239(3) 0.462(3) 0.357(2)
H2 H 1.485(3) 0.533(3) 0.296(2)
H3 H 1.609(4) 0.710(3) 0.347(2)
H4 H 1.467(4) 0.805(4) 0.464(2)
H5 H 1.228(3) 0.724(3) 0.516(2)
H6 H 0.950(4) 0.764(4) 0.758(3)
H7 H 0.798(5) 0.922(5) 0.640(3)
H8 H 0.543(5) 0.902(5) 0.664(3)
H9 H 0.618(5) 0.601(5) 0.922(3)
H10 H 0.840(5) 0.131(5) 1.150(3)
H11 H 0.765(7) -0.090(7) 1.138(4)
H12 H 0.824(6) 0.307(6) 0.854(4)
H13 H 0.42476 0.74818 0.80540
H14 H 0.69422 -0.13112 0.97928
H15 H 0.72948 0.08795 0.83456
K1_2 K 1.00000 0.50000 0.00000
S1A S 0.79670(11) 1.00701(9) 0.39279(8)
S2A S 0.77490(11) 0.52180(16) 0.18331(8)
S2A_2 S 0.77490(11) 0.52180(16) 1.18331(8)
N1A N 0.9216(3) 0.7142(2) 0.46886(19)
N2A N 0.9354(3) 0.5051(3) 0.35957(18)
N3A N 0.7856(2) 0.4186(2) 0.55745(17)
N4A N 1.2049(4) 0.3359(4) 1.1508(3)
N5A N 1.1657(5) 0.7607(5) 0.9988(4)
C1A C 0.8704(3) 0.8361(3) 0.4371(2)
C2A C 0.8702(3) 0.5125(3) 0.2856(2)
C3A C 0.7074(3) 0.4763(4) 0.6221(3)
C4A C 0.5643(4) 0.4294(4) 0.6588(3)
C5A C 0.4944(4) 0.3196(4) 0.6278(3)
C6A C 0.5729(4) 0.2602(4) 0.5619(3)
C7A C 0.7168(4) 0.3094(3) 0.5283(3)
C8A C 1.1549(5) 0.2362(5) 1.2361(4)
C9A C 1.2459(9) 0.1417(5) 1.3067(4)
C10A C 1.3964(9) 0.1500(8) 1.2890(8)
C11A C 1.4539(6) 0.2502(8) 1.2040(9)
C12A C 1.3539(8) 0.3393(7) 1.1376(5)
C13A C 1.1834(8) 0.8785(8) 0.9186(5)
C14A C 1.2301(12) 1.0153(8) 0.9232(7)
C15A C 1.2675(15) 1.0256(10) 1.0131(11)
C16A C 1.2514(15) 0.9048(12) 1.0976(7)
C17A C 1.1981(11) 0.7739(8) 1.0864(5)
H1A H 0.761(3) 0.538(3) 0.643(2)
H2A H 0.515(3) 0.467(3) 0.704(2)
H3A H 0.391(4) 0.290(3) 0.653(2)
H4A H 0.533(4) 0.195(4) 0.536(2)
H5A H 0.772(3) 0.276(3) 0.484(2)
H6A H 1.050(4) 0.236(4) 1.242(3)
H7A H 1.202(5) 0.078(5) 1.360(3)
H8A H 1.457(5) 0.098(5) 1.336(3)
H9A H 1.382(5) 0.399(5) 1.078(3)
H10A H 1.160(5) 0.869(5) 0.850(3)
H11A H 1.235(7) 1.090(7) 0.862(4)
H12A H 1.176(6) 0.693(6) 1.146(4)
H13A H 1.57524 0.25182 1.19460
H14A H 1.30578 1.13112 1.02072
H15A H 1.27052 0.91205 1.16544
loop_
_geom_bond_atom_site_label_1
_geom_bond_atom_site_label_2
_geom_bond_site_symmetry_1
_geom_bond_site_symmetry_2
Cr1 N1 1_555 1_555
K1 S2 1_555 1_555
S1 C1 1_555 1_555
S2 C2 1_555 1_555
N1 C1 1_555 1_555
N2 Cr1 1_555 1_555
N3 Cr1 1_555 1_555
N4 K1 1_555 1_555
N5 K1 1_555 1_555
C2 N2 1_555 1_555
C3 N3 1_555 1_555
C4 C3 1_555 1_555
C5 C4 1_555 1_555
C6 C5 1_555 1_555
C7 N3 1_555 1_555
C8 N4 1_555 1_555
C9 C8 1_555 1_555
C10 C9 1_555 1_555
C11 C10 1_555 1_555
C12 N4 1_555 1_555
C13 N5 1_555 1_555
C14 C13 1_555 1_555
C15 C14 1_555 1_555
C16 C15 1_555 1_555
C17 N5 1_555 1_555
H1 C3 1_555 1_555
H2 C4 1_555 1_555
H3 C5 1_555 1_555
H4 C6 1_555 1_555
H5 C7 1_555 1_555
H6 C8 1_555 1_555
H7 C9 1_555 1_555
H8 C10 1_555 1_555
H9 C12 1_555 1_555
H10 C13 1_555 1_555
H11 C14 1_555 1_555
H12 C17 1_555 1_555
H13 C11 1_555 1_555
H14 C15 1_555 1_555
H15 C16 1_555 1_555
K1_2 S2A 1_555 1_555
S1A C1A 1_555 1_555
S2A C2A 1_555 1_555
S2A_2 K1 1_555 1_555
N1A Cr1 1_555 1_555
N2A Cr1 1_555 1_555
N3A Cr1 1_555 1_555
N4A K1 1_555 1_555
N5A K1 1_555 1_555
C1A N1A 1_555 1_555
C2A N2A 1_555 1_555
C3A N3A 1_555 1_555
C4A C3A 1_555 1_555
C5A C4A 1_555 1_555
C6A C5A 1_555 1_555
C7A N3A 1_555 1_555
C8A N4A 1_555 1_555
C9A C8A 1_555 1_555
C10A C9A 1_555 1_555
C11A C10A 1_555 1_555
C12A N4A 1_555 1_555
C13A N5A 1_555 1_555
C14A C13A 1_555 1_555
C15A C14A 1_555 1_555
C16A C15A 1_555 1_555
C17A N5A 1_555 1_555
H1A C3A 1_555 1_555
H2A C4A 1_555 1_555
H3A C5A 1_555 1_555
H4A C6A 1_555 1_555
H5A C7A 1_555 1_555
H6A C8A 1_555 1_555
H7A C9A 1_555 1_555
H8A C10A 1_555 1_555
H9A C12A 1_555 1_555
H10A C13A 1_555 1_555
H11A C14A 1_555 1_555
H12A C17A 1_555 1_555
H13A C11A 1_555 1_555
H14A C15A 1_555 1_555
H15A C16A 1_555 1_555
C6 C7 1_555 1_555
C11 C12 1_555 1_555
C16 C17 1_555 1_555
C6A C7A 1_555 1_555
C11A C12A 1_555 1_555
C16A C17A 1_555 1_555

#END
