
#######################################################################
#
#                 Cambridge Crystallographic Data Centre
#                                CCDC 
#
#######################################################################
#
# If this CIF has been generated from an entry in the Cambridge 
# Structural Database, then it will include bibliographic, chemical, 
# crystal, experimental, refinement or atomic coordinate data resulting 
# from the CCDC's data processing and validation procedures.
#
#######################################################################

data_CIDVOB
_symmetry_cell_setting           orthorhombic
_symmetry_space_group_name_H-M   'P n m a'
_symmetry_Int_Tables_number      62
_space_group_name_Hall           '-P 2ac 2n'
loop_
_symmetry_equiv_pos_site_id
_symmetry_equiv_pos_as_xyz
1 x,y,z
2 1/2-x,-y,1/2+z
3 -x,1/2+y,-z
4 1/2+x,1/2-y,1/2-z
5 -x,-y,-z
6 1/2+x,y,1/2-z
7 x,1/2-y,z
8 1/2-x,1/2+y,1/2+z
_cell_length_a                   23.065(5)
_cell_length_b                   7.4423(15)
_cell_length_c                   9.846(2)
_cell_angle_alpha                90
_cell_angle_beta                 90
_cell_angle_gamma                90
_cell_volume                     1690.13
loop_
_atom_site_label
_atom_site_type_symbol
_atom_site_fract_x
_atom_site_fract_y
_atom_site_fract_z
Co1 Co 0.12297(6) 0.2500 0.36806(15)
Co2 Co -0.00785(6) 0.7500 0.18982(16)
Co3 Co 0.25881(6) 0.7500 0.43236(15)
O1 O -0.1745(2) 0.5696(7) 0.1217(6)
O2 O -0.0769(2) 0.5696(7) 0.1398(6)
N1 N 0.0487(3) 0.5432(9) 0.2402(7)
C1 C 0.0775(3) 0.4323(11) 0.2874(8)
N2 N 0.2011(3) 0.5442(9) 0.4794(7)
C2 C 0.1693(3) 0.4307(10) 0.4446(8)
N3 N 0.0428(4) 0.2500 0.6134(11)
C3 C 0.0725(4) 0.2500 0.5187(12)
N4 N 0.2052(4) 0.2500 0.1275(11)
C4 C 0.1736(4) 0.2500 0.2203(11)
C5 C -0.1259(3) 0.6475(11) 0.1302(8)
K1 K 0.16102(16) 0.7500 0.7357(4)
O3 O 0.0194(4) 0.7500 -0.0137(10)
O4 O 0.2264(4) 0.7500 0.2236(10)
O5 O 0.0626(5) 0.710(3) 0.6006(15)
Co2D Co 0.00785(6) 0.2500 0.81018(16)
Co2_2 Co -0.00785(6) -0.2500 0.18982(16)
Co3E Co -0.24119(6) 0.7500 0.06764(15)
Co3G Co 0.24119(6) 0.2500 -0.06764(15)
Co3_2 Co 0.25881(6) -0.2500 0.43236(15)
O1F O -0.1745(2) 0.9304(7) 0.1217(6)
O1E O 0.3255(2) 0.5696(7) 0.3783(6)
O1C O 0.3255(2) 0.9304(7) 0.3783(6)
O1D O 0.1745(2) 0.4304(7) 0.8783(6)
O1B O 0.1745(2) 1.0696(7) 0.8783(6)
O2F O -0.0769(2) 0.9304(7) 0.1398(6)
O2D O 0.0769(2) 0.4304(7) 0.8602(6)
O2B O 0.0769(2) 1.0696(7) 0.8602(6)
N1F N 0.0487(3) -0.0432(9) 0.2402(7)
N1F_2 N 0.0487(3) 0.9568(9) 0.2402(7)
C1F C 0.0775(3) 0.0677(11) 0.2874(8)
N2F N 0.2011(3) -0.0442(9) 0.4794(7)
N2F_2 N 0.2011(3) 0.9558(9) 0.4794(7)
C2F C 0.1693(3) 0.0693(10) 0.4446(8)
N3D N -0.0428(4) 0.7500 0.3866(11)
N4G N 0.2948(4) 0.7500 0.6275(11)
C5F C -0.1259(3) 0.8525(11) 0.1302(8)
K1D K -0.16102(16) 0.2500 0.2643(4)
K1G K 0.33898(16) 0.2500 0.2357(4)
K1D_2 K -0.16102(16) 1.2500 0.2643(4)
K1_2 K 0.16102(16) -0.2500 0.7357(4)
O5F O 0.0626(5) 0.790(3) 0.6006(15)
loop_
_geom_bond_atom_site_label_1
_geom_bond_atom_site_label_2
_geom_bond_site_symmetry_1
_geom_bond_site_symmetry_2
Co1 C1 1_555 1_555
Co2 O2 1_555 1_555
Co3 N2 1_555 1_555
O1 C5 1_555 1_555
O2 C5 1_555 1_555
N1 Co2 1_555 1_555
C1 N1 1_555 1_555
N2 C2 1_555 1_555
C2 Co1 1_555 1_555
N3 C3 1_555 1_555
C3 Co1 1_555 1_555
N4 C4 1_555 1_555
C4 Co1 1_555 1_555
C5 C5F 1_555 1_555
K1 N2 1_555 1_555
O3 Co2 1_555 1_555
O4 Co3 1_555 1_555
O5 K1 1_555 1_555
Co2D N3 1_555 1_555
Co2_2 N1F 1_555 1_555
Co3E O1 1_555 1_555
Co3G N4 1_555 1_555
Co3_2 N2F 1_555 1_555
O1F Co3E 1_555 1_555
O1E Co3 1_555 1_555
O1C Co3 1_555 1_555
O1D K1 1_555 1_555
O1B K1 1_555 1_555
O2F Co2 1_555 1_555
O2D K1 1_555 1_555
O2B K1 1_555 1_555
N1F C1F 1_555 1_555
N1F_2 Co2 1_555 1_555
C1F Co1 1_555 1_555
N2F C2F 1_555 1_555
N2F_2 Co3 1_555 1_555
C2F Co1 1_555 1_555
N3D Co2 1_555 1_555
N4G Co3 1_555 1_555
C5F O1F 1_555 1_555
K1D O1 1_555 1_555
K1G N4 1_555 1_555
K1D_2 O1F 1_555 1_555
K1_2 N2F 1_555 1_555
O5F K1 1_555 1_555
O2 K1D 1_555 1_555
K1 N2F_2 1_555 1_555
K1 N4G 1_555 1_555
O5 O5F 1_555 1_555
Co2D O2D 1_555 1_555
O1E K1G 1_555 1_555
O2F C5F 1_555 1_555
O2F K1D_2 1_555 1_555

#END
