
#######################################################################
#
#                 Cambridge Crystallographic Data Centre
#                                CCDC 
#
#######################################################################
#
# If this CIF has been generated from an entry in the Cambridge 
# Structural Database, then it will include bibliographic, chemical, 
# crystal, experimental, refinement or atomic coordinate data resulting 
# from the CCDC's data processing and validation procedures.
#
#######################################################################

data_CIDWIX
_symmetry_cell_setting           orthorhombic
_symmetry_space_group_name_H-M   'P 21 21 2'
_symmetry_Int_Tables_number      18
_space_group_name_Hall           'P 2 2ab'
loop_
_symmetry_equiv_pos_site_id
_symmetry_equiv_pos_as_xyz
1 x,y,z
2 -x,-y,z
3 1/2+x,1/2-y,-z
4 1/2-x,1/2+y,-z
_cell_length_a                   15.3549(19)
_cell_length_b                   27.269(3)
_cell_length_c                   8.2486(10)
_cell_angle_alpha                90
_cell_angle_beta                 90
_cell_angle_gamma                90
_cell_volume                     3453.79
loop_
_atom_site_label
_atom_site_type_symbol
_atom_site_fract_x
_atom_site_fract_y
_atom_site_fract_z
C1 C 0.3499(3) 1.1386(2) 1.0051(12)
C2 C 0.3113(5) 1.0887(2) 1.049(2)
H1 H 0.3290 1.0642 0.9703
H2 H 0.3315 1.0785 1.1551
C3 C 0.2191(3) 1.09362(17) 1.0491(6)
H3 H 0.1957 1.0871 1.1562
H4 H 0.1929 1.0709 0.9729
C4 C 0.2003(2) 1.14704(14) 0.9983(5)
H5 H 0.1676 1.1641 1.0834
C5 C 0.1500(2) 1.14830(12) 0.8380(4)
C6 C -0.1490(2) 1.05347(13) 0.6804(4)
C7 C -0.2316(3) 1.03025(19) 0.7406(7)
H6 H -0.2759 1.0549 0.7596
H7 H -0.2212 1.0126 0.8408
C8 C -0.2595(3) 0.99547(18) 0.6076(7)
H8 H -0.3074 1.0092 0.5459
H9 H -0.2776 0.9642 0.6527
C9 C -0.1792(2) 0.98912(12) 0.5007(5)
H10 H -0.1956 0.9927 0.3865
C10 C -0.1355(2) 0.93960(11) 0.5266(4)
C11 C 0.0118(2) 0.86239(12) 0.3080(4)
C12 C 0.0615(2) 0.86609(14) 0.1494(5)
H11 H 0.0253 0.8834 0.0699
C13 C 0.1507(3) 0.89097(15) 0.1573(5)
H12 H 0.1486 0.9232 0.1079
H13 H 0.1699 0.8943 0.2688
C14 C 0.2117(3) 0.85722(16) 0.0631(6)
H14 H 0.2272 0.8718 -0.0403
H15 H 0.2646 0.8512 0.1242
C15 C 0.1621(3) 0.81060(15) 0.0383(5)
C16 C -0.0064(2) 0.77230(12) 0.6142(4)
C17 C 0.0339(2) 0.72151(14) 0.6299(5)
H16 H -0.0019 0.7012 0.7020
C18 C 0.0440(3) 0.69582(19) 0.4647(6)
H17 H -0.0018 0.6718 0.4487
H18 H 0.0419 0.7195 0.3770
C19 C 0.1329(3) 0.67098(19) 0.4720(6)
H19 H 0.1270 0.6363 0.4961
H20 H 0.1638 0.6747 0.3701
C20 C 0.1793(2) 0.69688(13) 0.6050(5)
Cu1 Cu 0.00388(3) 1.124198(14) 0.65065(5)
Cu2 Cu -0.13642(3) 0.835370(14) 0.49516(5)
N1 N 0.2876(2) 1.16776(12) 0.9829(4)
H21 H 0.2960 1.1982 0.9600
N2 N -0.1248(2) 1.02977(11) 0.5491(4)
H22 H -0.0791 1.0380 0.4951
N3 N 0.0802(2) 0.81741(13) 0.0890(5)
H23 H 0.0416 0.7946 0.0860
N4 N 0.1225(2) 0.72340(11) 0.6904(4)
H24 H 0.1373 0.7402 0.7742
O1 O 0.4281(3) 1.14838(17) 1.0010(12)
O2 O 0.18758(18) 1.16299(12) 0.7148(3)
O3 O 0.07279(16) 1.13276(10) 0.8467(3)
O4 O -0.11086(17) 1.08788(9) 0.7468(3)
O5 O -0.06745(18) 0.93784(9) 0.6095(3)
O6 O -0.17486(19) 0.90352(9) 0.4639(4)
O7 O 0.04628(19) 0.88041(11) 0.4327(3)
O8 O -0.06031(18) 0.84085(12) 0.3032(3)
O9 O 0.1918(2) 0.77279(11) -0.0228(4)
O10 O -0.08063(18) 0.77317(10) 0.5503(4)
O11 O 0.03655(17) 0.80771(9) 0.6642(4)
O12 O 0.25838(17) 0.69484(10) 0.6374(3)
Cu1A Cu -0.00388(3) 0.875802(14) 0.65065(5)
Cu2A Cu 0.13642(3) 1.164630(14) 0.49516(5)
Cu2B Cu 0.36358(3) 0.664630(14) 0.50484(5)
O2A O -0.18758(18) 0.83701(12) 0.7148(3)
O5A O 0.06745(18) 1.06216(9) 0.6095(3)
O7A O -0.04628(19) 1.11959(11) 0.4327(3)
O11A O -0.03655(17) 1.19229(9) 0.6642(4)
O12B O -0.24162(17) 0.80516(10) 0.3626(3)
C21 C 0.2508(6) 0.8126(3) 0.5409(17)
C22 C 0.3024(5) 0.8532(3) 0.5224(15)
N5 N 0.3459(8) 0.8871(3) 0.500(2)
C23 C 0.0000 0.0000 -0.0484(8)
C24 C 0.0000 0.0000 0.1251(7)
N6 N 0.0000 0.0000 0.2612(7)
N7? N 0.5038(13) 0.0555(11) 0.693(5)
C25? C 0.4456(11) 0.9209(9) 0.182(8)
C26? C 0.426(3) 0.967(2) 0.084(8)
N8? N 0.3348(15) 0.9669(5) 0.1646(13)
C27? C 0.9856(3) 0.73259(16) 0.0280(7)
C28? C 0.8991(4) 0.7227(3) 0.0696(13)
loop_
_geom_bond_atom_site_label_1
_geom_bond_atom_site_label_2
_geom_bond_site_symmetry_1
_geom_bond_site_symmetry_2
C1 C2 1_555 1_555
C2 H1 1_555 1_555
H2 C2 1_555 1_555
C3 C2 1_555 1_555
H3 C3 1_555 1_555
H4 C3 1_555 1_555
C4 C3 1_555 1_555
H5 C4 1_555 1_555
C5 C4 1_555 1_555
C6 C7 1_555 1_555
C7 H6 1_555 1_555
H7 C7 1_555 1_555
C8 C7 1_555 1_555
H8 C8 1_555 1_555
H9 C8 1_555 1_555
C9 C8 1_555 1_555
H10 C9 1_555 1_555
C10 C9 1_555 1_555
C11 C12 1_555 1_555
C12 H11 1_555 1_555
C13 C12 1_555 1_555
H12 C13 1_555 1_555
H13 C13 1_555 1_555
C14 C13 1_555 1_555
H14 C14 1_555 1_555
H15 C14 1_555 1_555
C15 C14 1_555 1_555
C16 C17 1_555 1_555
C17 H16 1_555 1_555
C18 C17 1_555 1_555
H17 C18 1_555 1_555
H18 C18 1_555 1_555
C19 C18 1_555 1_555
H19 C19 1_555 1_555
H20 C19 1_555 1_555
C20 C19 1_555 1_555
Cu1 O3 1_555 1_555
Cu2 O6 1_555 1_555
N1 C1 1_555 1_555
H21 N1 1_555 1_555
N2 C6 1_555 1_555
H22 N2 1_555 1_555
N3 C12 1_555 1_555
H23 N3 1_555 1_555
N4 C17 1_555 1_555
H24 N4 1_555 1_555
O1 C1 1_555 1_555
O2 C5 1_555 1_555
O3 C5 1_555 1_555
O4 C6 1_555 1_555
O5 C10 1_555 1_555
O6 C10 1_555 1_555
O7 C11 1_555 1_555
O8 C11 1_555 1_555
O9 C15 1_555 1_555
O10 C16 1_555 1_555
O11 C16 1_555 1_555
O12 C20 1_555 1_555
C21 C22 1_555 1_555
C22 N5 1_555 1_555
C23 C24 1_555 1_555
C24 N6 1_555 1_555
Cu1A Cu2 1_555 1_555
Cu2A Cu1 1_555 1_555
Cu2B O12 1_555 1_555
O2A Cu2 1_555 1_555
O5A Cu1 1_555 1_555
O7A Cu1 1_555 1_555
O11A Cu1 1_555 1_555
O12B Cu2 1_555 1_555
C4 N1 1_555 1_555
C9 N2 1_555 1_555
C15 N3 1_555 1_555
C20 N4 1_555 1_555
Cu1 O4 1_555 1_555
Cu2 O8 1_555 1_555
Cu2 O10 1_555 1_555
O2 Cu2A 1_555 1_555
O5 Cu1A 1_555 1_555
O7 Cu1A 1_555 1_555
O11 Cu1A 1_555 1_555

#END
