
#######################################################################
#
#                 Cambridge Crystallographic Data Centre
#                                CCDC 
#
#######################################################################
#
# If this CIF has been generated from an entry in the Cambridge 
# Structural Database, then it will include bibliographic, chemical, 
# crystal, experimental, refinement or atomic coordinate data resulting 
# from the CCDC's data processing and validation procedures.
#
#######################################################################

data_CIDWUJ
_symmetry_cell_setting           orthorhombic
_symmetry_space_group_name_H-M   'P 2 21 21'
_symmetry_Int_Tables_number      18
_space_group_name_Hall           'P 2bc 2'
loop_
_symmetry_equiv_pos_site_id
_symmetry_equiv_pos_as_xyz
1 x,y,z
2 -x,1/2-y,1/2+z
3 x,-y,-z
4 -x,1/2+y,1/2-z
_cell_length_a                   8.280(5)
_cell_length_b                   15.304(5)
_cell_length_c                   27.239(5)
_cell_angle_alpha                90
_cell_angle_beta                 90
_cell_angle_gamma                90
_cell_volume                     3451.65
loop_
_atom_site_label
_atom_site_type_symbol
_atom_site_fract_x
_atom_site_fract_y
_atom_site_fract_z
C1 C 0.9944(12) 1.3533(4) 0.3618(3)
C2 C 1.020(3) 1.3160(6) 0.4116(3)
H1 H 1.1136 1.3425 0.4269
H2 H 0.9264 1.3275 0.4321
C3 C 1.0435(7) 1.2241(4) 0.4067(2)
H3 H 0.9769 1.1922 0.4299
H4 H 1.1558 1.2087 0.4121
C4 C 0.9930(6) 1.2041(3) 0.35391(18)
H5 H 1.0781 1.1708 0.3374
C5 C 0.8340(5) 1.1523(3) 0.35292(17)
C6 C 0.6048(5) 0.8276(3) 0.19576(17)
C7 C 0.4719(7) 0.8725(4) 0.1697(2)
H6 H 0.3718 0.8401 0.1728
H7 H 0.4972 0.8798 0.1352
C8 C 0.4597(7) 0.9599(4) 0.1951(2)
H8 H 0.3724 0.9599 0.2189
H9 H 0.4408 1.0063 0.1715
C9 C 0.6249(6) 0.9721(3) 0.22098(18)
H10 H 0.6950 1.0092 0.2008
C10 C 0.6085(5) 1.0116(3) 0.27209(17)
C11 C 0.0329(5) 0.8414(3) 0.31086(19)
C12 C 0.0582(7) 0.7916(4) 0.3576(2)
H11 H 0.1192 0.7386 0.3515
H12 H -0.0446 0.7760 0.3723
C13 C 0.1513(6) 0.8523(3) 0.39091(18)
H13 H 0.2622 0.8329 0.3943
H14 H 0.1020 0.8546 0.4232
C14 C 0.1445(6) 0.9424(3) 0.36605(17)
H15 H 0.0654 0.9789 0.3833
C15 C 0.3038(5) 0.9919(3) 0.36263(15)
C16 C 0.6762(5) 0.8518(3) 0.44535(17)
C17 C 0.7347(8) 0.7671(4) 0.4682(2)
H16 H 0.7540 0.7234 0.4431
H17 H 0.8341 0.7766 0.4863
C18 C 0.6027(8) 0.7387(3) 0.5019(2)
H18 H 0.6469 0.7187 0.5329
H19 H 0.5410 0.6915 0.4873
C19 C 0.4960(6) 0.8192(3) 0.50967(16)
H20 H 0.3822 0.8028 0.5062
C20 C 0.5225(5) 0.8615(3) 0.55936(16)
Cu1 Cu 0.64511(6) 1.00698(3) 0.375844(19)
Cu2 Cu 0.49071(6) 1.14084(3) 0.336374(19)
N1 N 0.9799(5) 1.2901(3) 0.33217(16)
H21 H 0.9634 1.2977 0.3013
N2 N 0.6878(5) 0.8838(3) 0.22195(15)
H22 H 0.7724 0.8693 0.2383
N3 N 0.0846(5) 0.9234(3) 0.31756(17)
H23 H 0.0822 0.9620 0.2946
N4 N 0.5435(5) 0.8755(3) 0.46876(14)
H24 H 0.4888 0.9209 0.4605
O1 O 0.8412(4) 1.0761(2) 0.36818(13)
O2 O 0.7104(4) 1.1921(2) 0.33823(15)
O3 O 0.9855(12) 1.4320(3) 0.3511(2)
O4 O 0.6585(5) 0.9682(2) 0.30721(12)
O5 O 0.5429(5) 1.0855(2) 0.27328(13)
O6 O 0.6401(4) 0.7476(2) 0.19309(12)
O7 O 0.2981(4) 1.0641(2) 0.34160(15)
O8 O 0.4271(4) 0.9576(2) 0.37961(14)
O9 O -0.0277(5) 0.8131(3) 0.27272(14)
O10 O 0.6046(4) 0.9310(2) 0.56136(12)
O11 O 0.4605(4) 0.8226(2) 0.59503(12)
O12 O 0.7417(4) 0.8903(2) 0.41146(12)
Cu1B Cu 0.64511(6) 0.99302(3) 0.624156(19)
Cu2B Cu 0.49071(6) 0.85916(3) 0.663626(19)
Cu2C Cu 0.50929(6) 0.64084(3) 0.163626(19)
O6C O 0.3599(4) 1.2476(2) 0.30691(12)
O10B O 0.6046(4) 1.0690(2) 0.43864(12)
O11B O 0.4605(4) 1.1774(2) 0.40497(12)
C21 C 0.1201(8) 0.0000 0.5000
C22 C -0.0541(9) 0.0000 0.5000
N5 N 0.2568(8) 0.0000 0.5000
C23 C 0.524(3) 0.7568(7) 0.3097(4)
C24 C 0.5053(17) 0.7024(6) 0.3523(3)
N6 N 0.465(3) 0.6592(8) 0.3831(4)
C25 C 0.055(2) 0.1038(8) 0.2235(5)
C26 C 0.204(3) 0.1656(13) 0.2216(8)
N7 N 0.0116(8) 0.0217(3) 0.23426(19)
C27 C 0.187(5) 0.4141(19) 0.5591(12)
C28 C 0.1654(19) 0.3278(15) 0.5317(5)
N8 N 0.259(9) 0.469(2) 0.5617(18)
loop_
_geom_bond_atom_site_label_1
_geom_bond_atom_site_label_2
_geom_bond_site_symmetry_1
_geom_bond_site_symmetry_2
C1 C2 1_555 1_555
C2 H1 1_555 1_555
H2 C2 1_555 1_555
C3 C2 1_555 1_555
H3 C3 1_555 1_555
H4 C3 1_555 1_555
C4 C3 1_555 1_555
H5 C4 1_555 1_555
C5 C4 1_555 1_555
C6 C7 1_555 1_555
C7 H6 1_555 1_555
H7 C7 1_555 1_555
C8 C7 1_555 1_555
H8 C8 1_555 1_555
H9 C8 1_555 1_555
C9 C8 1_555 1_555
H10 C9 1_555 1_555
C10 C9 1_555 1_555
C11 C12 1_555 1_555
C12 H11 1_555 1_555
H12 C12 1_555 1_555
C13 C12 1_555 1_555
H13 C13 1_555 1_555
H14 C13 1_555 1_555
C14 C13 1_555 1_555
H15 C14 1_555 1_555
C15 C14 1_555 1_555
C16 C17 1_555 1_555
C17 H16 1_555 1_555
H17 C17 1_555 1_555
C18 C17 1_555 1_555
H18 C18 1_555 1_555
H19 C18 1_555 1_555
C19 C18 1_555 1_555
H20 C19 1_555 1_555
C20 C19 1_555 1_555
Cu1 Cu2 1_555 1_555
Cu2 O2 1_555 1_555
N1 C1 1_555 1_555
H21 N1 1_555 1_555
N2 C6 1_555 1_555
H22 N2 1_555 1_555
N3 C11 1_555 1_555
H23 N3 1_555 1_555
N4 C16 1_555 1_555
H24 N4 1_555 1_555
O1 C5 1_555 1_555
O2 C5 1_555 1_555
O3 C1 1_555 1_555
O4 C10 1_555 1_555
O5 C10 1_555 1_555
O6 C6 1_555 1_555
O7 C15 1_555 1_555
O8 C15 1_555 1_555
O9 C11 1_555 1_555
O10 C20 1_555 1_555
O11 C20 1_555 1_555
O12 C16 1_555 1_555
C21 C22 1_555 1_555
N5 C21 1_555 1_555
C23 C24 1_555 1_555
C24 N6 1_555 1_555
C25 C26 1_555 1_555
N7 C25 1_555 1_555
C27 C28 1_555 1_555
N8 C27 1_555 1_555
Cu1B O10 1_555 1_555
Cu2B O11 1_555 1_555
Cu2C O6 1_555 1_555
O6C Cu2 1_555 1_555
O10B Cu1 1_555 1_555
O11B Cu2 1_555 1_555
C4 N1 1_555 1_555
C9 N2 1_555 1_555
C14 N3 1_555 1_555
C19 N4 1_555 1_555
Cu1 O1 1_555 1_555
Cu1 O4 1_555 1_555
Cu1 O8 1_555 1_555
Cu1 O12 1_555 1_555
Cu2 O5 1_555 1_555
Cu2 O7 1_555 1_555
Cu1B Cu2B 1_555 1_555

#END
