
#######################################################################
#
#                 Cambridge Crystallographic Data Centre
#                                CCDC 
#
#######################################################################
#
# If this CIF has been generated from an entry in the Cambridge 
# Structural Database, then it will include bibliographic, chemical, 
# crystal, experimental, refinement or atomic coordinate data resulting 
# from the CCDC's data processing and validation procedures.
#
#######################################################################

data_CIDZUM
_symmetry_cell_setting           monoclinic
_symmetry_space_group_name_H-M   'P 21/n'
_symmetry_Int_Tables_number      14
_space_group_name_Hall           '-P 2yn'
loop_
_symmetry_equiv_pos_site_id
_symmetry_equiv_pos_as_xyz
1 x,y,z
2 1/2-x,1/2+y,1/2-z
3 -x,-y,-z
4 1/2+x,1/2-y,1/2+z
_cell_length_a                   9.1809(8)
_cell_length_b                   9.5715(6)
_cell_length_c                   20.3207(15)
_cell_angle_alpha                90
_cell_angle_beta                 102.120(6)
_cell_angle_gamma                90
_cell_volume                     1745.88
loop_
_atom_site_label
_atom_site_type_symbol
_atom_site_fract_x
_atom_site_fract_y
_atom_site_fract_z
Ni1 Ni -0.16532(5) 0.49529(5) 0.70578(2)
N1 N 0.0537(3) 0.5038(3) 0.76285(14)
C1 C 0.1287(4) 0.6235(4) 0.78007(18)
H1 H 0.0874 0.7074 0.7591
C2 C 0.2615(4) 0.6322(4) 0.82611(18)
H2 H 0.3100 0.7197 0.8358
C3 C 0.3252(4) 0.5096(4) 0.85889(17)
C4 C 0.2493(4) 0.3842(4) 0.83889(19)
H3 H 0.2890 0.2978 0.8576
C5 C 0.1178(4) 0.3871(4) 0.79233(18)
H4 H 0.0686 0.3007 0.7800
N2 N 0.4529(3) 0.5128(3) 0.90566(16)
H5 H 0.504(4) 0.5947(18) 0.9227(17)
H6 H 0.492(4) 0.4341(19) 0.9313(16)
N3 N -0.3890(3) 0.4803(3) 0.65858(14)
C6 C -0.4373(4) 0.4317(4) 0.59539(18)
H7 H -0.3647 0.4065 0.5704
C7 C -0.5846(4) 0.4165(4) 0.56497(18)
H8 H -0.6113 0.3793 0.5207
C8 C -0.6963(4) 0.4560(3) 0.59934(18)
C9 C -0.6466(4) 0.5067(4) 0.66502(17)
H9 H -0.7166 0.5344 0.6909
C10 C -0.4962(4) 0.5164(3) 0.69190(17)
H10 H -0.4660 0.5505 0.7366
N4 N -0.8425(3) 0.4448(3) 0.57167(17)
H11 H -0.922(3) 0.483(4) 0.5876(16)
H12 H -0.874(3) 0.401(4) 0.5297(10)
O1 O -0.2041(3) 0.7004(2) 0.73364(12)
O2 O -0.2804(3) 0.9188(2) 0.70677(12)
O3 O -0.0920(3) 0.5679(2) 0.62541(12)
O4 O -0.0654(3) 0.7303(2) 0.55102(12)
C11 C -0.2393(4) 0.7980(3) 0.69171(17)
C12 C -0.2426(4) 0.7762(3) 0.61760(17)
H13 H -0.2377 0.8695 0.5971
H14 H -0.3408 0.7357 0.5970
C13 C -0.1238(4) 0.6855(3) 0.59716(17)
O5 O -0.1279(3) 0.2921(2) 0.67334(12)
H15 H -0.206(3) 0.237(3) 0.6841(14)
H16 H -0.131(4) 0.283(3) 0.6263(6)
Ni1A Ni -0.33468(5) 0.99529(5) 0.79422(2)
O2A O -0.2196(3) 0.4188(2) 0.79323(12)
O6 O 0.8580(3) 0.2560(3) 0.53553(13)
H17 H 0.925(3) 0.269(4) 0.5067(14)
H18 H 0.767(2) 0.219(4) 0.5111(15)
O7 O 0.4130(4) 0.8416(3) 0.52267(16)
H19 H 0.411(6) 0.876(4) 0.4783(8)
H20 H 0.437(6) 0.918(3) 0.5532(14)
O8 O 0.9422(4) 0.5794(3) 0.89627(14)
H21 H 0.873(4) 0.529(4) 0.8642(15)
H22 H 0.994(4) 0.644(4) 0.8752(17)
loop_
_geom_bond_atom_site_label_1
_geom_bond_atom_site_label_2
_geom_bond_site_symmetry_1
_geom_bond_site_symmetry_2
Ni1 N1 1_555 1_555
N1 C1 1_555 1_555
C1 H1 1_555 1_555
C2 C1 1_555 1_555
H2 C2 1_555 1_555
C3 C2 1_555 1_555
C4 C3 1_555 1_555
H3 C4 1_555 1_555
C5 N1 1_555 1_555
H4 C5 1_555 1_555
N2 C3 1_555 1_555
H5 N2 1_555 1_555
H6 N2 1_555 1_555
N3 Ni1 1_555 1_555
C6 N3 1_555 1_555
H7 C6 1_555 1_555
C7 C6 1_555 1_555
H8 C7 1_555 1_555
C8 C7 1_555 1_555
C9 C8 1_555 1_555
H9 C9 1_555 1_555
C10 N3 1_555 1_555
H10 C10 1_555 1_555
N4 C8 1_555 1_555
H11 N4 1_555 1_555
H12 N4 1_555 1_555
O1 Ni1 1_555 1_555
O2 C11 1_555 1_555
O3 Ni1 1_555 1_555
O4 C13 1_555 1_555
C11 O1 1_555 1_555
C12 C11 1_555 1_555
H13 C12 1_555 1_555
H14 C12 1_555 1_555
C13 O3 1_555 1_555
O5 Ni1 1_555 1_555
H15 O5 1_555 1_555
H16 O5 1_555 1_555
O6 H17 1_555 1_555
H18 O6 1_555 1_555
O7 H19 1_555 1_555
H20 O7 1_555 1_555
O8 H21 1_555 1_555
H22 O8 1_555 1_555
Ni1A O2 1_555 1_555
O2A Ni1 1_555 1_555
C4 C5 1_555 1_555
C9 C10 1_555 1_555
C12 C13 1_555 1_555

#END
