
#######################################################################
#
#                 Cambridge Crystallographic Data Centre
#                                CCDC 
#
#######################################################################
#
# If this CIF has been generated from an entry in the Cambridge 
# Structural Database, then it will include bibliographic, chemical, 
# crystal, experimental, refinement or atomic coordinate data resulting 
# from the CCDC's data processing and validation procedures.
#
#######################################################################

data_CIFBUQ
_symmetry_cell_setting           monoclinic
_symmetry_space_group_name_H-M   'P 21/c'
_symmetry_Int_Tables_number      14
_space_group_name_Hall           '-P 2ybc'
loop_
_symmetry_equiv_pos_site_id
_symmetry_equiv_pos_as_xyz
1 x,y,z
2 -x,1/2+y,1/2-z
3 -x,-y,-z
4 x,1/2-y,1/2+z
_cell_length_a                   10.1163(3)
_cell_length_b                   7.7922(2)
_cell_length_c                   16.0161(5)
_cell_angle_alpha                90
_cell_angle_beta                 90.522(2)
_cell_angle_gamma                90
_cell_volume                     1262.47
loop_
_atom_site_label
_atom_site_type_symbol
_atom_site_fract_x
_atom_site_fract_y
_atom_site_fract_z
Zn1 Zn 0.69704(3) 0.00414(3) 0.231239(16)
O1 O 0.67571(15) 0.26067(19) 0.22203(10)
O2 O 0.71472(19) 0.1633(2) 0.09603(11)
O3 O 0.61654(17) 0.7876(2) -0.14473(10)
O4 O 0.70542(18) 0.52391(19) -0.14811(10)
O5 O 0.85545(16) -0.1132(2) 0.18844(10)
N1 N 0.5427(2) 0.8877(2) 0.17099(12)
N2 N 1.0365(2) -0.1360(3) 0.11137(14)
C1 C 0.6600(2) 0.4570(3) 0.10640(15)
C2 C 0.6734(2) 0.4794(3) 0.02065(15)
H1 H 0.7021 0.3860 -0.0127
C3 C 0.6455(2) 0.6355(3) -0.01678(14)
C4 C 0.6010(2) 0.7712(3) 0.03257(14)
H2 H 0.5807 0.8786 0.0075
C5 C 0.5863(2) 0.7497(3) 0.11812(14)
C6 C 0.6176(2) 0.5936(3) 0.15525(14)
H3 H 0.6100 0.5802 0.2140
C7 C 0.6861(2) 0.2833(3) 0.14279(15)
C8 C 0.6562(2) 0.6554(3) -0.11010(15)
C9 C 0.9628(3) -0.0515(3) 0.16371(16)
C10 C 1.0104(3) 0.1185(4) 0.1947(2)
H4 H 0.9480 0.1636 0.2358
H5 H 1.0167 0.1987 0.1478
H6 H 1.0976 0.1049 0.2210
C11 C 1.1686(3) -0.0806(4) 0.0863(2)
H7 H 1.1828 0.0387 0.1036
H8 H 1.1763 -0.0892 0.0255
H9 H 1.2352 -0.1542 0.1130
C12 C 0.9921(3) -0.2996(4) 0.0763(2)
H10 H 0.8999 -0.3200 0.0918
H11 H 1.0476 -0.3926 0.0982
H12 H 0.9990 -0.2959 0.0153
H13 H 0.502(2) 0.968(2) 0.1405(15)
H14 H 0.482(2) 0.847(3) 0.2054(13)
Zn1_2 Zn 0.69704(3) 1.00414(3) 0.231239(16)
Zn1C Zn 0.69704(3) 0.49586(3) -0.268761(16)
O4C O 0.70542(18) -0.02391(19) 0.35189(10)
N1_2 N 0.5427(2) -0.1123(2) 0.17099(12)
loop_
_geom_bond_atom_site_label_1
_geom_bond_atom_site_label_2
_geom_bond_site_symmetry_1
_geom_bond_site_symmetry_2
Zn1 O1 1_555 1_555
O1 C7 1_555 1_555
O2 Zn1 1_555 1_555
O3 C8 1_555 1_555
O4 C8 1_555 1_555
O5 Zn1 1_555 1_555
N1 C5 1_555 1_555
N2 C9 1_555 1_555
C1 C2 1_555 1_555
C2 H1 1_555 1_555
C3 C2 1_555 1_555
C4 C3 1_555 1_555
H2 C4 1_555 1_555
C5 C4 1_555 1_555
C6 C1 1_555 1_555
H3 C6 1_555 1_555
C7 O2 1_555 1_555
C8 C3 1_555 1_555
C9 O5 1_555 1_555
C10 C9 1_555 1_555
H4 C10 1_555 1_555
H5 C10 1_555 1_555
H6 C10 1_555 1_555
C11 N2 1_555 1_555
H7 C11 1_555 1_555
H8 C11 1_555 1_555
H9 C11 1_555 1_555
C12 N2 1_555 1_555
H10 C12 1_555 1_555
H11 C12 1_555 1_555
H12 C12 1_555 1_555
H13 N1 1_555 1_555
H14 N1 1_555 1_555
Zn1_2 N1 1_555 1_555
Zn1C O4 1_555 1_555
O4C Zn1 1_555 1_555
N1_2 Zn1 1_555 1_555
C1 C7 1_555 1_555
C5 C6 1_555 1_555

#END
