
#######################################################################
#
#                 Cambridge Crystallographic Data Centre
#                                CCDC 
#
#######################################################################
#
# If this CIF has been generated from an entry in the Cambridge 
# Structural Database, then it will include bibliographic, chemical, 
# crystal, experimental, refinement or atomic coordinate data resulting 
# from the CCDC's data processing and validation procedures.
#
#######################################################################

data_CIFCUR
_symmetry_cell_setting           monoclinic
_symmetry_space_group_name_H-M   'P 21/c'
_symmetry_Int_Tables_number      14
_space_group_name_Hall           '-P 2ybc'
loop_
_symmetry_equiv_pos_site_id
_symmetry_equiv_pos_as_xyz
1 x,y,z
2 -x,1/2+y,1/2-z
3 -x,-y,-z
4 x,1/2-y,1/2+z
_cell_length_a                   12.2756(2)
_cell_length_b                   14.1032(2)
_cell_length_c                   25.8603(4)
_cell_angle_alpha                90
_cell_angle_beta                 129.437(1)
_cell_angle_gamma                90
_cell_volume                     3457.75
loop_
_atom_site_label
_atom_site_type_symbol
_atom_site_fract_x
_atom_site_fract_y
_atom_site_fract_z
Co1 Co 0.87250(2) 0.528307(15) 0.611956(11)
Co2 Co 0.5000 0.5000 0.5000
O1 O 0.83159(13) 0.47719(8) 0.53084(6)
O2 O 0.60751(13) 0.43057(9) 0.47495(7)
O3 O 0.83374(12) 0.05374(8) 0.15998(6)
O4 O 0.59964(13) 0.07766(9) 0.08545(6)
O5 O 0.86298(12) 0.67196(8) 0.61418(6)
O6 O 0.65929(11) 0.60291(8) 0.55306(6)
C1 C 0.72203(18) 0.38485(12) 0.43316(9)
C2 C 0.84254(19) 0.38253(12) 0.43927(9)
H1 H 0.9253 0.4143 0.4755
C3 C 0.84313(18) 0.33413(12) 0.39277(9)
H2 H 0.9269 0.3328 0.3979
C4 C 0.72383(19) 0.28768(13) 0.33904(9)
C5 C 0.6030(2) 0.29058(16) 0.33334(10)
H3 H 0.5197 0.2594 0.2969
C6 C 0.6026(2) 0.33788(15) 0.37979(10)
H4 H 0.5195 0.3383 0.3752
C7 C 0.72309(19) 0.23713(12) 0.28822(9)
C8 C 0.84717(19) 0.20218(13) 0.30414(9)
H5 H 0.9339 0.2114 0.3480
C9 C 0.84643(18) 0.15428(13) 0.25726(9)
H6 H 0.9324 0.1309 0.2693
C10 C 0.72201(18) 0.14016(12) 0.19308(8)
C11 C 0.5980(2) 0.17573(14) 0.17640(10)
H7 H 0.5117 0.1672 0.1323
C12 C 0.5984(2) 0.22335(15) 0.22309(10)
H8 H 0.5123 0.2472 0.2106
C13 C 0.71908(18) 0.43553(12) 0.48336(8)
C14 C 0.71718(18) 0.08603(12) 0.14170(8)
C15 C 0.66053(17) 0.77256(11) 0.55353(8)
C16 C 0.51590(19) 0.78113(13) 0.50989(11)
H9 H 0.4587 0.7259 0.4938
C17 C 0.4531(2) 0.87003(13) 0.48923(12)
H10 H 0.3532 0.8747 0.4593
C18 C 0.53351(18) 0.95221(11) 0.51150(9)
C19 C 0.67857(19) 0.94212(14) 0.55649(10)
H11 H 0.7364 0.9971 0.5733
C20 C 0.74095(19) 0.85383(13) 0.57748(11)
H12 H 0.8408 0.8491 0.6089
C21 C 0.72974(17) 0.67757(11) 0.57428(8)
O7 O 1.08190(13) 0.50745(8) 0.67146(6)
N1 N 1.31152(18) 0.50765(13) 0.75936(9)
C22 C 1.17912(19) 0.52835(13) 0.73155(10)
C23 C 1.1466(2) 0.57566(17) 0.77215(11)
H13 H 1.0515 0.6028 0.7422
H14 H 1.2153 0.6263 0.7992
H15 H 1.1517 0.5289 0.8017
C24 C 1.4315(3) 0.5249(2) 0.83009(14)
H16 H 1.3971 0.5488 0.8530
H17 H 1.4945 0.5719 0.8334
H18 H 1.4831 0.4656 0.8511
C25 C 1.3464(3) 0.46692(18) 0.71976(14)
H19 H 1.2600 0.4594 0.6733
H20 H 1.3908 0.4048 0.7381
H21 H 1.4117 0.5091 0.7212
O5B O 0.13702(12) 1.32804(8) 0.38582(6)
O6B O 0.34071(11) 1.39709(8) 0.44694(6)
C15B C 0.33947(17) 1.22744(11) 0.44647(8)
C16B C 0.48410(19) 1.21887(13) 0.49011(11)
H9B H 0.5413 1.2741 0.5062
C17B C 0.5469(2) 1.12997(13) 0.51077(12)
H10B H 0.6468 1.1253 0.5407
C18B C 0.46649(18) 1.04779(11) 0.48850(9)
C19B C 0.32143(19) 1.05788(14) 0.44351(10)
H11B H 0.2636 1.0029 0.4267
C20B C 0.25905(19) 1.14617(13) 0.42252(11)
H12B H 0.1592 1.1509 0.3911
C21B C 0.27026(17) 1.32243(11) 0.42572(8)
Co1B Co 0.12750(2) 0.471693(15) 0.388044(11)
O1B O 0.16841(13) 0.52281(8) 0.46916(6)
O2B O 0.39249(13) 0.56943(9) 0.52505(7)
O3B O 0.16626(12) 0.94626(8) 0.84002(6)
O4B O 0.40036(13) 0.92234(9) 0.91455(6)
C1B C 0.27797(18) 0.61515(12) 0.56684(9)
C2B C 0.15746(19) 0.61747(12) 0.56073(9)
H1B H 0.0747 0.5857 0.5245
C3B C 0.15687(18) 0.66587(12) 0.60723(9)
H2B H 0.0731 0.6672 0.6021
C4B C 0.27617(19) 0.71232(13) 0.66096(9)
C5B C 0.3970(2) 0.70942(16) 0.66666(10)
H3B H 0.4803 0.7406 0.7031
C6B C 0.3974(2) 0.66212(15) 0.62021(10)
H4B H 0.4805 0.6617 0.6248
C7B C 0.27691(19) 0.76287(12) 0.71178(9)
C8B C 0.15283(19) 0.79782(13) 0.69586(9)
H5B H 0.0661 0.7886 0.6520
C9B C 0.15357(18) 0.84572(13) 0.74274(9)
H6B H 0.0676 0.8691 0.7307
C10B C 0.27799(18) 0.85984(12) 0.80692(8)
C11B C 0.4020(2) 0.82427(14) 0.82360(10)
H7B H 0.4883 0.8328 0.8677
C12B C 0.4016(2) 0.77665(15) 0.77691(10)
H8B H 0.4877 0.7528 0.7894
C13B C 0.28092(18) 0.56447(12) 0.51664(8)
C14B C 0.28282(18) 0.91397(12) 0.85830(8)
O7B O -0.08190(13) 0.49255(8) 0.32854(6)
N1B N -0.31152(18) 0.49235(13) 0.24064(9)
C22B C -0.17912(19) 0.47165(13) 0.26845(10)
C23B C -0.1466(2) 0.42434(17) 0.22785(11)
H13B H -0.0515 0.3972 0.2578
H14B H -0.2153 0.3737 0.2008
H15B H -0.1517 0.4711 0.1983
C24B C -0.4315(3) 0.4751(2) 0.16991(14)
H16B H -0.3971 0.4512 0.1470
H17B H -0.4945 0.4281 0.1666
H18B H -0.4831 0.5344 0.1489
C25B C -0.3464(3) 0.53308(18) 0.28024(14)
H19B H -0.2600 0.5406 0.3267
H20B H -0.3908 0.5952 0.2619
H21B H -0.4117 0.4909 0.2788
Co1A Co 0.12750(2) 1.028307(15) 0.888044(11)
Co1B_2 Co 0.12750(2) 1.471693(15) 0.388044(11)
Co1C Co 0.87250(2) -0.028307(15) 0.111956(11)
Co2_2 Co 0.5000 1.5000 0.5000
Co2A Co 0.5000 0.0000 0.0000
Co2A_2 Co 0.5000 1.0000 1.0000
O3A O 0.16626(12) 0.55374(8) 0.34002(6)
O3C O 0.83374(12) 0.44626(8) 0.65998(6)
O4A O 0.40036(13) 0.57766(9) 0.41455(6)
O4C O 0.59964(13) 0.42234(9) 0.58545(6)
O5B_2 O 0.13702(12) 0.32804(8) 0.38582(6)
O6B_2 O 0.34071(11) 0.39709(8) 0.44694(6)
O8 O 0.94308(16) 0.08834(11) 0.62126(9)
N2 N 1.09361(19) 0.18663(11) 0.70670(9)
C26 C 0.9837(2) 0.16920(15) 0.64237(12)
C27 C 0.9094(3) 0.25326(18) 0.59648(14)
H22 H 0.8410 0.2312 0.5501
H23 H 0.9787 0.2947 0.6007
H24 H 0.8601 0.2885 0.6088
C28 C 1.1502(3) 0.27941(18) 0.73445(15)
H25 H 1.0792 0.3276 0.7049
H26 H 1.2344 0.2899 0.7386
H27 H 1.1754 0.2837 0.7787
C29 C 1.1813(3) 0.10888(16) 0.75167(12)
H28 H 1.1316 0.0487 0.7316
H29 H 1.2011 0.1177 0.7945
H30 H 1.2702 0.1080 0.7592
O9 O 1.7320(5) 0.6802(7) 0.8451(4)
N3 N 1.7937(4) 0.5508(3) 0.91673(18)
C30 C 1.7694(5) 0.6432(5) 0.9019(3)
C31 C 1.7888(5) 0.7114(5) 0.9517(3)
H31 H 1.7879 0.7765 0.9381
H32 H 1.8792 0.6990 0.9960
H33 H 1.7120 0.7034 0.9534
C32 C 1.8251(6) 0.5060(4) 0.9768(2)
H34 H 1.8459 0.5553 1.0086
H35 H 1.9069 0.4639 0.9979
H36 H 1.7433 0.4690 0.9635
C33 C 1.7805(6) 0.4883(4) 0.8682(3)
H37 H 1.6950 0.5045 0.8231
H38 H 1.7745 0.4224 0.8783
H39 H 1.8630 0.4958 0.8707
O10? O 1.6737(13) 0.6646(17) 0.8238(11)
N4? N 1.8325(10) 0.6733(8) 0.9272(5)
C34? C 1.7570(14) 0.6370(13) 0.8663(8)
C35? C 1.7826(19) 0.5333(12) 0.8716(10)
H40? H 1.7521 0.5091 0.8287
H41? H 1.7292 0.5016 0.8829
H42? H 1.8835 0.5207 0.9066
C36? C 1.9431(13) 0.6312(10) 0.9935(5)
H43? H 2.0176 0.6044 0.9942
H44? H 1.9018 0.5809 1.0024
H45? H 1.9832 0.6803 1.0280
C37? C 1.8037(12) 0.7821(8) 0.9283(6)
H46? H 1.7205 0.8020 0.8835
H47? H 1.8857 0.8192 0.9418
H48? H 1.7871 0.7928 0.9602
loop_
_geom_bond_atom_site_label_1
_geom_bond_atom_site_label_2
_geom_bond_site_symmetry_1
_geom_bond_site_symmetry_2
Co1 O1 1_555 1_555
Co2 O2 1_555 1_555
O1 C13 1_555 1_555
O2 C13 1_555 1_555
O3 C14 1_555 1_555
O4 C14 1_555 1_555
O5 Co1 1_555 1_555
O6 Co1 1_555 1_555
C1 C2 1_555 1_555
C2 H1 1_555 1_555
C3 C2 1_555 1_555
H2 C3 1_555 1_555
C4 C3 1_555 1_555
C5 C4 1_555 1_555
H3 C5 1_555 1_555
C6 C1 1_555 1_555
H4 C6 1_555 1_555
C7 C4 1_555 1_555
C8 C7 1_555 1_555
H5 C8 1_555 1_555
C9 C8 1_555 1_555
H6 C9 1_555 1_555
C10 C9 1_555 1_555
C11 C10 1_555 1_555
H7 C11 1_555 1_555
C12 C7 1_555 1_555
H8 C12 1_555 1_555
C13 C1 1_555 1_555
C14 C10 1_555 1_555
C15 C16 1_555 1_555
C16 H9 1_555 1_555
C17 C16 1_555 1_555
H10 C17 1_555 1_555
C18 C17 1_555 1_555
C19 C18 1_555 1_555
H11 C19 1_555 1_555
C20 C15 1_555 1_555
H12 C20 1_555 1_555
C21 O5 1_555 1_555
O7 Co1 1_555 1_555
N1 C22 1_555 1_555
C22 O7 1_555 1_555
C23 C22 1_555 1_555
H13 C23 1_555 1_555
H14 C23 1_555 1_555
H15 C23 1_555 1_555
C24 N1 1_555 1_555
H16 C24 1_555 1_555
H17 C24 1_555 1_555
H18 C24 1_555 1_555
C25 N1 1_555 1_555
H19 C25 1_555 1_555
H20 C25 1_555 1_555
H21 C25 1_555 1_555
O8 C26 1_555 1_555
N2 C26 1_555 1_555
C26 C27 1_555 1_555
C27 H22 1_555 1_555
H23 C27 1_555 1_555
H24 C27 1_555 1_555
C28 N2 1_555 1_555
H25 C28 1_555 1_555
H26 C28 1_555 1_555
H27 C28 1_555 1_555
C29 N2 1_555 1_555
H28 C29 1_555 1_555
H29 C29 1_555 1_555
H30 C29 1_555 1_555
O9 C30 1_555 1_555
N3 C30 1_555 1_555
C30 C31 1_555 1_555
C31 H31 1_555 1_555
H32 C31 1_555 1_555
H33 C31 1_555 1_555
C32 N3 1_555 1_555
H34 C32 1_555 1_555
H35 C32 1_555 1_555
H36 C32 1_555 1_555
C33 N3 1_555 1_555
H37 C33 1_555 1_555
H38 C33 1_555 1_555
H39 C33 1_555 1_555
O5B C21B 1_555 1_555
O6B C21B 1_555 1_555
C15B C16B 1_555 1_555
C16B H9B 1_555 1_555
C17B C16B 1_555 1_555
H10B C17B 1_555 1_555
C18B C18 1_555 1_555
C19B C18B 1_555 1_555
H11B C19B 1_555 1_555
C20B C15B 1_555 1_555
H12B C20B 1_555 1_555
C21B C15B 1_555 1_555
Co1B O1B 1_555 1_555
O1B C13B 1_555 1_555
O2B Co2 1_555 1_555
O3B C14B 1_555 1_555
O4B C14B 1_555 1_555
C1B C2B 1_555 1_555
C2B H1B 1_555 1_555
C3B C2B 1_555 1_555
H2B C3B 1_555 1_555
C4B C3B 1_555 1_555
C5B C4B 1_555 1_555
H3B C5B 1_555 1_555
C6B C1B 1_555 1_555
H4B C6B 1_555 1_555
C7B C4B 1_555 1_555
C8B C7B 1_555 1_555
H5B C8B 1_555 1_555
C9B C8B 1_555 1_555
H6B C9B 1_555 1_555
C10B C9B 1_555 1_555
C11B C10B 1_555 1_555
H7B C11B 1_555 1_555
C12B C7B 1_555 1_555
H8B C12B 1_555 1_555
C13B O2B 1_555 1_555
C14B C10B 1_555 1_555
O7B Co1B 1_555 1_555
N1B C22B 1_555 1_555
C22B O7B 1_555 1_555
C23B C22B 1_555 1_555
H13B C23B 1_555 1_555
H14B C23B 1_555 1_555
H15B C23B 1_555 1_555
C24B N1B 1_555 1_555
H16B C24B 1_555 1_555
H17B C24B 1_555 1_555
H18B C24B 1_555 1_555
C25B N1B 1_555 1_555
H19B C25B 1_555 1_555
H20B C25B 1_555 1_555
H21B C25B 1_555 1_555
Co1A O3B 1_555 1_555
Co1B_2 O5B 1_555 1_555
Co1C O3 1_555 1_555
Co2_2 O6B 1_555 1_555
Co2A O4 1_555 1_555
Co2A_2 O4B 1_555 1_555
O3A Co1B 1_555 1_555
O3C Co1 1_555 1_555
O4A Co2 1_555 1_555
O4C Co2 1_555 1_555
O5B_2 Co1B 1_555 1_555
O6B_2 Co2 1_555 1_555
Co2 O6 1_555 1_555
O6 C21 1_555 1_555
C5 C6 1_555 1_555
C11 C12 1_555 1_555
C15 C21 1_555 1_555
C19 C20 1_555 1_555
O6B Co1B_2 1_555 1_555
C17B C18B 1_555 1_555
C19B C20B 1_555 1_555
Co1B O6B_2 1_555 1_555
C1B C13B 1_555 1_555
C5B C6B 1_555 1_555
C11B C12B 1_555 1_555

#END
