
#######################################################################
#
#                 Cambridge Crystallographic Data Centre
#                                CCDC 
#
#######################################################################
#
# If this CIF has been generated from an entry in the Cambridge 
# Structural Database, then it will include bibliographic, chemical, 
# crystal, experimental, refinement or atomic coordinate data resulting 
# from the CCDC's data processing and validation procedures.
#
#######################################################################

data_CIFCIF
_symmetry_cell_setting           monoclinic
_symmetry_space_group_name_H-M   'P 21/c'
_symmetry_Int_Tables_number      14
_space_group_name_Hall           '-P 2ybc'
loop_
_symmetry_equiv_pos_site_id
_symmetry_equiv_pos_as_xyz
1 x,y,z
2 -x,1/2+y,1/2-z
3 -x,-y,-z
4 x,1/2-y,1/2+z
_cell_length_a                   12.1580(5)
_cell_length_b                   14.0426(5)
_cell_length_c                   25.9262(8)
_cell_angle_alpha                90
_cell_angle_beta                 127.5890(10)
_cell_angle_gamma                90
_cell_volume                     3507.49
loop_
_atom_site_label
_atom_site_type_symbol
_atom_site_fract_x
_atom_site_fract_y
_atom_site_fract_z
Zn1 Zn 0.85753(3) 0.52390(2) 0.599166(15)
Zn2 Zn 0.5000 0.5000 0.5000
O1 O 0.8192(2) 0.46583(17) 0.52226(11)
O2 O 0.5933(3) 0.4342(2) 0.46560(13)
O3 O 0.6066(2) 0.08192(18) 0.08233(11)
O4 O 0.8308(2) 0.04802(16) 0.15515(10)
O5 O 0.8579(2) 0.67103(16) 0.60347(12)
O6 O 0.6566(2) 0.60443(15) 0.54930(11)
O7 O 1.0630(2) 0.50603(17) 0.65145(12)
C1 C 0.7062(3) 0.4299(2) 0.47531(15)
C2 C 0.7102(3) 0.3752(2) 0.42688(15)
C3 C 0.8308(3) 0.3671(2) 0.43297(15)
H1 H 0.9128 0.3957 0.4685
C4 C 0.8324(3) 0.3177(2) 0.38771(15)
H2 H 0.9159 0.3127 0.3930
C5 C 0.7141(3) 0.2751(2) 0.33458(16)
C6 C 0.5920(4) 0.2846(3) 0.32799(19)
H3 H 0.5093 0.2575 0.2918
C7 C 0.5908(4) 0.3333(3) 0.37396(18)
H4 H 0.5079 0.3379 0.3692
C8 C 0.7143(3) 0.2246(2) 0.28416(16)
C9 C 0.8361(3) 0.1875(3) 0.29895(16)
H5 H 0.9190 0.1936 0.3415
C10 C 0.8382(3) 0.1417(3) 0.25240(16)
H6 H 0.9223 0.1173 0.2636
C11 C 0.7177(3) 0.1313(2) 0.18941(15)
C12 C 0.5958(4) 0.1668(3) 0.17472(16)
H7 H 0.5127 0.1597 0.1323
C13 C 0.5936(4) 0.2125(3) 0.22099(17)
H8 H 0.5090 0.2359 0.2097
C14 C 0.7175(3) 0.0827(2) 0.13795(14)
C15 C 0.7283(3) 0.6778(2) 0.56906(14)
C16 C 0.6605(3) 0.7732(2) 0.55141(16)
C17 C 0.5201(4) 0.7814(2) 0.51284(19)
H9 H 0.4651 0.7263 0.4991
C18 C 0.4571(4) 0.8699(2) 0.4935(2)
H10 H 0.3598 0.8739 0.4675
C19 C 0.5343(3) 0.9525(2) 0.51169(18)
C20 C 0.6755(4) 0.9430(3) 0.5538(2)
H11 H 0.7311 0.9980 0.5695
C21 C 0.7385(4) 0.8549(3) 0.5740(2)
H12 H 0.8358 0.8508 0.6034
C22 C 1.1557(4) 0.5249(3) 0.7099(2)
C23 C 1.1326(5) 0.5678(4) 0.7556(2)
H13 H 1.0777 0.6263 0.7372
H14 H 1.0834 0.5229 0.7640
C24 C 1.2726(7) 0.5887(6) 0.8164(3)
H15 H 1.2813 0.5658 0.8545
H16 H 1.2912 0.6573 0.8211
C25 C 1.3707(6) 0.5366(5) 0.8096(3)
H17 H 1.4480 0.5779 0.8215
H18 H 1.4082 0.4800 0.8375
C26 C 1.3424(6) 0.4680(4) 0.7097(4)
H19 H 1.2678 0.4556 0.6641
H20 H 1.3889 0.4087 0.7314
H21 H 1.4084 0.5118 0.7132
N1 N 1.2866(4) 0.5091(3) 0.7398(2)
O5B O 0.1421(2) 1.32897(16) 0.39653(12)
O6B O 0.3434(2) 1.39557(15) 0.45070(11)
C15B C 0.2717(3) 1.3222(2) 0.43094(14)
C16B C 0.3395(3) 1.2268(2) 0.44859(16)
C17B C 0.4799(4) 1.2186(2) 0.48716(19)
H9B H 0.5349 1.2737 0.5009
C18B C 0.5429(4) 1.1301(2) 0.5065(2)
H10B H 0.6402 1.1261 0.5325
C19B C 0.4657(3) 1.0475(2) 0.48831(18)
C20B C 0.3245(4) 1.0570(3) 0.4462(2)
H11B H 0.2689 1.0020 0.4305
C21B C 0.2615(4) 1.1451(3) 0.4260(2)
H12B H 0.1642 1.1492 0.3966
Zn1B Zn 0.14247(3) 0.47610(2) 0.400834(15)
O1B O 0.1808(2) 0.53417(17) 0.47774(11)
O2B O 0.4067(3) 0.5658(2) 0.53440(13)
O3B O 0.3934(2) 0.91808(18) 0.91767(11)
O4B O 0.1692(2) 0.95198(16) 0.84485(10)
O7B O -0.0630(2) 0.49397(17) 0.34855(12)
C1B C 0.2938(3) 0.5701(2) 0.52469(15)
C2B C 0.2898(3) 0.6248(2) 0.57312(15)
C3B C 0.1692(3) 0.6329(2) 0.56703(15)
H1B H 0.0872 0.6043 0.5315
C4B C 0.1676(3) 0.6823(2) 0.61229(15)
H2B H 0.0841 0.6873 0.6070
C5B C 0.2859(3) 0.7249(2) 0.66542(16)
C6B C 0.4080(4) 0.7154(3) 0.67201(19)
H3B H 0.4907 0.7425 0.7082
C7B C 0.4092(4) 0.6667(3) 0.62604(18)
H4B H 0.4921 0.6621 0.6308
C8B C 0.2857(3) 0.7754(2) 0.71584(16)
C9B C 0.1639(3) 0.8125(3) 0.70105(16)
H5B H 0.0810 0.8064 0.6585
C10B C 0.1618(3) 0.8583(3) 0.74760(16)
H6B H 0.0777 0.8827 0.7364
C11B C 0.2823(3) 0.8687(2) 0.81059(15)
C12B C 0.4042(4) 0.8332(3) 0.82528(16)
H7B H 0.4873 0.8403 0.8677
C13B C 0.4064(4) 0.7875(3) 0.77901(17)
H8B H 0.4910 0.7641 0.7903
C14B C 0.2825(3) 0.9173(2) 0.86205(14)
C22B C -0.1557(4) 0.4751(3) 0.2901(2)
C23B C -0.1326(5) 0.4322(4) 0.2444(2)
H13B H -0.0777 0.3737 0.2628
H14B H -0.0834 0.4771 0.2360
C24B C -0.2726(7) 0.4113(6) 0.1836(3)
H15B H -0.2813 0.4342 0.1455
H16B H -0.2912 0.3427 0.1789
C25B C -0.3707(6) 0.4634(5) 0.1904(3)
H17B H -0.4480 0.4221 0.1785
H18B H -0.4082 0.5200 0.1625
C26B C -0.3424(6) 0.5320(4) 0.2903(4)
H19B H -0.2678 0.5444 0.3359
H20B H -0.3889 0.5913 0.2686
H21B H -0.4084 0.4882 0.2868
N1B N -0.2866(4) 0.4909(3) 0.2602(2)
Zn1A Zn 0.14247(3) 1.02390(2) 0.900834(15)
Zn1B_2 Zn 0.14247(3) 1.47610(2) 0.400834(15)
Zn1C Zn 0.85753(3) -0.02390(2) 0.099166(15)
Zn2_2 Zn 0.5000 1.5000 0.5000
Zn2A Zn 0.5000 0.0000 0.0000
Zn2A_2 Zn 0.5000 1.0000 1.0000
O3A O 0.3934(2) 0.58192(18) 0.41767(11)
O3C O 0.6066(2) 0.41808(18) 0.58233(11)
O4A O 0.1692(2) 0.54802(16) 0.34485(10)
O4C O 0.8308(2) 0.45198(16) 0.65515(10)
O5B_2 O 0.1421(2) 0.32897(16) 0.39653(12)
O6B_2 O 0.3434(2) 0.39557(15) 0.45070(11)
O8 O 1.7005(6) 0.6684(6) 0.8281(3)
C27 C 1.7437(7) 0.6075(9) 0.8723(5)
C28 C 1.7534(10) 0.5007(8) 0.8642(6)
H22 H 1.6649 0.4764 0.8258
H23 H 1.8262 0.4875 0.8597
C29 C 1.788(2) 0.4561(14) 0.9248(10)
H24 H 1.8682 0.4138 0.9446
H25 H 1.7088 0.4193 0.9154
C30 C 1.820(2) 0.5393(14) 0.9691(8)
H26 H 1.7671 0.5351 0.9861
H27 H 1.9193 0.5419 1.0056
C31 C 1.7903(12) 0.7187(9) 0.9488(5)
H28 H 1.7933 0.7616 0.9203
H29 H 1.8749 0.7254 0.9929
H30 H 1.7110 0.7342 0.9475
N2 N 1.7780(9) 0.6217(8) 0.9271(4)
O9 O 0.9765(4) 1.0517(3) 0.6412(2)
C32 C 1.0378(5) 1.1223(3) 0.6753(3)
C33 C 1.1627(6) 1.1226(4) 0.7452(3)
H31 H 1.2454 1.1024 0.7498
H32 H 1.1493 1.0800 0.7709
C34 C 1.1766(7) 1.2243(4) 0.7668(3)
H33 H 1.1361 1.2329 0.7896
H34 H 1.2744 1.2437 0.7958
C35 C 1.0987(6) 1.2802(4) 0.7053(3)
H35 H 1.0484 1.3331 0.7070
H36 H 1.1616 1.3057 0.6969
C36 C 0.9040(6) 1.2392(5) 0.5889(3)
H37 H 0.8755 1.1832 0.5615
H38 H 0.9456 1.2850 0.5774
H39 H 0.8237 1.2674 0.5825
N3 N 1.0035(4) 1.2122(3) 0.6558(2)
loop_
_geom_bond_atom_site_label_1
_geom_bond_atom_site_label_2
_geom_bond_site_symmetry_1
_geom_bond_site_symmetry_2
Zn1 O1 1_555 1_555
Zn2 O2 1_555 1_555
O1 C1 1_555 1_555
O2 C1 1_555 1_555
O3 C14 1_555 1_555
O4 C14 1_555 1_555
O5 Zn1 1_555 1_555
O6 Zn1 1_555 1_555
O7 Zn1 1_555 1_555
C1 C2 1_555 1_555
C2 C3 1_555 1_555
C3 H1 1_555 1_555
C4 C3 1_555 1_555
H2 C4 1_555 1_555
C5 C4 1_555 1_555
C6 C5 1_555 1_555
H3 C6 1_555 1_555
C7 C2 1_555 1_555
H4 C7 1_555 1_555
C8 C5 1_555 1_555
C9 C8 1_555 1_555
H5 C9 1_555 1_555
C10 C9 1_555 1_555
H6 C10 1_555 1_555
C11 C10 1_555 1_555
C12 C11 1_555 1_555
H7 C12 1_555 1_555
C13 C8 1_555 1_555
H8 C13 1_555 1_555
C14 C11 1_555 1_555
C15 O5 1_555 1_555
C16 C15 1_555 1_555
C17 C16 1_555 1_555
H9 C17 1_555 1_555
C18 C17 1_555 1_555
H10 C18 1_555 1_555
C19 C18 1_555 1_555
C20 C19 1_555 1_555
H11 C20 1_555 1_555
C21 C16 1_555 1_555
H12 C21 1_555 1_555
C22 O7 1_555 1_555
C23 C22 1_555 1_555
H13 C23 1_555 1_555
H14 C23 1_555 1_555
C24 C23 1_555 1_555
H15 C24 1_555 1_555
H16 C24 1_555 1_555
C25 C24 1_555 1_555
H17 C25 1_555 1_555
H18 C25 1_555 1_555
C26 H19 1_555 1_555
H20 C26 1_555 1_555
H21 C26 1_555 1_555
N1 C22 1_555 1_555
O8 C27 1_555 1_555
C27 C28 1_555 1_555
C28 H22 1_555 1_555
H23 C28 1_555 1_555
C29 C28 1_555 1_555
H24 C29 1_555 1_555
H25 C29 1_555 1_555
C30 C29 1_555 1_555
H26 C30 1_555 1_555
H27 C30 1_555 1_555
C31 H28 1_555 1_555
H29 C31 1_555 1_555
H30 C31 1_555 1_555
N2 C27 1_555 1_555
O9 C32 1_555 1_555
C32 C33 1_555 1_555
C33 H31 1_555 1_555
H32 C33 1_555 1_555
C34 C33 1_555 1_555
H33 C34 1_555 1_555
H34 C34 1_555 1_555
C35 C34 1_555 1_555
H35 C35 1_555 1_555
H36 C35 1_555 1_555
C36 H37 1_555 1_555
H38 C36 1_555 1_555
H39 C36 1_555 1_555
N3 C32 1_555 1_555
O5B C15B 1_555 1_555
O6B C15B 1_555 1_555
C15B C16B 1_555 1_555
C16B C17B 1_555 1_555
C17B H9B 1_555 1_555
C18B C17B 1_555 1_555
H10B C18B 1_555 1_555
C19B C19 1_555 1_555
C20B C19B 1_555 1_555
H11B C20B 1_555 1_555
C21B C16B 1_555 1_555
H12B C21B 1_555 1_555
Zn1B O1B 1_555 1_555
O1B C1B 1_555 1_555
O2B Zn2 1_555 1_555
O3B C14B 1_555 1_555
O4B C14B 1_555 1_555
O7B Zn1B 1_555 1_555
C1B O2B 1_555 1_555
C2B C1B 1_555 1_555
C3B C2B 1_555 1_555
H1B C3B 1_555 1_555
C4B C3B 1_555 1_555
H2B C4B 1_555 1_555
C5B C4B 1_555 1_555
C6B C5B 1_555 1_555
H3B C6B 1_555 1_555
C7B C2B 1_555 1_555
H4B C7B 1_555 1_555
C8B C5B 1_555 1_555
C9B C8B 1_555 1_555
H5B C9B 1_555 1_555
C10B C9B 1_555 1_555
H6B C10B 1_555 1_555
C11B C10B 1_555 1_555
C12B C11B 1_555 1_555
H7B C12B 1_555 1_555
C13B C8B 1_555 1_555
H8B C13B 1_555 1_555
C14B C11B 1_555 1_555
C22B O7B 1_555 1_555
C23B C22B 1_555 1_555
H13B C23B 1_555 1_555
H14B C23B 1_555 1_555
C24B C23B 1_555 1_555
H15B C24B 1_555 1_555
H16B C24B 1_555 1_555
C25B C24B 1_555 1_555
H17B C25B 1_555 1_555
H18B C25B 1_555 1_555
C26B H19B 1_555 1_555
H20B C26B 1_555 1_555
H21B C26B 1_555 1_555
N1B C22B 1_555 1_555
Zn1A O4B 1_555 1_555
Zn1B_2 O5B 1_555 1_555
Zn1C O4 1_555 1_555
Zn2_2 O6B 1_555 1_555
Zn2A O3 1_555 1_555
Zn2A_2 O3B 1_555 1_555
O3A Zn2 1_555 1_555
O3C Zn2 1_555 1_555
O4A Zn1B 1_555 1_555
O4C Zn1 1_555 1_555
O5B_2 Zn1B 1_555 1_555
O6B_2 Zn2 1_555 1_555
Zn2 O6 1_555 1_555
O6 C15 1_555 1_555
C6 C7 1_555 1_555
C12 C13 1_555 1_555
C20 C21 1_555 1_555
C25 N1 1_555 1_555
C26 N1 1_555 1_555
C30 N2 1_555 1_555
C31 N2 1_555 1_555
C35 N3 1_555 1_555
C36 N3 1_555 1_555
O6B Zn1B_2 1_555 1_555
C18B C19B 1_555 1_555
C20B C21B 1_555 1_555
Zn1B O6B_2 1_555 1_555
C6B C7B 1_555 1_555
C12B C13B 1_555 1_555
C25B N1B 1_555 1_555
C26B N1B 1_555 1_555

#END
