
#######################################################################
#
#                 Cambridge Crystallographic Data Centre
#                                CCDC 
#
#######################################################################
#
# If this CIF has been generated from an entry in the Cambridge 
# Structural Database, then it will include bibliographic, chemical, 
# crystal, experimental, refinement or atomic coordinate data resulting 
# from the CCDC's data processing and validation procedures.
#
#######################################################################

data_CIFCEB
_symmetry_cell_setting           triclinic
_symmetry_space_group_name_H-M   'P -1'
_symmetry_Int_Tables_number      2
_space_group_name_Hall           '-P 1'
loop_
_symmetry_equiv_pos_site_id
_symmetry_equiv_pos_as_xyz
1 x,y,z
2 -x,-y,-z
_cell_length_a                   7.1977(3)
_cell_length_b                   7.2645(4)
_cell_length_c                   12.8111(7)
_cell_angle_alpha                81.631(4)
_cell_angle_beta                 83.686(4)
_cell_angle_gamma                78.332(4)
_cell_volume                     646.789
loop_
_atom_site_label
_atom_site_type_symbol
_atom_site_fract_x
_atom_site_fract_y
_atom_site_fract_z
Ni1 Ni 0.5000 0.5000 0.5000
O1 O 0.68391(15) 0.47301(15) 0.36073(8)
O2 O 0.47067(17) 0.5227(2) 0.24238(9)
O3 O 0.73787(15) 0.48894(16) 0.57500(8)
O4 O 0.56924(17) 0.21116(15) 0.53325(9)
C1 C 0.6364(2) 0.4973(2) 0.26717(11)
C2 C 0.7975(2) 0.49733(19) 0.17809(11)
C3 C 0.7586(2) 0.5068(2) 0.07458(11)
H1 H 0.6309 0.5148 0.0591
C4 C 0.9055(2) 0.50482(19) -0.01078(11)
C5 C 0.8698(2) 0.5112(2) -0.11851(11)
H2 H 0.7436 0.5155 -0.1354
C6 C 1.0143(2) 0.5111(2) -0.19918(11)
H3 H 0.9851 0.5170 -0.2703
H4 H 0.695(4) 0.490(4) 0.6381(10)
H5 H 0.794(3) 0.580(3) 0.559(2)
H6 H 0.471(2) 0.174(3) 0.5614(17)
H7 H 0.621(3) 0.148(3) 0.4849(13)
O1A O 1.31609(15) 0.52699(15) -0.36073(8)
O2A O 1.52933(17) 0.4773(2) -0.24238(9)
C1A C 1.3636(2) 0.5027(2) -0.26717(11)
C2A C 1.2025(2) 0.50267(19) -0.17809(11)
C3A C 1.2414(2) 0.4932(2) -0.07458(11)
H1A H 1.3691 0.4852 -0.0591
C4A C 1.0945(2) 0.49518(19) 0.01078(11)
C5A C 1.1302(2) 0.4888(2) 0.11851(11)
H2A H 1.2564 0.4845 0.1354
C6A C 0.9857(2) 0.4889(2) 0.19918(11)
H3A H 1.0149 0.4830 0.2703
O3A O 0.26213(15) 0.51106(16) 0.42500(8)
O4A O 0.43076(17) 0.78884(15) 0.46675(9)
H4A H 0.305(4) 0.510(4) 0.3619(10)
H5A H 0.206(3) 0.420(3) 0.441(2)
H6A H 0.529(2) 0.826(3) 0.4386(17)
H7A H 0.379(3) 0.852(3) 0.5151(13)
Ni1_2 Ni 1.5000 0.5000 -0.5000
O1A_2 O 0.31609(15) 0.52699(15) 0.63927(8)
O5 O 0.92986(19) 0.76059(18) 0.55290(13)
H8 H 0.884(3) 0.820(3) 0.4979(13)
H9 H 1.037(3) 0.697(4) 0.534(3)
O6 O 0.28003(18) 0.04521(17) 0.61589(10)
N1 N 0.2689(4) 0.0035(4) 0.7916(2)
C7 C 0.1877(5) 0.0345(4) 0.7022(3)
C8 C -0.0266(7) 0.0525(7) 0.7277(3)
H10 H -0.0936 0.1805 0.7004
H11 H -0.0745 -0.0426 0.6953
C9 C -0.0585(6) 0.0187(5) 0.8476(3)
H12 H -0.1521 0.1241 0.8749
H13 H -0.1049 -0.1013 0.8709
C10 C 0.1348(7) 0.0084(9) 0.8853(4)
H14 H 0.1360 0.1205 0.9207
H15 H 0.1685 -0.1071 0.9362
C11 C 0.4678(11) -0.0235(12) 0.7938(7)
H16 H 0.5285 -0.0310 0.7218
H17 H 0.5129 -0.1414 0.8391
H18 H 0.5004 0.0833 0.8219
N2? N 0.1555(6) 0.0049(5) 0.7914(3)
C12? C 0.3030(7) 0.0124(5) 0.7188(3)
C13? C 0.4896(14) -0.0088(16) 0.7765(7)
H19? H 0.5899 -0.1118 0.7519
H20? H 0.5391 0.1108 0.7650
C14? C 0.4246(7) -0.0552(6) 0.8882(4)
H21? H 0.4754 0.0209 0.9325
H22? H 0.4721 -0.1910 0.9118
C15? C 0.2037(9) -0.0120(12) 0.9012(6)
H23? H 0.1529 -0.1166 0.9460
H24? H 0.1549 0.1075 0.9321
C16? C -0.0401(8) 0.0259(8) 0.7706(7)
H25? H -0.1123 0.1453 0.7927
H26? H -0.0934 -0.0801 0.8102
H27? H -0.0482 0.0268 0.6946
loop_
_geom_bond_atom_site_label_1
_geom_bond_atom_site_label_2
_geom_bond_site_symmetry_1
_geom_bond_site_symmetry_2
Ni1 O1 1_555 1_555
O1 C1 1_555 1_555
O2 C1 1_555 1_555
O3 Ni1 1_555 1_555
O4 Ni1 1_555 1_555
C1 C2 1_555 1_555
C2 C3 1_555 1_555
C3 H1 1_555 1_555
C4 C3 1_555 1_555
C5 C4 1_555 1_555
H2 C5 1_555 1_555
C6 C5 1_555 1_555
H3 C6 1_555 1_555
H4 O3 1_555 1_555
H5 O3 1_555 1_555
H6 O4 1_555 1_555
H7 O4 1_555 1_555
O5 H8 1_555 1_555
H9 O5 1_555 1_555
O6 C7 1_555 1_555
N1 C7 1_555 1_555
C7 C8 1_555 1_555
C8 H10 1_555 1_555
H11 C8 1_555 1_555
C9 C8 1_555 1_555
H12 C9 1_555 1_555
H13 C9 1_555 1_555
C10 N1 1_555 1_555
H14 C10 1_555 1_555
H15 C10 1_555 1_555
C11 N1 1_555 1_555
H16 C11 1_555 1_555
H17 C11 1_555 1_555
H18 C11 1_555 1_555
O1A C1A 1_555 1_555
O2A C1A 1_555 1_555
C1A C2A 1_555 1_555
C2A C6 1_555 1_555
C3A C2A 1_555 1_555
H1A C3A 1_555 1_555
C4A C4 1_555 1_555
C5A C4A 1_555 1_555
H2A C5A 1_555 1_555
C6A C2 1_555 1_555
H3A C6A 1_555 1_555
O3A Ni1 1_555 1_555
O4A Ni1 1_555 1_555
H4A O3A 1_555 1_555
H5A O3A 1_555 1_555
H6A O4A 1_555 1_555
H7A O4A 1_555 1_555
Ni1_2 O1A 1_555 1_555
O1A_2 Ni1 1_555 1_555
C9 C10 1_555 1_555
C3A C4A 1_555 1_555
C5A C6A 1_555 1_555

#END
