
#######################################################################
#
#                 Cambridge Crystallographic Data Centre
#                                CCDC 
#
#######################################################################
#
# If this CIF has been generated from an entry in the Cambridge 
# Structural Database, then it will include bibliographic, chemical, 
# crystal, experimental, refinement or atomic coordinate data resulting 
# from the CCDC's data processing and validation procedures.
#
#######################################################################

data_CIFDAY
_symmetry_cell_setting           orthorhombic
_symmetry_space_group_name_H-M   'P 21 21 21'
_symmetry_Int_Tables_number      19
_space_group_name_Hall           'P 2ac 2ab'
loop_
_symmetry_equiv_pos_site_id
_symmetry_equiv_pos_as_xyz
1 x,y,z
2 1/2-x,-y,1/2+z
3 1/2+x,1/2-y,-z
4 -x,1/2+y,1/2-z
_cell_length_a                   9.7175(4)
_cell_length_b                   18.0168(8)
_cell_length_c                   26.7918(11)
_cell_angle_alpha                90
_cell_angle_beta                 90
_cell_angle_gamma                90
_cell_volume                     4690.66
loop_
_atom_site_label
_atom_site_type_symbol
_atom_site_fract_x
_atom_site_fract_y
_atom_site_fract_z
Mn1 Mn 0.59267(4) 0.49976(3) 0.369401(14)
Mn2 Mn 0.51336(4) 0.49976(3) 0.502266(13)
O1 O 0.4879(3) 0.40111(12) 0.38576(8)
O2 O 0.4786(3) 0.39258(12) 0.46900(8)
O3 O 0.4267(3) 0.57443(13) 0.37495(8)
O4 O 0.3706(2) 0.55270(12) 0.45400(8)
O5 O 0.8008(2) 0.45714(13) 0.39494(8)
O6 O 0.6751(2) 0.52291(11) 0.44693(8)
O7 O 0.0433(3) 0.89301(12) 0.46506(8)
O8 O 0.0466(2) 0.90085(12) 0.38180(8)
O9 O 0.1557(2) 0.05165(12) 0.44884(8)
O10 O 0.1144(3) 0.07372(13) 0.36853(8)
O11 O 1.3576(2) 0.47535(11) 0.56004(8)
O12 O 1.2349(2) 0.54136(13) 0.61184(8)
O13 O 0.5997(3) 0.46160(16) 0.29458(9)
O14 O 0.6997(3) 0.59906(13) 0.33938(9)
C1 C 0.4571(3) 0.36911(16) 0.42591(12)
C2 C 0.3863(4) 0.29516(17) 0.42166(12)
C3 C 0.3502(5) 0.2670(2) 0.37555(13)
H1 H 0.3754 0.2931 0.3461
C4 C 0.3565(5) 0.2536(2) 0.46337(13)
H2 H 0.3840 0.2711 0.4953
C5 C 0.3668(3) 0.59022(16) 0.41522(11)
C6 C 0.2834(3) 0.66076(16) 0.41603(11)
C7 C 0.2751(4) 0.70594(19) 0.37432(13)
H3 H 0.3204 0.6916 0.3444
C8 C 0.2195(5) 0.6829(2) 0.45898(13)
H4 H 0.2236 0.6521 0.4877
C9 C 0.7875(3) 0.48969(17) 0.43574(10)
C10 C 0.9057(3) 0.49362(19) 0.47119(10)
C11 C 1.0174(3) 0.44777(18) 0.46536(12)
H5 H 1.0180 0.4123 0.4391
C12 C 0.9039(3) 0.54515(18) 0.51020(12)
H6 H 0.8266 0.5767 0.5148
C13 C 0.0710(3) 0.86949(16) 0.42271(11)
C14 C 0.1419(3) 0.79487(16) 0.41979(12)
C15 C 0.1484(5) 0.74991(19) 0.46121(13)
H7 H 0.1045 0.7646 0.4913
C16 C 0.2020(4) 0.77139(18) 0.37570(12)
H8 H 0.1928 0.8005 0.3463
C17 C 0.1658(3) 0.08976(16) 0.41019(11)
C18 C 0.2473(3) 0.16074(17) 0.41356(12)
C19 C 0.2876(5) 0.1871(2) 0.45952(13)
H9 H 0.2677 0.1592 0.4888
C20 C 0.2780(5) 0.2014(2) 0.37180(13)
H10 H 0.2492 0.1842 0.3400
C21 C 1.2460(3) 0.50831(18) 0.57119(11)
C22 C 1.1276(3) 0.5038(2) 0.53605(10)
C23 C 1.1299(3) 0.45251(17) 0.49746(12)
H11 H 1.2073 0.4210 0.4930
C24 C 1.0147(3) 0.54976(18) 0.54186(12)
H12 H 1.0138 0.5851 0.5682
C25 C 0.5959(5) 0.4720(3) 0.24964(15)
C26 C 0.6835(6) 0.4246(3) 0.21072(18)
H13 H 0.7815 0.4397 0.2110
H14 H 0.6771 0.3709 0.2180
C27 C 0.6187(7) 0.4425(4) 0.1629(2)
H15 H 0.5506 0.4040 0.1537
H16 H 0.6887 0.4459 0.1362
C28 C 0.5452(5) 0.5203(3) 0.17098(14)
H17 H 0.6044 0.5624 0.1608
H18 H 0.4557 0.5232 0.1534
C29 C 0.4438(6) 0.5711(3) 0.24868(17)
H19 H 0.4407 0.5605 0.2845
H20 H 0.3504 0.5694 0.2349
H21 H 0.4829 0.6206 0.2433
C30 C 0.7146(4) 0.6631(2) 0.35407(14)
C31 C 0.7235(7) 0.6888(2) 0.40658(17)
H22 H 0.8082 0.6697 0.4226
H23 H 0.6429 0.6715 0.4259
C32 C 0.7263(8) 0.7718(3) 0.40420(19)
H24 H 0.6376 0.7926 0.4158
H25 H 0.8008 0.7917 0.4256
C33 C 0.7510(7) 0.7920(2) 0.35084(18)
H26 H 0.6845 0.8299 0.3393
H27 H 0.8457 0.8109 0.3459
C34 C 0.7350(7) 0.7159(3) 0.27090(18)
H28 H 0.7170 0.6645 0.2608
H29 H 0.8261 0.7310 0.2590
H30 H 0.6648 0.7485 0.2564
N1 N 0.5290(6) 0.5160(3) 0.22384(17)
N2 N 0.7306(4) 0.72124(18) 0.32437(13)
Mn3 Mn -0.05478(4) 1.00070(3) 0.363431(14)
O15 O -0.0655(3) 0.95990(14) 0.28930(9)
O16 O -0.1612(3) 1.10257(13) 0.33188(10)
C35 C -0.0642(4) 0.9857(3) 0.24609(13)
C36 C 0.0285(6) 1.0457(4) 0.2278(2)
H31 H 0.1239 1.0277 0.2233
H32 H 0.0287 1.0889 0.2506
C37 C -0.0399(8) 1.0649(6) 0.1770(3)
H33 H -0.1051 1.1068 0.1808
H34 H 0.0304 1.0784 0.1519
C38 C -0.1128(7) 0.9969(5) 0.16243(16)
H35 H -0.1982 1.0083 0.1438
H36 H -0.0536 0.9642 0.1419
C39 C -0.2319(9) 0.9027(4) 0.2141(3)
H37 H -0.2603 0.8963 0.2490
H38 H -0.1844 0.8579 0.2027
H39 H -0.3132 0.9114 0.1933
C40 C -0.1740(4) 1.16619(19) 0.34777(14)
C41 C -0.1792(10) 1.1904(3) 0.40080(19)
H40 H -0.2617 1.1699 0.4175
H41 H -0.0963 1.1734 0.4190
C42 C -0.1852(10) 1.2725(3) 0.3997(2)
H42 H -0.2611 1.2906 0.4211
H43 H -0.0977 1.2938 0.4121
C43 C -0.2087(8) 1.2948(2) 0.34732(18)
H44 H -0.3033 1.3138 0.3426
H45 H -0.1422 1.3334 0.3368
C44 C -0.1925(8) 1.2251(3) 0.26656(18)
H46 H -0.1962 1.1736 0.2549
H47 H -0.1101 1.2492 0.2531
H48 H -0.2746 1.2517 0.2551
N3 N -0.1875(5) 1.22634(19) 0.31976(14)
N4 N -0.1425(5) 0.9638(3) 0.21050(14)
Mn2_2 Mn 1.51336(4) 0.49976(3) 0.502266(13)
Mn2B Mn 0.01336(4) 0.00024(3) 0.497734(13)
Mn2B_2 Mn 0.01336(4) 1.00024(3) 0.497734(13)
O7B O 0.5433(3) 0.60699(12) 0.53494(8)
O9B O 0.6557(2) 0.44835(12) 0.55116(8)
O10_2 O 0.1144(3) 1.07372(13) 0.36853(8)
O11_2 O 0.3576(2) 0.47535(11) 0.56004(8)
O11B O -0.1424(2) 1.02465(11) 0.43996(8)
O12B O -0.2651(2) 0.95864(13) 0.38816(8)
Mn3_2 Mn -0.05478(4) 0.00070(3) 0.363431(14)
Mn3B Mn 1.44522(4) 0.49930(3) 0.636569(14)
loop_
_geom_bond_atom_site_label_1
_geom_bond_atom_site_label_2
_geom_bond_site_symmetry_1
_geom_bond_site_symmetry_2
Mn1 O1 1_555 1_555
Mn2 O2 1_555 1_555
O1 C1 1_555 1_555
O2 C1 1_555 1_555
O3 Mn1 1_555 1_555
O4 Mn2 1_555 1_555
O5 Mn1 1_555 1_555
O6 Mn1 1_555 1_555
O7 C13 1_555 1_555
O8 C13 1_555 1_555
O9 C17 1_555 1_555
O10 C17 1_555 1_555
O11 C21 1_555 1_555
O12 C21 1_555 1_555
O13 Mn1 1_555 1_555
O14 Mn1 1_555 1_555
C1 C2 1_555 1_555
C2 C3 1_555 1_555
C3 H1 1_555 1_555
C4 C2 1_555 1_555
H2 C4 1_555 1_555
C5 O3 1_555 1_555
C6 C5 1_555 1_555
C7 C6 1_555 1_555
H3 C7 1_555 1_555
C8 C6 1_555 1_555
H4 C8 1_555 1_555
C9 O5 1_555 1_555
C10 C9 1_555 1_555
C11 C10 1_555 1_555
H5 C11 1_555 1_555
C12 C10 1_555 1_555
H6 C12 1_555 1_555
C13 C14 1_555 1_555
C14 C15 1_555 1_555
C15 C8 1_555 1_555
H7 C15 1_555 1_555
C16 C7 1_555 1_555
H8 C16 1_555 1_555
C17 C18 1_555 1_555
C18 C19 1_555 1_555
C19 C4 1_555 1_555
H9 C19 1_555 1_555
C20 C3 1_555 1_555
H10 C20 1_555 1_555
C21 C22 1_555 1_555
C22 C23 1_555 1_555
C23 C11 1_555 1_555
H11 C23 1_555 1_555
C24 C12 1_555 1_555
H12 C24 1_555 1_555
C25 O13 1_555 1_555
C26 C25 1_555 1_555
H13 C26 1_555 1_555
H14 C26 1_555 1_555
C27 C26 1_555 1_555
H15 C27 1_555 1_555
H16 C27 1_555 1_555
C28 C27 1_555 1_555
H17 C28 1_555 1_555
H18 C28 1_555 1_555
C29 H19 1_555 1_555
H20 C29 1_555 1_555
H21 C29 1_555 1_555
C30 O14 1_555 1_555
C31 C30 1_555 1_555
H22 C31 1_555 1_555
H23 C31 1_555 1_555
C32 C31 1_555 1_555
H24 C32 1_555 1_555
H25 C32 1_555 1_555
C33 C32 1_555 1_555
H26 C33 1_555 1_555
H27 C33 1_555 1_555
C34 H28 1_555 1_555
H29 C34 1_555 1_555
H30 C34 1_555 1_555
N1 C25 1_555 1_555
N2 C30 1_555 1_555
Mn3 O8 1_555 1_555
O15 Mn3 1_555 1_555
O16 Mn3 1_555 1_555
C35 O15 1_555 1_555
C36 C35 1_555 1_555
H31 C36 1_555 1_555
H32 C36 1_555 1_555
C37 C36 1_555 1_555
H33 C37 1_555 1_555
H34 C37 1_555 1_555
C38 C37 1_555 1_555
H35 C38 1_555 1_555
H36 C38 1_555 1_555
C39 H37 1_555 1_555
H38 C39 1_555 1_555
H39 C39 1_555 1_555
C40 O16 1_555 1_555
C41 C40 1_555 1_555
H40 C41 1_555 1_555
H41 C41 1_555 1_555
C42 C41 1_555 1_555
H42 C42 1_555 1_555
H43 C42 1_555 1_555
C43 C42 1_555 1_555
H44 C43 1_555 1_555
H45 C43 1_555 1_555
C44 H46 1_555 1_555
H47 C44 1_555 1_555
H48 C44 1_555 1_555
N3 C40 1_555 1_555
N4 C35 1_555 1_555
Mn2_2 O11 1_555 1_555
Mn2B O9 1_555 1_555
Mn2B_2 O7 1_555 1_555
O7B Mn2 1_555 1_555
O9B Mn2 1_555 1_555
O10_2 Mn3 1_555 1_555
O11_2 Mn2 1_555 1_555
O11B Mn3 1_555 1_555
O12B Mn3 1_555 1_555
Mn3_2 O10 1_555 1_555
Mn3B O11 1_555 1_555
Mn2 O6 1_555 1_555
O4 C5 1_555 1_555
O6 C9 1_555 1_555
O12 Mn3B 1_555 1_555
C14 C16 1_555 1_555
C18 C20 1_555 1_555
C22 C24 1_555 1_555
C28 N1 1_555 1_555
C29 N1 1_555 1_555
C33 N2 1_555 1_555
C34 N2 1_555 1_555
C38 N4 1_555 1_555
C39 N4 1_555 1_555
C43 N3 1_555 1_555
C44 N3 1_555 1_555
Mn2B_2 O11B 1_555 1_555

#END
