
#######################################################################
#
#                 Cambridge Crystallographic Data Centre
#                                CCDC 
#
#######################################################################
#
# If this CIF has been generated from an entry in the Cambridge 
# Structural Database, then it will include bibliographic, chemical, 
# crystal, experimental, refinement or atomic coordinate data resulting 
# from the CCDC's data processing and validation procedures.
#
#######################################################################

data_CIFFIH
_symmetry_cell_setting           triclinic
_symmetry_space_group_name_H-M   'P -1'
_symmetry_Int_Tables_number      2
_space_group_name_Hall           '-P 1'
loop_
_symmetry_equiv_pos_site_id
_symmetry_equiv_pos_as_xyz
1 x,y,z
2 -x,-y,-z
_cell_length_a                   7.6850(15)
_cell_length_b                   8.2317(16)
_cell_length_c                   9.959(2)
_cell_angle_alpha                84.92(3)
_cell_angle_beta                 77.81(3)
_cell_angle_gamma                87.29(3)
_cell_volume                     613.124
loop_
_atom_site_label
_atom_site_type_symbol
_atom_site_fract_x
_atom_site_fract_y
_atom_site_fract_z
Pb1 Pb 0.27125(3) 0.41439(3) 0.46490(2)
O1 O 0.3730(6) 0.4891(6) 0.6504(5)
O2 O 0.0595(6) 0.5747(7) 0.6036(5)
C1 C 0.0953(8) 0.6184(8) 0.7154(6)
C2 C 0.2669(8) 0.5618(7) 0.7448(6)
C3 C -0.0266(10) 0.7218(11) 0.7969(8)
H1 H -0.1221 0.7608 0.7583
C4 C 0.3234(11) 0.5788(10) 0.8672(8)
H2 H 0.4351 0.5318 0.8703
C5 C 0.2427(14) 0.6529(12) 0.9839(8)
H3 H 0.3031 0.6398 1.0559
C6 C 0.0837(15) 0.7448(13) 1.0103(9)
H4 H 0.0530 0.7889 1.0952
S1 S 0.6522(2) 0.14266(19) 0.61977(16)
O3 O 0.5319(8) 0.1946(7) 0.5300(5)
O4 O 0.7329(8) 0.2739(7) 0.6682(7)
O5 O 0.7725(8) 0.0115(8) 0.5765(7)
F1 F 0.4036(9) 0.1660(9) 0.8404(7)
F2 F 0.6021(10) -0.0106(12) 0.8614(7)
C7 C 0.5083(11) 0.0575(10) 0.7745(8)
F3 F 0.4066(14) -0.0541(11) 0.7475(10)
C8 C -0.0271(12) 0.7748(14) 0.9254(10)
H5 H -0.1230 0.8442 0.9578
O6 O 0.1107(7) 0.2032(7) 0.6292(6)
H6 H 0.005(6) 0.231(14) 0.621(13)
H7 H 0.146(15) 0.132(12) 0.687(10)
Pb1A Pb 0.72875(3) 0.58561(3) 0.53510(2)
Pb1A_2 Pb -0.27125(3) 0.58561(3) 0.53510(2)
O1A O 0.6270(6) 0.5109(6) 0.3496(5)
O2A O -0.0595(6) 0.4253(7) 0.3964(5)
O4A O 0.2671(8) 0.7261(7) 0.3318(7)
loop_
_geom_bond_atom_site_label_1
_geom_bond_atom_site_label_2
_geom_bond_site_symmetry_1
_geom_bond_site_symmetry_2
Pb1 O1 1_555 1_555
O1 C2 1_555 1_555
O2 Pb1 1_555 1_555
C1 O2 1_555 1_555
C2 C1 1_555 1_555
C3 C1 1_555 1_555
H1 C3 1_555 1_555
C4 C2 1_555 1_555
H2 C4 1_555 1_555
C5 C4 1_555 1_555
H3 C5 1_555 1_555
C6 C5 1_555 1_555
H4 C6 1_555 1_555
S1 O3 1_555 1_555
O3 Pb1 1_555 1_555
O4 S1 1_555 1_555
O5 S1 1_555 1_555
F1 C7 1_555 1_555
F2 C7 1_555 1_555
C7 S1 1_555 1_555
F3 C7 1_555 1_555
C8 C3 1_555 1_555
H5 C8 1_555 1_555
O6 Pb1 1_555 1_555
H6 O6 1_555 1_555
H7 O6 1_555 1_555
Pb1A O1 1_555 1_555
Pb1A_2 O2 1_555 1_555
O1A Pb1 1_555 1_555
O2A Pb1 1_555 1_555
O4A Pb1 1_555 1_555
C6 C8 1_555 1_555
O4 Pb1A 1_555 1_555
Pb1A O1A 1_555 1_555
Pb1A_2 O2A 1_555 1_555

#END
