
#######################################################################
#
#                 Cambridge Crystallographic Data Centre
#                                CCDC 
#
#######################################################################
#
# If this CIF has been generated from an entry in the Cambridge 
# Structural Database, then it will include bibliographic, chemical, 
# crystal, experimental, refinement or atomic coordinate data resulting 
# from the CCDC's data processing and validation procedures.
#
#######################################################################

data_CIFFUT
_symmetry_cell_setting           triclinic
_symmetry_space_group_name_H-M   'P -1'
_symmetry_Int_Tables_number      2
_space_group_name_Hall           '-P 1'
loop_
_symmetry_equiv_pos_site_id
_symmetry_equiv_pos_as_xyz
1 x,y,z
2 -x,-y,-z
_cell_length_a                   7.4220(15)
_cell_length_b                   10.171(2)
_cell_length_c                   12.872(3)
_cell_angle_alpha                90.30(3)
_cell_angle_beta                 97.11(3)
_cell_angle_gamma                94.97(3)
_cell_volume                     960.474
loop_
_atom_site_label
_atom_site_type_symbol
_atom_site_fract_x
_atom_site_fract_y
_atom_site_fract_z
Pb1 Pb 0.46074(6) 0.93243(4) 0.33890(3)
Pb2 Pb 0.74517(6) 0.97140(4) 0.08782(3)
O1 O 0.5102(12) 0.8323(9) -0.0056(6)
O2 O 0.6082(12) 0.8149(8) 0.1954(6)
O3 O 0.3187(14) 0.9880(9) 0.1448(7)
O4 O 0.5509(13) 1.1158(9) 0.4504(6)
O5 O 0.9909(13) 0.8950(10) 0.2553(7)
N1 N 0.2408(14) 1.0860(10) 0.1652(7)
O6 O 0.7555(14) 0.8320(13) 0.4088(7)
H1 H 0.8055 0.7881 0.3572
C1 C 0.5102(15) 0.7159(10) 0.1506(9)
O7 O 0.2740(14) 1.1425(10) 0.2493(8)
O8 O 0.9542(14) 0.7826(12) 0.1132(8)
C2 C 0.4451(16) 0.7267(12) 0.0387(9)
N2 N 1.0145(14) 0.7945(12) 0.2076(9)
C3 C 0.476(2) 0.6027(14) 0.2105(10)
H2 H 0.5354 0.6067 0.2786
C4 C 0.6443(16) 1.2169(12) 0.4147(8)
C5 C 0.6538(19) 1.3396(13) 0.4649(10)
H3 H 0.5869 1.3402 0.5213
C6 C 0.368(2) 0.4863(16) 0.1839(14)
H4 H 0.3675 0.4252 0.2374
C7 C 0.743(2) 1.4603(14) 0.4468(11)
H5 H 0.7199 1.5300 0.4887
O9 O 0.6843(12) 1.0742(9) 0.2778(6)
O10 O 0.1224(13) 1.1233(10) 0.0962(7)
C8 C 0.8564(17) 1.2766(13) 0.2784(9)
H6 H 0.9122 1.2407 0.2253
C9 C 0.7294(16) 1.1881(12) 0.3200(9)
C10 C 0.913(2) 1.4060(17) 0.3017(11)
H7 H 0.9992 1.4437 0.2617
C11 C 0.2407(19) 0.5149(15) 0.0029(13)
H8 H 0.1556 0.4760 -0.0499
C12 C 0.3277(18) 0.6337(14) -0.0194(10)
H9 H 0.3018 0.6568 -0.0892
C13 C 0.860(2) 1.4909(13) 0.3769(12)
H10 H 0.9116 1.5777 0.3784
C14 C 0.266(2) 0.4467(16) 0.0948(13)
H11 H 0.2035 0.3633 0.0949
O11 O 1.1043(19) 0.7114(13) 0.2532(12)
C15 C 0.856(2) 0.828(2) 0.5057(13)
H12 H 0.9028 0.9165 0.5279
H13 H 0.9562 0.7754 0.5016
H14 H 0.7806 0.7910 0.5552
Pb1A Pb 0.53926(6) 1.06757(4) 0.66110(3)
Pb2A Pb 0.25483(6) 1.02860(4) -0.08782(3)
O4A O 0.4491(13) 0.8842(9) 0.5496(6)
O10A O 0.8776(13) 0.8767(10) -0.0962(7)
loop_
_geom_bond_atom_site_label_1
_geom_bond_atom_site_label_2
_geom_bond_site_symmetry_1
_geom_bond_site_symmetry_2
Pb1 O2 1_555 1_555
Pb2 O1 1_555 1_555
O1 C2 1_555 1_555
O2 Pb2 1_555 1_555
O3 Pb1 1_555 1_555
O4 Pb1 1_555 1_555
O5 Pb2 1_555 1_555
N1 O3 1_555 1_555
O6 Pb1 1_555 1_555
H1 O6 1_555 1_555
C1 O2 1_555 1_555
O7 Pb1 1_555 1_555
O8 Pb2 1_555 1_555
C2 C1 1_555 1_555
N2 O5 1_555 1_555
C3 C1 1_555 1_555
H2 C3 1_555 1_555
C4 O4 1_555 1_555
C5 C4 1_555 1_555
H3 C5 1_555 1_555
C6 C3 1_555 1_555
H4 C6 1_555 1_555
C7 C5 1_555 1_555
H5 C7 1_555 1_555
O9 Pb1 1_555 1_555
O10 N1 1_555 1_555
C8 H6 1_555 1_555
C9 C4 1_555 1_555
C10 C8 1_555 1_555
H7 C10 1_555 1_555
C11 H8 1_555 1_555
C12 C2 1_555 1_555
H9 C12 1_555 1_555
C13 C7 1_555 1_555
H10 C13 1_555 1_555
C14 C6 1_555 1_555
H11 C14 1_555 1_555
O11 N2 1_555 1_555
C15 O6 1_555 1_555
H12 C15 1_555 1_555
H13 C15 1_555 1_555
H14 C15 1_555 1_555
Pb1A O4 1_555 1_555
Pb2A O10 1_555 1_555
O4A Pb1 1_555 1_555
O10A Pb2 1_555 1_555
Pb2 O9 1_555 1_555
N1 O7 1_555 1_555
O8 N2 1_555 1_555
O9 C9 1_555 1_555
C8 C9 1_555 1_555
C10 C13 1_555 1_555
C11 C12 1_555 1_555
C11 C14 1_555 1_555
Pb1A O4A 1_555 1_555

#END
