
#######################################################################
#
#                 Cambridge Crystallographic Data Centre
#                                CCDC 
#
#######################################################################
#
# If this CIF has been generated from an entry in the Cambridge 
# Structural Database, then it will include bibliographic, chemical, 
# crystal, experimental, refinement or atomic coordinate data resulting 
# from the CCDC's data processing and validation procedures.
#
#######################################################################

data_CIFFON
_symmetry_cell_setting           monoclinic
_symmetry_space_group_name_H-M   'P 2/n'
_symmetry_Int_Tables_number      13
_space_group_name_Hall           '-P 2yac'
loop_
_symmetry_equiv_pos_site_id
_symmetry_equiv_pos_as_xyz
1 x,y,z
2 1/2-x,y,1/2-z
3 -x,-y,-z
4 1/2+x,-y,1/2+z
_cell_length_a                   12.030(2)
_cell_length_b                   9.0607(18)
_cell_length_c                   14.652(3)
_cell_angle_alpha                90
_cell_angle_beta                 101.72(3)
_cell_angle_gamma                90
_cell_volume                     1563.78
loop_
_atom_site_label
_atom_site_type_symbol
_atom_site_fract_x
_atom_site_fract_y
_atom_site_fract_z
Pb1 Pb 0.7500 0.31395(7) 0.7500
Pb2 Pb 0.95382(4) 0.51801(6) 0.63139(3)
O1 O 0.8950(8) 0.4888(10) 0.7926(6)
C1 C 0.8314(12) 0.611(2) 1.0099(10)
H1 H 0.7742 0.5827 1.0404
O2 O 0.9496(8) 0.2760(11) 0.6765(7)
O3 O 1.0305(10) 0.3567(12) 0.5346(7)
C2 C 1.1217(11) 0.1441(16) 0.5172(9)
H2 H 1.1360 0.1897 0.4639
C3 C 1.0586(11) 0.2272(15) 0.5653(9)
C4 C 1.1690(14) 0.0033(16) 0.5331(12)
H3 H 1.2085 -0.0325 0.4893
C5 C 1.0135(10) 0.1834(13) 0.6452(9)
C6 C 0.9050(14) 0.714(2) 1.0578(11)
H4 H 0.8941 0.7339 1.1176
C7 C 1.1627(13) -0.0897(19) 0.6087(14)
H5 H 1.2039 -0.1771 0.6126
C8 C 0.9957(13) 0.6684(17) 0.8844(10)
H6 H 1.0380 0.6720 0.8379
C9 C 1.0384(12) 0.0438(15) 0.6931(10)
H7 H 1.0028 0.0301 0.7432
C10 C 1.1020(15) -0.0653(18) 0.6779(11)
H8 H 1.1078 -0.1410 0.7215
C11 C 0.9906(15) 0.792(2) 1.0332(13)
H9 H 1.0223 0.8681 1.0721
C12 C 1.0326(15) 0.766(2) 0.9574(12)
H10 H 1.0960 0.8219 0.9525
C13 C 0.9070(10) 0.5656(15) 0.8674(9)
O6 O 0.7458(8) 0.4501(10) 0.8945(6)
C14 C 0.8266(9) 0.5422(14) 0.9246(9)
O1A O 0.6050(8) 0.4888(10) 0.7074(6)
C1A C 0.6686(12) 0.611(2) 0.4901(10)
H1A H 0.7258 0.5827 0.4596
C6A C 0.5950(14) 0.714(2) 0.4422(11)
H4A H 0.6059 0.7339 0.3824
C8A C 0.5043(13) 0.6684(17) 0.6156(10)
H6A H 0.4620 0.6720 0.6621
C11A C 0.5094(15) 0.792(2) 0.4668(13)
H9A H 0.4777 0.8681 0.4279
C12A C 0.4674(15) 0.766(2) 0.5426(12)
H10A H 0.4040 0.8219 0.5475
C13A C 0.5930(10) 0.5656(15) 0.6326(9)
O6A O 0.7542(8) 0.4501(10) 0.6055(6)
C14A C 0.6734(9) 0.5422(14) 0.5754(9)
O2A O 0.5504(8) 0.2760(11) 0.8235(7)
O3A O 0.4695(10) 0.3567(12) 0.9654(7)
C2A C 0.3783(11) 0.1441(16) 0.9828(9)
H2A H 0.3640 0.1897 1.0361
C3A C 0.4414(11) 0.2272(15) 0.9347(9)
C4A C 0.3310(14) 0.0033(16) 0.9669(12)
H3A H 0.2915 -0.0325 1.0107
C5A C 0.4865(10) 0.1834(13) 0.8548(9)
C7A C 0.3373(13) -0.0897(19) 0.8913(14)
H5A H 0.2961 -0.1771 0.8874
C9A C 0.4616(12) 0.0438(15) 0.8069(10)
H7A H 0.4972 0.0301 0.7568
C10A C 0.3980(15) -0.0653(18) 0.8221(11)
H8A H 0.3922 -0.1410 0.7785
Pb2A Pb 0.54618(4) 0.51801(6) 0.86861(3)
O3B O 0.9695(10) 0.6433(12) 0.4654(7)
Pb2B Pb 1.04618(4) 0.48199(6) 0.36861(3)
Pb2C Pb 0.45382(4) 0.48199(6) 1.13139(3)
O3C O 0.5305(10) 0.6433(12) 1.0346(7)
Cl1 Cl 0.2500 0.5028(5) 0.7500
O7 O 0.285(3) 0.571(3) 0.8338(15)
O8 O 0.332(3) 0.419(3) 0.7365(19)
O7A O 0.215(3) 0.571(3) 0.6662(15)
O8A O 0.168(3) 0.419(3) 0.7635(19)
Cl2 Cl 0.7500 0.8961(5) 0.7500
O4 O 0.8192(12) 0.8055(15) 0.7073(10)
O5 O 0.8181(12) 0.9881(14) 0.8181(9)
O4A O 0.6808(12) 0.8055(15) 0.7927(10)
O5A O 0.6819(12) 0.9881(14) 0.6819(9)
loop_
_geom_bond_atom_site_label_1
_geom_bond_atom_site_label_2
_geom_bond_site_symmetry_1
_geom_bond_site_symmetry_2
Pb1 O1 1_555 1_555
Pb2 O1 1_555 1_555
O1 C13 1_555 1_555
C1 H1 1_555 1_555
O2 Pb1 1_555 1_555
O3 Pb2 1_555 1_555
C2 H2 1_555 1_555
C3 O3 1_555 1_555
C4 C2 1_555 1_555
H3 C4 1_555 1_555
C5 O2 1_555 1_555
C6 C1 1_555 1_555
H4 C6 1_555 1_555
C7 C4 1_555 1_555
H5 C7 1_555 1_555
C8 H6 1_555 1_555
C9 C5 1_555 1_555
H7 C9 1_555 1_555
C10 C7 1_555 1_555
H8 C10 1_555 1_555
Cl1 O7 1_555 1_555
C11 C6 1_555 1_555
H9 C11 1_555 1_555
C12 C8 1_555 1_555
H10 C12 1_555 1_555
Cl2 O4 1_555 1_555
O5 Cl2 1_555 1_555
C13 C8 1_555 1_555
O6 Pb1 1_555 1_555
C14 C1 1_555 1_555
O8 Cl1 1_555 1_555
O7A Cl1 1_555 1_555
O8A Cl1 1_555 1_555
O4A Cl2 1_555 1_555
O5A Cl2 1_555 1_555
O1A Pb1 1_555 1_555
C1A H1A 1_555 1_555
C6A C1A 1_555 1_555
H4A C6A 1_555 1_555
C8A H6A 1_555 1_555
C11A C6A 1_555 1_555
H9A C11A 1_555 1_555
C12A C8A 1_555 1_555
H10A C12A 1_555 1_555
C13A O1A 1_555 1_555
O6A Pb1 1_555 1_555
C14A C1A 1_555 1_555
O2A Pb1 1_555 1_555
O3A C3A 1_555 1_555
C2A H2A 1_555 1_555
C3A C2A 1_555 1_555
C4A C2A 1_555 1_555
H3A C4A 1_555 1_555
C5A O2A 1_555 1_555
C7A C4A 1_555 1_555
H5A C7A 1_555 1_555
C9A C5A 1_555 1_555
H7A C9A 1_555 1_555
C10A C7A 1_555 1_555
H8A C10A 1_555 1_555
Pb2A O6 1_555 1_555
O3B Pb2 1_555 1_555
Pb2B O3 1_555 1_555
Pb2C O3A 1_555 1_555
O3C Pb2A 1_555 1_555
Pb2 O2 1_555 1_555
Pb2 O6A 1_555 1_555
C2 C3 1_555 1_555
C3 C5 1_555 1_555
C9 C10 1_555 1_555
C11 C12 1_555 1_555
C13 C14 1_555 1_555
O6 C14 1_555 1_555
O1A Pb2A 1_555 1_555
C8A C13A 1_555 1_555
C11A C12A 1_555 1_555
C13A C14A 1_555 1_555
O6A C14A 1_555 1_555
O2A Pb2A 1_555 1_555
O3A Pb2A 1_555 1_555
C3A C5A 1_555 1_555
C9A C10A 1_555 1_555
O3B Pb2B 1_555 1_555
Pb2C O3C 1_555 1_555

#END
