
#######################################################################
#
#                 Cambridge Crystallographic Data Centre
#                                CCDC 
#
#######################################################################
#
# If this CIF has been generated from an entry in the Cambridge 
# Structural Database, then it will include bibliographic, chemical, 
# crystal, experimental, refinement or atomic coordinate data resulting 
# from the CCDC's data processing and validation procedures.
#
#######################################################################

data_CIFFOO
_symmetry_cell_setting           monoclinic
_symmetry_space_group_name_H-M   'P 21/c'
_symmetry_Int_Tables_number      14
_space_group_name_Hall           '-P 2ybc'
loop_
_symmetry_equiv_pos_site_id
_symmetry_equiv_pos_as_xyz
1 x,y,z
2 -x,1/2+y,1/2-z
3 -x,-y,-z
4 x,1/2-y,1/2+z
_cell_length_a                   6.7716(4)
_cell_length_b                   18.590(1)
_cell_length_c                   11.6437(6)
_cell_angle_alpha                90
_cell_angle_beta                 97.383(1)
_cell_angle_gamma                90
_cell_volume                     1453.6
loop_
_atom_site_label
_atom_site_type_symbol
_atom_site_fract_x
_atom_site_fract_y
_atom_site_fract_z
Zn1 Zn 0.10300(4) 0.514194(13) 0.15375(2)
O1 O 0.2907(3) 0.55766(10) 0.05877(16)
O2 O 0.0569(3) 0.56859(9) -0.09245(19)
O3 O 0.8884(3) 0.92054(10) -0.30769(16)
O4 O 1.1552(3) 0.89133(11) -0.1886(2)
O5 O 0.2774(3) 0.45539(9) 0.26790(15)
C1 C 0.3465(4) 0.63921(11) -0.0906(2)
C2 C 0.5383(4) 0.65328(11) -0.0423(2)
C3 C 0.6496(3) 0.71027(11) -0.08616(19)
C4 C 0.8454(4) 0.72839(13) -0.0355(2)
C5 C 0.9466(4) 0.78372(13) -0.0798(2)
C6 C 0.8585(4) 0.82362(12) -0.1760(2)
C7 C 0.6687(4) 0.80861(13) -0.2244(2)
C8 C 0.5576(3) 0.75102(12) -0.18210(19)
C9 C 0.3619(4) 0.73356(14) -0.2325(2)
C10 C 0.2582(4) 0.67894(14) -0.1877(2)
C11 C 0.2248(4) 0.58326(11) -0.0389(2)
C12 C 0.9785(4) 0.88209(12) -0.2258(2)
C13 C 0.4560(4) 0.47016(12) 0.2987(2)
H1 H 0.5151 0.5051 0.2572
C14 C 0.4825(4) 0.38266(15) 0.4528(2)
H2 H 0.3399 0.3864 0.4429
H3 H 0.5325 0.3880 0.5333
H4 H 0.5206 0.3365 0.4261
C15 C 0.7769(4) 0.45667(18) 0.4167(3)
H5 H 0.8117 0.4960 0.3697
H6 H 0.8563 0.4154 0.4035
H7 H 0.8012 0.4701 0.4969
N1 N 0.5655(3) 0.43922(11) 0.38608(18)
H8 H 0.603(3) 0.6233(12) 0.022(2)
H9 H 0.598(3) 0.8346(14) -0.286(2)
H10 H 0.902(3) 0.7014(13) 0.0310(19)
H11 H 1.076(4) 0.7952(13) -0.050(2)
H12 H 0.296(4) 0.7605(14) -0.301(2)
H13 H 0.121(3) 0.6674(14) -0.222(2)
Zn1B Zn -0.10300(4) 0.485806(13) -0.15375(2)
Zn1C Zn 1.10300(4) 0.985806(13) -0.34625(2)
O2B O -0.0569(3) 0.43141(9) 0.09245(19)
O3C O -0.1116(3) 0.57946(10) 0.19231(16)
O4C O 0.1552(3) 0.60867(11) 0.3114(2)
loop_
_geom_bond_atom_site_label_1
_geom_bond_atom_site_label_2
_geom_bond_site_symmetry_1
_geom_bond_site_symmetry_2
Zn1 O1 1_555 1_555
O1 C11 1_555 1_555
O2 C11 1_555 1_555
O3 C12 1_555 1_555
O4 C12 1_555 1_555
O5 Zn1 1_555 1_555
C1 C2 1_555 1_555
C2 C3 1_555 1_555
C3 C4 1_555 1_555
C4 C5 1_555 1_555
C5 C6 1_555 1_555
C6 C7 1_555 1_555
C7 C8 1_555 1_555
C8 C3 1_555 1_555
C9 C8 1_555 1_555
C10 C1 1_555 1_555
C11 C1 1_555 1_555
C12 C6 1_555 1_555
C13 O5 1_555 1_555
H1 C13 1_555 1_555
C14 H2 1_555 1_555
H3 C14 1_555 1_555
H4 C14 1_555 1_555
C15 H5 1_555 1_555
H6 C15 1_555 1_555
H7 C15 1_555 1_555
N1 C13 1_555 1_555
H8 C2 1_555 1_555
H9 C7 1_555 1_555
H10 C4 1_555 1_555
H11 C5 1_555 1_555
H12 C9 1_555 1_555
H13 C10 1_555 1_555
Zn1B O2 1_555 1_555
Zn1C O3 1_555 1_555
O2B Zn1 1_555 1_555
O3C Zn1 1_555 1_555
O4C Zn1 1_555 1_555
O4 Zn1C 1_555 1_555
C9 C10 1_555 1_555
C14 N1 1_555 1_555
C15 N1 1_555 1_555

#END
