
#######################################################################
#
#                 Cambridge Crystallographic Data Centre
#                                CCDC 
#
#######################################################################
#
# If this CIF has been generated from an entry in the Cambridge 
# Structural Database, then it will include bibliographic, chemical, 
# crystal, experimental, refinement or atomic coordinate data resulting 
# from the CCDC's data processing and validation procedures.
#
#######################################################################

data_CIFGIJ
_symmetry_cell_setting           monoclinic
_symmetry_space_group_name_H-M   'C 2/c'
_symmetry_Int_Tables_number      15
_space_group_name_Hall           '-C 2yn'
loop_
_symmetry_equiv_pos_site_id
_symmetry_equiv_pos_as_xyz
1 x,y,z
2 -x,y,1/2-z
3 1/2+x,1/2+y,z
4 1/2-x,1/2+y,1/2-z
5 -x,-y,-z
6 x,-y,1/2+z
7 1/2-x,1/2-y,-z
8 1/2+x,1/2-y,1/2+z
_cell_length_a                   7.6170(6)
_cell_length_b                   12.6984(8)
_cell_length_c                   19.1943(14)
_cell_angle_alpha                90
_cell_angle_beta                 100.373(8)
_cell_angle_gamma                90
_cell_volume                     1826.2
loop_
_atom_site_label
_atom_site_type_symbol
_atom_site_fract_x
_atom_site_fract_y
_atom_site_fract_z
Cu1 Cu 0.24588(13) 0.87782(7) 0.03581(5)
S1 S 0.2519(3) 0.53158(17) 0.23413(11)
O1 O 0.2829(7) 0.6933(4) 0.0620(3)
O2 O 0.2877(7) 0.5223(4) 0.0864(3)
N1 N 0.5068(8) 0.8744(5) 0.0447(4)
H1 H 0.5544 0.9334 0.0674
H2 H 0.5361 0.8715 0.0008
H3 H 0.5507 0.8165 0.0700
N2 N -0.0069(9) 0.8570(5) 0.0420(3)
H4 H -0.0267 0.7877 0.0499
H5 H -0.0767 0.8776 0.0007
H6 H -0.0341 0.8961 0.0783
O3 O 0.1862(8) 0.6269(4) 0.4210(3)
O4 O 0.2332(8) 0.4674(4) 0.3784(3)
C1 C 0.2665(10) 0.6381(6) 0.1805(4)
C2 C 0.2512(11) 0.7322(6) 0.2139(4)
H7 H 0.2545 0.7993 0.1923
C3 C 0.2297(11) 0.7160(6) 0.2847(5)
H8 H 0.2174 0.7719 0.3163
C4 C 0.2284(10) 0.6127(6) 0.3032(4)
C5 C 0.2780(10) 0.6129(7) 0.1058(4)
C6 C 0.2115(11) 0.5664(9) 0.3731(5)
Cu1C Cu 0.25412(13) 0.37782(7) 0.46419(5)
Cu1F Cu 0.25412(13) 0.62218(7) -0.03581(5)
O1F O 0.2171(7) 0.8067(4) -0.0620(3)
O2F O 0.2123(7) 0.9777(4) -0.0864(3)
O4C O 0.2668(8) 0.9674(4) 0.1216(3)
loop_
_geom_bond_atom_site_label_1
_geom_bond_atom_site_label_2
_geom_bond_site_symmetry_1
_geom_bond_site_symmetry_2
Cu1 O1 1_555 1_555
S1 C1 1_555 1_555
O1 C5 1_555 1_555
O2 C5 1_555 1_555
N1 Cu1 1_555 1_555
H1 N1 1_555 1_555
H2 N1 1_555 1_555
H3 N1 1_555 1_555
N2 Cu1 1_555 1_555
H4 N2 1_555 1_555
H5 N2 1_555 1_555
H6 N2 1_555 1_555
O3 C6 1_555 1_555
O4 C6 1_555 1_555
C1 C2 1_555 1_555
C2 H7 1_555 1_555
C3 C2 1_555 1_555
H8 C3 1_555 1_555
C4 S1 1_555 1_555
C5 C1 1_555 1_555
C6 C4 1_555 1_555
Cu1C O4 1_555 1_555
Cu1F O1 1_555 1_555
O1F Cu1 1_555 1_555
O2F Cu1 1_555 1_555
O4C Cu1 1_555 1_555
O2 Cu1F 1_555 1_555
C3 C4 1_555 1_555
Cu1F O1F 1_555 1_555

#END
