
#######################################################################
#
#                 Cambridge Crystallographic Data Centre
#                                CCDC 
#
#######################################################################
#
# If this CIF has been generated from an entry in the Cambridge 
# Structural Database, then it will include bibliographic, chemical, 
# crystal, experimental, refinement or atomic coordinate data resulting 
# from the CCDC's data processing and validation procedures.
#
#######################################################################

data_CIFGUT
_symmetry_cell_setting           orthorhombic
_symmetry_space_group_name_H-M   'P n m a'
_symmetry_Int_Tables_number      62
_space_group_name_Hall           '-P 2ac 2n'
loop_
_symmetry_equiv_pos_site_id
_symmetry_equiv_pos_as_xyz
1 x,y,z
2 1/2-x,1/2+y,1/2+z
3 x,1/2-y,z
4 1/2-x,-y,1/2+z
5 -x,-y,-z
6 1/2+x,1/2-y,1/2-z
7 -x,1/2+y,-z
8 1/2+x,y,1/2-z
_cell_length_a                   8.594(1)
_cell_length_b                   9.567(1)
_cell_length_c                   16.403(2)
_cell_angle_alpha                90
_cell_angle_beta                 90
_cell_angle_gamma                90
_cell_volume                     1348.63
loop_
_atom_site_label
_atom_site_type_symbol
_atom_site_fract_x
_atom_site_fract_y
_atom_site_fract_z
Ag1 Ag 0.14803 0.25000 0.36250
Ag2 Ag 0.24631 0.75000 0.41783
Ag3 Ag 0.33466 0.42338 0.20303
Cl1 Cl 0.17109 0.52840 0.33894
Cl2 Cl 0.49284 0.25000 0.29028
Cl3 Cl 0.16628 0.75000 0.56720
N1 N 0.24280 0.25000 0.50080
N2 N 0.47680 0.25000 0.58520
N3 N 0.24590 0.37800 0.63020
C1 C 0.18880 0.37670 0.54440
C2 C 0.41780 0.37450 0.62860
C3 C 0.41480 0.25000 0.50150
C4 C 0.19200 0.25000 0.67170
H1 H 0.22700 0.45810 0.51670
H2 H 0.07710 0.37800 0.54470
H3 H 0.45580 0.37300 0.68360
H4 H 0.45530 0.45680 0.60150
H5 H 0.45160 0.16810 0.47370
H6 H 0.23090 0.25000 0.72660
H7 H 0.08030 0.25000 0.67260
C2B C 0.41780 0.12550 0.62860
N3B N 0.24590 0.12200 0.63020
C1B C 0.18880 0.12330 0.54440
H5B H 0.45160 0.33190 0.47370
H1B H 0.22700 0.04190 0.51670
H2B H 0.07710 0.12200 0.54470
H3B H 0.45580 0.12700 0.68360
H4B H 0.45530 0.04320 0.60150
Cl1B Cl 0.17109 -0.02840 0.33894
Ag3B Ag 0.33466 0.07662 0.20303
Cl1B_2 Cl 0.17109 0.97160 0.33894
N2D N 0.52320 0.75000 0.41480
Cl3A Cl 0.33372 0.25000 0.06720
N3C N 0.25410 0.62200 0.13020
Ag3A Ag 0.16534 0.92338 0.70303
Ag3C Ag 0.16534 0.57662 0.70303
Ag2D Ag 0.75369 0.25000 0.58217
Ag3A_2 Ag 0.16534 -0.07662 0.70303
Ag2_2 Ag 0.24631 -0.25000 0.41783
N3A N 0.25410 -0.12200 0.13020
loop_
_geom_bond_atom_site_label_1
_geom_bond_atom_site_label_2
_geom_bond_site_symmetry_1
_geom_bond_site_symmetry_2
Ag1 Cl1 1_555 1_555
Ag2 Cl1 1_555 1_555
Ag3 Cl1 1_555 1_555
Cl2 Ag3 1_555 1_555
Cl3 Ag2 1_555 1_555
N1 Ag1 1_555 1_555
N2 C2 1_555 1_555
N3 C1 1_555 1_555
C1 N1 1_555 1_555
C2 N3 1_555 1_555
C3 N1 1_555 1_555
C4 N3 1_555 1_555
H1 C1 1_555 1_555
H2 C1 1_555 1_555
H3 C2 1_555 1_555
H4 C2 1_555 1_555
H5 C3 1_555 1_555
H6 C4 1_555 1_555
H7 C4 1_555 1_555
C2B N2 1_555 1_555
N3B C4 1_555 1_555
C1B N1 1_555 1_555
H5B C3 1_555 1_555
H1B C1B 1_555 1_555
H2B C1B 1_555 1_555
H3B C2B 1_555 1_555
H4B C2B 1_555 1_555
Cl1B Ag1 1_555 1_555
Ag3B Cl2 1_555 1_555
Cl1B_2 Ag2 1_555 1_555
N2D Ag2 1_555 1_555
Cl3A Ag3 1_555 1_555
N3C Ag3 1_555 1_555
Ag3A Cl3 1_555 1_555
Ag3C Cl3 1_555 1_555
Ag2D N2 1_555 1_555
Ag3A_2 N3B 1_555 1_555
Ag2_2 Cl1B 1_555 1_555
N3A Ag3B 1_555 1_555
N2 C3 1_555 1_555
N3 Ag3C 1_555 1_555
C2B N3B 1_555 1_555
N3B C1B 1_555 1_555
Cl1B Ag3B 1_555 1_555
Ag3B Cl3A 1_555 1_555

#END
