
#######################################################################
#
#                 Cambridge Crystallographic Data Centre
#                                CCDC 
#
#######################################################################
#
# If this CIF has been generated from an entry in the Cambridge 
# Structural Database, then it will include bibliographic, chemical, 
# crystal, experimental, refinement or atomic coordinate data resulting 
# from the CCDC's data processing and validation procedures.
#
#######################################################################

data_CIFHOQ
_symmetry_cell_setting           monoclinic
_symmetry_space_group_name_H-M   'C 2/c'
_symmetry_Int_Tables_number      15
_space_group_name_Hall           '-C 2yn'
loop_
_symmetry_equiv_pos_site_id
_symmetry_equiv_pos_as_xyz
1 x,y,z
2 -x,y,1/2-z
3 1/2+x,1/2+y,z
4 1/2-x,1/2+y,1/2-z
5 -x,-y,-z
6 x,-y,1/2+z
7 1/2-x,1/2-y,-z
8 1/2+x,1/2-y,1/2+z
_cell_length_a                   11.7729(2)
_cell_length_b                   18.2439(4)
_cell_length_c                   11.7165(2)
_cell_angle_alpha                90
_cell_angle_beta                 99.6134(19)
_cell_angle_gamma                90
_cell_volume                     2481.17
loop_
_atom_site_label
_atom_site_type_symbol
_atom_site_fract_x
_atom_site_fract_y
_atom_site_fract_z
Mn1 Mn 0.0000 0.77132(2) 0.2500
Mn2 Mn 0.2500 0.7500 0.5000
O1 O 0.12879(13) 0.85225(9) 0.23288(14)
O2 O 0.28231(13) 0.81490(8) 0.35930(12)
O3 O 0.27078(14) 1.15041(8) 0.10205(13)
O4 O 0.38445(14) 1.18479(8) 0.26721(13)
O5 O -0.05912(12) 0.77492(9) 0.05421(12)
C1 C 0.27934(17) 0.93495(11) 0.29116(17)
C2 C 0.3631(2) 0.96426(13) 0.3725(2)
H1 H 0.3997 0.9385 0.4367
C3 C 0.3889(2) 1.03776(13) 0.3493(2)
H2 H 0.4435 1.0657 0.3969
C4 C 0.32506(16) 1.06342(11) 0.24962(17)
C5 C 0.22658(16) 0.86115(11) 0.29453(16)
C6 C 0.32778(16) 1.13888(10) 0.20205(16)
C7 C 0.00103(19) 0.80885(17) -0.00789(18)
C8 C 0.0047(3) 0.8920(2) -0.0182(3)
H3 H -0.0687 0.9112 -0.0564
H4 H 0.0247 0.9148 0.0573
C9 C 0.0984(6) 0.9042(4) -0.0911(4)
H5 H 0.0708 0.9364 -0.1556
H6 H 0.1655 0.9265 -0.0447
C10 C 0.1289(3) 0.8308(3) -0.1345(3)
H7 H 0.1038 0.8269 -0.2175
H8 H 0.2113 0.8225 -0.1172
C11 C 0.0781(3) 0.7007(3) -0.0825(3)
H9 H 0.0404 0.6769 -0.0259
H10 H 0.1581 0.6875 -0.0695
H11 H 0.0429 0.6854 -0.1586
N1 N 0.0672(2) 0.77879(19) -0.0725(2)
S1 S 0.23322(5) 0.99736(3) 0.18433(4)
O1A O -0.12879(13) 0.85225(9) 0.26712(14)
O2A O -0.28231(13) 0.81490(8) 0.14070(12)
O3A O -0.27078(14) 1.15041(8) 0.39795(13)
O4A O -0.38445(14) 1.18479(8) 0.23279(13)
O5A O 0.05912(12) 0.77492(9) 0.44579(12)
C1A C -0.27934(17) 0.93495(11) 0.20884(17)
C2A C -0.3631(2) 0.96426(13) 0.1275(2)
H1A H -0.3997 0.9385 0.0633
C3A C -0.3889(2) 1.03776(13) 0.1507(2)
H2A H -0.4435 1.0657 0.1031
C4A C -0.32506(16) 1.06342(11) 0.25038(17)
C5A C -0.22658(16) 0.86115(11) 0.20547(16)
C6A C -0.32778(16) 1.13888(10) 0.29795(16)
C7A C -0.00103(19) 0.80885(17) 0.50789(18)
C8A C -0.0047(3) 0.8920(2) 0.5182(3)
H3A H 0.0687 0.9112 0.5564
H4A H -0.0247 0.9148 0.4427
C9A C -0.0984(6) 0.9042(4) 0.5911(4)
H5A H -0.0708 0.9364 0.6556
H6A H -0.1655 0.9265 0.5447
C10A C -0.1289(3) 0.8308(3) 0.6345(3)
H7A H -0.1038 0.8269 0.7175
H8A H -0.2113 0.8225 0.6172
C11A C -0.0781(3) 0.7007(3) 0.5825(3)
H9A H -0.0404 0.6769 0.5259
H10A H -0.1581 0.6875 0.5695
H11A H -0.0429 0.6854 0.6586
N1A N -0.0672(2) 0.77879(19) 0.5725(2)
S1A S -0.23322(5) 0.99736(3) 0.31567(4)
Mn1B Mn -0.5000 1.27132(2) 0.2500
Mn1B_2 Mn 0.5000 1.27132(2) 0.2500
Mn2A Mn -0.2500 0.7500 0.0000
Mn2B Mn -0.2500 1.2500 0.5000
Mn2C Mn 0.2500 1.2500 0.0000
O2F O 0.21769(13) 0.68510(8) 0.64070(12)
O3C O 0.22922(14) 0.65041(8) 0.39795(13)
O3E O 0.27078(14) 0.84959(8) 0.60205(13)
O4B O -0.11555(14) 0.68479(8) 0.26721(13)
O4C O 0.11555(14) 0.68479(8) 0.23279(13)
O5G O 0.44088(12) 0.72508(9) 0.55421(12)
loop_
_geom_bond_atom_site_label_1
_geom_bond_atom_site_label_2
_geom_bond_site_symmetry_1
_geom_bond_site_symmetry_2
Mn1 O1 1_555 1_555
Mn2 O2 1_555 1_555
O1 C5 1_555 1_555
O2 C5 1_555 1_555
O3 C6 1_555 1_555
O4 C6 1_555 1_555
O5 Mn1 1_555 1_555
C1 C2 1_555 1_555
C2 H1 1_555 1_555
C3 C2 1_555 1_555
H2 C3 1_555 1_555
C4 C3 1_555 1_555
C5 C1 1_555 1_555
C6 C4 1_555 1_555
C7 O5 1_555 1_555
C8 C7 1_555 1_555
H3 C8 1_555 1_555
H4 C8 1_555 1_555
C9 C8 1_555 1_555
H5 C9 1_555 1_555
H6 C9 1_555 1_555
C10 C9 1_555 1_555
H7 C10 1_555 1_555
H8 C10 1_555 1_555
C11 H9 1_555 1_555
H10 C11 1_555 1_555
H11 C11 1_555 1_555
N1 C7 1_555 1_555
S1 C1 1_555 1_555
O1A Mn1 1_555 1_555
O2A C5A 1_555 1_555
O3A C6A 1_555 1_555
O4A C6A 1_555 1_555
O5A Mn1 1_555 1_555
C1A C2A 1_555 1_555
C2A H1A 1_555 1_555
C3A C2A 1_555 1_555
H2A C3A 1_555 1_555
C4A C3A 1_555 1_555
C5A O1A 1_555 1_555
C6A C4A 1_555 1_555
C7A O5A 1_555 1_555
C8A C7A 1_555 1_555
H3A C8A 1_555 1_555
H4A C8A 1_555 1_555
C9A C8A 1_555 1_555
H5A C9A 1_555 1_555
H6A C9A 1_555 1_555
C10A C9A 1_555 1_555
H7A C10A 1_555 1_555
H8A C10A 1_555 1_555
C11A H9A 1_555 1_555
H10A C11A 1_555 1_555
H11A C11A 1_555 1_555
N1A C7A 1_555 1_555
S1A C1A 1_555 1_555
Mn1B O4A 1_555 1_555
Mn1B_2 O4 1_555 1_555
Mn2A O5 1_555 1_555
Mn2B O3A 1_555 1_555
Mn2C O3 1_555 1_555
O2F Mn2 1_555 1_555
O3C Mn2 1_555 1_555
O3E Mn2 1_555 1_555
O4B Mn1 1_555 1_555
O4C Mn1 1_555 1_555
O5G Mn2 1_555 1_555
Mn2 O5A 1_555 1_555
C4 S1 1_555 1_555
C10 N1 1_555 1_555
C11 N1 1_555 1_555
O2A Mn2A 1_555 1_555
C1A C5A 1_555 1_555
C4A S1A 1_555 1_555
C10A N1A 1_555 1_555
C11A N1A 1_555 1_555

#END
