
#######################################################################
#
#                 Cambridge Crystallographic Data Centre
#                                CCDC 
#
#######################################################################
#
# If this CIF has been generated from an entry in the Cambridge 
# Structural Database, then it will include bibliographic, chemical, 
# crystal, experimental, refinement or atomic coordinate data resulting 
# from the CCDC's data processing and validation procedures.
#
#######################################################################

data_CIFHAC
_symmetry_cell_setting           tetragonal
_symmetry_space_group_name_H-M   'I 41/a'
_symmetry_Int_Tables_number      88
_space_group_name_Hall           '-I 4ad'
loop_
_symmetry_equiv_pos_site_id
_symmetry_equiv_pos_as_xyz
1 x,y,z
2 1/2-x,-y,1/2+z
3 3/4-y,1/4+x,1/4+z
4 3/4+y,3/4-x,3/4+z
5 1/2+x,1/2+y,1/2+z
6 -x,1/2-y,z
7 1/4-y,3/4+x,3/4+z
8 1/4+y,1/4-x,1/4+z
9 -x,-y,-z
10 1/2+x,y,1/2-z
11 1/4+y,3/4-x,3/4-z
12 1/4-y,1/4+x,1/4-z
13 1/2-x,1/2-y,1/2-z
14 x,1/2+y,-z
15 3/4+y,1/4-x,1/4-z
16 3/4-y,3/4+x,3/4-z
_cell_length_a                   20.324(1)
_cell_length_b                   20.324(1)
_cell_length_c                   15.2571(7)
_cell_angle_alpha                90
_cell_angle_beta                 90
_cell_angle_gamma                90
_cell_volume                     6302.17
loop_
_atom_site_label
_atom_site_type_symbol
_atom_site_fract_x
_atom_site_fract_y
_atom_site_fract_z
Mn1 Mn 0.223890(17) 0.494796(17) 0.09765(2)
O1 O 0.22479(11) 0.58785(9) 0.15767(13)
O2 O 0.24431(12) 0.57305(9) 0.30040(14)
O3 O 0.22980(11) 0.38483(9) 0.09472(12)
O4 O 0.24844(10) 0.43116(9) 0.22118(12)
O5 O 0.12543(10) 0.47580(11) 0.15758(14)
C1 C 0.24361(13) 0.68234(12) 0.24407(16)
C2 C 0.30593(13) 0.71042(12) 0.24140(17)
C3 C 0.18713(13) 0.72125(13) 0.25258(17)
C4 C 0.23702(13) 0.60783(12) 0.23380(18)
C5 C 0.36582(15) 0.66698(15) 0.2320(2)
H1 H 0.3895 0.6788 0.1791
H2 H 0.3521 0.6213 0.2285
H3 H 0.3943 0.6729 0.2825
C6 C 0.11991(15) 0.68977(15) 0.2538(2)
H4 H 0.0931 0.7105 0.2987
H5 H 0.1243 0.6432 0.2666
H6 H 0.0991 0.6954 0.1971
C7 C 0.24501(13) 0.31228(12) 0.21524(17)
C8 C 0.18783(13) 0.27549(12) 0.22805(17)
C9 C 0.30717(13) 0.28792(12) 0.23655(17)
C10 C 0.24052(13) 0.38002(12) 0.17467(17)
C11 C 0.12112(15) 0.30334(15) 0.2057(2)
H7 H 0.0939 0.3040 0.2579
H8 H 0.1004 0.2761 0.1614
H9 H 0.1262 0.3478 0.1835
C12 C 0.36809(15) 0.32933(14) 0.2226(2)
H10 H 0.4011 0.3035 0.1922
H11 H 0.3852 0.3434 0.2789
H12 H 0.3570 0.3676 0.1877
C13 C 0.08573(14) 0.51818(15) 0.17827(19)
H13 H 0.0924 0.5607 0.1557
C14 C 0.01979(19) 0.4459(2) 0.2669(3)
H14 H 0.0531 0.4145 0.2486
H15 H -0.0231 0.4312 0.2469
H16 H 0.0197 0.4491 0.3304
C15 C -0.01103(16) 0.56258(19) 0.2489(3)
H17 H 0.0033 0.6022 0.2190
H18 H -0.0119 0.5704 0.3116
H19 H -0.0548 0.5508 0.2290
N1 N 0.03416(12) 0.50929(13) 0.22968(17)
O1L O 0.27521(11) 0.91215(9) 0.34233(13)
O2L O 0.25569(12) 0.92695(9) 0.19960(14)
C1L C 0.25639(13) 0.81766(12) 0.25593(16)
C2L C 0.19407(13) 0.78958(12) 0.25860(17)
C3L C 0.31287(13) 0.77875(13) 0.24742(17)
C4L C 0.26298(13) 0.89217(12) 0.26620(18)
C5L C 0.13418(15) 0.83302(15) 0.2680(2)
H1L H 0.1105 0.8212 0.3209
H2L H 0.1479 0.8787 0.2715
H3L H 0.1057 0.8271 0.2175
C6L C 0.38009(15) 0.81023(15) 0.2462(2)
H4L H 0.4069 0.7895 0.2013
H5L H 0.3757 0.8568 0.2334
H6L H 0.4009 0.8046 0.3029
O3L O 0.27020(11) 0.11517(9) 0.40528(12)
O4L O 0.25156(10) 0.06884(9) 0.27882(12)
C7L C 0.25499(13) 0.18772(12) 0.28476(17)
C8L C 0.31217(13) 0.22451(12) 0.27195(17)
C9L C 0.19283(13) 0.21208(12) 0.26345(17)
C10L C 0.25948(13) 0.11998(12) 0.32533(17)
C11L C 0.37888(15) 0.19666(15) 0.2943(2)
H7L H 0.4061 0.1960 0.2421
H8L H 0.3996 0.2239 0.3386
H9L H 0.3738 0.1522 0.3165
C12L C 0.13191(15) 0.17067(14) 0.2774(2)
H10L H 0.0989 0.1965 0.3078
H11L H 0.1148 0.1566 0.2211
H12L H 0.1430 0.1324 0.3123
Mn1B Mn 0.255204(17) 0.473890(17) 0.34765(2)
O5B O 0.27420(11) 0.37543(10) 0.40758(14)
C13B C 0.23182(15) 0.33573(14) 0.42827(19)
H13B H 0.1893 0.3424 0.4057
C14B C 0.3041(2) 0.26979(19) 0.5169(3)
H14B H 0.3355 0.3031 0.4986
H15B H 0.3188 0.2269 0.4969
H16B H 0.3009 0.2697 0.5804
C15B C 0.18742(19) 0.23897(16) 0.4989(3)
H17B H 0.1478 0.2533 0.4690
H18B H 0.1796 0.2381 0.5616
H19B H 0.1992 0.1952 0.4790
N1B N 0.24071(13) 0.28416(12) 0.47968(17)
Mn1L Mn 0.276110(17) 0.005204(17) 0.40235(2)
Mn1L_2 Mn 0.276110(17) 1.005204(17) 0.40235(2)
Mn1N Mn 0.244796(17) 0.026110(17) 0.15235(2)
Mn1N_2 Mn 0.244796(17) 1.026110(17) 0.15235(2)
O1B O 0.16215(9) 0.47479(11) 0.40767(13)
O2C O 0.32305(9) 0.50569(12) 0.05040(14)
O3B O 0.36517(9) 0.47980(11) 0.34472(12)
O4B O 0.31884(9) 0.49844(10) 0.47118(12)
O4C O 0.18116(9) 0.50156(10) -0.02882(12)
loop_
_geom_bond_atom_site_label_1
_geom_bond_atom_site_label_2
_geom_bond_site_symmetry_1
_geom_bond_site_symmetry_2
Mn1 O1 1_555 1_555
O1 C4 1_555 1_555
O2 C4 1_555 1_555
O3 Mn1 1_555 1_555
O4 Mn1 1_555 1_555
O5 Mn1 1_555 1_555
C1 C2 1_555 1_555
C2 C5 1_555 1_555
C3 C1 1_555 1_555
C4 C1 1_555 1_555
C5 H1 1_555 1_555
H2 C5 1_555 1_555
H3 C5 1_555 1_555
C6 C3 1_555 1_555
H4 C6 1_555 1_555
H5 C6 1_555 1_555
H6 C6 1_555 1_555
C7 C8 1_555 1_555
C8 C11 1_555 1_555
C9 C7 1_555 1_555
C10 O3 1_555 1_555
C11 H7 1_555 1_555
H8 C11 1_555 1_555
H9 C11 1_555 1_555
C12 C9 1_555 1_555
H10 C12 1_555 1_555
H11 C12 1_555 1_555
H12 C12 1_555 1_555
C13 O5 1_555 1_555
H13 C13 1_555 1_555
C14 H14 1_555 1_555
H15 C14 1_555 1_555
H16 C14 1_555 1_555
C15 H17 1_555 1_555
H18 C15 1_555 1_555
H19 C15 1_555 1_555
N1 C13 1_555 1_555
O1L C4L 1_555 1_555
O2L C4L 1_555 1_555
C1L C2L 1_555 1_555
C2L C3 1_555 1_555
C3L C2 1_555 1_555
C4L C1L 1_555 1_555
C5L C2L 1_555 1_555
H1L C5L 1_555 1_555
H2L C5L 1_555 1_555
H3L C5L 1_555 1_555
C6L C3L 1_555 1_555
H4L C6L 1_555 1_555
H5L C6L 1_555 1_555
H6L C6L 1_555 1_555
O3L C10L 1_555 1_555
O4L C10L 1_555 1_555
C7L C8L 1_555 1_555
C8L C9 1_555 1_555
C9L C8 1_555 1_555
C10L C7L 1_555 1_555
C11L C8L 1_555 1_555
H7L C11L 1_555 1_555
H8L C11L 1_555 1_555
H9L C11L 1_555 1_555
C12L C9L 1_555 1_555
H10L C12L 1_555 1_555
H11L C12L 1_555 1_555
H12L C12L 1_555 1_555
Mn1B O2 1_555 1_555
O5B Mn1B 1_555 1_555
C13B O5B 1_555 1_555
H13B C13B 1_555 1_555
C14B H14B 1_555 1_555
H15B C14B 1_555 1_555
H16B C14B 1_555 1_555
C15B H17B 1_555 1_555
H18B C15B 1_555 1_555
H19B C15B 1_555 1_555
N1B C13B 1_555 1_555
Mn1L O3L 1_555 1_555
Mn1L_2 O1L 1_555 1_555
Mn1N O4L 1_555 1_555
Mn1N_2 O2L 1_555 1_555
O1B Mn1B 1_555 1_555
O2C Mn1 1_555 1_555
O3B Mn1B 1_555 1_555
O4B Mn1B 1_555 1_555
O4C Mn1 1_555 1_555
O4 C10 1_555 1_555
O4 Mn1B 1_555 1_555
C7 C10 1_555 1_555
C14 N1 1_555 1_555
C15 N1 1_555 1_555
C1L C3L 1_555 1_555
O4L Mn1L 1_555 1_555
C7L C9L 1_555 1_555
C14B N1B 1_555 1_555
C15B N1B 1_555 1_555

#END
