
#######################################################################
#
#                 Cambridge Crystallographic Data Centre
#                                CCDC 
#
#######################################################################
#
# If this CIF has been generated from an entry in the Cambridge 
# Structural Database, then it will include bibliographic, chemical, 
# crystal, experimental, refinement or atomic coordinate data resulting 
# from the CCDC's data processing and validation procedures.
#
#######################################################################

data_CIFJUW
_symmetry_cell_setting           monoclinic
_symmetry_space_group_name_H-M   'C 2/c'
_symmetry_Int_Tables_number      15
_space_group_name_Hall           '-C 2yn'
loop_
_symmetry_equiv_pos_site_id
_symmetry_equiv_pos_as_xyz
1 x,y,z
2 1/2+x,1/2+y,z
3 -x,y,1/2-z
4 1/2-x,1/2+y,1/2-z
5 -x,-y,-z
6 1/2-x,1/2-y,-z
7 x,-y,1/2+z
8 1/2+x,1/2-y,1/2+z
_cell_length_a                   16.561(3)
_cell_length_b                   13.217(2)
_cell_length_c                   13.230(3)
_cell_angle_alpha                90
_cell_angle_beta                 134.05(1)
_cell_angle_gamma                90
_cell_volume                     2081.36
loop_
_atom_site_label
_atom_site_type_symbol
_atom_site_fract_x
_atom_site_fract_y
_atom_site_fract_z
Cu1 Cu 0.50000 0.58920 0.25000
Cu2 Cu 0.50000 0.50000 0.50000
Cl1 Cl 0.59710 0.47680 0.43190
Cl2 Cl 0.36850 0.58860 0.30390
O1 O 0.58710 0.70330 0.38550
O2 O 0.38000 0.32520 0.38840
C1 C 0.52620 0.79800 0.32440
C2 C 0.60030 0.88980 0.40200
C3 C 0.52970 0.98490 0.32600
C4 C 0.26500 0.33920 0.26160
C5 C 0.26100 0.31550 0.14770
C6 C 0.34910 0.24160 0.20880
C7 C 0.42700 0.25160 0.36240
H1 H 0.59900 0.69300 0.45000
H2 H 0.46500 0.79800 0.32200
H3 H 0.62200 0.88900 0.49100
H4 H 0.65300 0.89900 0.40200
H5 H 0.47200 0.98200 0.33400
H6 H 0.58300 1.04500 0.37800
H7 H 0.21300 0.30300 0.25700
H8 H 0.24200 0.41200 0.26500
H9 H 0.24500 0.35600 0.11900
H10 H 0.19600 0.26000 0.07500
H11 H 0.33100 0.16100 0.23800
H12 H 0.37000 0.22400 0.18400
H13 H 0.50300 0.24900 0.42700
H14 H 0.40300 0.18600 0.36300
Cl1B Cl 0.40290 0.47680 0.06810
Cl2B Cl 0.63150 0.58860 0.19610
O1B O 0.41290 0.70330 0.11450
Cl1D Cl 0.40290 0.52320 0.56810
Cl2D Cl 0.63150 0.41140 0.69610
O2D O 0.62000 0.67480 0.61160
Cu1D Cu 0.50000 0.41080 0.75000
C1B C 0.47380 0.79800 0.17560
C3B C 0.47030 0.98490 0.17400
C2B C 0.39970 0.88980 0.09800
H5B H 0.52800 0.98200 0.16600
H6B H 0.41700 1.04500 0.12200
H2B H 0.53500 0.79800 0.17800
C4D C 0.73500 0.66080 0.73840
C7D C 0.57300 0.74840 0.63760
H3B H 0.37800 0.88900 0.00900
H4B H 0.34700 0.89900 0.09800
C6D C 0.65090 0.75840 0.79120
H13D H 0.49700 0.75100 0.57300
H14D H 0.59700 0.81400 0.63700
C5D C 0.73900 0.68450 0.85230
H7D H 0.78700 0.69700 0.74300
H8D H 0.75800 0.58800 0.73500
H11D H 0.66900 0.83900 0.76200
H12D H 0.63000 0.77600 0.81600
H9D H 0.75500 0.64400 0.88100
H10D H 0.80400 0.74000 0.92500
H1B H 0.40100 0.69300 0.05000
loop_
_geom_bond_atom_site_label_1
_geom_bond_atom_site_label_2
_geom_bond_site_symmetry_1
_geom_bond_site_symmetry_2
Cu1 Cl1 1_555 1_555
Cu2 Cl1 1_555 1_555
Cl2 Cu1 1_555 1_555
O1 Cu1 1_555 1_555
O2 Cu2 1_555 1_555
C1 O1 1_555 1_555
C2 C1 1_555 1_555
C3 C2 1_555 1_555
C4 O2 1_555 1_555
C5 C4 1_555 1_555
C6 C5 1_555 1_555
C7 O2 1_555 1_555
H1 O1 1_555 1_555
H2 C1 1_555 1_555
H3 C2 1_555 1_555
H4 C2 1_555 1_555
H5 C3 1_555 1_555
H6 C3 1_555 1_555
H7 C4 1_555 1_555
H8 C4 1_555 1_555
H9 C5 1_555 1_555
H10 C5 1_555 1_555
H11 C6 1_555 1_555
H12 C6 1_555 1_555
H13 C7 1_555 1_555
H14 C7 1_555 1_555
Cl1B Cu1 1_555 1_555
Cl2B Cu1 1_555 1_555
O1B Cu1 1_555 1_555
Cl1D Cu2 1_555 1_555
Cl2D Cu2 1_555 1_555
O2D Cu2 1_555 1_555
Cu1D Cl1D 1_555 1_555
C1B C1 1_555 1_555
C3B C3 1_555 1_555
C2B C1B 1_555 1_555
H5B C3B 1_555 1_555
H6B C3B 1_555 1_555
H2B C1B 1_555 1_555
C4D O2D 1_555 1_555
C7D O2D 1_555 1_555
H3B C2B 1_555 1_555
H4B C2B 1_555 1_555
C6D C7D 1_555 1_555
H13D C7D 1_555 1_555
H14D C7D 1_555 1_555
C5D C4D 1_555 1_555
H7D C4D 1_555 1_555
H8D C4D 1_555 1_555
H11D C6D 1_555 1_555
H12D C6D 1_555 1_555
H9D C5D 1_555 1_555
H10D C5D 1_555 1_555
H1B O1B 1_555 1_555
Cu2 Cl2 1_555 1_555
C6 C7 1_555 1_555
O1B C1B 1_555 1_555
Cl2D Cu1D 1_555 1_555
C3B C2B 1_555 1_555
C6D C5D 1_555 1_555

#END
