
#######################################################################
#
#                 Cambridge Crystallographic Data Centre
#                                CCDC 
#
#######################################################################
#
# If this CIF has been generated from an entry in the Cambridge 
# Structural Database, then it will include bibliographic, chemical, 
# crystal, experimental, refinement or atomic coordinate data resulting 
# from the CCDC's data processing and validation procedures.
#
#######################################################################

data_CIFKAF
_symmetry_cell_setting           monoclinic
_symmetry_space_group_name_H-M   'P 21/c'
_symmetry_Int_Tables_number      14
_space_group_name_Hall           '-P 2ybc'
loop_
_symmetry_equiv_pos_site_id
_symmetry_equiv_pos_as_xyz
1 x,y,z
2 -x,1/2+y,1/2-z
3 -x,-y,-z
4 x,1/2-y,1/2+z
_cell_length_a                   10.4189(12)
_cell_length_b                   18.863(2)
_cell_length_c                   22.224(3)
_cell_angle_alpha                90
_cell_angle_beta                 91.451(9)
_cell_angle_gamma                90
_cell_volume                     4366.32
loop_
_atom_site_label
_atom_site_type_symbol
_atom_site_fract_x
_atom_site_fract_y
_atom_site_fract_z
Zn1 Zn 0.2516(2) 0.50978(11) 0.36446(9)
O1 O 0.2535(11) 0.4568(6) 0.2899(5)
O2 O 0.4381(11) 0.5209(6) 0.3706(5)
N1 N 0.0846(12) 0.4557(7) 0.3890(6)
N2 N 0.2450(13) 0.5298(7) 0.4572(6)
C1 C 0.1213(15) 0.5156(8) 0.4805(7)
C2 C 0.0423(16) 0.4760(8) 0.4461(7)
C3 C -0.0797(15) 0.4615(8) 0.4636(7)
H1 H -0.1353 0.4364 0.4381
C4 C 0.0347(16) 0.4078(9) 0.3569(7)
H2 H -0.0372 0.3865 0.3730
C5 C 0.0695(16) 0.3809(9) 0.3004(7)
C6 C 0.1810(18) 0.4098(10) 0.2683(8)
C7 C 0.2072(18) 0.3706(10) 0.2109(8)
C8 C 0.1279(18) 0.3171(10) 0.1910(8)
H3 H 0.1475 0.2951 0.1550
C9 C 0.0181(17) 0.2930(9) 0.2214(8)
C10 C -0.0058(17) 0.3255(9) 0.2754(7)
H4 H -0.0760 0.3099 0.2969
C11 C 0.3344(19) 0.3910(10) 0.1810(7)
C12 C 0.4484(19) 0.3666(12) 0.2227(10)
H5 H 0.5281 0.3778 0.2042
H6 H 0.4431 0.3163 0.2291
H7 H 0.4442 0.3906 0.2607
C13 C 0.331(2) 0.4700(11) 0.1608(11)
H8 H 0.4072 0.4810 0.1395
H9 H 0.3258 0.5000 0.1956
H10 H 0.2569 0.4779 0.1349
C14 C 0.3358(10) 0.3533(6) 0.1189(4)
H11 H 0.4113 0.3671 0.0980
H12 H 0.2608 0.3667 0.0956
H13 H 0.3362 0.3029 0.1247
C15 C -0.0539(10) 0.2325(6) 0.1998(4)
C16 C -0.0890(10) 0.1819(6) 0.2418(4)
H14 H -0.0699 0.1874 0.2827
C17 C -0.1541(15) 0.1227(9) 0.2194(7)
H15 H -0.1828 0.0905 0.2479
N3 N -0.1790(13) 0.1073(8) 0.1644(6)
C18 C -0.1449(17) 0.1559(9) 0.1248(8)
H16 H -0.1633 0.1480 0.0842
C19 C -0.0836(17) 0.2174(9) 0.1414(7)
H17 H -0.0617 0.2498 0.1118
C20 C 0.3377(16) 0.5563(8) 0.4874(8)
H18 H 0.3237 0.5632 0.5282
C21 C 0.4594(17) 0.5768(9) 0.4673(8)
C22 C 0.5036(17) 0.5588(10) 0.4071(8)
C23 C 0.6269(18) 0.5815(10) 0.3901(8)
C24 C 0.6994(16) 0.6212(10) 0.4301(9)
H19 H 0.7779 0.6379 0.4170
C25 C 0.5435(16) 0.6151(9) 0.5038(8)
H20 H 0.5135 0.6257 0.5418
C26 C 0.6769(15) 0.5677(10) 0.3273(8)
C27 C 0.6868(18) 0.4864(11) 0.3181(9)
H21 H 0.7159 0.4768 0.2783
H22 H 0.6040 0.4652 0.3231
H23 H 0.7467 0.4670 0.3472
C28 C 0.8132(17) 0.5995(14) 0.3201(10)
H24 H 0.8432 0.5889 0.2806
H25 H 0.8709 0.5792 0.3498
H26 H 0.8099 0.6499 0.3255
C29 C 0.5799(19) 0.6032(12) 0.2824(8)
H27 H 0.6054 0.5939 0.2419
H28 H 0.5788 0.6534 0.2892
H29 H 0.4957 0.5841 0.2882
C30 C 0.6639(17) 0.6398(9) 0.4926(8)
C31 C 0.7393(17) 0.6855(10) 0.5308(8)
C32 C 0.7115(18) 0.6951(11) 0.5913(8)
H30 H 0.6461 0.6691 0.6086
C33 C 0.781(2) 0.7435(12) 0.6257(9)
H31 H 0.7523 0.7520 0.6643
N4 N 0.8809(19) 0.7779(10) 0.6105(8)
C34 C 0.915(2) 0.7645(12) 0.5547(10)
H32 H 0.9857 0.7881 0.5401
C35 C 0.8505(19) 0.7176(11) 0.5164(9)
H33 H 0.8855 0.7077 0.4792
O1B O -0.2535(11) 0.5432(6) 0.7101(5)
O2B O -0.4381(11) 0.4791(6) 0.6294(5)
N1B N -0.0846(12) 0.5443(7) 0.6110(6)
N2B N -0.2450(13) 0.4702(7) 0.5428(6)
C1B C -0.1213(15) 0.4844(8) 0.5195(7)
C2B C -0.0423(16) 0.5240(8) 0.5539(7)
C3B C 0.0797(15) 0.5385(8) 0.5364(7)
H1B H 0.1353 0.5636 0.5619
C4B C -0.0347(16) 0.5922(9) 0.6431(7)
H2B H 0.0372 0.6135 0.6270
C5B C -0.0695(16) 0.6191(9) 0.6996(7)
C6B C -0.1810(18) 0.5902(10) 0.7317(8)
C7B C -0.2072(18) 0.6294(10) 0.7891(8)
C8B C -0.1279(18) 0.6829(10) 0.8090(8)
H3B H -0.1475 0.7049 0.8450
C9B C -0.0181(17) 0.7070(9) 0.7786(8)
C10B C 0.0058(17) 0.6745(9) 0.7246(7)
H4B H 0.0760 0.6901 0.7031
C11B C -0.3344(19) 0.6090(10) 0.8190(7)
C12B C -0.4484(19) 0.6334(12) 0.7773(10)
H5B H -0.5281 0.6222 0.7958
H6B H -0.4431 0.6837 0.7709
H7B H -0.4442 0.6094 0.7393
C13B C -0.331(2) 0.5300(11) 0.8392(11)
H8B H -0.4072 0.5190 0.8605
H9B H -0.3258 0.5000 0.8044
H10B H -0.2569 0.5221 0.8651
C14B C -0.3358(10) 0.6467(6) 0.8811(4)
H11B H -0.4113 0.6329 0.9020
H12B H -0.2608 0.6333 0.9044
H13B H -0.3362 0.6971 0.8753
C15B C 0.0539(10) 0.7675(6) 0.8002(4)
C16B C 0.0890(10) 0.8181(6) 0.7582(4)
H14B H 0.0699 0.8126 0.7173
C17B C 0.1541(15) 0.8773(9) 0.7806(7)
H15B H 0.1828 0.9095 0.7521
N3B N 0.1790(13) 0.8927(8) 0.8356(6)
C18B C 0.1449(17) 0.8441(9) 0.8752(8)
H16B H 0.1633 0.8520 0.9158
C19B C 0.0836(17) 0.7826(9) 0.8586(7)
H17B H 0.0617 0.7502 0.8882
C20B C -0.3377(16) 0.4437(8) 0.5126(8)
H18B H -0.3237 0.4368 0.4718
C21B C -0.4594(17) 0.4232(9) 0.5327(8)
C22B C -0.5036(17) 0.4412(10) 0.5929(8)
C23B C -0.6269(18) 0.4185(10) 0.6099(8)
C24B C -0.6994(16) 0.3788(10) 0.5699(9)
H19B H -0.7779 0.3621 0.5830
C25B C -0.5435(16) 0.3849(9) 0.4962(8)
H20B H -0.5135 0.3743 0.4582
C26B C -0.6769(15) 0.4323(10) 0.6727(8)
C27B C -0.6868(18) 0.5136(11) 0.6819(9)
H21B H -0.7159 0.5232 0.7217
H22B H -0.6040 0.5348 0.6769
H23B H -0.7467 0.5330 0.6528
C28B C -0.8132(17) 0.4005(14) 0.6799(10)
H24B H -0.8432 0.4111 0.7194
H25B H -0.8709 0.4208 0.6502
H26B H -0.8099 0.3501 0.6745
C29B C -0.5799(19) 0.3968(12) 0.7176(8)
H27B H -0.6054 0.4061 0.7581
H28B H -0.5788 0.3466 0.7108
H29B H -0.4957 0.4159 0.7118
C30B C -0.6639(17) 0.3602(9) 0.5074(8)
C31B C -0.7393(17) 0.3145(10) 0.4692(8)
C32B C -0.7115(18) 0.3049(11) 0.4087(8)
H30B H -0.6461 0.3309 0.3914
C33B C -0.781(2) 0.2565(12) 0.3743(9)
H31B H -0.7523 0.2480 0.3357
N4B N -0.8809(19) 0.2221(10) 0.3895(8)
C34B C -0.915(2) 0.2355(12) 0.4453(10)
H32B H -0.9857 0.2119 0.4599
C35B C -0.8505(19) 0.2824(11) 0.4836(9)
H33B H -0.8855 0.2923 0.5208
Zn1B Zn -0.2516(2) 0.49022(11) 0.63554(9)
Zn1A Zn -0.2516(2) 0.00978(11) 0.13554(9)
Zn1C Zn 0.2516(2) 0.99022(11) 0.86446(9)
N3A N 0.1790(13) 0.6073(8) 0.3356(6)
N3C N -0.1790(13) 0.3927(8) 0.6644(6)
N5 N 0.333(4) 0.7263(19) 0.0484(18)
C36 C 0.244(4) 0.785(2) 0.0230(17)
C37 C 0.231(4) 0.816(2) 0.0864(16)
C38 C 0.307(5) 0.699(3) 0.1124(19)
C39 C 0.381(6) 0.745(3) 0.159(3)
loop_
_geom_bond_atom_site_label_1
_geom_bond_atom_site_label_2
_geom_bond_site_symmetry_1
_geom_bond_site_symmetry_2
Zn1 O1 1_555 1_555
O1 C6 1_555 1_555
O2 Zn1 1_555 1_555
N1 Zn1 1_555 1_555
N2 Zn1 1_555 1_555
C1 N2 1_555 1_555
C2 N1 1_555 1_555
C3 C2 1_555 1_555
H1 C3 1_555 1_555
C4 N1 1_555 1_555
H2 C4 1_555 1_555
C5 C4 1_555 1_555
C6 C5 1_555 1_555
C7 C6 1_555 1_555
C8 C7 1_555 1_555
H3 C8 1_555 1_555
C9 C8 1_555 1_555
C10 C5 1_555 1_555
H4 C10 1_555 1_555
C11 C7 1_555 1_555
C12 C11 1_555 1_555
H5 C12 1_555 1_555
H6 C12 1_555 1_555
H7 C12 1_555 1_555
C13 C11 1_555 1_555
H8 C13 1_555 1_555
H9 C13 1_555 1_555
H10 C13 1_555 1_555
C14 C11 1_555 1_555
H11 C14 1_555 1_555
H12 C14 1_555 1_555
H13 C14 1_555 1_555
C15 C9 1_555 1_555
C16 C15 1_555 1_555
H14 C16 1_555 1_555
C17 C16 1_555 1_555
H15 C17 1_555 1_555
N3 C17 1_555 1_555
C18 N3 1_555 1_555
H16 C18 1_555 1_555
C19 C15 1_555 1_555
H17 C19 1_555 1_555
C20 N2 1_555 1_555
H18 C20 1_555 1_555
C21 C20 1_555 1_555
C22 O2 1_555 1_555
C23 C22 1_555 1_555
C24 C23 1_555 1_555
H19 C24 1_555 1_555
C25 C21 1_555 1_555
H20 C25 1_555 1_555
C26 C23 1_555 1_555
C27 C26 1_555 1_555
H21 C27 1_555 1_555
H22 C27 1_555 1_555
H23 C27 1_555 1_555
C28 C26 1_555 1_555
H24 C28 1_555 1_555
H25 C28 1_555 1_555
H26 C28 1_555 1_555
C29 C26 1_555 1_555
H27 C29 1_555 1_555
H28 C29 1_555 1_555
H29 C29 1_555 1_555
C30 C24 1_555 1_555
C31 C30 1_555 1_555
C32 C31 1_555 1_555
H30 C32 1_555 1_555
C33 C32 1_555 1_555
H31 C33 1_555 1_555
N4 C33 1_555 1_555
C34 N4 1_555 1_555
H32 C34 1_555 1_555
C35 C31 1_555 1_555
H33 C35 1_555 1_555
N5 C36 1_555 1_555
C36 C37 1_555 1_555
C38 N5 1_555 1_555
C39 C38 1_555 1_555
O1B C6B 1_555 1_555
O2B C22B 1_555 1_555
N1B C2B 1_555 1_555
N2B C1B 1_555 1_555
C1B C3 1_555 1_555
C2B C1B 1_555 1_555
C3B C1 1_555 1_555
H1B C3B 1_555 1_555
C4B N1B 1_555 1_555
H2B C4B 1_555 1_555
C5B C4B 1_555 1_555
C6B C5B 1_555 1_555
C7B C6B 1_555 1_555
C8B C7B 1_555 1_555
H3B C8B 1_555 1_555
C9B C8B 1_555 1_555
C10B C5B 1_555 1_555
H4B C10B 1_555 1_555
C11B C7B 1_555 1_555
C12B C11B 1_555 1_555
H5B C12B 1_555 1_555
H6B C12B 1_555 1_555
H7B C12B 1_555 1_555
C13B C11B 1_555 1_555
H8B C13B 1_555 1_555
H9B C13B 1_555 1_555
H10B C13B 1_555 1_555
C14B C11B 1_555 1_555
H11B C14B 1_555 1_555
H12B C14B 1_555 1_555
H13B C14B 1_555 1_555
C15B C9B 1_555 1_555
C16B C15B 1_555 1_555
H14B C16B 1_555 1_555
C17B C16B 1_555 1_555
H15B C17B 1_555 1_555
N3B C17B 1_555 1_555
C18B N3B 1_555 1_555
H16B C18B 1_555 1_555
C19B C15B 1_555 1_555
H17B C19B 1_555 1_555
C20B N2B 1_555 1_555
H18B C20B 1_555 1_555
C21B C20B 1_555 1_555
C22B C21B 1_555 1_555
C23B C22B 1_555 1_555
C24B C23B 1_555 1_555
H19B C24B 1_555 1_555
C25B C21B 1_555 1_555
H20B C25B 1_555 1_555
C26B C23B 1_555 1_555
C27B C26B 1_555 1_555
H21B C27B 1_555 1_555
H22B C27B 1_555 1_555
H23B C27B 1_555 1_555
C28B C26B 1_555 1_555
H24B C28B 1_555 1_555
H25B C28B 1_555 1_555
H26B C28B 1_555 1_555
C29B C26B 1_555 1_555
H27B C29B 1_555 1_555
H28B C29B 1_555 1_555
H29B C29B 1_555 1_555
C30B C24B 1_555 1_555
C31B C30B 1_555 1_555
C32B C31B 1_555 1_555
H30B C32B 1_555 1_555
C33B C32B 1_555 1_555
H31B C33B 1_555 1_555
N4B C33B 1_555 1_555
C34B N4B 1_555 1_555
H32B C34B 1_555 1_555
C35B C31B 1_555 1_555
H33B C35B 1_555 1_555
Zn1B O1B 1_555 1_555
Zn1A N3 1_555 1_555
Zn1C N3B 1_555 1_555
N3A Zn1 1_555 1_555
N3C Zn1B 1_555 1_555
C1 C2 1_555 1_555
C9 C10 1_555 1_555
C18 C19 1_555 1_555
C21 C22 1_555 1_555
C25 C30 1_555 1_555
C34 C35 1_555 1_555
O2B Zn1B 1_555 1_555
N1B Zn1B 1_555 1_555
N2B Zn1B 1_555 1_555
C2B C3B 1_555 1_555
C9B C10B 1_555 1_555
C18B C19B 1_555 1_555
C25B C30B 1_555 1_555
C34B C35B 1_555 1_555

#END
