
#######################################################################
#
#                 Cambridge Crystallographic Data Centre
#                                CCDC 
#
#######################################################################
#
# If this CIF has been generated from an entry in the Cambridge 
# Structural Database, then it will include bibliographic, chemical, 
# crystal, experimental, refinement or atomic coordinate data resulting 
# from the CCDC's data processing and validation procedures.
#
#######################################################################

data_CIFKUZ
_symmetry_cell_setting           triclinic
_symmetry_space_group_name_H-M   'P -1'
_symmetry_Int_Tables_number      2
_space_group_name_Hall           '-P 1'
loop_
_symmetry_equiv_pos_site_id
_symmetry_equiv_pos_as_xyz
1 x,y,z
2 -x,-y,-z
_cell_length_a                   8.2928(9)
_cell_length_b                   13.2171(15)
_cell_length_c                   16.7624(18)
_cell_angle_alpha                112.540(2)
_cell_angle_beta                 102.421(2)
_cell_angle_gamma                90.440(2)
_cell_volume                     1648.91
loop_
_atom_site_label
_atom_site_type_symbol
_atom_site_fract_x
_atom_site_fract_y
_atom_site_fract_z
Co1 Co 0.57093(6) 0.98784(4) 0.24279(3)
Co2 Co 0.99110(6) 0.95982(4) 0.32839(3)
O1 O 0.7468(3) 0.9868(2) 0.36200(16)
H1 H 0.7153 0.9356 0.3757
H2 H 0.7528 1.0479 0.4058
O2 O 0.4349(3) 0.8582(2) 0.24889(18)
O3 O 0.2416(3) 0.9378(2) 0.31946(18)
O4 O -0.0261(3) 0.0625(2) 0.26294(19)
O5 O 1.0931(3) 1.1009(2) 0.44459(18)
H3 H 1.0748 1.1583 0.4341
H4 H 1.0491 1.1024 0.4863
O6 O 0.0898(4) 0.1768(2) -0.21658(18)
O7 O 0.3346(3) 0.1392(2) -0.15405(18)
O8 O -0.2801(3) 0.1187(2) 0.2549(2)
O9 O 0.0271(3) 0.8750(2) 0.41247(18)
C1 C 0.3124(4) 0.8548(3) 0.2817(2)
O10 O 0.4393(4) 1.1048(2) 0.3245(2)
H5 H 0.3928 1.1432 0.2972
H6 H 0.3665 1.0717 0.3371
C2 C 0.1510(5) 0.8214(3) 0.4175(3)
C3 C 0.3957(7) 1.0819(4) 0.1122(4)
H7 H 0.4609 1.1459 0.1529
C4 C 0.1715(4) 0.7288(3) 0.3343(2)
C5 C 0.1997(5) 0.5456(3) 0.1831(2)
C6 C -0.0660(5) 0.2298(3) 0.2463(3)
N1 N 0.4016(4) 0.9914(3) 0.1288(2)
C7 C 0.2053(5) 0.4531(3) 0.0977(3)
C8 C 0.2123(5) 0.1929(3) -0.1527(3)
O11 O 0.2503(4) 0.8336(3) 0.48818(19)
C9 C 0.2644(5) 0.6507(3) 0.1995(2)
H8 H 0.3199 0.6596 0.1596
C10 C 0.2098(5) 0.2858(3) -0.0665(2)
C11 C 0.1212(5) 0.5322(3) 0.2455(3)
C12 C -0.1286(5) 0.1287(3) 0.2549(3)
C13 C 0.1114(5) 0.6237(3) 0.3195(3)
H9 H 0.0622 0.6142 0.3614
C14 C 0.0600(5) 0.3944(3) 0.0389(3)
H10 H -0.0409 0.4105 0.0543
C15 C 0.0535(5) 0.4231(3) 0.2383(3)
C16 C 0.2500(4) 0.7436(3) 0.2728(2)
C17 C -0.1675(5) 0.3128(3) 0.2473(3)
H11 H -0.2772 0.3035 0.2499
C18 C 0.0623(5) 0.3123(3) -0.0422(3)
H12 H -0.0370 0.2744 -0.0810
C19 C 0.0941(5) 0.2429(3) 0.2383(3)
H13 H 0.1628 0.1869 0.2354
C20 C -0.1083(5) 0.4099(3) 0.2445(3)
H14 H -0.1772 0.4656 0.2467
C21 C 0.3538(5) 0.4280(4) 0.0733(3)
H15 H 0.4525 0.4679 0.1113
C22 C 0.1536(5) 0.3394(3) 0.2346(3)
H16 H 0.2620 0.3474 0.2295
C23 C 0.3571(5) 0.3440(3) -0.0072(3)
H17 H 0.4582 0.3262 -0.0217
C24 C 0.3071(7) 0.9022(4) 0.0687(3)
H18 H 0.3118 0.8374 0.0783
C25 C 0.2021(8) 0.9013(6) -0.0076(4)
H19 H 0.1349 0.8376 -0.0473
C26 C 0.1979(8) 0.9920(6) -0.0240(4)
H20 H 0.1296 0.9927 -0.0757
C27 C 0.2944(9) 1.0826(6) 0.0356(5)
H21 H 0.2929 1.1468 0.0251
Co1_2 Co -0.42907(6) -0.01216(4) 0.24279(3)
Co1A Co 0.42907(6) 0.01216(4) -0.24279(3)
Co2_2 Co -0.00890(6) -0.04018(4) 0.32839(3)
Co2_3 Co -0.00890(6) 0.95982(4) 0.32839(3)
Co2A Co 0.00890(6) 0.04018(4) -0.32839(3)
O3_2 O 1.2416(3) 0.9378(2) 0.31946(18)
O4_2 O 0.9739(3) 1.0625(2) 0.26294(19)
O6A O 0.9102(4) 0.8232(2) 0.21658(18)
O7A O 0.6654(3) 0.8608(2) 0.15405(18)
O8_2 O 0.7199(3) 1.1187(2) 0.2549(2)
O9_2 O 1.0271(3) 0.8750(2) 0.41247(18)
loop_
_geom_bond_atom_site_label_1
_geom_bond_atom_site_label_2
_geom_bond_site_symmetry_1
_geom_bond_site_symmetry_2
Co1 O1 1_555 1_555
Co2 O1 1_555 1_555
O1 H1 1_555 1_555
H2 O1 1_555 1_555
O2 Co1 1_555 1_555
O3 C1 1_555 1_555
O4 C12 1_555 1_555
O5 Co2 1_555 1_555
H3 O5 1_555 1_555
H4 O5 1_555 1_555
O6 C8 1_555 1_555
O7 C8 1_555 1_555
O8 C12 1_555 1_555
O9 C2 1_555 1_555
C1 O2 1_555 1_555
O10 Co1 1_555 1_555
H5 O10 1_555 1_555
H6 O10 1_555 1_555
C2 C4 1_555 1_555
C3 H7 1_555 1_555
C4 C13 1_555 1_555
C5 C7 1_555 1_555
C6 C12 1_555 1_555
N1 Co1 1_555 1_555
C7 C14 1_555 1_555
C8 C10 1_555 1_555
O11 C2 1_555 1_555
C9 C5 1_555 1_555
H8 C9 1_555 1_555
C10 C18 1_555 1_555
C11 C5 1_555 1_555
C13 C11 1_555 1_555
H9 C13 1_555 1_555
C14 H10 1_555 1_555
C15 C11 1_555 1_555
C16 C1 1_555 1_555
C17 C6 1_555 1_555
H11 C17 1_555 1_555
C18 C14 1_555 1_555
H12 C18 1_555 1_555
C19 C6 1_555 1_555
H13 C19 1_555 1_555
C20 C15 1_555 1_555
H14 C20 1_555 1_555
C21 C7 1_555 1_555
H15 C21 1_555 1_555
C22 C15 1_555 1_555
H16 C22 1_555 1_555
C23 C10 1_555 1_555
H17 C23 1_555 1_555
C24 N1 1_555 1_555
H18 C24 1_555 1_555
C25 C24 1_555 1_555
H19 C25 1_555 1_555
C26 C25 1_555 1_555
H20 C26 1_555 1_555
C27 C3 1_555 1_555
H21 C27 1_555 1_555
Co1_2 O8 1_555 1_555
Co1A O7 1_555 1_555
Co2_2 O4 1_555 1_555
Co2_3 O3 1_555 1_555
Co2A O6 1_555 1_555
O3_2 Co2 1_555 1_555
O4_2 Co2 1_555 1_555
O6A Co2 1_555 1_555
O7A Co1 1_555 1_555
O8_2 Co1 1_555 1_555
O9_2 Co2 1_555 1_555
O9 Co2_3 1_555 1_555
C3 N1 1_555 1_555
C4 C16 1_555 1_555
C9 C16 1_555 1_555
C17 C20 1_555 1_555
C19 C22 1_555 1_555
C21 C23 1_555 1_555
C26 C27 1_555 1_555

#END
