
#######################################################################
#
#                 Cambridge Crystallographic Data Centre
#                                CCDC 
#
#######################################################################
#
# If this CIF has been generated from an entry in the Cambridge 
# Structural Database, then it will include bibliographic, chemical, 
# crystal, experimental, refinement or atomic coordinate data resulting 
# from the CCDC's data processing and validation procedures.
#
#######################################################################

data_CIFKOT
_symmetry_cell_setting           triclinic
_symmetry_space_group_name_H-M   'P -1'
_symmetry_Int_Tables_number      2
_space_group_name_Hall           '-P 1'
loop_
_symmetry_equiv_pos_site_id
_symmetry_equiv_pos_as_xyz
1 x,y,z
2 -x,-y,-z
_cell_length_a                   9.731(7)
_cell_length_b                   11.083(8)
_cell_length_c                   16.472(11)
_cell_angle_alpha                100.738(14)
_cell_angle_beta                 97.558(14)
_cell_angle_gamma                98.329(14)
_cell_volume                     1703.85
loop_
_atom_site_label
_atom_site_type_symbol
_atom_site_fract_x
_atom_site_fract_y
_atom_site_fract_z
Co1 Co 0.5464(3) 0.4709(2) 0.14472(16)
Co2 Co 0.5000 0.5000 0.5000
Co3 Co 0.0000 0.5000 0.5000
O1 O 0.5752(12) 0.4322(12) 0.3915(7)
O2 O 0.3228(13) 0.5119(12) 0.4234(8)
C1 C 0.228(2) -0.0682(18) 0.5015(13)
N1 N 0.1054(16) -0.3145(14) 0.5003(11)
O3 O 0.4460(15) -0.3086(13) -0.0739(10)
O4 O 0.263(2) -0.2664(18) -0.1519(10)
O5 O -0.1433(13) 0.5060(14) 0.3947(9)
H1 H -0.1087 0.4872 0.3523
O6 O 0.1073(13) 0.4086(13) 0.4133(9)
O7 O -0.4070(18) -0.2972(17) 0.1895(12)
N2 N 0.3466(18) 0.4838(17) 0.0902(12)
C2 C 0.1560(17) 0.1120(16) 0.2351(11)
C3 C 0.294(2) 0.0581(17) 0.5031(13)
C4 C -0.172(2) -0.206(2) 0.1913(13)
C5 C 0.0419(18) 0.0000(17) 0.2148(13)
C6 C 0.3853(18) 0.2232(17) 0.2266(11)
H2 H 0.4671 0.2256 0.2029
C7 C 0.331(3) 0.2782(18) 0.5574(17)
H3 H 0.3105 0.3448 0.5944
C8 C 0.3754(18) 0.3204(18) 0.2890(12)
C9 C 0.2783(18) 0.1217(18) 0.1976(11)
C10 C 0.072(2) -0.1193(18) 0.2083(13)
H4 H 0.1657 -0.1305 0.2133
N3 N 0.4182(16) 0.3042(15) 0.5079(10)
C11 C 0.2510(19) 0.3191(16) 0.3253(11)
C12 C 0.212(2) -0.093(2) -0.0160(13)
H5 H 0.1433 -0.1144 -0.0636
O8 O 0.5536(15) 0.4746(14) 0.2639(9)
C13 C 0.334(2) -0.1477(18) -0.0141(12)
C14 C 0.2961(19) 0.0272(17) 0.1230(12)
O9 O -0.2667(17) -0.4231(13) 0.1456(10)
C15 C 0.196(2) -0.009(2) 0.0528(13)
H6 H 0.1133 0.0246 0.0517
C16 C 0.148(2) 0.2142(18) 0.2968(14)
H7 H 0.0665 0.2117 0.3208
C17 C 0.345(2) -0.2467(19) -0.0892(15)
C18 C 0.306(2) 0.594(2) 0.0876(16)
H8 H 0.3713 0.6671 0.1078
C19 C 0.436(2) -0.115(2) 0.0568(13)
H9 H 0.5163 -0.1511 0.0588
C20 C -0.096(2) 0.0174(19) 0.2123(13)
H10 H -0.1171 0.0974 0.2204
C21 C 0.125(2) -0.2792(19) 0.4276(15)
H11 H 0.0974 -0.3376 0.3775
C22 C 0.5066(18) 0.4179(18) 0.3179(14)
C23 C 0.227(2) 0.4234(18) 0.3920(12)
C24 C -0.290(2) -0.317(2) 0.1725(15)
C25 C 0.417(2) -0.028(2) 0.1251(14)
H12 H 0.4853 -0.0066 0.1728
C26 C 0.169(2) 0.602(2) 0.0557(18)
H13 H 0.1429 0.6802 0.0585
C27 C 0.211(2) -0.1090(17) 0.5740(13)
H14 H 0.2377 -0.0541 0.6257
C28 C 0.115(3) 0.382(2) 0.0221(18)
H15 H 0.0529 0.3080 0.0001
C29 C -0.203(2) -0.086(2) 0.1974(16)
H16 H -0.2961 -0.0753 0.1914
C30 C 0.071(2) 0.4953(19) 0.0195(13)
C31 C 0.186(2) -0.1593(19) 0.4254(14)
H17 H 0.2000 -0.1382 0.3746
C32 C 0.456(2) 0.2094(19) 0.4583(14)
H18 H 0.5260 0.2261 0.4266
C33 C -0.033(2) -0.2221(18) 0.1947(12)
H19 H -0.0110 -0.3018 0.1879
C34 C 0.393(2) 0.084(2) 0.4526(13)
H20 H 0.4176 0.0195 0.4154
C35 C 0.154(2) -0.233(2) 0.5695(15)
H21 H 0.1500 -0.2595 0.6196
C36 C 0.248(2) 0.380(2) 0.0562(15)
H22 H 0.2740 0.3024 0.0567
C37 C 0.266(3) 0.159(2) 0.5604(17)
H23 H 0.2066 0.1469 0.5990
N2A N -0.3466(18) 0.5162(17) -0.0902(12)
C18A C -0.306(2) 0.406(2) -0.0876(16)
H8A H -0.3713 0.3329 -0.1078
C26A C -0.169(2) 0.398(2) -0.0557(18)
H13A H -0.1429 0.3198 -0.0585
C28A C -0.115(3) 0.618(2) -0.0221(18)
H15A H -0.0529 0.6920 -0.0001
C30A C -0.071(2) 0.5047(19) -0.0195(13)
C36A C -0.248(2) 0.620(2) -0.0562(15)
H22A H -0.2740 0.6976 -0.0567
C1A C -0.228(2) 0.0682(18) 0.4985(13)
N1A N -0.1054(16) 0.3145(14) 0.4997(11)
C3A C -0.294(2) -0.0581(17) 0.4969(13)
C7A C -0.331(3) -0.2782(18) 0.4426(17)
H3A H -0.3105 -0.3448 0.4056
N3A N -0.4182(16) -0.3042(15) 0.4921(10)
C21A C -0.125(2) 0.2792(19) 0.5724(15)
H11A H -0.0974 0.3376 0.6225
C27A C -0.211(2) 0.1090(17) 0.4260(13)
H14A H -0.2377 0.0541 0.3743
C31A C -0.186(2) 0.1593(19) 0.5746(14)
H17A H -0.2000 0.1382 0.6254
C32A C -0.456(2) -0.2094(19) 0.5417(14)
H18A H -0.5260 -0.2261 0.5734
C34A C -0.393(2) -0.084(2) 0.5474(13)
H20A H -0.4176 -0.0195 0.5846
C35A C -0.154(2) 0.233(2) 0.4305(15)
H21A H -0.1500 0.2595 0.3804
C37A C -0.266(3) -0.159(2) 0.4396(17)
H23A H -0.2066 -0.1469 0.4010
Co1A Co 0.4536(3) -0.4709(2) -0.14472(16)
O1A O 0.4248(12) -0.4322(12) -0.3915(7)
O2A O 0.6772(13) -0.5119(12) -0.4234(8)
O3A O 0.5540(15) 0.3086(13) 0.0739(10)
O4A O 0.737(2) 0.2664(18) 0.1519(10)
O6A O 0.8927(13) -0.4086(13) -0.4133(9)
O7A O 1.4070(18) 0.2972(17) -0.1895(12)
C2A C 0.8440(17) -0.1120(16) -0.2351(11)
C4A C 1.172(2) 0.206(2) -0.1913(13)
C5A C 0.9581(18) 0.0000(17) -0.2148(13)
C6A C 0.6147(18) -0.2232(17) -0.2266(11)
H2A H 0.5329 -0.2256 -0.2029
C8A C 0.6246(18) -0.3204(18) -0.2890(12)
C9A C 0.7217(18) -0.1217(18) -0.1976(11)
C10A C 0.928(2) 0.1193(18) -0.2083(13)
H4A H 0.8343 0.1305 -0.2133
C11A C 0.7490(19) -0.3191(16) -0.3253(11)
C12A C 0.788(2) 0.093(2) 0.0160(13)
H5A H 0.8567 0.1144 0.0636
O8A O 0.4464(15) -0.4746(14) -0.2639(9)
C13A C 0.666(2) 0.1477(18) 0.0141(12)
C14A C 0.7039(19) -0.0272(17) -0.1230(12)
O9A O 1.2667(17) 0.4231(13) -0.1456(10)
C15A C 0.804(2) 0.009(2) -0.0528(13)
H6A H 0.8867 -0.0246 -0.0517
C16A C 0.852(2) -0.2142(18) -0.2968(14)
H7A H 0.9335 -0.2117 -0.3208
C17A C 0.655(2) 0.2467(19) 0.0892(15)
C19A C 0.564(2) 0.115(2) -0.0568(13)
H9A H 0.4837 0.1511 -0.0588
C20A C 1.096(2) -0.0174(19) -0.2123(13)
H10A H 1.1171 -0.0974 -0.2204
C22A C 0.4934(18) -0.4179(18) -0.3179(14)
C23A C 0.773(2) -0.4234(18) -0.3920(12)
C24A C 1.290(2) 0.317(2) -0.1725(15)
C25A C 0.583(2) 0.028(2) -0.1251(14)
H12A H 0.5147 0.0066 -0.1728
C29A C 1.203(2) 0.086(2) -0.1974(16)
H16A H 1.2961 0.0753 -0.1914
C33A C 1.033(2) 0.2221(18) -0.1947(12)
H19A H 1.0110 0.3018 -0.1879
O5A O 0.1433(13) 0.4940(14) 0.6053(9)
H1A H 0.1087 0.5128 0.6477
Co1_2 Co -0.4536(3) -0.5291(2) 0.14472(16)
Co1A_2 Co -0.5464(3) 0.5291(2) -0.14472(16)
Co1A_3 Co 1.4536(3) 0.5291(2) -0.14472(16)
Co2_2 Co -0.5000 -0.5000 0.5000
Co2_3 Co 0.5000 -0.5000 -0.5000
Co3_2 Co 0.0000 -0.5000 0.5000
Co3_3 Co 1.0000 -0.5000 -0.5000
O1A_2 O 0.4248(12) 0.5678(12) 0.6085(7)
O2A_2 O 0.6772(13) 0.4881(12) 0.5766(8)
N1_2 N 0.1054(16) 0.6855(14) 0.5003(11)
O6A_2 O -0.1073(13) 0.5914(13) 0.5867(9)
N2A_2 N 0.6534(18) -0.4838(17) -0.0902(12)
N3A_2 N 0.5818(16) 0.6958(15) 0.4921(10)
O9_2 O 0.7333(17) 0.5769(13) 0.1456(10)
O9A_2 O 0.2667(17) -0.5769(13) -0.1456(10)
O10 O 0.934(2) 0.464(2) 0.2392(12)
loop_
_geom_bond_atom_site_label_1
_geom_bond_atom_site_label_2
_geom_bond_site_symmetry_1
_geom_bond_site_symmetry_2
Co1 N2 1_555 1_555
Co2 O1 1_555 1_555
Co3 O5 1_555 1_555
O1 C22 1_555 1_555
O2 Co2 1_555 1_555
C1 C3 1_555 1_555
N1 C21 1_555 1_555
O3 C17 1_555 1_555
O4 C17 1_555 1_555
O5 H1 1_555 1_555
O6 Co3 1_555 1_555
O7 C24 1_555 1_555
N2 C18 1_555 1_555
C2 C5 1_555 1_555
C3 C34 1_555 1_555
C4 C24 1_555 1_555
C5 C10 1_555 1_555
C6 H2 1_555 1_555
C7 H3 1_555 1_555
C8 C6 1_555 1_555
C9 C2 1_555 1_555
C10 H4 1_555 1_555
N3 Co2 1_555 1_555
C11 C8 1_555 1_555
C12 H5 1_555 1_555
O8 Co1 1_555 1_555
C13 C12 1_555 1_555
C14 C9 1_555 1_555
O9 C24 1_555 1_555
C15 C12 1_555 1_555
H6 C15 1_555 1_555
C16 C2 1_555 1_555
H7 C16 1_555 1_555
C17 C13 1_555 1_555
C18 H8 1_555 1_555
C19 C13 1_555 1_555
H9 C19 1_555 1_555
C20 C5 1_555 1_555
H10 C20 1_555 1_555
C21 H11 1_555 1_555
C22 C8 1_555 1_555
C23 O2 1_555 1_555
C25 C14 1_555 1_555
H12 C25 1_555 1_555
C26 C18 1_555 1_555
H13 C26 1_555 1_555
C27 C1 1_555 1_555
H14 C27 1_555 1_555
C28 H15 1_555 1_555
C29 C4 1_555 1_555
H16 C29 1_555 1_555
C30 C26 1_555 1_555
C31 C1 1_555 1_555
H17 C31 1_555 1_555
C32 N3 1_555 1_555
H18 C32 1_555 1_555
C33 C4 1_555 1_555
H19 C33 1_555 1_555
C34 C32 1_555 1_555
H20 C34 1_555 1_555
C35 N1 1_555 1_555
H21 C35 1_555 1_555
C36 N2 1_555 1_555
H22 C36 1_555 1_555
C37 C3 1_555 1_555
H23 C37 1_555 1_555
N2A C18A 1_555 1_555
C18A H8A 1_555 1_555
C26A C18A 1_555 1_555
H13A C26A 1_555 1_555
C28A H15A 1_555 1_555
C30A C30 1_555 1_555
C36A N2A 1_555 1_555
H22A C36A 1_555 1_555
C1A C3A 1_555 1_555
N1A Co3 1_555 1_555
C3A C34A 1_555 1_555
C7A H3A 1_555 1_555
N3A C7A 1_555 1_555
C21A N1A 1_555 1_555
H11A C21A 1_555 1_555
C27A C1A 1_555 1_555
H14A C27A 1_555 1_555
C31A C1A 1_555 1_555
H17A C31A 1_555 1_555
C32A N3A 1_555 1_555
H18A C32A 1_555 1_555
C34A C32A 1_555 1_555
H20A C34A 1_555 1_555
C35A N1A 1_555 1_555
H21A C35A 1_555 1_555
C37A C3A 1_555 1_555
H23A C37A 1_555 1_555
Co1A O3 1_555 1_555
O1A C22A 1_555 1_555
O2A C23A 1_555 1_555
O3A Co1 1_555 1_555
O4A C17A 1_555 1_555
O6A C23A 1_555 1_555
O7A C24A 1_555 1_555
C2A C5A 1_555 1_555
C4A C24A 1_555 1_555
C5A C10A 1_555 1_555
C6A H2A 1_555 1_555
C8A C6A 1_555 1_555
C9A C2A 1_555 1_555
C10A H4A 1_555 1_555
C11A C8A 1_555 1_555
C12A H5A 1_555 1_555
O8A Co1A 1_555 1_555
C13A C12A 1_555 1_555
C14A C9A 1_555 1_555
O9A C24A 1_555 1_555
C15A C12A 1_555 1_555
H6A C15A 1_555 1_555
C16A C2A 1_555 1_555
H7A C16A 1_555 1_555
C17A O3A 1_555 1_555
C19A C13A 1_555 1_555
H9A C19A 1_555 1_555
C20A C5A 1_555 1_555
H10A C20A 1_555 1_555
C22A C8A 1_555 1_555
C23A C11A 1_555 1_555
C25A C14A 1_555 1_555
H12A C25A 1_555 1_555
C29A C4A 1_555 1_555
H16A C29A 1_555 1_555
C33A C4A 1_555 1_555
H19A C33A 1_555 1_555
O5A Co3 1_555 1_555
H1A O5A 1_555 1_555
Co1_2 O9 1_555 1_555
Co1A_2 N2A 1_555 1_555
Co1A_3 O9A 1_555 1_555
Co2_2 N3A 1_555 1_555
Co2_3 O1A 1_555 1_555
Co3_2 N1 1_555 1_555
Co3_3 O6A 1_555 1_555
O1A_2 Co2 1_555 1_555
O2A_2 Co2 1_555 1_555
N1_2 Co3 1_555 1_555
O6A_2 Co3 1_555 1_555
N2A_2 Co1A 1_555 1_555
N3A_2 Co2 1_555 1_555
O9_2 Co1 1_555 1_555
O9A_2 Co1A 1_555 1_555
O6 C23 1_555 1_555
C6 C9 1_555 1_555
C7 N3 1_555 1_555
C7 C37 1_555 1_555
C10 C33 1_555 1_555
C11 C16 1_555 1_555
C11 C23 1_555 1_555
O8 C22 1_555 1_555
C14 C15 1_555 1_555
C19 C25 1_555 1_555
C20 C29 1_555 1_555
C21 C31 1_555 1_555
C27 C35 1_555 1_555
C28 C30 1_555 1_555
C28 C36 1_555 1_555
C26A C30A 1_555 1_555
C28A C30A 1_555 1_555
C28A C36A 1_555 1_555
C7A C37A 1_555 1_555
C21A C31A 1_555 1_555
C27A C35A 1_555 1_555
O2A Co2_3 1_555 1_555
C6A C9A 1_555 1_555
C10A C33A 1_555 1_555
C11A C16A 1_555 1_555
O8A C22A 1_555 1_555
C13A C17A 1_555 1_555
C14A C15A 1_555 1_555
C19A C25A 1_555 1_555
C20A C29A 1_555 1_555

#END
