
#######################################################################
#
#                 Cambridge Crystallographic Data Centre
#                                CCDC 
#
#######################################################################
#
# If this CIF has been generated from an entry in the Cambridge 
# Structural Database, then it will include bibliographic, chemical, 
# crystal, experimental, refinement or atomic coordinate data resulting 
# from the CCDC's data processing and validation procedures.
#
#######################################################################

data_CIFKIN
_symmetry_cell_setting           triclinic
_symmetry_space_group_name_H-M   'P -1'
_symmetry_Int_Tables_number      2
_space_group_name_Hall           '-P 1'
loop_
_symmetry_equiv_pos_site_id
_symmetry_equiv_pos_as_xyz
1 x,y,z
2 -x,-y,-z
_cell_length_a                   12.082(9)
_cell_length_b                   13.647(10)
_cell_length_c                   14.324(18)
_cell_angle_alpha                110.57(2)
_cell_angle_beta                 109.52(2)
_cell_angle_gamma                102.764(15)
_cell_volume                     1924.84
loop_
_atom_site_label
_atom_site_type_symbol
_atom_site_fract_x
_atom_site_fract_y
_atom_site_fract_z
Co1 Co 1.0000 0.5000 0.0000
Co2 Co 0.61517(12) 0.42306(11) -0.09812(12)
N1 N 1.0065(7) 0.6609(7) 0.0148(8)
N2 N 0.6168(6) 1.2697(6) -0.0933(7)
N3 N 0.6144(7) 0.5809(7) -0.0980(7)
O1 O 0.9059(6) 0.5031(5) 0.1015(6)
O2 O 0.4271(5) 0.3676(6) -0.1399(6)
H1 H 0.3858 0.3475 -0.2065
O3 O 0.8799(6) 0.7266(5) 0.2672(6)
H2 H 0.8647 0.7808 0.2625
O4 O 0.6230(6) 0.3836(5) 0.7548(6)
O5 O 0.8885(6) -0.0888(5) 0.2734(7)
C1 C 0.9844(9) 0.6823(8) -0.0727(9)
H3 H 0.9676 0.6239 -0.1401
C2 C 0.7946(8) 0.4452(7) 0.5012(9)
C3 C 0.8113(7) 0.4627(7) 0.4104(8)
O6 O 0.6818(7) -0.1409(6) 0.2305(7)
C4 C 0.6414(9) 1.1898(8) -0.1654(9)
H4 H 0.6513 1.2009 -0.2230
O7 O 0.7133(6) 0.5071(5) 0.0678(6)
O8 O 0.8256(6) 0.4220(6) 0.8548(6)
C5 C 0.8315(7) 0.4040(7) 0.2386(8)
H5 H 0.8381 0.3498 0.1816
C6 C 0.6243(9) 0.7780(9) -0.1251(10)
C7 C 0.8316(7) 0.5049(8) 0.2349(9)
O9 O 0.8205(7) 0.7700(6) 0.4034(7)
C8 C 0.7028(9) 0.7809(8) -0.0285(9)
H6 H 0.7626 0.8505 0.0309
C9 C 0.8163(8) 0.5636(8) 0.4074(8)
H7 H 0.8103 0.6185 0.4643
C10 C 0.8221(8) 0.3804(8) 0.3237(8)
C11 C 0.6959(9) 0.6842(8) -0.0169(9)
H8 H 0.7507 0.6911 0.0508
C12 C 0.6365(9) 1.0777(8) -0.0711(10)
C13 C 0.8177(8) 0.2691(7) 0.3150(8)
C14 C 0.7953(8) 0.0479(8) 0.2792(9)
C15 C 0.6422(9) 0.9770(9) -0.0593(10)
H9 H 0.6602 0.9821 0.0110
C16 C 0.9845(9) 0.7846(9) -0.0707(10)
H10 H 0.9625 0.7920 -0.1359
C17 C 0.7564(9) 0.4188(8) 0.6758(9)
C18 C 0.8624(8) 0.3971(8) 0.5571(8)
H11 H 0.9201 0.3720 0.5363
C19 C 0.5973(8) 1.2476(8) -0.0168(8)
H12 H 0.5744 1.2974 0.0292
C20 C 0.6245(8) 0.8789(8) -0.1377(10)
H13 H 0.6110 0.8744 -0.2072
C21 C 0.8445(9) 0.7056(8) 0.3363(9)
C22 C 0.9129(9) 0.2329(8) 0.3060(9)
H14 H 0.9833 0.2813 0.3092
C23 C 0.5356(9) 0.5770(9) -0.1936(10)
H15 H 0.4777 0.5063 -0.2523
C24 C 0.7014(8) 0.0847(8) 0.2889(10)
H16 H 0.6307 0.0363 0.2853
C25 C 0.8188(9) 0.5093(8) 0.1296(9)
C26 C 0.8298(8) 0.5885(7) 0.3231(8)
C27 C 0.7090(8) 0.1910(8) 0.3038(9)
H17 H 0.6417 0.2123 0.3066
C28 C 1.0184(8) 0.8768(7) 0.0314(10)
C29 C 0.5357(10) 0.6707(9) -0.2094(10)
H18 H 0.4771 0.6627 -0.2760
C30 C 0.6081(8) 1.1563(8) 0.0008(9)
H19 H 0.5969 1.1474 0.0589
C31 C 1.0223(8) 0.9876(9) 0.0413(9)
H20 H 1.0602 1.0471 0.1134
C32 C 0.7401(10) 0.4084(7) 0.7699(10)
C33 C 0.6859(9) 0.4658(8) 0.6169(8)
H21 H 0.6252 0.4877 0.6352
C34 C 0.6517(9) 1.0965(8) -0.1570(10)
H22 H 0.6688 1.0452 -0.2077
C35 C 1.0368(9) 0.7526(9) 0.1133(10)
H23 H 1.0552 0.7436 0.1775
C36 C 0.8446(8) 0.3867(8) 0.6428(9)
H24 H 0.8935 0.3567 0.6810
C37 C 0.7888(10) -0.0685(8) 0.2621(10)
C38 C 0.7060(10) 0.4792(9) 0.5334(10)
H25 H 0.6598 0.5119 0.4966
C39 C 0.9060(10) 0.1252(9) 0.2920(10)
H26 H 0.9738 0.1039 0.2911
C40 C 1.0409(8) 0.8529(8) 0.1205(10)
H27 H 1.0599 0.9104 0.1893
N1A N 0.9935(7) 1.3391(7) -0.0148(8)
C1A C 1.0156(9) 1.3177(8) 0.0727(9)
H3A H 1.0324 1.3761 0.1401
C16A C 1.0155(9) 1.2154(9) 0.0707(10)
H10A H 1.0375 1.2080 0.1359
C28A C 0.9816(8) 1.1232(7) -0.0314(10)
C31A C 0.9777(8) 1.0124(9) -0.0413(9)
H20A H 0.9398 0.9529 -0.1134
C35A C 0.9632(9) 1.2474(9) -0.1133(10)
H23A H 0.9448 1.2564 -0.1775
C40A C 0.9591(8) 1.1471(8) -0.1205(10)
H27A H 0.9401 1.0896 -0.1893
Co2A Co 1.38483(12) 0.57694(11) 0.09812(12)
N2A N 1.3832(6) -0.2697(6) 0.0933(7)
N3A N 1.3856(7) 0.4191(7) 0.0980(7)
O1A O 1.0941(6) 0.4969(5) -0.1015(6)
O2A O 1.5729(5) 0.6324(6) 0.1399(6)
H1A H 1.6142 0.6525 0.2065
O3A O 1.1201(6) 0.2734(5) -0.2672(6)
H2A H 1.1353 0.2192 -0.2625
O4A O 1.3770(6) 0.6164(5) -0.7548(6)
O5A O 1.1115(6) 1.0888(5) -0.2734(7)
C2A C 1.2054(8) 0.5548(7) -0.5012(9)
C3A C 1.1887(7) 0.5373(7) -0.4104(8)
O6A O 1.3182(7) 1.1409(6) -0.2305(7)
C4A C 1.3586(9) -0.1898(8) 0.1654(9)
H4A H 1.3487 -0.2009 0.2230
O7A O 1.2867(6) 0.4929(5) -0.0678(6)
O8A O 1.1744(6) 0.5780(6) -0.8548(6)
C5A C 1.1685(7) 0.5960(7) -0.2386(8)
H5A H 1.1619 0.6502 -0.1816
C6A C 1.3757(9) 0.2220(9) 0.1251(10)
C7A C 1.1684(7) 0.4951(8) -0.2349(9)
O9A O 1.1795(7) 0.2300(6) -0.4034(7)
C8A C 1.2972(9) 0.2191(8) 0.0285(9)
H6A H 1.2374 0.1495 -0.0309
C9A C 1.1837(8) 0.4364(8) -0.4074(8)
H7A H 1.1897 0.3815 -0.4643
C10A C 1.1779(8) 0.6196(8) -0.3237(8)
C11A C 1.3041(9) 0.3158(8) 0.0169(9)
H8A H 1.2493 0.3089 -0.0508
C12A C 1.3635(9) -0.0777(8) 0.0711(10)
C13A C 1.1823(8) 0.7309(7) -0.3150(8)
C14A C 1.2047(8) 0.9521(8) -0.2792(9)
C15A C 1.3578(9) 0.0230(9) 0.0593(10)
H9A H 1.3398 0.0179 -0.0110
C17A C 1.2436(9) 0.5812(8) -0.6758(9)
C18A C 1.1376(8) 0.6029(8) -0.5571(8)
H11A H 1.0799 0.6280 -0.5363
C19A C 1.4027(8) -0.2476(8) 0.0168(8)
H12A H 1.4256 -0.2974 -0.0292
C20A C 1.3755(8) 0.1211(8) 0.1377(10)
H13A H 1.3890 0.1256 0.2072
C21A C 1.1555(9) 0.2944(8) -0.3363(9)
C22A C 1.0871(9) 0.7671(8) -0.3060(9)
H14A H 1.0167 0.7187 -0.3092
C23A C 1.4644(9) 0.4230(9) 0.1936(10)
H15A H 1.5223 0.4937 0.2523
C24A C 1.2986(8) 0.9153(8) -0.2889(10)
H16A H 1.3693 0.9637 -0.2853
C25A C 1.1812(9) 0.4907(8) -0.1296(9)
C26A C 1.1702(8) 0.4115(7) -0.3231(8)
C27A C 1.2910(8) 0.8090(8) -0.3038(9)
H17A H 1.3583 0.7877 -0.3066
C29A C 1.4643(10) 0.3293(9) 0.2094(10)
H18A H 1.5229 0.3373 0.2760
C30A C 1.3919(8) -0.1563(8) -0.0008(9)
H19A H 1.4031 -0.1474 -0.0589
C32A C 1.2599(10) 0.5916(7) -0.7699(10)
C33A C 1.3141(9) 0.5342(8) -0.6169(8)
H21A H 1.3748 0.5123 -0.6352
C34A C 1.3483(9) -0.0965(8) 0.1570(10)
H22A H 1.3312 -0.0452 0.2077
C36A C 1.1554(8) 0.6133(8) -0.6428(9)
H24A H 1.1065 0.6433 -0.6810
C37A C 1.2112(10) 1.0685(8) -0.2621(10)
C38A C 1.2940(10) 0.5208(9) -0.5334(10)
H25A H 1.3402 0.4881 -0.4966
C39A C 1.0940(10) 0.8748(9) -0.2920(10)
H26A H 1.0262 0.8961 -0.2911
Co1_2 Co 1.0000 0.5000 -1.0000
Co1_3 Co 1.0000 0.5000 1.0000
Co1_4 Co 1.0000 1.5000 0.0000
Co2_2 Co 0.61517(12) 0.42306(11) 0.90188(12)
Co2_3 Co 0.61517(12) 1.42306(11) -0.09812(12)
Co2A_2 Co 1.38483(12) -0.42306(11) 0.09812(12)
Co2A_3 Co 1.38483(12) 0.57694(11) -0.90188(12)
N1A_2 N 0.9935(7) 0.3391(7) -0.0148(8)
N2_2 N 0.6168(6) 0.2697(6) -0.0933(7)
N2A_2 N 1.3832(6) 0.7303(6) 0.0933(7)
O4_2 O 0.6230(6) 0.3836(5) -0.2452(6)
O4A_2 O 1.3770(6) 0.6164(5) 0.2452(6)
O8_2 O 0.8256(6) 0.4220(6) -0.1452(6)
O8A_2 O 1.1744(6) 0.5780(6) 0.1452(6)
loop_
_geom_bond_atom_site_label_1
_geom_bond_atom_site_label_2
_geom_bond_site_symmetry_1
_geom_bond_site_symmetry_2
Co1 N1 1_555 1_555
Co2 N3 1_555 1_555
N1 C1 1_555 1_555
N2 C4 1_555 1_555
N3 C11 1_555 1_555
O1 Co1 1_555 1_555
O2 Co2 1_555 1_555
H1 O2 1_555 1_555
O3 H2 1_555 1_555
O4 C32 1_555 1_555
O5 C37 1_555 1_555
C1 H3 1_555 1_555
C2 C3 1_555 1_555
C3 C9 1_555 1_555
O6 C37 1_555 1_555
C4 H4 1_555 1_555
O7 Co2 1_555 1_555
O8 C32 1_555 1_555
C5 H5 1_555 1_555
C6 C8 1_555 1_555
C7 C5 1_555 1_555
O9 C21 1_555 1_555
C8 H6 1_555 1_555
C9 H7 1_555 1_555
C10 C3 1_555 1_555
C11 C8 1_555 1_555
H8 C11 1_555 1_555
C12 C15 1_555 1_555
C13 C10 1_555 1_555
C14 C24 1_555 1_555
C15 H9 1_555 1_555
C16 C1 1_555 1_555
H10 C16 1_555 1_555
C17 C32 1_555 1_555
C18 C2 1_555 1_555
H11 C18 1_555 1_555
C19 N2 1_555 1_555
H12 C19 1_555 1_555
C20 C6 1_555 1_555
H13 C20 1_555 1_555
C21 O3 1_555 1_555
C22 C13 1_555 1_555
H14 C22 1_555 1_555
C23 N3 1_555 1_555
H15 C23 1_555 1_555
C24 H16 1_555 1_555
C25 O1 1_555 1_555
C26 C7 1_555 1_555
C27 C13 1_555 1_555
H17 C27 1_555 1_555
C28 C16 1_555 1_555
C29 C6 1_555 1_555
H18 C29 1_555 1_555
C30 C12 1_555 1_555
H19 C30 1_555 1_555
C31 C28 1_555 1_555
H20 C31 1_555 1_555
C33 C17 1_555 1_555
H21 C33 1_555 1_555
C34 C4 1_555 1_555
H22 C34 1_555 1_555
C35 N1 1_555 1_555
H23 C35 1_555 1_555
C36 C17 1_555 1_555
H24 C36 1_555 1_555
C37 C14 1_555 1_555
C38 C2 1_555 1_555
H25 C38 1_555 1_555
C39 C14 1_555 1_555
H26 C39 1_555 1_555
C40 C28 1_555 1_555
H27 C40 1_555 1_555
N1A C1A 1_555 1_555
C1A H3A 1_555 1_555
C16A C1A 1_555 1_555
H10A C16A 1_555 1_555
C28A C16A 1_555 1_555
C31A C31 1_555 1_555
H20A C31A 1_555 1_555
C35A N1A 1_555 1_555
H23A C35A 1_555 1_555
C40A C28A 1_555 1_555
H27A C40A 1_555 1_555
Co2A N3A 1_555 1_555
N2A C4A 1_555 1_555
N3A C11A 1_555 1_555
O1A Co1 1_555 1_555
O2A Co2A 1_555 1_555
H1A O2A 1_555 1_555
O3A H2A 1_555 1_555
O4A C32A 1_555 1_555
O5A C37A 1_555 1_555
C2A C3A 1_555 1_555
C3A C9A 1_555 1_555
O6A C37A 1_555 1_555
C4A H4A 1_555 1_555
O7A Co2A 1_555 1_555
O8A C32A 1_555 1_555
C5A H5A 1_555 1_555
C6A C8A 1_555 1_555
C7A C5A 1_555 1_555
O9A C21A 1_555 1_555
C8A H6A 1_555 1_555
C9A H7A 1_555 1_555
C10A C3A 1_555 1_555
C11A C8A 1_555 1_555
H8A C11A 1_555 1_555
C12A C15A 1_555 1_555
C13A C10A 1_555 1_555
C14A C24A 1_555 1_555
C15A H9A 1_555 1_555
C17A C32A 1_555 1_555
C18A C2A 1_555 1_555
H11A C18A 1_555 1_555
C19A N2A 1_555 1_555
H12A C19A 1_555 1_555
C20A C6A 1_555 1_555
H13A C20A 1_555 1_555
C21A O3A 1_555 1_555
C22A C13A 1_555 1_555
H14A C22A 1_555 1_555
C23A N3A 1_555 1_555
H15A C23A 1_555 1_555
C24A H16A 1_555 1_555
C25A O1A 1_555 1_555
C26A C7A 1_555 1_555
C27A C13A 1_555 1_555
H17A C27A 1_555 1_555
C29A C6A 1_555 1_555
H18A C29A 1_555 1_555
C30A C12A 1_555 1_555
H19A C30A 1_555 1_555
C33A C17A 1_555 1_555
H21A C33A 1_555 1_555
C34A C4A 1_555 1_555
H22A C34A 1_555 1_555
C36A C17A 1_555 1_555
H24A C36A 1_555 1_555
C37A C14A 1_555 1_555
C38A C2A 1_555 1_555
H25A C38A 1_555 1_555
C39A C14A 1_555 1_555
H26A C39A 1_555 1_555
Co1_2 O8A 1_555 1_555
Co1_3 O8 1_555 1_555
Co1_4 N1A 1_555 1_555
Co2_2 O4 1_555 1_555
Co2_3 N2 1_555 1_555
Co2A_2 N2A 1_555 1_555
Co2A_3 O4A 1_555 1_555
N1A_2 Co1 1_555 1_555
N2_2 Co2 1_555 1_555
N2A_2 Co2A 1_555 1_555
O4_2 Co2 1_555 1_555
O4A_2 Co2A 1_555 1_555
O8_2 Co1 1_555 1_555
O8A_2 Co1 1_555 1_555
O7 C25 1_555 1_555
C5 C10 1_555 1_555
C7 C25 1_555 1_555
C9 C26 1_555 1_555
C12 C34 1_555 1_555
C15 C20 1_555 1_555
C18 C36 1_555 1_555
C19 C30 1_555 1_555
C21 C26 1_555 1_555
C22 C39 1_555 1_555
C23 C29 1_555 1_555
C24 C27 1_555 1_555
C33 C38 1_555 1_555
C35 C40 1_555 1_555
C28A C31A 1_555 1_555
C35A C40A 1_555 1_555
O7A C25A 1_555 1_555
C5A C10A 1_555 1_555
C7A C25A 1_555 1_555
C9A C26A 1_555 1_555
C12A C34A 1_555 1_555
C15A C20A 1_555 1_555
C18A C36A 1_555 1_555
C19A C30A 1_555 1_555
C21A C26A 1_555 1_555
C22A C39A 1_555 1_555
C23A C29A 1_555 1_555
C24A C27A 1_555 1_555
C33A C38A 1_555 1_555

#END
