
#######################################################################
#
#                 Cambridge Crystallographic Data Centre
#                                CCDC 
#
#######################################################################
#
# If this CIF has been generated from an entry in the Cambridge 
# Structural Database, then it will include bibliographic, chemical, 
# crystal, experimental, refinement or atomic coordinate data resulting 
# from the CCDC's data processing and validation procedures.
#
#######################################################################

data_CIFLAG
_symmetry_cell_setting           orthorhombic
_symmetry_space_group_name_H-M   'P b c m'
_symmetry_Int_Tables_number      57
_space_group_name_Hall           '-P 2c 2b'
loop_
_symmetry_equiv_pos_site_id
_symmetry_equiv_pos_as_xyz
1 x,y,z
2 -x,-y,1/2+z
3 x,1/2-y,-z
4 -x,1/2+y,1/2-z
5 -x,-y,-z
6 x,y,1/2-z
7 -x,1/2+y,z
8 x,1/2-y,1/2+z
_cell_length_a                   8.8721(16)
_cell_length_b                   29.118(5)
_cell_length_c                   24.202(4)
_cell_angle_alpha                90
_cell_angle_beta                 90
_cell_angle_gamma                90
_cell_volume                     6252.29
loop_
_atom_site_label
_atom_site_type_symbol
_atom_site_fract_x
_atom_site_fract_y
_atom_site_fract_z
Co1 Co 0.90863(12) 0.77176(3) 0.2500
Co2 Co 1.25309(12) 0.83194(3) 0.2500
O1 O 0.5564(6) 1.05823(14) -0.15624(18)
O2 O 0.5894(6) 1.11695(14) -0.10118(17)
H1 H 0.5747 1.1218 -0.0682
O3 O 0.6121(6) 1.13152(14) -0.0046(2)
H2 H 0.6861 1.1481 -0.0007
O4 O 0.6280(5) 1.09202(14) 0.07359(18)
O5 O 1.1180(5) 0.85556(14) 0.18830(17)
O6 O 0.9021(5) 0.81775(15) 0.18747(18)
O7 O 0.8864(5) 0.77927(14) -0.19146(18)
O8 O 1.1221(5) 0.79604(15) -0.16952(19)
O9 O 0.6627(7) 0.7745(3) 0.2500
H3 H 0.6298 0.7574 0.2260
O10 O 1.1613(6) 0.76466(16) 0.2500
O11 O 1.3604(9) 0.8962(2) 0.2500
H4 H 1.3693 0.9053 0.2181
O12 O 1.4046(5) 0.81305(15) 0.18464(18)
H5 H 1.4090 0.8339 0.1620
C1 C 0.9911(8) 0.8482(2) 0.1700(2)
C2 C 0.9337(6) 0.87848(18) 0.1248(2)
C3 C 0.8124(7) 0.86583(19) 0.0920(2)
H6 H 0.7638 0.8380 0.0980
C4 C 0.7642(7) 0.8947(2) 0.0506(2)
H7 H 0.6876 0.8850 0.0271
C5 C 0.8273(6) 0.93817(17) 0.0429(2)
C6 C 0.9488(7) 0.94989(19) 0.0759(2)
H8 H 0.9951 0.9783 0.0713
C7 C 1.0018(6) 0.92009(19) 0.1153(2)
H9 H 1.0858 0.9283 0.1361
C8 C 0.7650(6) 0.97173(17) 0.0030(2)
C9 C 0.7515(6) 0.96385(16) -0.0535(2)
C10 C 0.6865(6) 0.99769(17) -0.0861(2)
H10 H 0.6705 0.9914 -0.1233
C11 C 0.6439(6) 1.04049(18) -0.0659(2)
C12 C 0.6628(6) 1.04912(17) -0.0089(2)
C13 C 0.7195(6) 1.01406(18) 0.0232(2)
H11 H 0.7279 1.0192 0.0610
C14 C 0.5903(7) 1.0732(2) -0.1102(3)
C15 C 0.6321(7) 1.0930(2) 0.0230(3)
C16 C 0.7235(7) 0.8991(2) -0.1213(2)
H12 H 0.6269 0.9094 -0.1297
C17 C 0.7829(7) 0.8610(2) -0.1484(2)
H13 H 0.7246 0.8460 -0.1748
C18 C 0.9245(6) 0.84482(19) -0.1372(2)
C19 C 0.9826(7) 0.8041(2) -0.1690(3)
C20 C 1.0111(7) 0.8683(2) -0.0982(2)
H14 H 1.1089 0.8585 -0.0911
C21 C 0.9548(6) 0.90558(19) -0.0701(2)
H15 H 1.0136 0.9200 -0.0434
C22 C 0.8109(6) 0.92194(18) -0.0812(2)
H3E H 0.6298 0.7574 0.2740
H4E H 1.3693 0.9053 0.2819
O1B O 0.5564(6) 0.44177(14) 0.15624(18)
O2B O 0.5894(6) 0.38305(14) 0.10118(17)
H1B H 0.5747 0.3782 0.0682
O3B O 0.6121(6) 0.36848(14) 0.0046(2)
H2B H 0.6861 0.3519 0.0007
O4B O 0.6280(5) 0.40798(14) -0.07359(18)
O5B O 1.1180(5) 0.64444(14) -0.18830(17)
O6B O 0.9021(5) 0.68225(15) -0.18747(18)
O7B O 0.8864(5) 0.72073(14) 0.19146(18)
O8B O 1.1221(5) 0.70396(15) 0.16952(19)
C1B C 0.9911(8) 0.6518(2) -0.1700(2)
C2B C 0.9337(6) 0.62152(18) -0.1248(2)
C3B C 0.8124(7) 0.63417(19) -0.0920(2)
H6B H 0.7638 0.6620 -0.0980
C4B C 0.7642(7) 0.6053(2) -0.0506(2)
H7B H 0.6876 0.6150 -0.0271
C5B C 0.8273(6) 0.56183(17) -0.0429(2)
C6B C 0.9488(7) 0.55011(19) -0.0759(2)
H8B H 0.9951 0.5217 -0.0713
C7B C 1.0018(6) 0.57991(19) -0.1153(2)
H9B H 1.0858 0.5717 -0.1361
C8B C 0.7650(6) 0.52827(17) -0.0030(2)
C9B C 0.7515(6) 0.53615(16) 0.0535(2)
C10B C 0.6865(6) 0.50231(17) 0.0861(2)
H10B H 0.6705 0.5086 0.1233
C11B C 0.6439(6) 0.45951(18) 0.0659(2)
C12B C 0.6628(6) 0.45088(17) 0.0089(2)
C13B C 0.7195(6) 0.48594(18) -0.0232(2)
H11B H 0.7279 0.4808 -0.0610
C14B C 0.5903(7) 0.4268(2) 0.1102(3)
C15B C 0.6321(7) 0.4070(2) -0.0230(3)
C16B C 0.7235(7) 0.6009(2) 0.1213(2)
H12B H 0.6269 0.5906 0.1297
C17B C 0.7829(7) 0.6390(2) 0.1484(2)
H13B H 0.7246 0.6540 0.1748
C18B C 0.9245(6) 0.65518(19) 0.1372(2)
C19B C 0.9826(7) 0.6959(2) 0.1690(3)
C20B C 1.0111(7) 0.6317(2) 0.0982(2)
H14B H 1.1089 0.6415 0.0911
C21B C 0.9548(6) 0.59442(19) 0.0701(2)
H15B H 1.0136 0.5800 0.0434
C22B C 0.8109(6) 0.57806(18) 0.0812(2)
O12E O 1.4046(5) 0.81305(15) 0.31536(18)
H5E H 1.4090 0.8339 0.3380
Co1B Co 0.90863(12) 0.72824(3) -0.2500
Co2B Co 1.25309(12) 0.66806(3) -0.2500
O5E O 1.1180(5) 0.85556(14) 0.31170(17)
O6E O 0.9021(5) 0.81775(15) 0.31253(18)
O7G O 0.8864(5) 0.72073(14) 0.30854(18)
loop_
_geom_bond_atom_site_label_1
_geom_bond_atom_site_label_2
_geom_bond_site_symmetry_1
_geom_bond_site_symmetry_2
Co1 O6 1_555 1_555
Co2 O5 1_555 1_555
O1 C14 1_555 1_555
O2 H1 1_555 1_555
O3 H2 1_555 1_555
O4 C15 1_555 1_555
O5 C1 1_555 1_555
O6 C1 1_555 1_555
O7 C19 1_555 1_555
O8 C19 1_555 1_555
O9 Co1 1_555 1_555
H3 O9 1_555 1_555
O10 Co1 1_555 1_555
O11 Co2 1_555 1_555
H4 O11 1_555 1_555
O12 Co2 1_555 1_555
H5 O12 1_555 1_555
C1 C2 1_555 1_555
C2 C3 1_555 1_555
C3 H6 1_555 1_555
C4 C3 1_555 1_555
H7 C4 1_555 1_555
C5 C4 1_555 1_555
C6 C5 1_555 1_555
H8 C6 1_555 1_555
C7 C2 1_555 1_555
H9 C7 1_555 1_555
C8 C5 1_555 1_555
C9 C8 1_555 1_555
C10 C9 1_555 1_555
H10 C10 1_555 1_555
C11 C10 1_555 1_555
C12 C11 1_555 1_555
C13 C8 1_555 1_555
H11 C13 1_555 1_555
C14 O2 1_555 1_555
C15 O3 1_555 1_555
C16 H12 1_555 1_555
C17 C16 1_555 1_555
H13 C17 1_555 1_555
C18 C17 1_555 1_555
C19 C18 1_555 1_555
C20 C18 1_555 1_555
H14 C20 1_555 1_555
C21 C20 1_555 1_555
H15 C21 1_555 1_555
C22 C9 1_555 1_555
H3E O9 1_555 1_555
H4E O11 1_555 1_555
O1B C14B 1_555 1_555
O2B H1B 1_555 1_555
O3B H2B 1_555 1_555
O4B C15B 1_555 1_555
O5B C1B 1_555 1_555
O6B C1B 1_555 1_555
O7B Co1 1_555 1_555
O8B C19B 1_555 1_555
C1B C2B 1_555 1_555
C2B C3B 1_555 1_555
C3B H6B 1_555 1_555
C4B C3B 1_555 1_555
H7B C4B 1_555 1_555
C5B C4B 1_555 1_555
C6B C5B 1_555 1_555
H8B C6B 1_555 1_555
C7B C2B 1_555 1_555
H9B C7B 1_555 1_555
C8B C5B 1_555 1_555
C9B C8B 1_555 1_555
C10B C9B 1_555 1_555
H10B C10B 1_555 1_555
C11B C10B 1_555 1_555
C12B C11B 1_555 1_555
C13B C8B 1_555 1_555
H11B C13B 1_555 1_555
C14B O2B 1_555 1_555
C15B O3B 1_555 1_555
C16B H12B 1_555 1_555
C17B C16B 1_555 1_555
H13B C17B 1_555 1_555
C18B C17B 1_555 1_555
C19B O7B 1_555 1_555
C20B C18B 1_555 1_555
H14B C20B 1_555 1_555
C21B C20B 1_555 1_555
H15B C21B 1_555 1_555
C22B C9B 1_555 1_555
O12E Co2 1_555 1_555
H5E O12E 1_555 1_555
Co1B O7 1_555 1_555
Co2B O5B 1_555 1_555
O5E Co2 1_555 1_555
O6E Co1 1_555 1_555
O7G Co1 1_555 1_555
Co2 O10 1_555 1_555
C6 C7 1_555 1_555
C11 C14 1_555 1_555
C12 C13 1_555 1_555
C12 C15 1_555 1_555
C16 C22 1_555 1_555
C21 C22 1_555 1_555
O6B Co1B 1_555 1_555
C6B C7B 1_555 1_555
C11B C14B 1_555 1_555
C12B C13B 1_555 1_555
C12B C15B 1_555 1_555
C16B C22B 1_555 1_555
C18B C19B 1_555 1_555
C21B C22B 1_555 1_555

#END
