
#######################################################################
#
#                 Cambridge Crystallographic Data Centre
#                                CCDC 
#
#######################################################################
#
# If this CIF has been generated from an entry in the Cambridge 
# Structural Database, then it will include bibliographic, chemical, 
# crystal, experimental, refinement or atomic coordinate data resulting 
# from the CCDC's data processing and validation procedures.
#
#######################################################################

data_CIFMEL
_symmetry_cell_setting           cubic
_symmetry_space_group_name_H-M   'P 21 3'
_symmetry_Int_Tables_number      198
_space_group_name_Hall           'P 2ac 2ab 3'
loop_
_symmetry_equiv_pos_site_id
_symmetry_equiv_pos_as_xyz
1 x,y,z
2 1/2-x,-y,1/2+z
3 -x,1/2+y,1/2-z
4 1/2+x,1/2-y,-z
5 z,x,y
6 1/2+z,1/2-x,-y
7 1/2-z,-x,1/2+y
8 -z,1/2+x,1/2-y
9 y,z,x
10 -y,1/2+z,1/2-x
11 1/2+y,1/2-z,-x
12 1/2-y,-z,1/2+x
_cell_length_a                   14.6518(17)
_cell_length_b                   14.6518(17)
_cell_length_c                   14.6518(17)
_cell_angle_alpha                90
_cell_angle_beta                 90
_cell_angle_gamma                90
_cell_volume                     3145.38
loop_
_atom_site_label
_atom_site_type_symbol
_atom_site_fract_x
_atom_site_fract_y
_atom_site_fract_z
Co1 Co 0.04424(10) 0.45576(10) 0.54424(10)
Co2 Co 0.18367(11) 0.31633(11) 0.68367(11)
Cl1 Cl -0.0379(8) 0.5379(8) 0.4621(8)
O1 O 0.1805(7) 0.4475(7) 0.7097(7)
O2 O 0.0630(7) 0.5312(6) 0.6511(6)
C1 C 0.1308(14) 0.5140(11) 0.7073(9)
O3 O 0.1657(12) 0.3049(12) 0.8288(13)
C2 C 0.2059(8) 0.5773(8) 0.8439(10)
H1 H 0.2478 0.5301 0.8368
C3 C 0.1367(11) 0.5849(9) 0.7836(8)
C4 C 0.208(2) 0.340(2) 0.8882(19)
H2 H 0.2648 0.3661 0.8778
N1 N 0.169(2) 0.3414(18) 0.9706(17)
C5 C 0.240(3) 0.345(3) 1.039(3)
H3 H 0.2550 0.4090 1.0491
H4 H 0.2145 0.3223 1.0959
C6 C 0.323(3) 0.298(4) 1.024(4)
H5 H 0.3588 0.2994 1.0786
H6 H 0.3556 0.3274 0.9754
H7 H 0.3097 0.2362 1.0076
C7 C 0.094(3) 0.282(4) 0.996(4)
H8 H 0.0813 0.2934 1.0598
H9 H 0.0413 0.3020 0.9616
C8 C 0.103(10) 0.185(4) 0.984(4)
H10 H 0.1172 0.1723 0.9215
H11 H 0.0460 0.1567 0.9998
H12 H 0.1503 0.1627 1.0228
O1G O 0.2903(7) 0.6805(7) 1.0525(7)
O2G O 0.3489(6) 0.5630(7) 0.9688(6)
C1G C 0.2927(9) 0.6308(14) 0.9860(11)
C2G C 0.1561(10) 0.7059(8) 0.9227(8)
H1G H 0.1632 0.7478 0.9699
C3G C 0.2164(8) 0.6367(11) 0.9151(9)
O1J O -0.0525(7) 0.7903(7) 0.8195(7)
O2J O 0.0312(6) 0.8489(6) 0.9370(7)
C1J C 0.0140(11) 0.7927(9) 0.8692(14)
C2J C 0.0773(8) 0.6561(10) 0.7941(8)
H1J H 0.0301 0.6632 0.7522
C3J C 0.0849(9) 0.7164(8) 0.8633(11)
O3E O 0.3288(13) 0.3343(12) 0.6951(12)
C4E C 0.3882(19) 0.292(2) 0.660(2)
H2E H 0.3778 0.2352 0.6339
N1E N 0.4706(17) 0.331(2) 0.6586(18)
C5E C 0.539(3) 0.260(3) 0.655(3)
H3E H 0.5491 0.2450 0.5910
H4E H 0.5959 0.2855 0.6777
C6E C 0.524(4) 0.177(3) 0.702(4)
H5E H 0.5786 0.1412 0.7006
H6E H 0.4754 0.1444 0.6726
H7E H 0.5076 0.1903 0.7638
C7E C 0.496(4) 0.406(3) 0.718(4)
H8E H 0.5598 0.4187 0.7066
H9E H 0.4616 0.4587 0.6980
C8E C 0.484(4) 0.397(10) 0.815(4)
H10E H 0.4215 0.3828 0.8277
H11E H 0.4998 0.4540 0.8433
H12E H 0.5228 0.3497 0.8373
O3K O 0.1951(12) 0.1712(13) 0.6657(12)
C4K C 0.160(2) 0.1118(19) 0.708(2)
H2K H 0.1339 0.1222 0.7648
N1K N 0.1586(18) 0.0294(17) 0.669(2)
C5K C 0.155(3) -0.039(3) 0.740(3)
H3K H 0.0910 -0.0491 0.7550
H4K H 0.1777 -0.0959 0.7145
C6K C 0.202(4) -0.024(4) 0.823(3)
H5K H 0.2006 -0.0786 0.8588
H6K H 0.1726 0.0246 0.8556
H7K H 0.2638 -0.0076 0.8097
C7K C 0.218(4) 0.004(4) 0.594(3)
H8K H 0.2066 -0.0598 0.5813
H9K H 0.1980 0.0384 0.5413
C8K C 0.315(4) 0.016(4) 0.603(10)
H10K H 0.3277 0.0785 0.6172
H11K H 0.3433 0.0002 0.5460
H12K H 0.3373 -0.0228 0.6503
Co1A Co 0.45576(10) 0.54424(10) 1.04424(10)
Co1B Co -0.04424(10) 0.95576(10) 0.95576(10)
Co2A Co 0.31633(11) 0.68367(11) 1.18367(11)
Co2B Co -0.18367(11) 0.81633(11) 0.81633(11)
O1E O 0.2097(7) 0.3195(7) 0.5525(7)
O1K O 0.0525(7) 0.2903(7) 0.6805(7)
O2E O 0.1511(6) 0.4370(7) 0.4688(6)
O2K O -0.0312(6) 0.3489(6) 0.5630(7)
loop_
_geom_bond_atom_site_label_1
_geom_bond_atom_site_label_2
_geom_bond_site_symmetry_1
_geom_bond_site_symmetry_2
Co1 Cl1 1_555 1_555
Co2 O1 1_555 1_555
O1 C1 1_555 1_555
O2 Co1 1_555 1_555
C1 O2 1_555 1_555
O3 Co2 1_555 1_555
C2 H1 1_555 1_555
C3 C1 1_555 1_555
C4 O3 1_555 1_555
H2 C4 1_555 1_555
N1 C4 1_555 1_555
C5 N1 1_555 1_555
H3 C5 1_555 1_555
H4 C5 1_555 1_555
C6 C5 1_555 1_555
H5 C6 1_555 1_555
H6 C6 1_555 1_555
H7 C6 1_555 1_555
C7 N1 1_555 1_555
H8 C7 1_555 1_555
H9 C7 1_555 1_555
C8 C7 1_555 1_555
H10 C8 1_555 1_555
H11 C8 1_555 1_555
H12 C8 1_555 1_555
O1G C1G 1_555 1_555
O2G C1G 1_555 1_555
C1G C3G 1_555 1_555
C2G H1G 1_555 1_555
C3G C2 1_555 1_555
O1J C1J 1_555 1_555
O2J C1J 1_555 1_555
C1J C3J 1_555 1_555
C2J C3 1_555 1_555
H1J C2J 1_555 1_555
C3J C2G 1_555 1_555
O3E Co2 1_555 1_555
C4E O3E 1_555 1_555
H2E C4E 1_555 1_555
N1E C4E 1_555 1_555
C5E N1E 1_555 1_555
H3E C5E 1_555 1_555
H4E C5E 1_555 1_555
C6E C5E 1_555 1_555
H5E C6E 1_555 1_555
H6E C6E 1_555 1_555
H7E C6E 1_555 1_555
C7E N1E 1_555 1_555
H8E C7E 1_555 1_555
H9E C7E 1_555 1_555
C8E C7E 1_555 1_555
H10E C8E 1_555 1_555
H11E C8E 1_555 1_555
H12E C8E 1_555 1_555
O3K Co2 1_555 1_555
C4K O3K 1_555 1_555
H2K C4K 1_555 1_555
N1K C4K 1_555 1_555
C5K N1K 1_555 1_555
H3K C5K 1_555 1_555
H4K C5K 1_555 1_555
C6K C5K 1_555 1_555
H5K C6K 1_555 1_555
H6K C6K 1_555 1_555
H7K C6K 1_555 1_555
C7K N1K 1_555 1_555
H8K C7K 1_555 1_555
H9K C7K 1_555 1_555
C8K C7K 1_555 1_555
H10K C8K 1_555 1_555
H11K C8K 1_555 1_555
H12K C8K 1_555 1_555
Co1A O2G 1_555 1_555
Co1B O2J 1_555 1_555
Co2A O1G 1_555 1_555
Co2B O1J 1_555 1_555
O1E Co2 1_555 1_555
O1K Co2 1_555 1_555
O2E Co1 1_555 1_555
O2K Co1 1_555 1_555
C2 C3 1_555 1_555
C2G C3G 1_555 1_555
C2J C3J 1_555 1_555

#END
