
#######################################################################
#
#                 Cambridge Crystallographic Data Centre
#                                CCDC 
#
#######################################################################
#
# If this CIF has been generated from an entry in the Cambridge 
# Structural Database, then it will include bibliographic, chemical, 
# crystal, experimental, refinement or atomic coordinate data resulting 
# from the CCDC's data processing and validation procedures.
#
#######################################################################

data_CIFSAN
_symmetry_cell_setting           triclinic
_symmetry_space_group_name_H-M   'P -1'
_symmetry_Int_Tables_number      2
_space_group_name_Hall           '-P 1'
loop_
_symmetry_equiv_pos_site_id
_symmetry_equiv_pos_as_xyz
1 x,y,z
2 -x,-y,-z
_cell_length_a                   12.3805(9)
_cell_length_b                   13.1086(9)
_cell_length_c                   13.7188(9)
_cell_angle_alpha                110.401(2)
_cell_angle_beta                 96.634(3)
_cell_angle_gamma                112.455(2)
_cell_volume                     1847.39
loop_
_atom_site_label
_atom_site_type_symbol
_atom_site_fract_x
_atom_site_fract_y
_atom_site_fract_z
Zn1 Zn 0.19615(8) 0.83400(7) 0.49386(6)
Zn2 Zn 0.0000 1.0000 0.5000
O1 O -0.0856(5) 0.8087(4) 0.4254(4)
O2 O 0.0236(6) 0.7060(4) 0.4239(4)
O3 O 0.1798(6) 1.0056(4) 0.5317(4)
O4 O 0.3564(5) 1.0102(5) 0.5774(4)
N1 N 0.2186(8) 0.8355(6) 0.3388(6)
N2 N 0.1815(7) 0.8365(6) -0.3469(6)
N3 N 0.2851(8) 0.7216(6) 0.4803(7)
N4 N -0.0115(7) 0.9968(6) 0.6539(6)
C1 C 0.3270(10) 0.8931(8) 0.3261(8)
H1 H 0.3959 0.9293 0.3846
C2 C 0.3431(10) 0.9023(9) 0.2318(9)
H2 H 0.4211 0.9429 0.2270
C3 C 0.2434(10) 0.8513(8) 0.1442(8)
C4 C 0.1291(10) 0.7912(8) 0.1562(7)
H3 H 0.0586 0.7565 0.0997
C5 C 0.1222(10) 0.7840(8) 0.2527(8)
H4 H 0.0457 0.7407 0.2587
C6 C 0.2569(10) 0.8622(8) 0.0434(8)
H5 H 0.3337 0.9131 0.0434
C7 C 0.1651(10) 0.8032(8) -0.0501(8)
H6 H 0.0897 0.7486 -0.0509
C8 C 0.1745(9) 0.8179(7) -0.1495(7)
C9 C 0.2706(9) 0.9061(8) -0.1582(7)
H7 H 0.3368 0.9622 -0.0971
C10 C 0.0778(10) 0.7407(8) -0.2435(8)
H8 H 0.0073 0.6811 -0.2421
C11 C 0.0854(10) 0.7518(8) -0.3389(8)
H9 H 0.0203 0.6971 -0.4011
C12 C 0.2717(9) 0.9138(8) -0.2561(7)
H10 H 0.3387 0.9762 -0.2585
C13 C 0.3819(11) 0.7536(8) 0.5556(9)
H11 H 0.4124 0.8293 0.6146
C14 C 0.4410(10) 0.6845(8) 0.5541(8)
H12 H 0.5086 0.7123 0.6114
C15 C 0.4004(11) 0.5740(8) 0.4675(9)
C16 C 0.2985(12) 0.5401(9) 0.3867(10)
H13 H 0.2664 0.4654 0.3262
C17 C 0.2452(11) 0.6140(8) 0.3949(9)
H14 H 0.1780 0.5893 0.3387
C18 C 0.4594(9) 0.4940(8) 0.4608(7)
H15 H 0.4366 0.4285 0.3939
C19 C 0.0822(10) 1.0658(8) 0.7429(8)
H16 H 0.1543 1.1202 0.7383
C20 C 0.0787(10) 1.0616(8) 0.8420(8)
H17 H 0.1485 1.1096 0.9010
C21 C -0.0291(11) 0.9852(8) 0.8530(9)
C22 C -0.1267(11) 0.9154(9) 0.7608(9)
H18 H -0.2013 0.8633 0.7635
C23 C -0.1133(10) 0.9228(8) 0.6659(8)
H19 H -0.1805 0.8724 0.6047
C24 C -0.0426(11) 0.9775(10) 0.9555(7)
H20 H -0.1219 0.9346 0.9562
C25 C -0.0766(9) 0.7117(6) 0.4042(6)
C26 C -0.1919(11) 0.5936(8) 0.3527(11)
H21 H -0.2298 0.6043 0.4229
H22 H -0.2458 0.5894 0.2926
C27 C -0.1752(15) 0.4820(10) 0.332(2)
H23 H -0.1355 0.4687 0.2761
H24 H -0.1268 0.4909 0.3973
H25 H -0.2541 0.4136 0.3092
C28 C 0.2944(11) 1.0659(7) 0.5734(6)
C29 C 0.3558(10) 1.2044(7) 0.6208(9)
H26 H 0.3092 1.2377 0.6287
H27 H 0.3875 1.2135 0.5641
C30 C 0.4588(14) 1.2692(11) 0.7178(13)
H28 H 0.4306 1.2670 0.7797
H29 H 0.5025 1.3525 0.7290
H30 H 0.5119 1.2312 0.7084
N3A N 0.7149(8) 0.2784(6) 0.5197(7)
C13A C 0.6181(11) 0.2464(8) 0.4444(9)
H11A H 0.5876 0.1707 0.3854
C14A C 0.5590(10) 0.3155(8) 0.4459(8)
H12A H 0.4914 0.2877 0.3886
C15A C 0.5996(11) 0.4260(8) 0.5325(9)
C16A C 0.7015(12) 0.4599(9) 0.6133(10)
H13A H 0.7336 0.5346 0.6738
C17A C 0.7548(11) 0.3860(8) 0.6051(9)
H14A H 0.8220 0.4107 0.6613
C18A C 0.5406(9) 0.5060(8) 0.5392(7)
H15A H 0.5634 0.5715 0.6061
N4A N 0.0115(7) 1.0032(6) 1.3461(6)
C19A C -0.0822(10) 0.9342(8) 1.2571(8)
H16A H -0.1543 0.8798 1.2617
C20A C -0.0787(10) 0.9384(8) 1.1580(8)
H17A H -0.1485 0.8904 1.0990
C21A C 0.0291(11) 1.0148(8) 1.1470(9)
C22A C 0.1267(11) 1.0846(9) 1.2392(9)
H18A H 0.2013 1.1367 1.2365
C23A C 0.1133(10) 1.0772(8) 1.3341(8)
H19A H 0.1805 1.1276 1.3953
C24A C 0.0426(11) 1.0225(10) 1.0445(7)
H20A H 0.1219 1.0654 1.0438
Zn1A Zn -0.19615(8) 1.16600(7) 0.50614(6)
O1A O 0.0856(5) 1.1913(4) 0.5746(4)
O2A O -0.0236(6) 1.2940(4) 0.5761(4)
O3A O -0.1798(6) 0.9944(4) 0.4683(4)
O4A O -0.3564(5) 0.9898(5) 0.4226(4)
N1A N -0.2186(8) 1.1645(6) 0.6612(6)
N2A N -0.1815(7) 1.1635(6) 1.3469(6)
C1A C -0.3270(10) 1.1069(8) 0.6739(8)
H1A H -0.3959 1.0707 0.6154
C2A C -0.3431(10) 1.0977(9) 0.7682(9)
H2A H -0.4211 1.0571 0.7730
C3A C -0.2434(10) 1.1487(8) 0.8558(8)
C4A C -0.1291(10) 1.2088(8) 0.8438(7)
H3A H -0.0586 1.2435 0.9003
C5A C -0.1222(10) 1.2160(8) 0.7473(8)
H4A H -0.0457 1.2593 0.7413
C6A C -0.2569(10) 1.1378(8) 0.9566(8)
H5A H -0.3337 1.0869 0.9566
C7A C -0.1651(10) 1.1968(8) 1.0501(8)
H6A H -0.0897 1.2514 1.0509
C8A C -0.1745(9) 1.1821(7) 1.1495(7)
C9A C -0.2706(9) 1.0939(8) 1.1582(7)
H7A H -0.3368 1.0378 1.0971
C10A C -0.0778(10) 1.2593(8) 1.2435(8)
H8A H -0.0073 1.3189 1.2421
C11A C -0.0854(10) 1.2482(8) 1.3389(8)
H9A H -0.0203 1.3029 1.4011
C12A C -0.2717(9) 1.0862(8) 1.2561(7)
H10A H -0.3387 1.0238 1.2585
C25A C 0.0766(9) 1.2883(6) 0.5958(6)
C26A C 0.1919(11) 1.4064(8) 0.6473(11)
H21A H 0.2298 1.3957 0.5771
H22A H 0.2458 1.4106 0.7074
C27A C 0.1752(15) 1.5180(10) 0.668(2)
H23A H 0.1355 1.5313 0.7239
H24A H 0.1268 1.5091 0.6027
H25A H 0.2541 1.5864 0.6908
C28A C -0.2944(11) 0.9341(7) 0.4266(6)
C29A C -0.3558(10) 0.7956(7) 0.3792(9)
H26A H -0.3092 0.7623 0.3713
H27A H -0.3875 0.7865 0.4359
C30A C -0.4588(14) 0.7308(11) 0.2822(13)
H28A H -0.4306 0.7330 0.2203
H29A H -0.5025 0.6475 0.2710
H30A H -0.5119 0.7688 0.2916
Zn1_2 Zn 0.19615(8) 0.83400(7) -0.50614(6)
Zn1A_2 Zn -0.19615(8) 1.16600(7) 1.50614(6)
Zn1A_3 Zn 0.80385(8) 0.16600(7) 0.50614(6)
Zn2_2 Zn 0.0000 1.0000 1.5000
N2_2 N 0.1815(7) 0.8365(6) 0.6531(6)
N2A_2 N -0.1815(7) 1.1635(6) 0.3469(6)
N3A_2 N -0.2851(8) 1.2784(6) 0.5197(7)
N4A_2 N 0.0115(7) 1.0032(6) 0.3461(6)
N5 N 0.1199(9) 0.4379(9) 0.0629(8)
C31 C 0.1879(12) 0.3858(11) 0.0808(9)
H31 H 0.1596 0.3301 0.1105
C32 C 0.2969(11) 0.4086(9) 0.0586(8)
H32 H 0.3393 0.3674 0.0719
C33 C 0.3458(9) 0.4920(8) 0.0160(7)
C34 C 0.2760(11) 0.5451(10) -0.0034(10)
H33 H 0.3020 0.6000 -0.0341
C35 C 0.1650(12) 0.5180(10) 0.0220(12)
H34 H 0.1208 0.5581 0.0098
C36 C 0.4608(9) 0.5207(8) -0.0089(8)
H35 H 0.4818 0.5742 -0.0415
N5A N 0.8801(9) 0.5621(9) -0.0629(8)
C31A C 0.8121(12) 0.6142(11) -0.0808(9)
H31A H 0.8404 0.6699 -0.1105
C32A C 0.7031(11) 0.5914(9) -0.0586(8)
H32A H 0.6607 0.6326 -0.0719
C33A C 0.6542(9) 0.5080(8) -0.0160(7)
C34A C 0.7240(11) 0.4549(10) 0.0034(10)
H33A H 0.6980 0.4000 0.0341
C35A C 0.8350(12) 0.4820(10) -0.0220(12)
H34A H 0.8792 0.4419 -0.0098
C36A C 0.5392(9) 0.4793(8) 0.0089(8)
H35A H 0.5182 0.4258 0.0415
Cl1 Cl 0.4536(4) 0.2215(3) 0.1364(3)
O5 O 0.530(3) 0.212(3) 0.070(3)
O6 O 0.334(3) 0.159(3) 0.067(4)
O7 O 0.495(3) 0.3380(16) 0.2073(18)
O8 O 0.450(4) 0.146(2) 0.190(3)
O9? O 0.548(4) 0.344(3) 0.180(3)
O10? O 0.400(5) 0.189(3) 0.031(2)
O11? O 0.371(3) 0.249(4) 0.188(2)
O12? O 0.496(5) 0.154(4) 0.167(4)
loop_
_geom_bond_atom_site_label_1
_geom_bond_atom_site_label_2
_geom_bond_site_symmetry_1
_geom_bond_site_symmetry_2
Zn1 O2 1_555 1_555
Zn2 O1 1_555 1_555
O1 C25 1_555 1_555
O2 C25 1_555 1_555
O3 Zn1 1_555 1_555
O4 Zn1 1_555 1_555
N1 Zn1 1_555 1_555
N2 C11 1_555 1_555
N3 Zn1 1_555 1_555
N4 Zn2 1_555 1_555
C1 N1 1_555 1_555
H1 C1 1_555 1_555
C2 C1 1_555 1_555
H2 C2 1_555 1_555
C3 C2 1_555 1_555
C4 C3 1_555 1_555
H3 C4 1_555 1_555
C5 N1 1_555 1_555
H4 C5 1_555 1_555
C6 C3 1_555 1_555
H5 C6 1_555 1_555
C7 C6 1_555 1_555
H6 C7 1_555 1_555
C8 C7 1_555 1_555
C9 C8 1_555 1_555
H7 C9 1_555 1_555
C10 C8 1_555 1_555
H8 C10 1_555 1_555
C11 C10 1_555 1_555
H9 C11 1_555 1_555
C12 N2 1_555 1_555
H10 C12 1_555 1_555
C13 N3 1_555 1_555
H11 C13 1_555 1_555
C14 C13 1_555 1_555
H12 C14 1_555 1_555
C15 C14 1_555 1_555
C16 C15 1_555 1_555
H13 C16 1_555 1_555
C17 N3 1_555 1_555
H14 C17 1_555 1_555
C18 C15 1_555 1_555
H15 C18 1_555 1_555
C19 N4 1_555 1_555
H16 C19 1_555 1_555
C20 C19 1_555 1_555
H17 C20 1_555 1_555
C21 C20 1_555 1_555
C22 C21 1_555 1_555
H18 C22 1_555 1_555
C23 N4 1_555 1_555
H19 C23 1_555 1_555
C24 C21 1_555 1_555
H20 C24 1_555 1_555
C25 C26 1_555 1_555
C26 H21 1_555 1_555
H22 C26 1_555 1_555
C27 C26 1_555 1_555
H23 C27 1_555 1_555
H24 C27 1_555 1_555
H25 C27 1_555 1_555
C28 O3 1_555 1_555
C29 C28 1_555 1_555
H26 C29 1_555 1_555
H27 C29 1_555 1_555
C30 C29 1_555 1_555
H28 C30 1_555 1_555
H29 C30 1_555 1_555
H30 C30 1_555 1_555
N5 C31 1_555 1_555
C31 H31 1_555 1_555
C32 C31 1_555 1_555
H32 C32 1_555 1_555
C33 C32 1_555 1_555
C34 C33 1_555 1_555
H33 C34 1_555 1_555
C35 N5 1_555 1_555
H34 C35 1_555 1_555
C36 C33 1_555 1_555
H35 C36 1_555 1_555
Cl1 O5 1_555 1_555
O6 Cl1 1_555 1_555
O7 Cl1 1_555 1_555
O8 Cl1 1_555 1_555
N3A C13A 1_555 1_555
C13A H11A 1_555 1_555
C14A C13A 1_555 1_555
H12A C14A 1_555 1_555
C15A C14A 1_555 1_555
C16A C15A 1_555 1_555
H13A C16A 1_555 1_555
C17A N3A 1_555 1_555
H14A C17A 1_555 1_555
C18A C18 1_555 1_555
H15A C18A 1_555 1_555
N4A C19A 1_555 1_555
C19A H16A 1_555 1_555
C20A C19A 1_555 1_555
H17A C20A 1_555 1_555
C21A C20A 1_555 1_555
C22A C21A 1_555 1_555
H18A C22A 1_555 1_555
C23A N4A 1_555 1_555
H19A C23A 1_555 1_555
C24A C24 1_555 1_555
H20A C24A 1_555 1_555
Zn1A O2A 1_555 1_555
O1A Zn2 1_555 1_555
O2A C25A 1_555 1_555
O3A Zn2 1_555 1_555
O4A Zn1A 1_555 1_555
N1A Zn1A 1_555 1_555
N2A C11A 1_555 1_555
C1A N1A 1_555 1_555
H1A C1A 1_555 1_555
C2A C1A 1_555 1_555
H2A C2A 1_555 1_555
C3A C2A 1_555 1_555
C4A C3A 1_555 1_555
H3A C4A 1_555 1_555
C5A N1A 1_555 1_555
H4A C5A 1_555 1_555
C6A C3A 1_555 1_555
H5A C6A 1_555 1_555
C7A C6A 1_555 1_555
H6A C7A 1_555 1_555
C8A C7A 1_555 1_555
C9A C8A 1_555 1_555
H7A C9A 1_555 1_555
C10A C8A 1_555 1_555
H8A C10A 1_555 1_555
C11A C10A 1_555 1_555
H9A C11A 1_555 1_555
C12A N2A 1_555 1_555
H10A C12A 1_555 1_555
C25A O1A 1_555 1_555
C26A C25A 1_555 1_555
H21A C26A 1_555 1_555
H22A C26A 1_555 1_555
C27A C26A 1_555 1_555
H23A C27A 1_555 1_555
H24A C27A 1_555 1_555
H25A C27A 1_555 1_555
C28A O3A 1_555 1_555
C29A C28A 1_555 1_555
H26A C29A 1_555 1_555
H27A C29A 1_555 1_555
C30A C29A 1_555 1_555
H28A C30A 1_555 1_555
H29A C30A 1_555 1_555
H30A C30A 1_555 1_555
Zn1_2 N2 1_555 1_555
Zn1A_2 N2A 1_555 1_555
Zn1A_3 N3A 1_555 1_555
Zn2_2 N4A 1_555 1_555
N2_2 Zn1 1_555 1_555
N2A_2 Zn1A 1_555 1_555
N3A_2 Zn1A 1_555 1_555
N4A_2 Zn2 1_555 1_555
N5A C31A 1_555 1_555
C31A H31A 1_555 1_555
C32A C31A 1_555 1_555
H32A C32A 1_555 1_555
C33A C32A 1_555 1_555
C34A C33A 1_555 1_555
H33A C34A 1_555 1_555
C35A N5A 1_555 1_555
H34A C35A 1_555 1_555
C36A C36 1_555 1_555
H35A C36A 1_555 1_555
Zn2 O3 1_555 1_555
O4 C28 1_555 1_555
C4 C5 1_555 1_555
C9 C12 1_555 1_555
C16 C17 1_555 1_555
C22 C23 1_555 1_555
C34 C35 1_555 1_555
C15A C18A 1_555 1_555
C16A C17A 1_555 1_555
C21A C24A 1_555 1_555
C22A C23A 1_555 1_555
Zn1A O3A 1_555 1_555
O4A C28A 1_555 1_555
C4A C5A 1_555 1_555
C9A C12A 1_555 1_555
C33A C36A 1_555 1_555
C34A C35A 1_555 1_555

#END
