
#######################################################################
#
#                 Cambridge Crystallographic Data Centre
#                                CCDC 
#
#######################################################################
#
# If this CIF has been generated from an entry in the Cambridge 
# Structural Database, then it will include bibliographic, chemical, 
# crystal, experimental, refinement or atomic coordinate data resulting 
# from the CCDC's data processing and validation procedures.
#
#######################################################################

data_CIFVUK
_symmetry_cell_setting           monoclinic
_symmetry_space_group_name_H-M   'P 21/c'
_symmetry_Int_Tables_number      14
_space_group_name_Hall           '-P 2ybc'
loop_
_symmetry_equiv_pos_site_id
_symmetry_equiv_pos_as_xyz
1 x,y,z
2 -x,1/2+y,1/2-z
3 -x,-y,-z
4 x,1/2-y,1/2+z
_cell_length_a                   21.0889(14)
_cell_length_b                   13.6528(9)
_cell_length_c                   19.9806(14)
_cell_angle_alpha                90
_cell_angle_beta                 101.6330(10)
_cell_angle_gamma                90
_cell_volume                     5634.7
loop_
_atom_site_label
_atom_site_type_symbol
_atom_site_fract_x
_atom_site_fract_y
_atom_site_fract_z
Co1 Co 0.41839(2) 0.39252(4) 0.16703(2)
Co2 Co 1.07531(2) 0.37214(3) 0.82763(2)
O1 O 0.36197(14) 0.3383(2) 0.06611(13)
O2 O 0.31973(13) 0.4403(2) 0.12983(14)
O3 O 0.12411(14) 0.3062(2) -0.07473(13)
O4 O 0.17579(12) 0.4101(2) -0.12865(15)
O5 O 0.45664(13) 0.5042(2) 0.11578(13)
O6 O 0.45322(17) 0.6186(2) 0.03452(16)
O7 O 1.03759(13) 0.48364(19) 0.88140(12)
O8 O 1.05137(15) 0.5902(2) 0.96895(15)
O9 O 0.37504(11) 0.27285(18) 0.21028(13)
H1 H 0.3421 0.2422 0.1897
H2 H 0.3779 0.2654 0.2527
O10 O 1.12001(12) 0.25716(18) 0.78021(13)
H3 H 1.1541 0.2308 0.8026
H4 H 1.1218 0.2554 0.7384
N1 N 0.50509(14) 0.3139(2) 0.18031(14)
N2 N 0.59430(14) 0.2308(2) 0.21701(16)
N3 N 1.01056(13) 0.5301(2) 0.64366(13)
N4 N 1.05588(13) 0.44914(19) 0.73574(14)
N5 N 0.44177(13) 0.4630(2) 0.26218(14)
N6 N 0.48957(13) 0.5409(2) 0.35478(14)
N7 N 0.90142(13) 0.2073(2) 0.76869(16)
N8 N 0.98849(13) 0.2942(2) 0.80977(14)
C1 C 0.3148(2) 0.3914(3) 0.0764(2)
C2 C 0.2521(2) 0.4030(5) 0.0218(3)
H5 H 0.2154 0.4083 0.0456
H6 H 0.2547 0.4659 -0.0022
C3 C 0.2375(3) 0.3297(4) -0.0274(3)
H7 H 0.2328 0.2668 -0.0043
H8 H 0.2740 0.3230 -0.0513
C4 C 0.1757(2) 0.3495(3) -0.0800(2)
C5 C 0.4294(2) 0.5556(3) 0.0661(2)
H9 H 0.3843 0.5445 0.0509
C6 C 1.0699(2) 0.5273(3) 0.9333(2)
H10 H 1.1142 0.5091 0.9462
C7 C 0.53998(18) 0.3084(3) 0.1283(2)
H11 H 0.5271 0.3360 0.0840
C8 C 0.59467(18) 0.2579(3) 0.1508(2)
H12 H 0.6274 0.2436 0.1258
C9 C 0.53944(16) 0.2657(3) 0.23318(18)
C10 C 0.52401(18) 0.2521(3) 0.30194(18)
H13 H 0.5202 0.1820 0.3110
H14 H 0.4830 0.2849 0.3036
H15 H 0.5587 0.2805 0.3366
C11 C 0.64511(17) 0.1758(3) 0.2621(2)
H16 H 0.6716 0.1412 0.2338
H17 H 0.6247 0.1256 0.2866
C12 C 0.68895(16) 0.2387(3) 0.3138(2)
C13 C 0.72343(17) 0.1946(3) 0.3727(2)
H18 H 0.7176 0.1267 0.3800
C14 C 0.76626(17) 0.2482(3) 0.42095(19)
H19 H 0.7903 0.2164 0.4603
C15 C 0.77412(15) 0.3489(2) 0.41180(17)
C16 C 0.73878(16) 0.3924(3) 0.35281(19)
H20 H 0.7431 0.4607 0.3457
C17 C 0.69723(17) 0.3372(3) 0.30419(19)
H21 H 0.6743 0.3680 0.2639
C18 C 0.82142(16) 0.4061(2) 0.46173(16)
C19 C 0.81320(16) 0.5075(2) 0.46809(17)
H22 H 0.7761 0.5387 0.4418
C20 C 0.85840(16) 0.5623(2) 0.51212(17)
H23 H 0.8517 0.6305 0.5165
C21 C 0.91349(16) 0.5189(2) 0.54997(16)
C22 C 0.92232(17) 0.4194(3) 0.54392(17)
H24 H 0.9600 0.3890 0.5695
C23 C 0.87650(17) 0.3632(2) 0.50071(17)
H25 H 0.8829 0.2946 0.4978
C24 C 0.96313(17) 0.5838(3) 0.59405(17)
H26 H 0.9861 0.6219 0.5642
H27 H 0.9404 0.6308 0.6187
C25 C 0.94245(17) 0.5101(3) 0.73047(18)
H28 H 0.9462 0.4773 0.7747
H29 H 0.9062 0.4819 0.6977
H30 H 0.9348 0.5802 0.7358
C26 C 1.00282(16) 0.4965(2) 0.70512(16)
C27 C 1.07048(17) 0.5014(3) 0.63381(17)
H31 H 1.0887 0.5137 0.5949
C28 C 1.09813(16) 0.4522(2) 0.69076(17)
H32 H 1.1401 0.4238 0.6989
C29 C 0.40139(16) 0.4635(3) 0.30883(18)
H33 H 0.3596 0.4346 0.3016
C30 C 0.42997(17) 0.5109(3) 0.36564(18)
H34 H 0.4127 0.5216 0.4054
C31 C 0.49498(16) 0.5097(2) 0.29200(16)
C32 C 0.55483(17) 0.5243(3) 0.26475(19)
H35 H 0.5470 0.5041 0.2167
H36 H 0.5899 0.4848 0.2912
H37 H 0.5671 0.5936 0.2683
C33 C 0.53806(18) 0.5914(3) 0.40475(18)
H38 H 0.5160 0.6301 0.4353
H39 H 0.5617 0.6378 0.3806
C34 C 0.58645(16) 0.5229(2) 0.44794(16)
C35 C 0.64205(16) 0.5622(3) 0.48769(17)
H40 H 0.6502 0.6305 0.4856
C36 C 0.68573(16) 0.5033(3) 0.53022(17)
H41 H 0.7230 0.5319 0.5581
C37 C 0.67595(15) 0.4018(2) 0.53297(16)
C38 C 0.62008(16) 0.3630(2) 0.49235(16)
H42 H 0.6123 0.2945 0.4931
C39 C 0.57578(17) 0.4228(2) 0.45089(16)
H43 H 0.5376 0.3951 0.4241
C40 C 0.72240(15) 0.3394(3) 0.58018(17)
C41 C 0.76045(16) 0.3787(3) 0.63884(19)
H44 H 0.7581 0.4467 0.6478
C42 C 0.80215(17) 0.3194(3) 0.68473(19)
H45 H 0.8272 0.3472 0.7251
C43 C 0.80734(16) 0.2207(3) 0.67190(19)
C44 C 0.76940(16) 0.1806(3) 0.61427(18)
H46 H 0.7723 0.1125 0.6056
C45 C 0.72706(16) 0.2385(2) 0.56883(17)
H47 H 0.7009 0.2096 0.5295
C46 C 0.85193(17) 0.1536(3) 0.7209(2)
H48 H 0.8257 0.1145 0.7471
H49 H 0.8734 0.1075 0.6942
C47 C 0.97508(17) 0.2349(3) 0.68795(17)
H50 H 1.0125 0.2767 0.6861
H51 H 0.9386 0.2543 0.6518
H52 H 0.9863 0.1664 0.6814
C48 C 0.95675(16) 0.2460(2) 0.75545(18)
C49 C 0.89728(17) 0.2340(3) 0.8342(2)
H53 H 0.8633 0.2186 0.8571
C50 C 0.95096(18) 0.2862(3) 0.85918(19)
H54 H 0.9616 0.3134 0.9038
Co2_2 Co 0.07531(2) 0.37214(3) -0.17237(2)
O3_2 O 1.12411(14) 0.3062(2) 0.92527(13)
O4_2 O 1.17579(12) 0.4101(2) 0.87135(15)
O11 O 0.34166(15) 0.2429(2) 0.33636(15)
H55 H 0.3734 0.2299 0.3690
H56 H 0.3226 0.1883 0.3256
O12 O 0.22701(14) 0.3580(2) 0.32381(15)
H57 H 0.2286 0.3896 0.2877
H58 H 0.2608 0.3236 0.3339
O13 O 0.26290(15) 0.1685(3) 0.16607(16)
H59 H 0.2318 0.2082 0.1623
H60 H 0.2647 0.1354 0.2020
O14 O 0.14514(16) 0.2734(2) 0.15066(15)
H61 H 0.1242 0.2817 0.1102
H62 H 0.1648 0.3259 0.1638
O15 O 0.26941(16) 0.0698(2) 0.29427(17)
H63 H 0.2403 0.0694 0.3177
H64 H 0.2999 0.0333 0.3130
O16 O 0.05256(17) 0.2788(3) 0.03302(17)
H65 H 0.0538 0.2635 -0.0074
H66 H 0.0142 0.2945 0.0366
O17 O 0.21568(17) 0.4590(3) 0.19775(17)
H67 H 0.2515 0.4504 0.1862
H68 H 0.1906 0.4889 0.1660
O18 O 0.10141(17) 0.4991(2) 0.10308(17)
H69 H 0.0634 0.5063 0.1093
H70 H 0.1056 0.5293 0.0673
O19 O 0.42219(19) 0.1675(4) 0.44885(19)
H71 H 0.4090 0.1529 0.4851
H72 H 0.4436 0.2216 0.4585
O20 O 0.3650(3) -0.0054(3) 0.3911(2)
H73 H 0.3773 -0.0536 0.4176
H74 H 0.3997 0.0277 0.3909
loop_
_geom_bond_atom_site_label_1
_geom_bond_atom_site_label_2
_geom_bond_site_symmetry_1
_geom_bond_site_symmetry_2
Co1 O1 1_555 1_555
Co2 O7 1_555 1_555
O1 C1 1_555 1_555
O2 Co1 1_555 1_555
O3 C4 1_555 1_555
O4 C4 1_555 1_555
O5 Co1 1_555 1_555
O6 C5 1_555 1_555
O7 C6 1_555 1_555
O8 C6 1_555 1_555
O9 Co1 1_555 1_555
H1 O9 1_555 1_555
H2 O9 1_555 1_555
O10 Co2 1_555 1_555
H3 O10 1_555 1_555
H4 O10 1_555 1_555
N1 Co1 1_555 1_555
N2 C8 1_555 1_555
N3 C24 1_555 1_555
N4 Co2 1_555 1_555
N5 Co1 1_555 1_555
N6 C30 1_555 1_555
N7 C46 1_555 1_555
N8 Co2 1_555 1_555
C1 O2 1_555 1_555
C2 C1 1_555 1_555
H5 C2 1_555 1_555
H6 C2 1_555 1_555
C3 C2 1_555 1_555
H7 C3 1_555 1_555
H8 C3 1_555 1_555
C4 C3 1_555 1_555
C5 O5 1_555 1_555
H9 C5 1_555 1_555
C6 H10 1_555 1_555
C7 N1 1_555 1_555
H11 C7 1_555 1_555
C8 C7 1_555 1_555
H12 C8 1_555 1_555
C9 N1 1_555 1_555
C10 C9 1_555 1_555
H13 C10 1_555 1_555
H14 C10 1_555 1_555
H15 C10 1_555 1_555
C11 N2 1_555 1_555
H16 C11 1_555 1_555
H17 C11 1_555 1_555
C12 C11 1_555 1_555
C13 C12 1_555 1_555
H18 C13 1_555 1_555
C14 C13 1_555 1_555
H19 C14 1_555 1_555
C15 C14 1_555 1_555
C16 C15 1_555 1_555
H20 C16 1_555 1_555
C17 C12 1_555 1_555
H21 C17 1_555 1_555
C18 C15 1_555 1_555
C19 C18 1_555 1_555
H22 C19 1_555 1_555
C20 C19 1_555 1_555
H23 C20 1_555 1_555
C21 C20 1_555 1_555
C22 C21 1_555 1_555
H24 C22 1_555 1_555
C23 C18 1_555 1_555
H25 C23 1_555 1_555
C24 C21 1_555 1_555
H26 C24 1_555 1_555
H27 C24 1_555 1_555
C25 H28 1_555 1_555
H29 C25 1_555 1_555
H30 C25 1_555 1_555
C26 N3 1_555 1_555
C27 N3 1_555 1_555
H31 C27 1_555 1_555
C28 N4 1_555 1_555
H32 C28 1_555 1_555
C29 N5 1_555 1_555
H33 C29 1_555 1_555
C30 C29 1_555 1_555
H34 C30 1_555 1_555
C31 N5 1_555 1_555
C32 C31 1_555 1_555
H35 C32 1_555 1_555
H36 C32 1_555 1_555
H37 C32 1_555 1_555
C33 N6 1_555 1_555
H38 C33 1_555 1_555
H39 C33 1_555 1_555
C34 C33 1_555 1_555
C35 C34 1_555 1_555
H40 C35 1_555 1_555
C36 C35 1_555 1_555
H41 C36 1_555 1_555
C37 C36 1_555 1_555
C38 C37 1_555 1_555
H42 C38 1_555 1_555
C39 C34 1_555 1_555
H43 C39 1_555 1_555
C40 C37 1_555 1_555
C41 C40 1_555 1_555
H44 C41 1_555 1_555
C42 C41 1_555 1_555
H45 C42 1_555 1_555
C43 C42 1_555 1_555
C44 C43 1_555 1_555
H46 C44 1_555 1_555
C45 C40 1_555 1_555
H47 C45 1_555 1_555
C46 C43 1_555 1_555
H48 C46 1_555 1_555
H49 C46 1_555 1_555
C47 H50 1_555 1_555
H51 C47 1_555 1_555
H52 C47 1_555 1_555
C48 N7 1_555 1_555
C49 N7 1_555 1_555
H53 C49 1_555 1_555
C50 N8 1_555 1_555
H54 C50 1_555 1_555
O11 H55 1_555 1_555
H56 O11 1_555 1_555
O12 H57 1_555 1_555
H58 O12 1_555 1_555
O13 H59 1_555 1_555
H60 O13 1_555 1_555
O14 H61 1_555 1_555
H62 O14 1_555 1_555
O15 H63 1_555 1_555
H64 O15 1_555 1_555
O16 H65 1_555 1_555
H66 O16 1_555 1_555
O17 H67 1_555 1_555
H68 O17 1_555 1_555
O18 H69 1_555 1_555
H70 O18 1_555 1_555
O19 H71 1_555 1_555
H72 O19 1_555 1_555
O20 H73 1_555 1_555
H74 O20 1_555 1_555
Co2_2 O3 1_555 1_555
O3_2 Co2 1_555 1_555
O4_2 Co2 1_555 1_555
O4 Co2_2 1_555 1_555
N2 C9 1_555 1_555
N4 C26 1_555 1_555
N6 C31 1_555 1_555
N8 C48 1_555 1_555
C16 C17 1_555 1_555
C22 C23 1_555 1_555
C25 C26 1_555 1_555
C27 C28 1_555 1_555
C38 C39 1_555 1_555
C44 C45 1_555 1_555
C47 C48 1_555 1_555
C49 C50 1_555 1_555

#END
