
#######################################################################
#
#                 Cambridge Crystallographic Data Centre
#                                CCDC 
#
#######################################################################
#
# If this CIF has been generated from an entry in the Cambridge 
# Structural Database, then it will include bibliographic, chemical, 
# crystal, experimental, refinement or atomic coordinate data resulting 
# from the CCDC's data processing and validation procedures.
#
#######################################################################

data_CIFVIW
_symmetry_cell_setting           monoclinic
_symmetry_space_group_name_H-M   'C 2/c'
_symmetry_Int_Tables_number      15
_space_group_name_Hall           '-C 2yn'
loop_
_symmetry_equiv_pos_site_id
_symmetry_equiv_pos_as_xyz
1 x,y,z
2 1/2+x,1/2+y,z
3 -x,y,1/2-z
4 1/2-x,1/2+y,1/2-z
5 -x,-y,-z
6 1/2-x,1/2-y,-z
7 x,-y,1/2+z
8 1/2+x,1/2-y,1/2+z
_cell_length_a                   23.441(5)
_cell_length_b                   3.728(1)
_cell_length_c                   16.480(3)
_cell_angle_alpha                90
_cell_angle_beta                 98.50(2)
_cell_angle_gamma                90
_cell_volume                     1424.34
loop_
_atom_site_label
_atom_site_type_symbol
_atom_site_fract_x
_atom_site_fract_y
_atom_site_fract_z
Mn1 Mn 0.00000 0.17430 0.25000
Cl1 Cl 0.06330 0.67420 0.32160
N1 N 0.06410 0.27490 0.02000
N2 N 0.02810 0.29380 0.07440
N3 N 0.05540 0.18560 0.14550
C1 C 0.11050 0.09720 0.13600
C2 C 0.11690 0.15450 0.05440
C3 C 0.16810 0.08950 0.02350
C4 C 0.21340 -0.02690 0.07900
C5 C 0.20820 -0.08040 0.16220
C6 C 0.15770 -0.02350 0.19230
H1 H 0.05100 0.32800 -0.02900
H2 H 0.16500 0.14000 -0.03300
H3 H 0.24800 -0.04400 0.06400
H4 H 0.24200 -0.17700 0.19700
H5 H 0.15400 -0.08700 0.24700
Cl1_2 Cl 0.06330 -0.32580 0.32160
Cl1B Cl -0.06330 0.67420 0.17840
Cl1B_2 Cl -0.06330 -0.32580 0.17840
N3B N -0.05540 0.18560 0.35450
Mn1_2 Mn 0.00000 1.17430 0.25000
N2B N -0.02810 0.29380 0.42560
C1B C -0.11050 0.09720 0.36400
N1B N -0.06410 0.27490 0.48000
C2B C -0.11690 0.15450 0.44560
C6B C -0.15770 -0.02350 0.30770
H1B H -0.05100 0.32800 0.52900
C3B C -0.16810 0.08950 0.47650
C5B C -0.20820 -0.08040 0.33780
H5B H -0.15400 -0.08700 0.25300
C4B C -0.21340 -0.02690 0.42100
H2B H -0.16500 0.14000 0.53300
H4B H -0.24200 -0.17700 0.30300
H3B H -0.24800 -0.04400 0.43600
loop_
_geom_bond_atom_site_label_1
_geom_bond_atom_site_label_2
_geom_bond_site_symmetry_1
_geom_bond_site_symmetry_2
Mn1 Cl1 1_555 1_555
Cl1 Mn1_2 1_555 1_555
N1 N2 1_555 1_555
N2 N3 1_555 1_555
N3 Mn1 1_555 1_555
C1 N3 1_555 1_555
C2 N1 1_555 1_555
C3 C2 1_555 1_555
C4 C3 1_555 1_555
C5 C4 1_555 1_555
C6 C1 1_555 1_555
H1 N1 1_555 1_555
H2 C3 1_555 1_555
H3 C4 1_555 1_555
H4 C5 1_555 1_555
H5 C6 1_555 1_555
Cl1_2 Mn1 1_555 1_555
Cl1B Mn1 1_555 1_555
Cl1B_2 Mn1 1_555 1_555
N3B Mn1 1_555 1_555
Mn1_2 Cl1B 1_555 1_555
N2B N3B 1_555 1_555
C1B N3B 1_555 1_555
N1B N2B 1_555 1_555
C2B C1B 1_555 1_555
C6B C1B 1_555 1_555
H1B N1B 1_555 1_555
C3B C2B 1_555 1_555
C5B C6B 1_555 1_555
H5B C6B 1_555 1_555
C4B C3B 1_555 1_555
H2B C3B 1_555 1_555
H4B C5B 1_555 1_555
H3B C4B 1_555 1_555
C1 C2 1_555 1_555
C5 C6 1_555 1_555
N1B C2B 1_555 1_555
C5B C4B 1_555 1_555

#END
