
#######################################################################
#
#                 Cambridge Crystallographic Data Centre
#                                CCDC 
#
#######################################################################
#
# If this CIF has been generated from an entry in the Cambridge 
# Structural Database, then it will include bibliographic, chemical, 
# crystal, experimental, refinement or atomic coordinate data resulting 
# from the CCDC's data processing and validation procedures.
#
#######################################################################

data_CIFWET
_symmetry_cell_setting           monoclinic
_symmetry_space_group_name_H-M   'I 2/c'
_symmetry_Int_Tables_number      15
_space_group_name_Hall           '-I 2yc'
loop_
_symmetry_equiv_pos_site_id
_symmetry_equiv_pos_as_xyz
1 x,y,z
2 1/2+x,1/2+y,1/2+z
3 -x,y,1/2-z
4 1/2-x,1/2+y,-z
5 -x,-y,-z
6 1/2-x,1/2-y,1/2-z
7 x,-y,1/2+z
8 1/2+x,1/2-y,z
_cell_length_a                   21.533(5)
_cell_length_b                   6.852(3)
_cell_length_c                   17.059(6)
_cell_angle_alpha                90
_cell_angle_beta                 94.44(2)
_cell_angle_gamma                90
_cell_volume                     2509.4
loop_
_atom_site_label
_atom_site_type_symbol
_atom_site_fract_x
_atom_site_fract_y
_atom_site_fract_z
Cu1 Cu 0.24280 0.21260 0.00290
O1 O 0.22170 -0.03720 -0.10100
N1 N 0.20090 0.04250 0.07810
N2 N 0.21270 -0.14320 0.07980
N3 N 0.18710 -0.23720 0.13750
C1 C 0.15740 -0.08930 0.17480
C2 C 0.16610 0.09160 0.13940
C3 C 0.13950 0.26190 0.16480
C4 C 0.10490 0.23880 0.23110
C5 C 0.09530 0.06050 0.26410
C6 C 0.12130 -0.10450 0.24270
H1 H 0.14800 0.40100 0.13400
H2 H 0.08600 0.35400 0.23900
H3 H 0.07800 0.03400 0.29700
H4 H 0.12700 -0.23300 0.25700
N4 N 0.33220 -0.11730 0.02340
N5 N 0.32300 0.07030 0.03290
N6 N 0.37290 0.16510 0.06030
C7 C 0.41730 0.02500 0.06970
C8 C 0.39420 -0.15290 0.04820
C9 C 0.42820 -0.32110 0.05000
C10 C 0.48820 -0.30640 0.07890
C11 C 0.51330 -0.12820 0.10190
C12 C 0.47970 0.03450 0.10050
H5 H 0.40600 -0.39900 0.03800
H6 H 0.50500 -0.39600 0.10200
H7 H 0.55300 -0.12900 0.10800
H8 H 0.48900 0.12300 0.11800
O1C O 0.27830 0.46280 0.10100
Cu1C Cu 0.25720 -0.28740 -0.00290
N2C N 0.28730 0.35680 -0.07980
N4C N 0.16780 0.38270 -0.02340
loop_
_geom_bond_atom_site_label_1
_geom_bond_atom_site_label_2
_geom_bond_site_symmetry_1
_geom_bond_site_symmetry_2
Cu1 O1 1_555 1_555
O1 Cu1C 1_555 1_555
N1 Cu1 1_555 1_555
N2 N1 1_555 1_555
N3 N2 1_555 1_555
C1 N3 1_555 1_555
C2 N1 1_555 1_555
C3 C2 1_555 1_555
C4 C3 1_555 1_555
C5 C4 1_555 1_555
C6 C1 1_555 1_555
H1 C3 1_555 1_555
H2 C4 1_555 1_555
H3 C5 1_555 1_555
H4 C6 1_555 1_555
N4 N5 1_555 1_555
N5 Cu1 1_555 1_555
N6 N5 1_555 1_555
C7 N6 1_555 1_555
C8 N4 1_555 1_555
C9 C8 1_555 1_555
C10 C9 1_555 1_555
C11 C10 1_555 1_555
C12 C7 1_555 1_555
H5 C9 1_555 1_555
H6 C10 1_555 1_555
H7 C11 1_555 1_555
H8 C12 1_555 1_555
O1C Cu1 1_555 1_555
Cu1C N2 1_555 1_555
N2C Cu1 1_555 1_555
N4C Cu1 1_555 1_555
C1 C2 1_555 1_555
C5 C6 1_555 1_555
N4 Cu1C 1_555 1_555
C7 C8 1_555 1_555
C11 C12 1_555 1_555

#END
