
#######################################################################
#
#                 Cambridge Crystallographic Data Centre
#                                CCDC 
#
#######################################################################
#
# If this CIF has been generated from an entry in the Cambridge 
# Structural Database, then it will include bibliographic, chemical, 
# crystal, experimental, refinement or atomic coordinate data resulting 
# from the CCDC's data processing and validation procedures.
#
#######################################################################

data_CIGCEC
_symmetry_cell_setting           triclinic
_symmetry_space_group_name_H-M   'P -1'
_symmetry_Int_Tables_number      2
_space_group_name_Hall           '-P 1'
loop_
_symmetry_equiv_pos_site_id
_symmetry_equiv_pos_as_xyz
1 x,y,z
2 -x,-y,-z
_cell_length_a                   9.605(3)
_cell_length_b                   9.760(3)
_cell_length_c                   11.948(4)
_cell_angle_alpha                94.114(4)
_cell_angle_beta                 99.149(4)
_cell_angle_gamma                97.481(4)
_cell_volume                     1091.5
loop_
_atom_site_label
_atom_site_type_symbol
_atom_site_fract_x
_atom_site_fract_y
_atom_site_fract_z
Ti1 Ti 0.53841(3) 0.03420(3) 0.14035(2)
O1 O 0.53231(14) 0.18580(13) 0.23568(11)
C1 C 0.4694(2) 0.27169(19) 0.30637(16)
H1 H 0.3637 0.2494 0.2835
C2 C 0.5076(3) 0.2442(2) 0.43010(17)
H2 H 0.4695 0.1484 0.4395
H3 H 0.4664 0.3083 0.4781
H4 H 0.6114 0.2583 0.4526
C3 C 0.5127(2) 0.42380(19) 0.29006(18)
H5 H 0.6164 0.4478 0.3111
H6 H 0.4662 0.4822 0.3385
H7 H 0.4834 0.4393 0.2101
O2 O 0.36345(13) -0.06477(13) 0.15851(10)
C4 C 0.32271(19) -0.11392(19) 0.25878(15)
H8 H 0.3967 -0.0725 0.3253
C5 C 0.3147(3) -0.2705(2) 0.2519(2)
H9 H 0.2425 -0.3125 0.1869
H10 H 0.2887 -0.3041 0.3222
H11 H 0.4076 -0.2963 0.2422
C6 C 0.1812(2) -0.0679(3) 0.2746(2)
H12 H 0.1909 0.0337 0.2801
H13 H 0.1535 -0.1011 0.3445
H14 H 0.1079 -0.1065 0.2092
O3 O 0.65955(13) -0.04915(13) 0.24032(10)
C7 C 0.72971(18) -0.03122(19) 0.35451(15)
H15 H 0.6607 -0.0060 0.4042
C8 C 0.7789(2) -0.1673(2) 0.38792(18)
H16 H 0.6969 -0.2410 0.3750
H17 H 0.8221 -0.1566 0.4686
H18 H 0.8492 -0.1916 0.3417
C9 C 0.8544(2) 0.0864(2) 0.37001(16)
H19 H 0.9230 0.0630 0.3218
H20 H 0.9010 0.0996 0.4499
H21 H 0.8191 0.1722 0.3483
O4 O 0.56554(12) -0.10129(11) 0.00628(10)
C10 C 0.65824(19) -0.20576(18) -0.00016(16)
H22 H 0.6400 -0.2478 -0.0809
C11 C 0.81477(19) -0.1441(2) 0.02745(18)
H23 H 0.8341 -0.0716 -0.0230
H24 H 0.8736 -0.2171 0.0163
H25 H 0.8376 -0.1038 0.1068
C12 C 0.6236(2) -0.32223(19) 0.07318(19)
H26 H 0.6405 -0.2851 0.1533
H27 H 0.6846 -0.3937 0.0632
H28 H 0.5234 -0.3630 0.0503
N1 N 0.73413(15) 0.15971(15) 0.08741(12)
H29 H 0.8069(19) 0.128(2) 0.1247(18)
H30 H 0.730(2) 0.133(2) 0.0162(14)
C13 C 0.75488(18) 0.31306(17) 0.09930(16)
H31 H 0.7425 0.3456 0.1770
H32 H 0.6799 0.3452 0.0448
C14 C 0.90038(18) 0.37980(18) 0.07866(15)
H33 H 0.9216 0.3336 0.0081
H34 H 0.8964 0.4787 0.0669
C15 C 1.02093(18) 0.37054(18) 0.17677(15)
H35 H 1.0248 0.2721 0.1901
H36 H 1.1131 0.4097 0.1567
N2 N 0.99783(17) 0.44708(17) 0.28015(13)
H37 H 1.003(3) 0.5336(18) 0.264(2)
C16 C 1.1002(2) 0.4322(2) 0.38126(16)
H38 H 1.1981 0.4611 0.3673
H39 H 1.0918 0.3335 0.3971
C17 C 1.0735(2) 0.5204(2) 0.48393(16)
H40 H 1.0832 0.6189 0.4675
H41 H 1.1476 0.5123 0.5500
N1A N 1.26587(15) 0.84029(15) 0.91259(12)
H29A H 1.1931(19) 0.872(2) 0.8753(18)
H30A H 1.270(2) 0.867(2) 0.9838(14)
C13A C 1.24512(18) 0.68694(17) 0.90070(16)
H31A H 1.2575 0.6544 0.8230
H32A H 1.3201 0.6548 0.9552
C14A C 1.09962(18) 0.62020(18) 0.92134(15)
H33A H 1.0784 0.6664 0.9919
H34A H 1.1036 0.5213 0.9331
C15A C 0.97907(18) 0.62946(18) 0.82323(15)
H35A H 0.9752 0.7279 0.8099
H36A H 0.8869 0.5903 0.8433
N2A N 1.00217(17) 0.55292(17) 0.71985(13)
H37A H 0.997(3) 0.4664(18) 0.736(2)
C16A C 0.8998(2) 0.5678(2) 0.61874(16)
H38A H 0.8019 0.5389 0.6327
H39A H 0.9082 0.6665 0.6029
C17A C 0.9265(2) 0.4796(2) 0.51607(16)
H40A H 0.9168 0.3811 0.5325
H41A H 0.8524 0.4877 0.4500
Ti1A Ti 0.46159(3) -0.03420(3) -0.14035(2)
O1A O 0.46769(14) -0.18580(13) -0.23568(11)
C1A C 0.5306(2) -0.27169(19) -0.30637(16)
H1A H 0.6363 -0.2494 -0.2835
C2A C 0.4924(3) -0.2442(2) -0.43010(17)
H2A H 0.5305 -0.1484 -0.4395
H3A H 0.5336 -0.3083 -0.4781
H4A H 0.3886 -0.2583 -0.4526
C3A C 0.4873(2) -0.42380(19) -0.29006(18)
H5A H 0.3836 -0.4478 -0.3111
H6A H 0.5338 -0.4822 -0.3385
H7A H 0.5166 -0.4393 -0.2101
O2A O 0.63655(13) 0.06477(13) -0.15851(10)
C4A C 0.67729(19) 0.11392(19) -0.25878(15)
H8A H 0.6033 0.0725 -0.3253
C5A C 0.6853(3) 0.2705(2) -0.2519(2)
H9A H 0.7575 0.3125 -0.1869
H10A H 0.7113 0.3041 -0.3222
H11A H 0.5924 0.2963 -0.2422
C6A C 0.8188(2) 0.0679(3) -0.2746(2)
H12A H 0.8091 -0.0337 -0.2801
H13A H 0.8465 0.1011 -0.3445
H14A H 0.8921 0.1065 -0.2092
O3A O 0.34045(13) 0.04915(13) -0.24032(10)
C7A C 0.27029(18) 0.03122(19) -0.35451(15)
H15A H 0.3393 0.0060 -0.4042
C8A C 0.2211(2) 0.1673(2) -0.38792(18)
H16A H 0.3031 0.2410 -0.3750
H17A H 0.1779 0.1566 -0.4686
H18A H 0.1508 0.1916 -0.3417
C9A C 0.1456(2) -0.0864(2) -0.37001(16)
H19A H 0.0770 -0.0630 -0.3218
H20A H 0.0990 -0.0996 -0.4499
H21A H 0.1809 -0.1722 -0.3483
O4A O 0.43446(12) 0.10129(11) -0.00628(10)
C10A C 0.34176(19) 0.20576(18) 0.00016(16)
H22A H 0.3600 0.2478 0.0809
C11A C 0.18523(19) 0.1441(2) -0.02745(18)
H23A H 0.1659 0.0716 0.0230
H24A H 0.1264 0.2171 -0.0163
H25A H 0.1624 0.1038 -0.1068
C12A C 0.3764(2) 0.32223(19) -0.07318(19)
H26A H 0.3595 0.2851 -0.1533
H27A H 0.3154 0.3937 -0.0632
H28A H 0.4766 0.3630 -0.0503
Ti1A_2 Ti 1.46159(3) 0.96580(3) 0.85965(2)
N1A_2 N 0.26587(15) -0.15971(15) -0.08741(12)
loop_
_geom_bond_atom_site_label_1
_geom_bond_atom_site_label_2
_geom_bond_site_symmetry_1
_geom_bond_site_symmetry_2
Ti1 O1 1_555 1_555
O1 C1 1_555 1_555
C1 H1 1_555 1_555
C2 C1 1_555 1_555
H2 C2 1_555 1_555
H3 C2 1_555 1_555
H4 C2 1_555 1_555
C3 C1 1_555 1_555
H5 C3 1_555 1_555
H6 C3 1_555 1_555
H7 C3 1_555 1_555
O2 Ti1 1_555 1_555
C4 O2 1_555 1_555
H8 C4 1_555 1_555
C5 C4 1_555 1_555
H9 C5 1_555 1_555
H10 C5 1_555 1_555
H11 C5 1_555 1_555
C6 C4 1_555 1_555
H12 C6 1_555 1_555
H13 C6 1_555 1_555
H14 C6 1_555 1_555
O3 Ti1 1_555 1_555
C7 O3 1_555 1_555
H15 C7 1_555 1_555
C8 C7 1_555 1_555
H16 C8 1_555 1_555
H17 C8 1_555 1_555
H18 C8 1_555 1_555
C9 C7 1_555 1_555
H19 C9 1_555 1_555
H20 C9 1_555 1_555
H21 C9 1_555 1_555
O4 Ti1 1_555 1_555
C10 O4 1_555 1_555
H22 C10 1_555 1_555
C11 C10 1_555 1_555
H23 C11 1_555 1_555
H24 C11 1_555 1_555
H25 C11 1_555 1_555
C12 C10 1_555 1_555
H26 C12 1_555 1_555
H27 C12 1_555 1_555
H28 C12 1_555 1_555
N1 Ti1 1_555 1_555
H29 N1 1_555 1_555
H30 N1 1_555 1_555
C13 N1 1_555 1_555
H31 C13 1_555 1_555
H32 C13 1_555 1_555
C14 C13 1_555 1_555
H33 C14 1_555 1_555
H34 C14 1_555 1_555
C15 C14 1_555 1_555
H35 C15 1_555 1_555
H36 C15 1_555 1_555
N2 C15 1_555 1_555
H37 N2 1_555 1_555
C16 N2 1_555 1_555
H38 C16 1_555 1_555
H39 C16 1_555 1_555
C17 C16 1_555 1_555
H40 C17 1_555 1_555
H41 C17 1_555 1_555
N1A H29A 1_555 1_555
H30A N1A 1_555 1_555
C13A N1A 1_555 1_555
H31A C13A 1_555 1_555
H32A C13A 1_555 1_555
C14A C13A 1_555 1_555
H33A C14A 1_555 1_555
H34A C14A 1_555 1_555
C15A C14A 1_555 1_555
H35A C15A 1_555 1_555
H36A C15A 1_555 1_555
N2A C15A 1_555 1_555
H37A N2A 1_555 1_555
C16A N2A 1_555 1_555
H38A C16A 1_555 1_555
H39A C16A 1_555 1_555
C17A C17 1_555 1_555
H40A C17A 1_555 1_555
H41A C17A 1_555 1_555
Ti1A O4 1_555 1_555
O1A Ti1A 1_555 1_555
C1A O1A 1_555 1_555
H1A C1A 1_555 1_555
C2A C1A 1_555 1_555
H2A C2A 1_555 1_555
H3A C2A 1_555 1_555
H4A C2A 1_555 1_555
C3A C1A 1_555 1_555
H5A C3A 1_555 1_555
H6A C3A 1_555 1_555
H7A C3A 1_555 1_555
O2A Ti1A 1_555 1_555
C4A O2A 1_555 1_555
H8A C4A 1_555 1_555
C5A C4A 1_555 1_555
H9A C5A 1_555 1_555
H10A C5A 1_555 1_555
H11A C5A 1_555 1_555
C6A C4A 1_555 1_555
H12A C6A 1_555 1_555
H13A C6A 1_555 1_555
H14A C6A 1_555 1_555
O3A Ti1A 1_555 1_555
C7A O3A 1_555 1_555
H15A C7A 1_555 1_555
C8A C7A 1_555 1_555
H16A C8A 1_555 1_555
H17A C8A 1_555 1_555
H18A C8A 1_555 1_555
C9A C7A 1_555 1_555
H19A C9A 1_555 1_555
H20A C9A 1_555 1_555
H21A C9A 1_555 1_555
O4A Ti1 1_555 1_555
C10A O4A 1_555 1_555
H22A C10A 1_555 1_555
C11A C10A 1_555 1_555
H23A C11A 1_555 1_555
H24A C11A 1_555 1_555
H25A C11A 1_555 1_555
C12A C10A 1_555 1_555
H26A C12A 1_555 1_555
H27A C12A 1_555 1_555
H28A C12A 1_555 1_555
Ti1A_2 N1A 1_555 1_555
N1A_2 Ti1A 1_555 1_555
C16A C17A 1_555 1_555
Ti1A O4A 1_555 1_555

#END
