
#######################################################################
#
#                 Cambridge Crystallographic Data Centre
#                                CCDC 
#
#######################################################################
#
# If this CIF has been generated from an entry in the Cambridge 
# Structural Database, then it will include bibliographic, chemical, 
# crystal, experimental, refinement or atomic coordinate data resulting 
# from the CCDC's data processing and validation procedures.
#
#######################################################################

data_CIGDUT
_symmetry_cell_setting           triclinic
_symmetry_space_group_name_H-M   'P -1'
_symmetry_Int_Tables_number      2
_space_group_name_Hall           '-P 1'
loop_
_symmetry_equiv_pos_site_id
_symmetry_equiv_pos_as_xyz
1 x,y,z
2 -x,-y,-z
_cell_length_a                   12.7934(8)
_cell_length_b                   14.6822(10)
_cell_length_c                   19.0771(11)
_cell_angle_alpha                107.1150(10)
_cell_angle_beta                 105.5360(10)
_cell_angle_gamma                93.518(2)
_cell_volume                     3261.07
loop_
_atom_site_label
_atom_site_type_symbol
_atom_site_fract_x
_atom_site_fract_y
_atom_site_fract_z
O1 O 1.1133 0.4086 1.1761
O2 O 1.4894 -0.1428 1.0000
S1 S 0.73655(18) 0.28894(15) 0.97523(12)
O3 O 0.9858(5) 0.0692(4) 0.6618(3)
H1 H 1.0563 0.0936 0.6951
O4 O 0.7583(5) -0.0195(4) 0.6082(3)
H2 H 0.7752 -0.0776 0.6151
O5 O 0.7748(4) 0.4899(4) 1.1683(3)
O6 O 0.7332(5) 0.0127(4) 0.8768(3)
H3 H 0.7573 0.0665 0.8659
O7 O 0.6280(4) 0.0031(4) 0.7207(3)
O8 O 1.0266(5) 0.5630(4) 1.1998(4)
H4 H 1.0601 0.6101 1.1962
O9 O 0.6570(4) 0.1358(4) 0.6926(3)
O10 O 0.6474(4) 0.3622(4) 1.1071(3)
O11 O 0.9470(4) 0.4727(4) 1.2909(3)
H5 H 0.8969 0.4166 1.2637
C1 C 0.7663(6) 0.4013(6) 1.0423(4)
C2 C 0.6614(8) 0.5296(7) 1.4610(5)
H6 H 0.6328 0.4664 1.4300
C3 C 0.6440(7) 0.5732(7) 1.5330(5)
H7 H 0.6047 0.5410 1.5555
C4 C 0.5977(6) 0.0759(6) 0.7049(4)
C5 C 0.8427(8) 0.4240(6) 0.9514(5)
H8 H 0.8784 0.4584 0.9284
C6 C 0.7267(6) 0.4191(6) 1.1107(4)
C7 C 0.8246(7) 0.4651(7) 1.0229(5)
H9 H 0.8499 0.5290 1.0534
C8 C 0.8021(7) 0.3281(6) 0.9195(5)
C9 C 0.8114(7) 0.2586(6) 0.8490(5)
C10 C 0.4714(8) 0.5358(8) 1.1236(6)
H10 H 0.4152 0.5705 1.1397
H11 H 0.4355 0.4738 1.0861
C11 C 0.6873(9) -0.0305(8) 0.5330(6)
H12 H 0.7241 -0.0591 0.4954
H13 H 0.6752 0.0330 0.5298
C12 C 0.5300(10) 0.5924(9) 1.0866(7)
H14 H 0.4778 0.6011 1.0432
H15 H 0.5847 0.5577 1.0698
H16 H 0.5645 0.6543 1.1233
C13 C 0.5796(10) -0.0903(10) 0.5124(7)
H17 H 0.5372 -0.0944 0.4615
H18 H 0.5412 -0.0616 0.5483
H19 H 0.5903 -0.1538 0.5142
C14 C 1.0443(11) 0.4607(9) 1.3416(8)
H20 H 1.0948 0.5209 1.3629
H21 H 1.0789 0.4123 1.3128
C15 C 0.9840(12) 0.0108(10) 0.5873(8)
H22 H 1.0418 0.0390 0.5725
H23 H 0.9144 0.0100 0.5507
C16 C 1.0251(13) 0.4316(12) 1.4047(9)
H24 H 1.0936 0.4248 1.4373
H25 H 0.9767 0.3712 1.3841
H26 H 0.9922 0.4798 1.4341
C17 C 1.0003 -0.0966 0.5832
H27 H 0.9988 -0.1330 0.5320
H28 H 0.9423 -0.1256 0.5965
H29 H 1.0697 -0.0964 0.6187
C18 C 0.7519(17) 0.0291(14) 0.9542(10)
H30 H 0.7272 -0.0296 0.9624
H31 H 0.7099 0.0781 0.9738
C19 C 0.8770 0.0631 0.9993
H32 H 0.8879 0.0744 1.0532
H33 H 0.9014 0.1216 0.9917
H34 H 0.9184 0.0141 0.9808
C20 C 0.3422 0.6004 1.3016
H35 H 0.2670 0.5958 1.2724
H36 H 0.3873 0.6468 1.2915
H37 H 0.3486 0.6204 1.3554
C21 C 0.3792 0.5036 1.2787
H38 H 0.3199 0.4666 1.2860
H39 H 0.3572 0.4921 1.2237
Dy1 Dy 0.59713(3) 0.38000(3) 1.22012(2)
Dy2 Dy 0.84277(3) 0.11852(3) 0.71998(2)
Dy3 Dy 0.65195(3) -0.12421(3) 0.76319(2)
Dy4 Dy 0.89009(3) 0.61452(3) 1.26391(2)
S2 S 1.26485(17) 0.29459(16) 0.97930(12)
S3 S 0.76161(18) 0.70253(15) 1.51086(11)
S4 S 0.68416(18) 0.21139(18) 0.48031(13)
S5 S 0.45456(16) 0.20831(15) 0.71421(13)
S6 S 1.04933(17) -0.20692(16) 0.78526(14)
O12 O 0.8167(5) 0.1889(4) 0.6258(3)
O13 O 0.4573(5) 0.4322(4) 1.2804(4)
H40 H 0.4503 0.3986 1.3137
O14 O 0.8405(5) -0.1372(5) 0.7961(3)
O15 O 0.7137(5) 0.5010(4) 1.3167(3)
O16 O 1.4361(4) 0.3126(4) 1.1228(3)
O17 O 0.9513(4) 0.3069(4) 0.6509(3)
O18 O 0.5162(5) 0.1830(4) 0.3323(4)
O19 O 0.8470(4) 0.6255(4) 1.3789(3)
O20 O 0.5123(5) -0.0726(5) 0.8225(4)
H41 H 0.4653 -0.1190 0.8127
O21 O 1.2248(4) -0.3268(4) 0.7606(3)
O22 O 0.5469(4) 0.5208(4) 1.1896(3)
H42 H 0.5833 0.5780 1.2280
O23 O 1.1345(5) 0.3224(4) 0.8368(3)
O24 O 0.7038(5) 0.8249(4) 1.6463(3)
C22 C 0.7251(6) 0.5915(6) 1.4424(4)
O25 O 0.8722(4) -0.0063(4) 0.7660(3)
O26 O 1.3462(5) 0.2096(5) 1.1582(3)
O27 O 0.8317(5) 0.2887(4) 0.7975(3)
O28 O 1.0101(5) 0.1923(5) 0.8004(4)
O29 O 0.6573(5) 0.7075(4) 1.6858(3)
C23 C 1.1365(7) 0.2376(7) 0.9220(5)
C24 C 1.0907(6) 0.2520(6) 0.8478(5)
O30 O 0.8026(5) 0.1700(4) 0.8414(3)
O31 O 0.2860(4) 0.3312(4) 0.7450(3)
O32 O 0.5898(5) 0.3053(5) 0.3075(4)
C25 C 1.2573(7) 0.2412(7) 1.0457(5)
C26 C 0.8600(7) 0.3178(7) 0.4995(5)
H43 H 0.9316 0.3503 0.5197
C27 C 0.6844(7) 0.7354(6) 1.6362(5)
C28 C 0.9023(6) -0.0776(6) 0.7843(4)
C29 C 0.6886(7) 0.2649(6) 0.4128(5)
C30 C 0.7645(6) 0.5712(6) 1.3744(4)
O33 O 1.3634(4) -0.2110(4) 0.8261(4)
C31 C 0.2453(7) 0.2423(6) 0.7121(5)
C32 C 1.3542(6) 0.2569(6) 1.1142(4)
C33 C 0.8157(7) 0.2654(7) 0.5337(5)
C34 C 0.6911(7) 0.6671(6) 1.5656(5)
O34 O 0.1441(4) 0.2166(4) 0.6890(3)
C35 C 0.8639(6) 0.2518(6) 0.6092(4)
C36 C 0.3207(7) 0.1725(6) 0.7035(5)
C37 C 1.0170(7) -0.0948(6) 0.7909(5)
C38 C 1.2610(7) -0.2387(6) 0.7952(5)
C39 C 1.1836(7) -0.1684(6) 0.7991(5)
C40 C 0.5908(7) 0.2502(7) 0.3462(5)
C41 C 1.0921(8) 0.1805(9) 0.9541(6)
H44 H 1.0229 0.1433 0.9311
C42 C 0.7872(8) 0.3190(7) 0.4294(5)
H45 H 0.8048 0.3527 0.3987
C43 C 0.4836(6) 0.0938(6) 0.7016(5)
C44 C 0.3931(7) 0.0294(7) 0.6881(6)
H46 H 0.3935 -0.0362 0.6800
C45 C 1.1605(8) 0.1832(9) 1.0245(6)
H47 H 1.1418 0.1485 1.0542
C46 C 0.2991(7) 0.0746(7) 0.6879(6)
H48 H 0.2296 0.0416 0.6782
C47 C 1.1052(7) -0.0309(7) 0.8003(6)
H49 H 1.1023 0.0330 0.8027
C48 C 1.2007(8) -0.0733(7) 0.8059(7)
H50 H 1.2690 -0.0399 0.8135
Dy1_2 Dy 0.59713(3) 0.38000(3) 0.22012(2)
Dy1_3 Dy 1.59713(3) 0.38000(3) 1.22012(2)
Dy1A Dy 1.40287(3) -0.38000(3) 0.77988(2)
Dy3_2 Dy 0.65195(3) 0.87579(3) 1.76319(2)
Dy3A Dy 0.34805(3) 0.12421(3) 0.23681(2)
Dy3A_2 Dy 1.34805(3) 0.12421(3) 1.23681(2)
Dy4A Dy 0.10991(3) 0.38548(3) 0.73609(2)
Dy4A_2 Dy 1.10991(3) 0.38548(3) 0.73609(2)
O16_2 O 0.4361(4) 0.3126(4) 1.1228(3)
O17A O 1.0487(4) 0.6931(4) 1.3491(3)
O18A O 0.4838(5) -0.1830(4) 0.6677(4)
O21A O 0.7752(4) 0.3268(4) 1.2394(3)
O23A O 0.8655(5) 0.6776(4) 1.1632(3)
O24_2 O 0.7038(5) -0.1751(4) 0.6463(3)
O26A O 0.6538(5) -0.2096(5) 0.8418(3)
O29_2 O 0.6573(5) -0.2925(4) 0.6858(3)
O31A O 0.7140(4) 0.6688(4) 1.2550(3)
O32_2 O 0.5898(5) 0.3053(5) 1.3075(4)
O33A O 0.6366(4) 0.2110(4) 1.1739(4)
O34A O 0.8559(4) 0.7834(4) 1.3110(3)
loop_
_geom_bond_atom_site_label_1
_geom_bond_atom_site_label_2
_geom_bond_site_symmetry_1
_geom_bond_site_symmetry_2
S1 C1 1_555 1_555
O3 H1 1_555 1_555
O4 H2 1_555 1_555
O5 C6 1_555 1_555
O6 H3 1_555 1_555
O7 C4 1_555 1_555
O8 H4 1_555 1_555
O9 C4 1_555 1_555
O10 C6 1_555 1_555
O11 H5 1_555 1_555
C1 C6 1_555 1_555
C2 H6 1_555 1_555
C3 C2 1_555 1_555
H7 C3 1_555 1_555
C4 C43 1_555 1_555
C5 H8 1_555 1_555
C7 C1 1_555 1_555
H9 C7 1_555 1_555
C8 S1 1_555 1_555
C9 C8 1_555 1_555
C10 H10 1_555 1_555
H11 C10 1_555 1_555
C11 O4 1_555 1_555
H12 C11 1_555 1_555
H13 C11 1_555 1_555
C12 C10 1_555 1_555
H14 C12 1_555 1_555
H15 C12 1_555 1_555
H16 C12 1_555 1_555
C13 C11 1_555 1_555
H17 C13 1_555 1_555
H18 C13 1_555 1_555
H19 C13 1_555 1_555
C14 O11 1_555 1_555
H20 C14 1_555 1_555
H21 C14 1_555 1_555
C15 O3 1_555 1_555
H22 C15 1_555 1_555
H23 C15 1_555 1_555
C16 C14 1_555 1_555
H24 C16 1_555 1_555
H25 C16 1_555 1_555
H26 C16 1_555 1_555
C17 C15 1_555 1_555
H27 C17 1_555 1_555
H28 C17 1_555 1_555
H29 C17 1_555 1_555
C18 O6 1_555 1_555
H30 C18 1_555 1_555
H31 C18 1_555 1_555
C19 C18 1_555 1_555
H32 C19 1_555 1_555
H33 C19 1_555 1_555
H34 C19 1_555 1_555
C20 H35 1_555 1_555
H36 C20 1_555 1_555
H37 C20 1_555 1_555
C21 C20 1_555 1_555
H38 C21 1_555 1_555
H39 C21 1_555 1_555
Dy1 O10 1_555 1_555
Dy2 O3 1_555 1_555
Dy3 O6 1_555 1_555
Dy4 O5 1_555 1_555
S2 C23 1_555 1_555
S3 C22 1_555 1_555
S4 C29 1_555 1_555
S5 C36 1_555 1_555
S6 C37 1_555 1_555
O12 Dy2 1_555 1_555
O13 C21 1_555 1_555
H40 O13 1_555 1_555
O14 Dy3 1_555 1_555
O15 Dy1 1_555 1_555
O16 C32 1_555 1_555
O17 C35 1_555 1_555
O18 C40 1_555 1_555
O19 Dy4 1_555 1_555
O20 Dy3 1_555 1_555
H41 O20 1_555 1_555
O21 C38 1_555 1_555
O22 C10 1_555 1_555
H42 O22 1_555 1_555
O23 C24 1_555 1_555
O24 C27 1_555 1_555
C22 C2 1_555 1_555
O25 Dy2 1_555 1_555
O26 C32 1_555 1_555
O27 C9 1_555 1_555
O28 Dy2 1_555 1_555
O29 C27 1_555 1_555
C23 C24 1_555 1_555
C24 O28 1_555 1_555
O30 C9 1_555 1_555
O31 C31 1_555 1_555
O32 C40 1_555 1_555
C25 S2 1_555 1_555
C26 H43 1_555 1_555
C27 C34 1_555 1_555
C28 O14 1_555 1_555
C29 C40 1_555 1_555
C30 O15 1_555 1_555
O33 C38 1_555 1_555
C31 O34 1_555 1_555
C32 C25 1_555 1_555
C33 S4 1_555 1_555
C34 C3 1_555 1_555
O34 Dy4A 1_555 1_555
C35 O12 1_555 1_555
C36 C31 1_555 1_555
C37 C28 1_555 1_555
C38 C39 1_555 1_555
C39 S6 1_555 1_555
C41 C23 1_555 1_555
H44 C41 1_555 1_555
C42 C26 1_555 1_555
H45 C42 1_555 1_555
C43 S5 1_555 1_555
C44 C43 1_555 1_555
H46 C44 1_555 1_555
C45 C25 1_555 1_555
H47 C45 1_555 1_555
C46 C36 1_555 1_555
H48 C46 1_555 1_555
C47 C37 1_555 1_555
H49 C47 1_555 1_555
C48 C39 1_555 1_555
H50 C48 1_555 1_555
Dy1_2 O32 1_555 1_555
Dy1_3 O16 1_555 1_555
Dy1A O21 1_555 1_555
Dy3_2 O24 1_555 1_555
Dy3A O18 1_555 1_555
Dy3A_2 O26 1_555 1_555
Dy4A O31 1_555 1_555
Dy4A_2 O17 1_555 1_555
O16_2 Dy1 1_555 1_555
O17A Dy4 1_555 1_555
O18A Dy3 1_555 1_555
O21A Dy1 1_555 1_555
O23A Dy4 1_555 1_555
O24_2 Dy3 1_555 1_555
O26A Dy3 1_555 1_555
O29_2 Dy3 1_555 1_555
O31A Dy4 1_555 1_555
O32_2 Dy1 1_555 1_555
O33A Dy1 1_555 1_555
O34A Dy4 1_555 1_555
O4 Dy2 1_555 1_555
O7 Dy3 1_555 1_555
O8 Dy4 1_555 1_555
O9 Dy2 1_555 1_555
O11 Dy4 1_555 1_555
C5 C7 1_555 1_555
C5 C8 1_555 1_555
Dy1 O13 1_555 1_555
Dy1 O22 1_555 1_555
Dy2 O27 1_555 1_555
Dy2 O30 1_555 1_555
S3 C34 1_555 1_555
O19 C30 1_555 1_555
O23 Dy4A_2 1_555 1_555
C22 C30 1_555 1_555
O25 C28 1_555 1_555
O29 Dy3_2 1_555 1_555
C26 C33 1_555 1_555
C29 C42 1_555 1_555
O33 Dy1A 1_555 1_555
C33 C35 1_555 1_555
C41 C45 1_555 1_555
C44 C46 1_555 1_555
C47 C48 1_555 1_555

#END
