
#######################################################################
#
#                 Cambridge Crystallographic Data Centre
#                                CCDC 
#
#######################################################################
#
# If this CIF has been generated from an entry in the Cambridge 
# Structural Database, then it will include bibliographic, chemical, 
# crystal, experimental, refinement or atomic coordinate data resulting 
# from the CCDC's data processing and validation procedures.
#
#######################################################################

data_CIGHAD
_symmetry_cell_setting           triclinic
_symmetry_space_group_name_H-M   'P -1'
_symmetry_Int_Tables_number      2
_space_group_name_Hall           '-P 1'
loop_
_symmetry_equiv_pos_site_id
_symmetry_equiv_pos_as_xyz
1 x,y,z
2 -x,-y,-z
_cell_length_a                   9.4713(19)
_cell_length_b                   12.967(3)
_cell_length_c                   19.570(4)
_cell_angle_alpha                89.69(3)
_cell_angle_beta                 89.95(3)
_cell_angle_gamma                71.40(3)
_cell_volume                     2277.91
loop_
_atom_site_label
_atom_site_type_symbol
_atom_site_fract_x
_atom_site_fract_y
_atom_site_fract_z
Cd1 Cd 0.44867(2) 0.917820(17) 0.430314(10)
Cd2 Cd 0.90811(2) 1.092041(18) 0.077756(11)
O1 O -0.1495(3) 0.21370(19) 0.69356(12)
O2 O -0.5332(3) 1.6104(2) 0.14589(13)
O3 O 0.6132(3) 0.87131(19) 0.34652(11)
O4 O 0.6109(3) 1.0436(2) 0.33278(12)
O5 O 1.0052(2) 0.73976(18) 0.04301(11)
O6 O 0.9780(2) 0.91602(17) 0.02790(10)
O7 O 0.0618(3) 1.1529(2) 0.14095(11)
O8 O 0.1447(3) 0.9784(2) 0.17109(12)
O9 O 0.3958(2) 1.09621(17) 0.47833(10)
O10 O 0.3513(3) 1.27083(17) 0.44945(11)
N1 N 0.2720(3) 0.8858(2) 0.50330(13)
N2 N 0.4397(3) 0.7377(2) 0.41380(13)
N3 N 0.2191(3) 0.4751(2) 0.51856(13)
H1 H 0.2521 0.4148 0.4967
N4 N 0.0934(3) 0.5971(2) 0.59557(14)
N5 N 0.7250(3) 1.2302(2) 0.14198(13)
N6 N 0.6781(3) 1.1467(2) 0.02062(13)
N7 N 0.1436(3) 1.3447(2) 0.05482(14)
N8 N 0.1823(3) 1.4139(2) 0.15523(14)
H2 H 0.1676 1.4497 0.1929
N9 N 0.8329(3) 0.9677(2) 0.14828(13)
N10 N 0.2942(3) 1.0512(2) 0.35765(13)
C1 C 0.1924(4) 0.9585(3) 0.54686(17)
H3 H 0.1978 1.0288 0.5446
C2 C 0.1000(4) 0.9349(3) 0.59651(18)
H4 H 0.0453 0.9884 0.6263
C3 C 0.0922(4) 0.8318(3) 0.60018(17)
H5 H 0.0316 0.8144 0.6327
C4 C 0.1755(3) 0.7524(2) 0.55498(16)
C5 C 0.1732(3) 0.6429(2) 0.55342(16)
C6 C 0.2529(3) 0.5695(2) 0.50558(16)
C7 C 0.3474(3) 0.5955(2) 0.45614(16)
C8 C 0.4335(4) 0.5238(3) 0.40752(16)
H6 H 0.4316 0.4527 0.4047
C9 C 0.5207(4) 0.5605(3) 0.36421(17)
H7 H 0.5796 0.5142 0.3318
C10 C 0.5210(4) 0.6681(3) 0.36892(16)
H8 H 0.5810 0.6916 0.3391
C11 C 0.3525(3) 0.7034(2) 0.45765(15)
C12 C 0.2654(3) 0.7827(2) 0.50636(15)
C13 C 0.1231(3) 0.4961(3) 0.57278(17)
C14 C 0.0576(3) 0.4194(2) 0.60359(16)
C15 C -0.0339(4) 0.4532(3) 0.66079(17)
H9 H -0.0474 0.5223 0.6782
C16 C -0.1045(4) 0.3883(3) 0.69228(17)
H10 H -0.1644 0.4130 0.7303
C17 C -0.0847(4) 0.2853(3) 0.66629(17)
C18 C 0.0050(4) 0.2492(3) 0.60961(17)
H11 H 0.0173 0.1802 0.5922
C19 C 0.0764(4) 0.3151(3) 0.57871(17)
H12 H 0.1374 0.2898 0.5411
C20 C -0.2413(5) 0.2506(3) 0.75327(19)
H13 H -0.2809 0.1948 0.7683
H14 H -0.3217 0.3152 0.7421
H15 H -0.1821 0.2663 0.7891
C21 C 0.7502(4) 1.2659(3) 0.20288(18)
H16 H 0.8482 1.2486 0.2179
C22 C 0.6372(4) 1.3277(3) 0.24529(19)
H17 H 0.6594 1.3483 0.2884
C23 C 0.4926(4) 1.3579(3) 0.22269(17)
H18 H 0.4157 1.4003 0.2499
C24 C 0.4622(4) 1.3239(2) 0.15803(16)
C25 C 0.3162(3) 1.3502(3) 0.12892(16)
C26 C 0.2947(3) 1.3068(3) 0.06703(16)
C27 C 0.4131(4) 1.2385(3) 0.02715(17)
C28 C 0.3959(4) 1.1981(3) -0.03761(18)
H19 H 0.3020 1.2150 -0.0575
C29 C 0.5188(4) 1.1335(4) -0.07119(19)
H20 H 0.5099 1.1064 -0.1143
C30 C 0.6581(4) 1.1090(3) -0.03959(18)
H21 H 0.7408 1.0637 -0.0623
C31 C 0.5575(3) 1.2125(3) 0.05449(16)
C32 C 0.5825(3) 1.2564(2) 0.11982(16)
C33 C 0.0807(3) 1.4083(3) 0.11009(16)
C34 C -0.0792(3) 1.4601(3) 0.11676(16)
C35 C -0.1780(4) 1.4597(3) 0.06455(18)
H22 H -0.1416 1.4259 0.0234
C36 C -0.3305(4) 1.5089(3) 0.07279(18)
H23 H -0.3952 1.5077 0.0373
C37 C -0.3861(4) 1.5595(3) 0.13320(17)
C38 C -0.2884(4) 1.5607(3) 0.18572(17)
H24 H -0.3253 1.5949 0.2267
C39 C -0.1378(4) 1.5120(3) 0.17785(17)
H25 H -0.0738 1.5136 0.2136
C40 C -0.6375(4) 1.6121(3) 0.0923(2)
H26 H -0.7368 1.6500 0.1076
H27 H -0.6304 1.5388 0.0805
H28 H -0.6152 1.6485 0.0529
C41 C 0.6455(4) 0.9477(3) 0.31582(16)
C42 C 0.7352(3) 0.9128(3) 0.25052(15)
C43 C 0.7953(4) 0.8051(3) 0.23265(16)
H29 H 0.7840 0.7505 0.2610
C44 C 0.8731(3) 0.7793(3) 0.17155(16)
H30 H 0.9143 0.7071 0.1584
C45 C 0.8886(3) 0.8619(2) 0.13074(15)
C46 C 0.9646(3) 0.8365(3) 0.06177(15)
C47 C 0.7591(3) 0.9904(3) 0.20746(15)
H31 H 0.7214 1.0629 0.2204
C48 C 0.1290(4) 1.0754(3) 0.18098(16)
C49 C 0.1869(3) 1.1072(3) 0.24681(16)
C50 C 0.1836(3) 1.2127(3) 0.26012(16)
H32 H 0.1456 1.2673 0.2278
C51 C 0.2374(3) 1.2365(3) 0.32201(16)
H33 H 0.2363 1.3070 0.3315
C52 C 0.3517(3) 1.1770(2) 0.43758(15)
C53 C 0.2923(3) 1.1543(2) 0.36919(15)
C54 C 0.2432(3) 1.0295(3) 0.29781(16)
H34 H 0.2453 0.9585 0.2896
Cd1A Cd 0.55133(2) 1.082180(17) 0.569686(10)
Cd2_2 Cd -0.09189(2) 1.092041(18) 0.077756(11)
Cd2A Cd 1.09189(2) 0.907959(18) -0.077756(11)
O6A O 1.0220(2) 1.08398(17) -0.02790(10)
O7_2 O 1.0618(3) 1.1529(2) 0.14095(11)
O9A O 0.6042(2) 0.90379(17) 0.52167(10)
loop_
_geom_bond_atom_site_label_1
_geom_bond_atom_site_label_2
_geom_bond_site_symmetry_1
_geom_bond_site_symmetry_2
Cd1 O3 1_555 1_555
Cd2 O6 1_555 1_555
O1 C17 1_555 1_555
O2 C37 1_555 1_555
O3 C41 1_555 1_555
O4 C41 1_555 1_555
O5 C46 1_555 1_555
O6 C46 1_555 1_555
O7 C48 1_555 1_555
O8 C48 1_555 1_555
O9 Cd1 1_555 1_555
O10 C52 1_555 1_555
N1 Cd1 1_555 1_555
N2 Cd1 1_555 1_555
N3 H1 1_555 1_555
N4 C5 1_555 1_555
N5 Cd2 1_555 1_555
N6 Cd2 1_555 1_555
N7 C26 1_555 1_555
N8 H2 1_555 1_555
N9 Cd2 1_555 1_555
N10 Cd1 1_555 1_555
C1 N1 1_555 1_555
H3 C1 1_555 1_555
C2 C1 1_555 1_555
H4 C2 1_555 1_555
C3 C2 1_555 1_555
H5 C3 1_555 1_555
C4 C3 1_555 1_555
C5 C4 1_555 1_555
C6 N3 1_555 1_555
C7 C6 1_555 1_555
C8 C7 1_555 1_555
H6 C8 1_555 1_555
C9 C8 1_555 1_555
H7 C9 1_555 1_555
C10 N2 1_555 1_555
H8 C10 1_555 1_555
C11 N2 1_555 1_555
C12 N1 1_555 1_555
C13 N3 1_555 1_555
C14 C13 1_555 1_555
C15 C14 1_555 1_555
H9 C15 1_555 1_555
C16 C15 1_555 1_555
H10 C16 1_555 1_555
C17 C16 1_555 1_555
C18 C17 1_555 1_555
H11 C18 1_555 1_555
C19 C14 1_555 1_555
H12 C19 1_555 1_555
C20 O1 1_555 1_555
H13 C20 1_555 1_555
H14 C20 1_555 1_555
H15 C20 1_555 1_555
C21 N5 1_555 1_555
H16 C21 1_555 1_555
C22 C21 1_555 1_555
H17 C22 1_555 1_555
C23 C22 1_555 1_555
H18 C23 1_555 1_555
C24 C23 1_555 1_555
C25 N8 1_555 1_555
C26 C25 1_555 1_555
C27 C26 1_555 1_555
C28 C27 1_555 1_555
H19 C28 1_555 1_555
C29 C28 1_555 1_555
H20 C29 1_555 1_555
C30 N6 1_555 1_555
H21 C30 1_555 1_555
C31 N6 1_555 1_555
C32 N5 1_555 1_555
C33 N7 1_555 1_555
C34 C33 1_555 1_555
C35 C34 1_555 1_555
H22 C35 1_555 1_555
C36 C35 1_555 1_555
H23 C36 1_555 1_555
C37 C36 1_555 1_555
C38 C37 1_555 1_555
H24 C38 1_555 1_555
C39 C34 1_555 1_555
H25 C39 1_555 1_555
C40 O2 1_555 1_555
H26 C40 1_555 1_555
H27 C40 1_555 1_555
H28 C40 1_555 1_555
C41 C42 1_555 1_555
C42 C43 1_555 1_555
C43 H29 1_555 1_555
C44 C43 1_555 1_555
H30 C44 1_555 1_555
C45 N9 1_555 1_555
C46 C45 1_555 1_555
C47 N9 1_555 1_555
H31 C47 1_555 1_555
C48 C49 1_555 1_555
C49 C50 1_555 1_555
C50 H32 1_555 1_555
C51 C50 1_555 1_555
H33 C51 1_555 1_555
C52 O9 1_555 1_555
C53 N10 1_555 1_555
C54 N10 1_555 1_555
H34 C54 1_555 1_555
Cd1A O9 1_555 1_555
Cd2_2 O7 1_555 1_555
Cd2A O6 1_555 1_555
O6A Cd2 1_555 1_555
O7_2 Cd2 1_555 1_555
O9A Cd1 1_555 1_555
N4 C13 1_555 1_555
N8 C33 1_555 1_555
C4 C12 1_555 1_555
C5 C6 1_555 1_555
C7 C11 1_555 1_555
C9 C10 1_555 1_555
C11 C12 1_555 1_555
C18 C19 1_555 1_555
C24 C25 1_555 1_555
C24 C32 1_555 1_555
C27 C31 1_555 1_555
C29 C30 1_555 1_555
C31 C32 1_555 1_555
C38 C39 1_555 1_555
C42 C47 1_555 1_555
C44 C45 1_555 1_555
C49 C54 1_555 1_555
C51 C53 1_555 1_555
C52 C53 1_555 1_555
Cd1A O9A 1_555 1_555
Cd2A O6A 1_555 1_555

#END
