
#######################################################################
#
#                 Cambridge Crystallographic Data Centre
#                                CCDC 
#
#######################################################################
#
# If this CIF has been generated from an entry in the Cambridge 
# Structural Database, then it will include bibliographic, chemical, 
# crystal, experimental, refinement or atomic coordinate data resulting 
# from the CCDC's data processing and validation procedures.
#
#######################################################################

data_CIGHIL
_symmetry_cell_setting           triclinic
_symmetry_space_group_name_H-M   'P -1'
_symmetry_Int_Tables_number      2
_space_group_name_Hall           '-P 1'
loop_
_symmetry_equiv_pos_site_id
_symmetry_equiv_pos_as_xyz
1 x,y,z
2 -x,-y,-z
_cell_length_a                   10.1326(5)
_cell_length_b                   10.1834(4)
_cell_length_c                   15.5265(8)
_cell_angle_alpha                96.308(4)
_cell_angle_beta                 97.128(4)
_cell_angle_gamma                113.890(4)
_cell_volume                     1430.69
loop_
_atom_site_label
_atom_site_type_symbol
_atom_site_fract_x
_atom_site_fract_y
_atom_site_fract_z
Ho1 Ho 0.44449(3) 0.63135(2) 0.588462(18)
C1 C 0.4221(5) 0.5789(5) 0.3596(4)
C2 C 0.4656(6) 1.0810(5) 0.3362(4)
C3 C 0.3870(5) 0.6793(5) 0.3061(4)
C4 C 0.4335(5) 0.8251(5) 0.3440(4)
H1 H 0.4748 0.8562 0.4036
C5 C 0.4185(5) 0.9248(5) 0.2928(4)
C6 C 0.3585(5) 0.8782(5) 0.2037(4)
C7 C 0.3064(5) 0.7313(5) 0.1678(4)
H2 H 0.2603 0.6989 0.1090
C8 C 0.3218(5) 0.6317(5) 0.2182(4)
C9 C 0.3369(6) 0.9758(5) 0.1410(4)
C10 C 0.4718(6) 1.0854(5) 0.1164(4)
C11 C 0.6044(6) 1.0768(6) 0.1282(4)
H3 H 0.6129 1.0013 0.1536
C12 C 0.7255(7) 1.1786(7) 0.1029(5)
H4 H 0.8146 1.1712 0.1102
C13 C 0.7116(8) 1.2908(7) 0.0668(5)
H5 H 0.7929 1.3610 0.0508
C14 C 0.5812(8) 1.3010(6) 0.0542(5)
H6 H 0.5745 1.3786 0.0305
C15 C 0.4591(7) 1.1973(6) 0.0761(5)
H7 H 0.3687 1.2013 0.0643
C16 C 0.2587(6) 0.4739(5) 0.1722(4)
C17 C 0.1525(6) 0.3607(5) 0.2125(4)
C18 C 0.1223(6) 0.2153(6) 0.1860(5)
H8 H 0.1682 0.1893 0.1433
C19 C 0.0235(7) 0.1093(6) 0.2233(5)
H9 H 0.0051 0.0122 0.2059
C20 C -0.0470(7) 0.1429(6) 0.2844(5)
H10 H -0.1139 0.0693 0.3080
C21 C -0.0198(6) 0.2859(6) 0.3117(5)
H11 H -0.0689 0.3097 0.3533
C22 C 0.0813(6) 0.3944(6) 0.2767(4)
H12 H 0.1020 0.4915 0.2965
C23 C 0.7539(5) 0.7257(5) 0.5028(4)
C24 C 0.8826(5) 0.8666(5) 0.5002(4)
C25 C 0.9040(5) 0.9906(5) 0.5575(4)
H13 H 0.8400 0.9848 0.5965
C26 C 0.9784(5) 0.8745(5) 0.4426(4)
C27 C 0.9695(6) 0.7504(5) 0.3763(4)
C28 C 0.8954(6) 0.7326(5) 0.2844(4)
C29 C 0.9554(7) 0.6970(6) 0.2162(4)
H14 H 1.0392 0.6807 0.2280
C30 C 0.8918(8) 0.6853(6) 0.1293(5)
H15 H 0.9359 0.6664 0.0834
C31 C 0.7644(8) 0.7016(6) 0.1117(5)
H16 H 0.7203 0.6917 0.0537
C32 C 0.7015(7) 0.7328(6) 0.1801(5)
H17 H 0.6133 0.7411 0.1678
C33 C 0.7672(6) 0.7517(5) 0.2660(4)
H18 H 0.7262 0.7772 0.3117
O1 O 0.4522(4) 0.4839(3) 0.3203(3)
O2 O 0.4234(4) 0.5975(4) 0.4408(3)
O3 O 0.5399(4) 1.1288(4) 0.4129(3)
O4 O 0.4260(4) 1.1612(3) 0.2926(3)
O5 O 0.2155(4) 0.9560(4) 0.1081(3)
O6 O 0.2907(5) 0.4458(4) 0.1026(3)
O7 O 0.7323(4) 0.6163(3) 0.4471(3)
O8 O 0.6780(4) 0.7290(3) 0.5608(3)
O9 O 1.0395(4) 0.6793(4) 0.3956(3)
O10 O 0.1983(4) 0.6119(4) 0.5336(3)
H19 H 0.1383 0.5383 0.5512
H20 H 0.1512 0.6323 0.4920
O11 O 0.3149(4) 0.6035(4) 0.7094(3)
H21 H 0.2764 0.5153 0.7175
H22 H 0.3122 0.6565 0.7558
C23A C 1.2461(5) 1.2743(5) 0.4972(4)
C24A C 1.1174(5) 1.1334(5) 0.4998(4)
C25A C 1.0960(5) 1.0094(5) 0.4425(4)
H13A H 1.1600 1.0152 0.4035
C26A C 1.0216(5) 1.1255(5) 0.5574(4)
C27A C 1.0305(6) 1.2496(5) 0.6237(4)
C28A C 1.1046(6) 1.2674(5) 0.7156(4)
C29A C 1.0446(7) 1.3030(6) 0.7838(4)
H14A H 0.9608 1.3193 0.7720
C30A C 1.1082(8) 1.3147(6) 0.8707(5)
H15A H 1.0641 1.3336 0.9166
C31A C 1.2356(8) 1.2984(6) 0.8883(5)
H16A H 1.2797 1.3083 0.9463
C32A C 1.2985(7) 1.2672(6) 0.8199(5)
H17A H 1.3867 1.2589 0.8322
C33A C 1.2328(6) 1.2483(5) 0.7340(4)
H18A H 1.2738 1.2228 0.6883
O7A O 1.2677(4) 1.3837(3) 0.5529(3)
O8A O 1.3220(4) 1.2710(3) 0.4392(3)
O9A O 0.9605(4) 1.3207(4) 0.6044(3)
Ho1A Ho 0.55551(3) 0.36865(2) 0.411538(18)
C1A C 0.5779(5) 0.4211(5) 0.6404(4)
C2A C 0.5344(6) -0.0810(5) 0.6638(4)
C3A C 0.6130(5) 0.3207(5) 0.6939(4)
C4A C 0.5665(5) 0.1749(5) 0.6560(4)
H1A H 0.5252 0.1438 0.5964
C5A C 0.5815(5) 0.0752(5) 0.7072(4)
C6A C 0.6415(5) 0.1218(5) 0.7963(4)
C7A C 0.6936(5) 0.2687(5) 0.8322(4)
H2A H 0.7397 0.3011 0.8910
C8A C 0.6782(5) 0.3683(5) 0.7818(4)
C9A C 0.6631(6) 0.0242(5) 0.8590(4)
C10A C 0.5282(6) -0.0854(5) 0.8836(4)
C11A C 0.3956(6) -0.0768(6) 0.8718(4)
H3A H 0.3871 -0.0013 0.8464
C12A C 0.2745(7) -0.1786(7) 0.8971(5)
H4A H 0.1854 -0.1712 0.8898
C13A C 0.2884(8) -0.2908(7) 0.9332(5)
H5A H 0.2071 -0.3610 0.9492
C14A C 0.4188(8) -0.3010(6) 0.9458(5)
H6A H 0.4255 -0.3786 0.9695
C15A C 0.5409(7) -0.1973(6) 0.9239(5)
H7A H 0.6313 -0.2013 0.9357
C16A C 0.7413(6) 0.5261(5) 0.8278(4)
C17A C 0.8475(6) 0.6393(5) 0.7875(4)
C18A C 0.8777(6) 0.7847(6) 0.8140(5)
H8A H 0.8318 0.8107 0.8567
C19A C 0.9765(7) 0.8907(6) 0.7767(5)
H9A H 0.9949 0.9878 0.7941
C20A C 1.0470(7) 0.8571(6) 0.7156(5)
H10A H 1.1139 0.9307 0.6920
C21A C 1.0198(6) 0.7141(6) 0.6883(5)
H11A H 1.0689 0.6903 0.6467
C22A C 0.9187(6) 0.6056(6) 0.7233(4)
H12A H 0.8980 0.5085 0.7035
O1A O 0.5478(4) 0.5161(3) 0.6797(3)
O2A O 0.5766(4) 0.4025(4) 0.5592(3)
O3A O 0.4601(4) -0.1288(4) 0.5871(3)
O4A O 0.5740(4) -0.1612(3) 0.7074(3)
O5A O 0.7845(4) 0.0440(4) 0.8919(3)
O6A O 0.7093(5) 0.5542(4) 0.8974(3)
O10A O 0.8017(4) 0.3881(4) 0.4664(3)
H19A H 0.8617 0.4617 0.4488
H20A H 0.8488 0.3677 0.5080
O11A O 0.6851(4) 0.3965(4) 0.2906(3)
H21A H 0.7236 0.4847 0.2825
H22A H 0.6878 0.3435 0.2442
Ho1_2 Ho 0.44449(3) -0.36865(2) 0.588462(18)
Ho1_3 Ho 1.44449(3) 1.63135(2) 0.588462(18)
Ho1A_2 Ho 0.55551(3) 1.36865(2) 0.411538(18)
Ho1A_3 Ho 1.55551(3) 1.36865(2) 0.411538(18)
O3_2 O 0.5399(4) 0.1288(4) 0.4129(3)
O3A_2 O 0.4601(4) 0.8712(4) 0.5871(3)
O4_2 O 0.4260(4) 0.1612(3) 0.2926(3)
O4A_2 O 0.5740(4) 0.8388(3) 0.7074(3)
O7A_2 O 0.2677(4) 0.3837(3) 0.5529(3)
O8A_2 O 0.3220(4) 0.2710(3) 0.4392(3)
loop_
_geom_bond_atom_site_label_1
_geom_bond_atom_site_label_2
_geom_bond_site_symmetry_1
_geom_bond_site_symmetry_2
Ho1 O2 1_555 1_555
C1 C3 1_555 1_555
C2 C5 1_555 1_555
C3 C4 1_555 1_555
C4 H1 1_555 1_555
C5 C4 1_555 1_555
C6 C5 1_555 1_555
C7 C6 1_555 1_555
H2 C7 1_555 1_555
C8 C3 1_555 1_555
C9 C6 1_555 1_555
C10 C9 1_555 1_555
C11 C10 1_555 1_555
H3 C11 1_555 1_555
C12 C11 1_555 1_555
H4 C12 1_555 1_555
C13 C12 1_555 1_555
H5 C13 1_555 1_555
C14 C13 1_555 1_555
H6 C14 1_555 1_555
C15 C10 1_555 1_555
H7 C15 1_555 1_555
C16 C8 1_555 1_555
C17 C16 1_555 1_555
C18 C17 1_555 1_555
H8 C18 1_555 1_555
C19 C18 1_555 1_555
H9 C19 1_555 1_555
C20 C19 1_555 1_555
H10 C20 1_555 1_555
C21 C20 1_555 1_555
H11 C21 1_555 1_555
C22 C17 1_555 1_555
H12 C22 1_555 1_555
C23 C24 1_555 1_555
C24 C25 1_555 1_555
C25 H13 1_555 1_555
C26 C24 1_555 1_555
C27 C26 1_555 1_555
C28 C27 1_555 1_555
C29 C28 1_555 1_555
H14 C29 1_555 1_555
C30 C29 1_555 1_555
H15 C30 1_555 1_555
C31 C30 1_555 1_555
H16 C31 1_555 1_555
C32 C31 1_555 1_555
H17 C32 1_555 1_555
C33 C28 1_555 1_555
H18 C33 1_555 1_555
O1 C1 1_555 1_555
O2 C1 1_555 1_555
O3 C2 1_555 1_555
O4 C2 1_555 1_555
O5 C9 1_555 1_555
O6 C16 1_555 1_555
O7 C23 1_555 1_555
O8 Ho1 1_555 1_555
O9 C27 1_555 1_555
O10 Ho1 1_555 1_555
H19 O10 1_555 1_555
H20 O10 1_555 1_555
O11 Ho1 1_555 1_555
H21 O11 1_555 1_555
H22 O11 1_555 1_555
C23A C24A 1_555 1_555
C24A C25A 1_555 1_555
C25A C26 1_555 1_555
H13A C25A 1_555 1_555
C26A C25 1_555 1_555
C27A C26A 1_555 1_555
C28A C27A 1_555 1_555
C29A C28A 1_555 1_555
H14A C29A 1_555 1_555
C30A C29A 1_555 1_555
H15A C30A 1_555 1_555
C31A C30A 1_555 1_555
H16A C31A 1_555 1_555
C32A C31A 1_555 1_555
H17A C32A 1_555 1_555
C33A C28A 1_555 1_555
H18A C33A 1_555 1_555
O7A C23A 1_555 1_555
O8A C23A 1_555 1_555
O9A C27A 1_555 1_555
Ho1A O1 1_555 1_555
C1A C3A 1_555 1_555
C2A C5A 1_555 1_555
C3A C4A 1_555 1_555
C4A H1A 1_555 1_555
C5A C4A 1_555 1_555
C6A C5A 1_555 1_555
C7A C6A 1_555 1_555
H2A C7A 1_555 1_555
C8A C3A 1_555 1_555
C9A C6A 1_555 1_555
C10A C9A 1_555 1_555
C11A C10A 1_555 1_555
H3A C11A 1_555 1_555
C12A C11A 1_555 1_555
H4A C12A 1_555 1_555
C13A C12A 1_555 1_555
H5A C13A 1_555 1_555
C14A C13A 1_555 1_555
H6A C14A 1_555 1_555
C15A C10A 1_555 1_555
H7A C15A 1_555 1_555
C16A C8A 1_555 1_555
C17A C16A 1_555 1_555
C18A C17A 1_555 1_555
H8A C18A 1_555 1_555
C19A C18A 1_555 1_555
H9A C19A 1_555 1_555
C20A C19A 1_555 1_555
H10A C20A 1_555 1_555
C21A C20A 1_555 1_555
H11A C21A 1_555 1_555
C22A C17A 1_555 1_555
H12A C22A 1_555 1_555
O1A Ho1 1_555 1_555
O2A Ho1A 1_555 1_555
O3A C2A 1_555 1_555
O4A C2A 1_555 1_555
O5A C9A 1_555 1_555
O6A C16A 1_555 1_555
O10A Ho1A 1_555 1_555
H19A O10A 1_555 1_555
H20A O10A 1_555 1_555
O11A Ho1A 1_555 1_555
H21A O11A 1_555 1_555
H22A O11A 1_555 1_555
Ho1_2 O3A 1_555 1_555
Ho1_3 O7A 1_555 1_555
Ho1A_2 O3 1_555 1_555
Ho1A_3 O8A 1_555 1_555
O3_2 Ho1A 1_555 1_555
O3A_2 Ho1 1_555 1_555
O4_2 Ho1A 1_555 1_555
O4A_2 Ho1 1_555 1_555
O7A_2 Ho1 1_555 1_555
O8A_2 Ho1A 1_555 1_555
C7 C8 1_555 1_555
C14 C15 1_555 1_555
C21 C22 1_555 1_555
C23 O8 1_555 1_555
C32 C33 1_555 1_555
O4 Ho1A_2 1_555 1_555
O7 Ho1A 1_555 1_555
C24A C26A 1_555 1_555
C32A C33A 1_555 1_555
C1A O1A 1_555 1_555
C1A O2A 1_555 1_555
C7A C8A 1_555 1_555
C14A C15A 1_555 1_555
C21A C22A 1_555 1_555
O4A Ho1_2 1_555 1_555

#END
