
#######################################################################
#
#                 Cambridge Crystallographic Data Centre
#                                CCDC 
#
#######################################################################
#
# If this CIF has been generated from an entry in the Cambridge 
# Structural Database, then it will include bibliographic, chemical, 
# crystal, experimental, refinement or atomic coordinate data resulting 
# from the CCDC's data processing and validation procedures.
#
#######################################################################

data_CIGNOW
_symmetry_cell_setting           monoclinic
_symmetry_space_group_name_H-M   'P 21/c'
_symmetry_Int_Tables_number      14
_space_group_name_Hall           '-P 2ybc'
loop_
_symmetry_equiv_pos_site_id
_symmetry_equiv_pos_as_xyz
1 x,y,z
2 -x,1/2+y,1/2-z
3 -x,-y,-z
4 x,1/2-y,1/2+z
_cell_length_a                   7.279(1)
_cell_length_b                   12.095(2)
_cell_length_c                   12.185(3)
_cell_angle_alpha                90
_cell_angle_beta                 120.21(2)
_cell_angle_gamma                90
_cell_volume                     927.066
loop_
_atom_site_label
_atom_site_type_symbol
_atom_site_fract_x
_atom_site_fract_y
_atom_site_fract_z
Co1 Co 0.26019(6) -0.24551(3) 0.51395(3)
N1 N 0.2642(4) -0.32108(19) 0.6688(2)
C1 C 0.2665(5) -0.2727(2) 0.7668(3)
H1 H 0.2739 -0.1959 0.7710
N2 N 0.2591(4) -0.32581(19) 0.8592(2)
C2 C 0.2469(4) -0.4365(2) 0.8532(3)
C3 C 0.2460(5) -0.4941(2) 0.7552(3)
H2 H 0.2410 -0.5709 0.7519
C4 C 0.2529(5) -0.4317(2) 0.6618(3)
C5 C 0.2479(5) -0.4812(2) 0.5449(3)
C6 C 0.2421(5) -0.4903(2) 0.9649(3)
O1 O 0.2448(3) -0.41178(16) 0.46637(18)
O2 O 0.2441(4) -0.58222(17) 0.5341(2)
O3 O 0.2545(3) -0.42521(16) 1.04901(18)
O4 O 0.2313(4) -0.59218(17) 0.9665(2)
O5 O 0.5891(3) -0.25010(17) 0.61471(19)
H3 H 0.6600 -0.3027 0.6573
H4 H 0.6366 -0.2049 0.5828
O6 O -0.0734(3) -0.23845(16) 0.41995(19)
H5 H -0.1157 -0.1815 0.4435
H6 H -0.1266 -0.2978 0.4268
Co1C Co 0.26019(6) -0.25449(3) 1.01395(3)
N2C N 0.2591(4) -0.17419(19) 0.3592(2)
O3C O 0.2545(3) -0.07479(16) 0.54901(18)
O7 O 0.7403(4) -0.4558(2) 0.7310(2)
H7 H 0.7440 -0.4976 0.7875
H8 H 0.6944 -0.4946 0.6639
loop_
_geom_bond_atom_site_label_1
_geom_bond_atom_site_label_2
_geom_bond_site_symmetry_1
_geom_bond_site_symmetry_2
Co1 N1 1_555 1_555
N1 C1 1_555 1_555
C1 H1 1_555 1_555
N2 C1 1_555 1_555
C2 N2 1_555 1_555
C3 C2 1_555 1_555
H2 C3 1_555 1_555
C4 N1 1_555 1_555
C5 C4 1_555 1_555
C6 C2 1_555 1_555
O1 Co1 1_555 1_555
O2 C5 1_555 1_555
O3 C6 1_555 1_555
O4 C6 1_555 1_555
O5 Co1 1_555 1_555
H3 O5 1_555 1_555
H4 O5 1_555 1_555
O6 Co1 1_555 1_555
H5 O6 1_555 1_555
H6 O6 1_555 1_555
O7 H7 1_555 1_555
H8 O7 1_555 1_555
Co1C N2 1_555 1_555
N2C Co1 1_555 1_555
O3C Co1 1_555 1_555
C3 C4 1_555 1_555
C5 O1 1_555 1_555
O3 Co1C 1_555 1_555

#END
