
#######################################################################
#
#                 Cambridge Crystallographic Data Centre
#                                CCDC 
#
#######################################################################
#
# If this CIF has been generated from an entry in the Cambridge 
# Structural Database, then it will include bibliographic, chemical, 
# crystal, experimental, refinement or atomic coordinate data resulting 
# from the CCDC's data processing and validation procedures.
#
#######################################################################

data_CIGNEM
_symmetry_cell_setting           orthorhombic
_symmetry_space_group_name_H-M   'P n m a'
_symmetry_Int_Tables_number      62
_space_group_name_Hall           '-P 2ac 2n'
loop_
_symmetry_equiv_pos_site_id
_symmetry_equiv_pos_as_xyz
1 x,y,z
2 1/2-x,-y,1/2+z
3 1/2+x,1/2-y,1/2-z
4 -x,1/2+y,-z
5 -x,-y,-z
6 1/2+x,y,1/2-z
7 1/2-x,1/2+y,1/2+z
8 x,1/2-y,z
_cell_length_a                   6.8143(3)
_cell_length_b                   18.1270(8)
_cell_length_c                   6.3397(2)
_cell_angle_alpha                90
_cell_angle_beta                 90
_cell_angle_gamma                90
_cell_volume                     783.098
loop_
_atom_site_label
_atom_site_type_symbol
_atom_site_fract_x
_atom_site_fract_y
_atom_site_fract_z
K1 K -0.50733(6) -0.05962(2) 0.24920(8)
O1 O -0.2425(2) -0.05398(8) 0.6184(3)
O2 O -0.2464(2) -0.11269(10) 0.9274(2)
N1 N -0.2912(3) -0.18407(10) 0.4118(3)
C1 C -0.2539(2) -0.18448(11) 0.6194(3)
C2 C -0.2310(4) -0.2500 0.7278(4)
H1 H -0.2008 -0.2500 0.8709
C3 C -0.2461(3) -0.10997(11) 0.7327(3)
C4 C -0.3079(5) -0.2500 0.3206(5)
H2 H -0.3341 -0.2500 0.1767
K1G K -0.50733(6) -0.44038(2) 0.24920(8)
K1E K -1.00733(6) -0.05962(2) 0.25080(8)
K1E_2 K -0.00733(6) -0.05962(2) 0.25080(8)
K1D K -0.49267(6) 0.05962(2) -0.24920(8)
K1D_2 K -0.49267(6) 0.05962(2) 0.75080(8)
K1A K 0.00733(6) 0.05962(2) 0.74920(8)
K1_2 K -0.50733(6) -0.05962(2) 1.24920(8)
K1E_3 K -0.00733(6) -0.05962(2) 1.25080(8)
K1B K -0.00733(6) -0.44038(2) 0.25080(8)
K1F K 0.00733(6) -0.55962(2) 0.74920(8)
K1C K -0.49267(6) -0.55962(2) 0.75080(8)
K1G_2 K -0.50733(6) -0.44038(2) 1.24920(8)
K1B_2 K -0.00733(6) -0.44038(2) 1.25080(8)
K1B_3 K -1.00733(6) -0.44038(2) 0.25080(8)
K1C_2 K -0.49267(6) -0.55962(2) -0.24920(8)
O1G O -0.2425(2) -0.44602(8) 0.6184(3)
O1E O -0.7425(2) -0.05398(8) -0.1184(3)
O1D O -0.7575(2) 0.05398(8) 0.3816(3)
O1A O -0.2575(2) 0.05398(8) 0.1184(3)
O1F O -0.2575(2) -0.55398(8) 0.1184(3)
O1B O -0.7425(2) -0.44602(8) -0.1184(3)
O1C O -0.7575(2) -0.55398(8) 0.3816(3)
O2G O -0.2464(2) -0.38731(10) 0.9274(2)
O2_2 O -0.2464(2) -0.11269(10) -0.0726(2)
O2E O -0.7464(2) -0.11269(10) 0.5726(2)
O2G_2 O -0.2464(2) -0.38731(10) -0.0726(2)
O2B O -0.7464(2) -0.38731(10) 0.5726(2)
N1G N -0.2912(3) -0.31593(10) 0.4118(3)
N1E N -0.7912(3) -0.18407(10) 0.0882(3)
N1B N -0.7912(3) -0.31593(10) 0.0882(3)
C1G C -0.2539(2) -0.31552(11) 0.6194(3)
C3G C -0.2461(3) -0.39003(11) 0.7327(3)
loop_
_geom_bond_atom_site_label_1
_geom_bond_atom_site_label_2
_geom_bond_site_symmetry_1
_geom_bond_site_symmetry_2
K1 O1 1_555 1_555
O1 C3 1_555 1_555
O2 C3 1_555 1_555
N1 K1 1_555 1_555
C1 N1 1_555 1_555
C2 C1 1_555 1_555
H1 C2 1_555 1_555
C3 C1 1_555 1_555
C4 N1 1_555 1_555
H2 C4 1_555 1_555
K1G O1G 1_555 1_555
K1E O1E 1_555 1_555
K1E_2 O1 1_555 1_555
K1D O1E 1_555 1_555
K1D_2 O1 1_555 1_555
K1A O1 1_555 1_555
K1_2 O2 1_555 1_555
K1E_3 O2 1_555 1_555
K1B O1G 1_555 1_555
K1F O1G 1_555 1_555
K1C O1G 1_555 1_555
K1G_2 O2G 1_555 1_555
K1B_2 O2G 1_555 1_555
K1B_3 O1B 1_555 1_555
K1C_2 O1F 1_555 1_555
O1G C3G 1_555 1_555
O1E K1 1_555 1_555
O1D K1 1_555 1_555
O1A K1 1_555 1_555
O1F K1G 1_555 1_555
O1B K1G 1_555 1_555
O1C K1G 1_555 1_555
O2G C3G 1_555 1_555
O2_2 K1 1_555 1_555
O2E K1 1_555 1_555
O2G_2 K1G 1_555 1_555
O2B K1G 1_555 1_555
N1G C4 1_555 1_555
N1E K1 1_555 1_555
N1B K1G 1_555 1_555
C1G C2 1_555 1_555
C3G C1G 1_555 1_555
N1 K1E_2 1_555 1_555
K1G N1G 1_555 1_555
K1E O1D 1_555 1_555
K1E O2E 1_555 1_555
K1E N1E 1_555 1_555
K1E_2 O1A 1_555 1_555
K1E_2 O2_2 1_555 1_555
K1D O1A 1_555 1_555
K1D_2 O1D 1_555 1_555
K1B O1F 1_555 1_555
K1B O2G_2 1_555 1_555
K1B N1G 1_555 1_555
K1C O1C 1_555 1_555
K1B_3 O1C 1_555 1_555
K1B_3 O2B 1_555 1_555
K1B_3 N1B 1_555 1_555
K1C_2 O1B 1_555 1_555
N1G C1G 1_555 1_555

#END
