
#######################################################################
#
#                 Cambridge Crystallographic Data Centre
#                                CCDC 
#
#######################################################################
#
# If this CIF has been generated from an entry in the Cambridge 
# Structural Database, then it will include bibliographic, chemical, 
# crystal, experimental, refinement or atomic coordinate data resulting 
# from the CCDC's data processing and validation procedures.
#
#######################################################################

data_CIGNAI
_symmetry_cell_setting           monoclinic
_symmetry_space_group_name_H-M   'C c'
_symmetry_Int_Tables_number      9
_space_group_name_Hall           'C -2yc'
loop_
_symmetry_equiv_pos_site_id
_symmetry_equiv_pos_as_xyz
1 x,y,z
2 x,-y,1/2+z
3 1/2+x,1/2+y,z
4 1/2+x,1/2-y,1/2+z
_cell_length_a                   4.3290(10)
_cell_length_b                   12.360(2)
_cell_length_c                   14.060(2)
_cell_angle_alpha                90
_cell_angle_beta                 94.51(2)
_cell_angle_gamma                90
_cell_volume                     749.971
loop_
_atom_site_label
_atom_site_type_symbol
_atom_site_fract_x
_atom_site_fract_y
_atom_site_fract_z
K1 K -0.0412(12) 0.9999(2) 0.4945(3)
N1 N 0.2746(16) 0.8948(6) 0.6757(4)
C1 C 0.466(3) 0.94155(17) 0.7454(9)
H1 H 0.4742 1.0167 0.7452
N2 N 0.6388(16) 0.8935(5) 0.8120(4)
C2 C 0.6413(17) 0.7878(6) 0.8098(5)
C3 C 0.451(3) 0.72826(15) 0.7418(7)
H2 H 0.4490 0.6530 0.7428
C4 C 0.2742(18) 0.7841(5) 0.6757(5)
C5 C 0.8554(14) 0.7275(6) 0.8866(4)
O1 O 1.0296(12) 0.7951(4) 0.9352(4)
O2 O 0.8473(13) 0.6314(5) 0.8922(3)
C6 C 0.0632(14) 0.7314(6) 0.6038(5)
O3 O -0.1133(14) 0.7931(4) 0.5522(4)
O4 O 0.0622(12) 0.6301(5) 0.5956(3)
H3 H 1.133 0.763 0.967
K1A K 0.9588(12) 1.0001(2) 0.9945(3)
K1C K 0.4588(12) 0.5001(2) 0.9945(3)
K1B K 0.4588(12) 0.4999(2) 0.4945(3)
N2A N -0.3612(16) 1.1065(5) 0.3120(4)
O1A O 0.0296(12) 1.2049(4) 0.4352(4)
O2C O 0.3473(13) 0.8686(5) 0.3922(3)
O4B O -0.4378(12) 1.1301(5) 0.5956(3)
H3A H 0.133 1.237 0.467
loop_
_geom_bond_atom_site_label_1
_geom_bond_atom_site_label_2
_geom_bond_site_symmetry_1
_geom_bond_site_symmetry_2
K1 N1 1_555 1_555
N1 C1 1_555 1_555
C1 H1 1_555 1_555
N2 C1 1_555 1_555
C2 N2 1_555 1_555
C3 C2 1_555 1_555
H2 C3 1_555 1_555
C4 N1 1_555 1_555
C5 C2 1_555 1_555
O1 C5 1_555 1_555
O2 C5 1_555 1_555
C6 C4 1_555 1_555
O3 K1 1_555 1_555
O4 C6 1_555 1_555
H3 O1 1_555 1_555
K1A N2 1_555 1_555
K1C O2 1_555 1_555
K1B O4 1_555 1_555
N2A K1 1_555 1_555
O1A K1 1_555 1_555
O2C K1 1_555 1_555
O4B K1 1_555 1_555
H3A O1A 1_555 1_555
C3 C4 1_555 1_555
O1 K1A 1_555 1_555
C6 O3 1_555 1_555

#END
