
#######################################################################
#
#                 Cambridge Crystallographic Data Centre
#                                CCDC 
#
#######################################################################
#
# If this CIF has been generated from an entry in the Cambridge 
# Structural Database, then it will include bibliographic, chemical, 
# crystal, experimental, refinement or atomic coordinate data resulting 
# from the CCDC's data processing and validation procedures.
#
#######################################################################

data_CIGRAN
_symmetry_cell_setting           triclinic
_symmetry_space_group_name_H-M   'P -1'
_symmetry_Int_Tables_number      2
_space_group_name_Hall           '-P 1'
loop_
_symmetry_equiv_pos_site_id
_symmetry_equiv_pos_as_xyz
1 x,y,z
2 -x,-y,-z
_cell_length_a                   9.2256(4)
_cell_length_b                   12.8767(5)
_cell_length_c                   17.4297(7)
_cell_angle_alpha                89.505(2)
_cell_angle_beta                 85.062(2)
_cell_angle_gamma                70.757(2)
_cell_volume                     1947.2
loop_
_atom_site_label
_atom_site_type_symbol
_atom_site_fract_x
_atom_site_fract_y
_atom_site_fract_z
Cd1 Cd 0.75879(2) 0.503177(17) 0.492373(12)
C1 C 0.9981(3) 0.4731(3) 0.61838(16)
C2 C 0.9155(3) 0.4216(2) 0.67692(16)
C3 C 0.7565(3) 0.4290(2) 0.67390(16)
C4 C 0.6846(3) 0.3902(2) 0.74060(16)
C5 C 0.5236(3) 0.4053(3) 0.74670(17)
C6 C 0.4615(3) 0.3735(3) 0.81453(18)
C7 C 0.5419(4) 0.3319(3) 0.87745(17)
C8 C 0.6994(4) 0.3158(3) 0.86904(17)
C9 C 0.7732(3) 0.3398(2) 0.80223(16)
C10 C 0.9939(3) 0.3638(3) 0.73408(17)
H1 H 1.0986 0.3543 0.7324
C11 C 1.0367(4) 0.2463(3) 0.84476(19)
H2 H 1.0427 0.2789 0.8945
C12 C 1.1808(4) 0.1647(3) 0.8107(2)
H3 H 1.2719 0.1495 0.8385
H4 H 1.2001 0.1614 0.7550
C13 C 1.0533(5) 0.1283(3) 0.8450(3)
H5 H 0.9949 0.1028 0.8102
H6 H 1.0667 0.0909 0.8937
C14 C 0.5252(5) 0.2012(3) 0.9776(2)
H7 H 0.4806 0.1551 0.9508
H8 H 0.6361 0.1715 0.9663
C15 C 0.4993(7) 0.1974(4) 1.0599(3)
H9 H 0.5658 0.2314 1.0835
C16 C 0.2963(7) 0.3763(4) 1.0611(3)
H10 H 0.3657 0.4083 1.0841
C17 C 0.3245(5) 0.3795(3) 0.9781(2)
H11 H 0.3172 0.4550 0.9674
H12 H 0.2467 0.3633 0.9509
C18 C 0.5330(6) 0.0799(4) 1.0907(2)
H13 H 0.4605 0.0454 1.0776
H14 H 0.5305 0.0856 1.1457
H15 H 0.6347 0.0366 1.0700
C19 C 0.1348(6) 0.4400(4) 1.0926(3)
H16 H 0.1113 0.5139 1.0746
H17 H 0.1347 0.4404 1.1477
H18 H 0.0586 0.4099 1.0780
N1 N 0.4315(3) 0.4477(2) 0.69005(15)
H19 H 0.3352 0.4548 0.6962
H20 H 0.4692 0.4676 0.6478
N2 N 0.9336(3) 0.3187(2) 0.79338(14)
N3 N 0.4723(3) 0.3095(2) 0.94693(15)
N4 N 0.3351(4) 0.2597(3) 1.08616(16)
H21 H 0.3383 0.2637 1.1422
O1 O 1.1424(2) 0.44806(19) 0.62059(12)
O2 O 0.9234(2) 0.53894(18) 0.57148(12)
O3 O 0.6796(2) 0.46752(18) 0.61853(11)
F1 F 0.3088(2) 0.38389(18) 0.81745(11)
F2 F 0.7769(2) 0.28527(19) 0.93305(10)
C20 C 0.4261(3) 0.6614(2) 0.50607(16)
C21 C 0.2990(3) 0.7519(2) 0.47306(17)
C22 C 0.1403(3) 0.7549(2) 0.47720(16)
C23 C 0.0319(3) 0.8495(2) 0.44407(17)
C24 C -0.1281(3) 0.8629(3) 0.44686(18)
C25 C -0.2223(3) 0.9505(3) 0.40840(19)
C26 C -0.1780(4) 1.0350(3) 0.37305(18)
C27 C -0.0227(4) 1.0235(2) 0.37924(19)
C28 C 0.0823(3) 0.9310(2) 0.40672(17)
C29 C 0.3387(3) 0.8288(2) 0.43135(18)
H22 H 0.4425 0.8224 0.4260
C30 C 0.3040(4) 0.9724(3) 0.33817(19)
H23 H 0.3092 1.0439 0.3537
C31 C 0.2733(5) 0.9609(4) 0.2573(2)
H24 H 0.2582 1.0245 0.2248
H25 H 0.2121 0.9150 0.2468
C32 C 0.4298(4) 0.9058(3) 0.2815(2)
H26 H 0.5101 0.9359 0.2640
H27 H 0.4639 0.8264 0.2860
C33 C -0.4384(4) 1.1496(3) 0.3392(2)
H28 H -0.4764 1.1401 0.3915
H29 H -0.4597 1.0968 0.3064
C34 C -0.5251(4) 1.2640(4) 0.3151(2)
H30 H -0.5225 1.3168 0.3546
C35 C -0.2908(5) 1.2753(4) 0.2474(3)
H31 H -0.2824 1.3210 0.2903
C36 C -0.2108(4) 1.1577(3) 0.2633(2)
H32 H -0.2220 1.1117 0.2219
H33 H -0.1018 1.1459 0.2651
C37 C -0.6908(4) 1.2739(3) 0.3066(2)
H34 H -0.7452 1.3468 0.2904
H35 H -0.7380 1.2606 0.3552
H36 H -0.6948 1.2212 0.2689
C38 C -0.2246(5) 1.3106(4) 0.1723(3)
H37 H -0.2266 1.2633 0.1305
H38 H -0.1202 1.3067 0.1776
H39 H -0.2851 1.3850 0.1622
N5 N -0.1902(3) 0.7921(2) 0.48455(17)
H40 H -0.2870 0.8020 0.4843
H41 H -0.1325 0.7375 0.5086
N6 N 0.2404(3) 0.9142(2) 0.39674(15)
N7 N -0.2722(3) 1.1252(2) 0.33613(16)
N8 N -0.4558(3) 1.2889(2) 0.24068(17)
H42 H -0.5072 1.3722 0.2339
O4 O 0.5621(2) 0.66436(17) 0.49093(12)
O5 O 0.3940(2) 0.59022(17) 0.54680(12)
O6 O 0.0952(2) 0.68040(17) 0.50623(13)
F3 F 0.0230(2) 1.11192(15) 0.36157(12)
F4 F -0.3707(2) 0.95139(17) 0.40622(14)
Cd1A Cd 0.24121(2) 0.496823(17) 0.507627(12)
Cd1A_2 Cd 1.24121(2) 0.496823(17) 0.507627(12)
O1A O 0.8576(2) 0.55194(19) 0.37941(12)
O5A O 0.6060(2) 0.40978(17) 0.45320(12)
O6A O 0.9048(2) 0.31960(17) 0.49377(13)
O8 O 0.1116(15) 0.1091(12) 1.0641(9)
C39? C 0.434(2) 0.1668(13) 1.0353(9)
H43? H 0.3680 0.1341 1.0103
C40? C 0.243(2) 0.3467(15) 1.0373(10)
H44? H 0.1747 0.3147 1.0129
C41? C -0.520(4) 1.204(3) 0.287(2)
H45? H -0.5211 1.1491 0.2485
C42? C -0.304(4) 1.218(3) 0.214(2)
H46? H -0.3130 1.1696 0.1728
O7? O 0.1471(9) 0.1607(7) 1.0215(5)
loop_
_geom_bond_atom_site_label_1
_geom_bond_atom_site_label_2
_geom_bond_site_symmetry_1
_geom_bond_site_symmetry_2
Cd1 O2 1_555 1_555
C1 C2 1_555 1_555
C2 C3 1_555 1_555
C3 C4 1_555 1_555
C4 C5 1_555 1_555
C5 C6 1_555 1_555
C6 C7 1_555 1_555
C7 C8 1_555 1_555
C8 C9 1_555 1_555
C9 C4 1_555 1_555
C10 C2 1_555 1_555
H1 C10 1_555 1_555
C11 H2 1_555 1_555
C12 C11 1_555 1_555
H3 C12 1_555 1_555
H4 C12 1_555 1_555
C13 C11 1_555 1_555
H5 C13 1_555 1_555
H6 C13 1_555 1_555
C14 H7 1_555 1_555
H8 C14 1_555 1_555
C15 C14 1_555 1_555
H9 C15 1_555 1_555
C16 H10 1_555 1_555
C17 C16 1_555 1_555
H11 C17 1_555 1_555
H12 C17 1_555 1_555
C18 C15 1_555 1_555
H13 C18 1_555 1_555
H14 C18 1_555 1_555
H15 C18 1_555 1_555
C19 C16 1_555 1_555
H16 C19 1_555 1_555
H17 C19 1_555 1_555
H18 C19 1_555 1_555
N1 C5 1_555 1_555
H19 N1 1_555 1_555
H20 N1 1_555 1_555
N2 C9 1_555 1_555
N3 C7 1_555 1_555
N4 C15 1_555 1_555
H21 N4 1_555 1_555
O1 C1 1_555 1_555
O2 C1 1_555 1_555
O3 Cd1 1_555 1_555
F1 C6 1_555 1_555
F2 C8 1_555 1_555
C20 C21 1_555 1_555
C21 C22 1_555 1_555
C22 C23 1_555 1_555
C23 C24 1_555 1_555
C24 C25 1_555 1_555
C25 C26 1_555 1_555
C26 C27 1_555 1_555
C27 C28 1_555 1_555
C28 C23 1_555 1_555
C29 C21 1_555 1_555
H22 C29 1_555 1_555
C30 H23 1_555 1_555
C31 C30 1_555 1_555
H24 C31 1_555 1_555
H25 C31 1_555 1_555
C32 C30 1_555 1_555
H26 C32 1_555 1_555
H27 C32 1_555 1_555
C33 H28 1_555 1_555
H29 C33 1_555 1_555
C34 C33 1_555 1_555
H30 C34 1_555 1_555
C35 H31 1_555 1_555
C36 C35 1_555 1_555
H32 C36 1_555 1_555
H33 C36 1_555 1_555
C37 C34 1_555 1_555
H34 C37 1_555 1_555
H35 C37 1_555 1_555
H36 C37 1_555 1_555
C38 C35 1_555 1_555
H37 C38 1_555 1_555
H38 C38 1_555 1_555
H39 C38 1_555 1_555
N5 C24 1_555 1_555
H40 N5 1_555 1_555
H41 N5 1_555 1_555
N6 C28 1_555 1_555
N7 C26 1_555 1_555
N8 C34 1_555 1_555
H42 N8 1_555 1_555
O4 Cd1 1_555 1_555
O5 C20 1_555 1_555
O6 C22 1_555 1_555
F3 C27 1_555 1_555
F4 C25 1_555 1_555
Cd1A O5 1_555 1_555
Cd1A_2 O1 1_555 1_555
O1A Cd1 1_555 1_555
O5A Cd1 1_555 1_555
O6A Cd1 1_555 1_555
C3 O3 1_555 1_555
C10 N2 1_555 1_555
C11 N2 1_555 1_555
C12 C13 1_555 1_555
C14 N3 1_555 1_555
C16 N4 1_555 1_555
C17 N3 1_555 1_555
C20 O4 1_555 1_555
C29 N6 1_555 1_555
C30 N6 1_555 1_555
C31 C32 1_555 1_555
C33 N7 1_555 1_555
C35 N8 1_555 1_555
C36 N7 1_555 1_555
O6 Cd1A 1_555 1_555

#END
