
#######################################################################
#
#                 Cambridge Crystallographic Data Centre
#                                CCDC 
#
#######################################################################
#
# If this CIF has been generated from an entry in the Cambridge 
# Structural Database, then it will include bibliographic, chemical, 
# crystal, experimental, refinement or atomic coordinate data resulting 
# from the CCDC's data processing and validation procedures.
#
#######################################################################

data_CIGTAP
_symmetry_cell_setting           triclinic
_symmetry_space_group_name_H-M   'P -1'
_symmetry_Int_Tables_number      2
_space_group_name_Hall           '-P 1'
loop_
_symmetry_equiv_pos_site_id
_symmetry_equiv_pos_as_xyz
1 x,y,z
2 -x,-y,-z
_cell_length_a                   12.8809(12)
_cell_length_b                   13.6935(13)
_cell_length_c                   14.0768(13)
_cell_angle_alpha                75.851(2)
_cell_angle_beta                 79.256(2)
_cell_angle_gamma                80.426(2)
_cell_volume                     2346.32
loop_
_atom_site_label
_atom_site_type_symbol
_atom_site_fract_x
_atom_site_fract_y
_atom_site_fract_z
Cu1 Cu 0.32224(8) 0.55844(8) 0.76794(9)
Cu2 Cu 0.75874(9) 0.93693(8) 0.73629(9)
Cu3 Cu 1.0000 0.5000 0.5000
N1 N 0.3148(6) 0.4062(6) 0.8254(6)
N2 N 0.1650(6) 0.5564(5) 0.7996(5)
N3 N 0.0770(6) 0.6276(5) 0.7906(5)
N4 N 0.0274(5) 0.4752(5) 0.8569(5)
N5 N -0.2271(6) 0.7879(5) 0.8028(5)
N6 N -0.0483(7) 0.3583(6) 0.9908(6)
N7 N 0.3101(6) 0.7060(6) 0.6965(6)
N8 N 0.5511(6) 0.8661(5) 0.7067(6)
N9 N 0.6144(6) 0.9385(5) 0.7048(6)
N10 N 0.4683(6) 1.0190(5) 0.6515(5)
N11 N 0.7186(6) 1.0901(5) 0.6835(6)
N12 N 0.4104(7) 1.1414(6) 0.5190(6)
N13 N 0.3377(7) 0.5883(7) 0.9197(7)
N14 N 0.4260(10) 0.6725(10) 1.0081(9)
N15 N 0.4778(8) 0.5397(7) 0.7329(8)
N16 N 0.6640(15) 0.5195(13) 0.7401(12)
N17 N 0.8303(8) 0.5126(10) 0.6327(10)
N18 N 0.8872(6) 0.9571(7) 0.7798(6)
N19 N 0.8467(8) 0.9159(7) 0.5812(8)
N20 N 0.9976(9) 0.8183(9) 0.5016(8)
N21 N 1.0042(8) 0.6486(8) 0.4745(10)
N22 N 0.8959(6) 0.5222(5) 0.3940(5)
N23 N 0.7175(7) 0.4874(10) 0.3987(10)
N24 N 0.5552(12) 0.5700(18) 0.4738(15)
C1 C 0.3973(8) 0.3333(8) 0.8340(8)
H1 H 0.4657 0.3510 0.8118
C2 C 0.3857(9) 0.2339(8) 0.8741(9)
H2 H 0.4454 0.1855 0.8798
C3 C 0.2854(9) 0.2052(7) 0.9059(8)
H3 H 0.2763 0.1377 0.9339
C4 C 0.1987(8) 0.2787(7) 0.8955(7)
H4 H 0.1299 0.2616 0.9161
C5 C 0.2155(7) 0.3777(6) 0.8542(7)
C6 C 0.1361(6) 0.4664(6) 0.8379(6)
C7 C -0.0066(6) 0.5785(6) 0.8276(6)
C8 C -0.1157(7) 0.6296(6) 0.8398(6)
C9 C -0.2007(7) 0.5859(7) 0.8989(7)
H5 H -0.1927 0.5177 0.9307
C10 C -0.2986(8) 0.6450(7) 0.9105(7)
H6 H -0.3569 0.6173 0.9512
C11 C -0.3082(7) 0.7436(7) 0.8618(7)
H7 H -0.3744 0.7825 0.8697
C12 C -0.1327(7) 0.7307(7) 0.7922(7)
H8 H -0.0757 0.7602 0.7509
C13 C -0.0342(6) 0.3920(6) 0.8927(7)
C14 C -0.0666(9) 0.3499(8) 0.8263(8)
H9 H -0.0540 0.3760 0.7583
C15 C -0.1198(10) 0.2649(8) 0.8680(10)
H10 H -0.1459 0.2338 0.8271
C16 C -0.1335(9) 0.2285(8) 0.9644(10)
H11 H -0.1664 0.1702 0.9910
C17 C -0.0994(9) 0.2761(7) 1.0254(8)
H12 H -0.1121 0.2505 1.0935
C18 C 0.3776(7) 0.7651(7) 0.7075(7)
H13 H 0.4268 0.7371 0.7506
C19 C 0.2377(8) 0.7483(8) 0.6361(7)
H14 H 0.1893 0.7087 0.6279
C20 C 0.2326(8) 0.8476(7) 0.5864(7)
H15 H 0.1807 0.8748 0.5459
C21 C 0.3037(7) 0.9071(7) 0.5961(7)
H16 H 0.3022 0.9743 0.5613
C22 C 0.3782(7) 0.8647(7) 0.6591(7)
C23 C 0.4645(7) 0.9158(6) 0.6723(6)
C24 C 0.5648(7) 1.0290(6) 0.6724(7)
C25 C 0.6174(7) 1.1185(6) 0.6612(7)
C26 C 0.7794(8) 1.1630(7) 0.6723(8)
H17 H 0.8488 1.1443 0.6860
C27 C 0.7449(9) 1.2652(7) 0.6415(8)
H18 H 0.7896 1.3138 0.6355
C28 C 0.6414(9) 1.2937(7) 0.6197(8)
H19 H 0.6156 1.3617 0.5983
C29 C 0.5773(8) 1.2168(7) 0.6307(8)
H20 H 0.5077 1.2334 0.6172
C30 C 0.3904(7) 1.1008(6) 0.6147(8)
C31 C 0.3400(9) 1.2198(7) 0.4851(9)
H21 H 0.3514 1.2498 0.4179
C32 C 0.2552(9) 1.2580(8) 0.5401(10)
H22 H 0.2108 1.3145 0.5125
C33 C 0.2351(9) 1.2134(9) 0.6360(10)
H23 H 0.1741 1.2371 0.6749
C34 C 0.3047(8) 1.1313(8) 0.6788(8)
H24 H 0.2933 1.0999 0.7457
C35 C 0.3743(9) 0.6289(9) 0.9609(9)
C36 C 0.387(2) 0.7399(17) 1.061(2)
N25 N 0.3639(17) 0.8077(13) 1.0932(15)
C37 C 0.5639(13) 0.5349(11) 0.7214(15)
C38 C 0.7514(13) 0.5246(9) 0.6686(12)
C39 C 0.944(2) 0.987(3) 0.815(3)
N26 N 1.0231(17) 1.0371(16) 0.815(3)
C40 C 1.1191(16) 0.994(3) 0.832(3)
N27 N 1.2015(15) 0.980(3) 0.850(3)
C41 C 0.9138(9) 0.8680(8) 0.5441(8)
C42 C 0.9970(9) 0.7264(9) 0.4891(10)
C43 C 0.8113(8) 0.5120(10) 0.4036(10)
C44 C 0.6317(10) 0.5350(12) 0.4363(15)
Cu1A Cu 0.67776(8) 0.44156(8) 0.23206(9)
Cu2A Cu 0.24126(9) 0.06307(8) 0.26371(9)
N1A N 0.6852(6) 0.5938(6) 0.1746(6)
N2A N 0.8350(6) 0.4436(5) 0.2004(5)
N3A N 0.9230(6) 0.3724(5) 0.2094(5)
N4A N 0.9726(5) 0.5248(5) 0.1431(5)
N5A N 1.2271(6) 0.2121(5) 0.1972(5)
N6A N 1.0483(7) 0.6417(6) 0.0092(6)
N7A N 0.6899(6) 0.2940(6) 0.3035(6)
N8A N 0.4489(6) 0.1339(5) 0.2933(6)
N9A N 0.3856(6) 0.0615(5) 0.2952(6)
N10A N 0.5317(6) -0.0190(5) 0.3485(5)
N11A N 0.2814(6) -0.0901(5) 0.3165(6)
N12A N 0.5896(7) -0.1414(6) 0.4810(6)
N13A N 0.6623(7) 0.4117(7) 0.0803(7)
N14A N 0.5740(10) 0.3275(10) -0.0081(9)
N15A N 0.5222(8) 0.4603(7) 0.2671(8)
N16A N 0.3360(15) 0.4805(13) 0.2599(12)
N17A N 0.1697(8) 0.4874(10) 0.3673(10)
N18A N 0.1128(6) 0.0429(7) 0.2202(6)
N19A N 0.1533(8) 0.0841(7) 0.4188(8)
N20A N 0.0024(9) 0.1817(9) 0.4984(8)
N21A N -0.0042(8) 0.3514(8) 0.5255(10)
N22A N 0.1041(6) 0.4778(5) 0.6060(5)
N23A N 0.2825(7) 0.5126(10) 0.6013(10)
N24A N 0.4448(12) 0.4300(18) 0.5262(15)
C1A C 0.6027(8) 0.6667(8) 0.1660(8)
H1A H 0.5343 0.6490 0.1882
C2A C 0.6143(9) 0.7661(8) 0.1259(9)
H2A H 0.5546 0.8145 0.1202
C3A C 0.7146(9) 0.7948(7) 0.0941(8)
H3A H 0.7237 0.8623 0.0661
C4A C 0.8013(8) 0.7213(7) 0.1045(7)
H4A H 0.8701 0.7384 0.0839
C5A C 0.7845(7) 0.6223(6) 0.1458(7)
C6A C 0.8639(6) 0.5336(6) 0.1621(6)
C7A C 1.0066(6) 0.4215(6) 0.1724(6)
C8A C 1.1157(7) 0.3704(6) 0.1602(6)
C9A C 1.2007(7) 0.4141(7) 0.1011(7)
H5A H 1.1927 0.4823 0.0693
C10A C 1.2986(8) 0.3550(7) 0.0895(7)
H6A H 1.3569 0.3827 0.0488
C11A C 1.3082(7) 0.2564(7) 0.1382(7)
H7A H 1.3744 0.2175 0.1303
C12A C 1.1327(7) 0.2693(7) 0.2078(7)
H8A H 1.0757 0.2398 0.2491
C13A C 1.0342(6) 0.6080(6) 0.1073(7)
C14A C 1.0666(9) 0.6501(8) 0.1737(8)
H9A H 1.0540 0.6240 0.2417
C15A C 1.1198(10) 0.7351(8) 0.1320(10)
H10A H 1.1459 0.7662 0.1729
C16A C 1.1335(9) 0.7715(8) 0.0356(10)
H11A H 1.1664 0.8298 0.0090
C17A C 1.0994(9) 0.7239(7) -0.0254(8)
H12A H 1.1121 0.7495 -0.0935
C18A C 0.6224(7) 0.2349(7) 0.2925(7)
H13A H 0.5732 0.2629 0.2494
C19A C 0.7623(8) 0.2517(8) 0.3639(7)
H14A H 0.8107 0.2913 0.3721
C20A C 0.7674(8) 0.1524(7) 0.4136(7)
H15A H 0.8193 0.1252 0.4541
C21A C 0.6963(7) 0.0929(7) 0.4039(7)
H16A H 0.6978 0.0257 0.4387
C22A C 0.6218(7) 0.1353(7) 0.3409(7)
C23A C 0.5355(7) 0.0842(6) 0.3277(6)
C24A C 0.4352(7) -0.0290(6) 0.3276(7)
C25A C 0.3826(7) -0.1185(6) 0.3388(7)
C26A C 0.2206(8) -0.1630(7) 0.3277(8)
H17A H 0.1512 -0.1443 0.3140
C27A C 0.2551(9) -0.2652(7) 0.3585(8)
H18A H 0.2104 -0.3138 0.3645
C28A C 0.3586(9) -0.2937(7) 0.3803(8)
H19A H 0.3844 -0.3617 0.4017
C29A C 0.4227(8) -0.2168(7) 0.3693(8)
H20A H 0.4923 -0.2334 0.3828
C30A C 0.6096(7) -0.1008(6) 0.3853(8)
C31A C 0.6600(9) -0.2198(7) 0.5149(9)
H21A H 0.6486 -0.2498 0.5821
C32A C 0.7448(9) -0.2580(8) 0.4599(10)
H22A H 0.7892 -0.3145 0.4875
C33A C 0.7649(9) -0.2134(9) 0.3640(10)
H23A H 0.8259 -0.2371 0.3251
C34A C 0.6953(8) -0.1313(8) 0.3212(8)
H24A H 0.7067 -0.0999 0.2543
C35A C 0.6257(9) 0.3711(9) 0.0391(9)
C36A C 0.613(2) 0.2601(17) -0.061(2)
N25A N 0.6361(17) 0.1923(13) -0.0932(15)
C37A C 0.4361(13) 0.4651(11) 0.2786(15)
C38A C 0.2486(13) 0.4754(9) 0.3314(12)
C39A C 0.056(2) 0.013(3) 0.185(3)
N26A N -0.0231(17) -0.0371(16) 0.185(3)
C40A C -0.1191(16) 0.006(3) 0.168(3)
N27A N -0.2015(15) 0.020(3) 0.150(3)
C41A C 0.0862(9) 0.1320(8) 0.4559(8)
C42A C 0.0030(9) 0.2736(9) 0.5109(10)
C43A C 0.1887(8) 0.4880(10) 0.5964(10)
C44A C 0.3683(10) 0.4650(12) 0.5637(15)
Cu2_2 Cu -0.24126(9) 0.93693(8) 0.73629(9)
Cu2A_2 Cu 1.24126(9) 0.06307(8) 0.26371(9)
Cu3_2 Cu 0.0000 0.5000 0.5000
N5_2 N 0.7729(6) 0.7879(5) 0.8028(5)
N5A_2 N 0.2271(6) 0.2121(5) 0.1972(5)
N17A_2 N 1.1697(8) 0.4874(10) 0.3673(10)
N21A_2 N 0.9958(8) 0.3514(8) 0.5255(10)
N22A_2 N 1.1041(6) 0.4778(5) 0.6060(5)
O2 O 0.413(2) 0.960(2) 0.8971(19)
O2A O 0.587(2) 0.040(2) 0.1029(19)
C45? C 0.410(3) 0.7715(12) 0.980(3)
N28? N 0.405(3) 0.8550(12) 0.968(3)
O1? O 0.6292(17) 0.9837(10) 0.9010(10)
C46? C 0.9690(9) 0.9696(14) 0.7885(12)
N29? N 1.0658(9) 0.9811(11) 0.7991(9)
C47? C 1.0862(15) 1.0172(16) 0.8712(13)
N30? N 1.1256(12) 1.0466(13) 0.9204(11)
loop_
_geom_bond_atom_site_label_1
_geom_bond_atom_site_label_2
_geom_bond_site_symmetry_1
_geom_bond_site_symmetry_2
Cu1 N1 1_555 1_555
Cu2 N9 1_555 1_555
Cu3 N17 1_555 1_555
N1 C1 1_555 1_555
N2 Cu1 1_555 1_555
N3 N2 1_555 1_555
N4 C6 1_555 1_555
N5 C11 1_555 1_555
N6 C13 1_555 1_555
N7 Cu1 1_555 1_555
N8 N9 1_555 1_555
N9 C24 1_555 1_555
N10 C23 1_555 1_555
N11 Cu2 1_555 1_555
N12 C30 1_555 1_555
N13 Cu1 1_555 1_555
N14 C35 1_555 1_555
N15 Cu1 1_555 1_555
N16 C37 1_555 1_555
N17 C38 1_555 1_555
N18 Cu2 1_555 1_555
N19 Cu2 1_555 1_555
N20 C41 1_555 1_555
N21 Cu3 1_555 1_555
N22 Cu3 1_555 1_555
N23 C43 1_555 1_555
N24 C44 1_555 1_555
C1 H1 1_555 1_555
C2 C1 1_555 1_555
H2 C2 1_555 1_555
C3 C2 1_555 1_555
H3 C3 1_555 1_555
C4 C3 1_555 1_555
H4 C4 1_555 1_555
C5 N1 1_555 1_555
C6 N2 1_555 1_555
C7 N3 1_555 1_555
C8 C7 1_555 1_555
C9 C8 1_555 1_555
H5 C9 1_555 1_555
C10 C9 1_555 1_555
H6 C10 1_555 1_555
C11 C10 1_555 1_555
H7 C11 1_555 1_555
C12 N5 1_555 1_555
H8 C12 1_555 1_555
C13 N4 1_555 1_555
C14 C13 1_555 1_555
H9 C14 1_555 1_555
C15 C14 1_555 1_555
H10 C15 1_555 1_555
C16 C15 1_555 1_555
H11 C16 1_555 1_555
C17 N6 1_555 1_555
H12 C17 1_555 1_555
C18 N7 1_555 1_555
H13 C18 1_555 1_555
C19 N7 1_555 1_555
H14 C19 1_555 1_555
C20 C19 1_555 1_555
H15 C20 1_555 1_555
C21 C20 1_555 1_555
H16 C21 1_555 1_555
C22 C18 1_555 1_555
C23 N8 1_555 1_555
C24 N10 1_555 1_555
C25 N11 1_555 1_555
C26 N11 1_555 1_555
H17 C26 1_555 1_555
C27 C26 1_555 1_555
H18 C27 1_555 1_555
C28 C27 1_555 1_555
H19 C28 1_555 1_555
C29 C25 1_555 1_555
H20 C29 1_555 1_555
C30 N10 1_555 1_555
C31 N12 1_555 1_555
H21 C31 1_555 1_555
C32 C31 1_555 1_555
H22 C32 1_555 1_555
C33 C32 1_555 1_555
H23 C33 1_555 1_555
C34 C30 1_555 1_555
H24 C34 1_555 1_555
C35 N13 1_555 1_555
C36 N14 1_555 1_555
N25 C36 1_555 1_555
C37 N15 1_555 1_555
C38 N16 1_555 1_555
C39 N18 1_555 1_555
N26 C39 1_555 1_555
C40 N26 1_555 1_555
N27 C40 1_555 1_555
C41 N19 1_555 1_555
C42 N20 1_555 1_555
C43 N22 1_555 1_555
C44 N23 1_555 1_555
Cu1A N23 1_555 1_555
Cu2A N9A 1_555 1_555
N1A Cu1A 1_555 1_555
N2A Cu1A 1_555 1_555
N3A N2A 1_555 1_555
N4A C6A 1_555 1_555
N5A C11A 1_555 1_555
N6A C13A 1_555 1_555
N7A Cu1A 1_555 1_555
N8A N9A 1_555 1_555
N9A C24A 1_555 1_555
N10A C23A 1_555 1_555
N11A Cu2A 1_555 1_555
N12A C30A 1_555 1_555
N13A Cu1A 1_555 1_555
N14A C35A 1_555 1_555
N15A Cu1A 1_555 1_555
N16A C37A 1_555 1_555
N17A C38A 1_555 1_555
N18A Cu2A 1_555 1_555
N19A Cu2A 1_555 1_555
N20A C41A 1_555 1_555
N21A C42A 1_555 1_555
N22A C43A 1_555 1_555
N23A Cu1 1_555 1_555
N24A C44A 1_555 1_555
C1A N1A 1_555 1_555
H1A C1A 1_555 1_555
C2A C1A 1_555 1_555
H2A C2A 1_555 1_555
C3A C2A 1_555 1_555
H3A C3A 1_555 1_555
C4A C3A 1_555 1_555
H4A C4A 1_555 1_555
C5A N1A 1_555 1_555
C6A N2A 1_555 1_555
C7A N3A 1_555 1_555
C8A C7A 1_555 1_555
C9A C8A 1_555 1_555
H5A C9A 1_555 1_555
C10A C9A 1_555 1_555
H6A C10A 1_555 1_555
C11A C10A 1_555 1_555
H7A C11A 1_555 1_555
C12A N5A 1_555 1_555
H8A C12A 1_555 1_555
C13A N4A 1_555 1_555
C14A C13A 1_555 1_555
H9A C14A 1_555 1_555
C15A C14A 1_555 1_555
H10A C15A 1_555 1_555
C16A C15A 1_555 1_555
H11A C16A 1_555 1_555
C17A N6A 1_555 1_555
H12A C17A 1_555 1_555
C18A N7A 1_555 1_555
H13A C18A 1_555 1_555
C19A N7A 1_555 1_555
H14A C19A 1_555 1_555
C20A C19A 1_555 1_555
H15A C20A 1_555 1_555
C21A C20A 1_555 1_555
H16A C21A 1_555 1_555
C22A C18A 1_555 1_555
C23A N8A 1_555 1_555
C24A N10A 1_555 1_555
C25A N11A 1_555 1_555
C26A N11A 1_555 1_555
H17A C26A 1_555 1_555
C27A C26A 1_555 1_555
H18A C27A 1_555 1_555
C28A C27A 1_555 1_555
H19A C28A 1_555 1_555
C29A C25A 1_555 1_555
H20A C29A 1_555 1_555
C30A N10A 1_555 1_555
C31A N12A 1_555 1_555
H21A C31A 1_555 1_555
C32A C31A 1_555 1_555
H22A C32A 1_555 1_555
C33A C32A 1_555 1_555
H23A C33A 1_555 1_555
C34A C30A 1_555 1_555
H24A C34A 1_555 1_555
C35A N13A 1_555 1_555
C36A N14A 1_555 1_555
N25A C36A 1_555 1_555
C37A N15A 1_555 1_555
C38A N16A 1_555 1_555
C39A N18A 1_555 1_555
N26A C39A 1_555 1_555
C40A N26A 1_555 1_555
N27A C40A 1_555 1_555
C41A N19A 1_555 1_555
C42A N20A 1_555 1_555
C43A N23A 1_555 1_555
C44A N23A 1_555 1_555
Cu2_2 N5 1_555 1_555
Cu2A_2 N5A 1_555 1_555
Cu3_2 N17A 1_555 1_555
N5_2 Cu2 1_555 1_555
N5A_2 Cu2A 1_555 1_555
N17A_2 Cu3 1_555 1_555
N21A_2 Cu3 1_555 1_555
N22A_2 Cu3 1_555 1_555
N4 C7 1_555 1_555
N21 C42 1_555 1_555
C4 C5 1_555 1_555
C5 C6 1_555 1_555
C8 C12 1_555 1_555
C16 C17 1_555 1_555
C21 C22 1_555 1_555
C22 C23 1_555 1_555
C24 C25 1_555 1_555
C28 C29 1_555 1_555
C33 C34 1_555 1_555
N4A C7A 1_555 1_555
N21A Cu3_2 1_555 1_555
N22A Cu3_2 1_555 1_555
C4A C5A 1_555 1_555
C5A C6A 1_555 1_555
C8A C12A 1_555 1_555
C16A C17A 1_555 1_555
C21A C22A 1_555 1_555
C22A C23A 1_555 1_555
C24A C25A 1_555 1_555
C28A C29A 1_555 1_555
C33A C34A 1_555 1_555

#END
