
#######################################################################
#
#                 Cambridge Crystallographic Data Centre
#                                CCDC 
#
#######################################################################
#
# If this CIF has been generated from an entry in the Cambridge 
# Structural Database, then it will include bibliographic, chemical, 
# crystal, experimental, refinement or atomic coordinate data resulting 
# from the CCDC's data processing and validation procedures.
#
#######################################################################

data_CIGXUN
_symmetry_cell_setting           triclinic
_symmetry_space_group_name_H-M   'P -1'
_symmetry_Int_Tables_number      2
_space_group_name_Hall           '-P 1'
loop_
_symmetry_equiv_pos_site_id
_symmetry_equiv_pos_as_xyz
1 x,y,z
2 -x,-y,-z
_cell_length_a                   12.686(5)
_cell_length_b                   14.444(5)
_cell_length_c                   14.594(5)
_cell_angle_alpha                109.839(5)
_cell_angle_beta                 106.925(5)
_cell_angle_gamma                96.214(5)
_cell_volume                     2341.93
loop_
_atom_site_label
_atom_site_type_symbol
_atom_site_fract_x
_atom_site_fract_y
_atom_site_fract_z
C1 C 1.1271(5) 0.3819(4) 0.1896(4)
H1 H 1.1470 0.3709 0.2510
C2 C 1.0403(5) 0.3755(4) 0.0408(5)
H2 H 0.9841 0.3578 -0.0236
C3 C 1.3086(5) 0.5034(5) 0.2267(5)
H3 H 1.3068 0.5721 0.2663
H4 H 1.3465 0.5058 0.1783
C4 C 1.3753(5) 0.4591(5) 0.3011(5)
H5 H 1.3662 0.4883 0.3680
H6 H 1.3457 0.3866 0.2732
C5 C 1.4997(5) 0.4812(5) 0.3150(5)
H7 H 1.5278 0.5537 0.3397
H8 H 1.5415 0.4588 0.3675
C6 C 1.5405(7) 0.4070(5) 0.0763(6)
H9 H 1.5477 0.4163 0.0182
C7 C 1.5260(5) 0.3351(4) 0.1762(4)
H10 H 1.5191 0.2874 0.2051
C8 C 1.1346(4) 0.1282(4) -0.0930(4)
H11 H 1.0880 0.0911 -0.1618
C9 C 1.2200(4) 0.1777(4) 0.0687(4)
H12 H 1.2420 0.1789 0.1358
C10 C 1.2365(4) 0.2752(4) -0.1148(4)
H13 H 1.2913 0.2493 -0.1450
H14 H 1.2708 0.3447 -0.0663
C11 C 1.1328(5) 0.2729(5) -0.2002(4)
H15 H 1.0769 0.2971 -0.1706
H16 H 1.0997 0.2038 -0.2502
C12 C 1.1640(5) 0.3386(6) -0.2547(5)
H17 H 1.1935 0.4082 -0.2053
H18 H 1.2228 0.3166 -0.2811
C13 C 0.9292(4) 0.2855(4) -0.4848(4)
H19 H 0.8778 0.2479 -0.5517
C14 C 1.0176(5) 0.4117(4) -0.3348(4)
H20 H 1.0385 0.4743 -0.2798
N1 N 1.0289(4) 0.3385(4) 0.1116(4)
N2 N 1.1920(4) 0.4423(4) 0.1683(4)
N3 N 1.1383(4) 0.4391(4) 0.0712(4)
N4 N 1.5199(4) 0.4308(4) 0.2179(4)
N5 N 1.5270(7) 0.4782(5) 0.1523(6)
N6 N 1.5432(4) 0.3181(3) 0.0881(4)
N7 N 1.1377(4) 0.1024(3) -0.0134(3)
N8 N 1.2087(3) 0.2154(3) -0.0591(3)
N9 N 1.2654(4) 0.2476(4) 0.0454(3)
N10 N 1.0663(4) 0.3327(4) -0.3400(3)
N11 N 1.0102(5) 0.2554(5) -0.4318(5)
N12 N 0.9340(5) 0.3811(6) -0.4244(5)
O1 O 1.0218(3) 0.1417(3) 0.1611(2)
O2 O 0.7461(3) 0.2718(3) 0.0075(3)
O3 O 0.7286(3) 0.1574(3) 0.1322(2)
O4 O 0.4281(3) 0.0831(3) 0.0038(3)
H21 H 0.4161 0.0510 -0.0604
H22 H 0.4470 0.0440 0.0348
O5 O 0.6913(3) 0.0297(2) 0.2060(2)
O6 O 0.8735(3) 0.0981(3) -0.0407(2)
H23 H 0.8028 0.0893 -0.0517
H24 H 0.8822 0.0822 -0.0992
O7 O 0.6961(2) 0.1057(2) 0.4151(2)
O8 O 0.4399(3) 0.2152(2) 0.2968(2)
O9 O 0.6411(3) 0.1974(3) 0.2709(2)
O10 O 0.6513(3) 0.3066(3) 0.4719(3)
O11 O 0.7773(3) -0.0752(3) 0.3311(3)
O12 O 0.8454(3) 0.1902(3) 0.3155(2)
O13 O 0.4438(3) 0.1495(2) -0.1656(2)
O14 O 0.4216(3) 0.0850(2) -0.3822(2)
O15 O 0.3165(2) -0.0763(2) -0.5957(2)
O16 O 0.4962(2) 0.1413(2) -0.5389(2)
O17 O 0.6322(2) 0.1298(2) -0.2231(2)
O18 O 0.6028(3) 0.2470(2) -0.3218(2)
O19 O 0.7939(3) 0.3131(3) -0.1342(2)
O20 O 0.6028(3) 0.3179(2) -0.1179(2)
O21 O 0.7766(3) 0.4483(3) 0.0167(3)
O22 O 0.8299(3) 0.2713(3) -0.3211(3)
O23 O 0.6526(3) 0.0400(2) -0.1005(2)
O24 O 0.4939(2) -0.0314(2) -0.2716(2)
O25 O 0.6914(2) -0.0333(2) -0.2711(2)
O26 O 0.3991(3) 0.2823(3) -0.2776(3)
O27 O 0.9197(4) 0.3693(3) 0.2676(3)
O28 O 1.0864(3) 0.0396(3) 0.2612(3)
O29 O 1.1348(3) -0.1430(2) 0.2060(2)
O30 O 1.2713(3) 0.1145(2) 0.4462(2)
O31 O 1.2189(3) 0.2015(2) 0.2971(2)
O32 O 1.3953(3) 0.3110(3) 0.4850(3)
O33 O 1.0945(3) -0.0589(3) 0.3995(3)
O34 O 1.0522(3) 0.2111(3) 0.3513(3)
P1 P 0.72838(9) 0.14413(9) 0.23211(9)
P2 P 0.72888(10) 0.33322(9) -0.05908(9)
P3 P 0.61900(9) 0.02537(8) -0.21453(8)
P4 P 1.09622(9) 0.14708(9) 0.26583(9)
Mo1 Mo 0.65422(3) -0.04126(3) 0.29793(3)
Mo2 Mo 0.57459(3) 0.19261(3) 0.38263(3)
Mo3 Mo 0.48807(3) 0.20864(3) -0.25468(3)
Mo4 Mo 0.75713(3) 0.20177(3) -0.27897(3)
Mo5 Mo 1.18254(3) -0.03157(3) 0.34131(3)
Mo6 Mo 1.37367(3) 0.19496(3) 0.39403(3)
Cd1 Cd 1.0000 0.0000 0.0000
Cd2 Cd 0.88686(3) 0.23027(3) 0.11650(3)
Cd3 Cd 0.58483(3) 0.17273(3) -0.00048(3)
Cd4 Cd 0.5000 0.0000 -0.5000
C1A C -0.1271(5) -0.3819(4) -1.1896(4)
H1A H -0.1470 -0.3709 -1.2510
C2A C -0.0403(5) -0.3755(4) -1.0408(5)
H2A H 0.0159 -0.3578 -0.9764
C3A C -0.3086(5) -0.5034(5) -1.2267(5)
H3A H -0.3068 -0.5721 -1.2663
H4A H -0.3465 -0.5058 -1.1783
C4A C -0.3753(5) -0.4591(5) -1.3011(5)
H5A H -0.3662 -0.4883 -1.3680
H6A H -0.3457 -0.3866 -1.2732
C5A C -0.4997(5) -0.4812(5) -1.3150(5)
H7A H -0.5278 -0.5537 -1.3397
H8A H -0.5415 -0.4588 -1.3675
C6A C -0.5405(7) -0.4070(5) -1.0763(6)
H9A H -0.5477 -0.4163 -1.0182
C7A C -0.5260(5) -0.3351(4) -1.1762(4)
H10A H -0.5191 -0.2874 -1.2051
N1A N -0.0289(4) -0.3385(4) -1.1116(4)
N2A N -0.1920(4) -0.4423(4) -1.1683(4)
N3A N -0.1383(4) -0.4391(4) -1.0712(4)
N4A N -0.5199(4) -0.4308(4) -1.2179(4)
N5A N -0.5270(7) -0.4782(5) -1.1523(6)
N6A N -0.5432(4) -0.3181(3) -1.0881(4)
O1A O -0.0218(3) -0.1417(3) -1.1611(2)
O2A O 0.2539(3) -0.2718(3) -1.0075(3)
O3A O 0.2714(3) -0.1574(3) -1.1322(2)
O4A O 0.5719(3) -0.0831(3) -1.0038(3)
H21A H 0.5839 -0.0510 -0.9396
H22A H 0.5530 -0.0440 -1.0348
O5A O 0.3087(3) -0.0297(2) -1.2060(2)
O6A O 0.1265(3) -0.0981(3) -0.9593(2)
H23A H 0.1972 -0.0893 -0.9483
H24A H 0.1178 -0.0822 -0.9008
O7A O 0.3039(2) -0.1057(2) -1.4151(2)
O8A O 0.5601(3) -0.2152(2) -1.2968(2)
O9A O 0.3589(3) -0.1974(3) -1.2709(2)
O10A O 0.3487(3) -0.3066(3) -1.4719(3)
O11A O 0.2227(3) 0.0752(3) -1.3311(3)
O12A O 0.1546(3) -0.1902(3) -1.3155(2)
O13A O 0.5562(3) -0.1495(2) -0.8344(2)
O14A O 0.5784(3) -0.0850(2) -0.6178(2)
O15A O 0.6835(2) 0.0763(2) -0.4043(2)
O16A O 0.5038(2) -0.1413(2) -0.4611(2)
O17A O 0.3678(2) -0.1298(2) -0.7769(2)
O18A O 0.3972(3) -0.2470(2) -0.6782(2)
O19A O 0.2061(3) -0.3131(3) -0.8658(2)
O20A O 0.3972(3) -0.3179(2) -0.8821(2)
O21A O 0.2234(3) -0.4483(3) -1.0167(3)
O22A O 0.1701(3) -0.2713(3) -0.6789(3)
O23A O 0.3474(3) -0.0400(2) -0.8995(2)
O24A O 0.5061(2) 0.0314(2) -0.7284(2)
O25A O 0.3086(2) 0.0333(2) -0.7289(2)
O26A O 0.6009(3) -0.2823(3) -0.7224(3)
O27A O 0.0803(4) -0.3693(3) -1.2676(3)
O28A O -0.0864(3) -0.0396(3) -1.2612(3)
O29A O -0.1348(3) 0.1430(2) -1.2060(2)
O30A O -0.2713(3) -0.1145(2) -1.4462(2)
O31A O -0.2189(3) -0.2015(2) -1.2971(2)
O32A O -0.3953(3) -0.3110(3) -1.4850(3)
O33A O -0.0945(3) 0.0589(3) -1.3995(3)
O34A O -0.0522(3) -0.2111(3) -1.3513(3)
P1A P 0.27162(9) -0.14413(9) -1.23211(9)
P2A P 0.27112(10) -0.33322(9) -0.94092(9)
P3A P 0.38100(9) -0.02537(8) -0.78547(8)
P4A P -0.09622(9) -0.14708(9) -1.26583(9)
Mo1A Mo 0.34578(3) 0.04126(3) -1.29793(3)
Mo2A Mo 0.42541(3) -0.19261(3) -1.38263(3)
Mo3A Mo 0.51193(3) -0.20864(3) -0.74532(3)
Mo4A Mo 0.24287(3) -0.20177(3) -0.72103(3)
Mo5A Mo -0.18254(3) 0.03157(3) -1.34131(3)
Mo6A Mo -0.37367(3) -0.19496(3) -1.39403(3)
Cd2A Cd 0.11314(3) -0.23027(3) -1.11650(3)
Cd3A Cd 0.41517(3) -0.17273(3) -0.99952(3)
C8A C 0.8654(4) -0.1282(4) 0.0930(4)
H11A H 0.9120 -0.0911 0.1618
C9A C 0.7800(4) -0.1777(4) -0.0687(4)
H12A H 0.7580 -0.1789 -0.1358
C10A C 0.7635(4) -0.2752(4) 0.1148(4)
H13A H 0.7087 -0.2493 0.1450
H14A H 0.7292 -0.3447 0.0663
C11A C 0.8672(5) -0.2729(5) 0.2002(4)
H15A H 0.9231 -0.2971 0.1706
H16A H 0.9003 -0.2038 0.2502
C12A C 0.8360(5) -0.3386(6) 0.2547(5)
H17A H 0.8065 -0.4082 0.2053
H18A H 0.7772 -0.3166 0.2811
C13A C 1.0708(4) -0.2855(4) 0.4848(4)
H19A H 1.1222 -0.2479 0.5517
C14A C 0.9824(5) -0.4117(4) 0.3348(4)
H20A H 0.9615 -0.4743 0.2798
N7A N 0.8623(4) -0.1024(3) 0.0134(3)
N8A N 0.7913(3) -0.2154(3) 0.0591(3)
N9A N 0.7346(4) -0.2476(4) -0.0454(3)
N10A N 0.9337(4) -0.3327(4) 0.3400(3)
N11A N 0.9898(5) -0.2554(5) 0.4318(5)
N12A N 1.0660(5) -0.3811(6) 0.4244(5)
N6_2 N 0.5432(4) 0.3181(3) 0.0881(4)
N6A_2 N 0.4568(4) -0.3181(3) -1.0881(4)
O1A_2 O 0.9782(3) -0.1417(3) -0.1611(2)
O6A_2 O 1.1265(3) -0.0981(3) 0.0407(2)
O8_2 O 1.4399(3) 0.2152(2) 0.2968(2)
O8A_2 O -0.4399(3) -0.2152(2) -1.2968(2)
O13_2 O 0.4438(3) 0.1495(2) -1.1656(2)
O13A_2 O 0.5562(3) -0.1495(2) 0.1656(2)
O14_2 O 0.4216(3) 0.0850(2) -1.3822(2)
O14A_2 O 0.5784(3) -0.0850(2) 0.3822(2)
O15_2 O 1.3165(2) -0.0763(2) 0.4043(2)
O15A_2 O -0.3165(2) 0.0763(2) -1.4043(2)
O16_2 O 0.4962(2) 0.1413(2) 0.4611(2)
O16_3 O 1.4962(2) 0.1413(2) 0.4611(2)
O16A_2 O -0.4962(2) -0.1413(2) -1.4611(2)
O16A_3 O 0.5038(2) -0.1413(2) -1.4611(2)
O24_2 O 0.4939(2) -0.0314(2) -1.2716(2)
O24A_2 O 0.5061(2) 0.0314(2) 0.2716(2)
O25_2 O -0.3086(2) -0.0333(2) -1.2711(2)
O25A_2 O 1.3086(2) 0.0333(2) 0.2711(2)
O29_2 O 0.1348(3) -0.1430(2) -0.7940(2)
O29A_2 O 0.8652(3) 0.1430(2) -0.2060(2)
Mo1_2 Mo 0.65422(3) -0.04126(3) -0.70207(3)
Mo1A_2 Mo 0.34578(3) 0.04126(3) -0.29793(3)
Mo2_2 Mo 0.57459(3) 0.19261(3) -0.61737(3)
Mo2A_2 Mo 0.42541(3) -0.19261(3) -0.38263(3)
Mo4_2 Mo -0.24287(3) 0.20177(3) -1.27897(3)
Mo4A_2 Mo 1.24287(3) -0.20177(3) 0.27897(3)
Mo5_2 Mo 0.18254(3) -0.03157(3) -0.65869(3)
Mo5A_2 Mo 0.81746(3) 0.03157(3) -0.34131(3)
Mo6_2 Mo 0.37367(3) 0.19496(3) -0.60597(3)
Mo6_3 Mo 0.37367(3) 0.19496(3) 0.39403(3)
Mo6A_2 Mo 0.62633(3) -0.19496(3) -1.39403(3)
Mo6A_3 Mo 0.62633(3) -0.19496(3) -0.39403(3)
Cd1_2 Cd 0.0000 0.0000 -1.0000
Cd3_2 Cd 1.58483(3) 0.17273(3) -0.00048(3)
Cd3A_2 Cd -0.58483(3) -0.17273(3) -0.99952(3)
O35 O 0.1990(6) 0.4070(6) 0.4742(8)
H25 H 0.2047 0.3500 0.4789
H26 H 0.2374 0.4168 0.4388
O36 O 0.2177(5) 0.5840(4) 0.6229(4)
H27 H 0.2542 0.6452 0.6484
H28 H 0.2264 0.5641 0.6726
loop_
_geom_bond_atom_site_label_1
_geom_bond_atom_site_label_2
_geom_bond_site_symmetry_1
_geom_bond_site_symmetry_2
C1 H1 1_555 1_555
C2 H2 1_555 1_555
C3 H3 1_555 1_555
H4 C3 1_555 1_555
C4 C3 1_555 1_555
H5 C4 1_555 1_555
H6 C4 1_555 1_555
C5 C4 1_555 1_555
H7 C5 1_555 1_555
H8 C5 1_555 1_555
C6 H9 1_555 1_555
C7 H10 1_555 1_555
C8 H11 1_555 1_555
C9 H12 1_555 1_555
C10 H13 1_555 1_555
H14 C10 1_555 1_555
C11 C10 1_555 1_555
H15 C11 1_555 1_555
H16 C11 1_555 1_555
C12 C11 1_555 1_555
H17 C12 1_555 1_555
H18 C12 1_555 1_555
C13 H19 1_555 1_555
C14 H20 1_555 1_555
N1 C1 1_555 1_555
N2 C1 1_555 1_555
N3 C2 1_555 1_555
N4 C5 1_555 1_555
N5 C6 1_555 1_555
N6 C6 1_555 1_555
N7 C8 1_555 1_555
N8 C8 1_555 1_555
N9 C9 1_555 1_555
N10 C12 1_555 1_555
N11 C13 1_555 1_555
N12 C13 1_555 1_555
O1 P4 1_555 1_555
O2 P2 1_555 1_555
O3 P1 1_555 1_555
O4 H21 1_555 1_555
H22 O4 1_555 1_555
O5 P1 1_555 1_555
O6 H23 1_555 1_555
H24 O6 1_555 1_555
O7 Mo1 1_555 1_555
O8 Mo2 1_555 1_555
O9 P1 1_555 1_555
O10 Mo2 1_555 1_555
O11 Mo1 1_555 1_555
O12 P1 1_555 1_555
O13 Mo3 1_555 1_555
O14 Mo3 1_555 1_555
O15 Cd4 1_555 1_555
O16 Cd4 1_555 1_555
O17 P3 1_555 1_555
O18 Mo3 1_555 1_555
O19 P2 1_555 1_555
O20 P2 1_555 1_555
O21 P2 1_555 1_555
O22 Mo4 1_555 1_555
O23 P3 1_555 1_555
O24 P3 1_555 1_555
O25 P3 1_555 1_555
O26 Mo3 1_555 1_555
O27 Cd2 1_555 1_555
O28 P4 1_555 1_555
O29 Mo5 1_555 1_555
O30 Mo5 1_555 1_555
O31 P4 1_555 1_555
O32 Mo6 1_555 1_555
O33 Mo5 1_555 1_555
O34 P4 1_555 1_555
Mo1 O5 1_555 1_555
Mo2 O7 1_555 1_555
Mo3 O17 1_555 1_555
Mo4 O17 1_555 1_555
Mo5 O28 1_555 1_555
Mo6 O30 1_555 1_555
Cd1 N7 1_555 1_555
Cd2 N1 1_555 1_555
Cd3 O2 1_555 1_555
Cd4 O14 1_555 1_555
O35 H25 1_555 1_555
H26 O35 1_555 1_555
O36 H27 1_555 1_555
H28 O36 1_555 1_555
C1A H1A 1_555 1_555
C2A H2A 1_555 1_555
C3A H3A 1_555 1_555
H4A C3A 1_555 1_555
C4A C3A 1_555 1_555
H5A C4A 1_555 1_555
H6A C4A 1_555 1_555
C5A C4A 1_555 1_555
H7A C5A 1_555 1_555
H8A C5A 1_555 1_555
C6A H9A 1_555 1_555
C7A H10A 1_555 1_555
N1A C1A 1_555 1_555
N2A C1A 1_555 1_555
N3A C2A 1_555 1_555
N4A C5A 1_555 1_555
N5A C6A 1_555 1_555
N6A C6A 1_555 1_555
O1A P4A 1_555 1_555
O2A P2A 1_555 1_555
O3A P1A 1_555 1_555
O4A H21A 1_555 1_555
H22A O4A 1_555 1_555
O5A P1A 1_555 1_555
O6A H23A 1_555 1_555
H24A O6A 1_555 1_555
O7A Mo1A 1_555 1_555
O8A Mo2A 1_555 1_555
O9A P1A 1_555 1_555
O10A Mo2A 1_555 1_555
O11A Mo1A 1_555 1_555
O12A P1A 1_555 1_555
O13A Mo3A 1_555 1_555
O14A Cd4 1_555 1_555
O15A Mo4 1_555 1_555
O16A Cd4 1_555 1_555
O17A P3A 1_555 1_555
O18A Mo3A 1_555 1_555
O19A P2A 1_555 1_555
O20A P2A 1_555 1_555
O21A P2A 1_555 1_555
O22A Mo4A 1_555 1_555
O23A P3A 1_555 1_555
O24A P3A 1_555 1_555
O25A P3A 1_555 1_555
O26A Mo3A 1_555 1_555
O27A Cd2A 1_555 1_555
O28A P4A 1_555 1_555
O29A Mo5A 1_555 1_555
O30A Mo5A 1_555 1_555
O31A P4A 1_555 1_555
O32A Mo6A 1_555 1_555
O33A Mo5A 1_555 1_555
O34A P4A 1_555 1_555
Mo1A O5A 1_555 1_555
Mo2A O7A 1_555 1_555
Mo3A O14A 1_555 1_555
Mo4A O15 1_555 1_555
Mo5A O28A 1_555 1_555
Mo6A O30A 1_555 1_555
Cd2A N1A 1_555 1_555
Cd3A O2A 1_555 1_555
C8A H11A 1_555 1_555
C9A H12A 1_555 1_555
C10A H13A 1_555 1_555
H14A C10A 1_555 1_555
C11A C10A 1_555 1_555
H15A C11A 1_555 1_555
H16A C11A 1_555 1_555
C12A C11A 1_555 1_555
H17A C12A 1_555 1_555
H18A C12A 1_555 1_555
C13A H19A 1_555 1_555
C14A H20A 1_555 1_555
N7A Cd1 1_555 1_555
N8A C8A 1_555 1_555
N9A C9A 1_555 1_555
N10A C12A 1_555 1_555
N11A C13A 1_555 1_555
N12A C13A 1_555 1_555
N6_2 Cd3 1_555 1_555
N6A_2 Cd3A 1_555 1_555
O1A_2 Cd1 1_555 1_555
O6A_2 Cd1 1_555 1_555
O8_2 Mo6 1_555 1_555
O8A_2 Mo6A 1_555 1_555
O13_2 Mo1A 1_555 1_555
O13A_2 Mo1 1_555 1_555
O14_2 Mo1A 1_555 1_555
O14A_2 Mo1 1_555 1_555
O15_2 Mo5 1_555 1_555
O15A_2 Mo5A 1_555 1_555
O16_2 Mo2 1_555 1_555
O16_3 Mo6 1_555 1_555
O16A_2 Mo6A 1_555 1_555
O16A_3 Mo2A 1_555 1_555
O24_2 Mo1A 1_555 1_555
O24A_2 Mo1 1_555 1_555
O25_2 Mo5A 1_555 1_555
O25A_2 Mo5 1_555 1_555
O29_2 Mo4A 1_555 1_555
O29A_2 Mo4 1_555 1_555
Mo1_2 O13A 1_555 1_555
Mo1A_2 O13 1_555 1_555
Mo2_2 O16 1_555 1_555
Mo2A_2 O24 1_555 1_555
Mo4_2 O29A 1_555 1_555
Mo4A_2 O29 1_555 1_555
Mo5_2 O15 1_555 1_555
Mo5A_2 O25 1_555 1_555
Mo6_2 O16 1_555 1_555
Mo6_3 O8 1_555 1_555
Mo6A_2 O8A 1_555 1_555
Mo6A_3 O25 1_555 1_555
Cd1_2 O1A 1_555 1_555
Cd3_2 N6 1_555 1_555
Cd3A_2 N6A 1_555 1_555
C2 N1 1_555 1_555
C3 N2 1_555 1_555
C7 N4 1_555 1_555
C7 N6 1_555 1_555
C9 N7 1_555 1_555
C10 N8 1_555 1_555
C14 N10 1_555 1_555
C14 N12 1_555 1_555
N2 N3 1_555 1_555
N4 N5 1_555 1_555
N8 N9 1_555 1_555
N10 N11 1_555 1_555
O1 Cd1 1_555 1_555
O1 Cd2 1_555 1_555
O2 Cd2 1_555 1_555
O3 Cd2 1_555 1_555
O3 Cd3 1_555 1_555
O4 Cd3 1_555 1_555
O6 Cd1 1_555 1_555
O6 Cd2 1_555 1_555
O9 Mo2 1_555 1_555
O13 Cd3 1_555 1_555
O14 Mo1A_2 1_555 1_555
O18 Mo4 1_555 1_555
O19 Mo4 1_555 1_555
O20 Mo3 1_555 1_555
O23 Cd3 1_555 1_555
O24 Mo1A_2 1_555 1_555
O31 Mo6 1_555 1_555
Mo2 O24A_2 1_555 1_555
Mo6 O25A_2 1_555 1_555
Cd4 O15A 1_555 1_555
C2A N1A 1_555 1_555
C3A N2A 1_555 1_555
C7A N4A 1_555 1_555
C7A N6A 1_555 1_555
N2A N3A 1_555 1_555
N4A N5A 1_555 1_555
O1A Cd2A 1_555 1_555
O2A Cd2A 1_555 1_555
O3A Cd2A 1_555 1_555
O3A Cd3A 1_555 1_555
O4A Cd3A 1_555 1_555
O6A Cd2A 1_555 1_555
O6A Cd1_2 1_555 1_555
O9A Mo2A 1_555 1_555
O13A Cd3A 1_555 1_555
O14A Mo1_2 1_555 1_555
O15A Mo5A_2 1_555 1_555
O16A Mo2A_2 1_555 1_555
O16A Mo6A_3 1_555 1_555
O17A Mo3A 1_555 1_555
O17A Mo4A 1_555 1_555
O18A Mo4A 1_555 1_555
O19A Mo4A 1_555 1_555
O20A Mo3A 1_555 1_555
O23A Cd3A 1_555 1_555
O24A Mo1_2 1_555 1_555
O24A Mo2_2 1_555 1_555
O25A Mo5_2 1_555 1_555
O25A Mo6_2 1_555 1_555
O31A Mo6A 1_555 1_555
Mo2A O24_2 1_555 1_555
Mo6A O25_2 1_555 1_555
C8A N7A 1_555 1_555
C9A N7A 1_555 1_555
C10A N8A 1_555 1_555
C14A N10A 1_555 1_555
C14A N12A 1_555 1_555
N8A N9A 1_555 1_555
N10A N11A 1_555 1_555
O15_2 Mo4A_2 1_555 1_555
O15A_2 Mo4_2 1_555 1_555
O16_2 Mo6_3 1_555 1_555
O16A_3 Mo6A_2 1_555 1_555
O29_2 Mo5_2 1_555 1_555
O29A_2 Mo5A_2 1_555 1_555

#END
