
#######################################################################
#
#                 Cambridge Crystallographic Data Centre
#                                CCDC 
#
#######################################################################
#
# If this CIF has been generated from an entry in the Cambridge 
# Structural Database, then it will include bibliographic, chemical, 
# crystal, experimental, refinement or atomic coordinate data resulting 
# from the CCDC's data processing and validation procedures.
#
#######################################################################

data_CIGXIB
_symmetry_cell_setting           triclinic
_symmetry_space_group_name_H-M   'P -1'
_symmetry_Int_Tables_number      2
_space_group_name_Hall           '-P 1'
loop_
_symmetry_equiv_pos_site_id
_symmetry_equiv_pos_as_xyz
1 x,y,z
2 -x,-y,-z
_cell_length_a                   14.3639(10)
_cell_length_b                   14.9311(10)
_cell_length_c                   14.9490(10)
_cell_angle_alpha                114.3800(10)
_cell_angle_beta                 111.4440(10)
_cell_angle_gamma                92.4370(10)
_cell_volume                     2646.36
loop_
_atom_site_label
_atom_site_type_symbol
_atom_site_fract_x
_atom_site_fract_y
_atom_site_fract_z
C1 C -0.2690(10) 0.9150(8) 0.2472(9)
H1 H -0.3327 0.9375 0.2369
H2 H -0.2296 0.9486 0.2246
C2 C -0.2921(11) 0.8075(8) 0.1798(10)
H3 H -0.3378 0.7746 0.1972
H4 H -0.2290 0.7840 0.1964
C3 C -0.2093(9) 0.9454(8) 0.3654(9)
H5 H -0.1475 0.9195 0.3757
H6 H -0.2504 0.9159 0.3897
C4 C -0.2902(8) 0.8138(8) 0.0093(8)
H7 H -0.2259 0.8571 0.0429
C5 C -0.4409(8) 0.7061(9) -0.1104(8)
H8 H -0.4926 0.6625 -0.1781
C6 C -0.0632(7) 0.6799(6) 1.1015(7)
H9 H -0.0750 0.6829 1.1625
H10 H -0.0025 0.6534 1.1031
C7 C -0.1665(7) 0.5002(6) 0.9767(8)
H11 H -0.1799 0.4939 1.0331
H12 H -0.1036 0.4785 0.9777
C8 C -0.0275(7) 0.8117(6) 1.0488(6)
H13 H -0.0242 0.7691 0.9844
C9 C -0.2592(6) 0.9558(5) 0.5890(6)
H14 H -0.2000 0.9477 0.6354
C10 C -0.2815(5) 0.0380(5) 0.8427(5)
H15 H -0.2477 -0.0099 0.8561
C11 C -0.1865(7) 1.1239(6) 0.6161(8)
H16 H -0.1421 1.1433 0.6911
H17 H -0.2168 1.1802 0.6137
C12 C -0.3980(6) 0.1046(5) 0.7654(6)
H18 H -0.4562 0.1123 0.7176
C13 C -0.0294(7) 0.9376(6) 1.1775(6)
H19 H -0.0272 1.0041 1.2218
C14 C -0.3165(7) 0.2863(6) 0.8878(7)
H20 H -0.2761 0.3250 0.9653
H21 H -0.3851 0.2984 0.8713
C15 C -0.1793(9) 1.0632(8) 0.4351(9)
H22 H -0.1372 1.0911 0.4105
H23 H -0.2417 1.0880 0.4205
C16 C -0.1536(8) 0.6096(6) 0.9985(7)
H24 H -0.1460 0.6142 0.9385
H25 H -0.2155 0.6316 1.0014
C17 C -0.2693(8) 0.3205(6) 0.8304(8)
H26 H -0.3126 0.2848 0.7532
H27 H -0.2030 0.3032 0.8424
C18 C -0.4085(6) 0.9310(5) 0.4744(6)
H28 H -0.4762 0.9001 0.4241
C19 C -0.2550(7) 0.4332(6) 0.8673(7)
H29 H -0.3180 0.4522 0.8699
H30 H -0.2446 0.4469 0.8132
C20 C -0.1241(7) 1.1029(8) 0.5526(8)
H31 H -0.0752 1.1650 0.5802
H32 H -0.0849 1.0550 0.5662
N1 N -0.3519(13) 0.7748(12) -0.0893(13)
N2 N -0.3635(5) 1.0223(4) 0.4997(5)
N3 N -0.3418(8) 0.7764(8) 0.0596(8)
N4 N -0.0467(6) 0.8627(5) 1.1990(5)
N5 N -0.2497(7) 0.1380(6) 0.9015(7)
N6 N -0.4351(11) 0.7173(10) -0.0092(12)
N7 N -0.3730(7) 0.0198(7) 0.7594(7)
N8 N -0.0449(5) 0.7814(4) 1.1129(5)
N9 N -0.3480(4) 0.8867(4) 0.5275(5)
N10 N -0.3218(5) 0.1785(5) 0.8554(5)
N11 N -0.0152(5) 0.9101(4) 1.0871(5)
N12 N -0.2675(4) 1.0370(4) 0.5748(5)
O1 O -0.0502(3) 0.5057(3) 0.6305(3)
O2 O -0.0828(4) 1.1135(4) 1.0839(4)
H33 H -0.1324 1.0818 1.0875
H34 H -0.0400 1.1566 1.1491
O3 O -0.2184(3) 0.7386(3) 0.4760(3)
O4 O -0.1536(3) 0.5152(3) 0.2649(3)
O5 O -0.3647(3) 0.3282(3) 0.2526(3)
O6 O -0.2945(3) 0.3256(3) 0.5827(3)
O7 O -0.4900(4) 0.5504(4) 0.1331(4)
O8 O -0.6083(5) 0.4187(7) 0.3222(5)
O9 O -0.0508(3) 0.6381(3) 0.4872(3)
O10 O -0.4927(5) 0.6648(5) 0.3327(5)
O11 O 0.0028(3) 0.7168(3) 0.7106(3)
O12 O -0.3657(3) 0.4406(3) 0.1503(3)
O13 O -0.4465(3) 0.1786(3) 0.4737(4)
O14 O -0.1688(3) 0.9114(3) 0.8659(3)
O15 O -0.3610(4) 0.5452(4) 0.0555(4)
O16 O -0.1391(3) 0.8347(3) 0.6978(3)
O17 O -0.1468(3) 0.7353(3) 0.7963(3)
O18 O -0.3072(3) 0.7770(3) 0.6925(3)
O19 O -0.2421(4) 0.2995(3) 0.1308(3)
O20 O -0.3696(3) 0.2411(3) 0.3794(3)
O21 O -0.3057(3) 0.6307(3) 0.2544(3)
O22 O -0.4729(3) 0.3390(3) 0.4785(4)
O23 O -0.1514(3) 0.3047(3) 0.4952(3)
O24 O -0.1838(3) 0.6220(3) 0.5804(3)
O25 O -0.2483(4) 0.1786(3) 0.2665(4)
O26 O -0.0058(3) 0.8514(3) 0.6124(4)
O27 O -0.0878(3) 0.3850(3) 0.7255(4)
O28 O -0.2615(3) 0.4365(3) 0.4822(3)
O29 O -0.1430(3) 0.3830(3) 0.3584(3)
O30 O -0.2092(3) 0.5311(3) 0.7064(3)
O31 O -0.1017(4) 0.7315(3) 0.3490(4)
O32 O -0.2545(3) 0.5295(3) 0.3784(3)
O33 O -0.3742(3) 0.5619(3) 0.4712(3)
O34 O 0.0035(3) 0.6333(3) 0.8535(3)
P1 P -0.39296(12) 0.27678(11) 0.47866(13)
P2 P -0.19234(12) 0.81280(11) 0.76124(12)
P3 P -0.38146(12) 0.54151(12) 0.15003(13)
P4 P -0.27145(11) 0.53688(11) 0.47711(12)
Mo1 Mo -0.25437(4) 0.39036(4) 0.23664(4)
Mo2 Mo -0.16426(4) 0.65483(4) 0.37498(4)
Mo3 Mo -0.25615(4) 0.29363(4) 0.34688(4)
Mo4 Mo -0.08588(4) 0.61465(4) 0.73346(4)
Mo5 Mo -0.15620(4) 0.41954(4) 0.63279(4)
Mo6 Mo -0.08731(4) 0.75055(4) 0.58579(4)
Cd1 Cd -0.5000 0.5000 0.5000
Cd2 Cd 0.0000 0.5000 0.5000
Cd3 Cd -0.37814(4) 0.72876(3) 0.51238(4)
Cd4 Cd 0.0000 1.0000 1.0000
C1A C -0.7310(10) 0.0850(8) 0.7528(9)
H1A H -0.6673 0.0625 0.7631
H2A H -0.7704 0.0514 0.7754
C2A C -0.7079(11) 0.1925(8) 0.8202(10)
H3A H -0.6622 0.2254 0.8028
H4A H -0.7710 0.2160 0.8036
C3A C -0.7907(9) 0.0546(8) 0.6346(9)
H5A H -0.8525 0.0805 0.6243
H6A H -0.7496 0.0841 0.6103
C4A C -0.7098(8) 0.1862(8) 0.9907(8)
H7A H -0.7741 0.1429 0.9571
C5A C -0.5591(8) 0.2939(9) 1.1104(8)
H8A H -0.5074 0.3375 1.1781
C9A C -0.7408(6) 0.0442(5) 0.4110(6)
H14A H -0.8000 0.0523 0.3646
C11A C -0.8135(7) -0.1239(6) 0.3839(8)
H16A H -0.8579 -0.1433 0.3089
H17A H -0.7832 -0.1802 0.3863
C15A C -0.8207(9) -0.0632(8) 0.5649(9)
H22A H -0.8628 -0.0911 0.5895
H23A H -0.7583 -0.0880 0.5795
C18A C -0.5915(6) 0.0690(5) 0.5256(6)
H28A H -0.5238 0.0999 0.5759
C20A C -0.8759(7) -0.1029(8) 0.4474(8)
H31A H -0.9248 -0.1650 0.4198
H32A H -0.9151 -0.0550 0.4338
N1A N -0.6481(13) 0.2252(12) 1.0893(13)
N2A N -0.6365(5) -0.0223(4) 0.5003(5)
N3A N -0.6582(8) 0.2236(8) 0.9404(8)
N6A N -0.5649(11) 0.2827(10) 1.0092(12)
N9A N -0.6520(4) 0.1133(4) 0.4725(5)
N12A N -0.7325(4) -0.0370(4) 0.4252(5)
O1A O -0.9498(3) 0.4943(3) 0.3695(3)
O3A O -0.7816(3) 0.2614(3) 0.5240(3)
O4A O -0.8464(3) 0.4848(3) 0.7351(3)
O5A O -0.6353(3) 0.6718(3) 0.7474(3)
O6A O -0.7055(3) 0.6744(3) 0.4173(3)
O7A O -0.5100(4) 0.4496(4) 0.8669(4)
O8A O -0.3917(5) 0.5813(7) 0.6778(5)
O9A O -0.9492(3) 0.3619(3) 0.5128(3)
O10A O -0.5073(5) 0.3352(5) 0.6673(5)
O11A O -1.0028(3) 0.2832(3) 0.2894(3)
O12A O -0.6343(3) 0.5594(3) 0.8497(3)
O13A O -0.5535(3) 0.8214(3) 0.5263(4)
O14A O -0.8312(3) 0.0886(3) 0.1341(3)
O15A O -0.6390(4) 0.4548(4) 0.9445(4)
O16A O -0.8609(3) 0.1653(3) 0.3022(3)
O17A O -0.8532(3) 0.2647(3) 0.2037(3)
O18A O -0.6928(3) 0.2230(3) 0.3075(3)
O19A O -0.7579(4) 0.7005(3) 0.8692(3)
O20A O -0.6304(3) 0.7589(3) 0.6206(3)
O21A O -0.6943(3) 0.3693(3) 0.7456(3)
O22A O -0.5271(3) 0.6610(3) 0.5215(4)
O23A O -0.8486(3) 0.6953(3) 0.5048(3)
O24A O -0.8162(3) 0.3780(3) 0.4196(3)
O25A O -0.7517(4) 0.8214(3) 0.7335(4)
O26A O -0.9942(3) 0.1486(3) 0.3876(4)
O27A O -0.9122(3) 0.6150(3) 0.2745(4)
O28A O -0.7385(3) 0.5635(3) 0.5178(3)
O29A O -0.8570(3) 0.6170(3) 0.6416(3)
O30A O -0.7908(3) 0.4689(3) 0.2936(3)
O31A O -0.8983(4) 0.2685(3) 0.6510(4)
O32A O -0.7455(3) 0.4705(3) 0.6216(3)
O33A O -0.6258(3) 0.4381(3) 0.5288(3)
O34A O -1.0035(3) 0.3667(3) 0.1465(3)
P1A P -0.60704(12) 0.72322(11) 0.52134(13)
P2A P -0.80766(12) 0.18720(11) 0.23876(12)
P3A P -0.61854(12) 0.45849(12) 0.84997(13)
P4A P -0.72855(11) 0.46312(11) 0.52289(12)
Mo1A Mo -0.74563(4) 0.60964(4) 0.76336(4)
Mo2A Mo -0.83574(4) 0.34517(4) 0.62502(4)
Mo3A Mo -0.74385(4) 0.70637(4) 0.65312(4)
Mo4A Mo -0.91412(4) 0.38535(4) 0.26654(4)
Mo5A Mo -0.84380(4) 0.58046(4) 0.36721(4)
Mo6A Mo -0.91269(4) 0.24945(4) 0.41421(4)
Cd3A Cd -0.62186(4) 0.27124(3) 0.48762(4)
C6A C 0.0632(7) 1.3201(6) 0.8985(7)
H9A H 0.0750 1.3171 0.8375
H10A H 0.0025 1.3466 0.8969
C7A C 0.1665(7) 1.4998(6) 1.0233(8)
H11A H 0.1799 1.5061 0.9669
H12A H 0.1036 1.5215 1.0223
C8A C 0.0275(7) 1.1883(6) 0.9512(6)
H13A H 0.0242 1.2309 1.0156
C10A C 0.2815(5) 1.9620(5) 1.1573(5)
H15A H 0.2477 2.0099 1.1439
C12A C 0.3980(6) 1.8954(5) 1.2346(6)
H18A H 0.4562 1.8877 1.2824
C13A C 0.0294(7) 1.0624(6) 0.8225(6)
H19A H 0.0272 0.9959 0.7782
C14A C 0.3165(7) 1.7137(6) 1.1122(7)
H20A H 0.2761 1.6750 1.0347
H21A H 0.3851 1.7016 1.1287
C16A C 0.1536(8) 1.3904(6) 1.0015(7)
H24A H 0.1460 1.3858 1.0615
H25A H 0.2155 1.3684 0.9986
C17A C 0.2693(8) 1.6795(6) 1.1696(8)
H26A H 0.3126 1.7152 1.2468
H27A H 0.2030 1.6968 1.1576
C19A C 0.2550(7) 1.5668(6) 1.1327(7)
H29A H 0.3180 1.5478 1.1301
H30A H 0.2446 1.5531 1.1868
N4A N 0.0467(6) 1.1373(5) 0.8010(5)
N5A N 0.2497(7) 1.8620(6) 1.0985(7)
N7A N 0.3730(7) 1.9802(7) 1.2406(7)
N8A N 0.0449(5) 1.2186(4) 0.8871(5)
N10A N 0.3218(5) 1.8215(5) 1.1446(5)
N11A N 0.0152(5) 1.0899(4) 0.9129(5)
O2A O 0.0828(4) 0.8865(4) 0.9161(4)
H33A H 0.1324 0.9182 0.9125
H34A H 0.0400 0.8434 0.8509
O1A_2 O 0.0502(3) 0.4943(3) 0.3695(3)
O9A_2 O 0.0508(3) 0.3619(3) 0.5128(3)
O14A_2 O 0.1688(3) 1.0886(3) 1.1341(3)
O29A_2 O 0.1430(3) 0.6170(3) 0.6416(3)
Cd2_2 Cd -1.0000 0.5000 0.5000
Cd4_2 Cd -1.0000 0.0000 0.0000
O35 O 0.5456(10) 1.1232(9) 0.9923(10)
H35 H 0.4836 1.1042 0.9800
H36 H 0.5736 1.0730 0.9811
O36 O 0.5001(10) 0.9135(9) 0.8504(10)
H37 H 0.5426 0.8831 0.8295
H38 H 0.5254 0.9768 0.8851
O37 O -0.2602(6) 0.0326(6) 1.0666(6)
H39 H -0.2129 0.0194 1.1105
H40 H -0.3098 -0.0190 1.0249
loop_
_geom_bond_atom_site_label_1
_geom_bond_atom_site_label_2
_geom_bond_site_symmetry_1
_geom_bond_site_symmetry_2
C1 H1 1_555 1_555
H2 C1 1_555 1_555
C2 C1 1_555 1_555
H3 C2 1_555 1_555
H4 C2 1_555 1_555
C3 C1 1_555 1_555
H5 C3 1_555 1_555
H6 C3 1_555 1_555
C4 H7 1_555 1_555
C5 H8 1_555 1_555
C6 H9 1_555 1_555
H10 C6 1_555 1_555
C7 H11 1_555 1_555
H12 C7 1_555 1_555
C8 H13 1_555 1_555
C9 H14 1_555 1_555
C10 H15 1_555 1_555
C11 H16 1_555 1_555
H17 C11 1_555 1_555
C12 H18 1_555 1_555
C13 H19 1_555 1_555
C14 H20 1_555 1_555
H21 C14 1_555 1_555
C15 C3 1_555 1_555
H22 C15 1_555 1_555
H23 C15 1_555 1_555
C16 C6 1_555 1_555
H24 C16 1_555 1_555
H25 C16 1_555 1_555
C17 C14 1_555 1_555
H26 C17 1_555 1_555
H27 C17 1_555 1_555
C18 H28 1_555 1_555
C19 C7 1_555 1_555
H29 C19 1_555 1_555
H30 C19 1_555 1_555
C20 C11 1_555 1_555
H31 C20 1_555 1_555
H32 C20 1_555 1_555
N1 C4 1_555 1_555
N2 C18 1_555 1_555
N3 C2 1_555 1_555
N4 C13 1_555 1_555
N5 C10 1_555 1_555
N6 C5 1_555 1_555
N7 C10 1_555 1_555
N8 C6 1_555 1_555
N9 C9 1_555 1_555
N10 C12 1_555 1_555
N11 C8 1_555 1_555
N12 C9 1_555 1_555
O1 Mo4 1_555 1_555
O2 H33 1_555 1_555
H34 O2 1_555 1_555
O3 Mo2 1_555 1_555
O4 Mo1 1_555 1_555
O5 Mo1 1_555 1_555
O6 P1 1_555 1_555
O7 P3 1_555 1_555
O8 Cd1 1_555 1_555
O9 Mo2 1_555 1_555
O10 Cd3 1_555 1_555
O11 Mo4 1_555 1_555
O12 P3 1_555 1_555
O13 P1 1_555 1_555
O14 P2 1_555 1_555
O15 P3 1_555 1_555
O16 P2 1_555 1_555
O17 P2 1_555 1_555
O18 P2 1_555 1_555
O19 Mo1 1_555 1_555
O20 P1 1_555 1_555
O21 P3 1_555 1_555
O22 P1 1_555 1_555
O23 Mo3 1_555 1_555
O24 P4 1_555 1_555
O25 Mo3 1_555 1_555
O26 Mo6 1_555 1_555
O27 Mo5 1_555 1_555
O28 P4 1_555 1_555
O29 Mo1 1_555 1_555
O30 Mo4 1_555 1_555
O31 Mo2 1_555 1_555
O32 P4 1_555 1_555
O33 P4 1_555 1_555
O34 Mo4 1_555 1_555
Mo1 O12 1_555 1_555
Mo2 O4 1_555 1_555
Mo3 O5 1_555 1_555
Mo4 O17 1_555 1_555
Mo5 O1 1_555 1_555
Mo6 O3 1_555 1_555
Cd1 O22 1_555 1_555
Cd2 O1 1_555 1_555
Cd3 N9 1_555 1_555
Cd4 N11 1_555 1_555
O35 H35 1_555 1_555
H36 O35 1_555 1_555
O36 H37 1_555 1_555
H38 O36 1_555 1_555
O37 H39 1_555 1_555
H40 O37 1_555 1_555
C1A H1A 1_555 1_555
H2A C1A 1_555 1_555
C2A C1A 1_555 1_555
H3A C2A 1_555 1_555
H4A C2A 1_555 1_555
C3A C1A 1_555 1_555
H5A C3A 1_555 1_555
H6A C3A 1_555 1_555
C4A H7A 1_555 1_555
C5A H8A 1_555 1_555
C9A H14A 1_555 1_555
C11A H16A 1_555 1_555
H17A C11A 1_555 1_555
C15A C3A 1_555 1_555
H22A C15A 1_555 1_555
H23A C15A 1_555 1_555
C18A H28A 1_555 1_555
C20A C11A 1_555 1_555
H31A C20A 1_555 1_555
H32A C20A 1_555 1_555
N1A C4A 1_555 1_555
N2A C18A 1_555 1_555
N3A C2A 1_555 1_555
N6A C5A 1_555 1_555
N9A C9A 1_555 1_555
N12A C9A 1_555 1_555
O1A Mo4A 1_555 1_555
O3A Mo2A 1_555 1_555
O4A Mo1A 1_555 1_555
O5A Mo1A 1_555 1_555
O6A P1A 1_555 1_555
O7A P3A 1_555 1_555
O8A Cd1 1_555 1_555
O9A Mo2A 1_555 1_555
O10A Cd3A 1_555 1_555
O11A Mo4A 1_555 1_555
O12A P3A 1_555 1_555
O13A P1A 1_555 1_555
O14A P2A 1_555 1_555
O15A P3A 1_555 1_555
O16A P2A 1_555 1_555
O17A P2A 1_555 1_555
O18A P2A 1_555 1_555
O19A Mo1A 1_555 1_555
O20A P1A 1_555 1_555
O21A P3A 1_555 1_555
O22A Cd1 1_555 1_555
O23A Mo3A 1_555 1_555
O24A P4A 1_555 1_555
O25A Mo3A 1_555 1_555
O26A Mo6A 1_555 1_555
O27A Mo5A 1_555 1_555
O28A P4A 1_555 1_555
O29A Mo1A 1_555 1_555
O30A Mo4A 1_555 1_555
O31A Mo2A 1_555 1_555
O32A P4A 1_555 1_555
O33A Cd1 1_555 1_555
O34A Mo4A 1_555 1_555
P1A O22A 1_555 1_555
P4A O33A 1_555 1_555
Mo1A O12A 1_555 1_555
Mo2A O4A 1_555 1_555
Mo3A O5A 1_555 1_555
Mo4A O17A 1_555 1_555
Mo5A O1A 1_555 1_555
Mo6A O3A 1_555 1_555
Cd3A O22 1_555 1_555
C6A H9A 1_555 1_555
H10A C6A 1_555 1_555
C7A H11A 1_555 1_555
H12A C7A 1_555 1_555
C8A H13A 1_555 1_555
C10A H15A 1_555 1_555
C12A H18A 1_555 1_555
C13A H19A 1_555 1_555
C14A H20A 1_555 1_555
H21A C14A 1_555 1_555
C16A C6A 1_555 1_555
H24A C16A 1_555 1_555
H25A C16A 1_555 1_555
C17A C14A 1_555 1_555
H26A C17A 1_555 1_555
H27A C17A 1_555 1_555
C19A C7A 1_555 1_555
H29A C19A 1_555 1_555
H30A C19A 1_555 1_555
N4A C13A 1_555 1_555
N5A C10A 1_555 1_555
N7A C10A 1_555 1_555
N8A C6A 1_555 1_555
N10A C12A 1_555 1_555
N11A Cd4 1_555 1_555
O2A Cd4 1_555 1_555
H33A O2A 1_555 1_555
H34A O2A 1_555 1_555
O1A_2 Cd2 1_555 1_555
O9A_2 Cd2 1_555 1_555
O14A_2 Cd4 1_555 1_555
O29A_2 Cd2 1_555 1_555
Cd2_2 O1A 1_555 1_555
Cd4_2 O14A 1_555 1_555
C4 N3 1_555 1_555
C5 N1 1_555 1_555
C7 C16 1_555 1_555
C8 N8 1_555 1_555
C11 N12 1_555 1_555
C12 N7 1_555 1_555
C13 N11 1_555 1_555
C14 N10 1_555 1_555
C15 C20 1_555 1_555
C17 C19 1_555 1_555
C18 N9 1_555 1_555
N2 N12 1_555 1_555
N3 N6 1_555 1_555
N4 N8 1_555 1_555
N5 N10 1_555 1_555
O2 Cd4 1_555 1_555
O3 Cd3 1_555 1_555
O6 Mo5 1_555 1_555
O9 Mo6 1_555 1_555
O9 Cd2 1_555 1_555
O11 Mo6 1_555 1_555
O14 Cd4 1_555 1_555
O16 Mo6 1_555 1_555
O18 Cd3 1_555 1_555
O20 Mo3 1_555 1_555
O21 Mo2 1_555 1_555
O23 Mo5 1_555 1_555
O24 Mo4 1_555 1_555
O24 Mo6 1_555 1_555
O28 Mo3 1_555 1_555
O28 Mo5 1_555 1_555
O29 Mo3 1_555 1_555
O29 Cd2 1_555 1_555
O30 Mo5 1_555 1_555
O32 Mo1 1_555 1_555
O32 Mo2 1_555 1_555
O33 Cd1 1_555 1_555
O33 Cd3 1_555 1_555
Cd3 O22A 1_555 1_555
C4A N3A 1_555 1_555
C5A N1A 1_555 1_555
C11A N12A 1_555 1_555
C15A C20A 1_555 1_555
C18A N9A 1_555 1_555
N2A N12A 1_555 1_555
N3A N6A 1_555 1_555
N9A Cd3A 1_555 1_555
O3A Cd3A 1_555 1_555
O6A Mo5A 1_555 1_555
O9A Mo6A 1_555 1_555
O9A Cd2_2 1_555 1_555
O11A Mo6A 1_555 1_555
O16A Mo6A 1_555 1_555
O18A Cd3A 1_555 1_555
O20A Mo3A 1_555 1_555
O21A Mo2A 1_555 1_555
O23A Mo5A 1_555 1_555
O24A Mo4A 1_555 1_555
O24A Mo6A 1_555 1_555
O28A Mo3A 1_555 1_555
O28A Mo5A 1_555 1_555
O29A Mo3A 1_555 1_555
O29A Cd2_2 1_555 1_555
O30A Mo5A 1_555 1_555
O32A Mo1A 1_555 1_555
O32A Mo2A 1_555 1_555
O33A Cd3A 1_555 1_555
C7A C16A 1_555 1_555
C8A N8A 1_555 1_555
C8A N11A 1_555 1_555
C12A N7A 1_555 1_555
C13A N11A 1_555 1_555
C14A N10A 1_555 1_555
C17A C19A 1_555 1_555
N4A N8A 1_555 1_555
N5A N10A 1_555 1_555

#END
