
#######################################################################
#
#                 Cambridge Crystallographic Data Centre
#                                CCDC 
#
#######################################################################
#
# If this CIF has been generated from an entry in the Cambridge 
# Structural Database, then it will include bibliographic, chemical, 
# crystal, experimental, refinement or atomic coordinate data resulting 
# from the CCDC's data processing and validation procedures.
#
#######################################################################

data_CIGYUM
_symmetry_cell_setting           monoclinic
_symmetry_space_group_name_H-M   'P 21/n'
_symmetry_Int_Tables_number      14
_space_group_name_Hall           '-P 2yn'
loop_
_symmetry_equiv_pos_site_id
_symmetry_equiv_pos_as_xyz
1 x,y,z
2 1/2-x,1/2+y,1/2-z
3 -x,-y,-z
4 1/2+x,1/2-y,1/2+z
_cell_length_a                   15.753(4)
_cell_length_b                   11.262(3)
_cell_length_c                   7.587(2)
_cell_angle_alpha                90
_cell_angle_beta                 91.72(2)
_cell_angle_gamma                90
_cell_volume                     1345.41
loop_
_atom_site_label
_atom_site_type_symbol
_atom_site_fract_x
_atom_site_fract_y
_atom_site_fract_z
Cu1 Cu 0.00000 0.00000 0.00000
O1 O 0.12020 0.02950 0.04270
C1 C 0.14860 0.12400 0.10970
C2 C 0.24180 0.11820 0.15890
F1 F 0.25710 0.03330 0.27800
F2 F 0.27380 0.21060 0.23530
F3 F 0.28910 0.08880 0.03540
C3 C 0.10550 0.22720 0.14580
C4 C 0.01830 0.24290 0.10930
O2 O -0.02830 0.16410 0.04050
C5 C -0.02630 0.35530 0.15560
C6 C 0.01530 0.45300 0.23070
C7 C -0.02990 0.55260 0.27530
C8 C -0.11530 0.55480 0.24200
C9 C -0.15810 0.46160 0.16670
C10 C -0.11250 0.36140 0.12580
O3 O 0.01100 0.02740 -0.31990
C11 C 0.07880 -0.01990 -0.42040
C12 C -0.04590 0.09360 -0.43330
H1 H 0.13700 0.29200 0.20100
H2 H 0.07600 0.45200 0.25100
H3 H -0.00100 0.62000 0.33000
H4 H -0.21900 0.46600 0.14400
H5 H -0.14200 0.29400 0.07300
H6 H 0.11200 0.04500 -0.46500
H7 H 0.11600 -0.06600 -0.34300
H8 H -0.09300 0.12100 -0.36600
H9 H -0.01800 0.16100 -0.47900
O1B O -0.12020 -0.02950 -0.04270
O2B O 0.02830 -0.16410 -0.04050
O3B O -0.01100 -0.02740 0.31990
C12B C 0.04590 -0.09360 -0.56670
C11B C -0.07880 0.01990 -0.57960
C1B C -0.14860 -0.12400 -0.10970
C4B C -0.01830 -0.24290 -0.10930
C11B_2 C -0.07880 0.01990 0.42040
C12B_2 C 0.04590 -0.09360 0.43330
O3B_2 O -0.01100 -0.02740 -0.68010
H8B H 0.09300 -0.12100 -0.63400
H9B H 0.01800 -0.16100 -0.52100
H6B H -0.11200 -0.04500 -0.53500
H7B H -0.11600 0.06600 -0.65700
C2B C -0.24180 -0.11820 -0.15890
C3B C -0.10550 -0.22720 -0.14580
C5B C 0.02630 -0.35530 -0.15560
F1B F -0.25710 -0.03330 -0.27800
F2B F -0.27380 -0.21060 -0.23530
F3B F -0.28910 -0.08880 -0.03540
H1B H -0.13700 -0.29200 -0.20100
C6B C -0.01530 -0.45300 -0.23070
C10B C 0.11250 -0.36140 -0.12580
C7B C 0.02990 -0.55260 -0.27530
H2B H -0.07600 -0.45200 -0.25100
C9B C 0.15810 -0.46160 -0.16670
H5B H 0.14200 -0.29400 -0.07300
C8B C 0.11530 -0.55480 -0.24200
H3B H 0.00100 -0.62000 -0.33000
H4B H 0.21900 -0.46600 -0.14400
loop_
_geom_bond_atom_site_label_1
_geom_bond_atom_site_label_2
_geom_bond_site_symmetry_1
_geom_bond_site_symmetry_2
Cu1 O1 1_555 1_555
O1 C1 1_555 1_555
C1 C2 1_555 1_555
C2 F1 1_555 1_555
F2 C2 1_555 1_555
F3 C2 1_555 1_555
C3 C1 1_555 1_555
C4 C3 1_555 1_555
O2 Cu1 1_555 1_555
C5 C4 1_555 1_555
C6 C5 1_555 1_555
C7 C6 1_555 1_555
C8 C7 1_555 1_555
C9 C8 1_555 1_555
C10 C5 1_555 1_555
O3 Cu1 1_555 1_555
C11 O3 1_555 1_555
C12 O3 1_555 1_555
H1 C3 1_555 1_555
H2 C6 1_555 1_555
H3 C7 1_555 1_555
H4 C9 1_555 1_555
H5 C10 1_555 1_555
H6 C11 1_555 1_555
H7 C11 1_555 1_555
H8 C12 1_555 1_555
H9 C12 1_555 1_555
O1B Cu1 1_555 1_555
O2B Cu1 1_555 1_555
O3B Cu1 1_555 1_555
C12B C11 1_555 1_555
C11B C12 1_555 1_555
C1B O1B 1_555 1_555
C4B O2B 1_555 1_555
C11B_2 O3B 1_555 1_555
C12B_2 O3B 1_555 1_555
O3B_2 C12B 1_555 1_555
H8B C12B 1_555 1_555
H9B C12B 1_555 1_555
H6B C11B 1_555 1_555
H7B C11B 1_555 1_555
C2B C1B 1_555 1_555
C3B C1B 1_555 1_555
C5B C4B 1_555 1_555
F1B C2B 1_555 1_555
F2B C2B 1_555 1_555
F3B C2B 1_555 1_555
H1B C3B 1_555 1_555
C6B C5B 1_555 1_555
C10B C5B 1_555 1_555
C7B C6B 1_555 1_555
H2B C6B 1_555 1_555
C9B C10B 1_555 1_555
H5B C10B 1_555 1_555
C8B C7B 1_555 1_555
H3B C7B 1_555 1_555
H4B C9B 1_555 1_555
C4 O2 1_555 1_555
C9 C10 1_555 1_555
C11B O3B_2 1_555 1_555
C4B C3B 1_555 1_555
C9B C8B 1_555 1_555

#END
