
#######################################################################
#
#                 Cambridge Crystallographic Data Centre
#                                CCDC 
#
#######################################################################
#
# If this CIF has been generated from an entry in the Cambridge 
# Structural Database, then it will include bibliographic, chemical, 
# crystal, experimental, refinement or atomic coordinate data resulting 
# from the CCDC's data processing and validation procedures.
#
#######################################################################

data_CIGYEY
_symmetry_cell_setting           tetragonal
_symmetry_space_group_name_H-M   'I 41/a'
_symmetry_Int_Tables_number      88
_space_group_name_Hall           '-I 4ad'
loop_
_symmetry_equiv_pos_site_id
_symmetry_equiv_pos_as_xyz
1 x,y,z
2 1/2-x,-y,1/2+z
3 3/4-y,1/4+x,1/4+z
4 3/4+y,3/4-x,3/4+z
5 1/2+x,1/2+y,1/2+z
6 -x,1/2-y,z
7 1/4-y,3/4+x,3/4+z
8 1/4+y,1/4-x,1/4+z
9 -x,-y,-z
10 1/2+x,y,1/2-z
11 1/4+y,3/4-x,3/4-z
12 1/4-y,1/4+x,1/4-z
13 1/2-x,1/2-y,1/2-z
14 x,1/2+y,-z
15 3/4+y,1/4-x,1/4-z
16 3/4-y,3/4+x,3/4-z
_cell_length_a                   16.4000(8)
_cell_length_b                   16.4000(8)
_cell_length_c                   12.0057(11)
_cell_angle_alpha                90
_cell_angle_beta                 90
_cell_angle_gamma                90
_cell_volume                     3229.05
loop_
_atom_site_label
_atom_site_type_symbol
_atom_site_fract_x
_atom_site_fract_y
_atom_site_fract_z
I1 I 0.441029(18) 0.623833(18) 0.49304(2)
Cu1 Cu 0.57133(4) 0.71288(4) 0.54534(5)
N1 N 0.6665(2) 0.6748(2) 0.4498(3)
C1 C 0.6683(3) 0.6022(3) 0.3990(4)
H1 H 0.6248 0.5665 0.4088
C2 C 0.7294(3) 0.7247(3) 0.4344(4)
H2 H 0.7286 0.7752 0.4696
C3 C 0.7962(3) 0.7054(3) 0.3685(4)
C4 C 0.7331(3) 0.5787(3) 0.3324(4)
H3 H 0.7327 0.5277 0.2984
O1 O 0.85305(19) 0.7657(2) 0.3622(3)
C5 C 1.0000 0.7500 0.3750
C6 C 0.9251(2) 0.7560(3) 0.2980(3)
H4 H 0.9314 0.8022 0.2482
H5 H 0.9210 0.7070 0.2531
C7 C 0.7973(3) 0.6299(3) 0.3166(4)
H6 H 0.8411 0.6147 0.2719
N1E N 1.3335(2) 0.8252(2) 0.4498(3)
C1E C 1.3317(3) 0.8978(3) 0.3990(4)
H1E H 1.3752 0.9335 0.4088
C2E C 1.2706(3) 0.7753(3) 0.4344(4)
H2E H 1.2714 0.7248 0.4696
C3E C 1.2038(3) 0.7946(3) 0.3685(4)
C4E C 1.2669(3) 0.9213(3) 0.3324(4)
H3E H 1.2673 0.9723 0.2984
O1E O 1.14695(19) 0.7343(2) 0.3622(3)
C6E C 1.0749(2) 0.7440(3) 0.2980(3)
H4E H 1.0686 0.6978 0.2482
H5E H 1.0790 0.7930 0.2531
C7E C 1.2027(3) 0.8701(3) 0.3166(4)
H6E H 1.1589 0.8853 0.2719
N1J N 0.9248(2) 1.0835(2) 0.3002(3)
C1J C 0.8522(3) 1.0817(3) 0.3510(4)
H1J H 0.8165 1.1252 0.3412
C2J C 0.9747(3) 1.0206(3) 0.3156(4)
H2J H 1.0252 1.0214 0.2804
C3J C 0.9554(3) 0.9538(3) 0.3815(4)
C4J C 0.8287(3) 1.0169(3) 0.4176(4)
H3J H 0.7777 1.0173 0.4516
O1J O 1.0157(2) 0.89695(19) 0.3878(3)
C6J C 1.0060(3) 0.8249(2) 0.4520(3)
H4J H 1.0522 0.8186 0.5018
H5J H 0.9570 0.8290 0.4969
C7J C 0.8799(3) 0.9527(3) 0.4334(4)
H6J H 0.8647 0.9089 0.4781
N1O N 1.0752(2) 0.4165(2) 0.3002(3)
C1O C 1.1478(3) 0.4183(3) 0.3510(4)
H1O H 1.1835 0.3748 0.3412
C2O C 1.0253(3) 0.4794(3) 0.3156(4)
H2O H 0.9748 0.4786 0.2804
C3O C 1.0446(3) 0.5462(3) 0.3815(4)
C4O C 1.1713(3) 0.4831(3) 0.4176(4)
H3O H 1.2223 0.4827 0.4516
O1O O 0.9843(2) 0.60305(19) 0.3878(3)
C6O C 0.9940(3) 0.6751(2) 0.4520(3)
H4O H 0.9478 0.6814 0.5018
H5O H 1.0430 0.6710 0.4969
C7O C 1.1201(3) 0.5473(3) 0.4334(4)
H6O H 1.1353 0.5911 0.4781
I1E I 0.558971(18) 0.876167(18) 0.49304(2)
Cu1E Cu 0.42867(4) 0.78712(4) 0.54534(5)
I1N I 0.373833(18) 0.808971(18) 0.75696(2)
Cu1N Cu 0.46288(4) 0.67867(4) 0.70466(5)
I1K I 0.626167(18) 0.691029(18) 0.75696(2)
Cu1K Cu 0.53712(4) 0.82133(4) 0.70466(5)
Cu1E_2 Cu 1.42867(4) 0.78712(4) 0.54534(5)
Cu1J Cu 0.96288(4) 1.17867(4) 0.20466(5)
Cu1O Cu 1.03712(4) 0.32133(4) 0.20466(5)
N1E_2 N 0.3335(2) 0.8252(2) 0.4498(3)
N1K N 0.5752(2) 0.9165(2) 0.8002(3)
N1N N 0.4248(2) 0.5835(2) 0.8002(3)
loop_
_geom_bond_atom_site_label_1
_geom_bond_atom_site_label_2
_geom_bond_site_symmetry_1
_geom_bond_site_symmetry_2
I1 Cu1 1_555 1_555
Cu1 N1 1_555 1_555
N1 C1 1_555 1_555
C1 H1 1_555 1_555
C2 N1 1_555 1_555
H2 C2 1_555 1_555
C3 C2 1_555 1_555
C4 C1 1_555 1_555
H3 C4 1_555 1_555
O1 C3 1_555 1_555
C5 C6 1_555 1_555
C6 O1 1_555 1_555
H4 C6 1_555 1_555
H5 C6 1_555 1_555
C7 C3 1_555 1_555
H6 C7 1_555 1_555
N1E C1E 1_555 1_555
C1E H1E 1_555 1_555
C2E N1E 1_555 1_555
H2E C2E 1_555 1_555
C3E C2E 1_555 1_555
C4E C1E 1_555 1_555
H3E C4E 1_555 1_555
O1E C3E 1_555 1_555
C6E C5 1_555 1_555
H4E C6E 1_555 1_555
H5E C6E 1_555 1_555
C7E C3E 1_555 1_555
H6E C7E 1_555 1_555
N1J C1J 1_555 1_555
C1J H1J 1_555 1_555
C2J N1J 1_555 1_555
H2J C2J 1_555 1_555
C3J C2J 1_555 1_555
C4J C1J 1_555 1_555
H3J C4J 1_555 1_555
O1J C3J 1_555 1_555
C6J C5 1_555 1_555
H4J C6J 1_555 1_555
H5J C6J 1_555 1_555
C7J C3J 1_555 1_555
H6J C7J 1_555 1_555
N1O C1O 1_555 1_555
C1O H1O 1_555 1_555
C2O N1O 1_555 1_555
H2O C2O 1_555 1_555
C3O C2O 1_555 1_555
C4O C1O 1_555 1_555
H3O C4O 1_555 1_555
O1O C3O 1_555 1_555
C6O C5 1_555 1_555
H4O C6O 1_555 1_555
H5O C6O 1_555 1_555
C7O C3O 1_555 1_555
H6O C7O 1_555 1_555
I1E Cu1 1_555 1_555
Cu1E I1 1_555 1_555
I1N Cu1E 1_555 1_555
Cu1N I1 1_555 1_555
I1K Cu1 1_555 1_555
Cu1K I1E 1_555 1_555
Cu1E_2 N1E 1_555 1_555
Cu1J N1J 1_555 1_555
Cu1O N1O 1_555 1_555
N1E_2 Cu1E 1_555 1_555
N1K Cu1K 1_555 1_555
N1N Cu1N 1_555 1_555
C4 C7 1_555 1_555
C4E C7E 1_555 1_555
O1E C6E 1_555 1_555
C4J C7J 1_555 1_555
O1J C6J 1_555 1_555
C4O C7O 1_555 1_555
O1O C6O 1_555 1_555
I1E Cu1E 1_555 1_555
I1N Cu1N 1_555 1_555
I1N Cu1K 1_555 1_555
Cu1N I1K 1_555 1_555
I1K Cu1K 1_555 1_555

#END
