
#######################################################################
#
#                 Cambridge Crystallographic Data Centre
#                                CCDC 
#
#######################################################################
#
# If this CIF has been generated from an entry in the Cambridge 
# Structural Database, then it will include bibliographic, chemical, 
# crystal, experimental, refinement or atomic coordinate data resulting 
# from the CCDC's data processing and validation procedures.
#
#######################################################################

data_CIGZOJ
_symmetry_cell_setting           triclinic
_symmetry_space_group_name_H-M   'P -1'
_symmetry_Int_Tables_number      2
_space_group_name_Hall           '-P 1'
loop_
_symmetry_equiv_pos_site_id
_symmetry_equiv_pos_as_xyz
1 x,y,z
2 -x,-y,-z
_cell_length_a                   10.451(3)
_cell_length_b                   12.023(3)
_cell_length_c                   13.577(3)
_cell_angle_alpha                82.766(4)
_cell_angle_beta                 84.880(4)
_cell_angle_gamma                80.609(4)
_cell_volume                     1665.6
loop_
_atom_site_label
_atom_site_type_symbol
_atom_site_fract_x
_atom_site_fract_y
_atom_site_fract_z
In1 In 0.235280(12) 0.148492(11) 0.391386(10)
K1 K 0.33638(4) -0.40838(4) 0.47318(3)
N1 N 0.21057(16) 0.12015(15) 0.56631(13)
N2 N 0.30750(17) -0.02787(15) 0.42078(13)
N3 N 0.35131(16) 0.26568(15) 0.43098(13)
N4 N 0.03126(16) 0.21098(15) 0.41973(14)
N5 N 0.3340(2) -0.06711(16) 0.25766(15)
N6 N 0.43886(18) 0.32167(17) 0.27397(14)
N7 N 0.02517(18) 0.35971(15) 0.29276(14)
O1 O 0.26095(16) 0.18033(13) 0.23784(12)
O2 O 0.36101(15) -0.21224(13) 0.38249(12)
O3 O 0.48185(14) 0.40508(12) 0.40674(12)
O4 O -0.11229(15) 0.37694(13) 0.43244(12)
H1 H 0.214(4) 0.163(3) 0.208(3)
H2 H 0.323(3) 0.000(3) 0.245(2)
H3 H 0.400(3) 0.279(2) 0.252(2)
H4 H 0.093(3) 0.317(2) 0.272(2)
C1 C 0.2267(2) -0.00417(18) 0.59468(16)
H5 H 0.1421 -0.0306 0.5929
H6 H 0.2536 -0.0215 0.6637
C2 C 0.3278(2) -0.06833(19) 0.52542(16)
H7 H 0.4159 -0.0580 0.5402
H8 H 0.3221 -0.1504 0.5376
C3 C 0.33606(19) -0.10815(17) 0.35598(16)
C4 C 0.3670(2) -0.13534(19) 0.17344(17)
C5 C 0.2708(2) -0.2184(2) 0.1742(2)
H9 H 0.1822 -0.1765 0.1730
H10 H 0.2779 -0.2724 0.2347
H11 H 0.2905 -0.2597 0.1156
C6 C 0.5065(2) -0.1982(2) 0.17501(19)
H12 H 0.5666 -0.1434 0.1743
H13 H 0.5272 -0.2394 0.1164
H14 H 0.5151 -0.2520 0.2354
C7 C 0.3552(3) -0.0505(2) 0.07983(18)
H15 H 0.4173 0.0025 0.0793
H16 H 0.2667 -0.0083 0.0793
H17 H 0.3742 -0.0913 0.0208
C8 C 0.3147(2) 0.17268(19) 0.60058(16)
H18 H 0.3974 0.1193 0.5979
H19 H 0.2928 0.1878 0.6706
C9 C 0.3323(2) 0.28378(19) 0.53615(16)
H20 H 0.2545 0.3413 0.5466
H21 H 0.4085 0.3127 0.5560
C10 C 0.42685(18) 0.33306(17) 0.37296(16)
C11 C 0.5377(2) 0.36454(19) 0.20099(17)
C12 C 0.5203(3) 0.4942(2) 0.1888(2)
H22 H 0.4325 0.5249 0.1689
H23 H 0.5844 0.5202 0.1376
H24 H 0.5328 0.5206 0.2522
C13 C 0.6742(2) 0.3148(2) 0.2321(2)
H25 H 0.6873 0.3407 0.2955
H26 H 0.7388 0.3400 0.1810
H27 H 0.6838 0.2317 0.2398
C14 C 0.5158(3) 0.3245(3) 0.1021(2)
H28 H 0.4282 0.3568 0.0827
H29 H 0.5251 0.2415 0.1096
H30 H 0.5801 0.3497 0.0506
C15 C 0.07892(19) 0.17791(18) 0.59601(16)
H31 H 0.0820 0.2589 0.6011
H32 H 0.0491 0.1427 0.6621
C16 C -0.01659(19) 0.16865(18) 0.51940(16)
H33 H -0.0282 0.0884 0.5207
H34 H -0.1022 0.2131 0.5368
C17 C -0.02285(19) 0.31831(18) 0.38569(16)
C18 C 0.0299(2) 0.48230(18) 0.26478(17)
C19 C 0.1002(2) 0.5286(2) 0.34165(19)
H35 H 0.1874 0.4849 0.3472
H36 H 0.0509 0.5221 0.4065
H37 H 0.1070 0.6085 0.3204
C20 C 0.1076(2) 0.4920(2) 0.16424(18)
H38 H 0.0632 0.4624 0.1149
H39 H 0.1947 0.4480 0.1704
H40 H 0.1149 0.5718 0.1429
C21 C -0.1069(2) 0.5494(2) 0.25469(19)
H41 H -0.1504 0.5188 0.2054
H42 H -0.1009 0.6294 0.2331
H43 H -0.1570 0.5429 0.3191
K1_2 K 0.33638(4) 0.59162(4) 0.47318(3)
K1A K -0.33638(4) 0.40838(4) 0.52682(3)
K1A_2 K 0.66362(4) 0.40838(4) 0.52682(3)
O3_2 O 0.48185(14) -0.59492(12) 0.40674(12)
O3A O 0.51815(14) -0.40508(12) 0.59326(12)
O4A O 0.11229(15) -0.37694(13) 0.56756(12)
O5 O 0.07132(16) 0.12684(15) 0.11300(14)
C22 C 0.1519(3) 0.2627(3) -0.0065(2)
H44 H 0.1274 0.3325 -0.0508
H45 H 0.1938 0.2024 -0.0462
H46 H 0.2125 0.2762 0.0402
C23 C 0.0317(3) 0.2273(2) 0.0508(2)
H47 H -0.0115 0.2877 0.0912
H48 H -0.0305 0.2138 0.0043
C24 C -0.0306(3) 0.0839(3) 0.1776(2)
H49 H -0.0822 0.1467 0.2113
H50 H 0.0087 0.0263 0.2296
C25 C -0.1192(4) 0.0314(4) 0.1224(3)
H51 H -0.1870 0.0036 0.1691
H52 H -0.0689 -0.0322 0.0903
H53 H -0.1594 0.0883 0.0716
loop_
_geom_bond_atom_site_label_1
_geom_bond_atom_site_label_2
_geom_bond_site_symmetry_1
_geom_bond_site_symmetry_2
In1 N1 1_555 1_555
K1 O2 1_555 1_555
N1 C1 1_555 1_555
N2 In1 1_555 1_555
N3 In1 1_555 1_555
N4 In1 1_555 1_555
N5 H2 1_555 1_555
N6 H3 1_555 1_555
N7 H4 1_555 1_555
O1 In1 1_555 1_555
O2 C3 1_555 1_555
O3 C10 1_555 1_555
O4 C17 1_555 1_555
H1 O1 1_555 1_555
C1 H5 1_555 1_555
H6 C1 1_555 1_555
C2 N2 1_555 1_555
H7 C2 1_555 1_555
H8 C2 1_555 1_555
C3 N2 1_555 1_555
C4 N5 1_555 1_555
C5 C4 1_555 1_555
H9 C5 1_555 1_555
H10 C5 1_555 1_555
H11 C5 1_555 1_555
C6 C4 1_555 1_555
H12 C6 1_555 1_555
H13 C6 1_555 1_555
H14 C6 1_555 1_555
C7 C4 1_555 1_555
H15 C7 1_555 1_555
H16 C7 1_555 1_555
H17 C7 1_555 1_555
C8 N1 1_555 1_555
H18 C8 1_555 1_555
H19 C8 1_555 1_555
C9 N3 1_555 1_555
H20 C9 1_555 1_555
H21 C9 1_555 1_555
C10 N3 1_555 1_555
C11 N6 1_555 1_555
C12 C11 1_555 1_555
H22 C12 1_555 1_555
H23 C12 1_555 1_555
H24 C12 1_555 1_555
C13 C11 1_555 1_555
H25 C13 1_555 1_555
H26 C13 1_555 1_555
H27 C13 1_555 1_555
C14 C11 1_555 1_555
H28 C14 1_555 1_555
H29 C14 1_555 1_555
H30 C14 1_555 1_555
C15 N1 1_555 1_555
H31 C15 1_555 1_555
H32 C15 1_555 1_555
C16 N4 1_555 1_555
H33 C16 1_555 1_555
H34 C16 1_555 1_555
C17 N4 1_555 1_555
C18 N7 1_555 1_555
C19 C18 1_555 1_555
H35 C19 1_555 1_555
H36 C19 1_555 1_555
H37 C19 1_555 1_555
C20 C18 1_555 1_555
H38 C20 1_555 1_555
H39 C20 1_555 1_555
H40 C20 1_555 1_555
C21 C18 1_555 1_555
H41 C21 1_555 1_555
H42 C21 1_555 1_555
H43 C21 1_555 1_555
O5 C23 1_555 1_555
C22 H44 1_555 1_555
H45 C22 1_555 1_555
H46 C22 1_555 1_555
C23 C22 1_555 1_555
H47 C23 1_555 1_555
H48 C23 1_555 1_555
C24 O5 1_555 1_555
H49 C24 1_555 1_555
H50 C24 1_555 1_555
C25 C24 1_555 1_555
H51 C25 1_555 1_555
H52 C25 1_555 1_555
H53 C25 1_555 1_555
K1_2 O3 1_555 1_555
K1A O4 1_555 1_555
K1A_2 O3 1_555 1_555
O3_2 K1 1_555 1_555
O3A K1 1_555 1_555
O4A K1 1_555 1_555
N5 C3 1_555 1_555
N6 C10 1_555 1_555
N7 C17 1_555 1_555
C1 C2 1_555 1_555
C8 C9 1_555 1_555
C15 C16 1_555 1_555

#END
