
#######################################################################
#
#                 Cambridge Crystallographic Data Centre
#                                CCDC 
#
#######################################################################
#
# If this CIF has been generated from an entry in the Cambridge 
# Structural Database, then it will include bibliographic, chemical, 
# crystal, experimental, refinement or atomic coordinate data resulting 
# from the CCDC's data processing and validation procedures.
#
#######################################################################

data_CIHDAA
_symmetry_cell_setting           triclinic
_symmetry_space_group_name_H-M   'P -1'
_symmetry_Int_Tables_number      2
_space_group_name_Hall           '-P 1'
loop_
_symmetry_equiv_pos_site_id
_symmetry_equiv_pos_as_xyz
1 x,y,z
2 -x,-y,-z
_cell_length_a                   10.336(4)
_cell_length_b                   12.175(6)
_cell_length_c                   12.760(5)
_cell_angle_alpha                97.378(16)
_cell_angle_beta                 105.934(14)
_cell_angle_gamma                98.935(18)
_cell_volume                     1500.36
loop_
_atom_site_label
_atom_site_type_symbol
_atom_site_fract_x
_atom_site_fract_y
_atom_site_fract_z
Ni1 Ni -0.06986(5) 0.01897(4) -0.11515(3)
Ni2 Ni 0.08633(5) 0.56331(4) 0.44179(3)
C1 C 0.3406(5) -0.2434(4) -0.0950(4)
C2 C 0.2125(4) -0.2446(3) -0.1665(3)
H1 H 0.1778 -0.3010 -0.2291
C3 C 0.1323(4) -0.1655(3) -0.1495(3)
C4 C 0.1864(4) -0.0799(3) -0.0550(3)
C5 C 0.3148(4) -0.0794(3) 0.0193(3)
C6 C 0.3897(5) -0.1595(4) -0.0014(4)
H2 H 0.4751 -0.1572 0.0486
C7 C 0.4220(6) -0.3321(5) -0.1164(4)
H3 H 0.5079 -0.3176 -0.0586
H4 H 0.4390 -0.3298 -0.1864
H5 H 0.3708 -0.4055 -0.1178
C8 C -0.0091(4) -0.1815(3) -0.2298(3)
H6 H -0.0052 -0.1348 -0.2854
H7 H -0.0378 -0.2597 -0.2672
C9 C -0.2560(5) -0.1862(4) -0.2517(4)
H8 H -0.3147 -0.2216 -0.2127
H9 H -0.2595 -0.2410 -0.3153
C10 C -0.3086(4) -0.0844(4) -0.2910(3)
H10 H -0.2658 -0.0604 -0.3453
H11 H -0.4071 -0.1047 -0.3262
C11 C 0.3661(4) 0.0082(4) 0.1232(3)
H12 H 0.4593 0.0040 0.1627
H13 H 0.3672 0.0828 0.1041
C12 C -0.0505(4) 0.2678(3) -0.1148(3)
C13 C -0.0213(4) 0.3889(3) -0.0575(3)
C14 C -0.0008(4) 0.4118(3) 0.0567(3)
H14 H -0.0006 0.3520 0.0953
C15 C 0.0191(4) 0.5203(3) 0.1140(3)
C16 C 0.0383(4) 0.5323(3) 0.2368(3)
C17 C -0.2943(5) 0.8096(4) 0.4119(3)
C18 C -0.3487(5) 0.7010(4) 0.4203(3)
H15 H -0.4436 0.6774 0.3987
C19 C -0.2660(4) 0.6254(3) 0.4601(3)
C20 C -0.1230(4) 0.6608(3) 0.4943(3)
C21 C -0.0660(4) 0.7701(3) 0.4827(3)
C22 C -0.1512(5) 0.8421(4) 0.4421(3)
H16 H -0.1124 0.9138 0.4346
C23 C -0.3870(6) 0.8888(5) 0.3673(5)
H17 H -0.3319 0.9602 0.3679
H18 H -0.4455 0.9000 0.4130
H19 H -0.4424 0.8565 0.2928
C24 C 0.0867(4) 0.8061(3) 0.5144(3)
H20 H 0.1097 0.8838 0.5048
H21 H 0.1259 0.8031 0.5920
C25 C 0.2987(4) 0.7516(4) 0.4852(3)
H22 H 0.3367 0.8321 0.5045
H23 H 0.3319 0.7198 0.4263
C26 C 0.3462(4) 0.6966(4) 0.5858(4)
H24 H 0.4430 0.6947 0.6004
H25 H 0.3348 0.7410 0.6503
C27 C 0.3380(4) 0.4916(4) 0.5371(4)
H26 H 0.4301 0.5072 0.5883
H27 H 0.3456 0.4941 0.4633
O1 O 0.1191(3) 0.0016(2) -0.02917(18)
O2 O -0.0347(3) 0.5966(2) 0.53809(18)
O3 O -0.1134(3) 0.2454(2) -0.2176(2)
O4 O -0.0124(3) 0.1956(2) -0.05715(18)
O5 O 0.1523(3) 0.5223(2) 0.29991(19)
O6 O -0.0594(3) 0.5475(2) 0.2748(2)
N1 N -0.1128(3) -0.1527(3) -0.1772(3)
H28 H -0.111(5) -0.195(4) -0.123(3)
N2 N -0.2770(3) 0.0093(3) -0.1962(2)
H29 H -0.290(5) 0.074(4) -0.223(3)
N3 N 0.1483(3) 0.7330(3) 0.4464(2)
H30 H 0.121(5) 0.748(4) 0.383(3)
N4 N 0.2655(3) 0.5792(3) 0.5666(3)
H31 H 0.249(5) 0.567(4) 0.633(3)
O7 O -0.0160(4) 0.0578(2) -0.2601(2)
H32 H -0.052(5) 0.119(4) -0.266(4)
H33 H 0.072(4) 0.083(4) -0.236(4)
C1A C -0.3406(5) 0.2434(4) 0.0950(4)
C2A C -0.2125(4) 0.2446(3) 0.1665(3)
H1A H -0.1778 0.3010 0.2291
C3A C -0.1323(4) 0.1655(3) 0.1495(3)
C4A C -0.1864(4) 0.0799(3) 0.0550(3)
C5A C -0.3148(4) 0.0794(3) -0.0193(3)
C6A C -0.3897(5) 0.1595(4) 0.0014(4)
H2A H -0.4751 0.1572 -0.0486
C7A C -0.4220(6) 0.3321(5) 0.1164(4)
H3A H -0.5079 0.3176 0.0586
H4A H -0.4390 0.3298 0.1864
H5A H -0.3708 0.4055 0.1178
C8A C 0.0091(4) 0.1815(3) 0.2298(3)
H6A H 0.0052 0.1348 0.2854
H7A H 0.0378 0.2597 0.2672
C9A C 0.2560(5) 0.1862(4) 0.2517(4)
H8A H 0.3147 0.2216 0.2127
H9A H 0.2595 0.2410 0.3153
C10A C 0.3086(4) 0.0844(4) 0.2910(3)
H10A H 0.2658 0.0604 0.3453
H11A H 0.4071 0.1047 0.3262
C11A C -0.3661(4) -0.0082(4) -0.1232(3)
H12A H -0.4593 -0.0040 -0.1627
H13A H -0.3672 -0.0828 -0.1041
O1A O -0.1191(3) -0.0016(2) 0.02917(18)
N1A N 0.1128(3) 0.1527(3) 0.1772(3)
H28A H 0.111(5) 0.195(4) 0.123(3)
N2A N 0.2770(3) -0.0093(3) 0.1962(2)
H29A H 0.290(5) -0.074(4) 0.223(3)
C12A C 0.0505(4) 0.7322(3) 0.1148(3)
C13A C 0.0213(4) 0.6111(3) 0.0575(3)
C14A C 0.0008(4) 0.5882(3) -0.0567(3)
H14A H 0.0006 0.6480 -0.0953
C15A C -0.0191(4) 0.4797(3) -0.1140(3)
C16A C -0.0383(4) 0.4677(3) -0.2368(3)
O3A O 0.1134(3) 0.7546(2) 0.2176(2)
O4A O 0.0124(3) 0.8044(2) 0.05715(18)
O5A O -0.1523(3) 0.4777(2) -0.29991(19)
O6A O 0.0594(3) 0.4525(2) -0.2748(2)
C17A C 0.2943(5) 0.1904(4) 0.5881(3)
C18A C 0.3487(5) 0.2990(4) 0.5797(3)
H15A H 0.4436 0.3226 0.6013
C19A C 0.2660(4) 0.3746(3) 0.5399(3)
C20A C 0.1230(4) 0.3392(3) 0.5057(3)
C21A C 0.0660(4) 0.2299(3) 0.5173(3)
C22A C 0.1512(5) 0.1579(4) 0.5579(3)
H16A H 0.1124 0.0862 0.5654
C23A C 0.3870(6) 0.1112(5) 0.6327(5)
H17A H 0.3319 0.0398 0.6321
H18A H 0.4455 0.1000 0.5870
H19A H 0.4424 0.1435 0.7072
C24A C -0.0867(4) 0.1939(3) 0.4856(3)
H20A H -0.1097 0.1162 0.4952
H21A H -0.1259 0.1969 0.4080
C25A C -0.2987(4) 0.2484(4) 0.5148(3)
H22A H -0.3367 0.1679 0.4955
H23A H -0.3319 0.2802 0.5737
C26A C -0.3462(4) 0.3034(4) 0.4142(4)
H24A H -0.4430 0.3053 0.3996
H25A H -0.3348 0.2590 0.3497
C27A C -0.3380(4) 0.5084(4) 0.4629(4)
H26A H -0.4301 0.4928 0.4117
H27A H -0.3456 0.5059 0.5367
O2A O 0.0347(3) 0.4034(2) 0.46191(18)
N3A N -0.1483(3) 0.2670(3) 0.5536(2)
H30A H -0.121(5) 0.252(4) 0.617(3)
N4A N -0.2655(3) 0.4208(3) 0.4334(3)
H31A H -0.249(5) 0.433(4) 0.367(3)
Ni1A Ni 0.06986(5) -0.01897(4) 0.11515(3)
O7A O 0.0160(4) -0.0578(2) 0.2601(2)
H32A H 0.052(5) -0.119(4) 0.266(4)
H33A H -0.072(4) -0.083(4) 0.236(4)
Ni2A Ni -0.08633(5) 0.43669(4) 0.55821(3)
Ni1A_2 Ni 0.06986(5) 0.98103(4) 0.11515(3)
Ni2A_2 Ni -0.08633(5) 0.43669(4) -0.44179(3)
O4A_2 O 0.0124(3) -0.1956(2) 0.05715(18)
O5A_2 O -0.1523(3) 0.4777(2) 0.70009(19)
O6A_2 O 0.0594(3) 0.4525(2) 0.7252(2)
C28 C 0.3799(9) 0.5541(10) 0.1430(8)
H34 H 0.3671 0.6288 0.1662
H35 H 0.3097 0.5193 0.0751
H36 H 0.4684 0.5586 0.1316
O8 O 0.3714(6) 0.4869(7) 0.2279(5)
H37 H 0.3237 0.4243 0.1988
O9 O 0.2545(5) 0.1447(4) -0.1461(4)
H38 H 0.247(8) 0.166(6) -0.078(4)
H39 H 0.292(7) 0.196(3) -0.168(5)
O10 O 0.2781(8) 0.3595(7) -0.1663(6)
H40 H 0.279(6) 0.392(4) -0.108(3)
loop_
_geom_bond_atom_site_label_1
_geom_bond_atom_site_label_2
_geom_bond_site_symmetry_1
_geom_bond_site_symmetry_2
Ni1 O1 1_555 1_555
Ni2 O2 1_555 1_555
C1 C2 1_555 1_555
C2 H1 1_555 1_555
C3 C2 1_555 1_555
C4 C3 1_555 1_555
C5 C4 1_555 1_555
C6 C1 1_555 1_555
H2 C6 1_555 1_555
C7 C1 1_555 1_555
H3 C7 1_555 1_555
H4 C7 1_555 1_555
H5 C7 1_555 1_555
C8 C3 1_555 1_555
H6 C8 1_555 1_555
H7 C8 1_555 1_555
C9 H8 1_555 1_555
H9 C9 1_555 1_555
C10 C9 1_555 1_555
H10 C10 1_555 1_555
H11 C10 1_555 1_555
C11 C5 1_555 1_555
H12 C11 1_555 1_555
H13 C11 1_555 1_555
C12 C13 1_555 1_555
C13 C14 1_555 1_555
C14 H14 1_555 1_555
C15 C14 1_555 1_555
C16 C15 1_555 1_555
C17 C18 1_555 1_555
C18 H15 1_555 1_555
C19 C18 1_555 1_555
C20 C19 1_555 1_555
C21 C20 1_555 1_555
C22 C17 1_555 1_555
H16 C22 1_555 1_555
C23 C17 1_555 1_555
H17 C23 1_555 1_555
H18 C23 1_555 1_555
H19 C23 1_555 1_555
C24 C21 1_555 1_555
H20 C24 1_555 1_555
H21 C24 1_555 1_555
C25 H22 1_555 1_555
H23 C25 1_555 1_555
C26 C25 1_555 1_555
H24 C26 1_555 1_555
H25 C26 1_555 1_555
C27 H26 1_555 1_555
H27 C27 1_555 1_555
O1 C4 1_555 1_555
O2 C20 1_555 1_555
O3 C12 1_555 1_555
O4 Ni1 1_555 1_555
O5 Ni2 1_555 1_555
O6 Ni2 1_555 1_555
N1 Ni1 1_555 1_555
H28 N1 1_555 1_555
N2 Ni1 1_555 1_555
H29 N2 1_555 1_555
N3 Ni2 1_555 1_555
H30 N3 1_555 1_555
N4 Ni2 1_555 1_555
H31 N4 1_555 1_555
O7 Ni1 1_555 1_555
H32 O7 1_555 1_555
H33 O7 1_555 1_555
C28 H34 1_555 1_555
H35 C28 1_555 1_555
H36 C28 1_555 1_555
O8 C28 1_555 1_555
H37 O8 1_555 1_555
O9 H38 1_555 1_555
H39 O9 1_555 1_555
O10 H40 1_555 1_555
C1A C2A 1_555 1_555
C2A H1A 1_555 1_555
C3A C2A 1_555 1_555
C4A C3A 1_555 1_555
C5A C4A 1_555 1_555
C6A C1A 1_555 1_555
H2A C6A 1_555 1_555
C7A C1A 1_555 1_555
H3A C7A 1_555 1_555
H4A C7A 1_555 1_555
H5A C7A 1_555 1_555
C8A C3A 1_555 1_555
H6A C8A 1_555 1_555
H7A C8A 1_555 1_555
C9A H8A 1_555 1_555
H9A C9A 1_555 1_555
C10A C9A 1_555 1_555
H10A C10A 1_555 1_555
H11A C10A 1_555 1_555
C11A N2 1_555 1_555
H12A C11A 1_555 1_555
H13A C11A 1_555 1_555
O1A Ni1 1_555 1_555
N1A C8A 1_555 1_555
H28A N1A 1_555 1_555
N2A C11 1_555 1_555
H29A N2A 1_555 1_555
C12A C13A 1_555 1_555
C13A C15 1_555 1_555
C14A C13A 1_555 1_555
H14A C14A 1_555 1_555
C15A C13 1_555 1_555
C16A C15A 1_555 1_555
O3A C12A 1_555 1_555
O4A C12A 1_555 1_555
O5A C16A 1_555 1_555
O6A C16A 1_555 1_555
C17A C18A 1_555 1_555
C18A H15A 1_555 1_555
C19A C27 1_555 1_555
C20A C19A 1_555 1_555
C21A C20A 1_555 1_555
C22A C17A 1_555 1_555
H16A C22A 1_555 1_555
C23A C17A 1_555 1_555
H17A C23A 1_555 1_555
H18A C23A 1_555 1_555
H19A C23A 1_555 1_555
C24A C21A 1_555 1_555
H20A C24A 1_555 1_555
H21A C24A 1_555 1_555
C25A H22A 1_555 1_555
H23A C25A 1_555 1_555
C26A C25A 1_555 1_555
H24A C26A 1_555 1_555
H25A C26A 1_555 1_555
C27A C19 1_555 1_555
H26A C27A 1_555 1_555
H27A C27A 1_555 1_555
O2A Ni2 1_555 1_555
N3A C24A 1_555 1_555
H30A N3A 1_555 1_555
N4A C26A 1_555 1_555
H31A N4A 1_555 1_555
Ni1A O1 1_555 1_555
O7A Ni1A 1_555 1_555
H32A O7A 1_555 1_555
H33A O7A 1_555 1_555
Ni2A O2 1_555 1_555
Ni1A_2 O4A 1_555 1_555
Ni2A_2 O5A 1_555 1_555
O4A_2 Ni1A 1_555 1_555
O5A_2 Ni2A 1_555 1_555
O6A_2 Ni2A 1_555 1_555
C5 C6 1_555 1_555
C8 N1 1_555 1_555
C9 N1 1_555 1_555
C10 N2 1_555 1_555
C12 O4 1_555 1_555
C16 O5 1_555 1_555
C16 O6 1_555 1_555
C21 C22 1_555 1_555
C24 N3 1_555 1_555
C25 N3 1_555 1_555
C26 N4 1_555 1_555
C27 N4 1_555 1_555
C4A O1A 1_555 1_555
C5A C6A 1_555 1_555
C5A C11A 1_555 1_555
C9A N1A 1_555 1_555
C10A N2A 1_555 1_555
O1A Ni1A 1_555 1_555
N1A Ni1A 1_555 1_555
N2A Ni1A 1_555 1_555
C14A C15A 1_555 1_555
O6A Ni2A_2 1_555 1_555
C18A C19A 1_555 1_555
C20A O2A 1_555 1_555
C21A C22A 1_555 1_555
C25A N3A 1_555 1_555
C27A N4A 1_555 1_555
O2A Ni2A 1_555 1_555
N3A Ni2A 1_555 1_555
N4A Ni2A 1_555 1_555

#END
