
#######################################################################
#
#                 Cambridge Crystallographic Data Centre
#                                CCDC 
#
#######################################################################
#
# If this CIF has been generated from an entry in the Cambridge 
# Structural Database, then it will include bibliographic, chemical, 
# crystal, experimental, refinement or atomic coordinate data resulting 
# from the CCDC's data processing and validation procedures.
#
#######################################################################

data_CIHDUU
_symmetry_cell_setting           triclinic
_symmetry_space_group_name_H-M   'P -1'
_symmetry_Int_Tables_number      2
_space_group_name_Hall           '-P 1'
loop_
_symmetry_equiv_pos_site_id
_symmetry_equiv_pos_as_xyz
1 x,y,z
2 -x,-y,-z
_cell_length_a                   10.220(3)
_cell_length_b                   17.019(7)
_cell_length_c                   18.574(6)
_cell_angle_alpha                70.492(13)
_cell_angle_beta                 83.894(10)
_cell_angle_gamma                74.857(12)
_cell_volume                     2938.81
loop_
_atom_site_label
_atom_site_type_symbol
_atom_site_fract_x
_atom_site_fract_y
_atom_site_fract_z
Zn1 Zn 0.56059(5) 0.62946(3) 0.73200(3)
Zn2 Zn 0.73303(5) 0.43704(3) 0.79018(3)
Zn3 Zn 0.84115(5) 0.00396(3) 0.51358(3)
Zn4 Zn 0.12026(5) 0.94866(3) 1.05653(3)
C1 C 1.1305(7) 0.5974(5) 0.4781(4)
H1 H 1.0838 0.6286 0.4311
H2 H 1.1848 0.5431 0.4754
H3 H 1.1879 0.6299 0.4865
C2 C 1.0276(6) 0.5825(4) 0.5439(4)
C3 C 1.0657(6) 0.5392(4) 0.6184(4)
H4 H 1.1576 0.5164 0.6283
C4 C 0.9740(5) 0.5278(3) 0.6793(3)
C5 C 0.8358(5) 0.5632(3) 0.6642(3)
C6 C 0.7910(5) 0.6011(3) 0.5893(3)
C7 C 0.8889(6) 0.6120(3) 0.5303(3)
H5 H 0.8603 0.6400 0.4803
C8 C 0.6448(5) 0.6141(4) 0.5735(3)
H6 H 0.6323 0.6408 0.5189
H7 H 0.6253 0.5580 0.5872
C9 C 0.4043(6) 0.6619(4) 0.6008(3)
H8 H 0.3788 0.6954 0.5485
H9 H 0.4040 0.6028 0.6081
C10 C 0.3042(5) 0.6941(4) 0.6526(3)
H10 H 0.2168 0.6858 0.6451
H11 H 0.2954 0.7552 0.6408
C11 C 0.2914(5) 0.5730(3) 0.7696(3)
H12 H 0.3191 0.5356 0.7384
H13 H 0.1931 0.5903 0.7698
C12 C 0.3357(4) 0.5211(3) 0.8508(3)
C13 C 0.4732(4) 0.4925(3) 0.8680(3)
C14 C 0.5144(4) 0.4343(3) 0.9394(3)
C15 C 0.4187(5) 0.4065(3) 0.9932(3)
H14 H 0.4473 0.3676 1.0406
C16 C 0.2814(5) 0.4349(3) 0.9788(3)
C17 C 0.2419(4) 0.4918(3) 0.9071(3)
H15 H 0.1501 0.5111 0.8962
C18 C 0.1792(5) 0.4014(4) 1.0394(3)
H16 H 0.2259 0.3630 1.0848
H17 H 0.1303 0.3714 1.0206
H18 H 0.1167 0.4488 1.0510
C19 C 0.6647(5) 0.4033(3) 0.9555(3)
H19 H 0.7017 0.4521 0.9497
H20 H 0.6778 0.3656 1.0079
C20 C 0.8828(5) 0.3155(4) 0.9197(3)
H21 H 0.8951 0.2959 0.9745
H22 H 0.9104 0.2657 0.9022
C21 C 0.9691(5) 0.3756(4) 0.8820(3)
H23 H 1.0635 0.3463 0.8925
H24 H 0.9467 0.4231 0.9025
C22 C 1.0140(5) 0.4813(4) 0.7602(3)
H25 H 1.1117 0.4593 0.7617
H26 H 0.9903 0.5216 0.7888
C23 C 0.7184(5) 0.3232(3) 0.7120(3)
C24 C 0.6367(3) 0.2892(2) 0.67132(17)
C25 C 0.4966(3) 0.3201(2) 0.67119(19)
H27 H 0.4568 0.3631 0.6927
C26 C 0.4161(3) 0.2869(3) 0.6389(2)
H28 H 0.3224 0.3076 0.6389
C27 C 0.4756(5) 0.2226(3) 0.6068(2)
H29 H 0.4217 0.2004 0.5852
C28 C 0.6156(6) 0.1917(2) 0.60693(18)
C29 C 0.6962(4) 0.2249(2) 0.63919(18)
H30 H 0.7899 0.2042 0.6393
C30 C 0.6452(8) 0.1362(5) 0.5611(4)
C31 C 0.6608(5) -0.0524(3) 0.4402(3)
H31 H 0.6403 -0.0641 0.3955
H32 H 0.5759 -0.0358 0.4662
C32 C 0.7476(5) -0.1320(3) 0.4924(3)
H33 H 0.6983 -0.1768 0.5090
H34 H 0.8284 -0.1517 0.4647
C33 C 0.8939(5) -0.1906(3) 0.6037(3)
H35 H 0.9604 -0.2089 0.5676
H36 H 0.8527 -0.2379 0.6305
C34 C 0.9657(4) -0.1730(3) 0.6600(2)
C35 C 0.9791(5) -0.2236(3) 0.7362(3)
H37 H 0.9312 -0.2662 0.7549
C36 C 1.0604(5) -0.2132(3) 0.7853(3)
C37 C 1.1296(5) -0.1487(3) 0.7571(3)
H38 H 1.1849 -0.1410 0.7896
C38 C 1.1189(4) -0.0953(3) 0.6816(2)
C39 C 1.0379(4) -0.1085(3) 0.6329(2)
C40 C 1.0753(6) -0.2704(3) 0.8681(3)
H39 H 1.1351 -0.2532 0.8932
H40 H 1.1122 -0.3291 0.8700
H41 H 0.9881 -0.2652 0.8934
C41 C 1.1857(5) -0.0206(3) 0.6535(3)
H42 H 1.1158 0.0326 0.6433
H43 H 1.2414 -0.0231 0.6938
C42 C 0.5516(4) 0.7981(3) 0.7330(3)
C43 C 0.5137(4) 0.8601(3) 0.7780(2)
C44 C 0.5305(4) 0.9434(3) 0.7466(3)
H44 H 0.5705 0.9603 0.6983
C45 C 0.4882(5) 1.0010(3) 0.7867(3)
H45 H 0.5013 1.0563 0.7658
C46 C 0.4266(4) 0.9768(3) 0.8578(3)
H46 H 0.3983 1.0162 0.8844
C47 C 0.4062(4) 0.8943(3) 0.8902(2)
C48 C 0.4526(4) 0.8365(3) 0.8499(2)
H47 H 0.4424 0.7805 0.8715
C49 C 0.3297(5) 0.8690(3) 0.9645(3)
C50 C 0.4114(6) 1.2739(4) 0.8697(3)
H48 H 0.4492 1.2825 0.9108
H49 H 0.3669 1.3284 0.8354
H50 H 0.4826 1.2451 0.8427
C51 C 0.3096(5) 1.2194(3) 0.9017(3)
C52 C 0.2390(5) 1.1971(3) 0.8548(3)
H51 H 0.2540 1.2170 0.8023
C53 C 0.1467(4) 1.1464(3) 0.8829(2)
C54 C 0.1206(4) 1.1191(3) 0.9622(2)
C55 C 0.1940(4) 1.1383(3) 1.0108(3)
C56 C 0.2867(5) 1.1880(3) 0.9799(3)
H52 H 0.3350 1.2006 1.0126
C57 C 0.1777(5) 1.0978(3) 1.0955(2)
H53 H 0.2295 1.1193 1.1223
H54 H 0.0831 1.1131 1.1105
C58 C 0.0990(4) 1.1070(3) 0.8323(2)
H55 H 0.1234 1.1359 0.7800
H56 H 0.1494 1.0475 0.8451
C59 C 0.2081(5) 0.9571(3) 1.1990(3)
H57 H 0.2197 0.9913 1.2294
H58 H 0.2765 0.9032 1.2136
C60 C -0.0699(5) 1.0602(3) 0.7861(3)
H59 H -0.0020 1.0062 0.7965
H60 H -0.0608 1.0930 0.7327
O1 O 0.7470(3) 0.55633(19) 0.72305(17)
O2 O 0.5658(3) 0.51803(18) 0.81556(17)
O3 O 0.6596(4) 0.3935(2) 0.7219(2)
O4 O 0.8336(4) 0.2817(2) 0.7328(2)
O5 O 0.5833(6) 0.1369(5) 0.5093(4)
O6 O 0.7689(9) 0.0797(5) 0.5814(5)
O7 O 0.5665(4) 0.7193(2) 0.77325(18)
O8 O 0.5602(4) 0.8255(2) 0.6628(2)
O9 O 0.3143(5) 0.7960(3) 0.9910(2)
O10 O 0.2818(3) 0.9272(2) 0.9935(2)
O11 O 1.0257(3) -0.0601(2) 0.55959(17)
O12 O 0.0313(3) 1.07119(18) 0.99305(15)
N1 N 0.5437(4) 0.6661(3) 0.6125(2)
H61 H 0.546(6) 0.719(3) 0.598(3)
N2 N 0.3429(4) 0.6496(3) 0.7331(2)
H62 H 0.305(5) 0.680(3) 0.763(3)
N3 N 0.7380(4) 0.3566(2) 0.9030(2)
H63 H 0.705(5) 0.312(3) 0.911(3)
N4 N 0.9492(4) 0.4091(3) 0.7979(2)
H64 H 0.980(5) 0.366(3) 0.782(3)
N5 N 0.7877(4) -0.1174(3) 0.5604(2)
H65 H 0.713(4) -0.108(3) 0.583(3)
N6 N 0.7295(4) 0.0190(3) 0.4158(2)
H66 H 0.665(5) 0.070(3) 0.405(3)
N7 N 0.2251(4) 1.0034(2) 1.1170(2)
H67 H 0.310(4) 0.990(3) 1.105(3)
N8 N -0.0465(4) 1.1089(2) 0.8349(2)
H68 H -0.095(5) 1.159(3) 0.818(3)
C31A C 1.3392(5) 0.0524(3) 0.5598(3)
H31A H 1.3597 0.0641 0.6045
H32A H 1.4241 0.0358 0.5338
C32A C 1.2524(5) 0.1320(3) 0.5076(3)
H33A H 1.3017 0.1768 0.4910
H34A H 1.1716 0.1517 0.5353
C33A C 1.1061(5) 0.1906(3) 0.3963(3)
H35A H 1.0396 0.2089 0.4324
H36A H 1.1473 0.2379 0.3695
C34A C 1.0343(4) 0.1730(3) 0.3400(2)
C35A C 1.0209(5) 0.2236(3) 0.2638(3)
H37A H 1.0688 0.2662 0.2451
C36A C 0.9396(5) 0.2132(3) 0.2147(3)
C37A C 0.8704(5) 0.1487(3) 0.2429(3)
H38A H 0.8151 0.1410 0.2104
C38A C 0.8811(4) 0.0953(3) 0.3184(2)
C39A C 0.9621(4) 0.1085(3) 0.3671(2)
C40A C 0.9247(6) 0.2704(3) 0.1319(3)
H39A H 0.8649 0.2532 0.1068
H40A H 0.8878 0.3291 0.1300
H41A H 1.0119 0.2652 0.1066
C41A C 0.8143(5) 0.0206(3) 0.3465(3)
H42A H 0.8842 -0.0326 0.3567
H43A H 0.7586 0.0231 0.3062
O11A O 0.9743(3) 0.0601(2) 0.44041(17)
N5A N 1.2123(4) 0.1174(3) 0.4396(2)
H65A H 1.287(4) 0.108(3) 0.417(3)
N6A N 1.2705(4) -0.0190(3) 0.5842(2)
H66A H 1.335(5) -0.070(3) 0.595(3)
C50A C -0.4114(6) 0.7261(4) 1.1303(3)
H48A H -0.4492 0.7175 1.0892
H49A H -0.3669 0.6716 1.1646
H50A H -0.4826 0.7549 1.1573
C51A C -0.3096(5) 0.7806(3) 1.0983(3)
C52A C -0.2390(5) 0.8029(3) 1.1452(3)
H51A H -0.2540 0.7830 1.1977
C53A C -0.1467(4) 0.8536(3) 1.1171(2)
C54A C -0.1206(4) 0.8809(3) 1.0378(2)
C55A C -0.1940(4) 0.8617(3) 0.9892(3)
C56A C -0.2867(5) 0.8120(3) 1.0201(3)
H52A H -0.3350 0.7994 0.9874
C57A C -0.1777(5) 0.9022(3) 0.9045(2)
H53A H -0.2295 0.8807 0.8777
H54A H -0.0831 0.8869 0.8895
C58A C -0.0990(4) 0.8930(3) 1.1677(2)
H55A H -0.1234 0.8641 1.2200
H56A H -0.1494 0.9525 1.1549
C59A C -0.2081(5) 1.0429(3) 0.8010(3)
H57A H -0.2197 1.0087 0.7706
H58A H -0.2765 1.0968 0.7864
C60A C 0.0699(5) 0.9398(3) 1.2139(3)
H59A H 0.0020 0.9938 1.2035
H60A H 0.0608 0.9070 1.2673
O12A O -0.0313(3) 0.92881(18) 1.00695(15)
N7A N -0.2251(4) 0.9966(2) 0.8830(2)
H67A H -0.310(4) 1.010(3) 0.895(3)
N8A N 0.0465(4) 0.8911(2) 1.1651(2)
H68A H 0.095(5) 0.841(3) 1.182(3)
Zn1A Zn -0.56059(5) 1.37054(3) 1.26800(3)
Zn2A Zn -0.73303(5) 1.56296(3) 1.20982(3)
Zn3A Zn -0.84115(5) 1.99604(3) 1.48642(3)
Zn4A Zn -0.12026(5) 1.05134(3) 0.94347(3)
C1A C -1.1305(7) 1.4026(5) 1.5219(4)
H1A H -1.0838 1.3714 1.5689
H2A H -1.1848 1.4569 1.5246
H3A H -1.1879 1.3701 1.5135
C2A C -1.0276(6) 1.4175(4) 1.4561(4)
C3A C -1.0657(6) 1.4608(4) 1.3816(4)
H4A H -1.1576 1.4836 1.3717
C4A C -0.9740(5) 1.4722(3) 1.3207(3)
C5A C -0.8358(5) 1.4368(3) 1.3358(3)
C6A C -0.7910(5) 1.3989(3) 1.4107(3)
C7A C -0.8889(6) 1.3880(3) 1.4697(3)
H5A H -0.8603 1.3600 1.5197
C8A C -0.6448(5) 1.3859(4) 1.4265(3)
H6A H -0.6323 1.3592 1.4811
H7A H -0.6253 1.4420 1.4128
C9A C -0.4043(6) 1.3381(4) 1.3992(3)
H8A H -0.3788 1.3046 1.4515
H9A H -0.4040 1.3972 1.3919
C10A C -0.3042(5) 1.3059(4) 1.3474(3)
H10A H -0.2168 1.3142 1.3549
H11A H -0.2954 1.2448 1.3592
C11A C -0.2914(5) 1.4270(3) 1.2304(3)
H12A H -0.3191 1.4644 1.2616
H13A H -0.1931 1.4097 1.2302
C12A C -0.3357(4) 1.4789(3) 1.1492(3)
C13A C -0.4732(4) 1.5075(3) 1.1320(3)
C14A C -0.5144(4) 1.5657(3) 1.0606(3)
C15A C -0.4187(5) 1.5935(3) 1.0068(3)
H14A H -0.4473 1.6324 0.9594
C16A C -0.2814(5) 1.5651(3) 1.0212(3)
C17A C -0.2419(4) 1.5082(3) 1.0929(3)
H15A H -0.1501 1.4889 1.1038
C18A C -0.1792(5) 1.5986(4) 0.9606(3)
H16A H -0.2259 1.6370 0.9152
H17A H -0.1303 1.6286 0.9794
H18A H -0.1167 1.5512 0.9490
C19A C -0.6647(5) 1.5967(3) 1.0445(3)
H19A H -0.7017 1.5479 1.0503
H20A H -0.6778 1.6344 0.9921
C20A C -0.8828(5) 1.6845(4) 1.0803(3)
H21A H -0.8951 1.7041 1.0255
H22A H -0.9104 1.7343 1.0978
C21A C -0.9691(5) 1.6244(4) 1.1180(3)
H23A H -1.0635 1.6537 1.1075
H24A H -0.9467 1.5769 1.0975
C22A C -1.0140(5) 1.5187(4) 1.2398(3)
H25A H -1.1117 1.5407 1.2383
H26A H -0.9903 1.4784 1.2112
C23A C -0.7184(5) 1.6768(3) 1.2880(3)
C24A C -0.6367(3) 1.7108(2) 1.32868(17)
C25A C -0.4966(3) 1.6799(2) 1.32881(19)
H27A H -0.4568 1.6369 1.3073
C26A C -0.4161(3) 1.7131(3) 1.3611(2)
H28A H -0.3224 1.6924 1.3611
C27A C -0.4756(5) 1.7774(3) 1.3932(2)
H29A H -0.4217 1.7996 1.4148
C28A C -0.6156(6) 1.8083(2) 1.39307(18)
C29A C -0.6962(4) 1.7751(2) 1.36081(18)
H30A H -0.7899 1.7958 1.3607
C30A C -0.6452(8) 1.8638(5) 1.4389(4)
C42A C -0.5516(4) 1.2019(3) 1.2670(3)
C43A C -0.5137(4) 1.1399(3) 1.2220(2)
C44A C -0.5305(4) 1.0566(3) 1.2534(3)
H44A H -0.5705 1.0397 1.3017
C45A C -0.4882(5) 0.9990(3) 1.2133(3)
H45A H -0.5013 0.9437 1.2342
C46A C -0.4266(4) 1.0232(3) 1.1422(3)
H46A H -0.3983 0.9838 1.1156
C47A C -0.4062(4) 1.1057(3) 1.1098(2)
C48A C -0.4526(4) 1.1635(3) 1.1501(2)
H47A H -0.4424 1.2195 1.1285
C49A C -0.3297(5) 1.1310(3) 1.0355(3)
O1A O -0.7470(3) 1.44367(19) 1.27695(17)
O2A O -0.5658(3) 1.48197(18) 1.18444(17)
O3A O -0.6596(4) 1.6065(2) 1.2781(2)
O4A O -0.8336(4) 1.7183(2) 1.2672(2)
O5A O -0.5833(6) 1.8631(5) 1.4907(4)
O6A O -0.7689(9) 1.9203(5) 1.4186(5)
O7A O -0.5665(4) 1.2807(2) 1.22675(18)
O8A O -0.5602(4) 1.1745(2) 1.3372(2)
O9A O -0.3143(5) 1.2040(3) 1.0090(2)
O10A O -0.2818(3) 1.0728(2) 1.0065(2)
N1A N -0.5437(4) 1.3339(3) 1.3875(2)
H61A H -0.546(6) 1.281(3) 1.402(3)
N2A N -0.3429(4) 1.3504(3) 1.2669(2)
H62A H -0.305(5) 1.320(3) 1.237(3)
N3A N -0.7380(4) 1.6434(2) 1.0970(2)
H63A H -0.705(5) 1.688(3) 1.089(3)
N4A N -0.9492(4) 1.5909(3) 1.2021(2)
H64A H -0.980(5) 1.634(3) 1.218(3)
Zn3A_2 Zn 1.15885(5) -0.00396(3) 0.48642(3)
O11_2 O -0.9743(3) 1.9399(2) 1.55959(17)
O11A_2 O -1.0257(3) 2.0601(2) 1.44041(17)
N5A_2 N -0.7877(4) 2.1174(3) 1.4396(2)
N6A_2 N -0.7295(4) 1.9810(3) 1.5842(2)
O15 O 1.0866(13) 0.3208(14) 0.6716(9)
C61? C 0.759(2) 0.1125(11) 0.5768(12)
O13? O 0.7041(13) 0.0780(9) 0.5544(7)
O14? O 0.8874(15) 0.1091(9) 0.5792(8)
loop_
_geom_bond_atom_site_label_1
_geom_bond_atom_site_label_2
_geom_bond_site_symmetry_1
_geom_bond_site_symmetry_2
Zn1 O1 1_555 1_555
Zn2 O1 1_555 1_555
Zn3 O6 1_555 1_555
Zn4 O10 1_555 1_555
C1 H1 1_555 1_555
H2 C1 1_555 1_555
H3 C1 1_555 1_555
C2 C1 1_555 1_555
C3 C2 1_555 1_555
H4 C3 1_555 1_555
C4 C3 1_555 1_555
C5 C4 1_555 1_555
C6 C5 1_555 1_555
C7 C2 1_555 1_555
H5 C7 1_555 1_555
C8 C6 1_555 1_555
H6 C8 1_555 1_555
H7 C8 1_555 1_555
C9 H8 1_555 1_555
H9 C9 1_555 1_555
C10 C9 1_555 1_555
H10 C10 1_555 1_555
H11 C10 1_555 1_555
C11 H12 1_555 1_555
H13 C11 1_555 1_555
C12 C11 1_555 1_555
C13 C12 1_555 1_555
C14 C13 1_555 1_555
C15 C14 1_555 1_555
H14 C15 1_555 1_555
C16 C15 1_555 1_555
C17 C12 1_555 1_555
H15 C17 1_555 1_555
C18 C16 1_555 1_555
H16 C18 1_555 1_555
H17 C18 1_555 1_555
H18 C18 1_555 1_555
C19 C14 1_555 1_555
H19 C19 1_555 1_555
H20 C19 1_555 1_555
C20 H21 1_555 1_555
H22 C20 1_555 1_555
C21 C20 1_555 1_555
H23 C21 1_555 1_555
H24 C21 1_555 1_555
C22 C4 1_555 1_555
H25 C22 1_555 1_555
H26 C22 1_555 1_555
C23 C24 1_555 1_555
C24 C25 1_555 1_555
C25 H27 1_555 1_555
C26 C25 1_555 1_555
H28 C26 1_555 1_555
C27 C26 1_555 1_555
H29 C27 1_555 1_555
C28 C27 1_555 1_555
C29 C24 1_555 1_555
H30 C29 1_555 1_555
C30 C28 1_555 1_555
C31 H31 1_555 1_555
H32 C31 1_555 1_555
C32 C31 1_555 1_555
H33 C32 1_555 1_555
H34 C32 1_555 1_555
C33 H35 1_555 1_555
H36 C33 1_555 1_555
C34 C33 1_555 1_555
C35 C34 1_555 1_555
H37 C35 1_555 1_555
C36 C35 1_555 1_555
C37 C36 1_555 1_555
H38 C37 1_555 1_555
C38 C37 1_555 1_555
C39 C34 1_555 1_555
C40 C36 1_555 1_555
H39 C40 1_555 1_555
H40 C40 1_555 1_555
H41 C40 1_555 1_555
C41 C38 1_555 1_555
H42 C41 1_555 1_555
H43 C41 1_555 1_555
C42 C43 1_555 1_555
C43 C44 1_555 1_555
C44 H44 1_555 1_555
C45 C44 1_555 1_555
H45 C45 1_555 1_555
C46 C45 1_555 1_555
H46 C46 1_555 1_555
C47 C46 1_555 1_555
C48 C43 1_555 1_555
H47 C48 1_555 1_555
C49 C47 1_555 1_555
C50 H48 1_555 1_555
H49 C50 1_555 1_555
H50 C50 1_555 1_555
C51 C50 1_555 1_555
C52 C51 1_555 1_555
H51 C52 1_555 1_555
C53 C52 1_555 1_555
C54 C53 1_555 1_555
C55 C54 1_555 1_555
C56 C51 1_555 1_555
H52 C56 1_555 1_555
C57 C55 1_555 1_555
H53 C57 1_555 1_555
H54 C57 1_555 1_555
C58 C53 1_555 1_555
H55 C58 1_555 1_555
H56 C58 1_555 1_555
C59 H57 1_555 1_555
H58 C59 1_555 1_555
C60 H59 1_555 1_555
H60 C60 1_555 1_555
O1 C5 1_555 1_555
O2 Zn1 1_555 1_555
O3 Zn2 1_555 1_555
O4 C23 1_555 1_555
O5 C30 1_555 1_555
O6 C30 1_555 1_555
O7 Zn1 1_555 1_555
O8 C42 1_555 1_555
O9 C49 1_555 1_555
O10 C49 1_555 1_555
O11 Zn3 1_555 1_555
O12 Zn4 1_555 1_555
N1 Zn1 1_555 1_555
H61 N1 1_555 1_555
N2 Zn1 1_555 1_555
H62 N2 1_555 1_555
N3 Zn2 1_555 1_555
H63 N3 1_555 1_555
N4 Zn2 1_555 1_555
H64 N4 1_555 1_555
N5 Zn3 1_555 1_555
H65 N5 1_555 1_555
N6 Zn3 1_555 1_555
H66 N6 1_555 1_555
N7 Zn4 1_555 1_555
H67 N7 1_555 1_555
N8 C58 1_555 1_555
H68 N8 1_555 1_555
C31A H31A 1_555 1_555
H32A C31A 1_555 1_555
C32A C31A 1_555 1_555
H33A C32A 1_555 1_555
H34A C32A 1_555 1_555
C33A H35A 1_555 1_555
H36A C33A 1_555 1_555
C34A C33A 1_555 1_555
C35A C34A 1_555 1_555
H37A C35A 1_555 1_555
C36A C35A 1_555 1_555
C37A C36A 1_555 1_555
H38A C37A 1_555 1_555
C38A C37A 1_555 1_555
C39A C34A 1_555 1_555
C40A C36A 1_555 1_555
H39A C40A 1_555 1_555
H40A C40A 1_555 1_555
H41A C40A 1_555 1_555
C41A N6 1_555 1_555
H42A C41A 1_555 1_555
H43A C41A 1_555 1_555
O11A Zn3 1_555 1_555
N5A C32A 1_555 1_555
H65A N5A 1_555 1_555
N6A C41 1_555 1_555
H66A N6A 1_555 1_555
C50A H48A 1_555 1_555
H49A C50A 1_555 1_555
H50A C50A 1_555 1_555
C51A C50A 1_555 1_555
C52A C51A 1_555 1_555
H51A C52A 1_555 1_555
C53A C52A 1_555 1_555
C54A C53A 1_555 1_555
C55A C54A 1_555 1_555
C56A C51A 1_555 1_555
H52A C56A 1_555 1_555
C57A C55A 1_555 1_555
H53A C57A 1_555 1_555
H54A C57A 1_555 1_555
C58A C53A 1_555 1_555
H55A C58A 1_555 1_555
H56A C58A 1_555 1_555
C59A C60 1_555 1_555
H57A C59A 1_555 1_555
H58A C59A 1_555 1_555
C60A C59 1_555 1_555
H59A C60A 1_555 1_555
H60A C60A 1_555 1_555
O12A Zn4 1_555 1_555
N7A C57A 1_555 1_555
H67A N7A 1_555 1_555
N8A Zn4 1_555 1_555
H68A N8A 1_555 1_555
Zn1A O1A 1_555 1_555
Zn2A O1A 1_555 1_555
Zn3A O6A 1_555 1_555
Zn4A O12 1_555 1_555
C1A H1A 1_555 1_555
H2A C1A 1_555 1_555
H3A C1A 1_555 1_555
C2A C1A 1_555 1_555
C3A C2A 1_555 1_555
H4A C3A 1_555 1_555
C4A C3A 1_555 1_555
C5A C4A 1_555 1_555
C6A C5A 1_555 1_555
C7A C2A 1_555 1_555
H5A C7A 1_555 1_555
C8A C6A 1_555 1_555
H6A C8A 1_555 1_555
H7A C8A 1_555 1_555
C9A H8A 1_555 1_555
H9A C9A 1_555 1_555
C10A C9A 1_555 1_555
H10A C10A 1_555 1_555
H11A C10A 1_555 1_555
C11A H12A 1_555 1_555
H13A C11A 1_555 1_555
C12A C11A 1_555 1_555
C13A C12A 1_555 1_555
C14A C13A 1_555 1_555
C15A C14A 1_555 1_555
H14A C15A 1_555 1_555
C16A C15A 1_555 1_555
C17A C12A 1_555 1_555
H15A C17A 1_555 1_555
C18A C16A 1_555 1_555
H16A C18A 1_555 1_555
H17A C18A 1_555 1_555
H18A C18A 1_555 1_555
C19A C14A 1_555 1_555
H19A C19A 1_555 1_555
H20A C19A 1_555 1_555
C20A H21A 1_555 1_555
H22A C20A 1_555 1_555
C21A C20A 1_555 1_555
H23A C21A 1_555 1_555
H24A C21A 1_555 1_555
C22A C4A 1_555 1_555
H25A C22A 1_555 1_555
H26A C22A 1_555 1_555
C23A C24A 1_555 1_555
C24A C25A 1_555 1_555
C25A H27A 1_555 1_555
C26A C25A 1_555 1_555
H28A C26A 1_555 1_555
C27A C26A 1_555 1_555
H29A C27A 1_555 1_555
C28A C27A 1_555 1_555
C29A C24A 1_555 1_555
H30A C29A 1_555 1_555
C30A C28A 1_555 1_555
C42A C43A 1_555 1_555
C43A C44A 1_555 1_555
C44A H44A 1_555 1_555
C45A C44A 1_555 1_555
H45A C45A 1_555 1_555
C46A C45A 1_555 1_555
H46A C46A 1_555 1_555
C47A C46A 1_555 1_555
C48A C43A 1_555 1_555
H47A C48A 1_555 1_555
C49A C47A 1_555 1_555
O1A C5A 1_555 1_555
O2A Zn1A 1_555 1_555
O3A Zn2A 1_555 1_555
O4A C23A 1_555 1_555
O5A C30A 1_555 1_555
O6A C30A 1_555 1_555
O7A Zn1A 1_555 1_555
O8A C42A 1_555 1_555
O9A C49A 1_555 1_555
O10A Zn4A 1_555 1_555
N1A Zn1A 1_555 1_555
H61A N1A 1_555 1_555
N2A Zn1A 1_555 1_555
H62A N2A 1_555 1_555
N3A Zn2A 1_555 1_555
H63A N3A 1_555 1_555
N4A Zn2A 1_555 1_555
H64A N4A 1_555 1_555
Zn3A_2 O11 1_555 1_555
O11_2 Zn3A 1_555 1_555
O11A_2 Zn3A 1_555 1_555
N5A_2 Zn3A 1_555 1_555
N6A_2 Zn3A 1_555 1_555
Zn2 O2 1_555 1_555
C6 C7 1_555 1_555
C8 N1 1_555 1_555
C9 N1 1_555 1_555
C10 N2 1_555 1_555
C11 N2 1_555 1_555
C13 O2 1_555 1_555
C16 C17 1_555 1_555
C19 N3 1_555 1_555
C20 N3 1_555 1_555
C21 N4 1_555 1_555
C22 N4 1_555 1_555
C23 O3 1_555 1_555
C28 C29 1_555 1_555
C31 N6 1_555 1_555
C32 N5 1_555 1_555
C33 N5 1_555 1_555
C38 C39 1_555 1_555
C39 O11 1_555 1_555
C42 O7 1_555 1_555
C47 C48 1_555 1_555
C54 O12 1_555 1_555
C55 C56 1_555 1_555
C57 N7 1_555 1_555
C59 N7 1_555 1_555
C60 N8 1_555 1_555
N8 Zn4A 1_555 1_555
C31A N6A 1_555 1_555
C33A N5A 1_555 1_555
C38A C39A 1_555 1_555
C38A C41A 1_555 1_555
C39A O11A 1_555 1_555
O11A Zn3A_2 1_555 1_555
N5A Zn3A_2 1_555 1_555
N6A Zn3A_2 1_555 1_555
C54A O12A 1_555 1_555
C55A C56A 1_555 1_555
C58A N8A 1_555 1_555
C59A N7A 1_555 1_555
C60A N8A 1_555 1_555
O12A Zn4A 1_555 1_555
N7A Zn4A 1_555 1_555
Zn2A O2A 1_555 1_555
C6A C7A 1_555 1_555
C8A N1A 1_555 1_555
C9A N1A 1_555 1_555
C10A N2A 1_555 1_555
C11A N2A 1_555 1_555
C13A O2A 1_555 1_555
C16A C17A 1_555 1_555
C19A N3A 1_555 1_555
C20A N3A 1_555 1_555
C21A N4A 1_555 1_555
C22A N4A 1_555 1_555
C23A O3A 1_555 1_555
C28A C29A 1_555 1_555
C42A O7A 1_555 1_555
C47A C48A 1_555 1_555
C49A O10A 1_555 1_555

#END
