
#######################################################################
#
#                 Cambridge Crystallographic Data Centre
#                                CCDC 
#
#######################################################################
#
# If this CIF has been generated from an entry in the Cambridge 
# Structural Database, then it will include bibliographic, chemical, 
# crystal, experimental, refinement or atomic coordinate data resulting 
# from the CCDC's data processing and validation procedures.
#
#######################################################################

data_CIHDOO
_symmetry_cell_setting           monoclinic
_symmetry_space_group_name_H-M   'P 21/n'
_symmetry_Int_Tables_number      14
_space_group_name_Hall           '-P 2yn'
loop_
_symmetry_equiv_pos_site_id
_symmetry_equiv_pos_as_xyz
1 x,y,z
2 1/2-x,1/2+y,1/2-z
3 -x,-y,-z
4 1/2+x,1/2-y,1/2+z
_cell_length_a                   11.094(2)
_cell_length_b                   13.237(3)
_cell_length_c                   15.332(3)
_cell_angle_alpha                90
_cell_angle_beta                 100.022(3)
_cell_angle_gamma                90
_cell_volume                     2217.17
loop_
_atom_site_label
_atom_site_type_symbol
_atom_site_fract_x
_atom_site_fract_y
_atom_site_fract_z
Cd1 Cd 0.27436(3) 0.01796(3) 0.507830(18)
C1 C 0.7080(6) 0.4278(5) 0.5714(4)
H1 H 0.7920 0.4149 0.5965
H2 H 0.6792 0.4850 0.6003
H3 H 0.7013 0.4416 0.5093
C2 C 0.6313(5) 0.3361(4) 0.5842(3)
C3 C 0.5055(5) 0.3350(4) 0.5536(3)
H4 H 0.4686 0.3924 0.5258
C4 C 0.4330(4) 0.2510(3) 0.5630(3)
C5 C 0.4862(4) 0.1630(3) 0.6035(2)
C6 C 0.6135(4) 0.1632(3) 0.6357(2)
C7 C 0.6831(4) 0.2486(4) 0.6246(3)
H5 H 0.7670 0.2468 0.6449
C8 C 0.2963(4) 0.2576(4) 0.5341(4)
H6 H 0.2565 0.2421 0.5840
H7 H 0.2745 0.3262 0.5154
C9 C 0.3038(5) 0.2020(4) 0.3797(3)
H8 H 0.3903 0.2171 0.3961
H9 H 0.2644 0.2589 0.3465
C10 C 0.2871(4) 0.1082(4) 0.3227(3)
H10 H 0.2005 0.0946 0.3046
H11 H 0.3221 0.1194 0.2697
C11 C 0.3272(4) -0.0722(3) 0.3167(3)
H12 H 0.3603 -0.0621 0.2628
H13 H 0.2400 -0.0844 0.3000
C12 C -0.0063(4) -0.0233(3) 0.4523(3)
O1 O 0.4211(3) 0.0814(2) 0.61427(18)
O2 O 0.0883(3) -0.0334(3) 0.4204(2)
O3 O -0.1122(3) -0.0477(3) 0.4151(2)
O4 O 0.3050(5) -0.1394(4) 0.5692(3)
H14 H 0.333(6) -0.1146(19) 0.6235(16)
H15 H 0.223(2) -0.147(7) 0.564(5)
N1 N 0.2507(3) 0.1871(3) 0.4600(3)
H16 H 0.178(3) 0.209(4) 0.444(4)
N2 N 0.3468(3) 0.0203(3) 0.3714(2)
H17 H 0.426(2) 0.034(4) 0.377(4)
C1B C 0.2920(6) -0.4278(5) 0.4286(4)
H1B H 0.2080 -0.4149 0.4035
H2B H 0.3208 -0.4850 0.3997
H3B H 0.2987 -0.4416 0.4907
C2B C 0.3687(5) -0.3361(4) 0.4158(3)
C3B C 0.4945(5) -0.3350(4) 0.4464(3)
H4B H 0.5314 -0.3924 0.4742
C4B C 0.5670(4) -0.2510(3) 0.4370(3)
C5B C 0.5138(4) -0.1630(3) 0.3965(2)
C6B C 0.3865(4) -0.1632(3) 0.3643(2)
C7B C 0.3169(4) -0.2486(4) 0.3754(3)
H5B H 0.2330 -0.2468 0.3551
C8B C 0.7037(4) -0.2576(4) 0.4659(4)
H6B H 0.7435 -0.2421 0.4160
H7B H 0.7255 -0.3262 0.4846
C9B C 0.6962(5) -0.2020(4) 0.6203(3)
H8B H 0.6097 -0.2171 0.6039
H9B H 0.7356 -0.2589 0.6535
C10B C 0.7129(4) -0.1082(4) 0.6773(3)
H10B H 0.7995 -0.0946 0.6954
H11B H 0.6779 -0.1194 0.7303
C11B C 0.6728(4) 0.0722(3) 0.6833(3)
H12B H 0.6397 0.0621 0.7372
H13B H 0.7600 0.0844 0.7000
O1B O 0.5789(3) -0.0814(2) 0.38573(18)
N1B N 0.7493(3) -0.1871(3) 0.5400(3)
H16B H 0.822(3) -0.209(4) 0.556(4)
N2B N 0.6532(3) -0.0203(3) 0.6286(2)
H17B H 0.574(2) -0.034(4) 0.623(4)
C12B C 0.0063(4) 0.0233(3) 0.5477(3)
O2B O -0.0883(3) 0.0334(3) 0.5796(2)
O3B O 0.1122(3) 0.0477(3) 0.5849(2)
Cd1B Cd -0.27436(3) -0.01796(3) 0.492170(18)
O4B O -0.3050(5) 0.1394(4) 0.4308(3)
H14B H -0.333(6) 0.1146(19) 0.3765(16)
H15B H -0.223(2) 0.147(7) 0.436(5)
Cd1B_2 Cd 0.72564(3) -0.01796(3) 0.492170(18)
O1B_2 O -0.4211(3) -0.0814(2) 0.38573(18)
N1B_2 N -0.2507(3) -0.1871(3) 0.5400(3)
N2B_2 N -0.3468(3) -0.0203(3) 0.6286(2)
C13 C 0.0501(11) 0.0939(12) 0.8013(8)
H18 H 0.0839 0.1043 0.8626
H19 H 0.0306 0.0237 0.7913
H20 H -0.0229 0.1336 0.7858
O5 O 0.1315(7) 0.1218(7) 0.7514(4)
H21 H 0.1806 0.0758 0.7496
C14 C -0.0629(12) 0.1896(10) 0.3004(8)
H22 H -0.1419 0.2155 0.2746
H23 H -0.0625 0.1174 0.2939
H24 H -0.0016 0.2186 0.2709
O6 O -0.0371(8) 0.2152(8) 0.3925(8)
H25 H -0.0322 0.2767 0.3980
O8 O 0.3758(19) 0.0186(13) 0.7865(8)
O9 O 0.5383(10) 0.1612(12) 0.2389(11)
O10 O 0.030(2) 0.4003(16) 0.4290(14)
O7? O 0.3744(15) 0.0863(17) 0.7938(6)
loop_
_geom_bond_atom_site_label_1
_geom_bond_atom_site_label_2
_geom_bond_site_symmetry_1
_geom_bond_site_symmetry_2
Cd1 O1 1_555 1_555
C1 H1 1_555 1_555
H2 C1 1_555 1_555
H3 C1 1_555 1_555
C2 C1 1_555 1_555
C3 C2 1_555 1_555
H4 C3 1_555 1_555
C4 C3 1_555 1_555
C5 C4 1_555 1_555
C6 C5 1_555 1_555
C7 C2 1_555 1_555
H5 C7 1_555 1_555
C8 C4 1_555 1_555
H6 C8 1_555 1_555
H7 C8 1_555 1_555
C9 H8 1_555 1_555
H9 C9 1_555 1_555
C10 C9 1_555 1_555
H10 C10 1_555 1_555
H11 C10 1_555 1_555
C11 H12 1_555 1_555
H13 C11 1_555 1_555
C12 O2 1_555 1_555
O1 C5 1_555 1_555
O2 Cd1 1_555 1_555
O3 C12 1_555 1_555
O4 Cd1 1_555 1_555
H14 O4 1_555 1_555
H15 O4 1_555 1_555
N1 Cd1 1_555 1_555
H16 N1 1_555 1_555
N2 Cd1 1_555 1_555
H17 N2 1_555 1_555
C13 H18 1_555 1_555
H19 C13 1_555 1_555
H20 C13 1_555 1_555
O5 C13 1_555 1_555
H21 O5 1_555 1_555
C14 H22 1_555 1_555
H23 C14 1_555 1_555
H24 C14 1_555 1_555
O6 C14 1_555 1_555
H25 O6 1_555 1_555
C1B H1B 1_555 1_555
H2B C1B 1_555 1_555
H3B C1B 1_555 1_555
C2B C1B 1_555 1_555
C3B C2B 1_555 1_555
H4B C3B 1_555 1_555
C4B C3B 1_555 1_555
C5B C4B 1_555 1_555
C6B C11 1_555 1_555
C7B C2B 1_555 1_555
H5B C7B 1_555 1_555
C8B C4B 1_555 1_555
H6B C8B 1_555 1_555
H7B C8B 1_555 1_555
C9B H8B 1_555 1_555
H9B C9B 1_555 1_555
C10B C9B 1_555 1_555
H10B C10B 1_555 1_555
H11B C10B 1_555 1_555
C11B C6 1_555 1_555
H12B C11B 1_555 1_555
H13B C11B 1_555 1_555
O1B C5B 1_555 1_555
N1B C8B 1_555 1_555
H16B N1B 1_555 1_555
N2B C10B 1_555 1_555
H17B N2B 1_555 1_555
C12B C12 1_555 1_555
O2B C12B 1_555 1_555
O3B Cd1 1_555 1_555
Cd1B O3 1_555 1_555
O4B Cd1B 1_555 1_555
H14B O4B 1_555 1_555
H15B O4B 1_555 1_555
Cd1B_2 O1B 1_555 1_555
O1B_2 Cd1B 1_555 1_555
N1B_2 Cd1B 1_555 1_555
N2B_2 Cd1B 1_555 1_555
C6 C7 1_555 1_555
C8 N1 1_555 1_555
C9 N1 1_555 1_555
C10 N2 1_555 1_555
C11 N2 1_555 1_555
C5B C6B 1_555 1_555
C6B C7B 1_555 1_555
C9B N1B 1_555 1_555
C11B N2B 1_555 1_555
N1B Cd1B_2 1_555 1_555
N2B Cd1B_2 1_555 1_555
C12B O3B 1_555 1_555
O2B Cd1B 1_555 1_555

#END
