
#######################################################################
#
#                 Cambridge Crystallographic Data Centre
#                                CCDC 
#
#######################################################################
#
# If this CIF has been generated from an entry in the Cambridge 
# Structural Database, then it will include bibliographic, chemical, 
# crystal, experimental, refinement or atomic coordinate data resulting 
# from the CCDC's data processing and validation procedures.
#
#######################################################################

data_CIHFAC
_symmetry_cell_setting           orthorhombic
_symmetry_space_group_name_H-M   'P b c a'
_symmetry_Int_Tables_number      61
_space_group_name_Hall           '-P 2ac 2ab'
loop_
_symmetry_equiv_pos_site_id
_symmetry_equiv_pos_as_xyz
1 x,y,z
2 1/2-x,-y,1/2+z
3 1/2+x,1/2-y,-z
4 -x,1/2+y,1/2-z
5 -x,-y,-z
6 1/2+x,y,1/2-z
7 1/2-x,1/2+y,z
8 x,1/2-y,1/2+z
_cell_length_a                   16.739(2)
_cell_length_b                   9.557(4)
_cell_length_c                   20.295(4)
_cell_angle_alpha                90
_cell_angle_beta                 90
_cell_angle_gamma                90
_cell_volume                     3246.68
loop_
_atom_site_label
_atom_site_type_symbol
_atom_site_fract_x
_atom_site_fract_y
_atom_site_fract_z
Zn1 Zn 0.93226(2) 0.00631(4) 0.054634(16)
C1 C 1.10445(18) 0.0558(3) 0.08727(14)
C2 C 1.09819(19) 0.0000(3) 0.15100(15)
C3 C 1.1531(2) 0.0421(4) 0.19842(15)
H1 H 1.1492 0.0061 0.2409
C4 C 1.2135(2) 0.1361(4) 0.18408(15)
C5 C 1.21840(18) 0.1909(4) 0.12030(15)
H2 H 1.2588 0.2540 0.1101
C6 C 1.16402(18) 0.1525(3) 0.07214(14)
C7 C 1.2747(2) 0.1779(4) 0.23558(16)
H3 H 1.3117 0.2433 0.2168
H4 H 1.3030 0.0963 0.2502
H5 H 1.2480 0.2205 0.2723
C8 C 1.1615(2) 0.2311(4) 0.00703(15)
H6 H 1.1160 0.2940 0.0081
H7 H 1.2091 0.2887 0.0043
C9 C 1.1361(2) 0.2347(3) -0.11230(15)
H8 H 1.1814 0.2933 -0.1235
H9 H 1.0916 0.2955 -0.1015
C10 C 1.0334(2) -0.1049(3) 0.16635(16)
H10 H 1.0412 -0.1874 0.1393
H11 H 1.0379 -0.1331 0.2121
C11 C 0.8855(2) -0.1463(4) 0.17031(15)
H12 H 0.8391 -0.0930 0.1841
H13 H 0.9013 -0.2062 0.2066
C12 C 0.96994(18) 0.4030(3) 0.07630(14)
C13 C 1.0328(2) 0.4299(4) 0.11682(15)
H14 H 1.0338 0.3919 0.1590
C14 C 1.0962(2) 0.5146(4) 0.09547(16)
H15 H 1.1388 0.5325 0.1237
C15 C 1.09606(19) 0.5710(3) 0.03381(15)
H16 H 1.1380 0.6284 0.0207
C16 C 1.03232(19) 0.5429(3) -0.01068(14)
O1 O 1.05021(13) 0.0185(3) 0.04191(10)
O2 O 0.87393(13) 0.1894(2) 0.06333(10)
O3 O 0.91532(14) 0.2567(2) 0.17329(10)
O4 O 0.82101(13) 0.3996(2) 0.11075(12)
S1 S 0.88870(5) 0.30596(8) 0.10961(4)
N1 N 1.15626(16) 0.1474(3) -0.05429(12)
H17 H 1.2019(14) 0.112(4) -0.0595(16)
N2 N 0.95171(17) -0.0490(3) 0.15459(12)
H18 H 0.944(2) 0.027(3) 0.1763(17)
C1D C 0.89555(18) -0.0558(3) -0.08727(14)
C2D C 0.90181(19) 0.0000(3) -0.15100(15)
C3D C 0.8469(2) -0.0421(4) -0.19842(15)
H1D H 0.8508 -0.0061 -0.2409
C4D C 0.7865(2) -0.1361(4) -0.18408(15)
C5D C 0.78160(18) -0.1909(4) -0.12030(15)
H2D H 0.7412 -0.2540 -0.1101
C6D C 0.83598(18) -0.1525(3) -0.07214(14)
C7D C 0.7253(2) -0.1779(4) -0.23558(16)
H3D H 0.6883 -0.2433 -0.2168
H4D H 0.6970 -0.0963 -0.2502
H5D H 0.7520 -0.2205 -0.2723
C8D C 0.8385(2) -0.2311(4) -0.00703(15)
H6D H 0.8840 -0.2940 -0.0081
H7D H 0.7909 -0.2887 -0.0043
C9D C 0.8639(2) -0.2347(3) 0.11230(15)
H8D H 0.8186 -0.2933 0.1235
H9D H 0.9084 -0.2955 0.1015
C10D C 0.9666(2) 0.1049(3) -0.16635(16)
H10D H 0.9588 0.1874 -0.1393
H11D H 0.9621 0.1331 -0.2121
C11D C 1.1145(2) 0.1463(4) -0.17031(15)
H12D H 1.1609 0.0930 -0.1841
H13D H 1.0987 0.2062 -0.2066
O1D O 0.94979(13) -0.0185(3) -0.04191(10)
N1D N 0.84374(16) -0.1474(3) 0.05429(12)
H17D H 0.7981(14) -0.112(4) 0.0595(16)
N2D N 1.04829(17) 0.0490(3) -0.15459(12)
H18D H 1.056(2) -0.027(3) -0.1763(17)
C12D C 1.03006(18) 0.5970(3) -0.07630(14)
C13D C 0.9672(2) 0.5701(4) -0.11682(15)
H14D H 0.9662 0.6081 -0.1590
C14D C 0.9038(2) 0.4854(4) -0.09547(16)
H15D H 0.8612 0.4675 -0.1237
C15D C 0.90394(19) 0.4290(3) -0.03381(15)
H16D H 0.8620 0.3716 -0.0207
C16D C 0.96768(19) 0.4571(3) 0.01068(14)
O2D O 1.12607(13) 0.8106(2) -0.06333(10)
O3D O 1.08468(14) 0.7433(2) -0.17329(10)
O4D O 1.17899(13) 0.6004(2) -0.11075(12)
S1D S 1.11130(5) 0.69404(8) -0.10961(4)
Zn1D Zn 1.06774(2) -0.00631(4) -0.054634(16)
Zn1D_2 Zn 1.06774(2) 0.99369(4) -0.054634(16)
O2D_2 O 1.12607(13) -0.1894(2) -0.06333(10)
loop_
_geom_bond_atom_site_label_1
_geom_bond_atom_site_label_2
_geom_bond_site_symmetry_1
_geom_bond_site_symmetry_2
Zn1 O1 1_555 1_555
C1 C2 1_555 1_555
C2 C3 1_555 1_555
C3 H1 1_555 1_555
C4 C3 1_555 1_555
C5 C4 1_555 1_555
H2 C5 1_555 1_555
C6 C1 1_555 1_555
C7 C4 1_555 1_555
H3 C7 1_555 1_555
H4 C7 1_555 1_555
H5 C7 1_555 1_555
C8 C6 1_555 1_555
H6 C8 1_555 1_555
H7 C8 1_555 1_555
C9 H8 1_555 1_555
H9 C9 1_555 1_555
C10 C2 1_555 1_555
H10 C10 1_555 1_555
H11 C10 1_555 1_555
C11 H12 1_555 1_555
H13 C11 1_555 1_555
C12 C13 1_555 1_555
C13 H14 1_555 1_555
C14 C13 1_555 1_555
H15 C14 1_555 1_555
C15 C14 1_555 1_555
H16 C15 1_555 1_555
C16 C15 1_555 1_555
O1 C1 1_555 1_555
O2 Zn1 1_555 1_555
O3 S1 1_555 1_555
O4 S1 1_555 1_555
S1 C12 1_555 1_555
N1 C8 1_555 1_555
H17 N1 1_555 1_555
N2 Zn1 1_555 1_555
H18 N2 1_555 1_555
C1D C2D 1_555 1_555
C2D C3D 1_555 1_555
C3D H1D 1_555 1_555
C4D C3D 1_555 1_555
C5D C4D 1_555 1_555
H2D C5D 1_555 1_555
C6D C1D 1_555 1_555
C7D C4D 1_555 1_555
H3D C7D 1_555 1_555
H4D C7D 1_555 1_555
H5D C7D 1_555 1_555
C8D C6D 1_555 1_555
H6D C8D 1_555 1_555
H7D C8D 1_555 1_555
C9D C11 1_555 1_555
H8D C9D 1_555 1_555
H9D C9D 1_555 1_555
C10D C2D 1_555 1_555
H10D C10D 1_555 1_555
H11D C10D 1_555 1_555
C11D C9 1_555 1_555
H12D C11D 1_555 1_555
H13D C11D 1_555 1_555
O1D Zn1 1_555 1_555
N1D Zn1 1_555 1_555
H17D N1D 1_555 1_555
N2D C10D 1_555 1_555
H18D N2D 1_555 1_555
C12D C16 1_555 1_555
C13D C12D 1_555 1_555
H14D C13D 1_555 1_555
C14D C13D 1_555 1_555
H15D C14D 1_555 1_555
C15D C14D 1_555 1_555
H16D C15D 1_555 1_555
C16D C12 1_555 1_555
O2D S1D 1_555 1_555
O3D S1D 1_555 1_555
O4D S1D 1_555 1_555
S1D C12D 1_555 1_555
Zn1D O1 1_555 1_555
Zn1D_2 O2D 1_555 1_555
O2D_2 Zn1D 1_555 1_555
C5 C6 1_555 1_555
C9 N1 1_555 1_555
C10 N2 1_555 1_555
C11 N2 1_555 1_555
C16 C16D 1_555 1_555
O2 S1 1_555 1_555
N1 Zn1D 1_555 1_555
C1D O1D 1_555 1_555
C5D C6D 1_555 1_555
C8D N1D 1_555 1_555
C9D N1D 1_555 1_555
C11D N2D 1_555 1_555
O1D Zn1D 1_555 1_555
N2D Zn1D 1_555 1_555
C15D C16D 1_555 1_555

#END
