
#######################################################################
#
#                 Cambridge Crystallographic Data Centre
#                                CCDC 
#
#######################################################################
#
# If this CIF has been generated from an entry in the Cambridge 
# Structural Database, then it will include bibliographic, chemical, 
# crystal, experimental, refinement or atomic coordinate data resulting 
# from the CCDC's data processing and validation procedures.
#
#######################################################################

data_CIHFUW
_symmetry_cell_setting           orthorhombic
_symmetry_space_group_name_H-M   'C c c 2'
_symmetry_Int_Tables_number      37
_space_group_name_Hall           'C 2 -2c'
loop_
_symmetry_equiv_pos_site_id
_symmetry_equiv_pos_as_xyz
1 x,y,z
2 -x,-y,z
3 x,-y,1/2+z
4 -x,y,1/2+z
5 1/2+x,1/2+y,z
6 1/2-x,1/2-y,z
7 1/2+x,1/2-y,1/2+z
8 1/2-x,1/2+y,1/2+z
_cell_length_a                   15.528(4)
_cell_length_b                   17.993(5)
_cell_length_c                   6.5946(16)
_cell_angle_alpha                90
_cell_angle_beta                 90
_cell_angle_gamma                90
_cell_volume                     1842.5
loop_
_atom_site_label
_atom_site_type_symbol
_atom_site_fract_x
_atom_site_fract_y
_atom_site_fract_z
Mn1 Mn 0.5000 0.0000 1.91989(16)
O1 O 0.48180(10) 0.07955(10) 1.6662(5)
N1 N 0.39717(14) 0.10607(12) 1.6719(6)
H1 H 0.3821 0.1443 1.6020
O2 O 0.36487(13) 0.02005(12) 1.9040(5)
C1 C 0.34170(18) 0.07115(17) 1.7863(5)
C2 C 0.24948(18) 0.09448(17) 1.7794(5)
C3 C 0.2171(2) 0.1452(2) 1.6464(9)
H2 H 0.2535 0.1675 1.5523
C4 C 0.1924(2) 0.0603(2) 1.9052(8)
H3 H 0.2123 0.0246 1.9957
C5 C 0.0760(3) 0.1291(3) 1.7721(9)
H4 H 0.0175 0.1402 1.7681
C6 C 0.1063(3) 0.0774(3) 1.9017(11)
H5 H 0.0686 0.0531 1.9892
C7 C 0.1310(3) 0.1641(3) 1.6497(10)
H6 H 0.1111 0.2017 1.5653
O1A O 0.51820(10) -0.07955(10) 1.6662(5)
N1A N 0.60283(14) -0.10607(12) 1.6719(6)
H1A H 0.6179 -0.1443 1.6020
O2A O 0.63513(13) -0.02005(12) 1.9040(5)
C1A C 0.65830(18) -0.07115(17) 1.7863(5)
C2A C 0.75052(18) -0.09448(17) 1.7794(5)
C3A C 0.7829(2) -0.1452(2) 1.6464(9)
H2A H 0.7465 -0.1675 1.5523
C4A C 0.8076(2) -0.0603(2) 1.9052(8)
H3A H 0.7877 -0.0246 1.9957
C5A C 0.9240(3) -0.1291(3) 1.7721(9)
H4A H 0.9825 -0.1402 1.7681
C6A C 0.8937(3) -0.0774(3) 1.9017(11)
H5A H 0.9314 -0.0531 1.9892
C7A C 0.8690(3) -0.1641(3) 1.6497(10)
H6A H 0.8889 -0.2017 1.5653
Mn1B Mn 0.5000 0.0000 1.41989(16)
O1B O 0.48180(10) -0.07955(10) 2.1662(5)
O1C O 0.51820(10) 0.07955(10) 2.1662(5)
O3 O 0.4102(2) 0.18967(18) 1.3081(5)
H7 H 0.4396 0.1548 1.2679
C8 C 0.3713(4) 0.2216(3) 1.1517(10)
H8 H 0.3359 0.2617 1.1991
H9 H 0.3360 0.1856 1.0833
H10 H 0.4138 0.2405 1.0595
loop_
_geom_bond_atom_site_label_1
_geom_bond_atom_site_label_2
_geom_bond_site_symmetry_1
_geom_bond_site_symmetry_2
Mn1 O1 1_555 1_555
O1 N1 1_555 1_555
N1 H1 1_555 1_555
O2 Mn1 1_555 1_555
C1 N1 1_555 1_555
C2 C1 1_555 1_555
C3 C2 1_555 1_555
H2 C3 1_555 1_555
C4 C2 1_555 1_555
H3 C4 1_555 1_555
C5 H4 1_555 1_555
C6 C4 1_555 1_555
H5 C6 1_555 1_555
C7 C3 1_555 1_555
H6 C7 1_555 1_555
O3 H7 1_555 1_555
C8 O3 1_555 1_555
H8 C8 1_555 1_555
H9 C8 1_555 1_555
H10 C8 1_555 1_555
O1A Mn1 1_555 1_555
N1A O1A 1_555 1_555
H1A N1A 1_555 1_555
O2A Mn1 1_555 1_555
C1A N1A 1_555 1_555
C2A C1A 1_555 1_555
C3A C2A 1_555 1_555
H2A C3A 1_555 1_555
C4A C2A 1_555 1_555
H3A C4A 1_555 1_555
C5A H4A 1_555 1_555
C6A C4A 1_555 1_555
H5A C6A 1_555 1_555
C7A C3A 1_555 1_555
H6A C7A 1_555 1_555
Mn1B O1 1_555 1_555
O1B Mn1 1_555 1_555
O1C Mn1 1_555 1_555
O2 C1 1_555 1_555
C5 C6 1_555 1_555
C5 C7 1_555 1_555
O1A Mn1B 1_555 1_555
O2A C1A 1_555 1_555
C5A C6A 1_555 1_555
C5A C7A 1_555 1_555

#END
