
#######################################################################
#
#                 Cambridge Crystallographic Data Centre
#                                CCDC 
#
#######################################################################
#
# If this CIF has been generated from an entry in the Cambridge 
# Structural Database, then it will include bibliographic, chemical, 
# crystal, experimental, refinement or atomic coordinate data resulting 
# from the CCDC's data processing and validation procedures.
#
#######################################################################

data_CIHJOU
_symmetry_cell_setting           triclinic
_symmetry_space_group_name_H-M   'P -1'
_symmetry_Int_Tables_number      2
_space_group_name_Hall           '-P 1'
loop_
_symmetry_equiv_pos_site_id
_symmetry_equiv_pos_as_xyz
1 x,y,z
2 -x,-y,-z
_cell_length_a                   11.093(2)
_cell_length_b                   12.359(3)
_cell_length_c                   12.561(3)
_cell_angle_alpha                70.98(3)
_cell_angle_beta                 84.67(3)
_cell_angle_gamma                71.61(3)
_cell_volume                     1544.84
loop_
_atom_site_label
_atom_site_type_symbol
_atom_site_fract_x
_atom_site_fract_y
_atom_site_fract_z
Zn1 Zn 0.282955(16) -0.149695(15) 0.761411(14)
Zn2 Zn -0.446164(17) -0.234130(15) 0.633588(15)
N1 N 0.22303(12) -0.04942(11) 0.86389(10)
N2 N 0.18066(13) 0.09568(11) 0.94173(11)
N3 N 0.48368(13) 0.36021(11) 0.62888(11)
N4 N 0.43495(12) 0.30886(11) 0.48807(11)
C1 C 0.23907(19) 0.14624(16) 0.73646(16)
H1 H 0.2292 0.1155 0.6779
H2 H 0.3236 0.1518 0.7348
H3 H 0.1788 0.2245 0.7249
C2 C 0.21690(15) 0.06424(13) 0.84728(13)
C3 C 0.18492(14) -0.09368(14) 0.97592(13)
C4 C 0.16708(15) -0.20372(15) 1.03403(15)
H4 H 0.1827 -0.2633 1.0001
C5 C 0.12564(17) -0.22243(18) 1.14315(15)
H5 H 0.1134 -0.2956 1.1845
C6 C 0.10215(17) -0.13130(19) 1.19153(17)
H6 H 0.0740 -0.1450 1.2654
C7 C 0.11902(16) -0.02286(15) 1.13436(14)
H7 H 0.1034 0.0367 1.1684
C8 C 0.16019(14) -0.00366(14) 1.02382(13)
C9 C 0.16256(18) 0.21232(15) 0.95782(16)
H8 H 0.0811 0.2365 0.9929
H9 H 0.1618 0.2724 0.8851
C10 C 0.26815(19) 0.20578(17) 1.03149(16)
H10 H 0.2478 0.2815 1.0470
H11 H 0.2697 0.1435 1.1029
C11 C 0.39713(18) 0.18074(18) 0.98239(16)
H12 H 0.4161 0.1086 0.9609
H13 H 0.4594 0.1668 1.0386
C12 C 0.40698(19) 0.28858(19) 0.87635(17)
H14 H 0.3471 0.3003 0.8191
H15 H 0.3843 0.3614 0.8973
C13 C 0.53516(19) 0.2672(2) 0.82997(18)
H16 H 0.5602 0.1890 0.8192
H17 H 0.5922 0.2630 0.8862
C14 C 0.55608(18) 0.35502(16) 0.72281(15)
H18 H 0.5319 0.4340 0.7320
H19 H 0.6458 0.3334 0.7053
C15 C 0.64070(19) 0.18263(18) 0.58512(17)
H20 H 0.6721 0.1718 0.5143
H21 H 0.6250 0.1104 0.6335
H22 H 0.7026 0.2003 0.6198
C16 C 0.52104(15) 0.28333(15) 0.56628(15)
C17 C 0.33857(17) 0.40915(15) 0.49755(15)
C18 C 0.22649(19) 0.47061(17) 0.43805(16)
H23 H 0.2052 0.4474 0.3807
C19 C 0.1446(2) 0.57027(18) 0.46695(18)
H24 H 0.0692 0.6164 0.4272
C20 C 0.1798(2) 0.59757(19) 0.55657(17)
H25 H 0.1237 0.6613 0.5769
C21 C 0.2908(2) 0.53737(17) 0.61659(17)
H26 H 0.3119 0.5601 0.6743
C22 C 0.37014(18) 0.44031(15) 0.58635(14)
C23 C 0.48717(15) -0.37755(13) 0.85744(12)
C24 C 0.53115(15) -0.48832(14) 0.95356(13)
H27 H 0.6079 -0.5445 0.9471
C25 C 0.07183(17) -0.15058(15) 0.69299(14)
C26 C -0.04860(17) -0.18358(16) 0.68684(15)
H28 H -0.0590 -0.2517 0.7418
C27 C -0.13167(18) -0.12765(17) 0.61571(16)
H29 H -0.1204 -0.0599 0.5608
C28 C -0.25167(16) -0.15801(14) 0.60815(15)
O1 O 0.40161(10) -0.11216(10) 0.64704(9)
O2 O 0.08290(12) -0.05139(12) 0.64289(11)
O3 O 0.15425(12) -0.23314(10) 0.75961(11)
O4 O 0.39752(12) -0.29302(11) 0.87288(10)
O5 O 0.54421(13) -0.37715(10) 0.76643(10)
O6 O -0.27228(11) -0.24707(10) 0.68489(10)
O7 O -0.32724(12) -0.09636(11) 0.53098(11)
C23A C 0.51283(15) -0.62245(13) 1.14256(12)
C24A C 0.46885(15) -0.51168(14) 1.04644(13)
H27A H 0.3921 -0.4555 1.0529
O4A O 0.60248(12) -0.70698(11) 1.12712(10)
O5A O 0.45579(13) -0.62285(10) 1.23357(10)
Zn1A Zn -0.282955(16) -0.850305(15) 1.238589(14)
Zn2A Zn 0.446164(17) -0.765870(15) 1.366412(15)
N1A N -0.22303(12) -0.95058(11) 1.13611(10)
N2A N -0.18066(13) -1.09568(11) 1.05827(11)
N3A N -0.48368(13) -1.36021(11) 1.37112(11)
N4A N -0.43495(12) -1.30886(11) 1.51193(11)
C1A C -0.23907(19) -1.14624(16) 1.26354(16)
H1A H -0.2292 -1.1155 1.3221
H2A H -0.3236 -1.1518 1.2652
H3A H -0.1788 -1.2245 1.2751
C2A C -0.21690(15) -1.06424(13) 1.15272(13)
C3A C -0.18492(14) -0.90632(14) 1.02408(13)
C4A C -0.16708(15) -0.79628(15) 0.96597(15)
H4A H -0.1827 -0.7367 0.9999
C5A C -0.12564(17) -0.77757(18) 0.85685(15)
H5A H -0.1134 -0.7044 0.8155
C6A C -0.10215(17) -0.86870(19) 0.80847(17)
H6A H -0.0740 -0.8550 0.7346
C7A C -0.11902(16) -0.97714(15) 0.86564(14)
H7A H -0.1034 -1.0367 0.8316
C8A C -0.16019(14) -0.99634(14) 0.97618(13)
C9A C -0.16256(18) -1.21232(15) 1.04218(16)
H8A H -0.0811 -1.2365 1.0071
H9A H -0.1618 -1.2724 1.1149
C10A C -0.26815(19) -1.20578(17) 0.96851(16)
H10A H -0.2478 -1.2815 0.9530
H11A H -0.2697 -1.1435 0.8971
C11A C -0.39713(18) -1.18074(18) 1.01761(16)
H12A H -0.4161 -1.1086 1.0391
H13A H -0.4594 -1.1668 0.9614
C12A C -0.40698(19) -1.28858(19) 1.12365(17)
H14A H -0.3471 -1.3003 1.1809
H15A H -0.3843 -1.3614 1.1027
C13A C -0.53516(19) -1.2672(2) 1.17003(18)
H16A H -0.5602 -1.1890 1.1808
H17A H -0.5922 -1.2630 1.1138
C14A C -0.55608(18) -1.35502(16) 1.27719(15)
H18A H -0.5319 -1.4340 1.2680
H19A H -0.6458 -1.3334 1.2947
C15A C -0.64070(19) -1.18263(18) 1.41488(17)
H20A H -0.6721 -1.1718 1.4857
H21A H -0.6250 -1.1104 1.3665
H22A H -0.7026 -1.2003 1.3802
C16A C -0.52104(15) -1.28333(15) 1.43372(15)
C17A C -0.33857(17) -1.40915(15) 1.50245(15)
C18A C -0.22649(19) -1.47061(17) 1.56195(16)
H23A H -0.2052 -1.4474 1.6193
C19A C -0.1446(2) -1.57027(18) 1.53305(18)
H24A H -0.0692 -1.6164 1.5728
C20A C -0.1798(2) -1.59757(19) 1.44343(17)
H25A H -0.1237 -1.6613 1.4231
C21A C -0.2908(2) -1.53737(17) 1.38341(17)
H26A H -0.3119 -1.5601 1.3257
C22A C -0.37014(18) -1.44031(15) 1.41365(14)
C25A C -0.07183(17) -0.84942(15) 1.30701(14)
C26A C 0.04860(17) -0.81642(16) 1.31316(15)
H28A H 0.0590 -0.7483 1.2582
C27A C 0.13167(18) -0.87235(17) 1.38429(16)
H29A H 0.1204 -0.9401 1.4392
C28A C 0.25167(16) -0.84199(14) 1.39185(15)
O1A O -0.40161(10) -0.88784(10) 1.35296(9)
O2A O -0.08290(12) -0.94861(12) 1.35711(11)
O3A O -0.15425(12) -0.76686(10) 1.24039(11)
O6A O 0.27228(11) -0.75293(10) 1.31511(10)
O7A O 0.32724(12) -0.90364(11) 1.46902(11)
Zn1A_2 Zn 0.717045(16) -0.850305(15) 1.238589(14)
Zn2_2 Zn -0.446164(17) -1.234130(15) 1.633588(15)
Zn2_3 Zn 0.553836(17) -0.234130(15) 0.633588(15)
Zn2A_2 Zn -0.553836(17) -0.765870(15) 1.366412(15)
Zn2A_3 Zn 0.446164(17) 0.234130(15) 0.366412(15)
N4_2 N 0.43495(12) -0.69114(11) 1.48807(11)
N4A_2 N -0.43495(12) -0.30886(11) 0.51193(11)
O1_2 O -0.59839(10) -0.11216(10) 0.64704(9)
O1A_2 O 0.59839(10) -0.88784(10) 1.35296(9)
O4A_2 O -0.39752(12) -0.70698(11) 1.12712(10)
O5_2 O -0.45579(13) -0.37715(10) 0.76643(10)
O8 O 0.12260(15) 0.54819(16) 0.90693(15)
H30 H 0.0682(3) 0.6132(3) 0.8714(6)
H31 H 0.1887(2) 0.5478(10) 0.8668(4)
O9 O 0.88090(13) 0.52026(13) 0.86240(12)
H32 H 0.8156(2) 0.5331(7) 0.8250(3)
H33 H 0.9442(3) 0.4890(5) 0.8271(3)
loop_
_geom_bond_atom_site_label_1
_geom_bond_atom_site_label_2
_geom_bond_site_symmetry_1
_geom_bond_site_symmetry_2
Zn1 N1 1_555 1_555
Zn2 O6 1_555 1_555
N1 C2 1_555 1_555
N2 C2 1_555 1_555
N3 C14 1_555 1_555
N4 C16 1_555 1_555
C1 H1 1_555 1_555
H2 C1 1_555 1_555
H3 C1 1_555 1_555
C2 C1 1_555 1_555
C3 N1 1_555 1_555
C4 C3 1_555 1_555
H4 C4 1_555 1_555
C5 C4 1_555 1_555
H5 C5 1_555 1_555
C6 C5 1_555 1_555
H6 C6 1_555 1_555
C7 C6 1_555 1_555
H7 C7 1_555 1_555
C8 N2 1_555 1_555
C9 N2 1_555 1_555
H8 C9 1_555 1_555
H9 C9 1_555 1_555
C10 C9 1_555 1_555
H10 C10 1_555 1_555
H11 C10 1_555 1_555
C11 C10 1_555 1_555
H12 C11 1_555 1_555
H13 C11 1_555 1_555
C12 C11 1_555 1_555
H14 C12 1_555 1_555
H15 C12 1_555 1_555
C13 C12 1_555 1_555
H16 C13 1_555 1_555
H17 C13 1_555 1_555
C14 C13 1_555 1_555
H18 C14 1_555 1_555
H19 C14 1_555 1_555
C15 H20 1_555 1_555
H21 C15 1_555 1_555
H22 C15 1_555 1_555
C16 N3 1_555 1_555
C17 N4 1_555 1_555
C18 C17 1_555 1_555
H23 C18 1_555 1_555
C19 C18 1_555 1_555
H24 C19 1_555 1_555
C20 C19 1_555 1_555
H25 C20 1_555 1_555
C21 C20 1_555 1_555
H26 C21 1_555 1_555
C22 N3 1_555 1_555
C23 C24 1_555 1_555
C24 H27 1_555 1_555
C25 C26 1_555 1_555
C26 H28 1_555 1_555
C27 C26 1_555 1_555
H29 C27 1_555 1_555
C28 C27 1_555 1_555
O1 Zn1 1_555 1_555
O2 Zn1 1_555 1_555
O3 Zn1 1_555 1_555
O4 Zn1 1_555 1_555
O5 C23 1_555 1_555
O6 C28 1_555 1_555
O7 Zn2 1_555 1_555
O8 H30 1_555 1_555
H31 O8 1_555 1_555
O9 H32 1_555 1_555
H33 O9 1_555 1_555
C23A C24A 1_555 1_555
C24A C24 1_555 1_555
H27A C24A 1_555 1_555
O4A C23A 1_555 1_555
O5A C23A 1_555 1_555
Zn1A N1A 1_555 1_555
Zn2A O5A 1_555 1_555
N1A C2A 1_555 1_555
N2A C2A 1_555 1_555
N3A C14A 1_555 1_555
N4A C16A 1_555 1_555
C1A H1A 1_555 1_555
H2A C1A 1_555 1_555
H3A C1A 1_555 1_555
C2A C1A 1_555 1_555
C3A N1A 1_555 1_555
C4A C3A 1_555 1_555
H4A C4A 1_555 1_555
C5A C4A 1_555 1_555
H5A C5A 1_555 1_555
C6A C5A 1_555 1_555
H6A C6A 1_555 1_555
C7A C6A 1_555 1_555
H7A C7A 1_555 1_555
C8A N2A 1_555 1_555
C9A N2A 1_555 1_555
H8A C9A 1_555 1_555
H9A C9A 1_555 1_555
C10A C9A 1_555 1_555
H10A C10A 1_555 1_555
H11A C10A 1_555 1_555
C11A C10A 1_555 1_555
H12A C11A 1_555 1_555
H13A C11A 1_555 1_555
C12A C11A 1_555 1_555
H14A C12A 1_555 1_555
H15A C12A 1_555 1_555
C13A C12A 1_555 1_555
H16A C13A 1_555 1_555
H17A C13A 1_555 1_555
C14A C13A 1_555 1_555
H18A C14A 1_555 1_555
H19A C14A 1_555 1_555
C15A H20A 1_555 1_555
H21A C15A 1_555 1_555
H22A C15A 1_555 1_555
C16A N3A 1_555 1_555
C17A N4A 1_555 1_555
C18A C17A 1_555 1_555
H23A C18A 1_555 1_555
C19A C18A 1_555 1_555
H24A C19A 1_555 1_555
C20A C19A 1_555 1_555
H25A C20A 1_555 1_555
C21A C20A 1_555 1_555
H26A C21A 1_555 1_555
C22A N3A 1_555 1_555
C25A C26A 1_555 1_555
C26A H28A 1_555 1_555
C27A C26A 1_555 1_555
H29A C27A 1_555 1_555
C28A C27A 1_555 1_555
O1A Zn1A 1_555 1_555
O2A Zn1A 1_555 1_555
O3A Zn1A 1_555 1_555
O6A Zn2A 1_555 1_555
O7A Zn2A 1_555 1_555
Zn1A_2 O4A 1_555 1_555
Zn2_2 N4A 1_555 1_555
Zn2_3 O1 1_555 1_555
Zn2A_2 O1A 1_555 1_555
Zn2A_3 N4 1_555 1_555
N4_2 Zn2A 1_555 1_555
N4A_2 Zn2 1_555 1_555
O1_2 Zn2 1_555 1_555
O1A_2 Zn2A 1_555 1_555
O4A_2 Zn1A 1_555 1_555
O5_2 Zn2 1_555 1_555
C3 C8 1_555 1_555
C7 C8 1_555 1_555
C15 C16 1_555 1_555
C17 C22 1_555 1_555
C21 C22 1_555 1_555
C23 O4 1_555 1_555
C25 O2 1_555 1_555
C25 O3 1_555 1_555
C28 O7 1_555 1_555
O5 Zn2_3 1_555 1_555
C3A C8A 1_555 1_555
C7A C8A 1_555 1_555
C15A C16A 1_555 1_555
C17A C22A 1_555 1_555
C21A C22A 1_555 1_555
C25A O2A 1_555 1_555
C25A O3A 1_555 1_555
C28A O6A 1_555 1_555
C28A O7A 1_555 1_555
Zn1A_2 O1A_2 1_555 1_555

#END
