
#######################################################################
#
#                 Cambridge Crystallographic Data Centre
#                                CCDC 
#
#######################################################################
#
# If this CIF has been generated from an entry in the Cambridge 
# Structural Database, then it will include bibliographic, chemical, 
# crystal, experimental, refinement or atomic coordinate data resulting 
# from the CCDC's data processing and validation procedures.
#
#######################################################################

data_CIHJUA
_symmetry_cell_setting           triclinic
_symmetry_space_group_name_H-M   'P -1'
_symmetry_Int_Tables_number      2
_space_group_name_Hall           '-P 1'
loop_
_symmetry_equiv_pos_site_id
_symmetry_equiv_pos_as_xyz
1 x,y,z
2 -x,-y,-z
_cell_length_a                   11.143(2)
_cell_length_b                   12.284(3)
_cell_length_c                   12.748(3)
_cell_angle_alpha                69.85(3)
_cell_angle_beta                 84.94(3)
_cell_angle_gamma                72.46(3)
_cell_volume                     1561.75
loop_
_atom_site_label
_atom_site_type_symbol
_atom_site_fract_x
_atom_site_fract_y
_atom_site_fract_z
Zn1 Zn 0.94713(5) 0.72827(6) 0.36822(5)
Zn2 Zn 1.21126(5) 0.65111(6) 0.23883(5)
N1 N 1.2741(4) 0.5506(4) 0.1384(3)
N2 N 1.3226(4) 0.4026(4) 0.0654(4)
N3 N 1.0649(4) 0.1952(4) 0.5123(4)
N4 N 1.0156(5) 0.1428(5) 0.3749(4)
C1 C 1.3106(4) 0.5962(5) 0.0289(4)
C2 C 1.3239(5) 0.7088(6) -0.0327(5)
H1 H 1.3048 0.7705 -0.0021
C3 C 1.3664(6) 0.7277(6) -0.1413(5)
H2 H 1.3749 0.8033 -0.1844
C4 C 1.3965(6) 0.6344(7) -0.1865(5)
H3 H 1.4255 0.6490 -0.2593
C5 C 1.3847(6) 0.5223(6) -0.1270(5)
H4 H 1.4050 0.4608 -0.1579
C6 C 1.3408(5) 0.5033(5) -0.0177(4)
C7 C 1.3390(6) 0.2855(6) 0.0516(6)
H5 H 1.3377 0.2252 0.1244
H6 H 1.4206 0.2608 0.0193
C8 C 1.2364(6) 0.2903(7) -0.0234(5)
H7 H 1.2381 0.3510 -0.0958
H8 H 1.2555 0.2126 -0.0344
C9 C 1.1078(7) 0.3188(7) 0.0214(5)
H9 H 1.0471 0.3325 -0.0352
H10 H 1.0907 0.3926 0.0393
C10 C 1.2839(5) 0.4357(5) 0.1573(5)
C11 C 1.2600(7) 0.3527(6) 0.2684(5)
H11 H 1.2657 0.3860 0.3252
H12 H 1.3216 0.2750 0.2835
H13 H 1.1774 0.3438 0.2681
C12 C 0.7504(5) 0.6600(6) 0.3839(6)
C13 C 0.6332(7) 0.6199(8) 0.3859(7)
H14 H 0.6580 0.5427 0.3733
H15 H 0.5971 0.6076 0.4596
C14 C 0.5376(7) 0.7047(6) 0.3038(6)
H16 H 0.5755 0.7214 0.2306
H17 H 0.5090 0.7802 0.3195
C15 C 1.0076(5) 0.8772(5) 0.1443(5)
C16 C 0.9547(5) 0.9885(5) 0.0469(4)
H18 H 0.9284 1.0578 0.0724
H19 H 0.8805 0.9812 0.0186
C17 C 0.4206(7) 0.6612(7) 0.2993(6)
C18 C 0.9807(5) 0.2229(6) 0.4320(5)
C19 C 0.8641(7) 0.3255(7) 0.4094(7)
H20 H 0.8820 0.3975 0.3598
H21 H 0.8020 0.3078 0.3754
H22 H 0.8326 0.3376 0.4783
C20 C 1.1598(5) 0.0959(5) 0.5050(4)
C21 C 1.2709(6) 0.0317(7) 0.5667(6)
H23 H 1.2935 0.0547 0.6226
C22 C 1.3469(8) -0.0686(8) 0.5413(7)
H24 H 1.4213 -0.1148 0.5816
C23 C 1.3128(10) -0.1003(8) 0.4570(7)
H25 H 1.3664 -0.1673 0.4418
C24 C 1.2032(8) -0.0379(7) 0.3937(6)
H26 H 1.1815 -0.0612 0.3376
C25 C 1.1290(6) 0.0606(5) 0.4194(5)
C26 C 0.9449(7) 0.1464(7) 0.2814(5)
H27 H 0.9714 0.0673 0.2724
H28 H 0.8559 0.1644 0.2984
C27 C 0.9643(7) 0.2404(8) 0.1733(6)
H29 H 0.9451 0.3178 0.1850
H30 H 0.9053 0.2489 0.1174
C28 C 1.0925(7) 0.2122(7) 0.1297(6)
H31 H 1.1527 0.1989 0.1866
H32 H 1.1103 0.1382 0.1120
O1 O 1.0991(4) 0.6079(4) 0.3573(3)
O2 O 0.9629(4) 0.8743(4) 0.2384(3)
O3 O 1.0908(4) 0.7917(4) 0.1268(3)
O4 O 0.8288(4) 0.5998(4) 0.4604(4)
O5 O 0.7702(4) 0.7479(5) 0.3067(4)
O6 O 0.4258(4) 0.5524(5) 0.3441(4)
O7 O 0.3297(4) 0.7398(5) 0.2456(4)
C15A C 0.9924(5) 1.1228(5) -0.1443(5)
C16A C 1.0453(5) 1.0115(5) -0.0469(4)
H18A H 1.0716 0.9422 -0.0724
H19A H 1.1195 1.0188 -0.0186
O2A O 1.0371(4) 1.1257(4) -0.2384(3)
O3A O 0.9092(4) 1.2083(4) -0.1268(3)
Zn1A Zn 1.05287(5) 0.27173(6) 0.63178(5)
Zn2A Zn 0.78874(5) 0.34889(6) 0.76117(5)
N1A N 0.7259(4) 0.4494(4) 0.8616(3)
N2A N 0.6774(4) 0.5974(4) 0.9346(4)
N3A N 0.9351(4) 0.8048(4) 0.4877(4)
N4A N 0.9844(5) 0.8572(5) 0.6251(4)
C1A C 0.6894(4) 0.4038(5) 0.9711(4)
C2A C 0.6761(5) 0.2912(6) 1.0327(5)
H1A H 0.6952 0.2295 1.0021
C3A C 0.6336(6) 0.2723(6) 1.1413(5)
H2A H 0.6251 0.1967 1.1844
C4A C 0.6035(6) 0.3656(7) 1.1865(5)
H3A H 0.5745 0.3510 1.2593
C5A C 0.6153(6) 0.4777(6) 1.1270(5)
H4A H 0.5950 0.5392 1.1579
C6A C 0.6592(5) 0.4967(5) 1.0177(4)
C7A C 0.6610(6) 0.7145(6) 0.9484(6)
H5A H 0.6623 0.7748 0.8756
H6A H 0.5794 0.7392 0.9807
C8A C 0.7636(6) 0.7097(7) 1.0234(5)
H7A H 0.7619 0.6490 1.0958
H8A H 0.7445 0.7874 1.0344
C9A C 0.8922(7) 0.6812(7) 0.9786(5)
H9A H 0.9529 0.6675 1.0352
H10A H 0.9093 0.6074 0.9607
C10A C 0.7161(5) 0.5643(5) 0.8427(5)
C11A C 0.7400(7) 0.6473(6) 0.7316(5)
H11A H 0.7343 0.6140 0.6748
H12A H 0.6784 0.7250 0.7165
H13A H 0.8226 0.6562 0.7319
C12A C 1.2496(5) 0.3400(6) 0.6161(6)
C13A C 1.3668(7) 0.3801(8) 0.6141(7)
H14A H 1.3420 0.4573 0.6267
H15A H 1.4029 0.3924 0.5404
C14A C 1.4624(7) 0.2953(6) 0.6962(6)
H16A H 1.4245 0.2786 0.7694
H17A H 1.4910 0.2198 0.6805
C17A C 1.5794(7) 0.3388(7) 0.7007(6)
C18A C 1.0193(5) 0.7771(6) 0.5680(5)
C19A C 1.1359(7) 0.6745(7) 0.5906(7)
H20A H 1.1180 0.6025 0.6402
H21A H 1.1980 0.6922 0.6246
H22A H 1.1674 0.6624 0.5217
C20A C 0.8402(5) 0.9041(5) 0.4950(4)
C21A C 0.7291(6) 0.9683(7) 0.4333(6)
H23A H 0.7065 0.9453 0.3774
C22A C 0.6531(8) 1.0686(8) 0.4587(7)
H24A H 0.5787 1.1148 0.4184
C23A C 0.6872(10) 1.1003(8) 0.5430(7)
H25A H 0.6336 1.1673 0.5582
C24A C 0.7968(8) 1.0379(7) 0.6063(6)
H26A H 0.8185 1.0612 0.6624
C25A C 0.8710(6) 0.9394(5) 0.5806(5)
C26A C 1.0551(7) 0.8536(7) 0.7186(5)
H27A H 1.0286 0.9327 0.7276
H28A H 1.1441 0.8356 0.7016
C27A C 1.0357(7) 0.7596(8) 0.8267(6)
H29A H 1.0549 0.6822 0.8150
H30A H 1.0947 0.7511 0.8826
C28A C 0.9075(7) 0.7878(7) 0.8703(6)
H31A H 0.8473 0.8011 0.8134
H32A H 0.8897 0.8618 0.8880
O1A O 0.9009(4) 0.3921(4) 0.6427(3)
O4A O 1.1712(4) 0.4002(4) 0.5396(4)
O5A O 1.2298(4) 0.2521(5) 0.6933(4)
O6A O 1.5742(4) 0.4476(5) 0.6559(4)
O7A O 1.6703(4) 0.2602(5) 0.7544(4)
Zn1A_2 Zn 1.05287(5) 1.27173(6) -0.36822(5)
Zn2_2 Zn 0.21126(5) 0.65111(6) 0.23883(5)
Zn2A_2 Zn 0.78874(5) 1.34889(6) -0.23883(5)
Zn2A_3 Zn 1.78874(5) 0.34889(6) 0.76117(5)
O2A_2 O 1.0371(4) 0.1257(4) 0.7616(3)
O3A_2 O 0.9092(4) 0.2083(4) 0.8732(3)
O7_2 O 1.3297(4) 0.7398(5) 0.2456(4)
O7A_2 O 0.6703(4) 0.2602(5) 0.7544(4)
O8 O 0.3674(7) 0.9568(6) 0.0967(6)
H33 H 0.352(10) 0.895(5) 0.144(6)
H34 H 0.413(10) 0.936(8) 0.046(6)
O9 O 0.6109(6) 0.9805(6) 0.1404(6)
H35 H 0.534(2) 0.999(8) 0.124(9)
H36 H 0.648(7) 0.910(4) 0.139(9)
loop_
_geom_bond_atom_site_label_1
_geom_bond_atom_site_label_2
_geom_bond_site_symmetry_1
_geom_bond_site_symmetry_2
Zn1 O1 1_555 1_555
Zn2 N1 1_555 1_555
N1 C1 1_555 1_555
N2 C6 1_555 1_555
N3 C18 1_555 1_555
N4 C18 1_555 1_555
C1 C2 1_555 1_555
C2 H1 1_555 1_555
C3 C2 1_555 1_555
H2 C3 1_555 1_555
C4 C3 1_555 1_555
H3 C4 1_555 1_555
C5 C4 1_555 1_555
H4 C5 1_555 1_555
C6 C1 1_555 1_555
C7 N2 1_555 1_555
H5 C7 1_555 1_555
H6 C7 1_555 1_555
C8 C7 1_555 1_555
H7 C8 1_555 1_555
H8 C8 1_555 1_555
C9 C8 1_555 1_555
H9 C9 1_555 1_555
H10 C9 1_555 1_555
C10 N1 1_555 1_555
C11 C10 1_555 1_555
H11 C11 1_555 1_555
H12 C11 1_555 1_555
H13 C11 1_555 1_555
C12 C13 1_555 1_555
C13 H14 1_555 1_555
H15 C13 1_555 1_555
C14 C13 1_555 1_555
H16 C14 1_555 1_555
H17 C14 1_555 1_555
C15 C16 1_555 1_555
C16 H18 1_555 1_555
H19 C16 1_555 1_555
C17 C14 1_555 1_555
C18 C19 1_555 1_555
C19 H20 1_555 1_555
H21 C19 1_555 1_555
H22 C19 1_555 1_555
C20 N3 1_555 1_555
C21 C20 1_555 1_555
H23 C21 1_555 1_555
C22 C21 1_555 1_555
H24 C22 1_555 1_555
C23 C22 1_555 1_555
H25 C23 1_555 1_555
C24 C23 1_555 1_555
H26 C24 1_555 1_555
C25 N4 1_555 1_555
C26 N4 1_555 1_555
H27 C26 1_555 1_555
H28 C26 1_555 1_555
C27 C26 1_555 1_555
H29 C27 1_555 1_555
H30 C27 1_555 1_555
C28 C9 1_555 1_555
H31 C28 1_555 1_555
H32 C28 1_555 1_555
O1 Zn2 1_555 1_555
O2 Zn1 1_555 1_555
O3 Zn2 1_555 1_555
O4 Zn1 1_555 1_555
O5 Zn1 1_555 1_555
O6 C17 1_555 1_555
O7 C17 1_555 1_555
O8 H33 1_555 1_555
H34 O8 1_555 1_555
O9 H35 1_555 1_555
H36 O9 1_555 1_555
C15A C16A 1_555 1_555
C16A C16 1_555 1_555
H18A C16A 1_555 1_555
H19A C16A 1_555 1_555
O2A C15A 1_555 1_555
O3A C15A 1_555 1_555
Zn1A N3 1_555 1_555
Zn2A N1A 1_555 1_555
N1A C1A 1_555 1_555
N2A C6A 1_555 1_555
N3A Zn1 1_555 1_555
N4A C18A 1_555 1_555
C1A C2A 1_555 1_555
C2A H1A 1_555 1_555
C3A C2A 1_555 1_555
H2A C3A 1_555 1_555
C4A C3A 1_555 1_555
H3A C4A 1_555 1_555
C5A C4A 1_555 1_555
H4A C5A 1_555 1_555
C6A C1A 1_555 1_555
C7A N2A 1_555 1_555
H5A C7A 1_555 1_555
H6A C7A 1_555 1_555
C8A C7A 1_555 1_555
H7A C8A 1_555 1_555
H8A C8A 1_555 1_555
C9A C8A 1_555 1_555
H9A C9A 1_555 1_555
H10A C9A 1_555 1_555
C10A N1A 1_555 1_555
C11A C10A 1_555 1_555
H11A C11A 1_555 1_555
H12A C11A 1_555 1_555
H13A C11A 1_555 1_555
C12A C13A 1_555 1_555
C13A H14A 1_555 1_555
H15A C13A 1_555 1_555
C14A C13A 1_555 1_555
H16A C14A 1_555 1_555
H17A C14A 1_555 1_555
C17A C14A 1_555 1_555
C18A N3A 1_555 1_555
C19A C18A 1_555 1_555
H20A C19A 1_555 1_555
H21A C19A 1_555 1_555
H22A C19A 1_555 1_555
C20A N3A 1_555 1_555
C21A C20A 1_555 1_555
H23A C21A 1_555 1_555
C22A C21A 1_555 1_555
H24A C22A 1_555 1_555
C23A C22A 1_555 1_555
H25A C23A 1_555 1_555
C24A C23A 1_555 1_555
H26A C24A 1_555 1_555
C25A N4A 1_555 1_555
C26A N4A 1_555 1_555
H27A C26A 1_555 1_555
H28A C26A 1_555 1_555
C27A C26A 1_555 1_555
H29A C27A 1_555 1_555
H30A C27A 1_555 1_555
C28A C9A 1_555 1_555
H31A C28A 1_555 1_555
H32A C28A 1_555 1_555
O1A Zn1A 1_555 1_555
O4A Zn1A 1_555 1_555
O5A Zn1A 1_555 1_555
O6A C17A 1_555 1_555
O7A C17A 1_555 1_555
Zn1A_2 O2A 1_555 1_555
Zn2_2 O7 1_555 1_555
Zn2A_2 O3A 1_555 1_555
Zn2A_3 O7A 1_555 1_555
O2A_2 Zn1A 1_555 1_555
O3A_2 Zn2A 1_555 1_555
O7_2 Zn2 1_555 1_555
O7A_2 Zn2A 1_555 1_555
N2 C10 1_555 1_555
C5 C6 1_555 1_555
C12 O4 1_555 1_555
C12 O5 1_555 1_555
C15 O2 1_555 1_555
C15 O3 1_555 1_555
C20 C25 1_555 1_555
C24 C25 1_555 1_555
C27 C28 1_555 1_555
Zn2A O1A 1_555 1_555
N2A C10A 1_555 1_555
C5A C6A 1_555 1_555
C12A O4A 1_555 1_555
C12A O5A 1_555 1_555
C20A C25A 1_555 1_555
C24A C25A 1_555 1_555
C27A C28A 1_555 1_555

#END
