
#######################################################################
#
#                 Cambridge Crystallographic Data Centre
#                                CCDC 
#
#######################################################################
#
# If this CIF has been generated from an entry in the Cambridge 
# Structural Database, then it will include bibliographic, chemical, 
# crystal, experimental, refinement or atomic coordinate data resulting 
# from the CCDC's data processing and validation procedures.
#
#######################################################################

data_CIHKAH
_symmetry_cell_setting           orthorhombic
_symmetry_space_group_name_H-M   'P b c n'
_symmetry_Int_Tables_number      60
_space_group_name_Hall           '-P 2n 2ab'
loop_
_symmetry_equiv_pos_site_id
_symmetry_equiv_pos_as_xyz
1 x,y,z
2 1/2-x,1/2-y,1/2+z
3 -x,y,1/2-z
4 1/2+x,1/2-y,-z
5 -x,-y,-z
6 1/2+x,1/2+y,1/2-z
7 x,-y,1/2+z
8 1/2-x,1/2+y,z
_cell_length_a                   9.2186(18)
_cell_length_b                   17.128(3)
_cell_length_c                   17.041(3)
_cell_angle_alpha                90
_cell_angle_beta                 90
_cell_angle_gamma                90
_cell_volume                     2690.71
loop_
_atom_site_label
_atom_site_type_symbol
_atom_site_fract_x
_atom_site_fract_y
_atom_site_fract_z
Cd1 Cd 0.5000 0.323689(12) 0.2500
N1 N 0.5716(2) 0.23449(10) 0.15790(10)
N2 N 0.7141(2) 0.16703(11) 0.07831(11)
C1 C 0.0692(4) 0.5170(3) 0.2518(2)
H1 H 0.0875 0.4890 0.3002
H2 H 0.0907 0.5711 0.2638
C2 C 0.1913(3) 0.4945(2) 0.20380(18)
H3 H 0.2546 0.5397 0.2012
H4 H 0.1537 0.4867 0.1512
C3 C 0.2847(3) 0.42725(17) 0.22075(16)
C4 C 0.8324(3) 0.22761(17) 0.19474(16)
H5 H 0.8025 0.2594 0.2382
H6 H 0.9048 0.2548 0.1649
H7 H 0.8721 0.1795 0.2140
C5 C 0.7062(3) 0.21094(13) 0.14429(13)
C6 C 0.4863(2) 0.20402(12) 0.09748(13)
C7 C 0.3411(3) 0.20909(13) 0.08138(14)
H8 H 0.2790 0.2363 0.1146
C8 C 0.2893(3) 0.17316(13) 0.01530(16)
H9 H 0.1908 0.1763 0.0039
C9 C 0.3795(3) 0.13244(15) -0.03476(16)
H10 H 0.3397 0.1083 -0.0787
C10 C 0.5267(3) 0.12631(15) -0.02183(15)
H11 H 0.5880 0.1001 -0.0563
C11 C 0.5776(3) 0.16193(12) 0.04611(14)
C12 C 0.8461(3) 0.13063(14) 0.04493(15)
H12 H 0.9307 0.1605 0.0606
H13 H 0.8406 0.1315 -0.0119
C13 C 0.8619(3) 0.04796(15) 0.07253(17)
H14 H 0.7780 0.0185 0.0552
H15 H 0.8620 0.0476 0.1294
C14 C 0.9987(3) 0.00666(18) 0.04365(16)
H16 H 1.0826 0.0376 0.0582
H17 H 1.0067 -0.0433 0.0700
O1 O 0.31261(19) 0.37805(10) 0.16943(10)
O2 O 0.3348(2) 0.42050(11) 0.28875(11)
N1D N 1.4284(2) -0.23449(10) -0.15790(10)
N2D N 1.2859(2) -0.16703(11) -0.07831(11)
C4D C 1.1676(3) -0.22761(17) -0.19474(16)
H5D H 1.1975 -0.2594 -0.2382
H6D H 1.0952 -0.2548 -0.1649
H7D H 1.1279 -0.1795 -0.2140
C5D C 1.2938(3) -0.21094(13) -0.14429(13)
C6D C 1.5137(2) -0.20402(12) -0.09748(13)
C7D C 1.6589(3) -0.20909(13) -0.08138(14)
H8D H 1.7210 -0.2363 -0.1146
C8D C 1.7107(3) -0.17316(13) -0.01530(16)
H9D H 1.8092 -0.1763 -0.0039
C9D C 1.6205(3) -0.13244(15) 0.03476(16)
H10D H 1.6603 -0.1083 0.0787
C10D C 1.4733(3) -0.12631(15) 0.02183(15)
H11D H 1.4120 -0.1001 0.0563
C11D C 1.4224(3) -0.16193(12) -0.04611(14)
C12D C 1.1539(3) -0.13063(14) -0.04493(15)
H12D H 1.0693 -0.1605 -0.0606
H13D H 1.1594 -0.1315 0.0119
C13D C 1.1381(3) -0.04796(15) -0.07253(17)
H14D H 1.2220 -0.0185 -0.0552
H15D H 1.1380 -0.0476 -0.1294
C14D C 1.0013(3) -0.00666(18) -0.04365(16)
H16D H 0.9174 -0.0376 -0.0582
H17D H 0.9933 0.0433 -0.0700
C1B C -0.0692(4) 0.5170(3) 0.2482(2)
H1B H -0.0875 0.4890 0.1998
H2B H -0.0907 0.5711 0.2362
C2B C -0.1913(3) 0.4945(2) 0.29620(18)
H3B H -0.2546 0.5397 0.2988
H4B H -0.1537 0.4867 0.3488
C3B C -0.2847(3) 0.42725(17) 0.27925(16)
O1B O -0.31261(19) 0.37805(10) 0.33057(10)
O2B O -0.3348(2) 0.42050(11) 0.21125(11)
Cd1_2 Cd -0.5000 0.323689(12) 0.2500
Cd1D Cd 1.5000 -0.323689(12) -0.2500
N1B N 0.4284(2) 0.23449(10) 0.34210(10)
O1B_2 O 0.68739(19) 0.37805(10) 0.33057(10)
O2B_2 O 0.6652(2) 0.42050(11) 0.21125(11)
loop_
_geom_bond_atom_site_label_1
_geom_bond_atom_site_label_2
_geom_bond_site_symmetry_1
_geom_bond_site_symmetry_2
Cd1 N1 1_555 1_555
N1 C5 1_555 1_555
N2 C5 1_555 1_555
C1 H1 1_555 1_555
H2 C1 1_555 1_555
C2 C1 1_555 1_555
H3 C2 1_555 1_555
H4 C2 1_555 1_555
C3 C2 1_555 1_555
C4 H5 1_555 1_555
H6 C4 1_555 1_555
H7 C4 1_555 1_555
C5 C4 1_555 1_555
C6 N1 1_555 1_555
C7 C6 1_555 1_555
H8 C7 1_555 1_555
C8 C7 1_555 1_555
H9 C8 1_555 1_555
C9 C8 1_555 1_555
H10 C9 1_555 1_555
C10 C9 1_555 1_555
H11 C10 1_555 1_555
C11 N2 1_555 1_555
C12 N2 1_555 1_555
H12 C12 1_555 1_555
H13 C12 1_555 1_555
C13 C12 1_555 1_555
H14 C13 1_555 1_555
H15 C13 1_555 1_555
C14 C13 1_555 1_555
H16 C14 1_555 1_555
H17 C14 1_555 1_555
O1 Cd1 1_555 1_555
O2 Cd1 1_555 1_555
N1D C5D 1_555 1_555
N2D C5D 1_555 1_555
C4D H5D 1_555 1_555
H6D C4D 1_555 1_555
H7D C4D 1_555 1_555
C5D C4D 1_555 1_555
C6D N1D 1_555 1_555
C7D C6D 1_555 1_555
H8D C7D 1_555 1_555
C8D C7D 1_555 1_555
H9D C8D 1_555 1_555
C9D C8D 1_555 1_555
H10D C9D 1_555 1_555
C10D C9D 1_555 1_555
H11D C10D 1_555 1_555
C11D N2D 1_555 1_555
C12D N2D 1_555 1_555
H12D C12D 1_555 1_555
H13D C12D 1_555 1_555
C13D C12D 1_555 1_555
H14D C13D 1_555 1_555
H15D C13D 1_555 1_555
C14D C14 1_555 1_555
H16D C14D 1_555 1_555
H17D C14D 1_555 1_555
C1B C1 1_555 1_555
H1B C1B 1_555 1_555
H2B C1B 1_555 1_555
C2B C1B 1_555 1_555
H3B C2B 1_555 1_555
H4B C2B 1_555 1_555
C3B C2B 1_555 1_555
O1B C3B 1_555 1_555
O2B C3B 1_555 1_555
Cd1_2 O1B 1_555 1_555
Cd1D N1D 1_555 1_555
N1B Cd1 1_555 1_555
O1B_2 Cd1 1_555 1_555
O2B_2 Cd1 1_555 1_555
C3 O1 1_555 1_555
C3 O2 1_555 1_555
C6 C11 1_555 1_555
C10 C11 1_555 1_555
C6D C11D 1_555 1_555
C10D C11D 1_555 1_555
C13D C14D 1_555 1_555
O2B Cd1_2 1_555 1_555

#END
