
#######################################################################
#
#                 Cambridge Crystallographic Data Centre
#                                CCDC 
#
#######################################################################
#
# If this CIF has been generated from an entry in the Cambridge 
# Structural Database, then it will include bibliographic, chemical, 
# crystal, experimental, refinement or atomic coordinate data resulting 
# from the CCDC's data processing and validation procedures.
#
#######################################################################

data_CIHKEL
_symmetry_cell_setting           monoclinic
_symmetry_space_group_name_H-M   'P 21/c'
_symmetry_Int_Tables_number      14
_space_group_name_Hall           '-P 2ybc'
loop_
_symmetry_equiv_pos_site_id
_symmetry_equiv_pos_as_xyz
1 x,y,z
2 -x,1/2+y,1/2-z
3 -x,-y,-z
4 x,1/2-y,1/2+z
_cell_length_a                   10.836(2)
_cell_length_b                   18.097(4)
_cell_length_c                   11.340(2)
_cell_angle_alpha                90
_cell_angle_beta                 92.98(3)
_cell_angle_gamma                90
_cell_volume                     2220.76
loop_
_atom_site_label
_atom_site_type_symbol
_atom_site_fract_x
_atom_site_fract_y
_atom_site_fract_z
Zn1 Zn 0.42456(4) 1.04446(3) 0.13286(4)
N1 N 0.4105(3) 0.9999(2) 0.3006(3)
N2 N 0.3427(3) 0.9788(2) 0.4788(3)
C1 C 0.3307(4) 0.9334(2) -0.0532(4)
C2 C 0.1968(4) 0.9105(3) -0.0772(4)
H1 H 0.1943 0.8758 -0.1426
H2 H 0.1512 0.9540 -0.1040
C3 C -0.0035(4) 0.8536(2) -0.0292(4)
H3 H 0.0054 0.8207 -0.0957
H4 H -0.0462 0.8977 -0.0582
C4 C 0.1261(4) 0.8754(2) 0.0225(3)
C5 C 0.1085(4) 0.9279(3) 0.1262(4)
H5 H 0.0659 0.9722 0.0983
H6 H 0.1884 0.9423 0.1614
C6 C 0.0329(5) 0.8892(3) 0.2188(4)
H7 H 0.0230 0.9231 0.2851
C7 C -0.0949(5) 0.8683(3) 0.1659(5)
H8 H -0.1387 0.9125 0.1392
H9 H -0.1423 0.8447 0.2256
C8 C 0.1910(4) 0.8051(2) 0.0676(4)
H10 H 0.2010 0.7714 0.0022
H11 H 0.2725 0.8173 0.1015
C9 C -0.0818(4) 0.8155(2) 0.0618(4)
C10 C -0.2083(4) 0.7915(3) 0.0067(4)
H12 H -0.1945 0.7589 -0.0592
H13 H -0.2506 0.7632 0.0649
C11 C -0.0121(4) 0.7468(3) 0.1068(4)
H14 H -0.0030 0.7126 0.0421
H15 H -0.0591 0.7223 0.1660
C12 C 0.1157(5) 0.7678(3) 0.1606(5)
H16 H 0.1587 0.7232 0.1892
C13 C 0.1009(6) 0.8207(4) 0.2637(4)
H17 H 0.0547 0.7969 0.3240
H18 H 0.1815 0.8343 0.2983
C14 C 0.4970(5) 0.8010(3) 0.3205(5)
H19 H 0.5341 0.7624 0.2813
C15 C 0.4507(5) 0.7877(3) 0.4315(5)
H20 H 0.4570 0.7405 0.4638
C16 C 0.3964(4) 0.8427(3) 0.4937(5)
H21 H 0.3661 0.8341 0.5677
C17 C 0.3887(4) 0.9119(2) 0.4408(4)
C18 C 0.4316(4) 0.9254(2) 0.3287(4)
C19 C 0.4893(4) 0.8695(3) 0.2675(4)
H22 H 0.5212 0.8781 0.1941
C20 C 0.3179(4) 1.1077(3) 0.4007(4)
H23 H 0.3712 1.1381 0.3561
H24 H 0.3231 1.1230 0.4818
H25 H 0.2343 1.1128 0.3694
C21 C 0.3568(4) 1.0292(2) 0.3923(4)
C22 C 0.2841(4) 0.9891(3) 0.5923(4)
H26 H 0.2884 1.0408 0.6145
H27 H 0.3290 0.9608 0.6532
C23 C 0.1497(4) 0.9644(3) 0.5844(4)
H28 H 0.1458 0.9137 0.5567
H29 H 0.1182 0.9655 0.6629
C24 C 0.0666(4) 1.0119(3) 0.5026(4)
H30 H 0.0717 1.0628 0.5293
H31 H 0.0970 1.0101 0.4237
C25 C -0.2926(5) 0.8534(3) -0.0367(5)
O1 O -0.3619(4) 0.8823(3) 0.0300(4)
O2 O -0.2924(4) 0.8751(2) -0.1389(4)
O3 O 0.3991(3) 0.9291(2) -0.1402(3)
O4 O 0.3672(3) 0.95468(18) 0.0474(3)
N1B N -0.4105(3) 1.0001(2) 0.6994(3)
N2B N -0.3427(3) 1.0212(2) 0.5212(3)
C14B C -0.4970(5) 1.1990(3) 0.6795(5)
H19B H -0.5341 1.2376 0.7187
C15B C -0.4507(5) 1.2123(3) 0.5685(5)
H20B H -0.4570 1.2595 0.5362
C16B C -0.3964(4) 1.1573(3) 0.5063(5)
H21B H -0.3661 1.1659 0.4323
C17B C -0.3887(4) 1.0881(2) 0.5592(4)
C18B C -0.4316(4) 1.0746(2) 0.6713(4)
C19B C -0.4893(4) 1.1305(3) 0.7325(4)
H22B H -0.5212 1.1219 0.8059
C20B C -0.3179(4) 0.8923(3) 0.5993(4)
H23B H -0.3712 0.8619 0.6439
H24B H -0.3231 0.8770 0.5182
H25B H -0.2343 0.8872 0.6306
C21B C -0.3568(4) 0.9708(2) 0.6077(4)
C22B C -0.2841(4) 1.0109(3) 0.4077(4)
H26B H -0.2884 0.9592 0.3855
H27B H -0.3290 1.0392 0.3468
C23B C -0.1497(4) 1.0356(3) 0.4156(4)
H28B H -0.1458 1.0863 0.4433
H29B H -0.1182 1.0345 0.3371
C24B C -0.0666(4) 0.9881(3) 0.4974(4)
H30B H -0.0717 0.9372 0.4707
H31B H -0.0970 0.9899 0.5763
Zn1B Zn -0.42456(4) 0.95554(3) -0.13286(4)
C1B C -0.3307(4) 1.0666(2) 0.0532(4)
C2B C -0.1968(4) 1.0895(3) 0.0772(4)
H1B H -0.1943 1.1242 0.1426
H2B H -0.1512 1.0460 0.1040
C3B C 0.0035(4) 1.1464(2) 0.0292(4)
H3B H -0.0054 1.1793 0.0957
H4B H 0.0462 1.1023 0.0582
C4B C -0.1261(4) 1.1246(2) -0.0225(3)
C5B C -0.1085(4) 1.0721(3) -0.1262(4)
H5B H -0.0659 1.0278 -0.0983
H6B H -0.1884 1.0577 -0.1614
C6B C -0.0329(5) 1.1108(3) -0.2188(4)
H7B H -0.0230 1.0769 -0.2851
C7B C 0.0949(5) 1.1317(3) -0.1659(5)
H8B H 0.1387 1.0875 -0.1392
H9B H 0.1423 1.1553 -0.2256
C8B C -0.1910(4) 1.1949(2) -0.0676(4)
H10B H -0.2010 1.2286 -0.0022
H11B H -0.2725 1.1827 -0.1015
C9B C 0.0818(4) 1.1845(2) -0.0618(4)
C10B C 0.2083(4) 1.2085(3) -0.0067(4)
H12B H 0.1945 1.2411 0.0592
H13B H 0.2506 1.2368 -0.0649
C11B C 0.0121(4) 1.2532(3) -0.1068(4)
H14B H 0.0030 1.2874 -0.0421
H15B H 0.0591 1.2777 -0.1660
C12B C -0.1157(5) 1.2322(3) -0.1606(5)
H16B H -0.1587 1.2768 -0.1892
C13B C -0.1009(6) 1.1793(4) -0.2637(4)
H17B H -0.0547 1.2031 -0.3240
H18B H -0.1815 1.1657 -0.2983
C25B C 0.2926(5) 1.1466(3) 0.0367(5)
O1B O 0.3619(4) 1.1177(3) -0.0300(4)
O2B O 0.2924(4) 1.1249(2) 0.1389(4)
O3B O -0.3991(3) 1.0709(2) 0.1402(3)
O4B O -0.3672(3) 1.04532(18) -0.0474(3)
Zn1_2 Zn -0.57544(4) 1.04446(3) 0.13286(4)
Zn1B_2 Zn -0.42456(4) 0.95554(3) 0.86714(4)
Zn1B_3 Zn 0.57544(4) 0.95554(3) -0.13286(4)
N1B_2 N -0.4105(3) 1.0001(2) -0.3006(3)
O3_2 O -0.6009(3) 0.9291(2) -0.1402(3)
O3B_2 O 0.6009(3) 1.0709(2) 0.1402(3)
loop_
_geom_bond_atom_site_label_1
_geom_bond_atom_site_label_2
_geom_bond_site_symmetry_1
_geom_bond_site_symmetry_2
Zn1 N1 1_555 1_555
N1 C18 1_555 1_555
N2 C17 1_555 1_555
C1 C2 1_555 1_555
C2 H1 1_555 1_555
H2 C2 1_555 1_555
C3 H3 1_555 1_555
H4 C3 1_555 1_555
C4 C2 1_555 1_555
C5 C4 1_555 1_555
H5 C5 1_555 1_555
H6 C5 1_555 1_555
C6 C5 1_555 1_555
H7 C6 1_555 1_555
C7 C6 1_555 1_555
H8 C7 1_555 1_555
H9 C7 1_555 1_555
C8 C4 1_555 1_555
H10 C8 1_555 1_555
H11 C8 1_555 1_555
C9 C3 1_555 1_555
C10 C9 1_555 1_555
H12 C10 1_555 1_555
H13 C10 1_555 1_555
C11 C9 1_555 1_555
H14 C11 1_555 1_555
H15 C11 1_555 1_555
C12 C8 1_555 1_555
H16 C12 1_555 1_555
C13 C6 1_555 1_555
H17 C13 1_555 1_555
H18 C13 1_555 1_555
C14 H19 1_555 1_555
C15 C14 1_555 1_555
H20 C15 1_555 1_555
C16 C15 1_555 1_555
H21 C16 1_555 1_555
C17 C16 1_555 1_555
C18 C17 1_555 1_555
C19 C14 1_555 1_555
H22 C19 1_555 1_555
C20 H23 1_555 1_555
H24 C20 1_555 1_555
H25 C20 1_555 1_555
C21 N1 1_555 1_555
C22 N2 1_555 1_555
H26 C22 1_555 1_555
H27 C22 1_555 1_555
C23 C22 1_555 1_555
H28 C23 1_555 1_555
H29 C23 1_555 1_555
C24 C23 1_555 1_555
H30 C24 1_555 1_555
H31 C24 1_555 1_555
C25 C10 1_555 1_555
O1 C25 1_555 1_555
O2 C25 1_555 1_555
O3 C1 1_555 1_555
O4 Zn1 1_555 1_555
N1B C18B 1_555 1_555
N2B C17B 1_555 1_555
C14B H19B 1_555 1_555
C15B C14B 1_555 1_555
H20B C15B 1_555 1_555
C16B C15B 1_555 1_555
H21B C16B 1_555 1_555
C17B C16B 1_555 1_555
C18B C17B 1_555 1_555
C19B C14B 1_555 1_555
H22B C19B 1_555 1_555
C20B H23B 1_555 1_555
H24B C20B 1_555 1_555
H25B C20B 1_555 1_555
C21B N1B 1_555 1_555
C22B N2B 1_555 1_555
H26B C22B 1_555 1_555
H27B C22B 1_555 1_555
C23B C22B 1_555 1_555
H28B C23B 1_555 1_555
H29B C23B 1_555 1_555
C24B C24 1_555 1_555
H30B C24B 1_555 1_555
H31B C24B 1_555 1_555
Zn1B O1 1_555 1_555
C1B C2B 1_555 1_555
C2B H1B 1_555 1_555
H2B C2B 1_555 1_555
C3B H3B 1_555 1_555
H4B C3B 1_555 1_555
C4B C2B 1_555 1_555
C5B C4B 1_555 1_555
H5B C5B 1_555 1_555
H6B C5B 1_555 1_555
C6B C5B 1_555 1_555
H7B C6B 1_555 1_555
C7B C6B 1_555 1_555
H8B C7B 1_555 1_555
H9B C7B 1_555 1_555
C8B C4B 1_555 1_555
H10B C8B 1_555 1_555
H11B C8B 1_555 1_555
C9B C3B 1_555 1_555
C10B C9B 1_555 1_555
H12B C10B 1_555 1_555
H13B C10B 1_555 1_555
C11B C9B 1_555 1_555
H14B C11B 1_555 1_555
H15B C11B 1_555 1_555
C12B C8B 1_555 1_555
H16B C12B 1_555 1_555
C13B C6B 1_555 1_555
H17B C13B 1_555 1_555
H18B C13B 1_555 1_555
C25B C10B 1_555 1_555
O1B Zn1 1_555 1_555
O2B Zn1 1_555 1_555
O3B C1B 1_555 1_555
O4B Zn1B 1_555 1_555
Zn1_2 O3B 1_555 1_555
Zn1B_2 N1B 1_555 1_555
Zn1B_3 O3 1_555 1_555
N1B_2 Zn1B 1_555 1_555
O3_2 Zn1B 1_555 1_555
O3B_2 Zn1 1_555 1_555
N2 C21 1_555 1_555
C1 O4 1_555 1_555
C3 C4 1_555 1_555
C7 C9 1_555 1_555
C11 C12 1_555 1_555
C12 C13 1_555 1_555
C18 C19 1_555 1_555
C20 C21 1_555 1_555
O2 Zn1B 1_555 1_555
N2B C21B 1_555 1_555
C18B C19B 1_555 1_555
C20B C21B 1_555 1_555
C23B C24B 1_555 1_555
C1B O4B 1_555 1_555
C3B C4B 1_555 1_555
C7B C9B 1_555 1_555
C11B C12B 1_555 1_555
C12B C13B 1_555 1_555
C25B O1B 1_555 1_555
C25B O2B 1_555 1_555

#END
