
#######################################################################
#
#                 Cambridge Crystallographic Data Centre
#                                CCDC 
#
#######################################################################
#
# If this CIF has been generated from an entry in the Cambridge 
# Structural Database, then it will include bibliographic, chemical, 
# crystal, experimental, refinement or atomic coordinate data resulting 
# from the CCDC's data processing and validation procedures.
#
#######################################################################

data_CIHKIP
_symmetry_cell_setting           orthorhombic
_symmetry_space_group_name_H-M   'P n a 21'
_symmetry_Int_Tables_number      33
_space_group_name_Hall           'P 2c -2n'
loop_
_symmetry_equiv_pos_site_id
_symmetry_equiv_pos_as_xyz
1 x,y,z
2 -x,-y,1/2+z
3 1/2+x,1/2-y,z
4 1/2-x,1/2+y,1/2+z
_cell_length_a                   19.072(4)
_cell_length_b                   17.965(4)
_cell_length_c                   19.204(4)
_cell_angle_alpha                90
_cell_angle_beta                 90
_cell_angle_gamma                90
_cell_volume                     6579.84
loop_
_atom_site_label
_atom_site_type_symbol
_atom_site_fract_x
_atom_site_fract_y
_atom_site_fract_z
Cd1 Cd 0.22206(4) 0.67024(4) 0.08138(4)
Cd2 Cd 0.29744(4) 0.17561(4) 0.04912(4)
N1 N 0.5883(4) 0.8508(4) 0.5250(4)
N2 N 0.2635(7) 0.2215(6) 0.2736(6)
N3 N 0.4793(5) 0.8314(5) 0.4891(5)
N4 N 0.1753(5) 0.6471(5) 0.1899(4)
N5 N 0.1693(4) 0.6030(5) 0.2983(4)
N6 N 0.3021(5) 0.1952(5) 0.1674(5)
N7 N 0.3380(5) 0.6464(5) 0.1087(5)
N8 N 0.4508(5) 0.6582(6) 0.1371(5)
C1 C 0.5391(6) 0.7991(6) 0.5124(6)
C2 C 0.5599(4) 0.9205(5) 0.5077(5)
C3 C 0.5879(7) 0.9905(6) 0.5109(7)
H1 H 0.6335 0.9981 0.5264
C4 C 0.2242(5) 0.5670(6) -0.0189(6)
C5 C 0.2366(5) 0.4998(6) -0.0636(5)
C6 C 0.4356(7) 0.5845(8) 0.1465(6)
C7 C 0.4744(9) 0.5234(8) 0.1645(7)
H2 H 0.5217 0.5282 0.1755
C8 C 0.4428(10) 0.4555(9) 0.1663(9)
H3 H 0.4686 0.4131 0.1768
C9 C 0.2420(5) 0.5047(6) -0.1357(5)
H4 H 0.2344 0.5504 -0.1570
C10 C 0.2579(5) 0.4445(5) -0.1762(5)
C11 C 0.2689(6) 0.3757(7) -0.1417(5)
H5 H 0.2813 0.3341 -0.1677
C12 C 0.2619(5) 0.3693(5) -0.0722(5)
C13 C 0.5467(7) 0.7187(6) 0.5255(8)
H6 H 0.5543 0.6933 0.4822
H7 H 0.5047 0.7001 0.5470
H8 H 0.5858 0.7104 0.5559
C14 C 0.2614(10) 0.4513(11) -0.2552(7)
C15 C 0.1610(4) 0.7971(5) 0.0351(5)
C16 C 0.2458(5) 0.4308(5) -0.0324(5)
H9 H 0.2410 0.4260 0.0156
C17 C 0.2070(6) 0.6395(6) 0.2518(5)
C18 C 0.4152(6) 0.7940(8) 0.4633(7)
H10 H 0.3743 0.8198 0.4812
H11 H 0.4140 0.7434 0.4808
C19 C 0.5463(7) 1.0496(7) 0.4903(7)
H12 H 0.5632 1.0981 0.4919
C20 C 0.5184(7) 0.6894(9) 0.1600(7)
H13 H 0.5254 0.7373 0.1378
H14 H 0.5560 0.6566 0.1451
C21 C 0.5222(7) 0.6990(9) 0.2381(7)
H15 H 0.5210 0.6499 0.2590
H16 H 0.5674 0.7206 0.2492
C22 C 0.2761(5) 0.2957(6) -0.0366(6)
C23 C 0.1352(4) 0.8715(5) 0.0115(5)
C24 C 0.0724(4) 0.8772(5) -0.0215(5)
H17 H 0.0461 0.8346 -0.0296
C25 C 0.1760(5) 0.9355(5) 0.0247(5)
H18 H 0.2198 0.9316 0.0457
C26 C 0.1495(5) 1.0034(5) 0.0059(5)
C27 C 0.0867(5) 1.0087(6) -0.0291(6)
H19 H 0.0708 1.0552 -0.0431
C28 C 0.1078(6) 0.5821(7) 0.2666(6)
C29 C 0.1913(7) 0.5790(7) 0.3689(5)
H20 H 0.1560 0.5938 0.4024
H21 H 0.2348 0.6037 0.3811
C30 C 0.0467(5) 0.9467(6) -0.0438(5)
C31 C -0.0226(6) 0.9510(7) -0.0862(6)
C32 C 0.1936(6) 1.0721(6) 0.0195(6)
C33 C 0.3651(7) 0.5772(6) 0.1301(6)
C34 C 0.3911(6) 0.6934(7) 0.1138(7)
C35 C 0.3902(7) 0.7742(7) 0.0967(8)
H22 H 0.3912 0.7805 0.0470
H23 H 0.4305 0.7978 0.1169
H24 H 0.3484 0.7964 0.1151
C36 C 0.4673(7) 0.7451(8) 0.2725(8)
H25 H 0.4217 0.7262 0.2589
H26 H 0.4711 0.7956 0.2552
C37 C 0.4912(6) 0.9062(5) 0.4855(6)
C38 C 0.4761(9) 1.0343(8) 0.4663(8)
H27 H 0.4486 1.0742 0.4519
C39 C 0.3581(7) 0.1911(6) 0.2128(6)
C40 C 0.4280(8) 0.1723(7) 0.2034(7)
H28 H 0.4451 0.1602 0.1595
C41 C 0.2468(7) 0.2132(7) 0.2035(7)
C42 C 0.2018(7) 0.4945(7) 0.3724(7)
H29 H 0.2186 0.4815 0.4185
H30 H 0.1568 0.4704 0.3659
C43 C 0.2524(10) 0.4649(8) 0.3192(11)
H31 H 0.2976 0.4890 0.3247
H32 H 0.2353 0.4756 0.2727
C44 C 0.2606(10) 0.3791(9) 0.3289(11)
H33 H 0.2915 0.3615 0.2922
H34 H 0.2850 0.3712 0.3726
C45 C 0.2039(11) 0.3344(10) 0.3291(14)
H35 H 0.1753 0.3475 0.2891
H36 H 0.1766 0.3461 0.3703
C46 C 0.2152(10) 0.2473(9) 0.3275(8)
H37 H 0.2329 0.2315 0.3725
H38 H 0.1701 0.2234 0.3205
C47 C 0.3339(8) 0.2065(7) 0.2793(6)
C48 C 0.3759(10) 0.2063(8) 0.3384(7)
H39 H 0.3576 0.2157 0.3824
C49 C 0.4446(11) 0.1919(9) 0.3288(7)
H40 H 0.4747 0.1949 0.3667
C50 C 0.4726(10) 0.1721(9) 0.2624(9)
H41 H 0.5197 0.1591 0.2579
C51 C 0.4478(6) 0.9638(7) 0.4634(6)
H42 H 0.4023 0.9553 0.4477
C52 C 0.4119(6) 0.7925(8) 0.3853(7)
H43 H 0.4140 0.8432 0.3681
H44 H 0.3670 0.7719 0.3713
C53 C 0.3136(13) 0.5097(14) -0.2736(10)
H45 H 0.3079 0.5516 -0.2431
H46 H 0.3063 0.5253 -0.3209
H47 H 0.3601 0.4900 -0.2687
C54 C -0.0086(9) 0.944(2) -0.1548(9)
H48 H 0.0023 0.8935 -0.1654
H49 H 0.0306 0.9754 -0.1666
H50 H -0.0488 0.9596 -0.1813
C55 C -0.0595(11) 1.0228(10) -0.0755(19)
H51 H -0.0277 1.0583 -0.0554
H52 H -0.0985 1.0155 -0.0447
H53 H -0.0761 1.0412 -0.1194
C56 C 0.1127(5) 0.6073(6) 0.1980(5)
C57 C 0.0567(7) 0.5961(7) 0.1506(7)
H54 H 0.0583 0.6149 0.1055
C58 C 0.0027(7) 0.5583(9) 0.1728(9)
H55 H -0.0331 0.5474 0.1415
C59 C -0.0042(8) 0.5324(9) 0.2439(8)
H56 H -0.0447 0.5081 0.2583
C60 C 0.0499(6) 0.5442(7) 0.2901(7)
H57 H 0.0474 0.5270 0.3357
C61 C 0.3328(8) 0.5086(7) 0.1323(7)
H58 H 0.2858 0.5031 0.1203
C62 C 0.3713(10) 0.4502(8) 0.1521(9)
H59 H 0.3496 0.4041 0.1566
C63 C 0.4706(6) 0.7472(8) 0.3509(7)
H60 H 0.5154 0.7681 0.3647
H61 H 0.4686 0.6966 0.3684
C64 C -0.0713(9) 0.8893(11) -0.0719(15)
H62 H -0.0885 0.8696 -0.1151
H63 H -0.1100 0.9072 -0.0446
H64 H -0.0473 0.8509 -0.0467
C65 C 0.1916(12) 0.4825(15) -0.2844(11)
H65 H 0.1575 0.4432 -0.2867
H66 H 0.1993 0.5022 -0.3302
H67 H 0.1748 0.5213 -0.2544
C66 C 0.2978(13) 0.3877(14) -0.2861(10)
H68 H 0.3474 0.3934 -0.2798
H69 H 0.2873 0.3853 -0.3350
H70 H 0.2825 0.3427 -0.2639
C67 C 0.1741(8) 0.2217(9) 0.1769(8)
H71 H 0.1697 0.2686 0.1532
H72 H 0.1418 0.2202 0.2153
H73 H 0.1637 0.1820 0.1452
O1 O 0.2411(4) 0.6294(4) -0.0408(4)
O2 O 0.1969(4) 0.5547(4) 0.0414(5)
O3 O 0.1224(4) 0.7413(4) 0.0351(5)
O4 O 0.2240(4) 0.7942(4) 0.0575(5)
C68 C 0.2774(7) 0.6745(8) 0.2668(7)
H74 H 0.2728 0.7090 0.3046
H75 H 0.2937 0.7002 0.2261
H76 H 0.3104 0.6363 0.2792
O5 O 0.2686(5) 0.2938(4) 0.0286(4)
O6 O 0.2943(5) 0.2398(4) -0.0704(4)
O7 O 0.2543(4) 1.0638(4) 0.0391(4)
O8 O 0.1678(5) 1.1342(5) 0.0124(6)
Cd2_2 Cd 0.29744(4) 1.17561(4) 0.04912(4)
Cd2A Cd 0.70256(4) 0.82439(4) 0.54912(4)
N1A N 0.4117(4) 0.1492(4) 0.0250(4)
O7_2 O 0.2543(4) 0.0638(4) 0.0391(4)
O8_2 O 0.1678(5) 0.1342(5) 0.0124(6)
loop_
_geom_bond_atom_site_label_1
_geom_bond_atom_site_label_2
_geom_bond_site_symmetry_1
_geom_bond_site_symmetry_2
Cd1 N4 1_555 1_555
Cd2 N6 1_555 1_555
N1 C1 1_555 1_555
N2 C41 1_555 1_555
N3 C1 1_555 1_555
N4 C17 1_555 1_555
N5 C17 1_555 1_555
N6 C39 1_555 1_555
N7 Cd1 1_555 1_555
N8 C6 1_555 1_555
C1 C13 1_555 1_555
C2 N1 1_555 1_555
C3 C2 1_555 1_555
H1 C3 1_555 1_555
C4 C5 1_555 1_555
C5 C9 1_555 1_555
C6 C7 1_555 1_555
C7 H2 1_555 1_555
C8 C7 1_555 1_555
H3 C8 1_555 1_555
C9 H4 1_555 1_555
C10 C9 1_555 1_555
C11 C10 1_555 1_555
H5 C11 1_555 1_555
C12 C11 1_555 1_555
C13 H6 1_555 1_555
H7 C13 1_555 1_555
H8 C13 1_555 1_555
C14 C10 1_555 1_555
C15 C23 1_555 1_555
C16 C5 1_555 1_555
H9 C16 1_555 1_555
C17 C68 1_555 1_555
C18 N3 1_555 1_555
H10 C18 1_555 1_555
H11 C18 1_555 1_555
C19 C3 1_555 1_555
H12 C19 1_555 1_555
C20 N8 1_555 1_555
H13 C20 1_555 1_555
H14 C20 1_555 1_555
C21 C20 1_555 1_555
H15 C21 1_555 1_555
H16 C21 1_555 1_555
C22 C12 1_555 1_555
C23 C24 1_555 1_555
C24 H17 1_555 1_555
C25 C23 1_555 1_555
H18 C25 1_555 1_555
C26 C25 1_555 1_555
C27 C26 1_555 1_555
H19 C27 1_555 1_555
C28 N5 1_555 1_555
C29 N5 1_555 1_555
H20 C29 1_555 1_555
H21 C29 1_555 1_555
C30 C24 1_555 1_555
C31 C30 1_555 1_555
C32 C26 1_555 1_555
C33 N7 1_555 1_555
C34 N7 1_555 1_555
C35 C34 1_555 1_555
H22 C35 1_555 1_555
H23 C35 1_555 1_555
H24 C35 1_555 1_555
C36 C21 1_555 1_555
H25 C36 1_555 1_555
H26 C36 1_555 1_555
C37 N3 1_555 1_555
C38 C19 1_555 1_555
H27 C38 1_555 1_555
C39 C40 1_555 1_555
C40 H28 1_555 1_555
C41 N6 1_555 1_555
C42 C29 1_555 1_555
H29 C42 1_555 1_555
H30 C42 1_555 1_555
C43 C42 1_555 1_555
H31 C43 1_555 1_555
H32 C43 1_555 1_555
C44 C43 1_555 1_555
H33 C44 1_555 1_555
H34 C44 1_555 1_555
C45 C44 1_555 1_555
H35 C45 1_555 1_555
H36 C45 1_555 1_555
C46 N2 1_555 1_555
H37 C46 1_555 1_555
H38 C46 1_555 1_555
C47 N2 1_555 1_555
C48 C47 1_555 1_555
H39 C48 1_555 1_555
C49 C48 1_555 1_555
H40 C49 1_555 1_555
C50 C40 1_555 1_555
H41 C50 1_555 1_555
C51 C37 1_555 1_555
H42 C51 1_555 1_555
C52 C18 1_555 1_555
H43 C52 1_555 1_555
H44 C52 1_555 1_555
C53 C14 1_555 1_555
H45 C53 1_555 1_555
H46 C53 1_555 1_555
H47 C53 1_555 1_555
C54 C31 1_555 1_555
H48 C54 1_555 1_555
H49 C54 1_555 1_555
H50 C54 1_555 1_555
C55 C31 1_555 1_555
H51 C55 1_555 1_555
H52 C55 1_555 1_555
H53 C55 1_555 1_555
C56 N4 1_555 1_555
C57 C56 1_555 1_555
H54 C57 1_555 1_555
C58 C57 1_555 1_555
H55 C58 1_555 1_555
C59 C58 1_555 1_555
H56 C59 1_555 1_555
C60 C28 1_555 1_555
H57 C60 1_555 1_555
C61 C33 1_555 1_555
H58 C61 1_555 1_555
C62 C8 1_555 1_555
H59 C62 1_555 1_555
C63 C36 1_555 1_555
H60 C63 1_555 1_555
H61 C63 1_555 1_555
C64 C31 1_555 1_555
H62 C64 1_555 1_555
H63 C64 1_555 1_555
H64 C64 1_555 1_555
C65 C14 1_555 1_555
H65 C65 1_555 1_555
H66 C65 1_555 1_555
H67 C65 1_555 1_555
C66 C14 1_555 1_555
H68 C66 1_555 1_555
H69 C66 1_555 1_555
H70 C66 1_555 1_555
C67 C41 1_555 1_555
H71 C67 1_555 1_555
H72 C67 1_555 1_555
H73 C67 1_555 1_555
O1 Cd1 1_555 1_555
O2 Cd1 1_555 1_555
O3 Cd1 1_555 1_555
O4 Cd1 1_555 1_555
C68 H74 1_555 1_555
H75 C68 1_555 1_555
H76 C68 1_555 1_555
O5 Cd2 1_555 1_555
O6 Cd2 1_555 1_555
O7 C32 1_555 1_555
O8 C32 1_555 1_555
Cd2_2 O7 1_555 1_555
Cd2A N1 1_555 1_555
N1A Cd2 1_555 1_555
O7_2 Cd2 1_555 1_555
O8_2 Cd2 1_555 1_555
N8 C34 1_555 1_555
C2 C37 1_555 1_555
C4 O1 1_555 1_555
C4 O2 1_555 1_555
C6 C33 1_555 1_555
C12 C16 1_555 1_555
C15 O3 1_555 1_555
C15 O4 1_555 1_555
C22 O5 1_555 1_555
C22 O6 1_555 1_555
C27 C30 1_555 1_555
C28 C56 1_555 1_555
C38 C51 1_555 1_555
C39 C47 1_555 1_555
C45 C46 1_555 1_555
C49 C50 1_555 1_555
C52 C63 1_555 1_555
C59 C60 1_555 1_555
C61 C62 1_555 1_555
O8 Cd2_2 1_555 1_555

#END
