
#######################################################################
#
#                 Cambridge Crystallographic Data Centre
#                                CCDC 
#
#######################################################################
#
# If this CIF has been generated from an entry in the Cambridge 
# Structural Database, then it will include bibliographic, chemical, 
# crystal, experimental, refinement or atomic coordinate data resulting 
# from the CCDC's data processing and validation procedures.
#
#######################################################################

data_CIHLUC
_symmetry_cell_setting           triclinic
_symmetry_space_group_name_H-M   'P -1'
_symmetry_Int_Tables_number      2
_space_group_name_Hall           '-P 1'
loop_
_symmetry_equiv_pos_site_id
_symmetry_equiv_pos_as_xyz
1 x,y,z
2 -x,-y,-z
_cell_length_a                   9.9436(13)
_cell_length_b                   10.0660(14)
_cell_length_c                   11.3028(15)
_cell_angle_alpha                110.062(2)
_cell_angle_beta                 108.237(2)
_cell_angle_gamma                91.260(2)
_cell_volume                     998.635
loop_
_atom_site_label
_atom_site_type_symbol
_atom_site_fract_x
_atom_site_fract_y
_atom_site_fract_z
Cu1 Cu 0.24705(6) 0.13110(6) 0.04477(6)
P1 P 0.31786(12) 0.41617(14) 0.34623(12)
P2 P 0.06563(12) -0.01222(14) 0.16699(12)
O1 O -0.0657(3) -0.1253(3) 0.0932(3)
O2 O 0.1682(3) -0.0147(3) 0.0915(3)
O3 O 0.2138(3) 0.3114(3) 0.2149(3)
O4 O 0.0164(3) 0.1382(3) 0.2129(3)
H1 H 0.0759 0.1991 0.2173
O5 O 0.4470(3) 0.4767(4) 0.3224(3)
H2 H 0.5120 0.5154 0.3943
O6 O 0.3662(3) 0.3496(3) 0.4537(3)
N1 N 0.3553(4) 0.2366(4) -0.0261(4)
N2 N 0.4471(4) 0.1152(4) 0.1472(4)
C1 C 0.2986(5) 0.2938(5) -0.1182(5)
H3 H 0.2002 0.2942 -0.1473
C2 C 0.3804(5) 0.3520(5) -0.1716(5)
H4 H 0.3376 0.3915 -0.2351
C3 C 0.5261(5) 0.3513(5) -0.1302(5)
H5 H 0.5826 0.3887 -0.1664
C4 C 0.5868(5) 0.2945(5) -0.0348(5)
H6 H 0.6852 0.2951 -0.0039
C5 C 0.4996(5) 0.2364(5) 0.0147(4)
C6 C 0.5517(5) 0.1695(5) 0.1158(4)
C7 C 0.6943(5) 0.1583(5) 0.1732(5)
H7 H 0.7645 0.1919 0.1479
C8 C 0.7304(5) 0.0963(5) 0.2686(5)
H8 H 0.8255 0.0889 0.3092
C9 C 0.6245(5) 0.0456(5) 0.3029(5)
H9 H 0.6472 0.0053 0.3682
C10 C 0.4839(5) 0.0552(5) 0.2391(4)
H10 H 0.4123 0.0187 0.2611
C11 C 0.1646(5) -0.0375(6) 0.3199(4)
H11 H 0.1915 -0.1328 0.2972
H12 H 0.2520 0.0305 0.3652
C12 C 0.0814(5) -0.0192(5) 0.4152(4)
C13 C -0.0014(4) -0.1354(5) 0.4122(4)
H13 H -0.0028 -0.2267 0.3529
C14 C -0.0815(5) -0.1164(5) 0.4964(4)
H14 H -0.1354 -0.1950 0.4935
C15 C 0.2301(5) 0.5666(5) 0.4104(5)
H15 H 0.3013 0.6403 0.4855
H16 H 0.1920 0.6055 0.3411
C16 C 0.1092(5) 0.5325(5) 0.4560(5)
C17 C 0.1403(5) 0.5341(5) 0.5850(5)
H17 H 0.2349 0.5560 0.6425
C18 C 0.0335(5) 0.5037(5) 0.6293(5)
H18 H 0.0565 0.5074 0.7167
P1A P -0.31786(12) 0.58383(14) 0.65377(12)
O3A O -0.2138(3) 0.6886(3) 0.7851(3)
O5A O -0.4470(3) 0.5233(4) 0.6776(3)
H2A H -0.5120 0.4846 0.6057
O6A O -0.3662(3) 0.6504(3) 0.5463(3)
C15A C -0.2301(5) 0.4334(5) 0.5896(5)
H15A H -0.3013 0.3597 0.5145
H16A H -0.1920 0.3945 0.6589
C16A C -0.1092(5) 0.4675(5) 0.5440(5)
C17A C -0.1403(5) 0.4659(5) 0.4150(5)
H17A H -0.2349 0.4440 0.3575
C18A C -0.0335(5) 0.4963(5) 0.3707(5)
H18A H -0.0565 0.4926 0.2833
P2A P -0.06563(12) 0.01222(14) 0.83301(12)
O2A O -0.1682(3) 0.0147(3) 0.9085(3)
O4A O -0.0164(3) -0.1382(3) 0.7871(3)
H1A H -0.0759 -0.1991 0.7827
C11A C -0.1646(5) 0.0375(6) 0.6801(4)
H11A H -0.1915 0.1328 0.7028
H12A H -0.2520 -0.0305 0.6348
C12A C -0.0814(5) 0.0192(5) 0.5848(4)
C13A C 0.0014(4) 0.1354(5) 0.5878(4)
H13A H 0.0028 0.2267 0.6471
C14A C 0.0815(5) 0.1164(5) 0.5036(4)
H14A H 0.1354 0.1950 0.5065
O1A O 0.0657(3) 0.1253(3) 0.9068(3)
Cu1A Cu -0.24705(6) -0.13110(6) -0.04477(6)
N1A N -0.3553(4) -0.2366(4) 0.0261(4)
N2A N -0.4471(4) -0.1152(4) -0.1472(4)
C1A C -0.2986(5) -0.2938(5) 0.1182(5)
H3A H -0.2002 -0.2942 0.1473
C2A C -0.3804(5) -0.3520(5) 0.1716(5)
H4A H -0.3376 -0.3915 0.2351
C3A C -0.5261(5) -0.3513(5) 0.1302(5)
H5A H -0.5826 -0.3887 0.1664
C4A C -0.5868(5) -0.2945(5) 0.0348(5)
H6A H -0.6852 -0.2951 0.0039
C5A C -0.4996(5) -0.2364(5) -0.0147(4)
C6A C -0.5517(5) -0.1695(5) -0.1158(4)
C7A C -0.6943(5) -0.1583(5) -0.1732(5)
H7A H -0.7645 -0.1919 -0.1479
C8A C -0.7304(5) -0.0963(5) -0.2686(5)
H8A H -0.8255 -0.0889 -0.3092
C9A C -0.6245(5) -0.0456(5) -0.3029(5)
H9A H -0.6472 -0.0053 -0.3682
C10A C -0.4839(5) -0.0552(5) -0.2391(4)
H10A H -0.4123 -0.0187 -0.2611
Cu1_2 Cu 0.24705(6) 0.13110(6) 1.04477(6)
Cu1A_2 Cu -0.24705(6) -0.13110(6) 0.95523(6)
Cu1A_3 Cu -0.24705(6) 0.86890(6) 0.95523(6)
O1A_2 O 0.0657(3) 0.1253(3) -0.0932(3)
O2A_2 O -0.1682(3) 0.0147(3) -0.0915(3)
O3A_2 O -0.2138(3) -0.3114(3) -0.2149(3)
O7 O 0.5006(12) 0.8459(11) 0.4407(13)
H19 H 0.436(12) 0.766(9) 0.386(12)
H20 H 0.563(12) 0.807(13) 0.495(14)
O8 O 0.0449(7) 0.6111(6) 0.9654(5)
H21 H 0.089(7) 0.617(8) 0.915(5)
H22 H 0.083(8) 0.668(7) 1.046(3)
loop_
_geom_bond_atom_site_label_1
_geom_bond_atom_site_label_2
_geom_bond_site_symmetry_1
_geom_bond_site_symmetry_2
Cu1 O2 1_555 1_555
P1 O3 1_555 1_555
P2 O1 1_555 1_555
O1 Cu1A 1_555 1_555
O2 P2 1_555 1_555
O3 Cu1 1_555 1_555
O4 P2 1_555 1_555
H1 O4 1_555 1_555
O5 P1 1_555 1_555
H2 O5 1_555 1_555
O6 P1 1_555 1_555
N1 Cu1 1_555 1_555
N2 Cu1 1_555 1_555
C1 N1 1_555 1_555
H3 C1 1_555 1_555
C2 C1 1_555 1_555
H4 C2 1_555 1_555
C3 C2 1_555 1_555
H5 C3 1_555 1_555
C4 C3 1_555 1_555
H6 C4 1_555 1_555
C5 N1 1_555 1_555
C6 N2 1_555 1_555
C7 C6 1_555 1_555
H7 C7 1_555 1_555
C8 C7 1_555 1_555
H8 C8 1_555 1_555
C9 C8 1_555 1_555
H9 C9 1_555 1_555
C10 N2 1_555 1_555
H10 C10 1_555 1_555
C11 P2 1_555 1_555
H11 C11 1_555 1_555
H12 C11 1_555 1_555
C12 C11 1_555 1_555
C13 C12 1_555 1_555
H13 C13 1_555 1_555
C14 C13 1_555 1_555
H14 C14 1_555 1_555
C15 P1 1_555 1_555
H15 C15 1_555 1_555
H16 C15 1_555 1_555
C16 C15 1_555 1_555
C17 C16 1_555 1_555
H17 C17 1_555 1_555
C18 C17 1_555 1_555
H18 C18 1_555 1_555
O7 H19 1_555 1_555
H20 O7 1_555 1_555
O8 H21 1_555 1_555
H22 O8 1_555 1_555
P1A O3A 1_555 1_555
O3A Cu1A_3 1_555 1_555
O5A P1A 1_555 1_555
H2A O5A 1_555 1_555
O6A P1A 1_555 1_555
C15A P1A 1_555 1_555
H15A C15A 1_555 1_555
H16A C15A 1_555 1_555
C16A C18 1_555 1_555
C17A C16A 1_555 1_555
H17A C17A 1_555 1_555
C18A C16 1_555 1_555
H18A C18A 1_555 1_555
P2A O2A 1_555 1_555
O2A Cu1A_2 1_555 1_555
O4A P2A 1_555 1_555
H1A O4A 1_555 1_555
C11A P2A 1_555 1_555
H11A C11A 1_555 1_555
H12A C11A 1_555 1_555
C12A C14 1_555 1_555
C13A C12A 1_555 1_555
H13A C13A 1_555 1_555
C14A C12 1_555 1_555
H14A C14A 1_555 1_555
O1A P2A 1_555 1_555
Cu1A N1A 1_555 1_555
N1A C1A 1_555 1_555
N2A Cu1A 1_555 1_555
C1A H3A 1_555 1_555
C2A C1A 1_555 1_555
H4A C2A 1_555 1_555
C3A C2A 1_555 1_555
H5A C3A 1_555 1_555
C4A C3A 1_555 1_555
H6A C4A 1_555 1_555
C5A N1A 1_555 1_555
C6A N2A 1_555 1_555
C7A C6A 1_555 1_555
H7A C7A 1_555 1_555
C8A C7A 1_555 1_555
H8A C8A 1_555 1_555
C9A C8A 1_555 1_555
H9A C9A 1_555 1_555
C10A N2A 1_555 1_555
H10A C10A 1_555 1_555
Cu1_2 O1A 1_555 1_555
O1A_2 Cu1 1_555 1_555
O2A_2 Cu1A 1_555 1_555
O3A_2 Cu1A 1_555 1_555
C4 C5 1_555 1_555
C5 C6 1_555 1_555
C9 C10 1_555 1_555
C15A C16A 1_555 1_555
C17A C18A 1_555 1_555
C11A C12A 1_555 1_555
C13A C14A 1_555 1_555
C4A C5A 1_555 1_555
C5A C6A 1_555 1_555
C9A C10A 1_555 1_555

#END
