
#######################################################################
#
#                 Cambridge Crystallographic Data Centre
#                                CCDC 
#
#######################################################################
#
# If this CIF has been generated from an entry in the Cambridge 
# Structural Database, then it will include bibliographic, chemical, 
# crystal, experimental, refinement or atomic coordinate data resulting 
# from the CCDC's data processing and validation procedures.
#
#######################################################################

data_CIHLIQ
_symmetry_cell_setting           triclinic
_symmetry_space_group_name_H-M   'P -1'
_symmetry_Int_Tables_number      2
_space_group_name_Hall           '-P 1'
loop_
_symmetry_equiv_pos_site_id
_symmetry_equiv_pos_as_xyz
1 x,y,z
2 -x,-y,-z
_cell_length_a                   10.7313(16)
_cell_length_b                   11.4004(16)
_cell_length_c                   14.482(2)
_cell_angle_alpha                78.920(2)
_cell_angle_beta                 78.942(2)
_cell_angle_gamma                75.774(2)
_cell_volume                     1665.82
loop_
_atom_site_label
_atom_site_type_symbol
_atom_site_fract_x
_atom_site_fract_y
_atom_site_fract_z
Cu1 Cu 0.47799(3) 0.48220(2) 0.282209(18)
P1 P 0.33463(5) 0.59730(5) 0.10872(4)
P2 P -0.06585(5) 0.11608(5) 0.31707(4)
P3 P 0.21714(5) 0.75235(5) 0.39417(4)
O1 O 0.66418(15) 0.35239(14) 0.23640(11)
H1 H 0.6498 0.3065 0.2026
H2 H 0.7073 0.3148 0.2749
O2 O 0.42969(15) 0.49616(14) 0.16008(10)
O3 O 0.28901(15) 0.66162(15) 0.32786(11)
O4 O 0.27902(15) 0.70822(15) 0.48838(11)
H3 H 0.2297 0.7422 0.5327
O5 O 0.22341(15) 0.88376(14) 0.35245(12)
O6 O 0.39685(15) 0.70250(14) 0.05456(11)
O7 O 0.21159(15) 0.64583(15) 0.17974(11)
H4 H 0.2344 0.6517 0.2307
O8 O 0.05026(15) 0.07379(14) 0.37302(12)
H5 H 0.0960 0.0073 0.3576
O9 O -0.15673(15) 0.22698(14) 0.35115(11)
O10 O -0.12971(16) 0.00340(14) 0.32953(11)
H6 H -0.1830 0.0173 0.2911
N1 N 0.59583(17) 0.60532(16) 0.25678(13)
N2 N 0.50597(17) 0.48000(16) 0.41222(13)
N3 N 0.61301(18) 0.65252(17) 0.64734(13)
C1 C 0.6599(2) 0.6394(2) 0.17105(15)
H7 H 0.6223 0.6427 0.1161
C2 C 0.7796(2) 0.6701(2) 0.15982(16)
H8 H 0.8234 0.6938 0.0981
C3 C 0.8344(2) 0.6658(2) 0.23981(17)
H9 H 0.9183 0.6826 0.2335
C4 C 0.7654(2) 0.6365(2) 0.32928(16)
H10 H 0.7995 0.6360 0.3852
C5 C 0.6456(2) 0.60816(19) 0.33512(15)
C6 C 0.5699(2) 0.56078(19) 0.42496(15)
C7 C 0.5619(2) 0.58450(19) 0.51780(15)
C8 C 0.6102(2) 0.6772(2) 0.55197(15)
C9 C 0.6368(2) 0.7850(2) 0.49813(17)
H11 H 0.6312 0.8023 0.4320
C10 C 0.6719(2) 0.8678(2) 0.54267(18)
H12 H 0.6921 0.9417 0.5070
C11 C 0.6768(2) 0.8409(2) 0.63942(18)
H13 H 0.7009 0.8958 0.6710
C12 C 0.6459(2) 0.7326(2) 0.68965(17)
H14 H 0.6481 0.7147 0.7562
C13 C 0.2751(2) 0.5334(2) 0.02595(15)
H15 H 0.2156 0.5998 -0.0093
H16 H 0.3495 0.5007 -0.0209
C14 C 0.2039(2) 0.4323(2) 0.07154(15)
C15 C 0.2675(2) 0.3094(2) 0.08320(15)
H17 H 0.3586 0.2873 0.0630
C16 C 0.1989(2) 0.2187(2) 0.12414(15)
H18 H 0.2443 0.1355 0.1315
C17 C 0.0654(2) 0.2469(2) 0.15458(15)
C18 C 0.0021(2) 0.3703(2) 0.14483(16)
H19 H -0.0886 0.3926 0.1665
C19 C 0.0709(2) 0.4608(2) 0.10363(16)
H20 H 0.0259 0.5441 0.0972
C20 C -0.0085(2) 0.1456(2) 0.19132(16)
H21 H 0.0484 0.0687 0.1724
H22 H -0.0848 0.1642 0.1577
C21 C 0.0480(2) 0.7445(2) 0.42407(16)
H23 H 0.0052 0.7992 0.4718
H24 H 0.0061 0.7758 0.3663
C22 C 0.0246(2) 0.6176(2) 0.46320(16)
C23 C 0.0550(2) 0.5255(2) 0.40592(16)
H25 H 0.0933 0.5421 0.3413
C24 C 0.0299(2) 0.4101(2) 0.44217(16)
H26 H 0.0501 0.3493 0.4018
P3A P -0.21714(5) 0.24765(5) 0.60583(4)
O3A O -0.28901(15) 0.33838(15) 0.67214(11)
O4A O -0.27902(15) 0.29178(15) 0.51162(11)
H3A H -0.2297 0.2578 0.4673
O5A O -0.22341(15) 0.11624(14) 0.64755(12)
C21A C -0.0480(2) 0.2555(2) 0.57593(16)
H23A H -0.0052 0.2008 0.5282
H24A H -0.0061 0.2242 0.6337
C22A C -0.0246(2) 0.3824(2) 0.53680(16)
C23A C -0.0550(2) 0.4745(2) 0.59408(16)
H25A H -0.0933 0.4579 0.6587
C24A C -0.0299(2) 0.5899(2) 0.55783(16)
H26A H -0.0501 0.6507 0.5982
N1A N 0.40417(17) 0.39468(16) 0.74322(13)
N2A N 0.49403(17) 0.52000(16) 0.58778(13)
C1A C 0.3401(2) 0.3606(2) 0.82895(15)
H7A H 0.3777 0.3573 0.8839
C2A C 0.2204(2) 0.3299(2) 0.84018(16)
H8A H 0.1766 0.3062 0.9019
C3A C 0.1656(2) 0.3342(2) 0.76019(17)
H9A H 0.0817 0.3174 0.7665
C4A C 0.2346(2) 0.3635(2) 0.67072(16)
H10A H 0.2005 0.3640 0.6148
C5A C 0.3544(2) 0.39184(19) 0.66488(15)
C6A C 0.4301(2) 0.43922(19) 0.57504(15)
C7A C 0.4381(2) 0.41550(19) 0.48220(15)
N3A N 0.38699(18) 0.34748(17) 0.35266(13)
C8A C 0.3898(2) 0.3228(2) 0.44803(15)
C9A C 0.3632(2) 0.2150(2) 0.50187(17)
H11A H 0.3688 0.1977 0.5680
C10A C 0.3281(2) 0.1322(2) 0.45733(18)
H12A H 0.3079 0.0583 0.4930
C11A C 0.3232(2) 0.1591(2) 0.36058(18)
H13A H 0.2991 0.1042 0.3290
C12A C 0.3541(2) 0.2674(2) 0.31035(17)
H14A H 0.3519 0.2853 0.2438
Cu1A Cu -0.47799(3) 0.51780(2) 0.717791(18)
P1A P -0.33463(5) 0.40270(5) 0.89128(4)
P2A P 0.06585(5) 0.88392(5) 0.68293(4)
O1A O -0.66418(15) 0.64761(14) 0.76360(11)
H1A H -0.6498 0.6935 0.7974
H2A H -0.7073 0.6852 0.7251
O2A O -0.42969(15) 0.50384(14) 0.83992(10)
O6A O -0.39685(15) 0.29750(14) 0.94544(11)
O7A O -0.21159(15) 0.35417(15) 0.82026(11)
H4A H -0.2344 0.3483 0.7693
O8A O -0.05026(15) 0.92621(14) 0.62698(12)
H5A H -0.0960 0.9927 0.6424
O9A O 0.15673(15) 0.77302(14) 0.64885(11)
O10A O 0.12971(16) 0.99660(14) 0.67047(11)
H6A H 0.1830 0.9827 0.7089
C13A C -0.2751(2) 0.4666(2) 0.97405(15)
H15A H -0.2156 0.4002 1.0093
H16A H -0.3495 0.4993 1.0209
C14A C -0.2039(2) 0.5677(2) 0.92846(15)
C15A C -0.2675(2) 0.6906(2) 0.91680(15)
H17A H -0.3586 0.7127 0.9370
C16A C -0.1989(2) 0.7813(2) 0.87586(15)
H18A H -0.2443 0.8645 0.8685
C17A C -0.0654(2) 0.7531(2) 0.84542(15)
C18A C -0.0021(2) 0.6297(2) 0.85517(16)
H19A H 0.0886 0.6074 0.8335
C19A C -0.0709(2) 0.5392(2) 0.89637(16)
H20A H -0.0259 0.4559 0.9028
C20A C 0.0085(2) 0.8544(2) 0.80868(16)
H21A H -0.0484 0.9313 0.8276
H22A H 0.0848 0.8358 0.8423
Cu1A_2 Cu 0.52201(3) 0.51780(2) 0.717791(18)
N1A_2 N -0.59583(17) 0.39468(16) 0.74322(13)
N2A_2 N -0.50597(17) 0.52000(16) 0.58778(13)
N3_2 N -0.38699(18) 0.65252(17) 0.64734(13)
P4 P 0.63895(5) 0.06750(5) 0.14169(4)
O11 O 0.68963(16) 0.01732(15) 0.23268(11)
O12 O 0.64612(16) 0.20422(14) 0.10950(11)
H27 H 0.6272 0.2272 0.0542
O13 O 0.49262(15) 0.06701(15) 0.14562(12)
H28 H 0.4824 -0.0054 0.1589
C25 C 0.7261(2) -0.0140(2) 0.04581(16)
H29 H 0.7198 -0.1009 0.0632
H30 H 0.6842 0.0205 -0.0117
C26 C 0.8677(2) -0.0076(2) 0.02243(16)
C27 C 0.9625(2) -0.0921(2) 0.06814(17)
H31 H 0.9378 -0.1561 0.1153
C28 C 0.9075(2) 0.0851(2) -0.04640(16)
H32 H 0.8448 0.1441 -0.0788
P4A P 1.36105(5) -0.06750(5) -0.14169(4)
O11A O 1.31037(16) -0.01732(15) -0.23268(11)
O12A O 1.35388(16) -0.20422(14) -0.10950(11)
H27A H 1.3728 -0.2272 -0.0542
O13A O 1.50738(15) -0.06701(15) -0.14562(12)
H28A H 1.5176 0.0054 -0.1589
C25A C 1.2739(2) 0.0140(2) -0.04581(16)
H29A H 1.2802 0.1009 -0.0632
H30A H 1.3158 -0.0205 0.0117
C26A C 1.1323(2) 0.0076(2) -0.02243(16)
C27A C 1.0375(2) 0.0921(2) -0.06814(17)
H31A H 1.0622 0.1561 -0.1153
C28A C 1.0925(2) -0.0851(2) 0.04640(16)
H32A H 1.1552 -0.1441 0.0788
O14 O 0.3916(2) 0.88107(18) 0.17559(14)
H33 H 0.345(2) 0.871(2) 0.2286(14)
H34 H 0.399(3) 0.822(2) 0.1472(18)
loop_
_geom_bond_atom_site_label_1
_geom_bond_atom_site_label_2
_geom_bond_site_symmetry_1
_geom_bond_site_symmetry_2
Cu1 O1 1_555 1_555
P1 O2 1_555 1_555
P2 O8 1_555 1_555
P3 O3 1_555 1_555
O1 H1 1_555 1_555
H2 O1 1_555 1_555
O2 Cu1 1_555 1_555
O3 Cu1 1_555 1_555
O4 P3 1_555 1_555
H3 O4 1_555 1_555
O5 P3 1_555 1_555
O6 P1 1_555 1_555
O7 P1 1_555 1_555
H4 O7 1_555 1_555
O8 H5 1_555 1_555
O9 P2 1_555 1_555
O10 P2 1_555 1_555
H6 O10 1_555 1_555
N1 Cu1 1_555 1_555
N2 Cu1 1_555 1_555
N3 C8 1_555 1_555
C1 N1 1_555 1_555
H7 C1 1_555 1_555
C2 C1 1_555 1_555
H8 C2 1_555 1_555
C3 C2 1_555 1_555
H9 C3 1_555 1_555
C4 C3 1_555 1_555
H10 C4 1_555 1_555
C5 N1 1_555 1_555
C6 N2 1_555 1_555
C7 C6 1_555 1_555
C8 C7 1_555 1_555
C9 C8 1_555 1_555
H11 C9 1_555 1_555
C10 C9 1_555 1_555
H12 C10 1_555 1_555
C11 C10 1_555 1_555
H13 C11 1_555 1_555
C12 N3 1_555 1_555
H14 C12 1_555 1_555
C13 P1 1_555 1_555
H15 C13 1_555 1_555
H16 C13 1_555 1_555
C14 C13 1_555 1_555
C15 C14 1_555 1_555
H17 C15 1_555 1_555
C16 C15 1_555 1_555
H18 C16 1_555 1_555
C17 C16 1_555 1_555
C18 C17 1_555 1_555
H19 C18 1_555 1_555
C19 C14 1_555 1_555
H20 C19 1_555 1_555
C20 P2 1_555 1_555
H21 C20 1_555 1_555
H22 C20 1_555 1_555
C21 P3 1_555 1_555
H23 C21 1_555 1_555
H24 C21 1_555 1_555
C22 C21 1_555 1_555
C23 C22 1_555 1_555
H25 C23 1_555 1_555
C24 C23 1_555 1_555
H26 C24 1_555 1_555
P4 O11 1_555 1_555
O12 P4 1_555 1_555
H27 O12 1_555 1_555
O13 P4 1_555 1_555
H28 O13 1_555 1_555
C25 P4 1_555 1_555
H29 C25 1_555 1_555
H30 C25 1_555 1_555
C26 C25 1_555 1_555
C27 C26 1_555 1_555
H31 C27 1_555 1_555
C28 C26 1_555 1_555
H32 C28 1_555 1_555
O14 H33 1_555 1_555
H34 O14 1_555 1_555
P3A O3A 1_555 1_555
O3A Cu1A 1_555 1_555
O4A P3A 1_555 1_555
H3A O4A 1_555 1_555
O5A P3A 1_555 1_555
C21A P3A 1_555 1_555
H23A C21A 1_555 1_555
H24A C21A 1_555 1_555
C22A C24 1_555 1_555
C23A C22A 1_555 1_555
H25A C23A 1_555 1_555
C24A C22 1_555 1_555
H26A C24A 1_555 1_555
N1A C1A 1_555 1_555
N2A C7 1_555 1_555
C1A H7A 1_555 1_555
C2A C1A 1_555 1_555
H8A C2A 1_555 1_555
C3A C2A 1_555 1_555
H9A C3A 1_555 1_555
C4A C3A 1_555 1_555
H10A C4A 1_555 1_555
C5A N1A 1_555 1_555
C6A N2A 1_555 1_555
C7A N2 1_555 1_555
N3A Cu1 1_555 1_555
C8A C7A 1_555 1_555
C9A C8A 1_555 1_555
H11A C9A 1_555 1_555
C10A C9A 1_555 1_555
H12A C10A 1_555 1_555
C11A C10A 1_555 1_555
H13A C11A 1_555 1_555
C12A N3A 1_555 1_555
H14A C12A 1_555 1_555
Cu1A O1A 1_555 1_555
P1A O2A 1_555 1_555
P2A O8A 1_555 1_555
O1A H1A 1_555 1_555
H2A O1A 1_555 1_555
O2A Cu1A 1_555 1_555
O6A P1A 1_555 1_555
O7A P1A 1_555 1_555
H4A O7A 1_555 1_555
O8A H5A 1_555 1_555
O9A P2A 1_555 1_555
O10A P2A 1_555 1_555
H6A O10A 1_555 1_555
C13A P1A 1_555 1_555
H15A C13A 1_555 1_555
H16A C13A 1_555 1_555
C14A C13A 1_555 1_555
C15A C14A 1_555 1_555
H17A C15A 1_555 1_555
C16A C15A 1_555 1_555
H18A C16A 1_555 1_555
C17A C16A 1_555 1_555
C18A C17A 1_555 1_555
H19A C18A 1_555 1_555
C19A C14A 1_555 1_555
H20A C19A 1_555 1_555
C20A P2A 1_555 1_555
H21A C20A 1_555 1_555
H22A C20A 1_555 1_555
Cu1A_2 N3 1_555 1_555
N1A_2 Cu1A 1_555 1_555
N2A_2 Cu1A 1_555 1_555
N3_2 Cu1A 1_555 1_555
P4A O11A 1_555 1_555
O12A P4A 1_555 1_555
H27A O12A 1_555 1_555
O13A P4A 1_555 1_555
H28A O13A 1_555 1_555
C25A P4A 1_555 1_555
H29A C25A 1_555 1_555
H30A C25A 1_555 1_555
C26A C25A 1_555 1_555
C27A C28 1_555 1_555
H31A C27A 1_555 1_555
C28A C27 1_555 1_555
H32A C28A 1_555 1_555
C4 C5 1_555 1_555
C5 C6 1_555 1_555
C11 C12 1_555 1_555
C17 C20 1_555 1_555
C18 C19 1_555 1_555
C21A C22A 1_555 1_555
C23A C24A 1_555 1_555
N1A Cu1A_2 1_555 1_555
N2A Cu1A_2 1_555 1_555
C4A C5A 1_555 1_555
C5A C6A 1_555 1_555
C6A C7A 1_555 1_555
N3A C8A 1_555 1_555
C11A C12A 1_555 1_555
C17A C20A 1_555 1_555
C18A C19A 1_555 1_555
C26A C27A 1_555 1_555
C26A C28A 1_555 1_555

#END
