
#######################################################################
#
#                 Cambridge Crystallographic Data Centre
#                                CCDC 
#
#######################################################################
#
# If this CIF has been generated from an entry in the Cambridge 
# Structural Database, then it will include bibliographic, chemical, 
# crystal, experimental, refinement or atomic coordinate data resulting 
# from the CCDC's data processing and validation procedures.
#
#######################################################################

data_CIHMUD
_symmetry_cell_setting           triclinic
_symmetry_space_group_name_H-M   'P -1'
_symmetry_Int_Tables_number      2
_space_group_name_Hall           '-P 1'
loop_
_symmetry_equiv_pos_site_id
_symmetry_equiv_pos_as_xyz
1 x,y,z
2 -x,-y,-z
_cell_length_a                   6.8782(12)
_cell_length_b                   11.792(2)
_cell_length_c                   11.808(2)
_cell_angle_alpha                116.021(3)
_cell_angle_beta                 93.494(3)
_cell_angle_gamma                95.651(3)
_cell_volume                     850.629
loop_
_atom_site_label
_atom_site_type_symbol
_atom_site_fract_x
_atom_site_fract_y
_atom_site_fract_z
Cu1 Cu 0.65130(9) 0.81049(5) -0.00535(6)
P1 P 0.45801(18) 1.04564(12) 0.17554(11)
O1 O 0.4803(5) 1.1455(3) 0.1259(3)
O2 O 0.9629(6) 0.8478(5) -0.0454(4)
H1 H 0.9828 0.7883 -0.1144
H2 H 1.0565 0.8776 0.0153
O3 O 0.6275(5) 0.9648(3) 0.1441(3)
O4 O 0.2576(5) 0.9682(4) 0.1408(4)
N1 N 0.6415(6) 0.6281(4) -0.1424(4)
N2 N 0.7357(7) 0.7271(4) 0.1039(5)
C1 C 0.6005(9) 0.5822(6) -0.2671(6)
H3 H 0.5648 0.6381 -0.3007
C2 C 0.6076(10) 0.4561(6) -0.3501(7)
H4 H 0.5828 0.4275 -0.4391
C3 C 0.6509(10) 0.3728(6) -0.3030(7)
H5 H 0.6530 0.2857 -0.3594
C4 C 0.6918(8) 0.4154(5) -0.1728(7)
C5 C 0.7393(9) 0.3370(6) -0.1145(8)
H6 H 0.7389 0.2483 -0.1654
C6 C 0.7857(9) 0.3882(7) 0.0142(9)
H7 H 0.8168 0.3344 0.0514
C7 C 0.7882(8) 0.5223(6) 0.0941(7)
C8 C 0.8375(9) 0.5818(7) 0.2267(7)
H8 H 0.8709 0.5331 0.2693
C9 C 0.8369(9) 0.7110(7) 0.2940(7)
H9 H 0.8713 0.7524 0.3834
C10 C 0.7849(8) 0.7809(6) 0.2295(6)
H10 H 0.7847 0.8701 0.2769
C11 C 0.7386(7) 0.6000(5) 0.0385(6)
C12 C 0.6892(7) 0.5464(5) -0.0958(6)
C13 C 0.4956(9) 1.1400(5) 0.3478(5)
H11 H 0.6221 1.1971 0.3706
H12 H 0.3902 1.1948 0.3731
C14 C 0.4978(9) 1.0667(5) 0.4249(5)
C15 C 0.6739(9) 1.0538(5) 0.4802(5)
H13 H 0.7947 1.0904 0.4672
C16 C 0.6770(9) 0.9883(5) 0.5541(5)
H14 H 0.7993 0.9812 0.5905
P1A P 0.54199(18) 0.95436(12) 0.82446(11)
O3A O 0.3725(5) 1.0352(3) 0.8559(3)
O4A O 0.7424(5) 1.0318(4) 0.8592(4)
C13A C 0.5044(9) 0.8600(5) 0.6522(5)
H11A H 0.3779 0.8029 0.6294
H12A H 0.6098 0.8052 0.6269
C14A C 0.5022(9) 0.9333(5) 0.5751(5)
C15A C 0.3261(9) 0.9462(5) 0.5198(5)
H13A H 0.2053 0.9096 0.5328
C16A C 0.3230(9) 1.0117(5) 0.4459(5)
H14A H 0.2007 1.0188 0.4095
O1A O 0.5197(5) 0.8545(3) 0.8741(3)
Cu1A Cu 0.34870(9) 1.18951(5) 0.00535(6)
O2A O 0.0371(6) 1.1522(5) 0.0454(4)
H1A H 0.0172 1.2117 0.1144
H2A H -0.0565 1.1224 -0.0153
N1A N 0.3585(6) 1.3719(4) 0.1424(4)
N2A N 0.2643(7) 1.2729(4) -0.1039(5)
C1A C 0.3995(9) 1.4178(6) 0.2671(6)
H3A H 0.4352 1.3619 0.3007
C2A C 0.3924(10) 1.5439(6) 0.3501(7)
H4A H 0.4172 1.5725 0.4391
C3A C 0.3491(10) 1.6272(6) 0.3030(7)
H5A H 0.3470 1.7143 0.3594
C4A C 0.3082(8) 1.5846(5) 0.1728(7)
C5A C 0.2607(9) 1.6630(6) 0.1145(8)
H6A H 0.2611 1.7517 0.1654
C6A C 0.2143(9) 1.6118(7) -0.0142(9)
H7A H 0.1832 1.6656 -0.0514
C7A C 0.2118(8) 1.4777(6) -0.0941(7)
C8A C 0.1625(9) 1.4182(7) -0.2267(7)
H8A H 0.1291 1.4669 -0.2693
C9A C 0.1631(9) 1.2890(7) -0.2940(7)
H9A H 0.1287 1.2476 -0.3834
C10A C 0.2151(8) 1.2191(6) -0.2295(6)
H10A H 0.2153 1.1299 -0.2769
C11A C 0.2614(7) 1.4000(5) -0.0385(6)
C12A C 0.3108(7) 1.4536(5) 0.0958(6)
Cu1_2 Cu 0.65130(9) 0.81049(5) 0.99465(6)
Cu1A_2 Cu 0.34870(9) 1.18951(5) 1.00535(6)
O1A_2 O 0.5197(5) 0.8545(3) -0.1259(3)
O3A_2 O 0.3725(5) 1.0352(3) -0.1441(3)
O5 O 0.0141(8) 0.8965(5) 0.7276(9)
H15 H -0.041(15) 0.943(10) 0.702(12)
H16 H 0.127(8) 0.936(9) 0.764(10)
O6 O 0.9573(14) 0.6403(7) 0.5383(6)
H17 H 0.862(12) 0.651(10) 0.495(10)
H18 H 1.002(16) 0.718(4) 0.594(8)
O7 O 0.1710(15) 0.6956(11) 0.7716(10)
H19 H 0.148(19) 0.662(13) 0.686(3)
H20 H 0.289(11) 0.742(12) 0.785(11)
loop_
_geom_bond_atom_site_label_1
_geom_bond_atom_site_label_2
_geom_bond_site_symmetry_1
_geom_bond_site_symmetry_2
Cu1 O2 1_555 1_555
P1 O1 1_555 1_555
O1 Cu1A 1_555 1_555
O2 H1 1_555 1_555
H2 O2 1_555 1_555
O3 Cu1 1_555 1_555
O4 P1 1_555 1_555
N1 Cu1 1_555 1_555
N2 Cu1 1_555 1_555
C1 N1 1_555 1_555
H3 C1 1_555 1_555
C2 C1 1_555 1_555
H4 C2 1_555 1_555
C3 C2 1_555 1_555
H5 C3 1_555 1_555
C4 C3 1_555 1_555
C5 C4 1_555 1_555
H6 C5 1_555 1_555
C6 C5 1_555 1_555
H7 C6 1_555 1_555
C7 C6 1_555 1_555
C8 C7 1_555 1_555
H8 C8 1_555 1_555
C9 C8 1_555 1_555
H9 C9 1_555 1_555
C10 N2 1_555 1_555
H10 C10 1_555 1_555
C11 N2 1_555 1_555
C12 N1 1_555 1_555
C13 P1 1_555 1_555
H11 C13 1_555 1_555
H12 C13 1_555 1_555
C14 C13 1_555 1_555
C15 C14 1_555 1_555
H13 C15 1_555 1_555
C16 C15 1_555 1_555
H14 C16 1_555 1_555
O5 H15 1_555 1_555
H16 O5 1_555 1_555
O6 H17 1_555 1_555
H18 O6 1_555 1_555
O7 H19 1_555 1_555
H20 O7 1_555 1_555
P1A O3A 1_555 1_555
O3A Cu1A_2 1_555 1_555
O4A P1A 1_555 1_555
C13A P1A 1_555 1_555
H11A C13A 1_555 1_555
H12A C13A 1_555 1_555
C14A C16 1_555 1_555
C15A C14A 1_555 1_555
H13A C15A 1_555 1_555
C16A C14 1_555 1_555
H14A C16A 1_555 1_555
O1A P1A 1_555 1_555
Cu1A O2A 1_555 1_555
O2A H1A 1_555 1_555
H2A O2A 1_555 1_555
N1A Cu1A 1_555 1_555
N2A Cu1A 1_555 1_555
C1A N1A 1_555 1_555
H3A C1A 1_555 1_555
C2A C1A 1_555 1_555
H4A C2A 1_555 1_555
C3A C2A 1_555 1_555
H5A C3A 1_555 1_555
C4A C3A 1_555 1_555
C5A C4A 1_555 1_555
H6A C5A 1_555 1_555
C6A C5A 1_555 1_555
H7A C6A 1_555 1_555
C7A C6A 1_555 1_555
C8A C7A 1_555 1_555
H8A C8A 1_555 1_555
C9A C8A 1_555 1_555
H9A C9A 1_555 1_555
C10A N2A 1_555 1_555
H10A C10A 1_555 1_555
C11A N2A 1_555 1_555
C12A N1A 1_555 1_555
Cu1_2 O1A 1_555 1_555
O1A_2 Cu1 1_555 1_555
O3A_2 Cu1A 1_555 1_555
P1 O3 1_555 1_555
C4 C12 1_555 1_555
C7 C11 1_555 1_555
C9 C10 1_555 1_555
C11 C12 1_555 1_555
C13A C14A 1_555 1_555
C15A C16A 1_555 1_555
C4A C12A 1_555 1_555
C7A C11A 1_555 1_555
C9A C10A 1_555 1_555
C11A C12A 1_555 1_555

#END
