
#######################################################################
#
#                 Cambridge Crystallographic Data Centre
#                                CCDC 
#
#######################################################################
#
# If this CIF has been generated from an entry in the Cambridge 
# Structural Database, then it will include bibliographic, chemical, 
# crystal, experimental, refinement or atomic coordinate data resulting 
# from the CCDC's data processing and validation procedures.
#
#######################################################################

data_CIHMEN
_symmetry_cell_setting           triclinic
_symmetry_space_group_name_H-M   'P -1'
_symmetry_Int_Tables_number      2
_space_group_name_Hall           '-P 1'
loop_
_symmetry_equiv_pos_site_id
_symmetry_equiv_pos_as_xyz
1 x,y,z
2 -x,-y,-z
_cell_length_a                   9.7161(16)
_cell_length_b                   11.3506(18)
_cell_length_c                   11.3710(18)
_cell_angle_alpha                116.331(2)
_cell_angle_beta                 111.017(3)
_cell_angle_gamma                92.971(3)
_cell_volume                     1015.27
loop_
_atom_site_label
_atom_site_type_symbol
_atom_site_fract_x
_atom_site_fract_y
_atom_site_fract_z
Cu1 Cu 0.62974(2) 0.874531(19) 0.88516(2)
P1 P 0.66742(5) 1.01908(4) 1.20998(4)
P2 P 1.25521(5) 0.79993(4) 1.00732(4)
O1 O 1.25152(13) 0.94126(11) 1.03028(12)
O2 O 0.60160(13) 0.90592(11) 1.05372(12)
O3 O 0.61947(13) 1.14989(11) 1.23313(12)
O4 O 0.62228(13) 0.96303(12) 1.29851(12)
H1 H 0.5386 0.9084 1.2468
O5 O 1.36389(13) 0.79246(12) 1.13574(13)
O6 O 1.27855(14) 0.71216(12) 0.86576(13)
H2 H 1.3121 0.7626 0.8431
N1 N 0.62713(15) 0.67929(14) 0.83640(15)
N2 N 0.66825(15) 0.81256(14) 0.70695(15)
C1 C 0.68082(19) 0.88168(18) 0.64123(18)
H3 H 0.6701 0.9702 0.6783
C2 C 0.7098(2) 0.82520(19) 0.51745(19)
H4 H 0.7157 0.8752 0.4723
C3 C 0.7293(2) 0.69576(19) 0.46357(19)
H5 H 0.7508 0.6584 0.3830
C4 C 0.71658(19) 0.61941(18) 0.53079(18)
C5 C 0.7293(2) 0.48167(19) 0.48180(19)
H6 H 0.7525 0.4387 0.4027
C6 C 0.7084(2) 0.41306(18) 0.5483(2)
H7 H 0.7166 0.3238 0.5136
C7 C 0.67358(19) 0.47594(17) 0.67189(19)
C8 C 0.64836(19) 0.41183(18) 0.7467(2)
H8 H 0.6545 0.3224 0.7175
C9 C 0.6147(2) 0.48219(18) 0.8629(2)
H9 H 0.5987 0.4408 0.9132
C10 C 0.60454(19) 0.61681(17) 0.90527(19)
H10 H 0.5813 0.6635 0.9837
C11 C 0.66141(18) 0.61050(17) 0.72215(18)
C12 C 0.68353(18) 0.68307(17) 0.65179(18)
C13 C 0.87365(18) 1.05750(17) 1.28703(18)
H11 H 0.9109 1.1140 1.2556
H12 H 0.9141 1.1084 1.3920
C14 C 0.93020(18) 0.92986(17) 1.24190(18)
C15 C 0.97192(18) 0.88326(17) 1.12654(18)
H13 H 0.9695 0.9339 1.0805
C16 C 1.01711(18) 0.76217(17) 1.07907(18)
C17 C 1.02157(19) 0.68798(18) 1.14997(19)
H14 H 1.0519 0.6073 1.1199
C18 C 0.9810(2) 0.73349(19) 1.2653(2)
H15 H 0.9847 0.6834 1.3121
C19 C 0.93509(19) 0.85348(18) 1.31069(19)
H16 H 0.9074 0.8832 1.3875
C20 C 1.06400(19) 0.71276(17) 0.95526(18)
H17 H 1.0573 0.6163 0.9165
H18 H 0.9928 0.7249 0.8786
Cu1A Cu 0.37026(2) 1.125469(19) 1.11484(2)
Cu1A_2 Cu 1.37026(2) 1.125469(19) 1.11484(2)
O1A O 0.74848(13) 1.05874(11) 0.96972(12)
O3A O 0.38053(13) 0.85011(11) 0.76687(12)
loop_
_geom_bond_atom_site_label_1
_geom_bond_atom_site_label_2
_geom_bond_site_symmetry_1
_geom_bond_site_symmetry_2
Cu1 O2 1_555 1_555
P1 O2 1_555 1_555
P2 O1 1_555 1_555
O1 Cu1A_2 1_555 1_555
O3 P1 1_555 1_555
O4 P1 1_555 1_555
H1 O4 1_555 1_555
O5 P2 1_555 1_555
O6 P2 1_555 1_555
H2 O6 1_555 1_555
N1 Cu1 1_555 1_555
N2 Cu1 1_555 1_555
C1 N2 1_555 1_555
H3 C1 1_555 1_555
C2 C1 1_555 1_555
H4 C2 1_555 1_555
C3 C2 1_555 1_555
H5 C3 1_555 1_555
C4 C3 1_555 1_555
C5 C4 1_555 1_555
H6 C5 1_555 1_555
C6 C5 1_555 1_555
H7 C6 1_555 1_555
C7 C6 1_555 1_555
C8 C7 1_555 1_555
H8 C8 1_555 1_555
C9 C8 1_555 1_555
H9 C9 1_555 1_555
C10 N1 1_555 1_555
H10 C10 1_555 1_555
C11 N1 1_555 1_555
C12 N2 1_555 1_555
C13 P1 1_555 1_555
H11 C13 1_555 1_555
H12 C13 1_555 1_555
C14 C13 1_555 1_555
C15 C14 1_555 1_555
H13 C15 1_555 1_555
C16 C15 1_555 1_555
C17 C16 1_555 1_555
H14 C17 1_555 1_555
C18 C17 1_555 1_555
H15 C18 1_555 1_555
C19 C14 1_555 1_555
H16 C19 1_555 1_555
C20 P2 1_555 1_555
H17 C20 1_555 1_555
H18 C20 1_555 1_555
Cu1A O3 1_555 1_555
O1A Cu1 1_555 1_555
O3A Cu1 1_555 1_555
C4 C12 1_555 1_555
C7 C11 1_555 1_555
C9 C10 1_555 1_555
C11 C12 1_555 1_555
C16 C20 1_555 1_555
C18 C19 1_555 1_555

#END
