
#######################################################################
#
#                 Cambridge Crystallographic Data Centre
#                                CCDC 
#
#######################################################################
#
# If this CIF has been generated from an entry in the Cambridge 
# Structural Database, then it will include bibliographic, chemical, 
# crystal, experimental, refinement or atomic coordinate data resulting 
# from the CCDC's data processing and validation procedures.
#
#######################################################################

data_CIHMIR
_symmetry_cell_setting           monoclinic
_symmetry_space_group_name_H-M   'P 21/n'
_symmetry_Int_Tables_number      14
_space_group_name_Hall           '-P 2yn'
loop_
_symmetry_equiv_pos_site_id
_symmetry_equiv_pos_as_xyz
1 x,y,z
2 1/2-x,1/2+y,1/2-z
3 -x,-y,-z
4 1/2+x,1/2-y,1/2+z
_cell_length_a                   10.3496(18)
_cell_length_b                   14.682(3)
_cell_length_c                   12.523(2)
_cell_angle_alpha                90
_cell_angle_beta                 104.644(4)
_cell_angle_gamma                90
_cell_volume                     1841.09
loop_
_atom_site_label
_atom_site_type_symbol
_atom_site_fract_x
_atom_site_fract_y
_atom_site_fract_z
Cu1 Cu 0.58123(3) 1.009300(19) 0.83240(2)
P1 P 0.34067(6) 0.90258(4) 0.91954(5)
P2 P 0.14822(6) 0.68812(4) 0.67227(5)
O1 O 0.06097(17) 0.61900(11) 0.70846(14)
O2 O 0.47557(16) 0.91940(11) 0.89398(13)
O3 O 0.32157(17) 0.79761(11) 0.93212(13)
H1 H 0.3056 0.7734 0.8712
O4 O 0.32192(16) 0.94868(12) 1.02219(13)
O5 O 0.28067(16) 0.70867(11) 0.75279(14)
O6 O 0.18483(17) 0.65797(12) 0.56071(14)
H2 H 0.1199 0.6334 0.5196
N1 N 0.5471(2) 0.93704(13) 0.68832(16)
N2 N 0.7329(2) 1.05968(13) 0.77143(16)
C1 C 0.4570(2) 0.87263(16) 0.6509(2)
H3 H 0.3992 0.8563 0.6937
C2 C 0.4448(2) 0.82789(16) 0.5493(2)
H4 H 0.3786 0.7843 0.5252
C3 C 0.5318(2) 0.84923(17) 0.48588(19)
H5 H 0.5248 0.8204 0.4185
C4 C 0.6317(2) 0.91537(16) 0.52449(19)
C5 C 0.7301(3) 0.94094(17) 0.4666(2)
H6 H 0.7277 0.9147 0.3985
C6 C 0.8263(2) 1.00305(17) 0.5103(2)
H7 H 0.8887 1.0185 0.4715
C7 C 0.8338(2) 1.04553(16) 0.61550(19)
C8 C 0.9354(2) 1.10670(16) 0.6685(2)
H8 H 1.0021 1.1239 0.6348
C9 C 0.9342(2) 1.14054(16) 0.7711(2)
H9 H 1.0016 1.1796 0.8079
C10 C 0.8309(2) 1.11583(16) 0.8199(2)
H10 H 0.8312 1.1397 0.8887
C11 C 0.7357(2) 1.02345(16) 0.67155(19)
C12 C 0.6347(2) 0.95784(16) 0.62635(19)
C13 C 0.2049(2) 0.93935(16) 0.80473(19)
H11 H 0.1969 1.0051 0.8071
H12 H 0.2263 0.9235 0.7360
C14 C 0.0709(2) 0.89639(16) 0.80646(19)
C15 C 0.0047(2) 0.83222(16) 0.72812(19)
C16 C -0.1189(2) 0.79772(16) 0.7371(2)
H13 H -0.1648 0.7571 0.6839
C17 C -0.1748(2) 0.82237(16) 0.8230(2)
H14 H -0.2558 0.7975 0.8280
C18 C -0.1079(2) 0.88476(17) 0.9013(2)
H15 H -0.1434 0.9017 0.9596
C19 C 0.0126(2) 0.92158(16) 0.89171(19)
H16 H 0.0558 0.9642 0.9434
C20 C 0.0592(2) 0.79484(16) 0.63539(19)
H17 H 0.1191 0.8393 0.6165
H18 H -0.0142 0.7853 0.5707
Cu1A Cu -0.08123(3) 0.509300(19) 0.66760(2)
Cu1B Cu 0.41877(3) 0.990700(19) 1.16760(2)
O1A O 0.43903(17) 1.11900(11) 0.79154(14)
O4B O 0.67808(16) 1.05132(12) 0.97781(13)
loop_
_geom_bond_atom_site_label_1
_geom_bond_atom_site_label_2
_geom_bond_site_symmetry_1
_geom_bond_site_symmetry_2
Cu1 O2 1_555 1_555
P1 O2 1_555 1_555
P2 O1 1_555 1_555
O1 Cu1A 1_555 1_555
O3 P1 1_555 1_555
H1 O3 1_555 1_555
O4 P1 1_555 1_555
O5 P2 1_555 1_555
O6 P2 1_555 1_555
H2 O6 1_555 1_555
N1 Cu1 1_555 1_555
N2 Cu1 1_555 1_555
C1 N1 1_555 1_555
H3 C1 1_555 1_555
C2 C1 1_555 1_555
H4 C2 1_555 1_555
C3 C2 1_555 1_555
H5 C3 1_555 1_555
C4 C3 1_555 1_555
C5 C4 1_555 1_555
H6 C5 1_555 1_555
C6 C5 1_555 1_555
H7 C6 1_555 1_555
C7 C6 1_555 1_555
C8 C7 1_555 1_555
H8 C8 1_555 1_555
C9 C8 1_555 1_555
H9 C9 1_555 1_555
C10 N2 1_555 1_555
H10 C10 1_555 1_555
C11 N2 1_555 1_555
C12 N1 1_555 1_555
C13 P1 1_555 1_555
H11 C13 1_555 1_555
H12 C13 1_555 1_555
C14 C13 1_555 1_555
C15 C14 1_555 1_555
C16 C15 1_555 1_555
H13 C16 1_555 1_555
C17 C16 1_555 1_555
H14 C17 1_555 1_555
C18 C17 1_555 1_555
H15 C18 1_555 1_555
C19 C14 1_555 1_555
H16 C19 1_555 1_555
C20 P2 1_555 1_555
H17 C20 1_555 1_555
H18 C20 1_555 1_555
Cu1B O4 1_555 1_555
O1A Cu1 1_555 1_555
O4B Cu1 1_555 1_555
C4 C12 1_555 1_555
C7 C11 1_555 1_555
C9 C10 1_555 1_555
C11 C12 1_555 1_555
C15 C20 1_555 1_555
C18 C19 1_555 1_555

#END
