
#######################################################################
#
#                 Cambridge Crystallographic Data Centre
#                                CCDC 
#
#######################################################################
#
# If this CIF has been generated from an entry in the Cambridge 
# Structural Database, then it will include bibliographic, chemical, 
# crystal, experimental, refinement or atomic coordinate data resulting 
# from the CCDC's data processing and validation procedures.
#
#######################################################################

data_CIHNOX
_symmetry_cell_setting           triclinic
_symmetry_space_group_name_H-M   'P -1'
_symmetry_Int_Tables_number      2
_space_group_name_Hall           '-P 1'
loop_
_symmetry_equiv_pos_site_id
_symmetry_equiv_pos_as_xyz
1 x,y,z
2 -x,-y,-z
_cell_length_a                   12.5247(5)
_cell_length_b                   12.8094(5)
_cell_length_c                   21.8339(9)
_cell_angle_alpha                88.702(2)
_cell_angle_beta                 84.963(2)
_cell_angle_gamma                65.223(2)
_cell_volume                     3167.77
loop_
_atom_site_label
_atom_site_type_symbol
_atom_site_fract_x
_atom_site_fract_y
_atom_site_fract_z
C1 C 0.3739(3) 0.6799(3) 0.4519(2)
H1 H 0.3901 0.7230 0.4207
C2 C 0.4190(4) 0.6776(4) 0.5080(2)
H2 H 0.4626 0.7195 0.5141
C3 C 0.3985(4) 0.6134(4) 0.5537(2)
H3 H 0.4283 0.6105 0.5915
C4 C 0.3318(4) 0.5511(4) 0.54357(18)
C5 C 0.3088(5) 0.4779(5) 0.5884(2)
H4 H 0.3380 0.4715 0.6266
C6 C 0.2471(5) 0.4190(5) 0.5770(2)
H5 H 0.2342 0.3723 0.6072
C7 C 0.2004(4) 0.4265(3) 0.5190(2)
C8 C 0.1369(4) 0.3654(4) 0.5046(3)
H6 H 0.1239 0.3161 0.5332
C9 C 0.0938(4) 0.3777(4) 0.4490(3)
H7 H 0.0506 0.3374 0.4391
C10 C 0.1148(4) 0.4514(3) 0.4064(2)
H8 H 0.0840 0.4598 0.3684
C11 C 0.2200(3) 0.4976(3) 0.47333(17)
C12 C 0.2884(3) 0.5598(3) 0.48547(16)
C13 C 0.0441(3) 0.8548(3) 0.04192(19)
H9 H 0.0070 0.9137 0.0710
C14 C -0.0047(4) 0.8652(4) -0.0140(2)
H10 H -0.0738 0.9286 -0.0215
C15 C 0.0502(5) 0.7812(5) -0.0571(2)
H11 H 0.0210 0.7886 -0.0954
C16 C 0.1499(4) 0.6841(4) -0.04450(18)
C17 C 0.2098(5) 0.5877(5) -0.0861(2)
H12 H 0.1836 0.5912 -0.1250
C18 C 0.3011(5) 0.4941(5) -0.0709(2)
H13 H 0.3374 0.4336 -0.0991
C19 C 0.3448(4) 0.4846(4) -0.0116(2)
C20 C 0.4382(4) 0.3864(4) 0.0074(2)
H14 H 0.4747 0.3225 -0.0187
C21 C 0.4752(4) 0.3847(4) 0.0640(2)
H15 H 0.5376 0.3198 0.0769
C22 C 0.4191(3) 0.4812(3) 0.1027(2)
H16 H 0.4458 0.4790 0.1413
C23 C 0.2918(3) 0.5779(3) 0.03044(16)
C24 C 0.1926(3) 0.6788(3) 0.01349(16)
C25 C 0.8837(4) 0.1614(3) 0.3652(2)
H17 H 0.9058 0.1959 0.3315
C26 C 0.9223(4) 0.1702(4) 0.4214(2)
H18 H 0.9696 0.2092 0.4249
C27 C 0.8907(4) 0.1216(4) 0.4711(2)
H19 H 0.9161 0.1273 0.5092
C28 C 0.8201(3) 0.0631(3) 0.46562(17)
C29 C 0.7831(4) 0.0091(4) 0.51569(19)
H20 H 0.8067 0.0124 0.5545
C30 C 0.7155(4) -0.0459(4) 0.5081(2)
H21 H 0.6930 -0.0803 0.5417
C31 C 0.6766(3) -0.0533(3) 0.44930(19)
C32 C 0.6055(4) -0.1095(4) 0.4395(2)
H22 H 0.5809 -0.1446 0.4720
C33 C 0.5723(4) -0.1128(4) 0.3825(2)
H23 H 0.5249 -0.1502 0.3755
C34 C 0.6104(3) -0.0591(3) 0.3341(2)
H24 H 0.5868 -0.0618 0.2952
C35 C 0.7112(3) -0.0018(3) 0.39839(17)
C36 C 0.7849(3) 0.0573(3) 0.40664(16)
C37 C 0.0467(3) 0.5739(3) 0.13866(16)
C38 C 0.1389(3) 0.5051(3) 0.17337(16)
C39 C 0.2051(4) 0.3909(3) 0.15668(19)
H25 H 0.2668 0.3451 0.1795
C40 C 0.1802(4) 0.3445(4) 0.1063(2)
H26 H 0.2259 0.2681 0.0948
C41 C 0.0880(5) 0.4113(4) 0.0733(2)
H27 H 0.0709 0.3799 0.0396
C42 C 0.0204(4) 0.5250(4) 0.08976(19)
H28 H -0.0433 0.5690 0.0677
C43 C -0.0185(3) 0.6996(3) 0.15296(16)
C44 C 0.1660(3) 0.5525(3) 0.22902(16)
C45 C 0.6799(3) 0.4774(3) 0.24929(15)
C46 C 0.7976(3) 0.4546(3) 0.25379(17)
H29 H 0.8525 0.3786 0.2558
C47 C 0.8356(3) 0.5409(4) 0.25530(19)
H30 H 0.9146 0.5235 0.2591
C48 C 0.7544(4) 0.6539(4) 0.2511(2)
H31 H 0.7790 0.7130 0.2516
C49 C 0.6369(3) 0.6792(3) 0.24599(18)
H32 H 0.5832 0.7554 0.2427
C50 C 0.5981(3) 0.5927(3) 0.24568(15)
C51 C 0.6458(3) 0.3788(3) 0.24832(15)
C52 C 0.4658(3) 0.6328(3) 0.24667(15)
C53 C 0.1876(3) 0.9884(3) 0.28768(15)
C54 C 0.1161(3) 1.0580(3) 0.24325(16)
C55 C 0.1018(4) 1.1708(3) 0.23700(19)
H33 H 0.0528 1.2173 0.2084
C56 C 0.1588(5) 1.2148(4) 0.2724(2)
H34 H 0.1479 1.2909 0.2679
C57 C 0.2325(5) 1.1465(4) 0.3147(2)
H35 H 0.2731 1.1754 0.3380
C58 C 0.2452(4) 1.0346(4) 0.32208(18)
H36 H 0.2940 0.9890 0.3510
C59 C 0.1982(3) 0.8705(3) 0.30329(15)
C60 C 0.0499(3) 1.0200(3) 0.20162(16)
Cl1 Cl 0.00421(8) 0.77542(8) 0.38925(5)
Eu1 Eu 0.224776(14) 0.638880(13) 0.337138(7)
Eu2 Eu 0.229114(14) 0.748267(14) 0.160332(7)
Eu3 Eu 0.758400(15) 0.084940(14) 0.251050(8)
N1 N 0.3095(3) 0.6248(2) 0.44029(14)
N2 N 0.1766(2) 0.5097(2) 0.41779(14)
N3 N 0.3298(3) 0.5755(2) 0.08677(14)
N4 N 0.1404(3) 0.7658(3) 0.05578(13)
N5 N 0.8168(2) 0.1064(2) 0.35675(14)
N6 N 0.6781(2) -0.0049(2) 0.34114(14)
O1 O 0.41369(19) 0.6262(2) 0.29707(11)
O2 O 0.4179(2) 0.6775(2) 0.19865(11)
O3 O 0.5456(2) 0.3954(2) 0.23425(12)
O4 O 0.7226(2) 0.2810(2) 0.26043(15)
O5 O 0.1111(2) 0.5563(2) 0.27972(12)
O6 O 0.2491(2) 0.58560(19) 0.22347(10)
O7 O 0.0377(2) 0.7464(2) 0.17936(11)
O8 O -0.1213(2) 0.7526(2) 0.13918(13)
O9 O 0.2314(2) 0.8300(2) 0.35396(11)
O10 O 0.17225(19) 0.81135(18) 0.26519(10)
O11 O 0.1059(2) 0.9461(2) 0.16074(11)
O12 O -0.0606(2) 1.0724(2) 0.20721(13)
O13 O 0.3610(2) 0.4429(2) 0.32511(15)
O14 O 0.3448(3) 0.8192(3) 0.09492(15)
O15 O 0.8972(2) -0.1071(2) 0.26941(13)
O16 O 0.7222(3) -0.0420(2) 0.18601(17)
O17 O 0.5449(2) 0.1826(2) 0.26011(12)
O18 O 0.7112(3) 0.1787(3) 0.15075(14)
H37 H 0.421(2) 0.435(3) 0.3033(17)
H38 H 0.372(3) 0.387(2) 0.3475(14)
H39 H 0.323(4) 0.854(4) 0.0625(13)
H40 H 0.392(4) 0.839(4) 0.110(2)
H41 H 0.947(3) -0.141(3) 0.2409(11)
H42 H 0.920(3) -0.133(3) 0.3033(8)
H43 H 0.6637 -0.0238 0.1657
H44 H 0.7811 -0.0946 0.1688
H45 H 0.4962 0.1843 0.2366
H46 H 0.5184 0.1900 0.2965
H47 H 0.6383 0.2166 0.1532
H48 H 0.7329 0.1273 0.1244
Eu3_2 Eu -0.241600(15) 1.084940(14) 0.251050(8)
O12_2 O 0.9394(2) 0.0724(2) 0.20721(13)
Cl2 Cl 0.68584(16) 0.06975(13) 0.03392(7)
Cl3 Cl 0.43010(8) 0.22241(8) 0.39471(5)
O19 O 0.4667(10) 0.0716(8) 0.1673(5)
H49 H 0.4501 0.1272 0.1464
H51 H 0.4875 0.1050 0.1946
O20 O 0.4193(11) 0.0980(9) 0.0458(4)
H50 H 0.4291 0.0971 0.0824
H52 H 0.3772 0.1331 0.0157
O21 O 0.5142(6) 0.8649(6) 0.1276(4)
H53 H 0.4996 0.9384 0.1385
H54 H 0.5823 0.8440 0.1017
O22 O 0.7147(6) 0.7878(6) 0.0568(3)
H55 H 0.7135 0.7948 0.0968
H56 H 0.7382 0.8271 0.0379
loop_
_geom_bond_atom_site_label_1
_geom_bond_atom_site_label_2
_geom_bond_site_symmetry_1
_geom_bond_site_symmetry_2
C1 H1 1_555 1_555
C2 C1 1_555 1_555
H2 C2 1_555 1_555
C3 C2 1_555 1_555
H3 C3 1_555 1_555
C4 C3 1_555 1_555
C5 C4 1_555 1_555
H4 C5 1_555 1_555
C6 C5 1_555 1_555
H5 C6 1_555 1_555
C7 C6 1_555 1_555
C8 C7 1_555 1_555
H6 C8 1_555 1_555
C9 C8 1_555 1_555
H7 C9 1_555 1_555
C10 C9 1_555 1_555
H8 C10 1_555 1_555
C11 C7 1_555 1_555
C12 C4 1_555 1_555
C13 H9 1_555 1_555
C14 C13 1_555 1_555
H10 C14 1_555 1_555
C15 C14 1_555 1_555
H11 C15 1_555 1_555
C16 C15 1_555 1_555
C17 C16 1_555 1_555
H12 C17 1_555 1_555
C18 C17 1_555 1_555
H13 C18 1_555 1_555
C19 C18 1_555 1_555
C20 C19 1_555 1_555
H14 C20 1_555 1_555
C21 C20 1_555 1_555
H15 C21 1_555 1_555
C22 C21 1_555 1_555
H16 C22 1_555 1_555
C23 C19 1_555 1_555
C24 C16 1_555 1_555
C25 H17 1_555 1_555
C26 C25 1_555 1_555
H18 C26 1_555 1_555
C27 C26 1_555 1_555
H19 C27 1_555 1_555
C28 C27 1_555 1_555
C29 C28 1_555 1_555
H20 C29 1_555 1_555
C30 C29 1_555 1_555
H21 C30 1_555 1_555
C31 C30 1_555 1_555
C32 C31 1_555 1_555
H22 C32 1_555 1_555
C33 C32 1_555 1_555
H23 C33 1_555 1_555
C34 C33 1_555 1_555
H24 C34 1_555 1_555
C35 C31 1_555 1_555
C36 C28 1_555 1_555
C37 C38 1_555 1_555
C38 C39 1_555 1_555
C39 H25 1_555 1_555
C40 C39 1_555 1_555
H26 C40 1_555 1_555
C41 C40 1_555 1_555
H27 C41 1_555 1_555
C42 C37 1_555 1_555
H28 C42 1_555 1_555
C43 C37 1_555 1_555
C44 C38 1_555 1_555
C45 C46 1_555 1_555
C46 H29 1_555 1_555
C47 C46 1_555 1_555
H30 C47 1_555 1_555
C48 C47 1_555 1_555
H31 C48 1_555 1_555
C49 C48 1_555 1_555
H32 C49 1_555 1_555
C50 C45 1_555 1_555
C51 C45 1_555 1_555
C52 C50 1_555 1_555
C53 C54 1_555 1_555
C54 C55 1_555 1_555
C55 H33 1_555 1_555
C56 C55 1_555 1_555
H34 C56 1_555 1_555
C57 C56 1_555 1_555
H35 C57 1_555 1_555
C58 C53 1_555 1_555
H36 C58 1_555 1_555
C59 C53 1_555 1_555
C60 C54 1_555 1_555
Cl1 Eu1 1_555 1_555
Eu1 N1 1_555 1_555
Eu2 N3 1_555 1_555
Eu3 N5 1_555 1_555
N1 C1 1_555 1_555
N2 C10 1_555 1_555
N3 C22 1_555 1_555
N4 C13 1_555 1_555
N5 C25 1_555 1_555
N6 C34 1_555 1_555
O1 C52 1_555 1_555
O2 C52 1_555 1_555
O3 C51 1_555 1_555
O4 C51 1_555 1_555
O5 C44 1_555 1_555
O6 C44 1_555 1_555
O7 C43 1_555 1_555
O8 C43 1_555 1_555
O9 C59 1_555 1_555
O10 C59 1_555 1_555
O11 C60 1_555 1_555
O12 C60 1_555 1_555
O13 Eu1 1_555 1_555
O14 Eu2 1_555 1_555
O15 Eu3 1_555 1_555
O16 Eu3 1_555 1_555
O17 Eu3 1_555 1_555
O18 Eu3 1_555 1_555
O19 H49 1_555 1_555
O20 H50 1_555 1_555
O21 H53 1_555 1_555
O22 H55 1_555 1_555
H37 O13 1_555 1_555
H38 O13 1_555 1_555
H39 O14 1_555 1_555
H40 O14 1_555 1_555
H41 O15 1_555 1_555
H42 O15 1_555 1_555
H43 O16 1_555 1_555
H44 O16 1_555 1_555
H45 O17 1_555 1_555
H46 O17 1_555 1_555
H47 O18 1_555 1_555
H48 O18 1_555 1_555
H51 O19 1_555 1_555
H52 O20 1_555 1_555
H54 O21 1_555 1_555
H56 O22 1_555 1_555
Eu3_2 O12 1_555 1_555
O12_2 Eu3 1_555 1_555
C11 C12 1_555 1_555
C11 N2 1_555 1_555
C12 N1 1_555 1_555
C23 C24 1_555 1_555
C23 N3 1_555 1_555
C24 N4 1_555 1_555
C35 C36 1_555 1_555
C35 N6 1_555 1_555
C36 N5 1_555 1_555
C41 C42 1_555 1_555
C49 C50 1_555 1_555
C57 C58 1_555 1_555
Eu1 N2 1_555 1_555
Eu1 O1 1_555 1_555
Eu1 O5 1_555 1_555
Eu1 O6 1_555 1_555
Eu1 O9 1_555 1_555
Eu1 O10 1_555 1_555
Eu2 N4 1_555 1_555
Eu2 O2 1_555 1_555
Eu2 O6 1_555 1_555
Eu2 O7 1_555 1_555
Eu2 O10 1_555 1_555
Eu2 O11 1_555 1_555
Eu3 N6 1_555 1_555
Eu3 O4 1_555 1_555

#END
