
#######################################################################
#
#                 Cambridge Crystallographic Data Centre
#                                CCDC 
#
#######################################################################
#
# If this CIF has been generated from an entry in the Cambridge 
# Structural Database, then it will include bibliographic, chemical, 
# crystal, experimental, refinement or atomic coordinate data resulting 
# from the CCDC's data processing and validation procedures.
#
#######################################################################

data_CIHNIR
_symmetry_cell_setting           monoclinic
_symmetry_space_group_name_H-M   'C 2/c'
_symmetry_Int_Tables_number      15
_space_group_name_Hall           '-C 2yn'
loop_
_symmetry_equiv_pos_site_id
_symmetry_equiv_pos_as_xyz
1 x,y,z
2 1/2+x,1/2+y,z
3 -x,y,1/2-z
4 1/2-x,1/2+y,1/2-z
5 -x,-y,-z
6 1/2-x,1/2-y,-z
7 x,-y,1/2+z
8 1/2+x,1/2-y,1/2+z
_cell_length_a                   22.0720(15)
_cell_length_b                   11.3511(8)
_cell_length_c                   11.2808(8)
_cell_angle_alpha                90
_cell_angle_beta                 106.262(1)
_cell_angle_gamma                90
_cell_volume                     2713.23
loop_
_atom_site_label
_atom_site_type_symbol
_atom_site_fract_x
_atom_site_fract_y
_atom_site_fract_z
Cu1 Cu 0.95423(4) 0.09005(7) 0.41071(7)
S1 S 0.85888(7) 0.15808(12) 0.42910(12)
O1 O 0.7888(2) -0.0342(4) 0.3050(4)
N1 N 0.7803(2) -0.1525(4) 0.4615(4)
C1 C 0.8849(3) 0.2736(5) 0.5466(5)
H1 H 0.9216 0.2433 0.6135
C2 C 0.9072(3) 0.3760(5) 0.4822(6)
H2 H 0.9417 0.3490 0.4485
H3 H 0.8719 0.4034 0.4124
C3 C 0.9306(3) 0.4776(5) 0.5710(6)
H4 H 0.9419 0.5448 0.5256
H5 H 0.9690 0.4529 0.6355
C4 C 0.8801(3) 0.5161(6) 0.6318(6)
H6 H 0.8978 0.5777 0.6941
H7 H 0.8441 0.5510 0.5685
C5 C 0.8566(3) 0.4140(5) 0.6938(6)
H8 H 0.8222 0.4418 0.7272
H9 H 0.8914 0.3855 0.7640
C6 C 0.8324(3) 0.3116(5) 0.6043(6)
H10 H 0.7946 0.3367 0.5387
H11 H 0.8204 0.2445 0.6492
C7 C 0.8334(3) 0.0384(5) 0.5121(5)
H12 H 0.8704 0.0020 0.5716
H13 H 0.8046 0.0689 0.5583
C8 C 0.7993(3) -0.0527(5) 0.4161(5)
C9 C 0.7579(3) -0.2517(5) 0.3790(5)
H14 H 0.7932 -0.3076 0.3859
H15 H 0.7444 -0.2228 0.2928
C10 C 0.7963(3) -0.1840(5) 0.5934(5)
H16 H 0.8059 -0.1116 0.6442
H17 H 0.8343 -0.2346 0.6150
Cu2 Cu 1.0000 -0.01850(10) 0.2500
I1 I 0.949768(18) -0.14177(3) 0.38647(3)
I2 I 1.0000 0.20686(5) 0.2500
Cu1B Cu 1.04577(4) 0.09005(7) 0.08929(7)
Cu1D Cu 1.04577(4) -0.09005(7) 0.58929(7)
Cu1E Cu 0.54577(4) -0.59005(7) 0.58929(7)
Cu1F Cu 0.95423(4) -0.09005(7) -0.08929(7)
S1E S 0.64112(7) -0.65808(12) 0.57090(12)
S1B S 1.14112(7) 0.15808(12) 0.07090(12)
O1E O 0.7112(2) -0.4658(4) 0.6950(4)
N1E N 0.7197(2) -0.3475(4) 0.5385(4)
C1E C 0.6151(3) -0.7736(5) 0.4534(5)
H1E H 0.5784 -0.7433 0.3865
C2E C 0.5928(3) -0.8760(5) 0.5178(6)
H2E H 0.5583 -0.8490 0.5515
H3E H 0.6281 -0.9034 0.5876
C3E C 0.5694(3) -0.9776(5) 0.4290(6)
H4E H 0.5581 -1.0448 0.4744
H5E H 0.5310 -0.9529 0.3645
C4E C 0.6199(3) -1.0161(6) 0.3682(6)
H6E H 0.6022 -1.0777 0.3059
H7E H 0.6559 -1.0510 0.4315
C5E C 0.6434(3) -0.9140(5) 0.3062(6)
H8E H 0.6778 -0.9418 0.2728
H9E H 0.6086 -0.8855 0.2360
C6E C 0.6676(3) -0.8116(5) 0.3957(6)
H10E H 0.7054 -0.8367 0.4613
H11E H 0.6796 -0.7445 0.3508
C7E C 0.6666(3) -0.5384(5) 0.4879(5)
H12E H 0.6296 -0.5020 0.4284
H13E H 0.6954 -0.5689 0.4417
C8E C 0.7007(3) -0.4473(5) 0.5839(5)
C9E C 0.7421(3) -0.2483(5) 0.6210(5)
H14E H 0.7068 -0.1924 0.6141
H15E H 0.7556 -0.2772 0.7072
C10E C 0.7037(3) -0.3160(5) 0.4066(5)
H16E H 0.6941 -0.3884 0.3558
H17E H 0.6657 -0.2654 0.3850
I1B I 1.050232(18) -0.14177(3) 0.11353(3)
I1D I 1.050232(18) 0.14177(3) 0.61353(3)
I1F I 0.949768(18) 0.14177(3) -0.11353(3)
loop_
_geom_bond_atom_site_label_1
_geom_bond_atom_site_label_2
_geom_bond_site_symmetry_1
_geom_bond_site_symmetry_2
Cu1 S1 1_555 1_555
S1 C1 1_555 1_555
O1 C8 1_555 1_555
N1 C8 1_555 1_555
C1 H1 1_555 1_555
C2 C1 1_555 1_555
H2 C2 1_555 1_555
H3 C2 1_555 1_555
C3 C2 1_555 1_555
H4 C3 1_555 1_555
H5 C3 1_555 1_555
C4 C3 1_555 1_555
H6 C4 1_555 1_555
H7 C4 1_555 1_555
C5 C4 1_555 1_555
H8 C5 1_555 1_555
H9 C5 1_555 1_555
C6 C1 1_555 1_555
H10 C6 1_555 1_555
H11 C6 1_555 1_555
C7 S1 1_555 1_555
H12 C7 1_555 1_555
H13 C7 1_555 1_555
C8 C7 1_555 1_555
C9 N1 1_555 1_555
H14 C9 1_555 1_555
H15 C9 1_555 1_555
C10 N1 1_555 1_555
H16 C10 1_555 1_555
H17 C10 1_555 1_555
Cu2 I1 1_555 1_555
I1 Cu1 1_555 1_555
I2 Cu1 1_555 1_555
Cu1B I2 1_555 1_555
Cu1D I1 1_555 1_555
Cu1E S1E 1_555 1_555
Cu1F I1B 1_555 1_555
S1E C1E 1_555 1_555
S1B Cu1B 1_555 1_555
O1E C8E 1_555 1_555
N1E C8E 1_555 1_555
C1E H1E 1_555 1_555
C2E C1E 1_555 1_555
H2E C2E 1_555 1_555
H3E C2E 1_555 1_555
C3E C2E 1_555 1_555
H4E C3E 1_555 1_555
H5E C3E 1_555 1_555
C4E C3E 1_555 1_555
H6E C4E 1_555 1_555
H7E C4E 1_555 1_555
C5E C4E 1_555 1_555
H8E C5E 1_555 1_555
H9E C5E 1_555 1_555
C6E C1E 1_555 1_555
H10E C6E 1_555 1_555
H11E C6E 1_555 1_555
C7E S1E 1_555 1_555
H12E C7E 1_555 1_555
H13E C7E 1_555 1_555
C8E C7E 1_555 1_555
C9E C10 1_555 1_555
H14E C9E 1_555 1_555
H15E C9E 1_555 1_555
C10E C9 1_555 1_555
H16E C10E 1_555 1_555
H17E C10E 1_555 1_555
I1B Cu2 1_555 1_555
I1D Cu1 1_555 1_555
I1F Cu1B 1_555 1_555
C5 C6 1_555 1_555
Cu2 I2 1_555 1_555
Cu1B I1B 1_555 1_555
Cu1D I1D 1_555 1_555
Cu1F I1F 1_555 1_555
N1E C9E 1_555 1_555
N1E C10E 1_555 1_555
C5E C6E 1_555 1_555

#END
