
#######################################################################
#
#                 Cambridge Crystallographic Data Centre
#                                CCDC 
#
#######################################################################
#
# If this CIF has been generated from an entry in the Cambridge 
# Structural Database, then it will include bibliographic, chemical, 
# crystal, experimental, refinement or atomic coordinate data resulting 
# from the CCDC's data processing and validation procedures.
#
#######################################################################

data_CIHPAL
_symmetry_cell_setting           monoclinic
_symmetry_space_group_name_H-M   'P 21/c'
_symmetry_Int_Tables_number      14
_space_group_name_Hall           '-P 2ybc'
loop_
_symmetry_equiv_pos_site_id
_symmetry_equiv_pos_as_xyz
1 x,y,z
2 -x,1/2+y,1/2-z
3 -x,-y,-z
4 x,1/2-y,1/2+z
_cell_length_a                   19.904(6)
_cell_length_b                   5.7803(18)
_cell_length_c                   22.936(7)
_cell_angle_alpha                90
_cell_angle_beta                 92.132(5)
_cell_angle_gamma                90
_cell_volume                     2636.99
loop_
_atom_site_label
_atom_site_type_symbol
_atom_site_fract_x
_atom_site_fract_y
_atom_site_fract_z
Cu1 Cu -0.03983(3) 1.21366(9) 0.33987(2)
O1 O -0.07966(16) 1.4871(5) 0.38287(13)
O2 O -0.02984(15) 0.9573(5) 0.28024(13)
O3 O -0.15057(17) 1.7835(6) 0.36796(15)
O4 O 0.24325(18) 1.0073(6) 0.45983(16)
O5 O 0.3593(2) 0.5918(8) 0.45594(18)
O6 O 0.4463(2) 0.8291(11) 0.4691(3)
O7 O 0.32571(18) 0.1328(6) 0.71316(16)
O8 O 0.39982(19) 0.3600(7) 0.66503(17)
O9 O -0.05263(15) 0.9014(5) 0.18433(12)
N1 N -0.10354(18) 1.3186(6) 0.28223(15)
N2 N 0.01284(18) 1.0818(6) 0.40474(15)
N3 N 0.2882(2) 0.8414(8) 0.54052(19)
N4 N 0.2927(2) 0.3032(9) 0.6320(2)
H1 H 0.2543 0.2335 0.6383
C1 C -0.0602(2) 1.0027(8) 0.23172(18)
C2 C -0.1099(2) 1.1983(8) 0.23263(18)
C3 C -0.1555(2) 1.2670(8) 0.18917(19)
H2 H -0.1623 1.1782 0.1546
C4 C -0.1912(2) 1.4719(8) 0.1977(2)
H3 H -0.2218 1.5267 0.1681
C5 C -0.1822(2) 1.5961(8) 0.2496(2)
H4 H -0.2060 1.7361 0.2555
C6 C -0.1382(2) 1.5119(8) 0.29207(19)
C7 C -0.1220(2) 1.6079(8) 0.3523(2)
C8 C 0.0392(2) 0.8695(8) 0.40074(18)
H5 H 0.0239 0.7713 0.3698
C9 C 0.0877(2) 0.7892(8) 0.44006(18)
H6 H 0.1049 0.6370 0.4360
C10 C 0.1113(2) 0.9271(7) 0.48499(18)
C11 C 0.0823(2) 1.1459(8) 0.49039(18)
H7 H 0.0957 1.2446 0.5218
C12 C 0.0338(2) 1.2170(8) 0.44954(18)
H8 H 0.0147 1.3666 0.4532
C13 C 0.1654(2) 0.8454(8) 0.52693(18)
H9 H 0.1617 0.6758 0.5318
H10 H 0.1594 0.9184 0.5654
C14 C 0.2348(3) 0.9042(8) 0.5057(2)
C15 C 0.3544(3) 0.9113(11) 0.5231(3)
H11 H 0.3847 0.9183 0.5583
H12 H 0.3513 1.0694 0.5065
C16 C 0.3853(3) 0.7553(11) 0.4792(3)
C17 C 0.4831(4) 0.695(2) 0.4269(5)
H13 H 0.4790 0.5301 0.4357
H14 H 0.5306 0.7400 0.4292
H15 H 0.4644 0.7260 0.3876
C18 C 0.2838(3) 0.6974(10) 0.5935(2)
H16 H 0.2383 0.7119 0.6090
H17 H 0.3167 0.7541 0.6237
C19 C 0.2979(3) 0.4475(10) 0.5807(2)
H18 H 0.2657 0.3921 0.5499
H19 H 0.3438 0.4332 0.5657
C20 C 0.3442(3) 0.2729(9) 0.6700(2)
C21 C 0.3719(3) 0.0677(9) 0.7613(2)
C22 C 0.3915(3) 0.2801(10) 0.7969(3)
H20 H 0.4113 0.3958 0.7715
H21 H 0.4244 0.2366 0.8279
H22 H 0.3515 0.3451 0.8144
C23 C 0.3294(3) -0.0950(11) 0.7967(3)
H23 H 0.2885 -0.0149 0.8080
H24 H 0.3552 -0.1439 0.8318
H25 H 0.3172 -0.2310 0.7732
C24 C 0.4329(3) -0.0570(10) 0.7387(3)
H26 H 0.4181 -0.1925 0.7159
H27 H 0.4620 -0.1070 0.7717
H28 H 0.4578 0.0479 0.7138
Cu1A Cu 0.03983(3) 0.71366(9) 0.16013(2)
O9A O 0.05263(15) 1.4014(5) 0.31567(12)
O10 O 0.2191(2) 0.4593(8) 0.4229(2)
H29 H 0.222(4) 0.312(6) 0.438(3)
H30 H 0.2619(19) 0.516(13) 0.432(3)
loop_
_geom_bond_atom_site_label_1
_geom_bond_atom_site_label_2
_geom_bond_site_symmetry_1
_geom_bond_site_symmetry_2
Cu1 O1 1_555 1_555
O1 C7 1_555 1_555
O2 Cu1 1_555 1_555
O3 C7 1_555 1_555
O4 C14 1_555 1_555
O5 C16 1_555 1_555
O6 C16 1_555 1_555
O7 C20 1_555 1_555
O8 C20 1_555 1_555
O9 C1 1_555 1_555
N1 Cu1 1_555 1_555
N2 Cu1 1_555 1_555
N3 C14 1_555 1_555
N4 H1 1_555 1_555
C1 O2 1_555 1_555
C2 N1 1_555 1_555
C3 C2 1_555 1_555
H2 C3 1_555 1_555
C4 C3 1_555 1_555
H3 C4 1_555 1_555
C5 C4 1_555 1_555
H4 C5 1_555 1_555
C6 N1 1_555 1_555
C7 C6 1_555 1_555
C8 N2 1_555 1_555
H5 C8 1_555 1_555
C9 C8 1_555 1_555
H6 C9 1_555 1_555
C10 C9 1_555 1_555
C11 C10 1_555 1_555
H7 C11 1_555 1_555
C12 N2 1_555 1_555
H8 C12 1_555 1_555
C13 C10 1_555 1_555
H9 C13 1_555 1_555
H10 C13 1_555 1_555
C14 C13 1_555 1_555
C15 N3 1_555 1_555
H11 C15 1_555 1_555
H12 C15 1_555 1_555
C16 C15 1_555 1_555
C17 O6 1_555 1_555
H13 C17 1_555 1_555
H14 C17 1_555 1_555
H15 C17 1_555 1_555
C18 N3 1_555 1_555
H16 C18 1_555 1_555
H17 C18 1_555 1_555
C19 N4 1_555 1_555
H18 C19 1_555 1_555
H19 C19 1_555 1_555
C20 N4 1_555 1_555
C21 O7 1_555 1_555
C22 C21 1_555 1_555
H20 C22 1_555 1_555
H21 C22 1_555 1_555
H22 C22 1_555 1_555
C23 C21 1_555 1_555
H23 C23 1_555 1_555
H24 C23 1_555 1_555
H25 C23 1_555 1_555
C24 C21 1_555 1_555
H26 C24 1_555 1_555
H27 C24 1_555 1_555
H28 C24 1_555 1_555
O10 H29 1_555 1_555
H30 O10 1_555 1_555
Cu1A O9 1_555 1_555
O9A Cu1 1_555 1_555
C1 C2 1_555 1_555
C5 C6 1_555 1_555
C11 C12 1_555 1_555
C18 C19 1_555 1_555

#END
