
#######################################################################
#
#                 Cambridge Crystallographic Data Centre
#                                CCDC 
#
#######################################################################
#
# If this CIF has been generated from an entry in the Cambridge 
# Structural Database, then it will include bibliographic, chemical, 
# crystal, experimental, refinement or atomic coordinate data resulting 
# from the CCDC's data processing and validation procedures.
#
#######################################################################

data_CIHPEP
_symmetry_cell_setting           rhombohedral
_symmetry_space_group_name_H-M   'R -3 c'
_symmetry_Int_Tables_number      167
_space_group_name_Hall           '-R 3 2"c'
loop_
_symmetry_equiv_pos_site_id
_symmetry_equiv_pos_as_xyz
1 x,y,z
2 -y,x-y,z
3 -x+y,-x,z
4 y,x,1/2-z
5 2/3+x,1/3+y,1/3+z
6 2/3-y,1/3+x-y,1/3+z
7 2/3-x+y,1/3-x,1/3+z
8 2/3+y,1/3+x,5/6-z
9 1/3+x,2/3+y,2/3+z
10 1/3+y,2/3+x,1/6-z
11 x-y,-y,1/2-z
12 -x,-x+y,1/2-z
13 1/3-y,2/3+x-y,2/3+z
14 1/3-x+y,2/3-x,2/3+z
15 1/3+x-y,2/3-y,1/6-z
16 1/3-x,2/3-x+y,1/6-z
17 2/3+x-y,1/3-y,5/6-z
18 2/3-x,1/3-x+y,5/6-z
19 -x,-y,-z
20 y,-x+y,-z
21 x-y,x,-z
22 -y,-x,1/2+z
23 1/3-x,2/3-y,2/3-z
24 1/3+y,2/3-x+y,2/3-z
25 1/3+x-y,2/3+x,2/3-z
26 1/3-y,2/3-x,1/6+z
27 2/3-x,1/3-y,1/3-z
28 2/3-y,1/3-x,5/6+z
29 -x+y,y,1/2+z
30 x,x-y,1/2+z
31 2/3+y,1/3-x+y,1/3-z
32 2/3+x-y,1/3+x,1/3-z
33 2/3-x+y,1/3+y,5/6+z
34 2/3+x,1/3+x-y,5/6+z
35 1/3-x+y,2/3+y,1/6+z
36 1/3+x,2/3+x-y,1/6+z
_cell_length_a                   12.0709(17)
_cell_length_b                   12.0709(17)
_cell_length_c                   29.323(6)
_cell_angle_alpha                90
_cell_angle_beta                 90
_cell_angle_gamma                120
_cell_volume                     3700.14
loop_
_atom_site_label
_atom_site_type_symbol
_atom_site_fract_x
_atom_site_fract_y
_atom_site_fract_z
Cd1 Cd 0.0000 1.0000 0.0000
N1 N -0.0213(3) 0.7517(3) 0.06145(12)
O1 O -0.0812(3) 0.8063(3) 0.03830(12)
C1 C 0.1112(5) 0.8477(5) 0.0747(2)
H1 H 0.1095 0.9025 0.0986
H2 H 0.1563 0.9008 0.0487
C2 C -0.0183(6) 0.6512(5) 0.03267(18)
H3 H 0.0424 0.6910 0.0079
H4 H -0.1021 0.5961 0.0196
C3 C -0.0949(5) 0.6881(6) 0.10408(18)
H5 H -0.1757 0.6132 0.0961
H6 H -0.1128 0.7466 0.1208
Cd1I Cd 0.3333 0.6667 0.1667
Cd1I_2 Cd 0.3333 1.6667 0.1667
Cd1I_3 Cd -0.6667 0.6667 0.1667
N1I N 0.0850(3) 0.6454(3) 0.10522(12)
N1A N 0.2483(3) 1.2270(4) 0.06145(12)
N1O N 0.3546(3) 1.4397(4) 0.10522(12)
N1B N -0.2270(4) 1.0213(3) 0.06145(12)
N1N N -0.4397(4) 0.9150(3) 0.10522(12)
O1I O 0.1396(3) 0.5855(3) 0.12837(12)
O1A O 0.1937(3) 1.1125(4) 0.03830(12)
O1O O 0.4145(3) 1.5542(4) 0.12837(12)
O1B O -0.1125(4) 1.0812(3) 0.03830(12)
O1N O -0.5542(4) 0.8604(3) 0.12837(12)
O1R O 0.0812(3) 1.1937(3) -0.03830(12)
O1S O -0.1937(3) 0.8875(4) -0.03830(12)
O1T O 0.1125(4) 0.9188(3) -0.03830(12)
C1I C 0.1810(5) 0.7779(5) 0.0920(2)
C1A C 0.1523(5) 1.2635(7) 0.0747(2)
C1O C 0.2221(5) 1.4032(7) 0.0920(2)
C1B C -0.2635(7) 0.8888(5) 0.0747(2)
C1N C -0.4032(7) 0.8190(5) 0.0920(2)
H1I H 0.2358 0.7762 0.0681
H1A H 0.0975 1.2070 0.0986
H1O H 0.2238 1.4597 0.0681
H1B H -0.2070 0.8905 0.0986
H1N H -0.4597 0.7642 0.0681
H2I H 0.2341 0.8230 0.1180
H2A H 0.0992 1.2555 0.0487
H2O H 0.1770 1.4112 0.1180
H2B H -0.2555 0.8437 0.0487
H2N H -0.4112 0.7659 0.1180
C2I C -0.0155(5) 0.6484(6) 0.13400(18)
C2A C 0.3488(5) 1.3305(8) 0.03267(18)
C2O C 0.3516(6) 1.3362(8) 0.13400(18)
C2B C -0.3305(8) 1.0183(6) 0.03267(18)
C2N C -0.3362(8) 1.0155(5) 0.13400(18)
H3I H 0.0243 0.7091 0.1588
H3A H 0.3090 1.3514 0.0079
H3O H 0.2909 1.3153 0.1588
H3B H -0.3514 0.9576 0.0079
H3N H -0.3153 0.9757 0.1588
H4I H -0.0706 0.5646 0.1471
H4A H 0.4039 1.3018 0.0196
H4O H 0.4354 1.3649 0.1471
H4B H -0.3018 1.1021 0.0196
H4N H -0.3649 1.0706 0.1471
C3I C 0.0214(6) 0.5718(5) 0.06259(18)
C3A C 0.3119(6) 1.2170(8) 0.10408(18)
C3O C 0.4282(5) 1.4497(8) 0.06259(18)
C3B C -0.2170(8) 1.0949(5) 0.10408(18)
C3N C -0.4497(8) 0.9786(6) 0.06259(18)
H5I H -0.0535 0.4910 0.0706
H5A H 0.3868 1.2111 0.0961
H5O H 0.5090 1.4556 0.0706
H5B H -0.2111 1.1757 0.0961
H5N H -0.4556 1.0535 0.0706
H6I H 0.0799 0.5539 0.0459
H6A H 0.2534 1.1406 0.1208
H6O H 0.4461 1.5261 0.0459
H6B H -0.1406 1.1128 0.1208
H6N H -0.5261 0.9201 0.0459
N2 N 0.6667 0.3333 0.0197(3)
O2 O 0.5646(5) 0.2326(5) 0.0203(3)
O2A O 0.7674(5) 0.3320(7) 0.0203(3)
O2B O 0.6680(7) 0.4354(5) 0.0203(3)
loop_
_geom_bond_atom_site_label_1
_geom_bond_atom_site_label_2
_geom_bond_site_symmetry_1
_geom_bond_site_symmetry_2
Cd1 O1 1_555 1_555
N1 O1 1_555 1_555
C1 N1 1_555 1_555
H1 C1 1_555 1_555
H2 C1 1_555 1_555
C2 N1 1_555 1_555
H3 C2 1_555 1_555
H4 C2 1_555 1_555
C3 N1 1_555 1_555
H5 C3 1_555 1_555
H6 C3 1_555 1_555
N2 O2 1_555 1_555
Cd1I O1I 1_555 1_555
Cd1I_2 O1O 1_555 1_555
Cd1I_3 O1N 1_555 1_555
N1I O1I 1_555 1_555
N1A O1A 1_555 1_555
N1O O1O 1_555 1_555
N1B O1B 1_555 1_555
N1N O1N 1_555 1_555
O1A Cd1 1_555 1_555
O1B Cd1 1_555 1_555
O1R Cd1 1_555 1_555
O1S Cd1 1_555 1_555
O1T Cd1 1_555 1_555
C1I C1 1_555 1_555
C1A N1A 1_555 1_555
C1O N1O 1_555 1_555
C1B N1B 1_555 1_555
C1N N1N 1_555 1_555
H1I C1I 1_555 1_555
H1A C1A 1_555 1_555
H1O C1O 1_555 1_555
H1B C1B 1_555 1_555
H1N C1N 1_555 1_555
H2I C1I 1_555 1_555
H2A C1A 1_555 1_555
H2O C1O 1_555 1_555
H2B C1B 1_555 1_555
H2N C1N 1_555 1_555
C2I C3 1_555 1_555
C2A N1A 1_555 1_555
C2O N1O 1_555 1_555
C2B N1B 1_555 1_555
C2N N1N 1_555 1_555
H3I C2I 1_555 1_555
H3A C2A 1_555 1_555
H3O C2O 1_555 1_555
H3B C2B 1_555 1_555
H3N C2N 1_555 1_555
H4I C2I 1_555 1_555
H4A C2A 1_555 1_555
H4O C2O 1_555 1_555
H4B C2B 1_555 1_555
H4N C2N 1_555 1_555
C3I C2 1_555 1_555
C3A N1A 1_555 1_555
C3O N1O 1_555 1_555
C3B N1B 1_555 1_555
C3N N1N 1_555 1_555
H5I C3I 1_555 1_555
H5A C3A 1_555 1_555
H5O C3O 1_555 1_555
H5B C3B 1_555 1_555
H5N C3N 1_555 1_555
H6I C3I 1_555 1_555
H6A C3A 1_555 1_555
H6O C3O 1_555 1_555
H6B C3B 1_555 1_555
H6N C3N 1_555 1_555
O2A N2 1_555 1_555
O2B N2 1_555 1_555
N1I C1I 1_555 1_555
N1I C2I 1_555 1_555
N1I C3I 1_555 1_555
C1A C1O 1_555 1_555
C1B C1N 1_555 1_555
C2A C3O 1_555 1_555
C2O C3A 1_555 1_555
C2B C3N 1_555 1_555
C2N C3B 1_555 1_555

#END
